# Generated by pormake.
# Topology lcs-e, (6)-cn, num edge types: 1
# Building blocks:
#     Node 0, Type 0, BuildingBlock: KUMBUR_clean_sbu_0, # of connection points: 6
#     Node 1, Type 0, BuildingBlock: KUMBUR_clean_sbu_0, # of connection points: 6
#     Node 2, Type 0, BuildingBlock: KUMBUR_clean_sbu_0, # of connection points: 6
#     Node 3, Type 0, BuildingBlock: KUMBUR_clean_sbu_0, # of connection points: 6
#     Node 4, Type 0, BuildingBlock: KUMBUR_clean_sbu_0, # of connection points: 6
#     Node 5, Type 0, BuildingBlock: KUMBUR_clean_sbu_0, # of connection points: 6
#     Node 6, Type 0, BuildingBlock: KUMBUR_clean_sbu_0, # of connection points: 6
#     Node 7, Type 0, BuildingBlock: KUMBUR_clean_sbu_0, # of connection points: 6
#     Node 8, Type 0, BuildingBlock: KUMBUR_clean_sbu_0, # of connection points: 6
#     Node 9, Type 0, BuildingBlock: KUMBUR_clean_sbu_0, # of connection points: 6
#     Node 10, Type 0, BuildingBlock: KUMBUR_clean_sbu_0, # of connection points: 6
#     Node 11, Type 0, BuildingBlock: KUMBUR_clean_sbu_0, # of connection points: 6
#     Node 12, Type 0, BuildingBlock: KUMBUR_clean_sbu_0, # of connection points: 6
#     Node 13, Type 0, BuildingBlock: KUMBUR_clean_sbu_0, # of connection points: 6
#     Node 14, Type 0, BuildingBlock: KUMBUR_clean_sbu_0, # of connection points: 6
#     Node 15, Type 0, BuildingBlock: KUMBUR_clean_sbu_0, # of connection points: 6
#     Node 16, Type 0, BuildingBlock: KUMBUR_clean_sbu_0, # of connection points: 6
#     Node 17, Type 0, BuildingBlock: KUMBUR_clean_sbu_0, # of connection points: 6
#     Node 18, Type 0, BuildingBlock: KUMBUR_clean_sbu_0, # of connection points: 6
#     Node 19, Type 0, BuildingBlock: KUMBUR_clean_sbu_0, # of connection points: 6
#     Node 20, Type 0, BuildingBlock: KUMBUR_clean_sbu_0, # of connection points: 6
#     Node 21, Type 0, BuildingBlock: KUMBUR_clean_sbu_0, # of connection points: 6
#     Node 22, Type 0, BuildingBlock: KUMBUR_clean_sbu_0, # of connection points: 6
#     Node 23, Type 0, BuildingBlock: KUMBUR_clean_sbu_0, # of connection points: 6
#     Node 24, Type 0, BuildingBlock: KUMBUR_clean_sbu_0, # of connection points: 6
#     Node 25, Type 0, BuildingBlock: KUMBUR_clean_sbu_0, # of connection points: 6
#     Node 26, Type 0, BuildingBlock: KUMBUR_clean_sbu_0, # of connection points: 6
#     Node 27, Type 0, BuildingBlock: KUMBUR_clean_sbu_0, # of connection points: 6
#     Node 28, Type 0, BuildingBlock: KUMBUR_clean_sbu_0, # of connection points: 6
#     Node 29, Type 0, BuildingBlock: KUMBUR_clean_sbu_0, # of connection points: 6
#     Node 30, Type 0, BuildingBlock: KUMBUR_clean_sbu_0, # of connection points: 6
#     Node 31, Type 0, BuildingBlock: KUMBUR_clean_sbu_0, # of connection points: 6
#     Node 32, Type 0, BuildingBlock: KUMBUR_clean_sbu_0, # of connection points: 6
#     Node 33, Type 0, BuildingBlock: KUMBUR_clean_sbu_0, # of connection points: 6
#     Node 34, Type 0, BuildingBlock: KUMBUR_clean_sbu_0, # of connection points: 6
#     Node 35, Type 0, BuildingBlock: KUMBUR_clean_sbu_0, # of connection points: 6
#     Node 36, Type 0, BuildingBlock: KUMBUR_clean_sbu_0, # of connection points: 6
#     Node 37, Type 0, BuildingBlock: KUMBUR_clean_sbu_0, # of connection points: 6
#     Node 38, Type 0, BuildingBlock: KUMBUR_clean_sbu_0, # of connection points: 6
#     Node 39, Type 0, BuildingBlock: KUMBUR_clean_sbu_0, # of connection points: 6
#     Node 40, Type 0, BuildingBlock: KUMBUR_clean_sbu_0, # of connection points: 6
#     Node 41, Type 0, BuildingBlock: KUMBUR_clean_sbu_0, # of connection points: 6
#     Node 42, Type 0, BuildingBlock: KUMBUR_clean_sbu_0, # of connection points: 6
#     Node 43, Type 0, BuildingBlock: KUMBUR_clean_sbu_0, # of connection points: 6
#     Node 44, Type 0, BuildingBlock: KUMBUR_clean_sbu_0, # of connection points: 6
#     Node 45, Type 0, BuildingBlock: KUMBUR_clean_sbu_0, # of connection points: 6
#     Node 46, Type 0, BuildingBlock: KUMBUR_clean_sbu_0, # of connection points: 6
#     Node 47, Type 0, BuildingBlock: KUMBUR_clean_sbu_0, # of connection points: 6
#     Edge 48, Type (0, 0), BuildingBlock: TEMPAE_clean_linker_10, # of connection points: 2
#     Edge 49, Type (0, 0), BuildingBlock: TEMPAE_clean_linker_10, # of connection points: 2
#     Edge 50, Type (0, 0), BuildingBlock: TEMPAE_clean_linker_10, # of connection points: 2
#     Edge 51, Type (0, 0), BuildingBlock: TEMPAE_clean_linker_10, # of connection points: 2
#     Edge 52, Type (0, 0), BuildingBlock: TEMPAE_clean_linker_10, # of connection points: 2
#     Edge 53, Type (0, 0), BuildingBlock: TEMPAE_clean_linker_10, # of connection points: 2
#     Edge 54, Type (0, 0), BuildingBlock: TEMPAE_clean_linker_10, # of connection points: 2
#     Edge 55, Type (0, 0), BuildingBlock: TEMPAE_clean_linker_10, # of connection points: 2
#     Edge 56, Type (0, 0), BuildingBlock: TEMPAE_clean_linker_10, # of connection points: 2
#     Edge 57, Type (0, 0), BuildingBlock: TEMPAE_clean_linker_10, # of connection points: 2
#     Edge 58, Type (0, 0), BuildingBlock: TEMPAE_clean_linker_10, # of connection points: 2
#     Edge 59, Type (0, 0), BuildingBlock: TEMPAE_clean_linker_10, # of connection points: 2
#     Edge 60, Type (0, 0), BuildingBlock: TEMPAE_clean_linker_10, # of connection points: 2
#     Edge 61, Type (0, 0), BuildingBlock: TEMPAE_clean_linker_10, # of connection points: 2
#     Edge 62, Type (0, 0), BuildingBlock: TEMPAE_clean_linker_10, # of connection points: 2
#     Edge 63, Type (0, 0), BuildingBlock: TEMPAE_clean_linker_10, # of connection points: 2
#     Edge 64, Type (0, 0), BuildingBlock: TEMPAE_clean_linker_10, # of connection points: 2
#     Edge 65, Type (0, 0), BuildingBlock: TEMPAE_clean_linker_10, # of connection points: 2
#     Edge 66, Type (0, 0), BuildingBlock: TEMPAE_clean_linker_10, # of connection points: 2
#     Edge 67, Type (0, 0), BuildingBlock: TEMPAE_clean_linker_10, # of connection points: 2
#     Edge 68, Type (0, 0), BuildingBlock: TEMPAE_clean_linker_10, # of connection points: 2
#     Edge 69, Type (0, 0), BuildingBlock: TEMPAE_clean_linker_10, # of connection points: 2
#     Edge 70, Type (0, 0), BuildingBlock: TEMPAE_clean_linker_10, # of connection points: 2
#     Edge 71, Type (0, 0), BuildingBlock: TEMPAE_clean_linker_10, # of connection points: 2
#     Edge 72, Type (0, 0), BuildingBlock: TEMPAE_clean_linker_10, # of connection points: 2
#     Edge 73, Type (0, 0), BuildingBlock: TEMPAE_clean_linker_10, # of connection points: 2
#     Edge 74, Type (0, 0), BuildingBlock: TEMPAE_clean_linker_10, # of connection points: 2
#     Edge 75, Type (0, 0), BuildingBlock: TEMPAE_clean_linker_10, # of connection points: 2
#     Edge 76, Type (0, 0), BuildingBlock: TEMPAE_clean_linker_10, # of connection points: 2
#     Edge 77, Type (0, 0), BuildingBlock: TEMPAE_clean_linker_10, # of connection points: 2
#     Edge 78, Type (0, 0), BuildingBlock: TEMPAE_clean_linker_10, # of connection points: 2
#     Edge 79, Type (0, 0), BuildingBlock: TEMPAE_clean_linker_10, # of connection points: 2
#     Edge 80, Type (0, 0), BuildingBlock: TEMPAE_clean_linker_10, # of connection points: 2
#     Edge 81, Type (0, 0), BuildingBlock: TEMPAE_clean_linker_10, # of connection points: 2
#     Edge 82, Type (0, 0), BuildingBlock: TEMPAE_clean_linker_10, # of connection points: 2
#     Edge 83, Type (0, 0), BuildingBlock: TEMPAE_clean_linker_10, # of connection points: 2
#     Edge 84, Type (0, 0), BuildingBlock: TEMPAE_clean_linker_10, # of connection points: 2
#     Edge 85, Type (0, 0), BuildingBlock: TEMPAE_clean_linker_10, # of connection points: 2
#     Edge 86, Type (0, 0), BuildingBlock: TEMPAE_clean_linker_10, # of connection points: 2
#     Edge 87, Type (0, 0), BuildingBlock: TEMPAE_clean_linker_10, # of connection points: 2
#     Edge 88, Type (0, 0), BuildingBlock: TEMPAE_clean_linker_10, # of connection points: 2
#     Edge 89, Type (0, 0), BuildingBlock: TEMPAE_clean_linker_10, # of connection points: 2
#     Edge 90, Type (0, 0), BuildingBlock: TEMPAE_clean_linker_10, # of connection points: 2
#     Edge 91, Type (0, 0), BuildingBlock: TEMPAE_clean_linker_10, # of connection points: 2
#     Edge 92, Type (0, 0), BuildingBlock: TEMPAE_clean_linker_10, # of connection points: 2
#     Edge 93, Type (0, 0), BuildingBlock: TEMPAE_clean_linker_10, # of connection points: 2
#     Edge 94, Type (0, 0), BuildingBlock: TEMPAE_clean_linker_10, # of connection points: 2
#     Edge 95, Type (0, 0), BuildingBlock: TEMPAE_clean_linker_10, # of connection points: 2
#     Edge 96, Type (0, 0), BuildingBlock: TEMPAE_clean_linker_10, # of connection points: 2
#     Edge 97, Type (0, 0), BuildingBlock: TEMPAE_clean_linker_10, # of connection points: 2
#     Edge 98, Type (0, 0), BuildingBlock: TEMPAE_clean_linker_10, # of connection points: 2
#     Edge 99, Type (0, 0), BuildingBlock: TEMPAE_clean_linker_10, # of connection points: 2
#     Edge 100, Type (0, 0), BuildingBlock: TEMPAE_clean_linker_10, # of connection points: 2
#     Edge 101, Type (0, 0), BuildingBlock: TEMPAE_clean_linker_10, # of connection points: 2
#     Edge 102, Type (0, 0), BuildingBlock: TEMPAE_clean_linker_10, # of connection points: 2
#     Edge 103, Type (0, 0), BuildingBlock: TEMPAE_clean_linker_10, # of connection points: 2
#     Edge 104, Type (0, 0), BuildingBlock: TEMPAE_clean_linker_10, # of connection points: 2
#     Edge 105, Type (0, 0), BuildingBlock: TEMPAE_clean_linker_10, # of connection points: 2
#     Edge 106, Type (0, 0), BuildingBlock: TEMPAE_clean_linker_10, # of connection points: 2
#     Edge 107, Type (0, 0), BuildingBlock: TEMPAE_clean_linker_10, # of connection points: 2
#     Edge 108, Type (0, 0), BuildingBlock: TEMPAE_clean_linker_10, # of connection points: 2
#     Edge 109, Type (0, 0), BuildingBlock: TEMPAE_clean_linker_10, # of connection points: 2
#     Edge 110, Type (0, 0), BuildingBlock: TEMPAE_clean_linker_10, # of connection points: 2
#     Edge 111, Type (0, 0), BuildingBlock: TEMPAE_clean_linker_10, # of connection points: 2
#     Edge 112, Type (0, 0), BuildingBlock: TEMPAE_clean_linker_10, # of connection points: 2
#     Edge 113, Type (0, 0), BuildingBlock: TEMPAE_clean_linker_10, # of connection points: 2
#     Edge 114, Type (0, 0), BuildingBlock: TEMPAE_clean_linker_10, # of connection points: 2
#     Edge 115, Type (0, 0), BuildingBlock: TEMPAE_clean_linker_10, # of connection points: 2
#     Edge 116, Type (0, 0), BuildingBlock: TEMPAE_clean_linker_10, # of connection points: 2
#     Edge 117, Type (0, 0), BuildingBlock: TEMPAE_clean_linker_10, # of connection points: 2
#     Edge 118, Type (0, 0), BuildingBlock: TEMPAE_clean_linker_10, # of connection points: 2
#     Edge 119, Type (0, 0), BuildingBlock: TEMPAE_clean_linker_10, # of connection points: 2
#     Edge 120, Type (0, 0), BuildingBlock: TEMPAE_clean_linker_10, # of connection points: 2
#     Edge 121, Type (0, 0), BuildingBlock: TEMPAE_clean_linker_10, # of connection points: 2
#     Edge 122, Type (0, 0), BuildingBlock: TEMPAE_clean_linker_10, # of connection points: 2
#     Edge 123, Type (0, 0), BuildingBlock: TEMPAE_clean_linker_10, # of connection points: 2
#     Edge 124, Type (0, 0), BuildingBlock: TEMPAE_clean_linker_10, # of connection points: 2
#     Edge 125, Type (0, 0), BuildingBlock: TEMPAE_clean_linker_10, # of connection points: 2
#     Edge 126, Type (0, 0), BuildingBlock: TEMPAE_clean_linker_10, # of connection points: 2
#     Edge 127, Type (0, 0), BuildingBlock: TEMPAE_clean_linker_10, # of connection points: 2
#     Edge 128, Type (0, 0), BuildingBlock: TEMPAE_clean_linker_10, # of connection points: 2
#     Edge 129, Type (0, 0), BuildingBlock: TEMPAE_clean_linker_10, # of connection points: 2
#     Edge 130, Type (0, 0), BuildingBlock: TEMPAE_clean_linker_10, # of connection points: 2
#     Edge 131, Type (0, 0), BuildingBlock: TEMPAE_clean_linker_10, # of connection points: 2
#     Edge 132, Type (0, 0), BuildingBlock: TEMPAE_clean_linker_10, # of connection points: 2
#     Edge 133, Type (0, 0), BuildingBlock: TEMPAE_clean_linker_10, # of connection points: 2
#     Edge 134, Type (0, 0), BuildingBlock: TEMPAE_clean_linker_10, # of connection points: 2
#     Edge 135, Type (0, 0), BuildingBlock: TEMPAE_clean_linker_10, # of connection points: 2
#     Edge 136, Type (0, 0), BuildingBlock: TEMPAE_clean_linker_10, # of connection points: 2
#     Edge 137, Type (0, 0), BuildingBlock: TEMPAE_clean_linker_10, # of connection points: 2
#     Edge 138, Type (0, 0), BuildingBlock: TEMPAE_clean_linker_10, # of connection points: 2
#     Edge 139, Type (0, 0), BuildingBlock: TEMPAE_clean_linker_10, # of connection points: 2
#     Edge 140, Type (0, 0), BuildingBlock: TEMPAE_clean_linker_10, # of connection points: 2
#     Edge 141, Type (0, 0), BuildingBlock: TEMPAE_clean_linker_10, # of connection points: 2
#     Edge 142, Type (0, 0), BuildingBlock: TEMPAE_clean_linker_10, # of connection points: 2
#     Edge 143, Type (0, 0), BuildingBlock: TEMPAE_clean_linker_10, # of connection points: 2
#     Edge 144, Type (0, 0), BuildingBlock: TEMPAE_clean_linker_10, # of connection points: 2
#     Edge 145, Type (0, 0), BuildingBlock: TEMPAE_clean_linker_10, # of connection points: 2
#     Edge 146, Type (0, 0), BuildingBlock: TEMPAE_clean_linker_10, # of connection points: 2
#     Edge 147, Type (0, 0), BuildingBlock: TEMPAE_clean_linker_10, # of connection points: 2
#     Edge 148, Type (0, 0), BuildingBlock: TEMPAE_clean_linker_10, # of connection points: 2
#     Edge 149, Type (0, 0), BuildingBlock: TEMPAE_clean_linker_10, # of connection points: 2
#     Edge 150, Type (0, 0), BuildingBlock: TEMPAE_clean_linker_10, # of connection points: 2
#     Edge 151, Type (0, 0), BuildingBlock: TEMPAE_clean_linker_10, # of connection points: 2
#     Edge 152, Type (0, 0), BuildingBlock: TEMPAE_clean_linker_10, # of connection points: 2
#     Edge 153, Type (0, 0), BuildingBlock: TEMPAE_clean_linker_10, # of connection points: 2
#     Edge 154, Type (0, 0), BuildingBlock: TEMPAE_clean_linker_10, # of connection points: 2
#     Edge 155, Type (0, 0), BuildingBlock: TEMPAE_clean_linker_10, # of connection points: 2
#     Edge 156, Type (0, 0), BuildingBlock: TEMPAE_clean_linker_10, # of connection points: 2
#     Edge 157, Type (0, 0), BuildingBlock: TEMPAE_clean_linker_10, # of connection points: 2
#     Edge 158, Type (0, 0), BuildingBlock: TEMPAE_clean_linker_10, # of connection points: 2
#     Edge 159, Type (0, 0), BuildingBlock: TEMPAE_clean_linker_10, # of connection points: 2
#     Edge 160, Type (0, 0), BuildingBlock: TEMPAE_clean_linker_10, # of connection points: 2
#     Edge 161, Type (0, 0), BuildingBlock: TEMPAE_clean_linker_10, # of connection points: 2
#     Edge 162, Type (0, 0), BuildingBlock: TEMPAE_clean_linker_10, # of connection points: 2
#     Edge 163, Type (0, 0), BuildingBlock: TEMPAE_clean_linker_10, # of connection points: 2
#     Edge 164, Type (0, 0), BuildingBlock: TEMPAE_clean_linker_10, # of connection points: 2
#     Edge 165, Type (0, 0), BuildingBlock: TEMPAE_clean_linker_10, # of connection points: 2
#     Edge 166, Type (0, 0), BuildingBlock: TEMPAE_clean_linker_10, # of connection points: 2
#     Edge 167, Type (0, 0), BuildingBlock: TEMPAE_clean_linker_10, # of connection points: 2
#     Edge 168, Type (0, 0), BuildingBlock: TEMPAE_clean_linker_10, # of connection points: 2
#     Edge 169, Type (0, 0), BuildingBlock: TEMPAE_clean_linker_10, # of connection points: 2
#     Edge 170, Type (0, 0), BuildingBlock: TEMPAE_clean_linker_10, # of connection points: 2
#     Edge 171, Type (0, 0), BuildingBlock: TEMPAE_clean_linker_10, # of connection points: 2
#     Edge 172, Type (0, 0), BuildingBlock: TEMPAE_clean_linker_10, # of connection points: 2
#     Edge 173, Type (0, 0), BuildingBlock: TEMPAE_clean_linker_10, # of connection points: 2
#     Edge 174, Type (0, 0), BuildingBlock: TEMPAE_clean_linker_10, # of connection points: 2
#     Edge 175, Type (0, 0), BuildingBlock: TEMPAE_clean_linker_10, # of connection points: 2
#     Edge 176, Type (0, 0), BuildingBlock: TEMPAE_clean_linker_10, # of connection points: 2
#     Edge 177, Type (0, 0), BuildingBlock: TEMPAE_clean_linker_10, # of connection points: 2
#     Edge 178, Type (0, 0), BuildingBlock: TEMPAE_clean_linker_10, # of connection points: 2
#     Edge 179, Type (0, 0), BuildingBlock: TEMPAE_clean_linker_10, # of connection points: 2
#     Edge 180, Type (0, 0), BuildingBlock: TEMPAE_clean_linker_10, # of connection points: 2
#     Edge 181, Type (0, 0), BuildingBlock: TEMPAE_clean_linker_10, # of connection points: 2
#     Edge 182, Type (0, 0), BuildingBlock: TEMPAE_clean_linker_10, # of connection points: 2
#     Edge 183, Type (0, 0), BuildingBlock: TEMPAE_clean_linker_10, # of connection points: 2
#     Edge 184, Type (0, 0), BuildingBlock: TEMPAE_clean_linker_10, # of connection points: 2
#     Edge 185, Type (0, 0), BuildingBlock: TEMPAE_clean_linker_10, # of connection points: 2
#     Edge 186, Type (0, 0), BuildingBlock: TEMPAE_clean_linker_10, # of connection points: 2
#     Edge 187, Type (0, 0), BuildingBlock: TEMPAE_clean_linker_10, # of connection points: 2
#     Edge 188, Type (0, 0), BuildingBlock: TEMPAE_clean_linker_10, # of connection points: 2
#     Edge 189, Type (0, 0), BuildingBlock: TEMPAE_clean_linker_10, # of connection points: 2
#     Edge 190, Type (0, 0), BuildingBlock: TEMPAE_clean_linker_10, # of connection points: 2
#     Edge 191, Type (0, 0), BuildingBlock: TEMPAE_clean_linker_10, # of connection points: 2
# Relax obj value: 0.210
# Max RMSD: 0.192
# Mean RMSD: 0.189
data_MOF--net-lcs-e--node1-KUMBUR_clean_sbu_0--edge1-TEMPAE_clean_linker_10
_symmetry_space_group_name_H-M    P1
_symmetry_Int_Tables_number       1
_symmetry_cell_setting            triclinic
loop_
_symmetry_equiv_pos_as_xyz
'x, y, z'
_cell_length_a     66.838622
_cell_length_b     66.910707
_cell_length_c     67.07669
_cell_angle_alpha  89.921247
_cell_angle_beta   90.173665
_cell_angle_gamma 90.395819
loop_
_atom_site_label
_atom_site_type_symbol
_atom_site_fract_x
_atom_site_fract_y
_atom_site_fract_z
_atom_type_partial_charge
Tb0 Tb 0.02334 0.39877 0.30795 0.0
C1 C 0.07019 0.35209 0.25266 0.0
C2 C 0.10124 0.34448 0.27014 0.0
C3 C 0.08779 0.32108 0.24588 0.0
C4 C 0.08486 0.35739 0.26681 0.0
C5 C 0.07206 0.33422 0.24168 0.0
C6 C 0.10222 0.32613 0.26014 0.0
C7 C 0.04315 0.34379 0.2222 0.0
N8 N 0.0542 0.36445 0.24949 0.0
C9 C 0.04135 0.36103 0.23373 0.0
C10 C 0.05831 0.33017 0.22641 0.0
Tb11 Tb 0.05505 0.39277 0.26881 0.0
N12 N 0.08386 0.37548 0.27627 0.0
C13 C 0.09981 0.38196 0.28756 0.0
C14 C 0.11669 0.35063 0.28284 0.0
C15 C 0.11622 0.36963 0.29111 0.0
H16 H 0.02928 0.37129 0.23068 0.0
H17 H 0.12844 0.37478 0.30046 0.0
H18 H 0.11454 0.316 0.2628 0.0
H19 H 0.03268 0.34087 0.2102 0.0
H20 H 0.10029 0.39641 0.29438 0.0
H21 H 0.97815 0.39191 0.2418 0.0
H22 H 0.12943 0.34111 0.28575 0.0
H23 H 0.0261 0.43278 0.34392 0.0
H24 H 1.00436 0.38159 0.26575 0.0
H25 H 1.00834 0.46377 0.35275 0.0
H26 H 0.08918 0.30713 0.23784 0.0
H27 H 0.95921 0.42305 0.2476 0.0
H28 H 0.95294 0.45318 0.2692 0.0
H29 H 0.05941 0.31666 0.21761 0.0
H30 H 0.96112 0.47265 0.29932 0.0
N31 N 1.00033 0.40671 0.28453 0.0
C32 C 0.99618 0.39516 0.26832 0.0
C33 C 0.97072 0.41861 0.25809 0.0
C34 C 0.97498 0.43025 0.27493 0.0
C35 C 0.98137 0.401 0.25476 0.0
C36 C 0.9901 0.42382 0.28803 0.0
H37 H 0.98165 0.47666 0.33064 0.0
N38 N 1.00983 0.42845 0.31687 0.0
C39 C 1.00448 0.45587 0.33919 0.0
C40 C 0.99495 0.43499 0.3048 0.0
C41 C 1.01459 0.43839 0.33407 0.0
C42 C 0.98939 0.46307 0.32668 0.0
C43 C 0.98444 0.45261 0.30924 0.0
O44 O 1.01893 0.39563 0.33861 0.0
O45 O 0.04727 0.3813 0.29757 0.0
O46 O 0.03733 0.36187 0.27169 0.0
O47 O 1.01911 0.36443 0.30025 0.0
O48 O 0.04919 0.39232 0.32619 0.0
O49 O 0.99703 0.38428 0.31731 0.0
O50 O 0.05199 0.40018 0.23851 0.0
O51 O 0.03316 0.41488 0.28115 0.0
O52 O 0.04684 0.42176 0.31361 0.0
O53 O 0.07077 0.41222 0.28992 0.0
O54 O 0.04782 0.42442 0.25871 0.0
O55 O 0.08161 0.39979 0.25427 0.0
C56 C 0.05793 0.38114 0.31329 0.0
C57 C 0.98647 0.39003 0.35048 0.0
C58 C 0.96958 0.3783 0.38014 0.0
C59 C 0.98328 0.37531 0.36482 0.0
C60 C 0.95898 0.39639 0.38099 0.0
C61 C 0.97565 0.40786 0.35106 0.0
C62 C 0.962 0.41106 0.36643 0.0
C63 C 0.0261 0.35222 0.28564 0.0
C64 C 1.00206 0.38615 0.33604 0.0
C65 C 0.96932 0.45909 0.29624 0.0
C66 C 0.96464 0.44799 0.27909 0.0
C67 C 0.03646 0.43239 0.27202 0.0
C68 C 0.08204 0.40774 0.21916 0.0
C69 C 0.10071 0.41735 0.22037 0.0
C70 C 0.11144 0.42176 0.20304 0.0
C71 C 0.10343 0.41625 0.1844 0.0
C72 C 0.07414 0.40239 0.20053 0.0
C73 C 0.08489 0.40659 0.1832 0.0
C74 C 0.06482 0.42358 0.30504 0.0
C75 C 0.07168 0.402 0.23744 0.0
H76 H 0.99146 0.36138 0.36392 0.0
H77 H 0.94845 0.39918 0.39289 0.0
H78 H 0.97767 0.41921 0.33982 0.0
H79 H 0.95377 0.42492 0.36707 0.0
H80 H 0.10684 0.42154 0.23478 0.0
H81 H 0.11164 0.41922 0.1708 0.0
H82 H 0.05992 0.39459 0.1994 0.0
H83 H 0.0789 0.40222 0.16883 0.0
Tb84 Tb 0.88996 0.77243 0.55887 0.0
C85 C 0.93184 0.82751 0.50362 0.0
C86 C 0.93561 0.85938 0.52085 0.0
C87 C 0.95879 0.85053 0.49462 0.0
C88 C 0.92525 0.84101 0.5182 0.0
C89 C 0.94848 0.83247 0.49158 0.0
C90 C 0.9524 0.8639 0.50919 0.0
C91 C 0.94341 0.80166 0.47346 0.0
N92 N 0.92204 0.80968 0.50109 0.0
C93 C 0.9271 0.79718 0.48565 0.0
C94 C 0.95424 0.81926 0.47654 0.0
Tb95 Tb 0.89463 0.80585 0.52119 0.0
N96 N 0.90897 0.83631 0.52967 0.0
C97 C 0.90313 0.84935 0.54441 0.0
C98 C 0.92892 0.87284 0.53522 0.0
C99 C 0.91264 0.86779 0.54702 0.0
H100 H 0.91883 0.78343 0.48325 0.0
H101 H 0.90788 0.87775 0.55878 0.0
H102 H 0.96052 0.87783 0.51124 0.0
H103 H 0.94762 0.79152 0.46166 0.0
H104 H 0.89226 0.84561 0.5555 0.0
H105 H 0.89637 0.73212 0.48981 0.0
H106 H 0.93652 0.88699 0.53765 0.0
H107 H 0.8555 0.77264 0.59456 0.0
H108 H 0.90758 0.75559 0.51613 0.0
H109 H 0.82282 0.75638 0.60063 0.0
H110 H 0.97169 0.85442 0.48563 0.0
H111 H 0.86385 0.71447 0.49308 0.0
H112 H 0.83244 0.70828 0.51297 0.0
H113 H 0.96693 0.82263 0.46706 0.0
H114 H 0.81237 0.71507 0.54291 0.0
N115 N 0.88186 0.75089 0.53403 0.0
C116 C 0.89355 0.74772 0.51776 0.0
C117 C 0.86879 0.72457 0.50473 0.0
C118 C 0.85695 0.72786 0.52159 0.0
C119 C 0.88718 0.73453 0.50283 0.0
C120 C 0.86406 0.74117 0.53624 0.0
H121 H 0.80866 0.73294 0.57571 0.0
N122 N 0.85963 0.75876 0.5663 0.0
C123 C 0.83098 0.75319 0.58711 0.0
C124 C 0.85256 0.74529 0.5529 0.0
C125 C 0.84946 0.76243 0.58357 0.0
C126 C 0.82307 0.73993 0.57302 0.0
C127 C 0.83393 0.73574 0.55571 0.0
O128 O 0.8931 0.76672 0.58929 0.0
O129 O 0.90763 0.79645 0.5489 0.0
O130 O 0.92677 0.79077 0.5233 0.0
O131 O 0.92447 0.76924 0.54985 0.0
O132 O 0.89703 0.79816 0.5772 0.0
O133 O 0.90337 0.74538 0.56726 0.0
O134 O 0.88671 0.80139 0.49118 0.0
O135 O 0.87314 0.78316 0.53338 0.0
O136 O 0.86742 0.7956 0.56664 0.0
O137 O 0.87521 0.81989 0.5427 0.0
O138 O 0.86349 0.79666 0.51043 0.0
O139 O 0.88287 0.83041 0.50705 0.0
C140 C 0.90958 0.80632 0.565 0.0
C141 C 0.89602 0.73367 0.59975 0.0
C142 C 0.90367 0.71724 0.63075 0.0
C143 C 0.90831 0.73137 0.61631 0.0
C144 C 0.88651 0.70522 0.62876 0.0
C145 C 0.87886 0.72169 0.59746 0.0
C146 C 0.87407 0.70753 0.61209 0.0
C147 C 0.9366 0.77809 0.53586 0.0
C148 C 0.90152 0.74957 0.58613 0.0
C149 C 0.82676 0.72242 0.54115 0.0
C150 C 0.83821 0.71852 0.52411 0.0
C151 C 0.85569 0.78543 0.52398 0.0
C152 C 0.8835 0.83192 0.47209 0.0
C153 C 0.87297 0.84981 0.47105 0.0
C154 C 0.8736 0.86168 0.45402 0.0
C155 C 0.88488 0.85537 0.43756 0.0
C156 C 0.89457 0.82547 0.45561 0.0
C157 C 0.89535 0.83732 0.43842 0.0
C158 C 0.86478 0.81356 0.55828 0.0
C159 C 0.88079 0.82024 0.49027 0.0
H160 H 0.92164 0.74063 0.618 0.0
H161 H 0.88287 0.69411 0.63996 0.0
H162 H 0.86927 0.72323 0.58457 0.0
H163 H 0.8608 0.69831 0.61049 0.0
H164 H 0.86369 0.85429 0.48352 0.0
H165 H 0.88562 0.86436 0.42414 0.0
H166 H 0.90228 0.81133 0.45585 0.0
H167 H 0.90391 0.83243 0.42569 0.0
Tb168 Tb 0.48496 0.64839 0.77426 0.0
C169 C 0.53489 0.60237 0.82739 0.0
C170 C 0.51806 0.59995 0.85941 0.0
C171 C 0.53866 0.57258 0.84797 0.0
C172 C 0.52198 0.61065 0.84157 0.0
C173 C 0.54387 0.58363 0.83098 0.0
C174 C 0.52574 0.58068 0.86209 0.0
C175 C 0.56469 0.58891 0.80205 0.0
N176 N 0.53971 0.61313 0.81075 0.0
C177 C 0.5555 0.60732 0.79895 0.0
C178 C 0.55853 0.57682 0.81784 0.0
Tb179 Tb 0.52267 0.64269 0.80755 0.0
N180 N 0.5151 0.62975 0.83896 0.0
C181 C 0.50683 0.63947 0.85509 0.0
C182 C 0.50754 0.60929 0.8747 0.0
C183 C 0.50243 0.62927 0.87273 0.0
H184 H 0.55996 0.61623 0.78624 0.0
H185 H 0.49531 0.63698 0.88496 0.0
H186 H 0.52256 0.57227 0.87555 0.0
H187 H 0.57643 0.58399 0.79216 0.0
H188 H 0.50381 0.65526 0.85528 0.0
H189 H 0.54905 0.63418 0.72812 0.0
H190 H 0.50426 0.60153 0.88851 0.0
H191 H 0.45584 0.68916 0.77985 0.0
H192 H 0.52418 0.62632 0.75402 0.0
H193 H 0.45436 0.72296 0.76588 0.0
H194 H 0.54518 0.55806 0.85075 0.0
H195 H 0.54817 0.66684 0.7108 0.0
H196 H 0.53222 0.70053 0.70678 0.0
H197 H 0.56573 0.56254 0.82018 0.0
H198 H 0.50671 0.72465 0.71722 0.0
N199 N 0.50913 0.65402 0.75123 0.0
C200 C 0.52347 0.64048 0.74649 0.0
C201 C 0.53708 0.66339 0.72206 0.0
C202 C 0.52238 0.67727 0.7271 0.0
C203 C 0.53765 0.64494 0.73183 0.0
C204 C 0.50833 0.67204 0.74185 0.0
H205 H 0.47793 0.73328 0.73943 0.0
N206 N 0.48121 0.68038 0.76258 0.0
C207 C 0.46567 0.71269 0.76074 0.0
C208 C 0.49394 0.68566 0.74774 0.0
C209 C 0.46693 0.69354 0.76895 0.0
C210 C 0.4789 0.7184 0.74572 0.0
C211 C 0.49321 0.70484 0.73899 0.0
O212 O 0.4541 0.6493 0.77033 0.0
O213 O 0.49471 0.63026 0.79828 0.0
O214 O 0.51863 0.61121 0.79115 0.0
O215 O 0.4917 0.61371 0.77032 0.0
O216 O 0.46637 0.64067 0.79964 0.0
O217 O 0.47271 0.63668 0.7474 0.0
O218 O 0.55254 0.64998 0.79796 0.0
O219 O 0.51281 0.66438 0.78346 0.0
O220 O 0.47783 0.66915 0.79842 0.0
O221 O 0.50141 0.66113 0.82288 0.0
O222 O 0.52618 0.67654 0.80685 0.0
O223 O 0.54286 0.64762 0.82969 0.0
C224 C 0.4787 0.6288 0.80838 0.0
C225 C 0.43975 0.64779 0.73847 0.0
C226 C 0.41057 0.63864 0.71862 0.0
C227 C 0.42835 0.63335 0.72847 0.0
C228 C 0.40476 0.65884 0.71839 0.0
C229 C 0.434 0.66788 0.73747 0.0
C230 C 0.41666 0.67337 0.72743 0.0
C231 C 0.50575 0.6015 0.77862 0.0
C232 C 0.45455 0.64078 0.75301 0.0
C233 C 0.50701 0.70999 0.72409 0.0
C234 C 0.52154 0.69625 0.71815 0.0
C235 C 0.51801 0.68259 0.79038 0.0
C236 C 0.57638 0.65787 0.82575 0.0
C237 C 0.57588 0.66755 0.84435 0.0
C238 C 0.59333 0.67006 0.85554 0.0
C239 C 0.61165 0.66365 0.84778 0.0
C240 C 0.59473 0.65171 0.81794 0.0
C241 C 0.61234 0.65473 0.82892 0.0
C242 C 0.48594 0.67128 0.81632 0.0
C243 C 0.55748 0.65078 0.8171 0.0
H244 H 0.43299 0.61787 0.72917 0.0
H245 H 0.39079 0.66347 0.71167 0.0
H246 H 0.44228 0.67929 0.74504 0.0
H247 H 0.41205 0.68885 0.72725 0.0
H248 H 0.56175 0.67223 0.85068 0.0
H249 H 0.62532 0.66548 0.85632 0.0
H250 H 0.59533 0.64376 0.8039 0.0
H251 H 0.62648 0.64965 0.82305 0.0
Tb252 Tb 0.65378 0.27409 0.04764 0.0
C253 C 0.60382 0.21102 1.01237 0.0
C254 C 0.60095 0.18193 0.03388 0.0
C255 C 0.57311 0.19126 1.01254 0.0
C256 C 0.61221 0.19844 0.02678 0.0
C257 C 0.58444 0.20716 1.0048 0.0
C258 C 0.5813 0.17875 0.02707 0.0
C259 C 0.58879 0.23482 0.98197 0.0
N260 N 0.61453 0.2272 1.00589 0.0
C261 C 0.60778 0.23835 0.99 0.0
C262 C 0.57693 0.21942 0.98963 0.0
Tb263 Tb 0.6449 0.23165 0.02141 0.0
N264 N 0.6314 0.20187 0.03326 0.0
C265 C 0.64056 0.18773 0.045 0.0
C266 C 0.60981 0.16879 0.04739 0.0
C267 C 0.62978 0.17148 0.05263 0.0
H268 H 0.6165 0.25081 0.98443 0.0
H269 H 0.63701 0.16079 0.06235 0.0
H270 H 0.57244 0.16635 0.03267 0.0
H271 H 0.5832 0.24416 0.97003 0.0
H272 H 0.65622 0.18828 0.04861 0.0
H273 H 0.63104 0.30449 0.97652 0.0
H274 H 0.60159 0.15607 0.05324 0.0
H275 H 0.70024 0.27206 0.06953 0.0
H276 H 0.62854 0.28114 1.00477 0.0
H277 H 0.73113 0.29145 0.0671 0.0
H278 H 0.55806 0.18835 1.00719 0.0
H279 H 0.66004 0.32752 0.97388 0.0
H280 H 0.69307 0.33945 0.98755 0.0
H281 H 0.56209 0.21693 0.98354 0.0
H282 H 0.71998 0.33622 1.01242 0.0
N283 N 0.65556 0.29118 1.01844 0.0
C284 C 0.64115 0.29119 1.00401 0.0
C285 C 0.65905 0.31727 0.98636 0.0
C286 C 0.67424 0.31649 1.00072 0.0
C287 C 0.64262 0.30431 0.98782 0.0
C288 C 0.67223 0.30286 1.01661 0.0
H289 H 0.73434 0.31832 0.04202 0.0
N290 N 0.68577 0.28667 0.04488 0.0
C291 C 0.71905 0.29421 0.05669 0.0
C292 C 0.68772 0.30069 0.03033 0.0
C293 C 0.7015 0.28282 0.05763 0.0
C294 C 0.72073 0.30946 0.0426 0.0
C295 C 0.70515 0.31263 0.02898 0.0
O296 O 0.66597 0.2974 0.06475 0.0
O297 O 0.63618 0.24823 0.04638 0.0
O298 O 0.61334 0.2466 0.02711 0.0
O299 O 0.61903 0.27798 0.03943 0.0
O300 O 0.6466 0.25649 0.07408 0.0
O301 O 0.6345 0.29301 0.06393 0.0
O302 O 0.65049 0.23898 0.99078 0.0
O303 O 0.66788 0.25682 0.0231 0.0
O304 O 0.6739 0.25075 0.06147 0.0
O305 O 0.66285 0.22114 0.04599 0.0
O306 O 0.67842 0.22899 1.01921 0.0
O307 O 0.64935 0.20792 1.00311 0.0
C308 C 0.63511 0.24405 0.06482 0.0
C309 C 0.65004 0.29747 0.09513 0.0
C310 C 0.63481 0.30112 0.12728 0.0
C311 C 0.63563 0.30611 0.10713 0.0
C312 C 0.64836 0.28757 0.13563 0.0
C313 C 0.66402 0.28413 0.10361 0.0
C314 C 0.66307 0.27917 0.12376 0.0
C315 C 0.60515 0.26416 0.03294 0.0
C316 C 0.64944 0.3009 0.07361 0.0
C317 C 0.70673 0.32689 1.0137 0.0
C318 C 0.6914 0.32871 0.99953 0.0
C319 C 0.68536 0.24715 0.02085 0.0
C320 C 0.65742 0.20981 0.96883 0.0
C321 C 0.66609 0.19078 0.96989 0.0
C322 C 0.66799 0.17904 0.95286 0.0
C323 C 0.66203 0.18684 0.93433 0.0
C324 C 0.6518 0.21765 0.95031 0.0
C325 C 0.65426 0.20619 0.93306 0.0
C326 C 0.67456 0.23089 0.05873 0.0
C327 C 0.6517 0.21952 0.98747 0.0
H328 H 0.62482 0.31636 0.10076 0.0
H329 H 0.64769 0.28377 0.15133 0.0
H330 H 0.67535 0.27708 0.09462 0.0
H331 H 0.67364 0.26874 0.13011 0.0
H332 H 0.67044 0.18457 0.9842 0.0
H333 H 0.6635 0.17802 0.92088 0.0
H334 H 0.64484 0.2322 0.94927 0.0
H335 H 0.64968 0.21212 0.91875 0.0
Tb336 Tb 1.01765 0.63591 0.2387 0.0
C337 C 0.08069 0.68305 0.26965 0.0
C338 C 0.11011 0.67679 0.25001 0.0
C339 C 0.10213 0.71077 0.25977 0.0
C340 C 0.09244 0.66986 0.25926 0.0
C341 C 0.08625 0.70335 0.27132 0.0
C342 C 0.11406 0.69745 0.24901 0.0
C343 C 0.06368 0.70601 0.2992 0.0
N344 N 0.06565 0.67524 0.28069 0.0
C345 C 0.05863 0.68582 0.29686 0.0
C346 C 0.07687 0.71507 0.28577 0.0
Tb347 Tb 0.05574 0.6432 0.27175 0.0
N348 N 0.08827 0.64999 0.26115 0.0
C349 C 0.10343 0.63659 0.2581 0.0
C350 C 0.12411 0.66275 0.24379 0.0
C351 C 0.12121 0.64268 0.2488 0.0
H352 H 0.04757 0.67925 0.30666 0.0
H353 H 0.13283 0.63195 0.24578 0.0
H354 H 0.12719 0.7031 0.24135 0.0
H355 H 0.05709 0.71466 0.31109 0.0
H356 H 0.10169 0.62108 0.26229 0.0
H357 H 0.98008 0.64928 0.30845 0.0
H358 H 0.13794 0.66741 0.23672 0.0
H359 H 1.01944 0.59453 0.20928 0.0
H360 H 1.00565 0.65566 0.28275 0.0
H361 H 0.99905 0.56429 0.20499 0.0
H362 H 0.10623 0.72646 0.26027 0.0
H363 H 0.95683 0.62054 0.30501 0.0
H364 H 0.94553 0.59044 0.2855 0.0
H365 H 0.08071 0.73073 0.28757 0.0
H366 H 0.95016 0.56789 0.25698 0.0
N367 N 0.99685 0.63093 0.26486 0.0
C368 C 0.99555 0.64319 0.28099 0.0
C369 C 0.96804 0.62326 0.29367 0.0
C370 C 0.96975 0.6105 0.27725 0.0
C371 C 0.98114 0.63952 0.29565 0.0
C372 C 0.98468 0.6146 0.26304 0.0
H373 H 0.97014 0.55792 0.22703 0.0
N374 N 1.00312 0.60503 0.23463 0.0
C375 C 0.99573 0.57457 0.21696 0.0
C376 C 0.98764 0.60148 0.24725 0.0
C377 C 1.00762 0.59156 0.21984 0.0
C378 C 0.9793 0.57116 0.22931 0.0
C379 C 0.9752 0.58452 0.24481 0.0
O380 O 1.0046 0.65881 0.22116 0.0
O381 O 0.04326 0.65372 0.24486 0.0
O382 O 0.0392 0.67369 0.26708 0.0
O383 O 1.01152 0.66922 0.24779 0.0
O384 O 0.04053 0.64216 0.21639 0.0
O385 O 0.99543 0.62865 0.21766 0.0
O386 O 0.04129 0.63898 0.29974 0.0
O387 O 0.03124 0.62046 0.26536 0.0
O388 O 0.04109 0.61504 0.2285 0.0
O389 O 0.06839 0.62301 0.24939 0.0
O390 O 0.05731 0.60988 0.27605 0.0
O391 O 0.07347 0.64425 0.29673 0.0
C392 C 0.05125 0.65357 0.22771 0.0
C393 C 0.99861 0.64706 0.18853 0.0
C394 C 0.98885 0.65823 0.15558 0.0
C395 C 0.9865 0.65887 0.17633 0.0
C396 C 1.00377 0.64632 0.14712 0.0
C397 C 1.0134 0.63498 0.17986 0.0
C398 C 1.01611 0.63486 0.15928 0.0
C399 C 0.02323 0.68217 0.2582 0.0
C400 C 0.99487 0.64624 0.21005 0.0
C401 C 0.95979 0.5809 0.25851 0.0
C402 C 0.95719 0.59373 0.27478 0.0
C403 C 0.03991 0.60283 0.27031 0.0
C404 C 0.06408 0.62653 0.32504 0.0
C405 C 0.08151 0.61496 0.32334 0.0
C406 C 0.09205 0.60888 0.3404 0.0
C407 C 0.08349 0.61248 0.35924 0.0
C408 C 0.05569 0.62963 0.34384 0.0
C409 C 0.06519 0.62227 0.36085 0.0
C410 C 0.05985 0.61251 0.23478 0.0
C411 C 0.05872 0.64022 0.30882 0.0
H412 H 0.97482 0.6679 0.18286 0.0
H413 H 1.00576 0.64583 0.1311 0.0
H414 H 0.02256 0.62524 0.18887 0.0
H415 H 0.02752 0.62556 0.15272 0.0
H416 H 0.08779 0.6123 0.30871 0.0
H417 H 0.09125 0.60852 0.37286 0.0
H418 H 0.04256 0.6389 0.3455 0.0
H419 H 0.05898 0.62525 0.37542 0.0
Tb420 Tb 0.65258 0.76269 0.48905 0.0
C421 C 0.60613 0.82371 0.53097 0.0
C422 C 0.60232 0.85186 0.50843 0.0
C423 C 0.57706 0.84538 0.53349 0.0
C424 C 0.61369 0.83544 0.51544 0.0
C425 C 0.58825 0.82927 0.54069 0.0
C426 C 0.58389 0.8564 0.5172 0.0
C427 C 0.59321 0.80227 0.56402 0.0
N428 N 0.61633 0.8071 0.53683 0.0
C429 C 0.61033 0.79674 0.5536 0.0
C430 C 0.58205 0.81851 0.55748 0.0
Tb431 Tb 0.64625 0.80204 0.52063 0.0
N432 N 0.63204 0.83114 0.5075 0.0
C433 C 0.63955 0.84353 0.49276 0.0
C434 C 0.60974 0.86352 0.49288 0.0
C435 C 0.62844 0.85941 0.48516 0.0
H436 H 0.61846 0.78374 0.55859 0.0
H437 H 0.63435 0.86854 0.47321 0.0
H438 H 0.57503 0.8688 0.5118 0.0
H439 H 0.58849 0.79384 0.57698 0.0
H440 H 0.65382 0.84168 0.48582 0.0
H441 H 0.62892 0.72259 0.55539 0.0
H442 H 0.60128 0.87595 0.48692 0.0
H443 H 0.69981 0.76787 0.47088 0.0
H444 H 0.62802 0.7503 0.53152 0.0
H445 H 0.72965 0.74716 0.46964 0.0
H446 H 0.56308 0.84948 0.54048 0.0
H447 H 0.6559 0.69755 0.55363 0.0
H448 H 0.68813 0.68646 0.53803 0.0
H449 H 0.56857 0.82254 0.56543 0.0
H450 H 0.71552 0.69307 0.51444 0.0
N451 N 0.65321 0.74039 0.51495 0.0
C452 C 0.63941 0.73921 0.52987 0.0
C453 C 0.65537 0.70955 0.54279 0.0
C454 C 0.67035 0.71172 0.52844 0.0
C455 C 0.6401 0.72363 0.54379 0.0
C456 C 0.66899 0.72768 0.51479 0.0
H457 H 0.73123 0.71575 0.48898 0.0
N458 N 0.68371 0.74846 0.49078 0.0
C459 C 0.71707 0.74254 0.47872 0.0
C460 C 0.68466 0.73169 0.50199 0.0
C461 C 0.69998 0.75438 0.47969 0.0
C462 C 0.71785 0.72478 0.48956 0.0
C463 C 0.70174 0.71941 0.50177 0.0
O464 O 0.66513 0.75956 0.46096 0.0
O465 O 0.64161 0.79166 0.49178 0.0
O466 O 0.61486 0.7858 0.51709 0.0
O467 O 0.61836 0.75789 0.49726 0.0
O468 O 0.62708 0.7746 0.47193 0.0
O469 O 0.6441 0.7376 0.4716 0.0
O470 O 0.65212 0.79412 0.55062 0.0
O471 O 0.66797 0.77651 0.5155 0.0
O472 O 0.6714 0.7879 0.4774 0.0
O473 O 0.66681 0.81478 0.4993 0.0
O474 O 0.67954 0.80275 0.52467 0.0
O475 O 0.65192 0.82575 0.53937 0.0
C476 C 0.62745 0.7922 0.47948 0.0
C477 C 0.64277 0.74714 0.43735 0.0
C478 C 0.62126 0.73399 0.41138 0.0
C479 C 0.63194 0.73119 0.42913 0.0
C480 C 0.62112 0.75267 0.40192 0.0
C481 C 0.64315 0.76568 0.42723 0.0
C482 C 0.63217 0.76845 0.40979 0.0
C483 C 0.6058 0.77024 0.50755 0.0
C484 C 0.6539 0.74448 0.45617 0.0
C485 C 0.70256 0.70272 0.5144 0.0
C486 C 0.68695 0.69895 0.52782 0.0
C487 C 0.68589 0.78513 0.5197 0.0
C488 C 0.6583 0.82151 0.57422 0.0
C489 C 0.66895 0.83952 0.57496 0.0
C490 C 0.6674 0.85217 0.59148 0.0
C491 C 0.65636 0.84557 0.60814 0.0
C492 C 0.6478 0.81483 0.59101 0.0
C493 C 0.64704 0.82679 0.60802 0.0
C494 C 0.67545 0.80645 0.4836 0.0
C495 C 0.65339 0.81345 0.55465 0.0
H496 H 0.63202 0.71666 0.43631 0.0
H497 H 0.61302 0.75481 0.38806 0.0
H498 H 0.65208 0.77805 0.43263 0.0
H499 H 0.63252 0.78269 0.40216 0.0
H500 H 0.6774 0.84419 0.56198 0.0
H501 H 0.6544 0.85504 0.62104 0.0
H502 H 0.63904 0.80115 0.59047 0.0
H503 H 0.63836 0.82196 0.62076 0.0
Tb504 Tb 0.52729 0.40227 0.74383 0.0
C505 C 0.46607 0.34959 0.77948 0.0
C506 C 0.43633 0.34705 0.75879 0.0
C507 C 0.44661 0.31872 0.77895 0.0
C508 C 0.45284 0.35834 0.76592 0.0
C509 C 0.46261 0.33 0.78661 0.0
C510 C 0.43366 0.32714 0.76492 0.0
C511 C 0.49112 0.3339 0.80856 0.0
N512 N 0.48244 0.36021 0.78567 0.0
C513 C 0.49425 0.35308 0.80094 0.0
C514 C 0.47545 0.32218 0.80114 0.0
Tb515 Tb 0.48588 0.39135 0.77152 0.0
N516 N 0.45555 0.37794 0.76046 0.0
C517 C 0.44064 0.38727 0.74983 0.0
C518 C 0.42259 0.35617 0.74606 0.0
C519 C 0.42453 0.37644 0.74193 0.0
H520 H 0.50685 0.36176 0.80632 0.0
H521 H 0.41337 0.38388 0.7329 0.0
H522 H 0.42123 0.31827 0.75933 0.0
H523 H 0.50095 0.32806 0.81998 0.0
H524 H 0.44055 0.40309 0.74722 0.0
H525 H 0.55953 0.38462 0.81537 0.0
H526 H 0.40991 0.34792 0.74011 0.0
H527 H 0.52431 0.44562 0.7174 0.0
H528 H 0.53884 0.37786 0.78566 0.0
H529 H 0.53725 0.47982 0.72103 0.0
H530 H 0.44403 0.3035 0.78391 0.0
H531 H 0.57556 0.41775 0.81982 0.0
H532 H 0.58117 0.45269 0.80725 0.0
H533 H 0.47328 0.30718 0.80688 0.0
H534 H 0.57489 0.47848 0.78189 0.0
N535 N 0.54352 0.40672 0.77312 0.0
C536 C 0.5459 0.39228 0.78726 0.0
C537 C 0.56656 0.41487 0.80666 0.0
C538 C 0.56368 0.42976 0.79229 0.0
C539 C 0.55753 0.39612 0.8042 0.0
C540 C 0.55194 0.42523 0.77541 0.0
H541 H 0.55861 0.48868 0.74986 0.0
N542 N 0.53682 0.43524 0.74498 0.0
C543 C 0.5404 0.46878 0.7324 0.0
C544 C 0.54839 0.43992 0.76104 0.0
C545 C 0.5327 0.44942 0.73068 0.0
C546 C 0.55247 0.47371 0.74869 0.0
C547 C 0.55659 0.45928 0.76324 0.0
O548 O 0.55121 0.41476 0.72796 0.0
O549 O 0.50219 0.38406 0.7457 0.0
O550 O 0.50091 0.36079 0.76404 0.0
O551 O 0.53202 0.36748 0.75168 0.0
O552 O 0.50954 0.39471 0.71757 0.0
O553 O 0.54744 0.38329 0.72863 0.0
O554 O 0.49629 0.39674 0.80104 0.0
O555 O 0.51023 0.41483 0.76905 0.0
O556 O 0.50227 0.42148 0.73113 0.0
O557 O 0.47381 0.40893 0.74787 0.0
O558 O 0.48248 0.42495 0.77475 0.0
O559 O 0.4645 0.39191 0.7933 0.0
C560 C 0.49761 0.38292 0.72732 0.0
C561 C 0.55665 0.39841 0.69794 0.0
C562 C 0.55862 0.38064 0.66669 0.0
C563 C 0.55953 0.3806 0.68748 0.0
C564 C 0.55518 0.39841 0.65619 0.0
C565 C 0.55345 0.41631 0.68724 0.0
C566 C 0.55269 0.41624 0.66648 0.0
C567 C 0.51852 0.35322 0.75801 0.0
C568 C 0.55629 0.39822 0.71987 0.0
C569 C 0.56848 0.46368 0.77994 0.0
C570 C 0.57204 0.44899 0.79439 0.0
C571 C 0.50053 0.43209 0.77209 0.0
C572 C 0.47032 0.4081 0.82363 0.0
C573 C 0.45254 0.419 0.8211 0.0
C574 C 0.4414 0.42508 0.83767 0.0
C575 C 0.44907 0.42135 0.85691 0.0
C576 C 0.47782 0.40482 0.84285 0.0
C577 C 0.46733 0.41163 0.8594 0.0
C578 C 0.48248 0.42121 0.73498 0.0
C579 C 0.47764 0.39549 0.80742 0.0
H580 H 0.56236 0.36677 0.69543 0.0
H581 H 0.55485 0.39851 0.64003 0.0
H582 H 0.55141 0.43041 0.69483 0.0
H583 H 0.55023 0.43 0.65838 0.0
H584 H 0.44669 0.42158 0.80623 0.0
H585 H 0.44068 0.42532 0.87008 0.0
H586 H 0.49113 0.39592 0.8451 0.0
H587 H 0.47287 0.40853 0.87426 0.0
Tb588 Tb 0.90199 0.2344 1.01878 0.0
C589 C 0.85682 0.28962 0.96836 0.0
C590 C 0.85045 0.27347 0.93637 0.0
C591 C 0.82697 0.29778 0.94921 0.0
C592 C 0.86248 0.2758 0.95362 0.0
C593 C 0.83908 0.30071 0.96608 0.0
C594 C 0.83264 0.28426 0.93443 0.0
C595 C 0.84649 0.31734 0.99733 0.0
N596 N 0.86828 0.29176 0.98523 0.0
C597 C 0.86391 0.30606 0.99919 0.0
C598 C 0.83395 0.3145 0.98086 0.0
Tb599 Tb 0.89616 0.27228 0.9852 0.0
N600 N 0.87973 0.26508 0.95584 0.0
C601 C 0.88606 0.2528 0.94069 0.0
C602 C 0.85674 0.2606 0.92127 0.0
C603 C 0.87476 0.25054 0.92329 0.0
H604 H 0.8736 0.30814 1.01199 0.0
H605 H 0.87982 0.2407 0.91157 0.0
H606 H 0.8232 0.28243 0.92138 0.0
H607 H 0.84272 0.32823 1.0086 0.0
H608 H 0.89965 0.24438 0.94145 0.0
H609 H 0.89118 0.3012 0.06176 0.0
H610 H 0.8479 0.25852 0.90785 0.0
H611 H 0.9391 0.20124 1.01679 0.0
H612 H 0.88206 0.27557 0.03678 0.0
H613 H 0.9724 0.19725 0.03211 0.0
H614 H 0.81322 0.30607 0.94733 0.0
H615 H 0.92353 0.29907 0.07971 0.0
H616 H 0.95613 0.28107 0.08509 0.0
H617 H 0.82042 0.32324 0.97957 0.0
H618 H 0.97836 0.25314 0.07667 0.0
N619 N 0.9087 0.259 0.041 0.0
C620 C 0.89603 0.27438 0.04475 0.0
C621 C 0.9195 0.28768 0.06893 0.0
C622 C 0.93246 0.27184 0.06488 0.0
C623 C 0.90122 0.28895 0.05881 0.0
C624 C 0.92647 0.25745 0.05078 0.0
H625 H 0.98469 0.22198 0.05676 0.0
N626 N 0.93287 0.2285 0.03198 0.0
C627 C 0.96321 0.20988 0.03611 0.0
C628 C 0.93901 0.24174 0.04601 0.0
C629 C 0.94438 0.2123 0.02734 0.0
C630 C 0.97005 0.22383 0.05005 0.0
C631 C 0.95785 0.23991 0.0553 0.0
O632 O 0.90159 0.20376 0.02441 0.0
O633 O 0.88448 0.2437 0.99441 0.0
O634 O 0.86408 0.26751 0.99962 0.0
O635 O 0.86756 0.24254 0.02278 0.0
O636 O 0.89543 0.21561 0.99319 0.0
O637 O 0.88797 0.2248 0.04507 0.0
O638 O 0.90269 0.30302 0.98503 0.0
O639 O 0.91735 0.26063 1.00804 0.0
O640 O 0.92468 0.22847 0.99573 0.0
O641 O 0.91488 0.25068 0.97067 0.0
O642 O 0.92632 0.28465 0.99603 0.0
O643 O 0.90843 0.28335 0.95913 0.0
C644 C 0.88288 0.22747 0.98466 0.0
C645 C 0.89642 0.19273 0.05716 0.0
C646 C 0.88449 0.16345 0.07423 0.0
C647 C 0.88096 0.1799 0.06217 0.0
C648 C 0.9035 0.16067 0.08275 0.0
C649 C 0.91551 0.19024 0.06548 0.0
C650 C 0.91895 0.17424 0.07849 0.0
C651 C 0.85495 0.2554 1.01315 0.0
C652 C 0.8919 0.20621 0.04099 0.0
C653 C 0.9639 0.25422 0.06942 0.0
C654 C 0.95123 0.27012 0.07422 0.0
C655 C 0.9344 0.27059 1.00638 0.0
C656 C 0.90292 0.31705 0.95199 0.0
C657 C 0.91433 0.31841 0.93464 0.0
C658 C 0.91024 0.33293 0.92033 0.0
C659 C 0.89432 0.34617 0.92328 0.0
C660 C 0.88704 0.33031 0.95499 0.0
C661 C 0.88266 0.34471 0.94052 0.0
C662 C 0.92656 0.23644 0.97762 0.0
C663 C 0.90868 0.30165 0.96632 0.0
H664 H 0.86621 0.18207 0.05565 0.0
H665 H 0.90649 0.14783 0.09212 0.0
H666 H 0.92764 0.20027 0.06183 0.0
H667 H 0.93369 0.17204 0.0848 0.0
H668 H 0.92685 0.30838 0.93249 0.0
H669 H 0.89097 0.35757 0.91231 0.0
H670 H 0.87818 0.32972 0.96841 0.0
H671 H 0.87038 0.35491 0.94279 0.0
Tb672 Tb 0.30138 1.01864 0.4042 0.0
C673 C 0.26904 0.07859 0.35429 0.0
C674 C 0.29011 0.10782 0.35801 0.0
C675 C 0.27781 0.0984 0.3252 0.0
C676 C 0.28048 0.09092 0.36631 0.0
C677 C 0.2663 0.08313 0.33394 0.0
C678 C 0.28985 0.1107 0.33725 0.0
C679 C 0.238 0.06049 0.33372 0.0
N680 N 0.25837 0.06382 0.36321 0.0
C681 C 0.24167 0.05609 0.3538 0.0
C682 C 0.25097 0.07332 0.32348 0.0
Tb683 Tb 0.26852 0.05599 0.39523 0.0
N684 N 0.27966 0.08795 0.38639 0.0
C685 C 0.28389 0.10389 0.39863 0.0
C686 C 0.2982 0.12213 0.37093 0.0
C687 C 0.29422 0.12061 0.3913 0.0
H688 H 0.23224 0.04531 0.36135 0.0
H689 H 0.29875 0.13248 0.40131 0.0
H690 H 0.29755 0.12332 0.33057 0.0
H691 H 0.22551 0.05355 0.32603 0.0
H692 H 0.27994 0.10352 0.41421 0.0
H693 H 0.23394 0.97844 0.38436 0.0
H694 H 0.30589 0.13523 0.36522 0.0
H695 H 0.32473 0.02452 0.44917 0.0
H696 H 0.26076 1.00313 0.37944 0.0
H697 H 0.32275 1.00921 0.48216 0.0
H698 H 0.27646 0.1017 0.30944 0.0
H699 H 0.23201 0.95927 0.41584 0.0
H700 H 0.24566 0.95266 0.45009 0.0
H701 H 0.24825 0.07649 0.30787 0.0
H702 H 0.26986 0.96094 0.47655 0.0
N703 N 0.27458 0.99774 0.40749 0.0
C704 C 0.26046 0.99475 0.39306 0.0
C705 C 0.24401 0.97001 0.41369 0.0
C706 C 0.25817 0.97355 0.42868 0.0
C707 C 0.24505 0.98081 0.3959 0.0
C708 C 0.27344 0.98775 0.42514 0.0
H709 H 0.2983 0.98219 0.48875 0.0
N710 N 0.30068 1.00713 0.43663 0.0
C711 C 0.31259 1.00437 0.47051 0.0
C712 C 0.28698 0.99251 0.44014 0.0
C713 C 0.3133 1.01334 0.45171 0.0
C714 C 0.29889 0.98902 0.4741 0.0
C715 C 0.28577 0.98301 0.45893 0.0
O716 O 0.32587 1.0032 0.41604 0.0
O717 O 0.29466 0.04278 0.38517 0.0
O718 O 0.27303 0.03799 0.36459 0.0
O719 O 0.29558 1.01302 0.36945 0.0
O720 O 0.32349 0.04101 0.39539 0.0
O721 O 0.31631 0.9975 0.38619 0.0
O722 O 0.23991 0.04345 0.40224 0.0
O723 O 0.27444 0.03195 0.41845 0.0
O724 O 0.31308 0.04398 0.42263 0.0
O725 O 0.29137 0.07011 0.41431 0.0
O726 O 0.26641 0.05899 0.4289 0.0
O727 O 0.2442 0.07428 0.39272 0.0
C728 C 0.31182 0.05061 0.38371 0.0
C729 C 0.35048 1.00473 0.39178 0.0
C730 C 0.37739 1.00486 0.36797 0.0
C731 C 0.35962 0.99644 0.37515 0.0
C732 C 0.38485 0.02277 0.3759 0.0
C733 C 0.35929 0.0217 0.40094 0.0
C734 C 0.37576 0.03119 0.39242 0.0
C735 C 0.28396 0.02312 0.35598 0.0
C736 C 0.33117 0.99677 0.39878 0.0
C737 C 0.27103 0.96837 0.46223 0.0
C738 C 0.25724 0.96369 0.44716 0.0
C739 C 0.271 0.04131 0.43587 0.0
C740 C 0.2182 0.0695 0.41493 0.0
C741 C 0.22184 0.08904 0.42208 0.0
C742 C 0.20649 0.10023 0.43056 0.0
C743 C 0.18783 0.09097 0.43389 0.0
C744 C 0.19956 0.0605 0.41838 0.0
C745 C 0.18457 0.0711 0.42819 0.0
C746 C 0.30689 0.06283 0.42436 0.0
C747 C 0.23171 0.06111 0.39984 0.0
H748 H 0.35392 0.98256 0.36892 0.0
H749 H 0.3989 0.02901 0.37066 0.0
H750 H 0.35311 0.0281 0.41437 0.0
H751 H 0.38204 0.04451 0.3992 0.0
H752 H 0.23605 0.09638 0.41921 0.0
H753 H 0.17568 0.0992 0.44058 0.0
H754 H 0.19629 0.0457 0.41264 0.0
H755 H 0.17007 0.06421 0.43054 0.0
Tb756 Tb 0.23394 1.01531 0.63897 0.0
C757 C 0.27993 0.07428 0.68532 0.0
C758 C 0.25962 0.10371 0.69065 0.0
C759 C 0.28562 0.09532 0.71444 0.0
C760 C 0.26485 0.08711 0.67869 0.0
C761 C 0.29099 0.0789 0.70274 0.0
C762 C 0.26976 0.10745 0.7086 0.0
C763 C 0.31225 0.05068 0.69605 0.0
N764 N 0.28409 0.05752 0.67458 0.0
C765 C 0.30039 0.04599 0.67952 0.0
C766 C 0.30742 0.06708 0.70781 0.0
Tb767 Tb 0.2663 0.05433 0.64537 0.0
N768 N 0.25569 0.0837 0.66066 0.0
C769 C 0.24127 0.09692 0.65421 0.0
C770 C 0.24441 0.11634 0.68428 0.0
C771 C 0.23529 0.11293 0.66604 0.0
H772 H 0.30403 0.0329 0.67086 0.0
H773 H 0.22347 0.1227 0.66113 0.0
H774 H 0.26577 0.12006 0.71787 0.0
H775 H 0.32493 0.04146 0.69988 0.0
H776 H 0.23346 0.09568 0.64028 0.0
H777 H 0.30284 0.97806 0.6597 0.0
H778 H 0.23972 0.12892 0.69325 0.0
H779 H 0.21178 0.02095 0.59376 0.0
H780 H 0.27576 1.00184 0.66429 0.0
H781 H 0.21405 1.00522 0.56109 0.0
H782 H 0.2937 0.09881 0.72803 0.0
H783 H 0.30518 0.95864 0.62851 0.0
H784 H 0.29207 0.9516 0.59421 0.0
H785 H 0.31645 0.07046 0.72084 0.0
H786 H 0.26816 0.95917 0.56739 0.0
N787 N 0.26152 0.99544 0.63651 0.0
C788 C 0.27589 0.99323 0.65086 0.0
C789 C 0.29291 0.96893 0.63055 0.0
C790 C 0.27879 0.97194 0.61545 0.0
C791 C 0.29161 0.97984 0.64818 0.0
C792 C 0.26315 0.98556 0.61882 0.0
H793 H 0.23935 0.97929 0.55482 0.0
N794 N 0.23587 1.00423 0.60671 0.0
C795 C 0.22419 1.00077 0.57288 0.0
C796 C 0.24984 0.99001 0.60352 0.0
C797 C 0.22312 1.00977 0.5916 0.0
C798 C 0.23843 0.98609 0.56943 0.0
C799 C 0.25157 0.98066 0.58475 0.0
O800 O 0.20541 1.00997 0.6279 0.0
O801 O 0.23799 0.04314 0.65188 0.0
O802 O 0.26236 0.03824 0.67667 0.0
O803 O 0.24197 1.01048 0.67312 0.0
O804 O 0.2149 0.02773 0.66278 0.0
O805 O 0.2203 0.98729 0.64542 0.0
O806 O 0.29531 0.04409 0.63749 0.0
O807 O 0.2601 0.02947 0.62316 0.0
O808 O 0.22142 0.0412 0.62143 0.0
O809 O 0.24401 0.06786 0.62658 0.0
O810 O 0.26802 0.0564 0.61177 0.0
O811 O 0.28754 0.07606 0.64165 0.0
C812 C 0.22398 0.04466 0.66435 0.0
C813 C 0.18431 0.98605 0.64169 0.0
C814 C 0.15896 0.97903 0.66657 0.0
C815 C 0.17892 0.98376 0.66183 0.0
C816 C 0.14468 0.97668 0.65133 0.0
C817 C 0.16981 0.98354 0.62667 0.0
C818 C 0.1501 0.97891 0.63148 0.0
C819 C 0.2526 0.02276 0.68568 0.0
C820 C 0.20436 0.992 0.6351 0.0
C821 C 0.26663 0.96653 0.58168 0.0
C822 C 0.28023 0.96221 0.59697 0.0
C823 C 0.26328 0.03857 0.60539 0.0
C824 C 0.31847 0.07016 0.62616 0.0
C825 C 0.31677 0.08848 0.61621 0.0
C826 C 0.33382 0.09926 0.61093 0.0
C827 C 0.35282 0.09107 0.61412 0.0
C828 C 0.33746 0.06195 0.62937 0.0
C829 C 0.35459 0.07228 0.62309 0.0
C830 C 0.22769 0.06003 0.61828 0.0
C831 C 0.30156 0.06288 0.63791 0.0
H832 H 0.18997 0.98565 0.67355 0.0
H833 H 0.1293 0.97282 0.65486 0.0
H834 H 0.17374 0.98538 0.6111 0.0
H835 H 0.13903 0.97702 0.61981 0.0
H836 H 0.30222 0.09529 0.61411 0.0
H837 H 0.3662 0.0995 0.61038 0.0
H838 H 0.3391 0.04818 0.63771 0.0
H839 H 0.36925 0.06617 0.62604 0.0
Tb840 Tb 0.24093 0.02444 0.90282 0.0
C841 C 0.2706 0.95676 0.85601 0.0
C842 C 0.24911 0.92776 0.85948 0.0
C843 C 0.2671 0.93325 0.82857 0.0
C844 C 0.25736 0.94557 0.8674 0.0
C845 C 0.27686 0.94972 0.8372 0.0
C846 C 0.253 0.92243 0.83962 0.0
C847 C 0.3038 0.97397 0.83805 0.0
N848 N 0.27946 0.97294 0.86452 0.0
C849 C 0.29659 0.98097 0.85626 0.0
C850 C 0.29366 0.95853 0.82828 0.0
Tb851 Tb 0.26719 0.98204 0.89524 0.0
N852 N 0.2551 0.95044 0.88703 0.0
C853 C 0.24792 0.93614 0.89993 0.0
C854 C 0.23886 0.91482 0.87221 0.0
C855 C 0.23905 0.91858 0.89261 0.0
H856 H 0.30422 0.99332 0.86346 0.0
H857 H 0.23281 0.90761 0.90265 0.0
H858 H 0.24648 0.90901 0.83323 0.0
H859 H 0.317 0.98066 0.83145 0.0
H860 H 0.24859 0.93825 0.9159 0.0
H861 H 0.31342 0.05323 0.88228 0.0
H862 H 0.23231 0.90102 0.86671 0.0
H863 H 0.21812 0.022 0.94852 0.0
H864 H 0.28471 0.02992 0.87934 0.0
H865 H 0.21824 0.04347 0.97784 0.0
H866 H 0.2712 0.92806 0.81385 0.0
H867 H 0.31511 0.07718 0.91037 0.0
H868 H 0.29966 0.09071 0.94181 0.0
H869 H 0.29923 0.95317 0.81412 0.0
H870 H 0.27318 0.08868 0.9672 0.0
N871 N 0.27084 0.04014 0.90583 0.0
C872 C 0.28553 0.04 0.89183 0.0
C873 C 0.30269 0.06673 0.90935 0.0
C874 C 0.28766 0.06649 0.92384 0.0
C875 C 0.30178 0.05322 0.89346 0.0
C876 C 0.27195 0.05255 0.92183 0.0
H877 H 0.2427 0.07118 0.98072 0.0
N878 N 0.24343 0.03633 0.93473 0.0
C879 C 0.22936 0.04574 0.96634 0.0
C880 C 0.25738 0.05103 0.93645 0.0
C881 C 0.22976 0.03319 0.94972 0.0
C882 C 0.24307 0.06148 0.96781 0.0
C883 C 0.25761 0.06402 0.95301 0.0
O884 O 0.21543 0.03852 0.91291 0.0
O885 O 0.24374 0.99924 0.88529 0.0
O886 O 0.26319 0.99811 0.8635 0.0
O887 O 0.2479 0.02839 0.86803 0.0
O888 O 0.21511 1.00927 0.88826 0.0
O889 O 0.23512 0.0537 0.89219 0.0
O890 O 0.29624 0.99403 0.90218 0.0
O891 O 0.26439 1.00614 0.91902 0.0
O892 O 0.22499 1.00207 0.92097 0.0
O893 O 0.24065 0.97211 0.9119 0.0
O894 O 0.26764 0.9774 0.92847 0.0
O895 O 0.29045 0.96252 0.89552 0.0
C896 C 0.22582 0.99538 0.88058 0.0
C897 C 0.20216 0.0662 0.89767 0.0
C898 C 0.1733 0.07013 0.87668 0.0
C899 C 0.19179 0.0613 0.88025 0.0
C900 C 0.16511 0.08356 0.89048 0.0
C901 C 0.19409 0.07974 0.91139 0.0
C902 C 0.17555 0.08837 0.9078 0.0
C903 C 0.25618 1.01522 0.85475 0.0
C904 C 0.21959 0.05516 0.9039 0.0
C905 C 0.27274 0.07856 0.9546 0.0
C906 C 0.28784 0.07968 0.94016 0.0
C907 C 0.26586 0.99536 0.93605 0.0
C908 C 0.31943 0.96826 0.91393 0.0
C909 C 0.31715 0.94893 0.92205 0.0
C910 C 0.33385 0.93754 0.92727 0.0
C911 C 0.35293 0.94649 0.9264 0.0
C912 C 0.33853 0.97697 0.91324 0.0
C913 C 0.35516 0.96622 0.9198 0.0
C914 C 0.22673 0.98238 0.92157 0.0
C915 C 0.30372 0.97595 0.90064 0.0
H916 H 0.19784 0.05056 0.86982 0.0
H917 H 0.1507 0.09039 0.88773 0.0
H918 H 0.20186 0.08312 0.92521 0.0
H919 H 0.1692 0.09861 0.91849 0.0
H920 H 0.30251 0.94185 0.92217 0.0
H921 H 0.36615 0.93818 0.93058 0.0
H922 H 0.34074 0.99152 0.90646 0.0
H923 H 0.36994 0.97285 0.91885 0.0
Tb924 Tb 0.27182 0.98192 0.15275 0.0
C925 C 0.32529 0.02888 0.10403 0.0
C926 C 0.35715 1.01193 0.10148 0.0
C927 C 0.34454 0.03111 0.07339 0.0
C928 C 0.33991 1.01671 0.11262 0.0
C929 C 0.32798 0.03688 0.08473 0.0
C930 C 0.35895 1.01848 0.08165 0.0
C931 C 0.29799 0.05633 0.08931 0.0
N932 N 0.30861 0.03332 0.11479 0.0
C933 C 0.29567 0.0479 0.10822 0.0
C934 C 0.31396 0.0505 0.07736 0.0
Tb935 Tb 0.30675 1.01766 0.14532 0.0
N936 N 0.33813 1.01114 0.13222 0.0
C937 C 0.3546 1.00364 0.14188 0.0
C938 C 0.37264 1.0016 0.11084 0.0
C939 C 0.37163 0.99805 0.13126 0.0
H940 H 0.28289 0.05203 0.1171 0.0
H941 H 0.38412 0.99123 0.13893 0.0
H942 H 0.37194 1.01462 0.07286 0.0
H943 H 0.28732 0.06715 0.08387 0.0
H944 H 0.35512 1.0018 0.15774 0.0
H945 H 0.23289 0.05099 0.14054 0.0
H946 H 0.38598 0.99747 0.10274 0.0
H947 H 0.27223 0.94936 0.19047 0.0
H948 H 0.25648 0.02402 0.13215 0.0
H949 H 0.25542 0.94574 0.22293 0.0
H950 H 0.34656 0.03666 0.05834 0.0
H951 H 0.21458 0.05002 0.17258 0.0
H952 H 0.20772 0.03241 0.20514 0.0
H953 H 0.31555 0.05689 0.06259 0.0
H954 H 0.21408 1.00399 0.22761 0.0
N955 N 0.25127 1.00794 0.15897 0.0
C956 C 0.24839 0.02336 0.14601 0.0
C957 C 0.22481 0.0381 0.1689 0.0
C958 C 0.22789 0.02217 0.18211 0.0
C959 C 0.23512 0.0387 0.15079 0.0
C960 C 0.24133 1.00708 0.1766 0.0
H961 H 0.23184 0.97162 0.2344 0.0
N962 N 0.2584 0.97718 0.18357 0.0
C963 C 0.2524 0.95862 0.21365 0.0
C964 C 0.24505 0.99118 0.18932 0.0
C965 C 0.26194 0.96078 0.19523 0.0
C966 C 0.23909 0.97325 0.22005 0.0
C967 C 0.23519 0.98975 0.20781 0.0
O968 O 0.26473 0.95155 0.15394 0.0
O969 O 0.29579 0.99044 0.13453 0.0
O970 O 0.29168 1.01046 0.11392 0.0
O971 O 0.26564 0.98913 0.11847 0.0
O972 O 0.29517 0.96121 0.14375 0.0
O973 O 0.24474 0.97275 0.13918 0.0
O974 O 0.29346 0.04581 0.1525 0.0
O975 O 0.2833 1.00925 0.16825 0.0
O976 O 0.29641 0.97353 0.17384 0.0
O977 O 0.32218 0.99547 0.16359 0.0
O978 O 0.30895 0.0208 0.17903 0.0
O979 O 0.32531 0.04176 0.14527 0.0
C980 C 0.30499 0.97405 0.13337 0.0
C981 C 0.23324 0.93899 0.14371 0.0
C982 C 0.21786 0.91141 0.12627 0.0
C983 C 0.23063 0.92786 0.12636 0.0
C984 C 0.20731 0.90619 0.1436 0.0
C985 C 0.22305 0.93376 0.16119 0.0
C986 C 0.20993 0.91738 0.16104 0.0
C987 C 0.27633 1.00033 0.10521 0.0
C988 C 0.24875 0.95412 0.14321 0.0
C989 C 0.22175 1.00476 0.21342 0.0
C990 C 0.21811 0.02093 0.2006 0.0
C991 C 0.292 1.01379 0.18587 0.0
C992 C 0.31856 0.07093 0.16247 0.0
C993 C 0.33753 0.06915 0.1714 0.0
C994 C 0.3497 0.08598 0.17435 0.0
C995 C 0.34158 0.10504 0.17094 0.0
C996 C 0.31064 0.08997 0.15919 0.0
C997 C 0.32199 0.10698 0.16383 0.0
C998 C 0.31528 0.98042 0.17478 0.0
C999 C 0.31123 0.05429 0.15019 0.0
H1000 H 0.23905 0.93161 0.11302 0.0
H1001 H 0.19747 0.89325 0.14372 0.0
H1002 H 0.22548 0.94206 0.17485 0.0
H1003 H 0.20208 0.91314 0.1745 0.0
H1004 H 0.34391 0.05443 0.1734 0.0
H1005 H 0.35046 0.11842 0.1734 0.0
H1006 H 0.29638 0.0917 0.15169 0.0
H1007 H 0.31602 0.12167 0.16081 0.0
Tb1008 Tb 0.38872 0.26702 0.05413 0.0
C1009 C 0.43178 0.32159 1.00153 0.0
C1010 C 0.43995 0.35293 1.01822 0.0
C1011 C 0.46093 0.34107 0.99132 0.0
C1012 C 0.42737 0.33594 1.01608 0.0
C1013 C 0.44864 0.32413 0.98913 0.0
C1014 C 0.45662 0.35537 1.0058 0.0
C1015 C 0.44027 0.29282 0.97301 0.0
N1016 N 0.42017 0.30468 1.00015 0.0
C1017 C 0.42366 0.29079 0.98547 0.0
C1018 C 0.45283 0.30946 0.97491 0.0
Tb1019 Tb 0.39304 0.30459 0.02105 0.0
N1020 N 0.41117 0.33322 0.02824 0.0
C1021 C 0.40717 0.34714 0.04277 0.0
C1022 C 0.43562 0.36702 0.0329 0.0
C1023 C 0.41922 0.36407 0.04522 0.0
H1024 H 0.41391 0.27792 0.98393 0.0
H1025 H 0.41598 0.3747 0.05691 0.0
H1026 H 0.46636 0.3683 1.00734 0.0
H1027 H 0.44333 0.28159 0.96185 0.0
H1028 H 0.39534 0.34551 0.05336 0.0
H1029 H 0.39972 0.22782 0.98469 0.0
H1030 H 0.44501 0.38012 0.03503 0.0
H1031 H 0.34925 0.26964 0.08544 0.0
H1032 H 0.4089 0.25145 1.01125 0.0
H1033 H 0.31574 0.25494 0.0873 0.0
H1034 H 0.47394 0.3432 0.98193 0.0
H1035 H 0.36737 0.20971 0.98601 0.0
H1036 H 0.33472 0.20355 1.00339 0.0
H1037 H 0.4657 0.31093 0.96521 0.0
H1038 H 0.31187 0.21117 0.03096 0.0
N1039 N 0.38238 0.24633 0.02802 0.0
C1040 C 0.39496 0.24341 1.01235 0.0
C1041 C 0.37142 0.21991 0.99791 0.0
C1042 C 0.35838 0.22328 1.01381 0.0
C1043 C 0.38971 0.23011 0.99712 0.0
C1044 C 0.36431 0.23675 0.02887 0.0
H1045 H 0.30445 0.23063 0.06188 0.0
N1046 N 0.35695 0.25498 0.05816 0.0
C1047 C 0.3255 0.25104 0.07508 0.0
C1048 C 0.35125 0.24121 0.04437 0.0
C1049 C 0.34454 0.25962 0.0737 0.0
C1050 C 0.31925 0.23723 0.06079 0.0
C1051 C 0.33219 0.23204 0.0453 0.0
O1052 O 0.38608 0.26265 0.08489 0.0
O1053 O 0.3993 0.29638 0.05058 0.0
O1054 O 0.42529 0.28968 0.02343 0.0
O1055 O 0.42215 0.26206 0.04351 0.0
O1056 O 0.41599 0.27904 0.06795 0.0
O1057 O 0.39649 0.23881 0.0653 0.0
O1058 O 0.38368 0.30126 0.99108 0.0
O1059 O 0.37192 0.27863 0.0277 0.0
O1060 O 0.3694 0.29193 0.06654 0.0
O1061 O 0.37744 0.31847 0.04551 0.0
O1062 O 0.35938 0.30465 1.02035 0.0
O1063 O 0.38189 0.32981 1.00756 0.0
C1064 C 0.4148 0.29693 0.06123 0.0
C1065 C 0.38666 0.22996 0.09824 0.0
C1066 C 0.39502 0.21304 0.12905 0.0
C1067 C 0.3996 0.22698 0.11425 0.0
C1068 C 0.37679 0.20244 0.128 0.0
C1069 C 0.36869 0.21919 0.09691 0.0
C1070 C 0.36369 0.20557 0.11197 0.0
C1071 C 0.43455 0.27409 0.03253 0.0
C1072 C 0.39307 0.24457 0.08357 0.0
C1073 C 0.32648 0.21829 0.03054 0.0
C1074 C 0.33951 0.21395 1.01484 0.0
C1075 C 0.35368 0.28692 0.02541 0.0
C1076 C 0.38307 0.33277 0.97315 0.0
C1077 C 0.37104 0.34956 0.9709 0.0
C1078 C 0.37567 0.36432 0.95691 0.0
C1079 C 0.39231 0.36173 0.94441 0.0
C1080 C 0.39932 0.32999 0.96034 0.0
C1081 C 0.40394 0.34451 0.94603 0.0
C1082 C 0.36715 0.31099 0.0607 0.0
C1083 C 0.37885 0.32038 0.99063 0.0
H1084 H 0.4134 0.2356 0.11515 0.0
H1085 H 0.37291 0.19149 0.13926 0.0
H1086 H 0.35868 0.22118 0.08439 0.0
H1087 H 0.34978 0.19725 0.11109 0.0
H1088 H 0.35814 0.35131 0.98053 0.0
H1089 H 0.3964 0.37303 0.93356 0.0
H1090 H 0.40849 0.31693 0.96134 0.0
H1091 H 0.4167 0.34253 0.93635 0.0
Tb1092 Tb 0.02509 0.89518 0.24436 0.0
C1093 C 0.95298 0.85416 0.27344 0.0
C1094 C 0.92325 0.86511 0.25622 0.0
C1095 C 0.92641 0.83032 0.26612 0.0
C1096 C 0.94249 0.86912 0.26397 0.0
C1097 C 0.94444 0.83499 0.27588 0.0
C1098 C 0.91581 0.8454 0.25624 0.0
C1099 C 0.96949 0.82828 0.30098 0.0
N1100 N 0.97019 0.85933 0.28277 0.0
C1101 C 0.97726 0.84752 0.2981 0.0
C1102 C 0.95346 0.82169 0.28925 0.0
Tb1103 Tb 0.98379 0.88975 0.2732 0.0
N1104 N 0.95023 0.88799 0.26439 0.0
C1105 C 0.93784 0.90386 0.26063 0.0
C1106 C 0.91165 0.88117 0.24976 0.0
C1107 C 0.91867 0.90064 0.25269 0.0
H1108 H 0.99005 0.85239 0.3068 0.0
H1109 H 0.90928 0.91315 0.24885 0.0
H1110 H 0.90133 0.84192 0.24977 0.0
H1111 H 0.97598 0.81851 0.31208 0.0
H1112 H 0.94312 0.91903 0.26264 0.0
H1113 H 0.06041 0.90702 0.31535 0.0
H1114 H 0.8968 0.87875 0.24365 0.0
H1115 H 0.0266 0.91927 0.20091 0.0
H1116 H 0.03829 0.88921 0.29125 0.0
H1117 H 0.04347 0.94949 0.18768 0.0
H1118 H 0.91992 0.81547 0.26723 0.0
H1119 H 0.07829 0.93784 0.30492 0.0
H1120 H 0.0863 0.96278 0.27783 0.0
H1121 H 0.94741 0.8068 0.29151 0.0
H1122 H 0.08168 0.97427 0.24326 0.0
N1123 N 0.0429 0.9106 0.26837 0.0
C1124 C 0.04569 0.90297 0.28698 0.0
C1125 C 0.0684 0.93031 0.2945 0.0
C1126 C 0.06591 0.93759 0.27505 0.0
C1127 C 0.05829 0.91291 0.30046 0.0
C1128 C 0.0528 0.92729 0.26215 0.0
H1129 H 0.06539 0.96974 0.20969 0.0
N1130 N 0.03739 0.92361 0.23052 0.0
C1131 C 0.04526 0.94542 0.2032 0.0
C1132 C 0.05 0.93396 0.24262 0.0
C1133 C 0.03554 0.9285 0.21079 0.0
C1134 C 0.05769 0.95676 0.21566 0.0
C1135 C 0.06048 0.95088 0.23553 0.0
O1136 O 0.03597 0.88245 0.21853 0.0
O1137 O 0.99972 0.87757 0.2493 0.0
O1138 O 0.99758 0.85765 0.26829 0.0
O1139 O 0.02942 0.86266 0.25791 0.0
O1140 O 1.00687 0.88361 0.21994 0.0
O1141 O 0.05578 0.88711 0.24363 0.0
O1142 O 0.99954 0.89694 0.30004 0.0
O1143 O 1.00814 0.91284 0.26778 0.0
O1144 O 1.00307 0.91519 0.23023 0.0
O1145 O 0.97344 0.90437 0.24606 0.0
O1146 O 0.98009 0.92312 0.27308 0.0
O1147 O 0.9683 0.88838 0.29963 0.0
C1148 C 0.99443 0.87418 0.23131 0.0
C1149 C 0.06894 0.88694 0.21033 0.0
C1150 C 0.07896 0.88234 0.17603 0.0
C1151 C 0.06913 0.87548 0.19296 0.0
C1152 C 0.0894 0.90059 0.17657 0.0
C1153 C 0.08001 0.9048 0.21123 0.0
C1154 C 0.09018 0.91162 0.19428 0.0
C1155 C 1.01548 0.84918 0.26428 0.0
C1156 C 0.05414 0.88108 0.22519 0.0
C1157 C 0.07354 0.96119 0.2484 0.0
C1158 C 0.07618 0.95463 0.26811 0.0
C1159 C 0.99799 0.93031 0.26939 0.0
C1160 C 0.97654 0.91188 0.32356 0.0
C1161 C 0.95749 0.92054 0.32081 0.0
C1162 C 0.94844 0.93156 0.33601 0.0
C1163 C 0.9594 0.93548 0.35351 0.0
C1164 C 0.98716 0.91585 0.34114 0.0
C1165 C 0.97873 0.92788 0.3559 0.0
C1166 C 0.98326 0.91464 0.23218 0.0
C1167 C 0.9829 0.89555 0.31027 0.0
H1168 H 0.06055 0.86165 0.19224 0.0
H1169 H 0.09712 0.90608 0.16346 0.0
H1170 H 0.08034 0.91368 0.22465 0.0
H1171 H 0.09837 0.92562 0.19478 0.0
H1172 H 0.94901 0.91764 0.3073 0.0
H1173 H 0.95274 0.94372 0.36566 0.0
H1174 H 1.00155 0.90898 0.34381 0.0
H1175 H 0.98685 0.9306 0.36962 0.0
Tb1176 Tb 0.15466 0.77409 0.55376 0.0
C1177 C 0.10708 0.72146 0.50219 0.0
C1178 C 0.09818 0.69104 0.5202 0.0
C1179 C 0.07724 0.70251 0.49291 0.0
C1180 C 0.11121 0.70753 0.51727 0.0
C1181 C 0.09017 0.71882 0.48979 0.0
C1182 C 0.08119 0.68874 0.50809 0.0
C1183 C 0.10004 0.74861 0.4717 0.0
N1184 N 0.1194 0.73779 0.49987 0.0
C1185 C 0.11672 0.75066 0.48417 0.0
C1186 C 0.08664 0.73276 0.47462 0.0
Tb1187 Tb 0.14721 0.73701 0.51971 0.0
N1188 N 0.12789 0.70995 0.52886 0.0
C1189 C 0.13221 0.69616 0.54346 0.0
C1190 C 0.10264 0.67712 0.5351 0.0
C1191 C 0.11974 0.67966 0.54667 0.0
H1192 H 0.12748 0.76246 0.4814 0.0
H1193 H 0.12336 0.66891 0.55816 0.0
H1194 H 0.07105 0.67621 0.51025 0.0
H1195 H 0.09766 0.75908 0.45963 0.0
H1196 H 0.14499 0.69749 0.55312 0.0
H1197 H 0.13284 0.80725 0.48314 0.0
H1198 H 0.09299 0.66432 0.53776 0.0
H1199 H 0.19839 0.77949 0.57881 0.0
H1200 H 0.13249 0.78215 0.50952 0.0
H1201 H 0.2254 0.80378 0.58109 0.0
H1202 H 0.0641 0.70038 0.48363 0.0
H1203 H 0.15763 0.83483 0.48418 0.0
H1204 H 0.18763 0.85033 0.50074 0.0
H1205 H 0.07377 0.73123 0.46487 0.0
H1206 H 0.21312 0.8491 0.52725 0.0
N1207 N 0.15495 0.79603 0.52713 0.0
C1208 C 0.14249 0.79447 0.51104 0.0
C1209 C 0.15707 0.82405 0.49623 0.0
C1210 C 0.1709 0.82477 0.51184 0.0
C1211 C 0.14304 0.80857 0.49564 0.0
C1212 C 0.16955 0.81025 0.52708 0.0
H1213 H 0.22738 0.83179 0.55716 0.0
N1214 N 0.18309 0.79406 0.55465 0.0
C1215 C 0.21383 0.80568 0.56993 0.0
C1216 C 0.1841 0.80928 0.54148 0.0
C1217 C 0.19798 0.79204 0.56871 0.0
C1218 C 0.2149 0.82139 0.55641 0.0
C1219 C 0.2001 0.8232 0.54177 0.0
O1220 O 0.16528 0.76843 0.5821 0.0
O1221 O 0.14342 0.74455 0.55043 0.0
O1222 O 0.11578 0.75341 0.52319 0.0
O1223 O 0.12023 0.77989 0.54518 0.0
O1224 O 0.12723 0.76351 0.56771 0.0
O1225 O 0.15159 0.7971 0.5752 0.0
O1226 O 0.15511 0.73316 0.48972 0.0
O1227 O 0.16974 0.7603 0.52882 0.0
O1228 O 0.17733 0.75011 0.56035 0.0
O1229 O 0.16461 0.723 0.5428 0.0
O1230 O 0.17765 0.745 0.50643 0.0
O1231 O 0.15762 0.70889 0.51175 0.0
C1232 C 0.12804 0.74533 0.56138 0.0
C1233 C 0.15558 0.78687 0.60946 0.0
C1234 C 0.13373 0.79581 0.63607 0.0
C1235 C 0.13759 0.79487 0.61577 0.0
C1236 C 0.14762 0.78886 0.65013 0.0
C1237 C 0.16963 0.77981 0.62343 0.0
C1238 C 0.16561 0.78081 0.64375 0.0
C1239 C 0.10716 0.76852 0.53379 0.0
C1240 C 0.16073 0.78609 0.58858 0.0
C1241 C 0.201 0.83826 0.52726 0.0
C1242 C 0.18646 0.83899 0.51224 0.0
C1243 C 0.18655 0.75669 0.51901 0.0
C1244 C 0.15271 0.69932 0.47849 0.0
C1245 C 0.16397 0.68191 0.47707 0.0
C1246 C 0.15812 0.66643 0.46426 0.0
C1247 C 0.14057 0.66858 0.45283 0.0
C1248 C 0.13574 0.70168 0.4664 0.0
C1249 C 0.12954 0.6862 0.45384 0.0
C1250 C 0.17768 0.73074 0.55547 0.0
C1251 C 0.15939 0.71425 0.49301 0.0
H1252 H 0.12675 0.80042 0.60509 0.0
H1253 H 0.14456 0.78985 0.66596 0.0
H1254 H 0.18376 0.77367 0.61858 0.0
H1255 H 0.17644 0.77548 0.65451 0.0
H1256 H 0.1776 0.68068 0.48579 0.0
H1257 H 0.13546 0.65674 0.44302 0.0
H1258 H 0.12735 0.71534 0.46651 0.0
H1259 H 0.11623 0.68792 0.44478 0.0
Tb1260 Tb 0.98024 0.64197 0.76729 0.0
C1261 C 0.04454 0.60092 0.74511 0.0
C1262 C 0.06218 0.60729 0.77617 0.0
C1263 C 0.06731 0.57603 0.75845 0.0
C1264 C 0.04878 0.61342 0.76117 0.0
C1265 C 0.05372 0.58206 0.74366 0.0
C1266 C 0.07155 0.58861 0.77464 0.0
C1267 C 0.03553 0.57651 0.71297 0.0
N1268 N 0.03131 0.60717 0.73107 0.0
C1269 C 0.02718 0.59551 0.71476 0.0
C1270 C 0.04884 0.56973 0.7275 0.0
Tb1271 Tb 1.02019 0.63902 0.73568 0.0
N1272 N 0.03942 0.63136 0.76231 0.0
C1273 C 0.04236 0.64373 0.77817 0.0
C1274 C 0.06562 0.62006 0.79236 0.0
C1275 C 0.05557 0.63829 0.79343 0.0
H1276 H 1.01803 0.60093 0.70263 0.0
H1277 H 0.058 0.64815 0.80599 0.0
H1278 H 0.08194 0.58367 0.78601 0.0
H1279 H 0.03206 0.5673 0.70015 0.0
H1280 H 0.03457 0.65775 0.77916 0.0
H1281 H 0.90265 0.63035 0.74402 0.0
H1282 H 0.07584 0.61591 0.80421 0.0
H1283 H 0.9951 0.67351 0.80444 0.0
H1284 H 0.93656 0.61926 0.75355 0.0
H1285 H 0.98435 0.70569 0.81803 0.0
H1286 H 0.0745 0.56159 0.7576 0.0
H1287 H 0.89305 0.6656 0.74808 0.0
H1288 H 0.90145 0.69961 0.76168 0.0
H1289 H 0.05543 0.55506 0.72598 0.0
H1290 H 0.92378 0.72028 0.78253 0.0
N1291 N 0.94672 0.64856 0.76153 0.0
C1292 C 0.9327 0.63485 0.7552 0.0
C1293 C 0.90799 0.66092 0.75219 0.0
C1294 C 0.92149 0.67427 0.76099 0.0
C1295 C 0.91341 0.64097 0.74986 0.0
C1296 C 0.94076 0.66738 0.76604 0.0
H1297 H 0.95414 0.72215 0.80466 0.0
N1298 N 0.9707 0.67087 0.78384 0.0
C1299 C 0.97544 0.69837 0.80666 0.0
C1300 C 0.9532 0.67895 0.77771 0.0
C1301 C 0.98117 0.67976 0.79924 0.0
C1302 C 0.95848 0.70767 0.79898 0.0
C1303 C 0.94685 0.69776 0.78467 0.0
O1304 O 0.99239 0.63826 0.79672 0.0
O1305 O 1.0057 0.62062 0.76004 0.0
O1306 O 0.9962 0.62062 0.72143 0.0
O1307 O 0.96775 0.63059 0.73911 0.0
O1308 O 0.97781 0.60882 0.76255 0.0
O1309 O 0.96464 0.62454 0.78692 0.0
O1310 O 0.02884 0.64065 0.70611 0.0
O1311 O 0.99517 0.65502 0.74347 0.0
O1312 O 0.99447 0.67537 0.76439 0.0
O1313 O 0.02395 0.67273 0.747 0.0
O1314 O 1.00178 0.65488 0.71374 0.0
O1315 O 0.04962 0.64949 0.72939 0.0
C1316 C 0.99606 0.60286 0.75998 0.0
C1317 C 0.96469 0.63196 0.82016 0.0
C1318 C 0.93245 0.62631 0.83691 0.0
C1319 C 0.94688 0.62081 0.82282 0.0
C1320 C 0.93685 0.64256 0.84954 0.0
C1321 C 0.96913 0.64747 0.83345 0.0
C1322 C 0.95519 0.65275 0.84804 0.0
C1323 C 0.97648 0.62115 0.72405 0.0
C1324 C 0.97648 0.6278 0.80196 0.0
C1325 C 0.92864 0.7056 0.77785 0.0
C1326 C 0.91595 0.69385 0.76597 0.0
C1327 C 0.98933 0.6614 0.72663 0.0
C1328 C 0.06218 0.64161 0.69671 0.0
C1329 C 0.06855 0.65563 0.68257 0.0
C1330 C 0.07789 0.6495 0.66488 0.0
C1331 C 0.08115 0.62888 0.662 0.0
C1332 C 0.06679 0.62142 0.69421 0.0
C1333 C 0.07614 0.61508 0.67681 0.0
C1334 C 1.01111 0.68514 0.75693 0.0
C1335 C 0.04641 0.64797 0.71023 0.0
H1336 H 0.944 0.60804 0.81328 0.0
H1337 H 0.92611 0.64757 0.86046 0.0
H1338 H 0.98305 0.65571 0.83242 0.0
H1339 H 0.95844 0.66508 0.85799 0.0
H1340 H 0.06533 0.67126 0.68514 0.0
H1341 H 0.08739 0.62324 0.64827 0.0
H1342 H 0.06249 0.61049 0.7052 0.0
H1343 H 0.07894 0.59933 0.67452 0.0
Tb1344 Tb 0.14347 0.22996 0.5193 0.0
C1345 C 0.18694 0.2969 0.48785 0.0
C1346 C 0.18551 0.3146 0.51932 0.0
C1347 C 0.21121 0.32313 0.49502 0.0
C1348 C 0.17794 0.3 0.5062 0.0
C1349 C 0.20365 0.30845 0.48202 0.0
C1350 C 0.20223 0.32612 0.51365 0.0
C1351 C 0.20441 0.28972 0.45122 0.0
N1352 N 0.17962 0.2822 0.47596 0.0
C1353 C 0.18769 0.27881 0.45757 0.0
C1354 C 0.21246 0.3046 0.4635 0.0
Tb1355 Tb 0.15061 0.26819 0.48679 0.0
N1356 N 0.16169 0.28875 0.5111 0.0
C1357 C 0.15186 0.29156 0.52861 0.0
C1358 C 0.17588 0.31727 0.53764 0.0
C1359 C 0.15897 0.30572 0.54229 0.0
H1360 H 0.18105 0.26787 0.44766 0.0
H1361 H 0.15131 0.30787 0.5563 0.0
H1362 H 0.20829 0.33744 0.52354 0.0
H1363 H 0.21089 0.28684 0.43674 0.0
H1364 H 0.13861 0.28283 0.53194 0.0
H1365 H 0.14362 0.15557 0.48465 0.0
H1366 H 0.18125 0.32833 0.54819 0.0
H1367 H 0.11251 0.246 0.55581 0.0
H1368 H 0.15993 0.18385 0.5009 0.0
H1369 H 0.07881 0.23765 0.56794 0.0
H1370 H 0.22411 0.3321 0.49088 0.0
H1371 H 0.10694 0.15139 0.4866 0.0
H1372 H 0.07485 0.16175 0.50246 0.0
H1373 H 0.2254 0.31306 0.45853 0.0
H1374 H 0.05753 0.18305 0.52663 0.0
N1375 N 0.13275 0.19836 0.50916 0.0
C1376 C 0.14392 0.18336 0.50091 0.0
C1377 C 0.11402 0.1644 0.49325 0.0
C1378 C 0.103 0.17794 0.5045 0.0
C1379 C 0.13469 0.16674 0.49209 0.0
C1380 C 0.11288 0.19487 0.51253 0.0
H1381 H 0.05926 0.21058 0.5519 0.0
N1382 N 0.11258 0.22334 0.53327 0.0
C1383 C 0.08532 0.22905 0.55597 0.0
C1384 C 0.10277 0.2072 0.52565 0.0
C1385 C 0.10459 0.2335 0.54924 0.0
C1386 C 0.07434 0.21377 0.54687 0.0
C1387 C 0.08309 0.20247 0.53171 0.0
O1388 O 0.14874 0.24341 0.54784 0.0
O1389 O 0.16628 0.25454 0.51327 0.0
O1390 O 0.17297 0.24567 0.47693 0.0
O1391 O 0.16248 0.21769 0.49561 0.0
O1392 O 0.17685 0.22791 0.5227 0.0
O1393 O 0.14573 0.21078 0.54277 0.0
O1394 O 0.14337 0.27562 0.45763 0.0
O1395 O 0.13269 0.24333 0.49344 0.0
O1396 O 0.11189 0.24491 0.51372 0.0
O1397 O 0.11727 0.27403 0.49727 0.0
O1398 O 0.14207 0.24627 0.4642 0.0
O1399 O 0.13838 0.29677 0.48171 0.0
C1400 C 0.18385 0.24548 0.51765 0.0
C1401 C 0.15813 0.21953 0.57432 0.0
C1402 C 0.17103 0.19043 0.59196 0.0
C1403 C 0.16961 0.20203 0.57458 0.0
C1404 C 0.16296 0.198 0.60979 0.0
C1405 C 0.15048 0.227 0.5922 0.0
C1406 C 0.15324 0.21643 0.60994 0.0
C1407 C 0.17403 0.2263 0.48175 0.0
C1408 C 0.14833 0.22529 0.55566 0.0
C1409 C 0.07287 0.18651 0.52265 0.0
C1410 C 0.08273 0.17443 0.50885 0.0
C1411 C 0.13148 0.23564 0.47623 0.0
C1412 C 0.14022 0.30873 0.44823 0.0
C1413 C 0.12608 0.31001 0.43308 0.0
C1414 C 0.12943 0.32242 0.41689 0.0
C1415 C 0.14699 0.33395 0.41575 0.0
C1416 C 0.15777 0.3203 0.44746 0.0
C1417 C 0.16115 0.33289 0.43112 0.0
C1418 C 0.1037 0.26184 0.50631 0.0
C1419 C 0.13665 0.29306 0.46268 0.0
H1420 H 0.17568 0.19646 0.56071 0.0
H1421 H 0.16338 0.18938 0.62345 0.0
H1422 H 0.14107 0.24012 0.5922 0.0
H1423 H 0.14671 0.22188 0.62362 0.0
H1424 H 0.11254 0.30094 0.43363 0.0
H1425 H 0.14965 0.34369 0.40311 0.0
H1426 H 0.16882 0.31948 0.45916 0.0
H1427 H 0.17476 0.3417 0.43031 0.0
Tb1428 Tb 0.51807 0.39668 0.23814 0.0
C1429 C 0.54515 0.35638 0.30181 0.0
C1430 C 0.51518 0.36514 0.31986 0.0
C1431 C 0.53218 0.33401 0.32735 0.0
C1432 C 0.52994 0.36984 0.30557 0.0
C1433 C 0.54657 0.33844 0.31282 0.0
C1434 C 0.51646 0.34726 0.33078 0.0
C1435 C 0.57636 0.33049 0.29434 0.0
N1436 N 0.55845 0.36074 0.28724 0.0
C1437 C 0.57401 0.34808 0.2834 0.0
C1438 C 0.56247 0.32552 0.30899 0.0
Tb1439 Tb 0.55506 0.39143 0.27277 0.0
N1440 N 0.52916 0.38709 0.29475 0.0
C1441 C 0.51323 0.39959 0.29683 0.0
C1442 C 0.49933 0.37836 0.32251 0.0
C1443 C 0.49825 0.39553 0.31078 0.0
H1444 H 0.58479 0.35132 0.27188 0.0
H1445 H 0.48576 0.4056 0.31235 0.0
H1446 H 0.50529 0.34349 0.34186 0.0
H1447 H 0.58878 0.32067 0.29127 0.0
H1448 H 0.51149 0.4125 0.28769 0.0
H1449 H 0.55575 0.42123 0.17003 0.0
H1450 H 0.48765 0.37525 0.33326 0.0
H1451 H 0.48014 0.41675 0.26417 0.0
H1452 H 0.5481 0.39758 0.19619 0.0
H1453 H 0.46082 0.44825 0.26314 0.0
H1454 H 0.53299 0.32029 0.33592 0.0
H1455 H 0.53912 0.45398 0.1689 0.0
H1456 H 0.51426 0.47742 0.1832 0.0
H1457 H 0.56415 0.3117 0.31725 0.0
H1458 H 0.48868 0.48479 0.20825 0.0
N1459 N 0.52687 0.41632 0.21121 0.0
C1460 C 0.54028 0.41153 0.19649 0.0
C1461 C 0.53545 0.44352 0.18071 0.0
C1462 C 0.52125 0.44821 0.1952 0.0
C1463 C 0.54483 0.42505 0.18126 0.0
C1464 C 0.51708 0.43418 0.21045 0.0
H1465 H 0.46876 0.47407 0.23795 0.0
N1466 N 0.49925 0.42523 0.24013 0.0
C1467 C 0.47268 0.44575 0.25251 0.0
C1468 C 0.50259 0.43855 0.22483 0.0
C1469 C 0.48355 0.42798 0.25306 0.0
C1470 C 0.47717 0.46028 0.23818 0.0
C1471 C 0.49206 0.45672 0.224 0.0
O1472 O 0.4875 0.38926 0.23591 0.0
O1473 O 0.52961 0.37452 0.26053 0.0
O1474 O 0.56281 0.37034 0.24818 0.0
O1475 O 0.54007 0.37895 0.22322 0.0
O1476 O 0.50638 0.36564 0.24679 0.0
O1477 O 0.50793 0.38676 0.2105 0.0
O1478 O 0.58621 0.38713 0.27129 0.0
O1479 O 0.54924 0.40194 0.2434 0.0
O1480 O 0.52154 0.42726 0.25554 0.0
O1481 O 0.54626 0.42473 0.27922 0.0
O1482 O 0.56776 0.4188 0.25978 0.0
O1483 O 0.57125 0.39606 0.2992 0.0
C1484 C 0.52017 0.35713 0.25736 0.0
C1485 C 0.47446 0.39294 0.2028 0.0
C1486 C 0.45868 0.38878 0.17029 0.0
C1487 C 0.46974 0.38105 0.18638 0.0
C1488 C 0.45256 0.40889 0.17108 0.0
C1489 C 0.46649 0.41217 0.20412 0.0
C1490 C 0.45599 0.42028 0.18813 0.0
C1491 C 0.55503 0.36802 0.22994 0.0
C1492 C 0.48944 0.38527 0.21681 0.0
C1493 C 0.49652 0.47069 0.20901 0.0
C1494 C 0.51109 0.46649 0.19473 0.0
C1495 C 0.56006 0.4175 0.24222 0.0
C1496 C 0.60687 0.39168 0.30045 0.0
C1497 C 0.6153 0.41022 0.30494 0.0
C1498 C 0.63406 0.41109 0.31393 0.0
C1499 C 0.64433 0.39348 0.3187 0.0
C1500 C 0.61713 0.37401 0.30493 0.0
C1501 C 0.63582 0.37494 0.31419 0.0
C1502 C 0.53326 0.43667 0.26915 0.0
C1503 C 0.58778 0.39087 0.29029 0.0
H1504 H 0.47486 0.36574 0.18638 0.0
H1505 H 0.44495 0.41592 0.15869 0.0
H1506 H 0.46833 0.42103 0.21725 0.0
H1507 H 0.4506 0.43548 0.18891 0.0
H1508 H 0.6075 0.42389 0.30113 0.0
H1509 H 0.65897 0.39415 0.32566 0.0
H1510 H 0.61076 0.35956 0.30127 0.0
H1511 H 0.64377 0.36134 0.3177 0.0
Tb1512 Tb 0.39741 0.80674 0.02315 0.0
C1513 C 0.35282 0.74097 0.99732 0.0
C1514 C 0.35905 0.72285 0.02803 0.0
C1515 C 0.3299 0.71462 1.00769 0.0
C1516 C 0.36454 0.73762 1.01411 0.0
C1517 C 0.33531 0.72957 0.99397 0.0
C1518 C 0.3417 0.7113 0.02469 0.0
C1519 C 0.32975 0.74871 0.9639 0.0
N1520 N 0.35844 0.75559 0.98447 0.0
C1521 C 0.34743 0.75934 0.96765 0.0
C1522 C 0.32366 0.73373 0.97711 0.0
Tb1523 Tb 0.38906 0.76923 0.99108 0.0
N1524 N 0.38119 0.74904 1.01688 0.0
C1525 C 0.39334 0.74632 0.03298 0.0
C1526 C 0.37119 0.72016 0.04487 0.0
C1527 C 0.38839 0.73196 0.04736 0.0
H1528 H 0.35246 0.77022 0.9568 0.0
H1529 H 0.39793 0.72985 0.06025 0.0
H1530 H 0.33723 0.69983 0.03521 0.0
H1531 H 0.32102 0.75183 0.95065 0.0
H1532 H 0.4068 0.75522 0.03464 0.0
H1533 H 0.41454 0.87466 0.97971 0.0
H1534 H 0.36747 0.70897 0.05597 0.0
H1535 H 0.42242 0.7849 0.06123 0.0
H1536 H 0.39322 0.8479 0.99014 0.0
H1537 H 0.45334 0.79153 0.08015 0.0
H1538 H 0.31649 0.70571 1.0054 0.0
H1539 H 0.44765 0.87971 0.99502 0.0
H1540 H 0.47254 0.87009 1.02059 0.0
H1541 H 0.31001 0.72542 0.9741 0.0
H1542 H 0.48252 0.84854 0.04837 0.0
N1543 N 0.41358 0.83554 1.01198 0.0
C1544 C 0.40729 0.84895 0.9977 0.0
C1545 C 0.43823 0.86745 1.00002 0.0
C1546 C 0.44438 0.85473 1.0153 0.0
C1547 C 0.41955 0.86468 0.99139 0.0
C1548 C 0.43176 0.83864 0.02108 0.0
H1549 H 0.47538 0.81971 0.07073 0.0
N1550 N 0.42646 0.80963 0.04135 0.0
C1551 C 0.44918 0.80127 0.06795 0.0
C1552 C 0.43789 0.82597 0.0366 0.0
C1553 C 0.43154 0.79772 0.05732 0.0
C1554 C 0.46154 0.81723 0.06261 0.0
C1555 C 0.45603 0.82978 0.04685 0.0
O1556 O 0.39031 0.79995 0.05337 0.0
O1557 O 0.37479 0.78157 1.01815 0.0
O1558 O 0.36741 0.79299 0.98131 0.0
O1559 O 0.37861 0.82007 1.00058 0.0
O1560 O 0.36386 0.80808 0.02618 0.0
O1561 O 0.39272 0.83102 0.04098 0.0
O1562 O 0.38949 0.75858 0.96199 0.0
O1563 O 0.40765 0.7939 0.99641 0.0
O1564 O 0.42882 0.79101 1.01952 0.0
O1565 O 0.42378 0.76499 0.99831 0.0
O1566 O 0.3964 0.79062 0.96783 0.0
O1567 O 0.40357 0.74191 0.98639 0.0
C1568 C 0.35716 0.79036 0.02187 0.0
C1569 C 0.38303 0.82896 0.07493 0.0
C1570 C 0.36775 0.85761 0.09089 0.0
C1571 C 0.37213 0.84675 0.0737 0.0
C1572 C 0.37417 0.85033 0.10951 0.0
C1573 C 0.3893 0.82177 0.09351 0.0
C1574 C 0.38483 0.83247 0.11077 0.0
C1575 C 0.36686 0.81231 0.98654 0.0
C1576 C 0.38966 0.81946 0.05657 0.0
C1577 C 0.46841 0.84567 0.04087 0.0
C1578 C 0.46273 0.85791 0.02502 0.0
C1579 C 0.40779 0.8014 0.97904 0.0
C1580 C 0.39793 0.72534 0.9556 0.0
C1581 C 0.41293 0.723 0.94174 0.0
C1582 C 0.4111 0.70872 0.92703 0.0
C1583 C 0.39463 0.69562 0.92674 0.0
C1584 C 0.3811 0.71274 0.95557 0.0
C1585 C 0.37967 0.69757 0.94122 0.0
C1586 C 0.43721 0.77566 1.00948 0.0
C1587 C 0.39994 0.74315 0.96733 0.0
H1588 H 0.36724 0.85231 0.05929 0.0
H1589 H 0.37125 0.85863 0.12304 0.0
H1590 H 0.3981 0.80827 0.09459 0.0
H1591 H 0.38994 0.82709 0.12512 0.0
H1592 H 0.42568 0.73321 0.94159 0.0
H1593 H 0.39314 0.68445 0.91516 0.0
H1594 H 0.36914 0.71485 0.96617 0.0
H1595 H 0.36673 0.68776 0.94093 0.0
Tb1596 Tb 0.98261 0.3932 0.76999 0.0
C1597 C 0.04616 0.43862 0.79618 0.0
C1598 C 0.06164 0.43832 0.76351 0.0
C1599 C 0.06682 0.4667 0.78569 0.0
C1600 C 0.0495 0.42918 0.77805 0.0
C1601 C 0.05501 0.45734 0.8003 0.0
C1602 C 0.07016 0.4572 0.76737 0.0
C1603 C 0.04116 0.45537 0.83353 0.0
N1604 N 0.03477 0.42912 0.80998 0.0
C1605 C 0.03288 0.43672 0.8288 0.0
C1606 C 0.05208 0.46584 0.81914 0.0
Tb1607 Tb 0.02279 0.3988 0.8003 0.0
N1608 N 0.04101 0.41096 0.77476 0.0
C1609 C 0.04414 0.40081 0.7575 0.0
C1610 C 0.06474 0.42819 0.74553 0.0
C1611 C 0.05598 0.40936 0.74253 0.0
H1612 H 0.02484 0.42844 0.84014 0.0
H1613 H 0.05838 0.40142 0.72871 0.0
H1614 H 0.07942 0.46456 0.75631 0.0
H1615 H 0.03929 0.46154 0.84831 0.0
H1616 H 0.03737 0.38626 0.75529 0.0
H1617 H 0.90625 0.41166 0.79201 0.0
H1618 H 0.07391 0.43474 0.73391 0.0
H1619 H 0.99386 0.35859 0.73547 0.0
H1620 H 0.94052 0.41984 0.78117 0.0
H1621 H 0.98091 0.32544 0.72519 0.0
H1622 H 0.07363 0.48117 0.78851 0.0
H1623 H 0.89431 0.37662 0.79187 0.0
H1624 H 0.90027 0.34098 0.78192 0.0
H1625 H 0.05861 0.48023 0.82288 0.0
H1626 H 0.9209 0.31704 0.76344 0.0
N1627 N 0.94888 0.38935 0.77691 0.0
C1628 C 0.93575 0.40436 0.78142 0.0
C1629 C 0.90951 0.38004 0.78736 0.0
C1630 C 0.92204 0.3651 0.78011 0.0
C1631 C 0.9162 0.39984 0.78746 0.0
C1632 C 0.94176 0.37033 0.77459 0.0
H1633 H 0.95053 0.31151 0.74114 0.0
N1634 N 0.97148 0.36289 0.7577 0.0
C1635 C 0.9732 0.3339 0.73652 0.0
C1636 C 0.95351 0.3566 0.76469 0.0
C1637 C 0.98039 0.3527 0.74226 0.0
C1638 C 0.95611 0.32606 0.74564 0.0
C1639 C 0.94565 0.33771 0.7594 0.0
O1640 O 0.998 0.40122 0.74316 0.0
O1641 O 1.00724 0.4159 0.77549 0.0
O1642 O 1.00029 0.41917 0.81308 0.0
O1643 O 0.97106 0.40826 0.79661 0.0
O1644 O 0.97915 0.42667 0.77046 0.0
O1645 O 0.9667 0.39261 0.74379 0.0
O1646 O 0.03134 0.39027 0.82876 0.0
O1647 O 0.99759 0.3809 0.79457 0.0
O1648 O 0.9966 0.36087 0.77528 0.0
O1649 O 0.02764 0.36576 0.78832 0.0
O1650 O 1.00332 0.38817 0.82392 0.0
O1651 O 0.05291 0.38965 0.80484 0.0
C1652 C 0.99731 0.43338 0.77375 0.0
C1653 C 0.97439 0.41592 0.71964 0.0
C1654 C 0.94559 0.43474 0.70716 0.0
C1655 C 0.95537 0.42459 0.72262 0.0
C1656 C 0.95573 0.43765 0.68904 0.0
C1657 C 0.98419 0.41899 0.70148 0.0
C1658 C 0.97499 0.43006 0.68637 0.0
C1659 C 0.98053 0.41888 0.81057 0.0
C1660 C 0.98116 0.39984 0.73308 0.0
C1661 C 0.92692 0.33174 0.76678 0.0
C1662 C 0.91515 0.34541 0.77723 0.0
C1663 C 0.99155 0.37818 0.81238 0.0
C1664 C 0.06424 0.38912 0.83905 0.0
C1665 C 0.06574 0.37438 0.85384 0.0
C1666 C 0.07692 0.37791 0.87107 0.0
C1667 C 0.08696 0.39625 0.87342 0.0
C1668 C 0.07422 0.40745 0.84139 0.0
C1669 C 0.08564 0.41093 0.85858 0.0
C1670 C 1.01425 0.35232 0.78072 0.0
C1671 C 0.04933 0.3856 0.82355 0.0
H1672 H 0.94749 0.4223 0.73656 0.0
H1673 H 0.94851 0.44518 0.67669 0.0
H1674 H 0.99847 0.412 0.69862 0.0
H1675 H 0.98245 0.43201 0.67219 0.0
H1676 H 0.05766 0.36034 0.85224 0.0
H1677 H 0.09572 0.39918 0.88673 0.0
H1678 H 0.07283 0.41909 0.83027 0.0
H1679 H 0.09324 0.42512 0.86054 0.0
Tb1680 Tb 0.3922 0.23241 0.52404 0.0
C1681 C 0.35386 0.30055 0.54453 0.0
C1682 C 0.36253 0.31583 0.51289 0.0
C1683 C 0.33225 0.32587 0.53011 0.0
C1684 C 0.36694 0.30253 0.52857 0.0
C1685 C 0.33644 0.31232 0.54552 0.0
C1686 C 0.34521 0.32756 0.5138 0.0
C1687 C 0.32843 0.2965 0.57691 0.0
N1688 N 0.35817 0.28707 0.55901 0.0
C1689 C 0.3454 0.28458 0.57495 0.0
C1690 C 0.32381 0.31028 0.56202 0.0
Tb1691 Tb 0.38894 0.27211 0.55563 0.0
N1692 N 0.38369 0.29111 0.52816 0.0
C1693 C 0.3962 0.29158 0.51215 0.0
C1694 C 0.3756 0.31681 0.49665 0.0
C1695 C 0.39239 0.30449 0.4962 0.0
H1696 H 0.34879 0.27408 0.58674 0.0
H1697 H 0.40239 0.30491 0.48354 0.0
H1698 H 0.34165 0.33796 0.50194 0.0
H1699 H 0.31876 0.29478 0.58972 0.0
H1700 H 0.40899 0.28191 0.51146 0.0
H1701 H 0.3813 0.15563 0.55009 0.0
H1702 H 0.37272 0.32682 0.48428 0.0
H1703 H 0.42512 0.24695 0.48807 0.0
H1704 H 0.36967 0.18854 0.53827 0.0
H1705 H 0.45768 0.23607 0.47559 0.0
H1706 H 0.31897 0.33505 0.53061 0.0
H1707 H 0.41674 0.14651 0.54733 0.0
H1708 H 0.4508 0.15469 0.53386 0.0
H1709 H 0.31043 0.31922 0.56338 0.0
H1710 H 0.47162 0.17642 0.51265 0.0
N1711 N 0.39904 0.19917 0.5311 0.0
C1712 C 0.38544 0.18514 0.53756 0.0
C1713 C 0.41191 0.16116 0.54246 0.0
C1714 C 0.4252 0.17443 0.53331 0.0
C1715 C 0.39181 0.1663 0.54401 0.0
C1716 C 0.41811 0.19335 0.52734 0.0
H1717 H 0.47382 0.20614 0.48985 0.0
N1718 N 0.42172 0.2227 0.50869 0.0
C1719 C 0.45 0.22728 0.4868 0.0
C1720 C 0.42978 0.20544 0.51545 0.0
C1721 C 0.43115 0.23306 0.49356 0.0
C1722 C 0.45912 0.21047 0.49498 0.0
C1723 C 0.44887 0.1991 0.50921 0.0
O1724 O 0.38995 0.24534 0.49482 0.0
O1725 O 0.37077 0.25793 0.53064 0.0
O1726 O 0.36921 0.24927 0.56966 0.0
O1727 O 0.37688 0.22074 0.55068 0.0
O1728 O 0.35902 0.23003 0.52599 0.0
O1729 O 0.37666 0.21684 0.50308 0.0
O1730 O 0.38256 0.29041 0.57997 0.0
O1731 O 0.4047 0.24637 0.54869 0.0
O1732 O 0.42553 0.24564 0.52871 0.0
O1733 O 0.42274 0.27564 0.545 0.0
O1734 O 0.39941 0.25076 0.578 0.0
O1735 O 0.41158 0.2913 0.56748 0.0
C1736 C 0.35299 0.24807 0.52955 0.0
C1737 C 0.38632 0.21806 0.47045 0.0
C1738 C 0.38397 0.18603 0.45302 0.0
C1739 C 0.37735 0.19916 0.46764 0.0
C1740 C 0.39892 0.19247 0.4398 0.0
C1741 C 0.40092 0.22456 0.45691 0.0
C1742 C 0.40719 0.21173 0.44166 0.0
C1743 C 0.36742 0.22986 0.56552 0.0
C1744 C 0.38049 0.22917 0.48855 0.0
C1745 C 0.45677 0.18125 0.5168 0.0
C1746 C 0.44494 0.16892 0.52891 0.0
C1747 C 0.40822 0.23925 0.56573 0.0
C1748 C 0.40842 0.29097 0.60288 0.0
C1749 C 0.421 0.30439 0.61286 0.0
C1750 C 0.4267 0.30038 0.63257 0.0
C1751 C 0.42173 0.28212 0.6416 0.0
C1752 C 0.40145 0.27384 0.61321 0.0
C1753 C 0.40904 0.26886 0.63188 0.0
C1754 C 0.43523 0.26227 0.536 0.0
C1755 C 0.40071 0.29588 0.58284 0.0
H1756 H 0.36526 0.19433 0.47733 0.0
H1757 H 0.40424 0.18265 0.42817 0.0
H1758 H 0.40761 0.23926 0.45822 0.0
H1759 H 0.41869 0.21663 0.43139 0.0
H1760 H 0.42492 0.31857 0.60599 0.0
H1761 H 0.42625 0.27898 0.65681 0.0
H1762 H 0.38941 0.26467 0.6075 0.0
H1763 H 0.404 0.2554 0.63936 0.0
Tb1764 Tb 0.55421 0.64462 0.27485 0.0
C1765 C 0.48903 0.59984 0.28376 0.0
C1766 C 0.47313 0.61178 0.25352 0.0
C1767 C 0.46721 0.57768 0.26477 0.0
C1768 C 0.48563 0.61515 0.27013 0.0
C1769 C 0.47994 0.58091 0.28111 0.0
C1770 C 0.46378 0.59307 0.25104 0.0
C1771 C 0.49669 0.56953 0.31089 0.0
N1772 N 0.50152 0.60339 0.29935 0.0
C1773 C 0.50528 0.58848 0.31302 0.0
C1774 C 0.48397 0.56571 0.29486 0.0
Tb1775 Tb 0.5115 0.63623 0.30225 0.0
N1776 N 0.4949 0.63314 0.27289 0.0
C1777 C 0.49283 0.64813 0.25928 0.0
C1778 C 0.4705 0.62729 0.23977 0.0
C1779 C 0.48054 0.64545 0.24257 0.0
H1780 H 0.51446 0.59105 0.32605 0.0
H1781 H 0.47878 0.65743 0.23186 0.0
H1782 H 0.45401 0.59027 0.23842 0.0
H1783 H 0.49982 0.55793 0.3217 0.0
H1784 H 0.50051 0.66218 0.26113 0.0
H1785 H 0.62391 0.65452 0.31796 0.0
H1786 H 0.46096 0.6253 0.22683 0.0
H1787 H 0.53534 0.67202 0.23708 0.0
H1788 H 0.59702 0.63461 0.30434 0.0
H1789 H 0.54443 0.70288 0.21925 0.0
H1790 H 0.46005 0.56327 0.26255 0.0
H1791 H 0.62971 0.68894 0.30637 0.0
H1792 H 0.62157 0.71598 0.28245 0.0
H1793 H 0.47734 0.55097 0.29325 0.0
H1794 H 0.60138 0.72828 0.25451 0.0
N1795 N 0.58408 0.6584 0.28672 0.0
C1796 C 0.59775 0.64996 0.29961 0.0
C1797 C 0.61706 0.68051 0.30061 0.0
C1798 C 0.60471 0.6884 0.28583 0.0
C1799 C 0.61378 0.6611 0.30723 0.0
C1800 C 0.58805 0.67703 0.27911 0.0
H1801 H 0.5733 0.72316 0.23049 0.0
N1802 N 0.55934 0.67424 0.25818 0.0
C1803 C 0.55336 0.69797 0.2318 0.0
C1804 C 0.57601 0.68464 0.26386 0.0
C1805 C 0.54841 0.68034 0.24185 0.0
C1806 C 0.5697 0.70934 0.23816 0.0
C1807 C 0.5812 0.70282 0.25435 0.0
O1808 O 0.54576 0.63825 0.24484 0.0
O1809 O 0.52887 0.62208 0.27783 0.0
O1810 O 0.53539 0.6174 0.31613 0.0
O1811 O 0.56479 0.62769 0.29984 0.0
O1812 O 0.55657 0.61104 0.27316 0.0
O1813 O 0.57739 0.6388 0.2559 0.0
O1814 O 0.49852 0.62471 0.32769 0.0
O1815 O 0.53765 0.65287 0.29985 0.0
O1816 O 0.53888 0.67601 0.27909 0.0
O1817 O 0.50878 0.67128 0.29533 0.0
O1818 O 0.52609 0.65048 0.32784 0.0
O1819 O 0.48245 0.64639 0.31006 0.0
C1820 C 0.53831 0.60462 0.27549 0.0
C1821 C 0.57337 0.63086 0.22151 0.0
C1822 C 0.60262 0.61934 0.20345 0.0
C1823 C 0.59207 0.62151 0.22125 0.0
C1824 C 0.59381 0.62596 0.18555 0.0
C1825 C 0.56464 0.63724 0.20362 0.0
C1826 C 0.57485 0.63468 0.18566 0.0
C1827 C 0.55514 0.61681 0.31322 0.0
C1828 C 0.56503 0.63656 0.24077 0.0
C1829 C 0.5975 0.71409 0.26135 0.0
C1830 C 0.60898 0.70709 0.27727 0.0
C1831 C 0.54075 0.65784 0.31781 0.0
C1832 C 0.4727 0.63978 0.34404 0.0
C1833 C 0.47714 0.65788 0.35357 0.0
C1834 C 0.47029 0.6609 0.37302 0.0
C1835 C 0.45942 0.64586 0.38294 0.0
C1836 C 0.46173 0.62485 0.35404 0.0
C1837 C 0.45517 0.62788 0.37345 0.0
C1838 C 0.52216 0.68448 0.28678 0.0
C1839 C 0.48187 0.63412 0.32528 0.0
H1840 H 0.59868 0.61631 0.23509 0.0
H1841 H 0.60171 0.62475 0.17153 0.0
H1842 H 0.55041 0.64489 0.20364 0.0
H1843 H 0.5683 0.63994 0.17186 0.0
H1844 H 0.48599 0.66927 0.34612 0.0
H1845 H 0.45414 0.64815 0.39804 0.0
H1846 H 0.45881 0.61054 0.34701 0.0
H1847 H 0.44693 0.61625 0.38117 0.0
Tb1848 Tb 0.14597 0.76959 0.061 0.0
C1849 C 0.10497 0.79821 0.9918 0.0
C1850 C 0.10294 0.7654 0.97646 0.0
C1851 C 0.07938 0.79137 0.9669 0.0
C1852 C 0.11209 0.77878 0.98989 0.0
C1853 C 0.08863 0.80474 0.98022 0.0
C1854 C 0.08647 0.77176 0.96506 0.0
C1855 C 0.09234 0.83738 0.9953 0.0
N1856 N 0.11416 0.81071 1.00486 0.0
C1857 C 0.10869 0.83032 1.0062 0.0
C1858 C 0.08217 0.8245 0.98233 0.0
Tb1859 Tb 0.14199 0.79784 1.01912 0.0
N1860 N 0.12814 0.77312 1.00098 0.0
C1861 C 0.13628 0.75463 0.9991 0.0
C1862 C 0.1108 0.74611 0.97476 0.0
C1863 C 0.12756 0.74073 0.98609 0.0
H1864 H 0.11703 0.84054 1.01562 0.0
H1865 H 0.13388 0.72596 0.98464 0.0
H1866 H 0.0792 0.76167 0.95466 0.0
H1867 H 0.0878 0.85282 0.99666 0.0
H1868 H 0.14948 0.75077 1.0076 0.0
H1869 H 0.14131 0.80268 0.13549 0.0
H1870 H 0.10419 0.73536 0.96459 0.0
H1871 H 0.1754 0.73129 0.04717 0.0
H1872 H 0.12701 0.79025 0.10412 0.0
H1873 H 0.20805 0.71769 0.05735 0.0
H1874 H 0.06673 0.79605 0.95793 0.0
H1875 H 0.17688 0.79763 0.14329 0.0
H1876 H 0.20919 0.7812 0.13476 0.0
H1877 H 0.0696 0.83004 0.97377 0.0
H1878 H 0.2273 0.75731 0.11382 0.0
N1879 N 0.15507 0.77999 0.09262 0.0
C1880 C 0.14289 0.78862 0.10661 0.0
C1881 C 0.17091 0.79243 0.12917 0.0
C1882 C 0.18269 0.78147 0.11604 0.0
C1883 C 0.15079 0.79544 0.12473 0.0
C1884 C 0.17415 0.77494 0.09787 0.0
H1885 H 0.22661 0.73287 0.08552 0.0
N1886 N 0.17546 0.7542 0.06937 0.0
C1887 C 0.20166 0.73006 0.06547 0.0
C1888 C 0.18448 0.76138 0.08611 0.0
C1889 C 0.18302 0.73763 0.05994 0.0
C1890 C 0.21211 0.73871 0.08134 0.0
C1891 C 0.20336 0.75422 0.09218 0.0
O1892 O 0.13955 0.73962 0.05112 0.0
O1893 O 0.12434 0.77372 0.03509 0.0
O1894 O 0.12049 0.81177 0.03997 0.0
O1895 O 0.12969 0.79643 0.07031 0.0
O1896 O 0.11263 0.76982 0.06272 0.0
O1897 O 0.13891 0.74947 0.08276 0.0
O1898 O 0.15418 0.8243 1.00858 0.0
O1899 O 0.15858 0.79325 0.04493 0.0
O1900 O 0.17906 0.77356 0.04772 0.0
O1901 O 0.17508 0.78553 1.01623 0.0
O1902 O 0.15136 0.82233 0.03818 0.0
O1903 O 0.15279 0.79835 0.98942 0.0
C1904 C 0.10645 0.77231 0.04447 0.0
C1905 C 0.12922 0.71565 0.07807 0.0
C1906 C 0.11473 0.697 0.10606 0.0
C1907 C 0.11997 0.71519 0.09698 0.0
C1908 C 0.11873 0.67911 0.09586 0.0
C1909 C 0.133 0.6977 0.06815 0.0
C1910 C 0.12776 0.67951 0.07706 0.0
C1911 C 0.11948 0.80983 0.05974 0.0
C1912 C 0.13652 0.73486 0.07004 0.0
C1913 C 0.21257 0.76223 0.10923 0.0
C1914 C 0.20227 0.77588 0.12112 0.0
C1915 C 0.16112 0.8112 0.05051 0.0
C1916 C 0.15252 0.8312 0.97514 0.0
C1917 C 0.1633 0.84911 0.97505 0.0
C1918 C 0.15685 0.86514 0.96362 0.0
C1919 C 0.13979 0.86319 0.95156 0.0
C1920 C 0.13582 0.82887 0.96263 0.0
C1921 C 0.12945 0.84494 0.95089 0.0
C1922 C 0.18815 0.77863 0.03021 0.0
C1923 C 0.15766 0.81721 0.99095 0.0
H1924 H 0.11689 0.72902 0.10476 0.0
H1925 H 0.11517 0.66479 0.10257 0.0
H1926 H 0.14042 0.69771 0.05382 0.0
H1927 H 0.13095 0.66562 0.06948 0.0
H1928 H 0.17625 0.85095 0.98473 0.0
H1929 H 0.13469 0.87563 0.94257 0.0
H1930 H 0.12749 0.81499 0.96228 0.0
H1931 H 0.11634 0.84334 0.94151 0.0
Tb1932 Tb 0.77298 0.98181 0.64875 0.0
C1933 C 0.74345 0.04632 0.60461 0.0
C1934 C 0.77462 0.06487 0.6077 0.0
C1935 C 0.75155 0.07224 0.58051 0.0
C1936 C 0.76133 0.05006 0.61463 0.0
C1937 C 0.73834 0.05741 0.58747 0.0
C1938 C 0.76966 0.07592 0.59055 0.0
C1939 C 0.70733 0.03865 0.58573 0.0
N1940 N 0.73104 0.03197 0.6118 0.0
C1941 C 0.71288 0.02834 0.603 0.0
C1942 C 0.72013 0.05324 0.5779 0.0
Tb1943 Tb 0.74068 1.01905 0.64158 0.0
N1944 N 0.76557 0.0393 0.63128 0.0
C1945 C 0.78251 0.04273 0.64207 0.0
C1946 C 0.79237 0.06825 0.61838 0.0
C1947 C 0.79633 0.05713 0.63564 0.0
H1948 H 0.70248 1.01771 0.60945 0.0
H1949 H 0.80988 0.05984 0.6441 0.0
H1950 H 0.77968 0.08742 0.58499 0.0
H1951 H 0.69305 0.03558 0.57868 0.0
H1952 H 0.78521 0.03441 0.65564 0.0
H1953 H 0.7483 0.90347 0.64506 0.0
H1954 H 0.80301 0.07953 0.61355 0.0
H1955 H 0.80774 1.00145 0.67936 0.0
H1956 H 0.75881 0.93515 0.63024 0.0
H1957 H 0.82163 0.99384 0.71269 0.0
H1958 H 0.74794 0.0809 0.56734 0.0
H1959 H 0.75302 0.89737 0.68105 0.0
H1960 H 0.76819 0.90846 0.71332 0.0
H1961 H 0.71572 0.06134 0.56462 0.0
H1962 H 0.789 0.9327 0.73161 0.0
N1963 N 0.7665 0.94898 0.65809 0.0
C1964 C 0.75985 0.93361 0.64619 0.0
C1965 C 0.75709 0.91176 0.67477 0.0
C1966 C 0.7665 0.92637 0.6864 0.0
C1967 C 0.75431 0.91519 0.65447 0.0
C1968 C 0.77126 0.945 0.67758 0.0
H1969 H 0.80968 0.9641 0.73119 0.0
N1970 N 0.78781 0.97635 0.67923 0.0
C1971 C 0.81052 0.98402 0.70609 0.0
C1972 C 0.78258 0.95888 0.68829 0.0
C1973 C 0.8028 0.98816 0.68717 0.0
C1974 C 0.8037 0.96723 0.71649 0.0
C1975 C 0.78993 0.95419 0.70746 0.0
O1976 O 0.8003 0.99666 0.64084 0.0
O1977 O 0.76709 1.00589 0.62554 0.0
O1978 O 0.73026 0.99572 0.62026 0.0
O1979 O 0.74909 0.96802 0.63078 0.0
O1980 O 0.77482 0.97841 0.61539 0.0
O1981 O 0.79855 0.96529 0.64966 0.0
O1982 O 0.71127 0.02746 0.6467 0.0
O1983 O 0.7467 0.99464 0.66003 0.0
O1984 O 0.76601 0.99545 0.68087 0.0
O1985 O 0.75004 0.02464 0.67553 0.0
O1986 O 0.71813 0.99705 0.6491 0.0
O1987 O 0.73584 0.04768 0.65372 0.0
C1988 C 0.77044 0.99608 0.60819 0.0
C1989 C 0.82331 0.97217 0.62686 0.0
C1990 C 0.83506 0.94113 0.61198 0.0
C1991 C 0.81937 0.95317 0.61847 0.0
C1992 C 0.85442 0.94938 0.61087 0.0
C1993 C 0.84263 0.98025 0.6255 0.0
C1994 C 0.85801 0.96906 0.61704 0.0
C1995 C 0.73494 0.97636 0.61949 0.0
C1996 C 0.80979 0.97952 0.64248 0.0
C1997 C 0.78393 0.93632 0.71669 0.0
C1998 C 0.77209 0.92252 0.70624 0.0
C1999 C 0.72932 0.9868 0.66091 0.0
C2000 C 0.70324 0.06102 0.64873 0.0
C2001 C 0.68643 0.06272 0.66069 0.0
C2002 C 0.67122 0.07588 0.65566 0.0
C2003 C 0.67317 0.088 0.63865 0.0
C2004 C 0.70537 0.07309 0.63178 0.0
C2005 C 0.69028 0.0866 0.62676 0.0
C2006 C 0.75866 1.01235 0.68927 0.0
C2007 C 0.71654 0.04477 0.65379 0.0
H2008 H 0.80456 0.94656 0.61967 0.0
H2009 H 0.86683 0.94046 0.60571 0.0
H2010 H 0.84612 0.99457 0.63223 0.0
H2011 H 0.87304 0.97516 0.61647 0.0
H2012 H 0.68501 0.05337 0.67389 0.0
H2013 H 0.66143 0.09829 0.63448 0.0
H2014 H 0.71842 0.07203 0.62245 0.0
H2015 H 0.69173 0.09581 0.61357 0.0
Tb2016 Tb 0.81266 1.01685 0.39653 0.0
C2017 C 0.74681 0.99184 0.35372 0.0
C2018 C 0.73064 0.02404 0.35704 0.0
C2019 C 0.72205 1.00217 0.32925 0.0
C2020 C 0.74421 1.00966 0.36405 0.0
C2021 C 0.73574 0.98792 0.33621 0.0
C2022 C 0.71954 0.02019 0.3396 0.0
C2023 C 0.75173 0.95568 0.3344 0.0
N2024 N 0.75983 0.97822 0.36109 0.0
C2025 C 0.76198 0.96003 0.35207 0.0
C2026 C 0.73859 0.96971 0.32638 0.0
Tb2027 Tb 0.77276 0.98636 0.3914 0.0
N2028 N 0.75497 1.01283 0.38099 0.0
C2029 C 0.75288 0.02986 0.39184 0.0
C2030 C 0.7286 0.04181 0.36785 0.0
C2031 C 0.7398 0.04475 0.38529 0.0
H2032 H 0.77131 0.94863 0.35867 0.0
H2033 H 0.73817 0.05836 0.39381 0.0
H2034 H 0.70898 0.03105 0.33398 0.0
H2035 H 0.75365 0.94136 0.3272 0.0
H2036 H 0.76123 0.0318 0.40555 0.0
H2037 H 0.88998 0.99061 0.39173 0.0
H2038 H 0.71835 0.05329 0.36292 0.0
H2039 H 0.79613 0.05397 0.42575 0.0
H2040 H 0.85775 1.00118 0.37739 0.0
H2041 H 0.80569 0.0691 0.45798 0.0
H2042 H 0.71338 0.99942 0.31585 0.0
H2043 H 0.89699 0.99543 0.4274 0.0
H2044 H 0.88717 1.01109 0.45968 0.0
H2045 H 0.73046 0.96621 0.31282 0.0
H2046 H 0.8646 0.03356 0.47764 0.0
N2047 N 0.84516 1.0093 0.40556 0.0
C2048 C 0.86005 1.00251 0.39329 0.0
C2049 C 0.88252 0.99959 0.42142 0.0
C2050 C 0.86844 1.00921 0.43329 0.0
C2051 C 0.87856 0.99682 0.40121 0.0
C2052 C 0.84976 1.01422 0.42482 0.0
H2053 H 0.83491 0.05626 0.47657 0.0
N2054 N 0.81961 0.03244 0.42627 0.0
C2055 C 0.81444 0.05703 0.45187 0.0
C2056 C 0.83685 0.0266 0.43528 0.0
C2057 C 0.80921 0.04857 0.43355 0.0
C2058 C 0.83092 0.0497 0.46233 0.0
C2059 C 0.84258 0.0346 0.45391 0.0
O2060 O 0.80013 0.04527 0.38863 0.0
O2061 O 0.78771 1.01114 0.37401 0.0
O2062 O 0.79585 0.97242 0.37189 0.0
O2063 O 0.82475 0.99037 0.38146 0.0
O2064 O 0.8157 1.01541 0.36308 0.0
O2065 O 0.83219 0.0402 0.39345 0.0
O2066 O 0.76062 0.958 0.39552 0.0
O2067 O 0.7977 0.9925 0.40893 0.0
O2068 O 0.79851 1.01226 0.42938 0.0
O2069 O 0.76865 0.99632 0.42529 0.0
O2070 O 0.79193 0.96287 0.40301 0.0
O2071 O 0.74385 0.98448 0.40378 0.0
C2072 C 0.79753 1.01221 0.35649 0.0
C2073 C 0.82513 0.06951 0.37594 0.0
C2074 C 0.85392 0.08633 0.36052 0.0
C2075 C 0.84436 0.06881 0.36719 0.0
C2076 C 0.84359 0.10454 0.36178 0.0
C2077 C 0.81513 0.0878 0.37686 0.0
C2078 C 0.82428 0.10518 0.36966 0.0
C2079 C 0.81563 0.97558 0.37164 0.0
C2080 C 0.81833 0.05307 0.38898 0.0
C2081 C 0.86025 0.02804 0.46306 0.0
C2082 C 0.87308 1.01522 0.45283 0.0
C2083 C 0.80389 0.97492 0.41219 0.0
C2084 C 0.72618 0.954 0.39779 0.0
C2085 C 0.72265 0.93693 0.40902 0.0
C2086 C 0.70759 0.92357 0.40366 0.0
C2087 C 0.69527 0.92771 0.38722 0.0
C2088 C 0.71407 0.95833 0.38126 0.0
C2089 C 0.69853 0.94514 0.37606 0.0
C2090 C 0.78151 1.0052 0.43846 0.0
C2091 C 0.74419 0.965 0.40302 0.0
H2092 H 0.8524 0.05481 0.36658 0.0
H2093 H 0.85067 0.11841 0.35721 0.0
H2094 H 0.80076 0.08885 0.38419 0.0
H2095 H 0.81668 0.11935 0.37092 0.0
H2096 H 0.73221 0.93361 0.42174 0.0
H2097 H 0.68354 0.91734 0.38286 0.0
H2098 H 0.71667 0.97155 0.37239 0.0
H2099 H 0.68925 0.94827 0.3632 0.0
Tb2100 Tb 0.76898 0.05051 0.14719 0.0
C2101 C 0.79001 0.97595 0.11261 0.0
C2102 C 0.76136 0.95976 0.12742 0.0
C2103 C 0.77653 0.94556 0.0978 0.0
C2104 C 0.77615 0.97489 0.12762 0.0
C2105 C 0.79042 0.96136 0.09744 0.0
C2106 C 0.7619 0.94484 0.1127 0.0
C2107 C 0.81684 0.98019 0.08162 0.0
N2108 N 0.80228 0.99204 0.11223 0.0
C2109 C 0.81525 0.99464 0.09655 0.0
C2110 C 0.80443 0.96338 0.08211 0.0
Tb2111 Tb 0.80221 1.01229 0.13994 0.0
N2112 N 0.77609 0.98973 0.14137 0.0
C2113 C 0.76015 0.99149 0.15391 0.0
C2114 C 0.74598 0.96062 0.14143 0.0
C2115 C 0.74514 0.97683 0.15446 0.0
H2116 H 0.82446 1.00786 0.09513 0.0
H2117 H 0.73276 0.97823 0.16471 0.0
H2118 H 0.75077 0.93299 0.11241 0.0
H2119 H 0.8273 0.9823 0.0695 0.0
H2120 H 0.75854 1.00435 0.16315 0.0
H2121 H 0.80362 0.12349 0.16194 0.0
H2122 H 0.73423 0.94939 0.14172 0.0
H2123 H 0.7323 0.02558 0.17165 0.0
H2124 H 0.7946 0.09562 0.14086 0.0
H2125 H 0.71537 0.02848 0.20419 0.0
H2126 H 0.7766 0.93419 0.08631 0.0
H2127 H 0.79061 0.12579 0.19619 0.0
H2128 H 0.76866 0.11205 0.2228 0.0
H2129 H 0.80534 0.95244 0.07027 0.0
H2130 H 0.7445 0.08673 0.23407 0.0
N2131 N 0.77763 0.07982 0.16332 0.0
C2132 C 0.78922 0.09523 0.15596 0.0
C2133 C 0.78671 0.11298 0.18708 0.0
C2134 C 0.77373 0.09813 0.19413 0.0
C2135 C 0.79418 0.11167 0.16781 0.0
C2136 C 0.76916 0.08159 0.18176 0.0
H2137 H 0.72451 0.05587 0.22721 0.0
N2138 N 0.75148 0.05078 0.1766 0.0
C2139 C 0.72675 0.03925 0.19998 0.0
C2140 C 0.7554 0.06711 0.18832 0.0
C2141 C 0.73635 0.03765 0.18159 0.0
C2142 C 0.7319 0.0548 0.2129 0.0
C2143 C 0.74613 0.06909 0.20708 0.0
O2144 O 0.7381 0.0482 0.141 0.0
O2145 O 0.77602 0.02583 0.1252 0.0
O2146 O 0.80813 0.03555 0.11667 0.0
O2147 O 0.79388 0.06357 0.13114 0.0
O2148 O 0.76058 0.048 0.11474 0.0
O2149 O 0.75589 0.07579 0.13574 0.0
O2150 O 0.83021 1.01729 0.12795 0.0
O2151 O 0.7986 0.04133 0.15072 0.0
O2152 O 0.77423 0.0345 0.17856 0.0
O2153 O 0.79458 1.00693 0.17425 0.0
O2154 O 0.81846 0.02467 0.16578 0.0
O2155 O 0.82407 0.9901 0.14444 0.0
C2156 C 0.7691 0.03239 0.10754 0.0
C2157 C 0.72208 0.0805 0.1413 0.0
C2158 C 0.70742 0.11319 0.13618 0.0
C2159 C 0.71992 0.09783 0.12993 0.0
C2160 C 0.69608 0.11066 0.15361 0.0
C2161 C 0.71063 0.07792 0.15859 0.0
C2162 C 0.69762 0.09299 0.16468 0.0
C2163 C 0.80447 0.0551 0.11688 0.0
C2164 C 0.73814 0.06715 0.13526 0.0
C2165 C 0.75127 0.08519 0.2195 0.0
C2166 C 0.76505 0.09959 0.21309 0.0
C2167 C 0.81083 0.04225 0.16491 0.0
C2168 C 0.85643 1.00527 0.1468 0.0
C2169 C 0.86282 0.99197 0.16141 0.0
C2170 C 0.88101 0.99529 0.17095 0.0
C2171 C 0.89235 1.01254 0.16702 0.0
C2172 C 0.86854 0.0219 0.14184 0.0
C2173 C 0.88621 0.02569 0.15225 0.0
C2174 C 0.78424 1.01899 0.18719 0.0
C2175 C 0.83777 1.0014 0.136 0.0
H2176 H 0.72861 0.09963 0.11638 0.0
H2177 H 0.68636 0.12242 0.15882 0.0
H2178 H 0.71179 0.06457 0.16747 0.0
H2179 H 0.68897 0.09113 0.17818 0.0
H2180 H 0.85456 0.97823 0.1642 0.0
H2181 H 0.90687 1.01473 0.17396 0.0
H2182 H 0.86451 0.03186 0.12976 0.0
H2183 H 0.89569 0.03819 0.14817 0.0
Tb2184 Tb 0.73408 0.02598 0.89818 0.0
C2185 C 0.80553 0.03932 0.85892 0.0
C2186 C 0.82419 1.01162 0.87247 0.0
C2187 C 0.83443 0.02685 0.8411 0.0
C2188 C 0.80887 0.02582 0.87418 0.0
C2189 C 0.81825 0.04003 0.8422 0.0
C2190 C 0.83723 1.01247 0.85607 0.0
C2191 C 0.79634 0.06452 0.82751 0.0
N2192 N 0.78914 0.051 0.86004 0.0
C2193 C 0.78384 0.06283 0.84407 0.0
C2194 C 0.81393 0.0535 0.82682 0.0
Tb2195 Tb 0.77683 0.05356 0.89187 0.0
N2196 N 0.79635 0.02588 0.8901 0.0
C2197 C 0.79691 1.01079 0.90376 0.0
C2198 C 0.82562 0.99674 0.88706 0.0
C2199 C 0.81162 0.99605 0.9025 0.0
H2200 H 0.77079 0.07219 0.84441 0.0
H2201 H 0.81222 0.98422 0.9135 0.0
H2202 H 0.84932 1.00187 0.85465 0.0
H2203 H 0.79246 0.07448 0.81538 0.0
H2204 H 0.78609 1.00983 0.91556 0.0
H2205 H 0.66225 0.06563 0.90099 0.0
H2206 H 0.83708 0.98541 0.88623 0.0
H2207 H 0.74807 0.98603 0.92521 0.0
H2208 H 0.68989 0.05007 0.88328 0.0
H2209 H 0.73681 0.96868 0.95557 0.0
H2210 H 0.8444 0.02716 0.8284 0.0
H2211 H 0.6561 0.05772 0.93626 0.0
H2212 H 0.66426 0.03679 0.96584 0.0
H2213 H 0.82357 0.05479 0.81392 0.0
H2214 H 0.68354 1.00917 0.98023 0.0
N2215 N 0.70311 0.0371 0.90959 0.0
C2216 C 0.68886 0.04767 0.89917 0.0
C2217 C 0.66916 0.05171 0.92892 0.0
C2218 C 0.68168 0.03828 0.93867 0.0
C2219 C 0.67251 0.05607 0.90895 0.0
C2220 C 0.69875 0.0311 0.92857 0.0
H2221 H 0.70915 0.9825 0.97552 0.0
N2222 N 0.7265 1.0094 0.92734 0.0
C2223 C 0.72935 0.98215 0.95072 0.0
C2224 C 0.71024 1.01623 0.9373 0.0
C2225 C 0.73554 0.99196 0.93337 0.0
C2226 C 0.71377 0.99002 0.96195 0.0
C2227 C 0.70408 1.0073 0.95539 0.0
O2228 O 0.74392 0.99632 0.89051 0.0
O2229 O 0.75928 0.02958 0.87543 0.0
O2230 O 0.75314 0.06887 0.8741 0.0
O2231 O 0.72365 0.05304 0.88408 0.0
O2232 O 0.73086 0.02714 0.86485 0.0
O2233 O 0.71221 1.00622 0.89139 0.0
O2234 O 0.78681 0.07958 0.87896 0.0
O2235 O 0.75043 0.05053 0.90791 0.0
O2236 O 0.74999 0.02791 0.92981 0.0
O2237 O 0.78038 0.04424 0.92605 0.0
O2238 O 0.7645 0.07714 0.91065 0.0
O2239 O 0.80399 0.06674 0.90284 0.0
C2240 C 0.74908 0.02863 0.85803 0.0
C2241 C 0.71621 0.9726 0.88142 0.0
C2242 C 0.6861 0.95499 0.87044 0.0
C2243 C 0.69601 0.97251 0.87583 0.0
C2244 C 0.69675 0.93691 0.87078 0.0
C2245 C 0.7268 0.95462 0.88166 0.0
C2246 C 0.71701 0.9368 0.87634 0.0
C2247 C 0.73333 0.06711 0.87422 0.0
C2248 C 0.7248 0.99166 0.8882 0.0
C2249 C 0.68801 1.01538 0.96599 0.0
C2250 C 0.67702 0.03108 0.95777 0.0
C2251 C 0.74879 0.06756 0.91606 0.0
C2252 C 0.8053 0.10258 0.89623 0.0
C2253 C 0.80803 0.10865 0.91609 0.0
C2254 C 0.80902 0.12918 0.92048 0.0
C2255 C 0.80731 0.1434 0.90516 0.0
C2256 C 0.80415 0.11712 0.88102 0.0
C2257 C 0.80497 0.13737 0.88551 0.0
C2258 C 0.76695 0.03514 0.93871 0.0
C2259 C 0.80237 0.08162 0.89022 0.0
H2260 H 0.68757 0.98626 0.87626 0.0
H2261 H 0.68953 0.92299 0.86663 0.0
H2262 H 0.74234 0.95431 0.88624 0.0
H2263 H 0.7251 0.92284 0.87664 0.0
H2264 H 0.80936 0.0977 0.92792 0.0
H2265 H 0.80846 0.15925 0.90838 0.0
H2266 H 0.80222 0.11277 0.86557 0.0
H2267 H 0.80392 0.14839 0.87373 0.0
Tb2268 Tb 0.64678 0.73342 1.01936 0.0
C2269 C 0.68758 0.80054 0.99831 0.0
C2270 C 0.67427 0.82076 0.02489 0.0
C2271 C 0.70712 0.82845 1.01136 0.0
C2272 C 0.67208 0.80503 1.01104 0.0
C2273 C 0.70543 0.81199 0.99853 0.0
C2274 C 0.6916 0.83277 0.02459 0.0
C2275 C 0.71973 0.78846 0.97555 0.0
N2276 N 0.6858 0.78394 0.98694 0.0
C2277 C 0.70187 0.7775 0.976 0.0
C2278 C 0.72144 0.80596 0.98664 0.0
Tb2279 Tb 0.65437 0.76956 0.98585 0.0
N2280 N 0.65573 0.7928 1.01115 0.0
C2281 C 0.64211 0.79441 0.0262 0.0
C2282 C 0.65945 0.82336 0.03926 0.0
C2283 C 0.64353 0.80984 0.04018 0.0
H2284 H 0.70114 0.76404 0.96722 0.0
H2285 H 0.63248 0.81109 0.05187 0.0
H2286 H 0.69342 0.84502 0.035 0.0
H2287 H 0.7322 0.78331 0.96672 0.0
H2288 H 0.63039 0.78368 0.02812 0.0
H2289 H 0.61636 0.6687 0.97952 0.0
H2290 H 0.66062 0.83517 0.05024 0.0
H2291 H 0.62843 0.76073 0.05722 0.0
H2292 H 0.64029 0.69527 0.9852 0.0
H2293 H 0.60049 0.75739 0.08108 0.0
H2294 H 0.72067 0.83742 1.01172 0.0
H2295 H 0.58708 0.66483 1.00148 0.0
H2296 H 0.56781 0.67647 0.03089 0.0
H2297 H 0.73541 0.81428 0.9865 0.0
H2298 H 0.56377 0.70001 0.05857 0.0
N2299 N 0.62575 0.70731 1.01086 0.0
C2300 C 0.62826 0.694 0.99555 0.0
C2301 C 0.5978 0.67672 1.00431 0.0
C2302 C 0.59522 0.69004 1.02011 0.0
C2303 C 0.61434 0.67878 0.99196 0.0
C2304 C 0.60944 0.70555 0.02301 0.0
H2305 H 0.57599 0.72982 0.0775 0.0
N2306 N 0.6196 0.73533 0.04006 0.0
C2307 C 0.60201 0.74675 0.06906 0.0
C2308 C 0.60673 0.71935 0.03845 0.0
C2309 C 0.61773 0.74866 0.05549 0.0
C2310 C 0.58828 0.73106 0.06707 0.0
C2311 C 0.59039 0.71726 0.05157 0.0
O2312 O 0.65585 0.73592 0.04908 0.0
O2313 O 0.66914 0.75857 1.01337 0.0
O2314 O 0.67333 0.74302 0.9764 0.0
O2315 O 0.66352 0.71708 0.99746 0.0
O2316 O 0.68033 0.73261 0.02263 0.0
O2317 O 0.65228 0.70629 0.03391 0.0
O2318 O 0.66686 0.7698 0.95762 0.0
O2319 O 0.6424 0.74044 0.98887 0.0
O2320 O 0.61585 0.75027 1.01627 0.0
O2321 O 0.62015 0.77601 0.99387 0.0
O2322 O 0.62689 0.7592 0.97114 0.0
O2323 O 0.64796 0.79399 0.96667 0.0
C2324 C 0.68688 0.74995 1.01711 0.0
C2325 C 0.66144 0.70626 0.06891 0.0
C2326 C 0.6757 0.67744 0.08553 0.0
C2327 C 0.67265 0.68872 0.06821 0.0
C2328 C 0.66743 0.68406 0.10364 0.0
C2329 C 0.65348 0.71286 0.08701 0.0
C2330 C 0.65649 0.70174 0.10434 0.0
C2331 C 0.67465 0.72397 0.98263 0.0
C2332 C 0.65607 0.71625 0.05042 0.0
C2333 C 0.5765 0.70169 0.04874 0.0
C2334 C 0.5788 0.68827 0.03297 0.0
C2335 C 0.62706 0.74123 0.97787 0.0
C2336 C 0.64611 0.78256 0.93298 0.0
C2337 C 0.6372 0.79888 0.92346 0.0
C2338 C 0.62759 0.79616 0.90508 0.0
C2339 C 0.62692 0.77726 0.89612 0.0
C2340 C 0.64526 0.76356 0.92382 0.0
C2341 C 0.63587 0.76104 0.90545 0.0
C2342 C 0.60716 0.76508 1.00552 0.0
C2343 C 0.65714 0.78542 0.95182 0.0
H2344 H 0.67882 0.68382 0.05412 0.0
H2345 H 0.66908 0.67539 0.11718 0.0
H2346 H 0.6444 0.7262 0.08761 0.0
H2347 H 0.65001 0.70663 0.11826 0.0
H2348 H 0.63792 0.81361 0.93016 0.0
H2349 H 0.61965 0.77517 0.8818 0.0
H2350 H 0.65209 0.7506 0.93064 0.0
H2351 H 0.63566 0.74651 0.8984 0.0
Tb2352 Tb 0.0572 0.14414 0.76717 0.0
C2353 C 0.99622 0.09814 0.79308 0.0
C2354 C 0.97758 0.10349 0.76249 0.0
C2355 C 0.97407 0.07207 0.78055 0.0
C2356 C 0.9913 0.11021 0.77697 0.0
C2357 C 0.98767 0.07892 0.79504 0.0
C2358 C 0.96898 0.08434 0.76436 0.0
C2359 C 1.00628 0.07489 0.82571 0.0
N2360 N 1.00958 0.10516 0.80667 0.0
C2361 C 1.01419 0.09412 0.82325 0.0
C2362 C 0.99306 0.06718 0.81147 0.0
Tb2363 Tb 0.02093 0.13687 0.80076 0.0
N2364 N 1.00033 0.12841 0.77531 0.0
C2365 C 0.99581 0.14103 0.76002 0.0
C2366 C 0.97301 0.11621 0.74653 0.0
C2367 C 0.98212 0.13508 0.74533 0.0
H2368 H 0.02392 0.10012 0.83472 0.0
H2369 H 0.97858 0.14502 0.7331 0.0
H2370 H 0.95842 0.07886 0.75333 0.0
H2371 H 1.01025 0.0661 0.83868 0.0
H2372 H 1.00285 0.15558 0.75916 0.0
H2373 H 0.12519 0.15727 0.81261 0.0
H2374 H 0.96246 0.11164 0.7351 0.0
H2375 H 0.03767 0.17121 0.72936 0.0
H2376 H 0.09421 0.14101 0.80542 0.0
H2377 H 0.0475 0.20062 0.70966 0.0
H2378 H 0.96738 0.05732 0.78175 0.0
H2379 H 0.13674 0.18587 0.79262 0.0
H2380 H 0.13036 0.21019 0.7657 0.0
H2381 H 0.98693 0.05228 0.81343 0.0
H2382 H 0.10902 0.22257 0.73873 0.0
N2383 N 0.08728 0.15805 0.7787 0.0
C2384 C 0.09864 0.15236 0.79499 0.0
C2385 C 0.12296 0.17824 0.78856 0.0
C2386 C 0.11114 0.18498 0.77281 0.0
C2387 C 0.11654 0.16206 0.79981 0.0
C2388 C 0.09313 0.17465 0.7681 0.0
H2389 H 0.07839 0.21922 0.71798 0.0
N2390 N 0.06305 0.17268 0.74887 0.0
C2391 C 0.05693 0.19562 0.72181 0.0
C2392 C 0.08072 0.18215 0.75301 0.0
C2393 C 0.05154 0.17882 0.73294 0.0
C2394 C 0.07435 0.20607 0.72658 0.0
C2395 C 0.08655 0.19935 0.74213 0.0
O2396 O 0.04802 0.13744 0.73731 0.0
O2397 O 0.03186 0.12248 0.77354 0.0
O2398 O 0.04547 0.11658 0.81043 0.0
O2399 O 0.0714 0.12434 0.78805 0.0
O2400 O 0.05743 0.11038 0.76434 0.0
O2401 O 0.07982 0.13836 0.74769 0.0
O2402 O 1.01152 0.13712 0.83025 0.0
O2403 O 0.04516 0.15581 0.79411 0.0
O2404 O 0.04132 0.17561 0.76978 0.0
O2405 O 1.01726 0.17153 0.79356 0.0
O2406 O 0.04422 0.14381 0.82206 0.0
O2407 O 0.99309 0.15011 0.80691 0.0
C2408 C 0.0397 0.10456 0.76965 0.0
C2409 C 0.07549 0.13013 0.71348 0.0
C2410 C 0.10526 0.12075 0.69503 0.0
C2411 C 0.09494 0.12237 0.71298 0.0
C2412 C 0.09572 0.12622 0.67719 0.0
C2413 C 0.06587 0.1352 0.69562 0.0
C2414 C 0.07598 0.13312 0.67749 0.0
C2415 C 0.06409 0.11457 0.80359 0.0
C2416 C 0.06723 0.13583 0.73284 0.0
C2417 C 0.10445 0.20929 0.74685 0.0
C2418 C 0.11666 0.20217 0.76213 0.0
C2419 C 0.05326 0.15702 0.81126 0.0
C2420 C 0.97769 0.1409 0.83751 0.0
C2421 C 0.97154 0.1555 0.85069 0.0
C2422 C 0.9603 0.15039 0.86736 0.0
C2423 C 0.95287 0.1308 0.86941 0.0
C2424 C 0.97055 0.12124 0.83942 0.0
C2425 C 0.95772 0.11635 0.85517 0.0
C2426 C 0.02696 0.1844 0.78099 0.0
C2427 C 0.99507 0.14633 0.82584 0.0
H2428 H 0.10255 0.11846 0.72674 0.0
H2429 H 0.10346 0.12501 0.66308 0.0
H2430 H 0.05099 0.14151 0.69574 0.0
H2431 H 0.06868 0.13732 0.6637 0.0
H2432 H 0.97731 0.17065 0.84908 0.0
H2433 H 0.94414 0.12653 0.88233 0.0
H2434 H 0.97537 0.10968 0.82935 0.0
H2435 H 0.95239 0.10114 0.85692 0.0
Tb2436 Tb 0.89375 0.30748 0.52071 0.0
C2437 C 0.8502 0.24324 0.49372 0.0
C2438 C 0.8547 0.22478 0.52457 0.0
C2439 C 0.8262 0.21745 0.503 0.0
C2440 C 0.86113 0.23949 0.51098 0.0
C2441 C 0.83259 0.23227 0.48958 0.0
C2442 C 0.8372 0.21372 0.52045 0.0
C2443 C 0.8298 0.25032 0.45846 0.0
N2444 N 0.85719 0.25715 0.48073 0.0
C2445 C 0.84763 0.26041 0.46295 0.0
C2446 C 0.82219 0.23624 0.47186 0.0
Tb2447 Tb 0.88776 0.26988 0.4888 0.0
N2448 N 0.8781 0.25026 0.5144 0.0
C2449 C 0.88959 0.24702 0.53088 0.0
C2450 C 0.8661 0.22162 0.54183 0.0
C2451 C 0.88359 0.23281 0.54502 0.0
H2452 H 0.85391 0.27046 0.45196 0.0
H2453 H 0.89258 0.2303 0.55822 0.0
H2454 H 0.83201 0.20229 0.53069 0.0
H2455 H 0.82219 0.25309 0.44447 0.0
H2456 H 0.90334 0.25536 0.53299 0.0
H2457 H 0.90954 0.37698 0.47885 0.0
H2458 H 0.86161 0.21049 0.55271 0.0
H2459 H 0.91886 0.28605 0.55873 0.0
H2460 H 0.8905 0.34749 0.48568 0.0
H2461 H 0.94818 0.29423 0.57947 0.0
H2462 H 0.81275 0.20881 0.50004 0.0
H2463 H 0.93856 0.38623 0.49908 0.0
H2464 H 0.96197 0.37825 0.52634 0.0
H2465 H 0.80855 0.2282 0.46819 0.0
H2466 H 0.97292 0.35578 0.55297 0.0
N2467 N 0.90826 0.33781 0.5111 0.0
C2468 C 0.90272 0.35035 0.49568 0.0
C2469 C 0.93019 0.37278 0.50269 0.0
C2470 C 0.93618 0.36025 0.51814 0.0
C2471 C 0.91363 0.36767 0.49133 0.0
C2472 C 0.92505 0.34255 0.52206 0.0
H2473 H 0.96798 0.32472 0.57268 0.0
N2474 N 0.92166 0.31201 0.54025 0.0
C2475 C 0.94375 0.30421 0.56757 0.0
C2476 C 0.93176 0.32948 0.53695 0.0
C2477 C 0.92701 0.29977 0.55588 0.0
C2478 C 0.95488 0.32142 0.56367 0.0
C2479 C 0.94893 0.33434 0.54839 0.0
O2480 O 0.88551 0.29779 0.55006 0.0
O2481 O 0.87172 0.28201 0.51513 0.0
O2482 O 0.86792 0.29362 0.47626 0.0
O2483 O 0.87537 0.32072 0.4973 0.0
O2484 O 0.86019 0.30921 0.52074 0.0
O2485 O 0.88755 0.32972 0.5404 0.0
O2486 O 0.89112 0.25919 0.46001 0.0
O2487 O 0.90617 0.29423 0.49522 0.0
O2488 O 0.92616 0.29267 0.51811 0.0
O2489 O 0.92218 0.26616 0.49718 0.0
O2490 O 0.89608 0.29193 0.46665 0.0
O2491 O 0.90126 0.24168 0.48538 0.0
C2492 C 0.85399 0.29111 0.51724 0.0
C2493 C 0.87609 0.325 0.57339 0.0
C2494 C 0.8618 0.35385 0.59008 0.0
C2495 C 0.86582 0.3432 0.57265 0.0
C2496 C 0.86724 0.34549 0.60856 0.0
C2497 C 0.88137 0.31676 0.59183 0.0
C2498 C 0.87678 0.32695 0.60939 0.0
C2499 C 0.86611 0.31277 0.4816 0.0
C2500 C 0.88405 0.31691 0.55483 0.0
C2501 C 0.95966 0.35195 0.54443 0.0
C2502 C 0.95336 0.36479 0.52932 0.0
C2503 C 0.90842 0.30163 0.47793 0.0
C2504 C 0.89507 0.22533 0.4545 0.0
C2505 C 0.90816 0.22187 0.43897 0.0
C2506 C 0.90254 0.20952 0.42338 0.0
C2507 C 0.88412 0.1994 0.42376 0.0
C2508 C 0.87673 0.21508 0.45542 0.0
C2509 C 0.87138 0.20189 0.44009 0.0
C2510 C 0.93512 0.27711 0.5086 0.0
C2511 C 0.89972 0.24293 0.46607 0.0
H2512 H 0.86158 0.34949 0.55835 0.0
H2513 H 0.86461 0.35349 0.62232 0.0
H2514 H 0.88971 0.30295 0.5926 0.0
H2515 H 0.88119 0.32078 0.62365 0.0
H2516 H 0.92215 0.23025 0.43806 0.0
H2517 H 0.8796 0.18989 0.41146 0.0
H2518 H 0.8664 0.21769 0.46743 0.0
H2519 H 0.8571 0.19419 0.4405 0.0
Tb2520 Tb 0.51543 0.90129 0.80702 0.0
C2521 C 0.57002 0.85462 0.7572 0.0
C2522 C 0.60013 0.84606 0.77584 0.0
C2523 C 0.58724 0.82345 0.75047 0.0
C2524 C 0.58422 0.85937 0.77202 0.0
C2525 C 0.57159 0.8367 0.74631 0.0
C2526 C 0.60138 0.82807 0.7652 0.0
C2527 C 0.54181 0.84598 0.72788 0.0
N2528 N 0.55392 0.86696 0.75432 0.0
C2529 C 0.54045 0.86342 0.73922 0.0
C2530 C 0.55724 0.83248 0.73161 0.0
Tb2531 Tb 0.5545 0.89468 0.77414 0.0
N2532 N 0.58257 0.87681 0.78255 0.0
C2533 C 0.59732 0.88222 0.79586 0.0
C2534 C 0.61447 0.85116 0.79021 0.0
C2535 C 0.6132 0.86942 0.80001 0.0
H2536 H 0.52846 0.87384 0.73644 0.0
H2537 H 0.62445 0.87364 0.81089 0.0
H2538 H 0.61338 0.81765 0.76815 0.0
H2539 H 0.53091 0.8429 0.71631 0.0
H2540 H 0.59716 0.89621 0.80372 0.0
H2541 H 0.48329 0.89048 0.73425 0.0
H2542 H 0.62676 0.84124 0.79363 0.0
H2543 H 0.51489 0.93949 0.83939 0.0
H2544 H 0.50372 0.88105 0.76362 0.0
H2545 H 0.49843 0.97218 0.84148 0.0
H2546 H 0.58854 0.80952 0.74236 0.0
H2547 H 0.46597 0.92308 0.73359 0.0
H2548 H 0.45824 0.95563 0.7507 0.0
H2549 H 0.55804 0.81887 0.72292 0.0
H2550 H 0.46246 0.97778 0.77971 0.0
N2551 N 0.49805 0.90808 0.77898 0.0
C2552 C 0.49624 0.89527 0.76334 0.0
C2553 C 0.47491 0.91903 0.74645 0.0
C2554 C 0.47682 0.93204 0.7627 0.0
C2555 C 0.48469 0.9006 0.74676 0.0
C2556 C 0.48865 0.92607 0.77899 0.0
H2557 H 0.47736 0.9841 0.81358 0.0
N2558 N 0.50355 0.93292 0.81028 0.0
C2559 C 0.49641 0.96301 0.82834 0.0
C2560 C 0.49138 0.9388 0.7952 0.0
C2561 C 0.50581 0.94449 0.827 0.0
C2562 C 0.48448 0.96964 0.81258 0.0
C2563 C 0.4818 0.95749 0.79577 0.0
O2564 O 0.50395 0.90396 0.83564 0.0
O2565 O 0.54138 0.88504 0.80158 0.0
O2566 O 0.53916 0.86279 0.77793 0.0
O2567 O 0.51242 0.86642 0.79902 0.0
O2568 O 0.53424 0.89068 0.83111 0.0
O2569 O 0.48579 0.89081 0.81165 0.0
O2570 O 0.55639 0.90192 0.74382 0.0
O2571 O 0.53087 0.91689 0.78288 0.0
O2572 O 0.53934 0.92328 0.81631 0.0
O2573 O 0.56698 0.91112 0.79866 0.0
O2574 O 0.54776 0.92592 0.762 0.0
O2575 O 0.58195 0.90587 0.76474 0.0
C2576 C 0.54713 0.88249 0.81952 0.0
C2577 C 0.47232 0.89116 0.84507 0.0
C2578 C 0.4651 0.8743 0.87605 0.0
C2579 C 0.47787 0.87755 0.85991 0.0
C2580 C 0.44686 0.88452 0.87728 0.0
C2581 C 0.45404 0.90123 0.84625 0.0
C2582 C 0.44134 0.8979 0.86235 0.0
C2583 C 0.52398 0.85367 0.78793 0.0
C2584 C 0.48643 0.89754 0.82994 0.0
C2585 C 0.46986 0.96342 0.7796 0.0
C2586 C 0.46743 0.95078 0.76309 0.0
C2587 C 0.53497 0.93413 0.77372 0.0
C2588 C 0.58981 0.90143 0.73092 0.0
C2589 C 0.60617 0.91419 0.7281 0.0
C2590 C 0.62079 0.90978 0.71395 0.0
C2591 C 0.61901 0.89216 0.70265 0.0
C2592 C 0.58789 0.88412 0.71927 0.0
C2593 C 0.6026 0.87941 0.70534 0.0
C2594 C 0.55881 0.92367 0.81146 0.0
C2595 C 0.5754 0.9071 0.74621 0.0
H2596 H 0.49214 0.86998 0.85917 0.0
H2597 H 0.43689 0.88206 0.88977 0.0
H2598 H 0.44992 0.91215 0.83504 0.0
H2599 H 0.42734 0.90587 0.86338 0.0
H2600 H 0.6073 0.92784 0.73676 0.0
H2601 H 0.63027 0.88828 0.69177 0.0
H2602 H 0.57513 0.87433 0.72071 0.0
H2603 H 0.60121 0.86594 0.69652 0.0
Tb2604 Tb 0.98649 0.14771 0.27103 0.0
C2605 C 0.02448 0.10242 0.33425 0.0
C2606 C 1.0037 0.10462 0.36372 0.0
C2607 C 0.02217 0.07427 0.35712 0.0
C2608 C 1.01123 0.11325 0.34598 0.0
C2609 C 0.03128 0.08355 0.34072 0.0
C2610 C 1.00812 0.08467 0.36842 0.0
C2611 C 0.05745 0.08552 0.31599 0.0
N2612 N 0.03266 0.11142 0.31797 0.0
C2613 C 0.04975 0.10378 0.30953 0.0
C2614 C 0.04792 0.07514 0.33135 0.0
Tb2615 Tb 1.01947 0.14206 0.31016 0.0
N2616 N 1.00826 0.133 0.3417 0.0
C2617 C 1.00164 0.14533 0.35669 0.0
C2618 C 0.99357 0.11675 0.3772 0.0
C2619 C 0.99337 0.13732 0.3741 0.0
H2620 H 0.05691 0.11144 0.29725 0.0
H2621 H 0.98726 0.14705 0.38537 0.0
H2622 H 1.00206 0.07773 0.38172 0.0
H2623 H 0.07056 0.07934 0.30892 0.0
H2624 H 1.00235 0.16143 0.35539 0.0
H2625 H 0.05567 0.13213 0.23336 0.0
H2626 H 0.98749 0.11066 0.39089 0.0
H2627 H 0.95718 0.18864 0.27218 0.0
H2628 H 0.02822 0.12523 0.25684 0.0
H2629 H 0.95677 0.22155 0.25615 0.0
H2630 H 0.02669 0.05948 0.36186 0.0
H2631 H 0.05656 0.164 0.21462 0.0
H2632 H 0.04108 0.19739 0.20746 0.0
H2633 H 0.05383 0.0609 0.33621 0.0
H2634 H 1.01452 0.22177 0.214 0.0
N2635 N 1.01346 0.15268 0.25121 0.0
C2636 C 0.02828 0.13906 0.24866 0.0
C2637 C 0.04441 0.16102 0.22488 0.0
C2638 C 0.02935 0.17511 0.22789 0.0
C2639 C 0.04395 0.143 0.23542 0.0
C2640 C 1.0139 0.1705 0.24141 0.0
H2641 H 0.98327 0.23103 0.23227 0.0
N2642 N 0.98467 0.17959 0.25871 0.0
C2643 C 0.96887 0.21134 0.2531 0.0
C2644 C 0.99905 0.18436 0.24526 0.0
C2645 C 0.96951 0.19272 0.26257 0.0
C2646 C 0.98378 0.21657 0.23956 0.0
C2647 C 0.99907 0.20303 0.23543 0.0
O2648 O 0.95609 0.14781 0.26471 0.0
O2649 O 0.99374 0.13053 0.29649 0.0
O2650 O 1.0153 0.11009 0.29399 0.0
O2651 O 0.99415 0.11336 0.26721 0.0
O2652 O 0.96405 0.13699 0.29224 0.0
O2653 O 0.97689 0.13845 0.24206 0.0
O2654 O 0.04961 0.14835 0.30073 0.0
O2655 O 1.01245 0.16394 0.28524 0.0
O2656 O 0.97618 0.1686 0.29374 0.0
O2657 O 0.99543 0.16039 0.3219 0.0
O2658 O 0.02332 0.1758 0.31042 0.0
O2659 O 0.04055 0.14413 0.33203 0.0
C2660 C 0.97645 0.12813 0.30382 0.0
C2661 C 0.94331 0.14811 0.23227 0.0
C2662 C 0.91218 0.13972 0.21517 0.0
C2663 C 0.93057 0.13391 0.22355 0.0
C2664 C 0.90683 0.16005 0.21562 0.0
C2665 C 0.93829 0.16837 0.23099 0.0
C2666 C 0.92006 0.17428 0.22302 0.0
C2667 C 1.0053 0.10072 0.27866 0.0
C2668 C 0.95814 0.14092 0.24679 0.0
C2669 C 1.01427 0.20754 0.22173 0.0
C2670 C 0.02938 0.19363 0.21799 0.0
C2671 C 1.01705 0.182 0.29309 0.0
C2672 C 0.07209 0.15892 0.3284 0.0
C2673 C 0.0702 0.16758 0.34755 0.0
C2674 C 0.08719 0.17325 0.35851 0.0
C2675 C 0.10619 0.1708 0.35005 0.0
C2676 C 0.09121 0.15659 0.32026 0.0
C2677 C 0.10815 0.1626 0.331 0.0
C2678 C 0.98105 0.1704 0.31277 0.0
C2679 C 0.0552 0.14762 0.31967 0.0
H2680 H 0.93469 0.11829 0.22416 0.0
H2681 H 0.89236 0.16506 0.21043 0.0
H2682 H 0.94796 0.17966 0.2366 0.0
H2683 H 0.91597 0.18991 0.22302 0.0
H2684 H 0.05561 0.16911 0.35439 0.0
H2685 H 0.11954 0.17487 0.35835 0.0
H2686 H 0.0931 0.14919 0.30603 0.0
H2687 H 0.12289 0.16036 0.32479 0.0
Tb2688 Tb 0.51638 0.13867 0.73714 0.0
C2689 C 0.57455 0.18524 0.77998 0.0
C2690 C 0.60298 0.18904 0.75783 0.0
C2691 C 0.59424 0.21601 0.78023 0.0
C2692 C 0.58684 0.17736 0.7652 0.0
C2693 C 0.57869 0.2043 0.78811 0.0
C2694 C 0.60622 0.20848 0.76502 0.0
C2695 C 0.55283 0.19843 0.81252 0.0
N2696 N 0.55879 0.17412 0.78678 0.0
C2697 C 0.54896 0.17983 0.80389 0.0
C2698 C 0.56739 0.21093 0.8043 0.0
Tb2699 Tb 0.55394 0.14403 0.77068 0.0
N2700 N 0.58364 0.1582 0.75873 0.0
C2701 C 0.59742 0.14979 0.74599 0.0
C2702 C 0.61573 0.18084 0.74366 0.0
C2703 C 0.61311 0.16107 0.73797 0.0
H2704 H 0.53707 0.17068 0.80998 0.0
H2705 H 0.62334 0.15437 0.72747 0.0
H2706 H 0.61838 0.21761 0.75931 0.0
H2707 H 0.54436 0.20325 0.82535 0.0
H2708 H 0.59711 0.13441 0.74148 0.0
H2709 H 0.47721 0.15524 0.80563 0.0
H2710 H 0.62803 0.18944 0.73747 0.0
H2711 H 0.51859 0.09608 0.71001 0.0
H2712 H 0.50326 0.16034 0.78044 0.0
H2713 H 0.49918 0.06521 0.70747 0.0
H2714 H 0.59738 0.2308 0.78608 0.0
H2715 H 0.4541 0.12633 0.80311 0.0
H2716 H 0.4437 0.09498 0.78525 0.0
H2717 H 0.57019 0.22545 0.81092 0.0
H2718 H 0.44948 0.07073 0.7584 0.0
N2719 N 0.49462 0.13517 0.763 0.0
C2720 C 0.4931 0.14798 0.77871 0.0
C2721 C 0.46544 0.1286 0.79181 0.0
C2722 C 0.4676 0.11504 0.77613 0.0
C2723 C 0.47843 0.14497 0.79325 0.0
C2724 C 0.4827 0.11861 0.76193 0.0
H2725 H 0.47039 0.05925 0.72974 0.0
N2726 N 0.50199 0.10766 0.73473 0.0
C2727 C 0.49542 0.07611 0.71874 0.0
C2728 C 0.4863 0.1046 0.74713 0.0
C2729 C 0.50667 0.09367 0.72057 0.0
C2730 C 0.47907 0.07291 0.73119 0.0
C2731 C 0.47437 0.08716 0.74566 0.0
O2732 O 0.51475 0.1331 0.70652 0.0
O2733 O 0.54601 0.14897 0.74089 0.0
O2734 O 0.53747 0.17503 0.76811 0.0
O2735 O 0.51147 0.1723 0.74587 0.0
O2736 O 0.52939 0.1652 0.72241 0.0
O2737 O 0.48911 0.14567 0.72272 0.0
O2738 O 0.54608 0.13684 0.80063 0.0
O2739 O 0.52834 0.12249 0.76399 0.0
O2740 O 0.54033 0.11819 0.72685 0.0
O2741 O 0.56676 0.12401 0.74904 0.0
O2742 O 0.55357 0.11075 0.77483 0.0
O2743 O 0.5775 0.13821 0.78908 0.0
C2744 C 0.54707 0.16412 0.72982 0.0
C2745 C 0.48479 0.13792 0.68765 0.0
C2746 C 0.47361 0.15281 0.65678 0.0
C2747 C 0.48232 0.15475 0.67559 0.0
C2748 C 0.46684 0.13404 0.6502 0.0
C2749 C 0.47803 0.11915 0.68115 0.0
C2750 C 0.46891 0.11728 0.66247 0.0
C2751 C 0.52297 0.18438 0.75761 0.0
C2752 C 0.49667 0.14014 0.70566 0.0
C2753 C 0.45874 0.08406 0.75924 0.0
C2754 C 0.45547 0.09788 0.77453 0.0
C2755 C 0.53622 0.10441 0.76864 0.0
C2756 C 0.57434 0.12846 0.823 0.0
C2757 C 0.59326 0.11975 0.82229 0.0
C2758 C 0.60335 0.11477 0.83972 0.0
C2759 C 0.59418 0.11797 0.85823 0.0
C2760 C 0.56516 0.1318 0.84143 0.0
C2761 C 0.57509 0.12647 0.85904 0.0
C2762 C 0.55865 0.11442 0.73371 0.0
C2763 C 0.56545 0.1351 0.80428 0.0
H2764 H 0.48783 0.16923 0.68051 0.0
H2765 H 0.45989 0.13242 0.63567 0.0
H2766 H 0.48003 0.10601 0.6903 0.0
H2767 H 0.46368 0.10281 0.65738 0.0
H2768 H 0.60042 0.11698 0.80806 0.0
H2769 H 0.60189 0.11426 0.87196 0.0
H2770 H 0.55061 0.1388 0.8422 0.0
H2771 H 0.56813 0.12919 0.87332 0.0
Tb2772 Tb 0.14963 0.26852 0.98638 0.0
C2773 C 0.10059 0.32181 0.02596 0.0
C2774 C 0.10211 0.3527 1.00723 0.0
C2775 C 0.07036 0.34115 1.02054 0.0
C2776 C 0.11153 0.33528 1.01455 0.0
C2777 C 0.08029 0.32554 0.03031 0.0
C2778 C 0.08129 0.35474 1.00893 0.0
C2779 C 0.08272 0.30222 0.05766 0.0
N2780 N 0.1107 0.30711 0.03557 0.0
C2781 C 0.10277 0.29906 0.05283 0.0
C2782 C 0.07116 0.31481 0.04577 0.0
Tb2783 Tb 0.1427 0.30159 0.02377 0.0
N2784 N 0.13182 0.33314 1.01381 0.0
C2785 C 0.14334 0.34982 1.00998 0.0
C2786 C 0.11404 0.36839 1.0002 0.0
C2787 C 0.13475 0.36727 1.00237 0.0
H2788 H 0.11141 0.2887 0.06169 0.0
H2789 H 0.1441 0.37994 0.99846 0.0
H2790 H 0.07377 0.36767 1.00279 0.0
H2791 H 0.07613 0.29473 0.07039 0.0
H2792 H 0.15917 0.35 1.01286 0.0
H2793 H 0.1427 0.22207 0.05155 0.0
H2794 H 0.10741 0.38201 0.99454 0.0
H2795 H 0.18431 0.27198 0.95077 0.0
H2796 H 0.13117 0.24682 0.02666 0.0
H2797 H 0.2179 0.25822 0.94474 0.0
H2798 H 0.05462 0.34383 0.02318 0.0
H2799 H 0.17632 0.20708 0.04837 0.0
H2800 H 0.20859 0.20442 0.02925 0.0
H2801 H 0.05563 0.31727 0.04958 0.0
H2802 H 0.22909 0.21446 1.00044 0.0
N2803 N 0.15805 0.24589 1.00997 0.0
C2804 C 0.14581 0.24035 0.02524 0.0
C2805 C 0.17132 0.21789 0.03743 0.0
C2806 C 0.18358 0.22336 0.02141 0.0
C2807 C 0.15232 0.22634 0.03929 0.0
C2808 C 0.17636 0.23748 1.00764 0.0
H2809 H 0.23273 0.23453 0.96889 0.0
N2810 N 0.18056 0.25693 0.97856 0.0
C2811 C 0.20974 0.25401 0.95802 0.0
C2812 C 0.18801 0.24326 0.99148 0.0
C2813 C 0.19076 0.26187 0.96157 0.0
C2814 C 0.21802 0.24061 0.97167 0.0
C2815 C 0.20705 0.23488 0.98852 0.0
O2816 O 0.14682 0.26327 0.95589 0.0
O2817 O 0.13139 0.29266 0.99529 0.0
O2818 O 0.11377 0.28104 0.02223 0.0
O2819 O 0.11497 0.26547 0.99237 0.0
O2820 O 0.14354 0.29358 0.96704 0.0
O2821 O 0.13689 0.241 0.9772 0.0
O2822 O 0.15 0.29158 0.05318 0.0
O2823 O 0.16489 0.27783 1.01471 0.0
O2824 O 0.17186 0.29212 0.98006 0.0
O2825 O 0.1624 0.31699 1.00275 0.0
O2826 O 0.17656 0.30167 0.02819 0.0
O2827 O 0.14166 0.32231 0.04608 0.0
C2828 C 0.1318 0.30273 0.97914 0.0
C2829 C 0.14292 0.23093 0.94357 0.0
C2830 C 0.1333 0.21589 0.91195 0.0
C2831 C 0.1288 0.22784 0.92844 0.0
C2832 C 0.15224 0.20686 0.91094 0.0
C2833 C 0.16161 0.2217 0.94259 0.0
C2834 C 0.16623 0.20968 0.92625 0.0
C2835 C 0.10336 0.2714 1.00774 0.0
C2836 C 0.13824 0.24601 0.95844 0.0
C2837 C 0.21442 0.22096 1.00235 0.0
C2838 C 0.20272 0.21522 1.01875 0.0
C2839 C 0.18297 0.28506 1.02039 0.0
C2840 C 0.16133 0.31904 0.07455 0.0
C2841 C 0.16743 0.33916 0.07216 0.0
C2842 C 0.17525 0.35013 0.08821 0.0
C2843 C 0.1782 0.34028 0.10654 0.0
C2844 C 0.16427 0.30962 0.09296 0.0
C2845 C 0.1729 0.32016 0.10879 0.0
C2846 C 0.17357 0.31033 0.98786 0.0
C2847 C 0.14764 0.30995 0.05984 0.0
H2848 H 0.11432 0.23499 0.92946 0.0
H2849 H 0.15632 0.19779 0.89824 0.0
H2850 H 0.17267 0.224 0.95416 0.0
H2851 H 0.18077 0.20273 0.92531 0.0
H2852 H 0.16462 0.34685 0.05822 0.0
H2853 H 0.1845 0.34814 0.11921 0.0
H2854 H 0.15908 0.29443 0.09534 0.0
H2855 H 0.1749 0.31288 0.12307 0.0
Tb2856 Tb 0.40204 0.73865 0.52345 0.0
C2857 C 0.35635 0.78133 0.46385 0.0
C2858 C 0.35115 0.75833 0.4362 0.0
C2859 C 0.32664 0.784 0.44289 0.0
C2860 C 0.36297 0.76514 0.45242 0.0
C2861 C 0.33863 0.79141 0.45842 0.0
C2862 C 0.33276 0.76738 0.43198 0.0
C2863 C 0.34614 0.81629 0.48348 0.0
N2864 N 0.36751 0.78767 0.47979 0.0
C2865 C 0.3631 0.8055 0.48899 0.0
C2866 C 0.33369 0.80906 0.46838 0.0
Tb2867 Tb 0.3968 0.77041 0.48417 0.0
N2868 N 0.38121 0.75679 0.45642 0.0
C2869 C 0.38848 0.74225 0.44389 0.0
C2870 C 0.35834 0.74299 0.42415 0.0
C2871 C 0.3772 0.73524 0.42781 0.0
H2872 H 0.37242 0.81106 0.501 0.0
H2873 H 0.38324 0.72387 0.41815 0.0
H2874 H 0.32347 0.7621 0.41978 0.0
H2875 H 0.34254 0.83006 0.49106 0.0
H2876 H 0.40286 0.73542 0.44565 0.0
H2877 H 0.38463 0.8096 0.55796 0.0
H2878 H 0.34968 0.73741 0.41164 0.0
H2879 H 0.44449 0.71171 0.52487 0.0
H2880 H 0.38172 0.78386 0.53203 0.0
H2881 H 0.47171 0.707 0.54883 0.0
H2882 H 0.31277 0.7913 0.43889 0.0
H2883 H 0.41025 0.80648 0.58448 0.0
H2884 H 0.43931 0.78755 0.59891 0.0
H2885 H 0.32038 0.81732 0.46437 0.0
H2886 H 0.46276 0.75944 0.5966 0.0
N2887 N 0.40465 0.76559 0.54415 0.0
C2888 C 0.39257 0.78193 0.54367 0.0
C2889 C 0.40892 0.795 0.57317 0.0
C2890 C 0.42197 0.77876 0.57294 0.0
C2891 C 0.3944 0.79677 0.55826 0.0
C2892 C 0.41966 0.76435 0.55782 0.0
H2893 H 0.47482 0.72918 0.57815 0.0
N2894 N 0.43167 0.73657 0.54031 0.0
C2895 C 0.46107 0.71891 0.55106 0.0
C2896 C 0.43336 0.74904 0.5561 0.0
C2897 C 0.44557 0.72185 0.53734 0.0
C2898 C 0.46268 0.73137 0.56765 0.0
C2899 C 0.44903 0.74697 0.57008 0.0
O2900 O 0.40806 0.70785 0.5244 0.0
O2901 O 0.39214 0.74059 0.49358 0.0
O2902 O 0.3656 0.76907 0.50105 0.0
O2903 O 0.36841 0.74802 0.52817 0.0
O2904 O 0.3749 0.72419 0.51197 0.0
O2905 O 0.39602 0.72394 0.55046 0.0
O2906 O 0.4041 0.80077 0.48576 0.0
O2907 O 0.41816 0.76392 0.50952 0.0
O2908 O 0.42377 0.72843 0.50034 0.0
O2909 O 0.41709 0.74848 0.47246 0.0
O2910 O 0.42935 0.77895 0.48734 0.0
O2911 O 0.40374 0.78386 0.45689 0.0
C2912 C 0.3766 0.72987 0.49373 0.0
C2913 C 0.40319 0.68906 0.55454 0.0
C2914 C 0.38484 0.66177 0.56881 0.0
C2915 C 0.38505 0.67968 0.55839 0.0
C2916 C 0.40268 0.65324 0.5757 0.0
C2917 C 0.42121 0.6805 0.56097 0.0
C2918 C 0.42091 0.66264 0.57172 0.0
C2919 C 0.35625 0.75923 0.51623 0.0
C2920 C 0.40298 0.70731 0.54312 0.0
C2921 C 0.45081 0.76074 0.58573 0.0
C2922 C 0.43743 0.77672 0.58705 0.0
C2923 C 0.43618 0.77051 0.5033 0.0
C2924 C 0.41145 0.81933 0.45548 0.0
C2925 C 0.42174 0.81805 0.43738 0.0
C2926 C 0.42599 0.83535 0.4264 0.0
C2927 C 0.4196 0.85399 0.43361 0.0
C2928 C 0.40523 0.83797 0.46259 0.0
C2929 C 0.40925 0.85524 0.45161 0.0
C2930 C 0.42718 0.73417 0.48157 0.0
C2931 C 0.406 0.8011 0.46615 0.0
H2932 H 0.37117 0.68607 0.55295 0.0
H2933 H 0.40249 0.63914 0.58367 0.0
H2934 H 0.43542 0.68748 0.55772 0.0
H2935 H 0.43475 0.65599 0.57673 0.0
H2936 H 0.42664 0.80364 0.43194 0.0
H2937 H 0.42244 0.86756 0.42523 0.0
H2938 H 0.39691 0.83911 0.47638 0.0
H2939 H 0.40424 0.86959 0.45699 0.0
Tb2940 Tb 0.80188 0.51922 0.89739 0.0
C2941 C 0.75874 0.58271 0.85288 0.0
C2942 C 0.77756 0.6138 0.85277 0.0
C2943 C 0.75303 0.6075 0.82685 0.0
C2944 C 0.7729 0.59521 0.86194 0.0
C2945 C 0.74837 0.58905 0.8356 0.0
C2946 C 0.76766 0.61975 0.83532 0.0
C2947 C 0.72826 0.55903 0.83724 0.0
N2948 N 0.75451 0.56468 0.86136 0.0
C2949 C 0.73895 0.55315 0.85413 0.0
C2950 C 0.73318 0.5769 0.82777 0.0
Tb2951 Tb 0.77165 0.55742 0.89024 0.0
N2952 N 0.78227 0.58922 0.87922 0.0
C2953 C 0.79729 0.60139 0.88683 0.0
C2954 C 0.79237 0.6259 0.861 0.0
C2955 C 0.80244 0.61949 0.87779 0.0
H2956 H 0.73524 0.53905 0.86113 0.0
H2957 H 0.81458 0.62847 0.88349 0.0
H2958 H 0.77118 0.63393 0.82827 0.0
H2959 H 0.71635 0.54965 0.83143 0.0
H2960 H 0.80656 0.59777 0.89936 0.0
H2961 H 0.73097 0.48093 0.89762 0.0
H2962 H 0.79658 0.64 0.85417 0.0
H2963 H 0.84113 0.5187 0.92824 0.0
H2964 H 0.75697 0.50384 0.88391 0.0
H2965 H 0.84913 0.50387 0.96099 0.0
H2966 H 0.74531 0.61249 0.81353 0.0
H2967 H 0.73643 0.46441 0.93024 0.0
H2968 H 0.75882 0.45868 0.95997 0.0
H2969 H 0.72492 0.58136 0.81459 0.0
H2970 H 0.79041 0.46576 0.97763 0.0
N2971 N 0.77597 0.50086 0.9091 0.0
C2972 C 0.75908 0.49691 0.89834 0.0
C2973 C 0.74768 0.47456 0.92442 0.0
C2974 C 0.76543 0.47823 0.935 0.0
C2975 C 0.74452 0.48391 0.906 0.0
C2976 C 0.77948 0.49167 0.92687 0.0
H2977 H 0.82404 0.48281 0.9783 0.0
N2978 N 0.81115 0.50759 0.92788 0.0
C2979 C 0.83448 0.50154 0.95443 0.0
C2980 C 0.79745 0.49549 0.93675 0.0
C2981 C 0.82982 0.51007 0.93599 0.0
C2982 C 0.82028 0.48965 0.96414 0.0
C2983 C 0.80166 0.48612 0.95511 0.0
O2984 O 0.82983 0.50736 0.89179 0.0
O2985 O 0.79783 0.54404 0.87845 0.0
O2986 O 0.77609 0.54337 0.8578 0.0
O2987 O 0.79404 0.51521 0.86282 0.0
O2988 O 0.82565 0.54005 0.89113 0.0
O2989 O 0.80301 0.48973 0.8863 0.0
O2990 O 0.74354 0.54383 0.89745 0.0
O2991 O 0.77573 0.53252 0.91278 0.0
O2992 O 0.81418 0.54247 0.91819 0.0
O2993 O 0.79383 0.56994 0.91053 0.0
O2994 O 0.76985 0.55976 0.92401 0.0
O2995 O 0.74756 0.57592 0.89196 0.0
C2996 C 0.81581 0.55077 0.87848 0.0
C2997 C 0.83383 0.47322 0.8925 0.0
C2998 C 0.86568 0.45694 0.88917 0.0
C2999 C 0.85151 0.47034 0.88225 0.0
C3000 C 0.86186 0.44583 0.90655 0.0
C3001 C 0.82961 0.46202 0.90966 0.0
C3002 C 0.84368 0.44823 0.91663 0.0
C3003 C 0.78443 0.52698 0.84925 0.0
C3004 C 0.82248 0.49034 0.88595 0.0
C3005 C 0.78748 0.47305 0.9635 0.0
C3006 C 0.7695 0.46898 0.9534 0.0
C3007 C 0.7729 0.54156 0.93056 0.0
C3008 C 0.72154 0.56799 0.91331 0.0
C3009 C 0.72544 0.58631 0.92297 0.0
C3010 C 0.70967 0.59829 0.92915 0.0
C3011 C 0.69011 0.5905 0.92894 0.0
C3012 C 0.70206 0.56012 0.91351 0.0
C3013 C 0.68648 0.57116 0.92184 0.0
C3014 C 0.8091 0.56166 0.92021 0.0
C3015 C 0.7353 0.5617 0.89752 0.0
H3016 H 0.85482 0.47962 0.86933 0.0
H3017 H 0.87281 0.43539 0.91223 0.0
H3018 H 0.81587 0.46419 0.9178 0.0
H3019 H 0.84068 0.4397 0.93002 0.0
H3020 H 0.74038 0.59276 0.92278 0.0
H3021 H 0.67766 0.59961 0.93366 0.0
H3022 H 0.69864 0.54625 0.90587 0.0
H3023 H 0.67134 0.56533 0.92142 0.0
Tb3024 Tb 0.76981 0.54889 0.14667 0.0
C3025 C 0.70598 0.51142 0.10229 0.0
C3026 C 0.67496 0.52953 0.10518 0.0
C3027 C 0.68361 0.51377 0.07379 0.0
C3028 C 0.69338 0.52342 0.11345 0.0
C3029 C 0.70071 0.50564 0.08276 0.0
C3030 C 0.67074 0.52573 0.085 0.0
C3031 C 0.72754 0.4816 0.08369 0.0
N3032 N 0.72256 0.50391 0.11128 0.0
C3033 C 0.73222 0.48778 0.10305 0.0
C3034 C 0.71214 0.49102 0.07326 0.0
Tb3035 Tb 0.73002 0.51778 0.14176 0.0
N3036 N 0.6978 0.5266 0.1331 0.0
C3037 C 0.68275 0.53198 0.14583 0.0
C3038 C 0.66058 0.53758 0.11782 0.0
C3039 C 0.6641 0.53778 0.13831 0.0
H3040 H 0.74466 0.48095 0.11076 0.0
H3041 H 0.65218 0.5418 0.14828 0.0
H3042 H 0.65691 0.53082 0.0783 0.0
H3043 H 0.73594 0.46972 0.07677 0.0
H3044 H 0.6849 0.53172 0.16181 0.0
H3045 H 0.80729 0.47836 0.14948 0.0
H3046 H 0.64609 0.54208 0.11214 0.0
H3047 H 0.77073 0.58941 0.17563 0.0
H3048 H 0.78321 0.50307 0.13585 0.0
H3049 H 0.7888 0.60016 0.20595 0.0
H3050 H 0.67959 0.50994 0.0586 0.0
H3051 H 0.8271 0.48659 0.17969 0.0
H3052 H 0.83599 0.51148 0.20657 0.0
H3053 H 0.70855 0.48619 0.05824 0.0
H3054 H 0.83082 0.54443 0.22194 0.0
N3055 N 0.78891 0.52412 0.15879 0.0
C3056 C 0.79158 0.50639 0.14928 0.0
C3057 C 0.81642 0.49727 0.17395 0.0
C3058 C 0.81386 0.5158 0.18328 0.0
C3059 C 0.80523 0.49254 0.15689 0.0
C3060 C 0.79972 0.52907 0.17527 0.0
H3061 H 0.81288 0.57736 0.22219 0.0
N3062 N 0.78301 0.56007 0.17585 0.0
C3063 C 0.791 0.58527 0.20009 0.0
C3064 C 0.79664 0.54762 0.18409 0.0
C3065 C 0.78057 0.57901 0.18309 0.0
C3066 C 0.80464 0.57239 0.20915 0.0
C3067 C 0.80786 0.55343 0.20098 0.0
O3068 O 0.77967 0.57727 0.13871 0.0
O3069 O 0.74452 0.54249 0.12953 0.0
O3070 O 0.74396 0.52328 0.10911 0.0
O3071 O 0.77442 0.5377 0.11332 0.0
O3072 O 0.74945 0.57205 0.13659 0.0
O3073 O 0.79907 0.55166 0.13516 0.0
O3074 O 0.74197 0.4886 0.14801 0.0
O3075 O 0.7553 0.52357 0.16387 0.0
O3076 O 0.74735 0.56148 0.16748 0.0
O3077 O 0.71827 0.54329 0.15871 0.0
O3078 O 0.72794 0.51736 0.1752 0.0
O3079 O 0.70983 0.49504 0.14486 0.0
C3080 C 0.73768 0.55996 0.12724 0.0
C3081 C 0.81358 0.58407 0.13957 0.0
C3082 C 0.82887 0.61657 0.13555 0.0
C3083 C 0.81469 0.60243 0.12986 0.0
C3084 C 0.84216 0.61246 0.15121 0.0
C3085 C 0.82689 0.57971 0.15516 0.0
C3086 C 0.84106 0.59404 0.16108 0.0
C3087 C 0.76119 0.52957 0.1001 0.0
C3088 C 0.79723 0.571 0.13346 0.0
C3089 C 0.82207 0.54026 0.20895 0.0
C3090 C 0.82502 0.52148 0.20018 0.0
C3091 C 0.74599 0.5213 0.18166 0.0
C3092 C 0.7164 0.46355 0.15872 0.0
C3093 C 0.69731 0.46343 0.16783 0.0
C3094 C 0.68722 0.44534 0.1716 0.0
C3095 C 0.69681 0.42726 0.16736 0.0
C3096 C 0.72585 0.44531 0.15501 0.0
C3097 C 0.71616 0.42728 0.1595 0.0
C3098 C 0.72773 0.5578 0.16869 0.0
C3099 C 0.72346 0.48154 0.14801 0.0
H3100 H 0.80445 0.60573 0.11769 0.0
H3101 H 0.85331 0.6234 0.15569 0.0
H3102 H 0.82636 0.56545 0.1627 0.0
H3103 H 0.85125 0.59083 0.17322 0.0
H3104 H 0.68954 0.47735 0.17047 0.0
H3105 H 0.68927 0.41313 0.17005 0.0
H3106 H 0.74018 0.44498 0.14751 0.0
H3107 H 0.72336 0.41326 0.15612 0.0
Tb3108 Tb 0.74139 0.52087 0.39851 0.0
C3109 C 0.77897 0.45844 0.35114 0.0
C3110 C 0.76137 0.4269 0.35453 0.0
C3111 C 0.77692 0.43566 0.323 0.0
C3112 C 0.76762 0.44541 0.36265 0.0
C3113 C 0.78473 0.45313 0.33164 0.0
C3114 C 0.7651 0.42263 0.33438 0.0
C3115 C 0.80745 0.48139 0.33156 0.0
N3116 N 0.78593 0.47551 0.35973 0.0
C3117 C 0.80125 0.48614 0.35084 0.0
C3118 C 0.7988 0.46511 0.32172 0.0
Tb3119 Tb 0.77311 0.48243 0.39083 0.0
N3120 N 0.7649 0.44974 0.38235 0.0
C3121 C 0.75959 0.43453 0.39504 0.0
C3122 C 0.75277 0.41268 0.3672 0.0
C3123 C 0.75252 0.41625 0.38766 0.0
H3124 H 0.80756 0.49915 0.35813 0.0
H3125 H 0.74735 0.40475 0.39781 0.0
H3126 H 0.75996 0.40872 0.32782 0.0
H3127 H 0.81875 0.4904 0.32424 0.0
H3128 H 0.76083 0.43626 0.41089 0.0
H3129 H 0.81104 0.56111 0.39864 0.0
H3130 H 0.74764 0.39837 0.36153 0.0
H3131 H 0.7025 0.51971 0.4295 0.0
H3132 H 0.78566 0.53737 0.38509 0.0
H3133 H 0.69409 0.53438 0.46215 0.0
H3134 H 0.78067 0.43164 0.30782 0.0
H3135 H 0.80513 0.57782 0.43101 0.0
H3136 H 0.78263 0.58308 0.46067 0.0
H3137 H 0.80357 0.46152 0.30673 0.0
H3138 H 0.7513 0.57512 0.47829 0.0
N3139 N 0.76649 0.54032 0.41001 0.0
C3140 C 0.78332 0.54445 0.39937 0.0
C3141 C 0.79414 0.56734 0.42524 0.0
C3142 C 0.77652 0.56326 0.4358 0.0
C3143 C 0.79755 0.55789 0.40696 0.0
C3144 C 0.76282 0.54941 0.42771 0.0
H3145 H 0.71836 0.55669 0.47918 0.0
N3146 N 0.73194 0.53217 0.42897 0.0
C3147 C 0.70856 0.53734 0.45552 0.0
C3148 C 0.74511 0.54497 0.43764 0.0
C3149 C 0.71347 0.52889 0.43715 0.0
C3150 C 0.72229 0.54995 0.46506 0.0
C3151 C 0.74066 0.55425 0.45593 0.0
O3152 O 0.71232 0.52981 0.39237 0.0
O3153 O 0.74719 0.4964 0.38037 0.0
O3154 O 0.76572 0.49637 0.35895 0.0
O3155 O 0.75056 0.52606 0.36439 0.0
O3156 O 0.71839 0.49944 0.39049 0.0
O3157 O 0.73722 0.55027 0.38786 0.0
O3158 O 0.80114 0.49709 0.39646 0.0
O3159 O 0.7677 0.50676 0.41352 0.0
O3160 O 0.7308 0.49734 0.41952 0.0
O3161 O 0.74917 0.46929 0.40907 0.0
O3162 O 0.77542 0.47959 0.42431 0.0
O3163 O 0.798 0.46492 0.39103 0.0
C3164 C 0.72976 0.48888 0.37921 0.0
C3165 C 0.70451 0.5634 0.39279 0.0
C3166 C 0.67224 0.57846 0.38728 0.0
C3167 C 0.68711 0.56526 0.38153 0.0
C3168 C 0.67497 0.5903 0.40435 0.0
C3169 C 0.70732 0.575 0.40997 0.0
C3170 C 0.69249 0.58849 0.41569 0.0
C3171 C 0.75855 0.51341 0.3506 0.0
C3172 C 0.7179 0.54756 0.38676 0.0
C3173 C 0.7544 0.56788 0.46421 0.0
C3174 C 0.77223 0.57246 0.45413 0.0
C3175 C 0.77116 0.49743 0.43103 0.0
C3176 C 0.82677 0.47387 0.40842 0.0
C3177 C 0.82573 0.45547 0.4187 0.0
C3178 C 0.8432 0.44488 0.42345 0.0
C3179 C 0.86185 0.45411 0.4197 0.0
C3180 C 0.84544 0.48288 0.40528 0.0
C3181 C 0.86287 0.47316 0.41121 0.0
C3182 C 0.73522 0.4779 0.42029 0.0
C3183 C 0.81013 0.47966 0.39529 0.0
H3184 H 0.68496 0.55609 0.36832 0.0
H3185 H 0.66348 0.60062 0.409 0.0
H3186 H 0.72068 0.57352 0.41895 0.0
H3187 H 0.69449 0.59741 0.429 0.0
H3188 H 0.81125 0.44862 0.4214 0.0
H3189 H 0.87573 0.44639 0.4226 0.0
H3190 H 0.84663 0.49671 0.39692 0.0
H3191 H 0.87731 0.47989 0.4081 0.0
Tb3192 Tb 0.77053 0.4847 0.64611 0.0
C3193 C 0.83669 0.51811 0.60181 0.0
C3194 C 0.86704 0.50017 0.60896 0.0
C3195 C 0.86013 0.5112 0.57514 0.0
C3196 C 0.84854 0.50794 0.61524 0.0
C3197 C 0.84301 0.52105 0.58198 0.0
C3198 C 0.87214 0.50068 0.58865 0.0
C3199 C 0.81767 0.54642 0.5786 0.0
N3200 N 0.82028 0.52737 0.60897 0.0
C3201 C 0.81205 0.54301 0.59839 0.0
C3202 C 0.83274 0.53485 0.57011 0.0
Tb3203 Tb 0.80996 0.51651 0.64006 0.0
N3204 N 0.84317 0.50811 0.63483 0.0
C3205 C 0.8575 0.50437 0.64903 0.0
C3206 C 0.88044 0.49346 0.62342 0.0
C3207 C 0.87599 0.49633 0.64349 0.0
H3208 H 0.79984 0.55144 0.60468 0.0
H3209 H 0.88697 0.49241 0.65454 0.0
H3210 H 0.886 0.4942 0.5835 0.0
H3211 H 0.81024 0.55778 0.56985 0.0
H3212 H 0.85435 0.50663 0.66468 0.0
H3213 H 0.73536 0.55666 0.64794 0.0
H3214 H 0.8948 0.48735 0.61927 0.0
H3215 H 0.76878 0.4451 0.67584 0.0
H3216 H 0.75645 0.53003 0.6333 0.0
H3217 H 0.75216 0.43603 0.70751 0.0
H3218 H 0.86489 0.5127 0.55978 0.0
H3219 H 0.71905 0.55119 0.68064 0.0
H3220 H 0.71222 0.52824 0.70976 0.0
H3221 H 0.83708 0.5375 0.55478 0.0
H3222 H 0.71664 0.49544 0.72582 0.0
N3223 N 0.75237 0.51041 0.65783 0.0
C3224 C 0.74945 0.52776 0.64764 0.0
C3225 C 0.72837 0.53961 0.67438 0.0
C3226 C 0.73107 0.52146 0.68443 0.0
C3227 C 0.73755 0.54275 0.65589 0.0
C3228 C 0.74337 0.50696 0.67566 0.0
H3229 H 0.73122 0.46084 0.72494 0.0
N3230 N 0.75823 0.47505 0.67608 0.0
C3231 C 0.75052 0.45093 0.70144 0.0
C3232 C 0.7462 0.48862 0.68495 0.0
C3233 C 0.76008 0.45618 0.68365 0.0
C3234 C 0.73864 0.46495 0.71117 0.0
C3235 C 0.73628 0.48405 0.70292 0.0
O3236 O 0.76189 0.45601 0.63775 0.0
O3237 O 0.7953 0.4916 0.6285 0.0
O3238 O 0.79528 0.51081 0.60818 0.0
O3239 O 0.76496 0.49625 0.6129 0.0
O3240 O 0.79109 0.46185 0.63575 0.0
O3241 O 0.74047 0.48003 0.63698 0.0
O3242 O 0.79428 0.5433 0.64698 0.0
O3243 O 0.78576 0.50989 0.66263 0.0
O3244 O 0.79368 0.47267 0.66695 0.0
O3245 O 0.82224 0.49119 0.65724 0.0
O3246 O 0.81292 0.51819 0.6736 0.0
O3247 O 0.82555 0.54306 0.63857 0.0
C3248 C 0.80234 0.47424 0.62622 0.0
C3249 C 0.72882 0.44617 0.6403 0.0
C3250 C 0.71613 0.41239 0.63558 0.0
C3251 C 0.7276 0.42863 0.62902 0.0
C3252 C 0.70568 0.41383 0.65365 0.0
C3253 C 0.71793 0.44778 0.65804 0.0
C3254 C 0.70646 0.43154 0.66472 0.0
C3255 C 0.7779 0.50464 0.59956 0.0
C3256 C 0.74357 0.46103 0.63395 0.0
C3257 C 0.72422 0.49857 0.71189 0.0
C3258 C 0.7217 0.51726 0.70273 0.0
C3259 C 0.7952 0.51299 0.68024 0.0
C3260 C 0.81751 0.56656 0.66238 0.0
C3261 C 0.83661 0.5636 0.67086 0.0
C3262 C 0.84587 0.57852 0.68215 0.0
C3263 C 0.83517 0.59586 0.6868 0.0
C3264 C 0.80702 0.584 0.66696 0.0
C3265 C 0.81571 0.59842 0.67946 0.0
C3266 C 0.81333 0.47665 0.66765 0.0
C3267 C 0.81101 0.55359 0.6458 0.0
H3268 H 0.73611 0.4274 0.61532 0.0
H3269 H 0.6966 0.40146 0.65894 0.0
H3270 H 0.71858 0.46127 0.66686 0.0
H3271 H 0.69824 0.43266 0.67855 0.0
H3272 H 0.84514 0.55032 0.66741 0.0
H3273 H 0.84217 0.60776 0.69533 0.0
H3274 H 0.79254 0.58682 0.66026 0.0
H3275 H 0.80772 0.61205 0.68268 0.0
Tb3276 Tb 0.48657 0.14423 0.27135 0.0
C3277 C 0.5513 0.10466 0.24739 0.0
C3278 C 0.5709 0.11671 0.27523 0.0
C3279 C 0.57668 0.08338 0.26232 0.0
C3280 C 0.55601 0.11979 0.26055 0.0
C3281 C 0.56141 0.08618 0.24826 0.0
C3282 C 0.58143 0.09863 0.27578 0.0
C3283 C 0.53993 0.07406 0.22201 0.0
N3284 N 0.53601 0.10761 0.2345 0.0
C3285 C 0.53021 0.09246 0.22187 0.0
C3286 C 0.55561 0.07087 0.23528 0.0
Tb3287 Tb 0.52151 0.13875 0.23459 0.0
N3288 N 0.54501 0.13685 0.25997 0.0
C3289 C 0.54739 0.15058 0.27491 0.0
C3290 C 0.57423 0.13153 0.28948 0.0
C3291 C 0.56219 0.14839 0.28949 0.0
H3292 H 0.51787 0.09408 0.21163 0.0
H3293 H 0.56399 0.15955 0.30104 0.0
H3294 H 0.59293 0.0961 0.2869 0.0
H3295 H 0.53508 0.06225 0.21206 0.0
H3296 H 0.53774 0.16302 0.2765 0.0
H3297 H 0.41864 0.17059 0.23481 0.0
H3298 H 0.58548 0.12973 0.301 0.0
H3299 H 0.51312 0.16188 0.30974 0.0
H3300 H 0.44564 0.14739 0.24022 0.0
H3301 H 0.51057 0.1904 0.33322 0.0
H3302 H 0.58461 0.06934 0.26318 0.0
H3303 H 0.41639 0.20141 0.2548 0.0
H3304 H 0.42964 0.22235 0.28265 0.0
H3305 H 0.56293 0.05648 0.23557 0.0
H3306 H 0.45393 0.22735 0.30976 0.0
N3307 N 0.45961 0.16411 0.26379 0.0
C3308 C 0.44524 0.16033 0.24959 0.0
C3309 C 0.42848 0.19104 0.25755 0.0
C3310 C 0.4426 0.19459 0.27257 0.0
C3311 C 0.42969 0.17372 0.24621 0.0
C3312 C 0.45819 0.18069 0.27549 0.0
H3313 H 0.48368 0.21527 0.329 0.0
N3314 N 0.48812 0.171 0.29237 0.0
C3315 C 0.49989 0.18879 0.32117 0.0
C3316 C 0.47229 0.18381 0.29065 0.0
C3317 C 0.50138 0.17277 0.30788 0.0
C3318 C 0.48457 0.20274 0.31883 0.0
C3319 C 0.47059 0.20042 0.30341 0.0
O3320 O 0.48411 0.13401 0.30071 0.0
O3321 O 0.50877 0.1224 0.25963 0.0
O3322 O 0.49553 0.11855 0.22625 0.0
O3323 O 0.47096 0.12653 0.24933 0.0
O3324 O 0.49687 0.11417 0.28397 0.0
O3325 O 0.45852 0.13357 0.27991 0.0
O3326 O 0.51922 0.12864 0.20553 0.0
O3327 O 0.49236 0.14934 0.24051 0.0
O3328 O 0.50326 0.17584 0.26855 0.0
O3329 O 0.52718 0.17308 0.24371 0.0
O3330 O 0.50935 0.166 0.22158 0.0
O3331 O 0.54536 0.14523 0.21466 0.0
C3332 C 0.50671 0.10546 0.26987 0.0
C3333 C 0.45115 0.13429 0.3142 0.0
C3334 C 0.4192 0.12674 0.32941 0.0
C3335 C 0.43258 0.1246 0.31371 0.0
C3336 C 0.42435 0.13871 0.34582 0.0
C3337 C 0.4564 0.14621 0.33066 0.0
C3338 C 0.44294 0.14842 0.3464 0.0
C3339 C 0.47721 0.11597 0.23395 0.0
C3340 C 0.465 0.12992 0.29804 0.0
C3341 C 0.45523 0.21432 0.30029 0.0
C3342 C 0.44141 0.2115 0.28483 0.0
C3343 C 0.49204 0.16487 0.22978 0.0
C3344 C 0.53301 0.1494 0.18134 0.0
C3345 C 0.54986 0.15697 0.17146 0.0
C3346 C 0.54753 0.16735 0.15347 0.0
C3347 C 0.52846 0.16992 0.14515 0.0
C3348 C 0.51385 0.15218 0.17284 0.0
C3349 C 0.5117 0.16224 0.15478 0.0
C3350 C 0.51682 0.1854 0.25653 0.0
C3351 C 0.53545 0.13747 0.19967 0.0
H3352 H 0.42865 0.11498 0.30125 0.0
H3353 H 0.4142 0.14018 0.35828 0.0
H3354 H 0.47088 0.15348 0.33153 0.0
H3355 H 0.44704 0.15742 0.3592 0.0
H3356 H 0.56468 0.15482 0.17769 0.0
H3357 H 0.5266 0.17776 0.13112 0.0
H3358 H 0.50048 0.14637 0.17992 0.0
H3359 H 0.49703 0.16396 0.1482 0.0
Tb3360 Tb 1.01742 0.89608 0.73401 0.0
C3361 C 0.05037 0.85379 0.79795 0.0
C3362 C 0.0207 0.8586 0.81806 0.0
C3363 C 0.04302 0.83082 0.82507 0.0
C3364 C 0.03336 0.86469 0.80245 0.0
C3365 C 0.05544 0.83677 0.80926 0.0
C3366 C 0.02561 0.84159 0.82934 0.0
C3367 C 0.08498 0.83324 0.78888 0.0
N3368 N 0.06213 0.8601 0.78276 0.0
C3369 C 0.07956 0.85043 0.77839 0.0
C3370 C 0.07285 0.82634 0.80438 0.0
Tb3371 Tb 0.05303 0.88985 0.76928 0.0
N3372 N 0.02932 0.88135 0.79159 0.0
C3373 C 1.01296 0.89271 0.79544 0.0
C3374 C 1.00363 0.86995 0.82197 0.0
C3375 C 0.99972 0.88705 0.81058 0.0
H3376 H 0.08947 0.85614 0.76698 0.0
H3377 H 0.98663 0.89596 0.8136 0.0
H3378 H 1.01611 0.8367 0.84148 0.0
H3379 H 0.09867 0.82553 0.78524 0.0
H3380 H 1.01017 0.90604 0.78678 0.0
H3381 H 0.05035 0.90477 0.65909 0.0
H3382 H 0.99345 0.86573 0.83381 0.0
H3383 H 0.97956 0.92211 0.75512 0.0
H3384 H 0.04168 0.88595 0.68818 0.0
H3385 H 0.96233 0.95384 0.74871 0.0
H3386 H 0.04665 0.81781 0.83397 0.0
H3387 H 0.03897 0.93941 0.65493 0.0
H3388 H 1.01829 0.9674 0.66689 0.0
H3389 H 0.07718 0.81313 0.81264 0.0
H3390 H 0.99399 0.98047 0.69069 0.0
N3391 N 0.02646 0.90996 0.7034 0.0
C3392 C 0.0369 0.90118 0.68802 0.0
C3393 C 0.03525 0.93131 0.66844 0.0
C3394 C 0.02317 0.93979 0.68304 0.0
C3395 C 0.0417 0.91179 0.67074 0.0
C3396 C 1.01869 0.92868 0.70051 0.0
H3397 H 0.9728 0.97534 0.72066 0.0
N3398 N 0.99992 0.92543 0.73071 0.0
C3399 C 0.97431 0.94914 0.739 0.0
C3400 C 1.0048 0.93632 0.71413 0.0
C3401 C 0.98394 0.93102 0.74238 0.0
C3402 C 0.98032 0.96125 0.72318 0.0
C3403 C 0.99542 0.95482 0.71035 0.0
O3404 O 0.98709 0.88938 0.74122 0.0
O3405 O 0.02516 0.874 0.75883 0.0
O3406 O 0.05982 0.86681 0.74675 0.0
O3407 O 0.04018 0.87829 0.7203 0.0
O3408 O 1.01291 0.86265 0.73443 0.0
O3409 O 0.99909 0.89018 0.71007 0.0
O3410 O 0.0836 0.89369 0.77473 0.0
O3411 O 0.04499 0.90798 0.74492 0.0
O3412 O 0.02099 0.92753 0.74971 0.0
O3413 O 0.04471 0.92399 0.77381 0.0
O3414 O 0.07302 0.89644 0.74467 0.0
O3415 O 0.0618 0.90318 0.79649 0.0
C3416 C 1.01982 0.85597 0.75121 0.0
C3417 C 0.96455 0.88191 0.71278 0.0
C3418 C 0.94863 0.86875 0.68255 0.0
C3419 C 0.96485 0.86935 0.69599 0.0
C3420 C 0.93172 0.88052 0.68695 0.0
C3421 C 0.94731 0.89269 0.71725 0.0
C3422 C 0.93094 0.89192 0.70437 0.0
C3423 C 0.05341 0.86588 0.72797 0.0
C3424 C 0.98355 0.88799 0.72182 0.0
C3425 C 1.00088 0.96614 0.69362 0.0
C3426 C 1.01475 0.9587 0.68008 0.0
C3427 C 0.0616 0.9091 0.73577 0.0
C3428 C 0.0953 0.89731 0.80736 0.0
C3429 C 0.11214 0.90973 0.80882 0.0
C3430 C 0.12775 0.90495 0.82183 0.0
C3431 C 0.12648 0.88751 0.83343 0.0
C3432 C 0.09381 0.88023 0.81937 0.0
C3433 C 0.10947 0.87529 0.83228 0.0
C3434 C 0.03207 0.93656 0.76405 0.0
C3435 C 0.08072 0.90211 0.7919 0.0
H3436 H 0.97825 0.86084 0.69312 0.0
H3437 H 0.91919 0.88151 0.67679 0.0
H3438 H 0.94707 0.90284 0.72982 0.0
H3439 H 0.91791 0.90094 0.7074 0.0
H3440 H 0.11325 0.92303 0.79957 0.0
H3441 H 0.13839 0.88366 0.8437 0.0
H3442 H 0.08076 0.87071 0.81873 0.0
H3443 H 0.10839 0.862 0.84144 0.0
Tb3444 Tb 0.48524 0.89407 0.27037 0.0
C3445 C 0.55047 0.937 0.28735 0.0
C3446 C 0.56771 0.92638 0.25751 0.0
C3447 C 0.5749 0.95908 0.27176 0.0
C3448 C 0.55415 0.92246 0.2731 0.0
C3449 C 0.56068 0.95554 0.28671 0.0
C3450 C 0.5783 0.9446 0.25712 0.0
C3451 C 0.54037 0.96671 0.31416 0.0
N3452 N 0.53615 0.93334 0.30117 0.0
C3453 C 0.5307 0.94814 0.3143 0.0
C3454 C 0.55562 0.97035 0.30049 0.0
Tb3455 Tb 0.5247 0.90078 0.30161 0.0
N3456 N 0.54367 0.90495 0.27387 0.0
C3457 C 0.54527 0.89121 0.259 0.0
C3458 C 0.56989 0.91205 0.24253 0.0
C3459 C 0.55843 0.89453 0.24315 0.0
H3460 H 0.5199 0.94537 0.3259 0.0
H3461 H 0.55973 0.88355 0.23139 0.0
H3462 H 0.58891 0.94779 0.24534 0.0
H3463 H 0.53624 0.97809 0.32481 0.0
H3464 H 0.53635 0.8778 0.25906 0.0
H3465 H 0.40829 0.91014 0.29305 0.0
H3466 H 0.58008 0.91455 0.23023 0.0
H3467 H 0.49463 0.86014 0.23462 0.0
H3468 H 0.4415 0.91935 0.27978 0.0
H3469 H 0.48134 0.82708 0.22449 0.0
H3470 H 0.58287 0.97322 0.27102 0.0
H3471 H 0.39879 0.87454 0.29687 0.0
H3472 H 0.40629 0.83864 0.28875 0.0
H3473 H 0.56303 0.9848 0.30037 0.0
H3474 H 0.42664 0.81526 0.26925 0.0
N3475 N 0.45167 0.88917 0.27811 0.0
C3476 C 0.43766 0.90371 0.28152 0.0
C3477 C 0.41349 0.87847 0.29128 0.0
C3478 C 0.42656 0.86376 0.28452 0.0
C3479 C 0.41877 0.89858 0.28904 0.0
C3480 C 0.44562 0.8697 0.27762 0.0
H3481 H 0.45387 0.81135 0.24368 0.0
N3482 N 0.4743 0.86336 0.25891 0.0
C3483 C 0.47469 0.83494 0.23688 0.0
C3484 C 0.45734 0.85628 0.26741 0.0
C3485 C 0.48206 0.8537 0.24256 0.0
C3486 C 0.4593 0.82605 0.24786 0.0
C3487 C 0.44992 0.83702 0.26288 0.0
O3488 O 0.50029 0.90286 0.24356 0.0
O3489 O 0.50914 0.91758 0.27674 0.0
O3490 O 0.50037 0.91796 0.31557 0.0
O3491 O 0.47238 0.90842 0.29648 0.0
O3492 O 0.48092 0.92756 0.27138 0.0
O3493 O 0.46932 0.89313 0.24428 0.0
O3494 O 0.54134 0.91236 0.32534 0.0
O3495 O 0.49994 0.88263 0.29514 0.0
O3496 O 0.50105 0.8622 0.27458 0.0
O3497 O 0.52938 0.86638 0.2935 0.0
O3498 O 0.50522 0.88776 0.32463 0.0
O3499 O 0.54757 0.8831 0.31472 0.0
C3500 C 0.49879 0.93481 0.27524 0.0
C3501 C 0.47623 0.91625 0.21969 0.0
C3502 C 0.44611 0.93179 0.20596 0.0
C3503 C 0.45661 0.92362 0.22209 0.0
C3504 C 0.45625 0.93471 0.18783 0.0
C3505 C 0.48605 0.9193 0.20154 0.0
C3506 C 0.4762 0.92886 0.18581 0.0
C3507 C 0.48089 0.91804 0.31159 0.0
C3508 C 0.48353 0.90075 0.2335 0.0
C3509 C 0.43222 0.83026 0.27193 0.0
C3510 C 0.4206 0.84362 0.28296 0.0
C3511 C 0.49371 0.87836 0.31245 0.0
C3512 C 0.54616 0.88848 0.34975 0.0
C3513 C 0.55973 0.87573 0.35914 0.0
C3514 C 0.55619 0.86956 0.37877 0.0
C3515 C 0.53892 0.87557 0.38886 0.0
C3516 C 0.52923 0.89513 0.36041 0.0
C3517 C 0.52553 0.88843 0.37969 0.0
C3518 C 0.51725 0.85328 0.28333 0.0
C3519 C 0.5499 0.8957 0.32934 0.0
H3520 H 0.44867 0.92096 0.23591 0.0
H3521 H 0.44867 0.94123 0.17512 0.0
H3522 H 0.50087 0.91331 0.19916 0.0
H3523 H 0.48373 0.93086 0.17168 0.0
H3524 H 0.57322 0.87118 0.3515 0.0
H3525 H 0.53627 0.87095 0.40413 0.0
H3526 H 0.51891 0.90578 0.35403 0.0
H3527 H 0.51255 0.89366 0.3877 0.0
Tb3528 Tb 0.89596 0.73635 0.02478 0.0
C3529 C 0.85323 0.80133 0.03895 0.0
C3530 C 0.86401 0.81792 1.00866 0.0
C3531 C 0.83048 0.82348 0.02139 0.0
C3532 C 0.86799 0.80514 0.02489 0.0
C3533 C 0.83431 0.81047 0.03732 0.0
C3534 C 0.84526 0.82718 1.00709 0.0
C3535 C 0.82424 0.7934 0.06736 0.0
N3536 N 0.8573 0.78842 0.054 0.0
C3537 C 0.84307 0.78458 0.06833 0.0
C3538 C 0.81978 0.80632 0.05173 0.0
Tb3539 Tb 0.88987 0.77758 0.05504 0.0
N3540 N 0.88601 0.79592 0.02678 0.0
C3541 C 0.9004 0.79831 1.0126 0.0
C3542 C 0.87892 0.82083 0.99435 0.0
C3543 C 0.89711 0.81085 0.99624 0.0
H3544 H 0.84609 0.77507 0.08099 0.0
H3545 H 0.9086 0.81281 0.98507 0.0
H3546 H 0.842 0.83714 0.99478 0.0
H3547 H 0.81319 0.79021 0.07872 0.0
H3548 H 0.91441 0.79057 1.01366 0.0
H3549 H 0.89859 0.66268 0.06136 0.0
H3550 H 0.87643 0.83054 0.98165 0.0
H3551 H 0.92471 0.75368 0.98712 0.0
H3552 H 0.88125 0.69167 0.04834 0.0
H3553 H 0.9562 0.74426 0.9709 0.0
H3554 H 0.81607 0.83067 1.01994 0.0
H3555 H 0.93385 0.65695 0.05338 0.0
H3556 H 0.96387 0.66656 0.03386 0.0
H3557 H 0.8051 0.81306 0.05098 0.0
H3558 H 0.97899 0.68768 1.00799 0.0
N3559 N 0.90756 0.70538 0.0355 0.0
C3560 C 0.89713 0.69081 0.04572 0.0
C3561 C 0.92669 0.67051 0.04828 0.0
C3562 C 0.93663 0.68385 0.03574 0.0
C3563 C 0.90674 0.67374 0.05284 0.0
C3564 C 0.9266 0.70128 0.02929 0.0
H3565 H 0.97568 0.71573 0.98367 0.0
N3566 N 0.92586 0.73033 1.00894 0.0
C3567 C 0.95066 0.73562 0.98341 0.0
C3568 C 0.93561 0.71362 1.01512 0.0
C3569 C 0.93267 0.74076 0.99254 0.0
C3570 C 0.9616 0.7195 0.99065 0.0
C3571 C 0.95412 0.70822 1.00658 0.0
O3572 O 0.88997 0.7458 0.99483 0.0
O3573 O 0.87403 0.76173 0.02984 0.0
O3574 O 0.87056 0.75386 0.06785 0.0
O3575 O 0.87897 0.72512 0.04978 0.0
O3576 O 0.86224 0.73467 0.02308 0.0
O3577 O 0.88974 0.714 1.00501 0.0
O3578 O 0.88063 0.78784 0.08249 0.0
O3579 O 0.90588 0.75149 0.05004 0.0
O3580 O 0.92793 0.75179 0.029 0.0
O3581 O 0.92453 0.78079 0.04729 0.0
O3582 O 0.90434 0.76045 0.07896 0.0
O3583 O 0.90116 0.8059 0.06511 0.0
C3584 C 0.85617 0.75266 0.02702 0.0
C3585 C 0.88241 0.71851 0.97066 0.0
C3586 C 0.87294 0.6883 0.95247 0.0
C3587 C 0.87319 0.69959 0.97003 0.0
C3588 C 0.88105 0.69683 0.93503 0.0
C3589 C 0.89005 0.72694 0.95314 0.0
C3590 C 0.88921 0.71614 0.93534 0.0
C3591 C 0.86897 0.73447 0.06393 0.0
C3592 C 0.88796 0.72667 0.99017 0.0
C3593 C 0.9645 0.69164 1.01395 0.0
C3594 C 0.95589 0.67964 0.0287 0.0
C3595 C 0.91121 0.7468 0.06751 0.0
C3596 C 0.89499 0.81409 0.10017 0.0
C3597 C 0.91276 0.81033 0.11087 0.0
C3598 C 0.91449 0.81715 0.13071 0.0
C3599 C 0.89852 0.82728 0.13964 0.0
C3600 C 0.87934 0.82448 0.10939 0.0
C3601 C 0.88108 0.83095 0.129 0.0
C3602 C 0.93713 0.76798 0.03754 0.0
C3603 C 0.8899 0.80478 0.08102 0.0
H3604 H 0.86691 0.69331 0.98356 0.0
H3605 H 0.88153 0.68847 0.92123 0.0
H3606 H 0.89767 0.74128 0.95345 0.0
H3607 H 0.8956 0.72242 0.9219 0.0
H3608 H 0.92482 0.80207 0.10405 0.0
H3609 H 0.89974 0.83267 0.15484 0.0
H3610 H 0.86536 0.82699 0.10155 0.0
H3611 H 0.86882 0.83874 0.136 0.0
Tb3612 Tb 0.64582 0.26664 0.55995 0.0
C3613 C 0.60153 0.29334 0.49351 0.0
C3614 C 0.60503 0.26181 0.47608 0.0
C3615 C 0.57717 0.28379 0.46826 0.0
C3616 C 0.61195 0.27573 0.49024 0.0
C3617 C 0.58406 0.29758 0.48251 0.0
C3618 C 0.58758 0.26593 0.46509 0.0
C3619 C 0.58209 0.32917 0.49984 0.0
N3620 N 0.60875 0.30644 0.50719 0.0
C3621 C 0.59974 0.32452 0.51001 0.0
C3622 C 0.57416 0.31561 0.48607 0.0
Tb3623 Tb 0.63894 0.29798 0.52018 0.0
N3624 N 0.62891 0.27232 0.50088 0.0
C3625 C 0.63983 0.25546 0.49819 0.0
C3626 C 0.61597 0.24424 0.47332 0.0
C3627 C 0.63342 0.24104 0.48445 0.0
H3628 H 0.60627 0.33549 0.51996 0.0
H3629 H 0.64202 0.22758 0.4823 0.0
H3630 H 0.58203 0.25542 0.45409 0.0
H3631 H 0.57484 0.34336 0.50235 0.0
H3632 H 0.65348 0.25325 0.50658 0.0
H3633 H 0.64494 0.3028 0.63357 0.0
H3634 H 0.61114 0.23312 0.46257 0.0
H3635 H 0.67625 0.22836 0.54716 0.0
H3636 H 0.62902 0.28589 0.60541 0.0
H3637 H 0.71051 0.21775 0.55529 0.0
H3638 H 0.56376 0.28675 0.45966 0.0
H3639 H 0.68166 0.30232 0.63741 0.0
H3640 H 0.71436 0.28794 0.62667 0.0
H3641 H 0.56061 0.31934 0.47803 0.0
H3642 H 0.73218 0.26361 0.60596 0.0
N3643 N 0.65652 0.27851 0.59088 0.0
C3644 C 0.64509 0.28642 0.6059 0.0
C3645 C 0.67479 0.2954 0.62449 0.0
C3646 C 0.68616 0.28449 0.61095 0.0
C3647 C 0.65406 0.29569 0.62237 0.0
C3648 C 0.67644 0.27574 0.59433 0.0
H3649 H 0.73054 0.23659 0.58007 0.0
N3650 N 0.67667 0.25314 0.56733 0.0
C3651 C 0.70403 0.23036 0.56296 0.0
C3652 C 0.68665 0.26215 0.5826 0.0
C3653 C 0.68446 0.23624 0.55865 0.0
C3654 C 0.71531 0.24106 0.57692 0.0
C3655 C 0.7065 0.25683 0.58731 0.0
O3656 O 0.64052 0.23636 0.55058 0.0
O3657 O 0.62338 0.27196 0.53482 0.0
O3658 O 0.61706 0.30835 0.54276 0.0
O3659 O 0.62853 0.29146 0.57128 0.0
O3660 O 0.61226 0.26357 0.5612 0.0
O3661 O 0.6406 0.2466 0.58219 0.0
O3662 O 0.64409 0.32714 0.51073 0.0
O3663 O 0.65649 0.29209 0.5452 0.0
O3664 O 0.67735 0.27067 0.54429 0.0
O3665 O 0.67265 0.28817 0.51554 0.0
O3666 O 0.64867 0.32162 0.54051 0.0
O3667 O 0.65075 0.30208 0.4913 0.0
C3668 C 0.60553 0.26812 0.54355 0.0
C3669 C 0.63256 0.21233 0.57809 0.0
C3670 C 0.62187 0.1939 0.60763 0.0
C3671 C 0.62389 0.21187 0.59719 0.0
C3672 C 0.62778 0.17603 0.59851 0.0
C3673 C 0.63805 0.19439 0.56895 0.0
C3674 C 0.63552 0.17628 0.57913 0.0
C3675 C 0.6166 0.30441 0.56226 0.0
C3676 C 0.63845 0.23174 0.56966 0.0
C3677 C 0.71671 0.26701 0.60257 0.0
C3678 C 0.70658 0.28093 0.6143 0.0
C3679 C 0.65866 0.30971 0.55176 0.0
C3680 C 0.6456 0.33429 0.47692 0.0
C3681 C 0.6579 0.35087 0.47413 0.0
C3682 C 0.65253 0.36589 0.4608 0.0
C3683 C 0.63484 0.36389 0.44959 0.0
C3684 C 0.628 0.33213 0.46572 0.0
C3685 C 0.62266 0.34698 0.45203 0.0
C3686 C 0.68583 0.27864 0.52771 0.0
C3687 C 0.65092 0.32145 0.49353 0.0
H3688 H 0.61959 0.22566 0.60447 0.0
H3689 H 0.62629 0.16192 0.60633 0.0
H3690 H 0.64497 0.19446 0.55437 0.0
H3691 H 0.64003 0.16244 0.57218 0.0
H3692 H 0.67159 0.35233 0.48281 0.0
H3693 H 0.63037 0.37547 0.43923 0.0
H3694 H 0.61837 0.3193 0.46765 0.0
H3695 H 0.60895 0.34551 0.44352 0.0
Tb3696 Tb 0.27204 0.48007 0.14925 0.0
C3697 C 0.24259 0.54474 0.10421 0.0
C3698 C 0.27489 0.56146 0.10492 0.0
C3699 C 0.25085 0.56919 0.0787 0.0
C3700 C 0.26116 0.54774 0.11312 0.0
C3701 C 0.23709 0.55569 0.08711 0.0
C3702 C 0.26972 0.57202 0.08753 0.0
C3703 C 0.20471 0.53929 0.08817 0.0
N3704 N 0.22973 0.53143 0.11258 0.0
C3705 C 0.21082 0.52885 0.10516 0.0
C3706 C 0.21788 0.55282 0.07913 0.0
Tb3707 Tb 0.24026 0.51859 0.14199 0.0
N3708 N 0.26547 0.53767 0.13019 0.0
C3709 C 0.28296 0.54083 0.14019 0.0
C3710 C 0.29321 0.56443 0.11473 0.0
C3711 C 0.29724 0.5541 0.13246 0.0
H3712 H 0.20033 0.51896 0.11255 0.0
H3713 H 0.31123 0.55655 0.14027 0.0
H3714 H 0.2801 0.58263 0.08097 0.0
H3715 H 0.18977 0.53713 0.08224 0.0
H3716 H 0.28578 0.53309 0.15407 0.0
H3717 H 0.24514 0.40304 0.14054 0.0
H3718 H 0.3042 0.57486 0.10892 0.0
H3719 H 0.30759 0.49249 0.1835 0.0
H3720 H 0.26186 0.4338 0.12862 0.0
H3721 H 0.31432 0.48429 0.21885 0.0
H3722 H 0.24698 0.57764 0.06546 0.0
H3723 H 0.23967 0.39804 0.17671 0.0
H3724 H 0.24778 0.40911 0.21174 0.0
H3725 H 0.21305 0.561 0.06604 0.0
H3726 H 0.26775 0.43123 0.23348 0.0
N3727 N 0.26237 0.44768 0.15709 0.0
C3728 C 0.25838 0.43234 0.14417 0.0
C3729 C 0.24638 0.41184 0.17141 0.0
C3730 C 0.25393 0.42602 0.18479 0.0
C3731 C 0.24941 0.41463 0.151 0.0
C3732 C 0.26236 0.44378 0.17705 0.0
H3733 H 0.29366 0.45874 0.23604 0.0
N3734 N 0.28304 0.47198 0.18095 0.0
C3735 C 0.30265 0.47641 0.21079 0.0
C3736 C 0.27345 0.45617 0.18938 0.0
C3737 C 0.29903 0.48078 0.19071 0.0
C3738 C 0.29088 0.46204 0.22046 0.0
C3739 C 0.27657 0.4512 0.20956 0.0
O3740 O 0.30016 0.49386 0.14236 0.0
O3741 O 0.266 0.50413 0.12613 0.0
O3742 O 0.22914 0.49546 0.12058 0.0
O3743 O 0.24774 0.46731 0.13082 0.0
O3744 O 0.27493 0.47732 0.11571 0.0
O3745 O 0.29708 0.46282 0.15168 0.0
O3746 O 0.21158 0.52721 0.14963 0.0
O3747 O 0.24668 0.4941 0.16 0.0
O3748 O 0.26591 0.49525 0.18077 0.0
O3749 O 0.25054 0.5247 0.1755 0.0
O3750 O 0.21718 0.49737 0.15112 0.0
O3751 O 0.23652 0.5481 0.15238 0.0
C3752 C 0.26976 0.49482 0.10859 0.0
C3753 C 0.32253 0.46848 0.12919 0.0
C3754 C 0.33452 0.43743 0.11453 0.0
C3755 C 0.31887 0.44904 0.12176 0.0
C3756 C 0.35346 0.44632 0.11199 0.0
C3757 C 0.34142 0.47721 0.12643 0.0
C3758 C 0.35668 0.46629 0.11738 0.0
C3759 C 0.23361 0.47598 0.11962 0.0
C3760 C 0.309 0.47647 0.14451 0.0
C3761 C 0.26614 0.43491 0.21782 0.0
C3762 C 0.25473 0.42235 0.20543 0.0
C3763 C 0.22931 0.48655 0.16135 0.0
C3764 C 0.20327 0.56062 0.14927 0.0
C3765 C 0.18608 0.56115 0.16082 0.0
C3766 C 0.17065 0.57408 0.15607 0.0
C3767 C 0.17252 0.587 0.13967 0.0
C3768 C 0.20532 0.57332 0.13277 0.0
C3769 C 0.18985 0.58652 0.12798 0.0
C3770 C 0.259 0.51228 0.18918 0.0
C3771 C 0.21733 0.54511 0.15459 0.0
H3772 H 0.3044 0.44193 0.12392 0.0
H3773 H 0.36583 0.43768 0.10627 0.0
H3774 H 0.3447 0.49195 0.13231 0.0
H3775 H 0.37138 0.47293 0.11563 0.0
H3776 H 0.18465 0.5513 0.17365 0.0
H3777 H 0.16063 0.59727 0.13592 0.0
H3778 H 0.21861 0.57298 0.12364 0.0
H3779 H 0.19126 0.59633 0.11522 0.0
Tb3780 Tb 0.30981 0.51693 0.89563 0.0
C3781 C 0.24382 0.49258 0.85404 0.0
C3782 C 0.22825 0.52494 0.85834 0.0
C3783 C 0.21923 0.50404 0.82995 0.0
C3784 C 0.24171 0.51021 0.86478 0.0
C3785 C 0.23241 0.48921 0.83665 0.0
C3786 C 0.21712 0.52183 0.84078 0.0
C3787 C 0.2467 0.45614 0.83474 0.0
N3788 N 0.25637 0.47839 0.86115 0.0
C3789 C 0.2576 0.4601 0.85213 0.0
C3790 C 0.23414 0.4708 0.82689 0.0
Tb3791 Tb 0.27062 0.48591 0.89098 0.0
N3792 N 0.25247 0.51264 0.88185 0.0
C3793 C 0.25026 0.5291 0.89352 0.0
C3794 C 0.2261 0.54215 0.87 0.0
C3795 C 0.23713 0.54422 0.88767 0.0
H3796 H 0.26683 0.44846 0.85843 0.0
H3797 H 0.23535 0.55735 0.89688 0.0
H3798 H 0.20665 0.53298 0.83558 0.0
H3799 H 0.24786 0.44174 0.82751 0.0
H3800 H 0.25856 0.53041 0.90732 0.0
H3801 H 0.38378 0.48243 0.90358 0.0
H3802 H 0.21579 0.5538 0.86563 0.0
H3803 H 0.28815 0.55409 0.92181 0.0
H3804 H 0.35383 0.49073 0.88504 0.0
H3805 H 0.29646 0.57397 0.95161 0.0
H3806 H 0.21033 0.50175 0.81661 0.0
H3807 H 0.39061 0.49749 0.93613 0.0
H3808 H 0.38099 0.52129 0.96261 0.0
H3809 H 0.2256 0.46764 0.81349 0.0
H3810 H 0.35792 0.54652 0.97533 0.0
N3811 N 0.34096 0.50886 0.90828 0.0
C3812 C 0.35528 0.49694 0.89974 0.0
C3813 C 0.37678 0.50097 0.92843 0.0
C3814 C 0.36314 0.51438 0.93647 0.0
C3815 C 0.37293 0.49242 0.90997 0.0
C3816 C 0.3451 0.51818 0.92606 0.0
H3817 H 0.32699 0.56662 0.97099 0.0
N3818 N 0.31413 0.53569 0.92394 0.0
C3819 C 0.30641 0.56224 0.94679 0.0
C3820 C 0.33171 0.53225 0.93372 0.0
C3821 C 0.30187 0.55106 0.9298 0.0
C3822 C 0.32367 0.55804 0.95768 0.0
C3823 C 0.33655 0.54298 0.95124 0.0
O3824 O 0.3011 0.54676 0.88854 0.0
O3825 O 0.28403 0.51142 0.8742 0.0
O3826 O 0.29254 0.47356 0.86938 0.0
O3827 O 0.32136 0.49207 0.8779 0.0
O3828 O 0.31073 0.51812 0.86204 0.0
O3829 O 0.33278 0.5361 0.88852 0.0
O3830 O 0.25952 0.45728 0.89552 0.0
O3831 O 0.29607 0.4915 0.9083 0.0
O3832 O 0.29633 0.51287 0.92884 0.0
O3833 O 0.26787 0.49431 0.92541 0.0
O3834 O 0.29186 0.46287 0.89849 0.0
O3835 O 0.24195 0.48322 0.90388 0.0
C3836 C 0.29269 0.51375 0.85623 0.0
C3837 C 0.32862 0.57025 0.87974 0.0
C3838 C 0.35834 0.58708 0.86639 0.0
C3839 C 0.34571 0.57022 0.86755 0.0
C3840 C 0.35285 0.60436 0.87709 0.0
C3841 C 0.32311 0.58776 0.88958 0.0
C3842 C 0.33518 0.60478 0.88817 0.0
C3843 C 0.31201 0.4778 0.86759 0.0
C3844 C 0.32036 0.55108 0.88642 0.0
C3845 C 0.35417 0.53864 0.9617 0.0
C3846 C 0.36731 0.52428 0.95444 0.0
C3847 C 0.30292 0.4739 0.90987 0.0
C3848 C 0.22545 0.45186 0.89918 0.0
C3849 C 0.22156 0.43738 0.9134 0.0
C3850 C 0.21015 0.42065 0.90861 0.0
C3851 C 0.20056 0.4195 0.88998 0.0
C3852 C 0.21599 0.45101 0.88053 0.0
C3853 C 0.20324 0.43492 0.87608 0.0
C3854 C 0.28023 0.5043 0.93829 0.0
C3855 C 0.24305 0.4638 0.90334 0.0
H3856 H 0.34955 0.5566 0.85978 0.0
H3857 H 0.3624 0.61747 0.87745 0.0
H3858 H 0.31034 0.58786 0.89949 0.0
H3859 H 0.33133 0.61809 0.89643 0.0
H3860 H 0.22904 0.43821 0.92781 0.0
H3861 H 0.19164 0.40652 0.886 0.0
H3862 H 0.21884 0.46225 0.86935 0.0
H3863 H 0.19615 0.43396 0.86158 0.0
Tb3864 Tb 0.26739 0.55106 0.6484 0.0
C3865 C 0.28654 0.48187 0.60803 0.0
C3866 C 0.26038 0.4616 0.62254 0.0
C3867 C 0.27456 0.45236 0.59051 0.0
C3868 C 0.2739 0.47779 0.62373 0.0
C3869 C 0.28701 0.46929 0.59116 0.0
C3870 C 0.26111 0.44862 0.60609 0.0
C3871 C 0.30984 0.49263 0.57569 0.0
N3872 N 0.29737 0.49896 0.60875 0.0
C3873 C 0.30844 0.50484 0.59249 0.0
C3874 C 0.29932 0.47459 0.57513 0.0
Tb3875 Tb 0.29953 0.51343 0.63974 0.0
N3876 N 0.27376 0.49066 0.6394 0.0
C3877 C 0.25884 0.48943 0.65321 0.0
C3878 C 0.24605 0.45941 0.63752 0.0
C3879 C 0.24498 0.47367 0.65266 0.0
H3880 H 0.31689 0.51864 0.59241 0.0
H3881 H 0.23338 0.47262 0.66383 0.0
H3882 H 0.251 0.43594 0.60503 0.0
H3883 H 0.31894 0.49723 0.56314 0.0
H3884 H 0.25715 0.50064 0.66446 0.0
H3885 H 0.31289 0.61887 0.66145 0.0
H3886 H 0.23526 0.44726 0.6371 0.0
H3887 H 0.22924 0.53139 0.67451 0.0
H3888 H 0.30392 0.58963 0.64343 0.0
H3889 H 0.21031 0.54024 0.70465 0.0
H3890 H 0.27468 0.4425 0.5777 0.0
H3891 H 0.29721 0.62663 0.69361 0.0
H3892 H 0.27258 0.61794 0.71968 0.0
H3893 H 0.30017 0.46529 0.56195 0.0
H3894 H 0.24498 0.5968 0.73144 0.0
N3895 N 0.28066 0.5795 0.66374 0.0
C3896 C 0.29554 0.59213 0.65679 0.0
C3897 C 0.29247 0.61344 0.68545 0.0
C3898 C 0.27758 0.60077 0.69283 0.0
C3899 C 0.30136 0.60913 0.66735 0.0
C3900 C 0.27182 0.58369 0.68165 0.0
H3901 H 0.22136 0.56855 0.72561 0.0
N3902 N 0.25099 0.55468 0.67816 0.0
C3903 C 0.22334 0.54893 0.70045 0.0
C3904 C 0.25647 0.57126 0.68879 0.0
C3905 C 0.23408 0.54404 0.68334 0.0
C3906 C 0.22964 0.56493 0.71224 0.0
C3907 C 0.24627 0.57632 0.7065 0.0
O3908 O 0.23647 0.54618 0.64171 0.0
O3909 O 0.27249 0.52628 0.62584 0.0
O3910 O 0.30886 0.53928 0.62043 0.0
O3911 O 0.28741 0.56546 0.62825 0.0
O3912 O 0.26123 0.55151 0.61535 0.0
O3913 O 0.25119 0.57625 0.6436 0.0
O3914 O 0.32737 0.5147 0.62672 0.0
O3915 O 0.29759 0.54237 0.65154 0.0
O3916 O 0.27105 0.53384 0.679 0.0
O3917 O 0.2926 0.50738 0.67417 0.0
O3918 O 0.31599 0.52343 0.66616 0.0
O3919 O 0.31841 0.48817 0.64284 0.0
C3920 C 0.26724 0.53458 0.60828 0.0
C3921 C 0.21646 0.57679 0.63566 0.0
C3922 C 0.20167 0.60844 0.62568 0.0
C3923 C 0.21831 0.5971 0.63091 0.0
C3924 C 0.18265 0.59928 0.6259 0.0
C3925 C 0.19752 0.56774 0.63579 0.0
C3926 C 0.18064 0.57906 0.63104 0.0
C3927 C 0.30223 0.55787 0.61787 0.0
C3928 C 0.23468 0.56586 0.64074 0.0
C3929 C 0.25247 0.59294 0.71769 0.0
C3930 C 0.26815 0.60502 0.71095 0.0
C3931 C 0.30954 0.54155 0.66611 0.0
C3932 C 0.35337 0.49536 0.63746 0.0
C3933 C 0.35966 0.48778 0.6558 0.0
C3934 C 0.38006 0.48768 0.66021 0.0
C3935 C 0.39413 0.49494 0.64643 0.0
C3936 C 0.36753 0.50243 0.62357 0.0
C3937 C 0.38784 0.50228 0.62812 0.0
C3938 C 0.28172 0.51872 0.68735 0.0
C3939 C 0.33232 0.49683 0.63211 0.0
H3940 H 0.23288 0.60428 0.63132 0.0
H3941 H 0.16942 0.60759 0.62176 0.0
H3942 H 0.19579 0.5521 0.63967 0.0
H3943 H 0.16597 0.57211 0.63115 0.0
H3944 H 0.34893 0.48215 0.66656 0.0
H3945 H 0.41 0.49461 0.6498 0.0
H3946 H 0.36282 0.50826 0.60923 0.0
H3947 H 0.39867 0.50778 0.61744 0.0
Tb3948 Tb 0.23198 0.51893 0.39822 0.0
C3949 C 0.29349 0.54405 0.35422 0.0
C3950 C 0.31311 0.51483 0.36239 0.0
C3951 C 0.31743 0.53126 0.33029 0.0
C3952 C 0.29872 0.52915 0.3676 0.0
C3953 C 0.30263 0.54514 0.33532 0.0
C3954 C 0.32261 0.5161 0.34376 0.0
C3955 C 0.28127 0.57301 0.32746 0.0
N3956 N 0.27886 0.55695 0.35946 0.0
C3957 C 0.27275 0.57146 0.34641 0.0
C3958 C 0.29631 0.55983 0.32189 0.0
Tb3959 Tb 0.26751 0.55353 0.39144 0.0
N3960 N 0.289 0.52818 0.38535 0.0
C3961 C 0.29277 0.51317 0.39855 0.0
C3962 C 0.31725 0.49948 0.37595 0.0
C3963 C 0.30695 0.49858 0.39405 0.0
H3964 H 0.26194 0.58256 0.35074 0.0
H3965 H 0.30991 0.48664 0.40452 0.0
H3966 H 0.33378 0.50527 0.33951 0.0
H3967 H 0.27642 0.58459 0.31728 0.0
H3968 H 0.28475 0.51225 0.41243 0.0
H3969 H 0.16308 0.56334 0.40949 0.0
H3970 H 0.32818 0.48812 0.3725 0.0
H3971 H 0.25202 0.4841 0.42794 0.0
H3972 H 0.19468 0.55689 0.39458 0.0
H3973 H 0.24258 0.46547 0.45819 0.0
H3974 H 0.32466 0.53187 0.31587 0.0
H3975 H 0.14988 0.54189 0.43589 0.0
H3976 H 0.15572 0.5151 0.46036 0.0
H3977 H 0.30289 0.56108 0.30719 0.0
H3978 H 0.17793 0.49004 0.47491 0.0
N3979 N 0.20049 0.52906 0.41021 0.0
C3980 C 0.18947 0.54565 0.40474 0.0
C3981 C 0.16392 0.5381 0.42885 0.0
C3982 C 0.17567 0.52258 0.43603 0.0
C3983 C 0.17119 0.55006 0.41366 0.0
C3984 C 0.19422 0.51849 0.42666 0.0
H3985 H 0.21027 0.47199 0.47455 0.0
N3986 N 0.22533 0.50151 0.42716 0.0
C3987 C 0.2325 0.47647 0.45201 0.0
C3988 C 0.20709 0.50472 0.43553 0.0
C3989 C 0.23771 0.48698 0.43481 0.0
C3990 C 0.21426 0.48019 0.46118 0.0
C3991 C 0.20124 0.49423 0.45291 0.0
O3992 O 0.2468 0.49157 0.39112 0.0
O3993 O 0.25646 0.52635 0.37595 0.0
O3994 O 0.24196 0.56275 0.37176 0.0
O3995 O 0.21669 0.53876 0.37769 0.0
O3996 O 0.23029 0.51673 0.3644 0.0
O3997 O 0.2147 0.49376 0.39701 0.0
O3998 O 0.27268 0.58414 0.39127 0.0
O3999 O 0.24406 0.54545 0.41035 0.0
O4000 O 0.2463 0.52419 0.43025 0.0
O4001 O 0.27295 0.54513 0.42604 0.0
O4002 O 0.24341 0.57353 0.39892 0.0
O4003 O 0.2956 0.56444 0.4021 0.0
C4004 C 0.248 0.52234 0.35816 0.0
C4005 C 0.22332 0.46755 0.37638 0.0
C4006 C 0.19359 0.4531 0.36073 0.0
C4007 C 0.20446 0.46977 0.36725 0.0
C4008 C 0.20304 0.43438 0.36049 0.0
C4009 C 0.23258 0.44885 0.37602 0.0
C4010 C 0.22263 0.43243 0.36761 0.0
C4011 C 0.2235 0.55536 0.369 0.0
C4012 C 0.22936 0.48223 0.39158 0.0
C4013 C 0.18259 0.49791 0.46155 0.0
C4014 C 0.16987 0.51204 0.45316 0.0
C4015 C 0.23516 0.56204 0.41193 0.0
C4016 C 0.305 0.59762 0.3915 0.0
C4017 C 0.31731 0.60718 0.40551 0.0
C4018 C 0.32705 0.62524 0.4007 0.0
C4019 C 0.325 0.63304 0.38127 0.0
C4020 C 0.30347 0.60557 0.37217 0.0
C4021 C 0.3136 0.62302 0.36705 0.0
C4022 C 0.26201 0.53365 0.43915 0.0
C4023 C 0.29044 0.58289 0.39886 0.0
H4024 H 0.19704 0.48411 0.36778 0.0
H4025 H 0.19514 0.42122 0.35521 0.0
H4026 H 0.24684 0.44666 0.3834 0.0
H4027 H 0.22965 0.4179 0.36773 0.0
H4028 H 0.31826 0.60113 0.42047 0.0
H4029 H 0.33152 0.64731 0.37715 0.0
H4030 H 0.29356 0.59914 0.36133 0.0
H4031 H 0.31182 0.62933 0.35229 0.0
C4032 C 0.03994 0.46998 0.2567 0.0
C4033 C 0.03454 0.4574 0.27345 0.0
C4034 C 0.04025 0.49216 0.25606 0.0
C4035 C 0.03495 0.50496 0.27264 0.0
C4036 C 0.02978 0.49257 0.28986 0.0
C4037 C 0.02992 0.47021 0.29013 0.0
C4038 C 0.04676 0.50211 0.237 0.0
C4039 C 0.02396 0.50313 0.30873 0.0
C4040 C 0.0535 0.56464 0.27435 0.0
C4041 C 0.03692 0.57778 0.26979 0.0
C4042 C 0.05304 0.54247 0.27558 0.0
C4043 C 0.03543 0.5302 0.27193 0.0
C4044 C 1.01846 0.54312 0.26759 0.0
C4045 C 1.01929 0.56546 0.26716 0.0
C4046 C 0.07209 0.53205 0.28136 0.0
C4047 C 0.99873 0.53322 0.26297 0.0
H4048 H 0.04441 0.46219 0.24331 0.0
H4049 H 0.02695 0.46286 0.30405 0.0
H4050 H 0.03574 0.51361 0.2325 0.0
H4051 H 0.0613 0.50984 0.23945 0.0
H4052 H 0.04854 0.49126 0.22462 0.0
H4053 H 0.02456 0.49307 0.32189 0.0
H4054 H 0.03387 0.51623 0.31146 0.0
H4055 H 1.00844 0.50871 0.30712 0.0
H4056 H 0.06763 0.57194 0.27757 0.0
H4057 H 1.0055 0.57318 0.2655 0.0
H4058 H 0.07799 0.52386 0.2683 0.0
H4059 H 0.06911 0.52091 0.29329 0.0
H4060 H 0.0838 0.54267 0.28665 0.0
H4061 H 0.9989 0.52801 0.24727 0.0
H4062 H 0.98602 0.54364 0.26481 0.0
H4063 H 0.99622 0.51996 0.27262 0.0
C4064 C 0.81862 0.78158 0.50745 0.0
C4065 C 0.83089 0.78191 0.52524 0.0
C4066 C 0.79644 0.78092 0.50649 0.0
C4067 C 0.78343 0.78086 0.52375 0.0
C4068 C 0.79555 0.7816 0.54192 0.0
C4069 C 0.81791 0.78225 0.54242 0.0
C4070 C 0.78678 0.78066 0.4862 0.0
C4071 C 0.78469 0.78203 0.5615 0.0
C4072 C 0.72416 0.79894 0.5188 0.0
C4073 C 0.71077 0.78185 0.5193 0.0
C4074 C 0.74628 0.79884 0.52031 0.0
C4075 C 0.7582 0.78098 0.52256 0.0
C4076 C 0.745 0.76348 0.52342 0.0
C4077 C 0.72264 0.76414 0.52242 0.0
C4078 C 0.75705 0.81867 0.52001 0.0
C4079 C 0.75471 0.74339 0.5254 0.0
H4080 H 0.82665 0.78208 0.49346 0.0
H4081 H 0.82519 0.7838 0.55673 0.0
H4082 H 0.77496 0.76893 0.48553 0.0
H4083 H 0.77947 0.79524 0.4834 0.0
H4084 H 0.79777 0.77797 0.47413 0.0
H4085 H 0.79493 0.78513 0.57422 0.0
H4086 H 0.77282 0.79355 0.56116 0.0
H4087 H 0.77728 0.76736 0.56402 0.0
H4088 H 0.71708 0.81336 0.51763 0.0
H4089 H 0.71445 0.75041 0.52474 0.0
H4090 H 0.76759 0.81923 0.50728 0.0
H4091 H 0.76606 0.8204 0.53385 0.0
H4092 H 0.74663 0.83148 0.51876 0.0
H4093 H 0.76343 0.74028 0.5117 0.0
H4094 H 0.74359 0.73118 0.52758 0.0
H4095 H 0.76539 0.74344 0.5381 0.0
C4096 C 0.51445 0.46847 0.7868 0.0
C4097 C 0.50491 0.45676 0.77137 0.0
C4098 C 0.51514 0.49073 0.78786 0.0
C4099 C 0.5058 0.50412 0.77343 0.0
C4100 C 0.49613 0.4924 0.75788 0.0
C4101 C 0.49571 0.47026 0.7573 0.0
C4102 C 0.52588 0.50004 0.80526 0.0
C4103 C 0.48645 0.50316 0.74067 0.0
C4104 C 0.48884 0.5636 0.78063 0.0
C4105 C 0.50569 0.57658 0.77651 0.0
C4106 C 0.48888 0.54139 0.78041 0.0
C4107 C 0.50592 0.52928 0.77462 0.0
C4108 C 0.52285 0.54229 0.76987 0.0
C4109 C 0.52271 0.56447 0.77147 0.0
C4110 C 0.47007 0.53082 0.787 0.0
C4111 C 0.54181 0.5329 0.76254 0.0
H4112 H 0.52139 0.46008 0.79875 0.0
H4113 H 0.48799 0.46351 0.74498 0.0
H4114 H 0.53989 0.50721 0.79996 0.0
H4115 H 0.51653 0.51185 0.81208 0.0
H4116 H 0.52982 0.48885 0.81685 0.0
H4117 H 0.4741 0.49413 0.73405 0.0
H4118 H 0.48052 0.51794 0.74502 0.0
H4119 H 0.49787 0.50568 0.72894 0.0
H4120 H 0.4751 0.5708 0.78472 0.0
H4121 H 0.53643 0.57249 0.76811 0.0
H4122 H 0.47366 0.51725 0.79585 0.0
H4123 H 0.46136 0.52604 0.77372 0.0
H4124 H 0.46042 0.54069 0.79612 0.0
H4125 H 0.55205 0.5305 0.77535 0.0
H4126 H 0.5496 0.5429 0.75179 0.0
H4127 H 0.53887 0.51833 0.7552 0.0
C4128 C 0.81663 0.25685 0.9983 0.0
C4129 C 0.83008 0.25463 1.01498 0.0
C4130 C 0.79446 0.25573 0.99902 0.0
C4131 C 0.78279 0.25341 1.01724 0.0
C4132 C 0.79639 0.25138 0.03424 0.0
C4133 C 0.81861 0.25149 0.03287 0.0
C4134 C 0.78386 0.25628 0.97921 0.0
C4135 C 0.78782 0.24942 0.05487 0.0
C4136 C 0.72178 0.26764 1.01372 0.0
C4137 C 0.71018 0.25088 0.02094 0.0
C4138 C 0.74409 0.26894 1.01315 0.0
C4139 C 0.75759 0.25265 1.01843 0.0
C4140 C 0.7459 0.23528 0.02437 0.0
C4141 C 0.72379 0.23484 0.02569 0.0
C4142 C 0.75325 0.28838 1.00641 0.0
C4143 C 0.75673 0.21609 0.02878 0.0
H4144 H 0.82356 0.25888 0.98385 0.0
H4145 H 0.8271 0.24956 0.04651 0.0
H4146 H 0.76784 0.25201 0.98021 0.0
H4147 H 0.78519 0.27155 0.97282 0.0
H4148 H 0.79128 0.24598 0.9686 0.0
H4149 H 0.79592 0.25958 0.06526 0.0
H4150 H 0.77164 0.2529 0.05552 0.0
H4151 H 0.79021 0.23396 0.06034 0.0
H4152 H 0.71344 0.27994 1.00759 0.0
H4153 H 0.71694 0.22088 0.03009 0.0
H4154 H 0.75764 0.28715 0.99056 0.0
H4155 H 0.76685 0.29201 1.0153 0.0
H4156 H 0.74258 0.30093 1.00753 0.0
H4157 H 0.76998 0.21435 1.01901 0.0
H4158 H 0.74679 0.20286 0.02682 0.0
H4159 H 0.7619 0.21621 0.04449 0.0
C4160 C 0.26054 0.02197 0.47171 0.0
C4161 C 0.27163 0.03692 0.46059 0.0
C4162 C 0.25916 0.0205 0.49395 0.0
C4163 C 0.26848 0.03443 0.50801 0.0
C4164 C 0.27954 0.04956 0.49688 0.0
C4165 C 0.28061 0.05066 0.47472 0.0
C4166 C 0.24704 1.00361 0.50258 0.0
C4167 C 0.29088 0.06506 0.50865 0.0
C4168 C 0.25073 0.04539 0.56681 0.0
C4169 C 0.26273 0.03401 0.58071 0.0
C4170 C 0.25199 0.0452 0.54466 0.0
C4171 C 0.26636 0.03375 0.53322 0.0
C4172 C 0.27874 0.02216 0.54701 0.0
C4173 C 0.27694 0.02249 0.56928 0.0
C4174 C 0.23743 0.05795 0.53327 0.0
C4175 C 0.29458 1.00904 0.53819 0.0
H4176 H 0.2522 1.01122 0.46289 0.0
H4177 H 0.28889 0.06301 0.46829 0.0
H4178 H 0.25673 0.99427 0.51225 0.0
H4179 H 0.23498 1.00969 0.51211 0.0
H4180 H 0.24027 0.99396 0.49087 0.0
H4181 H 0.29806 0.0765 0.49895 0.0
H4182 H 0.28073 0.07266 0.51922 0.0
H4183 H 0.30265 0.05762 0.51765 0.0
H4184 H 0.23967 0.05495 0.57341 0.0
H4185 H 0.28744 1.01371 0.57788 0.0
H4186 H 0.23045 0.04917 0.52102 0.0
H4187 H 0.24553 0.07072 0.5264 0.0
H4188 H 0.22545 0.06393 0.54297 0.0
H4189 H 0.28753 0.99487 0.53311 0.0
H4190 H 0.30636 1.00532 0.54928 0.0
H4191 H 0.30168 1.01627 0.52506 0.0
C4192 C 0.26689 0.03093 0.72343 0.0
C4193 C 0.25278 0.02081 0.71057 0.0
C4194 C 0.26732 0.03035 0.74554 0.0
C4195 C 0.25283 0.01974 0.75772 0.0
C4196 C 0.2382 1.00968 0.74498 0.0
C4197 C 0.23846 1.01015 0.72276 0.0
C4198 C 0.28394 0.04137 0.75607 0.0
C4199 C 0.2214 0.99855 0.75504 0.0
C4200 C 0.26273 1.00232 0.81642 0.0
C4201 C 0.25532 1.01731 0.82988 0.0
C4202 C 0.26219 1.00297 0.79434 0.0
C4203 C 0.2533 1.01894 0.78277 0.0
C4204 C 0.24513 0.034 0.79613 0.0
C4205 C 0.24634 0.03314 0.81833 0.0
C4206 C 0.27187 0.98615 0.78316 0.0
C4207 C 0.23461 0.05151 0.78687 0.0
H4208 H 0.27825 0.03959 0.71605 0.0
H4209 H 0.22673 1.00221 0.71483 0.0
H4210 H 0.27759 0.05357 0.76521 0.0
H4211 H 0.29184 0.03107 0.76637 0.0
H4212 H 0.29496 0.04792 0.74554 0.0
H4213 H 0.21116 0.99122 0.74418 0.0
H4214 H 0.22749 0.98702 0.76524 0.0
H4215 H 0.21267 1.0091 0.76429 0.0
H4216 H 0.26909 0.98937 0.82333 0.0
H4217 H 0.23977 0.04523 0.82674 0.0
H4218 H 0.28592 0.99172 0.77626 0.0
H4219 H 0.26204 0.98075 0.77094 0.0
H4220 H 0.27547 0.97334 0.793 0.0
H4221 H 0.24587 0.0619 0.78043 0.0
H4222 H 0.22559 0.05984 0.79794 0.0
H4223 H 0.22466 0.04646 0.77455 0.0
C4224 C 0.29053 1.00301 0.06695 0.0
C4225 C 0.27408 0.99962 0.08041 0.0
C4226 C 0.28966 1.00275 0.04488 0.0
C4227 C 0.27153 0.99922 0.03333 0.0
C4228 C 0.25476 0.99552 0.04677 0.0
C4229 C 0.25622 0.99549 0.06895 0.0
C4230 C 0.30901 1.00635 0.03399 0.0
C4231 C 0.23454 0.99148 0.03768 0.0
C4232 C 0.26926 1.01584 0.97313 0.0
C4233 C 0.26765 0.99813 0.96098 0.0
C4234 C 0.27 1.01652 0.99536 0.0
C4235 C 0.27031 0.99898 1.00827 0.0
C4236 C 0.27044 0.98106 0.99617 0.0
C4237 C 0.26925 0.98095 0.97409 0.0
C4238 C 0.27026 0.03672 1.00515 0.0
C4239 C 0.2726 0.96131 1.00668 0.0
H4240 H 0.30497 1.00539 0.07383 0.0
H4241 H 0.24277 0.99241 0.07741 0.0
H4242 H 0.30895 0.99953 1.01893 0.0
H4243 H 0.31143 0.0227 0.03237 0.0
H4244 H 0.32187 1.00033 0.04258 0.0
H4245 H 0.22229 0.99443 0.04841 0.0
H4246 H 0.23218 1.00075 0.02414 0.0
H4247 H 0.23356 0.97555 0.03322 0.0
H4248 H 0.27083 0.02966 0.96534 0.0
H4249 H 0.2697 0.96652 0.96683 0.0
H4250 H 0.28083 0.0371 1.0179 0.0
H4251 H 0.2551 0.03985 1.01106 0.0
H4252 H 0.27445 0.04878 0.99454 0.0
H4253 H 0.2856 0.96186 1.01702 0.0
H4254 H 0.27463 0.94872 0.99612 0.0
H4255 H 0.2591 0.95827 1.01577 0.0
C4256 C 0.28767 0.0317 0.22257 0.0
C4257 C 0.28718 1.01375 0.21051 0.0
C4258 C 0.28715 0.03289 0.24478 0.0
C4259 C 0.28632 1.01575 0.25815 0.0
C4260 C 0.28622 0.99747 0.24621 0.0
C4261 C 0.28712 0.99676 0.22392 0.0
C4262 C 0.28819 0.05327 0.25416 0.0
C4263 C 0.28495 0.97788 0.25715 0.0
C4264 C 0.30223 1.01652 0.31903 0.0
C4265 C 0.28459 0.02003 0.33099 0.0
C4266 C 0.30303 1.01536 0.29676 0.0
C4267 C 0.28575 1.01703 0.28346 0.0
C4268 C 0.26791 0.02034 0.29546 0.0
C4269 C 0.26765 0.02189 0.31766 0.0
C4270 C 0.3232 1.01279 0.28724 0.0
C4271 C 0.24827 0.0226 0.28472 0.0
H4272 H 0.28892 0.0456 0.21436 0.0
H4273 H 0.2885 0.9823 0.21698 0.0
H4274 H 0.27471 0.05572 0.26342 0.0
H4275 H 0.30139 0.05419 0.26422 0.0
H4276 H 0.28926 0.06541 0.2429 0.0
H4277 H 0.28841 0.965 0.24735 0.0
H4278 H 0.29527 0.97776 0.27012 0.0
H4279 H 0.26953 0.97592 0.26298 0.0
H4280 H 0.31617 1.01521 0.32719 0.0
H4281 H 0.25337 0.02422 0.32474 0.0
H4282 H 0.32584 0.02497 0.27628 0.0
H4283 H 0.32356 0.99847 0.27895 0.0
H4284 H 0.33555 1.01291 0.29836 0.0
H4285 H 0.24682 0.03828 0.27955 0.0
H4286 H 0.23542 0.01919 0.29464 0.0
H4287 H 0.24744 1.01271 0.27145 0.0
C4288 C 0.4723 0.26971 1.01546 0.0
C4289 C 0.45963 0.27217 0.03271 0.0
C4290 C 0.4946 0.26858 1.01554 0.0
C4291 C 0.50721 0.27042 0.03323 0.0
C4292 C 0.49455 0.27329 0.05066 0.0
C4293 C 0.47223 0.27394 0.05021 0.0
C4294 C 0.50487 0.26516 0.99595 0.0
C4295 C 0.50471 0.27613 0.0705 0.0
C4296 C 0.56626 0.24982 0.03421 0.0
C4297 C 0.58009 0.26655 0.03339 0.0
C4298 C 0.54403 0.25082 0.03458 0.0
C4299 C 0.53253 0.26919 0.03346 0.0
C4300 C 0.5463 0.28622 0.03251 0.0
C4301 C 0.56863 0.2848 0.03277 0.0
C4302 C 0.53262 0.23144 0.03628 0.0
C4303 C 0.53724 0.30665 0.03087 0.0
H4304 H 0.46464 0.2683 1.0013 0.0
H4305 H 0.46451 0.27635 0.06416 0.0
H4306 H 0.51751 0.27585 0.9941 0.0
H4307 H 0.5112 0.24987 0.9958 0.0
H4308 H 0.49448 0.26668 0.9831 0.0
H4309 H 0.49416 0.27417 0.08312 0.0
H4310 H 0.51727 0.26549 0.07229 0.0
H4311 H 0.51105 0.29148 0.07125 0.0
H4312 H 0.57295 0.23518 0.0349 0.0
H4313 H 0.57724 0.29855 0.03206 0.0
H4314 H 0.52576 0.22779 0.02165 0.0
H4315 H 0.52034 0.23281 0.04731 0.0
H4316 H 0.54242 0.21886 0.04077 0.0
H4317 H 0.52717 0.30722 1.01769 0.0
H4318 H 0.54875 0.31861 0.02948 0.0
H4319 H 0.52798 0.30965 0.04422 0.0
C4320 C 0.97122 0.25117 1.00456 0.0
C4321 C 0.95904 0.2683 1.00905 0.0
C4322 C 0.99347 0.2509 1.00436 0.0
C4323 C 1.00618 0.26813 1.00864 0.0
C4324 C 0.994 0.28544 1.01285 0.0
C4325 C 0.97185 0.28532 1.01279 0.0
C4326 C 1.00357 0.23164 0.99901 0.0
C4327 C 1.00459 0.30496 1.01681 0.0
C4328 C 0.06621 0.26652 0.02532 0.0
C4329 C 0.07844 0.2695 1.00789 0.0
C4330 C 0.04399 0.26559 0.02565 0.0
C4331 C 0.03126 0.26836 1.00827 0.0
C4332 C 0.04345 0.27172 0.99067 0.0
C4333 C 0.06564 0.27167 0.99066 0.0
C4334 C 0.03392 0.26132 0.04523 0.0
C4335 C 0.03311 0.27554 0.97108 0.0
H4336 H 0.9634 0.23765 1.0004 0.0
H4337 H 0.96433 0.29932 1.01558 0.0
H4338 H 1.01371 0.2341 0.98614 0.0
H4339 H 1.01291 0.2266 1.01174 0.0
H4340 H 0.99268 0.21962 0.99516 0.0
H4341 H 0.99408 0.31703 0.02097 0.0
H4342 H 1.01574 0.30312 0.02895 0.0
H4343 H 1.0129 0.30962 1.00324 0.0
H4344 H 0.07415 0.26442 0.03924 0.0
H4345 H 0.07296 0.27379 0.97652 0.0
H4346 H 0.02402 0.24801 0.0437 0.0
H4347 H 0.02433 0.2741 0.04941 0.0
H4348 H 0.04485 0.2586 0.05742 0.0
H4349 H 0.0309 0.26111 0.96323 0.0
H4350 H 0.04234 0.28539 0.96138 0.0
H4351 H 1.01826 0.28255 0.97312 0.0
C4352 C 0.02084 0.71859 0.27637 0.0
C4353 C 0.02058 0.70669 0.25855 0.0
C4354 C 1.01996 0.74063 0.27709 0.0
C4355 C 1.01957 0.75335 0.2596 0.0
C4356 C 1.01952 0.7415 0.2415 0.0
C4357 C 1.01958 0.71938 0.24123 0.0
C4358 C 1.01922 0.75049 0.29721 0.0
C4359 C 1.02025 0.75229 0.22181 0.0
C4360 C 1.0002 0.8117 0.26081 0.0
C4361 C 1.01732 0.82467 0.26281 0.0
C4362 C 1.00071 0.78973 0.25955 0.0
C4363 C 1.01892 0.77816 0.26036 0.0
C4364 C 0.03637 0.79113 0.262 0.0
C4365 C 0.03543 0.81322 0.26304 0.0
C4366 C 0.98114 0.7787 0.25725 0.0
C4367 C 0.05663 0.78151 0.26254 0.0
H4368 H 0.02138 0.71049 0.29033 0.0
H4369 H 1.01928 0.71201 0.22691 0.0
H4370 H 0.03238 0.7605 0.29912 0.0
H4371 H 1.00565 0.75992 0.29819 0.0
H4372 H 1.019 0.73946 0.3096 0.0
H4373 H 1.01668 0.74223 0.20911 0.0
H4374 H 1.00975 0.76506 0.22159 0.0
H4375 H 0.03555 0.75847 0.21961 0.0
H4376 H 0.98578 0.81892 0.25986 0.0
H4377 H 0.0493 0.82158 0.26426 0.0
H4378 H 0.97908 0.76827 0.26998 0.0
H4379 H 0.98134 0.76957 0.24346 0.0
H4380 H 0.96816 0.78895 0.25654 0.0
H4381 H 0.05794 0.77205 0.27607 0.0
H4382 H 0.06899 0.79269 0.26262 0.0
H4383 H 0.05839 0.77156 0.24944 0.0
C4384 C 0.56873 0.75467 0.49577 0.0
C4385 C 0.58084 0.7685 0.5072 0.0
C4386 C 0.54644 0.75412 0.49522 0.0
C4387 C 0.53361 0.76774 0.50621 0.0
C4388 C 0.54572 0.78172 0.51755 0.0
C4389 C 0.56787 0.7819 0.51778 0.0
C4390 C 0.53647 0.73848 0.48244 0.0
C4391 C 0.535 0.79709 0.5298 0.0
C4392 C 0.47423 0.77733 0.49076 0.0
C4393 C 0.46111 0.76863 0.50562 0.0
C4394 C 0.49639 0.77725 0.49079 0.0
C4395 C 0.50851 0.76768 0.50594 0.0
C4396 C 0.49561 0.75911 0.52125 0.0
C4397 C 0.47337 0.76019 0.52111 0.0
C4398 C 0.50698 0.78823 0.47427 0.0
C4399 C 0.50506 0.74817 0.53844 0.0
H4400 H 0.57676 0.74395 0.4868 0.0
H4401 H 0.5752 0.79318 0.52655 0.0
H4402 H 0.52407 0.73112 0.49072 0.0
H4403 H 0.5299 0.74569 0.46906 0.0
H4404 H 0.54716 0.72691 0.4774 0.0
H4405 H 0.54537 0.80838 0.53624 0.0
H4406 H 0.52369 0.80488 0.52051 0.0
H4407 H 0.5269 0.78952 0.54214 0.0
H4408 H 0.46695 0.78492 0.47848 0.0
H4409 H 0.4658 0.75491 0.53398 0.0
H4410 H 0.51447 0.77734 0.4644 0.0
H4411 H 0.51873 0.79825 0.48053 0.0
H4412 H 0.49656 0.79729 0.46508 0.0
H4413 H 0.50156 0.73199 0.53702 0.0
H4414 H 0.49855 0.75337 0.55271 0.0
H4415 H 0.52154 0.75 0.53912 0.0
C4416 C 0.97377 0.76458 0.5493 0.0
C4417 C 0.96166 0.77611 0.53562 0.0
C4418 C 0.99608 0.76346 0.54938 0.0
C4419 C 1.00919 0.77412 0.53557 0.0
C4420 C 0.99708 0.78584 0.52185 0.0
C4421 C 0.97481 0.78666 0.52207 0.0
C4422 C 1.00584 0.75053 0.56492 0.0
C4423 C 1.00789 0.79798 0.50632 0.0
C4424 C 0.07048 0.78499 0.54548 0.0
C4425 C 0.08206 0.77079 0.53414 0.0
C4426 C 0.04815 0.78617 0.54612 0.0
C4427 C 0.03449 0.77295 0.53526 0.0
C4428 C 0.04605 0.75855 0.52397 0.0
C4429 C 0.0683 0.75768 0.5237 0.0
C4430 C 0.03897 0.80198 0.55902 0.0
C4431 C 0.03468 0.74327 0.51195 0.0
H4432 H 0.96567 0.75613 0.56048 0.0
H4433 H 0.96755 0.79609 0.51119 0.0
H4434 H 1.01574 0.73949 0.55763 0.0
H4435 H 1.01541 0.75994 0.57474 0.0
H4436 H 0.99474 0.74243 0.57425 0.0
H4437 H 0.99754 0.80716 0.49719 0.0
H4438 H 1.01902 0.80799 0.51359 0.0
H4439 H 1.01624 0.78783 0.49631 0.0
H4440 H 0.07901 0.79557 0.55434 0.0
H4441 H 0.07504 0.74603 0.51503 0.0
H4442 H 0.02946 0.79481 0.57057 0.0
H4443 H 0.02911 0.81164 0.54985 0.0
H4444 H 0.05042 0.81148 0.56649 0.0
H4445 H 0.02673 0.73291 0.5222 0.0
H4446 H 0.04463 0.73439 0.50218 0.0
H4447 H 0.02319 0.75068 0.50258 0.0
C4448 C 0.03492 0.21872 0.28737 0.0
C4449 C 1.01689 0.2066 0.2879 0.0
C4450 C 0.03617 0.24099 0.28701 0.0
C4451 C 1.01902 0.25428 0.28701 0.0
C4452 C 1.00071 0.24228 0.28783 0.0
C4453 C 1.00003 0.22 0.28909 0.0
C4454 C 0.05662 0.25047 0.28754 0.0
C4455 C 0.98104 0.25305 0.28684 0.0
C4456 C 1.01855 0.31494 0.30308 0.0
C4457 C 0.02326 0.32716 0.28585 0.0
C4458 C 1.01759 0.29264 0.30373 0.0
C4459 C 1.02029 0.27958 0.28656 0.0
C4460 C 0.02451 0.29182 0.26902 0.0
C4461 C 0.02621 0.31405 0.26903 0.0
C4462 C 1.01458 0.28289 0.32375 0.0
C4463 C 0.02738 0.28145 0.24936 0.0
H4464 H 0.04883 0.21055 0.28786 0.0
H4465 H 0.98566 0.21308 0.29175 0.0
H4466 H 0.05911 0.25921 0.27371 0.0
H4467 H 0.05765 0.26106 0.30025 0.0
H4468 H 0.06872 0.23926 0.289 0.0
H4469 H 0.96827 0.24323 0.29107 0.0
H4470 H 0.98109 0.26644 0.29653 0.0
H4471 H 0.97863 0.25831 0.27131 0.0
H4472 H 1.01585 0.32291 0.3168 0.0
H4473 H 0.02962 0.32132 0.25508 0.0
H4474 H 0.02852 0.27502 0.32806 0.0
H4475 H 1.00251 0.27148 0.32309 0.0
H4476 H 1.01092 0.29388 0.33556 0.0
H4477 H 0.04347 0.27799 0.24747 0.0
H4478 H 0.02286 0.29121 0.23674 0.0
H4479 H 1.01872 0.26725 0.24854 0.0
C4480 C 0.53795 0.81463 0.79099 0.0
C4481 C 0.52171 0.82847 0.78762 0.0
C4482 C 0.53666 0.79238 0.7914 0.0
C4483 C 0.51885 0.78062 0.78632 0.0
C4484 C 0.50253 0.79453 0.78185 0.0
C4485 C 0.50392 0.81685 0.78321 0.0
C4486 C 0.5552 0.78172 0.79828 0.0
C4487 C 0.48285 0.78621 0.77463 0.0
C4488 C 0.52981 0.71947 0.77498 0.0
C4489 C 0.51556 0.7072 0.78573 0.0
C4490 C 0.5305 0.74181 0.77433 0.0
C4491 C 0.51747 0.75512 0.78576 0.0
C4492 C 0.50326 0.74273 0.7969 0.0
C4493 C 0.50242 0.72047 0.79641 0.0
C4494 C 0.54592 0.75088 0.76069 0.0
C4495 C 0.48859 0.75266 0.81062 0.0
H4496 H 0.55245 0.82117 0.79389 0.0
H4497 H 0.49059 0.82534 0.77987 0.0
H4498 H 0.55238 0.76586 0.80222 0.0
H4499 H 0.56671 0.78258 0.78641 0.0
H4500 H 0.56152 0.78929 0.81161 0.0
H4501 H 0.47688 0.79556 0.76231 0.0
H4502 H 0.48405 0.7706 0.76925 0.0
H4503 H 0.47183 0.7868 0.78696 0.0
H4504 H 0.54112 0.71146 0.76674 0.0
H4505 H 0.49085 0.71337 0.80501 0.0
H4506 H 0.56085 0.7499 0.7679 0.0
H4507 H 0.54275 0.76671 0.75704 0.0
H4508 H 0.54669 0.74226 0.74657 0.0
H4509 H 0.49332 0.768 0.81485 0.0
H4510 H 0.4866 0.74373 0.82446 0.0
H4511 H 0.47378 0.75327 0.80314 0.0
C4512 C 0.98737 0.4722 0.78126 0.0
C4513 C 1.00166 0.45815 0.77343 0.0
C4514 C 0.98821 0.49433 0.77989 0.0
C4515 C 1.00313 0.50565 0.76873 0.0
C4516 C 1.01737 0.49158 0.75996 0.0
C4517 C 1.01659 0.46933 0.76244 0.0
C4518 C 0.97242 0.50539 0.79133 0.0
C4519 C 0.03371 0.49961 0.74675 0.0
C4520 C 0.98646 0.56379 0.75321 0.0
C4521 C 1.0007 0.57823 0.76087 0.0
C4522 C 0.98743 0.54171 0.75488 0.0
C4523 C 1.00287 0.53085 0.76566 0.0
C4524 C 1.01723 0.54527 0.77401 0.0
C4525 C 1.01601 0.56752 0.77169 0.0
C4526 C 0.97137 0.53009 0.74405 0.0
C4527 C 0.03388 0.53721 0.78674 0.0
H4528 H 0.97455 0.46571 0.78871 0.0
H4529 H 0.02752 0.46059 0.7545 0.0
H4530 H 0.97239 0.5217 0.78853 0.0
H4531 H 0.95738 0.49916 0.78778 0.0
H4532 H 0.97506 0.50304 0.80748 0.0
H4533 H 0.03457 0.4906 0.73289 0.0
H4534 H 0.03154 0.51551 0.74264 0.0
H4535 H 0.04829 0.49806 0.75454 0.0
H4536 H 0.97357 0.56994 0.74569 0.0
H4537 H 0.02701 0.57665 0.77935 0.0
H4538 H 0.96892 0.51492 0.75018 0.0
H4539 H 0.97591 0.52842 0.72824 0.0
H4540 H 0.95694 0.53821 0.74431 0.0
H4541 H 0.02741 0.5296 0.79998 0.0
H4542 H 0.04434 0.54913 0.79184 0.0
H4543 H 0.0425 0.52593 0.77836 0.0
C4544 C 0.22136 0.26469 0.51035 0.0
C4545 C 0.2088 0.24893 0.5182 0.0
C4546 C 0.24364 0.26571 0.51146 0.0
C4547 C 0.25618 0.25079 0.52103 0.0
C4548 C 0.24375 0.23494 0.52914 0.0
C4549 C 0.22162 0.23422 0.52751 0.0
C4550 C 0.25409 0.28322 0.50192 0.0
C4551 C 0.25402 0.21826 0.54011 0.0
C4552 C 0.31708 0.24295 0.51065 0.0
C4553 C 0.32859 0.25249 0.52634 0.0
C4554 C 0.29493 0.2425 0.50867 0.0
C4555 C 0.28126 0.25167 0.52269 0.0
C4556 C 0.29256 0.26095 0.53878 0.0
C4557 C 0.31474 0.26066 0.54052 0.0
C4558 C 0.28602 0.23131 0.49132 0.0
C4559 C 0.28112 0.27142 0.55492 0.0
H4560 H 0.21399 0.27658 0.50294 0.0
H4561 H 0.2141 0.22144 0.53408 0.0
H4562 H 0.26368 0.29093 0.5131 0.0
H4563 H 0.26405 0.27781 0.48989 0.0
H4564 H 0.24346 0.29413 0.4955 0.0
H4565 H 0.24327 0.20711 0.54621 0.0
H4566 H 0.26449 0.21052 0.52996 0.0
H4567 H 0.26306 0.2245 0.55258 0.0
H4568 H 0.32567 0.23497 0.49959 0.0
H4569 H 0.32103 0.26583 0.55413 0.0
H4570 H 0.27481 0.24072 0.48355 0.0
H4571 H 0.27808 0.21779 0.49686 0.0
H4572 H 0.29754 0.22657 0.48044 0.0
H4573 H 0.27741 0.28671 0.54971 0.0
H4574 H 0.29002 0.27278 0.56886 0.0
H4575 H 0.26686 0.26354 0.5583 0.0
C4576 C 0.51648 0.47325 0.27772 0.0
C4577 C 0.53308 0.46139 0.2711 0.0
C4578 C 0.51618 0.4954 0.27885 0.0
C4579 C 0.53249 0.50832 0.27236 0.0
C4580 C 0.54902 0.49644 0.26502 0.0
C4581 C 0.54923 0.47429 0.26482 0.0
C4582 C 0.49787 0.50512 0.28734 0.0
C4583 C 0.567 0.5073 0.25684 0.0
C4584 C 0.52461 0.56883 0.25988 0.0
C4585 C 0.53338 0.58026 0.27591 0.0
C4586 C 0.52394 0.54664 0.25865 0.0
C4587 C 0.53247 0.53329 0.27354 0.0
C4588 C 0.54131 0.54472 0.28964 0.0
C4589 C 0.54181 0.56678 0.2904 0.0
C4590 C 0.51438 0.53736 0.24056 0.0
C4591 C 0.55046 0.53347 0.3068 0.0
H4592 H 0.50331 0.46508 0.28252 0.0
H4593 H 0.56239 0.46695 0.25907 0.0
H4594 H 0.50223 0.51657 0.29854 0.0
H4595 H 0.4896 0.51286 0.27527 0.0
H4596 H 0.48764 0.49409 0.29445 0.0
H4597 H 0.57704 0.49718 0.24845 0.0
H4598 H 0.56225 0.51963 0.24682 0.0
H4599 H 0.57563 0.51407 0.26929 0.0
H4600 H 0.51846 0.57735 0.2476 0.0
H4601 H 0.54886 0.57355 0.30313 0.0
H4602 H 0.50188 0.5274 0.24515 0.0
H4603 H 0.52548 0.52797 0.2327 0.0
H4604 H 0.50851 0.54873 0.23002 0.0
H4605 H 0.5386 0.52475 0.31453 0.0
H4606 H 0.55787 0.54354 0.31776 0.0
H4607 H 0.56163 0.52265 0.30124 0.0
C4608 C 0.32101 0.76821 0.02354 0.0
C4609 C 0.33241 0.78643 0.02118 0.0
C4610 C 0.29877 0.76654 0.02409 0.0
C4611 C 0.28514 0.78349 0.02359 0.0
C4612 C 0.29655 0.80196 0.02228 0.0
C4613 C 0.31866 0.80304 0.02087 0.0
C4614 C 0.29003 0.74578 0.02488 0.0
C4615 C 0.28531 0.82134 0.0235 0.0
C4616 C 0.22408 0.78331 1.01 0.0
C4617 C 0.21299 0.77967 0.02806 0.0
C4618 C 0.24626 0.78428 1.00832 0.0
C4619 C 0.26006 0.78219 0.02505 0.0
C4620 C 0.2489 0.77901 0.04337 0.0
C4621 C 0.22676 0.77774 0.04453 0.0
C4622 C 0.25491 0.78757 0.98788 0.0
C4623 C 0.26055 0.77705 0.06249 0.0
H4624 H 0.3294 0.75479 0.02594 0.0
H4625 H 0.32543 0.81777 1.01999 0.0
H4626 H 0.27452 0.74546 0.03067 0.0
H4627 H 0.28975 0.73958 1.00954 0.0
H4628 H 0.29946 0.73584 0.0342 0.0
H4629 H 0.29528 0.83459 0.02193 0.0
H4630 H 0.27364 0.82197 1.01176 0.0
H4631 H 0.27756 0.82219 0.0381 0.0
H4632 H 0.21529 0.78535 0.99657 0.0
H4633 H 0.22011 0.77553 0.05903 0.0
H4634 H 0.2688 0.77879 0.98586 0.0
H4635 H 0.25876 0.8036 0.986 0.0
H4636 H 0.24407 0.78344 0.97597 0.0
H4637 H 0.26842 0.7625 0.06264 0.0
H4638 H 0.25077 0.77779 0.07582 0.0
H4639 H 0.2721 0.78903 0.06352 0.0
C4640 C 0.79407 1.01092 0.47749 0.0
C4641 C 0.779 1.00445 0.46338 0.0
C4642 C 0.79253 1.01029 0.49962 0.0
C4643 C 0.77535 1.00262 0.51059 0.0
C4644 C 0.7601 0.99581 0.49648 0.0
C4645 C 0.76202 0.99673 0.47433 0.0
C4646 C 0.81004 1.01795 0.51156 0.0
C4647 C 0.74077 0.98787 0.50488 0.0
C4648 C 0.77489 0.98299 0.56984 0.0
C4649 C 0.77081 0.99946 0.58323 0.0
C4650 C 0.77672 0.98382 0.54776 0.0
C4651 C 0.77361 1.00165 0.53575 0.0
C4652 C 0.7695 1.01847 0.54899 0.0
C4653 C 0.76886 1.01731 0.57124 0.0
C4654 C 0.78276 0.96492 0.53727 0.0
C4655 C 0.76548 0.03863 0.53994 0.0
H4656 H 0.80781 1.0165 0.47113 0.0
H4657 H 0.74964 0.99122 0.4654 0.0
H4658 H 0.80534 0.03106 0.52048 0.0
H4659 H 0.81507 1.00626 0.52219 0.0
H4660 H 0.82283 0.02246 0.50199 0.0
H4661 H 0.73103 0.98112 0.49322 0.0
H4662 H 0.7437 0.97652 0.51655 0.0
H4663 H 0.73259 1.00031 0.51207 0.0
H4664 H 0.7773 0.96863 0.57688 0.0
H4665 H 0.7674 0.03109 0.5791 0.0
H4666 H 0.79314 0.96823 0.52477 0.0
H4667 H 0.76928 0.95747 0.53101 0.0
H4668 H 0.79012 0.95426 0.54762 0.0
H4669 H 0.77662 0.04962 0.54563 0.0
H4670 H 0.75051 0.04379 0.54474 0.0
H4671 H 0.76589 0.0386 0.52342 0.0
C4672 C 0.80931 1.00998 0.31758 0.0
C4673 C 0.79316 1.01218 0.33174 0.0
C4674 C 0.80788 1.01083 0.29549 0.0
C4675 C 0.78949 1.01411 0.28442 0.0
C4676 C 0.77306 1.01694 0.29845 0.0
C4677 C 0.7751 1.01638 0.32065 0.0
C4678 C 0.82695 1.00847 0.28388 0.0
C4679 C 0.75241 0.02026 0.29015 0.0
C4680 C 0.78528 0.03408 0.22544 0.0
C4681 C 0.7854 1.01715 0.21209 0.0
C4682 C 0.78691 0.03339 0.24755 0.0
C4683 C 0.78784 1.0151 0.25929 0.0
C4684 C 0.78752 0.99788 0.24597 0.0
C4685 C 0.78685 0.99905 0.22376 0.0
C4686 C 0.78812 0.05297 0.25851 0.0
C4687 C 0.78756 0.97744 0.25532 0.0
H4688 H 0.82403 1.00776 0.32395 0.0
H4689 H 0.76216 0.02017 0.32926 0.0
H4690 H 0.8274 1.0189 0.27099 0.0
H4691 H 0.8404 1.01113 0.29331 0.0
H4692 H 0.82773 0.99302 0.278 0.0
H4693 H 0.74347 0.02986 0.30021 0.0
H4694 H 0.7527 0.02711 0.27511 0.0
H4695 H 0.74468 1.00558 0.28892 0.0
H4696 H 0.78439 0.04862 0.21845 0.0
H4697 H 0.787 0.98521 0.21543 0.0
H4698 H 0.80115 0.05295 0.26882 0.0
H4699 H 0.77449 0.05494 0.26767 0.0
H4700 H 0.78954 0.06592 0.24821 0.0
H4701 H 0.80278 0.97409 0.26094 0.0
H4702 H 0.78318 0.96563 0.24451 0.0
H4703 H 0.77717 0.97689 0.26821 0.0
C4704 C 0.78449 0.04359 0.97561 0.0
C4705 C 0.76916 0.03428 0.96351 0.0
C4706 C 0.78549 0.0431 0.99782 0.0
C4707 C 0.77105 0.03282 1.01055 0.0
C4708 C 0.75556 0.0236 0.99841 0.0
C4709 C 0.7548 0.02466 0.97637 0.0
C4710 C 0.80244 0.05409 1.00782 0.0
C4711 C 0.73858 1.01293 1.00869 0.0
C4712 C 0.77794 1.01503 0.07002 0.0
C4713 C 0.77143 0.03105 0.08274 0.0
C4714 C 0.77865 1.01566 0.04778 0.0
C4715 C 0.7716 0.03227 0.03558 0.0
C4716 C 0.76417 0.04803 0.04828 0.0
C4717 C 0.76459 0.04736 0.07031 0.0
C4718 C 0.78743 0.99806 0.03709 0.0
C4719 C 0.75514 0.06619 0.0386 0.0
H4720 H 0.796 0.05177 0.96767 0.0
H4721 H 0.74219 1.01784 0.96906 0.0
H4722 H 0.79646 0.0671 1.01606 0.0
H4723 H 0.80988 0.04422 1.01886 0.0
H4724 H 0.81373 0.0596 0.99697 0.0
H4725 H 0.73263 1.00059 0.99932 0.0
H4726 H 0.74307 1.00668 0.02333 0.0
H4727 H 0.7263 0.0237 1.01122 0.0
H4728 H 0.7819 1.00132 0.0773 0.0
H4729 H 0.75883 0.06028 0.07807 0.0
H4730 H 0.80184 1.00267 0.03022 0.0
H4731 H 0.77739 0.99306 0.02486 0.0
H4732 H 0.79018 0.98527 0.04724 0.0
H4733 H 0.76724 0.07687 0.03464 0.0
H4734 H 0.74468 0.07392 0.04882 0.0
H4735 H 0.74693 0.06218 0.02474 0.0
C4736 C 0.76058 0.99905 0.72814 0.0
C4737 C 0.75763 1.01509 0.71404 0.0
C4738 C 0.7597 1.0006 0.75022 0.0
C4739 C 0.75606 1.01904 0.76109 0.0
C4740 C 0.75299 0.03535 0.74696 0.0
C4741 C 0.75355 0.03325 0.72484 0.0
C4742 C 0.76236 0.9817 0.76207 0.0
C4743 C 0.74957 0.05587 0.75535 0.0
C4744 C 0.73604 0.02556 0.81954 0.0
C4745 C 0.75279 0.02602 0.83331 0.0
C4746 C 0.7368 0.02293 0.7976 0.0
C4747 C 0.7551 0.02114 0.78616 0.0
C4748 C 0.77218 0.02072 0.79982 0.0
C4749 C 0.77081 0.02242 0.82202 0.0
C4750 C 0.71712 0.02109 0.78673 0.0
C4751 C 0.79265 1.01773 0.7911 0.0
H4752 H 0.76329 0.98448 0.72178 0.0
H4753 H 0.75097 0.04644 0.71585 0.0
H4754 H 0.77711 0.98206 0.76963 0.0
H4755 H 0.75067 0.98049 0.77375 0.0
H4756 H 0.76172 0.96816 0.75252 0.0
H4757 H 0.74794 0.06736 0.7435 0.0
H4758 H 0.7359 0.05587 0.76463 0.0
H4759 H 0.76231 0.0601 0.76518 0.0
H4760 H 0.72136 0.0269 0.82616 0.0
H4761 H 0.78434 0.02038 0.83049 0.0
H4762 H 0.71819 1.01071 0.77388 0.0
H4763 H 0.71264 0.03593 0.78098 0.0
H4764 H 0.70506 1.01567 0.79678 0.0
H4765 H 0.79636 1.00162 0.7917 0.0
H4766 H 0.80423 0.02566 0.79989 0.0
H4767 H 0.79354 0.02287 0.77538 0.0
C4768 C 0.47616 0.78813 1.01573 0.0
C4769 C 0.46219 0.77322 1.00855 0.0
C4770 C 0.49834 0.78719 1.01489 0.0
C4771 C 0.50954 0.77077 1.00638 0.0
C4772 C 0.49564 0.75569 0.99871 0.0
C4773 C 0.47336 0.75705 0.99976 0.0
C4774 C 0.51004 0.80458 0.02319 0.0
C4775 C 0.50445 0.73752 0.98902 0.0
C4776 C 0.56996 0.77684 0.99044 0.0
C4777 C 0.58218 0.76759 1.00566 0.0
C4778 C 0.54763 0.77771 0.99028 0.0
C4779 C 0.53474 0.76948 1.00583 0.0
C4780 C 0.54698 0.76019 0.02114 0.0
C4781 C 0.56919 0.75929 0.02075 0.0
C4782 C 0.5376 0.78749 0.97273 0.0
C4783 C 0.53638 0.7509 0.03863 0.0
H4784 H 0.46962 0.80138 0.02196 0.0
H4785 H 0.46458 0.74495 0.99345 0.0
H4786 H 0.52176 0.79918 0.0336 0.0
H4787 H 0.51771 0.81253 1.01083 0.0
H4788 H 0.50037 0.81536 0.03114 0.0
H4789 H 0.49287 0.728 0.98178 0.0
H4790 H 0.51568 0.74207 0.9777 0.0
H4791 H 0.51235 0.7285 1.00045 0.0
H4792 H 0.57792 0.78333 0.97795 0.0
H4793 H 0.57656 0.75191 0.03297 0.0
H4794 H 0.52915 0.80074 0.97783 0.0
H4795 H 0.52662 0.77698 0.96592 0.0
H4796 H 0.54848 0.79228 0.96116 0.0
H4797 H 0.52774 0.76254 0.04658 0.0
H4798 H 0.54688 0.74378 0.0493 0.0
H4799 H 0.52551 0.73947 0.03332 0.0
C4800 C 0.97512 0.75407 0.03115 0.0
C4801 C 0.96205 0.76979 0.03768 0.0
C4802 C 0.99727 0.75459 0.03119 0.0
C4803 C 1.0092 0.77134 0.03817 0.0
C4804 C 0.99624 0.78739 0.04487 0.0
C4805 C 0.97397 0.78644 0.04465 0.0
C4806 C 1.00816 0.73655 0.02359 0.0
C4807 C 1.00609 0.80629 0.05218 0.0
C4808 C 0.06819 0.76698 0.05677 0.0
C4809 C 0.08163 0.77212 0.04063 0.0
C4810 C 0.04607 0.76656 0.05612 0.0
C4811 C 0.03427 0.77178 0.03878 0.0
C4812 C 0.04748 0.77673 0.02219 0.0
C4813 C 0.06973 0.77649 0.02323 0.0
C4814 C 0.03511 0.75997 0.0746 0.0
C4815 C 0.0384 0.78249 1.00247 0.0
H4816 H 0.96787 0.74059 0.02613 0.0
H4817 H 0.96581 0.79924 0.05008 0.0
H4818 H 1.01745 0.74087 1.01056 0.0
H4819 H 1.01844 0.73087 0.0353 0.0
H4820 H 0.99781 0.72432 1.01908 0.0
H4821 H 0.99503 0.8178 0.05648 0.0
H4822 H 1.01574 0.80298 0.06524 0.0
H4823 H 1.01592 0.81246 0.04032 0.0
H4824 H 0.07521 0.76299 0.07078 0.0
H4825 H 0.07756 0.77963 1.0098 0.0
H4826 H 0.02435 0.7478 0.07087 0.0
H4827 H 0.02635 0.77261 0.0806 0.0
H4828 H 0.04542 0.75459 0.08643 0.0
H4829 H 0.04265 0.77131 0.99105 0.0
H4830 H 0.04466 0.79712 0.99762 0.0
H4831 H 0.02186 0.78357 1.00292 0.0
C4832 C 1.01785 0.22068 0.79821 0.0
C4833 C 0.02444 0.20906 0.78142 0.0
C4834 C 1.0168 0.24283 0.79892 0.0
C4835 C 0.02175 0.25592 0.78228 0.0
C4836 C 0.02827 0.24425 0.76531 0.0
C4837 C 0.0298 0.22219 0.76525 0.0
C4838 C 1.01044 0.25234 0.81819 0.0
C4839 C 0.0338 0.25528 0.74654 0.0
C4840 C 1.0005 0.31382 0.77782 0.0
C4841 C 1.01674 0.32764 0.78135 0.0
C4842 C 1.00185 0.29176 0.77809 0.0
C4843 C 1.02003 0.28084 0.78238 0.0
C4844 C 0.03642 0.29464 0.78659 0.0
C4845 C 0.03468 0.31676 0.78602 0.0
C4846 C 0.98316 0.27989 0.77368 0.0
C4847 C 0.05629 0.28588 0.79229 0.0
H4848 H 1.01379 0.21237 0.81148 0.0
H4849 H 0.03514 0.21509 0.75185 0.0
H4850 H 1.02022 0.26533 0.82179 0.0
H4851 H 0.99493 0.25793 0.81662 0.0
H4852 H 1.01085 0.2416 0.83083 0.0
H4853 H 0.03621 0.245 0.7338 0.0
H4854 H 0.02188 0.26605 0.74252 0.0
H4855 H 0.04775 0.26398 0.7491 0.0
H4856 H 0.98604 0.32036 0.775 0.0
H4857 H 0.04785 0.32565 0.7894 0.0
H4858 H 0.97894 0.27096 0.78698 0.0
H4859 H 0.986 0.26924 0.76135 0.0
H4860 H 0.97037 0.28955 0.76954 0.0
H4861 H 0.05454 0.27669 0.80598 0.0
H4862 H 0.06785 0.29756 0.79506 0.0
H4863 H 0.0616 0.27582 0.78033 0.0
C4864 C 0.472 0.28171 0.54065 0.0
C4865 C 0.46026 0.264 0.53643 0.0
C4866 C 0.49429 0.28301 0.54106 0.0
C4867 C 0.50765 0.26625 0.53758 0.0
C4868 C 0.49588 0.24825 0.53389 0.0
C4869 C 0.47364 0.24745 0.53329 0.0
C4870 C 0.50369 0.30304 0.54533 0.0
C4871 C 0.50702 0.22901 0.53106 0.0
C4872 C 0.5686 0.26823 0.52218 0.0
C4873 C 0.58055 0.269 0.54015 0.0
C4874 C 0.54625 0.26791 0.52107 0.0
C4875 C 0.5329 0.2673 0.53831 0.0
C4876 C 0.54483 0.26713 0.55643 0.0
C4877 C 0.56701 0.26798 0.55697 0.0
C4878 C 0.53708 0.26858 0.50058 0.0
C4879 C 0.53418 0.26571 0.57615 0.0
H4880 H 0.46364 0.29518 0.54363 0.0
H4881 H 0.46657 0.2331 0.53073 0.0
H4882 H 0.51088 0.30268 0.56026 0.0
H4883 H 0.51556 0.30637 0.53424 0.0
H4884 H 0.49256 0.31528 0.54512 0.0
H4885 H 0.49682 0.21614 0.52821 0.0
H4886 H 0.51755 0.23048 0.51838 0.0
H4887 H 0.51607 0.22584 0.5446 0.0
H4888 H 0.57658 0.26687 0.50843 0.0
H4889 H 0.57394 0.26723 0.5715 0.0
H4890 H 0.53715 0.28431 0.49531 0.0
H4891 H 0.52142 0.26303 0.50031 0.0
H4892 H 0.54605 0.2597 0.48991 0.0
H4893 H 0.53067 0.28099 0.5814 0.0
H4894 H 0.54374 0.25855 0.58767 0.0
H4895 H 0.51996 0.25712 0.57491 0.0
C4896 C 0.97316 0.27722 0.52484 0.0
C4897 C 0.95991 0.27457 0.50804 0.0
C4898 C 0.99528 0.27524 0.52451 0.0
C4899 C 1.00694 0.27125 0.50671 0.0
C4900 C 0.99372 0.26916 0.48955 0.0
C4901 C 0.97154 0.27037 0.49046 0.0
C4902 C 1.0064 0.27738 0.54391 0.0
C4903 C 1.00316 0.26582 0.4695 0.0
C4904 C 0.06827 0.28346 0.50382 0.0
C4905 C 0.07895 0.26492 0.50609 0.0
C4906 C 0.0461 0.28565 0.50398 0.0
C4907 C 0.03195 0.26913 0.5062 0.0
C4908 C 0.04267 0.25041 0.50794 0.0
C4909 C 0.06476 0.24871 0.50793 0.0
C4910 C 0.03768 0.30628 0.50153 0.0
C4911 C 0.0306 0.23148 0.51009 0.0
H4912 H 0.96611 0.28054 0.53893 0.0
H4913 H 0.96318 0.26842 0.47673 0.0
H4914 H 1.01624 0.26427 0.54626 0.0
H4915 H 1.01616 0.29085 0.54334 0.0
H4916 H 0.99615 0.27872 0.55684 0.0
H4917 H 0.99214 0.26698 0.45712 0.0
H4918 H 1.01532 0.27692 0.46698 0.0
H4919 H 1.01 0.25077 0.46911 0.0
H4920 H 0.07736 0.29679 0.50206 0.0
H4921 H 0.07104 0.23394 0.50896 0.0
H4922 H 0.02863 0.31016 0.51479 0.0
H4923 H 0.02752 0.30663 0.48841 0.0
H4924 H 0.04955 0.3178 0.49955 0.0
H4925 H 0.02365 0.23114 0.5251 0.0
H4926 H 0.03991 0.21791 0.50832 0.0
H4927 H 1.01831 0.23102 0.49894 0.0
C4928 C 0.99746 0.72409 0.76152 0.0
C4929 C 1.01334 0.71026 0.75693 0.0
C4930 C 0.99881 0.74636 0.76111 0.0
C4931 C 1.01673 0.75782 0.75606 0.0
C4932 C 0.03281 0.744 0.75122 0.0
C4933 C 0.03097 0.72172 0.75153 0.0
C4934 C 0.9802 0.75791 0.76582 0.0
C4935 C 0.05277 0.75292 0.74578 0.0
C4936 C 1.01748 0.8176 0.73741 0.0
C4937 C 0.02101 0.8309 0.75418 0.0
C4938 C 1.01602 0.79539 0.73778 0.0
C4939 C 1.01844 0.78313 0.7555 0.0
C4940 C 0.02215 0.7962 0.77261 0.0
C4941 C 0.02275 0.81861 0.77189 0.0
C4942 C 1.01119 0.7849 0.7185 0.0
C4943 C 0.02529 0.78633 0.79249 0.0
H4944 H 0.98318 0.71738 0.7652 0.0
H4945 H 0.04398 0.71309 0.74748 0.0
H4946 H 0.98314 0.76827 0.7784 0.0
H4947 H 0.97597 0.76715 0.75273 0.0
H4948 H 0.9674 0.748 0.76976 0.0
H4949 H 0.06412 0.74134 0.74253 0.0
H4950 H 0.05118 0.76269 0.73251 0.0
H4951 H 0.05828 0.76245 0.7582 0.0
H4952 H 1.0153 0.82484 0.72313 0.0
H4953 H 0.02383 0.82641 0.78583 0.0
H4954 H 0.99797 0.77496 0.72053 0.0
H4955 H 0.02389 0.77532 0.71409 0.0
H4956 H 1.00806 0.79552 0.70616 0.0
H4957 H 1.01059 0.78177 0.79869 0.0
H4958 H 0.03271 0.79652 0.80326 0.0
H4959 H 0.03453 0.77269 0.79092 0.0
C4960 C 0.50437 0.31905 0.25667 0.0
C4961 C 0.52175 0.33192 0.25907 0.0
C4962 C 0.50394 0.29678 0.2557 0.0
C4963 C 0.52139 0.28394 0.2576 0.0
C4964 C 0.53918 0.29674 0.25975 0.0
C4965 C 0.53915 0.31916 0.25972 0.0
C4966 C 0.48387 0.28717 0.25186 0.0
C4967 C 0.55926 0.28699 0.26214 0.0
C4968 C 0.5113 0.22349 0.27229 0.0
C4969 C 0.51911 0.2106 0.25691 0.0
C4970 C 0.51214 0.24578 0.27282 0.0
C4971 C 0.52084 0.25846 0.25733 0.0
C4972 C 0.52844 0.24561 0.24143 0.0
C4973 C 0.52771 0.22321 0.24153 0.0
C4974 C 0.50314 0.25574 0.29074 0.0
C4975 C 0.53674 0.25571 0.22316 0.0
H4976 H 0.49021 0.32667 0.255 0.0
H4977 H 0.55346 0.32658 0.25934 0.0
H4978 H 0.48518 0.27191 0.24556 0.0
H4979 H 0.4755 0.28627 0.26609 0.0
H4980 H 0.47491 0.29641 0.2414 0.0
H4981 H 0.56715 0.29341 0.27523 0.0
H4982 H 0.55822 0.27057 0.26418 0.0
H4983 H 0.56856 0.29033 0.24884 0.0
H4984 H 0.50429 0.21598 0.28467 0.0
H4985 H 0.53368 0.21546 0.22873 0.0
H4986 H 0.48712 0.25873 0.28766 0.0
H4987 H 0.51071 0.27015 0.29419 0.0
H4988 H 0.50391 0.24592 0.30408 0.0
H4989 H 0.52493 0.26501 0.21618 0.0
H4990 H 0.54222 0.24483 0.21197 0.0
H4991 H 0.54925 0.26584 0.22728 0.0
C4992 C 0.51494 0.06733 0.76988 0.0
C4993 C 0.53281 0.07945 0.76762 0.0
C4994 C 0.51414 0.04493 0.77078 0.0
C4995 C 0.53158 0.03184 0.77077 0.0
C4996 C 0.54959 0.044 0.76936 0.0
C4997 C 0.54984 0.06614 0.76782 0.0
C4998 C 0.49392 0.03507 0.77206 0.0
C4999 C 0.56947 0.03355 0.76969 0.0
C5000 C 0.53155 0.97231 0.7912 0.0
C5001 C 0.53168 0.95901 0.77422 0.0
C5002 C 0.531 0.99464 0.79042 0.0
C5003 C 0.53123 1.00657 0.77215 0.0
C5004 C 0.53215 0.99327 0.75507 0.0
C5005 C 0.53241 0.97107 0.7563 0.0
C5006 C 0.53067 1.00574 0.80989 0.0
C5007 C 0.53326 1.00269 0.73474 0.0
H5008 H 0.50118 0.0753 0.77194 0.0
H5009 H 0.56436 0.07331 0.76723 0.0
H5010 H 0.49252 0.02335 0.76041 0.0
H5011 H 0.49234 0.02758 0.78674 0.0
H5012 H 0.48155 0.04591 0.77021 0.0
H5013 H 0.58193 0.04391 0.77361 0.0
H5014 H 0.56935 0.02096 0.7805 0.0
H5015 H 0.57249 0.02731 0.7547 0.0
H5016 H 0.53277 0.9653 0.80564 0.0
H5017 H 0.53354 0.96286 0.74246 0.0
H5018 H 0.51643 1.01407 0.81112 0.0
H5019 H 0.54306 1.01687 0.81034 0.0
H5020 H 0.53203 0.99558 0.82292 0.0
H5021 H 0.52077 1.01338 0.73276 0.0
H5022 H 0.53265 0.99145 0.72259 0.0
H5023 H 0.54743 1.01132 0.73339 0.0
C5024 C 0.21961 0.26767 0.03107 0.0
C5025 C 0.20781 0.28064 1.01836 0.0
C5026 C 0.24202 0.26707 0.03244 0.0
C5027 C 0.25578 0.27994 0.02126 0.0
C5028 C 0.24405 0.29301 1.00845 0.0
C5029 C 0.22176 0.29327 1.00752 0.0
C5030 C 0.25118 0.25257 0.04688 0.0
C5031 C 0.25512 0.3071 0.99479 0.0
C5032 C 0.31501 0.29539 0.03601 0.0
C5033 C 0.32896 0.28194 0.02653 0.0
C5034 C 0.29274 0.29457 0.03495 0.0
C5035 C 0.28119 0.28022 0.02324 0.0
C5036 C 0.29509 0.26673 1.01321 0.0
C5037 C 0.31747 0.26776 1.0148 0.0
C5038 C 0.2814 0.30998 0.0466 0.0
C5039 C 0.28635 0.25076 0.99999 0.0
H5040 H 0.21115 0.25793 0.04086 0.0
H5041 H 0.21525 0.30414 0.99782 0.0
H5042 H 0.26144 0.24244 0.03883 0.0
H5043 H 0.26026 0.26087 0.05806 0.0
H5044 H 0.23973 0.24342 0.05474 0.0
H5045 H 0.24558 0.31974 0.98989 0.0
H5046 H 0.26882 0.31321 1.00196 0.0
H5047 H 0.25983 0.29873 0.98134 0.0
H5048 H 0.32171 0.30742 0.04456 0.0
H5049 H 0.32608 0.2574 1.00596 0.0
H5050 H 0.26818 0.3031 0.05397 0.0
H5051 H 0.27589 0.3217 0.03627 0.0
H5052 H 0.29093 0.31729 0.05811 0.0
H5053 H 0.28263 0.2375 1.00923 0.0
H5054 H 0.29717 0.24604 0.98841 0.0
H5055 H 0.27241 0.25588 0.99259 0.0
C5056 C 0.99392 0.06439 0.26137 0.0
C5057 C 1.00482 0.07573 0.27622 0.0
C5058 C 0.99317 0.04216 0.25969 0.0
C5059 C 1.00335 0.02833 0.27316 0.0
C5060 C 1.01406 0.03972 0.28833 0.0
C5061 C 1.01458 0.0619 0.28951 0.0
C5062 C 0.98092 0.03367 0.24282 0.0
C5063 C 0.02524 0.02837 0.30416 0.0
C5064 C 0.98466 0.96852 0.27444 0.0
C5065 C 1.00118 0.95539 0.26976 0.0
C5066 C 0.98516 0.9907 0.27583 0.0
C5067 C 1.00266 1.00309 0.2718 0.0
C5068 C 1.01943 0.99015 0.26679 0.0
C5069 C 1.01858 0.96784 0.26636 0.0
C5070 C 0.96613 1.00081 0.28208 0.0
C5071 C 0.03909 0.99961 0.26115 0.0
H5072 H 0.98553 0.07302 0.25058 0.0
H5073 H 0.02274 0.06856 0.30161 0.0
H5074 H 0.98543 1.01825 0.23888 0.0
H5075 H 0.96494 0.03344 0.24726 0.0
H5076 H 0.98219 0.04329 0.22936 0.0
H5077 H 0.02738 0.03746 0.31785 0.0
H5078 H 1.0173 1.01432 0.30821 0.0
H5079 H 0.04024 0.0244 0.29839 0.0
H5080 H 0.9705 0.96122 0.27755 0.0
H5081 H 0.03221 0.96038 0.26331 0.0
H5082 H 0.95704 1.00404 0.26862 0.0
H5083 H 0.96913 1.01509 0.28999 0.0
H5084 H 0.95708 0.99096 0.29195 0.0
H5085 H 0.04403 0.99359 0.24657 0.0
H5086 H 0.05061 0.99551 0.27236 0.0
H5087 H 0.03842 1.01612 0.25995 0.0
C5088 C 0.31931 0.74495 0.52907 0.0
C5089 C 0.33133 0.75925 0.51817 0.0
C5090 C 0.29704 0.74433 0.52967 0.0
C5091 C 0.28409 0.75844 0.5194 0.0
C5092 C 0.29612 0.77296 0.50859 0.0
C5093 C 0.31829 0.77298 0.50799 0.0
C5094 C 0.28717 0.72786 0.54143 0.0
C5095 C 0.28538 0.78931 0.49756 0.0
C5096 C 0.22407 0.75109 0.50421 0.0
C5097 C 0.21156 0.75842 0.52012 0.0
C5098 C 0.24626 0.75039 0.50408 0.0
C5099 C 0.25896 0.75817 0.51991 0.0
C5100 C 0.24657 0.76526 0.53623 0.0
C5101 C 0.22433 0.76447 0.53637 0.0
C5102 C 0.25621 0.74011 0.48683 0.0
C5103 C 0.25653 0.77421 0.55431 0.0
H5104 H 0.32742 0.73356 0.53717 0.0
H5105 H 0.32558 0.78441 0.49936 0.0
H5106 H 0.27818 0.73438 0.55365 0.0
H5107 H 0.27671 0.71938 0.53165 0.0
H5108 H 0.29819 0.71735 0.54796 0.0
H5109 H 0.29581 0.80096 0.49188 0.0
H5110 H 0.2771 0.78288 0.48472 0.0
H5111 H 0.27426 0.79645 0.50749 0.0
H5112 H 0.21626 0.74501 0.49139 0.0
H5113 H 0.21711 0.76775 0.55007 0.0
H5114 H 0.26745 0.72929 0.49242 0.0
H5115 H 0.26424 0.75126 0.47755 0.0
H5116 H 0.24528 0.73202 0.47723 0.0
H5117 H 0.24985 0.76788 0.5681 0.0
H5118 H 0.25369 0.79053 0.55442 0.0
H5119 H 0.27294 0.77191 0.55466 0.0
C5120 C 0.7628 0.5209 0.96616 0.0
C5121 C 0.77295 0.53669 0.95529 0.0
C5122 C 0.76127 0.51907 0.9884 0.0
C5123 C 0.76912 0.53363 1.00274 0.0
C5124 C 0.77863 0.54991 0.99186 0.0
C5125 C 0.7803 0.55097 0.9698 0.0
C5126 C 0.75042 0.50113 0.9966 0.0
C5127 C 0.78699 0.56736 1.00343 0.0
C5128 C 0.74739 0.5347 0.06145 0.0
C5129 C 0.76353 0.53048 0.07519 0.0
C5130 C 0.74893 0.53616 0.03933 0.0
C5131 C 0.76706 0.53233 0.02792 0.0
C5132 C 0.78334 0.52768 0.04169 0.0
C5133 C 0.78159 0.52729 0.06388 0.0
C5134 C 0.73039 0.54237 0.02823 0.0
C5135 C 0.80321 0.52231 0.0328 0.0
H5136 H 0.75497 0.50994 0.95726 0.0
H5137 H 0.78747 0.56403 0.96381 0.0
H5138 H 0.75809 0.49536 1.01012 0.0
H5139 H 0.73507 0.50552 1.00089 0.0
H5140 H 0.7492 0.48895 0.98545 0.0
H5141 H 0.78515 0.58151 0.99496 0.0
H5142 H 0.77976 0.56904 1.0182 0.0
H5143 H 0.80327 0.56517 1.00573 0.0
H5144 H 0.73295 0.53756 0.06812 0.0
H5145 H 0.79484 0.52385 0.07251 0.0
H5146 H 0.72139 0.52887 0.02462 0.0
H5147 H 0.73406 0.55026 1.01413 0.0
H5148 H 0.72097 0.55228 0.03754 0.0
H5149 H 0.80118 0.50985 0.02204 0.0
H5150 H 0.81429 0.51779 0.0443 0.0
H5151 H 0.80934 0.53524 0.02443 0.0
C5152 C 0.76827 0.52216 0.21806 0.0
C5153 C 0.75002 0.52126 0.20649 0.0
C5154 C 0.76986 0.52163 0.24028 0.0
C5155 C 0.75294 0.51952 0.25382 0.0
C5156 C 0.7346 0.51772 0.24236 0.0
C5157 C 0.73354 0.51851 0.22028 0.0
C5158 C 0.79046 0.52356 0.24919 0.0
C5159 C 0.71539 0.51453 0.25362 0.0
C5160 C 0.75892 0.4992 0.31223 0.0
C5161 C 0.75682 0.51571 0.32585 0.0
C5162 C 0.75779 0.50018 0.29017 0.0
C5163 C 0.75425 0.51834 0.27886 0.0
C5164 C 0.75169 0.53511 0.29245 0.0
C5165 C 0.75285 0.53367 0.31461 0.0
C5166 C 0.76036 0.48107 0.2787 0.0
C5167 C 0.7478 0.55528 0.28339 0.0
H5168 H 0.78195 0.52248 0.20991 0.0
H5169 H 0.71895 0.5163 0.21362 0.0
H5170 H 0.79419 0.53968 0.25078 0.0
H5171 H 0.79149 0.51651 0.26413 0.0
H5172 H 0.80183 0.51672 0.23935 0.0
H5173 H 0.70262 0.51092 0.24359 0.0
H5174 H 0.7171 0.50223 0.26462 0.0
H5175 H 0.71174 0.52827 0.26206 0.0
H5176 H 0.76115 0.48474 0.31899 0.0
H5177 H 0.75073 0.54715 0.32323 0.0
H5178 H 0.77362 0.4824 0.26886 0.0
H5179 H 0.74712 0.47846 0.26899 0.0
H5180 H 0.76231 0.46793 0.28864 0.0
H5181 H 0.76039 0.55944 0.27341 0.0
H5182 H 0.74603 0.56709 0.29485 0.0
H5183 H 0.73405 0.55464 0.2741 0.0
C5184 C 0.79204 0.50051 0.56147 0.0
C5185 C 0.77557 0.50405 0.57482 0.0
C5186 C 0.79093 0.49976 0.5394 0.0
C5187 C 0.77292 0.50357 0.52785 0.0
C5188 C 0.75622 0.50744 0.5412 0.0
C5189 C 0.75758 0.50721 0.56336 0.0
C5190 C 0.80973 0.49452 0.52835 0.0
C5191 C 0.73625 0.51213 0.53199 0.0
C5192 C 0.77649 0.51817 0.46722 0.0
C5193 C 0.76967 0.50125 0.45565 0.0
C5194 C 0.77719 0.5193 0.48944 0.0
C5195 C 0.77156 0.50304 0.50283 0.0
C5196 C 0.76517 0.48584 0.49131 0.0
C5197 C 0.76466 0.48521 0.46925 0.0
C5198 C 0.78432 0.53848 0.49878 0.0
C5199 C 0.75946 0.46712 0.50245 0.0
H5200 H 0.80638 0.49771 0.56844 0.0
H5201 H 0.74413 0.51009 0.57181 0.0
H5202 H 0.80636 0.48419 0.51581 0.0
H5203 H 0.81645 0.50832 0.52201 0.0
H5204 H 0.82098 0.48744 0.53828 0.0
H5205 H 0.72599 0.51921 0.54286 0.0
H5206 H 0.73808 0.52223 0.51896 0.0
H5207 H 0.72916 0.49809 0.52663 0.0
H5208 H 0.78242 0.53064 0.45892 0.0
H5209 H 0.76063 0.47119 0.46249 0.0
H5210 H 0.79689 0.53551 0.50917 0.0
H5211 H 0.77201 0.54502 0.50767 0.0
H5212 H 0.78934 0.54958 0.48752 0.0
H5213 H 0.77284 0.46118 0.51024 0.0
H5214 H 0.75333 0.45535 0.49244 0.0
H5215 H 0.74815 0.47051 0.51401 0.0
C5216 C 0.77148 0.53269 0.81028 0.0
C5217 C 0.7853 0.52394 0.82438 0.0
C5218 C 0.77198 0.53055 0.78818 0.0
C5219 C 0.78721 0.51974 0.77719 0.0
C5220 C 0.80156 0.51124 0.79124 0.0
C5221 C 0.80032 0.51308 0.8134 0.0
C5222 C 0.75543 0.54005 0.77634 0.0
C5223 C 0.81919 0.50038 0.7827 0.0
C5224 C 0.78231 0.49951 0.718 0.0
C5225 C 0.79024 0.51465 0.70472 0.0
C5226 C 0.78091 0.50098 0.74021 0.0
C5227 C 0.78828 0.51781 0.75206 0.0
C5228 C 0.79705 0.53269 0.73886 0.0
C5229 C 0.79786 0.53096 0.71676 0.0
C5230 C 0.77121 0.48389 0.75118 0.0
C5231 C 0.80648 0.55087 0.74826 0.0
H5232 H 0.75958 0.54141 0.81662 0.0
H5233 H 0.8119 0.50612 0.82227 0.0
H5234 H 0.76173 0.55163 0.76627 0.0
H5235 H 0.74802 0.5286 0.76682 0.0
H5236 H 0.74401 0.54708 0.78601 0.0
H5237 H 0.82877 0.49365 0.79444 0.0
H5238 H 0.81404 0.48843 0.77241 0.0
H5239 H 0.8284 0.51099 0.77381 0.0
H5240 H 0.77785 0.48561 0.71117 0.0
H5241 H 0.80517 0.54294 0.70863 0.0
H5242 H 0.75629 0.48868 0.75652 0.0
H5243 H 0.78015 0.47968 0.76447 0.0
H5244 H 0.76925 0.47052 0.74159 0.0
H5245 H 0.79473 0.56011 0.75526 0.0
H5246 H 0.81468 0.56023 0.73725 0.0
H5247 H 0.81701 0.54631 0.76023 0.0
C5248 C 0.50348 0.31517 0.75683 0.0
C5249 C 0.52062 0.32841 0.7569 0.0
C5250 C 0.50376 0.29309 0.75645 0.0
C5251 C 0.52184 0.28127 0.7565 0.0
C5252 C 0.53939 0.29441 0.75648 0.0
C5253 C 0.53861 0.31666 0.75641 0.0
C5254 C 0.48383 0.28247 0.75612 0.0
C5255 C 0.55979 0.28507 0.75655 0.0
C5256 C 0.51963 0.22176 0.77454 0.0
C5257 C 0.52175 0.20918 0.75728 0.0
C5258 C 0.51945 0.24393 0.77445 0.0
C5259 C 0.52216 0.25621 0.75675 0.0
C5260 C 0.52474 0.2436 0.73932 0.0
C5261 C 0.52431 0.22142 0.73975 0.0
C5262 C 0.51621 0.25444 0.79396 0.0
C5263 C 0.52804 0.25375 0.71957 0.0
H5264 H 0.48902 0.32219 0.75681 0.0
H5265 H 0.55262 0.32489 0.75634 0.0
H5266 H 0.48472 0.26753 0.74902 0.0
H5267 H 0.47854 0.28051 0.77167 0.0
H5268 H 0.47244 0.2914 0.74808 0.0
H5269 H 0.57058 0.29437 0.76517 0.0
H5270 H 0.55958 0.26975 0.76291 0.0
H5271 H 0.56532 0.28423 0.74099 0.0
H5272 H 0.51774 0.21414 0.78867 0.0
H5273 H 0.52652 0.21351 0.72587 0.0
H5274 H 0.50118 0.26138 0.79388 0.0
H5275 H 0.52742 0.26661 0.79592 0.0
H5276 H 0.51713 0.24406 0.80686 0.0
H5277 H 0.51514 0.26355 0.71612 0.0
H5278 H 0.52996 0.2429 0.70721 0.0
H5279 H 0.54156 0.26342 0.72041 0.0
C5280 C 0.48748 0.97384 0.28103 0.0
C5281 C 0.50272 0.95977 0.27503 0.0
C5282 C 0.48846 0.99606 0.27964 0.0
C5283 C 0.50535 1.00739 0.27177 0.0
C5284 C 0.52076 0.99341 0.26534 0.0
C5285 C 0.51913 0.97109 0.26649 0.0
C5286 C 0.4706 1.00763 0.28665 0.0
C5287 C 0.53973 1.00223 0.25706 0.0
C5288 C 0.50185 0.06736 0.25258 0.0
C5289 C 0.50874 0.08042 0.26842 0.0
C5290 C 0.50103 0.04499 0.25323 0.0
C5291 C 0.50672 0.03272 0.27038 0.0
C5292 C 0.51322 0.04581 0.28649 0.0
C5293 C 0.51383 0.06807 0.28542 0.0
C5294 C 0.49313 0.03428 0.23513 0.0
C5295 C 0.51932 0.03615 0.30581 0.0
H5296 H 0.47387 0.96727 0.28692 0.0
H5297 H 0.53095 0.96241 0.2599 0.0
H5298 H 0.47446 1.01556 0.30067 0.0
H5299 H 0.4664 0.0191 0.27544 0.0
H5300 H 0.45745 0.9978 0.28947 0.0
H5301 H 0.54963 0.99068 0.25059 0.0
H5302 H 0.53628 1.01353 0.24544 0.0
H5303 H 0.54795 1.01004 0.2692 0.0
H5304 H 0.49621 0.07468 0.23934 0.0
H5305 H 0.51833 0.07608 0.29873 0.0
H5306 H 0.47909 0.02625 0.23904 0.0
H5307 H 0.50403 0.02291 0.23017 0.0
H5308 H 0.49005 0.04466 0.22256 0.0
H5309 H 0.50582 0.03014 0.31339 0.0
H5310 H 0.5269 0.04685 0.31601 0.0
H5311 H 0.52945 0.02339 0.30296 0.0
C5312 C 0.81768 0.75192 0.04193 0.0
C5313 C 0.83169 0.75778 0.02658 0.0
C5314 C 0.79545 0.75216 0.04046 0.0
C5315 C 0.78425 0.75758 0.02264 0.0
C5316 C 0.7982 0.76311 1.00688 0.0
C5317 C 0.82044 0.76301 1.00889 0.0
C5318 C 0.78376 0.74579 0.05852 0.0
C5319 C 0.78945 0.76882 0.98701 0.0
C5320 C 0.7256 0.73829 1.01233 0.0
C5321 C 0.71166 0.75417 1.01665 0.0
C5322 C 0.74776 0.73923 1.01392 0.0
C5323 C 0.75906 0.75667 1.02038 0.0
C5324 C 0.74524 0.77287 0.02489 0.0
C5325 C 0.72292 0.7714 0.02346 0.0
C5326 C 0.75932 0.7207 1.00885 0.0
C5327 C 0.7542 0.79235 0.03176 0.0
H5328 H 0.82418 0.74678 0.05576 0.0
H5329 H 0.82924 0.76661 0.99583 0.0
H5330 H 0.7714 0.75641 0.06137 0.0
H5331 H 0.77693 0.73089 0.05574 0.0
H5332 H 0.79331 0.74485 0.07207 0.0
H5333 H 0.8011 0.77353 0.97618 0.0
H5334 H 0.78105 0.75592 0.98071 0.0
H5335 H 0.77864 0.78118 0.98894 0.0
H5336 H 0.71894 0.72424 1.00768 0.0
H5337 H 0.71423 0.78401 0.02841 0.0
H5338 H 0.76759 0.71549 0.02224 0.0
H5339 H 0.77057 0.72417 0.9972 0.0
H5340 H 0.74949 0.70838 1.00346 0.0
H5341 H 0.76189 0.79011 0.04627 0.0
H5342 H 0.74275 0.80417 0.03347 0.0
H5343 H 0.76565 0.79753 0.02093 0.0
C5344 C 0.04383 0.0669 0.78519 0.0
C5345 C 0.03413 0.08036 0.77148 0.0
C5346 C 0.04361 0.04481 0.78431 0.0
C5347 C 0.03273 0.0333 0.76951 0.0
C5348 C 0.02226 0.04662 0.75591 0.0
C5349 C 0.02343 0.06881 0.75672 0.0
C5350 C 0.05596 0.03361 0.79937 0.0
C5351 C 1.00964 0.03725 0.73982 0.0
C5352 C 0.04594 0.97438 0.75545 0.0
C5353 C 0.03254 0.96132 0.76621 0.0
C5354 C 0.04616 0.99652 0.7563 0.0
C5355 C 0.03254 1.00831 0.76825 0.0
C5356 C 1.01881 0.99528 0.779 0.0
C5357 C 1.01891 0.9731 0.77784 0.0
C5358 C 0.06164 1.00742 0.74414 0.0
C5359 C 1.00347 1.00496 0.79212 0.0
H5360 H 0.05198 0.0737 0.79722 0.0
H5361 H 1.01593 0.07725 0.74516 0.0
H5362 H 0.04625 0.02326 0.80799 0.0
H5363 H 0.06722 0.02439 0.79153 0.0
H5364 H 0.06389 0.04375 0.8099 0.0
H5365 H 1.00173 0.04858 0.73066 0.0
H5366 H 1.01918 0.02808 0.72995 0.0
H5367 H 0.99839 0.02706 0.74664 0.0
H5368 H 0.05661 0.96723 0.74578 0.0
H5369 H 1.00786 0.96486 0.78636 0.0
H5370 H 0.07362 1.01305 0.7542 0.0
H5371 H 0.05502 0.02052 0.73648 0.0
H5372 H 0.06847 0.99755 0.7328 0.0
H5373 H 1.01111 1.01254 0.80476 0.0
H5374 H 0.99254 0.99398 0.79819 0.0
H5375 H 0.99527 1.0166 0.78364 0.0
C5376 C 0.72435 0.28076 0.5417 0.0
C5377 C 0.71058 0.27944 0.52517 0.0
C5378 C 0.74639 0.28228 0.54036 0.0
C5379 C 0.75747 0.28145 0.52183 0.0
C5380 C 0.74377 0.27974 0.50499 0.0
C5381 C 0.7216 0.27924 0.50675 0.0
C5382 C 0.75791 0.28534 0.55945 0.0
C5383 C 0.75268 0.27786 0.48452 0.0
C5384 C 0.81533 0.30251 0.51466 0.0
C5385 C 0.82942 0.28643 0.51717 0.0
C5386 C 0.79331 0.30117 0.51592 0.0
C5387 C 0.7824 0.28293 0.5201 0.0
C5388 C 0.79629 0.26652 0.52326 0.0
C5389 C 0.8185 0.26845 0.5222 0.0
C5390 C 0.78158 0.32017 0.51358 0.0
C5391 C 0.78751 0.24638 0.52817 0.0
H5392 H 0.71773 0.28142 0.55635 0.0
H5393 H 0.71279 0.27821 0.49321 0.0
H5394 H 0.76588 0.27142 0.56341 0.0
H5395 H 0.7693 0.29735 0.55757 0.0
H5396 H 0.74799 0.28932 0.57208 0.0
H5397 H 0.74106 0.27653 0.47272 0.0
H5398 H 0.76229 0.29101 0.48121 0.0
H5399 H 0.76238 0.26447 0.48402 0.0
H5400 H 0.8217 0.31712 0.51219 0.0
H5401 H 0.82724 0.25567 0.52633 0.0
H5402 H 0.77328 0.32322 0.52755 0.0
H5403 H 0.77032 0.31851 0.50151 0.0
H5404 H 0.79129 0.33326 0.51012 0.0
H5405 H 0.77892 0.24722 0.54224 0.0
H5406 H 0.79912 0.23475 0.52992 0.0
H5407 H 0.77689 0.24178 0.51624 0.0
C5408 C 0.25696 0.50945 0.07063 0.0
C5409 C 0.27063 0.49891 0.08369 0.0
C5410 C 0.25823 0.5108 0.04834 0.0
C5411 C 0.27308 0.50072 0.03603 0.0
C5412 C 0.28626 0.48931 0.04897 0.0
C5413 C 0.28495 0.48869 0.07115 0.0
C5414 C 0.24263 0.52296 0.03775 0.0
C5415 C 0.30202 0.47678 0.03915 0.0
C5416 C 0.26477 0.49051 0.97458 0.0
C5417 C 0.27795 0.50355 0.96333 0.0
C5418 C 0.26321 0.48936 0.9968 0.0
C5419 C 0.27466 0.50169 1.01077 0.0
C5420 C 0.28789 0.51492 0.99951 0.0
C5421 C 0.28945 0.51543 0.97732 0.0
C5422 C 0.24895 0.47424 1.00551 0.0
C5423 C 0.30064 0.52936 1.01119 0.0
H5424 H 0.24419 0.51611 0.0776 0.0
H5425 H 0.29564 0.47942 0.07896 0.0
H5426 H 0.24879 0.53017 0.02415 0.0
H5427 H 0.23012 0.51298 0.03318 0.0
H5428 H 0.23653 0.5347 0.04756 0.0
H5429 H 0.31018 0.46726 0.05 0.0
H5430 H 0.29504 0.46704 0.02764 0.0
H5431 H 0.31297 0.48662 0.03146 0.0
H5432 H 0.25543 0.48052 0.96585 0.0
H5433 H 0.30009 0.52572 0.97082 0.0
H5434 H 0.23696 0.48208 1.01372 0.0
H5435 H 0.25694 0.46464 1.0164 0.0
H5436 H 0.24198 0.4646 0.99391 0.0
H5437 H 0.29086 0.53923 1.02015 0.0
H5438 H 0.31025 0.53878 1.00143 0.0
H5439 H 0.31031 0.5211 0.02179 0.0
C5440 C 0.28134 0.49753 0.81935 0.0
C5441 C 0.28717 0.51413 0.83189 0.0
C5442 C 0.28003 0.49776 0.79714 0.0
C5443 C 0.28562 0.51468 0.78457 0.0
C5444 C 0.29245 0.53113 0.79706 0.0
C5445 C 0.29303 0.53062 0.81919 0.0
C5446 C 0.27296 0.479 0.78693 0.0
C5447 C 0.30004 0.54985 0.78707 0.0
C5448 C 0.298 0.50673 0.72383 0.0
C5449 C 0.28263 0.51646 0.71223 0.0
C5450 C 0.2993 0.50622 0.74604 0.0
C5451 C 0.28468 0.5151 0.75944 0.0
C5452 C 0.26915 0.52482 0.74782 0.0
C5453 C 0.26857 0.52555 0.7257 0.0
C5454 C 0.31717 0.49612 0.75516 0.0
C5455 C 0.25242 0.53465 0.75898 0.0
H5456 H 0.27853 0.48355 0.82682 0.0
H5457 H 0.29886 0.5437 0.82678 0.0
H5458 H 0.26252 0.48262 0.77455 0.0
H5459 H 0.28601 0.47122 0.78047 0.0
H5460 H 0.26544 0.46857 0.79739 0.0
H5461 H 0.31145 0.55755 0.79643 0.0
H5462 H 0.30668 0.54665 0.77227 0.0
H5463 H 0.2874 0.56029 0.78491 0.0
H5464 H 0.30979 0.49961 0.71544 0.0
H5465 H 0.25643 0.53346 0.71881 0.0
H5466 H 0.31306 0.48053 0.75912 0.0
H5467 H 0.32212 0.50386 0.76897 0.0
H5468 H 0.3299 0.49559 0.74458 0.0
H5469 H 0.24572 0.52389 0.76972 0.0
H5470 H 0.24049 0.54021 0.74889 0.0
H5471 H 0.25841 0.54744 0.76769 0.0
C5472 C 0.26685 0.51461 0.57104 0.0
C5473 C 0.26871 0.53215 0.58344 0.0
C5474 C 0.26675 0.51439 0.54876 0.0
C5475 C 0.26736 0.53219 0.53613 0.0
C5476 C 0.26813 0.54989 0.54853 0.0
C5477 C 0.26861 0.54954 0.5706 0.0
C5478 C 0.26614 0.49442 0.53855 0.0
C5479 C 0.26712 0.57001 0.53852 0.0
C5480 C 0.28192 0.53705 0.47564 0.0
C5481 C 0.26408 0.53359 0.46396 0.0
C5482 C 0.28326 0.53615 0.49781 0.0
C5483 C 0.26631 0.53249 0.51104 0.0
C5484 C 0.2482 0.52962 0.49927 0.0
C5485 C 0.2475 0.5297 0.47716 0.0
C5486 C 0.3036 0.53903 0.5071 0.0
C5487 C 0.22866 0.52652 0.50997 0.0
H5488 H 0.26473 0.50062 0.57873 0.0
H5489 H 0.26813 0.56379 0.57803 0.0
H5490 H 0.25372 0.49388 0.52758 0.0
H5491 H 0.28028 0.49231 0.53019 0.0
H5492 H 0.26425 0.48187 0.54924 0.0
H5493 H 0.27177 0.5823 0.54869 0.0
H5494 H 0.27663 0.57056 0.52503 0.0
H5495 H 0.25147 0.57271 0.53367 0.0
H5496 H 0.29548 0.54014 0.46736 0.0
H5497 H 0.23314 0.52701 0.47008 0.0
H5498 H 0.30556 0.52901 0.52017 0.0
H5499 H 0.30519 0.55466 0.51235 0.0
H5500 H 0.31576 0.53614 0.49626 0.0
H5501 H 0.22594 0.51027 0.51191 0.0
H5502 H 0.216 0.53261 0.50113 0.0
H5503 H 0.2287 0.53367 0.5249 0.0
C5504 C 0.24025 0.5332 0.3194 0.0
C5505 C 0.25317 0.52353 0.3337 0.0
C5506 C 0.24114 0.53176 0.29735 0.0
C5507 C 0.25588 0.52031 0.2864 0.0
C5508 C 0.26936 0.5106 0.30064 0.0
C5509 C 0.26766 0.51194 0.32282 0.0
C5510 C 0.22524 0.5426 0.28572 0.0
C5511 C 0.28634 0.49829 0.29281 0.0
C5512 C 0.25386 0.49883 0.22779 0.0
C5513 C 0.25803 0.51494 0.21402 0.0
C5514 C 0.25268 0.50038 0.24987 0.0
C5515 C 0.25679 0.51851 0.26124 0.0
C5516 C 0.26137 0.53484 0.24741 0.0
C5517 C 0.26144 0.53304 0.22525 0.0
C5518 C 0.24643 0.48188 0.26109 0.0
C5519 C 0.26692 0.55499 0.25575 0.0
H5520 H 0.22874 0.54238 0.32555 0.0
H5521 H 0.27798 0.50325 0.33173 0.0
H5522 H 0.23118 0.55737 0.281 0.0
H5523 H 0.22078 0.53414 0.27217 0.0
H5524 H 0.2117 0.54524 0.29489 0.0
H5525 H 0.28371 0.48237 0.29675 0.0
H5526 H 0.28824 0.49958 0.27645 0.0
H5527 H 0.30052 0.50295 0.30016 0.0
H5528 H 0.2508 0.4844 0.22115 0.0
H5529 H 0.26489 0.54631 0.21662 0.0
H5530 H 0.23709 0.48569 0.27419 0.0
H5531 H 0.25997 0.47406 0.26651 0.0
H5532 H 0.2379 0.47137 0.25141 0.0
H5533 H 0.25436 0.56545 0.25318 0.0
H5534 H 0.28011 0.56114 0.24773 0.0
H5535 H 0.27042 0.55453 0.27192 0.0
C5536 C 0.52753 0.81677 0.3002 0.0
C5537 C 0.5191 0.82845 0.28417 0.0
C5538 C 0.5274 0.79457 0.30147 0.0
C5539 C 0.51918 0.78141 0.2862 0.0
C5540 C 0.51119 0.79309 0.26984 0.0
C5541 C 0.51122 0.8152 0.26918 0.0
C5542 C 0.53613 0.78506 0.31984 0.0
C5543 C 0.50231 0.78203 0.25238 0.0
C5544 C 0.53635 0.72237 0.28032 0.0
C5545 C 0.52044 0.70934 0.28695 0.0
C5546 C 0.53609 0.74446 0.27995 0.0
C5547 C 0.51952 0.75641 0.28682 0.0
C5548 C 0.5034 0.74352 0.29398 0.0
C5549 C 0.50399 0.72127 0.29394 0.0
C5550 C 0.55418 0.75525 0.27191 0.0
C5551 C 0.48509 0.75345 0.30221 0.0
H5552 H 0.53416 0.82506 0.31242 0.0
H5553 H 0.5054 0.82224 0.25603 0.0
H5554 H 0.52531 0.77415 0.32622 0.0
H5555 H 0.54979 0.77668 0.3158 0.0
H5556 H 0.5401 0.79625 0.33143 0.0
H5557 H 0.49836 0.79218 0.23988 0.0
H5558 H 0.51299 0.77066 0.2469 0.0
H5559 H 0.48858 0.774 0.25721 0.0
H5560 H 0.54974 0.71513 0.27539 0.0
H5561 H 0.49116 0.71315 0.29964 0.0
H5562 H 0.56116 0.76434 0.28391 0.0
H5563 H 0.54963 0.76567 0.25986 0.0
H5564 H 0.56554 0.74485 0.26597 0.0
H5565 H 0.48937 0.76281 0.31522 0.0
H5566 H 0.47351 0.74246 0.30694 0.0
H5567 H 0.47855 0.76356 0.29084 0.0
C5568 C 0.05562 0.34768 0.32826 0.0
C5569 C 0.06768 0.36351 0.32149 0.0
C5570 C 0.06211 0.33496 0.34349 0.0
C5571 C 0.0816 0.33759 0.35117 0.0
C5572 C 0.09454 0.35228 0.34298 0.0
C5573 C 0.0869 0.36585 0.32926 0.0
C5574 C 0.04749 0.32009 0.35237 0.0
C5575 C 0.11565 0.35547 0.35059 0.0
C5576 C 0.09958 0.33832 0.40295 0.0
C5577 C 0.11406 0.32352 0.4016 0.0
C5578 C 0.08587 0.34092 0.3875 0.0
C5579 C 0.08742 0.32873 0.37034 0.0
C5580 C 0.09984 0.31178 0.37049 0.0
C5581 C 0.11334 0.30939 0.38626 0.0
C5582 C 0.07162 0.3583 0.38843 0.0
C5583 C 0.10038 0.29762 0.35306 0.0
H5584 H 0.04019 0.34687 0.32379 0.0
H5585 H 0.09539 0.37931 0.32613 0.0
H5586 H 0.04959 0.3054 0.34506 0.0
H5587 H 0.04979 0.31805 0.36862 0.0
H5588 H 0.03176 0.32475 0.3499 0.0
H5589 H 0.1246 0.36498 0.34031 0.0
H5590 H 0.11523 0.36297 0.36533 0.0
H5591 H 0.12341 0.34098 0.35245 0.0
H5592 H 0.09965 0.34845 0.41557 0.0
H5593 H 0.12398 0.29723 0.38609 0.0
H5594 H 0.05702 0.35435 0.38149 0.0
H5595 H 0.07806 0.37114 0.38008 0.0
H5596 H 0.06901 0.36314 0.40404 0.0
H5597 H 0.08502 0.29463 0.34742 0.0
H5598 H 0.10749 0.28321 0.35714 0.0
H5599 H 0.10908 0.30456 0.34077 0.0
C5600 C 0.96798 0.85217 0.65443 0.0
C5601 C 0.9496 0.85677 0.66364 0.0
C5602 C 0.9687 0.84121 0.63656 0.0
C5603 C 0.95064 0.83585 0.62687 0.0
C5604 C 0.93211 0.84044 0.63597 0.0
C5605 C 0.93188 0.85014 0.65442 0.0
C5606 C 0.98884 0.83579 0.62807 0.0
C5607 C 0.91232 0.83526 0.62615 0.0
C5608 C 0.93837 0.82921 0.57311 0.0
C5609 C 0.92943 0.81034 0.57432 0.0
C5610 C 0.94859 0.83728 0.58959 0.0
C5611 C 0.95038 0.82569 0.60716 0.0
C5612 C 0.946 0.80503 0.60636 0.0
C5613 C 0.93567 0.79751 0.58975 0.0
C5614 C 0.9546 0.85902 0.58919 0.0
C5615 C 0.94919 0.79164 0.62418 0.0
H5616 H 0.98197 0.85729 0.66087 0.0
H5617 H 0.91759 0.85256 0.66151 0.0
H5618 H 0.9881 0.82219 0.61864 0.0
H5619 H 0.9945 0.84835 0.61883 0.0
H5620 H 0.99989 0.83326 0.6402 0.0
H5621 H 0.89934 0.84136 0.63442 0.0
H5622 H 0.91186 0.84125 0.61072 0.0
H5623 H 0.91052 0.8188 0.62525 0.0
H5624 H 0.93598 0.83833 0.56024 0.0
H5625 H 0.93006 0.7823 0.59023 0.0
H5626 H 0.96902 0.86136 0.59708 0.0
H5627 H 0.94305 0.86791 0.59697 0.0
H5628 H 0.956 0.86472 0.57369 0.0
H5629 H 0.9633 0.79562 0.63204 0.0
H5630 H 0.94962 0.77564 0.61978 0.0
H5631 H 0.93666 0.79358 0.63481 0.0
C5632 C 0.45674 0.68399 0.83363 0.0
C5633 C 0.47715 0.68509 0.83007 0.0
C5634 C 0.44874 0.6939 0.84989 0.0
C5635 C 0.46157 0.7059 0.86193 0.0
C5636 C 0.48174 0.70907 0.85667 0.0
C5637 C 0.48957 0.69784 0.84116 0.0
C5638 C 0.42716 0.68972 0.85534 0.0
C5639 C 0.49546 0.72291 0.86815 0.0
C5640 C 0.42637 0.72571 0.89834 0.0
C5641 C 0.42595 0.70932 0.91138 0.0
C5642 C 0.44086 0.72694 0.88352 0.0
C5643 C 0.45457 0.71117 0.88176 0.0
C5644 C 0.45604 0.69634 0.89677 0.0
C5645 C 0.44136 0.69545 0.91144 0.0
C5646 C 0.44003 0.74367 0.86843 0.0
C5647 C 0.47147 0.67998 0.89593 0.0
H5648 H 0.44744 0.67394 0.82485 0.0
H5649 H 0.50544 0.69877 0.83787 0.0
H5650 H 0.42648 0.68159 0.86977 0.0
H5651 H 0.41888 0.7039 0.85709 0.0
H5652 H 0.41931 0.68049 0.84396 0.0
H5653 H 0.50614 0.73043 0.85787 0.0
H5654 H 0.48708 0.73447 0.87644 0.0
H5655 H 0.50442 0.71411 0.87893 0.0
H5656 H 0.41499 0.73715 0.89938 0.0
H5657 H 0.44159 0.68369 0.92258 0.0
H5658 H 0.43054 0.73898 0.85564 0.0
H5659 H 0.45516 0.74731 0.86261 0.0
H5660 H 0.4334 0.75735 0.87497 0.0
H5661 H 0.46716 0.66902 0.88424 0.0
H5662 H 0.47275 0.67192 0.91037 0.0
H5663 H 0.48637 0.68616 0.89201 0.0
C5664 C 0.60707 0.22 0.07002 0.0
C5665 C 0.62629 0.22665 0.07488 0.0
C5666 C 0.59655 0.20735 0.08301 0.0
C5667 C 0.60536 0.2019 0.10145 0.0
C5668 C 0.62518 0.20775 0.10594 0.0
C5669 C 0.63549 0.2199 0.09245 0.0
C5670 C 0.57543 0.20115 0.07775 0.0
C5671 C 0.63474 0.20279 0.12577 0.0
C5672 C 0.56718 0.19648 0.14227 0.0
C5673 C 0.56483 0.17576 0.14307 0.0
C5674 C 0.58124 0.20516 0.12952 0.0
C5675 C 0.59285 0.19268 0.1171 0.0
C5676 C 0.59139 0.17164 0.11884 0.0
C5677 C 0.57728 0.16336 0.13192 0.0
C5678 C 0.58278 0.22769 0.1285 0.0
C5679 C 0.60359 0.15789 0.10594 0.0
H5680 H 0.59975 0.22572 0.05685 0.0
H5681 H 0.65028 0.22536 0.0964 0.0
H5682 H 0.57355 0.18478 0.07969 0.0
H5683 H 0.56476 0.20858 0.08793 0.0
H5684 H 0.57144 0.20518 0.06218 0.0
H5685 H 0.65058 0.20786 0.12663 0.0
H5686 H 0.62635 0.21011 0.13798 0.0
H5687 H 0.63403 0.18645 0.1285 0.0
H5688 H 0.55742 0.20588 0.15105 0.0
H5689 H 0.57521 0.14729 0.13263 0.0
H5690 H 0.57635 0.23298 0.11419 0.0
H5691 H 0.59865 0.23262 0.129 0.0
H5692 H 0.57463 0.23501 0.14089 0.0
H5693 H 0.59608 0.15629 0.09126 0.0
H5694 H 0.60488 0.14278 0.11271 0.0
H5695 H 0.61882 0.16397 0.10328 0.0
C5696 C 0.08323 0.65984 0.21071 0.0
C5697 C 0.06573 0.66764 0.21892 0.0
C5698 C 0.09296 0.6695 0.19484 0.0
C5699 C 0.08421 0.68664 0.18609 0.0
C5700 C 0.06752 0.69554 0.19545 0.0
C5701 C 0.05866 0.68601 0.21198 0.0
C5702 C 0.11126 0.65985 0.1861 0.0
C5703 C 0.05772 0.71386 0.18676 0.0
C5704 C 0.11328 0.70799 0.14203 0.0
C5705 C 0.10541 0.69654 0.12624 0.0
C5706 C 0.10574 0.70597 0.16154 0.0
C5707 C 0.08994 0.69227 0.16529 0.0
C5708 C 0.08111 0.68174 0.14913 0.0
C5709 C 0.08901 0.68393 0.12989 0.0
C5710 C 0.11552 0.71748 0.17832 0.0
C5711 C 0.0639 0.66732 0.15228 0.0
H5712 H 0.08843 0.64531 0.21559 0.0
H5713 H 0.04477 0.69162 0.21786 0.0
H5714 H 0.10652 0.64801 0.17547 0.0
H5715 H 0.12094 0.67069 0.17809 0.0
H5716 H 0.1203 0.65283 0.19806 0.0
H5717 H 0.04493 0.719 0.1959 0.0
H5718 H 0.0688 0.72621 0.18559 0.0
H5719 H 0.05222 0.71062 0.17147 0.0
H5720 H 0.12593 0.71784 0.13931 0.0
H5721 H 0.08256 0.67545 0.11768 0.0
H5722 H 0.124 0.70702 0.18797 0.0
H5723 H 0.10404 0.72463 0.18779 0.0
H5724 H 0.12597 0.72918 0.17275 0.0
H5725 H 0.06924 0.65409 0.1607 0.0
H5726 H 0.0573 0.66208 0.13797 0.0
H5727 H 0.05195 0.6744 0.16122 0.0
C5728 C 0.63248 0.81341 0.45049 0.0
C5729 C 0.62126 0.80912 0.46749 0.0
C5730 C 0.62411 0.82374 0.4345 0.0
C5731 C 0.6045 0.83112 0.43635 0.0
C5732 C 0.5937 0.8284 0.45431 0.0
C5733 C 0.60198 0.81665 0.46948 0.0
C5734 C 0.63568 0.82547 0.41525 0.0
C5735 C 0.57304 0.83691 0.45705 0.0
C5736 C 0.58519 0.8703 0.40115 0.0
C5737 C 0.5715 0.85905 0.39001 0.0
C5738 C 0.59686 0.86121 0.41581 0.0
C5739 C 0.59469 0.84045 0.41907 0.0
C5740 C 0.58201 0.82878 0.40665 0.0
C5741 C 0.57025 0.83836 0.39232 0.0
C5742 C 0.61021 0.87403 0.42884 0.0
C5743 C 0.5801 0.80642 0.40921 0.0
H5744 H 0.64717 0.80708 0.44903 0.0
H5745 H 0.59315 0.81274 0.48247 0.0
H5746 H 0.62629 0.8206 0.40245 0.0
H5747 H 0.63998 0.84127 0.41259 0.0
H5748 H 0.64945 0.81629 0.41546 0.0
H5749 H 0.56795 0.83579 0.47277 0.0
H5750 H 0.5728 0.85285 0.45244 0.0
H5751 H 0.56222 0.8287 0.44746 0.0
H5752 H 0.58579 0.8864 0.39923 0.0
H5753 H 0.55945 0.8299 0.38359 0.0
H5754 H 0.6253 0.86741 0.43024 0.0
H5755 H 0.60379 0.87476 0.44406 0.0
H5756 H 0.6118 0.88948 0.42296 0.0
H5757 H 0.59512 0.79949 0.41013 0.0
H5758 H 0.57163 0.79936 0.39676 0.0
H5759 H 0.5722 0.80302 0.42335 0.0
C5760 C 0.47447 0.35462 0.72174 0.0
C5761 C 0.47959 0.37451 0.71825 0.0
C5762 C 0.46187 0.34444 0.70852 0.0
C5763 C 0.45454 0.3546 0.69151 0.0
C5764 C 0.4578 0.37531 0.68923 0.0
C5765 C 0.4706 0.385 0.70256 0.0
C5766 C 0.45845 0.32233 0.71158 0.0
C5767 C 0.44966 0.3867 0.67155 0.0
C5768 C 0.45368 0.32208 0.64581 0.0
C5769 C 0.43358 0.31655 0.64533 0.0
C5770 C 0.46058 0.33536 0.66039 0.0
C5771 C 0.44688 0.34298 0.67456 0.0
C5772 C 0.42632 0.33828 0.67326 0.0
C5773 C 0.4199 0.32497 0.65859 0.0
C5774 C 0.48265 0.34035 0.66129 0.0
C5775 C 0.41138 0.34612 0.68813 0.0
H5776 H 0.48173 0.34651 0.7336 0.0
H5777 H 0.4748 0.4004 0.6997 0.0
H5778 H 0.44331 0.31766 0.70659 0.0
H5779 H 0.46958 0.31392 0.70273 0.0
H5780 H 0.4603 0.31815 0.72749 0.0
H5781 H 0.45179 0.40309 0.6732 0.0
H5782 H 0.45741 0.38185 0.65779 0.0
H5783 H 0.43348 0.38345 0.66953 0.0
H5784 H 0.46404 0.31537 0.63539 0.0
H5785 H 0.40428 0.32045 0.65794 0.0
H5786 H 0.48922 0.33403 0.67513 0.0
H5787 H 0.48494 0.35678 0.66176 0.0
H5788 H 0.49092 0.33431 0.64832 0.0
H5789 H 0.41286 0.33764 0.70228 0.0
H5790 H 0.39575 0.34439 0.68268 0.0
H5791 H 0.41424 0.3621 0.69154 0.0
C5792 C 0.97595 0.176 0.88924 0.0
C5793 C 0.9588 0.16514 0.88344 0.0
C5794 C 0.97497 0.19044 0.90414 0.0
C5795 C 0.95655 0.19363 0.91365 0.0
C5796 C 0.93905 0.1832 0.9075 0.0
C5797 C 0.94045 0.16888 0.89247 0.0
C5798 C 0.99358 0.20201 0.90993 0.0
C5799 C 0.91895 0.18695 0.91699 0.0
C5800 C 0.9481 0.20864 0.96627 0.0
C5801 C 0.94036 0.22773 0.96326 0.0
C5802 C 0.95606 0.1981 0.95024 0.0
C5803 C 0.9555 0.2068 0.93102 0.0
C5804 C 0.95023 0.22704 0.9285 0.0
C5805 C 0.94332 0.2375 0.94497 0.0
C5806 C 0.96292 0.17689 0.95345 0.0
C5807 C 0.9503 0.23733 0.9084 0.0
H5808 H 0.99024 0.17302 0.88226 0.0
H5809 H 0.92722 0.16072 0.88766 0.0
H5810 H 0.99093 0.21827 0.90816 0.0
H5811 H 0.99718 0.1993 0.92586 0.0
H5812 H 1.00672 0.19788 0.90077 0.0
H5813 H 0.91899 0.18105 0.93246 0.0
H5814 H 0.91596 0.20323 0.91779 0.0
H5815 H 0.90652 0.17964 0.90866 0.0
H5816 H 0.94653 0.20133 0.98061 0.0
H5817 H 0.93846 0.25281 0.94297 0.0
H5818 H 0.97674 0.17395 0.94484 0.0
H5819 H 0.95117 0.16639 0.94807 0.0
H5820 H 0.96585 0.1737 0.96945 0.0
H5821 H 0.96525 0.24417 0.9059 0.0
H5822 H 0.93911 0.24954 0.9078 0.0
H5823 H 0.94717 0.22688 0.89594 0.0
C5824 C 0.31893 0.06379 0.34987 0.0
C5825 C 0.31938 0.06636 0.37057 0.0
C5826 C 0.33288 0.07366 0.33764 0.0
C5827 C 0.34755 0.08615 0.34655 0.0
C5828 C 0.34714 0.08969 0.36734 0.0
C5829 C 0.33282 0.08001 0.379 0.0
C5830 C 0.33303 0.06908 0.31563 0.0
C5831 C 0.36291 0.10237 0.37759 0.0
C5832 C 0.40087 0.09467 0.33253 0.0
C5833 C 0.40046 0.11529 0.3292 0.0
C5834 C 0.38305 0.08399 0.33555 0.0
C5835 C 0.36463 0.09435 0.3351 0.0
C5836 C 0.36418 0.11461 0.32911 0.0
C5837 C 0.38224 0.12501 0.32653 0.0
C5838 C 0.38425 0.06247 0.34213 0.0
C5839 C 0.34474 0.12575 0.32745 0.0
H5840 H 0.30886 0.05292 0.34338 0.0
H5841 H 0.33331 0.08175 0.39503 0.0
H5842 H 0.33823 0.08211 0.30675 0.0
H5843 H 0.3434 0.05652 0.31284 0.0
H5844 H 0.31794 0.06445 0.3103 0.0
H5845 H 0.36162 0.10184 0.39406 0.0
H5846 H 0.37813 0.09717 0.37379 0.0
H5847 H 0.36165 0.11807 0.37243 0.0
H5848 H 0.41514 0.08722 0.33422 0.0
H5849 H 0.38214 0.1409 0.3233 0.0
H5850 H 0.37168 0.05351 0.33594 0.0
H5851 H 0.3832 0.06193 0.35862 0.0
H5852 H 0.39861 0.05553 0.33768 0.0
H5853 H 0.33322 0.11632 0.32002 0.0
H5854 H 0.34652 0.13991 0.31897 0.0
H5855 H 0.33925 0.12936 0.34262 0.0
C5856 C 0.19621 0.07577 0.60539 0.0
C5857 C 0.21699 0.0737 0.60474 0.0
C5858 C 0.18729 0.09354 0.59863 0.0
C5859 C 0.19948 0.10888 0.59038 0.0
C5860 C 0.21986 0.10518 0.58657 0.0
C5861 C 0.22843 0.08779 0.59413 0.0
C5862 C 0.16538 0.09691 0.60257 0.0
C5863 C 0.23328 0.1206 0.57688 0.0
C5864 C 0.17562 0.15763 0.57412 0.0
C5865 C 0.17902 0.16974 0.59099 0.0
C5866 C 0.18255 0.13788 0.57338 0.0
C5867 C 0.19236 0.12982 0.59021 0.0
C5868 C 0.19589 0.14193 0.60718 0.0
C5869 C 0.18944 0.16177 0.60725 0.0
C5870 C 0.17941 0.12571 0.55467 0.0
C5871 C 0.20663 0.13402 0.62532 0.0
H5872 H 0.18719 0.06453 0.61277 0.0
H5873 H 0.2445 0.08597 0.59302 0.0
H5874 H 0.16383 0.10684 0.61571 0.0
H5875 H 0.15814 0.10449 0.58978 0.0
H5876 H 0.15729 0.08268 0.60556 0.0
H5877 H 0.24655 0.11353 0.56996 0.0
H5878 H 0.22517 0.12924 0.56532 0.0
H5879 H 0.23871 0.13126 0.58838 0.0
H5880 H 0.16724 0.16339 0.56154 0.0
H5881 H 0.19258 0.17106 0.62012 0.0
H5882 H 0.16885 0.11322 0.55768 0.0
H5883 H 0.19373 0.11899 0.54983 0.0
H5884 H 0.17334 0.13482 0.54222 0.0
H5885 H 0.19975 0.11972 0.63028 0.0
H5886 H 0.20635 0.14475 0.63793 0.0
H5887 H 0.22247 0.13097 0.62156 0.0
C5888 C 0.20941 0.96251 0.87583 0.0
C5889 C 0.21809 0.97956 0.86747 0.0
C5890 C 0.19691 0.95005 0.86461 0.0
C5891 C 0.19343 0.95458 0.84428 0.0
C5892 C 0.20365 0.97077 0.83522 0.0
C5893 C 0.21544 0.98345 0.84713 0.0
C5894 C 0.18609 0.93313 0.87506 0.0
C5895 C 0.20104 0.97572 0.81341 0.0
C5896 C 0.16437 0.9122 0.82115 0.0
C5897 C 0.14479 0.9188 0.82408 0.0
C5898 C 0.18068 0.92474 0.82552 0.0
C5899 C 0.17715 0.94385 0.8337 0.0
C5900 C 0.15734 0.95109 0.83521 0.0
C5901 C 0.14135 0.93846 0.83017 0.0
C5902 C 0.20161 0.91696 0.82281 0.0
C5903 C 0.15291 0.97142 0.84384 0.0
H5904 H 0.21147 0.95938 0.89142 0.0
H5905 H 0.22148 0.99701 0.84073 0.0
H5906 H 0.1699 0.9366 0.87598 0.0
H5907 H 0.18759 0.91902 0.86658 0.0
H5908 H 0.19184 0.93062 0.89042 0.0
H5909 H 0.21416 0.98417 0.80759 0.0
H5910 H 0.19889 0.96201 0.80434 0.0
H5911 H 0.18763 0.98521 0.81147 0.0
H5912 H 0.1669 0.89709 0.81595 0.0
H5913 H 0.12611 0.94353 0.83218 0.0
H5914 H 0.20729 0.91136 0.83731 0.0
H5915 H 0.21187 0.92902 0.81768 0.0
H5916 H 0.202 0.90446 0.81195 0.0
H5917 H 0.15625 0.97131 0.86007 0.0
H5918 H 0.137 0.97568 0.84173 0.0
H5919 H 0.16251 0.98305 0.8369 0.0
C5920 C 0.34134 0.88075 0.1025 0.0
C5921 C 0.35699 0.87679 0.08937 0.0
C5922 C 0.33264 0.89966 0.10319 0.0
C5923 C 0.33998 0.91504 0.09055 0.0
C5924 C 0.35441 0.91059 0.07589 0.0
C5925 C 0.36286 0.89144 0.0755 0.0
C5926 C 0.31671 0.90352 0.11863 0.0
C5927 C 0.36202 0.92638 0.06168 0.0
C5928 C 0.30874 0.9603 0.09974 0.0
C5929 C 0.3179 0.96724 0.11725 0.0
C5930 C 0.31716 0.94465 0.08878 0.0
C5931 C 0.33518 0.93602 0.09559 0.0
C5932 C 0.34591 0.94508 0.11147 0.0
C5933 C 0.3368 0.9602 0.1225 0.0
C5934 C 0.30516 0.93557 0.07194 0.0
C5935 C 0.3655 0.93672 0.11887 0.0
H5936 H 0.33636 0.8692 0.11274 0.0
H5937 H 0.37481 0.88831 0.06509 0.0
H5938 H 0.32307 0.9129 0.13076 0.0
H5939 H 0.30399 0.91175 0.11195 0.0
H5940 H 0.31088 0.88945 0.12533 0.0
H5941 H 0.36904 0.91962 0.04831 0.0
H5942 H 0.34978 0.9364 0.05678 0.0
H5943 H 0.37344 0.93572 0.06936 0.0
H5944 H 0.29368 0.96493 0.09615 0.0
H5945 H 0.34338 0.96466 0.1366 0.0
H5946 H 0.29501 0.92389 0.07804 0.0
H5947 H 0.31493 0.92847 0.06069 0.0
H5948 H 0.29577 0.94703 0.06448 0.0
H5949 H 0.37364 0.9476 0.12848 0.0
H5950 H 0.37528 0.93259 0.10622 0.0
H5951 H 0.36254 0.92302 0.12776 0.0
C5952 C 0.41584 0.94358 0.2249 0.0
C5953 C 0.42418 0.93533 0.20758 0.0
C5954 C 0.39529 0.9477 0.22604 0.0
C5955 C 0.38288 0.94397 0.20926 0.0
C5956 C 0.39095 0.93413 0.1924 0.0
C5957 C 0.41142 0.92977 0.19189 0.0
C5958 C 0.38741 0.957 0.24491 0.0
C5959 C 0.37831 0.92941 0.17424 0.0
C5960 C 0.3284 0.95259 0.1967 0.0
C5961 C 0.3298 0.97208 0.18918 0.0
C5962 C 0.34499 0.94391 0.20637 0.0
C5963 C 0.36349 0.9545 0.20692 0.0
C5964 C 0.36399 0.97491 0.20136 0.0
C5965 C 0.34669 0.98367 0.19388 0.0
C5966 C 0.3428 0.9232 0.21496 0.0
C5967 C 0.38307 0.98723 0.20147 0.0
H5968 H 0.42545 0.94751 0.23736 0.0
H5969 H 0.41755 0.92242 0.17891 0.0
H5970 H 0.37083 0.95771 0.24528 0.0
H5971 H 0.39263 0.94831 0.25803 0.0
H5972 H 0.39368 0.97232 0.24656 0.0
H5973 H 0.38719 0.92279 0.16197 0.0
H5974 H 0.36633 0.91864 0.17829 0.0
H5975 H 0.37103 0.94317 0.16856 0.0
H5976 H 0.31488 0.94387 0.19432 0.0
H5977 H 0.34704 0.99941 0.19011 0.0
H5978 H 0.35561 0.91908 0.22467 0.0
H5979 H 0.34136 0.91217 0.20271 0.0
H5980 H 0.32882 0.92223 0.22384 0.0
H5981 H 0.38723 0.99095 0.21703 0.0
H5982 H 0.38144 1.00149 0.19312 0.0
H5983 H 0.39562 0.97885 0.19472 0.0
C5984 C 0.36641 0.15931 0.43376 0.0
C5985 C 0.37459 0.1659 0.45177 0.0
C5986 C 0.35516 0.14158 0.4328 0.0
C5987 C 0.35252 0.12978 0.45022 0.0
C5988 C 0.3607 0.13641 0.46855 0.0
C5989 C 0.3717 0.15438 0.4691 0.0
C5990 C 0.34516 0.13665 0.4132 0.0
C5991 C 0.35745 0.12483 0.48764 0.0
C5992 C 0.30901 0.09405 0.4442 0.0
C5993 C 0.31863 0.0773 0.43628 0.0
C5994 C 0.31994 0.11091 0.45028 0.0
C5995 C 0.34105 0.11068 0.44903 0.0
C5996 C 0.35089 0.09283 0.44346 0.0
C5997 C 0.33952 0.07627 0.43708 0.0
C5998 C 0.30875 0.12955 0.45603 0.0
C5999 C 0.37339 0.0919 0.44234 0.0
H6000 H 0.36798 0.16852 0.42054 0.0
H6001 H 0.37782 0.15961 0.48316 0.0
H6002 H 0.33923 0.12119 0.41231 0.0
H6003 H 0.33249 0.14704 0.41092 0.0
H6004 H 0.35576 0.13929 0.40076 0.0
H6005 H 0.36269 0.13323 0.50097 0.0
H6006 H 0.34135 0.12114 0.48956 0.0
H6007 H 0.36563 0.11049 0.48693 0.0
H6008 H 0.29282 0.09445 0.44452 0.0
H6009 H 0.347 0.06323 0.4312 0.0
H6010 H 0.30927 0.14032 0.44344 0.0
H6011 H 0.31582 0.13687 0.46912 0.0
H6012 H 0.2928 0.12633 0.45949 0.0
H6013 H 0.37864 0.10109 0.42957 0.0
H6014 H 0.37878 0.07637 0.44031 0.0
H6015 H 0.38025 0.0982 0.45606 0.0
C6016 C 0.21508 0.07156 0.68848 0.0
C6017 C 0.21269 0.06242 0.66985 0.0
C6018 C 0.20027 0.0845 0.69583 0.0
C6019 C 0.18244 0.08727 0.68465 0.0
C6020 C 0.18027 0.0781 0.66579 0.0
C6021 C 0.19547 0.06597 0.65867 0.0
C6022 C 0.20322 0.09416 0.71593 0.0
C6023 C 0.16116 0.07968 0.65377 0.0
C6024 C 0.13046 0.09497 0.70382 0.0
C6025 C 0.12607 0.11352 0.69524 0.0
C6026 C 0.14973 0.087 0.70258 0.0
C6027 C 0.16497 0.09806 0.69278 0.0
C6028 C 0.16105 0.11771 0.68605 0.0
C6029 C 0.1415 0.12512 0.68706 0.0
C6030 C 0.15314 0.06589 0.70977 0.0
C6031 C 0.17709 0.13015 0.67616 0.0
H6032 H 0.22799 0.06796 0.6976 0.0
H6033 H 0.19303 0.05761 0.6451 0.0
H6034 H 0.19683 0.10942 0.71619 0.0
H6035 H 0.19545 0.08512 0.72747 0.0
H6036 H 0.21933 0.09505 0.72001 0.0
H6037 H 0.16177 0.07103 0.63969 0.0
H6038 H 0.14832 0.07394 0.66257 0.0
H6039 H 0.15813 0.09554 0.65015 0.0
H6040 H 0.11851 0.08619 0.71047 0.0
H6041 H 0.13817 0.13978 0.68103 0.0
H6042 H 0.16755 0.06479 0.71792 0.0
H6043 H 0.15391 0.05572 0.69674 0.0
H6044 H 0.14092 0.06057 0.71968 0.0
H6045 H 0.1916 0.12851 0.68408 0.0
H6046 H 0.17307 0.14622 0.67565 0.0
H6047 H 0.17914 0.12486 0.66065 0.0
C6048 C 0.16163 0.89999 0.97539 0.0
C6049 C 0.1684 0.8837 0.96431 0.0
C6050 C 0.17229 0.91807 0.97512 0.0
C6051 C 0.18936 0.91975 0.9629 0.0
C6052 C 0.19749 0.90258 0.95379 0.0
C6053 C 0.18683 0.88461 0.95464 0.0
C6054 C 0.1648 0.93566 0.98688 0.0
C6055 C 0.21672 0.90354 0.94212 0.0
C6056 C 0.19549 0.96376 0.92873 0.0
C6057 C 0.214 0.97102 0.93511 0.0
C6058 C 0.18644 0.94773 0.93872 0.0
C6059 C 0.19593 0.93956 0.95584 0.0
C6060 C 0.21344 0.94857 0.96358 0.0
C6061 C 0.22228 0.96416 0.9529 0.0
C6062 C 0.16796 0.93819 0.92971 0.0
C6063 C 0.22406 0.94095 0.98194 0.0
H6064 H 0.14788 0.89869 0.98385 0.0
H6065 H 0.19243 0.87149 0.94705 0.0
H6066 H 0.17754 0.94388 0.9938 0.0
H6067 H 0.15699 0.94616 0.97673 0.0
H6068 H 0.15422 0.93094 0.99875 0.0
H6069 H 0.22009 0.88922 0.9345 0.0
H6070 H 0.21586 0.91562 0.93085 0.0
H6071 H 0.22931 0.90721 0.95232 0.0
H6072 H 0.1889 0.96951 0.91512 0.0
H6073 H 0.23633 0.97017 0.95781 0.0
H6074 H 0.15601 0.9368 0.94106 0.0
H6075 H 0.17155 0.9229 0.92447 0.0
H6076 H 0.16206 0.94686 0.91687 0.0
H6077 H 0.22846 0.95373 0.99159 0.0
H6078 H 0.23808 0.93339 0.97743 0.0
H6079 H 0.21482 0.93038 0.99081 0.0
C6080 C 0.34488 0.40235 0.12145 0.0
C6081 C 0.33161 0.41555 0.11213 0.0
C6082 C 0.3437 0.38174 0.11787 0.0
C6083 C 0.32927 0.37431 0.10424 0.0
C6084 C 0.31388 0.38713 0.09748 0.0
C6085 C 0.31535 0.40775 0.1013 0.0
C6086 C 0.35896 0.36813 0.12729 0.0
C6087 C 0.29706 0.37937 0.08455 0.0
C6088 C 0.35404 0.34529 0.0636 0.0
C6089 C 0.35446 0.32573 0.07129 0.0
C6090 C 0.34555 0.36096 0.07403 0.0
C6091 C 0.33495 0.35688 0.0918 0.0
C6092 C 0.33287 0.33676 0.09841 0.0
C6093 C 0.34323 0.32139 0.08839 0.0
C6094 C 0.34934 0.38205 0.0665 0.0
C6095 C 0.3203 0.33134 0.11623 0.0
H6096 H 0.35662 0.40823 0.13101 0.0
H6097 H 0.30441 0.41781 0.0949 0.0
H6098 H 0.35118 0.35696 0.13679 0.0
H6099 H 0.36715 0.35979 0.11566 0.0
H6100 H 0.36994 0.37641 0.13668 0.0
H6101 H 0.28355 0.38885 0.08594 0.0
H6102 H 0.30173 0.37957 0.0687 0.0
H6103 H 0.29314 0.36372 0.08857 0.0
H6104 H 0.36128 0.34886 0.04962 0.0
H6105 H 0.34263 0.30621 0.09401 0.0
H6106 H 0.35592 0.39147 0.07848 0.0
H6107 H 0.33511 0.38896 0.06171 0.0
H6108 H 0.35976 0.3825 0.05363 0.0
H6109 H 0.33024 0.32777 0.129 0.0
H6110 H 0.31131 0.31769 0.11298 0.0
H6111 H 0.31002 0.34352 0.1206 0.0
C6112 C 0.80081 0.14879 0.9504 0.0
C6113 C 0.81439 0.13662 0.94031 0.0
C6114 C 0.80771 0.16384 0.96326 0.0
C6115 C 0.82856 0.16677 0.96552 0.0
C6116 C 0.84206 0.15261 0.95758 0.0
C6117 C 0.83471 0.13749 0.94513 0.0
C6118 C 0.79281 0.17812 0.9721 0.0
C6119 C 0.86445 0.15504 0.95979 0.0
C6120 C 0.85484 0.21636 0.96243 0.0
C6121 C 0.86322 0.21766 0.98143 0.0
C6122 C 0.84124 0.20104 0.95767 0.0
C6123 C 0.83657 0.18633 0.97221 0.0
C6124 C 0.84307 0.18891 0.99204 0.0
C6125 C 0.85597 0.20485 0.99649 0.0
C6126 C 0.83384 0.19928 0.93644 0.0
C6127 C 0.83857 0.17355 1.00797 0.0
H6128 H 0.78506 0.14802 0.94653 0.0
H6129 H 0.84512 0.12809 0.93712 0.0
H6130 H 0.79796 0.18391 0.98674 0.0
H6131 H 0.79098 0.19106 0.96191 0.0
H6132 H 0.77794 0.17084 0.97398 0.0
H6133 H 0.87255 0.14125 0.95551 0.0
H6134 H 0.86969 0.16741 0.95002 0.0
H6135 H 0.86853 0.15895 0.97535 0.0
H6136 H 0.86004 0.22607 0.95082 0.0
H6137 H 0.86221 0.2058 1.01135 0.0
H6138 H 0.81769 0.19536 0.9361 0.0
H6139 H 0.84206 0.18715 0.92878 0.0
H6140 H 0.83615 0.21337 0.92794 0.0
H6141 H 0.82274 0.16854 1.00717 0.0
H6142 H 0.8417 0.17939 0.02316 0.0
H6143 H 0.84805 0.16022 1.00557 0.0
C6144 C 0.08651 0.58737 0.23666 0.0
C6145 C 0.0721 0.59738 0.22531 0.0
C6146 C 0.10162 0.57661 0.22739 0.0
C6147 C 0.10231 0.57643 0.20635 0.0
C6148 C 0.0861 0.58406 0.19504 0.0
C6149 C 0.071 0.5945 0.20477 0.0
C6150 C 0.11803 0.56796 0.24018 0.0
C6151 C 0.08627 0.58392 0.17254 0.0
C6152 C 0.14889 0.59172 0.1796 0.0
C6153 C 0.15324 0.5743 0.1692 0.0
C6154 C 0.13336 0.59191 0.1934 0.0
C6155 C 0.12166 0.57441 0.19627 0.0
C6156 C 0.12688 0.55638 0.18684 0.0
C6157 C 0.14273 0.55653 0.17327 0.0
C6158 C 0.12915 0.61097 0.20455 0.0
C6159 C 0.1154 0.53725 0.19064 0.0
H6160 H 0.08684 0.58909 0.25271 0.0
H6161 H 0.05953 0.60201 0.19614 0.0
H6162 H 0.12713 0.55682 0.23208 0.0
H6163 H 0.12804 0.58021 0.24537 0.0
H6164 H 0.11155 0.56078 0.25367 0.0
H6165 H 0.07128 0.58722 0.1662 0.0
H6166 H 0.09694 0.59549 0.16712 0.0
H6167 H 0.0913 0.56925 0.16683 0.0
H6168 H 0.15781 0.60509 0.17711 0.0
H6169 H 0.1468 0.54285 0.16568 0.0
H6170 H 0.12895 0.60789 0.22077 0.0
H6171 H 0.11417 0.61666 0.20033 0.0
H6172 H 0.14054 0.62276 0.20159 0.0
H6173 H 0.11228 0.53541 0.20678 0.0
H6174 H 0.12365 0.52395 0.18527 0.0
H6175 H 0.10078 0.53784 0.1828 0.0
C6176 C 0.68792 0.81918 0.45126 0.0
C6177 C 0.68858 0.81954 0.47205 0.0
C6178 C 0.69416 0.83593 0.44041 0.0
C6179 C 0.70224 0.8526 0.45071 0.0
C6180 C 0.70573 0.85166 0.47143 0.0
C6181 C 0.69846 0.8352 0.48195 0.0
C6182 C 0.69014 0.83666 0.41825 0.0
C6183 C 0.71511 0.86874 0.48289 0.0
C6184 C 0.72254 0.89265 0.41698 0.0
C6185 C 0.70584 0.9051 0.41518 0.0
C6186 C 0.72202 0.87595 0.42945 0.0
C6187 C 0.70434 0.87171 0.4401 0.0
C6188 C 0.68774 0.88473 0.43899 0.0
C6189 C 0.68865 0.90132 0.42633 0.0
C6190 C 0.74014 0.86266 0.43095 0.0
C6191 C 0.6689 0.88091 0.4508 0.0
H6192 H 0.68079 0.80678 0.44362 0.0
H6193 H 0.69909 0.83539 0.49809 0.0
H6194 H 0.67771 0.84719 0.41527 0.0
H6195 H 0.70344 0.84232 0.41012 0.0
H6196 H 0.68597 0.82178 0.41216 0.0
H6197 H 0.72209 0.8634 0.49697 0.0
H6198 H 0.72663 0.87666 0.47394 0.0
H6199 H 0.70336 0.87966 0.48686 0.0
H6200 H 0.73601 0.89608 0.40864 0.0
H6201 H 0.67613 0.9115 0.42537 0.0
H6202 H 0.73683 0.84806 0.42382 0.0
H6203 H 0.74386 0.85965 0.4468 0.0
H6204 H 0.75346 0.86937 0.42358 0.0
H6205 H 0.66152 0.86705 0.44534 0.0
H6206 H 0.65812 0.89343 0.44958 0.0
H6207 H 0.67256 0.87861 0.46678 0.0
C6208 C 0.97018 0.94517 0.21707 0.0
C6209 C 0.97073 0.92439 0.21775 0.0
C6210 C 0.95353 0.95463 0.20887 0.0
C6211 C 0.9372 0.94275 0.20216 0.0
C6212 C 0.93808 0.92176 0.20245 0.0
C6213 C 0.95542 0.91287 0.20934 0.0
C6214 C 0.95289 0.97719 0.20857 0.0
C6215 C 0.92037 0.90875 0.1968 0.0
C6216 C 0.89118 0.97404 0.19928 0.0
C6217 C 0.89135 0.97826 0.17896 0.0
C6218 C 0.9051 0.9607 0.20709 0.0
C6219 C 0.9195 0.95238 0.19409 0.0
C6220 C 0.91841 0.9554 0.17331 0.0
C6221 C 0.90392 0.96812 0.16593 0.0
C6222 C 0.90525 0.95709 0.2293 0.0
C6223 C 0.93401 0.94744 0.15914 0.0
H6224 H 0.982 0.95388 0.22408 0.0
H6225 H 0.9563 0.89681 0.20975 0.0
H6226 H 0.94721 0.98268 0.194 0.0
H6227 H 0.94252 0.98245 0.2203 0.0
H6228 H 0.96784 0.98396 0.21142 0.0
H6229 H 0.92252 0.89294 0.20132 0.0
H6230 H 0.90655 0.91433 0.20398 0.0
H6231 H 0.91796 0.90917 0.18045 0.0
H6232 H 0.88106 0.98194 0.20907 0.0
H6233 H 0.90357 0.97163 0.15012 0.0
H6234 H 0.91092 0.9707 0.23697 0.0
H6235 H 0.91472 0.9443 0.2337 0.0
H6236 H 0.88977 0.95436 0.23468 0.0
H6237 H 0.94842 0.95533 0.16188 0.0
H6238 H 0.92974 0.94968 0.14327 0.0
H6239 H 0.93661 0.9313 0.1616 0.0
C6240 C 0.19085 0.64418 0.62492 0.0
C6241 C 0.20462 0.62954 0.61945 0.0
C6242 C 0.19237 0.66363 0.6173 0.0
C6243 C 0.20823 0.66854 0.60416 0.0
C6244 C 0.22354 0.65457 0.60063 0.0
C6245 C 0.22131 0.63507 0.60786 0.0
C6246 C 0.17614 0.67843 0.62207 0.0
C6247 C 0.24141 0.65975 0.58785 0.0
C6248 C 0.18946 0.69621 0.55946 0.0
C6249 C 0.19035 0.71613 0.56599 0.0
C6250 C 0.19587 0.68064 0.57154 0.0
C6251 C 0.20535 0.68515 0.58988 0.0
C6252 C 0.20914 0.70534 0.59519 0.0
C6253 C 0.20101 0.72076 0.58341 0.0
C6254 C 0.1906 0.65943 0.56541 0.0
C6255 C 0.22075 0.71076 0.61372 0.0
H6256 H 0.17847 0.64024 0.63459 0.0
H6257 H 0.23221 0.62397 0.60357 0.0
H6258 H 0.18271 0.69136 0.63012 0.0
H6259 H 0.16933 0.68421 0.60812 0.0
H6260 H 0.16415 0.67182 0.63148 0.0
H6261 H 0.25403 0.64936 0.59056 0.0
H6262 H 0.23727 0.65876 0.57186 0.0
H6263 H 0.24653 0.67529 0.59079 0.0
H6264 H 0.18214 0.69247 0.5455 0.0
H6265 H 0.2023 0.73616 0.58825 0.0
H6266 H 0.18162 0.65202 0.57722 0.0
H6267 H 0.20437 0.65057 0.56329 0.0
H6268 H 0.18185 0.65882 0.55131 0.0
H6269 H 0.21018 0.71356 0.6261 0.0
H6270 H 0.2295 0.72473 0.61131 0.0
H6271 H 0.23112 0.69869 0.61827 0.0
C6272 C 0.07711 0.44739 0.33167 0.0
C6273 C 0.08022 0.43688 0.31387 0.0
C6274 C 0.09335 0.4564 0.34174 0.0
C6275 C 0.11297 0.45374 0.33428 0.0
C6276 C 0.11577 0.44467 0.31547 0.0
C6277 C 0.09923 0.43737 0.30511 0.0
C6278 C 0.08964 0.46838 0.36038 0.0
C6279 C 0.13636 0.44106 0.30686 0.0
C6280 C 0.16436 0.47191 0.34646 0.0
C6281 C 0.17183 0.45511 0.35658 0.0
C6282 C 0.14395 0.47344 0.34187 0.0
C6283 C 0.13094 0.45743 0.34674 0.0
C6284 C 0.13796 0.44157 0.35885 0.0
C6285 C 0.15833 0.44067 0.3637 0.0
C6286 C 0.13682 0.49135 0.33022 0.0
C6287 C 0.12448 0.42436 0.36485 0.0
H6288 H 0.06224 0.44802 0.33802 0.0
H6289 H 0.1016 0.43065 0.29064 0.0
H6290 H 0.09899 0.46293 0.37292 0.0
H6291 H 0.09404 0.48418 0.35765 0.0
H6292 H 0.07367 0.46795 0.36492 0.0
H6293 H 0.13582 0.43216 0.2929 0.0
H6294 H 0.14382 0.45551 0.30353 0.0
H6295 H 0.14584 0.43293 0.31776 0.0
H6296 H 0.17453 0.4835 0.34135 0.0
H6297 H 0.1638 0.42827 0.37253 0.0
H6298 H 0.12052 0.49376 0.33207 0.0
H6299 H 0.13996 0.48912 0.31415 0.0
H6300 H 0.145 0.50505 0.335 0.0
H6301 H 0.11027 0.42995 0.37116 0.0
H6302 H 0.13165 0.41445 0.37604 0.0
H6303 H 0.12067 0.41531 0.35149 0.0
C6304 C 0.45596 0.60067 0.80113 0.0
C6305 C 0.4695 0.60965 0.81453 0.0
C6306 C 0.43947 0.58963 0.80797 0.0
C6307 C 0.43646 0.58771 0.82872 0.0
C6308 C 0.45199 0.59347 0.84197 0.0
C6309 C 0.46811 0.60487 0.83472 0.0
C6310 C 0.42378 0.58303 0.79312 0.0
C6311 C 0.44993 0.59069 0.86419 0.0
C6312 C 0.38564 0.60403 0.84691 0.0
C6313 C 0.37765 0.58641 0.85508 0.0
C6314 C 0.40459 0.60443 0.83815 0.0
C6315 C 0.41566 0.58651 0.83649 0.0
C6316 C 0.40723 0.56832 0.84331 0.0
C6317 C 0.38851 0.56853 0.85289 0.0
C6318 C 0.41295 0.62432 0.83115 0.0
C6319 C 0.41791 0.54871 0.84048 0.0
H6320 H 0.45674 0.60441 0.78542 0.0
H6321 H 0.47801 0.61202 0.84516 0.0
H6322 H 0.41599 0.56925 0.7982 0.0
H6323 H 0.41244 0.59497 0.79147 0.0
H6324 H 0.43046 0.5803 0.77823 0.0
H6325 H 0.4647 0.59155 0.87179 0.0
H6326 H 0.44029 0.60267 0.87024 0.0
H6327 H 0.4428 0.57611 0.86775 0.0
H6328 H 0.3772 0.61776 0.84757 0.0
H6329 H 0.38276 0.5547 0.85906 0.0
H6330 H 0.41598 0.6238 0.81492 0.0
H6331 H 0.42732 0.6276 0.83885 0.0
H6332 H 0.4026 0.6369 0.83405 0.0
H6333 H 0.41763 0.54468 0.82444 0.0
H6334 H 0.41075 0.53635 0.849 0.0
H6335 H 0.43384 0.54994 0.84499 0.0
C6336 C 0.91697 0.72772 0.66358 0.0
C6337 C 0.91759 0.71475 0.64728 0.0
C6338 C 0.93048 0.72547 0.67939 0.0
C6339 C 0.94467 0.70996 0.67856 0.0
C6340 C 0.94649 0.69814 0.66113 0.0
C6341 C 0.93273 0.70063 0.64567 0.0
C6342 C 0.92877 0.73877 0.69743 0.0
C6343 C 0.96179 0.68171 0.65948 0.0
C6344 C 0.98524 0.69534 0.71394 0.0
C6345 C 0.97634 0.6783 0.72233 0.0
C6346 C 0.97434 0.70784 0.70129 0.0
C6347 C 0.95424 0.70282 0.69699 0.0
C6348 C 0.94456 0.68721 0.70755 0.0
C6349 C 0.95588 0.67505 0.72011 0.0
C6350 C 0.98519 0.72451 0.69057 0.0
C6351 C 0.923 0.68158 0.70339 0.0
H6352 H 0.90564 0.73923 0.66414 0.0
H6353 H 0.9335 0.6913 0.63248 0.0
H6354 H 0.92097 0.73051 0.7095 0.0
H6355 H 0.9438 0.74308 0.70312 0.0
H6356 H 0.92018 0.75253 0.69407 0.0
H6357 H 0.96311 0.67604 0.64397 0.0
H6358 H 0.97672 0.68707 0.66448 0.0
H6359 H 0.95736 0.66904 0.66925 0.0
H6360 H 1.00125 0.69766 0.71543 0.0
H6361 H 0.94916 0.66172 0.72609 0.0
H6362 H 0.97489 0.73661 0.68598 0.0
H6363 H 0.99233 0.71843 0.67698 0.0
H6364 H 0.99721 0.73094 0.70013 0.0
H6365 H 0.91772 0.66907 0.7129 0.0
H6366 H 0.92123 0.67695 0.6876 0.0
H6367 H 0.91323 0.69467 0.70582 0.0
C6368 C 0.12791 0.20427 0.45785 0.0
C6369 C 0.11875 0.21918 0.46907 0.0
C6370 C 0.11727 0.19376 0.4432 0.0
C6371 C 0.09718 0.19895 0.43907 0.0
C6372 C 0.08714 0.21214 0.45212 0.0
C6373 C 0.09812 0.22215 0.46708 0.0
C6374 C 0.12865 0.17908 0.43063 0.0
C6375 C 0.0655 0.21746 0.44889 0.0
C6376 C 0.09263 0.2004 0.38317 0.0
C6377 C 0.0854 0.18122 0.37903 0.0
C6378 C 0.09431 0.20725 0.40284 0.0
C6379 C 0.08901 0.19439 0.41884 0.0
C6380 C 0.08002 0.17561 0.41467 0.0
C6381 C 0.07829 0.16921 0.39471 0.0
C6382 C 0.10353 0.22761 0.40643 0.0
C6383 C 0.07423 0.16149 0.43126 0.0
H6384 H 0.14393 0.20206 0.4592 0.0
H6385 H 0.09108 0.23395 0.47548 0.0
H6386 H 0.11893 0.169 0.42176 0.0
H6387 H 0.13856 0.18746 0.42028 0.0
H6388 H 0.13811 0.16965 0.44042 0.0
H6389 H 0.05894 0.22457 0.46232 0.0
H6390 H 0.0643 0.22811 0.43626 0.0
H6391 H 0.05656 0.20398 0.445 0.0
H6392 H 0.09782 0.20974 0.37098 0.0
H6393 H 0.0726 0.15434 0.39147 0.0
H6394 H 0.1191 0.22579 0.41191 0.0
H6395 H 0.09509 0.23585 0.41796 0.0
H6396 H 0.10393 0.2368 0.39263 0.0
H6397 H 0.08789 0.15421 0.43721 0.0
H6398 H 0.06379 0.14963 0.42597 0.0
H6399 H 0.06719 0.16968 0.44376 0.0
C6400 C 0.55552 0.354 0.19613 0.0
C6401 C 0.56442 0.35528 0.21513 0.0
C6402 C 0.56538 0.34506 0.18042 0.0
C6403 C 0.58399 0.33615 0.18415 0.0
C6404 C 0.59244 0.33596 0.20354 0.0
C6405 C 0.58259 0.34587 0.21892 0.0
C6406 C 0.55637 0.3461 0.15971 0.0
C6407 C 0.6122 0.32599 0.20777 0.0
C6408 C 0.60516 0.29895 0.14866 0.0
C6409 C 0.6201 0.31055 0.1398 0.0
C6410 C 0.59234 0.30747 0.16251 0.0
C6411 C 0.59511 0.32779 0.16757 0.0
C6412 C 0.60938 0.33985 0.15764 0.0
C6413 C 0.62181 0.33098 0.14367 0.0
C6414 C 0.57669 0.29453 0.17251 0.0
C6415 C 0.61224 0.36176 0.16251 0.0
H6416 H 0.54115 0.3608 0.19316 0.0
H6417 H 0.58933 0.3467 0.23361 0.0
H6418 H 0.56615 0.35531 0.14994 0.0
H6419 H 0.5554 0.331 0.15299 0.0
H6420 H 0.5412 0.35279 0.15968 0.0
H6421 H 0.61578 0.32569 0.22395 0.0
H6422 H 0.61198 0.31042 0.20207 0.0
H6423 H 0.62436 0.33411 0.19989 0.0
H6424 H 0.60391 0.28318 0.14511 0.0
H6425 H 0.63344 0.33972 0.13643 0.0
H6426 H 0.56202 0.30216 0.17279 0.0
H6427 H 0.58118 0.29179 0.18821 0.0
H6428 H 0.57479 0.27989 0.16492 0.0
H6429 H 0.59767 0.3696 0.16241 0.0
H6430 H 0.62246 0.36938 0.15187 0.0
H6431 H 0.61861 0.36327 0.17773 0.0
C6432 C 0.44311 0.80766 0.96956 0.0
C6433 C 0.42318 0.81393 0.96985 0.0
C6434 C 0.45661 0.81522 0.95548 0.0
C6435 C 0.44992 0.82966 0.94168 0.0
C6436 C 0.42999 0.83676 0.94254 0.0
C6437 C 0.41679 0.82843 0.95635 0.0
C6438 C 0.47759 0.80695 0.95475 0.0
C6439 C 0.42217 0.85225 0.92809 0.0
C6440 C 0.47582 0.86715 0.91047 0.0
C6441 C 0.4701 0.85999 0.89172 0.0
C6442 C 0.47252 0.85551 0.92749 0.0
C6443 C 0.46288 0.83678 0.92536 0.0
C6444 C 0.4603 0.82827 0.90619 0.0
C6445 C 0.46394 0.84015 0.88941 0.0
C6446 C 0.4761 0.86465 0.94774 0.0
C6447 C 0.45055 0.80806 0.90331 0.0
H6448 H 0.44777 0.79558 0.97891 0.0
H6449 H 0.40112 0.8326 0.95601 0.0
H6450 H 0.4818 0.80308 0.93924 0.0
H6451 H 0.48834 0.81846 0.96007 0.0
H6452 H 0.47928 0.79344 0.96425 0.0
H6453 H 0.40674 0.85703 0.93176 0.0
H6454 H 0.432 0.86567 0.92813 0.0
H6455 H 0.42209 0.84608 0.91274 0.0
H6456 H 0.48076 0.88254 0.91201 0.0
H6457 H 0.45969 0.83476 0.87474 0.0
H6458 H 0.48112 0.85321 0.9586 0.0
H6459 H 0.46189 0.87101 0.95335 0.0
H6460 H 0.48745 0.87684 0.94708 0.0
H6461 H 0.45526 0.7974 0.91507 0.0
H6462 H 0.45418 0.80168 0.88847 0.0
H6463 H 0.43406 0.80968 0.90423 0.0
C6464 C 0.92704 0.31805 0.89079 0.0
C6465 C 0.92348 0.33468 0.90295 0.0
C6466 C 0.93993 0.31952 0.87441 0.0
C6467 C 0.94949 0.33797 0.87036 0.0
C6468 C 0.94695 0.35439 0.88347 0.0
C6469 C 0.93373 0.35259 0.89949 0.0
C6470 C 0.94272 0.30161 0.86107 0.0
C6471 C 0.95815 0.37389 0.88061 0.0
C6472 C 0.9909 0.3489 0.83413 0.0
C6473 C 0.98055 0.361 0.82052 0.0
C6474 C 0.98085 0.33952 0.84991 0.0
C6475 C 0.95986 0.34134 0.85118 0.0
C6476 C 0.94912 0.35073 0.8356 0.0
C6477 C 0.9597 0.36119 0.82088 0.0
C6478 C 0.99303 0.3302 0.86642 0.0
C6479 C 0.92659 0.35207 0.83614 0.0
H6480 H 0.91941 0.30404 0.8939 0.0
H6481 H 0.93154 0.36511 0.90948 0.0
H6482 H 0.93444 0.30397 0.84692 0.0
H6483 H 0.95873 0.2997 0.85724 0.0
H6484 H 0.93713 0.28762 0.86811 0.0
H6485 H 0.9527 0.38583 0.8907 0.0
H6486 H 0.97428 0.3715 0.88369 0.0
H6487 H 0.95691 0.37926 0.86504 0.0
H6488 H 1.00714 0.34901 0.83405 0.0
H6489 H 0.95176 0.37152 0.81154 0.0
H6490 H 0.98497 0.31756 0.87356 0.0
H6491 H 0.99601 0.34163 0.87806 0.0
H6492 H 1.00769 0.32487 0.86085 0.0
H6493 H 0.92037 0.3587 0.82233 0.0
H6494 H 0.92185 0.36134 0.84895 0.0
H6495 H 0.91996 0.33697 0.83824 0.0
C6496 C 0.48279 0.17231 0.62671 0.0
C6497 C 0.47135 0.1704 0.64403 0.0
C6498 C 0.47816 0.18697 0.61257 0.0
C6499 C 0.46141 0.1993 0.61578 0.0
C6500 C 0.45138 0.1989 0.63437 0.0
C6501 C 0.45655 0.18434 0.64839 0.0
C6502 C 0.48981 0.18789 0.59337 0.0
C6503 C 0.4337 0.2122 0.6385 0.0
C6504 C 0.44159 0.23835 0.58055 0.0
C6505 C 0.42557 0.22782 0.57197 0.0
C6506 C 0.45462 0.22898 0.5939 0.0
C6507 C 0.45137 0.20863 0.59856 0.0
C6508 C 0.43623 0.19756 0.58855 0.0
C6509 C 0.42328 0.20744 0.57554 0.0
C6510 C 0.47021 0.2415 0.60448 0.0
C6511 C 0.43236 0.17575 0.59315 0.0
H6512 H 0.49463 0.16172 0.6238 0.0
H6513 H 0.44806 0.1829 0.66208 0.0
H6514 H 0.48126 0.18003 0.58149 0.0
H6515 H 0.49204 0.2036 0.58849 0.0
H6516 H 0.50465 0.18065 0.5949 0.0
H6517 H 0.42991 0.21253 0.65462 0.0
H6518 H 0.43671 0.22769 0.63338 0.0
H6519 H 0.42045 0.20653 0.63018 0.0
H6520 H 0.44276 0.25439 0.57839 0.0
H6521 H 0.41028 0.19966 0.56978 0.0
H6522 H 0.4834 0.23256 0.60896 0.0
H6523 H 0.46354 0.24794 0.61816 0.0
H6524 H 0.4753 0.25414 0.59494 0.0
H6525 H 0.4463 0.16705 0.59127 0.0
H6526 H 0.42055 0.16917 0.58348 0.0
H6527 H 0.42753 0.17406 0.60888 0.0
C6528 C 0.6236 0.70473 0.38952 0.0
C6529 C 0.61178 0.71717 0.40126 0.0
C6530 C 0.61476 0.69228 0.37524 0.0
C6531 C 0.59375 0.69241 0.37302 0.0
C6532 C 0.58169 0.70355 0.38627 0.0
C6533 C 0.59096 0.71612 0.40016 0.0
C6534 C 0.62798 0.68037 0.36152 0.0
C6535 C 0.55911 0.70325 0.38495 0.0
C6536 C 0.56682 0.68366 0.32429 0.0
C6537 C 0.55905 0.66455 0.32769 0.0
C6538 C 0.57964 0.69249 0.33841 0.0
C6539 C 0.58427 0.68191 0.35618 0.0
C6540 C 0.57755 0.66212 0.35886 0.0
C6541 C 0.56492 0.65379 0.34459 0.0
C6542 C 0.58684 0.71366 0.33516 0.0
C6543 C 0.58185 0.6505 0.37773 0.0
H6544 H 0.63977 0.70587 0.39049 0.0
H6545 H 0.58203 0.72591 0.40938 0.0
H6546 H 0.62179 0.66517 0.359 0.0
H6547 H 0.6287 0.68796 0.34682 0.0
H6548 H 0.64344 0.67904 0.36747 0.0
H6549 H 0.55207 0.7105 0.39804 0.0
H6550 H 0.55429 0.71129 0.3713 0.0
H6551 H 0.55339 0.68768 0.38385 0.0
H6552 H 0.56169 0.69222 0.31156 0.0
H6553 H 0.55805 0.63948 0.34767 0.0
H6554 H 0.60308 0.7149 0.33843 0.0
H6555 H 0.57894 0.7238 0.34553 0.0
H6556 H 0.58407 0.71884 0.31965 0.0
H6557 H 0.59817 0.6501 0.38067 0.0
H6558 H 0.57611 0.63491 0.37695 0.0
H6559 H 0.57474 0.65799 0.39062 0.0
C6560 C 0.08803 0.81565 0.07746 0.0
C6561 C 0.10666 0.82284 0.07119 0.0
C6562 C 0.07838 0.82415 0.09384 0.0
C6563 C 0.0877 0.84036 0.10376 0.0
C6564 C 0.106 0.84843 0.09657 0.0
C6565 C 0.1153 0.83946 0.08031 0.0
C6566 C 0.05887 0.81514 0.10095 0.0
C6567 C 0.11671 0.86538 0.1071 0.0
C6568 C 0.0685 0.87697 0.14083 0.0
C6569 C 0.07821 0.87008 0.15799 0.0
C6570 C 0.06896 0.86573 0.12325 0.0
C6571 C 0.08 0.84782 0.12291 0.0
C6572 C 0.08793 0.83985 0.14079 0.0
C6573 C 0.08684 0.85112 0.15825 0.0
C6574 C 0.05914 0.87376 0.10466 0.0
C6575 C 0.09935 0.82048 0.14103 0.0
H6576 H 0.0817 0.80255 0.07043 0.0
H6577 H 0.13005 0.84447 0.07568 0.0
H6578 H 0.05862 0.81365 0.11742 0.0
H6579 H 0.0464 0.82513 0.09664 0.0
H6580 H 0.05598 0.8002 0.09426 0.0
H6581 H 0.13023 0.87051 0.09892 0.0
H6582 H 0.10654 0.87827 0.10894 0.0
H6583 H 0.1214 0.86044 0.12221 0.0
H6584 H 0.06103 0.8913 0.14107 0.0
H6585 H 0.09371 0.84564 0.17185 0.0
H6586 H 0.05156 0.86154 0.09633 0.0
H6587 H 0.07074 0.88031 0.09476 0.0
H6588 H 0.04802 0.88551 0.10815 0.0
H6589 H 0.09061 0.80848 0.13357 0.0
H6590 H 0.10316 0.81556 0.1564 0.0
H6591 H 0.1134 0.82255 0.13253 0.0
C6592 C 0.70438 0.99088 0.68726 0.0
C6593 C 0.71974 0.97924 0.6791 0.0
C6594 C 0.68835 0.98187 0.69726 0.0
C6595 C 0.68878 0.96103 0.70063 0.0
C6596 C 0.70609 0.95001 0.69573 0.0
C6597 C 0.72097 0.95909 0.68413 0.0
C6598 C 0.66987 0.99407 0.70137 0.0
C6599 C 0.70754 0.92794 0.70009 0.0
C6600 C 0.64763 0.93251 0.72703 0.0
C6601 C 0.63753 0.9239 0.71075 0.0
C6602 C 0.66381 0.9456 0.72409 0.0
C6603 C 0.66996 0.94999 0.70443 0.0
C6604 C 0.65917 0.94211 0.68795 0.0
C6605 C 0.64312 0.92908 0.69135 0.0
C6606 C 0.67494 0.95376 0.74195 0.0
C6607 C 0.66496 0.94687 0.66667 0.0
H6608 H 0.70347 1.0066 0.68341 0.0
H6609 H 0.73214 0.9499 0.67728 0.0
H6610 H 0.65803 0.99003 0.69042 0.0
H6611 H 0.66388 0.99081 0.71642 0.0
H6612 H 0.67283 1.01039 0.7001 0.0
H6613 H 0.72338 0.92315 0.70096 0.0
H6614 H 0.70005 0.92405 0.71434 0.0
H6615 H 0.70011 0.91941 0.68794 0.0
H6616 H 0.64326 0.92854 0.74208 0.0
H6617 H 0.63494 0.92288 0.67878 0.0
H6618 H 0.67817 0.96993 0.74013 0.0
H6619 H 0.68952 0.94606 0.74336 0.0
H6620 H 0.66643 0.95152 0.756 0.0
H6621 H 0.66688 0.96323 0.66465 0.0
H6622 H 0.65366 0.9414 0.65575 0.0
H6623 H 0.67947 0.93975 0.66316 0.0
C6624 C 0.86219 0.89315 0.47024 0.0
C6625 C 0.86194 0.8803 0.45368 0.0
C6626 C 0.85121 0.91087 0.47017 0.0
C6627 C 0.84002 0.91587 0.45304 0.0
C6628 C 0.83865 0.9023 0.43684 0.0
C6629 C 0.84977 0.8847 0.43732 0.0
C6630 C 0.85251 0.92468 0.48791 0.0
C6631 C 0.8264 0.90689 0.41844 0.0
C6632 C 0.80379 0.95709 0.44381 0.0
C6633 C 0.81483 0.96792 0.42966 0.0
C6634 C 0.81238 0.94092 0.45383 0.0
C6635 C 0.83265 0.93641 0.45017 0.0
C6636 C 0.84465 0.94972 0.43888 0.0
C6637 C 0.83538 0.96498 0.42813 0.0
C6638 C 0.79894 0.92705 0.46555 0.0
C6639 C 0.86663 0.94586 0.43561 0.0
H6640 H 0.87144 0.88962 0.48306 0.0
H6641 H 0.84906 0.87443 0.42485 0.0
H6642 H 0.86338 0.93685 0.48468 0.0
H6643 H 0.83786 0.93171 0.491 0.0
H6644 H 0.85759 0.91668 0.50152 0.0
H6645 H 0.82483 0.89371 0.40848 0.0
H6646 H 0.81125 0.91205 0.42261 0.0
H6647 H 0.83374 0.91909 0.40991 0.0
H6648 H 0.78775 0.9593 0.44478 0.0
H6649 H 0.84372 0.97258 0.41666 0.0
H6650 H 0.80717 0.91943 0.47772 0.0
H6651 H 0.79286 0.91539 0.4554 0.0
H6652 H 0.78608 0.93525 0.47199 0.0
H6653 H 0.87417 0.95843 0.4278 0.0
H6654 H 0.86853 0.93216 0.42656 0.0
H6655 H 0.87423 0.94333 0.45012 0.0
C6656 C 0.84054 0.06266 0.1593 0.0
C6657 C 0.82298 0.05952 0.17009 0.0
C6658 C 0.85581 0.07476 0.16689 0.0
C6659 C 0.85269 0.08492 0.18506 0.0
C6660 C 0.83428 0.08294 0.19528 0.0
C6661 C 0.81985 0.06953 0.188 0.0
C6662 C 0.87554 0.07597 0.15598 0.0
C6663 C 0.82988 0.09486 0.21382 0.0
C6664 C 0.89635 0.10543 0.2148 0.0
C6665 C 0.89802 0.1248 0.20677 0.0
C6666 C 0.88201 0.09193 0.20746 0.0
C6667 C 0.86838 0.09844 0.19271 0.0
C6668 C 0.86998 0.11785 0.18467 0.0
C6669 C 0.88531 0.13043 0.19113 0.0
C6670 C 0.88136 0.07084 0.21554 0.0
C6671 C 0.85522 0.12546 0.1695 0.0
H6672 H 0.84275 0.05467 0.14547 0.0
H6673 H 0.80639 0.06659 0.19646 0.0
H6674 H 0.88003 0.09169 0.15321 0.0
H6675 H 0.8874 0.06925 0.16542 0.0
H6676 H 0.87501 0.06811 0.14141 0.0
H6677 H 0.81452 0.09203 0.21951 0.0
H6678 H 0.84075 0.09115 0.22576 0.0
H6679 H 0.83156 0.11106 0.21058 0.0
H6680 H 0.9059 0.10086 0.22702 0.0
H6681 H 0.88698 0.14495 0.18415 0.0
H6682 H 0.88128 0.05993 0.20309 0.0
H6683 H 0.8674 0.06844 0.22413 0.0
H6684 H 0.89429 0.0676 0.22546 0.0
H6685 H 0.85485 0.11527 0.15659 0.0
H6686 H 0.85886 0.1408 0.16424 0.0
H6687 H 0.83998 0.1254 0.17601 0.0
C6688 C 0.69425 0.15521 0.96415 0.0
C6689 C 0.67585 0.15853 0.95471 0.0
C6690 C 0.70313 0.1363 0.9637 0.0
C6691 C 0.69334 0.12049 0.95344 0.0
C6692 C 0.67357 0.12321 0.94634 0.0
C6693 C 0.66512 0.14233 0.94684 0.0
C6694 C 0.72412 0.13408 0.97174 0.0
C6695 C 0.66239 0.10657 0.93593 0.0
C6696 C 0.72927 0.09764 0.91751 0.0
C6697 C 0.73171 0.0782 0.92459 0.0
C6698 C 0.71592 0.1108 0.92609 0.0
C6699 C 0.70588 0.10512 0.94373 0.0
C6700 C 0.70897 0.08578 0.95193 0.0
C6701 C 0.72186 0.07233 0.94207 0.0
C6702 C 0.71359 0.13125 0.91664 0.0
C6703 C 0.6999 0.07989 0.97165 0.0
H6704 H 0.70235 0.1677 0.97068 0.0
H6705 H 0.6505 0.14481 0.94028 0.0
H6706 H 0.72653 0.11885 0.9778 0.0
H6707 H 0.73501 0.13652 0.9595 0.0
H6708 H 0.72737 0.14523 0.98359 0.0
H6709 H 0.64643 0.11032 0.93334 0.0
H6710 H 0.6695 0.1035 0.92133 0.0
H6711 H 0.66315 0.09272 0.94495 0.0
H6712 H 0.73814 0.1028 0.90495 0.0
H6713 H 0.72522 0.05796 0.9487 0.0
H6714 H 0.72169 0.14256 0.92571 0.0
H6715 H 0.69766 0.13567 0.91589 0.0
H6716 H 0.71977 0.13183 0.90129 0.0
H6717 H 0.70702 0.08878 0.98373 0.0
H6718 H 0.70209 0.06379 0.97501 0.0
H6719 H 0.68368 0.08324 0.97186 0.0
C6720 C 0.63838 0.1176 0.82764 0.0
C6721 C 0.62371 0.10684 0.83812 0.0
C6722 C 0.6581 0.11077 0.82688 0.0
C6723 C 0.6631 0.09289 0.83691 0.0
C6724 C 0.64776 0.08086 0.84538 0.0
C6725 C 0.62824 0.08819 0.84618 0.0
C6726 C 0.67389 0.12361 0.81704 0.0
C6727 C 0.65168 0.06077 0.85477 0.0
C6728 C 0.71567 0.07244 0.84234 0.0
C6729 C 0.72057 0.07948 0.86141 0.0
C6730 C 0.69732 0.0774 0.83333 0.0
C6731 C 0.68398 0.09004 0.8436 0.0
C6732 C 0.6898 0.09869 0.86193 0.0
C6733 C 0.7079 0.09314 0.87056 0.0
C6734 C 0.69141 0.0675 0.814 0.0
C6735 C 0.67599 0.11215 0.87358 0.0
H6736 H 0.63461 0.13181 0.82084 0.0
H6737 H 0.61658 0.07947 0.85339 0.0
H6738 H 0.68213 0.13218 0.82863 0.0
H6739 H 0.68489 0.11424 0.80904 0.0
H6740 H 0.66722 0.1344 0.80635 0.0
H6741 H 0.6423 0.04928 0.84721 0.0
H6742 H 0.6675 0.05606 0.85395 0.0
H6743 H 0.64685 0.06101 0.87055 0.0
H6744 H 0.7253 0.06165 0.83534 0.0
H6745 H 0.71099 0.09811 0.88534 0.0
H6746 H 0.68343 0.07809 0.80407 0.0
H6747 H 0.68105 0.05487 0.81722 0.0
H6748 H 0.70463 0.06156 0.80604 0.0
H6749 H 0.67054 0.12454 0.86406 0.0
H6750 H 0.6834 0.11873 0.88687 0.0
H6751 H 0.66277 0.10345 0.87871 0.0
C6752 C 0.73563 0.94758 0.59674 0.0
C6753 C 0.72477 0.9632 0.60525 0.0
C6754 C 0.72581 0.93088 0.58893 0.0
C6755 C 0.70468 0.93027 0.58923 0.0
C6756 C 0.69377 0.94752 0.59461 0.0
C6757 C 0.70404 0.96394 0.60276 0.0
C6758 C 0.73809 0.91289 0.58332 0.0
C6759 C 0.67121 0.94752 0.59458 0.0
C6760 C 0.67774 0.88319 0.57269 0.0
C6761 C 0.67652 0.87248 0.59076 0.0
C6762 C 0.68713 0.90196 0.57179 0.0
C6763 C 0.69457 0.9106 0.58953 0.0
C6764 C 0.69293 0.90014 0.60787 0.0
C6765 C 0.68425 0.88111 0.60814 0.0
C6766 C 0.68924 0.91241 0.55191 0.0
C6767 C 0.70064 0.90832 0.62749 0.0
H6768 H 0.75181 0.94756 0.59786 0.0
H6769 H 0.69574 0.97631 0.60898 0.0
H6770 H 0.73898 0.90267 0.59635 0.0
H6771 H 0.73117 0.90452 0.5708 0.0
H6772 H 0.75358 0.91728 0.57912 0.0
H6773 H 0.66521 0.96296 0.59487 0.0
H6774 H 0.66519 0.93966 0.58128 0.0
H6775 H 0.66576 0.93947 0.60801 0.0
H6776 H 0.67133 0.87701 0.55917 0.0
H6777 H 0.68384 0.87293 0.62209 0.0
H6778 H 0.70511 0.91654 0.54922 0.0
H6779 H 0.68057 0.92649 0.55199 0.0
H6780 H 0.6839 0.90299 0.53932 0.0
H6781 H 0.71323 0.89892 0.63271 0.0
H6782 H 0.6887 0.90715 0.63894 0.0
H6783 H 0.70583 0.92405 0.62692 0.0
C6784 C 0.83245 0.96456 0.34067 0.0
C6785 C 0.82891 0.96188 0.36103 0.0
C6786 C 0.85031 0.95782 0.33198 0.0
C6787 C 0.86458 0.94782 0.344 0.0
C6788 C 0.85977 0.94304 0.36404 0.0
C6789 C 0.84208 0.95037 0.37234 0.0
C6790 C 0.85452 0.96323 0.31056 0.0
C6791 C 0.8743 0.93227 0.37748 0.0
C6792 C 0.91263 0.9227 0.32838 0.0
C6793 C 0.92692 0.93696 0.33453 0.0
C6794 C 0.89203 0.92666 0.3296 0.0
C6795 C 0.88563 0.94521 0.33725 0.0
C6796 C 0.9 0.96027 0.34165 0.0
C6797 C 0.92047 0.95591 0.3404 0.0
C6798 C 0.87714 0.91061 0.32385 0.0
C6799 C 0.89377 0.9809 0.34809 0.0
H6800 H 0.82208 0.9733 0.33193 0.0
H6801 H 0.83934 0.94845 0.38814 0.0
H6802 H 0.86514 0.95274 0.30351 0.0
H6803 H 0.84045 0.96347 0.3017 0.0
H6804 H 0.86114 0.97848 0.31002 0.0
H6805 H 0.8668 0.92622 0.39096 0.0
H6806 H 0.88157 0.91974 0.36958 0.0
H6807 H 0.88619 0.9429 0.38232 0.0
H6808 H 0.91748 0.90804 0.32361 0.0
H6809 H 0.93146 0.96719 0.34446 0.0
H6810 H 0.86496 0.91703 0.31462 0.0
H6811 H 0.87019 0.90429 0.3375 0.0
H6812 H 0.88427 0.89827 0.31544 0.0
H6813 H 0.88736 0.98891 0.33509 0.0
H6814 H 0.90653 0.98983 0.35402 0.0
H6815 H 0.88196 0.98002 0.35958 0.0
C6816 C 0.86275 0.14217 0.09518 0.0
C6817 C 0.8684 0.14873 0.07633 0.0
C6818 C 0.84753 0.128 0.0972 0.0
C6819 C 0.83846 0.11988 0.07988 0.0
C6820 C 0.84286 0.12774 0.06093 0.0
C6821 C 0.85803 0.14204 0.05931 0.0
C6822 C 0.8422 0.12097 0.11786 0.0
C6823 C 0.83242 0.12025 0.04237 0.0
C6824 C 0.83017 0.06673 0.0931 0.0
C6825 C 0.81098 0.06819 0.10091 0.0
C6826 C 0.83856 0.08313 0.08321 0.0
C6827 C 0.82739 0.10103 0.0817 0.0
C6828 C 0.807 0.10136 0.08694 0.0
C6829 C 0.79891 0.08463 0.0963 0.0
C6830 C 0.86023 0.08225 0.07703 0.0
C6831 C 0.79462 0.12014 0.08596 0.0
H6832 H 0.87032 0.148 0.10829 0.0
H6833 H 0.86221 0.14754 0.04467 0.0
H6834 H 0.82624 0.11661 0.11916 0.0
H6835 H 0.85145 0.10776 0.12164 0.0
H6836 H 0.84522 0.13298 0.12887 0.0
H6837 H 0.83474 0.13049 0.02952 0.0
H6838 H 0.83833 0.10533 0.0384 0.0
H6839 H 0.81611 0.1185 0.04497 0.0
H6840 H 0.83923 0.05376 0.09647 0.0
H6841 H 0.78372 0.0853 0.10191 0.0
H6842 H 0.86959 0.09008 0.08832 0.0
H6843 H 0.8625 0.08987 0.0625 0.0
H6844 H 0.86553 0.0666 0.07581 0.0
H6845 H 0.79564 0.128 0.10051 0.0
H6846 H 0.77859 0.11647 0.08331 0.0
H6847 H 0.79986 0.13055 0.07419 0.0
C6848 C 0.68184 0.68857 0.97572 0.0
C6849 C 0.68643 0.70871 0.97192 0.0
C6850 C 0.69086 0.67319 0.96539 0.0
C6851 C 0.70672 0.67765 0.9522 0.0
C6852 C 0.7128 0.69785 0.94932 0.0
C6853 C 0.70205 0.7133 0.95875 0.0
C6854 C 0.68295 0.65212 0.96862 0.0
C6855 C 0.73041 0.70338 0.93643 0.0
C6856 C 0.72612 0.62647 0.94756 0.0
C6857 C 0.71336 0.6198 0.93235 0.0
C6858 C 0.72749 0.64693 0.95205 0.0
C6859 C 0.71556 0.66064 0.94123 0.0
C6860 C 0.7057 0.65423 0.92366 0.0
C6861 C 0.7044 0.63374 0.91961 0.0
C6862 C 0.73935 0.65346 0.97007 0.0
C6863 C 0.69406 0.66861 0.91087 0.0
H6864 H 0.67082 0.68446 0.98672 0.0
H6865 H 0.70619 0.72877 0.95617 0.0
H6866 H 0.67957 0.64481 0.95416 0.0
H6867 H 0.69429 0.64303 0.97652 0.0
H6868 H 0.66902 0.65179 0.97763 0.0
H6869 H 0.73934 0.71545 0.94363 0.0
H6870 H 0.74035 0.6905 0.93349 0.0
H6871 H 0.72488 0.70932 0.92199 0.0
H6872 H 0.73391 0.61568 0.95676 0.0
H6873 H 0.69554 0.62854 0.90705 0.0
H6874 H 0.72962 0.65286 0.98344 0.0
H6875 H 0.74489 0.66905 0.96831 0.0
H6876 H 0.75225 0.6434 0.97273 0.0
H6877 H 0.67968 0.67204 0.91828 0.0
H6878 H 0.69074 0.66225 0.89592 0.0
H6879 H 0.70247 0.68283 0.90898 0.0
C6880 C 0.19881 0.89845 0.09746 0.0
C6881 C 0.21655 0.89902 0.1084 0.0
C6882 C 0.19603 0.88403 0.08268 0.0
C6883 C 0.21111 0.86955 0.07965 0.0
C6884 C 0.23009 0.87196 0.08864 0.0
C6885 C 0.23264 0.88686 0.10308 0.0
C6886 C 0.17594 0.88265 0.07239 0.0
C6887 C 0.24673 0.85729 0.08507 0.0
C6888 C 0.18111 0.82273 0.07912 0.0
C6889 C 0.17968 0.81923 0.05874 0.0
C6890 C 0.19425 0.83729 0.08641 0.0
C6891 C 0.20473 0.84963 0.0727 0.0
C6892 C 0.20477 0.84488 0.05221 0.0
C6893 C 0.1926 0.82918 0.04555 0.0
C6894 C 0.19451 0.84143 0.10855 0.0
C6895 C 0.21508 0.85785 0.0369 0.0
H6896 H 0.18674 0.90849 0.10126 0.0
H6897 H 0.24661 0.88793 0.11128 0.0
H6898 H 0.17764 0.87785 0.05666 0.0
H6899 H 0.16647 0.8714 0.08014 0.0
H6900 H 0.168 0.89718 0.07268 0.0
H6901 H 0.26157 0.86397 0.08864 0.0
H6902 H 0.24444 0.84405 0.09479 0.0
H6903 H 0.24677 0.85203 0.06939 0.0
H6904 H 0.17051 0.81585 0.08913 0.0
H6905 H 0.19124 0.82649 0.02965 0.0
H6906 H 0.18456 0.85421 0.11185 0.0
H6907 H 0.20982 0.84535 0.11372 0.0
H6908 H 0.18915 0.82836 0.11724 0.0
H6909 H 0.20409 0.86859 0.0307 0.0
H6910 H 0.22061 0.84865 0.02432 0.0
H6911 H 0.22775 0.86652 0.04329 0.0
C6912 C 0.88438 0.45495 0.85745 0.0
C6913 C 0.88465 0.45591 0.87835 0.0
C6914 C 0.90213 0.455 0.84668 0.0
C6915 C 0.92046 0.45503 0.85718 0.0
C6916 C 0.92087 0.45776 0.87806 0.0
C6917 C 0.90281 0.45811 0.8885 0.0
C6918 C 0.90121 0.45308 0.82425 0.0
C6919 C 0.94035 0.45873 0.88942 0.0
C6920 C 0.95362 0.41659 0.83472 0.0
C6921 C 0.96801 0.42839 0.82532 0.0
C6922 C 0.93873 0.42525 0.84611 0.0
C6923 C 0.93794 0.44632 0.84744 0.0
C6924 C 0.953 0.45837 0.83866 0.0
C6925 C 0.96843 0.44907 0.82813 0.0
C6926 C 0.92319 0.41183 0.85573 0.0
C6927 C 0.95214 0.48088 0.83882 0.0
H6928 H 0.87024 0.45373 0.84954 0.0
H6929 H 0.90289 0.45985 0.90457 0.0
H6930 H 0.91394 0.46104 0.81709 0.0
H6931 H 0.90207 0.43706 0.82011 0.0
H6932 H 0.88697 0.45908 0.81819 0.0
H6933 H 0.93818 0.46351 0.90511 0.0
H6934 H 0.94739 0.44375 0.8894 0.0
H6935 H 0.95089 0.46928 0.88208 0.0
H6936 H 0.95369 0.40057 0.83268 0.0
H6937 H 0.98006 0.45799 0.82121 0.0
H6938 H 0.90856 0.41368 0.84812 0.0
H6939 H 0.92122 0.41584 0.87164 0.0
H6940 H 0.92723 0.39584 0.85484 0.0
H6941 H 0.94549 0.486 0.82453 0.0
H6942 H 0.96743 0.48739 0.83997 0.0
H6943 H 0.94288 0.48683 0.85112 0.0
C6944 C 0.33585 0.2131 0.57404 0.0
C6945 C 0.35597 0.21684 0.5785 0.0
C6946 C 0.32669 0.19521 0.58016 0.0
C6947 C 0.33823 0.18096 0.59066 0.0
C6948 C 0.35821 0.18551 0.59633 0.0
C6949 C 0.36671 0.20362 0.5904 0.0
C6950 C 0.3053 0.19097 0.57419 0.0
C6951 C 0.37138 0.17043 0.60675 0.0
C6952 C 0.3248 0.13434 0.61815 0.0
C6953 C 0.3316 0.12004 0.60456 0.0
C6954 C 0.32428 0.15456 0.61287 0.0
C6955 C 0.33087 0.16034 0.59373 0.0
C6956 C 0.33532 0.1456 0.57925 0.0
C6957 C 0.33592 0.12551 0.585 0.0
C6958 C 0.31827 0.16985 0.62821 0.0
C6959 C 0.33978 0.15082 0.55782 0.0
H6960 H 0.32784 0.22334 0.5644 0.0
H6961 H 0.38241 0.20659 0.59339 0.0
H6962 H 0.30426 0.17674 0.56577 0.0
H6963 H 0.29601 0.18921 0.58776 0.0
H6964 H 0.2989 0.20311 0.56487 0.0
H6965 H 0.38628 0.17674 0.61075 0.0
H6966 H 0.36412 0.16493 0.62057 0.0
H6967 H 0.37371 0.15738 0.59684 0.0
H6968 H 0.32079 0.12979 0.63316 0.0
H6969 H 0.34014 0.11413 0.57434 0.0
H6970 H 0.30909 0.18175 0.62126 0.0
H6971 H 0.33188 0.17706 0.63452 0.0
H6972 H 0.30968 0.16295 0.64063 0.0
H6973 H 0.32544 0.15174 0.54951 0.0
H6974 H 0.34893 0.13913 0.55054 0.0
H6975 H 0.34744 0.16545 0.55633 0.0
C6976 C 0.08858 0.08779 0.79961 0.0
C6977 C 0.07761 0.1001 0.81241 0.0
C6978 C 0.10427 0.07627 0.80679 0.0
C6979 C 0.10993 0.07836 0.8269 0.0
C6980 C 0.09838 0.09016 0.84013 0.0
C6981 C 0.08191 0.10063 0.83271 0.0
C6982 C 0.11571 0.06317 0.79255 0.0
C6983 C 0.1045 0.09326 0.86162 0.0
C6984 C 0.14755 0.05176 0.85784 0.0
C6985 C 0.16242 0.06653 0.85826 0.0
C6986 C 0.13108 0.05385 0.84513 0.0
C6987 C 0.12964 0.07135 0.83343 0.0
C6988 C 0.14614 0.08464 0.83174 0.0
C6989 C 0.16262 0.08181 0.84413 0.0
C6990 C 0.11411 0.03892 0.84634 0.0
C6991 C 0.14515 0.1036 0.8195 0.0
H6992 H 0.08511 0.08752 0.78381 0.0
H6993 H 0.07354 0.11051 0.84235 0.0
H6994 H 0.13002 0.07057 0.78845 0.0
H6995 H 0.11941 0.04867 0.79965 0.0
H6996 H 0.10711 0.06026 0.77864 0.0
H6997 H 0.09328 0.10198 0.87009 0.0
H6998 H 0.10662 0.07868 0.86918 0.0
H6999 H 0.11901 0.10142 0.86222 0.0
H7000 H 0.14768 0.03989 0.86888 0.0
H7001 H 0.17436 0.09309 0.8447 0.0
H7002 H 0.1066 0.03711 0.83167 0.0
H7003 H 0.10281 0.04432 0.85711 0.0
H7004 H 0.11946 0.02411 0.85154 0.0
H7005 H 0.13868 0.10069 0.80456 0.0
H7006 H 0.16015 0.1106 0.81758 0.0
H7007 H 0.13535 0.1145 0.82713 0.0
C7008 C 0.82696 0.41049 0.42421 0.0
C7009 C 0.84211 0.42375 0.43074 0.0
C7010 C 0.82654 0.39038 0.43044 0.0
C7011 C 0.84202 0.38317 0.44288 0.0
C7012 C 0.85723 0.39644 0.44949 0.0
C7013 C 0.85687 0.41652 0.44369 0.0
C7014 C 0.8096 0.37689 0.42379 0.0
C7015 C 0.87411 0.38941 0.46265 0.0
C7016 C 0.84214 0.34055 0.47906 0.0
C7017 C 0.85444 0.32679 0.46938 0.0
C7018 C 0.83538 0.35774 0.46937 0.0
C7019 C 0.84233 0.36205 0.44995 0.0
C7020 C 0.85359 0.34752 0.43952 0.0
C7021 C 0.85921 0.32977 0.4493 0.0
C7022 C 0.82287 0.37242 0.48093 0.0
C7023 C 0.86172 0.35172 0.41898 0.0
H7024 H 0.81556 0.41565 0.41395 0.0
H7025 H 0.86831 0.42659 0.44933 0.0
H7026 H 0.81549 0.36471 0.41433 0.0
H7027 H 0.80242 0.36977 0.43692 0.0
H7028 H 0.79801 0.3851 0.41521 0.0
H7029 H 0.88537 0.40136 0.4655 0.0
H7030 H 0.86817 0.3842 0.47719 0.0
H7031 H 0.88172 0.37657 0.45554 0.0
H7032 H 0.83916 0.33878 0.49478 0.0
H7033 H 0.86912 0.31936 0.44196 0.0
H7034 H 0.81171 0.37974 0.47111 0.0
H7035 H 0.83272 0.38425 0.48724 0.0
H7036 H 0.8149 0.365 0.49346 0.0
H7037 H 0.84989 0.35789 0.40917 0.0
H7038 H 0.86795 0.33811 0.41193 0.0
H7039 H 0.87382 0.36312 0.42006 0.0
C7040 C 0.9468 0.62158 0.7024 0.0
C7041 C 0.96291 0.61087 0.71012 0.0
C7042 C 0.9297 0.61179 0.69535 0.0
C7043 C 0.92876 0.59066 0.69599 0.0
C7044 C 0.94597 0.57968 0.70154 0.0
C7045 C 0.96307 0.59003 0.7084 0.0
C7046 C 0.91194 0.62423 0.68913 0.0
C7047 C 0.94582 0.55715 0.70173 0.0
C7048 C 0.87483 0.57884 0.70581 0.0
C7049 C 0.86755 0.57714 0.68635 0.0
C7050 C 0.89547 0.5803 0.70945 0.0
C7051 C 0.90894 0.58087 0.69315 0.0
C7052 C 0.90175 0.57712 0.67366 0.0
C7053 C 0.88107 0.57523 0.67048 0.0
C7054 C 0.90275 0.58293 0.73059 0.0
C7055 C 0.91558 0.57728 0.65592 0.0
H7056 H 0.94704 0.6377 0.70301 0.0
H7057 H 0.97592 0.58183 0.71377 0.0
H7058 H 0.90521 0.61847 0.67514 0.0
H7059 H 0.90033 0.62347 0.70092 0.0
H7060 H 0.91608 0.64014 0.6868 0.0
H7061 H 0.96122 0.55106 0.70228 0.0
H7062 H 0.93758 0.55177 0.71504 0.0
H7063 H 0.93801 0.5511 0.68842 0.0
H7064 H 0.86434 0.57971 0.71807 0.0
H7065 H 0.8754 0.57361 0.6554 0.0
H7066 H 0.90879 0.59825 0.73253 0.0
H7067 H 0.91514 0.57244 0.73375 0.0
H7068 H 0.89067 0.58041 0.74168 0.0
H7069 H 0.9187 0.59298 0.6515 0.0
H7070 H 0.9088 0.56943 0.64294 0.0
H7071 H 0.9301 0.57022 0.65959 0.0
C7072 C 0.65084 0.43745 0.16696 0.0
C7073 C 0.66629 0.44522 0.1789 0.0
C7074 C 0.63125 0.43547 0.17437 0.0
C7075 C 0.62722 0.44072 0.1944 0.0
C7076 C 0.64261 0.44956 0.20615 0.0
C7077 C 0.66192 0.45191 0.19814 0.0
C7078 C 0.61511 0.4268 0.1611 0.0
C7079 C 0.63923 0.45506 0.22769 0.0
C7080 C 0.57513 0.44124 0.21774 0.0
C7081 C 0.57399 0.42193 0.22579 0.0
C7082 C 0.59177 0.44729 0.20628 0.0
C7083 C 0.60811 0.43407 0.20393 0.0
C7084 C 0.60672 0.41442 0.21174 0.0
C7085 C 0.58958 0.40854 0.22226 0.0
C7086 C 0.59221 0.46805 0.1975 0.0
C7087 C 0.62397 0.40001 0.21033 0.0
H7088 H 0.65418 0.43258 0.15193 0.0
H7089 H 0.67389 0.45801 0.20729 0.0
H7090 H 0.61183 0.41118 0.16567 0.0
H7091 H 0.60105 0.43539 0.16261 0.0
H7092 H 0.61963 0.42674 0.14518 0.0
H7093 H 0.65144 0.46473 0.23363 0.0
H7094 H 0.62481 0.46289 0.22959 0.0
H7095 H 0.63858 0.4412 0.23679 0.0
H7096 H 0.56332 0.45179 0.22094 0.0
H7097 H 0.58915 0.39393 0.22919 0.0
H7098 H 0.59744 0.4676 0.18182 0.0
H7099 H 0.60288 0.47755 0.206 0.0
H7100 H 0.57726 0.47519 0.19794 0.0
H7101 H 0.62828 0.39779 0.19455 0.0
H7102 H 0.62036 0.38518 0.21693 0.0
H7103 H 0.6372 0.40632 0.21822 0.0
C7104 C 0.59817 0.81619 0.89593 0.0
C7105 C 0.61873 0.81301 0.89457 0.0
C7106 C 0.58875 0.82961 0.88303 0.0
C7107 C 0.60032 0.83977 0.86848 0.0
C7108 C 0.62132 0.83746 0.86796 0.0
C7109 C 0.63033 0.82394 0.88106 0.0
C7110 C 0.56632 0.83198 0.88426 0.0
C7111 C 0.63403 0.84837 0.85283 0.0
C7112 C 0.57044 0.85422 0.82295 0.0
C7113 C 0.56538 0.87379 0.82765 0.0
C7114 C 0.58308 0.84325 0.83548 0.0
C7115 C 0.59023 0.85212 0.85331 0.0
C7116 C 0.58599 0.87227 0.85757 0.0
C7117 C 0.5739 0.88303 0.84442 0.0
C7118 C 0.58715 0.82167 0.83056 0.0
C7119 C 0.59266 0.88181 0.87688 0.0
H7120 H 0.5894 0.80752 0.90647 0.0
H7121 H 0.64627 0.82118 0.88015 0.0
H7122 H 0.56211 0.84798 0.88385 0.0
H7123 H 0.55921 0.82464 0.87119 0.0
H7124 H 0.56006 0.82518 0.89804 0.0
H7125 H 0.65028 0.84631 0.8556 0.0
H7126 H 0.63042 0.84274 0.83768 0.0
H7127 H 0.63068 0.86459 0.85301 0.0
H7128 H 0.56353 0.84722 0.81021 0.0
H7129 H 0.56968 0.89819 0.84818 0.0
H7130 H 0.57682 0.81202 0.8393 0.0
H7131 H 0.60267 0.81748 0.83455 0.0
H7132 H 0.58475 0.81859 0.81447 0.0
H7133 H 0.58734 0.8729 0.88979 0.0
H7134 H 0.58685 0.89719 0.87856 0.0
H7135 H 0.60924 0.88199 0.87764 0.0
C7136 C 0.43642 0.32516 0.07159 0.0
C7137 C 0.41986 0.31285 0.07504 0.0
C7138 C 0.44345 0.33796 0.0866 0.0
C7139 C 0.43475 0.33684 0.10579 0.0
C7140 C 0.41886 0.32336 0.10962 0.0
C7141 C 0.41105 0.31213 0.09393 0.0
C7142 C 0.46031 0.35233 0.08202 0.0
C7143 C 0.41051 0.32033 0.13034 0.0
C7144 C 0.46492 0.35913 0.14805 0.0
C7145 C 0.45321 0.37578 0.15311 0.0
C7146 C 0.4588 0.34584 0.13313 0.0
C7147 C 0.44157 0.35031 0.12178 0.0
C7148 C 0.43026 0.36752 0.12602 0.0
C7149 C 0.43576 0.37958 0.1421 0.0
C7150 C 0.47088 0.32711 0.1298 0.0
C7151 C 0.41255 0.37343 0.11331 0.0
H7152 H 0.44386 0.32473 0.05726 0.0
H7153 H 0.39884 0.30175 0.09672 0.0
H7154 H 0.45699 0.3674 0.08801 0.0
H7155 H 0.47425 0.34705 0.08923 0.0
H7156 H 0.46308 0.35361 0.06575 0.0
H7157 H 0.40038 0.30711 0.13119 0.0
H7158 H 0.42289 0.31828 0.14122 0.0
H7159 H 0.40199 0.3337 0.13496 0.0
H7160 H 0.47885 0.35619 0.15574 0.0
H7161 H 0.42616 0.39191 0.14599 0.0
H7162 H 0.48309 0.33039 0.11911 0.0
H7163 H 0.46165 0.31466 0.12376 0.0
H7164 H 0.47797 0.32202 0.14392 0.0
H7165 H 0.41776 0.37674 0.09795 0.0
H7166 H 0.40472 0.38676 0.11919 0.0
H7167 H 0.40169 0.36095 0.11217 0.0
C7168 C 0.93383 0.19932 0.40755 0.0
C7169 C 0.9156 0.20925 0.40617 0.0
C7170 C 0.94711 0.19971 0.3916 0.0
C7171 C 0.94176 0.21037 0.37417 0.0
C7172 C 0.92468 0.22261 0.37388 0.0
C7173 C 0.91146 0.22166 0.38992 0.0
C7174 C 0.96564 0.18698 0.39258 0.0
C7175 C 0.91955 0.23522 0.35594 0.0
C7176 C 0.9786 0.2004 0.33356 0.0
C7177 C 0.96948 0.18372 0.32483 0.0
C7178 C 0.96869 0.21104 0.34837 0.0
C7179 C 0.95007 0.20367 0.35521 0.0
C7180 C 0.94052 0.1873 0.3456 0.0
C7181 C 0.95022 0.17787 0.32998 0.0
C7182 C 0.9789 0.22905 0.35746 0.0
C7183 C 0.92106 0.17837 0.35305 0.0
H7184 H 0.93735 0.19078 0.42086 0.0
H7185 H 0.89785 0.23039 0.38971 0.0
H7186 H 0.96351 0.17375 0.38284 0.0
H7187 H 0.97884 0.1954 0.38705 0.0
H7188 H 0.96884 0.18171 0.40797 0.0
H7189 H 0.90902 0.24737 0.35984 0.0
H7190 H 0.93327 0.24187 0.34932 0.0
H7191 H 0.91235 0.22567 0.34442 0.0
H7192 H 0.99369 0.20466 0.32936 0.0
H7193 H 0.94354 0.16478 0.32303 0.0
H7194 H 0.99005 0.22403 0.36865 0.0
H7195 H 0.96815 0.23915 0.36488 0.0
H7196 H 0.98715 0.23761 0.34586 0.0
H7197 H 0.92319 0.1724 0.36835 0.0
H7198 H 0.91555 0.166 0.34342 0.0
H7199 H 0.90931 0.18995 0.35372 0.0
C7200 C 0.12955 0.72936 0.59407 0.0
C7201 C 0.1211 0.7298 0.57497 0.0
C7202 C 0.12043 0.71862 0.60945 0.0
C7203 C 0.10331 0.70683 0.60519 0.0
C7204 C 0.09467 0.70725 0.58587 0.0
C7205 C 0.10321 0.71957 0.5712 0.0
C7206 C 0.1293 0.71976 0.63018 0.0
C7207 C 0.07655 0.6947 0.58065 0.0
C7208 C 0.10036 0.66052 0.63711 0.0
C7209 C 0.08394 0.66442 0.64943 0.0
C7210 C 0.10618 0.67392 0.62223 0.0
C7211 C 0.09615 0.69233 0.62026 0.0
C7212 C 0.08 0.69689 0.63299 0.0
C7213 C 0.07367 0.68261 0.647 0.0
C7214 C 0.12281 0.66807 0.60825 0.0
C7215 C 0.0698 0.71697 0.63217 0.0
H7216 H 0.14278 0.73829 0.59723 0.0
H7217 H 0.09599 0.72111 0.55679 0.0
H7218 H 0.11732 0.72123 0.6415 0.0
H7219 H 0.13757 0.70581 0.63344 0.0
H7220 H 0.13983 0.73259 0.63179 0.0
H7221 H 0.07338 0.69478 0.56438 0.0
H7222 H 0.07869 0.67902 0.58558 0.0
H7223 H 0.06322 0.70054 0.58844 0.0
H7224 H 0.10889 0.64696 0.63904 0.0
H7225 H 0.06067 0.68583 0.65599 0.0
H7226 H 0.13417 0.68011 0.60713 0.0
H7227 H 0.11645 0.66583 0.59314 0.0
H7228 H 0.13038 0.65409 0.61293 0.0
H7229 H 0.08102 0.72912 0.63421 0.0
H7230 H 0.05811 0.7185 0.6438 0.0
H7231 H 0.06275 0.71924 0.61738 0.0
C7232 C 0.56819 0.15669 0.70103 0.0
C7233 C 0.56393 0.16938 0.71695 0.0
C7234 C 0.57939 0.16344 0.68477 0.0
C7235 C 0.58715 0.1832 0.68479 0.0
C7236 C 0.58399 0.1957 0.70153 0.0
C7237 C 0.57179 0.18882 0.71717 0.0
C7238 C 0.58168 0.14982 0.66696 0.0
C7239 C 0.5926 0.21657 0.70255 0.0
C7240 C 0.62559 0.18663 0.64398 0.0
C7241 C 0.614 0.19398 0.6282 0.0
C7242 C 0.61767 0.18526 0.6633 0.0
C7243 C 0.59752 0.19064 0.66663 0.0
C7244 C 0.5863 0.19952 0.65103 0.0
C7245 C 0.5948 0.20127 0.63199 0.0
C7246 C 0.63038 0.17684 0.67988 0.0
C7247 C 0.56475 0.20549 0.65382 0.0
H7248 H 0.56134 0.14198 0.70051 0.0
H7249 H 0.56785 0.19882 0.72923 0.0
H7250 H 0.57475 0.15681 0.65363 0.0
H7251 H 0.59775 0.14757 0.66362 0.0
H7252 H 0.5746 0.13494 0.66935 0.0
H7253 H 0.59286 0.2223 0.7181 0.0
H7254 H 0.60803 0.21704 0.6965 0.0
H7255 H 0.58329 0.22679 0.69344 0.0
H7256 H 0.6407 0.18162 0.64111 0.0
H7257 H 0.58602 0.20731 0.6198 0.0
H7258 H 0.6251 0.16155 0.68358 0.0
H7259 H 0.62886 0.18602 0.69356 0.0
H7260 H 0.64643 0.17613 0.67572 0.0
H7261 H 0.55515 0.19191 0.65318 0.0
H7262 H 0.55971 0.21597 0.64198 0.0
H7263 H 0.56242 0.21261 0.66852 0.0
C7264 C 0.064 0.36085 0.90157 0.0
C7265 C 0.07835 0.36233 0.88646 0.0
C7266 C 0.06698 0.34797 0.91785 0.0
C7267 C 0.08476 0.33666 0.91889 0.0
C7268 C 0.09805 0.33651 0.90244 0.0
C7269 C 0.09473 0.34953 0.88645 0.0
C7270 C 0.0521 0.34789 0.93471 0.0
C7271 C 0.11693 0.32422 0.9026 0.0
C7272 C 0.11675 0.33279 0.96475 0.0
C7273 C 0.11472 0.31267 0.9698 0.0
C7274 C 0.10502 0.34133 0.94973 0.0
C7275 C 0.09203 0.32897 0.93834 0.0
C7276 C 0.08944 0.30866 0.94364 0.0
C7277 C 0.10087 0.30079 0.95936 0.0
C7278 C 0.10831 0.36309 0.94452 0.0
C7279 C 0.07638 0.29479 0.93143 0.0
H7280 H 0.05103 0.37049 0.90115 0.0
H7281 H 0.10548 0.35045 0.87439 0.0
H7282 H 0.05005 0.33261 0.94084 0.0
H7283 H 0.05784 0.35751 0.94695 0.0
H7284 H 0.03733 0.35369 0.92987 0.0
H7285 H 0.12351 0.32292 0.88747 0.0
H7286 H 0.12817 0.33146 0.9125 0.0
H7287 H 0.11401 0.30899 0.90848 0.0
H7288 H 0.12886 0.34142 0.97119 0.0
H7289 H 0.10085 0.28481 0.96176 0.0
H7290 H 0.09374 0.37075 0.9427 0.0
H7291 H 0.11643 0.36427 0.93016 0.0
H7292 H 0.11721 0.37107 0.95607 0.0
H7293 H 0.06119 0.30113 0.9297 0.0
H7294 H 0.07508 0.2797 0.93824 0.0
H7295 H 0.08271 0.29314 0.91625 0.0
C7296 C 0.96334 0.85742 0.21992 0.0
C7297 C 0.98384 0.85649 0.22362 0.0
C7298 C 0.95442 0.84546 0.20519 0.0
C7299 C 0.96647 0.83234 0.19387 0.0
C7300 C 0.98678 0.82973 0.19913 0.0
C7301 C 0.99524 0.84192 0.21396 0.0
C7302 C 0.93261 0.84863 0.20022 0.0
C7303 C 1.00017 0.81578 0.18773 0.0
C7304 C 0.93385 0.80255 0.15871 0.0
C7305 C 0.93309 0.81565 0.1424 0.0
C7306 C 0.94668 0.80646 0.1749 0.0
C7307 C 0.9584 0.82415 0.17485 0.0
C7308 C 0.95926 0.83613 0.15741 0.0
C7309 C 0.94665 0.8316 0.14129 0.0
C7310 C 0.946 0.79296 0.19292 0.0
C7311 C 0.97154 0.85514 0.15666 0.0
H7312 H 0.95466 0.86889 0.22698 0.0
H7313 H 1.01124 0.84138 0.21665 0.0
H7314 H 0.92476 0.83413 0.19817 0.0
H7315 H 0.92479 0.85717 0.212 0.0
H7316 H 0.93141 0.85707 0.186 0.0
H7317 H 1.01327 0.81123 0.19686 0.0
H7318 H 0.99195 0.80219 0.18281 0.0
H7319 H 1.00585 0.82356 0.17424 0.0
H7320 H 0.92315 0.79033 0.15961 0.0
H7321 H 0.94575 0.84185 0.12878 0.0
H7322 H 0.93662 0.7999 0.20461 0.0
H7323 H 0.96121 0.79092 0.19928 0.0
H7324 H 0.93954 0.77807 0.18923 0.0
H7325 H 0.96433 0.86668 0.16606 0.0
H7326 H 0.97283 0.8611 0.14125 0.0
H7327 H 0.98678 0.85263 0.16268 0.0
C7328 C 0.48906 0.68148 0.39709 0.0
C7329 C 0.47334 0.67981 0.38338 0.0
C7330 C 0.48725 0.69405 0.41363 0.0
C7331 C 0.46917 0.70451 0.41636 0.0
C7332 C 0.45464 0.70505 0.40094 0.0
C7333 C 0.45704 0.69267 0.38442 0.0
C7334 C 0.50335 0.69384 0.42944 0.0
C7335 C 0.43517 0.71618 0.40319 0.0
C7336 C 0.44233 0.70481 0.46551 0.0
C7337 C 0.44288 0.72518 0.46971 0.0
C7338 C 0.45234 0.69749 0.44877 0.0
C7339 C 0.4633 0.71096 0.43648 0.0
C7340 C 0.46557 0.73115 0.44203 0.0
C7341 C 0.45514 0.73804 0.45858 0.0
C7342 C 0.44933 0.67584 0.44304 0.0
C7343 C 0.47716 0.74587 0.42938 0.0
H7344 H 0.50164 0.67139 0.39609 0.0
H7345 H 0.44495 0.69113 0.37369 0.0
H7346 H 0.50486 0.70863 0.43676 0.0
H7347 H 0.49927 0.68276 0.44109 0.0
H7348 H 0.51804 0.68957 0.4231 0.0
H7349 H 0.42736 0.718 0.38866 0.0
H7350 H 0.42513 0.70768 0.41333 0.0
H7351 H 0.43767 0.73116 0.40981 0.0
H7352 H 0.43256 0.69505 0.47403 0.0
H7353 H 0.45515 0.7539 0.46175 0.0
H7354 H 0.46379 0.66894 0.43898 0.0
H7355 H 0.43935 0.67493 0.4298 0.0
H7356 H 0.44242 0.66697 0.45526 0.0
H7357 H 0.49222 0.73995 0.42595 0.0
H7358 H 0.4789 0.76062 0.43681 0.0
H7359 H 0.46931 0.74815 0.41496 0.0
C7360 C 0.82389 0.57655 0.85201 0.0
C7361 C 0.82749 0.5581 0.86103 0.0
C7362 C 0.83961 0.58738 0.84297 0.0
C7363 C 0.85909 0.57914 0.84262 0.0
C7364 C 0.86172 0.55897 0.8482 0.0
C7365 C 0.84582 0.54865 0.85714 0.0
C7366 C 0.83576 0.60842 0.836 0.0
C7367 C 0.88193 0.54906 0.8473 0.0
C7368 C 0.90391 0.60708 0.82079 0.0
C7369 C 0.91294 0.61515 0.83806 0.0
C7370 C 0.88632 0.59544 0.82187 0.0
C7371 C 0.87706 0.59235 0.84056 0.0
C7372 C 0.88565 0.60098 0.85791 0.0
C7373 C 0.90353 0.61205 0.85648 0.0
C7374 C 0.87781 0.58629 0.80307 0.0
C7375 C 0.87623 0.59812 0.87818 0.0
H7376 H 0.80945 0.58321 0.85325 0.0
H7377 H 0.84853 0.5338 0.86302 0.0
H7378 H 0.83852 0.61885 0.84858 0.0
H7379 H 0.84582 0.61279 0.82361 0.0
H7380 H 0.82001 0.61017 0.83102 0.0
H7381 H 0.88058 0.5325 0.84799 0.0
H7382 H 0.89002 0.55325 0.83349 0.0
H7383 H 0.89112 0.55409 0.86018 0.0
H7384 H 0.9106 0.60977 0.80634 0.0
H7385 H 0.91037 0.61786 0.86995 0.0
H7386 H 0.8629 0.59273 0.79987 0.0
H7387 H 0.87564 0.56995 0.80502 0.0
H7388 H 0.8876 0.58887 0.78995 0.0
H7389 H 0.86032 0.60276 0.87779 0.0
H7390 H 0.88407 0.60682 0.88997 0.0
H7391 H 0.87654 0.58207 0.88237 0.0
C7392 C 0.73715 0.57639 0.09486 0.0
C7393 C 0.72625 0.56728 0.11024 0.0
C7394 C 0.7293 0.59272 0.08447 0.0
C7395 C 0.70987 0.59936 0.08924 0.0
C7396 C 0.69765 0.58789 0.10221 0.0
C7397 C 0.70629 0.57237 0.11316 0.0
C7398 C 0.74303 0.60463 0.07108 0.0
C7399 C 0.67657 0.5941 0.10714 0.0
C7400 C 0.69995 0.65345 0.10013 0.0
C7401 C 0.68686 0.65845 0.08463 0.0
C7402 C 0.70874 0.6346 0.10097 0.0
C7403 C 0.70443 0.62047 0.08579 0.0
C7404 C 0.69268 0.62599 0.06917 0.0
C7405 C 0.68384 0.64494 0.06885 0.0
C7406 C 0.7215 0.62943 0.11888 0.0
C7407 C 0.68834 0.6115 0.05247 0.0
H7408 H 0.75283 0.57274 0.09301 0.0
H7409 H 0.69817 0.56607 0.12562 0.0
H7410 H 0.73467 0.6123 0.05904 0.0
H7411 H 0.75083 0.61623 0.08009 0.0
H7412 H 0.75461 0.59493 0.06431 0.0
H7413 H 0.67705 0.60659 0.11801 0.0
H7414 H 0.66862 0.59937 0.0936 0.0
H7415 H 0.66789 0.58161 0.11388 0.0
H7416 H 0.70284 0.6641 0.11197 0.0
H7417 H 0.67381 0.64875 0.05673 0.0
H7418 H 0.7356 0.62222 0.11415 0.0
H7419 H 0.7133 0.61868 0.12853 0.0
H7420 H 0.72532 0.6428 0.12797 0.0
H7421 H 0.70202 0.60323 0.04824 0.0
H7422 H 0.68235 0.61918 0.03905 0.0
H7423 H 0.67712 0.60032 0.05755 0.0
C7424 C 0.71847 0.46102 0.35815 0.0
C7425 C 0.72085 0.48149 0.36086 0.0
C7426 C 0.70365 0.45373 0.34533 0.0
C7427 C 0.69012 0.46737 0.33642 0.0
C7428 C 0.69336 0.48814 0.33805 0.0
C7429 C 0.70923 0.49496 0.34982 0.0
C7430 C 0.701 0.43137 0.34335 0.0
C7431 C 0.67875 0.5032 0.32984 0.0
C7432 C 0.65614 0.43853 0.3032 0.0
C7433 C 0.64355 0.43032 0.31768 0.0
C7434 C 0.67006 0.45328 0.30845 0.0
C7435 C 0.67112 0.45949 0.32853 0.0
C7436 C 0.65623 0.45343 0.34232 0.0
C7437 C 0.64265 0.43854 0.33673 0.0
C7438 C 0.68532 0.45998 0.29328 0.0
C7439 C 0.65634 0.46056 0.36367 0.0
H7440 H 0.72673 0.45074 0.36742 0.0
H7441 H 0.71093 0.51089 0.35239 0.0
H7442 H 0.69702 0.42722 0.32783 0.0
H7443 H 0.71478 0.42325 0.34768 0.0
H7444 H 0.6887 0.42626 0.35324 0.0
H7445 H 0.68635 0.51764 0.3265 0.0
H7446 H 0.67108 0.49777 0.31619 0.0
H7447 H 0.66713 0.50611 0.34126 0.0
H7448 H 0.65635 0.43215 0.28835 0.0
H7449 H 0.6325 0.43218 0.34767 0.0
H7450 H 0.69914 0.45108 0.29526 0.0
H7451 H 0.68937 0.47595 0.29529 0.0
H7452 H 0.67976 0.45773 0.27781 0.0
H7453 H 0.66756 0.45196 0.37232 0.0
H7454 H 0.64151 0.45831 0.37082 0.0
H7455 H 0.66049 0.47662 0.36456 0.0
C7456 C 0.85947 0.38787 0.57432 0.0
C7457 C 0.8529 0.37406 0.58878 0.0
C7458 C 0.85216 0.40749 0.57395 0.0
C7459 C 0.83823 0.41341 0.58854 0.0
C7460 C 0.83071 0.39921 0.60241 0.0
C7461 C 0.83815 0.37972 0.60232 0.0
C7462 C 0.86017 0.42205 0.55868 0.0
C7463 C 0.81567 0.40484 0.61818 0.0
C7464 C 0.83485 0.46137 0.61601 0.0
C7465 C 0.81563 0.46728 0.61054 0.0
C7466 C 0.84416 0.44549 0.60628 0.0
C7467 C 0.83338 0.43478 0.59152 0.0
C7468 C 0.81519 0.44249 0.58406 0.0
C7469 C 0.80657 0.45891 0.59364 0.0
C7470 C 0.86416 0.43833 0.61383 0.0
C7471 C 0.80331 0.43169 0.56819 0.0
H7472 H 0.87092 0.38361 0.56376 0.0
H7473 H 0.83269 0.36897 0.61316 0.0
H7474 H 0.84824 0.43212 0.55319 0.0
H7475 H 0.87193 0.43153 0.56565 0.0
H7476 H 0.86687 0.41421 0.54575 0.0
H7477 H 0.80993 0.39161 0.62646 0.0
H7478 H 0.82278 0.4152 0.62905 0.0
H7479 H 0.80278 0.41269 0.61137 0.0
H7480 H 0.84164 0.46749 0.62934 0.0
H7481 H 0.79146 0.46323 0.58971 0.0
H7482 H 0.87457 0.43629 0.60117 0.0
H7483 H 0.86235 0.42359 0.62122 0.0
H7484 H 0.87104 0.44892 0.62464 0.0
H7485 H 0.81327 0.4259 0.55636 0.0
H7486 H 0.79191 0.44156 0.56128 0.0
H7487 H 0.79546 0.41871 0.57499 0.0
C7488 C 0.90982 0.42746 0.71694 0.0
C7489 C 0.92426 0.44074 0.70921 0.0
C7490 C 0.88929 0.43204 0.71609 0.0
C7491 C 0.8831 0.45003 0.70689 0.0
C7492 C 0.89779 0.46441 0.70139 0.0
C7493 C 0.91813 0.45949 0.70242 0.0
C7494 C 0.87421 0.41732 0.72431 0.0
C7495 C 0.89241 0.48518 0.69458 0.0
C7496 C 0.83864 0.45042 0.67183 0.0
C7497 C 0.82661 0.46492 0.68057 0.0
C7498 C 0.85638 0.44417 0.6811 0.0
C7499 C 0.862 0.45242 0.69982 0.0
C7500 C 0.84862 0.46541 0.70971 0.0
C7501 C 0.83122 0.47182 0.69976 0.0
C7502 C 0.87007 0.4305 0.66968 0.0
C7503 C 0.85343 0.47394 0.72997 0.0
H7504 H 0.91444 0.41309 0.72277 0.0
H7505 H 0.92929 0.47023 0.69749 0.0
H7506 H 0.86204 0.42529 0.73217 0.0
H7507 H 0.86727 0.40874 0.71193 0.0
H7508 H 0.88125 0.40657 0.73478 0.0
H7509 H 0.904 0.49141 0.68444 0.0
H7510 H 0.8776 0.48579 0.6872 0.0
H7511 H 0.89196 0.49511 0.7078 0.0
H7512 H 0.83504 0.44517 0.65696 0.0
H7513 H 0.82204 0.48329 0.70641 0.0
H7514 H 0.87646 0.41881 0.67945 0.0
H7515 H 0.88269 0.4394 0.6635 0.0
H7516 H 0.86215 0.42296 0.65718 0.0
H7517 H 0.86109 0.46274 0.73948 0.0
H7518 H 0.83971 0.4791 0.73767 0.0
H7519 H 0.86358 0.487 0.72825 0.0
C7520 C 0.80946 0.5899 0.94389 0.0
C7521 C 0.8201 0.57499 0.93387 0.0
C7522 C 0.81929 0.60575 0.95329 0.0
C7523 C 0.84017 0.60786 0.95086 0.0
C7524 C 0.85122 0.59211 0.94211 0.0
C7525 C 0.841 0.5755 0.93406 0.0
C7526 C 0.80688 0.62155 0.9634 0.0
C7527 C 0.87346 0.59402 0.93885 0.0
C7528 C 0.85426 0.66053 0.93584 0.0
C7529 C 0.86466 0.66757 0.95253 0.0
C7530 C 0.84674 0.64103 0.93516 0.0
C7531 C 0.84899 0.62826 0.95185 0.0
C7532 C 0.85889 0.63534 0.96912 0.0
C7533 C 0.86695 0.65482 0.96914 0.0
C7534 C 0.83607 0.63427 0.91651 0.0
C7535 C 0.86068 0.62249 0.98755 0.0
H7536 H 0.79324 0.58991 0.94335 0.0
H7537 H 0.84921 0.56413 0.92607 0.0
H7538 H 0.81526 0.62882 0.97575 0.0
H7539 H 0.80281 0.63323 0.95239 0.0
H7540 H 0.79278 0.61506 0.96942 0.0
H7541 H 0.88023 0.57962 0.93429 0.0
H7542 H 0.87631 0.60522 0.92695 0.0
H7543 H 0.88103 0.59943 0.95256 0.0
H7544 H 0.85181 0.67037 0.92323 0.0
H7545 H 0.87512 0.65998 0.98214 0.0
H7546 H 0.81994 0.63208 0.91975 0.0
H7547 H 0.84209 0.61978 0.91128 0.0
H7548 H 0.83753 0.64534 0.90425 0.0
H7549 H 0.8456 0.61762 0.99255 0.0
H7550 H 0.86821 0.63049 1.00003 0.0
H7551 H 0.86923 0.60879 0.98414 0.0
C7552 C 0.63682 0.61545 0.21876 0.0
C7553 C 0.6229 0.61054 0.20371 0.0
C7554 C 0.65626 0.60761 0.21852 0.0
C7555 C 0.66192 0.59505 0.20263 0.0
C7556 C 0.64767 0.58949 0.18795 0.0
C7557 C 0.62833 0.59717 0.18876 0.0
C7558 C 0.6708 0.61313 0.2349 0.0
C7559 C 0.65288 0.57554 0.17116 0.0
C7560 C 0.71214 0.58977 0.17866 0.0
C7561 C 0.71544 0.56951 0.18229 0.0
C7562 C 0.69573 0.59936 0.1874 0.0
C7563 C 0.68285 0.58836 0.2002 0.0
C7564 C 0.68796 0.56872 0.20596 0.0
C7565 C 0.70392 0.55938 0.19646 0.0
C7566 C 0.69065 0.62028 0.18078 0.0
C7567 C 0.67519 0.55658 0.22008 0.0
H7568 H 0.6327 0.62577 0.23046 0.0
H7569 H 0.61744 0.59279 0.17756 0.0
H7570 H 0.67902 0.59976 0.24017 0.0
H7571 H 0.68205 0.62388 0.22905 0.0
H7572 H 0.66317 0.62009 0.24781 0.0
H7573 H 0.64024 0.57341 0.16056 0.0
H7574 H 0.66596 0.58134 0.16274 0.0
H7575 H 0.65701 0.5608 0.17745 0.0
H7576 H 0.72103 0.59748 0.16751 0.0
H7577 H 0.70636 0.54365 0.19896 0.0
H7578 H 0.68576 0.62942 0.19363 0.0
H7579 H 0.67805 0.61961 0.16996 0.0
H7580 H 0.70353 0.62783 0.17345 0.0
H7581 H 0.66799 0.56615 0.23144 0.0
H7582 H 0.68421 0.54498 0.22777 0.0
H7583 H 0.66322 0.54883 0.21151 0.0
C7584 C 0.70487 0.46774 0.43927 0.0
C7585 C 0.72499 0.46494 0.43463 0.0
C7586 C 0.69414 0.45253 0.44893 0.0
C7587 C 0.70387 0.43433 0.45343 0.0
C7588 C 0.72475 0.43267 0.45121 0.0
C7589 C 0.73509 0.44823 0.44206 0.0
C7590 C 0.67197 0.45499 0.45217 0.0
C7591 C 0.73591 0.41368 0.45595 0.0
C7592 C 0.67291 0.39305 0.47624 0.0
C7593 C 0.66559 0.38352 0.45903 0.0
C7594 C 0.6861 0.40928 0.47481 0.0
C7595 C 0.69173 0.41611 0.45573 0.0
C7596 C 0.68498 0.40609 0.43834 0.0
C7597 C 0.6718 0.38995 0.44023 0.0
C7598 C 0.6936 0.41929 0.49361 0.0
C7599 C 0.69154 0.4125 0.41773 0.0
H7600 H 0.69718 0.48096 0.43401 0.0
H7601 H 0.75102 0.4468 0.43982 0.0
H7602 H 0.66365 0.44661 0.44048 0.0
H7603 H 0.66751 0.44877 0.46685 0.0
H7604 H 0.66748 0.47093 0.45141 0.0
H7605 H 0.75177 0.41694 0.45986 0.0
H7606 H 0.72892 0.4052 0.46834 0.0
H7607 H 0.73585 0.40397 0.44254 0.0
H7608 H 0.66817 0.3879 0.49083 0.0
H7609 H 0.66656 0.38213 0.42703 0.0
H7610 H 0.6857 0.43367 0.49562 0.0
H7611 H 0.70983 0.42275 0.49261 0.0
H7612 H 0.69098 0.40988 0.50702 0.0
H7613 H 0.68582 0.42769 0.41445 0.0
H7614 H 0.68604 0.40217 0.40594 0.0
H7615 H 0.70812 0.41321 0.41693 0.0
C7616 C 0.83959 0.82497 0.58414 0.0
C7617 C 0.85151 0.82873 0.56736 0.0
C7618 C 0.82986 0.84086 0.59393 0.0
C7619 C 0.83349 0.86081 0.58756 0.0
C7620 C 0.84456 0.86432 0.56996 0.0
C7621 C 0.85205 0.84817 0.55945 0.0
C7622 C 0.8157 0.83632 0.61083 0.0
C7623 C 0.84996 0.88518 0.56279 0.0
C7624 C 0.8155 0.91229 0.59748 0.0
C7625 C 0.83162 0.91938 0.60899 0.0
C7626 C 0.81361 0.89183 0.59307 0.0
C7627 C 0.82843 0.87843 0.59994 0.0
C7628 C 0.84289 0.88514 0.61393 0.0
C7629 C 0.84437 0.90559 0.61818 0.0
C7630 C 0.79706 0.88497 0.57931 0.0
C7631 C 0.85847 0.87123 0.6224 0.0
H7632 H 0.83803 0.80982 0.58968 0.0
H7633 H 0.85975 0.85125 0.54559 0.0
H7634 H 0.8179 0.84679 0.62345 0.0
H7635 H 0.80013 0.83829 0.6054 0.0
H7636 H 0.81727 0.82073 0.6163 0.0
H7637 H 0.86077 0.88503 0.55024 0.0
H7638 H 0.83635 0.89305 0.55768 0.0
H7639 H 0.85676 0.89404 0.57505 0.0
H7640 H 0.80505 0.9228 0.59099 0.0
H7641 H 0.85612 0.91092 0.62806 0.0
H7642 H 0.79296 0.86912 0.58218 0.0
H7643 H 0.80208 0.88627 0.56361 0.0
H7644 H 0.78358 0.8944 0.58105 0.0
H7645 H 0.8515 0.85705 0.62751 0.0
H7646 H 0.86668 0.87804 0.63514 0.0
H7647 H 0.86946 0.86749 0.61061 0.0
C7648 C 0.33055 0.6379 0.43586 0.0
C7649 C 0.33767 0.63711 0.41617 0.0
C7650 C 0.33867 0.65152 0.44957 0.0
C7651 C 0.35336 0.66535 0.44304 0.0
C7652 C 0.36136 0.66386 0.42362 0.0
C7653 C 0.35384 0.64933 0.41068 0.0
C7654 C 0.33075 0.65165 0.47065 0.0
C7655 C 0.37645 0.67874 0.41568 0.0
C7656 C 0.35356 0.71571 0.46858 0.0
C7657 C 0.37186 0.71508 0.47859 0.0
C7658 C 0.34747 0.69969 0.45654 0.0
C7659 C 0.35942 0.68228 0.45581 0.0
C7660 C 0.37754 0.68136 0.46666 0.0
C7661 C 0.38378 0.69803 0.47756 0.0
C7662 C 0.32819 0.70136 0.4449 0.0
C7663 C 0.3899 0.66255 0.46741 0.0
H7664 H 0.31805 0.6286 0.44043 0.0
H7665 H 0.35999 0.64831 0.39579 0.0
H7666 H 0.34244 0.65629 0.48151 0.0
H7667 H 0.31818 0.66232 0.47169 0.0
H7668 H 0.32496 0.63666 0.47501 0.0
H7669 H 0.38403 0.67317 0.40208 0.0
H7670 H 0.36841 0.69262 0.41169 0.0
H7671 H 0.38804 0.68261 0.42691 0.0
H7672 H 0.34401 0.72863 0.47029 0.0
H7673 H 0.39744 0.69733 0.48626 0.0
H7674 H 0.31657 0.69174 0.45187 0.0
H7675 H 0.33027 0.69615 0.42935 0.0
H7676 H 0.32255 0.71694 0.44455 0.0
H7677 H 0.38095 0.65037 0.47436 0.0
H7678 H 0.40393 0.66458 0.47612 0.0
H7679 H 0.39383 0.6576 0.45216 0.0
C7680 C 0.58707 0.09137 0.73543 0.0
C7681 C 0.57111 0.09929 0.72439 0.0
C7682 C 0.60258 0.08145 0.726 0.0
C7683 C 0.60188 0.07953 0.70508 0.0
C7684 C 0.58431 0.08458 0.69438 0.0
C7685 C 0.56897 0.09461 0.70425 0.0
C7686 C 0.62081 0.07606 0.73818 0.0
C7687 C 0.58295 0.08201 0.67208 0.0
C7688 C 0.64702 0.09502 0.67568 0.0
C7689 C 0.65352 0.07665 0.66847 0.0
C7690 C 0.63079 0.09594 0.68864 0.0
C7691 C 0.6207 0.07804 0.69402 0.0
C7692 C 0.62774 0.05935 0.68754 0.0
C7693 C 0.64412 0.05886 0.67467 0.0
C7694 C 0.62427 0.11613 0.69626 0.0
C7695 C 0.61776 0.04003 0.69382 0.0
H7696 H 0.58842 0.09445 0.75125 0.0
H7697 H 0.55638 0.10037 0.69585 0.0
H7698 H 0.63015 0.06461 0.73085 0.0
H7699 H 0.63012 0.08969 0.74044 0.0
H7700 H 0.61633 0.07051 0.75315 0.0
H7701 H 0.56723 0.08268 0.66674 0.0
H7702 H 0.59156 0.09419 0.66471 0.0
H7703 H 0.58953 0.06757 0.66745 0.0
H7704 H 0.65481 0.10862 0.67137 0.0
H7705 H 0.64946 0.0446 0.66927 0.0
H7706 H 0.62275 0.11584 0.71272 0.0
H7707 H 0.60943 0.11992 0.68989 0.0
H7708 H 0.63506 0.12816 0.69227 0.0
H7709 H 0.6155 0.03971 0.7102 0.0
H7710 H 0.62661 0.02674 0.68948 0.0
H7711 H 0.60275 0.03891 0.68678 0.0
C7712 C 0.19499 0.34026 0.99163 0.0
C7713 C 0.18857 0.32406 0.97996 0.0
C7714 C 0.20546 0.35604 0.98296 0.0
C7715 C 0.20999 0.35484 0.96253 0.0
C7716 C 0.20771 0.3366 0.95215 0.0
C7717 C 0.19638 0.32139 0.96087 0.0
C7718 C 0.20897 0.37489 0.99481 0.0
C7719 C 0.21451 0.33437 0.93086 0.0
C7720 C 0.19207 0.3953 0.92854 0.0
C7721 C 0.21011 0.40398 0.92273 0.0
C7722 C 0.19187 0.38002 0.94265 0.0
C7723 C 0.21029 0.37316 0.95068 0.0
C7724 C 0.22854 0.38234 0.94539 0.0
C7725 C 0.22822 0.3977 0.93134 0.0
C7726 C 0.17194 0.37088 0.94849 0.0
C7727 C 0.24834 0.37627 0.95443 0.0
H7728 H 0.19087 0.34117 1.00719 0.0
H7729 H 0.19252 0.30823 0.95225 0.0
H7730 H 0.22376 0.38154 0.99119 0.0
H7731 H 0.19732 0.38597 0.99087 0.0
H7732 H 0.20819 0.37207 1.01113 0.0
H7733 H 0.21584 0.31839 0.92661 0.0
H7734 H 0.20344 0.34149 0.92078 0.0
H7735 H 0.22917 0.34193 0.92861 0.0
H7736 H 0.17815 0.40062 0.92217 0.0
H7737 H 0.24223 0.40469 0.92695 0.0
H7738 H 0.17057 0.37006 0.96495 0.0
H7739 H 0.17081 0.35543 0.94258 0.0
H7740 H 0.15908 0.37951 0.94258 0.0
H7741 H 0.2516 0.38606 0.9674 0.0
H7742 H 0.26073 0.37836 0.9436 0.0
H7743 H 0.24836 0.36055 0.95968 0.0
C7744 C 0.39697 0.49162 0.69223 0.0
C7745 C 0.38745 0.47901 0.67858 0.0
C7746 C 0.41188 0.48419 0.70468 0.0
C7747 C 0.41695 0.46378 0.70317 0.0
C7748 C 0.40511 0.45049 0.69165 0.0
C7749 C 0.39039 0.4584 0.67923 0.0
C7750 C 0.42348 0.49883 0.71745 0.0
C7751 C 0.40928 0.42833 0.69088 0.0
C7752 C 0.46929 0.44353 0.70775 0.0
C7753 C 0.46843 0.43599 0.72709 0.0
C7754 C 0.45298 0.45434 0.70018 0.0
C7755 C 0.43554 0.45649 0.71206 0.0
C7756 C 0.43533 0.4501 0.73196 0.0
C7757 C 0.45222 0.44097 0.73949 0.0
C7758 C 0.45387 0.46243 0.67921 0.0
C7759 C 0.41677 0.45127 0.74479 0.0
H7760 H 0.39433 0.50759 0.6916 0.0
H7761 H 0.38275 0.44881 0.66857 0.0
H7762 H 0.43189 0.49159 0.72971 0.0
H7763 H 0.43433 0.50701 0.70791 0.0
H7764 H 0.41321 0.51004 0.72398 0.0
H7765 H 0.39662 0.41981 0.6842 0.0
H7766 H 0.42277 0.4257 0.68168 0.0
H7767 H 0.41232 0.42235 0.70603 0.0
H7768 H 0.48205 0.44027 0.69839 0.0
H7769 H 0.45197 0.43628 0.75494 0.0
H7770 H 0.44773 0.47781 0.67864 0.0
H7771 H 0.44456 0.45292 0.66925 0.0
H7772 H 0.4694 0.46271 0.67338 0.0
H7773 H 0.41083 0.46669 0.74499 0.0
H7774 H 0.4196 0.44645 0.76041 0.0
H7775 H 0.40493 0.44145 0.73841 0.0
C7776 C 0.72475 0.14071 0.11777 0.0
C7777 C 0.70688 0.1319 0.12458 0.0
C7778 C 0.72448 0.15814 0.10623 0.0
C7779 C 0.7059 0.16707 0.1018 0.0
C7780 C 0.68782 0.15786 0.10809 0.0
C7781 C 0.68855 0.14045 0.11959 0.0
C7782 C 0.74409 0.16698 0.09921 0.0
C7783 C 0.66766 0.16612 0.10225 0.0
C7784 C 0.69354 0.22032 0.08925 0.0
C7785 C 0.68904 0.21807 0.06905 0.0
C7786 C 0.70174 0.20421 0.09993 0.0
C7787 C 0.70483 0.18573 0.09009 0.0
C7788 C 0.7027 0.18442 0.06924 0.0
C7789 C 0.6952 0.20079 0.05896 0.0
C7790 C 0.705 0.20617 0.12208 0.0
C7791 C 0.70565 0.16504 0.05809 0.0
H7792 H 0.739 0.13403 0.12159 0.0
H7793 H 0.67477 0.13327 0.12434 0.0
H7794 H 0.74261 0.17485 0.08472 0.0
H7795 H 0.74944 0.17801 0.11039 0.0
H7796 H 0.75571 0.15527 0.09771 0.0
H7797 H 0.66652 0.18187 0.10708 0.0
H7798 H 0.66607 0.16597 0.08579 0.0
H7799 H 0.65508 0.15746 0.10883 0.0
H7800 H 0.68909 0.23378 0.09699 0.0
H7801 H 0.69219 0.19918 0.04315 0.0
H7802 H 0.7191 0.19871 0.12657 0.0
H7803 H 0.69251 0.19868 0.13007 0.0
H7804 H 0.70562 0.22207 0.12679 0.0
H7805 H 0.71951 0.15746 0.06302 0.0
H7806 H 0.7064 0.1674 0.0417 0.0
H7807 H 0.69289 0.15481 0.06123 0.0
C7808 C 0.57011 0.94735 0.83888 0.0
C7809 C 0.57339 0.93753 0.82077 0.0
C7810 C 0.58629 0.95658 0.84896 0.0
C7811 C 0.60595 0.95445 0.84134 0.0
C7812 C 0.6088 0.94616 0.82223 0.0
C7813 C 0.59232 0.93902 0.81179 0.0
C7814 C 0.58253 0.96802 0.86791 0.0
C7815 C 0.62938 0.94311 0.81331 0.0
C7816 C 0.65717 0.97264 0.85436 0.0
C7817 C 0.66457 0.95612 0.86505 0.0
C7818 C 0.63691 0.97401 0.84926 0.0
C7819 C 0.62395 0.9579 0.85383 0.0
C7820 C 0.63104 0.94188 0.86571 0.0
C7821 C 0.65121 0.94129 0.87135 0.0
C7822 C 0.62996 0.99201 0.8376 0.0
C7823 C 0.61793 0.92425 0.87072 0.0
H7824 H 0.55532 0.94718 0.84545 0.0
H7825 H 0.59477 0.93291 0.79704 0.0
H7826 H 0.58775 0.95932 0.88096 0.0
H7827 H 0.59108 0.9823 0.86774 0.0
H7828 H 0.56639 0.9713 0.86989 0.0
H7829 H 0.62889 0.93413 0.79939 0.0
H7830 H 0.63631 0.95775 0.80973 0.0
H7831 H 0.63932 0.93534 0.82406 0.0
H7832 H 0.66727 0.98433 0.84934 0.0
H7833 H 0.65663 0.92889 0.88021 0.0
H7834 H 0.61346 0.99371 0.838 0.0
H7835 H 0.63476 0.99064 0.82185 0.0
H7836 H 0.63705 1.00582 0.8436 0.0
H7837 H 0.60331 0.92926 0.87648 0.0
H7838 H 0.62493 0.9144 0.88207 0.0
H7839 H 0.6151 0.91541 0.85698 0.0
C7840 C 0.88052 0.09744 0.33677 0.0
C7841 C 0.87504 0.08604 0.35341 0.0
C7842 C 0.90059 0.0994 0.33105 0.0
C7843 C 0.91573 0.08974 0.34229 0.0
C7844 C 0.91026 0.07718 0.3584 0.0
C7845 C 0.88995 0.07549 0.36382 0.0
C7846 C 0.90561 0.11275 0.31355 0.0
C7847 C 0.92588 0.06637 0.37051 0.0
C7848 C 0.96398 0.09503 0.31381 0.0
C7849 C 0.96947 0.11445 0.31949 0.0
C7850 C 0.9477 0.08523 0.3229 0.0
C7851 C 0.93707 0.09503 0.33826 0.0
C7852 C 0.94476 0.11316 0.34612 0.0
C7853 C 0.96049 0.1229 0.33625 0.0
C7854 C 0.94022 0.06589 0.31396 0.0
C7855 C 0.93451 0.12376 0.36307 0.0
H7856 H 0.86907 0.10526 0.32843 0.0
H7857 H 0.88587 0.06663 0.37674 0.0
H7858 H 0.91362 0.12631 0.31892 0.0
H7859 H 0.91565 0.10492 0.30303 0.0
H7860 H 0.89205 0.11757 0.30527 0.0
H7861 H 0.91915 0.05458 0.38011 0.0
H7862 H 0.93719 0.05943 0.36066 0.0
H7863 H 0.93388 0.07722 0.38021 0.0
H7864 H 0.97046 0.08864 0.30051 0.0
H7865 H 0.96419 0.13812 0.34033 0.0
H7866 H 0.92874 0.06926 0.30247 0.0
H7867 H 0.93319 0.05614 0.32538 0.0
H7868 H 0.95254 0.05761 0.30663 0.0
H7869 H 0.92029 0.13031 0.35764 0.0
H7870 H 0.94396 0.13598 0.36932 0.0
H7871 H 0.93077 0.11307 0.37517 0.0
C7872 C 0.40343 0.20781 0.16492 0.0
C7873 C 0.4097 0.20943 0.14513 0.0
C7874 C 0.41715 0.20353 0.18011 0.0
C7875 C 0.43754 0.20077 0.1753 0.0
C7876 C 0.44418 0.20369 0.1555 0.0
C7877 C 0.43012 0.20775 0.14059 0.0
C7878 C 0.40946 0.20057 0.20102 0.0
C7879 C 0.46576 0.20077 0.14962 0.0
C7880 C 0.47404 0.19453 0.21815 0.0
C7881 C 0.47521 0.17367 0.21926 0.0
C7882 C 0.46199 0.20374 0.20373 0.0
C7883 C 0.45103 0.19169 0.19022 0.0
C7884 C 0.45261 0.17064 0.19107 0.0
C7885 C 0.46462 0.16187 0.20569 0.0
C7886 C 0.46172 0.22625 0.2023 0.0
C7887 C 0.442 0.15722 0.17638 0.0
H7888 H 0.38774 0.20957 0.16849 0.0
H7889 H 0.43504 0.20888 0.12523 0.0
H7890 H 0.40749 0.18432 0.20371 0.0
H7891 H 0.42017 0.20648 0.21225 0.0
H7892 H 0.39478 0.20792 0.20322 0.0
H7893 H 0.46944 0.20901 0.1357 0.0
H7894 H 0.4762 0.20563 0.16158 0.0
H7895 H 0.46827 0.18466 0.14682 0.0
H7896 H 0.48324 0.20359 0.228 0.0
H7897 H 0.46655 0.14581 0.20583 0.0
H7898 H 0.4462 0.23174 0.20408 0.0
H7899 H 0.46691 0.23102 0.18732 0.0
H7900 H 0.47141 0.23346 0.21375 0.0
H7901 H 0.42635 0.15498 0.18141 0.0
H7902 H 0.44955 0.14254 0.17531 0.0
H7903 H 0.44149 0.16369 0.16119 0.0
C7904 C 0.59791 0.7243 0.9627 0.0
C7905 C 0.61869 0.7255 0.96518 0.0
C7906 C 0.58949 0.71398 0.94645 0.0
C7907 C 0.6023 0.7048 0.93246 0.0
C7908 C 0.6233 0.70542 0.93542 0.0
C7909 C 0.63121 0.71592 0.95165 0.0
C7910 C 0.56711 0.71402 0.94354 0.0
C7911 C 0.63758 0.69644 0.92054 0.0
C7912 C 0.59143 0.66688 0.89251 0.0
C7913 C 0.59225 0.67902 0.87551 0.0
C7914 C 0.59222 0.67539 0.91162 0.0
C7915 C 0.59443 0.69635 0.91354 0.0
C7916 C 0.5932 0.70867 0.89635 0.0
C7917 C 0.59206 0.69977 0.87749 0.0
C7918 C 0.59201 0.66195 0.92971 0.0
C7919 C 0.59349 0.73121 0.89749 0.0
H7920 H 0.58831 0.73242 0.97283 0.0
H7921 H 0.64724 0.71777 0.95296 0.0
H7922 H 0.56332 0.72187 0.92946 0.0
H7923 H 0.56144 0.69845 0.94221 0.0
H7924 H 0.55923 0.7215 0.95602 0.0
H7925 H 0.65342 0.6977 0.92546 0.0
H7926 H 0.63397 0.68041 0.91816 0.0
H7927 H 0.63601 0.70417 0.90597 0.0
H7928 H 0.59077 0.65078 0.89084 0.0
H7929 H 0.59178 0.70905 0.86421 0.0
H7930 H 0.58266 0.66845 0.94168 0.0
H7931 H 0.60744 0.66053 0.93566 0.0
H7932 H 0.58624 0.64676 0.92609 0.0
H7933 H 0.57783 0.73662 0.89721 0.0
H7934 H 0.60119 0.73777 0.88434 0.0
H7935 H 0.60067 0.73698 0.91125 0.0
C7936 C 0.09987 0.79227 0.64913 0.0
C7937 C 0.11544 0.8047 0.64287 0.0
C7938 C 0.08481 0.7999 0.66111 0.0
C7939 C 0.08592 0.82019 0.66673 0.0
C7940 C 0.1002 0.8333 0.65813 0.0
C7941 C 0.11509 0.82523 0.64624 0.0
C7942 C 0.06938 0.78577 0.6697 0.0
C7943 C 0.10121 0.85526 0.66336 0.0
C7944 C 0.04823 0.84629 0.69749 0.0
C7945 C 0.05968 0.84992 0.71473 0.0
C7946 C 0.05613 0.83571 0.68168 0.0
C7947 C 0.07501 0.82696 0.68416 0.0
C7948 C 0.08502 0.82753 0.70283 0.0
C7949 C 0.07739 0.83956 0.71795 0.0
C7950 C 0.04542 0.83628 0.6618 0.0
C7951 C 0.10475 0.81715 0.70614 0.0
H7952 H 0.10042 0.77637 0.64604 0.0
H7953 H 0.12731 0.8346 0.641 0.0
H7954 H 0.07418 0.78122 0.68489 0.0
H7955 H 0.05458 0.79303 0.67105 0.0
H7956 H 0.06771 0.7721 0.66045 0.0
H7957 H 0.11054 0.86383 0.65261 0.0
H7958 H 0.08603 0.86184 0.66372 0.0
H7959 H 0.10793 0.85705 0.67842 0.0
H7960 H 0.03367 0.85309 0.69561 0.0
H7961 H 0.0858 0.84174 0.73163 0.0
H7962 H 0.04784 0.82251 0.653 0.0
H7963 H 0.05133 0.84907 0.65299 0.0
H7964 H 0.02908 0.83852 0.66373 0.0
H7965 H 0.10448 0.80199 0.69946 0.0
H7966 H 0.10842 0.81583 0.72225 0.0
H7967 H 0.11688 0.82583 0.69879 0.0
C7968 C 0.93954 0.32222 0.47377 0.0
C7969 C 0.92826 0.30532 0.46902 0.0
C7970 C 0.95316 0.33007 0.46001 0.0
C7971 C 0.95548 0.32033 0.44147 0.0
C7972 C 0.94781 0.30085 0.43882 0.0
C7973 C 0.93412 0.29352 0.45274 0.0
C7974 C 0.96221 0.35041 0.46391 0.0
C7975 C 0.9512 0.28926 0.41987 0.0
C7976 C 0.94663 0.3574 0.40041 0.0
C7977 C 0.96616 0.36228 0.39485 0.0
C7978 C 0.94297 0.3428 0.41481 0.0
C7979 C 0.95936 0.33278 0.42376 0.0
C7980 C 0.97906 0.33657 0.41718 0.0
C7981 C 0.98228 0.35153 0.40291 0.0
C7982 C 0.92155 0.33875 0.42095 0.0
C7983 C 0.99684 0.32567 0.42574 0.0
H7984 H 0.93649 0.33038 0.48707 0.0
H7985 H 0.9265 0.27949 0.44968 0.0
H7986 H 0.97721 0.35184 0.45703 0.0
H7987 H 0.9524 0.362 0.45728 0.0
H7988 H 0.96356 0.35338 0.48014 0.0
H7989 H 0.94937 0.27293 0.42242 0.0
H7990 H 0.94002 0.29388 0.40853 0.0
H7991 H 0.96633 0.29225 0.41375 0.0
H7992 H 0.93417 0.36517 0.3936 0.0
H7993 H 0.99747 0.35515 0.39848 0.0
H7994 H 0.91942 0.34299 0.43679 0.0
H7995 H 0.91798 0.32261 0.41952 0.0
H7996 H 0.91063 0.34723 0.41178 0.0
H7997 H 1.00301 0.33434 0.43846 0.0
H7998 H 1.00888 0.32426 0.41446 0.0
H7999 H 0.99277 0.31053 0.43123 0.0
C8000 C 0.49097 0.8453 0.32809 0.0
C8001 C 0.48131 0.86141 0.31895 0.0
C8002 C 0.48139 0.83393 0.34286 0.0
C8003 C 0.4622 0.83977 0.34935 0.0
C8004 C 0.45153 0.85439 0.33844 0.0
C8005 C 0.46124 0.86478 0.32312 0.0
C8006 C 0.49297 0.8177 0.35329 0.0
C8007 C 0.43117 0.86147 0.345 0.0
C8008 C 0.43186 0.82015 0.39277 0.0
C8009 C 0.43719 0.83409 0.40751 0.0
C8010 C 0.44115 0.82054 0.37401 0.0
C8011 C 0.45579 0.83535 0.37003 0.0
C8012 C 0.4623 0.84833 0.38548 0.0
C8013 C 0.45293 0.84747 0.40404 0.0
C8014 C 0.43456 0.80587 0.35819 0.0
C8015 C 0.47828 0.86404 0.38212 0.0
H8016 H 0.50675 0.84308 0.32547 0.0
H8017 H 0.4539 0.87715 0.31616 0.0
H8018 H 0.50204 0.82436 0.3655 0.0
H8019 H 0.48286 0.80623 0.35983 0.0
H8020 H 0.50341 0.81033 0.3428 0.0
H8021 H 0.42377 0.87068 0.33338 0.0
H8022 H 0.42126 0.84866 0.34869 0.0
H8023 H 0.43286 0.87072 0.35864 0.0
H8024 H 0.41985 0.80954 0.39557 0.0
H8025 H 0.45749 0.85774 0.41572 0.0
H8026 H 0.44761 0.80042 0.34961 0.0
H8027 H 0.42435 0.81338 0.34753 0.0
H8028 H 0.42652 0.79285 0.36473 0.0
H8029 H 0.49219 0.85698 0.3767 0.0
H8030 H 0.48189 0.87249 0.39593 0.0
H8031 H 0.47328 0.8748 0.37056 0.0
C8032 C 0.9743 0.69017 0.14379 0.0
C8033 C 0.97526 0.66936 0.14256 0.0
C8034 C 0.96267 0.70097 0.13021 0.0
C8035 C 0.95176 0.69053 0.11529 0.0
C8036 C 0.95175 0.66942 0.11488 0.0
C8037 C 0.9638 0.65907 0.1284 0.0
C8038 C 0.96228 0.7235 0.13165 0.0
C8039 C 0.9398 0.65767 0.09975 0.0
C8040 C 0.91025 0.72005 0.09202 0.0
C8041 C 0.91965 0.72829 0.07533 0.0
C8042 C 0.92019 0.70696 0.10469 0.0
C8043 C 0.94014 0.70185 0.10039 0.0
C8044 C 0.94941 0.70901 0.08277 0.0
C8045 C 0.93907 0.72248 0.07047 0.0
C8046 C 0.90976 0.69973 0.12334 0.0
C8047 C 0.97064 0.7035 0.07769 0.0
H8048 H 0.98311 0.69797 0.15498 0.0
H8049 H 0.9644 0.64288 0.12781 0.0
H8050 H 0.96925 0.73013 0.11816 0.0
H8051 H 0.94661 0.72884 0.13227 0.0
H8052 H 0.97041 0.72913 0.14501 0.0
H8053 H 0.93641 0.64233 0.10521 0.0
H8054 H 0.92551 0.66506 0.09586 0.0
H8055 H 0.94883 0.65634 0.08598 0.0
H8056 H 0.89563 0.72523 0.09614 0.0
H8057 H 0.94662 0.72938 0.05795 0.0
H8058 H 0.91915 0.70265 0.13671 0.0
H8059 H 0.90724 0.68336 0.1224 0.0
H8060 H 0.8951 0.7071 0.12554 0.0
H8061 H 0.98103 0.71018 0.08881 0.0
H8062 H 0.97502 0.70882 0.06261 0.0
H8063 H 0.97245 0.68703 0.07838 0.0
C8064 C 0.10597 0.22842 0.88931 0.0
C8065 C 0.11814 0.21269 0.89604 0.0
C8066 C 0.09153 0.22528 0.87434 0.0
C8067 C 0.08945 0.20605 0.86586 0.0
C8068 C 0.10145 0.19009 0.87289 0.0
C8069 C 0.11555 0.19362 0.88791 0.0
C8070 C 0.07851 0.24243 0.86771 0.0
C8071 C 0.09945 0.16916 0.86454 0.0
C8072 C 0.04813 0.17976 0.83999 0.0
C8073 C 0.05754 0.1762 0.8216 0.0
C8074 C 0.05671 0.19263 0.85404 0.0
C8075 C 0.0751 0.20202 0.84947 0.0
C8076 C 0.08214 0.20183 0.82958 0.0
C8077 C 0.07287 0.18911 0.81565 0.0
C8078 C 0.04782 0.19332 0.87468 0.0
C8079 C 0.1012 0.21249 0.82377 0.0
H8080 H 0.10789 0.24324 0.89556 0.0
H8081 H 0.12447 0.18133 0.89345 0.0
H8082 H 0.07929 0.24434 0.8513 0.0
H8083 H 0.06267 0.23917 0.87142 0.0
H8084 H 0.08288 0.25675 0.87494 0.0
H8085 H 0.11013 0.15857 0.87151 0.0
H8086 H 0.08406 0.16337 0.86704 0.0
H8087 H 0.10212 0.16933 0.84822 0.0
H8088 H 0.03512 0.17102 0.8443 0.0
H8089 H 0.07877 0.18817 0.80088 0.0
H8090 H 0.05071 0.20789 0.882 0.0
H8091 H 0.0547 0.18147 0.88399 0.0
H8092 H 0.03142 0.19052 0.87419 0.0
H8093 H 0.10288 0.22688 0.83179 0.0
H8094 H 0.10173 0.21536 0.80746 0.0
H8095 H 0.11413 0.20297 0.82782 0.0
C8096 C 0.54754 0.35282 0.64518 0.0
C8097 C 0.56292 0.36261 0.65551 0.0
C8098 C 0.55208 0.33941 0.62993 0.0
C8099 C 0.57233 0.33645 0.62491 0.0
C8100 C 0.58784 0.34465 0.63686 0.0
C8101 C 0.58288 0.35774 0.65216 0.0
C8102 C 0.53529 0.32994 0.61811 0.0
C8103 C 0.60965 0.34124 0.63221 0.0
C8104 C 0.59344 0.29916 0.59007 0.0
C8105 C 0.60042 0.31179 0.57483 0.0
C8106 C 0.58238 0.30652 0.60586 0.0
C8107 C 0.57768 0.32695 0.60598 0.0
C8108 C 0.58211 0.33918 0.58921 0.0
C8109 C 0.59373 0.33142 0.5737 0.0
C8110 C 0.57832 0.29293 0.62343 0.0
C8111 C 0.57647 0.36096 0.58871 0.0
H8112 H 0.5321 0.35666 0.64815 0.0
H8113 H 0.59461 0.36546 0.66038 0.0
H8114 H 0.53292 0.33863 0.60422 0.0
H8115 H 0.53895 0.31439 0.61378 0.0
H8116 H 0.52108 0.32978 0.62665 0.0
H8117 H 0.61968 0.34673 0.64429 0.0
H8118 H 0.61256 0.32513 0.62977 0.0
H8119 H 0.61351 0.34928 0.61826 0.0
H8120 H 0.59799 0.28368 0.59062 0.0
H8121 H 0.5988 0.34103 0.56168 0.0
H8122 H 0.56477 0.29736 0.63178 0.0
H8123 H 0.59128 0.29365 0.63381 0.0
H8124 H 0.57656 0.27714 0.61856 0.0
H8125 H 0.561 0.36301 0.59425 0.0
H8126 H 0.57759 0.36729 0.57343 0.0
H8127 H 0.58669 0.36953 0.59864 0.0
C8128 C 0.14609 0.42517 0.2171 0.0
C8129 C 0.13101 0.43206 0.20426 0.0
C8130 C 0.16549 0.43334 0.21625 0.0
C8131 C 0.16966 0.44862 0.20227 0.0
C8132 C 0.15397 0.45679 0.19062 0.0
C8133 C 0.13485 0.44832 0.19173 0.0
C8134 C 0.18175 0.4247 0.22926 0.0
C8135 C 0.15761 0.47344 0.1758 0.0
C8136 C 0.21517 0.4806 0.19438 0.0
C8137 C 0.22184 0.47261 0.17633 0.0
C8138 C 0.1995 0.47146 0.2049 0.0
C8139 C 0.19056 0.45393 0.19706 0.0
C8140 C 0.19925 0.44436 0.18041 0.0
C8141 C 0.21442 0.45418 0.16985 0.0
C8142 C 0.19078 0.48222 0.22256 0.0
C8143 C 0.19053 0.4253 0.17197 0.0
H8144 H 0.14301 0.41273 0.22702 0.0
H8145 H 0.12299 0.45399 0.18226 0.0
H8146 H 0.19149 0.415 0.22012 0.0
H8147 H 0.19133 0.43675 0.23557 0.0
H8148 H 0.1755 0.41562 0.24167 0.0
H8149 H 0.14342 0.47977 0.16996 0.0
H8150 H 0.16648 0.48569 0.1827 0.0
H8151 H 0.1663 0.46761 0.163 0.0
H8152 H 0.22028 0.49532 0.19889 0.0
H8153 H 0.21899 0.44842 0.15549 0.0
H8154 H 0.1841 0.47164 0.23344 0.0
H8155 H 0.17877 0.49235 0.2173 0.0
H8156 H 0.20233 0.49147 0.23024 0.0
H8157 H 0.18688 0.41456 0.18405 0.0
H8158 H 0.20098 0.41803 0.16142 0.0
H8159 H 0.17643 0.42875 0.16394 0.0
C8160 C 0.29719 0.4489 0.9362 0.0
C8161 C 0.30906 0.46465 0.92883 0.0
C8162 C 0.30584 0.43334 0.94703 0.0
C8163 C 0.32652 0.43435 0.95128 0.0
C8164 C 0.33721 0.45235 0.94791 0.0
C8165 C 0.32834 0.46725 0.9363 0.0
C8166 C 0.29367 0.41459 0.95063 0.0
C8167 C 0.359 0.45455 0.95344 0.0
C8168 C 0.35557 0.39126 0.97305 0.0
C8169 C 0.36296 0.38225 0.95564 0.0
C8170 C 0.34284 0.40775 0.97199 0.0
C8171 C 0.33793 0.41567 0.95311 0.0
C8172 C 0.34511 0.40648 0.9355 0.0
C8173 C 0.3575 0.38983 0.93701 0.0
C8174 C 0.33523 0.41701 0.99101 0.0
C8175 C 0.34 0.41438 0.91497 0.0
H8176 H 0.28181 0.4473 0.9312 0.0
H8177 H 0.33729 0.47958 0.93143 0.0
H8178 H 0.29592 0.40413 0.93801 0.0
H8179 H 0.29839 0.4069 0.9645 0.0
H8180 H 0.27743 0.41792 0.95152 0.0
H8181 H 0.36284 0.47043 0.95643 0.0
H8182 H 0.36286 0.44556 0.96679 0.0
H8183 H 0.36832 0.44938 0.94081 0.0
H8184 H 0.35992 0.38556 0.98755 0.0
H8185 H 0.36278 0.38261 0.92358 0.0
H8186 H 0.31921 0.42103 0.98963 0.0
H8187 H 0.3437 0.431 0.99406 0.0
H8188 H 0.33705 0.40685 1.00399 0.0
H8189 H 0.32355 0.41556 0.91316 0.0
H8190 H 0.34583 0.40469 0.90292 0.0
H8191 H 0.34649 0.42957 0.91303 0.0
C8192 C 0.3956 0.60406 0.71821 0.0
C8193 C 0.39748 0.62314 0.70957 0.0
C8194 C 0.38228 0.58989 0.71033 0.0
C8195 C 0.36976 0.59538 0.69422 0.0
C8196 C 0.37193 0.61434 0.68513 0.0
C8197 C 0.38609 0.62777 0.69264 0.0
C8198 C 0.38144 0.56921 0.71942 0.0
C8199 C 0.3585 0.6212 0.66835 0.0
C8200 C 0.34185 0.55827 0.66228 0.0
C8201 C 0.32342 0.55724 0.67204 0.0
C8202 C 0.35747 0.56986 0.66998 0.0
C8203 C 0.35403 0.58159 0.68711 0.0
C8204 C 0.3353 0.58075 0.69691 0.0
C8205 C 0.32043 0.5678 0.68969 0.0
C8206 C 0.37767 0.56938 0.65994 0.0
C8207 C 0.33093 0.59358 0.71486 0.0
H8208 H 0.40413 0.60027 0.73143 0.0
H8209 H 0.38785 0.64217 0.68543 0.0
H8210 H 0.36764 0.56748 0.72839 0.0
H8211 H 0.38101 0.55763 0.70758 0.0
H8212 H 0.39448 0.56631 0.7293 0.0
H8213 H 0.3656 0.63334 0.65948 0.0
H8214 H 0.35427 0.60891 0.65809 0.0
H8215 H 0.3446 0.62721 0.67496 0.0
H8216 H 0.34432 0.54919 0.64913 0.0
H8217 H 0.30654 0.5659 0.69779 0.0
H8218 H 0.38956 0.56634 0.67112 0.0
H8219 H 0.381 0.58415 0.65314 0.0
H8220 H 0.37839 0.55781 0.6481 0.0
H8221 H 0.34081 0.58938 0.72746 0.0
H8222 H 0.31514 0.5921 0.71983 0.0
H8223 H 0.33403 0.60952 0.71131 0.0
C8224 C 0.18103 0.64071 0.47892 0.0
C8225 C 0.17101 0.64865 0.46226 0.0
C8226 C 0.19458 0.62497 0.47686 0.0
C8227 C 0.19772 0.61671 0.45779 0.0
C8228 C 0.18746 0.62445 0.44095 0.0
C8229 C 0.17437 0.64044 0.4434 0.0
C8230 C 0.20584 0.61756 0.49495 0.0
C8231 C 0.19048 0.61608 0.42023 0.0
C8232 C 0.24035 0.58986 0.43565 0.0
C8233 C 0.23064 0.57169 0.43121 0.0
C8234 C 0.23102 0.60422 0.4474 0.0
C8235 C 0.21173 0.60002 0.45486 0.0
C8236 C 0.20411 0.58025 0.45409 0.0
C8237 C 0.21408 0.56607 0.44251 0.0
C8238 C 0.24031 0.6248 0.44876 0.0
C8239 C 0.18394 0.5749 0.46267 0.0
H8240 H 0.1784 0.6469 0.49359 0.0
H8241 H 0.16711 0.64682 0.43042 0.0
H8242 H 0.20493 0.60104 0.49602 0.0
H8243 H 0.2219 0.62159 0.49354 0.0
H8244 H 0.2001 0.62412 0.509 0.0
H8245 H 0.18082 0.62343 0.40893 0.0
H8246 H 0.20631 0.61811 0.41566 0.0
H8247 H 0.18715 0.59981 0.4201 0.0
H8248 H 0.25412 0.59385 0.42806 0.0
H8249 H 0.20776 0.55144 0.44089 0.0
H8250 H 0.23634 0.6323 0.46292 0.0
H8251 H 0.23467 0.63412 0.43627 0.0
H8252 H 0.25687 0.62413 0.44755 0.0
H8253 H 0.18101 0.5832 0.47664 0.0
H8254 H 0.1827 0.55862 0.4657 0.0
H8255 H 0.17214 0.57898 0.45173 0.0
C8256 C 0.11966 0.58715 0.35298 0.0
C8257 C 0.11271 0.60075 0.33873 0.0
C8258 C 0.13971 0.58144 0.35351 0.0
C8259 C 0.15309 0.58862 0.33876 0.0
C8260 C 0.14597 0.60108 0.32333 0.0
C8261 C 0.12596 0.60744 0.32376 0.0
C8262 C 0.14662 0.56801 0.37023 0.0
C8263 C 0.15944 0.60779 0.30653 0.0
C8264 C 0.20555 0.58617 0.35902 0.0
C8265 C 0.20925 0.56586 0.35609 0.0
C8266 C 0.18789 0.59476 0.35163 0.0
C8267 C 0.17446 0.58291 0.34012 0.0
C8268 C 0.17983 0.56328 0.33473 0.0
C8269 C 0.19653 0.55465 0.34372 0.0
C8270 C 0.18235 0.61545 0.35851 0.0
C8271 C 0.16672 0.55051 0.32145 0.0
H8272 H 0.10951 0.58124 0.36411 0.0
H8273 H 0.12098 0.61805 0.31264 0.0
H8274 H 0.14972 0.55286 0.36437 0.0
H8275 H 0.16068 0.57393 0.37681 0.0
H8276 H 0.13529 0.56656 0.38224 0.0
H8277 H 0.15097 0.61524 0.29437 0.0
H8278 H 0.17089 0.61842 0.31224 0.0
H8279 H 0.16751 0.59482 0.30023 0.0
H8280 H 0.21519 0.59468 0.36896 0.0
H8281 H 0.19908 0.53877 0.3418 0.0
H8282 H 0.17053 0.61422 0.37006 0.0
H8283 H 0.1762 0.62438 0.34603 0.0
H8284 H 0.19534 0.62359 0.36505 0.0
H8285 H 0.15511 0.54294 0.33056 0.0
H8286 H 0.1756 0.53877 0.3139 0.0
H8287 H 0.15907 0.55968 0.30997 0.0
C8288 C 0.18734 0.38003 0.06847 0.0
C8289 C 0.17929 0.37198 0.08611 0.0
C8290 C 0.19281 0.40031 0.06722 0.0
C8291 C 0.19085 0.41266 0.08425 0.0
C8292 C 0.18115 0.40498 0.10146 0.0
C8293 C 0.17517 0.38489 0.10198 0.0
C8294 C 0.20173 0.40785 0.04796 0.0
C8295 C 0.17862 0.41739 0.1201 0.0
C8296 C 0.23389 0.44587 0.09851 0.0
C8297 C 0.22366 0.46287 0.10483 0.0
C8298 C 0.22362 0.42946 0.09073 0.0
C8299 C 0.20298 0.43127 0.08635 0.0
C8300 C 0.19373 0.45021 0.08822 0.0
C8301 C 0.20395 0.46572 0.09833 0.0
C8302 C 0.23468 0.40988 0.08896 0.0
C8303 C 0.17309 0.45382 0.07989 0.0
H8304 H 0.19023 0.37038 0.05586 0.0
H8305 H 0.16794 0.37908 0.11524 0.0
H8306 H 0.20444 0.42423 0.04793 0.0
H8307 H 0.21602 0.40003 0.04504 0.0
H8308 H 0.19154 0.40408 0.03538 0.0
H8309 H 0.172 0.40863 0.13255 0.0
H8310 H 0.19331 0.42346 0.12506 0.0
H8311 H 0.16869 0.43023 0.11708 0.0
H8312 H 0.24982 0.44482 0.10097 0.0
H8313 H 0.19635 0.47953 0.1018 0.0
H8314 H 0.23729 0.4065 0.07302 0.0
H8315 H 0.22589 0.39738 0.09552 0.0
H8316 H 0.24947 0.41036 0.09657 0.0
H8317 H 0.17357 0.45209 0.06344 0.0
H8318 H 0.16759 0.46904 0.08344 0.0
H8319 H 0.16221 0.4426 0.0855 0.0
C8320 C 0.3306 0.44741 0.85889 0.0
C8321 C 0.32444 0.4666 0.85371 0.0
C8322 C 0.34809 0.43945 0.85068 0.0
C8323 C 0.35942 0.45105 0.83698 0.0
C8324 C 0.35163 0.46928 0.82974 0.0
C8325 C 0.3343 0.47701 0.83845 0.0
C8326 C 0.35578 0.41992 0.85883 0.0
C8327 C 0.3628 0.48177 0.81462 0.0
C8328 C 0.41472 0.44864 0.84821 0.0
C8329 C 0.42113 0.43378 0.83512 0.0
C8330 C 0.39486 0.455 0.84823 0.0
C8331 C 0.38103 0.44667 0.83447 0.0
C8332 C 0.38773 0.43296 0.81997 0.0
C8333 C 0.40768 0.42641 0.82064 0.0
C8334 C 0.38845 0.46976 0.86389 0.0
C8335 C 0.37367 0.42453 0.80442 0.0
H8336 H 0.32301 0.43955 0.87087 0.0
H8337 H 0.32942 0.49193 0.8345 0.0
H8338 H 0.36282 0.41088 0.84697 0.0
H8339 H 0.36733 0.42306 0.87036 0.0
H8340 H 0.34362 0.41095 0.86578 0.0
H8341 H 0.35285 0.49285 0.80733 0.0
H8342 H 0.37512 0.49005 0.82215 0.0
H8343 H 0.36958 0.47219 0.803 0.0
H8344 H 0.42515 0.45488 0.85897 0.0
H8345 H 0.41242 0.4149 0.81037 0.0
H8346 H 0.37738 0.46251 0.8739 0.0
H8347 H 0.38114 0.48283 0.85688 0.0
H8348 H 0.40125 0.47525 0.87301 0.0
H8349 H 0.36378 0.41312 0.81135 0.0
H8350 H 0.3819 0.41739 0.79199 0.0
H8351 H 0.36395 0.43642 0.79823 0.0
C8352 C 0.35768 0.64961 0.59007 0.0
C8353 C 0.36613 0.65113 0.57119 0.0
C8354 C 0.34279 0.63546 0.59363 0.0
C8355 C 0.33698 0.62256 0.5779 0.0
C8356 C 0.34359 0.62595 0.55823 0.0
C8357 C 0.35831 0.64043 0.55505 0.0
C8358 C 0.3352 0.63273 0.61468 0.0
C8359 C 0.33699 0.6128 0.54114 0.0
C8360 C 0.33139 0.57134 0.59948 0.0
C8361 C 0.31092 0.57125 0.60317 0.0
C8362 C 0.34006 0.58758 0.58955 0.0
C8363 C 0.32767 0.60347 0.58301 0.0
C8364 C 0.30677 0.60228 0.58482 0.0
C8365 C 0.29867 0.58629 0.59525 0.0
C8366 C 0.36259 0.58873 0.58796 0.0
C8367 C 0.29308 0.61883 0.57799 0.0
H8368 H 0.36371 0.65847 0.60225 0.0
H8369 H 0.36488 0.64218 0.54038 0.0
H8370 H 0.31878 0.63022 0.61475 0.0
H8371 H 0.3423 0.61939 0.62144 0.0
H8372 H 0.33872 0.64588 0.6242 0.0
H8373 H 0.33998 0.61999 0.52649 0.0
H8374 H 0.34533 0.59853 0.54177 0.0
H8375 H 0.32081 0.60914 0.54217 0.0
H8376 H 0.34075 0.55977 0.60585 0.0
H8377 H 0.28278 0.58638 0.59843 0.0
H8378 H 0.3684 0.60014 0.59854 0.0
H8379 H 0.3671 0.59337 0.57274 0.0
H8380 H 0.36976 0.57423 0.59154 0.0
H8381 H 0.29164 0.63 0.59011 0.0
H8382 H 0.27785 0.61298 0.57458 0.0
H8383 H 0.29896 0.62664 0.56462 0.0
C8384 C 0.22695 0.12974 0.44249 0.0
C8385 C 0.20935 0.12204 0.43383 0.0
C8386 C 0.22887 0.15023 0.44677 0.0
C8387 C 0.21263 0.16316 0.44272 0.0
C8388 C 0.196 0.15577 0.43172 0.0
C8389 C 0.19458 0.13533 0.42746 0.0
C8390 C 0.24792 0.15754 0.45654 0.0
C8391 C 0.17891 0.1691 0.42565 0.0
C8392 C 0.19511 0.19629 0.48393 0.0
C8393 C 0.18961 0.2133 0.47312 0.0
C8394 C 0.20376 0.17997 0.47452 0.0
C8395 C 0.20992 0.18185 0.45442 0.0
C8396 C 0.20879 0.20084 0.44496 0.0
C8397 C 0.19783 0.21628 0.45414 0.0
C8398 C 0.20426 0.16031 0.48572 0.0
C8399 C 0.21879 0.20474 0.42519 0.0
H8400 H 0.2389 0.11969 0.4467 0.0
H8401 H 0.18157 0.12963 0.41957 0.0
H8402 H 0.24833 0.17399 0.45858 0.0
H8403 H 0.24983 0.1501 0.47122 0.0
H8404 H 0.26092 0.15313 0.4473 0.0
H8405 H 0.16665 0.16065 0.41819 0.0
H8406 H 0.17281 0.17684 0.43889 0.0
H8407 H 0.18429 0.1807 0.4151 0.0
H8408 H 0.19107 0.19499 0.4995 0.0
H8409 H 0.19505 0.23012 0.44624 0.0
H8410 H 0.21995 0.15642 0.48925 0.0
H8411 H 0.19768 0.14808 0.47661 0.0
H8412 H 0.19587 0.16092 0.49998 0.0
H8413 H 0.23484 0.20811 0.428 0.0
H8414 H 0.21215 0.21776 0.41738 0.0
H8415 H 0.21822 0.19153 0.41525 0.0
C8416 C 0.66287 0.32787 0.5832 0.0
C8417 C 0.67158 0.317 0.5678 0.0
C8418 C 0.6744 0.3407 0.59507 0.0
C8419 C 0.69502 0.3432 0.59089 0.0
C8420 C 0.70413 0.33145 0.57599 0.0
C8421 C 0.69218 0.31851 0.56452 0.0
C8422 C 0.66411 0.35292 0.61086 0.0
C8423 C 0.72607 0.33372 0.57113 0.0
C8424 C 0.70843 0.39633 0.60306 0.0
C8425 C 0.71442 0.39439 0.62298 0.0
C8426 C 0.70399 0.37945 0.59155 0.0
C8427 C 0.70581 0.36021 0.60022 0.0
C8428 C 0.71401 0.35817 0.61957 0.0
C8429 C 0.71792 0.37537 0.63092 0.0
C8430 C 0.69545 0.38236 0.57087 0.0
C8431 C 0.71695 0.33794 0.629 0.0
H8432 H 0.64678 0.32728 0.5852 0.0
H8433 H 0.69856 0.31118 0.55174 0.0
H8434 H 0.67263 0.35247 0.62506 0.0
H8435 H 0.66332 0.36876 0.60597 0.0
H8436 H 0.64871 0.34745 0.61376 0.0
H8437 H 0.73079 0.3235 0.55902 0.0
H8438 H 0.7294 0.3493 0.56648 0.0
H8439 H 0.7352 0.33063 0.58461 0.0
H8440 H 0.70598 0.4111 0.59687 0.0
H8441 H 0.72312 0.37393 0.64617 0.0
H8442 H 0.67902 0.37982 0.57128 0.0
H8443 H 0.70184 0.37147 0.56024 0.0
H8444 H 0.69829 0.3977 0.56513 0.0
H8445 H 0.70279 0.33318 0.63622 0.0
H8446 H 0.72881 0.33846 0.64062 0.0
H8447 H 0.72093 0.32652 0.61774 0.0
C8448 C 0.44887 0.92159 0.32859 0.0
C8449 C 0.46759 0.92964 0.3239 0.0
C8450 C 0.43358 0.93368 0.33532 0.0
C8451 C 0.43745 0.95425 0.33764 0.0
C8452 C 0.45671 0.96238 0.3341 0.0
C8453 C 0.47175 0.9498 0.32728 0.0
C8454 C 0.41315 0.92458 0.33911 0.0
C8455 C 0.46116 0.98435 0.33696 0.0
C8456 C 0.39376 0.98931 0.33868 0.0
C8457 C 0.39172 0.99148 0.35924 0.0
C8458 C 0.40869 0.97686 0.33121 0.0
C8459 C 0.42155 0.96704 0.34485 0.0
C8460 C 0.41909 0.96902 0.36559 0.0
C8461 C 0.40402 0.9812 0.37254 0.0
C8462 C 0.41087 0.97432 0.30895 0.0
C8463 C 0.43246 0.95847 0.38043 0.0
H8464 H 0.44576 0.90603 0.32607 0.0
H8465 H 0.48622 0.95598 0.3233 0.0
H8466 H 0.40819 0.92787 0.35451 0.0
H8467 H 0.40204 0.93128 0.3288 0.0
H8468 H 0.41295 0.90812 0.33697 0.0
H8469 H 0.47672 0.98836 0.33268 0.0
H8470 H 0.45066 0.99343 0.32793 0.0
H8471 H 0.45886 0.98846 0.3528 0.0
H8472 H 0.38392 0.99737 0.32867 0.0
H8473 H 0.40197 0.98304 0.38848 0.0
H8474 H 0.41016 0.95823 0.30498 0.0
H8475 H 0.42573 0.98 0.30415 0.0
H8476 H 0.39909 0.98236 0.30048 0.0
H8477 H 0.43133 0.94205 0.37837 0.0
H8478 H 0.42853 0.962 0.39611 0.0
H8479 H 0.44829 0.96281 0.3779 0.0
C8480 C 0.81426 0.64859 0.12419 0.0
C8481 C 0.83014 0.63505 0.12405 0.0
C8482 C 0.81512 0.66596 0.11258 0.0
C8483 C 0.8322 0.66952 0.10074 0.0
C8484 C 0.84745 0.65499 0.09937 0.0
C8485 C 0.8463 0.63793 0.11128 0.0
C8486 C 0.7983 0.68086 0.11362 0.0
C8487 C 0.86554 0.65791 0.08625 0.0
C8488 C 0.84207 0.70939 0.06308 0.0
C8489 C 0.85423 0.72228 0.07435 0.0
C8490 C 0.83232 0.69326 0.07204 0.0
C8491 C 0.83596 0.68952 0.09242 0.0
C8492 C 0.84654 0.70367 0.10419 0.0
C8493 C 0.8549 0.72052 0.09502 0.0
C8494 C 0.82012 0.6792 0.0592 0.0
C8495 C 0.85115 0.6998 0.12591 0.0
H8496 H 0.80141 0.64574 0.13363 0.0
H8497 H 0.85804 0.62683 0.11067 0.0
H8498 H 0.80326 0.69411 0.1223 0.0
H8499 H 0.79423 0.68617 0.09847 0.0
H8500 H 0.78478 0.67445 0.12086 0.0
H8501 H 0.87423 0.64391 0.08458 0.0
H8502 H 0.86109 0.66312 0.07119 0.0
H8503 H 0.87547 0.66951 0.09287 0.0
H8504 H 0.84115 0.7112 0.04704 0.0
H8505 H 0.86365 0.73106 0.10371 0.0
H8506 H 0.80754 0.67248 0.06769 0.0
H8507 H 0.82976 0.66689 0.05389 0.0
H8508 H 0.81402 0.68702 0.04589 0.0
H8509 H 0.85775 0.71312 0.13337 0.0
H8510 H 0.86197 0.68732 0.12707 0.0
H8511 H 0.83746 0.69523 0.13404 0.0
C8512 C 0.56714 0.59914 0.34375 0.0
C8513 C 0.56772 0.60202 0.32319 0.0
C8514 C 0.58345 0.59026 0.35341 0.0
C8515 C 0.59991 0.58359 0.34196 0.0
C8516 C 0.59883 0.58346 0.321 0.0
C8517 C 0.58284 0.59302 0.31186 0.0
C8518 C 0.58422 0.59021 0.37588 0.0
C8519 C 0.61559 0.57552 0.30826 0.0
C8520 C 0.6486 0.59759 0.36642 0.0
C8521 C 0.65398 0.57951 0.37522 0.0
C8522 C 0.63155 0.59873 0.35442 0.0
C8523 C 0.6195 0.58142 0.35169 0.0
C8524 C 0.6255 0.56285 0.35962 0.0
C8525 C 0.64278 0.56212 0.3714 0.0
C8526 C 0.62622 0.61856 0.34504 0.0
C8527 C 0.61339 0.54398 0.35643 0.0
H8528 H 0.55506 0.60544 0.35238 0.0
H8529 H 0.58287 0.59455 0.29578 0.0
H8530 H 0.58936 0.5755 0.38146 0.0
H8531 H 0.59518 0.60165 0.38103 0.0
H8532 H 0.56944 0.5936 0.38255 0.0
H8533 H 0.61084 0.57346 0.29249 0.0
H8534 H 0.62837 0.58619 0.30854 0.0
H8535 H 0.62103 0.56103 0.31413 0.0
H8536 H 0.65783 0.61076 0.36884 0.0
H8537 H 0.64737 0.54803 0.37792 0.0
H8538 H 0.61171 0.62384 0.35097 0.0
H8539 H 0.62449 0.61683 0.32868 0.0
H8540 H 0.63776 0.63025 0.34789 0.0
H8541 H 0.60134 0.54321 0.36775 0.0
H8542 H 0.62279 0.53044 0.35809 0.0
H8543 H 0.60619 0.54369 0.34151 0.0
C8544 C 0.34164 0.82258 0.96006 0.0
C8545 C 0.35288 0.82672 0.97725 0.0
C8546 C 0.33143 0.8381 0.95011 0.0
C8547 C 0.33387 0.85812 0.9568 0.0
C8548 C 0.34386 0.86188 0.97503 0.0
C8549 C 0.35203 0.84598 0.9855 0.0
C8550 C 0.31876 0.83297 0.9322 0.0
C8551 C 0.34751 0.88282 0.98292 0.0
C8552 C 0.34483 0.90198 0.92421 0.0
C8553 C 0.33137 0.91593 0.93195 0.0
C8554 C 0.34405 0.88189 0.9301 0.0
C8555 C 0.32929 0.87558 0.94392 0.0
C8556 C 0.31403 0.88899 0.94958 0.0
C8557 C 0.31544 0.90911 0.94381 0.0
C8558 C 0.36021 0.86792 0.92304 0.0
C8559 C 0.29711 0.88273 0.96311 0.0
H8560 H 0.34123 0.80754 0.9541 0.0
H8561 H 0.35917 0.84918 0.99967 0.0
H8562 H 0.30904 0.84551 0.92748 0.0
H8563 H 0.32856 0.82867 0.91962 0.0
H8564 H 0.30915 0.8198 0.93563 0.0
H8565 H 0.35838 0.8831 0.99549 0.0
H8566 H 0.35342 0.89278 0.97104 0.0
H8567 H 0.33328 0.88918 0.98834 0.0
H8568 H 0.35649 0.90693 0.91411 0.0
H8569 H 0.30456 0.91962 0.94944 0.0
H8570 H 0.35333 0.85465 0.91584 0.0
H8571 H 0.36916 0.86261 0.93594 0.0
H8572 H 0.37049 0.87515 0.91218 0.0
H8573 H 0.28275 0.8887 0.95731 0.0
H8574 H 0.29941 0.88932 0.97812 0.0
H8575 H 0.29575 0.86624 0.96454 0.0
C8576 C 0.38563 0.09562 0.16976 0.0
C8577 C 0.37131 0.08332 0.17891 0.0
C8578 C 0.40579 0.09471 0.17536 0.0
C8579 C 0.41183 0.08097 0.19024 0.0
C8580 C 0.39801 0.0665 0.19721 0.0
C8581 C 0.37778 0.06814 0.19187 0.0
C8582 C 0.42004 0.11024 0.1674 0.0
C8583 C 0.40404 0.05051 0.21186 0.0
C8584 C 0.4653 0.09177 0.20726 0.0
C8585 C 0.46155 0.10389 0.22383 0.0
C8586 C 0.44933 0.08228 0.1971 0.0
C8587 C 0.42933 0.08631 0.20288 0.0
C8588 C 0.42572 0.09793 0.22006 0.0
C8589 C 0.44183 0.10552 0.23079 0.0
C8590 C 0.45401 0.06844 0.18007 0.0
C8591 C 0.40482 0.10356 0.22665 0.0
H8592 H 0.38097 0.10661 0.15883 0.0
H8593 H 0.367 0.05809 0.19867 0.0
H8594 H 0.425 0.11965 0.18003 0.0
H8595 H 0.43344 0.10302 0.16101 0.0
H8596 H 0.41315 0.11995 0.15586 0.0
H8597 H 0.39581 0.03638 0.20873 0.0
H8598 H 0.42037 0.04759 0.21139 0.0
H8599 H 0.40001 0.05523 0.22717 0.0
H8600 H 0.48053 0.08975 0.20218 0.0
H8601 H 0.4386 0.1138 0.24424 0.0
H8602 H 0.4569 0.07735 0.16642 0.0
H8603 H 0.44157 0.05778 0.17706 0.0
H8604 H 0.4678 0.05983 0.18334 0.0
H8605 H 0.39605 0.10959 0.21395 0.0
H8606 H 0.40494 0.11502 0.23863 0.0
H8607 H 0.39685 0.09018 0.23239 0.0
C8608 C 0.15211 0.95524 0.69351 0.0
C8609 C 0.15229 0.97509 0.68702 0.0
C8610 C 0.13746 0.94854 0.70685 0.0
C8611 C 0.12288 0.96216 0.71376 0.0
C8612 C 0.12526 0.98282 0.70987 0.0
C8613 C 0.13993 0.98907 0.69628 0.0
C8614 C 0.13591 0.92644 0.71121 0.0
C8615 C 0.11075 0.99794 0.71784 0.0
C8616 C 0.0736 0.9348 0.71167 0.0
C8617 C 0.07169 0.92827 0.7313 0.0
C8618 C 0.08899 0.94805 0.7062 0.0
C8619 C 0.10333 0.95413 0.72068 0.0
C8620 C 0.10031 0.94918 0.74091 0.0
C8621 C 0.08431 0.93655 0.74599 0.0
C8622 C 0.0912 0.95366 0.6845 0.0
C8623 C 0.11509 0.9551 0.75693 0.0
H8624 H 0.16171 0.94449 0.68622 0.0
H8625 H 0.14019 1.00447 0.69118 0.0
H8626 H 0.13229 0.92381 0.72713 0.0
H8627 H 0.12365 0.91982 0.70211 0.0
H8628 H 0.14999 0.91851 0.70758 0.0
H8629 H 0.1173 1.01325 0.71771 0.0
H8630 H 0.09714 0.99795 0.70832 0.0
H8631 H 0.10617 0.99414 0.73327 0.0
H8632 H 0.06428 0.92832 0.70029 0.0
H8633 H 0.0829 0.93163 0.7613 0.0
H8634 H 0.10373 0.94515 0.67789 0.0
H8635 H 0.09475 0.9698 0.68294 0.0
H8636 H 0.0774 0.95031 0.67581 0.0
H8637 H 0.12659 0.94328 0.75832 0.0
H8638 H 0.10759 0.95648 0.77162 0.0
H8639 H 0.12284 0.96938 0.75341 0.0
loop_
_geom_bond_atom_site_label_1
_geom_bond_atom_site_label_2
_geom_bond_distance
_geom_bond_site_symmetry_2
_ccdc_geom_bond_type
Tb0 N31 2.660 1_455 S
Tb0 N38 2.600 1_455 S
Tb0 O44 2.545 1_455 S
Tb0 O45 2.610 . S
Tb0 O47 2.319 . S
Tb0 O48 2.552 . S
Tb0 O49 2.413 1_455 S
Tb0 O51 2.362 . S
Tb0 O52 2.421 . S
Tb0 C64 2.833 1_455 S
C1 C4 1.432 . S
C1 C5 1.414 . S
C1 N8 1.359 . S
C2 C4 1.417 . S
C2 C6 1.432 . S
C2 C14 1.410 . S
C3 C5 1.444 . S
C3 C6 1.317 . S
C3 H26 0.929 . S
C4 C1 1.432 . S
C4 C2 1.417 . S
C4 N12 1.360 . S
C5 C1 1.414 . S
C5 C3 1.444 . S
C5 C10 1.385 . S
C6 C2 1.432 . S
C6 C3 1.317 . S
C6 H18 0.930 . S
C7 C9 1.392 . S
C7 C10 1.370 . S
C7 H19 0.931 . S
N8 C1 1.359 . S
N8 C9 1.327 . S
N8 Tb11 2.600 . S
C9 C7 1.392 . S
C9 N8 1.327 . S
C9 H16 0.930 . S
C10 C5 1.385 . S
C10 C7 1.370 . S
C10 H29 0.930 . S
Tb11 N8 2.600 . S
Tb11 N12 2.660 . S
Tb11 O45 2.362 . S
Tb11 O46 2.421 . S
Tb11 O50 2.546 . S
Tb11 O51 2.610 . S
Tb11 O53 2.320 . S
Tb11 O54 2.552 . S
Tb11 O55 2.413 . S
Tb11 C75 2.833 . S
N12 C4 1.360 . S
N12 Tb11 2.660 . S
N12 C13 1.305 . S
C13 N12 1.305 . S
C13 C15 1.407 . S
C13 H20 0.930 . S
C14 C2 1.410 . S
C14 C15 1.345 . S
C14 H22 0.930 . S
C15 C13 1.407 . S
C15 C14 1.345 . S
C15 H17 0.930 . S
H16 C9 0.930 . S
H17 C15 0.930 . S
H18 C6 0.930 . S
H19 C7 0.931 . S
H20 C13 0.930 . S
H21 C35 0.930 . S
H22 C14 0.930 . S
H23 C41 0.930 . S
H24 C32 0.930 . S
H25 C39 0.942 . S
H26 C3 0.929 . S
H27 C33 0.930 . S
H28 C66 0.930 . S
H29 C10 0.930 . S
H30 C65 0.929 . S
N31 Tb0 2.660 1_655 S
N31 C32 1.305 . S
N31 C36 1.360 . S
C32 H24 0.930 . S
C32 N31 1.305 . S
C32 C35 1.407 . S
C33 H27 0.930 . S
C33 C34 1.410 . S
C33 C35 1.345 . S
C34 C33 1.410 . S
C34 C36 1.417 . S
C34 C66 1.432 . S
C35 H21 0.930 . S
C35 C32 1.407 . S
C35 C33 1.345 . S
C36 N31 1.360 . S
C36 C34 1.417 . S
C36 C40 1.432 . S
H37 C42 0.930 . S
N38 Tb0 2.600 1_655 S
N38 C40 1.359 . S
N38 C41 1.327 1_655 S
C39 H25 0.942 . S
C39 C41 1.401 . S
C39 C42 1.350 1_455 S
C40 C36 1.432 . S
C40 N38 1.359 . S
C40 C43 1.414 . S
C41 H23 0.930 . S
C41 N38 1.327 1_455 S
C41 C39 1.401 . S
C42 H37 0.930 . S
C42 C39 1.350 1_655 S
C42 C43 1.385 . S
C43 C40 1.414 . S
C43 C42 1.385 . S
C43 C65 1.444 . S
O44 Tb0 2.545 1_655 S
O44 C64 1.251 . S
O45 Tb0 2.610 . S
O45 Tb11 2.362 . S
O45 C56 1.283 . S
O46 Tb11 2.421 . S
O46 C63 1.262 . S
O47 Tb0 2.319 . S
O47 C63 1.258 . S
O48 Tb0 2.552 . S
O48 C56 1.243 . S
O49 Tb0 2.413 1_655 S
O49 C64 1.256 . S
O50 Tb11 2.546 . S
O50 C75 1.251 . S
O51 Tb0 2.362 . S
O51 Tb11 2.610 . S
O51 C67 1.283 . S
O52 Tb0 2.421 . S
O52 C74 1.262 . S
O53 Tb11 2.320 . S
O53 C74 1.260 . S
O54 Tb11 2.552 . S
O54 C67 1.243 . S
O55 Tb11 2.413 . S
O55 C75 1.256 . S
C56 O45 1.283 . S
C56 O48 1.243 . S
C57 C59 1.382 . S
C57 C61 1.393 . S
C57 C64 1.500 . S
C58 C59 1.400 . S
C58 C60 1.384 . S
C59 C57 1.382 . S
C59 C58 1.400 . S
C59 H76 0.930 . S
C60 C58 1.384 . S
C60 C62 1.392 . S
C60 H77 0.931 . S
C61 C57 1.393 . S
C61 C62 1.401 . S
C61 H78 0.930 . S
C62 C60 1.392 . S
C62 C61 1.401 . S
C62 H79 0.930 . S
C63 O46 1.262 . S
C63 O47 1.258 . S
C64 Tb0 2.833 1_655 S
C64 O44 1.251 . S
C64 O49 1.256 . S
C64 C57 1.500 . S
C65 H30 0.929 . S
C65 C43 1.444 . S
C65 C66 1.317 . S
C66 H28 0.930 . S
C66 C34 1.432 . S
C66 C65 1.317 . S
C67 O51 1.283 . S
C67 O54 1.243 . S
C68 C69 1.382 . S
C68 C72 1.393 . S
C68 C75 1.500 . S
C69 C68 1.382 . S
C69 C70 1.400 . S
C69 H80 0.930 . S
C70 C69 1.400 . S
C70 C71 1.384 . S
C71 C70 1.384 . S
C71 C73 1.392 . S
C71 H81 0.931 . S
C72 C68 1.393 . S
C72 C73 1.401 . S
C72 H82 0.930 . S
C73 C71 1.392 . S
C73 C72 1.401 . S
C73 H83 0.930 . S
C74 O52 1.262 . S
C74 O53 1.260 . S
C75 Tb11 2.833 . S
C75 O50 1.251 . S
C75 O55 1.256 . S
C75 C68 1.500 . S
H76 C59 0.930 . S
H77 C60 0.931 . S
H78 C61 0.930 . S
H79 C62 0.930 . S
H80 C69 0.930 . S
H81 C71 0.931 . S
H82 C72 0.930 . S
H83 C73 0.930 . S
Tb84 N115 2.660 . S
Tb84 N122 2.600 . S
Tb84 O128 2.546 . S
Tb84 O129 2.610 . S
Tb84 O131 2.320 . S
Tb84 O132 2.552 . S
Tb84 O133 2.413 . S
Tb84 O135 2.362 . S
Tb84 O136 2.421 . S
Tb84 C148 2.833 . S
C85 C88 1.432 . S
C85 C89 1.414 . S
C85 N92 1.359 . S
C86 C88 1.417 . S
C86 C90 1.432 . S
C86 C98 1.410 . S
C87 C89 1.444 . S
C87 C90 1.317 . S
C87 H110 0.929 . S
C88 C85 1.432 . S
C88 C86 1.417 . S
C88 N96 1.360 . S
C89 C85 1.414 . S
C89 C87 1.444 . S
C89 C94 1.385 . S
C90 C86 1.432 . S
C90 C87 1.317 . S
C90 H102 0.930 . S
C91 C93 1.392 . S
C91 C94 1.370 . S
C91 H103 0.931 . S
N92 C85 1.359 . S
N92 C93 1.327 . S
N92 Tb95 2.600 . S
C93 C91 1.392 . S
C93 N92 1.327 . S
C93 H100 0.930 . S
C94 C89 1.385 . S
C94 C91 1.370 . S
C94 H113 0.930 . S
Tb95 N92 2.600 . S
Tb95 N96 2.660 . S
Tb95 O129 2.362 . S
Tb95 O130 2.421 . S
Tb95 O134 2.546 . S
Tb95 O135 2.610 . S
Tb95 O137 2.320 . S
Tb95 O138 2.552 . S
Tb95 O139 2.413 . S
Tb95 C159 2.833 . S
N96 C88 1.360 . S
N96 Tb95 2.660 . S
N96 C97 1.305 . S
C97 N96 1.305 . S
C97 C99 1.407 . S
C97 H104 0.930 . S
C98 C86 1.410 . S
C98 C99 1.345 . S
C98 H106 0.930 . S
C99 C97 1.407 . S
C99 C98 1.345 . S
C99 H101 0.930 . S
H100 C93 0.930 . S
H101 C99 0.930 . S
H102 C90 0.930 . S
H103 C91 0.931 . S
H104 C97 0.930 . S
H105 C119 0.930 . S
H106 C98 0.930 . S
H107 C125 0.930 . S
H108 C116 0.930 . S
H109 C123 0.931 . S
H110 C87 0.929 . S
H111 C117 0.930 . S
H112 C150 0.930 . S
H113 C94 0.930 . S
H114 C149 0.929 . S
N115 Tb84 2.660 . S
N115 C116 1.305 . S
N115 C120 1.360 . S
C116 H108 0.930 . S
C116 N115 1.305 . S
C116 C119 1.407 . S
C117 H111 0.930 . S
C117 C118 1.410 . S
C117 C119 1.345 . S
C118 C117 1.410 . S
C118 C120 1.417 . S
C118 C150 1.432 . S
C119 H105 0.930 . S
C119 C116 1.407 . S
C119 C117 1.345 . S
C120 N115 1.360 . S
C120 C118 1.417 . S
C120 C124 1.432 . S
H121 C126 0.930 . S
N122 Tb84 2.600 . S
N122 C124 1.359 . S
N122 C125 1.327 . S
C123 H109 0.931 . S
C123 C125 1.392 . S
C123 C126 1.370 . S
C124 C120 1.432 . S
C124 N122 1.359 . S
C124 C127 1.414 . S
C125 H107 0.930 . S
C125 N122 1.327 . S
C125 C123 1.392 . S
C126 H121 0.930 . S
C126 C123 1.370 . S
C126 C127 1.385 . S
C127 C124 1.414 . S
C127 C126 1.385 . S
C127 C149 1.444 . S
O128 Tb84 2.546 . S
O128 C148 1.251 . S
O129 Tb84 2.610 . S
O129 Tb95 2.362 . S
O129 C140 1.283 . S
O130 Tb95 2.421 . S
O130 C147 1.262 . S
O131 Tb84 2.320 . S
O131 C147 1.260 . S
O132 Tb84 2.552 . S
O132 C140 1.243 . S
O133 Tb84 2.413 . S
O133 C148 1.256 . S
O134 Tb95 2.546 . S
O134 C159 1.251 . S
O135 Tb84 2.362 . S
O135 Tb95 2.610 . S
O135 C151 1.283 . S
O136 Tb84 2.421 . S
O136 C158 1.262 . S
O137 Tb95 2.320 . S
O137 C158 1.260 . S
O138 Tb95 2.552 . S
O138 C151 1.243 . S
O139 Tb95 2.413 . S
O139 C159 1.256 . S
C140 O129 1.283 . S
C140 O132 1.243 . S
C141 C143 1.382 . S
C141 C145 1.393 . S
C141 C148 1.500 . S
C142 C143 1.400 . S
C142 C144 1.384 . S
C143 C141 1.382 . S
C143 C142 1.400 . S
C143 H160 0.930 . S
C144 C142 1.384 . S
C144 C146 1.392 . S
C144 H161 0.931 . S
C145 C141 1.393 . S
C145 C146 1.401 . S
C145 H162 0.930 . S
C146 C144 1.392 . S
C146 C145 1.401 . S
C146 H163 0.930 . S
C147 O130 1.262 . S
C147 O131 1.260 . S
C148 Tb84 2.833 . S
C148 O128 1.251 . S
C148 O133 1.256 . S
C148 C141 1.500 . S
C149 H114 0.929 . S
C149 C127 1.444 . S
C149 C150 1.317 . S
C150 H112 0.930 . S
C150 C118 1.432 . S
C150 C149 1.317 . S
C151 O135 1.283 . S
C151 O138 1.243 . S
C152 C153 1.382 . S
C152 C156 1.393 . S
C152 C159 1.500 . S
C153 C152 1.382 . S
C153 C154 1.400 . S
C153 H164 0.930 . S
C154 C153 1.400 . S
C154 C155 1.384 . S
C155 C154 1.384 . S
C155 C157 1.392 . S
C155 H165 0.931 . S
C156 C152 1.393 . S
C156 C157 1.401 . S
C156 H166 0.930 . S
C157 C155 1.392 . S
C157 C156 1.401 . S
C157 H167 0.930 . S
C158 O136 1.262 . S
C158 O137 1.260 . S
C159 Tb95 2.833 . S
C159 O134 1.251 . S
C159 O139 1.256 . S
C159 C152 1.500 . S
H160 C143 0.930 . S
H161 C144 0.931 . S
H162 C145 0.930 . S
H163 C146 0.930 . S
H164 C153 0.930 . S
H165 C155 0.931 . S
H166 C156 0.930 . S
H167 C157 0.930 . S
Tb168 N199 2.660 . S
Tb168 N206 2.600 . S
Tb168 O212 2.546 . S
Tb168 O213 2.610 . S
Tb168 O215 2.320 . S
Tb168 O216 2.552 . S
Tb168 O217 2.413 . S
Tb168 O219 2.362 . S
Tb168 O220 2.421 . S
Tb168 C232 2.833 . S
C169 C172 1.432 . S
C169 C173 1.414 . S
C169 N176 1.359 . S
C170 C172 1.417 . S
C170 C174 1.432 . S
C170 C182 1.410 . S
C171 C173 1.444 . S
C171 C174 1.317 . S
C171 H194 0.929 . S
C172 C169 1.432 . S
C172 C170 1.417 . S
C172 N180 1.360 . S
C173 C169 1.414 . S
C173 C171 1.444 . S
C173 C178 1.385 . S
C174 C170 1.432 . S
C174 C171 1.317 . S
C174 H186 0.930 . S
C175 C177 1.392 . S
C175 C178 1.370 . S
C175 H187 0.931 . S
N176 C169 1.359 . S
N176 C177 1.327 . S
N176 Tb179 2.600 . S
C177 C175 1.392 . S
C177 N176 1.327 . S
C177 H184 0.930 . S
C178 C173 1.385 . S
C178 C175 1.370 . S
C178 H197 0.930 . S
Tb179 N176 2.600 . S
Tb179 N180 2.660 . S
Tb179 O213 2.362 . S
Tb179 O214 2.421 . S
Tb179 O218 2.546 . S
Tb179 O219 2.610 . S
Tb179 O221 2.320 . S
Tb179 O222 2.552 . S
Tb179 O223 2.413 . S
Tb179 C243 2.833 . S
N180 C172 1.360 . S
N180 Tb179 2.660 . S
N180 C181 1.305 . S
C181 N180 1.305 . S
C181 C183 1.407 . S
C181 H188 0.930 . S
C182 C170 1.410 . S
C182 C183 1.345 . S
C182 H190 0.930 . S
C183 C181 1.407 . S
C183 C182 1.345 . S
C183 H185 0.930 . S
H184 C177 0.930 . S
H185 C183 0.930 . S
H186 C174 0.930 . S
H187 C175 0.931 . S
H188 C181 0.930 . S
H189 C203 0.930 . S
H190 C182 0.930 . S
H191 C209 0.930 . S
H192 C200 0.930 . S
H193 C207 0.931 . S
H194 C171 0.929 . S
H195 C201 0.930 . S
H196 C234 0.930 . S
H197 C178 0.930 . S
H198 C233 0.929 . S
N199 Tb168 2.660 . S
N199 C200 1.305 . S
N199 C204 1.360 . S
C200 H192 0.930 . S
C200 N199 1.305 . S
C200 C203 1.407 . S
C201 H195 0.930 . S
C201 C202 1.410 . S
C201 C203 1.345 . S
C202 C201 1.410 . S
C202 C204 1.417 . S
C202 C234 1.432 . S
C203 H189 0.930 . S
C203 C200 1.407 . S
C203 C201 1.345 . S
C204 N199 1.360 . S
C204 C202 1.417 . S
C204 C208 1.432 . S
H205 C210 0.930 . S
N206 Tb168 2.600 . S
N206 C208 1.359 . S
N206 C209 1.327 . S
C207 H193 0.931 . S
C207 C209 1.392 . S
C207 C210 1.370 . S
C208 C204 1.432 . S
C208 N206 1.359 . S
C208 C211 1.414 . S
C209 H191 0.930 . S
C209 N206 1.327 . S
C209 C207 1.392 . S
C210 H205 0.930 . S
C210 C207 1.370 . S
C210 C211 1.385 . S
C211 C208 1.414 . S
C211 C210 1.385 . S
C211 C233 1.444 . S
O212 Tb168 2.546 . S
O212 C232 1.251 . S
O213 Tb168 2.610 . S
O213 Tb179 2.362 . S
O213 C224 1.283 . S
O214 Tb179 2.421 . S
O214 C231 1.262 . S
O215 Tb168 2.320 . S
O215 C231 1.260 . S
O216 Tb168 2.552 . S
O216 C224 1.243 . S
O217 Tb168 2.413 . S
O217 C232 1.256 . S
O218 Tb179 2.546 . S
O218 C243 1.251 . S
O219 Tb168 2.362 . S
O219 Tb179 2.610 . S
O219 C235 1.283 . S
O220 Tb168 2.421 . S
O220 C242 1.262 . S
O221 Tb179 2.320 . S
O221 C242 1.260 . S
O222 Tb179 2.552 . S
O222 C235 1.243 . S
O223 Tb179 2.413 . S
O223 C243 1.256 . S
C224 O213 1.283 . S
C224 O216 1.243 . S
C225 C227 1.382 . S
C225 C229 1.393 . S
C225 C232 1.500 . S
C226 C227 1.400 . S
C226 C228 1.384 . S
C227 C225 1.382 . S
C227 C226 1.400 . S
C227 H244 0.930 . S
C228 C226 1.384 . S
C228 C230 1.392 . S
C228 H245 0.931 . S
C229 C225 1.393 . S
C229 C230 1.401 . S
C229 H246 0.930 . S
C230 C228 1.392 . S
C230 C229 1.401 . S
C230 H247 0.930 . S
C231 O214 1.262 . S
C231 O215 1.260 . S
C232 Tb168 2.833 . S
C232 O212 1.251 . S
C232 O217 1.256 . S
C232 C225 1.500 . S
C233 H198 0.929 . S
C233 C211 1.444 . S
C233 C234 1.317 . S
C234 H196 0.930 . S
C234 C202 1.432 . S
C234 C233 1.317 . S
C235 O219 1.283 . S
C235 O222 1.243 . S
C236 C237 1.382 . S
C236 C240 1.393 . S
C236 C243 1.500 . S
C237 C236 1.382 . S
C237 C238 1.400 . S
C237 H248 0.930 . S
C238 C237 1.400 . S
C238 C239 1.384 . S
C239 C238 1.384 . S
C239 C241 1.392 . S
C239 H249 0.931 . S
C240 C236 1.393 . S
C240 C241 1.401 . S
C240 H250 0.930 . S
C241 C239 1.392 . S
C241 C240 1.401 . S
C241 H251 0.930 . S
C242 O220 1.262 . S
C242 O221 1.260 . S
C243 Tb179 2.833 . S
C243 O218 1.251 . S
C243 O223 1.256 . S
C243 C236 1.500 . S
H244 C227 0.930 . S
H245 C228 0.931 . S
H246 C229 0.930 . S
H247 C230 0.930 . S
H248 C237 0.930 . S
H249 C239 0.931 . S
H250 C240 0.930 . S
H251 C241 0.930 . S
Tb252 N283 2.660 . S
Tb252 N290 2.600 . S
Tb252 O296 2.546 . S
Tb252 O297 2.610 . S
Tb252 O299 2.320 . S
Tb252 O300 2.552 . S
Tb252 O301 2.413 . S
Tb252 O303 2.362 . S
Tb252 O304 2.421 . S
Tb252 C316 2.833 . S
C253 C256 1.432 . S
C253 C257 1.414 1_554 S
C253 N260 1.359 1_554 S
C254 C256 1.417 . S
C254 C258 1.432 . S
C254 C266 1.410 . S
C255 C257 1.444 1_554 S
C255 C258 1.317 . S
C255 H278 0.929 . S
C256 C253 1.432 . S
C256 C254 1.417 . S
C256 N264 1.360 . S
C257 C253 1.414 1_556 S
C257 C255 1.444 1_556 S
C257 C262 1.385 . S
C258 C254 1.432 . S
C258 C255 1.317 . S
C258 H270 0.930 . S
C259 C261 1.392 . S
C259 C262 1.370 . S
C259 H271 0.931 . S
N260 C253 1.359 1_556 S
N260 C261 1.327 . S
N260 Tb263 2.600 1_556 S
C261 C259 1.392 . S
C261 N260 1.327 . S
C261 H268 0.930 . S
C262 C257 1.385 . S
C262 C259 1.370 . S
C262 H281 0.930 . S
Tb263 N260 2.600 1_554 S
Tb263 N264 2.660 . S
Tb263 O297 2.362 . S
Tb263 O298 2.433 . S
Tb263 O302 2.546 1_554 S
Tb263 O303 2.610 . S
Tb263 O305 2.320 . S
Tb263 O306 2.552 1_554 S
Tb263 O307 2.413 1_554 S
Tb263 C327 2.833 1_554 S
N264 C256 1.360 . S
N264 Tb263 2.660 . S
N264 C265 1.305 . S
C265 N264 1.305 . S
C265 C267 1.407 . S
C265 H272 0.930 . S
C266 C254 1.410 . S
C266 C267 1.345 . S
C266 H274 0.930 . S
C267 C265 1.407 . S
C267 C266 1.345 . S
C267 H269 0.930 . S
H268 C261 0.930 . S
H269 C267 0.930 . S
H270 C258 0.930 . S
H271 C259 0.931 . S
H272 C265 0.930 . S
H273 C287 0.930 1_556 S
H274 C266 0.930 . S
H275 C293 0.930 . S
H276 C284 0.930 . S
H277 C291 0.931 . S
H278 C255 0.929 . S
H279 C285 0.930 . S
H280 C318 0.930 . S
H281 C262 0.930 . S
H282 C317 0.929 . S
N283 Tb252 2.660 . S
N283 C284 1.305 . S
N283 C288 1.360 . S
C284 H276 0.930 . S
C284 N283 1.305 . S
C284 C287 1.407 . S
C285 H279 0.930 . S
C285 C286 1.410 . S
C285 C287 1.345 . S
C286 C285 1.410 . S
C286 C288 1.417 . S
C286 C318 1.432 . S
C287 H273 0.930 1_554 S
C287 C284 1.407 . S
C287 C285 1.345 . S
C288 N283 1.360 . S
C288 C286 1.417 . S
C288 C292 1.432 . S
H289 C294 0.930 . S
N290 Tb252 2.600 . S
N290 C292 1.359 . S
N290 C293 1.327 . S
C291 H277 0.931 . S
C291 C293 1.392 . S
C291 C294 1.370 . S
C292 C288 1.432 . S
C292 N290 1.359 . S
C292 C295 1.414 . S
C293 H275 0.930 . S
C293 N290 1.327 . S
C293 C291 1.392 . S
C294 H289 0.930 . S
C294 C291 1.370 . S
C294 C295 1.385 . S
C295 C292 1.414 . S
C295 C294 1.385 . S
C295 C317 1.444 . S
O296 Tb252 2.546 . S
O296 C316 1.251 . S
O297 Tb252 2.610 . S
O297 Tb263 2.362 . S
O297 C308 1.283 . S
O298 Tb263 2.433 . S
O298 C315 1.303 . S
O299 Tb252 2.320 . S
O299 C315 1.260 . S
O300 Tb252 2.552 . S
O300 C308 1.243 . S
O301 Tb252 2.413 . S
O301 C316 1.256 . S
O302 Tb263 2.546 1_556 S
O302 C327 1.251 . S
O303 Tb252 2.362 . S
O303 Tb263 2.610 . S
O303 C319 1.283 . S
O304 Tb252 2.421 . S
O304 C326 1.262 . S
O305 Tb263 2.320 . S
O305 C326 1.260 . S
O306 Tb263 2.552 1_556 S
O306 C319 1.243 1_556 S
O307 Tb263 2.413 1_556 S
O307 C327 1.256 . S
C308 O297 1.283 . S
C308 O300 1.243 . S
C309 C311 1.382 . S
C309 C313 1.393 . S
C309 C316 1.500 . S
C310 C311 1.400 . S
C310 C312 1.384 . S
C311 C309 1.382 . S
C311 C310 1.400 . S
C311 H328 0.930 . S
C312 C310 1.384 . S
C312 C314 1.392 . S
C312 H329 0.931 . S
C313 C309 1.393 . S
C313 C314 1.401 . S
C313 H330 0.930 . S
C314 C312 1.392 . S
C314 C313 1.401 . S
C314 H331 0.930 . S
C315 O298 1.303 . S
C315 O299 1.260 . S
C316 Tb252 2.833 . S
C316 O296 1.251 . S
C316 O301 1.256 . S
C316 C309 1.500 . S
C317 H282 0.929 . S
C317 C295 1.444 . S
C317 C318 1.317 . S
C318 H280 0.930 . S
C318 C286 1.432 . S
C318 C317 1.317 . S
C319 O303 1.283 . S
C319 O306 1.243 1_554 S
C320 C321 1.382 . S
C320 C324 1.393 . S
C320 C327 1.500 . S
C321 C320 1.382 . S
C321 C322 1.400 . S
C321 H332 0.930 . S
C322 C321 1.400 . S
C322 C323 1.384 . S
C323 C322 1.384 . S
C323 C325 1.392 . S
C323 H333 0.931 . S
C324 C320 1.393 . S
C324 C325 1.401 . S
C324 H334 0.930 . S
C325 C323 1.392 . S
C325 C324 1.401 . S
C325 H335 0.930 . S
C326 O304 1.262 . S
C326 O305 1.260 . S
C327 Tb263 2.833 1_556 S
C327 O302 1.251 . S
C327 O307 1.256 . S
C327 C320 1.500 . S
H328 C311 0.930 . S
H329 C312 0.931 . S
H330 C313 0.930 . S
H331 C314 0.930 . S
H332 C321 0.930 . S
H333 C323 0.931 . S
H334 C324 0.930 . S
H335 C325 0.930 . S
Tb336 N367 2.660 1_455 S
Tb336 N374 2.600 1_455 S
Tb336 O380 2.546 1_455 S
Tb336 O381 2.610 . S
Tb336 O383 2.306 1_455 S
Tb336 O384 2.552 . S
Tb336 O385 2.413 1_455 S
Tb336 O387 2.362 . S
Tb336 O388 2.421 . S
Tb336 C400 2.833 1_455 S
C337 C340 1.432 . S
C337 C341 1.414 . S
C337 N344 1.359 . S
C338 C340 1.417 . S
C338 C342 1.432 . S
C338 C350 1.410 . S
C339 C341 1.444 . S
C339 C342 1.317 . S
C339 H362 0.929 . S
C340 C337 1.432 . S
C340 C338 1.417 . S
C340 N348 1.360 . S
C341 C337 1.414 . S
C341 C339 1.444 . S
C341 C346 1.385 . S
C342 C338 1.432 . S
C342 C339 1.317 . S
C342 H354 0.930 . S
C343 C345 1.392 . S
C343 C346 1.370 . S
C343 H355 0.931 . S
N344 C337 1.359 . S
N344 C345 1.327 . S
N344 Tb347 2.600 . S
C345 C343 1.392 . S
C345 N344 1.327 . S
C345 H352 0.930 . S
C346 C341 1.385 . S
C346 C343 1.370 . S
C346 H365 0.930 . S
Tb347 N344 2.600 . S
Tb347 N348 2.660 . S
Tb347 O381 2.362 . S
Tb347 O382 2.421 . S
Tb347 O386 2.546 . S
Tb347 O387 2.610 . S
Tb347 O389 2.320 . S
Tb347 O390 2.552 . S
Tb347 O391 2.413 . S
Tb347 C411 2.833 . S
N348 C340 1.360 . S
N348 Tb347 2.660 . S
N348 C349 1.305 . S
C349 N348 1.305 . S
C349 C351 1.407 . S
C349 H356 0.930 . S
C350 C338 1.410 . S
C350 C351 1.345 . S
C350 H358 0.930 . S
C351 C349 1.407 . S
C351 C350 1.345 . S
C351 H353 0.930 . S
H352 C345 0.930 . S
H353 C351 0.930 . S
H354 C342 0.930 . S
H355 C343 0.931 . S
H356 C349 0.930 . S
H357 C371 0.930 . S
H358 C350 0.930 . S
H359 C377 0.930 . S
H360 C368 0.930 . S
H361 C375 0.912 1_455 S
H362 C339 0.929 . S
H363 C369 0.930 . S
H364 C402 0.930 . S
H365 C346 0.930 . S
H366 C401 0.929 . S
N367 Tb336 2.660 1_655 S
N367 C368 1.305 . S
N367 C372 1.360 . S
C368 H360 0.930 . S
C368 N367 1.305 . S
C368 C371 1.407 . S
C369 H363 0.930 . S
C369 C370 1.410 . S
C369 C371 1.345 . S
C370 C369 1.410 . S
C370 C372 1.417 . S
C370 C402 1.432 . S
C371 H357 0.930 . S
C371 C368 1.407 . S
C371 C369 1.345 . S
C372 N367 1.360 . S
C372 C370 1.417 . S
C372 C376 1.432 . S
H373 C378 0.930 . S
N374 Tb336 2.600 1_655 S
N374 C376 1.359 . S
N374 C377 1.327 1_655 S
C375 H361 0.912 1_655 S
C375 C377 1.378 1_655 S
C375 C378 1.404 . S
C376 C372 1.432 . S
C376 N374 1.359 . S
C376 C379 1.414 . S
C377 H359 0.930 . S
C377 N374 1.327 1_455 S
C377 C375 1.378 1_455 S
C378 H373 0.930 . S
C378 C375 1.404 . S
C378 C379 1.385 . S
C379 C376 1.414 . S
C379 C378 1.385 . S
C379 C401 1.444 . S
O380 Tb336 2.546 1_655 S
O380 C400 1.251 . S
O381 Tb336 2.610 . S
O381 Tb347 2.362 . S
O381 C392 1.283 . S
O382 Tb347 2.421 . S
O382 C399 1.262 . S
O383 Tb336 2.306 1_655 S
O383 C399 1.244 1_655 S
O384 Tb336 2.552 . S
O384 C392 1.243 . S
O385 Tb336 2.413 1_655 S
O385 C400 1.256 . S
O386 Tb347 2.546 . S
O386 C411 1.251 . S
O387 Tb336 2.362 . S
O387 Tb347 2.610 . S
O387 C403 1.283 . S
O388 Tb336 2.421 . S
O388 C410 1.262 . S
O389 Tb347 2.320 . S
O389 C410 1.260 . S
O390 Tb347 2.552 . S
O390 C403 1.243 . S
O391 Tb347 2.413 . S
O391 C411 1.256 . S
C392 O381 1.283 . S
C392 O384 1.243 . S
C393 C395 1.382 . S
C393 C397 1.393 . S
C393 C400 1.500 . S
C394 C395 1.400 . S
C394 C396 1.384 . S
C395 C393 1.382 . S
C395 C394 1.400 . S
C395 H412 0.930 . S
C396 C394 1.384 . S
C396 C398 1.392 . S
C396 H413 0.931 . S
C397 C393 1.393 . S
C397 C398 1.401 . S
C397 H414 0.930 . S
C398 C396 1.392 . S
C398 C397 1.401 . S
C398 H415 0.930 . S
C399 O382 1.262 . S
C399 O383 1.244 1_455 S
C400 Tb336 2.833 1_655 S
C400 O380 1.251 . S
C400 O385 1.256 . S
C400 C393 1.500 . S
C401 H366 0.929 . S
C401 C379 1.444 . S
C401 C402 1.317 . S
C402 H364 0.930 . S
C402 C370 1.432 . S
C402 C401 1.317 . S
C403 O387 1.283 . S
C403 O390 1.243 . S
C404 C405 1.382 . S
C404 C408 1.393 . S
C404 C411 1.500 . S
C405 C404 1.382 . S
C405 C406 1.400 . S
C405 H416 0.930 . S
C406 C405 1.400 . S
C406 C407 1.384 . S
C407 C406 1.384 . S
C407 C409 1.392 . S
C407 H417 0.931 . S
C408 C404 1.393 . S
C408 C409 1.401 . S
C408 H418 0.930 . S
C409 C407 1.392 . S
C409 C408 1.401 . S
C409 H419 0.930 . S
C410 O388 1.262 . S
C410 O389 1.260 . S
C411 Tb347 2.833 . S
C411 O386 1.251 . S
C411 O391 1.256 . S
C411 C404 1.500 . S
H412 C395 0.930 . S
H413 C396 0.931 . S
H414 C397 0.930 . S
H415 C398 0.930 . S
H416 C405 0.930 . S
H417 C407 0.931 . S
H418 C408 0.930 . S
H419 C409 0.930 . S
Tb420 N451 2.660 . S
Tb420 N458 2.600 . S
Tb420 O464 2.546 . S
Tb420 O465 2.610 . S
Tb420 O467 2.320 . S
Tb420 O468 2.552 . S
Tb420 O469 2.413 . S
Tb420 O471 2.362 . S
Tb420 O472 2.421 . S
Tb420 C484 2.833 . S
C421 C424 1.432 . S
C421 C425 1.414 . S
C421 N428 1.359 . S
C422 C424 1.417 . S
C422 C426 1.432 . S
C422 C434 1.410 . S
C423 C425 1.444 . S
C423 C426 1.317 . S
C423 H446 0.929 . S
C424 C421 1.432 . S
C424 C422 1.417 . S
C424 N432 1.360 . S
C425 C421 1.414 . S
C425 C423 1.444 . S
C425 C430 1.385 . S
C426 C422 1.432 . S
C426 C423 1.317 . S
C426 H438 0.930 . S
C427 C429 1.392 . S
C427 C430 1.370 . S
C427 H439 0.931 . S
N428 C421 1.359 . S
N428 C429 1.327 . S
N428 Tb431 2.600 . S
C429 C427 1.392 . S
C429 N428 1.327 . S
C429 H436 0.930 . S
C430 C425 1.385 . S
C430 C427 1.370 . S
C430 H449 0.930 . S
Tb431 N428 2.600 . S
Tb431 N432 2.660 . S
Tb431 O465 2.362 . S
Tb431 O466 2.421 . S
Tb431 O470 2.546 . S
Tb431 O471 2.610 . S
Tb431 O473 2.320 . S
Tb431 O474 2.552 . S
Tb431 O475 2.413 . S
Tb431 C495 2.833 . S
N432 C424 1.360 . S
N432 Tb431 2.660 . S
N432 C433 1.305 . S
C433 N432 1.305 . S
C433 C435 1.407 . S
C433 H440 0.930 . S
C434 C422 1.410 . S
C434 C435 1.345 . S
C434 H442 0.930 . S
C435 C433 1.407 . S
C435 C434 1.345 . S
C435 H437 0.930 . S
H436 C429 0.930 . S
H437 C435 0.930 . S
H438 C426 0.930 . S
H439 C427 0.931 . S
H440 C433 0.930 . S
H441 C455 0.930 . S
H442 C434 0.930 . S
H443 C461 0.930 . S
H444 C452 0.930 . S
H445 C459 0.931 . S
H446 C423 0.929 . S
H447 C453 0.930 . S
H448 C486 0.930 . S
H449 C430 0.930 . S
H450 C485 0.929 . S
N451 Tb420 2.660 . S
N451 C452 1.305 . S
N451 C456 1.360 . S
C452 H444 0.930 . S
C452 N451 1.305 . S
C452 C455 1.407 . S
C453 H447 0.930 . S
C453 C454 1.410 . S
C453 C455 1.345 . S
C454 C453 1.410 . S
C454 C456 1.417 . S
C454 C486 1.432 . S
C455 H441 0.930 . S
C455 C452 1.407 . S
C455 C453 1.345 . S
C456 N451 1.360 . S
C456 C454 1.417 . S
C456 C460 1.432 . S
H457 C462 0.930 . S
N458 Tb420 2.600 . S
N458 C460 1.359 . S
N458 C461 1.327 . S
C459 H445 0.931 . S
C459 C461 1.392 . S
C459 C462 1.370 . S
C460 C456 1.432 . S
C460 N458 1.359 . S
C460 C463 1.414 . S
C461 H443 0.930 . S
C461 N458 1.327 . S
C461 C459 1.392 . S
C462 H457 0.930 . S
C462 C459 1.370 . S
C462 C463 1.385 . S
C463 C460 1.414 . S
C463 C462 1.385 . S
C463 C485 1.444 . S
O464 Tb420 2.546 . S
O464 C484 1.251 . S
O465 Tb420 2.610 . S
O465 Tb431 2.362 . S
O465 C476 1.283 . S
O466 Tb431 2.421 . S
O466 C483 1.262 . S
O467 Tb420 2.320 . S
O467 C483 1.260 . S
O468 Tb420 2.552 . S
O468 C476 1.243 . S
O469 Tb420 2.413 . S
O469 C484 1.256 . S
O470 Tb431 2.546 . S
O470 C495 1.251 . S
O471 Tb420 2.362 . S
O471 Tb431 2.610 . S
O471 C487 1.283 . S
O472 Tb420 2.421 . S
O472 C494 1.262 . S
O473 Tb431 2.320 . S
O473 C494 1.260 . S
O474 Tb431 2.552 . S
O474 C487 1.243 . S
O475 Tb431 2.413 . S
O475 C495 1.256 . S
C476 O465 1.283 . S
C476 O468 1.243 . S
C477 C479 1.382 . S
C477 C481 1.393 . S
C477 C484 1.500 . S
C478 C479 1.400 . S
C478 C480 1.384 . S
C479 C477 1.382 . S
C479 C478 1.400 . S
C479 H496 0.930 . S
C480 C478 1.384 . S
C480 C482 1.392 . S
C480 H497 0.931 . S
C481 C477 1.393 . S
C481 C482 1.401 . S
C481 H498 0.930 . S
C482 C480 1.392 . S
C482 C481 1.401 . S
C482 H499 0.930 . S
C483 O466 1.262 . S
C483 O467 1.260 . S
C484 Tb420 2.833 . S
C484 O464 1.251 . S
C484 O469 1.256 . S
C484 C477 1.500 . S
C485 H450 0.929 . S
C485 C463 1.444 . S
C485 C486 1.317 . S
C486 H448 0.930 . S
C486 C454 1.432 . S
C486 C485 1.317 . S
C487 O471 1.283 . S
C487 O474 1.243 . S
C488 C489 1.382 . S
C488 C492 1.393 . S
C488 C495 1.500 . S
C489 C488 1.382 . S
C489 C490 1.400 . S
C489 H500 0.930 . S
C490 C489 1.400 . S
C490 C491 1.384 . S
C491 C490 1.384 . S
C491 C493 1.392 . S
C491 H501 0.931 . S
C492 C488 1.393 . S
C492 C493 1.401 . S
C492 H502 0.930 . S
C493 C491 1.392 . S
C493 C492 1.401 . S
C493 H503 0.930 . S
C494 O472 1.262 . S
C494 O473 1.260 . S
C495 Tb431 2.833 . S
C495 O470 1.251 . S
C495 O475 1.256 . S
C495 C488 1.500 . S
H496 C479 0.930 . S
H497 C480 0.931 . S
H498 C481 0.930 . S
H499 C482 0.930 . S
H500 C489 0.930 . S
H501 C491 0.931 . S
H502 C492 0.930 . S
H503 C493 0.930 . S
Tb504 N535 2.660 . S
Tb504 N542 2.600 . S
Tb504 O548 2.546 . S
Tb504 O549 2.610 . S
Tb504 O551 2.320 . S
Tb504 O552 2.552 . S
Tb504 O553 2.413 . S
Tb504 O555 2.362 . S
Tb504 O556 2.421 . S
Tb504 C568 2.833 . S
C505 C508 1.432 . S
C505 C509 1.414 . S
C505 N512 1.359 . S
C506 C508 1.417 . S
C506 C510 1.432 . S
C506 C518 1.410 . S
C507 C509 1.444 . S
C507 C510 1.317 . S
C507 H530 0.929 . S
C508 C505 1.432 . S
C508 C506 1.417 . S
C508 N516 1.360 . S
C509 C505 1.414 . S
C509 C507 1.444 . S
C509 C514 1.385 . S
C510 C506 1.432 . S
C510 C507 1.317 . S
C510 H522 0.930 . S
C511 C513 1.392 . S
C511 C514 1.370 . S
C511 H523 0.931 . S
N512 C505 1.359 . S
N512 C513 1.327 . S
N512 Tb515 2.600 . S
C513 C511 1.392 . S
C513 N512 1.327 . S
C513 H520 0.930 . S
C514 C509 1.385 . S
C514 C511 1.370 . S
C514 H533 0.930 . S
Tb515 N512 2.600 . S
Tb515 N516 2.660 . S
Tb515 O549 2.362 . S
Tb515 O550 2.421 . S
Tb515 O554 2.546 . S
Tb515 O555 2.610 . S
Tb515 O557 2.320 . S
Tb515 O558 2.552 . S
Tb515 O559 2.413 . S
Tb515 C579 2.833 . S
N516 C508 1.360 . S
N516 Tb515 2.660 . S
N516 C517 1.305 . S
C517 N516 1.305 . S
C517 C519 1.407 . S
C517 H524 0.930 . S
C518 C506 1.410 . S
C518 C519 1.345 . S
C518 H526 0.930 . S
C519 C517 1.407 . S
C519 C518 1.345 . S
C519 H521 0.930 . S
H520 C513 0.930 . S
H521 C519 0.930 . S
H522 C510 0.930 . S
H523 C511 0.931 . S
H524 C517 0.930 . S
H525 C539 0.930 . S
H526 C518 0.930 . S
H527 C545 0.930 . S
H528 C536 0.930 . S
H529 C543 0.931 . S
H530 C507 0.929 . S
H531 C537 0.930 . S
H532 C570 0.930 . S
H533 C514 0.930 . S
H534 C569 0.929 . S
N535 Tb504 2.660 . S
N535 C536 1.305 . S
N535 C540 1.360 . S
C536 H528 0.930 . S
C536 N535 1.305 . S
C536 C539 1.407 . S
C537 H531 0.930 . S
C537 C538 1.410 . S
C537 C539 1.345 . S
C538 C537 1.410 . S
C538 C540 1.417 . S
C538 C570 1.432 . S
C539 H525 0.930 . S
C539 C536 1.407 . S
C539 C537 1.345 . S
C540 N535 1.360 . S
C540 C538 1.417 . S
C540 C544 1.432 . S
H541 C546 0.930 . S
N542 Tb504 2.600 . S
N542 C544 1.359 . S
N542 C545 1.327 . S
C543 H529 0.931 . S
C543 C545 1.392 . S
C543 C546 1.370 . S
C544 C540 1.432 . S
C544 N542 1.359 . S
C544 C547 1.414 . S
C545 H527 0.930 . S
C545 N542 1.327 . S
C545 C543 1.392 . S
C546 H541 0.930 . S
C546 C543 1.370 . S
C546 C547 1.385 . S
C547 C544 1.414 . S
C547 C546 1.385 . S
C547 C569 1.444 . S
O548 Tb504 2.546 . S
O548 C568 1.251 . S
O549 Tb504 2.610 . S
O549 Tb515 2.362 . S
O549 C560 1.283 . S
O550 Tb515 2.421 . S
O550 C567 1.262 . S
O551 Tb504 2.320 . S
O551 C567 1.260 . S
O552 Tb504 2.552 . S
O552 C560 1.243 . S
O553 Tb504 2.413 . S
O553 C568 1.256 . S
O554 Tb515 2.546 . S
O554 C579 1.251 . S
O555 Tb504 2.362 . S
O555 Tb515 2.610 . S
O555 C571 1.283 . S
O556 Tb504 2.421 . S
O556 C578 1.262 . S
O557 Tb515 2.320 . S
O557 C578 1.260 . S
O558 Tb515 2.552 . S
O558 C571 1.243 . S
O559 Tb515 2.413 . S
O559 C579 1.256 . S
C560 O549 1.283 . S
C560 O552 1.243 . S
C561 C563 1.382 . S
C561 C565 1.393 . S
C561 C568 1.500 . S
C562 C563 1.400 . S
C562 C564 1.384 . S
C563 C561 1.382 . S
C563 C562 1.400 . S
C563 H580 0.930 . S
C564 C562 1.384 . S
C564 C566 1.392 . S
C564 H581 0.931 . S
C565 C561 1.393 . S
C565 C566 1.401 . S
C565 H582 0.930 . S
C566 C564 1.392 . S
C566 C565 1.401 . S
C566 H583 0.930 . S
C567 O550 1.262 . S
C567 O551 1.260 . S
C568 Tb504 2.833 . S
C568 O548 1.251 . S
C568 O553 1.256 . S
C568 C561 1.500 . S
C569 H534 0.929 . S
C569 C547 1.444 . S
C569 C570 1.317 . S
C570 H532 0.930 . S
C570 C538 1.432 . S
C570 C569 1.317 . S
C571 O555 1.283 . S
C571 O558 1.243 . S
C572 C573 1.382 . S
C572 C576 1.393 . S
C572 C579 1.500 . S
C573 C572 1.382 . S
C573 C574 1.400 . S
C573 H584 0.930 . S
C574 C573 1.400 . S
C574 C575 1.384 . S
C575 C574 1.384 . S
C575 C577 1.392 . S
C575 H585 0.931 . S
C576 C572 1.393 . S
C576 C577 1.401 . S
C576 H586 0.930 . S
C577 C575 1.392 . S
C577 C576 1.401 . S
C577 H587 0.930 . S
C578 O556 1.262 . S
C578 O557 1.260 . S
C579 Tb515 2.833 . S
C579 O554 1.251 . S
C579 O559 1.256 . S
C579 C572 1.500 . S
H580 C563 0.930 . S
H581 C564 0.931 . S
H582 C565 0.930 . S
H583 C566 0.930 . S
H584 C573 0.930 . S
H585 C575 0.931 . S
H586 C576 0.930 . S
H587 C577 0.930 . S
Tb588 N619 2.660 1_556 S
Tb588 N626 2.600 1_556 S
Tb588 O632 2.546 1_556 S
Tb588 O633 2.610 . S
Tb588 O635 2.303 1_556 S
Tb588 O636 2.552 . S
Tb588 O637 2.413 1_556 S
Tb588 O639 2.362 . S
Tb588 O640 2.421 . S
Tb588 C652 2.833 1_556 S
C589 C592 1.432 . S
C589 C593 1.414 . S
C589 N596 1.359 . S
C590 C592 1.417 . S
C590 C594 1.432 . S
C590 C602 1.410 . S
C591 C593 1.444 . S
C591 C594 1.317 . S
C591 H614 0.929 . S
C592 C589 1.432 . S
C592 C590 1.417 . S
C592 N600 1.360 . S
C593 C589 1.414 . S
C593 C591 1.444 . S
C593 C598 1.385 . S
C594 C590 1.432 . S
C594 C591 1.317 . S
C594 H606 0.930 . S
C595 C597 1.392 . S
C595 C598 1.370 . S
C595 H607 0.931 . S
N596 C589 1.359 . S
N596 C597 1.327 . S
N596 Tb599 2.600 . S
C597 C595 1.392 . S
C597 N596 1.327 . S
C597 H604 0.930 . S
C598 C593 1.385 . S
C598 C595 1.370 . S
C598 H617 0.930 . S
Tb599 N596 2.600 . S
Tb599 N600 2.660 . S
Tb599 O633 2.362 . S
Tb599 O634 2.421 . S
Tb599 O638 2.546 . S
Tb599 O639 2.610 . S
Tb599 O641 2.320 . S
Tb599 O642 2.552 . S
Tb599 O643 2.413 . S
Tb599 C663 2.833 . S
N600 C592 1.360 . S
N600 Tb599 2.660 . S
N600 C601 1.305 . S
C601 N600 1.305 . S
C601 C603 1.407 . S
C601 H608 0.930 . S
C602 C590 1.410 . S
C602 C603 1.345 . S
C602 H610 0.930 . S
C603 C601 1.407 . S
C603 C602 1.345 . S
C603 H605 0.930 . S
H604 C597 0.930 . S
H605 C603 0.930 . S
H606 C594 0.930 . S
H607 C595 0.931 . S
H608 C601 0.930 . S
H609 C623 0.930 . S
H610 C602 0.930 . S
H611 C629 0.930 . S
H612 C620 0.930 . S
H613 C627 0.912 1_556 S
H614 C591 0.929 . S
H615 C621 0.930 . S
H616 C654 0.930 . S
H617 C598 0.930 . S
H618 C653 0.929 . S
N619 Tb588 2.660 1_554 S
N619 C620 1.305 . S
N619 C624 1.360 . S
C620 H612 0.930 . S
C620 N619 1.305 . S
C620 C623 1.407 . S
C621 H615 0.930 . S
C621 C622 1.410 . S
C621 C623 1.345 . S
C622 C621 1.410 . S
C622 C624 1.417 . S
C622 C654 1.432 . S
C623 H609 0.930 . S
C623 C620 1.407 . S
C623 C621 1.345 . S
C624 N619 1.360 . S
C624 C622 1.417 . S
C624 C628 1.432 . S
H625 C630 0.930 . S
N626 Tb588 2.600 1_554 S
N626 C628 1.359 . S
N626 C629 1.327 1_554 S
C627 H613 0.912 1_554 S
C627 C629 1.378 1_554 S
C627 C630 1.404 . S
C628 C624 1.432 . S
C628 N626 1.359 . S
C628 C631 1.414 . S
C629 H611 0.930 . S
C629 N626 1.327 1_556 S
C629 C627 1.378 1_556 S
C630 H625 0.930 . S
C630 C627 1.404 . S
C630 C631 1.385 . S
C631 C628 1.414 . S
C631 C630 1.385 . S
C631 C653 1.444 . S
O632 Tb588 2.546 1_554 S
O632 C652 1.251 . S
O633 Tb588 2.610 . S
O633 Tb599 2.362 . S
O633 C644 1.283 . S
O634 Tb599 2.421 . S
O634 C651 1.262 . S
O635 Tb588 2.303 1_554 S
O635 C651 1.240 1_554 S
O636 Tb588 2.552 . S
O636 C644 1.243 . S
O637 Tb588 2.413 1_554 S
O637 C652 1.256 . S
O638 Tb599 2.546 . S
O638 C663 1.251 . S
O639 Tb588 2.362 . S
O639 Tb599 2.610 . S
O639 C655 1.283 . S
O640 Tb588 2.421 . S
O640 C662 1.262 . S
O641 Tb599 2.320 . S
O641 C662 1.260 . S
O642 Tb599 2.552 . S
O642 C655 1.243 . S
O643 Tb599 2.413 . S
O643 C663 1.256 . S
C644 O633 1.283 . S
C644 O636 1.243 . S
C645 C647 1.382 . S
C645 C649 1.393 . S
C645 C652 1.500 . S
C646 C647 1.400 . S
C646 C648 1.384 . S
C647 C645 1.382 . S
C647 C646 1.400 . S
C647 H664 0.930 . S
C648 C646 1.384 . S
C648 C650 1.392 . S
C648 H665 0.931 . S
C649 C645 1.393 . S
C649 C650 1.401 . S
C649 H666 0.930 . S
C650 C648 1.392 . S
C650 C649 1.401 . S
C650 H667 0.930 . S
C651 O634 1.262 . S
C651 O635 1.240 1_556 S
C652 Tb588 2.833 1_554 S
C652 O632 1.251 . S
C652 O637 1.256 . S
C652 C645 1.500 . S
C653 H618 0.929 . S
C653 C631 1.444 . S
C653 C654 1.317 . S
C654 H616 0.930 . S
C654 C622 1.432 . S
C654 C653 1.317 . S
C655 O639 1.283 . S
C655 O642 1.243 . S
C656 C657 1.382 . S
C656 C660 1.393 . S
C656 C663 1.500 . S
C657 C656 1.382 . S
C657 C658 1.400 . S
C657 H668 0.930 . S
C658 C657 1.400 . S
C658 C659 1.384 . S
C659 C658 1.384 . S
C659 C661 1.392 . S
C659 H669 0.931 . S
C660 C656 1.393 . S
C660 C661 1.401 . S
C660 H670 0.930 . S
C661 C659 1.392 . S
C661 C660 1.401 . S
C661 H671 0.930 . S
C662 O640 1.262 . S
C662 O641 1.260 . S
C663 Tb599 2.833 . S
C663 O638 1.251 . S
C663 O643 1.256 . S
C663 C656 1.500 . S
H664 C647 0.930 . S
H665 C648 0.931 . S
H666 C649 0.930 . S
H667 C650 0.930 . S
H668 C657 0.930 . S
H669 C659 0.931 . S
H670 C660 0.930 . S
H671 C661 0.930 . S
Tb672 N703 2.660 1_545 S
Tb672 N710 2.600 1_545 S
Tb672 O716 2.546 1_545 S
Tb672 O717 2.610 . S
Tb672 O719 2.321 . S
Tb672 O720 2.552 . S
Tb672 O721 2.413 1_545 S
Tb672 O723 2.362 . S
Tb672 O724 2.421 . S
Tb672 C736 2.833 1_545 S
C673 C676 1.432 . S
C673 C677 1.414 . S
C673 N680 1.359 . S
C674 C676 1.417 . S
C674 C678 1.432 . S
C674 C686 1.410 . S
C675 C677 1.444 . S
C675 C678 1.317 . S
C675 H698 0.929 . S
C676 C673 1.432 . S
C676 C674 1.417 . S
C676 N684 1.360 . S
C677 C673 1.414 . S
C677 C675 1.444 . S
C677 C682 1.385 . S
C678 C674 1.432 . S
C678 C675 1.317 . S
C678 H690 0.930 . S
C679 C681 1.392 . S
C679 C682 1.370 . S
C679 H691 0.931 . S
N680 C673 1.359 . S
N680 C681 1.327 . S
N680 Tb683 2.600 . S
C681 C679 1.392 . S
C681 N680 1.327 . S
C681 H688 0.930 . S
C682 C677 1.385 . S
C682 C679 1.370 . S
C682 H701 0.930 . S
Tb683 N680 2.600 . S
Tb683 N684 2.660 . S
Tb683 O717 2.362 . S
Tb683 O718 2.421 . S
Tb683 O722 2.546 . S
Tb683 O723 2.610 . S
Tb683 O725 2.320 . S
Tb683 O726 2.552 . S
Tb683 O727 2.413 . S
Tb683 C747 2.833 . S
N684 C676 1.360 . S
N684 Tb683 2.660 . S
N684 C685 1.305 . S
C685 N684 1.305 . S
C685 C687 1.407 . S
C685 H692 0.930 . S
C686 C674 1.410 . S
C686 C687 1.345 . S
C686 H694 0.930 . S
C687 C685 1.407 . S
C687 C686 1.345 . S
C687 H689 0.930 . S
H688 C681 0.930 . S
H689 C687 0.930 . S
H690 C678 0.930 . S
H691 C679 0.931 . S
H692 C685 0.930 . S
H693 C707 0.930 . S
H694 C686 0.930 . S
H695 C713 0.930 . S
H696 C704 0.930 . S
H697 C711 0.931 . S
H698 C675 0.929 . S
H699 C705 0.930 . S
H700 C738 0.930 . S
H701 C682 0.930 . S
H702 C737 0.929 . S
N703 Tb672 2.660 1_565 S
N703 C704 1.305 . S
N703 C708 1.360 . S
C704 H696 0.930 . S
C704 N703 1.305 . S
C704 C707 1.407 . S
C705 H699 0.930 . S
C705 C706 1.410 . S
C705 C707 1.345 . S
C706 C705 1.410 . S
C706 C708 1.417 . S
C706 C738 1.432 . S
C707 H693 0.930 . S
C707 C704 1.407 . S
C707 C705 1.345 . S
C708 N703 1.360 . S
C708 C706 1.417 . S
C708 C712 1.432 . S
H709 C714 0.930 . S
N710 Tb672 2.600 1_565 S
N710 C712 1.359 . S
N710 C713 1.327 1_565 S
C711 H697 0.931 . S
C711 C713 1.392 . S
C711 C714 1.369 1_545 S
C712 C708 1.432 . S
C712 N710 1.359 . S
C712 C715 1.414 . S
C713 H695 0.930 . S
C713 N710 1.327 1_545 S
C713 C711 1.392 . S
C714 H709 0.930 . S
C714 C711 1.369 1_565 S
C714 C715 1.385 . S
C715 C712 1.414 . S
C715 C714 1.385 . S
C715 C737 1.444 . S
O716 Tb672 2.546 1_565 S
O716 C736 1.249 . S
O717 Tb672 2.610 . S
O717 Tb683 2.362 . S
O717 C728 1.283 . S
O718 Tb683 2.421 . S
O718 C735 1.262 . S
O719 Tb672 2.321 . S
O719 C735 1.261 . S
O720 Tb672 2.552 . S
O720 C728 1.243 . S
O721 Tb672 2.413 1_565 S
O721 C736 1.256 . S
O722 Tb683 2.546 . S
O722 C747 1.251 . S
O723 Tb672 2.362 . S
O723 Tb683 2.610 . S
O723 C739 1.283 . S
O724 Tb672 2.421 . S
O724 C746 1.262 . S
O725 Tb683 2.320 . S
O725 C746 1.260 . S
O726 Tb683 2.552 . S
O726 C739 1.243 . S
O727 Tb683 2.413 . S
O727 C747 1.256 . S
C728 O717 1.283 . S
C728 O720 1.243 . S
C729 C731 1.382 . S
C729 C733 1.393 . S
C729 C736 1.500 . S
C730 C731 1.400 . S
C730 C732 1.384 . S
C731 C729 1.382 . S
C731 C730 1.400 . S
C731 H748 0.930 . S
C732 C730 1.384 . S
C732 C734 1.392 . S
C732 H749 0.931 . S
C733 C729 1.393 . S
C733 C734 1.401 . S
C733 H750 0.930 . S
C734 C732 1.392 . S
C734 C733 1.401 . S
C734 H751 0.930 . S
C735 O718 1.262 . S
C735 O719 1.261 . S
C736 Tb672 2.833 1_565 S
C736 O716 1.249 . S
C736 O721 1.256 . S
C736 C729 1.500 . S
C737 H702 0.929 . S
C737 C715 1.444 . S
C737 C738 1.317 . S
C738 H700 0.930 . S
C738 C706 1.432 . S
C738 C737 1.317 . S
C739 O723 1.283 . S
C739 O726 1.243 . S
C740 C741 1.382 . S
C740 C744 1.393 . S
C740 C747 1.500 . S
C741 C740 1.382 . S
C741 C742 1.400 . S
C741 H752 0.930 . S
C742 C741 1.400 . S
C742 C743 1.384 . S
C743 C742 1.384 . S
C743 C745 1.392 . S
C743 H753 0.931 . S
C744 C740 1.393 . S
C744 C745 1.401 . S
C744 H754 0.930 . S
C745 C743 1.392 . S
C745 C744 1.401 . S
C745 H755 0.930 . S
C746 O724 1.262 . S
C746 O725 1.260 . S
C747 Tb683 2.833 . S
C747 O722 1.251 . S
C747 O727 1.256 . S
C747 C740 1.500 . S
H748 C731 0.930 . S
H749 C732 0.931 . S
H750 C733 0.930 . S
H751 C734 0.930 . S
H752 C741 0.930 . S
H753 C743 0.931 . S
H754 C744 0.930 . S
H755 C745 0.930 . S
Tb756 N787 2.660 1_545 S
Tb756 N794 2.600 1_545 S
Tb756 O800 2.546 1_545 S
Tb756 O801 2.610 . S
Tb756 O803 2.308 1_545 S
Tb756 O804 2.552 . S
Tb756 O805 2.413 1_545 S
Tb756 O807 2.362 . S
Tb756 O808 2.421 . S
Tb756 C820 2.833 1_545 S
C757 C760 1.432 . S
C757 C761 1.414 . S
C757 N764 1.359 . S
C758 C760 1.417 . S
C758 C762 1.432 . S
C758 C770 1.410 . S
C759 C761 1.444 . S
C759 C762 1.317 . S
C759 H782 0.929 . S
C760 C757 1.432 . S
C760 C758 1.417 . S
C760 N768 1.360 . S
C761 C757 1.414 . S
C761 C759 1.444 . S
C761 C766 1.385 . S
C762 C758 1.432 . S
C762 C759 1.317 . S
C762 H774 0.930 . S
C763 C765 1.392 . S
C763 C766 1.370 . S
C763 H775 0.931 . S
N764 C757 1.359 . S
N764 C765 1.327 . S
N764 Tb767 2.600 . S
C765 C763 1.392 . S
C765 N764 1.327 . S
C765 H772 0.930 . S
C766 C761 1.385 . S
C766 C763 1.370 . S
C766 H785 0.930 . S
Tb767 N764 2.600 . S
Tb767 N768 2.660 . S
Tb767 O801 2.362 . S
Tb767 O802 2.421 . S
Tb767 O806 2.546 . S
Tb767 O807 2.610 . S
Tb767 O809 2.320 . S
Tb767 O810 2.552 . S
Tb767 O811 2.413 . S
Tb767 C831 2.833 . S
N768 C760 1.360 . S
N768 Tb767 2.660 . S
N768 C769 1.305 . S
C769 N768 1.305 . S
C769 C771 1.407 . S
C769 H776 0.930 . S
C770 C758 1.410 . S
C770 C771 1.345 . S
C770 H778 0.930 . S
C771 C769 1.407 . S
C771 C770 1.345 . S
C771 H773 0.930 . S
H772 C765 0.930 . S
H773 C771 0.930 . S
H774 C762 0.930 . S
H775 C763 0.931 . S
H776 C769 0.930 . S
H777 C791 0.930 . S
H778 C770 0.930 . S
H779 C797 0.930 . S
H780 C788 0.930 . S
H781 C795 0.916 1_545 S
H782 C759 0.929 . S
H783 C789 0.930 . S
H784 C822 0.930 . S
H785 C766 0.930 . S
H786 C821 0.929 . S
N787 Tb756 2.660 1_565 S
N787 C788 1.305 . S
N787 C792 1.360 . S
C788 H780 0.930 . S
C788 N787 1.305 . S
C788 C791 1.407 . S
C789 H783 0.930 . S
C789 C790 1.410 . S
C789 C791 1.345 . S
C790 C789 1.410 . S
C790 C792 1.417 . S
C790 C822 1.432 . S
C791 H777 0.930 . S
C791 C788 1.407 . S
C791 C789 1.345 . S
C792 N787 1.360 . S
C792 C790 1.417 . S
C792 C796 1.432 . S
H793 C798 0.930 . S
N794 Tb756 2.600 1_565 S
N794 C796 1.359 . S
N794 C797 1.327 1_565 S
C795 H781 0.916 1_565 S
C795 C797 1.382 1_565 S
C795 C798 1.396 . S
C796 C792 1.432 . S
C796 N794 1.359 . S
C796 C799 1.414 . S
C797 H779 0.930 . S
C797 N794 1.327 1_545 S
C797 C795 1.382 1_545 S
C798 H793 0.930 . S
C798 C795 1.396 . S
C798 C799 1.385 . S
C799 C796 1.414 . S
C799 C798 1.385 . S
C799 C821 1.444 . S
O800 Tb756 2.546 1_565 S
O800 C820 1.251 . S
O801 Tb756 2.610 . S
O801 Tb767 2.362 . S
O801 C812 1.283 . S
O802 Tb767 2.421 . S
O802 C819 1.262 . S
O803 Tb756 2.308 1_565 S
O803 C819 1.246 1_565 S
O804 Tb756 2.552 . S
O804 C812 1.243 . S
O805 Tb756 2.413 1_565 S
O805 C820 1.256 . S
O806 Tb767 2.546 . S
O806 C831 1.251 . S
O807 Tb756 2.362 . S
O807 Tb767 2.610 . S
O807 C823 1.283 . S
O808 Tb756 2.421 . S
O808 C830 1.262 . S
O809 Tb767 2.320 . S
O809 C830 1.260 . S
O810 Tb767 2.552 . S
O810 C823 1.243 . S
O811 Tb767 2.413 . S
O811 C831 1.256 . S
C812 O801 1.283 . S
C812 O804 1.243 . S
C813 C815 1.382 . S
C813 C817 1.393 . S
C813 C820 1.500 . S
C814 C815 1.400 . S
C814 C816 1.384 . S
C815 C813 1.382 . S
C815 C814 1.400 . S
C815 H832 0.930 . S
C816 C814 1.384 . S
C816 C818 1.392 . S
C816 H833 0.931 . S
C817 C813 1.393 . S
C817 C818 1.401 . S
C817 H834 0.930 . S
C818 C816 1.392 . S
C818 C817 1.401 . S
C818 H835 0.930 . S
C819 O802 1.262 . S
C819 O803 1.246 1_545 S
C820 Tb756 2.833 1_565 S
C820 O800 1.251 . S
C820 O805 1.256 . S
C820 C813 1.500 . S
C821 H786 0.929 . S
C821 C799 1.444 . S
C821 C822 1.317 . S
C822 H784 0.930 . S
C822 C790 1.432 . S
C822 C821 1.317 . S
C823 O807 1.283 . S
C823 O810 1.243 . S
C824 C825 1.382 . S
C824 C828 1.393 . S
C824 C831 1.500 . S
C825 C824 1.382 . S
C825 C826 1.400 . S
C825 H836 0.930 . S
C826 C825 1.400 . S
C826 C827 1.384 . S
C827 C826 1.384 . S
C827 C829 1.392 . S
C827 H837 0.931 . S
C828 C824 1.393 . S
C828 C829 1.401 . S
C828 H838 0.930 . S
C829 C827 1.392 . S
C829 C828 1.401 . S
C829 H839 0.930 . S
C830 O808 1.262 . S
C830 O809 1.260 . S
C831 Tb767 2.833 . S
C831 O806 1.251 . S
C831 O811 1.256 . S
C831 C824 1.500 . S
H832 C815 0.930 . S
H833 C816 0.931 . S
H834 C817 0.930 . S
H835 C818 0.930 . S
H836 C825 0.930 . S
H837 C827 0.931 . S
H838 C828 0.930 . S
H839 C829 0.930 . S
Tb840 N871 2.660 1_565 S
Tb840 N878 2.600 1_565 S
Tb840 O884 2.546 1_565 S
Tb840 O885 2.610 . S
Tb840 O887 2.320 1_565 S
Tb840 O888 2.552 . S
Tb840 O889 2.413 1_565 S
Tb840 O891 2.362 . S
Tb840 O892 2.421 . S
Tb840 C904 2.833 1_565 S
C841 C844 1.432 . S
C841 C845 1.414 . S
C841 N848 1.359 . S
C842 C844 1.417 . S
C842 C846 1.432 . S
C842 C854 1.410 . S
C843 C845 1.444 . S
C843 C846 1.317 . S
C843 H866 0.929 . S
C844 C841 1.432 . S
C844 C842 1.417 . S
C844 N852 1.360 . S
C845 C841 1.414 . S
C845 C843 1.444 . S
C845 C850 1.385 . S
C846 C842 1.432 . S
C846 C843 1.317 . S
C846 H858 0.930 . S
C847 C849 1.392 . S
C847 C850 1.370 . S
C847 H859 0.931 . S
N848 C841 1.359 . S
N848 C849 1.327 . S
N848 Tb851 2.600 . S
C849 C847 1.392 . S
C849 N848 1.327 . S
C849 H856 0.930 . S
C850 C845 1.385 . S
C850 C847 1.370 . S
C850 H869 0.930 . S
Tb851 N848 2.600 . S
Tb851 N852 2.660 . S
Tb851 O885 2.362 . S
Tb851 O886 2.421 . S
Tb851 O890 2.546 . S
Tb851 O891 2.610 . S
Tb851 O893 2.320 . S
Tb851 O894 2.552 . S
Tb851 O895 2.413 . S
Tb851 C915 2.833 . S
N852 C844 1.360 . S
N852 Tb851 2.660 . S
N852 C853 1.305 . S
C853 N852 1.305 . S
C853 C855 1.407 . S
C853 H860 0.930 . S
C854 C842 1.410 . S
C854 C855 1.345 . S
C854 H862 0.930 . S
C855 C853 1.407 . S
C855 C854 1.345 . S
C855 H857 0.930 . S
H856 C849 0.930 . S
H857 C855 0.930 . S
H858 C846 0.930 . S
H859 C847 0.931 . S
H860 C853 0.930 . S
H861 C875 0.930 . S
H862 C854 0.930 . S
H863 C881 0.930 . S
H864 C872 0.930 . S
H865 C879 0.931 1_565 S
H866 C843 0.929 . S
H867 C873 0.930 . S
H868 C906 0.930 . S
H869 C850 0.930 . S
H870 C905 0.929 . S
N871 Tb840 2.660 1_545 S
N871 C872 1.305 . S
N871 C876 1.360 . S
C872 H864 0.930 . S
C872 N871 1.305 . S
C872 C875 1.407 . S
C873 H867 0.930 . S
C873 C874 1.410 . S
C873 C875 1.345 . S
C874 C873 1.410 . S
C874 C876 1.417 . S
C874 C906 1.432 . S
C875 H861 0.930 . S
C875 C872 1.407 . S
C875 C873 1.345 . S
C876 N871 1.360 . S
C876 C874 1.417 . S
C876 C880 1.432 . S
H877 C882 0.930 . S
N878 Tb840 2.600 1_545 S
N878 C880 1.359 . S
N878 C881 1.327 1_545 S
C879 H865 0.931 1_545 S
C879 C881 1.392 1_545 S
C879 C882 1.370 . S
C880 C876 1.432 . S
C880 N878 1.359 . S
C880 C883 1.414 . S
C881 H863 0.930 . S
C881 N878 1.327 1_565 S
C881 C879 1.392 1_565 S
C882 H877 0.930 . S
C882 C879 1.370 . S
C882 C883 1.385 . S
C883 C880 1.414 . S
C883 C882 1.385 . S
C883 C905 1.444 . S
O884 Tb840 2.546 1_545 S
O884 C904 1.251 . S
O885 Tb840 2.610 . S
O885 Tb851 2.362 . S
O885 C896 1.283 . S
O886 Tb851 2.421 . S
O886 C903 1.262 . S
O887 Tb840 2.320 1_545 S
O887 C903 1.260 1_545 S
O888 Tb840 2.552 . S
O888 C896 1.243 . S
O889 Tb840 2.413 1_545 S
O889 C904 1.256 . S
O890 Tb851 2.546 . S
O890 C915 1.251 . S
O891 Tb840 2.362 . S
O891 Tb851 2.610 . S
O891 C907 1.283 . S
O892 Tb840 2.421 . S
O892 C914 1.262 . S
O893 Tb851 2.320 . S
O893 C914 1.260 . S
O894 Tb851 2.552 . S
O894 C907 1.243 . S
O895 Tb851 2.413 . S
O895 C915 1.256 . S
C896 O885 1.283 . S
C896 O888 1.243 . S
C897 C899 1.382 . S
C897 C901 1.393 . S
C897 C904 1.500 . S
C898 C899 1.400 . S
C898 C900 1.384 . S
C899 C897 1.382 . S
C899 C898 1.400 . S
C899 H916 0.930 . S
C900 C898 1.384 . S
C900 C902 1.392 . S
C900 H917 0.931 . S
C901 C897 1.393 . S
C901 C902 1.401 . S
C901 H918 0.930 . S
C902 C900 1.392 . S
C902 C901 1.401 . S
C902 H919 0.930 . S
C903 O886 1.262 . S
C903 O887 1.260 1_565 S
C904 Tb840 2.833 1_545 S
C904 O884 1.251 . S
C904 O889 1.256 . S
C904 C897 1.500 . S
C905 H870 0.929 . S
C905 C883 1.444 . S
C905 C906 1.317 . S
C906 H868 0.930 . S
C906 C874 1.432 . S
C906 C905 1.317 . S
C907 O891 1.283 . S
C907 O894 1.243 . S
C908 C909 1.382 . S
C908 C912 1.393 . S
C908 C915 1.500 . S
C909 C908 1.382 . S
C909 C910 1.400 . S
C909 H920 0.930 . S
C910 C909 1.400 . S
C910 C911 1.384 . S
C911 C910 1.384 . S
C911 C913 1.392 . S
C911 H921 0.931 . S
C912 C908 1.393 . S
C912 C913 1.401 . S
C912 H922 0.930 . S
C913 C911 1.392 . S
C913 C912 1.401 . S
C913 H923 0.930 . S
C914 O892 1.262 . S
C914 O893 1.260 . S
C915 Tb851 2.833 . S
C915 O890 1.251 . S
C915 O895 1.256 . S
C915 C908 1.500 . S
H916 C899 0.930 . S
H917 C900 0.931 . S
H918 C901 0.930 . S
H919 C902 0.930 . S
H920 C909 0.930 . S
H921 C911 0.931 . S
H922 C912 0.930 . S
H923 C913 0.930 . S
Tb924 N955 2.660 . S
Tb924 N962 2.600 . S
Tb924 O968 2.546 . S
Tb924 O969 2.610 . S
Tb924 O971 2.320 . S
Tb924 O972 2.552 . S
Tb924 O973 2.413 . S
Tb924 O975 2.362 . S
Tb924 O976 2.421 . S
Tb924 C988 2.833 . S
C925 C928 1.432 . S
C925 C929 1.399 1_565 S
C925 N932 1.359 1_565 S
C926 C928 1.417 . S
C926 C930 1.432 . S
C926 C938 1.410 . S
C927 C929 1.422 1_565 S
C927 C930 1.317 . S
C927 H950 0.929 . S
C928 C925 1.432 . S
C928 C926 1.417 . S
C928 N936 1.360 . S
C929 C925 1.399 1_545 S
C929 C927 1.422 1_545 S
C929 C934 1.423 . S
C930 C926 1.432 . S
C930 C927 1.317 . S
C930 H942 0.930 . S
C931 C933 1.392 . S
C931 C934 1.370 . S
C931 H943 0.931 . S
N932 C925 1.359 1_545 S
N932 C933 1.327 . S
N932 Tb935 2.600 1_545 S
C933 C931 1.392 . S
C933 N932 1.327 . S
C933 H940 0.930 . S
C934 C929 1.423 . S
C934 C931 1.370 . S
C934 H953 0.930 . S
Tb935 N932 2.600 1_565 S
Tb935 N936 2.660 . S
Tb935 O969 2.362 . S
Tb935 O970 2.421 . S
Tb935 O974 2.546 1_565 S
Tb935 O975 2.610 . S
Tb935 O977 2.320 . S
Tb935 O978 2.552 1_565 S
Tb935 O979 2.413 1_565 S
Tb935 C999 2.833 1_565 S
N936 C928 1.360 . S
N936 Tb935 2.660 . S
N936 C937 1.305 . S
C937 N936 1.305 . S
C937 C939 1.407 . S
C937 H944 0.930 . S
C938 C926 1.410 . S
C938 C939 1.345 . S
C938 H946 0.930 . S
C939 C937 1.407 . S
C939 C938 1.345 . S
C939 H941 0.930 . S
H940 C933 0.930 . S
H941 C939 0.930 . S
H942 C930 0.930 . S
H943 C931 0.931 . S
H944 C937 0.930 . S
H945 C959 0.930 1_545 S
H946 C938 0.930 . S
H947 C965 0.930 . S
H948 C956 0.930 . S
H949 C963 0.931 . S
H950 C927 0.929 . S
H951 C957 0.930 . S
H952 C990 0.930 . S
H953 C934 0.930 . S
H954 C989 0.929 . S
N955 Tb924 2.660 . S
N955 C956 1.305 . S
N955 C960 1.360 . S
C956 H948 0.930 . S
C956 N955 1.305 . S
C956 C959 1.407 . S
C957 H951 0.930 . S
C957 C958 1.410 . S
C957 C959 1.345 . S
C958 C957 1.410 . S
C958 C960 1.417 . S
C958 C990 1.432 . S
C959 H945 0.930 1_565 S
C959 C956 1.407 . S
C959 C957 1.345 . S
C960 N955 1.360 . S
C960 C958 1.417 . S
C960 C964 1.432 . S
H961 C966 0.930 . S
N962 Tb924 2.600 . S
N962 C964 1.359 . S
N962 C965 1.327 . S
C963 H949 0.931 . S
C963 C965 1.392 . S
C963 C966 1.370 . S
C964 C960 1.432 . S
C964 N962 1.359 . S
C964 C967 1.414 . S
C965 H947 0.930 . S
C965 N962 1.327 . S
C965 C963 1.392 . S
C966 H961 0.930 . S
C966 C963 1.370 . S
C966 C967 1.385 . S
C967 C964 1.414 . S
C967 C966 1.385 . S
C967 C989 1.444 . S
O968 Tb924 2.546 . S
O968 C988 1.251 . S
O969 Tb924 2.610 . S
O969 Tb935 2.362 . S
O969 C980 1.283 . S
O970 Tb935 2.421 . S
O970 C987 1.262 . S
O971 Tb924 2.320 . S
O971 C987 1.260 . S
O972 Tb924 2.552 . S
O972 C980 1.243 . S
O973 Tb924 2.413 . S
O973 C988 1.256 . S
O974 Tb935 2.546 1_545 S
O974 C999 1.251 . S
O975 Tb924 2.362 . S
O975 Tb935 2.610 . S
O975 C991 1.283 . S
O976 Tb924 2.421 . S
O976 C998 1.262 . S
O977 Tb935 2.320 . S
O977 C998 1.260 . S
O978 Tb935 2.552 1_545 S
O978 C991 1.243 1_545 S
O979 Tb935 2.413 1_545 S
O979 C999 1.256 . S
C980 O969 1.283 . S
C980 O972 1.243 . S
C981 C983 1.382 . S
C981 C985 1.393 . S
C981 C988 1.500 . S
C982 C983 1.400 . S
C982 C984 1.384 . S
C983 C981 1.382 . S
C983 C982 1.400 . S
C983 H1000 0.930 . S
C984 C982 1.384 . S
C984 C986 1.392 . S
C984 H1001 0.931 . S
C985 C981 1.393 . S
C985 C986 1.401 . S
C985 H1002 0.930 . S
C986 C984 1.392 . S
C986 C985 1.401 . S
C986 H1003 0.930 . S
C987 O970 1.262 . S
C987 O971 1.260 . S
C988 Tb924 2.833 . S
C988 O968 1.251 . S
C988 O973 1.256 . S
C988 C981 1.500 . S
C989 H954 0.929 . S
C989 C967 1.444 . S
C989 C990 1.317 . S
C990 H952 0.930 . S
C990 C958 1.432 . S
C990 C989 1.317 . S
C991 O975 1.283 . S
C991 O978 1.243 1_565 S
C992 C993 1.382 . S
C992 C996 1.393 . S
C992 C999 1.500 . S
C993 C992 1.382 . S
C993 C994 1.400 . S
C993 H1004 0.930 . S
C994 C993 1.400 . S
C994 C995 1.384 . S
C995 C994 1.384 . S
C995 C997 1.392 . S
C995 H1005 0.931 . S
C996 C992 1.393 . S
C996 C997 1.401 . S
C996 H1006 0.930 . S
C997 C995 1.392 . S
C997 C996 1.401 . S
C997 H1007 0.930 . S
C998 O976 1.262 . S
C998 O977 1.260 . S
C999 Tb935 2.833 1_545 S
C999 O974 1.251 . S
C999 O979 1.256 . S
C999 C992 1.500 . S
H1000 C983 0.930 . S
H1001 C984 0.931 . S
H1002 C985 0.930 . S
H1003 C986 0.930 . S
H1004 C993 0.930 . S
H1005 C995 0.931 . S
H1006 C996 0.930 . S
H1007 C997 0.930 . S
Tb1008 N1039 2.660 . S
Tb1008 N1046 2.600 . S
Tb1008 O1052 2.546 . S
Tb1008 O1053 2.610 . S
Tb1008 O1055 2.320 . S
Tb1008 O1056 2.552 . S
Tb1008 O1057 2.413 . S
Tb1008 O1059 2.362 . S
Tb1008 O1060 2.421 . S
Tb1008 C1072 2.833 . S
C1009 C1012 1.432 . S
C1009 C1013 1.401 1_554 S
C1009 N1016 1.359 1_554 S
C1010 C1012 1.417 . S
C1010 C1014 1.432 . S
C1010 C1022 1.410 . S
C1011 C1013 1.426 1_554 S
C1011 C1014 1.317 . S
C1011 H1034 0.929 . S
C1012 C1009 1.432 . S
C1012 C1010 1.417 . S
C1012 N1020 1.360 . S
C1013 C1009 1.401 1_556 S
C1013 C1011 1.426 1_556 S
C1013 C1018 1.417 . S
C1014 C1010 1.432 . S
C1014 C1011 1.317 . S
C1014 H1026 0.930 . S
C1015 C1017 1.392 . S
C1015 C1018 1.370 . S
C1015 H1027 0.931 . S
N1016 C1009 1.359 1_556 S
N1016 C1017 1.327 . S
N1016 Tb1019 2.600 1_556 S
C1017 C1015 1.392 . S
C1017 N1016 1.327 . S
C1017 H1024 0.930 . S
C1018 C1013 1.417 . S
C1018 C1015 1.370 . S
C1018 H1037 0.930 . S
Tb1019 N1016 2.600 1_554 S
Tb1019 N1020 2.660 . S
Tb1019 O1053 2.362 . S
Tb1019 O1054 2.421 . S
Tb1019 O1058 2.546 1_554 S
Tb1019 O1059 2.610 . S
Tb1019 O1061 2.320 . S
Tb1019 O1062 2.552 1_554 S
Tb1019 O1063 2.413 1_554 S
Tb1019 C1083 2.833 1_554 S
N1020 C1012 1.360 . S
N1020 Tb1019 2.660 . S
N1020 C1021 1.305 . S
C1021 N1020 1.305 . S
C1021 C1023 1.407 . S
C1021 H1028 0.930 . S
C1022 C1010 1.410 . S
C1022 C1023 1.345 . S
C1022 H1030 0.930 . S
C1023 C1021 1.407 . S
C1023 C1022 1.345 . S
C1023 H1025 0.930 . S
H1024 C1017 0.930 . S
H1025 C1023 0.930 . S
H1026 C1014 0.930 . S
H1027 C1015 0.931 . S
H1028 C1021 0.930 . S
H1029 C1043 0.930 1_556 S
H1030 C1022 0.930 . S
H1031 C1049 0.930 . S
H1032 C1040 0.930 . S
H1033 C1047 0.931 . S
H1034 C1011 0.929 . S
H1035 C1041 0.930 . S
H1036 C1074 0.930 . S
H1037 C1018 0.930 . S
H1038 C1073 0.929 . S
N1039 Tb1008 2.660 . S
N1039 C1040 1.305 . S
N1039 C1044 1.360 . S
C1040 H1032 0.930 . S
C1040 N1039 1.305 . S
C1040 C1043 1.407 . S
C1041 H1035 0.930 . S
C1041 C1042 1.410 . S
C1041 C1043 1.345 . S
C1042 C1041 1.410 . S
C1042 C1044 1.417 . S
C1042 C1074 1.432 . S
C1043 H1029 0.930 1_554 S
C1043 C1040 1.407 . S
C1043 C1041 1.345 . S
C1044 N1039 1.360 . S
C1044 C1042 1.417 . S
C1044 C1048 1.432 . S
H1045 C1050 0.930 . S
N1046 Tb1008 2.600 . S
N1046 C1048 1.359 . S
N1046 C1049 1.327 . S
C1047 H1033 0.931 . S
C1047 C1049 1.392 . S
C1047 C1050 1.370 . S
C1048 C1044 1.432 . S
C1048 N1046 1.359 . S
C1048 C1051 1.414 . S
C1049 H1031 0.930 . S
C1049 N1046 1.327 . S
C1049 C1047 1.392 . S
C1050 H1045 0.930 . S
C1050 C1047 1.370 . S
C1050 C1051 1.385 . S
C1051 C1048 1.414 . S
C1051 C1050 1.385 . S
C1051 C1073 1.444 . S
O1052 Tb1008 2.546 . S
O1052 C1072 1.251 . S
O1053 Tb1008 2.610 . S
O1053 Tb1019 2.362 . S
O1053 C1064 1.283 . S
O1054 Tb1019 2.421 . S
O1054 C1071 1.262 . S
O1055 Tb1008 2.320 . S
O1055 C1071 1.260 . S
O1056 Tb1008 2.552 . S
O1056 C1064 1.243 . S
O1057 Tb1008 2.413 . S
O1057 C1072 1.256 . S
O1058 Tb1019 2.546 1_556 S
O1058 C1083 1.251 . S
O1059 Tb1008 2.362 . S
O1059 Tb1019 2.610 . S
O1059 C1075 1.283 . S
O1060 Tb1008 2.421 . S
O1060 C1082 1.262 . S
O1061 Tb1019 2.320 . S
O1061 C1082 1.260 . S
O1062 Tb1019 2.552 1_556 S
O1062 C1075 1.243 1_556 S
O1063 Tb1019 2.413 1_556 S
O1063 C1083 1.256 . S
C1064 O1053 1.283 . S
C1064 O1056 1.243 . S
C1065 C1067 1.382 . S
C1065 C1069 1.393 . S
C1065 C1072 1.500 . S
C1066 C1067 1.400 . S
C1066 C1068 1.384 . S
C1067 C1065 1.382 . S
C1067 C1066 1.400 . S
C1067 H1084 0.930 . S
C1068 C1066 1.384 . S
C1068 C1070 1.392 . S
C1068 H1085 0.931 . S
C1069 C1065 1.393 . S
C1069 C1070 1.401 . S
C1069 H1086 0.930 . S
C1070 C1068 1.392 . S
C1070 C1069 1.401 . S
C1070 H1087 0.930 . S
C1071 O1054 1.262 . S
C1071 O1055 1.260 . S
C1072 Tb1008 2.833 . S
C1072 O1052 1.251 . S
C1072 O1057 1.256 . S
C1072 C1065 1.500 . S
C1073 H1038 0.929 . S
C1073 C1051 1.444 . S
C1073 C1074 1.317 . S
C1074 H1036 0.930 . S
C1074 C1042 1.432 . S
C1074 C1073 1.317 . S
C1075 O1059 1.283 . S
C1075 O1062 1.243 1_554 S
C1076 C1077 1.382 . S
C1076 C1080 1.393 . S
C1076 C1083 1.500 . S
C1077 C1076 1.382 . S
C1077 C1078 1.400 . S
C1077 H1088 0.930 . S
C1078 C1077 1.400 . S
C1078 C1079 1.384 . S
C1079 C1078 1.384 . S
C1079 C1081 1.392 . S
C1079 H1089 0.931 . S
C1080 C1076 1.393 . S
C1080 C1081 1.401 . S
C1080 H1090 0.930 . S
C1081 C1079 1.392 . S
C1081 C1080 1.401 . S
C1081 H1091 0.930 . S
C1082 O1060 1.262 . S
C1082 O1061 1.260 . S
C1083 Tb1019 2.833 1_556 S
C1083 O1058 1.251 . S
C1083 O1063 1.256 . S
C1083 C1076 1.500 . S
H1084 C1067 0.930 . S
H1085 C1068 0.931 . S
H1086 C1069 0.930 . S
H1087 C1070 0.930 . S
H1088 C1077 0.930 . S
H1089 C1079 0.931 . S
H1090 C1080 0.930 . S
H1091 C1081 0.930 . S
Tb1092 N1123 2.660 1_655 S
Tb1092 N1130 2.600 1_655 S
Tb1092 O1136 2.546 1_655 S
Tb1092 O1137 2.610 . S
Tb1092 O1139 2.320 1_655 S
Tb1092 O1140 2.552 . S
Tb1092 O1141 2.413 1_655 S
Tb1092 O1143 2.362 . S
Tb1092 O1144 2.421 . S
Tb1092 C1156 2.833 1_655 S
C1093 C1096 1.432 . S
C1093 C1097 1.414 . S
C1093 N1100 1.359 . S
C1094 C1096 1.417 . S
C1094 C1098 1.432 . S
C1094 C1106 1.410 . S
C1095 C1097 1.444 . S
C1095 C1098 1.317 . S
C1095 H1118 0.929 . S
C1096 C1093 1.432 . S
C1096 C1094 1.417 . S
C1096 N1104 1.360 . S
C1097 C1093 1.414 . S
C1097 C1095 1.444 . S
C1097 C1102 1.385 . S
C1098 C1094 1.432 . S
C1098 C1095 1.317 . S
C1098 H1110 0.930 . S
C1099 C1101 1.392 . S
C1099 C1102 1.370 . S
C1099 H1111 0.931 . S
N1100 C1093 1.359 . S
N1100 C1101 1.327 . S
N1100 Tb1103 2.600 . S
C1101 C1099 1.392 . S
C1101 N1100 1.327 . S
C1101 H1108 0.930 . S
C1102 C1097 1.385 . S
C1102 C1099 1.370 . S
C1102 H1121 0.930 . S
Tb1103 N1100 2.600 . S
Tb1103 N1104 2.660 . S
Tb1103 O1137 2.362 . S
Tb1103 O1138 2.421 . S
Tb1103 O1142 2.546 . S
Tb1103 O1143 2.610 . S
Tb1103 O1145 2.320 . S
Tb1103 O1146 2.552 . S
Tb1103 O1147 2.413 . S
Tb1103 C1167 2.833 . S
N1104 C1096 1.360 . S
N1104 Tb1103 2.660 . S
N1104 C1105 1.305 . S
C1105 N1104 1.305 . S
C1105 C1107 1.407 . S
C1105 H1112 0.930 . S
C1106 C1094 1.410 . S
C1106 C1107 1.345 . S
C1106 H1114 0.930 . S
C1107 C1105 1.407 . S
C1107 C1106 1.345 . S
C1107 H1109 0.930 . S
H1108 C1101 0.930 . S
H1109 C1107 0.930 . S
H1110 C1098 0.930 . S
H1111 C1099 0.931 . S
H1112 C1105 0.930 . S
H1113 C1127 0.930 . S
H1114 C1106 0.930 . S
H1115 C1133 0.930 . S
H1116 C1124 0.930 . S
H1117 C1131 0.931 1_655 S
H1118 C1095 0.929 . S
H1119 C1125 0.930 . S
H1120 C1158 0.930 . S
H1121 C1102 0.930 . S
H1122 C1157 0.929 . S
N1123 Tb1092 2.660 1_455 S
N1123 C1124 1.305 . S
N1123 C1128 1.360 . S
C1124 H1116 0.930 . S
C1124 N1123 1.305 . S
C1124 C1127 1.407 . S
C1125 H1119 0.930 . S
C1125 C1126 1.410 . S
C1125 C1127 1.345 . S
C1126 C1125 1.410 . S
C1126 C1128 1.417 . S
C1126 C1158 1.432 . S
C1127 H1113 0.930 . S
C1127 C1124 1.407 . S
C1127 C1125 1.345 . S
C1128 N1123 1.360 . S
C1128 C1126 1.417 . S
C1128 C1132 1.432 . S
H1129 C1134 0.930 . S
N1130 Tb1092 2.600 1_455 S
N1130 C1132 1.359 . S
N1130 C1133 1.327 1_455 S
C1131 H1117 0.931 1_455 S
C1131 C1133 1.392 1_455 S
C1131 C1134 1.370 . S
C1132 C1128 1.432 . S
C1132 N1130 1.359 . S
C1132 C1135 1.414 . S
C1133 H1115 0.930 . S
C1133 N1130 1.327 1_655 S
C1133 C1131 1.392 1_655 S
C1134 H1129 0.930 . S
C1134 C1131 1.370 . S
C1134 C1135 1.385 . S
C1135 C1132 1.414 . S
C1135 C1134 1.385 . S
C1135 C1157 1.444 . S
O1136 Tb1092 2.546 1_455 S
O1136 C1156 1.251 . S
O1137 Tb1092 2.610 . S
O1137 Tb1103 2.362 . S
O1137 C1148 1.283 . S
O1138 Tb1103 2.421 . S
O1138 C1155 1.262 . S
O1139 Tb1092 2.320 1_455 S
O1139 C1155 1.260 1_455 S
O1140 Tb1092 2.552 . S
O1140 C1148 1.243 . S
O1141 Tb1092 2.413 1_455 S
O1141 C1156 1.256 . S
O1142 Tb1103 2.546 . S
O1142 C1167 1.251 . S
O1143 Tb1092 2.362 . S
O1143 Tb1103 2.610 . S
O1143 C1159 1.283 . S
O1144 Tb1092 2.421 . S
O1144 C1166 1.262 . S
O1145 Tb1103 2.320 . S
O1145 C1166 1.260 . S
O1146 Tb1103 2.552 . S
O1146 C1159 1.243 . S
O1147 Tb1103 2.413 . S
O1147 C1167 1.256 . S
C1148 O1137 1.283 . S
C1148 O1140 1.243 . S
C1149 C1151 1.382 . S
C1149 C1153 1.393 . S
C1149 C1156 1.500 . S
C1150 C1151 1.400 . S
C1150 C1152 1.384 . S
C1151 C1149 1.382 . S
C1151 C1150 1.400 . S
C1151 H1168 0.930 . S
C1152 C1150 1.384 . S
C1152 C1154 1.392 . S
C1152 H1169 0.931 . S
C1153 C1149 1.393 . S
C1153 C1154 1.401 . S
C1153 H1170 0.930 . S
C1154 C1152 1.392 . S
C1154 C1153 1.401 . S
C1154 H1171 0.930 . S
C1155 O1138 1.262 . S
C1155 O1139 1.260 1_655 S
C1156 Tb1092 2.833 1_455 S
C1156 O1136 1.251 . S
C1156 O1141 1.256 . S
C1156 C1149 1.500 . S
C1157 H1122 0.929 . S
C1157 C1135 1.444 . S
C1157 C1158 1.317 . S
C1158 H1120 0.930 . S
C1158 C1126 1.432 . S
C1158 C1157 1.317 . S
C1159 O1143 1.283 . S
C1159 O1146 1.243 . S
C1160 C1161 1.382 . S
C1160 C1164 1.393 . S
C1160 C1167 1.500 . S
C1161 C1160 1.382 . S
C1161 C1162 1.400 . S
C1161 H1172 0.930 . S
C1162 C1161 1.400 . S
C1162 C1163 1.384 . S
C1163 C1162 1.384 . S
C1163 C1165 1.392 . S
C1163 H1173 0.931 . S
C1164 C1160 1.393 . S
C1164 C1165 1.401 . S
C1164 H1174 0.930 . S
C1165 C1163 1.392 . S
C1165 C1164 1.401 . S
C1165 H1175 0.930 . S
C1166 O1144 1.262 . S
C1166 O1145 1.260 . S
C1167 Tb1103 2.833 . S
C1167 O1142 1.251 . S
C1167 O1147 1.256 . S
C1167 C1160 1.500 . S
H1168 C1151 0.930 . S
H1169 C1152 0.931 . S
H1170 C1153 0.930 . S
H1171 C1154 0.930 . S
H1172 C1161 0.930 . S
H1173 C1163 0.931 . S
H1174 C1164 0.930 . S
H1175 C1165 0.930 . S
Tb1176 N1207 2.660 . S
Tb1176 N1214 2.600 . S
Tb1176 O1220 2.546 . S
Tb1176 O1221 2.610 . S
Tb1176 O1223 2.320 . S
Tb1176 O1224 2.552 . S
Tb1176 O1225 2.413 . S
Tb1176 O1227 2.362 . S
Tb1176 O1228 2.421 . S
Tb1176 C1240 2.833 . S
C1177 C1180 1.432 . S
C1177 C1181 1.414 . S
C1177 N1184 1.359 . S
C1178 C1180 1.417 . S
C1178 C1182 1.432 . S
C1178 C1190 1.410 . S
C1179 C1181 1.444 . S
C1179 C1182 1.317 . S
C1179 H1202 0.929 . S
C1180 C1177 1.432 . S
C1180 C1178 1.417 . S
C1180 N1188 1.360 . S
C1181 C1177 1.414 . S
C1181 C1179 1.444 . S
C1181 C1186 1.385 . S
C1182 C1178 1.432 . S
C1182 C1179 1.317 . S
C1182 H1194 0.930 . S
C1183 C1185 1.392 . S
C1183 C1186 1.370 . S
C1183 H1195 0.931 . S
N1184 C1177 1.359 . S
N1184 C1185 1.327 . S
N1184 Tb1187 2.600 . S
C1185 C1183 1.392 . S
C1185 N1184 1.327 . S
C1185 H1192 0.930 . S
C1186 C1181 1.385 . S
C1186 C1183 1.370 . S
C1186 H1205 0.930 . S
Tb1187 N1184 2.600 . S
Tb1187 N1188 2.660 . S
Tb1187 O1221 2.362 . S
Tb1187 O1222 2.421 . S
Tb1187 O1226 2.546 . S
Tb1187 O1227 2.610 . S
Tb1187 O1229 2.320 . S
Tb1187 O1230 2.552 . S
Tb1187 O1231 2.413 . S
Tb1187 C1251 2.833 . S
N1188 C1180 1.360 . S
N1188 Tb1187 2.660 . S
N1188 C1189 1.305 . S
C1189 N1188 1.305 . S
C1189 C1191 1.407 . S
C1189 H1196 0.930 . S
C1190 C1178 1.410 . S
C1190 C1191 1.345 . S
C1190 H1198 0.930 . S
C1191 C1189 1.407 . S
C1191 C1190 1.345 . S
C1191 H1193 0.930 . S
H1192 C1185 0.930 . S
H1193 C1191 0.930 . S
H1194 C1182 0.930 . S
H1195 C1183 0.931 . S
H1196 C1189 0.930 . S
H1197 C1211 0.930 . S
H1198 C1190 0.930 . S
H1199 C1217 0.930 . S
H1200 C1208 0.930 . S
H1201 C1215 0.931 . S
H1202 C1179 0.929 . S
H1203 C1209 0.930 . S
H1204 C1242 0.930 . S
H1205 C1186 0.930 . S
H1206 C1241 0.929 . S
N1207 Tb1176 2.660 . S
N1207 C1208 1.305 . S
N1207 C1212 1.360 . S
C1208 H1200 0.930 . S
C1208 N1207 1.305 . S
C1208 C1211 1.407 . S
C1209 H1203 0.930 . S
C1209 C1210 1.410 . S
C1209 C1211 1.345 . S
C1210 C1209 1.410 . S
C1210 C1212 1.417 . S
C1210 C1242 1.432 . S
C1211 H1197 0.930 . S
C1211 C1208 1.407 . S
C1211 C1209 1.345 . S
C1212 N1207 1.360 . S
C1212 C1210 1.417 . S
C1212 C1216 1.432 . S
H1213 C1218 0.930 . S
N1214 Tb1176 2.600 . S
N1214 C1216 1.359 . S
N1214 C1217 1.327 . S
C1215 H1201 0.931 . S
C1215 C1217 1.392 . S
C1215 C1218 1.370 . S
C1216 C1212 1.432 . S
C1216 N1214 1.359 . S
C1216 C1219 1.414 . S
C1217 H1199 0.930 . S
C1217 N1214 1.327 . S
C1217 C1215 1.392 . S
C1218 H1213 0.930 . S
C1218 C1215 1.370 . S
C1218 C1219 1.385 . S
C1219 C1216 1.414 . S
C1219 C1218 1.385 . S
C1219 C1241 1.444 . S
O1220 Tb1176 2.546 . S
O1220 C1240 1.251 . S
O1221 Tb1176 2.610 . S
O1221 Tb1187 2.362 . S
O1221 C1232 1.283 . S
O1222 Tb1187 2.421 . S
O1222 C1239 1.262 . S
O1223 Tb1176 2.320 . S
O1223 C1239 1.260 . S
O1224 Tb1176 2.552 . S
O1224 C1232 1.243 . S
O1225 Tb1176 2.413 . S
O1225 C1240 1.256 . S
O1226 Tb1187 2.546 . S
O1226 C1251 1.251 . S
O1227 Tb1176 2.362 . S
O1227 Tb1187 2.610 . S
O1227 C1243 1.283 . S
O1228 Tb1176 2.421 . S
O1228 C1250 1.262 . S
O1229 Tb1187 2.320 . S
O1229 C1250 1.260 . S
O1230 Tb1187 2.552 . S
O1230 C1243 1.243 . S
O1231 Tb1187 2.413 . S
O1231 C1251 1.256 . S
C1232 O1221 1.283 . S
C1232 O1224 1.243 . S
C1233 C1235 1.382 . S
C1233 C1237 1.393 . S
C1233 C1240 1.500 . S
C1234 C1235 1.400 . S
C1234 C1236 1.384 . S
C1235 C1233 1.382 . S
C1235 C1234 1.400 . S
C1235 H1252 0.930 . S
C1236 C1234 1.384 . S
C1236 C1238 1.392 . S
C1236 H1253 0.931 . S
C1237 C1233 1.393 . S
C1237 C1238 1.401 . S
C1237 H1254 0.930 . S
C1238 C1236 1.392 . S
C1238 C1237 1.401 . S
C1238 H1255 0.930 . S
C1239 O1222 1.262 . S
C1239 O1223 1.260 . S
C1240 Tb1176 2.833 . S
C1240 O1220 1.251 . S
C1240 O1225 1.256 . S
C1240 C1233 1.500 . S
C1241 H1206 0.929 . S
C1241 C1219 1.444 . S
C1241 C1242 1.317 . S
C1242 H1204 0.930 . S
C1242 C1210 1.432 . S
C1242 C1241 1.317 . S
C1243 O1227 1.283 . S
C1243 O1230 1.243 . S
C1244 C1245 1.382 . S
C1244 C1248 1.393 . S
C1244 C1251 1.500 . S
C1245 C1244 1.382 . S
C1245 C1246 1.400 . S
C1245 H1256 0.930 . S
C1246 C1245 1.400 . S
C1246 C1247 1.384 . S
C1247 C1246 1.384 . S
C1247 C1249 1.392 . S
C1247 H1257 0.931 . S
C1248 C1244 1.393 . S
C1248 C1249 1.401 . S
C1248 H1258 0.930 . S
C1249 C1247 1.392 . S
C1249 C1248 1.401 . S
C1249 H1259 0.930 . S
C1250 O1228 1.262 . S
C1250 O1229 1.260 . S
C1251 Tb1187 2.833 . S
C1251 O1226 1.251 . S
C1251 O1231 1.256 . S
C1251 C1244 1.500 . S
H1252 C1235 0.930 . S
H1253 C1236 0.931 . S
H1254 C1237 0.930 . S
H1255 C1238 0.930 . S
H1256 C1245 0.930 . S
H1257 C1247 0.931 . S
H1258 C1248 0.930 . S
H1259 C1249 0.930 . S
Tb1260 N1291 2.660 . S
Tb1260 N1298 2.600 . S
Tb1260 O1304 2.546 . S
Tb1260 O1305 2.610 . S
Tb1260 O1307 2.320 . S
Tb1260 O1308 2.552 . S
Tb1260 O1309 2.413 . S
Tb1260 O1311 2.362 . S
Tb1260 O1312 2.421 . S
Tb1260 C1324 2.833 . S
C1261 C1264 1.432 . S
C1261 C1265 1.414 . S
C1261 N1268 1.359 . S
C1262 C1264 1.417 . S
C1262 C1266 1.432 . S
C1262 C1274 1.410 . S
C1263 C1265 1.444 . S
C1263 C1266 1.317 . S
C1263 H1286 0.929 . S
C1264 C1261 1.432 . S
C1264 C1262 1.417 . S
C1264 N1272 1.360 . S
C1265 C1261 1.414 . S
C1265 C1263 1.444 . S
C1265 C1270 1.385 . S
C1266 C1262 1.432 . S
C1266 C1263 1.317 . S
C1266 H1278 0.930 . S
C1267 C1269 1.408 . S
C1267 C1270 1.335 1_655 S
C1267 H1279 0.951 . S
N1268 C1261 1.359 . S
N1268 C1269 1.327 1_455 S
N1268 Tb1271 2.600 1_455 S
C1269 C1267 1.408 . S
C1269 N1268 1.327 1_655 S
C1269 H1276 0.930 . S
C1270 C1265 1.385 . S
C1270 C1267 1.335 1_455 S
C1270 H1289 0.930 . S
Tb1271 N1268 2.600 1_655 S
Tb1271 N1272 2.660 1_655 S
Tb1271 O1305 2.362 . S
Tb1271 O1306 2.421 . S
Tb1271 O1310 2.549 . S
Tb1271 O1311 2.610 . S
Tb1271 O1313 2.327 . S
Tb1271 O1314 2.552 . S
Tb1271 O1315 2.413 1_655 S
Tb1271 C1335 2.833 1_655 S
N1272 C1264 1.360 . S
N1272 Tb1271 2.660 1_455 S
N1272 C1273 1.305 . S
C1273 N1272 1.305 . S
C1273 C1275 1.407 . S
C1273 H1280 0.930 . S
C1274 C1262 1.410 . S
C1274 C1275 1.345 . S
C1274 H1282 0.930 . S
C1275 C1273 1.407 . S
C1275 C1274 1.345 . S
C1275 H1277 0.930 . S
H1276 C1269 0.930 . S
H1277 C1275 0.930 . S
H1278 C1266 0.930 . S
H1279 C1267 0.951 . S
H1280 C1273 0.930 . S
H1281 C1295 0.930 . S
H1282 C1274 0.930 . S
H1283 C1301 0.930 . S
H1284 C1292 0.930 . S
H1285 C1299 0.931 . S
H1286 C1263 0.929 . S
H1287 C1293 0.930 . S
H1288 C1326 0.930 . S
H1289 C1270 0.930 . S
H1290 C1325 0.929 . S
N1291 Tb1260 2.660 . S
N1291 C1292 1.305 . S
N1291 C1296 1.360 . S
C1292 H1284 0.930 . S
C1292 N1291 1.305 . S
C1292 C1295 1.407 . S
C1293 H1287 0.930 . S
C1293 C1294 1.410 . S
C1293 C1295 1.345 . S
C1294 C1293 1.410 . S
C1294 C1296 1.417 . S
C1294 C1326 1.432 . S
C1295 H1281 0.930 . S
C1295 C1292 1.407 . S
C1295 C1293 1.345 . S
C1296 N1291 1.360 . S
C1296 C1294 1.417 . S
C1296 C1300 1.432 . S
H1297 C1302 0.930 . S
N1298 Tb1260 2.600 . S
N1298 C1300 1.359 . S
N1298 C1301 1.327 . S
C1299 H1285 0.931 . S
C1299 C1301 1.392 . S
C1299 C1302 1.370 . S
C1300 C1296 1.432 . S
C1300 N1298 1.359 . S
C1300 C1303 1.414 . S
C1301 H1283 0.930 . S
C1301 N1298 1.327 . S
C1301 C1299 1.392 . S
C1302 H1297 0.930 . S
C1302 C1299 1.370 . S
C1302 C1303 1.385 . S
C1303 C1300 1.414 . S
C1303 C1302 1.385 . S
C1303 C1325 1.444 . S
O1304 Tb1260 2.546 . S
O1304 C1324 1.251 . S
O1305 Tb1260 2.610 . S
O1305 Tb1271 2.362 . S
O1305 C1316 1.283 . S
O1306 Tb1271 2.421 . S
O1306 C1323 1.262 . S
O1307 Tb1260 2.320 . S
O1307 C1323 1.260 . S
O1308 Tb1260 2.552 . S
O1308 C1316 1.243 . S
O1309 Tb1260 2.413 . S
O1309 C1324 1.256 . S
O1310 Tb1271 2.549 . S
O1310 C1335 1.241 1_655 S
O1311 Tb1260 2.362 . S
O1311 Tb1271 2.610 . S
O1311 C1327 1.283 . S
O1312 Tb1260 2.421 . S
O1312 C1334 1.262 . S
O1313 Tb1271 2.327 . S
O1313 C1334 1.268 . S
O1314 Tb1271 2.552 . S
O1314 C1327 1.243 . S
O1315 Tb1271 2.413 1_455 S
O1315 C1335 1.256 . S
C1316 O1305 1.283 . S
C1316 O1308 1.243 . S
C1317 C1319 1.382 . S
C1317 C1321 1.393 . S
C1317 C1324 1.500 . S
C1318 C1319 1.400 . S
C1318 C1320 1.384 . S
C1319 C1317 1.382 . S
C1319 C1318 1.400 . S
C1319 H1336 0.930 . S
C1320 C1318 1.384 . S
C1320 C1322 1.392 . S
C1320 H1337 0.931 . S
C1321 C1317 1.393 . S
C1321 C1322 1.401 . S
C1321 H1338 0.930 . S
C1322 C1320 1.392 . S
C1322 C1321 1.401 . S
C1322 H1339 0.930 . S
C1323 O1306 1.262 . S
C1323 O1307 1.260 . S
C1324 Tb1260 2.833 . S
C1324 O1304 1.251 . S
C1324 O1309 1.256 . S
C1324 C1317 1.500 . S
C1325 H1290 0.929 . S
C1325 C1303 1.444 . S
C1325 C1326 1.317 . S
C1326 H1288 0.930 . S
C1326 C1294 1.432 . S
C1326 C1325 1.317 . S
C1327 O1311 1.283 . S
C1327 O1314 1.243 . S
C1328 C1329 1.382 . S
C1328 C1332 1.393 . S
C1328 C1335 1.500 . S
C1329 C1328 1.382 . S
C1329 C1330 1.400 . S
C1329 H1340 0.930 . S
C1330 C1329 1.400 . S
C1330 C1331 1.384 . S
C1331 C1330 1.384 . S
C1331 C1333 1.392 . S
C1331 H1341 0.931 . S
C1332 C1328 1.393 . S
C1332 C1333 1.401 . S
C1332 H1342 0.930 . S
C1333 C1331 1.392 . S
C1333 C1332 1.401 . S
C1333 H1343 0.930 . S
C1334 O1312 1.262 . S
C1334 O1313 1.268 . S
C1335 Tb1271 2.833 1_455 S
C1335 O1310 1.241 1_455 S
C1335 O1315 1.256 . S
C1335 C1328 1.500 . S
H1336 C1319 0.930 . S
H1337 C1320 0.931 . S
H1338 C1321 0.930 . S
H1339 C1322 0.930 . S
H1340 C1329 0.930 . S
H1341 C1331 0.931 . S
H1342 C1332 0.930 . S
H1343 C1333 0.930 . S
Tb1344 N1375 2.660 . S
Tb1344 N1382 2.600 . S
Tb1344 O1388 2.546 . S
Tb1344 O1389 2.610 . S
Tb1344 O1391 2.320 . S
Tb1344 O1392 2.552 . S
Tb1344 O1393 2.413 . S
Tb1344 O1395 2.362 . S
Tb1344 O1396 2.421 . S
Tb1344 C1408 2.833 . S
C1345 C1348 1.432 . S
C1345 C1349 1.414 . S
C1345 N1352 1.359 . S
C1346 C1348 1.417 . S
C1346 C1350 1.432 . S
C1346 C1358 1.410 . S
C1347 C1349 1.444 . S
C1347 C1350 1.317 . S
C1347 H1370 0.929 . S
C1348 C1345 1.432 . S
C1348 C1346 1.417 . S
C1348 N1356 1.360 . S
C1349 C1345 1.414 . S
C1349 C1347 1.444 . S
C1349 C1354 1.385 . S
C1350 C1346 1.432 . S
C1350 C1347 1.317 . S
C1350 H1362 0.930 . S
C1351 C1353 1.392 . S
C1351 C1354 1.370 . S
C1351 H1363 0.931 . S
N1352 C1345 1.359 . S
N1352 C1353 1.327 . S
N1352 Tb1355 2.600 . S
C1353 C1351 1.392 . S
C1353 N1352 1.327 . S
C1353 H1360 0.930 . S
C1354 C1349 1.385 . S
C1354 C1351 1.370 . S
C1354 H1373 0.930 . S
Tb1355 N1352 2.600 . S
Tb1355 N1356 2.660 . S
Tb1355 O1389 2.362 . S
Tb1355 O1390 2.421 . S
Tb1355 O1394 2.546 . S
Tb1355 O1395 2.610 . S
Tb1355 O1397 2.320 . S
Tb1355 O1398 2.552 . S
Tb1355 O1399 2.413 . S
Tb1355 C1419 2.833 . S
N1356 C1348 1.360 . S
N1356 Tb1355 2.660 . S
N1356 C1357 1.305 . S
C1357 N1356 1.305 . S
C1357 C1359 1.407 . S
C1357 H1364 0.930 . S
C1358 C1346 1.410 . S
C1358 C1359 1.345 . S
C1358 H1366 0.930 . S
C1359 C1357 1.407 . S
C1359 C1358 1.345 . S
C1359 H1361 0.930 . S
H1360 C1353 0.930 . S
H1361 C1359 0.930 . S
H1362 C1350 0.930 . S
H1363 C1351 0.931 . S
H1364 C1357 0.930 . S
H1365 C1379 0.930 . S
H1366 C1358 0.930 . S
H1367 C1385 0.930 . S
H1368 C1376 0.930 . S
H1369 C1383 0.931 . S
H1370 C1347 0.929 . S
H1371 C1377 0.930 . S
H1372 C1410 0.930 . S
H1373 C1354 0.930 . S
H1374 C1409 0.929 . S
N1375 Tb1344 2.660 . S
N1375 C1376 1.305 . S
N1375 C1380 1.360 . S
C1376 H1368 0.930 . S
C1376 N1375 1.305 . S
C1376 C1379 1.407 . S
C1377 H1371 0.930 . S
C1377 C1378 1.410 . S
C1377 C1379 1.345 . S
C1378 C1377 1.410 . S
C1378 C1380 1.417 . S
C1378 C1410 1.432 . S
C1379 H1365 0.930 . S
C1379 C1376 1.407 . S
C1379 C1377 1.345 . S
C1380 N1375 1.360 . S
C1380 C1378 1.417 . S
C1380 C1384 1.432 . S
H1381 C1386 0.930 . S
N1382 Tb1344 2.600 . S
N1382 C1384 1.359 . S
N1382 C1385 1.327 . S
C1383 H1369 0.931 . S
C1383 C1385 1.392 . S
C1383 C1386 1.370 . S
C1384 C1380 1.432 . S
C1384 N1382 1.359 . S
C1384 C1387 1.414 . S
C1385 H1367 0.930 . S
C1385 N1382 1.327 . S
C1385 C1383 1.392 . S
C1386 H1381 0.930 . S
C1386 C1383 1.370 . S
C1386 C1387 1.385 . S
C1387 C1384 1.414 . S
C1387 C1386 1.385 . S
C1387 C1409 1.444 . S
O1388 Tb1344 2.546 . S
O1388 C1408 1.251 . S
O1389 Tb1344 2.610 . S
O1389 Tb1355 2.362 . S
O1389 C1400 1.283 . S
O1390 Tb1355 2.421 . S
O1390 C1407 1.262 . S
O1391 Tb1344 2.320 . S
O1391 C1407 1.260 . S
O1392 Tb1344 2.552 . S
O1392 C1400 1.243 . S
O1393 Tb1344 2.413 . S
O1393 C1408 1.256 . S
O1394 Tb1355 2.546 . S
O1394 C1419 1.251 . S
O1395 Tb1344 2.362 . S
O1395 Tb1355 2.610 . S
O1395 C1411 1.283 . S
O1396 Tb1344 2.421 . S
O1396 C1418 1.262 . S
O1397 Tb1355 2.320 . S
O1397 C1418 1.260 . S
O1398 Tb1355 2.552 . S
O1398 C1411 1.243 . S
O1399 Tb1355 2.413 . S
O1399 C1419 1.256 . S
C1400 O1389 1.283 . S
C1400 O1392 1.243 . S
C1401 C1403 1.382 . S
C1401 C1405 1.393 . S
C1401 C1408 1.500 . S
C1402 C1403 1.400 . S
C1402 C1404 1.384 . S
C1403 C1401 1.382 . S
C1403 C1402 1.400 . S
C1403 H1420 0.930 . S
C1404 C1402 1.384 . S
C1404 C1406 1.392 . S
C1404 H1421 0.931 . S
C1405 C1401 1.393 . S
C1405 C1406 1.401 . S
C1405 H1422 0.930 . S
C1406 C1404 1.392 . S
C1406 C1405 1.401 . S
C1406 H1423 0.930 . S
C1407 O1390 1.262 . S
C1407 O1391 1.260 . S
C1408 Tb1344 2.833 . S
C1408 O1388 1.251 . S
C1408 O1393 1.256 . S
C1408 C1401 1.500 . S
C1409 H1374 0.929 . S
C1409 C1387 1.444 . S
C1409 C1410 1.317 . S
C1410 H1372 0.930 . S
C1410 C1378 1.432 . S
C1410 C1409 1.317 . S
C1411 O1395 1.283 . S
C1411 O1398 1.243 . S
C1412 C1413 1.382 . S
C1412 C1416 1.393 . S
C1412 C1419 1.500 . S
C1413 C1412 1.382 . S
C1413 C1414 1.400 . S
C1413 H1424 0.930 . S
C1414 C1413 1.400 . S
C1414 C1415 1.384 . S
C1415 C1414 1.384 . S
C1415 C1417 1.392 . S
C1415 H1425 0.931 . S
C1416 C1412 1.393 . S
C1416 C1417 1.401 . S
C1416 H1426 0.930 . S
C1417 C1415 1.392 . S
C1417 C1416 1.401 . S
C1417 H1427 0.930 . S
C1418 O1396 1.262 . S
C1418 O1397 1.260 . S
C1419 Tb1355 2.833 . S
C1419 O1394 1.251 . S
C1419 O1399 1.256 . S
C1419 C1412 1.500 . S
H1420 C1403 0.930 . S
H1421 C1404 0.931 . S
H1422 C1405 0.930 . S
H1423 C1406 0.930 . S
H1424 C1413 0.930 . S
H1425 C1415 0.931 . S
H1426 C1416 0.930 . S
H1427 C1417 0.930 . S
Tb1428 N1459 2.660 . S
Tb1428 N1466 2.600 . S
Tb1428 O1472 2.546 . S
Tb1428 O1473 2.610 . S
Tb1428 O1475 2.320 . S
Tb1428 O1476 2.552 . S
Tb1428 O1477 2.413 . S
Tb1428 O1479 2.362 . S
Tb1428 O1480 2.421 . S
Tb1428 C1492 2.833 . S
C1429 C1432 1.432 . S
C1429 C1433 1.414 . S
C1429 N1436 1.359 . S
C1430 C1432 1.417 . S
C1430 C1434 1.432 . S
C1430 C1442 1.410 . S
C1431 C1433 1.444 . S
C1431 C1434 1.317 . S
C1431 H1454 0.929 . S
C1432 C1429 1.432 . S
C1432 C1430 1.417 . S
C1432 N1440 1.360 . S
C1433 C1429 1.414 . S
C1433 C1431 1.444 . S
C1433 C1438 1.385 . S
C1434 C1430 1.432 . S
C1434 C1431 1.317 . S
C1434 H1446 0.930 . S
C1435 C1437 1.392 . S
C1435 C1438 1.370 . S
C1435 H1447 0.931 . S
N1436 C1429 1.359 . S
N1436 C1437 1.327 . S
N1436 Tb1439 2.600 . S
C1437 C1435 1.392 . S
C1437 N1436 1.327 . S
C1437 H1444 0.930 . S
C1438 C1433 1.385 . S
C1438 C1435 1.370 . S
C1438 H1457 0.930 . S
Tb1439 N1436 2.600 . S
Tb1439 N1440 2.660 . S
Tb1439 O1473 2.362 . S
Tb1439 O1474 2.421 . S
Tb1439 O1478 2.546 . S
Tb1439 O1479 2.610 . S
Tb1439 O1481 2.320 . S
Tb1439 O1482 2.552 . S
Tb1439 O1483 2.413 . S
Tb1439 C1503 2.833 . S
N1440 C1432 1.360 . S
N1440 Tb1439 2.660 . S
N1440 C1441 1.305 . S
C1441 N1440 1.305 . S
C1441 C1443 1.407 . S
C1441 H1448 0.930 . S
C1442 C1430 1.410 . S
C1442 C1443 1.345 . S
C1442 H1450 0.930 . S
C1443 C1441 1.407 . S
C1443 C1442 1.345 . S
C1443 H1445 0.930 . S
H1444 C1437 0.930 . S
H1445 C1443 0.930 . S
H1446 C1434 0.930 . S
H1447 C1435 0.931 . S
H1448 C1441 0.930 . S
H1449 C1463 0.930 . S
H1450 C1442 0.930 . S
H1451 C1469 0.930 . S
H1452 C1460 0.930 . S
H1453 C1467 0.931 . S
H1454 C1431 0.929 . S
H1455 C1461 0.930 . S
H1456 C1494 0.930 . S
H1457 C1438 0.930 . S
H1458 C1493 0.929 . S
N1459 Tb1428 2.660 . S
N1459 C1460 1.305 . S
N1459 C1464 1.360 . S
C1460 H1452 0.930 . S
C1460 N1459 1.305 . S
C1460 C1463 1.407 . S
C1461 H1455 0.930 . S
C1461 C1462 1.410 . S
C1461 C1463 1.345 . S
C1462 C1461 1.410 . S
C1462 C1464 1.417 . S
C1462 C1494 1.432 . S
C1463 H1449 0.930 . S
C1463 C1460 1.407 . S
C1463 C1461 1.345 . S
C1464 N1459 1.360 . S
C1464 C1462 1.417 . S
C1464 C1468 1.432 . S
H1465 C1470 0.930 . S
N1466 Tb1428 2.600 . S
N1466 C1468 1.359 . S
N1466 C1469 1.327 . S
C1467 H1453 0.931 . S
C1467 C1469 1.392 . S
C1467 C1470 1.370 . S
C1468 C1464 1.432 . S
C1468 N1466 1.359 . S
C1468 C1471 1.414 . S
C1469 H1451 0.930 . S
C1469 N1466 1.327 . S
C1469 C1467 1.392 . S
C1470 H1465 0.930 . S
C1470 C1467 1.370 . S
C1470 C1471 1.385 . S
C1471 C1468 1.414 . S
C1471 C1470 1.385 . S
C1471 C1493 1.444 . S
O1472 Tb1428 2.546 . S
O1472 C1492 1.251 . S
O1473 Tb1428 2.610 . S
O1473 Tb1439 2.362 . S
O1473 C1484 1.283 . S
O1474 Tb1439 2.421 . S
O1474 C1491 1.262 . S
O1475 Tb1428 2.320 . S
O1475 C1491 1.260 . S
O1476 Tb1428 2.552 . S
O1476 C1484 1.243 . S
O1477 Tb1428 2.413 . S
O1477 C1492 1.256 . S
O1478 Tb1439 2.546 . S
O1478 C1503 1.251 . S
O1479 Tb1428 2.362 . S
O1479 Tb1439 2.610 . S
O1479 C1495 1.283 . S
O1480 Tb1428 2.421 . S
O1480 C1502 1.262 . S
O1481 Tb1439 2.320 . S
O1481 C1502 1.260 . S
O1482 Tb1439 2.552 . S
O1482 C1495 1.243 . S
O1483 Tb1439 2.413 . S
O1483 C1503 1.256 . S
C1484 O1473 1.283 . S
C1484 O1476 1.243 . S
C1485 C1487 1.382 . S
C1485 C1489 1.393 . S
C1485 C1492 1.500 . S
C1486 C1487 1.400 . S
C1486 C1488 1.384 . S
C1487 C1485 1.382 . S
C1487 C1486 1.400 . S
C1487 H1504 0.930 . S
C1488 C1486 1.384 . S
C1488 C1490 1.392 . S
C1488 H1505 0.931 . S
C1489 C1485 1.393 . S
C1489 C1490 1.401 . S
C1489 H1506 0.930 . S
C1490 C1488 1.392 . S
C1490 C1489 1.401 . S
C1490 H1507 0.930 . S
C1491 O1474 1.262 . S
C1491 O1475 1.260 . S
C1492 Tb1428 2.833 . S
C1492 O1472 1.251 . S
C1492 O1477 1.256 . S
C1492 C1485 1.500 . S
C1493 H1458 0.929 . S
C1493 C1471 1.444 . S
C1493 C1494 1.317 . S
C1494 H1456 0.930 . S
C1494 C1462 1.432 . S
C1494 C1493 1.317 . S
C1495 O1479 1.283 . S
C1495 O1482 1.243 . S
C1496 C1497 1.382 . S
C1496 C1500 1.393 . S
C1496 C1503 1.500 . S
C1497 C1496 1.382 . S
C1497 C1498 1.400 . S
C1497 H1508 0.930 . S
C1498 C1497 1.400 . S
C1498 C1499 1.384 . S
C1499 C1498 1.384 . S
C1499 C1501 1.392 . S
C1499 H1509 0.931 . S
C1500 C1496 1.393 . S
C1500 C1501 1.401 . S
C1500 H1510 0.930 . S
C1501 C1499 1.392 . S
C1501 C1500 1.401 . S
C1501 H1511 0.930 . S
C1502 O1480 1.262 . S
C1502 O1481 1.260 . S
C1503 Tb1439 2.833 . S
C1503 O1478 1.251 . S
C1503 O1483 1.256 . S
C1503 C1496 1.500 . S
H1504 C1487 0.930 . S
H1505 C1488 0.931 . S
H1506 C1489 0.930 . S
H1507 C1490 0.930 . S
H1508 C1497 0.930 . S
H1509 C1499 0.931 . S
H1510 C1500 0.930 . S
H1511 C1501 0.930 . S
Tb1512 N1543 2.660 . S
Tb1512 N1550 2.600 1_556 S
Tb1512 O1556 2.546 1_556 S
Tb1512 O1557 2.610 . S
Tb1512 O1559 2.320 . S
Tb1512 O1560 2.552 1_556 S
Tb1512 O1561 2.413 1_556 S
Tb1512 O1563 2.362 . S
Tb1512 O1564 2.430 . S
Tb1512 C1576 2.833 1_556 S
C1513 C1516 1.432 . S
C1513 C1517 1.414 . S
C1513 N1520 1.359 . S
C1514 C1516 1.417 . S
C1514 C1518 1.432 . S
C1514 C1526 1.410 . S
C1515 C1517 1.444 . S
C1515 C1518 1.317 . S
C1515 H1538 0.929 . S
C1516 C1513 1.432 . S
C1516 C1514 1.417 . S
C1516 N1524 1.360 . S
C1517 C1513 1.414 . S
C1517 C1515 1.444 . S
C1517 C1522 1.385 . S
C1518 C1514 1.432 . S
C1518 C1515 1.317 . S
C1518 H1530 0.930 . S
C1519 C1521 1.392 . S
C1519 C1522 1.370 . S
C1519 H1531 0.931 . S
N1520 C1513 1.359 . S
N1520 C1521 1.327 . S
N1520 Tb1523 2.600 . S
C1521 C1519 1.392 . S
C1521 N1520 1.327 . S
C1521 H1528 0.930 . S
C1522 C1517 1.385 . S
C1522 C1519 1.370 . S
C1522 H1541 0.930 . S
Tb1523 N1520 2.600 . S
Tb1523 N1524 2.660 . S
Tb1523 O1557 2.362 . S
Tb1523 O1558 2.421 . S
Tb1523 O1562 2.546 . S
Tb1523 O1563 2.610 . S
Tb1523 O1565 2.320 . S
Tb1523 O1566 2.552 . S
Tb1523 O1567 2.413 . S
Tb1523 C1587 2.833 . S
N1524 C1516 1.360 . S
N1524 Tb1523 2.660 . S
N1524 C1525 1.305 . S
C1525 N1524 1.305 . S
C1525 C1527 1.407 . S
C1525 H1532 0.930 . S
C1526 C1514 1.410 . S
C1526 C1527 1.345 . S
C1526 H1534 0.930 . S
C1527 C1525 1.407 . S
C1527 C1526 1.345 . S
C1527 H1529 0.930 1_556 S
H1528 C1521 0.930 . S
H1529 C1527 0.930 1_554 S
H1530 C1518 0.930 . S
H1531 C1519 0.931 . S
H1532 C1525 0.930 . S
H1533 C1547 0.930 . S
H1534 C1526 0.930 . S
H1535 C1553 0.930 . S
H1536 C1544 0.930 . S
H1537 C1551 0.931 . S
H1538 C1515 0.929 . S
H1539 C1545 0.930 . S
H1540 C1578 0.930 . S
H1541 C1522 0.930 . S
H1542 C1577 0.929 . S
N1543 Tb1512 2.660 . S
N1543 C1544 1.305 . S
N1543 C1548 1.360 . S
C1544 H1536 0.930 . S
C1544 N1543 1.305 . S
C1544 C1547 1.407 . S
C1545 H1539 0.930 . S
C1545 C1546 1.410 . S
C1545 C1547 1.345 . S
C1546 C1545 1.410 . S
C1546 C1548 1.417 . S
C1546 C1578 1.432 . S
C1547 H1533 0.930 . S
C1547 C1544 1.407 . S
C1547 C1545 1.345 . S
C1548 N1543 1.360 . S
C1548 C1546 1.417 . S
C1548 C1552 1.432 . S
H1549 C1554 0.930 . S
N1550 Tb1512 2.600 1_554 S
N1550 C1552 1.359 1_554 S
N1550 C1553 1.327 . S
C1551 H1537 0.931 . S
C1551 C1553 1.392 . S
C1551 C1554 1.370 . S
C1552 C1548 1.432 . S
C1552 N1550 1.359 1_556 S
C1552 C1555 1.414 1_556 S
C1553 H1535 0.930 . S
C1553 N1550 1.327 . S
C1553 C1551 1.392 . S
C1554 H1549 0.930 . S
C1554 C1551 1.370 . S
C1554 C1555 1.385 . S
C1555 C1552 1.414 1_554 S
C1555 C1554 1.385 . S
C1555 C1577 1.444 1_554 S
O1556 Tb1512 2.546 1_554 S
O1556 C1576 1.251 . S
O1557 Tb1512 2.610 . S
O1557 Tb1523 2.362 . S
O1557 C1568 1.283 . S
O1558 Tb1523 2.421 . S
O1558 C1575 1.262 . S
O1559 Tb1512 2.320 . S
O1559 C1575 1.260 . S
O1560 Tb1512 2.552 1_554 S
O1560 C1568 1.243 1_554 S
O1561 Tb1512 2.413 1_554 S
O1561 C1576 1.256 . S
O1562 Tb1523 2.546 . S
O1562 C1587 1.251 . S
O1563 Tb1512 2.362 . S
O1563 Tb1523 2.610 . S
O1563 C1579 1.283 . S
O1564 Tb1512 2.430 . S
O1564 C1586 1.294 . S
O1565 Tb1523 2.320 . S
O1565 C1586 1.260 . S
O1566 Tb1523 2.552 . S
O1566 C1579 1.243 . S
O1567 Tb1523 2.413 . S
O1567 C1587 1.256 . S
C1568 O1557 1.283 . S
C1568 O1560 1.243 1_556 S
C1569 C1571 1.382 . S
C1569 C1573 1.393 . S
C1569 C1576 1.500 . S
C1570 C1571 1.400 . S
C1570 C1572 1.384 . S
C1571 C1569 1.382 . S
C1571 C1570 1.400 . S
C1571 H1588 0.930 . S
C1572 C1570 1.384 . S
C1572 C1574 1.392 . S
C1572 H1589 0.931 . S
C1573 C1569 1.393 . S
C1573 C1574 1.401 . S
C1573 H1590 0.930 . S
C1574 C1572 1.392 . S
C1574 C1573 1.401 . S
C1574 H1591 0.930 . S
C1575 O1558 1.262 . S
C1575 O1559 1.260 . S
C1576 Tb1512 2.833 1_554 S
C1576 O1556 1.251 . S
C1576 O1561 1.256 . S
C1576 C1569 1.500 . S
C1577 H1542 0.929 . S
C1577 C1555 1.444 1_556 S
C1577 C1578 1.317 . S
C1578 H1540 0.930 . S
C1578 C1546 1.432 . S
C1578 C1577 1.317 . S
C1579 O1563 1.283 . S
C1579 O1566 1.243 . S
C1580 C1581 1.382 . S
C1580 C1584 1.393 . S
C1580 C1587 1.500 . S
C1581 C1580 1.382 . S
C1581 C1582 1.400 . S
C1581 H1592 0.930 . S
C1582 C1581 1.400 . S
C1582 C1583 1.384 . S
C1583 C1582 1.384 . S
C1583 C1585 1.392 . S
C1583 H1593 0.931 . S
C1584 C1580 1.393 . S
C1584 C1585 1.401 . S
C1584 H1594 0.930 . S
C1585 C1583 1.392 . S
C1585 C1584 1.401 . S
C1585 H1595 0.930 . S
C1586 O1564 1.294 . S
C1586 O1565 1.260 . S
C1587 Tb1523 2.833 . S
C1587 O1562 1.251 . S
C1587 O1567 1.256 . S
C1587 C1580 1.500 . S
H1588 C1571 0.930 . S
H1589 C1572 0.931 . S
H1590 C1573 0.930 . S
H1591 C1574 0.930 . S
H1592 C1581 0.930 . S
H1593 C1583 0.931 . S
H1594 C1584 0.930 . S
H1595 C1585 0.930 . S
Tb1596 N1627 2.660 . S
Tb1596 N1634 2.600 . S
Tb1596 O1640 2.546 . S
Tb1596 O1641 2.610 . S
Tb1596 O1643 2.320 . S
Tb1596 O1644 2.552 . S
Tb1596 O1645 2.413 . S
Tb1596 O1647 2.362 . S
Tb1596 O1648 2.421 . S
Tb1596 C1660 2.833 . S
C1597 C1600 1.432 . S
C1597 C1601 1.414 . S
C1597 N1604 1.359 . S
C1598 C1600 1.417 . S
C1598 C1602 1.432 . S
C1598 C1610 1.410 . S
C1599 C1601 1.444 . S
C1599 C1602 1.317 . S
C1599 H1622 0.929 . S
C1600 C1597 1.432 . S
C1600 C1598 1.417 . S
C1600 N1608 1.360 . S
C1601 C1597 1.414 . S
C1601 C1599 1.444 . S
C1601 C1606 1.385 . S
C1602 C1598 1.432 . S
C1602 C1599 1.317 . S
C1602 H1614 0.930 . S
C1603 C1605 1.376 1_455 S
C1603 C1606 1.410 . S
C1603 H1615 0.909 1_455 S
N1604 C1597 1.359 . S
N1604 C1605 1.327 1_455 S
N1604 Tb1607 2.600 1_455 S
C1605 C1603 1.376 1_655 S
C1605 N1604 1.327 1_655 S
C1605 H1612 0.930 . S
C1606 C1601 1.385 . S
C1606 C1603 1.410 . S
C1606 H1625 0.930 . S
Tb1607 N1604 2.600 1_655 S
Tb1607 N1608 2.660 1_655 S
Tb1607 O1641 2.362 . S
Tb1607 O1642 2.421 . S
Tb1607 O1646 2.546 1_655 S
Tb1607 O1647 2.610 . S
Tb1607 O1649 2.307 1_655 S
Tb1607 O1650 2.552 . S
Tb1607 O1651 2.413 1_655 S
Tb1607 C1671 2.833 1_655 S
N1608 C1600 1.360 . S
N1608 Tb1607 2.660 1_455 S
N1608 C1609 1.305 . S
C1609 N1608 1.305 . S
C1609 C1611 1.407 . S
C1609 H1616 0.930 . S
C1610 C1598 1.410 . S
C1610 C1611 1.345 . S
C1610 H1618 0.930 . S
C1611 C1609 1.407 . S
C1611 C1610 1.345 . S
C1611 H1613 0.930 . S
H1612 C1605 0.930 . S
H1613 C1611 0.930 . S
H1614 C1602 0.930 . S
H1615 C1603 0.909 1_655 S
H1616 C1609 0.930 . S
H1617 C1631 0.930 . S
H1618 C1610 0.930 . S
H1619 C1637 0.930 . S
H1620 C1628 0.930 . S
H1621 C1635 0.931 . S
H1622 C1599 0.929 . S
H1623 C1629 0.930 . S
H1624 C1662 0.930 . S
H1625 C1606 0.930 . S
H1626 C1661 0.929 . S
N1627 Tb1596 2.660 . S
N1627 C1628 1.305 . S
N1627 C1632 1.360 . S
C1628 H1620 0.930 . S
C1628 N1627 1.305 . S
C1628 C1631 1.407 . S
C1629 H1623 0.930 . S
C1629 C1630 1.410 . S
C1629 C1631 1.345 . S
C1630 C1629 1.410 . S
C1630 C1632 1.417 . S
C1630 C1662 1.432 . S
C1631 H1617 0.930 . S
C1631 C1628 1.407 . S
C1631 C1629 1.345 . S
C1632 N1627 1.360 . S
C1632 C1630 1.417 . S
C1632 C1636 1.432 . S
H1633 C1638 0.930 . S
N1634 Tb1596 2.600 . S
N1634 C1636 1.359 . S
N1634 C1637 1.327 . S
C1635 H1621 0.931 . S
C1635 C1637 1.392 . S
C1635 C1638 1.370 . S
C1636 C1632 1.432 . S
C1636 N1634 1.359 . S
C1636 C1639 1.414 . S
C1637 H1619 0.930 . S
C1637 N1634 1.327 . S
C1637 C1635 1.392 . S
C1638 H1633 0.930 . S
C1638 C1635 1.370 . S
C1638 C1639 1.385 . S
C1639 C1636 1.414 . S
C1639 C1638 1.385 . S
C1639 C1661 1.444 . S
O1640 Tb1596 2.546 . S
O1640 C1660 1.251 . S
O1641 Tb1596 2.610 . S
O1641 Tb1607 2.362 . S
O1641 C1652 1.283 . S
O1642 Tb1607 2.421 . S
O1642 C1659 1.262 . S
O1643 Tb1596 2.320 . S
O1643 C1659 1.260 . S
O1644 Tb1596 2.552 . S
O1644 C1652 1.243 . S
O1645 Tb1596 2.413 . S
O1645 C1660 1.256 . S
O1646 Tb1607 2.546 1_455 S
O1646 C1671 1.251 . S
O1647 Tb1596 2.362 . S
O1647 Tb1607 2.610 . S
O1647 C1663 1.283 . S
O1648 Tb1596 2.421 . S
O1648 C1670 1.262 . S
O1649 Tb1607 2.307 1_455 S
O1649 C1670 1.244 1_455 S
O1650 Tb1607 2.552 . S
O1650 C1663 1.243 . S
O1651 Tb1607 2.413 1_455 S
O1651 C1671 1.256 . S
C1652 O1641 1.283 . S
C1652 O1644 1.243 . S
C1653 C1655 1.382 . S
C1653 C1657 1.393 . S
C1653 C1660 1.500 . S
C1654 C1655 1.400 . S
C1654 C1656 1.384 . S
C1655 C1653 1.382 . S
C1655 C1654 1.400 . S
C1655 H1672 0.930 . S
C1656 C1654 1.384 . S
C1656 C1658 1.392 . S
C1656 H1673 0.931 . S
C1657 C1653 1.393 . S
C1657 C1658 1.401 . S
C1657 H1674 0.930 . S
C1658 C1656 1.392 . S
C1658 C1657 1.401 . S
C1658 H1675 0.930 . S
C1659 O1642 1.262 . S
C1659 O1643 1.260 . S
C1660 Tb1596 2.833 . S
C1660 O1640 1.251 . S
C1660 O1645 1.256 . S
C1660 C1653 1.500 . S
C1661 H1626 0.929 . S
C1661 C1639 1.444 . S
C1661 C1662 1.317 . S
C1662 H1624 0.930 . S
C1662 C1630 1.432 . S
C1662 C1661 1.317 . S
C1663 O1647 1.283 . S
C1663 O1650 1.243 . S
C1664 C1665 1.382 . S
C1664 C1668 1.393 . S
C1664 C1671 1.500 . S
C1665 C1664 1.382 . S
C1665 C1666 1.400 . S
C1665 H1676 0.930 . S
C1666 C1665 1.400 . S
C1666 C1667 1.384 . S
C1667 C1666 1.384 . S
C1667 C1669 1.392 . S
C1667 H1677 0.931 . S
C1668 C1664 1.393 . S
C1668 C1669 1.401 . S
C1668 H1678 0.930 . S
C1669 C1667 1.392 . S
C1669 C1668 1.401 . S
C1669 H1679 0.930 . S
C1670 O1648 1.262 . S
C1670 O1649 1.244 1_655 S
C1671 Tb1607 2.833 1_455 S
C1671 O1646 1.251 . S
C1671 O1651 1.256 . S
C1671 C1664 1.500 . S
H1672 C1655 0.930 . S
H1673 C1656 0.931 . S
H1674 C1657 0.930 . S
H1675 C1658 0.930 . S
H1676 C1665 0.930 . S
H1677 C1667 0.931 . S
H1678 C1668 0.930 . S
H1679 C1669 0.930 . S
Tb1680 N1711 2.660 . S
Tb1680 N1718 2.600 . S
Tb1680 O1724 2.546 . S
Tb1680 O1725 2.610 . S
Tb1680 O1727 2.320 . S
Tb1680 O1728 2.552 . S
Tb1680 O1729 2.413 . S
Tb1680 O1731 2.362 . S
Tb1680 O1732 2.421 . S
Tb1680 C1744 2.833 . S
C1681 C1684 1.432 . S
C1681 C1685 1.414 . S
C1681 N1688 1.359 . S
C1682 C1684 1.417 . S
C1682 C1686 1.432 . S
C1682 C1694 1.410 . S
C1683 C1685 1.444 . S
C1683 C1686 1.317 . S
C1683 H1706 0.929 . S
C1684 C1681 1.432 . S
C1684 C1682 1.417 . S
C1684 N1692 1.360 . S
C1685 C1681 1.414 . S
C1685 C1683 1.444 . S
C1685 C1690 1.385 . S
C1686 C1682 1.432 . S
C1686 C1683 1.317 . S
C1686 H1698 0.930 . S
C1687 C1689 1.392 . S
C1687 C1690 1.370 . S
C1687 H1699 0.931 . S
N1688 C1681 1.359 . S
N1688 C1689 1.327 . S
N1688 Tb1691 2.600 . S
C1689 C1687 1.392 . S
C1689 N1688 1.327 . S
C1689 H1696 0.930 . S
C1690 C1685 1.385 . S
C1690 C1687 1.370 . S
C1690 H1709 0.930 . S
Tb1691 N1688 2.600 . S
Tb1691 N1692 2.660 . S
Tb1691 O1725 2.362 . S
Tb1691 O1726 2.421 . S
Tb1691 O1730 2.546 . S
Tb1691 O1731 2.610 . S
Tb1691 O1733 2.320 . S
Tb1691 O1734 2.552 . S
Tb1691 O1735 2.413 . S
Tb1691 C1755 2.833 . S
N1692 C1684 1.360 . S
N1692 Tb1691 2.660 . S
N1692 C1693 1.305 . S
C1693 N1692 1.305 . S
C1693 C1695 1.407 . S
C1693 H1700 0.930 . S
C1694 C1682 1.410 . S
C1694 C1695 1.345 . S
C1694 H1702 0.930 . S
C1695 C1693 1.407 . S
C1695 C1694 1.345 . S
C1695 H1697 0.930 . S
H1696 C1689 0.930 . S
H1697 C1695 0.930 . S
H1698 C1686 0.930 . S
H1699 C1687 0.931 . S
H1700 C1693 0.930 . S
H1701 C1715 0.930 . S
H1702 C1694 0.930 . S
H1703 C1721 0.930 . S
H1704 C1712 0.930 . S
H1705 C1719 0.931 . S
H1706 C1683 0.929 . S
H1707 C1713 0.930 . S
H1708 C1746 0.930 . S
H1709 C1690 0.930 . S
H1710 C1745 0.929 . S
N1711 Tb1680 2.660 . S
N1711 C1712 1.305 . S
N1711 C1716 1.360 . S
C1712 H1704 0.930 . S
C1712 N1711 1.305 . S
C1712 C1715 1.407 . S
C1713 H1707 0.930 . S
C1713 C1714 1.410 . S
C1713 C1715 1.345 . S
C1714 C1713 1.410 . S
C1714 C1716 1.417 . S
C1714 C1746 1.432 . S
C1715 H1701 0.930 . S
C1715 C1712 1.407 . S
C1715 C1713 1.345 . S
C1716 N1711 1.360 . S
C1716 C1714 1.417 . S
C1716 C1720 1.432 . S
H1717 C1722 0.930 . S
N1718 Tb1680 2.600 . S
N1718 C1720 1.359 . S
N1718 C1721 1.327 . S
C1719 H1705 0.931 . S
C1719 C1721 1.392 . S
C1719 C1722 1.370 . S
C1720 C1716 1.432 . S
C1720 N1718 1.359 . S
C1720 C1723 1.414 . S
C1721 H1703 0.930 . S
C1721 N1718 1.327 . S
C1721 C1719 1.392 . S
C1722 H1717 0.930 . S
C1722 C1719 1.370 . S
C1722 C1723 1.385 . S
C1723 C1720 1.414 . S
C1723 C1722 1.385 . S
C1723 C1745 1.444 . S
O1724 Tb1680 2.546 . S
O1724 C1744 1.251 . S
O1725 Tb1680 2.610 . S
O1725 Tb1691 2.362 . S
O1725 C1736 1.283 . S
O1726 Tb1691 2.421 . S
O1726 C1743 1.262 . S
O1727 Tb1680 2.320 . S
O1727 C1743 1.260 . S
O1728 Tb1680 2.552 . S
O1728 C1736 1.243 . S
O1729 Tb1680 2.413 . S
O1729 C1744 1.256 . S
O1730 Tb1691 2.546 . S
O1730 C1755 1.251 . S
O1731 Tb1680 2.362 . S
O1731 Tb1691 2.610 . S
O1731 C1747 1.283 . S
O1732 Tb1680 2.421 . S
O1732 C1754 1.262 . S
O1733 Tb1691 2.320 . S
O1733 C1754 1.260 . S
O1734 Tb1691 2.552 . S
O1734 C1747 1.243 . S
O1735 Tb1691 2.413 . S
O1735 C1755 1.256 . S
C1736 O1725 1.283 . S
C1736 O1728 1.243 . S
C1737 C1739 1.382 . S
C1737 C1741 1.393 . S
C1737 C1744 1.500 . S
C1738 C1739 1.400 . S
C1738 C1740 1.384 . S
C1739 C1737 1.382 . S
C1739 C1738 1.400 . S
C1739 H1756 0.930 . S
C1740 C1738 1.384 . S
C1740 C1742 1.392 . S
C1740 H1757 0.931 . S
C1741 C1737 1.393 . S
C1741 C1742 1.401 . S
C1741 H1758 0.930 . S
C1742 C1740 1.392 . S
C1742 C1741 1.401 . S
C1742 H1759 0.930 . S
C1743 O1726 1.262 . S
C1743 O1727 1.260 . S
C1744 Tb1680 2.833 . S
C1744 O1724 1.251 . S
C1744 O1729 1.256 . S
C1744 C1737 1.500 . S
C1745 H1710 0.929 . S
C1745 C1723 1.444 . S
C1745 C1746 1.317 . S
C1746 H1708 0.930 . S
C1746 C1714 1.432 . S
C1746 C1745 1.317 . S
C1747 O1731 1.283 . S
C1747 O1734 1.243 . S
C1748 C1749 1.382 . S
C1748 C1752 1.393 . S
C1748 C1755 1.500 . S
C1749 C1748 1.382 . S
C1749 C1750 1.400 . S
C1749 H1760 0.930 . S
C1750 C1749 1.400 . S
C1750 C1751 1.384 . S
C1751 C1750 1.384 . S
C1751 C1753 1.392 . S
C1751 H1761 0.931 . S
C1752 C1748 1.393 . S
C1752 C1753 1.401 . S
C1752 H1762 0.930 . S
C1753 C1751 1.392 . S
C1753 C1752 1.401 . S
C1753 H1763 0.930 . S
C1754 O1732 1.262 . S
C1754 O1733 1.260 . S
C1755 Tb1691 2.833 . S
C1755 O1730 1.251 . S
C1755 O1735 1.256 . S
C1755 C1748 1.500 . S
H1756 C1739 0.930 . S
H1757 C1740 0.931 . S
H1758 C1741 0.930 . S
H1759 C1742 0.930 . S
H1760 C1749 0.930 . S
H1761 C1751 0.931 . S
H1762 C1752 0.930 . S
H1763 C1753 0.930 . S
Tb1764 N1795 2.660 . S
Tb1764 N1802 2.600 . S
Tb1764 O1808 2.546 . S
Tb1764 O1809 2.610 . S
Tb1764 O1811 2.320 . S
Tb1764 O1812 2.552 . S
Tb1764 O1813 2.413 . S
Tb1764 O1815 2.362 . S
Tb1764 O1816 2.421 . S
Tb1764 C1828 2.833 . S
C1765 C1768 1.432 . S
C1765 C1769 1.414 . S
C1765 N1772 1.359 . S
C1766 C1768 1.417 . S
C1766 C1770 1.432 . S
C1766 C1778 1.410 . S
C1767 C1769 1.444 . S
C1767 C1770 1.317 . S
C1767 H1790 0.929 . S
C1768 C1765 1.432 . S
C1768 C1766 1.417 . S
C1768 N1776 1.360 . S
C1769 C1765 1.414 . S
C1769 C1767 1.444 . S
C1769 C1774 1.385 . S
C1770 C1766 1.432 . S
C1770 C1767 1.317 . S
C1770 H1782 0.930 . S
C1771 C1773 1.392 . S
C1771 C1774 1.370 . S
C1771 H1783 0.931 . S
N1772 C1765 1.359 . S
N1772 C1773 1.327 . S
N1772 Tb1775 2.600 . S
C1773 C1771 1.392 . S
C1773 N1772 1.327 . S
C1773 H1780 0.930 . S
C1774 C1769 1.385 . S
C1774 C1771 1.370 . S
C1774 H1793 0.930 . S
Tb1775 N1772 2.600 . S
Tb1775 N1776 2.660 . S
Tb1775 O1809 2.362 . S
Tb1775 O1810 2.421 . S
Tb1775 O1814 2.546 . S
Tb1775 O1815 2.610 . S
Tb1775 O1817 2.320 . S
Tb1775 O1818 2.552 . S
Tb1775 O1819 2.413 . S
Tb1775 C1839 2.833 . S
N1776 C1768 1.360 . S
N1776 Tb1775 2.660 . S
N1776 C1777 1.305 . S
C1777 N1776 1.305 . S
C1777 C1779 1.407 . S
C1777 H1784 0.930 . S
C1778 C1766 1.410 . S
C1778 C1779 1.345 . S
C1778 H1786 0.930 . S
C1779 C1777 1.407 . S
C1779 C1778 1.345 . S
C1779 H1781 0.930 . S
H1780 C1773 0.930 . S
H1781 C1779 0.930 . S
H1782 C1770 0.930 . S
H1783 C1771 0.931 . S
H1784 C1777 0.930 . S
H1785 C1799 0.930 . S
H1786 C1778 0.930 . S
H1787 C1805 0.930 . S
H1788 C1796 0.930 . S
H1789 C1803 0.931 . S
H1790 C1767 0.929 . S
H1791 C1797 0.930 . S
H1792 C1830 0.930 . S
H1793 C1774 0.930 . S
H1794 C1829 0.929 . S
N1795 Tb1764 2.660 . S
N1795 C1796 1.305 . S
N1795 C1800 1.360 . S
C1796 H1788 0.930 . S
C1796 N1795 1.305 . S
C1796 C1799 1.407 . S
C1797 H1791 0.930 . S
C1797 C1798 1.410 . S
C1797 C1799 1.345 . S
C1798 C1797 1.410 . S
C1798 C1800 1.417 . S
C1798 C1830 1.432 . S
C1799 H1785 0.930 . S
C1799 C1796 1.407 . S
C1799 C1797 1.345 . S
C1800 N1795 1.360 . S
C1800 C1798 1.417 . S
C1800 C1804 1.432 . S
H1801 C1806 0.930 . S
N1802 Tb1764 2.600 . S
N1802 C1804 1.359 . S
N1802 C1805 1.327 . S
C1803 H1789 0.931 . S
C1803 C1805 1.392 . S
C1803 C1806 1.370 . S
C1804 C1800 1.432 . S
C1804 N1802 1.359 . S
C1804 C1807 1.414 . S
C1805 H1787 0.930 . S
C1805 N1802 1.327 . S
C1805 C1803 1.392 . S
C1806 H1801 0.930 . S
C1806 C1803 1.370 . S
C1806 C1807 1.385 . S
C1807 C1804 1.414 . S
C1807 C1806 1.385 . S
C1807 C1829 1.444 . S
O1808 Tb1764 2.546 . S
O1808 C1828 1.251 . S
O1809 Tb1764 2.610 . S
O1809 Tb1775 2.362 . S
O1809 C1820 1.283 . S
O1810 Tb1775 2.421 . S
O1810 C1827 1.262 . S
O1811 Tb1764 2.320 . S
O1811 C1827 1.260 . S
O1812 Tb1764 2.552 . S
O1812 C1820 1.243 . S
O1813 Tb1764 2.413 . S
O1813 C1828 1.256 . S
O1814 Tb1775 2.546 . S
O1814 C1839 1.251 . S
O1815 Tb1764 2.362 . S
O1815 Tb1775 2.610 . S
O1815 C1831 1.283 . S
O1816 Tb1764 2.421 . S
O1816 C1838 1.262 . S
O1817 Tb1775 2.320 . S
O1817 C1838 1.260 . S
O1818 Tb1775 2.552 . S
O1818 C1831 1.243 . S
O1819 Tb1775 2.413 . S
O1819 C1839 1.256 . S
C1820 O1809 1.283 . S
C1820 O1812 1.243 . S
C1821 C1823 1.382 . S
C1821 C1825 1.393 . S
C1821 C1828 1.500 . S
C1822 C1823 1.400 . S
C1822 C1824 1.384 . S
C1823 C1821 1.382 . S
C1823 C1822 1.400 . S
C1823 H1840 0.930 . S
C1824 C1822 1.384 . S
C1824 C1826 1.392 . S
C1824 H1841 0.931 . S
C1825 C1821 1.393 . S
C1825 C1826 1.401 . S
C1825 H1842 0.930 . S
C1826 C1824 1.392 . S
C1826 C1825 1.401 . S
C1826 H1843 0.930 . S
C1827 O1810 1.262 . S
C1827 O1811 1.260 . S
C1828 Tb1764 2.833 . S
C1828 O1808 1.251 . S
C1828 O1813 1.256 . S
C1828 C1821 1.500 . S
C1829 H1794 0.929 . S
C1829 C1807 1.444 . S
C1829 C1830 1.317 . S
C1830 H1792 0.930 . S
C1830 C1798 1.432 . S
C1830 C1829 1.317 . S
C1831 O1815 1.283 . S
C1831 O1818 1.243 . S
C1832 C1833 1.382 . S
C1832 C1836 1.393 . S
C1832 C1839 1.500 . S
C1833 C1832 1.382 . S
C1833 C1834 1.400 . S
C1833 H1844 0.930 . S
C1834 C1833 1.400 . S
C1834 C1835 1.384 . S
C1835 C1834 1.384 . S
C1835 C1837 1.392 . S
C1835 H1845 0.931 . S
C1836 C1832 1.393 . S
C1836 C1837 1.401 . S
C1836 H1846 0.930 . S
C1837 C1835 1.392 . S
C1837 C1836 1.401 . S
C1837 H1847 0.930 . S
C1838 O1816 1.262 . S
C1838 O1817 1.260 . S
C1839 Tb1775 2.833 . S
C1839 O1814 1.251 . S
C1839 O1819 1.256 . S
C1839 C1832 1.500 . S
H1840 C1823 0.930 . S
H1841 C1824 0.931 . S
H1842 C1825 0.930 . S
H1843 C1826 0.930 . S
H1844 C1833 0.930 . S
H1845 C1835 0.931 . S
H1846 C1836 0.930 . S
H1847 C1837 0.930 . S
Tb1848 N1879 2.660 . S
Tb1848 N1886 2.600 . S
Tb1848 O1892 2.546 . S
Tb1848 O1893 2.610 . S
Tb1848 O1895 2.320 . S
Tb1848 O1896 2.552 . S
Tb1848 O1897 2.413 . S
Tb1848 O1899 2.362 . S
Tb1848 O1900 2.421 . S
Tb1848 C1912 2.833 . S
C1849 C1852 1.432 . S
C1849 C1853 1.414 . S
C1849 N1856 1.359 . S
C1850 C1852 1.417 . S
C1850 C1854 1.432 . S
C1850 C1862 1.410 . S
C1851 C1853 1.444 . S
C1851 C1854 1.317 . S
C1851 H1874 0.929 . S
C1852 C1849 1.432 . S
C1852 C1850 1.417 . S
C1852 N1860 1.360 . S
C1853 C1849 1.414 . S
C1853 C1851 1.444 . S
C1853 C1858 1.385 . S
C1854 C1850 1.432 . S
C1854 C1851 1.317 . S
C1854 H1866 0.930 . S
C1855 C1857 1.379 1_556 S
C1855 C1858 1.403 . S
C1855 H1867 0.913 1_556 S
N1856 C1849 1.359 . S
N1856 C1857 1.327 1_556 S
N1856 Tb1859 2.600 1_556 S
C1857 C1855 1.379 1_554 S
C1857 N1856 1.327 1_554 S
C1857 H1864 0.930 . S
C1858 C1853 1.385 . S
C1858 C1855 1.403 . S
C1858 H1877 0.930 . S
Tb1859 N1856 2.600 1_554 S
Tb1859 N1860 2.660 1_554 S
Tb1859 O1893 2.362 . S
Tb1859 O1894 2.421 . S
Tb1859 O1898 2.546 1_554 S
Tb1859 O1899 2.610 . S
Tb1859 O1901 2.305 1_554 S
Tb1859 O1902 2.552 . S
Tb1859 O1903 2.413 1_554 S
Tb1859 C1923 2.833 1_554 S
N1860 C1852 1.360 . S
N1860 Tb1859 2.660 1_556 S
N1860 C1861 1.305 . S
C1861 N1860 1.305 . S
C1861 C1863 1.407 . S
C1861 H1868 0.930 . S
C1862 C1850 1.410 . S
C1862 C1863 1.345 . S
C1862 H1870 0.930 . S
C1863 C1861 1.407 . S
C1863 C1862 1.345 . S
C1863 H1865 0.930 . S
H1864 C1857 0.930 . S
H1865 C1863 0.930 . S
H1866 C1854 0.930 . S
H1867 C1855 0.913 1_554 S
H1868 C1861 0.930 . S
H1869 C1883 0.930 . S
H1870 C1862 0.930 . S
H1871 C1889 0.930 . S
H1872 C1880 0.930 . S
H1873 C1887 0.931 . S
H1874 C1851 0.929 . S
H1875 C1881 0.930 . S
H1876 C1914 0.930 . S
H1877 C1858 0.930 . S
H1878 C1913 0.929 . S
N1879 Tb1848 2.660 . S
N1879 C1880 1.305 . S
N1879 C1884 1.360 . S
C1880 H1872 0.930 . S
C1880 N1879 1.305 . S
C1880 C1883 1.407 . S
C1881 H1875 0.930 . S
C1881 C1882 1.410 . S
C1881 C1883 1.345 . S
C1882 C1881 1.410 . S
C1882 C1884 1.417 . S
C1882 C1914 1.432 . S
C1883 H1869 0.930 . S
C1883 C1880 1.407 . S
C1883 C1881 1.345 . S
C1884 N1879 1.360 . S
C1884 C1882 1.417 . S
C1884 C1888 1.432 . S
H1885 C1890 0.930 . S
N1886 Tb1848 2.600 . S
N1886 C1888 1.359 . S
N1886 C1889 1.327 . S
C1887 H1873 0.931 . S
C1887 C1889 1.392 . S
C1887 C1890 1.370 . S
C1888 C1884 1.432 . S
C1888 N1886 1.359 . S
C1888 C1891 1.414 . S
C1889 H1871 0.930 . S
C1889 N1886 1.327 . S
C1889 C1887 1.392 . S
C1890 H1885 0.930 . S
C1890 C1887 1.370 . S
C1890 C1891 1.385 . S
C1891 C1888 1.414 . S
C1891 C1890 1.385 . S
C1891 C1913 1.444 . S
O1892 Tb1848 2.546 . S
O1892 C1912 1.251 . S
O1893 Tb1848 2.610 . S
O1893 Tb1859 2.362 . S
O1893 C1904 1.283 . S
O1894 Tb1859 2.421 . S
O1894 C1911 1.262 . S
O1895 Tb1848 2.320 . S
O1895 C1911 1.260 . S
O1896 Tb1848 2.552 . S
O1896 C1904 1.243 . S
O1897 Tb1848 2.413 . S
O1897 C1912 1.256 . S
O1898 Tb1859 2.546 1_556 S
O1898 C1923 1.251 . S
O1899 Tb1848 2.362 . S
O1899 Tb1859 2.610 . S
O1899 C1915 1.283 . S
O1900 Tb1848 2.421 . S
O1900 C1922 1.262 . S
O1901 Tb1859 2.305 1_556 S
O1901 C1922 1.242 1_556 S
O1902 Tb1859 2.552 . S
O1902 C1915 1.243 . S
O1903 Tb1859 2.413 1_556 S
O1903 C1923 1.256 . S
C1904 O1893 1.283 . S
C1904 O1896 1.243 . S
C1905 C1907 1.382 . S
C1905 C1909 1.393 . S
C1905 C1912 1.500 . S
C1906 C1907 1.400 . S
C1906 C1908 1.384 . S
C1907 C1905 1.382 . S
C1907 C1906 1.400 . S
C1907 H1924 0.930 . S
C1908 C1906 1.384 . S
C1908 C1910 1.392 . S
C1908 H1925 0.931 . S
C1909 C1905 1.393 . S
C1909 C1910 1.401 . S
C1909 H1926 0.930 . S
C1910 C1908 1.392 . S
C1910 C1909 1.401 . S
C1910 H1927 0.930 . S
C1911 O1894 1.262 . S
C1911 O1895 1.260 . S
C1912 Tb1848 2.833 . S
C1912 O1892 1.251 . S
C1912 O1897 1.256 . S
C1912 C1905 1.500 . S
C1913 H1878 0.929 . S
C1913 C1891 1.444 . S
C1913 C1914 1.317 . S
C1914 H1876 0.930 . S
C1914 C1882 1.432 . S
C1914 C1913 1.317 . S
C1915 O1899 1.283 . S
C1915 O1902 1.243 . S
C1916 C1917 1.382 . S
C1916 C1920 1.393 . S
C1916 C1923 1.500 . S
C1917 C1916 1.382 . S
C1917 C1918 1.400 . S
C1917 H1928 0.930 . S
C1918 C1917 1.400 . S
C1918 C1919 1.384 . S
C1919 C1918 1.384 . S
C1919 C1921 1.392 . S
C1919 H1929 0.931 . S
C1920 C1916 1.393 . S
C1920 C1921 1.401 . S
C1920 H1930 0.930 . S
C1921 C1919 1.392 . S
C1921 C1920 1.401 . S
C1921 H1931 0.930 . S
C1922 O1900 1.262 . S
C1922 O1901 1.242 1_554 S
C1923 Tb1859 2.833 1_556 S
C1923 O1898 1.251 . S
C1923 O1903 1.256 . S
C1923 C1916 1.500 . S
H1924 C1907 0.930 . S
H1925 C1908 0.931 . S
H1926 C1909 0.930 . S
H1927 C1910 0.930 . S
H1928 C1917 0.930 . S
H1929 C1919 0.931 . S
H1930 C1920 0.930 . S
H1931 C1921 0.930 . S
Tb1932 N1963 2.660 . S
Tb1932 N1970 2.600 . S
Tb1932 O1976 2.546 . S
Tb1932 O1977 2.610 . S
Tb1932 O1979 2.320 . S
Tb1932 O1980 2.552 . S
Tb1932 O1981 2.413 . S
Tb1932 O1983 2.362 . S
Tb1932 O1984 2.421 . S
Tb1932 C1996 2.833 . S
C1933 C1936 1.432 . S
C1933 C1937 1.414 . S
C1933 N1940 1.359 . S
C1934 C1936 1.417 . S
C1934 C1938 1.432 . S
C1934 C1946 1.410 . S
C1935 C1937 1.444 . S
C1935 C1938 1.317 . S
C1935 H1958 0.929 . S
C1936 C1933 1.432 . S
C1936 C1934 1.417 . S
C1936 N1944 1.360 . S
C1937 C1933 1.414 . S
C1937 C1935 1.444 . S
C1937 C1942 1.385 . S
C1938 C1934 1.432 . S
C1938 C1935 1.317 . S
C1938 H1950 0.930 . S
C1939 C1941 1.381 1_545 S
C1939 C1942 1.397 . S
C1939 H1951 0.916 1_545 S
N1940 C1933 1.359 . S
N1940 C1941 1.327 1_545 S
N1940 Tb1943 2.600 1_545 S
C1941 C1939 1.381 1_565 S
C1941 N1940 1.327 1_565 S
C1941 H1948 0.930 . S
C1942 C1937 1.385 . S
C1942 C1939 1.397 . S
C1942 H1961 0.930 . S
Tb1943 N1940 2.600 1_565 S
Tb1943 N1944 2.660 1_565 S
Tb1943 O1977 2.362 . S
Tb1943 O1978 2.421 . S
Tb1943 O1982 2.533 1_565 S
Tb1943 O1983 2.610 . S
Tb1943 O1985 2.311 1_565 S
Tb1943 O1986 2.552 . S
Tb1943 O1987 2.413 1_565 S
Tb1943 C2007 2.833 1_565 S
N1944 C1936 1.360 . S
N1944 Tb1943 2.660 1_545 S
N1944 C1945 1.305 . S
C1945 N1944 1.305 . S
C1945 C1947 1.407 . S
C1945 H1952 0.930 . S
C1946 C1934 1.410 . S
C1946 C1947 1.345 . S
C1946 H1954 0.930 . S
C1947 C1945 1.407 . S
C1947 C1946 1.345 . S
C1947 H1949 0.930 . S
H1948 C1941 0.930 . S
H1949 C1947 0.930 . S
H1950 C1938 0.930 . S
H1951 C1939 0.916 1_565 S
H1952 C1945 0.930 . S
H1953 C1967 0.930 . S
H1954 C1946 0.930 . S
H1955 C1973 0.930 . S
H1956 C1964 0.930 . S
H1957 C1971 0.931 . S
H1958 C1935 0.929 . S
H1959 C1965 0.930 . S
H1960 C1998 0.930 . S
H1961 C1942 0.930 . S
H1962 C1997 0.929 . S
N1963 Tb1932 2.660 . S
N1963 C1964 1.305 . S
N1963 C1968 1.360 . S
C1964 H1956 0.930 . S
C1964 N1963 1.305 . S
C1964 C1967 1.407 . S
C1965 H1959 0.930 . S
C1965 C1966 1.410 . S
C1965 C1967 1.345 . S
C1966 C1965 1.410 . S
C1966 C1968 1.417 . S
C1966 C1998 1.432 . S
C1967 H1953 0.930 . S
C1967 C1964 1.407 . S
C1967 C1965 1.345 . S
C1968 N1963 1.360 . S
C1968 C1966 1.417 . S
C1968 C1972 1.432 . S
H1969 C1974 0.930 . S
N1970 Tb1932 2.600 . S
N1970 C1972 1.359 . S
N1970 C1973 1.327 . S
C1971 H1957 0.931 . S
C1971 C1973 1.392 . S
C1971 C1974 1.370 . S
C1972 C1968 1.432 . S
C1972 N1970 1.359 . S
C1972 C1975 1.414 . S
C1973 H1955 0.930 . S
C1973 N1970 1.327 . S
C1973 C1971 1.392 . S
C1974 H1969 0.930 . S
C1974 C1971 1.370 . S
C1974 C1975 1.385 . S
C1975 C1972 1.414 . S
C1975 C1974 1.385 . S
C1975 C1997 1.444 . S
O1976 Tb1932 2.546 . S
O1976 C1996 1.251 . S
O1977 Tb1932 2.610 . S
O1977 Tb1943 2.362 . S
O1977 C1988 1.283 . S
O1978 Tb1943 2.421 . S
O1978 C1995 1.262 . S
O1979 Tb1932 2.320 . S
O1979 C1995 1.260 . S
O1980 Tb1932 2.552 . S
O1980 C1988 1.243 . S
O1981 Tb1932 2.413 . S
O1981 C1996 1.256 . S
O1982 Tb1943 2.533 1_545 S
O1982 C2007 1.287 . S
O1983 Tb1932 2.362 . S
O1983 Tb1943 2.610 . S
O1983 C1999 1.283 . S
O1984 Tb1932 2.421 . S
O1984 C2006 1.262 . S
O1985 Tb1943 2.311 1_545 S
O1985 C2006 1.249 1_545 S
O1986 Tb1943 2.552 . S
O1986 C1999 1.243 . S
O1987 Tb1943 2.413 1_545 S
O1987 C2007 1.256 . S
C1988 O1977 1.283 . S
C1988 O1980 1.243 . S
C1989 C1991 1.382 . S
C1989 C1993 1.393 . S
C1989 C1996 1.500 . S
C1990 C1991 1.400 . S
C1990 C1992 1.384 . S
C1991 C1989 1.382 . S
C1991 C1990 1.400 . S
C1991 H2008 0.930 . S
C1992 C1990 1.384 . S
C1992 C1994 1.392 . S
C1992 H2009 0.931 . S
C1993 C1989 1.393 . S
C1993 C1994 1.401 . S
C1993 H2010 0.930 . S
C1994 C1992 1.392 . S
C1994 C1993 1.401 . S
C1994 H2011 0.930 . S
C1995 O1978 1.262 . S
C1995 O1979 1.260 . S
C1996 Tb1932 2.833 . S
C1996 O1976 1.251 . S
C1996 O1981 1.256 . S
C1996 C1989 1.500 . S
C1997 H1962 0.929 . S
C1997 C1975 1.444 . S
C1997 C1998 1.317 . S
C1998 H1960 0.930 . S
C1998 C1966 1.432 . S
C1998 C1997 1.317 . S
C1999 O1983 1.283 . S
C1999 O1986 1.243 . S
C2000 C2001 1.382 . S
C2000 C2004 1.393 . S
C2000 C2007 1.500 . S
C2001 C2000 1.382 . S
C2001 C2002 1.400 . S
C2001 H2012 0.930 . S
C2002 C2001 1.400 . S
C2002 C2003 1.384 . S
C2003 C2002 1.384 . S
C2003 C2005 1.392 . S
C2003 H2013 0.931 . S
C2004 C2000 1.393 . S
C2004 C2005 1.401 . S
C2004 H2014 0.930 . S
C2005 C2003 1.392 . S
C2005 C2004 1.401 . S
C2005 H2015 0.930 . S
C2006 O1984 1.262 . S
C2006 O1985 1.249 1_565 S
C2007 Tb1943 2.833 1_545 S
C2007 O1982 1.287 . S
C2007 O1987 1.256 . S
C2007 C2000 1.500 . S
H2008 C1991 0.930 . S
H2009 C1992 0.931 . S
H2010 C1993 0.930 . S
H2011 C1994 0.930 . S
H2012 C2001 0.930 . S
H2013 C2003 0.931 . S
H2014 C2004 0.930 . S
H2015 C2005 0.930 . S
Tb2016 N2047 2.660 . S
Tb2016 N2054 2.600 1_565 S
Tb2016 O2060 2.546 1_565 S
Tb2016 O2061 2.610 . S
Tb2016 O2063 2.320 . S
Tb2016 O2064 2.552 1_565 S
Tb2016 O2065 2.413 1_565 S
Tb2016 O2067 2.362 . S
Tb2016 O2068 2.421 . S
Tb2016 C2080 2.833 1_565 S
C2017 C2020 1.432 . S
C2017 C2021 1.414 . S
C2017 N2024 1.359 . S
C2018 C2020 1.417 . S
C2018 C2022 1.432 . S
C2018 C2030 1.410 . S
C2019 C2021 1.444 . S
C2019 C2022 1.317 . S
C2019 H2042 0.929 . S
C2020 C2017 1.432 . S
C2020 C2018 1.417 . S
C2020 N2028 1.360 . S
C2021 C2017 1.414 . S
C2021 C2019 1.444 . S
C2021 C2026 1.385 . S
C2022 C2018 1.432 . S
C2022 C2019 1.317 . S
C2022 H2034 0.930 . S
C2023 C2025 1.392 . S
C2023 C2026 1.370 . S
C2023 H2035 0.931 . S
N2024 C2017 1.359 . S
N2024 C2025 1.327 . S
N2024 Tb2027 2.600 . S
C2025 C2023 1.392 . S
C2025 N2024 1.327 . S
C2025 H2032 0.930 . S
C2026 C2021 1.385 . S
C2026 C2023 1.370 . S
C2026 H2045 0.930 . S
Tb2027 N2024 2.600 . S
Tb2027 N2028 2.660 . S
Tb2027 O2061 2.362 . S
Tb2027 O2062 2.421 . S
Tb2027 O2066 2.546 . S
Tb2027 O2067 2.610 . S
Tb2027 O2069 2.320 . S
Tb2027 O2070 2.552 . S
Tb2027 O2071 2.413 . S
Tb2027 C2091 2.833 . S
N2028 C2020 1.360 . S
N2028 Tb2027 2.660 . S
N2028 C2029 1.305 . S
C2029 N2028 1.305 . S
C2029 C2031 1.407 . S
C2029 H2036 0.930 . S
C2030 C2018 1.410 . S
C2030 C2031 1.345 . S
C2030 H2038 0.930 . S
C2031 C2029 1.407 . S
C2031 C2030 1.345 . S
C2031 H2033 0.930 1_565 S
H2032 C2025 0.930 . S
H2033 C2031 0.930 1_545 S
H2034 C2022 0.930 . S
H2035 C2023 0.931 . S
H2036 C2029 0.930 . S
H2037 C2051 0.930 . S
H2038 C2030 0.930 . S
H2039 C2057 0.930 . S
H2040 C2048 0.930 . S
H2041 C2055 0.931 . S
H2042 C2019 0.929 . S
H2043 C2049 0.930 . S
H2044 C2082 0.930 . S
H2045 C2026 0.930 . S
H2046 C2081 0.929 . S
N2047 Tb2016 2.660 . S
N2047 C2048 1.305 . S
N2047 C2052 1.360 . S
C2048 H2040 0.930 . S
C2048 N2047 1.305 . S
C2048 C2051 1.407 . S
C2049 H2043 0.930 . S
C2049 C2050 1.410 . S
C2049 C2051 1.345 . S
C2050 C2049 1.410 . S
C2050 C2052 1.417 . S
C2050 C2082 1.432 . S
C2051 H2037 0.930 . S
C2051 C2048 1.407 . S
C2051 C2049 1.345 . S
C2052 N2047 1.360 . S
C2052 C2050 1.417 . S
C2052 C2056 1.432 . S
H2053 C2058 0.930 . S
N2054 Tb2016 2.600 1_545 S
N2054 C2056 1.359 1_545 S
N2054 C2057 1.327 . S
C2055 H2041 0.931 . S
C2055 C2057 1.392 . S
C2055 C2058 1.370 . S
C2056 C2052 1.432 . S
C2056 N2054 1.359 1_565 S
C2056 C2059 1.407 1_565 S
C2057 H2039 0.930 . S
C2057 N2054 1.327 . S
C2057 C2055 1.392 . S
C2058 H2053 0.930 . S
C2058 C2055 1.370 . S
C2058 C2059 1.402 . S
C2059 C2056 1.407 1_545 S
C2059 C2058 1.402 . S
C2059 C2081 1.434 1_545 S
O2060 Tb2016 2.546 1_545 S
O2060 C2080 1.251 . S
O2061 Tb2016 2.610 . S
O2061 Tb2027 2.362 . S
O2061 C2072 1.283 . S
O2062 Tb2027 2.421 . S
O2062 C2079 1.262 . S
O2063 Tb2016 2.320 . S
O2063 C2079 1.260 . S
O2064 Tb2016 2.552 1_545 S
O2064 C2072 1.243 1_545 S
O2065 Tb2016 2.413 1_545 S
O2065 C2080 1.256 . S
O2066 Tb2027 2.546 . S
O2066 C2091 1.251 . S
O2067 Tb2016 2.362 . S
O2067 Tb2027 2.610 . S
O2067 C2083 1.283 . S
O2068 Tb2016 2.421 . S
O2068 C2090 1.262 . S
O2069 Tb2027 2.320 . S
O2069 C2090 1.260 . S
O2070 Tb2027 2.552 . S
O2070 C2083 1.243 . S
O2071 Tb2027 2.413 . S
O2071 C2091 1.256 . S
C2072 O2061 1.283 . S
C2072 O2064 1.243 1_565 S
C2073 C2075 1.382 . S
C2073 C2077 1.393 . S
C2073 C2080 1.500 . S
C2074 C2075 1.400 . S
C2074 C2076 1.384 . S
C2075 C2073 1.382 . S
C2075 C2074 1.400 . S
C2075 H2092 0.930 . S
C2076 C2074 1.384 . S
C2076 C2078 1.392 . S
C2076 H2093 0.931 . S
C2077 C2073 1.393 . S
C2077 C2078 1.401 . S
C2077 H2094 0.930 . S
C2078 C2076 1.392 . S
C2078 C2077 1.401 . S
C2078 H2095 0.930 . S
C2079 O2062 1.262 . S
C2079 O2063 1.260 . S
C2080 Tb2016 2.833 1_545 S
C2080 O2060 1.251 . S
C2080 O2065 1.256 . S
C2080 C2073 1.500 . S
C2081 H2046 0.929 . S
C2081 C2059 1.434 1_565 S
C2081 C2082 1.317 . S
C2082 H2044 0.930 . S
C2082 C2050 1.432 . S
C2082 C2081 1.317 . S
C2083 O2067 1.283 . S
C2083 O2070 1.243 . S
C2084 C2085 1.382 . S
C2084 C2088 1.393 . S
C2084 C2091 1.500 . S
C2085 C2084 1.382 . S
C2085 C2086 1.400 . S
C2085 H2096 0.930 . S
C2086 C2085 1.400 . S
C2086 C2087 1.384 . S
C2087 C2086 1.384 . S
C2087 C2089 1.392 . S
C2087 H2097 0.931 . S
C2088 C2084 1.393 . S
C2088 C2089 1.401 . S
C2088 H2098 0.930 . S
C2089 C2087 1.392 . S
C2089 C2088 1.401 . S
C2089 H2099 0.930 . S
C2090 O2068 1.262 . S
C2090 O2069 1.260 . S
C2091 Tb2027 2.833 . S
C2091 O2066 1.251 . S
C2091 O2071 1.256 . S
C2091 C2084 1.500 . S
H2092 C2075 0.930 . S
H2093 C2076 0.931 . S
H2094 C2077 0.930 . S
H2095 C2078 0.930 . S
H2096 C2085 0.930 . S
H2097 C2087 0.931 . S
H2098 C2088 0.930 . S
H2099 C2089 0.930 . S
Tb2100 N2131 2.660 . S
Tb2100 N2138 2.600 . S
Tb2100 O2144 2.546 . S
Tb2100 O2145 2.610 . S
Tb2100 O2147 2.320 . S
Tb2100 O2148 2.552 . S
Tb2100 O2149 2.413 . S
Tb2100 O2151 2.362 . S
Tb2100 O2152 2.421 . S
Tb2100 C2164 2.833 . S
C2101 C2104 1.432 . S
C2101 C2105 1.414 . S
C2101 N2108 1.359 . S
C2102 C2104 1.417 . S
C2102 C2106 1.432 . S
C2102 C2114 1.410 . S
C2103 C2105 1.444 . S
C2103 C2106 1.317 . S
C2103 H2126 0.929 . S
C2104 C2101 1.432 . S
C2104 C2102 1.417 . S
C2104 N2112 1.360 . S
C2105 C2101 1.414 . S
C2105 C2103 1.444 . S
C2105 C2110 1.385 . S
C2106 C2102 1.432 . S
C2106 C2103 1.317 . S
C2106 H2118 0.930 . S
C2107 C2109 1.373 1_565 S
C2107 C2110 1.417 . S
C2107 H2119 0.906 1_565 S
N2108 C2101 1.359 . S
N2108 C2109 1.327 1_565 S
N2108 Tb2111 2.600 1_565 S
C2109 C2107 1.373 1_545 S
C2109 N2108 1.327 1_545 S
C2109 H2116 0.930 . S
C2110 C2105 1.385 . S
C2110 C2107 1.417 . S
C2110 H2129 0.930 . S
Tb2111 N2108 2.600 1_545 S
Tb2111 N2112 2.660 1_545 S
Tb2111 O2145 2.362 . S
Tb2111 O2146 2.421 . S
Tb2111 O2150 2.546 1_545 S
Tb2111 O2151 2.610 . S
Tb2111 O2153 2.320 1_545 S
Tb2111 O2154 2.552 . S
Tb2111 O2155 2.413 1_545 S
Tb2111 C2175 2.833 1_545 S
N2112 C2104 1.360 . S
N2112 Tb2111 2.660 1_565 S
N2112 C2113 1.305 . S
C2113 N2112 1.305 . S
C2113 C2115 1.407 . S
C2113 H2120 0.930 . S
C2114 C2102 1.410 . S
C2114 C2115 1.345 . S
C2114 H2122 0.930 . S
C2115 C2113 1.407 . S
C2115 C2114 1.345 . S
C2115 H2117 0.930 . S
H2116 C2109 0.930 . S
H2117 C2115 0.930 . S
H2118 C2106 0.930 . S
H2119 C2107 0.906 1_545 S
H2120 C2113 0.930 . S
H2121 C2135 0.930 . S
H2122 C2114 0.930 . S
H2123 C2141 0.930 . S
H2124 C2132 0.930 . S
H2125 C2139 0.931 . S
H2126 C2103 0.929 . S
H2127 C2133 0.930 . S
H2128 C2166 0.930 . S
H2129 C2110 0.930 . S
H2130 C2165 0.929 . S
N2131 Tb2100 2.660 . S
N2131 C2132 1.305 . S
N2131 C2136 1.360 . S
C2132 H2124 0.930 . S
C2132 N2131 1.305 . S
C2132 C2135 1.407 . S
C2133 H2127 0.930 . S
C2133 C2134 1.410 . S
C2133 C2135 1.345 . S
C2134 C2133 1.410 . S
C2134 C2136 1.417 . S
C2134 C2166 1.432 . S
C2135 H2121 0.930 . S
C2135 C2132 1.407 . S
C2135 C2133 1.345 . S
C2136 N2131 1.360 . S
C2136 C2134 1.417 . S
C2136 C2140 1.432 . S
H2137 C2142 0.930 . S
N2138 Tb2100 2.600 . S
N2138 C2140 1.359 . S
N2138 C2141 1.327 . S
C2139 H2125 0.931 . S
C2139 C2141 1.392 . S
C2139 C2142 1.370 . S
C2140 C2136 1.432 . S
C2140 N2138 1.359 . S
C2140 C2143 1.414 . S
C2141 H2123 0.930 . S
C2141 N2138 1.327 . S
C2141 C2139 1.392 . S
C2142 H2137 0.930 . S
C2142 C2139 1.370 . S
C2142 C2143 1.385 . S
C2143 C2140 1.414 . S
C2143 C2142 1.385 . S
C2143 C2165 1.444 . S
O2144 Tb2100 2.546 . S
O2144 C2164 1.251 . S
O2145 Tb2100 2.610 . S
O2145 Tb2111 2.362 . S
O2145 C2156 1.283 . S
O2146 Tb2111 2.421 . S
O2146 C2163 1.262 . S
O2147 Tb2100 2.320 . S
O2147 C2163 1.260 . S
O2148 Tb2100 2.552 . S
O2148 C2156 1.243 . S
O2149 Tb2100 2.413 . S
O2149 C2164 1.256 . S
O2150 Tb2111 2.546 1_565 S
O2150 C2175 1.251 . S
O2151 Tb2100 2.362 . S
O2151 Tb2111 2.610 . S
O2151 C2167 1.283 . S
O2152 Tb2100 2.421 . S
O2152 C2174 1.262 . S
O2153 Tb2111 2.320 1_565 S
O2153 C2174 1.260 1_565 S
O2154 Tb2111 2.552 . S
O2154 C2167 1.243 . S
O2155 Tb2111 2.413 1_565 S
O2155 C2175 1.256 . S
C2156 O2145 1.283 . S
C2156 O2148 1.243 . S
C2157 C2159 1.382 . S
C2157 C2161 1.393 . S
C2157 C2164 1.500 . S
C2158 C2159 1.400 . S
C2158 C2160 1.384 . S
C2159 C2157 1.382 . S
C2159 C2158 1.400 . S
C2159 H2176 0.930 . S
C2160 C2158 1.384 . S
C2160 C2162 1.392 . S
C2160 H2177 0.931 . S
C2161 C2157 1.393 . S
C2161 C2162 1.401 . S
C2161 H2178 0.930 . S
C2162 C2160 1.392 . S
C2162 C2161 1.401 . S
C2162 H2179 0.930 . S
C2163 O2146 1.262 . S
C2163 O2147 1.260 . S
C2164 Tb2100 2.833 . S
C2164 O2144 1.251 . S
C2164 O2149 1.256 . S
C2164 C2157 1.500 . S
C2165 H2130 0.929 . S
C2165 C2143 1.444 . S
C2165 C2166 1.317 . S
C2166 H2128 0.930 . S
C2166 C2134 1.432 . S
C2166 C2165 1.317 . S
C2167 O2151 1.283 . S
C2167 O2154 1.243 . S
C2168 C2169 1.382 . S
C2168 C2172 1.393 . S
C2168 C2175 1.500 . S
C2169 C2168 1.382 . S
C2169 C2170 1.400 . S
C2169 H2180 0.930 . S
C2170 C2169 1.400 . S
C2170 C2171 1.384 . S
C2171 C2170 1.384 . S
C2171 C2173 1.392 . S
C2171 H2181 0.931 . S
C2172 C2168 1.393 . S
C2172 C2173 1.401 . S
C2172 H2182 0.930 . S
C2173 C2171 1.392 . S
C2173 C2172 1.401 . S
C2173 H2183 0.930 . S
C2174 O2152 1.262 . S
C2174 O2153 1.260 1_545 S
C2175 Tb2111 2.833 1_565 S
C2175 O2150 1.251 . S
C2175 O2155 1.256 . S
C2175 C2168 1.500 . S
H2176 C2159 0.930 . S
H2177 C2160 0.931 . S
H2178 C2161 0.930 . S
H2179 C2162 0.930 . S
H2180 C2169 0.930 . S
H2181 C2171 0.931 . S
H2182 C2172 0.930 . S
H2183 C2173 0.930 . S
Tb2184 N2215 2.660 . S
Tb2184 N2222 2.600 1_545 S
Tb2184 O2228 2.546 1_545 S
Tb2184 O2229 2.610 . S
Tb2184 O2231 2.320 . S
Tb2184 O2232 2.552 1_545 S
Tb2184 O2233 2.413 1_545 S
Tb2184 O2235 2.362 . S
Tb2184 O2236 2.421 . S
Tb2184 C2248 2.833 1_545 S
C2185 C2188 1.432 . S
C2185 C2189 1.414 . S
C2185 N2192 1.359 . S
C2186 C2188 1.417 . S
C2186 C2190 1.432 . S
C2186 C2198 1.410 . S
C2187 C2189 1.444 . S
C2187 C2190 1.317 . S
C2187 H2210 0.929 . S
C2188 C2185 1.432 . S
C2188 C2186 1.417 . S
C2188 N2196 1.360 . S
C2189 C2185 1.414 . S
C2189 C2187 1.444 . S
C2189 C2194 1.385 . S
C2190 C2186 1.432 . S
C2190 C2187 1.317 . S
C2190 H2202 0.930 . S
C2191 C2193 1.392 . S
C2191 C2194 1.370 . S
C2191 H2203 0.931 . S
N2192 C2185 1.359 . S
N2192 C2193 1.327 . S
N2192 Tb2195 2.600 . S
C2193 C2191 1.392 . S
C2193 N2192 1.327 . S
C2193 H2200 0.930 . S
C2194 C2189 1.385 . S
C2194 C2191 1.370 . S
C2194 H2213 0.930 . S
Tb2195 N2192 2.600 . S
Tb2195 N2196 2.660 . S
Tb2195 O2229 2.362 . S
Tb2195 O2230 2.421 . S
Tb2195 O2234 2.546 . S
Tb2195 O2235 2.610 . S
Tb2195 O2237 2.320 . S
Tb2195 O2238 2.552 . S
Tb2195 O2239 2.413 . S
Tb2195 C2259 2.833 . S
N2196 C2188 1.360 . S
N2196 Tb2195 2.660 . S
N2196 C2197 1.305 . S
C2197 N2196 1.305 . S
C2197 C2199 1.407 . S
C2197 H2204 0.930 . S
C2198 C2186 1.410 . S
C2198 C2199 1.345 . S
C2198 H2206 0.930 . S
C2199 C2197 1.407 . S
C2199 C2198 1.345 . S
C2199 H2201 0.930 1_545 S
H2200 C2193 0.930 . S
H2201 C2199 0.930 1_565 S
H2202 C2190 0.930 . S
H2203 C2191 0.931 . S
H2204 C2197 0.930 . S
H2205 C2219 0.930 . S
H2206 C2198 0.930 . S
H2207 C2225 0.930 . S
H2208 C2216 0.930 . S
H2209 C2223 0.931 . S
H2210 C2187 0.929 . S
H2211 C2217 0.930 . S
H2212 C2250 0.930 . S
H2213 C2194 0.930 . S
H2214 C2249 0.929 . S
N2215 Tb2184 2.660 . S
N2215 C2216 1.305 . S
N2215 C2220 1.360 . S
C2216 H2208 0.930 . S
C2216 N2215 1.305 . S
C2216 C2219 1.407 . S
C2217 H2211 0.930 . S
C2217 C2218 1.410 . S
C2217 C2219 1.345 . S
C2218 C2217 1.410 . S
C2218 C2220 1.417 . S
C2218 C2250 1.432 . S
C2219 H2205 0.930 . S
C2219 C2216 1.407 . S
C2219 C2217 1.345 . S
C2220 N2215 1.360 . S
C2220 C2218 1.417 . S
C2220 C2224 1.432 . S
H2221 C2226 0.930 . S
N2222 Tb2184 2.600 1_565 S
N2222 C2224 1.359 1_565 S
N2222 C2225 1.327 . S
C2223 H2209 0.931 . S
C2223 C2225 1.392 . S
C2223 C2226 1.370 . S
C2224 C2220 1.432 . S
C2224 N2222 1.359 1_545 S
C2224 C2227 1.400 1_545 S
C2225 H2207 0.930 . S
C2225 N2222 1.327 . S
C2225 C2223 1.392 . S
C2226 H2221 0.930 . S
C2226 C2223 1.370 . S
C2226 C2227 1.420 . S
C2227 C2224 1.400 1_565 S
C2227 C2226 1.420 . S
C2227 C2249 1.423 1_565 S
O2228 Tb2184 2.546 1_565 S
O2228 C2248 1.251 . S
O2229 Tb2184 2.610 . S
O2229 Tb2195 2.362 . S
O2229 C2240 1.283 . S
O2230 Tb2195 2.421 . S
O2230 C2247 1.262 . S
O2231 Tb2184 2.320 . S
O2231 C2247 1.260 . S
O2232 Tb2184 2.552 1_565 S
O2232 C2240 1.243 1_565 S
O2233 Tb2184 2.413 1_565 S
O2233 C2248 1.256 . S
O2234 Tb2195 2.546 . S
O2234 C2259 1.251 . S
O2235 Tb2184 2.362 . S
O2235 Tb2195 2.610 . S
O2235 C2251 1.283 . S
O2236 Tb2184 2.421 . S
O2236 C2258 1.262 . S
O2237 Tb2195 2.320 . S
O2237 C2258 1.260 . S
O2238 Tb2195 2.552 . S
O2238 C2251 1.243 . S
O2239 Tb2195 2.413 . S
O2239 C2259 1.256 . S
C2240 O2229 1.283 . S
C2240 O2232 1.243 1_545 S
C2241 C2243 1.382 . S
C2241 C2245 1.393 . S
C2241 C2248 1.500 . S
C2242 C2243 1.400 . S
C2242 C2244 1.384 . S
C2243 C2241 1.382 . S
C2243 C2242 1.400 . S
C2243 H2260 0.930 . S
C2244 C2242 1.384 . S
C2244 C2246 1.392 . S
C2244 H2261 0.931 . S
C2245 C2241 1.393 . S
C2245 C2246 1.401 . S
C2245 H2262 0.930 . S
C2246 C2244 1.392 . S
C2246 C2245 1.401 . S
C2246 H2263 0.930 . S
C2247 O2230 1.262 . S
C2247 O2231 1.260 . S
C2248 Tb2184 2.833 1_565 S
C2248 O2228 1.251 . S
C2248 O2233 1.256 . S
C2248 C2241 1.500 . S
C2249 H2214 0.929 . S
C2249 C2227 1.423 1_545 S
C2249 C2250 1.317 . S
C2250 H2212 0.930 . S
C2250 C2218 1.432 . S
C2250 C2249 1.317 . S
C2251 O2235 1.283 . S
C2251 O2238 1.243 . S
C2252 C2253 1.382 . S
C2252 C2256 1.393 . S
C2252 C2259 1.500 . S
C2253 C2252 1.382 . S
C2253 C2254 1.400 . S
C2253 H2264 0.930 . S
C2254 C2253 1.400 . S
C2254 C2255 1.384 . S
C2255 C2254 1.384 . S
C2255 C2257 1.392 . S
C2255 H2265 0.931 . S
C2256 C2252 1.393 . S
C2256 C2257 1.401 . S
C2256 H2266 0.930 . S
C2257 C2255 1.392 . S
C2257 C2256 1.401 . S
C2257 H2267 0.930 . S
C2258 O2236 1.262 . S
C2258 O2237 1.260 . S
C2259 Tb2195 2.833 . S
C2259 O2234 1.251 . S
C2259 O2239 1.256 . S
C2259 C2252 1.500 . S
H2260 C2243 0.930 . S
H2261 C2244 0.931 . S
H2262 C2245 0.930 . S
H2263 C2246 0.930 . S
H2264 C2253 0.930 . S
H2265 C2255 0.931 . S
H2266 C2256 0.930 . S
H2267 C2257 0.930 . S
Tb2268 N2299 2.660 . S
Tb2268 N2306 2.600 1_556 S
Tb2268 O2312 2.546 1_556 S
Tb2268 O2313 2.610 . S
Tb2268 O2315 2.320 . S
Tb2268 O2316 2.552 1_556 S
Tb2268 O2317 2.413 1_556 S
Tb2268 O2319 2.362 . S
Tb2268 O2320 2.421 . S
Tb2268 C2332 2.833 1_556 S
C2269 C2272 1.432 . S
C2269 C2273 1.414 . S
C2269 N2276 1.359 . S
C2270 C2272 1.417 . S
C2270 C2274 1.432 . S
C2270 C2282 1.410 . S
C2271 C2273 1.444 . S
C2271 C2274 1.317 . S
C2271 H2294 0.929 . S
C2272 C2269 1.432 . S
C2272 C2270 1.417 . S
C2272 N2280 1.360 . S
C2273 C2269 1.414 . S
C2273 C2271 1.444 . S
C2273 C2278 1.385 . S
C2274 C2270 1.432 . S
C2274 C2271 1.317 . S
C2274 H2286 0.930 . S
C2275 C2277 1.392 . S
C2275 C2278 1.370 . S
C2275 H2287 0.931 . S
N2276 C2269 1.359 . S
N2276 C2277 1.327 . S
N2276 Tb2279 2.600 . S
C2277 C2275 1.392 . S
C2277 N2276 1.327 . S
C2277 H2284 0.930 . S
C2278 C2273 1.385 . S
C2278 C2275 1.370 . S
C2278 H2297 0.930 . S
Tb2279 N2276 2.600 . S
Tb2279 N2280 2.660 . S
Tb2279 O2313 2.362 . S
Tb2279 O2314 2.421 . S
Tb2279 O2318 2.546 . S
Tb2279 O2319 2.610 . S
Tb2279 O2321 2.320 . S
Tb2279 O2322 2.552 . S
Tb2279 O2323 2.413 . S
Tb2279 C2343 2.833 . S
N2280 C2272 1.360 . S
N2280 Tb2279 2.660 . S
N2280 C2281 1.305 . S
C2281 N2280 1.305 . S
C2281 C2283 1.407 . S
C2281 H2288 0.930 . S
C2282 C2270 1.410 . S
C2282 C2283 1.345 . S
C2282 H2290 0.930 . S
C2283 C2281 1.407 . S
C2283 C2282 1.345 . S
C2283 H2285 0.930 1_556 S
H2284 C2277 0.930 . S
H2285 C2283 0.930 1_554 S
H2286 C2274 0.930 . S
H2287 C2275 0.931 . S
H2288 C2281 0.930 . S
H2289 C2303 0.930 . S
H2290 C2282 0.930 . S
H2291 C2309 0.930 . S
H2292 C2300 0.930 . S
H2293 C2307 0.931 . S
H2294 C2271 0.929 . S
H2295 C2301 0.930 . S
H2296 C2334 0.930 . S
H2297 C2278 0.930 . S
H2298 C2333 0.929 . S
N2299 Tb2268 2.660 . S
N2299 C2300 1.305 . S
N2299 C2304 1.360 . S
C2300 H2292 0.930 . S
C2300 N2299 1.305 . S
C2300 C2303 1.407 . S
C2301 H2295 0.930 . S
C2301 C2302 1.410 . S
C2301 C2303 1.345 . S
C2302 C2301 1.410 . S
C2302 C2304 1.417 . S
C2302 C2334 1.432 . S
C2303 H2289 0.930 . S
C2303 C2300 1.407 . S
C2303 C2301 1.345 . S
C2304 N2299 1.360 . S
C2304 C2302 1.417 . S
C2304 C2308 1.432 . S
H2305 C2310 0.930 . S
N2306 Tb2268 2.600 1_554 S
N2306 C2308 1.359 1_554 S
N2306 C2309 1.327 . S
C2307 H2293 0.931 . S
C2307 C2309 1.392 . S
C2307 C2310 1.370 . S
C2308 C2304 1.432 . S
C2308 N2306 1.359 1_556 S
C2308 C2311 1.402 1_556 S
C2309 H2291 0.930 . S
C2309 N2306 1.327 . S
C2309 C2307 1.392 . S
C2310 H2305 0.930 . S
C2310 C2307 1.370 . S
C2310 C2311 1.416 . S
C2311 C2308 1.402 1_554 S
C2311 C2310 1.416 . S
C2311 C2333 1.426 1_554 S
O2312 Tb2268 2.546 1_554 S
O2312 C2332 1.251 . S
O2313 Tb2268 2.610 . S
O2313 Tb2279 2.362 . S
O2313 C2324 1.283 . S
O2314 Tb2279 2.421 . S
O2314 C2331 1.262 . S
O2315 Tb2268 2.320 . S
O2315 C2331 1.260 . S
O2316 Tb2268 2.552 1_554 S
O2316 C2324 1.243 1_554 S
O2317 Tb2268 2.413 1_554 S
O2317 C2332 1.256 . S
O2318 Tb2279 2.546 . S
O2318 C2343 1.251 . S
O2319 Tb2268 2.362 . S
O2319 Tb2279 2.610 . S
O2319 C2335 1.283 . S
O2320 Tb2268 2.421 . S
O2320 C2342 1.262 . S
O2321 Tb2279 2.320 . S
O2321 C2342 1.260 . S
O2322 Tb2279 2.552 . S
O2322 C2335 1.243 . S
O2323 Tb2279 2.413 . S
O2323 C2343 1.256 . S
C2324 O2313 1.283 . S
C2324 O2316 1.243 1_556 S
C2325 C2327 1.382 . S
C2325 C2329 1.393 . S
C2325 C2332 1.500 . S
C2326 C2327 1.400 . S
C2326 C2328 1.384 . S
C2327 C2325 1.382 . S
C2327 C2326 1.400 . S
C2327 H2344 0.930 . S
C2328 C2326 1.384 . S
C2328 C2330 1.392 . S
C2328 H2345 0.931 . S
C2329 C2325 1.393 . S
C2329 C2330 1.401 . S
C2329 H2346 0.930 . S
C2330 C2328 1.392 . S
C2330 C2329 1.401 . S
C2330 H2347 0.930 . S
C2331 O2314 1.262 . S
C2331 O2315 1.260 . S
C2332 Tb2268 2.833 1_554 S
C2332 O2312 1.251 . S
C2332 O2317 1.256 . S
C2332 C2325 1.500 . S
C2333 H2298 0.929 . S
C2333 C2311 1.426 1_556 S
C2333 C2334 1.317 . S
C2334 H2296 0.930 . S
C2334 C2302 1.432 . S
C2334 C2333 1.317 . S
C2335 O2319 1.283 . S
C2335 O2322 1.243 . S
C2336 C2337 1.382 . S
C2336 C2340 1.393 . S
C2336 C2343 1.500 . S
C2337 C2336 1.382 . S
C2337 C2338 1.400 . S
C2337 H2348 0.930 . S
C2338 C2337 1.400 . S
C2338 C2339 1.384 . S
C2339 C2338 1.384 . S
C2339 C2341 1.392 . S
C2339 H2349 0.931 . S
C2340 C2336 1.393 . S
C2340 C2341 1.401 . S
C2340 H2350 0.930 . S
C2341 C2339 1.392 . S
C2341 C2340 1.401 . S
C2341 H2351 0.930 . S
C2342 O2320 1.262 . S
C2342 O2321 1.260 . S
C2343 Tb2279 2.833 . S
C2343 O2318 1.251 . S
C2343 O2323 1.256 . S
C2343 C2336 1.500 . S
H2344 C2327 0.930 . S
H2345 C2328 0.931 . S
H2346 C2329 0.930 . S
H2347 C2330 0.930 . S
H2348 C2337 0.930 . S
H2349 C2339 0.931 . S
H2350 C2340 0.930 . S
H2351 C2341 0.930 . S
Tb2352 N2383 2.660 . S
Tb2352 N2390 2.600 . S
Tb2352 O2396 2.546 . S
Tb2352 O2397 2.610 . S
Tb2352 O2399 2.320 . S
Tb2352 O2400 2.552 . S
Tb2352 O2401 2.413 . S
Tb2352 O2403 2.362 . S
Tb2352 O2404 2.421 . S
Tb2352 C2416 2.833 . S
C2353 C2356 1.432 . S
C2353 C2357 1.414 . S
C2353 N2360 1.359 . S
C2354 C2356 1.417 . S
C2354 C2358 1.432 . S
C2354 C2366 1.410 . S
C2355 C2357 1.444 . S
C2355 C2358 1.317 . S
C2355 H2378 0.929 . S
C2356 C2353 1.432 . S
C2356 C2354 1.417 . S
C2356 N2364 1.360 . S
C2357 C2353 1.414 . S
C2357 C2355 1.444 . S
C2357 C2362 1.385 . S
C2358 C2354 1.432 . S
C2358 C2355 1.317 . S
C2358 H2370 0.930 . S
C2359 C2361 1.392 1_655 S
C2359 C2362 1.370 . S
C2359 H2371 0.931 1_655 S
N2360 C2353 1.359 . S
N2360 C2361 1.327 1_655 S
N2360 Tb2363 2.600 1_655 S
C2361 C2359 1.392 1_455 S
C2361 N2360 1.327 1_455 S
C2361 H2368 0.930 . S
C2362 C2357 1.385 . S
C2362 C2359 1.370 . S
C2362 H2381 0.930 . S
Tb2363 N2360 2.600 1_455 S
Tb2363 N2364 2.660 1_455 S
Tb2363 O2397 2.362 . S
Tb2363 O2398 2.421 . S
Tb2363 O2402 2.546 1_455 S
Tb2363 O2403 2.610 . S
Tb2363 O2405 2.320 1_455 S
Tb2363 O2406 2.552 . S
Tb2363 O2407 2.413 1_455 S
Tb2363 C2427 2.833 1_455 S
N2364 C2356 1.360 . S
N2364 Tb2363 2.660 1_655 S
N2364 C2365 1.305 . S
C2365 N2364 1.305 . S
C2365 C2367 1.407 . S
C2365 H2372 0.930 . S
C2366 C2354 1.410 . S
C2366 C2367 1.345 . S
C2366 H2374 0.930 . S
C2367 C2365 1.407 . S
C2367 C2366 1.345 . S
C2367 H2369 0.930 . S
H2368 C2361 0.930 . S
H2369 C2367 0.930 . S
H2370 C2358 0.930 . S
H2371 C2359 0.931 1_455 S
H2372 C2365 0.930 . S
H2373 C2387 0.930 . S
H2374 C2366 0.930 . S
H2375 C2393 0.930 . S
H2376 C2384 0.930 . S
H2377 C2391 0.931 . S
H2378 C2355 0.929 . S
H2379 C2385 0.930 . S
H2380 C2418 0.930 . S
H2381 C2362 0.930 . S
H2382 C2417 0.929 . S
N2383 Tb2352 2.660 . S
N2383 C2384 1.305 . S
N2383 C2388 1.360 . S
C2384 H2376 0.930 . S
C2384 N2383 1.305 . S
C2384 C2387 1.407 . S
C2385 H2379 0.930 . S
C2385 C2386 1.410 . S
C2385 C2387 1.345 . S
C2386 C2385 1.410 . S
C2386 C2388 1.417 . S
C2386 C2418 1.432 . S
C2387 H2373 0.930 . S
C2387 C2384 1.407 . S
C2387 C2385 1.345 . S
C2388 N2383 1.360 . S
C2388 C2386 1.417 . S
C2388 C2392 1.432 . S
H2389 C2394 0.930 . S
N2390 Tb2352 2.600 . S
N2390 C2392 1.359 . S
N2390 C2393 1.327 . S
C2391 H2377 0.931 . S
C2391 C2393 1.392 . S
C2391 C2394 1.370 . S
C2392 C2388 1.432 . S
C2392 N2390 1.359 . S
C2392 C2395 1.414 . S
C2393 H2375 0.930 . S
C2393 N2390 1.327 . S
C2393 C2391 1.392 . S
C2394 H2389 0.930 . S
C2394 C2391 1.370 . S
C2394 C2395 1.385 . S
C2395 C2392 1.414 . S
C2395 C2394 1.385 . S
C2395 C2417 1.444 . S
O2396 Tb2352 2.546 . S
O2396 C2416 1.251 . S
O2397 Tb2352 2.610 . S
O2397 Tb2363 2.362 . S
O2397 C2408 1.283 . S
O2398 Tb2363 2.421 . S
O2398 C2415 1.262 . S
O2399 Tb2352 2.320 . S
O2399 C2415 1.260 . S
O2400 Tb2352 2.552 . S
O2400 C2408 1.243 . S
O2401 Tb2352 2.413 . S
O2401 C2416 1.256 . S
O2402 Tb2363 2.546 1_655 S
O2402 C2427 1.251 . S
O2403 Tb2352 2.362 . S
O2403 Tb2363 2.610 . S
O2403 C2419 1.283 . S
O2404 Tb2352 2.421 . S
O2404 C2426 1.262 . S
O2405 Tb2363 2.320 1_655 S
O2405 C2426 1.260 1_655 S
O2406 Tb2363 2.552 . S
O2406 C2419 1.243 . S
O2407 Tb2363 2.413 1_655 S
O2407 C2427 1.256 . S
C2408 O2397 1.283 . S
C2408 O2400 1.243 . S
C2409 C2411 1.382 . S
C2409 C2413 1.393 . S
C2409 C2416 1.500 . S
C2410 C2411 1.400 . S
C2410 C2412 1.384 . S
C2411 C2409 1.382 . S
C2411 C2410 1.400 . S
C2411 H2428 0.930 . S
C2412 C2410 1.384 . S
C2412 C2414 1.392 . S
C2412 H2429 0.931 . S
C2413 C2409 1.393 . S
C2413 C2414 1.401 . S
C2413 H2430 0.930 . S
C2414 C2412 1.392 . S
C2414 C2413 1.401 . S
C2414 H2431 0.930 . S
C2415 O2398 1.262 . S
C2415 O2399 1.260 . S
C2416 Tb2352 2.833 . S
C2416 O2396 1.251 . S
C2416 O2401 1.256 . S
C2416 C2409 1.500 . S
C2417 H2382 0.929 . S
C2417 C2395 1.444 . S
C2417 C2418 1.317 . S
C2418 H2380 0.930 . S
C2418 C2386 1.432 . S
C2418 C2417 1.317 . S
C2419 O2403 1.283 . S
C2419 O2406 1.243 . S
C2420 C2421 1.382 . S
C2420 C2424 1.393 . S
C2420 C2427 1.500 . S
C2421 C2420 1.382 . S
C2421 C2422 1.400 . S
C2421 H2432 0.930 . S
C2422 C2421 1.400 . S
C2422 C2423 1.384 . S
C2423 C2422 1.384 . S
C2423 C2425 1.392 . S
C2423 H2433 0.931 . S
C2424 C2420 1.393 . S
C2424 C2425 1.401 . S
C2424 H2434 0.930 . S
C2425 C2423 1.392 . S
C2425 C2424 1.401 . S
C2425 H2435 0.930 . S
C2426 O2404 1.262 . S
C2426 O2405 1.260 1_455 S
C2427 Tb2363 2.833 1_655 S
C2427 O2402 1.251 . S
C2427 O2407 1.256 . S
C2427 C2420 1.500 . S
H2428 C2411 0.930 . S
H2429 C2412 0.931 . S
H2430 C2413 0.930 . S
H2431 C2414 0.930 . S
H2432 C2421 0.930 . S
H2433 C2423 0.931 . S
H2434 C2424 0.930 . S
H2435 C2425 0.930 . S
Tb2436 N2467 2.660 . S
Tb2436 N2474 2.600 . S
Tb2436 O2480 2.546 . S
Tb2436 O2481 2.610 . S
Tb2436 O2483 2.320 . S
Tb2436 O2484 2.552 . S
Tb2436 O2485 2.413 . S
Tb2436 O2487 2.362 . S
Tb2436 O2488 2.421 . S
Tb2436 C2500 2.833 . S
C2437 C2440 1.432 . S
C2437 C2441 1.414 . S
C2437 N2444 1.359 . S
C2438 C2440 1.417 . S
C2438 C2442 1.432 . S
C2438 C2450 1.410 . S
C2439 C2441 1.444 . S
C2439 C2442 1.317 . S
C2439 H2462 0.929 . S
C2440 C2437 1.432 . S
C2440 C2438 1.417 . S
C2440 N2448 1.360 . S
C2441 C2437 1.414 . S
C2441 C2439 1.444 . S
C2441 C2446 1.385 . S
C2442 C2438 1.432 . S
C2442 C2439 1.317 . S
C2442 H2454 0.930 . S
C2443 C2445 1.392 . S
C2443 C2446 1.370 . S
C2443 H2455 0.931 . S
N2444 C2437 1.359 . S
N2444 C2445 1.327 . S
N2444 Tb2447 2.600 . S
C2445 C2443 1.392 . S
C2445 N2444 1.327 . S
C2445 H2452 0.930 . S
C2446 C2441 1.385 . S
C2446 C2443 1.370 . S
C2446 H2465 0.930 . S
Tb2447 N2444 2.600 . S
Tb2447 N2448 2.660 . S
Tb2447 O2481 2.362 . S
Tb2447 O2482 2.421 . S
Tb2447 O2486 2.546 . S
Tb2447 O2487 2.610 . S
Tb2447 O2489 2.320 . S
Tb2447 O2490 2.552 . S
Tb2447 O2491 2.413 . S
Tb2447 C2511 2.833 . S
N2448 C2440 1.360 . S
N2448 Tb2447 2.660 . S
N2448 C2449 1.305 . S
C2449 N2448 1.305 . S
C2449 C2451 1.407 . S
C2449 H2456 0.930 . S
C2450 C2438 1.410 . S
C2450 C2451 1.345 . S
C2450 H2458 0.930 . S
C2451 C2449 1.407 . S
C2451 C2450 1.345 . S
C2451 H2453 0.930 . S
H2452 C2445 0.930 . S
H2453 C2451 0.930 . S
H2454 C2442 0.930 . S
H2455 C2443 0.931 . S
H2456 C2449 0.930 . S
H2457 C2471 0.930 . S
H2458 C2450 0.930 . S
H2459 C2477 0.930 . S
H2460 C2468 0.930 . S
H2461 C2475 0.931 . S
H2462 C2439 0.929 . S
H2463 C2469 0.930 . S
H2464 C2502 0.930 . S
H2465 C2446 0.930 . S
H2466 C2501 0.929 . S
N2467 Tb2436 2.660 . S
N2467 C2468 1.305 . S
N2467 C2472 1.360 . S
C2468 H2460 0.930 . S
C2468 N2467 1.305 . S
C2468 C2471 1.407 . S
C2469 H2463 0.930 . S
C2469 C2470 1.410 . S
C2469 C2471 1.345 . S
C2470 C2469 1.410 . S
C2470 C2472 1.417 . S
C2470 C2502 1.432 . S
C2471 H2457 0.930 . S
C2471 C2468 1.407 . S
C2471 C2469 1.345 . S
C2472 N2467 1.360 . S
C2472 C2470 1.417 . S
C2472 C2476 1.432 . S
H2473 C2478 0.930 . S
N2474 Tb2436 2.600 . S
N2474 C2476 1.359 . S
N2474 C2477 1.327 . S
C2475 H2461 0.931 . S
C2475 C2477 1.392 . S
C2475 C2478 1.370 . S
C2476 C2472 1.432 . S
C2476 N2474 1.359 . S
C2476 C2479 1.414 . S
C2477 H2459 0.930 . S
C2477 N2474 1.327 . S
C2477 C2475 1.392 . S
C2478 H2473 0.930 . S
C2478 C2475 1.370 . S
C2478 C2479 1.385 . S
C2479 C2476 1.414 . S
C2479 C2478 1.385 . S
C2479 C2501 1.444 . S
O2480 Tb2436 2.546 . S
O2480 C2500 1.251 . S
O2481 Tb2436 2.610 . S
O2481 Tb2447 2.362 . S
O2481 C2492 1.283 . S
O2482 Tb2447 2.421 . S
O2482 C2499 1.262 . S
O2483 Tb2436 2.320 . S
O2483 C2499 1.260 . S
O2484 Tb2436 2.552 . S
O2484 C2492 1.243 . S
O2485 Tb2436 2.413 . S
O2485 C2500 1.256 . S
O2486 Tb2447 2.546 . S
O2486 C2511 1.251 . S
O2487 Tb2436 2.362 . S
O2487 Tb2447 2.610 . S
O2487 C2503 1.283 . S
O2488 Tb2436 2.421 . S
O2488 C2510 1.262 . S
O2489 Tb2447 2.320 . S
O2489 C2510 1.260 . S
O2490 Tb2447 2.552 . S
O2490 C2503 1.243 . S
O2491 Tb2447 2.413 . S
O2491 C2511 1.256 . S
C2492 O2481 1.283 . S
C2492 O2484 1.243 . S
C2493 C2495 1.382 . S
C2493 C2497 1.393 . S
C2493 C2500 1.500 . S
C2494 C2495 1.400 . S
C2494 C2496 1.384 . S
C2495 C2493 1.382 . S
C2495 C2494 1.400 . S
C2495 H2512 0.930 . S
C2496 C2494 1.384 . S
C2496 C2498 1.392 . S
C2496 H2513 0.931 . S
C2497 C2493 1.393 . S
C2497 C2498 1.401 . S
C2497 H2514 0.930 . S
C2498 C2496 1.392 . S
C2498 C2497 1.401 . S
C2498 H2515 0.930 . S
C2499 O2482 1.262 . S
C2499 O2483 1.260 . S
C2500 Tb2436 2.833 . S
C2500 O2480 1.251 . S
C2500 O2485 1.256 . S
C2500 C2493 1.500 . S
C2501 H2466 0.929 . S
C2501 C2479 1.444 . S
C2501 C2502 1.317 . S
C2502 H2464 0.930 . S
C2502 C2470 1.432 . S
C2502 C2501 1.317 . S
C2503 O2487 1.283 . S
C2503 O2490 1.243 . S
C2504 C2505 1.382 . S
C2504 C2508 1.393 . S
C2504 C2511 1.500 . S
C2505 C2504 1.382 . S
C2505 C2506 1.400 . S
C2505 H2516 0.930 . S
C2506 C2505 1.400 . S
C2506 C2507 1.384 . S
C2507 C2506 1.384 . S
C2507 C2509 1.392 . S
C2507 H2517 0.931 . S
C2508 C2504 1.393 . S
C2508 C2509 1.401 . S
C2508 H2518 0.930 . S
C2509 C2507 1.392 . S
C2509 C2508 1.401 . S
C2509 H2519 0.930 . S
C2510 O2488 1.262 . S
C2510 O2489 1.260 . S
C2511 Tb2447 2.833 . S
C2511 O2486 1.251 . S
C2511 O2491 1.256 . S
C2511 C2504 1.500 . S
H2512 C2495 0.930 . S
H2513 C2496 0.931 . S
H2514 C2497 0.930 . S
H2515 C2498 0.930 . S
H2516 C2505 0.930 . S
H2517 C2507 0.931 . S
H2518 C2508 0.930 . S
H2519 C2509 0.930 . S
Tb2520 N2551 2.660 . S
Tb2520 N2558 2.600 . S
Tb2520 O2564 2.546 . S
Tb2520 O2565 2.610 . S
Tb2520 O2567 2.320 . S
Tb2520 O2568 2.552 . S
Tb2520 O2569 2.413 . S
Tb2520 O2571 2.362 . S
Tb2520 O2572 2.421 . S
Tb2520 C2584 2.833 . S
C2521 C2524 1.432 . S
C2521 C2525 1.414 . S
C2521 N2528 1.359 . S
C2522 C2524 1.417 . S
C2522 C2526 1.432 . S
C2522 C2534 1.410 . S
C2523 C2525 1.444 . S
C2523 C2526 1.317 . S
C2523 H2546 0.929 . S
C2524 C2521 1.432 . S
C2524 C2522 1.417 . S
C2524 N2532 1.360 . S
C2525 C2521 1.414 . S
C2525 C2523 1.444 . S
C2525 C2530 1.385 . S
C2526 C2522 1.432 . S
C2526 C2523 1.317 . S
C2526 H2538 0.930 . S
C2527 C2529 1.392 . S
C2527 C2530 1.370 . S
C2527 H2539 0.931 . S
N2528 C2521 1.359 . S
N2528 C2529 1.327 . S
N2528 Tb2531 2.600 . S
C2529 C2527 1.392 . S
C2529 N2528 1.327 . S
C2529 H2536 0.930 . S
C2530 C2525 1.385 . S
C2530 C2527 1.370 . S
C2530 H2549 0.930 . S
Tb2531 N2528 2.600 . S
Tb2531 N2532 2.660 . S
Tb2531 O2565 2.362 . S
Tb2531 O2566 2.421 . S
Tb2531 O2570 2.546 . S
Tb2531 O2571 2.610 . S
Tb2531 O2573 2.320 . S
Tb2531 O2574 2.552 . S
Tb2531 O2575 2.413 . S
Tb2531 C2595 2.833 . S
N2532 C2524 1.360 . S
N2532 Tb2531 2.660 . S
N2532 C2533 1.305 . S
C2533 N2532 1.305 . S
C2533 C2535 1.407 . S
C2533 H2540 0.930 . S
C2534 C2522 1.410 . S
C2534 C2535 1.345 . S
C2534 H2542 0.930 . S
C2535 C2533 1.407 . S
C2535 C2534 1.345 . S
C2535 H2537 0.930 . S
H2536 C2529 0.930 . S
H2537 C2535 0.930 . S
H2538 C2526 0.930 . S
H2539 C2527 0.931 . S
H2540 C2533 0.930 . S
H2541 C2555 0.930 . S
H2542 C2534 0.930 . S
H2543 C2561 0.930 . S
H2544 C2552 0.930 . S
H2545 C2559 0.931 . S
H2546 C2523 0.929 . S
H2547 C2553 0.930 . S
H2548 C2586 0.930 . S
H2549 C2530 0.930 . S
H2550 C2585 0.929 . S
N2551 Tb2520 2.660 . S
N2551 C2552 1.305 . S
N2551 C2556 1.360 . S
C2552 H2544 0.930 . S
C2552 N2551 1.305 . S
C2552 C2555 1.407 . S
C2553 H2547 0.930 . S
C2553 C2554 1.410 . S
C2553 C2555 1.345 . S
C2554 C2553 1.410 . S
C2554 C2556 1.417 . S
C2554 C2586 1.432 . S
C2555 H2541 0.930 . S
C2555 C2552 1.407 . S
C2555 C2553 1.345 . S
C2556 N2551 1.360 . S
C2556 C2554 1.417 . S
C2556 C2560 1.432 . S
H2557 C2562 0.930 . S
N2558 Tb2520 2.600 . S
N2558 C2560 1.359 . S
N2558 C2561 1.327 . S
C2559 H2545 0.931 . S
C2559 C2561 1.392 . S
C2559 C2562 1.370 . S
C2560 C2556 1.432 . S
C2560 N2558 1.359 . S
C2560 C2563 1.414 . S
C2561 H2543 0.930 . S
C2561 N2558 1.327 . S
C2561 C2559 1.392 . S
C2562 H2557 0.930 . S
C2562 C2559 1.370 . S
C2562 C2563 1.385 . S
C2563 C2560 1.414 . S
C2563 C2562 1.385 . S
C2563 C2585 1.444 . S
O2564 Tb2520 2.546 . S
O2564 C2584 1.251 . S
O2565 Tb2520 2.610 . S
O2565 Tb2531 2.362 . S
O2565 C2576 1.283 . S
O2566 Tb2531 2.421 . S
O2566 C2583 1.262 . S
O2567 Tb2520 2.320 . S
O2567 C2583 1.260 . S
O2568 Tb2520 2.552 . S
O2568 C2576 1.243 . S
O2569 Tb2520 2.413 . S
O2569 C2584 1.256 . S
O2570 Tb2531 2.546 . S
O2570 C2595 1.251 . S
O2571 Tb2520 2.362 . S
O2571 Tb2531 2.610 . S
O2571 C2587 1.283 . S
O2572 Tb2520 2.421 . S
O2572 C2594 1.262 . S
O2573 Tb2531 2.320 . S
O2573 C2594 1.260 . S
O2574 Tb2531 2.552 . S
O2574 C2587 1.243 . S
O2575 Tb2531 2.413 . S
O2575 C2595 1.256 . S
C2576 O2565 1.283 . S
C2576 O2568 1.243 . S
C2577 C2579 1.382 . S
C2577 C2581 1.393 . S
C2577 C2584 1.500 . S
C2578 C2579 1.400 . S
C2578 C2580 1.384 . S
C2579 C2577 1.382 . S
C2579 C2578 1.400 . S
C2579 H2596 0.930 . S
C2580 C2578 1.384 . S
C2580 C2582 1.392 . S
C2580 H2597 0.931 . S
C2581 C2577 1.393 . S
C2581 C2582 1.401 . S
C2581 H2598 0.930 . S
C2582 C2580 1.392 . S
C2582 C2581 1.401 . S
C2582 H2599 0.930 . S
C2583 O2566 1.262 . S
C2583 O2567 1.260 . S
C2584 Tb2520 2.833 . S
C2584 O2564 1.251 . S
C2584 O2569 1.256 . S
C2584 C2577 1.500 . S
C2585 H2550 0.929 . S
C2585 C2563 1.444 . S
C2585 C2586 1.317 . S
C2586 H2548 0.930 . S
C2586 C2554 1.432 . S
C2586 C2585 1.317 . S
C2587 O2571 1.283 . S
C2587 O2574 1.243 . S
C2588 C2589 1.382 . S
C2588 C2592 1.393 . S
C2588 C2595 1.500 . S
C2589 C2588 1.382 . S
C2589 C2590 1.400 . S
C2589 H2600 0.930 . S
C2590 C2589 1.400 . S
C2590 C2591 1.384 . S
C2591 C2590 1.384 . S
C2591 C2593 1.392 . S
C2591 H2601 0.931 . S
C2592 C2588 1.393 . S
C2592 C2593 1.401 . S
C2592 H2602 0.930 . S
C2593 C2591 1.392 . S
C2593 C2592 1.401 . S
C2593 H2603 0.930 . S
C2594 O2572 1.262 . S
C2594 O2573 1.260 . S
C2595 Tb2531 2.833 . S
C2595 O2570 1.251 . S
C2595 O2575 1.256 . S
C2595 C2588 1.500 . S
H2596 C2579 0.930 . S
H2597 C2580 0.931 . S
H2598 C2581 0.930 . S
H2599 C2582 0.930 . S
H2600 C2589 0.930 . S
H2601 C2591 0.931 . S
H2602 C2592 0.930 . S
H2603 C2593 0.930 . S
Tb2604 N2635 2.660 . S
Tb2604 N2642 2.600 . S
Tb2604 O2648 2.546 . S
Tb2604 O2649 2.610 . S
Tb2604 O2651 2.320 . S
Tb2604 O2652 2.552 . S
Tb2604 O2653 2.413 . S
Tb2604 O2655 2.362 . S
Tb2604 O2656 2.421 . S
Tb2604 C2668 2.833 . S
C2605 C2608 1.432 . S
C2605 C2609 1.415 1_655 S
C2605 N2612 1.359 1_655 S
C2606 C2608 1.417 . S
C2606 C2610 1.432 . S
C2606 C2618 1.410 . S
C2607 C2609 1.446 1_655 S
C2607 C2610 1.317 . S
C2607 H2630 0.929 . S
C2608 C2605 1.432 . S
C2608 C2606 1.417 . S
C2608 N2616 1.360 . S
C2609 C2605 1.415 1_455 S
C2609 C2607 1.446 1_455 S
C2609 C2614 1.382 . S
C2610 C2606 1.432 . S
C2610 C2607 1.317 . S
C2610 H2622 0.930 . S
C2611 C2613 1.392 . S
C2611 C2614 1.370 . S
C2611 H2623 0.931 . S
N2612 C2605 1.359 1_455 S
N2612 C2613 1.327 . S
N2612 Tb2615 2.600 1_455 S
C2613 C2611 1.392 . S
C2613 N2612 1.327 . S
C2613 H2620 0.930 . S
C2614 C2609 1.382 . S
C2614 C2611 1.370 . S
C2614 H2633 0.930 . S
Tb2615 N2612 2.600 1_655 S
Tb2615 N2616 2.660 . S
Tb2615 O2649 2.362 . S
Tb2615 O2650 2.421 . S
Tb2615 O2654 2.546 1_655 S
Tb2615 O2655 2.610 . S
Tb2615 O2657 2.320 . S
Tb2615 O2658 2.552 1_655 S
Tb2615 O2659 2.413 1_655 S
Tb2615 C2679 2.833 1_655 S
N2616 C2608 1.360 . S
N2616 Tb2615 2.660 . S
N2616 C2617 1.305 . S
C2617 N2616 1.305 . S
C2617 C2619 1.407 . S
C2617 H2624 0.930 . S
C2618 C2606 1.410 . S
C2618 C2619 1.345 . S
C2618 H2626 0.930 . S
C2619 C2617 1.407 . S
C2619 C2618 1.345 . S
C2619 H2621 0.930 . S
H2620 C2613 0.930 . S
H2621 C2619 0.930 . S
H2622 C2610 0.930 . S
H2623 C2611 0.931 . S
H2624 C2617 0.930 . S
H2625 C2639 0.930 1_455 S
H2626 C2618 0.930 . S
H2627 C2645 0.930 . S
H2628 C2636 0.930 . S
H2629 C2643 0.931 . S
H2630 C2607 0.929 . S
H2631 C2637 0.930 . S
H2632 C2670 0.930 . S
H2633 C2614 0.930 . S
H2634 C2669 0.929 . S
N2635 Tb2604 2.660 . S
N2635 C2636 1.305 . S
N2635 C2640 1.360 . S
C2636 H2628 0.930 . S
C2636 N2635 1.305 . S
C2636 C2639 1.407 . S
C2637 H2631 0.930 . S
C2637 C2638 1.410 . S
C2637 C2639 1.345 . S
C2638 C2637 1.410 . S
C2638 C2640 1.417 . S
C2638 C2670 1.432 . S
C2639 H2625 0.930 1_655 S
C2639 C2636 1.407 . S
C2639 C2637 1.345 . S
C2640 N2635 1.360 . S
C2640 C2638 1.417 . S
C2640 C2644 1.432 . S
H2641 C2646 0.930 . S
N2642 Tb2604 2.600 . S
N2642 C2644 1.359 . S
N2642 C2645 1.327 . S
C2643 H2629 0.931 . S
C2643 C2645 1.392 . S
C2643 C2646 1.370 . S
C2644 C2640 1.432 . S
C2644 N2642 1.359 . S
C2644 C2647 1.414 . S
C2645 H2627 0.930 . S
C2645 N2642 1.327 . S
C2645 C2643 1.392 . S
C2646 H2641 0.930 . S
C2646 C2643 1.370 . S
C2646 C2647 1.385 . S
C2647 C2644 1.414 . S
C2647 C2646 1.385 . S
C2647 C2669 1.444 . S
O2648 Tb2604 2.546 . S
O2648 C2668 1.251 . S
O2649 Tb2604 2.610 . S
O2649 Tb2615 2.362 . S
O2649 C2660 1.283 . S
O2650 Tb2615 2.421 . S
O2650 C2667 1.262 . S
O2651 Tb2604 2.320 . S
O2651 C2667 1.260 . S
O2652 Tb2604 2.552 . S
O2652 C2660 1.243 . S
O2653 Tb2604 2.413 . S
O2653 C2668 1.256 . S
O2654 Tb2615 2.546 1_455 S
O2654 C2679 1.251 . S
O2655 Tb2604 2.362 . S
O2655 Tb2615 2.610 . S
O2655 C2671 1.283 . S
O2656 Tb2604 2.421 . S
O2656 C2678 1.262 . S
O2657 Tb2615 2.320 . S
O2657 C2678 1.260 . S
O2658 Tb2615 2.552 1_455 S
O2658 C2671 1.243 1_455 S
O2659 Tb2615 2.413 1_455 S
O2659 C2679 1.256 . S
C2660 O2649 1.283 . S
C2660 O2652 1.243 . S
C2661 C2663 1.382 . S
C2661 C2665 1.393 . S
C2661 C2668 1.500 . S
C2662 C2663 1.400 . S
C2662 C2664 1.384 . S
C2663 C2661 1.382 . S
C2663 C2662 1.400 . S
C2663 H2680 0.930 . S
C2664 C2662 1.384 . S
C2664 C2666 1.392 . S
C2664 H2681 0.931 . S
C2665 C2661 1.393 . S
C2665 C2666 1.401 . S
C2665 H2682 0.930 . S
C2666 C2664 1.392 . S
C2666 C2665 1.401 . S
C2666 H2683 0.930 . S
C2667 O2650 1.262 . S
C2667 O2651 1.260 . S
C2668 Tb2604 2.833 . S
C2668 O2648 1.251 . S
C2668 O2653 1.256 . S
C2668 C2661 1.500 . S
C2669 H2634 0.929 . S
C2669 C2647 1.444 . S
C2669 C2670 1.317 . S
C2670 H2632 0.930 . S
C2670 C2638 1.432 . S
C2670 C2669 1.317 . S
C2671 O2655 1.283 . S
C2671 O2658 1.243 1_655 S
C2672 C2673 1.382 . S
C2672 C2676 1.393 . S
C2672 C2679 1.500 . S
C2673 C2672 1.382 . S
C2673 C2674 1.400 . S
C2673 H2684 0.930 . S
C2674 C2673 1.400 . S
C2674 C2675 1.384 . S
C2675 C2674 1.384 . S
C2675 C2677 1.392 . S
C2675 H2685 0.931 . S
C2676 C2672 1.393 . S
C2676 C2677 1.401 . S
C2676 H2686 0.930 . S
C2677 C2675 1.392 . S
C2677 C2676 1.401 . S
C2677 H2687 0.930 . S
C2678 O2656 1.262 . S
C2678 O2657 1.260 . S
C2679 Tb2615 2.833 1_455 S
C2679 O2654 1.251 . S
C2679 O2659 1.256 . S
C2679 C2672 1.500 . S
H2680 C2663 0.930 . S
H2681 C2664 0.931 . S
H2682 C2665 0.930 . S
H2683 C2666 0.930 . S
H2684 C2673 0.930 . S
H2685 C2675 0.931 . S
H2686 C2676 0.930 . S
H2687 C2677 0.930 . S
Tb2688 N2719 2.660 . S
Tb2688 N2726 2.600 . S
Tb2688 O2732 2.546 . S
Tb2688 O2733 2.610 . S
Tb2688 O2735 2.320 . S
Tb2688 O2736 2.552 . S
Tb2688 O2737 2.413 . S
Tb2688 O2739 2.362 . S
Tb2688 O2740 2.421 . S
Tb2688 C2752 2.833 . S
C2689 C2692 1.432 . S
C2689 C2693 1.414 . S
C2689 N2696 1.359 . S
C2690 C2692 1.417 . S
C2690 C2694 1.432 . S
C2690 C2702 1.410 . S
C2691 C2693 1.444 . S
C2691 C2694 1.317 . S
C2691 H2714 0.929 . S
C2692 C2689 1.432 . S
C2692 C2690 1.417 . S
C2692 N2700 1.360 . S
C2693 C2689 1.414 . S
C2693 C2691 1.444 . S
C2693 C2698 1.385 . S
C2694 C2690 1.432 . S
C2694 C2691 1.317 . S
C2694 H2706 0.930 . S
C2695 C2697 1.392 . S
C2695 C2698 1.370 . S
C2695 H2707 0.931 . S
N2696 C2689 1.359 . S
N2696 C2697 1.327 . S
N2696 Tb2699 2.600 . S
C2697 C2695 1.392 . S
C2697 N2696 1.327 . S
C2697 H2704 0.930 . S
C2698 C2693 1.385 . S
C2698 C2695 1.370 . S
C2698 H2717 0.930 . S
Tb2699 N2696 2.600 . S
Tb2699 N2700 2.660 . S
Tb2699 O2733 2.362 . S
Tb2699 O2734 2.421 . S
Tb2699 O2738 2.546 . S
Tb2699 O2739 2.610 . S
Tb2699 O2741 2.320 . S
Tb2699 O2742 2.552 . S
Tb2699 O2743 2.413 . S
Tb2699 C2763 2.833 . S
N2700 C2692 1.360 . S
N2700 Tb2699 2.660 . S
N2700 C2701 1.305 . S
C2701 N2700 1.305 . S
C2701 C2703 1.407 . S
C2701 H2708 0.930 . S
C2702 C2690 1.410 . S
C2702 C2703 1.345 . S
C2702 H2710 0.930 . S
C2703 C2701 1.407 . S
C2703 C2702 1.345 . S
C2703 H2705 0.930 . S
H2704 C2697 0.930 . S
H2705 C2703 0.930 . S
H2706 C2694 0.930 . S
H2707 C2695 0.931 . S
H2708 C2701 0.930 . S
H2709 C2723 0.930 . S
H2710 C2702 0.930 . S
H2711 C2729 0.930 . S
H2712 C2720 0.930 . S
H2713 C2727 0.931 . S
H2714 C2691 0.929 . S
H2715 C2721 0.930 . S
H2716 C2754 0.930 . S
H2717 C2698 0.930 . S
H2718 C2753 0.929 . S
N2719 Tb2688 2.660 . S
N2719 C2720 1.305 . S
N2719 C2724 1.360 . S
C2720 H2712 0.930 . S
C2720 N2719 1.305 . S
C2720 C2723 1.407 . S
C2721 H2715 0.930 . S
C2721 C2722 1.410 . S
C2721 C2723 1.345 . S
C2722 C2721 1.410 . S
C2722 C2724 1.417 . S
C2722 C2754 1.432 . S
C2723 H2709 0.930 . S
C2723 C2720 1.407 . S
C2723 C2721 1.345 . S
C2724 N2719 1.360 . S
C2724 C2722 1.417 . S
C2724 C2728 1.432 . S
H2725 C2730 0.930 . S
N2726 Tb2688 2.600 . S
N2726 C2728 1.359 . S
N2726 C2729 1.327 . S
C2727 H2713 0.931 . S
C2727 C2729 1.392 . S
C2727 C2730 1.370 . S
C2728 C2724 1.432 . S
C2728 N2726 1.359 . S
C2728 C2731 1.414 . S
C2729 H2711 0.930 . S
C2729 N2726 1.327 . S
C2729 C2727 1.392 . S
C2730 H2725 0.930 . S
C2730 C2727 1.370 . S
C2730 C2731 1.385 . S
C2731 C2728 1.414 . S
C2731 C2730 1.385 . S
C2731 C2753 1.444 . S
O2732 Tb2688 2.546 . S
O2732 C2752 1.251 . S
O2733 Tb2688 2.610 . S
O2733 Tb2699 2.362 . S
O2733 C2744 1.283 . S
O2734 Tb2699 2.421 . S
O2734 C2751 1.262 . S
O2735 Tb2688 2.320 . S
O2735 C2751 1.260 . S
O2736 Tb2688 2.552 . S
O2736 C2744 1.243 . S
O2737 Tb2688 2.413 . S
O2737 C2752 1.256 . S
O2738 Tb2699 2.546 . S
O2738 C2763 1.251 . S
O2739 Tb2688 2.362 . S
O2739 Tb2699 2.610 . S
O2739 C2755 1.283 . S
O2740 Tb2688 2.421 . S
O2740 C2762 1.262 . S
O2741 Tb2699 2.320 . S
O2741 C2762 1.260 . S
O2742 Tb2699 2.552 . S
O2742 C2755 1.243 . S
O2743 Tb2699 2.413 . S
O2743 C2763 1.256 . S
C2744 O2733 1.283 . S
C2744 O2736 1.243 . S
C2745 C2747 1.382 . S
C2745 C2749 1.393 . S
C2745 C2752 1.500 . S
C2746 C2747 1.400 . S
C2746 C2748 1.384 . S
C2747 C2745 1.382 . S
C2747 C2746 1.400 . S
C2747 H2764 0.930 . S
C2748 C2746 1.384 . S
C2748 C2750 1.392 . S
C2748 H2765 0.931 . S
C2749 C2745 1.393 . S
C2749 C2750 1.401 . S
C2749 H2766 0.930 . S
C2750 C2748 1.392 . S
C2750 C2749 1.401 . S
C2750 H2767 0.930 . S
C2751 O2734 1.262 . S
C2751 O2735 1.260 . S
C2752 Tb2688 2.833 . S
C2752 O2732 1.251 . S
C2752 O2737 1.256 . S
C2752 C2745 1.500 . S
C2753 H2718 0.929 . S
C2753 C2731 1.444 . S
C2753 C2754 1.317 . S
C2754 H2716 0.930 . S
C2754 C2722 1.432 . S
C2754 C2753 1.317 . S
C2755 O2739 1.283 . S
C2755 O2742 1.243 . S
C2756 C2757 1.382 . S
C2756 C2760 1.393 . S
C2756 C2763 1.500 . S
C2757 C2756 1.382 . S
C2757 C2758 1.400 . S
C2757 H2768 0.930 . S
C2758 C2757 1.400 . S
C2758 C2759 1.384 . S
C2759 C2758 1.384 . S
C2759 C2761 1.392 . S
C2759 H2769 0.931 . S
C2760 C2756 1.393 . S
C2760 C2761 1.401 . S
C2760 H2770 0.930 . S
C2761 C2759 1.392 . S
C2761 C2760 1.401 . S
C2761 H2771 0.930 . S
C2762 O2740 1.262 . S
C2762 O2741 1.260 . S
C2763 Tb2699 2.833 . S
C2763 O2738 1.251 . S
C2763 O2743 1.256 . S
C2763 C2756 1.500 . S
H2764 C2747 0.930 . S
H2765 C2748 0.931 . S
H2766 C2749 0.930 . S
H2767 C2750 0.930 . S
H2768 C2757 0.930 . S
H2769 C2759 0.931 . S
H2770 C2760 0.930 . S
H2771 C2761 0.930 . S
Tb2772 N2803 2.660 . S
Tb2772 N2810 2.600 . S
Tb2772 O2816 2.546 . S
Tb2772 O2817 2.610 . S
Tb2772 O2819 2.320 . S
Tb2772 O2820 2.552 . S
Tb2772 O2821 2.413 . S
Tb2772 O2823 2.362 . S
Tb2772 O2824 2.421 . S
Tb2772 C2836 2.833 . S
C2773 C2776 1.432 . S
C2773 C2777 1.424 . S
C2773 N2780 1.343 1_556 S
C2774 C2776 1.417 . S
C2774 C2778 1.432 . S
C2774 C2786 1.410 . S
C2775 C2777 1.459 . S
C2775 C2778 1.317 . S
C2775 H2798 0.929 . S
C2776 C2773 1.432 . S
C2776 C2774 1.417 . S
C2776 N2784 1.360 . S
C2777 C2773 1.424 . S
C2777 C2775 1.459 . S
C2777 C2782 1.360 1_556 S
C2778 C2774 1.432 . S
C2778 C2775 1.317 . S
C2778 H2790 0.930 . S
C2779 C2781 1.392 . S
C2779 C2782 1.370 . S
C2779 H2791 0.931 . S
N2780 C2773 1.343 1_554 S
N2780 C2781 1.360 . S
N2780 Tb2783 2.589 1_554 S
C2781 C2779 1.392 . S
C2781 N2780 1.360 . S
C2781 H2788 0.930 . S
C2782 C2777 1.360 1_554 S
C2782 C2779 1.370 . S
C2782 H2801 0.930 . S
Tb2783 N2780 2.589 1_556 S
Tb2783 N2784 2.660 . S
Tb2783 O2817 2.362 . S
Tb2783 O2818 2.421 . S
Tb2783 O2822 2.546 1_556 S
Tb2783 O2823 2.610 . S
Tb2783 O2825 2.320 . S
Tb2783 O2826 2.552 1_556 S
Tb2783 O2827 2.413 1_556 S
Tb2783 C2847 2.833 1_556 S
N2784 C2776 1.360 . S
N2784 Tb2783 2.660 . S
N2784 C2785 1.305 . S
C2785 N2784 1.305 . S
C2785 C2787 1.407 . S
C2785 H2792 0.930 . S
C2786 C2774 1.410 . S
C2786 C2787 1.345 . S
C2786 H2794 0.930 . S
C2787 C2785 1.407 . S
C2787 C2786 1.345 . S
C2787 H2789 0.930 . S
H2788 C2781 0.930 . S
H2789 C2787 0.930 . S
H2790 C2778 0.930 . S
H2791 C2779 0.931 . S
H2792 C2785 0.930 . S
H2793 C2807 0.930 1_554 S
H2794 C2786 0.930 . S
H2795 C2813 0.930 . S
H2796 C2804 0.930 . S
H2797 C2811 0.931 . S
H2798 C2775 0.929 . S
H2799 C2805 0.930 . S
H2800 C2838 0.930 . S
H2801 C2782 0.930 . S
H2802 C2837 0.929 . S
N2803 Tb2772 2.660 . S
N2803 C2804 1.305 . S
N2803 C2808 1.360 . S
C2804 H2796 0.930 . S
C2804 N2803 1.305 . S
C2804 C2807 1.407 . S
C2805 H2799 0.930 . S
C2805 C2806 1.410 . S
C2805 C2807 1.345 . S
C2806 C2805 1.410 . S
C2806 C2808 1.417 . S
C2806 C2838 1.432 . S
C2807 H2793 0.930 1_556 S
C2807 C2804 1.407 . S
C2807 C2805 1.345 . S
C2808 N2803 1.360 . S
C2808 C2806 1.417 . S
C2808 C2812 1.432 . S
H2809 C2814 0.930 . S
N2810 Tb2772 2.600 . S
N2810 C2812 1.359 . S
N2810 C2813 1.327 . S
C2811 H2797 0.931 . S
C2811 C2813 1.392 . S
C2811 C2814 1.370 . S
C2812 C2808 1.432 . S
C2812 N2810 1.359 . S
C2812 C2815 1.414 . S
C2813 H2795 0.930 . S
C2813 N2810 1.327 . S
C2813 C2811 1.392 . S
C2814 H2809 0.930 . S
C2814 C2811 1.370 . S
C2814 C2815 1.385 . S
C2815 C2812 1.414 . S
C2815 C2814 1.385 . S
C2815 C2837 1.444 . S
O2816 Tb2772 2.546 . S
O2816 C2836 1.251 . S
O2817 Tb2772 2.610 . S
O2817 Tb2783 2.362 . S
O2817 C2828 1.283 . S
O2818 Tb2783 2.421 . S
O2818 C2835 1.262 . S
O2819 Tb2772 2.320 . S
O2819 C2835 1.260 . S
O2820 Tb2772 2.552 . S
O2820 C2828 1.243 . S
O2821 Tb2772 2.413 . S
O2821 C2836 1.256 . S
O2822 Tb2783 2.546 1_554 S
O2822 C2847 1.251 . S
O2823 Tb2772 2.362 . S
O2823 Tb2783 2.610 . S
O2823 C2839 1.283 . S
O2824 Tb2772 2.421 . S
O2824 C2846 1.262 . S
O2825 Tb2783 2.320 . S
O2825 C2846 1.260 . S
O2826 Tb2783 2.552 1_554 S
O2826 C2839 1.243 1_554 S
O2827 Tb2783 2.413 1_554 S
O2827 C2847 1.256 . S
C2828 O2817 1.283 . S
C2828 O2820 1.243 . S
C2829 C2831 1.382 . S
C2829 C2833 1.393 . S
C2829 C2836 1.500 . S
C2830 C2831 1.400 . S
C2830 C2832 1.384 . S
C2831 C2829 1.382 . S
C2831 C2830 1.400 . S
C2831 H2848 0.930 . S
C2832 C2830 1.384 . S
C2832 C2834 1.392 . S
C2832 H2849 0.931 . S
C2833 C2829 1.393 . S
C2833 C2834 1.401 . S
C2833 H2850 0.930 . S
C2834 C2832 1.392 . S
C2834 C2833 1.401 . S
C2834 H2851 0.930 . S
C2835 O2818 1.262 . S
C2835 O2819 1.260 . S
C2836 Tb2772 2.833 . S
C2836 O2816 1.251 . S
C2836 O2821 1.256 . S
C2836 C2829 1.500 . S
C2837 H2802 0.929 . S
C2837 C2815 1.444 . S
C2837 C2838 1.317 . S
C2838 H2800 0.930 . S
C2838 C2806 1.432 . S
C2838 C2837 1.317 . S
C2839 O2823 1.283 . S
C2839 O2826 1.243 1_556 S
C2840 C2841 1.382 . S
C2840 C2844 1.393 . S
C2840 C2847 1.500 . S
C2841 C2840 1.382 . S
C2841 C2842 1.400 . S
C2841 H2852 0.930 . S
C2842 C2841 1.400 . S
C2842 C2843 1.384 . S
C2843 C2842 1.384 . S
C2843 C2845 1.392 . S
C2843 H2853 0.931 . S
C2844 C2840 1.393 . S
C2844 C2845 1.401 . S
C2844 H2854 0.930 . S
C2845 C2843 1.392 . S
C2845 C2844 1.401 . S
C2845 H2855 0.930 . S
C2846 O2824 1.262 . S
C2846 O2825 1.260 . S
C2847 Tb2783 2.833 1_554 S
C2847 O2822 1.251 . S
C2847 O2827 1.256 . S
C2847 C2840 1.500 . S
H2848 C2831 0.930 . S
H2849 C2832 0.931 . S
H2850 C2833 0.930 . S
H2851 C2834 0.930 . S
H2852 C2841 0.930 . S
H2853 C2843 0.931 . S
H2854 C2844 0.930 . S
H2855 C2845 0.930 . S
Tb2856 N2887 2.660 . S
Tb2856 N2894 2.600 . S
Tb2856 O2900 2.546 . S
Tb2856 O2901 2.610 . S
Tb2856 O2903 2.320 . S
Tb2856 O2904 2.552 . S
Tb2856 O2905 2.413 . S
Tb2856 O2907 2.362 . S
Tb2856 O2908 2.421 . S
Tb2856 C2920 2.833 . S
C2857 C2860 1.432 . S
C2857 C2861 1.414 . S
C2857 N2864 1.359 . S
C2858 C2860 1.417 . S
C2858 C2862 1.432 . S
C2858 C2870 1.410 . S
C2859 C2861 1.444 . S
C2859 C2862 1.317 . S
C2859 H2882 0.929 . S
C2860 C2857 1.432 . S
C2860 C2858 1.417 . S
C2860 N2868 1.360 . S
C2861 C2857 1.414 . S
C2861 C2859 1.444 . S
C2861 C2866 1.385 . S
C2862 C2858 1.432 . S
C2862 C2859 1.317 . S
C2862 H2874 0.930 . S
C2863 C2865 1.392 . S
C2863 C2866 1.370 . S
C2863 H2875 0.931 . S
N2864 C2857 1.359 . S
N2864 C2865 1.327 . S
N2864 Tb2867 2.600 . S
C2865 C2863 1.392 . S
C2865 N2864 1.327 . S
C2865 H2872 0.930 . S
C2866 C2861 1.385 . S
C2866 C2863 1.370 . S
C2866 H2885 0.930 . S
Tb2867 N2864 2.600 . S
Tb2867 N2868 2.660 . S
Tb2867 O2901 2.362 . S
Tb2867 O2902 2.421 . S
Tb2867 O2906 2.546 . S
Tb2867 O2907 2.610 . S
Tb2867 O2909 2.320 . S
Tb2867 O2910 2.552 . S
Tb2867 O2911 2.413 . S
Tb2867 C2931 2.833 . S
N2868 C2860 1.360 . S
N2868 Tb2867 2.660 . S
N2868 C2869 1.305 . S
C2869 N2868 1.305 . S
C2869 C2871 1.407 . S
C2869 H2876 0.930 . S
C2870 C2858 1.410 . S
C2870 C2871 1.345 . S
C2870 H2878 0.930 . S
C2871 C2869 1.407 . S
C2871 C2870 1.345 . S
C2871 H2873 0.930 . S
H2872 C2865 0.930 . S
H2873 C2871 0.930 . S
H2874 C2862 0.930 . S
H2875 C2863 0.931 . S
H2876 C2869 0.930 . S
H2877 C2891 0.930 . S
H2878 C2870 0.930 . S
H2879 C2897 0.930 . S
H2880 C2888 0.930 . S
H2881 C2895 0.931 . S
H2882 C2859 0.929 . S
H2883 C2889 0.930 . S
H2884 C2922 0.930 . S
H2885 C2866 0.930 . S
H2886 C2921 0.929 . S
N2887 Tb2856 2.660 . S
N2887 C2888 1.305 . S
N2887 C2892 1.360 . S
C2888 H2880 0.930 . S
C2888 N2887 1.305 . S
C2888 C2891 1.407 . S
C2889 H2883 0.930 . S
C2889 C2890 1.410 . S
C2889 C2891 1.345 . S
C2890 C2889 1.410 . S
C2890 C2892 1.417 . S
C2890 C2922 1.432 . S
C2891 H2877 0.930 . S
C2891 C2888 1.407 . S
C2891 C2889 1.345 . S
C2892 N2887 1.360 . S
C2892 C2890 1.417 . S
C2892 C2896 1.432 . S
H2893 C2898 0.930 . S
N2894 Tb2856 2.600 . S
N2894 C2896 1.359 . S
N2894 C2897 1.327 . S
C2895 H2881 0.931 . S
C2895 C2897 1.392 . S
C2895 C2898 1.370 . S
C2896 C2892 1.432 . S
C2896 N2894 1.359 . S
C2896 C2899 1.414 . S
C2897 H2879 0.930 . S
C2897 N2894 1.327 . S
C2897 C2895 1.392 . S
C2898 H2893 0.930 . S
C2898 C2895 1.370 . S
C2898 C2899 1.385 . S
C2899 C2896 1.414 . S
C2899 C2898 1.385 . S
C2899 C2921 1.444 . S
O2900 Tb2856 2.546 . S
O2900 C2920 1.251 . S
O2901 Tb2856 2.610 . S
O2901 Tb2867 2.362 . S
O2901 C2912 1.283 . S
O2902 Tb2867 2.421 . S
O2902 C2919 1.262 . S
O2903 Tb2856 2.320 . S
O2903 C2919 1.260 . S
O2904 Tb2856 2.552 . S
O2904 C2912 1.243 . S
O2905 Tb2856 2.413 . S
O2905 C2920 1.256 . S
O2906 Tb2867 2.546 . S
O2906 C2931 1.251 . S
O2907 Tb2856 2.362 . S
O2907 Tb2867 2.610 . S
O2907 C2923 1.283 . S
O2908 Tb2856 2.421 . S
O2908 C2930 1.262 . S
O2909 Tb2867 2.320 . S
O2909 C2930 1.260 . S
O2910 Tb2867 2.552 . S
O2910 C2923 1.243 . S
O2911 Tb2867 2.413 . S
O2911 C2931 1.256 . S
C2912 O2901 1.283 . S
C2912 O2904 1.243 . S
C2913 C2915 1.382 . S
C2913 C2917 1.393 . S
C2913 C2920 1.500 . S
C2914 C2915 1.400 . S
C2914 C2916 1.384 . S
C2915 C2913 1.382 . S
C2915 C2914 1.400 . S
C2915 H2932 0.930 . S
C2916 C2914 1.384 . S
C2916 C2918 1.392 . S
C2916 H2933 0.931 . S
C2917 C2913 1.393 . S
C2917 C2918 1.401 . S
C2917 H2934 0.930 . S
C2918 C2916 1.392 . S
C2918 C2917 1.401 . S
C2918 H2935 0.930 . S
C2919 O2902 1.262 . S
C2919 O2903 1.260 . S
C2920 Tb2856 2.833 . S
C2920 O2900 1.251 . S
C2920 O2905 1.256 . S
C2920 C2913 1.500 . S
C2921 H2886 0.929 . S
C2921 C2899 1.444 . S
C2921 C2922 1.317 . S
C2922 H2884 0.930 . S
C2922 C2890 1.432 . S
C2922 C2921 1.317 . S
C2923 O2907 1.283 . S
C2923 O2910 1.243 . S
C2924 C2925 1.382 . S
C2924 C2928 1.393 . S
C2924 C2931 1.500 . S
C2925 C2924 1.382 . S
C2925 C2926 1.400 . S
C2925 H2936 0.930 . S
C2926 C2925 1.400 . S
C2926 C2927 1.384 . S
C2927 C2926 1.384 . S
C2927 C2929 1.392 . S
C2927 H2937 0.931 . S
C2928 C2924 1.393 . S
C2928 C2929 1.401 . S
C2928 H2938 0.930 . S
C2929 C2927 1.392 . S
C2929 C2928 1.401 . S
C2929 H2939 0.930 . S
C2930 O2908 1.262 . S
C2930 O2909 1.260 . S
C2931 Tb2867 2.833 . S
C2931 O2906 1.251 . S
C2931 O2911 1.256 . S
C2931 C2924 1.500 . S
H2932 C2915 0.930 . S
H2933 C2916 0.931 . S
H2934 C2917 0.930 . S
H2935 C2918 0.930 . S
H2936 C2925 0.930 . S
H2937 C2927 0.931 . S
H2938 C2928 0.930 . S
H2939 C2929 0.930 . S
Tb2940 N2971 2.660 . S
Tb2940 N2978 2.600 . S
Tb2940 O2984 2.546 . S
Tb2940 O2985 2.610 . S
Tb2940 O2987 2.320 . S
Tb2940 O2988 2.552 . S
Tb2940 O2989 2.413 . S
Tb2940 O2991 2.362 . S
Tb2940 O2992 2.421 . S
Tb2940 C3004 2.833 . S
C2941 C2944 1.432 . S
C2941 C2945 1.414 . S
C2941 N2948 1.359 . S
C2942 C2944 1.417 . S
C2942 C2946 1.432 . S
C2942 C2954 1.410 . S
C2943 C2945 1.444 . S
C2943 C2946 1.317 . S
C2943 H2966 0.929 . S
C2944 C2941 1.432 . S
C2944 C2942 1.417 . S
C2944 N2952 1.360 . S
C2945 C2941 1.414 . S
C2945 C2943 1.444 . S
C2945 C2950 1.385 . S
C2946 C2942 1.432 . S
C2946 C2943 1.317 . S
C2946 H2958 0.930 . S
C2947 C2949 1.392 . S
C2947 C2950 1.370 . S
C2947 H2959 0.931 . S
N2948 C2941 1.359 . S
N2948 C2949 1.327 . S
N2948 Tb2951 2.600 . S
C2949 C2947 1.392 . S
C2949 N2948 1.327 . S
C2949 H2956 0.930 . S
C2950 C2945 1.385 . S
C2950 C2947 1.370 . S
C2950 H2969 0.930 . S
Tb2951 N2948 2.600 . S
Tb2951 N2952 2.660 . S
Tb2951 O2985 2.362 . S
Tb2951 O2986 2.421 . S
Tb2951 O2990 2.546 . S
Tb2951 O2991 2.610 . S
Tb2951 O2993 2.320 . S
Tb2951 O2994 2.552 . S
Tb2951 O2995 2.413 . S
Tb2951 C3015 2.833 . S
N2952 C2944 1.360 . S
N2952 Tb2951 2.660 . S
N2952 C2953 1.305 . S
C2953 N2952 1.305 . S
C2953 C2955 1.407 . S
C2953 H2960 0.930 . S
C2954 C2942 1.410 . S
C2954 C2955 1.345 . S
C2954 H2962 0.930 . S
C2955 C2953 1.407 . S
C2955 C2954 1.345 . S
C2955 H2957 0.930 . S
H2956 C2949 0.930 . S
H2957 C2955 0.930 . S
H2958 C2946 0.930 . S
H2959 C2947 0.931 . S
H2960 C2953 0.930 . S
H2961 C2975 0.930 . S
H2962 C2954 0.930 . S
H2963 C2981 0.930 . S
H2964 C2972 0.930 . S
H2965 C2979 0.931 . S
H2966 C2943 0.929 . S
H2967 C2973 0.930 . S
H2968 C3006 0.930 . S
H2969 C2950 0.930 . S
H2970 C3005 0.929 . S
N2971 Tb2940 2.660 . S
N2971 C2972 1.305 . S
N2971 C2976 1.360 . S
C2972 H2964 0.930 . S
C2972 N2971 1.305 . S
C2972 C2975 1.407 . S
C2973 H2967 0.930 . S
C2973 C2974 1.410 . S
C2973 C2975 1.345 . S
C2974 C2973 1.410 . S
C2974 C2976 1.417 . S
C2974 C3006 1.432 . S
C2975 H2961 0.930 . S
C2975 C2972 1.407 . S
C2975 C2973 1.345 . S
C2976 N2971 1.360 . S
C2976 C2974 1.417 . S
C2976 C2980 1.432 . S
H2977 C2982 0.930 . S
N2978 Tb2940 2.600 . S
N2978 C2980 1.359 . S
N2978 C2981 1.327 . S
C2979 H2965 0.931 . S
C2979 C2981 1.392 . S
C2979 C2982 1.370 . S
C2980 C2976 1.432 . S
C2980 N2978 1.359 . S
C2980 C2983 1.414 . S
C2981 H2963 0.930 . S
C2981 N2978 1.327 . S
C2981 C2979 1.392 . S
C2982 H2977 0.930 . S
C2982 C2979 1.370 . S
C2982 C2983 1.385 . S
C2983 C2980 1.414 . S
C2983 C2982 1.385 . S
C2983 C3005 1.444 . S
O2984 Tb2940 2.546 . S
O2984 C3004 1.251 . S
O2985 Tb2940 2.610 . S
O2985 Tb2951 2.362 . S
O2985 C2996 1.283 . S
O2986 Tb2951 2.421 . S
O2986 C3003 1.262 . S
O2987 Tb2940 2.320 . S
O2987 C3003 1.260 . S
O2988 Tb2940 2.552 . S
O2988 C2996 1.243 . S
O2989 Tb2940 2.413 . S
O2989 C3004 1.256 . S
O2990 Tb2951 2.546 . S
O2990 C3015 1.251 . S
O2991 Tb2940 2.362 . S
O2991 Tb2951 2.610 . S
O2991 C3007 1.283 . S
O2992 Tb2940 2.421 . S
O2992 C3014 1.262 . S
O2993 Tb2951 2.320 . S
O2993 C3014 1.260 . S
O2994 Tb2951 2.552 . S
O2994 C3007 1.243 . S
O2995 Tb2951 2.413 . S
O2995 C3015 1.256 . S
C2996 O2985 1.283 . S
C2996 O2988 1.243 . S
C2997 C2999 1.382 . S
C2997 C3001 1.393 . S
C2997 C3004 1.500 . S
C2998 C2999 1.400 . S
C2998 C3000 1.384 . S
C2999 C2997 1.382 . S
C2999 C2998 1.400 . S
C2999 H3016 0.930 . S
C3000 C2998 1.384 . S
C3000 C3002 1.392 . S
C3000 H3017 0.931 . S
C3001 C2997 1.393 . S
C3001 C3002 1.401 . S
C3001 H3018 0.930 . S
C3002 C3000 1.392 . S
C3002 C3001 1.401 . S
C3002 H3019 0.930 . S
C3003 O2986 1.262 . S
C3003 O2987 1.260 . S
C3004 Tb2940 2.833 . S
C3004 O2984 1.251 . S
C3004 O2989 1.256 . S
C3004 C2997 1.500 . S
C3005 H2970 0.929 . S
C3005 C2983 1.444 . S
C3005 C3006 1.317 . S
C3006 H2968 0.930 . S
C3006 C2974 1.432 . S
C3006 C3005 1.317 . S
C3007 O2991 1.283 . S
C3007 O2994 1.243 . S
C3008 C3009 1.382 . S
C3008 C3012 1.393 . S
C3008 C3015 1.500 . S
C3009 C3008 1.382 . S
C3009 C3010 1.400 . S
C3009 H3020 0.930 . S
C3010 C3009 1.400 . S
C3010 C3011 1.384 . S
C3011 C3010 1.384 . S
C3011 C3013 1.392 . S
C3011 H3021 0.931 . S
C3012 C3008 1.393 . S
C3012 C3013 1.401 . S
C3012 H3022 0.930 . S
C3013 C3011 1.392 . S
C3013 C3012 1.401 . S
C3013 H3023 0.930 . S
C3014 O2992 1.262 . S
C3014 O2993 1.260 . S
C3015 Tb2951 2.833 . S
C3015 O2990 1.251 . S
C3015 O2995 1.256 . S
C3015 C3008 1.500 . S
H3016 C2999 0.930 . S
H3017 C3000 0.931 . S
H3018 C3001 0.930 . S
H3019 C3002 0.930 . S
H3020 C3009 0.930 . S
H3021 C3011 0.931 . S
H3022 C3012 0.930 . S
H3023 C3013 0.930 . S
Tb3024 N3055 2.660 . S
Tb3024 N3062 2.600 . S
Tb3024 O3068 2.546 . S
Tb3024 O3069 2.610 . S
Tb3024 O3071 2.320 . S
Tb3024 O3072 2.552 . S
Tb3024 O3073 2.413 . S
Tb3024 O3075 2.362 . S
Tb3024 O3076 2.421 . S
Tb3024 C3088 2.833 . S
C3025 C3028 1.432 . S
C3025 C3029 1.414 . S
C3025 N3032 1.359 . S
C3026 C3028 1.417 . S
C3026 C3030 1.432 . S
C3026 C3038 1.410 . S
C3027 C3029 1.444 . S
C3027 C3030 1.317 . S
C3027 H3050 0.929 . S
C3028 C3025 1.432 . S
C3028 C3026 1.417 . S
C3028 N3036 1.360 . S
C3029 C3025 1.414 . S
C3029 C3027 1.444 . S
C3029 C3034 1.385 . S
C3030 C3026 1.432 . S
C3030 C3027 1.317 . S
C3030 H3042 0.930 . S
C3031 C3033 1.392 . S
C3031 C3034 1.370 . S
C3031 H3043 0.931 . S
N3032 C3025 1.359 . S
N3032 C3033 1.327 . S
N3032 Tb3035 2.600 . S
C3033 C3031 1.392 . S
C3033 N3032 1.327 . S
C3033 H3040 0.930 . S
C3034 C3029 1.385 . S
C3034 C3031 1.370 . S
C3034 H3053 0.930 . S
Tb3035 N3032 2.600 . S
Tb3035 N3036 2.660 . S
Tb3035 O3069 2.362 . S
Tb3035 O3070 2.421 . S
Tb3035 O3074 2.546 . S
Tb3035 O3075 2.610 . S
Tb3035 O3077 2.320 . S
Tb3035 O3078 2.552 . S
Tb3035 O3079 2.413 . S
Tb3035 C3099 2.833 . S
N3036 C3028 1.360 . S
N3036 Tb3035 2.660 . S
N3036 C3037 1.305 . S
C3037 N3036 1.305 . S
C3037 C3039 1.407 . S
C3037 H3044 0.930 . S
C3038 C3026 1.410 . S
C3038 C3039 1.345 . S
C3038 H3046 0.930 . S
C3039 C3037 1.407 . S
C3039 C3038 1.345 . S
C3039 H3041 0.930 . S
H3040 C3033 0.930 . S
H3041 C3039 0.930 . S
H3042 C3030 0.930 . S
H3043 C3031 0.931 . S
H3044 C3037 0.930 . S
H3045 C3059 0.930 . S
H3046 C3038 0.930 . S
H3047 C3065 0.930 . S
H3048 C3056 0.930 . S
H3049 C3063 0.931 . S
H3050 C3027 0.929 . S
H3051 C3057 0.930 . S
H3052 C3090 0.930 . S
H3053 C3034 0.930 . S
H3054 C3089 0.929 . S
N3055 Tb3024 2.660 . S
N3055 C3056 1.305 . S
N3055 C3060 1.360 . S
C3056 H3048 0.930 . S
C3056 N3055 1.305 . S
C3056 C3059 1.407 . S
C3057 H3051 0.930 . S
C3057 C3058 1.410 . S
C3057 C3059 1.345 . S
C3058 C3057 1.410 . S
C3058 C3060 1.417 . S
C3058 C3090 1.432 . S
C3059 H3045 0.930 . S
C3059 C3056 1.407 . S
C3059 C3057 1.345 . S
C3060 N3055 1.360 . S
C3060 C3058 1.417 . S
C3060 C3064 1.432 . S
H3061 C3066 0.930 . S
N3062 Tb3024 2.600 . S
N3062 C3064 1.359 . S
N3062 C3065 1.327 . S
C3063 H3049 0.931 . S
C3063 C3065 1.392 . S
C3063 C3066 1.370 . S
C3064 C3060 1.432 . S
C3064 N3062 1.359 . S
C3064 C3067 1.414 . S
C3065 H3047 0.930 . S
C3065 N3062 1.327 . S
C3065 C3063 1.392 . S
C3066 H3061 0.930 . S
C3066 C3063 1.370 . S
C3066 C3067 1.385 . S
C3067 C3064 1.414 . S
C3067 C3066 1.385 . S
C3067 C3089 1.444 . S
O3068 Tb3024 2.546 . S
O3068 C3088 1.251 . S
O3069 Tb3024 2.610 . S
O3069 Tb3035 2.362 . S
O3069 C3080 1.283 . S
O3070 Tb3035 2.421 . S
O3070 C3087 1.262 . S
O3071 Tb3024 2.320 . S
O3071 C3087 1.260 . S
O3072 Tb3024 2.552 . S
O3072 C3080 1.243 . S
O3073 Tb3024 2.413 . S
O3073 C3088 1.256 . S
O3074 Tb3035 2.546 . S
O3074 C3099 1.251 . S
O3075 Tb3024 2.362 . S
O3075 Tb3035 2.610 . S
O3075 C3091 1.283 . S
O3076 Tb3024 2.421 . S
O3076 C3098 1.262 . S
O3077 Tb3035 2.320 . S
O3077 C3098 1.260 . S
O3078 Tb3035 2.552 . S
O3078 C3091 1.243 . S
O3079 Tb3035 2.413 . S
O3079 C3099 1.256 . S
C3080 O3069 1.283 . S
C3080 O3072 1.243 . S
C3081 C3083 1.382 . S
C3081 C3085 1.393 . S
C3081 C3088 1.500 . S
C3082 C3083 1.400 . S
C3082 C3084 1.384 . S
C3083 C3081 1.382 . S
C3083 C3082 1.400 . S
C3083 H3100 0.930 . S
C3084 C3082 1.384 . S
C3084 C3086 1.392 . S
C3084 H3101 0.931 . S
C3085 C3081 1.393 . S
C3085 C3086 1.401 . S
C3085 H3102 0.930 . S
C3086 C3084 1.392 . S
C3086 C3085 1.401 . S
C3086 H3103 0.930 . S
C3087 O3070 1.262 . S
C3087 O3071 1.260 . S
C3088 Tb3024 2.833 . S
C3088 O3068 1.251 . S
C3088 O3073 1.256 . S
C3088 C3081 1.500 . S
C3089 H3054 0.929 . S
C3089 C3067 1.444 . S
C3089 C3090 1.317 . S
C3090 H3052 0.930 . S
C3090 C3058 1.432 . S
C3090 C3089 1.317 . S
C3091 O3075 1.283 . S
C3091 O3078 1.243 . S
C3092 C3093 1.382 . S
C3092 C3096 1.393 . S
C3092 C3099 1.500 . S
C3093 C3092 1.382 . S
C3093 C3094 1.400 . S
C3093 H3104 0.930 . S
C3094 C3093 1.400 . S
C3094 C3095 1.384 . S
C3095 C3094 1.384 . S
C3095 C3097 1.392 . S
C3095 H3105 0.931 . S
C3096 C3092 1.393 . S
C3096 C3097 1.401 . S
C3096 H3106 0.930 . S
C3097 C3095 1.392 . S
C3097 C3096 1.401 . S
C3097 H3107 0.930 . S
C3098 O3076 1.262 . S
C3098 O3077 1.260 . S
C3099 Tb3035 2.833 . S
C3099 O3074 1.251 . S
C3099 O3079 1.256 . S
C3099 C3092 1.500 . S
H3100 C3083 0.930 . S
H3101 C3084 0.931 . S
H3102 C3085 0.930 . S
H3103 C3086 0.930 . S
H3104 C3093 0.930 . S
H3105 C3095 0.931 . S
H3106 C3096 0.930 . S
H3107 C3097 0.930 . S
Tb3108 N3139 2.660 . S
Tb3108 N3146 2.600 . S
Tb3108 O3152 2.546 . S
Tb3108 O3153 2.610 . S
Tb3108 O3155 2.320 . S
Tb3108 O3156 2.552 . S
Tb3108 O3157 2.413 . S
Tb3108 O3159 2.362 . S
Tb3108 O3160 2.421 . S
Tb3108 C3172 2.833 . S
C3109 C3112 1.432 . S
C3109 C3113 1.414 . S
C3109 N3116 1.359 . S
C3110 C3112 1.417 . S
C3110 C3114 1.432 . S
C3110 C3122 1.410 . S
C3111 C3113 1.444 . S
C3111 C3114 1.317 . S
C3111 H3134 0.929 . S
C3112 C3109 1.432 . S
C3112 C3110 1.417 . S
C3112 N3120 1.360 . S
C3113 C3109 1.414 . S
C3113 C3111 1.444 . S
C3113 C3118 1.385 . S
C3114 C3110 1.432 . S
C3114 C3111 1.317 . S
C3114 H3126 0.930 . S
C3115 C3117 1.392 . S
C3115 C3118 1.370 . S
C3115 H3127 0.931 . S
N3116 C3109 1.359 . S
N3116 C3117 1.327 . S
N3116 Tb3119 2.600 . S
C3117 C3115 1.392 . S
C3117 N3116 1.327 . S
C3117 H3124 0.930 . S
C3118 C3113 1.385 . S
C3118 C3115 1.370 . S
C3118 H3137 0.930 . S
Tb3119 N3116 2.600 . S
Tb3119 N3120 2.660 . S
Tb3119 O3153 2.362 . S
Tb3119 O3154 2.421 . S
Tb3119 O3158 2.546 . S
Tb3119 O3159 2.610 . S
Tb3119 O3161 2.320 . S
Tb3119 O3162 2.552 . S
Tb3119 O3163 2.413 . S
Tb3119 C3183 2.833 . S
N3120 C3112 1.360 . S
N3120 Tb3119 2.660 . S
N3120 C3121 1.305 . S
C3121 N3120 1.305 . S
C3121 C3123 1.407 . S
C3121 H3128 0.930 . S
C3122 C3110 1.410 . S
C3122 C3123 1.345 . S
C3122 H3130 0.930 . S
C3123 C3121 1.407 . S
C3123 C3122 1.345 . S
C3123 H3125 0.930 . S
H3124 C3117 0.930 . S
H3125 C3123 0.930 . S
H3126 C3114 0.930 . S
H3127 C3115 0.931 . S
H3128 C3121 0.930 . S
H3129 C3143 0.930 . S
H3130 C3122 0.930 . S
H3131 C3149 0.930 . S
H3132 C3140 0.930 . S
H3133 C3147 0.931 . S
H3134 C3111 0.929 . S
H3135 C3141 0.930 . S
H3136 C3174 0.930 . S
H3137 C3118 0.930 . S
H3138 C3173 0.929 . S
N3139 Tb3108 2.660 . S
N3139 C3140 1.305 . S
N3139 C3144 1.360 . S
C3140 H3132 0.930 . S
C3140 N3139 1.305 . S
C3140 C3143 1.407 . S
C3141 H3135 0.930 . S
C3141 C3142 1.410 . S
C3141 C3143 1.345 . S
C3142 C3141 1.410 . S
C3142 C3144 1.417 . S
C3142 C3174 1.432 . S
C3143 H3129 0.930 . S
C3143 C3140 1.407 . S
C3143 C3141 1.345 . S
C3144 N3139 1.360 . S
C3144 C3142 1.417 . S
C3144 C3148 1.432 . S
H3145 C3150 0.930 . S
N3146 Tb3108 2.600 . S
N3146 C3148 1.359 . S
N3146 C3149 1.327 . S
C3147 H3133 0.931 . S
C3147 C3149 1.392 . S
C3147 C3150 1.370 . S
C3148 C3144 1.432 . S
C3148 N3146 1.359 . S
C3148 C3151 1.414 . S
C3149 H3131 0.930 . S
C3149 N3146 1.327 . S
C3149 C3147 1.392 . S
C3150 H3145 0.930 . S
C3150 C3147 1.370 . S
C3150 C3151 1.385 . S
C3151 C3148 1.414 . S
C3151 C3150 1.385 . S
C3151 C3173 1.444 . S
O3152 Tb3108 2.546 . S
O3152 C3172 1.251 . S
O3153 Tb3108 2.610 . S
O3153 Tb3119 2.362 . S
O3153 C3164 1.283 . S
O3154 Tb3119 2.421 . S
O3154 C3171 1.262 . S
O3155 Tb3108 2.320 . S
O3155 C3171 1.260 . S
O3156 Tb3108 2.552 . S
O3156 C3164 1.243 . S
O3157 Tb3108 2.413 . S
O3157 C3172 1.256 . S
O3158 Tb3119 2.546 . S
O3158 C3183 1.251 . S
O3159 Tb3108 2.362 . S
O3159 Tb3119 2.610 . S
O3159 C3175 1.283 . S
O3160 Tb3108 2.421 . S
O3160 C3182 1.262 . S
O3161 Tb3119 2.320 . S
O3161 C3182 1.260 . S
O3162 Tb3119 2.552 . S
O3162 C3175 1.243 . S
O3163 Tb3119 2.413 . S
O3163 C3183 1.256 . S
C3164 O3153 1.283 . S
C3164 O3156 1.243 . S
C3165 C3167 1.382 . S
C3165 C3169 1.393 . S
C3165 C3172 1.500 . S
C3166 C3167 1.400 . S
C3166 C3168 1.384 . S
C3167 C3165 1.382 . S
C3167 C3166 1.400 . S
C3167 H3184 0.930 . S
C3168 C3166 1.384 . S
C3168 C3170 1.392 . S
C3168 H3185 0.931 . S
C3169 C3165 1.393 . S
C3169 C3170 1.401 . S
C3169 H3186 0.930 . S
C3170 C3168 1.392 . S
C3170 C3169 1.401 . S
C3170 H3187 0.930 . S
C3171 O3154 1.262 . S
C3171 O3155 1.260 . S
C3172 Tb3108 2.833 . S
C3172 O3152 1.251 . S
C3172 O3157 1.256 . S
C3172 C3165 1.500 . S
C3173 H3138 0.929 . S
C3173 C3151 1.444 . S
C3173 C3174 1.317 . S
C3174 H3136 0.930 . S
C3174 C3142 1.432 . S
C3174 C3173 1.317 . S
C3175 O3159 1.283 . S
C3175 O3162 1.243 . S
C3176 C3177 1.382 . S
C3176 C3180 1.393 . S
C3176 C3183 1.500 . S
C3177 C3176 1.382 . S
C3177 C3178 1.400 . S
C3177 H3188 0.930 . S
C3178 C3177 1.400 . S
C3178 C3179 1.384 . S
C3179 C3178 1.384 . S
C3179 C3181 1.392 . S
C3179 H3189 0.931 . S
C3180 C3176 1.393 . S
C3180 C3181 1.401 . S
C3180 H3190 0.930 . S
C3181 C3179 1.392 . S
C3181 C3180 1.401 . S
C3181 H3191 0.930 . S
C3182 O3160 1.262 . S
C3182 O3161 1.260 . S
C3183 Tb3119 2.833 . S
C3183 O3158 1.251 . S
C3183 O3163 1.256 . S
C3183 C3176 1.500 . S
H3184 C3167 0.930 . S
H3185 C3168 0.931 . S
H3186 C3169 0.930 . S
H3187 C3170 0.930 . S
H3188 C3177 0.930 . S
H3189 C3179 0.931 . S
H3190 C3180 0.930 . S
H3191 C3181 0.930 . S
Tb3192 N3223 2.660 . S
Tb3192 N3230 2.600 . S
Tb3192 O3236 2.546 . S
Tb3192 O3237 2.610 . S
Tb3192 O3239 2.320 . S
Tb3192 O3240 2.552 . S
Tb3192 O3241 2.413 . S
Tb3192 O3243 2.362 . S
Tb3192 O3244 2.421 . S
Tb3192 C3256 2.833 . S
C3193 C3196 1.432 . S
C3193 C3197 1.414 . S
C3193 N3200 1.359 . S
C3194 C3196 1.417 . S
C3194 C3198 1.432 . S
C3194 C3206 1.410 . S
C3195 C3197 1.444 . S
C3195 C3198 1.317 . S
C3195 H3218 0.929 . S
C3196 C3193 1.432 . S
C3196 C3194 1.417 . S
C3196 N3204 1.360 . S
C3197 C3193 1.414 . S
C3197 C3195 1.444 . S
C3197 C3202 1.385 . S
C3198 C3194 1.432 . S
C3198 C3195 1.317 . S
C3198 H3210 0.930 . S
C3199 C3201 1.392 . S
C3199 C3202 1.370 . S
C3199 H3211 0.931 . S
N3200 C3193 1.359 . S
N3200 C3201 1.327 . S
N3200 Tb3203 2.600 . S
C3201 C3199 1.392 . S
C3201 N3200 1.327 . S
C3201 H3208 0.930 . S
C3202 C3197 1.385 . S
C3202 C3199 1.370 . S
C3202 H3221 0.930 . S
Tb3203 N3200 2.600 . S
Tb3203 N3204 2.660 . S
Tb3203 O3237 2.362 . S
Tb3203 O3238 2.421 . S
Tb3203 O3242 2.546 . S
Tb3203 O3243 2.610 . S
Tb3203 O3245 2.320 . S
Tb3203 O3246 2.552 . S
Tb3203 O3247 2.413 . S
Tb3203 C3267 2.833 . S
N3204 C3196 1.360 . S
N3204 Tb3203 2.660 . S
N3204 C3205 1.305 . S
C3205 N3204 1.305 . S
C3205 C3207 1.407 . S
C3205 H3212 0.930 . S
C3206 C3194 1.410 . S
C3206 C3207 1.345 . S
C3206 H3214 0.930 . S
C3207 C3205 1.407 . S
C3207 C3206 1.345 . S
C3207 H3209 0.930 . S
H3208 C3201 0.930 . S
H3209 C3207 0.930 . S
H3210 C3198 0.930 . S
H3211 C3199 0.931 . S
H3212 C3205 0.930 . S
H3213 C3227 0.930 . S
H3214 C3206 0.930 . S
H3215 C3233 0.930 . S
H3216 C3224 0.930 . S
H3217 C3231 0.931 . S
H3218 C3195 0.929 . S
H3219 C3225 0.930 . S
H3220 C3258 0.930 . S
H3221 C3202 0.930 . S
H3222 C3257 0.929 . S
N3223 Tb3192 2.660 . S
N3223 C3224 1.305 . S
N3223 C3228 1.360 . S
C3224 H3216 0.930 . S
C3224 N3223 1.305 . S
C3224 C3227 1.407 . S
C3225 H3219 0.930 . S
C3225 C3226 1.410 . S
C3225 C3227 1.345 . S
C3226 C3225 1.410 . S
C3226 C3228 1.417 . S
C3226 C3258 1.432 . S
C3227 H3213 0.930 . S
C3227 C3224 1.407 . S
C3227 C3225 1.345 . S
C3228 N3223 1.360 . S
C3228 C3226 1.417 . S
C3228 C3232 1.432 . S
H3229 C3234 0.930 . S
N3230 Tb3192 2.600 . S
N3230 C3232 1.359 . S
N3230 C3233 1.327 . S
C3231 H3217 0.931 . S
C3231 C3233 1.392 . S
C3231 C3234 1.370 . S
C3232 C3228 1.432 . S
C3232 N3230 1.359 . S
C3232 C3235 1.414 . S
C3233 H3215 0.930 . S
C3233 N3230 1.327 . S
C3233 C3231 1.392 . S
C3234 H3229 0.930 . S
C3234 C3231 1.370 . S
C3234 C3235 1.385 . S
C3235 C3232 1.414 . S
C3235 C3234 1.385 . S
C3235 C3257 1.444 . S
O3236 Tb3192 2.546 . S
O3236 C3256 1.251 . S
O3237 Tb3192 2.610 . S
O3237 Tb3203 2.362 . S
O3237 C3248 1.283 . S
O3238 Tb3203 2.421 . S
O3238 C3255 1.262 . S
O3239 Tb3192 2.320 . S
O3239 C3255 1.260 . S
O3240 Tb3192 2.552 . S
O3240 C3248 1.243 . S
O3241 Tb3192 2.413 . S
O3241 C3256 1.256 . S
O3242 Tb3203 2.546 . S
O3242 C3267 1.251 . S
O3243 Tb3192 2.362 . S
O3243 Tb3203 2.610 . S
O3243 C3259 1.283 . S
O3244 Tb3192 2.421 . S
O3244 C3266 1.262 . S
O3245 Tb3203 2.320 . S
O3245 C3266 1.260 . S
O3246 Tb3203 2.552 . S
O3246 C3259 1.243 . S
O3247 Tb3203 2.413 . S
O3247 C3267 1.256 . S
C3248 O3237 1.283 . S
C3248 O3240 1.243 . S
C3249 C3251 1.382 . S
C3249 C3253 1.393 . S
C3249 C3256 1.500 . S
C3250 C3251 1.400 . S
C3250 C3252 1.384 . S
C3251 C3249 1.382 . S
C3251 C3250 1.400 . S
C3251 H3268 0.930 . S
C3252 C3250 1.384 . S
C3252 C3254 1.392 . S
C3252 H3269 0.931 . S
C3253 C3249 1.393 . S
C3253 C3254 1.401 . S
C3253 H3270 0.930 . S
C3254 C3252 1.392 . S
C3254 C3253 1.401 . S
C3254 H3271 0.930 . S
C3255 O3238 1.262 . S
C3255 O3239 1.260 . S
C3256 Tb3192 2.833 . S
C3256 O3236 1.251 . S
C3256 O3241 1.256 . S
C3256 C3249 1.500 . S
C3257 H3222 0.929 . S
C3257 C3235 1.444 . S
C3257 C3258 1.317 . S
C3258 H3220 0.930 . S
C3258 C3226 1.432 . S
C3258 C3257 1.317 . S
C3259 O3243 1.283 . S
C3259 O3246 1.243 . S
C3260 C3261 1.382 . S
C3260 C3264 1.393 . S
C3260 C3267 1.500 . S
C3261 C3260 1.382 . S
C3261 C3262 1.400 . S
C3261 H3272 0.930 . S
C3262 C3261 1.400 . S
C3262 C3263 1.384 . S
C3263 C3262 1.384 . S
C3263 C3265 1.392 . S
C3263 H3273 0.931 . S
C3264 C3260 1.393 . S
C3264 C3265 1.401 . S
C3264 H3274 0.930 . S
C3265 C3263 1.392 . S
C3265 C3264 1.401 . S
C3265 H3275 0.930 . S
C3266 O3244 1.262 . S
C3266 O3245 1.260 . S
C3267 Tb3203 2.833 . S
C3267 O3242 1.251 . S
C3267 O3247 1.256 . S
C3267 C3260 1.500 . S
H3268 C3251 0.930 . S
H3269 C3252 0.931 . S
H3270 C3253 0.930 . S
H3271 C3254 0.930 . S
H3272 C3261 0.930 . S
H3273 C3263 0.931 . S
H3274 C3264 0.930 . S
H3275 C3265 0.930 . S
Tb3276 N3307 2.660 . S
Tb3276 N3314 2.600 . S
Tb3276 O3320 2.546 . S
Tb3276 O3321 2.610 . S
Tb3276 O3323 2.320 . S
Tb3276 O3324 2.552 . S
Tb3276 O3325 2.413 . S
Tb3276 O3327 2.362 . S
Tb3276 O3328 2.421 . S
Tb3276 C3340 2.833 . S
C3277 C3280 1.432 . S
C3277 C3281 1.414 . S
C3277 N3284 1.359 . S
C3278 C3280 1.417 . S
C3278 C3282 1.432 . S
C3278 C3290 1.410 . S
C3279 C3281 1.444 . S
C3279 C3282 1.317 . S
C3279 H3302 0.929 . S
C3280 C3277 1.432 . S
C3280 C3278 1.417 . S
C3280 N3288 1.360 . S
C3281 C3277 1.414 . S
C3281 C3279 1.444 . S
C3281 C3286 1.385 . S
C3282 C3278 1.432 . S
C3282 C3279 1.317 . S
C3282 H3294 0.930 . S
C3283 C3285 1.392 . S
C3283 C3286 1.370 . S
C3283 H3295 0.931 . S
N3284 C3277 1.359 . S
N3284 C3285 1.327 . S
N3284 Tb3287 2.600 . S
C3285 C3283 1.392 . S
C3285 N3284 1.327 . S
C3285 H3292 0.930 . S
C3286 C3281 1.385 . S
C3286 C3283 1.370 . S
C3286 H3305 0.930 . S
Tb3287 N3284 2.600 . S
Tb3287 N3288 2.660 . S
Tb3287 O3321 2.362 . S
Tb3287 O3322 2.421 . S
Tb3287 O3326 2.546 . S
Tb3287 O3327 2.610 . S
Tb3287 O3329 2.320 . S
Tb3287 O3330 2.552 . S
Tb3287 O3331 2.413 . S
Tb3287 C3351 2.833 . S
N3288 C3280 1.360 . S
N3288 Tb3287 2.660 . S
N3288 C3289 1.305 . S
C3289 N3288 1.305 . S
C3289 C3291 1.407 . S
C3289 H3296 0.930 . S
C3290 C3278 1.410 . S
C3290 C3291 1.345 . S
C3290 H3298 0.930 . S
C3291 C3289 1.407 . S
C3291 C3290 1.345 . S
C3291 H3293 0.930 . S
H3292 C3285 0.930 . S
H3293 C3291 0.930 . S
H3294 C3282 0.930 . S
H3295 C3283 0.931 . S
H3296 C3289 0.930 . S
H3297 C3311 0.930 . S
H3298 C3290 0.930 . S
H3299 C3317 0.930 . S
H3300 C3308 0.930 . S
H3301 C3315 0.931 . S
H3302 C3279 0.929 . S
H3303 C3309 0.930 . S
H3304 C3342 0.930 . S
H3305 C3286 0.930 . S
H3306 C3341 0.929 . S
N3307 Tb3276 2.660 . S
N3307 C3308 1.305 . S
N3307 C3312 1.360 . S
C3308 H3300 0.930 . S
C3308 N3307 1.305 . S
C3308 C3311 1.407 . S
C3309 H3303 0.930 . S
C3309 C3310 1.410 . S
C3309 C3311 1.345 . S
C3310 C3309 1.410 . S
C3310 C3312 1.417 . S
C3310 C3342 1.432 . S
C3311 H3297 0.930 . S
C3311 C3308 1.407 . S
C3311 C3309 1.345 . S
C3312 N3307 1.360 . S
C3312 C3310 1.417 . S
C3312 C3316 1.432 . S
H3313 C3318 0.930 . S
N3314 Tb3276 2.600 . S
N3314 C3316 1.359 . S
N3314 C3317 1.327 . S
C3315 H3301 0.931 . S
C3315 C3317 1.392 . S
C3315 C3318 1.370 . S
C3316 C3312 1.432 . S
C3316 N3314 1.359 . S
C3316 C3319 1.414 . S
C3317 H3299 0.930 . S
C3317 N3314 1.327 . S
C3317 C3315 1.392 . S
C3318 H3313 0.930 . S
C3318 C3315 1.370 . S
C3318 C3319 1.385 . S
C3319 C3316 1.414 . S
C3319 C3318 1.385 . S
C3319 C3341 1.444 . S
O3320 Tb3276 2.546 . S
O3320 C3340 1.251 . S
O3321 Tb3276 2.610 . S
O3321 Tb3287 2.362 . S
O3321 C3332 1.283 . S
O3322 Tb3287 2.421 . S
O3322 C3339 1.262 . S
O3323 Tb3276 2.320 . S
O3323 C3339 1.260 . S
O3324 Tb3276 2.552 . S
O3324 C3332 1.243 . S
O3325 Tb3276 2.413 . S
O3325 C3340 1.256 . S
O3326 Tb3287 2.546 . S
O3326 C3351 1.251 . S
O3327 Tb3276 2.362 . S
O3327 Tb3287 2.610 . S
O3327 C3343 1.283 . S
O3328 Tb3276 2.421 . S
O3328 C3350 1.262 . S
O3329 Tb3287 2.320 . S
O3329 C3350 1.260 . S
O3330 Tb3287 2.552 . S
O3330 C3343 1.243 . S
O3331 Tb3287 2.413 . S
O3331 C3351 1.256 . S
C3332 O3321 1.283 . S
C3332 O3324 1.243 . S
C3333 C3335 1.382 . S
C3333 C3337 1.393 . S
C3333 C3340 1.500 . S
C3334 C3335 1.400 . S
C3334 C3336 1.384 . S
C3335 C3333 1.382 . S
C3335 C3334 1.400 . S
C3335 H3352 0.930 . S
C3336 C3334 1.384 . S
C3336 C3338 1.392 . S
C3336 H3353 0.931 . S
C3337 C3333 1.393 . S
C3337 C3338 1.401 . S
C3337 H3354 0.930 . S
C3338 C3336 1.392 . S
C3338 C3337 1.401 . S
C3338 H3355 0.930 . S
C3339 O3322 1.262 . S
C3339 O3323 1.260 . S
C3340 Tb3276 2.833 . S
C3340 O3320 1.251 . S
C3340 O3325 1.256 . S
C3340 C3333 1.500 . S
C3341 H3306 0.929 . S
C3341 C3319 1.444 . S
C3341 C3342 1.317 . S
C3342 H3304 0.930 . S
C3342 C3310 1.432 . S
C3342 C3341 1.317 . S
C3343 O3327 1.283 . S
C3343 O3330 1.243 . S
C3344 C3345 1.382 . S
C3344 C3348 1.393 . S
C3344 C3351 1.500 . S
C3345 C3344 1.382 . S
C3345 C3346 1.400 . S
C3345 H3356 0.930 . S
C3346 C3345 1.400 . S
C3346 C3347 1.384 . S
C3347 C3346 1.384 . S
C3347 C3349 1.392 . S
C3347 H3357 0.931 . S
C3348 C3344 1.393 . S
C3348 C3349 1.401 . S
C3348 H3358 0.930 . S
C3349 C3347 1.392 . S
C3349 C3348 1.401 . S
C3349 H3359 0.930 . S
C3350 O3328 1.262 . S
C3350 O3329 1.260 . S
C3351 Tb3287 2.833 . S
C3351 O3326 1.251 . S
C3351 O3331 1.256 . S
C3351 C3344 1.500 . S
H3352 C3335 0.930 . S
H3353 C3336 0.931 . S
H3354 C3337 0.930 . S
H3355 C3338 0.930 . S
H3356 C3345 0.930 . S
H3357 C3347 0.931 . S
H3358 C3348 0.930 . S
H3359 C3349 0.930 . S
Tb3360 N3391 2.660 . S
Tb3360 N3398 2.600 1_455 S
Tb3360 O3404 2.546 1_455 S
Tb3360 O3405 2.610 . S
Tb3360 O3407 2.320 . S
Tb3360 O3408 2.552 1_455 S
Tb3360 O3409 2.413 1_455 S
Tb3360 O3411 2.362 . S
Tb3360 O3412 2.421 . S
Tb3360 C3424 2.833 1_455 S
C3361 C3364 1.432 . S
C3361 C3365 1.414 . S
C3361 N3368 1.359 . S
C3362 C3364 1.417 . S
C3362 C3366 1.432 . S
C3362 C3374 1.410 . S
C3363 C3365 1.444 . S
C3363 C3366 1.317 . S
C3363 H3386 0.929 . S
C3364 C3361 1.432 . S
C3364 C3362 1.417 . S
C3364 N3372 1.360 . S
C3365 C3361 1.414 . S
C3365 C3363 1.444 . S
C3365 C3370 1.385 . S
C3366 C3362 1.432 . S
C3366 C3363 1.317 . S
C3366 H3378 0.930 . S
C3367 C3369 1.392 . S
C3367 C3370 1.370 . S
C3367 H3379 0.931 . S
N3368 C3361 1.359 . S
N3368 C3369 1.327 . S
N3368 Tb3371 2.600 . S
C3369 C3367 1.392 . S
C3369 N3368 1.327 . S
C3369 H3376 0.930 . S
C3370 C3365 1.385 . S
C3370 C3367 1.370 . S
C3370 H3389 0.930 . S
Tb3371 N3368 2.600 . S
Tb3371 N3372 2.660 . S
Tb3371 O3405 2.362 . S
Tb3371 O3406 2.421 . S
Tb3371 O3410 2.546 . S
Tb3371 O3411 2.610 . S
Tb3371 O3413 2.320 . S
Tb3371 O3414 2.552 . S
Tb3371 O3415 2.413 . S
Tb3371 C3435 2.833 . S
N3372 C3364 1.360 . S
N3372 Tb3371 2.660 . S
N3372 C3373 1.305 . S
C3373 N3372 1.305 . S
C3373 C3375 1.407 . S
C3373 H3380 0.930 . S
C3374 C3362 1.410 . S
C3374 C3375 1.345 . S
C3374 H3382 0.930 . S
C3375 C3373 1.407 . S
C3375 C3374 1.345 . S
C3375 H3377 0.930 1_455 S
H3376 C3369 0.930 . S
H3377 C3375 0.930 1_655 S
H3378 C3366 0.930 . S
H3379 C3367 0.931 . S
H3380 C3373 0.930 . S
H3381 C3395 0.930 . S
H3382 C3374 0.930 . S
H3383 C3401 0.930 . S
H3384 C3392 0.930 . S
H3385 C3399 0.931 . S
H3386 C3363 0.929 . S
H3387 C3393 0.930 . S
H3388 C3426 0.930 . S
H3389 C3370 0.930 . S
H3390 C3425 0.929 . S
N3391 Tb3360 2.660 . S
N3391 C3392 1.305 . S
N3391 C3396 1.360 . S
C3392 H3384 0.930 . S
C3392 N3391 1.305 . S
C3392 C3395 1.407 . S
C3393 H3387 0.930 . S
C3393 C3394 1.410 . S
C3393 C3395 1.345 . S
C3394 C3393 1.410 . S
C3394 C3396 1.417 . S
C3394 C3426 1.432 . S
C3395 H3381 0.930 . S
C3395 C3392 1.407 . S
C3395 C3393 1.345 . S
C3396 N3391 1.360 . S
C3396 C3394 1.417 . S
C3396 C3400 1.432 . S
H3397 C3402 0.930 . S
N3398 Tb3360 2.600 1_655 S
N3398 C3400 1.359 1_655 S
N3398 C3401 1.327 . S
C3399 H3385 0.931 . S
C3399 C3401 1.392 . S
C3399 C3402 1.370 . S
C3400 C3396 1.432 . S
C3400 N3398 1.359 1_455 S
C3400 C3403 1.414 1_455 S
C3401 H3383 0.930 . S
C3401 N3398 1.327 . S
C3401 C3399 1.392 . S
C3402 H3397 0.930 . S
C3402 C3399 1.370 . S
C3402 C3403 1.385 . S
C3403 C3400 1.414 1_655 S
C3403 C3402 1.385 . S
C3403 C3425 1.444 1_655 S
O3404 Tb3360 2.546 1_655 S
O3404 C3424 1.251 . S
O3405 Tb3360 2.610 . S
O3405 Tb3371 2.362 . S
O3405 C3416 1.283 . S
O3406 Tb3371 2.421 . S
O3406 C3423 1.262 . S
O3407 Tb3360 2.320 . S
O3407 C3423 1.260 . S
O3408 Tb3360 2.552 1_655 S
O3408 C3416 1.243 1_655 S
O3409 Tb3360 2.413 1_655 S
O3409 C3424 1.256 . S
O3410 Tb3371 2.546 . S
O3410 C3435 1.251 . S
O3411 Tb3360 2.362 . S
O3411 Tb3371 2.610 . S
O3411 C3427 1.283 . S
O3412 Tb3360 2.421 . S
O3412 C3434 1.262 . S
O3413 Tb3371 2.320 . S
O3413 C3434 1.260 . S
O3414 Tb3371 2.552 . S
O3414 C3427 1.243 . S
O3415 Tb3371 2.413 . S
O3415 C3435 1.256 . S
C3416 O3405 1.283 . S
C3416 O3408 1.243 1_455 S
C3417 C3419 1.382 . S
C3417 C3421 1.393 . S
C3417 C3424 1.500 . S
C3418 C3419 1.400 . S
C3418 C3420 1.384 . S
C3419 C3417 1.382 . S
C3419 C3418 1.400 . S
C3419 H3436 0.930 . S
C3420 C3418 1.384 . S
C3420 C3422 1.392 . S
C3420 H3437 0.931 . S
C3421 C3417 1.393 . S
C3421 C3422 1.401 . S
C3421 H3438 0.930 . S
C3422 C3420 1.392 . S
C3422 C3421 1.401 . S
C3422 H3439 0.930 . S
C3423 O3406 1.262 . S
C3423 O3407 1.260 . S
C3424 Tb3360 2.833 1_655 S
C3424 O3404 1.251 . S
C3424 O3409 1.256 . S
C3424 C3417 1.500 . S
C3425 H3390 0.929 . S
C3425 C3403 1.444 1_455 S
C3425 C3426 1.317 . S
C3426 H3388 0.930 . S
C3426 C3394 1.432 . S
C3426 C3425 1.317 . S
C3427 O3411 1.283 . S
C3427 O3414 1.243 . S
C3428 C3429 1.382 . S
C3428 C3432 1.393 . S
C3428 C3435 1.500 . S
C3429 C3428 1.382 . S
C3429 C3430 1.400 . S
C3429 H3440 0.930 . S
C3430 C3429 1.400 . S
C3430 C3431 1.384 . S
C3431 C3430 1.384 . S
C3431 C3433 1.392 . S
C3431 H3441 0.931 . S
C3432 C3428 1.393 . S
C3432 C3433 1.401 . S
C3432 H3442 0.930 . S
C3433 C3431 1.392 . S
C3433 C3432 1.401 . S
C3433 H3443 0.930 . S
C3434 O3412 1.262 . S
C3434 O3413 1.260 . S
C3435 Tb3371 2.833 . S
C3435 O3410 1.251 . S
C3435 O3415 1.256 . S
C3435 C3428 1.500 . S
H3436 C3419 0.930 . S
H3437 C3420 0.931 . S
H3438 C3421 0.930 . S
H3439 C3422 0.930 . S
H3440 C3429 0.930 . S
H3441 C3431 0.931 . S
H3442 C3432 0.930 . S
H3443 C3433 0.930 . S
Tb3444 N3475 2.660 . S
Tb3444 N3482 2.600 . S
Tb3444 O3488 2.546 . S
Tb3444 O3489 2.610 . S
Tb3444 O3491 2.320 . S
Tb3444 O3492 2.552 . S
Tb3444 O3493 2.413 . S
Tb3444 O3495 2.362 . S
Tb3444 O3496 2.421 . S
Tb3444 C3508 2.833 . S
C3445 C3448 1.432 . S
C3445 C3449 1.414 . S
C3445 N3452 1.359 . S
C3446 C3448 1.417 . S
C3446 C3450 1.432 . S
C3446 C3458 1.410 . S
C3447 C3449 1.444 . S
C3447 C3450 1.317 . S
C3447 H3470 0.929 . S
C3448 C3445 1.432 . S
C3448 C3446 1.417 . S
C3448 N3456 1.360 . S
C3449 C3445 1.414 . S
C3449 C3447 1.444 . S
C3449 C3454 1.385 . S
C3450 C3446 1.432 . S
C3450 C3447 1.317 . S
C3450 H3462 0.930 . S
C3451 C3453 1.392 . S
C3451 C3454 1.370 . S
C3451 H3463 0.931 . S
N3452 C3445 1.359 . S
N3452 C3453 1.327 . S
N3452 Tb3455 2.600 . S
C3453 C3451 1.392 . S
C3453 N3452 1.327 . S
C3453 H3460 0.930 . S
C3454 C3449 1.385 . S
C3454 C3451 1.370 . S
C3454 H3473 0.930 . S
Tb3455 N3452 2.600 . S
Tb3455 N3456 2.660 . S
Tb3455 O3489 2.362 . S
Tb3455 O3490 2.421 . S
Tb3455 O3494 2.546 . S
Tb3455 O3495 2.610 . S
Tb3455 O3497 2.320 . S
Tb3455 O3498 2.552 . S
Tb3455 O3499 2.413 . S
Tb3455 C3519 2.833 . S
N3456 C3448 1.360 . S
N3456 Tb3455 2.660 . S
N3456 C3457 1.305 . S
C3457 N3456 1.305 . S
C3457 C3459 1.407 . S
C3457 H3464 0.930 . S
C3458 C3446 1.410 . S
C3458 C3459 1.345 . S
C3458 H3466 0.930 . S
C3459 C3457 1.407 . S
C3459 C3458 1.345 . S
C3459 H3461 0.930 . S
H3460 C3453 0.930 . S
H3461 C3459 0.930 . S
H3462 C3450 0.930 . S
H3463 C3451 0.931 . S
H3464 C3457 0.930 . S
H3465 C3479 0.930 . S
H3466 C3458 0.930 . S
H3467 C3485 0.930 . S
H3468 C3476 0.930 . S
H3469 C3483 0.931 . S
H3470 C3447 0.929 . S
H3471 C3477 0.930 . S
H3472 C3510 0.930 . S
H3473 C3454 0.930 . S
H3474 C3509 0.929 . S
N3475 Tb3444 2.660 . S
N3475 C3476 1.305 . S
N3475 C3480 1.360 . S
C3476 H3468 0.930 . S
C3476 N3475 1.305 . S
C3476 C3479 1.407 . S
C3477 H3471 0.930 . S
C3477 C3478 1.410 . S
C3477 C3479 1.345 . S
C3478 C3477 1.410 . S
C3478 C3480 1.417 . S
C3478 C3510 1.432 . S
C3479 H3465 0.930 . S
C3479 C3476 1.407 . S
C3479 C3477 1.345 . S
C3480 N3475 1.360 . S
C3480 C3478 1.417 . S
C3480 C3484 1.432 . S
H3481 C3486 0.930 . S
N3482 Tb3444 2.600 . S
N3482 C3484 1.359 . S
N3482 C3485 1.327 . S
C3483 H3469 0.931 . S
C3483 C3485 1.392 . S
C3483 C3486 1.370 . S
C3484 C3480 1.432 . S
C3484 N3482 1.359 . S
C3484 C3487 1.414 . S
C3485 H3467 0.930 . S
C3485 N3482 1.327 . S
C3485 C3483 1.392 . S
C3486 H3481 0.930 . S
C3486 C3483 1.370 . S
C3486 C3487 1.385 . S
C3487 C3484 1.414 . S
C3487 C3486 1.385 . S
C3487 C3509 1.444 . S
O3488 Tb3444 2.546 . S
O3488 C3508 1.251 . S
O3489 Tb3444 2.610 . S
O3489 Tb3455 2.362 . S
O3489 C3500 1.283 . S
O3490 Tb3455 2.421 . S
O3490 C3507 1.262 . S
O3491 Tb3444 2.320 . S
O3491 C3507 1.260 . S
O3492 Tb3444 2.552 . S
O3492 C3500 1.243 . S
O3493 Tb3444 2.413 . S
O3493 C3508 1.256 . S
O3494 Tb3455 2.546 . S
O3494 C3519 1.251 . S
O3495 Tb3444 2.362 . S
O3495 Tb3455 2.610 . S
O3495 C3511 1.283 . S
O3496 Tb3444 2.421 . S
O3496 C3518 1.262 . S
O3497 Tb3455 2.320 . S
O3497 C3518 1.260 . S
O3498 Tb3455 2.552 . S
O3498 C3511 1.243 . S
O3499 Tb3455 2.413 . S
O3499 C3519 1.256 . S
C3500 O3489 1.283 . S
C3500 O3492 1.243 . S
C3501 C3503 1.382 . S
C3501 C3505 1.393 . S
C3501 C3508 1.500 . S
C3502 C3503 1.400 . S
C3502 C3504 1.384 . S
C3503 C3501 1.382 . S
C3503 C3502 1.400 . S
C3503 H3520 0.930 . S
C3504 C3502 1.384 . S
C3504 C3506 1.392 . S
C3504 H3521 0.931 . S
C3505 C3501 1.393 . S
C3505 C3506 1.401 . S
C3505 H3522 0.930 . S
C3506 C3504 1.392 . S
C3506 C3505 1.401 . S
C3506 H3523 0.930 . S
C3507 O3490 1.262 . S
C3507 O3491 1.260 . S
C3508 Tb3444 2.833 . S
C3508 O3488 1.251 . S
C3508 O3493 1.256 . S
C3508 C3501 1.500 . S
C3509 H3474 0.929 . S
C3509 C3487 1.444 . S
C3509 C3510 1.317 . S
C3510 H3472 0.930 . S
C3510 C3478 1.432 . S
C3510 C3509 1.317 . S
C3511 O3495 1.283 . S
C3511 O3498 1.243 . S
C3512 C3513 1.382 . S
C3512 C3516 1.393 . S
C3512 C3519 1.500 . S
C3513 C3512 1.382 . S
C3513 C3514 1.400 . S
C3513 H3524 0.930 . S
C3514 C3513 1.400 . S
C3514 C3515 1.384 . S
C3515 C3514 1.384 . S
C3515 C3517 1.392 . S
C3515 H3525 0.931 . S
C3516 C3512 1.393 . S
C3516 C3517 1.401 . S
C3516 H3526 0.930 . S
C3517 C3515 1.392 . S
C3517 C3516 1.401 . S
C3517 H3527 0.930 . S
C3518 O3496 1.262 . S
C3518 O3497 1.260 . S
C3519 Tb3455 2.833 . S
C3519 O3494 1.251 . S
C3519 O3499 1.256 . S
C3519 C3512 1.500 . S
H3520 C3503 0.930 . S
H3521 C3504 0.931 . S
H3522 C3505 0.930 . S
H3523 C3506 0.930 . S
H3524 C3513 0.930 . S
H3525 C3515 0.931 . S
H3526 C3516 0.930 . S
H3527 C3517 0.930 . S
Tb3528 N3559 2.660 . S
Tb3528 N3566 2.600 1_554 S
Tb3528 O3572 2.546 1_554 S
Tb3528 O3573 2.610 . S
Tb3528 O3575 2.320 . S
Tb3528 O3576 2.552 1_554 S
Tb3528 O3577 2.413 1_554 S
Tb3528 O3579 2.362 . S
Tb3528 O3580 2.421 . S
Tb3528 C3592 2.833 1_554 S
C3529 C3532 1.432 . S
C3529 C3533 1.414 . S
C3529 N3536 1.359 . S
C3530 C3532 1.417 . S
C3530 C3534 1.432 . S
C3530 C3542 1.410 . S
C3531 C3533 1.444 . S
C3531 C3534 1.317 . S
C3531 H3554 0.929 . S
C3532 C3529 1.432 . S
C3532 C3530 1.417 . S
C3532 N3540 1.360 . S
C3533 C3529 1.414 . S
C3533 C3531 1.444 . S
C3533 C3538 1.385 . S
C3534 C3530 1.432 . S
C3534 C3531 1.317 . S
C3534 H3546 0.930 . S
C3535 C3537 1.392 . S
C3535 C3538 1.370 . S
C3535 H3547 0.931 . S
N3536 C3529 1.359 . S
N3536 C3537 1.327 . S
N3536 Tb3539 2.600 . S
C3537 C3535 1.392 . S
C3537 N3536 1.327 . S
C3537 H3544 0.930 . S
C3538 C3533 1.385 . S
C3538 C3535 1.370 . S
C3538 H3557 0.930 . S
Tb3539 N3536 2.600 . S
Tb3539 N3540 2.660 . S
Tb3539 O3573 2.362 . S
Tb3539 O3574 2.421 . S
Tb3539 O3578 2.546 . S
Tb3539 O3579 2.610 . S
Tb3539 O3581 2.320 . S
Tb3539 O3582 2.552 . S
Tb3539 O3583 2.413 . S
Tb3539 C3603 2.833 . S
N3540 C3532 1.360 . S
N3540 Tb3539 2.660 . S
N3540 C3541 1.305 . S
C3541 N3540 1.305 . S
C3541 C3543 1.407 . S
C3541 H3548 0.930 . S
C3542 C3530 1.410 . S
C3542 C3543 1.345 . S
C3542 H3550 0.930 . S
C3543 C3541 1.407 . S
C3543 C3542 1.345 . S
C3543 H3545 0.930 1_554 S
H3544 C3537 0.930 . S
H3545 C3543 0.930 1_556 S
H3546 C3534 0.930 . S
H3547 C3535 0.931 . S
H3548 C3541 0.930 . S
H3549 C3563 0.930 . S
H3550 C3542 0.930 . S
H3551 C3569 0.930 . S
H3552 C3560 0.930 . S
H3553 C3567 0.931 . S
H3554 C3531 0.929 . S
H3555 C3561 0.930 . S
H3556 C3594 0.930 . S
H3557 C3538 0.930 . S
H3558 C3593 0.929 . S
N3559 Tb3528 2.660 . S
N3559 C3560 1.305 . S
N3559 C3564 1.360 . S
C3560 H3552 0.930 . S
C3560 N3559 1.305 . S
C3560 C3563 1.407 . S
C3561 H3555 0.930 . S
C3561 C3562 1.410 . S
C3561 C3563 1.345 . S
C3562 C3561 1.410 . S
C3562 C3564 1.417 . S
C3562 C3594 1.432 . S
C3563 H3549 0.930 . S
C3563 C3560 1.407 . S
C3563 C3561 1.345 . S
C3564 N3559 1.360 . S
C3564 C3562 1.417 . S
C3564 C3568 1.432 . S
H3565 C3570 0.930 . S
N3566 Tb3528 2.600 1_556 S
N3566 C3568 1.359 1_556 S
N3566 C3569 1.327 . S
C3567 H3553 0.931 . S
C3567 C3569 1.392 . S
C3567 C3570 1.370 . S
C3568 C3564 1.432 . S
C3568 N3566 1.359 1_554 S
C3568 C3571 1.417 . S
C3569 H3551 0.930 . S
C3569 N3566 1.327 . S
C3569 C3567 1.392 . S
C3570 H3565 0.930 . S
C3570 C3567 1.370 . S
C3570 C3571 1.377 1_556 S
C3571 C3568 1.417 . S
C3571 C3570 1.377 1_554 S
C3571 C3593 1.449 . S
O3572 Tb3528 2.546 1_556 S
O3572 C3592 1.251 . S
O3573 Tb3528 2.610 . S
O3573 Tb3539 2.362 . S
O3573 C3584 1.283 . S
O3574 Tb3539 2.421 . S
O3574 C3591 1.262 . S
O3575 Tb3528 2.320 . S
O3575 C3591 1.260 . S
O3576 Tb3528 2.552 1_556 S
O3576 C3584 1.243 1_556 S
O3577 Tb3528 2.413 1_556 S
O3577 C3592 1.256 . S
O3578 Tb3539 2.546 . S
O3578 C3603 1.251 . S
O3579 Tb3528 2.362 . S
O3579 Tb3539 2.610 . S
O3579 C3595 1.283 . S
O3580 Tb3528 2.421 . S
O3580 C3602 1.262 . S
O3581 Tb3539 2.320 . S
O3581 C3602 1.260 . S
O3582 Tb3539 2.552 . S
O3582 C3595 1.243 . S
O3583 Tb3539 2.413 . S
O3583 C3603 1.256 . S
C3584 O3573 1.283 . S
C3584 O3576 1.243 1_554 S
C3585 C3587 1.382 . S
C3585 C3589 1.393 . S
C3585 C3592 1.500 . S
C3586 C3587 1.400 . S
C3586 C3588 1.384 . S
C3587 C3585 1.382 . S
C3587 C3586 1.400 . S
C3587 H3604 0.930 . S
C3588 C3586 1.384 . S
C3588 C3590 1.392 . S
C3588 H3605 0.931 . S
C3589 C3585 1.393 . S
C3589 C3590 1.401 . S
C3589 H3606 0.930 . S
C3590 C3588 1.392 . S
C3590 C3589 1.401 . S
C3590 H3607 0.930 . S
C3591 O3574 1.262 . S
C3591 O3575 1.260 . S
C3592 Tb3528 2.833 1_556 S
C3592 O3572 1.251 . S
C3592 O3577 1.256 . S
C3592 C3585 1.500 . S
C3593 H3558 0.929 . S
C3593 C3571 1.449 . S
C3593 C3594 1.317 . S
C3594 H3556 0.930 . S
C3594 C3562 1.432 . S
C3594 C3593 1.317 . S
C3595 O3579 1.283 . S
C3595 O3582 1.243 . S
C3596 C3597 1.382 . S
C3596 C3600 1.393 . S
C3596 C3603 1.500 . S
C3597 C3596 1.382 . S
C3597 C3598 1.400 . S
C3597 H3608 0.930 . S
C3598 C3597 1.400 . S
C3598 C3599 1.384 . S
C3599 C3598 1.384 . S
C3599 C3601 1.392 . S
C3599 H3609 0.931 . S
C3600 C3596 1.393 . S
C3600 C3601 1.401 . S
C3600 H3610 0.930 . S
C3601 C3599 1.392 . S
C3601 C3600 1.401 . S
C3601 H3611 0.930 . S
C3602 O3580 1.262 . S
C3602 O3581 1.260 . S
C3603 Tb3539 2.833 . S
C3603 O3578 1.251 . S
C3603 O3583 1.256 . S
C3603 C3596 1.500 . S
H3604 C3587 0.930 . S
H3605 C3588 0.931 . S
H3606 C3589 0.930 . S
H3607 C3590 0.930 . S
H3608 C3597 0.930 . S
H3609 C3599 0.931 . S
H3610 C3600 0.930 . S
H3611 C3601 0.930 . S
Tb3612 N3643 2.660 . S
Tb3612 N3650 2.600 . S
Tb3612 O3656 2.546 . S
Tb3612 O3657 2.610 . S
Tb3612 O3659 2.320 . S
Tb3612 O3660 2.552 . S
Tb3612 O3661 2.413 . S
Tb3612 O3663 2.362 . S
Tb3612 O3664 2.421 . S
Tb3612 C3676 2.833 . S
C3613 C3616 1.432 . S
C3613 C3617 1.414 . S
C3613 N3620 1.359 . S
C3614 C3616 1.417 . S
C3614 C3618 1.432 . S
C3614 C3626 1.410 . S
C3615 C3617 1.444 . S
C3615 C3618 1.317 . S
C3615 H3638 0.929 . S
C3616 C3613 1.432 . S
C3616 C3614 1.417 . S
C3616 N3624 1.360 . S
C3617 C3613 1.414 . S
C3617 C3615 1.444 . S
C3617 C3622 1.385 . S
C3618 C3614 1.432 . S
C3618 C3615 1.317 . S
C3618 H3630 0.930 . S
C3619 C3621 1.392 . S
C3619 C3622 1.370 . S
C3619 H3631 0.931 . S
N3620 C3613 1.359 . S
N3620 C3621 1.327 . S
N3620 Tb3623 2.600 . S
C3621 C3619 1.392 . S
C3621 N3620 1.327 . S
C3621 H3628 0.930 . S
C3622 C3617 1.385 . S
C3622 C3619 1.370 . S
C3622 H3641 0.930 . S
Tb3623 N3620 2.600 . S
Tb3623 N3624 2.660 . S
Tb3623 O3657 2.362 . S
Tb3623 O3658 2.421 . S
Tb3623 O3662 2.546 . S
Tb3623 O3663 2.610 . S
Tb3623 O3665 2.320 . S
Tb3623 O3666 2.552 . S
Tb3623 O3667 2.413 . S
Tb3623 C3687 2.833 . S
N3624 C3616 1.360 . S
N3624 Tb3623 2.660 . S
N3624 C3625 1.305 . S
C3625 N3624 1.305 . S
C3625 C3627 1.407 . S
C3625 H3632 0.930 . S
C3626 C3614 1.410 . S
C3626 C3627 1.345 . S
C3626 H3634 0.930 . S
C3627 C3625 1.407 . S
C3627 C3626 1.345 . S
C3627 H3629 0.930 . S
H3628 C3621 0.930 . S
H3629 C3627 0.930 . S
H3630 C3618 0.930 . S
H3631 C3619 0.931 . S
H3632 C3625 0.930 . S
H3633 C3647 0.930 . S
H3634 C3626 0.930 . S
H3635 C3653 0.930 . S
H3636 C3644 0.930 . S
H3637 C3651 0.931 . S
H3638 C3615 0.929 . S
H3639 C3645 0.930 . S
H3640 C3678 0.930 . S
H3641 C3622 0.930 . S
H3642 C3677 0.929 . S
N3643 Tb3612 2.660 . S
N3643 C3644 1.305 . S
N3643 C3648 1.360 . S
C3644 H3636 0.930 . S
C3644 N3643 1.305 . S
C3644 C3647 1.407 . S
C3645 H3639 0.930 . S
C3645 C3646 1.410 . S
C3645 C3647 1.345 . S
C3646 C3645 1.410 . S
C3646 C3648 1.417 . S
C3646 C3678 1.432 . S
C3647 H3633 0.930 . S
C3647 C3644 1.407 . S
C3647 C3645 1.345 . S
C3648 N3643 1.360 . S
C3648 C3646 1.417 . S
C3648 C3652 1.432 . S
H3649 C3654 0.930 . S
N3650 Tb3612 2.600 . S
N3650 C3652 1.359 . S
N3650 C3653 1.327 . S
C3651 H3637 0.931 . S
C3651 C3653 1.392 . S
C3651 C3654 1.370 . S
C3652 C3648 1.432 . S
C3652 N3650 1.359 . S
C3652 C3655 1.414 . S
C3653 H3635 0.930 . S
C3653 N3650 1.327 . S
C3653 C3651 1.392 . S
C3654 H3649 0.930 . S
C3654 C3651 1.370 . S
C3654 C3655 1.385 . S
C3655 C3652 1.414 . S
C3655 C3654 1.385 . S
C3655 C3677 1.444 . S
O3656 Tb3612 2.546 . S
O3656 C3676 1.251 . S
O3657 Tb3612 2.610 . S
O3657 Tb3623 2.362 . S
O3657 C3668 1.283 . S
O3658 Tb3623 2.421 . S
O3658 C3675 1.262 . S
O3659 Tb3612 2.320 . S
O3659 C3675 1.260 . S
O3660 Tb3612 2.552 . S
O3660 C3668 1.243 . S
O3661 Tb3612 2.413 . S
O3661 C3676 1.256 . S
O3662 Tb3623 2.546 . S
O3662 C3687 1.251 . S
O3663 Tb3612 2.362 . S
O3663 Tb3623 2.610 . S
O3663 C3679 1.283 . S
O3664 Tb3612 2.421 . S
O3664 C3686 1.262 . S
O3665 Tb3623 2.320 . S
O3665 C3686 1.260 . S
O3666 Tb3623 2.552 . S
O3666 C3679 1.243 . S
O3667 Tb3623 2.413 . S
O3667 C3687 1.256 . S
C3668 O3657 1.283 . S
C3668 O3660 1.243 . S
C3669 C3671 1.382 . S
C3669 C3673 1.393 . S
C3669 C3676 1.500 . S
C3670 C3671 1.400 . S
C3670 C3672 1.384 . S
C3671 C3669 1.382 . S
C3671 C3670 1.400 . S
C3671 H3688 0.930 . S
C3672 C3670 1.384 . S
C3672 C3674 1.392 . S
C3672 H3689 0.931 . S
C3673 C3669 1.393 . S
C3673 C3674 1.401 . S
C3673 H3690 0.930 . S
C3674 C3672 1.392 . S
C3674 C3673 1.401 . S
C3674 H3691 0.930 . S
C3675 O3658 1.262 . S
C3675 O3659 1.260 . S
C3676 Tb3612 2.833 . S
C3676 O3656 1.251 . S
C3676 O3661 1.256 . S
C3676 C3669 1.500 . S
C3677 H3642 0.929 . S
C3677 C3655 1.444 . S
C3677 C3678 1.317 . S
C3678 H3640 0.930 . S
C3678 C3646 1.432 . S
C3678 C3677 1.317 . S
C3679 O3663 1.283 . S
C3679 O3666 1.243 . S
C3680 C3681 1.382 . S
C3680 C3684 1.393 . S
C3680 C3687 1.500 . S
C3681 C3680 1.382 . S
C3681 C3682 1.400 . S
C3681 H3692 0.930 . S
C3682 C3681 1.400 . S
C3682 C3683 1.384 . S
C3683 C3682 1.384 . S
C3683 C3685 1.392 . S
C3683 H3693 0.931 . S
C3684 C3680 1.393 . S
C3684 C3685 1.401 . S
C3684 H3694 0.930 . S
C3685 C3683 1.392 . S
C3685 C3684 1.401 . S
C3685 H3695 0.930 . S
C3686 O3664 1.262 . S
C3686 O3665 1.260 . S
C3687 Tb3623 2.833 . S
C3687 O3662 1.251 . S
C3687 O3667 1.256 . S
C3687 C3680 1.500 . S
H3688 C3671 0.930 . S
H3689 C3672 0.931 . S
H3690 C3673 0.930 . S
H3691 C3674 0.930 . S
H3692 C3681 0.930 . S
H3693 C3683 0.931 . S
H3694 C3684 0.930 . S
H3695 C3685 0.930 . S
Tb3696 N3727 2.660 . S
Tb3696 N3734 2.600 . S
Tb3696 O3740 2.546 . S
Tb3696 O3741 2.610 . S
Tb3696 O3743 2.320 . S
Tb3696 O3744 2.552 . S
Tb3696 O3745 2.413 . S
Tb3696 O3747 2.362 . S
Tb3696 O3748 2.421 . S
Tb3696 C3760 2.833 . S
C3697 C3700 1.432 . S
C3697 C3701 1.414 . S
C3697 N3704 1.359 . S
C3698 C3700 1.417 . S
C3698 C3702 1.432 . S
C3698 C3710 1.410 . S
C3699 C3701 1.444 . S
C3699 C3702 1.317 . S
C3699 H3722 0.929 . S
C3700 C3697 1.432 . S
C3700 C3698 1.417 . S
C3700 N3708 1.360 . S
C3701 C3697 1.414 . S
C3701 C3699 1.444 . S
C3701 C3706 1.385 . S
C3702 C3698 1.432 . S
C3702 C3699 1.317 . S
C3702 H3714 0.930 . S
C3703 C3705 1.392 . S
C3703 C3706 1.370 . S
C3703 H3715 0.931 . S
N3704 C3697 1.359 . S
N3704 C3705 1.327 . S
N3704 Tb3707 2.600 . S
C3705 C3703 1.392 . S
C3705 N3704 1.327 . S
C3705 H3712 0.930 . S
C3706 C3701 1.385 . S
C3706 C3703 1.370 . S
C3706 H3725 0.930 . S
Tb3707 N3704 2.600 . S
Tb3707 N3708 2.660 . S
Tb3707 O3741 2.362 . S
Tb3707 O3742 2.421 . S
Tb3707 O3746 2.546 . S
Tb3707 O3747 2.610 . S
Tb3707 O3749 2.320 . S
Tb3707 O3750 2.552 . S
Tb3707 O3751 2.413 . S
Tb3707 C3771 2.833 . S
N3708 C3700 1.360 . S
N3708 Tb3707 2.660 . S
N3708 C3709 1.305 . S
C3709 N3708 1.305 . S
C3709 C3711 1.407 . S
C3709 H3716 0.930 . S
C3710 C3698 1.410 . S
C3710 C3711 1.345 . S
C3710 H3718 0.930 . S
C3711 C3709 1.407 . S
C3711 C3710 1.345 . S
C3711 H3713 0.930 . S
H3712 C3705 0.930 . S
H3713 C3711 0.930 . S
H3714 C3702 0.930 . S
H3715 C3703 0.931 . S
H3716 C3709 0.930 . S
H3717 C3731 0.930 . S
H3718 C3710 0.930 . S
H3719 C3737 0.930 . S
H3720 C3728 0.930 . S
H3721 C3735 0.931 . S
H3722 C3699 0.929 . S
H3723 C3729 0.930 . S
H3724 C3762 0.930 . S
H3725 C3706 0.930 . S
H3726 C3761 0.929 . S
N3727 Tb3696 2.660 . S
N3727 C3728 1.305 . S
N3727 C3732 1.360 . S
C3728 H3720 0.930 . S
C3728 N3727 1.305 . S
C3728 C3731 1.407 . S
C3729 H3723 0.930 . S
C3729 C3730 1.410 . S
C3729 C3731 1.345 . S
C3730 C3729 1.410 . S
C3730 C3732 1.417 . S
C3730 C3762 1.432 . S
C3731 H3717 0.930 . S
C3731 C3728 1.407 . S
C3731 C3729 1.345 . S
C3732 N3727 1.360 . S
C3732 C3730 1.417 . S
C3732 C3736 1.432 . S
H3733 C3738 0.930 . S
N3734 Tb3696 2.600 . S
N3734 C3736 1.359 . S
N3734 C3737 1.327 . S
C3735 H3721 0.931 . S
C3735 C3737 1.392 . S
C3735 C3738 1.370 . S
C3736 C3732 1.432 . S
C3736 N3734 1.359 . S
C3736 C3739 1.414 . S
C3737 H3719 0.930 . S
C3737 N3734 1.327 . S
C3737 C3735 1.392 . S
C3738 H3733 0.930 . S
C3738 C3735 1.370 . S
C3738 C3739 1.385 . S
C3739 C3736 1.414 . S
C3739 C3738 1.385 . S
C3739 C3761 1.444 . S
O3740 Tb3696 2.546 . S
O3740 C3760 1.251 . S
O3741 Tb3696 2.610 . S
O3741 Tb3707 2.362 . S
O3741 C3752 1.283 . S
O3742 Tb3707 2.421 . S
O3742 C3759 1.262 . S
O3743 Tb3696 2.320 . S
O3743 C3759 1.260 . S
O3744 Tb3696 2.552 . S
O3744 C3752 1.243 . S
O3745 Tb3696 2.413 . S
O3745 C3760 1.256 . S
O3746 Tb3707 2.546 . S
O3746 C3771 1.251 . S
O3747 Tb3696 2.362 . S
O3747 Tb3707 2.610 . S
O3747 C3763 1.283 . S
O3748 Tb3696 2.421 . S
O3748 C3770 1.262 . S
O3749 Tb3707 2.320 . S
O3749 C3770 1.260 . S
O3750 Tb3707 2.552 . S
O3750 C3763 1.243 . S
O3751 Tb3707 2.413 . S
O3751 C3771 1.256 . S
C3752 O3741 1.283 . S
C3752 O3744 1.243 . S
C3753 C3755 1.382 . S
C3753 C3757 1.393 . S
C3753 C3760 1.500 . S
C3754 C3755 1.400 . S
C3754 C3756 1.384 . S
C3755 C3753 1.382 . S
C3755 C3754 1.400 . S
C3755 H3772 0.930 . S
C3756 C3754 1.384 . S
C3756 C3758 1.392 . S
C3756 H3773 0.931 . S
C3757 C3753 1.393 . S
C3757 C3758 1.401 . S
C3757 H3774 0.930 . S
C3758 C3756 1.392 . S
C3758 C3757 1.401 . S
C3758 H3775 0.930 . S
C3759 O3742 1.262 . S
C3759 O3743 1.260 . S
C3760 Tb3696 2.833 . S
C3760 O3740 1.251 . S
C3760 O3745 1.256 . S
C3760 C3753 1.500 . S
C3761 H3726 0.929 . S
C3761 C3739 1.444 . S
C3761 C3762 1.317 . S
C3762 H3724 0.930 . S
C3762 C3730 1.432 . S
C3762 C3761 1.317 . S
C3763 O3747 1.283 . S
C3763 O3750 1.243 . S
C3764 C3765 1.382 . S
C3764 C3768 1.393 . S
C3764 C3771 1.500 . S
C3765 C3764 1.382 . S
C3765 C3766 1.400 . S
C3765 H3776 0.930 . S
C3766 C3765 1.400 . S
C3766 C3767 1.384 . S
C3767 C3766 1.384 . S
C3767 C3769 1.392 . S
C3767 H3777 0.931 . S
C3768 C3764 1.393 . S
C3768 C3769 1.401 . S
C3768 H3778 0.930 . S
C3769 C3767 1.392 . S
C3769 C3768 1.401 . S
C3769 H3779 0.930 . S
C3770 O3748 1.262 . S
C3770 O3749 1.260 . S
C3771 Tb3707 2.833 . S
C3771 O3746 1.251 . S
C3771 O3751 1.256 . S
C3771 C3764 1.500 . S
H3772 C3755 0.930 . S
H3773 C3756 0.931 . S
H3774 C3757 0.930 . S
H3775 C3758 0.930 . S
H3776 C3765 0.930 . S
H3777 C3767 0.931 . S
H3778 C3768 0.930 . S
H3779 C3769 0.930 . S
Tb3780 N3811 2.660 . S
Tb3780 N3818 2.600 . S
Tb3780 O3824 2.546 . S
Tb3780 O3825 2.610 . S
Tb3780 O3827 2.320 . S
Tb3780 O3828 2.552 . S
Tb3780 O3829 2.413 . S
Tb3780 O3831 2.362 . S
Tb3780 O3832 2.421 . S
Tb3780 C3844 2.833 . S
C3781 C3784 1.432 . S
C3781 C3785 1.414 . S
C3781 N3788 1.359 . S
C3782 C3784 1.417 . S
C3782 C3786 1.432 . S
C3782 C3794 1.410 . S
C3783 C3785 1.444 . S
C3783 C3786 1.317 . S
C3783 H3806 0.929 . S
C3784 C3781 1.432 . S
C3784 C3782 1.417 . S
C3784 N3792 1.360 . S
C3785 C3781 1.414 . S
C3785 C3783 1.444 . S
C3785 C3790 1.385 . S
C3786 C3782 1.432 . S
C3786 C3783 1.317 . S
C3786 H3798 0.930 . S
C3787 C3789 1.392 . S
C3787 C3790 1.370 . S
C3787 H3799 0.931 . S
N3788 C3781 1.359 . S
N3788 C3789 1.327 . S
N3788 Tb3791 2.600 . S
C3789 C3787 1.392 . S
C3789 N3788 1.327 . S
C3789 H3796 0.930 . S
C3790 C3785 1.385 . S
C3790 C3787 1.370 . S
C3790 H3809 0.930 . S
Tb3791 N3788 2.600 . S
Tb3791 N3792 2.660 . S
Tb3791 O3825 2.362 . S
Tb3791 O3826 2.421 . S
Tb3791 O3830 2.546 . S
Tb3791 O3831 2.610 . S
Tb3791 O3833 2.320 . S
Tb3791 O3834 2.552 . S
Tb3791 O3835 2.413 . S
Tb3791 C3855 2.833 . S
N3792 C3784 1.360 . S
N3792 Tb3791 2.660 . S
N3792 C3793 1.305 . S
C3793 N3792 1.305 . S
C3793 C3795 1.407 . S
C3793 H3800 0.930 . S
C3794 C3782 1.410 . S
C3794 C3795 1.345 . S
C3794 H3802 0.930 . S
C3795 C3793 1.407 . S
C3795 C3794 1.345 . S
C3795 H3797 0.930 . S
H3796 C3789 0.930 . S
H3797 C3795 0.930 . S
H3798 C3786 0.930 . S
H3799 C3787 0.931 . S
H3800 C3793 0.930 . S
H3801 C3815 0.930 . S
H3802 C3794 0.930 . S
H3803 C3821 0.930 . S
H3804 C3812 0.930 . S
H3805 C3819 0.931 . S
H3806 C3783 0.929 . S
H3807 C3813 0.930 . S
H3808 C3846 0.930 . S
H3809 C3790 0.930 . S
H3810 C3845 0.929 . S
N3811 Tb3780 2.660 . S
N3811 C3812 1.305 . S
N3811 C3816 1.360 . S
C3812 H3804 0.930 . S
C3812 N3811 1.305 . S
C3812 C3815 1.407 . S
C3813 H3807 0.930 . S
C3813 C3814 1.410 . S
C3813 C3815 1.345 . S
C3814 C3813 1.410 . S
C3814 C3816 1.417 . S
C3814 C3846 1.432 . S
C3815 H3801 0.930 . S
C3815 C3812 1.407 . S
C3815 C3813 1.345 . S
C3816 N3811 1.360 . S
C3816 C3814 1.417 . S
C3816 C3820 1.432 . S
H3817 C3822 0.930 . S
N3818 Tb3780 2.600 . S
N3818 C3820 1.359 . S
N3818 C3821 1.327 . S
C3819 H3805 0.931 . S
C3819 C3821 1.392 . S
C3819 C3822 1.370 . S
C3820 C3816 1.432 . S
C3820 N3818 1.359 . S
C3820 C3823 1.414 . S
C3821 H3803 0.930 . S
C3821 N3818 1.327 . S
C3821 C3819 1.392 . S
C3822 H3817 0.930 . S
C3822 C3819 1.370 . S
C3822 C3823 1.385 . S
C3823 C3820 1.414 . S
C3823 C3822 1.385 . S
C3823 C3845 1.444 . S
O3824 Tb3780 2.546 . S
O3824 C3844 1.251 . S
O3825 Tb3780 2.610 . S
O3825 Tb3791 2.362 . S
O3825 C3836 1.283 . S
O3826 Tb3791 2.421 . S
O3826 C3843 1.262 . S
O3827 Tb3780 2.320 . S
O3827 C3843 1.260 . S
O3828 Tb3780 2.552 . S
O3828 C3836 1.243 . S
O3829 Tb3780 2.413 . S
O3829 C3844 1.256 . S
O3830 Tb3791 2.546 . S
O3830 C3855 1.251 . S
O3831 Tb3780 2.362 . S
O3831 Tb3791 2.610 . S
O3831 C3847 1.283 . S
O3832 Tb3780 2.421 . S
O3832 C3854 1.262 . S
O3833 Tb3791 2.320 . S
O3833 C3854 1.260 . S
O3834 Tb3791 2.552 . S
O3834 C3847 1.243 . S
O3835 Tb3791 2.413 . S
O3835 C3855 1.256 . S
C3836 O3825 1.283 . S
C3836 O3828 1.243 . S
C3837 C3839 1.382 . S
C3837 C3841 1.393 . S
C3837 C3844 1.500 . S
C3838 C3839 1.400 . S
C3838 C3840 1.384 . S
C3839 C3837 1.382 . S
C3839 C3838 1.400 . S
C3839 H3856 0.930 . S
C3840 C3838 1.384 . S
C3840 C3842 1.392 . S
C3840 H3857 0.931 . S
C3841 C3837 1.393 . S
C3841 C3842 1.401 . S
C3841 H3858 0.930 . S
C3842 C3840 1.392 . S
C3842 C3841 1.401 . S
C3842 H3859 0.930 . S
C3843 O3826 1.262 . S
C3843 O3827 1.260 . S
C3844 Tb3780 2.833 . S
C3844 O3824 1.251 . S
C3844 O3829 1.256 . S
C3844 C3837 1.500 . S
C3845 H3810 0.929 . S
C3845 C3823 1.444 . S
C3845 C3846 1.317 . S
C3846 H3808 0.930 . S
C3846 C3814 1.432 . S
C3846 C3845 1.317 . S
C3847 O3831 1.283 . S
C3847 O3834 1.243 . S
C3848 C3849 1.382 . S
C3848 C3852 1.393 . S
C3848 C3855 1.500 . S
C3849 C3848 1.382 . S
C3849 C3850 1.400 . S
C3849 H3860 0.930 . S
C3850 C3849 1.400 . S
C3850 C3851 1.384 . S
C3851 C3850 1.384 . S
C3851 C3853 1.392 . S
C3851 H3861 0.931 . S
C3852 C3848 1.393 . S
C3852 C3853 1.401 . S
C3852 H3862 0.930 . S
C3853 C3851 1.392 . S
C3853 C3852 1.401 . S
C3853 H3863 0.930 . S
C3854 O3832 1.262 . S
C3854 O3833 1.260 . S
C3855 Tb3791 2.833 . S
C3855 O3830 1.251 . S
C3855 O3835 1.256 . S
C3855 C3848 1.500 . S
H3856 C3839 0.930 . S
H3857 C3840 0.931 . S
H3858 C3841 0.930 . S
H3859 C3842 0.930 . S
H3860 C3849 0.930 . S
H3861 C3851 0.931 . S
H3862 C3852 0.930 . S
H3863 C3853 0.930 . S
Tb3864 N3895 2.660 . S
Tb3864 N3902 2.600 . S
Tb3864 O3908 2.546 . S
Tb3864 O3909 2.610 . S
Tb3864 O3911 2.320 . S
Tb3864 O3912 2.552 . S
Tb3864 O3913 2.413 . S
Tb3864 O3915 2.362 . S
Tb3864 O3916 2.421 . S
Tb3864 C3928 2.833 . S
C3865 C3868 1.432 . S
C3865 C3869 1.414 . S
C3865 N3872 1.359 . S
C3866 C3868 1.417 . S
C3866 C3870 1.432 . S
C3866 C3878 1.410 . S
C3867 C3869 1.444 . S
C3867 C3870 1.317 . S
C3867 H3890 0.929 . S
C3868 C3865 1.432 . S
C3868 C3866 1.417 . S
C3868 N3876 1.360 . S
C3869 C3865 1.414 . S
C3869 C3867 1.444 . S
C3869 C3874 1.385 . S
C3870 C3866 1.432 . S
C3870 C3867 1.317 . S
C3870 H3882 0.930 . S
C3871 C3873 1.392 . S
C3871 C3874 1.370 . S
C3871 H3883 0.931 . S
N3872 C3865 1.359 . S
N3872 C3873 1.327 . S
N3872 Tb3875 2.600 . S
C3873 C3871 1.392 . S
C3873 N3872 1.327 . S
C3873 H3880 0.930 . S
C3874 C3869 1.385 . S
C3874 C3871 1.370 . S
C3874 H3893 0.930 . S
Tb3875 N3872 2.600 . S
Tb3875 N3876 2.660 . S
Tb3875 O3909 2.362 . S
Tb3875 O3910 2.421 . S
Tb3875 O3914 2.546 . S
Tb3875 O3915 2.610 . S
Tb3875 O3917 2.320 . S
Tb3875 O3918 2.552 . S
Tb3875 O3919 2.413 . S
Tb3875 C3939 2.833 . S
N3876 C3868 1.360 . S
N3876 Tb3875 2.660 . S
N3876 C3877 1.305 . S
C3877 N3876 1.305 . S
C3877 C3879 1.407 . S
C3877 H3884 0.930 . S
C3878 C3866 1.410 . S
C3878 C3879 1.345 . S
C3878 H3886 0.930 . S
C3879 C3877 1.407 . S
C3879 C3878 1.345 . S
C3879 H3881 0.930 . S
H3880 C3873 0.930 . S
H3881 C3879 0.930 . S
H3882 C3870 0.930 . S
H3883 C3871 0.931 . S
H3884 C3877 0.930 . S
H3885 C3899 0.930 . S
H3886 C3878 0.930 . S
H3887 C3905 0.930 . S
H3888 C3896 0.930 . S
H3889 C3903 0.931 . S
H3890 C3867 0.929 . S
H3891 C3897 0.930 . S
H3892 C3930 0.930 . S
H3893 C3874 0.930 . S
H3894 C3929 0.929 . S
N3895 Tb3864 2.660 . S
N3895 C3896 1.305 . S
N3895 C3900 1.360 . S
C3896 H3888 0.930 . S
C3896 N3895 1.305 . S
C3896 C3899 1.407 . S
C3897 H3891 0.930 . S
C3897 C3898 1.410 . S
C3897 C3899 1.345 . S
C3898 C3897 1.410 . S
C3898 C3900 1.417 . S
C3898 C3930 1.432 . S
C3899 H3885 0.930 . S
C3899 C3896 1.407 . S
C3899 C3897 1.345 . S
C3900 N3895 1.360 . S
C3900 C3898 1.417 . S
C3900 C3904 1.432 . S
H3901 C3906 0.930 . S
N3902 Tb3864 2.600 . S
N3902 C3904 1.359 . S
N3902 C3905 1.327 . S
C3903 H3889 0.931 . S
C3903 C3905 1.392 . S
C3903 C3906 1.370 . S
C3904 C3900 1.432 . S
C3904 N3902 1.359 . S
C3904 C3907 1.414 . S
C3905 H3887 0.930 . S
C3905 N3902 1.327 . S
C3905 C3903 1.392 . S
C3906 H3901 0.930 . S
C3906 C3903 1.370 . S
C3906 C3907 1.385 . S
C3907 C3904 1.414 . S
C3907 C3906 1.385 . S
C3907 C3929 1.444 . S
O3908 Tb3864 2.546 . S
O3908 C3928 1.251 . S
O3909 Tb3864 2.610 . S
O3909 Tb3875 2.362 . S
O3909 C3920 1.283 . S
O3910 Tb3875 2.421 . S
O3910 C3927 1.262 . S
O3911 Tb3864 2.320 . S
O3911 C3927 1.260 . S
O3912 Tb3864 2.552 . S
O3912 C3920 1.243 . S
O3913 Tb3864 2.413 . S
O3913 C3928 1.256 . S
O3914 Tb3875 2.546 . S
O3914 C3939 1.251 . S
O3915 Tb3864 2.362 . S
O3915 Tb3875 2.610 . S
O3915 C3931 1.283 . S
O3916 Tb3864 2.421 . S
O3916 C3938 1.262 . S
O3917 Tb3875 2.320 . S
O3917 C3938 1.260 . S
O3918 Tb3875 2.552 . S
O3918 C3931 1.243 . S
O3919 Tb3875 2.413 . S
O3919 C3939 1.256 . S
C3920 O3909 1.283 . S
C3920 O3912 1.243 . S
C3921 C3923 1.382 . S
C3921 C3925 1.393 . S
C3921 C3928 1.500 . S
C3922 C3923 1.400 . S
C3922 C3924 1.384 . S
C3923 C3921 1.382 . S
C3923 C3922 1.400 . S
C3923 H3940 0.930 . S
C3924 C3922 1.384 . S
C3924 C3926 1.392 . S
C3924 H3941 0.931 . S
C3925 C3921 1.393 . S
C3925 C3926 1.401 . S
C3925 H3942 0.930 . S
C3926 C3924 1.392 . S
C3926 C3925 1.401 . S
C3926 H3943 0.930 . S
C3927 O3910 1.262 . S
C3927 O3911 1.260 . S
C3928 Tb3864 2.833 . S
C3928 O3908 1.251 . S
C3928 O3913 1.256 . S
C3928 C3921 1.500 . S
C3929 H3894 0.929 . S
C3929 C3907 1.444 . S
C3929 C3930 1.317 . S
C3930 H3892 0.930 . S
C3930 C3898 1.432 . S
C3930 C3929 1.317 . S
C3931 O3915 1.283 . S
C3931 O3918 1.243 . S
C3932 C3933 1.382 . S
C3932 C3936 1.393 . S
C3932 C3939 1.500 . S
C3933 C3932 1.382 . S
C3933 C3934 1.400 . S
C3933 H3944 0.930 . S
C3934 C3933 1.400 . S
C3934 C3935 1.384 . S
C3935 C3934 1.384 . S
C3935 C3937 1.392 . S
C3935 H3945 0.931 . S
C3936 C3932 1.393 . S
C3936 C3937 1.401 . S
C3936 H3946 0.930 . S
C3937 C3935 1.392 . S
C3937 C3936 1.401 . S
C3937 H3947 0.930 . S
C3938 O3916 1.262 . S
C3938 O3917 1.260 . S
C3939 Tb3875 2.833 . S
C3939 O3914 1.251 . S
C3939 O3919 1.256 . S
C3939 C3932 1.500 . S
H3940 C3923 0.930 . S
H3941 C3924 0.931 . S
H3942 C3925 0.930 . S
H3943 C3926 0.930 . S
H3944 C3933 0.930 . S
H3945 C3935 0.931 . S
H3946 C3936 0.930 . S
H3947 C3937 0.930 . S
Tb3948 N3979 2.660 . S
Tb3948 N3986 2.600 . S
Tb3948 O3992 2.546 . S
Tb3948 O3993 2.610 . S
Tb3948 O3995 2.320 . S
Tb3948 O3996 2.552 . S
Tb3948 O3997 2.413 . S
Tb3948 O3999 2.362 . S
Tb3948 O4000 2.421 . S
Tb3948 C4012 2.833 . S
C3949 C3952 1.432 . S
C3949 C3953 1.414 . S
C3949 N3956 1.359 . S
C3950 C3952 1.417 . S
C3950 C3954 1.432 . S
C3950 C3962 1.410 . S
C3951 C3953 1.444 . S
C3951 C3954 1.317 . S
C3951 H3974 0.929 . S
C3952 C3949 1.432 . S
C3952 C3950 1.417 . S
C3952 N3960 1.360 . S
C3953 C3949 1.414 . S
C3953 C3951 1.444 . S
C3953 C3958 1.385 . S
C3954 C3950 1.432 . S
C3954 C3951 1.317 . S
C3954 H3966 0.930 . S
C3955 C3957 1.392 . S
C3955 C3958 1.370 . S
C3955 H3967 0.931 . S
N3956 C3949 1.359 . S
N3956 C3957 1.327 . S
N3956 Tb3959 2.600 . S
C3957 C3955 1.392 . S
C3957 N3956 1.327 . S
C3957 H3964 0.930 . S
C3958 C3953 1.385 . S
C3958 C3955 1.370 . S
C3958 H3977 0.930 . S
Tb3959 N3956 2.600 . S
Tb3959 N3960 2.660 . S
Tb3959 O3993 2.362 . S
Tb3959 O3994 2.421 . S
Tb3959 O3998 2.546 . S
Tb3959 O3999 2.610 . S
Tb3959 O4001 2.320 . S
Tb3959 O4002 2.552 . S
Tb3959 O4003 2.413 . S
Tb3959 C4023 2.833 . S
N3960 C3952 1.360 . S
N3960 Tb3959 2.660 . S
N3960 C3961 1.305 . S
C3961 N3960 1.305 . S
C3961 C3963 1.407 . S
C3961 H3968 0.930 . S
C3962 C3950 1.410 . S
C3962 C3963 1.345 . S
C3962 H3970 0.930 . S
C3963 C3961 1.407 . S
C3963 C3962 1.345 . S
C3963 H3965 0.930 . S
H3964 C3957 0.930 . S
H3965 C3963 0.930 . S
H3966 C3954 0.930 . S
H3967 C3955 0.931 . S
H3968 C3961 0.930 . S
H3969 C3983 0.930 . S
H3970 C3962 0.930 . S
H3971 C3989 0.930 . S
H3972 C3980 0.930 . S
H3973 C3987 0.931 . S
H3974 C3951 0.929 . S
H3975 C3981 0.930 . S
H3976 C4014 0.930 . S
H3977 C3958 0.930 . S
H3978 C4013 0.929 . S
N3979 Tb3948 2.660 . S
N3979 C3980 1.305 . S
N3979 C3984 1.360 . S
C3980 H3972 0.930 . S
C3980 N3979 1.305 . S
C3980 C3983 1.407 . S
C3981 H3975 0.930 . S
C3981 C3982 1.410 . S
C3981 C3983 1.345 . S
C3982 C3981 1.410 . S
C3982 C3984 1.417 . S
C3982 C4014 1.432 . S
C3983 H3969 0.930 . S
C3983 C3980 1.407 . S
C3983 C3981 1.345 . S
C3984 N3979 1.360 . S
C3984 C3982 1.417 . S
C3984 C3988 1.432 . S
H3985 C3990 0.930 . S
N3986 Tb3948 2.600 . S
N3986 C3988 1.359 . S
N3986 C3989 1.327 . S
C3987 H3973 0.931 . S
C3987 C3989 1.392 . S
C3987 C3990 1.370 . S
C3988 C3984 1.432 . S
C3988 N3986 1.359 . S
C3988 C3991 1.414 . S
C3989 H3971 0.930 . S
C3989 N3986 1.327 . S
C3989 C3987 1.392 . S
C3990 H3985 0.930 . S
C3990 C3987 1.370 . S
C3990 C3991 1.385 . S
C3991 C3988 1.414 . S
C3991 C3990 1.385 . S
C3991 C4013 1.444 . S
O3992 Tb3948 2.546 . S
O3992 C4012 1.251 . S
O3993 Tb3948 2.610 . S
O3993 Tb3959 2.362 . S
O3993 C4004 1.283 . S
O3994 Tb3959 2.421 . S
O3994 C4011 1.262 . S
O3995 Tb3948 2.320 . S
O3995 C4011 1.260 . S
O3996 Tb3948 2.552 . S
O3996 C4004 1.243 . S
O3997 Tb3948 2.413 . S
O3997 C4012 1.256 . S
O3998 Tb3959 2.546 . S
O3998 C4023 1.251 . S
O3999 Tb3948 2.362 . S
O3999 Tb3959 2.610 . S
O3999 C4015 1.283 . S
O4000 Tb3948 2.421 . S
O4000 C4022 1.262 . S
O4001 Tb3959 2.320 . S
O4001 C4022 1.260 . S
O4002 Tb3959 2.552 . S
O4002 C4015 1.243 . S
O4003 Tb3959 2.413 . S
O4003 C4023 1.256 . S
C4004 O3993 1.283 . S
C4004 O3996 1.243 . S
C4005 C4007 1.382 . S
C4005 C4009 1.393 . S
C4005 C4012 1.500 . S
C4006 C4007 1.400 . S
C4006 C4008 1.384 . S
C4007 C4005 1.382 . S
C4007 C4006 1.400 . S
C4007 H4024 0.930 . S
C4008 C4006 1.384 . S
C4008 C4010 1.392 . S
C4008 H4025 0.931 . S
C4009 C4005 1.393 . S
C4009 C4010 1.401 . S
C4009 H4026 0.930 . S
C4010 C4008 1.392 . S
C4010 C4009 1.401 . S
C4010 H4027 0.930 . S
C4011 O3994 1.262 . S
C4011 O3995 1.260 . S
C4012 Tb3948 2.833 . S
C4012 O3992 1.251 . S
C4012 O3997 1.256 . S
C4012 C4005 1.500 . S
C4013 H3978 0.929 . S
C4013 C3991 1.444 . S
C4013 C4014 1.317 . S
C4014 H3976 0.930 . S
C4014 C3982 1.432 . S
C4014 C4013 1.317 . S
C4015 O3999 1.283 . S
C4015 O4002 1.243 . S
C4016 C4017 1.382 . S
C4016 C4020 1.393 . S
C4016 C4023 1.500 . S
C4017 C4016 1.382 . S
C4017 C4018 1.400 . S
C4017 H4028 0.930 . S
C4018 C4017 1.400 . S
C4018 C4019 1.384 . S
C4019 C4018 1.384 . S
C4019 C4021 1.392 . S
C4019 H4029 0.931 . S
C4020 C4016 1.393 . S
C4020 C4021 1.401 . S
C4020 H4030 0.930 . S
C4021 C4019 1.392 . S
C4021 C4020 1.401 . S
C4021 H4031 0.930 . S
C4022 O4000 1.262 . S
C4022 O4001 1.260 . S
C4023 Tb3959 2.833 . S
C4023 O3998 1.251 . S
C4023 O4003 1.256 . S
C4023 C4016 1.500 . S
H4024 C4007 0.930 . S
H4025 C4008 0.931 . S
H4026 C4009 0.930 . S
H4027 C4010 0.930 . S
H4028 C4017 0.930 . S
H4029 C4019 0.931 . S
H4030 C4020 0.930 . S
H4031 C4021 0.930 . S
C4032 C4033 1.391 . S
C4032 C4034 1.394 . S
C4032 H4048 0.931 . S
C4033 C4032 1.391 . S
C4033 C4037 1.376 . S
C4034 C4032 1.394 . S
C4034 C4035 1.369 . S
C4034 C4038 1.531 . S
C4035 C4034 1.369 . S
C4035 C4036 1.410 . S
C4035 C4043 1.503 . S
C4036 C4035 1.410 . S
C4036 C4037 1.392 . S
C4036 C4039 1.511 1_455 S
C4037 C4033 1.376 . S
C4037 C4036 1.392 . S
C4037 H4049 0.951 . S
C4038 C4034 1.531 . S
C4038 H4050 0.960 . S
C4038 H4051 0.962 . S
C4038 H4052 0.960 . S
C4039 C4036 1.511 1_655 S
C4039 H4053 0.961 . S
C4039 H4054 0.961 . S
C4039 H4055 0.961 . S
C4040 C4041 1.370 . S
C4040 C4042 1.363 . S
C4040 H4056 0.931 . S
C4041 C4040 1.370 . S
C4041 C4045 1.435 . S
C4042 C4040 1.363 . S
C4042 C4043 1.370 . S
C4042 C4046 1.524 . S
C4043 C4035 1.503 . S
C4043 C4042 1.370 . S
C4043 C4044 1.402 1_455 S
C4044 C4043 1.402 1_655 S
C4044 C4045 1.403 1_655 S
C4044 C4047 1.540 . S
C4045 C4041 1.435 . S
C4045 C4044 1.403 1_455 S
C4045 H4057 0.906 1_455 S
C4046 C4042 1.524 . S
C4046 H4058 0.956 . S
C4046 H4059 0.961 . S
C4046 H4060 0.961 . S
C4047 C4044 1.540 . S
C4047 H4061 0.958 . S
C4047 H4062 0.961 . S
C4047 H4063 0.960 . S
H4048 C4032 0.931 . S
H4049 C4037 0.951 . S
H4050 C4038 0.960 . S
H4051 C4038 0.962 . S
H4052 C4038 0.960 . S
H4053 C4039 0.961 . S
H4054 C4039 0.961 . S
H4055 C4039 0.961 . S
H4056 C4040 0.931 . S
H4057 C4045 0.906 1_655 S
H4058 C4046 0.956 . S
H4059 C4046 0.961 . S
H4060 C4046 0.961 . S
H4061 C4047 0.958 . S
H4062 C4047 0.961 . S
H4063 C4047 0.960 . S
C4064 C4065 1.391 . S
C4064 C4066 1.394 . S
C4064 H4080 0.931 . S
C4065 C4064 1.391 . S
C4065 C4069 1.376 . S
C4066 C4064 1.394 . S
C4066 C4067 1.369 . S
C4066 C4070 1.531 . S
C4067 C4066 1.369 . S
C4067 C4068 1.410 . S
C4067 C4075 1.503 . S
C4068 C4067 1.410 . S
C4068 C4069 1.392 . S
C4068 C4071 1.511 . S
C4069 C4065 1.376 . S
C4069 C4068 1.392 . S
C4069 H4081 0.929 . S
C4070 C4066 1.531 . S
C4070 H4082 0.960 . S
C4070 H4083 0.962 . S
C4070 H4084 0.960 . S
C4071 C4068 1.511 . S
C4071 H4085 0.961 . S
C4071 H4086 0.961 . S
C4071 H4087 0.961 . S
C4072 C4073 1.370 . S
C4072 C4074 1.363 . S
C4072 H4088 0.931 . S
C4073 C4072 1.370 . S
C4073 C4077 1.408 . S
C4074 C4072 1.363 . S
C4074 C4075 1.370 . S
C4074 C4078 1.524 . S
C4075 C4067 1.503 . S
C4075 C4074 1.370 . S
C4075 C4076 1.403 . S
C4076 C4075 1.403 . S
C4076 C4077 1.404 . S
C4076 C4079 1.539 . S
C4077 C4073 1.408 . S
C4077 C4076 1.404 . S
C4077 H4089 0.930 . S
C4078 C4074 1.524 . S
C4078 H4090 0.956 . S
C4078 H4091 0.961 . S
C4078 H4092 0.961 . S
C4079 C4076 1.539 . S
C4079 H4093 0.958 . S
C4079 H4094 0.961 . S
C4079 H4095 0.960 . S
H4080 C4064 0.931 . S
H4081 C4069 0.929 . S
H4082 C4070 0.960 . S
H4083 C4070 0.962 . S
H4084 C4070 0.960 . S
H4085 C4071 0.961 . S
H4086 C4071 0.961 . S
H4087 C4071 0.961 . S
H4088 C4072 0.931 . S
H4089 C4077 0.930 . S
H4090 C4078 0.956 . S
H4091 C4078 0.961 . S
H4092 C4078 0.961 . S
H4093 C4079 0.958 . S
H4094 C4079 0.961 . S
H4095 C4079 0.960 . S
C4096 C4097 1.391 . S
C4096 C4098 1.394 . S
C4096 H4112 0.931 . S
C4097 C4096 1.391 . S
C4097 C4101 1.376 . S
C4098 C4096 1.394 . S
C4098 C4099 1.369 . S
C4098 C4102 1.531 . S
C4099 C4098 1.369 . S
C4099 C4100 1.410 . S
C4099 C4107 1.503 . S
C4100 C4099 1.410 . S
C4100 C4101 1.392 . S
C4100 C4103 1.511 . S
C4101 C4097 1.376 . S
C4101 C4100 1.392 . S
C4101 H4113 0.929 . S
C4102 C4098 1.531 . S
C4102 H4114 0.960 . S
C4102 H4115 0.962 . S
C4102 H4116 0.960 . S
C4103 C4100 1.511 . S
C4103 H4117 0.961 . S
C4103 H4118 0.961 . S
C4103 H4119 0.961 . S
C4104 C4105 1.370 . S
C4104 C4106 1.363 . S
C4104 H4120 0.931 . S
C4105 C4104 1.370 . S
C4105 C4109 1.408 . S
C4106 C4104 1.363 . S
C4106 C4107 1.370 . S
C4106 C4110 1.524 . S
C4107 C4099 1.503 . S
C4107 C4106 1.370 . S
C4107 C4108 1.403 . S
C4108 C4107 1.403 . S
C4108 C4109 1.404 . S
C4108 C4111 1.539 . S
C4109 C4105 1.408 . S
C4109 C4108 1.404 . S
C4109 H4121 0.930 . S
C4110 C4106 1.524 . S
C4110 H4122 0.956 . S
C4110 H4123 0.961 . S
C4110 H4124 0.961 . S
C4111 C4108 1.539 . S
C4111 H4125 0.958 . S
C4111 H4126 0.961 . S
C4111 H4127 0.960 . S
H4112 C4096 0.931 . S
H4113 C4101 0.929 . S
H4114 C4102 0.960 . S
H4115 C4102 0.962 . S
H4116 C4102 0.960 . S
H4117 C4103 0.961 . S
H4118 C4103 0.961 . S
H4119 C4103 0.961 . S
H4120 C4104 0.931 . S
H4121 C4109 0.930 . S
H4122 C4110 0.956 . S
H4123 C4110 0.961 . S
H4124 C4110 0.961 . S
H4125 C4111 0.958 . S
H4126 C4111 0.961 . S
H4127 C4111 0.960 . S
C4128 C4129 1.412 . S
C4128 C4130 1.394 . S
C4128 H4144 0.931 . S
C4129 C4128 1.412 . S
C4129 C4133 1.355 1_556 S
C4130 C4128 1.394 . S
C4130 C4131 1.369 1_556 S
C4130 C4134 1.531 . S
C4131 C4130 1.369 1_554 S
C4131 C4132 1.409 . S
C4131 C4139 1.503 . S
C4132 C4131 1.409 . S
C4132 C4133 1.392 . S
C4132 C4135 1.511 . S
C4133 C4129 1.355 1_554 S
C4133 C4132 1.392 . S
C4133 H4145 0.929 . S
C4134 C4130 1.531 . S
C4134 H4146 0.960 . S
C4134 H4147 0.962 . S
C4134 H4148 0.960 . S
C4135 C4132 1.511 . S
C4135 H4149 0.961 . S
C4135 H4150 0.961 . S
C4135 H4151 0.961 . S
C4136 C4137 1.365 1_556 S
C4136 C4138 1.363 . S
C4136 H4152 0.931 . S
C4137 C4136 1.365 1_554 S
C4137 C4141 1.413 . S
C4138 C4136 1.363 . S
C4138 C4139 1.369 1_556 S
C4138 C4142 1.524 . S
C4139 C4131 1.503 . S
C4139 C4138 1.369 1_554 S
C4139 C4140 1.404 . S
C4140 C4139 1.404 . S
C4140 C4141 1.404 . S
C4140 C4143 1.539 . S
C4141 C4137 1.413 . S
C4141 C4140 1.404 . S
C4141 H4153 0.930 . S
C4142 C4138 1.524 . S
C4142 H4154 0.956 . S
C4142 H4155 0.961 1_556 S
C4142 H4156 0.961 . S
C4143 C4140 1.539 . S
C4143 H4157 0.958 1_554 S
C4143 H4158 0.961 . S
C4143 H4159 0.960 . S
H4144 C4128 0.931 . S
H4145 C4133 0.929 . S
H4146 C4134 0.960 . S
H4147 C4134 0.962 . S
H4148 C4134 0.960 . S
H4149 C4135 0.961 . S
H4150 C4135 0.961 . S
H4151 C4135 0.961 . S
H4152 C4136 0.931 . S
H4153 C4141 0.930 . S
H4154 C4142 0.956 . S
H4155 C4142 0.961 1_554 S
H4156 C4142 0.961 . S
H4157 C4143 0.958 1_556 S
H4158 C4143 0.961 . S
H4159 C4143 0.960 . S
C4160 C4161 1.391 . S
C4160 C4162 1.394 . S
C4160 H4176 0.931 1_545 S
C4161 C4160 1.391 . S
C4161 C4165 1.376 . S
C4162 C4160 1.394 . S
C4162 C4163 1.369 . S
C4162 C4166 1.531 1_545 S
C4163 C4162 1.369 . S
C4163 C4164 1.410 . S
C4163 C4171 1.503 . S
C4164 C4163 1.410 . S
C4164 C4165 1.392 . S
C4164 C4167 1.511 . S
C4165 C4161 1.376 . S
C4165 C4164 1.392 . S
C4165 H4177 0.929 . S
C4166 C4162 1.531 1_565 S
C4166 H4178 0.960 . S
C4166 H4179 0.962 . S
C4166 H4180 0.960 . S
C4167 C4164 1.511 . S
C4167 H4181 0.961 . S
C4167 H4182 0.961 . S
C4167 H4183 0.961 . S
C4168 C4169 1.370 . S
C4168 C4170 1.363 . S
C4168 H4184 0.931 . S
C4169 C4168 1.370 . S
C4169 C4173 1.408 . S
C4170 C4168 1.363 . S
C4170 C4171 1.370 . S
C4170 C4174 1.524 . S
C4171 C4163 1.503 . S
C4171 C4170 1.370 . S
C4171 C4172 1.403 . S
C4172 C4171 1.403 . S
C4172 C4173 1.404 . S
C4172 C4175 1.539 1_545 S
C4173 C4169 1.408 . S
C4173 C4172 1.404 . S
C4173 H4185 0.930 1_545 S
C4174 C4170 1.524 . S
C4174 H4186 0.956 . S
C4174 H4187 0.961 . S
C4174 H4188 0.961 . S
C4175 C4172 1.539 1_565 S
C4175 H4189 0.958 . S
C4175 H4190 0.961 . S
C4175 H4191 0.960 . S
H4176 C4160 0.931 1_565 S
H4177 C4165 0.929 . S
H4178 C4166 0.960 . S
H4179 C4166 0.962 . S
H4180 C4166 0.960 . S
H4181 C4167 0.961 . S
H4182 C4167 0.961 . S
H4183 C4167 0.961 . S
H4184 C4168 0.931 . S
H4185 C4173 0.930 1_565 S
H4186 C4174 0.956 . S
H4187 C4174 0.961 . S
H4188 C4174 0.961 . S
H4189 C4175 0.958 . S
H4190 C4175 0.961 . S
H4191 C4175 0.960 . S
C4192 C4193 1.391 . S
C4192 C4194 1.394 . S
C4192 H4208 0.931 . S
C4193 C4192 1.391 . S
C4193 C4197 1.376 1_545 S
C4194 C4192 1.394 . S
C4194 C4195 1.369 . S
C4194 C4198 1.531 . S
C4195 C4194 1.369 . S
C4195 C4196 1.410 1_545 S
C4195 C4203 1.503 . S
C4196 C4195 1.410 1_565 S
C4196 C4197 1.392 . S
C4196 C4199 1.511 . S
C4197 C4193 1.376 1_565 S
C4197 C4196 1.392 . S
C4197 H4209 0.929 . S
C4198 C4194 1.531 . S
C4198 H4210 0.960 . S
C4198 H4211 0.962 . S
C4198 H4212 0.960 . S
C4199 C4196 1.511 . S
C4199 H4213 0.961 . S
C4199 H4214 0.961 . S
C4199 H4215 0.961 . S
C4200 C4201 1.356 1_565 S
C4200 C4202 1.363 . S
C4200 H4216 0.931 . S
C4201 C4200 1.356 1_545 S
C4201 C4205 1.425 . S
C4202 C4200 1.363 . S
C4202 C4203 1.370 1_565 S
C4202 C4206 1.524 . S
C4203 C4195 1.503 . S
C4203 C4202 1.370 1_545 S
C4203 C4204 1.403 . S
C4204 C4203 1.403 . S
C4204 C4205 1.404 . S
C4204 C4207 1.539 . S
C4205 C4201 1.425 . S
C4205 C4204 1.404 . S
C4205 H4217 0.930 . S
C4206 C4202 1.524 . S
C4206 H4218 0.956 . S
C4206 H4219 0.961 . S
C4206 H4220 0.961 . S
C4207 C4204 1.539 . S
C4207 H4221 0.958 . S
C4207 H4222 0.961 . S
C4207 H4223 0.960 . S
H4208 C4192 0.931 . S
H4209 C4197 0.929 . S
H4210 C4198 0.960 . S
H4211 C4198 0.962 . S
H4212 C4198 0.960 . S
H4213 C4199 0.961 . S
H4214 C4199 0.961 . S
H4215 C4199 0.961 . S
H4216 C4200 0.931 . S
H4217 C4205 0.930 . S
H4218 C4206 0.956 . S
H4219 C4206 0.961 . S
H4220 C4206 0.961 . S
H4221 C4207 0.958 . S
H4222 C4207 0.961 . S
H4223 C4207 0.960 . S
C4224 C4225 1.391 . S
C4224 C4226 1.394 . S
C4224 H4240 0.931 . S
C4225 C4224 1.391 . S
C4225 C4229 1.376 . S
C4226 C4224 1.394 . S
C4226 C4227 1.369 . S
C4226 C4230 1.531 . S
C4227 C4226 1.369 . S
C4227 C4228 1.410 . S
C4227 C4235 1.503 1_554 S
C4228 C4227 1.410 . S
C4228 C4229 1.392 . S
C4228 C4231 1.511 . S
C4229 C4225 1.376 . S
C4229 C4228 1.392 . S
C4229 H4241 0.929 . S
C4230 C4226 1.531 . S
C4230 H4242 0.960 1_554 S
C4230 H4243 0.962 . S
C4230 H4244 0.960 . S
C4231 C4228 1.511 . S
C4231 H4245 0.961 . S
C4231 H4246 0.961 1_554 S
C4231 H4247 0.961 . S
C4232 C4233 1.370 1_545 S
C4232 C4234 1.362 1_545 S
C4232 H4248 0.931 . S
C4233 C4232 1.370 1_565 S
C4233 C4237 1.408 . S
C4234 C4232 1.362 1_565 S
C4234 C4235 1.413 . S
C4234 C4238 1.484 1_565 S
C4235 C4227 1.503 1_556 S
C4235 C4234 1.413 . S
C4235 C4236 1.403 . S
C4236 C4235 1.403 . S
C4236 C4237 1.404 . S
C4236 C4239 1.539 . S
C4237 C4233 1.408 . S
C4237 C4236 1.404 . S
C4237 H4249 0.930 . S
C4238 C4234 1.484 1_545 S
C4238 H4250 0.956 . S
C4238 H4251 0.961 . S
C4238 H4252 0.961 . S
C4239 C4236 1.539 . S
C4239 H4253 0.958 . S
C4239 H4254 0.961 . S
C4239 H4255 0.960 . S
H4240 C4224 0.931 . S
H4241 C4229 0.929 . S
H4242 C4230 0.960 1_556 S
H4243 C4230 0.962 . S
H4244 C4230 0.960 . S
H4245 C4231 0.961 . S
H4246 C4231 0.961 1_556 S
H4247 C4231 0.961 . S
H4248 C4232 0.931 . S
H4249 C4237 0.930 . S
H4250 C4238 0.956 . S
H4251 C4238 0.961 . S
H4252 C4238 0.961 . S
H4253 C4239 0.958 . S
H4254 C4239 0.961 . S
H4255 C4239 0.960 . S
C4256 C4257 1.356 1_545 S
C4256 C4258 1.394 . S
C4256 H4272 0.931 . S
C4257 C4256 1.356 1_565 S
C4257 C4261 1.411 . S
C4258 C4256 1.394 . S
C4258 C4259 1.367 . S
C4258 C4262 1.531 . S
C4259 C4258 1.367 . S
C4259 C4260 1.411 1_545 S
C4259 C4267 1.503 . S
C4260 C4259 1.411 1_565 S
C4260 C4261 1.392 . S
C4260 C4263 1.511 . S
C4261 C4257 1.411 . S
C4261 C4260 1.392 . S
C4261 H4273 0.929 . S
C4262 C4258 1.531 . S
C4262 H4274 0.960 . S
C4262 H4275 0.962 . S
C4262 H4276 0.960 . S
C4263 C4260 1.511 . S
C4263 H4277 0.961 . S
C4263 H4278 0.961 . S
C4263 H4279 0.961 . S
C4264 C4265 1.370 . S
C4264 C4266 1.363 . S
C4264 H4280 0.931 . S
C4265 C4264 1.370 . S
C4265 C4269 1.404 1_545 S
C4266 C4264 1.363 . S
C4266 C4267 1.374 . S
C4266 C4270 1.524 . S
C4267 C4259 1.503 . S
C4267 C4266 1.374 . S
C4267 C4268 1.401 1_545 S
C4268 C4267 1.401 1_565 S
C4268 C4269 1.405 . S
C4268 C4271 1.539 . S
C4269 C4265 1.404 1_565 S
C4269 C4268 1.405 . S
C4269 H4281 0.935 . S
C4270 C4266 1.524 . S
C4270 H4282 0.956 . S
C4270 H4283 0.961 1_545 S
C4270 H4284 0.961 . S
C4271 C4268 1.539 . S
C4271 H4285 0.958 1_565 S
C4271 H4286 0.961 . S
C4271 H4287 0.960 . S
H4272 C4256 0.931 . S
H4273 C4261 0.929 . S
H4274 C4262 0.960 . S
H4275 C4262 0.962 . S
H4276 C4262 0.960 . S
H4277 C4263 0.961 . S
H4278 C4263 0.961 . S
H4279 C4263 0.961 . S
H4280 C4264 0.931 . S
H4281 C4269 0.935 . S
H4282 C4270 0.956 . S
H4283 C4270 0.961 1_565 S
H4284 C4270 0.961 . S
H4285 C4271 0.958 1_545 S
H4286 C4271 0.961 . S
H4287 C4271 0.960 . S
C4288 C4289 1.391 1_556 S
C4288 C4290 1.394 . S
C4288 H4304 0.931 . S
C4289 C4288 1.391 1_554 S
C4289 C4293 1.376 . S
C4290 C4288 1.394 . S
C4290 C4291 1.369 1_556 S
C4290 C4294 1.531 . S
C4291 C4290 1.369 1_554 S
C4291 C4292 1.410 . S
C4291 C4299 1.503 . S
C4292 C4291 1.410 . S
C4292 C4293 1.392 . S
C4292 C4295 1.511 . S
C4293 C4289 1.376 . S
C4293 C4292 1.392 . S
C4293 H4305 0.929 . S
C4294 C4290 1.531 . S
C4294 H4306 0.960 . S
C4294 H4307 0.962 . S
C4294 H4308 0.960 . S
C4295 C4292 1.511 . S
C4295 H4309 0.961 . S
C4295 H4310 0.961 . S
C4295 H4311 0.961 . S
C4296 C4297 1.370 . S
C4296 C4298 1.363 . S
C4296 H4312 0.931 . S
C4297 C4296 1.370 . S
C4297 C4301 1.408 . S
C4298 C4296 1.363 . S
C4298 C4299 1.370 . S
C4298 C4302 1.524 . S
C4299 C4291 1.503 . S
C4299 C4298 1.370 . S
C4299 C4300 1.403 . S
C4300 C4299 1.403 . S
C4300 C4301 1.404 . S
C4300 C4303 1.539 1_554 S
C4301 C4297 1.408 . S
C4301 C4300 1.404 . S
C4301 H4313 0.923 1_554 S
C4302 C4298 1.524 . S
C4302 H4314 0.956 . S
C4302 H4315 0.961 . S
C4302 H4316 0.961 . S
C4303 C4300 1.539 1_556 S
C4303 H4317 0.958 . S
C4303 H4318 0.961 . S
C4303 H4319 0.960 1_556 S
H4304 C4288 0.931 . S
H4305 C4293 0.929 . S
H4306 C4294 0.960 . S
H4307 C4294 0.962 . S
H4308 C4294 0.960 . S
H4309 C4295 0.961 . S
H4310 C4295 0.961 . S
H4311 C4295 0.961 . S
H4312 C4296 0.931 . S
H4313 C4301 0.923 1_556 S
H4314 C4302 0.956 . S
H4315 C4302 0.961 . S
H4316 C4302 0.961 . S
H4317 C4303 0.958 . S
H4318 C4303 0.961 . S
H4319 C4303 0.960 1_554 S
C4320 C4321 1.391 . S
C4320 C4322 1.394 . S
C4320 H4336 0.931 . S
C4321 C4320 1.391 . S
C4321 C4325 1.376 . S
C4322 C4320 1.394 . S
C4322 C4323 1.369 . S
C4322 C4326 1.531 . S
C4323 C4322 1.369 . S
C4323 C4324 1.410 . S
C4323 C4331 1.503 1_655 S
C4324 C4323 1.410 . S
C4324 C4325 1.392 . S
C4324 C4327 1.511 . S
C4325 C4321 1.376 . S
C4325 C4324 1.392 . S
C4325 H4337 0.929 . S
C4326 C4322 1.531 . S
C4326 H4338 0.927 1_655 S
C4326 H4339 0.962 . S
C4326 H4340 0.960 . S
C4327 C4324 1.511 . S
C4327 H4341 0.961 1_556 S
C4327 H4342 0.958 1_556 S
C4327 H4343 0.961 . S
C4328 C4329 1.370 . S
C4328 C4330 1.363 . S
C4328 H4344 0.931 1_556 S
C4329 C4328 1.370 . S
C4329 C4333 1.408 . S
C4330 C4328 1.363 . S
C4330 C4331 1.370 . S
C4330 C4334 1.524 1_556 S
C4331 C4323 1.503 1_455 S
C4331 C4330 1.370 . S
C4331 C4332 1.403 . S
C4332 C4331 1.403 . S
C4332 C4333 1.404 . S
C4332 C4335 1.539 . S
C4333 C4329 1.408 . S
C4333 C4332 1.404 . S
C4333 H4345 0.930 . S
C4334 C4330 1.524 1_554 S
C4334 H4346 0.937 1_455 S
C4334 H4347 0.961 1_455 S
C4334 H4348 0.961 . S
C4335 C4332 1.539 . S
C4335 H4349 0.958 . S
C4335 H4350 0.961 . S
C4335 H4351 0.960 1_455 S
H4336 C4320 0.931 . S
H4337 C4325 0.929 . S
H4338 C4326 0.927 1_455 S
H4339 C4326 0.962 . S
H4340 C4326 0.960 . S
H4341 C4327 0.961 1_554 S
H4342 C4327 0.958 1_554 S
H4343 C4327 0.961 . S
H4344 C4328 0.931 1_554 S
H4345 C4333 0.930 . S
H4346 C4334 0.937 1_655 S
H4347 C4334 0.961 1_655 S
H4348 C4334 0.961 . S
H4349 C4335 0.958 . S
H4350 C4335 0.961 . S
H4351 C4335 0.960 1_655 S
C4352 C4353 1.391 1_655 S
C4352 C4354 1.394 . S
C4352 H4368 0.931 . S
C4353 C4352 1.391 1_455 S
C4353 C4357 1.376 . S
C4354 C4352 1.394 . S
C4354 C4355 1.369 1_655 S
C4354 C4358 1.531 . S
C4355 C4354 1.369 1_455 S
C4355 C4356 1.410 . S
C4355 C4363 1.503 . S
C4356 C4355 1.410 . S
C4356 C4357 1.392 . S
C4356 C4359 1.511 . S
C4357 C4353 1.376 . S
C4357 C4356 1.392 . S
C4357 H4369 0.929 . S
C4358 C4354 1.531 . S
C4358 H4370 0.960 . S
C4358 H4371 0.962 . S
C4358 H4372 0.960 . S
C4359 C4356 1.511 . S
C4359 H4373 0.961 . S
C4359 H4374 0.961 . S
C4359 H4375 0.961 . S
C4360 C4361 1.370 1_655 S
C4360 C4362 1.363 . S
C4360 H4376 0.931 . S
C4361 C4360 1.370 1_455 S
C4361 C4365 1.408 . S
C4362 C4360 1.363 . S
C4362 C4363 1.370 1_655 S
C4362 C4366 1.524 . S
C4363 C4355 1.503 . S
C4363 C4362 1.370 1_455 S
C4363 C4364 1.403 . S
C4364 C4363 1.403 . S
C4364 C4365 1.404 . S
C4364 C4367 1.539 . S
C4365 C4361 1.408 . S
C4365 C4364 1.404 . S
C4365 H4377 0.930 . S
C4366 C4362 1.524 . S
C4366 H4378 0.956 . S
C4366 H4379 0.961 . S
C4366 H4380 0.961 . S
C4367 C4364 1.539 . S
C4367 H4381 0.958 . S
C4367 H4382 0.961 . S
C4367 H4383 0.960 . S
H4368 C4352 0.931 . S
H4369 C4357 0.929 . S
H4370 C4358 0.960 . S
H4371 C4358 0.962 . S
H4372 C4358 0.960 . S
H4373 C4359 0.961 . S
H4374 C4359 0.961 . S
H4375 C4359 0.961 . S
H4376 C4360 0.931 . S
H4377 C4365 0.930 . S
H4378 C4366 0.956 . S
H4379 C4366 0.961 . S
H4380 C4366 0.961 . S
H4381 C4367 0.958 . S
H4382 C4367 0.961 . S
H4383 C4367 0.960 . S
C4384 C4385 1.391 . S
C4384 C4386 1.394 . S
C4384 H4400 0.931 . S
C4385 C4384 1.391 . S
C4385 C4389 1.376 . S
C4386 C4384 1.394 . S
C4386 C4387 1.369 . S
C4386 C4390 1.531 . S
C4387 C4386 1.369 . S
C4387 C4388 1.410 . S
C4387 C4395 1.503 . S
C4388 C4387 1.410 . S
C4388 C4389 1.392 . S
C4388 C4391 1.511 . S
C4389 C4385 1.376 . S
C4389 C4388 1.392 . S
C4389 H4401 0.929 . S
C4390 C4386 1.531 . S
C4390 H4402 0.960 . S
C4390 H4403 0.962 . S
C4390 H4404 0.960 . S
C4391 C4388 1.511 . S
C4391 H4405 0.961 . S
C4391 H4406 0.961 . S
C4391 H4407 0.961 . S
C4392 C4393 1.370 . S
C4392 C4394 1.363 . S
C4392 H4408 0.931 . S
C4393 C4392 1.370 . S
C4393 C4397 1.408 . S
C4394 C4392 1.363 . S
C4394 C4395 1.370 . S
C4394 C4398 1.524 . S
C4395 C4387 1.503 . S
C4395 C4394 1.370 . S
C4395 C4396 1.403 . S
C4396 C4395 1.403 . S
C4396 C4397 1.404 . S
C4396 C4399 1.539 . S
C4397 C4393 1.408 . S
C4397 C4396 1.404 . S
C4397 H4409 0.930 . S
C4398 C4394 1.524 . S
C4398 H4410 0.956 . S
C4398 H4411 0.961 . S
C4398 H4412 0.961 . S
C4399 C4396 1.539 . S
C4399 H4413 0.958 . S
C4399 H4414 0.961 . S
C4399 H4415 0.960 . S
H4400 C4384 0.931 . S
H4401 C4389 0.929 . S
H4402 C4390 0.960 . S
H4403 C4390 0.962 . S
H4404 C4390 0.960 . S
H4405 C4391 0.961 . S
H4406 C4391 0.961 . S
H4407 C4391 0.961 . S
H4408 C4392 0.931 . S
H4409 C4397 0.930 . S
H4410 C4398 0.956 . S
H4411 C4398 0.961 . S
H4412 C4398 0.961 . S
H4413 C4399 0.958 . S
H4414 C4399 0.961 . S
H4415 C4399 0.960 . S
C4416 C4417 1.391 . S
C4416 C4418 1.394 . S
C4416 H4432 0.931 . S
C4417 C4416 1.391 . S
C4417 C4421 1.376 . S
C4418 C4416 1.394 . S
C4418 C4419 1.369 . S
C4418 C4422 1.531 . S
C4419 C4418 1.369 . S
C4419 C4420 1.410 . S
C4419 C4427 1.503 1_655 S
C4420 C4419 1.410 . S
C4420 C4421 1.392 . S
C4420 C4423 1.511 . S
C4421 C4417 1.376 . S
C4421 C4420 1.392 . S
C4421 H4433 0.929 . S
C4422 C4418 1.531 . S
C4422 H4434 0.930 1_655 S
C4422 H4435 0.962 . S
C4422 H4436 0.960 . S
C4423 C4420 1.511 . S
C4423 H4437 0.961 . S
C4423 H4438 0.961 1_655 S
C4423 H4439 0.961 . S
C4424 C4425 1.370 . S
C4424 C4426 1.363 . S
C4424 H4440 0.931 . S
C4425 C4424 1.370 . S
C4425 C4429 1.408 . S
C4426 C4424 1.363 . S
C4426 C4427 1.370 . S
C4426 C4430 1.524 . S
C4427 C4419 1.503 1_455 S
C4427 C4426 1.370 . S
C4427 C4428 1.403 . S
C4428 C4427 1.403 . S
C4428 C4429 1.404 . S
C4428 C4431 1.539 . S
C4429 C4425 1.408 . S
C4429 C4428 1.404 . S
C4429 H4441 0.930 . S
C4430 C4426 1.524 . S
C4430 H4442 0.975 . S
C4430 H4443 0.961 1_455 S
C4430 H4444 0.961 . S
C4431 C4428 1.539 . S
C4431 H4445 0.958 . S
C4431 H4446 0.961 . S
C4431 H4447 0.906 1_455 S
H4432 C4416 0.931 . S
H4433 C4421 0.929 . S
H4434 C4422 0.930 1_455 S
H4435 C4422 0.962 . S
H4436 C4422 0.960 . S
H4437 C4423 0.961 . S
H4438 C4423 0.961 1_455 S
H4439 C4423 0.961 . S
H4440 C4424 0.931 . S
H4441 C4429 0.930 . S
H4442 C4430 0.975 . S
H4443 C4430 0.961 1_655 S
H4444 C4430 0.961 . S
H4445 C4431 0.958 . S
H4446 C4431 0.961 . S
H4447 C4431 0.906 1_655 S
C4448 C4449 1.338 1_455 S
C4448 C4450 1.394 . S
C4448 H4464 0.931 . S
C4449 C4448 1.338 1_655 S
C4449 C4453 1.429 . S
C4450 C4448 1.394 . S
C4450 C4451 1.364 1_455 S
C4450 C4454 1.531 . S
C4451 C4450 1.364 1_655 S
C4451 C4452 1.415 . S
C4451 C4459 1.503 1_655 S
C4452 C4451 1.415 . S
C4452 C4453 1.392 . S
C4452 C4455 1.511 . S
C4453 C4449 1.429 . S
C4453 C4452 1.392 . S
C4453 H4465 0.929 . S
C4454 C4450 1.531 . S
C4454 H4466 0.960 . S
C4454 H4467 0.962 . S
C4454 H4468 0.960 . S
C4455 C4452 1.511 . S
C4455 H4469 0.961 . S
C4455 H4470 0.961 . S
C4455 H4471 0.961 . S
C4456 C4457 1.370 . S
C4456 C4458 1.363 . S
C4456 H4472 0.931 . S
C4457 C4456 1.370 . S
C4457 C4461 1.404 1_455 S
C4458 C4456 1.363 . S
C4458 C4459 1.372 . S
C4458 C4462 1.524 . S
C4459 C4451 1.503 1_455 S
C4459 C4458 1.372 . S
C4459 C4460 1.402 1_455 S
C4460 C4459 1.402 1_655 S
C4460 C4461 1.406 . S
C4460 C4463 1.539 . S
C4461 C4457 1.404 1_655 S
C4461 C4460 1.406 . S
C4461 H4473 0.937 . S
C4462 C4458 1.524 . S
C4462 H4474 0.956 . S
C4462 H4475 0.961 1_455 S
C4462 H4476 0.961 . S
C4463 C4460 1.539 . S
C4463 H4477 0.958 1_655 S
C4463 H4478 0.961 . S
C4463 H4479 0.960 . S
H4464 C4448 0.931 . S
H4465 C4453 0.929 . S
H4466 C4454 0.960 . S
H4467 C4454 0.962 . S
H4468 C4454 0.960 . S
H4469 C4455 0.961 . S
H4470 C4455 0.961 . S
H4471 C4455 0.961 . S
H4472 C4456 0.931 . S
H4473 C4461 0.937 . S
H4474 C4462 0.956 . S
H4475 C4462 0.961 1_655 S
H4476 C4462 0.961 . S
H4477 C4463 0.958 1_455 S
H4478 C4463 0.961 . S
H4479 C4463 0.960 . S
C4480 C4481 1.391 . S
C4480 C4482 1.394 . S
C4480 H4496 0.931 . S
C4481 C4480 1.391 . S
C4481 C4485 1.376 . S
C4482 C4480 1.394 . S
C4482 C4483 1.369 . S
C4482 C4486 1.531 . S
C4483 C4482 1.369 . S
C4483 C4484 1.410 . S
C4483 C4491 1.503 . S
C4484 C4483 1.410 . S
C4484 C4485 1.392 . S
C4484 C4487 1.511 . S
C4485 C4481 1.376 . S
C4485 C4484 1.392 . S
C4485 H4497 0.929 . S
C4486 C4482 1.531 . S
C4486 H4498 0.960 . S
C4486 H4499 0.962 . S
C4486 H4500 0.960 . S
C4487 C4484 1.511 . S
C4487 H4501 0.961 . S
C4487 H4502 0.961 . S
C4487 H4503 0.961 . S
C4488 C4489 1.370 . S
C4488 C4490 1.363 . S
C4488 H4504 0.931 . S
C4489 C4488 1.370 . S
C4489 C4493 1.408 . S
C4490 C4488 1.363 . S
C4490 C4491 1.370 . S
C4490 C4494 1.524 . S
C4491 C4483 1.503 . S
C4491 C4490 1.370 . S
C4491 C4492 1.403 . S
C4492 C4491 1.403 . S
C4492 C4493 1.404 . S
C4492 C4495 1.539 . S
C4493 C4489 1.408 . S
C4493 C4492 1.404 . S
C4493 H4505 0.930 . S
C4494 C4490 1.524 . S
C4494 H4506 0.956 . S
C4494 H4507 0.961 . S
C4494 H4508 0.961 . S
C4495 C4492 1.539 . S
C4495 H4509 0.958 . S
C4495 H4510 0.961 . S
C4495 H4511 0.960 . S
H4496 C4480 0.931 . S
H4497 C4485 0.929 . S
H4498 C4486 0.960 . S
H4499 C4486 0.962 . S
H4500 C4486 0.960 . S
H4501 C4487 0.961 . S
H4502 C4487 0.961 . S
H4503 C4487 0.961 . S
H4504 C4488 0.931 . S
H4505 C4493 0.930 . S
H4506 C4494 0.956 . S
H4507 C4494 0.961 . S
H4508 C4494 0.961 . S
H4509 C4495 0.958 . S
H4510 C4495 0.961 . S
H4511 C4495 0.960 . S
C4512 C4513 1.391 . S
C4512 C4514 1.394 . S
C4512 H4528 0.931 . S
C4513 C4512 1.391 . S
C4513 C4517 1.376 . S
C4514 C4512 1.394 . S
C4514 C4515 1.369 . S
C4514 C4518 1.531 . S
C4515 C4514 1.369 . S
C4515 C4516 1.410 . S
C4515 C4523 1.503 . S
C4516 C4515 1.410 . S
C4516 C4517 1.392 . S
C4516 C4519 1.511 1_655 S
C4517 C4513 1.376 . S
C4517 C4516 1.392 . S
C4517 H4529 0.929 1_655 S
C4518 C4514 1.531 . S
C4518 H4530 0.960 . S
C4518 H4531 0.962 . S
C4518 H4532 0.960 . S
C4519 C4516 1.511 1_455 S
C4519 H4533 0.961 . S
C4519 H4534 0.961 . S
C4519 H4535 0.961 . S
C4520 C4521 1.370 . S
C4520 C4522 1.363 . S
C4520 H4536 0.931 . S
C4521 C4520 1.370 . S
C4521 C4525 1.408 . S
C4522 C4520 1.363 . S
C4522 C4523 1.370 . S
C4522 C4526 1.524 . S
C4523 C4515 1.503 . S
C4523 C4522 1.370 . S
C4523 C4524 1.403 . S
C4524 C4523 1.403 . S
C4524 C4525 1.404 . S
C4524 C4527 1.539 1_655 S
C4525 C4521 1.408 . S
C4525 C4524 1.404 . S
C4525 H4537 0.930 1_655 S
C4526 C4522 1.524 . S
C4526 H4538 0.956 . S
C4526 H4539 0.961 . S
C4526 H4540 0.961 . S
C4527 C4524 1.539 1_455 S
C4527 H4541 0.958 . S
C4527 H4542 0.961 . S
C4527 H4543 0.960 . S
H4528 C4512 0.931 . S
H4529 C4517 0.929 1_455 S
H4530 C4518 0.960 . S
H4531 C4518 0.962 . S
H4532 C4518 0.960 . S
H4533 C4519 0.961 . S
H4534 C4519 0.961 . S
H4535 C4519 0.961 . S
H4536 C4520 0.931 . S
H4537 C4525 0.930 1_455 S
H4538 C4526 0.956 . S
H4539 C4526 0.961 . S
H4540 C4526 0.961 . S
H4541 C4527 0.958 . S
H4542 C4527 0.961 . S
H4543 C4527 0.960 . S
C4544 C4545 1.391 . S
C4544 C4546 1.394 . S
C4544 H4560 0.931 . S
C4545 C4544 1.391 . S
C4545 C4549 1.376 . S
C4546 C4544 1.394 . S
C4546 C4547 1.369 . S
C4546 C4550 1.531 . S
C4547 C4546 1.369 . S
C4547 C4548 1.410 . S
C4547 C4555 1.503 . S
C4548 C4547 1.410 . S
C4548 C4549 1.392 . S
C4548 C4551 1.511 . S
C4549 C4545 1.376 . S
C4549 C4548 1.392 . S
C4549 H4561 0.929 . S
C4550 C4546 1.531 . S
C4550 H4562 0.960 . S
C4550 H4563 0.962 . S
C4550 H4564 0.960 . S
C4551 C4548 1.511 . S
C4551 H4565 0.961 . S
C4551 H4566 0.961 . S
C4551 H4567 0.961 . S
C4552 C4553 1.370 . S
C4552 C4554 1.363 . S
C4552 H4568 0.931 . S
C4553 C4552 1.370 . S
C4553 C4557 1.408 . S
C4554 C4552 1.363 . S
C4554 C4555 1.370 . S
C4554 C4558 1.524 . S
C4555 C4547 1.503 . S
C4555 C4554 1.370 . S
C4555 C4556 1.403 . S
C4556 C4555 1.403 . S
C4556 C4557 1.404 . S
C4556 C4559 1.539 . S
C4557 C4553 1.408 . S
C4557 C4556 1.404 . S
C4557 H4569 0.930 . S
C4558 C4554 1.524 . S
C4558 H4570 0.956 . S
C4558 H4571 0.961 . S
C4558 H4572 0.961 . S
C4559 C4556 1.539 . S
C4559 H4573 0.958 . S
C4559 H4574 0.961 . S
C4559 H4575 0.960 . S
H4560 C4544 0.931 . S
H4561 C4549 0.929 . S
H4562 C4550 0.960 . S
H4563 C4550 0.962 . S
H4564 C4550 0.960 . S
H4565 C4551 0.961 . S
H4566 C4551 0.961 . S
H4567 C4551 0.961 . S
H4568 C4552 0.931 . S
H4569 C4557 0.930 . S
H4570 C4558 0.956 . S
H4571 C4558 0.961 . S
H4572 C4558 0.961 . S
H4573 C4559 0.958 . S
H4574 C4559 0.961 . S
H4575 C4559 0.960 . S
C4576 C4577 1.391 . S
C4576 C4578 1.394 . S
C4576 H4592 0.931 . S
C4577 C4576 1.391 . S
C4577 C4581 1.376 . S
C4578 C4576 1.394 . S
C4578 C4579 1.369 . S
C4578 C4582 1.531 . S
C4579 C4578 1.369 . S
C4579 C4580 1.410 . S
C4579 C4587 1.503 . S
C4580 C4579 1.410 . S
C4580 C4581 1.392 . S
C4580 C4583 1.511 . S
C4581 C4577 1.376 . S
C4581 C4580 1.392 . S
C4581 H4593 0.929 . S
C4582 C4578 1.531 . S
C4582 H4594 0.960 . S
C4582 H4595 0.962 . S
C4582 H4596 0.960 . S
C4583 C4580 1.511 . S
C4583 H4597 0.961 . S
C4583 H4598 0.961 . S
C4583 H4599 0.961 . S
C4584 C4585 1.370 . S
C4584 C4586 1.363 . S
C4584 H4600 0.931 . S
C4585 C4584 1.370 . S
C4585 C4589 1.408 . S
C4586 C4584 1.363 . S
C4586 C4587 1.370 . S
C4586 C4590 1.524 . S
C4587 C4579 1.503 . S
C4587 C4586 1.370 . S
C4587 C4588 1.403 . S
C4588 C4587 1.403 . S
C4588 C4589 1.404 . S
C4588 C4591 1.539 . S
C4589 C4585 1.408 . S
C4589 C4588 1.404 . S
C4589 H4601 0.930 . S
C4590 C4586 1.524 . S
C4590 H4602 0.956 . S
C4590 H4603 0.961 . S
C4590 H4604 0.961 . S
C4591 C4588 1.539 . S
C4591 H4605 0.958 . S
C4591 H4606 0.961 . S
C4591 H4607 0.960 . S
H4592 C4576 0.931 . S
H4593 C4581 0.929 . S
H4594 C4582 0.960 . S
H4595 C4582 0.962 . S
H4596 C4582 0.960 . S
H4597 C4583 0.961 . S
H4598 C4583 0.961 . S
H4599 C4583 0.961 . S
H4600 C4584 0.931 . S
H4601 C4589 0.930 . S
H4602 C4590 0.956 . S
H4603 C4590 0.961 . S
H4604 C4590 0.961 . S
H4605 C4591 0.958 . S
H4606 C4591 0.961 . S
H4607 C4591 0.960 . S
C4608 C4609 1.390 1_556 S
C4608 C4610 1.392 1_556 S
C4608 H4624 0.934 . S
C4609 C4608 1.390 1_554 S
C4609 C4613 1.376 . S
C4610 C4608 1.392 1_554 S
C4610 C4611 1.369 . S
C4610 C4614 1.531 1_554 S
C4611 C4610 1.369 . S
C4611 C4612 1.410 . S
C4611 C4619 1.503 . S
C4612 C4611 1.410 . S
C4612 C4613 1.392 . S
C4612 C4615 1.511 . S
C4613 C4609 1.376 . S
C4613 C4612 1.392 . S
C4613 H4625 0.929 . S
C4614 C4610 1.531 1_556 S
C4614 H4626 0.960 1_556 S
C4614 H4627 0.962 . S
C4614 H4628 0.960 1_556 S
C4615 C4612 1.511 . S
C4615 H4629 0.961 . S
C4615 H4630 0.961 . S
C4615 H4631 0.961 . S
C4616 C4617 1.370 1_556 S
C4616 C4618 1.363 . S
C4616 H4632 0.931 . S
C4617 C4616 1.370 1_554 S
C4617 C4621 1.408 . S
C4618 C4616 1.363 . S
C4618 C4619 1.370 1_556 S
C4618 C4622 1.524 . S
C4619 C4611 1.503 . S
C4619 C4618 1.370 1_554 S
C4619 C4620 1.403 . S
C4620 C4619 1.403 . S
C4620 C4621 1.404 . S
C4620 C4623 1.539 . S
C4621 C4617 1.408 . S
C4621 C4620 1.404 . S
C4621 H4633 0.930 . S
C4622 C4618 1.524 . S
C4622 H4634 0.956 . S
C4622 H4635 0.961 . S
C4622 H4636 0.961 . S
C4623 C4620 1.539 . S
C4623 H4637 0.958 . S
C4623 H4638 0.961 . S
C4623 H4639 0.960 . S
H4624 C4608 0.934 . S
H4625 C4613 0.929 . S
H4626 C4614 0.960 1_554 S
H4627 C4614 0.962 . S
H4628 C4614 0.960 1_554 S
H4629 C4615 0.961 . S
H4630 C4615 0.961 . S
H4631 C4615 0.961 . S
H4632 C4616 0.931 . S
H4633 C4621 0.930 . S
H4634 C4622 0.956 . S
H4635 C4622 0.961 . S
H4636 C4622 0.961 . S
H4637 C4623 0.958 . S
H4638 C4623 0.961 . S
H4639 C4623 0.960 . S
C4640 C4641 1.391 . S
C4640 C4642 1.394 . S
C4640 H4656 0.931 1_565 S
C4641 C4640 1.391 . S
C4641 C4645 1.376 . S
C4642 C4640 1.394 . S
C4642 C4643 1.369 . S
C4642 C4646 1.531 1_565 S
C4643 C4642 1.369 . S
C4643 C4644 1.410 . S
C4643 C4651 1.503 . S
C4644 C4643 1.410 . S
C4644 C4645 1.392 . S
C4644 C4647 1.511 . S
C4645 C4641 1.376 . S
C4645 C4644 1.392 . S
C4645 H4657 0.929 . S
C4646 C4642 1.531 1_545 S
C4646 H4658 0.960 . S
C4646 H4659 0.962 1_545 S
C4646 H4660 0.960 . S
C4647 C4644 1.511 . S
C4647 H4661 0.961 . S
C4647 H4662 0.961 . S
C4647 H4663 0.961 . S
C4648 C4649 1.370 . S
C4648 C4650 1.363 . S
C4648 H4664 0.931 . S
C4649 C4648 1.370 . S
C4649 C4653 1.362 1_565 S
C4650 C4648 1.363 . S
C4650 C4651 1.370 . S
C4650 C4654 1.524 . S
C4651 C4643 1.503 . S
C4651 C4650 1.370 . S
C4651 C4652 1.403 1_565 S
C4652 C4651 1.403 1_545 S
C4652 C4653 1.409 . S
C4652 C4655 1.539 . S
C4653 C4649 1.362 1_545 S
C4653 C4652 1.409 . S
C4653 H4665 0.972 . S
C4654 C4650 1.524 . S
C4654 H4666 0.956 . S
C4654 H4667 0.961 . S
C4654 H4668 0.961 . S
C4655 C4652 1.539 . S
C4655 H4669 0.958 . S
C4655 H4670 0.961 . S
C4655 H4671 0.960 . S
H4656 C4640 0.931 1_545 S
H4657 C4645 0.929 . S
H4658 C4646 0.960 . S
H4659 C4646 0.962 1_565 S
H4660 C4646 0.960 . S
H4661 C4647 0.961 . S
H4662 C4647 0.961 . S
H4663 C4647 0.961 . S
H4664 C4648 0.931 . S
H4665 C4653 0.972 . S
H4666 C4654 0.956 . S
H4667 C4654 0.961 . S
H4668 C4654 0.961 . S
H4669 C4655 0.958 . S
H4670 C4655 0.961 . S
H4671 C4655 0.960 . S
C4672 C4673 1.391 . S
C4672 C4674 1.394 . S
C4672 H4688 0.931 . S
C4673 C4672 1.391 . S
C4673 C4677 1.376 1_565 S
C4674 C4672 1.394 . S
C4674 C4675 1.369 . S
C4674 C4678 1.531 . S
C4675 C4674 1.369 . S
C4675 C4676 1.410 1_565 S
C4675 C4683 1.503 . S
C4676 C4675 1.410 1_545 S
C4676 C4677 1.392 . S
C4676 C4679 1.511 . S
C4677 C4673 1.376 1_545 S
C4677 C4676 1.392 . S
C4677 H4689 0.929 . S
C4678 C4674 1.531 . S
C4678 H4690 0.960 . S
C4678 H4691 0.962 . S
C4678 H4692 0.960 . S
C4679 C4676 1.511 . S
C4679 H4693 0.961 . S
C4679 H4694 0.961 . S
C4679 H4695 0.961 1_545 S
C4680 C4681 1.360 1_545 S
C4680 C4682 1.363 . S
C4680 H4696 0.931 . S
C4681 C4680 1.360 1_565 S
C4681 C4685 1.420 . S
C4682 C4680 1.363 . S
C4682 C4683 1.370 1_545 S
C4682 C4686 1.524 . S
C4683 C4675 1.503 . S
C4683 C4682 1.370 1_565 S
C4683 C4684 1.403 . S
C4684 C4683 1.403 . S
C4684 C4685 1.404 . S
C4684 C4687 1.539 . S
C4685 C4681 1.420 . S
C4685 C4684 1.404 . S
C4685 H4697 0.930 . S
C4686 C4682 1.524 . S
C4686 H4698 0.956 . S
C4686 H4699 0.961 . S
C4686 H4700 0.961 . S
C4687 C4684 1.539 . S
C4687 H4701 0.958 . S
C4687 H4702 0.961 . S
C4687 H4703 0.960 . S
H4688 C4672 0.931 . S
H4689 C4677 0.929 . S
H4690 C4678 0.960 . S
H4691 C4678 0.962 . S
H4692 C4678 0.960 . S
H4693 C4679 0.961 . S
H4694 C4679 0.961 . S
H4695 C4679 0.961 1_565 S
H4696 C4680 0.931 . S
H4697 C4685 0.930 . S
H4698 C4686 0.956 . S
H4699 C4686 0.961 . S
H4700 C4686 0.961 . S
H4701 C4687 0.958 . S
H4702 C4687 0.961 . S
H4703 C4687 0.960 . S
C4704 C4705 1.391 . S
C4704 C4706 1.394 . S
C4704 H4720 0.931 . S
C4705 C4704 1.391 . S
C4705 C4709 1.376 . S
C4706 C4704 1.394 . S
C4706 C4707 1.369 . S
C4706 C4710 1.531 . S
C4707 C4706 1.369 . S
C4707 C4708 1.410 . S
C4707 C4715 1.503 1_556 S
C4708 C4707 1.410 . S
C4708 C4709 1.392 . S
C4708 C4711 1.511 1_545 S
C4709 C4705 1.376 . S
C4709 C4708 1.392 . S
C4709 H4721 0.929 1_545 S
C4710 C4706 1.531 . S
C4710 H4722 0.960 1_556 S
C4710 H4723 0.962 . S
C4710 H4724 0.960 . S
C4711 C4708 1.511 1_565 S
C4711 H4725 0.961 . S
C4711 H4726 0.961 1_556 S
C4711 H4727 0.961 1_565 S
C4712 C4713 1.370 . S
C4712 C4714 1.363 . S
C4712 H4728 0.931 1_545 S
C4713 C4712 1.370 . S
C4713 C4717 1.408 . S
C4714 C4712 1.363 . S
C4714 C4715 1.370 . S
C4714 C4718 1.524 1_545 S
C4715 C4707 1.503 1_554 S
C4715 C4714 1.370 . S
C4715 C4716 1.403 . S
C4716 C4715 1.403 . S
C4716 C4717 1.404 . S
C4716 C4719 1.539 . S
C4717 C4713 1.408 . S
C4717 C4716 1.404 . S
C4717 H4729 0.930 . S
C4718 C4714 1.524 1_565 S
C4718 H4730 0.956 . S
C4718 H4731 0.961 . S
C4718 H4732 0.961 . S
C4719 C4716 1.539 . S
C4719 H4733 0.958 . S
C4719 H4734 0.961 . S
C4719 H4735 0.960 . S
H4720 C4704 0.931 . S
H4721 C4709 0.929 1_565 S
H4722 C4710 0.960 1_554 S
H4723 C4710 0.962 . S
H4724 C4710 0.960 . S
H4725 C4711 0.961 . S
H4726 C4711 0.961 1_554 S
H4727 C4711 0.961 1_545 S
H4728 C4712 0.931 1_565 S
H4729 C4717 0.930 . S
H4730 C4718 0.956 . S
H4731 C4718 0.961 . S
H4732 C4718 0.961 . S
H4733 C4719 0.958 . S
H4734 C4719 0.961 . S
H4735 C4719 0.960 . S
C4736 C4737 1.434 . S
C4736 C4738 1.394 . S
C4736 H4752 0.931 . S
C4737 C4736 1.434 . S
C4737 C4741 1.333 1_565 S
C4738 C4736 1.394 . S
C4738 C4739 1.378 . S
C4738 C4742 1.531 . S
C4739 C4738 1.378 . S
C4739 C4740 1.401 1_565 S
C4739 C4747 1.503 1_565 S
C4740 C4739 1.401 1_545 S
C4740 C4741 1.392 . S
C4740 C4743 1.511 . S
C4741 C4737 1.333 1_545 S
C4741 C4740 1.392 . S
C4741 H4753 0.929 . S
C4742 C4738 1.531 . S
C4742 H4754 0.960 . S
C4742 H4755 0.962 . S
C4742 H4756 0.960 . S
C4743 C4740 1.511 . S
C4743 H4757 0.961 . S
C4743 H4758 0.961 . S
C4743 H4759 0.961 . S
C4744 C4745 1.365 1_565 S
C4744 C4746 1.363 . S
C4744 H4760 0.937 . S
C4745 C4744 1.365 1_545 S
C4745 C4749 1.412 . S
C4746 C4744 1.363 . S
C4746 C4747 1.369 1_565 S
C4746 C4750 1.528 . S
C4747 C4739 1.503 1_545 S
C4747 C4746 1.369 1_545 S
C4747 C4748 1.403 . S
C4748 C4747 1.403 . S
C4748 C4749 1.404 . S
C4748 C4751 1.539 . S
C4749 C4745 1.412 . S
C4749 C4748 1.404 . S
C4749 H4761 0.930 . S
C4750 C4746 1.528 . S
C4750 H4762 0.956 . S
C4750 H4763 0.961 1_565 S
C4750 H4764 0.961 . S
C4751 C4748 1.539 . S
C4751 H4765 0.958 1_545 S
C4751 H4766 0.961 . S
C4751 H4767 0.960 . S
H4752 C4736 0.931 . S
H4753 C4741 0.929 . S
H4754 C4742 0.960 . S
H4755 C4742 0.962 . S
H4756 C4742 0.960 . S
H4757 C4743 0.961 . S
H4758 C4743 0.961 . S
H4759 C4743 0.961 . S
H4760 C4744 0.937 . S
H4761 C4749 0.930 . S
H4762 C4750 0.956 . S
H4763 C4750 0.961 1_545 S
H4764 C4750 0.961 . S
H4765 C4751 0.958 1_565 S
H4766 C4751 0.961 . S
H4767 C4751 0.960 . S
C4768 C4769 1.391 . S
C4768 C4770 1.394 . S
C4768 H4784 0.931 . S
C4769 C4768 1.391 . S
C4769 C4773 1.376 . S
C4770 C4768 1.394 . S
C4770 C4771 1.369 . S
C4770 C4774 1.531 1_556 S
C4771 C4770 1.369 . S
C4771 C4772 1.410 . S
C4771 C4779 1.503 . S
C4772 C4771 1.410 . S
C4772 C4773 1.392 . S
C4772 C4775 1.511 . S
C4773 C4769 1.376 . S
C4773 C4772 1.392 . S
C4773 H4785 0.929 . S
C4774 C4770 1.531 1_554 S
C4774 H4786 0.960 . S
C4774 H4787 0.962 1_554 S
C4774 H4788 0.960 . S
C4775 C4772 1.511 . S
C4775 H4789 0.961 . S
C4775 H4790 0.961 . S
C4775 H4791 0.961 . S
C4776 C4777 1.370 . S
C4776 C4778 1.363 . S
C4776 H4792 0.931 . S
C4777 C4776 1.370 . S
C4777 C4781 1.408 1_556 S
C4778 C4776 1.363 . S
C4778 C4779 1.370 . S
C4778 C4782 1.524 . S
C4779 C4771 1.503 . S
C4779 C4778 1.370 . S
C4779 C4780 1.403 1_556 S
C4780 C4779 1.403 1_554 S
C4780 C4781 1.404 . S
C4780 C4783 1.539 . S
C4781 C4777 1.408 1_554 S
C4781 C4780 1.404 . S
C4781 H4793 0.930 . S
C4782 C4778 1.524 . S
C4782 H4794 0.956 . S
C4782 H4795 0.961 . S
C4782 H4796 0.961 . S
C4783 C4780 1.539 . S
C4783 H4797 0.958 . S
C4783 H4798 0.961 . S
C4783 H4799 0.960 . S
H4784 C4768 0.931 . S
H4785 C4773 0.929 . S
H4786 C4774 0.960 . S
H4787 C4774 0.962 1_556 S
H4788 C4774 0.960 . S
H4789 C4775 0.961 . S
H4790 C4775 0.961 . S
H4791 C4775 0.961 . S
H4792 C4776 0.931 . S
H4793 C4781 0.930 . S
H4794 C4782 0.956 . S
H4795 C4782 0.961 . S
H4796 C4782 0.961 . S
H4797 C4783 0.958 . S
H4798 C4783 0.961 . S
H4799 C4783 0.960 . S
C4800 C4801 1.391 . S
C4800 C4802 1.394 . S
C4800 H4816 0.931 . S
C4801 C4800 1.391 . S
C4801 C4805 1.376 . S
C4802 C4800 1.394 . S
C4802 C4803 1.369 . S
C4802 C4806 1.531 1_554 S
C4803 C4802 1.369 . S
C4803 C4804 1.410 . S
C4803 C4811 1.503 1_655 S
C4804 C4803 1.410 . S
C4804 C4805 1.392 . S
C4804 C4807 1.511 . S
C4805 C4801 1.376 . S
C4805 C4804 1.392 . S
C4805 H4817 0.929 . S
C4806 C4802 1.531 1_556 S
C4806 H4818 0.960 1_655 S
C4806 H4819 0.962 1_556 S
C4806 H4820 0.960 . S
C4807 C4804 1.511 . S
C4807 H4821 0.961 . S
C4807 H4822 0.961 1_655 S
C4807 H4823 0.961 . S
C4808 C4809 1.370 . S
C4808 C4810 1.363 . S
C4808 H4824 0.931 . S
C4809 C4808 1.370 . S
C4809 C4813 1.408 1_554 S
C4810 C4808 1.363 . S
C4810 C4811 1.370 . S
C4810 C4814 1.524 . S
C4811 C4803 1.503 1_455 S
C4811 C4810 1.370 . S
C4811 C4812 1.403 1_554 S
C4812 C4811 1.403 1_556 S
C4812 C4813 1.404 . S
C4812 C4815 1.539 . S
C4813 C4809 1.408 1_556 S
C4813 C4812 1.404 . S
C4813 H4825 0.930 . S
C4814 C4810 1.524 . S
C4814 H4826 0.956 . S
C4814 H4827 0.976 . S
C4814 H4828 0.961 . S
C4815 C4812 1.539 . S
C4815 H4829 0.958 . S
C4815 H4830 0.961 . S
C4815 H4831 0.960 . S
H4816 C4800 0.931 . S
H4817 C4805 0.929 . S
H4818 C4806 0.960 1_455 S
H4819 C4806 0.962 1_554 S
H4820 C4806 0.960 . S
H4821 C4807 0.961 . S
H4822 C4807 0.961 1_455 S
H4823 C4807 0.961 . S
H4824 C4808 0.931 . S
H4825 C4813 0.930 . S
H4826 C4814 0.956 . S
H4827 C4814 0.976 . S
H4828 C4814 0.961 . S
H4829 C4815 0.958 . S
H4830 C4815 0.961 . S
H4831 C4815 0.960 . S
C4832 C4833 1.392 . S
C4832 C4834 1.395 . S
C4832 H4848 0.927 1_455 S
C4833 C4832 1.392 . S
C4833 C4837 1.376 . S
C4834 C4832 1.395 . S
C4834 C4835 1.369 . S
C4834 C4838 1.533 . S
C4835 C4834 1.369 . S
C4835 C4836 1.410 . S
C4835 C4843 1.503 . S
C4836 C4835 1.410 . S
C4836 C4837 1.392 . S
C4836 C4839 1.511 . S
C4837 C4833 1.376 . S
C4837 C4836 1.392 . S
C4837 H4849 0.929 . S
C4838 C4834 1.533 . S
C4838 H4850 0.980 . S
C4838 H4851 0.927 1_455 S
C4838 H4852 0.975 . S
C4839 C4836 1.511 . S
C4839 H4853 0.961 . S
C4839 H4854 0.961 . S
C4839 H4855 0.961 . S
C4840 C4841 1.388 . S
C4840 C4842 1.363 . S
C4840 H4856 0.931 . S
C4841 C4840 1.388 . S
C4841 C4845 1.388 1_655 S
C4842 C4840 1.363 . S
C4842 C4843 1.370 1_655 S
C4842 C4846 1.524 . S
C4843 C4835 1.503 . S
C4843 C4842 1.370 1_455 S
C4843 C4844 1.403 . S
C4844 C4843 1.403 . S
C4844 C4845 1.404 . S
C4844 C4847 1.539 . S
C4845 C4841 1.388 1_455 S
C4845 C4844 1.404 . S
C4845 H4857 0.930 . S
C4846 C4842 1.524 . S
C4846 H4858 0.956 . S
C4846 H4859 0.961 . S
C4846 H4860 0.961 . S
C4847 C4844 1.539 . S
C4847 H4861 0.958 . S
C4847 H4862 0.961 . S
C4847 H4863 0.960 . S
H4848 C4832 0.927 1_655 S
H4849 C4837 0.929 . S
H4850 C4838 0.980 . S
H4851 C4838 0.927 1_655 S
H4852 C4838 0.975 . S
H4853 C4839 0.961 . S
H4854 C4839 0.961 . S
H4855 C4839 0.961 . S
H4856 C4840 0.931 . S
H4857 C4845 0.930 . S
H4858 C4846 0.956 . S
H4859 C4846 0.961 . S
H4860 C4846 0.961 . S
H4861 C4847 0.958 . S
H4862 C4847 0.961 . S
H4863 C4847 0.960 . S
C4864 C4865 1.391 . S
C4864 C4866 1.394 . S
C4864 H4880 0.931 . S
C4865 C4864 1.391 . S
C4865 C4869 1.376 . S
C4866 C4864 1.394 . S
C4866 C4867 1.369 . S
C4866 C4870 1.531 . S
C4867 C4866 1.369 . S
C4867 C4868 1.410 . S
C4867 C4875 1.503 . S
C4868 C4867 1.410 . S
C4868 C4869 1.392 . S
C4868 C4871 1.511 . S
C4869 C4865 1.376 . S
C4869 C4868 1.392 . S
C4869 H4881 0.929 . S
C4870 C4866 1.531 . S
C4870 H4882 0.960 . S
C4870 H4883 0.962 . S
C4870 H4884 0.960 . S
C4871 C4868 1.511 . S
C4871 H4885 0.961 . S
C4871 H4886 0.961 . S
C4871 H4887 0.961 . S
C4872 C4873 1.370 . S
C4872 C4874 1.363 . S
C4872 H4888 0.931 . S
C4873 C4872 1.370 . S
C4873 C4877 1.408 . S
C4874 C4872 1.363 . S
C4874 C4875 1.370 . S
C4874 C4878 1.524 . S
C4875 C4867 1.503 . S
C4875 C4874 1.370 . S
C4875 C4876 1.403 . S
C4876 C4875 1.403 . S
C4876 C4877 1.404 . S
C4876 C4879 1.539 . S
C4877 C4873 1.408 . S
C4877 C4876 1.404 . S
C4877 H4889 0.930 . S
C4878 C4874 1.524 . S
C4878 H4890 0.956 . S
C4878 H4891 0.961 . S
C4878 H4892 0.961 . S
C4879 C4876 1.539 . S
C4879 H4893 0.958 . S
C4879 H4894 0.961 . S
C4879 H4895 0.960 . S
H4880 C4864 0.931 . S
H4881 C4869 0.929 . S
H4882 C4870 0.960 . S
H4883 C4870 0.962 . S
H4884 C4870 0.960 . S
H4885 C4871 0.961 . S
H4886 C4871 0.961 . S
H4887 C4871 0.961 . S
H4888 C4872 0.931 . S
H4889 C4877 0.930 . S
H4890 C4878 0.956 . S
H4891 C4878 0.961 . S
H4892 C4878 0.961 . S
H4893 C4879 0.958 . S
H4894 C4879 0.961 . S
H4895 C4879 0.960 . S
C4896 C4897 1.391 . S
C4896 C4898 1.394 . S
C4896 H4912 0.931 . S
C4897 C4896 1.391 . S
C4897 C4901 1.376 . S
C4898 C4896 1.394 . S
C4898 C4899 1.369 . S
C4898 C4902 1.531 . S
C4899 C4898 1.369 . S
C4899 C4900 1.410 . S
C4899 C4907 1.503 1_655 S
C4900 C4899 1.410 . S
C4900 C4901 1.392 . S
C4900 C4903 1.511 . S
C4901 C4897 1.376 . S
C4901 C4900 1.392 . S
C4901 H4913 0.929 . S
C4902 C4898 1.531 . S
C4902 H4914 0.960 1_655 S
C4902 H4915 0.962 . S
C4902 H4916 0.960 . S
C4903 C4900 1.511 . S
C4903 H4917 0.961 . S
C4903 H4918 0.961 1_655 S
C4903 H4919 0.961 . S
C4904 C4905 1.370 . S
C4904 C4906 1.363 . S
C4904 H4920 0.931 . S
C4905 C4904 1.370 . S
C4905 C4909 1.408 . S
C4906 C4904 1.363 . S
C4906 C4907 1.370 . S
C4906 C4910 1.524 . S
C4907 C4899 1.503 1_455 S
C4907 C4906 1.370 . S
C4907 C4908 1.403 . S
C4908 C4907 1.403 . S
C4908 C4909 1.404 . S
C4908 C4911 1.539 . S
C4909 C4905 1.408 . S
C4909 C4908 1.404 . S
C4909 H4921 0.930 . S
C4910 C4906 1.524 . S
C4910 H4922 0.956 . S
C4910 H4923 0.939 1_455 S
C4910 H4924 0.961 . S
C4911 C4908 1.539 . S
C4911 H4925 0.958 . S
C4911 H4926 0.961 . S
C4911 H4927 0.937 1_455 S
H4912 C4896 0.931 . S
H4913 C4901 0.929 . S
H4914 C4902 0.960 1_455 S
H4915 C4902 0.962 . S
H4916 C4902 0.960 . S
H4917 C4903 0.961 . S
H4918 C4903 0.961 1_455 S
H4919 C4903 0.961 . S
H4920 C4904 0.931 . S
H4921 C4909 0.930 . S
H4922 C4910 0.956 . S
H4923 C4910 0.939 1_655 S
H4924 C4910 0.961 . S
H4925 C4911 0.958 . S
H4926 C4911 0.961 . S
H4927 C4911 0.937 1_655 S
C4928 C4929 1.391 . S
C4928 C4930 1.394 . S
C4928 H4944 0.931 . S
C4929 C4928 1.391 . S
C4929 C4933 1.376 1_655 S
C4930 C4928 1.394 . S
C4930 C4931 1.378 . S
C4930 C4934 1.531 . S
C4931 C4930 1.378 . S
C4931 C4932 1.400 1_655 S
C4931 C4939 1.503 . S
C4932 C4931 1.400 1_455 S
C4932 C4933 1.392 . S
C4932 C4935 1.511 . S
C4933 C4929 1.376 1_455 S
C4933 C4932 1.392 . S
C4933 H4945 0.929 . S
C4934 C4930 1.531 . S
C4934 H4946 0.960 . S
C4934 H4947 0.962 . S
C4934 H4948 0.960 . S
C4935 C4932 1.511 . S
C4935 H4949 0.961 . S
C4935 H4950 0.961 . S
C4935 H4951 0.961 . S
C4936 C4937 1.368 1_655 S
C4936 C4938 1.363 . S
C4936 H4952 0.931 . S
C4937 C4936 1.368 1_455 S
C4937 C4941 1.411 . S
C4938 C4936 1.363 . S
C4938 C4939 1.370 . S
C4938 C4942 1.524 . S
C4939 C4931 1.503 . S
C4939 C4938 1.370 . S
C4939 C4940 1.403 1_655 S
C4940 C4939 1.403 1_455 S
C4940 C4941 1.404 . S
C4940 C4943 1.539 . S
C4941 C4937 1.411 . S
C4941 C4940 1.404 . S
C4941 H4953 0.930 . S
C4942 C4938 1.524 . S
C4942 H4954 0.956 . S
C4942 H4955 0.961 1_655 S
C4942 H4956 0.961 . S
C4943 C4940 1.539 . S
C4943 H4957 0.916 1_455 S
C4943 H4958 0.961 . S
C4943 H4959 0.960 . S
H4944 C4928 0.931 . S
H4945 C4933 0.929 . S
H4946 C4934 0.960 . S
H4947 C4934 0.962 . S
H4948 C4934 0.960 . S
H4949 C4935 0.961 . S
H4950 C4935 0.961 . S
H4951 C4935 0.961 . S
H4952 C4936 0.931 . S
H4953 C4941 0.930 . S
H4954 C4942 0.956 . S
H4955 C4942 0.961 1_455 S
H4956 C4942 0.961 . S
H4957 C4943 0.916 1_655 S
H4958 C4943 0.961 . S
H4959 C4943 0.960 . S
C4960 C4961 1.391 . S
C4960 C4962 1.394 . S
C4960 H4976 0.931 . S
C4961 C4960 1.391 . S
C4961 C4965 1.376 . S
C4962 C4960 1.394 . S
C4962 C4963 1.369 . S
C4962 C4966 1.531 . S
C4963 C4962 1.369 . S
C4963 C4964 1.410 . S
C4963 C4971 1.503 . S
C4964 C4963 1.410 . S
C4964 C4965 1.392 . S
C4964 C4967 1.511 . S
C4965 C4961 1.376 . S
C4965 C4964 1.392 . S
C4965 H4977 0.929 . S
C4966 C4962 1.531 . S
C4966 H4978 0.960 . S
C4966 H4979 0.962 . S
C4966 H4980 0.960 . S
C4967 C4964 1.511 . S
C4967 H4981 0.961 . S
C4967 H4982 0.961 . S
C4967 H4983 0.961 . S
C4968 C4969 1.370 . S
C4968 C4970 1.363 . S
C4968 H4984 0.931 . S
C4969 C4968 1.370 . S
C4969 C4973 1.408 . S
C4970 C4968 1.363 . S
C4970 C4971 1.370 . S
C4970 C4974 1.524 . S
C4971 C4963 1.503 . S
C4971 C4970 1.370 . S
C4971 C4972 1.403 . S
C4972 C4971 1.403 . S
C4972 C4973 1.404 . S
C4972 C4975 1.539 . S
C4973 C4969 1.408 . S
C4973 C4972 1.404 . S
C4973 H4985 0.930 . S
C4974 C4970 1.524 . S
C4974 H4986 0.956 . S
C4974 H4987 0.961 . S
C4974 H4988 0.961 . S
C4975 C4972 1.539 . S
C4975 H4989 0.958 . S
C4975 H4990 0.961 . S
C4975 H4991 0.960 . S
H4976 C4960 0.931 . S
H4977 C4965 0.929 . S
H4978 C4966 0.960 . S
H4979 C4966 0.962 . S
H4980 C4966 0.960 . S
H4981 C4967 0.961 . S
H4982 C4967 0.961 . S
H4983 C4967 0.961 . S
H4984 C4968 0.931 . S
H4985 C4973 0.930 . S
H4986 C4974 0.956 . S
H4987 C4974 0.961 . S
H4988 C4974 0.961 . S
H4989 C4975 0.958 . S
H4990 C4975 0.961 . S
H4991 C4975 0.960 . S
C4992 C4993 1.391 . S
C4992 C4994 1.394 . S
C4992 H5008 0.931 . S
C4993 C4992 1.391 . S
C4993 C4997 1.376 . S
C4994 C4992 1.394 . S
C4994 C4995 1.369 . S
C4994 C4998 1.531 . S
C4995 C4994 1.369 . S
C4995 C4996 1.410 . S
C4995 C5003 1.503 1_545 S
C4996 C4995 1.410 . S
C4996 C4997 1.392 . S
C4996 C4999 1.511 . S
C4997 C4993 1.376 . S
C4997 C4996 1.392 . S
C4997 H5009 0.929 . S
C4998 C4994 1.531 . S
C4998 H5010 0.960 1_545 S
C4998 H5011 0.962 . S
C4998 H5012 0.960 . S
C4999 C4996 1.511 . S
C4999 H5013 0.961 . S
C4999 H5014 0.961 1_545 S
C4999 H5015 0.961 . S
C5000 C5001 1.370 . S
C5000 C5002 1.363 . S
C5000 H5016 0.931 . S
C5001 C5000 1.370 . S
C5001 C5005 1.408 . S
C5002 C5000 1.363 . S
C5002 C5003 1.370 . S
C5002 C5006 1.524 . S
C5003 C4995 1.503 1_565 S
C5003 C5002 1.370 . S
C5003 C5004 1.403 . S
C5004 C5003 1.403 . S
C5004 C5005 1.404 . S
C5004 C5007 1.539 . S
C5005 C5001 1.408 . S
C5005 C5004 1.404 . S
C5005 H5017 0.930 . S
C5006 C5002 1.524 . S
C5006 H5018 0.956 . S
C5006 H5019 0.938 1_565 S
C5006 H5020 0.961 . S
C5007 C5004 1.539 . S
C5007 H5021 0.958 . S
C5007 H5022 0.961 . S
C5007 H5023 0.960 . S
H5008 C4992 0.931 . S
H5009 C4997 0.929 . S
H5010 C4998 0.960 1_565 S
H5011 C4998 0.962 . S
H5012 C4998 0.960 . S
H5013 C4999 0.961 . S
H5014 C4999 0.961 1_565 S
H5015 C4999 0.961 . S
H5016 C5000 0.931 . S
H5017 C5005 0.930 . S
H5018 C5006 0.956 . S
H5019 C5006 0.938 1_545 S
H5020 C5006 0.961 . S
H5021 C5007 0.958 . S
H5022 C5007 0.961 . S
H5023 C5007 0.960 . S
C5024 C5025 1.391 1_554 S
C5024 C5026 1.394 . S
C5024 H5040 0.931 . S
C5025 C5024 1.391 1_556 S
C5025 C5029 1.376 . S
C5026 C5024 1.394 . S
C5026 C5027 1.369 1_554 S
C5026 C5030 1.531 . S
C5027 C5026 1.369 1_556 S
C5027 C5028 1.410 . S
C5027 C5035 1.503 . S
C5028 C5027 1.410 . S
C5028 C5029 1.392 . S
C5028 C5031 1.511 . S
C5029 C5025 1.376 . S
C5029 C5028 1.392 . S
C5029 H5041 0.929 . S
C5030 C5026 1.531 . S
C5030 H5042 0.960 . S
C5030 H5043 0.962 . S
C5030 H5044 0.960 . S
C5031 C5028 1.511 . S
C5031 H5045 0.961 . S
C5031 H5046 0.961 . S
C5031 H5047 0.961 . S
C5032 C5033 1.371 1_554 S
C5032 C5034 1.363 . S
C5032 H5048 0.931 . S
C5033 C5032 1.371 1_556 S
C5033 C5037 1.408 . S
C5034 C5032 1.363 . S
C5034 C5035 1.370 1_554 S
C5034 C5038 1.524 . S
C5035 C5027 1.503 . S
C5035 C5034 1.370 1_556 S
C5035 C5036 1.403 . S
C5036 C5035 1.403 . S
C5036 C5037 1.404 . S
C5036 C5039 1.539 . S
C5037 C5033 1.408 . S
C5037 C5036 1.404 . S
C5037 H5049 0.930 . S
C5038 C5034 1.524 . S
C5038 H5050 0.956 . S
C5038 H5051 0.961 . S
C5038 H5052 0.961 . S
C5039 C5036 1.539 . S
C5039 H5053 0.958 . S
C5039 H5054 0.961 . S
C5039 H5055 0.960 . S
H5040 C5024 0.931 . S
H5041 C5029 0.929 . S
H5042 C5030 0.960 . S
H5043 C5030 0.962 . S
H5044 C5030 0.960 . S
H5045 C5031 0.961 . S
H5046 C5031 0.961 . S
H5047 C5031 0.961 . S
H5048 C5032 0.931 . S
H5049 C5037 0.930 . S
H5050 C5038 0.956 . S
H5051 C5038 0.961 . S
H5052 C5038 0.961 . S
H5053 C5039 0.958 . S
H5054 C5039 0.961 . S
H5055 C5039 0.960 . S
C5056 C5057 1.391 . S
C5056 C5058 1.394 . S
C5056 H5072 0.931 . S
C5057 C5056 1.391 . S
C5057 C5061 1.376 . S
C5058 C5056 1.394 . S
C5058 C5059 1.369 . S
C5058 C5062 1.531 . S
C5059 C5058 1.369 . S
C5059 C5060 1.410 . S
C5059 C5067 1.503 1_545 S
C5060 C5059 1.410 . S
C5060 C5061 1.392 . S
C5060 C5063 1.511 1_655 S
C5061 C5057 1.376 . S
C5061 C5060 1.392 . S
C5061 H5073 0.929 1_655 S
C5062 C5058 1.531 . S
C5062 H5074 0.960 1_545 S
C5062 H5075 0.962 . S
C5062 H5076 0.960 . S
C5063 C5060 1.511 1_455 S
C5063 H5077 0.961 . S
C5063 H5078 0.961 1_545 S
C5063 H5079 0.961 . S
C5064 C5065 1.370 . S
C5064 C5066 1.363 . S
C5064 H5080 0.931 . S
C5065 C5064 1.370 . S
C5065 C5069 1.384 1_655 S
C5066 C5064 1.363 . S
C5066 C5067 1.370 . S
C5066 C5070 1.524 . S
C5067 C5059 1.503 1_565 S
C5067 C5066 1.370 . S
C5067 C5068 1.403 1_655 S
C5068 C5067 1.403 1_455 S
C5068 C5069 1.406 . S
C5068 C5071 1.539 . S
C5069 C5065 1.384 1_455 S
C5069 C5068 1.406 . S
C5069 H5081 0.953 . S
C5070 C5066 1.524 . S
C5070 H5082 0.956 . S
C5070 H5083 0.965 . S
C5070 H5084 0.961 . S
C5071 C5068 1.539 . S
C5071 H5085 0.958 . S
C5071 H5086 0.961 . S
C5071 H5087 0.960 . S
H5072 C5056 0.931 . S
H5073 C5061 0.929 1_455 S
H5074 C5062 0.960 1_565 S
H5075 C5062 0.962 . S
H5076 C5062 0.960 . S
H5077 C5063 0.961 . S
H5078 C5063 0.961 1_565 S
H5079 C5063 0.961 . S
H5080 C5064 0.931 . S
H5081 C5069 0.953 . S
H5082 C5070 0.956 . S
H5083 C5070 0.965 . S
H5084 C5070 0.961 . S
H5085 C5071 0.958 . S
H5086 C5071 0.961 . S
H5087 C5071 0.960 . S
C5088 C5089 1.391 . S
C5088 C5090 1.394 . S
C5088 H5104 0.931 . S
C5089 C5088 1.391 . S
C5089 C5093 1.376 . S
C5090 C5088 1.394 . S
C5090 C5091 1.369 . S
C5090 C5094 1.531 . S
C5091 C5090 1.369 . S
C5091 C5092 1.410 . S
C5091 C5099 1.503 . S
C5092 C5091 1.410 . S
C5092 C5093 1.392 . S
C5092 C5095 1.511 . S
C5093 C5089 1.376 . S
C5093 C5092 1.392 . S
C5093 H5105 0.929 . S
C5094 C5090 1.531 . S
C5094 H5106 0.960 . S
C5094 H5107 0.962 . S
C5094 H5108 0.960 . S
C5095 C5092 1.511 . S
C5095 H5109 0.961 . S
C5095 H5110 0.961 . S
C5095 H5111 0.961 . S
C5096 C5097 1.370 . S
C5096 C5098 1.363 . S
C5096 H5112 0.931 . S
C5097 C5096 1.370 . S
C5097 C5101 1.408 . S
C5098 C5096 1.363 . S
C5098 C5099 1.370 . S
C5098 C5102 1.524 . S
C5099 C5091 1.503 . S
C5099 C5098 1.370 . S
C5099 C5100 1.403 . S
C5100 C5099 1.403 . S
C5100 C5101 1.404 . S
C5100 C5103 1.539 . S
C5101 C5097 1.408 . S
C5101 C5100 1.404 . S
C5101 H5113 0.930 . S
C5102 C5098 1.524 . S
C5102 H5114 0.956 . S
C5102 H5115 0.961 . S
C5102 H5116 0.961 . S
C5103 C5100 1.539 . S
C5103 H5117 0.958 . S
C5103 H5118 0.961 . S
C5103 H5119 0.960 . S
H5104 C5088 0.931 . S
H5105 C5093 0.929 . S
H5106 C5094 0.960 . S
H5107 C5094 0.962 . S
H5108 C5094 0.960 . S
H5109 C5095 0.961 . S
H5110 C5095 0.961 . S
H5111 C5095 0.961 . S
H5112 C5096 0.931 . S
H5113 C5101 0.930 . S
H5114 C5102 0.956 . S
H5115 C5102 0.961 . S
H5116 C5102 0.961 . S
H5117 C5103 0.958 . S
H5118 C5103 0.961 . S
H5119 C5103 0.960 . S
C5120 C5121 1.391 . S
C5120 C5122 1.394 . S
C5120 H5136 0.931 . S
C5121 C5120 1.391 . S
C5121 C5125 1.376 . S
C5122 C5120 1.394 . S
C5122 C5123 1.369 . S
C5122 C5126 1.531 . S
C5123 C5122 1.369 . S
C5123 C5124 1.410 . S
C5123 C5131 1.503 1_556 S
C5124 C5123 1.410 . S
C5124 C5125 1.392 . S
C5124 C5127 1.511 . S
C5125 C5121 1.376 . S
C5125 C5124 1.392 . S
C5125 H5137 0.929 . S
C5126 C5122 1.531 . S
C5126 H5138 0.966 1_556 S
C5126 H5139 0.962 . S
C5126 H5140 0.960 . S
C5127 C5124 1.511 . S
C5127 H5141 0.961 . S
C5127 H5142 0.961 1_556 S
C5127 H5143 0.961 . S
C5128 C5129 1.370 . S
C5128 C5130 1.363 . S
C5128 H5144 0.931 . S
C5129 C5128 1.370 . S
C5129 C5133 1.408 . S
C5130 C5128 1.363 . S
C5130 C5131 1.370 . S
C5130 C5134 1.524 . S
C5131 C5123 1.503 1_554 S
C5131 C5130 1.370 . S
C5131 C5132 1.403 . S
C5132 C5131 1.403 . S
C5132 C5133 1.404 . S
C5132 C5135 1.539 . S
C5133 C5129 1.408 . S
C5133 C5132 1.404 . S
C5133 H5145 0.930 . S
C5134 C5130 1.524 . S
C5134 H5146 0.933 1_554 S
C5134 H5147 0.961 1_554 S
C5134 H5148 0.961 . S
C5135 C5132 1.539 . S
C5135 H5149 0.958 . S
C5135 H5150 0.961 . S
C5135 H5151 0.946 1_554 S
H5136 C5120 0.931 . S
H5137 C5125 0.929 . S
H5138 C5126 0.966 1_554 S
H5139 C5126 0.962 . S
H5140 C5126 0.960 . S
H5141 C5127 0.961 . S
H5142 C5127 0.961 1_554 S
H5143 C5127 0.961 . S
H5144 C5128 0.931 . S
H5145 C5133 0.930 . S
H5146 C5134 0.933 1_556 S
H5147 C5134 0.961 1_556 S
H5148 C5134 0.961 . S
H5149 C5135 0.958 . S
H5150 C5135 0.961 . S
H5151 C5135 0.946 1_556 S
C5152 C5153 1.391 . S
C5152 C5154 1.394 . S
C5152 H5168 0.931 . S
C5153 C5152 1.391 . S
C5153 C5157 1.376 . S
C5154 C5152 1.394 . S
C5154 C5155 1.369 . S
C5154 C5158 1.531 . S
C5155 C5154 1.369 . S
C5155 C5156 1.410 . S
C5155 C5163 1.503 . S
C5156 C5155 1.410 . S
C5156 C5157 1.392 . S
C5156 C5159 1.511 . S
C5157 C5153 1.376 . S
C5157 C5156 1.392 . S
C5157 H5169 0.929 . S
C5158 C5154 1.531 . S
C5158 H5170 0.960 . S
C5158 H5171 0.962 . S
C5158 H5172 0.960 . S
C5159 C5156 1.511 . S
C5159 H5173 0.961 . S
C5159 H5174 0.961 . S
C5159 H5175 0.961 . S
C5160 C5161 1.370 . S
C5160 C5162 1.363 . S
C5160 H5176 0.931 . S
C5161 C5160 1.370 . S
C5161 C5165 1.408 . S
C5162 C5160 1.363 . S
C5162 C5163 1.370 . S
C5162 C5166 1.524 . S
C5163 C5155 1.503 . S
C5163 C5162 1.370 . S
C5163 C5164 1.403 . S
C5164 C5163 1.403 . S
C5164 C5165 1.404 . S
C5164 C5167 1.539 . S
C5165 C5161 1.408 . S
C5165 C5164 1.404 . S
C5165 H5177 0.930 . S
C5166 C5162 1.524 . S
C5166 H5178 0.956 . S
C5166 H5179 0.961 . S
C5166 H5180 0.961 . S
C5167 C5164 1.539 . S
C5167 H5181 0.958 . S
C5167 H5182 0.961 . S
C5167 H5183 0.960 . S
H5168 C5152 0.931 . S
H5169 C5157 0.929 . S
H5170 C5158 0.960 . S
H5171 C5158 0.962 . S
H5172 C5158 0.960 . S
H5173 C5159 0.961 . S
H5174 C5159 0.961 . S
H5175 C5159 0.961 . S
H5176 C5160 0.931 . S
H5177 C5165 0.930 . S
H5178 C5166 0.956 . S
H5179 C5166 0.961 . S
H5180 C5166 0.961 . S
H5181 C5167 0.958 . S
H5182 C5167 0.961 . S
H5183 C5167 0.960 . S
C5184 C5185 1.391 . S
C5184 C5186 1.394 . S
C5184 H5200 0.931 . S
C5185 C5184 1.391 . S
C5185 C5189 1.376 . S
C5186 C5184 1.394 . S
C5186 C5187 1.369 . S
C5186 C5190 1.531 . S
C5187 C5186 1.369 . S
C5187 C5188 1.410 . S
C5187 C5195 1.503 . S
C5188 C5187 1.410 . S
C5188 C5189 1.392 . S
C5188 C5191 1.511 . S
C5189 C5185 1.376 . S
C5189 C5188 1.392 . S
C5189 H5201 0.929 . S
C5190 C5186 1.531 . S
C5190 H5202 0.960 . S
C5190 H5203 0.962 . S
C5190 H5204 0.960 . S
C5191 C5188 1.511 . S
C5191 H5205 0.961 . S
C5191 H5206 0.961 . S
C5191 H5207 0.961 . S
C5192 C5193 1.370 . S
C5192 C5194 1.363 . S
C5192 H5208 0.931 . S
C5193 C5192 1.370 . S
C5193 C5197 1.408 . S
C5194 C5192 1.363 . S
C5194 C5195 1.370 . S
C5194 C5198 1.524 . S
C5195 C5187 1.503 . S
C5195 C5194 1.370 . S
C5195 C5196 1.403 . S
C5196 C5195 1.403 . S
C5196 C5197 1.404 . S
C5196 C5199 1.539 . S
C5197 C5193 1.408 . S
C5197 C5196 1.404 . S
C5197 H5209 0.930 . S
C5198 C5194 1.524 . S
C5198 H5210 0.956 . S
C5198 H5211 0.961 . S
C5198 H5212 0.961 . S
C5199 C5196 1.539 . S
C5199 H5213 0.958 . S
C5199 H5214 0.961 . S
C5199 H5215 0.960 . S
H5200 C5184 0.931 . S
H5201 C5189 0.929 . S
H5202 C5190 0.960 . S
H5203 C5190 0.962 . S
H5204 C5190 0.960 . S
H5205 C5191 0.961 . S
H5206 C5191 0.961 . S
H5207 C5191 0.961 . S
H5208 C5192 0.931 . S
H5209 C5197 0.930 . S
H5210 C5198 0.956 . S
H5211 C5198 0.961 . S
H5212 C5198 0.961 . S
H5213 C5199 0.958 . S
H5214 C5199 0.961 . S
H5215 C5199 0.960 . S
C5216 C5217 1.391 . S
C5216 C5218 1.394 . S
C5216 H5232 0.931 . S
C5217 C5216 1.391 . S
C5217 C5221 1.376 . S
C5218 C5216 1.394 . S
C5218 C5219 1.369 . S
C5218 C5222 1.531 . S
C5219 C5218 1.369 . S
C5219 C5220 1.410 . S
C5219 C5227 1.503 . S
C5220 C5219 1.410 . S
C5220 C5221 1.392 . S
C5220 C5223 1.511 . S
C5221 C5217 1.376 . S
C5221 C5220 1.392 . S
C5221 H5233 0.929 . S
C5222 C5218 1.531 . S
C5222 H5234 0.960 . S
C5222 H5235 0.962 . S
C5222 H5236 0.960 . S
C5223 C5220 1.511 . S
C5223 H5237 0.961 . S
C5223 H5238 0.961 . S
C5223 H5239 0.961 . S
C5224 C5225 1.370 . S
C5224 C5226 1.363 . S
C5224 H5240 0.931 . S
C5225 C5224 1.370 . S
C5225 C5229 1.408 . S
C5226 C5224 1.363 . S
C5226 C5227 1.370 . S
C5226 C5230 1.524 . S
C5227 C5219 1.503 . S
C5227 C5226 1.370 . S
C5227 C5228 1.403 . S
C5228 C5227 1.403 . S
C5228 C5229 1.404 . S
C5228 C5231 1.539 . S
C5229 C5225 1.408 . S
C5229 C5228 1.404 . S
C5229 H5241 0.930 . S
C5230 C5226 1.524 . S
C5230 H5242 0.956 . S
C5230 H5243 0.961 . S
C5230 H5244 0.961 . S
C5231 C5228 1.539 . S
C5231 H5245 0.958 . S
C5231 H5246 0.961 . S
C5231 H5247 0.960 . S
H5232 C5216 0.931 . S
H5233 C5221 0.929 . S
H5234 C5222 0.960 . S
H5235 C5222 0.962 . S
H5236 C5222 0.960 . S
H5237 C5223 0.961 . S
H5238 C5223 0.961 . S
H5239 C5223 0.961 . S
H5240 C5224 0.931 . S
H5241 C5229 0.930 . S
H5242 C5230 0.956 . S
H5243 C5230 0.961 . S
H5244 C5230 0.961 . S
H5245 C5231 0.958 . S
H5246 C5231 0.961 . S
H5247 C5231 0.960 . S
C5248 C5249 1.391 . S
C5248 C5250 1.394 . S
C5248 H5264 0.931 . S
C5249 C5248 1.391 . S
C5249 C5253 1.376 . S
C5250 C5248 1.394 . S
C5250 C5251 1.369 . S
C5250 C5254 1.531 . S
C5251 C5250 1.369 . S
C5251 C5252 1.410 . S
C5251 C5259 1.503 . S
C5252 C5251 1.410 . S
C5252 C5253 1.392 . S
C5252 C5255 1.511 . S
C5253 C5249 1.376 . S
C5253 C5252 1.392 . S
C5253 H5265 0.929 . S
C5254 C5250 1.531 . S
C5254 H5266 0.960 . S
C5254 H5267 0.962 . S
C5254 H5268 0.960 . S
C5255 C5252 1.511 . S
C5255 H5269 0.961 . S
C5255 H5270 0.961 . S
C5255 H5271 0.961 . S
C5256 C5257 1.370 . S
C5256 C5258 1.363 . S
C5256 H5272 0.931 . S
C5257 C5256 1.370 . S
C5257 C5261 1.408 . S
C5258 C5256 1.363 . S
C5258 C5259 1.370 . S
C5258 C5262 1.524 . S
C5259 C5251 1.503 . S
C5259 C5258 1.370 . S
C5259 C5260 1.403 . S
C5260 C5259 1.403 . S
C5260 C5261 1.404 . S
C5260 C5263 1.539 . S
C5261 C5257 1.408 . S
C5261 C5260 1.404 . S
C5261 H5273 0.930 . S
C5262 C5258 1.524 . S
C5262 H5274 0.956 . S
C5262 H5275 0.961 . S
C5262 H5276 0.961 . S
C5263 C5260 1.539 . S
C5263 H5277 0.958 . S
C5263 H5278 0.961 . S
C5263 H5279 0.960 . S
H5264 C5248 0.931 . S
H5265 C5253 0.929 . S
H5266 C5254 0.960 . S
H5267 C5254 0.962 . S
H5268 C5254 0.960 . S
H5269 C5255 0.961 . S
H5270 C5255 0.961 . S
H5271 C5255 0.961 . S
H5272 C5256 0.931 . S
H5273 C5261 0.930 . S
H5274 C5262 0.956 . S
H5275 C5262 0.961 . S
H5276 C5262 0.961 . S
H5277 C5263 0.958 . S
H5278 C5263 0.961 . S
H5279 C5263 0.960 . S
C5280 C5281 1.391 . S
C5280 C5282 1.394 . S
C5280 H5296 0.931 . S
C5281 C5280 1.391 . S
C5281 C5285 1.376 . S
C5282 C5280 1.394 . S
C5282 C5283 1.369 . S
C5282 C5286 1.531 . S
C5283 C5282 1.369 . S
C5283 C5284 1.410 . S
C5283 C5291 1.503 1_565 S
C5284 C5283 1.410 . S
C5284 C5285 1.392 . S
C5284 C5287 1.511 . S
C5285 C5281 1.376 . S
C5285 C5284 1.392 . S
C5285 H5297 0.929 . S
C5286 C5282 1.531 . S
C5286 H5298 0.960 1_565 S
C5286 H5299 0.962 . S
C5286 H5300 0.960 . S
C5287 C5284 1.511 . S
C5287 H5301 0.961 . S
C5287 H5302 0.961 1_565 S
C5287 H5303 0.961 . S
C5288 C5289 1.370 . S
C5288 C5290 1.363 . S
C5288 H5304 0.931 . S
C5289 C5288 1.370 . S
C5289 C5293 1.408 . S
C5290 C5288 1.363 . S
C5290 C5291 1.370 . S
C5290 C5294 1.524 . S
C5291 C5283 1.503 1_545 S
C5291 C5290 1.370 . S
C5291 C5292 1.403 . S
C5292 C5291 1.403 . S
C5292 C5293 1.404 . S
C5292 C5295 1.539 . S
C5293 C5289 1.408 . S
C5293 C5292 1.404 . S
C5293 H5305 0.930 . S
C5294 C5290 1.524 . S
C5294 H5306 0.956 . S
C5294 H5307 0.946 1_545 S
C5294 H5308 0.961 . S
C5295 C5292 1.539 . S
C5295 H5309 0.958 . S
C5295 H5310 0.961 . S
C5295 H5311 0.960 . S
H5296 C5280 0.931 . S
H5297 C5285 0.929 . S
H5298 C5286 0.960 1_545 S
H5299 C5286 0.962 . S
H5300 C5286 0.960 . S
H5301 C5287 0.961 . S
H5302 C5287 0.961 1_545 S
H5303 C5287 0.961 . S
H5304 C5288 0.931 . S
H5305 C5293 0.930 . S
H5306 C5294 0.956 . S
H5307 C5294 0.946 1_565 S
H5308 C5294 0.961 . S
H5309 C5295 0.958 . S
H5310 C5295 0.961 . S
H5311 C5295 0.960 . S
C5312 C5313 1.391 . S
C5312 C5314 1.394 . S
C5312 H5328 0.931 . S
C5313 C5312 1.391 . S
C5313 C5317 1.376 1_554 S
C5314 C5312 1.394 . S
C5314 C5315 1.369 . S
C5314 C5318 1.531 . S
C5315 C5314 1.369 . S
C5315 C5316 1.410 1_554 S
C5315 C5323 1.503 . S
C5316 C5315 1.410 1_556 S
C5316 C5317 1.392 . S
C5316 C5319 1.511 . S
C5317 C5313 1.376 1_556 S
C5317 C5316 1.392 . S
C5317 H5329 0.929 . S
C5318 C5314 1.531 . S
C5318 H5330 0.960 . S
C5318 H5331 0.962 . S
C5318 H5332 0.960 . S
C5319 C5316 1.511 . S
C5319 H5333 0.961 . S
C5319 H5334 0.961 . S
C5319 H5335 0.961 . S
C5320 C5321 1.377 . S
C5320 C5322 1.363 . S
C5320 H5336 0.931 . S
C5321 C5320 1.377 . S
C5321 C5325 1.400 1_556 S
C5322 C5320 1.363 . S
C5322 C5323 1.370 1_556 S
C5322 C5326 1.524 . S
C5323 C5315 1.503 . S
C5323 C5322 1.370 1_554 S
C5323 C5324 1.403 . S
C5324 C5323 1.403 . S
C5324 C5325 1.404 . S
C5324 C5327 1.539 . S
C5325 C5321 1.400 1_554 S
C5325 C5324 1.404 . S
C5325 H5337 0.930 . S
C5326 C5322 1.524 . S
C5326 H5338 0.956 . S
C5326 H5339 0.961 . S
C5326 H5340 0.961 . S
C5327 C5324 1.539 . S
C5327 H5341 0.958 . S
C5327 H5342 0.961 . S
C5327 H5343 0.960 . S
H5328 C5312 0.931 . S
H5329 C5317 0.929 . S
H5330 C5318 0.960 . S
H5331 C5318 0.962 . S
H5332 C5318 0.960 . S
H5333 C5319 0.961 . S
H5334 C5319 0.961 . S
H5335 C5319 0.961 . S
H5336 C5320 0.931 . S
H5337 C5325 0.930 . S
H5338 C5326 0.956 . S
H5339 C5326 0.961 . S
H5340 C5326 0.961 . S
H5341 C5327 0.958 . S
H5342 C5327 0.961 . S
H5343 C5327 0.960 . S
C5344 C5345 1.391 . S
C5344 C5346 1.394 . S
C5344 H5360 0.931 . S
C5345 C5344 1.391 . S
C5345 C5349 1.383 . S
C5346 C5344 1.394 . S
C5346 C5347 1.369 . S
C5346 C5350 1.531 . S
C5347 C5346 1.369 . S
C5347 C5348 1.410 1_455 S
C5347 C5355 1.503 1_545 S
C5348 C5347 1.410 1_655 S
C5348 C5349 1.392 1_655 S
C5348 C5351 1.511 . S
C5349 C5345 1.383 . S
C5349 C5348 1.392 1_455 S
C5349 H5361 0.922 1_455 S
C5350 C5346 1.531 . S
C5350 H5362 0.960 1_545 S
C5350 H5363 0.962 . S
C5350 H5364 0.960 . S
C5351 C5348 1.511 . S
C5351 H5365 0.961 . S
C5351 H5366 0.933 1_545 S
C5351 H5367 0.961 . S
C5352 C5353 1.370 . S
C5352 C5354 1.363 . S
C5352 H5368 0.931 . S
C5353 C5352 1.370 . S
C5353 C5357 1.437 . S
C5354 C5352 1.363 . S
C5354 C5355 1.370 . S
C5354 C5358 1.524 . S
C5355 C5347 1.503 1_565 S
C5355 C5354 1.370 . S
C5355 C5356 1.416 . S
C5356 C5355 1.416 . S
C5356 C5357 1.404 . S
C5356 C5359 1.524 1_455 S
C5357 C5353 1.437 . S
C5357 C5356 1.404 . S
C5357 H5369 0.904 1_455 S
C5358 C5354 1.524 . S
C5358 H5370 0.957 1_565 S
C5358 H5371 0.961 1_565 S
C5358 H5372 0.961 . S
C5359 C5356 1.524 1_655 S
C5359 H5373 0.958 . S
C5359 H5374 0.961 . S
C5359 H5375 0.923 1_565 S
H5360 C5344 0.931 . S
H5361 C5349 0.922 1_655 S
H5362 C5350 0.960 1_565 S
H5363 C5350 0.962 . S
H5364 C5350 0.960 . S
H5365 C5351 0.961 . S
H5366 C5351 0.933 1_565 S
H5367 C5351 0.961 . S
H5368 C5352 0.931 . S
H5369 C5357 0.904 1_655 S
H5370 C5358 0.957 1_545 S
H5371 C5358 0.961 1_545 S
H5372 C5358 0.961 . S
H5373 C5359 0.958 . S
H5374 C5359 0.961 . S
H5375 C5359 0.923 1_545 S
C5376 C5377 1.391 . S
C5376 C5378 1.394 . S
C5376 H5392 0.931 . S
C5377 C5376 1.391 . S
C5377 C5381 1.376 . S
C5378 C5376 1.394 . S
C5378 C5379 1.369 . S
C5378 C5382 1.531 . S
C5379 C5378 1.369 . S
C5379 C5380 1.410 . S
C5379 C5387 1.503 . S
C5380 C5379 1.410 . S
C5380 C5381 1.392 . S
C5380 C5383 1.511 . S
C5381 C5377 1.376 . S
C5381 C5380 1.392 . S
C5381 H5393 0.929 . S
C5382 C5378 1.531 . S
C5382 H5394 0.960 . S
C5382 H5395 0.962 . S
C5382 H5396 0.960 . S
C5383 C5380 1.511 . S
C5383 H5397 0.961 . S
C5383 H5398 0.961 . S
C5383 H5399 0.961 . S
C5384 C5385 1.370 . S
C5384 C5386 1.363 . S
C5384 H5400 0.931 . S
C5385 C5384 1.370 . S
C5385 C5389 1.408 . S
C5386 C5384 1.363 . S
C5386 C5387 1.370 . S
C5386 C5390 1.524 . S
C5387 C5379 1.503 . S
C5387 C5386 1.370 . S
C5387 C5388 1.403 . S
C5388 C5387 1.403 . S
C5388 C5389 1.404 . S
C5388 C5391 1.539 . S
C5389 C5385 1.408 . S
C5389 C5388 1.404 . S
C5389 H5401 0.930 . S
C5390 C5386 1.524 . S
C5390 H5402 0.956 . S
C5390 H5403 0.961 . S
C5390 H5404 0.961 . S
C5391 C5388 1.539 . S
C5391 H5405 0.958 . S
C5391 H5406 0.961 . S
C5391 H5407 0.960 . S
H5392 C5376 0.931 . S
H5393 C5381 0.929 . S
H5394 C5382 0.960 . S
H5395 C5382 0.962 . S
H5396 C5382 0.960 . S
H5397 C5383 0.961 . S
H5398 C5383 0.961 . S
H5399 C5383 0.961 . S
H5400 C5384 0.931 . S
H5401 C5389 0.930 . S
H5402 C5390 0.956 . S
H5403 C5390 0.961 . S
H5404 C5390 0.961 . S
H5405 C5391 0.958 . S
H5406 C5391 0.961 . S
H5407 C5391 0.960 . S
C5408 C5409 1.391 . S
C5408 C5410 1.394 . S
C5408 H5424 0.931 . S
C5409 C5408 1.391 . S
C5409 C5413 1.376 . S
C5410 C5408 1.394 . S
C5410 C5411 1.369 . S
C5410 C5414 1.531 . S
C5411 C5410 1.369 . S
C5411 C5412 1.410 . S
C5411 C5419 1.503 1_554 S
C5412 C5411 1.410 . S
C5412 C5413 1.392 . S
C5412 C5415 1.511 . S
C5413 C5409 1.376 . S
C5413 C5412 1.392 . S
C5413 H5425 0.929 . S
C5414 C5410 1.531 . S
C5414 H5426 0.931 1_554 S
C5414 H5427 0.962 . S
C5414 H5428 0.960 . S
C5415 C5412 1.511 . S
C5415 H5429 0.961 . S
C5415 H5430 0.916 1_554 S
C5415 H5431 0.961 . S
C5416 C5417 1.370 . S
C5416 C5418 1.363 . S
C5416 H5432 0.931 . S
C5417 C5416 1.370 . S
C5417 C5421 1.408 . S
C5418 C5416 1.363 . S
C5418 C5419 1.370 . S
C5418 C5422 1.524 . S
C5419 C5411 1.503 1_556 S
C5419 C5418 1.370 . S
C5419 C5420 1.403 . S
C5420 C5419 1.403 . S
C5420 C5421 1.404 . S
C5420 C5423 1.539 . S
C5421 C5417 1.408 . S
C5421 C5420 1.404 . S
C5421 H5433 0.930 . S
C5422 C5418 1.524 . S
C5422 H5434 0.976 . S
C5422 H5435 0.961 1_556 S
C5422 H5436 0.961 . S
C5423 C5420 1.539 . S
C5423 H5437 0.958 . S
C5423 H5438 0.961 . S
C5423 H5439 0.960 1_556 S
H5424 C5408 0.931 . S
H5425 C5413 0.929 . S
H5426 C5414 0.931 1_556 S
H5427 C5414 0.962 . S
H5428 C5414 0.960 . S
H5429 C5415 0.961 . S
H5430 C5415 0.916 1_556 S
H5431 C5415 0.961 . S
H5432 C5416 0.931 . S
H5433 C5421 0.930 . S
H5434 C5422 0.976 . S
H5435 C5422 0.961 1_554 S
H5436 C5422 0.961 . S
H5437 C5423 0.958 . S
H5438 C5423 0.961 . S
H5439 C5423 0.960 1_554 S
C5440 C5441 1.391 . S
C5440 C5442 1.394 . S
C5440 H5456 0.931 . S
C5441 C5440 1.391 . S
C5441 C5445 1.376 . S
C5442 C5440 1.394 . S
C5442 C5443 1.369 . S
C5442 C5446 1.531 . S
C5443 C5442 1.369 . S
C5443 C5444 1.410 . S
C5443 C5451 1.503 . S
C5444 C5443 1.410 . S
C5444 C5445 1.392 . S
C5444 C5447 1.511 . S
C5445 C5441 1.376 . S
C5445 C5444 1.392 . S
C5445 H5457 0.929 . S
C5446 C5442 1.531 . S
C5446 H5458 0.960 . S
C5446 H5459 0.962 . S
C5446 H5460 0.960 . S
C5447 C5444 1.511 . S
C5447 H5461 0.961 . S
C5447 H5462 0.961 . S
C5447 H5463 0.961 . S
C5448 C5449 1.370 . S
C5448 C5450 1.363 . S
C5448 H5464 0.931 . S
C5449 C5448 1.370 . S
C5449 C5453 1.408 . S
C5450 C5448 1.363 . S
C5450 C5451 1.370 . S
C5450 C5454 1.524 . S
C5451 C5443 1.503 . S
C5451 C5450 1.370 . S
C5451 C5452 1.403 . S
C5452 C5451 1.403 . S
C5452 C5453 1.404 . S
C5452 C5455 1.539 . S
C5453 C5449 1.408 . S
C5453 C5452 1.404 . S
C5453 H5465 0.930 . S
C5454 C5450 1.524 . S
C5454 H5466 0.956 . S
C5454 H5467 0.961 . S
C5454 H5468 0.961 . S
C5455 C5452 1.539 . S
C5455 H5469 0.958 . S
C5455 H5470 0.961 . S
C5455 H5471 0.960 . S
H5456 C5440 0.931 . S
H5457 C5445 0.929 . S
H5458 C5446 0.960 . S
H5459 C5446 0.962 . S
H5460 C5446 0.960 . S
H5461 C5447 0.961 . S
H5462 C5447 0.961 . S
H5463 C5447 0.961 . S
H5464 C5448 0.931 . S
H5465 C5453 0.930 . S
H5466 C5454 0.956 . S
H5467 C5454 0.961 . S
H5468 C5454 0.961 . S
H5469 C5455 0.958 . S
H5470 C5455 0.961 . S
H5471 C5455 0.960 . S
C5472 C5473 1.391 . S
C5472 C5474 1.394 . S
C5472 H5488 0.931 . S
C5473 C5472 1.391 . S
C5473 C5477 1.376 . S
C5474 C5472 1.394 . S
C5474 C5475 1.369 . S
C5474 C5478 1.531 . S
C5475 C5474 1.369 . S
C5475 C5476 1.410 . S
C5475 C5483 1.503 . S
C5476 C5475 1.410 . S
C5476 C5477 1.392 . S
C5476 C5479 1.511 . S
C5477 C5473 1.376 . S
C5477 C5476 1.392 . S
C5477 H5489 0.929 . S
C5478 C5474 1.531 . S
C5478 H5490 0.960 . S
C5478 H5491 0.962 . S
C5478 H5492 0.960 . S
C5479 C5476 1.511 . S
C5479 H5493 0.961 . S
C5479 H5494 0.961 . S
C5479 H5495 0.961 . S
C5480 C5481 1.370 . S
C5480 C5482 1.363 . S
C5480 H5496 0.931 . S
C5481 C5480 1.370 . S
C5481 C5485 1.408 . S
C5482 C5480 1.363 . S
C5482 C5483 1.370 . S
C5482 C5486 1.524 . S
C5483 C5475 1.503 . S
C5483 C5482 1.370 . S
C5483 C5484 1.403 . S
C5484 C5483 1.403 . S
C5484 C5485 1.404 . S
C5484 C5487 1.539 . S
C5485 C5481 1.408 . S
C5485 C5484 1.404 . S
C5485 H5497 0.930 . S
C5486 C5482 1.524 . S
C5486 H5498 0.956 . S
C5486 H5499 0.961 . S
C5486 H5500 0.961 . S
C5487 C5484 1.539 . S
C5487 H5501 0.958 . S
C5487 H5502 0.961 . S
C5487 H5503 0.960 . S
H5488 C5472 0.931 . S
H5489 C5477 0.929 . S
H5490 C5478 0.960 . S
H5491 C5478 0.962 . S
H5492 C5478 0.960 . S
H5493 C5479 0.961 . S
H5494 C5479 0.961 . S
H5495 C5479 0.961 . S
H5496 C5480 0.931 . S
H5497 C5485 0.930 . S
H5498 C5486 0.956 . S
H5499 C5486 0.961 . S
H5500 C5486 0.961 . S
H5501 C5487 0.958 . S
H5502 C5487 0.961 . S
H5503 C5487 0.960 . S
C5504 C5505 1.391 . S
C5504 C5506 1.394 . S
C5504 H5520 0.931 . S
C5505 C5504 1.391 . S
C5505 C5509 1.376 . S
C5506 C5504 1.394 . S
C5506 C5507 1.369 . S
C5506 C5510 1.531 . S
C5507 C5506 1.369 . S
C5507 C5508 1.410 . S
C5507 C5515 1.503 . S
C5508 C5507 1.410 . S
C5508 C5509 1.392 . S
C5508 C5511 1.511 . S
C5509 C5505 1.376 . S
C5509 C5508 1.392 . S
C5509 H5521 0.929 . S
C5510 C5506 1.531 . S
C5510 H5522 0.960 . S
C5510 H5523 0.962 . S
C5510 H5524 0.960 . S
C5511 C5508 1.511 . S
C5511 H5525 0.961 . S
C5511 H5526 0.961 . S
C5511 H5527 0.961 . S
C5512 C5513 1.370 . S
C5512 C5514 1.363 . S
C5512 H5528 0.931 . S
C5513 C5512 1.370 . S
C5513 C5517 1.408 . S
C5514 C5512 1.363 . S
C5514 C5515 1.370 . S
C5514 C5518 1.524 . S
C5515 C5507 1.503 . S
C5515 C5514 1.370 . S
C5515 C5516 1.403 . S
C5516 C5515 1.403 . S
C5516 C5517 1.404 . S
C5516 C5519 1.539 . S
C5517 C5513 1.408 . S
C5517 C5516 1.404 . S
C5517 H5529 0.930 . S
C5518 C5514 1.524 . S
C5518 H5530 0.956 . S
C5518 H5531 0.961 . S
C5518 H5532 0.961 . S
C5519 C5516 1.539 . S
C5519 H5533 0.958 . S
C5519 H5534 0.961 . S
C5519 H5535 0.960 . S
H5520 C5504 0.931 . S
H5521 C5509 0.929 . S
H5522 C5510 0.960 . S
H5523 C5510 0.962 . S
H5524 C5510 0.960 . S
H5525 C5511 0.961 . S
H5526 C5511 0.961 . S
H5527 C5511 0.961 . S
H5528 C5512 0.931 . S
H5529 C5517 0.930 . S
H5530 C5518 0.956 . S
H5531 C5518 0.961 . S
H5532 C5518 0.961 . S
H5533 C5519 0.958 . S
H5534 C5519 0.961 . S
H5535 C5519 0.960 . S
C5536 C5537 1.391 . S
C5536 C5538 1.394 . S
C5536 H5552 0.931 . S
C5537 C5536 1.391 . S
C5537 C5541 1.376 . S
C5538 C5536 1.394 . S
C5538 C5539 1.369 . S
C5538 C5542 1.531 . S
C5539 C5538 1.369 . S
C5539 C5540 1.410 . S
C5539 C5547 1.503 . S
C5540 C5539 1.410 . S
C5540 C5541 1.392 . S
C5540 C5543 1.511 . S
C5541 C5537 1.376 . S
C5541 C5540 1.392 . S
C5541 H5553 0.929 . S
C5542 C5538 1.531 . S
C5542 H5554 0.960 . S
C5542 H5555 0.962 . S
C5542 H5556 0.960 . S
C5543 C5540 1.511 . S
C5543 H5557 0.961 . S
C5543 H5558 0.961 . S
C5543 H5559 0.961 . S
C5544 C5545 1.370 . S
C5544 C5546 1.363 . S
C5544 H5560 0.931 . S
C5545 C5544 1.370 . S
C5545 C5549 1.408 . S
C5546 C5544 1.363 . S
C5546 C5547 1.370 . S
C5546 C5550 1.524 . S
C5547 C5539 1.503 . S
C5547 C5546 1.370 . S
C5547 C5548 1.403 . S
C5548 C5547 1.403 . S
C5548 C5549 1.404 . S
C5548 C5551 1.539 . S
C5549 C5545 1.408 . S
C5549 C5548 1.404 . S
C5549 H5561 0.930 . S
C5550 C5546 1.524 . S
C5550 H5562 0.956 . S
C5550 H5563 0.961 . S
C5550 H5564 0.961 . S
C5551 C5548 1.539 . S
C5551 H5565 0.958 . S
C5551 H5566 0.961 . S
C5551 H5567 0.960 . S
H5552 C5536 0.931 . S
H5553 C5541 0.929 . S
H5554 C5542 0.960 . S
H5555 C5542 0.962 . S
H5556 C5542 0.960 . S
H5557 C5543 0.961 . S
H5558 C5543 0.961 . S
H5559 C5543 0.961 . S
H5560 C5544 0.931 . S
H5561 C5549 0.930 . S
H5562 C5550 0.956 . S
H5563 C5550 0.961 . S
H5564 C5550 0.961 . S
H5565 C5551 0.958 . S
H5566 C5551 0.961 . S
H5567 C5551 0.960 . S
C5568 C5569 1.391 . S
C5568 C5570 1.394 . S
C5568 H5584 0.931 . S
C5569 C5568 1.391 . S
C5569 C5573 1.376 . S
C5570 C5568 1.394 . S
C5570 C5571 1.369 . S
C5570 C5574 1.531 . S
C5571 C5570 1.369 . S
C5571 C5572 1.410 . S
C5571 C5579 1.503 . S
C5572 C5571 1.410 . S
C5572 C5573 1.392 . S
C5572 C5575 1.511 . S
C5573 C5569 1.376 . S
C5573 C5572 1.392 . S
C5573 H5585 0.929 . S
C5574 C5570 1.531 . S
C5574 H5586 0.960 . S
C5574 H5587 0.962 . S
C5574 H5588 0.960 . S
C5575 C5572 1.511 . S
C5575 H5589 0.961 . S
C5575 H5590 0.961 . S
C5575 H5591 0.961 . S
C5576 C5577 1.370 . S
C5576 C5578 1.363 . S
C5576 H5592 0.931 . S
C5577 C5576 1.370 . S
C5577 C5581 1.408 . S
C5578 C5576 1.363 . S
C5578 C5579 1.370 . S
C5578 C5582 1.524 . S
C5579 C5571 1.503 . S
C5579 C5578 1.370 . S
C5579 C5580 1.403 . S
C5580 C5579 1.403 . S
C5580 C5581 1.404 . S
C5580 C5583 1.539 . S
C5581 C5577 1.408 . S
C5581 C5580 1.404 . S
C5581 H5593 0.930 . S
C5582 C5578 1.524 . S
C5582 H5594 0.956 . S
C5582 H5595 0.961 . S
C5582 H5596 0.961 . S
C5583 C5580 1.539 . S
C5583 H5597 0.958 . S
C5583 H5598 0.961 . S
C5583 H5599 0.960 . S
H5584 C5568 0.931 . S
H5585 C5573 0.929 . S
H5586 C5574 0.960 . S
H5587 C5574 0.962 . S
H5588 C5574 0.960 . S
H5589 C5575 0.961 . S
H5590 C5575 0.961 . S
H5591 C5575 0.961 . S
H5592 C5576 0.931 . S
H5593 C5581 0.930 . S
H5594 C5582 0.956 . S
H5595 C5582 0.961 . S
H5596 C5582 0.961 . S
H5597 C5583 0.958 . S
H5598 C5583 0.961 . S
H5599 C5583 0.960 . S
C5600 C5601 1.391 . S
C5600 C5602 1.394 . S
C5600 H5616 0.931 . S
C5601 C5600 1.391 . S
C5601 C5605 1.376 . S
C5602 C5600 1.394 . S
C5602 C5603 1.369 . S
C5602 C5606 1.531 . S
C5603 C5602 1.369 . S
C5603 C5604 1.410 . S
C5603 C5611 1.503 . S
C5604 C5603 1.410 . S
C5604 C5605 1.392 . S
C5604 C5607 1.511 . S
C5605 C5601 1.376 . S
C5605 C5604 1.392 . S
C5605 H5617 0.929 . S
C5606 C5602 1.531 . S
C5606 H5618 0.960 . S
C5606 H5619 0.962 . S
C5606 H5620 0.960 . S
C5607 C5604 1.511 . S
C5607 H5621 0.961 . S
C5607 H5622 0.961 . S
C5607 H5623 0.961 . S
C5608 C5609 1.370 . S
C5608 C5610 1.363 . S
C5608 H5624 0.931 . S
C5609 C5608 1.370 . S
C5609 C5613 1.408 . S
C5610 C5608 1.363 . S
C5610 C5611 1.370 . S
C5610 C5614 1.524 . S
C5611 C5603 1.503 . S
C5611 C5610 1.370 . S
C5611 C5612 1.403 . S
C5612 C5611 1.403 . S
C5612 C5613 1.404 . S
C5612 C5615 1.539 . S
C5613 C5609 1.408 . S
C5613 C5612 1.404 . S
C5613 H5625 0.930 . S
C5614 C5610 1.524 . S
C5614 H5626 0.956 . S
C5614 H5627 0.961 . S
C5614 H5628 0.961 . S
C5615 C5612 1.539 . S
C5615 H5629 0.958 . S
C5615 H5630 0.961 . S
C5615 H5631 0.960 . S
H5616 C5600 0.931 . S
H5617 C5605 0.929 . S
H5618 C5606 0.960 . S
H5619 C5606 0.962 . S
H5620 C5606 0.960 . S
H5621 C5607 0.961 . S
H5622 C5607 0.961 . S
H5623 C5607 0.961 . S
H5624 C5608 0.931 . S
H5625 C5613 0.930 . S
H5626 C5614 0.956 . S
H5627 C5614 0.961 . S
H5628 C5614 0.961 . S
H5629 C5615 0.958 . S
H5630 C5615 0.961 . S
H5631 C5615 0.960 . S
C5632 C5633 1.391 . S
C5632 C5634 1.394 . S
C5632 H5648 0.931 . S
C5633 C5632 1.391 . S
C5633 C5637 1.376 . S
C5634 C5632 1.394 . S
C5634 C5635 1.369 . S
C5634 C5638 1.531 . S
C5635 C5634 1.369 . S
C5635 C5636 1.410 . S
C5635 C5643 1.503 . S
C5636 C5635 1.410 . S
C5636 C5637 1.392 . S
C5636 C5639 1.511 . S
C5637 C5633 1.376 . S
C5637 C5636 1.392 . S
C5637 H5649 0.929 . S
C5638 C5634 1.531 . S
C5638 H5650 0.960 . S
C5638 H5651 0.962 . S
C5638 H5652 0.960 . S
C5639 C5636 1.511 . S
C5639 H5653 0.961 . S
C5639 H5654 0.961 . S
C5639 H5655 0.961 . S
C5640 C5641 1.370 . S
C5640 C5642 1.363 . S
C5640 H5656 0.931 . S
C5641 C5640 1.370 . S
C5641 C5645 1.408 . S
C5642 C5640 1.363 . S
C5642 C5643 1.370 . S
C5642 C5646 1.524 . S
C5643 C5635 1.503 . S
C5643 C5642 1.370 . S
C5643 C5644 1.403 . S
C5644 C5643 1.403 . S
C5644 C5645 1.404 . S
C5644 C5647 1.539 . S
C5645 C5641 1.408 . S
C5645 C5644 1.404 . S
C5645 H5657 0.930 . S
C5646 C5642 1.524 . S
C5646 H5658 0.956 . S
C5646 H5659 0.961 . S
C5646 H5660 0.961 . S
C5647 C5644 1.539 . S
C5647 H5661 0.958 . S
C5647 H5662 0.961 . S
C5647 H5663 0.960 . S
H5648 C5632 0.931 . S
H5649 C5637 0.929 . S
H5650 C5638 0.960 . S
H5651 C5638 0.962 . S
H5652 C5638 0.960 . S
H5653 C5639 0.961 . S
H5654 C5639 0.961 . S
H5655 C5639 0.961 . S
H5656 C5640 0.931 . S
H5657 C5645 0.930 . S
H5658 C5646 0.956 . S
H5659 C5646 0.961 . S
H5660 C5646 0.961 . S
H5661 C5647 0.958 . S
H5662 C5647 0.961 . S
H5663 C5647 0.960 . S
C5664 C5665 1.391 . S
C5664 C5666 1.394 . S
C5664 H5680 0.931 . S
C5665 C5664 1.391 . S
C5665 C5669 1.376 . S
C5666 C5664 1.394 . S
C5666 C5667 1.369 . S
C5666 C5670 1.531 . S
C5667 C5666 1.369 . S
C5667 C5668 1.410 . S
C5667 C5675 1.503 . S
C5668 C5667 1.410 . S
C5668 C5669 1.392 . S
C5668 C5671 1.511 . S
C5669 C5665 1.376 . S
C5669 C5668 1.392 . S
C5669 H5681 0.929 . S
C5670 C5666 1.531 . S
C5670 H5682 0.960 . S
C5670 H5683 0.962 . S
C5670 H5684 0.960 . S
C5671 C5668 1.511 . S
C5671 H5685 0.961 . S
C5671 H5686 0.961 . S
C5671 H5687 0.961 . S
C5672 C5673 1.370 . S
C5672 C5674 1.363 . S
C5672 H5688 0.931 . S
C5673 C5672 1.370 . S
C5673 C5677 1.408 . S
C5674 C5672 1.363 . S
C5674 C5675 1.370 . S
C5674 C5678 1.524 . S
C5675 C5667 1.503 . S
C5675 C5674 1.370 . S
C5675 C5676 1.403 . S
C5676 C5675 1.403 . S
C5676 C5677 1.404 . S
C5676 C5679 1.539 . S
C5677 C5673 1.408 . S
C5677 C5676 1.404 . S
C5677 H5689 0.930 . S
C5678 C5674 1.524 . S
C5678 H5690 0.956 . S
C5678 H5691 0.961 . S
C5678 H5692 0.961 . S
C5679 C5676 1.539 . S
C5679 H5693 0.958 . S
C5679 H5694 0.961 . S
C5679 H5695 0.960 . S
H5680 C5664 0.931 . S
H5681 C5669 0.929 . S
H5682 C5670 0.960 . S
H5683 C5670 0.962 . S
H5684 C5670 0.960 . S
H5685 C5671 0.961 . S
H5686 C5671 0.961 . S
H5687 C5671 0.961 . S
H5688 C5672 0.931 . S
H5689 C5677 0.930 . S
H5690 C5678 0.956 . S
H5691 C5678 0.961 . S
H5692 C5678 0.961 . S
H5693 C5679 0.958 . S
H5694 C5679 0.961 . S
H5695 C5679 0.960 . S
C5696 C5697 1.391 . S
C5696 C5698 1.394 . S
C5696 H5712 0.931 . S
C5697 C5696 1.391 . S
C5697 C5701 1.376 . S
C5698 C5696 1.394 . S
C5698 C5699 1.369 . S
C5698 C5702 1.531 . S
C5699 C5698 1.369 . S
C5699 C5700 1.410 . S
C5699 C5707 1.503 . S
C5700 C5699 1.410 . S
C5700 C5701 1.392 . S
C5700 C5703 1.511 . S
C5701 C5697 1.376 . S
C5701 C5700 1.392 . S
C5701 H5713 0.929 . S
C5702 C5698 1.531 . S
C5702 H5714 0.960 . S
C5702 H5715 0.962 . S
C5702 H5716 0.960 . S
C5703 C5700 1.511 . S
C5703 H5717 0.961 . S
C5703 H5718 0.961 . S
C5703 H5719 0.961 . S
C5704 C5705 1.370 . S
C5704 C5706 1.363 . S
C5704 H5720 0.931 . S
C5705 C5704 1.370 . S
C5705 C5709 1.408 . S
C5706 C5704 1.363 . S
C5706 C5707 1.370 . S
C5706 C5710 1.524 . S
C5707 C5699 1.503 . S
C5707 C5706 1.370 . S
C5707 C5708 1.403 . S
C5708 C5707 1.403 . S
C5708 C5709 1.404 . S
C5708 C5711 1.539 . S
C5709 C5705 1.408 . S
C5709 C5708 1.404 . S
C5709 H5721 0.930 . S
C5710 C5706 1.524 . S
C5710 H5722 0.956 . S
C5710 H5723 0.961 . S
C5710 H5724 0.961 . S
C5711 C5708 1.539 . S
C5711 H5725 0.958 . S
C5711 H5726 0.961 . S
C5711 H5727 0.960 . S
H5712 C5696 0.931 . S
H5713 C5701 0.929 . S
H5714 C5702 0.960 . S
H5715 C5702 0.962 . S
H5716 C5702 0.960 . S
H5717 C5703 0.961 . S
H5718 C5703 0.961 . S
H5719 C5703 0.961 . S
H5720 C5704 0.931 . S
H5721 C5709 0.930 . S
H5722 C5710 0.956 . S
H5723 C5710 0.961 . S
H5724 C5710 0.961 . S
H5725 C5711 0.958 . S
H5726 C5711 0.961 . S
H5727 C5711 0.960 . S
C5728 C5729 1.391 . S
C5728 C5730 1.394 . S
C5728 H5744 0.931 . S
C5729 C5728 1.391 . S
C5729 C5733 1.376 . S
C5730 C5728 1.394 . S
C5730 C5731 1.369 . S
C5730 C5734 1.531 . S
C5731 C5730 1.369 . S
C5731 C5732 1.410 . S
C5731 C5739 1.503 . S
C5732 C5731 1.410 . S
C5732 C5733 1.392 . S
C5732 C5735 1.511 . S
C5733 C5729 1.376 . S
C5733 C5732 1.392 . S
C5733 H5745 0.929 . S
C5734 C5730 1.531 . S
C5734 H5746 0.960 . S
C5734 H5747 0.962 . S
C5734 H5748 0.960 . S
C5735 C5732 1.511 . S
C5735 H5749 0.961 . S
C5735 H5750 0.961 . S
C5735 H5751 0.961 . S
C5736 C5737 1.370 . S
C5736 C5738 1.363 . S
C5736 H5752 0.931 . S
C5737 C5736 1.370 . S
C5737 C5741 1.408 . S
C5738 C5736 1.363 . S
C5738 C5739 1.370 . S
C5738 C5742 1.524 . S
C5739 C5731 1.503 . S
C5739 C5738 1.370 . S
C5739 C5740 1.403 . S
C5740 C5739 1.403 . S
C5740 C5741 1.404 . S
C5740 C5743 1.539 . S
C5741 C5737 1.408 . S
C5741 C5740 1.404 . S
C5741 H5753 0.930 . S
C5742 C5738 1.524 . S
C5742 H5754 0.956 . S
C5742 H5755 0.961 . S
C5742 H5756 0.961 . S
C5743 C5740 1.539 . S
C5743 H5757 0.958 . S
C5743 H5758 0.961 . S
C5743 H5759 0.960 . S
H5744 C5728 0.931 . S
H5745 C5733 0.929 . S
H5746 C5734 0.960 . S
H5747 C5734 0.962 . S
H5748 C5734 0.960 . S
H5749 C5735 0.961 . S
H5750 C5735 0.961 . S
H5751 C5735 0.961 . S
H5752 C5736 0.931 . S
H5753 C5741 0.930 . S
H5754 C5742 0.956 . S
H5755 C5742 0.961 . S
H5756 C5742 0.961 . S
H5757 C5743 0.958 . S
H5758 C5743 0.961 . S
H5759 C5743 0.960 . S
C5760 C5761 1.391 . S
C5760 C5762 1.394 . S
C5760 H5776 0.931 . S
C5761 C5760 1.391 . S
C5761 C5765 1.376 . S
C5762 C5760 1.394 . S
C5762 C5763 1.369 . S
C5762 C5766 1.531 . S
C5763 C5762 1.369 . S
C5763 C5764 1.410 . S
C5763 C5771 1.503 . S
C5764 C5763 1.410 . S
C5764 C5765 1.392 . S
C5764 C5767 1.511 . S
C5765 C5761 1.376 . S
C5765 C5764 1.392 . S
C5765 H5777 0.929 . S
C5766 C5762 1.531 . S
C5766 H5778 0.960 . S
C5766 H5779 0.962 . S
C5766 H5780 0.960 . S
C5767 C5764 1.511 . S
C5767 H5781 0.961 . S
C5767 H5782 0.961 . S
C5767 H5783 0.961 . S
C5768 C5769 1.370 . S
C5768 C5770 1.363 . S
C5768 H5784 0.931 . S
C5769 C5768 1.370 . S
C5769 C5773 1.408 . S
C5770 C5768 1.363 . S
C5770 C5771 1.370 . S
C5770 C5774 1.524 . S
C5771 C5763 1.503 . S
C5771 C5770 1.370 . S
C5771 C5772 1.403 . S
C5772 C5771 1.403 . S
C5772 C5773 1.404 . S
C5772 C5775 1.539 . S
C5773 C5769 1.408 . S
C5773 C5772 1.404 . S
C5773 H5785 0.930 . S
C5774 C5770 1.524 . S
C5774 H5786 0.956 . S
C5774 H5787 0.961 . S
C5774 H5788 0.961 . S
C5775 C5772 1.539 . S
C5775 H5789 0.958 . S
C5775 H5790 0.961 . S
C5775 H5791 0.960 . S
H5776 C5760 0.931 . S
H5777 C5765 0.929 . S
H5778 C5766 0.960 . S
H5779 C5766 0.962 . S
H5780 C5766 0.960 . S
H5781 C5767 0.961 . S
H5782 C5767 0.961 . S
H5783 C5767 0.961 . S
H5784 C5768 0.931 . S
H5785 C5773 0.930 . S
H5786 C5774 0.956 . S
H5787 C5774 0.961 . S
H5788 C5774 0.961 . S
H5789 C5775 0.958 . S
H5790 C5775 0.961 . S
H5791 C5775 0.960 . S
C5792 C5793 1.391 . S
C5792 C5794 1.394 . S
C5792 H5808 0.931 . S
C5793 C5792 1.391 . S
C5793 C5797 1.376 . S
C5794 C5792 1.394 . S
C5794 C5795 1.369 . S
C5794 C5798 1.531 . S
C5795 C5794 1.369 . S
C5795 C5796 1.410 . S
C5795 C5803 1.503 . S
C5796 C5795 1.410 . S
C5796 C5797 1.392 . S
C5796 C5799 1.511 . S
C5797 C5793 1.376 . S
C5797 C5796 1.392 . S
C5797 H5809 0.929 . S
C5798 C5794 1.531 . S
C5798 H5810 0.960 . S
C5798 H5811 0.962 . S
C5798 H5812 0.960 . S
C5799 C5796 1.511 . S
C5799 H5813 0.961 . S
C5799 H5814 0.961 . S
C5799 H5815 0.961 . S
C5800 C5801 1.370 . S
C5800 C5802 1.363 . S
C5800 H5816 0.931 . S
C5801 C5800 1.370 . S
C5801 C5805 1.408 . S
C5802 C5800 1.363 . S
C5802 C5803 1.370 . S
C5802 C5806 1.524 . S
C5803 C5795 1.503 . S
C5803 C5802 1.370 . S
C5803 C5804 1.403 . S
C5804 C5803 1.403 . S
C5804 C5805 1.404 . S
C5804 C5807 1.539 . S
C5805 C5801 1.408 . S
C5805 C5804 1.404 . S
C5805 H5817 0.930 . S
C5806 C5802 1.524 . S
C5806 H5818 0.956 . S
C5806 H5819 0.961 . S
C5806 H5820 0.961 . S
C5807 C5804 1.539 . S
C5807 H5821 0.958 . S
C5807 H5822 0.961 . S
C5807 H5823 0.960 . S
H5808 C5792 0.931 . S
H5809 C5797 0.929 . S
H5810 C5798 0.960 . S
H5811 C5798 0.962 . S
H5812 C5798 0.960 . S
H5813 C5799 0.961 . S
H5814 C5799 0.961 . S
H5815 C5799 0.961 . S
H5816 C5800 0.931 . S
H5817 C5805 0.930 . S
H5818 C5806 0.956 . S
H5819 C5806 0.961 . S
H5820 C5806 0.961 . S
H5821 C5807 0.958 . S
H5822 C5807 0.961 . S
H5823 C5807 0.960 . S
C5824 C5825 1.391 . S
C5824 C5826 1.394 . S
C5824 H5840 0.931 . S
C5825 C5824 1.391 . S
C5825 C5829 1.376 . S
C5826 C5824 1.394 . S
C5826 C5827 1.369 . S
C5826 C5830 1.531 . S
C5827 C5826 1.369 . S
C5827 C5828 1.410 . S
C5827 C5835 1.503 . S
C5828 C5827 1.410 . S
C5828 C5829 1.392 . S
C5828 C5831 1.511 . S
C5829 C5825 1.376 . S
C5829 C5828 1.392 . S
C5829 H5841 0.929 . S
C5830 C5826 1.531 . S
C5830 H5842 0.960 . S
C5830 H5843 0.962 . S
C5830 H5844 0.960 . S
C5831 C5828 1.511 . S
C5831 H5845 0.961 . S
C5831 H5846 0.961 . S
C5831 H5847 0.961 . S
C5832 C5833 1.370 . S
C5832 C5834 1.363 . S
C5832 H5848 0.931 . S
C5833 C5832 1.370 . S
C5833 C5837 1.408 . S
C5834 C5832 1.363 . S
C5834 C5835 1.370 . S
C5834 C5838 1.524 . S
C5835 C5827 1.503 . S
C5835 C5834 1.370 . S
C5835 C5836 1.403 . S
C5836 C5835 1.403 . S
C5836 C5837 1.404 . S
C5836 C5839 1.539 . S
C5837 C5833 1.408 . S
C5837 C5836 1.404 . S
C5837 H5849 0.930 . S
C5838 C5834 1.524 . S
C5838 H5850 0.956 . S
C5838 H5851 0.961 . S
C5838 H5852 0.961 . S
C5839 C5836 1.539 . S
C5839 H5853 0.958 . S
C5839 H5854 0.961 . S
C5839 H5855 0.960 . S
H5840 C5824 0.931 . S
H5841 C5829 0.929 . S
H5842 C5830 0.960 . S
H5843 C5830 0.962 . S
H5844 C5830 0.960 . S
H5845 C5831 0.961 . S
H5846 C5831 0.961 . S
H5847 C5831 0.961 . S
H5848 C5832 0.931 . S
H5849 C5837 0.930 . S
H5850 C5838 0.956 . S
H5851 C5838 0.961 . S
H5852 C5838 0.961 . S
H5853 C5839 0.958 . S
H5854 C5839 0.961 . S
H5855 C5839 0.960 . S
C5856 C5857 1.391 . S
C5856 C5858 1.394 . S
C5856 H5872 0.931 . S
C5857 C5856 1.391 . S
C5857 C5861 1.376 . S
C5858 C5856 1.394 . S
C5858 C5859 1.369 . S
C5858 C5862 1.531 . S
C5859 C5858 1.369 . S
C5859 C5860 1.410 . S
C5859 C5867 1.503 . S
C5860 C5859 1.410 . S
C5860 C5861 1.392 . S
C5860 C5863 1.511 . S
C5861 C5857 1.376 . S
C5861 C5860 1.392 . S
C5861 H5873 0.929 . S
C5862 C5858 1.531 . S
C5862 H5874 0.960 . S
C5862 H5875 0.962 . S
C5862 H5876 0.960 . S
C5863 C5860 1.511 . S
C5863 H5877 0.961 . S
C5863 H5878 0.961 . S
C5863 H5879 0.961 . S
C5864 C5865 1.370 . S
C5864 C5866 1.363 . S
C5864 H5880 0.931 . S
C5865 C5864 1.370 . S
C5865 C5869 1.408 . S
C5866 C5864 1.363 . S
C5866 C5867 1.370 . S
C5866 C5870 1.524 . S
C5867 C5859 1.503 . S
C5867 C5866 1.370 . S
C5867 C5868 1.403 . S
C5868 C5867 1.403 . S
C5868 C5869 1.404 . S
C5868 C5871 1.539 . S
C5869 C5865 1.408 . S
C5869 C5868 1.404 . S
C5869 H5881 0.930 . S
C5870 C5866 1.524 . S
C5870 H5882 0.956 . S
C5870 H5883 0.961 . S
C5870 H5884 0.961 . S
C5871 C5868 1.539 . S
C5871 H5885 0.958 . S
C5871 H5886 0.961 . S
C5871 H5887 0.960 . S
H5872 C5856 0.931 . S
H5873 C5861 0.929 . S
H5874 C5862 0.960 . S
H5875 C5862 0.962 . S
H5876 C5862 0.960 . S
H5877 C5863 0.961 . S
H5878 C5863 0.961 . S
H5879 C5863 0.961 . S
H5880 C5864 0.931 . S
H5881 C5869 0.930 . S
H5882 C5870 0.956 . S
H5883 C5870 0.961 . S
H5884 C5870 0.961 . S
H5885 C5871 0.958 . S
H5886 C5871 0.961 . S
H5887 C5871 0.960 . S
C5888 C5889 1.391 . S
C5888 C5890 1.394 . S
C5888 H5904 0.931 . S
C5889 C5888 1.391 . S
C5889 C5893 1.376 . S
C5890 C5888 1.394 . S
C5890 C5891 1.369 . S
C5890 C5894 1.531 . S
C5891 C5890 1.369 . S
C5891 C5892 1.410 . S
C5891 C5899 1.503 . S
C5892 C5891 1.410 . S
C5892 C5893 1.392 . S
C5892 C5895 1.511 . S
C5893 C5889 1.376 . S
C5893 C5892 1.392 . S
C5893 H5905 0.929 . S
C5894 C5890 1.531 . S
C5894 H5906 0.960 . S
C5894 H5907 0.962 . S
C5894 H5908 0.960 . S
C5895 C5892 1.511 . S
C5895 H5909 0.961 . S
C5895 H5910 0.961 . S
C5895 H5911 0.961 . S
C5896 C5897 1.370 . S
C5896 C5898 1.363 . S
C5896 H5912 0.931 . S
C5897 C5896 1.370 . S
C5897 C5901 1.408 . S
C5898 C5896 1.363 . S
C5898 C5899 1.370 . S
C5898 C5902 1.524 . S
C5899 C5891 1.503 . S
C5899 C5898 1.370 . S
C5899 C5900 1.403 . S
C5900 C5899 1.403 . S
C5900 C5901 1.404 . S
C5900 C5903 1.539 . S
C5901 C5897 1.408 . S
C5901 C5900 1.404 . S
C5901 H5913 0.930 . S
C5902 C5898 1.524 . S
C5902 H5914 0.956 . S
C5902 H5915 0.961 . S
C5902 H5916 0.961 . S
C5903 C5900 1.539 . S
C5903 H5917 0.958 . S
C5903 H5918 0.961 . S
C5903 H5919 0.960 . S
H5904 C5888 0.931 . S
H5905 C5893 0.929 . S
H5906 C5894 0.960 . S
H5907 C5894 0.962 . S
H5908 C5894 0.960 . S
H5909 C5895 0.961 . S
H5910 C5895 0.961 . S
H5911 C5895 0.961 . S
H5912 C5896 0.931 . S
H5913 C5901 0.930 . S
H5914 C5902 0.956 . S
H5915 C5902 0.961 . S
H5916 C5902 0.961 . S
H5917 C5903 0.958 . S
H5918 C5903 0.961 . S
H5919 C5903 0.960 . S
C5920 C5921 1.391 . S
C5920 C5922 1.394 . S
C5920 H5936 0.931 . S
C5921 C5920 1.391 . S
C5921 C5925 1.376 . S
C5922 C5920 1.394 . S
C5922 C5923 1.369 . S
C5922 C5926 1.531 . S
C5923 C5922 1.369 . S
C5923 C5924 1.410 . S
C5923 C5931 1.503 . S
C5924 C5923 1.410 . S
C5924 C5925 1.392 . S
C5924 C5927 1.511 . S
C5925 C5921 1.376 . S
C5925 C5924 1.392 . S
C5925 H5937 0.929 . S
C5926 C5922 1.531 . S
C5926 H5938 0.960 . S
C5926 H5939 0.962 . S
C5926 H5940 0.960 . S
C5927 C5924 1.511 . S
C5927 H5941 0.961 . S
C5927 H5942 0.961 . S
C5927 H5943 0.961 . S
C5928 C5929 1.370 . S
C5928 C5930 1.363 . S
C5928 H5944 0.931 . S
C5929 C5928 1.370 . S
C5929 C5933 1.408 . S
C5930 C5928 1.363 . S
C5930 C5931 1.370 . S
C5930 C5934 1.524 . S
C5931 C5923 1.503 . S
C5931 C5930 1.370 . S
C5931 C5932 1.403 . S
C5932 C5931 1.403 . S
C5932 C5933 1.404 . S
C5932 C5935 1.539 . S
C5933 C5929 1.408 . S
C5933 C5932 1.404 . S
C5933 H5945 0.930 . S
C5934 C5930 1.524 . S
C5934 H5946 0.956 . S
C5934 H5947 0.961 . S
C5934 H5948 0.961 . S
C5935 C5932 1.539 . S
C5935 H5949 0.958 . S
C5935 H5950 0.961 . S
C5935 H5951 0.960 . S
H5936 C5920 0.931 . S
H5937 C5925 0.929 . S
H5938 C5926 0.960 . S
H5939 C5926 0.962 . S
H5940 C5926 0.960 . S
H5941 C5927 0.961 . S
H5942 C5927 0.961 . S
H5943 C5927 0.961 . S
H5944 C5928 0.931 . S
H5945 C5933 0.930 . S
H5946 C5934 0.956 . S
H5947 C5934 0.961 . S
H5948 C5934 0.961 . S
H5949 C5935 0.958 . S
H5950 C5935 0.961 . S
H5951 C5935 0.960 . S
C5952 C5953 1.391 . S
C5952 C5954 1.394 . S
C5952 H5968 0.931 . S
C5953 C5952 1.391 . S
C5953 C5957 1.376 . S
C5954 C5952 1.394 . S
C5954 C5955 1.369 . S
C5954 C5958 1.531 . S
C5955 C5954 1.369 . S
C5955 C5956 1.410 . S
C5955 C5963 1.503 . S
C5956 C5955 1.410 . S
C5956 C5957 1.392 . S
C5956 C5959 1.511 . S
C5957 C5953 1.376 . S
C5957 C5956 1.392 . S
C5957 H5969 0.929 . S
C5958 C5954 1.531 . S
C5958 H5970 0.960 . S
C5958 H5971 0.962 . S
C5958 H5972 0.960 . S
C5959 C5956 1.511 . S
C5959 H5973 0.961 . S
C5959 H5974 0.961 . S
C5959 H5975 0.961 . S
C5960 C5961 1.370 . S
C5960 C5962 1.363 . S
C5960 H5976 0.931 . S
C5961 C5960 1.370 . S
C5961 C5965 1.408 . S
C5962 C5960 1.363 . S
C5962 C5963 1.370 . S
C5962 C5966 1.524 . S
C5963 C5955 1.503 . S
C5963 C5962 1.370 . S
C5963 C5964 1.403 . S
C5964 C5963 1.403 . S
C5964 C5965 1.404 . S
C5964 C5967 1.539 . S
C5965 C5961 1.408 . S
C5965 C5964 1.404 . S
C5965 H5977 0.930 . S
C5966 C5962 1.524 . S
C5966 H5978 0.956 . S
C5966 H5979 0.961 . S
C5966 H5980 0.961 . S
C5967 C5964 1.539 . S
C5967 H5981 0.958 . S
C5967 H5982 0.961 . S
C5967 H5983 0.960 . S
H5968 C5952 0.931 . S
H5969 C5957 0.929 . S
H5970 C5958 0.960 . S
H5971 C5958 0.962 . S
H5972 C5958 0.960 . S
H5973 C5959 0.961 . S
H5974 C5959 0.961 . S
H5975 C5959 0.961 . S
H5976 C5960 0.931 . S
H5977 C5965 0.930 . S
H5978 C5966 0.956 . S
H5979 C5966 0.961 . S
H5980 C5966 0.961 . S
H5981 C5967 0.958 . S
H5982 C5967 0.961 . S
H5983 C5967 0.960 . S
C5984 C5985 1.391 . S
C5984 C5986 1.394 . S
C5984 H6000 0.931 . S
C5985 C5984 1.391 . S
C5985 C5989 1.376 . S
C5986 C5984 1.394 . S
C5986 C5987 1.369 . S
C5986 C5990 1.531 . S
C5987 C5986 1.369 . S
C5987 C5988 1.410 . S
C5987 C5995 1.503 . S
C5988 C5987 1.410 . S
C5988 C5989 1.392 . S
C5988 C5991 1.511 . S
C5989 C5985 1.376 . S
C5989 C5988 1.392 . S
C5989 H6001 0.929 . S
C5990 C5986 1.531 . S
C5990 H6002 0.960 . S
C5990 H6003 0.962 . S
C5990 H6004 0.960 . S
C5991 C5988 1.511 . S
C5991 H6005 0.961 . S
C5991 H6006 0.961 . S
C5991 H6007 0.961 . S
C5992 C5993 1.370 . S
C5992 C5994 1.363 . S
C5992 H6008 0.931 . S
C5993 C5992 1.370 . S
C5993 C5997 1.408 . S
C5994 C5992 1.363 . S
C5994 C5995 1.370 . S
C5994 C5998 1.524 . S
C5995 C5987 1.503 . S
C5995 C5994 1.370 . S
C5995 C5996 1.403 . S
C5996 C5995 1.403 . S
C5996 C5997 1.404 . S
C5996 C5999 1.539 . S
C5997 C5993 1.408 . S
C5997 C5996 1.404 . S
C5997 H6009 0.930 . S
C5998 C5994 1.524 . S
C5998 H6010 0.956 . S
C5998 H6011 0.961 . S
C5998 H6012 0.961 . S
C5999 C5996 1.539 . S
C5999 H6013 0.958 . S
C5999 H6014 0.961 . S
C5999 H6015 0.960 . S
H6000 C5984 0.931 . S
H6001 C5989 0.929 . S
H6002 C5990 0.960 . S
H6003 C5990 0.962 . S
H6004 C5990 0.960 . S
H6005 C5991 0.961 . S
H6006 C5991 0.961 . S
H6007 C5991 0.961 . S
H6008 C5992 0.931 . S
H6009 C5997 0.930 . S
H6010 C5998 0.956 . S
H6011 C5998 0.961 . S
H6012 C5998 0.961 . S
H6013 C5999 0.958 . S
H6014 C5999 0.961 . S
H6015 C5999 0.960 . S
C6016 C6017 1.391 . S
C6016 C6018 1.394 . S
C6016 H6032 0.931 . S
C6017 C6016 1.391 . S
C6017 C6021 1.376 . S
C6018 C6016 1.394 . S
C6018 C6019 1.369 . S
C6018 C6022 1.531 . S
C6019 C6018 1.369 . S
C6019 C6020 1.410 . S
C6019 C6027 1.503 . S
C6020 C6019 1.410 . S
C6020 C6021 1.392 . S
C6020 C6023 1.511 . S
C6021 C6017 1.376 . S
C6021 C6020 1.392 . S
C6021 H6033 0.929 . S
C6022 C6018 1.531 . S
C6022 H6034 0.960 . S
C6022 H6035 0.962 . S
C6022 H6036 0.960 . S
C6023 C6020 1.511 . S
C6023 H6037 0.961 . S
C6023 H6038 0.961 . S
C6023 H6039 0.961 . S
C6024 C6025 1.370 . S
C6024 C6026 1.363 . S
C6024 H6040 0.931 . S
C6025 C6024 1.370 . S
C6025 C6029 1.408 . S
C6026 C6024 1.363 . S
C6026 C6027 1.370 . S
C6026 C6030 1.524 . S
C6027 C6019 1.503 . S
C6027 C6026 1.370 . S
C6027 C6028 1.403 . S
C6028 C6027 1.403 . S
C6028 C6029 1.404 . S
C6028 C6031 1.539 . S
C6029 C6025 1.408 . S
C6029 C6028 1.404 . S
C6029 H6041 0.930 . S
C6030 C6026 1.524 . S
C6030 H6042 0.956 . S
C6030 H6043 0.961 . S
C6030 H6044 0.961 . S
C6031 C6028 1.539 . S
C6031 H6045 0.958 . S
C6031 H6046 0.961 . S
C6031 H6047 0.960 . S
H6032 C6016 0.931 . S
H6033 C6021 0.929 . S
H6034 C6022 0.960 . S
H6035 C6022 0.962 . S
H6036 C6022 0.960 . S
H6037 C6023 0.961 . S
H6038 C6023 0.961 . S
H6039 C6023 0.961 . S
H6040 C6024 0.931 . S
H6041 C6029 0.930 . S
H6042 C6030 0.956 . S
H6043 C6030 0.961 . S
H6044 C6030 0.961 . S
H6045 C6031 0.958 . S
H6046 C6031 0.961 . S
H6047 C6031 0.960 . S
C6048 C6049 1.391 . S
C6048 C6050 1.394 . S
C6048 H6064 0.931 . S
C6049 C6048 1.391 . S
C6049 C6053 1.376 . S
C6050 C6048 1.394 . S
C6050 C6051 1.369 . S
C6050 C6054 1.531 . S
C6051 C6050 1.369 . S
C6051 C6052 1.410 . S
C6051 C6059 1.503 . S
C6052 C6051 1.410 . S
C6052 C6053 1.392 . S
C6052 C6055 1.511 . S
C6053 C6049 1.376 . S
C6053 C6052 1.392 . S
C6053 H6065 0.929 . S
C6054 C6050 1.531 . S
C6054 H6066 0.960 . S
C6054 H6067 0.962 . S
C6054 H6068 0.960 . S
C6055 C6052 1.511 . S
C6055 H6069 0.961 . S
C6055 H6070 0.961 . S
C6055 H6071 0.961 . S
C6056 C6057 1.370 . S
C6056 C6058 1.363 . S
C6056 H6072 0.931 . S
C6057 C6056 1.370 . S
C6057 C6061 1.408 . S
C6058 C6056 1.363 . S
C6058 C6059 1.370 . S
C6058 C6062 1.524 . S
C6059 C6051 1.503 . S
C6059 C6058 1.370 . S
C6059 C6060 1.403 . S
C6060 C6059 1.403 . S
C6060 C6061 1.404 . S
C6060 C6063 1.539 . S
C6061 C6057 1.408 . S
C6061 C6060 1.404 . S
C6061 H6073 0.930 . S
C6062 C6058 1.524 . S
C6062 H6074 0.956 . S
C6062 H6075 0.961 . S
C6062 H6076 0.961 . S
C6063 C6060 1.539 . S
C6063 H6077 0.958 . S
C6063 H6078 0.961 . S
C6063 H6079 0.960 . S
H6064 C6048 0.931 . S
H6065 C6053 0.929 . S
H6066 C6054 0.960 . S
H6067 C6054 0.962 . S
H6068 C6054 0.960 . S
H6069 C6055 0.961 . S
H6070 C6055 0.961 . S
H6071 C6055 0.961 . S
H6072 C6056 0.931 . S
H6073 C6061 0.930 . S
H6074 C6062 0.956 . S
H6075 C6062 0.961 . S
H6076 C6062 0.961 . S
H6077 C6063 0.958 . S
H6078 C6063 0.961 . S
H6079 C6063 0.960 . S
C6080 C6081 1.391 . S
C6080 C6082 1.394 . S
C6080 H6096 0.931 . S
C6081 C6080 1.391 . S
C6081 C6085 1.376 . S
C6082 C6080 1.394 . S
C6082 C6083 1.369 . S
C6082 C6086 1.531 . S
C6083 C6082 1.369 . S
C6083 C6084 1.410 . S
C6083 C6091 1.503 . S
C6084 C6083 1.410 . S
C6084 C6085 1.392 . S
C6084 C6087 1.511 . S
C6085 C6081 1.376 . S
C6085 C6084 1.392 . S
C6085 H6097 0.929 . S
C6086 C6082 1.531 . S
C6086 H6098 0.960 . S
C6086 H6099 0.962 . S
C6086 H6100 0.960 . S
C6087 C6084 1.511 . S
C6087 H6101 0.961 . S
C6087 H6102 0.961 . S
C6087 H6103 0.961 . S
C6088 C6089 1.370 . S
C6088 C6090 1.363 . S
C6088 H6104 0.931 . S
C6089 C6088 1.370 . S
C6089 C6093 1.408 . S
C6090 C6088 1.363 . S
C6090 C6091 1.370 . S
C6090 C6094 1.524 . S
C6091 C6083 1.503 . S
C6091 C6090 1.370 . S
C6091 C6092 1.403 . S
C6092 C6091 1.403 . S
C6092 C6093 1.404 . S
C6092 C6095 1.539 . S
C6093 C6089 1.408 . S
C6093 C6092 1.404 . S
C6093 H6105 0.930 . S
C6094 C6090 1.524 . S
C6094 H6106 0.956 . S
C6094 H6107 0.961 . S
C6094 H6108 0.961 . S
C6095 C6092 1.539 . S
C6095 H6109 0.958 . S
C6095 H6110 0.961 . S
C6095 H6111 0.960 . S
H6096 C6080 0.931 . S
H6097 C6085 0.929 . S
H6098 C6086 0.960 . S
H6099 C6086 0.962 . S
H6100 C6086 0.960 . S
H6101 C6087 0.961 . S
H6102 C6087 0.961 . S
H6103 C6087 0.961 . S
H6104 C6088 0.931 . S
H6105 C6093 0.930 . S
H6106 C6094 0.956 . S
H6107 C6094 0.961 . S
H6108 C6094 0.961 . S
H6109 C6095 0.958 . S
H6110 C6095 0.961 . S
H6111 C6095 0.960 . S
C6112 C6113 1.391 . S
C6112 C6114 1.394 . S
C6112 H6128 0.931 . S
C6113 C6112 1.391 . S
C6113 C6117 1.376 . S
C6114 C6112 1.394 . S
C6114 C6115 1.369 . S
C6114 C6118 1.531 . S
C6115 C6114 1.369 . S
C6115 C6116 1.410 . S
C6115 C6123 1.503 . S
C6116 C6115 1.410 . S
C6116 C6117 1.392 . S
C6116 C6119 1.511 . S
C6117 C6113 1.376 . S
C6117 C6116 1.392 . S
C6117 H6129 0.929 . S
C6118 C6114 1.531 . S
C6118 H6130 0.960 . S
C6118 H6131 0.962 . S
C6118 H6132 0.960 . S
C6119 C6116 1.511 . S
C6119 H6133 0.961 . S
C6119 H6134 0.961 . S
C6119 H6135 0.961 . S
C6120 C6121 1.370 . S
C6120 C6122 1.363 . S
C6120 H6136 0.931 . S
C6121 C6120 1.370 . S
C6121 C6125 1.408 . S
C6122 C6120 1.363 . S
C6122 C6123 1.370 . S
C6122 C6126 1.524 . S
C6123 C6115 1.503 . S
C6123 C6122 1.370 . S
C6123 C6124 1.403 . S
C6124 C6123 1.403 . S
C6124 C6125 1.404 . S
C6124 C6127 1.539 . S
C6125 C6121 1.408 . S
C6125 C6124 1.404 . S
C6125 H6137 0.930 . S
C6126 C6122 1.524 . S
C6126 H6138 0.956 . S
C6126 H6139 0.961 . S
C6126 H6140 0.961 . S
C6127 C6124 1.539 . S
C6127 H6141 0.958 . S
C6127 H6142 0.961 . S
C6127 H6143 0.960 . S
H6128 C6112 0.931 . S
H6129 C6117 0.929 . S
H6130 C6118 0.960 . S
H6131 C6118 0.962 . S
H6132 C6118 0.960 . S
H6133 C6119 0.961 . S
H6134 C6119 0.961 . S
H6135 C6119 0.961 . S
H6136 C6120 0.931 . S
H6137 C6125 0.930 . S
H6138 C6126 0.956 . S
H6139 C6126 0.961 . S
H6140 C6126 0.961 . S
H6141 C6127 0.958 . S
H6142 C6127 0.961 . S
H6143 C6127 0.960 . S
C6144 C6145 1.391 . S
C6144 C6146 1.394 . S
C6144 H6160 0.931 . S
C6145 C6144 1.391 . S
C6145 C6149 1.376 . S
C6146 C6144 1.394 . S
C6146 C6147 1.369 . S
C6146 C6150 1.531 . S
C6147 C6146 1.369 . S
C6147 C6148 1.410 . S
C6147 C6155 1.503 . S
C6148 C6147 1.410 . S
C6148 C6149 1.392 . S
C6148 C6151 1.511 . S
C6149 C6145 1.376 . S
C6149 C6148 1.392 . S
C6149 H6161 0.929 . S
C6150 C6146 1.531 . S
C6150 H6162 0.960 . S
C6150 H6163 0.962 . S
C6150 H6164 0.960 . S
C6151 C6148 1.511 . S
C6151 H6165 0.961 . S
C6151 H6166 0.961 . S
C6151 H6167 0.961 . S
C6152 C6153 1.370 . S
C6152 C6154 1.363 . S
C6152 H6168 0.931 . S
C6153 C6152 1.370 . S
C6153 C6157 1.408 . S
C6154 C6152 1.363 . S
C6154 C6155 1.370 . S
C6154 C6158 1.524 . S
C6155 C6147 1.503 . S
C6155 C6154 1.370 . S
C6155 C6156 1.403 . S
C6156 C6155 1.403 . S
C6156 C6157 1.404 . S
C6156 C6159 1.539 . S
C6157 C6153 1.408 . S
C6157 C6156 1.404 . S
C6157 H6169 0.930 . S
C6158 C6154 1.524 . S
C6158 H6170 0.956 . S
C6158 H6171 0.961 . S
C6158 H6172 0.961 . S
C6159 C6156 1.539 . S
C6159 H6173 0.958 . S
C6159 H6174 0.961 . S
C6159 H6175 0.960 . S
H6160 C6144 0.931 . S
H6161 C6149 0.929 . S
H6162 C6150 0.960 . S
H6163 C6150 0.962 . S
H6164 C6150 0.960 . S
H6165 C6151 0.961 . S
H6166 C6151 0.961 . S
H6167 C6151 0.961 . S
H6168 C6152 0.931 . S
H6169 C6157 0.930 . S
H6170 C6158 0.956 . S
H6171 C6158 0.961 . S
H6172 C6158 0.961 . S
H6173 C6159 0.958 . S
H6174 C6159 0.961 . S
H6175 C6159 0.960 . S
C6176 C6177 1.391 . S
C6176 C6178 1.394 . S
C6176 H6192 0.931 . S
C6177 C6176 1.391 . S
C6177 C6181 1.376 . S
C6178 C6176 1.394 . S
C6178 C6179 1.369 . S
C6178 C6182 1.531 . S
C6179 C6178 1.369 . S
C6179 C6180 1.410 . S
C6179 C6187 1.503 . S
C6180 C6179 1.410 . S
C6180 C6181 1.392 . S
C6180 C6183 1.511 . S
C6181 C6177 1.376 . S
C6181 C6180 1.392 . S
C6181 H6193 0.929 . S
C6182 C6178 1.531 . S
C6182 H6194 0.960 . S
C6182 H6195 0.962 . S
C6182 H6196 0.960 . S
C6183 C6180 1.511 . S
C6183 H6197 0.961 . S
C6183 H6198 0.961 . S
C6183 H6199 0.961 . S
C6184 C6185 1.370 . S
C6184 C6186 1.363 . S
C6184 H6200 0.931 . S
C6185 C6184 1.370 . S
C6185 C6189 1.408 . S
C6186 C6184 1.363 . S
C6186 C6187 1.370 . S
C6186 C6190 1.524 . S
C6187 C6179 1.503 . S
C6187 C6186 1.370 . S
C6187 C6188 1.403 . S
C6188 C6187 1.403 . S
C6188 C6189 1.404 . S
C6188 C6191 1.539 . S
C6189 C6185 1.408 . S
C6189 C6188 1.404 . S
C6189 H6201 0.930 . S
C6190 C6186 1.524 . S
C6190 H6202 0.956 . S
C6190 H6203 0.961 . S
C6190 H6204 0.961 . S
C6191 C6188 1.539 . S
C6191 H6205 0.958 . S
C6191 H6206 0.961 . S
C6191 H6207 0.960 . S
H6192 C6176 0.931 . S
H6193 C6181 0.929 . S
H6194 C6182 0.960 . S
H6195 C6182 0.962 . S
H6196 C6182 0.960 . S
H6197 C6183 0.961 . S
H6198 C6183 0.961 . S
H6199 C6183 0.961 . S
H6200 C6184 0.931 . S
H6201 C6189 0.930 . S
H6202 C6190 0.956 . S
H6203 C6190 0.961 . S
H6204 C6190 0.961 . S
H6205 C6191 0.958 . S
H6206 C6191 0.961 . S
H6207 C6191 0.960 . S
C6208 C6209 1.391 . S
C6208 C6210 1.394 . S
C6208 H6224 0.931 . S
C6209 C6208 1.391 . S
C6209 C6213 1.376 . S
C6210 C6208 1.394 . S
C6210 C6211 1.369 . S
C6210 C6214 1.531 . S
C6211 C6210 1.369 . S
C6211 C6212 1.410 . S
C6211 C6219 1.503 . S
C6212 C6211 1.410 . S
C6212 C6213 1.392 . S
C6212 C6215 1.511 . S
C6213 C6209 1.376 . S
C6213 C6212 1.392 . S
C6213 H6225 0.929 . S
C6214 C6210 1.531 . S
C6214 H6226 0.960 . S
C6214 H6227 0.962 . S
C6214 H6228 0.960 . S
C6215 C6212 1.511 . S
C6215 H6229 0.961 . S
C6215 H6230 0.961 . S
C6215 H6231 0.961 . S
C6216 C6217 1.370 . S
C6216 C6218 1.363 . S
C6216 H6232 0.931 . S
C6217 C6216 1.370 . S
C6217 C6221 1.408 . S
C6218 C6216 1.363 . S
C6218 C6219 1.370 . S
C6218 C6222 1.524 . S
C6219 C6211 1.503 . S
C6219 C6218 1.370 . S
C6219 C6220 1.403 . S
C6220 C6219 1.403 . S
C6220 C6221 1.404 . S
C6220 C6223 1.539 . S
C6221 C6217 1.408 . S
C6221 C6220 1.404 . S
C6221 H6233 0.930 . S
C6222 C6218 1.524 . S
C6222 H6234 0.956 . S
C6222 H6235 0.961 . S
C6222 H6236 0.961 . S
C6223 C6220 1.539 . S
C6223 H6237 0.958 . S
C6223 H6238 0.961 . S
C6223 H6239 0.960 . S
H6224 C6208 0.931 . S
H6225 C6213 0.929 . S
H6226 C6214 0.960 . S
H6227 C6214 0.962 . S
H6228 C6214 0.960 . S
H6229 C6215 0.961 . S
H6230 C6215 0.961 . S
H6231 C6215 0.961 . S
H6232 C6216 0.931 . S
H6233 C6221 0.930 . S
H6234 C6222 0.956 . S
H6235 C6222 0.961 . S
H6236 C6222 0.961 . S
H6237 C6223 0.958 . S
H6238 C6223 0.961 . S
H6239 C6223 0.960 . S
C6240 C6241 1.391 . S
C6240 C6242 1.394 . S
C6240 H6256 0.931 . S
C6241 C6240 1.391 . S
C6241 C6245 1.376 . S
C6242 C6240 1.394 . S
C6242 C6243 1.369 . S
C6242 C6246 1.531 . S
C6243 C6242 1.369 . S
C6243 C6244 1.410 . S
C6243 C6251 1.503 . S
C6244 C6243 1.410 . S
C6244 C6245 1.392 . S
C6244 C6247 1.511 . S
C6245 C6241 1.376 . S
C6245 C6244 1.392 . S
C6245 H6257 0.929 . S
C6246 C6242 1.531 . S
C6246 H6258 0.960 . S
C6246 H6259 0.962 . S
C6246 H6260 0.960 . S
C6247 C6244 1.511 . S
C6247 H6261 0.961 . S
C6247 H6262 0.961 . S
C6247 H6263 0.961 . S
C6248 C6249 1.370 . S
C6248 C6250 1.363 . S
C6248 H6264 0.931 . S
C6249 C6248 1.370 . S
C6249 C6253 1.408 . S
C6250 C6248 1.363 . S
C6250 C6251 1.370 . S
C6250 C6254 1.524 . S
C6251 C6243 1.503 . S
C6251 C6250 1.370 . S
C6251 C6252 1.403 . S
C6252 C6251 1.403 . S
C6252 C6253 1.404 . S
C6252 C6255 1.539 . S
C6253 C6249 1.408 . S
C6253 C6252 1.404 . S
C6253 H6265 0.930 . S
C6254 C6250 1.524 . S
C6254 H6266 0.956 . S
C6254 H6267 0.961 . S
C6254 H6268 0.961 . S
C6255 C6252 1.539 . S
C6255 H6269 0.958 . S
C6255 H6270 0.961 . S
C6255 H6271 0.960 . S
H6256 C6240 0.931 . S
H6257 C6245 0.929 . S
H6258 C6246 0.960 . S
H6259 C6246 0.962 . S
H6260 C6246 0.960 . S
H6261 C6247 0.961 . S
H6262 C6247 0.961 . S
H6263 C6247 0.961 . S
H6264 C6248 0.931 . S
H6265 C6253 0.930 . S
H6266 C6254 0.956 . S
H6267 C6254 0.961 . S
H6268 C6254 0.961 . S
H6269 C6255 0.958 . S
H6270 C6255 0.961 . S
H6271 C6255 0.960 . S
C6272 C6273 1.391 . S
C6272 C6274 1.394 . S
C6272 H6288 0.931 . S
C6273 C6272 1.391 . S
C6273 C6277 1.376 . S
C6274 C6272 1.394 . S
C6274 C6275 1.369 . S
C6274 C6278 1.531 . S
C6275 C6274 1.369 . S
C6275 C6276 1.410 . S
C6275 C6283 1.503 . S
C6276 C6275 1.410 . S
C6276 C6277 1.392 . S
C6276 C6279 1.511 . S
C6277 C6273 1.376 . S
C6277 C6276 1.392 . S
C6277 H6289 0.929 . S
C6278 C6274 1.531 . S
C6278 H6290 0.960 . S
C6278 H6291 0.962 . S
C6278 H6292 0.960 . S
C6279 C6276 1.511 . S
C6279 H6293 0.961 . S
C6279 H6294 0.961 . S
C6279 H6295 0.961 . S
C6280 C6281 1.370 . S
C6280 C6282 1.363 . S
C6280 H6296 0.931 . S
C6281 C6280 1.370 . S
C6281 C6285 1.408 . S
C6282 C6280 1.363 . S
C6282 C6283 1.370 . S
C6282 C6286 1.524 . S
C6283 C6275 1.503 . S
C6283 C6282 1.370 . S
C6283 C6284 1.403 . S
C6284 C6283 1.403 . S
C6284 C6285 1.404 . S
C6284 C6287 1.539 . S
C6285 C6281 1.408 . S
C6285 C6284 1.404 . S
C6285 H6297 0.930 . S
C6286 C6282 1.524 . S
C6286 H6298 0.956 . S
C6286 H6299 0.961 . S
C6286 H6300 0.961 . S
C6287 C6284 1.539 . S
C6287 H6301 0.958 . S
C6287 H6302 0.961 . S
C6287 H6303 0.960 . S
H6288 C6272 0.931 . S
H6289 C6277 0.929 . S
H6290 C6278 0.960 . S
H6291 C6278 0.962 . S
H6292 C6278 0.960 . S
H6293 C6279 0.961 . S
H6294 C6279 0.961 . S
H6295 C6279 0.961 . S
H6296 C6280 0.931 . S
H6297 C6285 0.930 . S
H6298 C6286 0.956 . S
H6299 C6286 0.961 . S
H6300 C6286 0.961 . S
H6301 C6287 0.958 . S
H6302 C6287 0.961 . S
H6303 C6287 0.960 . S
C6304 C6305 1.391 . S
C6304 C6306 1.394 . S
C6304 H6320 0.931 . S
C6305 C6304 1.391 . S
C6305 C6309 1.376 . S
C6306 C6304 1.394 . S
C6306 C6307 1.369 . S
C6306 C6310 1.531 . S
C6307 C6306 1.369 . S
C6307 C6308 1.410 . S
C6307 C6315 1.503 . S
C6308 C6307 1.410 . S
C6308 C6309 1.392 . S
C6308 C6311 1.511 . S
C6309 C6305 1.376 . S
C6309 C6308 1.392 . S
C6309 H6321 0.929 . S
C6310 C6306 1.531 . S
C6310 H6322 0.960 . S
C6310 H6323 0.962 . S
C6310 H6324 0.960 . S
C6311 C6308 1.511 . S
C6311 H6325 0.961 . S
C6311 H6326 0.961 . S
C6311 H6327 0.961 . S
C6312 C6313 1.370 . S
C6312 C6314 1.363 . S
C6312 H6328 0.931 . S
C6313 C6312 1.370 . S
C6313 C6317 1.408 . S
C6314 C6312 1.363 . S
C6314 C6315 1.370 . S
C6314 C6318 1.524 . S
C6315 C6307 1.503 . S
C6315 C6314 1.370 . S
C6315 C6316 1.403 . S
C6316 C6315 1.403 . S
C6316 C6317 1.404 . S
C6316 C6319 1.539 . S
C6317 C6313 1.408 . S
C6317 C6316 1.404 . S
C6317 H6329 0.930 . S
C6318 C6314 1.524 . S
C6318 H6330 0.956 . S
C6318 H6331 0.961 . S
C6318 H6332 0.961 . S
C6319 C6316 1.539 . S
C6319 H6333 0.958 . S
C6319 H6334 0.961 . S
C6319 H6335 0.960 . S
H6320 C6304 0.931 . S
H6321 C6309 0.929 . S
H6322 C6310 0.960 . S
H6323 C6310 0.962 . S
H6324 C6310 0.960 . S
H6325 C6311 0.961 . S
H6326 C6311 0.961 . S
H6327 C6311 0.961 . S
H6328 C6312 0.931 . S
H6329 C6317 0.930 . S
H6330 C6318 0.956 . S
H6331 C6318 0.961 . S
H6332 C6318 0.961 . S
H6333 C6319 0.958 . S
H6334 C6319 0.961 . S
H6335 C6319 0.960 . S
C6336 C6337 1.391 . S
C6336 C6338 1.394 . S
C6336 H6352 0.931 . S
C6337 C6336 1.391 . S
C6337 C6341 1.376 . S
C6338 C6336 1.394 . S
C6338 C6339 1.369 . S
C6338 C6342 1.531 . S
C6339 C6338 1.369 . S
C6339 C6340 1.410 . S
C6339 C6347 1.503 . S
C6340 C6339 1.410 . S
C6340 C6341 1.392 . S
C6340 C6343 1.511 . S
C6341 C6337 1.376 . S
C6341 C6340 1.392 . S
C6341 H6353 0.929 . S
C6342 C6338 1.531 . S
C6342 H6354 0.960 . S
C6342 H6355 0.962 . S
C6342 H6356 0.960 . S
C6343 C6340 1.511 . S
C6343 H6357 0.961 . S
C6343 H6358 0.961 . S
C6343 H6359 0.961 . S
C6344 C6345 1.370 . S
C6344 C6346 1.363 . S
C6344 H6360 0.931 . S
C6345 C6344 1.370 . S
C6345 C6349 1.408 . S
C6346 C6344 1.363 . S
C6346 C6347 1.370 . S
C6346 C6350 1.524 . S
C6347 C6339 1.503 . S
C6347 C6346 1.370 . S
C6347 C6348 1.403 . S
C6348 C6347 1.403 . S
C6348 C6349 1.404 . S
C6348 C6351 1.539 . S
C6349 C6345 1.408 . S
C6349 C6348 1.404 . S
C6349 H6361 0.930 . S
C6350 C6346 1.524 . S
C6350 H6362 0.956 . S
C6350 H6363 0.961 . S
C6350 H6364 0.961 . S
C6351 C6348 1.539 . S
C6351 H6365 0.958 . S
C6351 H6366 0.961 . S
C6351 H6367 0.960 . S
H6352 C6336 0.931 . S
H6353 C6341 0.929 . S
H6354 C6342 0.960 . S
H6355 C6342 0.962 . S
H6356 C6342 0.960 . S
H6357 C6343 0.961 . S
H6358 C6343 0.961 . S
H6359 C6343 0.961 . S
H6360 C6344 0.931 . S
H6361 C6349 0.930 . S
H6362 C6350 0.956 . S
H6363 C6350 0.961 . S
H6364 C6350 0.961 . S
H6365 C6351 0.958 . S
H6366 C6351 0.961 . S
H6367 C6351 0.960 . S
C6368 C6369 1.391 . S
C6368 C6370 1.394 . S
C6368 H6384 0.931 . S
C6369 C6368 1.391 . S
C6369 C6373 1.376 . S
C6370 C6368 1.394 . S
C6370 C6371 1.369 . S
C6370 C6374 1.531 . S
C6371 C6370 1.369 . S
C6371 C6372 1.410 . S
C6371 C6379 1.503 . S
C6372 C6371 1.410 . S
C6372 C6373 1.392 . S
C6372 C6375 1.511 . S
C6373 C6369 1.376 . S
C6373 C6372 1.392 . S
C6373 H6385 0.929 . S
C6374 C6370 1.531 . S
C6374 H6386 0.960 . S
C6374 H6387 0.962 . S
C6374 H6388 0.960 . S
C6375 C6372 1.511 . S
C6375 H6389 0.961 . S
C6375 H6390 0.961 . S
C6375 H6391 0.961 . S
C6376 C6377 1.370 . S
C6376 C6378 1.363 . S
C6376 H6392 0.931 . S
C6377 C6376 1.370 . S
C6377 C6381 1.408 . S
C6378 C6376 1.363 . S
C6378 C6379 1.370 . S
C6378 C6382 1.524 . S
C6379 C6371 1.503 . S
C6379 C6378 1.370 . S
C6379 C6380 1.403 . S
C6380 C6379 1.403 . S
C6380 C6381 1.404 . S
C6380 C6383 1.539 . S
C6381 C6377 1.408 . S
C6381 C6380 1.404 . S
C6381 H6393 0.930 . S
C6382 C6378 1.524 . S
C6382 H6394 0.956 . S
C6382 H6395 0.961 . S
C6382 H6396 0.961 . S
C6383 C6380 1.539 . S
C6383 H6397 0.958 . S
C6383 H6398 0.961 . S
C6383 H6399 0.960 . S
H6384 C6368 0.931 . S
H6385 C6373 0.929 . S
H6386 C6374 0.960 . S
H6387 C6374 0.962 . S
H6388 C6374 0.960 . S
H6389 C6375 0.961 . S
H6390 C6375 0.961 . S
H6391 C6375 0.961 . S
H6392 C6376 0.931 . S
H6393 C6381 0.930 . S
H6394 C6382 0.956 . S
H6395 C6382 0.961 . S
H6396 C6382 0.961 . S
H6397 C6383 0.958 . S
H6398 C6383 0.961 . S
H6399 C6383 0.960 . S
C6400 C6401 1.391 . S
C6400 C6402 1.394 . S
C6400 H6416 0.931 . S
C6401 C6400 1.391 . S
C6401 C6405 1.376 . S
C6402 C6400 1.394 . S
C6402 C6403 1.369 . S
C6402 C6406 1.531 . S
C6403 C6402 1.369 . S
C6403 C6404 1.410 . S
C6403 C6411 1.503 . S
C6404 C6403 1.410 . S
C6404 C6405 1.392 . S
C6404 C6407 1.511 . S
C6405 C6401 1.376 . S
C6405 C6404 1.392 . S
C6405 H6417 0.929 . S
C6406 C6402 1.531 . S
C6406 H6418 0.960 . S
C6406 H6419 0.962 . S
C6406 H6420 0.960 . S
C6407 C6404 1.511 . S
C6407 H6421 0.961 . S
C6407 H6422 0.961 . S
C6407 H6423 0.961 . S
C6408 C6409 1.370 . S
C6408 C6410 1.363 . S
C6408 H6424 0.931 . S
C6409 C6408 1.370 . S
C6409 C6413 1.408 . S
C6410 C6408 1.363 . S
C6410 C6411 1.370 . S
C6410 C6414 1.524 . S
C6411 C6403 1.503 . S
C6411 C6410 1.370 . S
C6411 C6412 1.403 . S
C6412 C6411 1.403 . S
C6412 C6413 1.404 . S
C6412 C6415 1.539 . S
C6413 C6409 1.408 . S
C6413 C6412 1.404 . S
C6413 H6425 0.930 . S
C6414 C6410 1.524 . S
C6414 H6426 0.956 . S
C6414 H6427 0.961 . S
C6414 H6428 0.961 . S
C6415 C6412 1.539 . S
C6415 H6429 0.958 . S
C6415 H6430 0.961 . S
C6415 H6431 0.960 . S
H6416 C6400 0.931 . S
H6417 C6405 0.929 . S
H6418 C6406 0.960 . S
H6419 C6406 0.962 . S
H6420 C6406 0.960 . S
H6421 C6407 0.961 . S
H6422 C6407 0.961 . S
H6423 C6407 0.961 . S
H6424 C6408 0.931 . S
H6425 C6413 0.930 . S
H6426 C6414 0.956 . S
H6427 C6414 0.961 . S
H6428 C6414 0.961 . S
H6429 C6415 0.958 . S
H6430 C6415 0.961 . S
H6431 C6415 0.960 . S
C6432 C6433 1.391 . S
C6432 C6434 1.394 . S
C6432 H6448 0.931 . S
C6433 C6432 1.391 . S
C6433 C6437 1.376 . S
C6434 C6432 1.394 . S
C6434 C6435 1.369 . S
C6434 C6438 1.531 . S
C6435 C6434 1.369 . S
C6435 C6436 1.410 . S
C6435 C6443 1.503 . S
C6436 C6435 1.410 . S
C6436 C6437 1.392 . S
C6436 C6439 1.511 . S
C6437 C6433 1.376 . S
C6437 C6436 1.392 . S
C6437 H6449 0.929 . S
C6438 C6434 1.531 . S
C6438 H6450 0.960 . S
C6438 H6451 0.962 . S
C6438 H6452 0.960 . S
C6439 C6436 1.511 . S
C6439 H6453 0.961 . S
C6439 H6454 0.961 . S
C6439 H6455 0.961 . S
C6440 C6441 1.370 . S
C6440 C6442 1.363 . S
C6440 H6456 0.931 . S
C6441 C6440 1.370 . S
C6441 C6445 1.408 . S
C6442 C6440 1.363 . S
C6442 C6443 1.370 . S
C6442 C6446 1.524 . S
C6443 C6435 1.503 . S
C6443 C6442 1.370 . S
C6443 C6444 1.403 . S
C6444 C6443 1.403 . S
C6444 C6445 1.404 . S
C6444 C6447 1.539 . S
C6445 C6441 1.408 . S
C6445 C6444 1.404 . S
C6445 H6457 0.930 . S
C6446 C6442 1.524 . S
C6446 H6458 0.956 . S
C6446 H6459 0.961 . S
C6446 H6460 0.961 . S
C6447 C6444 1.539 . S
C6447 H6461 0.958 . S
C6447 H6462 0.961 . S
C6447 H6463 0.960 . S
H6448 C6432 0.931 . S
H6449 C6437 0.929 . S
H6450 C6438 0.960 . S
H6451 C6438 0.962 . S
H6452 C6438 0.960 . S
H6453 C6439 0.961 . S
H6454 C6439 0.961 . S
H6455 C6439 0.961 . S
H6456 C6440 0.931 . S
H6457 C6445 0.930 . S
H6458 C6446 0.956 . S
H6459 C6446 0.961 . S
H6460 C6446 0.961 . S
H6461 C6447 0.958 . S
H6462 C6447 0.961 . S
H6463 C6447 0.960 . S
C6464 C6465 1.391 . S
C6464 C6466 1.394 . S
C6464 H6480 0.931 . S
C6465 C6464 1.391 . S
C6465 C6469 1.376 . S
C6466 C6464 1.394 . S
C6466 C6467 1.369 . S
C6466 C6470 1.531 . S
C6467 C6466 1.369 . S
C6467 C6468 1.410 . S
C6467 C6475 1.503 . S
C6468 C6467 1.410 . S
C6468 C6469 1.392 . S
C6468 C6471 1.511 . S
C6469 C6465 1.376 . S
C6469 C6468 1.392 . S
C6469 H6481 0.929 . S
C6470 C6466 1.531 . S
C6470 H6482 0.960 . S
C6470 H6483 0.962 . S
C6470 H6484 0.960 . S
C6471 C6468 1.511 . S
C6471 H6485 0.961 . S
C6471 H6486 0.961 . S
C6471 H6487 0.961 . S
C6472 C6473 1.370 . S
C6472 C6474 1.363 . S
C6472 H6488 0.931 . S
C6473 C6472 1.370 . S
C6473 C6477 1.408 . S
C6474 C6472 1.363 . S
C6474 C6475 1.370 . S
C6474 C6478 1.524 . S
C6475 C6467 1.503 . S
C6475 C6474 1.370 . S
C6475 C6476 1.403 . S
C6476 C6475 1.403 . S
C6476 C6477 1.404 . S
C6476 C6479 1.539 . S
C6477 C6473 1.408 . S
C6477 C6476 1.404 . S
C6477 H6489 0.930 . S
C6478 C6474 1.524 . S
C6478 H6490 0.956 . S
C6478 H6491 0.961 . S
C6478 H6492 0.961 . S
C6479 C6476 1.539 . S
C6479 H6493 0.958 . S
C6479 H6494 0.961 . S
C6479 H6495 0.960 . S
H6480 C6464 0.931 . S
H6481 C6469 0.929 . S
H6482 C6470 0.960 . S
H6483 C6470 0.962 . S
H6484 C6470 0.960 . S
H6485 C6471 0.961 . S
H6486 C6471 0.961 . S
H6487 C6471 0.961 . S
H6488 C6472 0.931 . S
H6489 C6477 0.930 . S
H6490 C6478 0.956 . S
H6491 C6478 0.961 . S
H6492 C6478 0.961 . S
H6493 C6479 0.958 . S
H6494 C6479 0.961 . S
H6495 C6479 0.960 . S
C6496 C6497 1.391 . S
C6496 C6498 1.394 . S
C6496 H6512 0.931 . S
C6497 C6496 1.391 . S
C6497 C6501 1.376 . S
C6498 C6496 1.394 . S
C6498 C6499 1.369 . S
C6498 C6502 1.531 . S
C6499 C6498 1.369 . S
C6499 C6500 1.410 . S
C6499 C6507 1.503 . S
C6500 C6499 1.410 . S
C6500 C6501 1.392 . S
C6500 C6503 1.511 . S
C6501 C6497 1.376 . S
C6501 C6500 1.392 . S
C6501 H6513 0.929 . S
C6502 C6498 1.531 . S
C6502 H6514 0.960 . S
C6502 H6515 0.962 . S
C6502 H6516 0.960 . S
C6503 C6500 1.511 . S
C6503 H6517 0.961 . S
C6503 H6518 0.961 . S
C6503 H6519 0.961 . S
C6504 C6505 1.370 . S
C6504 C6506 1.363 . S
C6504 H6520 0.931 . S
C6505 C6504 1.370 . S
C6505 C6509 1.408 . S
C6506 C6504 1.363 . S
C6506 C6507 1.370 . S
C6506 C6510 1.524 . S
C6507 C6499 1.503 . S
C6507 C6506 1.370 . S
C6507 C6508 1.403 . S
C6508 C6507 1.403 . S
C6508 C6509 1.404 . S
C6508 C6511 1.539 . S
C6509 C6505 1.408 . S
C6509 C6508 1.404 . S
C6509 H6521 0.930 . S
C6510 C6506 1.524 . S
C6510 H6522 0.956 . S
C6510 H6523 0.961 . S
C6510 H6524 0.961 . S
C6511 C6508 1.539 . S
C6511 H6525 0.958 . S
C6511 H6526 0.961 . S
C6511 H6527 0.960 . S
H6512 C6496 0.931 . S
H6513 C6501 0.929 . S
H6514 C6502 0.960 . S
H6515 C6502 0.962 . S
H6516 C6502 0.960 . S
H6517 C6503 0.961 . S
H6518 C6503 0.961 . S
H6519 C6503 0.961 . S
H6520 C6504 0.931 . S
H6521 C6509 0.930 . S
H6522 C6510 0.956 . S
H6523 C6510 0.961 . S
H6524 C6510 0.961 . S
H6525 C6511 0.958 . S
H6526 C6511 0.961 . S
H6527 C6511 0.960 . S
C6528 C6529 1.391 . S
C6528 C6530 1.394 . S
C6528 H6544 0.931 . S
C6529 C6528 1.391 . S
C6529 C6533 1.376 . S
C6530 C6528 1.394 . S
C6530 C6531 1.369 . S
C6530 C6534 1.531 . S
C6531 C6530 1.369 . S
C6531 C6532 1.410 . S
C6531 C6539 1.503 . S
C6532 C6531 1.410 . S
C6532 C6533 1.392 . S
C6532 C6535 1.511 . S
C6533 C6529 1.376 . S
C6533 C6532 1.392 . S
C6533 H6545 0.929 . S
C6534 C6530 1.531 . S
C6534 H6546 0.960 . S
C6534 H6547 0.962 . S
C6534 H6548 0.960 . S
C6535 C6532 1.511 . S
C6535 H6549 0.961 . S
C6535 H6550 0.961 . S
C6535 H6551 0.961 . S
C6536 C6537 1.370 . S
C6536 C6538 1.363 . S
C6536 H6552 0.931 . S
C6537 C6536 1.370 . S
C6537 C6541 1.408 . S
C6538 C6536 1.363 . S
C6538 C6539 1.370 . S
C6538 C6542 1.524 . S
C6539 C6531 1.503 . S
C6539 C6538 1.370 . S
C6539 C6540 1.403 . S
C6540 C6539 1.403 . S
C6540 C6541 1.404 . S
C6540 C6543 1.539 . S
C6541 C6537 1.408 . S
C6541 C6540 1.404 . S
C6541 H6553 0.930 . S
C6542 C6538 1.524 . S
C6542 H6554 0.956 . S
C6542 H6555 0.961 . S
C6542 H6556 0.961 . S
C6543 C6540 1.539 . S
C6543 H6557 0.958 . S
C6543 H6558 0.961 . S
C6543 H6559 0.960 . S
H6544 C6528 0.931 . S
H6545 C6533 0.929 . S
H6546 C6534 0.960 . S
H6547 C6534 0.962 . S
H6548 C6534 0.960 . S
H6549 C6535 0.961 . S
H6550 C6535 0.961 . S
H6551 C6535 0.961 . S
H6552 C6536 0.931 . S
H6553 C6541 0.930 . S
H6554 C6542 0.956 . S
H6555 C6542 0.961 . S
H6556 C6542 0.961 . S
H6557 C6543 0.958 . S
H6558 C6543 0.961 . S
H6559 C6543 0.960 . S
C6560 C6561 1.391 . S
C6560 C6562 1.394 . S
C6560 H6576 0.931 . S
C6561 C6560 1.391 . S
C6561 C6565 1.376 . S
C6562 C6560 1.394 . S
C6562 C6563 1.369 . S
C6562 C6566 1.531 . S
C6563 C6562 1.369 . S
C6563 C6564 1.410 . S
C6563 C6571 1.503 . S
C6564 C6563 1.410 . S
C6564 C6565 1.392 . S
C6564 C6567 1.511 . S
C6565 C6561 1.376 . S
C6565 C6564 1.392 . S
C6565 H6577 0.929 . S
C6566 C6562 1.531 . S
C6566 H6578 0.960 . S
C6566 H6579 0.962 . S
C6566 H6580 0.960 . S
C6567 C6564 1.511 . S
C6567 H6581 0.961 . S
C6567 H6582 0.961 . S
C6567 H6583 0.961 . S
C6568 C6569 1.370 . S
C6568 C6570 1.363 . S
C6568 H6584 0.931 . S
C6569 C6568 1.370 . S
C6569 C6573 1.408 . S
C6570 C6568 1.363 . S
C6570 C6571 1.370 . S
C6570 C6574 1.524 . S
C6571 C6563 1.503 . S
C6571 C6570 1.370 . S
C6571 C6572 1.403 . S
C6572 C6571 1.403 . S
C6572 C6573 1.404 . S
C6572 C6575 1.539 . S
C6573 C6569 1.408 . S
C6573 C6572 1.404 . S
C6573 H6585 0.930 . S
C6574 C6570 1.524 . S
C6574 H6586 0.956 . S
C6574 H6587 0.961 . S
C6574 H6588 0.961 . S
C6575 C6572 1.539 . S
C6575 H6589 0.958 . S
C6575 H6590 0.961 . S
C6575 H6591 0.960 . S
H6576 C6560 0.931 . S
H6577 C6565 0.929 . S
H6578 C6566 0.960 . S
H6579 C6566 0.962 . S
H6580 C6566 0.960 . S
H6581 C6567 0.961 . S
H6582 C6567 0.961 . S
H6583 C6567 0.961 . S
H6584 C6568 0.931 . S
H6585 C6573 0.930 . S
H6586 C6574 0.956 . S
H6587 C6574 0.961 . S
H6588 C6574 0.961 . S
H6589 C6575 0.958 . S
H6590 C6575 0.961 . S
H6591 C6575 0.960 . S
C6592 C6593 1.391 . S
C6592 C6594 1.394 . S
C6592 H6608 0.931 . S
C6593 C6592 1.391 . S
C6593 C6597 1.376 . S
C6594 C6592 1.394 . S
C6594 C6595 1.369 . S
C6594 C6598 1.531 . S
C6595 C6594 1.369 . S
C6595 C6596 1.410 . S
C6595 C6603 1.503 . S
C6596 C6595 1.410 . S
C6596 C6597 1.392 . S
C6596 C6599 1.511 . S
C6597 C6593 1.376 . S
C6597 C6596 1.392 . S
C6597 H6609 0.929 . S
C6598 C6594 1.531 . S
C6598 H6610 0.960 . S
C6598 H6611 0.962 . S
C6598 H6612 0.960 . S
C6599 C6596 1.511 . S
C6599 H6613 0.961 . S
C6599 H6614 0.961 . S
C6599 H6615 0.961 . S
C6600 C6601 1.370 . S
C6600 C6602 1.363 . S
C6600 H6616 0.931 . S
C6601 C6600 1.370 . S
C6601 C6605 1.408 . S
C6602 C6600 1.363 . S
C6602 C6603 1.370 . S
C6602 C6606 1.524 . S
C6603 C6595 1.503 . S
C6603 C6602 1.370 . S
C6603 C6604 1.403 . S
C6604 C6603 1.403 . S
C6604 C6605 1.404 . S
C6604 C6607 1.539 . S
C6605 C6601 1.408 . S
C6605 C6604 1.404 . S
C6605 H6617 0.930 . S
C6606 C6602 1.524 . S
C6606 H6618 0.956 . S
C6606 H6619 0.961 . S
C6606 H6620 0.961 . S
C6607 C6604 1.539 . S
C6607 H6621 0.958 . S
C6607 H6622 0.961 . S
C6607 H6623 0.960 . S
H6608 C6592 0.931 . S
H6609 C6597 0.929 . S
H6610 C6598 0.960 . S
H6611 C6598 0.962 . S
H6612 C6598 0.960 . S
H6613 C6599 0.961 . S
H6614 C6599 0.961 . S
H6615 C6599 0.961 . S
H6616 C6600 0.931 . S
H6617 C6605 0.930 . S
H6618 C6606 0.956 . S
H6619 C6606 0.961 . S
H6620 C6606 0.961 . S
H6621 C6607 0.958 . S
H6622 C6607 0.961 . S
H6623 C6607 0.960 . S
C6624 C6625 1.391 . S
C6624 C6626 1.394 . S
C6624 H6640 0.931 . S
C6625 C6624 1.391 . S
C6625 C6629 1.376 . S
C6626 C6624 1.394 . S
C6626 C6627 1.369 . S
C6626 C6630 1.531 . S
C6627 C6626 1.369 . S
C6627 C6628 1.410 . S
C6627 C6635 1.503 . S
C6628 C6627 1.410 . S
C6628 C6629 1.392 . S
C6628 C6631 1.511 . S
C6629 C6625 1.376 . S
C6629 C6628 1.392 . S
C6629 H6641 0.929 . S
C6630 C6626 1.531 . S
C6630 H6642 0.960 . S
C6630 H6643 0.962 . S
C6630 H6644 0.960 . S
C6631 C6628 1.511 . S
C6631 H6645 0.961 . S
C6631 H6646 0.961 . S
C6631 H6647 0.961 . S
C6632 C6633 1.370 . S
C6632 C6634 1.363 . S
C6632 H6648 0.931 . S
C6633 C6632 1.370 . S
C6633 C6637 1.408 . S
C6634 C6632 1.363 . S
C6634 C6635 1.370 . S
C6634 C6638 1.524 . S
C6635 C6627 1.503 . S
C6635 C6634 1.370 . S
C6635 C6636 1.403 . S
C6636 C6635 1.403 . S
C6636 C6637 1.404 . S
C6636 C6639 1.539 . S
C6637 C6633 1.408 . S
C6637 C6636 1.404 . S
C6637 H6649 0.930 . S
C6638 C6634 1.524 . S
C6638 H6650 0.956 . S
C6638 H6651 0.961 . S
C6638 H6652 0.961 . S
C6639 C6636 1.539 . S
C6639 H6653 0.958 . S
C6639 H6654 0.961 . S
C6639 H6655 0.960 . S
H6640 C6624 0.931 . S
H6641 C6629 0.929 . S
H6642 C6630 0.960 . S
H6643 C6630 0.962 . S
H6644 C6630 0.960 . S
H6645 C6631 0.961 . S
H6646 C6631 0.961 . S
H6647 C6631 0.961 . S
H6648 C6632 0.931 . S
H6649 C6637 0.930 . S
H6650 C6638 0.956 . S
H6651 C6638 0.961 . S
H6652 C6638 0.961 . S
H6653 C6639 0.958 . S
H6654 C6639 0.961 . S
H6655 C6639 0.960 . S
C6656 C6657 1.391 . S
C6656 C6658 1.394 . S
C6656 H6672 0.931 . S
C6657 C6656 1.391 . S
C6657 C6661 1.376 . S
C6658 C6656 1.394 . S
C6658 C6659 1.369 . S
C6658 C6662 1.531 . S
C6659 C6658 1.369 . S
C6659 C6660 1.410 . S
C6659 C6667 1.503 . S
C6660 C6659 1.410 . S
C6660 C6661 1.392 . S
C6660 C6663 1.511 . S
C6661 C6657 1.376 . S
C6661 C6660 1.392 . S
C6661 H6673 0.929 . S
C6662 C6658 1.531 . S
C6662 H6674 0.960 . S
C6662 H6675 0.962 . S
C6662 H6676 0.960 . S
C6663 C6660 1.511 . S
C6663 H6677 0.961 . S
C6663 H6678 0.961 . S
C6663 H6679 0.961 . S
C6664 C6665 1.370 . S
C6664 C6666 1.363 . S
C6664 H6680 0.931 . S
C6665 C6664 1.370 . S
C6665 C6669 1.408 . S
C6666 C6664 1.363 . S
C6666 C6667 1.370 . S
C6666 C6670 1.524 . S
C6667 C6659 1.503 . S
C6667 C6666 1.370 . S
C6667 C6668 1.403 . S
C6668 C6667 1.403 . S
C6668 C6669 1.404 . S
C6668 C6671 1.539 . S
C6669 C6665 1.408 . S
C6669 C6668 1.404 . S
C6669 H6681 0.930 . S
C6670 C6666 1.524 . S
C6670 H6682 0.956 . S
C6670 H6683 0.961 . S
C6670 H6684 0.961 . S
C6671 C6668 1.539 . S
C6671 H6685 0.958 . S
C6671 H6686 0.961 . S
C6671 H6687 0.960 . S
H6672 C6656 0.931 . S
H6673 C6661 0.929 . S
H6674 C6662 0.960 . S
H6675 C6662 0.962 . S
H6676 C6662 0.960 . S
H6677 C6663 0.961 . S
H6678 C6663 0.961 . S
H6679 C6663 0.961 . S
H6680 C6664 0.931 . S
H6681 C6669 0.930 . S
H6682 C6670 0.956 . S
H6683 C6670 0.961 . S
H6684 C6670 0.961 . S
H6685 C6671 0.958 . S
H6686 C6671 0.961 . S
H6687 C6671 0.960 . S
C6688 C6689 1.391 . S
C6688 C6690 1.394 . S
C6688 H6704 0.931 . S
C6689 C6688 1.391 . S
C6689 C6693 1.376 . S
C6690 C6688 1.394 . S
C6690 C6691 1.369 . S
C6690 C6694 1.531 . S
C6691 C6690 1.369 . S
C6691 C6692 1.410 . S
C6691 C6699 1.503 . S
C6692 C6691 1.410 . S
C6692 C6693 1.392 . S
C6692 C6695 1.511 . S
C6693 C6689 1.376 . S
C6693 C6692 1.392 . S
C6693 H6705 0.929 . S
C6694 C6690 1.531 . S
C6694 H6706 0.960 . S
C6694 H6707 0.962 . S
C6694 H6708 0.960 . S
C6695 C6692 1.511 . S
C6695 H6709 0.961 . S
C6695 H6710 0.961 . S
C6695 H6711 0.961 . S
C6696 C6697 1.370 . S
C6696 C6698 1.363 . S
C6696 H6712 0.931 . S
C6697 C6696 1.370 . S
C6697 C6701 1.408 . S
C6698 C6696 1.363 . S
C6698 C6699 1.370 . S
C6698 C6702 1.524 . S
C6699 C6691 1.503 . S
C6699 C6698 1.370 . S
C6699 C6700 1.403 . S
C6700 C6699 1.403 . S
C6700 C6701 1.404 . S
C6700 C6703 1.539 . S
C6701 C6697 1.408 . S
C6701 C6700 1.404 . S
C6701 H6713 0.930 . S
C6702 C6698 1.524 . S
C6702 H6714 0.956 . S
C6702 H6715 0.961 . S
C6702 H6716 0.961 . S
C6703 C6700 1.539 . S
C6703 H6717 0.958 . S
C6703 H6718 0.961 . S
C6703 H6719 0.960 . S
H6704 C6688 0.931 . S
H6705 C6693 0.929 . S
H6706 C6694 0.960 . S
H6707 C6694 0.962 . S
H6708 C6694 0.960 . S
H6709 C6695 0.961 . S
H6710 C6695 0.961 . S
H6711 C6695 0.961 . S
H6712 C6696 0.931 . S
H6713 C6701 0.930 . S
H6714 C6702 0.956 . S
H6715 C6702 0.961 . S
H6716 C6702 0.961 . S
H6717 C6703 0.958 . S
H6718 C6703 0.961 . S
H6719 C6703 0.960 . S
C6720 C6721 1.391 . S
C6720 C6722 1.394 . S
C6720 H6736 0.931 . S
C6721 C6720 1.391 . S
C6721 C6725 1.376 . S
C6722 C6720 1.394 . S
C6722 C6723 1.369 . S
C6722 C6726 1.531 . S
C6723 C6722 1.369 . S
C6723 C6724 1.410 . S
C6723 C6731 1.503 . S
C6724 C6723 1.410 . S
C6724 C6725 1.392 . S
C6724 C6727 1.511 . S
C6725 C6721 1.376 . S
C6725 C6724 1.392 . S
C6725 H6737 0.929 . S
C6726 C6722 1.531 . S
C6726 H6738 0.960 . S
C6726 H6739 0.962 . S
C6726 H6740 0.960 . S
C6727 C6724 1.511 . S
C6727 H6741 0.961 . S
C6727 H6742 0.961 . S
C6727 H6743 0.961 . S
C6728 C6729 1.370 . S
C6728 C6730 1.363 . S
C6728 H6744 0.931 . S
C6729 C6728 1.370 . S
C6729 C6733 1.408 . S
C6730 C6728 1.363 . S
C6730 C6731 1.370 . S
C6730 C6734 1.524 . S
C6731 C6723 1.503 . S
C6731 C6730 1.370 . S
C6731 C6732 1.403 . S
C6732 C6731 1.403 . S
C6732 C6733 1.404 . S
C6732 C6735 1.539 . S
C6733 C6729 1.408 . S
C6733 C6732 1.404 . S
C6733 H6745 0.930 . S
C6734 C6730 1.524 . S
C6734 H6746 0.956 . S
C6734 H6747 0.961 . S
C6734 H6748 0.961 . S
C6735 C6732 1.539 . S
C6735 H6749 0.958 . S
C6735 H6750 0.961 . S
C6735 H6751 0.960 . S
H6736 C6720 0.931 . S
H6737 C6725 0.929 . S
H6738 C6726 0.960 . S
H6739 C6726 0.962 . S
H6740 C6726 0.960 . S
H6741 C6727 0.961 . S
H6742 C6727 0.961 . S
H6743 C6727 0.961 . S
H6744 C6728 0.931 . S
H6745 C6733 0.930 . S
H6746 C6734 0.956 . S
H6747 C6734 0.961 . S
H6748 C6734 0.961 . S
H6749 C6735 0.958 . S
H6750 C6735 0.961 . S
H6751 C6735 0.960 . S
C6752 C6753 1.391 . S
C6752 C6754 1.394 . S
C6752 H6768 0.931 . S
C6753 C6752 1.391 . S
C6753 C6757 1.376 . S
C6754 C6752 1.394 . S
C6754 C6755 1.369 . S
C6754 C6758 1.531 . S
C6755 C6754 1.369 . S
C6755 C6756 1.410 . S
C6755 C6763 1.503 . S
C6756 C6755 1.410 . S
C6756 C6757 1.392 . S
C6756 C6759 1.511 . S
C6757 C6753 1.376 . S
C6757 C6756 1.392 . S
C6757 H6769 0.929 . S
C6758 C6754 1.531 . S
C6758 H6770 0.960 . S
C6758 H6771 0.962 . S
C6758 H6772 0.960 . S
C6759 C6756 1.511 . S
C6759 H6773 0.961 . S
C6759 H6774 0.961 . S
C6759 H6775 0.961 . S
C6760 C6761 1.370 . S
C6760 C6762 1.363 . S
C6760 H6776 0.931 . S
C6761 C6760 1.370 . S
C6761 C6765 1.408 . S
C6762 C6760 1.363 . S
C6762 C6763 1.370 . S
C6762 C6766 1.524 . S
C6763 C6755 1.503 . S
C6763 C6762 1.370 . S
C6763 C6764 1.403 . S
C6764 C6763 1.403 . S
C6764 C6765 1.404 . S
C6764 C6767 1.539 . S
C6765 C6761 1.408 . S
C6765 C6764 1.404 . S
C6765 H6777 0.930 . S
C6766 C6762 1.524 . S
C6766 H6778 0.956 . S
C6766 H6779 0.961 . S
C6766 H6780 0.961 . S
C6767 C6764 1.539 . S
C6767 H6781 0.958 . S
C6767 H6782 0.961 . S
C6767 H6783 0.960 . S
H6768 C6752 0.931 . S
H6769 C6757 0.929 . S
H6770 C6758 0.960 . S
H6771 C6758 0.962 . S
H6772 C6758 0.960 . S
H6773 C6759 0.961 . S
H6774 C6759 0.961 . S
H6775 C6759 0.961 . S
H6776 C6760 0.931 . S
H6777 C6765 0.930 . S
H6778 C6766 0.956 . S
H6779 C6766 0.961 . S
H6780 C6766 0.961 . S
H6781 C6767 0.958 . S
H6782 C6767 0.961 . S
H6783 C6767 0.960 . S
C6784 C6785 1.391 . S
C6784 C6786 1.394 . S
C6784 H6800 0.931 . S
C6785 C6784 1.391 . S
C6785 C6789 1.376 . S
C6786 C6784 1.394 . S
C6786 C6787 1.369 . S
C6786 C6790 1.531 . S
C6787 C6786 1.369 . S
C6787 C6788 1.410 . S
C6787 C6795 1.503 . S
C6788 C6787 1.410 . S
C6788 C6789 1.392 . S
C6788 C6791 1.511 . S
C6789 C6785 1.376 . S
C6789 C6788 1.392 . S
C6789 H6801 0.929 . S
C6790 C6786 1.531 . S
C6790 H6802 0.960 . S
C6790 H6803 0.962 . S
C6790 H6804 0.960 . S
C6791 C6788 1.511 . S
C6791 H6805 0.961 . S
C6791 H6806 0.961 . S
C6791 H6807 0.961 . S
C6792 C6793 1.370 . S
C6792 C6794 1.363 . S
C6792 H6808 0.931 . S
C6793 C6792 1.370 . S
C6793 C6797 1.408 . S
C6794 C6792 1.363 . S
C6794 C6795 1.370 . S
C6794 C6798 1.524 . S
C6795 C6787 1.503 . S
C6795 C6794 1.370 . S
C6795 C6796 1.403 . S
C6796 C6795 1.403 . S
C6796 C6797 1.404 . S
C6796 C6799 1.539 . S
C6797 C6793 1.408 . S
C6797 C6796 1.404 . S
C6797 H6809 0.930 . S
C6798 C6794 1.524 . S
C6798 H6810 0.956 . S
C6798 H6811 0.961 . S
C6798 H6812 0.961 . S
C6799 C6796 1.539 . S
C6799 H6813 0.958 . S
C6799 H6814 0.961 . S
C6799 H6815 0.960 . S
H6800 C6784 0.931 . S
H6801 C6789 0.929 . S
H6802 C6790 0.960 . S
H6803 C6790 0.962 . S
H6804 C6790 0.960 . S
H6805 C6791 0.961 . S
H6806 C6791 0.961 . S
H6807 C6791 0.961 . S
H6808 C6792 0.931 . S
H6809 C6797 0.930 . S
H6810 C6798 0.956 . S
H6811 C6798 0.961 . S
H6812 C6798 0.961 . S
H6813 C6799 0.958 . S
H6814 C6799 0.961 . S
H6815 C6799 0.960 . S
C6816 C6817 1.391 . S
C6816 C6818 1.394 . S
C6816 H6832 0.931 . S
C6817 C6816 1.391 . S
C6817 C6821 1.376 . S
C6818 C6816 1.394 . S
C6818 C6819 1.369 . S
C6818 C6822 1.531 . S
C6819 C6818 1.369 . S
C6819 C6820 1.410 . S
C6819 C6827 1.503 . S
C6820 C6819 1.410 . S
C6820 C6821 1.392 . S
C6820 C6823 1.511 . S
C6821 C6817 1.376 . S
C6821 C6820 1.392 . S
C6821 H6833 0.929 . S
C6822 C6818 1.531 . S
C6822 H6834 0.960 . S
C6822 H6835 0.962 . S
C6822 H6836 0.960 . S
C6823 C6820 1.511 . S
C6823 H6837 0.961 . S
C6823 H6838 0.961 . S
C6823 H6839 0.961 . S
C6824 C6825 1.370 . S
C6824 C6826 1.363 . S
C6824 H6840 0.931 . S
C6825 C6824 1.370 . S
C6825 C6829 1.408 . S
C6826 C6824 1.363 . S
C6826 C6827 1.370 . S
C6826 C6830 1.524 . S
C6827 C6819 1.503 . S
C6827 C6826 1.370 . S
C6827 C6828 1.403 . S
C6828 C6827 1.403 . S
C6828 C6829 1.404 . S
C6828 C6831 1.539 . S
C6829 C6825 1.408 . S
C6829 C6828 1.404 . S
C6829 H6841 0.930 . S
C6830 C6826 1.524 . S
C6830 H6842 0.956 . S
C6830 H6843 0.961 . S
C6830 H6844 0.961 . S
C6831 C6828 1.539 . S
C6831 H6845 0.958 . S
C6831 H6846 0.961 . S
C6831 H6847 0.960 . S
H6832 C6816 0.931 . S
H6833 C6821 0.929 . S
H6834 C6822 0.960 . S
H6835 C6822 0.962 . S
H6836 C6822 0.960 . S
H6837 C6823 0.961 . S
H6838 C6823 0.961 . S
H6839 C6823 0.961 . S
H6840 C6824 0.931 . S
H6841 C6829 0.930 . S
H6842 C6830 0.956 . S
H6843 C6830 0.961 . S
H6844 C6830 0.961 . S
H6845 C6831 0.958 . S
H6846 C6831 0.961 . S
H6847 C6831 0.960 . S
C6848 C6849 1.391 . S
C6848 C6850 1.394 . S
C6848 H6864 0.931 . S
C6849 C6848 1.391 . S
C6849 C6853 1.376 . S
C6850 C6848 1.394 . S
C6850 C6851 1.369 . S
C6850 C6854 1.531 . S
C6851 C6850 1.369 . S
C6851 C6852 1.410 . S
C6851 C6859 1.503 . S
C6852 C6851 1.410 . S
C6852 C6853 1.392 . S
C6852 C6855 1.511 . S
C6853 C6849 1.376 . S
C6853 C6852 1.392 . S
C6853 H6865 0.929 . S
C6854 C6850 1.531 . S
C6854 H6866 0.960 . S
C6854 H6867 0.962 . S
C6854 H6868 0.960 . S
C6855 C6852 1.511 . S
C6855 H6869 0.961 . S
C6855 H6870 0.961 . S
C6855 H6871 0.961 . S
C6856 C6857 1.370 . S
C6856 C6858 1.363 . S
C6856 H6872 0.931 . S
C6857 C6856 1.370 . S
C6857 C6861 1.408 . S
C6858 C6856 1.363 . S
C6858 C6859 1.370 . S
C6858 C6862 1.524 . S
C6859 C6851 1.503 . S
C6859 C6858 1.370 . S
C6859 C6860 1.403 . S
C6860 C6859 1.403 . S
C6860 C6861 1.404 . S
C6860 C6863 1.539 . S
C6861 C6857 1.408 . S
C6861 C6860 1.404 . S
C6861 H6873 0.930 . S
C6862 C6858 1.524 . S
C6862 H6874 0.956 . S
C6862 H6875 0.961 . S
C6862 H6876 0.961 . S
C6863 C6860 1.539 . S
C6863 H6877 0.958 . S
C6863 H6878 0.961 . S
C6863 H6879 0.960 . S
H6864 C6848 0.931 . S
H6865 C6853 0.929 . S
H6866 C6854 0.960 . S
H6867 C6854 0.962 . S
H6868 C6854 0.960 . S
H6869 C6855 0.961 . S
H6870 C6855 0.961 . S
H6871 C6855 0.961 . S
H6872 C6856 0.931 . S
H6873 C6861 0.930 . S
H6874 C6862 0.956 . S
H6875 C6862 0.961 . S
H6876 C6862 0.961 . S
H6877 C6863 0.958 . S
H6878 C6863 0.961 . S
H6879 C6863 0.960 . S
C6880 C6881 1.391 . S
C6880 C6882 1.394 . S
C6880 H6896 0.931 . S
C6881 C6880 1.391 . S
C6881 C6885 1.376 . S
C6882 C6880 1.394 . S
C6882 C6883 1.369 . S
C6882 C6886 1.531 . S
C6883 C6882 1.369 . S
C6883 C6884 1.410 . S
C6883 C6891 1.503 . S
C6884 C6883 1.410 . S
C6884 C6885 1.392 . S
C6884 C6887 1.511 . S
C6885 C6881 1.376 . S
C6885 C6884 1.392 . S
C6885 H6897 0.929 . S
C6886 C6882 1.531 . S
C6886 H6898 0.960 . S
C6886 H6899 0.962 . S
C6886 H6900 0.960 . S
C6887 C6884 1.511 . S
C6887 H6901 0.961 . S
C6887 H6902 0.961 . S
C6887 H6903 0.961 . S
C6888 C6889 1.370 . S
C6888 C6890 1.363 . S
C6888 H6904 0.931 . S
C6889 C6888 1.370 . S
C6889 C6893 1.408 . S
C6890 C6888 1.363 . S
C6890 C6891 1.370 . S
C6890 C6894 1.524 . S
C6891 C6883 1.503 . S
C6891 C6890 1.370 . S
C6891 C6892 1.403 . S
C6892 C6891 1.403 . S
C6892 C6893 1.404 . S
C6892 C6895 1.539 . S
C6893 C6889 1.408 . S
C6893 C6892 1.404 . S
C6893 H6905 0.930 . S
C6894 C6890 1.524 . S
C6894 H6906 0.956 . S
C6894 H6907 0.961 . S
C6894 H6908 0.961 . S
C6895 C6892 1.539 . S
C6895 H6909 0.958 . S
C6895 H6910 0.961 . S
C6895 H6911 0.960 . S
H6896 C6880 0.931 . S
H6897 C6885 0.929 . S
H6898 C6886 0.960 . S
H6899 C6886 0.962 . S
H6900 C6886 0.960 . S
H6901 C6887 0.961 . S
H6902 C6887 0.961 . S
H6903 C6887 0.961 . S
H6904 C6888 0.931 . S
H6905 C6893 0.930 . S
H6906 C6894 0.956 . S
H6907 C6894 0.961 . S
H6908 C6894 0.961 . S
H6909 C6895 0.958 . S
H6910 C6895 0.961 . S
H6911 C6895 0.960 . S
C6912 C6913 1.391 . S
C6912 C6914 1.394 . S
C6912 H6928 0.931 . S
C6913 C6912 1.391 . S
C6913 C6917 1.376 . S
C6914 C6912 1.394 . S
C6914 C6915 1.369 . S
C6914 C6918 1.531 . S
C6915 C6914 1.369 . S
C6915 C6916 1.410 . S
C6915 C6923 1.503 . S
C6916 C6915 1.410 . S
C6916 C6917 1.392 . S
C6916 C6919 1.511 . S
C6917 C6913 1.376 . S
C6917 C6916 1.392 . S
C6917 H6929 0.929 . S
C6918 C6914 1.531 . S
C6918 H6930 0.960 . S
C6918 H6931 0.962 . S
C6918 H6932 0.960 . S
C6919 C6916 1.511 . S
C6919 H6933 0.961 . S
C6919 H6934 0.961 . S
C6919 H6935 0.961 . S
C6920 C6921 1.370 . S
C6920 C6922 1.363 . S
C6920 H6936 0.931 . S
C6921 C6920 1.370 . S
C6921 C6925 1.408 . S
C6922 C6920 1.363 . S
C6922 C6923 1.370 . S
C6922 C6926 1.524 . S
C6923 C6915 1.503 . S
C6923 C6922 1.370 . S
C6923 C6924 1.403 . S
C6924 C6923 1.403 . S
C6924 C6925 1.404 . S
C6924 C6927 1.539 . S
C6925 C6921 1.408 . S
C6925 C6924 1.404 . S
C6925 H6937 0.930 . S
C6926 C6922 1.524 . S
C6926 H6938 0.956 . S
C6926 H6939 0.961 . S
C6926 H6940 0.961 . S
C6927 C6924 1.539 . S
C6927 H6941 0.958 . S
C6927 H6942 0.961 . S
C6927 H6943 0.960 . S
H6928 C6912 0.931 . S
H6929 C6917 0.929 . S
H6930 C6918 0.960 . S
H6931 C6918 0.962 . S
H6932 C6918 0.960 . S
H6933 C6919 0.961 . S
H6934 C6919 0.961 . S
H6935 C6919 0.961 . S
H6936 C6920 0.931 . S
H6937 C6925 0.930 . S
H6938 C6926 0.956 . S
H6939 C6926 0.961 . S
H6940 C6926 0.961 . S
H6941 C6927 0.958 . S
H6942 C6927 0.961 . S
H6943 C6927 0.960 . S
C6944 C6945 1.391 . S
C6944 C6946 1.394 . S
C6944 H6960 0.931 . S
C6945 C6944 1.391 . S
C6945 C6949 1.376 . S
C6946 C6944 1.394 . S
C6946 C6947 1.369 . S
C6946 C6950 1.531 . S
C6947 C6946 1.369 . S
C6947 C6948 1.410 . S
C6947 C6955 1.503 . S
C6948 C6947 1.410 . S
C6948 C6949 1.392 . S
C6948 C6951 1.511 . S
C6949 C6945 1.376 . S
C6949 C6948 1.392 . S
C6949 H6961 0.929 . S
C6950 C6946 1.531 . S
C6950 H6962 0.960 . S
C6950 H6963 0.962 . S
C6950 H6964 0.960 . S
C6951 C6948 1.511 . S
C6951 H6965 0.961 . S
C6951 H6966 0.961 . S
C6951 H6967 0.961 . S
C6952 C6953 1.370 . S
C6952 C6954 1.363 . S
C6952 H6968 0.931 . S
C6953 C6952 1.370 . S
C6953 C6957 1.408 . S
C6954 C6952 1.363 . S
C6954 C6955 1.370 . S
C6954 C6958 1.524 . S
C6955 C6947 1.503 . S
C6955 C6954 1.370 . S
C6955 C6956 1.403 . S
C6956 C6955 1.403 . S
C6956 C6957 1.404 . S
C6956 C6959 1.539 . S
C6957 C6953 1.408 . S
C6957 C6956 1.404 . S
C6957 H6969 0.930 . S
C6958 C6954 1.524 . S
C6958 H6970 0.956 . S
C6958 H6971 0.961 . S
C6958 H6972 0.961 . S
C6959 C6956 1.539 . S
C6959 H6973 0.958 . S
C6959 H6974 0.961 . S
C6959 H6975 0.960 . S
H6960 C6944 0.931 . S
H6961 C6949 0.929 . S
H6962 C6950 0.960 . S
H6963 C6950 0.962 . S
H6964 C6950 0.960 . S
H6965 C6951 0.961 . S
H6966 C6951 0.961 . S
H6967 C6951 0.961 . S
H6968 C6952 0.931 . S
H6969 C6957 0.930 . S
H6970 C6958 0.956 . S
H6971 C6958 0.961 . S
H6972 C6958 0.961 . S
H6973 C6959 0.958 . S
H6974 C6959 0.961 . S
H6975 C6959 0.960 . S
C6976 C6977 1.391 . S
C6976 C6978 1.394 . S
C6976 H6992 0.931 . S
C6977 C6976 1.391 . S
C6977 C6981 1.376 . S
C6978 C6976 1.394 . S
C6978 C6979 1.369 . S
C6978 C6982 1.531 . S
C6979 C6978 1.369 . S
C6979 C6980 1.410 . S
C6979 C6987 1.503 . S
C6980 C6979 1.410 . S
C6980 C6981 1.392 . S
C6980 C6983 1.511 . S
C6981 C6977 1.376 . S
C6981 C6980 1.392 . S
C6981 H6993 0.929 . S
C6982 C6978 1.531 . S
C6982 H6994 0.960 . S
C6982 H6995 0.962 . S
C6982 H6996 0.960 . S
C6983 C6980 1.511 . S
C6983 H6997 0.961 . S
C6983 H6998 0.961 . S
C6983 H6999 0.961 . S
C6984 C6985 1.370 . S
C6984 C6986 1.363 . S
C6984 H7000 0.931 . S
C6985 C6984 1.370 . S
C6985 C6989 1.408 . S
C6986 C6984 1.363 . S
C6986 C6987 1.370 . S
C6986 C6990 1.524 . S
C6987 C6979 1.503 . S
C6987 C6986 1.370 . S
C6987 C6988 1.403 . S
C6988 C6987 1.403 . S
C6988 C6989 1.404 . S
C6988 C6991 1.539 . S
C6989 C6985 1.408 . S
C6989 C6988 1.404 . S
C6989 H7001 0.930 . S
C6990 C6986 1.524 . S
C6990 H7002 0.956 . S
C6990 H7003 0.961 . S
C6990 H7004 0.961 . S
C6991 C6988 1.539 . S
C6991 H7005 0.958 . S
C6991 H7006 0.961 . S
C6991 H7007 0.960 . S
H6992 C6976 0.931 . S
H6993 C6981 0.929 . S
H6994 C6982 0.960 . S
H6995 C6982 0.962 . S
H6996 C6982 0.960 . S
H6997 C6983 0.961 . S
H6998 C6983 0.961 . S
H6999 C6983 0.961 . S
H7000 C6984 0.931 . S
H7001 C6989 0.930 . S
H7002 C6990 0.956 . S
H7003 C6990 0.961 . S
H7004 C6990 0.961 . S
H7005 C6991 0.958 . S
H7006 C6991 0.961 . S
H7007 C6991 0.960 . S
C7008 C7009 1.391 . S
C7008 C7010 1.394 . S
C7008 H7024 0.931 . S
C7009 C7008 1.391 . S
C7009 C7013 1.376 . S
C7010 C7008 1.394 . S
C7010 C7011 1.369 . S
C7010 C7014 1.531 . S
C7011 C7010 1.369 . S
C7011 C7012 1.410 . S
C7011 C7019 1.503 . S
C7012 C7011 1.410 . S
C7012 C7013 1.392 . S
C7012 C7015 1.511 . S
C7013 C7009 1.376 . S
C7013 C7012 1.392 . S
C7013 H7025 0.929 . S
C7014 C7010 1.531 . S
C7014 H7026 0.960 . S
C7014 H7027 0.962 . S
C7014 H7028 0.960 . S
C7015 C7012 1.511 . S
C7015 H7029 0.961 . S
C7015 H7030 0.961 . S
C7015 H7031 0.961 . S
C7016 C7017 1.370 . S
C7016 C7018 1.363 . S
C7016 H7032 0.931 . S
C7017 C7016 1.370 . S
C7017 C7021 1.408 . S
C7018 C7016 1.363 . S
C7018 C7019 1.370 . S
C7018 C7022 1.524 . S
C7019 C7011 1.503 . S
C7019 C7018 1.370 . S
C7019 C7020 1.403 . S
C7020 C7019 1.403 . S
C7020 C7021 1.404 . S
C7020 C7023 1.539 . S
C7021 C7017 1.408 . S
C7021 C7020 1.404 . S
C7021 H7033 0.930 . S
C7022 C7018 1.524 . S
C7022 H7034 0.956 . S
C7022 H7035 0.961 . S
C7022 H7036 0.961 . S
C7023 C7020 1.539 . S
C7023 H7037 0.958 . S
C7023 H7038 0.961 . S
C7023 H7039 0.960 . S
H7024 C7008 0.931 . S
H7025 C7013 0.929 . S
H7026 C7014 0.960 . S
H7027 C7014 0.962 . S
H7028 C7014 0.960 . S
H7029 C7015 0.961 . S
H7030 C7015 0.961 . S
H7031 C7015 0.961 . S
H7032 C7016 0.931 . S
H7033 C7021 0.930 . S
H7034 C7022 0.956 . S
H7035 C7022 0.961 . S
H7036 C7022 0.961 . S
H7037 C7023 0.958 . S
H7038 C7023 0.961 . S
H7039 C7023 0.960 . S
C7040 C7041 1.391 . S
C7040 C7042 1.394 . S
C7040 H7056 0.931 . S
C7041 C7040 1.391 . S
C7041 C7045 1.376 . S
C7042 C7040 1.394 . S
C7042 C7043 1.369 . S
C7042 C7046 1.531 . S
C7043 C7042 1.369 . S
C7043 C7044 1.410 . S
C7043 C7051 1.503 . S
C7044 C7043 1.410 . S
C7044 C7045 1.392 . S
C7044 C7047 1.511 . S
C7045 C7041 1.376 . S
C7045 C7044 1.392 . S
C7045 H7057 0.929 . S
C7046 C7042 1.531 . S
C7046 H7058 0.960 . S
C7046 H7059 0.962 . S
C7046 H7060 0.960 . S
C7047 C7044 1.511 . S
C7047 H7061 0.961 . S
C7047 H7062 0.961 . S
C7047 H7063 0.961 . S
C7048 C7049 1.370 . S
C7048 C7050 1.363 . S
C7048 H7064 0.931 . S
C7049 C7048 1.370 . S
C7049 C7053 1.408 . S
C7050 C7048 1.363 . S
C7050 C7051 1.370 . S
C7050 C7054 1.524 . S
C7051 C7043 1.503 . S
C7051 C7050 1.370 . S
C7051 C7052 1.403 . S
C7052 C7051 1.403 . S
C7052 C7053 1.404 . S
C7052 C7055 1.539 . S
C7053 C7049 1.408 . S
C7053 C7052 1.404 . S
C7053 H7065 0.930 . S
C7054 C7050 1.524 . S
C7054 H7066 0.956 . S
C7054 H7067 0.961 . S
C7054 H7068 0.961 . S
C7055 C7052 1.539 . S
C7055 H7069 0.958 . S
C7055 H7070 0.961 . S
C7055 H7071 0.960 . S
H7056 C7040 0.931 . S
H7057 C7045 0.929 . S
H7058 C7046 0.960 . S
H7059 C7046 0.962 . S
H7060 C7046 0.960 . S
H7061 C7047 0.961 . S
H7062 C7047 0.961 . S
H7063 C7047 0.961 . S
H7064 C7048 0.931 . S
H7065 C7053 0.930 . S
H7066 C7054 0.956 . S
H7067 C7054 0.961 . S
H7068 C7054 0.961 . S
H7069 C7055 0.958 . S
H7070 C7055 0.961 . S
H7071 C7055 0.960 . S
C7072 C7073 1.391 . S
C7072 C7074 1.394 . S
C7072 H7088 0.931 . S
C7073 C7072 1.391 . S
C7073 C7077 1.376 . S
C7074 C7072 1.394 . S
C7074 C7075 1.369 . S
C7074 C7078 1.531 . S
C7075 C7074 1.369 . S
C7075 C7076 1.410 . S
C7075 C7083 1.503 . S
C7076 C7075 1.410 . S
C7076 C7077 1.392 . S
C7076 C7079 1.511 . S
C7077 C7073 1.376 . S
C7077 C7076 1.392 . S
C7077 H7089 0.929 . S
C7078 C7074 1.531 . S
C7078 H7090 0.960 . S
C7078 H7091 0.962 . S
C7078 H7092 0.960 . S
C7079 C7076 1.511 . S
C7079 H7093 0.961 . S
C7079 H7094 0.961 . S
C7079 H7095 0.961 . S
C7080 C7081 1.370 . S
C7080 C7082 1.363 . S
C7080 H7096 0.931 . S
C7081 C7080 1.370 . S
C7081 C7085 1.408 . S
C7082 C7080 1.363 . S
C7082 C7083 1.370 . S
C7082 C7086 1.524 . S
C7083 C7075 1.503 . S
C7083 C7082 1.370 . S
C7083 C7084 1.403 . S
C7084 C7083 1.403 . S
C7084 C7085 1.404 . S
C7084 C7087 1.539 . S
C7085 C7081 1.408 . S
C7085 C7084 1.404 . S
C7085 H7097 0.930 . S
C7086 C7082 1.524 . S
C7086 H7098 0.956 . S
C7086 H7099 0.961 . S
C7086 H7100 0.961 . S
C7087 C7084 1.539 . S
C7087 H7101 0.958 . S
C7087 H7102 0.961 . S
C7087 H7103 0.960 . S
H7088 C7072 0.931 . S
H7089 C7077 0.929 . S
H7090 C7078 0.960 . S
H7091 C7078 0.962 . S
H7092 C7078 0.960 . S
H7093 C7079 0.961 . S
H7094 C7079 0.961 . S
H7095 C7079 0.961 . S
H7096 C7080 0.931 . S
H7097 C7085 0.930 . S
H7098 C7086 0.956 . S
H7099 C7086 0.961 . S
H7100 C7086 0.961 . S
H7101 C7087 0.958 . S
H7102 C7087 0.961 . S
H7103 C7087 0.960 . S
C7104 C7105 1.391 . S
C7104 C7106 1.394 . S
C7104 H7120 0.931 . S
C7105 C7104 1.391 . S
C7105 C7109 1.376 . S
C7106 C7104 1.394 . S
C7106 C7107 1.369 . S
C7106 C7110 1.531 . S
C7107 C7106 1.369 . S
C7107 C7108 1.410 . S
C7107 C7115 1.503 . S
C7108 C7107 1.410 . S
C7108 C7109 1.392 . S
C7108 C7111 1.511 . S
C7109 C7105 1.376 . S
C7109 C7108 1.392 . S
C7109 H7121 0.929 . S
C7110 C7106 1.531 . S
C7110 H7122 0.960 . S
C7110 H7123 0.962 . S
C7110 H7124 0.960 . S
C7111 C7108 1.511 . S
C7111 H7125 0.961 . S
C7111 H7126 0.961 . S
C7111 H7127 0.961 . S
C7112 C7113 1.370 . S
C7112 C7114 1.363 . S
C7112 H7128 0.931 . S
C7113 C7112 1.370 . S
C7113 C7117 1.408 . S
C7114 C7112 1.363 . S
C7114 C7115 1.370 . S
C7114 C7118 1.524 . S
C7115 C7107 1.503 . S
C7115 C7114 1.370 . S
C7115 C7116 1.403 . S
C7116 C7115 1.403 . S
C7116 C7117 1.404 . S
C7116 C7119 1.539 . S
C7117 C7113 1.408 . S
C7117 C7116 1.404 . S
C7117 H7129 0.930 . S
C7118 C7114 1.524 . S
C7118 H7130 0.956 . S
C7118 H7131 0.961 . S
C7118 H7132 0.961 . S
C7119 C7116 1.539 . S
C7119 H7133 0.958 . S
C7119 H7134 0.961 . S
C7119 H7135 0.960 . S
H7120 C7104 0.931 . S
H7121 C7109 0.929 . S
H7122 C7110 0.960 . S
H7123 C7110 0.962 . S
H7124 C7110 0.960 . S
H7125 C7111 0.961 . S
H7126 C7111 0.961 . S
H7127 C7111 0.961 . S
H7128 C7112 0.931 . S
H7129 C7117 0.930 . S
H7130 C7118 0.956 . S
H7131 C7118 0.961 . S
H7132 C7118 0.961 . S
H7133 C7119 0.958 . S
H7134 C7119 0.961 . S
H7135 C7119 0.960 . S
C7136 C7137 1.391 . S
C7136 C7138 1.394 . S
C7136 H7152 0.931 . S
C7137 C7136 1.391 . S
C7137 C7141 1.376 . S
C7138 C7136 1.394 . S
C7138 C7139 1.369 . S
C7138 C7142 1.531 . S
C7139 C7138 1.369 . S
C7139 C7140 1.410 . S
C7139 C7147 1.503 . S
C7140 C7139 1.410 . S
C7140 C7141 1.392 . S
C7140 C7143 1.511 . S
C7141 C7137 1.376 . S
C7141 C7140 1.392 . S
C7141 H7153 0.929 . S
C7142 C7138 1.531 . S
C7142 H7154 0.960 . S
C7142 H7155 0.962 . S
C7142 H7156 0.960 . S
C7143 C7140 1.511 . S
C7143 H7157 0.961 . S
C7143 H7158 0.961 . S
C7143 H7159 0.961 . S
C7144 C7145 1.370 . S
C7144 C7146 1.363 . S
C7144 H7160 0.931 . S
C7145 C7144 1.370 . S
C7145 C7149 1.408 . S
C7146 C7144 1.363 . S
C7146 C7147 1.370 . S
C7146 C7150 1.524 . S
C7147 C7139 1.503 . S
C7147 C7146 1.370 . S
C7147 C7148 1.403 . S
C7148 C7147 1.403 . S
C7148 C7149 1.404 . S
C7148 C7151 1.539 . S
C7149 C7145 1.408 . S
C7149 C7148 1.404 . S
C7149 H7161 0.930 . S
C7150 C7146 1.524 . S
C7150 H7162 0.956 . S
C7150 H7163 0.961 . S
C7150 H7164 0.961 . S
C7151 C7148 1.539 . S
C7151 H7165 0.958 . S
C7151 H7166 0.961 . S
C7151 H7167 0.960 . S
H7152 C7136 0.931 . S
H7153 C7141 0.929 . S
H7154 C7142 0.960 . S
H7155 C7142 0.962 . S
H7156 C7142 0.960 . S
H7157 C7143 0.961 . S
H7158 C7143 0.961 . S
H7159 C7143 0.961 . S
H7160 C7144 0.931 . S
H7161 C7149 0.930 . S
H7162 C7150 0.956 . S
H7163 C7150 0.961 . S
H7164 C7150 0.961 . S
H7165 C7151 0.958 . S
H7166 C7151 0.961 . S
H7167 C7151 0.960 . S
C7168 C7169 1.391 . S
C7168 C7170 1.394 . S
C7168 H7184 0.931 . S
C7169 C7168 1.391 . S
C7169 C7173 1.376 . S
C7170 C7168 1.394 . S
C7170 C7171 1.369 . S
C7170 C7174 1.531 . S
C7171 C7170 1.369 . S
C7171 C7172 1.410 . S
C7171 C7179 1.503 . S
C7172 C7171 1.410 . S
C7172 C7173 1.392 . S
C7172 C7175 1.511 . S
C7173 C7169 1.376 . S
C7173 C7172 1.392 . S
C7173 H7185 0.929 . S
C7174 C7170 1.531 . S
C7174 H7186 0.960 . S
C7174 H7187 0.962 . S
C7174 H7188 0.960 . S
C7175 C7172 1.511 . S
C7175 H7189 0.961 . S
C7175 H7190 0.961 . S
C7175 H7191 0.961 . S
C7176 C7177 1.370 . S
C7176 C7178 1.363 . S
C7176 H7192 0.931 . S
C7177 C7176 1.370 . S
C7177 C7181 1.408 . S
C7178 C7176 1.363 . S
C7178 C7179 1.370 . S
C7178 C7182 1.524 . S
C7179 C7171 1.503 . S
C7179 C7178 1.370 . S
C7179 C7180 1.403 . S
C7180 C7179 1.403 . S
C7180 C7181 1.404 . S
C7180 C7183 1.539 . S
C7181 C7177 1.408 . S
C7181 C7180 1.404 . S
C7181 H7193 0.930 . S
C7182 C7178 1.524 . S
C7182 H7194 0.956 . S
C7182 H7195 0.961 . S
C7182 H7196 0.961 . S
C7183 C7180 1.539 . S
C7183 H7197 0.958 . S
C7183 H7198 0.961 . S
C7183 H7199 0.960 . S
H7184 C7168 0.931 . S
H7185 C7173 0.929 . S
H7186 C7174 0.960 . S
H7187 C7174 0.962 . S
H7188 C7174 0.960 . S
H7189 C7175 0.961 . S
H7190 C7175 0.961 . S
H7191 C7175 0.961 . S
H7192 C7176 0.931 . S
H7193 C7181 0.930 . S
H7194 C7182 0.956 . S
H7195 C7182 0.961 . S
H7196 C7182 0.961 . S
H7197 C7183 0.958 . S
H7198 C7183 0.961 . S
H7199 C7183 0.960 . S
C7200 C7201 1.391 . S
C7200 C7202 1.394 . S
C7200 H7216 0.931 . S
C7201 C7200 1.391 . S
C7201 C7205 1.376 . S
C7202 C7200 1.394 . S
C7202 C7203 1.369 . S
C7202 C7206 1.531 . S
C7203 C7202 1.369 . S
C7203 C7204 1.410 . S
C7203 C7211 1.503 . S
C7204 C7203 1.410 . S
C7204 C7205 1.392 . S
C7204 C7207 1.511 . S
C7205 C7201 1.376 . S
C7205 C7204 1.392 . S
C7205 H7217 0.929 . S
C7206 C7202 1.531 . S
C7206 H7218 0.960 . S
C7206 H7219 0.962 . S
C7206 H7220 0.960 . S
C7207 C7204 1.511 . S
C7207 H7221 0.961 . S
C7207 H7222 0.961 . S
C7207 H7223 0.961 . S
C7208 C7209 1.370 . S
C7208 C7210 1.363 . S
C7208 H7224 0.931 . S
C7209 C7208 1.370 . S
C7209 C7213 1.408 . S
C7210 C7208 1.363 . S
C7210 C7211 1.370 . S
C7210 C7214 1.524 . S
C7211 C7203 1.503 . S
C7211 C7210 1.370 . S
C7211 C7212 1.403 . S
C7212 C7211 1.403 . S
C7212 C7213 1.404 . S
C7212 C7215 1.539 . S
C7213 C7209 1.408 . S
C7213 C7212 1.404 . S
C7213 H7225 0.930 . S
C7214 C7210 1.524 . S
C7214 H7226 0.956 . S
C7214 H7227 0.961 . S
C7214 H7228 0.961 . S
C7215 C7212 1.539 . S
C7215 H7229 0.958 . S
C7215 H7230 0.961 . S
C7215 H7231 0.960 . S
H7216 C7200 0.931 . S
H7217 C7205 0.929 . S
H7218 C7206 0.960 . S
H7219 C7206 0.962 . S
H7220 C7206 0.960 . S
H7221 C7207 0.961 . S
H7222 C7207 0.961 . S
H7223 C7207 0.961 . S
H7224 C7208 0.931 . S
H7225 C7213 0.930 . S
H7226 C7214 0.956 . S
H7227 C7214 0.961 . S
H7228 C7214 0.961 . S
H7229 C7215 0.958 . S
H7230 C7215 0.961 . S
H7231 C7215 0.960 . S
C7232 C7233 1.391 . S
C7232 C7234 1.394 . S
C7232 H7248 0.931 . S
C7233 C7232 1.391 . S
C7233 C7237 1.376 . S
C7234 C7232 1.394 . S
C7234 C7235 1.369 . S
C7234 C7238 1.531 . S
C7235 C7234 1.369 . S
C7235 C7236 1.410 . S
C7235 C7243 1.503 . S
C7236 C7235 1.410 . S
C7236 C7237 1.392 . S
C7236 C7239 1.511 . S
C7237 C7233 1.376 . S
C7237 C7236 1.392 . S
C7237 H7249 0.929 . S
C7238 C7234 1.531 . S
C7238 H7250 0.960 . S
C7238 H7251 0.962 . S
C7238 H7252 0.960 . S
C7239 C7236 1.511 . S
C7239 H7253 0.961 . S
C7239 H7254 0.961 . S
C7239 H7255 0.961 . S
C7240 C7241 1.370 . S
C7240 C7242 1.363 . S
C7240 H7256 0.931 . S
C7241 C7240 1.370 . S
C7241 C7245 1.408 . S
C7242 C7240 1.363 . S
C7242 C7243 1.370 . S
C7242 C7246 1.524 . S
C7243 C7235 1.503 . S
C7243 C7242 1.370 . S
C7243 C7244 1.403 . S
C7244 C7243 1.403 . S
C7244 C7245 1.404 . S
C7244 C7247 1.539 . S
C7245 C7241 1.408 . S
C7245 C7244 1.404 . S
C7245 H7257 0.930 . S
C7246 C7242 1.524 . S
C7246 H7258 0.956 . S
C7246 H7259 0.961 . S
C7246 H7260 0.961 . S
C7247 C7244 1.539 . S
C7247 H7261 0.958 . S
C7247 H7262 0.961 . S
C7247 H7263 0.960 . S
H7248 C7232 0.931 . S
H7249 C7237 0.929 . S
H7250 C7238 0.960 . S
H7251 C7238 0.962 . S
H7252 C7238 0.960 . S
H7253 C7239 0.961 . S
H7254 C7239 0.961 . S
H7255 C7239 0.961 . S
H7256 C7240 0.931 . S
H7257 C7245 0.930 . S
H7258 C7246 0.956 . S
H7259 C7246 0.961 . S
H7260 C7246 0.961 . S
H7261 C7247 0.958 . S
H7262 C7247 0.961 . S
H7263 C7247 0.960 . S
C7264 C7265 1.391 . S
C7264 C7266 1.394 . S
C7264 H7280 0.931 . S
C7265 C7264 1.391 . S
C7265 C7269 1.376 . S
C7266 C7264 1.394 . S
C7266 C7267 1.369 . S
C7266 C7270 1.531 . S
C7267 C7266 1.369 . S
C7267 C7268 1.410 . S
C7267 C7275 1.503 . S
C7268 C7267 1.410 . S
C7268 C7269 1.392 . S
C7268 C7271 1.511 . S
C7269 C7265 1.376 . S
C7269 C7268 1.392 . S
C7269 H7281 0.929 . S
C7270 C7266 1.531 . S
C7270 H7282 0.960 . S
C7270 H7283 0.962 . S
C7270 H7284 0.960 . S
C7271 C7268 1.511 . S
C7271 H7285 0.961 . S
C7271 H7286 0.961 . S
C7271 H7287 0.961 . S
C7272 C7273 1.370 . S
C7272 C7274 1.363 . S
C7272 H7288 0.931 . S
C7273 C7272 1.370 . S
C7273 C7277 1.408 . S
C7274 C7272 1.363 . S
C7274 C7275 1.370 . S
C7274 C7278 1.524 . S
C7275 C7267 1.503 . S
C7275 C7274 1.370 . S
C7275 C7276 1.403 . S
C7276 C7275 1.403 . S
C7276 C7277 1.404 . S
C7276 C7279 1.539 . S
C7277 C7273 1.408 . S
C7277 C7276 1.404 . S
C7277 H7289 0.930 . S
C7278 C7274 1.524 . S
C7278 H7290 0.956 . S
C7278 H7291 0.961 . S
C7278 H7292 0.961 . S
C7279 C7276 1.539 . S
C7279 H7293 0.958 . S
C7279 H7294 0.961 . S
C7279 H7295 0.960 . S
H7280 C7264 0.931 . S
H7281 C7269 0.929 . S
H7282 C7270 0.960 . S
H7283 C7270 0.962 . S
H7284 C7270 0.960 . S
H7285 C7271 0.961 . S
H7286 C7271 0.961 . S
H7287 C7271 0.961 . S
H7288 C7272 0.931 . S
H7289 C7277 0.930 . S
H7290 C7278 0.956 . S
H7291 C7278 0.961 . S
H7292 C7278 0.961 . S
H7293 C7279 0.958 . S
H7294 C7279 0.961 . S
H7295 C7279 0.960 . S
C7296 C7297 1.391 . S
C7296 C7298 1.394 . S
C7296 H7312 0.931 . S
C7297 C7296 1.391 . S
C7297 C7301 1.376 . S
C7298 C7296 1.394 . S
C7298 C7299 1.369 . S
C7298 C7302 1.531 . S
C7299 C7298 1.369 . S
C7299 C7300 1.410 . S
C7299 C7307 1.503 . S
C7300 C7299 1.410 . S
C7300 C7301 1.392 . S
C7300 C7303 1.511 . S
C7301 C7297 1.376 . S
C7301 C7300 1.392 . S
C7301 H7313 0.929 . S
C7302 C7298 1.531 . S
C7302 H7314 0.960 . S
C7302 H7315 0.962 . S
C7302 H7316 0.960 . S
C7303 C7300 1.511 . S
C7303 H7317 0.961 . S
C7303 H7318 0.961 . S
C7303 H7319 0.961 . S
C7304 C7305 1.370 . S
C7304 C7306 1.363 . S
C7304 H7320 0.931 . S
C7305 C7304 1.370 . S
C7305 C7309 1.408 . S
C7306 C7304 1.363 . S
C7306 C7307 1.370 . S
C7306 C7310 1.524 . S
C7307 C7299 1.503 . S
C7307 C7306 1.370 . S
C7307 C7308 1.403 . S
C7308 C7307 1.403 . S
C7308 C7309 1.404 . S
C7308 C7311 1.539 . S
C7309 C7305 1.408 . S
C7309 C7308 1.404 . S
C7309 H7321 0.930 . S
C7310 C7306 1.524 . S
C7310 H7322 0.956 . S
C7310 H7323 0.961 . S
C7310 H7324 0.961 . S
C7311 C7308 1.539 . S
C7311 H7325 0.958 . S
C7311 H7326 0.961 . S
C7311 H7327 0.960 . S
H7312 C7296 0.931 . S
H7313 C7301 0.929 . S
H7314 C7302 0.960 . S
H7315 C7302 0.962 . S
H7316 C7302 0.960 . S
H7317 C7303 0.961 . S
H7318 C7303 0.961 . S
H7319 C7303 0.961 . S
H7320 C7304 0.931 . S
H7321 C7309 0.930 . S
H7322 C7310 0.956 . S
H7323 C7310 0.961 . S
H7324 C7310 0.961 . S
H7325 C7311 0.958 . S
H7326 C7311 0.961 . S
H7327 C7311 0.960 . S
C7328 C7329 1.391 . S
C7328 C7330 1.394 . S
C7328 H7344 0.931 . S
C7329 C7328 1.391 . S
C7329 C7333 1.376 . S
C7330 C7328 1.394 . S
C7330 C7331 1.369 . S
C7330 C7334 1.531 . S
C7331 C7330 1.369 . S
C7331 C7332 1.410 . S
C7331 C7339 1.503 . S
C7332 C7331 1.410 . S
C7332 C7333 1.392 . S
C7332 C7335 1.511 . S
C7333 C7329 1.376 . S
C7333 C7332 1.392 . S
C7333 H7345 0.929 . S
C7334 C7330 1.531 . S
C7334 H7346 0.960 . S
C7334 H7347 0.962 . S
C7334 H7348 0.960 . S
C7335 C7332 1.511 . S
C7335 H7349 0.961 . S
C7335 H7350 0.961 . S
C7335 H7351 0.961 . S
C7336 C7337 1.370 . S
C7336 C7338 1.363 . S
C7336 H7352 0.931 . S
C7337 C7336 1.370 . S
C7337 C7341 1.408 . S
C7338 C7336 1.363 . S
C7338 C7339 1.370 . S
C7338 C7342 1.524 . S
C7339 C7331 1.503 . S
C7339 C7338 1.370 . S
C7339 C7340 1.403 . S
C7340 C7339 1.403 . S
C7340 C7341 1.404 . S
C7340 C7343 1.539 . S
C7341 C7337 1.408 . S
C7341 C7340 1.404 . S
C7341 H7353 0.930 . S
C7342 C7338 1.524 . S
C7342 H7354 0.956 . S
C7342 H7355 0.961 . S
C7342 H7356 0.961 . S
C7343 C7340 1.539 . S
C7343 H7357 0.958 . S
C7343 H7358 0.961 . S
C7343 H7359 0.960 . S
H7344 C7328 0.931 . S
H7345 C7333 0.929 . S
H7346 C7334 0.960 . S
H7347 C7334 0.962 . S
H7348 C7334 0.960 . S
H7349 C7335 0.961 . S
H7350 C7335 0.961 . S
H7351 C7335 0.961 . S
H7352 C7336 0.931 . S
H7353 C7341 0.930 . S
H7354 C7342 0.956 . S
H7355 C7342 0.961 . S
H7356 C7342 0.961 . S
H7357 C7343 0.958 . S
H7358 C7343 0.961 . S
H7359 C7343 0.960 . S
C7360 C7361 1.391 . S
C7360 C7362 1.394 . S
C7360 H7376 0.931 . S
C7361 C7360 1.391 . S
C7361 C7365 1.376 . S
C7362 C7360 1.394 . S
C7362 C7363 1.369 . S
C7362 C7366 1.531 . S
C7363 C7362 1.369 . S
C7363 C7364 1.410 . S
C7363 C7371 1.503 . S
C7364 C7363 1.410 . S
C7364 C7365 1.392 . S
C7364 C7367 1.511 . S
C7365 C7361 1.376 . S
C7365 C7364 1.392 . S
C7365 H7377 0.929 . S
C7366 C7362 1.531 . S
C7366 H7378 0.960 . S
C7366 H7379 0.962 . S
C7366 H7380 0.960 . S
C7367 C7364 1.511 . S
C7367 H7381 0.961 . S
C7367 H7382 0.961 . S
C7367 H7383 0.961 . S
C7368 C7369 1.370 . S
C7368 C7370 1.363 . S
C7368 H7384 0.931 . S
C7369 C7368 1.370 . S
C7369 C7373 1.408 . S
C7370 C7368 1.363 . S
C7370 C7371 1.370 . S
C7370 C7374 1.524 . S
C7371 C7363 1.503 . S
C7371 C7370 1.370 . S
C7371 C7372 1.403 . S
C7372 C7371 1.403 . S
C7372 C7373 1.404 . S
C7372 C7375 1.539 . S
C7373 C7369 1.408 . S
C7373 C7372 1.404 . S
C7373 H7385 0.930 . S
C7374 C7370 1.524 . S
C7374 H7386 0.956 . S
C7374 H7387 0.961 . S
C7374 H7388 0.961 . S
C7375 C7372 1.539 . S
C7375 H7389 0.958 . S
C7375 H7390 0.961 . S
C7375 H7391 0.960 . S
H7376 C7360 0.931 . S
H7377 C7365 0.929 . S
H7378 C7366 0.960 . S
H7379 C7366 0.962 . S
H7380 C7366 0.960 . S
H7381 C7367 0.961 . S
H7382 C7367 0.961 . S
H7383 C7367 0.961 . S
H7384 C7368 0.931 . S
H7385 C7373 0.930 . S
H7386 C7374 0.956 . S
H7387 C7374 0.961 . S
H7388 C7374 0.961 . S
H7389 C7375 0.958 . S
H7390 C7375 0.961 . S
H7391 C7375 0.960 . S
C7392 C7393 1.391 . S
C7392 C7394 1.394 . S
C7392 H7408 0.931 . S
C7393 C7392 1.391 . S
C7393 C7397 1.376 . S
C7394 C7392 1.394 . S
C7394 C7395 1.369 . S
C7394 C7398 1.531 . S
C7395 C7394 1.369 . S
C7395 C7396 1.410 . S
C7395 C7403 1.503 . S
C7396 C7395 1.410 . S
C7396 C7397 1.392 . S
C7396 C7399 1.511 . S
C7397 C7393 1.376 . S
C7397 C7396 1.392 . S
C7397 H7409 0.929 . S
C7398 C7394 1.531 . S
C7398 H7410 0.960 . S
C7398 H7411 0.962 . S
C7398 H7412 0.960 . S
C7399 C7396 1.511 . S
C7399 H7413 0.961 . S
C7399 H7414 0.961 . S
C7399 H7415 0.961 . S
C7400 C7401 1.370 . S
C7400 C7402 1.363 . S
C7400 H7416 0.931 . S
C7401 C7400 1.370 . S
C7401 C7405 1.408 . S
C7402 C7400 1.363 . S
C7402 C7403 1.370 . S
C7402 C7406 1.524 . S
C7403 C7395 1.503 . S
C7403 C7402 1.370 . S
C7403 C7404 1.403 . S
C7404 C7403 1.403 . S
C7404 C7405 1.404 . S
C7404 C7407 1.539 . S
C7405 C7401 1.408 . S
C7405 C7404 1.404 . S
C7405 H7417 0.930 . S
C7406 C7402 1.524 . S
C7406 H7418 0.956 . S
C7406 H7419 0.961 . S
C7406 H7420 0.961 . S
C7407 C7404 1.539 . S
C7407 H7421 0.958 . S
C7407 H7422 0.961 . S
C7407 H7423 0.960 . S
H7408 C7392 0.931 . S
H7409 C7397 0.929 . S
H7410 C7398 0.960 . S
H7411 C7398 0.962 . S
H7412 C7398 0.960 . S
H7413 C7399 0.961 . S
H7414 C7399 0.961 . S
H7415 C7399 0.961 . S
H7416 C7400 0.931 . S
H7417 C7405 0.930 . S
H7418 C7406 0.956 . S
H7419 C7406 0.961 . S
H7420 C7406 0.961 . S
H7421 C7407 0.958 . S
H7422 C7407 0.961 . S
H7423 C7407 0.960 . S
C7424 C7425 1.391 . S
C7424 C7426 1.394 . S
C7424 H7440 0.931 . S
C7425 C7424 1.391 . S
C7425 C7429 1.376 . S
C7426 C7424 1.394 . S
C7426 C7427 1.369 . S
C7426 C7430 1.531 . S
C7427 C7426 1.369 . S
C7427 C7428 1.410 . S
C7427 C7435 1.503 . S
C7428 C7427 1.410 . S
C7428 C7429 1.392 . S
C7428 C7431 1.511 . S
C7429 C7425 1.376 . S
C7429 C7428 1.392 . S
C7429 H7441 0.929 . S
C7430 C7426 1.531 . S
C7430 H7442 0.960 . S
C7430 H7443 0.962 . S
C7430 H7444 0.960 . S
C7431 C7428 1.511 . S
C7431 H7445 0.961 . S
C7431 H7446 0.961 . S
C7431 H7447 0.961 . S
C7432 C7433 1.370 . S
C7432 C7434 1.363 . S
C7432 H7448 0.931 . S
C7433 C7432 1.370 . S
C7433 C7437 1.408 . S
C7434 C7432 1.363 . S
C7434 C7435 1.370 . S
C7434 C7438 1.524 . S
C7435 C7427 1.503 . S
C7435 C7434 1.370 . S
C7435 C7436 1.403 . S
C7436 C7435 1.403 . S
C7436 C7437 1.404 . S
C7436 C7439 1.539 . S
C7437 C7433 1.408 . S
C7437 C7436 1.404 . S
C7437 H7449 0.930 . S
C7438 C7434 1.524 . S
C7438 H7450 0.956 . S
C7438 H7451 0.961 . S
C7438 H7452 0.961 . S
C7439 C7436 1.539 . S
C7439 H7453 0.958 . S
C7439 H7454 0.961 . S
C7439 H7455 0.960 . S
H7440 C7424 0.931 . S
H7441 C7429 0.929 . S
H7442 C7430 0.960 . S
H7443 C7430 0.962 . S
H7444 C7430 0.960 . S
H7445 C7431 0.961 . S
H7446 C7431 0.961 . S
H7447 C7431 0.961 . S
H7448 C7432 0.931 . S
H7449 C7437 0.930 . S
H7450 C7438 0.956 . S
H7451 C7438 0.961 . S
H7452 C7438 0.961 . S
H7453 C7439 0.958 . S
H7454 C7439 0.961 . S
H7455 C7439 0.960 . S
C7456 C7457 1.391 . S
C7456 C7458 1.394 . S
C7456 H7472 0.931 . S
C7457 C7456 1.391 . S
C7457 C7461 1.376 . S
C7458 C7456 1.394 . S
C7458 C7459 1.369 . S
C7458 C7462 1.531 . S
C7459 C7458 1.369 . S
C7459 C7460 1.410 . S
C7459 C7467 1.503 . S
C7460 C7459 1.410 . S
C7460 C7461 1.392 . S
C7460 C7463 1.511 . S
C7461 C7457 1.376 . S
C7461 C7460 1.392 . S
C7461 H7473 0.929 . S
C7462 C7458 1.531 . S
C7462 H7474 0.960 . S
C7462 H7475 0.962 . S
C7462 H7476 0.960 . S
C7463 C7460 1.511 . S
C7463 H7477 0.961 . S
C7463 H7478 0.961 . S
C7463 H7479 0.961 . S
C7464 C7465 1.370 . S
C7464 C7466 1.363 . S
C7464 H7480 0.931 . S
C7465 C7464 1.370 . S
C7465 C7469 1.408 . S
C7466 C7464 1.363 . S
C7466 C7467 1.370 . S
C7466 C7470 1.524 . S
C7467 C7459 1.503 . S
C7467 C7466 1.370 . S
C7467 C7468 1.403 . S
C7468 C7467 1.403 . S
C7468 C7469 1.404 . S
C7468 C7471 1.539 . S
C7469 C7465 1.408 . S
C7469 C7468 1.404 . S
C7469 H7481 0.930 . S
C7470 C7466 1.524 . S
C7470 H7482 0.956 . S
C7470 H7483 0.961 . S
C7470 H7484 0.961 . S
C7471 C7468 1.539 . S
C7471 H7485 0.958 . S
C7471 H7486 0.961 . S
C7471 H7487 0.960 . S
H7472 C7456 0.931 . S
H7473 C7461 0.929 . S
H7474 C7462 0.960 . S
H7475 C7462 0.962 . S
H7476 C7462 0.960 . S
H7477 C7463 0.961 . S
H7478 C7463 0.961 . S
H7479 C7463 0.961 . S
H7480 C7464 0.931 . S
H7481 C7469 0.930 . S
H7482 C7470 0.956 . S
H7483 C7470 0.961 . S
H7484 C7470 0.961 . S
H7485 C7471 0.958 . S
H7486 C7471 0.961 . S
H7487 C7471 0.960 . S
C7488 C7489 1.391 . S
C7488 C7490 1.394 . S
C7488 H7504 0.931 . S
C7489 C7488 1.391 . S
C7489 C7493 1.376 . S
C7490 C7488 1.394 . S
C7490 C7491 1.369 . S
C7490 C7494 1.531 . S
C7491 C7490 1.369 . S
C7491 C7492 1.410 . S
C7491 C7499 1.503 . S
C7492 C7491 1.410 . S
C7492 C7493 1.392 . S
C7492 C7495 1.511 . S
C7493 C7489 1.376 . S
C7493 C7492 1.392 . S
C7493 H7505 0.929 . S
C7494 C7490 1.531 . S
C7494 H7506 0.960 . S
C7494 H7507 0.962 . S
C7494 H7508 0.960 . S
C7495 C7492 1.511 . S
C7495 H7509 0.961 . S
C7495 H7510 0.961 . S
C7495 H7511 0.961 . S
C7496 C7497 1.370 . S
C7496 C7498 1.363 . S
C7496 H7512 0.931 . S
C7497 C7496 1.370 . S
C7497 C7501 1.408 . S
C7498 C7496 1.363 . S
C7498 C7499 1.370 . S
C7498 C7502 1.524 . S
C7499 C7491 1.503 . S
C7499 C7498 1.370 . S
C7499 C7500 1.403 . S
C7500 C7499 1.403 . S
C7500 C7501 1.404 . S
C7500 C7503 1.539 . S
C7501 C7497 1.408 . S
C7501 C7500 1.404 . S
C7501 H7513 0.930 . S
C7502 C7498 1.524 . S
C7502 H7514 0.956 . S
C7502 H7515 0.961 . S
C7502 H7516 0.961 . S
C7503 C7500 1.539 . S
C7503 H7517 0.958 . S
C7503 H7518 0.961 . S
C7503 H7519 0.960 . S
H7504 C7488 0.931 . S
H7505 C7493 0.929 . S
H7506 C7494 0.960 . S
H7507 C7494 0.962 . S
H7508 C7494 0.960 . S
H7509 C7495 0.961 . S
H7510 C7495 0.961 . S
H7511 C7495 0.961 . S
H7512 C7496 0.931 . S
H7513 C7501 0.930 . S
H7514 C7502 0.956 . S
H7515 C7502 0.961 . S
H7516 C7502 0.961 . S
H7517 C7503 0.958 . S
H7518 C7503 0.961 . S
H7519 C7503 0.960 . S
C7520 C7521 1.391 . S
C7520 C7522 1.394 . S
C7520 H7536 0.931 . S
C7521 C7520 1.391 . S
C7521 C7525 1.376 . S
C7522 C7520 1.394 . S
C7522 C7523 1.369 . S
C7522 C7526 1.531 . S
C7523 C7522 1.369 . S
C7523 C7524 1.410 . S
C7523 C7531 1.503 . S
C7524 C7523 1.410 . S
C7524 C7525 1.392 . S
C7524 C7527 1.511 . S
C7525 C7521 1.376 . S
C7525 C7524 1.392 . S
C7525 H7537 0.929 . S
C7526 C7522 1.531 . S
C7526 H7538 0.960 . S
C7526 H7539 0.962 . S
C7526 H7540 0.960 . S
C7527 C7524 1.511 . S
C7527 H7541 0.961 . S
C7527 H7542 0.961 . S
C7527 H7543 0.961 . S
C7528 C7529 1.370 . S
C7528 C7530 1.363 . S
C7528 H7544 0.931 . S
C7529 C7528 1.370 . S
C7529 C7533 1.408 . S
C7530 C7528 1.363 . S
C7530 C7531 1.370 . S
C7530 C7534 1.524 . S
C7531 C7523 1.503 . S
C7531 C7530 1.370 . S
C7531 C7532 1.403 . S
C7532 C7531 1.403 . S
C7532 C7533 1.404 . S
C7532 C7535 1.539 . S
C7533 C7529 1.408 . S
C7533 C7532 1.404 . S
C7533 H7545 0.930 . S
C7534 C7530 1.524 . S
C7534 H7546 0.956 . S
C7534 H7547 0.961 . S
C7534 H7548 0.961 . S
C7535 C7532 1.539 . S
C7535 H7549 0.958 . S
C7535 H7550 0.961 . S
C7535 H7551 0.960 . S
H7536 C7520 0.931 . S
H7537 C7525 0.929 . S
H7538 C7526 0.960 . S
H7539 C7526 0.962 . S
H7540 C7526 0.960 . S
H7541 C7527 0.961 . S
H7542 C7527 0.961 . S
H7543 C7527 0.961 . S
H7544 C7528 0.931 . S
H7545 C7533 0.930 . S
H7546 C7534 0.956 . S
H7547 C7534 0.961 . S
H7548 C7534 0.961 . S
H7549 C7535 0.958 . S
H7550 C7535 0.961 . S
H7551 C7535 0.960 . S
C7552 C7553 1.391 . S
C7552 C7554 1.394 . S
C7552 H7568 0.931 . S
C7553 C7552 1.391 . S
C7553 C7557 1.376 . S
C7554 C7552 1.394 . S
C7554 C7555 1.369 . S
C7554 C7558 1.531 . S
C7555 C7554 1.369 . S
C7555 C7556 1.410 . S
C7555 C7563 1.503 . S
C7556 C7555 1.410 . S
C7556 C7557 1.392 . S
C7556 C7559 1.511 . S
C7557 C7553 1.376 . S
C7557 C7556 1.392 . S
C7557 H7569 0.929 . S
C7558 C7554 1.531 . S
C7558 H7570 0.960 . S
C7558 H7571 0.962 . S
C7558 H7572 0.960 . S
C7559 C7556 1.511 . S
C7559 H7573 0.961 . S
C7559 H7574 0.961 . S
C7559 H7575 0.961 . S
C7560 C7561 1.370 . S
C7560 C7562 1.363 . S
C7560 H7576 0.931 . S
C7561 C7560 1.370 . S
C7561 C7565 1.408 . S
C7562 C7560 1.363 . S
C7562 C7563 1.370 . S
C7562 C7566 1.524 . S
C7563 C7555 1.503 . S
C7563 C7562 1.370 . S
C7563 C7564 1.403 . S
C7564 C7563 1.403 . S
C7564 C7565 1.404 . S
C7564 C7567 1.539 . S
C7565 C7561 1.408 . S
C7565 C7564 1.404 . S
C7565 H7577 0.930 . S
C7566 C7562 1.524 . S
C7566 H7578 0.956 . S
C7566 H7579 0.961 . S
C7566 H7580 0.961 . S
C7567 C7564 1.539 . S
C7567 H7581 0.958 . S
C7567 H7582 0.961 . S
C7567 H7583 0.960 . S
H7568 C7552 0.931 . S
H7569 C7557 0.929 . S
H7570 C7558 0.960 . S
H7571 C7558 0.962 . S
H7572 C7558 0.960 . S
H7573 C7559 0.961 . S
H7574 C7559 0.961 . S
H7575 C7559 0.961 . S
H7576 C7560 0.931 . S
H7577 C7565 0.930 . S
H7578 C7566 0.956 . S
H7579 C7566 0.961 . S
H7580 C7566 0.961 . S
H7581 C7567 0.958 . S
H7582 C7567 0.961 . S
H7583 C7567 0.960 . S
C7584 C7585 1.391 . S
C7584 C7586 1.394 . S
C7584 H7600 0.931 . S
C7585 C7584 1.391 . S
C7585 C7589 1.376 . S
C7586 C7584 1.394 . S
C7586 C7587 1.369 . S
C7586 C7590 1.531 . S
C7587 C7586 1.369 . S
C7587 C7588 1.410 . S
C7587 C7595 1.503 . S
C7588 C7587 1.410 . S
C7588 C7589 1.392 . S
C7588 C7591 1.511 . S
C7589 C7585 1.376 . S
C7589 C7588 1.392 . S
C7589 H7601 0.929 . S
C7590 C7586 1.531 . S
C7590 H7602 0.960 . S
C7590 H7603 0.962 . S
C7590 H7604 0.960 . S
C7591 C7588 1.511 . S
C7591 H7605 0.961 . S
C7591 H7606 0.961 . S
C7591 H7607 0.961 . S
C7592 C7593 1.370 . S
C7592 C7594 1.363 . S
C7592 H7608 0.931 . S
C7593 C7592 1.370 . S
C7593 C7597 1.408 . S
C7594 C7592 1.363 . S
C7594 C7595 1.370 . S
C7594 C7598 1.524 . S
C7595 C7587 1.503 . S
C7595 C7594 1.370 . S
C7595 C7596 1.403 . S
C7596 C7595 1.403 . S
C7596 C7597 1.404 . S
C7596 C7599 1.539 . S
C7597 C7593 1.408 . S
C7597 C7596 1.404 . S
C7597 H7609 0.930 . S
C7598 C7594 1.524 . S
C7598 H7610 0.956 . S
C7598 H7611 0.961 . S
C7598 H7612 0.961 . S
C7599 C7596 1.539 . S
C7599 H7613 0.958 . S
C7599 H7614 0.961 . S
C7599 H7615 0.960 . S
H7600 C7584 0.931 . S
H7601 C7589 0.929 . S
H7602 C7590 0.960 . S
H7603 C7590 0.962 . S
H7604 C7590 0.960 . S
H7605 C7591 0.961 . S
H7606 C7591 0.961 . S
H7607 C7591 0.961 . S
H7608 C7592 0.931 . S
H7609 C7597 0.930 . S
H7610 C7598 0.956 . S
H7611 C7598 0.961 . S
H7612 C7598 0.961 . S
H7613 C7599 0.958 . S
H7614 C7599 0.961 . S
H7615 C7599 0.960 . S
C7616 C7617 1.391 . S
C7616 C7618 1.394 . S
C7616 H7632 0.931 . S
C7617 C7616 1.391 . S
C7617 C7621 1.376 . S
C7618 C7616 1.394 . S
C7618 C7619 1.369 . S
C7618 C7622 1.531 . S
C7619 C7618 1.369 . S
C7619 C7620 1.410 . S
C7619 C7627 1.503 . S
C7620 C7619 1.410 . S
C7620 C7621 1.392 . S
C7620 C7623 1.511 . S
C7621 C7617 1.376 . S
C7621 C7620 1.392 . S
C7621 H7633 0.929 . S
C7622 C7618 1.531 . S
C7622 H7634 0.960 . S
C7622 H7635 0.962 . S
C7622 H7636 0.960 . S
C7623 C7620 1.511 . S
C7623 H7637 0.961 . S
C7623 H7638 0.961 . S
C7623 H7639 0.961 . S
C7624 C7625 1.370 . S
C7624 C7626 1.363 . S
C7624 H7640 0.931 . S
C7625 C7624 1.370 . S
C7625 C7629 1.408 . S
C7626 C7624 1.363 . S
C7626 C7627 1.370 . S
C7626 C7630 1.524 . S
C7627 C7619 1.503 . S
C7627 C7626 1.370 . S
C7627 C7628 1.403 . S
C7628 C7627 1.403 . S
C7628 C7629 1.404 . S
C7628 C7631 1.539 . S
C7629 C7625 1.408 . S
C7629 C7628 1.404 . S
C7629 H7641 0.930 . S
C7630 C7626 1.524 . S
C7630 H7642 0.956 . S
C7630 H7643 0.961 . S
C7630 H7644 0.961 . S
C7631 C7628 1.539 . S
C7631 H7645 0.958 . S
C7631 H7646 0.961 . S
C7631 H7647 0.960 . S
H7632 C7616 0.931 . S
H7633 C7621 0.929 . S
H7634 C7622 0.960 . S
H7635 C7622 0.962 . S
H7636 C7622 0.960 . S
H7637 C7623 0.961 . S
H7638 C7623 0.961 . S
H7639 C7623 0.961 . S
H7640 C7624 0.931 . S
H7641 C7629 0.930 . S
H7642 C7630 0.956 . S
H7643 C7630 0.961 . S
H7644 C7630 0.961 . S
H7645 C7631 0.958 . S
H7646 C7631 0.961 . S
H7647 C7631 0.960 . S
C7648 C7649 1.391 . S
C7648 C7650 1.394 . S
C7648 H7664 0.931 . S
C7649 C7648 1.391 . S
C7649 C7653 1.376 . S
C7650 C7648 1.394 . S
C7650 C7651 1.369 . S
C7650 C7654 1.531 . S
C7651 C7650 1.369 . S
C7651 C7652 1.410 . S
C7651 C7659 1.503 . S
C7652 C7651 1.410 . S
C7652 C7653 1.392 . S
C7652 C7655 1.511 . S
C7653 C7649 1.376 . S
C7653 C7652 1.392 . S
C7653 H7665 0.929 . S
C7654 C7650 1.531 . S
C7654 H7666 0.960 . S
C7654 H7667 0.962 . S
C7654 H7668 0.960 . S
C7655 C7652 1.511 . S
C7655 H7669 0.961 . S
C7655 H7670 0.961 . S
C7655 H7671 0.961 . S
C7656 C7657 1.370 . S
C7656 C7658 1.363 . S
C7656 H7672 0.931 . S
C7657 C7656 1.370 . S
C7657 C7661 1.408 . S
C7658 C7656 1.363 . S
C7658 C7659 1.370 . S
C7658 C7662 1.524 . S
C7659 C7651 1.503 . S
C7659 C7658 1.370 . S
C7659 C7660 1.403 . S
C7660 C7659 1.403 . S
C7660 C7661 1.404 . S
C7660 C7663 1.539 . S
C7661 C7657 1.408 . S
C7661 C7660 1.404 . S
C7661 H7673 0.930 . S
C7662 C7658 1.524 . S
C7662 H7674 0.956 . S
C7662 H7675 0.961 . S
C7662 H7676 0.961 . S
C7663 C7660 1.539 . S
C7663 H7677 0.958 . S
C7663 H7678 0.961 . S
C7663 H7679 0.960 . S
H7664 C7648 0.931 . S
H7665 C7653 0.929 . S
H7666 C7654 0.960 . S
H7667 C7654 0.962 . S
H7668 C7654 0.960 . S
H7669 C7655 0.961 . S
H7670 C7655 0.961 . S
H7671 C7655 0.961 . S
H7672 C7656 0.931 . S
H7673 C7661 0.930 . S
H7674 C7662 0.956 . S
H7675 C7662 0.961 . S
H7676 C7662 0.961 . S
H7677 C7663 0.958 . S
H7678 C7663 0.961 . S
H7679 C7663 0.960 . S
C7680 C7681 1.391 . S
C7680 C7682 1.394 . S
C7680 H7696 0.931 . S
C7681 C7680 1.391 . S
C7681 C7685 1.376 . S
C7682 C7680 1.394 . S
C7682 C7683 1.369 . S
C7682 C7686 1.531 . S
C7683 C7682 1.369 . S
C7683 C7684 1.410 . S
C7683 C7691 1.503 . S
C7684 C7683 1.410 . S
C7684 C7685 1.392 . S
C7684 C7687 1.511 . S
C7685 C7681 1.376 . S
C7685 C7684 1.392 . S
C7685 H7697 0.929 . S
C7686 C7682 1.531 . S
C7686 H7698 0.960 . S
C7686 H7699 0.962 . S
C7686 H7700 0.960 . S
C7687 C7684 1.511 . S
C7687 H7701 0.961 . S
C7687 H7702 0.961 . S
C7687 H7703 0.961 . S
C7688 C7689 1.370 . S
C7688 C7690 1.363 . S
C7688 H7704 0.931 . S
C7689 C7688 1.370 . S
C7689 C7693 1.408 . S
C7690 C7688 1.363 . S
C7690 C7691 1.370 . S
C7690 C7694 1.524 . S
C7691 C7683 1.503 . S
C7691 C7690 1.370 . S
C7691 C7692 1.403 . S
C7692 C7691 1.403 . S
C7692 C7693 1.404 . S
C7692 C7695 1.539 . S
C7693 C7689 1.408 . S
C7693 C7692 1.404 . S
C7693 H7705 0.930 . S
C7694 C7690 1.524 . S
C7694 H7706 0.956 . S
C7694 H7707 0.961 . S
C7694 H7708 0.961 . S
C7695 C7692 1.539 . S
C7695 H7709 0.958 . S
C7695 H7710 0.961 . S
C7695 H7711 0.960 . S
H7696 C7680 0.931 . S
H7697 C7685 0.929 . S
H7698 C7686 0.960 . S
H7699 C7686 0.962 . S
H7700 C7686 0.960 . S
H7701 C7687 0.961 . S
H7702 C7687 0.961 . S
H7703 C7687 0.961 . S
H7704 C7688 0.931 . S
H7705 C7693 0.930 . S
H7706 C7694 0.956 . S
H7707 C7694 0.961 . S
H7708 C7694 0.961 . S
H7709 C7695 0.958 . S
H7710 C7695 0.961 . S
H7711 C7695 0.960 . S
C7712 C7713 1.391 . S
C7712 C7714 1.394 . S
C7712 H7728 0.931 . S
C7713 C7712 1.391 . S
C7713 C7717 1.376 . S
C7714 C7712 1.394 . S
C7714 C7715 1.369 . S
C7714 C7718 1.531 . S
C7715 C7714 1.369 . S
C7715 C7716 1.410 . S
C7715 C7723 1.503 . S
C7716 C7715 1.410 . S
C7716 C7717 1.392 . S
C7716 C7719 1.511 . S
C7717 C7713 1.376 . S
C7717 C7716 1.392 . S
C7717 H7729 0.929 . S
C7718 C7714 1.531 . S
C7718 H7730 0.960 . S
C7718 H7731 0.962 . S
C7718 H7732 0.960 . S
C7719 C7716 1.511 . S
C7719 H7733 0.961 . S
C7719 H7734 0.961 . S
C7719 H7735 0.961 . S
C7720 C7721 1.370 . S
C7720 C7722 1.363 . S
C7720 H7736 0.931 . S
C7721 C7720 1.370 . S
C7721 C7725 1.408 . S
C7722 C7720 1.363 . S
C7722 C7723 1.370 . S
C7722 C7726 1.524 . S
C7723 C7715 1.503 . S
C7723 C7722 1.370 . S
C7723 C7724 1.403 . S
C7724 C7723 1.403 . S
C7724 C7725 1.404 . S
C7724 C7727 1.539 . S
C7725 C7721 1.408 . S
C7725 C7724 1.404 . S
C7725 H7737 0.930 . S
C7726 C7722 1.524 . S
C7726 H7738 0.956 . S
C7726 H7739 0.961 . S
C7726 H7740 0.961 . S
C7727 C7724 1.539 . S
C7727 H7741 0.958 . S
C7727 H7742 0.961 . S
C7727 H7743 0.960 . S
H7728 C7712 0.931 . S
H7729 C7717 0.929 . S
H7730 C7718 0.960 . S
H7731 C7718 0.962 . S
H7732 C7718 0.960 . S
H7733 C7719 0.961 . S
H7734 C7719 0.961 . S
H7735 C7719 0.961 . S
H7736 C7720 0.931 . S
H7737 C7725 0.930 . S
H7738 C7726 0.956 . S
H7739 C7726 0.961 . S
H7740 C7726 0.961 . S
H7741 C7727 0.958 . S
H7742 C7727 0.961 . S
H7743 C7727 0.960 . S
C7744 C7745 1.391 . S
C7744 C7746 1.394 . S
C7744 H7760 0.931 . S
C7745 C7744 1.391 . S
C7745 C7749 1.376 . S
C7746 C7744 1.394 . S
C7746 C7747 1.369 . S
C7746 C7750 1.531 . S
C7747 C7746 1.369 . S
C7747 C7748 1.410 . S
C7747 C7755 1.503 . S
C7748 C7747 1.410 . S
C7748 C7749 1.392 . S
C7748 C7751 1.511 . S
C7749 C7745 1.376 . S
C7749 C7748 1.392 . S
C7749 H7761 0.929 . S
C7750 C7746 1.531 . S
C7750 H7762 0.960 . S
C7750 H7763 0.962 . S
C7750 H7764 0.960 . S
C7751 C7748 1.511 . S
C7751 H7765 0.961 . S
C7751 H7766 0.961 . S
C7751 H7767 0.961 . S
C7752 C7753 1.370 . S
C7752 C7754 1.363 . S
C7752 H7768 0.931 . S
C7753 C7752 1.370 . S
C7753 C7757 1.408 . S
C7754 C7752 1.363 . S
C7754 C7755 1.370 . S
C7754 C7758 1.524 . S
C7755 C7747 1.503 . S
C7755 C7754 1.370 . S
C7755 C7756 1.403 . S
C7756 C7755 1.403 . S
C7756 C7757 1.404 . S
C7756 C7759 1.539 . S
C7757 C7753 1.408 . S
C7757 C7756 1.404 . S
C7757 H7769 0.930 . S
C7758 C7754 1.524 . S
C7758 H7770 0.956 . S
C7758 H7771 0.961 . S
C7758 H7772 0.961 . S
C7759 C7756 1.539 . S
C7759 H7773 0.958 . S
C7759 H7774 0.961 . S
C7759 H7775 0.960 . S
H7760 C7744 0.931 . S
H7761 C7749 0.929 . S
H7762 C7750 0.960 . S
H7763 C7750 0.962 . S
H7764 C7750 0.960 . S
H7765 C7751 0.961 . S
H7766 C7751 0.961 . S
H7767 C7751 0.961 . S
H7768 C7752 0.931 . S
H7769 C7757 0.930 . S
H7770 C7758 0.956 . S
H7771 C7758 0.961 . S
H7772 C7758 0.961 . S
H7773 C7759 0.958 . S
H7774 C7759 0.961 . S
H7775 C7759 0.960 . S
C7776 C7777 1.391 . S
C7776 C7778 1.394 . S
C7776 H7792 0.931 . S
C7777 C7776 1.391 . S
C7777 C7781 1.376 . S
C7778 C7776 1.394 . S
C7778 C7779 1.369 . S
C7778 C7782 1.531 . S
C7779 C7778 1.369 . S
C7779 C7780 1.410 . S
C7779 C7787 1.503 . S
C7780 C7779 1.410 . S
C7780 C7781 1.392 . S
C7780 C7783 1.511 . S
C7781 C7777 1.376 . S
C7781 C7780 1.392 . S
C7781 H7793 0.929 . S
C7782 C7778 1.531 . S
C7782 H7794 0.960 . S
C7782 H7795 0.962 . S
C7782 H7796 0.960 . S
C7783 C7780 1.511 . S
C7783 H7797 0.961 . S
C7783 H7798 0.961 . S
C7783 H7799 0.961 . S
C7784 C7785 1.370 . S
C7784 C7786 1.363 . S
C7784 H7800 0.931 . S
C7785 C7784 1.370 . S
C7785 C7789 1.408 . S
C7786 C7784 1.363 . S
C7786 C7787 1.370 . S
C7786 C7790 1.524 . S
C7787 C7779 1.503 . S
C7787 C7786 1.370 . S
C7787 C7788 1.403 . S
C7788 C7787 1.403 . S
C7788 C7789 1.404 . S
C7788 C7791 1.539 . S
C7789 C7785 1.408 . S
C7789 C7788 1.404 . S
C7789 H7801 0.930 . S
C7790 C7786 1.524 . S
C7790 H7802 0.956 . S
C7790 H7803 0.961 . S
C7790 H7804 0.961 . S
C7791 C7788 1.539 . S
C7791 H7805 0.958 . S
C7791 H7806 0.961 . S
C7791 H7807 0.960 . S
H7792 C7776 0.931 . S
H7793 C7781 0.929 . S
H7794 C7782 0.960 . S
H7795 C7782 0.962 . S
H7796 C7782 0.960 . S
H7797 C7783 0.961 . S
H7798 C7783 0.961 . S
H7799 C7783 0.961 . S
H7800 C7784 0.931 . S
H7801 C7789 0.930 . S
H7802 C7790 0.956 . S
H7803 C7790 0.961 . S
H7804 C7790 0.961 . S
H7805 C7791 0.958 . S
H7806 C7791 0.961 . S
H7807 C7791 0.960 . S
C7808 C7809 1.391 . S
C7808 C7810 1.394 . S
C7808 H7824 0.931 . S
C7809 C7808 1.391 . S
C7809 C7813 1.376 . S
C7810 C7808 1.394 . S
C7810 C7811 1.369 . S
C7810 C7814 1.531 . S
C7811 C7810 1.369 . S
C7811 C7812 1.410 . S
C7811 C7819 1.503 . S
C7812 C7811 1.410 . S
C7812 C7813 1.392 . S
C7812 C7815 1.511 . S
C7813 C7809 1.376 . S
C7813 C7812 1.392 . S
C7813 H7825 0.929 . S
C7814 C7810 1.531 . S
C7814 H7826 0.960 . S
C7814 H7827 0.962 . S
C7814 H7828 0.960 . S
C7815 C7812 1.511 . S
C7815 H7829 0.961 . S
C7815 H7830 0.961 . S
C7815 H7831 0.961 . S
C7816 C7817 1.370 . S
C7816 C7818 1.363 . S
C7816 H7832 0.931 . S
C7817 C7816 1.370 . S
C7817 C7821 1.408 . S
C7818 C7816 1.363 . S
C7818 C7819 1.370 . S
C7818 C7822 1.524 . S
C7819 C7811 1.503 . S
C7819 C7818 1.370 . S
C7819 C7820 1.403 . S
C7820 C7819 1.403 . S
C7820 C7821 1.404 . S
C7820 C7823 1.539 . S
C7821 C7817 1.408 . S
C7821 C7820 1.404 . S
C7821 H7833 0.930 . S
C7822 C7818 1.524 . S
C7822 H7834 0.956 . S
C7822 H7835 0.961 . S
C7822 H7836 0.961 . S
C7823 C7820 1.539 . S
C7823 H7837 0.958 . S
C7823 H7838 0.961 . S
C7823 H7839 0.960 . S
H7824 C7808 0.931 . S
H7825 C7813 0.929 . S
H7826 C7814 0.960 . S
H7827 C7814 0.962 . S
H7828 C7814 0.960 . S
H7829 C7815 0.961 . S
H7830 C7815 0.961 . S
H7831 C7815 0.961 . S
H7832 C7816 0.931 . S
H7833 C7821 0.930 . S
H7834 C7822 0.956 . S
H7835 C7822 0.961 . S
H7836 C7822 0.961 . S
H7837 C7823 0.958 . S
H7838 C7823 0.961 . S
H7839 C7823 0.960 . S
C7840 C7841 1.391 . S
C7840 C7842 1.394 . S
C7840 H7856 0.931 . S
C7841 C7840 1.391 . S
C7841 C7845 1.376 . S
C7842 C7840 1.394 . S
C7842 C7843 1.369 . S
C7842 C7846 1.531 . S
C7843 C7842 1.369 . S
C7843 C7844 1.410 . S
C7843 C7851 1.503 . S
C7844 C7843 1.410 . S
C7844 C7845 1.392 . S
C7844 C7847 1.511 . S
C7845 C7841 1.376 . S
C7845 C7844 1.392 . S
C7845 H7857 0.929 . S
C7846 C7842 1.531 . S
C7846 H7858 0.960 . S
C7846 H7859 0.962 . S
C7846 H7860 0.960 . S
C7847 C7844 1.511 . S
C7847 H7861 0.961 . S
C7847 H7862 0.961 . S
C7847 H7863 0.961 . S
C7848 C7849 1.370 . S
C7848 C7850 1.363 . S
C7848 H7864 0.931 . S
C7849 C7848 1.370 . S
C7849 C7853 1.408 . S
C7850 C7848 1.363 . S
C7850 C7851 1.370 . S
C7850 C7854 1.524 . S
C7851 C7843 1.503 . S
C7851 C7850 1.370 . S
C7851 C7852 1.403 . S
C7852 C7851 1.403 . S
C7852 C7853 1.404 . S
C7852 C7855 1.539 . S
C7853 C7849 1.408 . S
C7853 C7852 1.404 . S
C7853 H7865 0.930 . S
C7854 C7850 1.524 . S
C7854 H7866 0.956 . S
C7854 H7867 0.961 . S
C7854 H7868 0.961 . S
C7855 C7852 1.539 . S
C7855 H7869 0.958 . S
C7855 H7870 0.961 . S
C7855 H7871 0.960 . S
H7856 C7840 0.931 . S
H7857 C7845 0.929 . S
H7858 C7846 0.960 . S
H7859 C7846 0.962 . S
H7860 C7846 0.960 . S
H7861 C7847 0.961 . S
H7862 C7847 0.961 . S
H7863 C7847 0.961 . S
H7864 C7848 0.931 . S
H7865 C7853 0.930 . S
H7866 C7854 0.956 . S
H7867 C7854 0.961 . S
H7868 C7854 0.961 . S
H7869 C7855 0.958 . S
H7870 C7855 0.961 . S
H7871 C7855 0.960 . S
C7872 C7873 1.391 . S
C7872 C7874 1.394 . S
C7872 H7888 0.931 . S
C7873 C7872 1.391 . S
C7873 C7877 1.376 . S
C7874 C7872 1.394 . S
C7874 C7875 1.369 . S
C7874 C7878 1.531 . S
C7875 C7874 1.369 . S
C7875 C7876 1.410 . S
C7875 C7883 1.503 . S
C7876 C7875 1.410 . S
C7876 C7877 1.392 . S
C7876 C7879 1.511 . S
C7877 C7873 1.376 . S
C7877 C7876 1.392 . S
C7877 H7889 0.929 . S
C7878 C7874 1.531 . S
C7878 H7890 0.960 . S
C7878 H7891 0.962 . S
C7878 H7892 0.960 . S
C7879 C7876 1.511 . S
C7879 H7893 0.961 . S
C7879 H7894 0.961 . S
C7879 H7895 0.961 . S
C7880 C7881 1.370 . S
C7880 C7882 1.363 . S
C7880 H7896 0.931 . S
C7881 C7880 1.370 . S
C7881 C7885 1.408 . S
C7882 C7880 1.363 . S
C7882 C7883 1.370 . S
C7882 C7886 1.524 . S
C7883 C7875 1.503 . S
C7883 C7882 1.370 . S
C7883 C7884 1.403 . S
C7884 C7883 1.403 . S
C7884 C7885 1.404 . S
C7884 C7887 1.539 . S
C7885 C7881 1.408 . S
C7885 C7884 1.404 . S
C7885 H7897 0.930 . S
C7886 C7882 1.524 . S
C7886 H7898 0.956 . S
C7886 H7899 0.961 . S
C7886 H7900 0.961 . S
C7887 C7884 1.539 . S
C7887 H7901 0.958 . S
C7887 H7902 0.961 . S
C7887 H7903 0.960 . S
H7888 C7872 0.931 . S
H7889 C7877 0.929 . S
H7890 C7878 0.960 . S
H7891 C7878 0.962 . S
H7892 C7878 0.960 . S
H7893 C7879 0.961 . S
H7894 C7879 0.961 . S
H7895 C7879 0.961 . S
H7896 C7880 0.931 . S
H7897 C7885 0.930 . S
H7898 C7886 0.956 . S
H7899 C7886 0.961 . S
H7900 C7886 0.961 . S
H7901 C7887 0.958 . S
H7902 C7887 0.961 . S
H7903 C7887 0.960 . S
C7904 C7905 1.391 . S
C7904 C7906 1.394 . S
C7904 H7920 0.931 . S
C7905 C7904 1.391 . S
C7905 C7909 1.376 . S
C7906 C7904 1.394 . S
C7906 C7907 1.369 . S
C7906 C7910 1.531 . S
C7907 C7906 1.369 . S
C7907 C7908 1.410 . S
C7907 C7915 1.503 . S
C7908 C7907 1.410 . S
C7908 C7909 1.392 . S
C7908 C7911 1.511 . S
C7909 C7905 1.376 . S
C7909 C7908 1.392 . S
C7909 H7921 0.929 . S
C7910 C7906 1.531 . S
C7910 H7922 0.960 . S
C7910 H7923 0.962 . S
C7910 H7924 0.960 . S
C7911 C7908 1.511 . S
C7911 H7925 0.961 . S
C7911 H7926 0.961 . S
C7911 H7927 0.961 . S
C7912 C7913 1.370 . S
C7912 C7914 1.363 . S
C7912 H7928 0.931 . S
C7913 C7912 1.370 . S
C7913 C7917 1.408 . S
C7914 C7912 1.363 . S
C7914 C7915 1.370 . S
C7914 C7918 1.524 . S
C7915 C7907 1.503 . S
C7915 C7914 1.370 . S
C7915 C7916 1.403 . S
C7916 C7915 1.403 . S
C7916 C7917 1.404 . S
C7916 C7919 1.539 . S
C7917 C7913 1.408 . S
C7917 C7916 1.404 . S
C7917 H7929 0.930 . S
C7918 C7914 1.524 . S
C7918 H7930 0.956 . S
C7918 H7931 0.961 . S
C7918 H7932 0.961 . S
C7919 C7916 1.539 . S
C7919 H7933 0.958 . S
C7919 H7934 0.961 . S
C7919 H7935 0.960 . S
H7920 C7904 0.931 . S
H7921 C7909 0.929 . S
H7922 C7910 0.960 . S
H7923 C7910 0.962 . S
H7924 C7910 0.960 . S
H7925 C7911 0.961 . S
H7926 C7911 0.961 . S
H7927 C7911 0.961 . S
H7928 C7912 0.931 . S
H7929 C7917 0.930 . S
H7930 C7918 0.956 . S
H7931 C7918 0.961 . S
H7932 C7918 0.961 . S
H7933 C7919 0.958 . S
H7934 C7919 0.961 . S
H7935 C7919 0.960 . S
C7936 C7937 1.391 . S
C7936 C7938 1.394 . S
C7936 H7952 0.931 . S
C7937 C7936 1.391 . S
C7937 C7941 1.376 . S
C7938 C7936 1.394 . S
C7938 C7939 1.369 . S
C7938 C7942 1.531 . S
C7939 C7938 1.369 . S
C7939 C7940 1.410 . S
C7939 C7947 1.503 . S
C7940 C7939 1.410 . S
C7940 C7941 1.392 . S
C7940 C7943 1.511 . S
C7941 C7937 1.376 . S
C7941 C7940 1.392 . S
C7941 H7953 0.929 . S
C7942 C7938 1.531 . S
C7942 H7954 0.960 . S
C7942 H7955 0.962 . S
C7942 H7956 0.960 . S
C7943 C7940 1.511 . S
C7943 H7957 0.961 . S
C7943 H7958 0.961 . S
C7943 H7959 0.961 . S
C7944 C7945 1.370 . S
C7944 C7946 1.363 . S
C7944 H7960 0.931 . S
C7945 C7944 1.370 . S
C7945 C7949 1.408 . S
C7946 C7944 1.363 . S
C7946 C7947 1.370 . S
C7946 C7950 1.524 . S
C7947 C7939 1.503 . S
C7947 C7946 1.370 . S
C7947 C7948 1.403 . S
C7948 C7947 1.403 . S
C7948 C7949 1.404 . S
C7948 C7951 1.539 . S
C7949 C7945 1.408 . S
C7949 C7948 1.404 . S
C7949 H7961 0.930 . S
C7950 C7946 1.524 . S
C7950 H7962 0.956 . S
C7950 H7963 0.961 . S
C7950 H7964 0.961 . S
C7951 C7948 1.539 . S
C7951 H7965 0.958 . S
C7951 H7966 0.961 . S
C7951 H7967 0.960 . S
H7952 C7936 0.931 . S
H7953 C7941 0.929 . S
H7954 C7942 0.960 . S
H7955 C7942 0.962 . S
H7956 C7942 0.960 . S
H7957 C7943 0.961 . S
H7958 C7943 0.961 . S
H7959 C7943 0.961 . S
H7960 C7944 0.931 . S
H7961 C7949 0.930 . S
H7962 C7950 0.956 . S
H7963 C7950 0.961 . S
H7964 C7950 0.961 . S
H7965 C7951 0.958 . S
H7966 C7951 0.961 . S
H7967 C7951 0.960 . S
C7968 C7969 1.391 . S
C7968 C7970 1.394 . S
C7968 H7984 0.931 . S
C7969 C7968 1.391 . S
C7969 C7973 1.376 . S
C7970 C7968 1.394 . S
C7970 C7971 1.369 . S
C7970 C7974 1.531 . S
C7971 C7970 1.369 . S
C7971 C7972 1.410 . S
C7971 C7979 1.503 . S
C7972 C7971 1.410 . S
C7972 C7973 1.392 . S
C7972 C7975 1.511 . S
C7973 C7969 1.376 . S
C7973 C7972 1.392 . S
C7973 H7985 0.929 . S
C7974 C7970 1.531 . S
C7974 H7986 0.960 . S
C7974 H7987 0.962 . S
C7974 H7988 0.960 . S
C7975 C7972 1.511 . S
C7975 H7989 0.961 . S
C7975 H7990 0.961 . S
C7975 H7991 0.961 . S
C7976 C7977 1.370 . S
C7976 C7978 1.363 . S
C7976 H7992 0.931 . S
C7977 C7976 1.370 . S
C7977 C7981 1.408 . S
C7978 C7976 1.363 . S
C7978 C7979 1.370 . S
C7978 C7982 1.524 . S
C7979 C7971 1.503 . S
C7979 C7978 1.370 . S
C7979 C7980 1.403 . S
C7980 C7979 1.403 . S
C7980 C7981 1.404 . S
C7980 C7983 1.539 . S
C7981 C7977 1.408 . S
C7981 C7980 1.404 . S
C7981 H7993 0.930 . S
C7982 C7978 1.524 . S
C7982 H7994 0.956 . S
C7982 H7995 0.961 . S
C7982 H7996 0.961 . S
C7983 C7980 1.539 . S
C7983 H7997 0.958 . S
C7983 H7998 0.961 . S
C7983 H7999 0.960 . S
H7984 C7968 0.931 . S
H7985 C7973 0.929 . S
H7986 C7974 0.960 . S
H7987 C7974 0.962 . S
H7988 C7974 0.960 . S
H7989 C7975 0.961 . S
H7990 C7975 0.961 . S
H7991 C7975 0.961 . S
H7992 C7976 0.931 . S
H7993 C7981 0.930 . S
H7994 C7982 0.956 . S
H7995 C7982 0.961 . S
H7996 C7982 0.961 . S
H7997 C7983 0.958 . S
H7998 C7983 0.961 . S
H7999 C7983 0.960 . S
C8000 C8001 1.391 . S
C8000 C8002 1.394 . S
C8000 H8016 0.931 . S
C8001 C8000 1.391 . S
C8001 C8005 1.376 . S
C8002 C8000 1.394 . S
C8002 C8003 1.369 . S
C8002 C8006 1.531 . S
C8003 C8002 1.369 . S
C8003 C8004 1.410 . S
C8003 C8011 1.503 . S
C8004 C8003 1.410 . S
C8004 C8005 1.392 . S
C8004 C8007 1.511 . S
C8005 C8001 1.376 . S
C8005 C8004 1.392 . S
C8005 H8017 0.929 . S
C8006 C8002 1.531 . S
C8006 H8018 0.960 . S
C8006 H8019 0.962 . S
C8006 H8020 0.960 . S
C8007 C8004 1.511 . S
C8007 H8021 0.961 . S
C8007 H8022 0.961 . S
C8007 H8023 0.961 . S
C8008 C8009 1.370 . S
C8008 C8010 1.363 . S
C8008 H8024 0.931 . S
C8009 C8008 1.370 . S
C8009 C8013 1.408 . S
C8010 C8008 1.363 . S
C8010 C8011 1.370 . S
C8010 C8014 1.524 . S
C8011 C8003 1.503 . S
C8011 C8010 1.370 . S
C8011 C8012 1.403 . S
C8012 C8011 1.403 . S
C8012 C8013 1.404 . S
C8012 C8015 1.539 . S
C8013 C8009 1.408 . S
C8013 C8012 1.404 . S
C8013 H8025 0.930 . S
C8014 C8010 1.524 . S
C8014 H8026 0.956 . S
C8014 H8027 0.961 . S
C8014 H8028 0.961 . S
C8015 C8012 1.539 . S
C8015 H8029 0.958 . S
C8015 H8030 0.961 . S
C8015 H8031 0.960 . S
H8016 C8000 0.931 . S
H8017 C8005 0.929 . S
H8018 C8006 0.960 . S
H8019 C8006 0.962 . S
H8020 C8006 0.960 . S
H8021 C8007 0.961 . S
H8022 C8007 0.961 . S
H8023 C8007 0.961 . S
H8024 C8008 0.931 . S
H8025 C8013 0.930 . S
H8026 C8014 0.956 . S
H8027 C8014 0.961 . S
H8028 C8014 0.961 . S
H8029 C8015 0.958 . S
H8030 C8015 0.961 . S
H8031 C8015 0.960 . S
C8032 C8033 1.391 . S
C8032 C8034 1.394 . S
C8032 H8048 0.931 . S
C8033 C8032 1.391 . S
C8033 C8037 1.376 . S
C8034 C8032 1.394 . S
C8034 C8035 1.369 . S
C8034 C8038 1.531 . S
C8035 C8034 1.369 . S
C8035 C8036 1.410 . S
C8035 C8043 1.503 . S
C8036 C8035 1.410 . S
C8036 C8037 1.392 . S
C8036 C8039 1.511 . S
C8037 C8033 1.376 . S
C8037 C8036 1.392 . S
C8037 H8049 0.929 . S
C8038 C8034 1.531 . S
C8038 H8050 0.960 . S
C8038 H8051 0.962 . S
C8038 H8052 0.960 . S
C8039 C8036 1.511 . S
C8039 H8053 0.961 . S
C8039 H8054 0.961 . S
C8039 H8055 0.961 . S
C8040 C8041 1.370 . S
C8040 C8042 1.363 . S
C8040 H8056 0.931 . S
C8041 C8040 1.370 . S
C8041 C8045 1.408 . S
C8042 C8040 1.363 . S
C8042 C8043 1.370 . S
C8042 C8046 1.524 . S
C8043 C8035 1.503 . S
C8043 C8042 1.370 . S
C8043 C8044 1.403 . S
C8044 C8043 1.403 . S
C8044 C8045 1.404 . S
C8044 C8047 1.539 . S
C8045 C8041 1.408 . S
C8045 C8044 1.404 . S
C8045 H8057 0.930 . S
C8046 C8042 1.524 . S
C8046 H8058 0.956 . S
C8046 H8059 0.961 . S
C8046 H8060 0.961 . S
C8047 C8044 1.539 . S
C8047 H8061 0.958 . S
C8047 H8062 0.961 . S
C8047 H8063 0.960 . S
H8048 C8032 0.931 . S
H8049 C8037 0.929 . S
H8050 C8038 0.960 . S
H8051 C8038 0.962 . S
H8052 C8038 0.960 . S
H8053 C8039 0.961 . S
H8054 C8039 0.961 . S
H8055 C8039 0.961 . S
H8056 C8040 0.931 . S
H8057 C8045 0.930 . S
H8058 C8046 0.956 . S
H8059 C8046 0.961 . S
H8060 C8046 0.961 . S
H8061 C8047 0.958 . S
H8062 C8047 0.961 . S
H8063 C8047 0.960 . S
C8064 C8065 1.391 . S
C8064 C8066 1.394 . S
C8064 H8080 0.931 . S
C8065 C8064 1.391 . S
C8065 C8069 1.376 . S
C8066 C8064 1.394 . S
C8066 C8067 1.369 . S
C8066 C8070 1.531 . S
C8067 C8066 1.369 . S
C8067 C8068 1.410 . S
C8067 C8075 1.503 . S
C8068 C8067 1.410 . S
C8068 C8069 1.392 . S
C8068 C8071 1.511 . S
C8069 C8065 1.376 . S
C8069 C8068 1.392 . S
C8069 H8081 0.929 . S
C8070 C8066 1.531 . S
C8070 H8082 0.960 . S
C8070 H8083 0.962 . S
C8070 H8084 0.960 . S
C8071 C8068 1.511 . S
C8071 H8085 0.961 . S
C8071 H8086 0.961 . S
C8071 H8087 0.961 . S
C8072 C8073 1.370 . S
C8072 C8074 1.363 . S
C8072 H8088 0.931 . S
C8073 C8072 1.370 . S
C8073 C8077 1.408 . S
C8074 C8072 1.363 . S
C8074 C8075 1.370 . S
C8074 C8078 1.524 . S
C8075 C8067 1.503 . S
C8075 C8074 1.370 . S
C8075 C8076 1.403 . S
C8076 C8075 1.403 . S
C8076 C8077 1.404 . S
C8076 C8079 1.539 . S
C8077 C8073 1.408 . S
C8077 C8076 1.404 . S
C8077 H8089 0.930 . S
C8078 C8074 1.524 . S
C8078 H8090 0.956 . S
C8078 H8091 0.961 . S
C8078 H8092 0.961 . S
C8079 C8076 1.539 . S
C8079 H8093 0.958 . S
C8079 H8094 0.961 . S
C8079 H8095 0.960 . S
H8080 C8064 0.931 . S
H8081 C8069 0.929 . S
H8082 C8070 0.960 . S
H8083 C8070 0.962 . S
H8084 C8070 0.960 . S
H8085 C8071 0.961 . S
H8086 C8071 0.961 . S
H8087 C8071 0.961 . S
H8088 C8072 0.931 . S
H8089 C8077 0.930 . S
H8090 C8078 0.956 . S
H8091 C8078 0.961 . S
H8092 C8078 0.961 . S
H8093 C8079 0.958 . S
H8094 C8079 0.961 . S
H8095 C8079 0.960 . S
C8096 C8097 1.391 . S
C8096 C8098 1.394 . S
C8096 H8112 0.931 . S
C8097 C8096 1.391 . S
C8097 C8101 1.376 . S
C8098 C8096 1.394 . S
C8098 C8099 1.369 . S
C8098 C8102 1.531 . S
C8099 C8098 1.369 . S
C8099 C8100 1.410 . S
C8099 C8107 1.503 . S
C8100 C8099 1.410 . S
C8100 C8101 1.392 . S
C8100 C8103 1.511 . S
C8101 C8097 1.376 . S
C8101 C8100 1.392 . S
C8101 H8113 0.929 . S
C8102 C8098 1.531 . S
C8102 H8114 0.960 . S
C8102 H8115 0.962 . S
C8102 H8116 0.960 . S
C8103 C8100 1.511 . S
C8103 H8117 0.961 . S
C8103 H8118 0.961 . S
C8103 H8119 0.961 . S
C8104 C8105 1.370 . S
C8104 C8106 1.363 . S
C8104 H8120 0.931 . S
C8105 C8104 1.370 . S
C8105 C8109 1.408 . S
C8106 C8104 1.363 . S
C8106 C8107 1.370 . S
C8106 C8110 1.524 . S
C8107 C8099 1.503 . S
C8107 C8106 1.370 . S
C8107 C8108 1.403 . S
C8108 C8107 1.403 . S
C8108 C8109 1.404 . S
C8108 C8111 1.539 . S
C8109 C8105 1.408 . S
C8109 C8108 1.404 . S
C8109 H8121 0.930 . S
C8110 C8106 1.524 . S
C8110 H8122 0.956 . S
C8110 H8123 0.961 . S
C8110 H8124 0.961 . S
C8111 C8108 1.539 . S
C8111 H8125 0.958 . S
C8111 H8126 0.961 . S
C8111 H8127 0.960 . S
H8112 C8096 0.931 . S
H8113 C8101 0.929 . S
H8114 C8102 0.960 . S
H8115 C8102 0.962 . S
H8116 C8102 0.960 . S
H8117 C8103 0.961 . S
H8118 C8103 0.961 . S
H8119 C8103 0.961 . S
H8120 C8104 0.931 . S
H8121 C8109 0.930 . S
H8122 C8110 0.956 . S
H8123 C8110 0.961 . S
H8124 C8110 0.961 . S
H8125 C8111 0.958 . S
H8126 C8111 0.961 . S
H8127 C8111 0.960 . S
C8128 C8129 1.391 . S
C8128 C8130 1.394 . S
C8128 H8144 0.931 . S
C8129 C8128 1.391 . S
C8129 C8133 1.376 . S
C8130 C8128 1.394 . S
C8130 C8131 1.369 . S
C8130 C8134 1.531 . S
C8131 C8130 1.369 . S
C8131 C8132 1.410 . S
C8131 C8139 1.503 . S
C8132 C8131 1.410 . S
C8132 C8133 1.392 . S
C8132 C8135 1.511 . S
C8133 C8129 1.376 . S
C8133 C8132 1.392 . S
C8133 H8145 0.929 . S
C8134 C8130 1.531 . S
C8134 H8146 0.960 . S
C8134 H8147 0.962 . S
C8134 H8148 0.960 . S
C8135 C8132 1.511 . S
C8135 H8149 0.961 . S
C8135 H8150 0.961 . S
C8135 H8151 0.961 . S
C8136 C8137 1.370 . S
C8136 C8138 1.363 . S
C8136 H8152 0.931 . S
C8137 C8136 1.370 . S
C8137 C8141 1.408 . S
C8138 C8136 1.363 . S
C8138 C8139 1.370 . S
C8138 C8142 1.524 . S
C8139 C8131 1.503 . S
C8139 C8138 1.370 . S
C8139 C8140 1.403 . S
C8140 C8139 1.403 . S
C8140 C8141 1.404 . S
C8140 C8143 1.539 . S
C8141 C8137 1.408 . S
C8141 C8140 1.404 . S
C8141 H8153 0.930 . S
C8142 C8138 1.524 . S
C8142 H8154 0.956 . S
C8142 H8155 0.961 . S
C8142 H8156 0.961 . S
C8143 C8140 1.539 . S
C8143 H8157 0.958 . S
C8143 H8158 0.961 . S
C8143 H8159 0.960 . S
H8144 C8128 0.931 . S
H8145 C8133 0.929 . S
H8146 C8134 0.960 . S
H8147 C8134 0.962 . S
H8148 C8134 0.960 . S
H8149 C8135 0.961 . S
H8150 C8135 0.961 . S
H8151 C8135 0.961 . S
H8152 C8136 0.931 . S
H8153 C8141 0.930 . S
H8154 C8142 0.956 . S
H8155 C8142 0.961 . S
H8156 C8142 0.961 . S
H8157 C8143 0.958 . S
H8158 C8143 0.961 . S
H8159 C8143 0.960 . S
C8160 C8161 1.391 . S
C8160 C8162 1.394 . S
C8160 H8176 0.931 . S
C8161 C8160 1.391 . S
C8161 C8165 1.376 . S
C8162 C8160 1.394 . S
C8162 C8163 1.369 . S
C8162 C8166 1.531 . S
C8163 C8162 1.369 . S
C8163 C8164 1.410 . S
C8163 C8171 1.503 . S
C8164 C8163 1.410 . S
C8164 C8165 1.392 . S
C8164 C8167 1.511 . S
C8165 C8161 1.376 . S
C8165 C8164 1.392 . S
C8165 H8177 0.929 . S
C8166 C8162 1.531 . S
C8166 H8178 0.960 . S
C8166 H8179 0.962 . S
C8166 H8180 0.960 . S
C8167 C8164 1.511 . S
C8167 H8181 0.961 . S
C8167 H8182 0.961 . S
C8167 H8183 0.961 . S
C8168 C8169 1.370 . S
C8168 C8170 1.363 . S
C8168 H8184 0.931 . S
C8169 C8168 1.370 . S
C8169 C8173 1.408 . S
C8170 C8168 1.363 . S
C8170 C8171 1.370 . S
C8170 C8174 1.524 . S
C8171 C8163 1.503 . S
C8171 C8170 1.370 . S
C8171 C8172 1.403 . S
C8172 C8171 1.403 . S
C8172 C8173 1.404 . S
C8172 C8175 1.539 . S
C8173 C8169 1.408 . S
C8173 C8172 1.404 . S
C8173 H8185 0.930 . S
C8174 C8170 1.524 . S
C8174 H8186 0.956 . S
C8174 H8187 0.961 . S
C8174 H8188 0.961 . S
C8175 C8172 1.539 . S
C8175 H8189 0.958 . S
C8175 H8190 0.961 . S
C8175 H8191 0.960 . S
H8176 C8160 0.931 . S
H8177 C8165 0.929 . S
H8178 C8166 0.960 . S
H8179 C8166 0.962 . S
H8180 C8166 0.960 . S
H8181 C8167 0.961 . S
H8182 C8167 0.961 . S
H8183 C8167 0.961 . S
H8184 C8168 0.931 . S
H8185 C8173 0.930 . S
H8186 C8174 0.956 . S
H8187 C8174 0.961 . S
H8188 C8174 0.961 . S
H8189 C8175 0.958 . S
H8190 C8175 0.961 . S
H8191 C8175 0.960 . S
C8192 C8193 1.391 . S
C8192 C8194 1.394 . S
C8192 H8208 0.931 . S
C8193 C8192 1.391 . S
C8193 C8197 1.376 . S
C8194 C8192 1.394 . S
C8194 C8195 1.369 . S
C8194 C8198 1.531 . S
C8195 C8194 1.369 . S
C8195 C8196 1.410 . S
C8195 C8203 1.503 . S
C8196 C8195 1.410 . S
C8196 C8197 1.392 . S
C8196 C8199 1.511 . S
C8197 C8193 1.376 . S
C8197 C8196 1.392 . S
C8197 H8209 0.929 . S
C8198 C8194 1.531 . S
C8198 H8210 0.960 . S
C8198 H8211 0.962 . S
C8198 H8212 0.960 . S
C8199 C8196 1.511 . S
C8199 H8213 0.961 . S
C8199 H8214 0.961 . S
C8199 H8215 0.961 . S
C8200 C8201 1.370 . S
C8200 C8202 1.363 . S
C8200 H8216 0.931 . S
C8201 C8200 1.370 . S
C8201 C8205 1.408 . S
C8202 C8200 1.363 . S
C8202 C8203 1.370 . S
C8202 C8206 1.524 . S
C8203 C8195 1.503 . S
C8203 C8202 1.370 . S
C8203 C8204 1.403 . S
C8204 C8203 1.403 . S
C8204 C8205 1.404 . S
C8204 C8207 1.539 . S
C8205 C8201 1.408 . S
C8205 C8204 1.404 . S
C8205 H8217 0.930 . S
C8206 C8202 1.524 . S
C8206 H8218 0.956 . S
C8206 H8219 0.961 . S
C8206 H8220 0.961 . S
C8207 C8204 1.539 . S
C8207 H8221 0.958 . S
C8207 H8222 0.961 . S
C8207 H8223 0.960 . S
H8208 C8192 0.931 . S
H8209 C8197 0.929 . S
H8210 C8198 0.960 . S
H8211 C8198 0.962 . S
H8212 C8198 0.960 . S
H8213 C8199 0.961 . S
H8214 C8199 0.961 . S
H8215 C8199 0.961 . S
H8216 C8200 0.931 . S
H8217 C8205 0.930 . S
H8218 C8206 0.956 . S
H8219 C8206 0.961 . S
H8220 C8206 0.961 . S
H8221 C8207 0.958 . S
H8222 C8207 0.961 . S
H8223 C8207 0.960 . S
C8224 C8225 1.391 . S
C8224 C8226 1.394 . S
C8224 H8240 0.931 . S
C8225 C8224 1.391 . S
C8225 C8229 1.376 . S
C8226 C8224 1.394 . S
C8226 C8227 1.369 . S
C8226 C8230 1.531 . S
C8227 C8226 1.369 . S
C8227 C8228 1.410 . S
C8227 C8235 1.503 . S
C8228 C8227 1.410 . S
C8228 C8229 1.392 . S
C8228 C8231 1.511 . S
C8229 C8225 1.376 . S
C8229 C8228 1.392 . S
C8229 H8241 0.929 . S
C8230 C8226 1.531 . S
C8230 H8242 0.960 . S
C8230 H8243 0.962 . S
C8230 H8244 0.960 . S
C8231 C8228 1.511 . S
C8231 H8245 0.961 . S
C8231 H8246 0.961 . S
C8231 H8247 0.961 . S
C8232 C8233 1.370 . S
C8232 C8234 1.363 . S
C8232 H8248 0.931 . S
C8233 C8232 1.370 . S
C8233 C8237 1.408 . S
C8234 C8232 1.363 . S
C8234 C8235 1.370 . S
C8234 C8238 1.524 . S
C8235 C8227 1.503 . S
C8235 C8234 1.370 . S
C8235 C8236 1.403 . S
C8236 C8235 1.403 . S
C8236 C8237 1.404 . S
C8236 C8239 1.539 . S
C8237 C8233 1.408 . S
C8237 C8236 1.404 . S
C8237 H8249 0.930 . S
C8238 C8234 1.524 . S
C8238 H8250 0.956 . S
C8238 H8251 0.961 . S
C8238 H8252 0.961 . S
C8239 C8236 1.539 . S
C8239 H8253 0.958 . S
C8239 H8254 0.961 . S
C8239 H8255 0.960 . S
H8240 C8224 0.931 . S
H8241 C8229 0.929 . S
H8242 C8230 0.960 . S
H8243 C8230 0.962 . S
H8244 C8230 0.960 . S
H8245 C8231 0.961 . S
H8246 C8231 0.961 . S
H8247 C8231 0.961 . S
H8248 C8232 0.931 . S
H8249 C8237 0.930 . S
H8250 C8238 0.956 . S
H8251 C8238 0.961 . S
H8252 C8238 0.961 . S
H8253 C8239 0.958 . S
H8254 C8239 0.961 . S
H8255 C8239 0.960 . S
C8256 C8257 1.391 . S
C8256 C8258 1.394 . S
C8256 H8272 0.931 . S
C8257 C8256 1.391 . S
C8257 C8261 1.376 . S
C8258 C8256 1.394 . S
C8258 C8259 1.369 . S
C8258 C8262 1.531 . S
C8259 C8258 1.369 . S
C8259 C8260 1.410 . S
C8259 C8267 1.503 . S
C8260 C8259 1.410 . S
C8260 C8261 1.392 . S
C8260 C8263 1.511 . S
C8261 C8257 1.376 . S
C8261 C8260 1.392 . S
C8261 H8273 0.929 . S
C8262 C8258 1.531 . S
C8262 H8274 0.960 . S
C8262 H8275 0.962 . S
C8262 H8276 0.960 . S
C8263 C8260 1.511 . S
C8263 H8277 0.961 . S
C8263 H8278 0.961 . S
C8263 H8279 0.961 . S
C8264 C8265 1.370 . S
C8264 C8266 1.363 . S
C8264 H8280 0.931 . S
C8265 C8264 1.370 . S
C8265 C8269 1.408 . S
C8266 C8264 1.363 . S
C8266 C8267 1.370 . S
C8266 C8270 1.524 . S
C8267 C8259 1.503 . S
C8267 C8266 1.370 . S
C8267 C8268 1.403 . S
C8268 C8267 1.403 . S
C8268 C8269 1.404 . S
C8268 C8271 1.539 . S
C8269 C8265 1.408 . S
C8269 C8268 1.404 . S
C8269 H8281 0.930 . S
C8270 C8266 1.524 . S
C8270 H8282 0.956 . S
C8270 H8283 0.961 . S
C8270 H8284 0.961 . S
C8271 C8268 1.539 . S
C8271 H8285 0.958 . S
C8271 H8286 0.961 . S
C8271 H8287 0.960 . S
H8272 C8256 0.931 . S
H8273 C8261 0.929 . S
H8274 C8262 0.960 . S
H8275 C8262 0.962 . S
H8276 C8262 0.960 . S
H8277 C8263 0.961 . S
H8278 C8263 0.961 . S
H8279 C8263 0.961 . S
H8280 C8264 0.931 . S
H8281 C8269 0.930 . S
H8282 C8270 0.956 . S
H8283 C8270 0.961 . S
H8284 C8270 0.961 . S
H8285 C8271 0.958 . S
H8286 C8271 0.961 . S
H8287 C8271 0.960 . S
C8288 C8289 1.391 . S
C8288 C8290 1.394 . S
C8288 H8304 0.931 . S
C8289 C8288 1.391 . S
C8289 C8293 1.376 . S
C8290 C8288 1.394 . S
C8290 C8291 1.369 . S
C8290 C8294 1.531 . S
C8291 C8290 1.369 . S
C8291 C8292 1.410 . S
C8291 C8299 1.503 . S
C8292 C8291 1.410 . S
C8292 C8293 1.392 . S
C8292 C8295 1.511 . S
C8293 C8289 1.376 . S
C8293 C8292 1.392 . S
C8293 H8305 0.929 . S
C8294 C8290 1.531 . S
C8294 H8306 0.960 . S
C8294 H8307 0.962 . S
C8294 H8308 0.960 . S
C8295 C8292 1.511 . S
C8295 H8309 0.961 . S
C8295 H8310 0.961 . S
C8295 H8311 0.961 . S
C8296 C8297 1.370 . S
C8296 C8298 1.363 . S
C8296 H8312 0.931 . S
C8297 C8296 1.370 . S
C8297 C8301 1.408 . S
C8298 C8296 1.363 . S
C8298 C8299 1.370 . S
C8298 C8302 1.524 . S
C8299 C8291 1.503 . S
C8299 C8298 1.370 . S
C8299 C8300 1.403 . S
C8300 C8299 1.403 . S
C8300 C8301 1.404 . S
C8300 C8303 1.539 . S
C8301 C8297 1.408 . S
C8301 C8300 1.404 . S
C8301 H8313 0.930 . S
C8302 C8298 1.524 . S
C8302 H8314 0.956 . S
C8302 H8315 0.961 . S
C8302 H8316 0.961 . S
C8303 C8300 1.539 . S
C8303 H8317 0.958 . S
C8303 H8318 0.961 . S
C8303 H8319 0.960 . S
H8304 C8288 0.931 . S
H8305 C8293 0.929 . S
H8306 C8294 0.960 . S
H8307 C8294 0.962 . S
H8308 C8294 0.960 . S
H8309 C8295 0.961 . S
H8310 C8295 0.961 . S
H8311 C8295 0.961 . S
H8312 C8296 0.931 . S
H8313 C8301 0.930 . S
H8314 C8302 0.956 . S
H8315 C8302 0.961 . S
H8316 C8302 0.961 . S
H8317 C8303 0.958 . S
H8318 C8303 0.961 . S
H8319 C8303 0.960 . S
C8320 C8321 1.391 . S
C8320 C8322 1.394 . S
C8320 H8336 0.931 . S
C8321 C8320 1.391 . S
C8321 C8325 1.376 . S
C8322 C8320 1.394 . S
C8322 C8323 1.369 . S
C8322 C8326 1.531 . S
C8323 C8322 1.369 . S
C8323 C8324 1.410 . S
C8323 C8331 1.503 . S
C8324 C8323 1.410 . S
C8324 C8325 1.392 . S
C8324 C8327 1.511 . S
C8325 C8321 1.376 . S
C8325 C8324 1.392 . S
C8325 H8337 0.929 . S
C8326 C8322 1.531 . S
C8326 H8338 0.960 . S
C8326 H8339 0.962 . S
C8326 H8340 0.960 . S
C8327 C8324 1.511 . S
C8327 H8341 0.961 . S
C8327 H8342 0.961 . S
C8327 H8343 0.961 . S
C8328 C8329 1.370 . S
C8328 C8330 1.363 . S
C8328 H8344 0.931 . S
C8329 C8328 1.370 . S
C8329 C8333 1.408 . S
C8330 C8328 1.363 . S
C8330 C8331 1.370 . S
C8330 C8334 1.524 . S
C8331 C8323 1.503 . S
C8331 C8330 1.370 . S
C8331 C8332 1.403 . S
C8332 C8331 1.403 . S
C8332 C8333 1.404 . S
C8332 C8335 1.539 . S
C8333 C8329 1.408 . S
C8333 C8332 1.404 . S
C8333 H8345 0.930 . S
C8334 C8330 1.524 . S
C8334 H8346 0.956 . S
C8334 H8347 0.961 . S
C8334 H8348 0.961 . S
C8335 C8332 1.539 . S
C8335 H8349 0.958 . S
C8335 H8350 0.961 . S
C8335 H8351 0.960 . S
H8336 C8320 0.931 . S
H8337 C8325 0.929 . S
H8338 C8326 0.960 . S
H8339 C8326 0.962 . S
H8340 C8326 0.960 . S
H8341 C8327 0.961 . S
H8342 C8327 0.961 . S
H8343 C8327 0.961 . S
H8344 C8328 0.931 . S
H8345 C8333 0.930 . S
H8346 C8334 0.956 . S
H8347 C8334 0.961 . S
H8348 C8334 0.961 . S
H8349 C8335 0.958 . S
H8350 C8335 0.961 . S
H8351 C8335 0.960 . S
C8352 C8353 1.391 . S
C8352 C8354 1.394 . S
C8352 H8368 0.931 . S
C8353 C8352 1.391 . S
C8353 C8357 1.376 . S
C8354 C8352 1.394 . S
C8354 C8355 1.369 . S
C8354 C8358 1.531 . S
C8355 C8354 1.369 . S
C8355 C8356 1.410 . S
C8355 C8363 1.503 . S
C8356 C8355 1.410 . S
C8356 C8357 1.392 . S
C8356 C8359 1.511 . S
C8357 C8353 1.376 . S
C8357 C8356 1.392 . S
C8357 H8369 0.929 . S
C8358 C8354 1.531 . S
C8358 H8370 0.960 . S
C8358 H8371 0.962 . S
C8358 H8372 0.960 . S
C8359 C8356 1.511 . S
C8359 H8373 0.961 . S
C8359 H8374 0.961 . S
C8359 H8375 0.961 . S
C8360 C8361 1.370 . S
C8360 C8362 1.363 . S
C8360 H8376 0.931 . S
C8361 C8360 1.370 . S
C8361 C8365 1.408 . S
C8362 C8360 1.363 . S
C8362 C8363 1.370 . S
C8362 C8366 1.524 . S
C8363 C8355 1.503 . S
C8363 C8362 1.370 . S
C8363 C8364 1.403 . S
C8364 C8363 1.403 . S
C8364 C8365 1.404 . S
C8364 C8367 1.539 . S
C8365 C8361 1.408 . S
C8365 C8364 1.404 . S
C8365 H8377 0.930 . S
C8366 C8362 1.524 . S
C8366 H8378 0.956 . S
C8366 H8379 0.961 . S
C8366 H8380 0.961 . S
C8367 C8364 1.539 . S
C8367 H8381 0.958 . S
C8367 H8382 0.961 . S
C8367 H8383 0.960 . S
H8368 C8352 0.931 . S
H8369 C8357 0.929 . S
H8370 C8358 0.960 . S
H8371 C8358 0.962 . S
H8372 C8358 0.960 . S
H8373 C8359 0.961 . S
H8374 C8359 0.961 . S
H8375 C8359 0.961 . S
H8376 C8360 0.931 . S
H8377 C8365 0.930 . S
H8378 C8366 0.956 . S
H8379 C8366 0.961 . S
H8380 C8366 0.961 . S
H8381 C8367 0.958 . S
H8382 C8367 0.961 . S
H8383 C8367 0.960 . S
C8384 C8385 1.391 . S
C8384 C8386 1.394 . S
C8384 H8400 0.931 . S
C8385 C8384 1.391 . S
C8385 C8389 1.376 . S
C8386 C8384 1.394 . S
C8386 C8387 1.369 . S
C8386 C8390 1.531 . S
C8387 C8386 1.369 . S
C8387 C8388 1.410 . S
C8387 C8395 1.503 . S
C8388 C8387 1.410 . S
C8388 C8389 1.392 . S
C8388 C8391 1.511 . S
C8389 C8385 1.376 . S
C8389 C8388 1.392 . S
C8389 H8401 0.929 . S
C8390 C8386 1.531 . S
C8390 H8402 0.960 . S
C8390 H8403 0.962 . S
C8390 H8404 0.960 . S
C8391 C8388 1.511 . S
C8391 H8405 0.961 . S
C8391 H8406 0.961 . S
C8391 H8407 0.961 . S
C8392 C8393 1.370 . S
C8392 C8394 1.363 . S
C8392 H8408 0.931 . S
C8393 C8392 1.370 . S
C8393 C8397 1.408 . S
C8394 C8392 1.363 . S
C8394 C8395 1.370 . S
C8394 C8398 1.524 . S
C8395 C8387 1.503 . S
C8395 C8394 1.370 . S
C8395 C8396 1.403 . S
C8396 C8395 1.403 . S
C8396 C8397 1.404 . S
C8396 C8399 1.539 . S
C8397 C8393 1.408 . S
C8397 C8396 1.404 . S
C8397 H8409 0.930 . S
C8398 C8394 1.524 . S
C8398 H8410 0.956 . S
C8398 H8411 0.961 . S
C8398 H8412 0.961 . S
C8399 C8396 1.539 . S
C8399 H8413 0.958 . S
C8399 H8414 0.961 . S
C8399 H8415 0.960 . S
H8400 C8384 0.931 . S
H8401 C8389 0.929 . S
H8402 C8390 0.960 . S
H8403 C8390 0.962 . S
H8404 C8390 0.960 . S
H8405 C8391 0.961 . S
H8406 C8391 0.961 . S
H8407 C8391 0.961 . S
H8408 C8392 0.931 . S
H8409 C8397 0.930 . S
H8410 C8398 0.956 . S
H8411 C8398 0.961 . S
H8412 C8398 0.961 . S
H8413 C8399 0.958 . S
H8414 C8399 0.961 . S
H8415 C8399 0.960 . S
C8416 C8417 1.391 . S
C8416 C8418 1.394 . S
C8416 H8432 0.931 . S
C8417 C8416 1.391 . S
C8417 C8421 1.376 . S
C8418 C8416 1.394 . S
C8418 C8419 1.369 . S
C8418 C8422 1.531 . S
C8419 C8418 1.369 . S
C8419 C8420 1.410 . S
C8419 C8427 1.503 . S
C8420 C8419 1.410 . S
C8420 C8421 1.392 . S
C8420 C8423 1.511 . S
C8421 C8417 1.376 . S
C8421 C8420 1.392 . S
C8421 H8433 0.929 . S
C8422 C8418 1.531 . S
C8422 H8434 0.960 . S
C8422 H8435 0.962 . S
C8422 H8436 0.960 . S
C8423 C8420 1.511 . S
C8423 H8437 0.961 . S
C8423 H8438 0.961 . S
C8423 H8439 0.961 . S
C8424 C8425 1.370 . S
C8424 C8426 1.363 . S
C8424 H8440 0.931 . S
C8425 C8424 1.370 . S
C8425 C8429 1.408 . S
C8426 C8424 1.363 . S
C8426 C8427 1.370 . S
C8426 C8430 1.524 . S
C8427 C8419 1.503 . S
C8427 C8426 1.370 . S
C8427 C8428 1.403 . S
C8428 C8427 1.403 . S
C8428 C8429 1.404 . S
C8428 C8431 1.539 . S
C8429 C8425 1.408 . S
C8429 C8428 1.404 . S
C8429 H8441 0.930 . S
C8430 C8426 1.524 . S
C8430 H8442 0.956 . S
C8430 H8443 0.961 . S
C8430 H8444 0.961 . S
C8431 C8428 1.539 . S
C8431 H8445 0.958 . S
C8431 H8446 0.961 . S
C8431 H8447 0.960 . S
H8432 C8416 0.931 . S
H8433 C8421 0.929 . S
H8434 C8422 0.960 . S
H8435 C8422 0.962 . S
H8436 C8422 0.960 . S
H8437 C8423 0.961 . S
H8438 C8423 0.961 . S
H8439 C8423 0.961 . S
H8440 C8424 0.931 . S
H8441 C8429 0.930 . S
H8442 C8430 0.956 . S
H8443 C8430 0.961 . S
H8444 C8430 0.961 . S
H8445 C8431 0.958 . S
H8446 C8431 0.961 . S
H8447 C8431 0.960 . S
C8448 C8449 1.391 . S
C8448 C8450 1.394 . S
C8448 H8464 0.931 . S
C8449 C8448 1.391 . S
C8449 C8453 1.376 . S
C8450 C8448 1.394 . S
C8450 C8451 1.369 . S
C8450 C8454 1.531 . S
C8451 C8450 1.369 . S
C8451 C8452 1.410 . S
C8451 C8459 1.503 . S
C8452 C8451 1.410 . S
C8452 C8453 1.392 . S
C8452 C8455 1.511 . S
C8453 C8449 1.376 . S
C8453 C8452 1.392 . S
C8453 H8465 0.929 . S
C8454 C8450 1.531 . S
C8454 H8466 0.960 . S
C8454 H8467 0.962 . S
C8454 H8468 0.960 . S
C8455 C8452 1.511 . S
C8455 H8469 0.961 . S
C8455 H8470 0.961 . S
C8455 H8471 0.961 . S
C8456 C8457 1.370 . S
C8456 C8458 1.363 . S
C8456 H8472 0.931 . S
C8457 C8456 1.370 . S
C8457 C8461 1.408 . S
C8458 C8456 1.363 . S
C8458 C8459 1.370 . S
C8458 C8462 1.524 . S
C8459 C8451 1.503 . S
C8459 C8458 1.370 . S
C8459 C8460 1.403 . S
C8460 C8459 1.403 . S
C8460 C8461 1.404 . S
C8460 C8463 1.539 . S
C8461 C8457 1.408 . S
C8461 C8460 1.404 . S
C8461 H8473 0.930 . S
C8462 C8458 1.524 . S
C8462 H8474 0.956 . S
C8462 H8475 0.961 . S
C8462 H8476 0.961 . S
C8463 C8460 1.539 . S
C8463 H8477 0.958 . S
C8463 H8478 0.961 . S
C8463 H8479 0.960 . S
H8464 C8448 0.931 . S
H8465 C8453 0.929 . S
H8466 C8454 0.960 . S
H8467 C8454 0.962 . S
H8468 C8454 0.960 . S
H8469 C8455 0.961 . S
H8470 C8455 0.961 . S
H8471 C8455 0.961 . S
H8472 C8456 0.931 . S
H8473 C8461 0.930 . S
H8474 C8462 0.956 . S
H8475 C8462 0.961 . S
H8476 C8462 0.961 . S
H8477 C8463 0.958 . S
H8478 C8463 0.961 . S
H8479 C8463 0.960 . S
C8480 C8481 1.391 . S
C8480 C8482 1.394 . S
C8480 H8496 0.931 . S
C8481 C8480 1.391 . S
C8481 C8485 1.376 . S
C8482 C8480 1.394 . S
C8482 C8483 1.369 . S
C8482 C8486 1.531 . S
C8483 C8482 1.369 . S
C8483 C8484 1.410 . S
C8483 C8491 1.503 . S
C8484 C8483 1.410 . S
C8484 C8485 1.392 . S
C8484 C8487 1.511 . S
C8485 C8481 1.376 . S
C8485 C8484 1.392 . S
C8485 H8497 0.929 . S
C8486 C8482 1.531 . S
C8486 H8498 0.960 . S
C8486 H8499 0.962 . S
C8486 H8500 0.960 . S
C8487 C8484 1.511 . S
C8487 H8501 0.961 . S
C8487 H8502 0.961 . S
C8487 H8503 0.961 . S
C8488 C8489 1.370 . S
C8488 C8490 1.363 . S
C8488 H8504 0.931 . S
C8489 C8488 1.370 . S
C8489 C8493 1.408 . S
C8490 C8488 1.363 . S
C8490 C8491 1.370 . S
C8490 C8494 1.524 . S
C8491 C8483 1.503 . S
C8491 C8490 1.370 . S
C8491 C8492 1.403 . S
C8492 C8491 1.403 . S
C8492 C8493 1.404 . S
C8492 C8495 1.539 . S
C8493 C8489 1.408 . S
C8493 C8492 1.404 . S
C8493 H8505 0.930 . S
C8494 C8490 1.524 . S
C8494 H8506 0.956 . S
C8494 H8507 0.961 . S
C8494 H8508 0.961 . S
C8495 C8492 1.539 . S
C8495 H8509 0.958 . S
C8495 H8510 0.961 . S
C8495 H8511 0.960 . S
H8496 C8480 0.931 . S
H8497 C8485 0.929 . S
H8498 C8486 0.960 . S
H8499 C8486 0.962 . S
H8500 C8486 0.960 . S
H8501 C8487 0.961 . S
H8502 C8487 0.961 . S
H8503 C8487 0.961 . S
H8504 C8488 0.931 . S
H8505 C8493 0.930 . S
H8506 C8494 0.956 . S
H8507 C8494 0.961 . S
H8508 C8494 0.961 . S
H8509 C8495 0.958 . S
H8510 C8495 0.961 . S
H8511 C8495 0.960 . S
C8512 C8513 1.391 . S
C8512 C8514 1.394 . S
C8512 H8528 0.931 . S
C8513 C8512 1.391 . S
C8513 C8517 1.376 . S
C8514 C8512 1.394 . S
C8514 C8515 1.369 . S
C8514 C8518 1.531 . S
C8515 C8514 1.369 . S
C8515 C8516 1.410 . S
C8515 C8523 1.503 . S
C8516 C8515 1.410 . S
C8516 C8517 1.392 . S
C8516 C8519 1.511 . S
C8517 C8513 1.376 . S
C8517 C8516 1.392 . S
C8517 H8529 0.929 . S
C8518 C8514 1.531 . S
C8518 H8530 0.960 . S
C8518 H8531 0.962 . S
C8518 H8532 0.960 . S
C8519 C8516 1.511 . S
C8519 H8533 0.961 . S
C8519 H8534 0.961 . S
C8519 H8535 0.961 . S
C8520 C8521 1.370 . S
C8520 C8522 1.363 . S
C8520 H8536 0.931 . S
C8521 C8520 1.370 . S
C8521 C8525 1.408 . S
C8522 C8520 1.363 . S
C8522 C8523 1.370 . S
C8522 C8526 1.524 . S
C8523 C8515 1.503 . S
C8523 C8522 1.370 . S
C8523 C8524 1.403 . S
C8524 C8523 1.403 . S
C8524 C8525 1.404 . S
C8524 C8527 1.539 . S
C8525 C8521 1.408 . S
C8525 C8524 1.404 . S
C8525 H8537 0.930 . S
C8526 C8522 1.524 . S
C8526 H8538 0.956 . S
C8526 H8539 0.961 . S
C8526 H8540 0.961 . S
C8527 C8524 1.539 . S
C8527 H8541 0.958 . S
C8527 H8542 0.961 . S
C8527 H8543 0.960 . S
H8528 C8512 0.931 . S
H8529 C8517 0.929 . S
H8530 C8518 0.960 . S
H8531 C8518 0.962 . S
H8532 C8518 0.960 . S
H8533 C8519 0.961 . S
H8534 C8519 0.961 . S
H8535 C8519 0.961 . S
H8536 C8520 0.931 . S
H8537 C8525 0.930 . S
H8538 C8526 0.956 . S
H8539 C8526 0.961 . S
H8540 C8526 0.961 . S
H8541 C8527 0.958 . S
H8542 C8527 0.961 . S
H8543 C8527 0.960 . S
C8544 C8545 1.391 . S
C8544 C8546 1.394 . S
C8544 H8560 0.931 . S
C8545 C8544 1.391 . S
C8545 C8549 1.376 . S
C8546 C8544 1.394 . S
C8546 C8547 1.369 . S
C8546 C8550 1.531 . S
C8547 C8546 1.369 . S
C8547 C8548 1.410 . S
C8547 C8555 1.503 . S
C8548 C8547 1.410 . S
C8548 C8549 1.392 . S
C8548 C8551 1.511 . S
C8549 C8545 1.376 . S
C8549 C8548 1.392 . S
C8549 H8561 0.929 . S
C8550 C8546 1.531 . S
C8550 H8562 0.960 . S
C8550 H8563 0.962 . S
C8550 H8564 0.960 . S
C8551 C8548 1.511 . S
C8551 H8565 0.961 . S
C8551 H8566 0.961 . S
C8551 H8567 0.961 . S
C8552 C8553 1.370 . S
C8552 C8554 1.363 . S
C8552 H8568 0.931 . S
C8553 C8552 1.370 . S
C8553 C8557 1.408 . S
C8554 C8552 1.363 . S
C8554 C8555 1.370 . S
C8554 C8558 1.524 . S
C8555 C8547 1.503 . S
C8555 C8554 1.370 . S
C8555 C8556 1.403 . S
C8556 C8555 1.403 . S
C8556 C8557 1.404 . S
C8556 C8559 1.539 . S
C8557 C8553 1.408 . S
C8557 C8556 1.404 . S
C8557 H8569 0.930 . S
C8558 C8554 1.524 . S
C8558 H8570 0.956 . S
C8558 H8571 0.961 . S
C8558 H8572 0.961 . S
C8559 C8556 1.539 . S
C8559 H8573 0.958 . S
C8559 H8574 0.961 . S
C8559 H8575 0.960 . S
H8560 C8544 0.931 . S
H8561 C8549 0.929 . S
H8562 C8550 0.960 . S
H8563 C8550 0.962 . S
H8564 C8550 0.960 . S
H8565 C8551 0.961 . S
H8566 C8551 0.961 . S
H8567 C8551 0.961 . S
H8568 C8552 0.931 . S
H8569 C8557 0.930 . S
H8570 C8558 0.956 . S
H8571 C8558 0.961 . S
H8572 C8558 0.961 . S
H8573 C8559 0.958 . S
H8574 C8559 0.961 . S
H8575 C8559 0.960 . S
C8576 C8577 1.391 . S
C8576 C8578 1.394 . S
C8576 H8592 0.931 . S
C8577 C8576 1.391 . S
C8577 C8581 1.376 . S
C8578 C8576 1.394 . S
C8578 C8579 1.369 . S
C8578 C8582 1.531 . S
C8579 C8578 1.369 . S
C8579 C8580 1.410 . S
C8579 C8587 1.503 . S
C8580 C8579 1.410 . S
C8580 C8581 1.392 . S
C8580 C8583 1.511 . S
C8581 C8577 1.376 . S
C8581 C8580 1.392 . S
C8581 H8593 0.929 . S
C8582 C8578 1.531 . S
C8582 H8594 0.960 . S
C8582 H8595 0.962 . S
C8582 H8596 0.960 . S
C8583 C8580 1.511 . S
C8583 H8597 0.961 . S
C8583 H8598 0.961 . S
C8583 H8599 0.961 . S
C8584 C8585 1.370 . S
C8584 C8586 1.363 . S
C8584 H8600 0.931 . S
C8585 C8584 1.370 . S
C8585 C8589 1.408 . S
C8586 C8584 1.363 . S
C8586 C8587 1.370 . S
C8586 C8590 1.524 . S
C8587 C8579 1.503 . S
C8587 C8586 1.370 . S
C8587 C8588 1.403 . S
C8588 C8587 1.403 . S
C8588 C8589 1.404 . S
C8588 C8591 1.539 . S
C8589 C8585 1.408 . S
C8589 C8588 1.404 . S
C8589 H8601 0.930 . S
C8590 C8586 1.524 . S
C8590 H8602 0.956 . S
C8590 H8603 0.961 . S
C8590 H8604 0.961 . S
C8591 C8588 1.539 . S
C8591 H8605 0.958 . S
C8591 H8606 0.961 . S
C8591 H8607 0.960 . S
H8592 C8576 0.931 . S
H8593 C8581 0.929 . S
H8594 C8582 0.960 . S
H8595 C8582 0.962 . S
H8596 C8582 0.960 . S
H8597 C8583 0.961 . S
H8598 C8583 0.961 . S
H8599 C8583 0.961 . S
H8600 C8584 0.931 . S
H8601 C8589 0.930 . S
H8602 C8590 0.956 . S
H8603 C8590 0.961 . S
H8604 C8590 0.961 . S
H8605 C8591 0.958 . S
H8606 C8591 0.961 . S
H8607 C8591 0.960 . S
C8608 C8609 1.391 . S
C8608 C8610 1.394 . S
C8608 H8624 0.931 . S
C8609 C8608 1.391 . S
C8609 C8613 1.376 . S
C8610 C8608 1.394 . S
C8610 C8611 1.369 . S
C8610 C8614 1.531 . S
C8611 C8610 1.369 . S
C8611 C8612 1.410 . S
C8611 C8619 1.503 . S
C8612 C8611 1.410 . S
C8612 C8613 1.392 . S
C8612 C8615 1.511 . S
C8613 C8609 1.376 . S
C8613 C8612 1.392 . S
C8613 H8625 0.929 . S
C8614 C8610 1.531 . S
C8614 H8626 0.960 . S
C8614 H8627 0.962 . S
C8614 H8628 0.960 . S
C8615 C8612 1.511 . S
C8615 H8629 0.961 . S
C8615 H8630 0.961 . S
C8615 H8631 0.961 . S
C8616 C8617 1.370 . S
C8616 C8618 1.363 . S
C8616 H8632 0.931 . S
C8617 C8616 1.370 . S
C8617 C8621 1.408 . S
C8618 C8616 1.363 . S
C8618 C8619 1.370 . S
C8618 C8622 1.524 . S
C8619 C8611 1.503 . S
C8619 C8618 1.370 . S
C8619 C8620 1.403 . S
C8620 C8619 1.403 . S
C8620 C8621 1.404 . S
C8620 C8623 1.539 . S
C8621 C8617 1.408 . S
C8621 C8620 1.404 . S
C8621 H8633 0.930 . S
C8622 C8618 1.524 . S
C8622 H8634 0.956 . S
C8622 H8635 0.961 . S
C8622 H8636 0.961 . S
C8623 C8620 1.539 . S
C8623 H8637 0.958 . S
C8623 H8638 0.961 . S
C8623 H8639 0.960 . S
H8624 C8608 0.931 . S
H8625 C8613 0.929 . S
H8626 C8614 0.960 . S
H8627 C8614 0.962 . S
H8628 C8614 0.960 . S
H8629 C8615 0.961 . S
H8630 C8615 0.961 . S
H8631 C8615 0.961 . S
H8632 C8616 0.931 . S
H8633 C8621 0.930 . S
H8634 C8622 0.956 . S
H8635 C8622 0.961 . S
H8636 C8622 0.961 . S
H8637 C8623 0.958 . S
H8638 C8623 0.961 . S
H8639 C8623 0.960 . S
C4033 C67 3.383 . S
C4041 C403 3.377 . S
C4065 C151 3.389 . S
C4073 C487 3.388 . S
C4097 C571 3.312 . S
C4105 C231 3.351 . S
C4129 C651 3.356 . S
C4137 C319 3.313 . S
C4161 C739 3.437 . S
C4169 C823 3.438 . S
C4193 C819 3.253 . S
C4201 C903 3.269 1_545 S
C4225 C987 3.328 . S
C4233 C907 3.286 . S
C4257 C991 3.383 . S
C4265 C735 3.419 . S
C4289 C1071 3.278 . S
C4297 C315 3.298 . S
C4321 C655 3.201 . S
C4329 C2835 3.256 . S
C4353 C399 3.253 . S
C4361 C1155 3.273 1_455 S
C4385 C483 3.264 . S
C4393 C2923 3.227 . S
C4417 C147 3.294 . S
C4425 C1239 3.289 . S
C4449 C2671 3.245 . S
C4457 C63 3.277 . S
C4481 C2583 3.273 . S
C4489 C235 3.226 . S
C4513 C1652 3.386 . S
C4521 C1316 3.393 . S
C4545 C1400 3.439 . S
C4553 C1736 3.440 . S
C4577 C1502 3.349 . S
C4585 C1820 3.300 . S
C4609 C1568 3.311 1_554 S
C4617 C1922 3.348 . S
C4641 C2090 3.418 . S
C4649 C1988 3.382 . S
C4673 C2072 3.291 . S
C4681 C2174 3.336 1_565 S
C4705 C2258 3.319 . S
C4713 C2156 3.287 . S
C4737 C2006 3.418 . S
C4745 C2240 3.382 . S
C4769 C1586 3.289 . S
C4777 C2342 3.290 . S
C4801 C3602 3.264 . S
C4809 C1904 3.230 . S
C4833 C2426 3.275 . S
C4841 C1670 3.299 . S
C4865 C1754 3.234 . S
C4873 C3668 3.195 . S
C4897 C2510 3.276 . S
C4905 C1418 3.268 . S
C4929 C1334 3.291 . S
C4937 C3416 3.258 . S
C4961 C1484 3.208 . S
C4969 C3350 3.272 . S
C4993 C2755 3.365 . S
C5001 C2587 3.377 . S
C5025 C2839 3.387 . S
C5033 C1075 3.388 1_556 S
C5057 C2667 3.345 . S
C5065 C1159 3.310 . S
C5089 C2919 3.359 . S
C5097 C1243 3.321 . S
C5121 C3007 3.376 . S
C5129 C3087 3.422 . S
C5153 C3091 3.285 . S
C5161 C3171 3.338 . S
C5185 C3255 3.334 . S
C5193 C3175 3.288 . S
C5217 C3003 3.402 . S
C5225 C3259 3.372 . S
C5249 C567 3.271 . S
C5257 C2751 3.269 . S
C5281 C3500 3.375 . S
C5289 C3332 3.385 . S
C5313 C3584 3.390 . S
C5321 C2324 3.390 . S
C5345 C2408 3.256 . S
C5353 C3434 3.296 . S
C5377 C3686 3.336 . S
C5385 C2492 3.313 . S
C5409 C3752 3.381 . S
C5417 C3854 3.415 . S
C5441 C3836 3.299 . S
C5449 C3938 3.329 . S
C5473 C3920 3.288 . S
C5481 C4022 3.330 . S
C5505 C4004 3.377 . S
C5513 C3770 3.423 . S
C5537 C3518 3.255 . S
C5545 C1838 3.275 . S
C5569 C56 0.848 . S
C5577 C1414 0.726 . S
C5601 C3418 0.887 . S
C5609 C140 0.779 . S
C5633 C242 0.716 . S
C5641 C1582 0.785 . S
C5665 C308 0.801 . S
C5673 C3346 0.745 . S
C5697 C392 0.731 . S
C5705 C1906 0.854 . S
C5729 C476 0.763 . S
C5737 C3514 0.791 . S
C5761 C560 0.842 . S
C5769 C1750 0.741 . S
C5793 C2422 0.840 . S
C5801 C662 0.729 . S
C5825 C728 0.849 . S
C5833 C3334 0.747 . S
C5857 C830 0.648 . S
C5865 C1402 0.734 . S
C5889 C896 0.734 . S
C5897 C3430 0.825 . S
C5921 C1570 0.741 . S
C5929 C980 0.818 . S
C5953 C3502 0.770 . S
C5961 C998 0.717 . S
C5985 C1738 0.645 . S
C5993 C746 0.729 . S
C6017 C812 0.820 . S
C6025 C2410 0.808 . S
C6049 C1918 0.767 . S
C6057 C914 0.772 . S
C6081 C3754 0.718 . S
C6089 C1082 0.774 . S
C6113 C2254 0.855 . S
C6121 C644 0.727 . S
C6145 C410 0.789 . S
C6153 C3766 0.693 . S
C6177 C494 0.631 . S
C6185 C2086 0.745 . S
C6209 C1166 0.726 . S
C6217 C2170 0.702 . S
C6241 C3922 0.750 . S
C6249 C1250 0.809 . S
C6273 C74 0.673 . S
C6281 C4006 0.704 . S
C6305 C224 0.869 . S
C6313 C3838 0.817 . S
C6337 C142 0.708 . S
C6345 C1327 0.744 . S
C6369 C1411 0.874 . S
C6377 C2674 0.792 . S
C6401 C1491 0.667 . S
C6409 C310 0.710 . S
C6433 C1579 0.704 . S
C6441 C2578 0.813 . S
C6465 C658 0.756 . S
C6473 C1663 0.835 . S
C6497 C2746 0.689 . S
C6505 C1747 0.758 . S
C6529 C478 0.823 . S
C6537 C1831 0.747 . S
C6561 C1911 0.735 . S
C6569 C1150 0.788 . S
C6593 C1999 0.706 . S
C6601 C2590 0.767 . S
C6625 C154 0.705 . S
C6633 C2083 0.794 . S
C6657 C2167 0.732 . S
C6665 C2662 0.739 . S
C6689 C322 0.816 . S
C6697 C2251 0.843 . S
C6721 C2758 0.695 . S
C6729 C2247 0.711 . S
C6753 C1995 0.651 . S
C6761 C490 0.720 . S
C6785 C2079 0.785 . S
C6793 C1162 0.807 . S
C6817 C646 0.827 . S
C6825 C2163 0.720 . S
C6849 C2331 0.699 . S
C6857 C3010 0.710 . S
C6881 C982 0.855 . S
C6889 C1915 0.750 . S
C6913 C2998 0.711 . S
C6921 C1659 0.745 . S
C6945 C1743 0.745 . S
C6953 C826 0.754 . S
C6977 C2415 0.712 . S
C6985 C898 0.784 . S
C7009 C3178 0.708 . S
C7017 C2499 0.747 . S
C7041 C1323 0.705 . S
C7049 C3262 0.701 . S
C7073 C3094 0.824 . S
C7081 C1495 0.757 . S
C7105 C2338 0.768 . S
C7113 C2576 0.732 . S
C7137 C1064 0.786 . S
C7145 C1486 0.798 . S
C7169 C2506 0.739 . S
C7177 C2678 0.699 . S
C7201 C1232 0.791 . S
C7209 C1330 0.793 . S
C7233 C2744 0.823 . S
C7241 C3670 0.865 . S
C7265 C1666 0.850 . S
C7273 C2828 0.756 . S
C7297 C1148 0.692 . S
C7305 C3598 0.815 . S
C7329 C1834 0.831 . S
C7337 C2930 0.770 . S
C7361 C2996 0.719 . S
C7369 C1318 0.768 . S
C7393 C3080 0.868 . S
C7401 C2326 0.784 . S
C7425 C3164 0.683 . S
C7433 C1498 0.779 . S
C7457 C2494 0.892 . S
C7465 C3248 0.796 . S
C7489 C1654 0.817 . S
C7497 C3266 0.788 . S
C7521 C3014 0.819 . S
C7529 C3586 0.739 . S
C7553 C1822 0.862 . S
C7561 C3098 0.803 . S
C7585 C3182 0.637 . S
C7593 C3682 0.737 . S
C7617 C158 0.686 . S
C7625 C1990 0.709 . S
C7649 C4018 0.823 . S
C7657 C2912 0.725 . S
C7681 C2762 0.797 . S
C7689 C2002 0.709 . S
C7713 C2846 0.780 . S
C7721 C3850 0.728 . S
C7745 C3934 0.823 . S
C7753 C578 0.716 . S
C7777 C2158 0.832 . S
C7785 C326 0.763 . S
C7809 C2594 0.659 . S
C7817 C2242 0.700 . S
C7841 C2074 0.741 . S
C7849 C2660 0.785 . S
C7873 C1066 0.766 . S
C7881 C3343 0.727 . S
C7905 C2335 0.741 . S
C7913 C238 0.846 . S
C7937 C1234 0.671 . S
C7945 C3423 0.763 . S
C7969 C2503 0.847 . S
C7977 C58 0.780 . S
C8001 C3511 0.739 . S
C8009 C2926 0.850 . S
C8033 C394 0.740 . S
C8041 C3595 0.803 . S
C8065 C2830 0.689 . S
C8073 C2419 0.820 . S
C8097 C562 0.652 . S
C8105 C3675 0.757 . S
C8129 C70 0.703 . S
C8137 C3763 0.774 . S
C8161 C3847 0.717 . S
C8169 C1078 0.766 . S
C8193 C226 0.687 . S
C8201 C3931 0.804 . S
C8225 C1246 0.761 . S
C8233 C4015 0.835 . S
C8257 C406 0.828 . S
C8265 C4011 0.788 . S
C8289 C2842 0.714 . S
C8297 C3759 0.764 . S
C8321 C3843 0.821 . S
C8329 C574 0.768 . S
C8353 C2914 0.830 . S
C8361 C3927 0.750 . S
C8385 C742 0.705 . S
C8393 C1407 0.753 . S
C8417 C3679 0.825 . S
C8425 C3250 0.717 . S
C8449 C3507 0.667 . S
C8457 C730 0.672 . S
C8481 C3082 0.655 . S
C8489 C3591 0.659 . S
C8513 C1827 0.821 . S
C8521 C3166 0.734 . S
C8545 C1575 0.848 . S
C8553 C910 0.824 . S
C8577 C994 0.749 . S
C8585 C3339 0.710 . S
C8609 C814 0.862 . S
C8617 C3427 0.758 . S
