# Generated by pormake.
# Topology bsn, (6)-cn, num edge types: 1
# Building blocks:
#     Node 0, Type 0, BuildingBlock: UKALOJ_clean_sbu_0, # of connection points: 6
#     Node 1, Type 0, BuildingBlock: UKALOJ_clean_sbu_0, # of connection points: 6
#     Node 2, Type 0, BuildingBlock: UKALOJ_clean_sbu_0, # of connection points: 6
#     Node 3, Type 0, BuildingBlock: UKALOJ_clean_sbu_0, # of connection points: 6
#     Edge 4, Type (0, 0), BuildingBlock: FUNLAD_clean_linker_0, # of connection points: 2
#     Edge 5, Type (0, 0), BuildingBlock: FUNLAD_clean_linker_0, # of connection points: 2
#     Edge 6, Type (0, 0), BuildingBlock: FUNLAD_clean_linker_0, # of connection points: 2
#     Edge 7, Type (0, 0), BuildingBlock: FUNLAD_clean_linker_0, # of connection points: 2
#     Edge 8, Type (0, 0), BuildingBlock: FUNLAD_clean_linker_0, # of connection points: 2
#     Edge 9, Type (0, 0), BuildingBlock: FUNLAD_clean_linker_0, # of connection points: 2
#     Edge 10, Type (0, 0), BuildingBlock: FUNLAD_clean_linker_0, # of connection points: 2
#     Edge 11, Type (0, 0), BuildingBlock: FUNLAD_clean_linker_0, # of connection points: 2
#     Edge 12, Type (0, 0), BuildingBlock: FUNLAD_clean_linker_0, # of connection points: 2
#     Edge 13, Type (0, 0), BuildingBlock: FUNLAD_clean_linker_0, # of connection points: 2
#     Edge 14, Type (0, 0), BuildingBlock: FUNLAD_clean_linker_0, # of connection points: 2
#     Edge 15, Type (0, 0), BuildingBlock: FUNLAD_clean_linker_0, # of connection points: 2
# Relax obj value: 0.167
# Max RMSD: 0.166
# Mean RMSD: 0.154
data_MOF--net-bsn--node1-UKALOJ_clean_sbu_0--edge1-FUNLAD_clean_linker_0
_symmetry_space_group_name_H-M    P1
_symmetry_Int_Tables_number       1
_symmetry_cell_setting            triclinic
loop_
_symmetry_equiv_pos_as_xyz
'x, y, z'
_cell_length_a     35.856329
_cell_length_b     40.960742
_cell_length_c     17.653747
_cell_angle_alpha  90.101854
_cell_angle_beta   96.629446
_cell_angle_gamma 90.568082
loop_
_atom_site_label
_atom_site_type_symbol
_atom_site_fract_x
_atom_site_fract_y
_atom_site_fract_z
_atom_type_partial_charge
Zn0 Zn 0.04083 0.31113 0.31361 0.0
O1 O 0.98161 0.31596 0.31306 0.0
C2 C 0.04832 0.28079 0.46592 0.0
Zn3 Zn 0.03911 0.25624 0.3074 0.0
C4 C 0.96314 0.28918 0.31064 0.0
O5 O 0.98054 0.26235 0.30814 0.0
C6 C 0.11677 0.27771 0.31035 0.0
O7 O 0.03262 0.2591 0.18815 0.0
O8 O 0.03428 0.31267 0.19439 0.0
N9 N 0.03011 0.20635 0.29973 0.0
C10 C 0.04852 0.1798 0.32943 0.0
C11 C 0.99814 0.16284 0.26495 0.0
N12 N 0.99893 0.19559 0.25958 0.0
N13 N 0.02894 0.15212 0.30832 0.0
C14 C 0.03616 0.38713 0.35038 0.0
C15 C 0.08 0.40483 0.28908 0.0
N16 N 0.05005 0.36112 0.3159 0.0
N17 N 0.07711 0.37239 0.27771 0.0
N18 N 0.0546 0.4149 0.33438 0.0
H19 H 1.00442 0.36001 0.42609 0.0
H20 H 0.97868 0.39055 0.36939 0.0
H21 H 1.0114 0.403 0.4494 0.0
C22 C 1.0061 0.38494 0.40236 0.0
C23 C 0.08439 0.18128 0.38198 0.0
H24 H 0.08776 0.20521 0.41143 0.0
H25 H 0.10832 0.17816 0.34808 0.0
H26 H 0.0852 0.16141 0.42475 0.0
O27 O 0.09777 0.25126 0.30666 0.0
O28 O 0.0999 0.30479 0.31384 0.0
C29 C 0.03148 0.28663 0.15498 0.0
O30 O 0.04737 0.30838 0.43279 0.0
O31 O 0.04547 0.25466 0.4266 0.0
Zn32 Zn 0.99865 0.78263 0.37185 0.0
O33 O 0.99764 0.73072 0.38107 0.0
C34 C 0.02831 0.78919 0.53529 0.0
Zn35 Zn 0.06101 0.78246 0.39185 0.0
C36 C 0.02787 0.71465 0.39351 0.0
O37 O 0.05907 0.73011 0.40145 0.0
C38 C 0.0311 0.85025 0.3675 0.0
O39 O 0.06171 0.77783 0.27412 0.0
O40 O 0.99997 0.77773 0.25442 0.0
N41 N 0.11823 0.78108 0.40873 0.0
C42 C 0.14315 0.79599 0.461 0.0
C43 C 0.17362 0.7628 0.399 0.0
N44 N 0.13724 0.76058 0.37008 0.0
N45 N 0.1781 0.78465 0.45664 0.0
C46 C 0.91664 0.77209 0.40429 0.0
C47 C 0.88715 0.80551 0.32755 0.0
N48 N 0.94131 0.78395 0.35879 0.0
N49 N 0.92277 0.80433 0.31036 0.0
N50 N 0.88249 0.78542 0.38622 0.0
H51 H 0.95609 0.74232 0.47718 0.0
H52 H 0.90892 0.72765 0.46486 0.0
H53 H 0.92065 0.76253 0.52457 0.0
C54 C 0.92657 0.75006 0.47146 0.0
C55 C 0.13346 0.82256 0.51384 0.0
H56 H 0.10828 0.83597 0.49003 0.0
H57 H 0.1572 0.84012 0.52548 0.0
H58 H 0.12745 0.81165 0.56855 0.0
O59 O 0.06179 0.83479 0.38024 0.0
O60 O 1.00032 0.83425 0.36111 0.0
C61 C 0.03158 0.77627 0.22861 0.0
O62 O 0.99837 0.7885 0.48963 0.0
O63 O 0.05966 0.78668 0.50943 0.0
Zn64 Zn 0.57363 0.80947 0.80887 0.0
O65 O 0.51415 0.81043 0.793 0.0
C66 C 0.57237 0.7876 -0.03425 0.0
Zn67 Zn 0.57218 0.75524 0.81571 0.0
C68 C 0.49576 0.78368 0.79011 0.0
O69 O 0.51332 0.75698 0.79985 0.0
C70 C 0.64998 0.7803 0.82436 0.0
O71 O 0.57256 0.75149 0.69793 0.0
O72 O 0.57355 0.80513 0.69151 0.0
N73 N 0.5687 0.70564 0.82513 0.0
C74 C 0.58119 0.68585 0.88329 0.0
C75 C 0.54593 0.65717 0.80301 0.0
N76 N 0.54703 0.68772 0.77497 0.0
N77 N 0.56694 0.65544 0.87123 0.0
C78 C 0.55832 0.88289 0.83424 0.0
C79 C 0.60198 0.90589 0.7808 0.0
N80 N 0.57679 0.85914 0.80144 0.0
N81 N 0.60372 0.87353 0.76774 0.0
N82 N 0.57347 0.91234 0.82172 0.0
H83 H 0.50105 0.88751 0.85505 0.0
H84 H 0.53427 0.8908 0.93861 0.0
H85 H 0.52297 0.85138 0.89588 0.0
C86 C 0.52757 0.87743 0.88391 0.0
C87 C 0.60857 0.69579 0.95031 0.0
H88 H 0.62684 0.71614 0.9355 0.0
H89 H 0.62625 0.67478 -0.02922 0.0
H90 H 0.59311 0.7039 -0.0024 0.0
O91 O 0.63124 0.75394 0.82732 0.0
O92 O 0.63284 0.80737 0.82049 0.0
C93 C 0.57342 0.77745 0.65891 0.0
O94 O 0.57448 0.81326 0.9266 0.0
O95 O 0.57116 0.75994 0.93323 0.0
Zn96 Zn 0.54092 0.25082 0.27226 0.0
O97 O 0.54789 0.25083 0.3915 0.0
C98 C 0.461 0.27045 0.27488 0.0
Zn99 Zn 0.53461 0.30483 0.27498 0.0
C100 C 0.54697 0.27716 0.42933 0.0
O101 O 0.54174 0.30417 0.39455 0.0
C102 C 0.52835 0.27823 0.11776 0.0
O103 O 0.59356 0.31031 0.2757 0.0
O104 O 0.59995 0.25722 0.27206 0.0
N105 N 0.52883 0.35449 0.27455 0.0
C106 C 0.53903 0.37668 0.22434 0.0
C107 C 0.51031 0.40231 0.30498 0.0
N108 N 0.51115 0.37047 0.32492 0.0
N109 N 0.52749 0.40663 0.24181 0.0
C110 C 0.53443 0.17848 0.21976 0.0
C111 C 0.57565 0.15565 0.29825 0.0
N112 N 0.54814 0.20139 0.27075 0.0
N113 N 0.57354 0.18709 0.31979 0.0
N114 N 0.5516 0.14964 0.2352 0.0
H115 H 0.48395 0.20318 0.17339 0.0
H116 H 0.48675 0.1611 0.14419 0.0
H117 H 0.51481 0.19204 0.105 0.0
C118 C 0.50306 0.18399 0.1573 0.0
C119 C 0.56129 0.36961 0.15926 0.0
H120 H 0.57853 0.34753 0.16944 0.0
H121 H 0.57995 0.39062 0.14975 0.0
H122 H 0.54175 0.36597 0.10649 0.0
O123 O 0.52669 0.30446 0.15532 0.0
O124 O 0.53444 0.25155 0.15299 0.0
C125 C 0.61462 0.28564 0.274 0.0
O126 O 0.48165 0.24539 0.27355 0.0
O127 O 0.47605 0.29872 0.2756 0.0
C128 C 1.01679 0.46385 0.35669 0.0
C129 C 0.05158 0.44805 0.36069 0.0
C130 C 1.01509 0.4974 0.37318 0.0
C131 C 0.04827 0.51573 0.39414 0.0
C132 C 0.08274 0.49939 0.40083 0.0
C133 C 0.0844 0.46616 0.38366 0.0
C134 C 0.04889 0.55177 0.40869 0.0
C135 C 1.02127 0.57242 0.38218 0.0
C136 C 0.024 0.60883 0.39053 0.0
C137 C 0.99085 0.62714 0.38114 0.0
C138 C 0.99209 0.66134 0.38387 0.0
C139 C 0.02663 0.67827 0.39539 0.0
H140 H 0.085 0.61298 0.40822 0.0
C141 C 0.05986 0.66004 0.40547 0.0
C142 C 0.05863 0.6258 0.4029 0.0
H143 H 0.08698 0.67222 0.41387 0.0
H144 H 0.99111 0.45057 0.33812 0.0
H145 H 0.98783 0.50874 0.36898 0.0
H146 H 0.10876 0.51259 0.41732 0.0
H147 H 0.11156 0.45459 0.38713 0.0
H148 H 0.07433 0.56172 0.43989 0.0
H149 H 0.99559 0.5626 0.35166 0.0
H150 H 0.96378 0.61495 0.37098 0.0
H151 H 0.96588 0.6745 0.37572 0.0
C152 C 0.70745 0.80801 0.7875 0.0
C153 C 0.6892 0.77911 0.80638 0.0
C154 C 0.73855 0.80669 0.74682 0.0
C155 C 0.7519 0.77642 0.72428 0.0
C156 C 0.73666 0.74766 0.75149 0.0
C157 C 0.70547 0.74894 0.79206 0.0
C158 C 0.77927 0.77396 0.66769 0.0
C159 C 0.78051 0.79586 0.61111 0.0
C160 C 0.80487 0.7923 0.54936 0.0
C161 C 0.81796 0.82054 0.51573 0.0
C162 C 0.84206 0.81818 0.45931 0.0
C163 C 0.85309 0.7875 0.4348 0.0
H164 H 0.80317 0.73928 0.54394 0.0
C165 C 0.83798 0.75922 0.4646 0.0
C166 C 0.81423 0.76154 0.5218 0.0
H167 H 0.845 0.73535 0.44447 0.0
H168 H 0.69608 0.83168 0.79894 0.0
H169 H 0.7509 0.8294 0.73008 0.0
H170 H 0.74705 0.72404 0.73639 0.0
H171 H 0.69239 0.72621 0.80664 0.0
H172 H 0.79655 0.75229 0.66908 0.0
H173 H 0.76308 0.81744 0.60937 0.0
H174 H 0.81055 0.8445 0.53493 0.0
H175 H 0.85337 0.84033 0.43709 0.0
C176 C 0.54755 0.46386 0.2308 0.0
C177 C 0.52938 0.43594 0.19823 0.0
C178 C 0.55265 0.49127 0.18576 0.0
C179 C 0.53901 0.49124 0.10744 0.0
C180 C 0.51982 0.46342 0.07611 0.0
C181 C 0.51502 0.4361 0.12101 0.0
C182 C 0.54497 0.51883 0.0553 0.0
C183 C 0.55758 0.54871 0.07832 0.0
C184 C 0.56181 0.57584 0.02418 0.0
C185 C 0.55816 0.608 0.04939 0.0
C186 C 0.56039 0.63413 -0.00048 0.0
C187 C 0.56716 0.6287 0.92376 0.0
H188 H 0.57331 0.54602 0.92748 0.0
C189 C 0.57147 0.59664 0.89859 0.0
C190 C 0.56917 0.5704 0.94845 0.0
H191 H 0.57659 0.59198 0.8403 0.0
H192 H 0.55897 0.46392 0.29033 0.0
H193 H 0.56812 0.5118 0.21249 0.0
H194 H 0.50887 0.46261 0.01628 0.0
H195 H 0.50049 0.41482 0.09529 0.0
H196 H 0.5372 0.51445 -0.00518 0.0
H197 H 0.56267 0.55449 0.13859 0.0
H198 H 0.55244 0.61289 0.10726 0.0
H199 H 0.55549 0.6585 0.0196 0.0
C200 C 0.90038 0.31709 0.3056 0.0
C201 C 0.92176 0.28841 0.31092 0.0
C202 C 0.8612 0.31551 0.3049 0.0
C203 C 0.84273 0.28514 0.30976 0.0
C204 C 0.86433 0.25671 0.31624 0.0
C205 C 0.90319 0.25826 0.31639 0.0
C206 C 0.80135 0.28154 0.30999 0.0
C207 C 0.77591 0.3038 0.28221 0.0
C208 C 0.73459 0.29842 0.28 0.0
C209 C 0.71093 0.32558 0.27855 0.0
C210 C 0.67202 0.32147 0.27647 0.0
C211 C 0.6558 0.29003 0.27507 0.0
H212 H 0.73514 0.2453 0.27496 0.0
C213 C 0.67936 0.26283 0.2749 0.0
C214 C 0.71824 0.26693 0.27702 0.0
H215 H 0.66779 0.23827 0.27295 0.0
H216 H 0.91388 0.34071 0.30181 0.0
H217 H 0.84576 0.3381 0.30174 0.0
H218 H 0.85103 0.23301 0.32056 0.0
H219 H 0.91866 0.23563 0.321 0.0
H220 H 0.79156 0.2588 0.33264 0.0
H221 H 0.78531 0.32689 0.26065 0.0
H222 H 0.72261 0.3501 0.2798 0.0
H223 H 0.65468 0.34299 0.2761 0.0
C224 C 0.39732 0.29489 0.27605 0.0
C225 C 0.41984 0.267 0.27608 0.0
C226 C 0.35859 0.292 0.27795 0.0
C227 C 0.34133 0.26105 0.28074 0.0
C228 C 0.36373 0.23315 0.27926 0.0
C229 C 0.40258 0.23605 0.27726 0.0
C230 C 0.30004 0.25708 0.2826 0.0
C231 C 0.27868 0.28026 0.31004 0.0
C232 C 0.23712 0.27813 0.30956 0.0
C233 C 0.21759 0.30719 0.31823 0.0
C234 C 0.17868 0.30693 0.31834 0.0
C235 C 0.15815 0.27748 0.31045 0.0
H236 H 0.23059 0.22542 0.29731 0.0
C237 C 0.17758 0.24821 0.30269 0.0
C238 C 0.21668 0.24849 0.30223 0.0
H239 H 0.16262 0.22508 0.29702 0.0
H240 H 0.40957 0.31912 0.27418 0.0
H241 H 0.34236 0.31416 0.2758 0.0
H242 H 0.3512 0.209 0.28035 0.0
H243 H 0.41906 0.21404 0.27684 0.0
H244 H 0.28728 0.2343 0.26092 0.0
H245 H 0.29202 0.30263 0.333 0.0
H246 H 0.23249 0.33037 0.32441 0.0
H247 H 0.16473 0.32994 0.32473 0.0
C248 C 0.43484 0.81229 0.7539 0.0
C249 C 0.45505 0.78311 0.7648 0.0
C250 C 0.39805 0.81186 0.71754 0.0
C251 C 0.38108 0.78224 0.69107 0.0
C252 C 0.40069 0.75306 0.70502 0.0
C253 C 0.43714 0.75341 0.74223 0.0
C254 C 0.34462 0.78114 0.64255 0.0
C255 C 0.31682 0.80232 0.64897 0.0
C256 C 0.2811 0.79974 0.59847 0.0
C257 C 0.24704 0.80095 0.62983 0.0
C258 C 0.21315 0.79609 0.58352 0.0
C259 C 0.21266 0.79135 0.50442 0.0
H260 H 0.30685 0.79423 0.494 0.0
C261 C 0.24688 0.79087 0.47302 0.0
C262 C 0.28082 0.79493 0.51958 0.0
H263 H 0.24733 0.78703 0.41243 0.0
H264 H 0.44795 0.83556 0.77053 0.0
H265 H 0.38381 0.83485 0.70659 0.0
H266 H 0.38815 0.72995 0.68514 0.0
H267 H 0.4519 0.73048 0.74963 0.0
H268 H 0.34003 0.76134 0.60125 0.0
H269 H 0.31919 0.82016 0.69493 0.0
H270 H 0.24674 0.80424 0.69068 0.0
H271 H 0.18762 0.79485 0.61041 0.0
C272 C 0.59596 0.95708 0.90801 0.0
C273 C 0.56703 0.94258 0.85873 0.0
C274 C 0.58908 0.98488 0.94983 0.0
C275 C 0.55315 0.99883 0.94226 0.0
C276 C 0.52463 0.98502 0.89053 0.0
C277 C 0.5314 0.95681 0.84973 0.0
C278 C 0.54529 1.02822 -0.01357 0.0
C279 C 0.56049 0.03281 0.05906 0.0
C280 C 0.55491 0.06288 0.10297 0.0
C281 C 0.55699 0.06131 0.18277 0.0
C282 C 0.55456 0.08971 0.22593 0.0
C283 C 0.55033 0.12024 0.19012 0.0
H284 H 0.55045 0.0957 0.00596 0.0
C285 C 0.54869 0.12179 0.11028 0.0
C286 C 0.5506 0.09343 0.06708 0.0
H287 H 0.54769 0.145 0.08119 0.0
H288 H 0.62359 0.94631 0.91557 0.0
H289 H 0.61191 0.99552 -0.01228 0.0
H290 H 0.49689 0.99563 0.88306 0.0
H291 H 0.50888 0.94595 0.81143 0.0
H292 H 0.52546 0.04574 0.95947 0.0
H293 H 0.57715 1.01355 0.08811 0.0
H294 H 0.56086 0.0381 0.21182 0.0
H295 H 0.55657 0.08795 0.28746 0.0
C296 C 0.064 0.90527 0.37276 0.0
C297 C 0.03072 0.88649 0.36072 0.0
C298 C 0.063 0.9395 0.36707 0.0
C299 C 0.02858 0.95571 0.34902 0.0
C300 C 0.99555 0.93673 0.33673 0.0
C301 C 0.99654 0.90274 0.34261 0.0
C302 C 0.02502 0.99202 0.34164 0.0
C303 C 0.05301 1.01425 0.35757 0.0
C304 C 0.04695 0.05027 0.34937 0.0
C305 C 0.07709 0.07093 0.33587 0.0
C306 C 0.07176 0.1046 0.32467 0.0
C307 C 0.0362 0.11835 0.32763 0.0
H308 H 0.98808 0.04989 0.36867 0.0
C309 C 1.00645 0.09791 0.34367 0.0
C310 C 1.01174 0.06444 0.35513 0.0
H311 H 0.97884 0.10793 0.34691 0.0
H312 H 0.09084 0.89354 0.38685 0.0
H313 H 0.08927 0.95284 0.37654 0.0
H314 H 0.96857 0.94827 0.32267 0.0
H315 H 0.97031 0.88919 0.33287 0.0
H316 H 0.99723 1.00077 0.321 0.0
H317 H 0.08142 1.00624 0.37491 0.0
H318 H 0.10461 0.06086 0.3318 0.0
H319 H 0.09505 0.11959 0.31095 0.0
C320 C 0.0284 0.25965 0.02777 0.0
C321 C 0.02846 0.28836 0.07134 0.0
C322 C 0.02819 0.26134 0.94896 0.0
C323 C 0.02823 0.29181 0.91247 0.0
C324 C 0.02654 0.32041 0.95552 0.0
C325 C 0.02689 0.31875 0.03442 0.0
C326 C 0.03015 0.2946 0.82977 0.0
C327 C 0.04838 0.27285 0.79085 0.0
C328 C 0.0505 0.27566 0.7082 0.0
C329 C 0.05287 0.24708 0.66536 0.0
C330 C 0.05292 0.24873 0.58654 0.0
C331 C 0.05103 0.2791 0.5495 0.0
H332 H 0.04993 0.32872 0.70337 0.0
C333 C 0.05036 0.3078 0.59287 0.0
C334 C 0.05021 0.30613 0.67159 0.0
H335 H 0.04937 0.33159 0.56598 0.0
H336 H 0.02907 0.23585 0.05455 0.0
H337 H 0.02796 0.23876 0.91698 0.0
H338 H 0.02602 0.34413 0.92831 0.0
H339 H 0.02655 0.3413 0.06649 0.0
H340 H 1.01716 0.31575 0.80108 0.0
H341 H 0.06137 0.25171 0.81963 0.0
H342 H 0.05368 0.22338 0.69265 0.0
H343 H 0.05383 0.22619 0.55462 0.0
C344 C 0.059 0.7881 0.66906 0.0
C345 C 0.02645 0.7918 0.61768 0.0
C346 C 0.05691 0.7887 0.74724 0.0
C347 C 1.0221 0.79267 0.77529 0.0
C348 C 0.98984 0.79772 0.72407 0.0
C349 C 0.99193 0.79714 0.64579 0.0
C350 C 1.01848 0.79157 0.85753 0.0
C351 C 0.04128 0.77364 0.90641 0.0
C352 C 0.03777 0.77272 -0.01139 0.0
C353 C 0.07028 0.76901 0.03983 0.0
C354 C 0.06823 0.76973 0.11808 0.0
C355 C 0.03346 0.77372 0.1462 0.0
H356 H 0.97702 0.77719 -0.02164 0.0
C357 C 1.00069 0.77606 0.09481 0.0
C358 C 1.00279 0.77552 0.01659 0.0
H359 H 0.97345 0.77876 0.1149 0.0
H360 H 0.08603 0.78417 0.64906 0.0
H361 H 0.08261 0.78607 0.78527 0.0
H362 H 0.96283 0.8013 0.74458 0.0
H363 H 0.96643 0.80048 0.60743 0.0
H364 H 0.99571 0.80522 0.87763 0.0
H365 H 0.06406 0.75995 0.88655 0.0
H366 H 0.09744 0.7664 0.01929 0.0
H367 H 0.09394 0.76753 0.15642 0.0
C368 C 0.56084 0.7622 0.08853 0.0
C369 C 0.57055 0.78984 0.04803 0.0
C370 C 0.55947 0.76404 0.16671 0.0
C371 C 0.56798 0.79358 0.20572 0.0
C372 C 0.57637 0.82149 0.16496 0.0
C373 C 0.57781 0.81965 0.08658 0.0
C374 C 0.56788 0.79601 0.28875 0.0
C375 C 0.57767 0.77088 0.33538 0.0
C376 C 0.57754 0.773 0.41855 0.0
C377 C 0.57172 0.74441 0.45926 0.0
C378 C 0.57037 0.74572 0.53774 0.0
C379 C 0.57502 0.7757 0.57648 0.0
H380 H 0.58958 0.82513 0.42884 0.0
C381 C 0.58184 0.80416 0.53599 0.0
C382 C 0.58337 0.80282 0.45781 0.0
H383 H 0.58629 0.82752 0.56469 0.0
H384 H 0.55385 0.7392 0.05983 0.0
H385 H 0.55126 0.74241 0.19608 0.0
H386 H 0.58251 0.84459 0.19402 0.0
H387 H 0.58493 0.84145 0.05643 0.0
H388 H 0.56036 0.81936 0.31151 0.0
H389 H 0.58523 0.74761 0.31207 0.0
H390 H 0.56761 0.72112 0.43012 0.0
H391 H 0.56537 0.72335 0.5678 0.0
C392 C 0.54262 0.30383 0.55498 0.0
C393 C 0.55041 0.27607 0.51304 0.0
C394 C 0.5432 0.30208 0.6339 0.0
C395 C 0.5516 0.27249 0.67205 0.0
C396 C 0.56108 0.24521 0.63061 0.0
C397 C 0.56021 0.24687 0.55163 0.0
C398 C 0.55061 0.26928 0.7549 0.0
C399 C 0.5261 0.28573 0.79229 0.0
C400 C 0.52469 0.28242 0.87513 0.0
C401 C 0.51218 0.30887 0.91549 0.0
C402 C 0.51248 0.30727 -0.00559 0.0
C403 C 0.52507 0.27904 0.03408 0.0
H404 H 0.54388 0.23218 0.88477 0.0
C405 C 0.53591 0.25199 -0.00674 0.0
C406 C 0.53557 0.25358 0.91442 0.0
H407 H 0.54549 0.22981 0.02225 0.0
H408 H 0.53536 0.32676 0.5268 0.0
H409 H 0.53711 0.32388 0.66474 0.0
H410 H 0.56812 0.22231 0.65915 0.0
H411 H 0.56674 0.22516 0.52081 0.0
H412 H 0.56978 0.25203 0.78486 0.0
H413 H 0.50698 0.30292 0.76184 0.0
H414 H 0.50303 0.33112 0.88618 0.0
H415 H 0.50322 0.32825 0.0243 0.0
loop_
_geom_bond_atom_site_label_1
_geom_bond_atom_site_label_2
_geom_bond_distance
_geom_bond_site_symmetry_2
_ccdc_geom_bond_type
Zn0 O1 2.055 1_455 S
Zn0 O8 2.046 . S
Zn0 N16 2.036 . S
Zn0 O28 2.053 . S
Zn0 O30 2.066 . S
O1 Zn0 2.055 1_655 S
O1 C4 1.259 . S
C2 O30 1.256 . S
C2 O31 1.244 . S
Zn3 O5 2.046 1_455 S
Zn3 O7 2.055 . S
Zn3 N9 2.036 . S
Zn3 O27 2.066 . S
Zn3 O31 2.053 . S
C4 O1 1.259 . S
C4 O5 1.254 . S
O5 Zn3 2.046 1_655 S
O5 C4 1.254 . S
C6 O27 1.256 . S
C6 O28 1.244 . S
O7 Zn3 2.055 . S
O7 C29 1.259 . S
O8 Zn0 2.046 . S
O8 C29 1.254 . S
N9 Zn3 2.036 . S
N9 C10 1.298 . S
N9 N12 1.398 . S
C10 N9 1.298 . S
C10 N13 1.367 . S
C10 C23 1.481 . S
C11 N12 1.299 . S
C11 N13 1.379 . S
N12 N9 1.398 . S
N12 C11 1.299 . S
N13 C10 1.367 . S
N13 C11 1.379 . S
C14 N16 1.298 . S
C14 N18 1.367 . S
C14 C22 1.481 1_455 S
C15 N17 1.299 . S
C15 N18 1.379 . S
N16 Zn0 2.036 . S
N16 C14 1.298 . S
N16 N17 1.398 . S
N17 C15 1.299 . S
N17 N16 1.398 . S
N18 C14 1.367 . S
N18 C15 1.379 . S
H19 C22 0.980 . S
H20 C22 0.981 . S
H21 C22 0.981 . S
C22 C14 1.481 1_655 S
C22 H19 0.980 . S
C22 H20 0.981 . S
C22 H21 0.981 . S
C23 C10 1.481 . S
C23 H24 0.980 . S
C23 H25 0.981 . S
C23 H26 0.981 . S
H24 C23 0.980 . S
H25 C23 0.981 . S
H26 C23 0.981 . S
O27 Zn3 2.066 . S
O27 C6 1.256 . S
O28 Zn0 2.053 . S
O28 C6 1.244 . S
C29 O7 1.259 . S
C29 O8 1.254 . S
O30 Zn0 2.066 . S
O30 C2 1.256 . S
O31 C2 1.244 . S
O31 Zn3 2.053 . S
Zn32 O33 2.055 . S
Zn32 O40 2.046 . S
Zn32 N48 2.036 . S
Zn32 O60 2.053 . S
Zn32 O62 2.066 . S
O33 Zn32 2.055 . S
O33 C36 1.259 1_655 S
C34 O62 1.256 1_455 S
C34 O63 1.244 . S
Zn35 O37 2.046 . S
Zn35 O39 2.055 . S
Zn35 N41 2.036 . S
Zn35 O59 2.066 . S
Zn35 O63 2.053 . S
C36 O33 1.259 1_455 S
C36 O37 1.254 . S
O37 Zn35 2.046 . S
O37 C36 1.254 . S
C38 O59 1.256 . S
C38 O60 1.244 1_455 S
O39 Zn35 2.055 . S
O39 C61 1.259 . S
O40 Zn32 2.046 . S
O40 C61 1.254 1_655 S
N41 Zn35 2.036 . S
N41 C42 1.298 . S
N41 N44 1.398 . S
C42 N41 1.298 . S
C42 N45 1.367 . S
C42 C55 1.481 . S
C43 N44 1.299 . S
C43 N45 1.379 . S
N44 N41 1.398 . S
N44 C43 1.299 . S
N45 C42 1.367 . S
N45 C43 1.379 . S
C46 N48 1.298 . S
C46 N50 1.367 . S
C46 C54 1.481 . S
C47 N49 1.299 . S
C47 N50 1.379 . S
N48 Zn32 2.036 . S
N48 C46 1.298 . S
N48 N49 1.398 . S
N49 C47 1.299 . S
N49 N48 1.398 . S
N50 C46 1.367 . S
N50 C47 1.379 . S
H51 C54 0.980 . S
H52 C54 0.981 . S
H53 C54 0.981 . S
C54 C46 1.481 . S
C54 H51 0.980 . S
C54 H52 0.981 . S
C54 H53 0.981 . S
C55 C42 1.481 . S
C55 H56 0.980 . S
C55 H57 0.981 . S
C55 H58 0.981 . S
H56 C55 0.980 . S
H57 C55 0.981 . S
H58 C55 0.981 . S
O59 Zn35 2.066 . S
O59 C38 1.256 . S
O60 Zn32 2.053 . S
O60 C38 1.244 1_655 S
C61 O39 1.259 . S
C61 O40 1.254 1_455 S
O62 Zn32 2.066 . S
O62 C34 1.256 1_655 S
O63 C34 1.244 . S
O63 Zn35 2.053 . S
Zn64 O65 2.055 . S
Zn64 O72 2.046 . S
Zn64 N80 2.036 . S
Zn64 O92 2.053 . S
Zn64 O94 2.066 . S
O65 Zn64 2.055 . S
O65 C68 1.259 . S
C66 O94 1.256 1_554 S
C66 O95 1.244 1_554 S
Zn67 O69 2.046 . S
Zn67 O71 2.055 . S
Zn67 N73 2.036 . S
Zn67 O91 2.066 . S
Zn67 O95 2.053 . S
C68 O65 1.259 . S
C68 O69 1.254 . S
O69 Zn67 2.046 . S
O69 C68 1.254 . S
C70 O91 1.256 . S
C70 O92 1.244 . S
O71 Zn67 2.055 . S
O71 C93 1.259 . S
O72 Zn64 2.046 . S
O72 C93 1.254 . S
N73 Zn67 2.036 . S
N73 C74 1.298 . S
N73 N76 1.398 . S
C74 N73 1.298 . S
C74 N77 1.367 . S
C74 C87 1.481 . S
C75 N76 1.299 . S
C75 N77 1.379 . S
N76 N73 1.398 . S
N76 C75 1.299 . S
N77 C74 1.367 . S
N77 C75 1.379 . S
C78 N80 1.298 . S
C78 N82 1.367 . S
C78 C86 1.481 . S
C79 N81 1.299 . S
C79 N82 1.379 . S
N80 Zn64 2.036 . S
N80 C78 1.298 . S
N80 N81 1.398 . S
N81 C79 1.299 . S
N81 N80 1.398 . S
N82 C78 1.367 . S
N82 C79 1.379 . S
H83 C86 0.980 . S
H84 C86 0.981 . S
H85 C86 0.981 . S
C86 C78 1.481 . S
C86 H83 0.980 . S
C86 H84 0.981 . S
C86 H85 0.981 . S
C87 C74 1.481 . S
C87 H88 0.980 . S
C87 H89 0.981 . S
C87 H90 0.981 . S
H88 C87 0.980 . S
H89 C87 0.981 . S
H90 C87 0.981 . S
O91 Zn67 2.066 . S
O91 C70 1.256 . S
O92 Zn64 2.053 . S
O92 C70 1.244 . S
C93 O71 1.259 . S
C93 O72 1.254 . S
O94 Zn64 2.066 . S
O94 C66 1.256 1_556 S
O95 C66 1.244 1_556 S
O95 Zn67 2.053 . S
Zn96 O97 2.055 . S
Zn96 O104 2.046 . S
Zn96 N112 2.036 . S
Zn96 O124 2.053 . S
Zn96 O126 2.066 . S
O97 Zn96 2.055 . S
O97 C100 1.259 . S
C98 O126 1.256 . S
C98 O127 1.244 . S
Zn99 O101 2.046 . S
Zn99 O103 2.055 . S
Zn99 N105 2.036 . S
Zn99 O123 2.066 . S
Zn99 O127 2.053 . S
C100 O97 1.259 . S
C100 O101 1.254 . S
O101 Zn99 2.046 . S
O101 C100 1.254 . S
C102 O123 1.256 . S
C102 O124 1.244 . S
O103 Zn99 2.055 . S
O103 C125 1.259 . S
O104 Zn96 2.046 . S
O104 C125 1.254 . S
N105 Zn99 2.036 . S
N105 C106 1.298 . S
N105 N108 1.398 . S
C106 N105 1.298 . S
C106 N109 1.367 . S
C106 C119 1.481 . S
C107 N108 1.299 . S
C107 N109 1.379 . S
N108 N105 1.398 . S
N108 C107 1.299 . S
N109 C106 1.367 . S
N109 C107 1.379 . S
C110 N112 1.298 . S
C110 N114 1.367 . S
C110 C118 1.481 . S
C111 N113 1.299 . S
C111 N114 1.379 . S
N112 Zn96 2.036 . S
N112 C110 1.298 . S
N112 N113 1.398 . S
N113 C111 1.299 . S
N113 N112 1.398 . S
N114 C110 1.367 . S
N114 C111 1.379 . S
H115 C118 0.980 . S
H116 C118 0.981 . S
H117 C118 0.981 . S
C118 C110 1.481 . S
C118 H115 0.980 . S
C118 H116 0.981 . S
C118 H117 0.981 . S
C119 C106 1.481 . S
C119 H120 0.980 . S
C119 H121 0.981 . S
C119 H122 0.981 . S
H120 C119 0.980 . S
H121 C119 0.981 . S
H122 C119 0.981 . S
O123 Zn99 2.066 . S
O123 C102 1.256 . S
O124 Zn96 2.053 . S
O124 C102 1.244 . S
C125 O103 1.259 . S
C125 O104 1.254 . S
O126 Zn96 2.066 . S
O126 C98 1.256 . S
O127 C98 1.244 . S
O127 Zn99 2.053 . S
C128 C129 1.386 1_655 S
C128 C130 1.382 1_655 S
C128 H144 0.951 . S
C129 C128 1.386 1_455 S
C129 C133 1.383 . S
C130 C128 1.382 1_455 S
C130 C131 1.428 . S
C130 H145 0.925 1_455 S
C131 C130 1.428 . S
C131 C132 1.375 . S
C131 C134 1.481 . S
C132 C131 1.375 . S
C132 C133 1.367 . S
C132 H146 0.951 . S
C133 C129 1.383 . S
C133 C132 1.367 . S
C133 H147 0.950 . S
C134 C131 1.481 . S
C134 C135 1.297 . S
C134 H148 0.950 . S
C135 C134 1.297 . S
C135 C136 1.479 . S
C135 H149 0.950 1_455 S
C136 C135 1.479 . S
C136 C137 1.375 1_455 S
C136 C142 1.404 . S
C137 C136 1.375 1_655 S
C137 C138 1.369 . S
C137 H150 0.950 . S
C138 C137 1.369 . S
C138 C139 1.392 1_655 S
C138 H151 0.951 . S
C139 C138 1.392 1_455 S
C139 C141 1.384 . S
H140 C142 0.949 . S
C141 C139 1.384 . S
C141 C142 1.385 . S
C141 H143 0.950 . S
C142 C136 1.404 . S
C142 H140 0.949 . S
C142 C141 1.385 . S
H143 C141 0.950 . S
H144 C128 0.951 . S
H145 C130 0.925 1_655 S
H146 C132 0.951 . S
H147 C133 0.950 . S
H148 C134 0.950 . S
H149 C135 0.950 1_655 S
H150 C137 0.950 . S
H151 C138 0.951 . S
C152 C153 1.386 . S
C152 C154 1.383 . S
C152 H168 0.951 . S
C153 C152 1.386 . S
C153 C157 1.383 . S
C154 C152 1.383 . S
C154 C155 1.402 . S
C154 H169 0.951 . S
C155 C154 1.402 . S
C155 C156 1.375 . S
C155 C158 1.481 . S
C156 C155 1.375 . S
C156 C157 1.367 . S
C156 H170 0.951 . S
C157 C153 1.383 . S
C157 C156 1.367 . S
C157 H171 0.950 . S
C158 C155 1.481 . S
C158 C159 1.297 . S
C158 H172 0.950 . S
C159 C158 1.297 . S
C159 C160 1.479 . S
C159 H173 0.950 . S
C160 C159 1.479 . S
C160 C161 1.375 . S
C160 C166 1.404 . S
C161 C160 1.375 . S
C161 C162 1.369 . S
C161 H174 0.950 . S
C162 C161 1.369 . S
C162 C163 1.392 . S
C162 H175 0.951 . S
C163 C162 1.392 . S
C163 C165 1.384 . S
H164 C166 0.949 . S
C165 C163 1.384 . S
C165 C166 1.385 . S
C165 H167 0.950 . S
C166 C160 1.404 . S
C166 H164 0.949 . S
C166 C165 1.385 . S
H167 C165 0.950 . S
H168 C152 0.951 . S
H169 C154 0.951 . S
H170 C156 0.951 . S
H171 C157 0.950 . S
H172 C158 0.950 . S
H173 C159 0.950 . S
H174 C161 0.950 . S
H175 C162 0.951 . S
C176 C177 1.386 . S
C176 C178 1.383 . S
C176 H192 0.951 . S
C177 C176 1.386 . S
C177 C181 1.383 . S
C178 C176 1.383 . S
C178 C179 1.402 . S
C178 H193 0.951 . S
C179 C178 1.402 . S
C179 C180 1.375 1_554 S
C179 C182 1.481 1_554 S
C180 C179 1.375 1_556 S
C180 C181 1.367 1_556 S
C180 H194 0.951 . S
C181 C177 1.383 . S
C181 C180 1.367 1_554 S
C181 H195 0.950 1_554 S
C182 C179 1.481 1_556 S
C182 C183 1.297 . S
C182 H196 0.950 . S
C183 C182 1.297 . S
C183 C184 1.479 . S
C183 H197 0.950 1_556 S
C184 C183 1.479 . S
C184 C185 1.375 . S
C184 C190 1.404 . S
C185 C184 1.375 . S
C185 C186 1.369 . S
C185 H198 0.950 1_556 S
C186 C185 1.369 . S
C186 C187 1.392 . S
C186 H199 0.951 . S
C187 C186 1.392 . S
C187 C189 1.384 . S
H188 C190 0.949 . S
C189 C187 1.384 . S
C189 C190 1.385 . S
C189 H191 0.950 . S
C190 C184 1.404 . S
C190 H188 0.949 . S
C190 C189 1.385 . S
H191 C189 0.950 . S
H192 C176 0.951 . S
H193 C178 0.951 . S
H194 C180 0.951 . S
H195 C181 0.950 1_556 S
H196 C182 0.950 . S
H197 C183 0.950 1_554 S
H198 C185 0.950 1_554 S
H199 C186 0.951 . S
C200 C201 1.386 . S
C200 C202 1.383 . S
C200 H216 0.951 . S
C201 C200 1.386 . S
C201 C205 1.383 . S
C202 C200 1.383 . S
C202 C203 1.402 . S
C202 H217 0.951 . S
C203 C202 1.402 . S
C203 C204 1.375 . S
C203 C206 1.481 . S
C204 C203 1.375 . S
C204 C205 1.367 . S
C204 H218 0.951 . S
C205 C201 1.383 . S
C205 C204 1.367 . S
C205 H219 0.950 . S
C206 C203 1.481 . S
C206 C207 1.297 . S
C206 H220 0.950 . S
C207 C206 1.297 . S
C207 C208 1.479 . S
C207 H221 0.950 . S
C208 C207 1.479 . S
C208 C209 1.375 . S
C208 C214 1.404 . S
C209 C208 1.375 . S
C209 C210 1.369 . S
C209 H222 0.950 . S
C210 C209 1.369 . S
C210 C211 1.392 . S
C210 H223 0.951 . S
C211 C210 1.392 . S
C211 C213 1.384 . S
H212 C214 0.949 . S
C213 C211 1.384 . S
C213 C214 1.385 . S
C213 H215 0.950 . S
C214 C208 1.404 . S
C214 H212 0.949 . S
C214 C213 1.385 . S
H215 C213 0.950 . S
H216 C200 0.951 . S
H217 C202 0.951 . S
H218 C204 0.951 . S
H219 C205 0.950 . S
H220 C206 0.950 . S
H221 C207 0.950 . S
H222 C209 0.950 . S
H223 C210 0.951 . S
C224 C225 1.386 . S
C224 C226 1.383 . S
C224 H240 0.951 . S
C225 C224 1.386 . S
C225 C229 1.383 . S
C226 C224 1.383 . S
C226 C227 1.402 . S
C226 H241 0.951 . S
C227 C226 1.402 . S
C227 C228 1.375 . S
C227 C230 1.481 . S
C228 C227 1.375 . S
C228 C229 1.367 . S
C228 H242 0.951 . S
C229 C225 1.383 . S
C229 C228 1.367 . S
C229 H243 0.950 . S
C230 C227 1.481 . S
C230 C231 1.297 . S
C230 H244 0.950 . S
C231 C230 1.297 . S
C231 C232 1.479 . S
C231 H245 0.950 . S
C232 C231 1.479 . S
C232 C233 1.375 . S
C232 C238 1.404 . S
C233 C232 1.375 . S
C233 C234 1.369 . S
C233 H246 0.950 . S
C234 C233 1.369 . S
C234 C235 1.392 . S
C234 H247 0.951 . S
C235 C234 1.392 . S
C235 C237 1.384 . S
H236 C238 0.949 . S
C237 C235 1.384 . S
C237 C238 1.385 . S
C237 H239 0.950 . S
C238 C232 1.404 . S
C238 H236 0.949 . S
C238 C237 1.385 . S
H239 C237 0.950 . S
H240 C224 0.951 . S
H241 C226 0.951 . S
H242 C228 0.951 . S
H243 C229 0.950 . S
H244 C230 0.950 . S
H245 C231 0.950 . S
H246 C233 0.950 . S
H247 C234 0.951 . S
C248 C249 1.386 . S
C248 C250 1.383 . S
C248 H264 0.951 . S
C249 C248 1.386 . S
C249 C253 1.383 . S
C250 C248 1.383 . S
C250 C251 1.402 . S
C250 H265 0.951 . S
C251 C250 1.402 . S
C251 C252 1.375 . S
C251 C254 1.481 . S
C252 C251 1.375 . S
C252 C253 1.367 . S
C252 H266 0.951 . S
C253 C249 1.383 . S
C253 C252 1.367 . S
C253 H267 0.950 . S
C254 C251 1.481 . S
C254 C255 1.297 . S
C254 H268 0.950 . S
C255 C254 1.297 . S
C255 C256 1.479 . S
C255 H269 0.950 . S
C256 C255 1.479 . S
C256 C257 1.375 . S
C256 C262 1.404 . S
C257 C256 1.375 . S
C257 C258 1.369 . S
C257 H270 0.950 . S
C258 C257 1.369 . S
C258 C259 1.392 . S
C258 H271 0.951 . S
C259 C258 1.392 . S
C259 C261 1.384 . S
H260 C262 0.949 . S
C261 C259 1.384 . S
C261 C262 1.385 . S
C261 H263 0.950 . S
C262 C256 1.404 . S
C262 H260 0.949 . S
C262 C261 1.385 . S
H263 C261 0.950 . S
H264 C248 0.951 . S
H265 C250 0.951 . S
H266 C252 0.951 . S
H267 C253 0.950 . S
H268 C254 0.950 . S
H269 C255 0.950 . S
H270 C257 0.950 . S
H271 C258 0.951 . S
C272 C273 1.386 . S
C272 C274 1.383 . S
C272 H288 0.951 . S
C273 C272 1.386 . S
C273 C277 1.383 . S
C274 C272 1.383 . S
C274 C275 1.402 . S
C274 H289 0.951 1_556 S
C275 C274 1.402 . S
C275 C276 1.375 . S
C275 C278 1.481 1_565 S
C276 C275 1.375 . S
C276 C277 1.367 . S
C276 H290 0.951 . S
C277 C273 1.383 . S
C277 C276 1.367 . S
C277 H291 0.950 . S
C278 C275 1.481 1_545 S
C278 C279 1.297 1_556 S
C278 H292 0.950 . S
C279 C278 1.297 1_554 S
C279 C280 1.479 . S
C279 H293 0.950 . S
C280 C279 1.479 . S
C280 C281 1.375 . S
C280 C286 1.404 . S
C281 C280 1.375 . S
C281 C282 1.369 . S
C281 H294 0.950 . S
C282 C281 1.369 . S
C282 C283 1.392 . S
C282 H295 0.951 . S
C283 C282 1.392 . S
C283 C285 1.384 . S
H284 C286 0.949 1_556 S
C285 C283 1.384 . S
C285 C286 1.385 . S
C285 H287 0.950 . S
C286 C280 1.404 . S
C286 H284 0.949 1_554 S
C286 C285 1.385 . S
H287 C285 0.950 . S
H288 C272 0.951 . S
H289 C274 0.951 1_554 S
H290 C276 0.951 . S
H291 C277 0.950 . S
H292 C278 0.950 . S
H293 C279 0.950 . S
H294 C281 0.950 . S
H295 C282 0.951 . S
C296 C297 1.386 . S
C296 C298 1.383 . S
C296 H312 0.951 . S
C297 C296 1.386 . S
C297 C301 1.383 1_455 S
C298 C296 1.383 . S
C298 C299 1.402 . S
C298 H313 0.951 . S
C299 C298 1.402 . S
C299 C300 1.375 1_455 S
C299 C302 1.481 . S
C300 C299 1.375 1_655 S
C300 C301 1.367 . S
C300 H314 0.951 . S
C301 C297 1.383 1_655 S
C301 C300 1.367 . S
C301 H315 0.950 . S
C302 C299 1.481 . S
C302 C303 1.297 . S
C302 H316 0.950 1_455 S
C303 C302 1.297 . S
C303 C304 1.479 . S
C303 H317 0.950 . S
C304 C303 1.479 . S
C304 C305 1.375 1_565 S
C304 C310 1.404 1_565 S
C305 C304 1.375 1_545 S
C305 C306 1.369 . S
C305 H318 0.950 1_545 S
C306 C305 1.369 . S
C306 C307 1.392 . S
C306 H319 0.951 . S
C307 C306 1.392 . S
C307 C309 1.384 . S
H308 C310 0.949 1_655 S
C309 C307 1.384 . S
C309 C310 1.385 . S
C309 H311 0.950 1_455 S
C310 C304 1.404 1_545 S
C310 H308 0.949 1_455 S
C310 C309 1.385 . S
H311 C309 0.950 1_655 S
H312 C296 0.951 . S
H313 C298 0.951 . S
H314 C300 0.951 . S
H315 C301 0.950 . S
H316 C302 0.950 1_655 S
H317 C303 0.950 . S
H318 C305 0.950 1_565 S
H319 C306 0.951 . S
C320 C321 1.386 . S
C320 C322 1.383 . S
C320 H336 0.951 . S
C321 C320 1.386 . S
C321 C325 1.383 . S
C322 C320 1.383 . S
C322 C323 1.402 1_554 S
C322 H337 0.951 1_554 S
C323 C322 1.402 1_556 S
C323 C324 1.375 1_556 S
C323 C326 1.481 . S
C324 C323 1.375 1_554 S
C324 C325 1.367 . S
C324 H338 0.951 . S
C325 C321 1.383 . S
C325 C324 1.367 . S
C325 H339 0.950 . S
C326 C323 1.481 . S
C326 C327 1.297 . S
C326 H340 0.950 . S
C327 C326 1.297 . S
C327 C328 1.479 . S
C327 H341 0.950 1_455 S
C328 C327 1.479 . S
C328 C329 1.375 . S
C328 C334 1.404 . S
C329 C328 1.375 . S
C329 C330 1.369 . S
C329 H342 0.950 1_455 S
C330 C329 1.369 . S
C330 C331 1.392 . S
C330 H343 0.952 . S
C331 C330 1.392 . S
C331 C333 1.384 . S
H332 C334 0.949 . S
C333 C331 1.384 . S
C333 C334 1.385 . S
C333 H335 0.950 . S
C334 C328 1.404 . S
C334 H332 0.949 . S
C334 C333 1.385 . S
H335 C333 0.950 . S
H336 C320 0.951 . S
H337 C322 0.951 1_556 S
H338 C324 0.951 . S
H339 C325 0.950 . S
H340 C326 0.950 . S
H341 C327 0.950 1_655 S
H342 C329 0.950 1_655 S
H343 C330 0.952 . S
C344 C345 1.386 . S
C344 C346 1.383 . S
C344 H360 0.951 . S
C345 C344 1.386 . S
C345 C349 1.383 1_455 S
C346 C344 1.383 . S
C346 C347 1.402 . S
C346 H361 0.951 . S
C347 C346 1.402 . S
C347 C348 1.375 1_455 S
C347 C350 1.481 1_556 S
C348 C347 1.375 1_655 S
C348 C349 1.367 . S
C348 H362 0.951 . S
C349 C345 1.383 1_655 S
C349 C348 1.367 . S
C349 H363 0.950 . S
C350 C347 1.481 1_554 S
C350 C351 1.297 . S
C350 H364 0.950 1_455 S
C351 C350 1.297 . S
C351 C352 1.479 . S
C351 H365 0.950 . S
C352 C351 1.479 . S
C352 C353 1.375 . S
C352 C358 1.404 1_455 S
C353 C352 1.375 . S
C353 C354 1.369 . S
C353 H366 0.950 . S
C354 C353 1.369 . S
C354 C355 1.392 . S
C354 H367 0.951 . S
C355 C354 1.392 . S
C355 C357 1.384 1_455 S
H356 C358 0.949 . S
C357 C355 1.384 1_655 S
C357 C358 1.385 . S
C357 H359 0.950 . S
C358 C352 1.404 1_655 S
C358 H356 0.949 . S
C358 C357 1.385 . S
H359 C357 0.950 . S
H360 C344 0.951 . S
H361 C346 0.951 . S
H362 C348 0.951 . S
H363 C349 0.950 . S
H364 C350 0.950 1_655 S
H365 C351 0.950 . S
H366 C353 0.950 . S
H367 C354 0.951 . S
C368 C369 1.386 . S
C368 C370 1.383 . S
C368 H384 0.951 . S
C369 C368 1.386 . S
C369 C373 1.383 . S
C370 C368 1.383 . S
C370 C371 1.402 . S
C370 H385 0.951 . S
C371 C370 1.402 . S
C371 C372 1.375 . S
C371 C374 1.481 . S
C372 C371 1.375 . S
C372 C373 1.367 . S
C372 H386 0.951 . S
C373 C369 1.383 . S
C373 C372 1.367 . S
C373 H387 0.950 . S
C374 C371 1.481 . S
C374 C375 1.297 . S
C374 H388 0.950 . S
C375 C374 1.297 . S
C375 C376 1.479 . S
C375 H389 0.950 . S
C376 C375 1.479 . S
C376 C377 1.375 . S
C376 C382 1.404 . S
C377 C376 1.375 . S
C377 C378 1.369 . S
C377 H390 0.950 . S
C378 C377 1.369 . S
C378 C379 1.392 . S
C378 H391 0.951 . S
C379 C378 1.392 . S
C379 C381 1.384 . S
H380 C382 0.949 . S
C381 C379 1.384 . S
C381 C382 1.385 . S
C381 H383 0.950 . S
C382 C376 1.404 . S
C382 H380 0.949 . S
C382 C381 1.385 . S
H383 C381 0.950 . S
H384 C368 0.951 . S
H385 C370 0.951 . S
H386 C372 0.951 . S
H387 C373 0.950 . S
H388 C374 0.950 . S
H389 C375 0.950 . S
H390 C377 0.950 . S
H391 C378 0.951 . S
C392 C393 1.386 . S
C392 C394 1.383 . S
C392 H408 0.951 . S
C393 C392 1.386 . S
C393 C397 1.383 . S
C394 C392 1.383 . S
C394 C395 1.402 . S
C394 H409 0.951 . S
C395 C394 1.402 . S
C395 C396 1.375 . S
C395 C398 1.481 . S
C396 C395 1.375 . S
C396 C397 1.367 . S
C396 H410 0.951 . S
C397 C393 1.383 . S
C397 C396 1.367 . S
C397 H411 0.950 . S
C398 C395 1.481 . S
C398 C399 1.297 . S
C398 H412 0.950 . S
C399 C398 1.297 . S
C399 C400 1.479 . S
C399 H413 0.950 . S
C400 C399 1.479 . S
C400 C401 1.375 . S
C400 C406 1.404 . S
C401 C400 1.375 . S
C401 C402 1.369 . S
C401 H414 0.950 . S
C402 C401 1.369 . S
C402 C403 1.392 . S
C402 H415 0.951 . S
C403 C402 1.392 . S
C403 C405 1.384 . S
H404 C406 0.949 . S
C405 C403 1.384 . S
C405 C406 1.385 . S
C405 H407 0.950 . S
C406 C400 1.404 . S
C406 H404 0.949 . S
C406 C405 1.385 . S
H407 C405 0.950 . S
H408 C392 0.951 . S
H409 C394 0.951 . S
H410 C396 0.951 . S
H411 C397 0.950 . S
H412 C398 0.950 . S
H413 C399 0.950 . S
H414 C401 0.950 . S
H415 C402 0.951 . S
C129 N18 2.315 . S
C139 C36 2.298 . S
C153 C70 1.381 . S
C163 N50 1.340 . S
C177 N109 1.232 . S
C187 N77 1.207 . S
C201 C4 2.062 . S
C211 C125 2.082 . S
C225 C98 2.726 . S
C235 C6 2.706 . S
C249 C68 0.843 . S
C259 N45 0.865 . S
C273 N82 1.085 . S
C283 N114 0.890 . S
C297 C38 2.565 . S
C307 N13 2.425 . S
C321 C29 0.923 . S
C331 C2 0.949 . S
C345 C34 0.927 . S
C355 C61 0.971 . S
C369 C66 0.930 . S
C379 C93 0.959 . S
C393 C100 0.936 . S
C403 C102 0.948 1_556 S
