# Generated by pormake.
# Topology fcj, (5)-cn, num edge types: 1
# Building blocks:
#     Node 0, Type 0, BuildingBlock: BEQFEK_clean_sbu_0, # of connection points: 5
#     Node 1, Type 0, BuildingBlock: BEQFEK_clean_sbu_0, # of connection points: 5
#     Node 2, Type 0, BuildingBlock: BEQFEK_clean_sbu_0, # of connection points: 5
#     Node 3, Type 0, BuildingBlock: BEQFEK_clean_sbu_0, # of connection points: 5
#     Node 4, Type 0, BuildingBlock: BEQFEK_clean_sbu_0, # of connection points: 5
#     Node 5, Type 0, BuildingBlock: BEQFEK_clean_sbu_0, # of connection points: 5
#     Node 6, Type 0, BuildingBlock: BEQFEK_clean_sbu_0, # of connection points: 5
#     Node 7, Type 0, BuildingBlock: BEQFEK_clean_sbu_0, # of connection points: 5
#     Node 8, Type 0, BuildingBlock: BEQFEK_clean_sbu_0, # of connection points: 5
#     Node 9, Type 0, BuildingBlock: BEQFEK_clean_sbu_0, # of connection points: 5
#     Node 10, Type 0, BuildingBlock: BEQFEK_clean_sbu_0, # of connection points: 5
#     Node 11, Type 0, BuildingBlock: BEQFEK_clean_sbu_0, # of connection points: 5
#     Node 12, Type 0, BuildingBlock: BEQFEK_clean_sbu_0, # of connection points: 5
#     Node 13, Type 0, BuildingBlock: BEQFEK_clean_sbu_0, # of connection points: 5
#     Node 14, Type 0, BuildingBlock: BEQFEK_clean_sbu_0, # of connection points: 5
#     Node 15, Type 0, BuildingBlock: BEQFEK_clean_sbu_0, # of connection points: 5
#     Node 16, Type 0, BuildingBlock: BEQFEK_clean_sbu_0, # of connection points: 5
#     Node 17, Type 0, BuildingBlock: BEQFEK_clean_sbu_0, # of connection points: 5
#     Node 18, Type 0, BuildingBlock: BEQFEK_clean_sbu_0, # of connection points: 5
#     Node 19, Type 0, BuildingBlock: BEQFEK_clean_sbu_0, # of connection points: 5
#     Node 20, Type 0, BuildingBlock: BEQFEK_clean_sbu_0, # of connection points: 5
#     Node 21, Type 0, BuildingBlock: BEQFEK_clean_sbu_0, # of connection points: 5
#     Node 22, Type 0, BuildingBlock: BEQFEK_clean_sbu_0, # of connection points: 5
#     Node 23, Type 0, BuildingBlock: BEQFEK_clean_sbu_0, # of connection points: 5
#     Edge 24, Type (0, 0), BuildingBlock: ZUJKAS_clean_linker_0, # of connection points: 2
#     Edge 25, Type (0, 0), BuildingBlock: ZUJKAS_clean_linker_0, # of connection points: 2
#     Edge 26, Type (0, 0), BuildingBlock: ZUJKAS_clean_linker_0, # of connection points: 2
#     Edge 27, Type (0, 0), BuildingBlock: ZUJKAS_clean_linker_0, # of connection points: 2
#     Edge 28, Type (0, 0), BuildingBlock: ZUJKAS_clean_linker_0, # of connection points: 2
#     Edge 29, Type (0, 0), BuildingBlock: ZUJKAS_clean_linker_0, # of connection points: 2
#     Edge 30, Type (0, 0), BuildingBlock: ZUJKAS_clean_linker_0, # of connection points: 2
#     Edge 31, Type (0, 0), BuildingBlock: ZUJKAS_clean_linker_0, # of connection points: 2
#     Edge 32, Type (0, 0), BuildingBlock: ZUJKAS_clean_linker_0, # of connection points: 2
#     Edge 33, Type (0, 0), BuildingBlock: ZUJKAS_clean_linker_0, # of connection points: 2
#     Edge 34, Type (0, 0), BuildingBlock: ZUJKAS_clean_linker_0, # of connection points: 2
#     Edge 35, Type (0, 0), BuildingBlock: ZUJKAS_clean_linker_0, # of connection points: 2
#     Edge 36, Type (0, 0), BuildingBlock: ZUJKAS_clean_linker_0, # of connection points: 2
#     Edge 37, Type (0, 0), BuildingBlock: ZUJKAS_clean_linker_0, # of connection points: 2
#     Edge 38, Type (0, 0), BuildingBlock: ZUJKAS_clean_linker_0, # of connection points: 2
#     Edge 39, Type (0, 0), BuildingBlock: ZUJKAS_clean_linker_0, # of connection points: 2
#     Edge 40, Type (0, 0), BuildingBlock: ZUJKAS_clean_linker_0, # of connection points: 2
#     Edge 41, Type (0, 0), BuildingBlock: ZUJKAS_clean_linker_0, # of connection points: 2
#     Edge 42, Type (0, 0), BuildingBlock: ZUJKAS_clean_linker_0, # of connection points: 2
#     Edge 43, Type (0, 0), BuildingBlock: ZUJKAS_clean_linker_0, # of connection points: 2
#     Edge 44, Type (0, 0), BuildingBlock: ZUJKAS_clean_linker_0, # of connection points: 2
#     Edge 45, Type (0, 0), BuildingBlock: ZUJKAS_clean_linker_0, # of connection points: 2
#     Edge 46, Type (0, 0), BuildingBlock: ZUJKAS_clean_linker_0, # of connection points: 2
#     Edge 47, Type (0, 0), BuildingBlock: ZUJKAS_clean_linker_0, # of connection points: 2
#     Edge 48, Type (0, 0), BuildingBlock: ZUJKAS_clean_linker_0, # of connection points: 2
#     Edge 49, Type (0, 0), BuildingBlock: ZUJKAS_clean_linker_0, # of connection points: 2
#     Edge 50, Type (0, 0), BuildingBlock: ZUJKAS_clean_linker_0, # of connection points: 2
#     Edge 51, Type (0, 0), BuildingBlock: ZUJKAS_clean_linker_0, # of connection points: 2
#     Edge 52, Type (0, 0), BuildingBlock: ZUJKAS_clean_linker_0, # of connection points: 2
#     Edge 53, Type (0, 0), BuildingBlock: ZUJKAS_clean_linker_0, # of connection points: 2
#     Edge 54, Type (0, 0), BuildingBlock: ZUJKAS_clean_linker_0, # of connection points: 2
#     Edge 55, Type (0, 0), BuildingBlock: ZUJKAS_clean_linker_0, # of connection points: 2
#     Edge 56, Type (0, 0), BuildingBlock: ZUJKAS_clean_linker_0, # of connection points: 2
#     Edge 57, Type (0, 0), BuildingBlock: ZUJKAS_clean_linker_0, # of connection points: 2
#     Edge 58, Type (0, 0), BuildingBlock: ZUJKAS_clean_linker_0, # of connection points: 2
#     Edge 59, Type (0, 0), BuildingBlock: ZUJKAS_clean_linker_0, # of connection points: 2
#     Edge 60, Type (0, 0), BuildingBlock: ZUJKAS_clean_linker_0, # of connection points: 2
#     Edge 61, Type (0, 0), BuildingBlock: ZUJKAS_clean_linker_0, # of connection points: 2
#     Edge 62, Type (0, 0), BuildingBlock: ZUJKAS_clean_linker_0, # of connection points: 2
#     Edge 63, Type (0, 0), BuildingBlock: ZUJKAS_clean_linker_0, # of connection points: 2
#     Edge 64, Type (0, 0), BuildingBlock: ZUJKAS_clean_linker_0, # of connection points: 2
#     Edge 65, Type (0, 0), BuildingBlock: ZUJKAS_clean_linker_0, # of connection points: 2
#     Edge 66, Type (0, 0), BuildingBlock: ZUJKAS_clean_linker_0, # of connection points: 2
#     Edge 67, Type (0, 0), BuildingBlock: ZUJKAS_clean_linker_0, # of connection points: 2
#     Edge 68, Type (0, 0), BuildingBlock: ZUJKAS_clean_linker_0, # of connection points: 2
#     Edge 69, Type (0, 0), BuildingBlock: ZUJKAS_clean_linker_0, # of connection points: 2
#     Edge 70, Type (0, 0), BuildingBlock: ZUJKAS_clean_linker_0, # of connection points: 2
#     Edge 71, Type (0, 0), BuildingBlock: ZUJKAS_clean_linker_0, # of connection points: 2
#     Edge 72, Type (0, 0), BuildingBlock: ZUJKAS_clean_linker_0, # of connection points: 2
#     Edge 73, Type (0, 0), BuildingBlock: ZUJKAS_clean_linker_0, # of connection points: 2
#     Edge 74, Type (0, 0), BuildingBlock: ZUJKAS_clean_linker_0, # of connection points: 2
#     Edge 75, Type (0, 0), BuildingBlock: ZUJKAS_clean_linker_0, # of connection points: 2
#     Edge 76, Type (0, 0), BuildingBlock: ZUJKAS_clean_linker_0, # of connection points: 2
#     Edge 77, Type (0, 0), BuildingBlock: ZUJKAS_clean_linker_0, # of connection points: 2
#     Edge 78, Type (0, 0), BuildingBlock: ZUJKAS_clean_linker_0, # of connection points: 2
#     Edge 79, Type (0, 0), BuildingBlock: ZUJKAS_clean_linker_0, # of connection points: 2
#     Edge 80, Type (0, 0), BuildingBlock: ZUJKAS_clean_linker_0, # of connection points: 2
#     Edge 81, Type (0, 0), BuildingBlock: ZUJKAS_clean_linker_0, # of connection points: 2
#     Edge 82, Type (0, 0), BuildingBlock: ZUJKAS_clean_linker_0, # of connection points: 2
#     Edge 83, Type (0, 0), BuildingBlock: ZUJKAS_clean_linker_0, # of connection points: 2
# Relax obj value: 0.325
# Max RMSD: 0.216
# Mean RMSD: 0.216
data_MOF--net-fcj--node1-BEQFEK_clean_sbu_0--edge1-ZUJKAS_clean_linker_0
_symmetry_space_group_name_H-M    P1
_symmetry_Int_Tables_number       1
_symmetry_cell_setting            triclinic
loop_
_symmetry_equiv_pos_as_xyz
'x, y, z'
_cell_length_a     65.56403
_cell_length_b     65.569497
_cell_length_c     65.557189
_cell_angle_alpha  90.006151
_cell_angle_beta   90.020512
_cell_angle_gamma 90.001102
loop_
_atom_site_label
_atom_site_type_symbol
_atom_site_fract_x
_atom_site_fract_y
_atom_site_fract_z
_atom_type_partial_charge
Co0 Co 0.10199 0.18523 0.32657 0.0
Co1 Co 0.07024 0.21375 0.34824 0.0
C2 C 0.05714 0.1768 0.32457 0.0
O3 O 0.0755 0.17186 0.32043 0.0
O4 O 0.05299 0.19259 0.33514 0.0
C5 C 0.12657 0.14917 0.31609 0.0
O6 O 0.11116 0.13784 0.32204 0.0
C7 C 0.03542 0.22814 0.37284 0.0
C8 C 0.04693 0.25801 0.38341 0.0
C9 C 0.03035 0.24498 0.38459 0.0
N10 N 0.05417 0.2311 0.36508 0.0
N11 N 0.06091 0.24901 0.3714 0.0
C12 C 0.02333 0.20898 0.37007 0.0
H13 H 0.03367 0.19559 0.37023 0.0
H14 H 0.01168 0.20726 0.38223 0.0
H15 H 0.01558 0.20947 0.35503 0.0
C16 C 0.11879 0.18362 0.36831 0.0
N17 N 0.10484 0.19016 0.35476 0.0
N18 N 0.09134 0.20165 0.36416 0.0
C19 C 0.0961 0.20242 0.3842 0.0
C20 C 0.11364 0.191 0.38745 0.0
C21 C 0.13749 0.17174 0.36271 0.0
H22 H 0.14436 0.17819 0.34868 0.0
H23 H 0.13316 0.15568 0.35967 0.0
H24 H 0.1491 0.17209 0.37501 0.0
O25 O 0.10372 0.21091 0.31116 0.0
O26 O 0.08133 0.23137 0.32612 0.0
H27 H 0.08618 0.22971 0.39892 0.0
H28 H 0.08786 0.20796 0.41567 0.0
C29 C 0.08363 0.21303 0.40009 0.0
H30 H 0.06722 0.20989 0.39753 0.0
H31 H 0.07516 0.25501 0.36763 0.0
O32 O 0.12508 0.16848 0.31672 0.0
C33 C 0.09464 0.22799 0.31239 0.0
Co34 Co 0.57329 0.3448 0.08212 0.0
Co35 Co 0.53841 0.31707 0.09948 0.0
C36 C 0.57731 0.29974 0.08172 0.0
O37 O 0.58496 0.3173 0.07837 0.0
O38 O 0.55966 0.29773 0.08964 0.0
C39 C 0.59901 0.36919 0.05675 0.0
O40 O 0.59267 0.35669 0.04243 0.0
C41 C 0.52044 0.28511 0.12493 0.0
C42 C 0.48801 0.29423 0.12576 0.0
C43 C 0.50156 0.27956 0.13271 0.0
N44 N 0.5181 0.3022 0.11387 0.0
N45 N 0.49869 0.30756 0.1144 0.0
C46 C 0.54062 0.27523 0.12888 0.0
H47 H 0.55288 0.2869 0.12896 0.0
H48 H 0.54053 0.26695 0.14365 0.0
H49 H 0.5439 0.26421 0.11647 0.0
C50 C 0.56995 0.36284 0.12304 0.0
N51 N 0.56447 0.34879 0.10916 0.0
N52 N 0.54971 0.33747 0.11666 0.0
C53 C 0.54527 0.34407 0.13567 0.0
C54 C 0.55789 0.36046 0.14023 0.0
C55 C 0.58652 0.37822 0.11982 0.0
H56 H 0.60019 0.37057 0.11342 0.0
H57 H 0.59082 0.38594 0.13425 0.0
H58 H 0.58125 0.38979 0.10865 0.0
O59 O 0.55041 0.3482 0.06277 0.0
O60 O 0.5252 0.32932 0.07511 0.0
H61 H 0.51374 0.33718 0.14002 0.0
H62 H 0.52693 0.34418 0.16317 0.0
C63 C 0.52831 0.33586 0.1485 0.0
H64 H 0.53108 0.31947 0.15162 0.0
H65 H 0.49275 0.32038 0.10704 0.0
O66 O 0.59332 0.36622 0.07503 0.0
C67 C 0.53228 0.34134 0.0616 0.0
Co68 Co 0.39737 0.81567 0.82842 0.0
Co69 Co 0.42771 0.78539 0.84958 0.0
C70 C 0.44228 0.82331 0.8282 0.0
O71 O 0.42418 0.82862 0.8234 0.0
O72 O 0.44573 0.80707 0.83835 0.0
C73 C 0.3739 0.8525 0.81766 0.0
O74 O 0.38981 0.86353 0.82283 0.0
C75 C 0.46089 0.77016 0.87571 0.0
C76 C 0.45104 0.73836 0.88091 0.0
C77 C 0.46642 0.75215 0.88537 0.0
N78 N 0.44312 0.76707 0.86594 0.0
N79 N 0.43731 0.74805 0.86915 0.0
C80 C 0.47151 0.79031 0.87668 0.0
H81 H 0.48197 0.79166 0.86345 0.0
H82 H 0.46023 0.8029 0.87586 0.0
H83 H 0.48055 0.7917 0.89093 0.0
C84 C 0.37987 0.81627 0.86986 0.0
N85 N 0.39384 0.80975 0.85634 0.0
N86 N 0.40641 0.79701 0.86542 0.0
C87 C 0.40082 0.7951 0.88516 0.0
C88 C 0.38393 0.80735 0.88859 0.0
C89 C 0.36215 0.82968 0.86452 0.0
H90 H 0.35448 0.82369 0.85069 0.0
H91 H 0.36781 0.84525 0.86113 0.0
H92 H 0.3508 0.83052 0.87703 0.0
O93 O 0.39529 0.79068 0.81194 0.0
O94 O 0.41688 0.76903 0.82635 0.0
H95 H 0.41009 0.76593 0.89628 0.0
H96 H 0.40552 0.78453 0.9161 0.0
C97 C 0.41171 0.78222 0.90052 0.0
H98 H 0.42816 0.78608 0.90048 0.0
H99 H 0.42397 0.74168 0.86325 0.0
O100 O 0.3748 0.83318 0.81887 0.0
C101 C 0.40391 0.77333 0.81255 0.0
Co102 Co 0.92851 0.6504 0.58171 0.0
Co103 Co 0.96008 0.68186 0.59929 0.0
C104 C 0.92036 0.69508 0.57998 0.0
O105 O 0.91493 0.67675 0.57636 0.0
O106 O 0.9372 0.69915 0.58891 0.0
C107 C 0.8925 0.62593 0.56948 0.0
O108 O 0.88159 0.64271 0.56867 0.0
C109 C 0.97871 0.71675 0.62113 0.0
C110 C 0.00946 0.70438 0.62742 0.0
C111 C 0.99728 0.7214 0.63027 0.0
N112 N 0.97986 0.6977 0.61357 0.0
N113 N 0.99829 0.69047 0.61731 0.0
C114 C 0.96095 0.73061 0.61758 0.0
H115 H 0.9575 0.73091 0.60104 0.0
H116 H 0.94736 0.7245 0.62561 0.0
H117 H 0.964 0.74644 0.62261 0.0
C118 C 0.93106 0.63471 0.62362 0.0
N119 N 0.93643 0.64829 0.60923 0.0
N120 N 0.94992 0.66106 0.61682 0.0
C121 C 0.95362 0.65585 0.63642 0.0
C122 C 0.94172 0.63908 0.6413 0.0
C123 C 0.917 0.61708 0.61996 0.0
H124 H 0.90197 0.62289 0.61481 0.0
H125 H 0.9149 0.60763 0.63382 0.0
H126 H 0.92333 0.60737 0.60763 0.0
O127 O 0.95218 0.64804 0.56346 0.0
O128 O 0.97471 0.67018 0.5754 0.0
H129 H 0.98404 0.66313 0.6454 0.0
H130 H 0.96628 0.66157 0.66633 0.0
C131 C 0.96822 0.66658 0.65027 0.0
H132 H 0.96581 0.68329 0.6493 0.0
H133 H 0.00326 0.67601 0.6129 0.0
O134 O 0.91119 0.62683 0.5745 0.0
C135 C 0.96946 0.65676 0.5624 0.0
Co136 Co 0.60078 0.31106 0.67456 0.0
Co137 Co 0.56928 0.28366 0.6511 0.0
C138 C 0.55616 0.32098 0.67413 0.0
O139 O 0.57442 0.32501 0.67952 0.0
O140 O 0.55202 0.30552 0.66306 0.0
C141 C 0.62528 0.34658 0.68645 0.0
O142 O 0.61009 0.35803 0.68016 0.0
C143 C 0.53579 0.27056 0.62401 0.0
C144 C 0.54655 0.23997 0.61482 0.0
C145 C 0.53083 0.2538 0.61211 0.0
N146 N 0.55368 0.2668 0.63333 0.0
N147 N 0.55997 0.24846 0.62782 0.0
C148 C 0.5245 0.29032 0.6255 0.0
H149 H 0.53545 0.30317 0.62671 0.0
H150 H 0.51448 0.29266 0.61206 0.0
H151 H 0.51495 0.29015 0.63946 0.0
C152 C 0.61938 0.31277 0.63361 0.0
N153 N 0.60476 0.30632 0.64647 0.0
N154 N 0.59154 0.29508 0.63637 0.0
C155 C 0.59727 0.29426 0.6166 0.0
C156 C 0.61503 0.3055 0.61425 0.0
C157 C 0.63785 0.32459 0.64004 0.0
H158 H 0.64434 0.31784 0.65412 0.0
H159 H 0.63334 0.34056 0.64333 0.0
H160 H 0.64981 0.32461 0.62808 0.0
O161 O 0.60119 0.28522 0.68978 0.0
O162 O 0.57868 0.26569 0.67376 0.0
H163 H 0.58716 0.26697 0.60201 0.0
H164 H 0.59124 0.28799 0.58474 0.0
C165 C 0.58558 0.28369 0.6001 0.0
H166 H 0.5692 0.28769 0.60125 0.0
H167 H 0.57354 0.24182 0.63281 0.0
O168 O 0.62374 0.32729 0.6855 0.0
C169 C 0.59154 0.26849 0.68804 0.0
Co170 Co 0.42772 0.84779 0.41596 0.0
Co171 Co 0.46185 0.81828 0.40045 0.0
C172 C 0.42218 0.80302 0.41837 0.0
O173 O 0.41524 0.82096 0.42113 0.0
O174 O 0.43972 0.80007 0.41053 0.0
C175 C 0.40202 0.87265 0.44016 0.0
O176 O 0.40733 0.85951 0.45433 0.0
C177 C 0.47909 0.78626 0.37448 0.0
C178 C 0.51162 0.7874 0.38321 0.0
C179 C 0.49772 0.77676 0.37137 0.0
N180 N 0.48189 0.80178 0.38759 0.0
N181 N 0.50141 0.80254 0.39253 0.0
C182 C 0.4587 0.7796 0.3667 0.0
H183 H 0.44637 0.78931 0.37297 0.0
H184 H 0.45841 0.78074 0.34983 0.0
H185 H 0.45602 0.7634 0.37084 0.0
C186 C 0.43221 0.86389 0.37443 0.0
N187 N 0.43695 0.85017 0.38886 0.0
N188 N 0.45174 0.83837 0.38221 0.0
C189 C 0.4571 0.84445 0.36328 0.0
C190 C 0.44493 0.86093 0.3578 0.0
C191 C 0.41571 0.87954 0.37663 0.0
H192 H 0.40198 0.87241 0.38346 0.0
H193 H 0.4115 0.88632 0.36171 0.0
H194 H 0.42103 0.89179 0.38702 0.0
O195 O 0.45047 0.85177 0.4353 0.0
O196 O 0.47498 0.83113 0.42453 0.0
H197 H 0.47887 0.84574 0.33848 0.0
H198 H 0.47021 0.82057 0.3455 0.0
C199 C 0.47459 0.83578 0.35147 0.0
H200 H 0.48793 0.83376 0.36167 0.0
H201 H 0.50762 0.81293 0.40288 0.0
O202 O 0.40827 0.86993 0.42204 0.0
C203 C 0.46827 0.84428 0.43714 0.0
Co204 Co 0.90005 0.6787 0.17554 0.0
Co205 Co 0.92927 0.70967 0.15379 0.0
C206 C 0.94503 0.67177 0.17436 0.0
O207 O 0.92714 0.66589 0.17924 0.0
O208 O 0.94791 0.68832 0.16455 0.0
C209 C 0.8755 0.6418 0.18311 0.0
O210 O 0.8888 0.63141 0.1723 0.0
C211 C 0.96171 0.72533 0.12703 0.0
C212 C 0.95053 0.75646 0.12051 0.0
C213 C 0.9663 0.74302 0.1164 0.0
N214 N 0.94403 0.72819 0.13699 0.0
N215 N 0.93746 0.74684 0.13308 0.0
C216 C 0.9731 0.70558 0.1266 0.0
H217 H 0.96229 0.6926 0.12754 0.0
H218 H 0.98237 0.70422 0.1125 0.0
H219 H 0.98344 0.70492 0.13998 0.0
C220 C 0.88024 0.67961 0.13492 0.0
N221 N 0.89506 0.68537 0.14791 0.0
N222 N 0.90758 0.6979 0.13848 0.0
C223 C 0.90133 0.70012 0.11897 0.0
C224 C 0.88385 0.68854 0.1161 0.0
C225 C 0.86193 0.66731 0.14087 0.0
H226 H 0.85658 0.67197 0.1562 0.0
H227 H 0.86613 0.65094 0.14125 0.0
H228 H 0.8492 0.66937 0.12991 0.0
O229 O 0.89879 0.70327 0.19264 0.0
O230 O 0.91894 0.72576 0.17746 0.0
H231 H 0.91005 0.72893 0.10656 0.0
H232 H 0.90639 0.70927 0.08764 0.0
C233 C 0.91221 0.7125 0.1032 0.0
H234 H 0.92875 0.70906 0.10368 0.0
H235 H 0.92395 0.75295 0.13887 0.0
O236 O 0.87823 0.66076 0.18602 0.0
C237 C 0.90692 0.72086 0.19191 0.0
Co238 Co 0.07203 0.15108 0.9163 0.0
Co239 Co 0.03953 0.18114 0.89835 0.0
C240 C 0.07855 0.19583 0.918 0.0
O241 O 0.0851 0.1778 0.92116 0.0
O242 O 0.06134 0.19899 0.90952 0.0
C243 C 0.09522 0.12546 0.94239 0.0
O244 O 0.08874 0.13837 0.95629 0.0
C245 C 0.02458 0.2149 0.87341 0.0
C246 C 0.99161 0.20822 0.87152 0.0
C247 C 0.00633 0.22216 0.86548 0.0
N248 N 0.02073 0.19762 0.88372 0.0
N249 N 0.00102 0.19368 0.88252 0.0
C250 C 0.04557 0.22327 0.8702 0.0
H251 H 0.05692 0.21071 0.87038 0.0
H252 H 0.04656 0.23161 0.85551 0.0
H253 H 0.04929 0.23392 0.88282 0.0
C254 C 0.06954 0.1344 0.87471 0.0
N255 N 0.06405 0.14818 0.88884 0.0
N256 N 0.05041 0.16064 0.88104 0.0
C257 C 0.04681 0.15517 0.86151 0.0
C258 C 0.05893 0.13843 0.85684 0.0
C259 C 0.08328 0.11665 0.87903 0.0
H260 H 0.07751 0.10832 0.89257 0.0
H261 H 0.09879 0.12236 0.88268 0.0
H262 H 0.08415 0.10585 0.86607 0.0
O263 O 0.04831 0.14857 0.93467 0.0
O264 O 0.02467 0.16908 0.92185 0.0
H265 H 0.0166 0.16477 0.85395 0.0
H266 H 0.03247 0.15935 0.83201 0.0
C267 C 0.03224 0.16589 0.84761 0.0
H268 H 0.03635 0.18226 0.84674 0.0
H269 H 0.99399 0.18107 0.88926 0.0
O270 O 0.0907 0.12862 0.92382 0.0
C271 C 0.03056 0.15639 0.93532 0.0
Co272 Co 0.33071 0.09683 0.17994 0.0
Co273 Co 0.34935 0.06629 0.21173 0.0
C274 C 0.32915 0.05234 0.1725 0.0
O275 O 0.32586 0.07046 0.16627 0.0
O276 O 0.33786 0.04889 0.18957 0.0
C277 C 0.32073 0.1214 0.14342 0.0
O278 O 0.32472 0.10546 0.13196 0.0
C279 C 0.37329 0.0316 0.22726 0.0
C280 C 0.37745 0.04041 0.25956 0.0
C281 C 0.38175 0.02514 0.2456 0.0
N282 N 0.36454 0.0499 0.23032 0.0
N283 N 0.36718 0.05511 0.24961 0.0
C284 C 0.37148 0.01994 0.20772 0.0
H285 H 0.3553 0.01559 0.20547 0.0
H286 H 0.37597 0.02988 0.19477 0.0
H287 H 0.38075 0.00585 0.20765 0.0
C288 C 0.3724 0.11341 0.18165 0.0
N289 N 0.3583 0.0997 0.18744 0.0
N290 N 0.36633 0.08718 0.20091 0.0
C291 C 0.38593 0.09264 0.20416 0.0
C292 C 0.39041 0.10932 0.19193 0.0
C293 C 0.36818 0.13094 0.16762 0.0
H294 H 0.35482 0.1396 0.17331 0.0
H295 H 0.36442 0.12497 0.15224 0.0
H296 H 0.38133 0.14151 0.16643 0.0
O297 O 0.31272 0.09846 0.20396 0.0
O298 O 0.32595 0.07783 0.22723 0.0
H299 H 0.39448 0.08393 0.23435 0.0
H300 H 0.41584 0.08824 0.21745 0.0
C301 C 0.40013 0.08203 0.21852 0.0
H302 H 0.40041 0.06549 0.21499 0.0
H303 H 0.36165 0.06857 0.25605 0.0
O304 O 0.32239 0.12007 0.16267 0.0
C305 C 0.31228 0.09043 0.22162 0.0
Co306 Co 0.64987 0.57735 0.92886 0.0
Co307 Co 0.67884 0.59666 0.96175 0.0
C308 C 0.69503 0.57831 0.92293 0.0
O309 O 0.67718 0.57401 0.91648 0.0
O310 O 0.69782 0.58699 0.94012 0.0
C311 C 0.62595 0.57138 0.89095 0.0
O312 O 0.63954 0.58217 0.88095 0.0
C313 C 0.71185 0.61999 0.98172 0.0
C314 C 0.69817 0.62563 0.01203 0.0
C315 C 0.71555 0.62904 0.00053 0.0
N316 N 0.69303 0.61184 0.9821 0.0
N317 N 0.68495 0.6153 0.00023 0.0
C318 C 0.72644 0.61711 0.9644 0.0
H319 H 0.72864 0.60056 0.96186 0.0
H320 H 0.71976 0.62365 0.95029 0.0
H321 H 0.74154 0.62404 0.9674 0.0
C322 C 0.63155 0.61852 0.93087 0.0
N323 N 0.64546 0.60467 0.93686 0.0
N324 N 0.65778 0.61308 0.95031 0.0
C325 C 0.65224 0.63274 0.95302 0.0
C326 C 0.63553 0.63678 0.94071 0.0
C327 C 0.61399 0.61405 0.91696 0.0
H328 H 0.60739 0.59895 0.9207 0.0
H329 H 0.6195 0.61381 0.90098 0.0
H330 H 0.60183 0.62573 0.91831 0.0
O331 O 0.64744 0.55892 0.95242 0.0
O332 O 0.66765 0.57227 0.97598 0.0
H333 H 0.65988 0.64399 0.98259 0.0
H334 H 0.65829 0.66351 0.96328 0.0
C335 C 0.66319 0.64761 0.96641 0.0
H336 H 0.67987 0.64633 0.96395 0.0
H337 H 0.67047 0.61038 0.00463 0.0
O338 O 0.62828 0.56816 0.90992 0.0
C339 C 0.65528 0.55849 0.97014 0.0
Co340 Co 0.17128 0.90054 0.67823 0.0
Co341 Co 0.15178 0.93107 0.70955 0.0
C342 C 0.17092 0.94536 0.67033 0.0
O343 O 0.17497 0.92722 0.66454 0.0
O344 O 0.16205 0.94888 0.68729 0.0
C345 C 0.17793 0.87484 0.64164 0.0
O346 O 0.16813 0.88846 0.63068 0.0
C347 C 0.1277 0.96485 0.72714 0.0
C348 C 0.12345 0.95374 0.75871 0.0
C349 C 0.11912 0.96992 0.74584 0.0
N350 N 0.13652 0.94641 0.72893 0.0
N351 N 0.13385 0.93985 0.74779 0.0
C352 C 0.12939 0.97784 0.70845 0.0
H353 H 0.14569 0.98134 0.70571 0.0
H354 H 0.12369 0.96919 0.69506 0.0
H355 H 0.121 0.99241 0.70991 0.0
C356 C 0.13001 0.88241 0.68093 0.0
N357 N 0.14386 0.8966 0.68624 0.0
N358 N 0.13541 0.9096 0.69898 0.0
C359 C 0.11574 0.90425 0.70191 0.0
C360 C 0.1117 0.88689 0.6905 0.0
C361 C 0.13461 0.86414 0.66802 0.0
H362 H 0.14959 0.85765 0.67239 0.0
H363 H 0.13526 0.86884 0.65178 0.0
H364 H 0.12283 0.85212 0.66975 0.0
O365 O 0.18967 0.89957 0.70196 0.0
O366 O 0.17589 0.9205 0.7246 0.0
H367 H 0.10468 0.91396 0.73095 0.0
H368 H 0.08498 0.91088 0.71195 0.0
C369 C 0.10088 0.91603 0.7146 0.0
H370 H 0.10205 0.93249 0.71091 0.0
H371 H 0.13939 0.92598 0.75328 0.0
O372 O 0.18047 0.87781 0.66063 0.0
C373 C 0.18991 0.90816 0.71934 0.0
Co374 Co 0.84999 0.42036 0.43087 0.0
Co375 Co 0.81981 0.40078 0.46233 0.0
C376 C 0.805 0.42203 0.4244 0.0
O377 O 0.82309 0.4257 0.41824 0.0
O378 O 0.80167 0.41255 0.44106 0.0
C379 C 0.87329 0.42965 0.39348 0.0
O380 O 0.85715 0.42466 0.3827 0.0
C381 C 0.7862 0.376 0.47872 0.0
C382 C 0.79739 0.36966 0.5099 0.0
C383 C 0.78132 0.36595 0.49669 0.0
N384 N 0.80435 0.3852 0.48124 0.0
N385 N 0.8109 0.38141 0.49992 0.0
C386 C 0.77464 0.37578 0.45905 0.0
H387 H 0.78543 0.37561 0.44601 0.0
H388 H 0.76442 0.36232 0.45812 0.0
H389 H 0.7653 0.38985 0.45798 0.0
C390 C 0.86671 0.3786 0.43122 0.0
N391 N 0.85302 0.39255 0.43746 0.0
N392 N 0.84045 0.38409 0.4506 0.0
C393 C 0.84574 0.36433 0.45306 0.0
C394 C 0.86247 0.36023 0.44077 0.0
C395 C 0.88446 0.38327 0.41761 0.0
H396 H 0.89244 0.39707 0.42326 0.0
H397 H 0.87879 0.38644 0.40199 0.0
H398 H 0.89555 0.37052 0.41699 0.0
O399 O 0.85259 0.43765 0.45536 0.0
O400 O 0.83149 0.42397 0.47795 0.0
H401 H 0.8375 0.35388 0.48277 0.0
H402 H 0.84034 0.33373 0.4642 0.0
C403 C 0.83488 0.34956 0.46662 0.0
H404 H 0.81827 0.3502 0.46356 0.0
H405 H 0.82472 0.38672 0.50578 0.0
O406 O 0.87254 0.42893 0.41283 0.0
C407 C 0.84436 0.4376 0.47293 0.0
Co408 Co 0.83282 0.4011 0.82 0.0
Co409 Co 0.85058 0.42993 0.78628 0.0
C410 C 0.83325 0.44595 0.82587 0.0
O411 O 0.82977 0.42813 0.83279 0.0
O412 O 0.84095 0.44866 0.80821 0.0
C413 C 0.80714 0.37794 0.84624 0.0
O414 O 0.79385 0.39222 0.84164 0.0
C415 C 0.87509 0.46298 0.76876 0.0
C416 C 0.87941 0.45233 0.73707 0.0
C417 C 0.88424 0.46797 0.75039 0.0
N418 N 0.86532 0.44512 0.76644 0.0
N419 N 0.86786 0.43888 0.74743 0.0
C420 C 0.87659 0.47428 0.78852 0.0
H421 H 0.8781 0.46331 0.80132 0.0
H422 H 0.88979 0.48488 0.78855 0.0
H423 H 0.8624 0.48319 0.79086 0.0
C424 C 0.87351 0.38274 0.81633 0.0
N425 N 0.85972 0.39695 0.81107 0.0
N426 N 0.86753 0.40894 0.79701 0.0
C427 C 0.88675 0.4027 0.79294 0.0
C428 C 0.89104 0.3858 0.80495 0.0
C429 C 0.86999 0.36681 0.83231 0.0
H430 H 0.86371 0.37406 0.84624 0.0
H431 H 0.88426 0.35865 0.83634 0.0
H432 H 0.85859 0.35566 0.82661 0.0
O433 O 0.81341 0.39896 0.7971 0.0
O434 O 0.82604 0.41848 0.77255 0.0
H435 H 0.89325 0.40976 0.76185 0.0
H436 H 0.91564 0.40496 0.77703 0.0
C437 C 0.90026 0.41198 0.77708 0.0
H438 H 0.9017 0.42859 0.77989 0.0
H439 H 0.86186 0.42535 0.7416 0.0
O440 O 0.82515 0.37926 0.83926 0.0
C441 C 0.81234 0.40644 0.77923 0.0
Co442 Co 0.35268 0.08397 0.56738 0.0
Co443 Co 0.3221 0.10022 0.53436 0.0
C444 C 0.30801 0.0814 0.57406 0.0
O445 O 0.32611 0.07873 0.58069 0.0
O446 O 0.30464 0.08937 0.55664 0.0
C447 C 0.37573 0.07131 0.60389 0.0
O448 O 0.35824 0.06932 0.61346 0.0
C449 C 0.28777 0.12372 0.518 0.0
C450 C 0.29349 0.12178 0.48482 0.0
C451 C 0.27981 0.1291 0.49915 0.0
N452 N 0.30537 0.11368 0.51489 0.0
N453 N 0.30882 0.11277 0.49506 0.0
C454 C 0.27797 0.12595 0.53849 0.0
H455 H 0.26927 0.11186 0.54195 0.0
H456 H 0.28986 0.12787 0.55039 0.0
H457 H 0.26727 0.13902 0.53893 0.0
C458 C 0.36776 0.12614 0.56414 0.0
N459 N 0.35461 0.11134 0.55881 0.0
N460 N 0.34217 0.11828 0.54469 0.0
C461 C 0.34717 0.13777 0.5404 0.0
C462 C 0.36343 0.14341 0.55273 0.0
C463 C 0.38513 0.12307 0.57867 0.0
H464 H 0.39492 0.11047 0.57305 0.0
H465 H 0.37903 0.11852 0.59379 0.0
H466 H 0.39462 0.13696 0.58038 0.0
O467 O 0.35562 0.06511 0.54407 0.0
O468 O 0.33464 0.07668 0.52022 0.0
H469 H 0.33752 0.14305 0.50971 0.0
H470 H 0.34347 0.16609 0.52378 0.0
C471 C 0.33663 0.15065 0.5248 0.0
H472 H 0.32028 0.15211 0.52891 0.0
H473 H 0.32134 0.10545 0.4885 0.0
O474 O 0.37593 0.07733 0.58548 0.0
C475 C 0.34776 0.06377 0.52637 0.0
Co476 Co 0.67055 0.60266 0.31343 0.0
Co477 Co 0.64949 0.56999 0.28536 0.0
C478 C 0.67016 0.55837 0.32456 0.0
O479 O 0.67469 0.57684 0.3287 0.0
O480 O 0.66049 0.55365 0.30835 0.0
C481 C 0.67804 0.62954 0.34853 0.0
O482 O 0.66825 0.61617 0.35979 0.0
C483 C 0.62686 0.53419 0.26983 0.0
C484 C 0.61714 0.54549 0.23958 0.0
C485 C 0.61639 0.52862 0.25227 0.0
N486 N 0.63329 0.55355 0.26763 0.0
N487 N 0.62737 0.5602 0.24954 0.0
C488 C 0.63279 0.52089 0.2874 0.0
H489 H 0.64966 0.52039 0.28839 0.0
H490 H 0.62696 0.52764 0.30178 0.0
H491 H 0.62711 0.50507 0.28576 0.0
C492 C 0.62935 0.62086 0.31133 0.0
N493 N 0.64285 0.60624 0.30634 0.0
N494 N 0.63363 0.59225 0.29527 0.0
C495 C 0.61374 0.59729 0.2934 0.0
C496 C 0.61042 0.61558 0.30353 0.0
C497 C 0.63473 0.64013 0.32235 0.0
H498 H 0.64973 0.64583 0.31704 0.0
H499 H 0.63566 0.63698 0.33895 0.0
H500 H 0.62316 0.6522 0.31975 0.0
O501 O 0.68768 0.60224 0.28884 0.0
O502 O 0.67306 0.57939 0.26865 0.0
H503 H 0.59887 0.58632 0.26659 0.0
H504 H 0.58236 0.58842 0.28845 0.0
C505 C 0.59795 0.58424 0.28335 0.0
H506 H 0.60076 0.56796 0.28694 0.0
H507 H 0.63064 0.57471 0.24388 0.0
O508 O 0.68046 0.62617 0.32959 0.0
C509 C 0.68713 0.59229 0.2722 0.0
Co510 Co 0.14519 0.91476 0.07145 0.0
Co511 Co 0.1751 0.898 0.03819 0.0
C512 C 0.19006 0.91706 0.0774 0.0
O513 O 0.17205 0.91992 0.08418 0.0
O514 O 0.19318 0.90889 0.06002 0.0
C515 C 0.12213 0.92335 0.10932 0.0
O516 O 0.13898 0.92086 0.11987 0.0
C517 C 0.20891 0.87433 0.02091 0.0
C518 C 0.19907 0.87101 0.98883 0.0
C519 C 0.2145 0.8659 0.00233 0.0
N520 N 0.19099 0.88397 0.01846 0.0
N521 N 0.18523 0.88199 -0.00075 0.0
C522 C 0.2195 0.8721 0.041 0.0
H523 H 0.20813 0.87145 0.05351 0.0
H524 H 0.2291 0.85816 0.0413 0.0
H525 H 0.22939 0.8856 0.04356 0.0
C526 C 0.12955 0.87273 0.06878 0.0
N527 N 0.14282 0.88733 0.06321 0.0
N528 N 0.15509 0.88012 0.04908 0.0
C529 C 0.1499 0.86058 0.04514 0.0
C530 C 0.13367 0.85526 0.05761 0.0
C531 C 0.11221 0.87609 0.08327 0.0
H532 H 0.10303 0.8893 0.07805 0.0
H533 H 0.11839 0.87974 0.0986 0.0
H534 H 0.10209 0.8626 0.08442 0.0
O535 O 0.14181 0.93342 0.04804 0.0
O536 O 0.16245 0.92157 0.02405 0.0
H537 H 0.15778 0.85375 0.01428 0.0
H538 H 0.15413 0.83147 0.03012 0.0
C539 C 0.16018 0.84728 0.02973 0.0
H540 H 0.1768 0.84691 0.03279 0.0
H541 H 0.17174 0.888 0.9933 0.0
O542 O 0.12248 0.92153 0.09003 0.0
C543 C 0.14943 0.93457 0.03023 0.0
Co544 Co 0.18405 0.32816 0.10044 0.0
Co545 Co 0.2156 0.34741 0.0701 0.0
C546 C 0.17551 0.32978 0.05592 0.0
O547 O 0.16973 0.32556 0.074 0.0
O548 O 0.19279 0.33803 0.05245 0.0
C549 C 0.14762 0.32038 0.12591 0.0
O550 O 0.13635 0.32904 0.11177 0.0
C551 C 0.2316 0.37308 0.03698 0.0
C552 C 0.26384 0.37641 0.04625 0.0
C553 C 0.24992 0.38204 0.03138 0.0
N554 N 0.23458 0.36268 0.0544 0.0
N555 N 0.2539 0.36466 0.0598 0.0
C556 C 0.21132 0.37528 0.02675 0.0
H557 H 0.19902 0.37581 0.03836 0.0
H558 H 0.21078 0.38927 0.01724 0.0
H559 H 0.20865 0.36182 0.01685 0.0
C560 C 0.18814 0.36876 0.11959 0.0
N561 N 0.19284 0.35522 0.10491 0.0
N562 N 0.20591 0.36357 0.09217 0.0
C563 C 0.20977 0.38286 0.09828 0.0
C564 C 0.19875 0.38667 0.11594 0.0
C565 C 0.17288 0.36489 0.13613 0.0
H566 H 0.15794 0.36134 0.1291 0.0
H567 H 0.1709 0.37823 0.14632 0.0
H568 H 0.17775 0.35151 0.14528 0.0
O569 O 0.20743 0.30923 0.1006 0.0
O570 O 0.23038 0.32286 0.0799 0.0
H571 H 0.23984 0.39057 0.0885 0.0
H572 H 0.22445 0.41233 0.09515 0.0
C573 C 0.22425 0.39707 0.08786 0.0
H574 H 0.21985 0.39869 0.0716 0.0
H575 H 0.26025 0.35809 0.07283 0.0
O576 O 0.16678 0.31893 0.12339 0.0
C577 C 0.2248 0.30874 0.09197 0.0
Co578 Co 0.67725 0.1664 0.89859 0.0
Co579 Co 0.71116 0.15071 0.92838 0.0
C580 C 0.66988 0.16535 0.94312 0.0
O581 O 0.66314 0.16858 0.92516 0.0
O582 O 0.68792 0.15873 0.94614 0.0
C583 C 0.64021 0.17171 0.87274 0.0
O584 O 0.62897 0.16299 0.88685 0.0
C585 C 0.7285 0.12547 0.96092 0.0
C586 C 0.76138 0.13232 0.95794 0.0
C587 C 0.74738 0.12173 0.96968 0.0
N588 N 0.73126 0.13773 0.94473 0.0
N589 N 0.75096 0.14156 0.94287 0.0
C590 C 0.70801 0.11951 0.96896 0.0
H591 H 0.70317 0.13081 0.9806 0.0
H592 H 0.6966 0.11945 0.95644 0.0
H593 H 0.70852 0.10429 0.97629 0.0
C594 C 0.68458 0.12596 0.88016 0.0
N595 N 0.68824 0.14005 0.89459 0.0
N596 N 0.70256 0.1333 0.90693 0.0
C597 C 0.70847 0.11459 0.9007 0.0
C598 C 0.69733 0.10942 0.88345 0.0
C599 C 0.66855 0.12806 0.86401 0.0
H600 H 0.67247 0.14103 0.85387 0.0
H601 H 0.65372 0.13142 0.87137 0.0
H602 H 0.66688 0.114 0.85477 0.0
O603 O 0.69905 0.18715 0.89746 0.0
O604 O 0.72381 0.17594 0.91752 0.0
H605 H 0.73892 0.112 0.91212 0.0
H606 H 0.72884 0.08859 0.9015 0.0
C607 C 0.72507 0.10241 0.91052 0.0
H608 H 0.72014 0.09778 0.92602 0.0
H609 H 0.7572 0.15106 0.93174 0.0
O610 O 0.65927 0.17384 0.87553 0.0
C611 C 0.71665 0.18924 0.90534 0.0
Co612 Co 0.57916 0.92992 0.6523 0.0
Co613 Co 0.59769 0.96156 0.68297 0.0
C614 C 0.57869 0.92212 0.69704 0.0
O615 O 0.57465 0.91648 0.67887 0.0
O616 O 0.58763 0.93902 0.70063 0.0
C617 C 0.55336 0.90547 0.62716 0.0
O618 O 0.53941 0.91073 0.64055 0.0
C619 C 0.62414 0.9763 0.7158 0.0
C620 C 0.62455 0.00949 0.71003 0.0
C621 C 0.63198 0.99459 0.72308 0.0
N622 N 0.61258 0.98029 0.69935 0.0
N623 N 0.61288 0.00015 0.69597 0.0
C624 C 0.62859 0.95521 0.72328 0.0
H625 H 0.62746 0.94413 0.71053 0.0
H626 H 0.64403 0.9544 0.73019 0.0
H627 H 0.61716 0.95097 0.735 0.0
C628 C 0.62059 0.93246 0.63526 0.0
N629 N 0.60661 0.93784 0.64925 0.0
N630 N 0.61453 0.95144 0.66168 0.0
C631 C 0.63389 0.95531 0.65581 0.0
C632 C 0.63837 0.94325 0.639 0.0
C633 C 0.61631 0.91845 0.61772 0.0
H634 H 0.60332 0.92457 0.60877 0.0
H635 H 0.6118 0.90326 0.62367 0.0
H636 H 0.62964 0.91673 0.60747 0.0
O637 O 0.56078 0.9537 0.65025 0.0
O638 O 0.57353 0.97629 0.67198 0.0
H639 H 0.6405 0.9855 0.6662 0.0
H640 H 0.66276 0.97119 0.65826 0.0
C641 C 0.64777 0.97023 0.66606 0.0
H642 H 0.65023 0.96546 0.6821 0.0
H643 H 0.60513 0.00731 0.68405 0.0
O644 O 0.57162 0.91139 0.62977 0.0
C645 C 0.56008 0.97102 0.65898 0.0
Co646 Co 0.81427 0.8313 0.39896 0.0
Co647 Co 0.78413 0.85194 0.42992 0.0
C648 C 0.82191 0.82991 0.4439 0.0
O649 O 0.82717 0.82562 0.42566 0.0
O650 O 0.80576 0.8401 0.44768 0.0
C651 C 0.85102 0.82143 0.37489 0.0
O652 O 0.86218 0.82747 0.39039 0.0
C653 C 0.76856 0.87704 0.46389 0.0
C654 C 0.73759 0.88441 0.45282 0.0
C655 C 0.75089 0.88752 0.46893 0.0
N656 N 0.7658 0.86813 0.44562 0.0
N657 N 0.74723 0.87255 0.43914 0.0
C658 C 0.78817 0.87652 0.47553 0.0
H659 H 0.80127 0.8761 0.46484 0.0
H660 H 0.78957 0.89 0.48569 0.0
H661 H 0.78856 0.86252 0.48501 0.0
C662 C 0.8147 0.873 0.38208 0.0
N663 N 0.80841 0.85929 0.39599 0.0
N664 N 0.79582 0.86818 0.40885 0.0
C665 C 0.79384 0.88799 0.40354 0.0
C666 C 0.80582 0.89166 0.3865 0.0
C667 C 0.82771 0.86788 0.36401 0.0
H668 H 0.82174 0.85396 0.35648 0.0
H669 H 0.84348 0.86475 0.36925 0.0
H670 H 0.82805 0.88041 0.35266 0.0
O671 O 0.78924 0.81493 0.39672 0.0
O672 O 0.76767 0.82897 0.41863 0.0
H673 H 0.76473 0.89963 0.4123 0.0
H674 H 0.78409 0.91899 0.40935 0.0
C675 C 0.78108 0.90323 0.41473 0.0
H676 H 0.78434 0.90231 0.4313 0.0
H677 H 0.74121 0.86757 0.42527 0.0
O678 O 0.83169 0.82192 0.3762 0.0
C679 C 0.77192 0.81538 0.40542 0.0
Co680 Co 0.92245 0.06358 0.14598 0.0
Co681 Co 0.90042 0.03557 0.17792 0.0
C682 C 0.92134 0.0745 0.19021 0.0
O683 O 0.92608 0.0788 0.17183 0.0
O684 O 0.91159 0.05827 0.19467 0.0
C685 C 0.93326 0.0988 0.12057 0.0
O686 O 0.9268 0.11049 0.1355 0.0
C687 C 0.87509 0.02166 0.21241 0.0
C688 C 0.86579 0.9911 0.20162 0.0
C689 C 0.8637 0.00463 0.2177 0.0
N690 N 0.8835 0.01831 0.19401 0.0
N691 N 0.87793 -0.0 0.1877 0.0
C692 C 0.87694 0.04127 0.22392 0.0
H693 H 0.87623 0.05431 0.21317 0.0
H694 H 0.86466 0.04283 0.23546 0.0
H695 H 0.89196 0.0417 0.23173 0.0
C696 C 0.88176 0.06229 0.12687 0.0
N697 N 0.89483 0.05688 0.14174 0.0
N698 N 0.88517 0.04572 0.15533 0.0
C699 C 0.86541 0.04406 0.14969 0.0
C700 C 0.86265 0.05452 0.13148 0.0
C701 C 0.88779 0.07386 0.10811 0.0
H702 H 0.9023 0.06768 0.10202 0.0
H703 H 0.89014 0.09012 0.11213 0.0
H704 H 0.87601 0.07279 0.09601 0.0
O705 O 0.93946 0.03893 0.14702 0.0
O706 O 0.92396 0.01851 0.16904 0.0
H707 H 0.85071 0.01708 0.16042 0.0
H708 H 0.83374 0.03846 0.1571 0.0
C709 C 0.84923 0.03384 0.16211 0.0
H710 H 0.85116 0.0378 0.17843 0.0
H711 H 0.88234 0.99364 0.17379 0.0
O712 O 0.93276 0.07953 0.12258 0.0
C713 C 0.93854 0.02218 0.15675 0.0
Co714 Co 0.31306 0.67201 0.59998 0.0
Co715 Co 0.28469 0.65069 0.56785 0.0
C716 C 0.3237 0.6711 0.55553 0.0
O717 O 0.32775 0.67621 0.57386 0.0
O718 O 0.30764 0.66107 0.55111 0.0
C719 C 0.34855 0.67907 0.62647 0.0
O720 O 0.35929 0.6681 0.6136 0.0
C721 C 0.27105 0.62448 0.53401 0.0
C722 C 0.23833 0.62097 0.54124 0.0
C723 C 0.25307 0.61567 0.52703 0.0
N724 N 0.267 0.6346 0.55138 0.0
N725 N 0.24744 0.63239 0.55564 0.0
C726 C 0.29198 0.62236 0.52519 0.0
H727 H 0.30362 0.62335 0.53744 0.0
H728 H 0.29361 0.60762 0.51702 0.0
H729 H 0.29466 0.63498 0.51426 0.0
C730 C 0.31117 0.63081 0.61849 0.0
N731 N 0.30609 0.64425 0.60383 0.0
N732 N 0.29458 0.63505 0.59019 0.0
C733 C 0.29233 0.61529 0.59556 0.0
C734 C 0.3029 0.61197 0.61361 0.0
C735 C 0.32256 0.6362 0.63755 0.0
H736 H 0.31772 0.65141 0.64307 0.0
H737 H 0.33913 0.63659 0.6342 0.0
H738 H 0.3198 0.62488 0.64982 0.0
O739 O 0.28843 0.68905 0.59998 0.0
O740 O 0.26817 0.67452 0.57715 0.0
H741 H 0.26468 0.60343 0.58308 0.0
H742 H 0.28341 0.58411 0.58913 0.0
C743 C 0.28119 0.59976 0.5831 0.0
H744 H 0.2867 0.60033 0.56713 0.0
H745 H 0.24028 0.6388 0.56833 0.0
O746 O 0.32973 0.68219 0.62301 0.0
C747 C 0.27176 0.68855 0.5901 0.0
Co748 Co 0.07859 0.5635 0.35193 0.0
Co749 Co 0.09792 0.53423 0.31927 0.0
C750 C 0.0802 0.57512 0.30793 0.0
O751 O 0.07546 0.57925 0.32635 0.0
O752 O 0.08904 0.55843 0.30322 0.0
C753 C 0.0674 0.59878 0.37717 0.0
O754 O 0.07036 0.61024 0.36101 0.0
C755 C 0.12036 0.51809 0.2837 0.0
C756 C 0.12618 0.48639 0.29364 0.0
C757 C 0.1291 0.49979 0.27758 0.0
N758 N 0.11286 0.51561 0.30263 0.0
N759 N 0.1164 0.49665 0.30846 0.0
C760 C 0.1168 0.53677 0.27112 0.0
H761 H 0.10012 0.53912 0.26956 0.0
H762 H 0.12322 0.55024 0.27911 0.0
H763 H 0.12342 0.53557 0.25564 0.0
C764 C 0.11931 0.55866 0.37028 0.0
N765 N 0.10569 0.55453 0.3555 0.0
N766 N 0.11416 0.54254 0.34182 0.0
C767 C 0.13369 0.53895 0.34734 0.0
C768 C 0.13745 0.54887 0.36566 0.0
C769 C 0.11525 0.57267 0.38785 0.0
H770 H 0.11003 0.58764 0.38194 0.0
H771 H 0.129 0.57509 0.39739 0.0
H772 H 0.10286 0.56622 0.3974 0.0
O773 O 0.05964 0.54031 0.35095 0.0
O774 O 0.07304 0.51923 0.3282 0.0
H775 H 0.14375 0.50988 0.33678 0.0
H776 H 0.16415 0.52767 0.34131 0.0
C777 C 0.14834 0.5261 0.33549 0.0
H778 H 0.14787 0.53048 0.31916 0.0
H779 H 0.11183 0.49062 0.32246 0.0
O780 O 0.07009 0.57963 0.37596 0.0
C781 C 0.05903 0.52377 0.34086 0.0
Co782 Co 0.42533 0.43761 0.85039 0.0
Co783 Co 0.40241 0.46508 0.81851 0.0
C784 C 0.42425 0.42696 0.80584 0.0
O785 O 0.42982 0.42331 0.82414 0.0
O786 O 0.41335 0.44248 0.80144 0.0
C787 C 0.4374 0.40222 0.87521 0.0
O788 O 0.43152 0.39052 0.86004 0.0
C789 C 0.37836 0.48148 0.7839 0.0
C790 C 0.36762 0.51055 0.79721 0.0
C791 C 0.36692 0.49882 0.77966 0.0
N792 N 0.38523 0.48287 0.80319 0.0
N793 N 0.37877 0.50028 0.81101 0.0
C794 C 0.38466 0.46499 0.76944 0.0
H795 H 0.40152 0.46371 0.76958 0.0
H796 H 0.37831 0.45022 0.7747 0.0
H797 H 0.37965 0.46807 0.7536 0.0
C798 C 0.3844 0.43672 0.8689 0.0
N799 N 0.3974 0.44305 0.85435 0.0
N800 N 0.38746 0.45425 0.84097 0.0
C801 C 0.36762 0.4551 0.84651 0.0
C802 C 0.36511 0.444 0.86433 0.0
C803 C 0.3906 0.42469 0.88731 0.0
H804 H 0.40461 0.43136 0.89403 0.0
H805 H 0.39395 0.40877 0.88266 0.0
H806 H 0.37849 0.42456 0.89912 0.0
O807 O 0.44118 0.46297 0.85054 0.0
O808 O 0.42578 0.48236 0.82754 0.0
H809 H 0.35175 0.48194 0.8372 0.0
H810 H 0.33584 0.45964 0.83902 0.0
C811 C 0.35114 0.46527 0.83445 0.0
H812 H 0.35343 0.46241 0.81794 0.0
H813 H 0.38219 0.50526 0.82573 0.0
O814 O 0.43604 0.42148 0.87354 0.0
C815 C 0.43994 0.4795 0.84052 0.0
H816 H 0.25149 0.11413 0.47335 0.0
H817 H 0.21909 0.12979 0.46339 0.0
H818 H 0.23098 0.18044 0.50364 0.0
H819 H 0.26366 0.16482 0.51358 0.0
H820 H 0.1844 0.14528 0.49152 0.0
H821 H 0.22319 0.20318 0.44266 0.0
H822 H 0.23578 0.17967 0.44953 0.0
H823 H 0.23183 0.199 0.46843 0.0
C824 C 0.24708 0.12851 0.48021 0.0
C825 C 0.25983 0.13818 0.4944 0.0
C826 C 0.22858 0.13736 0.47461 0.0
C827 C 0.22269 0.15617 0.48287 0.0
C828 C 0.23528 0.16583 0.49723 0.0
H829 H 0.12754 0.21974 0.41415 0.0
H830 H 0.15076 0.21422 0.44306 0.0
C831 C 0.2538 0.15687 0.50298 0.0
C832 C 0.20395 0.16598 0.47519 0.0
H833 H 0.188 0.19902 0.43841 0.0
C834 C 0.18505 0.15737 0.48025 0.0
C835 C 0.20492 0.18187 0.4607 0.0
C836 C 0.22496 0.19156 0.45487 0.0
C837 C 0.16714 0.16345 0.47023 0.0
C838 C 0.16836 0.17808 0.45441 0.0
C839 C 0.18707 0.18776 0.45049 0.0
C840 C 0.15145 0.18137 0.43978 0.0
C841 C 0.14721 0.15368 0.47628 0.0
C842 C 0.14385 0.16474 0.42861 0.0
C843 C 0.13058 0.16787 0.4123 0.0
C844 C 0.12489 0.18769 0.40666 0.0
C845 C 0.13165 0.2043 0.41835 0.0
C846 C 0.14493 0.20116 0.43478 0.0
H847 H 0.1472 0.14973 0.49277 0.0
H848 H 0.13405 0.16384 0.47308 0.0
H849 H 0.1452 0.13929 0.4676 0.0
H850 H 0.14906 0.14938 0.43176 0.0
H851 H 0.12547 0.15485 0.40349 0.0
H852 H 0.5511 0.40102 0.14001 0.0
H853 H 0.55613 0.4249 0.16818 0.0
H854 H 0.56848 0.3746 0.2088 0.0
H855 H 0.56381 0.35057 0.18029 0.0
H856 H 0.53966 0.43014 0.20774 0.0
H857 H 0.62177 0.40785 0.2087 0.0
H858 H 0.60488 0.40012 0.18842 0.0
H859 H 0.60318 0.38816 0.21299 0.0
C860 C 0.55455 0.39508 0.15505 0.0
C861 C 0.55734 0.37411 0.15807 0.0
C862 C 0.55731 0.40868 0.17113 0.0
C863 C 0.56295 0.40152 0.19049 0.0
C864 C 0.56438 0.38041 0.1939 0.0
H865 H 0.59212 0.50326 0.27513 0.0
H866 H 0.57816 0.46998 0.26479 0.0
C867 C 0.56161 0.36674 0.17771 0.0
C868 C 0.56947 0.41653 0.20604 0.0
H869 H 0.61265 0.43742 0.22626 0.0
C870 C 0.5555 0.4315 0.21229 0.0
C871 C 0.59021 0.41826 0.21177 0.0
C872 C 0.60598 0.40286 0.2051 0.0
C873 C 0.56198 0.44889 0.223 0.0
C874 C 0.58291 0.45116 0.22763 0.0
C875 C 0.59661 0.43552 0.22265 0.0
C876 C 0.5914 0.47084 0.23458 0.0
C877 C 0.54674 0.4654 0.22794 0.0
C878 C 0.60353 0.48214 0.22106 0.0
C879 C 0.61159 0.50089 0.22695 0.0
C880 C 0.60789 0.50859 0.24657 0.0
C881 C 0.59563 0.49735 0.26011 0.0
C882 C 0.58749 0.47852 0.25417 0.0
H883 H 0.53134 0.46199 0.22176 0.0
H884 H 0.54553 0.46711 0.24473 0.0
H885 H 0.55197 0.48023 0.22163 0.0
H886 H 0.60662 0.47649 0.20584 0.0
H887 H 0.62089 0.50931 0.2162 0.0
H888 H 0.36394 0.77776 0.9097 0.0
H889 H 0.33753 0.78315 0.9358 0.0
H890 H 0.34993 0.84773 0.93496 0.0
H891 H 0.37621 0.84239 0.90891 0.0
H892 H 0.3357 0.81057 0.97738 0.0
H893 H 0.28968 0.83328 0.90963 0.0
H894 H 0.31187 0.81708 0.90761 0.0
H895 H 0.31489 0.84395 0.91172 0.0
C896 C 0.36146 0.79296 0.91568 0.0
C897 C 0.37184 0.80972 0.90735 0.0
C898 C 0.34646 0.79602 0.93054 0.0
C899 C 0.34185 0.81583 0.93716 0.0
C900 C 0.3534 0.83234 0.93004 0.0
H901 H 0.25369 0.87393 0.01421 0.0
H902 H 0.2848 0.85829 0.00087 0.0
C903 C 0.36831 0.82931 0.91518 0.0
C904 C 0.32291 0.8198 0.94859 0.0
H905 H 0.27497 0.83861 0.94191 0.0
C906 C 0.32231 0.81655 0.96971 0.0
C907 C 0.30551 0.82733 0.93838 0.0
C908 C 0.30532 0.83053 0.91556 0.0
C909 C 0.30471 0.82122 0.98105 0.0
C910 C 0.28755 0.82953 0.9709 0.0
C911 C 0.28811 0.83222 0.94968 0.0
C912 C 0.269 0.83643 0.98179 0.0
C913 C 0.30461 0.81717 0.00369 0.0
C914 C 0.24979 0.82934 0.97554 0.0
C915 C 0.23204 0.83842 0.98295 0.0
C916 C 0.23318 0.8546 0.99691 0.0
C917 C 0.25237 0.86112 0.00387 0.0
C918 C 0.27016 0.85216 0.99629 0.0
H919 H 0.31597 0.80532 0.00791 0.0
H920 H 0.30867 0.8314 0.01189 0.0
H921 H 0.2893 0.81219 0.00895 0.0
H922 H 0.24856 0.81732 0.96426 0.0
H923 H 0.21741 0.83316 0.97733 0.0
H924 H 0.87327 0.50732 0.75755 0.0
H925 H 0.88986 0.53806 0.74432 0.0
H926 H 0.93783 0.50106 0.71856 0.0
H927 H 0.92064 0.47024 0.73088 0.0
H928 H 0.92581 0.55706 0.74773 0.0
H929 H 0.91643 0.52827 0.66857 0.0
H930 H 0.90523 0.51559 0.69019 0.0
H931 H 0.9318 0.51198 0.68424 0.0
C932 C 0.88752 0.50584 0.74932 0.0
C933 C 0.89568 0.48653 0.74506 0.0
C934 C 0.89698 0.52337 0.74178 0.0
C935 C 0.91484 0.52183 0.73004 0.0
C936 C 0.92375 0.50257 0.72704 0.0
H937 H 0.97244 0.61469 0.65419 0.0
H938 H 0.96979 0.58743 0.6798 0.0
C939 C 0.91402 0.48502 0.73416 0.0
C940 C 0.92308 0.54014 0.71965 0.0
H941 H 0.93296 0.55979 0.67245 0.0
C942 C 0.92752 0.55762 0.73129 0.0
C943 C 0.92511 0.54092 0.69814 0.0
C944 C 0.91921 0.52328 0.68453 0.0
C945 C 0.93365 0.57589 0.72192 0.0
C946 C 0.93555 0.57656 0.70051 0.0
C947 C 0.93173 0.55901 0.68894 0.0
C948 C 0.93931 0.59569 0.68931 0.0
C949 C 0.93771 0.59449 0.7348 0.0
C950 C 0.92322 0.60954 0.68666 0.0
C951 C 0.92462 0.62485 0.67193 0.0
C952 C 0.94218 0.62655 0.65988 0.0
C953 C 0.95887 0.6137 0.66357 0.0
C954 C 0.95737 0.5982 0.67813 0.0
H955 H 0.93895 0.59067 0.75126 0.0
H956 H 0.95199 0.60211 0.7298 0.0
H957 H 0.92503 0.60552 0.73279 0.0
H958 H 0.90903 0.60757 0.6949 0.0
H959 H 0.91154 0.63454 0.66907 0.0
H960 H 0.77903 0.33081 0.51825 0.0
H961 H 0.74831 0.31448 0.5317 0.0
H962 H 0.71112 0.35982 0.5018 0.0
H963 H 0.74178 0.3759 0.48799 0.0
H964 H 0.7245 0.33384 0.55782 0.0
H965 H 0.6773 0.3092 0.49227 0.0
H966 H 0.70403 0.31539 0.48976 0.0
H967 H 0.68516 0.33532 0.4902 0.0
C968 C 0.76424 0.33693 0.51412 0.0
C969 C 0.76272 0.35447 0.50196 0.0
C970 C 0.74672 0.32758 0.52175 0.0
C971 C 0.72738 0.33577 0.51756 0.0
C972 C 0.7258 0.35286 0.50475 0.0
H973 H 0.62603 0.34164 0.59768 0.0
H974 H 0.65179 0.34725 0.57118 0.0
C975 C 0.74335 0.36209 0.4969 0.0
C976 C 0.70939 0.32846 0.5291 0.0
H977 H 0.65979 0.31303 0.52449 0.0
C978 C 0.71049 0.32897 0.55047 0.0
C979 C 0.6911 0.3221 0.51953 0.0
C980 C 0.68936 0.32026 0.49667 0.0
C981 C 0.69364 0.32398 0.56253 0.0
C982 C 0.67509 0.31863 0.55299 0.0
C983 C 0.67405 0.31738 0.53166 0.0
C984 C 0.65663 0.31515 0.56532 0.0
C985 C 0.69561 0.32488 0.58547 0.0
C986 C 0.6504 0.29526 0.5701 0.0
C987 C 0.6357 0.29205 0.58523 0.0
C988 C 0.62726 0.30871 0.59568 0.0
C989 C 0.63249 0.3286 0.58983 0.0
C990 C 0.64708 0.33181 0.57471 0.0
H991 H 0.7118 0.32566 0.59044 0.0
H992 H 0.68763 0.33865 0.59123 0.0
H993 H 0.68837 0.31134 0.59261 0.0
H994 H 0.65776 0.28226 0.56305 0.0
H995 H 0.63188 0.27659 0.58964 0.0
H996 H 0.37393 0.00169 0.27846 0.0
H997 H 0.39029 0.96972 0.28824 0.0
H998 H 0.42778 0.97211 0.23422 0.0
H999 H 0.41196 0.00476 0.22479 0.0
H1000 H 0.39194 0.93279 0.26709 0.0
H1001 H 0.46941 0.96517 0.28041 0.0
H1002 H 0.44722 0.9812 0.27759 0.0
H1003 H 0.45809 0.96889 0.25569 0.0
C1004 C 0.38565 0.99539 0.26866 0.0
C1005 C 0.39139 0.00544 0.25068 0.0
C1006 C 0.39491 0.97709 0.27419 0.0
C1007 C 0.41023 0.96853 0.26195 0.0
C1008 C 0.41605 0.9785 0.24392 0.0
H1009 H 0.44251 0.85009 0.31754 0.0
H1010 H 0.43871 0.87344 0.28835 0.0
C1011 C 0.40679 0.99695 0.2384 0.0
C1012 C 0.42014 0.94942 0.26877 0.0
H1013 H 0.46351 0.93177 0.29149 0.0
C1014 C 0.40773 0.93231 0.27203 0.0
C1015 C 0.44076 0.94894 0.27508 0.0
C1016 C 0.45471 0.96701 0.27217 0.0
C1017 C 0.41482 0.91538 0.28301 0.0
C1018 C 0.43509 0.91541 0.29048 0.0
C1019 C 0.44802 0.9318 0.28569 0.0
C1020 C 0.44164 0.90089 0.30652 0.0
C1021 C 0.39999 0.89848 0.28803 0.0
C1022 C 0.44586 0.90855 0.32605 0.0
C1023 C 0.44829 0.89534 0.34248 0.0
C1024 C 0.44644 0.87422 0.33972 0.0
C1025 C 0.44385 0.86637 0.31996 0.0
C1026 C 0.44153 0.87967 0.30338 0.0
H1027 H 0.38413 0.90225 0.2834 0.0
H1028 H 0.40459 0.88437 0.27991 0.0
H1029 H 0.40009 0.89524 0.30465 0.0
H1030 H 0.4461 0.92484 0.32884 0.0
H1031 H 0.45058 0.90167 0.35757 0.0
H1032 H 0.8671 0.719 0.09317 0.0
H1033 H 0.84129 0.71516 0.06621 0.0
H1034 H 0.84569 0.64971 0.07149 0.0
H1035 H 0.87172 0.65354 0.09795 0.0
H1036 H 0.84033 0.66363 0.03085 0.0
H1037 H 0.78416 0.69718 0.08517 0.0
H1038 H 0.80589 0.71257 0.07867 0.0
H1039 H 0.80938 0.68955 0.09309 0.0
C1040 C 0.8629 0.70385 0.08811 0.0
C1041 C 0.87112 0.68653 0.09766 0.0
C1042 C 0.84811 0.70167 0.07287 0.0
C1043 C 0.84137 0.68215 0.06714 0.0
C1044 C 0.85066 0.6649 0.07572 0.0
H1045 H 0.73303 0.62345 0.03741 0.0
H1046 H 0.76386 0.63953 0.05084 0.0
C1047 C 0.86541 0.66707 0.09087 0.0
C1048 C 0.82323 0.67937 0.05403 0.0
H1049 H 0.77129 0.68259 0.05531 0.0
C1050 C 0.82524 0.66813 0.03591 0.0
C1051 C 0.80358 0.68512 0.06087 0.0
C1052 C 0.80046 0.69666 0.08056 0.0
C1053 C 0.80802 0.66164 0.02494 0.0
C1054 C 0.78839 0.6667 0.03227 0.0
C1055 C 0.78642 0.67883 0.04977 0.0
C1056 C 0.76976 0.65736 0.0237 0.0
C1057 C 0.81083 0.64838 0.00635 0.0
C1058 C 0.76279 0.66227 0.00406 0.0
C1059 C 0.74511 0.65309 0.99637 0.0
C1060 C 0.73434 0.6388 0.00817 0.0
C1061 C 0.74117 0.63427 0.02794 0.0
C1062 C 0.75875 0.64343 0.03561 0.0
H1063 H 0.82703 0.64399 0.00401 0.0
H1064 H 0.80152 0.6343 0.00773 0.0
H1065 H 0.80552 0.65673 0.99262 0.0
H1066 H 0.77089 0.67332 0.99483 0.0
H1067 H 0.73971 0.6574 0.98136 0.0
H1068 H 0.08866 0.99105 0.72628 0.0
H1069 H 0.07162 0.02229 0.73819 0.0
H1070 H 0.10921 0.02203 0.79221 0.0
H1071 H 0.12628 0.99112 0.78035 0.0
H1072 H 0.06621 0.02612 0.79902 0.0
H1073 H 0.09621 0.08128 0.7417 0.0
H1074 H 0.08473 0.05797 0.73278 0.0
H1075 H 0.10845 0.05704 0.74634 0.0
C1076 C 0.09355 0.99799 0.74045 0.0
C1077 C 0.10909 0.98902 0.75221 0.0
C1078 C 0.08376 0.01571 0.74727 0.0
C1079 C 0.08935 0.02454 0.76595 0.0
C1080 C 0.10474 0.01546 0.77771 0.0
H1081 H 0.09222 0.1297 0.83412 0.0
H1082 H 0.09496 0.10362 0.80759 0.0
C1083 C 0.11447 0.99784 0.77094 0.0
C1084 C 0.07902 0.04291 0.77394 0.0
H1085 H 0.078 0.09475 0.76946 0.0
C1086 C 0.06836 0.04113 0.79238 0.0
C1087 C 0.08194 0.06236 0.76515 0.0
C1088 C 0.09351 0.06498 0.74544 0.0
C1089 C 0.06171 0.0584 0.80305 0.0
C1090 C 0.06547 0.07799 0.79476 0.0
C1091 C 0.07502 0.0797 0.77566 0.0
C1092 C 0.06269 0.0966 0.80725 0.0
C1093 C 0.05216 0.05556 0.82382 0.0
C1094 C 0.0435 0.10198 0.81511 0.0
C1095 C 0.04198 0.11673 0.83047 0.0
C1096 C 0.05962 0.12635 0.83789 0.0
C1097 C 0.07848 0.12229 0.82868 0.0
C1098 C 0.08001 0.10749 0.81349 0.0
H1099 H 0.05337 0.03957 0.82931 0.0
H1100 H 0.05952 0.0657 0.83522 0.0
H1101 H 0.03574 0.05958 0.82304 0.0
H1102 H 0.0299 0.09398 0.81023 0.0
H1103 H 0.02728 0.11969 0.83739 0.0
H1104 H 0.40768 0.13158 0.22234 0.0
H1105 H 0.43319 0.15876 0.21799 0.0
H1106 H 0.44002 0.14212 0.15473 0.0
H1107 H 0.41451 0.11512 0.15902 0.0
H1108 H 0.47776 0.16093 0.19378 0.0
H1109 H 0.40972 0.20194 0.16353 0.0
H1110 H 0.40755 0.18099 0.18127 0.0
H1111 H 0.41372 0.17612 0.15507 0.0
C1112 C 0.41528 0.13328 0.20777 0.0
C1113 C 0.40924 0.12149 0.19096 0.0
C1114 C 0.42979 0.14873 0.2053 0.0
C1115 C 0.43836 0.15237 0.18604 0.0
C1116 C 0.43361 0.1394 0.16972 0.0
H1117 H 0.5153 0.24041 0.12809 0.0
H1118 H 0.5021 0.20985 0.1448 0.0
C1119 C 0.41909 0.12405 0.17216 0.0
C1120 C 0.44911 0.17168 0.18192 0.0
H1121 H 0.44151 0.21811 0.1599 0.0
C1122 C 0.4699 0.17356 0.18654 0.0
C1123 C 0.43864 0.1881 0.17272 0.0
C1124 C 0.41614 0.18689 0.16791 0.0
C1125 C 0.48069 0.19144 0.18161 0.0
C1126 C 0.47036 0.20757 0.17161 0.0
C1127 C 0.44942 0.20577 0.16758 0.0
C1128 C 0.48088 0.22614 0.16417 0.0
C1129 C 0.50295 0.19293 0.18719 0.0
C1130 C 0.47336 0.24548 0.16946 0.0
C1131 C 0.48074 0.26293 0.15977 0.0
C1132 C 0.49592 0.26139 0.14476 0.0
C1133 C 0.50403 0.24213 0.14003 0.0
C1134 C 0.4965 0.22463 0.14961 0.0
H1135 H 0.50681 0.18261 0.20007 0.0
H1136 H 0.51232 0.18831 0.17387 0.0
H1137 H 0.50717 0.20878 0.19142 0.0
H1138 H 0.46119 0.24698 0.18054 0.0
H1139 H 0.47419 0.2776 0.16363 0.0
H1140 H 0.629 0.65767 0.90583 0.0
H1141 H 0.60367 0.68452 0.90027 0.0
H1142 H 0.58987 0.68488 0.96461 0.0
H1143 H 0.6155 0.65808 0.97021 0.0
H1144 H 0.56326 0.67399 0.91078 0.0
H1145 H 0.58746 0.74643 0.94779 0.0
H1146 H 0.60541 0.72696 0.94008 0.0
H1147 H 0.59031 0.72349 0.96262 0.0
C1148 C 0.62102 0.66401 0.91884 0.0
C1149 C 0.62397 0.65589 0.9384 0.0
C1150 C 0.60661 0.67931 0.91568 0.0
C1151 C 0.59497 0.68669 0.93204 0.0
C1152 C 0.59895 0.67961 0.95186 0.0
H1153 H 0.47035 0.72711 0.91803 0.0
H1154 H 0.50206 0.71356 0.93241 0.0
C1155 C 0.6135 0.66432 0.95504 0.0
C1156 C 0.57649 0.69883 0.92771 0.0
H1157 H 0.55351 0.74501 0.93506 0.0
C1158 C 0.56115 0.68953 0.91606 0.0
C1159 C 0.57384 0.71905 0.93468 0.0
C1160 C 0.59015 0.72972 0.94688 0.0
C1161 C 0.54321 0.69991 0.91109 0.0
C1162 C 0.54039 0.72004 0.91823 0.0
C1163 C 0.55572 0.72948 0.92983 0.0
C1164 C 0.52174 0.73146 0.91293 0.0
C1165 C 0.52749 0.68934 0.89797 0.0
C1166 C 0.52245 0.74653 0.89778 0.0
C1167 C 0.50438 0.75427 0.88953 0.0
C1168 C 0.48539 0.74708 0.89642 0.0
C1169 C 0.48479 0.73289 0.91245 0.0
C1170 C 0.50284 0.72522 0.92072 0.0
H1171 H 0.53364 0.67534 0.89068 0.0
H1172 H 0.51427 0.68491 0.90756 0.0
H1173 H 0.52186 0.69973 0.88583 0.0
H1174 H 0.53694 0.75131 0.89144 0.0
H1175 H 0.50538 0.76477 0.87684 0.0
H1176 H 0.09172 0.87656 0.65591 0.0
H1177 H 0.06374 0.85223 0.65249 0.0
H1178 H 0.06061 0.8465 0.718 0.0
H1179 H 0.08908 0.87067 0.72138 0.0
H1180 H 0.06574 0.81033 0.6996 0.0
H1181 H 0.00287 0.85061 0.66096 0.0
H1182 H 0.02642 0.85507 0.64784 0.0
H1183 H 0.02334 0.86402 0.67367 0.0
C1184 C 0.0847 0.87046 0.66956 0.0
C1185 C 0.0925 0.87529 0.68888 0.0
C1186 C 0.06857 0.85674 0.66763 0.0
C1187 C 0.05986 0.84776 0.68501 0.0
C1188 C 0.06697 0.85343 0.70442 0.0
H1189 H 0.97575 0.7459 0.65669 0.0
H1190 H 0.98788 0.77712 0.67352 0.0
C1191 C 0.08315 0.86721 0.70635 0.0
C1192 C 0.04588 0.8302 0.68249 0.0
H1193 H 0.00547 0.81393 0.65395 0.0
C1194 C 0.05221 0.81123 0.69011 0.0
C1195 C 0.02808 0.83134 0.67032 0.0
C1196 C 0.01968 0.85143 0.66294 0.0
C1197 C 0.04231 0.79319 0.68437 0.0
C1198 C 0.02585 0.79418 0.6705 0.0
C1199 C 0.01834 0.81323 0.66434 0.0
C1200 C 0.01808 0.77565 0.66035 0.0
C1201 C 0.05016 0.77311 0.6924 0.0
C1202 C 0.03098 0.76479 0.6472 0.0
C1203 C 0.02403 0.74729 0.63736 0.0
C1204 C 0.00397 0.74043 0.64031 0.0
C1205 C 0.99104 0.75127 0.65356 0.0
C1206 C 0.998 0.76892 0.66336 0.0
H1207 H 0.05847 0.77511 0.70704 0.0
H1208 H 0.03748 0.76211 0.69474 0.0
H1209 H 0.06092 0.76645 0.68116 0.0
H1210 H 0.04646 0.76991 0.64452 0.0
H1211 H 0.03434 0.73918 0.62731 0.0
H1212 H 0.02615 0.26159 0.4222 0.0
H1213 H 0.99471 0.2738 0.43817 0.0
H1214 H 0.96016 0.25244 0.38634 0.0
H1215 H 0.99148 0.23968 0.37069 0.0
H1216 H 0.97309 0.3032 0.42258 0.0
H1217 H 0.92213 0.23666 0.43139 0.0
H1218 H 0.9491 0.23399 0.42647 0.0
H1219 H 0.93157 0.23864 0.40581 0.0
C1220 C 0.01174 0.25903 0.41452 0.0
C1221 C 0.01115 0.24952 0.39536 0.0
C1222 C 0.9938 0.26596 0.42365 0.0
C1223 C 0.97499 0.26379 0.41362 0.0
C1224 C 0.97434 0.25371 0.39471 0.0
H1225 H 0.87043 0.33822 0.40674 0.0
H1226 H 0.89611 0.31127 0.40302 0.0
C1227 C 0.99227 0.24649 0.38572 0.0
C1228 C 0.95675 0.27469 0.42139 0.0
H1229 H 0.90567 0.2698 0.43066 0.0
C1230 C 0.95848 0.29577 0.42477 0.0
C1231 C 0.93763 0.26504 0.42418 0.0
C1232 C 0.93504 0.24229 0.42197 0.0
C1233 C 0.94149 0.30757 0.43001 0.0
C1234 C 0.92227 0.29808 0.43189 0.0
C1235 C 0.92051 0.27695 0.42915 0.0
C1236 C 0.90381 0.31049 0.43509 0.0
C1237 C 0.94398 0.33031 0.43271 0.0
C1238 C 0.89928 0.31835 0.45447 0.0
C1239 C 0.88461 0.33368 0.4566 0.0
C1240 C 0.87452 0.34134 0.43935 0.0
C1241 C 0.87809 0.33247 0.42021 0.0
C1242 C 0.89264 0.31709 0.4181 0.0
H1243 H 0.95988 0.33545 0.42989 0.0
H1244 H 0.93364 0.33855 0.42212 0.0
H1245 H 0.93965 0.33466 0.44849 0.0
H1246 H 0.90793 0.3135 0.46769 0.0
H1247 H 0.88212 0.34046 0.47147 0.0
H1248 H 0.97801 0.22779 0.83591 0.0
H1249 H 0.96773 0.25986 0.8201 0.0
H1250 H 0.01462 0.29162 0.85361 0.0
H1251 H 0.02444 0.25969 0.87011 0.0
H1252 H 0.97792 0.30847 0.85883 0.0
H1253 H 0.98988 0.29702 0.77636 0.0
H1254 H 0.97597 0.27609 0.78711 0.0
H1255 H 0.00174 0.28095 0.79536 0.0
C1256 C 0.9864 0.24154 0.8396 0.0
C1257 C 0.00226 0.24113 0.85399 0.0
C1258 C 0.98068 0.25983 0.83036 0.0
C1259 C 0.99073 0.27808 0.83529 0.0
C1260 C 0.00692 0.27764 0.84929 0.0
H1261 H 0.93026 0.39663 0.81374 0.0
H1262 H 0.95941 0.37341 0.81847 0.0
C1263 C 0.01264 0.25932 0.85858 0.0
C1264 C 0.98227 0.29774 0.82809 0.0
H1265 H 0.96305 0.32111 0.78572 0.0
C1266 C 0.97519 0.31158 0.84281 0.0
C1267 C 0.97879 0.30179 0.80719 0.0
C1268 C 0.98721 0.28825 0.79062 0.0
C1269 C 0.9632 0.3284 0.83731 0.0
C1270 C 0.95843 0.33157 0.81651 0.0
C1271 C 0.9667 0.31857 0.80167 0.0
C1272 C 0.94246 0.34625 0.81039 0.0
C1273 C 0.95443 0.34175 0.85392 0.0
C1274 C 0.92367 0.33871 0.8035 0.0
C1275 C 0.9072 0.35185 0.80078 0.0
C1276 C 0.90931 0.37274 0.80481 0.0
C1277 C 0.9284 0.38053 0.81052 0.0
C1278 C 0.94495 0.36732 0.8133 0.0
H1279 H 0.95762 0.33568 0.86941 0.0
H1280 H 0.96116 0.35723 0.85282 0.0
H1281 H 0.93766 0.34323 0.85205 0.0
H1282 H 0.92146 0.32249 0.80122 0.0
H1283 H 0.89257 0.3456 0.79628 0.0
H1284 H 0.38569 0.15863 0.52132 0.0
H1285 H 0.41197 0.18527 0.52367 0.0
H1286 H 0.39477 0.1967 0.58612 0.0
H1287 H 0.36858 0.1701 0.58379 0.0
H1288 H 0.40857 0.23353 0.55829 0.0
H1289 H 0.45988 0.1659 0.5645 0.0
H1290 H 0.44217 0.16702 0.54353 0.0
H1291 H 0.4328 0.16401 0.56904 0.0
C1292 C 0.38708 0.16741 0.53525 0.0
C1293 C 0.37535 0.16242 0.55243 0.0
C1294 C 0.40204 0.18254 0.53659 0.0
C1295 C 0.40527 0.19282 0.55509 0.0
C1296 C 0.39236 0.18901 0.5717 0.0
H1297 H 0.49135 0.26125 0.62284 0.0
H1298 H 0.46073 0.24974 0.605 0.0
C1299 C 0.3775 0.17383 0.57039 0.0
C1300 C 0.42412 0.20463 0.55844 0.0
H1301 H 0.47421 0.19789 0.57039 0.0
C1302 C 0.42304 0.22587 0.56063 0.0
C1303 C 0.44288 0.19449 0.56147 0.0
C1304 C 0.44467 0.17159 0.55964 0.0
C1305 C 0.44034 0.23727 0.56619 0.0
C1306 C 0.45891 0.22699 0.57019 0.0
C1307 C 0.46003 0.2058 0.56726 0.0
C1308 C 0.477 0.2373 0.57906 0.0
C1309 C 0.43848 0.26013 0.5678 0.0
C1310 C 0.49639 0.2341 0.57052 0.0
C1311 C 0.5139 0.24028 0.58094 0.0
C1312 C 0.51232 0.25007 0.5999 0.0
C1313 C 0.49294 0.25419 0.608 0.0
C1314 C 0.47542 0.24769 0.59774 0.0
H1315 H 0.4265 0.26603 0.55736 0.0
H1316 H 0.43398 0.26425 0.58359 0.0
H1317 H 0.45313 0.26783 0.5642 0.0
H1318 H 0.49801 0.22599 0.55621 0.0
H1319 H 0.52871 0.2369 0.57444 0.0
H1320 H 0.58332 0.62765 0.27418 0.0
H1321 H 0.55407 0.65073 0.27875 0.0
H1322 H 0.56575 0.65237 0.34352 0.0
H1323 H 0.59434 0.62895 0.33906 0.0
H1324 H 0.5243 0.65172 0.33422 0.0
H1325 H 0.56582 0.71098 0.28939 0.0
H1326 H 0.5602 0.68725 0.27686 0.0
H1327 H 0.5781 0.68778 0.2976 0.0
C1328 C 0.57926 0.63263 0.2894 0.0
C1329 C 0.59115 0.62688 0.30626 0.0
C1330 C 0.56271 0.64589 0.29197 0.0
C1331 C 0.55802 0.65356 0.31142 0.0
C1332 C 0.56914 0.6467 0.32837 0.0
H1333 H 0.5192 0.74476 0.38572 0.0
H1334 H 0.52825 0.7134 0.36778 0.0
C1335 C 0.58554 0.63345 0.32581 0.0
C1336 C 0.54296 0.67012 0.31439 0.0
H1337 H 0.53791 0.72163 0.30869 0.0
C1338 C 0.52694 0.66692 0.32823 0.0
C1339 C 0.54637 0.68993 0.30648 0.0
C1340 C 0.56359 0.69436 0.29184 0.0
C1341 C 0.51525 0.68326 0.33555 0.0
C1342 C 0.51981 0.70324 0.32891 0.0
C1343 C 0.53454 0.70623 0.31372 0.0
C1344 C 0.51222 0.72131 0.34001 0.0
C1345 C 0.49887 0.67921 0.35116 0.0
C1346 C 0.50042 0.73624 0.33022 0.0
C1347 C 0.49515 0.75419 0.34053 0.0
C1348 C 0.50196 0.75751 0.36058 0.0
C1349 C 0.51374 0.74252 0.37028 0.0
C1350 C 0.51874 0.72454 0.36013 0.0
H1351 H 0.493 0.66336 0.34997 0.0
H1352 H 0.50536 0.68122 0.36667 0.0
H1353 H 0.48595 0.69003 0.34939 0.0
H1354 H 0.49561 0.73413 0.31455 0.0
H1355 H 0.48646 0.76575 0.33257 0.0
H1356 H 0.96771 0.763 0.08022 0.0
H1357 H 0.99811 0.77492 0.0621 0.0
H1358 H 0.03626 0.74718 0.10805 0.0
H1359 H 0.00596 0.73472 0.12572 0.0
H1360 H 0.02291 0.80153 0.07739 0.0
H1361 H 0.06875 0.73347 0.05848 0.0
H1362 H 0.04229 0.73174 0.06595 0.0
H1363 H 0.06206 0.73363 0.08498 0.0
C1364 C 0.98263 0.75902 0.08609 0.0
C1365 C 0.98456 0.74778 0.10419 0.0
C1366 C -3e-05 0.76577 0.07574 0.0
C1367 C 0.01952 0.76168 0.0835 0.0
C1368 C 0.02142 0.74995 0.10133 0.0
H1369 H 0.12789 0.8292 0.08907 0.0
H1370 H 0.10149 0.80279 0.09151 0.0
C1371 C 0.00408 0.74291 0.1115 0.0
C1372 C 0.03757 0.77221 0.07484 0.0
H1373 H 0.0874 0.76548 0.06103 0.0
C1374 C 0.03682 0.79356 0.07334 0.0
C1375 C 0.0558 0.76184 0.06962 0.0
C1376 C 0.0572 0.73889 0.06964 0.0
C1377 C 0.05403 0.80487 0.06776 0.0
C1378 C 0.07247 0.79458 0.06357 0.0
C1379 C 0.07317 0.77324 0.06431 0.0
C1380 C 0.09139 0.80625 0.06029 0.0
C1381 C 0.0527 0.82786 0.06728 0.0
C1382 C 0.09485 0.81623 0.04168 0.0
C1383 C 0.10993 0.83123 0.04028 0.0
C1384 C 0.12152 0.8364 0.05751 0.0
C1385 C 0.11909 0.82531 0.07563 0.0
C1386 C 0.10412 0.81026 0.077 0.0
H1387 H 0.03745 0.83355 0.07201 0.0
H1388 H 0.0644 0.83457 0.07754 0.0
H1389 H 0.05586 0.8334 0.0516 0.0
H1390 H 0.085 0.81339 0.02872 0.0
H1391 H 0.11154 0.83977 0.02623 0.0
H1392 H 0.15692 0.52138 0.25495 0.0
H1393 H 0.17189 0.51144 0.22205 0.0
H1394 H 0.13781 0.45518 0.2237 0.0
H1395 H 0.12242 0.4653 0.25606 0.0
H1396 H 0.19551 0.47803 0.21338 0.0
H1397 H 0.12564 0.4759 0.16658 0.0
H1398 H 0.1267 0.48874 0.19094 0.0
H1399 H 0.12218 0.46166 0.18966 0.0
C1400 C 0.15226 0.50716 0.24796 0.0
C1401 C 0.13809 0.49434 0.25768 0.0
C1402 C 0.16093 0.50143 0.2293 0.0
C1403 C 0.15552 0.48284 0.22018 0.0
C1404 C 0.1417 0.46989 0.23015 0.0
H1405 H 0.20871 0.39007 0.15576 0.0
H1406 H 0.20188 0.41891 0.17826 0.0
C1407 C 0.13307 0.47558 0.24871 0.0
C1408 C 0.16514 0.47601 0.20094 0.0
H1409 H 0.15312 0.45342 0.15573 0.0
C1410 C 0.18634 0.4731 0.20052 0.0
C1411 C 0.15328 0.47015 0.18391 0.0
C1412 C 0.13072 0.4745 0.18269 0.0
C1413 C 0.19569 0.46265 0.18434 0.0
C1414 C 0.18342 0.45458 0.16852 0.0
C1415 C 0.16254 0.45929 0.16801 0.0
C1416 C 0.19108 0.43885 0.15419 0.0
C1417 C 0.2185 0.45977 0.18476 0.0
C1418 C 0.18731 0.44038 0.13314 0.0
C1419 C 0.19095 0.42371 0.12031 0.0
C1420 C 0.19828 0.40533 0.12844 0.0
C1421 C 0.20309 0.40417 0.14923 0.0
C1422 C 0.19939 0.42073 0.16203 0.0
H1423 H 0.22611 0.47302 0.19209 0.0
H1424 H 0.22222 0.44606 0.19396 0.0
H1425 H 0.22484 0.45775 0.16918 0.0
H1426 H 0.18071 0.45414 0.1268 0.0
H1427 H 0.18702 0.42481 0.1043 0.0
H1428 H 0.70647 0.10779 0.84333 0.0
H1429 H 0.70199 0.07867 0.82044 0.0
H1430 H 0.68691 0.04048 0.87188 0.0
H1431 H 0.69109 0.0699 0.89485 0.0
H1432 H 0.7173 0.03786 0.81745 0.0
H1433 H 0.63455 0.04144 0.83696 0.0
H1434 H 0.65206 0.06139 0.84418 0.0
H1435 H 0.65223 0.0375 0.85755 0.0
C1436 C 0.70265 0.09305 0.84974 0.0
C1437 C 0.69883 0.09099 0.87068 0.0
C1438 C 0.70016 0.07643 0.83672 0.0
C1439 C 0.69381 0.05753 0.84445 0.0
C1440 C 0.69157 0.05503 0.86562 0.0
H1441 H 0.6307 0.97538 0.76034 0.0
H1442 H 0.64913 0.98499 0.79129 0.0
C1443 C 0.69406 0.07174 0.8787 0.0
C1444 C 0.68715 0.04159 0.82993 0.0
H1445 H 0.64392 0.02146 0.80913 0.0
C1446 C 0.70132 0.03388 0.81586 0.0
C1447 C 0.66629 0.0364 0.82793 0.0
C1448 C 0.6503 0.04464 0.84233 0.0
C1449 C 0.69502 0.02197 0.79921 0.0
C1450 C 0.674 0.01803 0.79643 0.0
C1451 C 0.66003 0.02452 0.81129 0.0
C1452 C 0.66573 0.00973 0.7771 0.0
C1453 C 0.71087 0.01424 0.78445 0.0
C1454 C 0.66906 0.02032 0.7588 0.0
C1455 C 0.65868 0.01476 0.74107 0.0
C1456 C 0.64474 0.9985 0.74127 0.0
C1457 C 0.64181 0.98753 0.75947 0.0
C1458 C 0.65222 0.99312 0.77724 0.0
H1459 H 0.72576 0.01187 0.79219 0.0
H1460 H 0.70606 -0.00031 0.77724 0.0
H1461 H 0.71319 0.02576 0.77226 0.0
H1462 H 0.67892 0.03357 0.75843 0.0
H1463 H 0.66112 0.02358 0.72731 0.0
H1464 H 0.65387 0.97428 0.61635 0.0
H1465 H 0.67986 0.97132 0.58945 0.0
H1466 H 0.68975 0.90844 0.60595 0.0
H1467 H 0.66374 0.91134 0.63269 0.0
H1468 H 0.72742 0.93851 0.59202 0.0
H1469 H 0.6595 0.92824 0.54169 0.0
H1470 H 0.65967 0.94858 0.56019 0.0
H1471 H 0.65837 0.92263 0.56863 0.0
C1472 C 0.66216 0.96009 0.61463 0.0
C1473 C 0.65694 0.943 0.6264 0.0
C1474 C 0.67693 0.95841 0.59934 0.0
C1475 C 0.68664 0.93967 0.59582 0.0
C1476 C 0.68251 0.92305 0.60861 0.0
H1477 H 0.75891 0.87633 0.50825 0.0
H1478 H 0.74605 0.89249 0.53925 0.0
C1479 C 0.66768 0.92469 0.62379 0.0
C1480 C 0.69836 0.93629 0.57693 0.0
H1481 H 0.69159 0.92328 0.5271 0.0
C1482 C 0.71971 0.93543 0.57771 0.0
C1483 C 0.68814 0.93233 0.55839 0.0
C1484 C 0.66515 0.93289 0.55698 0.0
C1485 C 0.73116 0.93039 0.56029 0.0
C1486 C 0.72087 0.92557 0.5419 0.0
C1487 C 0.69951 0.92703 0.54113 0.0
C1488 C 0.73153 0.91769 0.52356 0.0
C1489 C 0.75412 0.9303 0.56177 0.0
C1490 C 0.72758 0.92635 0.50436 0.0
C1491 C 0.73461 0.9169 0.48662 0.0
C1492 C 0.74596 0.8988 0.48776 0.0
C1493 C 0.75065 0.89058 0.50697 0.0
C1494 C 0.74336 0.89986 0.52472 0.0
H1495 H 0.75952 0.94094 0.57381 0.0
H1496 H 0.75935 0.91476 0.56595 0.0
H1497 H 0.76129 0.93463 0.54706 0.0
H1498 H 0.71837 0.94001 0.50306 0.0
H1499 H 0.73074 0.92348 0.47196 0.0
H1500 H 0.82655 0.98696 0.22151 0.0
H1501 H 0.81023 0.97512 0.25292 0.0
H1502 H 0.86045 -0.00081 0.28804 0.0
H1503 H 0.87645 0.01155 0.25673 0.0
H1504 H 0.82642 0.94685 0.2757 0.0
H1505 H 0.8139 0.01441 0.32456 0.0
H1506 H 0.81932 0.01651 0.29763 0.0
H1507 H 0.83974 0.01311 0.31572 0.0
C1508 C 0.83378 0.9902 0.23602 0.0
C1509 C 0.8526 0.00034 0.23678 0.0
C1510 C 0.82445 0.98347 0.25393 0.0
C1511 C 0.83395 0.98651 0.2729 0.0
C1512 C 0.85248 0.99723 0.2737 0.0
H1513 H 0.84043 0.91235 0.37767 0.0
H1514 H 0.84456 0.93898 0.35172 0.0
C1515 C 0.86167 0.00423 0.25579 0.0
C1516 C 0.82613 0.97583 0.29125 0.0
H1517 H 0.81533 0.98176 0.34194 0.0
C1518 C 0.82357 0.9546 0.29004 0.0
C1519 C 0.82248 0.9859 0.31002 0.0
C1520 C 0.8238 0.00877 0.31202 0.0
C1521 C 0.81831 0.94309 0.30721 0.0
C1522 C 0.81562 0.95302 0.32611 0.0
C1523 C 0.8175 0.97428 0.32735 0.0
C1524 C 0.81237 0.94098 0.3448 0.0
C1525 C 0.81638 0.92022 0.30529 0.0
C1526 C 0.79282 0.93392 0.34986 0.0
C1527 C 0.79045 0.91877 0.36469 0.0
C1528 C 0.80764 0.9105 0.3744 0.0
C1529 C 0.82701 0.9186 0.37031 0.0
C1530 C 0.82936 0.93379 0.35561 0.0
H1531 H 0.81865 0.91486 0.28938 0.0
H1532 H 0.82782 0.91266 0.31524 0.0
H1533 H 0.80104 0.9153 0.31051 0.0
H1534 H 0.7796 0.93921 0.34147 0.0
H1535 H 0.77541 0.91258 0.36757 0.0
H1536 H 0.83609 0.0254 0.11787 0.0
H1537 H 0.80727 0.03044 0.09435 0.0
H1538 H 0.81855 0.09529 0.09469 0.0
H1539 H 0.84674 0.09034 0.11856 0.0
H1540 H 0.77715 0.08569 0.09465 0.0
H1541 H 0.81949 0.04289 0.03453 0.0
H1542 H 0.81391 0.02953 0.0578 0.0
H1543 H 0.83145 0.05057 0.05808 0.0
C1544 C 0.83204 0.04073 0.11321 0.0
C1545 C 0.8437 0.05749 0.11969 0.0
C1546 C 0.81574 0.04357 0.09969 0.0
C1547 C 0.81106 0.0632 0.09248 0.0
C1548 C 0.82196 0.08001 0.09999 0.0
H1549 H 0.76807 0.13748 0.00153 0.0
H1550 H 0.77843 0.12011 0.03286 0.0
C1551 C 0.83812 0.07718 0.1135 0.0
C1552 C 0.79609 0.06649 0.07588 0.0
H1553 H 0.79073 0.06124 0.02434 0.0
C1554 C 0.77983 0.07999 0.07935 0.0
C1555 C 0.79958 0.05896 0.05594 0.0
C1556 C 0.81709 0.04478 0.0512 0.0
C1557 C 0.7678 0.08717 0.06319 0.0
C1558 C 0.77226 0.08079 0.04311 0.0
C1559 C 0.78741 0.06607 0.03982 0.0
C1560 C 0.76381 0.09152 0.02517 0.0
C1561 C 0.751 0.10226 0.06758 0.0
C1562 C 0.75235 0.08109 0.01039 0.0
C1563 C 0.74634 0.09107 0.99247 0.0
C1564 C 0.75202 0.11144 0.98908 0.0
C1565 C 0.76341 0.1218 0.00392 0.0
C1566 C 0.76917 0.11196 0.02185 0.0
H1567 H 0.7454 0.10079 0.08351 0.0
H1568 H 0.75699 0.11796 0.0656 0.0
H1569 H 0.73799 0.10017 0.05694 0.0
H1570 H 0.74841 0.0652 0.01254 0.0
H1571 H 0.73797 0.08266 0.98097 0.0
H1572 H 0.34359 0.47574 0.75353 0.0
H1573 H 0.32682 0.48729 0.72202 0.0
H1574 H 0.35062 0.54786 0.73174 0.0
H1575 H 0.36736 0.53644 0.76297 0.0
H1576 H 0.30845 0.54625 0.72288 0.0
H1577 H 0.35494 0.50201 0.66713 0.0
H1578 H 0.34293 0.48836 0.6877 0.0
H1579 H 0.36319 0.50592 0.69311 0.0
C1580 C 0.34554 0.4914 0.74866 0.0
C1581 C 0.35713 0.50512 0.76039 0.0
C1582 C 0.33589 0.49798 0.73076 0.0
C1583 C 0.33769 0.51836 0.72447 0.0
C1584 C 0.34908 0.53205 0.73633 0.0
H1585 H 0.33842 0.59502 0.6258 0.0
H1586 H 0.34295 0.56753 0.65051 0.0
C1587 C 0.35864 0.52552 0.75414 0.0
C1588 C 0.32767 0.52595 0.70574 0.0
H1589 H 0.33262 0.52666 0.65394 0.0
C1590 C 0.31336 0.54172 0.70774 0.0
C1591 C 0.33417 0.5199 0.6861 0.0
C1592 C 0.34972 0.50319 0.68321 0.0
C1593 C 0.30645 0.55265 0.69071 0.0
C1594 C 0.31374 0.54731 0.6711 0.0
C1595 C 0.32699 0.5306 0.66898 0.0
C1596 C 0.3107 0.56102 0.65341 0.0
C1597 C 0.2927 0.57082 0.69408 0.0
C1598 C 0.29112 0.56591 0.6462 0.0
C1599 C 0.28851 0.58186 0.63222 0.0
C1600 C 0.30548 0.59287 0.62522 0.0
C1601 C 0.32511 0.58685 0.63122 0.0
C1602 C 0.3277 0.57108 0.64521 0.0
H1603 H 0.29105 0.57467 0.7105 0.0
H1604 H 0.29871 0.58442 0.68597 0.0
H1605 H 0.2773 0.56743 0.68793 0.0
H1606 H 0.27783 0.55808 0.65209 0.0
H1607 H 0.27323 0.58628 0.62776 0.0
H1608 H 0.17422 0.56475 0.35472 0.0
H1609 H 0.20356 0.5709 0.3773 0.0
H1610 H 0.17164 0.54123 0.42661 0.0
H1611 H 0.14258 0.53496 0.40407 0.0
H1612 H 0.19925 0.59486 0.41119 0.0
H1613 H 0.2293 0.51967 0.4343 0.0
H1614 H 0.21367 0.52312 0.41184 0.0
H1615 H 0.20207 0.52077 0.43663 0.0
C1616 C 0.17387 0.55899 0.37021 0.0
C1617 C 0.15635 0.54934 0.37779 0.0
C1618 C 0.19055 0.56252 0.38306 0.0
C1619 C 0.18991 0.55625 0.40355 0.0
C1620 C 0.17271 0.54572 0.41075 0.0
H1621 H 0.22544 0.58543 0.52155 0.0
H1622 H 0.21479 0.56987 0.48942 0.0
C1623 C 0.15607 0.54228 0.39795 0.0
C1624 C 0.20544 0.56342 0.41829 0.0
H1625 H 0.23453 0.5474 0.45838 0.0
C1626 C 0.20745 0.58452 0.42117 0.0
C1627 C 0.21604 0.54987 0.4313 0.0
C1628 C 0.21533 0.5271 0.42823 0.0
C1629 C 0.21844 0.59245 0.43772 0.0
C1630 C 0.22803 0.57885 0.45148 0.0
C1631 C 0.22711 0.55777 0.44784 0.0
C1632 C 0.23679 0.58616 0.47097 0.0
C1633 C 0.21841 0.61523 0.44115 0.0
C1634 C 0.25307 0.60004 0.47132 0.0
C1635 C 0.25904 0.60914 0.48967 0.0
C1636 C 0.24903 0.60422 0.508 0.0
C1637 C 0.23343 0.58954 0.50768 0.0
C1638 C 0.22742 0.58054 0.48936 0.0
H1639 H 0.20726 0.62319 0.43116 0.0
H1640 H 0.21472 0.61885 0.45728 0.0
H1641 H 0.23379 0.62142 0.43778 0.0
H1642 H 0.26061 0.60444 0.4573 0.0
H1643 H 0.27071 0.62078 0.48921 0.0
H1644 H 0.27354 0.41581 0.02928 0.0
H1645 H 0.28653 0.43241 0.99851 0.0
H1646 H 0.2518 0.39067 0.9613 0.0
H1647 H 0.23839 0.3744 0.99206 0.0
H1648 H 0.3101 0.41223 0.97301 0.0
H1649 H 0.24454 0.4429 0.92949 0.0
H1650 H 0.24269 0.43589 0.95608 0.0
H1651 H 0.24107 0.41669 0.93653 0.0
C1652 C 0.26825 0.41059 0.01451 0.0
C1653 C 0.25487 0.39397 0.01299 0.0
C1654 C 0.27563 0.4201 0.99697 0.0
C1655 C 0.26998 0.41295 0.97758 0.0
C1656 C 0.25592 0.39685 0.97605 0.0
H1657 H 0.34826 0.40771 0.8743 0.0
H1658 H 0.32192 0.40163 0.9001 0.0
C1659 C 0.24832 0.3875 0.99365 0.0
C1660 C 0.28124 0.42007 0.95933 0.0
H1661 H 0.27576 0.4379 0.91062 0.0
C1662 C 0.30255 0.41813 0.95951 0.0
C1663 C 0.27142 0.42777 0.9417 0.0
C1664 C 0.24868 0.43114 0.94097 0.0
C1665 C 0.31427 0.4231 0.94242 0.0
C1666 C 0.30441 0.42984 0.92449 0.0
C1667 C 0.28318 0.43246 0.92437 0.0
C1668 C 0.31629 0.43364 0.90578 0.0
C1669 C 0.33717 0.42084 0.94356 0.0
C1670 C 0.32102 0.45365 0.89985 0.0
C1671 C 0.33602 0.45712 0.88506 0.0
C1672 C 0.34639 0.4406 0.87626 0.0
C1673 C 0.34046 0.42063 0.88106 0.0
C1674 C 0.32545 0.41716 0.89569 0.0
H1675 H 0.34264 0.41966 0.95956 0.0
H1676 H 0.3418 0.40678 0.93536 0.0
H1677 H 0.34489 0.43398 0.93614 0.0
H1678 H 0.31412 0.46651 0.90758 0.0
H1679 H 0.34046 0.47264 0.88154 0.0
H1680 H 0.16602 0.2979 0.15547 0.0
H1681 H 0.15244 0.2882 0.18861 0.0
H1682 H 0.09583 0.31868 0.17465 0.0
H1683 H 0.10925 0.32819 0.141 0.0
H1684 H 0.13943 0.31365 0.21962 0.0
H1685 H 0.07683 0.26237 0.19355 0.0
H1686 H 0.09689 0.27073 0.17667 0.0
H1687 H 0.07675 0.28793 0.18363 0.0
C1688 C 0.15061 0.30246 0.15932 0.0
C1689 C 0.13868 0.31378 0.14555 0.0
C1690 C 0.1429 0.29695 0.17833 0.0
C1691 C 0.1231 0.30262 0.18407 0.0
C1692 C 0.11104 0.31387 0.17039 0.0
H1693 H 0.06988 0.25939 0.30012 0.0
H1694 H 0.0749 0.28179 0.27049 0.0
C1695 C 0.11874 0.31932 0.1512 0.0
C1696 C 0.11558 0.29675 0.20456 0.0
H1697 H 0.08263 0.26454 0.22882 0.0
C1698 C 0.1268 0.30316 0.22166 0.0
C1699 C 0.09901 0.28318 0.2072 0.0
C1700 C 0.0867 0.27548 0.18934 0.0
C1701 C 0.12258 0.29552 0.24118 0.0
C1702 C 0.1068 0.28109 0.24362 0.0
C1703 C 0.09471 0.27566 0.22681 0.0
C1704 C 0.10445 0.26939 0.26274 0.0
C1705 C 0.13549 0.30233 0.25896 0.0
C1706 C 0.1195 0.25521 0.26818 0.0
C1707 C 0.11662 0.24232 0.28484 0.0
C1708 C 0.09866 0.24346 0.29649 0.0
C1709 C 0.08393 0.25827 0.29152 0.0
C1710 C 0.08672 0.271 0.27459 0.0
H1711 H 0.14318 0.3171 0.2558 0.0
H1712 H 0.12612 0.30389 0.27298 0.0
H1713 H 0.14744 0.29071 0.26192 0.0
H1714 H 0.13318 0.25359 0.25905 0.0
H1715 H 0.12825 0.23111 0.2883 0.0
H1716 H 0.44336 0.36181 0.88464 0.0
H1717 H 0.45576 0.34766 0.91702 0.0
H1718 H 0.46074 0.40841 0.94173 0.0
H1719 H 0.44825 0.4226 0.90978 0.0
H1720 H 0.49286 0.35511 0.93596 0.0
H1721 H 0.42926 0.37846 0.98624 0.0
H1722 H 0.42715 0.37828 0.95876 0.0
H1723 H 0.43913 0.39938 0.97161 0.0
C1724 C 0.44698 0.37212 0.89703 0.0
C1725 C 0.44479 0.39333 0.89462 0.0
C1726 C 0.45403 0.36402 0.9155 0.0
C1727 C 0.45879 0.37697 0.93189 0.0
C1728 C 0.45668 0.39811 0.92947 0.0
H1729 H 0.54232 0.36708 0.03042 0.0
H1730 H 0.5232 0.37361 0.99921 0.0
C1731 C 0.44969 0.4062 0.91108 0.0
C1732 C 0.46715 0.36872 0.9512 0.0
H1733 H 0.46102 0.37042 0.0029 0.0
C1734 C 0.48575 0.35817 0.95058 0.0
C1735 C 0.4577 0.37246 0.97024 0.0
C1736 C 0.4371 0.38258 0.97178 0.0
C1737 C 0.49571 0.35225 0.96857 0.0
C1738 C 0.48698 0.35732 0.98765 0.0
C1739 C 0.46783 0.36683 0.98826 0.0
C1740 C 0.49802 0.35379 0.00705 0.0
C1741 C 0.51563 0.34083 0.96699 0.0
C1742 C 0.48978 0.34112 0.0222 0.0
C1743 C 0.50063 0.33744 0.04023 0.0
C1744 C 0.51984 0.34648 0.04342 0.0
C1745 C 0.52766 0.35972 0.02845 0.0
C1746 C 0.51682 0.36337 0.0105 0.0
H1747 H 0.51708 0.33292 0.95207 0.0
H1748 H 0.52845 0.3518 0.96832 0.0
H1749 H 0.51714 0.32939 0.9794 0.0
H1750 H 0.47517 0.33375 0.01989 0.0
H1751 H 0.49414 0.3272 0.05145 0.0
H1752 H 0.37111 0.77308 0.78712 0.0
H1753 H 0.36521 0.75096 0.7578 0.0
H1754 H 0.42076 0.7183 0.77084 0.0
H1755 H 0.4268 0.74038 0.80054 0.0
H1756 H 0.41534 0.73471 0.72873 0.0
H1757 H 0.3497 0.68878 0.7558 0.0
H1758 H 0.34754 0.71564 0.76087 0.0
H1759 H 0.36739 0.70113 0.773 0.0
C1760 C 0.38197 0.76103 0.78396 0.0
C1761 C 0.39944 0.7585 0.79614 0.0
C1762 C 0.37852 0.74835 0.76725 0.0
C1763 C 0.39247 0.73294 0.76229 0.0
C1764 C 0.40977 0.73006 0.77456 0.0
H1765 H 0.38559 0.66901 0.64338 0.0
H1766 H 0.39881 0.67945 0.67683 0.0
C1767 C 0.41314 0.74263 0.79152 0.0
C1768 C 0.38941 0.72099 0.74342 0.0
H1769 H 0.35451 0.69064 0.71964 0.0
C1770 C 0.40232 0.72469 0.72676 0.0
C1771 C 0.37242 0.70799 0.74102 0.0
C1772 C 0.35854 0.70296 0.75866 0.0
C1773 C 0.39783 0.71683 0.70732 0.0
C1774 C 0.38018 0.7047 0.70469 0.0
C1775 C 0.36798 0.70005 0.72167 0.0
C1776 C 0.37284 0.69844 0.68425 0.0
C1777 C 0.41126 0.72262 0.68955 0.0
C1778 C 0.35383 0.7055 0.67744 0.0
C1779 C 0.34623 0.69948 0.65852 0.0
C1780 C 0.35747 0.68626 0.64594 0.0
C1781 C 0.37665 0.67935 0.65264 0.0
C1782 C 0.38424 0.68533 0.67172 0.0
H1783 H 0.42213 0.735 0.69354 0.0
H1784 H 0.42022 0.70912 0.6847 0.0
H1785 H 0.40188 0.72766 0.67638 0.0
H1786 H 0.34481 0.71567 0.68684 0.0
H1787 H 0.33142 0.70512 0.65384 0.0
H1788 H 0.06188 0.57913 0.41338 0.0
H1789 H 0.04874 0.59315 0.44518 0.0
H1790 H 0.04482 0.65273 0.4176 0.0
H1791 H 0.05773 0.63872 0.3854 0.0
H1792 H 0.06275 0.62461 0.47061 0.0
H1793 H 0.98641 0.64156 0.43747 0.0
H1794 H 0.00488 0.62578 0.42456 0.0
H1795 H 0.00785 0.653 0.42479 0.0
C1796 C 0.05828 0.59524 0.41401 0.0
C1797 C 0.06061 0.60777 0.39674 0.0
C1798 C 0.05087 0.60324 0.43227 0.0
C1799 C 0.04559 0.6239 0.43367 0.0
C1800 C 0.04853 0.63665 0.41672 0.0
H1801 H 0.00468 0.67629 0.55073 0.0
H1802 H 0.02482 0.67003 0.51985 0.0
C1803 C 0.05595 0.62864 0.39836 0.0
C1804 C 0.03614 0.6316 0.45268 0.0
H1805 H 0.99099 0.64848 0.4723 0.0
C1806 C 0.04714 0.63006 0.47101 0.0
C1807 C 0.0157 0.63849 0.4531 0.0
C1808 C 0.0029 0.6397 0.43399 0.0
C1809 C 0.03806 0.63475 0.48984 0.0
C1810 C 0.01755 0.64136 0.49025 0.0
C1811 C 0.00675 0.64345 0.47188 0.0
C1812 C 0.00637 0.64466 0.50959 0.0
C1813 C 0.05015 0.63174 0.50919 0.0
C1814 C 0.98937 0.63248 0.51402 0.0
C1815 C 0.97781 0.63605 0.5315 0.0
C1816 C 0.98298 0.65195 0.54495 0.0
C1817 C 0.00035 0.66385 0.54075 0.0
C1818 C 0.0119 0.66028 0.52315 0.0
H1819 H 0.0644 0.62297 0.50649 0.0
H1820 H 0.05439 0.64685 0.51554 0.0
H1821 H 0.04089 0.62362 0.52081 0.0
H1822 H 0.98488 0.62031 0.50377 0.0
H1823 H 0.96459 0.62653 0.53425 0.0
H1824 H 0.65857 0.1944 0.84337 0.0
H1825 H 0.64506 0.20435 0.81032 0.0
H1826 H 0.58864 0.17325 0.82363 0.0
H1827 H 0.60202 0.16345 0.85726 0.0
H1828 H 0.6322 0.17916 0.77887 0.0
H1829 H 0.5695 0.22999 0.80561 0.0
H1830 H 0.5896 0.22152 0.82241 0.0
H1831 H 0.56968 0.20425 0.81507 0.0
C1832 C 0.64324 0.18971 0.8394 0.0
C1833 C 0.63135 0.17816 0.853 0.0
C1834 C 0.63556 0.19538 0.82043 0.0
C1835 C 0.61583 0.18963 0.81453 0.0
C1836 C 0.60381 0.1781 0.82801 0.0
H1837 H 0.5657 0.23731 0.6986 0.0
H1838 H 0.5693 0.21386 0.72764 0.0
C1839 C 0.61148 0.17248 0.84718 0.0
C1840 C 0.60836 0.19585 0.79413 0.0
H1841 H 0.57619 0.2293 0.77048 0.0
C1842 C 0.6197 0.18983 0.77698 0.0
C1843 C 0.59197 0.20968 0.79169 0.0
C1844 C 0.57949 0.2169 0.80963 0.0
C1845 C 0.61589 0.1982 0.75768 0.0
C1846 C 0.60038 0.21297 0.75551 0.0
C1847 C 0.58807 0.21794 0.77229 0.0
C1848 C 0.59873 0.22554 0.73688 0.0
C1849 C 0.62903 0.19188 0.7399 0.0
C1850 C 0.61414 0.2397 0.73251 0.0
C1851 C 0.61206 0.25316 0.71619 0.0
C1852 C 0.59456 0.25265 0.70382 0.0
C1853 C 0.57942 0.23796 0.70778 0.0
C1854 C 0.5814 0.22463 0.72436 0.0
H1855 H 0.6364 0.17686 0.74262 0.0
H1856 H 0.61991 0.19104 0.72564 0.0
H1857 H 0.64124 0.20339 0.73765 0.0
H1858 H 0.62752 0.24076 0.74216 0.0
H1859 H 0.624 0.26426 0.71353 0.0
H1860 H 0.5157 0.89118 0.61628 0.0
H1861 H 0.50538 0.87753 0.58313 0.0
H1862 H 0.56724 0.88277 0.56147 0.0
H1863 H 0.57775 0.89645 0.59453 0.0
H1864 H 0.53757 0.90182 0.53642 0.0
H1865 H 0.51637 0.82203 0.55503 0.0
H1866 H 0.50527 0.8408 0.57164 0.0
H1867 H 0.53246 0.83735 0.57136 0.0
C1868 C 0.52719 0.88912 0.60459 0.0
C1869 C 0.54753 0.89499 0.60803 0.0
C1870 C 0.52128 0.88122 0.58569 0.0
C1871 C 0.53559 0.879 0.56994 0.0
C1872 C 0.556 0.88429 0.57349 0.0
H1873 H 0.50362 0.82659 0.4509 0.0
H1874 H 0.52245 0.83489 0.48214 0.0
C1875 C 0.56196 0.8921 0.5924 0.0
C1876 C 0.52887 0.87287 0.54928 0.0
H1877 H 0.50472 0.83499 0.52297 0.0
C1878 C 0.53062 0.88711 0.5334 0.0
C1879 C 0.51999 0.85361 0.54538 0.0
C1880 C 0.51855 0.83747 0.56169 0.0
C1881 C 0.52292 0.88292 0.51388 0.0
C1882 C 0.51312 0.86408 0.51026 0.0
C1883 C 0.51215 0.84948 0.52588 0.0
C1884 C 0.50261 0.85978 0.49077 0.0
C1885 C 0.52504 0.89879 0.49736 0.0
C1886 C 0.48529 0.87108 0.48535 0.0
C1887 C 0.47447 0.86636 0.46764 0.0
C1888 C 0.48078 0.85022 0.45498 0.0
C1889 C 0.49842 0.83917 0.46026 0.0
C1890 C 0.50915 0.84383 0.47811 0.0
H1891 H 0.53729 0.90995 0.50094 0.0
H1892 H 0.52842 0.89155 0.48242 0.0
H1893 H 0.51047 0.90728 0.4959 0.0
H1894 H 0.47985 0.88327 0.49509 0.0
H1895 H 0.46096 0.87517 0.46407 0.0
H1896 H 0.83166 0.81066 0.33976 0.0
H1897 H 0.84675 0.79818 0.30824 0.0
H1898 H 0.90687 0.80444 0.33418 0.0
H1899 H 0.89182 0.81681 0.36617 0.0
H1900 H 0.87547 0.81611 0.28151 0.0
H1901 H 0.90381 0.74406 0.3166 0.0
H1902 H 0.88564 0.76036 0.3293 0.0
H1903 H 0.91202 0.76758 0.32808 0.0
C1904 C 0.84811 0.80942 0.33886 0.0
C1905 C 0.86053 0.81452 0.3556 0.0
C1906 C 0.85671 0.80239 0.32074 0.0
C1907 C 0.87789 0.80023 0.31893 0.0
C1908 C 0.89045 0.80577 0.33538 0.0
H1909 H 0.92601 0.75738 0.20001 0.0
H1910 H 0.92165 0.77892 0.23034 0.0
C1911 C 0.88183 0.81286 0.35361 0.0
C1912 C 0.88637 0.79126 0.30001 0.0
H1913 H 0.90701 0.74737 0.28118 0.0
C1914 C 0.8827 0.80123 0.2814 0.0
C1915 C 0.89566 0.7718 0.29999 0.0
C1916 C 0.89945 0.76018 0.3195 0.0
C1917 C 0.88728 0.79185 0.26269 0.0
C1918 C 0.89589 0.7721 0.26269 0.0
C1919 C 0.90043 0.76255 0.2813 0.0
C1920 C 0.89813 0.76005 0.24373 0.0
C1921 C 0.88184 0.80258 0.24307 0.0
C1922 C 0.88629 0.74243 0.24123 0.0
C1923 C 0.88874 0.73015 0.22407 0.0
C1924 C 0.90316 0.73517 0.209 0.0
C1925 C 0.9147 0.75314 0.21127 0.0
C1926 C 0.91223 0.76546 0.22857 0.0
H1927 H 0.8728 0.81666 0.24577 0.0
H1928 H 0.89603 0.80684 0.2349 0.0
H1929 H 0.87296 0.79226 0.23298 0.0
H1930 H 0.87526 0.73805 0.25273 0.0
H1931 H 0.87953 0.71649 0.22282 0.0
H1932 H 0.99279 0.17225 0.94433 0.0
H1933 H 0.97273 0.16664 0.97541 0.0
H1934 H 0.01821 0.12449 0.99727 0.0
H1935 H 0.03836 0.12998 0.96654 0.0
H1936 H 0.95678 0.12985 0.99262 0.0
H1937 H 0.01308 0.16694 0.0436 0.0
H1938 H 0.01334 0.17025 0.01624 0.0
H1939 H 0.02413 0.1477 0.02755 0.0
C1940 C 0.99845 0.16167 0.95569 0.0
C1941 C 0.01728 0.1517 0.953 0.0
C1942 C 0.98699 0.15854 0.97344 0.0
C1943 C 0.99425 0.14551 0.98878 0.0
C1944 C 0.0126 0.13497 0.98579 0.0
H1945 H 0.94382 0.07835 0.08598 0.0
H1946 H 0.95602 0.09248 0.0539 0.0
C1947 C 0.02403 0.13805 0.96813 0.0
C1948 C 0.98278 0.14272 0.00802 0.0
H1949 H 0.98819 0.14553 0.05972 0.0
C1950 C 0.96348 0.13355 0.0073 0.0
C1951 C 0.99139 0.14794 0.02711 0.0
C1952 C 0.01154 0.15895 0.02873 0.0
C1953 C 0.95309 0.1283 0.02527 0.0
C1954 C 0.96243 0.13211 0.04436 0.0
C1955 C 0.98115 0.14243 0.04506 0.0
C1956 C 0.95396 0.12394 0.06364 0.0
C1957 C 0.93239 0.1184 0.02366 0.0
C1958 C 0.9492 0.13694 0.07998 0.0
C1959 C 0.94231 0.12887 0.09852 0.0
C1960 C 0.94032 0.10766 0.10104 0.0
C1961 C 0.94516 0.09475 0.0846 0.0
C1962 C 0.95195 0.10281 0.06614 0.0
H1963 H 0.92471 0.12248 0.00911 0.0
H1964 H 0.93424 0.10158 0.02398 0.0
H1965 H 0.9224 0.12291 0.03657 0.0
H1966 H 0.95087 0.1533 0.0784 0.0
H1967 H 0.93873 0.13921 0.1109 0.0
H1968 H 0.30318 0.07364 0.25902 0.0
H1969 H 0.27202 0.07882 0.27915 0.0
H1970 H 0.2504 0.12211 0.23463 0.0
H1971 H 0.28118 0.11711 0.2145 0.0
H1972 H 0.25451 0.11591 0.29566 0.0
H1973 H 0.20423 0.07894 0.23868 0.0
H1974 H 0.23158 0.07555 0.23882 0.0
H1975 H 0.2205 0.09813 0.22785 0.0
C1976 C 0.29186 0.08438 0.25361 0.0
C1977 C 0.29462 0.09482 0.23504 0.0
C1978 C 0.27407 0.08727 0.2651 0.0
C1979 C 0.25877 0.1005 0.25811 0.0
C1980 C 0.26185 0.11149 0.24004 0.0
H1981 H 0.16188 0.16879 0.30639 0.0
H1982 H 0.19397 0.1539 0.29519 0.0
C1983 C 0.27955 0.10867 0.22861 0.0
C1984 C 0.23944 0.10305 0.26947 0.0
H1985 H 0.18782 0.1006 0.26322 0.0
C1986 C 0.23992 0.11226 0.28876 0.0
C1987 C 0.22045 0.0979 0.2606 0.0
C1988 C 0.21909 0.08689 0.24043 0.0
C1989 C 0.22181 0.1177 0.29883 0.0
C1990 C 0.20284 0.11405 0.28917 0.0
C1991 C 0.20237 0.10359 0.27051 0.0
C1992 C 0.18353 0.12266 0.29712 0.0
C1993 C 0.22317 0.12769 0.31951 0.0
C1994 C 0.16676 0.11005 0.30146 0.0
C1995 C 0.1482 0.11856 0.30777 0.0
C1996 C 0.14608 0.13983 0.30959 0.0
C1997 C 0.16294 0.15235 0.30517 0.0
C1998 C 0.18141 0.14385 0.29896 0.0
H1999 H 0.23745 0.12332 0.32753 0.0
H2000 H 0.22328 0.1445 0.31756 0.0
H2001 H 0.20994 0.12353 0.32923 0.0
H2002 H 0.16803 0.09365 0.2999 0.0
H2003 H 0.13551 0.10851 0.31103 0.0
H2004 H 0.62445 0.53094 0.96595 0.0
H2005 H 0.61835 0.50033 0.98617 0.0
H2006 H 0.66952 0.51521 0.02471 0.0
H2007 H 0.67578 0.54613 0.00452 0.0
H2008 H 0.66866 0.47371 0.00748 0.0
H2009 H 0.59647 0.49542 0.04591 0.0
H2010 H 0.59685 0.50043 0.01896 0.0
H2011 H 0.61398 0.514 0.03552 0.0
C2012 C 0.6343 0.52789 0.97885 0.0
C2013 C 0.65061 0.54098 0.98362 0.0
C2014 C 0.63073 0.51042 0.99044 0.0
C2015 C 0.64339 0.50564 0.00699 0.0
C2016 C 0.65953 0.51875 0.01203 0.0
H2017 H 0.61011 0.40047 0.08209 0.0
H2018 H 0.62423 0.43357 0.07232 0.0
C2019 C 0.66302 0.53641 0.00053 0.0
C2020 C 0.64025 0.48629 0.01813 0.0
H2021 H 0.60441 0.45983 0.04497 0.0
C2022 C 0.65478 0.47073 0.01599 0.0
C2023 C 0.62223 0.48256 0.02934 0.0
C2024 C 0.60654 0.49903 0.03277 0.0
C2025 C 0.65123 0.45113 0.02387 0.0
C2026 C 0.63263 0.44706 0.03398 0.0
C2027 C 0.61861 0.46295 0.03708 0.0
C2028 C 0.62668 0.42621 0.04026 0.0
C2029 C 0.66723 0.43486 0.02101 0.0
C2030 C 0.62362 0.41102 0.02548 0.0
C2031 C 0.61546 0.39211 0.03098 0.0
C2032 C 0.61015 0.38808 0.05136 0.0
C2033 C 0.61401 0.40306 0.06625 0.0
C2034 C 0.62208 0.422 0.06072 0.0
H2035 H 0.68255 0.4416 0.0184 0.0
H2036 H 0.66797 0.42462 0.03448 0.0
H2037 H 0.66327 0.4255 0.00747 0.0
H2038 H 0.62673 0.41409 0.00955 0.0
H2039 H 0.61266 0.38094 0.01913 0.0
H2040 H 0.19828 0.92635 0.75622 0.0
H2041 H 0.22932 0.9226 0.7768 0.0
H2042 H 0.25257 0.87864 0.73378 0.0
H2043 H 0.22191 0.8823 0.71314 0.0
H2044 H 0.24688 0.88751 0.79497 0.0
H2045 H 0.29833 0.92149 0.73736 0.0
H2046 H 0.27095 0.92444 0.7364 0.0
H2047 H 0.28276 0.90153 0.72696 0.0
C2048 C 0.20995 0.9158 0.75121 0.0
C2049 C 0.20766 0.90475 0.73293 0.0
C2050 C 0.22768 0.91373 0.76295 0.0
C2051 C 0.2434 0.90072 0.75652 0.0
C2052 C 0.24082 0.88916 0.73872 0.0
H2053 H 0.33787 0.83361 0.8094 0.0
H2054 H 0.30624 0.84889 0.79754 0.0
C2055 C 0.22319 0.89118 0.72702 0.0
C2056 C 0.26251 0.89878 0.76838 0.0
H2057 H 0.31424 0.9005 0.76298 0.0
C2058 C 0.26162 0.89069 0.78815 0.0
C2059 C 0.2817 0.90338 0.75964 0.0
C2060 C 0.28353 0.9134 0.739 0.0
C2061 C 0.27948 0.88567 0.79884 0.0
C2062 C 0.29864 0.88856 0.78931 0.0
C2063 C 0.29954 0.89805 0.77017 0.0
C2064 C 0.31765 0.87985 0.79787 0.0
C2065 C 0.27766 0.87687 0.82001 0.0
C2066 C 0.33481 0.89215 0.80155 0.0
C2067 C 0.35314 0.88339 0.80821 0.0
C2068 C 0.3546 0.86218 0.81105 0.0
C2069 C 0.33732 0.85 0.80739 0.0
C2070 C 0.3191 0.85873 0.80081 0.0
H2071 H 0.26347 0.88213 0.82763 0.0
H2072 H 0.27698 0.85999 0.81897 0.0
H2073 H 0.29094 0.88112 0.82964 0.0
H2074 H 0.33405 0.90847 0.79913 0.0
H2075 H 0.36617 0.89318 0.81089 0.0
H2076 H 0.87555 0.46499 0.47066 0.0
H2077 H 0.88018 0.49584 0.49091 0.0
H2078 H 0.82685 0.48082 0.52638 0.0
H2079 H 0.82236 0.44956 0.50644 0.0
H2080 H 0.85299 0.52717 0.49279 0.0
H2081 H 0.86769 0.49639 0.57042 0.0
H2082 H 0.86903 0.48073 0.54782 0.0
H2083 H 0.8447 0.48746 0.55848 0.0
C2084 C 0.86498 0.46804 0.48298 0.0
C2085 C 0.84857 0.45482 0.48692 0.0
C2086 C 0.86762 0.48572 0.49452 0.0
C2087 C 0.85391 0.49061 0.51019 0.0
C2088 C 0.83782 0.47718 0.51459 0.0
H2089 H 0.85417 0.61773 0.55446 0.0
H2090 H 0.84139 0.58486 0.54191 0.0
C2091 C 0.83526 0.45933 0.50314 0.0
C2092 C 0.8559 0.51043 0.52089 0.0
H2093 H 0.86541 0.5322 0.56724 0.0
C2094 C 0.85558 0.5283 0.5091 0.0
C2095 C 0.85926 0.51182 0.54216 0.0
C2096 C 0.86037 0.4931 0.55549 0.0
C2097 C 0.85922 0.54748 0.51783 0.0
C2098 C 0.86277 0.54888 0.53907 0.0
C2099 C 0.86248 0.53108 0.55099 0.0
C2100 C 0.86914 0.56831 0.54871 0.0
C2101 C 0.86024 0.56591 0.50407 0.0
C2102 C 0.8886 0.56968 0.55745 0.0
C2103 C 0.89585 0.58829 0.56473 0.0
C2104 C 0.88378 0.60599 0.56343 0.0
C2105 C 0.8639 0.60443 0.55551 0.0
C2106 C 0.85662 0.58569 0.54826 0.0
H2107 H 0.86124 0.5616 0.48771 0.0
H2108 H 0.84628 0.57523 0.50616 0.0
H2109 H 0.87363 0.57555 0.50792 0.0
H2110 H 0.8985 0.55646 0.55802 0.0
H2111 H 0.91116 0.58886 0.57092 0.0
H2112 H 0.80231 0.42182 0.74148 0.0
H2113 H 0.77059 0.4162 0.72242 0.0
H2114 H 0.74948 0.37541 0.76946 0.0
H2115 H 0.78082 0.38096 0.78862 0.0
H2116 H 0.75298 0.37963 0.70759 0.0
H2117 H 0.70298 0.41722 0.76431 0.0
H2118 H 0.73034 0.42049 0.76415 0.0
H2119 H 0.71913 0.39813 0.77546 0.0
C2120 C 0.79096 0.41158 0.74772 0.0
C2121 C 0.79407 0.40197 0.76667 0.0
C2122 C 0.77284 0.40843 0.73683 0.0
C2123 C 0.75754 0.39576 0.74478 0.0
C2124 C 0.7609 0.38564 0.76331 0.0
H2125 H 0.66022 0.32673 0.69707 0.0
H2126 H 0.69224 0.34147 0.70872 0.0
C2127 C 0.77892 0.38874 0.77418 0.0
C2128 C 0.73806 0.39271 0.73376 0.0
H2129 H 0.68647 0.39496 0.74031 0.0
C2130 C 0.73843 0.38326 0.71457 0.0
C2131 C 0.71911 0.39784 0.74271 0.0
C2132 C 0.71781 0.40918 0.7627 0.0
C2133 C 0.72028 0.37764 0.70468 0.0
C2134 C 0.70137 0.38132 0.71441 0.0
C2135 C 0.70099 0.39193 0.73298 0.0
C2136 C 0.68202 0.37276 0.7065 0.0
C2137 C 0.72154 0.36748 0.68407 0.0
C2138 C 0.6654 0.38546 0.70189 0.0
C2139 C 0.64688 0.37705 0.69531 0.0
C2140 C 0.64467 0.35578 0.69349 0.0
C2141 C 0.66136 0.34317 0.69827 0.0
C2142 C 0.67979 0.35157 0.70475 0.0
H2143 H 0.73583 0.37168 0.67599 0.0
H2144 H 0.72151 0.35068 0.68615 0.0
H2145 H 0.70832 0.37167 0.67434 0.0
H2146 H 0.66676 0.40186 0.70336 0.0
H2147 H 0.63432 0.38717 0.69177 0.0
H2148 H 0.39242 0.9047 0.41518 0.0
H2149 H 0.37994 0.93833 0.42544 0.0
H2150 H 0.37616 0.91805 0.48787 0.0
H2151 H 0.38851 0.88434 0.47781 0.0
H2152 H 0.34235 0.94316 0.47384 0.0
H2153 H 0.41884 0.97664 0.45819 0.0
H2154 H 0.40706 0.96278 0.43765 0.0
H2155 H 0.41478 0.9495 0.46031 0.0
C2156 C 0.38865 0.90728 0.43105 0.0
C2157 C 0.3917 0.89191 0.44574 0.0
C2158 C 0.38159 0.92652 0.43687 0.0
C2159 C 0.37747 0.9307 0.45743 0.0
C2160 C 0.37936 0.91509 0.47193 0.0
H2161 H 0.37742 0.03535 0.53309 0.0
H2162 H 0.38376 0.00416 0.51383 0.0
C2163 C 0.38645 0.89586 0.46615 0.0
C2164 C 0.37254 0.95164 0.46418 0.0
H2165 H 0.39375 0.99867 0.47125 0.0
C2166 C 0.35345 0.9554 0.47307 0.0
C2167 C 0.38721 0.96744 0.4633 0.0
C2168 C 0.4082 0.96398 0.45449 0.0
C2169 C 0.34876 0.97452 0.48148 0.0
C2170 C 0.36352 0.99024 0.4808 0.0
C2171 C 0.38245 0.98659 0.47155 0.0
C2172 C 0.36033 0.00992 0.49132 0.0
C2173 C 0.32841 0.97755 0.49179 0.0
C2174 C 0.34539 0.02371 0.48469 0.0
C2175 C 0.34173 0.04166 0.49565 0.0
C2176 C 0.35296 0.04601 0.51344 0.0
C2177 C 0.36841 0.03244 0.51955 0.0
C2178 C 0.37209 0.01461 0.50855 0.0
H2179 H 0.32001 0.96297 0.49375 0.0
H2180 H 0.3305 0.98472 0.507 0.0
H2181 H 0.31889 0.98795 0.48243 0.0
H2182 H 0.33636 0.02045 0.47124 0.0
H2183 H 0.32976 0.0518 0.4905 0.0
H2184 H 0.86055 0.60353 0.1743 0.0
H2185 H 0.82664 0.59 0.18294 0.0
H2186 H 0.81265 0.64566 0.21504 0.0
H2187 H 0.84609 0.65924 0.20655 0.0
H2188 H 0.80775 0.5848 0.22233 0.0
H2189 H 0.76517 0.6394 0.17415 0.0
H2190 H 0.79209 0.63449 0.17081 0.0
H2191 H 0.78347 0.65186 0.19025 0.0
C2192 C 0.85027 0.61281 0.18331 0.0
C2193 C 0.85597 0.63253 0.1896 0.0
C2194 C 0.83092 0.60509 0.18815 0.0
C2195 C 0.81702 0.61706 0.19918 0.0
C2196 C 0.82298 0.6364 0.20606 0.0
H2197 H 0.71456 0.62341 0.27087 0.0
H2198 H 0.7446 0.62634 0.24915 0.0
C2199 C 0.84219 0.64407 0.20129 0.0
C2200 C 0.79631 0.60958 0.2041 0.0
H2201 H 0.74648 0.6245 0.20229 0.0
C2202 C 0.79424 0.59306 0.21753 0.0
C2203 C 0.77874 0.62032 0.19764 0.0
C2204 C 0.77993 0.63738 0.18224 0.0
C2205 C 0.7752 0.58812 0.22602 0.0
C2206 C 0.75796 0.59997 0.22082 0.0
C2207 C 0.75979 0.61552 0.20629 0.0
C2208 C 0.73878 0.59847 0.23251 0.0
C2209 C 0.77383 0.57124 0.24159 0.0
C2210 C 0.72534 0.58202 0.22995 0.0
C2211 C 0.70798 0.58035 0.2423 0.0
C2212 C 0.704 0.59502 0.25746 0.0
C2213 C 0.71723 0.61178 0.25944 0.0
C2214 C 0.73439 0.61351 0.24703 0.0
H2215 H 0.78882 0.56388 0.24444 0.0
H2216 H 0.76791 0.57739 0.25623 0.0
H2217 H 0.76294 0.55944 0.23622 0.0
H2218 H 0.72849 0.57034 0.2187 0.0
H2219 H 0.6981 0.56724 0.24044 0.0
H2220 H 0.16768 0.94685 0.9946 0.0
H2221 H 0.16082 0.97813 0.97528 0.0
H2222 H 0.11252 0.99353 0.01714 0.0
H2223 H 0.11915 0.96244 0.03649 0.0
H2224 H 0.10338 0.9989 0.9738 0.0
H2225 H 0.17562 0.03593 0.99898 0.0
H2226 H 0.17747 0.01092 0.9878 0.0
H2227 H 0.165 0.01407 0.01195 0.0
C2228 C 0.15544 0.95677 -0.00044 0.0
C2229 C 0.14406 0.95222 0.01719 0.0
C2230 C 0.15164 0.97467 0.98857 0.0
C2231 C 0.13636 0.9882 0.99498 0.0
C2232 C 0.12444 0.98329 0.01203 0.0
H2233 H 0.10623 0.11347 0.98076 0.0
H2234 H 0.11822 0.07979 0.99137 0.0
C2235 C 0.12829 0.96552 0.02308 0.0
C2236 C 0.13306 0.0079 0.98449 0.0
H2237 H 0.15346 0.05546 0.97859 0.0
C2238 C 0.1144 0.01121 0.97458 0.0
C2239 C 0.14745 0.02391 0.9858 0.0
C2240 C 0.16749 0.02122 0.99679 0.0
C2241 C 0.10956 0.0303 0.96623 0.0
C2242 C 0.12384 0.04641 0.96775 0.0
C2243 C 0.14265 0.043 0.97734 0.0
C2244 C 0.11877 0.06727 0.96085 0.0
C2245 C 0.08888 0.03338 0.95657 0.0
C2246 C 0.11575 0.07152 0.94011 0.0
C2247 C 0.10895 0.09077 0.93397 0.0
C2248 C 0.10502 0.10607 0.94851 0.0
C2249 C 0.10901 0.10201 0.96919 0.0
C2250 C 0.11588 0.08279 0.97528 0.0
H2251 H 0.07841 0.02041 0.95963 0.0
H2252 H 0.08171 0.04761 0.9623 0.0
H2253 H 0.0907 0.03487 0.93981 0.0
H2254 H 0.11817 0.05978 0.92873 0.0
H2255 H 0.10614 0.09342 0.9179 0.0
H2256 H 0.31393 0.15721 0.16327 0.0
H2257 H 0.30153 0.18918 0.14912 0.0
H2258 H 0.30086 0.16266 0.08893 0.0
H2259 H 0.31307 0.13019 0.10308 0.0
H2260 H 0.31734 0.21506 0.11908 0.0
H2261 H 0.24195 0.18256 0.09714 0.0
H2262 H 0.25945 0.1692 0.11365 0.0
H2263 H 0.26412 0.17028 0.08669 0.0
C2264 C 0.3112 0.15808 0.14699 0.0
C2265 C 0.31425 0.14103 0.13433 0.0
C2266 C 0.30421 0.17645 0.13893 0.0
C2267 C 0.30007 0.17822 0.11803 0.0
C2268 C 0.30369 0.16149 0.10516 0.0
H2269 H 0.26015 0.29857 0.07187 0.0
H2270 H 0.28015 0.2672 0.0757 0.0
C2271 C 0.31071 0.14299 0.11325 0.0
C2272 C 0.29107 0.19743 0.11028 0.0
H2273 H 0.24645 0.21774 0.09281 0.0
C2274 C 0.30195 0.21568 0.11303 0.0
C2275 C 0.27093 0.19812 0.10258 0.0
C2276 C 0.2583 0.17906 0.09993 0.0
C2277 C 0.29293 0.2347 0.10904 0.0
C2278 C 0.27261 0.23539 0.10185 0.0
C2279 C 0.26204 0.21711 0.0983 0.0
C2280 C 0.26128 0.25481 0.09978 0.0
C2281 C 0.30479 0.2539 0.11355 0.0
C2282 C 0.24406 0.25819 0.11199 0.0
C2283 C 0.23259 0.27595 0.10979 0.0
C2284 C 0.23807 0.29075 0.09527 0.0
C2285 C 0.25559 0.28753 0.08328 0.0
C2286 C 0.26706 0.26964 0.08546 0.0
H2287 H 0.31891 0.25075 0.12239 0.0
H2288 H 0.30922 0.26127 0.09897 0.0
H2289 H 0.29527 0.26488 0.12224 0.0
H2290 H 0.2394 0.24695 0.12317 0.0
H2291 H 0.21924 0.27791 0.11932 0.0
H2292 H 0.82987 0.34393 0.85447 0.0
H2293 H 0.81771 0.31131 0.86784 0.0
H2294 H 0.75749 0.3366 0.87528 0.0
H2295 H 0.76945 0.36934 0.86193 0.0
H2296 H 0.77281 0.31002 0.90884 0.0
H2297 H 0.77824 0.27633 0.83103 0.0
H2298 H 0.80067 0.28888 0.84067 0.0
H2299 H 0.77816 0.30352 0.83536 0.0
C2300 C 0.8141 0.34268 0.85921 0.0
C2301 C 0.80055 0.35917 0.85691 0.0
C2302 C 0.8072 0.32401 0.86681 0.0
C2303 C 0.78668 0.32155 0.87227 0.0
C2304 C 0.77338 0.33825 0.87107 0.0
H2305 H 0.70687 0.21941 0.87839 0.0
H2306 H 0.72551 0.25083 0.87156 0.0
C2307 C 0.78024 0.35692 0.86341 0.0
C2308 C 0.77867 0.30121 0.87778 0.0
H2309 H 0.76655 0.25491 0.85731 0.0
C2310 C 0.77159 0.29787 0.89768 0.0
C2311 C 0.77696 0.28556 0.86304 0.0
C2312 C 0.78375 0.28866 0.84127 0.0
C2313 C 0.7626 0.27922 0.90321 0.0
C2314 C 0.76081 0.2636 0.88843 0.0
C2315 C 0.76812 0.2669 0.86861 0.0
C2316 C 0.74996 0.2443 0.89273 0.0
C2317 C 0.75444 0.27657 0.92456 0.0
C2318 C 0.75772 0.23009 0.90672 0.0
C2319 C 0.7471 0.21199 0.91067 0.0
C2320 C 0.72855 0.20787 0.90066 0.0
C2321 C 0.72105 0.22208 0.88643 0.0
C2322 C 0.73169 0.24006 0.88248 0.0
H2323 H 0.75398 0.29122 0.93306 0.0
H2324 H 0.73884 0.26999 0.92417 0.0
H2325 H 0.76439 0.26583 0.93305 0.0
H2326 H 0.77198 0.23299 0.91455 0.0
H2327 H 0.75332 0.20136 0.92168 0.0
H2328 H 0.38152 0.05528 0.64218 0.0
H2329 H 0.41347 0.04237 0.65672 0.0
H2330 H 0.44542 0.05963 0.60187 0.0
H2331 H 0.41392 0.07296 0.58752 0.0
H2332 H 0.43561 0.01156 0.64226 0.0
H2333 H 0.48441 0.0801 0.64438 0.0
H2334 H 0.45713 0.08155 0.64086 0.0
H2335 H 0.47368 0.07659 0.61948 0.0
C2336 C 0.39543 0.05666 0.63338 0.0
C2337 C 0.39514 0.06511 0.61367 0.0
C2338 C 0.41367 0.04927 0.64171 0.0
C2339 C 0.43192 0.05032 0.63052 0.0
C2340 C 0.43169 0.05915 0.61104 0.0
H2341 H 0.5318 0.96737 0.62863 0.0
H2342 H 0.50098 0.98757 0.6237 0.0
C2343 C 0.41356 0.06659 0.60276 0.0
C2344 C 0.4508 0.04041 0.63816 0.0
H2345 H 0.50211 0.04765 0.64359 0.0
C2346 C 0.45008 0.01955 0.64289 0.0
C2347 C 0.46966 0.05086 0.63931 0.0
C2348 C 0.47123 0.07356 0.63595 0.0
C2349 C 0.46785 0.00863 0.64765 0.0
C2350 C 0.48692 0.01873 0.64714 0.0
C2351 C 0.48753 0.03982 0.64357 0.0
C2352 C 0.50639 0.00745 0.6495 0.0
C2353 C 0.46599 0.98632 0.65302 0.0
C2354 C 0.52024 0.01259 0.665 0.0
C2355 C 0.53812 0.00123 0.6677 0.0
C2356 C 0.54241 0.98452 0.65492 0.0
C2357 C 0.52887 0.97998 0.63891 0.0
C2358 C 0.51114 0.99142 0.63615 0.0
H2359 H 0.4506 0.9827 0.65912 0.0
H2360 H 0.46831 0.97702 0.63907 0.0
H2361 H 0.47758 0.98176 0.6645 0.0
H2362 H 0.51697 0.02506 0.67534 0.0
H2363 H 0.54824 0.00516 0.68016 0.0
H2364 H 0.67172 0.64459 0.38719 0.0
H2365 H 0.68175 0.67819 0.40036 0.0
H2366 H 0.7097 0.69249 0.34257 0.0
H2367 H 0.6996 0.65935 0.32927 0.0
H2368 H 0.72026 0.69527 0.40424 0.0
H2369 H 0.67328 0.74177 0.35192 0.0
H2370 H 0.66916 0.71476 0.35542 0.0
H2371 H 0.68867 0.72373 0.33829 0.0
C2372 C 0.67999 0.65492 0.3773 0.0
C2373 C 0.68475 0.64933 0.35714 0.0
C2374 C 0.68565 0.67411 0.38483 0.0
C2375 C 0.69602 0.68801 0.37227 0.0
C2376 C 0.70118 0.68224 0.35234 0.0
H2377 H 0.77246 0.78925 0.37314 0.0
H2378 H 0.75063 0.75966 0.36743 0.0
C2379 C 0.69553 0.66318 0.34481 0.0
C2380 C 0.70234 0.7083 0.37999 0.0
H2381 H 0.70226 0.75881 0.36723 0.0
C2382 C 0.71595 0.70924 0.39649 0.0
C2383 C 0.69657 0.72653 0.36995 0.0
C2384 C 0.68094 0.72669 0.35305 0.0
C2385 C 0.72505 0.72775 0.40226 0.0
C2386 C 0.72034 0.74567 0.39126 0.0
C2387 C 0.70587 0.74496 0.37554 0.0
C2388 C 0.73211 0.76463 0.39425 0.0
C2389 C 0.74056 0.72794 0.41925 0.0
C2390 C 0.72854 0.77745 0.411 0.0
C2391 C 0.74094 0.79455 0.41426 0.0
C2392 C 0.75717 0.79889 0.4009 0.0
C2393 C 0.76019 0.7863 0.38379 0.0
C2394 C 0.74772 0.76939 0.38047 0.0
H2395 H 0.74285 0.71259 0.42605 0.0
H2396 H 0.75542 0.73358 0.41339 0.0
H2397 H 0.73552 0.73856 0.43143 0.0
H2398 H 0.71648 0.77398 0.42173 0.0
H2399 H 0.73826 0.80392 0.4276 0.0
H2400 H 0.94602 0.98761 0.17937 0.0
H2401 H 0.97672 0.96616 0.17833 0.0
H2402 H 0.00043 0.00248 0.12892 0.0
H2403 H 0.97016 0.02392 0.12984 0.0
H2404 H 0.99479 0.94321 0.14584 0.0
H2405 H 0.04559 0.00493 0.17279 0.0
H2406 H 0.01818 0.00604 0.17541 0.0
H2407 H 0.03011 0.01277 0.15161 0.0
C2408 C 0.9577 0.9909 0.16816 0.0
C2409 C 0.95572 0.00763 0.15483 0.0
C2410 C 0.97522 0.97868 0.16765 0.0
C2411 C 0.99101 0.98309 0.1539 0.0
C2412 C 0.98863 -0.00084 0.14 0.0
H2413 H 0.08459 0.92554 0.09178 0.0
H2414 H 0.05281 0.9366 0.10724 0.0
C2415 C 0.97122 0.01133 0.14048 0.0
C2416 C 0.01015 0.97113 0.15378 0.0
H2417 H 0.06177 0.97737 0.15457 0.0
C2418 C 0.00945 0.95051 0.14816 0.0
C2419 C 0.02923 0.98054 0.15734 0.0
C2420 C 0.03086 0.00224 0.16484 0.0
C2421 C 0.02744 0.93954 0.14433 0.0
C2422 C 0.04649 0.94961 0.14585 0.0
C2423 C 0.04718 0.96971 0.15315 0.0
C2424 C 0.06548 0.94067 0.13746 0.0
C2425 C 0.02583 0.91745 0.13813 0.0
C2426 C 0.08337 0.93959 0.14922 0.0
C2427 C 0.1018 0.93343 0.14031 0.0
C2428 C 0.10262 0.92852 0.11944 0.0
C2429 C 0.08456 0.92924 0.10788 0.0
C2430 C 0.06625 0.93533 0.11677 0.0
H2431 H 0.01213 0.9102 0.14498 0.0
H2432 H 0.02424 0.91649 0.1213 0.0
H2433 H 0.03956 0.90868 0.14277 0.0
H2434 H 0.08315 0.94388 0.16518 0.0
H2435 H 0.11545 0.93304 0.14961 0.0
H2436 H 0.23942 0.6993 0.56563 0.0
H2437 H 0.21728 0.72935 0.56934 0.0
H2438 H 0.24868 0.74571 0.62474 0.0
H2439 H 0.27082 0.71604 0.62121 0.0
H2440 H 0.20045 0.74577 0.62273 0.0
H2441 H 0.24277 0.79108 0.56445 0.0
H2442 H 0.23605 0.76482 0.5596 0.0
H2443 H 0.25523 0.77069 0.57816 0.0
C2444 C 0.24143 0.70918 0.57873 0.0
C2445 C 0.25696 0.70534 0.59307 0.0
C2446 C 0.22884 0.72633 0.58075 0.0
C2447 C 0.23151 0.73971 0.59723 0.0
C2448 C 0.24647 0.73553 0.6119 0.0
H2449 H 0.19937 0.8447 0.66041 0.0
H2450 H 0.20897 0.81158 0.64681 0.0
C2451 C 0.25912 0.71858 0.60982 0.0
C2452 C 0.21937 0.75857 0.59917 0.0
H2453 H 0.21989 0.80883 0.58564 0.0
C2454 C 0.20434 0.75948 0.61433 0.0
C2455 C 0.22443 0.77633 0.58807 0.0
C2456 C 0.2405 0.77589 0.57162 0.0
C2457 C 0.19496 0.77801 0.61943 0.0
C2458 C 0.20119 0.79611 0.60945 0.0
C2459 C 0.21523 0.79495 0.59334 0.0
C2460 C 0.19522 0.81647 0.6172 0.0
C2461 C 0.1789 0.77813 0.63591 0.0
C2462 C 0.18497 0.8306 0.60478 0.0
C2463 C 0.17955 0.84979 0.6125 0.0
C2464 C 0.18446 0.85514 0.63271 0.0
C2465 C 0.19518 0.84107 0.64485 0.0
C2466 C 0.20055 0.82202 0.63715 0.0
H2467 H 0.17105 0.76315 0.63693 0.0
H2468 H 0.18628 0.78111 0.65085 0.0
H2469 H 0.16733 0.79019 0.63315 0.0
H2470 H 0.18095 0.82667 0.58924 0.0
H2471 H 0.17133 0.8603 0.60276 0.0
H2472 H 0.0505 0.48795 0.32063 0.0
H2473 H 0.0191 0.46765 0.32281 0.0
H2474 H 0.99542 0.50907 0.36805 0.0
H2475 H 0.02641 0.52937 0.36603 0.0
H2476 H 0.00063 0.44852 0.35766 0.0
H2477 H 0.95054 0.50733 0.32366 0.0
H2478 H 0.97798 0.50782 0.32103 0.0
H2479 H 0.96609 0.51722 0.34392 0.0
C2480 C 0.03864 0.49268 0.33111 0.0
C2481 C 0.04094 0.51039 0.34305 0.0
C2482 C 0.02071 0.48109 0.33228 0.0
C2483 C 0.00481 0.48716 0.34524 0.0
C2484 C 0.00734 0.50442 0.35759 0.0
H2485 H 0.90981 0.43678 0.41186 0.0
H2486 H 0.94162 0.44742 0.39612 0.0
C2487 C 0.02517 0.51593 0.3565 0.0
C2488 C 0.98556 0.47546 0.34644 0.0
H2489 H 0.93397 0.48187 0.3444 0.0
C2490 C 0.98604 0.45561 0.35437 0.0
C2491 C 0.96658 0.48456 0.3417 0.0
C2492 C 0.96522 0.50533 0.3319 0.0
C2493 C 0.96794 0.44526 0.35923 0.0
C2494 C 0.94899 0.45519 0.35633 0.0
C2495 C 0.94851 0.47436 0.34685 0.0
C2496 C 0.92985 0.44719 0.36527 0.0
C2497 C 0.96931 0.42404 0.368 0.0
C2498 C 0.91244 0.44397 0.3532 0.0
C2499 C 0.89401 0.43801 0.36223 0.0
C2500 C 0.89269 0.43544 0.38349 0.0
C2501 C 0.91023 0.43861 0.39544 0.0
C2502 C 0.92855 0.44448 0.38644 0.0
H2503 H 0.98327 0.41609 0.36262 0.0
H2504 H 0.97016 0.42505 0.38488 0.0
H2505 H 0.95577 0.41475 0.36385 0.0
H2506 H 0.91308 0.44624 0.33685 0.0
H2507 H 0.88077 0.4357 0.35262 0.0
H2508 H 0.59744 0.54577 0.90663 0.0
H2509 H 0.56442 0.53682 0.8923 0.0
H2510 H 0.5772 0.57329 0.83908 0.0
H2511 H 0.6107 0.58231 0.85334 0.0
H2512 H 0.53326 0.56572 0.88151 0.0
H2513 H 0.5578 0.51713 0.8161 0.0
H2514 H 0.57466 0.52262 0.83719 0.0
H2515 H 0.56894 0.54208 0.81885 0.0
C2516 C 0.59339 0.55181 0.89179 0.0
C2517 C 0.60672 0.56479 0.88114 0.0
C2518 C 0.57446 0.5467 0.88365 0.0
C2519 C 0.56838 0.55439 0.86467 0.0
C2520 C 0.58172 0.56705 0.8537 0.0
H2521 H 0.45133 0.51002 0.8142 0.0
H2522 H 0.48087 0.53288 0.81762 0.0
C2523 C 0.60082 0.57218 0.86186 0.0
C2524 C 0.54777 0.54929 0.85703 0.0
H2525 H 0.5229 0.51757 0.82407 0.0
C2526 C 0.53092 0.55553 0.86867 0.0
C2527 C 0.54478 0.53616 0.84019 0.0
C2528 C 0.56243 0.52896 0.82732 0.0
C2529 C 0.51134 0.54793 0.86473 0.0
C2530 C 0.50861 0.53362 0.84888 0.0
C2531 C 0.52513 0.52855 0.83624 0.0
C2532 C 0.4897 0.52144 0.84727 0.0
C2533 C 0.49386 0.55455 0.87815 0.0
C2534 C 0.48496 0.50759 0.86284 0.0
C2535 C 0.46835 0.49447 0.86088 0.0
C2536 C 0.45607 0.495 0.84332 0.0
C2537 C 0.46044 0.50937 0.82798 0.0
C2538 C 0.4773 0.52237 0.82985 0.0
H2539 H 0.49692 0.56959 0.88533 0.0
H2540 H 0.47943 0.55549 0.86931 0.0
H2541 H 0.49175 0.54318 0.89052 0.0
H2542 H 0.49453 0.50646 0.87628 0.0
H2543 H 0.46539 0.48362 0.87298 0.0
H2544 H 0.92668 0.06421 0.23022 0.0
H2545 H 0.94577 0.08316 0.25592 0.0
H2546 H 0.95327 0.13307 0.21369 0.0
H2547 H 0.93489 0.11382 0.1876 0.0
H2548 H 0.98843 0.12205 0.22823 0.0
H2549 H 0.93556 0.12995 0.29341 0.0
H2550 H 0.9381 0.10386 0.28565 0.0
H2551 H 0.92703 0.12218 0.26842 0.0
C2552 C 0.93195 0.07943 0.22655 0.0
C2553 C 0.92939 0.08747 0.20682 0.0
C2554 C 0.94278 0.09032 0.24134 0.0
C2555 C 0.95083 0.10965 0.23684 0.0
C2556 C 0.94722 0.11818 0.21752 0.0
H2557 H 0.01722 0.18827 0.32064 0.0
H2558 H 0.99079 0.17146 0.30045 0.0
C2559 C 0.9367 0.10717 0.20262 0.0
C2560 C 0.96506 0.11982 0.25124 0.0
H2561 H 0.97118 0.13493 0.30074 0.0
C2562 C 0.98453 0.12505 0.24403 0.0
C2563 C 0.95999 0.12388 0.27183 0.0
C2564 C 0.93895 0.11987 0.28022 0.0
C2565 C -0.00084 0.13391 0.25683 0.0
C2566 C 0.99448 0.13697 0.27768 0.0
C2567 C 0.97488 0.13219 0.28485 0.0
C2568 C 0.00965 0.14574 0.29199 0.0
C2569 C 0.01936 0.14023 0.24773 0.0
C2570 C 0.02875 0.13642 0.29466 0.0
C2571 C 0.04399 0.1461 0.30597 0.0
C2572 C 0.04026 0.16511 0.31517 0.0
C2573 C 0.02063 0.17367 0.31371 0.0
C2574 C 0.00548 0.16409 0.30216 0.0
H2575 H 0.01827 0.14231 0.23095 0.0
H2576 H 0.02492 0.15468 0.25459 0.0
H2577 H 0.03084 0.12815 0.25069 0.0
H2578 H 0.03209 0.12195 0.28743 0.0
H2579 H 0.05885 0.13896 0.30705 0.0
H2580 H 0.61611 0.2974 0.06658 0.0
H2581 H 0.63094 0.26919 0.04731 0.0
H2582 H 0.57745 0.23277 0.05893 0.0
H2583 H 0.56257 0.26076 0.07858 0.0
H2584 H 0.61509 0.21011 0.05875 0.0
H2585 H 0.60524 0.25931 0.99055 0.0
H2586 H 0.62024 0.27074 0.01041 0.0
H2587 H 0.59375 0.26521 0.01484 0.0
C2588 C 0.60765 0.28326 0.06543 0.0
C2589 C 0.58798 0.28149 0.07379 0.0
C2590 C 0.61614 0.26717 0.05438 0.0
C2591 C 0.60505 0.24913 0.05132 0.0
C2592 C 0.58616 0.24665 0.06102 0.0
H2593 H 0.62967 0.17662 0.94358 0.0
H2594 H 0.61138 0.19319 0.97149 0.0
C2595 C 0.57769 0.2627 0.07222 0.0
C2596 C 0.61217 0.23389 0.03629 0.0
H2597 H 0.62364 0.22863 0.98587 0.0
C2598 C 0.61688 0.21405 0.04278 0.0
C2599 C 0.61397 0.23897 0.01541 0.0
C2600 C 0.60785 0.25965 0.0073 0.0
C2601 C 0.62409 0.19931 0.02895 0.0
C2602 C 0.62689 0.20476 0.00824 0.0
C2603 C 0.62154 0.22444 0.00175 0.0
C2604 C 0.6363 0.1909 0.99304 0.0
C2605 C 0.6285 0.17809 0.03663 0.0
C2606 C 0.65614 0.18348 0.99608 0.0
C2607 C 0.66657 0.17381 0.98022 0.0
C2608 C 0.65748 0.17174 0.96087 0.0
C2609 C 0.63717 0.17811 0.95823 0.0
C2610 C 0.62669 0.18757 0.97418 0.0
H2611 H 0.61931 0.17449 0.05041 0.0
H2612 H 0.62531 0.16644 0.02476 0.0
H2613 H 0.64483 0.17702 0.04092 0.0
H2614 H 0.66407 0.18625 0.01031 0.0
H2615 H 0.6822 0.16912 0.98279 0.0
H2616 H 0.58492 0.92844 0.73793 0.0
H2617 H 0.56841 0.91071 0.76628 0.0
H2618 H 0.53787 0.87098 0.72363 0.0
H2619 H 0.55465 0.88814 0.69535 0.0
H2620 H 0.52865 0.91009 0.77318 0.0
H2621 H 0.55496 0.83056 0.76607 0.0
H2622 H 0.56744 0.85135 0.75302 0.0
H2623 H 0.54518 0.83941 0.74213 0.0
C2624 C 0.57506 0.91562 0.73461 0.0
C2625 C 0.57108 0.90975 0.71434 0.0
C2626 C 0.56562 0.90552 0.75084 0.0
C2627 C 0.55209 0.88935 0.74712 0.0
C2628 C 0.54866 0.88304 0.72695 0.0
H2629 H 0.44124 0.85523 0.80143 0.0
H2630 H 0.47009 0.87237 0.78555 0.0
C2631 C 0.55817 0.89301 0.71074 0.0
C2632 C 0.53975 0.88055 0.7639 0.0
H2633 H 0.52197 0.83532 0.7824 0.0
C2634 C 0.52751 0.89375 0.77551 0.0
C2635 C 0.53851 0.85928 0.76728 0.0
C2636 C 0.55242 0.84439 0.7566 0.0
C2637 C 0.51308 0.88617 0.78936 0.0
C2638 C 0.51046 0.86485 0.79123 0.0
C2639 C 0.5237 0.85169 0.78072 0.0
C2640 C 0.49309 0.85583 0.80255 0.0
C2641 C 0.50055 0.90114 0.80156 0.0
C2642 C 0.49636 0.84061 0.81723 0.0
C2643 C 0.47984 0.83051 0.82615 0.0
C2644 C 0.45972 0.83543 0.8205 0.0
C2645 C 0.4565 0.85113 0.80625 0.0
C2646 C 0.47302 0.86109 0.79725 0.0
H2647 H 0.50912 0.91552 0.8042 0.0
H2648 H 0.48656 0.90505 0.79288 0.0
H2649 H 0.496 0.89469 0.81654 0.0
H2650 H 0.51173 0.83623 0.82146 0.0
H2651 H 0.48287 0.81852 0.83708 0.0
H2652 H 0.88905 0.69243 0.55267 0.0
H2653 H 0.87214 0.72033 0.5349 0.0
H2654 H 0.90597 0.76397 0.57067 0.0
H2655 H 0.92338 0.73605 0.5883 0.0
H2656 H 0.84867 0.7526 0.54625 0.0
H2657 H 0.92197 0.77933 0.51291 0.0
H2658 H 0.91978 0.75547 0.52639 0.0
H2659 H 0.92093 0.77907 0.54028 0.0
C2660 C 0.89276 0.70794 0.55699 0.0
C2661 C 0.90789 0.71199 0.57166 0.0
C2662 C 0.88305 0.72389 0.54679 0.0
C2663 C 0.88815 0.74422 0.55112 0.0
C2664 C 0.90223 0.74838 0.56671 0.0
H2665 H 0.81749 0.83757 0.48484 0.0
H2666 H 0.83441 0.82001 0.51309 0.0
C2667 C 0.91211 0.73239 0.57682 0.0
C2668 C 0.87946 0.76076 0.53839 0.0
H2669 H 0.89227 0.79653 0.50277 0.0
C2670 C 0.85817 0.7624 0.53691 0.0
C2671 C 0.89195 0.77336 0.52608 0.0
C2672 C 0.91492 0.77169 0.52629 0.0
C2673 C 0.84899 0.77575 0.52292 0.0
C2674 C 0.86148 0.78818 0.51044 0.0
C2675 C 0.88276 0.78709 0.51246 0.0
C2676 C 0.85287 0.80071 0.4937 0.0
C2677 C 0.82605 0.77556 0.52084 0.0
C2678 C 0.85843 0.79646 0.47348 0.0
C2679 C 0.84904 0.80665 0.45733 0.0
C2680 C 0.83379 0.82126 0.46107 0.0
C2681 C 0.82899 0.82624 0.4814 0.0
C2682 C 0.83855 0.81613 0.49758 0.0
H2683 H 0.8191 0.76208 0.52841 0.0
H2684 H 0.81968 0.78946 0.52808 0.0
H2685 H 0.82147 0.77552 0.50454 0.0
H2686 H 0.86954 0.78468 0.47013 0.0
H2687 H 0.8532 0.80247 0.44189 0.0
H2688 H 0.4159 0.42938 0.76486 0.0
H2689 H 0.43223 0.41031 0.73729 0.0
H2690 H 0.4671 0.37627 0.78147 0.0
H2691 H 0.45072 0.39493 0.80906 0.0
H2692 H 0.47259 0.41087 0.72885 0.0
H2693 H 0.44858 0.33149 0.74347 0.0
H2694 H 0.4359 0.35308 0.75496 0.0
H2695 H 0.45894 0.34297 0.76602 0.0
C2696 C 0.42678 0.41761 0.76875 0.0
C2697 C 0.43206 0.4138 0.78921 0.0
C2698 C 0.43609 0.40671 0.75295 0.0
C2699 C 0.45071 0.39171 0.75732 0.0
C2700 C 0.45552 0.38743 0.77774 0.0
H2701 H 0.55889 0.35389 0.69961 0.0
H2702 H 0.53104 0.37202 0.7162 0.0
C2703 C 0.44621 0.39825 0.79352 0.0
C2704 C 0.4625 0.38192 0.74072 0.0
H2705 H 0.47991 0.33572 0.72437 0.0
C2706 C 0.47389 0.39443 0.72759 0.0
C2707 C 0.46393 0.36049 0.73882 0.0
C2708 C 0.451 0.34625 0.75144 0.0
C2709 C 0.48767 0.38607 0.71352 0.0
C2710 C 0.4904 0.36469 0.71289 0.0
C2711 C 0.47803 0.35214 0.72506 0.0
C2712 C 0.50707 0.35508 0.70105 0.0
C2713 C 0.49943 0.40026 0.69975 0.0
C2714 C 0.50289 0.3394 0.68709 0.0
C2715 C 0.51883 0.32882 0.67769 0.0
C2716 C 0.53927 0.33364 0.68219 0.0
C2717 C 0.54336 0.34979 0.69571 0.0
C2718 C 0.52743 0.3603 0.70512 0.0
H2719 H 0.49087 0.41462 0.69699 0.0
H2720 H 0.51408 0.40436 0.70719 0.0
H2721 H 0.50284 0.393 0.68483 0.0
H2722 H 0.48728 0.33506 0.68383 0.0
H2723 H 0.51511 0.31648 0.66738 0.0
H2724 H 0.35303 0.70058 0.55765 0.0
H2725 H 0.37073 0.71683 0.52929 0.0
H2726 H 0.34227 0.675 0.48721 0.0
H2727 H 0.32394 0.65901 0.5155 0.0
H2728 H 0.39697 0.70457 0.49993 0.0
H2729 H 0.32364 0.72943 0.46518 0.0
H2730 H 0.32499 0.71828 0.49027 0.0
H2731 H 0.32663 0.70236 0.46801 0.0
C2732 C 0.35069 0.69463 0.54241 0.0
C2733 C 0.33679 0.67871 0.5388 0.0
C2734 C 0.36084 0.70395 0.5262 0.0
C2735 C 0.35744 0.69744 0.50609 0.0
C2736 C 0.34467 0.68063 0.50255 0.0
H2737 H 0.43031 0.76227 0.41328 0.0
H2738 H 0.41407 0.7337 0.43102 0.0
C2739 C 0.3343 0.67144 0.51876 0.0
C2740 C 0.36639 0.70918 0.48897 0.0
H2741 H 0.3537 0.74029 0.44917 0.0
C2742 C 0.38757 0.7122 0.48865 0.0
C2743 C 0.35401 0.71923 0.47439 0.0
C2744 C 0.33105 0.71735 0.47449 0.0
C2745 C 0.39666 0.72568 0.47474 0.0
C2746 C 0.38424 0.73598 0.46037 0.0
C2747 C 0.36317 0.73225 0.4601 0.0
C2748 C 0.39239 0.75252 0.44731 0.0
C2749 C 0.41928 0.72968 0.47639 0.0
C2750 C 0.38479 0.77238 0.44966 0.0
C2751 C 0.39377 0.78866 0.43934 0.0
C2752 C 0.41065 0.78541 0.42653 0.0
C2753 C 0.41749 0.76532 0.42325 0.0
C2754 C 0.40833 0.74899 0.43347 0.0
H2755 H 0.42577 0.72372 0.49087 0.0
H2756 H 0.42726 0.72204 0.46357 0.0
H2757 H 0.42254 0.74628 0.47548 0.0
H2758 H 0.37242 0.77543 0.46018 0.0
H2759 H 0.38805 0.80389 0.44218 0.0
H2760 H 0.98556 0.68014 0.16832 0.0
H2761 H 0.01471 0.66398 0.18499 0.0
H2762 H 0.97414 0.62199 0.21528 0.0
H2763 H 0.94501 0.63768 0.19839 0.0
H2764 H 0.02102 0.66346 0.22547 0.0
H2765 H 0.01907 0.58418 0.1972 0.0
H2766 H 0.00514 0.60453 0.18492 0.0
H2767 H 0.99463 0.59172 0.20685 0.0
C2768 C 0.98285 0.66717 0.17814 0.0
C2769 C 0.9629 0.66026 0.18203 0.0
C2770 C -0.00045 0.65798 0.1877 0.0
C2771 C 0.99664 0.64165 0.20121 0.0
C2772 C 0.97683 0.63426 0.20454 0.0
H2773 H 0.05267 0.60624 0.31079 0.0
H2774 H 0.03635 0.62444 0.28283 0.0
C2775 C 0.96014 0.64336 0.19496 0.0
C2776 C 0.01386 0.63368 0.21349 0.0
H2777 H 0.03566 0.5894 0.22981 0.0
C2778 C 0.02452 0.64731 0.22613 0.0
C2779 C 0.01871 0.61268 0.2141 0.0
C2780 C 0.00892 0.59749 0.19986 0.0
C2781 C 0.03895 0.64032 0.24031 0.0
C2782 C 0.04245 0.61912 0.24216 0.0
C2783 C 0.03279 0.60564 0.22859 0.0
C2784 C 0.05456 0.61036 0.25914 0.0
C2785 C 0.05001 0.65569 0.25338 0.0
C2786 C 0.07032 0.59644 0.25518 0.0
C2787 C 0.07956 0.58581 0.27118 0.0
C2788 C 0.07311 0.58882 0.29142 0.0
C2789 C 0.05809 0.60359 0.29541 0.0
C2790 C 0.04879 0.61412 0.27941 0.0
H2791 H 0.0514 0.67059 0.24542 0.0
H2792 H 0.04119 0.65828 0.26759 0.0
H2793 H 0.0655 0.65029 0.25757 0.0
H2794 H 0.07499 0.5933 0.23964 0.0
H2795 H 0.09125 0.57475 0.26759 0.0
H2796 H 0.1872 0.32581 0.0161 0.0
H2797 H 0.16897 0.30789 0.98909 0.0
H2798 H 0.11733 0.29986 0.02907 0.0
H2799 H 0.13576 0.31717 0.05644 0.0
H2800 H 0.1297 0.26472 0.01435 0.0
H2801 H 0.12317 0.31897 0.95008 0.0
H2802 H 0.14894 0.31666 0.95895 0.0
H2803 H 0.12972 0.32703 0.97559 0.0
C2804 C 0.17176 0.3207 0.01902 0.0
C2805 C 0.163 0.32273 0.0385 0.0
C2806 C 0.16129 0.31056 0.00346 0.0
C2807 C 0.14172 0.30264 0.00698 0.0
C2808 C 0.13243 0.30584 0.02602 0.0
H2809 H 0.06562 0.23533 0.92188 0.0
H2810 H 0.08174 0.26232 0.9419 0.0
C2811 C 0.14298 0.31574 0.04165 0.0
C2812 C 0.13217 0.28866 0.99197 0.0
H2813 H 0.11872 0.28346 0.94187 0.0
C2814 C 0.12711 0.26893 0.99856 0.0
C2815 C 0.1287 0.29415 0.97137 0.0
C2816 C 0.13273 0.31543 0.96363 0.0
C2817 C 0.11902 0.25444 0.98513 0.0
C2818 C 0.1165 0.25959 0.96432 0.0
C2819 C 0.12107 0.27945 0.95775 0.0
C2820 C 0.10849 0.24457 0.94949 0.0
C2821 C 0.11299 0.23383 0.99346 0.0
C2822 C 0.11868 0.22602 0.94632 0.0
C2823 C 0.10944 0.21046 0.93508 0.0
C2824 C 0.08996 0.21332 0.92657 0.0
C2825 C 0.08058 0.23256 0.92834 0.0
C2826 C 0.08976 0.24803 0.93976 0.0
H2827 H 0.11075 0.23427 0.01026 0.0
H2828 H 0.0987 0.22828 0.98627 0.0
H2829 H 0.12528 0.22267 0.99017 0.0
H2830 H 0.13339 0.22325 0.9533 0.0
H2831 H 0.11721 0.19594 0.93377 0.0
H2832 H 0.22937 0.92186 0.06426 0.0
H2833 H 0.25658 0.94078 0.08117 0.0
H2834 H 0.21787 0.94992 0.13358 0.0
H2835 H 0.19033 0.93149 0.11655 0.0
H2836 H 0.23254 0.98505 0.11942 0.0
H2837 H 0.29624 0.93007 0.12701 0.0
H2838 H 0.28666 0.93179 0.10143 0.0
H2839 H 0.27046 0.92217 0.12138 0.0
C2840 C 0.22676 0.92749 0.07957 0.0
C2841 C 0.2076 0.92532 0.08899 0.0
C2842 C 0.24242 0.93821 0.08928 0.0
C2843 C 0.23933 0.94664 0.10871 0.0
C2844 C 0.22059 0.94352 0.11858 0.0
H2845 H 0.32354 0.01309 0.18548 0.0
H2846 H 0.30351 0.98654 0.16873 0.0
C2847 C 0.20486 0.93298 0.10882 0.0
C2848 C 0.25457 0.96074 0.11766 0.0
H2849 H 0.30457 0.96535 0.13163 0.0
C2850 C 0.24825 0.98067 0.12221 0.0
C2851 C 0.27505 0.955 0.12137 0.0
C2852 C 0.28248 0.93353 0.11774 0.0
C2853 C 0.26183 0.99509 0.1302 0.0
C2854 C 0.28248 0.98961 0.1332 0.0
C2855 C 0.2888 0.96959 0.12896 0.0
C2856 C 0.29737 0.00434 0.14165 0.0
C2857 C 0.25378 0.01595 0.13575 0.0
C2858 C 0.30132 0.02278 0.13153 0.0
C2859 C 0.31266 0.03807 0.14111 0.0
C2860 C 0.32045 0.03505 0.16087 0.0
C2861 C 0.31779 0.01593 0.17026 0.0
C2862 C 0.30631 0.00072 0.16073 0.0
H2863 H 0.23691 0.01596 0.13739 0.0
H2864 H 0.2606 0.02145 0.15025 0.0
H2865 H 0.25781 0.02692 0.12351 0.0
H2866 H 0.29491 0.02567 0.11658 0.0
H2867 H 0.31463 0.05252 0.13336 0.0
H2868 H 0.82717 0.4849 0.81217 0.0
H2869 H 0.80857 0.51204 0.82961 0.0
H2870 H 0.80416 0.47456 0.8835 0.0
H2871 H 0.82225 0.44713 0.86601 0.0
H2872 H 0.76759 0.48653 0.87008 0.0
H2873 H 0.81873 0.55371 0.8741 0.0
H2874 H 0.81669 0.54316 0.84891 0.0
H2875 H 0.82803 0.52828 0.86899 0.0
C2876 C 0.82274 0.48263 0.82792 0.0
C2877 C 0.82596 0.46376 0.83763 0.0
C2878 C 0.8122 0.49824 0.83792 0.0
C2879 C 0.80505 0.49537 0.85789 0.0
C2880 C 0.80954 0.47708 0.86808 0.0
H2881 H 0.73466 0.5752 0.93578 0.0
H2882 H 0.76246 0.55729 0.91868 0.0
C2883 C 0.81986 0.46141 0.85805 0.0
C2884 C 0.79043 0.50996 0.86704 0.0
H2885 H 0.7832 0.55988 0.88016 0.0
C2886 C 0.77109 0.50254 0.87242 0.0
C2887 C 0.79502 0.53082 0.87009 0.0
C2888 C 0.81581 0.53946 0.86541 0.0
C2889 C 0.75615 0.51537 0.88061 0.0
C2890 C 0.76045 0.53636 0.88301 0.0
C2891 C 0.77988 0.54382 0.87795 0.0
C2892 C 0.74502 0.55042 0.89153 0.0
C2893 C 0.73597 0.50622 0.88693 0.0
C2894 C 0.72633 0.55327 0.88151 0.0
C2895 C 0.71034 0.56338 0.89129 0.0
C2896 C 0.71287 0.571 0.91118 0.0
C2897 C 0.73216 0.56953 0.92049 0.0
C2898 C 0.7481 0.55929 0.91074 0.0
H2899 H 0.73694 0.48939 0.88869 0.0
H2900 H 0.73062 0.51287 0.90157 0.0
H2901 H 0.72437 0.50956 0.87506 0.0
H2902 H 0.7238 0.54682 0.86651 0.0
H2903 H 0.69577 0.56448 0.88358 0.0
H2904 H 0.26875 0.07594 0.56112 0.0
H2905 H 0.24182 0.05701 0.57836 0.0
H2906 H 0.28073 0.04916 0.63086 0.0
H2907 H 0.30805 0.06759 0.61346 0.0
H2908 H 0.26652 0.01377 0.61761 0.0
H2909 H 0.20193 0.06778 0.62367 0.0
H2910 H 0.21143 0.06571 0.5981 0.0
H2911 H 0.22755 0.07599 0.61781 0.0
C2912 C 0.27146 0.07061 0.57653 0.0
C2913 C 0.29063 0.07314 0.58586 0.0
C2914 C 0.25595 0.05988 0.58643 0.0
C2915 C 0.25917 0.05181 0.60598 0.0
C2916 C 0.27791 0.05528 0.61577 0.0
H2917 H 0.17491 0.98507 0.68247 0.0
H2918 H 0.19454 0.0118 0.66559 0.0
C2919 C 0.29351 0.06582 0.6058 0.0
C2920 C 0.2441 0.03765 0.61513 0.0
H2921 H 0.19397 0.03236 0.62836 0.0
C2922 C 0.2507 0.01792 0.62011 0.0
C2923 C 0.22347 0.04309 0.61845 0.0
C2924 C 0.21571 0.06437 0.61442 0.0
C2925 C 0.23726 0.00339 0.62811 0.0
C2926 C 0.21646 0.00852 0.63064 0.0
C2927 C 0.20986 0.02836 0.62601 0.0
C2928 C 0.2017 0.99363 0.639 0.0
C2929 C 0.24561 0.98278 0.63415 0.0
C2930 C 0.19838 0.97491 0.62917 0.0
C2931 C 0.18729 0.95951 0.63884 0.0
C2932 C 0.17909 0.96269 0.6584 0.0
C2933 C 0.18101 0.98208 0.66742 0.0
C2934 C 0.19226 0.9974 0.65781 0.0
H2935 H 0.26244 0.98315 0.63618 0.0
H2936 H 0.23859 0.97735 0.64857 0.0
H2937 H 0.2421 0.97156 0.62198 0.0
H2938 H 0.20516 0.9719 0.6144 0.0
H2939 H 0.18588 0.94484 0.63135 0.0
H2940 H 0.67509 0.51818 0.31488 0.0
H2941 H 0.69346 0.49241 0.33427 0.0
H2942 H 0.70209 0.53531 0.38343 0.0
H2943 H 0.6842 0.56148 0.36375 0.0
H2944 H 0.7369 0.5194 0.3725 0.0
H2945 H 0.68201 0.45616 0.38184 0.0
H2946 H 0.68437 0.46342 0.35559 0.0
H2947 H 0.67423 0.48132 0.37381 0.0
C2948 C 0.68039 0.52202 0.33003 0.0
C2949 C 0.67821 0.54191 0.33775 0.0
C2950 C 0.69083 0.50718 0.34118 0.0
C2951 C 0.69895 0.5118 0.36044 0.0
C2952 C 0.6959 0.53137 0.36861 0.0
H2953 H 0.76567 0.42653 0.43764 0.0
H2954 H 0.73893 0.44722 0.42194 0.0
C2955 C 0.68568 0.54632 0.35736 0.0
C2956 C 0.71276 0.49716 0.37079 0.0
H2957 H 0.71756 0.44749 0.38582 0.0
C2958 C 0.73254 0.50375 0.37563 0.0
C2959 C 0.70708 0.47676 0.37505 0.0
C2960 C 0.68568 0.46907 0.3715 0.0
C2961 C 0.74695 0.49045 0.38409 0.0
C2962 C 0.74167 0.46976 0.3872 0.0
C2963 C 0.72171 0.46325 0.383 0.0
C2964 C 0.75668 0.45489 0.39521 0.0
C2965 C 0.76764 0.49881 0.38982 0.0
C2966 C 0.77515 0.45155 0.3849 0.0
C2967 C 0.79055 0.43993 0.39391 0.0
C2968 C 0.78761 0.43114 0.41325 0.0
C2969 C 0.76848 0.43316 0.42277 0.0
C2970 C 0.75316 0.44499 0.41384 0.0
H2971 H 0.76722 0.51561 0.39197 0.0
H2972 H 0.77339 0.49171 0.40409 0.0
H2973 H 0.77864 0.49547 0.3774 0.0
H2974 H 0.77794 0.4586 0.37023 0.0
H2975 H 0.805 0.43844 0.38604 0.0
loop_
_geom_bond_atom_site_label_1
_geom_bond_atom_site_label_2
_geom_bond_distance
_geom_bond_site_symmetry_2
_ccdc_geom_bond_type
Co0 O3 1.970 . S
Co0 N17 1.989 . S
Co0 O25 1.967 . S
Co0 O32 1.920 . S
Co1 O4 1.966 . S
Co1 N10 2.022 . S
Co1 N18 1.993 . S
Co1 O26 1.941 . S
C2 O3 1.258 . S
C2 O4 1.263 . S
O3 Co0 1.970 . S
O3 C2 1.258 . S
O4 Co1 1.966 . S
O4 C2 1.263 . S
C5 O6 1.235 . S
C5 O32 1.289 . S
O6 C5 1.235 . S
C7 C9 1.400 . S
C7 N10 1.351 . S
C7 C12 1.501 . S
C8 C9 1.387 . S
C8 N11 1.341 . S
C9 C7 1.400 . S
C9 C8 1.387 . S
N10 Co1 2.022 . S
N10 C7 1.351 . S
N10 N11 1.365 . S
N11 C8 1.341 . S
N11 N10 1.365 . S
N11 H31 0.862 . S
C12 C7 1.501 . S
C12 H13 0.961 . S
C12 H14 0.961 . S
C12 H15 0.960 . S
H13 C12 0.961 . S
H14 C12 0.961 . S
H15 C12 0.960 . S
C16 N17 1.342 . S
C16 C20 1.401 . S
C16 C21 1.499 . S
N17 Co0 1.989 . S
N17 C16 1.342 . S
N17 N18 1.388 . S
N18 Co1 1.993 . S
N18 N17 1.388 . S
N18 C19 1.346 . S
C19 N18 1.346 . S
C19 C20 1.396 . S
C19 C29 1.510 . S
C20 C16 1.401 . S
C20 C19 1.396 . S
C21 C16 1.499 . S
C21 H22 0.959 . S
C21 H23 0.960 . S
C21 H24 0.961 . S
H22 C21 0.959 . S
H23 C21 0.960 . S
H24 C21 0.961 . S
O25 Co0 1.967 . S
O25 C33 1.258 . S
O26 Co1 1.941 . S
O26 C33 1.266 . S
H27 C29 0.959 . S
H28 C29 0.961 . S
C29 C19 1.510 . S
C29 H27 0.959 . S
C29 H28 0.961 . S
C29 H30 0.960 . S
H30 C29 0.960 . S
H31 N11 0.862 . S
O32 Co0 1.920 . S
O32 C5 1.289 . S
C33 O25 1.258 . S
C33 O26 1.266 . S
Co34 O37 1.970 . S
Co34 N51 1.989 . S
Co34 O59 1.967 . S
Co34 O66 1.920 . S
Co35 O38 1.966 . S
Co35 N44 2.022 . S
Co35 N52 1.993 . S
Co35 O60 1.941 . S
C36 O37 1.258 . S
C36 O38 1.263 . S
O37 Co34 1.970 . S
O37 C36 1.258 . S
O38 Co35 1.966 . S
O38 C36 1.263 . S
C39 O40 1.235 . S
C39 O66 1.289 . S
O40 C39 1.235 . S
C41 C43 1.400 . S
C41 N44 1.351 . S
C41 C46 1.501 . S
C42 C43 1.387 . S
C42 N45 1.341 . S
C43 C41 1.400 . S
C43 C42 1.387 . S
N44 Co35 2.022 . S
N44 C41 1.351 . S
N44 N45 1.365 . S
N45 C42 1.341 . S
N45 N44 1.365 . S
N45 H65 0.862 . S
C46 C41 1.501 . S
C46 H47 0.961 . S
C46 H48 0.961 . S
C46 H49 0.960 . S
H47 C46 0.961 . S
H48 C46 0.961 . S
H49 C46 0.960 . S
C50 N51 1.342 . S
C50 C54 1.401 . S
C50 C55 1.499 . S
N51 Co34 1.989 . S
N51 C50 1.342 . S
N51 N52 1.388 . S
N52 Co35 1.993 . S
N52 N51 1.388 . S
N52 C53 1.346 . S
C53 N52 1.346 . S
C53 C54 1.396 . S
C53 C63 1.510 . S
C54 C50 1.401 . S
C54 C53 1.396 . S
C55 C50 1.499 . S
C55 H56 0.959 . S
C55 H57 0.960 . S
C55 H58 0.961 . S
H56 C55 0.959 . S
H57 C55 0.960 . S
H58 C55 0.961 . S
O59 Co34 1.967 . S
O59 C67 1.258 . S
O60 Co35 1.941 . S
O60 C67 1.266 . S
H61 C63 0.959 . S
H62 C63 0.961 . S
C63 C53 1.510 . S
C63 H61 0.959 . S
C63 H62 0.961 . S
C63 H64 0.960 . S
H64 C63 0.960 . S
H65 N45 0.862 . S
O66 Co34 1.920 . S
O66 C39 1.289 . S
C67 O59 1.258 . S
C67 O60 1.266 . S
Co68 O71 1.970 . S
Co68 N85 1.989 . S
Co68 O93 1.967 . S
Co68 O100 1.920 . S
Co69 O72 1.966 . S
Co69 N78 2.022 . S
Co69 N86 1.993 . S
Co69 O94 1.941 . S
C70 O71 1.258 . S
C70 O72 1.263 . S
O71 Co68 1.970 . S
O71 C70 1.258 . S
O72 Co69 1.966 . S
O72 C70 1.263 . S
C73 O74 1.235 . S
C73 O100 1.289 . S
O74 C73 1.235 . S
C75 C77 1.400 . S
C75 N78 1.351 . S
C75 C80 1.501 . S
C76 C77 1.387 . S
C76 N79 1.341 . S
C77 C75 1.400 . S
C77 C76 1.387 . S
N78 Co69 2.022 . S
N78 C75 1.351 . S
N78 N79 1.365 . S
N79 C76 1.341 . S
N79 N78 1.365 . S
N79 H99 0.862 . S
C80 C75 1.501 . S
C80 H81 0.961 . S
C80 H82 0.961 . S
C80 H83 0.960 . S
H81 C80 0.961 . S
H82 C80 0.961 . S
H83 C80 0.960 . S
C84 N85 1.342 . S
C84 C88 1.401 . S
C84 C89 1.499 . S
N85 Co68 1.989 . S
N85 C84 1.342 . S
N85 N86 1.388 . S
N86 Co69 1.993 . S
N86 N85 1.388 . S
N86 C87 1.346 . S
C87 N86 1.346 . S
C87 C88 1.396 . S
C87 C97 1.510 . S
C88 C84 1.401 . S
C88 C87 1.396 . S
C89 C84 1.499 . S
C89 H90 0.959 . S
C89 H91 0.960 . S
C89 H92 0.961 . S
H90 C89 0.959 . S
H91 C89 0.960 . S
H92 C89 0.961 . S
O93 Co68 1.967 . S
O93 C101 1.258 . S
O94 Co69 1.941 . S
O94 C101 1.266 . S
H95 C97 0.959 . S
H96 C97 0.961 . S
C97 C87 1.510 . S
C97 H95 0.959 . S
C97 H96 0.961 . S
C97 H98 0.960 . S
H98 C97 0.960 . S
H99 N79 0.862 . S
O100 Co68 1.920 . S
O100 C73 1.289 . S
C101 O93 1.258 . S
C101 O94 1.266 . S
Co102 O105 1.970 . S
Co102 N119 1.989 . S
Co102 O127 1.967 . S
Co102 O134 1.920 . S
Co103 O106 1.966 . S
Co103 N112 2.022 . S
Co103 N120 1.993 . S
Co103 O128 1.941 . S
C104 O105 1.258 . S
C104 O106 1.263 . S
O105 Co102 1.970 . S
O105 C104 1.258 . S
O106 Co103 1.966 . S
O106 C104 1.263 . S
C107 O108 1.235 . S
C107 O134 1.289 . S
O108 C107 1.235 . S
C109 C111 1.400 . S
C109 N112 1.351 . S
C109 C114 1.501 . S
C110 C111 1.387 . S
C110 N113 1.341 . S
C111 C109 1.400 . S
C111 C110 1.387 . S
N112 Co103 2.022 . S
N112 C109 1.351 . S
N112 N113 1.365 . S
N113 C110 1.341 . S
N113 N112 1.365 . S
N113 H133 0.862 . S
C114 C109 1.501 . S
C114 H115 0.961 . S
C114 H116 0.961 . S
C114 H117 0.960 . S
H115 C114 0.961 . S
H116 C114 0.961 . S
H117 C114 0.960 . S
C118 N119 1.342 . S
C118 C122 1.401 . S
C118 C123 1.499 . S
N119 Co102 1.989 . S
N119 C118 1.342 . S
N119 N120 1.388 . S
N120 Co103 1.993 . S
N120 N119 1.388 . S
N120 C121 1.346 . S
C121 N120 1.346 . S
C121 C122 1.396 . S
C121 C131 1.510 . S
C122 C118 1.401 . S
C122 C121 1.396 . S
C123 C118 1.499 . S
C123 H124 0.959 . S
C123 H125 0.960 . S
C123 H126 0.961 . S
H124 C123 0.959 . S
H125 C123 0.960 . S
H126 C123 0.961 . S
O127 Co102 1.967 . S
O127 C135 1.258 . S
O128 Co103 1.941 . S
O128 C135 1.266 . S
H129 C131 0.959 . S
H130 C131 0.961 . S
C131 C121 1.510 . S
C131 H129 0.959 . S
C131 H130 0.961 . S
C131 H132 0.960 . S
H132 C131 0.960 . S
H133 N113 0.862 . S
O134 Co102 1.920 . S
O134 C107 1.289 . S
C135 O127 1.258 . S
C135 O128 1.266 . S
Co136 O139 1.970 . S
Co136 N153 1.989 . S
Co136 O161 1.967 . S
Co136 O168 1.920 . S
Co137 O140 1.966 . S
Co137 N146 2.022 . S
Co137 N154 1.993 . S
Co137 O162 1.941 . S
C138 O139 1.258 . S
C138 O140 1.263 . S
O139 Co136 1.970 . S
O139 C138 1.258 . S
O140 Co137 1.966 . S
O140 C138 1.263 . S
C141 O142 1.235 . S
C141 O168 1.289 . S
O142 C141 1.235 . S
C143 C145 1.400 . S
C143 N146 1.351 . S
C143 C148 1.501 . S
C144 C145 1.387 . S
C144 N147 1.341 . S
C145 C143 1.400 . S
C145 C144 1.387 . S
N146 Co137 2.022 . S
N146 C143 1.351 . S
N146 N147 1.365 . S
N147 C144 1.341 . S
N147 N146 1.365 . S
N147 H167 0.862 . S
C148 C143 1.501 . S
C148 H149 0.961 . S
C148 H150 0.961 . S
C148 H151 0.960 . S
H149 C148 0.961 . S
H150 C148 0.961 . S
H151 C148 0.960 . S
C152 N153 1.342 . S
C152 C156 1.401 . S
C152 C157 1.499 . S
N153 Co136 1.989 . S
N153 C152 1.342 . S
N153 N154 1.388 . S
N154 Co137 1.993 . S
N154 N153 1.388 . S
N154 C155 1.346 . S
C155 N154 1.346 . S
C155 C156 1.396 . S
C155 C165 1.510 . S
C156 C152 1.401 . S
C156 C155 1.396 . S
C157 C152 1.499 . S
C157 H158 0.959 . S
C157 H159 0.960 . S
C157 H160 0.961 . S
H158 C157 0.959 . S
H159 C157 0.960 . S
H160 C157 0.961 . S
O161 Co136 1.967 . S
O161 C169 1.258 . S
O162 Co137 1.941 . S
O162 C169 1.266 . S
H163 C165 0.959 . S
H164 C165 0.961 . S
C165 C155 1.510 . S
C165 H163 0.959 . S
C165 H164 0.961 . S
C165 H166 0.960 . S
H166 C165 0.960 . S
H167 N147 0.862 . S
O168 Co136 1.920 . S
O168 C141 1.289 . S
C169 O161 1.258 . S
C169 O162 1.266 . S
Co170 O173 1.970 . S
Co170 N187 1.989 . S
Co170 O195 1.967 . S
Co170 O202 1.920 . S
Co171 O174 1.966 . S
Co171 N180 2.022 . S
Co171 N188 1.993 . S
Co171 O196 1.941 . S
C172 O173 1.258 . S
C172 O174 1.263 . S
O173 Co170 1.970 . S
O173 C172 1.258 . S
O174 Co171 1.966 . S
O174 C172 1.263 . S
C175 O176 1.235 . S
C175 O202 1.289 . S
O176 C175 1.235 . S
C177 C179 1.400 . S
C177 N180 1.351 . S
C177 C182 1.501 . S
C178 C179 1.387 . S
C178 N181 1.341 . S
C179 C177 1.400 . S
C179 C178 1.387 . S
N180 Co171 2.022 . S
N180 C177 1.351 . S
N180 N181 1.365 . S
N181 C178 1.341 . S
N181 N180 1.365 . S
N181 H201 0.862 . S
C182 C177 1.501 . S
C182 H183 0.961 . S
C182 H184 0.961 . S
C182 H185 0.960 . S
H183 C182 0.961 . S
H184 C182 0.961 . S
H185 C182 0.960 . S
C186 N187 1.342 . S
C186 C190 1.401 . S
C186 C191 1.499 . S
N187 Co170 1.989 . S
N187 C186 1.342 . S
N187 N188 1.388 . S
N188 Co171 1.993 . S
N188 N187 1.388 . S
N188 C189 1.346 . S
C189 N188 1.346 . S
C189 C190 1.396 . S
C189 C199 1.510 . S
C190 C186 1.401 . S
C190 C189 1.396 . S
C191 C186 1.499 . S
C191 H192 0.959 . S
C191 H193 0.960 . S
C191 H194 0.961 . S
H192 C191 0.959 . S
H193 C191 0.960 . S
H194 C191 0.961 . S
O195 Co170 1.967 . S
O195 C203 1.258 . S
O196 Co171 1.941 . S
O196 C203 1.266 . S
H197 C199 0.959 . S
H198 C199 0.961 . S
C199 C189 1.510 . S
C199 H197 0.959 . S
C199 H198 0.961 . S
C199 H200 0.960 . S
H200 C199 0.960 . S
H201 N181 0.862 . S
O202 Co170 1.920 . S
O202 C175 1.289 . S
C203 O195 1.258 . S
C203 O196 1.266 . S
Co204 O207 1.970 . S
Co204 N221 1.989 . S
Co204 O229 1.967 . S
Co204 O236 1.920 . S
Co205 O208 1.966 . S
Co205 N214 2.022 . S
Co205 N222 1.993 . S
Co205 O230 1.941 . S
C206 O207 1.258 . S
C206 O208 1.263 . S
O207 Co204 1.970 . S
O207 C206 1.258 . S
O208 Co205 1.966 . S
O208 C206 1.263 . S
C209 O210 1.235 . S
C209 O236 1.289 . S
O210 C209 1.235 . S
C211 C213 1.400 . S
C211 N214 1.351 . S
C211 C216 1.501 . S
C212 C213 1.387 . S
C212 N215 1.341 . S
C213 C211 1.400 . S
C213 C212 1.387 . S
N214 Co205 2.022 . S
N214 C211 1.351 . S
N214 N215 1.365 . S
N215 C212 1.341 . S
N215 N214 1.365 . S
N215 H235 0.862 . S
C216 C211 1.501 . S
C216 H217 0.961 . S
C216 H218 0.961 . S
C216 H219 0.960 . S
H217 C216 0.961 . S
H218 C216 0.961 . S
H219 C216 0.960 . S
C220 N221 1.342 . S
C220 C224 1.401 . S
C220 C225 1.499 . S
N221 Co204 1.989 . S
N221 C220 1.342 . S
N221 N222 1.388 . S
N222 Co205 1.993 . S
N222 N221 1.388 . S
N222 C223 1.346 . S
C223 N222 1.346 . S
C223 C224 1.396 . S
C223 C233 1.510 . S
C224 C220 1.401 . S
C224 C223 1.396 . S
C225 C220 1.499 . S
C225 H226 0.959 . S
C225 H227 0.960 . S
C225 H228 0.961 . S
H226 C225 0.959 . S
H227 C225 0.960 . S
H228 C225 0.961 . S
O229 Co204 1.967 . S
O229 C237 1.258 . S
O230 Co205 1.941 . S
O230 C237 1.266 . S
H231 C233 0.959 . S
H232 C233 0.961 . S
C233 C223 1.510 . S
C233 H231 0.959 . S
C233 H232 0.961 . S
C233 H234 0.960 . S
H234 C233 0.960 . S
H235 N215 0.862 . S
O236 Co204 1.920 . S
O236 C209 1.289 . S
C237 O229 1.258 . S
C237 O230 1.266 . S
Co238 O241 1.970 . S
Co238 N255 1.989 . S
Co238 O263 1.967 . S
Co238 O270 1.920 . S
Co239 O242 1.966 . S
Co239 N248 2.022 . S
Co239 N256 1.993 . S
Co239 O264 1.941 . S
C240 O241 1.258 . S
C240 O242 1.263 . S
O241 Co238 1.970 . S
O241 C240 1.258 . S
O242 Co239 1.966 . S
O242 C240 1.263 . S
C243 O244 1.235 . S
C243 O270 1.289 . S
O244 C243 1.235 . S
C245 C247 1.400 . S
C245 N248 1.351 . S
C245 C250 1.501 . S
C246 C247 1.387 . S
C246 N249 1.341 . S
C247 C245 1.400 . S
C247 C246 1.387 . S
N248 Co239 2.022 . S
N248 C245 1.351 . S
N248 N249 1.365 . S
N249 C246 1.341 . S
N249 N248 1.365 . S
N249 H269 0.862 . S
C250 C245 1.501 . S
C250 H251 0.961 . S
C250 H252 0.961 . S
C250 H253 0.960 . S
H251 C250 0.961 . S
H252 C250 0.961 . S
H253 C250 0.960 . S
C254 N255 1.342 . S
C254 C258 1.401 . S
C254 C259 1.499 . S
N255 Co238 1.989 . S
N255 C254 1.342 . S
N255 N256 1.388 . S
N256 Co239 1.993 . S
N256 N255 1.388 . S
N256 C257 1.346 . S
C257 N256 1.346 . S
C257 C258 1.396 . S
C257 C267 1.510 . S
C258 C254 1.401 . S
C258 C257 1.396 . S
C259 C254 1.499 . S
C259 H260 0.959 . S
C259 H261 0.960 . S
C259 H262 0.961 . S
H260 C259 0.959 . S
H261 C259 0.960 . S
H262 C259 0.961 . S
O263 Co238 1.967 . S
O263 C271 1.258 . S
O264 Co239 1.941 . S
O264 C271 1.266 . S
H265 C267 0.959 . S
H266 C267 0.961 . S
C267 C257 1.510 . S
C267 H265 0.959 . S
C267 H266 0.961 . S
C267 H268 0.960 . S
H268 C267 0.960 . S
H269 N249 0.862 . S
O270 Co238 1.920 . S
O270 C243 1.289 . S
C271 O263 1.258 . S
C271 O264 1.266 . S
Co272 O275 1.970 . S
Co272 N289 1.989 . S
Co272 O297 1.967 . S
Co272 O304 1.920 . S
Co273 O276 1.966 . S
Co273 N282 2.022 . S
Co273 N290 1.993 . S
Co273 O298 1.941 . S
C274 O275 1.258 . S
C274 O276 1.263 . S
O275 Co272 1.970 . S
O275 C274 1.258 . S
O276 Co273 1.966 . S
O276 C274 1.263 . S
C277 O278 1.235 . S
C277 O304 1.289 . S
O278 C277 1.235 . S
C279 C281 1.400 . S
C279 N282 1.351 . S
C279 C284 1.501 . S
C280 C281 1.387 . S
C280 N283 1.341 . S
C281 C279 1.400 . S
C281 C280 1.387 . S
N282 Co273 2.022 . S
N282 C279 1.351 . S
N282 N283 1.365 . S
N283 C280 1.341 . S
N283 N282 1.365 . S
N283 H303 0.862 . S
C284 C279 1.501 . S
C284 H285 0.961 . S
C284 H286 0.961 . S
C284 H287 0.960 . S
H285 C284 0.961 . S
H286 C284 0.961 . S
H287 C284 0.960 . S
C288 N289 1.342 . S
C288 C292 1.401 . S
C288 C293 1.499 . S
N289 Co272 1.989 . S
N289 C288 1.342 . S
N289 N290 1.388 . S
N290 Co273 1.993 . S
N290 N289 1.388 . S
N290 C291 1.346 . S
C291 N290 1.346 . S
C291 C292 1.396 . S
C291 C301 1.510 . S
C292 C288 1.401 . S
C292 C291 1.396 . S
C293 C288 1.499 . S
C293 H294 0.959 . S
C293 H295 0.960 . S
C293 H296 0.961 . S
H294 C293 0.959 . S
H295 C293 0.960 . S
H296 C293 0.961 . S
O297 Co272 1.967 . S
O297 C305 1.258 . S
O298 Co273 1.941 . S
O298 C305 1.266 . S
H299 C301 0.959 . S
H300 C301 0.961 . S
C301 C291 1.510 . S
C301 H299 0.959 . S
C301 H300 0.961 . S
C301 H302 0.960 . S
H302 C301 0.960 . S
H303 N283 0.862 . S
O304 Co272 1.920 . S
O304 C277 1.289 . S
C305 O297 1.258 . S
C305 O298 1.266 . S
Co306 O309 1.970 . S
Co306 N323 1.989 . S
Co306 O331 1.967 . S
Co306 O338 1.920 . S
Co307 O310 1.966 . S
Co307 N316 2.022 . S
Co307 N324 1.993 . S
Co307 O332 1.941 . S
C308 O309 1.258 . S
C308 O310 1.263 . S
O309 Co306 1.970 . S
O309 C308 1.258 . S
O310 Co307 1.966 . S
O310 C308 1.263 . S
C311 O312 1.235 . S
C311 O338 1.289 . S
O312 C311 1.235 . S
C313 C315 1.400 . S
C313 N316 1.351 . S
C313 C318 1.501 . S
C314 C315 1.387 . S
C314 N317 1.341 . S
C315 C313 1.400 . S
C315 C314 1.387 . S
N316 Co307 2.022 . S
N316 C313 1.351 . S
N316 N317 1.365 . S
N317 C314 1.341 . S
N317 N316 1.365 . S
N317 H337 0.862 . S
C318 C313 1.501 . S
C318 H319 0.961 . S
C318 H320 0.961 . S
C318 H321 0.960 . S
H319 C318 0.961 . S
H320 C318 0.961 . S
H321 C318 0.960 . S
C322 N323 1.342 . S
C322 C326 1.401 . S
C322 C327 1.499 . S
N323 Co306 1.989 . S
N323 C322 1.342 . S
N323 N324 1.388 . S
N324 Co307 1.993 . S
N324 N323 1.388 . S
N324 C325 1.346 . S
C325 N324 1.346 . S
C325 C326 1.396 . S
C325 C335 1.510 . S
C326 C322 1.401 . S
C326 C325 1.396 . S
C327 C322 1.499 . S
C327 H328 0.959 . S
C327 H329 0.960 . S
C327 H330 0.961 . S
H328 C327 0.959 . S
H329 C327 0.960 . S
H330 C327 0.961 . S
O331 Co306 1.967 . S
O331 C339 1.258 . S
O332 Co307 1.941 . S
O332 C339 1.266 . S
H333 C335 0.959 . S
H334 C335 0.961 . S
C335 C325 1.510 . S
C335 H333 0.959 . S
C335 H334 0.961 . S
C335 H336 0.960 . S
H336 C335 0.960 . S
H337 N317 0.862 . S
O338 Co306 1.920 . S
O338 C311 1.289 . S
C339 O331 1.258 . S
C339 O332 1.266 . S
Co340 O343 1.970 . S
Co340 N357 1.989 . S
Co340 O365 1.967 . S
Co340 O372 1.920 . S
Co341 O344 1.966 . S
Co341 N350 2.022 . S
Co341 N358 1.993 . S
Co341 O366 1.941 . S
C342 O343 1.258 . S
C342 O344 1.263 . S
O343 Co340 1.970 . S
O343 C342 1.258 . S
O344 Co341 1.966 . S
O344 C342 1.263 . S
C345 O346 1.235 . S
C345 O372 1.289 . S
O346 C345 1.235 . S
C347 C349 1.400 . S
C347 N350 1.351 . S
C347 C352 1.501 . S
C348 C349 1.387 . S
C348 N351 1.341 . S
C349 C347 1.400 . S
C349 C348 1.387 . S
N350 Co341 2.022 . S
N350 C347 1.351 . S
N350 N351 1.365 . S
N351 C348 1.341 . S
N351 N350 1.365 . S
N351 H371 0.862 . S
C352 C347 1.501 . S
C352 H353 0.961 . S
C352 H354 0.961 . S
C352 H355 0.960 . S
H353 C352 0.961 . S
H354 C352 0.961 . S
H355 C352 0.960 . S
C356 N357 1.342 . S
C356 C360 1.401 . S
C356 C361 1.499 . S
N357 Co340 1.989 . S
N357 C356 1.342 . S
N357 N358 1.388 . S
N358 Co341 1.993 . S
N358 N357 1.388 . S
N358 C359 1.346 . S
C359 N358 1.346 . S
C359 C360 1.396 . S
C359 C369 1.510 . S
C360 C356 1.401 . S
C360 C359 1.396 . S
C361 C356 1.499 . S
C361 H362 0.959 . S
C361 H363 0.960 . S
C361 H364 0.961 . S
H362 C361 0.959 . S
H363 C361 0.960 . S
H364 C361 0.961 . S
O365 Co340 1.967 . S
O365 C373 1.258 . S
O366 Co341 1.941 . S
O366 C373 1.266 . S
H367 C369 0.959 . S
H368 C369 0.961 . S
C369 C359 1.510 . S
C369 H367 0.959 . S
C369 H368 0.961 . S
C369 H370 0.960 . S
H370 C369 0.960 . S
H371 N351 0.862 . S
O372 Co340 1.920 . S
O372 C345 1.289 . S
C373 O365 1.258 . S
C373 O366 1.266 . S
Co374 O377 1.970 . S
Co374 N391 1.989 . S
Co374 O399 1.967 . S
Co374 O406 1.920 . S
Co375 O378 1.966 . S
Co375 N384 2.022 . S
Co375 N392 1.993 . S
Co375 O400 1.941 . S
C376 O377 1.258 . S
C376 O378 1.263 . S
O377 Co374 1.970 . S
O377 C376 1.258 . S
O378 Co375 1.966 . S
O378 C376 1.263 . S
C379 O380 1.235 . S
C379 O406 1.289 . S
O380 C379 1.235 . S
C381 C383 1.400 . S
C381 N384 1.351 . S
C381 C386 1.501 . S
C382 C383 1.387 . S
C382 N385 1.341 . S
C383 C381 1.400 . S
C383 C382 1.387 . S
N384 Co375 2.022 . S
N384 C381 1.351 . S
N384 N385 1.365 . S
N385 C382 1.341 . S
N385 N384 1.365 . S
N385 H405 0.862 . S
C386 C381 1.501 . S
C386 H387 0.961 . S
C386 H388 0.961 . S
C386 H389 0.960 . S
H387 C386 0.961 . S
H388 C386 0.961 . S
H389 C386 0.960 . S
C390 N391 1.342 . S
C390 C394 1.401 . S
C390 C395 1.499 . S
N391 Co374 1.989 . S
N391 C390 1.342 . S
N391 N392 1.388 . S
N392 Co375 1.993 . S
N392 N391 1.388 . S
N392 C393 1.346 . S
C393 N392 1.346 . S
C393 C394 1.396 . S
C393 C403 1.510 . S
C394 C390 1.401 . S
C394 C393 1.396 . S
C395 C390 1.499 . S
C395 H396 0.959 . S
C395 H397 0.960 . S
C395 H398 0.961 . S
H396 C395 0.959 . S
H397 C395 0.960 . S
H398 C395 0.961 . S
O399 Co374 1.967 . S
O399 C407 1.258 . S
O400 Co375 1.941 . S
O400 C407 1.266 . S
H401 C403 0.959 . S
H402 C403 0.961 . S
C403 C393 1.510 . S
C403 H401 0.959 . S
C403 H402 0.961 . S
C403 H404 0.960 . S
H404 C403 0.960 . S
H405 N385 0.862 . S
O406 Co374 1.920 . S
O406 C379 1.289 . S
C407 O399 1.258 . S
C407 O400 1.266 . S
Co408 O411 1.970 . S
Co408 N425 1.989 . S
Co408 O433 1.967 . S
Co408 O440 1.920 . S
Co409 O412 1.966 . S
Co409 N418 2.022 . S
Co409 N426 1.993 . S
Co409 O434 1.941 . S
C410 O411 1.258 . S
C410 O412 1.263 . S
O411 Co408 1.970 . S
O411 C410 1.258 . S
O412 Co409 1.966 . S
O412 C410 1.263 . S
C413 O414 1.235 . S
C413 O440 1.289 . S
O414 C413 1.235 . S
C415 C417 1.400 . S
C415 N418 1.351 . S
C415 C420 1.501 . S
C416 C417 1.387 . S
C416 N419 1.341 . S
C417 C415 1.400 . S
C417 C416 1.387 . S
N418 Co409 2.022 . S
N418 C415 1.351 . S
N418 N419 1.365 . S
N419 C416 1.341 . S
N419 N418 1.365 . S
N419 H439 0.862 . S
C420 C415 1.501 . S
C420 H421 0.961 . S
C420 H422 0.961 . S
C420 H423 0.960 . S
H421 C420 0.961 . S
H422 C420 0.961 . S
H423 C420 0.960 . S
C424 N425 1.342 . S
C424 C428 1.401 . S
C424 C429 1.499 . S
N425 Co408 1.989 . S
N425 C424 1.342 . S
N425 N426 1.388 . S
N426 Co409 1.993 . S
N426 N425 1.388 . S
N426 C427 1.346 . S
C427 N426 1.346 . S
C427 C428 1.396 . S
C427 C437 1.510 . S
C428 C424 1.401 . S
C428 C427 1.396 . S
C429 C424 1.499 . S
C429 H430 0.959 . S
C429 H431 0.960 . S
C429 H432 0.961 . S
H430 C429 0.959 . S
H431 C429 0.960 . S
H432 C429 0.961 . S
O433 Co408 1.967 . S
O433 C441 1.258 . S
O434 Co409 1.941 . S
O434 C441 1.266 . S
H435 C437 0.959 . S
H436 C437 0.961 . S
C437 C427 1.510 . S
C437 H435 0.959 . S
C437 H436 0.961 . S
C437 H438 0.960 . S
H438 C437 0.960 . S
H439 N419 0.862 . S
O440 Co408 1.920 . S
O440 C413 1.289 . S
C441 O433 1.258 . S
C441 O434 1.266 . S
Co442 O445 1.970 . S
Co442 N459 1.989 . S
Co442 O467 1.967 . S
Co442 O474 1.920 . S
Co443 O446 1.966 . S
Co443 N452 2.022 . S
Co443 N460 1.993 . S
Co443 O468 1.941 . S
C444 O445 1.258 . S
C444 O446 1.263 . S
O445 Co442 1.970 . S
O445 C444 1.258 . S
O446 Co443 1.966 . S
O446 C444 1.263 . S
C447 O448 1.235 . S
C447 O474 1.289 . S
O448 C447 1.235 . S
C449 C451 1.400 . S
C449 N452 1.351 . S
C449 C454 1.501 . S
C450 C451 1.387 . S
C450 N453 1.341 . S
C451 C449 1.400 . S
C451 C450 1.387 . S
N452 Co443 2.022 . S
N452 C449 1.351 . S
N452 N453 1.365 . S
N453 C450 1.341 . S
N453 N452 1.365 . S
N453 H473 0.862 . S
C454 C449 1.501 . S
C454 H455 0.961 . S
C454 H456 0.961 . S
C454 H457 0.960 . S
H455 C454 0.961 . S
H456 C454 0.961 . S
H457 C454 0.960 . S
C458 N459 1.342 . S
C458 C462 1.401 . S
C458 C463 1.499 . S
N459 Co442 1.989 . S
N459 C458 1.342 . S
N459 N460 1.388 . S
N460 Co443 1.993 . S
N460 N459 1.388 . S
N460 C461 1.346 . S
C461 N460 1.346 . S
C461 C462 1.396 . S
C461 C471 1.510 . S
C462 C458 1.401 . S
C462 C461 1.396 . S
C463 C458 1.499 . S
C463 H464 0.959 . S
C463 H465 0.960 . S
C463 H466 0.961 . S
H464 C463 0.959 . S
H465 C463 0.960 . S
H466 C463 0.961 . S
O467 Co442 1.967 . S
O467 C475 1.258 . S
O468 Co443 1.941 . S
O468 C475 1.266 . S
H469 C471 0.959 . S
H470 C471 0.961 . S
C471 C461 1.510 . S
C471 H469 0.959 . S
C471 H470 0.961 . S
C471 H472 0.960 . S
H472 C471 0.960 . S
H473 N453 0.862 . S
O474 Co442 1.920 . S
O474 C447 1.289 . S
C475 O467 1.258 . S
C475 O468 1.266 . S
Co476 O479 1.970 . S
Co476 N493 1.989 . S
Co476 O501 1.967 . S
Co476 O508 1.920 . S
Co477 O480 1.966 . S
Co477 N486 2.022 . S
Co477 N494 1.993 . S
Co477 O502 1.941 . S
C478 O479 1.258 . S
C478 O480 1.263 . S
O479 Co476 1.970 . S
O479 C478 1.258 . S
O480 Co477 1.966 . S
O480 C478 1.263 . S
C481 O482 1.235 . S
C481 O508 1.289 . S
O482 C481 1.235 . S
C483 C485 1.400 . S
C483 N486 1.351 . S
C483 C488 1.501 . S
C484 C485 1.387 . S
C484 N487 1.341 . S
C485 C483 1.400 . S
C485 C484 1.387 . S
N486 Co477 2.022 . S
N486 C483 1.351 . S
N486 N487 1.365 . S
N487 C484 1.341 . S
N487 N486 1.365 . S
N487 H507 0.862 . S
C488 C483 1.501 . S
C488 H489 0.961 . S
C488 H490 0.961 . S
C488 H491 0.960 . S
H489 C488 0.961 . S
H490 C488 0.961 . S
H491 C488 0.960 . S
C492 N493 1.342 . S
C492 C496 1.401 . S
C492 C497 1.499 . S
N493 Co476 1.989 . S
N493 C492 1.342 . S
N493 N494 1.388 . S
N494 Co477 1.993 . S
N494 N493 1.388 . S
N494 C495 1.346 . S
C495 N494 1.346 . S
C495 C496 1.396 . S
C495 C505 1.510 . S
C496 C492 1.401 . S
C496 C495 1.396 . S
C497 C492 1.499 . S
C497 H498 0.959 . S
C497 H499 0.960 . S
C497 H500 0.961 . S
H498 C497 0.959 . S
H499 C497 0.960 . S
H500 C497 0.961 . S
O501 Co476 1.967 . S
O501 C509 1.258 . S
O502 Co477 1.941 . S
O502 C509 1.266 . S
H503 C505 0.959 . S
H504 C505 0.961 . S
C505 C495 1.510 . S
C505 H503 0.959 . S
C505 H504 0.961 . S
C505 H506 0.960 . S
H506 C505 0.960 . S
H507 N487 0.862 . S
O508 Co476 1.920 . S
O508 C481 1.289 . S
C509 O501 1.258 . S
C509 O502 1.266 . S
Co510 O513 1.970 . S
Co510 N527 1.989 . S
Co510 O535 1.967 . S
Co510 O542 1.920 . S
Co511 O514 1.966 . S
Co511 N520 2.022 . S
Co511 N528 1.993 . S
Co511 O536 1.941 . S
C512 O513 1.258 . S
C512 O514 1.263 . S
O513 Co510 1.970 . S
O513 C512 1.258 . S
O514 Co511 1.966 . S
O514 C512 1.263 . S
C515 O516 1.235 . S
C515 O542 1.289 . S
O516 C515 1.235 . S
C517 C519 1.400 . S
C517 N520 1.351 . S
C517 C522 1.501 . S
C518 C519 1.387 . S
C518 N521 1.341 . S
C519 C517 1.400 . S
C519 C518 1.387 . S
N520 Co511 2.022 . S
N520 C517 1.351 . S
N520 N521 1.365 . S
N521 C518 1.341 . S
N521 N520 1.365 . S
N521 H541 0.862 . S
C522 C517 1.501 . S
C522 H523 0.961 . S
C522 H524 0.961 . S
C522 H525 0.960 . S
H523 C522 0.961 . S
H524 C522 0.961 . S
H525 C522 0.960 . S
C526 N527 1.342 . S
C526 C530 1.401 . S
C526 C531 1.499 . S
N527 Co510 1.989 . S
N527 C526 1.342 . S
N527 N528 1.388 . S
N528 Co511 1.993 . S
N528 N527 1.388 . S
N528 C529 1.346 . S
C529 N528 1.346 . S
C529 C530 1.396 . S
C529 C539 1.510 . S
C530 C526 1.401 . S
C530 C529 1.396 . S
C531 C526 1.499 . S
C531 H532 0.959 . S
C531 H533 0.960 . S
C531 H534 0.961 . S
H532 C531 0.959 . S
H533 C531 0.960 . S
H534 C531 0.961 . S
O535 Co510 1.967 . S
O535 C543 1.258 . S
O536 Co511 1.941 . S
O536 C543 1.266 . S
H537 C539 0.959 . S
H538 C539 0.961 . S
C539 C529 1.510 . S
C539 H537 0.959 . S
C539 H538 0.961 . S
C539 H540 0.960 . S
H540 C539 0.960 . S
H541 N521 0.862 . S
O542 Co510 1.920 . S
O542 C515 1.289 . S
C543 O535 1.258 . S
C543 O536 1.266 . S
Co544 O547 1.970 . S
Co544 N561 1.989 . S
Co544 O569 1.967 . S
Co544 O576 1.920 . S
Co545 O548 1.966 . S
Co545 N554 2.022 . S
Co545 N562 1.993 . S
Co545 O570 1.941 . S
C546 O547 1.258 . S
C546 O548 1.263 . S
O547 Co544 1.970 . S
O547 C546 1.258 . S
O548 Co545 1.966 . S
O548 C546 1.263 . S
C549 O550 1.235 . S
C549 O576 1.289 . S
O550 C549 1.235 . S
C551 C553 1.400 . S
C551 N554 1.351 . S
C551 C556 1.501 . S
C552 C553 1.387 . S
C552 N555 1.341 . S
C553 C551 1.400 . S
C553 C552 1.387 . S
N554 Co545 2.022 . S
N554 C551 1.351 . S
N554 N555 1.365 . S
N555 C552 1.341 . S
N555 N554 1.365 . S
N555 H575 0.862 . S
C556 C551 1.501 . S
C556 H557 0.961 . S
C556 H558 0.961 . S
C556 H559 0.960 . S
H557 C556 0.961 . S
H558 C556 0.961 . S
H559 C556 0.960 . S
C560 N561 1.342 . S
C560 C564 1.401 . S
C560 C565 1.499 . S
N561 Co544 1.989 . S
N561 C560 1.342 . S
N561 N562 1.388 . S
N562 Co545 1.993 . S
N562 N561 1.388 . S
N562 C563 1.346 . S
C563 N562 1.346 . S
C563 C564 1.396 . S
C563 C573 1.510 . S
C564 C560 1.401 . S
C564 C563 1.396 . S
C565 C560 1.499 . S
C565 H566 0.959 . S
C565 H567 0.960 . S
C565 H568 0.961 . S
H566 C565 0.959 . S
H567 C565 0.960 . S
H568 C565 0.961 . S
O569 Co544 1.967 . S
O569 C577 1.258 . S
O570 Co545 1.941 . S
O570 C577 1.266 . S
H571 C573 0.959 . S
H572 C573 0.961 . S
C573 C563 1.510 . S
C573 H571 0.959 . S
C573 H572 0.961 . S
C573 H574 0.960 . S
H574 C573 0.960 . S
H575 N555 0.862 . S
O576 Co544 1.920 . S
O576 C549 1.289 . S
C577 O569 1.258 . S
C577 O570 1.266 . S
Co578 O581 1.970 . S
Co578 N595 1.989 . S
Co578 O603 1.967 . S
Co578 O610 1.920 . S
Co579 O582 1.966 . S
Co579 N588 2.022 . S
Co579 N596 1.993 . S
Co579 O604 1.941 . S
C580 O581 1.258 . S
C580 O582 1.263 . S
O581 Co578 1.970 . S
O581 C580 1.258 . S
O582 Co579 1.966 . S
O582 C580 1.263 . S
C583 O584 1.235 . S
C583 O610 1.289 . S
O584 C583 1.235 . S
C585 C587 1.400 . S
C585 N588 1.351 . S
C585 C590 1.501 . S
C586 C587 1.387 . S
C586 N589 1.341 . S
C587 C585 1.400 . S
C587 C586 1.387 . S
N588 Co579 2.022 . S
N588 C585 1.351 . S
N588 N589 1.365 . S
N589 C586 1.341 . S
N589 N588 1.365 . S
N589 H609 0.862 . S
C590 C585 1.501 . S
C590 H591 0.961 . S
C590 H592 0.961 . S
C590 H593 0.960 . S
H591 C590 0.961 . S
H592 C590 0.961 . S
H593 C590 0.960 . S
C594 N595 1.342 . S
C594 C598 1.401 . S
C594 C599 1.499 . S
N595 Co578 1.989 . S
N595 C594 1.342 . S
N595 N596 1.388 . S
N596 Co579 1.993 . S
N596 N595 1.388 . S
N596 C597 1.346 . S
C597 N596 1.346 . S
C597 C598 1.396 . S
C597 C607 1.510 . S
C598 C594 1.401 . S
C598 C597 1.396 . S
C599 C594 1.499 . S
C599 H600 0.959 . S
C599 H601 0.960 . S
C599 H602 0.961 . S
H600 C599 0.959 . S
H601 C599 0.960 . S
H602 C599 0.961 . S
O603 Co578 1.967 . S
O603 C611 1.258 . S
O604 Co579 1.941 . S
O604 C611 1.266 . S
H605 C607 0.959 . S
H606 C607 0.961 . S
C607 C597 1.510 . S
C607 H605 0.959 . S
C607 H606 0.961 . S
C607 H608 0.960 . S
H608 C607 0.960 . S
H609 N589 0.862 . S
O610 Co578 1.920 . S
O610 C583 1.289 . S
C611 O603 1.258 . S
C611 O604 1.266 . S
Co612 O615 1.970 . S
Co612 N629 1.989 . S
Co612 O637 1.967 . S
Co612 O644 1.920 . S
Co613 O616 1.966 . S
Co613 N622 2.022 . S
Co613 N630 1.993 . S
Co613 O638 1.941 . S
C614 O615 1.258 . S
C614 O616 1.263 . S
O615 Co612 1.970 . S
O615 C614 1.258 . S
O616 Co613 1.966 . S
O616 C614 1.263 . S
C617 O618 1.235 . S
C617 O644 1.289 . S
O618 C617 1.235 . S
C619 C621 1.400 . S
C619 N622 1.351 . S
C619 C624 1.501 . S
C620 C621 1.387 . S
C620 N623 1.341 . S
C621 C619 1.400 . S
C621 C620 1.387 . S
N622 Co613 2.022 . S
N622 C619 1.351 . S
N622 N623 1.365 . S
N623 C620 1.341 . S
N623 N622 1.365 . S
N623 H643 0.862 . S
C624 C619 1.501 . S
C624 H625 0.961 . S
C624 H626 0.961 . S
C624 H627 0.960 . S
H625 C624 0.961 . S
H626 C624 0.961 . S
H627 C624 0.960 . S
C628 N629 1.342 . S
C628 C632 1.401 . S
C628 C633 1.499 . S
N629 Co612 1.989 . S
N629 C628 1.342 . S
N629 N630 1.388 . S
N630 Co613 1.993 . S
N630 N629 1.388 . S
N630 C631 1.346 . S
C631 N630 1.346 . S
C631 C632 1.396 . S
C631 C641 1.510 . S
C632 C628 1.401 . S
C632 C631 1.396 . S
C633 C628 1.499 . S
C633 H634 0.959 . S
C633 H635 0.960 . S
C633 H636 0.961 . S
H634 C633 0.959 . S
H635 C633 0.960 . S
H636 C633 0.961 . S
O637 Co612 1.967 . S
O637 C645 1.258 . S
O638 Co613 1.941 . S
O638 C645 1.266 . S
H639 C641 0.959 . S
H640 C641 0.961 . S
C641 C631 1.510 . S
C641 H639 0.959 . S
C641 H640 0.961 . S
C641 H642 0.960 . S
H642 C641 0.960 . S
H643 N623 0.862 . S
O644 Co612 1.920 . S
O644 C617 1.289 . S
C645 O637 1.258 . S
C645 O638 1.266 . S
Co646 O649 1.970 . S
Co646 N663 1.989 . S
Co646 O671 1.967 . S
Co646 O678 1.920 . S
Co647 O650 1.966 . S
Co647 N656 2.022 . S
Co647 N664 1.993 . S
Co647 O672 1.941 . S
C648 O649 1.258 . S
C648 O650 1.263 . S
O649 Co646 1.970 . S
O649 C648 1.258 . S
O650 Co647 1.966 . S
O650 C648 1.263 . S
C651 O652 1.235 . S
C651 O678 1.289 . S
O652 C651 1.235 . S
C653 C655 1.400 . S
C653 N656 1.351 . S
C653 C658 1.501 . S
C654 C655 1.387 . S
C654 N657 1.341 . S
C655 C653 1.400 . S
C655 C654 1.387 . S
N656 Co647 2.022 . S
N656 C653 1.351 . S
N656 N657 1.365 . S
N657 C654 1.341 . S
N657 N656 1.365 . S
N657 H677 0.862 . S
C658 C653 1.501 . S
C658 H659 0.961 . S
C658 H660 0.961 . S
C658 H661 0.960 . S
H659 C658 0.961 . S
H660 C658 0.961 . S
H661 C658 0.960 . S
C662 N663 1.342 . S
C662 C666 1.401 . S
C662 C667 1.499 . S
N663 Co646 1.989 . S
N663 C662 1.342 . S
N663 N664 1.388 . S
N664 Co647 1.993 . S
N664 N663 1.388 . S
N664 C665 1.346 . S
C665 N664 1.346 . S
C665 C666 1.396 . S
C665 C675 1.510 . S
C666 C662 1.401 . S
C666 C665 1.396 . S
C667 C662 1.499 . S
C667 H668 0.959 . S
C667 H669 0.960 . S
C667 H670 0.961 . S
H668 C667 0.959 . S
H669 C667 0.960 . S
H670 C667 0.961 . S
O671 Co646 1.967 . S
O671 C679 1.258 . S
O672 Co647 1.941 . S
O672 C679 1.266 . S
H673 C675 0.959 . S
H674 C675 0.961 . S
C675 C665 1.510 . S
C675 H673 0.959 . S
C675 H674 0.961 . S
C675 H676 0.960 . S
H676 C675 0.960 . S
H677 N657 0.862 . S
O678 Co646 1.920 . S
O678 C651 1.289 . S
C679 O671 1.258 . S
C679 O672 1.266 . S
Co680 O683 1.970 . S
Co680 N697 1.989 . S
Co680 O705 1.967 . S
Co680 O712 1.920 . S
Co681 O684 1.966 . S
Co681 N690 2.022 . S
Co681 N698 1.993 . S
Co681 O706 1.941 . S
C682 O683 1.258 . S
C682 O684 1.263 . S
O683 Co680 1.970 . S
O683 C682 1.258 . S
O684 Co681 1.966 . S
O684 C682 1.263 . S
C685 O686 1.235 . S
C685 O712 1.289 . S
O686 C685 1.235 . S
C687 C689 1.400 . S
C687 N690 1.351 . S
C687 C692 1.501 . S
C688 C689 1.387 . S
C688 N691 1.341 . S
C689 C687 1.400 . S
C689 C688 1.387 . S
N690 Co681 2.022 . S
N690 C687 1.351 . S
N690 N691 1.365 . S
N691 C688 1.341 . S
N691 N690 1.365 . S
N691 H711 0.862 . S
C692 C687 1.501 . S
C692 H693 0.961 . S
C692 H694 0.961 . S
C692 H695 0.960 . S
H693 C692 0.961 . S
H694 C692 0.961 . S
H695 C692 0.960 . S
C696 N697 1.342 . S
C696 C700 1.401 . S
C696 C701 1.499 . S
N697 Co680 1.989 . S
N697 C696 1.342 . S
N697 N698 1.388 . S
N698 Co681 1.993 . S
N698 N697 1.388 . S
N698 C699 1.346 . S
C699 N698 1.346 . S
C699 C700 1.396 . S
C699 C709 1.510 . S
C700 C696 1.401 . S
C700 C699 1.396 . S
C701 C696 1.499 . S
C701 H702 0.959 . S
C701 H703 0.960 . S
C701 H704 0.961 . S
H702 C701 0.959 . S
H703 C701 0.960 . S
H704 C701 0.961 . S
O705 Co680 1.967 . S
O705 C713 1.258 . S
O706 Co681 1.941 . S
O706 C713 1.266 . S
H707 C709 0.959 . S
H708 C709 0.961 . S
C709 C699 1.510 . S
C709 H707 0.959 . S
C709 H708 0.961 . S
C709 H710 0.960 . S
H710 C709 0.960 . S
H711 N691 0.862 . S
O712 Co680 1.920 . S
O712 C685 1.289 . S
C713 O705 1.258 . S
C713 O706 1.266 . S
Co714 O717 1.970 . S
Co714 N731 1.989 . S
Co714 O739 1.967 . S
Co714 O746 1.920 . S
Co715 O718 1.966 . S
Co715 N724 2.022 . S
Co715 N732 1.993 . S
Co715 O740 1.941 . S
C716 O717 1.258 . S
C716 O718 1.263 . S
O717 Co714 1.970 . S
O717 C716 1.258 . S
O718 Co715 1.966 . S
O718 C716 1.263 . S
C719 O720 1.235 . S
C719 O746 1.289 . S
O720 C719 1.235 . S
C721 C723 1.400 . S
C721 N724 1.351 . S
C721 C726 1.501 . S
C722 C723 1.387 . S
C722 N725 1.341 . S
C723 C721 1.400 . S
C723 C722 1.387 . S
N724 Co715 2.022 . S
N724 C721 1.351 . S
N724 N725 1.365 . S
N725 C722 1.341 . S
N725 N724 1.365 . S
N725 H745 0.862 . S
C726 C721 1.501 . S
C726 H727 0.961 . S
C726 H728 0.961 . S
C726 H729 0.960 . S
H727 C726 0.961 . S
H728 C726 0.961 . S
H729 C726 0.960 . S
C730 N731 1.342 . S
C730 C734 1.401 . S
C730 C735 1.499 . S
N731 Co714 1.989 . S
N731 C730 1.342 . S
N731 N732 1.388 . S
N732 Co715 1.993 . S
N732 N731 1.388 . S
N732 C733 1.346 . S
C733 N732 1.346 . S
C733 C734 1.396 . S
C733 C743 1.510 . S
C734 C730 1.401 . S
C734 C733 1.396 . S
C735 C730 1.499 . S
C735 H736 0.959 . S
C735 H737 0.960 . S
C735 H738 0.961 . S
H736 C735 0.959 . S
H737 C735 0.960 . S
H738 C735 0.961 . S
O739 Co714 1.967 . S
O739 C747 1.258 . S
O740 Co715 1.941 . S
O740 C747 1.266 . S
H741 C743 0.959 . S
H742 C743 0.961 . S
C743 C733 1.510 . S
C743 H741 0.959 . S
C743 H742 0.961 . S
C743 H744 0.960 . S
H744 C743 0.960 . S
H745 N725 0.862 . S
O746 Co714 1.920 . S
O746 C719 1.289 . S
C747 O739 1.258 . S
C747 O740 1.266 . S
Co748 O751 1.970 . S
Co748 N765 1.989 . S
Co748 O773 1.967 . S
Co748 O780 1.920 . S
Co749 O752 1.966 . S
Co749 N758 2.022 . S
Co749 N766 1.993 . S
Co749 O774 1.941 . S
C750 O751 1.258 . S
C750 O752 1.263 . S
O751 Co748 1.970 . S
O751 C750 1.258 . S
O752 Co749 1.966 . S
O752 C750 1.263 . S
C753 O754 1.235 . S
C753 O780 1.289 . S
O754 C753 1.235 . S
C755 C757 1.400 . S
C755 N758 1.351 . S
C755 C760 1.501 . S
C756 C757 1.387 . S
C756 N759 1.341 . S
C757 C755 1.400 . S
C757 C756 1.387 . S
N758 Co749 2.022 . S
N758 C755 1.351 . S
N758 N759 1.365 . S
N759 C756 1.341 . S
N759 N758 1.365 . S
N759 H779 0.862 . S
C760 C755 1.501 . S
C760 H761 0.961 . S
C760 H762 0.961 . S
C760 H763 0.960 . S
H761 C760 0.961 . S
H762 C760 0.961 . S
H763 C760 0.960 . S
C764 N765 1.342 . S
C764 C768 1.401 . S
C764 C769 1.499 . S
N765 Co748 1.989 . S
N765 C764 1.342 . S
N765 N766 1.388 . S
N766 Co749 1.993 . S
N766 N765 1.388 . S
N766 C767 1.346 . S
C767 N766 1.346 . S
C767 C768 1.396 . S
C767 C777 1.510 . S
C768 C764 1.401 . S
C768 C767 1.396 . S
C769 C764 1.499 . S
C769 H770 0.959 . S
C769 H771 0.960 . S
C769 H772 0.961 . S
H770 C769 0.959 . S
H771 C769 0.960 . S
H772 C769 0.961 . S
O773 Co748 1.967 . S
O773 C781 1.258 . S
O774 Co749 1.941 . S
O774 C781 1.266 . S
H775 C777 0.959 . S
H776 C777 0.961 . S
C777 C767 1.510 . S
C777 H775 0.959 . S
C777 H776 0.961 . S
C777 H778 0.960 . S
H778 C777 0.960 . S
H779 N759 0.862 . S
O780 Co748 1.920 . S
O780 C753 1.289 . S
C781 O773 1.258 . S
C781 O774 1.266 . S
Co782 O785 1.970 . S
Co782 N799 1.989 . S
Co782 O807 1.967 . S
Co782 O814 1.920 . S
Co783 O786 1.966 . S
Co783 N792 2.022 . S
Co783 N800 1.993 . S
Co783 O808 1.941 . S
C784 O785 1.258 . S
C784 O786 1.263 . S
O785 Co782 1.970 . S
O785 C784 1.258 . S
O786 Co783 1.966 . S
O786 C784 1.263 . S
C787 O788 1.235 . S
C787 O814 1.289 . S
O788 C787 1.235 . S
C789 C791 1.400 . S
C789 N792 1.351 . S
C789 C794 1.501 . S
C790 C791 1.387 . S
C790 N793 1.341 . S
C791 C789 1.400 . S
C791 C790 1.387 . S
N792 Co783 2.022 . S
N792 C789 1.351 . S
N792 N793 1.365 . S
N793 C790 1.341 . S
N793 N792 1.365 . S
N793 H813 0.862 . S
C794 C789 1.501 . S
C794 H795 0.961 . S
C794 H796 0.961 . S
C794 H797 0.960 . S
H795 C794 0.961 . S
H796 C794 0.961 . S
H797 C794 0.960 . S
C798 N799 1.342 . S
C798 C802 1.401 . S
C798 C803 1.499 . S
N799 Co782 1.989 . S
N799 C798 1.342 . S
N799 N800 1.388 . S
N800 Co783 1.993 . S
N800 N799 1.388 . S
N800 C801 1.346 . S
C801 N800 1.346 . S
C801 C802 1.396 . S
C801 C811 1.510 . S
C802 C798 1.401 . S
C802 C801 1.396 . S
C803 C798 1.499 . S
C803 H804 0.959 . S
C803 H805 0.960 . S
C803 H806 0.961 . S
H804 C803 0.959 . S
H805 C803 0.960 . S
H806 C803 0.961 . S
O807 Co782 1.967 . S
O807 C815 1.258 . S
O808 Co783 1.941 . S
O808 C815 1.266 . S
H809 C811 0.959 . S
H810 C811 0.961 . S
C811 C801 1.510 . S
C811 H809 0.959 . S
C811 H810 0.961 . S
C811 H812 0.960 . S
H812 C811 0.960 . S
H813 N793 0.862 . S
O814 Co782 1.920 . S
O814 C787 1.289 . S
C815 O807 1.258 . S
C815 O808 1.266 . S
H816 C824 0.929 . S
H817 C826 0.930 . S
H818 C828 0.930 . S
H819 C831 0.929 . S
H820 C834 0.930 . S
H821 C836 0.960 . S
H822 C836 0.960 . S
H823 C836 0.960 . S
C824 H816 0.929 . S
C824 C825 1.377 . S
C824 C826 1.384 . S
C825 C824 1.377 . S
C825 C831 1.390 . S
C826 H817 0.930 . S
C826 C824 1.384 . S
C826 C827 1.372 . S
C827 C826 1.372 . S
C827 C828 1.400 . S
C827 C832 1.490 . S
C828 H818 0.930 . S
C828 C827 1.400 . S
C828 C831 1.386 . S
H829 C845 0.930 . S
H830 C846 0.931 . S
C831 H819 0.929 . S
C831 C825 1.390 . S
C831 C828 1.386 . S
C832 C827 1.490 . S
C832 C834 1.395 . S
C832 C835 1.403 . S
H833 C839 0.930 . S
C834 H820 0.930 . S
C834 C832 1.395 . S
C834 C837 1.403 . S
C835 C832 1.403 . S
C835 C836 1.524 . S
C835 C839 1.400 . S
C836 H821 0.960 . S
C836 H822 0.960 . S
C836 H823 0.960 . S
C836 C835 1.524 . S
C837 C834 1.403 . S
C837 C838 1.392 . S
C837 C841 1.495 . S
C838 C837 1.392 . S
C838 C839 1.385 . S
C838 C840 1.478 . S
C839 H833 0.930 . S
C839 C835 1.400 . S
C839 C838 1.385 . S
C840 C838 1.478 . S
C840 C842 1.381 . S
C840 C846 1.383 . S
C841 C837 1.495 . S
C841 H847 0.959 . S
C841 H848 0.961 . S
C841 H849 0.960 . S
C842 C840 1.381 . S
C842 C843 1.394 . S
C842 H850 0.930 . S
C843 C842 1.394 . S
C843 C844 1.383 . S
C843 H851 0.929 . S
C844 C843 1.383 . S
C844 C845 1.377 . S
C845 H829 0.930 . S
C845 C844 1.377 . S
C845 C846 1.379 . S
C846 H830 0.931 . S
C846 C840 1.383 . S
C846 C845 1.379 . S
H847 C841 0.959 . S
H848 C841 0.961 . S
H849 C841 0.960 . S
H850 C842 0.930 . S
H851 C843 0.929 . S
H852 C860 0.929 . S
H853 C862 0.930 . S
H854 C864 0.930 . S
H855 C867 0.929 . S
H856 C870 0.930 . S
H857 C872 0.960 . S
H858 C872 0.960 . S
H859 C872 0.960 . S
C860 H852 0.929 . S
C860 C861 1.377 . S
C860 C862 1.384 . S
C861 C860 1.377 . S
C861 C867 1.390 . S
C862 H853 0.930 . S
C862 C860 1.384 . S
C862 C863 1.372 . S
C863 C862 1.372 . S
C863 C864 1.400 . S
C863 C868 1.490 . S
C864 H854 0.930 . S
C864 C863 1.400 . S
C864 C867 1.386 . S
H865 C881 0.930 . S
H866 C882 0.931 . S
C867 H855 0.929 . S
C867 C861 1.390 . S
C867 C864 1.386 . S
C868 C863 1.490 . S
C868 C870 1.395 . S
C868 C871 1.403 . S
H869 C875 0.930 . S
C870 H856 0.930 . S
C870 C868 1.395 . S
C870 C873 1.403 . S
C871 C868 1.403 . S
C871 C872 1.524 . S
C871 C875 1.400 . S
C872 H857 0.960 . S
C872 H858 0.960 . S
C872 H859 0.960 . S
C872 C871 1.524 . S
C873 C870 1.403 . S
C873 C874 1.392 . S
C873 C877 1.495 . S
C874 C873 1.392 . S
C874 C875 1.385 . S
C874 C876 1.478 . S
C875 H869 0.930 . S
C875 C871 1.400 . S
C875 C874 1.385 . S
C876 C874 1.478 . S
C876 C878 1.381 . S
C876 C882 1.383 . S
C877 C873 1.495 . S
C877 H883 0.959 . S
C877 H884 0.961 . S
C877 H885 0.960 . S
C878 C876 1.381 . S
C878 C879 1.394 . S
C878 H886 0.930 . S
C879 C878 1.394 . S
C879 C880 1.383 . S
C879 H887 0.929 . S
C880 C879 1.383 . S
C880 C881 1.377 . S
C881 H865 0.930 . S
C881 C880 1.377 . S
C881 C882 1.379 . S
C882 H866 0.931 . S
C882 C876 1.383 . S
C882 C881 1.379 . S
H883 C877 0.959 . S
H884 C877 0.961 . S
H885 C877 0.960 . S
H886 C878 0.930 . S
H887 C879 0.929 . S
H888 C896 0.929 . S
H889 C898 0.930 . S
H890 C900 0.930 . S
H891 C903 0.929 . S
H892 C906 0.930 . S
H893 C908 0.960 . S
H894 C908 0.960 . S
H895 C908 0.960 . S
C896 H888 0.929 . S
C896 C897 1.377 . S
C896 C898 1.384 . S
C897 C896 1.377 . S
C897 C903 1.390 . S
C898 H889 0.930 . S
C898 C896 1.384 . S
C898 C899 1.372 . S
C899 C898 1.372 . S
C899 C900 1.400 . S
C899 C904 1.490 . S
C900 H890 0.930 . S
C900 C899 1.400 . S
C900 C903 1.386 . S
H901 C917 0.930 . S
H902 C918 0.931 . S
C903 H891 0.929 . S
C903 C897 1.390 . S
C903 C900 1.386 . S
C904 C899 1.490 . S
C904 C906 1.395 . S
C904 C907 1.403 . S
H905 C911 0.930 . S
C906 H892 0.930 . S
C906 C904 1.395 . S
C906 C909 1.403 . S
C907 C904 1.403 . S
C907 C908 1.524 . S
C907 C911 1.400 . S
C908 H893 0.960 . S
C908 H894 0.960 . S
C908 H895 0.960 . S
C908 C907 1.524 . S
C909 C906 1.403 . S
C909 C910 1.392 . S
C909 C913 1.495 1_556 S
C910 C909 1.392 . S
C910 C911 1.385 . S
C910 C912 1.478 . S
C911 H905 0.930 . S
C911 C907 1.400 . S
C911 C910 1.385 . S
C912 C910 1.478 . S
C912 C914 1.381 1_556 S
C912 C918 1.383 . S
C913 C909 1.495 1_554 S
C913 H919 0.959 . S
C913 H920 0.961 . S
C913 H921 0.960 . S
C914 C912 1.381 1_554 S
C914 C915 1.394 . S
C914 H922 0.930 . S
C915 C914 1.394 . S
C915 C916 1.383 . S
C915 H923 0.929 . S
C916 C915 1.383 . S
C916 C917 1.377 . S
C917 H901 0.930 . S
C917 C916 1.377 . S
C917 C918 1.379 1_554 S
C918 H902 0.931 . S
C918 C912 1.383 . S
C918 C917 1.379 1_556 S
H919 C913 0.959 . S
H920 C913 0.961 . S
H921 C913 0.960 . S
H922 C914 0.930 . S
H923 C915 0.929 . S
H924 C932 0.929 . S
H925 C934 0.930 . S
H926 C936 0.930 . S
H927 C939 0.929 . S
H928 C942 0.930 . S
H929 C944 0.960 . S
H930 C944 0.960 . S
H931 C944 0.960 . S
C932 H924 0.929 . S
C932 C933 1.377 . S
C932 C934 1.384 . S
C933 C932 1.377 . S
C933 C939 1.390 . S
C934 H925 0.930 . S
C934 C932 1.384 . S
C934 C935 1.372 . S
C935 C934 1.372 . S
C935 C936 1.400 . S
C935 C940 1.490 . S
C936 H926 0.930 . S
C936 C935 1.400 . S
C936 C939 1.386 . S
H937 C953 0.930 . S
H938 C954 0.931 . S
C939 H927 0.929 . S
C939 C933 1.390 . S
C939 C936 1.386 . S
C940 C935 1.490 . S
C940 C942 1.395 . S
C940 C943 1.403 . S
H941 C947 0.930 . S
C942 H928 0.930 . S
C942 C940 1.395 . S
C942 C945 1.403 . S
C943 C940 1.403 . S
C943 C944 1.524 . S
C943 C947 1.400 . S
C944 H929 0.960 . S
C944 H930 0.960 . S
C944 H931 0.960 . S
C944 C943 1.524 . S
C945 C942 1.403 . S
C945 C946 1.392 . S
C945 C949 1.495 . S
C946 C945 1.392 . S
C946 C947 1.385 . S
C946 C948 1.478 . S
C947 H941 0.930 . S
C947 C943 1.400 . S
C947 C946 1.385 . S
C948 C946 1.478 . S
C948 C950 1.381 . S
C948 C954 1.383 . S
C949 C945 1.495 . S
C949 H955 0.959 . S
C949 H956 0.961 . S
C949 H957 0.960 . S
C950 C948 1.381 . S
C950 C951 1.394 . S
C950 H958 0.930 . S
C951 C950 1.394 . S
C951 C952 1.383 . S
C951 H959 0.929 . S
C952 C951 1.383 . S
C952 C953 1.377 . S
C953 H937 0.930 . S
C953 C952 1.377 . S
C953 C954 1.379 . S
C954 H938 0.931 . S
C954 C948 1.383 . S
C954 C953 1.379 . S
H955 C949 0.959 . S
H956 C949 0.961 . S
H957 C949 0.960 . S
H958 C950 0.930 . S
H959 C951 0.929 . S
H960 C968 0.929 . S
H961 C970 0.930 . S
H962 C972 0.930 . S
H963 C975 0.929 . S
H964 C978 0.930 . S
H965 C980 0.960 . S
H966 C980 0.960 . S
H967 C980 0.960 . S
C968 H960 0.929 . S
C968 C969 1.377 . S
C968 C970 1.384 . S
C969 C968 1.377 . S
C969 C975 1.390 . S
C970 H961 0.930 . S
C970 C968 1.384 . S
C970 C971 1.372 . S
C971 C970 1.372 . S
C971 C972 1.400 . S
C971 C976 1.490 . S
C972 H962 0.930 . S
C972 C971 1.400 . S
C972 C975 1.386 . S
H973 C989 0.930 . S
H974 C990 0.931 . S
C975 H963 0.929 . S
C975 C969 1.390 . S
C975 C972 1.386 . S
C976 C971 1.490 . S
C976 C978 1.395 . S
C976 C979 1.403 . S
H977 C983 0.930 . S
C978 H964 0.930 . S
C978 C976 1.395 . S
C978 C981 1.403 . S
C979 C976 1.403 . S
C979 C980 1.524 . S
C979 C983 1.400 . S
C980 H965 0.960 . S
C980 H966 0.960 . S
C980 H967 0.960 . S
C980 C979 1.524 . S
C981 C978 1.403 . S
C981 C982 1.392 . S
C981 C985 1.495 . S
C982 C981 1.392 . S
C982 C983 1.385 . S
C982 C984 1.478 . S
C983 H977 0.930 . S
C983 C979 1.400 . S
C983 C982 1.385 . S
C984 C982 1.478 . S
C984 C986 1.381 . S
C984 C990 1.383 . S
C985 C981 1.495 . S
C985 H991 0.959 . S
C985 H992 0.961 . S
C985 H993 0.960 . S
C986 C984 1.381 . S
C986 C987 1.394 . S
C986 H994 0.930 . S
C987 C986 1.394 . S
C987 C988 1.383 . S
C987 H995 0.929 . S
C988 C987 1.383 . S
C988 C989 1.377 . S
C989 H973 0.930 . S
C989 C988 1.377 . S
C989 C990 1.379 . S
C990 H974 0.931 . S
C990 C984 1.383 . S
C990 C989 1.379 . S
H991 C985 0.959 . S
H992 C985 0.961 . S
H993 C985 0.960 . S
H994 C986 0.930 . S
H995 C987 0.929 . S
H996 C1004 0.929 . S
H997 C1006 0.935 . S
H998 C1008 0.930 . S
H999 C1011 0.929 . S
H1000 C1014 0.930 . S
H1001 C1016 0.960 . S
H1002 C1016 0.960 . S
H1003 C1016 0.960 . S
C1004 H996 0.929 . S
C1004 C1005 1.377 . S
C1004 C1006 1.426 . S
C1005 C1004 1.377 . S
C1005 C1011 1.390 1_545 S
C1006 H997 0.935 . S
C1006 C1004 1.426 . S
C1006 C1007 1.328 1_545 S
C1007 C1006 1.328 1_565 S
C1007 C1008 1.400 . S
C1007 C1012 1.490 . S
C1008 H998 0.930 . S
C1008 C1007 1.400 . S
C1008 C1011 1.386 . S
H1009 C1025 0.930 . S
H1010 C1026 0.931 . S
C1011 H999 0.929 . S
C1011 C1005 1.390 1_565 S
C1011 C1008 1.386 . S
C1012 C1007 1.490 . S
C1012 C1014 1.395 . S
C1012 C1015 1.403 . S
H1013 C1019 0.930 . S
C1014 H1000 0.930 . S
C1014 C1012 1.395 . S
C1014 C1017 1.403 . S
C1015 C1012 1.403 . S
C1015 C1016 1.524 . S
C1015 C1019 1.400 . S
C1016 H1001 0.960 . S
C1016 H1002 0.960 . S
C1016 H1003 0.960 . S
C1016 C1015 1.524 . S
C1017 C1014 1.403 . S
C1017 C1018 1.392 . S
C1017 C1021 1.495 . S
C1018 C1017 1.392 . S
C1018 C1019 1.385 . S
C1018 C1020 1.478 . S
C1019 H1013 0.930 . S
C1019 C1015 1.400 . S
C1019 C1018 1.385 . S
C1020 C1018 1.478 . S
C1020 C1022 1.381 . S
C1020 C1026 1.383 . S
C1021 C1017 1.495 . S
C1021 H1027 0.959 . S
C1021 H1028 0.961 . S
C1021 H1029 0.960 . S
C1022 C1020 1.381 . S
C1022 C1023 1.394 . S
C1022 H1030 0.930 . S
C1023 C1022 1.394 . S
C1023 C1024 1.383 . S
C1023 H1031 0.929 . S
C1024 C1023 1.383 . S
C1024 C1025 1.377 . S
C1025 H1009 0.930 . S
C1025 C1024 1.377 . S
C1025 C1026 1.379 . S
C1026 H1010 0.931 . S
C1026 C1020 1.383 . S
C1026 C1025 1.379 . S
H1027 C1021 0.959 . S
H1028 C1021 0.961 . S
H1029 C1021 0.960 . S
H1030 C1022 0.930 . S
H1031 C1023 0.929 . S
H1032 C1040 0.929 . S
H1033 C1042 0.930 . S
H1034 C1044 0.930 . S
H1035 C1047 0.929 . S
H1036 C1050 0.930 . S
H1037 C1052 0.960 . S
H1038 C1052 0.960 . S
H1039 C1052 0.960 . S
C1040 H1032 0.929 . S
C1040 C1041 1.377 . S
C1040 C1042 1.384 . S
C1041 C1040 1.377 . S
C1041 C1047 1.390 . S
C1042 H1033 0.930 . S
C1042 C1040 1.384 . S
C1042 C1043 1.372 . S
C1043 C1042 1.372 . S
C1043 C1044 1.400 . S
C1043 C1048 1.490 . S
C1044 H1034 0.930 . S
C1044 C1043 1.400 . S
C1044 C1047 1.386 . S
H1045 C1061 0.942 . S
H1046 C1062 0.931 . S
C1047 H1035 0.929 . S
C1047 C1041 1.390 . S
C1047 C1044 1.386 . S
C1048 C1043 1.490 . S
C1048 C1050 1.395 . S
C1048 C1051 1.403 . S
H1049 C1055 0.930 . S
C1050 H1036 0.930 . S
C1050 C1048 1.395 . S
C1050 C1053 1.403 . S
C1051 C1048 1.403 . S
C1051 C1052 1.524 . S
C1051 C1055 1.400 . S
C1052 H1037 0.960 . S
C1052 H1038 0.960 . S
C1052 H1039 0.960 . S
C1052 C1051 1.524 . S
C1053 C1050 1.403 . S
C1053 C1054 1.392 . S
C1053 C1057 1.495 1_554 S
C1054 C1053 1.392 . S
C1054 C1055 1.385 . S
C1054 C1056 1.478 . S
C1055 H1049 0.930 . S
C1055 C1051 1.400 . S
C1055 C1054 1.385 . S
C1056 C1054 1.478 . S
C1056 C1058 1.381 1_554 S
C1056 C1062 1.383 . S
C1057 C1053 1.495 1_556 S
C1057 H1063 0.959 . S
C1057 H1064 0.961 . S
C1057 H1065 0.960 . S
C1058 C1056 1.381 1_556 S
C1058 C1059 1.394 . S
C1058 H1066 0.930 . S
C1059 C1058 1.394 . S
C1059 C1060 1.383 . S
C1059 H1067 0.929 . S
C1060 C1059 1.383 . S
C1060 C1061 1.337 1_556 S
C1061 H1045 0.942 . S
C1061 C1060 1.337 1_554 S
C1061 C1062 1.409 . S
C1062 H1046 0.931 . S
C1062 C1056 1.383 . S
C1062 C1061 1.409 . S
H1063 C1057 0.959 . S
H1064 C1057 0.961 . S
H1065 C1057 0.960 . S
H1066 C1058 0.930 . S
H1067 C1059 0.929 . S
H1068 C1076 0.929 . S
H1069 C1078 0.930 . S
H1070 C1080 0.930 . S
H1071 C1083 0.929 . S
H1072 C1086 0.930 . S
H1073 C1088 0.960 . S
H1074 C1088 0.960 . S
H1075 C1088 0.960 . S
C1076 H1068 0.929 . S
C1076 C1077 1.377 . S
C1076 C1078 1.384 1_565 S
C1077 C1076 1.377 . S
C1077 C1083 1.390 . S
C1078 H1069 0.930 . S
C1078 C1076 1.384 1_545 S
C1078 C1079 1.372 . S
C1079 C1078 1.372 . S
C1079 C1080 1.400 . S
C1079 C1084 1.490 . S
C1080 H1070 0.930 . S
C1080 C1079 1.400 . S
C1080 C1083 1.386 1_545 S
H1081 C1097 0.930 . S
H1082 C1098 0.931 . S
C1083 H1071 0.929 . S
C1083 C1077 1.390 . S
C1083 C1080 1.386 1_565 S
C1084 C1079 1.490 . S
C1084 C1086 1.395 . S
C1084 C1087 1.403 . S
H1085 C1091 0.930 . S
C1086 H1072 0.930 . S
C1086 C1084 1.395 . S
C1086 C1089 1.403 . S
C1087 C1084 1.403 . S
C1087 C1088 1.524 . S
C1087 C1091 1.400 . S
C1088 H1073 0.960 . S
C1088 H1074 0.960 . S
C1088 H1075 0.960 . S
C1088 C1087 1.524 . S
C1089 C1086 1.403 . S
C1089 C1090 1.392 . S
C1089 C1093 1.495 . S
C1090 C1089 1.392 . S
C1090 C1091 1.385 . S
C1090 C1092 1.478 . S
C1091 H1085 0.930 . S
C1091 C1087 1.400 . S
C1091 C1090 1.385 . S
C1092 C1090 1.478 . S
C1092 C1094 1.381 . S
C1092 C1098 1.383 . S
C1093 C1089 1.495 . S
C1093 H1099 0.959 . S
C1093 H1100 0.961 . S
C1093 H1101 0.960 . S
C1094 C1092 1.381 . S
C1094 C1095 1.394 . S
C1094 H1102 0.930 . S
C1095 C1094 1.394 . S
C1095 C1096 1.383 . S
C1095 H1103 0.929 . S
C1096 C1095 1.383 . S
C1096 C1097 1.377 . S
C1097 H1081 0.930 . S
C1097 C1096 1.377 . S
C1097 C1098 1.379 . S
C1098 H1082 0.931 . S
C1098 C1092 1.383 . S
C1098 C1097 1.379 . S
H1099 C1093 0.959 . S
H1100 C1093 0.961 . S
H1101 C1093 0.960 . S
H1102 C1094 0.930 . S
H1103 C1095 0.929 . S
H1104 C1112 0.929 . S
H1105 C1114 0.930 . S
H1106 C1116 0.930 . S
H1107 C1119 0.929 . S
H1108 C1122 0.930 . S
H1109 C1124 0.960 . S
H1110 C1124 0.960 . S
H1111 C1124 0.960 . S
C1112 H1104 0.929 . S
C1112 C1113 1.377 . S
C1112 C1114 1.384 . S
C1113 C1112 1.377 . S
C1113 C1119 1.390 . S
C1114 H1105 0.930 . S
C1114 C1112 1.384 . S
C1114 C1115 1.372 . S
C1115 C1114 1.372 . S
C1115 C1116 1.400 . S
C1115 C1120 1.490 . S
C1116 H1106 0.930 . S
C1116 C1115 1.400 . S
C1116 C1119 1.386 . S
H1117 C1133 0.930 . S
H1118 C1134 0.931 . S
C1119 H1107 0.929 . S
C1119 C1113 1.390 . S
C1119 C1116 1.386 . S
C1120 C1115 1.490 . S
C1120 C1122 1.395 . S
C1120 C1123 1.403 . S
H1121 C1127 0.930 . S
C1122 H1108 0.930 . S
C1122 C1120 1.395 . S
C1122 C1125 1.403 . S
C1123 C1120 1.403 . S
C1123 C1124 1.524 . S
C1123 C1127 1.400 . S
C1124 H1109 0.960 . S
C1124 H1110 0.960 . S
C1124 H1111 0.960 . S
C1124 C1123 1.524 . S
C1125 C1122 1.403 . S
C1125 C1126 1.392 . S
C1125 C1129 1.495 . S
C1126 C1125 1.392 . S
C1126 C1127 1.385 . S
C1126 C1128 1.478 . S
C1127 H1121 0.930 . S
C1127 C1123 1.400 . S
C1127 C1126 1.385 . S
C1128 C1126 1.478 . S
C1128 C1130 1.381 . S
C1128 C1134 1.383 . S
C1129 C1125 1.495 . S
C1129 H1135 0.959 . S
C1129 H1136 0.961 . S
C1129 H1137 0.960 . S
C1130 C1128 1.381 . S
C1130 C1131 1.394 . S
C1130 H1138 0.930 . S
C1131 C1130 1.394 . S
C1131 C1132 1.383 . S
C1131 H1139 0.929 . S
C1132 C1131 1.383 . S
C1132 C1133 1.377 . S
C1133 H1117 0.930 . S
C1133 C1132 1.377 . S
C1133 C1134 1.379 . S
C1134 H1118 0.931 . S
C1134 C1128 1.383 . S
C1134 C1133 1.379 . S
H1135 C1129 0.959 . S
H1136 C1129 0.961 . S
H1137 C1129 0.960 . S
H1138 C1130 0.930 . S
H1139 C1131 0.929 . S
H1140 C1148 0.929 . S
H1141 C1150 0.930 . S
H1142 C1152 0.930 . S
H1143 C1155 0.929 . S
H1144 C1158 0.930 . S
H1145 C1160 0.960 . S
H1146 C1160 0.960 . S
H1147 C1160 0.960 . S
C1148 H1140 0.929 . S
C1148 C1149 1.377 . S
C1148 C1150 1.384 . S
C1149 C1148 1.377 . S
C1149 C1155 1.390 . S
C1150 H1141 0.930 . S
C1150 C1148 1.384 . S
C1150 C1151 1.372 . S
C1151 C1150 1.372 . S
C1151 C1152 1.400 . S
C1151 C1156 1.490 . S
C1152 H1142 0.930 . S
C1152 C1151 1.400 . S
C1152 C1155 1.386 . S
H1153 C1169 0.930 . S
H1154 C1170 0.931 . S
C1155 H1143 0.929 . S
C1155 C1149 1.390 . S
C1155 C1152 1.386 . S
C1156 C1151 1.490 . S
C1156 C1158 1.395 . S
C1156 C1159 1.403 . S
H1157 C1163 0.930 . S
C1158 H1144 0.930 . S
C1158 C1156 1.395 . S
C1158 C1161 1.403 . S
C1159 C1156 1.403 . S
C1159 C1160 1.524 . S
C1159 C1163 1.400 . S
C1160 H1145 0.960 . S
C1160 H1146 0.960 . S
C1160 H1147 0.960 . S
C1160 C1159 1.524 . S
C1161 C1158 1.403 . S
C1161 C1162 1.392 . S
C1161 C1165 1.495 . S
C1162 C1161 1.392 . S
C1162 C1163 1.385 . S
C1162 C1164 1.478 . S
C1163 H1157 0.930 . S
C1163 C1159 1.400 . S
C1163 C1162 1.385 . S
C1164 C1162 1.478 . S
C1164 C1166 1.381 . S
C1164 C1170 1.383 . S
C1165 C1161 1.495 . S
C1165 H1171 0.959 . S
C1165 H1172 0.961 . S
C1165 H1173 0.960 . S
C1166 C1164 1.381 . S
C1166 C1167 1.394 . S
C1166 H1174 0.930 . S
C1167 C1166 1.394 . S
C1167 C1168 1.383 . S
C1167 H1175 0.929 . S
C1168 C1167 1.383 . S
C1168 C1169 1.377 . S
C1169 H1153 0.930 . S
C1169 C1168 1.377 . S
C1169 C1170 1.379 . S
C1170 H1154 0.931 . S
C1170 C1164 1.383 . S
C1170 C1169 1.379 . S
H1171 C1165 0.959 . S
H1172 C1165 0.961 . S
H1173 C1165 0.960 . S
H1174 C1166 0.930 . S
H1175 C1167 0.929 . S
H1176 C1184 0.929 . S
H1177 C1186 0.930 . S
H1178 C1188 0.930 . S
H1179 C1191 0.929 . S
H1180 C1194 0.930 . S
H1181 C1196 0.960 . S
H1182 C1196 0.960 . S
H1183 C1196 0.960 . S
C1184 H1176 0.929 . S
C1184 C1185 1.377 . S
C1184 C1186 1.384 . S
C1185 C1184 1.377 . S
C1185 C1191 1.390 . S
C1186 H1177 0.930 . S
C1186 C1184 1.384 . S
C1186 C1187 1.372 . S
C1187 C1186 1.372 . S
C1187 C1188 1.400 . S
C1187 C1192 1.490 . S
C1188 H1178 0.930 . S
C1188 C1187 1.400 . S
C1188 C1191 1.386 . S
H1189 C1205 0.930 . S
H1190 C1206 0.931 . S
C1191 H1179 0.929 . S
C1191 C1185 1.390 . S
C1191 C1188 1.386 . S
C1192 C1187 1.490 . S
C1192 C1194 1.395 . S
C1192 C1195 1.403 . S
H1193 C1199 0.930 . S
C1194 H1180 0.930 . S
C1194 C1192 1.395 . S
C1194 C1197 1.403 . S
C1195 C1192 1.403 . S
C1195 C1196 1.524 . S
C1195 C1199 1.400 . S
C1196 H1181 0.960 . S
C1196 H1182 0.960 . S
C1196 H1183 0.960 . S
C1196 C1195 1.524 . S
C1197 C1194 1.403 . S
C1197 C1198 1.392 . S
C1197 C1201 1.495 . S
C1198 C1197 1.392 . S
C1198 C1199 1.385 . S
C1198 C1200 1.478 . S
C1199 H1193 0.930 . S
C1199 C1195 1.400 . S
C1199 C1198 1.385 . S
C1200 C1198 1.478 . S
C1200 C1202 1.381 . S
C1200 C1206 1.383 1_455 S
C1201 C1197 1.495 . S
C1201 H1207 0.959 . S
C1201 H1208 0.961 . S
C1201 H1209 0.960 . S
C1202 C1200 1.381 . S
C1202 C1203 1.394 . S
C1202 H1210 0.930 . S
C1203 C1202 1.394 . S
C1203 C1204 1.383 1_455 S
C1203 H1211 0.929 . S
C1204 C1203 1.383 1_655 S
C1204 C1205 1.377 . S
C1205 H1189 0.930 . S
C1205 C1204 1.377 . S
C1205 C1206 1.379 . S
C1206 H1190 0.931 . S
C1206 C1200 1.383 1_655 S
C1206 C1205 1.379 . S
H1207 C1201 0.959 . S
H1208 C1201 0.961 . S
H1209 C1201 0.960 . S
H1210 C1202 0.930 . S
H1211 C1203 0.929 . S
H1212 C1220 0.929 . S
H1213 C1222 0.932 . S
H1214 C1224 0.930 . S
H1215 C1227 0.929 . S
H1216 C1230 0.930 . S
H1217 C1232 0.960 . S
H1218 C1232 0.960 . S
H1219 C1232 0.960 . S
C1220 H1212 0.929 . S
C1220 C1221 1.377 . S
C1220 C1222 1.402 . S
C1221 C1220 1.377 . S
C1221 C1227 1.390 1_455 S
C1222 H1213 0.932 . S
C1222 C1220 1.402 . S
C1222 C1223 1.353 1_455 S
C1223 C1222 1.353 1_655 S
C1223 C1224 1.400 . S
C1223 C1228 1.490 . S
C1224 H1214 0.930 . S
C1224 C1223 1.400 . S
C1224 C1227 1.386 . S
H1225 C1241 0.930 . S
H1226 C1242 0.931 . S
C1227 H1215 0.929 . S
C1227 C1221 1.390 1_655 S
C1227 C1224 1.386 . S
C1228 C1223 1.490 . S
C1228 C1230 1.395 . S
C1228 C1231 1.403 . S
H1229 C1235 0.930 . S
C1230 H1216 0.930 . S
C1230 C1228 1.395 . S
C1230 C1233 1.403 . S
C1231 C1228 1.403 . S
C1231 C1232 1.524 . S
C1231 C1235 1.400 . S
C1232 H1217 0.960 . S
C1232 H1218 0.960 . S
C1232 H1219 0.960 . S
C1232 C1231 1.524 . S
C1233 C1230 1.403 . S
C1233 C1234 1.392 . S
C1233 C1237 1.495 . S
C1234 C1233 1.392 . S
C1234 C1235 1.385 . S
C1234 C1236 1.478 . S
C1235 H1229 0.930 . S
C1235 C1231 1.400 . S
C1235 C1234 1.385 . S
C1236 C1234 1.478 . S
C1236 C1238 1.381 . S
C1236 C1242 1.383 . S
C1237 C1233 1.495 . S
C1237 H1243 0.959 . S
C1237 H1244 0.961 . S
C1237 H1245 0.960 . S
C1238 C1236 1.381 . S
C1238 C1239 1.394 . S
C1238 H1246 0.930 . S
C1239 C1238 1.394 . S
C1239 C1240 1.383 . S
C1239 H1247 0.929 . S
C1240 C1239 1.383 . S
C1240 C1241 1.377 . S
C1241 H1225 0.930 . S
C1241 C1240 1.377 . S
C1241 C1242 1.379 . S
C1242 H1226 0.931 . S
C1242 C1236 1.383 . S
C1242 C1241 1.379 . S
H1243 C1237 0.959 . S
H1244 C1237 0.961 . S
H1245 C1237 0.960 . S
H1246 C1238 0.930 . S
H1247 C1239 0.929 . S
H1248 C1256 0.929 . S
H1249 C1258 0.930 . S
H1250 C1260 0.930 . S
H1251 C1263 0.929 . S
H1252 C1266 0.930 . S
H1253 C1268 0.960 . S
H1254 C1268 0.960 . S
H1255 C1268 0.960 1_455 S
C1256 H1248 0.929 . S
C1256 C1257 1.377 1_655 S
C1256 C1258 1.384 . S
C1257 C1256 1.377 1_455 S
C1257 C1263 1.390 . S
C1258 H1249 0.930 . S
C1258 C1256 1.384 . S
C1258 C1259 1.372 . S
C1259 C1258 1.372 . S
C1259 C1260 1.400 1_655 S
C1259 C1264 1.490 . S
C1260 H1250 0.930 . S
C1260 C1259 1.400 1_455 S
C1260 C1263 1.386 . S
H1261 C1277 0.930 . S
H1262 C1278 0.931 . S
C1263 H1251 0.929 . S
C1263 C1257 1.390 . S
C1263 C1260 1.386 . S
C1264 C1259 1.490 . S
C1264 C1266 1.395 . S
C1264 C1267 1.403 . S
H1265 C1271 0.930 . S
C1266 H1252 0.930 . S
C1266 C1264 1.395 . S
C1266 C1269 1.403 . S
C1267 C1264 1.403 . S
C1267 C1268 1.524 . S
C1267 C1271 1.400 . S
C1268 H1253 0.960 . S
C1268 H1254 0.960 . S
C1268 H1255 0.960 1_655 S
C1268 C1267 1.524 . S
C1269 C1266 1.403 . S
C1269 C1270 1.392 . S
C1269 C1273 1.495 . S
C1270 C1269 1.392 . S
C1270 C1271 1.385 . S
C1270 C1272 1.478 . S
C1271 H1265 0.930 . S
C1271 C1267 1.400 . S
C1271 C1270 1.385 . S
C1272 C1270 1.478 . S
C1272 C1274 1.381 . S
C1272 C1278 1.383 . S
C1273 C1269 1.495 . S
C1273 H1279 0.959 . S
C1273 H1280 0.961 . S
C1273 H1281 0.960 . S
C1274 C1272 1.381 . S
C1274 C1275 1.394 . S
C1274 H1282 0.930 . S
C1275 C1274 1.394 . S
C1275 C1276 1.383 . S
C1275 H1283 0.929 . S
C1276 C1275 1.383 . S
C1276 C1277 1.377 . S
C1277 H1261 0.930 . S
C1277 C1276 1.377 . S
C1277 C1278 1.379 . S
C1278 H1262 0.931 . S
C1278 C1272 1.383 . S
C1278 C1277 1.379 . S
H1279 C1273 0.959 . S
H1280 C1273 0.961 . S
H1281 C1273 0.960 . S
H1282 C1274 0.930 . S
H1283 C1275 0.929 . S
H1284 C1292 0.929 . S
H1285 C1294 0.930 . S
H1286 C1296 0.930 . S
H1287 C1299 0.929 . S
H1288 C1302 0.930 . S
H1289 C1304 0.960 . S
H1290 C1304 0.960 . S
H1291 C1304 0.960 . S
C1292 H1284 0.929 . S
C1292 C1293 1.377 . S
C1292 C1294 1.384 . S
C1293 C1292 1.377 . S
C1293 C1299 1.390 . S
C1294 H1285 0.930 . S
C1294 C1292 1.384 . S
C1294 C1295 1.372 . S
C1295 C1294 1.372 . S
C1295 C1296 1.400 . S
C1295 C1300 1.490 . S
C1296 H1286 0.930 . S
C1296 C1295 1.400 . S
C1296 C1299 1.386 . S
H1297 C1313 0.930 . S
H1298 C1314 0.931 . S
C1299 H1287 0.929 . S
C1299 C1293 1.390 . S
C1299 C1296 1.386 . S
C1300 C1295 1.490 . S
C1300 C1302 1.395 . S
C1300 C1303 1.403 . S
H1301 C1307 0.930 . S
C1302 H1288 0.930 . S
C1302 C1300 1.395 . S
C1302 C1305 1.403 . S
C1303 C1300 1.403 . S
C1303 C1304 1.524 . S
C1303 C1307 1.400 . S
C1304 H1289 0.960 . S
C1304 H1290 0.960 . S
C1304 H1291 0.960 . S
C1304 C1303 1.524 . S
C1305 C1302 1.403 . S
C1305 C1306 1.392 . S
C1305 C1309 1.495 . S
C1306 C1305 1.392 . S
C1306 C1307 1.385 . S
C1306 C1308 1.478 . S
C1307 H1301 0.930 . S
C1307 C1303 1.400 . S
C1307 C1306 1.385 . S
C1308 C1306 1.478 . S
C1308 C1310 1.381 . S
C1308 C1314 1.383 . S
C1309 C1305 1.495 . S
C1309 H1315 0.959 . S
C1309 H1316 0.961 . S
C1309 H1317 0.960 . S
C1310 C1308 1.381 . S
C1310 C1311 1.394 . S
C1310 H1318 0.930 . S
C1311 C1310 1.394 . S
C1311 C1312 1.383 . S
C1311 H1319 0.929 . S
C1312 C1311 1.383 . S
C1312 C1313 1.377 . S
C1313 H1297 0.930 . S
C1313 C1312 1.377 . S
C1313 C1314 1.379 . S
C1314 H1298 0.931 . S
C1314 C1308 1.383 . S
C1314 C1313 1.379 . S
H1315 C1309 0.959 . S
H1316 C1309 0.961 . S
H1317 C1309 0.960 . S
H1318 C1310 0.930 . S
H1319 C1311 0.929 . S
H1320 C1328 0.929 . S
H1321 C1330 0.930 . S
H1322 C1332 0.930 . S
H1323 C1335 0.929 . S
H1324 C1338 0.930 . S
H1325 C1340 0.960 . S
H1326 C1340 0.960 . S
H1327 C1340 0.960 . S
C1328 H1320 0.929 . S
C1328 C1329 1.377 . S
C1328 C1330 1.384 . S
C1329 C1328 1.377 . S
C1329 C1335 1.390 . S
C1330 H1321 0.930 . S
C1330 C1328 1.384 . S
C1330 C1331 1.372 . S
C1331 C1330 1.372 . S
C1331 C1332 1.400 . S
C1331 C1336 1.490 . S
C1332 H1322 0.930 . S
C1332 C1331 1.400 . S
C1332 C1335 1.386 . S
H1333 C1349 0.930 . S
H1334 C1350 0.931 . S
C1335 H1323 0.929 . S
C1335 C1329 1.390 . S
C1335 C1332 1.386 . S
C1336 C1331 1.490 . S
C1336 C1338 1.395 . S
C1336 C1339 1.403 . S
H1337 C1343 0.930 . S
C1338 H1324 0.930 . S
C1338 C1336 1.395 . S
C1338 C1341 1.403 . S
C1339 C1336 1.403 . S
C1339 C1340 1.524 . S
C1339 C1343 1.400 . S
C1340 H1325 0.960 . S
C1340 H1326 0.960 . S
C1340 H1327 0.960 . S
C1340 C1339 1.524 . S
C1341 C1338 1.403 . S
C1341 C1342 1.392 . S
C1341 C1345 1.495 . S
C1342 C1341 1.392 . S
C1342 C1343 1.385 . S
C1342 C1344 1.478 . S
C1343 H1337 0.930 . S
C1343 C1339 1.400 . S
C1343 C1342 1.385 . S
C1344 C1342 1.478 . S
C1344 C1346 1.381 . S
C1344 C1350 1.383 . S
C1345 C1341 1.495 . S
C1345 H1351 0.959 . S
C1345 H1352 0.961 . S
C1345 H1353 0.960 . S
C1346 C1344 1.381 . S
C1346 C1347 1.394 . S
C1346 H1354 0.930 . S
C1347 C1346 1.394 . S
C1347 C1348 1.383 . S
C1347 H1355 0.929 . S
C1348 C1347 1.383 . S
C1348 C1349 1.377 . S
C1349 H1333 0.930 . S
C1349 C1348 1.377 . S
C1349 C1350 1.379 . S
C1350 H1334 0.931 . S
C1350 C1344 1.383 . S
C1350 C1349 1.379 . S
H1351 C1345 0.959 . S
H1352 C1345 0.961 . S
H1353 C1345 0.960 . S
H1354 C1346 0.930 . S
H1355 C1347 0.929 . S
H1356 C1364 0.929 . S
H1357 C1366 0.930 . S
H1358 C1368 0.930 . S
H1359 C1371 0.929 . S
H1360 C1374 0.930 . S
H1361 C1376 0.960 . S
H1362 C1376 0.960 . S
H1363 C1376 0.960 . S
C1364 H1356 0.929 . S
C1364 C1365 1.377 . S
C1364 C1366 1.384 . S
C1365 C1364 1.377 . S
C1365 C1371 1.390 1_655 S
C1366 H1357 0.930 . S
C1366 C1364 1.384 . S
C1366 C1367 1.372 1_655 S
C1367 C1366 1.372 1_455 S
C1367 C1368 1.400 . S
C1367 C1372 1.490 . S
C1368 H1358 0.930 . S
C1368 C1367 1.400 . S
C1368 C1371 1.386 . S
H1369 C1385 0.930 . S
H1370 C1386 0.931 . S
C1371 H1359 0.929 . S
C1371 C1365 1.390 1_455 S
C1371 C1368 1.386 . S
C1372 C1367 1.490 . S
C1372 C1374 1.395 . S
C1372 C1375 1.403 . S
H1373 C1379 0.930 . S
C1374 H1360 0.930 . S
C1374 C1372 1.395 . S
C1374 C1377 1.403 . S
C1375 C1372 1.403 . S
C1375 C1376 1.524 . S
C1375 C1379 1.400 . S
C1376 H1361 0.960 . S
C1376 H1362 0.960 . S
C1376 H1363 0.960 . S
C1376 C1375 1.524 . S
C1377 C1374 1.403 . S
C1377 C1378 1.392 . S
C1377 C1381 1.495 . S
C1378 C1377 1.392 . S
C1378 C1379 1.385 . S
C1378 C1380 1.478 . S
C1379 H1373 0.930 . S
C1379 C1375 1.400 . S
C1379 C1378 1.385 . S
C1380 C1378 1.478 . S
C1380 C1382 1.381 . S
C1380 C1386 1.383 . S
C1381 C1377 1.495 . S
C1381 H1387 0.959 . S
C1381 H1388 0.961 . S
C1381 H1389 0.960 . S
C1382 C1380 1.381 . S
C1382 C1383 1.394 . S
C1382 H1390 0.930 . S
C1383 C1382 1.394 . S
C1383 C1384 1.383 . S
C1383 H1391 0.929 . S
C1384 C1383 1.383 . S
C1384 C1385 1.377 . S
C1385 H1369 0.930 . S
C1385 C1384 1.377 . S
C1385 C1386 1.379 . S
C1386 H1370 0.931 . S
C1386 C1380 1.383 . S
C1386 C1385 1.379 . S
H1387 C1381 0.959 . S
H1388 C1381 0.961 . S
H1389 C1381 0.960 . S
H1390 C1382 0.930 . S
H1391 C1383 0.929 . S
H1392 C1400 0.929 . S
H1393 C1402 0.930 . S
H1394 C1404 0.930 . S
H1395 C1407 0.929 . S
H1396 C1410 0.930 . S
H1397 C1412 0.960 . S
H1398 C1412 0.960 . S
H1399 C1412 0.960 . S
C1400 H1392 0.929 . S
C1400 C1401 1.377 . S
C1400 C1402 1.384 . S
C1401 C1400 1.377 . S
C1401 C1407 1.390 . S
C1402 H1393 0.930 . S
C1402 C1400 1.384 . S
C1402 C1403 1.372 . S
C1403 C1402 1.372 . S
C1403 C1404 1.400 . S
C1403 C1408 1.490 . S
C1404 H1394 0.930 . S
C1404 C1403 1.400 . S
C1404 C1407 1.386 . S
H1405 C1421 0.930 . S
H1406 C1422 0.931 . S
C1407 H1395 0.929 . S
C1407 C1401 1.390 . S
C1407 C1404 1.386 . S
C1408 C1403 1.490 . S
C1408 C1410 1.395 . S
C1408 C1411 1.403 . S
H1409 C1415 0.930 . S
C1410 H1396 0.930 . S
C1410 C1408 1.395 . S
C1410 C1413 1.403 . S
C1411 C1408 1.403 . S
C1411 C1412 1.524 . S
C1411 C1415 1.400 . S
C1412 H1397 0.960 . S
C1412 H1398 0.960 . S
C1412 H1399 0.960 . S
C1412 C1411 1.524 . S
C1413 C1410 1.403 . S
C1413 C1414 1.392 . S
C1413 C1417 1.495 . S
C1414 C1413 1.392 . S
C1414 C1415 1.385 . S
C1414 C1416 1.478 . S
C1415 H1409 0.930 . S
C1415 C1411 1.400 . S
C1415 C1414 1.385 . S
C1416 C1414 1.478 . S
C1416 C1418 1.381 . S
C1416 C1422 1.383 . S
C1417 C1413 1.495 . S
C1417 H1423 0.959 . S
C1417 H1424 0.961 . S
C1417 H1425 0.960 . S
C1418 C1416 1.381 . S
C1418 C1419 1.394 . S
C1418 H1426 0.930 . S
C1419 C1418 1.394 . S
C1419 C1420 1.383 . S
C1419 H1427 0.929 . S
C1420 C1419 1.383 . S
C1420 C1421 1.377 . S
C1421 H1405 0.930 . S
C1421 C1420 1.377 . S
C1421 C1422 1.379 . S
C1422 H1406 0.931 . S
C1422 C1416 1.383 . S
C1422 C1421 1.379 . S
H1423 C1417 0.959 . S
H1424 C1417 0.961 . S
H1425 C1417 0.960 . S
H1426 C1418 0.930 . S
H1427 C1419 0.929 . S
H1428 C1436 0.929 . S
H1429 C1438 0.930 . S
H1430 C1440 0.930 . S
H1431 C1443 0.929 . S
H1432 C1446 0.930 . S
H1433 C1448 0.960 . S
H1434 C1448 0.960 . S
H1435 C1448 0.960 . S
C1436 H1428 0.929 . S
C1436 C1437 1.377 . S
C1436 C1438 1.384 . S
C1437 C1436 1.377 . S
C1437 C1443 1.390 . S
C1438 H1429 0.930 . S
C1438 C1436 1.384 . S
C1438 C1439 1.372 . S
C1439 C1438 1.372 . S
C1439 C1440 1.400 . S
C1439 C1444 1.490 . S
C1440 H1430 0.930 . S
C1440 C1439 1.400 . S
C1440 C1443 1.386 . S
H1441 C1457 0.930 . S
H1442 C1458 0.931 . S
C1443 H1431 0.929 . S
C1443 C1437 1.390 . S
C1443 C1440 1.386 . S
C1444 C1439 1.490 . S
C1444 C1446 1.395 . S
C1444 C1447 1.403 . S
H1445 C1451 0.930 . S
C1446 H1432 0.930 . S
C1446 C1444 1.395 . S
C1446 C1449 1.403 . S
C1447 C1444 1.403 . S
C1447 C1448 1.524 . S
C1447 C1451 1.400 . S
C1448 H1433 0.960 . S
C1448 H1434 0.960 . S
C1448 H1435 0.960 . S
C1448 C1447 1.524 . S
C1449 C1446 1.403 . S
C1449 C1450 1.392 . S
C1449 C1453 1.495 . S
C1450 C1449 1.392 . S
C1450 C1451 1.385 . S
C1450 C1452 1.478 . S
C1451 H1445 0.930 . S
C1451 C1447 1.400 . S
C1451 C1450 1.385 . S
C1452 C1450 1.478 . S
C1452 C1454 1.381 . S
C1452 C1458 1.383 1_545 S
C1453 C1449 1.495 . S
C1453 H1459 0.959 . S
C1453 H1460 0.961 . S
C1453 H1461 0.960 . S
C1454 C1452 1.381 . S
C1454 C1455 1.396 . S
C1454 H1462 0.930 . S
C1455 C1454 1.396 . S
C1455 C1456 1.381 1_545 S
C1455 H1463 0.930 . S
C1456 C1455 1.381 1_565 S
C1456 C1457 1.377 . S
C1457 H1441 0.930 . S
C1457 C1456 1.377 . S
C1457 C1458 1.379 . S
C1458 H1442 0.931 . S
C1458 C1452 1.383 1_565 S
C1458 C1457 1.379 . S
H1459 C1453 0.959 . S
H1460 C1453 0.961 . S
H1461 C1453 0.960 . S
H1462 C1454 0.930 . S
H1463 C1455 0.930 . S
H1464 C1472 0.929 . S
H1465 C1474 0.930 . S
H1466 C1476 0.930 . S
H1467 C1479 0.929 . S
H1468 C1482 0.930 . S
H1469 C1484 0.960 . S
H1470 C1484 0.960 . S
H1471 C1484 0.960 . S
C1472 H1464 0.929 . S
C1472 C1473 1.377 . S
C1472 C1474 1.384 . S
C1473 C1472 1.377 . S
C1473 C1479 1.390 . S
C1474 H1465 0.930 . S
C1474 C1472 1.384 . S
C1474 C1475 1.372 . S
C1475 C1474 1.372 . S
C1475 C1476 1.400 . S
C1475 C1480 1.490 . S
C1476 H1466 0.930 . S
C1476 C1475 1.400 . S
C1476 C1479 1.386 . S
H1477 C1493 0.930 . S
H1478 C1494 0.931 . S
C1479 H1467 0.929 . S
C1479 C1473 1.390 . S
C1479 C1476 1.386 . S
C1480 C1475 1.490 . S
C1480 C1482 1.395 . S
C1480 C1483 1.403 . S
H1481 C1487 0.930 . S
C1482 H1468 0.930 . S
C1482 C1480 1.395 . S
C1482 C1485 1.403 . S
C1483 C1480 1.403 . S
C1483 C1484 1.524 . S
C1483 C1487 1.400 . S
C1484 H1469 0.960 . S
C1484 H1470 0.960 . S
C1484 H1471 0.960 . S
C1484 C1483 1.524 . S
C1485 C1482 1.403 . S
C1485 C1486 1.392 . S
C1485 C1489 1.495 . S
C1486 C1485 1.392 . S
C1486 C1487 1.385 . S
C1486 C1488 1.478 . S
C1487 H1481 0.930 . S
C1487 C1483 1.400 . S
C1487 C1486 1.385 . S
C1488 C1486 1.478 . S
C1488 C1490 1.381 . S
C1488 C1494 1.383 . S
C1489 C1485 1.495 . S
C1489 H1495 0.959 . S
C1489 H1496 0.961 . S
C1489 H1497 0.960 . S
C1490 C1488 1.381 . S
C1490 C1491 1.394 . S
C1490 H1498 0.930 . S
C1491 C1490 1.394 . S
C1491 C1492 1.383 . S
C1491 H1499 0.929 . S
C1492 C1491 1.383 . S
C1492 C1493 1.377 . S
C1493 H1477 0.930 . S
C1493 C1492 1.377 . S
C1493 C1494 1.379 . S
C1494 H1478 0.931 . S
C1494 C1488 1.383 . S
C1494 C1493 1.379 . S
H1495 C1489 0.959 . S
H1496 C1489 0.961 . S
H1497 C1489 0.960 . S
H1498 C1490 0.930 . S
H1499 C1491 0.929 . S
H1500 C1508 0.929 . S
H1501 C1510 0.930 . S
H1502 C1512 0.930 . S
H1503 C1515 0.929 . S
H1504 C1518 0.930 . S
H1505 C1520 0.960 . S
H1506 C1520 0.966 . S
H1507 C1520 0.964 . S
C1508 H1500 0.929 . S
C1508 C1509 1.377 . S
C1508 C1510 1.384 1_545 S
C1509 C1508 1.377 . S
C1509 C1515 1.390 . S
C1510 H1501 0.930 . S
C1510 C1508 1.384 1_565 S
C1510 C1511 1.372 . S
C1511 C1510 1.372 . S
C1511 C1512 1.400 . S
C1511 C1516 1.490 . S
C1512 H1502 0.930 . S
C1512 C1511 1.400 . S
C1512 C1515 1.386 1_565 S
H1513 C1529 0.930 . S
H1514 C1530 0.931 . S
C1515 H1503 0.929 . S
C1515 C1509 1.390 . S
C1515 C1512 1.386 1_545 S
C1516 C1511 1.490 . S
C1516 C1518 1.395 . S
C1516 C1519 1.403 . S
H1517 C1523 0.930 . S
C1518 H1504 0.930 . S
C1518 C1516 1.395 . S
C1518 C1521 1.403 . S
C1519 C1516 1.403 . S
C1519 C1520 1.513 1_565 S
C1519 C1523 1.400 . S
C1520 H1505 0.960 . S
C1520 H1506 0.966 . S
C1520 H1507 0.964 . S
C1520 C1519 1.513 1_545 S
C1521 C1518 1.403 . S
C1521 C1522 1.392 . S
C1521 C1525 1.495 . S
C1522 C1521 1.392 . S
C1522 C1523 1.385 . S
C1522 C1524 1.478 . S
C1523 H1517 0.930 . S
C1523 C1519 1.400 . S
C1523 C1522 1.385 . S
C1524 C1522 1.478 . S
C1524 C1526 1.381 . S
C1524 C1530 1.383 . S
C1525 C1521 1.495 . S
C1525 H1531 0.959 . S
C1525 H1532 0.961 . S
C1525 H1533 0.960 . S
C1526 C1524 1.381 . S
C1526 C1527 1.394 . S
C1526 H1534 0.930 . S
C1527 C1526 1.394 . S
C1527 C1528 1.383 . S
C1527 H1535 0.929 . S
C1528 C1527 1.383 . S
C1528 C1529 1.377 . S
C1529 H1513 0.930 . S
C1529 C1528 1.377 . S
C1529 C1530 1.379 . S
C1530 H1514 0.931 . S
C1530 C1524 1.383 . S
C1530 C1529 1.379 . S
H1531 C1525 0.959 . S
H1532 C1525 0.961 . S
H1533 C1525 0.960 . S
H1534 C1526 0.930 . S
H1535 C1527 0.929 . S
H1536 C1544 0.929 . S
H1537 C1546 0.930 . S
H1538 C1548 0.930 . S
H1539 C1551 0.929 . S
H1540 C1554 0.930 . S
H1541 C1556 0.960 . S
H1542 C1556 0.960 . S
H1543 C1556 0.960 . S
C1544 H1536 0.929 . S
C1544 C1545 1.377 . S
C1544 C1546 1.384 . S
C1545 C1544 1.377 . S
C1545 C1551 1.390 . S
C1546 H1537 0.930 . S
C1546 C1544 1.384 . S
C1546 C1547 1.372 . S
C1547 C1546 1.372 . S
C1547 C1548 1.400 . S
C1547 C1552 1.490 . S
C1548 H1538 0.930 . S
C1548 C1547 1.400 . S
C1548 C1551 1.386 . S
H1549 C1565 0.930 . S
H1550 C1566 0.931 . S
C1551 H1539 0.929 . S
C1551 C1545 1.390 . S
C1551 C1548 1.386 . S
C1552 C1547 1.490 . S
C1552 C1554 1.395 . S
C1552 C1555 1.403 . S
H1553 C1559 0.930 . S
C1554 H1540 0.930 . S
C1554 C1552 1.395 . S
C1554 C1557 1.403 . S
C1555 C1552 1.403 . S
C1555 C1556 1.524 . S
C1555 C1559 1.400 . S
C1556 H1541 0.960 . S
C1556 H1542 0.960 . S
C1556 H1543 0.960 . S
C1556 C1555 1.524 . S
C1557 C1554 1.403 . S
C1557 C1558 1.392 . S
C1557 C1561 1.495 . S
C1558 C1557 1.392 . S
C1558 C1559 1.385 . S
C1558 C1560 1.478 . S
C1559 H1553 0.930 . S
C1559 C1555 1.400 . S
C1559 C1558 1.385 . S
C1560 C1558 1.478 . S
C1560 C1562 1.381 . S
C1560 C1566 1.383 . S
C1561 C1557 1.495 . S
C1561 H1567 0.959 . S
C1561 H1568 0.961 . S
C1561 H1569 0.960 . S
C1562 C1560 1.381 . S
C1562 C1563 1.394 1_554 S
C1562 H1570 0.930 . S
C1563 C1562 1.394 1_556 S
C1563 C1564 1.383 . S
C1563 H1571 0.929 . S
C1564 C1563 1.383 . S
C1564 C1565 1.377 . S
C1565 H1549 0.930 . S
C1565 C1564 1.377 . S
C1565 C1566 1.379 1_556 S
C1566 H1550 0.931 . S
C1566 C1560 1.383 . S
C1566 C1565 1.379 1_554 S
H1567 C1561 0.959 . S
H1568 C1561 0.961 . S
H1569 C1561 0.960 . S
H1570 C1562 0.930 . S
H1571 C1563 0.929 . S
H1572 C1580 0.929 . S
H1573 C1582 0.930 . S
H1574 C1584 0.930 . S
H1575 C1587 0.929 . S
H1576 C1590 0.930 . S
H1577 C1592 0.960 . S
H1578 C1592 0.960 . S
H1579 C1592 0.960 . S
C1580 H1572 0.929 . S
C1580 C1581 1.377 . S
C1580 C1582 1.384 . S
C1581 C1580 1.377 . S
C1581 C1587 1.390 . S
C1582 H1573 0.930 . S
C1582 C1580 1.384 . S
C1582 C1583 1.372 . S
C1583 C1582 1.372 . S
C1583 C1584 1.400 . S
C1583 C1588 1.490 . S
C1584 H1574 0.930 . S
C1584 C1583 1.400 . S
C1584 C1587 1.386 . S
H1585 C1601 0.930 . S
H1586 C1602 0.931 . S
C1587 H1575 0.929 . S
C1587 C1581 1.390 . S
C1587 C1584 1.386 . S
C1588 C1583 1.490 . S
C1588 C1590 1.395 . S
C1588 C1591 1.403 . S
H1589 C1595 0.930 . S
C1590 H1576 0.930 . S
C1590 C1588 1.395 . S
C1590 C1593 1.403 . S
C1591 C1588 1.403 . S
C1591 C1592 1.524 . S
C1591 C1595 1.400 . S
C1592 H1577 0.960 . S
C1592 H1578 0.960 . S
C1592 H1579 0.960 . S
C1592 C1591 1.524 . S
C1593 C1590 1.403 . S
C1593 C1594 1.392 . S
C1593 C1597 1.495 . S
C1594 C1593 1.392 . S
C1594 C1595 1.385 . S
C1594 C1596 1.478 . S
C1595 H1589 0.930 . S
C1595 C1591 1.400 . S
C1595 C1594 1.385 . S
C1596 C1594 1.478 . S
C1596 C1598 1.381 . S
C1596 C1602 1.383 . S
C1597 C1593 1.495 . S
C1597 H1603 0.959 . S
C1597 H1604 0.961 . S
C1597 H1605 0.960 . S
C1598 C1596 1.381 . S
C1598 C1599 1.394 . S
C1598 H1606 0.930 . S
C1599 C1598 1.394 . S
C1599 C1600 1.383 . S
C1599 H1607 0.929 . S
C1600 C1599 1.383 . S
C1600 C1601 1.377 . S
C1601 H1585 0.930 . S
C1601 C1600 1.377 . S
C1601 C1602 1.379 . S
C1602 H1586 0.931 . S
C1602 C1596 1.383 . S
C1602 C1601 1.379 . S
H1603 C1597 0.959 . S
H1604 C1597 0.961 . S
H1605 C1597 0.960 . S
H1606 C1598 0.930 . S
H1607 C1599 0.929 . S
H1608 C1616 0.929 . S
H1609 C1618 0.930 . S
H1610 C1620 0.930 . S
H1611 C1623 0.929 . S
H1612 C1626 0.930 . S
H1613 C1628 0.960 . S
H1614 C1628 0.960 . S
H1615 C1628 0.960 . S
C1616 H1608 0.929 . S
C1616 C1617 1.377 . S
C1616 C1618 1.384 . S
C1617 C1616 1.377 . S
C1617 C1623 1.390 . S
C1618 H1609 0.930 . S
C1618 C1616 1.384 . S
C1618 C1619 1.372 . S
C1619 C1618 1.372 . S
C1619 C1620 1.400 . S
C1619 C1624 1.490 . S
C1620 H1610 0.930 . S
C1620 C1619 1.400 . S
C1620 C1623 1.386 . S
H1621 C1637 0.930 . S
H1622 C1638 0.931 . S
C1623 H1611 0.929 . S
C1623 C1617 1.390 . S
C1623 C1620 1.386 . S
C1624 C1619 1.490 . S
C1624 C1626 1.395 . S
C1624 C1627 1.403 . S
H1625 C1631 0.930 . S
C1626 H1612 0.930 . S
C1626 C1624 1.395 . S
C1626 C1629 1.403 . S
C1627 C1624 1.403 . S
C1627 C1628 1.524 . S
C1627 C1631 1.400 . S
C1628 H1613 0.960 . S
C1628 H1614 0.960 . S
C1628 H1615 0.960 . S
C1628 C1627 1.524 . S
C1629 C1626 1.403 . S
C1629 C1630 1.392 . S
C1629 C1633 1.495 . S
C1630 C1629 1.392 . S
C1630 C1631 1.385 . S
C1630 C1632 1.478 . S
C1631 H1625 0.930 . S
C1631 C1627 1.400 . S
C1631 C1630 1.385 . S
C1632 C1630 1.478 . S
C1632 C1634 1.381 . S
C1632 C1638 1.383 . S
C1633 C1629 1.495 . S
C1633 H1639 0.959 . S
C1633 H1640 0.961 . S
C1633 H1641 0.960 . S
C1634 C1632 1.381 . S
C1634 C1635 1.394 . S
C1634 H1642 0.930 . S
C1635 C1634 1.394 . S
C1635 C1636 1.383 . S
C1635 H1643 0.929 . S
C1636 C1635 1.383 . S
C1636 C1637 1.377 . S
C1637 H1621 0.930 . S
C1637 C1636 1.377 . S
C1637 C1638 1.379 . S
C1638 H1622 0.931 . S
C1638 C1632 1.383 . S
C1638 C1637 1.379 . S
H1639 C1633 0.959 . S
H1640 C1633 0.961 . S
H1641 C1633 0.960 . S
H1642 C1634 0.930 . S
H1643 C1635 0.929 . S
H1644 C1652 0.929 . S
H1645 C1654 0.930 . S
H1646 C1656 0.930 . S
H1647 C1659 0.934 . S
H1648 C1662 0.930 . S
H1649 C1664 0.960 . S
H1650 C1664 0.960 . S
H1651 C1664 0.960 . S
C1652 H1644 0.929 . S
C1652 C1653 1.377 . S
C1652 C1654 1.384 1_554 S
C1653 C1652 1.377 . S
C1653 C1659 1.428 . S
C1654 H1645 0.930 . S
C1654 C1652 1.384 1_556 S
C1654 C1655 1.372 . S
C1655 C1654 1.372 . S
C1655 C1656 1.400 . S
C1655 C1660 1.490 . S
C1656 H1646 0.930 . S
C1656 C1655 1.400 . S
C1656 C1659 1.345 1_556 S
H1657 C1673 0.930 . S
H1658 C1674 0.931 . S
C1659 H1647 0.934 . S
C1659 C1653 1.428 . S
C1659 C1656 1.345 1_554 S
C1660 C1655 1.490 . S
C1660 C1662 1.395 . S
C1660 C1663 1.403 . S
H1661 C1667 0.930 . S
C1662 H1648 0.930 . S
C1662 C1660 1.395 . S
C1662 C1665 1.403 . S
C1663 C1660 1.403 . S
C1663 C1664 1.524 . S
C1663 C1667 1.400 . S
C1664 H1649 0.960 . S
C1664 H1650 0.960 . S
C1664 H1651 0.960 . S
C1664 C1663 1.524 . S
C1665 C1662 1.403 . S
C1665 C1666 1.392 . S
C1665 C1669 1.495 . S
C1666 C1665 1.392 . S
C1666 C1667 1.385 . S
C1666 C1668 1.478 . S
C1667 H1661 0.930 . S
C1667 C1663 1.400 . S
C1667 C1666 1.385 . S
C1668 C1666 1.478 . S
C1668 C1670 1.381 . S
C1668 C1674 1.383 . S
C1669 C1665 1.495 . S
C1669 H1675 0.959 . S
C1669 H1676 0.961 . S
C1669 H1677 0.960 . S
C1670 C1668 1.381 . S
C1670 C1671 1.394 . S
C1670 H1678 0.930 . S
C1671 C1670 1.394 . S
C1671 C1672 1.383 . S
C1671 H1679 0.929 . S
C1672 C1671 1.383 . S
C1672 C1673 1.377 . S
C1673 H1657 0.930 . S
C1673 C1672 1.377 . S
C1673 C1674 1.379 . S
C1674 H1658 0.931 . S
C1674 C1668 1.383 . S
C1674 C1673 1.379 . S
H1675 C1669 0.959 . S
H1676 C1669 0.961 . S
H1677 C1669 0.960 . S
H1678 C1670 0.930 . S
H1679 C1671 0.929 . S
H1680 C1688 0.929 . S
H1681 C1690 0.930 . S
H1682 C1692 0.930 . S
H1683 C1695 0.929 . S
H1684 C1698 0.930 . S
H1685 C1700 0.960 . S
H1686 C1700 0.960 . S
H1687 C1700 0.960 . S
C1688 H1680 0.929 . S
C1688 C1689 1.377 . S
C1688 C1690 1.384 . S
C1689 C1688 1.377 . S
C1689 C1695 1.390 . S
C1690 H1681 0.930 . S
C1690 C1688 1.384 . S
C1690 C1691 1.372 . S
C1691 C1690 1.372 . S
C1691 C1692 1.400 . S
C1691 C1696 1.490 . S
C1692 H1682 0.930 . S
C1692 C1691 1.400 . S
C1692 C1695 1.386 . S
H1693 C1709 0.930 . S
H1694 C1710 0.931 . S
C1695 H1683 0.929 . S
C1695 C1689 1.390 . S
C1695 C1692 1.386 . S
C1696 C1691 1.490 . S
C1696 C1698 1.395 . S
C1696 C1699 1.403 . S
H1697 C1703 0.930 . S
C1698 H1684 0.930 . S
C1698 C1696 1.395 . S
C1698 C1701 1.403 . S
C1699 C1696 1.403 . S
C1699 C1700 1.524 . S
C1699 C1703 1.400 . S
C1700 H1685 0.960 . S
C1700 H1686 0.960 . S
C1700 H1687 0.960 . S
C1700 C1699 1.524 . S
C1701 C1698 1.403 . S
C1701 C1702 1.392 . S
C1701 C1705 1.495 . S
C1702 C1701 1.392 . S
C1702 C1703 1.385 . S
C1702 C1704 1.478 . S
C1703 H1697 0.930 . S
C1703 C1699 1.400 . S
C1703 C1702 1.385 . S
C1704 C1702 1.478 . S
C1704 C1706 1.381 . S
C1704 C1710 1.383 . S
C1705 C1701 1.495 . S
C1705 H1711 0.959 . S
C1705 H1712 0.961 . S
C1705 H1713 0.960 . S
C1706 C1704 1.381 . S
C1706 C1707 1.394 . S
C1706 H1714 0.930 . S
C1707 C1706 1.394 . S
C1707 C1708 1.383 . S
C1707 H1715 0.929 . S
C1708 C1707 1.383 . S
C1708 C1709 1.377 . S
C1709 H1693 0.930 . S
C1709 C1708 1.377 . S
C1709 C1710 1.379 . S
C1710 H1694 0.931 . S
C1710 C1704 1.383 . S
C1710 C1709 1.379 . S
H1711 C1705 0.959 . S
H1712 C1705 0.961 . S
H1713 C1705 0.960 . S
H1714 C1706 0.930 . S
H1715 C1707 0.929 . S
H1716 C1724 0.929 . S
H1717 C1726 0.930 . S
H1718 C1728 0.930 . S
H1719 C1731 0.929 . S
H1720 C1734 0.930 . S
H1721 C1736 0.960 . S
H1722 C1736 0.960 . S
H1723 C1736 0.960 . S
C1724 H1716 0.929 . S
C1724 C1725 1.377 . S
C1724 C1726 1.384 . S
C1725 C1724 1.377 . S
C1725 C1731 1.390 . S
C1726 H1717 0.930 . S
C1726 C1724 1.384 . S
C1726 C1727 1.372 . S
C1727 C1726 1.372 . S
C1727 C1728 1.400 . S
C1727 C1732 1.490 . S
C1728 H1718 0.930 . S
C1728 C1727 1.400 . S
C1728 C1731 1.386 . S
H1729 C1745 0.930 . S
H1730 C1746 0.931 . S
C1731 H1719 0.929 . S
C1731 C1725 1.390 . S
C1731 C1728 1.386 . S
C1732 C1727 1.490 . S
C1732 C1734 1.395 . S
C1732 C1735 1.403 . S
H1733 C1739 0.930 1_554 S
C1734 H1720 0.930 . S
C1734 C1732 1.395 . S
C1734 C1737 1.403 . S
C1735 C1732 1.403 . S
C1735 C1736 1.524 . S
C1735 C1739 1.400 . S
C1736 H1721 0.960 . S
C1736 H1722 0.960 . S
C1736 H1723 0.960 . S
C1736 C1735 1.524 . S
C1737 C1734 1.403 . S
C1737 C1738 1.392 . S
C1737 C1741 1.495 . S
C1738 C1737 1.392 . S
C1738 C1739 1.385 . S
C1738 C1740 1.478 1_556 S
C1739 H1733 0.930 1_556 S
C1739 C1735 1.400 . S
C1739 C1738 1.385 . S
C1740 C1738 1.478 1_554 S
C1740 C1742 1.381 . S
C1740 C1746 1.383 . S
C1741 C1737 1.495 . S
C1741 H1747 0.959 . S
C1741 H1748 0.961 . S
C1741 H1749 0.960 . S
C1742 C1740 1.381 . S
C1742 C1743 1.394 . S
C1742 H1750 0.930 . S
C1743 C1742 1.394 . S
C1743 C1744 1.383 . S
C1743 H1751 0.929 . S
C1744 C1743 1.383 . S
C1744 C1745 1.377 . S
C1745 H1729 0.930 . S
C1745 C1744 1.377 . S
C1745 C1746 1.379 . S
C1746 H1730 0.931 . S
C1746 C1740 1.383 . S
C1746 C1745 1.379 . S
H1747 C1741 0.959 . S
H1748 C1741 0.961 . S
H1749 C1741 0.960 . S
H1750 C1742 0.930 . S
H1751 C1743 0.929 . S
H1752 C1760 0.929 . S
H1753 C1762 0.930 . S
H1754 C1764 0.930 . S
H1755 C1767 0.929 . S
H1756 C1770 0.930 . S
H1757 C1772 0.960 . S
H1758 C1772 0.960 . S
H1759 C1772 0.960 . S
C1760 H1752 0.929 . S
C1760 C1761 1.377 . S
C1760 C1762 1.384 . S
C1761 C1760 1.377 . S
C1761 C1767 1.390 . S
C1762 H1753 0.930 . S
C1762 C1760 1.384 . S
C1762 C1763 1.372 . S
C1763 C1762 1.372 . S
C1763 C1764 1.400 . S
C1763 C1768 1.490 . S
C1764 H1754 0.930 . S
C1764 C1763 1.400 . S
C1764 C1767 1.386 . S
H1765 C1781 0.930 . S
H1766 C1782 0.931 . S
C1767 H1755 0.929 . S
C1767 C1761 1.390 . S
C1767 C1764 1.386 . S
C1768 C1763 1.490 . S
C1768 C1770 1.395 . S
C1768 C1771 1.403 . S
H1769 C1775 0.930 . S
C1770 H1756 0.930 . S
C1770 C1768 1.395 . S
C1770 C1773 1.403 . S
C1771 C1768 1.403 . S
C1771 C1772 1.524 . S
C1771 C1775 1.400 . S
C1772 H1757 0.960 . S
C1772 H1758 0.960 . S
C1772 H1759 0.960 . S
C1772 C1771 1.524 . S
C1773 C1770 1.403 . S
C1773 C1774 1.392 . S
C1773 C1777 1.495 . S
C1774 C1773 1.392 . S
C1774 C1775 1.385 . S
C1774 C1776 1.478 . S
C1775 H1769 0.930 . S
C1775 C1771 1.400 . S
C1775 C1774 1.385 . S
C1776 C1774 1.478 . S
C1776 C1778 1.381 . S
C1776 C1782 1.383 . S
C1777 C1773 1.495 . S
C1777 H1783 0.959 . S
C1777 H1784 0.961 . S
C1777 H1785 0.960 . S
C1778 C1776 1.381 . S
C1778 C1779 1.394 . S
C1778 H1786 0.930 . S
C1779 C1778 1.394 . S
C1779 C1780 1.383 . S
C1779 H1787 0.929 . S
C1780 C1779 1.383 . S
C1780 C1781 1.377 . S
C1781 H1765 0.930 . S
C1781 C1780 1.377 . S
C1781 C1782 1.379 . S
C1782 H1766 0.931 . S
C1782 C1776 1.383 . S
C1782 C1781 1.379 . S
H1783 C1777 0.959 . S
H1784 C1777 0.961 . S
H1785 C1777 0.960 . S
H1786 C1778 0.930 . S
H1787 C1779 0.929 . S
H1788 C1796 0.929 . S
H1789 C1798 0.930 . S
H1790 C1800 0.930 . S
H1791 C1803 0.929 . S
H1792 C1806 0.930 . S
H1793 C1808 0.960 . S
H1794 C1808 0.960 . S
H1795 C1808 0.960 . S
C1796 H1788 0.929 . S
C1796 C1797 1.377 . S
C1796 C1798 1.384 . S
C1797 C1796 1.377 . S
C1797 C1803 1.390 . S
C1798 H1789 0.930 . S
C1798 C1796 1.384 . S
C1798 C1799 1.372 . S
C1799 C1798 1.372 . S
C1799 C1800 1.400 . S
C1799 C1804 1.490 . S
C1800 H1790 0.930 . S
C1800 C1799 1.400 . S
C1800 C1803 1.386 . S
H1801 C1817 0.930 . S
H1802 C1818 0.931 . S
C1803 H1791 0.929 . S
C1803 C1797 1.390 . S
C1803 C1800 1.386 . S
C1804 C1799 1.490 . S
C1804 C1806 1.395 . S
C1804 C1807 1.403 . S
H1805 C1811 0.930 . S
C1806 H1792 0.930 . S
C1806 C1804 1.395 . S
C1806 C1809 1.403 . S
C1807 C1804 1.403 . S
C1807 C1808 1.524 1_455 S
C1807 C1811 1.400 1_455 S
C1808 H1793 0.960 . S
C1808 H1794 0.960 . S
C1808 H1795 0.960 . S
C1808 C1807 1.524 1_655 S
C1809 C1806 1.403 . S
C1809 C1810 1.392 . S
C1809 C1813 1.495 . S
C1810 C1809 1.392 . S
C1810 C1811 1.385 1_455 S
C1810 C1812 1.478 1_455 S
C1811 H1805 0.930 . S
C1811 C1807 1.400 1_655 S
C1811 C1810 1.385 1_655 S
C1812 C1810 1.478 1_655 S
C1812 C1814 1.383 . S
C1812 C1818 1.383 . S
C1813 C1809 1.495 . S
C1813 H1819 0.959 . S
C1813 H1820 0.961 . S
C1813 H1821 0.960 . S
C1814 C1812 1.383 . S
C1814 C1815 1.418 . S
C1814 H1822 0.906 1_655 S
C1815 C1814 1.418 . S
C1815 C1816 1.383 . S
C1815 H1823 0.929 . S
C1816 C1815 1.383 . S
C1816 C1817 1.377 . S
C1817 H1801 0.930 . S
C1817 C1816 1.377 . S
C1817 C1818 1.379 . S
C1818 H1802 0.931 . S
C1818 C1812 1.383 . S
C1818 C1817 1.379 . S
H1819 C1813 0.959 . S
H1820 C1813 0.961 . S
H1821 C1813 0.960 . S
H1822 C1814 0.906 1_455 S
H1823 C1815 0.929 . S
H1824 C1832 0.929 . S
H1825 C1834 0.930 . S
H1826 C1836 0.930 . S
H1827 C1839 0.929 . S
H1828 C1842 0.930 . S
H1829 C1844 0.960 . S
H1830 C1844 0.960 . S
H1831 C1844 0.960 . S
C1832 H1824 0.929 . S
C1832 C1833 1.377 . S
C1832 C1834 1.384 . S
C1833 C1832 1.377 . S
C1833 C1839 1.390 . S
C1834 H1825 0.930 . S
C1834 C1832 1.384 . S
C1834 C1835 1.372 . S
C1835 C1834 1.372 . S
C1835 C1836 1.400 . S
C1835 C1840 1.490 . S
C1836 H1826 0.930 . S
C1836 C1835 1.400 . S
C1836 C1839 1.386 . S
H1837 C1853 0.930 . S
H1838 C1854 0.931 . S
C1839 H1827 0.929 . S
C1839 C1833 1.390 . S
C1839 C1836 1.386 . S
C1840 C1835 1.490 . S
C1840 C1842 1.395 . S
C1840 C1843 1.403 . S
H1841 C1847 0.930 . S
C1842 H1828 0.930 . S
C1842 C1840 1.395 . S
C1842 C1845 1.403 . S
C1843 C1840 1.403 . S
C1843 C1844 1.524 . S
C1843 C1847 1.400 . S
C1844 H1829 0.960 . S
C1844 H1830 0.960 . S
C1844 H1831 0.960 . S
C1844 C1843 1.524 . S
C1845 C1842 1.403 . S
C1845 C1846 1.392 . S
C1845 C1849 1.495 . S
C1846 C1845 1.392 . S
C1846 C1847 1.385 . S
C1846 C1848 1.478 . S
C1847 H1841 0.930 . S
C1847 C1843 1.400 . S
C1847 C1846 1.385 . S
C1848 C1846 1.478 . S
C1848 C1850 1.381 . S
C1848 C1854 1.383 . S
C1849 C1845 1.495 . S
C1849 H1855 0.959 . S
C1849 H1856 0.961 . S
C1849 H1857 0.960 . S
C1850 C1848 1.381 . S
C1850 C1851 1.394 . S
C1850 H1858 0.930 . S
C1851 C1850 1.394 . S
C1851 C1852 1.383 . S
C1851 H1859 0.929 . S
C1852 C1851 1.383 . S
C1852 C1853 1.377 . S
C1853 H1837 0.930 . S
C1853 C1852 1.377 . S
C1853 C1854 1.379 . S
C1854 H1838 0.931 . S
C1854 C1848 1.383 . S
C1854 C1853 1.379 . S
H1855 C1849 0.959 . S
H1856 C1849 0.961 . S
H1857 C1849 0.960 . S
H1858 C1850 0.930 . S
H1859 C1851 0.929 . S
H1860 C1868 0.929 . S
H1861 C1870 0.930 . S
H1862 C1872 0.930 . S
H1863 C1875 0.929 . S
H1864 C1878 0.930 . S
H1865 C1880 0.960 . S
H1866 C1880 0.960 . S
H1867 C1880 0.960 . S
C1868 H1860 0.929 . S
C1868 C1869 1.377 . S
C1868 C1870 1.384 . S
C1869 C1868 1.377 . S
C1869 C1875 1.390 . S
C1870 H1861 0.930 . S
C1870 C1868 1.384 . S
C1870 C1871 1.372 . S
C1871 C1870 1.372 . S
C1871 C1872 1.400 . S
C1871 C1876 1.490 . S
C1872 H1862 0.930 . S
C1872 C1871 1.400 . S
C1872 C1875 1.386 . S
H1873 C1889 0.930 . S
H1874 C1890 0.931 . S
C1875 H1863 0.929 . S
C1875 C1869 1.390 . S
C1875 C1872 1.386 . S
C1876 C1871 1.490 . S
C1876 C1878 1.395 . S
C1876 C1879 1.403 . S
H1877 C1883 0.930 . S
C1878 H1864 0.930 . S
C1878 C1876 1.395 . S
C1878 C1881 1.403 . S
C1879 C1876 1.403 . S
C1879 C1880 1.524 . S
C1879 C1883 1.400 . S
C1880 H1865 0.960 . S
C1880 H1866 0.960 . S
C1880 H1867 0.960 . S
C1880 C1879 1.524 . S
C1881 C1878 1.403 . S
C1881 C1882 1.392 . S
C1881 C1885 1.495 . S
C1882 C1881 1.392 . S
C1882 C1883 1.385 . S
C1882 C1884 1.478 . S
C1883 H1877 0.930 . S
C1883 C1879 1.400 . S
C1883 C1882 1.385 . S
C1884 C1882 1.478 . S
C1884 C1886 1.381 . S
C1884 C1890 1.383 . S
C1885 C1881 1.495 . S
C1885 H1891 0.959 . S
C1885 H1892 0.961 . S
C1885 H1893 0.960 . S
C1886 C1884 1.381 . S
C1886 C1887 1.394 . S
C1886 H1894 0.930 . S
C1887 C1886 1.394 . S
C1887 C1888 1.383 . S
C1887 H1895 0.929 . S
C1888 C1887 1.383 . S
C1888 C1889 1.377 . S
C1889 H1873 0.930 . S
C1889 C1888 1.377 . S
C1889 C1890 1.379 . S
C1890 H1874 0.931 . S
C1890 C1884 1.383 . S
C1890 C1889 1.379 . S
H1891 C1885 0.959 . S
H1892 C1885 0.961 . S
H1893 C1885 0.960 . S
H1894 C1886 0.930 . S
H1895 C1887 0.929 . S
H1896 C1904 0.929 . S
H1897 C1906 0.930 . S
H1898 C1908 0.930 . S
H1899 C1911 0.929 . S
H1900 C1914 0.930 . S
H1901 C1916 0.960 . S
H1902 C1916 0.960 . S
H1903 C1916 0.960 . S
C1904 H1896 0.929 . S
C1904 C1905 1.377 . S
C1904 C1906 1.384 . S
C1905 C1904 1.377 . S
C1905 C1911 1.390 . S
C1906 H1897 0.930 . S
C1906 C1904 1.384 . S
C1906 C1907 1.372 . S
C1907 C1906 1.372 . S
C1907 C1908 1.400 . S
C1907 C1912 1.490 . S
C1908 H1898 0.930 . S
C1908 C1907 1.400 . S
C1908 C1911 1.386 . S
H1909 C1925 0.930 . S
H1910 C1926 0.931 . S
C1911 H1899 0.929 . S
C1911 C1905 1.390 . S
C1911 C1908 1.386 . S
C1912 C1907 1.490 . S
C1912 C1914 1.395 . S
C1912 C1915 1.403 . S
H1913 C1919 0.930 . S
C1914 H1900 0.930 . S
C1914 C1912 1.395 . S
C1914 C1917 1.403 . S
C1915 C1912 1.403 . S
C1915 C1916 1.524 . S
C1915 C1919 1.400 . S
C1916 H1901 0.960 . S
C1916 H1902 0.960 . S
C1916 H1903 0.960 . S
C1916 C1915 1.524 . S
C1917 C1914 1.403 . S
C1917 C1918 1.392 . S
C1917 C1921 1.495 . S
C1918 C1917 1.392 . S
C1918 C1919 1.385 . S
C1918 C1920 1.478 . S
C1919 H1913 0.930 . S
C1919 C1915 1.400 . S
C1919 C1918 1.385 . S
C1920 C1918 1.478 . S
C1920 C1922 1.381 . S
C1920 C1926 1.383 . S
C1921 C1917 1.495 . S
C1921 H1927 0.959 . S
C1921 H1928 0.961 . S
C1921 H1929 0.960 . S
C1922 C1920 1.381 . S
C1922 C1923 1.394 . S
C1922 H1930 0.930 . S
C1923 C1922 1.394 . S
C1923 C1924 1.383 . S
C1923 H1931 0.929 . S
C1924 C1923 1.383 . S
C1924 C1925 1.377 . S
C1925 H1909 0.930 . S
C1925 C1924 1.377 . S
C1925 C1926 1.379 . S
C1926 H1910 0.931 . S
C1926 C1920 1.383 . S
C1926 C1925 1.379 . S
H1927 C1921 0.959 . S
H1928 C1921 0.961 . S
H1929 C1921 0.960 . S
H1930 C1922 0.930 . S
H1931 C1923 0.929 . S
H1932 C1940 0.929 . S
H1933 C1942 0.930 1_655 S
H1934 C1944 0.930 . S
H1935 C1947 0.929 . S
H1936 C1950 0.930 1_556 S
H1937 C1952 0.960 . S
H1938 C1952 0.960 . S
H1939 C1952 0.960 . S
C1940 H1932 0.929 . S
C1940 C1941 1.377 . S
C1940 C1942 1.384 . S
C1941 C1940 1.377 . S
C1941 C1947 1.390 . S
C1942 H1933 0.930 1_455 S
C1942 C1940 1.384 . S
C1942 C1943 1.372 . S
C1943 C1942 1.372 . S
C1943 C1944 1.400 . S
C1943 C1948 1.490 1_456 S
C1944 H1934 0.930 . S
C1944 C1943 1.400 . S
C1944 C1947 1.386 . S
H1945 C1961 0.930 . S
H1946 C1962 0.931 . S
C1947 H1935 0.929 . S
C1947 C1941 1.390 . S
C1947 C1944 1.386 . S
C1948 C1943 1.490 1_654 S
C1948 C1950 1.395 . S
C1948 C1951 1.403 1_655 S
H1949 C1955 0.930 . S
C1950 H1936 0.930 1_554 S
C1950 C1948 1.395 . S
C1950 C1953 1.403 . S
C1951 C1948 1.403 1_455 S
C1951 C1952 1.524 . S
C1951 C1955 1.400 1_455 S
C1952 H1937 0.960 . S
C1952 H1938 0.960 . S
C1952 H1939 0.960 . S
C1952 C1951 1.524 . S
C1953 C1950 1.403 . S
C1953 C1954 1.392 . S
C1953 C1957 1.495 . S
C1954 C1953 1.392 . S
C1954 C1955 1.385 . S
C1954 C1956 1.478 . S
C1955 H1949 0.930 . S
C1955 C1951 1.400 1_655 S
C1955 C1954 1.385 . S
C1956 C1954 1.478 . S
C1956 C1958 1.381 . S
C1956 C1962 1.383 . S
C1957 C1953 1.495 . S
C1957 H1963 0.959 . S
C1957 H1964 0.961 . S
C1957 H1965 0.960 . S
C1958 C1956 1.381 . S
C1958 C1959 1.394 . S
C1958 H1966 0.930 . S
C1959 C1958 1.394 . S
C1959 C1960 1.383 . S
C1959 H1967 0.929 . S
C1960 C1959 1.383 . S
C1960 C1961 1.377 . S
C1961 H1945 0.930 . S
C1961 C1960 1.377 . S
C1961 C1962 1.379 . S
C1962 H1946 0.931 . S
C1962 C1956 1.383 . S
C1962 C1961 1.379 . S
H1963 C1957 0.959 . S
H1964 C1957 0.961 . S
H1965 C1957 0.960 . S
H1966 C1958 0.930 . S
H1967 C1959 0.929 . S
H1968 C1976 0.929 . S
H1969 C1978 0.930 . S
H1970 C1980 0.930 . S
H1971 C1983 0.929 . S
H1972 C1986 0.930 . S
H1973 C1988 0.960 . S
H1974 C1988 0.960 . S
H1975 C1988 0.960 . S
C1976 H1968 0.929 . S
C1976 C1977 1.377 . S
C1976 C1978 1.384 . S
C1977 C1976 1.377 . S
C1977 C1983 1.390 . S
C1978 H1969 0.930 . S
C1978 C1976 1.384 . S
C1978 C1979 1.372 . S
C1979 C1978 1.372 . S
C1979 C1980 1.400 . S
C1979 C1984 1.490 . S
C1980 H1970 0.930 . S
C1980 C1979 1.400 . S
C1980 C1983 1.386 . S
H1981 C1997 0.930 . S
H1982 C1998 0.931 . S
C1983 H1971 0.929 . S
C1983 C1977 1.390 . S
C1983 C1980 1.386 . S
C1984 C1979 1.490 . S
C1984 C1986 1.395 . S
C1984 C1987 1.403 . S
H1985 C1991 0.930 . S
C1986 H1972 0.930 . S
C1986 C1984 1.395 . S
C1986 C1989 1.403 . S
C1987 C1984 1.403 . S
C1987 C1988 1.524 . S
C1987 C1991 1.400 . S
C1988 H1973 0.960 . S
C1988 H1974 0.960 . S
C1988 H1975 0.960 . S
C1988 C1987 1.524 . S
C1989 C1986 1.403 . S
C1989 C1990 1.392 . S
C1989 C1993 1.495 . S
C1990 C1989 1.392 . S
C1990 C1991 1.385 . S
C1990 C1992 1.478 . S
C1991 H1985 0.930 . S
C1991 C1987 1.400 . S
C1991 C1990 1.385 . S
C1992 C1990 1.478 . S
C1992 C1994 1.381 . S
C1992 C1998 1.383 . S
C1993 C1989 1.495 . S
C1993 H1999 0.959 . S
C1993 H2000 0.961 . S
C1993 H2001 0.960 . S
C1994 C1992 1.381 . S
C1994 C1995 1.394 . S
C1994 H2002 0.930 . S
C1995 C1994 1.394 . S
C1995 C1996 1.383 . S
C1995 H2003 0.929 . S
C1996 C1995 1.383 . S
C1996 C1997 1.377 . S
C1997 H1981 0.930 . S
C1997 C1996 1.377 . S
C1997 C1998 1.379 . S
C1998 H1982 0.931 . S
C1998 C1992 1.383 . S
C1998 C1997 1.379 . S
H1999 C1993 0.959 . S
H2000 C1993 0.961 . S
H2001 C1993 0.960 . S
H2002 C1994 0.930 . S
H2003 C1995 0.929 . S
H2004 C2012 0.929 . S
H2005 C2014 0.930 . S
H2006 C2016 0.930 1_554 S
H2007 C2019 0.929 . S
H2008 C2022 0.930 . S
H2009 C2024 0.960 . S
H2010 C2024 0.960 . S
H2011 C2024 0.960 . S
C2012 H2004 0.929 . S
C2012 C2013 1.377 . S
C2012 C2014 1.384 . S
C2013 C2012 1.377 . S
C2013 C2019 1.390 . S
C2014 H2005 0.930 . S
C2014 C2012 1.384 . S
C2014 C2015 1.372 . S
C2015 C2014 1.372 . S
C2015 C2016 1.400 . S
C2015 C2020 1.490 1_556 S
C2016 H2006 0.930 1_556 S
C2016 C2015 1.400 . S
C2016 C2019 1.386 . S
H2017 C2033 0.930 . S
H2018 C2034 0.931 . S
C2019 H2007 0.929 . S
C2019 C2013 1.390 . S
C2019 C2016 1.386 . S
C2020 C2015 1.490 1_554 S
C2020 C2022 1.395 . S
C2020 C2023 1.403 . S
H2021 C2027 0.930 . S
C2022 H2008 0.930 . S
C2022 C2020 1.395 . S
C2022 C2025 1.403 . S
C2023 C2020 1.403 . S
C2023 C2024 1.524 1_554 S
C2023 C2027 1.400 . S
C2024 H2009 0.960 . S
C2024 H2010 0.960 . S
C2024 H2011 0.960 . S
C2024 C2023 1.524 1_556 S
C2025 C2022 1.403 . S
C2025 C2026 1.392 . S
C2025 C2029 1.495 . S
C2026 C2025 1.392 . S
C2026 C2027 1.385 . S
C2026 C2028 1.478 . S
C2027 H2021 0.930 . S
C2027 C2023 1.400 . S
C2027 C2026 1.385 . S
C2028 C2026 1.478 . S
C2028 C2030 1.381 . S
C2028 C2034 1.383 . S
C2029 C2025 1.495 . S
C2029 H2035 0.959 . S
C2029 H2036 0.961 . S
C2029 H2037 0.960 . S
C2030 C2028 1.381 . S
C2030 C2031 1.394 . S
C2030 H2038 0.930 . S
C2031 C2030 1.394 . S
C2031 C2032 1.383 . S
C2031 H2039 0.929 . S
C2032 C2031 1.383 . S
C2032 C2033 1.377 . S
C2033 H2017 0.930 . S
C2033 C2032 1.377 . S
C2033 C2034 1.379 . S
C2034 H2018 0.931 . S
C2034 C2028 1.383 . S
C2034 C2033 1.379 . S
H2035 C2029 0.959 . S
H2036 C2029 0.961 . S
H2037 C2029 0.960 . S
H2038 C2030 0.930 . S
H2039 C2031 0.929 . S
H2040 C2048 0.929 . S
H2041 C2050 0.930 . S
H2042 C2052 0.930 . S
H2043 C2055 0.929 . S
H2044 C2058 0.930 . S
H2045 C2060 0.960 . S
H2046 C2060 0.960 . S
H2047 C2060 0.960 . S
C2048 H2040 0.929 . S
C2048 C2049 1.377 . S
C2048 C2050 1.384 . S
C2049 C2048 1.377 . S
C2049 C2055 1.390 . S
C2050 H2041 0.930 . S
C2050 C2048 1.384 . S
C2050 C2051 1.372 . S
C2051 C2050 1.372 . S
C2051 C2052 1.400 . S
C2051 C2056 1.490 . S
C2052 H2042 0.930 . S
C2052 C2051 1.400 . S
C2052 C2055 1.386 . S
H2053 C2069 0.930 . S
H2054 C2070 0.931 . S
C2055 H2043 0.929 . S
C2055 C2049 1.390 . S
C2055 C2052 1.386 . S
C2056 C2051 1.490 . S
C2056 C2058 1.395 . S
C2056 C2059 1.403 . S
H2057 C2063 0.930 . S
C2058 H2044 0.930 . S
C2058 C2056 1.395 . S
C2058 C2061 1.403 . S
C2059 C2056 1.403 . S
C2059 C2060 1.524 . S
C2059 C2063 1.400 . S
C2060 H2045 0.960 . S
C2060 H2046 0.960 . S
C2060 H2047 0.960 . S
C2060 C2059 1.524 . S
C2061 C2058 1.403 . S
C2061 C2062 1.392 . S
C2061 C2065 1.495 . S
C2062 C2061 1.392 . S
C2062 C2063 1.385 . S
C2062 C2064 1.478 . S
C2063 H2057 0.930 . S
C2063 C2059 1.400 . S
C2063 C2062 1.385 . S
C2064 C2062 1.478 . S
C2064 C2066 1.381 . S
C2064 C2070 1.383 . S
C2065 C2061 1.495 . S
C2065 H2071 0.959 . S
C2065 H2072 0.961 . S
C2065 H2073 0.960 . S
C2066 C2064 1.381 . S
C2066 C2067 1.394 . S
C2066 H2074 0.930 . S
C2067 C2066 1.394 . S
C2067 C2068 1.383 . S
C2067 H2075 0.929 . S
C2068 C2067 1.383 . S
C2068 C2069 1.377 . S
C2069 H2053 0.930 . S
C2069 C2068 1.377 . S
C2069 C2070 1.379 . S
C2070 H2054 0.931 . S
C2070 C2064 1.383 . S
C2070 C2069 1.379 . S
H2071 C2065 0.959 . S
H2072 C2065 0.961 . S
H2073 C2065 0.960 . S
H2074 C2066 0.930 . S
H2075 C2067 0.929 . S
H2076 C2084 0.929 . S
H2077 C2086 0.930 . S
H2078 C2088 0.930 . S
H2079 C2091 0.929 . S
H2080 C2094 0.930 . S
H2081 C2096 0.960 . S
H2082 C2096 0.960 . S
H2083 C2096 0.960 . S
C2084 H2076 0.929 . S
C2084 C2085 1.377 . S
C2084 C2086 1.384 . S
C2085 C2084 1.377 . S
C2085 C2091 1.390 . S
C2086 H2077 0.930 . S
C2086 C2084 1.384 . S
C2086 C2087 1.372 . S
C2087 C2086 1.372 . S
C2087 C2088 1.400 . S
C2087 C2092 1.490 . S
C2088 H2078 0.930 . S
C2088 C2087 1.400 . S
C2088 C2091 1.386 . S
H2089 C2105 0.930 . S
H2090 C2106 0.931 . S
C2091 H2079 0.929 . S
C2091 C2085 1.390 . S
C2091 C2088 1.386 . S
C2092 C2087 1.490 . S
C2092 C2094 1.395 . S
C2092 C2095 1.403 . S
H2093 C2099 0.930 . S
C2094 H2080 0.930 . S
C2094 C2092 1.395 . S
C2094 C2097 1.403 . S
C2095 C2092 1.403 . S
C2095 C2096 1.524 . S
C2095 C2099 1.400 . S
C2096 H2081 0.960 . S
C2096 H2082 0.960 . S
C2096 H2083 0.960 . S
C2096 C2095 1.524 . S
C2097 C2094 1.403 . S
C2097 C2098 1.392 . S
C2097 C2101 1.495 . S
C2098 C2097 1.392 . S
C2098 C2099 1.385 . S
C2098 C2100 1.478 . S
C2099 H2093 0.930 . S
C2099 C2095 1.400 . S
C2099 C2098 1.385 . S
C2100 C2098 1.478 . S
C2100 C2102 1.381 . S
C2100 C2106 1.383 . S
C2101 C2097 1.495 . S
C2101 H2107 0.959 . S
C2101 H2108 0.961 . S
C2101 H2109 0.960 . S
C2102 C2100 1.381 . S
C2102 C2103 1.394 . S
C2102 H2110 0.930 . S
C2103 C2102 1.394 . S
C2103 C2104 1.383 . S
C2103 H2111 0.929 . S
C2104 C2103 1.383 . S
C2104 C2105 1.377 . S
C2105 H2089 0.930 . S
C2105 C2104 1.377 . S
C2105 C2106 1.379 . S
C2106 H2090 0.931 . S
C2106 C2100 1.383 . S
C2106 C2105 1.379 . S
H2107 C2101 0.959 . S
H2108 C2101 0.961 . S
H2109 C2101 0.960 . S
H2110 C2102 0.930 . S
H2111 C2103 0.929 . S
H2112 C2120 0.929 . S
H2113 C2122 0.930 . S
H2114 C2124 0.930 . S
H2115 C2127 0.929 . S
H2116 C2130 0.930 . S
H2117 C2132 0.960 . S
H2118 C2132 0.960 . S
H2119 C2132 0.960 . S
C2120 H2112 0.929 . S
C2120 C2121 1.377 . S
C2120 C2122 1.384 . S
C2121 C2120 1.377 . S
C2121 C2127 1.390 . S
C2122 H2113 0.930 . S
C2122 C2120 1.384 . S
C2122 C2123 1.372 . S
C2123 C2122 1.372 . S
C2123 C2124 1.400 . S
C2123 C2128 1.490 . S
C2124 H2114 0.930 . S
C2124 C2123 1.400 . S
C2124 C2127 1.386 . S
H2125 C2141 0.930 . S
H2126 C2142 0.931 . S
C2127 H2115 0.929 . S
C2127 C2121 1.390 . S
C2127 C2124 1.386 . S
C2128 C2123 1.490 . S
C2128 C2130 1.395 . S
C2128 C2131 1.403 . S
H2129 C2135 0.930 . S
C2130 H2116 0.930 . S
C2130 C2128 1.395 . S
C2130 C2133 1.403 . S
C2131 C2128 1.403 . S
C2131 C2132 1.524 . S
C2131 C2135 1.400 . S
C2132 H2117 0.960 . S
C2132 H2118 0.960 . S
C2132 H2119 0.960 . S
C2132 C2131 1.524 . S
C2133 C2130 1.403 . S
C2133 C2134 1.392 . S
C2133 C2137 1.495 . S
C2134 C2133 1.392 . S
C2134 C2135 1.385 . S
C2134 C2136 1.478 . S
C2135 H2129 0.930 . S
C2135 C2131 1.400 . S
C2135 C2134 1.385 . S
C2136 C2134 1.478 . S
C2136 C2138 1.381 . S
C2136 C2142 1.383 . S
C2137 C2133 1.495 . S
C2137 H2143 0.959 . S
C2137 H2144 0.961 . S
C2137 H2145 0.960 . S
C2138 C2136 1.381 . S
C2138 C2139 1.394 . S
C2138 H2146 0.930 . S
C2139 C2138 1.394 . S
C2139 C2140 1.383 . S
C2139 H2147 0.929 . S
C2140 C2139 1.383 . S
C2140 C2141 1.377 . S
C2141 H2125 0.930 . S
C2141 C2140 1.377 . S
C2141 C2142 1.379 . S
C2142 H2126 0.931 . S
C2142 C2136 1.383 . S
C2142 C2141 1.379 . S
H2143 C2137 0.959 . S
H2144 C2137 0.961 . S
H2145 C2137 0.960 . S
H2146 C2138 0.930 . S
H2147 C2139 0.929 . S
H2148 C2156 0.929 . S
H2149 C2158 0.930 . S
H2150 C2160 0.930 . S
H2151 C2163 0.929 . S
H2152 C2166 0.930 . S
H2153 C2168 0.960 . S
H2154 C2168 0.960 . S
H2155 C2168 0.960 . S
C2156 H2148 0.929 . S
C2156 C2157 1.377 . S
C2156 C2158 1.384 . S
C2157 C2156 1.377 . S
C2157 C2163 1.390 . S
C2158 H2149 0.930 . S
C2158 C2156 1.384 . S
C2158 C2159 1.372 . S
C2159 C2158 1.372 . S
C2159 C2160 1.400 . S
C2159 C2164 1.490 . S
C2160 H2150 0.930 . S
C2160 C2159 1.400 . S
C2160 C2163 1.386 . S
H2161 C2177 0.930 . S
H2162 C2178 0.886 1_565 S
C2163 H2151 0.929 . S
C2163 C2157 1.390 . S
C2163 C2160 1.386 . S
C2164 C2159 1.490 . S
C2164 C2166 1.395 . S
C2164 C2167 1.403 . S
H2165 C2171 0.930 . S
C2166 H2152 0.930 . S
C2166 C2164 1.395 . S
C2166 C2169 1.403 . S
C2167 C2164 1.403 . S
C2167 C2168 1.524 . S
C2167 C2171 1.400 . S
C2168 H2153 0.960 . S
C2168 H2154 0.960 . S
C2168 H2155 0.960 . S
C2168 C2167 1.524 . S
C2169 C2166 1.403 . S
C2169 C2170 1.392 . S
C2169 C2173 1.495 . S
C2170 C2169 1.392 . S
C2170 C2171 1.385 . S
C2170 C2172 1.478 1_565 S
C2171 H2165 0.930 . S
C2171 C2167 1.400 . S
C2171 C2170 1.385 . S
C2172 C2170 1.478 1_545 S
C2172 C2174 1.381 . S
C2172 C2178 1.383 . S
C2173 C2169 1.495 . S
C2173 H2179 0.959 . S
C2173 H2180 0.961 1_565 S
C2173 H2181 0.960 1_565 S
C2174 C2172 1.381 . S
C2174 C2175 1.394 . S
C2174 H2182 0.930 . S
C2175 C2174 1.394 . S
C2175 C2176 1.383 . S
C2175 H2183 0.929 . S
C2176 C2175 1.383 . S
C2176 C2177 1.377 . S
C2177 H2161 0.930 . S
C2177 C2176 1.377 . S
C2177 C2178 1.379 . S
C2178 H2162 0.886 1_545 S
C2178 C2172 1.383 . S
C2178 C2177 1.379 . S
H2179 C2173 0.959 . S
H2180 C2173 0.961 1_545 S
H2181 C2173 0.960 1_545 S
H2182 C2174 0.930 . S
H2183 C2175 0.929 . S
H2184 C2192 0.929 . S
H2185 C2194 0.930 . S
H2186 C2196 0.930 . S
H2187 C2199 0.929 . S
H2188 C2202 0.930 . S
H2189 C2204 0.960 . S
H2190 C2204 0.960 . S
H2191 C2204 0.960 . S
C2192 H2184 0.929 . S
C2192 C2193 1.377 . S
C2192 C2194 1.384 . S
C2193 C2192 1.377 . S
C2193 C2199 1.390 . S
C2194 H2185 0.930 . S
C2194 C2192 1.384 . S
C2194 C2195 1.372 . S
C2195 C2194 1.372 . S
C2195 C2196 1.400 . S
C2195 C2200 1.490 . S
C2196 H2186 0.930 . S
C2196 C2195 1.400 . S
C2196 C2199 1.386 . S
H2197 C2213 0.930 . S
H2198 C2214 0.931 . S
C2199 H2187 0.929 . S
C2199 C2193 1.390 . S
C2199 C2196 1.386 . S
C2200 C2195 1.490 . S
C2200 C2202 1.395 . S
C2200 C2203 1.403 . S
H2201 C2207 0.930 . S
C2202 H2188 0.930 . S
C2202 C2200 1.395 . S
C2202 C2205 1.403 . S
C2203 C2200 1.403 . S
C2203 C2204 1.524 . S
C2203 C2207 1.400 . S
C2204 H2189 0.960 . S
C2204 H2190 0.960 . S
C2204 H2191 0.960 . S
C2204 C2203 1.524 . S
C2205 C2202 1.403 . S
C2205 C2206 1.392 . S
C2205 C2209 1.495 . S
C2206 C2205 1.392 . S
C2206 C2207 1.385 . S
C2206 C2208 1.478 . S
C2207 H2201 0.930 . S
C2207 C2203 1.400 . S
C2207 C2206 1.385 . S
C2208 C2206 1.478 . S
C2208 C2210 1.381 . S
C2208 C2214 1.383 . S
C2209 C2205 1.495 . S
C2209 H2215 0.959 . S
C2209 H2216 0.961 . S
C2209 H2217 0.960 . S
C2210 C2208 1.381 . S
C2210 C2211 1.394 . S
C2210 H2218 0.930 . S
C2211 C2210 1.394 . S
C2211 C2212 1.383 . S
C2211 H2219 0.929 . S
C2212 C2211 1.383 . S
C2212 C2213 1.377 . S
C2213 H2197 0.930 . S
C2213 C2212 1.377 . S
C2213 C2214 1.379 . S
C2214 H2198 0.931 . S
C2214 C2208 1.383 . S
C2214 C2213 1.379 . S
H2215 C2209 0.959 . S
H2216 C2209 0.961 . S
H2217 C2209 0.960 . S
H2218 C2210 0.930 . S
H2219 C2211 0.929 . S
H2220 C2228 0.929 1_556 S
H2221 C2230 0.930 . S
H2222 C2232 0.930 1_545 S
H2223 C2235 0.929 . S
H2224 C2238 0.930 . S
H2225 C2240 0.960 . S
H2226 C2240 0.960 . S
H2227 C2240 0.960 1_554 S
C2228 H2220 0.929 1_554 S
C2228 C2229 1.377 . S
C2228 C2230 1.384 1_554 S
C2229 C2228 1.377 . S
C2229 C2235 1.390 . S
C2230 H2221 0.930 . S
C2230 C2228 1.384 1_556 S
C2230 C2231 1.372 1_556 S
C2231 C2230 1.372 1_554 S
C2231 C2232 1.400 . S
C2231 C2236 1.490 1_564 S
C2232 H2222 0.930 1_565 S
C2232 C2231 1.400 . S
C2232 C2235 1.386 . S
H2233 C2249 0.930 . S
H2234 C2250 0.931 . S
C2235 H2223 0.929 . S
C2235 C2229 1.390 . S
C2235 C2232 1.386 . S
C2236 C2231 1.490 1_546 S
C2236 C2238 1.395 . S
C2236 C2239 1.403 . S
H2237 C2243 0.930 . S
C2238 H2224 0.930 . S
C2238 C2236 1.395 . S
C2238 C2241 1.403 . S
C2239 C2236 1.403 . S
C2239 C2240 1.524 . S
C2239 C2243 1.400 . S
C2240 H2225 0.960 . S
C2240 H2226 0.960 . S
C2240 H2227 0.960 1_556 S
C2240 C2239 1.524 . S
C2241 C2238 1.403 . S
C2241 C2242 1.392 . S
C2241 C2245 1.495 . S
C2242 C2241 1.392 . S
C2242 C2243 1.385 . S
C2242 C2244 1.478 . S
C2243 H2237 0.930 . S
C2243 C2239 1.400 . S
C2243 C2242 1.385 . S
C2244 C2242 1.478 . S
C2244 C2246 1.381 . S
C2244 C2250 1.383 . S
C2245 C2241 1.495 . S
C2245 H2251 0.959 . S
C2245 H2252 0.961 . S
C2245 H2253 0.960 . S
C2246 C2244 1.381 . S
C2246 C2247 1.394 . S
C2246 H2254 0.930 . S
C2247 C2246 1.394 . S
C2247 C2248 1.383 . S
C2247 H2255 0.929 . S
C2248 C2247 1.383 . S
C2248 C2249 1.377 . S
C2249 H2233 0.930 . S
C2249 C2248 1.377 . S
C2249 C2250 1.379 . S
C2250 H2234 0.931 . S
C2250 C2244 1.383 . S
C2250 C2249 1.379 . S
H2251 C2245 0.959 . S
H2252 C2245 0.961 . S
H2253 C2245 0.960 . S
H2254 C2246 0.930 . S
H2255 C2247 0.929 . S
H2256 C2264 0.929 . S
H2257 C2266 0.930 . S
H2258 C2268 0.930 . S
H2259 C2271 0.929 . S
H2260 C2274 0.930 . S
H2261 C2276 0.960 . S
H2262 C2276 0.960 . S
H2263 C2276 0.960 . S
C2264 H2256 0.929 . S
C2264 C2265 1.377 . S
C2264 C2266 1.384 . S
C2265 C2264 1.377 . S
C2265 C2271 1.390 . S
C2266 H2257 0.930 . S
C2266 C2264 1.384 . S
C2266 C2267 1.372 . S
C2267 C2266 1.372 . S
C2267 C2268 1.400 . S
C2267 C2272 1.490 . S
C2268 H2258 0.930 . S
C2268 C2267 1.400 . S
C2268 C2271 1.386 . S
H2269 C2285 0.930 . S
H2270 C2286 0.931 . S
C2271 H2259 0.929 . S
C2271 C2265 1.390 . S
C2271 C2268 1.386 . S
C2272 C2267 1.490 . S
C2272 C2274 1.395 . S
C2272 C2275 1.403 . S
H2273 C2279 0.930 . S
C2274 H2260 0.930 . S
C2274 C2272 1.395 . S
C2274 C2277 1.403 . S
C2275 C2272 1.403 . S
C2275 C2276 1.524 . S
C2275 C2279 1.400 . S
C2276 H2261 0.960 . S
C2276 H2262 0.960 . S
C2276 H2263 0.960 . S
C2276 C2275 1.524 . S
C2277 C2274 1.403 . S
C2277 C2278 1.392 . S
C2277 C2281 1.495 . S
C2278 C2277 1.392 . S
C2278 C2279 1.385 . S
C2278 C2280 1.478 . S
C2279 H2273 0.930 . S
C2279 C2275 1.400 . S
C2279 C2278 1.385 . S
C2280 C2278 1.478 . S
C2280 C2282 1.381 . S
C2280 C2286 1.383 . S
C2281 C2277 1.495 . S
C2281 H2287 0.959 . S
C2281 H2288 0.961 . S
C2281 H2289 0.960 . S
C2282 C2280 1.381 . S
C2282 C2283 1.394 . S
C2282 H2290 0.930 . S
C2283 C2282 1.394 . S
C2283 C2284 1.383 . S
C2283 H2291 0.929 . S
C2284 C2283 1.383 . S
C2284 C2285 1.377 . S
C2285 H2269 0.930 . S
C2285 C2284 1.377 . S
C2285 C2286 1.379 . S
C2286 H2270 0.931 . S
C2286 C2280 1.383 . S
C2286 C2285 1.379 . S
H2287 C2281 0.959 . S
H2288 C2281 0.961 . S
H2289 C2281 0.960 . S
H2290 C2282 0.930 . S
H2291 C2283 0.929 . S
H2292 C2300 0.929 . S
H2293 C2302 0.930 . S
H2294 C2304 0.930 . S
H2295 C2307 0.929 . S
H2296 C2310 0.930 . S
H2297 C2312 0.960 . S
H2298 C2312 0.960 . S
H2299 C2312 0.960 . S
C2300 H2292 0.929 . S
C2300 C2301 1.377 . S
C2300 C2302 1.384 . S
C2301 C2300 1.377 . S
C2301 C2307 1.390 . S
C2302 H2293 0.930 . S
C2302 C2300 1.384 . S
C2302 C2303 1.372 . S
C2303 C2302 1.372 . S
C2303 C2304 1.400 . S
C2303 C2308 1.490 . S
C2304 H2294 0.930 . S
C2304 C2303 1.400 . S
C2304 C2307 1.386 . S
H2305 C2321 0.930 . S
H2306 C2322 0.931 . S
C2307 H2295 0.929 . S
C2307 C2301 1.390 . S
C2307 C2304 1.386 . S
C2308 C2303 1.490 . S
C2308 C2310 1.395 . S
C2308 C2311 1.403 . S
H2309 C2315 0.930 . S
C2310 H2296 0.930 . S
C2310 C2308 1.395 . S
C2310 C2313 1.403 . S
C2311 C2308 1.403 . S
C2311 C2312 1.524 . S
C2311 C2315 1.400 . S
C2312 H2297 0.960 . S
C2312 H2298 0.960 . S
C2312 H2299 0.960 . S
C2312 C2311 1.524 . S
C2313 C2310 1.403 . S
C2313 C2314 1.392 . S
C2313 C2317 1.495 . S
C2314 C2313 1.392 . S
C2314 C2315 1.385 . S
C2314 C2316 1.478 . S
C2315 H2309 0.930 . S
C2315 C2311 1.400 . S
C2315 C2314 1.385 . S
C2316 C2314 1.478 . S
C2316 C2318 1.381 . S
C2316 C2322 1.383 . S
C2317 C2313 1.495 . S
C2317 H2323 0.959 . S
C2317 H2324 0.961 . S
C2317 H2325 0.960 . S
C2318 C2316 1.381 . S
C2318 C2319 1.394 . S
C2318 H2326 0.930 . S
C2319 C2318 1.394 . S
C2319 C2320 1.383 . S
C2319 H2327 0.929 . S
C2320 C2319 1.383 . S
C2320 C2321 1.377 . S
C2321 H2305 0.930 . S
C2321 C2320 1.377 . S
C2321 C2322 1.379 . S
C2322 H2306 0.931 . S
C2322 C2316 1.383 . S
C2322 C2321 1.379 . S
H2323 C2317 0.959 . S
H2324 C2317 0.961 . S
H2325 C2317 0.960 . S
H2326 C2318 0.930 . S
H2327 C2319 0.929 . S
H2328 C2336 0.929 . S
H2329 C2338 0.930 . S
H2330 C2340 0.930 . S
H2331 C2343 0.929 . S
H2332 C2346 0.930 1_565 S
H2333 C2348 0.960 . S
H2334 C2348 0.960 . S
H2335 C2348 0.960 . S
C2336 H2328 0.929 . S
C2336 C2337 1.377 . S
C2336 C2338 1.384 . S
C2337 C2336 1.377 . S
C2337 C2343 1.390 . S
C2338 H2329 0.930 . S
C2338 C2336 1.384 . S
C2338 C2339 1.372 . S
C2339 C2338 1.372 . S
C2339 C2340 1.400 . S
C2339 C2344 1.490 . S
C2340 H2330 0.930 . S
C2340 C2339 1.400 . S
C2340 C2343 1.386 . S
H2341 C2357 0.930 . S
H2342 C2358 0.931 1_545 S
C2343 H2331 0.929 . S
C2343 C2337 1.390 . S
C2343 C2340 1.386 . S
C2344 C2339 1.490 . S
C2344 C2346 1.395 . S
C2344 C2347 1.403 . S
H2345 C2351 0.930 . S
C2346 H2332 0.930 1_545 S
C2346 C2344 1.395 . S
C2346 C2349 1.403 1_545 S
C2347 C2344 1.403 . S
C2347 C2348 1.524 . S
C2347 C2351 1.400 . S
C2348 H2333 0.960 . S
C2348 H2334 0.960 . S
C2348 H2335 0.960 . S
C2348 C2347 1.524 . S
C2349 C2346 1.403 1_565 S
C2349 C2350 1.392 1_565 S
C2349 C2353 1.495 . S
C2350 C2349 1.392 1_545 S
C2350 C2351 1.385 . S
C2350 C2352 1.478 1_545 S
C2351 H2345 0.930 . S
C2351 C2347 1.400 . S
C2351 C2350 1.385 . S
C2352 C2350 1.478 1_565 S
C2352 C2354 1.381 . S
C2352 C2358 1.383 . S
C2353 C2349 1.495 . S
C2353 H2359 0.959 . S
C2353 H2360 0.961 . S
C2353 H2361 0.960 . S
C2354 C2352 1.381 . S
C2354 C2355 1.394 . S
C2354 H2362 0.930 . S
C2355 C2354 1.394 . S
C2355 C2356 1.383 . S
C2355 H2363 0.929 . S
C2356 C2355 1.383 . S
C2356 C2357 1.377 . S
C2357 H2341 0.930 . S
C2357 C2356 1.377 . S
C2357 C2358 1.379 . S
C2358 H2342 0.931 1_565 S
C2358 C2352 1.383 . S
C2358 C2357 1.379 . S
H2359 C2353 0.959 . S
H2360 C2353 0.961 . S
H2361 C2353 0.960 . S
H2362 C2354 0.930 . S
H2363 C2355 0.929 . S
H2364 C2372 0.929 . S
H2365 C2374 0.930 . S
H2366 C2376 0.930 . S
H2367 C2379 0.929 . S
H2368 C2382 0.930 . S
H2369 C2384 0.960 . S
H2370 C2384 0.960 . S
H2371 C2384 0.960 . S
C2372 H2364 0.929 . S
C2372 C2373 1.377 . S
C2372 C2374 1.384 . S
C2373 C2372 1.377 . S
C2373 C2379 1.390 . S
C2374 H2365 0.930 . S
C2374 C2372 1.384 . S
C2374 C2375 1.372 . S
C2375 C2374 1.372 . S
C2375 C2376 1.400 . S
C2375 C2380 1.490 . S
C2376 H2366 0.930 . S
C2376 C2375 1.400 . S
C2376 C2379 1.386 . S
H2377 C2393 0.930 . S
H2378 C2394 0.931 . S
C2379 H2367 0.929 . S
C2379 C2373 1.390 . S
C2379 C2376 1.386 . S
C2380 C2375 1.490 . S
C2380 C2382 1.395 . S
C2380 C2383 1.403 . S
H2381 C2387 0.930 . S
C2382 H2368 0.930 . S
C2382 C2380 1.395 . S
C2382 C2385 1.403 . S
C2383 C2380 1.403 . S
C2383 C2384 1.524 . S
C2383 C2387 1.400 . S
C2384 H2369 0.960 . S
C2384 H2370 0.960 . S
C2384 H2371 0.960 . S
C2384 C2383 1.524 . S
C2385 C2382 1.403 . S
C2385 C2386 1.392 . S
C2385 C2389 1.495 . S
C2386 C2385 1.392 . S
C2386 C2387 1.385 . S
C2386 C2388 1.478 . S
C2387 H2381 0.930 . S
C2387 C2383 1.400 . S
C2387 C2386 1.385 . S
C2388 C2386 1.478 . S
C2388 C2390 1.381 . S
C2388 C2394 1.383 . S
C2389 C2385 1.495 . S
C2389 H2395 0.959 . S
C2389 H2396 0.961 . S
C2389 H2397 0.960 . S
C2390 C2388 1.381 . S
C2390 C2391 1.394 . S
C2390 H2398 0.930 . S
C2391 C2390 1.394 . S
C2391 C2392 1.383 . S
C2391 H2399 0.929 . S
C2392 C2391 1.383 . S
C2392 C2393 1.377 . S
C2393 H2377 0.930 . S
C2393 C2392 1.377 . S
C2393 C2394 1.379 . S
C2394 H2378 0.931 . S
C2394 C2388 1.383 . S
C2394 C2393 1.379 . S
H2395 C2389 0.959 . S
H2396 C2389 0.961 . S
H2397 C2389 0.960 . S
H2398 C2390 0.930 . S
H2399 C2391 0.929 . S
H2400 C2408 0.929 . S
H2401 C2410 0.930 1_565 S
H2402 C2412 0.930 . S
H2403 C2415 0.929 . S
H2404 C2418 0.930 1_655 S
H2405 C2420 0.960 . S
H2406 C2420 0.960 . S
H2407 C2420 0.960 . S
C2408 H2400 0.929 . S
C2408 C2409 1.377 . S
C2408 C2410 1.384 . S
C2409 C2408 1.377 . S
C2409 C2415 1.390 . S
C2410 H2401 0.930 1_545 S
C2410 C2408 1.384 . S
C2410 C2411 1.372 . S
C2411 C2410 1.372 . S
C2411 C2412 1.400 . S
C2411 C2416 1.490 1_645 S
C2412 H2402 0.930 . S
C2412 C2411 1.400 . S
C2412 C2415 1.386 . S
H2413 C2429 0.930 . S
H2414 C2430 0.931 . S
C2415 H2403 0.929 . S
C2415 C2409 1.390 . S
C2415 C2412 1.386 . S
C2416 C2411 1.490 1_465 S
C2416 C2418 1.395 . S
C2416 C2419 1.403 1_565 S
H2417 C2423 0.930 . S
C2418 H2404 0.930 1_455 S
C2418 C2416 1.395 . S
C2418 C2421 1.403 . S
C2419 C2416 1.403 1_545 S
C2419 C2420 1.524 . S
C2419 C2423 1.400 1_545 S
C2420 H2405 0.960 . S
C2420 H2406 0.960 . S
C2420 H2407 0.960 . S
C2420 C2419 1.524 . S
C2421 C2418 1.403 . S
C2421 C2422 1.392 . S
C2421 C2425 1.495 . S
C2422 C2421 1.392 . S
C2422 C2423 1.385 . S
C2422 C2424 1.478 . S
C2423 H2417 0.930 . S
C2423 C2419 1.400 1_565 S
C2423 C2422 1.385 . S
C2424 C2422 1.478 . S
C2424 C2426 1.381 . S
C2424 C2430 1.383 . S
C2425 C2421 1.495 . S
C2425 H2431 0.959 . S
C2425 H2432 0.961 . S
C2425 H2433 0.960 . S
C2426 C2424 1.381 . S
C2426 C2427 1.394 . S
C2426 H2434 0.930 . S
C2427 C2426 1.394 . S
C2427 C2428 1.383 . S
C2427 H2435 0.929 . S
C2428 C2427 1.383 . S
C2428 C2429 1.377 . S
C2429 H2413 0.930 . S
C2429 C2428 1.377 . S
C2429 C2430 1.379 . S
C2430 H2414 0.931 . S
C2430 C2424 1.383 . S
C2430 C2429 1.379 . S
H2431 C2425 0.959 . S
H2432 C2425 0.961 . S
H2433 C2425 0.960 . S
H2434 C2426 0.930 . S
H2435 C2427 0.929 . S
H2436 C2444 0.929 . S
H2437 C2446 0.930 . S
H2438 C2448 0.930 . S
H2439 C2451 0.929 . S
H2440 C2454 0.930 . S
H2441 C2456 0.960 . S
H2442 C2456 0.960 . S
H2443 C2456 0.960 . S
C2444 H2436 0.929 . S
C2444 C2445 1.377 . S
C2444 C2446 1.384 . S
C2445 C2444 1.377 . S
C2445 C2451 1.390 . S
C2446 H2437 0.930 . S
C2446 C2444 1.384 . S
C2446 C2447 1.372 . S
C2447 C2446 1.372 . S
C2447 C2448 1.400 . S
C2447 C2452 1.490 . S
C2448 H2438 0.930 . S
C2448 C2447 1.400 . S
C2448 C2451 1.386 . S
H2449 C2465 0.930 . S
H2450 C2466 0.931 . S
C2451 H2439 0.929 . S
C2451 C2445 1.390 . S
C2451 C2448 1.386 . S
C2452 C2447 1.490 . S
C2452 C2454 1.395 . S
C2452 C2455 1.403 . S
H2453 C2459 0.930 . S
C2454 H2440 0.930 . S
C2454 C2452 1.395 . S
C2454 C2457 1.403 . S
C2455 C2452 1.403 . S
C2455 C2456 1.524 . S
C2455 C2459 1.400 . S
C2456 H2441 0.960 . S
C2456 H2442 0.960 . S
C2456 H2443 0.960 . S
C2456 C2455 1.524 . S
C2457 C2454 1.403 . S
C2457 C2458 1.392 . S
C2457 C2461 1.495 . S
C2458 C2457 1.392 . S
C2458 C2459 1.385 . S
C2458 C2460 1.478 . S
C2459 H2453 0.930 . S
C2459 C2455 1.400 . S
C2459 C2458 1.385 . S
C2460 C2458 1.478 . S
C2460 C2462 1.381 . S
C2460 C2466 1.383 . S
C2461 C2457 1.495 . S
C2461 H2467 0.959 . S
C2461 H2468 0.961 . S
C2461 H2469 0.960 . S
C2462 C2460 1.381 . S
C2462 C2463 1.394 . S
C2462 H2470 0.930 . S
C2463 C2462 1.394 . S
C2463 C2464 1.383 . S
C2463 H2471 0.929 . S
C2464 C2463 1.383 . S
C2464 C2465 1.377 . S
C2465 H2449 0.930 . S
C2465 C2464 1.377 . S
C2465 C2466 1.379 . S
C2466 H2450 0.931 . S
C2466 C2460 1.383 . S
C2466 C2465 1.379 . S
H2467 C2461 0.959 . S
H2468 C2461 0.961 . S
H2469 C2461 0.960 . S
H2470 C2462 0.930 . S
H2471 C2463 0.929 . S
H2472 C2480 0.929 . S
H2473 C2482 0.930 . S
H2474 C2484 0.930 . S
H2475 C2487 0.929 . S
H2476 C2490 0.930 1_455 S
H2477 C2492 0.960 . S
H2478 C2492 0.960 . S
H2479 C2492 0.960 . S
C2480 H2472 0.929 . S
C2480 C2481 1.377 . S
C2480 C2482 1.384 . S
C2481 C2480 1.377 . S
C2481 C2487 1.390 . S
C2482 H2473 0.930 . S
C2482 C2480 1.384 . S
C2482 C2483 1.372 . S
C2483 C2482 1.372 . S
C2483 C2484 1.400 . S
C2483 C2488 1.490 1_455 S
C2484 H2474 0.930 . S
C2484 C2483 1.400 . S
C2484 C2487 1.386 . S
H2485 C2501 0.930 . S
H2486 C2502 0.931 . S
C2487 H2475 0.929 . S
C2487 C2481 1.390 . S
C2487 C2484 1.386 . S
C2488 C2483 1.490 1_655 S
C2488 C2490 1.395 . S
C2488 C2491 1.403 . S
H2489 C2495 0.930 . S
C2490 H2476 0.930 1_655 S
C2490 C2488 1.395 . S
C2490 C2493 1.403 . S
C2491 C2488 1.403 . S
C2491 C2492 1.524 . S
C2491 C2495 1.400 . S
C2492 H2477 0.960 . S
C2492 H2478 0.960 . S
C2492 H2479 0.960 . S
C2492 C2491 1.524 . S
C2493 C2490 1.403 . S
C2493 C2494 1.392 . S
C2493 C2497 1.495 . S
C2494 C2493 1.392 . S
C2494 C2495 1.385 . S
C2494 C2496 1.478 . S
C2495 H2489 0.930 . S
C2495 C2491 1.400 . S
C2495 C2494 1.385 . S
C2496 C2494 1.478 . S
C2496 C2498 1.381 . S
C2496 C2502 1.383 . S
C2497 C2493 1.495 . S
C2497 H2503 0.959 . S
C2497 H2504 0.961 . S
C2497 H2505 0.960 . S
C2498 C2496 1.381 . S
C2498 C2499 1.394 . S
C2498 H2506 0.930 . S
C2499 C2498 1.394 . S
C2499 C2500 1.383 . S
C2499 H2507 0.929 . S
C2500 C2499 1.383 . S
C2500 C2501 1.377 . S
C2501 H2485 0.930 . S
C2501 C2500 1.377 . S
C2501 C2502 1.379 . S
C2502 H2486 0.931 . S
C2502 C2496 1.383 . S
C2502 C2501 1.379 . S
H2503 C2497 0.959 . S
H2504 C2497 0.961 . S
H2505 C2497 0.960 . S
H2506 C2498 0.930 . S
H2507 C2499 0.929 . S
H2508 C2516 0.929 . S
H2509 C2518 0.930 . S
H2510 C2520 0.930 . S
H2511 C2523 0.929 . S
H2512 C2526 0.930 . S
H2513 C2528 0.960 . S
H2514 C2528 0.960 . S
H2515 C2528 0.960 . S
C2516 H2508 0.929 . S
C2516 C2517 1.377 . S
C2516 C2518 1.384 . S
C2517 C2516 1.377 . S
C2517 C2523 1.390 . S
C2518 H2509 0.930 . S
C2518 C2516 1.384 . S
C2518 C2519 1.372 . S
C2519 C2518 1.372 . S
C2519 C2520 1.400 . S
C2519 C2524 1.490 . S
C2520 H2510 0.930 . S
C2520 C2519 1.400 . S
C2520 C2523 1.386 . S
H2521 C2537 0.930 . S
H2522 C2538 0.931 . S
C2523 H2511 0.929 . S
C2523 C2517 1.390 . S
C2523 C2520 1.386 . S
C2524 C2519 1.490 . S
C2524 C2526 1.395 . S
C2524 C2527 1.403 . S
H2525 C2531 0.930 . S
C2526 H2512 0.930 . S
C2526 C2524 1.395 . S
C2526 C2529 1.403 . S
C2527 C2524 1.403 . S
C2527 C2528 1.524 . S
C2527 C2531 1.400 . S
C2528 H2513 0.960 . S
C2528 H2514 0.960 . S
C2528 H2515 0.960 . S
C2528 C2527 1.524 . S
C2529 C2526 1.403 . S
C2529 C2530 1.392 . S
C2529 C2533 1.495 . S
C2530 C2529 1.392 . S
C2530 C2531 1.385 . S
C2530 C2532 1.478 . S
C2531 H2525 0.930 . S
C2531 C2527 1.400 . S
C2531 C2530 1.385 . S
C2532 C2530 1.478 . S
C2532 C2534 1.381 . S
C2532 C2538 1.383 . S
C2533 C2529 1.495 . S
C2533 H2539 0.959 . S
C2533 H2540 0.961 . S
C2533 H2541 0.960 . S
C2534 C2532 1.381 . S
C2534 C2535 1.394 . S
C2534 H2542 0.930 . S
C2535 C2534 1.394 . S
C2535 C2536 1.383 . S
C2535 H2543 0.929 . S
C2536 C2535 1.383 . S
C2536 C2537 1.377 . S
C2537 H2521 0.930 . S
C2537 C2536 1.377 . S
C2537 C2538 1.379 . S
C2538 H2522 0.931 . S
C2538 C2532 1.383 . S
C2538 C2537 1.379 . S
H2539 C2533 0.959 . S
H2540 C2533 0.961 . S
H2541 C2533 0.960 . S
H2542 C2534 0.930 . S
H2543 C2535 0.929 . S
H2544 C2552 0.929 . S
H2545 C2554 0.930 . S
H2546 C2556 0.930 . S
H2547 C2559 0.929 . S
H2548 C2562 0.930 . S
H2549 C2564 0.960 . S
H2550 C2564 0.960 . S
H2551 C2564 0.960 . S
C2552 H2544 0.929 . S
C2552 C2553 1.377 . S
C2552 C2554 1.384 . S
C2553 C2552 1.377 . S
C2553 C2559 1.390 . S
C2554 H2545 0.930 . S
C2554 C2552 1.384 . S
C2554 C2555 1.372 . S
C2555 C2554 1.372 . S
C2555 C2556 1.400 . S
C2555 C2560 1.490 . S
C2556 H2546 0.930 . S
C2556 C2555 1.400 . S
C2556 C2559 1.386 . S
H2557 C2573 0.930 . S
H2558 C2574 0.931 . S
C2559 H2547 0.929 . S
C2559 C2553 1.390 . S
C2559 C2556 1.386 . S
C2560 C2555 1.490 . S
C2560 C2562 1.395 1_655 S
C2560 C2563 1.403 . S
H2561 C2567 0.930 . S
C2562 H2548 0.930 . S
C2562 C2560 1.395 1_455 S
C2562 C2565 1.403 . S
C2563 C2560 1.403 . S
C2563 C2564 1.524 . S
C2563 C2567 1.400 . S
C2564 H2549 0.960 . S
C2564 H2550 0.960 . S
C2564 H2551 0.960 . S
C2564 C2563 1.524 . S
C2565 C2562 1.403 . S
C2565 C2566 1.392 . S
C2565 C2569 1.495 . S
C2566 C2565 1.392 . S
C2566 C2567 1.385 1_455 S
C2566 C2568 1.478 . S
C2567 H2561 0.930 . S
C2567 C2563 1.400 . S
C2567 C2566 1.385 1_655 S
C2568 C2566 1.478 . S
C2568 C2570 1.381 . S
C2568 C2574 1.383 . S
C2569 C2565 1.495 . S
C2569 H2575 0.959 . S
C2569 H2576 0.961 . S
C2569 H2577 0.960 . S
C2570 C2568 1.381 . S
C2570 C2571 1.394 . S
C2570 H2578 0.930 . S
C2571 C2570 1.394 . S
C2571 C2572 1.383 . S
C2571 H2579 0.929 . S
C2572 C2571 1.383 . S
C2572 C2573 1.377 . S
C2573 H2557 0.930 . S
C2573 C2572 1.377 . S
C2573 C2574 1.379 . S
C2574 H2558 0.931 . S
C2574 C2568 1.383 . S
C2574 C2573 1.379 . S
H2575 C2569 0.959 . S
H2576 C2569 0.961 . S
H2577 C2569 0.960 . S
H2578 C2570 0.930 . S
H2579 C2571 0.929 . S
H2580 C2588 0.929 . S
H2581 C2590 0.930 . S
H2582 C2592 0.930 . S
H2583 C2595 0.929 . S
H2584 C2598 0.930 . S
H2585 C2600 0.960 . S
H2586 C2600 0.960 . S
H2587 C2600 0.960 . S
C2588 H2580 0.929 . S
C2588 C2589 1.377 . S
C2588 C2590 1.384 . S
C2589 C2588 1.377 . S
C2589 C2595 1.390 . S
C2590 H2581 0.930 . S
C2590 C2588 1.384 . S
C2590 C2591 1.372 . S
C2591 C2590 1.372 . S
C2591 C2592 1.400 . S
C2591 C2596 1.490 . S
C2592 H2582 0.930 . S
C2592 C2591 1.400 . S
C2592 C2595 1.386 . S
H2593 C2609 0.930 . S
H2594 C2610 0.931 . S
C2595 H2583 0.929 . S
C2595 C2589 1.390 . S
C2595 C2592 1.386 . S
C2596 C2591 1.490 . S
C2596 C2598 1.395 . S
C2596 C2599 1.403 1_554 S
H2597 C2603 0.930 . S
C2598 H2584 0.930 . S
C2598 C2596 1.395 . S
C2598 C2601 1.403 . S
C2599 C2596 1.403 1_556 S
C2599 C2600 1.524 . S
C2599 C2603 1.400 . S
C2600 H2585 0.960 . S
C2600 H2586 0.960 . S
C2600 H2587 0.960 . S
C2600 C2599 1.524 . S
C2601 C2598 1.403 . S
C2601 C2602 1.392 1_554 S
C2601 C2605 1.495 . S
C2602 C2601 1.392 1_556 S
C2602 C2603 1.385 . S
C2602 C2604 1.478 . S
C2603 H2597 0.930 . S
C2603 C2599 1.400 . S
C2603 C2602 1.385 . S
C2604 C2602 1.478 . S
C2604 C2606 1.381 . S
C2604 C2610 1.383 . S
C2605 C2601 1.495 . S
C2605 H2611 0.959 . S
C2605 H2612 0.961 . S
C2605 H2613 0.960 . S
C2606 C2604 1.381 . S
C2606 C2607 1.394 . S
C2606 H2614 0.930 . S
C2607 C2606 1.394 . S
C2607 C2608 1.383 . S
C2607 H2615 0.929 . S
C2608 C2607 1.383 . S
C2608 C2609 1.377 . S
C2609 H2593 0.930 . S
C2609 C2608 1.377 . S
C2609 C2610 1.379 . S
C2610 H2594 0.931 . S
C2610 C2604 1.383 . S
C2610 C2609 1.379 . S
H2611 C2605 0.959 . S
H2612 C2605 0.961 . S
H2613 C2605 0.960 . S
H2614 C2606 0.930 . S
H2615 C2607 0.929 . S
H2616 C2624 0.929 . S
H2617 C2626 0.930 . S
H2618 C2628 0.930 . S
H2619 C2631 0.929 . S
H2620 C2634 0.930 . S
H2621 C2636 0.960 . S
H2622 C2636 0.960 . S
H2623 C2636 0.960 . S
C2624 H2616 0.929 . S
C2624 C2625 1.377 . S
C2624 C2626 1.384 . S
C2625 C2624 1.377 . S
C2625 C2631 1.390 . S
C2626 H2617 0.930 . S
C2626 C2624 1.384 . S
C2626 C2627 1.372 . S
C2627 C2626 1.372 . S
C2627 C2628 1.400 . S
C2627 C2632 1.490 . S
C2628 H2618 0.930 . S
C2628 C2627 1.400 . S
C2628 C2631 1.386 . S
H2629 C2645 0.930 . S
H2630 C2646 0.931 . S
C2631 H2619 0.929 . S
C2631 C2625 1.390 . S
C2631 C2628 1.386 . S
C2632 C2627 1.490 . S
C2632 C2634 1.395 . S
C2632 C2635 1.403 . S
H2633 C2639 0.930 . S
C2634 H2620 0.930 . S
C2634 C2632 1.395 . S
C2634 C2637 1.403 . S
C2635 C2632 1.403 . S
C2635 C2636 1.524 . S
C2635 C2639 1.400 . S
C2636 H2621 0.960 . S
C2636 H2622 0.960 . S
C2636 H2623 0.960 . S
C2636 C2635 1.524 . S
C2637 C2634 1.403 . S
C2637 C2638 1.392 . S
C2637 C2641 1.495 . S
C2638 C2637 1.392 . S
C2638 C2639 1.385 . S
C2638 C2640 1.478 . S
C2639 H2633 0.930 . S
C2639 C2635 1.400 . S
C2639 C2638 1.385 . S
C2640 C2638 1.478 . S
C2640 C2642 1.381 . S
C2640 C2646 1.383 . S
C2641 C2637 1.495 . S
C2641 H2647 0.959 . S
C2641 H2648 0.961 . S
C2641 H2649 0.960 . S
C2642 C2640 1.381 . S
C2642 C2643 1.394 . S
C2642 H2650 0.930 . S
C2643 C2642 1.394 . S
C2643 C2644 1.383 . S
C2643 H2651 0.929 . S
C2644 C2643 1.383 . S
C2644 C2645 1.377 . S
C2645 H2629 0.930 . S
C2645 C2644 1.377 . S
C2645 C2646 1.379 . S
C2646 H2630 0.931 . S
C2646 C2640 1.383 . S
C2646 C2645 1.379 . S
H2647 C2641 0.959 . S
H2648 C2641 0.961 . S
H2649 C2641 0.960 . S
H2650 C2642 0.930 . S
H2651 C2643 0.929 . S
H2652 C2660 0.929 . S
H2653 C2662 0.930 . S
H2654 C2664 0.930 . S
H2655 C2667 0.929 . S
H2656 C2670 0.930 . S
H2657 C2672 0.960 . S
H2658 C2672 0.960 . S
H2659 C2672 0.960 . S
C2660 H2652 0.929 . S
C2660 C2661 1.377 . S
C2660 C2662 1.384 . S
C2661 C2660 1.377 . S
C2661 C2667 1.390 . S
C2662 H2653 0.930 . S
C2662 C2660 1.384 . S
C2662 C2663 1.372 . S
C2663 C2662 1.372 . S
C2663 C2664 1.400 . S
C2663 C2668 1.490 . S
C2664 H2654 0.930 . S
C2664 C2663 1.400 . S
C2664 C2667 1.386 . S
H2665 C2681 0.930 . S
H2666 C2682 0.931 . S
C2667 H2655 0.929 . S
C2667 C2661 1.390 . S
C2667 C2664 1.386 . S
C2668 C2663 1.490 . S
C2668 C2670 1.395 . S
C2668 C2671 1.403 . S
H2669 C2675 0.930 . S
C2670 H2656 0.930 . S
C2670 C2668 1.395 . S
C2670 C2673 1.403 . S
C2671 C2668 1.403 . S
C2671 C2672 1.524 . S
C2671 C2675 1.400 . S
C2672 H2657 0.960 . S
C2672 H2658 0.960 . S
C2672 H2659 0.960 . S
C2672 C2671 1.524 . S
C2673 C2670 1.403 . S
C2673 C2674 1.392 . S
C2673 C2677 1.495 . S
C2674 C2673 1.392 . S
C2674 C2675 1.385 . S
C2674 C2676 1.478 . S
C2675 H2669 0.930 . S
C2675 C2671 1.400 . S
C2675 C2674 1.385 . S
C2676 C2674 1.478 . S
C2676 C2678 1.381 . S
C2676 C2682 1.383 . S
C2677 C2673 1.495 . S
C2677 H2683 0.959 . S
C2677 H2684 0.961 . S
C2677 H2685 0.960 . S
C2678 C2676 1.381 . S
C2678 C2679 1.394 . S
C2678 H2686 0.930 . S
C2679 C2678 1.394 . S
C2679 C2680 1.383 . S
C2679 H2687 0.929 . S
C2680 C2679 1.383 . S
C2680 C2681 1.377 . S
C2681 H2665 0.930 . S
C2681 C2680 1.377 . S
C2681 C2682 1.379 . S
C2682 H2666 0.931 . S
C2682 C2676 1.383 . S
C2682 C2681 1.379 . S
H2683 C2677 0.959 . S
H2684 C2677 0.961 . S
H2685 C2677 0.960 . S
H2686 C2678 0.930 . S
H2687 C2679 0.929 . S
H2688 C2696 0.929 . S
H2689 C2698 0.930 . S
H2690 C2700 0.930 . S
H2691 C2703 0.929 . S
H2692 C2706 0.930 . S
H2693 C2708 0.960 . S
H2694 C2708 0.960 . S
H2695 C2708 0.960 . S
C2696 H2688 0.929 . S
C2696 C2697 1.377 . S
C2696 C2698 1.384 . S
C2697 C2696 1.377 . S
C2697 C2703 1.390 . S
C2698 H2689 0.930 . S
C2698 C2696 1.384 . S
C2698 C2699 1.372 . S
C2699 C2698 1.372 . S
C2699 C2700 1.400 . S
C2699 C2704 1.490 . S
C2700 H2690 0.930 . S
C2700 C2699 1.400 . S
C2700 C2703 1.386 . S
H2701 C2717 0.930 . S
H2702 C2718 0.931 . S
C2703 H2691 0.929 . S
C2703 C2697 1.390 . S
C2703 C2700 1.386 . S
C2704 C2699 1.490 . S
C2704 C2706 1.395 . S
C2704 C2707 1.403 . S
H2705 C2711 0.930 . S
C2706 H2692 0.930 . S
C2706 C2704 1.395 . S
C2706 C2709 1.403 . S
C2707 C2704 1.403 . S
C2707 C2708 1.524 . S
C2707 C2711 1.400 . S
C2708 H2693 0.960 . S
C2708 H2694 0.960 . S
C2708 H2695 0.960 . S
C2708 C2707 1.524 . S
C2709 C2706 1.403 . S
C2709 C2710 1.392 . S
C2709 C2713 1.495 . S
C2710 C2709 1.392 . S
C2710 C2711 1.385 . S
C2710 C2712 1.478 . S
C2711 H2705 0.930 . S
C2711 C2707 1.400 . S
C2711 C2710 1.385 . S
C2712 C2710 1.478 . S
C2712 C2714 1.381 . S
C2712 C2718 1.383 . S
C2713 C2709 1.495 . S
C2713 H2719 0.959 . S
C2713 H2720 0.961 . S
C2713 H2721 0.960 . S
C2714 C2712 1.381 . S
C2714 C2715 1.394 . S
C2714 H2722 0.930 . S
C2715 C2714 1.394 . S
C2715 C2716 1.383 . S
C2715 H2723 0.929 . S
C2716 C2715 1.383 . S
C2716 C2717 1.377 . S
C2717 H2701 0.930 . S
C2717 C2716 1.377 . S
C2717 C2718 1.379 . S
C2718 H2702 0.931 . S
C2718 C2712 1.383 . S
C2718 C2717 1.379 . S
H2719 C2713 0.959 . S
H2720 C2713 0.961 . S
H2721 C2713 0.960 . S
H2722 C2714 0.930 . S
H2723 C2715 0.929 . S
H2724 C2732 0.929 . S
H2725 C2734 0.930 . S
H2726 C2736 0.930 . S
H2727 C2739 0.929 . S
H2728 C2742 0.930 . S
H2729 C2744 0.960 . S
H2730 C2744 0.960 . S
H2731 C2744 0.960 . S
C2732 H2724 0.929 . S
C2732 C2733 1.377 . S
C2732 C2734 1.384 . S
C2733 C2732 1.377 . S
C2733 C2739 1.390 . S
C2734 H2725 0.930 . S
C2734 C2732 1.384 . S
C2734 C2735 1.372 . S
C2735 C2734 1.372 . S
C2735 C2736 1.400 . S
C2735 C2740 1.490 . S
C2736 H2726 0.930 . S
C2736 C2735 1.400 . S
C2736 C2739 1.386 . S
H2737 C2753 0.930 . S
H2738 C2754 0.931 . S
C2739 H2727 0.929 . S
C2739 C2733 1.390 . S
C2739 C2736 1.386 . S
C2740 C2735 1.490 . S
C2740 C2742 1.395 . S
C2740 C2743 1.403 . S
H2741 C2747 0.930 . S
C2742 H2728 0.930 . S
C2742 C2740 1.395 . S
C2742 C2745 1.403 . S
C2743 C2740 1.403 . S
C2743 C2744 1.524 . S
C2743 C2747 1.400 . S
C2744 H2729 0.960 . S
C2744 H2730 0.960 . S
C2744 H2731 0.960 . S
C2744 C2743 1.524 . S
C2745 C2742 1.403 . S
C2745 C2746 1.392 . S
C2745 C2749 1.495 . S
C2746 C2745 1.392 . S
C2746 C2747 1.385 . S
C2746 C2748 1.478 . S
C2747 H2741 0.930 . S
C2747 C2743 1.400 . S
C2747 C2746 1.385 . S
C2748 C2746 1.478 . S
C2748 C2750 1.381 . S
C2748 C2754 1.383 . S
C2749 C2745 1.495 . S
C2749 H2755 0.959 . S
C2749 H2756 0.961 . S
C2749 H2757 0.960 . S
C2750 C2748 1.381 . S
C2750 C2751 1.394 . S
C2750 H2758 0.930 . S
C2751 C2750 1.394 . S
C2751 C2752 1.383 . S
C2751 H2759 0.929 . S
C2752 C2751 1.383 . S
C2752 C2753 1.377 . S
C2753 H2737 0.930 . S
C2753 C2752 1.377 . S
C2753 C2754 1.379 . S
C2754 H2738 0.931 . S
C2754 C2748 1.383 . S
C2754 C2753 1.379 . S
H2755 C2749 0.959 . S
H2756 C2749 0.961 . S
H2757 C2749 0.960 . S
H2758 C2750 0.930 . S
H2759 C2751 0.929 . S
H2760 C2768 0.929 . S
H2761 C2770 0.930 . S
H2762 C2772 0.930 . S
H2763 C2775 0.929 . S
H2764 C2778 0.936 . S
H2765 C2780 0.960 . S
H2766 C2780 0.960 . S
H2767 C2780 0.960 . S
C2768 H2760 0.929 . S
C2768 C2769 1.377 . S
C2768 C2770 1.384 . S
C2769 C2768 1.377 . S
C2769 C2775 1.390 . S
C2770 H2761 0.930 . S
C2770 C2768 1.384 . S
C2770 C2771 1.372 . S
C2771 C2770 1.372 . S
C2771 C2772 1.400 . S
C2771 C2776 1.490 . S
C2772 H2762 0.930 . S
C2772 C2771 1.400 . S
C2772 C2775 1.386 . S
H2773 C2789 0.930 . S
H2774 C2790 0.931 . S
C2775 H2763 0.929 . S
C2775 C2769 1.390 . S
C2775 C2772 1.386 . S
C2776 C2771 1.490 . S
C2776 C2778 1.409 . S
C2776 C2779 1.403 . S
H2777 C2783 0.930 . S
C2778 H2764 0.936 . S
C2778 C2776 1.409 . S
C2778 C2781 1.384 1_655 S
C2779 C2776 1.403 . S
C2779 C2780 1.524 . S
C2779 C2783 1.400 1_655 S
C2780 H2765 0.960 . S
C2780 H2766 0.960 . S
C2780 H2767 0.960 . S
C2780 C2779 1.524 . S
C2781 C2778 1.384 1_455 S
C2781 C2782 1.392 . S
C2781 C2785 1.495 . S
C2782 C2781 1.392 . S
C2782 C2783 1.385 . S
C2782 C2784 1.478 . S
C2783 H2777 0.930 . S
C2783 C2779 1.400 1_455 S
C2783 C2782 1.385 . S
C2784 C2782 1.478 . S
C2784 C2786 1.381 . S
C2784 C2790 1.383 . S
C2785 C2781 1.495 . S
C2785 H2791 0.959 . S
C2785 H2792 0.961 . S
C2785 H2793 0.960 . S
C2786 C2784 1.381 . S
C2786 C2787 1.394 . S
C2786 H2794 0.930 . S
C2787 C2786 1.394 . S
C2787 C2788 1.383 . S
C2787 H2795 0.929 . S
C2788 C2787 1.383 . S
C2788 C2789 1.377 . S
C2789 H2773 0.930 . S
C2789 C2788 1.377 . S
C2789 C2790 1.379 . S
C2790 H2774 0.931 . S
C2790 C2784 1.383 . S
C2790 C2789 1.379 . S
H2791 C2785 0.959 . S
H2792 C2785 0.961 . S
H2793 C2785 0.960 . S
H2794 C2786 0.930 . S
H2795 C2787 0.929 . S
H2796 C2804 0.929 . S
H2797 C2806 0.930 . S
H2798 C2808 0.930 . S
H2799 C2811 0.929 . S
H2800 C2814 0.930 . S
H2801 C2816 0.960 . S
H2802 C2816 0.960 . S
H2803 C2816 0.960 . S
C2804 H2796 0.929 . S
C2804 C2805 1.377 . S
C2804 C2806 1.384 . S
C2805 C2804 1.377 . S
C2805 C2811 1.390 . S
C2806 H2797 0.930 . S
C2806 C2804 1.384 . S
C2806 C2807 1.372 . S
C2807 C2806 1.372 . S
C2807 C2808 1.400 . S
C2807 C2812 1.490 . S
C2808 H2798 0.930 . S
C2808 C2807 1.400 . S
C2808 C2811 1.386 . S
H2809 C2825 0.930 . S
H2810 C2826 0.931 . S
C2811 H2799 0.929 . S
C2811 C2805 1.390 . S
C2811 C2808 1.386 . S
C2812 C2807 1.490 . S
C2812 C2814 1.395 . S
C2812 C2815 1.403 1_554 S
H2813 C2819 0.930 . S
C2814 H2800 0.930 . S
C2814 C2812 1.395 . S
C2814 C2817 1.403 . S
C2815 C2812 1.403 1_556 S
C2815 C2816 1.524 . S
C2815 C2819 1.400 . S
C2816 H2801 0.960 . S
C2816 H2802 0.960 . S
C2816 H2803 0.960 . S
C2816 C2815 1.524 . S
C2817 C2814 1.403 . S
C2817 C2818 1.392 1_554 S
C2817 C2821 1.495 . S
C2818 C2817 1.392 1_556 S
C2818 C2819 1.385 . S
C2818 C2820 1.478 . S
C2819 H2813 0.930 . S
C2819 C2815 1.400 . S
C2819 C2818 1.385 . S
C2820 C2818 1.478 . S
C2820 C2822 1.381 . S
C2820 C2826 1.383 . S
C2821 C2817 1.495 . S
C2821 H2827 0.959 . S
C2821 H2828 0.961 . S
C2821 H2829 0.960 . S
C2822 C2820 1.381 . S
C2822 C2823 1.394 . S
C2822 H2830 0.930 . S
C2823 C2822 1.394 . S
C2823 C2824 1.383 . S
C2823 H2831 0.929 . S
C2824 C2823 1.383 . S
C2824 C2825 1.377 . S
C2825 H2809 0.930 . S
C2825 C2824 1.377 . S
C2825 C2826 1.379 . S
C2826 H2810 0.931 . S
C2826 C2820 1.383 . S
C2826 C2825 1.379 . S
H2827 C2821 0.959 . S
H2828 C2821 0.961 . S
H2829 C2821 0.960 . S
H2830 C2822 0.930 . S
H2831 C2823 0.929 . S
H2832 C2840 0.929 . S
H2833 C2842 0.930 . S
H2834 C2844 0.930 . S
H2835 C2847 0.929 . S
H2836 C2850 0.930 . S
H2837 C2852 0.960 . S
H2838 C2852 0.960 . S
H2839 C2852 0.960 . S
C2840 H2832 0.929 . S
C2840 C2841 1.377 . S
C2840 C2842 1.384 . S
C2841 C2840 1.377 . S
C2841 C2847 1.390 . S
C2842 H2833 0.930 . S
C2842 C2840 1.384 . S
C2842 C2843 1.372 . S
C2843 C2842 1.372 . S
C2843 C2844 1.400 . S
C2843 C2848 1.490 . S
C2844 H2834 0.930 . S
C2844 C2843 1.400 . S
C2844 C2847 1.386 . S
H2845 C2861 0.930 . S
H2846 C2862 0.931 . S
C2847 H2835 0.929 . S
C2847 C2841 1.390 . S
C2847 C2844 1.386 . S
C2848 C2843 1.490 . S
C2848 C2850 1.395 1_565 S
C2848 C2851 1.403 . S
H2849 C2855 0.930 . S
C2850 H2836 0.930 . S
C2850 C2848 1.395 1_545 S
C2850 C2853 1.403 . S
C2851 C2848 1.403 . S
C2851 C2852 1.524 . S
C2851 C2855 1.400 . S
C2852 H2837 0.960 . S
C2852 H2838 0.960 . S
C2852 H2839 0.960 . S
C2852 C2851 1.524 . S
C2853 C2850 1.403 . S
C2853 C2854 1.392 . S
C2853 C2857 1.495 . S
C2854 C2853 1.392 . S
C2854 C2855 1.385 1_545 S
C2854 C2856 1.478 . S
C2855 H2849 0.930 . S
C2855 C2851 1.400 . S
C2855 C2854 1.385 1_565 S
C2856 C2854 1.478 . S
C2856 C2858 1.381 . S
C2856 C2862 1.383 . S
C2857 C2853 1.495 . S
C2857 H2863 0.959 . S
C2857 H2864 0.961 . S
C2857 H2865 0.960 . S
C2858 C2856 1.381 . S
C2858 C2859 1.394 . S
C2858 H2866 0.930 . S
C2859 C2858 1.394 . S
C2859 C2860 1.383 . S
C2859 H2867 0.929 . S
C2860 C2859 1.383 . S
C2860 C2861 1.377 . S
C2861 H2845 0.930 . S
C2861 C2860 1.377 . S
C2861 C2862 1.379 . S
C2862 H2846 0.931 . S
C2862 C2856 1.383 . S
C2862 C2861 1.379 . S
H2863 C2857 0.959 . S
H2864 C2857 0.961 . S
H2865 C2857 0.960 . S
H2866 C2858 0.930 . S
H2867 C2859 0.929 . S
H2868 C2876 0.929 . S
H2869 C2878 0.930 . S
H2870 C2880 0.930 . S
H2871 C2883 0.929 . S
H2872 C2886 0.930 . S
H2873 C2888 0.960 . S
H2874 C2888 0.960 . S
H2875 C2888 0.960 . S
C2876 H2868 0.929 . S
C2876 C2877 1.377 . S
C2876 C2878 1.384 . S
C2877 C2876 1.377 . S
C2877 C2883 1.390 . S
C2878 H2869 0.930 . S
C2878 C2876 1.384 . S
C2878 C2879 1.372 . S
C2879 C2878 1.372 . S
C2879 C2880 1.400 . S
C2879 C2884 1.490 . S
C2880 H2870 0.930 . S
C2880 C2879 1.400 . S
C2880 C2883 1.386 . S
H2881 C2897 0.930 . S
H2882 C2898 0.931 . S
C2883 H2871 0.929 . S
C2883 C2877 1.390 . S
C2883 C2880 1.386 . S
C2884 C2879 1.490 . S
C2884 C2886 1.395 . S
C2884 C2887 1.403 . S
H2885 C2891 0.930 . S
C2886 H2872 0.930 . S
C2886 C2884 1.395 . S
C2886 C2889 1.403 . S
C2887 C2884 1.403 . S
C2887 C2888 1.524 . S
C2887 C2891 1.400 . S
C2888 H2873 0.960 . S
C2888 H2874 0.960 . S
C2888 H2875 0.960 . S
C2888 C2887 1.524 . S
C2889 C2886 1.403 . S
C2889 C2890 1.392 . S
C2889 C2893 1.495 . S
C2890 C2889 1.392 . S
C2890 C2891 1.385 . S
C2890 C2892 1.478 . S
C2891 H2885 0.930 . S
C2891 C2887 1.400 . S
C2891 C2890 1.385 . S
C2892 C2890 1.478 . S
C2892 C2894 1.381 . S
C2892 C2898 1.383 . S
C2893 C2889 1.495 . S
C2893 H2899 0.959 . S
C2893 H2900 0.961 . S
C2893 H2901 0.960 . S
C2894 C2892 1.381 . S
C2894 C2895 1.394 . S
C2894 H2902 0.930 . S
C2895 C2894 1.394 . S
C2895 C2896 1.383 . S
C2895 H2903 0.929 . S
C2896 C2895 1.383 . S
C2896 C2897 1.377 . S
C2897 H2881 0.930 . S
C2897 C2896 1.377 . S
C2897 C2898 1.379 . S
C2898 H2882 0.931 . S
C2898 C2892 1.383 . S
C2898 C2897 1.379 . S
H2899 C2893 0.959 . S
H2900 C2893 0.961 . S
H2901 C2893 0.960 . S
H2902 C2894 0.930 . S
H2903 C2895 0.929 . S
H2904 C2912 0.929 . S
H2905 C2914 0.930 . S
H2906 C2916 0.930 . S
H2907 C2919 0.929 . S
H2908 C2922 0.930 . S
H2909 C2924 0.960 . S
H2910 C2924 0.960 . S
H2911 C2924 0.960 . S
C2912 H2904 0.929 . S
C2912 C2913 1.377 . S
C2912 C2914 1.384 . S
C2913 C2912 1.377 . S
C2913 C2919 1.390 . S
C2914 H2905 0.930 . S
C2914 C2912 1.384 . S
C2914 C2915 1.372 . S
C2915 C2914 1.372 . S
C2915 C2916 1.400 . S
C2915 C2920 1.490 . S
C2916 H2906 0.930 . S
C2916 C2915 1.400 . S
C2916 C2919 1.386 . S
H2917 C2933 0.930 . S
H2918 C2934 0.931 . S
C2919 H2907 0.929 . S
C2919 C2913 1.390 . S
C2919 C2916 1.386 . S
C2920 C2915 1.490 . S
C2920 C2922 1.395 1_545 S
C2920 C2923 1.403 . S
H2921 C2927 0.930 . S
C2922 H2908 0.930 . S
C2922 C2920 1.395 1_565 S
C2922 C2925 1.403 . S
C2923 C2920 1.403 . S
C2923 C2924 1.524 . S
C2923 C2927 1.400 . S
C2924 H2909 0.960 . S
C2924 H2910 0.960 . S
C2924 H2911 0.960 . S
C2924 C2923 1.524 . S
C2925 C2922 1.403 . S
C2925 C2926 1.392 . S
C2925 C2929 1.495 . S
C2926 C2925 1.392 . S
C2926 C2927 1.385 1_565 S
C2926 C2928 1.478 . S
C2927 H2921 0.930 . S
C2927 C2923 1.400 . S
C2927 C2926 1.385 1_545 S
C2928 C2926 1.478 . S
C2928 C2930 1.381 . S
C2928 C2934 1.383 . S
C2929 C2925 1.495 . S
C2929 H2935 0.959 . S
C2929 H2936 0.961 . S
C2929 H2937 0.960 . S
C2930 C2928 1.381 . S
C2930 C2931 1.394 . S
C2930 H2938 0.930 . S
C2931 C2930 1.394 . S
C2931 C2932 1.383 . S
C2931 H2939 0.929 . S
C2932 C2931 1.383 . S
C2932 C2933 1.377 . S
C2933 H2917 0.930 . S
C2933 C2932 1.377 . S
C2933 C2934 1.379 . S
C2934 H2918 0.931 . S
C2934 C2928 1.383 . S
C2934 C2933 1.379 . S
H2935 C2929 0.959 . S
H2936 C2929 0.961 . S
H2937 C2929 0.960 . S
H2938 C2930 0.930 . S
H2939 C2931 0.929 . S
H2940 C2948 0.929 . S
H2941 C2950 0.930 . S
H2942 C2952 0.930 . S
H2943 C2955 0.929 . S
H2944 C2958 0.930 . S
H2945 C2960 0.960 . S
H2946 C2960 0.960 . S
H2947 C2960 0.960 . S
C2948 H2940 0.929 . S
C2948 C2949 1.377 . S
C2948 C2950 1.384 . S
C2949 C2948 1.377 . S
C2949 C2955 1.390 . S
C2950 H2941 0.930 . S
C2950 C2948 1.384 . S
C2950 C2951 1.372 . S
C2951 C2950 1.372 . S
C2951 C2952 1.400 . S
C2951 C2956 1.490 . S
C2952 H2942 0.930 . S
C2952 C2951 1.400 . S
C2952 C2955 1.386 . S
H2953 C2969 0.930 . S
H2954 C2970 0.931 . S
C2955 H2943 0.929 . S
C2955 C2949 1.390 . S
C2955 C2952 1.386 . S
C2956 C2951 1.490 . S
C2956 C2958 1.395 . S
C2956 C2959 1.403 . S
H2957 C2963 0.930 . S
C2958 H2944 0.930 . S
C2958 C2956 1.395 . S
C2958 C2961 1.403 . S
C2959 C2956 1.403 . S
C2959 C2960 1.524 . S
C2959 C2963 1.400 . S
C2960 H2945 0.960 . S
C2960 H2946 0.960 . S
C2960 H2947 0.960 . S
C2960 C2959 1.524 . S
C2961 C2958 1.403 . S
C2961 C2962 1.392 . S
C2961 C2965 1.495 . S
C2962 C2961 1.392 . S
C2962 C2963 1.385 . S
C2962 C2964 1.478 . S
C2963 H2957 0.930 . S
C2963 C2959 1.400 . S
C2963 C2962 1.385 . S
C2964 C2962 1.478 . S
C2964 C2966 1.381 . S
C2964 C2970 1.383 . S
C2965 C2961 1.495 . S
C2965 H2971 0.959 . S
C2965 H2972 0.961 . S
C2965 H2973 0.960 . S
C2966 C2964 1.381 . S
C2966 C2967 1.394 . S
C2966 H2974 0.930 . S
C2967 C2966 1.394 . S
C2967 C2968 1.383 . S
C2967 H2975 0.929 . S
C2968 C2967 1.383 . S
C2968 C2969 1.377 . S
C2969 H2953 0.930 . S
C2969 C2968 1.377 . S
C2969 C2970 1.379 . S
C2970 H2954 0.931 . S
C2970 C2964 1.383 . S
C2970 C2969 1.379 . S
H2971 C2965 0.959 . S
H2972 C2965 0.961 . S
H2973 C2965 0.960 . S
H2974 C2966 0.930 . S
H2975 C2967 0.929 . S
C825 C451 1.481 . S
C844 C20 1.602 . S
C861 C54 1.598 . S
C880 C485 1.500 . S
C897 C88 1.602 . S
C916 C519 1.518 . S
C933 C417 1.481 . S
C952 C122 1.612 . S
C969 C383 1.496 . S
C988 C156 1.584 . S
C1005 C281 1.484 . S
C1024 C190 1.588 . S
C1041 C224 1.604 . S
C1060 C315 1.507 . S
C1077 C349 1.495 . S
C1096 C258 1.602 . S
C1113 C292 1.600 . S
C1132 C43 1.524 . S
C1149 C326 1.601 . S
C1168 C77 1.453 . S
C1185 C360 1.600 . S
C1204 C111 1.463 . S
C1221 C9 1.496 . S
C1240 C394 1.584 . S
C1257 C247 1.490 . S
C1276 C428 1.581 . S
C1293 C462 1.602 . S
C1312 C145 1.521 . S
C1329 C496 1.603 . S
C1348 C179 1.515 . S
C1365 C213 1.494 . S
C1384 C530 1.581 . S
C1401 C757 1.491 . S
C1420 C564 1.613 . S
C1437 C598 1.599 . S
C1456 C621 1.516 . S
C1473 C632 1.600 . S
C1492 C655 1.524 . S
C1509 C689 1.496 . S
C1528 C666 1.585 . S
C1545 C700 1.604 . S
C1564 C587 1.509 . S
C1581 C791 1.495 . S
C1600 C734 1.605 . S
C1617 C768 1.605 . S
C1636 C723 1.451 . S
C1653 C553 1.496 . S
C1672 C802 1.587 . S
C1689 C549 1.017 . S
C1708 C33 1.037 . S
C1725 C787 1.019 . S
C1744 C67 0.993 . S
C1761 C101 1.016 . S
C1780 C719 1.037 . S
C1797 C753 1.014 . S
C1816 C135 1.031 . S
C1833 C583 1.022 . S
C1852 C169 1.019 . S
C1869 C617 1.021 . S
C1888 C203 1.020 . S
C1905 C651 1.014 . S
C1924 C237 1.033 . S
C1941 C271 1.013 . S
C1960 C685 1.013 . S
C1977 C305 1.014 . S
C1996 C5 1.002 . S
C2013 C339 1.013 . S
C2032 C39 1.031 . S
C2049 C373 1.013 . S
C2068 C73 1.012 . S
C2085 C407 1.021 . S
C2104 C107 1.003 . S
C2121 C441 1.012 . S
C2140 C141 1.015 . S
C2157 C175 1.013 . S
C2176 C475 1.019 . S
C2193 C209 1.017 . S
C2212 C509 0.994 . S
C2229 C543 1.019 . S
C2248 C243 0.995 . S
C2265 C277 1.014 . S
C2284 C577 1.032 . S
C2301 C413 1.013 . S
C2320 C611 1.025 . S
C2337 C447 1.021 . S
C2356 C645 0.999 . S
C2373 C481 1.018 . S
C2392 C679 0.993 . S
C2409 C713 1.013 . S
C2428 C515 1.013 . S
C2445 C747 1.018 . S
C2464 C345 0.995 . S
C2481 C781 1.013 . S
C2500 C379 1.006 . S
C2517 C311 1.017 . S
C2536 C815 1.037 . S
C2553 C682 1.119 . S
C2572 C2 1.103 . S
C2589 C36 1.116 . S
C2608 C580 1.125 . S
C2625 C614 1.121 . S
C2644 C70 1.117 . S
C2661 C104 1.116 . S
C2680 C648 1.117 . S
C2697 C784 1.120 . S
C2716 C138 1.128 . S
C2733 C716 1.117 . S
C2752 C172 1.109 . S
C2769 C206 1.121 . S
C2788 C750 1.116 . S
C2805 C546 1.119 . S
C2824 C240 1.104 . S
C2841 C512 1.120 . S
C2860 C274 1.104 . S
C2877 C410 1.121 . S
C2896 C308 1.106 . S
C2913 C444 1.120 . S
C2932 C342 1.105 . S
C2949 C478 1.121 . S
C2968 C376 1.106 . S
