# Generated by pormake.
# Topology snz, (6)-cn, num edge types: 1
# Building blocks:
#     Node 0, Type 0, BuildingBlock: HISSIN_clean_sbu_0, # of connection points: 6
#     Node 1, Type 0, BuildingBlock: HISSIN_clean_sbu_0, # of connection points: 6
#     Node 2, Type 0, BuildingBlock: HISSIN_clean_sbu_0, # of connection points: 6
#     Node 3, Type 0, BuildingBlock: HISSIN_clean_sbu_0, # of connection points: 6
#     Node 4, Type 0, BuildingBlock: HISSIN_clean_sbu_0, # of connection points: 6
#     Node 5, Type 0, BuildingBlock: HISSIN_clean_sbu_0, # of connection points: 6
#     Node 6, Type 0, BuildingBlock: HISSIN_clean_sbu_0, # of connection points: 6
#     Node 7, Type 0, BuildingBlock: HISSIN_clean_sbu_0, # of connection points: 6
#     Node 8, Type 0, BuildingBlock: HISSIN_clean_sbu_0, # of connection points: 6
#     Edge 9, Type (0, 0), BuildingBlock: EZIPEK_clean_linker_0, # of connection points: 2
#     Edge 10, Type (0, 0), BuildingBlock: EZIPEK_clean_linker_0, # of connection points: 2
#     Edge 11, Type (0, 0), BuildingBlock: EZIPEK_clean_linker_0, # of connection points: 2
#     Edge 12, Type (0, 0), BuildingBlock: EZIPEK_clean_linker_0, # of connection points: 2
#     Edge 13, Type (0, 0), BuildingBlock: EZIPEK_clean_linker_0, # of connection points: 2
#     Edge 14, Type (0, 0), BuildingBlock: EZIPEK_clean_linker_0, # of connection points: 2
#     Edge 15, Type (0, 0), BuildingBlock: EZIPEK_clean_linker_0, # of connection points: 2
#     Edge 16, Type (0, 0), BuildingBlock: EZIPEK_clean_linker_0, # of connection points: 2
#     Edge 17, Type (0, 0), BuildingBlock: EZIPEK_clean_linker_0, # of connection points: 2
#     Edge 18, Type (0, 0), BuildingBlock: EZIPEK_clean_linker_0, # of connection points: 2
#     Edge 19, Type (0, 0), BuildingBlock: EZIPEK_clean_linker_0, # of connection points: 2
#     Edge 20, Type (0, 0), BuildingBlock: EZIPEK_clean_linker_0, # of connection points: 2
#     Edge 21, Type (0, 0), BuildingBlock: EZIPEK_clean_linker_0, # of connection points: 2
#     Edge 22, Type (0, 0), BuildingBlock: EZIPEK_clean_linker_0, # of connection points: 2
#     Edge 23, Type (0, 0), BuildingBlock: EZIPEK_clean_linker_0, # of connection points: 2
#     Edge 24, Type (0, 0), BuildingBlock: EZIPEK_clean_linker_0, # of connection points: 2
#     Edge 25, Type (0, 0), BuildingBlock: EZIPEK_clean_linker_0, # of connection points: 2
#     Edge 26, Type (0, 0), BuildingBlock: EZIPEK_clean_linker_0, # of connection points: 2
#     Edge 27, Type (0, 0), BuildingBlock: EZIPEK_clean_linker_0, # of connection points: 2
#     Edge 28, Type (0, 0), BuildingBlock: EZIPEK_clean_linker_0, # of connection points: 2
#     Edge 29, Type (0, 0), BuildingBlock: EZIPEK_clean_linker_0, # of connection points: 2
#     Edge 30, Type (0, 0), BuildingBlock: EZIPEK_clean_linker_0, # of connection points: 2
#     Edge 31, Type (0, 0), BuildingBlock: EZIPEK_clean_linker_0, # of connection points: 2
#     Edge 32, Type (0, 0), BuildingBlock: EZIPEK_clean_linker_0, # of connection points: 2
#     Edge 33, Type (0, 0), BuildingBlock: EZIPEK_clean_linker_0, # of connection points: 2
#     Edge 34, Type (0, 0), BuildingBlock: EZIPEK_clean_linker_0, # of connection points: 2
#     Edge 35, Type (0, 0), BuildingBlock: EZIPEK_clean_linker_0, # of connection points: 2
# Relax obj value: 0.584
# Max RMSD: 0.243
# Mean RMSD: 0.164
data_MOF--net-snz--node1-HISSIN_clean_sbu_0--edge1-EZIPEK_clean_linker_0
_symmetry_space_group_name_H-M    P1
_symmetry_Int_Tables_number       1
_symmetry_cell_setting            triclinic
loop_
_symmetry_equiv_pos_as_xyz
'x, y, z'
_cell_length_a     55.938158
_cell_length_b     42.024522
_cell_length_c     12.746762
_cell_angle_alpha  96.945652
_cell_angle_beta   96.976708
_cell_angle_gamma 122.10898
loop_
_atom_site_label
_atom_site_type_symbol
_atom_site_fract_x
_atom_site_fract_y
_atom_site_fract_z
_atom_type_partial_charge
Eu0 Eu 0.1427 0.4869 0.28042 0.0
Eu1 Eu 0.09232 0.50029 0.25351 0.0
C2 C 0.11639 0.49142 0.50993 0.0
C3 C 0.19127 0.4474 0.35316 0.0
C4 C 0.18413 0.43538 0.44935 0.0
C5 C 0.21601 0.41391 0.34558 0.0
C6 C 0.19224 0.41203 0.49137 0.0
C7 C 0.20796 0.43715 0.30373 0.0
C8 C 0.20634 0.39768 0.43556 0.0
C9 C 0.18377 0.47293 0.30693 0.0
O10 O 0.13099 0.56274 0.27945 0.0
O11 O 0.16787 0.55427 0.32142 0.0
C12 C 0.15878 0.57765 0.31423 0.0
O13 O 0.13725 0.49149 0.09086 0.0
O14 O 0.07355 0.53048 0.31997 0.0
O15 O 0.04953 0.48524 0.17559 0.0
O16 O 0.10073 0.50125 1.0721 0.0
C17 C 0.11895 0.49599 1.02392 0.0
O18 O 0.10208 0.42414 0.23276 0.0
O19 O 0.06659 0.43479 0.1889 0.0
O20 O 0.09806 0.4956 0.4427 0.0
O21 O 0.16297 0.45751 0.22089 0.0
O22 O 0.18321 0.49842 0.37362 0.0
O23 O 0.13462 0.48642 0.46188 0.0
C24 C 0.03969 0.53382 0.19886 0.0
C25 C 0.04606 0.54667 0.10294 0.0
C26 C 1.01057 0.56071 0.20978 0.0
C27 C 0.03446 0.56606 1.06017 0.0
C28 C 1.02211 0.54132 0.25232 0.0
C29 C 1.01641 0.57286 0.11285 0.0
C30 C 0.05018 0.51156 0.24348 0.0
C31 C 0.0748 0.41065 0.18923 0.0
H32 H 0.17273 0.44465 0.49357 0.0
H33 H 0.23056 0.40969 0.307 0.0
H34 H 0.18803 0.40689 0.56984 0.0
H35 H 0.21538 0.4478 0.23308 0.0
H36 H 0.05967 0.5413 1.06064 0.0
H37 H 0.99676 0.56578 0.25157 0.0
H38 H 0.03922 0.57533 0.98536 0.0
H39 H 1.01699 0.53168 0.32647 0.0
Eu40 Eu 0.64873 0.52148 1.03373 0.0
Eu41 Eu 0.59412 0.5255 1.01085 0.0
C42 C 0.62067 0.52463 0.77754 0.0
C43 C 0.72424 0.54094 1.00172 0.0
C44 C 0.72958 0.56469 0.92668 0.0
C45 C 0.77162 0.55094 1.00298 0.0
C46 C 0.75573 0.58142 0.89043 0.0
C47 C 0.74558 0.53428 1.03906 0.0
C48 C 0.77725 0.575 0.92881 0.0
C49 C 0.69674 0.52242 1.0416 0.0
O50 O 0.57211 0.46004 0.97236 0.0
O51 O 0.61127 0.4557 0.99695 0.0
C52 C 0.58266 0.43853 0.97105 0.0
O53 O 0.64065 0.51794 0.21691 0.0
O54 O 0.54834 0.50101 0.94437 0.0
O55 O 0.57269 0.55273 1.07034 0.0
O56 O 0.6026 0.52419 0.20022 0.0
C57 C 0.62162 0.5211 0.26609 0.0
O58 O 0.66898 0.58758 1.0798 0.0
O59 O 0.62939 0.59027 1.0376 0.0
O60 O 0.6008 0.526 0.82555 0.0
O61 O 0.69358 0.54395 0.11325 0.0
O62 O 0.67261 0.49829 0.97074 0.0
O63 O 0.64088 0.52391 0.8447 0.0
C64 C 0.52591 0.50565 1.08634 0.0
C65 C 0.52423 0.47591 0.13244 0.0
C66 C 0.49113 0.50446 0.1865 0.0
C67 C 0.50621 0.46065 0.20488 0.0
C68 C 0.50911 0.51966 0.11359 0.0
C69 C 0.48972 0.47505 0.23345 0.0
C70 C 0.547 0.52408 1.01793 0.0
C71 C 0.65763 0.60829 1.07314 0.0
H72 H 0.71355 0.57029 0.89611 0.0
H73 H 0.78745 0.54498 1.03308 0.0
H74 H 0.75926 0.59956 0.8327 0.0
H75 H 0.74208 0.51602 0.09645 0.0
H76 H 0.5373 0.46497 0.11404 0.0
H77 H 0.47859 0.51599 0.20752 0.0
H78 H 0.50551 0.43809 0.24025 0.0
H79 H 0.5103 0.54284 1.08011 0.0
Eu80 Eu 0.58064 0.04008 0.82588 0.0
Eu81 Eu 0.64354 0.11538 0.88675 0.0
C82 C 0.61315 0.08346 0.10376 0.0
C83 C 0.50982 0.96379 0.88318 0.0
C84 C 0.50713 0.99013 0.95153 0.0
C85 C 0.47814 0.91336 0.97084 0.0
C86 C 0.49003 0.97812 1.02851 0.0
C87 C 0.49505 0.92529 0.89325 0.0
C88 C 0.47565 0.93972 1.03952 0.0
C89 C 0.52985 0.97674 0.80833 0.0
O90 O 0.64245 0.06625 0.94968 0.0
O91 O 0.61019 0.01891 0.80937 0.0
C92 C 0.63225 0.03247 0.88973 0.0
O93 O 0.58765 0.0471 0.6437 0.0
O94 O 0.69098 0.1637 0.95347 0.0
O95 O 0.67739 0.12108 0.80707 0.0
O96 O 0.63054 0.10516 0.69108 0.0
C97 C 0.60917 0.07639 0.60991 0.0
O98 O 0.56906 0.08436 0.83069 0.0
O99 O 0.61408 0.14154 0.87242 0.0
O100 O 0.63592 0.11139 1.07002 0.0
O101 O 0.53356 1.00549 0.76658 0.0
O102 O 0.55425 0.9802 0.84079 0.0
O103 O 0.591 0.05537 1.02285 0.0
C104 C 0.72861 0.15272 0.88858 0.0
C105 C 0.73115 0.12679 0.81537 0.0
C106 C 0.78208 0.18651 0.95778 0.0
C107 C 0.75807 0.13078 0.81237 0.0
C108 C 0.75503 0.1828 0.95989 0.0
C109 C 0.78455 0.1609 0.88269 0.0
C110 C 0.6996 0.15067 0.87676 0.0
C111 C 0.58468 0.12217 0.84881 0.0
H112 H 0.51865 0.02014 0.94678 0.0
H113 H 0.4672 0.88362 0.97806 0.0
H114 H 0.48841 0.9989 1.08084 0.0
H115 H 0.49705 0.90458 0.84245 0.0
H116 H 0.71216 0.10347 0.75667 0.0
H117 H 0.80139 0.2102 1.01434 0.0
H118 H 0.75818 0.11024 0.75264 0.0
H119 H 0.755 0.20415 1.01655 0.0
Eu120 Eu 0.80268 0.85993 0.28082 0.0
Eu121 Eu 0.7523 0.87384 0.2543 0.0
C122 C 0.77554 0.86407 0.51003 0.0
C123 C 0.85511 0.82621 0.34501 0.0
C124 C 0.88009 0.84563 0.42906 0.0
C125 C 0.85322 0.7669 0.34552 0.0
C126 C 0.89145 0.82592 0.47114 0.0
C127 C 0.8418 0.78656 0.30361 0.0
C128 C 0.87819 0.78643 0.42948 0.0
C129 C 0.84472 0.84826 0.29616 0.0
O130 O 0.7934 0.93643 0.30547 0.0
O131 O 0.82862 0.92524 0.34802 0.0
C132 C 0.82061 0.9496 0.34946 0.0
O133 O 0.79766 0.86587 0.09255 0.0
O134 O 0.70918 0.85807 0.17226 0.0
O135 O 0.73523 0.90875 0.30044 0.0
O136 O 0.76022 0.87336 1.07241 0.0
C137 C 0.77896 0.86935 1.02494 0.0
O138 O 0.76376 0.79731 0.24596 0.0
O139 O 0.72679 0.80633 0.21674 0.0
O140 O 0.75769 0.86952 0.44402 0.0
O141 O 0.82159 0.82951 0.21838 0.0
O142 O 0.84562 0.87549 0.36077 0.0
O143 O 0.7934 0.85816 0.46113 0.0
C144 C 0.70142 0.90906 0.16378 0.0
C145 C 0.71969 0.94848 0.16342 0.0
C146 C 0.6612 0.90867 1.06068 0.0
C147 C 0.70874 0.96773 0.11317 0.0
C148 C 0.67211 0.88947 0.11072 0.0
C149 C 0.67926 0.94816 1.06215 0.0
C150 C 0.71155 0.88844 0.22524 0.0
C151 C 0.73585 0.78272 0.21698 0.0
H152 H 0.89108 0.87626 0.46152 0.0
H153 H 0.84252 0.73641 0.31246 0.0
H154 H 0.91069 0.8415 0.53599 0.0
H155 H 0.82272 0.77074 0.23812 0.0
H156 H 0.74234 0.96466 0.20369 0.0
H157 H 0.63841 0.8928 1.02251 0.0
H158 H 0.72319 0.99816 0.11604 0.0
H159 H 0.65738 0.85927 0.11006 0.0
Eu160 Eu 0.29648 0.83589 0.5274 0.0
Eu161 Eu 0.25066 0.84026 0.51562 0.0
C162 C 0.27252 0.83974 0.27526 0.0
C163 C 0.36827 0.85477 0.50386 0.0
C164 C 0.37297 0.83086 0.43462 0.0
C165 C 0.40335 0.90957 0.43649 0.0
C166 C 0.39198 0.84589 0.36509 0.0
C167 C 0.38419 0.89452 0.50561 0.0
C168 C 0.40687 0.88521 0.36397 0.0
C169 C 0.34399 0.83721 0.56079 0.0
O170 O 0.22507 0.77331 0.46268 0.0
O171 O 0.26411 0.77003 0.48179 0.0
C172 C 0.23581 0.75188 0.45655 0.0
O173 O 0.27811 0.83713 0.69248 0.0
O174 O 0.2086 0.83156 0.45276 0.0
O175 O 0.22725 0.85234 0.62358 0.0
O176 O 0.27468 0.83733 0.68381 0.0
C177 C 0.26246 0.83823 0.76721 0.0
O178 O 0.32289 0.90138 0.54293 0.0
O179 O 0.28543 0.9071 0.55218 0.0
O180 O 0.25404 0.84244 0.32832 0.0
O181 O 0.34015 0.86042 0.62314 0.0
O182 O 0.31954 0.80795 0.50096 0.0
O183 O 0.29191 0.83723 0.33923 0.0
C184 C 0.17501 0.81805 0.57067 0.0
C185 C 0.17064 0.80984 0.67345 0.0
C186 C 0.12295 0.79054 0.51554 0.0
C187 C 0.14289 0.79247 0.69689 0.0
C188 C 0.15065 0.8079 0.4921 0.0
C189 C 0.11871 0.78295 0.6186 0.0
C190 C 0.20481 0.8408 0.54767 0.0
C191 C 0.31372 0.92411 0.56024 0.0
H192 H 0.36093 0.80015 0.4308 0.0
H193 H 0.41465 0.93999 0.43682 0.0
H194 H 0.39442 0.82664 0.30975 0.0
H195 H 0.38104 0.91385 0.55714 0.0
H196 H 0.18875 0.81749 0.7367 0.0
H197 H 0.10482 0.78357 0.45348 0.0
H198 H 0.14036 0.78699 0.777 0.0
H199 H 0.15314 0.81424 0.41275 0.0
Eu200 Eu 0.25375 0.24419 0.6565 0.0
Eu201 Eu 0.30591 0.30798 0.69901 0.0
C202 C 0.26878 0.26093 0.91699 0.0
C203 C 0.17051 0.20851 0.68084 0.0
C204 C 0.16753 0.23444 0.75196 0.0
C205 C 0.11711 0.17416 0.60835 0.0
C206 C 0.14043 0.23022 0.75234 0.0
C207 C 0.14434 0.17811 0.60894 0.0
C208 C 0.11419 0.19986 0.68115 0.0
C209 C 0.19999 0.21176 0.69393 0.0
O210 O 0.32309 0.2699 0.67557 0.0
O211 O 0.28061 0.21466 0.6736 0.0
C212 C 0.30936 0.23332 0.67762 0.0
O213 O 0.25689 0.2419 0.46759 0.0
O214 O 0.35116 0.34148 0.78848 0.0
O215 O 0.33382 0.36996 0.7108 0.0
O216 O 0.30022 0.29806 0.50547 0.0
C217 C 0.27833 0.26905 0.42766 0.0
O218 O 0.24783 0.28343 0.56407 0.0
O219 O 0.27871 0.3336 0.69667 0.0
O220 O 0.28654 0.28361 0.85442 0.0
O221 O 0.20681 0.19389 0.62318 0.0
O222 O 0.22302 0.2449 0.74585 0.0
O223 O 0.28248 0.27851 0.84149 0.0
C224 C 0.38002 0.38749 0.69075 0.0
C225 C 0.37994 0.36226 0.60724 0.0
C226 C 0.41823 0.44174 0.63225 0.0
C227 C 0.39865 0.37659 0.53657 0.0
C228 C 0.3995 0.42735 0.70326 0.0
C229 C 0.41772 0.41649 0.54742 0.0
C230 C 0.35719 0.37237 0.75378 0.0
C231 C 0.2571 0.31812 0.61354 0.0
H232 H 0.18636 0.25805 0.81071 0.0
H233 H 0.09802 0.15029 0.55129 0.0
H234 H 0.13999 0.25084 0.81049 0.0
H235 H 0.14471 0.15681 0.5535 0.0
H236 H 0.3647 0.33142 0.59427 0.0
H237 H 0.43265 0.47261 0.64185 0.0
H238 H 0.39756 0.35653 0.47118 0.0
H239 H 0.39958 0.44734 0.76573 0.0
Eu240 Eu 0.45139 0.18369 0.64738 0.0
Eu241 Eu 0.44656 0.17916 0.88353 0.0
C242 C 0.40539 0.09697 0.69718 0.0
C243 C 0.46884 0.2391 0.44653 0.0
C244 C 0.45216 0.25361 0.47138 0.0
C245 C 0.50767 0.30386 0.44128 0.0
C246 C 0.46297 0.29256 0.48077 0.0
C247 C 0.49677 0.26473 0.43213 0.0
C248 C 0.49078 0.31866 0.46389 0.0
C249 C 0.46001 0.20027 0.462 0.0
O250 O 0.48098 0.16373 0.87435 0.0
O251 O 0.48599 0.16997 0.702 0.0
C252 C 0.49431 0.16347 0.79492 0.0
O253 O 0.48302 0.24825 0.72998 0.0
O254 O 0.46583 0.18705 1.05253 0.0
O255 O 0.42289 0.1751 1.01163 0.0
O256 O 0.48121 0.24445 0.90428 0.0
C257 C 0.49233 0.26556 0.83328 0.0
O258 O 0.41631 0.19784 0.65781 0.0
O259 O 0.40944 0.18781 0.82527 0.0
O260 O 0.41452 0.1142 0.80176 0.0
O261 O 0.47914 0.2 0.53053 0.0
O262 O 0.43394 0.17832 0.47806 0.0
O263 O 0.4167 0.11786 0.62457 0.0
C264 C 0.45761 0.23233 0.13981 0.0
C265 C 0.48676 0.26192 0.14979 0.0
C266 C 0.44721 0.28135 0.18016 0.0
C267 C 0.49591 0.30053 0.17211 0.0
C268 C 0.43801 0.24262 0.15597 0.0
C269 C 0.47653 0.31137 0.1902 0.0
C270 C 0.44677 0.19231 1.0857 0.0
C271 C 0.40183 0.19584 0.73462 0.0
H272 H 0.43086 0.23511 0.48682 0.0
H273 H 0.52913 0.32194 0.42714 0.0
H274 H 0.44892 0.30163 0.49982 0.0
H275 H 0.51051 0.25465 0.41638 0.0
H276 H 0.50256 0.25538 0.13586 0.0
H277 H 0.43109 0.28734 0.19238 0.0
H278 H 0.51857 0.32172 0.17771 0.0
H279 H 0.41525 0.22059 0.14602 0.0
Eu280 Eu 0.94759 0.15282 0.85027 0.0
Eu281 Eu 0.94942 0.2062 0.69779 0.0
C282 C 0.98496 0.24812 0.94056 0.0
C283 C 0.92637 0.10189 1.06691 0.0
C284 C 0.90644 0.12407 1.05508 0.0
C285 C 0.95284 0.13484 0.31969 0.0
C286 C 0.90719 0.15524 0.16512 0.0
C287 C 0.9479 0.10603 0.19199 0.0
C288 C 0.93132 0.16352 0.32127 0.0
C289 C 0.93836 0.10328 0.97221 0.0
O290 O 0.98788 0.19844 0.6763 0.0
O291 O 0.98853 0.16396 0.79944 0.0
C292 C 1.00053 0.18328 0.7268 0.0
O293 O 0.92888 0.11143 0.68616 0.0
O294 O 0.97626 0.2638 0.66644 0.0
O295 O 0.93374 0.22354 0.56576 0.0
O296 O 0.91403 0.14375 0.59988 0.0
C297 C 0.91153 0.11089 0.60654 0.0
O298 O 0.9099 0.16164 0.87535 0.0
O299 O 0.90852 0.19497 0.74977 0.0
O300 O 0.9671 0.24703 0.862 0.0
O301 O 0.92075 0.09526 0.88175 0.0
O302 O 0.96322 0.13558 0.98274 0.0
O303 O 0.98309 0.21558 0.94642 0.0
C304 C 0.97047 0.25718 0.48122 0.0
C305 C 0.99038 0.23496 0.49268 0.0
C306 C 0.94389 0.22426 0.22843 0.0
C307 C 0.98959 0.20384 0.38251 0.0
C308 C 0.94889 0.25307 0.35629 0.0
C309 C 0.96543 0.19558 0.22661 0.0
C310 C 0.95859 0.25583 0.57618 0.0
C311 C 0.89703 0.17643 0.82445 0.0
H312 H 0.89207 0.11646 0.97909 0.0
H313 H 0.96521 0.13507 0.3926 0.0
H314 H 0.89323 0.16572 0.15375 0.0
H315 H 0.96053 0.09359 0.18865 0.0
H316 H 1.00471 0.24244 0.56863 0.0
H317 H 0.93146 0.224 0.15567 0.0
H318 H 1.00352 0.19331 0.39374 0.0
H319 H 0.93626 0.26551 0.35984 0.0
Eu320 Eu 0.93478 0.64171 0.66504 0.0
Eu321 Eu 0.95983 0.71514 0.87399 0.0
C322 C 0.92724 0.71148 0.63366 0.0
C323 C 0.88049 0.55987 0.44461 0.0
C324 C 0.87598 0.54085 0.33962 0.0
C325 C 0.84377 0.57165 0.38428 0.0
C326 C 0.85709 0.54016 0.25576 0.0
C327 C 0.86189 0.57115 0.46811 0.0
C328 C 0.84428 0.56116 0.27542 0.0
C329 C 0.90865 0.57814 0.51863 0.0
O330 O 0.91368 0.6739 0.88845 0.0
O331 O 0.89508 0.63176 0.72421 0.0
C332 C 0.89155 0.64483 0.81586 0.0
O333 O 0.96022 0.633 0.79457 0.0
O334 O 0.96199 0.76627 0.95166 0.0
O335 O 0.9858 0.74722 1.0381 0.0
O336 O 0.96229 0.67036 0.94668 0.0
C337 C 0.96596 0.64426 0.89968 0.0
O338 O 0.9816 0.68131 0.65401 0.0
O339 O 0.99917 0.73242 0.79994 0.0
O340 O 0.93892 0.72817 0.73694 0.0
O341 O 0.9284 0.61156 0.50235 0.0
O342 O 0.90814 0.57892 0.62103 0.0
O343 O 0.92504 0.68009 0.58742 0.0
C344 C 0.95459 0.75643 0.12703 0.0
C345 C 0.92729 0.75075 0.09726 0.0
C346 C 0.93496 0.71106 0.24402 0.0
C347 C 0.90351 0.7218 0.12913 0.0
C348 C 0.95883 0.73967 0.21069 0.0
C349 C 0.90687 0.69907 0.19326 0.0
C350 C 0.97333 0.76598 1.04697 0.0
C351 C 1.00286 0.71479 0.71627 0.0
H352 H 0.8894 0.53057 0.32038 0.0
H353 H 0.83302 0.58561 0.40696 0.0
H354 H 0.85625 0.5277 0.17545 0.0
H355 H 0.86406 0.5844 0.54979 0.0
H356 H 0.92334 0.76439 1.0367 0.0
H357 H 0.93811 0.69463 0.29683 0.0
H358 H 0.88219 0.71441 0.09407 0.0
H359 H 0.97977 0.74432 0.23832 0.0
C360 C 0.11577 0.52137 0.83453 0.0
C361 C 0.11845 0.49488 0.89117 0.0
C362 C 0.11942 0.46597 0.69896 0.0
C363 C 0.11688 0.49255 0.64253 0.0
N364 N 0.10989 0.54436 0.66948 0.0
N365 N 0.12591 0.44344 0.864 0.0
C366 C 0.11421 0.51957 0.71508 0.0
C367 C 0.12123 0.46796 0.81852 0.0
N368 N 0.11702 0.55116 0.89737 0.0
N369 N 0.11774 0.43587 0.63583 0.0
H370 H 0.12428 0.44045 0.94309 0.0
H371 H 0.13295 0.42757 0.82604 0.0
H372 H 0.11557 0.43231 0.55219 0.0
H373 H 0.11558 0.41234 0.66321 0.0
H374 H 0.11911 0.57468 0.87022 0.0
H375 H 0.11868 0.55438 0.98068 0.0
H376 H 0.10291 0.56038 0.70696 0.0
H377 H 0.11191 0.54759 0.59072 0.0
C378 C 0.61632 0.54818 0.5854 0.0
C379 C 0.62064 0.52359 0.64525 0.0
C380 C 0.62502 0.49648 0.45736 0.0
C381 C 0.62127 0.52165 0.39808 0.0
N382 N 0.61841 0.57699 0.426 0.0
N383 N 0.62374 0.46851 0.61863 0.0
C384 C 0.61787 0.54838 0.46854 0.0
C385 C 0.62395 0.49673 0.57492 0.0
N386 N 0.61026 0.57201 0.64053 0.0
N387 N 0.62983 0.4715 0.40065 0.0
H388 H 0.62211 0.46656 0.69846 0.0
H389 H 0.62245 0.44494 0.5747 0.0
H390 H 0.62781 0.46727 0.31702 0.0
H391 H 0.63712 0.45628 0.43599 0.0
H392 H 0.60215 0.58612 0.60342 0.0
H393 H 0.61162 0.57586 0.72379 0.0
H394 H 0.61992 0.60057 0.47113 0.0
H395 H 0.62034 0.57941 0.34672 0.0
C396 C 0.58524 0.06757 0.39513 0.0
C397 C 0.60986 0.07747 0.47854 0.0
C398 C 0.63643 0.09094 0.31748 0.0
C399 C 0.6122 0.08243 0.23488 0.0
N400 N 0.56174 0.05886 0.20663 0.0
N401 N 0.66058 0.10235 0.50645 0.0
C402 C 0.5863 0.06963 0.27841 0.0
C403 C 0.6357 0.09034 0.43477 0.0
N404 N 0.56051 0.05829 0.42899 0.0
N405 N 0.66023 0.09659 0.28233 0.0
H406 H 0.66089 0.09794 0.58505 0.0
H407 H 0.68108 0.11824 0.49001 0.0
H408 H 0.6617 0.09617 0.20159 0.0
H409 H 0.67728 0.09774 0.3298 0.0
H410 H 0.54256 0.05521 0.3821 0.0
H411 H 0.55847 0.05603 0.50823 0.0
H412 H 0.54103 0.0433 0.22118 0.0
H413 H 0.56192 0.06452 0.12936 0.0
C414 C 0.77961 0.83936 0.70039 0.0
C415 C 0.77584 0.86488 0.64261 0.0
C416 C 0.7747 0.89377 0.8345 0.0
C417 C 0.77872 0.86851 0.89248 0.0
N418 N 0.78046 0.81237 0.86204 0.0
N419 N 0.7754 0.92203 0.67481 0.0
C420 C 0.78036 0.84058 0.81933 0.0
C421 C 0.77451 0.89304 0.71615 0.0
N422 N 0.78269 0.81304 0.64083 0.0
N423 N 0.7708 0.91941 0.89313 0.0
H424 H 0.77573 0.92344 0.59408 0.0
H425 H 0.77858 0.94661 0.7214 0.0
H426 H 0.77418 0.92466 0.97727 0.0
H427 H 0.76285 0.93409 0.85861 0.0
H428 H 0.79042 0.79795 0.67414 0.0
H429 H 0.77854 0.80724 0.55654 0.0
H430 H 0.77764 0.78788 0.81664 0.0
H431 H 0.78104 0.81174 0.94359 0.0
C432 C 0.28124 0.82248 0.95622 0.0
C433 C 0.26931 0.84041 0.89885 0.0
C434 C 0.26338 0.86167 1.08893 0.0
C435 C 0.27196 0.84013 0.14452 0.0
N436 N 0.28533 0.79446 0.11155 0.0
N437 N 0.24424 0.87212 0.923 0.0
C438 C 0.28016 0.8195 1.07214 0.0
C439 C 0.25906 0.8582 0.9698 0.0
N440 N 0.29367 0.80762 0.90031 0.0
N441 N 0.26091 0.88821 0.1508 0.0
H442 H 0.24192 0.87333 0.84152 0.0
H443 H 0.23236 0.87985 0.96349 0.0
H444 H 0.26513 0.89356 0.23508 0.0
H445 H 0.25827 0.90825 0.11987 0.0
H446 H 0.30592 0.79839 0.93664 0.0
H447 H 0.29371 0.80762 0.81861 0.0
H448 H 0.28821 0.77534 1.06401 0.0
H449 H 0.28367 0.7898 0.18945 0.0
C450 C 0.25022 0.25829 0.10199 0.0
C451 C 0.27468 0.26955 1.05105 0.0
C452 C 0.30211 0.28152 0.24631 0.0
C453 C 0.27726 0.26928 0.29649 0.0
N454 N 0.22669 0.24507 0.25726 0.0
N455 N 0.32568 0.29725 0.0897 0.0
C456 C 0.25129 0.25751 0.21906 0.0
C457 C 0.30105 0.28277 0.12842 0.0
N458 N 0.22543 0.25044 1.03791 0.0
N459 N 0.32694 0.28977 0.31064 0.0
H460 H 0.32548 0.29766 1.00808 0.0
H461 H 0.34639 0.31135 0.1379 0.0
H462 H 0.32851 0.28789 0.39161 0.0
H463 H 0.34528 0.29543 0.28321 0.0
H464 H 0.20772 0.24696 1.06624 0.0
H465 H 0.2233 0.25083 0.95585 0.0
H466 H 0.20594 0.22938 0.20848 0.0
H467 H 0.22677 0.24924 0.33942 0.0
C468 C 0.52375 0.37845 0.40303 0.0
C469 C 0.49971 0.35864 0.45093 0.0
C470 C 0.47006 0.35857 0.2964 0.0
C471 C 0.48775 0.353 0.23672 0.0
N472 N 0.53789 0.39441 0.2323 0.0
N473 N 0.46148 0.36695 0.47864 0.0
C474 C 0.51736 0.37653 0.28994 0.0
C475 C 0.47665 0.36207 0.41034 0.0
N476 N 0.55103 0.39543 0.46263 0.0
N477 N 0.44726 0.35821 0.24387 0.0
H478 H 0.46746 0.36984 0.5619 0.0
H479 H 0.44381 0.3684 0.45275 0.0
H480 H 0.44338 0.35529 0.15985 0.0
H481 H 0.43282 0.36068 0.28284 0.0
H482 H 0.56939 0.40869 0.43034 0.0
H483 H 0.55449 0.39536 0.54502 0.0
H484 H 0.55993 0.41248 0.26733 0.0
H485 H 0.53187 0.39147 0.14903 0.0
C486 C 0.9083 0.10762 0.22103 0.0
C487 C 0.95187 0.16323 0.17496 0.0
C488 C 0.98846 0.25148 0.32683 0.0
C489 C 0.9449 0.19586 0.37299 0.0
N490 N 0.8905 0.12957 0.39014 0.0
N491 N 1.00611 0.22963 0.15702 0.0
C492 C 0.91461 0.14351 0.3368 0.0
C493 C 0.98211 0.21561 0.21093 0.0
N494 N 0.88647 0.0694 0.18789 0.0
N495 N 1.01019 0.28975 0.35955 0.0
H496 H 1.00756 0.21016 0.1036 0.0
H497 H 0.02394 0.25804 0.18124 0.0
H498 H 1.01262 0.30821 0.42856 0.0
H499 H 0.02552 0.30206 0.31278 0.0
H500 H 0.87101 0.05715 0.23422 0.0
H501 H 0.88401 0.05096 0.11882 0.0
H502 H 0.87257 0.10124 0.36527 0.0
H503 H 0.88906 0.14904 0.44362 0.0
C504 C 0.83628 0.61174 0.22791 0.0
C505 C 0.84129 0.58294 0.19407 0.0
C506 C 0.88138 0.62764 0.12161 0.0
C507 C 0.88202 0.65879 0.18411 0.0
N508 N 0.85682 0.68019 0.28148 0.0
N509 N 0.85122 0.55939 1.0369 0.0
C510 C 0.85798 0.65081 0.23022 0.0
C511 C 0.858 0.58956 0.11572 0.0
N512 N 0.81078 0.60109 0.25638 0.0
N513 N 0.9032 0.63404 1.07105 0.0
H514 H 0.8323 0.53222 1.02851 0.0
H515 H 0.86317 0.56178 0.97849 0.0
H516 H 0.92056 0.6614 1.07074 0.0
H517 H 0.90491 0.61199 1.03458 0.0
H518 H 0.80437 0.61992 0.27419 0.0
H519 H 0.79528 0.57214 0.2535 0.0
H520 H 0.84137 0.67611 0.32602 0.0
H521 H 0.87226 0.70893 0.28336 0.0
C522 C 0.22638 0.34591 0.62713 0.0
C523 C 0.24408 0.33881 0.57065 0.0
C524 C 0.22635 0.35458 0.41165 0.0
C525 C 0.21394 0.36987 0.4748 0.0
N526 N 0.18395 0.34833 0.60479 0.0
N527 N 0.26311 0.34093 0.40987 0.0
C528 C 0.20896 0.35742 0.57401 0.0
C529 C 0.24458 0.34435 0.46306 0.0
N530 N 0.22547 0.34077 0.73061 0.0
N531 N 0.21694 0.34364 0.30168 0.0
H532 H 0.27802 0.33583 0.44689 0.0
H533 H 0.26577 0.34755 0.3341 0.0
H534 H 0.19961 0.34405 0.26262 0.0
H535 H 0.2232 0.32896 0.25234 0.0
H536 H 0.21519 0.34917 0.77909 0.0
H537 H 0.23677 0.33079 0.7704 0.0
H538 H 0.17781 0.33621 0.67131 0.0
H539 H 0.16703 0.34597 0.55196 0.0
C540 C 0.70092 0.67571 1.05972 0.0
C541 C 0.6772 0.65328 0.10859 0.0
C542 C 0.69191 0.71563 0.23065 0.0
C543 C 0.71456 0.73806 0.17763 0.0
N544 N 0.73671 0.73833 1.02714 0.0
N545 N 0.64899 0.65386 0.23671 0.0
C546 C 0.71801 0.71757 1.08876 0.0
C547 C 0.67235 0.67401 0.19226 0.0
N548 N 0.70727 0.65703 0.98416 0.0
N549 N 0.68999 0.73389 0.32231 0.0
H550 H 0.63582 0.62389 0.21928 0.0
H551 H 0.64164 0.66672 0.28665 0.0
H552 H 0.70357 0.7636 0.35222 0.0
H553 H 0.67663 0.71962 0.37358 0.0
H554 H 0.72634 0.67055 0.95629 0.0
H555 H 0.69417 0.62738 0.95316 0.0
H556 H 0.73828 0.72615 0.95435 0.0
H557 H 0.74887 0.76832 1.04331 0.0
C558 C 0.47202 0.93197 0.23137 0.0
C559 C 0.4582 0.92707 0.12393 0.0
C560 C 0.41132 0.89839 0.17723 0.0
C561 C 0.42477 0.90039 0.2821 0.0
N562 N 0.46708 0.9154 0.40729 0.0
N563 N 0.41465 0.90313 0.99071 0.0
C564 C 0.45494 0.91631 0.30881 0.0
C565 C 0.42781 0.90961 0.09587 0.0
N566 N 0.50156 0.95216 0.25972 0.0
N567 N 0.38289 0.88658 0.15638 0.0
H568 H 0.42611 0.91246 0.9301 0.0
H569 H 0.39233 0.88658 0.96153 0.0
H570 H 0.36997 0.87733 0.21291 0.0
H571 H 0.37248 0.88838 1.08614 0.0
H572 H 0.51327 0.96073 0.33912 0.0
H573 H 0.5147 0.96281 0.20452 0.0
H574 H 0.48816 0.92244 0.42789 0.0
H575 H 0.45539 0.90507 0.46676 0.0
C576 C 0.54534 0.12701 0.73329 0.0
C577 C 0.56603 0.14009 0.83329 0.0
C578 C 0.54217 0.17264 0.90538 0.0
C579 C 0.51923 0.15539 0.80931 0.0
N580 N 0.49765 0.10869 0.63962 0.0
N581 N 0.58046 0.17206 1.02038 0.0
C582 C 0.52075 0.13084 0.72541 0.0
C583 C 0.56335 0.1621 0.92056 0.0
N584 N 0.54951 0.11124 0.64302 0.0
N585 N 0.54477 0.20069 0.98159 0.0
H586 H 0.59633 0.16609 1.03327 0.0
H587 H 0.57759 0.18374 0.09079 0.0
H588 H 0.53089 0.21008 0.97332 0.0
H589 H 0.56232 0.21731 1.04737 0.0
H590 H 0.53747 0.10462 0.56526 0.0
H591 H 0.56723 0.10896 0.64473 0.0
H592 H 0.49573 0.08722 0.58188 0.0
H593 H 0.47882 0.10849 0.63277 0.0
C594 C 1.00123 0.30964 1.08296 0.0
C595 C 1.0086 0.28765 1.01647 0.0
C596 C 0.05942 0.34599 1.06227 0.0
C597 C 0.05253 0.3672 0.13513 0.0
N598 N 1.01715 0.3633 0.23295 0.0
N599 N 0.04717 0.28393 0.96423 0.0
C600 C 0.02345 0.34725 0.15012 0.0
C601 C 0.03848 0.3055 1.01384 0.0
N602 N 0.97276 0.29474 1.08209 0.0
N603 N 0.08531 0.36495 1.03193 0.0
H604 H 0.03288 0.25501 0.92585 0.0
H605 H 0.06885 0.29375 0.96981 0.0
H606 H 0.1007 0.39434 1.05977 0.0
H607 H 0.09027 0.35243 0.96999 0.0
H608 H 0.96547 0.31069 0.1179 0.0
H609 H 0.95618 0.26706 1.0394 0.0
H610 H 0.9974 0.34884 0.25603 0.0
H611 H 0.03276 0.38931 0.28686 0.0
C612 C 0.852 0.65039 0.87901 0.0
C613 C 0.86125 0.62672 0.8367 0.0
C614 C 0.81257 0.56959 0.83121 0.0
C615 C 0.80563 0.59313 0.89195 0.0
N616 N 0.82049 0.65656 0.98316 0.0
N617 N 0.85001 0.56224 0.78003 0.0
C618 C 0.82584 0.63375 0.91818 0.0
C619 C 0.84128 0.58586 0.81346 0.0
N620 N 0.86729 0.68853 0.87619 0.0
N621 N 0.79144 0.53166 0.78804 0.0
H622 H 0.87117 0.57227 0.77422 0.0
H623 H 0.8373 0.53248 0.77139 0.0
H624 H 0.77025 0.51891 0.79826 0.0
H625 H 0.79405 0.51389 0.73309 0.0
H626 H 0.85994 0.70624 0.89452 0.0
H627 H 0.88575 0.70157 0.84425 0.0
H628 H 0.83504 0.68617 1.01048 0.0
H629 H 0.80235 0.64556 1.01704 0.0
C630 C 0.96041 0.58783 0.96778 0.0
C631 C 0.97807 0.62742 0.96627 0.0
C632 C 1.0198 0.63235 1.0746 0.0
C633 C 1.00296 0.59188 1.0651 0.0
N634 N 0.95807 0.53007 0.99353 0.0
N635 N 0.02523 0.6869 1.00722 0.0
C636 C 0.9734 0.56933 1.00977 0.0
C637 C 1.00792 0.64969 1.0175 0.0
N638 N 0.9311 0.56816 0.93077 0.0
N639 N 0.04694 0.65429 0.14003 0.0
H640 H 1.01732 0.70087 0.96769 0.0
H641 H 0.04771 0.70309 1.03093 0.0
H642 H 0.05642 0.64252 0.1822 0.0
H643 H 0.05913 0.68428 0.15969 0.0
H644 H 0.91661 0.54038 0.93996 0.0
H645 H 0.92097 0.5809 0.89915 0.0
H646 H 0.9375 0.51177 0.94362 0.0
H647 H 0.96675 0.51544 1.02335 0.0
C648 C 0.56109 0.36742 0.99542 0.0
C649 C 0.56078 0.39372 0.93444 0.0
C650 C 0.514 0.33689 0.81674 0.0
C651 C 0.51588 0.30998 0.87009 0.0
N652 N 0.54588 0.30148 1.0007 0.0
N653 N 0.53895 0.39943 0.76868 0.0
C654 C 0.54072 0.32592 0.95701 0.0
C655 C 0.53773 0.37713 0.84012 0.0
N656 N 0.58007 0.38191 0.09331 0.0
N657 N 0.48876 0.32466 0.74678 0.0
H658 H 0.55626 0.42789 0.7784 0.0
H659 H 0.52455 0.38844 0.69375 0.0
H660 H 0.47063 0.29649 0.73065 0.0
H661 H 0.48472 0.34339 0.71448 0.0
H662 H 0.57924 0.36498 0.14793 0.0
H663 H 0.59479 0.41136 0.12457 0.0
H664 H 0.56488 0.31083 1.05576 0.0
H665 H 0.53253 0.27165 0.97387 0.0
C666 C 0.8438 0.13697 0.85691 0.0
C667 C 0.86892 0.17276 0.85013 0.0
C668 C 0.83842 0.20025 0.85828 0.0
C669 C 0.81419 0.16554 0.8752 0.0
N670 N 0.7981 0.10354 0.91545 0.0
N671 N 0.89055 0.24106 0.87333 0.0
C672 C 0.81825 0.13478 0.88158 0.0
C673 C 0.86619 0.20501 0.85918 0.0
N674 N 0.84337 0.10408 0.83398 0.0
N675 N 0.83477 0.22849 0.83538 0.0
H676 H 0.91113 0.24619 0.87966 0.0
H677 H 0.89076 0.26606 0.89152 0.0
H678 H 0.81507 0.22598 0.82957 0.0
H679 H 0.85036 0.2525 0.81069 0.0
H680 H 0.82482 0.07668 0.82509 0.0
H681 H 0.86069 0.10382 0.81297 0.0
H682 H 0.80099 0.08207 0.93296 0.0
H683 H 0.77996 0.10122 0.9374 0.0
C684 C 0.66172 1.00279 0.87588 0.0
C685 C 0.64231 1.00784 0.92659 0.0
C686 C 0.6491 0.97681 1.06994 0.0
C687 C 0.66683 0.96917 1.01524 0.0
N688 N 0.68662 0.97004 0.85723 0.0
N689 N 0.61323 0.99287 1.06029 0.0
C690 C 0.67219 0.98086 0.91561 0.0
C691 C 0.63481 0.99287 1.02034 0.0
N692 N 0.67091 0.02005 0.79171 0.0
N693 N 0.64675 0.97006 0.17164 0.0
H694 H 0.60179 1.00325 1.02422 0.0
H695 H 0.60464 0.97911 0.12173 0.0
H696 H 0.65688 0.95854 0.21095 0.0
H697 H 0.63698 0.97906 0.22104 0.0
H698 H 0.68763 0.02162 0.75932 0.0
H699 H 0.66306 0.03516 0.75873 0.0
H700 H 0.68865 0.97394 0.77891 0.0
H701 H 0.69473 0.95438 0.88395 0.0
C702 C 0.19758 0.6882 0.31408 0.0
C703 C 0.21611 0.70704 0.41998 0.0
C704 C 0.19707 0.64115 0.45739 0.0
C705 C 0.17998 0.62238 0.34927 0.0
N706 N 0.16823 0.62977 0.17007 0.0
N707 N 0.23535 0.6998 0.58831 0.0
C708 C 0.18134 0.64657 0.27696 0.0
C709 C 0.21646 0.68288 0.48964 0.0
N710 N 0.19548 0.71018 0.24755 0.0
N711 N 0.19349 0.6192 0.53235 0.0
H712 H 0.24791 0.72948 0.6191 0.0
H713 H 0.23984 0.68466 0.6372 0.0
H714 H 0.17964 0.58926 0.5135 0.0
H715 H 0.20225 0.6306 0.61503 0.0
H716 H 0.1799 0.69884 0.17578 0.0
H717 H 0.2083 0.7402 0.26709 0.0
H718 H 0.17055 0.64511 0.10956 0.0
H719 H 0.15713 0.60016 0.13981 0.0
C720 C 0.44072 0.43676 0.27932 0.0
C721 C 0.47133 0.45978 0.31401 0.0
C722 C 0.46686 0.45133 0.49991 0.0
C723 C 0.43631 0.43174 0.46727 0.0
N724 N 0.39444 0.41153 0.32916 0.0
N725 N 0.51373 0.49397 0.46033 0.0
C726 C 0.42331 0.42601 0.35774 0.0
C727 C 0.48447 0.46842 0.42524 0.0
N728 N 0.42823 0.42391 0.17104 0.0
N729 N 0.47901 0.45223 0.60091 0.0
H730 H 0.52737 0.50721 0.40852 0.0
H731 H 0.5242 0.50461 0.54187 0.0
H732 H 0.46686 0.43966 0.65735 0.0
H733 H 0.50073 0.46213 0.62513 0.0
H734 H 0.40621 0.40347 0.14049 0.0
H735 H 0.44023 0.43091 0.11118 0.0
H736 H 0.38434 0.41039 0.25327 0.0
H737 H 0.381 0.4039 0.38425 0.0
C738 C 0.88523 0.71651 0.57465 0.0
C739 C 0.91369 0.72736 0.56917 0.0
C740 C 0.91683 0.7721 0.45544 0.0
C741 C 0.89021 0.76543 0.47533 0.0
N742 N 0.85077 0.73476 0.56619 0.0
N743 N 0.95725 0.7659 0.50661 0.0
C744 C 0.8748 0.73844 0.53797 0.0
C745 C 0.92967 0.75522 0.50974 0.0
N746 N 0.86778 0.68445 0.61195 0.0
N747 N 0.92922 0.79337 0.38161 0.0
H748 H 0.96657 0.75254 0.54053 0.0
H749 H 0.97133 0.78907 0.47524 0.0
H750 H 0.92019 0.80563 0.33942 0.0
H751 H 0.94698 0.79611 0.35514 0.0
H752 H 0.84588 0.67283 0.60803 0.0
H753 H 0.87445 0.66707 0.636 0.0
H754 H 0.84056 0.71867 0.62159 0.0
H755 H 0.84251 0.75052 0.542 0.0
C756 C 0.38471 0.02519 0.70655 0.0
C757 C 0.38161 0.05255 0.6605 0.0
C758 C 0.33438 0.99576 0.54319 0.0
C759 C 0.33634 0.96885 0.59638 0.0
N760 N 0.36193 0.96148 0.74778 0.0
N761 N 0.34965 0.06227 0.54541 0.0
C762 C 0.3612 0.98473 0.68304 0.0
C763 C 0.35537 0.03719 0.58139 0.0
N764 N 0.41083 0.0374 0.7699 0.0
N765 N 0.313 0.98182 0.45258 0.0
H766 H 0.36378 0.09204 0.57168 0.0
H767 H 0.32985 0.05366 0.49775 0.0
H768 H 0.29763 0.95245 0.42246 0.0
H769 H 0.31202 0.99901 0.40213 0.0
H770 H 0.41585 0.01866 0.79589 0.0
H771 H 0.42853 0.06592 0.7871 0.0
H772 H 0.37759 0.97172 0.81883 0.0
H773 H 0.34514 0.93269 0.7375 0.0
C774 C 0.03192 0.15524 0.69633 0.0
C775 C 0.02897 0.1873 0.70333 0.0
C776 C 0.08014 0.2256 0.6763 0.0
C777 C 0.08431 0.19504 0.68525 0.0
N778 N 0.0635 0.13224 0.72623 0.0
N779 N 0.05433 0.25588 0.71743 0.0
C780 C 0.05989 0.16028 0.70096 0.0
C781 C 0.05421 0.22317 0.69738 0.0
N782 N 1.00759 0.11905 0.68033 0.0
N783 N 0.10057 0.25686 0.64332 0.0
H784 H 0.03669 0.25598 0.73517 0.0
H785 H 0.07285 0.28336 0.72704 0.0
H786 H 0.11899 0.25935 0.62391 0.0
H787 H 0.09772 0.2782 0.62401 0.0
H788 H 1.00763 0.0942 0.66364 0.0
H789 H 0.98688 0.11366 0.67056 0.0
H790 H 0.04769 0.10821 0.75017 0.0
H791 H 0.08331 0.13495 0.73483 0.0
C792 C 0.35408 0.18627 0.62266 0.0
C793 C 0.37654 0.20317 0.72001 0.0
C794 C 0.34963 0.23052 0.79529 0.0
C795 C 0.32901 0.21696 0.69481 0.0
N796 N 0.31532 0.18578 0.50738 0.0
N797 N 0.39699 0.24834 0.89232 0.0
C798 C 0.33238 0.19585 0.60743 0.0
C799 C 0.37435 0.22686 0.80455 0.0
N800 N 0.3525 0.15944 0.54499 0.0
N801 N 0.34539 0.24686 0.88428 0.0
H802 H 0.41578 0.2484 0.90065 0.0
H803 H 0.39865 0.2693 0.95119 0.0
H804 H 0.32795 0.24982 0.88099 0.0
H805 H 0.3572 0.25375 0.96263 0.0
H806 H 0.33525 0.14279 0.47819 0.0
H807 H 0.36706 0.15116 0.55239 0.0
H808 H 0.31863 0.1749 0.43678 0.0
H809 H 0.29892 0.19078 0.49449 0.0
C810 C 0.87248 1.01237 0.39316 0.0
C811 C 0.84316 0.9929 0.40564 0.0
C812 C 0.85779 0.05442 0.53011 0.0
C813 C 0.88773 0.07163 0.52946 0.0
N814 N 0.92335 0.06372 0.46517 0.0
N815 N 0.81007 0.9958 0.50574 0.0
C816 C 0.89489 0.04946 0.46262 0.0
C817 C 0.83639 0.01429 0.47856 0.0
N818 N 0.87886 0.99649 0.31022 0.0
N819 N 0.84947 0.07631 0.58069 0.0
H820 H 0.79411 0.9668 0.47453 0.0
H821 H 0.80507 1.00818 0.5679 0.0
H822 H 0.86407 0.1049 0.62164 0.0
H823 H 0.8279 0.06723 0.57375 0.0
H824 H 0.89887 1.0107 0.28898 0.0
H825 H 0.86316 0.97108 0.25425 0.0
H826 H 0.93041 0.04751 0.42919 0.0
H827 H 0.94009 0.09108 0.50939 0.0
C828 C 0.04775 0.77026 0.67087 0.0
C829 C 0.03278 0.73275 0.69297 0.0
C830 C 0.07308 0.72703 0.65795 0.0
C831 C 0.08908 0.76567 0.64484 0.0
N832 N 0.09346 0.8263 0.65761 0.0
N833 N 0.03436 0.67881 0.7295 0.0
C834 C 0.07687 0.78788 0.65656 0.0
C835 C 0.04633 0.71206 0.69231 0.0
N836 N 0.03377 0.78859 0.65912 0.0
N837 N 0.08297 0.70406 0.63421 0.0
H838 H 1.01533 0.66734 0.75785 0.0
H839 H 0.04474 0.66467 0.7425 0.0
H840 H 0.10234 0.71383 0.60906 0.0
H841 H 0.0708 0.67451 0.63012 0.0
H842 H 0.04215 0.81388 0.63075 0.0
H843 H 1.01262 0.77681 0.66874 0.0
H844 H 0.0871 0.84505 0.67771 0.0
H845 H 0.11473 0.84023 0.64773 0.0
loop_
_geom_bond_atom_site_label_1
_geom_bond_atom_site_label_2
_geom_bond_distance
_geom_bond_site_symmetry_2
_ccdc_geom_bond_type
Eu0 C9 2.828 . S
Eu0 O11 2.392 . S
Eu0 O13 2.418 1_554 S
Eu0 O18 2.373 . S
Eu0 O21 2.488 . S
Eu0 O22 2.471 . S
Eu0 O23 2.349 . S
Eu1 O10 2.373 . S
Eu1 O14 2.447 1_455 S
Eu1 O15 2.471 1_554 S
Eu1 O16 2.349 1_554 S
Eu1 O19 2.392 . S
Eu1 O20 2.418 . S
Eu1 C30 2.828 1_554 S
C2 O20 1.244 . S
C2 O23 1.265 . S
C3 C4 1.379 . S
C3 C7 1.373 . S
C3 C9 1.505 . S
C4 C3 1.379 . S
C4 C6 1.369 . S
C4 H32 0.930 . S
C5 C7 1.383 . S
C5 C8 1.382 . S
C5 H33 0.930 . S
C6 C4 1.369 . S
C6 C8 1.392 . S
C6 H34 0.930 . S
C7 C3 1.373 . S
C7 C5 1.383 . S
C7 H35 0.931 . S
C8 C5 1.382 . S
C8 C6 1.392 . S
C9 Eu0 2.828 . S
C9 C3 1.505 . S
C9 O21 1.249 . S
C9 O22 1.244 . S
O10 Eu1 2.373 . S
O10 C12 1.258 . S
O11 Eu0 2.392 . S
O11 C12 1.242 . S
C12 O10 1.258 . S
C12 O11 1.242 . S
O13 Eu0 2.418 1_556 S
O13 C17 1.244 . S
O14 Eu1 2.447 1_655 S
O14 C30 1.246 1_654 S
O15 Eu1 2.471 1_556 S
O15 C30 1.244 . S
O16 Eu1 2.349 1_556 S
O16 C17 1.265 . S
C17 O13 1.244 . S
C17 O16 1.265 . S
O18 Eu0 2.373 . S
O18 C31 1.258 1_554 S
O19 Eu1 2.392 . S
O19 C31 1.242 1_554 S
O20 Eu1 2.418 . S
O20 C2 1.244 . S
O21 Eu0 2.488 . S
O21 C9 1.249 . S
O22 Eu0 2.471 . S
O22 C9 1.244 . S
O23 Eu0 2.349 . S
O23 C2 1.265 . S
C24 C25 1.379 1_655 S
C24 C28 1.373 1_556 S
C24 C30 1.505 1_655 S
C25 C24 1.379 1_455 S
C25 C27 1.371 . S
C25 H36 0.930 . S
C26 C28 1.383 . S
C26 C29 1.382 1_554 S
C26 H37 0.930 . S
C27 C25 1.371 . S
C27 C29 1.389 1_455 S
C27 H38 0.931 . S
C28 C24 1.373 1_554 S
C28 C26 1.383 . S
C28 H39 0.931 . S
C29 C26 1.382 1_556 S
C29 C27 1.389 1_655 S
C30 Eu1 2.828 1_556 S
C30 O14 1.246 1_456 S
C30 O15 1.244 . S
C30 C24 1.505 1_455 S
C31 O18 1.258 1_556 S
C31 O19 1.242 1_556 S
H32 C4 0.930 . S
H33 C5 0.930 . S
H34 C6 0.930 . S
H35 C7 0.931 . S
H36 C25 0.930 . S
H37 C26 0.930 . S
H38 C27 0.931 . S
H39 C28 0.931 . S
Eu40 C49 2.828 . S
Eu40 O51 2.392 . S
Eu40 O53 2.418 . S
Eu40 O58 2.373 . S
Eu40 O61 2.488 . S
Eu40 O62 2.471 . S
Eu40 O63 2.349 . S
Eu41 O50 2.373 . S
Eu41 O54 2.488 . S
Eu41 O55 2.471 . S
Eu41 O56 2.349 . S
Eu41 O59 2.392 . S
Eu41 O60 2.418 1_554 S
Eu41 C70 2.828 . S
C42 O60 1.244 . S
C42 O63 1.265 1_556 S
C43 C44 1.379 . S
C43 C47 1.373 . S
C43 C49 1.505 . S
C44 C43 1.379 . S
C44 C46 1.369 . S
C44 H72 0.930 1_554 S
C45 C47 1.383 . S
C45 C48 1.382 . S
C45 H73 0.930 . S
C46 C44 1.369 . S
C46 C48 1.392 . S
C46 H74 0.930 1_554 S
C47 C43 1.373 . S
C47 C45 1.383 . S
C47 H75 0.931 . S
C48 C45 1.382 . S
C48 C46 1.392 . S
C49 Eu40 2.828 . S
C49 C43 1.505 . S
C49 O61 1.249 . S
C49 O62 1.244 . S
O50 Eu41 2.373 . S
O50 C52 1.258 . S
O51 Eu40 2.392 . S
O51 C52 1.242 . S
C52 O50 1.258 . S
C52 O51 1.242 . S
O53 Eu40 2.418 . S
O53 C57 1.244 . S
O54 Eu41 2.488 . S
O54 C70 1.249 . S
O55 Eu41 2.471 . S
O55 C70 1.244 . S
O56 Eu41 2.349 . S
O56 C57 1.265 . S
C57 O53 1.244 . S
C57 O56 1.265 . S
O58 Eu40 2.373 . S
O58 C71 1.258 . S
O59 Eu41 2.392 . S
O59 C71 1.242 . S
O60 Eu41 2.418 1_556 S
O60 C42 1.244 . S
O61 Eu40 2.488 . S
O61 C49 1.249 . S
O62 Eu40 2.471 . S
O62 C49 1.244 . S
O63 Eu40 2.349 . S
O63 C42 1.265 1_554 S
C64 C65 1.379 . S
C64 C68 1.373 . S
C64 C70 1.505 . S
C65 C64 1.379 . S
C65 C67 1.369 . S
C65 H76 0.930 . S
C66 C68 1.383 . S
C66 C69 1.382 . S
C66 H77 0.930 . S
C67 C65 1.369 . S
C67 C69 1.392 . S
C67 H78 0.930 . S
C68 C64 1.373 . S
C68 C66 1.383 . S
C68 H79 0.931 . S
C69 C66 1.382 . S
C69 C67 1.392 . S
C70 Eu41 2.828 . S
C70 O54 1.249 . S
C70 O55 1.244 . S
C70 C64 1.505 . S
C71 O58 1.258 . S
C71 O59 1.242 . S
H72 C44 0.930 1_556 S
H73 C45 0.930 . S
H74 C46 0.930 1_556 S
H75 C47 0.931 . S
H76 C65 0.930 . S
H77 C66 0.930 . S
H78 C67 0.930 . S
H79 C68 0.931 . S
Eu80 C89 2.828 . S
Eu80 O91 2.392 . S
Eu80 O93 2.418 1_554 S
Eu80 O98 2.373 . S
Eu80 O101 2.488 . S
Eu80 O102 2.471 . S
Eu80 O103 2.349 . S
Eu81 O90 2.373 . S
Eu81 O94 2.488 . S
Eu81 O95 2.471 . S
Eu81 O96 2.349 . S
Eu81 O99 2.392 . S
Eu81 O100 2.418 . S
Eu81 C110 2.828 . S
C82 O100 1.244 . S
C82 O103 1.265 . S
C83 C84 1.379 . S
C83 C87 1.373 . S
C83 C89 1.505 . S
C84 C83 1.379 . S
C84 C86 1.369 . S
C84 H112 0.930 . S
C85 C87 1.383 . S
C85 C88 1.382 . S
C85 H113 0.930 1_545 S
C86 C84 1.369 . S
C86 C88 1.392 . S
C86 H114 0.930 . S
C87 C83 1.373 . S
C87 C85 1.383 . S
C87 H115 0.949 1_554 S
C88 C85 1.382 . S
C88 C86 1.392 . S
C89 Eu80 2.828 . S
C89 C83 1.505 . S
C89 O101 1.249 . S
C89 O102 1.244 . S
O90 Eu81 2.373 . S
O90 C92 1.258 . S
O91 Eu80 2.392 . S
O91 C92 1.242 . S
C92 O90 1.258 . S
C92 O91 1.242 . S
O93 Eu80 2.418 1_556 S
O93 C97 1.244 . S
O94 Eu81 2.488 . S
O94 C110 1.249 . S
O95 Eu81 2.471 . S
O95 C110 1.244 . S
O96 Eu81 2.349 . S
O96 C97 1.265 1_554 S
C97 O93 1.244 . S
C97 O96 1.265 1_556 S
O98 Eu80 2.373 . S
O98 C111 1.258 . S
O99 Eu81 2.392 . S
O99 C111 1.242 . S
O100 Eu81 2.418 . S
O100 C82 1.244 . S
O101 Eu80 2.488 . S
O101 C89 1.249 . S
O102 Eu80 2.471 . S
O102 C89 1.244 . S
O103 Eu80 2.349 . S
O103 C82 1.265 . S
C104 C105 1.379 . S
C104 C108 1.373 . S
C104 C110 1.505 . S
C105 C104 1.379 . S
C105 C107 1.369 . S
C105 H116 0.930 . S
C106 C108 1.383 . S
C106 C109 1.382 . S
C106 H117 0.930 . S
C107 C105 1.369 . S
C107 C109 1.392 . S
C107 H118 0.930 . S
C108 C104 1.373 . S
C108 C106 1.383 . S
C108 H119 0.931 . S
C109 C106 1.382 . S
C109 C107 1.392 . S
C110 Eu81 2.828 . S
C110 O94 1.249 . S
C110 O95 1.244 . S
C110 C104 1.505 . S
C111 O98 1.258 . S
C111 O99 1.242 . S
H112 C84 0.930 . S
H113 C85 0.930 1_565 S
H114 C86 0.930 . S
H115 C87 0.949 1_556 S
H116 C105 0.930 . S
H117 C106 0.930 . S
H118 C107 0.930 . S
H119 C108 0.931 . S
Eu120 C129 2.828 . S
Eu120 O131 2.392 . S
Eu120 O133 2.418 . S
Eu120 O138 2.373 . S
Eu120 O141 2.488 . S
Eu120 O142 2.471 . S
Eu120 O143 2.349 . S
Eu121 O130 2.373 . S
Eu121 O134 2.488 . S
Eu121 O135 2.471 . S
Eu121 O136 2.349 . S
Eu121 O139 2.392 . S
Eu121 O140 2.418 . S
Eu121 C150 2.828 . S
C122 O140 1.244 . S
C122 O143 1.265 . S
C123 C124 1.379 . S
C123 C127 1.373 . S
C123 C129 1.505 . S
C124 C123 1.379 . S
C124 C126 1.369 . S
C124 H152 0.930 . S
C125 C127 1.383 . S
C125 C128 1.382 . S
C125 H153 0.930 . S
C126 C124 1.369 . S
C126 C128 1.392 . S
C126 H154 0.930 . S
C127 C123 1.373 . S
C127 C125 1.383 . S
C127 H155 0.931 . S
C128 C125 1.382 . S
C128 C126 1.392 . S
C129 Eu120 2.828 . S
C129 C123 1.505 . S
C129 O141 1.249 . S
C129 O142 1.244 . S
O130 Eu121 2.373 . S
O130 C132 1.258 . S
O131 Eu120 2.392 . S
O131 C132 1.242 . S
C132 O130 1.258 . S
C132 O131 1.242 . S
O133 Eu120 2.418 . S
O133 C137 1.244 . S
O134 Eu121 2.488 . S
O134 C150 1.249 . S
O135 Eu121 2.471 . S
O135 C150 1.244 . S
O136 Eu121 2.349 . S
O136 C137 1.265 . S
C137 O133 1.244 . S
C137 O136 1.265 . S
O138 Eu120 2.373 . S
O138 C151 1.258 . S
O139 Eu121 2.392 . S
O139 C151 1.242 . S
O140 Eu121 2.418 . S
O140 C122 1.244 . S
O141 Eu120 2.488 . S
O141 C129 1.249 . S
O142 Eu120 2.471 . S
O142 C129 1.244 . S
O143 Eu120 2.349 . S
O143 C122 1.265 . S
C144 C145 1.379 . S
C144 C148 1.373 . S
C144 C150 1.505 . S
C145 C144 1.379 . S
C145 C147 1.373 1_565 S
C145 H156 0.930 . S
C146 C148 1.383 . S
C146 C149 1.382 1_565 S
C146 H157 0.930 . S
C147 C145 1.373 1_545 S
C147 C149 1.390 . S
C147 H158 0.928 . S
C148 C144 1.373 . S
C148 C146 1.383 . S
C148 H159 0.931 . S
C149 C146 1.382 1_545 S
C149 C147 1.390 . S
C150 Eu121 2.828 . S
C150 O134 1.249 . S
C150 O135 1.244 . S
C150 C144 1.505 . S
C151 O138 1.258 . S
C151 O139 1.242 . S
H152 C124 0.930 . S
H153 C125 0.930 . S
H154 C126 0.930 . S
H155 C127 0.931 . S
H156 C145 0.930 . S
H157 C146 0.930 . S
H158 C147 0.928 . S
H159 C148 0.931 . S
Eu160 C169 2.828 . S
Eu160 O171 2.392 . S
Eu160 O173 2.418 . S
Eu160 O178 2.373 . S
Eu160 O181 2.488 . S
Eu160 O182 2.471 . S
Eu160 O183 2.349 . S
Eu161 O170 2.373 . S
Eu161 O174 2.488 . S
Eu161 O175 2.471 . S
Eu161 O176 2.349 . S
Eu161 O179 2.392 . S
Eu161 O180 2.418 . S
Eu161 C190 2.828 . S
C162 O180 1.244 . S
C162 O183 1.265 . S
C163 C164 1.379 . S
C163 C167 1.373 . S
C163 C169 1.505 . S
C164 C163 1.379 . S
C164 C166 1.369 . S
C164 H192 0.930 . S
C165 C167 1.383 . S
C165 C168 1.382 . S
C165 H193 0.930 . S
C166 C164 1.369 . S
C166 C168 1.392 . S
C166 H194 0.930 . S
C167 C163 1.373 . S
C167 C165 1.383 . S
C167 H195 0.931 . S
C168 C165 1.382 . S
C168 C166 1.392 . S
C169 Eu160 2.828 . S
C169 C163 1.505 . S
C169 O181 1.249 . S
C169 O182 1.244 . S
O170 Eu161 2.373 . S
O170 C172 1.258 . S
O171 Eu160 2.392 . S
O171 C172 1.242 . S
C172 O170 1.258 . S
C172 O171 1.242 . S
O173 Eu160 2.418 . S
O173 C177 1.244 . S
O174 Eu161 2.488 . S
O174 C190 1.249 . S
O175 Eu161 2.471 . S
O175 C190 1.244 . S
O176 Eu161 2.349 . S
O176 C177 1.265 . S
C177 O173 1.244 . S
C177 O176 1.265 . S
O178 Eu160 2.373 . S
O178 C191 1.258 . S
O179 Eu161 2.392 . S
O179 C191 1.242 . S
O180 Eu161 2.418 . S
O180 C162 1.244 . S
O181 Eu160 2.488 . S
O181 C169 1.249 . S
O182 Eu160 2.471 . S
O182 C169 1.244 . S
O183 Eu160 2.349 . S
O183 C162 1.265 . S
C184 C185 1.379 . S
C184 C188 1.373 . S
C184 C190 1.505 . S
C185 C184 1.379 . S
C185 C187 1.369 . S
C185 H196 0.930 . S
C186 C188 1.383 . S
C186 C189 1.382 . S
C186 H197 0.930 . S
C187 C185 1.369 . S
C187 C189 1.392 . S
C187 H198 0.930 . S
C188 C184 1.373 . S
C188 C186 1.383 . S
C188 H199 0.931 . S
C189 C186 1.382 . S
C189 C187 1.392 . S
C190 Eu161 2.828 . S
C190 O174 1.249 . S
C190 O175 1.244 . S
C190 C184 1.505 . S
C191 O178 1.258 . S
C191 O179 1.242 . S
H192 C164 0.930 . S
H193 C165 0.930 . S
H194 C166 0.930 . S
H195 C167 0.931 . S
H196 C185 0.930 . S
H197 C186 0.930 . S
H198 C187 0.930 . S
H199 C188 0.931 . S
Eu200 C209 2.828 . S
Eu200 O211 2.392 . S
Eu200 O213 2.418 . S
Eu200 O218 2.373 . S
Eu200 O221 2.488 . S
Eu200 O222 2.471 . S
Eu200 O223 2.349 . S
Eu201 O210 2.373 . S
Eu201 O214 2.488 . S
Eu201 O215 2.471 . S
Eu201 O216 2.349 . S
Eu201 O219 2.392 . S
Eu201 O220 2.418 . S
Eu201 C230 2.828 . S
C202 O220 1.244 . S
C202 O223 1.265 . S
C203 C204 1.379 . S
C203 C207 1.373 . S
C203 C209 1.505 . S
C204 C203 1.379 . S
C204 C206 1.369 . S
C204 H232 0.930 . S
C205 C207 1.383 . S
C205 C208 1.382 . S
C205 H233 0.930 . S
C206 C204 1.369 . S
C206 C208 1.392 . S
C206 H234 0.930 . S
C207 C203 1.373 . S
C207 C205 1.383 . S
C207 H235 0.931 . S
C208 C205 1.382 . S
C208 C206 1.392 . S
C209 Eu200 2.828 . S
C209 C203 1.505 . S
C209 O221 1.249 . S
C209 O222 1.244 . S
O210 Eu201 2.373 . S
O210 C212 1.258 . S
O211 Eu200 2.392 . S
O211 C212 1.242 . S
C212 O210 1.258 . S
C212 O211 1.242 . S
O213 Eu200 2.418 . S
O213 C217 1.244 . S
O214 Eu201 2.488 . S
O214 C230 1.249 . S
O215 Eu201 2.471 . S
O215 C230 1.244 . S
O216 Eu201 2.349 . S
O216 C217 1.265 . S
C217 O213 1.244 . S
C217 O216 1.265 . S
O218 Eu200 2.373 . S
O218 C231 1.258 . S
O219 Eu201 2.392 . S
O219 C231 1.242 . S
O220 Eu201 2.418 . S
O220 C202 1.244 . S
O221 Eu200 2.488 . S
O221 C209 1.249 . S
O222 Eu200 2.471 . S
O222 C209 1.244 . S
O223 Eu200 2.349 . S
O223 C202 1.265 . S
C224 C225 1.379 . S
C224 C228 1.373 . S
C224 C230 1.505 . S
C225 C224 1.379 . S
C225 C227 1.369 . S
C225 H236 0.930 . S
C226 C228 1.383 . S
C226 C229 1.382 . S
C226 H237 0.930 . S
C227 C225 1.369 . S
C227 C229 1.392 . S
C227 H238 0.930 . S
C228 C224 1.373 . S
C228 C226 1.383 . S
C228 H239 0.931 . S
C229 C226 1.382 . S
C229 C227 1.392 . S
C230 Eu201 2.828 . S
C230 O214 1.249 . S
C230 O215 1.244 . S
C230 C224 1.505 . S
C231 O218 1.258 . S
C231 O219 1.242 . S
H232 C204 0.930 . S
H233 C205 0.930 . S
H234 C206 0.930 . S
H235 C207 0.931 . S
H236 C225 0.930 . S
H237 C226 0.930 . S
H238 C227 0.930 . S
H239 C228 0.931 . S
Eu240 C249 2.828 . S
Eu240 O251 2.392 . S
Eu240 O253 2.418 . S
Eu240 O258 2.373 . S
Eu240 O261 2.488 . S
Eu240 O262 2.471 . S
Eu240 O263 2.349 . S
Eu241 O250 2.373 . S
Eu241 O254 2.488 . S
Eu241 O255 2.471 . S
Eu241 O256 2.349 . S
Eu241 O259 2.392 . S
Eu241 O260 2.418 . S
Eu241 C270 2.828 . S
C242 O260 1.244 . S
C242 O263 1.265 . S
C243 C244 1.379 . S
C243 C247 1.373 . S
C243 C249 1.505 . S
C244 C243 1.379 . S
C244 C246 1.369 . S
C244 H272 0.930 . S
C245 C247 1.383 . S
C245 C248 1.382 . S
C245 H273 0.930 . S
C246 C244 1.369 . S
C246 C248 1.392 . S
C246 H274 0.930 . S
C247 C243 1.373 . S
C247 C245 1.383 . S
C247 H275 0.931 . S
C248 C245 1.382 . S
C248 C246 1.392 . S
C249 Eu240 2.828 . S
C249 C243 1.505 . S
C249 O261 1.249 . S
C249 O262 1.244 . S
O250 Eu241 2.373 . S
O250 C252 1.258 . S
O251 Eu240 2.392 . S
O251 C252 1.242 . S
C252 O250 1.258 . S
C252 O251 1.242 . S
O253 Eu240 2.418 . S
O253 C257 1.244 . S
O254 Eu241 2.488 . S
O254 C270 1.249 . S
O255 Eu241 2.471 . S
O255 C270 1.244 . S
O256 Eu241 2.349 . S
O256 C257 1.265 . S
C257 O253 1.244 . S
C257 O256 1.265 . S
O258 Eu240 2.373 . S
O258 C271 1.258 . S
O259 Eu241 2.392 . S
O259 C271 1.242 . S
O260 Eu241 2.418 . S
O260 C242 1.244 . S
O261 Eu240 2.488 . S
O261 C249 1.249 . S
O262 Eu240 2.471 . S
O262 C249 1.244 . S
O263 Eu240 2.349 . S
O263 C242 1.265 . S
C264 C265 1.379 . S
C264 C268 1.373 . S
C264 C270 1.505 1_554 S
C265 C264 1.379 . S
C265 C267 1.369 . S
C265 H276 0.930 . S
C266 C268 1.383 . S
C266 C269 1.382 . S
C266 H277 0.930 . S
C267 C265 1.369 . S
C267 C269 1.392 . S
C267 H278 0.930 . S
C268 C264 1.373 . S
C268 C266 1.383 . S
C268 H279 0.931 . S
C269 C266 1.382 . S
C269 C267 1.392 . S
C270 Eu241 2.828 . S
C270 O254 1.249 . S
C270 O255 1.244 . S
C270 C264 1.505 1_556 S
C271 O258 1.258 . S
C271 O259 1.242 . S
H272 C244 0.930 . S
H273 C245 0.930 . S
H274 C246 0.930 . S
H275 C247 0.931 . S
H276 C265 0.930 . S
H277 C266 0.930 . S
H278 C267 0.930 . S
H279 C268 0.931 . S
Eu280 C289 2.828 . S
Eu280 O291 2.392 . S
Eu280 O293 2.418 . S
Eu280 O298 2.373 . S
Eu280 O301 2.488 . S
Eu280 O302 2.471 . S
Eu280 O303 2.349 . S
Eu281 O290 2.373 . S
Eu281 O294 2.488 . S
Eu281 O295 2.471 . S
Eu281 O296 2.349 . S
Eu281 O299 2.392 . S
Eu281 O300 2.418 . S
Eu281 C310 2.828 . S
C282 O300 1.244 . S
C282 O303 1.265 . S
C283 C284 1.379 . S
C283 C287 1.373 . S
C283 C289 1.505 1_554 S
C284 C283 1.379 . S
C284 C286 1.369 . S
C284 H312 0.930 . S
C285 C287 1.383 . S
C285 C288 1.382 . S
C285 H313 0.930 . S
C286 C284 1.369 . S
C286 C288 1.392 . S
C286 H314 0.930 . S
C287 C283 1.373 . S
C287 C285 1.383 . S
C287 H315 0.931 . S
C288 C285 1.382 . S
C288 C286 1.392 . S
C289 Eu280 2.828 . S
C289 C283 1.505 1_556 S
C289 O301 1.249 . S
C289 O302 1.244 . S
O290 Eu281 2.373 . S
O290 C292 1.258 . S
O291 Eu280 2.392 . S
O291 C292 1.242 . S
C292 O290 1.258 . S
C292 O291 1.242 . S
O293 Eu280 2.418 . S
O293 C297 1.244 . S
O294 Eu281 2.488 . S
O294 C310 1.249 . S
O295 Eu281 2.471 . S
O295 C310 1.244 . S
O296 Eu281 2.349 . S
O296 C297 1.265 . S
C297 O293 1.244 . S
C297 O296 1.265 . S
O298 Eu280 2.373 . S
O298 C311 1.258 . S
O299 Eu281 2.392 . S
O299 C311 1.242 . S
O300 Eu281 2.418 . S
O300 C282 1.244 . S
O301 Eu280 2.488 . S
O301 C289 1.249 . S
O302 Eu280 2.471 . S
O302 C289 1.244 . S
O303 Eu280 2.349 . S
O303 C282 1.265 . S
C304 C305 1.379 . S
C304 C308 1.373 . S
C304 C310 1.505 . S
C305 C304 1.379 . S
C305 C307 1.369 . S
C305 H316 0.930 . S
C306 C308 1.383 . S
C306 C309 1.382 . S
C306 H317 0.930 . S
C307 C305 1.369 . S
C307 C309 1.392 . S
C307 H318 0.930 . S
C308 C304 1.373 . S
C308 C306 1.383 . S
C308 H319 0.931 . S
C309 C306 1.382 . S
C309 C307 1.392 . S
C310 Eu281 2.828 . S
C310 O294 1.249 . S
C310 O295 1.244 . S
C310 C304 1.505 . S
C311 O298 1.258 . S
C311 O299 1.242 . S
H312 C284 0.930 . S
H313 C285 0.930 . S
H314 C286 0.930 . S
H315 C287 0.931 . S
H316 C305 0.930 . S
H317 C306 0.930 . S
H318 C307 0.930 . S
H319 C308 0.931 . S
Eu320 C329 2.828 . S
Eu320 O331 2.392 . S
Eu320 O333 2.418 . S
Eu320 O338 2.373 . S
Eu320 O341 2.488 . S
Eu320 O342 2.471 . S
Eu320 O343 2.349 . S
Eu321 O330 2.373 . S
Eu321 O334 2.488 . S
Eu321 O335 2.471 . S
Eu321 O336 2.349 . S
Eu321 O339 2.392 . S
Eu321 O340 2.418 . S
Eu321 C350 2.828 . S
C322 O340 1.244 . S
C322 O343 1.265 . S
C323 C324 1.379 . S
C323 C327 1.373 . S
C323 C329 1.505 . S
C324 C323 1.379 . S
C324 C326 1.369 . S
C324 H352 0.930 . S
C325 C327 1.383 . S
C325 C328 1.382 . S
C325 H353 0.930 . S
C326 C324 1.369 . S
C326 C328 1.392 . S
C326 H354 0.930 . S
C327 C323 1.373 . S
C327 C325 1.383 . S
C327 H355 0.931 . S
C328 C325 1.382 . S
C328 C326 1.392 . S
C329 Eu320 2.828 . S
C329 C323 1.505 . S
C329 O341 1.249 . S
C329 O342 1.244 . S
O330 Eu321 2.373 . S
O330 C332 1.258 . S
O331 Eu320 2.392 . S
O331 C332 1.242 . S
C332 O330 1.258 . S
C332 O331 1.242 . S
O333 Eu320 2.418 . S
O333 C337 1.244 . S
O334 Eu321 2.488 . S
O334 C350 1.249 . S
O335 Eu321 2.471 . S
O335 C350 1.244 . S
O336 Eu321 2.349 . S
O336 C337 1.265 . S
C337 O333 1.244 . S
C337 O336 1.265 . S
O338 Eu320 2.373 . S
O338 C351 1.258 . S
O339 Eu321 2.392 . S
O339 C351 1.242 . S
O340 Eu321 2.418 . S
O340 C322 1.244 . S
O341 Eu320 2.488 . S
O341 C329 1.249 . S
O342 Eu320 2.471 . S
O342 C329 1.244 . S
O343 Eu320 2.349 . S
O343 C322 1.265 . S
C344 C345 1.379 . S
C344 C348 1.373 . S
C344 C350 1.505 1_554 S
C345 C344 1.379 . S
C345 C347 1.369 . S
C345 H356 0.930 . S
C346 C348 1.383 . S
C346 C349 1.382 . S
C346 H357 0.930 . S
C347 C345 1.369 . S
C347 C349 1.392 . S
C347 H358 0.930 . S
C348 C344 1.373 . S
C348 C346 1.383 . S
C348 H359 0.931 . S
C349 C346 1.382 . S
C349 C347 1.392 . S
C350 Eu321 2.828 . S
C350 O334 1.249 . S
C350 O335 1.244 . S
C350 C344 1.505 1_556 S
C351 O338 1.258 . S
C351 O339 1.242 . S
H352 C324 0.930 . S
H353 C325 0.930 . S
H354 C326 0.930 . S
H355 C327 0.931 . S
H356 C345 0.930 . S
H357 C346 0.930 . S
H358 C347 0.930 . S
H359 C348 0.931 . S
C360 C361 1.363 . S
C360 C366 1.379 . S
C360 N368 1.356 . S
C361 C360 1.363 . S
C361 C367 1.363 . S
C362 C363 1.363 . S
C362 C367 1.379 . S
C362 N369 1.356 . S
C363 C362 1.363 . S
C363 C366 1.363 . S
N364 C366 1.356 . S
N364 H376 0.984 . S
N364 H377 0.985 . S
N365 C367 1.356 . S
N365 H370 0.984 . S
N365 H371 0.985 . S
C366 C360 1.379 . S
C366 C363 1.363 . S
C366 N364 1.356 . S
C367 C361 1.363 . S
C367 C362 1.379 . S
C367 N365 1.356 . S
N368 C360 1.356 . S
N368 H374 0.984 . S
N368 H375 0.984 . S
N369 C362 1.356 . S
N369 H372 0.984 . S
N369 H373 0.985 . S
H370 N365 0.984 . S
H371 N365 0.985 . S
H372 N369 0.984 . S
H373 N369 0.985 . S
H374 N368 0.984 . S
H375 N368 0.984 . S
H376 N364 0.984 . S
H377 N364 0.985 . S
C378 C379 1.363 . S
C378 C384 1.379 . S
C378 N386 1.356 . S
C379 C378 1.363 . S
C379 C385 1.363 . S
C380 C381 1.363 . S
C380 C385 1.379 . S
C380 N387 1.356 . S
C381 C380 1.363 . S
C381 C384 1.363 . S
N382 C384 1.356 . S
N382 H394 0.984 . S
N382 H395 0.985 . S
N383 C385 1.356 . S
N383 H388 0.984 . S
N383 H389 0.985 . S
C384 C378 1.379 . S
C384 C381 1.363 . S
C384 N382 1.356 . S
C385 C379 1.363 . S
C385 C380 1.379 . S
C385 N383 1.356 . S
N386 C378 1.356 . S
N386 H392 0.984 . S
N386 H393 0.984 . S
N387 C380 1.356 . S
N387 H390 0.984 . S
N387 H391 0.985 . S
H388 N383 0.984 . S
H389 N383 0.985 . S
H390 N387 0.984 . S
H391 N387 0.985 . S
H392 N386 0.984 . S
H393 N386 0.984 . S
H394 N382 0.984 . S
H395 N382 0.985 . S
C396 C397 1.363 . S
C396 C402 1.379 . S
C396 N404 1.356 . S
C397 C396 1.363 . S
C397 C403 1.363 . S
C398 C399 1.363 . S
C398 C403 1.379 . S
C398 N405 1.356 . S
C399 C398 1.363 . S
C399 C402 1.363 . S
N400 C402 1.356 . S
N400 H412 0.984 . S
N400 H413 0.985 . S
N401 C403 1.356 . S
N401 H406 0.984 . S
N401 H407 0.985 . S
C402 C396 1.379 . S
C402 C399 1.363 . S
C402 N400 1.356 . S
C403 C397 1.363 . S
C403 C398 1.379 . S
C403 N401 1.356 . S
N404 C396 1.356 . S
N404 H410 0.984 . S
N404 H411 0.984 . S
N405 C398 1.356 . S
N405 H408 0.984 . S
N405 H409 0.985 . S
H406 N401 0.984 . S
H407 N401 0.985 . S
H408 N405 0.984 . S
H409 N405 0.985 . S
H410 N404 0.984 . S
H411 N404 0.984 . S
H412 N400 0.984 . S
H413 N400 0.985 . S
C414 C415 1.363 . S
C414 C420 1.379 . S
C414 N422 1.356 . S
C415 C414 1.363 . S
C415 C421 1.363 . S
C416 C417 1.363 . S
C416 C421 1.379 . S
C416 N423 1.356 . S
C417 C416 1.363 . S
C417 C420 1.363 . S
N418 C420 1.356 . S
N418 H430 0.984 . S
N418 H431 0.985 1_556 S
N419 C421 1.356 . S
N419 H424 0.984 . S
N419 H425 0.985 . S
C420 C414 1.379 . S
C420 C417 1.363 . S
C420 N418 1.356 . S
C421 C415 1.363 . S
C421 C416 1.379 . S
C421 N419 1.356 . S
N422 C414 1.356 . S
N422 H428 0.984 . S
N422 H429 0.984 . S
N423 C416 1.356 . S
N423 H426 0.984 . S
N423 H427 0.985 . S
H424 N419 0.984 . S
H425 N419 0.985 . S
H426 N423 0.984 . S
H427 N423 0.985 . S
H428 N422 0.984 . S
H429 N422 0.984 . S
H430 N418 0.984 . S
H431 N418 0.985 1_554 S
C432 C433 1.363 . S
C432 C438 1.379 . S
C432 N440 1.356 . S
C433 C432 1.363 . S
C433 C439 1.363 . S
C434 C435 1.363 . S
C434 C439 1.379 . S
C434 N441 1.356 . S
C435 C434 1.363 . S
C435 C438 1.363 . S
N436 C438 1.356 . S
N436 H448 0.984 . S
N436 H449 0.985 . S
N437 C439 1.356 . S
N437 H442 0.984 . S
N437 H443 0.985 . S
C438 C432 1.379 . S
C438 C435 1.363 . S
C438 N436 1.356 . S
C439 C433 1.363 . S
C439 C434 1.379 . S
C439 N437 1.356 . S
N440 C432 1.356 . S
N440 H446 0.984 . S
N440 H447 0.984 . S
N441 C434 1.356 . S
N441 H444 0.984 . S
N441 H445 0.985 . S
H442 N437 0.984 . S
H443 N437 0.985 . S
H444 N441 0.984 . S
H445 N441 0.985 . S
H446 N440 0.984 . S
H447 N440 0.984 . S
H448 N436 0.984 . S
H449 N436 0.985 . S
C450 C451 1.363 . S
C450 C456 1.379 . S
C450 N458 1.356 . S
C451 C450 1.363 . S
C451 C457 1.363 . S
C452 C453 1.363 . S
C452 C457 1.379 . S
C452 N459 1.356 . S
C453 C452 1.363 . S
C453 C456 1.363 . S
N454 C456 1.356 . S
N454 H466 0.984 . S
N454 H467 0.985 . S
N455 C457 1.356 . S
N455 H460 0.984 . S
N455 H461 0.985 . S
C456 C450 1.379 . S
C456 C453 1.363 . S
C456 N454 1.356 . S
C457 C451 1.363 . S
C457 C452 1.379 . S
C457 N455 1.356 . S
N458 C450 1.356 . S
N458 H464 0.984 . S
N458 H465 0.984 . S
N459 C452 1.356 . S
N459 H462 0.984 . S
N459 H463 0.985 . S
H460 N455 0.984 . S
H461 N455 0.985 . S
H462 N459 0.984 . S
H463 N459 0.985 . S
H464 N458 0.984 . S
H465 N458 0.984 . S
H466 N454 0.984 . S
H467 N454 0.985 . S
C468 C469 1.363 . S
C468 C474 1.379 . S
C468 N476 1.356 . S
C469 C468 1.363 . S
C469 C475 1.363 . S
C470 C471 1.363 . S
C470 C475 1.379 . S
C470 N477 1.356 . S
C471 C470 1.363 . S
C471 C474 1.363 . S
N472 C474 1.356 . S
N472 H484 0.984 . S
N472 H485 0.985 . S
N473 C475 1.356 . S
N473 H478 0.984 . S
N473 H479 0.985 . S
C474 C468 1.379 . S
C474 C471 1.363 . S
C474 N472 1.356 . S
C475 C469 1.363 . S
C475 C470 1.379 . S
C475 N473 1.356 . S
N476 C468 1.356 . S
N476 H482 0.984 . S
N476 H483 0.984 . S
N477 C470 1.356 . S
N477 H480 0.984 . S
N477 H481 0.985 . S
H478 N473 0.984 . S
H479 N473 0.985 . S
H480 N477 0.984 . S
H481 N477 0.985 . S
H482 N476 0.984 . S
H483 N476 0.984 . S
H484 N472 0.984 . S
H485 N472 0.985 . S
C486 C487 1.363 . S
C486 C492 1.379 . S
C486 N494 1.356 . S
C487 C486 1.363 . S
C487 C493 1.363 . S
C488 C489 1.363 . S
C488 C493 1.379 . S
C488 N495 1.356 . S
C489 C488 1.363 . S
C489 C492 1.363 . S
N490 C492 1.356 . S
N490 H502 0.984 . S
N490 H503 0.985 . S
N491 C493 1.356 . S
N491 H496 0.984 . S
N491 H497 0.985 . S
C492 C486 1.379 . S
C492 C489 1.363 . S
C492 N490 1.356 . S
C493 C487 1.363 . S
C493 C488 1.379 . S
C493 N491 1.356 . S
N494 C486 1.356 . S
N494 H500 0.984 1_554 S
N494 H501 0.984 1_554 S
N495 C488 1.356 . S
N495 H498 0.984 . S
N495 H499 0.985 . S
H496 N491 0.984 . S
H497 N491 0.985 . S
H498 N495 0.984 . S
H499 N495 0.985 . S
H500 N494 0.984 1_556 S
H501 N494 0.984 1_556 S
H502 N490 0.984 . S
H503 N490 0.985 . S
C504 C505 1.363 . S
C504 C510 1.379 . S
C504 N512 1.356 . S
C505 C504 1.363 . S
C505 C511 1.363 . S
C506 C507 1.363 . S
C506 C511 1.379 . S
C506 N513 1.356 . S
C507 C506 1.363 . S
C507 C510 1.363 . S
N508 C510 1.356 . S
N508 H520 0.984 . S
N508 H521 0.985 . S
N509 C511 1.356 . S
N509 H514 0.984 . S
N509 H515 0.985 . S
C510 C504 1.379 . S
C510 C507 1.363 . S
C510 N508 1.356 . S
C511 C505 1.363 . S
C511 C506 1.379 . S
C511 N509 1.356 . S
N512 C504 1.356 . S
N512 H518 0.984 . S
N512 H519 0.984 . S
N513 C506 1.356 . S
N513 H516 0.984 . S
N513 H517 0.985 . S
H514 N509 0.984 . S
H515 N509 0.985 . S
H516 N513 0.984 . S
H517 N513 0.985 . S
H518 N512 0.984 . S
H519 N512 0.984 . S
H520 N508 0.984 . S
H521 N508 0.985 . S
C522 C523 1.363 . S
C522 C528 1.379 . S
C522 N530 1.356 . S
C523 C522 1.363 . S
C523 C529 1.363 . S
C524 C525 1.363 . S
C524 C529 1.379 . S
C524 N531 1.356 . S
C525 C524 1.363 . S
C525 C528 1.363 . S
N526 C528 1.356 . S
N526 H538 0.984 . S
N526 H539 0.985 . S
N527 C529 1.356 . S
N527 H532 0.984 . S
N527 H533 0.985 . S
C528 C522 1.379 . S
C528 C525 1.363 . S
C528 N526 1.356 . S
C529 C523 1.363 . S
C529 C524 1.379 . S
C529 N527 1.356 . S
N530 C522 1.356 . S
N530 H536 0.984 . S
N530 H537 0.984 . S
N531 C524 1.356 . S
N531 H534 0.984 . S
N531 H535 0.985 . S
H532 N527 0.984 . S
H533 N527 0.985 . S
H534 N531 0.984 . S
H535 N531 0.985 . S
H536 N530 0.984 . S
H537 N530 0.984 . S
H538 N526 0.984 . S
H539 N526 0.985 . S
C540 C541 1.363 . S
C540 C546 1.379 . S
C540 N548 1.356 . S
C541 C540 1.363 . S
C541 C547 1.363 . S
C542 C543 1.363 . S
C542 C547 1.379 . S
C542 N549 1.356 . S
C543 C542 1.363 . S
C543 C546 1.363 . S
N544 C546 1.356 . S
N544 H556 0.984 . S
N544 H557 0.985 . S
N545 C547 1.356 . S
N545 H550 0.984 . S
N545 H551 0.985 . S
C546 C540 1.379 . S
C546 C543 1.363 . S
C546 N544 1.356 . S
C547 C541 1.363 . S
C547 C542 1.379 . S
C547 N545 1.356 . S
N548 C540 1.356 . S
N548 H554 0.984 . S
N548 H555 0.984 . S
N549 C542 1.356 . S
N549 H552 0.984 . S
N549 H553 0.985 . S
H550 N545 0.984 . S
H551 N545 0.985 . S
H552 N549 0.984 . S
H553 N549 0.985 . S
H554 N548 0.984 . S
H555 N548 0.984 . S
H556 N544 0.984 . S
H557 N544 0.985 . S
C558 C559 1.363 1_565 S
C558 C564 1.379 . S
C558 N566 1.356 . S
C559 C558 1.363 1_545 S
C559 C565 1.363 . S
C560 C561 1.363 . S
C560 C565 1.379 1_565 S
C560 N567 1.356 . S
C561 C560 1.363 . S
C561 C564 1.363 . S
N562 C564 1.356 . S
N562 H574 0.984 . S
N562 H575 0.985 . S
N563 C565 1.356 . S
N563 H568 0.984 . S
N563 H569 0.985 . S
C564 C558 1.379 . S
C564 C561 1.363 . S
C564 N562 1.356 . S
C565 C559 1.363 . S
C565 C560 1.379 1_545 S
C565 N563 1.356 . S
N566 C558 1.356 . S
N566 H572 0.984 . S
N566 H573 0.984 1_565 S
N567 C560 1.356 . S
N567 H570 0.984 . S
N567 H571 0.985 . S
H568 N563 0.984 . S
H569 N563 0.985 . S
H570 N567 0.984 . S
H571 N567 0.985 . S
H572 N566 0.984 . S
H573 N566 0.984 1_545 S
H574 N562 0.984 . S
H575 N562 0.985 . S
C576 C577 1.363 1_556 S
C576 C582 1.379 . S
C576 N584 1.356 . S
C577 C576 1.363 1_554 S
C577 C583 1.363 . S
C578 C579 1.363 . S
C578 C583 1.379 1_556 S
C578 N585 1.356 . S
C579 C578 1.363 . S
C579 C582 1.363 . S
N580 C582 1.356 . S
N580 H592 0.984 . S
N580 H593 0.985 . S
N581 C583 1.356 . S
N581 H586 0.984 . S
N581 H587 0.985 . S
C582 C576 1.379 . S
C582 C579 1.363 . S
C582 N580 1.356 . S
C583 C577 1.363 . S
C583 C578 1.379 1_554 S
C583 N581 1.356 . S
N584 C576 1.356 . S
N584 H590 0.984 . S
N584 H591 0.984 . S
N585 C578 1.356 . S
N585 H588 0.984 . S
N585 H589 0.985 1_556 S
H586 N581 0.984 . S
H587 N581 0.985 . S
H588 N585 0.984 . S
H589 N585 0.985 1_554 S
H590 N584 0.984 . S
H591 N584 0.984 . S
H592 N580 0.984 . S
H593 N580 0.985 . S
C594 C595 1.363 . S
C594 C600 1.379 . S
C594 N602 1.356 . S
C595 C594 1.363 . S
C595 C601 1.389 . S
C596 C597 1.363 . S
C596 C601 1.376 1_455 S
C596 N603 1.356 . S
C597 C596 1.363 . S
C597 C600 1.363 1_455 S
N598 C600 1.356 1_554 S
N598 H610 0.984 . S
N598 H611 0.985 . S
N599 C601 1.318 1_455 S
N599 H604 0.971 1_455 S
N599 H605 1.022 . S
C600 C594 1.379 . S
C600 C597 1.363 1_655 S
C600 N598 1.356 1_556 S
C601 C595 1.389 . S
C601 C596 1.376 1_655 S
C601 N599 1.318 1_655 S
N602 C594 1.356 . S
N602 H608 0.984 . S
N602 H609 0.984 . S
N603 C596 1.356 . S
N603 H606 0.984 . S
N603 H607 0.985 . S
H604 N599 0.971 1_655 S
H605 N599 1.022 . S
H606 N603 0.984 . S
H607 N603 0.985 . S
H608 N602 0.984 . S
H609 N602 0.984 . S
H610 N598 0.984 . S
H611 N598 0.985 . S
C612 C613 1.363 . S
C612 C618 1.372 1_556 S
C612 N620 1.356 . S
C613 C612 1.363 . S
C613 C619 1.363 . S
C614 C615 1.363 1_556 S
C614 C619 1.379 . S
C614 N621 1.356 . S
C615 C614 1.363 1_554 S
C615 C618 1.366 . S
N616 C618 1.361 . S
N616 H628 0.984 . S
N616 H629 0.985 . S
N617 C619 1.356 . S
N617 H622 0.984 . S
N617 H623 0.985 . S
C618 C612 1.372 1_554 S
C618 C615 1.366 . S
C618 N616 1.361 . S
C619 C613 1.363 . S
C619 C614 1.379 . S
C619 N617 1.356 . S
N620 C612 1.356 . S
N620 H626 0.984 . S
N620 H627 0.984 . S
N621 C614 1.356 . S
N621 H624 0.984 1_556 S
N621 H625 0.985 . S
H622 N617 0.984 . S
H623 N617 0.985 . S
H624 N621 0.984 1_554 S
H625 N621 0.985 . S
H626 N620 0.984 . S
H627 N620 0.984 . S
H628 N616 0.984 . S
H629 N616 0.985 . S
C630 C631 1.363 . S
C630 C636 1.379 . S
C630 N638 1.356 . S
C631 C630 1.363 . S
C631 C637 1.363 . S
C632 C633 1.363 . S
C632 C637 1.379 . S
C632 N639 1.356 1_655 S
C633 C632 1.363 . S
C633 C636 1.363 . S
N634 C636 1.356 . S
N634 H646 0.984 . S
N634 H647 0.985 1_556 S
N635 C637 1.356 . S
N635 H640 0.984 . S
N635 H641 0.985 1_655 S
C636 C630 1.379 . S
C636 C633 1.363 . S
C636 N634 1.356 . S
C637 C631 1.363 . S
C637 C632 1.379 . S
C637 N635 1.356 . S
N638 C630 1.356 . S
N638 H644 0.984 . S
N638 H645 0.984 . S
N639 C632 1.356 1_455 S
N639 H642 0.984 . S
N639 H643 0.985 . S
H640 N635 0.984 . S
H641 N635 0.985 1_455 S
H642 N639 0.984 . S
H643 N639 0.985 . S
H644 N638 0.984 . S
H645 N638 0.984 . S
H646 N634 0.984 . S
H647 N634 0.985 1_554 S
C648 C649 1.363 . S
C648 C654 1.379 . S
C648 N656 1.356 1_556 S
C649 C648 1.363 . S
C649 C655 1.363 . S
C650 C651 1.363 . S
C650 C655 1.379 . S
C650 N657 1.356 . S
C651 C650 1.363 . S
C651 C654 1.363 . S
N652 C654 1.356 . S
N652 H664 0.984 . S
N652 H665 0.985 . S
N653 C655 1.356 . S
N653 H658 0.984 . S
N653 H659 0.985 . S
C654 C648 1.379 . S
C654 C651 1.363 . S
C654 N652 1.356 . S
C655 C649 1.363 . S
C655 C650 1.379 . S
C655 N653 1.356 . S
N656 C648 1.356 1_554 S
N656 H662 0.984 . S
N656 H663 0.984 . S
N657 C650 1.356 . S
N657 H660 0.984 . S
N657 H661 0.985 . S
H658 N653 0.984 . S
H659 N653 0.985 . S
H660 N657 0.984 . S
H661 N657 0.985 . S
H662 N656 0.984 . S
H663 N656 0.984 . S
H664 N652 0.984 . S
H665 N652 0.985 . S
C666 C667 1.363 . S
C666 C672 1.379 . S
C666 N674 1.356 . S
C667 C666 1.363 . S
C667 C673 1.363 . S
C668 C669 1.363 1_556 S
C668 C673 1.379 . S
C668 N675 1.356 1_556 S
C669 C668 1.363 1_554 S
C669 C672 1.363 1_554 S
N670 C672 1.356 1_554 S
N670 H682 0.984 1_554 S
N670 H683 0.985 . S
N671 C673 1.356 . S
N671 H676 0.984 . S
N671 H677 0.985 . S
C672 C666 1.379 . S
C672 C669 1.363 1_556 S
C672 N670 1.356 1_556 S
C673 C667 1.363 . S
C673 C668 1.379 . S
C673 N671 1.356 . S
N674 C666 1.356 . S
N674 H680 0.984 . S
N674 H681 0.984 . S
N675 C668 1.356 1_554 S
N675 H678 0.984 . S
N675 H679 0.985 . S
H676 N671 0.984 . S
H677 N671 0.985 . S
H678 N675 0.984 . S
H679 N675 0.985 . S
H680 N674 0.984 . S
H681 N674 0.984 . S
H682 N670 0.984 1_556 S
H683 N670 0.985 . S
C684 C685 1.363 . S
C684 C690 1.379 . S
C684 N692 1.356 . S
C685 C684 1.363 . S
C685 C691 1.363 . S
C686 C687 1.363 . S
C686 C691 1.379 . S
C686 N693 1.356 . S
C687 C686 1.363 . S
C687 C690 1.363 . S
N688 C690 1.356 1_565 S
N688 H700 0.984 . S
N688 H701 0.985 . S
N689 C691 1.356 . S
N689 H694 0.984 . S
N689 H695 0.985 . S
C690 C684 1.379 . S
C690 C687 1.363 . S
C690 N688 1.356 1_545 S
C691 C685 1.363 . S
C691 C686 1.379 . S
C691 N689 1.356 . S
N692 C684 1.356 . S
N692 H698 0.984 1_554 S
N692 H699 0.984 . S
N693 C686 1.356 . S
N693 H696 0.984 . S
N693 H697 0.985 . S
H694 N689 0.984 . S
H695 N689 0.985 . S
H696 N693 0.984 . S
H697 N693 0.985 . S
H698 N692 0.984 1_556 S
H699 N692 0.984 . S
H700 N688 0.984 . S
H701 N688 0.985 . S
C702 C703 1.363 . S
C702 C708 1.379 . S
C702 N710 1.356 . S
C703 C702 1.363 . S
C703 C709 1.363 . S
C704 C705 1.363 . S
C704 C709 1.379 . S
C704 N711 1.356 . S
C705 C704 1.363 . S
C705 C708 1.363 . S
N706 C708 1.356 . S
N706 H718 0.984 1_554 S
N706 H719 0.985 . S
N707 C709 1.356 . S
N707 H712 0.984 . S
N707 H713 0.985 . S
C708 C702 1.379 . S
C708 C705 1.363 . S
C708 N706 1.356 . S
C709 C703 1.363 . S
C709 C704 1.379 . S
C709 N707 1.356 . S
N710 C702 1.356 . S
N710 H716 0.984 1_554 S
N710 H717 0.984 . S
N711 C704 1.356 . S
N711 H714 0.984 . S
N711 H715 0.985 . S
H712 N707 0.984 . S
H713 N707 0.985 . S
H714 N711 0.984 . S
H715 N711 0.985 . S
H716 N710 0.984 1_556 S
H717 N710 0.984 . S
H718 N706 0.984 1_556 S
H719 N706 0.985 . S
C720 C721 1.363 . S
C720 C726 1.379 . S
C720 N728 1.356 . S
C721 C720 1.363 . S
C721 C727 1.363 . S
C722 C723 1.363 . S
C722 C727 1.379 . S
C722 N729 1.356 . S
C723 C722 1.363 . S
C723 C726 1.363 . S
N724 C726 1.356 . S
N724 H736 0.984 . S
N724 H737 0.985 . S
N725 C727 1.356 . S
N725 H730 0.984 . S
N725 H731 0.985 . S
C726 C720 1.379 . S
C726 C723 1.363 . S
C726 N724 1.356 . S
C727 C721 1.363 . S
C727 C722 1.379 . S
C727 N725 1.356 . S
N728 C720 1.356 . S
N728 H734 0.984 1_554 S
N728 H735 0.984 1_554 S
N729 C722 1.356 . S
N729 H732 0.984 . S
N729 H733 0.985 . S
H730 N725 0.984 . S
H731 N725 0.985 . S
H732 N729 0.984 . S
H733 N729 0.985 . S
H734 N728 0.984 1_556 S
H735 N728 0.984 1_556 S
H736 N724 0.984 . S
H737 N724 0.985 . S
C738 C739 1.363 . S
C738 C744 1.379 . S
C738 N746 1.356 . S
C739 C738 1.363 . S
C739 C745 1.363 . S
C740 C741 1.363 . S
C740 C745 1.379 . S
C740 N747 1.356 . S
C741 C740 1.363 . S
C741 C744 1.363 . S
N742 C744 1.356 . S
N742 H754 0.984 . S
N742 H755 0.985 . S
N743 C745 1.356 . S
N743 H748 0.984 . S
N743 H749 0.985 . S
C744 C738 1.379 . S
C744 C741 1.363 . S
C744 N742 1.356 . S
C745 C739 1.363 . S
C745 C740 1.379 . S
C745 N743 1.356 . S
N746 C738 1.356 . S
N746 H752 0.984 . S
N746 H753 0.984 . S
N747 C740 1.356 . S
N747 H750 0.984 . S
N747 H751 0.985 . S
H748 N743 0.984 . S
H749 N743 0.985 . S
H750 N747 0.984 . S
H751 N747 0.985 . S
H752 N746 0.984 . S
H753 N746 0.984 . S
H754 N742 0.984 . S
H755 N742 0.985 . S
C756 C757 1.363 . S
C756 C762 1.379 1_545 S
C756 N764 1.356 . S
C757 C756 1.363 . S
C757 C763 1.363 . S
C758 C759 1.363 1_545 S
C758 C763 1.379 . S
C758 N765 1.356 . S
C759 C758 1.363 1_565 S
C759 C762 1.363 . S
N760 C762 1.356 . S
N760 H772 0.984 . S
N760 H773 0.985 . S
N761 C763 1.356 . S
N761 H766 0.984 . S
N761 H767 0.985 . S
C762 C756 1.379 1_565 S
C762 C759 1.363 . S
C762 N760 1.356 . S
C763 C757 1.363 . S
C763 C758 1.379 . S
C763 N761 1.356 . S
N764 C756 1.356 . S
N764 H770 0.984 1_545 S
N764 H771 0.984 . S
N765 C758 1.356 . S
N765 H768 0.984 1_545 S
N765 H769 0.985 . S
H766 N761 0.984 . S
H767 N761 0.985 . S
H768 N765 0.984 1_565 S
H769 N765 0.985 . S
H770 N764 0.984 1_565 S
H771 N764 0.984 . S
H772 N760 0.984 . S
H773 N760 0.985 . S
C774 C775 1.363 . S
C774 C780 1.407 . S
C774 N782 1.356 . S
C775 C774 1.363 . S
C775 C781 1.363 . S
C776 C777 1.363 . S
C776 C781 1.379 1_455 S
C776 N783 1.356 . S
C777 C776 1.363 . S
C777 C780 1.357 1_455 S
N778 C780 1.330 1_455 S
N778 H790 0.984 1_455 S
N778 H791 0.985 . S
N779 C781 1.356 . S
N779 H784 0.984 . S
N779 H785 0.985 . S
C780 C774 1.407 . S
C780 C777 1.357 1_655 S
C780 N778 1.330 1_655 S
C781 C775 1.363 . S
C781 C776 1.379 1_655 S
C781 N779 1.356 . S
N782 C774 1.356 . S
N782 H788 0.984 . S
N782 H789 0.984 . S
N783 C776 1.356 . S
N783 H786 0.984 . S
N783 H787 0.985 . S
H784 N779 0.984 . S
H785 N779 0.985 . S
H786 N783 0.984 . S
H787 N783 0.985 . S
H788 N782 0.984 . S
H789 N782 0.984 . S
H790 N778 0.984 1_655 S
H791 N778 0.985 . S
C792 C793 1.363 . S
C792 C798 1.379 . S
C792 N800 1.356 . S
C793 C792 1.363 . S
C793 C799 1.363 . S
C794 C795 1.363 . S
C794 C799 1.379 . S
C794 N801 1.356 . S
C795 C794 1.363 . S
C795 C798 1.363 . S
N796 C798 1.356 . S
N796 H808 0.984 . S
N796 H809 0.985 . S
N797 C799 1.356 . S
N797 H802 0.984 . S
N797 H803 0.985 . S
C798 C792 1.379 . S
C798 C795 1.363 . S
C798 N796 1.356 . S
C799 C793 1.363 . S
C799 C794 1.379 . S
C799 N797 1.356 . S
N800 C792 1.356 . S
N800 H806 0.984 . S
N800 H807 0.984 . S
N801 C794 1.356 . S
N801 H804 0.984 . S
N801 H805 0.985 . S
H802 N797 0.984 . S
H803 N797 0.985 . S
H804 N801 0.984 . S
H805 N801 0.985 . S
H806 N800 0.984 . S
H807 N800 0.984 . S
H808 N796 0.984 . S
H809 N796 0.985 . S
C810 C811 1.363 1_545 S
C810 C816 1.379 . S
C810 N818 1.356 . S
C811 C810 1.363 1_565 S
C811 C817 1.363 . S
C812 C813 1.363 . S
C812 C817 1.379 1_545 S
C812 N819 1.356 . S
C813 C812 1.363 . S
C813 C816 1.363 . S
N814 C816 1.356 . S
N814 H826 0.984 . S
N814 H827 0.985 . S
N815 C817 1.356 . S
N815 H820 0.984 . S
N815 H821 0.985 . S
C816 C810 1.379 . S
C816 C813 1.363 . S
C816 N814 1.356 . S
C817 C811 1.363 . S
C817 C812 1.379 1_565 S
C817 N815 1.356 . S
N818 C810 1.356 . S
N818 H824 0.984 . S
N818 H825 0.984 1_545 S
N819 C812 1.356 . S
N819 H822 0.984 . S
N819 H823 0.985 . S
H820 N815 0.984 . S
H821 N815 0.985 . S
H822 N819 0.984 . S
H823 N819 0.985 . S
H824 N818 0.984 . S
H825 N818 0.984 1_565 S
H826 N814 0.984 . S
H827 N814 0.985 . S
C828 C829 1.363 . S
C828 C834 1.379 . S
C828 N836 1.356 . S
C829 C828 1.363 . S
C829 C835 1.363 1_655 S
C830 C831 1.363 . S
C830 C835 1.379 . S
C830 N837 1.356 . S
C831 C830 1.363 . S
C831 C834 1.363 1_455 S
N832 C834 1.356 . S
N832 H844 0.984 . S
N832 H845 0.985 . S
N833 C835 1.356 . S
N833 H838 0.984 . S
N833 H839 0.985 . S
C834 C828 1.379 . S
C834 C831 1.363 1_655 S
C834 N832 1.356 . S
C835 C829 1.363 1_455 S
C835 C830 1.379 . S
C835 N833 1.356 . S
N836 C828 1.356 . S
N836 H842 0.984 . S
N836 H843 0.984 . S
N837 C830 1.356 . S
N837 H840 0.984 . S
N837 H841 0.985 . S
H838 N833 0.984 . S
H839 N833 0.985 . S
H840 N837 0.984 . S
H841 N837 0.985 . S
H842 N836 0.984 . S
H843 N836 0.984 . S
H844 N832 0.984 . S
H845 N832 0.985 . S
C361 C17 3.641 . S
C363 C2 3.641 . S
C379 C42 3.724 . S
C381 C57 3.724 . S
C397 C97 3.760 . S
C399 C82 3.760 . S
C415 C122 3.641 . S
C417 C137 3.641 1_556 S
C433 C177 3.724 . S
C435 C162 3.724 1_556 S
C451 C202 3.760 . S
C453 C217 3.760 1_556 S
C469 C248 0.237 . S
C471 C269 0.237 . S
C487 C309 0.356 . S
C489 C288 0.356 . S
C505 C328 0.583 . S
C507 C349 0.583 . S
C523 C231 1.564 . S
C525 C8 1.552 . S
C541 C71 2.574 . S
C543 C151 2.605 . S
C559 C88 1.090 . S
C561 C168 1.118 . S
C577 C111 3.144 . S
C579 C252 3.212 . S
C595 C282 1.431 . S
C597 C31 1.384 . S
C613 C332 2.033 . S
C615 C48 1.893 . S
C631 C337 1.131 . S
C633 C29 1.042 . S
C649 C52 2.443 1_556 S
C651 C257 2.445 . S
C667 C311 2.947 . S
C669 C109 2.816 . S
C685 C92 1.564 . S
C687 C149 1.552 . S
C703 C172 2.574 . S
C705 C12 2.606 . S
C721 C69 1.118 . S
C723 C229 1.090 . S
C739 C322 1.131 . S
C741 C128 1.042 . S
C757 C242 2.445 . S
C759 C191 2.443 . S
C775 C292 2.947 . S
C777 C208 2.816 . S
C793 C271 3.212 . S
C795 C212 3.144 . S
C811 C132 1.384 . S
C813 C297 1.430 . S
C829 C351 2.033 . S
C831 C189 1.893 . S
