# Generated by pormake.
# Topology ske, (6)-cn, num edge types: 1
# Building blocks:
#     Node 0, Type 0, BuildingBlock: KUMBOL_clean_sbu_1, # of connection points: 6
#     Node 1, Type 0, BuildingBlock: KUMBOL_clean_sbu_1, # of connection points: 6
#     Node 2, Type 0, BuildingBlock: KUMBOL_clean_sbu_1, # of connection points: 6
#     Node 3, Type 0, BuildingBlock: KUMBOL_clean_sbu_1, # of connection points: 6
#     Node 4, Type 0, BuildingBlock: KUMBOL_clean_sbu_1, # of connection points: 6
#     Node 5, Type 0, BuildingBlock: KUMBOL_clean_sbu_1, # of connection points: 6
#     Node 6, Type 0, BuildingBlock: KUMBOL_clean_sbu_1, # of connection points: 6
#     Node 7, Type 0, BuildingBlock: KUMBOL_clean_sbu_1, # of connection points: 6
#     Edge 8, Type (0, 0), BuildingBlock: XUDNAN_clean_linker_2, # of connection points: 2
#     Edge 9, Type (0, 0), BuildingBlock: XUDNAN_clean_linker_2, # of connection points: 2
#     Edge 10, Type (0, 0), BuildingBlock: XUDNAN_clean_linker_2, # of connection points: 2
#     Edge 11, Type (0, 0), BuildingBlock: XUDNAN_clean_linker_2, # of connection points: 2
#     Edge 12, Type (0, 0), BuildingBlock: XUDNAN_clean_linker_2, # of connection points: 2
#     Edge 13, Type (0, 0), BuildingBlock: XUDNAN_clean_linker_2, # of connection points: 2
#     Edge 14, Type (0, 0), BuildingBlock: XUDNAN_clean_linker_2, # of connection points: 2
#     Edge 15, Type (0, 0), BuildingBlock: XUDNAN_clean_linker_2, # of connection points: 2
#     Edge 16, Type (0, 0), BuildingBlock: XUDNAN_clean_linker_2, # of connection points: 2
#     Edge 17, Type (0, 0), BuildingBlock: XUDNAN_clean_linker_2, # of connection points: 2
#     Edge 18, Type (0, 0), BuildingBlock: XUDNAN_clean_linker_2, # of connection points: 2
#     Edge 19, Type (0, 0), BuildingBlock: XUDNAN_clean_linker_2, # of connection points: 2
#     Edge 20, Type (0, 0), BuildingBlock: XUDNAN_clean_linker_2, # of connection points: 2
#     Edge 21, Type (0, 0), BuildingBlock: XUDNAN_clean_linker_2, # of connection points: 2
#     Edge 22, Type (0, 0), BuildingBlock: XUDNAN_clean_linker_2, # of connection points: 2
#     Edge 23, Type (0, 0), BuildingBlock: XUDNAN_clean_linker_2, # of connection points: 2
#     Edge 24, Type (0, 0), BuildingBlock: XUDNAN_clean_linker_2, # of connection points: 2
#     Edge 25, Type (0, 0), BuildingBlock: XUDNAN_clean_linker_2, # of connection points: 2
#     Edge 26, Type (0, 0), BuildingBlock: XUDNAN_clean_linker_2, # of connection points: 2
#     Edge 27, Type (0, 0), BuildingBlock: XUDNAN_clean_linker_2, # of connection points: 2
#     Edge 28, Type (0, 0), BuildingBlock: XUDNAN_clean_linker_2, # of connection points: 2
#     Edge 29, Type (0, 0), BuildingBlock: XUDNAN_clean_linker_2, # of connection points: 2
#     Edge 30, Type (0, 0), BuildingBlock: XUDNAN_clean_linker_2, # of connection points: 2
#     Edge 31, Type (0, 0), BuildingBlock: XUDNAN_clean_linker_2, # of connection points: 2
# Relax obj value: 0.216
# Max RMSD: 0.232
# Mean RMSD: 0.229
data_MOF--net-ske--node1-KUMBOL_clean_sbu_1--edge1-XUDNAN_clean_linker_2
_symmetry_space_group_name_H-M    P1
_symmetry_Int_Tables_number       1
_symmetry_cell_setting            triclinic
loop_
_symmetry_equiv_pos_as_xyz
'x, y, z'
_cell_length_a     99.408445
_cell_length_b     29.799881
_cell_length_c     15.185983
_cell_angle_alpha  98.167515
_cell_angle_beta   90.046357
_cell_angle_gamma 90.003762
loop_
_atom_site_label
_atom_site_type_symbol
_atom_site_fract_x
_atom_site_fract_y
_atom_site_fract_z
_atom_type_partial_charge
C0 C 0.10308 0.24199 0.74955 0.0
C1 C 0.09814 0.31483 0.83776 0.0
C2 C 0.10217 0.28904 0.757 0.0
C3 C 0.09511 0.29285 0.91119 0.0
C4 C 0.09975 0.21988 0.82287 0.0
C5 C 0.09597 0.24555 0.90389 0.0
N6 N 0.10701 0.2179 0.6706 0.0
C7 C 0.10578 0.1718 0.65744 0.0
C8 C 0.09999 0.17249 0.81202 0.0
C9 C 0.10269 0.14837 0.72832 0.0
Gd10 Gd 0.15189 0.24715 0.5355 0.0
Gd11 Gd 0.11208 0.26179 0.55721 0.0
N12 N 0.10583 0.30971 0.68631 0.0
C13 C 0.09763 0.36212 0.84299 0.0
C14 C 0.1052 0.35571 0.69049 0.0
C15 C 0.10114 0.3826 0.76896 0.0
H16 H 0.10779 0.37157 0.63311 0.0
H17 H 0.10073 0.4191 0.77237 0.0
H18 H 0.15888 0.13745 0.54735 0.0
H19 H 0.10663 0.1528 0.59194 0.0
H20 H 0.16842 0.07168 0.45062 0.0
H21 H 0.09462 0.3831 0.90397 0.0
H22 H 0.09216 0.31214 0.97411 0.0
H23 H 0.15496 0.3359 0.42271 0.0
H24 H 0.09751 0.15424 0.86668 0.0
H25 H 0.10206 0.11175 0.71776 0.0
H26 H 0.18194 0.13171 0.18738 0.0
H27 H 0.09352 0.2291 0.96104 0.0
H28 H 0.17377 0.28903 0.1733 0.0
H29 H 0.16357 0.35106 0.27753 0.0
N30 N 0.15953 0.26556 0.3989 0.0
C31 C 0.16561 0.23129 0.34415 0.0
C32 C 0.15916 0.30845 0.37727 0.0
C33 C 0.16993 0.28211 0.23678 0.0
C34 C 0.16414 0.3172 0.2953 0.0
C35 C 0.17085 0.23863 0.26118 0.0
H36 H 0.18093 0.2075 0.14143 0.0
N37 N 0.16108 0.18231 0.45106 0.0
C38 C 0.16617 0.18837 0.37036 0.0
C39 C 0.17268 0.10945 0.34296 0.0
C40 C 0.17209 0.152 0.31409 0.0
C41 C 0.16215 0.14138 0.48108 0.0
C42 C 0.16776 0.10421 0.42702 0.0
O43 O 0.12633 0.2869 0.67279 0.0
O44 O 0.14304 0.23444 0.66861 0.0
O45 O 0.17219 0.22725 0.56577 0.0
O46 O 0.1659 0.29658 0.60415 0.0
O47 O 0.12195 0.32263 0.51096 0.0
O48 O 0.14383 0.31972 0.56549 0.0
O49 O 0.14015 0.23641 0.4027 0.0
O50 O 0.11962 0.27352 0.42113 0.0
O51 O 0.09351 0.29743 0.53592 0.0
O52 O 0.0941 0.22458 0.50823 0.0
O53 O 0.13984 0.19068 0.58078 0.0
O54 O 0.12084 0.19356 0.49669 0.0
C55 C 0.13453 0.26231 0.71467 0.0
C56 C 0.13355 0.34178 0.53645 0.0
C57 C 0.184 0.269 0.68467 0.0
C58 C 0.2065 0.27425 0.75196 0.0
C59 C 0.18669 0.26371 0.84148 0.0
C60 C 0.17838 0.26373 0.76713 0.0
C61 C 0.20063 0.26885 0.83415 0.0
C62 C 0.19801 0.27415 0.67739 0.0
C63 C 0.17565 0.26728 0.60409 0.0
C64 C 0.17735 0.15926 0.23144 0.0
C65 C 0.17679 0.20246 0.20529 0.0
H66 H 0.17711 0.08064 0.30151 0.0
C67 C 0.12963 0.25585 0.37052 0.0
C68 C 0.13033 0.17025 0.53053 0.0
C69 C 0.07768 0.26218 0.43223 0.0
C70 C 0.05463 0.26602 0.37584 0.0
C71 C 0.07382 0.26396 0.27525 0.0
C72 C 0.0827 0.26218 0.34607 0.0
C73 C 0.05992 0.26594 0.28979 0.0
C74 C 0.0637 0.26394 0.44678 0.0
C75 C 0.08679 0.26079 0.50832 0.0
H76 H 0.18231 0.25968 0.90512 0.0
H77 H 0.16762 0.25938 0.77381 0.0
H78 H 0.20679 0.26926 0.89313 0.0
H79 H 0.2023 0.27728 0.61293 0.0
H80 H 0.07774 0.26415 0.2088 0.0
H81 H 0.09343 0.26092 0.33373 0.0
H82 H 0.05334 0.26826 0.23374 0.0
H83 H 0.05992 0.26333 0.51352 0.0
C84 C 0.84843 0.30396 0.34841 0.0
C85 C 0.84459 0.24154 0.22987 0.0
C86 C 0.84831 0.25786 0.31813 0.0
C87 C 0.84162 0.27251 0.171 0.0
C88 C 0.84491 0.33512 0.29051 0.0
C89 C 0.84185 0.31921 0.20114 0.0
N90 N 0.85134 0.31815 0.43545 0.0
C91 C 0.84934 0.3624 0.47075 0.0
C92 C 0.84418 0.38118 0.32484 0.0
C93 C 0.84612 0.39474 0.41578 0.0
Gd94 Gd 0.89815 0.26066 0.54629 0.0
Gd95 Gd 0.85783 0.2613 0.52052 0.0
N96 N 0.85169 0.22878 0.37596 0.0
C97 C 0.84381 0.19458 0.204 0.0
C98 C 0.85036 0.183 0.35247 0.0
C99 C 0.84658 0.16522 0.2658 0.0
H100 H 0.85242 0.1604 0.40055 0.0
H101 H 0.84577 0.12892 0.24674 0.0
H102 H 0.90465 0.37414 0.59168 0.0
H103 H 0.85014 0.37295 0.54157 0.0
H104 H 0.90953 0.43001 0.72271 0.0
H105 H 0.84083 0.18066 0.13705 0.0
H106 H 0.83894 0.2607 0.10247 0.0
H107 H 0.90374 0.15945 0.60706 0.0
H108 H 0.84158 0.40625 0.28252 0.0
H109 H 0.84498 0.43 0.44384 0.0
H110 H 0.91693 0.34041 0.95657 0.0
H111 H 0.83928 0.34268 0.15542 0.0
H112 H 0.91604 0.17866 0.8805 0.0
H113 H 0.91081 0.12738 0.74182 0.0
N114 N 0.90458 0.22761 0.67078 0.0
C115 C 0.90807 0.25652 0.74477 0.0
C116 C 0.90596 0.18183 0.66776 0.0
C117 C 0.91292 0.19282 0.82186 0.0
C118 C 0.90998 0.16372 0.74367 0.0
C119 C 0.91202 0.23983 0.82312 0.0
H120 H 0.91793 0.25832 0.96091 0.0
N121 N 0.90409 0.31783 0.66407 0.0
C122 C 0.90748 0.3029 0.74192 0.0
C123 C 0.91116 0.38001 0.81153 0.0
C124 C 0.91093 0.33367 0.81801 0.0
C125 C 0.90558 0.36261 0.65557 0.0
C126 C 0.90873 0.39444 0.72949 0.0
O127 O 0.87138 0.2397 0.39762 0.0
O128 O 0.89033 0.28344 0.41728 0.0
O129 O 0.91919 0.28006 0.5399 0.0
O130 O 0.91244 0.21663 0.46719 0.0
O131 O 0.86706 0.19477 0.54772 0.0
O132 O 0.8884 0.19497 0.48467 0.0
O133 O 0.8846 0.23914 0.65648 0.0
O134 O 0.86629 0.28523 0.66007 0.0
O135 O 0.84279 0.21696 0.56886 0.0
O136 O 0.83777 0.28596 0.55831 0.0
O137 O 0.88861 0.32486 0.51084 0.0
O138 O 0.86841 0.32533 0.58465 0.0
C139 C 0.88078 0.2638 0.36465 0.0
C140 C 0.87781 0.17372 0.51101 0.0
C141 C 0.93188 0.25074 0.41335 0.0
C142 C 0.95506 0.26029 0.36367 0.0
C143 C 0.93633 0.25912 0.25958 0.0
C144 C 0.92721 0.25338 0.32711 0.0
C145 C 0.95013 0.26248 0.27745 0.0
C146 C 0.94577 0.25432 0.43129 0.0
C147 C 0.92256 0.24409 0.48592 0.0
C148 C 0.9144 0.31723 0.89728 0.0
C149 C 0.915 0.27044 0.89973 0.0
H150 H 0.91372 0.40473 0.86848 0.0
C151 C 0.87542 0.26426 0.70242 0.0
C152 C 0.87816 0.34656 0.54902 0.0
C153 C 0.81998 0.23327 0.53666 0.0
C154 C 0.79613 0.21434 0.55268 0.0
C155 C 0.80573 0.21684 0.40607 0.0
C156 C 0.81818 0.22877 0.44427 0.0
C157 C 0.7948 0.20966 0.45955 0.0
C158 C 0.80884 0.22647 0.59119 0.0
C159 C 0.83328 0.24729 0.5757 0.0
H160 H 0.93267 0.26117 0.19309 0.0
H161 H 0.91656 0.25098 0.31203 0.0
H162 H 0.95692 0.26763 0.22405 0.0
H163 H 0.94934 0.2519 0.49794 0.0
H164 H 0.8045 0.21365 0.33461 0.0
H165 H 0.8263 0.23522 0.40132 0.0
H166 H 0.78518 0.20126 0.42783 0.0
H167 H 0.81006 0.23041 0.66279 0.0
C168 C 0.0996 0.76562 0.26947 0.0
C169 C 0.0985 0.69092 0.18204 0.0
C170 C 0.10148 0.7189 0.26275 0.0
C171 C 0.09413 0.71048 0.10814 0.0
C172 C 0.09488 0.78521 0.19602 0.0
C173 C 0.09227 0.75743 0.1152 0.0
N174 N 0.10289 0.79214 0.34691 0.0
C175 C 0.10114 0.838 0.35713 0.0
C176 C 0.0932 0.83235 0.2055 0.0
C177 C 0.0963 0.85881 0.28651 0.0
Gd178 Gd 0.1507 0.74083 0.465 0.0
Gd179 Gd 0.11032 0.75432 0.46243 0.0
N180 N 0.10593 0.70079 0.3352 0.0
C181 C 0.09969 0.64395 0.17852 0.0
C182 C 0.10564 0.65487 0.33427 0.0
C183 C 0.10297 0.62584 0.25553 0.0
H184 H 0.10689 0.64006 0.39432 0.0
H185 H 0.10312 0.58947 0.25492 0.0
H186 H 0.15408 0.83158 0.62343 0.0
H187 H 0.10354 0.85844 0.4198 0.0
H188 H 0.16399 0.84915 0.77384 0.0
H189 H 0.0975 0.62133 0.11781 0.0
H190 H 0.09194 0.68948 0.04549 0.0
H191 H 0.15825 0.63206 0.39342 0.0
H192 H 0.08962 0.84864 0.15055 0.0
H193 H 0.09503 0.89523 0.29442 0.0
H194 H 0.18309 0.708 0.83003 0.0
H195 H 0.08881 0.77194 0.0577 0.0
H196 H 0.17893 0.57907 0.60382 0.0
H197 H 0.16906 0.5678 0.45266 0.0
N198 N 0.16144 0.67833 0.5116 0.0
C199 C 0.1671 0.68565 0.59401 0.0
C200 C 0.16236 0.63703 0.46004 0.0
C201 C 0.17412 0.60725 0.57848 0.0
C202 C 0.16856 0.60074 0.49309 0.0
C203 C 0.17356 0.65017 0.62975 0.0
H204 H 0.18426 0.63173 0.74377 0.0
N205 N 0.15974 0.76207 0.60796 0.0
C206 C 0.16645 0.72883 0.64293 0.0
C207 C 0.17121 0.78113 0.77606 0.0
C208 C 0.1722 0.73739 0.72854 0.0
C209 C 0.1591 0.80519 0.65283 0.0
C210 C 0.16471 0.8152 0.73781 0.0
O211 O 0.12386 0.77631 0.35447 0.0
O212 O 0.14023 0.72258 0.33078 0.0
O213 O 0.16263 0.78947 0.40506 0.0
O214 O 0.17062 0.72264 0.41016 0.0
O215 O 0.11927 0.69087 0.50599 0.0
O216 O 0.13744 0.68169 0.41358 0.0
O217 O 0.14048 0.73996 0.60079 0.0
O218 O 0.11854 0.76786 0.60302 0.0
O219 O 0.09159 0.72106 0.48961 0.0
O220 O 0.09277 0.79391 0.51106 0.0
O221 O 0.14245 0.81249 0.46891 0.0
O222 O 0.12044 0.81959 0.52331 0.0
C223 C 0.13198 0.75107 0.29953 0.0
C224 C 0.12919 0.66578 0.46894 0.0
C225 C 0.1862 0.78342 0.42375 0.0
C226 C 0.21043 0.79433 0.40384 0.0
C227 C 0.19893 0.83282 0.5347 0.0
C228 C 0.18677 0.81353 0.50355 0.0
C229 C 0.21067 0.8233 0.48557 0.0
C230 C 0.1981 0.77373 0.3739 0.0
C231 C 0.17314 0.76315 0.39206 0.0
C232 C 0.17864 0.70209 0.76423 0.0
C233 C 0.17928 0.6586 0.71514 0.0
H234 H 0.17545 0.78897 0.84219 0.0
C235 C 0.12944 0.75543 0.64317 0.0
C236 C 0.13202 0.83694 0.50194 0.0
C237 C 0.07639 0.76007 0.59328 0.0
C238 C 0.05356 0.76536 0.655 0.0
C239 C 0.07299 0.75979 0.75114 0.0
C240 C 0.08165 0.75821 0.67829 0.0
C241 C 0.05907 0.76338 0.73985 0.0
C242 C 0.06241 0.76345 0.58189 0.0
C243 C 0.08522 0.75873 0.51524 0.0
H244 H 0.19924 0.85563 0.59687 0.0
H245 H 0.17779 0.82271 0.54143 0.0
H246 H 0.21997 0.83877 0.51172 0.0
H247 H 0.19769 0.75129 0.31121 0.0
H248 H 0.07709 0.75852 0.81681 0.0
H249 H 0.0924 0.75563 0.6882 0.0
H250 H 0.05266 0.76541 0.79789 0.0
H251 H 0.05843 0.76421 0.51562 0.0
C252 C 0.84674 0.77133 0.6759 0.0
C253 C 0.84279 0.85176 0.716 0.0
C254 C 0.84685 0.81468 0.65342 0.0
C255 C 0.83953 0.84475 0.80308 0.0
C256 C 0.84286 0.7637 0.76176 0.0
C257 C 0.83959 0.80079 0.82597 0.0
N258 N 0.85017 0.73633 0.6127 0.0
C259 C 0.84856 0.69254 0.62777 0.0
C260 C 0.84215 0.71895 0.77981 0.0
C261 C 0.84479 0.68318 0.71199 0.0
Gd262 Gd 0.89842 0.7557 0.4583 0.0
Gd263 Gd 0.85809 0.75511 0.47651 0.0
N264 N 0.85006 0.82016 0.56867 0.0
C265 C 0.84166 0.89441 0.68825 0.0
C266 C 0.84779 0.86082 0.53946 0.0
C267 C 0.84385 0.89869 0.59903 0.0
H268 H 0.84906 0.86432 0.47009 0.0
H269 H 0.84242 0.93106 0.57588 0.0
H270 H 0.90252 0.65007 0.35649 0.0
H271 H 0.85078 0.66505 0.57547 0.0
H272 H 0.91085 0.61114 0.21178 0.0
H273 H 0.83856 0.92378 0.73418 0.0
H274 H 0.8366 0.87292 0.85247 0.0
H275 H 0.90672 0.86639 0.46292 0.0
H276 H 0.83927 0.71165 0.84509 0.0
H277 H 0.84399 0.64844 0.72465 0.0
H278 H 0.9235 0.73268 0.05236 0.0
H279 H 0.83677 0.79574 0.89277 0.0
H280 H 0.92025 0.88447 0.20341 0.0
H281 H 0.91458 0.91646 0.35809 0.0
N282 N 0.90614 0.80729 0.36579 0.0
C283 C 0.91015 0.78848 0.28293 0.0
C284 C 0.90839 0.85223 0.39439 0.0
C285 C 0.91638 0.86244 0.24841 0.0
C286 C 0.91317 0.88064 0.33561 0.0
C287 C 0.91528 0.81567 0.22185 0.0
H288 H 0.92365 0.81564 0.09007 0.0
N289 N 0.90504 0.71602 0.32112 0.0
C290 C 0.90991 0.74154 0.26076 0.0
C291 C 0.91499 0.6734 0.15994 0.0
C292 C 0.91481 0.72083 0.17781 0.0
C293 C 0.90575 0.6698 0.30589 0.0
C294 C 0.91051 0.64779 0.22445 0.0
O295 O 0.87059 0.73937 0.59595 0.0
O296 O 0.88969 0.78267 0.59577 0.0
O297 O 0.91257 0.71335 0.51839 0.0
O298 O 0.91919 0.77723 0.48257 0.0
O299 O 0.86879 0.81691 0.4388 0.0
O300 O 0.88877 0.82278 0.51531 0.0
O301 O 0.88531 0.73187 0.33336 0.0
O302 O 0.86688 0.77747 0.35098 0.0
O303 O 0.83728 0.76965 0.44536 0.0
O304 O 0.84596 0.70525 0.39268 0.0
O305 O 0.88946 0.69247 0.49963 0.0
O306 O 0.86828 0.68672 0.43487 0.0
C307 C 0.88026 0.76342 0.63917 0.0
C308 C 0.87822 0.84156 0.48309 0.0
C309 C 0.93129 0.74918 0.59708 0.0
C310 C 0.95404 0.76063 0.65859 0.0
C311 C 0.93481 0.75638 0.7565 0.0
C312 C 0.92613 0.75041 0.68329 0.0
C313 C 0.94866 0.76133 0.74446 0.0
C314 C 0.94521 0.75444 0.58518 0.0
C315 C 0.92253 0.74171 0.51803 0.0
C316 C 0.91961 0.74796 0.11624 0.0
C317 C 0.91971 0.79524 0.13782 0.0
H318 H 0.91877 0.65623 0.09715 0.0
C319 C 0.87608 0.75595 0.29853 0.0
C320 C 0.87876 0.66888 0.47064 0.0
C321 C 0.82224 0.70792 0.4163 0.0
C322 C 0.79779 0.70275 0.39663 0.0
C323 C 0.80942 0.65289 0.48514 0.0
C324 C 0.82172 0.67246 0.46786 0.0
C325 C 0.79752 0.66803 0.45031 0.0
C326 C 0.81024 0.72263 0.37994 0.0
C327 C 0.83513 0.73009 0.39976 0.0
H328 H 0.93078 0.75727 0.82295 0.0
H329 H 0.91543 0.7466 0.69391 0.0
H330 H 0.95512 0.76647 0.80246 0.0
H331 H 0.94917 0.75303 0.51833 0.0
H332 H 0.80912 0.62566 0.5253 0.0
H333 H 0.83079 0.65962 0.49434 0.0
H334 H 0.78812 0.65193 0.46385 0.0
H335 H 0.81058 0.74982 0.33952 0.0
C336 C 0.59889 0.72615 0.25148 0.0
C337 C 0.59394 0.79578 0.35041 0.0
C338 C 0.59906 0.77332 0.26946 0.0
C339 C 0.58882 0.77028 0.41374 0.0
C340 C 0.59363 0.70058 0.31489 0.0
C341 C 0.5888 0.72285 0.39649 0.0
N342 N 0.60333 0.70545 0.1709 0.0
C343 C 0.60156 0.6599 0.14699 0.0
C344 C 0.5929 0.65342 0.2932 0.0
C345 C 0.59668 0.63309 0.20839 0.0
Gd346 Gd 0.65107 0.7565 0.06192 0.0
Gd347 Gd 0.61093 0.75467 0.07341 0.0
N348 N 0.6043 0.79728 0.20762 0.0
C349 C 0.59399 0.84327 0.3649 0.0
C350 C 0.60387 0.84354 0.21964 0.0
C351 C 0.59892 0.86723 0.29906 0.0
H352 H 0.60735 0.86207 0.16791 0.0
H353 H 0.59878 0.90392 0.3091 0.0
H354 H 0.66102 0.64827 0.07223 0.0
H355 H 0.60357 0.64404 0.07999 0.0
H356 H 0.66879 0.58233 0.96803 0.0
H357 H 0.59011 0.86175 0.42621 0.0
H358 H 0.58474 0.78695 0.47605 0.0
H359 H 0.65922 0.84775 0.97031 0.0
H360 H 0.58895 0.6326 0.34017 0.0
H361 H 0.5956 0.59685 0.1896 0.0
H362 H 0.67669 0.64238 0.69533 0.0
H363 H 0.58472 0.70371 0.44589 0.0
H364 H 0.67298 0.80366 0.70422 0.0
H365 H 0.66707 0.86588 0.82413 0.0
N366 N 0.6602 0.77666 0.93073 0.0
C367 C 0.66437 0.74228 0.86858 0.0
C368 C 0.66182 0.82074 0.91784 0.0
C369 C 0.66957 0.79571 0.76797 0.0
C370 C 0.66625 0.83094 0.83551 0.0
C371 C 0.66894 0.75071 0.78471 0.0
H372 H 0.67636 0.7198 0.6561 0.0
N373 N 0.66071 0.69284 0.97421 0.0
C374 C 0.66447 0.69885 0.8907 0.0
C375 C 0.6704 0.61969 0.85698 0.0
C376 C 0.66926 0.66239 0.82939 0.0
C377 C 0.66291 0.65221 1.00366 0.0
C378 C 0.66747 0.61482 0.94507 0.0
O379 O 0.62385 0.77732 0.19987 0.0
O380 O 0.64188 0.73031 0.18183 0.0
O381 O 0.67239 0.74948 0.09835 0.0
O382 O 0.66046 0.80786 0.15657 0.0
O383 O 0.61961 0.81737 0.0281 0.0
O384 O 0.64023 0.82414 0.09884 0.0
O385 O 0.63945 0.77062 0.93788 0.0
O386 O 0.62004 0.72846 0.93668 0.0
O387 O 0.59623 0.79547 1.01395 0.0
O388 O 0.59048 0.73038 0.04819 0.0
O389 O 0.64061 0.69271 0.09272 0.0
O390 O 0.62055 0.68742 0.01658 0.0
C391 C 0.63278 0.75204 0.23447 0.0
C392 C 0.63018 0.84132 0.05783 0.0
C393 C 0.68357 0.80668 0.20786 0.0
C394 C 0.70681 0.80349 0.26089 0.0
C395 C 0.69196 0.86436 0.32449 0.0
C396 C 0.68159 0.84637 0.2686 0.0
C397 C 0.70445 0.84304 0.32112 0.0
C398 C 0.69632 0.78552 0.20348 0.0
C399 C 0.67202 0.78721 0.15326 0.0
C400 C 0.67316 0.67007 0.74381 0.0
C401 C 0.67299 0.71417 0.72149 0.0
H402 H 0.674 0.59074 0.81189 0.0
C403 C 0.6297 0.74711 0.89422 0.0
C404 C 0.63126 0.66844 0.04666 0.0
C405 C 0.57789 0.75761 0.93535 0.0
C406 C 0.55515 0.75587 0.87269 0.0
C407 C 0.5745 0.73442 0.77741 0.0
C408 C 0.58314 0.74275 0.85063 0.0
C409 C 0.56061 0.74082 0.78816 0.0
C410 C 0.56395 0.76405 0.94606 0.0
C411 C 0.58662 0.76582 1.01423 0.0
H412 H 0.69028 0.89487 0.37105 0.0
H413 H 0.67194 0.86344 0.27379 0.0
H414 H 0.71235 0.85779 0.36521 0.0
H415 H 0.69801 0.7548 0.15738 0.0
H416 H 0.57859 0.72306 0.71198 0.0
H417 H 0.59386 0.73753 0.84128 0.0
H418 H 0.55418 0.73467 0.73009 0.0
H419 H 0.55996 0.77491 1.01207 0.0
C420 C 0.34772 0.7351 0.85474 0.0
C421 C 0.3432 0.65497 0.81449 0.0
C422 C 0.34772 0.69158 0.87664 0.0
C423 C 0.33962 0.6625 0.72824 0.0
C424 C 0.34338 0.74331 0.77013 0.0
C425 C 0.33971 0.7066 0.70609 0.0
N426 N 0.35149 0.76977 0.91777 0.0
C427 C 0.34986 0.81376 0.90394 0.0
C428 C 0.34251 0.78824 0.75342 0.0
C429 C 0.34558 0.82366 0.82108 0.0
Gd430 Gd 0.39974 0.75253 0.07265 0.0
Gd431 Gd 0.35968 0.74989 0.05232 0.0
N432 N 0.35112 0.68562 0.96087 0.0
C433 C 0.34188 0.61233 0.84208 0.0
C434 C 0.34866 0.64511 0.99018 0.0
C435 C 0.34431 0.60766 0.93091 0.0
H436 H 0.35017 0.64139 0.05926 0.0
H437 H 0.3428 0.57526 0.95386 0.0
H438 H 0.40336 0.85846 0.17484 0.0
H439 H 0.3524 0.84101 0.95597 0.0
H440 H 0.40997 0.89771 0.32349 0.0
H441 H 0.33845 0.58332 0.79641 0.0
H442 H 0.33632 0.63468 0.67916 0.0
H443 H 0.40689 0.6409 0.07455 0.0
H444 H 0.33913 0.79599 0.68945 0.0
H445 H 0.3447 0.85852 0.80936 0.0
H446 H 0.42038 0.77661 0.48997 0.0
H447 H 0.33654 0.71211 0.64018 0.0
H448 H 0.41808 0.62436 0.33947 0.0
H449 H 0.41335 0.59152 0.18376 0.0
N450 N 0.40643 0.70114 0.16891 0.0
C451 C 0.41001 0.72031 0.25254 0.0
C452 C 0.40819 0.65571 0.14302 0.0
C453 C 0.41494 0.64629 0.29213 0.0
C454 C 0.41218 0.62757 0.20449 0.0
C455 C 0.41418 0.69327 0.31669 0.0
H456 H 0.42078 0.69361 0.45288 0.0
N457 N 0.40561 0.79262 0.21124 0.0
C458 C 0.40983 0.76731 0.27383 0.0
C459 C 0.41351 0.83562 0.37741 0.0
C460 C 0.41364 0.78819 0.35934 0.0
C461 C 0.4061 0.83886 0.22678 0.0
C462 C 0.40987 0.86105 0.31055 0.0
O463 O 0.37194 0.7664 0.93164 0.0
O464 O 0.39156 0.72586 0.93309 0.0
O465 O 0.41428 0.79463 0.01516 0.0
O466 O 0.42059 0.73126 0.05471 0.0
O467 O 0.37053 0.68692 0.08508 0.0
O468 O 0.39063 0.68574 1.00997 0.0
O469 O 0.38586 0.7758 0.19301 0.0
O470 O 0.36866 0.72567 0.17561 0.0
O471 O 0.33853 0.73719 0.07805 0.0
O472 O 0.34821 0.79691 0.14603 0.0
O473 O 0.39061 0.81553 0.03074 0.0
O474 O 0.36916 0.81987 0.09161 0.0
C475 C 0.3819 0.74358 0.88877 0.0
C476 C 0.38025 0.66475 0.03899 0.0
C477 C 0.43294 0.75738 0.93993 0.0
C478 C 0.45567 0.75505 0.87695 0.0
C479 C 0.43627 0.73259 0.78246 0.0
C480 C 0.42767 0.74159 0.85559 0.0
C481 C 0.45016 0.73921 0.79283 0.0
C482 C 0.44689 0.76394 0.95034 0.0
C483 C 0.42417 0.76632 0.01849 0.0
C484 C 0.41746 0.76121 0.42379 0.0
C485 C 0.41768 0.71391 0.40263 0.0
H486 H 0.41636 0.85292 0.44236 0.0
C487 C 0.37745 0.74911 0.22818 0.0
C488 C 0.37975 0.83855 0.05861 0.0
C489 C 0.32472 0.80143 0.11874 0.0
C490 C 0.30039 0.81298 0.13785 0.0
C491 C 0.31398 0.86678 0.06987 0.0
C492 C 0.32554 0.8416 0.08075 0.0
C493 C 0.30152 0.8527 0.09809 0.0
C494 C 0.3121 0.78715 0.14695 0.0
C495 C 0.33694 0.7748 0.13163 0.0
H496 H 0.43216 0.72055 0.71735 0.0
H497 H 0.41696 0.73617 0.84643 0.0
H498 H 0.45654 0.73258 0.7347 0.0
H499 H 0.45091 0.77544 0.01608 0.0
H500 H 0.31471 0.89759 0.04002 0.0
H501 H 0.33511 0.85384 0.0603 0.0
H502 H 0.29273 0.87295 0.08854 0.0
H503 H 0.31147 0.75663 0.178 0.0
C504 C 0.59871 0.25065 0.77193 0.0
C505 C 0.59268 0.17463 0.70236 0.0
C506 C 0.59804 0.20405 0.77479 0.0
C507 C 0.58773 0.19251 0.62804 0.0
C508 C 0.59394 0.26843 0.69644 0.0
C509 C 0.5884 0.2392 0.62497 0.0
N510 N 0.60427 0.27833 0.84191 0.0
C511 C 0.60433 0.32421 0.84287 0.0
C512 C 0.59481 0.31517 0.69505 0.0
C513 C 0.59992 0.34318 0.7689 0.0
Gd514 Gd 0.65083 0.25318 0.98285 0.0
Gd515 Gd 0.61064 0.2417 0.96309 0.0
N516 N 0.6031 0.1874 0.84703 0.0
C517 C 0.59254 0.12798 0.70649 0.0
C518 C 0.60275 0.1421 0.85225 0.0
C519 C 0.59759 0.11169 0.78178 0.0
H520 H 0.60616 0.12944 0.91153 0.0
H521 H 0.59737 0.07574 0.78597 0.0
H522 H 0.6565 0.36161 0.06349 0.0
H523 H 0.60733 0.34677 0.90105 0.0
H524 H 0.66346 0.407 0.20548 0.0
H525 H 0.58853 0.1043 0.65206 0.0
H526 H 0.58351 0.17042 0.57198 0.0
H527 H 0.65838 0.14415 1.00472 0.0
H528 H 0.59132 0.33005 0.6381 0.0
H529 H 0.60022 0.37954 0.76963 0.0
H530 H 0.67172 0.29594 0.39976 0.0
H531 H 0.58464 0.25236 0.56671 0.0
H532 H 0.6678 0.13909 0.27767 0.0
H533 H 0.66363 0.09984 0.12531 0.0
N534 N 0.65743 0.20726 0.08994 0.0
C535 C 0.66113 0.22976 0.17074 0.0
C536 C 0.65926 0.16148 0.07177 0.0
C537 C 0.66509 0.15862 0.22533 0.0
C538 C 0.66266 0.13632 0.1396 0.0
C539 C 0.66477 0.20602 0.24116 0.0
H540 H 0.67098 0.21256 0.37927 0.0
N541 N 0.65813 0.29871 0.11302 0.0
C542 C 0.66175 0.27681 0.18222 0.0
C543 C 0.66624 0.34864 0.27272 0.0
C544 C 0.6657 0.30125 0.26442 0.0
C545 C 0.65897 0.34475 0.11981 0.0
C546 C 0.66297 0.37043 0.19988 0.0
O547 O 0.62332 0.22297 0.83577 0.0
O548 O 0.64174 0.26957 0.85362 0.0
O549 O 0.66873 0.28912 0.94983 0.0
O550 O 0.66797 0.21657 0.91705 0.0
O551 O 0.62138 0.18334 1.01102 0.0
O552 O 0.64111 0.18483 0.93178 0.0
O553 O 0.63779 0.27632 0.1052 0.0
O554 O 0.61913 0.23061 0.09921 0.0
O555 O 0.59172 0.21024 0.9922 0.0
O556 O 0.59367 0.28304 0.01681 0.0
O557 O 0.64016 0.31514 0.9466 0.0
O558 O 0.61927 0.31149 1.01348 0.0
C559 C 0.63246 0.24781 0.80235 0.0
C560 C 0.63196 0.1629 0.97233 0.0
C561 C 0.68945 0.25015 0.94973 0.0
C562 C 0.71353 0.23984 0.91673 0.0
C563 C 0.70589 0.26021 0.06935 0.0
C564 C 0.69257 0.26025 0.04046 0.0
C565 C 0.7163 0.2503 1.00815 0.0
C566 C 0.69998 0.23956 0.88796 0.0
C567 C 0.67537 0.25273 0.91886 0.0
C568 C 0.66882 0.27774 0.33566 0.0
C569 C 0.66834 0.23025 0.32411 0.0
H570 H 0.66921 0.36866 0.33488 0.0
C571 C 0.62882 0.25362 0.14506 0.0
C572 C 0.62944 0.33458 0.98624 0.0
C573 C 0.57682 0.24971 0.09739 0.0
C574 C 0.5539 0.25516 0.15796 0.0
C575 C 0.57315 0.24663 0.25409 0.0
C576 C 0.58192 0.2459 0.18201 0.0
C577 C 0.55926 0.25121 0.2424 0.0
C578 C 0.56286 0.25424 0.08563 0.0
C579 C 0.58576 0.24845 0.01982 0.0
H580 H 0.70815 0.26809 0.13959 0.0
H581 H 0.68474 0.26873 0.08903 0.0
H582 H 0.72654 0.25018 0.03256 0.0
H583 H 0.69766 0.2321 0.81766 0.0
H584 H 0.57712 0.2438 0.31946 0.0
H585 H 0.59263 0.24232 0.19218 0.0
H586 H 0.55276 0.25242 0.29987 0.0
H587 H 0.55899 0.25648 0.01964 0.0
C588 C 0.34165 0.18779 0.13256 0.0
C589 C 0.33686 0.24487 0.25961 0.0
C590 C 0.34224 0.23264 0.17374 0.0
C591 C 0.33067 0.21172 0.3029 0.0
C592 C 0.33562 0.15435 0.17652 0.0
C593 C 0.3301 0.16659 0.26168 0.0
N594 N 0.34711 0.17683 0.05012 0.0
C595 C 0.34638 0.13357 1.00656 0.0
C596 C 0.33532 0.10954 0.13355 0.0
C597 C 0.34067 0.09917 0.04807 0.0
Gd598 Gd 0.39673 0.25176 0.98122 0.0
Gd599 Gd 0.35655 0.23716 0.98779 0.0
N600 N 0.34868 0.26382 0.13128 0.0
C601 C 0.33797 0.29002 0.29974 0.0
C602 C 0.3494 0.30815 0.16875 0.0
C603 C 0.34421 0.32179 0.25394 0.0
H604 H 0.35398 0.33305 0.13337 0.0
H605 H 0.34498 0.35685 0.28411 0.0
H606 H 0.4011 0.14028 0.89597 0.0
H607 H 0.35003 0.12573 0.93917 0.0
H608 H 0.40539 0.09528 0.75078 0.0
H609 H 0.33402 0.30071 0.36586 0.0
H610 H 0.32642 0.22054 0.36877 0.0
H611 H 0.40263 0.35939 0.95603 0.0
H612 H 0.33085 0.08283 0.16537 0.0
H613 H 0.3403 0.06477 1.01379 0.0
H614 H 0.41606 0.20584 0.56152 0.0
H615 H 0.32541 0.14136 0.29642 0.0
H616 H 0.41646 0.36231 0.68979 0.0
H617 H 0.41045 0.40268 0.83836 0.0
N618 N 0.40401 0.29559 0.87409 0.0
C619 C 0.40766 0.27249 0.79385 0.0
C620 C 0.40516 0.34163 0.89115 0.0
C621 C 0.41311 0.34317 0.74127 0.0
C622 C 0.40967 0.36612 0.82493 0.0
C623 C 0.41211 0.29583 0.72474 0.0
H624 H 0.41833 0.28882 0.58674 0.0
N625 N 0.40176 0.20387 0.84749 0.0
C626 C 0.40621 0.22551 0.77959 0.0
C627 C 0.40857 0.15366 0.68464 0.0
C628 C 0.40944 0.20096 0.69582 0.0
C629 C 0.40234 0.15769 0.83922 0.0
C630 C 0.40531 0.13192 0.75727 0.0
O631 O 0.3678 0.22915 0.11751 0.0
O632 O 0.38816 0.26756 0.12063 0.0
O633 O 0.41492 0.21636 1.0116 0.0
O634 O 0.41475 0.28931 0.02874 0.0
O635 O 0.36472 0.30805 0.98178 0.0
O636 O 0.38595 0.3149 0.04698 0.0
O637 O 0.38338 0.2731 0.87164 0.0
O638 O 0.3662 0.22185 0.84985 0.0
O639 O 0.34147 0.2834 0.94848 0.0
O640 O 0.33743 0.21158 0.93183 0.0
O641 O 0.38814 0.18501 1.01417 0.0
O642 O 0.36949 0.17968 0.92527 0.0
C643 C 0.37812 0.24972 0.16085 0.0
C644 C 0.37487 0.33265 0.01848 0.0
C645 C 0.43108 0.25435 0.1102 0.0
C646 C 0.45425 0.25862 0.16674 0.0
C647 C 0.43535 0.25214 0.26659 0.0
C648 C 0.4263 0.25155 0.19595 0.0
C649 C 0.44921 0.25561 0.25233 0.0
C650 C 0.44502 0.25786 0.09589 0.0
C651 C 0.42184 0.25324 0.03409 0.0
C652 C 0.41368 0.22419 0.62645 0.0
C653 C 0.41505 0.27143 0.64094 0.0
H654 H 0.41095 0.13359 0.62136 0.0
C655 C 0.37489 0.2488 0.81796 0.0
C656 C 0.37823 0.161 0.97357 0.0
C657 C 0.32641 0.25411 0.83373 0.0
C658 C 0.30603 0.26507 0.74839 0.0
C659 C 0.32769 0.25227 0.67386 0.0
C660 C 0.33396 0.24939 0.75509 0.0
C661 C 0.31386 0.26011 0.67035 0.0
C662 C 0.31243 0.26164 0.83017 0.0
C663 C 0.33298 0.25126 0.91976 0.0
H664 H 0.43162 0.25008 0.33284 0.0
H665 H 0.41561 0.24886 0.20809 0.0
H666 H 0.45594 0.25672 0.3087 0.0
H667 H 0.44864 0.25943 0.02909 0.0
H668 H 0.33358 0.2485 0.61335 0.0
H669 H 0.34469 0.24349 0.75655 0.0
H670 H 0.30926 0.26194 0.60627 0.0
H671 H 0.30661 0.26567 0.89113 0.0
H672 H 0.22703 0.23106 0.83067 0.0
H673 H 0.21977 0.33153 0.65515 0.0
H674 H 0.24423 0.34101 0.63848 0.0
H675 H 0.25621 0.28675 0.94284 0.0
H676 H 0.26492 0.23437 0.95033 0.0
H677 H 0.2468 0.23564 0.94964 0.0
H678 H 0.24649 0.17184 0.81471 0.0
H679 H 0.2646 0.17035 0.81501 0.0
H680 H 0.25569 0.17931 0.71556 0.0
H681 H 0.26944 0.33885 0.63815 0.0
H682 H 0.29373 0.32498 0.65379 0.0
H683 H 0.28499 0.22675 0.83129 0.0
C684 C 0.23056 0.25544 0.7895 0.0
C685 C 0.22137 0.28039 0.74387 0.0
C686 C 0.22652 0.31144 0.68968 0.0
C687 C 0.24042 0.31734 0.68029 0.0
C688 C 0.24916 0.2921 0.72571 0.0
C689 C 0.24446 0.26181 0.77939 0.0
C690 C 0.25606 0.2384 0.81966 0.0
C691 C 0.25599 0.24946 0.92168 0.0
C692 C 0.25568 0.18692 0.7894 0.0
C693 C 0.268 0.26013 0.77987 0.0
C694 C 0.26376 0.29104 0.72595 0.0
C695 C 0.27287 0.31476 0.68028 0.0
C696 C 0.28666 0.30647 0.68927 0.0
C697 C 0.29131 0.27469 0.74353 0.0
C698 C 0.28179 0.2516 0.79008 0.0
H699 H 0.73773 0.28442 0.91034 0.0
H700 H 0.71499 0.1697 0.77917 0.0
H701 H 0.73425 0.14824 0.67893 0.0
H702 H 0.75364 0.31282 0.71247 0.0
H703 H 0.76935 0.32914 0.76718 0.0
H704 H 0.75388 0.33475 0.82939 0.0
H705 H 0.76387 0.28567 0.94118 0.0
H706 H 0.77933 0.27948 0.87868 0.0
H707 H 0.77026 0.22992 0.90094 0.0
H708 H 0.75608 0.13841 0.59506 0.0
H709 H 0.77798 0.14518 0.52206 0.0
H710 H 0.78659 0.26759 0.7043 0.0
C711 C 0.73683 0.25468 0.86068 0.0
C712 C 0.72484 0.2286 0.85281 0.0
C713 C 0.724 0.19037 0.78603 0.0
C714 C 0.73494 0.17771 0.72934 0.0
C715 C 0.74665 0.20377 0.73977 0.0
C716 C 0.74762 0.24179 0.80302 0.0
C717 C 0.76117 0.2649 0.798 0.0
C718 C 0.7594 0.31326 0.77539 0.0
C719 C 0.76913 0.26498 0.88488 0.0
C720 C 0.76769 0.234 0.7218 0.0
C721 C 0.75916 0.1987 0.68996 0.0
C722 C 0.76279 0.16602 0.61921 0.0
C723 C 0.77527 0.1702 0.57812 0.0
C724 C 0.784 0.20705 0.60697 0.0
C725 C 0.78024 0.23878 0.68126 0.0
H726 H 0.28149 0.8683 0.22885 0.0
H727 H 0.28905 0.72765 0.12276 0.0
H728 H 0.26653 0.70694 0.17442 0.0
H729 H 0.26385 0.84728 0.42397 0.0
H730 H 0.25222 0.89347 0.42113 0.0
H731 H 0.26884 0.89648 0.37533 0.0
H732 H 0.25851 0.91008 0.22456 0.0
H733 H 0.24186 0.90694 0.26982 0.0
H734 H 0.24651 0.87007 0.16995 0.0
H735 H 0.24259 0.70249 0.23788 0.0
H736 H 0.22055 0.71423 0.31431 0.0
H737 H 0.22908 0.85807 0.37439 0.0
C738 C 0.2784 0.83314 0.21566 0.0
C739 C 0.28704 0.79965 0.17111 0.0
C740 C 0.28266 0.7539 0.1572 0.0
C741 C 0.26984 0.74187 0.18579 0.0
C742 C 0.26153 0.77595 0.22854 0.0
C743 C 0.26571 0.82062 0.24377 0.0
C744 C 0.25509 0.85093 0.29247 0.0
C745 C 0.26031 0.87334 0.38362 0.0
C746 C 0.2502 0.8866 0.23579 0.0
C747 C 0.24422 0.81647 0.30245 0.0
C748 C 0.24803 0.77338 0.265 0.0
C749 C 0.23955 0.73616 0.2673 0.0
C750 C 0.227 0.74316 0.31032 0.0
C751 C 0.22309 0.78699 0.35092 0.0
C752 C 0.23181 0.824 0.34522 0.0
H753 H 0.72084 0.78033 0.40237 0.0
H754 H 0.72335 0.77957 0.1173 0.0
H755 H 0.74704 0.75336 0.11973 0.0
H756 H 0.75339 0.82186 0.4565 0.0
H757 H 0.75626 0.78701 0.54248 0.0
H758 H 0.73939 0.80305 0.51717 0.0
H759 H 0.73229 0.71856 0.48896 0.0
H760 H 0.7491 0.70223 0.51527 0.0
H761 H 0.7416 0.6794 0.41033 0.0
H762 H 0.77122 0.7336 0.15723 0.0
H763 H 0.79284 0.71348 0.22311 0.0
H764 H 0.77397 0.72494 0.48257 0.0
C765 C 0.72634 0.77406 0.34028 0.0
C766 C 0.72031 0.78195 0.25955 0.0
C767 C 0.72777 0.77329 0.17962 0.0
C768 C 0.74124 0.75874 0.18059 0.0
C769 C 0.747 0.75245 0.26188 0.0
C770 C 0.73968 0.75909 0.33999 0.0
C771 C 0.74814 0.75019 0.41869 0.0
C772 C 0.74937 0.79308 0.48775 0.0
C773 C 0.74244 0.71021 0.46076 0.0
C774 C 0.76146 0.7381 0.37314 0.0
C775 C 0.76066 0.73988 0.2828 0.0
C776 C 0.77189 0.73164 0.22771 0.0
C777 C 0.78415 0.72059 0.26573 0.0
C778 C 0.78506 0.71744 0.35775 0.0
C779 C 0.77354 0.72657 0.41182 0.0
H780 H 0.13047 0.91216 0.6332 0.0
H781 H 0.13457 0.87174 0.34926 0.0
H782 H 0.13372 0.95187 0.32514 0.0
H783 H 0.10901 0.00998 0.63062 0.0
H784 H 0.1177 0.04423 0.72046 0.0
H785 H 0.11761 0.98343 0.71424 0.0
H786 H 0.14372 0.98406 0.71856 0.0
H787 H 0.1437 0.04485 0.72355 0.0
H788 H 0.15287 0.0102 0.63682 0.0
H789 H 0.13089 0.03604 0.3307 0.0
H790 H 0.12982 0.11971 0.36714 0.0
H791 H 0.13108 0.10802 0.6482 0.0
C792 C 0.13115 0.92044 0.56619 0.0
C793 C 0.13224 0.88578 0.49247 0.0
C794 C 0.13344 0.89777 0.40602 0.0
C795 C 0.133 0.94321 0.39181 0.0
C796 C 0.1318 0.97671 0.46528 0.0
C797 C 0.13125 0.96611 0.55104 0.0
C798 C 0.13099 0.00914 0.6183 0.0
C799 C 0.11805 0.01184 0.67417 0.0
C800 C 0.14357 0.01224 0.67782 0.0
C801 C 0.13118 0.04528 0.55682 0.0
C802 C 0.13142 0.02568 0.46875 0.0
C803 C 0.13089 0.05181 0.39944 0.0
C804 C 0.1302 0.09921 0.42058 0.0
C805 C 0.13043 0.1201 0.51012 0.0
C806 C 0.13101 0.09275 0.57908 0.0
H807 H 0.88384 0.39808 0.41829 0.0
H808 H 0.87124 0.40759 0.69312 0.0
H809 H 0.87015 0.49129 0.70287 0.0
H810 H 0.90343 0.49925 0.43242 0.0
H811 H 0.89761 0.51445 0.32815 0.0
H812 H 0.89812 0.45576 0.34441 0.0
H813 H 0.87276 0.44713 0.30524 0.0
H814 H 0.87228 0.50567 0.28763 0.0
H815 H 0.86082 0.48548 0.36509 0.0
H816 H 0.87211 0.57396 0.68464 0.0
H817 H 0.87398 0.64926 0.63563 0.0
H818 H 0.88178 0.58594 0.36597 0.0
C819 C 0.88083 0.41781 0.48027 0.0
C820 C 0.87767 0.39656 0.55509 0.0
C821 C 0.8737 0.42339 0.63518 0.0
C822 C 0.87307 0.47084 0.64121 0.0
C823 C 0.87609 0.49075 0.56573 0.0
C824 C 0.87963 0.46502 0.48624 0.0
C825 C 0.88157 0.49456 0.41354 0.0
C826 C 0.89605 0.49077 0.37754 0.0
C827 C 0.87125 0.48248 0.33844 0.0
C828 C 0.87887 0.54117 0.46503 0.0
C829 C 0.87593 0.53812 0.55309 0.0
C830 C 0.87404 0.57662 0.61544 0.0
C831 C 0.87506 0.61923 0.58702 0.0
C832 C 0.87745 0.62318 0.49667 0.0
C833 C 0.87947 0.58365 0.43488 0.0
H834 H 0.87625 0.9162 0.61342 0.0
H835 H 0.88151 0.87619 0.33032 0.0
H836 H 0.88165 0.95636 0.30702 0.0
H837 H 0.85367 0.01008 0.59419 0.0
H838 H 0.86043 0.046 0.6894 0.0
H839 H 0.8611 0.98527 0.68436 0.0
H840 H 0.88692 0.9899 0.70785 0.0
H841 H 0.88628 0.05062 0.71236 0.0
H842 H 0.89713 0.01743 0.63325 0.0
H843 H 0.8821 0.04013 0.31411 0.0
H844 H 0.88143 0.12369 0.35026 0.0
H845 H 0.87429 0.11186 0.62756 0.0
C846 C 0.87751 0.92463 0.54686 0.0
C847 C 0.87883 0.89015 0.47312 0.0
C848 C 0.88022 0.90215 0.3869 0.0
C849 C 0.88044 0.9476 0.37331 0.0
C850 C 0.87901 0.98091 0.44678 0.0
C851 C 0.87746 0.97022 0.53191 0.0
C852 C 0.8757 0.01303 0.5985 0.0
C853 C 0.86191 0.0136 0.6443 0.0
C854 C 0.88719 0.01803 0.66704 0.0
C855 C 0.87656 0.04917 0.53736 0.0
C856 C 0.87863 0.0297 0.45028 0.0
C857 C 0.88035 0.0558 0.38186 0.0
C858 C 0.87997 0.10312 0.40288 0.0
C859 C 0.87764 0.12384 0.49113 0.0
C860 C 0.87583 0.09658 0.55923 0.0
H861 H 0.12961 0.58342 0.35989 0.0
H862 H 0.13295 0.64501 0.63489 0.0
H863 H 0.13594 0.56924 0.68102 0.0
H864 H 0.10949 0.48988 0.40557 0.0
H865 H 0.11691 0.44941 0.31977 0.0
H866 H 0.11646 0.50862 0.30744 0.0
H867 H 0.1423 0.50809 0.28557 0.0
H868 H 0.14283 0.44886 0.2982 0.0
H869 H 0.15301 0.4892 0.36883 0.0
H870 H 0.13855 0.48634 0.69713 0.0
H871 H 0.13828 0.40245 0.68412 0.0
H872 H 0.1309 0.39353 0.40106 0.0
C873 C 0.13112 0.58074 0.42958 0.0
C874 C 0.13124 0.61997 0.49408 0.0
C875 C 0.13292 0.61532 0.58479 0.0
C876 C 0.13467 0.57244 0.61141 0.0
C877 C 0.1344 0.53425 0.54657 0.0
C878 C 0.13248 0.5379 0.4576 0.0
C879 C 0.13155 0.49125 0.40241 0.0
C880 C 0.11778 0.4844 0.35608 0.0
C881 C 0.14311 0.48393 0.33474 0.0
C882 C 0.13311 0.4609 0.4742 0.0
C883 C 0.13503 0.48643 0.55663 0.0
C884 C 0.13701 0.46606 0.63295 0.0
C885 C 0.13689 0.41847 0.62501 0.0
C886 C 0.13451 0.39173 0.54185 0.0
C887 C 0.13262 0.41328 0.46554 0.0
H888 H 0.63342 0.59645 0.91089 0.0
H889 H 0.62844 0.62998 0.19584 0.0
H890 H 0.62729 0.54869 0.21059 0.0
H891 H 0.61205 0.49772 0.87726 0.0
H892 H 0.62294 0.46514 0.79752 0.0
H893 H 0.62297 0.52615 0.80814 0.0
H894 H 0.64866 0.52729 0.83698 0.0
H895 H 0.64872 0.46626 0.82581 0.0
H896 H 0.65533 0.49923 0.92516 0.0
H897 H 0.62505 0.46451 0.19374 0.0
H898 H 0.62479 0.38144 0.14907 0.0
H899 H 0.63382 0.39983 0.87732 0.0
C900 C 0.63203 0.58638 0.97607 0.0
C901 C 0.63082 0.61932 0.05247 0.0
C902 C 0.62939 0.60519 0.13693 0.0
C903 C 0.62865 0.55911 0.14576 0.0
C904 C 0.62977 0.52733 0.06951 0.0
C905 C 0.6317 0.54014 0.98639 0.0
C906 C 0.63331 0.49867 0.91624 0.0
C907 C 0.62215 0.49683 0.84562 0.0
C908 C 0.64734 0.49781 0.87352 0.0
C909 C 0.63171 0.46074 0.97278 0.0
C910 C 0.62949 0.47825 0.06082 0.0
C911 C 0.62697 0.45036 0.12528 0.0
C912 C 0.62678 0.40329 0.09935 0.0
C913 C 0.62942 0.38445 1.0103 0.0
C914 C 0.63198 0.41353 0.9462 0.0
H915 H 0.38029 0.92224 0.16626 0.0
H916 H 0.37675 0.85833 0.8931 0.0
H917 H 0.37528 0.93328 0.84267 0.0
H918 H 0.35818 0.02008 0.14817 0.0
H919 H 0.36859 0.05972 0.21847 0.0
H920 H 0.36819 1.00096 0.2347 0.0
H921 H 0.39412 0.99658 0.21739 0.0
H922 H 0.39455 0.05525 0.2009 0.0
H923 H 0.40179 0.01246 0.11879 0.0
H924 H 0.37393 0.01448 0.82131 0.0
H925 H 0.3746 0.09781 0.8285 0.0
H926 H 0.38115 0.11178 0.11337 0.0
C927 C 0.379 0.92433 0.09614 0.0
C928 C 0.37834 0.8845 0.03311 0.0
C929 C 0.37708 0.88839 0.94188 0.0
C930 C 0.37623 0.93085 0.91284 0.0
C931 C 0.37694 0.96954 0.97596 0.0
C932 C 0.37842 0.96692 0.0657 0.0
C933 C 0.37975 0.0142 0.11834 0.0
C934 C 0.36798 0.02432 0.1838 0.0
C935 C 0.39336 0.01995 0.1667 0.0
C936 C 0.37893 0.04343 0.04404 0.0
C937 C 0.37705 0.01682 0.96276 0.0
C938 C 0.3755 0.03568 0.88446 0.0
C939 C 0.3759 0.083 0.88911 0.0
C940 C 0.37811 0.11105 0.9711 0.0
C941 C 0.3797 0.09096 0.04958 0.0
H942 H 0.3797 0.40756 0.14568 0.0
H943 H 0.3699 0.36756 0.8676 0.0
H944 H 0.37132 0.4473 0.84166 0.0
H945 H 0.35864 0.50929 0.16569 0.0
H946 H 0.36966 0.54239 0.24393 0.0
H947 H 0.3689 0.48172 0.24 0.0
H948 H 0.39473 0.47628 0.21442 0.0
H949 H 0.39535 0.53702 0.22038 0.0
H950 H 0.40203 0.50146 0.12438 0.0
H951 H 0.37522 0.5306 0.84342 0.0
H952 H 0.37757 0.61396 0.87759 0.0
H953 H 0.38131 0.60314 0.15793 0.0
C954 C 0.3779 0.41583 0.07951 0.0
C955 C 0.375 0.38135 1.00792 0.0
C956 C 0.37236 0.39339 0.92274 0.0
C957 C 0.37314 0.4386 0.90743 0.0
C958 C 0.37612 0.47186 0.97882 0.0
C959 C 0.37809 0.46135 0.06375 0.0
C960 C 0.38 0.50433 0.12973 0.0
C961 C 0.36862 0.50974 0.19893 0.0
C962 C 0.39386 0.50478 0.17483 0.0
C963 C 0.3791 0.54031 0.06821 0.0
C964 C 0.37711 0.52062 0.98118 0.0
C965 C 0.37662 0.54644 0.91145 0.0
C966 C 0.37806 0.59366 0.93121 0.0
C967 C 0.37955 0.61473 0.02002 0.0
C968 C 0.38004 0.58773 0.08947 0.0
H969 H 0.62776 0.11308 0.108 0.0
H970 H 0.63846 0.10075 0.82905 0.0
H971 H 0.63934 0.01715 0.82143 0.0
H972 H 0.65024 0.02287 0.15759 0.0
H973 H 0.63893 0.00396 0.23746 0.0
H974 H 0.63888 0.06252 0.21984 0.0
H975 H 0.61336 0.05709 0.18566 0.0
H976 H 0.61335 0.99844 0.20236 0.0
H977 H 0.60728 0.01415 0.0991 0.0
H978 H 0.63726 0.93491 0.84176 0.0
H979 H 0.63501 0.85996 0.89206 0.0
H980 H 0.62816 0.92489 0.16189 0.0
C981 C 0.63026 0.09259 0.0454 0.0
C982 C 0.63293 0.11307 0.9687 0.0
C983 C 0.63642 0.08555 0.88834 0.0
C984 C 0.63689 0.03813 0.88347 0.0
C985 C 0.63419 0.01888 0.9602 0.0
C986 C 0.63119 0.04526 0.04011 0.0
C987 C 0.62923 0.01611 0.1135 0.0
C988 C 0.63996 0.02702 0.18641 0.0
C989 C 0.61495 0.02179 0.15242 0.0
C990 C 0.63126 0.96905 0.06194 0.0
C991 C 0.63398 0.97153 0.97337 0.0
C992 C 0.6354 0.93266 0.91121 0.0
C993 C 0.63409 0.89024 0.94024 0.0
C994 C 0.63174 0.8868 0.03085 0.0
C995 C 0.6303 0.92672 0.09258 0.0
H996 H 0.13829 0.19786 0.21845 0.0
H997 H 0.12108 0.33063 0.30359 0.0
H998 H 0.122 0.34742 0.1494 0.0
H999 H 0.16002 0.22594 0.04431 0.0
H1000 H 0.15629 0.17641 0.96546 0.0
H1001 H 0.15499 0.17386 0.08294 0.0
H1002 H 0.13035 0.14714 0.06476 0.0
H1003 H 0.13156 0.14837 0.94668 0.0
H1004 H 0.11849 0.17987 1.01031 0.0
H1005 H 0.12567 0.35198 0.98701 0.0
H1006 H 0.1285 0.33999 0.82424 0.0
H1007 H 0.14084 0.20121 0.83375 0.0
C1008 C 0.13472 0.23044 0.20441 0.0
C1009 C 0.12975 0.26323 0.27433 0.0
C1010 C 0.125 0.30507 0.25225 0.0
C1011 C 0.12552 0.315 0.16446 0.0
C1012 C 0.13049 0.28233 0.09743 0.0
C1013 C 0.1347 0.2404 0.11558 0.0
C1014 C 0.13855 0.21035 0.02893 0.0
C1015 C 0.15335 0.19579 0.03058 0.0
C1016 C 0.12918 0.16897 1.01168 0.0
C1017 C 0.13623 0.24238 0.96016 0.0
C1018 C 0.1317 0.28384 1.00186 0.0
C1019 C 0.12905 0.3194 0.95379 0.0
C1020 C 0.13067 0.3122 0.86085 0.0
C1021 C 0.13465 0.26948 0.81501 0.0
C1022 C 0.13775 0.23431 0.86619 0.0
H1023 H 0.87927 0.20021 0.20858 0.0
H1024 H 0.88075 0.34441 0.29968 0.0
H1025 H 0.87909 0.35981 0.14453 0.0
H1026 H 0.9003 0.20516 1.01426 0.0
H1027 H 0.89139 0.16154 0.94252 0.0
H1028 H 0.89173 0.16081 0.06094 0.0
H1029 H 0.86576 0.16048 0.06674 0.0
H1030 H 0.8654 0.15958 0.94784 0.0
H1031 H 0.85652 0.20325 0.01892 0.0
H1032 H 0.87605 0.35995 0.97686 0.0
H1033 H 0.87447 0.34496 0.81257 0.0
H1034 H 0.87769 0.20078 0.82224 0.0
C1035 C 0.87928 0.23502 0.19569 0.0
C1036 C 0.88018 0.27129 0.26782 0.0
C1037 C 0.88023 0.31613 0.24691 0.0
C1038 C 0.87919 0.32517 0.15832 0.0
C1039 C 0.87839 0.28898 0.08898 0.0
C1040 C 0.87863 0.24467 0.10638 0.0
C1041 C 0.87838 0.21213 0.0186 0.0
C1042 C 0.89122 0.18319 1.00842 0.0
C1043 C 0.86576 0.18207 1.01277 0.0
C1044 C 0.87784 0.24493 0.9495 0.0
C1045 C 0.8776 0.28913 0.99203 0.0
C1046 C 0.87636 0.32541 0.94329 0.0
C1047 C 0.87539 0.31658 0.84952 0.0
C1048 C 0.87597 0.27181 0.80335 0.0
C1049 C 0.8773 0.23551 0.85485 0.0
H1050 H 0.14094 0.69456 0.14454 0.0
H1051 H 0.12384 0.82698 0.23506 0.0
H1052 H 0.12145 0.84108 0.08125 0.0
H1053 H 0.16017 0.73167 0.95603 0.0
H1054 H 0.15724 0.67903 0.88409 0.0
H1055 H 0.15798 0.6798 1.00283 0.0
H1056 H 0.13446 0.64154 0.99558 0.0
H1057 H 0.13366 0.6425 0.87727 0.0
H1058 H 0.12052 0.66872 0.94857 0.0
H1059 H 0.11872 0.83937 0.91798 0.0
H1060 H 0.11887 0.82606 0.75386 0.0
H1061 H 0.14003 0.69918 0.75949 0.0
C1062 C 0.13689 0.72676 0.13192 0.0
C1063 C 0.13237 0.75936 0.20363 0.0
C1064 C 0.1272 0.801 0.18293 0.0
C1065 C 0.12579 0.80948 0.09495 0.0
C1066 C 0.12988 0.77648 0.02621 0.0
C1067 C 0.13563 0.73631 0.04304 0.0
C1068 C 0.13935 0.70731 0.95503 0.0
C1069 C 0.1546 0.69899 0.9492 0.0
C1070 C 0.13153 0.66234 0.94344 0.0
C1071 C 0.13476 0.73752 0.88716 0.0
C1072 C 0.1291 0.77688 0.93039 0.0
C1073 C 0.12333 0.80899 0.88338 0.0
C1074 C 0.1234 0.80103 0.78989 0.0
C1075 C 0.12947 0.76175 0.74306 0.0
C1076 C 0.13536 0.72972 0.79291 0.0
H1077 H 0.88394 0.7003 0.75687 0.0
H1078 H 0.87567 0.84237 0.74952 0.0
H1079 H 0.87341 0.85476 0.91374 0.0
H1080 H 0.86159 0.68603 0.94205 0.0
H1081 H 0.87288 0.64877 0.99 0.0
H1082 H 0.87314 0.65069 0.87186 0.0
H1083 H 0.89843 0.66828 0.88108 0.0
H1084 H 0.89843 0.66803 0.99957 0.0
H1085 H 0.90439 0.71715 0.95385 0.0
H1086 H 0.86984 0.84991 0.0785 0.0
H1087 H 0.86879 0.83237 0.23166 0.0
H1088 H 0.88318 0.69633 0.14231 0.0
C1089 C 0.8817 0.73404 0.78999 0.0
C1090 C 0.88 0.77051 0.73956 0.0
C1091 C 0.87716 0.81408 0.78607 0.0
C1092 C 0.87577 0.8213 0.87962 0.0
C1093 C 0.87751 0.78482 0.92736 0.0
C1094 C 0.88064 0.74213 0.8843 0.0
C1095 C 0.88253 0.70929 0.95233 0.0
C1096 C 0.87191 0.67144 0.93821 0.0
C1097 C 0.89681 0.68952 0.94649 0.0
C1098 C 0.88021 0.74027 0.04065 0.0
C1099 C 0.87689 0.78333 0.02371 0.0
C1100 C 0.8729 0.81678 0.09242 0.0
C1101 C 0.87247 0.80655 0.18019 0.0
C1102 C 0.87659 0.76381 0.20167 0.0
C1103 C 0.88046 0.73001 0.12974 0.0
H1104 H 0.62491 0.81089 0.3897 0.0
H1105 H 0.64058 0.67628 0.3015 0.0
H1106 H 0.64048 0.65994 0.45566 0.0
H1107 H 0.64611 0.82749 0.58911 0.0
H1108 H 0.63385 0.86019 0.65823 0.0
H1109 H 0.63388 0.86107 0.53976 0.0
H1110 H 0.6089 0.83507 0.53059 0.0
H1111 H 0.60899 0.83572 0.64932 0.0
H1112 H 0.60418 0.78493 0.57765 0.0
H1113 H 0.63835 0.65647 0.62149 0.0
H1114 H 0.63628 0.66941 0.78582 0.0
H1115 H 0.62441 0.80834 0.77516 0.0
C1116 C 0.62812 0.77776 0.40276 0.0
C1117 C 0.63233 0.74429 0.33127 0.0
C1118 C 0.63692 0.70213 0.3531 0.0
C1119 C 0.63697 0.69251 0.4413 0.0
C1120 C 0.63279 0.7258 0.50975 0.0
C1121 C 0.62866 0.76797 0.49206 0.0
C1122 C 0.62578 0.79869 0.57987 0.0
C1123 C 0.63548 0.83928 0.59246 0.0
C1124 C 0.61108 0.81455 0.58446 0.0
C1125 C 0.62853 0.76684 0.64854 0.0
C1126 C 0.63249 0.72482 0.60629 0.0
C1127 C 0.63528 0.68936 0.65493 0.0
C1128 C 0.63401 0.69689 0.74852 0.0
C1129 C 0.63015 0.73972 0.79401 0.0
C1130 C 0.62743 0.7752 0.74276 0.0
H1131 H 0.37886 0.80709 0.76962 0.0
H1132 H 0.3853 0.66402 0.77655 0.0
H1133 H 0.3846 0.65 0.61188 0.0
H1134 H 0.35719 0.79905 0.57556 0.0
H1135 H 0.36488 0.84643 0.53346 0.0
H1136 H 0.36496 0.84374 0.65128 0.0
H1137 H 0.39085 0.85249 0.65013 0.0
H1138 H 0.39087 0.85293 0.53152 0.0
H1139 H 0.40083 0.8119 0.5791 0.0
H1140 H 0.38157 0.65099 0.44338 0.0
H1141 H 0.37942 0.66758 0.28887 0.0
H1142 H 0.37824 0.81136 0.38603 0.0
C1143 C 0.38013 0.77282 0.73682 0.0
C1144 C 0.38201 0.73653 0.78768 0.0
C1145 C 0.38381 0.6924 0.74041 0.0
C1146 C 0.3834 0.68413 0.64632 0.0
C1147 C 0.38156 0.72051 0.59844 0.0
C1148 C 0.38025 0.76421 0.64219 0.0
C1149 C 0.37921 0.79761 0.5745 0.0
C1150 C 0.36576 0.82324 0.58437 0.0
C1151 C 0.39115 0.8307 0.58438 0.0
C1152 C 0.37985 0.76591 0.48593 0.0
C1153 C 0.38099 0.72145 0.50159 0.0
C1154 C 0.38087 0.68578 0.43095 0.0
C1155 C 0.37959 0.69553 0.3429 0.0
C1156 C 0.37881 0.74072 0.32405 0.0
C1157 C 0.37903 0.77641 0.39738 0.0
H1158 H 0.62341 0.19111 0.26282 0.0
H1159 H 0.63436 0.33134 0.2554 0.0
H1160 H 0.63601 0.34417 0.41888 0.0
H1161 H 0.60345 0.20877 0.46337 0.0
H1162 H 0.60949 0.15937 0.50791 0.0
H1163 H 0.60908 0.15981 0.38946 0.0
H1164 H 0.6343 0.14112 0.37742 0.0
H1165 H 0.63497 0.13959 0.49561 0.0
H1166 H 0.64616 0.17629 0.44548 0.0
H1167 H 0.63736 0.34217 0.58308 0.0
H1168 H 0.63787 0.3261 0.73777 0.0
H1169 H 0.62541 0.18759 0.64833 0.0
C1170 C 0.62593 0.22467 0.29593 0.0
C1171 C 0.62864 0.26041 0.24534 0.0
C1172 C 0.63219 0.30345 0.29174 0.0
C1173 C 0.63317 0.31109 0.38509 0.0
C1174 C 0.63061 0.27535 0.43288 0.0
C1175 C 0.62708 0.23289 0.39021 0.0
C1176 C 0.6253 0.20024 0.45855 0.0
C1177 C 0.61097 0.18092 0.4547 0.0
C1178 C 0.6358 0.16204 0.44336 0.0
C1179 C 0.62795 0.23135 0.54625 0.0
C1180 C 0.63121 0.27434 0.52893 0.0
C1181 C 0.63475 0.30869 0.59731 0.0
C1182 C 0.63507 0.29913 0.68539 0.0
C1183 C 0.63169 0.25566 0.70635 0.0
C1184 C 0.62794 0.22135 0.63519 0.0
H1185 H 0.3689 0.19142 0.27764 0.0
H1186 H 0.38712 0.32322 0.27124 0.0
H1187 H 0.38696 0.33741 0.43515 0.0
H1188 H 0.34781 0.22098 0.47093 0.0
H1189 H 0.35086 0.17016 0.51956 0.0
H1190 H 0.35186 0.16865 0.40073 0.0
H1191 H 0.37605 0.13767 0.39811 0.0
H1192 H 0.37515 0.13727 0.51655 0.0
H1193 H 0.38857 0.16723 0.47041 0.0
H1194 H 0.38455 0.33904 0.59862 0.0
H1195 H 0.38228 0.32536 0.75314 0.0
H1196 H 0.36708 0.19011 0.66355 0.0
C1197 C 0.37281 0.22328 0.31099 0.0
C1198 C 0.37801 0.25637 0.26083 0.0
C1199 C 0.38317 0.2973 0.30741 0.0
C1200 C 0.38305 0.30578 0.40084 0.0
C1201 C 0.37795 0.27272 0.4482 0.0
C1202 C 0.37312 0.23192 0.40535 0.0
C1203 C 0.36901 0.2014 0.47387 0.0
C1204 C 0.35398 0.18961 0.46576 0.0
C1205 C 0.37771 0.15833 0.46412 0.0
C1206 C 0.37202 0.23184 0.56146 0.0
C1207 C 0.37709 0.27288 0.54418 0.0
C1208 C 0.38064 0.30691 0.6127 0.0
C1209 C 0.37929 0.29872 0.70094 0.0
C1210 C 0.37458 0.25657 0.72196 0.0
C1211 C 0.37067 0.22281 0.65051 0.0
H1212 H 0.03407 0.22659 0.26827 0.0
H1213 H 0.04132 0.31318 0.51887 0.0
H1214 H 0.01687 0.31921 0.54477 0.0
H1215 H 0.00521 0.28726 0.20512 0.0
H1216 H 0.99648 0.23701 0.15502 0.0
H1217 H 0.01459 0.23792 0.15771 0.0
H1218 H 0.01466 0.1666 0.23739 0.0
H1219 H 0.99654 0.16548 0.23496 0.0
H1220 H 0.00532 0.16716 0.33928 0.0
H1221 H 0.99146 0.31712 0.5424 0.0
H1222 H 0.96717 0.30792 0.5107 0.0
H1223 H 0.97637 0.22385 0.26056 0.0
C1224 C 0.03056 0.24708 0.32845 0.0
C1225 C 0.03976 0.26917 0.39172 0.0
C1226 C 0.0346 0.29514 0.47 0.0
C1227 C 0.02068 0.29906 0.48511 0.0
C1228 C 0.01195 0.27696 0.42133 0.0
C1229 C 0.01669 0.25152 0.34447 0.0
C1230 C 0.00515 0.23177 0.28582 0.0
C1231 C 0.00537 0.24956 0.19558 0.0
C1232 C 0.00544 0.17966 0.27368 0.0
C1233 C 0.99318 0.25031 0.34144 0.0
C1234 C 0.99733 0.27611 0.41956 0.0
C1235 C 0.98811 0.29683 0.48155 0.0
C1236 C 0.97431 0.29116 0.46317 0.0
C1237 C 0.96978 0.26506 0.38324 0.0
C1238 C 0.97944 0.24437 0.32189 0.0
H1239 H 0.97516 0.72373 0.74245 0.0
H1240 H 0.96633 0.81177 0.54535 0.0
H1241 H 0.99066 0.82221 0.52273 0.0
H1242 H 1.00392 0.78609 0.84006 0.0
H1243 H 0.01319 0.73606 0.85711 0.0
H1244 H 0.99507 0.7353 0.85767 0.0
H1245 H 0.99514 0.66587 0.73385 0.0
H1246 H 0.01326 0.66639 0.73295 0.0
H1247 H 1.00405 0.66916 0.63158 0.0
H1248 H 0.016 0.82404 0.52295 0.0
H1249 H 0.04043 0.81628 0.54419 0.0
H1250 H 0.03292 0.72576 0.73908 0.0
C1251 C 0.97833 0.74547 0.69497 0.0
C1252 C 0.96878 0.76685 0.64551 0.0
C1253 C 0.97341 0.79454 0.5832 0.0
C1254 C 0.98723 0.8009 0.57025 0.0
C1255 C 0.99635 0.77929 0.61992 0.0
C1256 C 0.99211 0.75206 0.68092 0.0
C1257 C 1.00401 0.73242 0.72513 0.0
C1258 C 1.00404 0.74844 0.82597 0.0
C1259 C 1.00412 0.68037 0.70462 0.0
C1260 C 0.01561 0.753 0.67969 0.0
C1261 C 0.01096 0.77997 0.61934 0.0
C1262 C 0.01975 0.80276 0.56965 0.0
C1263 C 0.03365 0.79784 0.58177 0.0
C1264 C 0.03872 0.77015 0.6429 0.0
C1265 C 0.02946 0.74754 0.69242 0.0
H1266 H 0.53427 0.70333 0.79444 0.0
H1267 H 0.54251 0.82593 0.97736 0.0
H1268 H 0.51814 0.83861 0.99885 0.0
H1269 H 0.50519 0.74618 0.69012 0.0
H1270 H 0.49621 0.69314 0.67965 0.0
H1271 H 0.51433 0.69342 0.67897 0.0
H1272 H 0.51461 0.6465 0.81008 0.0
H1273 H 0.49649 0.64609 0.8112 0.0
H1274 H 0.50566 0.66719 0.91095 0.0
H1275 H 0.49283 0.8384 1.00005 0.0
H1276 H 0.46843 0.82531 0.98082 0.0
H1277 H 0.4765 0.70264 0.79769 0.0
C1278 C 0.53096 0.73306 0.83847 0.0
C1279 C 0.54037 0.76354 0.88447 0.0
C1280 C 0.53556 0.8017 0.94236 0.0
C1281 C 0.52171 0.80936 0.95463 0.0
C1282 C 0.51273 0.77861 0.90857 0.0
C1283 C 0.51715 0.74122 0.85162 0.0
C1284 C 0.50537 0.71331 0.81051 0.0
C1285 C 0.50528 0.71142 0.70878 0.0
C1286 C 0.50555 0.66544 0.83731 0.0
C1287 C 0.49365 0.74094 0.85303 0.0
C1288 C 0.49813 0.77844 0.90941 0.0
C1289 C 0.48921 0.80903 0.95631 0.0
C1290 C 0.47534 0.80111 0.94537 0.0
C1291 C 0.47046 0.76284 0.88803 0.0
C1292 C 0.47983 0.73247 0.84133 0.0
H1293 H 0.47524 0.21607 0.24167 0.0
H1294 H 0.46691 0.31197 0.05846 0.0
H1295 H 0.49127 0.32034 0.03429 0.0
H1296 H 0.5044 0.27337 0.34319 0.0
H1297 H 0.51335 0.22183 0.35405 0.0
H1298 H 0.49523 0.22241 0.35526 0.0
H1299 H 0.49481 0.15619 0.22479 0.0
H1300 H 0.51293 0.15538 0.22321 0.0
H1301 H 0.50371 0.16183 0.12353 0.0
H1302 H 0.51669 0.31958 0.03229 0.0
H1303 H 0.54109 0.30961 0.05229 0.0
H1304 H 0.53298 0.21399 0.23645 0.0
C1305 C 0.47851 0.23906 0.19682 0.0
C1306 C 0.46905 0.26322 0.15174 0.0
C1307 C 0.47386 0.29248 0.09278 0.0
C1308 C 0.48772 0.2977 0.079 0.0
C1309 C 0.49673 0.27347 0.12457 0.0
C1310 C 0.49232 0.24468 0.18224 0.0
C1311 C 0.50411 0.22274 0.22332 0.0
C1312 C 0.50428 0.23589 0.32498 0.0
C1313 C 0.50387 0.17096 0.19712 0.0
C1314 C 0.51584 0.24389 0.18018 0.0
C1315 C 0.51135 0.27299 0.12332 0.0
C1316 C 0.5203 0.29667 0.07631 0.0
C1317 C 0.53418 0.29052 0.0877 0.0
C1318 C 0.53907 0.26084 0.14566 0.0
C1319 C 0.52966 0.23728 0.19229 0.0
loop_
_geom_bond_atom_site_label_1
_geom_bond_atom_site_label_2
_geom_bond_distance
_geom_bond_site_symmetry_2
_ccdc_geom_bond_type
C0 C2 1.422 . S
C0 C4 1.415 . S
C0 N6 1.369 . S
C1 C2 1.421 . S
C1 C3 1.417 . S
C1 C13 1.422 . S
C2 C0 1.422 . S
C2 C1 1.421 . S
C2 N12 1.359 . S
C3 C1 1.417 . S
C3 C5 1.329 . S
C3 H22 0.930 . S
C4 C0 1.415 . S
C4 C5 1.437 . S
C4 C8 1.413 . S
C5 C3 1.329 . S
C5 C4 1.437 . S
C5 H27 0.929 . S
N6 C0 1.369 . S
N6 C7 1.338 . S
N6 Gd11 2.622 . S
C7 N6 1.338 . S
C7 C9 1.378 . S
C7 H19 0.929 . S
C8 C4 1.413 . S
C8 C9 1.348 . S
C8 H24 0.931 . S
C9 C7 1.378 . S
C9 C8 1.348 . S
C9 H25 0.930 . S
Gd10 N30 2.622 . S
Gd10 N37 2.570 . S
Gd10 O44 2.353 . S
Gd10 O45 2.468 . S
Gd10 O46 2.427 . S
Gd10 O48 2.388 . S
Gd10 O49 2.386 . S
Gd10 O53 2.307 . S
Gd10 C63 2.805 . S
Gd11 N6 2.622 . S
Gd11 N12 2.570 . S
Gd11 O43 2.386 . S
Gd11 O47 2.307 . S
Gd11 O50 2.353 . S
Gd11 O51 2.468 . S
Gd11 O52 2.427 . S
Gd11 O54 2.388 . S
Gd11 C75 2.805 . S
N12 C2 1.359 . S
N12 Gd11 2.570 . S
N12 C14 1.343 . S
C13 C1 1.422 . S
C13 C15 1.321 . S
C13 H21 0.931 . S
C14 N12 1.343 . S
C14 C15 1.390 . S
C14 H16 0.931 . S
C15 C13 1.321 . S
C15 C14 1.390 . S
C15 H17 0.930 . S
H16 C14 0.931 . S
H17 C15 0.930 . S
H18 C41 0.931 . S
H19 C7 0.929 . S
H20 C42 0.930 . S
H21 C13 0.931 . S
H22 C3 0.930 . S
H23 C32 0.929 . S
H24 C8 0.931 . S
H25 C9 0.930 . S
H26 C64 0.930 . S
H27 C5 0.929 . S
H28 C33 0.931 . S
H29 C34 0.930 . S
N30 Gd10 2.622 . S
N30 C31 1.369 . S
N30 C32 1.338 . S
C31 N30 1.369 . S
C31 C35 1.415 . S
C31 C38 1.422 . S
C32 H23 0.929 . S
C32 N30 1.338 . S
C32 C34 1.378 . S
C33 H28 0.931 . S
C33 C34 1.348 . S
C33 C35 1.413 . S
C34 H29 0.930 . S
C34 C32 1.378 . S
C34 C33 1.348 . S
C35 C31 1.415 . S
C35 C33 1.413 . S
C35 C65 1.437 . S
H36 C65 0.929 . S
N37 Gd10 2.570 . S
N37 C38 1.359 . S
N37 C41 1.343 . S
C38 C31 1.422 . S
C38 N37 1.359 . S
C38 C40 1.421 . S
C39 C40 1.422 . S
C39 C42 1.321 . S
C39 H66 0.931 . S
C40 C38 1.421 . S
C40 C39 1.422 . S
C40 C64 1.417 . S
C41 H18 0.931 . S
C41 N37 1.343 . S
C41 C42 1.390 . S
C42 H20 0.930 . S
C42 C39 1.321 . S
C42 C41 1.390 . S
O43 Gd11 2.386 . S
O43 C55 1.265 . S
O44 Gd10 2.353 . S
O44 C55 1.242 . S
O45 Gd10 2.468 . S
O45 C63 1.263 . S
O46 Gd10 2.427 . S
O46 C63 1.252 . S
O47 Gd11 2.307 . S
O47 C56 1.261 . S
O48 Gd10 2.388 . S
O48 C56 1.252 . S
O49 Gd10 2.386 . S
O49 C67 1.265 . S
O50 Gd11 2.353 . S
O50 C67 1.242 . S
O51 Gd11 2.468 . S
O51 C75 1.263 . S
O52 Gd11 2.427 . S
O52 C75 1.252 . S
O53 Gd10 2.307 . S
O53 C68 1.261 . S
O54 Gd11 2.388 . S
O54 C68 1.252 . S
C55 O43 1.265 . S
C55 O44 1.242 . S
C56 O47 1.261 . S
C56 O48 1.252 . S
C57 C60 1.394 . S
C57 C62 1.370 . S
C57 C63 1.500 . S
C58 C61 1.383 . S
C58 C62 1.395 . S
C59 C60 1.396 . S
C59 C61 1.365 . S
C59 H76 0.929 . S
C60 C57 1.394 . S
C60 C59 1.396 . S
C60 H77 0.930 . S
C61 C58 1.383 . S
C61 C59 1.365 . S
C61 H78 0.931 . S
C62 C57 1.370 . S
C62 C58 1.395 . S
C62 H79 0.930 . S
C63 Gd10 2.805 . S
C63 O45 1.263 . S
C63 O46 1.252 . S
C63 C57 1.500 . S
C64 H26 0.930 . S
C64 C40 1.417 . S
C64 C65 1.329 . S
C65 C35 1.437 . S
C65 H36 0.929 . S
C65 C64 1.329 . S
H66 C39 0.931 . S
C67 O49 1.265 . S
C67 O50 1.242 . S
C68 O53 1.261 . S
C68 O54 1.252 . S
C69 C72 1.394 . S
C69 C74 1.370 . S
C69 C75 1.500 . S
C70 C73 1.383 . S
C70 C74 1.395 . S
C71 C72 1.396 . S
C71 C73 1.365 . S
C71 H80 0.929 . S
C72 C69 1.394 . S
C72 C71 1.396 . S
C72 H81 0.930 . S
C73 C70 1.383 . S
C73 C71 1.365 . S
C73 H82 0.931 . S
C74 C69 1.370 . S
C74 C70 1.395 . S
C74 H83 0.930 . S
C75 Gd11 2.805 . S
C75 O51 1.263 . S
C75 O52 1.252 . S
C75 C69 1.500 . S
H76 C59 0.929 . S
H77 C60 0.930 . S
H78 C61 0.931 . S
H79 C62 0.930 . S
H80 C71 0.929 . S
H81 C72 0.930 . S
H82 C73 0.931 . S
H83 C74 0.930 . S
C84 C86 1.422 . S
C84 C88 1.415 . S
C84 N90 1.369 . S
C85 C86 1.421 . S
C85 C87 1.417 . S
C85 C97 1.422 . S
C86 C84 1.422 . S
C86 C85 1.421 . S
C86 N96 1.359 . S
C87 C85 1.417 . S
C87 C89 1.329 . S
C87 H106 0.930 . S
C88 C84 1.415 . S
C88 C89 1.437 . S
C88 C92 1.413 . S
C89 C87 1.329 . S
C89 C88 1.437 . S
C89 H111 0.929 . S
N90 C84 1.369 . S
N90 C91 1.338 . S
N90 Gd95 2.622 . S
C91 N90 1.338 . S
C91 C93 1.378 . S
C91 H103 0.929 . S
C92 C88 1.413 . S
C92 C93 1.348 . S
C92 H108 0.931 . S
C93 C91 1.378 . S
C93 C92 1.348 . S
C93 H109 0.930 . S
Gd94 N114 2.622 . S
Gd94 N121 2.570 . S
Gd94 O128 2.353 . S
Gd94 O129 2.468 . S
Gd94 O130 2.427 . S
Gd94 O132 2.388 . S
Gd94 O133 2.386 . S
Gd94 O137 2.307 . S
Gd94 C147 2.805 . S
Gd95 N90 2.622 . S
Gd95 N96 2.570 . S
Gd95 O127 2.386 . S
Gd95 O131 2.307 . S
Gd95 O134 2.353 . S
Gd95 O135 2.468 . S
Gd95 O136 2.427 . S
Gd95 O138 2.388 . S
Gd95 C159 2.805 . S
N96 C86 1.359 . S
N96 Gd95 2.570 . S
N96 C98 1.343 . S
C97 C85 1.422 . S
C97 C99 1.321 . S
C97 H105 0.931 . S
C98 N96 1.343 . S
C98 C99 1.390 . S
C98 H100 0.931 . S
C99 C97 1.321 . S
C99 C98 1.390 . S
C99 H101 0.930 . S
H100 C98 0.931 . S
H101 C99 0.930 . S
H102 C125 0.931 . S
H103 C91 0.929 . S
H104 C126 0.930 . S
H105 C97 0.931 . S
H106 C87 0.930 . S
H107 C116 0.929 . S
H108 C92 0.931 . S
H109 C93 0.930 . S
H110 C148 0.930 . S
H111 C89 0.929 . S
H112 C117 0.931 . S
H113 C118 0.930 . S
N114 Gd94 2.622 . S
N114 C115 1.369 . S
N114 C116 1.338 . S
C115 N114 1.369 . S
C115 C119 1.415 . S
C115 C122 1.422 . S
C116 H107 0.929 . S
C116 N114 1.338 . S
C116 C118 1.378 . S
C117 H112 0.931 . S
C117 C118 1.348 . S
C117 C119 1.413 . S
C118 H113 0.930 . S
C118 C116 1.378 . S
C118 C117 1.348 . S
C119 C115 1.415 . S
C119 C117 1.413 . S
C119 C149 1.437 . S
H120 C149 0.929 . S
N121 Gd94 2.570 . S
N121 C122 1.359 . S
N121 C125 1.343 . S
C122 C115 1.422 . S
C122 N121 1.359 . S
C122 C124 1.421 . S
C123 C124 1.422 . S
C123 C126 1.321 . S
C123 H150 0.931 . S
C124 C122 1.421 . S
C124 C123 1.422 . S
C124 C148 1.417 . S
C125 H102 0.931 . S
C125 N121 1.343 . S
C125 C126 1.390 . S
C126 H104 0.930 . S
C126 C123 1.321 . S
C126 C125 1.390 . S
O127 Gd95 2.386 . S
O127 C139 1.265 . S
O128 Gd94 2.353 . S
O128 C139 1.242 . S
O129 Gd94 2.468 . S
O129 C147 1.263 . S
O130 Gd94 2.427 . S
O130 C147 1.252 . S
O131 Gd95 2.307 . S
O131 C140 1.261 . S
O132 Gd94 2.388 . S
O132 C140 1.252 . S
O133 Gd94 2.386 . S
O133 C151 1.265 . S
O134 Gd95 2.353 . S
O134 C151 1.242 . S
O135 Gd95 2.468 . S
O135 C159 1.263 . S
O136 Gd95 2.427 . S
O136 C159 1.252 . S
O137 Gd94 2.307 . S
O137 C152 1.261 . S
O138 Gd95 2.388 . S
O138 C152 1.252 . S
C139 O127 1.265 . S
C139 O128 1.242 . S
C140 O131 1.261 . S
C140 O132 1.252 . S
C141 C144 1.394 . S
C141 C146 1.370 . S
C141 C147 1.500 . S
C142 C145 1.383 . S
C142 C146 1.395 . S
C143 C144 1.396 . S
C143 C145 1.365 . S
C143 H160 0.929 . S
C144 C141 1.394 . S
C144 C143 1.396 . S
C144 H161 0.930 . S
C145 C142 1.383 . S
C145 C143 1.365 . S
C145 H162 0.931 . S
C146 C141 1.370 . S
C146 C142 1.395 . S
C146 H163 0.930 . S
C147 Gd94 2.805 . S
C147 O129 1.263 . S
C147 O130 1.252 . S
C147 C141 1.500 . S
C148 H110 0.930 . S
C148 C124 1.417 . S
C148 C149 1.329 . S
C149 C119 1.437 . S
C149 H120 0.929 . S
C149 C148 1.329 . S
H150 C123 0.931 . S
C151 O133 1.265 . S
C151 O134 1.242 . S
C152 O137 1.261 . S
C152 O138 1.252 . S
C153 C156 1.394 . S
C153 C158 1.370 . S
C153 C159 1.500 . S
C154 C157 1.383 . S
C154 C158 1.395 . S
C155 C156 1.396 . S
C155 C157 1.365 . S
C155 H164 0.929 . S
C156 C153 1.394 . S
C156 C155 1.396 . S
C156 H165 0.930 . S
C157 C154 1.383 . S
C157 C155 1.365 . S
C157 H166 0.931 . S
C158 C153 1.370 . S
C158 C154 1.395 . S
C158 H167 0.930 . S
C159 Gd95 2.805 . S
C159 O135 1.263 . S
C159 O136 1.252 . S
C159 C153 1.500 . S
H160 C143 0.929 . S
H161 C144 0.930 . S
H162 C145 0.931 . S
H163 C146 0.930 . S
H164 C155 0.929 . S
H165 C156 0.930 . S
H166 C157 0.931 . S
H167 C158 0.930 . S
C168 C170 1.422 . S
C168 C172 1.415 . S
C168 N174 1.369 . S
C169 C170 1.421 . S
C169 C171 1.417 . S
C169 C181 1.422 . S
C170 C168 1.422 . S
C170 C169 1.421 . S
C170 N180 1.359 . S
C171 C169 1.417 . S
C171 C173 1.329 . S
C171 H190 0.930 . S
C172 C168 1.415 . S
C172 C173 1.437 . S
C172 C176 1.413 . S
C173 C171 1.329 . S
C173 C172 1.437 . S
C173 H195 0.929 . S
N174 C168 1.369 . S
N174 C175 1.338 . S
N174 Gd179 2.622 . S
C175 N174 1.338 . S
C175 C177 1.378 . S
C175 H187 0.929 . S
C176 C172 1.413 . S
C176 C177 1.348 . S
C176 H192 0.931 . S
C177 C175 1.378 . S
C177 C176 1.348 . S
C177 H193 0.930 . S
Gd178 N198 2.622 . S
Gd178 N205 2.570 . S
Gd178 O212 2.353 . S
Gd178 O213 2.468 . S
Gd178 O214 2.427 . S
Gd178 O216 2.388 . S
Gd178 O217 2.386 . S
Gd178 O221 2.307 . S
Gd178 C231 2.805 . S
Gd179 N174 2.622 . S
Gd179 N180 2.570 . S
Gd179 O211 2.386 . S
Gd179 O215 2.307 . S
Gd179 O218 2.353 . S
Gd179 O219 2.468 . S
Gd179 O220 2.427 . S
Gd179 O222 2.388 . S
Gd179 C243 2.805 . S
N180 C170 1.359 . S
N180 Gd179 2.570 . S
N180 C182 1.343 . S
C181 C169 1.422 . S
C181 C183 1.321 . S
C181 H189 0.931 . S
C182 N180 1.343 . S
C182 C183 1.390 . S
C182 H184 0.931 . S
C183 C181 1.321 . S
C183 C182 1.390 . S
C183 H185 0.930 . S
H184 C182 0.931 . S
H185 C183 0.930 . S
H186 C209 0.931 . S
H187 C175 0.929 . S
H188 C210 0.930 . S
H189 C181 0.931 . S
H190 C171 0.930 . S
H191 C200 0.929 . S
H192 C176 0.931 . S
H193 C177 0.930 . S
H194 C232 0.930 . S
H195 C173 0.929 . S
H196 C201 0.931 . S
H197 C202 0.930 . S
N198 Gd178 2.622 . S
N198 C199 1.369 . S
N198 C200 1.338 . S
C199 N198 1.369 . S
C199 C203 1.415 . S
C199 C206 1.422 . S
C200 H191 0.929 . S
C200 N198 1.338 . S
C200 C202 1.378 . S
C201 H196 0.931 . S
C201 C202 1.348 . S
C201 C203 1.413 . S
C202 H197 0.930 . S
C202 C200 1.378 . S
C202 C201 1.348 . S
C203 C199 1.415 . S
C203 C201 1.413 . S
C203 C233 1.437 . S
H204 C233 0.929 . S
N205 Gd178 2.570 . S
N205 C206 1.359 . S
N205 C209 1.343 . S
C206 C199 1.422 . S
C206 N205 1.359 . S
C206 C208 1.421 . S
C207 C208 1.422 . S
C207 C210 1.321 . S
C207 H234 0.931 . S
C208 C206 1.421 . S
C208 C207 1.422 . S
C208 C232 1.417 . S
C209 H186 0.931 . S
C209 N205 1.343 . S
C209 C210 1.390 . S
C210 H188 0.930 . S
C210 C207 1.321 . S
C210 C209 1.390 . S
O211 Gd179 2.386 . S
O211 C223 1.265 . S
O212 Gd178 2.353 . S
O212 C223 1.242 . S
O213 Gd178 2.468 . S
O213 C231 1.263 . S
O214 Gd178 2.427 . S
O214 C231 1.252 . S
O215 Gd179 2.307 . S
O215 C224 1.261 . S
O216 Gd178 2.388 . S
O216 C224 1.252 . S
O217 Gd178 2.386 . S
O217 C235 1.265 . S
O218 Gd179 2.353 . S
O218 C235 1.242 . S
O219 Gd179 2.468 . S
O219 C243 1.263 . S
O220 Gd179 2.427 . S
O220 C243 1.252 . S
O221 Gd178 2.307 . S
O221 C236 1.261 . S
O222 Gd179 2.388 . S
O222 C236 1.252 . S
C223 O211 1.265 . S
C223 O212 1.242 . S
C224 O215 1.261 . S
C224 O216 1.252 . S
C225 C228 1.394 . S
C225 C230 1.370 . S
C225 C231 1.500 . S
C226 C229 1.383 . S
C226 C230 1.395 . S
C227 C228 1.396 . S
C227 C229 1.365 . S
C227 H244 0.929 . S
C228 C225 1.394 . S
C228 C227 1.396 . S
C228 H245 0.930 . S
C229 C226 1.383 . S
C229 C227 1.365 . S
C229 H246 0.931 . S
C230 C225 1.370 . S
C230 C226 1.395 . S
C230 H247 0.930 . S
C231 Gd178 2.805 . S
C231 O213 1.263 . S
C231 O214 1.252 . S
C231 C225 1.500 . S
C232 H194 0.930 . S
C232 C208 1.417 . S
C232 C233 1.329 . S
C233 C203 1.437 . S
C233 H204 0.929 . S
C233 C232 1.329 . S
H234 C207 0.931 . S
C235 O217 1.265 . S
C235 O218 1.242 . S
C236 O221 1.261 . S
C236 O222 1.252 . S
C237 C240 1.394 . S
C237 C242 1.370 . S
C237 C243 1.500 . S
C238 C241 1.383 . S
C238 C242 1.395 . S
C239 C240 1.396 . S
C239 C241 1.365 . S
C239 H248 0.929 . S
C240 C237 1.394 . S
C240 C239 1.396 . S
C240 H249 0.930 . S
C241 C238 1.383 . S
C241 C239 1.365 . S
C241 H250 0.931 . S
C242 C237 1.370 . S
C242 C238 1.395 . S
C242 H251 0.930 . S
C243 Gd179 2.805 . S
C243 O219 1.263 . S
C243 O220 1.252 . S
C243 C237 1.500 . S
H244 C227 0.929 . S
H245 C228 0.930 . S
H246 C229 0.931 . S
H247 C230 0.930 . S
H248 C239 0.929 . S
H249 C240 0.930 . S
H250 C241 0.931 . S
H251 C242 0.930 . S
C252 C254 1.422 . S
C252 C256 1.415 . S
C252 N258 1.369 . S
C253 C254 1.421 . S
C253 C255 1.417 . S
C253 C265 1.422 . S
C254 C252 1.422 . S
C254 C253 1.421 . S
C254 N264 1.359 . S
C255 C253 1.417 . S
C255 C257 1.329 . S
C255 H274 0.930 . S
C256 C252 1.415 . S
C256 C257 1.437 . S
C256 C260 1.413 . S
C257 C255 1.329 . S
C257 C256 1.437 . S
C257 H279 0.929 . S
N258 C252 1.369 . S
N258 C259 1.338 . S
N258 Gd263 2.622 . S
C259 N258 1.338 . S
C259 C261 1.378 . S
C259 H271 0.929 . S
C260 C256 1.413 . S
C260 C261 1.348 . S
C260 H276 0.931 . S
C261 C259 1.378 . S
C261 C260 1.348 . S
C261 H277 0.930 . S
Gd262 N282 2.622 . S
Gd262 N289 2.570 . S
Gd262 O296 2.353 . S
Gd262 O297 2.468 . S
Gd262 O298 2.427 . S
Gd262 O300 2.388 . S
Gd262 O301 2.386 . S
Gd262 O305 2.307 . S
Gd262 C315 2.805 . S
Gd263 N258 2.622 . S
Gd263 N264 2.570 . S
Gd263 O295 2.386 . S
Gd263 O299 2.307 . S
Gd263 O302 2.353 . S
Gd263 O303 2.468 . S
Gd263 O304 2.427 . S
Gd263 O306 2.388 . S
Gd263 C327 2.805 . S
N264 C254 1.359 . S
N264 Gd263 2.570 . S
N264 C266 1.343 . S
C265 C253 1.422 . S
C265 C267 1.321 . S
C265 H273 0.931 . S
C266 N264 1.343 . S
C266 C267 1.390 . S
C266 H268 0.931 . S
C267 C265 1.321 . S
C267 C266 1.390 . S
C267 H269 0.930 . S
H268 C266 0.931 . S
H269 C267 0.930 . S
H270 C293 0.931 . S
H271 C259 0.929 . S
H272 C294 0.930 . S
H273 C265 0.931 . S
H274 C255 0.930 . S
H275 C284 0.929 . S
H276 C260 0.931 . S
H277 C261 0.930 . S
H278 C316 0.930 . S
H279 C257 0.929 . S
H280 C285 0.931 . S
H281 C286 0.930 . S
N282 Gd262 2.622 . S
N282 C283 1.369 . S
N282 C284 1.338 . S
C283 N282 1.369 . S
C283 C287 1.415 . S
C283 C290 1.422 . S
C284 H275 0.929 . S
C284 N282 1.338 . S
C284 C286 1.378 . S
C285 H280 0.931 . S
C285 C286 1.348 . S
C285 C287 1.413 . S
C286 H281 0.930 . S
C286 C284 1.378 . S
C286 C285 1.348 . S
C287 C283 1.415 . S
C287 C285 1.413 . S
C287 C317 1.437 . S
H288 C317 0.929 . S
N289 Gd262 2.570 . S
N289 C290 1.359 . S
N289 C293 1.343 . S
C290 C283 1.422 . S
C290 N289 1.359 . S
C290 C292 1.421 . S
C291 C292 1.422 . S
C291 C294 1.321 . S
C291 H318 0.931 . S
C292 C290 1.421 . S
C292 C291 1.422 . S
C292 C316 1.417 . S
C293 H270 0.931 . S
C293 N289 1.343 . S
C293 C294 1.390 . S
C294 H272 0.930 . S
C294 C291 1.321 . S
C294 C293 1.390 . S
O295 Gd263 2.386 . S
O295 C307 1.265 . S
O296 Gd262 2.353 . S
O296 C307 1.242 . S
O297 Gd262 2.468 . S
O297 C315 1.263 . S
O298 Gd262 2.427 . S
O298 C315 1.252 . S
O299 Gd263 2.307 . S
O299 C308 1.261 . S
O300 Gd262 2.388 . S
O300 C308 1.252 . S
O301 Gd262 2.386 . S
O301 C319 1.265 . S
O302 Gd263 2.353 . S
O302 C319 1.242 . S
O303 Gd263 2.468 . S
O303 C327 1.263 . S
O304 Gd263 2.427 . S
O304 C327 1.252 . S
O305 Gd262 2.307 . S
O305 C320 1.261 . S
O306 Gd263 2.388 . S
O306 C320 1.252 . S
C307 O295 1.265 . S
C307 O296 1.242 . S
C308 O299 1.261 . S
C308 O300 1.252 . S
C309 C312 1.394 . S
C309 C314 1.370 . S
C309 C315 1.500 . S
C310 C313 1.383 . S
C310 C314 1.395 . S
C311 C312 1.396 . S
C311 C313 1.365 . S
C311 H328 0.929 . S
C312 C309 1.394 . S
C312 C311 1.396 . S
C312 H329 0.930 . S
C313 C310 1.383 . S
C313 C311 1.365 . S
C313 H330 0.931 . S
C314 C309 1.370 . S
C314 C310 1.395 . S
C314 H331 0.930 . S
C315 Gd262 2.805 . S
C315 O297 1.263 . S
C315 O298 1.252 . S
C315 C309 1.500 . S
C316 H278 0.930 . S
C316 C292 1.417 . S
C316 C317 1.329 . S
C317 C287 1.437 . S
C317 H288 0.929 . S
C317 C316 1.329 . S
H318 C291 0.931 . S
C319 O301 1.265 . S
C319 O302 1.242 . S
C320 O305 1.261 . S
C320 O306 1.252 . S
C321 C324 1.394 . S
C321 C326 1.370 . S
C321 C327 1.500 . S
C322 C325 1.383 . S
C322 C326 1.395 . S
C323 C324 1.396 . S
C323 C325 1.365 . S
C323 H332 0.929 . S
C324 C321 1.394 . S
C324 C323 1.396 . S
C324 H333 0.930 . S
C325 C322 1.383 . S
C325 C323 1.365 . S
C325 H334 0.931 . S
C326 C321 1.370 . S
C326 C322 1.395 . S
C326 H335 0.930 . S
C327 Gd263 2.805 . S
C327 O303 1.263 . S
C327 O304 1.252 . S
C327 C321 1.500 . S
H328 C311 0.929 . S
H329 C312 0.930 . S
H330 C313 0.931 . S
H331 C314 0.930 . S
H332 C323 0.929 . S
H333 C324 0.930 . S
H334 C325 0.931 . S
H335 C326 0.930 . S
C336 C338 1.422 . S
C336 C340 1.415 . S
C336 N342 1.369 . S
C337 C338 1.421 . S
C337 C339 1.417 . S
C337 C349 1.422 . S
C338 C336 1.422 . S
C338 C337 1.421 . S
C338 N348 1.359 . S
C339 C337 1.417 . S
C339 C341 1.329 . S
C339 H358 0.930 . S
C340 C336 1.415 . S
C340 C341 1.437 . S
C340 C344 1.413 . S
C341 C339 1.329 . S
C341 C340 1.437 . S
C341 H363 0.929 . S
N342 C336 1.369 . S
N342 C343 1.338 . S
N342 Gd347 2.622 . S
C343 N342 1.338 . S
C343 C345 1.378 . S
C343 H355 0.929 . S
C344 C340 1.413 . S
C344 C345 1.348 . S
C344 H360 0.931 . S
C345 C343 1.378 . S
C345 C344 1.348 . S
C345 H361 0.930 . S
Gd346 N366 2.622 . S
Gd346 N373 2.570 . S
Gd346 O380 2.353 1_556 S
Gd346 O381 2.468 1_556 S
Gd346 O382 2.427 1_556 S
Gd346 O384 2.388 1_556 S
Gd346 O385 2.386 . S
Gd346 O389 2.307 . S
Gd346 C399 2.805 1_556 S
Gd347 N342 2.622 . S
Gd347 N348 2.570 . S
Gd347 O379 2.386 . S
Gd347 O383 2.307 . S
Gd347 O386 2.353 1_554 S
Gd347 O387 2.468 1_554 S
Gd347 O388 2.427 1_554 S
Gd347 O390 2.388 1_554 S
Gd347 C411 2.805 1_554 S
N348 C338 1.359 . S
N348 Gd347 2.570 . S
N348 C350 1.343 . S
C349 C337 1.422 . S
C349 C351 1.321 . S
C349 H357 0.931 . S
C350 N348 1.343 . S
C350 C351 1.390 . S
C350 H352 0.931 . S
C351 C349 1.321 . S
C351 C350 1.390 . S
C351 H353 0.930 . S
H352 C350 0.931 . S
H353 C351 0.930 . S
H354 C377 0.931 . S
H355 C343 0.929 . S
H356 C378 0.930 . S
H357 C349 0.931 . S
H358 C339 0.930 . S
H359 C368 0.929 . S
H360 C344 0.931 . S
H361 C345 0.930 . S
H362 C400 0.930 . S
H363 C341 0.929 . S
H364 C369 0.931 . S
H365 C370 0.930 . S
N366 Gd346 2.622 . S
N366 C367 1.369 . S
N366 C368 1.338 . S
C367 N366 1.369 . S
C367 C371 1.415 . S
C367 C374 1.422 . S
C368 H359 0.929 . S
C368 N366 1.338 . S
C368 C370 1.378 . S
C369 H364 0.931 . S
C369 C370 1.348 . S
C369 C371 1.413 . S
C370 H365 0.930 . S
C370 C368 1.378 . S
C370 C369 1.348 . S
C371 C367 1.415 . S
C371 C369 1.413 . S
C371 C401 1.437 . S
H372 C401 0.929 . S
N373 Gd346 2.570 . S
N373 C374 1.359 . S
N373 C377 1.343 . S
C374 C367 1.422 . S
C374 N373 1.359 . S
C374 C376 1.421 . S
C375 C376 1.422 . S
C375 C378 1.321 . S
C375 H402 0.931 . S
C376 C374 1.421 . S
C376 C375 1.422 . S
C376 C400 1.417 . S
C377 H354 0.931 . S
C377 N373 1.343 . S
C377 C378 1.390 . S
C378 H356 0.930 . S
C378 C375 1.321 . S
C378 C377 1.390 . S
O379 Gd347 2.386 . S
O379 C391 1.265 . S
O380 Gd346 2.353 1_554 S
O380 C391 1.242 . S
O381 Gd346 2.468 1_554 S
O381 C399 1.263 . S
O382 Gd346 2.427 1_554 S
O382 C399 1.252 . S
O383 Gd347 2.307 . S
O383 C392 1.261 . S
O384 Gd346 2.388 1_554 S
O384 C392 1.252 . S
O385 Gd346 2.386 . S
O385 C403 1.265 . S
O386 Gd347 2.353 1_556 S
O386 C403 1.242 . S
O387 Gd347 2.468 1_556 S
O387 C411 1.263 . S
O388 Gd347 2.427 1_556 S
O388 C411 1.252 . S
O389 Gd346 2.307 . S
O389 C404 1.261 . S
O390 Gd347 2.388 1_556 S
O390 C404 1.252 . S
C391 O379 1.265 . S
C391 O380 1.242 . S
C392 O383 1.261 . S
C392 O384 1.252 . S
C393 C396 1.394 . S
C393 C398 1.370 . S
C393 C399 1.500 . S
C394 C397 1.383 . S
C394 C398 1.395 . S
C395 C396 1.396 . S
C395 C397 1.365 . S
C395 H412 0.929 . S
C396 C393 1.394 . S
C396 C395 1.396 . S
C396 H413 0.930 . S
C397 C394 1.383 . S
C397 C395 1.365 . S
C397 H414 0.931 . S
C398 C393 1.370 . S
C398 C394 1.395 . S
C398 H415 0.930 . S
C399 Gd346 2.805 1_554 S
C399 O381 1.263 . S
C399 O382 1.252 . S
C399 C393 1.500 . S
C400 H362 0.930 . S
C400 C376 1.417 . S
C400 C401 1.329 . S
C401 C371 1.437 . S
C401 H372 0.929 . S
C401 C400 1.329 . S
H402 C375 0.931 . S
C403 O385 1.265 . S
C403 O386 1.242 . S
C404 O389 1.261 . S
C404 O390 1.252 . S
C405 C408 1.394 . S
C405 C410 1.370 . S
C405 C411 1.500 . S
C406 C409 1.383 . S
C406 C410 1.395 . S
C407 C408 1.396 . S
C407 C409 1.365 . S
C407 H416 0.929 . S
C408 C405 1.394 . S
C408 C407 1.396 . S
C408 H417 0.930 . S
C409 C406 1.383 . S
C409 C407 1.365 . S
C409 H418 0.931 . S
C410 C405 1.370 . S
C410 C406 1.395 . S
C410 H419 0.930 . S
C411 Gd347 2.805 1_556 S
C411 O387 1.263 . S
C411 O388 1.252 . S
C411 C405 1.500 . S
H412 C395 0.929 . S
H413 C396 0.930 . S
H414 C397 0.931 . S
H415 C398 0.930 . S
H416 C407 0.929 . S
H417 C408 0.930 . S
H418 C409 0.931 . S
H419 C410 0.930 . S
C420 C422 1.422 . S
C420 C424 1.415 . S
C420 N426 1.369 . S
C421 C422 1.421 . S
C421 C423 1.417 . S
C421 C433 1.422 . S
C422 C420 1.422 . S
C422 C421 1.421 . S
C422 N432 1.359 . S
C423 C421 1.417 . S
C423 C425 1.329 . S
C423 H442 0.930 . S
C424 C420 1.415 . S
C424 C425 1.437 . S
C424 C428 1.413 . S
C425 C423 1.329 . S
C425 C424 1.437 . S
C425 H447 0.929 . S
N426 C420 1.369 . S
N426 C427 1.338 . S
N426 Gd431 2.622 . S
C427 N426 1.338 . S
C427 C429 1.378 . S
C427 H439 0.929 . S
C428 C424 1.413 . S
C428 C429 1.348 . S
C428 H444 0.931 . S
C429 C427 1.378 . S
C429 C428 1.348 . S
C429 H445 0.930 . S
Gd430 N450 2.622 . S
Gd430 N457 2.570 . S
Gd430 O464 2.353 1_554 S
Gd430 O465 2.468 1_554 S
Gd430 O466 2.427 1_554 S
Gd430 O468 2.388 1_554 S
Gd430 O469 2.386 . S
Gd430 O473 2.307 . S
Gd430 C483 2.805 1_554 S
Gd431 N426 2.622 . S
Gd431 N432 2.570 . S
Gd431 O463 2.386 . S
Gd431 O467 2.307 . S
Gd431 O470 2.353 1_556 S
Gd431 O471 2.468 1_556 S
Gd431 O472 2.427 1_556 S
Gd431 O474 2.388 1_556 S
Gd431 C495 2.805 1_556 S
N432 C422 1.359 . S
N432 Gd431 2.570 . S
N432 C434 1.343 . S
C433 C421 1.422 . S
C433 C435 1.321 . S
C433 H441 0.931 . S
C434 N432 1.343 . S
C434 C435 1.390 . S
C434 H436 0.931 . S
C435 C433 1.321 . S
C435 C434 1.390 . S
C435 H437 0.930 . S
H436 C434 0.931 . S
H437 C435 0.930 . S
H438 C461 0.931 . S
H439 C427 0.929 . S
H440 C462 0.930 . S
H441 C433 0.931 . S
H442 C423 0.930 . S
H443 C452 0.929 . S
H444 C428 0.931 . S
H445 C429 0.930 . S
H446 C484 0.930 . S
H447 C425 0.929 . S
H448 C453 0.931 . S
H449 C454 0.930 . S
N450 Gd430 2.622 . S
N450 C451 1.369 . S
N450 C452 1.338 . S
C451 N450 1.369 . S
C451 C455 1.415 . S
C451 C458 1.422 . S
C452 H443 0.929 . S
C452 N450 1.338 . S
C452 C454 1.378 . S
C453 H448 0.931 . S
C453 C454 1.348 . S
C453 C455 1.413 . S
C454 H449 0.930 . S
C454 C452 1.378 . S
C454 C453 1.348 . S
C455 C451 1.415 . S
C455 C453 1.413 . S
C455 C485 1.437 . S
H456 C485 0.929 . S
N457 Gd430 2.570 . S
N457 C458 1.359 . S
N457 C461 1.343 . S
C458 C451 1.422 . S
C458 N457 1.359 . S
C458 C460 1.421 . S
C459 C460 1.422 . S
C459 C462 1.321 . S
C459 H486 0.931 . S
C460 C458 1.421 . S
C460 C459 1.422 . S
C460 C484 1.417 . S
C461 H438 0.931 . S
C461 N457 1.343 . S
C461 C462 1.390 . S
C462 H440 0.930 . S
C462 C459 1.321 . S
C462 C461 1.390 . S
O463 Gd431 2.386 . S
O463 C475 1.265 . S
O464 Gd430 2.353 1_556 S
O464 C475 1.242 . S
O465 Gd430 2.468 1_556 S
O465 C483 1.263 . S
O466 Gd430 2.427 1_556 S
O466 C483 1.252 . S
O467 Gd431 2.307 . S
O467 C476 1.261 . S
O468 Gd430 2.388 1_556 S
O468 C476 1.252 . S
O469 Gd430 2.386 . S
O469 C487 1.265 . S
O470 Gd431 2.353 1_554 S
O470 C487 1.242 . S
O471 Gd431 2.468 1_554 S
O471 C495 1.263 . S
O472 Gd431 2.427 1_554 S
O472 C495 1.252 . S
O473 Gd430 2.307 . S
O473 C488 1.261 . S
O474 Gd431 2.388 1_554 S
O474 C488 1.252 . S
C475 O463 1.265 . S
C475 O464 1.242 . S
C476 O467 1.261 . S
C476 O468 1.252 . S
C477 C480 1.394 . S
C477 C482 1.370 . S
C477 C483 1.500 . S
C478 C481 1.383 . S
C478 C482 1.395 . S
C479 C480 1.396 . S
C479 C481 1.365 . S
C479 H496 0.929 . S
C480 C477 1.394 . S
C480 C479 1.396 . S
C480 H497 0.930 . S
C481 C478 1.383 . S
C481 C479 1.365 . S
C481 H498 0.931 . S
C482 C477 1.370 . S
C482 C478 1.395 . S
C482 H499 0.930 . S
C483 Gd430 2.805 1_556 S
C483 O465 1.263 . S
C483 O466 1.252 . S
C483 C477 1.500 . S
C484 H446 0.930 . S
C484 C460 1.417 . S
C484 C485 1.329 . S
C485 C455 1.437 . S
C485 H456 0.929 . S
C485 C484 1.329 . S
H486 C459 0.931 . S
C487 O469 1.265 . S
C487 O470 1.242 . S
C488 O473 1.261 . S
C488 O474 1.252 . S
C489 C492 1.394 . S
C489 C494 1.370 . S
C489 C495 1.500 . S
C490 C493 1.383 . S
C490 C494 1.395 . S
C491 C492 1.396 . S
C491 C493 1.365 . S
C491 H500 0.929 . S
C492 C489 1.394 . S
C492 C491 1.396 . S
C492 H501 0.930 . S
C493 C490 1.383 . S
C493 C491 1.365 . S
C493 H502 0.931 . S
C494 C489 1.370 . S
C494 C490 1.395 . S
C494 H503 0.930 . S
C495 Gd431 2.805 1_554 S
C495 O471 1.263 . S
C495 O472 1.252 . S
C495 C489 1.500 . S
H496 C479 0.929 . S
H497 C480 0.930 . S
H498 C481 0.931 . S
H499 C482 0.930 . S
H500 C491 0.929 . S
H501 C492 0.930 . S
H502 C493 0.931 . S
H503 C494 0.930 . S
C504 C506 1.422 . S
C504 C508 1.415 . S
C504 N510 1.369 . S
C505 C506 1.421 . S
C505 C507 1.417 . S
C505 C517 1.422 . S
C506 C504 1.422 . S
C506 C505 1.421 . S
C506 N516 1.359 . S
C507 C505 1.417 . S
C507 C509 1.329 . S
C507 H526 0.930 . S
C508 C504 1.415 . S
C508 C509 1.437 . S
C508 C512 1.413 . S
C509 C507 1.329 . S
C509 C508 1.437 . S
C509 H531 0.929 . S
N510 C504 1.369 . S
N510 C511 1.338 . S
N510 Gd515 2.622 . S
C511 N510 1.338 . S
C511 C513 1.378 . S
C511 H523 0.929 . S
C512 C508 1.413 . S
C512 C513 1.348 . S
C512 H528 0.931 . S
C513 C511 1.378 . S
C513 C512 1.348 . S
C513 H529 0.930 . S
Gd514 N534 2.622 . S
Gd514 N541 2.570 . S
Gd514 O548 2.353 1_554 S
Gd514 O549 2.468 1_554 S
Gd514 O550 2.427 1_554 S
Gd514 O552 2.388 1_554 S
Gd514 O553 2.386 . S
Gd514 O557 2.307 . S
Gd514 C567 2.805 1_554 S
Gd515 N510 2.622 . S
Gd515 N516 2.570 . S
Gd515 O547 2.386 . S
Gd515 O551 2.307 . S
Gd515 O554 2.353 1_556 S
Gd515 O555 2.468 1_556 S
Gd515 O556 2.427 1_556 S
Gd515 O558 2.388 1_556 S
Gd515 C579 2.805 1_556 S
N516 C506 1.359 . S
N516 Gd515 2.570 . S
N516 C518 1.343 . S
C517 C505 1.422 . S
C517 C519 1.321 . S
C517 H525 0.931 . S
C518 N516 1.343 . S
C518 C519 1.390 . S
C518 H520 0.931 . S
C519 C517 1.321 . S
C519 C518 1.390 . S
C519 H521 0.930 . S
H520 C518 0.931 . S
H521 C519 0.930 . S
H522 C545 0.931 . S
H523 C511 0.929 . S
H524 C546 0.930 . S
H525 C517 0.931 . S
H526 C507 0.930 . S
H527 C536 0.929 . S
H528 C512 0.931 . S
H529 C513 0.930 . S
H530 C568 0.930 . S
H531 C509 0.929 . S
H532 C537 0.931 . S
H533 C538 0.930 . S
N534 Gd514 2.622 . S
N534 C535 1.369 . S
N534 C536 1.338 . S
C535 N534 1.369 . S
C535 C539 1.415 . S
C535 C542 1.422 . S
C536 H527 0.929 . S
C536 N534 1.338 . S
C536 C538 1.378 . S
C537 H532 0.931 . S
C537 C538 1.348 . S
C537 C539 1.413 . S
C538 H533 0.930 . S
C538 C536 1.378 . S
C538 C537 1.348 . S
C539 C535 1.415 . S
C539 C537 1.413 . S
C539 C569 1.437 . S
H540 C569 0.929 . S
N541 Gd514 2.570 . S
N541 C542 1.359 . S
N541 C545 1.343 . S
C542 C535 1.422 . S
C542 N541 1.359 . S
C542 C544 1.421 . S
C543 C544 1.422 . S
C543 C546 1.321 . S
C543 H570 0.931 . S
C544 C542 1.421 . S
C544 C543 1.422 . S
C544 C568 1.417 . S
C545 H522 0.931 . S
C545 N541 1.343 . S
C545 C546 1.390 . S
C546 H524 0.930 . S
C546 C543 1.321 . S
C546 C545 1.390 . S
O547 Gd515 2.386 . S
O547 C559 1.265 . S
O548 Gd514 2.353 1_556 S
O548 C559 1.242 . S
O549 Gd514 2.468 1_556 S
O549 C567 1.263 . S
O550 Gd514 2.427 1_556 S
O550 C567 1.252 . S
O551 Gd515 2.307 . S
O551 C560 1.261 . S
O552 Gd514 2.388 1_556 S
O552 C560 1.252 . S
O553 Gd514 2.386 . S
O553 C571 1.265 . S
O554 Gd515 2.353 1_554 S
O554 C571 1.242 . S
O555 Gd515 2.468 1_554 S
O555 C579 1.263 . S
O556 Gd515 2.427 1_554 S
O556 C579 1.252 . S
O557 Gd514 2.307 . S
O557 C572 1.261 . S
O558 Gd515 2.388 1_554 S
O558 C572 1.252 . S
C559 O547 1.265 . S
C559 O548 1.242 . S
C560 O551 1.261 . S
C560 O552 1.252 . S
C561 C564 1.394 . S
C561 C566 1.370 . S
C561 C567 1.500 . S
C562 C565 1.383 . S
C562 C566 1.395 . S
C563 C564 1.396 . S
C563 C565 1.365 . S
C563 H580 0.929 . S
C564 C561 1.394 . S
C564 C563 1.396 . S
C564 H581 0.930 . S
C565 C562 1.383 . S
C565 C563 1.365 . S
C565 H582 0.931 . S
C566 C561 1.370 . S
C566 C562 1.395 . S
C566 H583 0.930 . S
C567 Gd514 2.805 1_556 S
C567 O549 1.263 . S
C567 O550 1.252 . S
C567 C561 1.500 . S
C568 H530 0.930 . S
C568 C544 1.417 . S
C568 C569 1.329 . S
C569 C539 1.437 . S
C569 H540 0.929 . S
C569 C568 1.329 . S
H570 C543 0.931 . S
C571 O553 1.265 . S
C571 O554 1.242 . S
C572 O557 1.261 . S
C572 O558 1.252 . S
C573 C576 1.394 . S
C573 C578 1.370 . S
C573 C579 1.500 . S
C574 C577 1.383 . S
C574 C578 1.395 . S
C575 C576 1.396 . S
C575 C577 1.365 . S
C575 H584 0.929 . S
C576 C573 1.394 . S
C576 C575 1.396 . S
C576 H585 0.930 . S
C577 C574 1.383 . S
C577 C575 1.365 . S
C577 H586 0.931 . S
C578 C573 1.370 . S
C578 C574 1.395 . S
C578 H587 0.930 . S
C579 Gd515 2.805 1_554 S
C579 O555 1.263 . S
C579 O556 1.252 . S
C579 C573 1.500 . S
H580 C563 0.929 . S
H581 C564 0.930 . S
H582 C565 0.931 . S
H583 C566 0.930 . S
H584 C575 0.929 . S
H585 C576 0.930 . S
H586 C577 0.931 . S
H587 C578 0.930 . S
C588 C590 1.422 . S
C588 C592 1.415 . S
C588 N594 1.369 . S
C589 C590 1.421 . S
C589 C591 1.417 . S
C589 C601 1.422 . S
C590 C588 1.422 . S
C590 C589 1.421 . S
C590 N600 1.359 . S
C591 C589 1.417 . S
C591 C593 1.329 . S
C591 H610 0.930 . S
C592 C588 1.415 . S
C592 C593 1.437 . S
C592 C596 1.413 . S
C593 C591 1.329 . S
C593 C592 1.437 . S
C593 H615 0.929 . S
N594 C588 1.369 . S
N594 C595 1.338 . S
N594 Gd599 2.622 . S
C595 N594 1.338 . S
C595 C597 1.378 . S
C595 H607 0.929 . S
C596 C592 1.413 . S
C596 C597 1.348 . S
C596 H612 0.931 . S
C597 C595 1.378 . S
C597 C596 1.348 . S
C597 H613 0.930 . S
Gd598 N618 2.622 . S
Gd598 N625 2.570 . S
Gd598 O632 2.353 1_556 S
Gd598 O633 2.468 1_556 S
Gd598 O634 2.427 1_556 S
Gd598 O636 2.388 1_556 S
Gd598 O637 2.386 . S
Gd598 O641 2.307 . S
Gd598 C651 2.805 1_556 S
Gd599 N594 2.622 . S
Gd599 N600 2.570 . S
Gd599 O631 2.386 . S
Gd599 O635 2.307 . S
Gd599 O638 2.353 1_554 S
Gd599 O639 2.468 1_554 S
Gd599 O640 2.427 1_554 S
Gd599 O642 2.388 1_554 S
Gd599 C663 2.805 1_554 S
N600 C590 1.359 . S
N600 Gd599 2.570 . S
N600 C602 1.343 . S
C601 C589 1.422 . S
C601 C603 1.321 . S
C601 H609 0.931 . S
C602 N600 1.343 . S
C602 C603 1.390 . S
C602 H604 0.931 . S
C603 C601 1.321 . S
C603 C602 1.390 . S
C603 H605 0.930 . S
H604 C602 0.931 . S
H605 C603 0.930 . S
H606 C629 0.931 . S
H607 C595 0.929 . S
H608 C630 0.930 . S
H609 C601 0.931 . S
H610 C591 0.930 . S
H611 C620 0.929 . S
H612 C596 0.931 . S
H613 C597 0.930 . S
H614 C652 0.930 . S
H615 C593 0.929 . S
H616 C621 0.931 . S
H617 C622 0.930 . S
N618 Gd598 2.622 . S
N618 C619 1.369 . S
N618 C620 1.338 . S
C619 N618 1.369 . S
C619 C623 1.415 . S
C619 C626 1.422 . S
C620 H611 0.929 . S
C620 N618 1.338 . S
C620 C622 1.378 . S
C621 H616 0.931 . S
C621 C622 1.348 . S
C621 C623 1.413 . S
C622 H617 0.930 . S
C622 C620 1.378 . S
C622 C621 1.348 . S
C623 C619 1.415 . S
C623 C621 1.413 . S
C623 C653 1.437 . S
H624 C653 0.929 . S
N625 Gd598 2.570 . S
N625 C626 1.359 . S
N625 C629 1.343 . S
C626 C619 1.422 . S
C626 N625 1.359 . S
C626 C628 1.421 . S
C627 C628 1.422 . S
C627 C630 1.321 . S
C627 H654 0.931 . S
C628 C626 1.421 . S
C628 C627 1.422 . S
C628 C652 1.417 . S
C629 H606 0.931 . S
C629 N625 1.343 . S
C629 C630 1.390 . S
C630 H608 0.930 . S
C630 C627 1.321 . S
C630 C629 1.390 . S
O631 Gd599 2.386 . S
O631 C643 1.265 . S
O632 Gd598 2.353 1_554 S
O632 C643 1.242 . S
O633 Gd598 2.468 1_554 S
O633 C651 1.263 . S
O634 Gd598 2.427 1_554 S
O634 C651 1.252 . S
O635 Gd599 2.307 . S
O635 C644 1.261 . S
O636 Gd598 2.388 1_554 S
O636 C644 1.252 . S
O637 Gd598 2.386 . S
O637 C655 1.265 . S
O638 Gd599 2.353 1_556 S
O638 C655 1.242 . S
O639 Gd599 2.468 1_556 S
O639 C663 1.263 . S
O640 Gd599 2.427 1_556 S
O640 C663 1.252 . S
O641 Gd598 2.307 . S
O641 C656 1.261 . S
O642 Gd599 2.388 1_556 S
O642 C656 1.252 . S
C643 O631 1.265 . S
C643 O632 1.242 . S
C644 O635 1.261 . S
C644 O636 1.252 . S
C645 C648 1.394 . S
C645 C650 1.370 . S
C645 C651 1.500 . S
C646 C649 1.383 . S
C646 C650 1.395 . S
C647 C648 1.396 . S
C647 C649 1.365 . S
C647 H664 0.929 . S
C648 C645 1.394 . S
C648 C647 1.396 . S
C648 H665 0.930 . S
C649 C646 1.383 . S
C649 C647 1.365 . S
C649 H666 0.931 . S
C650 C645 1.370 . S
C650 C646 1.395 . S
C650 H667 0.930 . S
C651 Gd598 2.805 1_554 S
C651 O633 1.263 . S
C651 O634 1.252 . S
C651 C645 1.500 . S
C652 H614 0.930 . S
C652 C628 1.417 . S
C652 C653 1.329 . S
C653 C623 1.437 . S
C653 H624 0.929 . S
C653 C652 1.329 . S
H654 C627 0.931 . S
C655 O637 1.265 . S
C655 O638 1.242 . S
C656 O641 1.261 . S
C656 O642 1.252 . S
C657 C660 1.394 . S
C657 C662 1.370 . S
C657 C663 1.500 . S
C658 C661 1.383 . S
C658 C662 1.395 . S
C659 C660 1.396 . S
C659 C661 1.365 . S
C659 H668 0.929 . S
C660 C657 1.394 . S
C660 C659 1.396 . S
C660 H669 0.930 . S
C661 C658 1.383 . S
C661 C659 1.365 . S
C661 H670 0.931 . S
C662 C657 1.370 . S
C662 C658 1.395 . S
C662 H671 0.930 . S
C663 Gd599 2.805 1_556 S
C663 O639 1.263 . S
C663 O640 1.252 . S
C663 C657 1.500 . S
H664 C647 0.929 . S
H665 C648 0.930 . S
H666 C649 0.931 . S
H667 C650 0.930 . S
H668 C659 0.929 . S
H669 C660 0.930 . S
H670 C661 0.931 . S
H671 C662 0.930 . S
H672 C684 0.930 . S
H673 C686 0.930 . S
H674 C687 0.930 . S
H675 C691 0.959 . S
H676 C691 0.959 . S
H677 C691 0.961 . S
H678 C692 0.960 . S
H679 C692 0.961 . S
H680 C692 0.959 . S
H681 C695 0.929 . S
H682 C696 0.931 . S
H683 C698 0.930 . S
C684 H672 0.930 . S
C684 C685 1.399 . S
C684 C689 1.399 . S
C685 C684 1.399 . S
C685 C686 1.376 . S
C686 H673 0.930 . S
C686 C685 1.376 . S
C686 C687 1.388 . S
C687 H674 0.930 . S
C687 C686 1.388 . S
C687 C688 1.390 . S
C688 C687 1.390 . S
C688 C689 1.394 . S
C688 C694 1.465 . S
C689 C684 1.399 . S
C689 C688 1.394 . S
C689 C690 1.516 . S
C690 C689 1.516 . S
C690 C691 1.502 . S
C690 C692 1.561 . S
C690 C693 1.526 . S
C691 H675 0.959 . S
C691 H676 0.959 . S
C691 H677 0.961 . S
C691 C690 1.502 . S
C692 H678 0.960 . S
C692 H679 0.961 . S
C692 H680 0.959 . S
C692 C690 1.561 . S
C693 C690 1.526 . S
C693 C694 1.396 . S
C693 C698 1.390 . S
C694 C688 1.465 . S
C694 C693 1.396 . S
C694 C695 1.399 . S
C695 H681 0.929 . S
C695 C694 1.399 . S
C695 C696 1.385 . S
C696 H682 0.931 . S
C696 C695 1.385 . S
C696 C697 1.389 . S
C697 C696 1.389 . S
C697 C698 1.387 . S
C698 H683 0.930 . S
C698 C693 1.390 . S
C698 C697 1.387 . S
H699 C711 0.930 . S
H700 C713 0.930 . S
H701 C714 0.930 . S
H702 C718 0.959 . S
H703 C718 0.959 . S
H704 C718 0.961 . S
H705 C719 0.960 . S
H706 C719 0.961 . S
H707 C719 0.959 . S
H708 C722 0.929 . S
H709 C723 0.931 . S
H710 C725 0.930 . S
C711 H699 0.930 . S
C711 C712 1.399 . S
C711 C716 1.399 . S
C712 C711 1.399 . S
C712 C713 1.376 . S
C713 H700 0.930 . S
C713 C712 1.376 . S
C713 C714 1.388 . S
C714 H701 0.930 . S
C714 C713 1.388 . S
C714 C715 1.390 . S
C715 C714 1.390 . S
C715 C716 1.394 . S
C715 C721 1.465 . S
C716 C711 1.399 . S
C716 C715 1.394 . S
C716 C717 1.516 . S
C717 C716 1.516 . S
C717 C718 1.502 . S
C717 C719 1.561 . S
C717 C720 1.526 . S
C718 H702 0.959 . S
C718 H703 0.959 . S
C718 H704 0.961 . S
C718 C717 1.502 . S
C719 H705 0.960 . S
C719 H706 0.961 . S
C719 H707 0.959 . S
C719 C717 1.561 . S
C720 C717 1.526 . S
C720 C721 1.396 . S
C720 C725 1.390 . S
C721 C715 1.465 . S
C721 C720 1.396 . S
C721 C722 1.399 . S
C722 H708 0.929 . S
C722 C721 1.399 . S
C722 C723 1.385 . S
C723 H709 0.931 . S
C723 C722 1.385 . S
C723 C724 1.389 . S
C724 C723 1.389 . S
C724 C725 1.387 . S
C725 H710 0.930 . S
C725 C720 1.390 . S
C725 C724 1.387 . S
H726 C738 0.930 . S
H727 C740 0.930 . S
H728 C741 0.930 . S
H729 C745 0.959 . S
H730 C745 0.959 . S
H731 C745 0.961 . S
H732 C746 0.960 . S
H733 C746 0.961 . S
H734 C746 0.959 . S
H735 C749 0.929 . S
H736 C750 0.931 . S
H737 C752 0.930 . S
C738 H726 0.930 . S
C738 C739 1.399 . S
C738 C743 1.399 . S
C739 C738 1.399 . S
C739 C740 1.376 . S
C740 H727 0.930 . S
C740 C739 1.376 . S
C740 C741 1.388 . S
C741 H728 0.930 . S
C741 C740 1.388 . S
C741 C742 1.390 . S
C742 C741 1.390 . S
C742 C743 1.394 . S
C742 C748 1.465 . S
C743 C738 1.399 . S
C743 C742 1.394 . S
C743 C744 1.516 . S
C744 C743 1.516 . S
C744 C745 1.502 . S
C744 C746 1.561 . S
C744 C747 1.526 . S
C745 H729 0.959 . S
C745 H730 0.959 . S
C745 H731 0.961 . S
C745 C744 1.502 . S
C746 H732 0.960 . S
C746 H733 0.961 . S
C746 H734 0.959 . S
C746 C744 1.561 . S
C747 C744 1.526 . S
C747 C748 1.396 . S
C747 C752 1.390 . S
C748 C742 1.465 . S
C748 C747 1.396 . S
C748 C749 1.399 . S
C749 H735 0.929 . S
C749 C748 1.399 . S
C749 C750 1.385 . S
C750 H736 0.931 . S
C750 C749 1.385 . S
C750 C751 1.389 . S
C751 C750 1.389 . S
C751 C752 1.387 . S
C752 H737 0.930 . S
C752 C747 1.390 . S
C752 C751 1.387 . S
H753 C765 0.930 . S
H754 C767 0.930 . S
H755 C768 0.930 . S
H756 C772 0.959 . S
H757 C772 0.959 . S
H758 C772 0.961 . S
H759 C773 0.960 . S
H760 C773 0.961 . S
H761 C773 0.959 . S
H762 C776 0.929 . S
H763 C777 0.931 . S
H764 C779 0.930 . S
C765 H753 0.930 . S
C765 C766 1.399 . S
C765 C770 1.399 . S
C766 C765 1.399 . S
C766 C767 1.376 . S
C767 H754 0.930 . S
C767 C766 1.376 . S
C767 C768 1.388 . S
C768 H755 0.930 . S
C768 C767 1.388 . S
C768 C769 1.390 . S
C769 C768 1.390 . S
C769 C770 1.394 . S
C769 C775 1.465 . S
C770 C765 1.399 . S
C770 C769 1.394 . S
C770 C771 1.516 . S
C771 C770 1.516 . S
C771 C772 1.502 . S
C771 C773 1.561 . S
C771 C774 1.526 . S
C772 H756 0.959 . S
C772 H757 0.959 . S
C772 H758 0.961 . S
C772 C771 1.502 . S
C773 H759 0.960 . S
C773 H760 0.961 . S
C773 H761 0.959 . S
C773 C771 1.561 . S
C774 C771 1.526 . S
C774 C775 1.396 . S
C774 C779 1.390 . S
C775 C769 1.465 . S
C775 C774 1.396 . S
C775 C776 1.399 . S
C776 H762 0.929 . S
C776 C775 1.399 . S
C776 C777 1.385 . S
C777 H763 0.931 . S
C777 C776 1.385 . S
C777 C778 1.389 . S
C778 C777 1.389 . S
C778 C779 1.387 . S
C779 H764 0.930 . S
C779 C774 1.390 . S
C779 C778 1.387 . S
H780 C792 0.930 . S
H781 C794 0.930 . S
H782 C795 0.930 . S
H783 C799 0.959 . S
H784 C799 0.959 . S
H785 C799 0.961 1_565 S
H786 C800 0.960 . S
H787 C800 0.961 . S
H788 C800 0.959 . S
H789 C803 0.929 . S
H790 C804 0.931 . S
H791 C806 0.930 . S
C792 H780 0.930 . S
C792 C793 1.399 . S
C792 C797 1.399 . S
C793 C792 1.399 . S
C793 C794 1.376 . S
C794 H781 0.930 . S
C794 C793 1.376 . S
C794 C795 1.388 . S
C795 H782 0.930 . S
C795 C794 1.388 . S
C795 C796 1.390 . S
C796 C795 1.390 . S
C796 C797 1.394 . S
C796 C802 1.465 1_565 S
C797 C792 1.399 . S
C797 C796 1.394 . S
C797 C798 1.516 1_565 S
C798 C797 1.516 1_545 S
C798 C799 1.502 . S
C798 C800 1.561 . S
C798 C801 1.526 . S
C799 H783 0.959 . S
C799 H784 0.959 . S
C799 H785 0.961 1_545 S
C799 C798 1.502 . S
C800 H786 0.960 . S
C800 H787 0.961 . S
C800 H788 0.959 . S
C800 C798 1.561 . S
C801 C798 1.526 . S
C801 C802 1.396 . S
C801 C806 1.390 . S
C802 C796 1.465 1_545 S
C802 C801 1.396 . S
C802 C803 1.399 . S
C803 H789 0.929 . S
C803 C802 1.399 . S
C803 C804 1.385 . S
C804 H790 0.931 . S
C804 C803 1.385 . S
C804 C805 1.389 . S
C805 C804 1.389 . S
C805 C806 1.387 . S
C806 H791 0.930 . S
C806 C801 1.390 . S
C806 C805 1.387 . S
H807 C819 0.930 . S
H808 C821 0.930 . S
H809 C822 0.930 . S
H810 C826 0.959 . S
H811 C826 0.959 . S
H812 C826 0.961 . S
H813 C827 0.960 . S
H814 C827 0.961 . S
H815 C827 0.959 . S
H816 C830 0.929 . S
H817 C831 0.931 . S
H818 C833 0.930 . S
C819 H807 0.930 . S
C819 C820 1.399 . S
C819 C824 1.399 . S
C820 C819 1.399 . S
C820 C821 1.376 . S
C821 H808 0.930 . S
C821 C820 1.376 . S
C821 C822 1.388 . S
C822 H809 0.930 . S
C822 C821 1.388 . S
C822 C823 1.390 . S
C823 C822 1.390 . S
C823 C824 1.394 . S
C823 C829 1.465 . S
C824 C819 1.399 . S
C824 C823 1.394 . S
C824 C825 1.516 . S
C825 C824 1.516 . S
C825 C826 1.502 . S
C825 C827 1.561 . S
C825 C828 1.526 . S
C826 H810 0.959 . S
C826 H811 0.959 . S
C826 H812 0.961 . S
C826 C825 1.502 . S
C827 H813 0.960 . S
C827 H814 0.961 . S
C827 H815 0.959 . S
C827 C825 1.561 . S
C828 C825 1.526 . S
C828 C829 1.396 . S
C828 C833 1.390 . S
C829 C823 1.465 . S
C829 C828 1.396 . S
C829 C830 1.399 . S
C830 H816 0.929 . S
C830 C829 1.399 . S
C830 C831 1.385 . S
C831 H817 0.931 . S
C831 C830 1.385 . S
C831 C832 1.389 . S
C832 C831 1.389 . S
C832 C833 1.387 . S
C833 H818 0.930 . S
C833 C828 1.390 . S
C833 C832 1.387 . S
H834 C846 0.930 . S
H835 C848 0.930 . S
H836 C849 0.930 . S
H837 C853 0.959 . S
H838 C853 0.959 . S
H839 C853 0.961 1_565 S
H840 C854 0.960 . S
H841 C854 0.961 . S
H842 C854 0.959 . S
H843 C857 0.929 . S
H844 C858 0.931 . S
H845 C860 0.930 . S
C846 H834 0.930 . S
C846 C847 1.399 . S
C846 C851 1.399 . S
C847 C846 1.399 . S
C847 C848 1.376 . S
C848 H835 0.930 . S
C848 C847 1.376 . S
C848 C849 1.388 . S
C849 H836 0.930 . S
C849 C848 1.388 . S
C849 C850 1.390 . S
C850 C849 1.390 . S
C850 C851 1.394 . S
C850 C856 1.465 1_565 S
C851 C846 1.399 . S
C851 C850 1.394 . S
C851 C852 1.516 1_565 S
C852 C851 1.516 1_545 S
C852 C853 1.502 . S
C852 C854 1.561 . S
C852 C855 1.526 . S
C853 H837 0.959 . S
C853 H838 0.959 . S
C853 H839 0.961 1_545 S
C853 C852 1.502 . S
C854 H840 0.960 . S
C854 H841 0.961 . S
C854 H842 0.959 . S
C854 C852 1.561 . S
C855 C852 1.526 . S
C855 C856 1.396 . S
C855 C860 1.390 . S
C856 C850 1.465 1_545 S
C856 C855 1.396 . S
C856 C857 1.399 . S
C857 H843 0.929 . S
C857 C856 1.399 . S
C857 C858 1.385 . S
C858 H844 0.931 . S
C858 C857 1.385 . S
C858 C859 1.389 . S
C859 C858 1.389 . S
C859 C860 1.387 . S
C860 H845 0.930 . S
C860 C855 1.390 . S
C860 C859 1.387 . S
H861 C873 0.930 . S
H862 C875 0.930 . S
H863 C876 0.930 . S
H864 C880 0.959 . S
H865 C880 0.959 . S
H866 C880 0.961 . S
H867 C881 0.960 . S
H868 C881 0.961 . S
H869 C881 0.959 . S
H870 C884 0.929 . S
H871 C885 0.931 . S
H872 C887 0.930 . S
C873 H861 0.930 . S
C873 C874 1.399 . S
C873 C878 1.399 . S
C874 C873 1.399 . S
C874 C875 1.376 . S
C875 H862 0.930 . S
C875 C874 1.376 . S
C875 C876 1.388 . S
C876 H863 0.930 . S
C876 C875 1.388 . S
C876 C877 1.390 . S
C877 C876 1.390 . S
C877 C878 1.394 . S
C877 C883 1.465 . S
C878 C873 1.399 . S
C878 C877 1.394 . S
C878 C879 1.516 . S
C879 C878 1.516 . S
C879 C880 1.502 . S
C879 C881 1.561 . S
C879 C882 1.526 . S
C880 H864 0.959 . S
C880 H865 0.959 . S
C880 H866 0.961 . S
C880 C879 1.502 . S
C881 H867 0.960 . S
C881 H868 0.961 . S
C881 H869 0.959 . S
C881 C879 1.561 . S
C882 C879 1.526 . S
C882 C883 1.396 . S
C882 C887 1.390 . S
C883 C877 1.465 . S
C883 C882 1.396 . S
C883 C884 1.399 . S
C884 H870 0.929 . S
C884 C883 1.399 . S
C884 C885 1.385 . S
C885 H871 0.931 . S
C885 C884 1.385 . S
C885 C886 1.389 . S
C886 C885 1.389 . S
C886 C887 1.387 . S
C887 H872 0.930 . S
C887 C882 1.390 . S
C887 C886 1.387 . S
H888 C900 0.930 . S
H889 C902 0.930 . S
H890 C903 0.930 . S
H891 C907 0.959 . S
H892 C907 0.959 . S
H893 C907 0.961 . S
H894 C908 0.960 . S
H895 C908 0.961 . S
H896 C908 0.959 . S
H897 C911 0.929 . S
H898 C912 0.931 . S
H899 C914 0.930 . S
C900 H888 0.930 . S
C900 C901 1.399 . S
C900 C905 1.399 . S
C901 C900 1.399 . S
C901 C902 1.376 1_556 S
C902 H889 0.930 . S
C902 C901 1.376 1_554 S
C902 C903 1.388 . S
C903 H890 0.930 . S
C903 C902 1.388 . S
C903 C904 1.390 . S
C904 C903 1.390 . S
C904 C905 1.394 1_554 S
C904 C910 1.465 . S
C905 C900 1.399 . S
C905 C904 1.394 1_556 S
C905 C906 1.516 . S
C906 C905 1.516 . S
C906 C907 1.502 . S
C906 C908 1.561 . S
C906 C909 1.526 . S
C907 H891 0.959 . S
C907 H892 0.959 . S
C907 H893 0.961 . S
C907 C906 1.502 . S
C908 H894 0.960 . S
C908 H895 0.961 . S
C908 H896 0.959 . S
C908 C906 1.561 . S
C909 C906 1.526 . S
C909 C910 1.396 1_556 S
C909 C914 1.390 . S
C910 C904 1.465 . S
C910 C909 1.396 1_554 S
C910 C911 1.399 . S
C911 H897 0.929 . S
C911 C910 1.399 . S
C911 C912 1.385 . S
C912 H898 0.931 . S
C912 C911 1.385 . S
C912 C913 1.389 . S
C913 C912 1.389 . S
C913 C914 1.387 1_554 S
C914 H899 0.930 . S
C914 C909 1.390 . S
C914 C913 1.387 1_556 S
H915 C927 0.930 . S
H916 C929 0.930 . S
H917 C930 0.930 . S
H918 C934 0.959 . S
H919 C934 0.959 . S
H920 C934 0.961 1_565 S
H921 C935 0.960 1_565 S
H922 C935 0.961 . S
H923 C935 0.959 . S
H924 C938 0.929 . S
H925 C939 0.931 . S
H926 C941 0.930 . S
C927 H915 0.930 . S
C927 C928 1.399 . S
C927 C932 1.399 . S
C928 C927 1.399 . S
C928 C929 1.376 1_554 S
C929 H916 0.930 . S
C929 C928 1.376 1_556 S
C929 C930 1.388 . S
C930 H917 0.930 . S
C930 C929 1.388 . S
C930 C931 1.390 . S
C931 C930 1.390 . S
C931 C932 1.394 1_556 S
C931 C937 1.465 1_565 S
C932 C927 1.399 . S
C932 C931 1.394 1_554 S
C932 C933 1.516 1_565 S
C933 C932 1.516 1_545 S
C933 C934 1.502 . S
C933 C935 1.561 . S
C933 C936 1.526 . S
C934 H918 0.959 . S
C934 H919 0.959 . S
C934 H920 0.961 1_545 S
C934 C933 1.502 . S
C935 H921 0.960 1_545 S
C935 H922 0.961 . S
C935 H923 0.959 . S
C935 C933 1.561 . S
C936 C933 1.526 . S
C936 C937 1.396 1_554 S
C936 C941 1.390 . S
C937 C931 1.465 1_545 S
C937 C936 1.396 1_556 S
C937 C938 1.399 . S
C938 H924 0.929 . S
C938 C937 1.399 . S
C938 C939 1.385 . S
C939 H925 0.931 . S
C939 C938 1.385 . S
C939 C940 1.389 . S
C940 C939 1.389 . S
C940 C941 1.387 1_556 S
C941 H926 0.930 . S
C941 C936 1.390 . S
C941 C940 1.387 1_554 S
H942 C954 0.930 . S
H943 C956 0.930 . S
H944 C957 0.930 . S
H945 C961 0.959 . S
H946 C961 0.959 . S
H947 C961 0.961 . S
H948 C962 0.960 . S
H949 C962 0.961 . S
H950 C962 0.959 . S
H951 C965 0.929 . S
H952 C966 0.931 . S
H953 C968 0.930 . S
C954 H942 0.930 . S
C954 C955 1.399 . S
C954 C959 1.399 . S
C955 C954 1.399 . S
C955 C956 1.376 1_554 S
C956 H943 0.930 . S
C956 C955 1.376 1_556 S
C956 C957 1.388 . S
C957 H944 0.930 . S
C957 C956 1.388 . S
C957 C958 1.390 . S
C958 C957 1.390 . S
C958 C959 1.394 1_556 S
C958 C964 1.465 . S
C959 C954 1.399 . S
C959 C958 1.394 1_554 S
C959 C960 1.516 . S
C960 C959 1.516 . S
C960 C961 1.502 . S
C960 C962 1.561 . S
C960 C963 1.526 . S
C961 H945 0.959 . S
C961 H946 0.959 . S
C961 H947 0.961 . S
C961 C960 1.502 . S
C962 H948 0.960 . S
C962 H949 0.961 . S
C962 H950 0.959 . S
C962 C960 1.561 . S
C963 C960 1.526 . S
C963 C964 1.396 1_554 S
C963 C968 1.390 . S
C964 C958 1.465 . S
C964 C963 1.396 1_556 S
C964 C965 1.399 . S
C965 H951 0.929 . S
C965 C964 1.399 . S
C965 C966 1.385 . S
C966 H952 0.931 . S
C966 C965 1.385 . S
C966 C967 1.389 . S
C967 C966 1.389 . S
C967 C968 1.387 1_556 S
C968 H953 0.930 . S
C968 C963 1.390 . S
C968 C967 1.387 1_554 S
H969 C981 0.930 . S
H970 C983 0.930 . S
H971 C984 0.930 . S
H972 C988 0.959 . S
H973 C988 0.959 1_565 S
H974 C988 0.961 . S
H975 C989 0.960 . S
H976 C989 0.961 1_565 S
H977 C989 0.959 . S
H978 C992 0.929 . S
H979 C993 0.931 . S
H980 C995 0.930 . S
C981 H969 0.930 . S
C981 C982 1.399 1_554 S
C981 C986 1.399 . S
C982 C981 1.399 1_556 S
C982 C983 1.376 . S
C983 H970 0.930 . S
C983 C982 1.376 . S
C983 C984 1.388 . S
C984 H971 0.930 . S
C984 C983 1.388 . S
C984 C985 1.390 . S
C985 C984 1.390 . S
C985 C986 1.394 1_556 S
C985 C991 1.465 1_545 S
C986 C981 1.399 . S
C986 C985 1.394 1_554 S
C986 C987 1.516 . S
C987 C986 1.516 . S
C987 C988 1.502 . S
C987 C989 1.561 . S
C987 C990 1.526 1_545 S
C988 H972 0.959 . S
C988 H973 0.959 1_545 S
C988 H974 0.961 . S
C988 C987 1.502 . S
C989 H975 0.960 . S
C989 H976 0.961 1_545 S
C989 H977 0.959 . S
C989 C987 1.561 . S
C990 C987 1.526 1_565 S
C990 C991 1.396 1_554 S
C990 C995 1.390 . S
C991 C985 1.465 1_565 S
C991 C990 1.396 1_556 S
C991 C992 1.399 . S
C992 H978 0.929 . S
C992 C991 1.399 . S
C992 C993 1.385 . S
C993 H979 0.931 . S
C993 C992 1.385 . S
C993 C994 1.389 1_556 S
C994 C993 1.389 1_554 S
C994 C995 1.387 . S
C995 H980 0.930 . S
C995 C990 1.390 . S
C995 C994 1.387 . S
H996 C1008 0.930 . S
H997 C1010 0.930 . S
H998 C1011 0.930 . S
H999 C1015 0.959 . S
H1000 C1015 0.959 . S
H1001 C1015 0.961 1_554 S
H1002 C1016 0.960 . S
H1003 C1016 0.961 . S
H1004 C1016 0.959 . S
H1005 C1019 0.929 . S
H1006 C1020 0.931 . S
H1007 C1022 0.930 . S
C1008 H996 0.930 . S
C1008 C1009 1.399 . S
C1008 C1013 1.399 . S
C1009 C1008 1.399 . S
C1009 C1010 1.376 . S
C1010 H997 0.930 . S
C1010 C1009 1.376 . S
C1010 C1011 1.388 . S
C1011 H998 0.930 . S
C1011 C1010 1.388 . S
C1011 C1012 1.390 . S
C1012 C1011 1.390 . S
C1012 C1013 1.394 . S
C1012 C1018 1.465 1_554 S
C1013 C1008 1.399 . S
C1013 C1012 1.394 . S
C1013 C1014 1.516 1_554 S
C1014 C1013 1.516 1_556 S
C1014 C1015 1.502 . S
C1014 C1016 1.561 . S
C1014 C1017 1.526 . S
C1015 H999 0.959 . S
C1015 H1000 0.959 . S
C1015 H1001 0.961 1_556 S
C1015 C1014 1.502 . S
C1016 H1002 0.960 . S
C1016 H1003 0.961 . S
C1016 H1004 0.959 . S
C1016 C1014 1.561 . S
C1017 C1014 1.526 . S
C1017 C1018 1.396 . S
C1017 C1022 1.390 . S
C1018 C1012 1.465 1_556 S
C1018 C1017 1.396 . S
C1018 C1019 1.399 . S
C1019 H1005 0.929 . S
C1019 C1018 1.399 . S
C1019 C1020 1.385 . S
C1020 H1006 0.931 . S
C1020 C1019 1.385 . S
C1020 C1021 1.389 . S
C1021 C1020 1.389 . S
C1021 C1022 1.387 . S
C1022 H1007 0.930 . S
C1022 C1017 1.390 . S
C1022 C1021 1.387 . S
H1023 C1035 0.930 . S
H1024 C1037 0.930 . S
H1025 C1038 0.930 . S
H1026 C1042 0.959 . S
H1027 C1042 0.959 . S
H1028 C1042 0.961 . S
H1029 C1043 0.960 . S
H1030 C1043 0.961 . S
H1031 C1043 0.959 . S
H1032 C1046 0.929 . S
H1033 C1047 0.931 . S
H1034 C1049 0.930 . S
C1035 H1023 0.930 . S
C1035 C1036 1.399 . S
C1035 C1040 1.399 . S
C1036 C1035 1.399 . S
C1036 C1037 1.376 . S
C1037 H1024 0.930 . S
C1037 C1036 1.376 . S
C1037 C1038 1.388 . S
C1038 H1025 0.930 . S
C1038 C1037 1.388 . S
C1038 C1039 1.390 . S
C1039 C1038 1.390 . S
C1039 C1040 1.394 . S
C1039 C1045 1.465 1_554 S
C1040 C1035 1.399 . S
C1040 C1039 1.394 . S
C1040 C1041 1.516 1_554 S
C1041 C1040 1.516 1_556 S
C1041 C1042 1.502 . S
C1041 C1043 1.561 . S
C1041 C1044 1.526 . S
C1042 H1026 0.959 . S
C1042 H1027 0.959 . S
C1042 H1028 0.961 . S
C1042 C1041 1.502 . S
C1043 H1029 0.960 . S
C1043 H1030 0.961 . S
C1043 H1031 0.959 . S
C1043 C1041 1.561 . S
C1044 C1041 1.526 . S
C1044 C1045 1.396 . S
C1044 C1049 1.390 . S
C1045 C1039 1.465 1_556 S
C1045 C1044 1.396 . S
C1045 C1046 1.399 . S
C1046 H1032 0.929 . S
C1046 C1045 1.399 . S
C1046 C1047 1.385 . S
C1047 H1033 0.931 . S
C1047 C1046 1.385 . S
C1047 C1048 1.389 . S
C1048 C1047 1.389 . S
C1048 C1049 1.387 . S
C1049 H1034 0.930 . S
C1049 C1044 1.390 . S
C1049 C1048 1.387 . S
H1050 C1062 0.930 . S
H1051 C1064 0.930 . S
H1052 C1065 0.930 . S
H1053 C1069 0.959 . S
H1054 C1069 0.959 . S
H1055 C1069 0.961 1_554 S
H1056 C1070 0.960 1_554 S
H1057 C1070 0.961 . S
H1058 C1070 0.959 . S
H1059 C1073 0.929 . S
H1060 C1074 0.931 . S
H1061 C1076 0.930 . S
C1062 H1050 0.930 . S
C1062 C1063 1.399 . S
C1062 C1067 1.399 . S
C1063 C1062 1.399 . S
C1063 C1064 1.376 . S
C1064 H1051 0.930 . S
C1064 C1063 1.376 . S
C1064 C1065 1.388 . S
C1065 H1052 0.930 . S
C1065 C1064 1.388 . S
C1065 C1066 1.390 . S
C1066 C1065 1.390 . S
C1066 C1067 1.394 . S
C1066 C1072 1.465 1_554 S
C1067 C1062 1.399 . S
C1067 C1066 1.394 . S
C1067 C1068 1.516 1_554 S
C1068 C1067 1.516 1_556 S
C1068 C1069 1.502 . S
C1068 C1070 1.561 . S
C1068 C1071 1.526 . S
C1069 H1053 0.959 . S
C1069 H1054 0.959 . S
C1069 H1055 0.961 1_556 S
C1069 C1068 1.502 . S
C1070 H1056 0.960 1_556 S
C1070 H1057 0.961 . S
C1070 H1058 0.959 . S
C1070 C1068 1.561 . S
C1071 C1068 1.526 . S
C1071 C1072 1.396 . S
C1071 C1076 1.390 . S
C1072 C1066 1.465 1_556 S
C1072 C1071 1.396 . S
C1072 C1073 1.399 . S
C1073 H1059 0.929 . S
C1073 C1072 1.399 . S
C1073 C1074 1.385 . S
C1074 H1060 0.931 . S
C1074 C1073 1.385 . S
C1074 C1075 1.389 . S
C1075 C1074 1.389 . S
C1075 C1076 1.387 . S
C1076 H1061 0.930 . S
C1076 C1071 1.390 . S
C1076 C1075 1.387 . S
H1077 C1089 0.930 . S
H1078 C1091 0.930 . S
H1079 C1092 0.930 . S
H1080 C1096 0.959 . S
H1081 C1096 0.959 1_554 S
H1082 C1096 0.961 . S
H1083 C1097 0.958 1_556 S
H1084 C1097 0.963 . S
H1085 C1097 0.960 . S
H1086 C1100 0.929 . S
H1087 C1101 0.931 . S
H1088 C1103 0.930 . S
C1089 H1077 0.930 . S
C1089 C1090 1.399 . S
C1089 C1094 1.399 . S
C1090 C1089 1.399 . S
C1090 C1091 1.376 . S
C1091 H1078 0.930 . S
C1091 C1090 1.376 . S
C1091 C1092 1.388 . S
C1092 H1079 0.930 . S
C1092 C1091 1.388 . S
C1092 C1093 1.390 . S
C1093 C1092 1.390 . S
C1093 C1094 1.394 . S
C1093 C1099 1.465 1_556 S
C1094 C1089 1.399 . S
C1094 C1093 1.394 . S
C1094 C1095 1.515 1_556 S
C1095 C1094 1.515 1_554 S
C1095 C1096 1.502 1_554 S
C1095 C1097 1.561 . S
C1095 C1098 1.527 . S
C1096 H1080 0.959 . S
C1096 H1081 0.959 1_556 S
C1096 H1082 0.961 . S
C1096 C1095 1.502 1_556 S
C1097 H1083 0.958 1_554 S
C1097 H1084 0.963 . S
C1097 H1085 0.960 . S
C1097 C1095 1.561 . S
C1098 C1095 1.527 . S
C1098 C1099 1.396 . S
C1098 C1103 1.390 . S
C1099 C1093 1.465 1_554 S
C1099 C1098 1.396 . S
C1099 C1100 1.399 . S
C1100 H1086 0.929 . S
C1100 C1099 1.399 . S
C1100 C1101 1.385 . S
C1101 H1087 0.931 . S
C1101 C1100 1.385 . S
C1101 C1102 1.389 . S
C1102 C1101 1.389 . S
C1102 C1103 1.387 . S
C1103 H1088 0.930 . S
C1103 C1098 1.390 . S
C1103 C1102 1.387 . S
H1104 C1116 0.930 . S
H1105 C1118 0.930 . S
H1106 C1119 0.930 . S
H1107 C1123 0.959 . S
H1108 C1123 0.959 . S
H1109 C1123 0.961 . S
H1110 C1124 0.960 . S
H1111 C1124 0.961 . S
H1112 C1124 0.959 . S
H1113 C1127 0.929 . S
H1114 C1128 0.931 . S
H1115 C1130 0.930 . S
C1116 H1104 0.930 . S
C1116 C1117 1.399 . S
C1116 C1121 1.399 . S
C1117 C1116 1.399 . S
C1117 C1118 1.376 . S
C1118 H1105 0.930 . S
C1118 C1117 1.376 . S
C1118 C1119 1.388 . S
C1119 H1106 0.930 . S
C1119 C1118 1.388 . S
C1119 C1120 1.390 . S
C1120 C1119 1.390 . S
C1120 C1121 1.394 . S
C1120 C1126 1.465 . S
C1121 C1116 1.399 . S
C1121 C1120 1.394 . S
C1121 C1122 1.516 . S
C1122 C1121 1.516 . S
C1122 C1123 1.502 . S
C1122 C1124 1.561 . S
C1122 C1125 1.526 . S
C1123 H1107 0.959 . S
C1123 H1108 0.959 . S
C1123 H1109 0.961 . S
C1123 C1122 1.502 . S
C1124 H1110 0.960 . S
C1124 H1111 0.961 . S
C1124 H1112 0.959 . S
C1124 C1122 1.561 . S
C1125 C1122 1.526 . S
C1125 C1126 1.396 . S
C1125 C1130 1.390 . S
C1126 C1120 1.465 . S
C1126 C1125 1.396 . S
C1126 C1127 1.399 . S
C1127 H1113 0.929 . S
C1127 C1126 1.399 . S
C1127 C1128 1.385 . S
C1128 H1114 0.931 . S
C1128 C1127 1.385 . S
C1128 C1129 1.389 . S
C1129 C1128 1.389 . S
C1129 C1130 1.387 . S
C1130 H1115 0.930 . S
C1130 C1125 1.390 . S
C1130 C1129 1.387 . S
H1131 C1143 0.930 . S
H1132 C1145 0.930 . S
H1133 C1146 0.930 . S
H1134 C1150 0.959 . S
H1135 C1150 0.959 . S
H1136 C1150 0.961 . S
H1137 C1151 0.960 . S
H1138 C1151 0.961 . S
H1139 C1151 0.959 . S
H1140 C1154 0.929 . S
H1141 C1155 0.931 . S
H1142 C1157 0.930 . S
C1143 H1131 0.930 . S
C1143 C1144 1.399 . S
C1143 C1148 1.399 . S
C1144 C1143 1.399 . S
C1144 C1145 1.376 . S
C1145 H1132 0.930 . S
C1145 C1144 1.376 . S
C1145 C1146 1.388 . S
C1146 H1133 0.930 . S
C1146 C1145 1.388 . S
C1146 C1147 1.390 . S
C1147 C1146 1.390 . S
C1147 C1148 1.394 . S
C1147 C1153 1.465 . S
C1148 C1143 1.399 . S
C1148 C1147 1.394 . S
C1148 C1149 1.516 . S
C1149 C1148 1.516 . S
C1149 C1150 1.502 . S
C1149 C1151 1.561 . S
C1149 C1152 1.526 . S
C1150 H1134 0.959 . S
C1150 H1135 0.959 . S
C1150 H1136 0.961 . S
C1150 C1149 1.502 . S
C1151 H1137 0.960 . S
C1151 H1138 0.961 . S
C1151 H1139 0.959 . S
C1151 C1149 1.561 . S
C1152 C1149 1.526 . S
C1152 C1153 1.396 . S
C1152 C1157 1.390 . S
C1153 C1147 1.465 . S
C1153 C1152 1.396 . S
C1153 C1154 1.399 . S
C1154 H1140 0.929 . S
C1154 C1153 1.399 . S
C1154 C1155 1.385 . S
C1155 H1141 0.931 . S
C1155 C1154 1.385 . S
C1155 C1156 1.389 . S
C1156 C1155 1.389 . S
C1156 C1157 1.387 . S
C1157 H1142 0.930 . S
C1157 C1152 1.390 . S
C1157 C1156 1.387 . S
H1158 C1170 0.930 . S
H1159 C1172 0.930 . S
H1160 C1173 0.930 . S
H1161 C1177 0.959 . S
H1162 C1177 0.959 . S
H1163 C1177 0.961 . S
H1164 C1178 0.960 . S
H1165 C1178 0.961 . S
H1166 C1178 0.959 . S
H1167 C1181 0.929 . S
H1168 C1182 0.931 . S
H1169 C1184 0.930 . S
C1170 H1158 0.930 . S
C1170 C1171 1.399 . S
C1170 C1175 1.399 . S
C1171 C1170 1.399 . S
C1171 C1172 1.376 . S
C1172 H1159 0.930 . S
C1172 C1171 1.376 . S
C1172 C1173 1.388 . S
C1173 H1160 0.930 . S
C1173 C1172 1.388 . S
C1173 C1174 1.390 . S
C1174 C1173 1.390 . S
C1174 C1175 1.394 . S
C1174 C1180 1.465 . S
C1175 C1170 1.399 . S
C1175 C1174 1.394 . S
C1175 C1176 1.516 . S
C1176 C1175 1.516 . S
C1176 C1177 1.502 . S
C1176 C1178 1.561 . S
C1176 C1179 1.526 . S
C1177 H1161 0.959 . S
C1177 H1162 0.959 . S
C1177 H1163 0.961 . S
C1177 C1176 1.502 . S
C1178 H1164 0.960 . S
C1178 H1165 0.961 . S
C1178 H1166 0.959 . S
C1178 C1176 1.561 . S
C1179 C1176 1.526 . S
C1179 C1180 1.396 . S
C1179 C1184 1.390 . S
C1180 C1174 1.465 . S
C1180 C1179 1.396 . S
C1180 C1181 1.399 . S
C1181 H1167 0.929 . S
C1181 C1180 1.399 . S
C1181 C1182 1.385 . S
C1182 H1168 0.931 . S
C1182 C1181 1.385 . S
C1182 C1183 1.389 . S
C1183 C1182 1.389 . S
C1183 C1184 1.387 . S
C1184 H1169 0.930 . S
C1184 C1179 1.390 . S
C1184 C1183 1.387 . S
H1185 C1197 0.930 . S
H1186 C1199 0.930 . S
H1187 C1200 0.930 . S
H1188 C1204 0.959 . S
H1189 C1204 0.959 . S
H1190 C1204 0.961 . S
H1191 C1205 0.960 . S
H1192 C1205 0.961 . S
H1193 C1205 0.959 . S
H1194 C1208 0.929 . S
H1195 C1209 0.931 . S
H1196 C1211 0.930 . S
C1197 H1185 0.930 . S
C1197 C1198 1.399 . S
C1197 C1202 1.399 . S
C1198 C1197 1.399 . S
C1198 C1199 1.376 . S
C1199 H1186 0.930 . S
C1199 C1198 1.376 . S
C1199 C1200 1.388 . S
C1200 H1187 0.930 . S
C1200 C1199 1.388 . S
C1200 C1201 1.390 . S
C1201 C1200 1.390 . S
C1201 C1202 1.394 . S
C1201 C1207 1.465 . S
C1202 C1197 1.399 . S
C1202 C1201 1.394 . S
C1202 C1203 1.516 . S
C1203 C1202 1.516 . S
C1203 C1204 1.502 . S
C1203 C1205 1.561 . S
C1203 C1206 1.526 . S
C1204 H1188 0.959 . S
C1204 H1189 0.959 . S
C1204 H1190 0.961 . S
C1204 C1203 1.502 . S
C1205 H1191 0.960 . S
C1205 H1192 0.961 . S
C1205 H1193 0.959 . S
C1205 C1203 1.561 . S
C1206 C1203 1.526 . S
C1206 C1207 1.396 . S
C1206 C1211 1.390 . S
C1207 C1201 1.465 . S
C1207 C1206 1.396 . S
C1207 C1208 1.399 . S
C1208 H1194 0.929 . S
C1208 C1207 1.399 . S
C1208 C1209 1.385 . S
C1209 H1195 0.931 . S
C1209 C1208 1.385 . S
C1209 C1210 1.389 . S
C1210 C1209 1.389 . S
C1210 C1211 1.387 . S
C1211 H1196 0.930 . S
C1211 C1206 1.390 . S
C1211 C1210 1.387 . S
H1212 C1224 0.930 . S
H1213 C1226 0.930 . S
H1214 C1227 0.930 . S
H1215 C1231 0.961 . S
H1216 C1231 0.975 . S
H1217 C1231 0.943 1_455 S
H1218 C1232 0.961 1_455 S
H1219 C1232 0.960 . S
H1220 C1232 0.955 . S
H1221 C1235 0.929 . S
H1222 C1236 0.931 . S
H1223 C1238 0.930 . S
C1224 H1212 0.930 . S
C1224 C1225 1.399 . S
C1224 C1229 1.399 . S
C1225 C1224 1.399 . S
C1225 C1226 1.376 . S
C1226 H1213 0.930 . S
C1226 C1225 1.376 . S
C1226 C1227 1.388 . S
C1227 H1214 0.930 . S
C1227 C1226 1.388 . S
C1227 C1228 1.390 . S
C1228 C1227 1.390 . S
C1228 C1229 1.394 . S
C1228 C1234 1.465 1_455 S
C1229 C1224 1.399 . S
C1229 C1228 1.394 . S
C1229 C1230 1.520 1_455 S
C1230 C1229 1.520 1_655 S
C1230 C1231 1.502 . S
C1230 C1232 1.561 . S
C1230 C1233 1.522 . S
C1231 H1215 0.961 . S
C1231 H1216 0.975 . S
C1231 H1217 0.943 1_655 S
C1231 C1230 1.502 . S
C1232 H1218 0.961 1_655 S
C1232 H1219 0.960 . S
C1232 H1220 0.955 . S
C1232 C1230 1.561 . S
C1233 C1230 1.522 . S
C1233 C1234 1.396 . S
C1233 C1238 1.390 . S
C1234 C1228 1.465 1_655 S
C1234 C1233 1.396 . S
C1234 C1235 1.399 . S
C1235 H1221 0.929 . S
C1235 C1234 1.399 . S
C1235 C1236 1.385 . S
C1236 H1222 0.931 . S
C1236 C1235 1.385 . S
C1236 C1237 1.389 . S
C1237 C1236 1.389 . S
C1237 C1238 1.387 . S
C1238 H1223 0.930 . S
C1238 C1233 1.390 . S
C1238 C1237 1.387 . S
H1239 C1251 0.930 . S
H1240 C1253 0.930 . S
H1241 C1254 0.930 . S
H1242 C1258 0.961 . S
H1243 C1258 0.975 . S
H1244 C1258 0.943 1_655 S
H1245 C1259 0.961 1_655 S
H1246 C1259 0.960 . S
H1247 C1259 0.955 . S
H1248 C1262 0.929 . S
H1249 C1263 0.931 . S
H1250 C1265 0.930 . S
C1251 H1239 0.930 . S
C1251 C1252 1.399 . S
C1251 C1256 1.399 . S
C1252 C1251 1.399 . S
C1252 C1253 1.376 . S
C1253 H1240 0.930 . S
C1253 C1252 1.376 . S
C1253 C1254 1.388 . S
C1254 H1241 0.930 . S
C1254 C1253 1.388 . S
C1254 C1255 1.390 . S
C1255 C1254 1.390 . S
C1255 C1256 1.394 . S
C1255 C1261 1.465 1_655 S
C1256 C1251 1.399 . S
C1256 C1255 1.394 . S
C1256 C1257 1.520 1_655 S
C1257 C1256 1.520 1_455 S
C1257 C1258 1.502 . S
C1257 C1259 1.561 . S
C1257 C1260 1.522 . S
C1258 H1242 0.961 . S
C1258 H1243 0.975 . S
C1258 H1244 0.943 1_455 S
C1258 C1257 1.502 . S
C1259 H1245 0.961 1_455 S
C1259 H1246 0.960 . S
C1259 H1247 0.955 . S
C1259 C1257 1.561 . S
C1260 C1257 1.522 . S
C1260 C1261 1.396 . S
C1260 C1265 1.390 . S
C1261 C1255 1.465 1_455 S
C1261 C1260 1.396 . S
C1261 C1262 1.399 . S
C1262 H1248 0.929 . S
C1262 C1261 1.399 . S
C1262 C1263 1.385 . S
C1263 H1249 0.931 . S
C1263 C1262 1.385 . S
C1263 C1264 1.389 . S
C1264 C1263 1.389 . S
C1264 C1265 1.387 . S
C1265 H1250 0.930 . S
C1265 C1260 1.390 . S
C1265 C1264 1.387 . S
H1266 C1278 0.930 . S
H1267 C1280 0.930 . S
H1268 C1281 0.930 . S
H1269 C1285 0.959 . S
H1270 C1285 0.959 . S
H1271 C1285 0.961 . S
H1272 C1286 0.960 . S
H1273 C1286 0.961 . S
H1274 C1286 0.959 . S
H1275 C1289 0.929 . S
H1276 C1290 0.931 . S
H1277 C1292 0.930 . S
C1278 H1266 0.930 . S
C1278 C1279 1.399 . S
C1278 C1283 1.399 . S
C1279 C1278 1.399 . S
C1279 C1280 1.376 . S
C1280 H1267 0.930 . S
C1280 C1279 1.376 . S
C1280 C1281 1.388 . S
C1281 H1268 0.930 . S
C1281 C1280 1.388 . S
C1281 C1282 1.390 . S
C1282 C1281 1.390 . S
C1282 C1283 1.394 . S
C1282 C1288 1.465 . S
C1283 C1278 1.399 . S
C1283 C1282 1.394 . S
C1283 C1284 1.516 . S
C1284 C1283 1.516 . S
C1284 C1285 1.502 1_556 S
C1284 C1286 1.561 . S
C1284 C1287 1.526 . S
C1285 H1269 0.959 . S
C1285 H1270 0.959 . S
C1285 H1271 0.961 . S
C1285 C1284 1.502 1_554 S
C1286 H1272 0.960 . S
C1286 H1273 0.961 . S
C1286 H1274 0.959 . S
C1286 C1284 1.561 . S
C1287 C1284 1.526 . S
C1287 C1288 1.396 . S
C1287 C1292 1.390 . S
C1288 C1282 1.465 . S
C1288 C1287 1.396 . S
C1288 C1289 1.399 . S
C1289 H1275 0.929 . S
C1289 C1288 1.399 . S
C1289 C1290 1.385 . S
C1290 H1276 0.931 . S
C1290 C1289 1.385 . S
C1290 C1291 1.389 . S
C1291 C1290 1.389 . S
C1291 C1292 1.387 . S
C1292 H1277 0.930 . S
C1292 C1287 1.390 . S
C1292 C1291 1.387 . S
H1293 C1305 0.930 . S
H1294 C1307 0.930 . S
H1295 C1308 0.930 . S
H1296 C1312 0.959 . S
H1297 C1312 0.959 . S
H1298 C1312 0.961 . S
H1299 C1313 0.960 . S
H1300 C1313 0.961 . S
H1301 C1313 0.959 . S
H1302 C1316 0.929 . S
H1303 C1317 0.931 . S
H1304 C1319 0.930 . S
C1305 H1293 0.930 . S
C1305 C1306 1.399 . S
C1305 C1310 1.399 . S
C1306 C1305 1.399 . S
C1306 C1307 1.376 . S
C1307 H1294 0.930 . S
C1307 C1306 1.376 . S
C1307 C1308 1.388 . S
C1308 H1295 0.930 . S
C1308 C1307 1.388 . S
C1308 C1309 1.390 . S
C1309 C1308 1.390 . S
C1309 C1310 1.394 . S
C1309 C1315 1.465 . S
C1310 C1305 1.399 . S
C1310 C1309 1.394 . S
C1310 C1311 1.516 . S
C1311 C1310 1.516 . S
C1311 C1312 1.502 . S
C1311 C1313 1.561 . S
C1311 C1314 1.526 . S
C1312 H1296 0.959 . S
C1312 H1297 0.959 . S
C1312 H1298 0.961 . S
C1312 C1311 1.502 . S
C1313 H1299 0.960 . S
C1313 H1300 0.961 . S
C1313 H1301 0.959 . S
C1313 C1311 1.561 . S
C1314 C1311 1.526 . S
C1314 C1315 1.396 . S
C1314 C1319 1.390 . S
C1315 C1309 1.465 . S
C1315 C1314 1.396 . S
C1315 C1316 1.399 . S
C1316 H1302 0.929 . S
C1316 C1315 1.399 . S
C1316 C1317 1.385 . S
C1317 H1303 0.931 . S
C1317 C1316 1.385 . S
C1317 C1318 1.389 . S
C1318 C1317 1.389 . S
C1318 C1319 1.387 . S
C1319 H1304 0.930 . S
C1319 C1314 1.390 . S
C1319 C1318 1.387 . S
C685 C58 1.492 . S
C697 C658 1.589 . S
C712 C562 1.464 . S
C724 C154 1.600 . S
C739 C490 1.532 . S
C751 C226 1.515 . S
C766 C394 1.521 . S
C778 C322 1.567 . S
C793 C236 2.443 . S
C805 C68 2.435 . S
C820 C152 0.575 . S
C832 C320 0.646 . S
C847 C308 2.409 . S
C859 C140 2.410 . S
C874 C224 0.622 . S
C886 C56 0.590 . S
C901 C404 2.454 . S
C913 C572 2.443 . S
C928 C488 0.670 . S
C940 C656 0.619 . S
C955 C644 2.426 . S
C967 C476 2.422 . S
C982 C560 0.656 . S
C994 C392 0.663 . S
C1009 C67 1.776 . S
C1021 C55 1.762 . S
C1036 C139 1.742 . S
C1048 C151 1.788 . S
C1063 C223 1.741 . S
C1075 C235 1.788 . S
C1090 C307 1.788 . S
C1102 C319 1.745 . S
C1117 C391 1.770 . S
C1129 C403 1.754 . S
C1144 C475 1.763 . S
C1156 C487 1.774 . S
C1171 C571 1.757 . S
C1183 C559 1.766 . S
C1198 C643 1.789 . S
C1210 C655 1.743 . S
C1225 C70 2.017 . S
C1237 C142 2.028 . S
C1252 C310 1.965 . S
C1264 C238 1.953 . S
C1279 C406 2.003 . S
C1291 C478 1.987 . S
C1306 C646 2.036 . S
C1318 C574 2.027 . S
