# Generated by pormake.
# Topology smc, (6)-cn, num edge types: 1
# Building blocks:
#     Node 0, Type 0, BuildingBlock: UKALOJ_clean_sbu_0, # of connection points: 6
#     Node 1, Type 0, BuildingBlock: UKALOJ_clean_sbu_0, # of connection points: 6
#     Node 2, Type 0, BuildingBlock: UKALOJ_clean_sbu_0, # of connection points: 6
#     Node 3, Type 0, BuildingBlock: UKALOJ_clean_sbu_0, # of connection points: 6
#     Node 4, Type 0, BuildingBlock: UKALOJ_clean_sbu_0, # of connection points: 6
#     Node 5, Type 0, BuildingBlock: UKALOJ_clean_sbu_0, # of connection points: 6
#     Node 6, Type 0, BuildingBlock: UKALOJ_clean_sbu_0, # of connection points: 6
#     Node 7, Type 0, BuildingBlock: UKALOJ_clean_sbu_0, # of connection points: 6
#     Node 8, Type 0, BuildingBlock: UKALOJ_clean_sbu_0, # of connection points: 6
#     Edge 9, Type (0, 0), BuildingBlock: UVAHIK_clean_linker_0, # of connection points: 2
#     Edge 10, Type (0, 0), BuildingBlock: UVAHIK_clean_linker_0, # of connection points: 2
#     Edge 11, Type (0, 0), BuildingBlock: UVAHIK_clean_linker_0, # of connection points: 2
#     Edge 12, Type (0, 0), BuildingBlock: UVAHIK_clean_linker_0, # of connection points: 2
#     Edge 13, Type (0, 0), BuildingBlock: UVAHIK_clean_linker_0, # of connection points: 2
#     Edge 14, Type (0, 0), BuildingBlock: UVAHIK_clean_linker_0, # of connection points: 2
#     Edge 15, Type (0, 0), BuildingBlock: UVAHIK_clean_linker_0, # of connection points: 2
#     Edge 16, Type (0, 0), BuildingBlock: UVAHIK_clean_linker_0, # of connection points: 2
#     Edge 17, Type (0, 0), BuildingBlock: UVAHIK_clean_linker_0, # of connection points: 2
#     Edge 18, Type (0, 0), BuildingBlock: UVAHIK_clean_linker_0, # of connection points: 2
#     Edge 19, Type (0, 0), BuildingBlock: UVAHIK_clean_linker_0, # of connection points: 2
#     Edge 20, Type (0, 0), BuildingBlock: UVAHIK_clean_linker_0, # of connection points: 2
#     Edge 21, Type (0, 0), BuildingBlock: UVAHIK_clean_linker_0, # of connection points: 2
#     Edge 22, Type (0, 0), BuildingBlock: UVAHIK_clean_linker_0, # of connection points: 2
#     Edge 23, Type (0, 0), BuildingBlock: UVAHIK_clean_linker_0, # of connection points: 2
#     Edge 24, Type (0, 0), BuildingBlock: UVAHIK_clean_linker_0, # of connection points: 2
#     Edge 25, Type (0, 0), BuildingBlock: UVAHIK_clean_linker_0, # of connection points: 2
#     Edge 26, Type (0, 0), BuildingBlock: UVAHIK_clean_linker_0, # of connection points: 2
#     Edge 27, Type (0, 0), BuildingBlock: UVAHIK_clean_linker_0, # of connection points: 2
#     Edge 28, Type (0, 0), BuildingBlock: UVAHIK_clean_linker_0, # of connection points: 2
#     Edge 29, Type (0, 0), BuildingBlock: UVAHIK_clean_linker_0, # of connection points: 2
#     Edge 30, Type (0, 0), BuildingBlock: UVAHIK_clean_linker_0, # of connection points: 2
#     Edge 31, Type (0, 0), BuildingBlock: UVAHIK_clean_linker_0, # of connection points: 2
#     Edge 32, Type (0, 0), BuildingBlock: UVAHIK_clean_linker_0, # of connection points: 2
#     Edge 33, Type (0, 0), BuildingBlock: UVAHIK_clean_linker_0, # of connection points: 2
#     Edge 34, Type (0, 0), BuildingBlock: UVAHIK_clean_linker_0, # of connection points: 2
#     Edge 35, Type (0, 0), BuildingBlock: UVAHIK_clean_linker_0, # of connection points: 2
# Relax obj value: 0.120
# Max RMSD: 0.215
# Mean RMSD: 0.215
data_MOF--net-smc--node1-UKALOJ_clean_sbu_0--edge1-UVAHIK_clean_linker_0
_symmetry_space_group_name_H-M    P1
_symmetry_Int_Tables_number       1
_symmetry_cell_setting            triclinic
loop_
_symmetry_equiv_pos_as_xyz
'x, y, z'
_cell_length_a     36.019733
_cell_length_b     36.015079
_cell_length_c     73.253093
_cell_angle_alpha  90.015574
_cell_angle_beta   90.007288
_cell_angle_gamma 119.96659
loop_
_atom_site_label
_atom_site_type_symbol
_atom_site_fract_x
_atom_site_fract_y
_atom_site_fract_z
_atom_type_partial_charge
Zn0 Zn 0.01173 0.41431 0.03263 0.0
O1 O 0.05967 0.47856 0.03575 0.0
C2 C 0.07553 0.39283 0.01917 0.0
Zn3 Zn 0.01593 0.41846 1.00217 0.0
C4 C 0.07558 0.50104 0.02147 0.0
O5 O 0.06382 0.48354 1.00585 0.0
C6 C 0.94896 0.33274 0.01372 0.0
O7 O 0.97017 0.43843 1.00077 0.0
O8 O 0.96639 0.43512 0.0307 0.0
N9 N 0.02568 0.42546 0.97441 0.0
C10 C -0.00033 0.40695 0.95993 0.0
C11 C 0.06222 0.44874 0.9495 0.0
N12 N 0.06447 0.45152 0.96785 0.0
N13 N 0.02192 0.42079 0.94415 0.0
C14 C 0.02722 0.41742 0.07515 0.0
C15 C 0.96262 0.38264 0.08446 0.0
N16 N 0.00161 0.40708 0.06031 0.0
N17 N 0.96157 0.38577 0.06621 0.0
N18 N 0.00339 0.4022 0.09055 0.0
H19 H 0.087 0.44192 0.06038 0.0
H20 H 0.08756 0.47452 0.07883 0.0
H21 H 0.08812 0.42581 0.0837 0.0
C22 C 0.07521 0.44093 0.07438 0.0
C23 C 0.95232 0.37722 0.96122 0.0
H24 H 0.93918 0.38354 0.97376 0.0
H25 H 0.9358 0.38069 0.9491 0.0
H26 H 0.94597 0.34379 0.96165 0.0
O27 O 0.96685 0.35371 0.9993 0.0
O28 O 0.9626 0.35037 0.02917 0.0
C29 C 0.95513 0.44386 0.01558 0.0
O30 O 0.05794 0.39479 0.03389 0.0
O31 O 0.06292 0.39998 1.00404 0.0
Zn32 Zn 0.61297 0.60989 0.03338 0.0
O33 O 0.54663 0.58737 0.03499 0.0
C34 C 0.62949 0.69492 0.02186 0.0
Zn35 Zn 0.61201 0.61387 1.00299 0.0
C36 C 0.52598 0.5825 0.02028 0.0
O37 O 0.54592 0.59251 1.00514 0.0
C38 C 0.69813 0.63726 0.01596 0.0
O39 O 0.59627 0.54958 1.00008 0.0
O40 O 0.59816 0.54562 0.02998 0.0
N41 N 0.60827 0.62059 0.97537 0.0
C42 C 0.62333 0.61008 0.96052 0.0
C43 C 0.5934 0.64482 0.95122 0.0
N44 N 0.58947 0.64188 0.96949 0.0
N45 N 0.6145 0.62515 0.94514 0.0
C46 C 0.60705 0.6205 0.07562 0.0
C47 C 0.63994 0.58939 0.08573 0.0
N48 N 0.61779 0.60475 0.06108 0.0
N49 N 0.63808 0.58534 0.06744 0.0
N50 N 0.621 0.61161 0.09134 0.0
H51 H 0.56253 0.63428 0.06155 0.0
H52 H 0.55963 0.63471 0.08613 0.0
H53 H 0.60372 0.67797 0.0741 0.0
C54 C 0.58151 0.64288 0.07427 0.0
C55 C 0.64794 0.58666 0.96125 0.0
H56 H 0.6589 0.58575 0.97524 0.0
H57 H 0.62676 0.55304 0.95684 0.0
H58 H 0.67585 0.60178 0.95188 0.0
O59 O 0.67782 0.63402 1.00133 0.0
O60 O 0.67891 0.63061 0.03118 0.0
C61 C 0.59145 0.5277 0.01441 0.0
O62 O 0.62628 0.67373 0.03622 0.0
O63 O 0.62623 0.67774 1.00635 0.0
Zn64 Zn 0.41055 0.01259 1.00507 0.0
O65 O 0.47574 0.0598 1.00315 0.0
C66 C 0.39075 0.07814 0.018 0.0
Zn67 Zn 0.41301 0.01671 0.03555 0.0
C68 C 0.49724 0.0751 0.01772 0.0
O69 O 0.47855 0.06323 0.03309 0.0
C70 C 0.32732 0.95109 0.02275 0.0
O71 O 0.43104 0.96946 0.03733 0.0
O72 O 0.42951 0.9661 0.00739 0.0
N73 N 0.4175 0.0251 0.06341 0.0
C74 C 0.39799 -0.00169 0.07756 0.0
C75 C 0.43885 0.06033 0.08872 0.0
N76 N 0.44296 0.06356 0.07042 0.0
N77 N 0.41063 0.01973 0.09358 0.0
C78 C 0.41353 0.03103 0.9631 0.0
C79 C 0.39236 0.969 0.95192 0.0
N80 N 0.40635 0.00422 0.97724 0.0
N81 N 0.39332 0.96575 0.97022 0.0
N82 N 0.40471 0.00961 0.94707 0.0
H83 H 0.45047 0.09072 0.97761 0.0
H84 H 0.45169 0.09551 0.953 0.0
H85 H 0.40448 0.08499 0.96549 0.0
C86 C 0.43137 0.07837 0.96495 0.0
C87 C 0.36851 0.95098 0.07573 0.0
H88 H 0.37511 0.93863 0.06302 0.0
H89 H 0.37186 0.93385 0.08764 0.0
H90 H 0.33502 0.94439 0.07529 0.0
O91 O 0.34763 0.96902 0.0373 0.0
O92 O 0.3459 0.96419 0.00742 0.0
C93 C 0.43674 0.95415 0.02266 0.0
O94 O 0.39277 0.06007 1.00343 0.0
O95 O 0.3967 0.06525 0.0333 0.0
Zn96 Zn 0.67723 0.74688 0.36702 0.0
O97 O 0.7231 0.81209 0.36904 0.0
C98 C 0.74342 0.72657 0.35511 0.0
Zn99 Zn 0.68394 0.74986 0.33667 0.0
C100 C 0.74125 0.83353 0.35477 0.0
O101 O 0.73211 0.81491 0.33931 0.0
C102 C 0.61671 0.66421 0.34895 0.0
O103 O 0.63883 0.77049 0.33443 0.0
O104 O 0.62989 0.76502 0.36417 0.0
N105 N 0.69355 0.75323 0.30894 0.0
C106 C 0.66691 0.73647 0.29449 0.0
C107 C 0.73074 0.76794 0.28423 0.0
N108 N 0.73313 0.77282 0.30248 0.0
N109 N 0.68956 0.74498 0.27874 0.0
C110 C 0.69435 0.75118 0.4092 0.0
C111 C 0.63057 0.72014 0.41952 0.0
N112 N 0.66769 0.74145 0.39477 0.0
N113 N 0.62815 0.72228 0.40126 0.0
N114 N 0.67172 0.73775 0.42499 0.0
H115 H 0.75305 0.79397 0.39494 0.0
H116 H 0.75679 0.79713 0.41949 0.0
H117 H 0.75397 0.75201 0.4075 0.0
C118 C 0.74226 0.7752 0.40769 0.0
C119 C 0.61901 0.71342 0.29594 0.0
H120 H 0.60843 0.72178 0.30866 0.0
H121 H 0.60488 0.72114 0.28409 0.0
H122 H 0.60672 0.67844 0.29615 0.0
O123 O 0.63453 0.68517 0.33452 0.0
O124 O 0.63 0.68206 0.36438 0.0
C125 C 0.62101 0.77456 0.34867 0.0
O126 O 0.72558 0.73034 0.3694 0.0
O127 O 0.73061 0.73118 0.33956 0.0
Zn128 Zn 0.27641 0.94501 0.33771 0.0
O129 O 0.25883 0.87999 0.33616 0.0
C130 C 0.36331 0.96711 0.34939 0.0
Zn131 Zn 0.28058 0.94415 0.36815 0.0
C132 C 0.25493 0.85944 0.35081 0.0
O133 O 0.26361 0.87901 0.36604 0.0
C134 C 0.29792 0.02866 0.35498 0.0
O135 O 0.21503 0.92365 0.37087 0.0
O136 O 0.21072 0.92548 0.34102 0.0
N137 N 0.288 0.94204 0.39589 0.0
C138 C 0.27852 0.95905 0.41037 0.0
C139 C 0.31065 0.9272 0.42052 0.0
N140 N 0.30789 0.92227 0.40228 0.0
N141 N 0.29271 0.95039 0.42609 0.0
C142 C 0.28866 0.94081 0.29549 0.0
C143 C 0.24595 0.96042 0.28502 0.0
N144 N 0.26979 0.9479 0.30995 0.0
N145 N 0.2432 0.95996 0.30337 0.0
N146 N 0.27443 0.94873 0.2797 0.0
H147 H 0.31347 0.90505 0.30948 0.0
H148 H 0.31558 0.90363 0.28482 0.0
H149 H 0.3523 0.95133 0.29702 0.0
C150 C 0.31906 0.92394 0.29682 0.0
C151 C 0.25402 0.98248 0.40898 0.0
H152 H 0.2352 0.97442 0.39623 0.0
H153 H 0.23213 0.97478 0.42081 0.0
H154 H 0.27694 0.01744 0.40885 0.0
O155 O 0.29585 0.0089 0.36966 0.0
O156 O 0.29251 0.00966 0.33976 0.0
C157 C 0.1927 0.91758 0.35658 0.0
O158 O 0.34174 0.96309 0.33505 0.0
O159 O 0.34578 0.96262 0.3649 0.0
Zn160 Zn 0.08266 0.35217 0.36617 0.0
O161 O 0.1053 0.30844 0.36784 0.0
C162 C -0.00141 0.28357 0.35404 0.0
Zn163 Zn 0.08015 0.34789 0.3357 0.0
C164 C 0.11143 0.29341 0.35317 0.0
O165 O 0.10242 0.30386 0.33792 0.0
C166 C 0.05525 0.40969 0.34867 0.0
O167 O 0.1443 0.39734 0.33332 0.0
O168 O 0.14675 0.40175 0.36327 0.0
N169 N 0.07467 0.33838 0.30794 0.0
C170 C 0.08419 0.36436 0.29328 0.0
C171 C 0.05161 0.30002 0.28354 0.0
N172 N 0.05481 0.29851 0.30178 0.0
N173 N 0.06979 0.34094 0.27775 0.0
C174 C 0.07081 0.33454 0.40839 0.0
C175 C 0.10178 0.39828 0.41876 0.0
N176 N 0.08674 0.36136 0.39396 0.0
N177 N 0.10601 0.40088 0.40049 0.0
N178 N 0.07956 0.35702 0.42422 0.0
H179 H 0.0571 0.27661 0.39402 0.0
H180 H 0.05657 0.27266 0.41858 0.0
H181 H 0.01333 0.2738 0.40663 0.0
C182 C 0.04844 0.28667 0.40682 0.0
C183 C 0.1058 0.41226 0.29429 0.0
H184 H 0.10859 0.42364 0.3085 0.0
H185 H 0.13871 0.42625 0.28873 0.0
H186 H 0.08804 0.42398 0.28593 0.0
O187 O 0.059 0.39287 0.33405 0.0
O188 O 0.06177 0.39714 0.36392 0.0
C189 C 0.16536 0.41393 0.34789 0.0
O190 O 0.01906 0.30184 0.3685 0.0
O191 O 0.01637 0.2973 0.33861 0.0
Zn192 Zn 0.35083 0.08342 0.67228 0.0
O193 O 0.30636 0.10445 0.66961 0.0
C194 C 0.28341 -0.00144 0.68501 0.0
Zn195 Zn 0.34517 0.08152 0.7027 0.0
C196 C 0.28945 0.10975 0.68385 0.0
O197 O 0.29888 0.10103 0.6994 0.0
C198 C 0.40979 0.05932 0.69089 0.0
O199 O 0.39227 0.14637 0.70456 0.0
O200 O 0.39945 0.14854 0.67473 0.0
N201 N 0.33521 0.07807 0.73044 0.0
C202 C 0.36098 0.08509 0.74496 0.0
C203 C 0.29859 0.06563 0.75528 0.0
N204 N 0.29651 0.06609 0.73693 0.0
N205 N 0.33868 0.07724 0.7607 0.0
C206 C 0.33422 0.06943 0.63002 0.0
C207 C 0.39821 0.10085 0.61994 0.0
N208 N 0.36065 0.08607 0.64454 0.0
N209 N 0.40033 0.1056 0.63819 0.0
N210 N 0.35712 0.07804 0.61432 0.0
H211 H 0.27559 0.05453 0.6441 0.0
H212 H 0.27236 0.0544 0.61952 0.0
H213 H 0.27397 0.01139 0.63144 0.0
C214 C 0.28631 0.0464 0.63135 0.0
C215 C 0.4082 0.10178 0.74374 0.0
H216 H 0.42169 0.12077 0.73112 0.0
H217 H 0.42494 0.12194 0.75578 0.0
H218 H 0.41388 0.07424 0.74352 0.0
O219 O 0.39264 0.06356 0.70532 0.0
O220 O 0.39671 0.06411 0.67544 0.0
C221 C 0.40962 0.1675 0.69012 0.0
O222 O 0.30115 0.01893 0.67045 0.0
O223 O 0.29688 0.01693 0.70035 0.0
Zn224 Zn 0.94429 0.28151 0.67006 0.0
O225 O 0.92387 0.21588 0.6678 0.0
C226 C 0.02907 0.29898 0.68296 0.0
Zn227 Zn 0.94601 0.27803 0.70051 0.0
C228 C 0.91802 0.19383 0.68215 0.0
O229 O 0.92611 0.21214 0.69766 0.0
C230 C 0.96805 0.36476 0.68826 0.0
O231 O 0.88106 0.26085 0.70218 0.0
O232 O 0.87927 0.26461 0.67229 0.0
N233 N 0.94951 0.27279 0.72836 0.0
C234 C 0.94264 0.29254 0.74254 0.0
C235 C 0.96342 0.25128 0.75362 0.0
N236 N 0.96225 0.24706 0.73531 0.0
N237 N 0.95147 0.27983 0.75853 0.0
C238 C 0.95874 0.27807 0.62788 0.0
C239 C 0.92671 0.30976 0.61745 0.0
N240 N 0.94169 0.28784 0.64226 0.0
N241 N 0.92178 0.30744 0.63569 0.0
N242 N 0.95001 0.29182 0.61206 0.0
H243 H 0.97399 0.23494 0.64226 0.0
H244 H 0.97478 0.23169 0.6177 0.0
H245 H 0.01719 0.27662 0.62971 0.0
C246 C 0.98225 0.25367 0.62948 0.0
C247 C 0.92515 0.32236 0.74079 0.0
H248 H 0.90608 0.31591 0.72814 0.0
H249 H 0.9049 0.31924 0.75276 0.0
H250 H 0.95221 0.35574 0.74033 0.0
O251 O 0.96455 0.34365 0.70269 0.0
O252 O 0.96277 0.34667 0.67284 0.0
C253 C 0.86015 0.25656 0.6876 0.0
O254 O 0.00889 0.29693 0.66841 0.0
O255 O 0.01056 0.29361 0.6983 0.0
Zn256 Zn 0.74709 0.6802 0.70087 0.0
O257 O 0.76352 0.63191 0.70289 0.0
C258 C 0.66115 0.61652 0.6879 0.0
Zn259 Zn 0.74593 0.6753 0.67046 0.0
C260 C 0.76883 0.61529 0.68853 0.0
O261 O 0.76205 0.62656 0.673 0.0
C262 C 0.72856 0.74335 0.68289 0.0
O263 O 0.81193 0.72008 0.66877 0.0
O264 O 0.81292 0.72539 0.69864 0.0
N265 N 0.74073 0.66659 0.64268 0.0
C266 C 0.75113 0.69353 0.62833 0.0
C267 C 0.71898 0.62988 0.61783 0.0
N268 N 0.72087 0.62713 0.63608 0.0
N269 N 0.73746 0.67117 0.61247 0.0
C270 C 0.73126 0.66162 0.74274 0.0
C271 C 0.77398 0.72291 0.75412 0.0
N272 N 0.75145 0.68844 0.72868 0.0
N273 N 0.77807 0.72645 0.73582 0.0
N274 N 0.74468 0.68256 0.75882 0.0
H275 H 0.70636 0.6018 0.7281 0.0
H276 H 0.70254 0.5968 0.7527 0.0
H277 H 0.66732 0.60948 0.74028 0.0
C278 C 0.7003 0.61463 0.74079 0.0
C279 C 0.77605 0.74139 0.62999 0.0
H280 H 0.79466 0.75154 0.64281 0.0
H281 H 0.7982 0.75573 0.61825 0.0
H282 H 0.75346 0.75385 0.63019 0.0
O283 O 0.73134 0.72515 0.66849 0.0
O284 O 0.73249 0.7298 0.69839 0.0
C285 C 0.83264 0.73584 0.68346 0.0
O286 O 0.68135 0.63396 0.70253 0.0
O287 O 0.68036 0.62909 0.67269 0.0
C288 C 0.45587 0.5501 1.00394 0.0
C289 C 0.47874 0.56138 0.02047 0.0
C290 C 0.41124 0.5262 1.00392 0.0
C291 C 0.31876 0.45339 0.03268 0.0
H292 H 0.25539 0.48006 0.99734 0.0
C293 C 0.13774 0.39771 0.03638 0.0
C294 C 0.11579 0.3914 0.01976 0.0
C295 C 0.18109 0.40959 0.03645 0.0
C296 C 0.27261 0.47163 0.00708 0.0
H297 H 0.47263 0.55742 0.04996 0.0
H298 H 0.39441 0.51659 0.04992 0.0
H299 H 0.33303 0.52229 0.99788 0.0
H300 H 0.12039 0.38694 0.99039 0.0
H301 H 0.19573 0.40701 0.99057 0.0
H302 H 0.25772 0.40342 0.04219 0.0
C303 C 0.41114 0.52542 0.03698 0.0
C304 C 0.31718 0.49597 0.00743 0.0
C305 C 0.45592 0.54919 0.037 0.0
C306 C 0.13657 0.39224 1.0034 0.0
C307 C 0.1798 0.40402 1.00349 0.0
C308 C 0.27397 0.42913 0.0324 0.0
C309 C 0.38833 0.51327 0.02042 0.0
C310 C 0.34083 0.48722 0.02023 0.0
C311 C 0.20303 0.41513 0.01991 0.0
C312 C 0.25049 0.43805 0.01958 0.0
H313 H 0.47244 0.55867 0.99095 0.0
H314 H 0.39476 0.51695 0.99091 0.0
H315 H 0.33608 0.44544 0.04255 0.0
H316 H 0.12258 0.39702 0.04924 0.0
H317 H 0.19813 0.41781 0.04933 0.0
C318 C 0.46661 0.91474 0.03983 0.0
C319 C 0.45617 0.9265 0.02313 0.0
C320 C 0.48958 0.89291 0.04012 0.0
C321 C 0.52059 0.82898 0.01095 0.0
H322 H 0.61162 0.86156 0.04649 0.0
C323 C 0.62813 0.75632 0.00685 0.0
C324 C 0.62862 0.73543 0.02298 0.0
C325 C 0.615 0.78674 0.00721 0.0
C326 C 0.5863 0.85224 0.03651 0.0
H327 H 0.46076 0.92369 0.99366 0.0
H328 H 0.50108 0.88627 0.99419 0.0
H329 H 0.56894 0.89727 0.04665 0.0
H330 H 0.62101 0.73404 0.05238 0.0
H331 H 0.59777 0.787 0.05297 0.0
H332 H 0.53773 0.78403 1.0008 0.0
C333 C 0.49113 0.89333 0.00707 0.0
C334 C 0.56167 0.87238 0.03667 0.0
C335 C 0.46805 0.9149 0.00677 0.0
C336 C 0.62044 0.74912 0.0397 0.0
C337 C 0.60724 0.77959 0.04006 0.0
C338 C 0.54532 0.80917 0.01071 0.0
C339 C 0.5026 0.8825 0.02373 0.0
C340 C 0.52849 0.86088 0.02389 0.0
C341 C 0.60222 0.79691 0.02369 0.0
C342 C 0.57842 0.82056 0.02346 0.0
H343 H 0.45786 0.9232 0.05267 0.0
H344 H 0.49729 0.88435 0.05318 0.0
H345 H 0.49477 0.81875 1.00115 0.0
H346 H 0.6349 0.74702 0.99375 0.0
H347 H 0.6124 0.80045 0.99444 0.0
C348 C 0.26872 0.88593 0.00773 0.0
C349 C 0.28626 0.91017 0.02369 0.0
C350 C 0.23782 0.84259 0.00883 0.0
C351 C 0.21093 0.75394 0.03994 0.0
H352 H 0.1231 0.6884 1.00405 0.0
C353 C 0.11098 0.56835 0.04005 0.0
C354 C 0.10275 0.54807 0.02293 0.0
C355 C 0.13068 0.61294 0.04124 0.0
C356 C 0.14776 0.70632 0.0141 0.0
H357 H 0.28089 0.90941 0.05318 0.0
H358 H 0.22676 0.83373 0.05511 0.0
H359 H 0.1565 0.76636 1.00455 0.0
H360 H 0.11077 0.55883 0.99368 0.0
H361 H 0.14579 0.63657 0.99581 0.0
H362 H 0.20295 0.69404 0.0492 0.0
C363 C 0.23788 0.848 0.04177 0.0
C364 C 0.16668 0.7509 0.01444 0.0
C365 C 0.26877 0.89141 0.04066 0.0
C366 C 0.11647 0.57341 0.00708 0.0
C367 C 0.1361 0.61793 0.00828 0.0
C368 C 0.192 0.70938 0.0396 0.0
C369 C 0.22371 0.82269 0.02592 0.0
C370 C 0.19903 0.77526 0.02715 0.0
C371 C 0.14251 0.6381 0.02534 0.0
C372 C 0.16082 0.68517 0.02644 0.0
H373 H 0.28117 0.89944 0.9944 0.0
H374 H 0.22758 0.82404 0.99634 0.0
H375 H 0.23633 0.7718 0.04969 0.0
H376 H 0.10073 0.54974 0.05252 0.0
H377 H 0.13516 0.62757 0.05458 0.0
C378 C 0.38952 0.1365 0.99998 0.0
C379 C 0.39055 0.11903 0.017 0.0
C380 C 0.40209 0.17987 0.99847 0.0
C381 C 0.43281 0.27935 0.02493 0.0
H382 H 0.52098 0.33253 0.98784 0.0
C383 C 0.56272 0.45615 0.02925 0.0
C384 C 0.57195 0.48067 0.01323 0.0
C385 C 0.53747 0.41162 0.02856 0.0
C386 C 0.49608 0.31821 0.9981 0.0
H387 H 0.40032 0.13202 0.04608 0.0
H388 H 0.42223 0.20735 0.04344 0.0
H389 H 0.47571 0.25486 0.98851 0.0
H390 H 0.56389 0.4775 0.98379 0.0
H391 H 0.51992 0.39957 0.98263 0.0
H392 H 0.45411 0.34276 0.03481 0.0
C393 C 0.41206 0.18783 0.03121 0.0
C394 C 0.46992 0.2737 0.99843 0.0
C395 C 0.39955 0.14453 0.03272 0.0
C396 C 0.5574 0.45952 0.99639 0.0
C397 C 0.53215 0.41489 0.99571 0.0
C398 C 0.45902 0.32385 0.02461 0.0
C399 C 0.4156 0.20642 0.01396 0.0
C400 C 0.43855 0.25373 0.01206 0.0
C401 C 0.52099 0.39062 0.01186 0.0
C402 C 0.4915 0.34365 0.01142 0.0
H403 H 0.38178 0.11748 0.98767 0.0
H404 H 0.40344 0.19311 0.98505 0.0
H405 H 0.4086 0.26494 0.03546 0.0
H406 H 0.57361 0.4714 0.04244 0.0
H407 H 0.53026 0.39364 0.04118 0.0
C408 C 0.56862 0.11311 0.03305 0.0
C409 C 0.54432 0.10252 0.01692 0.0
C410 C 0.61324 0.13433 0.03232 0.0
C411 C 0.70283 0.15608 1.00126 0.0
H412 H 0.76998 0.24224 0.0375 0.0
C413 C 0.88446 0.27904 0.99636 0.0
C414 C 0.9077 0.29205 0.01278 0.0
C415 C 0.84079 0.2486 0.99648 0.0
C416 C 0.75167 0.21768 0.02747 0.0
H417 H 0.54783 0.10734 0.98738 0.0
H418 H 0.62598 0.14559 0.98613 0.0
H419 H 0.69236 0.20784 0.03822 0.0
H420 H 0.90477 0.2793 0.04187 0.0
H421 H 0.82884 0.22593 0.04201 0.0
H422 H 0.76273 0.16718 0.99024 0.0
C423 C 0.61042 0.13647 0.99933 0.0
C424 C 0.70715 0.19805 0.02785 0.0
C425 C 0.56567 0.11497 1.00006 0.0
C426 C 0.88764 0.27051 0.029 0.0
C427 C 0.84408 0.24013 0.02912 0.0
C428 C 0.74756 0.17603 1.00081 0.0
C429 C 0.63468 0.14581 0.01545 0.0
C430 C 0.68215 0.167 0.01477 0.0
C431 C 0.81979 0.23063 0.01303 0.0
C432 C 0.77238 0.20697 0.01395 0.0
H433 H 0.55319 0.10373 0.04627 0.0
H434 H 0.63087 0.14057 0.04499 0.0
H435 H 0.68446 0.13181 0.99115 0.0
H436 H 0.89897 0.29472 0.98362 0.0
H437 H 0.82289 0.24177 0.98385 0.0
C438 C 0.9172 0.47599 0.99889 0.0
C439 C 0.92875 0.46474 0.01544 0.0
C440 C 0.89663 0.50019 0.99887 0.0
C441 C 0.83532 0.53346 0.02854 0.0
H442 H 0.868 0.6238 0.99267 0.0
C443 C 0.76062 0.63929 0.03157 0.0
C444 C 0.73999 0.63905 0.01525 0.0
C445 C 0.79189 0.62723 0.03156 0.0
C446 C 0.85867 0.59873 1.00277 0.0
H447 H 0.92699 0.46931 0.04495 0.0
H448 H 0.8917 0.51175 0.04489 0.0
H449 H 0.90303 0.58052 0.99258 0.0
H450 H 0.73987 0.63141 0.98585 0.0
H451 H 0.79429 0.61015 0.98589 0.0
H452 H 0.79083 0.55124 0.03866 0.0
C453 C 0.89796 0.5015 0.03192 0.0
C454 C 0.87844 0.57373 1.00265 0.0
C455 C 0.91828 0.47717 0.03195 0.0
C456 C 0.75489 0.63157 0.99868 0.0
C457 C 0.78615 0.6194 0.99869 0.0
C458 C 0.81585 0.55853 0.02873 0.0
C459 C 0.88731 0.51372 0.01539 0.0
C460 C 0.86676 0.54063 0.01548 0.0
C461 C 0.80311 0.61477 0.01525 0.0
C462 C 0.82713 0.5913 0.01581 0.0
H463 H 0.9248 0.46685 0.98594 0.0
H464 H 0.88813 0.50839 0.98591 0.0
H465 H 0.82498 0.50776 0.0384 0.0
H466 H 0.75032 0.64551 0.04454 0.0
H467 H 0.80528 0.62498 0.04448 0.0
C468 C 0.80181 0.72696 0.37375 0.0
C469 C 0.78385 0.72558 0.35655 0.0
C470 C 0.84484 0.7382 0.37526 0.0
C471 C 0.942 0.76025 0.34872 0.0
H472 H 4e-05 0.85318 0.38347 0.0
C473 C 0.12047 0.88514 0.34195 0.0
C474 C 0.14555 0.89671 0.35788 0.0
C475 C 0.07592 0.86036 0.343 0.0
C476 C 0.98434 0.82691 0.37389 0.0
H477 H 0.79554 0.72997 0.32735 0.0
H478 H 0.87032 0.7497 0.32998 0.0
H479 H 0.92214 0.81094 0.38351 0.0
H480 H 0.14342 0.89269 0.38746 0.0
H481 H 0.0655 0.84956 0.38927 0.0
H482 H 0.00436 0.77723 0.33875 0.0
C483 C 0.85142 0.74232 0.34233 0.0
C484 C 0.93968 0.80249 0.37396 0.0
C485 C 0.80844 0.73109 0.34083 0.0
C486 C 0.12501 0.88438 0.37493 0.0
C487 C 0.08038 0.85966 0.37598 0.0
C488 C 0.98668 0.78474 0.34862 0.0
C489 C 0.87061 0.74805 0.35959 0.0
C490 C 0.91795 0.7694 0.36116 0.0
C491 C 0.05546 0.84671 0.36 0.0
C492 C 0.00826 0.81887 0.36097 0.0
H493 H 0.78351 0.72212 0.38612 0.0
H494 H 0.8585 0.74133 0.38873 0.0
H495 H 0.92623 0.73465 0.33884 0.0
H496 H 0.13526 0.89419 0.3286 0.0
H497 H 0.05748 0.85165 0.33047 0.0
C498 C 0.1429 0.25545 0.37034 0.0
C499 C 0.1325 0.26722 0.35364 0.0
C500 C 0.16623 0.23397 0.37066 0.0
C501 C 0.1968 0.16976 0.34154 0.0
H502 H 0.28574 0.19933 0.37784 0.0
C503 C 0.29866 0.09034 0.33918 0.0
C504 C 0.29832 0.06987 0.35556 0.0
C505 C 0.28702 0.1219 0.33907 0.0
C506 C 0.26101 0.19083 0.36764 0.0
H507 H 0.13806 0.26534 0.32419 0.0
H508 H 0.17901 0.2285 0.32477 0.0
H509 H 0.24502 0.23707 0.37754 0.0
H510 H 0.29038 0.06997 0.38491 0.0
H511 H 0.26972 0.12486 0.38468 0.0
H512 H 0.21236 0.12341 0.3317 0.0
C513 C 0.16868 0.23522 0.33762 0.0
C514 C 0.23752 0.21217 0.36752 0.0
C515 C 0.14523 0.25644 0.33729 0.0
C516 C 0.2906 0.08484 0.37205 0.0
C517 C 0.27883 0.1164 0.37193 0.0
C518 C 0.22037 0.14869 0.34159 0.0
C519 C 0.1797 0.22395 0.3543 0.0
C520 C 0.20501 0.20171 0.3545 0.0
C521 C 0.2748 0.13359 0.35532 0.0
C522 C 0.25263 0.15886 0.35465 0.0
H523 H 0.13352 0.2633 0.38318 0.0
H524 H 0.17359 0.2251 0.38373 0.0
H525 H 0.17147 0.1603 0.33155 0.0
H526 H 0.30507 0.08 0.32626 0.0
H527 H 0.28519 0.13542 0.32612 0.0
C528 C 0.94096 0.2239 0.37223 0.0
C529 C 0.95798 0.24237 0.35517 0.0
C530 C 0.90961 0.18071 0.37347 0.0
C531 C 0.83642 0.08394 0.3464 0.0
H532 H 0.87109 0.02601 0.38131 0.0
C533 C 0.7827 0.9053 0.33991 0.0
C534 C 0.76847 0.88055 0.3559 0.0
C535 C 0.80297 0.9499 0.34084 0.0
C536 C 0.86061 0.04169 0.37166 0.0
H537 H 0.95211 0.23138 0.3259 0.0
H538 H 0.89787 0.15623 0.32807 0.0
H539 H 0.90622 0.10388 0.38151 0.0
H540 H 0.76602 0.88321 0.38546 0.0
H541 H 0.80162 0.96113 0.38704 0.0
H542 H 0.79162 0.02159 0.33624 0.0
C543 C 0.90865 0.17489 0.34052 0.0
C544 C 0.88053 0.08631 0.37184 0.0
C545 C 0.93994 0.21804 0.33928 0.0
C546 C 0.77663 0.90138 0.37289 0.0
C547 C 0.79701 0.94601 0.3738 0.0
C548 C 0.81655 0.0393 0.3462 0.0
C549 C 0.89467 0.1553 0.35767 0.0
C550 C 0.86916 0.10796 0.35901 0.0
C551 C 0.80956 0.97064 0.35776 0.0
C552 C 0.829 0.0178 0.35862 0.0
H553 H 0.95367 0.242 0.38471 0.0
H554 H 0.89865 0.16667 0.38685 0.0
H555 H 0.82665 0.09971 0.33648 0.0
H556 H 0.77697 0.89023 0.32661 0.0
H557 H 0.81313 0.96817 0.32827 0.0
C558 C 0.22225 0.78882 0.36674 0.0
C559 C 0.23488 0.8123 0.35039 0.0
C560 C 0.19748 0.74423 0.36641 0.0
C561 C 0.12399 0.65466 0.33646 0.0
H562 H 0.14262 0.58619 0.37214 0.0
C563 C 0.06186 0.47261 0.33149 0.0
C564 C 0.05337 0.44971 0.34796 0.0
C565 C 0.07475 0.5162 0.33168 0.0
C566 C 0.13643 0.6049 0.3623 0.0
H567 H 0.23311 0.80728 0.32084 0.0
H568 H 0.19092 0.7292 0.32028 0.0
H569 H 0.1883 0.66355 0.37238 0.0
H570 H 0.04549 0.45279 0.37719 0.0
H571 H 0.06732 0.52858 0.37745 0.0
H572 H 0.07284 0.59535 0.32605 0.0
C573 C 0.19918 0.7454 0.33336 0.0
C574 C 0.16276 0.64928 0.3624 0.0
C575 C 0.22378 0.7901 0.33368 0.0
C576 C 0.05254 0.46973 0.3643 0.0
C577 C 0.06532 0.51321 0.36448 0.0
C578 C 0.09777 0.61006 0.33628 0.0
C579 C 0.18506 0.72202 0.34972 0.0
C580 C 0.15698 0.67473 0.34946 0.0
C581 C 0.07905 0.53737 0.34833 0.0
C582 C 0.10378 0.58477 0.34921 0.0
H583 H 0.22999 0.80493 0.37984 0.0
H584 H 0.18683 0.72731 0.37927 0.0
H585 H 0.11823 0.67341 0.32649 0.0
H586 H 0.06243 0.45802 0.31863 0.0
H587 H 0.08492 0.53399 0.319 0.0
C588 C 0.23425 0.45279 0.33046 0.0
C589 C 0.21225 0.4426 0.3472 0.0
C590 C 0.27903 0.47423 0.3301 0.0
C591 C 0.37489 0.53841 0.35886 0.0
H592 H 0.43032 0.49902 0.32477 0.0
C593 C 0.55352 0.60362 0.36405 0.0
C594 C 0.5755 0.62353 0.34789 0.0
C595 C 0.50973 0.57417 0.36362 0.0
C596 C 0.41517 0.51022 0.33435 0.0
H597 H 0.22 0.44843 0.37664 0.0
H598 H 0.29762 0.48514 0.376 0.0
H599 H 0.35224 0.46654 0.32435 0.0
H600 H 0.57013 0.62358 0.3184 0.0
H601 H 0.49354 0.57229 0.31768 0.0
H602 H 0.43754 0.58189 0.36891 0.0
C603 C 0.28053 0.47709 0.36314 0.0
C604 C 0.37059 0.49197 0.33403 0.0
C605 C 0.23591 0.45591 0.3635 0.0
C606 C 0.554 0.60934 0.3311 0.0
C607 C 0.51009 0.57983 0.33068 0.0
C608 C 0.41923 0.5563 0.35928 0.0
C609 C 0.30261 0.48583 0.34646 0.0
C610 C 0.34998 0.50591 0.3463 0.0
C611 C 0.48719 0.56398 0.34703 0.0
C612 C 0.43984 0.54238 0.34708 0.0
H613 H 0.21691 0.44303 0.31766 0.0
H614 H 0.29514 0.48124 0.31701 0.0
H615 H 0.3602 0.55049 0.36825 0.0
H616 H 0.56929 0.61326 0.3772 0.0
H617 H 0.49294 0.56151 0.37639 0.0
C618 C 0.42334 0.96224 0.36397 0.0
C619 C 0.40468 0.96788 0.34812 0.0
C620 C 0.45473 0.95045 0.36268 0.0
C621 C 0.48271 0.88949 0.33132 0.0
H622 H 0.57148 0.91363 0.36699 0.0
C623 C 0.58641 0.80786 0.33045 0.0
C624 C 0.59437 0.79509 0.34745 0.0
C625 C 0.56625 0.83236 0.32947 0.0
C626 C 0.54659 0.90641 0.357 0.0
H627 H 0.4084 0.97114 0.31858 0.0
H628 H 0.46358 0.95104 0.31633 0.0
H629 H 0.53637 0.95666 0.36673 0.0
H630 H 0.58588 0.79664 0.37673 0.0
H631 H 0.55021 0.83888 0.37497 0.0
H632 H 0.49235 0.83874 0.32183 0.0
C633 C 0.45291 0.95439 0.32973 0.0
C634 C 0.52665 0.93116 0.3568 0.0
C635 C 0.42145 0.96616 0.33103 0.0
C636 C 0.58031 0.80599 0.36341 0.0
C637 C 0.5603 0.83061 0.36242 0.0
C638 C 0.50274 0.86484 0.3315 0.0
C639 C 0.4683 0.94433 0.34552 0.0
C640 C 0.49392 0.92248 0.34417 0.0
C641 C 0.55376 0.8447 0.34547 0.0
C642 C 0.5343 0.8725 0.34456 0.0
H643 H 0.41143 0.96361 0.37738 0.0
H644 H 0.46584 0.94296 0.37513 0.0
H645 H 0.45706 0.88137 0.32163 0.0
H646 H 0.59691 0.80004 0.3179 0.0
H647 H 0.56171 0.84281 0.31621 0.0
C648 C 0.79138 0.22707 0.70504 0.0
C649 C 0.81308 0.237 0.68823 0.0
C650 C 0.74667 0.2031 0.70561 0.0
C651 C 0.64995 0.16649 0.67688 0.0
H652 H 0.59592 0.07867 0.71405 0.0
C653 C 0.47015 0.05659 0.6756 0.0
C654 C 0.45027 0.05834 0.69184 0.0
C655 C 0.51367 0.06953 0.67545 0.0
C656 C 0.61067 0.10302 0.70359 0.0
H657 H 0.80483 0.23065 0.65883 0.0
H658 H 0.72719 0.18853 0.65982 0.0
H659 H 0.67405 0.12324 0.71327 0.0
H660 H 0.45904 0.0694 0.72102 0.0
H661 H 0.53502 0.0921 0.72073 0.0
H662 H 0.58682 0.14651 0.66722 0.0
C663 C 0.74451 0.19965 0.67258 0.0
C664 C 0.6553 0.12878 0.70322 0.0
C665 C 0.78912 0.22381 0.67201 0.0
C666 C 0.47345 0.06811 0.70827 0.0
C667 C 0.51707 0.0811 0.70811 0.0
C668 C 0.60553 0.1406 0.67717 0.0
C669 C 0.72277 0.18843 0.68938 0.0
C670 C 0.67541 0.16098 0.6899 0.0
C671 C 0.53801 0.08429 0.69152 0.0
C672 C 0.58539 0.1087 0.69054 0.0
H673 H 0.80895 0.23687 0.71779 0.0
H674 H 0.73085 0.19576 0.71876 0.0
H675 H 0.66426 0.19146 0.66665 0.0
H676 H 0.45303 0.04854 0.66274 0.0
H677 H 0.52888 0.0707 0.66254 0.0
C678 C 0.96248 0.42419 0.67351 0.0
C679 C 0.96887 0.40616 0.68939 0.0
C680 C 0.9501 0.45513 0.67476 0.0
C681 C 0.88775 0.48083 0.70606 0.0
H682 H 0.90905 0.56881 0.67042 0.0
C683 C 0.80097 0.57969 0.7068 0.0
C684 C 0.78867 0.58804 0.68977 0.0
C685 C 0.82604 0.56016 0.70781 0.0
C686 C 0.90258 0.54411 0.68039 0.0
H687 H 0.97337 0.41098 0.71889 0.0
H688 H 0.95195 0.46522 0.72108 0.0
H689 H 0.95428 0.53612 0.67075 0.0
H690 H 0.79116 0.5804 0.66048 0.0
H691 H 0.83425 0.54565 0.66229 0.0
H692 H 0.83547 0.48808 0.71543 0.0
C693 C 0.95519 0.45437 0.70769 0.0
C694 C 0.92864 0.5256 0.68064 0.0
C695 C 0.96763 0.42341 0.70643 0.0
C696 C 0.8002 0.57456 0.67382 0.0
C697 C 0.82531 0.55511 0.67483 0.0
C698 C 0.86175 0.49937 0.70582 0.0
C699 C 0.94411 0.46884 0.69191 0.0
C700 C 0.92102 0.4932 0.69327 0.0
C701 C 0.83934 0.54862 0.69181 0.0
C702 C 0.86837 0.5306 0.69276 0.0
H703 H 0.96358 0.41197 0.66012 0.0
H704 H 0.94189 0.46562 0.66231 0.0
H705 H 0.88046 0.45537 0.71575 0.0
H706 H 0.79268 0.58974 0.71935 0.0
H707 H 0.83638 0.55561 0.72109 0.0
C708 C 0.60237 0.55168 0.6728 0.0
C709 C 0.6194 0.57633 0.6887 0.0
C710 C 0.57104 0.50851 0.67401 0.0
C711 C 0.54294 0.42128 0.70599 0.0
H712 H 0.45714 0.35378 0.66968 0.0
C713 C 0.44409 0.23603 0.70781 0.0
C714 C 0.43654 0.21463 0.69099 0.0
C715 C 0.46347 0.28063 0.70843 0.0
C716 C 0.48125 0.37226 0.67984 0.0
H717 H 0.61244 0.57673 0.71809 0.0
H718 H 0.5575 0.50137 0.7202 0.0
H719 H 0.49005 0.43174 0.66949 0.0
H720 H 0.44533 0.22343 0.66168 0.0
H721 H 0.4799 0.30132 0.66281 0.0
H722 H 0.53498 0.36202 0.71607 0.0
C723 C 0.56941 0.51512 0.70685 0.0
C724 C 0.49985 0.41682 0.6798 0.0
C725 C 0.60077 0.55835 0.70563 0.0
C726 C 0.45059 0.23891 0.67486 0.0
C727 C 0.46992 0.2835 0.67548 0.0
C728 C 0.52434 0.37677 0.70604 0.0
C729 C 0.55597 0.48925 0.69114 0.0
C730 C 0.53143 0.44187 0.69269 0.0
C731 C 0.47571 0.30474 0.69224 0.0
C732 C 0.49387 0.35184 0.69277 0.0
H733 H 0.61569 0.56463 0.6595 0.0
H734 H 0.56134 0.48954 0.66163 0.0
H735 H 0.5678 0.43967 0.71589 0.0
H736 H 0.43358 0.21827 0.72049 0.0
H737 H 0.46741 0.29607 0.72154 0.0
C738 C 0.73458 0.8088 0.69746 0.0
C739 C 0.72885 0.78446 0.68162 0.0
C740 C 0.74612 0.8519 0.69615 0.0
C741 C 0.80622 0.94099 0.6649 0.0
H742 H 0.77949 0.0045 0.70017 0.0
C743 C 0.88546 0.12597 0.66393 0.0
C744 C 0.89746 0.14669 0.68096 0.0
C745 C 0.86132 0.08131 0.66293 0.0
C746 C 0.78744 0.98716 0.69029 0.0
H747 H 0.72573 0.78486 0.65206 0.0
H748 H 0.74551 0.86006 0.64979 0.0
H749 H 0.73783 0.92631 0.69994 0.0
H750 H 0.89485 0.13671 0.71026 0.0
H751 H 0.85332 0.05883 0.70847 0.0
H752 H 0.8564 0.00174 0.65551 0.0
C753 C 0.74223 0.84608 0.6632 0.0
C754 C 0.76347 0.94244 0.69011 0.0
C755 C 0.73067 0.80293 0.66451 0.0
C756 C 0.88606 0.12177 0.69693 0.0
C757 C 0.86186 0.07716 0.69592 0.0
C758 C 0.83012 0.98569 0.66506 0.0
C759 C 0.75199 0.87148 0.67899 0.0
C760 C 0.7731 0.91883 0.67763 0.0
C761 C 0.84863 0.05649 0.67893 0.0
C762 C 0.82152 0.0092 0.67798 0.0
H763 H 0.73316 0.79551 0.71088 0.0
H764 H 0.75347 0.87053 0.70859 0.0
H765 H 0.81501 0.92379 0.65532 0.0
H766 H 0.89365 0.14425 0.65137 0.0
H767 H 0.8515 0.06629 0.64965 0.0
C768 C 0.90243 0.77371 0.66661 0.0
C769 C 0.87979 0.7626 0.68319 0.0
C770 C 0.94722 0.79531 0.66655 0.0
C771 C 0.04108 0.86045 0.69601 0.0
H772 H 0.10118 0.82819 0.66119 0.0
C773 C 0.22158 0.93705 0.70041 0.0
C774 C 0.24265 0.95743 0.68416 0.0
C775 C 0.17833 0.90579 0.70016 0.0
C776 C 0.08473 0.83742 0.67098 0.0
H777 H 0.88635 0.76601 0.7127 0.0
H778 H 0.96405 0.80301 0.71259 0.0
H779 H 0.02279 0.79138 0.66079 0.0
H780 H 0.23631 0.9572 0.65471 0.0
H781 H 0.16065 0.9028 0.6543 0.0
H782 H 0.1027 0.90651 0.70617 0.0
C783 C 0.94742 0.79568 0.69962 0.0
C784 C 0.03995 0.81663 0.67069 0.0
C785 C 0.90279 0.77435 0.69968 0.0
C786 C 0.22089 0.94248 0.66747 0.0
C787 C 0.17752 0.91119 0.66723 0.0
C788 C 0.08563 0.88093 0.69639 0.0
C789 C 0.97017 0.80611 0.68307 0.0
C790 C 0.01767 0.82806 0.68318 0.0
C791 C 0.15537 0.89428 0.68366 0.0
C792 C 0.10796 0.86971 0.68388 0.0
H793 H 0.88559 0.76511 0.65368 0.0
H794 H 0.96385 0.80355 0.65358 0.0
H795 H 0.02502 0.87064 0.70558 0.0
H796 H 0.2376 0.94735 0.71349 0.0
H797 H 0.16219 0.89246 0.71299 0.0
C798 C 0.25508 0.14288 0.66543 0.0
C799 C 0.26309 0.13051 0.68251 0.0
C800 C 0.23493 0.16735 0.66429 0.0
C801 C 0.21445 0.24138 0.69147 0.0
H802 H 0.12484 0.21476 0.65593 0.0
C803 C 0.08854 0.29374 0.6979 0.0
C804 C 0.07031 0.29952 0.68196 0.0
C805 C 0.12048 0.2827 0.69677 0.0
C806 C 0.1505 0.22331 0.66566 0.0
H807 H 0.25482 0.13277 0.71176 0.0
H808 H 0.21903 0.17487 0.70973 0.0
H809 H 0.16097 0.17296 0.65639 0.0
H810 H 0.07494 0.30345 0.65242 0.0
H811 H 0.13106 0.28456 0.65047 0.0
H812 H 0.20321 0.29111 0.70102 0.0
C813 C 0.22913 0.16636 0.69725 0.0
C814 C 0.17103 0.19916 0.66598 0.0
C815 C 0.24919 0.14184 0.69839 0.0
C816 C 0.08779 0.29846 0.66494 0.0
C817 C 0.11977 0.28741 0.66381 0.0
C818 C 0.19395 0.26559 0.69113 0.0
C819 C 0.22244 0.17998 0.68021 0.0
C820 C 0.20262 0.20739 0.67911 0.0
C821 C 0.13494 0.27741 0.67968 0.0
C822 C 0.1612 0.2563 0.67844 0.0
H823 H 0.26548 0.13475 0.65293 0.0
H824 H 0.2303 0.17747 0.65097 0.0
H825 H 0.23934 0.24902 0.70151 0.0
H826 H 0.07605 0.29464 0.71124 0.0
H827 H 0.13142 0.27518 0.70926 0.0
C828 C 0.10108 0.38954 0.251 0.0
C829 C 0.06676 0.35376 0.2594 0.0
C830 C 0.09741 0.40056 0.23298 0.0
C831 C 0.01528 0.37996 0.19734 0.0
H832 H 0.10969 0.41621 0.16333 0.0
C833 C 0.98979 0.36515 0.12007 0.0
C834 C 0.01566 0.40122 0.10924 0.0
C835 C -0.00092 0.36412 0.13848 0.0
C836 C 0.08326 0.40661 0.17276 0.0
H837 H 0.00228 0.30099 0.25536 0.0
H838 H -0.00383 0.31918 0.22403 0.0
H839 H 0.12013 0.40585 0.19559 0.0
H840 H 0.07116 0.46522 0.10968 0.0
H841 H 0.08853 0.4626 0.14181 0.0
H842 H 0.978 0.37905 0.17441 0.0
C843 C 0.0255 0.33972 0.23139 0.0
C844 C 0.08921 0.40078 0.19124 0.0
C845 C 0.02912 0.32894 0.24932 0.0
C846 C 0.05146 0.43629 0.11733 0.0
C847 C 0.06116 0.43501 0.13581 0.0
C848 C 0.00926 0.38528 0.17892 0.0
C849 C 0.05944 0.37581 0.22296 0.0
C850 C 0.05496 0.38645 0.20369 0.0
C851 C 0.03466 0.39909 0.14659 0.0
C852 C 0.04289 0.39783 0.16637 0.0
H853 H 0.13104 0.40844 0.25813 0.0
H854 H 0.12425 0.4285 0.22693 0.0
H855 H 0.9885 0.37009 0.20658 0.0
H856 H 0.96206 0.3376 0.11427 0.0
H857 H 0.97835 0.33581 0.1464 0.0
C858 C 0.7021 0.75811 0.24567 0.0
C859 C 0.67598 0.73257 0.26005 0.0
C860 C 0.69175 0.74514 0.22751 0.0
C861 C 0.62215 0.64781 0.19924 0.0
H862 H 0.66437 0.73208 0.16047 0.0
C863 C 0.62066 0.59797 0.12434 0.0
C864 C 0.61957 0.62353 0.11009 0.0
C865 C 0.62352 0.61074 0.14255 0.0
C866 C 0.65138 0.70783 0.17101 0.0
H867 H 0.619 0.67181 0.26616 0.0
H868 H 0.59848 0.65155 0.23482 0.0
H869 H 0.67414 0.75562 0.19181 0.0
H870 H 0.62242 0.684 0.10423 0.0
H871 H 0.62257 0.70388 0.13565 0.0
H872 H 0.59665 0.60001 0.17845 0.0
C873 C 0.62781 0.68128 0.23748 0.0
C874 C 0.65795 0.72151 0.18919 0.0
C875 C 0.63893 0.69368 0.25568 0.0
C876 C 0.62094 0.66214 0.11462 0.0
C877 C 0.62245 0.67433 0.13287 0.0
C878 C 0.61442 0.63413 0.18106 0.0
C879 C 0.65438 0.70646 0.22307 0.0
C880 C 0.64429 0.69177 0.20363 0.0
C881 C 0.62454 0.64923 0.14715 0.0
C882 C 0.62971 0.66388 0.16661 0.0
H883 H 0.73121 0.78797 0.24851 0.0
H884 H 0.71393 0.76514 0.21705 0.0
H885 H 0.61149 0.62357 0.20977 0.0
H886 H 0.62027 0.56832 0.12138 0.0
H887 H 0.6262 0.5908 0.1529 0.0
C888 C 0.35248 0.97947 0.11585 0.0
C889 C 0.3963 0.00518 0.11191 0.0
C890 C 0.33849 0.96858 0.13389 0.0
C891 C 0.37467 0.96325 0.1807 0.0
H892 H 0.27746 0.97467 0.19542 0.0
C893 C 0.33093 0.96724 0.2565 0.0
C894 C 0.28739 0.94821 0.26115 0.0
C895 C 0.34344 0.9702 0.23822 0.0
C896 C 0.3042 0.97057 0.19153 0.0
H897 H 0.45977 0.03977 0.12366 0.0
H898 H 0.43551 0.02085 0.15527 0.0
H899 H 0.30049 0.98647 0.1637 0.0
H900 H 0.22285 0.91717 0.25046 0.0
H901 H 0.24436 0.92136 0.21854 0.0
H902 H 0.37849 0.94754 0.20858 0.0
C903 C 0.41195 0.00849 0.14441 0.0
C904 C 0.31744 0.97742 0.1733 0.0
C905 C 0.42587 0.01954 0.12637 0.0
C906 C 0.2566 0.93182 0.24719 0.0
C907 C 0.26901 0.93454 0.22893 0.0
C908 C 0.36129 0.9562 0.19894 0.0
C909 C 0.36803 0.98329 0.14841 0.0
C910 C 0.35299 0.97411 0.16768 0.0
C911 C 0.31265 0.95431 0.22417 0.0
C912 C 0.32602 0.96003 0.20462 0.0
H913 H 0.32887 0.96907 0.10506 0.0
H914 H 0.30446 0.94898 0.13649 0.0
H915 H 0.40187 0.95997 0.17677 0.0
H916 H 0.3554 0.98143 0.26692 0.0
H917 H 0.37734 0.98638 0.23508 0.0
C918 C 0.38697 0.04998 0.92478 0.0
C919 C 0.40501 0.02419 0.92874 0.0
C920 C 0.38386 0.06079 0.90672 0.0
C921 C 0.42507 0.06551 0.8599 0.0
H922 H 0.31629 0.05365 0.84514 0.0
C923 C 0.3766 0.05917 0.78411 0.0
C924 C 0.35206 0.07808 0.77929 0.0
C925 C 0.38629 0.05677 0.80242 0.0
C926 C 0.34717 0.05787 0.84905 0.0
H927 H 0.4338 0.98944 0.91704 0.0
H928 H 0.42844 0.00822 0.88543 0.0
H929 H 0.32783 0.04263 0.87693 0.0
H930 H 0.3186 0.10945 0.7897 0.0
H931 H 0.33613 0.10619 0.82169 0.0
H932 H 0.44432 0.08053 0.83197 0.0
C933 C 0.4173 0.02069 0.89627 0.0
C934 C 0.35375 0.05148 0.86731 0.0
C935 C 0.42018 0.00972 0.91432 0.0
C936 C 0.33771 0.09487 0.7931 0.0
C937 C 0.34754 0.0927 0.8114 0.0
C938 C 0.41856 0.0721 0.84162 0.0
C939 C 0.39861 0.04593 0.89223 0.0
C940 C 0.39265 0.05491 0.87294 0.0
C941 C 0.3715 0.07312 0.81634 0.0
C942 C 0.37938 0.06806 0.83593 0.0
H943 H 0.37382 0.06048 0.93555 0.0
H944 H 0.36944 0.08042 0.90409 0.0
H945 H 0.45559 0.06889 0.86384 0.0
H946 H 0.38685 0.0447 0.7738 0.0
H947 H 0.40406 0.0407 0.8057 0.0
C948 C 0.02307 0.43806 0.91155 0.0
C949 C 0.00839 0.40757 0.92562 0.0
C950 C 0.01305 0.42529 0.89333 0.0
C951 C 0.94095 0.33267 0.86377 0.0
H952 H 0.03146 0.39145 0.82814 0.0
C953 C 0.93693 0.26555 0.79142 0.0
C954 C 0.95209 0.29474 0.77684 0.0
C955 C 0.94051 0.28001 0.80941 0.0
C956 C 0.0056 0.37505 0.83785 0.0
H957 H 0.97291 0.3397 0.93164 0.0
H958 H 0.95538 0.31715 0.8999 0.0
H959 H 0.04361 0.41538 0.85975 0.0
H960 H 0.98415 0.36204 0.76971 0.0
H961 H 0.9897 0.38741 0.80104 0.0
H962 H 0.90334 0.29174 0.84182 0.0
C963 C 0.97352 0.3511 0.90291 0.0
C964 C 0.01254 0.38882 0.85602 0.0
C965 C 0.98339 0.36397 0.92114 0.0
C966 C 0.97094 0.33873 0.7806 0.0
C967 C 0.97474 0.35326 0.79859 0.0
C968 C 0.93408 0.31876 0.8456 0.0
C969 C 0.98858 0.38157 0.88874 0.0
C970 C 0.98039 0.36773 0.86925 0.0
C971 C 0.95992 0.3241 0.81323 0.0
C972 C 0.9664 0.33969 0.83244 0.0
H973 H 0.04256 0.47185 0.9147 0.0
H974 H 0.02471 0.44972 0.88284 0.0
H975 H 0.91523 0.31603 0.87352 0.0
H976 H 0.92273 0.23152 0.78885 0.0
H977 H 0.9293 0.25673 0.82038 0.0
C978 C 0.75942 0.67922 0.79142 0.0
C979 C 0.72989 0.6678 0.77706 0.0
C980 C 0.74524 0.66826 0.80943 0.0
C981 C 0.7042 0.62327 0.8456 0.0
H982 H 0.61934 0.6532 0.86085 0.0
C983 C 0.62798 0.59069 0.91843 0.0
C984 C 0.62782 0.62606 0.92648 0.0
C985 C 0.63965 0.59206 0.90007 0.0
C986 C 0.64298 0.64458 0.85678 0.0
H987 H 0.66249 0.63676 0.77022 0.0
H988 H 0.63751 0.61736 0.80168 0.0
H989 H 0.64093 0.66101 0.82887 0.0
H990 H 0.63924 0.69023 0.92153 0.0
H991 H 0.65878 0.69233 0.88955 0.0
H992 H 0.70654 0.60745 0.87368 0.0
C993 C 0.67165 0.63433 0.799 0.0
C994 C 0.65507 0.6487 0.83845 0.0
C995 C 0.68587 0.64493 0.78099 0.0
C996 C 0.63904 0.66248 0.91573 0.0
C997 C 0.65015 0.66367 0.89741 0.0
C998 C 0.69168 0.61864 0.86394 0.0
C999 C 0.70119 0.64631 0.81344 0.0
C1000 C 0.68623 0.63866 0.83269 0.0
C1001 C 0.65045 0.62846 0.88936 0.0
C1002 C 0.66146 0.62996 0.86975 0.0
H1003 H 0.7935 0.69719 0.78867 0.0
H1004 H 0.76876 0.6784 0.82028 0.0
H1005 H 0.72812 0.61506 0.84152 0.0
H1006 H 0.61792 0.56153 0.92605 0.0
H1007 H 0.63908 0.56425 0.89411 0.0
C1008 C 0.72205 0.7368 0.44815 0.0
C1009 C 0.68524 0.73904 0.4437 0.0
C1010 C 0.73307 0.73565 0.46637 0.0
C1011 C 0.70276 0.74622 0.51463 0.0
H1012 H 0.76352 0.68552 0.52551 0.0
C1013 C 0.73793 0.7223 0.58935 0.0
C1014 C 0.73919 0.68495 0.59377 0.0
C1015 C 0.7368 0.73337 0.57112 0.0
C1016 C 0.74588 0.70199 0.52286 0.0
H1017 H 0.63034 0.74009 0.45515 0.0
H1018 H 0.64737 0.73466 0.48665 0.0
H1019 H 0.74916 0.69447 0.49418 0.0
H1020 H 0.73875 0.62931 0.58229 0.0
H1021 H 0.73346 0.64651 0.55084 0.0
H1022 H 0.69593 0.7502 0.54334 0.0
C1023 C 0.66949 0.73647 0.47623 0.0
C1024 C 0.73844 0.70809 0.50467 0.0
C1025 C 0.65927 0.73902 0.45804 0.0
C1026 C 0.73841 0.65863 0.57943 0.0
C1027 C 0.73594 0.66893 0.56126 0.0
C1028 C 0.709 0.73892 0.53283 0.0
C1029 C 0.70661 0.73474 0.48074 0.0
C1030 C 0.71649 0.73008 0.50022 0.0
C1031 C 0.73506 0.70651 0.55675 0.0
C1032 C 0.73041 0.7164 0.53728 0.0
H1033 H 0.74185 0.73443 0.43772 0.0
H1034 H 0.76224 0.73494 0.46907 0.0
H1035 H 0.68674 0.7643 0.51198 0.0
H1036 H 0.73626 0.74247 0.5998 0.0
H1037 H 0.73675 0.76287 0.56841 0.0
C1038 C 0.29183 0.93627 0.45908 0.0
C1039 C 0.29133 0.96225 0.44487 0.0
C1040 C 0.29426 0.94863 0.47732 0.0
C1041 C 0.32174 0.04493 0.50627 0.0
H1042 H 0.27976 0.95926 0.54449 0.0
C1043 C 0.37049 0.0922 0.58134 0.0
C1044 C 0.3439 0.06631 0.59554 0.0
C1045 C 0.3605 0.07993 0.56309 0.0
C1046 C 0.29102 0.98389 0.53411 0.0
H1047 H 0.29486 0.02308 0.43914 0.0
H1048 H 0.2945 0.04242 0.47066 0.0
H1049 H 0.26593 0.93688 0.513 0.0
H1050 H 0.28634 0.00572 0.60122 0.0
H1051 H 0.26655 0.98663 0.56972 0.0
H1052 H 0.34414 0.09197 0.52739 0.0
C1053 C 0.29415 0.01278 0.46779 0.0
C1054 C 0.28386 0.97089 0.51584 0.0
C1055 C 0.29299 0.00095 0.44949 0.0
C1056 C 0.30669 0.02781 0.59089 0.0
C1057 C 0.29597 0.0161 0.57259 0.0
C1058 C 0.32777 0.05794 0.52455 0.0
C1059 C 0.29547 0.98713 0.48203 0.0
C1060 C 0.29994 0.00114 0.50158 0.0
C1061 C 0.32303 0.04163 0.55836 0.0
C1062 C 0.31338 0.02768 0.53881 0.0
H1063 H 0.29117 0.90651 0.45606 0.0
H1064 H 0.29641 0.92829 0.48763 0.0
H1065 H 0.33526 0.06954 0.49589 0.0
H1066 H 0.39971 0.12179 0.58438 0.0
H1067 H 0.38305 0.10017 0.55278 0.0
C1068 C 0.00097 0.2921 0.58887 0.0
C1069 C 0.96211 0.29025 0.59334 0.0
C1070 C 0.01306 0.29318 0.57062 0.0
C1071 C 0.9718 0.28239 0.52241 0.0
H1072 H 0.09302 0.34325 0.51121 0.0
C1073 C 0.02964 0.30588 0.44751 0.0
C1074 C 0.06798 0.34334 0.44296 0.0
C1075 C 0.01783 0.2949 0.46578 0.0
C1076 C 0.05896 0.3267 0.51395 0.0
H1077 H 0.90635 0.28963 0.5819 0.0
H1078 H 0.92856 0.29471 0.55041 0.0
H1079 H 0.07013 0.33431 0.54264 0.0
H1080 H 0.12314 0.39925 0.45426 0.0
H1081 H 0.10135 0.38213 0.48581 0.0
H1082 H 0.96057 0.27818 0.49373 0.0
C1083 C 0.94884 0.29279 0.56082 0.0
C1084 C 0.04568 0.32064 0.53219 0.0
C1085 C 0.93622 0.29044 0.57901 0.0
C1086 C 0.09368 0.36985 0.45723 0.0
C1087 C 0.08131 0.3596 0.47545 0.0
C1088 C 0.98505 0.28957 0.50417 0.0
C1089 C 0.98753 0.29422 0.55627 0.0
C1090 C 0.00183 0.29866 0.53676 0.0
C1091 C 0.04309 0.32194 0.48008 0.0
C1092 C 0.02889 0.31216 0.4996 0.0
H1093 H 0.02303 0.29421 0.59931 0.0
H1094 H 0.04283 0.29371 0.56788 0.0
H1095 H 0.93776 0.2643 0.52516 0.0
H1096 H 0.0077 0.28554 0.43712 0.0
H1097 H 0.98846 0.26533 0.46858 0.0
loop_
_geom_bond_atom_site_label_1
_geom_bond_atom_site_label_2
_geom_bond_distance
_geom_bond_site_symmetry_2
_ccdc_geom_bond_type
Zn0 O1 2.055 . S
Zn0 O8 2.046 1_455 S
Zn0 N16 2.036 . S
Zn0 O28 2.053 1_455 S
Zn0 O30 2.066 . S
O1 Zn0 2.055 . S
O1 C4 1.259 . S
C2 O30 1.256 . S
C2 O31 1.218 1_554 S
Zn3 O5 2.046 . S
Zn3 O7 2.055 1_455 S
Zn3 N9 2.036 . S
Zn3 O27 2.066 1_455 S
Zn3 O31 2.061 . S
C4 O1 1.259 . S
C4 O5 1.254 1_554 S
O5 Zn3 2.046 . S
O5 C4 1.254 1_556 S
C6 O27 1.256 1_554 S
C6 O28 1.244 . S
O7 Zn3 2.055 1_655 S
O7 C29 1.259 1_556 S
O8 Zn0 2.046 1_655 S
O8 C29 1.254 . S
N9 Zn3 2.036 . S
N9 C10 1.298 1_455 S
N9 N12 1.398 . S
C10 N9 1.298 1_655 S
C10 N13 1.367 . S
C10 C23 1.481 . S
C11 N12 1.299 . S
C11 N13 1.379 1_455 S
N12 N9 1.398 . S
N12 C11 1.299 . S
N13 C10 1.367 . S
N13 C11 1.379 1_655 S
C14 N16 1.298 . S
C14 N18 1.367 . S
C14 C22 1.481 . S
C15 N17 1.299 . S
C15 N18 1.379 1_655 S
N16 Zn0 2.036 . S
N16 C14 1.298 . S
N16 N17 1.398 1_455 S
N17 C15 1.299 . S
N17 N16 1.398 1_655 S
N18 C14 1.367 . S
N18 C15 1.379 1_455 S
H19 C22 0.980 . S
H20 C22 0.981 . S
H21 C22 0.981 . S
C22 C14 1.481 . S
C22 H19 0.980 . S
C22 H20 0.981 . S
C22 H21 0.981 . S
C23 C10 1.481 . S
C23 H24 0.980 . S
C23 H25 0.981 . S
C23 H26 0.981 . S
H24 C23 0.980 . S
H25 C23 0.981 . S
H26 C23 0.981 . S
O27 Zn3 2.066 1_655 S
O27 C6 1.256 1_556 S
O28 Zn0 2.053 1_655 S
O28 C6 1.244 . S
C29 O7 1.259 1_554 S
C29 O8 1.254 . S
O30 Zn0 2.066 . S
O30 C2 1.256 . S
O31 C2 1.218 1_556 S
O31 Zn3 2.061 . S
Zn32 O33 2.055 . S
Zn32 O40 2.046 . S
Zn32 N48 2.036 . S
Zn32 O60 2.053 . S
Zn32 O62 2.066 . S
O33 Zn32 2.055 . S
O33 C36 1.259 . S
C34 O62 1.256 . S
C34 O63 1.219 1_554 S
Zn35 O37 2.046 . S
Zn35 O39 2.055 . S
Zn35 N41 2.036 . S
Zn35 O59 2.066 . S
Zn35 O63 2.061 . S
C36 O33 1.259 . S
C36 O37 1.254 1_554 S
O37 Zn35 2.046 . S
O37 C36 1.254 1_556 S
C38 O59 1.256 1_554 S
C38 O60 1.244 . S
O39 Zn35 2.055 . S
O39 C61 1.259 1_556 S
O40 Zn32 2.046 . S
O40 C61 1.254 . S
N41 Zn35 2.036 . S
N41 C42 1.298 . S
N41 N44 1.398 . S
C42 N41 1.298 . S
C42 N45 1.367 . S
C42 C55 1.481 . S
C43 N44 1.299 . S
C43 N45 1.379 . S
N44 N41 1.398 . S
N44 C43 1.299 . S
N45 C42 1.367 . S
N45 C43 1.379 . S
C46 N48 1.298 . S
C46 N50 1.367 . S
C46 C54 1.481 . S
C47 N49 1.299 . S
C47 N50 1.379 . S
N48 Zn32 2.036 . S
N48 C46 1.298 . S
N48 N49 1.398 . S
N49 C47 1.299 . S
N49 N48 1.398 . S
N50 C46 1.367 . S
N50 C47 1.379 . S
H51 C54 0.980 . S
H52 C54 0.981 . S
H53 C54 0.981 . S
C54 C46 1.481 . S
C54 H51 0.980 . S
C54 H52 0.981 . S
C54 H53 0.981 . S
C55 C42 1.481 . S
C55 H56 0.980 . S
C55 H57 0.981 . S
C55 H58 0.981 . S
H56 C55 0.980 . S
H57 C55 0.981 . S
H58 C55 0.981 . S
O59 Zn35 2.066 . S
O59 C38 1.256 1_556 S
O60 Zn32 2.053 . S
O60 C38 1.244 . S
C61 O39 1.259 1_554 S
C61 O40 1.254 . S
O62 Zn32 2.066 . S
O62 C34 1.256 . S
O63 C34 1.219 1_556 S
O63 Zn35 2.061 . S
Zn64 O65 2.055 . S
Zn64 O72 2.046 1_545 S
Zn64 N80 2.036 . S
Zn64 O92 2.061 1_545 S
Zn64 O94 2.066 . S
O65 Zn64 2.055 . S
O65 C68 1.259 1_556 S
C66 O94 1.256 1_554 S
C66 O95 1.244 . S
Zn67 O69 2.046 . S
Zn67 O71 2.055 1_545 S
Zn67 N73 2.036 . S
Zn67 O91 2.066 1_545 S
Zn67 O95 2.053 . S
C68 O65 1.259 1_554 S
C68 O69 1.254 . S
O69 Zn67 2.046 . S
O69 C68 1.254 . S
C70 O91 1.256 . S
C70 O92 1.218 1_554 S
O71 Zn67 2.055 1_565 S
O71 C93 1.259 . S
O72 Zn64 2.046 1_565 S
O72 C93 1.254 1_556 S
N73 Zn67 2.036 . S
N73 C74 1.298 1_545 S
N73 N76 1.398 . S
C74 N73 1.298 1_565 S
C74 N77 1.367 . S
C74 C87 1.481 . S
C75 N76 1.299 . S
C75 N77 1.379 1_545 S
N76 N73 1.398 . S
N76 C75 1.299 . S
N77 C74 1.367 . S
N77 C75 1.379 1_565 S
C78 N80 1.298 . S
C78 N82 1.367 . S
C78 C86 1.481 . S
C79 N81 1.299 . S
C79 N82 1.379 1_565 S
N80 Zn64 2.036 . S
N80 C78 1.298 . S
N80 N81 1.398 1_545 S
N81 C79 1.299 . S
N81 N80 1.398 1_565 S
N82 C78 1.367 . S
N82 C79 1.379 1_545 S
H83 C86 0.980 . S
H84 C86 0.981 . S
H85 C86 0.981 . S
C86 C78 1.481 . S
C86 H83 0.980 . S
C86 H84 0.981 . S
C86 H85 0.981 . S
C87 C74 1.481 . S
C87 H88 0.980 . S
C87 H89 0.981 . S
C87 H90 0.981 . S
H88 C87 0.980 . S
H89 C87 0.981 . S
H90 C87 0.981 . S
O91 Zn67 2.066 1_565 S
O91 C70 1.256 . S
O92 Zn64 2.061 1_565 S
O92 C70 1.218 1_556 S
C93 O71 1.259 . S
C93 O72 1.254 1_554 S
O94 Zn64 2.066 . S
O94 C66 1.256 1_556 S
O95 C66 1.244 . S
O95 Zn67 2.053 . S
Zn96 O97 2.055 . S
Zn96 O104 2.046 . S
Zn96 N112 2.036 . S
Zn96 O124 2.053 . S
Zn96 O126 2.066 . S
O97 Zn96 2.055 . S
O97 C100 1.259 . S
C98 O126 1.256 . S
C98 O127 1.244 . S
Zn99 O101 2.046 . S
Zn99 O103 2.055 . S
Zn99 N105 2.036 . S
Zn99 O123 2.066 . S
Zn99 O127 2.053 . S
C100 O97 1.259 . S
C100 O101 1.254 . S
O101 Zn99 2.046 . S
O101 C100 1.254 . S
C102 O123 1.256 . S
C102 O124 1.244 . S
O103 Zn99 2.055 . S
O103 C125 1.259 . S
O104 Zn96 2.046 . S
O104 C125 1.254 . S
N105 Zn99 2.036 . S
N105 C106 1.298 . S
N105 N108 1.398 . S
C106 N105 1.298 . S
C106 N109 1.367 . S
C106 C119 1.481 . S
C107 N108 1.299 . S
C107 N109 1.379 . S
N108 N105 1.398 . S
N108 C107 1.299 . S
N109 C106 1.367 . S
N109 C107 1.379 . S
C110 N112 1.298 . S
C110 N114 1.367 . S
C110 C118 1.481 . S
C111 N113 1.299 . S
C111 N114 1.379 . S
N112 Zn96 2.036 . S
N112 C110 1.298 . S
N112 N113 1.398 . S
N113 C111 1.299 . S
N113 N112 1.398 . S
N114 C110 1.367 . S
N114 C111 1.379 . S
H115 C118 0.980 . S
H116 C118 0.981 . S
H117 C118 0.981 . S
C118 C110 1.481 . S
C118 H115 0.980 . S
C118 H116 0.981 . S
C118 H117 0.981 . S
C119 C106 1.481 . S
C119 H120 0.980 . S
C119 H121 0.981 . S
C119 H122 0.981 . S
H120 C119 0.980 . S
H121 C119 0.981 . S
H122 C119 0.981 . S
O123 Zn99 2.066 . S
O123 C102 1.256 . S
O124 Zn96 2.053 . S
O124 C102 1.244 . S
C125 O103 1.259 . S
C125 O104 1.254 . S
O126 Zn96 2.066 . S
O126 C98 1.256 . S
O127 C98 1.244 . S
O127 Zn99 2.053 . S
Zn128 O129 2.055 . S
Zn128 O136 2.046 . S
Zn128 N144 2.036 . S
Zn128 O156 2.053 . S
Zn128 O158 2.066 . S
O129 Zn128 2.055 . S
O129 C132 1.259 . S
C130 O158 1.256 . S
C130 O159 1.244 . S
Zn131 O133 2.046 . S
Zn131 O135 2.055 . S
Zn131 N137 2.036 . S
Zn131 O155 2.066 . S
Zn131 O159 2.053 . S
C132 O129 1.259 . S
C132 O133 1.254 . S
O133 Zn131 2.046 . S
O133 C132 1.254 . S
C134 O155 1.256 . S
C134 O156 1.244 . S
O135 Zn131 2.055 . S
O135 C157 1.259 . S
O136 Zn128 2.046 . S
O136 C157 1.254 . S
N137 Zn131 2.036 . S
N137 C138 1.298 . S
N137 N140 1.398 . S
C138 N137 1.298 . S
C138 N141 1.367 . S
C138 C151 1.481 . S
C139 N140 1.299 . S
C139 N141 1.379 . S
N140 N137 1.398 . S
N140 C139 1.299 . S
N141 C138 1.367 . S
N141 C139 1.379 . S
C142 N144 1.298 . S
C142 N146 1.367 . S
C142 C150 1.481 . S
C143 N145 1.299 . S
C143 N146 1.379 . S
N144 Zn128 2.036 . S
N144 C142 1.298 . S
N144 N145 1.398 . S
N145 C143 1.299 . S
N145 N144 1.398 . S
N146 C142 1.367 . S
N146 C143 1.379 . S
H147 C150 0.980 . S
H148 C150 0.981 . S
H149 C150 0.981 . S
C150 C142 1.481 . S
C150 H147 0.980 . S
C150 H148 0.981 . S
C150 H149 0.981 . S
C151 C138 1.481 . S
C151 H152 0.980 . S
C151 H153 0.981 . S
C151 H154 0.981 . S
H152 C151 0.980 . S
H153 C151 0.981 . S
H154 C151 0.981 . S
O155 Zn131 2.066 . S
O155 C134 1.256 . S
O156 Zn128 2.053 . S
O156 C134 1.244 . S
C157 O135 1.259 . S
C157 O136 1.254 . S
O158 Zn128 2.066 . S
O158 C130 1.256 . S
O159 C130 1.244 . S
O159 Zn131 2.053 . S
Zn160 O161 2.055 . S
Zn160 O168 2.046 . S
Zn160 N176 2.036 . S
Zn160 O188 2.053 . S
Zn160 O190 2.066 . S
O161 Zn160 2.055 . S
O161 C164 1.259 . S
C162 O190 1.256 . S
C162 O191 1.244 . S
Zn163 O165 2.046 . S
Zn163 O167 2.055 . S
Zn163 N169 2.036 . S
Zn163 O187 2.066 . S
Zn163 O191 2.053 . S
C164 O161 1.259 . S
C164 O165 1.254 . S
O165 Zn163 2.046 . S
O165 C164 1.254 . S
C166 O187 1.256 . S
C166 O188 1.244 . S
O167 Zn163 2.055 . S
O167 C189 1.259 . S
O168 Zn160 2.046 . S
O168 C189 1.254 . S
N169 Zn163 2.036 . S
N169 C170 1.298 . S
N169 N172 1.398 . S
C170 N169 1.298 . S
C170 N173 1.367 . S
C170 C183 1.481 . S
C171 N172 1.299 . S
C171 N173 1.379 . S
N172 N169 1.398 . S
N172 C171 1.299 . S
N173 C170 1.367 . S
N173 C171 1.379 . S
C174 N176 1.298 . S
C174 N178 1.367 . S
C174 C182 1.481 . S
C175 N177 1.299 . S
C175 N178 1.379 . S
N176 Zn160 2.036 . S
N176 C174 1.298 . S
N176 N177 1.398 . S
N177 C175 1.299 . S
N177 N176 1.398 . S
N178 C174 1.367 . S
N178 C175 1.379 . S
H179 C182 0.980 . S
H180 C182 0.981 . S
H181 C182 0.981 . S
C182 C174 1.481 . S
C182 H179 0.980 . S
C182 H180 0.981 . S
C182 H181 0.981 . S
C183 C170 1.481 . S
C183 H184 0.980 . S
C183 H185 0.981 . S
C183 H186 0.981 . S
H184 C183 0.980 . S
H185 C183 0.981 . S
H186 C183 0.981 . S
O187 Zn163 2.066 . S
O187 C166 1.256 . S
O188 Zn160 2.053 . S
O188 C166 1.244 . S
C189 O167 1.259 . S
C189 O168 1.254 . S
O190 Zn160 2.066 . S
O190 C162 1.256 . S
O191 C162 1.244 . S
O191 Zn163 2.053 . S
Zn192 O193 2.055 . S
Zn192 O200 2.046 . S
Zn192 N208 2.036 . S
Zn192 O220 2.053 . S
Zn192 O222 2.066 . S
O193 Zn192 2.055 . S
O193 C196 1.259 . S
C194 O222 1.256 . S
C194 O223 1.244 . S
Zn195 O197 2.046 . S
Zn195 O199 2.055 . S
Zn195 N201 2.036 . S
Zn195 O219 2.066 . S
Zn195 O223 2.053 . S
C196 O193 1.259 . S
C196 O197 1.254 . S
O197 Zn195 2.046 . S
O197 C196 1.254 . S
C198 O219 1.256 . S
C198 O220 1.244 . S
O199 Zn195 2.055 . S
O199 C221 1.259 . S
O200 Zn192 2.046 . S
O200 C221 1.254 . S
N201 Zn195 2.036 . S
N201 C202 1.298 . S
N201 N204 1.398 . S
C202 N201 1.298 . S
C202 N205 1.367 . S
C202 C215 1.481 . S
C203 N204 1.299 . S
C203 N205 1.379 . S
N204 N201 1.398 . S
N204 C203 1.299 . S
N205 C202 1.367 . S
N205 C203 1.379 . S
C206 N208 1.298 . S
C206 N210 1.367 . S
C206 C214 1.481 . S
C207 N209 1.299 . S
C207 N210 1.379 . S
N208 Zn192 2.036 . S
N208 C206 1.298 . S
N208 N209 1.398 . S
N209 C207 1.299 . S
N209 N208 1.398 . S
N210 C206 1.367 . S
N210 C207 1.379 . S
H211 C214 0.980 . S
H212 C214 0.981 . S
H213 C214 0.981 . S
C214 C206 1.481 . S
C214 H211 0.980 . S
C214 H212 0.981 . S
C214 H213 0.981 . S
C215 C202 1.481 . S
C215 H216 0.980 . S
C215 H217 0.981 . S
C215 H218 0.981 . S
H216 C215 0.980 . S
H217 C215 0.981 . S
H218 C215 0.981 . S
O219 Zn195 2.066 . S
O219 C198 1.256 . S
O220 Zn192 2.053 . S
O220 C198 1.244 . S
C221 O199 1.259 . S
C221 O200 1.254 . S
O222 Zn192 2.066 . S
O222 C194 1.256 . S
O223 C194 1.244 . S
O223 Zn195 2.053 . S
Zn224 O225 2.055 . S
Zn224 O232 2.046 . S
Zn224 N240 2.036 . S
Zn224 O252 2.053 . S
Zn224 O254 2.066 . S
O225 Zn224 2.055 . S
O225 C228 1.259 . S
C226 O254 1.256 . S
C226 O255 1.244 . S
Zn227 O229 2.046 . S
Zn227 O231 2.055 . S
Zn227 N233 2.036 . S
Zn227 O251 2.066 . S
Zn227 O255 2.053 . S
C228 O225 1.259 . S
C228 O229 1.254 . S
O229 Zn227 2.046 . S
O229 C228 1.254 . S
C230 O251 1.256 . S
C230 O252 1.244 . S
O231 Zn227 2.055 . S
O231 C253 1.259 . S
O232 Zn224 2.046 . S
O232 C253 1.254 . S
N233 Zn227 2.036 . S
N233 C234 1.298 . S
N233 N236 1.398 . S
C234 N233 1.298 . S
C234 N237 1.367 . S
C234 C247 1.481 . S
C235 N236 1.299 . S
C235 N237 1.379 . S
N236 N233 1.398 . S
N236 C235 1.299 . S
N237 C234 1.367 . S
N237 C235 1.379 . S
C238 N240 1.298 . S
C238 N242 1.367 . S
C238 C246 1.481 . S
C239 N241 1.299 . S
C239 N242 1.379 . S
N240 Zn224 2.036 . S
N240 C238 1.298 . S
N240 N241 1.398 . S
N241 C239 1.299 . S
N241 N240 1.398 . S
N242 C238 1.367 . S
N242 C239 1.379 . S
H243 C246 0.980 . S
H244 C246 0.981 . S
H245 C246 0.981 . S
C246 C238 1.481 . S
C246 H243 0.980 . S
C246 H244 0.981 . S
C246 H245 0.981 . S
C247 C234 1.481 . S
C247 H248 0.980 . S
C247 H249 0.981 . S
C247 H250 0.981 . S
H248 C247 0.980 . S
H249 C247 0.981 . S
H250 C247 0.981 . S
O251 Zn227 2.066 . S
O251 C230 1.256 . S
O252 Zn224 2.053 . S
O252 C230 1.244 . S
C253 O231 1.259 . S
C253 O232 1.254 . S
O254 Zn224 2.066 . S
O254 C226 1.256 . S
O255 C226 1.244 . S
O255 Zn227 2.053 . S
Zn256 O257 2.055 . S
Zn256 O264 2.046 . S
Zn256 N272 2.036 . S
Zn256 O284 2.053 . S
Zn256 O286 2.066 . S
O257 Zn256 2.055 . S
O257 C260 1.259 . S
C258 O286 1.256 . S
C258 O287 1.244 . S
Zn259 O261 2.046 . S
Zn259 O263 2.055 . S
Zn259 N265 2.036 . S
Zn259 O283 2.066 . S
Zn259 O287 2.053 . S
C260 O257 1.259 . S
C260 O261 1.254 . S
O261 Zn259 2.046 . S
O261 C260 1.254 . S
C262 O283 1.256 . S
C262 O284 1.244 . S
O263 Zn259 2.055 . S
O263 C285 1.259 . S
O264 Zn256 2.046 . S
O264 C285 1.254 . S
N265 Zn259 2.036 . S
N265 C266 1.298 . S
N265 N268 1.398 . S
C266 N265 1.298 . S
C266 N269 1.367 . S
C266 C279 1.481 . S
C267 N268 1.299 . S
C267 N269 1.379 . S
N268 N265 1.398 . S
N268 C267 1.299 . S
N269 C266 1.367 . S
N269 C267 1.379 . S
C270 N272 1.298 . S
C270 N274 1.367 . S
C270 C278 1.481 . S
C271 N273 1.299 . S
C271 N274 1.379 . S
N272 Zn256 2.036 . S
N272 C270 1.298 . S
N272 N273 1.398 . S
N273 C271 1.299 . S
N273 N272 1.398 . S
N274 C270 1.367 . S
N274 C271 1.379 . S
H275 C278 0.980 . S
H276 C278 0.981 . S
H277 C278 0.981 . S
C278 C270 1.481 . S
C278 H275 0.980 . S
C278 H276 0.981 . S
C278 H277 0.981 . S
C279 C266 1.481 . S
C279 H280 0.980 . S
C279 H281 0.981 . S
C279 H282 0.981 . S
H280 C279 0.980 . S
H281 C279 0.981 . S
H282 C279 0.981 . S
O283 Zn259 2.066 . S
O283 C262 1.256 . S
O284 Zn256 2.053 . S
O284 C262 1.244 . S
C285 O263 1.259 . S
C285 O264 1.254 . S
O286 Zn256 2.066 . S
O286 C258 1.256 . S
O287 C258 1.244 . S
O287 Zn259 2.053 . S
C288 C289 1.349 1_556 S
C288 C290 1.327 . S
C288 H313 0.950 . S
C289 C288 1.349 1_554 S
C289 C305 1.349 . S
C290 C288 1.327 . S
C290 C309 1.429 1_556 S
C290 H314 0.950 . S
C291 C308 1.574 . S
C291 C310 1.368 . S
C291 H315 0.949 . S
H292 C296 0.949 . S
C293 C294 1.349 . S
C293 C295 1.327 . S
C293 H316 0.950 . S
C294 C293 1.349 . S
C294 C306 1.315 1_554 S
C295 C293 1.327 . S
C295 C311 1.429 . S
C295 H317 0.950 . S
C296 H292 0.949 . S
C296 C304 1.574 . S
C296 C312 1.368 1_556 S
H297 C305 0.950 . S
H298 C303 0.950 . S
H299 C304 0.949 . S
H300 C306 0.983 . S
H301 C307 0.950 . S
H302 C308 0.949 . S
C303 H298 0.950 . S
C303 C305 1.327 . S
C303 C309 1.429 . S
C304 C296 1.574 . S
C304 H299 0.949 . S
C304 C310 1.368 1_556 S
C305 C289 1.349 . S
C305 H297 0.950 . S
C305 C303 1.327 . S
C306 C294 1.315 1_556 S
C306 H300 0.983 . S
C306 C307 1.329 . S
C307 H301 0.950 . S
C307 C306 1.329 . S
C307 C311 1.429 1_556 S
C308 C291 1.574 . S
C308 H302 0.949 . S
C308 C312 1.368 . S
C309 C290 1.429 1_554 S
C309 C303 1.429 . S
C309 C310 1.523 . S
C310 C291 1.368 . S
C310 C304 1.368 1_554 S
C310 C309 1.523 . S
C311 C295 1.429 . S
C311 C307 1.429 1_554 S
C311 C312 1.523 . S
C312 C296 1.368 1_554 S
C312 C308 1.368 . S
C312 C311 1.523 . S
H313 C288 0.950 . S
H314 C290 0.950 . S
H315 C291 0.949 . S
H316 C293 0.950 . S
H317 C295 0.950 . S
C318 C319 1.349 . S
C318 C320 1.327 . S
C318 H343 0.950 . S
C319 C318 1.349 . S
C319 C335 1.349 1_554 S
C320 C318 1.327 . S
C320 C339 1.429 . S
C320 H344 0.950 . S
C321 C338 1.574 . S
C321 C340 1.368 1_556 S
C321 H345 0.949 . S
H322 C326 0.949 . S
C323 C324 1.381 . S
C323 C325 1.326 . S
C323 H346 0.919 1_554 S
C324 C323 1.381 . S
C324 C336 1.349 . S
C325 C323 1.326 . S
C325 C341 1.426 . S
C325 H347 0.953 1_554 S
C326 H322 0.949 . S
C326 C334 1.574 . S
C326 C342 1.368 . S
H327 C335 0.950 . S
H328 C333 0.950 . S
H329 C334 0.949 . S
H330 C336 0.950 . S
H331 C337 0.950 . S
H332 C338 0.949 . S
C333 H328 0.950 . S
C333 C335 1.327 . S
C333 C339 1.429 1_556 S
C334 C326 1.574 . S
C334 H329 0.949 . S
C334 C340 1.368 . S
C335 C319 1.349 1_556 S
C335 H327 0.950 . S
C335 C333 1.327 . S
C336 C324 1.349 . S
C336 H330 0.950 . S
C336 C337 1.327 . S
C337 H331 0.950 . S
C337 C336 1.327 . S
C337 C341 1.429 . S
C338 C321 1.574 . S
C338 H332 0.949 . S
C338 C342 1.368 1_556 S
C339 C320 1.429 . S
C339 C333 1.429 1_554 S
C339 C340 1.523 . S
C340 C321 1.368 1_554 S
C340 C334 1.368 . S
C340 C339 1.523 . S
C341 C325 1.426 . S
C341 C337 1.429 . S
C341 C342 1.523 . S
C342 C326 1.368 . S
C342 C338 1.368 1_554 S
C342 C341 1.523 . S
H343 C318 0.950 . S
H344 C320 0.950 . S
H345 C321 0.949 . S
H346 C323 0.919 1_556 S
H347 C325 0.953 1_556 S
C348 C349 1.394 . S
C348 C350 1.326 . S
C348 H373 0.908 1_554 S
C349 C348 1.394 . S
C349 C365 1.349 . S
C350 C348 1.326 . S
C350 C369 1.438 . S
C350 H374 0.939 1_554 S
C351 C368 1.574 . S
C351 C370 1.368 . S
C351 H375 0.949 . S
H352 C356 0.949 . S
C353 C354 1.349 . S
C353 C355 1.327 . S
C353 H376 0.950 . S
C354 C353 1.349 . S
C354 C366 1.349 1_554 S
C355 C353 1.327 . S
C355 C371 1.429 . S
C355 H377 0.950 . S
C356 H352 0.949 . S
C356 C364 1.574 . S
C356 C372 1.368 1_556 S
H357 C365 0.950 . S
H358 C363 0.950 . S
H359 C364 0.949 . S
H360 C366 0.950 . S
H361 C367 0.950 . S
H362 C368 0.949 . S
C363 H358 0.950 . S
C363 C365 1.327 . S
C363 C369 1.429 . S
C364 C356 1.574 . S
C364 H359 0.949 . S
C364 C370 1.368 1_556 S
C365 C349 1.349 . S
C365 H357 0.950 . S
C365 C363 1.327 . S
C366 C354 1.349 1_556 S
C366 H360 0.950 . S
C366 C367 1.327 . S
C367 H361 0.950 . S
C367 C366 1.327 . S
C367 C371 1.429 1_556 S
C368 C351 1.574 . S
C368 H362 0.949 . S
C368 C372 1.368 . S
C369 C350 1.438 . S
C369 C363 1.429 . S
C369 C370 1.523 . S
C370 C351 1.368 . S
C370 C364 1.368 1_554 S
C370 C369 1.523 . S
C371 C355 1.429 . S
C371 C367 1.429 1_554 S
C371 C372 1.523 . S
C372 C356 1.368 1_554 S
C372 C368 1.368 . S
C372 C371 1.523 . S
H373 C348 0.908 1_556 S
H374 C350 0.939 1_556 S
H375 C351 0.949 . S
H376 C353 0.950 . S
H377 C355 0.950 . S
C378 C379 1.349 1_556 S
C378 C380 1.327 . S
C378 H403 0.950 . S
C379 C378 1.349 1_554 S
C379 C395 1.349 . S
C380 C378 1.327 . S
C380 C399 1.429 1_556 S
C380 H404 0.950 . S
C381 C398 1.574 . S
C381 C400 1.368 . S
C381 H405 0.949 . S
H382 C386 0.949 . S
C383 C384 1.349 . S
C383 C385 1.327 . S
C383 H406 0.950 . S
C384 C383 1.349 . S
C384 C396 1.349 . S
C385 C383 1.327 . S
C385 C401 1.429 . S
C385 H407 0.950 . S
C386 H382 0.949 . S
C386 C394 1.574 . S
C386 C402 1.368 1_556 S
H387 C395 0.950 . S
H388 C393 0.950 . S
H389 C394 0.949 . S
H390 C396 0.949 1_556 S
H391 C397 0.976 . S
H392 C398 0.949 . S
C393 H388 0.950 . S
C393 C395 1.327 . S
C393 C399 1.429 . S
C394 C386 1.574 . S
C394 H389 0.949 . S
C394 C400 1.368 1_556 S
C395 C379 1.349 . S
C395 H387 0.950 . S
C395 C393 1.327 . S
C396 C384 1.349 . S
C396 H390 0.949 1_554 S
C396 C397 1.326 1_554 S
C397 H391 0.976 . S
C397 C396 1.326 1_556 S
C397 C401 1.404 1_556 S
C398 C381 1.574 . S
C398 H392 0.949 . S
C398 C402 1.368 . S
C399 C380 1.429 1_554 S
C399 C393 1.429 . S
C399 C400 1.523 . S
C400 C381 1.368 . S
C400 C394 1.368 1_554 S
C400 C399 1.523 . S
C401 C385 1.429 . S
C401 C397 1.404 1_554 S
C401 C402 1.523 . S
C402 C386 1.368 1_554 S
C402 C398 1.368 . S
C402 C401 1.523 . S
H403 C378 0.950 . S
H404 C380 0.950 . S
H405 C381 0.949 . S
H406 C383 0.950 . S
H407 C385 0.950 . S
C408 C409 1.349 . S
C408 C410 1.327 . S
C408 H433 0.950 . S
C409 C408 1.349 . S
C409 C425 1.380 . S
C410 C408 1.327 . S
C410 C429 1.429 . S
C410 H434 0.950 . S
C411 C428 1.574 . S
C411 C430 1.368 1_556 S
C411 H435 0.949 . S
H412 C416 0.949 . S
C413 C414 1.349 1_556 S
C413 C415 1.327 . S
C413 H436 0.950 . S
C414 C413 1.349 1_554 S
C414 C426 1.349 . S
C415 C413 1.327 . S
C415 C431 1.429 1_556 S
C415 H437 0.950 . S
C416 H412 0.949 . S
C416 C424 1.574 . S
C416 C432 1.368 . S
H417 C425 0.921 1_556 S
H418 C423 0.954 1_556 S
H419 C424 0.949 . S
H420 C426 0.950 . S
H421 C427 0.950 . S
H422 C428 0.949 . S
C423 H418 0.954 1_554 S
C423 C425 1.326 . S
C423 C429 1.424 . S
C424 C416 1.574 . S
C424 H419 0.949 . S
C424 C430 1.368 . S
C425 C409 1.380 . S
C425 H417 0.921 1_554 S
C425 C423 1.326 . S
C426 C414 1.349 . S
C426 H420 0.950 . S
C426 C427 1.327 . S
C427 H421 0.950 . S
C427 C426 1.327 . S
C427 C431 1.429 . S
C428 C411 1.574 . S
C428 H422 0.949 . S
C428 C432 1.368 1_556 S
C429 C410 1.429 . S
C429 C423 1.424 . S
C429 C430 1.523 . S
C430 C411 1.368 1_554 S
C430 C424 1.368 . S
C430 C429 1.523 . S
C431 C415 1.429 1_554 S
C431 C427 1.429 . S
C431 C432 1.523 . S
C432 C416 1.368 . S
C432 C428 1.368 1_554 S
C432 C431 1.523 . S
H433 C408 0.950 . S
H434 C410 0.950 . S
H435 C411 0.949 . S
H436 C413 0.950 . S
H437 C415 0.950 . S
C438 C439 1.349 . S
C438 C440 1.327 . S
C438 H463 0.950 1_554 S
C439 C438 1.349 . S
C439 C455 1.349 . S
C440 C438 1.327 . S
C440 C459 1.429 . S
C440 H464 0.950 1_554 S
C441 C458 1.574 . S
C441 C460 1.368 . S
C441 H465 0.949 . S
H442 C446 0.949 1_556 S
C443 C444 1.349 . S
C443 C445 1.327 . S
C443 H466 0.950 . S
C444 C443 1.349 . S
C444 C456 1.345 . S
C445 C443 1.327 . S
C445 C461 1.429 . S
C445 H467 0.950 . S
C446 H442 0.949 1_554 S
C446 C454 1.573 . S
C446 C462 1.369 . S
H447 C455 0.950 . S
H448 C453 0.950 . S
H449 C454 0.933 1_556 S
H450 C456 0.954 1_556 S
H451 C457 0.953 1_556 S
H452 C458 0.949 . S
C453 H448 0.950 . S
C453 C455 1.327 . S
C453 C459 1.429 . S
C454 C446 1.573 . S
C454 H449 0.933 1_554 S
C454 C460 1.388 . S
C455 C439 1.349 . S
C455 H447 0.950 . S
C455 C453 1.327 . S
C456 C444 1.345 . S
C456 H450 0.954 1_554 S
C456 C457 1.327 . S
C457 H451 0.953 1_554 S
C457 C456 1.327 . S
C457 C461 1.426 . S
C458 C441 1.574 . S
C458 H452 0.949 . S
C458 C462 1.368 . S
C459 C440 1.429 . S
C459 C453 1.429 . S
C459 C460 1.523 . S
C460 C441 1.368 . S
C460 C454 1.388 . S
C460 C459 1.523 . S
C461 C445 1.429 . S
C461 C457 1.426 . S
C461 C462 1.523 . S
C462 C446 1.369 . S
C462 C458 1.368 . S
C462 C461 1.523 . S
H463 C438 0.950 1_556 S
H464 C440 0.950 1_556 S
H465 C441 0.949 . S
H466 C443 0.950 . S
H467 C445 0.950 . S
C468 C469 1.349 . S
C468 C470 1.327 . S
C468 H493 0.950 . S
C469 C468 1.349 . S
C469 C485 1.349 . S
C470 C468 1.327 . S
C470 C489 1.429 . S
C470 H494 0.950 . S
C471 C488 1.574 . S
C471 C490 1.368 . S
C471 H495 0.949 . S
H472 C476 0.949 . S
C473 C474 1.349 . S
C473 C475 1.327 . S
C473 H496 0.950 . S
C474 C473 1.349 . S
C474 C486 1.349 . S
C475 C473 1.327 . S
C475 C491 1.429 . S
C475 H497 0.950 . S
C476 H472 0.949 . S
C476 C484 1.574 . S
C476 C492 1.368 . S
H477 C485 0.950 . S
H478 C483 0.950 . S
H479 C484 0.949 . S
H480 C486 0.950 . S
H481 C487 0.950 . S
H482 C488 0.949 . S
C483 H478 0.950 . S
C483 C485 1.327 . S
C483 C489 1.429 . S
C484 C476 1.574 . S
C484 H479 0.949 . S
C484 C490 1.368 . S
C485 C469 1.349 . S
C485 H477 0.950 . S
C485 C483 1.327 . S
C486 C474 1.349 . S
C486 H480 0.950 . S
C486 C487 1.327 . S
C487 H481 0.950 . S
C487 C486 1.327 . S
C487 C491 1.429 . S
C488 C471 1.574 . S
C488 H482 0.949 . S
C488 C492 1.368 . S
C489 C470 1.429 . S
C489 C483 1.429 . S
C489 C490 1.523 . S
C490 C471 1.368 . S
C490 C484 1.368 . S
C490 C489 1.523 . S
C491 C475 1.429 . S
C491 C487 1.429 . S
C491 C492 1.523 1_455 S
C492 C476 1.368 . S
C492 C488 1.368 . S
C492 C491 1.523 1_655 S
H493 C468 0.950 . S
H494 C470 0.950 . S
H495 C471 0.949 . S
H496 C473 0.950 . S
H497 C475 0.950 . S
C498 C499 1.349 . S
C498 C500 1.327 . S
C498 H523 0.950 . S
C499 C498 1.349 . S
C499 C515 1.349 . S
C500 C498 1.327 . S
C500 C519 1.429 . S
C500 H524 0.950 . S
C501 C518 1.574 . S
C501 C520 1.368 . S
C501 H525 0.949 . S
H502 C506 0.949 . S
C503 C504 1.349 1_545 S
C503 C505 1.327 . S
C503 H526 0.950 . S
C504 C503 1.349 1_565 S
C504 C516 1.349 . S
C505 C503 1.327 . S
C505 C521 1.429 . S
C505 H527 0.950 . S
C506 H502 0.949 . S
C506 C514 1.574 . S
C506 C522 1.368 . S
H507 C515 0.950 . S
H508 C513 0.950 . S
H509 C514 0.949 . S
H510 C516 0.950 . S
H511 C517 0.950 . S
H512 C518 0.949 . S
C513 H508 0.950 . S
C513 C515 1.327 . S
C513 C519 1.429 . S
C514 C506 1.574 . S
C514 H509 0.949 . S
C514 C520 1.368 . S
C515 C499 1.349 . S
C515 H507 0.950 . S
C515 C513 1.327 . S
C516 C504 1.349 . S
C516 H510 0.950 . S
C516 C517 1.327 1_565 S
C517 H511 0.950 . S
C517 C516 1.327 1_545 S
C517 C521 1.429 . S
C518 C501 1.574 . S
C518 H512 0.949 . S
C518 C522 1.368 . S
C519 C500 1.429 . S
C519 C513 1.429 . S
C519 C520 1.523 . S
C520 C501 1.368 . S
C520 C514 1.368 . S
C520 C519 1.523 . S
C521 C505 1.429 . S
C521 C517 1.429 . S
C521 C522 1.523 . S
C522 C506 1.368 . S
C522 C518 1.368 . S
C522 C521 1.523 . S
H523 C498 0.950 . S
H524 C500 0.950 . S
H525 C501 0.949 . S
H526 C503 0.950 . S
H527 C505 0.950 . S
C528 C529 1.349 . S
C528 C530 1.327 1_455 S
C528 H553 0.950 . S
C529 C528 1.349 . S
C529 C545 1.349 . S
C530 C528 1.327 1_655 S
C530 C549 1.429 . S
C530 H554 0.950 . S
C531 C548 1.574 . S
C531 C550 1.368 . S
C531 H555 0.949 . S
H532 C536 0.949 . S
C533 C534 1.349 . S
C533 C535 1.327 . S
C533 H556 0.950 . S
C534 C533 1.349 . S
C534 C546 1.349 . S
C535 C533 1.327 . S
C535 C551 1.429 1_565 S
C535 H557 0.950 . S
C536 H532 0.949 . S
C536 C544 1.574 . S
C536 C552 1.368 . S
H537 C545 0.950 . S
H538 C543 0.950 . S
H539 C544 0.949 . S
H540 C546 0.950 . S
H541 C547 0.950 1_545 S
H542 C548 0.949 . S
C543 H538 0.950 . S
C543 C545 1.327 . S
C543 C549 1.429 1_455 S
C544 C536 1.574 . S
C544 H539 0.949 . S
C544 C550 1.368 . S
C545 C529 1.349 . S
C545 H537 0.950 . S
C545 C543 1.327 . S
C546 C534 1.349 . S
C546 H540 0.950 . S
C546 C547 1.327 . S
C547 H541 0.950 1_565 S
C547 C546 1.327 . S
C547 C551 1.429 1_565 S
C548 C531 1.574 . S
C548 H542 0.949 . S
C548 C552 1.368 . S
C549 C530 1.429 . S
C549 C543 1.429 1_655 S
C549 C550 1.523 . S
C550 C531 1.368 . S
C550 C544 1.368 . S
C550 C549 1.523 . S
C551 C535 1.429 1_545 S
C551 C547 1.429 1_545 S
C551 C552 1.523 . S
C552 C536 1.368 . S
C552 C548 1.368 . S
C552 C551 1.523 . S
H553 C528 0.950 . S
H554 C530 0.950 . S
H555 C531 0.949 . S
H556 C533 0.950 . S
H557 C535 0.950 . S
C558 C559 1.349 . S
C558 C560 1.327 . S
C558 H583 0.950 . S
C559 C558 1.349 . S
C559 C575 1.349 . S
C560 C558 1.327 . S
C560 C579 1.429 . S
C560 H584 0.950 . S
C561 C578 1.574 . S
C561 C580 1.368 . S
C561 H585 0.949 . S
H562 C566 0.949 . S
C563 C564 1.349 . S
C563 C565 1.327 . S
C563 H586 0.950 . S
C564 C563 1.349 . S
C564 C576 1.349 . S
C565 C563 1.327 . S
C565 C581 1.429 . S
C565 H587 0.950 . S
C566 H562 0.949 . S
C566 C574 1.574 . S
C566 C582 1.368 . S
H567 C575 0.950 . S
H568 C573 0.950 . S
H569 C574 0.949 . S
H570 C576 0.950 . S
H571 C577 0.950 . S
H572 C578 0.949 . S
C573 H568 0.950 . S
C573 C575 1.327 . S
C573 C579 1.429 . S
C574 C566 1.574 . S
C574 H569 0.949 . S
C574 C580 1.368 . S
C575 C559 1.349 . S
C575 H567 0.950 . S
C575 C573 1.327 . S
C576 C564 1.349 . S
C576 H570 0.950 . S
C576 C577 1.327 . S
C577 H571 0.950 . S
C577 C576 1.327 . S
C577 C581 1.429 . S
C578 C561 1.574 . S
C578 H572 0.949 . S
C578 C582 1.368 . S
C579 C560 1.429 . S
C579 C573 1.429 . S
C579 C580 1.523 . S
C580 C561 1.368 . S
C580 C574 1.368 . S
C580 C579 1.523 . S
C581 C565 1.429 . S
C581 C577 1.429 . S
C581 C582 1.523 . S
C582 C566 1.368 . S
C582 C578 1.368 . S
C582 C581 1.523 . S
H583 C558 0.950 . S
H584 C560 0.950 . S
H585 C561 0.949 . S
H586 C563 0.950 . S
H587 C565 0.950 . S
C588 C589 1.349 . S
C588 C590 1.327 . S
C588 H613 0.950 . S
C589 C588 1.349 . S
C589 C605 1.349 . S
C590 C588 1.327 . S
C590 C609 1.429 . S
C590 H614 0.950 . S
C591 C608 1.574 . S
C591 C610 1.368 . S
C591 H615 0.949 . S
H592 C596 0.949 . S
C593 C594 1.349 . S
C593 C595 1.327 . S
C593 H616 0.950 . S
C594 C593 1.349 . S
C594 C606 1.349 . S
C595 C593 1.327 . S
C595 C611 1.429 . S
C595 H617 0.950 . S
C596 H592 0.949 . S
C596 C604 1.574 . S
C596 C612 1.368 . S
H597 C605 0.950 . S
H598 C603 0.950 . S
H599 C604 0.949 . S
H600 C606 0.950 . S
H601 C607 0.950 . S
H602 C608 0.949 . S
C603 H598 0.950 . S
C603 C605 1.327 . S
C603 C609 1.429 . S
C604 C596 1.574 . S
C604 H599 0.949 . S
C604 C610 1.368 . S
C605 C589 1.349 . S
C605 H597 0.950 . S
C605 C603 1.327 . S
C606 C594 1.349 . S
C606 H600 0.950 . S
C606 C607 1.327 . S
C607 H601 0.950 . S
C607 C606 1.327 . S
C607 C611 1.429 . S
C608 C591 1.574 . S
C608 H602 0.949 . S
C608 C612 1.368 . S
C609 C590 1.429 . S
C609 C603 1.429 . S
C609 C610 1.523 . S
C610 C591 1.368 . S
C610 C604 1.368 . S
C610 C609 1.523 . S
C611 C595 1.429 . S
C611 C607 1.429 . S
C611 C612 1.523 . S
C612 C596 1.368 . S
C612 C608 1.368 . S
C612 C611 1.523 . S
H613 C588 0.950 . S
H614 C590 0.950 . S
H615 C591 0.949 . S
H616 C593 0.950 . S
H617 C595 0.950 . S
C618 C619 1.349 . S
C618 C620 1.327 . S
C618 H643 0.950 . S
C619 C618 1.349 . S
C619 C635 1.349 . S
C620 C618 1.327 . S
C620 C639 1.429 . S
C620 H644 0.950 . S
C621 C638 1.574 . S
C621 C640 1.368 . S
C621 H645 0.949 . S
H622 C626 0.949 . S
C623 C624 1.349 . S
C623 C625 1.327 . S
C623 H646 0.950 . S
C624 C623 1.349 . S
C624 C636 1.349 . S
C625 C623 1.327 . S
C625 C641 1.429 . S
C625 H647 0.950 . S
C626 H622 0.949 . S
C626 C634 1.574 . S
C626 C642 1.368 . S
H627 C635 0.950 . S
H628 C633 0.950 . S
H629 C634 0.949 . S
H630 C636 0.950 . S
H631 C637 0.950 . S
H632 C638 0.949 . S
C633 H628 0.950 . S
C633 C635 1.327 . S
C633 C639 1.429 . S
C634 C626 1.574 . S
C634 H629 0.949 . S
C634 C640 1.368 . S
C635 C619 1.349 . S
C635 H627 0.950 . S
C635 C633 1.327 . S
C636 C624 1.349 . S
C636 H630 0.950 . S
C636 C637 1.327 . S
C637 H631 0.950 . S
C637 C636 1.327 . S
C637 C641 1.429 . S
C638 C621 1.574 . S
C638 H632 0.949 . S
C638 C642 1.368 . S
C639 C620 1.429 . S
C639 C633 1.429 . S
C639 C640 1.523 . S
C640 C621 1.368 . S
C640 C634 1.368 . S
C640 C639 1.523 . S
C641 C625 1.429 . S
C641 C637 1.429 . S
C641 C642 1.523 . S
C642 C626 1.368 . S
C642 C638 1.368 . S
C642 C641 1.523 . S
H643 C618 0.950 . S
H644 C620 0.950 . S
H645 C621 0.949 . S
H646 C623 0.950 . S
H647 C625 0.950 . S
C648 C649 1.349 . S
C648 C650 1.327 . S
C648 H673 0.950 . S
C649 C648 1.349 . S
C649 C665 1.349 . S
C650 C648 1.327 . S
C650 C669 1.429 . S
C650 H674 0.950 . S
C651 C668 1.574 . S
C651 C670 1.368 . S
C651 H675 0.949 . S
H652 C656 0.949 . S
C653 C654 1.349 . S
C653 C655 1.327 . S
C653 H676 0.950 . S
C654 C653 1.349 . S
C654 C666 1.349 . S
C655 C653 1.327 . S
C655 C671 1.429 . S
C655 H677 0.950 . S
C656 H652 0.949 . S
C656 C664 1.574 . S
C656 C672 1.368 . S
H657 C665 0.950 . S
H658 C663 0.950 . S
H659 C664 0.949 . S
H660 C666 0.950 . S
H661 C667 0.950 . S
H662 C668 0.949 . S
C663 H658 0.950 . S
C663 C665 1.327 . S
C663 C669 1.429 . S
C664 C656 1.574 . S
C664 H659 0.949 . S
C664 C670 1.368 . S
C665 C649 1.349 . S
C665 H657 0.950 . S
C665 C663 1.327 . S
C666 C654 1.349 . S
C666 H660 0.950 . S
C666 C667 1.327 . S
C667 H661 0.950 . S
C667 C666 1.327 . S
C667 C671 1.429 . S
C668 C651 1.574 . S
C668 H662 0.949 . S
C668 C672 1.368 . S
C669 C650 1.429 . S
C669 C663 1.429 . S
C669 C670 1.523 . S
C670 C651 1.368 . S
C670 C664 1.368 . S
C670 C669 1.523 . S
C671 C655 1.429 . S
C671 C667 1.429 . S
C671 C672 1.523 . S
C672 C656 1.368 . S
C672 C668 1.368 . S
C672 C671 1.523 . S
H673 C648 0.950 . S
H674 C650 0.950 . S
H675 C651 0.949 . S
H676 C653 0.950 . S
H677 C655 0.950 . S
C678 C679 1.349 . S
C678 C680 1.327 . S
C678 H703 0.950 . S
C679 C678 1.349 . S
C679 C695 1.349 . S
C680 C678 1.327 . S
C680 C699 1.429 . S
C680 H704 0.950 . S
C681 C698 1.574 . S
C681 C700 1.368 . S
C681 H705 0.949 . S
H682 C686 0.949 . S
C683 C684 1.349 . S
C683 C685 1.327 . S
C683 H706 0.950 . S
C684 C683 1.349 . S
C684 C696 1.349 . S
C685 C683 1.327 . S
C685 C701 1.429 . S
C685 H707 0.950 . S
C686 H682 0.949 . S
C686 C694 1.574 . S
C686 C702 1.368 . S
H687 C695 0.950 . S
H688 C693 0.950 . S
H689 C694 0.949 . S
H690 C696 0.950 . S
H691 C697 0.950 . S
H692 C698 0.949 . S
C693 H688 0.950 . S
C693 C695 1.327 . S
C693 C699 1.429 . S
C694 C686 1.574 . S
C694 H689 0.949 . S
C694 C700 1.368 . S
C695 C679 1.349 . S
C695 H687 0.950 . S
C695 C693 1.327 . S
C696 C684 1.349 . S
C696 H690 0.950 . S
C696 C697 1.327 . S
C697 H691 0.950 . S
C697 C696 1.327 . S
C697 C701 1.429 . S
C698 C681 1.574 . S
C698 H692 0.949 . S
C698 C702 1.368 . S
C699 C680 1.429 . S
C699 C693 1.429 . S
C699 C700 1.523 . S
C700 C681 1.368 . S
C700 C694 1.368 . S
C700 C699 1.523 . S
C701 C685 1.429 . S
C701 C697 1.429 . S
C701 C702 1.523 . S
C702 C686 1.368 . S
C702 C698 1.368 . S
C702 C701 1.523 . S
H703 C678 0.950 . S
H704 C680 0.950 . S
H705 C681 0.949 . S
H706 C683 0.950 . S
H707 C685 0.950 . S
C708 C709 1.349 . S
C708 C710 1.327 . S
C708 H733 0.950 . S
C709 C708 1.349 . S
C709 C725 1.349 . S
C710 C708 1.327 . S
C710 C729 1.429 . S
C710 H734 0.950 . S
C711 C728 1.574 . S
C711 C730 1.368 . S
C711 H735 0.949 . S
H712 C716 0.949 . S
C713 C714 1.349 . S
C713 C715 1.327 . S
C713 H736 0.950 . S
C714 C713 1.349 . S
C714 C726 1.349 . S
C715 C713 1.327 . S
C715 C731 1.429 . S
C715 H737 0.950 . S
C716 H712 0.949 . S
C716 C724 1.574 . S
C716 C732 1.368 . S
H717 C725 0.950 . S
H718 C723 0.950 . S
H719 C724 0.949 . S
H720 C726 0.950 . S
H721 C727 0.950 . S
H722 C728 0.949 . S
C723 H718 0.950 . S
C723 C725 1.327 . S
C723 C729 1.429 . S
C724 C716 1.574 . S
C724 H719 0.949 . S
C724 C730 1.368 . S
C725 C709 1.349 . S
C725 H717 0.950 . S
C725 C723 1.327 . S
C726 C714 1.349 . S
C726 H720 0.950 . S
C726 C727 1.327 . S
C727 H721 0.950 . S
C727 C726 1.327 . S
C727 C731 1.429 . S
C728 C711 1.574 . S
C728 H722 0.949 . S
C728 C732 1.368 . S
C729 C710 1.429 . S
C729 C723 1.429 . S
C729 C730 1.523 . S
C730 C711 1.368 . S
C730 C724 1.368 . S
C730 C729 1.523 . S
C731 C715 1.429 . S
C731 C727 1.429 . S
C731 C732 1.523 . S
C732 C716 1.368 . S
C732 C728 1.368 . S
C732 C731 1.523 . S
H733 C708 0.950 . S
H734 C710 0.950 . S
H735 C711 0.949 . S
H736 C713 0.950 . S
H737 C715 0.950 . S
C738 C739 1.349 . S
C738 C740 1.327 . S
C738 H763 0.950 . S
C739 C738 1.349 . S
C739 C755 1.349 . S
C740 C738 1.327 . S
C740 C759 1.429 . S
C740 H764 0.950 . S
C741 C758 1.574 . S
C741 C760 1.368 . S
C741 H765 0.949 . S
H742 C746 0.949 . S
C743 C744 1.349 . S
C743 C745 1.327 . S
C743 H766 0.950 . S
C744 C743 1.349 . S
C744 C756 1.349 . S
C745 C743 1.327 . S
C745 C761 1.429 . S
C745 H767 0.950 . S
C746 H742 0.949 . S
C746 C754 1.574 . S
C746 C762 1.368 . S
H747 C755 0.950 . S
H748 C753 0.950 . S
H749 C754 0.949 . S
H750 C756 0.950 . S
H751 C757 0.950 . S
H752 C758 0.949 . S
C753 H748 0.950 . S
C753 C755 1.327 . S
C753 C759 1.429 . S
C754 C746 1.574 . S
C754 H749 0.949 . S
C754 C760 1.368 . S
C755 C739 1.349 . S
C755 H747 0.950 . S
C755 C753 1.327 . S
C756 C744 1.349 . S
C756 H750 0.950 . S
C756 C757 1.327 . S
C757 H751 0.950 . S
C757 C756 1.327 . S
C757 C761 1.429 . S
C758 C741 1.574 . S
C758 H752 0.949 . S
C758 C762 1.368 . S
C759 C740 1.429 . S
C759 C753 1.429 . S
C759 C760 1.523 . S
C760 C741 1.368 . S
C760 C754 1.368 . S
C760 C759 1.523 . S
C761 C745 1.429 . S
C761 C757 1.429 . S
C761 C762 1.523 1_545 S
C762 C746 1.368 . S
C762 C758 1.368 . S
C762 C761 1.523 1_565 S
H763 C738 0.950 . S
H764 C740 0.950 . S
H765 C741 0.949 . S
H766 C743 0.950 . S
H767 C745 0.950 . S
C768 C769 1.349 . S
C768 C770 1.327 . S
C768 H793 0.950 . S
C769 C768 1.349 . S
C769 C785 1.349 . S
C770 C768 1.327 . S
C770 C789 1.429 1_655 S
C770 H794 0.950 . S
C771 C788 1.574 . S
C771 C790 1.368 . S
C771 H795 0.949 . S
H772 C776 0.949 . S
C773 C774 1.349 . S
C773 C775 1.327 1_545 S
C773 H796 0.950 . S
C774 C773 1.349 . S
C774 C786 1.349 . S
C775 C773 1.327 1_565 S
C775 C791 1.429 . S
C775 H797 0.950 . S
C776 H772 0.949 . S
C776 C784 1.574 . S
C776 C792 1.368 . S
H777 C785 0.950 . S
H778 C783 0.950 1_455 S
H779 C784 0.949 . S
H780 C786 0.950 . S
H781 C787 0.950 . S
H782 C788 0.949 . S
C783 H778 0.950 1_655 S
C783 C785 1.327 . S
C783 C789 1.429 1_655 S
C784 C776 1.574 . S
C784 H779 0.949 . S
C784 C790 1.368 . S
C785 C769 1.349 . S
C785 H777 0.950 . S
C785 C783 1.327 . S
C786 C774 1.349 . S
C786 H780 0.950 . S
C786 C787 1.327 . S
C787 H781 0.950 . S
C787 C786 1.327 . S
C787 C791 1.429 1_545 S
C788 C771 1.574 . S
C788 H782 0.949 . S
C788 C792 1.368 . S
C789 C770 1.429 1_455 S
C789 C783 1.429 1_455 S
C789 C790 1.523 . S
C790 C771 1.368 . S
C790 C784 1.368 . S
C790 C789 1.523 . S
C791 C775 1.429 . S
C791 C787 1.429 1_565 S
C791 C792 1.523 . S
C792 C776 1.368 . S
C792 C788 1.368 . S
C792 C791 1.523 . S
H793 C768 0.950 . S
H794 C770 0.950 . S
H795 C771 0.949 . S
H796 C773 0.950 . S
H797 C775 0.950 . S
C798 C799 1.349 . S
C798 C800 1.327 . S
C798 H823 0.950 . S
C799 C798 1.349 . S
C799 C815 1.349 . S
C800 C798 1.327 . S
C800 C819 1.429 . S
C800 H824 0.950 . S
C801 C818 1.574 . S
C801 C820 1.368 . S
C801 H825 0.949 . S
H802 C806 0.949 . S
C803 C804 1.349 1_455 S
C803 C805 1.327 . S
C803 H826 0.950 1_455 S
C804 C803 1.349 1_655 S
C804 C816 1.349 1_655 S
C805 C803 1.327 . S
C805 C821 1.429 . S
C805 H827 0.950 . S
C806 H802 0.949 . S
C806 C814 1.574 . S
C806 C822 1.368 . S
H807 C815 0.950 . S
H808 C813 0.950 . S
H809 C814 0.949 . S
H810 C816 0.950 . S
H811 C817 0.950 . S
H812 C818 0.949 . S
C813 H808 0.950 . S
C813 C815 1.327 . S
C813 C819 1.429 . S
C814 C806 1.574 . S
C814 H809 0.949 . S
C814 C820 1.368 . S
C815 C799 1.349 . S
C815 H807 0.950 . S
C815 C813 1.327 . S
C816 C804 1.349 1_455 S
C816 H810 0.950 . S
C816 C817 1.327 . S
C817 H811 0.950 . S
C817 C816 1.327 . S
C817 C821 1.429 . S
C818 C801 1.574 . S
C818 H812 0.949 . S
C818 C822 1.368 . S
C819 C800 1.429 . S
C819 C813 1.429 . S
C819 C820 1.523 . S
C820 C801 1.368 . S
C820 C814 1.368 . S
C820 C819 1.523 . S
C821 C805 1.429 . S
C821 C817 1.429 . S
C821 C822 1.523 . S
C822 C806 1.368 . S
C822 C818 1.368 . S
C822 C821 1.523 . S
H823 C798 0.950 . S
H824 C800 0.950 . S
H825 C801 0.949 . S
H826 C803 0.950 1_655 S
H827 C805 0.950 . S
C828 C829 1.349 . S
C828 C830 1.327 . S
C828 H853 0.950 . S
C829 C828 1.349 . S
C829 C845 1.349 . S
C830 C828 1.327 . S
C830 C849 1.429 . S
C830 H854 0.950 . S
C831 C848 1.574 . S
C831 C850 1.368 . S
C831 H855 0.949 . S
H832 C836 0.949 . S
C833 C834 1.349 . S
C833 C835 1.327 . S
C833 H856 0.950 . S
C834 C833 1.349 . S
C834 C846 1.349 . S
C835 C833 1.327 . S
C835 C851 1.429 . S
C835 H857 0.950 . S
C836 H832 0.949 . S
C836 C844 1.574 . S
C836 C852 1.368 . S
H837 C845 0.950 . S
H838 C843 0.950 . S
H839 C844 0.949 . S
H840 C846 0.950 . S
H841 C847 0.950 . S
H842 C848 0.949 . S
C843 H838 0.950 . S
C843 C845 1.327 . S
C843 C849 1.429 . S
C844 C836 1.574 . S
C844 H839 0.949 . S
C844 C850 1.368 . S
C845 C829 1.349 . S
C845 H837 0.950 . S
C845 C843 1.327 . S
C846 C834 1.349 . S
C846 H840 0.950 . S
C846 C847 1.327 . S
C847 H841 0.950 . S
C847 C846 1.327 . S
C847 C851 1.429 . S
C848 C831 1.574 . S
C848 H842 0.949 . S
C848 C852 1.368 . S
C849 C830 1.429 . S
C849 C843 1.429 . S
C849 C850 1.523 . S
C850 C831 1.368 . S
C850 C844 1.368 . S
C850 C849 1.523 . S
C851 C835 1.429 . S
C851 C847 1.429 . S
C851 C852 1.523 . S
C852 C836 1.368 . S
C852 C848 1.368 . S
C852 C851 1.523 . S
H853 C828 0.950 . S
H854 C830 0.950 . S
H855 C831 0.949 . S
H856 C833 0.950 . S
H857 C835 0.950 . S
C858 C859 1.349 . S
C858 C860 1.327 . S
C858 H883 0.950 . S
C859 C858 1.349 . S
C859 C875 1.349 . S
C860 C858 1.327 . S
C860 C879 1.429 . S
C860 H884 0.950 . S
C861 C878 1.574 . S
C861 C880 1.368 . S
C861 H885 0.949 . S
H862 C866 0.949 . S
C863 C864 1.349 . S
C863 C865 1.327 . S
C863 H886 0.950 . S
C864 C863 1.349 . S
C864 C876 1.349 . S
C865 C863 1.327 . S
C865 C881 1.429 . S
C865 H887 0.950 . S
C866 H862 0.949 . S
C866 C874 1.574 . S
C866 C882 1.368 . S
H867 C875 0.950 . S
H868 C873 0.950 . S
H869 C874 0.949 . S
H870 C876 0.950 . S
H871 C877 0.950 . S
H872 C878 0.949 . S
C873 H868 0.950 . S
C873 C875 1.327 . S
C873 C879 1.429 . S
C874 C866 1.574 . S
C874 H869 0.949 . S
C874 C880 1.368 . S
C875 C859 1.349 . S
C875 H867 0.950 . S
C875 C873 1.327 . S
C876 C864 1.349 . S
C876 H870 0.950 . S
C876 C877 1.327 . S
C877 H871 0.950 . S
C877 C876 1.327 . S
C877 C881 1.429 . S
C878 C861 1.574 . S
C878 H872 0.949 . S
C878 C882 1.368 . S
C879 C860 1.429 . S
C879 C873 1.429 . S
C879 C880 1.523 . S
C880 C861 1.368 . S
C880 C874 1.368 . S
C880 C879 1.523 . S
C881 C865 1.429 . S
C881 C877 1.429 . S
C881 C882 1.523 . S
C882 C866 1.368 . S
C882 C878 1.368 . S
C882 C881 1.523 . S
H883 C858 0.950 . S
H884 C860 0.950 . S
H885 C861 0.949 . S
H886 C863 0.950 . S
H887 C865 0.950 . S
C888 C889 1.349 1_545 S
C888 C890 1.327 1_545 S
C888 H913 0.950 . S
C889 C888 1.349 1_565 S
C889 C905 1.349 . S
C890 C888 1.327 1_565 S
C890 C909 1.429 . S
C890 H914 0.950 1_565 S
C891 C908 1.574 . S
C891 C910 1.368 . S
C891 H915 0.949 . S
H892 C896 0.949 . S
C893 C894 1.349 . S
C893 C895 1.327 . S
C893 H916 0.950 . S
C894 C893 1.349 . S
C894 C906 1.349 . S
C895 C893 1.327 . S
C895 C911 1.429 . S
C895 H917 0.950 . S
C896 H892 0.949 . S
C896 C904 1.574 . S
C896 C912 1.368 . S
H897 C905 0.950 . S
H898 C903 0.950 . S
H899 C904 0.949 . S
H900 C906 0.950 . S
H901 C907 0.950 . S
H902 C908 0.949 . S
C903 H898 0.950 . S
C903 C905 1.327 . S
C903 C909 1.429 . S
C904 C896 1.574 . S
C904 H899 0.949 . S
C904 C910 1.368 . S
C905 C889 1.349 . S
C905 H897 0.950 . S
C905 C903 1.327 . S
C906 C894 1.349 . S
C906 H900 0.950 . S
C906 C907 1.327 . S
C907 H901 0.950 . S
C907 C906 1.327 . S
C907 C911 1.429 . S
C908 C891 1.574 . S
C908 H902 0.949 . S
C908 C912 1.368 . S
C909 C890 1.429 . S
C909 C903 1.429 . S
C909 C910 1.523 . S
C910 C891 1.368 . S
C910 C904 1.368 . S
C910 C909 1.523 . S
C911 C895 1.429 . S
C911 C907 1.429 . S
C911 C912 1.523 . S
C912 C896 1.368 . S
C912 C908 1.368 . S
C912 C911 1.523 . S
H913 C888 0.950 . S
H914 C890 0.950 1_545 S
H915 C891 0.949 . S
H916 C893 0.950 . S
H917 C895 0.950 . S
C918 C919 1.349 . S
C918 C920 1.327 . S
C918 H943 0.950 . S
C919 C918 1.349 . S
C919 C935 1.349 . S
C920 C918 1.327 . S
C920 C939 1.429 . S
C920 H944 0.950 . S
C921 C938 1.574 . S
C921 C940 1.368 . S
C921 H945 0.949 . S
H922 C926 0.949 . S
C923 C924 1.349 . S
C923 C925 1.327 . S
C923 H946 0.950 . S
C924 C923 1.349 . S
C924 C936 1.349 . S
C925 C923 1.327 . S
C925 C941 1.429 . S
C925 H947 0.950 . S
C926 H922 0.949 . S
C926 C934 1.574 . S
C926 C942 1.368 . S
H927 C935 0.950 . S
H928 C933 0.950 . S
H929 C934 0.949 . S
H930 C936 0.950 . S
H931 C937 0.950 . S
H932 C938 0.949 . S
C933 H928 0.950 . S
C933 C935 1.327 . S
C933 C939 1.429 . S
C934 C926 1.574 . S
C934 H929 0.949 . S
C934 C940 1.368 . S
C935 C919 1.349 . S
C935 H927 0.950 . S
C935 C933 1.327 . S
C936 C924 1.349 . S
C936 H930 0.950 . S
C936 C937 1.327 . S
C937 H931 0.950 . S
C937 C936 1.327 . S
C937 C941 1.429 . S
C938 C921 1.574 . S
C938 H932 0.949 . S
C938 C942 1.368 . S
C939 C920 1.429 . S
C939 C933 1.429 . S
C939 C940 1.523 . S
C940 C921 1.368 . S
C940 C934 1.368 . S
C940 C939 1.523 . S
C941 C925 1.429 . S
C941 C937 1.429 . S
C941 C942 1.523 . S
C942 C926 1.368 . S
C942 C938 1.368 . S
C942 C941 1.523 . S
H943 C918 0.950 . S
H944 C920 0.950 . S
H945 C921 0.949 . S
H946 C923 0.950 . S
H947 C925 0.950 . S
C948 C949 1.349 1_455 S
C948 C950 1.327 1_455 S
C948 H973 0.950 . S
C949 C948 1.349 1_655 S
C949 C965 1.349 . S
C950 C948 1.327 1_655 S
C950 C969 1.429 . S
C950 H974 0.950 1_655 S
C951 C968 1.574 . S
C951 C970 1.368 . S
C951 H975 0.949 . S
H952 C956 0.949 . S
C953 C954 1.349 . S
C953 C955 1.327 . S
C953 H976 0.950 . S
C954 C953 1.349 . S
C954 C966 1.349 . S
C955 C953 1.327 . S
C955 C971 1.429 . S
C955 H977 0.950 . S
C956 H952 0.949 . S
C956 C964 1.574 . S
C956 C972 1.368 . S
H957 C965 0.950 . S
H958 C963 0.950 . S
H959 C964 0.954 . S
H960 C966 0.950 . S
H961 C967 0.950 . S
H962 C968 0.949 . S
C963 H958 0.950 . S
C963 C965 1.327 . S
C963 C969 1.429 . S
C964 C956 1.574 . S
C964 H959 0.954 . S
C964 C970 1.368 . S
C965 C949 1.349 . S
C965 H957 0.950 . S
C965 C963 1.327 . S
C966 C954 1.349 . S
C966 H960 0.950 . S
C966 C967 1.327 . S
C967 H961 0.950 . S
C967 C966 1.327 . S
C967 C971 1.429 . S
C968 C951 1.574 . S
C968 H962 0.949 . S
C968 C972 1.368 . S
C969 C950 1.429 . S
C969 C963 1.429 . S
C969 C970 1.523 . S
C970 C951 1.368 . S
C970 C964 1.368 . S
C970 C969 1.523 . S
C971 C955 1.429 . S
C971 C967 1.429 . S
C971 C972 1.523 . S
C972 C956 1.368 . S
C972 C968 1.368 . S
C972 C971 1.523 . S
H973 C948 0.950 . S
H974 C950 0.950 1_455 S
H975 C951 0.949 . S
H976 C953 0.950 . S
H977 C955 0.950 . S
C978 C979 1.349 . S
C978 C980 1.327 . S
C978 H1003 0.950 . S
C979 C978 1.349 . S
C979 C995 1.349 . S
C980 C978 1.327 . S
C980 C999 1.429 . S
C980 H1004 0.950 . S
C981 C998 1.574 . S
C981 C1000 1.368 . S
C981 H1005 0.949 . S
H982 C986 0.949 . S
C983 C984 1.349 . S
C983 C985 1.327 . S
C983 H1006 0.950 . S
C984 C983 1.349 . S
C984 C996 1.349 . S
C985 C983 1.327 . S
C985 C1001 1.429 . S
C985 H1007 0.950 . S
C986 H982 0.949 . S
C986 C994 1.574 . S
C986 C1002 1.368 . S
H987 C995 0.950 . S
H988 C993 0.950 . S
H989 C994 0.949 . S
H990 C996 0.950 . S
H991 C997 0.950 . S
H992 C998 0.949 . S
C993 H988 0.950 . S
C993 C995 1.327 . S
C993 C999 1.429 . S
C994 C986 1.574 . S
C994 H989 0.949 . S
C994 C1000 1.368 . S
C995 C979 1.349 . S
C995 H987 0.950 . S
C995 C993 1.327 . S
C996 C984 1.349 . S
C996 H990 0.950 . S
C996 C997 1.327 . S
C997 H991 0.950 . S
C997 C996 1.327 . S
C997 C1001 1.429 . S
C998 C981 1.574 . S
C998 H992 0.949 . S
C998 C1002 1.368 . S
C999 C980 1.429 . S
C999 C993 1.429 . S
C999 C1000 1.523 . S
C1000 C981 1.368 . S
C1000 C994 1.368 . S
C1000 C999 1.523 . S
C1001 C985 1.429 . S
C1001 C997 1.429 . S
C1001 C1002 1.523 . S
C1002 C986 1.368 . S
C1002 C998 1.368 . S
C1002 C1001 1.523 . S
H1003 C978 0.950 . S
H1004 C980 0.950 . S
H1005 C981 0.949 . S
H1006 C983 0.950 . S
H1007 C985 0.950 . S
C1008 C1009 1.349 . S
C1008 C1010 1.327 . S
C1008 H1033 0.950 . S
C1009 C1008 1.349 . S
C1009 C1025 1.349 . S
C1010 C1008 1.327 . S
C1010 C1029 1.429 . S
C1010 H1034 0.950 . S
C1011 C1028 1.574 . S
C1011 C1030 1.368 . S
C1011 H1035 0.949 . S
H1012 C1016 0.949 . S
C1013 C1014 1.349 . S
C1013 C1015 1.327 . S
C1013 H1036 0.950 . S
C1014 C1013 1.349 . S
C1014 C1026 1.349 . S
C1015 C1013 1.327 . S
C1015 C1031 1.429 . S
C1015 H1037 0.950 . S
C1016 H1012 0.949 . S
C1016 C1024 1.574 . S
C1016 C1032 1.368 . S
H1017 C1025 0.950 . S
H1018 C1023 0.950 . S
H1019 C1024 0.949 . S
H1020 C1026 0.950 . S
H1021 C1027 0.950 . S
H1022 C1028 0.949 . S
C1023 H1018 0.950 . S
C1023 C1025 1.327 . S
C1023 C1029 1.429 . S
C1024 C1016 1.574 . S
C1024 H1019 0.949 . S
C1024 C1030 1.368 . S
C1025 C1009 1.349 . S
C1025 H1017 0.950 . S
C1025 C1023 1.327 . S
C1026 C1014 1.349 . S
C1026 H1020 0.950 . S
C1026 C1027 1.327 . S
C1027 H1021 0.950 . S
C1027 C1026 1.327 . S
C1027 C1031 1.429 . S
C1028 C1011 1.574 . S
C1028 H1022 0.949 . S
C1028 C1032 1.368 . S
C1029 C1010 1.429 . S
C1029 C1023 1.429 . S
C1029 C1030 1.523 . S
C1030 C1011 1.368 . S
C1030 C1024 1.368 . S
C1030 C1029 1.523 . S
C1031 C1015 1.429 . S
C1031 C1027 1.429 . S
C1031 C1032 1.523 . S
C1032 C1016 1.368 . S
C1032 C1028 1.368 . S
C1032 C1031 1.523 . S
H1033 C1008 0.950 . S
H1034 C1010 0.950 . S
H1035 C1011 0.949 . S
H1036 C1013 0.950 . S
H1037 C1015 0.950 . S
C1038 C1039 1.349 . S
C1038 C1040 1.327 . S
C1038 H1063 0.950 . S
C1039 C1038 1.349 . S
C1039 C1055 1.349 . S
C1040 C1038 1.327 . S
C1040 C1059 1.429 . S
C1040 H1064 0.950 . S
C1041 C1058 1.574 . S
C1041 C1060 1.368 1_545 S
C1041 H1065 0.949 . S
H1042 C1046 0.949 . S
C1043 C1044 1.349 . S
C1043 C1045 1.327 . S
C1043 H1066 0.950 . S
C1044 C1043 1.349 . S
C1044 C1056 1.349 . S
C1045 C1043 1.327 . S
C1045 C1061 1.429 . S
C1045 H1067 0.950 . S
C1046 H1042 0.949 . S
C1046 C1054 1.574 . S
C1046 C1062 1.368 1_565 S
H1047 C1055 0.950 . S
H1048 C1053 0.950 . S
H1049 C1054 0.949 . S
H1050 C1056 0.950 . S
H1051 C1057 0.950 . S
H1052 C1058 0.949 . S
C1053 H1048 0.950 . S
C1053 C1055 1.327 1_545 S
C1053 C1059 1.429 1_545 S
C1054 C1046 1.574 . S
C1054 H1049 0.949 . S
C1054 C1060 1.368 . S
C1055 C1039 1.349 . S
C1055 H1047 0.950 . S
C1055 C1053 1.327 1_565 S
C1056 C1044 1.349 . S
C1056 H1050 0.950 . S
C1056 C1057 1.327 . S
C1057 H1051 0.950 . S
C1057 C1056 1.327 . S
C1057 C1061 1.429 . S
C1058 C1041 1.574 . S
C1058 H1052 0.949 . S
C1058 C1062 1.368 . S
C1059 C1040 1.429 . S
C1059 C1053 1.429 1_565 S
C1059 C1060 1.523 . S
C1060 C1041 1.368 1_565 S
C1060 C1054 1.368 . S
C1060 C1059 1.523 . S
C1061 C1045 1.429 . S
C1061 C1057 1.429 . S
C1061 C1062 1.523 . S
C1062 C1046 1.368 1_545 S
C1062 C1058 1.368 . S
C1062 C1061 1.523 . S
H1063 C1038 0.950 . S
H1064 C1040 0.950 . S
H1065 C1041 0.949 . S
H1066 C1043 0.950 . S
H1067 C1045 0.950 . S
C1068 C1069 1.349 . S
C1068 C1070 1.327 . S
C1068 H1093 0.950 . S
C1069 C1068 1.349 . S
C1069 C1085 1.349 . S
C1070 C1068 1.327 . S
C1070 C1089 1.429 . S
C1070 H1094 0.950 1_655 S
C1071 C1088 1.574 . S
C1071 C1090 1.368 . S
C1071 H1095 0.949 . S
H1072 C1076 0.949 . S
C1073 C1074 1.349 . S
C1073 C1075 1.327 . S
C1073 H1096 0.950 . S
C1074 C1073 1.349 . S
C1074 C1086 1.349 . S
C1075 C1073 1.327 . S
C1075 C1091 1.429 . S
C1075 H1097 0.950 . S
C1076 H1072 0.949 . S
C1076 C1084 1.574 . S
C1076 C1092 1.368 . S
H1077 C1085 0.950 . S
H1078 C1083 0.950 . S
H1079 C1084 0.949 . S
H1080 C1086 0.950 . S
H1081 C1087 0.950 . S
H1082 C1088 0.949 . S
C1083 H1078 0.950 . S
C1083 C1085 1.327 . S
C1083 C1089 1.429 . S
C1084 C1076 1.574 . S
C1084 H1079 0.949 . S
C1084 C1090 1.368 1_455 S
C1085 C1069 1.349 . S
C1085 H1077 0.950 . S
C1085 C1083 1.327 . S
C1086 C1074 1.349 . S
C1086 H1080 0.950 . S
C1086 C1087 1.327 . S
C1087 H1081 0.950 . S
C1087 C1086 1.327 . S
C1087 C1091 1.429 . S
C1088 C1071 1.574 . S
C1088 H1082 0.949 . S
C1088 C1092 1.368 1_655 S
C1089 C1070 1.429 . S
C1089 C1083 1.429 . S
C1089 C1090 1.523 . S
C1090 C1071 1.368 . S
C1090 C1084 1.368 1_655 S
C1090 C1089 1.523 . S
C1091 C1075 1.429 . S
C1091 C1087 1.429 . S
C1091 C1092 1.523 . S
C1092 C1076 1.368 . S
C1092 C1088 1.368 1_455 S
C1092 C1091 1.523 . S
H1093 C1068 0.950 . S
H1094 C1070 0.950 1_455 S
H1095 C1071 0.949 . S
H1096 C1073 0.950 . S
H1097 C1075 0.950 . S
C289 C36 0.965 . S
C294 C2 0.958 . S
C319 C93 0.965 . S
C324 C34 0.958 . S
C349 C70 0.958 . S
C354 C4 0.965 . S
C379 C66 0.958 . S
C384 C61 0.965 . S
C409 C68 0.965 . S
C414 C6 0.958 . S
C439 C29 0.965 . S
C444 C38 0.958 . S
C469 C98 0.958 . S
C474 C157 0.965 . S
C499 C164 0.965 . S
C504 C134 0.958 . S
C529 C162 0.957 . S
C534 C100 0.964 . S
C559 C132 0.965 . S
C564 C166 0.958 . S
C589 C189 0.965 . S
C594 C102 0.958 . S
C619 C130 0.957 . S
C624 C125 0.965 . S
C649 C253 0.965 . S
C654 C198 0.958 . S
C679 C230 0.957 . S
C684 C260 0.965 . S
C709 C258 0.958 . S
C714 C221 0.965 . S
C739 C262 0.958 . S
C744 C228 0.965 . S
C769 C285 0.965 . S
C774 C194 0.958 . S
C799 C196 0.965 . S
C804 C226 0.958 . S
C829 N173 1.912 . S
C834 N18 1.912 . S
C859 N109 1.911 . S
C864 N50 1.911 . S
C889 N77 1.912 . S
C894 N146 1.912 . S
C919 N82 1.912 . S
C924 N205 1.912 . S
C949 N13 1.911 . S
C954 N237 1.911 . S
C979 N274 1.912 . S
C984 N45 1.912 . S
C1009 N114 1.912 . S
C1014 N269 1.912 . S
C1039 N141 1.911 . S
C1044 N210 1.911 . S
C1069 N242 1.912 . S
C1074 N178 1.912 . S
