# Generated by pormake.
# Topology wiv, (6)-cn, num edge types: 1
# Building blocks:
#     Node 0, Type 0, BuildingBlock: INOVEN_clean_sbu_0, # of connection points: 6
#     Node 1, Type 0, BuildingBlock: INOVEN_clean_sbu_0, # of connection points: 6
#     Node 2, Type 0, BuildingBlock: INOVEN_clean_sbu_0, # of connection points: 6
#     Node 3, Type 0, BuildingBlock: INOVEN_clean_sbu_0, # of connection points: 6
#     Node 4, Type 0, BuildingBlock: INOVEN_clean_sbu_0, # of connection points: 6
#     Node 5, Type 0, BuildingBlock: INOVEN_clean_sbu_0, # of connection points: 6
#     Node 6, Type 0, BuildingBlock: INOVEN_clean_sbu_0, # of connection points: 6
#     Node 7, Type 0, BuildingBlock: INOVEN_clean_sbu_0, # of connection points: 6
#     Node 8, Type 0, BuildingBlock: INOVEN_clean_sbu_0, # of connection points: 6
#     Node 9, Type 0, BuildingBlock: INOVEN_clean_sbu_0, # of connection points: 6
#     Node 10, Type 0, BuildingBlock: INOVEN_clean_sbu_0, # of connection points: 6
#     Node 11, Type 0, BuildingBlock: INOVEN_clean_sbu_0, # of connection points: 6
#     Node 12, Type 0, BuildingBlock: INOVEN_clean_sbu_0, # of connection points: 6
#     Node 13, Type 0, BuildingBlock: INOVEN_clean_sbu_0, # of connection points: 6
#     Node 14, Type 0, BuildingBlock: INOVEN_clean_sbu_0, # of connection points: 6
#     Node 15, Type 0, BuildingBlock: INOVEN_clean_sbu_0, # of connection points: 6
#     Edge 16, Type (0, 0), BuildingBlock: CIFDUS_clean_linker_0, # of connection points: 2
#     Edge 17, Type (0, 0), BuildingBlock: CIFDUS_clean_linker_0, # of connection points: 2
#     Edge 18, Type (0, 0), BuildingBlock: CIFDUS_clean_linker_0, # of connection points: 2
#     Edge 19, Type (0, 0), BuildingBlock: CIFDUS_clean_linker_0, # of connection points: 2
#     Edge 20, Type (0, 0), BuildingBlock: CIFDUS_clean_linker_0, # of connection points: 2
#     Edge 21, Type (0, 0), BuildingBlock: CIFDUS_clean_linker_0, # of connection points: 2
#     Edge 22, Type (0, 0), BuildingBlock: CIFDUS_clean_linker_0, # of connection points: 2
#     Edge 23, Type (0, 0), BuildingBlock: CIFDUS_clean_linker_0, # of connection points: 2
#     Edge 24, Type (0, 0), BuildingBlock: CIFDUS_clean_linker_0, # of connection points: 2
#     Edge 25, Type (0, 0), BuildingBlock: CIFDUS_clean_linker_0, # of connection points: 2
#     Edge 26, Type (0, 0), BuildingBlock: CIFDUS_clean_linker_0, # of connection points: 2
#     Edge 27, Type (0, 0), BuildingBlock: CIFDUS_clean_linker_0, # of connection points: 2
#     Edge 28, Type (0, 0), BuildingBlock: CIFDUS_clean_linker_0, # of connection points: 2
#     Edge 29, Type (0, 0), BuildingBlock: CIFDUS_clean_linker_0, # of connection points: 2
#     Edge 30, Type (0, 0), BuildingBlock: CIFDUS_clean_linker_0, # of connection points: 2
#     Edge 31, Type (0, 0), BuildingBlock: CIFDUS_clean_linker_0, # of connection points: 2
#     Edge 32, Type (0, 0), BuildingBlock: CIFDUS_clean_linker_0, # of connection points: 2
#     Edge 33, Type (0, 0), BuildingBlock: CIFDUS_clean_linker_0, # of connection points: 2
#     Edge 34, Type (0, 0), BuildingBlock: CIFDUS_clean_linker_0, # of connection points: 2
#     Edge 35, Type (0, 0), BuildingBlock: CIFDUS_clean_linker_0, # of connection points: 2
#     Edge 36, Type (0, 0), BuildingBlock: CIFDUS_clean_linker_0, # of connection points: 2
#     Edge 37, Type (0, 0), BuildingBlock: CIFDUS_clean_linker_0, # of connection points: 2
#     Edge 38, Type (0, 0), BuildingBlock: CIFDUS_clean_linker_0, # of connection points: 2
#     Edge 39, Type (0, 0), BuildingBlock: CIFDUS_clean_linker_0, # of connection points: 2
#     Edge 40, Type (0, 0), BuildingBlock: CIFDUS_clean_linker_0, # of connection points: 2
#     Edge 41, Type (0, 0), BuildingBlock: CIFDUS_clean_linker_0, # of connection points: 2
#     Edge 42, Type (0, 0), BuildingBlock: CIFDUS_clean_linker_0, # of connection points: 2
#     Edge 43, Type (0, 0), BuildingBlock: CIFDUS_clean_linker_0, # of connection points: 2
#     Edge 44, Type (0, 0), BuildingBlock: CIFDUS_clean_linker_0, # of connection points: 2
#     Edge 45, Type (0, 0), BuildingBlock: CIFDUS_clean_linker_0, # of connection points: 2
#     Edge 46, Type (0, 0), BuildingBlock: CIFDUS_clean_linker_0, # of connection points: 2
#     Edge 47, Type (0, 0), BuildingBlock: CIFDUS_clean_linker_0, # of connection points: 2
#     Edge 48, Type (0, 0), BuildingBlock: CIFDUS_clean_linker_0, # of connection points: 2
#     Edge 49, Type (0, 0), BuildingBlock: CIFDUS_clean_linker_0, # of connection points: 2
#     Edge 50, Type (0, 0), BuildingBlock: CIFDUS_clean_linker_0, # of connection points: 2
#     Edge 51, Type (0, 0), BuildingBlock: CIFDUS_clean_linker_0, # of connection points: 2
#     Edge 52, Type (0, 0), BuildingBlock: CIFDUS_clean_linker_0, # of connection points: 2
#     Edge 53, Type (0, 0), BuildingBlock: CIFDUS_clean_linker_0, # of connection points: 2
#     Edge 54, Type (0, 0), BuildingBlock: CIFDUS_clean_linker_0, # of connection points: 2
#     Edge 55, Type (0, 0), BuildingBlock: CIFDUS_clean_linker_0, # of connection points: 2
#     Edge 56, Type (0, 0), BuildingBlock: CIFDUS_clean_linker_0, # of connection points: 2
#     Edge 57, Type (0, 0), BuildingBlock: CIFDUS_clean_linker_0, # of connection points: 2
#     Edge 58, Type (0, 0), BuildingBlock: CIFDUS_clean_linker_0, # of connection points: 2
#     Edge 59, Type (0, 0), BuildingBlock: CIFDUS_clean_linker_0, # of connection points: 2
#     Edge 60, Type (0, 0), BuildingBlock: CIFDUS_clean_linker_0, # of connection points: 2
#     Edge 61, Type (0, 0), BuildingBlock: CIFDUS_clean_linker_0, # of connection points: 2
#     Edge 62, Type (0, 0), BuildingBlock: CIFDUS_clean_linker_0, # of connection points: 2
#     Edge 63, Type (0, 0), BuildingBlock: CIFDUS_clean_linker_0, # of connection points: 2
# Relax obj value: 0.129
# Max RMSD: 0.191
# Mean RMSD: 0.191
data_MOF--net-wiv--node1-INOVEN_clean_sbu_0--edge1-CIFDUS_clean_linker_0
_symmetry_space_group_name_H-M    P1
_symmetry_Int_Tables_number       1
_symmetry_cell_setting            triclinic
loop_
_symmetry_equiv_pos_as_xyz
'x, y, z'
_cell_length_a     43.92747
_cell_length_b     43.751182
_cell_length_c     22.855837
_cell_angle_alpha  89.975629
_cell_angle_beta   89.819262
_cell_angle_gamma 89.888198
loop_
_atom_site_label
_atom_site_type_symbol
_atom_site_fract_x
_atom_site_fract_y
_atom_site_fract_z
_atom_type_partial_charge
Gd0 Gd 0.32725 0.10423 0.18565 0.0
Gd1 Gd 0.37316 0.10596 0.09024 0.0
C2 C 0.39992 0.11754 0.21571 0.0
C3 C 0.30033 0.09572 0.28586 0.0
C4 C 0.31005 0.09488 0.34811 0.0
C5 C 0.29212 0.10926 0.39097 0.0
C6 C 0.3372 0.08045 0.36539 0.0
C7 C 0.32784 0.09427 0.46779 0.0
C8 C 0.34598 0.08017 0.42441 0.0
C9 C 0.30079 0.10891 0.45004 0.0
C10 C 0.3308 0.15945 0.13353 0.0
C11 C 0.3013 0.09527 0.05606 0.0
C12 C 0.39987 0.11445 0.99002 0.0
C13 C 0.38952 0.11537 0.92807 0.0
C14 C 0.4067 0.10069 0.88439 0.0
C15 C 0.3623 0.13007 0.91199 0.0
C16 C 0.3697 0.1154 0.8095 0.0
C17 C 0.35253 0.13007 0.85357 0.0
C18 C 0.39697 0.1007 0.82591 0.0
C19 C 0.3705 0.05201 0.14897 0.0
O20 O 0.37272 0.10822 0.23372 0.0
O21 O 0.40556 0.12192 0.15948 0.0
O22 O 0.30179 0.12226 0.2599 0.0
O23 O 0.30949 0.07343 0.25198 0.0
O24 O 0.30564 0.14577 0.1476 0.0
O25 O 0.35348 0.14276 0.14647 0.0
O26 O 0.32886 0.10385 0.04008 0.0
O27 O 0.29478 0.09069 0.11225 0.0
O28 O 0.39852 0.08786 1.01597 0.0
O29 O 0.39108 0.13684 1.02422 0.0
O30 O 0.39554 0.06424 0.12993 0.0
O31 O 0.34795 0.068 0.13308 0.0
H32 H 0.27131 0.12083 0.37857 0.0
H33 H 0.35176 0.06949 0.33328 0.0
H34 H 0.36723 0.06916 0.43591 0.0
H35 H 0.28602 0.11976 0.48189 0.0
H36 H 0.42776 0.08918 0.89553 0.0
H37 H 0.34834 0.14135 0.94464 0.0
H38 H 0.3312 0.14123 0.84318 0.0
H39 H 0.41112 0.08956 0.79342 0.0
Gd40 Gd 0.10116 0.62393 0.98734 0.0
Gd41 Gd 0.10611 0.66645 0.89015 0.0
C42 C 0.09883 0.69664 1.01752 0.0
C43 C 0.10427 0.59617 0.08736 0.0
C44 C 0.10745 0.60595 0.14899 0.0
C45 C 0.08954 0.59213 0.19241 0.0
C46 C 0.12741 0.62958 0.16488 0.0
C47 C 0.11117 0.62562 0.26692 0.0
C48 C 0.12935 0.6392 0.22316 0.0
C49 C 0.0913 0.60188 0.25065 0.0
C50 C 0.04871 0.63072 0.92468 0.0
C51 C 0.1132 0.59187 0.86682 0.0
C52 C 0.10174 0.69371 0.78972 0.0
C53 C 0.10126 0.6832 0.72833 0.0
C54 C 0.11978 0.6977 0.68671 0.0
C55 C 0.08369 0.65795 0.71122 0.0
C56 C 0.1036 0.66158 0.61162 0.0
C57 C 0.08471 0.64739 0.65348 0.0
C58 C 0.12105 0.68697 0.62909 0.0
C59 C 0.16053 0.65836 0.94265 0.0
O60 O 0.10474 0.66875 0.03595 0.0
O61 O 0.0952 0.70197 0.96071 0.0
O62 O 0.07855 0.6032 0.06209 0.0
O63 O 0.12781 0.60033 0.05306 0.0
O64 O 0.05855 0.60484 0.94492 0.0
O65 O 0.06644 0.6519 0.94044 0.0
O66 O 0.10709 0.61926 0.84431 0.0
O67 O 0.11562 0.58831 0.9238 0.0
O68 O 0.12748 0.69003 0.81716 0.0
O69 O 0.07827 0.68674 0.82226 0.0
O70 O 0.14887 0.68459 0.92852 0.0
O71 O 0.14139 0.63725 0.93242 0.0
H72 H 0.07381 0.57404 0.1811 0.0
H73 H 0.14138 0.64081 0.13222 0.0
H74 H 0.1452 0.65726 0.23383 0.0
H75 H 0.07648 0.59123 0.28262 0.0
H76 H 0.13369 0.71707 0.69905 0.0
H77 H 0.0693 0.64618 0.74252 0.0
H78 H 0.07052 0.62816 0.6417 0.0
H79 H 0.13626 0.69824 0.59865 0.0
Gd80 Gd 0.67764 0.89885 0.18249 0.0
Gd81 Gd 0.63153 0.90113 0.08802 0.0
C82 C 0.60448 0.89142 0.21383 0.0
C83 C 0.70547 0.9044 0.28217 0.0
C84 C 0.69563 0.90611 0.34438 0.0
C85 C 0.7103 0.88802 0.38656 0.0
C86 C 0.67088 0.92438 0.36192 0.0
C87 C 0.67497 0.90552 0.46254 0.0
C88 C 0.66074 0.92414 0.42021 0.0
C89 C 0.70013 0.88769 0.44482 0.0
C90 C 0.66977 0.84455 0.12861 0.0
C91 C 0.70381 0.90731 0.05291 0.0
C92 C 0.60463 0.89446 0.98796 0.0
C93 C 0.61544 0.89377 0.92612 0.0
C94 C 0.60099 0.91188 0.88369 0.0
C95 C 0.64065 0.87596 0.90905 0.0
C96 C 0.63678 0.89455 0.80819 0.0
C97 C 0.65106 0.87624 0.85095 0.0
C98 C 0.61151 0.91233 0.82561 0.0
C99 C 0.63762 0.95446 0.14755 0.0
O100 O 0.63216 0.89935 0.231 0.0
O101 O 0.59852 0.88673 0.1579 0.0
O102 O 0.70111 0.8782 0.25626 0.0
O103 O 0.69886 0.92758 0.2483 0.0
O104 O 0.69597 0.85577 0.14311 0.0
O105 O 0.64852 0.86271 0.14303 0.0
O106 O 0.67564 0.90163 0.03674 0.0
O107 O 0.7109 0.91011 0.10912 0.0
O108 O 0.60659 0.92074 1.01487 0.0
O109 O 0.61242 0.87147 1.02153 0.0
O110 O 0.61196 0.94402 0.12791 0.0
O111 O 0.6593 0.93714 0.13156 0.0
H112 H 0.72937 0.87364 0.37416 0.0
H113 H 0.65903 0.93857 0.33046 0.0
H114 H 0.64167 0.93862 0.43198 0.0
H115 H 0.71153 0.87275 0.47555 0.0
H116 H 0.58168 0.92602 0.89566 0.0
H117 H 0.65248 0.86185 0.94065 0.0
H118 H 0.67027 0.86186 0.83964 0.0
H119 H 0.60015 0.92719 0.79468 0.0
Gd120 Gd 0.89562 0.37977 0.9746 0.0
Gd121 Gd 0.89565 0.33301 0.87889 0.0
C122 C 0.90419 0.30727 1.00911 0.0
C123 C 0.8871 0.40717 0.07421 0.0
C124 C 0.88786 0.39877 0.13747 0.0
C125 C 0.90328 0.41771 0.17704 0.0
C126 C 0.87342 0.37238 0.15926 0.0
C127 C 0.88924 0.38462 0.25935 0.0
C128 C 0.87413 0.36539 0.21936 0.0
C129 C 0.90403 0.41075 0.23695 0.0
C130 C 0.94957 0.37475 0.91665 0.0
C131 C 0.88415 0.40655 0.84834 0.0
C132 C 0.90509 0.3052 0.77968 0.0
C133 C 0.9023 0.31235 0.71609 0.0
C134 C 0.88627 0.29241 0.67922 0.0
C135 C 0.91565 0.33854 0.69127 0.0
C136 C 0.89709 0.32467 0.59398 0.0
C137 C 0.91307 0.34464 0.6312 0.0
C138 C 0.88367 0.29845 0.61907 0.0
C139 C 0.83972 0.34158 0.92689 0.0
O140 O 0.89693 0.33531 1.02508 0.0
O141 O 0.90807 0.30037 0.95296 0.0
O142 O 0.91316 0.40719 0.04639 0.0
O143 O 0.86492 0.39606 0.04249 0.0
O144 O 0.93833 0.40029 0.93589 0.0
O145 O 0.93231 0.35277 0.93142 0.0
O146 O 0.89064 0.3784 0.83048 0.0
O147 O 0.88115 0.41292 0.90468 0.0
O148 O 0.87977 0.30292 0.80946 0.0
O149 O 0.92644 0.31915 0.80914 0.0
O150 O 0.85126 0.31521 0.9128 0.0
O151 O 0.859 0.36238 0.9162 0.0
H152 H 0.91477 0.43807 0.16156 0.0
H153 H 0.86144 0.35717 0.12993 0.0
H154 H 0.86229 0.34519 0.23455 0.0
H155 H 0.91648 0.42586 0.2657 0.0
H156 H 0.87572 0.27206 0.69701 0.0
H157 H 0.92829 0.35431 0.71808 0.0
H158 H 0.92418 0.36478 0.61384 0.0
H159 H 0.87085 0.28263 0.59238 0.0
Gd160 Gd 0.33084 0.39566 0.12807 0.0
Gd161 Gd 0.37667 0.39723 0.22545 0.0
C162 C 0.40456 0.386 0.09949 0.0
C163 C 0.30173 0.40267 1.02962 0.0
C164 C 0.30872 0.40375 0.96602 0.0
C165 C 0.28517 0.3998 0.92541 0.0
C166 C 0.33858 0.40753 0.94511 0.0
C167 C 0.32119 0.40343 0.84362 0.0
C168 C 0.34473 0.40754 0.88476 0.0
C169 C 0.29128 0.39956 0.86509 0.0
C170 C 0.33898 0.34055 0.1793 0.0
C171 C 0.30393 0.40476 0.25803 0.0
C172 C 0.40374 0.3885 0.32505 0.0
C173 C 0.39533 0.38944 0.38812 0.0
C174 C 0.4171 0.3984 0.42946 0.0
C175 C 0.36602 0.38149 0.40788 0.0
C176 C 0.38065 0.3911 0.50943 0.0
C177 C 0.35869 0.38252 0.46778 0.0
C178 C 0.40992 0.39913 0.48929 0.0
C179 C 0.37088 0.45079 0.16678 0.0
O180 O 0.37671 0.39247 0.08058 0.0
O181 O 0.41043 0.38344 0.15604 0.0
O182 O 0.30567 0.37633 0.05532 0.0
O183 O 0.31102 0.42548 0.06191 0.0
O184 O 0.31281 0.35221 0.16521 0.0
O185 O 0.35997 0.3596 0.16803 0.0
O186 O 0.33211 0.39973 0.27532 0.0
O187 O 0.29724 0.40669 0.20145 0.0
O188 O 0.40403 0.41464 0.29728 0.0
O189 O 0.39212 0.36639 0.29363 0.0
O190 O 0.39635 0.4409 0.18836 0.0
O191 O 0.34936 0.43294 0.18073 0.0
H192 H 0.26196 0.39656 0.94037 0.0
H193 H 0.35724 0.41034 0.97528 0.0
H194 H 0.36798 0.41106 0.8705 0.0
H195 H 0.2725 0.39578 0.83541 0.0
H196 H 0.43982 0.40473 0.41545 0.0
H197 H 0.34881 0.37422 0.37713 0.0
H198 H 0.33604 0.37589 0.48158 0.0
H199 H 0.42733 0.40621 0.51986 0.0
Gd200 Gd 0.39578 0.62912 0.84459 0.0
Gd201 Gd 0.39491 0.67583 0.93889 0.0
C202 C 0.40357 0.70107 0.80845 0.0
C203 C 0.38963 0.60168 0.74446 0.0
C204 C 0.38969 0.61083 0.68155 0.0
C205 C 0.41185 0.63067 0.65822 0.0
C206 C 0.36756 0.59899 0.64371 0.0
C207 C 0.39044 0.62542 0.55981 0.0
C208 C 0.36785 0.60621 0.58386 0.0
C209 C 0.41221 0.63788 0.59822 0.0
C210 C 0.44901 0.63384 0.90461 0.0
C211 C 0.38373 0.60242 0.96958 0.0
C212 C 0.40161 0.70414 0.03814 0.0
C213 C 0.40273 0.69522 0.1011 0.0
C214 C 0.38044 0.67616 0.12623 0.0
C215 C 0.42581 0.70668 0.1373 0.0
C216 C 0.40345 0.68159 0.22313 0.0
C217 C 0.42618 0.7 0.19742 0.0
C218 C 0.3808 0.66945 0.18635 0.0
C219 C 0.3403 0.66951 0.88605 0.0
O220 O 0.3954 0.67324 0.79353 0.0
O221 O 0.4084 0.70797 0.86432 0.0
O222 O 0.41546 0.60351 0.77252 0.0
O223 O 0.36648 0.61067 0.77636 0.0
O224 O 0.43807 0.60831 0.88514 0.0
O225 O 0.43223 0.65587 0.88859 0.0
O226 O 0.39206 0.63006 0.98732 0.0
O227 O 0.37971 0.5965 0.91346 0.0
O228 O 0.37552 0.70113 1.01157 0.0
O229 O 0.42455 0.69609 1.00495 0.0
O230 O 0.35295 0.69543 0.89892 0.0
O231 O 0.35786 0.64762 0.90004 0.0
H232 H 0.42914 0.64042 0.68623 0.0
H233 H 0.35008 0.58385 0.66042 0.0
H234 H 0.35024 0.59665 0.5564 0.0
H235 H 0.43007 0.65261 0.58178 0.0
H236 H 0.3624 0.66671 0.09961 0.0
H237 H 0.44345 0.72115 0.11915 0.0
H238 H 0.44437 0.7093 0.22381 0.0
H239 H 0.36278 0.65537 0.20421 0.0
Gd240 Gd 0.67403 0.60156 0.12322 0.0
Gd241 Gd 0.62669 0.60925 0.22639 0.0
C242 C 0.60157 0.62069 0.09827 0.0
C243 C 0.69715 0.57855 1.02852 0.0
C244 C 0.68941 0.58162 0.96523 0.0
C245 C 0.71153 0.59064 0.92404 0.0
C246 C 0.65979 0.57537 0.94524 0.0
C247 C 0.67469 0.58621 0.84428 0.0
C248 C 0.65258 0.57758 0.88579 0.0
C249 C 0.70423 0.59305 0.86426 0.0
C250 C 0.66613 0.66226 0.14429 0.0
C251 C 0.69974 0.59814 0.25659 0.0
C252 C 0.60172 0.62097 0.32681 0.0
C253 C 0.6127 0.6216 0.3883 0.0
C254 C 0.59463 0.60904 0.43294 0.0
C255 C 0.64158 0.6331 0.4028 0.0
C256 C 0.63442 0.61857 0.50548 0.0
C257 C 0.65227 0.63164 0.46059 0.0
C258 C 0.60526 0.6076 0.49071 0.0
C259 C 0.62713 0.55458 0.16975 0.0
O260 O 0.62777 0.60873 0.07948 0.0
O261 O 0.59665 0.62693 0.15435 0.0
O262 O 0.70881 0.60247 0.05465 0.0
O263 O 0.67722 0.56432 0.06132 0.0
O264 O 0.68494 0.65098 0.1062 0.0
O265 O 0.65342 0.64035 0.17118 0.0
O266 O 0.67153 0.60384 0.27394 0.0
O267 O 0.70686 0.59498 0.20003 0.0
O268 O 0.60097 0.59399 0.30217 0.0
O269 O 0.61167 0.64234 0.29128 0.0
O270 O 0.60269 0.56797 0.18929 0.0
O271 O 0.65017 0.57052 0.18327 0.0
H272 H 0.73454 0.59561 0.93802 0.0
H273 H 0.64202 0.56864 0.97549 0.0
H274 H 0.62948 0.57265 0.87234 0.0
H275 H 0.72188 0.5996 0.83354 0.0
H276 H 0.57227 0.60004 0.42301 0.0
H277 H 0.65617 0.64275 0.36931 0.0
H278 H 0.6749 0.64014 0.46964 0.0
H279 H 0.59044 0.59802 0.52386 0.0
Gd280 Gd 0.60656 0.38221 0.83209 0.0
Gd281 Gd 0.6041 0.33604 0.92599 0.0
C282 C 0.59542 0.31055 0.79595 0.0
C283 C 0.61302 0.40869 0.73121 0.0
C284 C 0.60921 0.3983 0.66958 0.0
C285 C 0.58352 0.38145 0.65227 0.0
C286 C 0.63157 0.40494 0.62744 0.0
C287 C 0.60258 0.37824 0.55164 0.0
C288 C 0.62836 0.39501 0.56933 0.0
C289 C 0.58019 0.37169 0.59419 0.0
C290 C 0.55262 0.37987 0.89123 0.0
C291 C 0.62194 0.4086 0.95594 0.0
C292 C 0.59221 0.31014 1.02575 0.0
C293 C 0.59554 0.31981 0.08767 0.0
C294 C 0.62036 0.33768 0.10561 0.0
C295 C 0.57317 0.31208 0.12907 0.0
C296 C 0.60022 0.34023 0.20551 0.0
C297 C 0.57542 0.32219 0.18721 0.0
C298 C 0.62276 0.34758 0.16373 0.0
C299 C 0.65945 0.33843 0.87514 0.0
O300 O 0.60474 0.33804 0.78093 0.0
O301 O 0.58973 0.30414 0.8518 0.0
O302 O 0.58829 0.41072 0.76298 0.0
O303 O 0.63588 0.39699 0.76032 0.0
O304 O 0.56598 0.40492 0.87535 0.0
O305 O 0.56824 0.35722 0.87412 0.0
O306 O 0.61394 0.38097 0.97467 0.0
O307 O 0.6239 0.41481 0.89953 0.0
O308 O 0.6173 0.30537 0.99619 0.0
O309 O 0.57182 0.32489 0.99519 0.0
O310 O 0.64529 0.31345 0.88935 0.0
O311 O 0.64324 0.36169 0.88763 0.0
H312 H 0.56591 0.37572 0.68365 0.0
H313 H 0.6517 0.41769 0.63958 0.0
H314 H 0.64643 0.40008 0.53853 0.0
H315 H 0.55981 0.35923 0.58267 0.0
H316 H 0.63792 0.34413 0.07462 0.0
H317 H 0.5537 0.2985 0.11624 0.0
H318 H 0.55731 0.31636 0.21742 0.0
H319 H 0.6425 0.36091 0.17583 0.0
Gd320 Gd 0.83031 0.61136 0.67942 0.0
Gd321 Gd 0.87653 0.60948 0.58441 0.0
C322 C 0.90399 0.61909 0.70879 0.0
C323 C 0.80146 0.60754 0.77887 0.0
C324 C 0.80973 0.60459 0.84205 0.0
C325 C 0.81291 0.63086 0.87707 0.0
C326 C 0.81405 0.57584 0.86843 0.0
C327 C 0.82618 0.59988 0.96228 0.0
C328 C 0.82239 0.57352 0.92758 0.0
C329 C 0.82105 0.62855 0.93617 0.0
C330 C 0.8368 0.6655 0.62391 0.0
C331 C 0.80452 0.60126 0.54955 0.0
C332 C 0.90262 0.61565 0.48312 0.0
C333 C 0.89144 0.61522 0.42132 0.0
C334 C 0.88768 0.58752 0.39074 0.0
C335 C 0.88426 0.64263 0.3922 0.0
C336 C 0.86917 0.61467 0.3042 0.0
C337 C 0.87323 0.64236 0.33465 0.0
C338 C 0.87669 0.58725 0.33308 0.0
C339 C 0.87118 0.55623 0.64513 0.0
O340 O 0.87654 0.6102 0.72637 0.0
O341 O 0.90952 0.62498 0.6531 0.0
O342 O 0.80855 0.63331 0.75349 0.0
O343 O 0.80595 0.58404 0.74442 0.0
O344 O 0.81097 0.65295 0.63708 0.0
O345 O 0.85855 0.64803 0.63871 0.0
O346 O 0.83242 0.60854 0.53356 0.0
O347 O 0.7977 0.59782 0.60595 0.0
O348 O 0.90198 0.58982 0.51195 0.0
O349 O 0.89438 0.63889 0.5157 0.0
O350 O 0.89669 0.56652 0.62426 0.0
O351 O 0.84949 0.57347 0.62953 0.0
H352 H 0.80934 0.6534 0.85868 0.0
H353 H 0.81106 0.55509 0.84334 0.0
H354 H 0.82565 0.55101 0.94626 0.0
H355 H 0.82396 0.64938 0.96109 0.0
H356 H 0.89304 0.56591 0.41144 0.0
H357 H 0.88713 0.66442 0.41394 0.0
H358 H 0.86819 0.664 0.31376 0.0
H359 H 0.87361 0.56546 0.31149 0.0
Gd360 Gd 0.60435 0.13146 0.47336 0.0
Gd361 Gd 0.60181 0.17884 0.3693 0.0
C362 C 0.59669 0.20475 0.50349 0.0
C363 C 0.61422 0.10592 0.57406 0.0
C364 C 0.61372 0.11574 0.63651 0.0
C365 C 0.59012 0.13406 0.65929 0.0
C366 C 0.63692 0.10611 0.67444 0.0
C367 C 0.6125 0.13206 0.75718 0.0
C368 C 0.63633 0.11412 0.73392 0.0
C369 C 0.58955 0.14217 0.7188 0.0
C370 C 0.55079 0.13457 0.41369 0.0
C371 C 0.61693 0.105 0.34673 0.0
C372 C 0.58341 0.20758 0.27618 0.0
C373 C 0.58785 0.20297 0.21239 0.0
C374 C 0.61101 0.1838 0.19088 0.0
C375 C 0.56783 0.21668 0.17249 0.0
C376 C 0.59387 0.19195 0.09011 0.0
C377 C 0.57076 0.21126 0.11219 0.0
C378 C 0.61406 0.17844 0.13053 0.0
C379 C 0.66112 0.16705 0.39331 0.0
O380 O 0.59922 0.17619 0.52152 0.0
O381 O 0.59635 0.21191 0.44669 0.0
O382 O 0.58803 0.10481 0.54694 0.0
O383 O 0.63607 0.11689 0.54104 0.0
O384 O 0.56183 0.10962 0.43618 0.0
O385 O 0.56796 0.15696 0.42662 0.0
O386 O 0.60638 0.13156 0.32636 0.0
O387 O 0.62247 0.10044 0.40301 0.0
O388 O 0.60719 0.21594 0.30656 0.0
O389 O 0.56747 0.18669 0.30295 0.0
O390 O 0.65163 0.18603 0.35397 0.0
O391 O 0.63822 0.15587 0.41963 0.0
H392 H 0.57183 0.14183 0.63128 0.0
H393 H 0.65545 0.09209 0.65813 0.0
H394 H 0.65462 0.10621 0.76177 0.0
H395 H 0.57063 0.15561 0.73509 0.0
H396 H 0.62666 0.17281 0.22084 0.0
H397 H 0.5496 0.23132 0.18804 0.0
H398 H 0.55442 0.22175 0.08303 0.0
H399 H 0.63243 0.16384 0.11562 0.0
Gd400 Gd 0.16996 0.40234 0.6778 0.0
Gd401 Gd 0.12456 0.39891 0.58291 0.0
C402 C 0.09731 0.38885 0.70927 0.0
C403 C 0.19565 0.4156 0.77681 0.0
C404 C 0.18663 0.41158 0.83901 0.0
C405 C 0.17106 0.38529 0.85773 0.0
C406 C 0.19242 0.43481 0.87983 0.0
C407 C 0.16676 0.40575 0.95707 0.0
C408 C 0.18263 0.43196 0.93812 0.0
C409 C 0.16137 0.38237 0.91595 0.0
C410 C 0.16323 0.34451 0.63707 0.0
C411 C 0.19666 0.40783 0.54806 0.0
C412 C 0.0988 0.38901 0.48271 0.0
C413 C 0.10864 0.39368 0.42096 0.0
C414 C 0.12433 0.42022 0.40374 0.0
C415 C 0.10302 0.37108 0.3788 0.0
C416 C 0.12847 0.40147 0.30306 0.0
C417 C 0.11283 0.37486 0.3207 0.0
C418 C 0.13397 0.42412 0.34564 0.0
C419 C 0.12901 0.45486 0.63319 0.0
O420 O 0.12463 0.39787 0.72684 0.0
O421 O 0.09177 0.38397 0.65316 0.0
O422 O 0.20177 0.39083 0.74701 0.0
O423 O 0.17955 0.43518 0.74675 0.0
O424 O 0.18901 0.35693 0.65113 0.0
O425 O 0.14183 0.36361 0.64475 0.0
O426 O 0.1691 0.39917 0.53272 0.0
O427 O 0.20277 0.41405 0.60364 0.0
O428 O 0.09396 0.41358 0.51402 0.0
O429 O 0.11317 0.36774 0.51201 0.0
O430 O 0.10359 0.4426 0.61693 0.0
O431 O 0.15116 0.43756 0.61995 0.0
H432 H 0.16607 0.36706 0.82719 0.0
H433 H 0.20417 0.45541 0.86639 0.0
H434 H 0.18689 0.45068 0.96794 0.0
H435 H 0.14968 0.36163 0.92869 0.0
H436 H 0.12928 0.43799 0.43527 0.0
H437 H 0.09123 0.35028 0.39096 0.0
H438 H 0.1086 0.35659 0.28989 0.0
H439 H 0.14556 0.4451 0.33414 0.0
Gd440 Gd 0.40397 0.87674 0.48387 0.0
Gd441 Gd 0.39994 0.83368 0.38191 0.0
C442 C 0.40668 0.80479 0.51389 0.0
C443 C 0.39975 0.90247 0.58621 0.0
C444 C 0.39847 0.89317 0.64894 0.0
C445 C 0.41334 0.91128 0.69058 0.0
C446 C 0.3836 0.86646 0.66807 0.0
C447 C 0.39776 0.87699 0.76998 0.0
C448 C 0.38328 0.85844 0.72788 0.0
C449 C 0.41307 0.90333 0.74999 0.0
C450 C 0.45544 0.87392 0.41718 0.0
C451 C 0.39447 0.90685 0.35971 0.0
C452 C 0.40644 0.7983 0.29133 0.0
C453 C 0.40396 0.80389 0.22722 0.0
C454 C 0.42109 0.78632 0.18763 0.0
C455 C 0.38549 0.82747 0.20505 0.0
C456 C 0.40109 0.81552 0.10448 0.0
C457 C 0.38401 0.83316 0.14457 0.0
C458 C 0.41964 0.79198 0.12714 0.0
C459 C 0.34563 0.85758 0.41326 0.0
O460 O 0.41153 0.83291 0.53142 0.0
O461 O 0.40058 0.7988 0.45789 0.0
O462 O 0.42556 0.89754 0.55927 0.0
O463 O 0.37613 0.89679 0.55304 0.0
O464 O 0.4455 0.89863 0.44214 0.0
O465 O 0.43863 0.85153 0.43107 0.0
O466 O 0.40481 0.88046 0.33902 0.0
O467 O 0.38713 0.91007 0.41561 0.0
O468 O 0.3813 0.79997 0.32203 0.0
O469 O 0.42926 0.81145 0.31767 0.0
O470 O 0.35521 0.85462 0.35998 0.0
O471 O 0.36581 0.84807 0.44877 0.0
H472 H 0.42534 0.93173 0.67706 0.0
H473 H 0.3722 0.85182 0.63688 0.0
H474 H 0.37119 0.83803 0.74117 0.0
H475 H 0.42518 0.91788 0.7803 0.0
H476 H 0.43591 0.76839 0.20361 0.0
H477 H 0.37225 0.84163 0.23456 0.0
H478 H 0.36919 0.85125 0.12926 0.0
H479 H 0.43361 0.77824 0.0982 0.0
Gd480 Gd 0.83655 0.90237 0.63239 0.0
Gd481 Gd 0.88232 0.9019 0.72806 0.0
C482 C 0.9097 0.89214 0.6021 0.0
C483 C 0.81047 0.91189 0.53196 0.0
C484 C 0.82153 0.9118 0.4704 0.0
C485 C 0.80384 0.89854 0.42609 0.0
C486 C 0.85013 0.92398 0.45552 0.0
C487 C 0.84365 0.90865 0.35346 0.0
C488 C 0.86108 0.92232 0.39793 0.0
C489 C 0.8147 0.89706 0.36827 0.0
C490 C 0.8448 0.84584 0.67792 0.0
C491 C 0.80973 0.90807 0.76174 0.0
C492 C 0.91038 0.8948 0.82723 0.0
C493 C 0.90166 0.89522 0.89031 0.0
C494 C 0.91745 0.9141 0.92972 0.0
C495 C 0.87731 0.87757 0.91171 0.0
C496 C 0.88356 0.89911 1.00957 0.0
C497 C 0.86842 0.87951 0.97058 0.0
C498 C 0.90857 0.91595 0.98877 0.0
C499 C 0.87572 0.95659 0.67276 0.0
O500 O 0.88227 0.90086 0.58463 0.0
O501 O 0.91543 0.88742 0.65813 0.0
O502 O 0.81006 0.88551 0.55865 0.0
O503 O 0.8205 0.93374 0.56567 0.0
O504 O 0.81862 0.85772 0.66444 0.0
O505 O 0.86578 0.86517 0.66853 0.0
O506 O 0.83747 0.89975 0.77732 0.0
O507 O 0.80349 0.91407 0.70606 0.0
O508 O 0.90879 0.92091 0.79962 0.0
O509 O 0.90059 0.87199 0.79534 0.0
O510 O 0.90161 0.94561 0.69015 0.0
O511 O 0.85445 0.93876 0.6879 0.0
H512 H 0.78173 0.88896 0.43635 0.0
H513 H 0.86428 0.93451 0.48855 0.0
H514 H 0.88325 0.93189 0.38823 0.0
H515 H 0.80069 0.88617 0.33545 0.0
H516 H 0.9364 0.92782 0.91458 0.0
H517 H 0.86483 0.86254 0.88284 0.0
H518 H 0.84963 0.86563 0.98578 0.0
H519 H 0.9207 0.93121 1.01778 0.0
Gd520 Gd 0.89943 0.1308 0.33784 0.0
Gd521 Gd 0.89404 0.17752 0.43375 0.0
C522 C 0.9047 0.20347 0.30353 0.0
C523 C 0.89437 0.10414 0.23694 0.0
C524 C 0.89665 0.11404 0.17438 0.0
C525 C 0.92226 0.10594 0.14074 0.0
C526 C 0.87337 0.13107 0.1472 0.0
C527 C 0.90104 0.13091 0.05391 0.0
C528 C 0.87555 0.13939 0.08789 0.0
C529 C 0.92451 0.11436 0.08164 0.0
C530 C 0.95138 0.13852 0.39989 0.0
C531 C 0.88936 0.10348 0.4628 0.0
C532 C 0.89489 0.20776 0.53211 0.0
C533 C 0.89582 0.20171 0.59644 0.0
C534 C 0.87007 0.20827 0.63098 0.0
C535 C 0.92191 0.1901 0.62441 0.0
C536 C 0.89592 0.1906 0.71935 0.0
C537 C 0.92186 0.18433 0.68494 0.0
C538 C 0.8701 0.20283 0.69145 0.0
C539 C 0.84154 0.16674 0.37581 0.0
O540 O 0.89954 0.17508 0.28732 0.0
O541 O 0.90665 0.21066 0.35999 0.0
O542 O 0.91957 0.1041 0.26737 0.0
O543 O 0.87097 0.11385 0.26741 0.0
O544 O 0.94303 0.11272 0.37704 0.0
O545 O 0.93319 0.15969 0.38487 0.0
O546 O 0.89699 0.13128 0.48097 0.0
O547 O 0.88431 0.09773 0.40693 0.0
O548 O 0.87003 0.1997 0.50515 0.0
O549 O 0.91928 0.20252 0.50058 0.0
O550 O 0.85113 0.19362 0.3906 0.0
O551 O 0.86034 0.14659 0.39212 0.0
H552 H 0.94063 0.09289 0.1601 0.0
H553 H 0.85325 0.13778 0.17152 0.0
H554 H 0.85683 0.15184 0.06839 0.0
H555 H 0.94482 0.10785 0.05773 0.0
H556 H 0.84973 0.21766 0.6111 0.0
H557 H 0.94243 0.18562 0.59974 0.0
H558 H 0.94234 0.17539 0.70498 0.0
H559 H 0.84966 0.20785 0.71628 0.0
Gd560 Gd 0.17225 0.1061 0.63296 0.0
Gd561 Gd 0.12635 0.11138 0.72763 0.0
C562 C 0.10037 0.12354 0.60206 0.0
C563 C 0.19795 0.09386 0.53296 0.0
C564 C 0.18832 0.09382 0.47047 0.0
C565 C 0.20625 0.10877 0.42833 0.0
C566 C 0.16139 0.07944 0.45214 0.0
C567 C 0.17087 0.09456 0.3504 0.0
C568 C 0.15276 0.07985 0.39302 0.0
C569 C 0.19775 0.10909 0.36912 0.0
C570 C 0.1711 0.1625 0.68155 0.0
C571 C 0.19754 0.09708 0.76278 0.0
C572 C 0.09998 0.12106 0.82785 0.0
C573 C 0.11026 0.12117 0.88997 0.0
C574 C 0.0929 0.10622 0.93301 0.0
C575 C 0.13757 0.13535 0.90685 0.0
C576 C 0.12987 0.11963 1.00878 0.0
C577 C 0.14722 0.13459 0.96537 0.0
C578 C 0.10253 0.10544 0.99156 0.0
C579 C 0.1259 0.05702 0.66954 0.0
O580 O 0.12717 0.11266 0.58493 0.0
O581 O 0.09479 0.12895 0.65801 0.0
O582 O 0.19962 0.12052 0.55838 0.0
O583 O 0.18639 0.07294 0.56741 0.0
O584 O 0.19563 0.14745 0.66798 0.0
O585 O 0.14776 0.14656 0.66992 0.0
O586 O 0.17049 0.1075 0.77812 0.0
O587 O 0.20386 0.09143 0.7069 0.0
O588 O 0.09997 0.09452 0.8016 0.0
O589 O 0.10989 0.14304 0.79383 0.0
O590 O 0.10167 0.07154 0.68662 0.0
O591 O 0.14928 0.07152 0.68601 0.0
H592 H 0.22695 0.12025 0.44139 0.0
H593 H 0.14682 0.06802 0.48351 0.0
H594 H 0.13162 0.06889 0.3809 0.0
H595 H 0.21254 0.12037 0.33793 0.0
H596 H 0.07177 0.09508 0.9213 0.0
H597 H 0.1517 0.1468 0.87474 0.0
H598 H 0.16861 0.14539 0.97634 0.0
H599 H 0.08824 0.09408 1.02351 0.0
Gd600 Gd 0.10889 0.88217 0.33206 0.0
Gd601 Gd 0.11172 0.83596 0.43112 0.0
C602 C 0.10215 0.80898 0.30103 0.0
C603 C 0.11628 0.91047 0.23311 0.0
C604 C 0.11758 0.90243 0.17003 0.0
C605 C 0.1061 0.92304 0.12851 0.0
C606 C 0.12976 0.87446 0.15055 0.0
C607 C 0.11869 0.88787 0.04893 0.0
C608 C 0.13011 0.86716 0.09068 0.0
C609 C 0.10676 0.91594 0.0687 0.0
C610 C 0.05642 0.87635 0.39356 0.0
C611 C 0.12184 0.91015 0.45793 0.0
C612 C 0.1036 0.80789 0.53047 0.0
C613 C 0.10593 0.81505 0.59382 0.0
C614 C 0.11241 0.7916 0.6338 0.0
C615 C 0.10158 0.84486 0.61516 0.0
C616 C 0.10914 0.82744 0.71594 0.0
C617 C 0.10294 0.85094 0.67537 0.0
C618 C 0.11412 0.79769 0.69398 0.0
C619 C 0.16616 0.8456 0.3786 0.0
O620 O 0.10846 0.837 0.28322 0.0
O621 O 0.09921 0.80277 0.3578 0.0
O622 O 0.08982 0.9074 0.25884 0.0
O623 O 0.13892 0.90129 0.266 0.0
O624 O 0.06585 0.90185 0.37101 0.0
O625 O 0.07423 0.85472 0.37927 0.0
O626 O 0.11766 0.8819 0.47785 0.0
O627 O 0.12189 0.91632 0.40121 0.0
O628 O 0.12906 0.80688 0.50089 0.0
O629 O 0.08171 0.82122 0.50131 0.0
O630 O 0.15663 0.8192 0.39712 0.0
O631 O 0.14621 0.86575 0.38936 0.0
H632 H 0.09656 0.94473 0.14238 0.0
H633 H 0.13909 0.85829 0.18157 0.0
H634 H 0.13984 0.84556 0.07693 0.0
H635 H 0.09759 0.93233 0.03787 0.0
H636 H 0.11611 0.76845 0.61846 0.0
H637 H 0.09693 0.8635 0.58547 0.0
H638 H 0.09856 0.87406 0.69002 0.0
H639 H 0.11958 0.77899 0.72318 0.0
H640 H 0.34578 0.94136 0.32403 0.0
H641 H 0.44299 0.93208 0.30593 0.0
H642 H 0.44437 0.97621 0.24003 0.0
H643 H 0.41802 0.01765 0.18756 0.0
H644 H 0.32021 0.02378 0.19597 0.0
H645 H 0.31883 0.98107 0.26533 0.0
C646 C 0.3672 0.94921 0.30574 0.0
C647 C 0.39435 0.93383 0.32035 0.0
C648 C 0.36766 0.9741 0.26613 0.0
C649 C 0.42189 0.94372 0.29553 0.0
C650 C 0.42266 0.96892 0.25781 0.0
C651 C 0.39636 0.0096 0.20441 0.0
C652 C 0.36929 0.02455 0.18773 0.0
C653 C 0.39571 0.9843 0.24272 0.0
C654 C 0.34145 0.0134 0.20936 0.0
C655 C 0.34065 0.98877 0.24878 0.0
H656 H 0.94337 0.66461 0.74366 0.0
H657 H 0.92231 0.56942 0.7693 0.0
H658 H 0.965 0.56427 0.83712 0.0
H659 H 0.00902 0.58655 0.88871 0.0
H660 H 0.02663 0.68303 0.87319 0.0
H661 H 0.98515 0.688 0.80243 0.0
C662 C 0.94821 0.64281 0.76421 0.0
C663 C 0.92979 0.61733 0.75103 0.0
C664 C 0.97241 0.64023 0.80498 0.0
C665 C 0.93608 0.58934 0.77867 0.0
C666 C 0.96057 0.58637 0.81746 0.0
C667 C 0.00375 0.60871 0.87003 0.0
C668 C 0.02173 0.63422 0.88513 0.0
C669 C 0.97897 0.61161 0.83096 0.0
C670 C 0.014 0.66281 0.8611 0.0
C671 C 0.99003 0.66571 0.82084 0.0
H672 H 0.59219 0.9932 0.17816 0.0
H673 H 0.68873 0.97974 0.19849 0.0
H674 H 0.6912 0.0243 0.2636 0.0
H675 H 0.66523 0.0675 0.31611 0.0
H676 H 0.56923 0.08141 0.28857 0.0
H677 H 0.56728 0.03696 0.22485 0.0
C678 C 0.61386 1.00002 0.19659 0.0
C679 C 0.64014 0.98264 0.18423 0.0
C680 C 0.61519 0.02612 0.23265 0.0
C681 C 0.66801 0.99218 0.20816 0.0
C682 C 0.66944 0.01784 0.24522 0.0
C683 C 0.644 0.06079 0.29579 0.0
C684 C 0.61742 0.07816 0.30655 0.0
C685 C 0.64311 0.03499 0.25815 0.0
C686 C 0.5901 0.06911 0.28001 0.0
C687 C 0.58891 0.0434 0.24386 0.0
H688 H 0.01116 0.36842 0.93082 0.0
H689 H 0.94271 0.3828 0.79971 0.0
H690 H 0.9814 0.38592 0.7238 0.0
H691 H 0.03541 0.38729 0.69431 0.0
H692 H 0.10473 0.37848 0.8264 0.0
H693 H 0.06573 0.3708 0.90138 0.0
C694 C 0.0048 0.37162 0.88542 0.0
C695 C 0.97373 0.37376 0.87067 0.0
C696 C 0.02766 0.37488 0.84191 0.0
C697 C 0.96605 0.37936 0.81206 0.0
C698 C 0.98839 0.38165 0.76852 0.0
C699 C 0.04201 0.38344 0.7394 0.0
C700 C 0.07311 0.38337 0.7543 0.0
C701 C 0.01933 0.37969 0.78284 0.0
C702 C 0.08106 0.37876 0.81335 0.0
C703 C 0.05869 0.37429 0.85646 0.0
H704 H 0.37727 0.51181 0.18729 0.0
H705 H 0.3637 0.44664 0.04933 0.0
H706 H 0.3646 0.48734 0.97642 0.0
H707 H 0.37163 0.54165 0.9511 0.0
H708 H 0.38737 0.60714 0.08889 0.0
H709 H 0.38331 0.56667 0.16198 0.0
C710 C 0.37403 0.50671 0.14129 0.0
C711 C 0.36912 0.47626 0.12386 0.0
C712 C 0.37531 0.53047 0.09935 0.0
C713 C 0.36591 0.46988 0.06408 0.0
C714 C 0.36694 0.49323 1.02224 0.0
C715 C 0.37397 0.54718 0.9971 0.0
C716 C 0.37983 0.5776 1.01403 0.0
C717 C 0.37182 0.52365 0.03924 0.0
C718 C 0.3829 0.58406 0.07413 0.0
C719 C 0.3806 0.56085 0.1162 0.0
H720 H 0.5413 0.6356 0.11809 0.0
H721 H 0.60492 0.61517 0.97914 0.0
H722 H 0.56411 0.61836 0.90748 0.0
H723 H 0.50949 0.62513 0.88351 0.0
H724 H 0.44577 0.64365 1.02244 0.0
H725 H 0.48696 0.64352 0.09382 0.0
C726 C 0.54637 0.63215 0.07211 0.0
C727 C 0.57645 0.62508 0.0546 0.0
C728 C 0.52254 0.63388 1.03059 0.0
C729 C 0.58219 0.62051 0.99451 0.0
C730 C 0.55875 0.62234 0.95318 0.0
C731 C 0.50478 0.62956 0.92934 0.0
C732 C 0.47463 0.63562 0.94714 0.0
C733 C 0.52874 0.62874 0.97062 0.0
C734 C 0.46879 0.64043 1.00692 0.0
C735 C 0.49242 0.63988 0.04807 0.0
H736 H 0.65425 0.49782 0.16725 0.0
H737 H 0.59562 0.5574 0.06825 0.0
H738 H 0.59153 0.51921 0.99109 0.0
H739 H 0.60246 0.4676 0.95293 0.0
H740 H 0.65388 0.40443 0.05824 0.0
H741 H 0.66265 0.44451 0.1314 0.0
C742 C 0.64088 0.50244 0.12844 0.0
C743 C 0.62606 0.53093 0.12276 0.0
C744 C 0.63706 0.47939 0.08542 0.0
C745 C 0.60793 0.53613 0.07316 0.0
C746 C 0.60537 0.51412 1.02905 0.0
C747 C 0.61585 0.46274 0.99164 0.0
C748 C 0.62793 0.43319 0.9996 0.0
C749 C 0.61961 0.48555 0.03478 0.0
C750 C 0.64451 0.42702 0.05083 0.0
C751 C 0.64952 0.44998 0.0927 0.0
H752 H 0.46631 0.39299 0.1132 0.0
H753 H 0.39857 0.36861 0.98539 0.0
H754 H 0.43815 0.36235 0.91106 0.0
H755 H 0.49238 0.36541 0.88056 0.0
H756 H 0.5592 0.39447 1.00606 0.0
H757 H 0.52027 0.39675 0.08247 0.0
C758 C 0.46024 0.38606 0.06922 0.0
C759 C 0.42935 0.38125 0.05526 0.0
C760 C 0.4832 0.38316 1.02595 0.0
C761 C 0.42202 0.37267 0.99761 0.0
C762 C 0.44473 0.36898 0.95491 0.0
C763 C 0.49837 0.37185 0.92486 0.0
C764 C 0.52886 0.37901 0.93786 0.0
C765 C 0.47543 0.37435 0.96832 0.0
C766 C 0.53613 0.3882 0.99506 0.0
C767 C 0.51375 0.38971 0.03882 0.0
H768 H 0.86708 0.46667 0.86343 0.0
H769 H 0.89454 0.40201 0.73069 0.0
H770 H 0.89232 0.44188 0.65654 0.0
H771 H 0.88414 0.49602 0.6288 0.0
H772 H 0.85645 0.5603 0.76109 0.0
H773 H 0.85721 0.52021 0.83503 0.0
C774 C 0.87242 0.46122 0.81827 0.0
C775 C 0.88104 0.43116 0.80321 0.0
C776 C 0.87093 0.48439 0.77521 0.0
C777 C 0.88782 0.42476 0.74412 0.0
C778 C 0.8866 0.44766 0.70136 0.0
C779 C 0.87781 0.50107 0.67368 0.0
C780 C 0.8693 0.53107 0.68886 0.0
C781 C 0.87837 0.47765 0.71633 0.0
C782 C 0.86179 0.53735 0.74742 0.0
C783 C 0.86261 0.51438 0.7901 0.0
H784 H 0.48917 0.13326 0.4337 0.0
H785 H 0.55512 0.1323 0.29416 0.0
H786 H 0.51524 0.12897 0.2221 0.0
H787 H 0.46116 0.12441 0.19697 0.0
H788 H 0.39419 0.12122 0.3352 0.0
H789 H 0.4342 0.12779 0.40826 0.0
C790 C 0.4947 0.13282 0.38745 0.0
C791 C 0.52549 0.13458 0.36981 0.0
C792 C 0.47114 0.12977 0.34544 0.0
C793 C 0.53205 0.13257 0.30972 0.0
C794 C 0.509 0.13024 0.26796 0.0
C795 C 0.4552 0.12537 0.24301 0.0
C796 C 0.4245 0.12241 0.26008 0.0
C797 C 0.47844 0.1287 0.28514 0.0
C798 C 0.41752 0.12337 0.32033 0.0
C799 C 0.44047 0.12718 0.36238 0.0
H800 H 0.12325 0.58754 0.74673 0.0
H801 H 0.11085 0.5327 0.90217 0.0
H802 H 0.11601 0.48627 0.84493 0.0
H803 H 0.12224 0.46033 0.75041 0.0
H804 H 0.13669 0.51341 0.59439 0.0
H805 H 0.13244 0.56093 0.65138 0.0
C806 C 0.1217 0.56544 0.76802 0.0
C807 C 0.11657 0.56398 0.82909 0.0
C808 C 0.12515 0.53826 0.73458 0.0
C809 C 0.11484 0.53491 0.85558 0.0
C810 C 0.11776 0.50811 0.82278 0.0
C811 C 0.1252 0.4823 0.72918 0.0
C812 C 0.13053 0.48335 0.66855 0.0
C813 C 0.12285 0.50942 0.76233 0.0
C814 C 0.13327 0.51202 0.64127 0.0
C815 C 0.13061 0.53919 0.67386 0.0
H816 H 0.5453 0.87279 0.1991 0.0
H817 H 0.60808 0.904 0.33093 0.0
H818 H 0.56824 0.90082 0.4051 0.0
H819 H 0.51468 0.89005 0.43309 0.0
H820 H 0.45233 0.85998 0.30031 0.0
H821 H 0.49235 0.86143 0.22724 0.0
C822 C 0.55034 0.87883 0.24403 0.0
C823 C 0.57985 0.88868 0.2589 0.0
C824 C 0.52722 0.87684 0.28696 0.0
C825 C 0.58573 0.89634 0.31771 0.0
C826 C 0.56286 0.89455 0.36044 0.0
C827 C 0.51003 0.88345 0.38826 0.0
C828 C 0.48059 0.87355 0.37315 0.0
C829 C 0.53342 0.88491 0.34565 0.0
C830 C 0.47485 0.86589 0.31452 0.0
C831 C 0.49781 0.86732 0.27205 0.0
H832 H 0.92053 0.995 0.63592 0.0
H833 H 0.82341 0.98213 0.62849 0.0
H834 H 0.81888 0.02524 0.56054 0.0
H835 H 0.84298 0.06656 0.50121 0.0
H836 H 0.93921 0.08272 0.51878 0.0
H837 H 0.9437 0.03886 0.58484 0.0
C838 C 0.89833 1.00169 0.61966 0.0
C839 C 0.87244 0.98459 0.63584 0.0
C840 C 0.89579 0.02728 0.58231 0.0
C841 C 0.84383 0.99411 0.61524 0.0
C842 C 0.84121 0.01897 0.57666 0.0
C843 C 0.86484 0.06042 0.51977 0.0
C844 C 0.89082 0.07763 0.50482 0.0
C845 C 0.86708 0.0356 0.55933 0.0
C846 C 0.91896 0.06977 0.52965 0.0
C847 C 0.92152 0.04466 0.56736 0.0
H848 H 0.04097 0.14286 0.61705 0.0
H849 H 0.10463 0.1131 0.48448 0.0
H850 H 0.06502 0.11612 0.41055 0.0
H851 H 0.01128 0.12524 0.38307 0.0
H852 H 0.94756 0.15408 0.51494 0.0
H853 H 0.98774 0.15359 0.58877 0.0
C854 C 0.04629 0.13729 0.57194 0.0
C855 C 0.07599 0.12768 0.55694 0.0
C856 C 0.0232 0.13913 0.52898 0.0
C857 C 0.08216 0.12052 0.49792 0.0
C858 C 0.05941 0.12222 0.45527 0.0
C859 C 0.0064 0.13201 0.42778 0.0
C860 C 0.97662 0.14103 0.44297 0.0
C861 C 0.02974 0.13126 0.47024 0.0
C862 C 0.97048 0.14881 0.50139 0.0
C863 C 0.99344 0.14798 0.54388 0.0
H864 H 0.10172 0.96924 0.45368 0.0
H865 H 0.15372 0.90697 0.56004 0.0
H866 H 0.16226 0.94738 0.63234 0.0
H867 H 0.15344 1.00056 0.66754 0.0
H868 H 0.09503 0.05978 0.56735 0.0
H869 H 0.0909 0.02119 0.4908 0.0
C870 C 0.11513 0.96463 0.49246 0.0
C871 C 0.12737 0.93518 0.50098 0.0
C872 C 0.1189 0.9877 0.53516 0.0
C873 C 0.14412 0.92943 0.55221 0.0
C874 C 0.14904 0.95258 0.59363 0.0
C875 C 0.14011 0.00502 0.6286 0.0
C876 C 0.12516 0.03338 0.6226 0.0
C877 C 0.1364 0.98184 0.58588 0.0
C878 C 0.10722 0.03847 0.57269 0.0
C879 C 0.10468 0.01625 0.52891 0.0
H880 H 0.99497 0.87538 0.3789 0.0
H881 H 0.06412 0.87835 0.51122 0.0
H882 H 0.02552 0.88164 0.58781 0.0
H883 H 0.97153 0.88638 0.61735 0.0
H884 H 0.90216 0.88606 0.4842 0.0
H885 H 0.9408 0.87948 0.40853 0.0
C886 C 1.00144 0.87616 0.42464 0.0
C887 C 0.03248 0.87519 0.43958 0.0
C888 C 0.97884 0.87911 0.46849 0.0
C889 C 0.04054 0.87746 0.49876 0.0
C890 C 0.01834 0.87985 0.54261 0.0
C891 C 0.96484 0.88469 0.57185 0.0
C892 C 0.93382 0.88705 0.55682 0.0
C893 C 0.98735 0.88096 0.52807 0.0
C894 C 0.92576 0.88486 0.49734 0.0
C895 C 0.94792 0.8809 0.45381 0.0
H896 H 0.37569 0.19968 0.16903 0.0
H897 H 0.28603 0.19525 0.09286 0.0
H898 H 0.28043 0.25037 0.10246 0.0
H899 H 0.29922 0.29921 0.13696 0.0
H900 H 0.38933 0.30634 0.20973 0.0
H901 H 0.39641 0.25082 0.19793 0.0
C902 C 0.35526 0.21095 0.15347 0.0
C903 C 0.33124 0.19333 0.13024 0.0
C904 C 0.35198 0.243 0.15975 0.0
C905 C 0.30479 0.20823 0.11086 0.0
C906 C 0.30147 0.23976 0.11671 0.0
C907 C 0.32044 0.28874 0.15067 0.0
C908 C 0.34353 0.30689 0.17521 0.0
C909 C 0.32457 0.25724 0.1422 0.0
C910 C 0.37105 0.29283 0.19143 0.0
C911 C 0.37513 0.26112 0.18433 0.0
H912 H 0.3018 0.62433 0.92861 0.0
H913 H 0.30288 0.71178 0.8412 0.0
H914 H 0.24794 0.71612 0.85245 0.0
H915 H 0.20026 0.69725 0.89179 0.0
H916 H 0.19623 0.60926 0.97634 0.0
H917 H 0.25158 0.60307 0.96227 0.0
C918 C 0.28983 0.64395 0.91093 0.0
C919 C 0.30651 0.66776 0.88396 0.0
C920 C 0.25783 0.64653 0.91822 0.0
C921 C 0.29067 0.69319 0.86199 0.0
C922 C 0.25923 0.6958 0.86878 0.0
C923 C 0.21133 0.67667 0.90756 0.0
C924 C 0.19408 0.65398 0.93619 0.0
C925 C 0.24272 0.67302 0.89794 0.0
C926 C 0.20898 0.62725 0.95487 0.0
C927 C 0.24061 0.62369 0.94653 0.0
H928 H 0.63501 0.80286 0.18993 0.0
H929 H 0.6991 0.8116 0.04766 0.0
H930 H 0.70253 0.7561 0.03952 0.0
H931 H 0.69062 0.7056 0.07661 0.0
H932 H 0.62832 0.69434 0.22102 0.0
H933 H 0.62098 0.75023 0.22515 0.0
C934 C 0.64908 0.79246 0.15631 0.0
C935 C 0.66646 0.81127 0.11861 0.0
C936 C 0.65173 0.76018 0.15318 0.0
C937 C 0.68527 0.7976 0.07644 0.0
C938 C 0.68742 0.76587 0.07213 0.0
C939 C 0.67532 0.71521 0.10913 0.0
C940 C 0.66026 0.69574 0.14889 0.0
C941 C 0.67133 0.74702 0.11101 0.0
C942 C 0.64037 0.70876 0.19023 0.0
C943 C 0.63615 0.74073 0.19238 0.0
H944 H 0.798 0.30303 0.88123 0.0
H945 H 0.80645 0.39229 0.95907 0.0
H946 H 0.7515 0.40094 0.946 0.0
H947 H 0.70038 0.38192 0.91433 0.0
H948 H 0.6944 0.2931 0.83323 0.0
H949 H 0.74905 0.28586 0.84429 0.0
C950 C 0.7879 0.32437 0.89578 0.0
C951 C 0.80629 0.34678 0.92211 0.0
C952 C 0.75667 0.32944 0.88658 0.0
C953 C 0.79276 0.37451 0.93939 0.0
C954 C 0.76136 0.3795 0.93156 0.0
C955 C 0.71122 0.36133 0.89797 0.0
C956 C 0.69327 0.33805 0.87282 0.0
C957 C 0.743 0.35708 0.90514 0.0
C958 C 0.70764 0.31134 0.85261 0.0
C959 C 0.7389 0.30707 0.85931 0.0
H960 H 0.88045 0.70466 0.66834 0.0
H961 H 0.79571 0.70227 0.57354 0.0
H962 H 0.79061 0.75749 0.58288 0.0
H963 H 0.80783 0.80578 0.62339 0.0
H964 H 0.89306 0.81071 0.7157 0.0
H965 H 0.90025 0.75527 0.70268 0.0
C966 C 0.86131 0.71641 0.64857 0.0
C967 C 0.83845 0.69934 0.62012 0.0
C968 C 0.85823 0.7485 0.65491 0.0
C969 C 0.81359 0.71485 0.59547 0.0
C970 C 0.81052 0.74642 0.6012 0.0
C971 C 0.82798 0.79482 0.64103 0.0
C972 C 0.8496 0.8123 0.67159 0.0
C973 C 0.83223 0.76334 0.63206 0.0
C974 C 0.87589 0.7977 0.6927 0.0
C975 C 0.88004 0.76603 0.68498 0.0
H976 H 0.80027 0.1393 0.44917 0.0
H977 H 0.8094 0.18461 0.28254 0.0
H978 H 0.7541 0.18602 0.27209 0.0
H979 H 0.70384 0.17923 0.31381 0.0
H980 H 0.69223 0.13659 0.48242 0.0
H981 H 0.74784 0.129 0.48886 0.0
C982 C 0.78999 0.14868 0.40999 0.0
C983 C 0.80876 0.16143 0.366 0.0
C984 C 0.75789 0.15034 0.40528 0.0
C985 C 0.79536 0.17433 0.31628 0.0
C986 C 0.76377 0.17533 0.31059 0.0
C987 C 0.7133 0.16807 0.35207 0.0
C988 C 0.6939 0.15884 0.398 0.0
C989 C 0.74491 0.16421 0.35543 0.0
C990 C 0.70664 0.14401 0.44663 0.0
C991 C 0.73843 0.13978 0.45024 0.0
H992 H 0.2047 0.30237 0.67197 0.0
H993 H 0.11184 0.31074 0.61376 0.0
H994 H 0.10482 0.25533 0.62582 0.0
H995 H 0.1259 0.20389 0.65163 0.0
H996 H 0.2186 0.19765 0.71248 0.0
H997 H 0.22457 0.2527 0.70192 0.0
C998 C 0.1829 0.29216 0.66158 0.0
C999 C 0.15893 0.31074 0.64128 0.0
C1000 C 0.17889 0.26054 0.66991 0.0
C1001 C 0.13076 0.29698 0.62894 0.0
C1002 C 0.12672 0.26529 0.63615 0.0
C1003 C 0.14719 0.21471 0.66349 0.0
C1004 C 0.17181 0.19654 0.68289 0.0
C1005 C 0.15065 0.24675 0.65673 0.0
C1006 C 0.19931 0.21097 0.69747 0.0
C1007 C 0.20283 0.2425 0.69113 0.0
H1008 H 0.30324 0.88585 0.34813 0.0
H1009 H 0.31358 0.82896 0.50085 0.0
H1010 H 0.25842 0.82021 0.50322 0.0
H1011 H 0.20799 0.82515 0.45627 0.0
H1012 H 0.1975 0.8835 0.3057 0.0
H1013 H 0.25214 0.89512 0.30744 0.0
C1014 C 0.29329 0.87203 0.38266 0.0
C1015 C 0.3124 0.85797 0.42419 0.0
C1016 C 0.26171 0.86687 0.38319 0.0
C1017 C 0.29932 0.84022 0.46877 0.0
C1018 C 0.26784 0.83493 0.46963 0.0
C1019 C 0.21775 0.84033 0.42374 0.0
C1020 C 0.19901 0.85291 0.37987 0.0
C1021 C 0.24897 0.84742 0.42604 0.0
C1022 C 0.21163 0.87325 0.33916 0.0
C1023 C 0.24279 0.87994 0.34037 0.0
H1024 H 0.18794 0.09417 0.88154 0.0
H1025 H 0.26011 0.09148 0.75319 0.0
H1026 H 0.29783 0.08941 0.83193 0.0
H1027 H 0.31061 0.09072 0.93748 0.0
H1028 H 0.23849 0.09336 0.06593 0.0
H1029 H 0.20068 0.09286 0.98724 0.0
C1030 C 0.21192 0.09319 0.8705 0.0
C1031 C 0.22092 0.09329 0.8107 0.0
C1032 C 0.2336 0.09211 0.91637 0.0
C1033 C 0.25224 0.09142 0.79814 0.0
C1034 C 0.27391 0.09041 0.84345 0.0
C1035 C 0.28663 0.09127 0.94858 0.0
C1036 C 0.27769 0.09239 1.00836 0.0
C1037 C 0.26491 0.09113 0.90275 0.0
C1038 C 0.24632 0.09247 1.02098 0.0
C1039 C 0.22461 0.09237 0.9757 0.0
H1040 H 0.09151 0.69114 0.13651 0.0
H1041 H 0.10321 0.7592 1.00171 0.0
H1042 H 0.10468 0.79928 0.07673 0.0
H1043 H 0.10426 0.81506 0.18086 0.0
H1044 H 0.09161 0.74701 0.31538 0.0
H1045 H 0.08738 0.70743 0.23972 0.0
C1046 C 0.09431 0.71475 0.12317 0.0
C1047 C 0.09749 0.72182 0.06278 0.0
C1048 C 0.09497 0.73787 0.16673 0.0
C1049 C 0.10071 0.75278 0.04724 0.0
C1050 C 0.10168 0.77579 0.09036 0.0
C1051 C 0.10102 0.79157 0.19418 0.0
C1052 C 0.09884 0.78437 0.25475 0.0
C1053 C 0.0992 0.76862 0.15036 0.0
C1054 C 0.0938 0.75359 0.26988 0.0
C1055 C 0.09167 0.73078 0.22653 0.0
H1056 H 0.6973 0.92508 0.93814 0.0
H1057 H 0.76364 0.89001 0.05978 0.0
H1058 H 0.80061 0.8853 0.98001 0.0
H1059 H 0.81533 0.89269 0.87736 0.0
H1060 H 0.75012 0.92899 0.75482 0.0
H1061 H 0.71241 0.93333 0.83402 0.0
C1062 C 0.72012 0.91702 0.94758 0.0
C1063 C 0.72764 0.90825 1.00562 0.0
C1064 C 0.74187 0.91528 0.90159 0.0
C1065 C 0.75725 0.89755 1.01636 0.0
C1066 C 0.77851 0.8949 0.97063 0.0
C1067 C 0.7929 0.90153 0.86745 0.0
C1068 C 0.78588 0.91042 0.80936 0.0
C1069 C 0.77126 0.90389 0.91325 0.0
C1070 C 0.75645 0.92183 0.79849 0.0
C1071 C 0.73479 0.92432 0.84399 0.0
H1072 H 0.90951 0.31677 0.12732 0.0
H1073 H 0.90505 0.24416 0.99993 0.0
H1074 H 0.90573 0.20633 0.07932 0.0
H1075 H 0.90504 0.19381 0.18467 0.0
H1076 H 0.91063 0.26635 0.31202 0.0
H1077 H 0.91221 0.30407 0.23244 0.0
C1078 C 0.90863 0.29268 0.11653 0.0
C1079 C 0.90691 0.2836 0.05696 0.0
C1080 C 0.90896 0.27094 0.16256 0.0
C1081 C 0.90634 0.25209 0.04473 0.0
C1082 C 0.90655 0.23038 0.09031 0.0
C1083 C 0.90657 0.21787 0.19557 0.0
C1084 C 0.9073 0.227 0.25528 0.0
C1085 C 0.90744 0.23953 0.14943 0.0
C1086 C 0.90968 0.25842 0.26727 0.0
C1087 C 0.91049 0.28006 0.2216 0.0
H1088 H 0.31077 0.41879 0.37456 0.0
H1089 H 0.24224 0.39449 0.24814 0.0
H1090 H 0.20397 0.39256 0.32645 0.0
H1091 H 0.1896 0.39793 0.43019 0.0
H1092 H 0.25786 0.42237 0.5572 0.0
H1093 H 0.2962 0.42474 0.479 0.0
C1094 C 0.28741 0.4133 0.36379 0.0
C1095 C 0.27965 0.40676 0.30481 0.0
C1096 C 0.26527 0.41263 0.40916 0.0
C1097 C 0.24907 0.39996 0.29241 0.0
C1098 C 0.22709 0.39886 0.33735 0.0
C1099 C 0.21283 0.40387 0.44122 0.0
C1100 C 0.22053 0.40998 0.50039 0.0
C1101 C 0.23487 0.40516 0.39585 0.0
C1102 C 0.25096 0.41758 0.5127 0.0
C1103 C 0.27299 0.41889 0.46778 0.0
H1104 H 0.39148 0.69317 0.69157 0.0
H1105 H 0.42236 0.7614 0.81406 0.0
H1106 H 0.42704 0.79834 0.73376 0.0
H1107 H 0.42194 0.81147 0.62941 0.0
H1108 H 0.3906 0.74352 0.50669 0.0
H1109 H 0.38681 0.70624 0.58681 0.0
C1110 C 0.39938 0.71606 0.70113 0.0
C1111 C 0.40657 0.72423 0.75972 0.0
C1112 C 0.40208 0.73724 0.65447 0.0
C1113 C 0.41655 0.75424 0.77017 0.0
C1114 C 0.41929 0.77541 0.724 0.0
C1115 C 0.41441 0.78848 0.61955 0.0
C1116 C 0.40661 0.78058 0.56111 0.0
C1117 C 0.41209 0.76718 0.66601 0.0
C1118 C 0.39699 0.75046 0.55042 0.0
C1119 C 0.39474 0.72911 0.59647 0.0
H1120 H 0.69126 0.59102 0.37526 0.0
H1121 H 0.76256 0.60117 0.24646 0.0
H1122 H 0.80052 0.60227 0.32493 0.0
H1123 H 0.81355 0.60266 0.43023 0.0
H1124 H 0.74223 0.5925 0.55917 0.0
H1125 H 0.70451 0.5891 0.48067 0.0
C1126 C 0.71508 0.59358 0.36397 0.0
C1127 C 0.72368 0.5963 0.30412 0.0
C1128 C 0.73692 0.59441 0.40965 0.0
C1129 C 0.75493 0.59898 0.29137 0.0
C1130 C 0.77673 0.5998 0.33652 0.0
C1131 C 0.78976 0.5997 0.4416 0.0
C1132 C 0.78103 0.598 0.50154 0.0
C1133 C 0.76801 0.59791 0.39587 0.0
C1134 C 0.74993 0.59395 0.51419 0.0
C1135 C 0.72823 0.59213 0.469 0.0
H1136 H 0.57965 0.19837 0.61884 0.0
H1137 H 0.61185 0.26588 0.4959 0.0
H1138 H 0.61508 0.30347 0.5753 0.0
H1139 H 0.60854 0.31754 0.67902 0.0
H1140 H 0.5759 0.25037 0.80234 0.0
H1141 H 0.5723 0.21276 0.72306 0.0
C1142 C 0.58706 0.2214 0.60896 0.0
C1143 C 0.59541 0.22902 0.55059 0.0
C1144 C 0.58843 0.24318 0.65493 0.0
C1145 C 0.60488 0.25917 0.53954 0.0
C1146 C 0.60675 0.28075 0.58516 0.0
C1147 C 0.60052 0.29472 0.68903 0.0
C1148 C 0.59253 0.28709 0.74759 0.0
C1149 C 0.59854 0.27308 0.64298 0.0
C1150 C 0.58232 0.25716 0.75848 0.0
C1151 C 0.58027 0.23556 0.71287 0.0
H1152 H 0.32205 0.13946 0.55085 0.0
H1153 H 0.35414 0.04689 0.5282 0.0
H1154 H 0.36972 0.0452 0.6305 0.0
H1155 H 0.37411 0.06972 0.72714 0.0
H1156 H 0.34221 0.16237 0.74969 0.0
H1157 H 0.32598 0.1638 0.64779 0.0
C1158 C 0.33217 0.11876 0.56827 0.0
C1159 C 0.33697 0.0934 0.53111 0.0
C1160 C 0.34099 0.11782 0.62764 0.0
C1161 C 0.35057 0.06701 0.55494 0.0
C1162 C 0.35933 0.06592 0.6138 0.0
C1163 C 0.36386 0.09037 0.7098 0.0
C1164 C 0.3595 0.11589 0.74676 0.0
C1165 C 0.35478 0.09121 0.65059 0.0
C1166 C 0.34558 0.14216 0.72311 0.0
C1167 C 0.33644 0.14311 0.66445 0.0
H1168 H 0.11018 0.69448 0.51044 0.0
H1169 H 0.10105 0.60194 0.57408 0.0
H1170 H 0.10245 0.58281 0.47398 0.0
H1171 H 0.10645 0.59218 0.36813 0.0
H1172 H 0.119 0.68445 0.30581 0.0
H1173 H 0.1171 0.70353 0.40551 0.0
C1174 C 0.10894 0.67006 0.50276 0.0
C1175 C 0.10523 0.64984 0.55025 0.0
C1176 C 0.11049 0.65904 0.44506 0.0
C1177 C 0.10319 0.61827 0.5387 0.0
C1178 C 0.10428 0.60721 0.48133 0.0
C1179 C 0.10851 0.6165 0.37616 0.0
C1180 C 0.11209 0.63683 0.32874 0.0
C1181 C 0.10778 0.62739 0.4341 0.0
C1182 C 0.11577 0.66817 0.34074 0.0
C1183 C 0.1147 0.67918 0.39805 0.0
H1184 H 0.70738 0.89952 0.56485 0.0
H1185 H 0.61549 0.90791 0.50004 0.0
H1186 H 0.59585 0.90577 0.59978 0.0
H1187 H 0.60435 0.90058 0.70573 0.0
H1188 H 0.6961 0.89026 0.76996 0.0
H1189 H 0.7158 0.89322 0.67059 0.0
C1190 C 0.68301 0.90059 0.57224 0.0
C1191 C 0.66312 0.90412 0.52426 0.0
C1192 C 0.67167 0.89881 0.63 0.0
C1193 C 0.6316 0.90586 0.5356 0.0
C1194 C 0.62023 0.90436 0.59286 0.0
C1195 C 0.6287 0.89931 0.69832 0.0
C1196 C 0.64858 0.8956 0.7463 0.0
C1197 C 0.64002 0.90086 0.64049 0.0
C1198 C 0.68003 0.89317 0.73471 0.0
C1199 C 0.69143 0.89493 0.67754 0.0
H1200 H 0.89242 0.32885 0.31578 0.0
H1201 H 0.88552 0.42561 0.35011 0.0
H1202 H 0.88732 0.41583 0.45496 0.0
H1203 H 0.89091 0.38 0.53774 0.0
H1204 H 0.8985 0.28322 0.50354 0.0
H1205 H 0.8954 0.29288 0.39879 0.0
C1206 C 0.89115 0.34785 0.34592 0.0
C1207 C 0.88929 0.37803 0.32408 0.0
C1208 C 0.89211 0.34208 0.40677 0.0
C1209 C 0.8877 0.40219 0.3648 0.0
C1210 C 0.88851 0.39661 0.42514 0.0
C1211 C 0.89224 0.36096 0.50751 0.0
C1212 C 0.89494 0.33085 0.52934 0.0
C1213 C 0.89092 0.36667 0.44672 0.0
C1214 C 0.89598 0.30661 0.48879 0.0
C1215 C 0.89448 0.31214 0.42846 0.0
H1216 H 0.32916 0.41196 0.56552 0.0
H1217 H 0.41621 0.36963 0.59846 0.0
H1218 H 0.40568 0.3696 0.70337 0.0
H1219 H 0.37173 0.38108 0.78616 0.0
H1220 H 0.28537 0.42524 0.75394 0.0
H1221 H 0.29538 0.42426 0.64902 0.0
C1222 C 0.34575 0.40254 0.59558 0.0
C1223 C 0.37354 0.39092 0.57368 0.0
C1224 C 0.33961 0.40272 0.65633 0.0
C1225 C 0.39483 0.37913 0.61374 0.0
C1226 C 0.38876 0.37895 0.67392 0.0
C1227 C 0.35517 0.3909 0.75652 0.0
C1228 C 0.32772 0.40315 0.77888 0.0
C1229 C 0.36128 0.39078 0.69582 0.0
C1230 C 0.30647 0.41513 0.73876 0.0
C1231 C 0.31227 0.41481 0.67841 0.0
H1232 H 0.38852 0.62861 0.28128 0.0
H1233 H 0.41711 0.72153 0.31203 0.0
H1234 H 0.41623 0.71251 0.41744 0.0
H1235 H 0.40654 0.67848 0.50169 0.0
H1236 H 0.37775 0.58564 0.47037 0.0
H1237 H 0.3789 0.59471 0.36529 0.0
C1238 C 0.39434 0.64703 0.3109 0.0
C1239 C 0.403 0.67572 0.28802 0.0
C1240 C 0.39354 0.64179 0.3719 0.0
C1241 C 0.41085 0.69904 0.32773 0.0
C1242 C 0.41013 0.69397 0.38833 0.0
C1243 C 0.40062 0.66013 0.47211 0.0
C1244 C 0.39168 0.63145 0.49491 0.0
C1245 C 0.40151 0.66542 0.41105 0.0
C1246 C 0.38405 0.60816 0.45497 0.0
C1247 C 0.38493 0.61324 0.39447 0.0
H1248 H 0.68945 0.63002 0.76245 0.0
H1249 H 0.64194 0.54442 0.78236 0.0
H1250 H 0.62613 0.54645 0.68025 0.0
H1251 H 0.6248 0.57272 0.58551 0.0
H1252 H 0.6706 0.65932 0.56546 0.0
H1253 H 0.6886 0.65619 0.66619 0.0
C1254 C 0.67587 0.61169 0.74428 0.0
C1255 C 0.66673 0.58722 0.78056 0.0
C1256 C 0.66655 0.61308 0.68514 0.0
C1257 C 0.64894 0.56378 0.75605 0.0
C1258 C 0.63996 0.56485 0.69742 0.0
C1259 C 0.63842 0.59117 0.6031 0.0
C1260 C 0.64602 0.61633 0.56724 0.0
C1261 C 0.64832 0.58953 0.66167 0.0
C1262 C 0.66449 0.63947 0.59117 0.0
C1263 C 0.67468 0.63782 0.6492 0.0
H1264 H 0.62007 0.40692 0.44969 0.0
H1265 H 0.57659 0.32475 0.51253 0.0
H1266 H 0.57269 0.30575 0.41295 0.0
H1267 H 0.58228 0.3117 0.30745 0.0
H1268 H 0.62289 0.39525 0.24387 0.0
H1269 H 0.62776 0.4138 0.3438 0.0
C1270 C 0.61002 0.3847 0.44192 0.0
C1271 C 0.59927 0.36719 0.48962 0.0
C1272 C 0.60737 0.37393 0.38392 0.0
C1273 C 0.58542 0.33884 0.47757 0.0
C1274 C 0.58312 0.32784 0.42024 0.0
C1275 C 0.59187 0.33415 0.31509 0.0
C1276 C 0.60244 0.35175 0.26736 0.0
C1277 C 0.59407 0.34513 0.37299 0.0
C1278 C 0.61516 0.38066 0.27915 0.0
C1279 C 0.61774 0.39151 0.33655 0.0
H1280 H 0.80615 0.63325 0.0566 0.0
H1281 H 0.8691 0.56151 1.00928 0.0
H1282 H 0.88718 0.55903 0.11013 0.0
H1283 H 0.88671 0.5786 0.21143 0.0
H1284 H 0.82368 0.65034 0.25849 0.0
H1285 H 0.8046 0.65172 0.15841 0.0
C1286 C 0.82394 0.61715 0.06818 0.0
C1287 C 0.83621 0.59764 1.02487 0.0
C1288 C 0.83447 0.61598 0.12643 0.0
C1289 C 0.85889 0.57658 0.04142 0.0
C1290 C 0.86944 0.57529 0.09919 0.0
C1291 C 0.86859 0.59435 0.20006 0.0
C1292 C 0.85696 0.61454 0.24288 0.0
C1293 C 0.85756 0.59501 0.14207 0.0
C1294 C 0.83363 0.63495 0.22661 0.0
C1295 C 0.8225 0.63563 0.16927 0.0
H1296 H 0.59666 0.18606 0.8114 0.0
H1297 H 0.62491 0.09357 0.84847 0.0
H1298 H 0.62219 0.10387 0.95323 0.0
H1299 H 0.61051 0.13852 0.03496 0.0
H1300 H 0.58359 0.23156 0.9985 0.0
H1301 H 0.58639 0.22137 0.89377 0.0
C1302 C 0.60206 0.16809 0.84234 0.0
C1303 C 0.61104 0.13903 0.8215 0.0
C1304 C 0.60046 0.17417 0.90305 0.0
C1305 C 0.61833 0.11625 0.86272 0.0
C1306 C 0.6166 0.12207 0.92289 0.0
C1307 C 0.60561 0.15678 1.00433 0.0
C1308 C 0.59663 0.18578 1.02548 0.0
C1309 C 0.60764 0.15091 0.94367 0.0
C1310 C 0.58997 0.20882 0.98426 0.0
C1311 C 0.59178 0.20308 0.92399 0.0
H1312 H 0.10084 0.38288 0.20119 0.0
H1313 H 0.18081 0.42964 0.26397 0.0
H1314 H 0.19961 0.43467 0.16428 0.0
H1315 H 0.19411 0.42516 0.05864 0.0
H1316 H 0.11315 0.38033 0.99539 0.0
H1317 H 0.09462 0.37472 0.09541 0.0
C1318 C 0.12255 0.3939 0.19338 0.0
C1319 C 0.13945 0.40534 0.24105 0.0
C1320 C 0.13326 0.39703 0.13539 0.0
C1321 C 0.16714 0.42037 0.22899 0.0
C1322 C 0.17804 0.42328 0.17162 0.0
C1323 C 0.17225 0.41444 0.06646 0.0
C1324 C 0.15532 0.40297 1.01887 0.0
C1325 C 0.16135 0.41166 0.1244 0.0
C1326 C 0.12717 0.38883 1.03069 0.0
C1327 C 0.11634 0.3858 0.08809 0.0
H1328 H 0.39671 0.87094 0.04816 0.0
H1329 H 0.40247 0.77415 1.01352 0.0
H1330 H 0.40157 0.78413 0.90844 0.0
H1331 H 0.40005 0.82058 0.82524 0.0
H1332 H 0.39226 0.91714 0.86139 0.0
H1333 H 0.3929 0.90687 0.96595 0.0
C1334 C 0.39741 0.8519 1.01786 0.0
C1335 C 0.3998 0.82177 0.03961 0.0
C1336 C 0.39669 0.85777 0.95706 0.0
C1337 C 0.40117 0.79763 0.99878 0.0
C1338 C 0.40047 0.80332 0.93832 0.0
C1339 C 0.39823 0.8394 0.85582 0.0
C1340 C 0.3966 0.86973 0.83449 0.0
C1341 C 0.39838 0.83334 0.91676 0.0
C1342 C 0.39434 0.89363 0.87566 0.0
C1343 C 0.39448 0.88778 0.93588 0.0
H1344 H 0.8134 0.91732 0.24996 0.0
H1345 H 0.90175 0.89405 0.31905 0.0
H1346 H 0.92219 0.88988 0.21987 0.0
H1347 H 0.9149 0.89197 0.11234 0.0
H1348 H 0.82689 0.91614 0.04414 0.0
H1349 H 0.80633 0.92024 0.14325 0.0
C1350 C 0.83707 0.9111 0.24341 0.0
C1351 C 0.85592 0.90607 0.29234 0.0
C1352 C 0.84875 0.90865 0.18601 0.0
C1353 C 0.88671 0.89848 0.28256 0.0
C1354 C 0.89843 0.89591 0.22567 0.0
C1355 C 0.89127 0.8982 0.11938 0.0
C1356 C 0.87217 0.90291 0.07078 0.0
C1357 C 0.8797 0.90093 0.17694 0.0
C1358 C 0.84167 0.91122 0.08062 0.0
C1359 C 0.83002 0.91393 0.13742 0.0
H1360 H 0.88073 0.18244 0.99572 0.0
H1361 H 0.92495 0.09558 0.96571 0.0
H1362 H 0.92846 0.1068 0.86161 0.0
H1363 H 0.91797 0.14054 0.77769 0.0
H1364 H 0.87309 0.22699 0.80685 0.0
H1365 H 0.87067 0.21649 0.91184 0.0
C1366 C 0.8911 0.16586 0.96663 0.0
C1367 C 0.90287 0.13827 0.98959 0.0
C1368 C 0.89284 0.17233 0.90609 0.0
C1369 C 0.91626 0.1173 0.95032 0.0
C1370 C 0.9181 0.12359 0.89034 0.0
C1371 C 0.90791 0.15724 0.80703 0.0
C1372 C 0.89561 0.18449 0.78396 0.0
C1373 C 0.90646 0.151 0.86762 0.0
C1374 C 0.88235 0.20563 0.82295 0.0
C1375 C 0.88106 0.19969 0.8832 0.0
H1376 H 0.12497 0.07315 0.0896 0.0
H1377 H 0.15758 0.16564 0.07058 0.0
H1378 H 0.17357 0.16586 0.17265 0.0
H1379 H 0.17709 0.14054 0.2688 0.0
H1380 H 0.14447 0.04805 0.28786 0.0
H1381 H 0.12907 0.04759 0.18544 0.0
C1382 C 0.13532 0.0935 0.10774 0.0
C1383 C 0.13995 0.11934 0.07167 0.0
C1384 C 0.1443 0.09364 0.16708 0.0
C1385 C 0.154 0.1452 0.0964 0.0
C1386 C 0.16301 0.14546 0.15519 0.0
C1387 C 0.1669 0.12012 0.2506 0.0
C1388 C 0.16189 0.09443 0.28687 0.0
C1389 C 0.15821 0.11986 0.19109 0.0
C1390 C 0.1482 0.06842 0.26193 0.0
C1391 C 0.13954 0.06803 0.20296 0.0
H1392 H 0.12885 0.8793 0.77252 0.0
H1393 H 0.09099 0.78995 0.80642 0.0
H1394 H 0.09202 0.8 0.91121 0.0
H1395 H 0.10203 0.83481 0.99403 0.0
H1396 H 0.13732 0.92494 0.95963 0.0
H1397 H 0.1381 0.91419 0.85473 0.0
C1398 C 0.12044 0.86206 0.8025 0.0
C1399 C 0.10994 0.83379 0.78064 0.0
C1400 C 0.12042 0.86822 0.8631 0.0
C1401 C 0.09978 0.8117 0.82118 0.0
C1402 C 0.10009 0.81752 0.88146 0.0
C1403 C 0.11015 0.85198 0.96362 0.0
C1404 C 0.11962 0.88066 0.98495 0.0
C1405 C 0.11026 0.84573 0.90301 0.0
C1406 C 0.12963 0.9028 0.9446 0.0
C1407 C 0.13019 0.89661 0.88451 0.0
loop_
_geom_bond_atom_site_label_1
_geom_bond_atom_site_label_2
_geom_bond_distance
_geom_bond_site_symmetry_2
_ccdc_geom_bond_type
Gd0 C3 2.818 . S
Gd0 O20 2.377 . S
Gd0 O22 2.448 . S
Gd0 O23 2.506 . S
Gd0 O24 2.435 . S
Gd0 O25 2.717 . S
Gd0 O27 2.395 . S
Gd0 O31 2.327 . S
Gd1 C12 2.818 1_554 S
Gd1 O21 2.395 . S
Gd1 O25 2.327 . S
Gd1 O26 2.377 . S
Gd1 O28 2.448 1_554 S
Gd1 O29 2.506 1_554 S
Gd1 O30 2.435 . S
Gd1 O31 2.717 . S
C2 O20 1.240 . S
C2 O21 1.240 . S
C3 Gd0 2.818 . S
C3 C4 1.510 . S
C3 O22 1.249 . S
C3 O23 1.252 . S
C4 C3 1.510 . S
C4 C5 1.404 . S
C4 C6 1.352 . S
C5 C4 1.404 . S
C5 C9 1.389 . S
C5 H32 0.930 . S
C6 C4 1.352 . S
C6 C8 1.374 . S
C6 H33 0.931 . S
C7 C8 1.359 . S
C7 C9 1.364 . S
C8 C6 1.374 . S
C8 C7 1.359 . S
C8 H34 0.931 . S
C9 C5 1.389 . S
C9 C7 1.364 . S
C9 H35 0.931 . S
C10 O24 1.256 . S
C10 O25 1.257 . S
C11 O26 1.240 . S
C11 O27 1.240 . S
C12 Gd1 2.818 1_556 S
C12 C13 1.510 . S
C12 O28 1.249 . S
C12 O29 1.252 . S
C13 C12 1.510 . S
C13 C14 1.404 . S
C13 C15 1.352 . S
C14 C13 1.404 . S
C14 C18 1.389 . S
C14 H36 0.930 . S
C15 C13 1.352 . S
C15 C17 1.374 . S
C15 H37 0.931 . S
C16 C17 1.359 . S
C16 C18 1.364 . S
C17 C15 1.374 . S
C17 C16 1.359 . S
C17 H38 0.931 . S
C18 C14 1.389 . S
C18 C16 1.364 . S
C18 H39 0.931 . S
C19 O30 1.256 . S
C19 O31 1.257 . S
O20 Gd0 2.377 . S
O20 C2 1.240 . S
O21 Gd1 2.395 . S
O21 C2 1.240 . S
O22 Gd0 2.448 . S
O22 C3 1.249 . S
O23 Gd0 2.506 . S
O23 C3 1.252 . S
O24 Gd0 2.435 . S
O24 C10 1.256 . S
O25 Gd0 2.717 . S
O25 Gd1 2.327 . S
O25 C10 1.257 . S
O26 Gd1 2.377 . S
O26 C11 1.240 . S
O27 Gd0 2.395 . S
O27 C11 1.240 . S
O28 Gd1 2.448 1_556 S
O28 C12 1.249 . S
O29 Gd1 2.506 1_556 S
O29 C12 1.252 . S
O30 Gd1 2.435 . S
O30 C19 1.256 . S
O31 Gd0 2.327 . S
O31 Gd1 2.717 . S
O31 C19 1.257 . S
H32 C5 0.930 . S
H33 C6 0.931 . S
H34 C8 0.931 . S
H35 C9 0.931 . S
H36 C14 0.930 . S
H37 C15 0.931 . S
H38 C17 0.931 . S
H39 C18 0.931 . S
Gd40 C43 2.818 1_556 S
Gd40 O60 2.377 . S
Gd40 O62 2.448 1_556 S
Gd40 O63 2.506 1_556 S
Gd40 O64 2.435 . S
Gd40 O65 2.717 . S
Gd40 O67 2.395 . S
Gd40 O71 2.327 . S
Gd41 C52 2.818 . S
Gd41 O61 2.395 . S
Gd41 O65 2.327 . S
Gd41 O66 2.377 . S
Gd41 O68 2.448 . S
Gd41 O69 2.506 . S
Gd41 O70 2.435 . S
Gd41 O71 2.717 . S
C42 O60 1.240 . S
C42 O61 1.240 . S
C43 Gd40 2.818 1_554 S
C43 C44 1.510 . S
C43 O62 1.249 . S
C43 O63 1.252 . S
C44 C43 1.510 . S
C44 C45 1.404 . S
C44 C46 1.352 . S
C45 C44 1.404 . S
C45 C49 1.389 . S
C45 H72 0.930 . S
C46 C44 1.352 . S
C46 C48 1.374 . S
C46 H73 0.931 . S
C47 C48 1.359 . S
C47 C49 1.364 . S
C48 C46 1.374 . S
C48 C47 1.359 . S
C48 H74 0.931 . S
C49 C45 1.389 . S
C49 C47 1.364 . S
C49 H75 0.931 . S
C50 O64 1.256 . S
C50 O65 1.257 . S
C51 O66 1.240 . S
C51 O67 1.240 . S
C52 Gd41 2.818 . S
C52 C53 1.510 . S
C52 O68 1.249 . S
C52 O69 1.252 . S
C53 C52 1.510 . S
C53 C54 1.404 . S
C53 C55 1.352 . S
C54 C53 1.404 . S
C54 C58 1.389 . S
C54 H76 0.930 . S
C55 C53 1.352 . S
C55 C57 1.374 . S
C55 H77 0.931 . S
C56 C57 1.359 . S
C56 C58 1.364 . S
C57 C55 1.374 . S
C57 C56 1.359 . S
C57 H78 0.931 . S
C58 C54 1.389 . S
C58 C56 1.364 . S
C58 H79 0.931 . S
C59 O70 1.256 . S
C59 O71 1.257 . S
O60 Gd40 2.377 . S
O60 C42 1.240 . S
O61 Gd41 2.395 . S
O61 C42 1.240 . S
O62 Gd40 2.448 1_554 S
O62 C43 1.249 . S
O63 Gd40 2.506 1_554 S
O63 C43 1.252 . S
O64 Gd40 2.435 . S
O64 C50 1.256 . S
O65 Gd40 2.717 . S
O65 Gd41 2.327 . S
O65 C50 1.257 . S
O66 Gd41 2.377 . S
O66 C51 1.240 . S
O67 Gd40 2.395 . S
O67 C51 1.240 . S
O68 Gd41 2.448 . S
O68 C52 1.249 . S
O69 Gd41 2.506 . S
O69 C52 1.252 . S
O70 Gd41 2.435 . S
O70 C59 1.256 . S
O71 Gd40 2.327 . S
O71 Gd41 2.717 . S
O71 C59 1.257 . S
H72 C45 0.930 . S
H73 C46 0.931 . S
H74 C48 0.931 . S
H75 C49 0.931 . S
H76 C54 0.930 . S
H77 C55 0.931 . S
H78 C57 0.931 . S
H79 C58 0.931 . S
Gd80 C83 2.818 . S
Gd80 O100 2.377 . S
Gd80 O102 2.448 . S
Gd80 O103 2.506 . S
Gd80 O104 2.435 . S
Gd80 O105 2.717 . S
Gd80 O107 2.395 . S
Gd80 O111 2.327 . S
Gd81 C92 2.818 1_554 S
Gd81 O101 2.395 . S
Gd81 O105 2.327 . S
Gd81 O106 2.377 . S
Gd81 O108 2.448 1_554 S
Gd81 O109 2.506 1_554 S
Gd81 O110 2.435 . S
Gd81 O111 2.717 . S
C82 O100 1.240 . S
C82 O101 1.240 . S
C83 Gd80 2.818 . S
C83 C84 1.510 . S
C83 O102 1.249 . S
C83 O103 1.252 . S
C84 C83 1.510 . S
C84 C85 1.404 . S
C84 C86 1.352 . S
C85 C84 1.404 . S
C85 C89 1.389 . S
C85 H112 0.930 . S
C86 C84 1.352 . S
C86 C88 1.374 . S
C86 H113 0.931 . S
C87 C88 1.359 . S
C87 C89 1.364 . S
C88 C86 1.374 . S
C88 C87 1.359 . S
C88 H114 0.931 . S
C89 C85 1.389 . S
C89 C87 1.364 . S
C89 H115 0.931 . S
C90 O104 1.256 . S
C90 O105 1.257 . S
C91 O106 1.240 . S
C91 O107 1.240 . S
C92 Gd81 2.818 1_556 S
C92 C93 1.510 . S
C92 O108 1.249 . S
C92 O109 1.252 . S
C93 C92 1.510 . S
C93 C94 1.404 . S
C93 C95 1.352 . S
C94 C93 1.404 . S
C94 C98 1.389 . S
C94 H116 0.930 . S
C95 C93 1.352 . S
C95 C97 1.374 . S
C95 H117 0.931 . S
C96 C97 1.359 . S
C96 C98 1.364 . S
C97 C95 1.374 . S
C97 C96 1.359 . S
C97 H118 0.931 . S
C98 C94 1.389 . S
C98 C96 1.364 . S
C98 H119 0.931 . S
C99 O110 1.256 . S
C99 O111 1.257 . S
O100 Gd80 2.377 . S
O100 C82 1.240 . S
O101 Gd81 2.395 . S
O101 C82 1.240 . S
O102 Gd80 2.448 . S
O102 C83 1.249 . S
O103 Gd80 2.506 . S
O103 C83 1.252 . S
O104 Gd80 2.435 . S
O104 C90 1.256 . S
O105 Gd80 2.717 . S
O105 Gd81 2.327 . S
O105 C90 1.257 . S
O106 Gd81 2.377 . S
O106 C91 1.240 . S
O107 Gd80 2.395 . S
O107 C91 1.240 . S
O108 Gd81 2.448 1_556 S
O108 C92 1.249 . S
O109 Gd81 2.506 1_556 S
O109 C92 1.252 . S
O110 Gd81 2.435 . S
O110 C99 1.256 . S
O111 Gd80 2.327 . S
O111 Gd81 2.717 . S
O111 C99 1.257 . S
H112 C85 0.930 . S
H113 C86 0.931 . S
H114 C88 0.931 . S
H115 C89 0.931 . S
H116 C94 0.930 . S
H117 C95 0.931 . S
H118 C97 0.931 . S
H119 C98 0.931 . S
Gd120 C123 2.818 1_556 S
Gd120 O140 2.377 . S
Gd120 O142 2.448 1_556 S
Gd120 O143 2.506 1_556 S
Gd120 O144 2.435 . S
Gd120 O145 2.717 . S
Gd120 O147 2.395 . S
Gd120 O151 2.327 . S
Gd121 C132 2.818 . S
Gd121 O141 2.395 . S
Gd121 O145 2.327 . S
Gd121 O146 2.377 . S
Gd121 O148 2.448 . S
Gd121 O149 2.506 . S
Gd121 O150 2.435 . S
Gd121 O151 2.717 . S
C122 O140 1.240 . S
C122 O141 1.240 . S
C123 Gd120 2.818 1_554 S
C123 C124 1.510 . S
C123 O142 1.249 . S
C123 O143 1.252 . S
C124 C123 1.510 . S
C124 C125 1.404 . S
C124 C126 1.352 . S
C125 C124 1.404 . S
C125 C129 1.389 . S
C125 H152 0.930 . S
C126 C124 1.352 . S
C126 C128 1.374 . S
C126 H153 0.931 . S
C127 C128 1.359 . S
C127 C129 1.364 . S
C128 C126 1.374 . S
C128 C127 1.359 . S
C128 H154 0.931 . S
C129 C125 1.389 . S
C129 C127 1.364 . S
C129 H155 0.931 . S
C130 O144 1.256 . S
C130 O145 1.257 . S
C131 O146 1.240 . S
C131 O147 1.240 . S
C132 Gd121 2.818 . S
C132 C133 1.510 . S
C132 O148 1.249 . S
C132 O149 1.252 . S
C133 C132 1.510 . S
C133 C134 1.404 . S
C133 C135 1.352 . S
C134 C133 1.404 . S
C134 C138 1.389 . S
C134 H156 0.930 . S
C135 C133 1.352 . S
C135 C137 1.374 . S
C135 H157 0.931 . S
C136 C137 1.359 . S
C136 C138 1.364 . S
C137 C135 1.374 . S
C137 C136 1.359 . S
C137 H158 0.931 . S
C138 C134 1.389 . S
C138 C136 1.364 . S
C138 H159 0.931 . S
C139 O150 1.256 . S
C139 O151 1.257 . S
O140 Gd120 2.377 . S
O140 C122 1.240 . S
O141 Gd121 2.395 . S
O141 C122 1.240 . S
O142 Gd120 2.448 1_554 S
O142 C123 1.249 . S
O143 Gd120 2.506 1_554 S
O143 C123 1.252 . S
O144 Gd120 2.435 . S
O144 C130 1.256 . S
O145 Gd120 2.717 . S
O145 Gd121 2.327 . S
O145 C130 1.257 . S
O146 Gd121 2.377 . S
O146 C131 1.240 . S
O147 Gd120 2.395 . S
O147 C131 1.240 . S
O148 Gd121 2.448 . S
O148 C132 1.249 . S
O149 Gd121 2.506 . S
O149 C132 1.252 . S
O150 Gd121 2.435 . S
O150 C139 1.256 . S
O151 Gd120 2.327 . S
O151 Gd121 2.717 . S
O151 C139 1.257 . S
H152 C125 0.930 . S
H153 C126 0.931 . S
H154 C128 0.931 . S
H155 C129 0.931 . S
H156 C134 0.930 . S
H157 C135 0.931 . S
H158 C137 0.931 . S
H159 C138 0.931 . S
Gd160 C163 2.818 1_554 S
Gd160 O180 2.377 . S
Gd160 O182 2.448 1_554 S
Gd160 O183 2.506 1_554 S
Gd160 O184 2.435 . S
Gd160 O185 2.717 . S
Gd160 O187 2.395 . S
Gd160 O191 2.327 . S
Gd161 C172 2.818 . S
Gd161 O181 2.395 . S
Gd161 O185 2.327 . S
Gd161 O186 2.377 . S
Gd161 O188 2.448 . S
Gd161 O189 2.506 . S
Gd161 O190 2.435 . S
Gd161 O191 2.717 . S
C162 O180 1.240 . S
C162 O181 1.240 . S
C163 Gd160 2.818 1_556 S
C163 C164 1.510 . S
C163 O182 1.249 . S
C163 O183 1.252 . S
C164 C163 1.510 . S
C164 C165 1.404 . S
C164 C166 1.352 . S
C165 C164 1.404 . S
C165 C169 1.389 . S
C165 H192 0.930 . S
C166 C164 1.352 . S
C166 C168 1.374 . S
C166 H193 0.931 . S
C167 C168 1.359 . S
C167 C169 1.364 . S
C168 C166 1.374 . S
C168 C167 1.359 . S
C168 H194 0.931 . S
C169 C165 1.389 . S
C169 C167 1.364 . S
C169 H195 0.931 . S
C170 O184 1.256 . S
C170 O185 1.257 . S
C171 O186 1.240 . S
C171 O187 1.240 . S
C172 Gd161 2.818 . S
C172 C173 1.510 . S
C172 O188 1.249 . S
C172 O189 1.252 . S
C173 C172 1.510 . S
C173 C174 1.404 . S
C173 C175 1.352 . S
C174 C173 1.404 . S
C174 C178 1.389 . S
C174 H196 0.930 . S
C175 C173 1.352 . S
C175 C177 1.374 . S
C175 H197 0.931 . S
C176 C177 1.359 . S
C176 C178 1.364 . S
C177 C175 1.374 . S
C177 C176 1.359 . S
C177 H198 0.931 . S
C178 C174 1.389 . S
C178 C176 1.364 . S
C178 H199 0.931 . S
C179 O190 1.256 . S
C179 O191 1.257 . S
O180 Gd160 2.377 . S
O180 C162 1.240 . S
O181 Gd161 2.395 . S
O181 C162 1.240 . S
O182 Gd160 2.448 1_556 S
O182 C163 1.249 . S
O183 Gd160 2.506 1_556 S
O183 C163 1.252 . S
O184 Gd160 2.435 . S
O184 C170 1.256 . S
O185 Gd160 2.717 . S
O185 Gd161 2.327 . S
O185 C170 1.257 . S
O186 Gd161 2.377 . S
O186 C171 1.240 . S
O187 Gd160 2.395 . S
O187 C171 1.240 . S
O188 Gd161 2.448 . S
O188 C172 1.249 . S
O189 Gd161 2.506 . S
O189 C172 1.252 . S
O190 Gd161 2.435 . S
O190 C179 1.256 . S
O191 Gd160 2.327 . S
O191 Gd161 2.717 . S
O191 C179 1.257 . S
H192 C165 0.930 . S
H193 C166 0.931 . S
H194 C168 0.931 . S
H195 C169 0.931 . S
H196 C174 0.930 . S
H197 C175 0.931 . S
H198 C177 0.931 . S
H199 C178 0.931 . S
Gd200 C203 2.818 . S
Gd200 O220 2.377 . S
Gd200 O222 2.448 . S
Gd200 O223 2.506 . S
Gd200 O224 2.435 . S
Gd200 O225 2.717 . S
Gd200 O227 2.395 . S
Gd200 O231 2.327 . S
Gd201 C212 2.818 1_556 S
Gd201 O221 2.395 . S
Gd201 O225 2.327 . S
Gd201 O226 2.377 . S
Gd201 O228 2.448 1_556 S
Gd201 O229 2.506 1_556 S
Gd201 O230 2.435 . S
Gd201 O231 2.717 . S
C202 O220 1.240 . S
C202 O221 1.240 . S
C203 Gd200 2.818 . S
C203 C204 1.510 . S
C203 O222 1.249 . S
C203 O223 1.252 . S
C204 C203 1.510 . S
C204 C205 1.404 . S
C204 C206 1.352 . S
C205 C204 1.404 . S
C205 C209 1.389 . S
C205 H232 0.930 . S
C206 C204 1.352 . S
C206 C208 1.374 . S
C206 H233 0.931 . S
C207 C208 1.359 . S
C207 C209 1.364 . S
C208 C206 1.374 . S
C208 C207 1.359 . S
C208 H234 0.931 . S
C209 C205 1.389 . S
C209 C207 1.364 . S
C209 H235 0.931 . S
C210 O224 1.256 . S
C210 O225 1.257 . S
C211 O226 1.240 . S
C211 O227 1.240 . S
C212 Gd201 2.818 1_554 S
C212 C213 1.510 . S
C212 O228 1.249 . S
C212 O229 1.252 . S
C213 C212 1.510 . S
C213 C214 1.404 . S
C213 C215 1.352 . S
C214 C213 1.404 . S
C214 C218 1.389 . S
C214 H236 0.930 . S
C215 C213 1.352 . S
C215 C217 1.374 . S
C215 H237 0.931 . S
C216 C217 1.359 . S
C216 C218 1.364 . S
C217 C215 1.374 . S
C217 C216 1.359 . S
C217 H238 0.931 . S
C218 C214 1.389 . S
C218 C216 1.364 . S
C218 H239 0.931 . S
C219 O230 1.256 . S
C219 O231 1.257 . S
O220 Gd200 2.377 . S
O220 C202 1.240 . S
O221 Gd201 2.395 . S
O221 C202 1.240 . S
O222 Gd200 2.448 . S
O222 C203 1.249 . S
O223 Gd200 2.506 . S
O223 C203 1.252 . S
O224 Gd200 2.435 . S
O224 C210 1.256 . S
O225 Gd200 2.717 . S
O225 Gd201 2.327 . S
O225 C210 1.257 . S
O226 Gd201 2.377 . S
O226 C211 1.240 . S
O227 Gd200 2.395 . S
O227 C211 1.240 . S
O228 Gd201 2.448 1_554 S
O228 C212 1.249 . S
O229 Gd201 2.506 1_554 S
O229 C212 1.252 . S
O230 Gd201 2.435 . S
O230 C219 1.256 . S
O231 Gd200 2.327 . S
O231 Gd201 2.717 . S
O231 C219 1.257 . S
H232 C205 0.930 . S
H233 C206 0.931 . S
H234 C208 0.931 . S
H235 C209 0.931 . S
H236 C214 0.930 . S
H237 C215 0.931 . S
H238 C217 0.931 . S
H239 C218 0.931 . S
Gd240 C243 2.818 1_554 S
Gd240 O260 2.377 . S
Gd240 O262 2.448 1_554 S
Gd240 O263 2.506 1_554 S
Gd240 O264 2.435 . S
Gd240 O265 2.717 . S
Gd240 O267 2.395 . S
Gd240 O271 2.327 . S
Gd241 C252 2.818 . S
Gd241 O261 2.395 . S
Gd241 O265 2.327 . S
Gd241 O266 2.377 . S
Gd241 O268 2.448 . S
Gd241 O269 2.506 . S
Gd241 O270 2.435 . S
Gd241 O271 2.717 . S
C242 O260 1.240 . S
C242 O261 1.240 . S
C243 Gd240 2.818 1_556 S
C243 C244 1.510 . S
C243 O262 1.249 . S
C243 O263 1.252 . S
C244 C243 1.510 . S
C244 C245 1.404 . S
C244 C246 1.352 . S
C245 C244 1.404 . S
C245 C249 1.389 . S
C245 H272 0.930 . S
C246 C244 1.352 . S
C246 C248 1.374 . S
C246 H273 0.931 . S
C247 C248 1.359 . S
C247 C249 1.364 . S
C248 C246 1.374 . S
C248 C247 1.359 . S
C248 H274 0.931 . S
C249 C245 1.389 . S
C249 C247 1.364 . S
C249 H275 0.931 . S
C250 O264 1.256 . S
C250 O265 1.257 . S
C251 O266 1.240 . S
C251 O267 1.240 . S
C252 Gd241 2.818 . S
C252 C253 1.510 . S
C252 O268 1.249 . S
C252 O269 1.252 . S
C253 C252 1.510 . S
C253 C254 1.404 . S
C253 C255 1.352 . S
C254 C253 1.404 . S
C254 C258 1.389 . S
C254 H276 0.930 . S
C255 C253 1.352 . S
C255 C257 1.374 . S
C255 H277 0.931 . S
C256 C257 1.359 . S
C256 C258 1.364 . S
C257 C255 1.374 . S
C257 C256 1.359 . S
C257 H278 0.931 . S
C258 C254 1.389 . S
C258 C256 1.364 . S
C258 H279 0.931 . S
C259 O270 1.256 . S
C259 O271 1.257 . S
O260 Gd240 2.377 . S
O260 C242 1.240 . S
O261 Gd241 2.395 . S
O261 C242 1.240 . S
O262 Gd240 2.448 1_556 S
O262 C243 1.249 . S
O263 Gd240 2.506 1_556 S
O263 C243 1.252 . S
O264 Gd240 2.435 . S
O264 C250 1.256 . S
O265 Gd240 2.717 . S
O265 Gd241 2.327 . S
O265 C250 1.257 . S
O266 Gd241 2.377 . S
O266 C251 1.240 . S
O267 Gd240 2.395 . S
O267 C251 1.240 . S
O268 Gd241 2.448 . S
O268 C252 1.249 . S
O269 Gd241 2.506 . S
O269 C252 1.252 . S
O270 Gd241 2.435 . S
O270 C259 1.256 . S
O271 Gd240 2.327 . S
O271 Gd241 2.717 . S
O271 C259 1.257 . S
H272 C245 0.930 . S
H273 C246 0.931 . S
H274 C248 0.931 . S
H275 C249 0.931 . S
H276 C254 0.930 . S
H277 C255 0.931 . S
H278 C257 0.931 . S
H279 C258 0.931 . S
Gd280 C283 2.818 . S
Gd280 O300 2.377 . S
Gd280 O302 2.448 . S
Gd280 O303 2.506 . S
Gd280 O304 2.435 . S
Gd280 O305 2.717 . S
Gd280 O307 2.395 . S
Gd280 O311 2.327 . S
Gd281 C292 2.818 1_556 S
Gd281 O301 2.395 . S
Gd281 O305 2.327 . S
Gd281 O306 2.377 . S
Gd281 O308 2.448 1_556 S
Gd281 O309 2.506 1_556 S
Gd281 O310 2.435 . S
Gd281 O311 2.717 . S
C282 O300 1.240 . S
C282 O301 1.240 . S
C283 Gd280 2.818 . S
C283 C284 1.510 . S
C283 O302 1.249 . S
C283 O303 1.252 . S
C284 C283 1.510 . S
C284 C285 1.404 . S
C284 C286 1.352 . S
C285 C284 1.404 . S
C285 C289 1.389 . S
C285 H312 0.930 . S
C286 C284 1.352 . S
C286 C288 1.374 . S
C286 H313 0.931 . S
C287 C288 1.359 . S
C287 C289 1.364 . S
C288 C286 1.374 . S
C288 C287 1.359 . S
C288 H314 0.931 . S
C289 C285 1.389 . S
C289 C287 1.364 . S
C289 H315 0.931 . S
C290 O304 1.256 . S
C290 O305 1.257 . S
C291 O306 1.240 . S
C291 O307 1.240 . S
C292 Gd281 2.818 1_554 S
C292 C293 1.510 . S
C292 O308 1.249 . S
C292 O309 1.252 . S
C293 C292 1.510 . S
C293 C294 1.404 . S
C293 C295 1.352 . S
C294 C293 1.404 . S
C294 C298 1.389 . S
C294 H316 0.930 . S
C295 C293 1.352 . S
C295 C297 1.374 . S
C295 H317 0.931 . S
C296 C297 1.359 . S
C296 C298 1.364 . S
C297 C295 1.374 . S
C297 C296 1.359 . S
C297 H318 0.931 . S
C298 C294 1.389 . S
C298 C296 1.364 . S
C298 H319 0.931 . S
C299 O310 1.256 . S
C299 O311 1.257 . S
O300 Gd280 2.377 . S
O300 C282 1.240 . S
O301 Gd281 2.395 . S
O301 C282 1.240 . S
O302 Gd280 2.448 . S
O302 C283 1.249 . S
O303 Gd280 2.506 . S
O303 C283 1.252 . S
O304 Gd280 2.435 . S
O304 C290 1.256 . S
O305 Gd280 2.717 . S
O305 Gd281 2.327 . S
O305 C290 1.257 . S
O306 Gd281 2.377 . S
O306 C291 1.240 . S
O307 Gd280 2.395 . S
O307 C291 1.240 . S
O308 Gd281 2.448 1_554 S
O308 C292 1.249 . S
O309 Gd281 2.506 1_554 S
O309 C292 1.252 . S
O310 Gd281 2.435 . S
O310 C299 1.256 . S
O311 Gd280 2.327 . S
O311 Gd281 2.717 . S
O311 C299 1.257 . S
H312 C285 0.930 . S
H313 C286 0.931 . S
H314 C288 0.931 . S
H315 C289 0.931 . S
H316 C294 0.930 . S
H317 C295 0.931 . S
H318 C297 0.931 . S
H319 C298 0.931 . S
Gd320 C323 2.818 . S
Gd320 O340 2.377 . S
Gd320 O342 2.448 . S
Gd320 O343 2.506 . S
Gd320 O344 2.435 . S
Gd320 O345 2.717 . S
Gd320 O347 2.395 . S
Gd320 O351 2.327 . S
Gd321 C332 2.818 . S
Gd321 O341 2.395 . S
Gd321 O345 2.327 . S
Gd321 O346 2.377 . S
Gd321 O348 2.448 . S
Gd321 O349 2.506 . S
Gd321 O350 2.435 . S
Gd321 O351 2.717 . S
C322 O340 1.240 . S
C322 O341 1.240 . S
C323 Gd320 2.818 . S
C323 C324 1.510 . S
C323 O342 1.249 . S
C323 O343 1.252 . S
C324 C323 1.510 . S
C324 C325 1.404 . S
C324 C326 1.352 . S
C325 C324 1.404 . S
C325 C329 1.389 . S
C325 H352 0.930 . S
C326 C324 1.352 . S
C326 C328 1.374 . S
C326 H353 0.931 . S
C327 C328 1.359 . S
C327 C329 1.364 . S
C328 C326 1.374 . S
C328 C327 1.359 . S
C328 H354 0.931 . S
C329 C325 1.389 . S
C329 C327 1.364 . S
C329 H355 0.931 . S
C330 O344 1.256 . S
C330 O345 1.257 . S
C331 O346 1.240 . S
C331 O347 1.240 . S
C332 Gd321 2.818 . S
C332 C333 1.510 . S
C332 O348 1.249 . S
C332 O349 1.252 . S
C333 C332 1.510 . S
C333 C334 1.404 . S
C333 C335 1.352 . S
C334 C333 1.404 . S
C334 C338 1.389 . S
C334 H356 0.930 . S
C335 C333 1.352 . S
C335 C337 1.374 . S
C335 H357 0.931 . S
C336 C337 1.359 . S
C336 C338 1.364 . S
C337 C335 1.374 . S
C337 C336 1.359 . S
C337 H358 0.931 . S
C338 C334 1.389 . S
C338 C336 1.364 . S
C338 H359 0.931 . S
C339 O350 1.256 . S
C339 O351 1.257 . S
O340 Gd320 2.377 . S
O340 C322 1.240 . S
O341 Gd321 2.395 . S
O341 C322 1.240 . S
O342 Gd320 2.448 . S
O342 C323 1.249 . S
O343 Gd320 2.506 . S
O343 C323 1.252 . S
O344 Gd320 2.435 . S
O344 C330 1.256 . S
O345 Gd320 2.717 . S
O345 Gd321 2.327 . S
O345 C330 1.257 . S
O346 Gd321 2.377 . S
O346 C331 1.240 . S
O347 Gd320 2.395 . S
O347 C331 1.240 . S
O348 Gd321 2.448 . S
O348 C332 1.249 . S
O349 Gd321 2.506 . S
O349 C332 1.252 . S
O350 Gd321 2.435 . S
O350 C339 1.256 . S
O351 Gd320 2.327 . S
O351 Gd321 2.717 . S
O351 C339 1.257 . S
H352 C325 0.930 . S
H353 C326 0.931 . S
H354 C328 0.931 . S
H355 C329 0.931 . S
H356 C334 0.930 . S
H357 C335 0.931 . S
H358 C337 0.931 . S
H359 C338 0.931 . S
Gd360 C363 2.818 . S
Gd360 O380 2.377 . S
Gd360 O382 2.448 . S
Gd360 O383 2.506 . S
Gd360 O384 2.435 . S
Gd360 O385 2.717 . S
Gd360 O387 2.395 . S
Gd360 O391 2.327 . S
Gd361 C372 2.818 . S
Gd361 O381 2.395 . S
Gd361 O385 2.327 . S
Gd361 O386 2.377 . S
Gd361 O388 2.448 . S
Gd361 O389 2.506 . S
Gd361 O390 2.435 . S
Gd361 O391 2.717 . S
C362 O380 1.240 . S
C362 O381 1.240 . S
C363 Gd360 2.818 . S
C363 C364 1.510 . S
C363 O382 1.249 . S
C363 O383 1.252 . S
C364 C363 1.510 . S
C364 C365 1.404 . S
C364 C366 1.352 . S
C365 C364 1.404 . S
C365 C369 1.389 . S
C365 H392 0.930 . S
C366 C364 1.352 . S
C366 C368 1.374 . S
C366 H393 0.931 . S
C367 C368 1.359 . S
C367 C369 1.364 . S
C368 C366 1.374 . S
C368 C367 1.359 . S
C368 H394 0.931 . S
C369 C365 1.389 . S
C369 C367 1.364 . S
C369 H395 0.931 . S
C370 O384 1.256 . S
C370 O385 1.257 . S
C371 O386 1.240 . S
C371 O387 1.240 . S
C372 Gd361 2.818 . S
C372 C373 1.510 . S
C372 O388 1.249 . S
C372 O389 1.252 . S
C373 C372 1.510 . S
C373 C374 1.404 . S
C373 C375 1.352 . S
C374 C373 1.404 . S
C374 C378 1.389 . S
C374 H396 0.930 . S
C375 C373 1.352 . S
C375 C377 1.374 . S
C375 H397 0.931 . S
C376 C377 1.359 . S
C376 C378 1.364 . S
C377 C375 1.374 . S
C377 C376 1.359 . S
C377 H398 0.931 . S
C378 C374 1.389 . S
C378 C376 1.364 . S
C378 H399 0.931 . S
C379 O390 1.256 . S
C379 O391 1.257 . S
O380 Gd360 2.377 . S
O380 C362 1.240 . S
O381 Gd361 2.395 . S
O381 C362 1.240 . S
O382 Gd360 2.448 . S
O382 C363 1.249 . S
O383 Gd360 2.506 . S
O383 C363 1.252 . S
O384 Gd360 2.435 . S
O384 C370 1.256 . S
O385 Gd360 2.717 . S
O385 Gd361 2.327 . S
O385 C370 1.257 . S
O386 Gd361 2.377 . S
O386 C371 1.240 . S
O387 Gd360 2.395 . S
O387 C371 1.240 . S
O388 Gd361 2.448 . S
O388 C372 1.249 . S
O389 Gd361 2.506 . S
O389 C372 1.252 . S
O390 Gd361 2.435 . S
O390 C379 1.256 . S
O391 Gd360 2.327 . S
O391 Gd361 2.717 . S
O391 C379 1.257 . S
H392 C365 0.930 . S
H393 C366 0.931 . S
H394 C368 0.931 . S
H395 C369 0.931 . S
H396 C374 0.930 . S
H397 C375 0.931 . S
H398 C377 0.931 . S
H399 C378 0.931 . S
Gd400 C403 2.818 . S
Gd400 O420 2.377 . S
Gd400 O422 2.448 . S
Gd400 O423 2.506 . S
Gd400 O424 2.435 . S
Gd400 O425 2.717 . S
Gd400 O427 2.395 . S
Gd400 O431 2.327 . S
Gd401 C412 2.818 . S
Gd401 O421 2.395 . S
Gd401 O425 2.327 . S
Gd401 O426 2.377 . S
Gd401 O428 2.448 . S
Gd401 O429 2.506 . S
Gd401 O430 2.435 . S
Gd401 O431 2.717 . S
C402 O420 1.240 . S
C402 O421 1.240 . S
C403 Gd400 2.818 . S
C403 C404 1.510 . S
C403 O422 1.249 . S
C403 O423 1.252 . S
C404 C403 1.510 . S
C404 C405 1.404 . S
C404 C406 1.352 . S
C405 C404 1.404 . S
C405 C409 1.389 . S
C405 H432 0.930 . S
C406 C404 1.352 . S
C406 C408 1.374 . S
C406 H433 0.931 . S
C407 C408 1.359 . S
C407 C409 1.364 . S
C408 C406 1.374 . S
C408 C407 1.359 . S
C408 H434 0.931 . S
C409 C405 1.389 . S
C409 C407 1.364 . S
C409 H435 0.931 . S
C410 O424 1.256 . S
C410 O425 1.257 . S
C411 O426 1.240 . S
C411 O427 1.240 . S
C412 Gd401 2.818 . S
C412 C413 1.510 . S
C412 O428 1.249 . S
C412 O429 1.252 . S
C413 C412 1.510 . S
C413 C414 1.404 . S
C413 C415 1.352 . S
C414 C413 1.404 . S
C414 C418 1.389 . S
C414 H436 0.930 . S
C415 C413 1.352 . S
C415 C417 1.374 . S
C415 H437 0.931 . S
C416 C417 1.359 . S
C416 C418 1.364 . S
C417 C415 1.374 . S
C417 C416 1.359 . S
C417 H438 0.931 . S
C418 C414 1.389 . S
C418 C416 1.364 . S
C418 H439 0.931 . S
C419 O430 1.256 . S
C419 O431 1.257 . S
O420 Gd400 2.377 . S
O420 C402 1.240 . S
O421 Gd401 2.395 . S
O421 C402 1.240 . S
O422 Gd400 2.448 . S
O422 C403 1.249 . S
O423 Gd400 2.506 . S
O423 C403 1.252 . S
O424 Gd400 2.435 . S
O424 C410 1.256 . S
O425 Gd400 2.717 . S
O425 Gd401 2.327 . S
O425 C410 1.257 . S
O426 Gd401 2.377 . S
O426 C411 1.240 . S
O427 Gd400 2.395 . S
O427 C411 1.240 . S
O428 Gd401 2.448 . S
O428 C412 1.249 . S
O429 Gd401 2.506 . S
O429 C412 1.252 . S
O430 Gd401 2.435 . S
O430 C419 1.256 . S
O431 Gd400 2.327 . S
O431 Gd401 2.717 . S
O431 C419 1.257 . S
H432 C405 0.930 . S
H433 C406 0.931 . S
H434 C408 0.931 . S
H435 C409 0.931 . S
H436 C414 0.930 . S
H437 C415 0.931 . S
H438 C417 0.931 . S
H439 C418 0.931 . S
Gd440 C443 2.818 . S
Gd440 O460 2.377 . S
Gd440 O462 2.448 . S
Gd440 O463 2.506 . S
Gd440 O464 2.435 . S
Gd440 O465 2.717 . S
Gd440 O467 2.395 . S
Gd440 O471 2.327 . S
Gd441 C452 2.818 . S
Gd441 O461 2.395 . S
Gd441 O465 2.327 . S
Gd441 O466 2.377 . S
Gd441 O468 2.448 . S
Gd441 O469 2.506 . S
Gd441 O470 2.435 . S
Gd441 O471 2.717 . S
C442 O460 1.240 . S
C442 O461 1.240 . S
C443 Gd440 2.818 . S
C443 C444 1.510 . S
C443 O462 1.249 . S
C443 O463 1.252 . S
C444 C443 1.510 . S
C444 C445 1.404 . S
C444 C446 1.352 . S
C445 C444 1.404 . S
C445 C449 1.389 . S
C445 H472 0.930 . S
C446 C444 1.352 . S
C446 C448 1.374 . S
C446 H473 0.931 . S
C447 C448 1.359 . S
C447 C449 1.364 . S
C448 C446 1.374 . S
C448 C447 1.359 . S
C448 H474 0.931 . S
C449 C445 1.389 . S
C449 C447 1.364 . S
C449 H475 0.931 . S
C450 O464 1.256 . S
C450 O465 1.257 . S
C451 O466 1.240 . S
C451 O467 1.240 . S
C452 Gd441 2.818 . S
C452 C453 1.510 . S
C452 O468 1.249 . S
C452 O469 1.252 . S
C453 C452 1.510 . S
C453 C454 1.404 . S
C453 C455 1.352 . S
C454 C453 1.404 . S
C454 C458 1.389 . S
C454 H476 0.930 . S
C455 C453 1.352 . S
C455 C457 1.374 . S
C455 H477 0.931 . S
C456 C457 1.359 . S
C456 C458 1.364 . S
C457 C455 1.374 . S
C457 C456 1.359 . S
C457 H478 0.931 . S
C458 C454 1.389 . S
C458 C456 1.364 . S
C458 H479 0.931 . S
C459 O470 1.256 . S
C459 O471 1.257 . S
O460 Gd440 2.377 . S
O460 C442 1.240 . S
O461 Gd441 2.395 . S
O461 C442 1.240 . S
O462 Gd440 2.448 . S
O462 C443 1.249 . S
O463 Gd440 2.506 . S
O463 C443 1.252 . S
O464 Gd440 2.435 . S
O464 C450 1.256 . S
O465 Gd440 2.717 . S
O465 Gd441 2.327 . S
O465 C450 1.257 . S
O466 Gd441 2.377 . S
O466 C451 1.240 . S
O467 Gd440 2.395 . S
O467 C451 1.240 . S
O468 Gd441 2.448 . S
O468 C452 1.249 . S
O469 Gd441 2.506 . S
O469 C452 1.252 . S
O470 Gd441 2.435 . S
O470 C459 1.256 . S
O471 Gd440 2.327 . S
O471 Gd441 2.717 . S
O471 C459 1.257 . S
H472 C445 0.930 . S
H473 C446 0.931 . S
H474 C448 0.931 . S
H475 C449 0.931 . S
H476 C454 0.930 . S
H477 C455 0.931 . S
H478 C457 0.931 . S
H479 C458 0.931 . S
Gd480 C483 2.818 . S
Gd480 O500 2.377 . S
Gd480 O502 2.448 . S
Gd480 O503 2.506 . S
Gd480 O504 2.435 . S
Gd480 O505 2.717 . S
Gd480 O507 2.395 . S
Gd480 O511 2.327 . S
Gd481 C492 2.818 . S
Gd481 O501 2.395 . S
Gd481 O505 2.327 . S
Gd481 O506 2.377 . S
Gd481 O508 2.448 . S
Gd481 O509 2.506 . S
Gd481 O510 2.435 . S
Gd481 O511 2.717 . S
C482 O500 1.240 . S
C482 O501 1.240 . S
C483 Gd480 2.818 . S
C483 C484 1.510 . S
C483 O502 1.249 . S
C483 O503 1.252 . S
C484 C483 1.510 . S
C484 C485 1.404 . S
C484 C486 1.352 . S
C485 C484 1.404 . S
C485 C489 1.389 . S
C485 H512 0.930 . S
C486 C484 1.352 . S
C486 C488 1.374 . S
C486 H513 0.931 . S
C487 C488 1.359 . S
C487 C489 1.364 . S
C488 C486 1.374 . S
C488 C487 1.359 . S
C488 H514 0.931 . S
C489 C485 1.389 . S
C489 C487 1.364 . S
C489 H515 0.931 . S
C490 O504 1.256 . S
C490 O505 1.257 . S
C491 O506 1.240 . S
C491 O507 1.240 . S
C492 Gd481 2.818 . S
C492 C493 1.510 . S
C492 O508 1.249 . S
C492 O509 1.252 . S
C493 C492 1.510 . S
C493 C494 1.404 . S
C493 C495 1.352 . S
C494 C493 1.404 . S
C494 C498 1.389 . S
C494 H516 0.930 . S
C495 C493 1.352 . S
C495 C497 1.374 . S
C495 H517 0.931 . S
C496 C497 1.359 . S
C496 C498 1.364 . S
C497 C495 1.374 . S
C497 C496 1.359 . S
C497 H518 0.931 . S
C498 C494 1.389 . S
C498 C496 1.364 . S
C498 H519 0.931 . S
C499 O510 1.256 . S
C499 O511 1.257 . S
O500 Gd480 2.377 . S
O500 C482 1.240 . S
O501 Gd481 2.395 . S
O501 C482 1.240 . S
O502 Gd480 2.448 . S
O502 C483 1.249 . S
O503 Gd480 2.506 . S
O503 C483 1.252 . S
O504 Gd480 2.435 . S
O504 C490 1.256 . S
O505 Gd480 2.717 . S
O505 Gd481 2.327 . S
O505 C490 1.257 . S
O506 Gd481 2.377 . S
O506 C491 1.240 . S
O507 Gd480 2.395 . S
O507 C491 1.240 . S
O508 Gd481 2.448 . S
O508 C492 1.249 . S
O509 Gd481 2.506 . S
O509 C492 1.252 . S
O510 Gd481 2.435 . S
O510 C499 1.256 . S
O511 Gd480 2.327 . S
O511 Gd481 2.717 . S
O511 C499 1.257 . S
H512 C485 0.930 . S
H513 C486 0.931 . S
H514 C488 0.931 . S
H515 C489 0.931 . S
H516 C494 0.930 . S
H517 C495 0.931 . S
H518 C497 0.931 . S
H519 C498 0.931 . S
Gd520 C523 2.818 . S
Gd520 O540 2.377 . S
Gd520 O542 2.448 . S
Gd520 O543 2.506 . S
Gd520 O544 2.435 . S
Gd520 O545 2.717 . S
Gd520 O547 2.395 . S
Gd520 O551 2.327 . S
Gd521 C532 2.818 . S
Gd521 O541 2.395 . S
Gd521 O545 2.327 . S
Gd521 O546 2.377 . S
Gd521 O548 2.448 . S
Gd521 O549 2.506 . S
Gd521 O550 2.435 . S
Gd521 O551 2.717 . S
C522 O540 1.240 . S
C522 O541 1.240 . S
C523 Gd520 2.818 . S
C523 C524 1.510 . S
C523 O542 1.249 . S
C523 O543 1.252 . S
C524 C523 1.510 . S
C524 C525 1.404 . S
C524 C526 1.352 . S
C525 C524 1.404 . S
C525 C529 1.389 . S
C525 H552 0.930 . S
C526 C524 1.352 . S
C526 C528 1.374 . S
C526 H553 0.931 . S
C527 C528 1.359 . S
C527 C529 1.364 . S
C528 C526 1.374 . S
C528 C527 1.359 . S
C528 H554 0.931 . S
C529 C525 1.389 . S
C529 C527 1.364 . S
C529 H555 0.931 . S
C530 O544 1.256 . S
C530 O545 1.257 . S
C531 O546 1.240 . S
C531 O547 1.240 . S
C532 Gd521 2.818 . S
C532 C533 1.510 . S
C532 O548 1.249 . S
C532 O549 1.252 . S
C533 C532 1.510 . S
C533 C534 1.404 . S
C533 C535 1.352 . S
C534 C533 1.404 . S
C534 C538 1.389 . S
C534 H556 0.930 . S
C535 C533 1.352 . S
C535 C537 1.374 . S
C535 H557 0.931 . S
C536 C537 1.359 . S
C536 C538 1.364 . S
C537 C535 1.374 . S
C537 C536 1.359 . S
C537 H558 0.931 . S
C538 C534 1.389 . S
C538 C536 1.364 . S
C538 H559 0.931 . S
C539 O550 1.256 . S
C539 O551 1.257 . S
O540 Gd520 2.377 . S
O540 C522 1.240 . S
O541 Gd521 2.395 . S
O541 C522 1.240 . S
O542 Gd520 2.448 . S
O542 C523 1.249 . S
O543 Gd520 2.506 . S
O543 C523 1.252 . S
O544 Gd520 2.435 . S
O544 C530 1.256 . S
O545 Gd520 2.717 . S
O545 Gd521 2.327 . S
O545 C530 1.257 . S
O546 Gd521 2.377 . S
O546 C531 1.240 . S
O547 Gd520 2.395 . S
O547 C531 1.240 . S
O548 Gd521 2.448 . S
O548 C532 1.249 . S
O549 Gd521 2.506 . S
O549 C532 1.252 . S
O550 Gd521 2.435 . S
O550 C539 1.256 . S
O551 Gd520 2.327 . S
O551 Gd521 2.717 . S
O551 C539 1.257 . S
H552 C525 0.930 . S
H553 C526 0.931 . S
H554 C528 0.931 . S
H555 C529 0.931 . S
H556 C534 0.930 . S
H557 C535 0.931 . S
H558 C537 0.931 . S
H559 C538 0.931 . S
Gd560 C563 2.818 . S
Gd560 O580 2.377 . S
Gd560 O582 2.448 . S
Gd560 O583 2.506 . S
Gd560 O584 2.435 . S
Gd560 O585 2.717 . S
Gd560 O587 2.395 . S
Gd560 O591 2.327 . S
Gd561 C572 2.818 . S
Gd561 O581 2.395 . S
Gd561 O585 2.327 . S
Gd561 O586 2.377 . S
Gd561 O588 2.448 . S
Gd561 O589 2.506 . S
Gd561 O590 2.435 . S
Gd561 O591 2.717 . S
C562 O580 1.240 . S
C562 O581 1.240 . S
C563 Gd560 2.818 . S
C563 C564 1.510 . S
C563 O582 1.249 . S
C563 O583 1.252 . S
C564 C563 1.510 . S
C564 C565 1.404 . S
C564 C566 1.352 . S
C565 C564 1.404 . S
C565 C569 1.389 . S
C565 H592 0.930 . S
C566 C564 1.352 . S
C566 C568 1.374 . S
C566 H593 0.931 . S
C567 C568 1.359 . S
C567 C569 1.364 . S
C568 C566 1.374 . S
C568 C567 1.359 . S
C568 H594 0.931 . S
C569 C565 1.389 . S
C569 C567 1.364 . S
C569 H595 0.931 . S
C570 O584 1.256 . S
C570 O585 1.257 . S
C571 O586 1.240 . S
C571 O587 1.240 . S
C572 Gd561 2.818 . S
C572 C573 1.510 . S
C572 O588 1.249 . S
C572 O589 1.252 . S
C573 C572 1.510 . S
C573 C574 1.404 . S
C573 C575 1.352 . S
C574 C573 1.404 . S
C574 C578 1.389 . S
C574 H596 0.930 . S
C575 C573 1.352 . S
C575 C577 1.374 . S
C575 H597 0.931 . S
C576 C577 1.359 . S
C576 C578 1.364 . S
C577 C575 1.374 . S
C577 C576 1.359 . S
C577 H598 0.931 . S
C578 C574 1.389 . S
C578 C576 1.364 . S
C578 H599 0.931 . S
C579 O590 1.256 . S
C579 O591 1.257 . S
O580 Gd560 2.377 . S
O580 C562 1.240 . S
O581 Gd561 2.395 . S
O581 C562 1.240 . S
O582 Gd560 2.448 . S
O582 C563 1.249 . S
O583 Gd560 2.506 . S
O583 C563 1.252 . S
O584 Gd560 2.435 . S
O584 C570 1.256 . S
O585 Gd560 2.717 . S
O585 Gd561 2.327 . S
O585 C570 1.257 . S
O586 Gd561 2.377 . S
O586 C571 1.240 . S
O587 Gd560 2.395 . S
O587 C571 1.240 . S
O588 Gd561 2.448 . S
O588 C572 1.249 . S
O589 Gd561 2.506 . S
O589 C572 1.252 . S
O590 Gd561 2.435 . S
O590 C579 1.256 . S
O591 Gd560 2.327 . S
O591 Gd561 2.717 . S
O591 C579 1.257 . S
H592 C565 0.930 . S
H593 C566 0.931 . S
H594 C568 0.931 . S
H595 C569 0.931 . S
H596 C574 0.930 . S
H597 C575 0.931 . S
H598 C577 0.931 . S
H599 C578 0.931 . S
Gd600 C603 2.818 . S
Gd600 O620 2.377 . S
Gd600 O622 2.448 . S
Gd600 O623 2.506 . S
Gd600 O624 2.435 . S
Gd600 O625 2.717 . S
Gd600 O627 2.395 . S
Gd600 O631 2.327 . S
Gd601 C612 2.818 . S
Gd601 O621 2.395 . S
Gd601 O625 2.327 . S
Gd601 O626 2.377 . S
Gd601 O628 2.448 . S
Gd601 O629 2.506 . S
Gd601 O630 2.435 . S
Gd601 O631 2.717 . S
C602 O620 1.240 . S
C602 O621 1.240 . S
C603 Gd600 2.818 . S
C603 C604 1.510 . S
C603 O622 1.249 . S
C603 O623 1.252 . S
C604 C603 1.510 . S
C604 C605 1.404 . S
C604 C606 1.352 . S
C605 C604 1.404 . S
C605 C609 1.389 . S
C605 H632 0.930 . S
C606 C604 1.352 . S
C606 C608 1.374 . S
C606 H633 0.931 . S
C607 C608 1.359 . S
C607 C609 1.364 . S
C608 C606 1.374 . S
C608 C607 1.359 . S
C608 H634 0.931 . S
C609 C605 1.389 . S
C609 C607 1.364 . S
C609 H635 0.931 . S
C610 O624 1.256 . S
C610 O625 1.257 . S
C611 O626 1.240 . S
C611 O627 1.240 . S
C612 Gd601 2.818 . S
C612 C613 1.510 . S
C612 O628 1.249 . S
C612 O629 1.252 . S
C613 C612 1.510 . S
C613 C614 1.404 . S
C613 C615 1.352 . S
C614 C613 1.404 . S
C614 C618 1.389 . S
C614 H636 0.930 . S
C615 C613 1.352 . S
C615 C617 1.374 . S
C615 H637 0.931 . S
C616 C617 1.359 . S
C616 C618 1.364 . S
C617 C615 1.374 . S
C617 C616 1.359 . S
C617 H638 0.931 . S
C618 C614 1.389 . S
C618 C616 1.364 . S
C618 H639 0.931 . S
C619 O630 1.256 . S
C619 O631 1.257 . S
O620 Gd600 2.377 . S
O620 C602 1.240 . S
O621 Gd601 2.395 . S
O621 C602 1.240 . S
O622 Gd600 2.448 . S
O622 C603 1.249 . S
O623 Gd600 2.506 . S
O623 C603 1.252 . S
O624 Gd600 2.435 . S
O624 C610 1.256 . S
O625 Gd600 2.717 . S
O625 Gd601 2.327 . S
O625 C610 1.257 . S
O626 Gd601 2.377 . S
O626 C611 1.240 . S
O627 Gd600 2.395 . S
O627 C611 1.240 . S
O628 Gd601 2.448 . S
O628 C612 1.249 . S
O629 Gd601 2.506 . S
O629 C612 1.252 . S
O630 Gd601 2.435 . S
O630 C619 1.256 . S
O631 Gd600 2.327 . S
O631 Gd601 2.717 . S
O631 C619 1.257 . S
H632 C605 0.930 . S
H633 C606 0.931 . S
H634 C608 0.931 . S
H635 C609 0.931 . S
H636 C614 0.930 . S
H637 C615 0.931 . S
H638 C617 0.931 . S
H639 C618 0.931 . S
H640 C646 0.930 . S
H641 C649 0.930 . S
H642 C650 0.930 . S
H643 C651 0.930 . S
H644 C654 0.935 . S
H645 C655 0.930 . S
C646 H640 0.930 . S
C646 C647 1.355 . S
C646 C648 1.415 . S
C647 C646 1.355 . S
C647 C649 1.419 . S
C648 C646 1.415 . S
C648 C653 1.425 . S
C648 C655 1.409 . S
C649 H641 0.930 . S
C649 C647 1.419 . S
C649 C650 1.362 . S
C650 H642 0.930 . S
C650 C649 1.362 . S
C650 C653 1.409 . S
C651 H643 0.930 . S
C651 C652 1.355 . S
C651 C653 1.415 1_545 S
C652 C651 1.355 . S
C652 C654 1.429 . S
C653 C648 1.425 . S
C653 C650 1.409 . S
C653 C651 1.415 1_565 S
C654 H644 0.935 . S
C654 C652 1.429 . S
C654 C655 1.348 1_545 S
C655 H645 0.930 . S
C655 C648 1.409 . S
C655 C654 1.348 1_565 S
H656 C662 0.930 . S
H657 C665 0.930 . S
H658 C666 0.930 . S
H659 C667 0.930 . S
H660 C670 0.930 . S
H661 C671 0.930 . S
C662 H656 0.930 . S
C662 C663 1.355 . S
C662 C664 1.415 . S
C663 C662 1.355 . S
C663 C665 1.419 . S
C664 C662 1.415 . S
C664 C669 1.425 . S
C664 C671 1.409 . S
C665 H657 0.930 . S
C665 C663 1.419 . S
C665 C666 1.362 . S
C666 H658 0.930 . S
C666 C665 1.362 . S
C666 C669 1.409 . S
C667 H659 0.930 . S
C667 C668 1.355 . S
C667 C669 1.415 1_455 S
C668 C667 1.355 . S
C668 C670 1.419 1_455 S
C669 C664 1.425 . S
C669 C666 1.409 . S
C669 C667 1.415 1_655 S
C670 H660 0.930 . S
C670 C668 1.419 1_655 S
C670 C671 1.362 . S
C671 H661 0.930 . S
C671 C664 1.409 . S
C671 C670 1.362 . S
H672 C678 0.930 1_565 S
H673 C681 0.930 . S
H674 C682 0.930 . S
H675 C683 0.930 . S
H676 C686 0.930 . S
H677 C687 0.930 . S
C678 H672 0.930 1_545 S
C678 C679 1.355 1_545 S
C678 C680 1.415 . S
C679 C678 1.355 1_565 S
C679 C681 1.419 . S
C680 C678 1.415 . S
C680 C685 1.425 . S
C680 C687 1.409 . S
C681 H673 0.930 . S
C681 C679 1.419 . S
C681 C682 1.362 1_565 S
C682 H674 0.930 . S
C682 C681 1.362 1_545 S
C682 C685 1.409 . S
C683 H675 0.930 . S
C683 C684 1.355 . S
C683 C685 1.415 . S
C684 C683 1.355 . S
C684 C686 1.419 . S
C685 C680 1.425 . S
C685 C682 1.409 . S
C685 C683 1.415 . S
C686 H676 0.930 . S
C686 C684 1.419 . S
C686 C687 1.362 . S
C687 H677 0.930 . S
C687 C680 1.409 . S
C687 C686 1.362 . S
H688 C694 0.930 . S
H689 C697 0.930 . S
H690 C698 0.930 . S
H691 C699 0.930 . S
H692 C702 0.930 . S
H693 C703 0.930 . S
C694 H688 0.930 . S
C694 C695 1.355 1_455 S
C694 C696 1.415 . S
C695 C694 1.355 1_655 S
C695 C697 1.419 . S
C696 C694 1.415 . S
C696 C701 1.425 . S
C696 C703 1.409 . S
C697 H689 0.930 . S
C697 C695 1.419 . S
C697 C698 1.362 . S
C698 H690 0.930 . S
C698 C697 1.362 . S
C698 C701 1.409 1_655 S
C699 H691 0.930 . S
C699 C700 1.355 . S
C699 C701 1.415 . S
C700 C699 1.355 . S
C700 C702 1.419 . S
C701 C696 1.425 . S
C701 C698 1.409 1_455 S
C701 C699 1.415 . S
C702 H692 0.930 . S
C702 C700 1.419 . S
C702 C703 1.362 . S
C703 H693 0.930 . S
C703 C696 1.409 . S
C703 C702 1.362 . S
H704 C710 0.930 . S
H705 C713 0.930 . S
H706 C714 0.930 . S
H707 C715 0.930 . S
H708 C718 0.930 . S
H709 C719 0.930 . S
C710 H704 0.930 . S
C710 C711 1.355 . S
C710 C712 1.415 . S
C711 C710 1.355 . S
C711 C713 1.419 . S
C712 C710 1.415 . S
C712 C717 1.425 . S
C712 C719 1.409 . S
C713 H705 0.930 . S
C713 C711 1.419 . S
C713 C714 1.362 . S
C714 H706 0.930 . S
C714 C713 1.362 . S
C714 C717 1.409 . S
C715 H707 0.930 . S
C715 C716 1.355 . S
C715 C717 1.415 1_556 S
C716 C715 1.355 . S
C716 C718 1.419 1_556 S
C717 C712 1.425 . S
C717 C714 1.409 . S
C717 C715 1.415 1_554 S
C718 H708 0.930 . S
C718 C716 1.419 1_554 S
C718 C719 1.362 . S
C719 H709 0.930 . S
C719 C712 1.409 . S
C719 C718 1.362 . S
H720 C726 0.930 . S
H721 C729 0.930 . S
H722 C730 0.930 . S
H723 C731 0.930 . S
H724 C734 0.930 . S
H725 C735 0.930 . S
C726 H720 0.930 . S
C726 C727 1.355 . S
C726 C728 1.415 1_554 S
C727 C726 1.355 . S
C727 C729 1.419 1_554 S
C728 C726 1.415 1_556 S
C728 C733 1.425 . S
C728 C735 1.409 1_556 S
C729 H721 0.930 . S
C729 C727 1.419 1_556 S
C729 C730 1.362 . S
C730 H722 0.930 . S
C730 C729 1.362 . S
C730 C733 1.409 . S
C731 H723 0.930 . S
C731 C732 1.355 . S
C731 C733 1.415 . S
C732 C731 1.355 . S
C732 C734 1.419 . S
C733 C728 1.425 . S
C733 C730 1.409 . S
C733 C731 1.415 . S
C734 H724 0.930 . S
C734 C732 1.419 . S
C734 C735 1.362 1_556 S
C735 H725 0.930 . S
C735 C728 1.409 1_554 S
C735 C734 1.362 1_554 S
H736 C742 0.930 . S
H737 C745 0.930 . S
H738 C746 0.930 . S
H739 C747 0.931 . S
H740 C750 0.930 1_556 S
H741 C751 0.930 . S
C742 H736 0.930 . S
C742 C743 1.355 . S
C742 C744 1.415 . S
C743 C742 1.355 . S
C743 C745 1.419 . S
C744 C742 1.415 . S
C744 C749 1.425 . S
C744 C751 1.409 . S
C745 H737 0.930 . S
C745 C743 1.419 . S
C745 C746 1.362 . S
C746 H738 0.930 . S
C746 C745 1.362 . S
C746 C749 1.409 . S
C747 H739 0.931 . S
C747 C748 1.356 . S
C747 C749 1.412 1_556 S
C748 C747 1.356 . S
C748 C750 1.419 1_556 S
C749 C744 1.425 . S
C749 C746 1.409 . S
C749 C747 1.412 1_554 S
C750 H740 0.930 1_554 S
C750 C748 1.419 1_554 S
C750 C751 1.362 . S
C751 H741 0.930 . S
C751 C744 1.409 . S
C751 C750 1.362 . S
H752 C758 0.930 . S
H753 C761 0.930 . S
H754 C762 0.930 . S
H755 C763 0.930 . S
H756 C766 0.930 . S
H757 C767 0.930 . S
C758 H752 0.930 . S
C758 C759 1.355 . S
C758 C760 1.415 1_554 S
C759 C758 1.355 . S
C759 C761 1.419 1_554 S
C760 C758 1.415 1_556 S
C760 C765 1.425 . S
C760 C767 1.409 1_556 S
C761 H753 0.930 . S
C761 C759 1.419 1_556 S
C761 C762 1.362 . S
C762 H754 0.930 . S
C762 C761 1.362 . S
C762 C765 1.409 . S
C763 H755 0.930 . S
C763 C764 1.355 . S
C763 C765 1.415 . S
C764 C763 1.355 . S
C764 C766 1.419 . S
C765 C760 1.425 . S
C765 C762 1.409 . S
C765 C763 1.415 . S
C766 H756 0.930 . S
C766 C764 1.419 . S
C766 C767 1.362 1_556 S
C767 H757 0.930 . S
C767 C760 1.409 1_554 S
C767 C766 1.362 1_554 S
H768 C774 0.930 . S
H769 C777 0.930 . S
H770 C778 0.930 . S
H771 C779 0.930 . S
H772 C782 0.930 . S
H773 C783 0.930 . S
C774 H768 0.930 . S
C774 C775 1.355 . S
C774 C776 1.415 . S
C775 C774 1.355 . S
C775 C777 1.419 . S
C776 C774 1.415 . S
C776 C781 1.425 . S
C776 C783 1.409 . S
C777 H769 0.930 . S
C777 C775 1.419 . S
C777 C778 1.362 . S
C778 H770 0.930 . S
C778 C777 1.362 . S
C778 C781 1.409 . S
C779 H771 0.930 . S
C779 C780 1.355 . S
C779 C781 1.415 . S
C780 C779 1.355 . S
C780 C782 1.419 . S
C781 C776 1.425 . S
C781 C778 1.409 . S
C781 C779 1.415 . S
C782 H772 0.930 . S
C782 C780 1.419 . S
C782 C783 1.362 . S
C783 H773 0.930 . S
C783 C776 1.409 . S
C783 C782 1.362 . S
H784 C790 0.930 . S
H785 C793 0.930 . S
H786 C794 0.930 . S
H787 C795 0.930 . S
H788 C798 0.930 . S
H789 C799 0.930 . S
C790 H784 0.930 . S
C790 C791 1.355 . S
C790 C792 1.415 . S
C791 C790 1.355 . S
C791 C793 1.419 . S
C792 C790 1.415 . S
C792 C797 1.425 . S
C792 C799 1.409 . S
C793 H785 0.930 . S
C793 C791 1.419 . S
C793 C794 1.362 . S
C794 H786 0.930 . S
C794 C793 1.362 . S
C794 C797 1.409 . S
C795 H787 0.930 . S
C795 C796 1.355 . S
C795 C797 1.415 . S
C796 C795 1.355 . S
C796 C798 1.419 . S
C797 C792 1.425 . S
C797 C794 1.409 . S
C797 C795 1.415 . S
C798 H788 0.930 . S
C798 C796 1.419 . S
C798 C799 1.362 . S
C799 H789 0.930 . S
C799 C792 1.409 . S
C799 C798 1.362 . S
H800 C806 0.930 . S
H801 C809 0.930 . S
H802 C810 0.930 . S
H803 C811 0.930 . S
H804 C814 0.930 . S
H805 C815 0.930 . S
C806 H800 0.930 . S
C806 C807 1.355 . S
C806 C808 1.415 . S
C807 C806 1.355 . S
C807 C809 1.419 . S
C808 C806 1.415 . S
C808 C813 1.425 . S
C808 C815 1.409 . S
C809 H801 0.930 . S
C809 C807 1.419 . S
C809 C810 1.362 . S
C810 H802 0.930 . S
C810 C809 1.362 . S
C810 C813 1.409 . S
C811 H803 0.930 . S
C811 C812 1.355 . S
C811 C813 1.415 . S
C812 C811 1.355 . S
C812 C814 1.419 . S
C813 C808 1.425 . S
C813 C810 1.409 . S
C813 C811 1.415 . S
C814 H804 0.930 . S
C814 C812 1.419 . S
C814 C815 1.362 . S
C815 H805 0.930 . S
C815 C808 1.409 . S
C815 C814 1.362 . S
H816 C822 0.930 . S
H817 C825 0.930 . S
H818 C826 0.930 . S
H819 C827 0.930 . S
H820 C830 0.930 . S
H821 C831 0.930 . S
C822 H816 0.930 . S
C822 C823 1.355 . S
C822 C824 1.415 . S
C823 C822 1.355 . S
C823 C825 1.419 . S
C824 C822 1.415 . S
C824 C829 1.425 . S
C824 C831 1.409 . S
C825 H817 0.930 . S
C825 C823 1.419 . S
C825 C826 1.362 . S
C826 H818 0.930 . S
C826 C825 1.362 . S
C826 C829 1.409 . S
C827 H819 0.930 . S
C827 C828 1.355 . S
C827 C829 1.415 . S
C828 C827 1.355 . S
C828 C830 1.419 . S
C829 C824 1.425 . S
C829 C826 1.409 . S
C829 C827 1.415 . S
C830 H820 0.930 . S
C830 C828 1.419 . S
C830 C831 1.362 . S
C831 H821 0.930 . S
C831 C824 1.409 . S
C831 C830 1.362 . S
H832 C838 0.930 . S
H833 C841 0.930 . S
H834 C842 0.930 . S
H835 C843 0.930 . S
H836 C846 0.930 . S
H837 C847 0.930 . S
C838 H832 0.930 . S
C838 C839 1.355 1_545 S
C838 C840 1.415 . S
C839 C838 1.355 1_565 S
C839 C841 1.419 . S
C840 C838 1.415 . S
C840 C845 1.425 . S
C840 C847 1.409 . S
C841 H833 0.930 . S
C841 C839 1.419 . S
C841 C842 1.362 1_565 S
C842 H834 0.930 . S
C842 C841 1.362 1_545 S
C842 C845 1.409 . S
C843 H835 0.930 . S
C843 C844 1.355 . S
C843 C845 1.415 . S
C844 C843 1.355 . S
C844 C846 1.419 . S
C845 C840 1.425 . S
C845 C842 1.409 . S
C845 C843 1.415 . S
C846 H836 0.930 . S
C846 C844 1.419 . S
C846 C847 1.362 . S
C847 H837 0.930 . S
C847 C840 1.409 . S
C847 C846 1.362 . S
H848 C854 0.930 . S
H849 C857 0.930 . S
H850 C858 0.930 . S
H851 C859 0.930 . S
H852 C862 0.930 . S
H853 C863 0.930 . S
C854 H848 0.930 . S
C854 C855 1.355 . S
C854 C856 1.415 . S
C855 C854 1.355 . S
C855 C857 1.419 . S
C856 C854 1.415 . S
C856 C861 1.425 . S
C856 C863 1.409 1_455 S
C857 H849 0.930 . S
C857 C855 1.419 . S
C857 C858 1.362 . S
C858 H850 0.930 . S
C858 C857 1.362 . S
C858 C861 1.409 . S
C859 H851 0.930 . S
C859 C860 1.355 1_455 S
C859 C861 1.415 . S
C860 C859 1.355 1_655 S
C860 C862 1.419 . S
C861 C856 1.425 . S
C861 C858 1.409 . S
C861 C859 1.415 . S
C862 H852 0.930 . S
C862 C860 1.419 . S
C862 C863 1.362 . S
C863 H853 0.930 . S
C863 C856 1.409 1_655 S
C863 C862 1.362 . S
H864 C870 0.930 . S
H865 C873 0.930 . S
H866 C874 0.930 . S
H867 C875 0.930 . S
H868 C878 0.930 . S
H869 C879 0.930 . S
C870 H864 0.930 . S
C870 C871 1.355 . S
C870 C872 1.415 . S
C871 C870 1.355 . S
C871 C873 1.419 . S
C872 C870 1.415 . S
C872 C877 1.425 . S
C872 C879 1.409 . S
C873 H865 0.930 . S
C873 C871 1.419 . S
C873 C874 1.362 . S
C874 H866 0.930 . S
C874 C873 1.362 . S
C874 C877 1.409 . S
C875 H867 0.930 . S
C875 C876 1.355 1_565 S
C875 C877 1.415 . S
C876 C875 1.355 1_545 S
C876 C878 1.419 . S
C877 C872 1.425 . S
C877 C874 1.409 . S
C877 C875 1.415 . S
C878 H868 0.930 . S
C878 C876 1.419 . S
C878 C879 1.362 1_545 S
C879 H869 0.930 . S
C879 C872 1.409 . S
C879 C878 1.362 1_565 S
H880 C886 0.930 . S
H881 C889 0.930 . S
H882 C890 0.930 . S
H883 C891 0.930 . S
H884 C894 0.930 . S
H885 C895 0.930 . S
C886 H880 0.930 . S
C886 C887 1.355 1_655 S
C886 C888 1.415 . S
C887 C886 1.355 1_455 S
C887 C889 1.419 . S
C888 C886 1.415 . S
C888 C893 1.425 . S
C888 C895 1.409 . S
C889 H881 0.930 . S
C889 C887 1.419 . S
C889 C890 1.362 . S
C890 H882 0.930 . S
C890 C889 1.362 . S
C890 C893 1.409 1_455 S
C891 H883 0.930 . S
C891 C892 1.355 . S
C891 C893 1.415 . S
C892 C891 1.355 . S
C892 C894 1.419 . S
C893 C888 1.425 . S
C893 C890 1.409 1_655 S
C893 C891 1.415 . S
C894 H884 0.930 . S
C894 C892 1.419 . S
C894 C895 1.362 . S
C895 H885 0.930 . S
C895 C888 1.409 . S
C895 C894 1.362 . S
H896 C902 0.930 . S
H897 C905 0.930 . S
H898 C906 0.930 . S
H899 C907 0.930 . S
H900 C910 0.930 . S
H901 C911 0.930 . S
C902 H896 0.930 . S
C902 C903 1.355 . S
C902 C904 1.415 . S
C903 C902 1.355 . S
C903 C905 1.419 . S
C904 C902 1.415 . S
C904 C909 1.425 . S
C904 C911 1.409 . S
C905 H897 0.930 . S
C905 C903 1.419 . S
C905 C906 1.362 . S
C906 H898 0.930 . S
C906 C905 1.362 . S
C906 C909 1.409 . S
C907 H899 0.930 . S
C907 C908 1.355 . S
C907 C909 1.415 . S
C908 C907 1.355 . S
C908 C910 1.419 . S
C909 C904 1.425 . S
C909 C906 1.409 . S
C909 C907 1.415 . S
C910 H900 0.930 . S
C910 C908 1.419 . S
C910 C911 1.362 . S
C911 H901 0.930 . S
C911 C904 1.409 . S
C911 C910 1.362 . S
H912 C918 0.930 . S
H913 C921 0.930 . S
H914 C922 0.930 . S
H915 C923 0.930 . S
H916 C926 0.930 . S
H917 C927 0.930 . S
C918 H912 0.930 . S
C918 C919 1.355 . S
C918 C920 1.415 . S
C919 C918 1.355 . S
C919 C921 1.419 . S
C920 C918 1.415 . S
C920 C925 1.425 . S
C920 C927 1.409 . S
C921 H913 0.930 . S
C921 C919 1.419 . S
C921 C922 1.362 . S
C922 H914 0.930 . S
C922 C921 1.362 . S
C922 C925 1.409 . S
C923 H915 0.930 . S
C923 C924 1.355 . S
C923 C925 1.415 . S
C924 C923 1.355 . S
C924 C926 1.419 . S
C925 C920 1.425 . S
C925 C922 1.409 . S
C925 C923 1.415 . S
C926 H916 0.930 . S
C926 C924 1.419 . S
C926 C927 1.362 . S
C927 H917 0.930 . S
C927 C920 1.409 . S
C927 C926 1.362 . S
H928 C934 0.930 . S
H929 C937 0.930 . S
H930 C938 0.930 . S
H931 C939 0.930 . S
H932 C942 0.930 . S
H933 C943 0.930 . S
C934 H928 0.930 . S
C934 C935 1.355 . S
C934 C936 1.415 . S
C935 C934 1.355 . S
C935 C937 1.419 . S
C936 C934 1.415 . S
C936 C941 1.425 . S
C936 C943 1.409 . S
C937 H929 0.930 . S
C937 C935 1.419 . S
C937 C938 1.362 . S
C938 H930 0.930 . S
C938 C937 1.362 . S
C938 C941 1.409 . S
C939 H931 0.930 . S
C939 C940 1.355 . S
C939 C941 1.415 . S
C940 C939 1.355 . S
C940 C942 1.419 . S
C941 C936 1.425 . S
C941 C938 1.409 . S
C941 C939 1.415 . S
C942 H932 0.930 . S
C942 C940 1.419 . S
C942 C943 1.362 . S
C943 H933 0.930 . S
C943 C936 1.409 . S
C943 C942 1.362 . S
H944 C950 0.930 . S
H945 C953 0.930 . S
H946 C954 0.930 . S
H947 C955 0.930 . S
H948 C958 0.930 . S
H949 C959 0.930 . S
C950 H944 0.930 . S
C950 C951 1.355 . S
C950 C952 1.415 . S
C951 C950 1.355 . S
C951 C953 1.419 . S
C952 C950 1.415 . S
C952 C957 1.425 . S
C952 C959 1.409 . S
C953 H945 0.930 . S
C953 C951 1.419 . S
C953 C954 1.362 . S
C954 H946 0.930 . S
C954 C953 1.362 . S
C954 C957 1.409 . S
C955 H947 0.930 . S
C955 C956 1.355 . S
C955 C957 1.415 . S
C956 C955 1.355 . S
C956 C958 1.419 . S
C957 C952 1.425 . S
C957 C954 1.409 . S
C957 C955 1.415 . S
C958 H948 0.930 . S
C958 C956 1.419 . S
C958 C959 1.362 . S
C959 H949 0.930 . S
C959 C952 1.409 . S
C959 C958 1.362 . S
H960 C966 0.930 . S
H961 C969 0.930 . S
H962 C970 0.930 . S
H963 C971 0.930 . S
H964 C974 0.930 . S
H965 C975 0.930 . S
C966 H960 0.930 . S
C966 C967 1.355 . S
C966 C968 1.415 . S
C967 C966 1.355 . S
C967 C969 1.419 . S
C968 C966 1.415 . S
C968 C973 1.425 . S
C968 C975 1.409 . S
C969 H961 0.930 . S
C969 C967 1.419 . S
C969 C970 1.362 . S
C970 H962 0.930 . S
C970 C969 1.362 . S
C970 C973 1.409 . S
C971 H963 0.930 . S
C971 C972 1.355 . S
C971 C973 1.415 . S
C972 C971 1.355 . S
C972 C974 1.419 . S
C973 C968 1.425 . S
C973 C970 1.409 . S
C973 C971 1.415 . S
C974 H964 0.930 . S
C974 C972 1.419 . S
C974 C975 1.362 . S
C975 H965 0.930 . S
C975 C968 1.409 . S
C975 C974 1.362 . S
H976 C982 0.930 . S
H977 C985 0.930 . S
H978 C986 0.930 . S
H979 C987 0.930 . S
H980 C990 0.930 . S
H981 C991 0.930 . S
C982 H976 0.930 . S
C982 C983 1.355 . S
C982 C984 1.415 . S
C983 C982 1.355 . S
C983 C985 1.419 . S
C984 C982 1.415 . S
C984 C989 1.425 . S
C984 C991 1.409 . S
C985 H977 0.930 . S
C985 C983 1.419 . S
C985 C986 1.362 . S
C986 H978 0.930 . S
C986 C985 1.362 . S
C986 C989 1.409 . S
C987 H979 0.930 . S
C987 C988 1.355 . S
C987 C989 1.415 . S
C988 C987 1.355 . S
C988 C990 1.419 . S
C989 C984 1.425 . S
C989 C986 1.409 . S
C989 C987 1.415 . S
C990 H980 0.930 . S
C990 C988 1.419 . S
C990 C991 1.362 . S
C991 H981 0.930 . S
C991 C984 1.409 . S
C991 C990 1.362 . S
H992 C998 0.930 . S
H993 C1001 0.930 . S
H994 C1002 0.930 . S
H995 C1003 0.930 . S
H996 C1006 0.930 . S
H997 C1007 0.930 . S
C998 H992 0.930 . S
C998 C999 1.355 . S
C998 C1000 1.415 . S
C999 C998 1.355 . S
C999 C1001 1.419 . S
C1000 C998 1.415 . S
C1000 C1005 1.425 . S
C1000 C1007 1.409 . S
C1001 H993 0.930 . S
C1001 C999 1.419 . S
C1001 C1002 1.362 . S
C1002 H994 0.930 . S
C1002 C1001 1.362 . S
C1002 C1005 1.409 . S
C1003 H995 0.930 . S
C1003 C1004 1.355 . S
C1003 C1005 1.415 . S
C1004 C1003 1.355 . S
C1004 C1006 1.419 . S
C1005 C1000 1.425 . S
C1005 C1002 1.409 . S
C1005 C1003 1.415 . S
C1006 H996 0.930 . S
C1006 C1004 1.419 . S
C1006 C1007 1.362 . S
C1007 H997 0.930 . S
C1007 C1000 1.409 . S
C1007 C1006 1.362 . S
H1008 C1014 0.930 . S
H1009 C1017 0.930 . S
H1010 C1018 0.930 . S
H1011 C1019 0.930 . S
H1012 C1022 0.930 . S
H1013 C1023 0.930 . S
C1014 H1008 0.930 . S
C1014 C1015 1.355 . S
C1014 C1016 1.415 . S
C1015 C1014 1.355 . S
C1015 C1017 1.419 . S
C1016 C1014 1.415 . S
C1016 C1021 1.425 . S
C1016 C1023 1.409 . S
C1017 H1009 0.930 . S
C1017 C1015 1.419 . S
C1017 C1018 1.362 . S
C1018 H1010 0.930 . S
C1018 C1017 1.362 . S
C1018 C1021 1.409 . S
C1019 H1011 0.930 . S
C1019 C1020 1.355 . S
C1019 C1021 1.415 . S
C1020 C1019 1.355 . S
C1020 C1022 1.419 . S
C1021 C1016 1.425 . S
C1021 C1018 1.409 . S
C1021 C1019 1.415 . S
C1022 H1012 0.930 . S
C1022 C1020 1.419 . S
C1022 C1023 1.362 . S
C1023 H1013 0.930 . S
C1023 C1016 1.409 . S
C1023 C1022 1.362 . S
H1024 C1030 0.930 . S
H1025 C1033 0.930 . S
H1026 C1034 0.930 . S
H1027 C1035 0.930 . S
H1028 C1038 0.930 . S
H1029 C1039 0.930 . S
C1030 H1024 0.930 . S
C1030 C1031 1.355 . S
C1030 C1032 1.415 . S
C1031 C1030 1.355 . S
C1031 C1033 1.419 . S
C1032 C1030 1.415 . S
C1032 C1037 1.425 . S
C1032 C1039 1.409 . S
C1033 H1025 0.930 . S
C1033 C1031 1.419 . S
C1033 C1034 1.362 . S
C1034 H1026 0.930 . S
C1034 C1033 1.362 . S
C1034 C1037 1.409 . S
C1035 H1027 0.930 . S
C1035 C1036 1.355 . S
C1035 C1037 1.415 . S
C1036 C1035 1.355 . S
C1036 C1038 1.419 . S
C1037 C1032 1.425 . S
C1037 C1034 1.409 . S
C1037 C1035 1.415 . S
C1038 H1028 0.930 . S
C1038 C1036 1.419 . S
C1038 C1039 1.362 . S
C1039 H1029 0.930 . S
C1039 C1032 1.409 . S
C1039 C1038 1.362 . S
H1040 C1046 0.930 . S
H1041 C1049 0.930 1_556 S
H1042 C1050 0.930 . S
H1043 C1051 0.930 . S
H1044 C1054 0.930 . S
H1045 C1055 0.930 . S
C1046 H1040 0.930 . S
C1046 C1047 1.355 . S
C1046 C1048 1.415 . S
C1047 C1046 1.355 . S
C1047 C1049 1.419 . S
C1048 C1046 1.415 . S
C1048 C1053 1.425 . S
C1048 C1055 1.409 . S
C1049 H1041 0.930 1_554 S
C1049 C1047 1.419 . S
C1049 C1050 1.362 . S
C1050 H1042 0.930 . S
C1050 C1049 1.362 . S
C1050 C1053 1.409 . S
C1051 H1043 0.930 . S
C1051 C1052 1.355 . S
C1051 C1053 1.415 . S
C1052 C1051 1.355 . S
C1052 C1054 1.419 . S
C1053 C1048 1.425 . S
C1053 C1050 1.409 . S
C1053 C1051 1.415 . S
C1054 H1044 0.930 . S
C1054 C1052 1.419 . S
C1054 C1055 1.362 . S
C1055 H1045 0.930 . S
C1055 C1048 1.409 . S
C1055 C1054 1.362 . S
H1056 C1062 0.930 . S
H1057 C1065 0.930 . S
H1058 C1066 0.930 . S
H1059 C1067 0.930 . S
H1060 C1070 0.930 . S
H1061 C1071 0.930 . S
C1062 H1056 0.930 . S
C1062 C1063 1.355 . S
C1062 C1064 1.415 . S
C1063 C1062 1.355 . S
C1063 C1065 1.419 . S
C1064 C1062 1.415 . S
C1064 C1069 1.425 . S
C1064 C1071 1.409 . S
C1065 H1057 0.930 . S
C1065 C1063 1.419 . S
C1065 C1066 1.362 . S
C1066 H1058 0.930 . S
C1066 C1065 1.362 . S
C1066 C1069 1.409 . S
C1067 H1059 0.930 . S
C1067 C1068 1.355 . S
C1067 C1069 1.415 . S
C1068 C1067 1.355 . S
C1068 C1070 1.419 . S
C1069 C1064 1.425 . S
C1069 C1066 1.409 . S
C1069 C1067 1.415 . S
C1070 H1060 0.930 . S
C1070 C1068 1.419 . S
C1070 C1071 1.362 . S
C1071 H1061 0.930 . S
C1071 C1064 1.409 . S
C1071 C1070 1.362 . S
H1072 C1078 0.930 . S
H1073 C1081 0.930 . S
H1074 C1082 0.930 . S
H1075 C1083 0.930 . S
H1076 C1086 0.930 . S
H1077 C1087 0.930 . S
C1078 H1072 0.930 . S
C1078 C1079 1.355 . S
C1078 C1080 1.415 . S
C1079 C1078 1.355 . S
C1079 C1081 1.419 . S
C1080 C1078 1.415 . S
C1080 C1085 1.425 . S
C1080 C1087 1.409 . S
C1081 H1073 0.930 . S
C1081 C1079 1.419 . S
C1081 C1082 1.362 . S
C1082 H1074 0.930 . S
C1082 C1081 1.362 . S
C1082 C1085 1.409 . S
C1083 H1075 0.930 . S
C1083 C1084 1.355 . S
C1083 C1085 1.415 . S
C1084 C1083 1.355 . S
C1084 C1086 1.419 . S
C1085 C1080 1.425 . S
C1085 C1082 1.409 . S
C1085 C1083 1.415 . S
C1086 H1076 0.930 . S
C1086 C1084 1.419 . S
C1086 C1087 1.362 . S
C1087 H1077 0.930 . S
C1087 C1080 1.409 . S
C1087 C1086 1.362 . S
H1088 C1094 0.930 . S
H1089 C1097 0.930 . S
H1090 C1098 0.930 . S
H1091 C1099 0.930 . S
H1092 C1102 0.930 . S
H1093 C1103 0.930 . S
C1094 H1088 0.930 . S
C1094 C1095 1.355 . S
C1094 C1096 1.415 . S
C1095 C1094 1.355 . S
C1095 C1097 1.419 . S
C1096 C1094 1.415 . S
C1096 C1101 1.425 . S
C1096 C1103 1.409 . S
C1097 H1089 0.930 . S
C1097 C1095 1.419 . S
C1097 C1098 1.362 . S
C1098 H1090 0.930 . S
C1098 C1097 1.362 . S
C1098 C1101 1.409 . S
C1099 H1091 0.930 . S
C1099 C1100 1.355 . S
C1099 C1101 1.415 . S
C1100 C1099 1.355 . S
C1100 C1102 1.419 . S
C1101 C1096 1.425 . S
C1101 C1098 1.409 . S
C1101 C1099 1.415 . S
C1102 H1092 0.930 . S
C1102 C1100 1.419 . S
C1102 C1103 1.362 . S
C1103 H1093 0.930 . S
C1103 C1096 1.409 . S
C1103 C1102 1.362 . S
H1104 C1110 0.930 . S
H1105 C1113 0.930 . S
H1106 C1114 0.930 . S
H1107 C1115 0.930 . S
H1108 C1118 0.930 . S
H1109 C1119 0.930 . S
C1110 H1104 0.930 . S
C1110 C1111 1.355 . S
C1110 C1112 1.415 . S
C1111 C1110 1.355 . S
C1111 C1113 1.419 . S
C1112 C1110 1.415 . S
C1112 C1117 1.425 . S
C1112 C1119 1.409 . S
C1113 H1105 0.930 . S
C1113 C1111 1.419 . S
C1113 C1114 1.362 . S
C1114 H1106 0.930 . S
C1114 C1113 1.362 . S
C1114 C1117 1.409 . S
C1115 H1107 0.930 . S
C1115 C1116 1.355 . S
C1115 C1117 1.415 . S
C1116 C1115 1.355 . S
C1116 C1118 1.419 . S
C1117 C1112 1.425 . S
C1117 C1114 1.409 . S
C1117 C1115 1.415 . S
C1118 H1108 0.930 . S
C1118 C1116 1.419 . S
C1118 C1119 1.362 . S
C1119 H1109 0.930 . S
C1119 C1112 1.409 . S
C1119 C1118 1.362 . S
H1120 C1126 0.930 . S
H1121 C1129 0.930 . S
H1122 C1130 0.930 . S
H1123 C1131 0.930 . S
H1124 C1134 0.930 . S
H1125 C1135 0.930 . S
C1126 H1120 0.930 . S
C1126 C1127 1.355 . S
C1126 C1128 1.415 . S
C1127 C1126 1.355 . S
C1127 C1129 1.419 . S
C1128 C1126 1.415 . S
C1128 C1133 1.425 . S
C1128 C1135 1.409 . S
C1129 H1121 0.930 . S
C1129 C1127 1.419 . S
C1129 C1130 1.362 . S
C1130 H1122 0.930 . S
C1130 C1129 1.362 . S
C1130 C1133 1.409 . S
C1131 H1123 0.930 . S
C1131 C1132 1.355 . S
C1131 C1133 1.415 . S
C1132 C1131 1.355 . S
C1132 C1134 1.419 . S
C1133 C1128 1.425 . S
C1133 C1130 1.409 . S
C1133 C1131 1.415 . S
C1134 H1124 0.930 . S
C1134 C1132 1.419 . S
C1134 C1135 1.362 . S
C1135 H1125 0.930 . S
C1135 C1128 1.409 . S
C1135 C1134 1.362 . S
H1136 C1142 0.930 . S
H1137 C1145 0.930 . S
H1138 C1146 0.930 . S
H1139 C1147 0.930 . S
H1140 C1150 0.930 . S
H1141 C1151 0.930 . S
C1142 H1136 0.930 . S
C1142 C1143 1.355 . S
C1142 C1144 1.415 . S
C1143 C1142 1.355 . S
C1143 C1145 1.419 . S
C1144 C1142 1.415 . S
C1144 C1149 1.425 . S
C1144 C1151 1.409 . S
C1145 H1137 0.930 . S
C1145 C1143 1.419 . S
C1145 C1146 1.362 . S
C1146 H1138 0.930 . S
C1146 C1145 1.362 . S
C1146 C1149 1.409 . S
C1147 H1139 0.930 . S
C1147 C1148 1.355 . S
C1147 C1149 1.415 . S
C1148 C1147 1.355 . S
C1148 C1150 1.419 . S
C1149 C1144 1.425 . S
C1149 C1146 1.409 . S
C1149 C1147 1.415 . S
C1150 H1140 0.930 . S
C1150 C1148 1.419 . S
C1150 C1151 1.362 . S
C1151 H1141 0.930 . S
C1151 C1144 1.409 . S
C1151 C1150 1.362 . S
H1152 C1158 0.930 . S
H1153 C1161 0.930 . S
H1154 C1162 0.930 . S
H1155 C1163 0.930 . S
H1156 C1166 0.930 . S
H1157 C1167 0.930 . S
C1158 H1152 0.930 . S
C1158 C1159 1.355 . S
C1158 C1160 1.415 . S
C1159 C1158 1.355 . S
C1159 C1161 1.419 . S
C1160 C1158 1.415 . S
C1160 C1165 1.425 . S
C1160 C1167 1.409 . S
C1161 H1153 0.930 . S
C1161 C1159 1.419 . S
C1161 C1162 1.362 . S
C1162 H1154 0.930 . S
C1162 C1161 1.362 . S
C1162 C1165 1.409 . S
C1163 H1155 0.930 . S
C1163 C1164 1.355 . S
C1163 C1165 1.415 . S
C1164 C1163 1.355 . S
C1164 C1166 1.419 . S
C1165 C1160 1.425 . S
C1165 C1162 1.409 . S
C1165 C1163 1.415 . S
C1166 H1156 0.930 . S
C1166 C1164 1.419 . S
C1166 C1167 1.362 . S
C1167 H1157 0.930 . S
C1167 C1160 1.409 . S
C1167 C1166 1.362 . S
H1168 C1174 0.930 . S
H1169 C1177 0.930 . S
H1170 C1178 0.930 . S
H1171 C1179 0.930 . S
H1172 C1182 0.930 . S
H1173 C1183 0.930 . S
C1174 H1168 0.930 . S
C1174 C1175 1.355 . S
C1174 C1176 1.415 . S
C1175 C1174 1.355 . S
C1175 C1177 1.419 . S
C1176 C1174 1.415 . S
C1176 C1181 1.425 . S
C1176 C1183 1.409 . S
C1177 H1169 0.930 . S
C1177 C1175 1.419 . S
C1177 C1178 1.362 . S
C1178 H1170 0.930 . S
C1178 C1177 1.362 . S
C1178 C1181 1.409 . S
C1179 H1171 0.930 . S
C1179 C1180 1.355 . S
C1179 C1181 1.415 . S
C1180 C1179 1.355 . S
C1180 C1182 1.419 . S
C1181 C1176 1.425 . S
C1181 C1178 1.409 . S
C1181 C1179 1.415 . S
C1182 H1172 0.930 . S
C1182 C1180 1.419 . S
C1182 C1183 1.362 . S
C1183 H1173 0.930 . S
C1183 C1176 1.409 . S
C1183 C1182 1.362 . S
H1184 C1190 0.930 . S
H1185 C1193 0.930 . S
H1186 C1194 0.930 . S
H1187 C1195 0.930 . S
H1188 C1198 0.930 . S
H1189 C1199 0.930 . S
C1190 H1184 0.930 . S
C1190 C1191 1.355 . S
C1190 C1192 1.415 . S
C1191 C1190 1.355 . S
C1191 C1193 1.419 . S
C1192 C1190 1.415 . S
C1192 C1197 1.425 . S
C1192 C1199 1.409 . S
C1193 H1185 0.930 . S
C1193 C1191 1.419 . S
C1193 C1194 1.362 . S
C1194 H1186 0.930 . S
C1194 C1193 1.362 . S
C1194 C1197 1.409 . S
C1195 H1187 0.930 . S
C1195 C1196 1.355 . S
C1195 C1197 1.415 . S
C1196 C1195 1.355 . S
C1196 C1198 1.419 . S
C1197 C1192 1.425 . S
C1197 C1194 1.409 . S
C1197 C1195 1.415 . S
C1198 H1188 0.930 . S
C1198 C1196 1.419 . S
C1198 C1199 1.362 . S
C1199 H1189 0.930 . S
C1199 C1192 1.409 . S
C1199 C1198 1.362 . S
H1200 C1206 0.930 . S
H1201 C1209 0.930 . S
H1202 C1210 0.930 . S
H1203 C1211 0.930 . S
H1204 C1214 0.930 . S
H1205 C1215 0.930 . S
C1206 H1200 0.930 . S
C1206 C1207 1.355 . S
C1206 C1208 1.415 . S
C1207 C1206 1.355 . S
C1207 C1209 1.419 . S
C1208 C1206 1.415 . S
C1208 C1213 1.425 . S
C1208 C1215 1.409 . S
C1209 H1201 0.930 . S
C1209 C1207 1.419 . S
C1209 C1210 1.362 . S
C1210 H1202 0.930 . S
C1210 C1209 1.362 . S
C1210 C1213 1.409 . S
C1211 H1203 0.930 . S
C1211 C1212 1.355 . S
C1211 C1213 1.415 . S
C1212 C1211 1.355 . S
C1212 C1214 1.419 . S
C1213 C1208 1.425 . S
C1213 C1210 1.409 . S
C1213 C1211 1.415 . S
C1214 H1204 0.930 . S
C1214 C1212 1.419 . S
C1214 C1215 1.362 . S
C1215 H1205 0.930 . S
C1215 C1208 1.409 . S
C1215 C1214 1.362 . S
H1216 C1222 0.930 . S
H1217 C1225 0.930 . S
H1218 C1226 0.930 . S
H1219 C1227 0.930 . S
H1220 C1230 0.930 . S
H1221 C1231 0.930 . S
C1222 H1216 0.930 . S
C1222 C1223 1.355 . S
C1222 C1224 1.415 . S
C1223 C1222 1.355 . S
C1223 C1225 1.419 . S
C1224 C1222 1.415 . S
C1224 C1229 1.425 . S
C1224 C1231 1.409 . S
C1225 H1217 0.930 . S
C1225 C1223 1.419 . S
C1225 C1226 1.362 . S
C1226 H1218 0.930 . S
C1226 C1225 1.362 . S
C1226 C1229 1.409 . S
C1227 H1219 0.930 . S
C1227 C1228 1.355 . S
C1227 C1229 1.415 . S
C1228 C1227 1.355 . S
C1228 C1230 1.419 . S
C1229 C1224 1.425 . S
C1229 C1226 1.409 . S
C1229 C1227 1.415 . S
C1230 H1220 0.930 . S
C1230 C1228 1.419 . S
C1230 C1231 1.362 . S
C1231 H1221 0.930 . S
C1231 C1224 1.409 . S
C1231 C1230 1.362 . S
H1232 C1238 0.930 . S
H1233 C1241 0.930 . S
H1234 C1242 0.930 . S
H1235 C1243 0.930 . S
H1236 C1246 0.930 . S
H1237 C1247 0.930 . S
C1238 H1232 0.930 . S
C1238 C1239 1.355 . S
C1238 C1240 1.415 . S
C1239 C1238 1.355 . S
C1239 C1241 1.419 . S
C1240 C1238 1.415 . S
C1240 C1245 1.425 . S
C1240 C1247 1.409 . S
C1241 H1233 0.930 . S
C1241 C1239 1.419 . S
C1241 C1242 1.362 . S
C1242 H1234 0.930 . S
C1242 C1241 1.362 . S
C1242 C1245 1.409 . S
C1243 H1235 0.930 . S
C1243 C1244 1.355 . S
C1243 C1245 1.415 . S
C1244 C1243 1.355 . S
C1244 C1246 1.419 . S
C1245 C1240 1.425 . S
C1245 C1242 1.409 . S
C1245 C1243 1.415 . S
C1246 H1236 0.930 . S
C1246 C1244 1.419 . S
C1246 C1247 1.362 . S
C1247 H1237 0.930 . S
C1247 C1240 1.409 . S
C1247 C1246 1.362 . S
H1248 C1254 0.930 . S
H1249 C1257 0.930 . S
H1250 C1258 0.930 . S
H1251 C1259 0.930 . S
H1252 C1262 0.930 . S
H1253 C1263 0.930 . S
C1254 H1248 0.930 . S
C1254 C1255 1.355 . S
C1254 C1256 1.415 . S
C1255 C1254 1.355 . S
C1255 C1257 1.419 . S
C1256 C1254 1.415 . S
C1256 C1261 1.425 . S
C1256 C1263 1.409 . S
C1257 H1249 0.930 . S
C1257 C1255 1.419 . S
C1257 C1258 1.362 . S
C1258 H1250 0.930 . S
C1258 C1257 1.362 . S
C1258 C1261 1.409 . S
C1259 H1251 0.930 . S
C1259 C1260 1.355 . S
C1259 C1261 1.415 . S
C1260 C1259 1.355 . S
C1260 C1262 1.419 . S
C1261 C1256 1.425 . S
C1261 C1258 1.409 . S
C1261 C1259 1.415 . S
C1262 H1252 0.930 . S
C1262 C1260 1.419 . S
C1262 C1263 1.362 . S
C1263 H1253 0.930 . S
C1263 C1256 1.409 . S
C1263 C1262 1.362 . S
H1264 C1270 0.930 . S
H1265 C1273 0.930 . S
H1266 C1274 0.930 . S
H1267 C1275 0.930 . S
H1268 C1278 0.930 . S
H1269 C1279 0.930 . S
C1270 H1264 0.930 . S
C1270 C1271 1.355 . S
C1270 C1272 1.415 . S
C1271 C1270 1.355 . S
C1271 C1273 1.419 . S
C1272 C1270 1.415 . S
C1272 C1277 1.425 . S
C1272 C1279 1.409 . S
C1273 H1265 0.930 . S
C1273 C1271 1.419 . S
C1273 C1274 1.362 . S
C1274 H1266 0.930 . S
C1274 C1273 1.362 . S
C1274 C1277 1.409 . S
C1275 H1267 0.930 . S
C1275 C1276 1.355 . S
C1275 C1277 1.415 . S
C1276 C1275 1.355 . S
C1276 C1278 1.419 . S
C1277 C1272 1.425 . S
C1277 C1274 1.409 . S
C1277 C1275 1.415 . S
C1278 H1268 0.930 . S
C1278 C1276 1.419 . S
C1278 C1279 1.362 . S
C1279 H1269 0.930 . S
C1279 C1272 1.409 . S
C1279 C1278 1.362 . S
H1280 C1286 0.930 . S
H1281 C1289 0.930 . S
H1282 C1290 0.930 . S
H1283 C1291 0.930 . S
H1284 C1294 0.930 . S
H1285 C1295 0.930 . S
C1286 H1280 0.930 . S
C1286 C1287 1.355 . S
C1286 C1288 1.415 . S
C1287 C1286 1.355 . S
C1287 C1289 1.419 . S
C1288 C1286 1.415 . S
C1288 C1293 1.425 . S
C1288 C1295 1.409 . S
C1289 H1281 0.930 . S
C1289 C1287 1.419 . S
C1289 C1290 1.362 . S
C1290 H1282 0.930 . S
C1290 C1289 1.362 . S
C1290 C1293 1.409 . S
C1291 H1283 0.930 . S
C1291 C1292 1.355 . S
C1291 C1293 1.415 . S
C1292 C1291 1.355 . S
C1292 C1294 1.419 . S
C1293 C1288 1.425 . S
C1293 C1290 1.409 . S
C1293 C1291 1.415 . S
C1294 H1284 0.930 . S
C1294 C1292 1.419 . S
C1294 C1295 1.362 . S
C1295 H1285 0.930 . S
C1295 C1288 1.409 . S
C1295 C1294 1.362 . S
H1296 C1302 0.930 . S
H1297 C1305 0.930 . S
H1298 C1306 0.930 . S
H1299 C1307 0.930 . S
H1300 C1310 0.930 . S
H1301 C1311 0.930 . S
C1302 H1296 0.930 . S
C1302 C1303 1.355 . S
C1302 C1304 1.415 . S
C1303 C1302 1.355 . S
C1303 C1305 1.419 . S
C1304 C1302 1.415 . S
C1304 C1309 1.425 . S
C1304 C1311 1.409 . S
C1305 H1297 0.930 . S
C1305 C1303 1.419 . S
C1305 C1306 1.362 . S
C1306 H1298 0.930 . S
C1306 C1305 1.362 . S
C1306 C1309 1.409 . S
C1307 H1299 0.930 . S
C1307 C1308 1.355 . S
C1307 C1309 1.415 . S
C1308 C1307 1.355 . S
C1308 C1310 1.419 . S
C1309 C1304 1.425 . S
C1309 C1306 1.409 . S
C1309 C1307 1.415 . S
C1310 H1300 0.930 . S
C1310 C1308 1.419 . S
C1310 C1311 1.362 . S
C1311 H1301 0.930 . S
C1311 C1304 1.409 . S
C1311 C1310 1.362 . S
H1312 C1318 0.930 . S
H1313 C1321 0.930 . S
H1314 C1322 0.930 . S
H1315 C1323 0.930 . S
H1316 C1326 0.930 . S
H1317 C1327 0.930 . S
C1318 H1312 0.930 . S
C1318 C1319 1.355 . S
C1318 C1320 1.415 . S
C1319 C1318 1.355 . S
C1319 C1321 1.419 . S
C1320 C1318 1.415 . S
C1320 C1325 1.425 . S
C1320 C1327 1.409 . S
C1321 H1313 0.930 . S
C1321 C1319 1.419 . S
C1321 C1322 1.362 . S
C1322 H1314 0.930 . S
C1322 C1321 1.362 . S
C1322 C1325 1.409 . S
C1323 H1315 0.930 . S
C1323 C1324 1.355 . S
C1323 C1325 1.415 . S
C1324 C1323 1.355 . S
C1324 C1326 1.419 . S
C1325 C1320 1.425 . S
C1325 C1322 1.409 . S
C1325 C1323 1.415 . S
C1326 H1316 0.930 . S
C1326 C1324 1.419 . S
C1326 C1327 1.362 . S
C1327 H1317 0.930 . S
C1327 C1320 1.409 . S
C1327 C1326 1.362 . S
H1328 C1334 0.930 . S
H1329 C1337 0.930 . S
H1330 C1338 0.930 . S
H1331 C1339 0.930 . S
H1332 C1342 0.930 . S
H1333 C1343 0.930 . S
C1334 H1328 0.930 . S
C1334 C1335 1.355 . S
C1334 C1336 1.415 . S
C1335 C1334 1.355 . S
C1335 C1337 1.419 . S
C1336 C1334 1.415 . S
C1336 C1341 1.425 . S
C1336 C1343 1.409 . S
C1337 H1329 0.930 . S
C1337 C1335 1.419 . S
C1337 C1338 1.362 . S
C1338 H1330 0.930 . S
C1338 C1337 1.362 . S
C1338 C1341 1.409 . S
C1339 H1331 0.930 . S
C1339 C1340 1.355 . S
C1339 C1341 1.415 . S
C1340 C1339 1.355 . S
C1340 C1342 1.419 . S
C1341 C1336 1.425 . S
C1341 C1338 1.409 . S
C1341 C1339 1.415 . S
C1342 H1332 0.930 . S
C1342 C1340 1.419 . S
C1342 C1343 1.362 . S
C1343 H1333 0.930 . S
C1343 C1336 1.409 . S
C1343 C1342 1.362 . S
H1344 C1350 0.930 . S
H1345 C1353 0.930 . S
H1346 C1354 0.930 . S
H1347 C1355 0.930 . S
H1348 C1358 0.930 . S
H1349 C1359 0.930 . S
C1350 H1344 0.930 . S
C1350 C1351 1.355 . S
C1350 C1352 1.415 . S
C1351 C1350 1.355 . S
C1351 C1353 1.419 . S
C1352 C1350 1.415 . S
C1352 C1357 1.425 . S
C1352 C1359 1.409 . S
C1353 H1345 0.930 . S
C1353 C1351 1.419 . S
C1353 C1354 1.362 . S
C1354 H1346 0.930 . S
C1354 C1353 1.362 . S
C1354 C1357 1.409 . S
C1355 H1347 0.930 . S
C1355 C1356 1.355 . S
C1355 C1357 1.415 . S
C1356 C1355 1.355 . S
C1356 C1358 1.419 . S
C1357 C1352 1.425 . S
C1357 C1354 1.409 . S
C1357 C1355 1.415 . S
C1358 H1348 0.930 . S
C1358 C1356 1.419 . S
C1358 C1359 1.362 . S
C1359 H1349 0.930 . S
C1359 C1352 1.409 . S
C1359 C1358 1.362 . S
H1360 C1366 0.930 . S
H1361 C1369 0.930 . S
H1362 C1370 0.930 . S
H1363 C1371 0.930 . S
H1364 C1374 0.930 . S
H1365 C1375 0.930 . S
C1366 H1360 0.930 . S
C1366 C1367 1.355 . S
C1366 C1368 1.415 . S
C1367 C1366 1.355 . S
C1367 C1369 1.419 . S
C1368 C1366 1.415 . S
C1368 C1373 1.425 . S
C1368 C1375 1.409 . S
C1369 H1361 0.930 . S
C1369 C1367 1.419 . S
C1369 C1370 1.362 . S
C1370 H1362 0.930 . S
C1370 C1369 1.362 . S
C1370 C1373 1.409 . S
C1371 H1363 0.930 . S
C1371 C1372 1.355 . S
C1371 C1373 1.415 . S
C1372 C1371 1.355 . S
C1372 C1374 1.419 . S
C1373 C1368 1.425 . S
C1373 C1370 1.409 . S
C1373 C1371 1.415 . S
C1374 H1364 0.930 . S
C1374 C1372 1.419 . S
C1374 C1375 1.362 . S
C1375 H1365 0.930 . S
C1375 C1368 1.409 . S
C1375 C1374 1.362 . S
H1376 C1382 0.930 . S
H1377 C1385 0.926 1_556 S
H1378 C1386 0.930 . S
H1379 C1387 0.930 . S
H1380 C1390 0.930 . S
H1381 C1391 0.930 . S
C1382 H1376 0.930 . S
C1382 C1383 1.355 . S
C1382 C1384 1.415 . S
C1383 C1382 1.355 . S
C1383 C1385 1.419 . S
C1384 C1382 1.415 . S
C1384 C1389 1.425 . S
C1384 C1391 1.409 . S
C1385 H1377 0.926 1_554 S
C1385 C1383 1.419 . S
C1385 C1386 1.362 . S
C1386 H1378 0.930 . S
C1386 C1385 1.362 . S
C1386 C1389 1.409 . S
C1387 H1379 0.930 . S
C1387 C1388 1.355 . S
C1387 C1389 1.415 . S
C1388 C1387 1.355 . S
C1388 C1390 1.419 . S
C1389 C1384 1.425 . S
C1389 C1386 1.409 . S
C1389 C1387 1.415 . S
C1390 H1380 0.930 . S
C1390 C1388 1.419 . S
C1390 C1391 1.362 . S
C1391 H1381 0.930 . S
C1391 C1384 1.409 . S
C1391 C1390 1.362 . S
H1392 C1398 0.930 . S
H1393 C1401 0.930 . S
H1394 C1402 0.930 . S
H1395 C1403 0.930 . S
H1396 C1406 0.930 . S
H1397 C1407 0.930 . S
C1398 H1392 0.930 . S
C1398 C1399 1.355 . S
C1398 C1400 1.415 . S
C1399 C1398 1.355 . S
C1399 C1401 1.419 . S
C1400 C1398 1.415 . S
C1400 C1405 1.425 . S
C1400 C1407 1.409 . S
C1401 H1393 0.930 . S
C1401 C1399 1.419 . S
C1401 C1402 1.362 . S
C1402 H1394 0.930 . S
C1402 C1401 1.362 . S
C1402 C1405 1.409 . S
C1403 H1395 0.930 . S
C1403 C1404 1.355 . S
C1403 C1405 1.415 . S
C1404 C1403 1.355 . S
C1404 C1406 1.419 . S
C1405 C1400 1.425 . S
C1405 C1402 1.409 . S
C1405 C1403 1.415 . S
C1406 H1396 0.930 . S
C1406 C1404 1.419 . S
C1406 C1407 1.362 . S
C1407 H1397 0.930 . S
C1407 C1400 1.409 . S
C1407 C1406 1.362 . S
C647 C451 1.741 . S
C652 C19 1.744 . S
C663 C322 1.709 . S
C668 C50 1.716 . S
C679 C99 1.744 . S
C684 C371 1.744 . S
C695 C130 1.702 . S
C700 C402 1.717 . S
C711 C179 1.708 . S
C716 C211 1.724 . S
C727 C242 1.745 . S
C732 C210 1.736 . S
C743 C259 1.705 . S
C748 C291 1.721 . S
C759 C162 1.741 . S
C764 C290 1.728 . S
C775 C131 1.734 . S
C780 C339 1.718 . S
C791 C370 1.720 . S
C796 C2 1.735 . S
C807 C51 1.704 . S
C812 C419 1.708 . S
C823 C82 1.736 . S
C828 C450 1.721 . S
C839 C499 1.742 . S
C844 C531 1.746 . S
C855 C562 1.738 . S
C860 C530 1.723 . S
C871 C611 1.709 . S
C876 C579 1.698 . S
C887 C610 1.707 . S
C892 C482 1.723 . S
C903 C10 1.241 . S
C908 C170 1.252 . S
C919 C219 1.252 . S
C924 C59 1.249 . S
C935 C90 1.207 . S
C940 C250 1.232 . S
C951 C139 1.138 . S
C956 C299 1.137 . S
C967 C330 1.240 . S
C972 C490 1.251 . S
C983 C539 1.241 . S
C988 C379 1.252 . S
C999 C410 1.250 . S
C1004 C570 1.236 . S
C1015 C459 1.175 . S
C1020 C619 1.203 . S
C1031 C571 2.335 . S
C1036 C11 2.334 1_556 S
C1047 C42 2.367 1_554 S
C1052 C602 2.369 . S
C1063 C91 2.333 1_556 S
C1068 C491 2.332 . S
C1079 C122 2.352 1_554 S
C1084 C522 2.349 . S
C1095 C171 2.340 . S
C1100 C411 2.337 . S
C1111 C202 2.358 . S
C1116 C442 2.354 . S
C1127 C251 2.336 . S
C1132 C331 2.338 . S
C1143 C362 2.361 . S
C1148 C282 2.364 . S
C1159 C7 1.072 . S
C1164 C16 1.072 . S
C1175 C56 1.072 . S
C1180 C47 1.072 . S
C1191 C87 1.077 . S
C1196 C96 1.077 . S
C1207 C127 1.095 . S
C1212 C136 1.095 . S
C1223 C176 1.114 . S
C1228 C167 1.114 . S
C1239 C216 1.099 . S
C1244 C207 1.099 . S
C1255 C247 1.073 . S
C1260 C256 1.073 . S
C1271 C287 1.111 . S
C1276 C296 1.111 . S
C1287 C327 1.076 1_554 S
C1292 C336 1.076 . S
C1303 C367 1.077 . S
C1308 C376 1.077 1_556 S
C1319 C416 1.088 . S
C1324 C407 1.088 1_554 S
C1335 C456 1.119 1_556 S
C1340 C447 1.119 . S
C1351 C487 1.092 . S
C1356 C496 1.092 1_554 S
C1367 C527 1.114 1_556 S
C1372 C536 1.114 . S
C1383 C576 1.076 1_554 S
C1388 C567 1.076 . S
C1399 C616 1.119 . S
C1404 C607 1.119 1_556 S
