# Generated by pormake.
# Topology fng, (5)-cn, num edge types: 1
# Building blocks:
#     Node 0, Type 0, BuildingBlock: XOMCOT_clean_sbu_1, # of connection points: 5
#     Node 1, Type 0, BuildingBlock: XOMCOT_clean_sbu_1, # of connection points: 5
#     Node 2, Type 0, BuildingBlock: XOMCOT_clean_sbu_1, # of connection points: 5
#     Node 3, Type 0, BuildingBlock: XOMCOT_clean_sbu_1, # of connection points: 5
#     Node 4, Type 0, BuildingBlock: XOMCOT_clean_sbu_1, # of connection points: 5
#     Node 5, Type 0, BuildingBlock: XOMCOT_clean_sbu_1, # of connection points: 5
#     Node 6, Type 0, BuildingBlock: XOMCOT_clean_sbu_1, # of connection points: 5
#     Node 7, Type 0, BuildingBlock: XOMCOT_clean_sbu_1, # of connection points: 5
#     Node 8, Type 0, BuildingBlock: XOMCOT_clean_sbu_1, # of connection points: 5
#     Node 9, Type 0, BuildingBlock: XOMCOT_clean_sbu_1, # of connection points: 5
#     Node 10, Type 0, BuildingBlock: XOMCOT_clean_sbu_1, # of connection points: 5
#     Node 11, Type 0, BuildingBlock: XOMCOT_clean_sbu_1, # of connection points: 5
#     Node 12, Type 0, BuildingBlock: XOMCOT_clean_sbu_1, # of connection points: 5
#     Node 13, Type 0, BuildingBlock: XOMCOT_clean_sbu_1, # of connection points: 5
#     Node 14, Type 0, BuildingBlock: XOMCOT_clean_sbu_1, # of connection points: 5
#     Node 15, Type 0, BuildingBlock: XOMCOT_clean_sbu_1, # of connection points: 5
#     Node 16, Type 0, BuildingBlock: XOMCOT_clean_sbu_1, # of connection points: 5
#     Node 17, Type 0, BuildingBlock: XOMCOT_clean_sbu_1, # of connection points: 5
#     Edge 18, Type (0, 0), BuildingBlock: OJICUG_clean_linker_0, # of connection points: 2
#     Edge 19, Type (0, 0), BuildingBlock: OJICUG_clean_linker_0, # of connection points: 2
#     Edge 20, Type (0, 0), BuildingBlock: OJICUG_clean_linker_0, # of connection points: 2
#     Edge 21, Type (0, 0), BuildingBlock: OJICUG_clean_linker_0, # of connection points: 2
#     Edge 22, Type (0, 0), BuildingBlock: OJICUG_clean_linker_0, # of connection points: 2
#     Edge 23, Type (0, 0), BuildingBlock: OJICUG_clean_linker_0, # of connection points: 2
#     Edge 24, Type (0, 0), BuildingBlock: OJICUG_clean_linker_0, # of connection points: 2
#     Edge 25, Type (0, 0), BuildingBlock: OJICUG_clean_linker_0, # of connection points: 2
#     Edge 26, Type (0, 0), BuildingBlock: OJICUG_clean_linker_0, # of connection points: 2
#     Edge 27, Type (0, 0), BuildingBlock: OJICUG_clean_linker_0, # of connection points: 2
#     Edge 28, Type (0, 0), BuildingBlock: OJICUG_clean_linker_0, # of connection points: 2
#     Edge 29, Type (0, 0), BuildingBlock: OJICUG_clean_linker_0, # of connection points: 2
#     Edge 30, Type (0, 0), BuildingBlock: OJICUG_clean_linker_0, # of connection points: 2
#     Edge 31, Type (0, 0), BuildingBlock: OJICUG_clean_linker_0, # of connection points: 2
#     Edge 32, Type (0, 0), BuildingBlock: OJICUG_clean_linker_0, # of connection points: 2
#     Edge 33, Type (0, 0), BuildingBlock: OJICUG_clean_linker_0, # of connection points: 2
#     Edge 34, Type (0, 0), BuildingBlock: OJICUG_clean_linker_0, # of connection points: 2
#     Edge 35, Type (0, 0), BuildingBlock: OJICUG_clean_linker_0, # of connection points: 2
#     Edge 36, Type (0, 0), BuildingBlock: OJICUG_clean_linker_0, # of connection points: 2
#     Edge 37, Type (0, 0), BuildingBlock: OJICUG_clean_linker_0, # of connection points: 2
#     Edge 38, Type (0, 0), BuildingBlock: OJICUG_clean_linker_0, # of connection points: 2
#     Edge 39, Type (0, 0), BuildingBlock: OJICUG_clean_linker_0, # of connection points: 2
#     Edge 40, Type (0, 0), BuildingBlock: OJICUG_clean_linker_0, # of connection points: 2
#     Edge 41, Type (0, 0), BuildingBlock: OJICUG_clean_linker_0, # of connection points: 2
#     Edge 42, Type (0, 0), BuildingBlock: OJICUG_clean_linker_0, # of connection points: 2
#     Edge 43, Type (0, 0), BuildingBlock: OJICUG_clean_linker_0, # of connection points: 2
#     Edge 44, Type (0, 0), BuildingBlock: OJICUG_clean_linker_0, # of connection points: 2
#     Edge 45, Type (0, 0), BuildingBlock: OJICUG_clean_linker_0, # of connection points: 2
#     Edge 46, Type (0, 0), BuildingBlock: OJICUG_clean_linker_0, # of connection points: 2
#     Edge 47, Type (0, 0), BuildingBlock: OJICUG_clean_linker_0, # of connection points: 2
#     Edge 48, Type (0, 0), BuildingBlock: OJICUG_clean_linker_0, # of connection points: 2
#     Edge 49, Type (0, 0), BuildingBlock: OJICUG_clean_linker_0, # of connection points: 2
#     Edge 50, Type (0, 0), BuildingBlock: OJICUG_clean_linker_0, # of connection points: 2
#     Edge 51, Type (0, 0), BuildingBlock: OJICUG_clean_linker_0, # of connection points: 2
#     Edge 52, Type (0, 0), BuildingBlock: OJICUG_clean_linker_0, # of connection points: 2
#     Edge 53, Type (0, 0), BuildingBlock: OJICUG_clean_linker_0, # of connection points: 2
#     Edge 54, Type (0, 0), BuildingBlock: OJICUG_clean_linker_0, # of connection points: 2
#     Edge 55, Type (0, 0), BuildingBlock: OJICUG_clean_linker_0, # of connection points: 2
#     Edge 56, Type (0, 0), BuildingBlock: OJICUG_clean_linker_0, # of connection points: 2
#     Edge 57, Type (0, 0), BuildingBlock: OJICUG_clean_linker_0, # of connection points: 2
#     Edge 58, Type (0, 0), BuildingBlock: OJICUG_clean_linker_0, # of connection points: 2
#     Edge 59, Type (0, 0), BuildingBlock: OJICUG_clean_linker_0, # of connection points: 2
#     Edge 60, Type (0, 0), BuildingBlock: OJICUG_clean_linker_0, # of connection points: 2
#     Edge 61, Type (0, 0), BuildingBlock: OJICUG_clean_linker_0, # of connection points: 2
#     Edge 62, Type (0, 0), BuildingBlock: OJICUG_clean_linker_0, # of connection points: 2
# Relax obj value: 0.134
# Max RMSD: 0.150
# Mean RMSD: 0.150
data_MOF--net-fng--node1-XOMCOT_clean_sbu_1--edge1-OJICUG_clean_linker_0
_symmetry_space_group_name_H-M    P1
_symmetry_Int_Tables_number       1
_symmetry_cell_setting            triclinic
loop_
_symmetry_equiv_pos_as_xyz
'x, y, z'
_cell_length_a     59.403254
_cell_length_b     59.242656
_cell_length_c     13.325517
_cell_angle_alpha  90.422924
_cell_angle_beta   90.040874
_cell_angle_gamma 120.00617
loop_
_atom_site_label
_atom_site_type_symbol
_atom_site_fract_x
_atom_site_fract_y
_atom_site_fract_z
_atom_type_partial_charge
C0 C 0.15268 0.28523 0.98959 0.0
C1 C 0.15271 0.28822 0.88717 0.0
N2 N 0.16786 0.27977 0.84548 0.0
N3 N 0.16768 0.27487 0.01282 0.0
C4 C 0.17714 0.27235 0.92364 0.0
H5 H 0.14096 0.28861 0.043 0.0
Co6 Co 0.16803 0.26108 0.13895 0.0
C7 C 0.17848 0.21888 0.07454 0.0
O8 O 0.15788 0.20173 0.12379 0.0
N9 N 0.1689 0.24855 0.26818 0.0
C10 C 0.1842 0.23912 0.40473 0.0
C11 C 0.183 0.23791 0.30186 0.0
C12 C 0.16238 0.25665 0.35309 0.0
N13 N 0.17151 0.25124 0.43713 0.0
O14 O 0.20099 0.29132 0.17119 0.0
H15 H 0.19423 0.23211 0.25627 0.0
H16 H 0.15332 0.26858 0.35264 0.0
O17 O 0.1854 0.2431 0.07891 0.0
C18 C 0.19756 0.30944 0.20636 0.0
O19 O 0.17396 0.30604 0.20636 0.0
N20 N 0.13416 0.2324 0.11028 0.0
C21 C 0.08221 0.19893 0.05651 0.0
C22 C 0.10221 0.20252 0.99199 0.0
C23 C 0.12802 0.21946 0.01977 0.0
C24 C 0.11468 0.22879 0.1742 0.0
C25 C 0.08856 0.21193 0.14919 0.0
H26 H 0.14293 0.2229 0.966 0.0
H27 H 0.11911 0.24016 0.24232 0.0
H28 H 0.18857 0.26289 0.91492 0.0
H29 H 0.14138 0.29488 0.8465 0.0
H30 H 0.19501 0.23296 0.4515 0.0
H31 H 0.09789 0.1932 0.9187 0.0
H32 H 0.07344 0.21012 0.19949 0.0
C33 C 0.77123 0.8816 0.04913 0.0
C34 C 0.76844 0.87869 0.94638 0.0
N35 N 0.77587 0.90221 0.90636 0.0
N36 N 0.78059 0.90687 0.07357 0.0
C37 C 0.78269 0.91881 0.98527 0.0
H38 H 0.76805 0.86659 0.10225 0.0
Co39 Co 0.79241 0.92133 0.20074 0.0
C40 C 0.83485 0.97441 0.14842 0.0
O41 O 0.85071 0.97105 0.20718 0.0
N42 N 0.80297 0.93527 0.33154 0.0
C43 C 0.80939 0.96001 0.46736 0.0
C44 C 0.81049 0.9597 0.36454 0.0
C45 C 0.79651 0.92102 0.41659 0.0
N46 N 0.80033 0.93557 0.50015 0.0
O47 O 0.7616 0.92373 0.21958 0.0
H48 H 0.81411 0.97597 0.31796 0.0
H49 H 0.78671 0.89996 0.41684 0.0
O50 O 0.81093 0.95661 0.14198 0.0
C51 C 0.74427 0.90322 0.26253 0.0
O52 O 0.74923 0.88442 0.28171 0.0
N53 N 0.82164 0.91637 0.18284 0.0
C54 C 0.8546 0.89656 0.13648 0.0
C55 C 0.85229 0.91379 0.07154 0.0
C56 C 0.83571 0.92337 0.09574 0.0
C57 C 0.82419 0.90004 0.24773 0.0
C58 C 0.84089 0.89033 0.22699 0.0
H59 H 0.83304 0.93513 0.04084 0.0
H60 H 0.81188 0.89272 0.3124 0.0
H61 H 0.79096 0.93963 0.97792 0.0
H62 H 0.76235 0.86084 0.90438 0.0
H63 H 0.81355 0.97674 0.51372 0.0
H64 H 0.86236 0.91892 1.00034 0.0
H65 H 0.84154 0.8765 0.27795 0.0
C66 C 0.16194 0.89712 0.03718 0.0
C67 C 0.16283 0.89544 0.93435 0.0
N68 N 0.13838 0.88026 0.90005 0.0
N69 N 0.13706 0.88293 0.0676 0.0
C70 C 0.12327 0.87248 0.98232 0.0
H71 H 0.1781 0.90971 0.08555 0.0
Co72 Co 0.12505 0.8847 0.19535 0.0
C73 C 0.07043 0.87026 0.13536 0.0
O74 O 0.07324 0.89237 0.16901 0.0
N75 N 0.11313 0.88661 0.32669 0.0
C76 C 0.10021 0.89892 0.46377 0.0
C77 C 0.10222 0.90052 0.36092 0.0
C78 C 0.11743 0.87681 0.41142 0.0
N79 N 0.11006 0.88415 0.49526 0.0
O80 O 0.12404 0.85241 0.23038 0.0
H81 H 0.0981 0.91313 0.31627 0.0
H82 H 0.12667 0.8652 0.41358 0.0
O83 O 0.08887 0.8652 0.14492 0.0
C84 C 0.14704 0.85846 0.25767 0.0
O85 O 0.16522 0.88311 0.25307 0.0
N86 N 0.12985 0.91789 0.16236 0.0
C87 C 0.15117 0.97036 0.10871 0.0
C88 C 0.13247 0.95031 0.04738 0.0
C89 C 0.12222 0.92419 0.07503 0.0
C90 C 0.14781 0.93716 0.22285 0.0
C91 C 0.15812 0.96336 0.19906 0.0
H92 H 0.10928 0.90911 0.02339 0.0
H93 H 0.15506 0.93215 0.28851 0.0
H94 H 0.10231 0.86103 0.97901 0.0
H95 H 0.17978 0.90648 0.88798 0.0
H96 H 0.0939 0.90947 0.51197 0.0
H97 H 0.12691 0.9546 0.97575 0.0
H98 H 0.17225 0.97797 0.24966 0.0
C99 C 0.30459 0.17391 0.99146 0.0
C100 C 0.30552 0.17646 0.09461 0.0
N101 N 0.28212 0.17197 0.12656 0.0
N102 N 0.28075 0.16801 0.95891 0.0
C103 C 0.26767 0.16724 0.0428 0.0
H104 H 0.31987 0.17503 0.94412 0.0
Co105 Co 0.26651 0.15838 0.83083 0.0
C106 C 0.22741 0.17639 0.82163 0.0
O107 O 0.21435 0.16024 0.7479 0.0
N108 N 0.25205 0.14835 0.69967 0.0
C109 C 0.23316 0.12471 0.56211 0.0
C110 C 0.23534 0.1241 0.66452 0.0
C111 C 0.25931 0.16333 0.61637 0.0
N112 N 0.24857 0.14937 0.53171 0.0
O113 O 0.29581 0.18943 0.77707 0.0
H114 H 0.22621 0.10658 0.70866 0.0
H115 H 0.27309 0.18401 0.61673 0.0
O116 O 0.2477 0.17704 0.85688 0.0
C117 C 0.31088 0.18236 0.73725 0.0
O118 O 0.30448 0.15773 0.74382 0.0
N119 N 0.24011 0.12676 0.88372 0.0
C120 C 0.20925 0.07666 0.96091 0.0
C121 C 0.19986 0.09422 0.95625 0.0
C122 C 0.21567 0.11934 0.9176 0.0
C123 C 0.24944 0.10997 0.88803 0.0
C124 C 0.23437 0.08489 0.92518 0.0
H125 H 0.2083 0.13264 0.91733 0.0
H126 H 0.26884 0.11616 0.86126 0.0
H127 H 0.2475 0.16226 0.04279 0.0
H128 H 0.3216 0.1797 0.14262 0.0
H129 H 0.22258 0.10794 0.51324 0.0
H130 H 0.18072 0.08884 0.98424 0.0
H131 H 0.24238 0.07201 0.92513 0.0
C132 C 0.90518 0.15742 0.99079 0.0
C133 C 0.90529 0.16031 0.09351 0.0
N134 N 0.88989 0.13666 0.13371 0.0
N135 N 0.88991 0.13206 0.96623 0.0
C136 C 0.88043 0.12001 0.05472 0.0
H137 H 0.91688 0.17255 0.93793 0.0
Co138 Co 0.88883 0.11781 0.83926 0.0
C139 C 0.87897 0.06519 0.89351 0.0
O140 O 0.89876 0.06923 0.83701 0.0
N141 N 0.88708 0.10405 0.70855 0.0
C142 C 0.86944 0.07916 0.57241 0.0
C143 C 0.87072 0.07951 0.67519 0.0
C144 C 0.89475 0.1183 0.62333 0.0
N145 N 0.88428 0.10367 0.5396 0.0
O146 O 0.85588 0.11538 0.81125 0.0
H147 H 0.85807 0.06315 0.72126 0.0
H148 H 0.90549 0.13937 0.6231 0.0
O149 O 0.87192 0.08239 0.89773 0.0
C150 C 0.8612 0.13674 0.76904 0.0
O151 O 0.88566 0.15528 0.76446 0.0
N152 N 0.92283 0.12317 0.86419 0.0
C153 C 0.97535 0.14385 0.91712 0.0
C154 C 0.95549 0.12618 0.97992 0.0
C155 C 0.92947 0.11628 0.95266 0.0
C156 C 0.94196 0.13984 0.80129 0.0
C157 C 0.9682 0.15001 0.82532 0.0
H158 H 0.91475 0.10425 0.00604 0.0
H159 H 0.93717 0.14686 0.73508 0.0
H160 H 0.86869 0.0991 0.06226 0.0
H161 H 0.91678 0.17823 0.13539 0.0
H162 H 0.85709 0.06233 0.52615 0.0
H163 H 0.9599 0.12123 0.05256 0.0
H164 H 0.98276 0.16347 0.77389 0.0
C165 C 0.90249 0.73558 0.05592 0.0
C166 C 0.90449 0.73491 0.15889 0.0
N167 N 0.92216 0.75898 0.19132 0.0
N168 N 0.91894 0.75996 0.02396 0.0
C169 C 0.9308 0.77359 0.10811 0.0
H170 H 0.88903 0.71961 0.0085 0.0
Co171 Co 0.9227 0.77409 0.89658 0.0
C172 C 0.9801 0.81282 0.88157 0.0
O173 O 0.97719 0.82398 0.80171 0.0
N174 N 0.92619 0.78832 0.76643 0.0
C175 C 0.91994 0.80614 0.63033 0.0
C176 C 0.91728 0.80389 0.7327 0.0
C177 C 0.93447 0.7817 0.68232 0.0
N178 N 0.93049 0.79189 0.59842 0.0
O179 O 0.92446 0.74493 0.83816 0.0
H180 H 0.90803 0.81212 0.77776 0.0
H181 H 0.94252 0.76889 0.68185 0.0
O182 O 0.96031 0.79348 0.92083 0.0
C183 C 0.90193 0.72931 0.80219 0.0
O184 O 0.88319 0.73448 0.81988 0.0
N185 N 0.91772 0.80065 0.95256 0.0
C186 C 0.9004 0.83411 0.0196 0.0
C187 C 0.92708 0.84269 0.01511 0.0
C188 C 0.93543 0.82566 0.98043 0.0
C189 C 0.89177 0.79176 0.96148 0.0
C190 C 0.88268 0.80822 0.99349 0.0
H191 H 0.95598 0.83281 0.97597 0.0
H192 H 0.87799 0.77188 0.94003 0.0
H193 H 0.9449 0.7942 0.10884 0.0
H194 H 0.89271 0.71844 0.20658 0.0
H195 H 0.91286 0.81598 0.5826 0.0
H196 H 0.94131 0.86257 0.03529 0.0
H197 H 0.86193 0.8008 0.99702 0.0
C198 C 0.84021 0.63384 0.29644 0.0
C199 C 0.84042 0.63453 0.19324 0.0
N200 N 0.8365 0.61145 0.15841 0.0
N201 N 0.83638 0.61045 0.32681 0.0
C202 C 0.83428 0.5974 0.24055 0.0
H203 H 0.84212 0.64939 0.34468 0.0
Co204 Co 0.83172 0.59585 0.45502 0.0
C205 C 0.86932 0.57655 0.44531 0.0
O206 O 0.87899 0.58643 0.53412 0.0
N207 N 0.82675 0.58094 0.58182 0.0
C208 C 0.8221 0.55564 0.71191 0.0
C209 C 0.82278 0.55728 0.60865 0.0
C210 C 0.82761 0.59288 0.66937 0.0
N211 N 0.82545 0.57828 0.74959 0.0
O212 O 0.86347 0.62612 0.50294 0.0
H213 H 0.82132 0.54247 0.55687 0.0
H214 H 0.82981 0.61203 0.67504 0.0
O215 O 0.85063 0.57876 0.40939 0.0
C216 C 0.85808 0.64349 0.53152 0.0
O217 O 0.83396 0.63843 0.52184 0.0
N218 N 0.79973 0.56808 0.41275 0.0
C219 C 0.74966 0.53443 0.34061 0.0
C220 C 0.76873 0.52698 0.33851 0.0
C221 C 0.79386 0.54422 0.37505 0.0
C222 C 0.78117 0.57503 0.4194 0.0
C223 C 0.75608 0.55858 0.38379 0.0
H224 H 0.8086 0.53866 0.37036 0.0
H225 H 0.78618 0.59391 0.45035 0.0
H226 H 0.83086 0.57769 0.23795 0.0
H227 H 0.84241 0.65046 0.14762 0.0
H228 H 0.82029 0.53949 0.7556 0.0
H229 H 0.76453 0.50847 0.30593 0.0
H230 H 0.74187 0.56491 0.38907 0.0
C231 C 0.4377 0.21481 0.34295 0.0
C232 C 0.43496 0.21175 0.24039 0.0
N233 N 0.44086 0.23488 0.20031 0.0
N234 N 0.44541 0.23976 0.36744 0.0
C235 C 0.44668 0.25138 0.27913 0.0
H236 H 0.43576 0.20019 0.39586 0.0
Co237 Co 0.45687 0.25439 0.49495 0.0
C238 C 0.49804 0.30798 0.44635 0.0
O239 O 0.51358 0.30485 0.50775 0.0
N240 N 0.46699 0.26829 0.62557 0.0
C241 C 0.47173 0.29245 0.76151 0.0
C242 C 0.47298 0.2923 0.65884 0.0
C243 C 0.46108 0.25398 0.71029 0.0
N244 N 0.46395 0.26822 0.79396 0.0
O245 O 0.42511 0.25494 0.51573 0.0
H246 H 0.4755 0.30824 0.61248 0.0
H247 H 0.45219 0.23298 0.71 0.0
O248 O 0.4743 0.28984 0.43671 0.0
C249 C 0.40833 0.23231 0.54606 0.0
O250 O 0.41518 0.21445 0.55312 0.0
N251 N 0.48694 0.25102 0.47559 0.0
C252 C 0.51999 0.23197 0.42102 0.0
C253 C 0.51755 0.24979 0.36022 0.0
C254 C 0.50083 0.25887 0.38819 0.0
C255 C 0.48996 0.23446 0.53756 0.0
C256 C 0.50665 0.225 0.51248 0.0
H257 H 0.49771 0.27071 0.33514 0.0
H258 H 0.47786 0.22663 0.60264 0.0
H259 H 0.45379 0.27202 0.27178 0.0
H260 H 0.43007 0.19415 0.19851 0.0
H261 H 0.47479 0.30881 0.80797 0.0
H262 H 0.52742 0.25562 0.28872 0.0
H263 H 0.5075 0.21078 0.56057 0.0
C264 C 0.83043 0.23233 0.3664 0.0
C265 C 0.8336 0.23259 0.2639 0.0
N266 N 0.81059 0.21532 0.22203 0.0
N267 N 0.80554 0.21507 0.3891 0.0
C268 C 0.79409 0.20474 0.29979 0.0
H269 H 0.84496 0.24494 0.42052 0.0
Co270 Co 0.79065 0.21139 0.5158 0.0
C271 C 0.73592 0.19482 0.45452 0.0
O272 O 0.73634 0.21384 0.50754 0.0
N273 N 0.77659 0.20726 0.6456 0.0
C274 C 0.75248 0.18961 0.78171 0.0
C275 C 0.75224 0.19098 0.67895 0.0
C276 C 0.7913 0.21471 0.73016 0.0
N277 N 0.77713 0.20443 0.81389 0.0
O278 O 0.79109 0.17956 0.53626 0.0
H279 H 0.73554 0.17874 0.63291 0.0
H280 H 0.81232 0.2257 0.72961 0.0
O281 O 0.75576 0.19176 0.45495 0.0
C282 C 0.81317 0.18411 0.56857 0.0
O283 O 0.83213 0.20837 0.57598 0.0
N284 N 0.79252 0.24425 0.49817 0.0
C285 C 0.81024 0.29689 0.45547 0.0
C286 C 0.79347 0.27705 0.38899 0.0
C287 C 0.78498 0.25091 0.41135 0.0
C288 C 0.80786 0.2633 0.56537 0.0
C289 C 0.81648 0.28952 0.54652 0.0
H290 H 0.77391 0.23629 0.35506 0.0
H291 H 0.81533 0.25866 0.63072 0.0
H292 H 0.77358 0.19117 0.29084 0.0
H293 H 0.85123 0.24522 0.22341 0.0
H294 H 0.73592 0.17758 0.82851 0.0
H295 H 0.78846 0.2817 0.31691 0.0
H296 H 0.82921 0.30404 0.60072 0.0
C297 C 0.96695 0.49253 0.35968 0.0
C298 C 0.96755 0.4925 0.46307 0.0
N299 N 0.94469 0.48901 0.4971 0.0
N300 N 0.94385 0.48927 0.32866 0.0
C301 C 0.93087 0.48727 0.4144 0.0
H302 H 0.98228 0.49423 0.31138 0.0
Co303 Co 0.92948 0.48522 0.20005 0.0
C304 C 0.9131 0.52489 0.21259 0.0
O305 O 0.92414 0.53472 0.12613 0.0
N306 N 0.91458 0.48081 0.07227 0.0
C307 C 0.88981 0.47777 0.94144 0.0
C308 C 0.89163 0.47855 0.04484 0.0
C309 C 0.92578 0.48042 0.98485 0.0
N310 N 0.91159 0.4793 0.90428 0.0
O311 O 0.96026 0.51683 0.15503 0.0
H312 H 0.87746 0.47831 0.09637 0.0
H313 H 0.94406 0.48088 0.97932 0.0
O314 O 0.91325 0.50492 0.2469 0.0
C315 C 0.97656 0.51066 0.12067 0.0
O316 O 0.971 0.48631 0.12958 0.0
N317 N 0.90139 0.45329 0.23915 0.0
C318 C 0.86805 0.403 0.30834 0.0
C319 C 0.86063 0.42214 0.31234 0.0
C320 C 0.87773 0.44741 0.27719 0.0
C321 C 0.90818 0.43461 0.23005 0.0
C322 C 0.8919 0.40944 0.26417 0.0
H323 H 0.87233 0.46228 0.28366 0.0
H324 H 0.9269 0.43963 0.1988 0.0
H325 H 0.9114 0.48434 0.41622 0.0
H326 H 0.98328 0.4941 0.5093 0.0
H327 H 0.87421 0.47717 0.8973 0.0
H328 H 0.84232 0.41791 0.34566 0.0
H329 H 0.89819 0.39519 0.2575 0.0
C330 C 0.57849 0.49079 0.28786 0.0
C331 C 0.57853 0.4938 0.39038 0.0
N332 N 0.56102 0.47073 0.42997 0.0
N333 N 0.56112 0.46593 0.26292 0.0
C334 C 0.55049 0.45432 0.35086 0.0
H335 H 0.59127 0.5054 0.23527 0.0
Co336 Co 0.5572 0.45125 0.13517 0.0
C337 C 0.54495 0.39775 0.18742 0.0
O338 O 0.56375 0.40041 0.12789 0.0
N339 N 0.5526 0.43721 0.00461 0.0
C340 C 0.53402 0.41282 0.8683 0.0
C341 C 0.53568 0.41285 0.97105 0.0
C342 C 0.55997 0.45173 0.92036 0.0
N343 N 0.54924 0.43737 0.83652 0.0
O344 O 0.52484 0.45079 0.11784 0.0
H345 H 0.52332 0.39639 0.01723 0.0
H346 H 0.57115 0.4728 0.92111 0.0
O347 O 0.53946 0.41603 0.19404 0.0
C348 C 0.53038 0.47354 0.09006 0.0
O349 O 0.55497 0.49161 0.08339 0.0
N350 N 0.59076 0.45458 0.15027 0.0
C351 C 0.64369 0.47397 0.19214 0.0
C352 C 0.62448 0.45695 0.25862 0.0
C353 C 0.59821 0.44767 0.23679 0.0
C354 C 0.60925 0.47023 0.08315 0.0
C355 C 0.63563 0.47968 0.10158 0.0
H356 H 0.58406 0.43646 0.29336 0.0
H357 H 0.60406 0.47735 0.01839 0.0
H358 H 0.53663 0.43377 0.35769 0.0
H359 H 0.59114 0.51137 0.4325 0.0
H360 H 0.52158 0.39619 0.82126 0.0
H361 H 0.62967 0.45236 0.33046 0.0
H362 H 0.64969 0.49264 0.04754 0.0
C363 C 0.55389 0.07261 0.34375 0.0
C364 C 0.55241 0.0718 0.44687 0.0
N365 N 0.57319 0.09338 0.48392 0.0
N366 N 0.57569 0.09447 0.3159 0.0
C367 C 0.5869 0.10667 0.40313 0.0
H368 H 0.53935 0.05855 0.29332 0.0
Co369 Co 0.58685 0.10817 0.18817 0.0
C370 C 0.64286 0.12515 0.22688 0.0
O371 O 0.64259 0.10781 0.16414 0.0
N372 N 0.59783 0.12206 0.06155 0.0
C373 C 0.61993 0.14539 0.92998 0.0
C374 C 0.61951 0.14395 0.03316 0.0
C375 C 0.58519 0.11093 0.97526 0.0
N376 N 0.59835 0.12441 0.89388 0.0
O377 O 0.59002 0.07827 0.14941 0.0
H378 H 0.63431 0.15777 0.08376 0.0
H379 H 0.5666 0.09321 0.97189 0.0
O380 O 0.62246 0.12686 0.23862 0.0
C381 C 0.56882 0.05949 0.1147 0.0
O382 O 0.54805 0.06195 0.11252 0.0
N383 N 0.58138 0.13577 0.22193 0.0
C384 C 0.56478 0.17042 0.27965 0.0
C385 C 0.59098 0.17733 0.28987 0.0
C386 C 0.59901 0.15979 0.25915 0.0
C387 C 0.55601 0.12898 0.20972 0.0
C388 C 0.5473 0.14603 0.23765 0.0
H389 H 0.61924 0.16555 0.26645 0.0
H390 H 0.54235 0.10989 0.17989 0.0
H391 H 0.60458 0.12533 0.4074 0.0
H392 H 0.53673 0.05698 0.49076 0.0
H393 H 0.63532 0.16026 0.88517 0.0
H394 H 0.60511 0.19614 0.32075 0.0
H395 H 0.52689 0.1399 0.22895 0.0
C396 C 0.47992 0.94388 0.6728 0.0
C397 C 0.47945 0.94639 0.57022 0.0
N398 N 0.49429 0.9376 0.52846 0.0
N399 N 0.49484 0.93339 0.69559 0.0
C400 C 0.50371 0.93024 0.60619 0.0
H401 H 0.46867 0.94776 0.72682 0.0
Co402 Co 0.49573 0.92022 0.82155 0.0
C403 C 0.50626 0.87761 0.768 0.0
O404 O 0.48672 0.8619 0.82536 0.0
N405 N 0.49714 0.90812 0.95137 0.0
C406 C 0.5152 0.90159 0.0866 0.0
C407 C 0.51422 0.90094 0.98395 0.0
C408 C 0.48874 0.91392 0.03717 0.0
N409 N 0.49955 0.91026 0.12045 0.0
O410 O 0.52882 0.95068 0.85132 0.0
H411 H 0.52762 0.89831 0.93764 0.0
H412 H 0.4774 0.92359 0.03826 0.0
O413 O 0.51274 0.9017 0.7623 0.0
C414 C 0.52422 0.96718 0.89507 0.0
O415 O 0.49998 0.96183 0.90145 0.0
N416 N 0.46177 0.89166 0.79472 0.0
C417 C 0.40968 0.85989 0.73713 0.0
C418 C 0.42967 0.86029 0.6804 0.0
C419 C 0.45555 0.8768 0.70884 0.0
C420 C 0.44237 0.89103 0.85167 0.0
C421 C 0.41623 0.87529 0.82434 0.0
H422 H 0.47047 0.87867 0.65787 0.0
H423 H 0.44709 0.9042 0.91451 0.0
H424 H 0.51499 0.92064 0.59709 0.0
H425 H 0.46814 0.95308 0.52946 0.0
H426 H 0.52802 0.89781 0.13213 0.0
H427 H 0.42541 0.84931 0.61077 0.0
H428 H 0.40131 0.87592 0.86889 0.0
C429 C 0.0997 0.54559 0.70155 0.0
C430 C 0.09741 0.54263 0.59883 0.0
N431 N 0.10405 0.56593 0.55866 0.0
N432 N 0.10788 0.57065 0.72599 0.0
C433 C 0.10993 0.58245 0.6374 0.0
H434 H 0.09724 0.53081 0.75461 0.0
Co435 Co 0.11968 0.58519 0.85333 0.0
C436 C 0.1602 0.63929 0.80541 0.0
O437 O 0.17605 0.63643 0.86608 0.0
N438 N 0.1304 0.59912 0.98392 0.0
C439 C 0.13483 0.62328 0.11953 0.0
C440 C 0.13554 0.6229 0.0169 0.0
C441 C 0.12558 0.58512 0.06916 0.0
N442 N 0.12814 0.59936 0.15264 0.0
O443 O 0.08775 0.58528 0.87783 0.0
H444 H 0.13691 0.63838 0.97054 0.0
H445 H 0.11743 0.56423 0.06964 0.0
O446 O 0.13662 0.62076 0.7955 0.0
C447 C 0.07219 0.56274 0.91267 0.0
O448 O 0.08028 0.54581 0.91892 0.0
N449 N 0.14957 0.58184 0.83104 0.0
C450 C 0.182 0.5621 0.77282 0.0
C451 C 0.18133 0.58192 0.71814 0.0
C452 C 0.16455 0.59095 0.74667 0.0
C453 C 0.15063 0.56321 0.88697 0.0
C454 C 0.16667 0.55318 0.85968 0.0
H455 H 0.16244 0.60393 0.69625 0.0
H456 H 0.13727 0.55423 0.94801 0.0
H457 H 0.11763 0.60319 0.62977 0.0
H458 H 0.09233 0.52499 0.55694 0.0
H459 H 0.13729 0.63949 0.16552 0.0
H460 H 0.19276 0.58969 0.65087 0.0
H461 H 0.16561 0.5373 0.903 0.0
C462 C 0.48208 0.52833 0.63928 0.0
C463 C 0.48031 0.52574 0.53621 0.0
N464 N 0.46264 0.53202 0.50403 0.0
N465 N 0.46547 0.53604 0.67165 0.0
C466 C 0.45373 0.5378 0.58767 0.0
H467 H 0.49561 0.5261 0.68661 0.0
Co468 Co 0.46244 0.54688 0.79975 0.0
C469 C 0.40568 0.52944 0.82036 0.0
O470 O 0.40991 0.54581 0.89464 0.0
N471 N 0.4598 0.5581 0.93058 0.0
C472 C 0.46741 0.58256 0.06797 0.0
C473 C 0.4698 0.58279 0.96535 0.0
C474 C 0.45123 0.54328 0.01409 0.0
N475 N 0.45601 0.55767 0.09863 0.0
O476 O 0.46073 0.51601 0.85565 0.0
H477 H 0.47963 0.60018 0.92061 0.0
H478 H 0.44251 0.5223 0.01366 0.0
O479 O 0.42471 0.52856 0.77985 0.0
C480 C 0.4829 0.52286 0.89448 0.0
O481 O 0.50144 0.54727 0.8855 0.0
N482 N 0.46739 0.57828 0.74465 0.0
C483 C 0.48546 0.62762 0.66122 0.0
C484 C 0.45872 0.61066 0.67616 0.0
C485 C 0.45002 0.58596 0.71786 0.0
C486 C 0.49331 0.59447 0.73033 0.0
C487 C 0.50275 0.61915 0.68959 0.0
H488 H 0.42944 0.57319 0.72641 0.0
H489 H 0.50681 0.58812 0.75182 0.0
H490 H 0.43969 0.54434 0.58745 0.0
H491 H 0.49237 0.52136 0.48835 0.0
H492 H 0.47522 0.59953 0.11672 0.0
H493 H 0.44461 0.6162 0.65427 0.0
H494 H 0.52356 0.63159 0.68174 0.0
C495 C 0.6152 0.80347 0.60869 0.0
C496 C 0.61738 0.80354 0.71177 0.0
N497 N 0.61001 0.81993 0.75025 0.0
N498 N 0.60641 0.81965 0.58283 0.0
C499 C 0.6042 0.82995 0.67037 0.0
H500 H 0.61793 0.79098 0.55651 0.0
Co501 Co 0.59423 0.82176 0.45652 0.0
C502 C 0.55127 0.83134 0.51215 0.0
O503 O 0.53546 0.81172 0.45394 0.0
N504 N 0.58323 0.82468 0.32671 0.0
C505 C 0.57527 0.84188 0.1925 0.0
C506 C 0.57495 0.84099 0.29534 0.0
C507 C 0.58955 0.81691 0.24067 0.0
N508 N 0.58467 0.82685 0.15812 0.0
O509 O 0.6248 0.85514 0.43721 0.0
H510 H 0.57135 0.85366 0.34283 0.0
H511 H 0.59929 0.80565 0.2387 0.0
O512 O 0.57537 0.83813 0.51681 0.0
C513 C 0.64181 0.85171 0.39225 0.0
O514 O 0.63658 0.8278 0.37288 0.0
N515 N 0.56528 0.78732 0.47452 0.0
C516 C 0.53264 0.73418 0.51753 0.0
C517 C 0.53497 0.75363 0.58459 0.0
C518 C 0.55141 0.77995 0.56205 0.0
C519 C 0.56268 0.76861 0.40764 0.0
C520 C 0.54613 0.74214 0.42643 0.0
H521 H 0.55412 0.79428 0.61842 0.0
H522 H 0.57472 0.77376 0.34219 0.0
H523 H 0.5969 0.84334 0.67637 0.0
H524 H 0.62201 0.791 0.75505 0.0
H525 H 0.571 0.85438 0.14714 0.0
H526 H 0.52553 0.74868 0.65699 0.0
H527 H 0.54494 0.72802 0.37152 0.0
C528 C 0.23933 0.82354 0.65365 0.0
C529 C 0.24001 0.82651 0.75637 0.0
N530 N 0.22328 0.80325 0.79651 0.0
N531 N 0.22239 0.7985 0.62927 0.0
C532 C 0.21263 0.78674 0.71781 0.0
H533 H 0.2516 0.83829 0.60049 0.0
Co534 Co 0.21932 0.78395 0.50195 0.0
C535 C 0.20567 0.72972 0.54932 0.0
O536 O 0.22419 0.73239 0.48808 0.0
N537 N 0.21577 0.77001 0.37135 0.0
C538 C 0.19595 0.74593 0.23576 0.0
C539 C 0.19706 0.74629 0.33841 0.0
C540 C 0.22496 0.784 0.28617 0.0
N541 N 0.21326 0.7698 0.20269 0.0
O542 O 0.18722 0.78383 0.4794 0.0
H543 H 0.18297 0.73085 0.38486 0.0
H544 H 0.23778 0.80488 0.28569 0.0
O545 O 0.20085 0.74841 0.55981 0.0
C546 C 0.19366 0.80625 0.44454 0.0
O547 O 0.21851 0.8234 0.43609 0.0
N548 N 0.25259 0.78722 0.52268 0.0
C549 C 0.3046 0.80688 0.57923 0.0
C550 C 0.28451 0.787 0.63417 0.0
C551 C 0.25866 0.77794 0.60634 0.0
C552 C 0.27212 0.80605 0.46685 0.0
C553 C 0.29821 0.81612 0.49365 0.0
H554 H 0.2437 0.76501 0.6572 0.0
H555 H 0.26761 0.81515 0.40656 0.0
H556 H 0.19948 0.76603 0.72543 0.0
H557 H 0.25257 0.84415 0.79827 0.0
H558 H 0.18217 0.72976 0.18972 0.0
H559 H 0.28867 0.78 0.70266 0.0
H560 H 0.31322 0.83193 0.45067 0.0
C561 C 0.21787 0.41878 0.68071 0.0
C562 C 0.21483 0.41611 0.78323 0.0
N563 N 0.2385 0.42559 0.82563 0.0
N564 N 0.24333 0.43 0.65827 0.0
C565 C 0.25533 0.43338 0.74802 0.0
H566 H 0.20268 0.41464 0.62657 0.0
Co567 Co 0.25712 0.44417 0.53252 0.0
C568 C 0.31018 0.48625 0.59266 0.0
O569 O 0.30654 0.50336 0.54373 0.0
N570 N 0.2702 0.45725 0.4031 0.0
C571 C 0.29484 0.4663 0.26662 0.0
C572 C 0.29479 0.46696 0.36935 0.0
C573 C 0.25563 0.45018 0.31787 0.0
N574 N 0.27014 0.45526 0.23382 0.0
O575 O 0.26017 0.41417 0.49759 0.0
H576 H 0.31158 0.4714 0.41439 0.0
H577 H 0.23462 0.43887 0.31788 0.0
O578 O 0.29265 0.4621 0.59091 0.0
C579 C 0.2392 0.39651 0.45698 0.0
O580 O 0.21903 0.39997 0.45419 0.0
N581 N 0.25166 0.47254 0.56439 0.0
C582 C 0.23283 0.50564 0.62555 0.0
C583 C 0.25151 0.50346 0.68262 0.0
C584 C 0.26001 0.48637 0.65255 0.0
C585 C 0.23388 0.47474 0.50672 0.0
C586 C 0.22428 0.49114 0.53557 0.0
H587 H 0.2727 0.48373 0.70287 0.0
H588 H 0.22576 0.46252 0.44106 0.0
H589 H 0.27622 0.4437 0.75749 0.0
H590 H 0.19674 0.40897 0.82349 0.0
H591 H 0.31171 0.47177 0.22021 0.0
H592 H 0.25911 0.51429 0.75198 0.0
H593 H 0.2093 0.49131 0.48992 0.0
C594 C 0.15063 0.26322 0.57218 0.0
C595 C 0.17121 0.2599 0.53853 0.0
H596 H 0.13321 0.27186 0.69597 0.0
C597 C 0.19147 0.26496 0.60601 0.0
H598 H 0.13472 0.25942 0.5222 0.0
C599 C 0.19076 0.2723 0.70536 0.0
C600 C 0.16976 0.27473 0.74029 0.0
H601 H 0.20801 0.26334 0.58214 0.0
H602 H 0.20666 0.2759 0.75506 0.0
C603 C 0.14987 0.27049 0.67191 0.0
C604 C 0.79246 0.90358 0.63347 0.0
C605 C 0.79295 0.92637 0.60142 0.0
H606 H 0.78678 0.87805 0.75567 0.0
C607 C 0.78617 0.94011 0.67007 0.0
H608 H 0.79771 0.89264 0.58267 0.0
C609 C 0.7798 0.9317 0.76895 0.0
C610 C 0.78002 0.90935 0.8019 0.0
H611 H 0.78567 0.95735 0.64754 0.0
H612 H 0.77479 0.94281 0.81985 0.0
C613 C 0.78607 0.89515 0.7326 0.0
C614 C 0.14537 0.87859 0.71861 0.0
C615 C 0.1298 0.87848 0.7978 0.0
H616 H 0.1514 0.88065 0.5604 0.0
C617 C 0.10678 0.87879 0.7756 0.0
H618 H 0.16317 0.87835 0.7337 0.0
C619 C 0.09997 0.88006 0.67624 0.0
C620 C 0.11591 0.88081 0.59713 0.0
H621 H 0.09455 0.87915 0.83503 0.0
H622 H 0.08245 0.88082 0.66124 0.0
C623 C 0.13847 0.87965 0.61937 0.0
C624 C 0.23879 0.14448 0.3503 0.0
C625 C 0.25615 0.15756 0.4297 0.0
H626 H 0.23342 0.13869 0.19182 0.0
C627 C 0.28174 0.17698 0.40729 0.0
H628 H 0.21892 0.12959 0.3652 0.0
C629 C 0.29013 0.18219 0.30775 0.0
C630 C 0.27301 0.16838 0.22856 0.0
H631 H 0.29565 0.18736 0.46657 0.0
H632 H 0.31013 0.19671 0.2927 0.0
C633 C 0.24708 0.14988 0.2509 0.0
C634 C 0.86463 0.09846 0.37087 0.0
C635 C 0.88527 0.11276 0.43849 0.0
H636 H 0.84966 0.09516 0.22214 0.0
C637 C 0.90681 0.13603 0.40553 0.0
H638 H 0.84738 0.08085 0.39404 0.0
C639 C 0.90802 0.14433 0.30652 0.0
C640 C 0.88769 0.12956 0.2382 0.0
H641 H 0.92306 0.14744 0.45547 0.0
H642 H 0.92531 0.16184 0.28277 0.0
C643 C 0.86584 0.10674 0.27215 0.0
C644 C 0.93165 0.79336 0.31741 0.0
C645 C 0.92723 0.7683 0.29351 0.0
H646 H 0.93653 0.82064 0.43323 0.0
C647 C 0.92644 0.7521 0.37132 0.0
H648 H 0.93221 0.80627 0.25919 0.0
C649 C 0.92913 0.76045 0.47128 0.0
C650 C 0.93199 0.78493 0.49563 0.0
H651 H 0.92337 0.73283 0.35482 0.0
H652 H 0.92788 0.74725 0.52931 0.0
C653 C 0.93391 0.80153 0.41727 0.0
C654 C 0.84612 0.62118 0.97881 0.0
C655 C 0.8339 0.60296 0.0554 0.0
H656 H 0.85348 0.6276 0.82209 0.0
C657 C 0.81899 0.57634 0.02982 0.0
H658 H 0.85808 0.64174 0.99611 0.0
C659 C 0.8163 0.56817 0.92968 0.0
C660 C 0.82836 0.58645 0.8531 0.0
H661 H 0.80897 0.56181 0.08685 0.0
H662 H 0.80441 0.54762 0.91205 0.0
C663 C 0.84342 0.61303 0.87892 0.0
C664 C 0.44275 0.26328 0.06214 0.0
C665 C 0.4447 0.24192 0.09581 0.0
H666 H 0.44687 0.28811 0.93996 0.0
C667 C 0.45205 0.22863 0.02712 0.0
H668 H 0.43672 0.27364 0.11262 0.0
C669 C 0.45801 0.23701 0.92782 0.0
C670 C 0.45679 0.25887 0.8951 0.0
H671 H 0.45409 0.21232 0.05078 0.0
H672 H 0.4643 0.22685 0.87746 0.0
C673 C 0.44871 0.27164 0.9631 0.0
C674 C 0.80915 0.22924 0.94785 0.0
C675 C 0.78663 0.2066 0.91518 0.0
H676 H 0.83436 0.24994 0.07111 0.0
C677 C 0.77324 0.18623 0.98352 0.0
H678 H 0.8198 0.2453 0.89707 0.0
C679 C 0.78166 0.18875 0.08295 0.0
C680 C 0.80362 0.21177 0.11689 0.0
H681 H 0.75622 0.16825 0.96026 0.0
H682 H 0.77079 0.17269 0.13347 0.0
C683 C 0.81753 0.23183 0.04764 0.0
C684 C 0.94622 0.49644 0.77684 0.0
C685 C 0.91968 0.48185 0.80113 0.0
H686 H 0.97494 0.51033 0.66146 0.0
C687 C 0.90141 0.46993 0.72349 0.0
H688 H 0.9607 0.50653 0.83461 0.0
C689 C 0.90959 0.47223 0.62378 0.0
C690 C 0.93621 0.48662 0.59974 0.0
H691 H 0.88088 0.45847 0.74005 0.0
H692 H 0.89506 0.46234 0.56584 0.0
C693 C 0.95439 0.49872 0.67749 0.0
C694 C 0.57451 0.46898 0.70438 0.0
C695 C 0.55164 0.44672 0.73539 0.0
H696 H 0.59558 0.49398 0.58292 0.0
C697 C 0.53132 0.4335 0.6657 0.0
H698 H 0.59056 0.47946 0.75617 0.0
C699 C 0.53408 0.4419 0.56655 0.0
C700 C 0.55727 0.46367 0.5345 0.0
H701 H 0.51321 0.41664 0.6877 0.0
H702 H 0.51807 0.43122 0.51482 0.0
C703 C 0.57732 0.47735 0.60502 0.0
C704 C 0.59459 0.12781 0.6139 0.0
C705 C 0.57912 0.1013 0.58754 0.0
H706 H 0.61257 0.15596 0.73208 0.0
C707 C 0.56974 0.08265 0.66392 0.0
H708 H 0.60171 0.14279 0.55729 0.0
C709 C 0.57584 0.09027 0.76414 0.0
C710 C 0.59154 0.11673 0.79048 0.0
H711 H 0.55809 0.06209 0.64625 0.0
H712 H 0.56865 0.07528 0.82063 0.0
C713 C 0.60078 0.13542 0.71421 0.0
C714 C 0.47562 0.92653 0.35646 0.0
C715 C 0.49627 0.93268 0.42354 0.0
H716 H 0.4603 0.91414 0.20768 0.0
C717 C 0.51833 0.93238 0.38792 0.0
H718 H 0.4582 0.92629 0.38179 0.0
C719 C 0.5195 0.92542 0.28862 0.0
C720 C 0.49855 0.91839 0.22209 0.0
H721 H 0.53472 0.93745 0.43715 0.0
H722 H 0.53699 0.92567 0.26424 0.0
C723 C 0.47675 0.91945 0.25678 0.0
C724 C 0.11619 0.55997 0.38669 0.0
C725 C 0.10834 0.57303 0.45433 0.0
H726 H 0.12909 0.55841 0.23787 0.0
C727 C 0.10623 0.59422 0.41993 0.0
H728 H 0.11835 0.54377 0.41119 0.0
C729 C 0.1124 0.6026 0.32105 0.0
C730 C 0.12098 0.59006 0.2539 0.0
H731 H 0.09983 0.6044 0.46972 0.0
H732 H 0.11029 0.61886 0.2974 0.0
C733 C 0.12246 0.5684 0.2875 0.0
C734 C 0.45332 0.55697 0.37945 0.0
C735 C 0.45808 0.53656 0.40193 0.0
H736 H 0.4487 0.57951 0.26489 0.0
C737 C 0.45997 0.52183 0.32279 0.0
H738 H 0.45204 0.56889 0.4386 0.0
C739 C 0.45797 0.5279 0.22317 0.0
C740 C 0.45443 0.5491 0.20065 0.0
H741 H 0.46345 0.5059 0.33801 0.0
H742 H 0.46033 0.51669 0.16394 0.0
C743 C 0.45162 0.56322 0.27994 0.0
C744 C 0.61163 0.82026 0.03209 0.0
C745 C 0.59106 0.82471 0.0555 0.0
H746 H 0.63405 0.81563 0.91593 0.0
C747 C 0.57705 0.82767 0.97683 0.0
H748 H 0.62311 0.81832 0.09085 0.0
C749 C 0.58344 0.82634 0.87723 0.0
C750 C 0.60408 0.82204 0.85353 0.0
H751 H 0.56085 0.83067 0.99227 0.0
H752 H 0.57178 0.82812 0.81883 0.0
C753 C 0.61803 0.81888 0.93201 0.0
C754 C 0.19455 0.76671 0.03381 0.0
C755 C 0.21557 0.77912 0.10137 0.0
H756 H 0.18041 0.76503 0.88474 0.0
C757 C 0.23878 0.80066 0.06816 0.0
H758 H 0.17611 0.75054 0.05716 0.0
C759 C 0.24113 0.80911 0.96891 0.0
C760 C 0.2203 0.79617 0.90086 0.0
H761 H 0.25534 0.81055 0.11812 0.0
H762 H 0.25953 0.82521 0.94471 0.0
C763 C 0.19692 0.7751 0.93488 0.0
C764 C 0.2684 0.43315 0.96718 0.0
C765 C 0.24522 0.431 0.93079 0.0
H766 H 0.29418 0.44194 0.09137 0.0
C767 C 0.22966 0.43581 0.99749 0.0
H768 H 0.28058 0.42911 0.9186 0.0
C769 C 0.23757 0.4434 0.09724 0.0
C770 C 0.26123 0.44641 0.1324 0.0
H771 H 0.2118 0.43461 0.97189 0.0
H772 H 0.22555 0.44762 0.14601 0.0
C773 C 0.27627 0.44069 0.06646 0.0
C774 C 0.23865 0.37863 0.28831 0.0
C775 C 0.23834 0.37569 0.39294 0.0
H776 H 0.22626 0.35938 0.14525 0.0
C777 C 0.22975 0.3508 0.4323 0.0
H778 H 0.24458 0.39753 0.25637 0.0
C779 C 0.21958 0.32894 0.36827 0.0
C780 C 0.21763 0.3317 0.26437 0.0
H781 H 0.22861 0.34796 0.51277 0.0
H782 H 0.21079 0.3097 0.40101 0.0
C783 C 0.22824 0.3568 0.22457 0.0
C784 C 0.69829 0.88862 0.22218 0.0
C785 C 0.71878 0.89946 0.29185 0.0
H786 H 0.65706 0.865 0.20096 0.0
C787 C 0.71314 0.89917 0.39444 0.0
H788 H 0.7022 0.88796 0.1431 0.0
C789 C 0.68732 0.88632 0.42756 0.0
C790 C 0.66691 0.87328 0.35843 0.0
H791 H 0.72871 0.90681 0.44956 0.0
H792 H 0.68348 0.88427 0.50743 0.0
C793 C 0.67251 0.87546 0.25534 0.0
C794 C 0.1795 0.83864 0.45128 0.0
C795 C 0.17488 0.81444 0.41527 0.0
H796 H 0.17415 0.87121 0.42929 0.0
C797 C 0.15729 0.80246 0.33499 0.0
H798 H 0.19316 0.8484 0.51226 0.0
C799 C 0.1461 0.81567 0.28679 0.0
C800 C 0.15276 0.841 0.31811 0.0
H801 H 0.15394 0.78403 0.30444 0.0
H802 H 0.13404 0.80704 0.22087 0.0
C803 C 0.16868 0.85176 0.40324 0.0
C804 C 0.3614 0.20137 0.53816 0.0
C805 C 0.38165 0.22504 0.57539 0.0
H806 H 0.32293 0.16966 0.5601 0.0
C807 C 0.37684 0.23721 0.65709 0.0
H808 H 0.3647 0.19154 0.4758 0.0
C809 C 0.35264 0.22453 0.70616 0.0
C810 C 0.33333 0.19958 0.67403 0.0
H811 H 0.39241 0.25522 0.68837 0.0
H812 H 0.34989 0.23312 0.77372 0.0
C813 C 0.33756 0.18878 0.58693 0.0
C814 C 0.84847 0.14779 0.6088 0.0
C815 C 0.84217 0.14002 0.70907 0.0
H816 H 0.84344 0.16751 0.48423 0.0
C817 C 0.82181 0.14181 0.75467 0.0
H818 H 0.86427 0.14682 0.57237 0.0
C819 C 0.80969 0.15357 0.7034 0.0
C820 C 0.81784 0.16353 0.60635 0.0
H821 H 0.81703 0.13647 0.83255 0.0
H822 H 0.79582 0.15714 0.74298 0.0
C823 C 0.8365 0.15954 0.55811 0.0
C824 C 0.88461 0.71067 0.63505 0.0
C825 C 0.89747 0.71002 0.72234 0.0
H826 H 0.86327 0.69048 0.50366 0.0
C827 C 0.90175 0.68895 0.73656 0.0
H828 H 0.88116 0.72673 0.62193 0.0
C829 C 0.89124 0.6678 0.668 0.0
C830 C 0.87654 0.66778 0.58492 0.0
H831 H 0.91133 0.68787 0.80404 0.0
H832 H 0.89266 0.65068 0.68453 0.0
C833 C 0.87448 0.68997 0.56694 0.0
C834 C 1.01688 0.55374 0.07972 0.0
C835 C 0.99848 0.5278 0.05446 0.0
H836 H 0.05551 0.58591 0.05243 0.0
C837 C 1.00298 0.5163 0.97002 0.0
H838 H 1.01399 0.56295 0.14506 0.0
C839 C 0.02602 0.52942 0.91654 0.0
C840 C 0.04551 0.55431 0.94669 0.0
H841 H 0.98926 0.49638 0.94837 0.0
H842 H 0.02948 0.51919 0.8561 0.0
C843 C 0.04047 0.56692 0.0263 0.0
C844 C 0.48252 0.48079 0.92768 0.0
C845 C 0.48788 0.5057 0.95925 0.0
H846 H 0.49188 0.45029 0.94701 0.0
C847 C 0.50256 0.51657 0.04703 0.0
H848 H 0.47146 0.47216 0.85958 0.0
C849 C 0.51383 0.50411 0.09697 0.0
C850 C 0.51077 0.48051 0.0602 0.0
H851 H 0.50682 0.53567 0.07333 0.0
H852 H 0.52677 0.51403 0.15974 0.0
C853 C 0.49404 0.46824 0.97796 0.0
C854 C 0.55033 1.01187 0.11609 0.0
C855 C 0.56675 0.03573 0.0699 0.0
H856 H 0.52459 0.97093 0.09571 0.0
C857 C 0.57369 0.03576 0.96896 0.0
H858 H 0.54422 1.01142 0.19305 0.0
C859 C 0.56214 1.01249 0.91237 0.0
C860 C 0.54373 0.98901 0.95674 0.0
H861 H 0.58588 0.05405 0.93133 0.0
H862 H 0.56563 1.0133 0.83234 0.0
C863 C 0.53902 0.98872 0.06015 0.0
C864 C 0.2187 0.22231 0.99732 0.0
C865 C 0.19151 0.20946 0.00558 0.0
H866 H 0.25157 0.22154 0.93354 0.0
C867 C 0.17638 0.18679 0.9483 0.0
H868 H 0.23074 0.23984 0.04079 0.0
C869 C 0.18813 0.17688 0.88486 0.0
C870 C 0.21533 0.189 0.87943 0.0
H871 H 0.15535 0.17666 0.95267 0.0
H872 H 0.17587 0.15911 0.84305 0.0
C873 C 0.23055 0.21188 0.93606 0.0
C874 C 0.83006 1.008 0.04966 0.0
C875 C 0.84551 0.99775 0.08395 0.0
H876 H 0.8287 0.038 0.96395 0.0
C877 C 0.87169 1.00986 0.05511 0.0
H878 H 0.8098 0.99903 0.07086 0.0
C879 C 0.88219 0.0315 0.99252 0.0
C880 C 0.86698 0.04202 0.9589 0.0
H881 H 0.88406 1.00235 0.07963 0.0
H882 H 0.90245 0.04024 0.9715 0.0
C883 C 0.84085 0.03026 0.98884 0.0
C884 C 1.01065 0.8136 0.01515 0.0
C885 C 1.00475 0.82644 0.93983 0.0
H886 H 0.03665 0.81736 0.13531 0.0
C887 C 1.02157 0.85329 0.92643 0.0
H888 H 0.99802 0.79293 0.02738 0.0
C889 C 0.043 0.8672 0.98965 0.0
C890 C 0.04856 0.85455 0.06617 0.0
H891 H 1.0176 0.86387 0.86973 0.0
H892 H 0.05517 0.88803 0.97923 0.0
C893 C 0.03266 0.8275 0.07688 0.0
C894 C 0.89685 0.86494 0.14088 0.0
C895 C 0.89071 0.85201 0.04749 0.0
H896 H 0.88998 0.8891 0.24309 0.0
C897 C 0.87392 0.85507 0.98197 0.0
H898 H 0.90965 0.86275 0.19281 0.0
C899 C 0.86308 0.87037 0.00974 0.0
C900 C 0.86842 0.88262 0.10446 0.0
H901 H 0.86893 0.84533 0.90949 0.0
H902 H 0.84972 0.87182 0.9584 0.0
C903 C 0.88554 0.87988 0.16965 0.0
C904 C 0.16673 0.03451 0.98422 0.0
C905 C 0.19354 0.05003 0.00382 0.0
H906 H 0.13218 0.99732 0.00243 0.0
C907 C 0.20579 0.03947 0.06166 0.0
H908 H 0.15669 0.04196 0.93951 0.0
C909 C 0.19196 1.01391 0.09591 0.0
C910 C 0.16526 0.99808 0.07502 0.0
H911 H 0.22629 0.05092 0.07989 0.0
H912 H 0.20254 1.00639 0.13673 0.0
C913 C 0.15275 1.0088 0.01931 0.0
C914 C 1.01948 0.1841 0.92958 0.0
C915 C 1.00307 0.15751 0.95095 0.0
H916 H 0.05735 0.21785 0.94674 0.0
C917 C 1.01313 0.14461 0.00819 0.0
H918 H 1.01237 0.19491 0.88789 0.0
C919 C 0.03888 0.15801 0.04319 0.0
C920 C 0.05498 0.18448 0.02138 0.0
H921 H 1.00117 0.12413 0.0255 0.0
H922 H 0.04625 0.14774 0.08695 0.0
C923 C 0.04516 0.19738 0.9641 0.0
C924 C 0.89048 0.55098 0.22413 0.0
C925 C 0.90122 0.53745 0.272 0.0
H926 H 0.87154 0.57349 0.24145 0.0
C927 C 0.90111 0.53662 0.3775 0.0
H928 H 0.89026 0.55191 0.143 0.0
C929 C 0.89099 0.54953 0.43395 0.0
C930 C 0.88008 0.56289 0.38603 0.0
H931 H 0.90942 0.52652 0.41654 0.0
H932 H 0.89146 0.54884 0.5151 0.0
C933 C 0.87969 0.56324 0.28051 0.0
C934 C 0.50631 0.36436 0.28487 0.0
C935 C 0.53218 0.37471 0.25304 0.0
H936 H 0.47475 0.3344 0.36957 0.0
C937 C 0.54637 0.36297 0.28531 0.0
H938 H 0.49497 0.37307 0.26092 0.0
C939 C 0.53516 0.34157 0.34893 0.0
C940 C 0.50926 0.33091 0.37997 0.0
H941 H 0.56639 0.37062 0.26269 0.0
H942 H 0.54675 0.33309 0.3727 0.0
C943 C 0.49477 0.34228 0.34661 0.0
C944 C 0.71207 0.15814 0.32968 0.0
C945 C 0.71218 0.17665 0.39679 0.0
H946 H 0.69031 0.12759 0.22259 0.0
C947 C 0.68928 0.17784 0.40798 0.0
H948 H 0.7293 0.15654 0.31958 0.0
C949 C 0.66688 0.16105 0.35345 0.0
C950 C 0.66679 0.1428 0.28504 0.0
H951 H 0.68853 0.19167 0.45949 0.0
H952 H 0.64961 0.16242 0.36556 0.0
C953 C 0.68967 0.1415 0.27404 0.0
C954 C 0.56107 0.19916 0.41069 0.0
C955 C 0.55535 0.18816 0.31364 0.0
H956 H 0.55424 0.22159 0.52138 0.0
C957 C 0.53919 0.19291 0.25095 0.0
H958 H 0.57333 0.19562 0.46081 0.0
C959 C 0.52852 0.20786 0.28507 0.0
C960 C 0.5335 0.2182 0.38318 0.0
H961 H 0.53454 0.18475 0.17572 0.0
H962 H 0.51557 0.21054 0.23563 0.0
C963 C 0.55005 0.21385 0.44551 0.0
C964 C 0.85048 0.34088 0.44744 0.0
C965 C 0.8239 0.32487 0.42499 0.0
H966 H 0.88484 0.37791 0.43011 0.0
C967 C 0.81138 0.33546 0.36848 0.0
H968 H 0.86101 0.33344 0.48908 0.0
C969 C 0.82531 0.36123 0.33355 0.0
C970 C 0.85208 0.37674 0.35341 0.0
H971 H 0.7909 0.32376 0.35027 0.0
H972 H 0.81538 0.36867 0.28809 0.0
C973 C 0.8643 0.36638 0.41245 0.0
C974 C 0.71239 0.5296 0.23687 0.0
C975 C 0.72339 0.51793 0.29546 0.0
H976 H 0.67894 0.52518 0.15998 0.0
C977 C 0.7086 0.49104 0.31414 0.0
H978 H 0.72337 0.5502 0.2199 0.0
C979 C 0.68293 0.47643 0.27848 0.0
C980 C 0.67167 0.48839 0.22254 0.0
H981 H 0.71655 0.48151 0.35919 0.0
H982 H 0.67179 0.45587 0.29578 0.0
C983 C 0.68693 0.5151 0.20121 0.0
C984 C 0.51452 0.82924 0.60908 0.0
C985 C 0.54044 0.84385 0.5775 0.0
H986 H 0.48375 0.82837 0.69487 0.0
C987 C 0.55542 0.86996 0.60953 0.0
H988 H 0.50254 0.80903 0.58637 0.0
C989 C 0.54439 0.88132 0.67054 0.0
C990 C 0.51851 0.86645 0.70292 0.0
H991 H 0.57547 0.88166 0.5862 0.0
H992 H 0.55615 0.90154 0.6935 0.0
C993 C 0.5038 0.84029 0.67186 0.0
C994 C 0.20769 0.69495 0.64487 0.0
C995 C 0.19323 0.70656 0.61457 0.0
H996 H 0.20865 0.66501 0.7298 0.0
C997 C 0.16742 0.69589 0.64758 0.0
H998 H 0.22768 0.70284 0.62133 0.0
C999 C 0.1562 0.67361 0.70841 0.0
C1000 C 0.17099 0.66237 0.73973 0.0
H1001 H 0.15586 0.7045 0.62513 0.0
H1002 H 0.13622 0.66548 0.7323 0.0
C1003 C 0.19684 0.67337 0.70759 0.0
C1004 C 0.34201 0.51845 0.71372 0.0
C1005 C 0.33357 0.49566 0.65619 0.0
H1006 H 0.37097 0.54648 0.81287 0.0
C1007 C 0.34815 0.48295 0.65753 0.0
H1008 H 0.33097 0.5285 0.71435 0.0
C1009 C 0.37153 0.49363 0.71219 0.0
C1010 C 0.3801 0.51665 0.76898 0.0
H1011 H 0.342 0.46536 0.61346 0.0
H1012 H 0.383 0.48406 0.70943 0.0
C1013 C 0.3648 0.52862 0.77065 0.0
C1014 C 0.1996 0.54665 0.63142 0.0
C1015 C 0.19668 0.54925 0.73516 0.0
H1016 H 0.21385 0.53194 0.51577 0.0
C1017 C 0.20672 0.5382 0.80216 0.0
H1018 H 0.19181 0.55435 0.57668 0.0
C1019 C 0.21848 0.52431 0.76678 0.0
C1020 C 0.22119 0.52148 0.66305 0.0
H1021 H 0.20531 0.54 0.88248 0.0
H1022 H 0.22484 0.51526 0.82155 0.0
C1023 C 0.21187 0.53322 0.59603 0.0
C1024 C 0.51715 0.66419 0.55234 0.0
C1025 C 0.49566 0.65405 0.61709 0.0
H1026 H 0.54584 0.69704 0.47268 0.0
C1027 C 0.48511 0.66992 0.64305 0.0
H1028 H 0.52552 0.65243 0.52897 0.0
C1029 C 0.49647 0.69561 0.60829 0.0
C1030 C 0.51868 0.70608 0.54684 0.0
H1031 H 0.46862 0.66283 0.69299 0.0
H1032 H 0.48804 0.70737 0.63082 0.0
C1033 C 0.52858 0.68981 0.51841 0.0
C1034 C 0.3446 0.80624 0.63728 0.0
C1035 C 0.33164 0.82017 0.61835 0.0
H1036 H 0.37984 0.80808 0.68856 0.0
C1037 C 0.34429 0.84696 0.64064 0.0
H1038 H 0.33516 0.78554 0.62107 0.0
C1039 C 0.36937 0.85962 0.68151 0.0
C1040 C 0.38253 0.84584 0.69911 0.0
H1041 H 0.33459 0.85806 0.62774 0.0
H1042 H 0.3787 0.88032 0.69773 0.0
C1043 C 0.37002 0.81907 0.67594 0.0
loop_
_geom_bond_atom_site_label_1
_geom_bond_atom_site_label_2
_geom_bond_distance
_geom_bond_site_symmetry_2
_ccdc_geom_bond_type
C0 C1 1.351 . S
C0 N3 1.368 . S
C0 H5 0.931 . S
C1 C0 1.351 . S
C1 N2 1.373 . S
C1 H29 0.930 . S
N2 C1 1.373 . S
N2 C4 1.340 . S
N3 C0 1.368 . S
N3 C4 1.321 . S
N3 Co6 2.135 1_556 S
C4 N2 1.340 . S
C4 N3 1.321 . S
C4 H28 0.930 . S
H5 C0 0.931 . S
Co6 N3 2.135 1_554 S
Co6 N9 2.121 . S
Co6 O14 2.055 . S
Co6 O17 2.039 . S
Co6 N20 2.140 . S
C7 O8 1.227 . S
C7 O17 1.265 . S
O8 C7 1.227 . S
N9 Co6 2.121 . S
N9 C11 1.375 . S
N9 C12 1.313 . S
C10 C11 1.338 . S
C10 N13 1.377 . S
C10 H30 0.930 . S
C11 N9 1.375 . S
C11 C10 1.338 . S
C11 H15 0.931 . S
C12 N9 1.313 . S
C12 N13 1.344 . S
C12 H16 0.930 . S
N13 C10 1.377 . S
N13 C12 1.344 . S
O14 Co6 2.055 . S
O14 C18 1.253 . S
H15 C11 0.931 . S
H16 C12 0.930 . S
O17 Co6 2.039 . S
O17 C7 1.265 . S
C18 O14 1.253 . S
C18 O19 1.227 . S
O19 C18 1.227 . S
N20 Co6 2.140 . S
N20 C23 1.346 . S
N20 C24 1.345 . S
C21 C22 1.388 1_554 S
C21 C25 1.391 . S
C22 C21 1.388 1_556 S
C22 C23 1.369 1_556 S
C22 H31 0.929 . S
C23 N20 1.346 . S
C23 C22 1.369 1_554 S
C23 H26 0.928 1_554 S
C24 N20 1.345 . S
C24 C25 1.371 . S
C24 H27 0.931 . S
C25 C21 1.391 . S
C25 C24 1.371 . S
C25 H32 0.930 . S
H26 C23 0.928 1_556 S
H27 C24 0.931 . S
H28 C4 0.930 . S
H29 C1 0.930 . S
H30 C10 0.930 . S
H31 C22 0.929 . S
H32 C25 0.930 . S
C33 C34 1.351 . S
C33 N36 1.368 . S
C33 H38 0.931 . S
C34 C33 1.351 . S
C34 N35 1.373 . S
C34 H62 0.930 . S
N35 C34 1.373 . S
N35 C37 1.340 . S
N36 C33 1.368 . S
N36 C37 1.321 . S
N36 Co39 2.135 1_556 S
C37 N35 1.340 . S
C37 N36 1.321 . S
C37 H61 0.930 . S
H38 C33 0.931 . S
Co39 N36 2.135 1_554 S
Co39 N42 2.121 . S
Co39 O47 2.055 . S
Co39 O50 2.039 . S
Co39 N53 2.140 . S
C40 O41 1.227 . S
C40 O50 1.265 . S
O41 C40 1.227 . S
N42 Co39 2.121 . S
N42 C44 1.375 . S
N42 C45 1.313 . S
C43 C44 1.338 . S
C43 N46 1.377 . S
C43 H63 0.930 . S
C44 N42 1.375 . S
C44 C43 1.338 . S
C44 H48 0.931 . S
C45 N42 1.313 . S
C45 N46 1.344 . S
C45 H49 0.930 . S
N46 C43 1.377 . S
N46 C45 1.344 . S
O47 Co39 2.055 . S
O47 C51 1.253 . S
H48 C44 0.931 . S
H49 C45 0.930 . S
O50 Co39 2.039 . S
O50 C40 1.265 . S
C51 O47 1.253 . S
C51 O52 1.227 . S
O52 C51 1.227 . S
N53 Co39 2.140 . S
N53 C56 1.346 . S
N53 C57 1.345 . S
C54 C55 1.388 1_554 S
C54 C58 1.391 . S
C55 C54 1.388 1_556 S
C55 C56 1.369 1_556 S
C55 H64 0.929 . S
C56 N53 1.346 . S
C56 C55 1.369 1_554 S
C56 H59 0.928 1_554 S
C57 N53 1.345 . S
C57 C58 1.371 . S
C57 H60 0.931 . S
C58 C54 1.391 . S
C58 C57 1.371 . S
C58 H65 0.930 . S
H59 C56 0.928 1_556 S
H60 C57 0.931 . S
H61 C37 0.930 . S
H62 C34 0.930 . S
H63 C43 0.930 . S
H64 C55 0.929 . S
H65 C58 0.930 . S
C66 C67 1.351 . S
C66 N69 1.368 . S
C66 H71 0.931 . S
C67 C66 1.351 . S
C67 N68 1.373 . S
C67 H95 0.930 . S
N68 C67 1.373 . S
N68 C70 1.340 . S
N69 C66 1.368 . S
N69 C70 1.321 . S
N69 Co72 2.135 1_556 S
C70 N68 1.340 . S
C70 N69 1.321 . S
C70 H94 0.930 . S
H71 C66 0.931 . S
Co72 N69 2.135 1_554 S
Co72 N75 2.121 . S
Co72 O80 2.055 . S
Co72 O83 2.039 . S
Co72 N86 2.140 . S
C73 O74 1.227 . S
C73 O83 1.265 . S
O74 C73 1.227 . S
N75 Co72 2.121 . S
N75 C77 1.375 . S
N75 C78 1.313 . S
C76 C77 1.338 . S
C76 N79 1.377 . S
C76 H96 0.930 . S
C77 N75 1.375 . S
C77 C76 1.338 . S
C77 H81 0.931 . S
C78 N75 1.313 . S
C78 N79 1.344 . S
C78 H82 0.930 . S
N79 C76 1.377 . S
N79 C78 1.344 . S
O80 Co72 2.055 . S
O80 C84 1.253 . S
H81 C77 0.931 . S
H82 C78 0.930 . S
O83 Co72 2.039 . S
O83 C73 1.265 . S
C84 O80 1.253 . S
C84 O85 1.227 . S
O85 C84 1.227 . S
N86 Co72 2.140 . S
N86 C89 1.346 . S
N86 C90 1.345 . S
C87 C88 1.388 1_554 S
C87 C91 1.391 . S
C88 C87 1.388 1_556 S
C88 C89 1.369 1_556 S
C88 H97 0.929 . S
C89 N86 1.346 . S
C89 C88 1.369 1_554 S
C89 H92 0.928 1_554 S
C90 N86 1.345 . S
C90 C91 1.371 . S
C90 H93 0.931 . S
C91 C87 1.391 . S
C91 C90 1.371 . S
C91 H98 0.930 . S
H92 C89 0.928 1_556 S
H93 C90 0.931 . S
H94 C70 0.930 . S
H95 C67 0.930 . S
H96 C76 0.930 . S
H97 C88 0.929 . S
H98 C91 0.930 . S
C99 C100 1.351 . S
C99 N102 1.368 . S
C99 H104 0.931 . S
C100 C99 1.351 . S
C100 N101 1.373 . S
C100 H128 0.930 . S
N101 C100 1.373 . S
N101 C103 1.340 . S
N102 C99 1.368 . S
N102 C103 1.321 . S
N102 Co105 2.135 1_554 S
C103 N101 1.340 . S
C103 N102 1.321 . S
C103 H127 0.930 . S
H104 C99 0.931 . S
Co105 N102 2.135 1_556 S
Co105 N108 2.121 . S
Co105 O113 2.055 . S
Co105 O116 2.039 . S
Co105 N119 2.140 . S
C106 O107 1.227 . S
C106 O116 1.265 . S
O107 C106 1.227 . S
N108 Co105 2.121 . S
N108 C110 1.375 . S
N108 C111 1.313 . S
C109 C110 1.338 . S
C109 N112 1.377 . S
C109 H129 0.930 . S
C110 N108 1.375 . S
C110 C109 1.338 . S
C110 H114 0.931 . S
C111 N108 1.313 . S
C111 N112 1.344 . S
C111 H115 0.930 . S
N112 C109 1.377 . S
N112 C111 1.344 . S
O113 Co105 2.055 . S
O113 C117 1.253 . S
H114 C110 0.931 . S
H115 C111 0.930 . S
O116 Co105 2.039 . S
O116 C106 1.265 . S
C117 O113 1.253 . S
C117 O118 1.227 . S
O118 C117 1.227 . S
N119 Co105 2.140 . S
N119 C122 1.346 . S
N119 C123 1.345 . S
C120 C121 1.388 1_556 S
C120 C124 1.391 . S
C121 C120 1.388 1_554 S
C121 C122 1.369 1_554 S
C121 H130 0.929 . S
C122 N119 1.346 . S
C122 C121 1.369 1_556 S
C122 H125 0.928 1_556 S
C123 N119 1.345 . S
C123 C124 1.371 . S
C123 H126 0.931 . S
C124 C120 1.391 . S
C124 C123 1.371 . S
C124 H131 0.930 . S
H125 C122 0.928 1_554 S
H126 C123 0.931 . S
H127 C103 0.930 . S
H128 C100 0.930 . S
H129 C109 0.930 . S
H130 C121 0.929 . S
H131 C124 0.930 . S
C132 C133 1.351 . S
C132 N135 1.368 . S
C132 H137 0.931 . S
C133 C132 1.351 . S
C133 N134 1.373 . S
C133 H161 0.930 . S
N134 C133 1.373 . S
N134 C136 1.340 . S
N135 C132 1.368 . S
N135 C136 1.321 . S
N135 Co138 2.135 1_554 S
C136 N134 1.340 . S
C136 N135 1.321 . S
C136 H160 0.930 . S
H137 C132 0.931 . S
Co138 N135 2.135 1_556 S
Co138 N141 2.121 . S
Co138 O146 2.055 . S
Co138 O149 2.039 . S
Co138 N152 2.140 . S
C139 O140 1.227 . S
C139 O149 1.265 . S
O140 C139 1.227 . S
N141 Co138 2.121 . S
N141 C143 1.375 . S
N141 C144 1.313 . S
C142 C143 1.338 . S
C142 N145 1.377 . S
C142 H162 0.930 . S
C143 N141 1.375 . S
C143 C142 1.338 . S
C143 H147 0.931 . S
C144 N141 1.313 . S
C144 N145 1.344 . S
C144 H148 0.930 . S
N145 C142 1.377 . S
N145 C144 1.344 . S
O146 Co138 2.055 . S
O146 C150 1.253 . S
H147 C143 0.931 . S
H148 C144 0.930 . S
O149 Co138 2.039 . S
O149 C139 1.265 . S
C150 O146 1.253 . S
C150 O151 1.227 . S
O151 C150 1.227 . S
N152 Co138 2.140 . S
N152 C155 1.346 . S
N152 C156 1.345 . S
C153 C154 1.388 1_556 S
C153 C157 1.391 . S
C154 C153 1.388 1_554 S
C154 C155 1.369 1_554 S
C154 H163 0.929 . S
C155 N152 1.346 . S
C155 C154 1.369 1_556 S
C155 H158 0.928 1_556 S
C156 N152 1.345 . S
C156 C157 1.371 . S
C156 H159 0.931 . S
C157 C153 1.391 . S
C157 C156 1.371 . S
C157 H164 0.930 . S
H158 C155 0.928 1_554 S
H159 C156 0.931 . S
H160 C136 0.930 . S
H161 C133 0.930 . S
H162 C142 0.930 . S
H163 C154 0.929 . S
H164 C157 0.930 . S
C165 C166 1.351 . S
C165 N168 1.368 . S
C165 H170 0.931 . S
C166 C165 1.351 . S
C166 N167 1.373 . S
C166 H194 0.930 . S
N167 C166 1.373 . S
N167 C169 1.340 . S
N168 C165 1.368 . S
N168 C169 1.321 . S
N168 Co171 2.135 1_554 S
C169 N167 1.340 . S
C169 N168 1.321 . S
C169 H193 0.930 . S
H170 C165 0.931 . S
Co171 N168 2.135 1_556 S
Co171 N174 2.121 . S
Co171 O179 2.055 . S
Co171 O182 2.039 . S
Co171 N185 2.140 . S
C172 O173 1.227 . S
C172 O182 1.265 . S
O173 C172 1.227 . S
N174 Co171 2.121 . S
N174 C176 1.375 . S
N174 C177 1.313 . S
C175 C176 1.338 . S
C175 N178 1.377 . S
C175 H195 0.930 . S
C176 N174 1.375 . S
C176 C175 1.338 . S
C176 H180 0.931 . S
C177 N174 1.313 . S
C177 N178 1.344 . S
C177 H181 0.930 . S
N178 C175 1.377 . S
N178 C177 1.344 . S
O179 Co171 2.055 . S
O179 C183 1.253 . S
H180 C176 0.931 . S
H181 C177 0.930 . S
O182 Co171 2.039 . S
O182 C172 1.265 . S
C183 O179 1.253 . S
C183 O184 1.227 . S
O184 C183 1.227 . S
N185 Co171 2.140 . S
N185 C188 1.346 . S
N185 C189 1.345 . S
C186 C187 1.388 1_556 S
C186 C190 1.391 . S
C187 C186 1.388 1_554 S
C187 C188 1.369 1_554 S
C187 H196 0.929 . S
C188 N185 1.346 . S
C188 C187 1.369 1_556 S
C188 H191 0.928 1_556 S
C189 N185 1.345 . S
C189 C190 1.371 . S
C189 H192 0.931 . S
C190 C186 1.391 . S
C190 C189 1.371 . S
C190 H197 0.930 . S
H191 C188 0.928 1_554 S
H192 C189 0.931 . S
H193 C169 0.930 . S
H194 C166 0.930 . S
H195 C175 0.930 . S
H196 C187 0.929 . S
H197 C190 0.930 . S
C198 C199 1.351 . S
C198 N201 1.368 . S
C198 H203 0.931 . S
C199 C198 1.351 . S
C199 N200 1.373 . S
C199 H227 0.930 . S
N200 C199 1.373 . S
N200 C202 1.340 . S
N201 C198 1.368 . S
N201 C202 1.321 . S
N201 Co204 2.135 . S
C202 N200 1.340 . S
C202 N201 1.321 . S
C202 H226 0.930 . S
H203 C198 0.931 . S
Co204 N201 2.135 . S
Co204 N207 2.121 . S
Co204 O212 2.055 . S
Co204 O215 2.039 . S
Co204 N218 2.140 . S
C205 O206 1.227 . S
C205 O215 1.265 . S
O206 C205 1.227 . S
N207 Co204 2.121 . S
N207 C209 1.375 . S
N207 C210 1.313 . S
C208 C209 1.338 . S
C208 N211 1.377 . S
C208 H228 0.930 . S
C209 N207 1.375 . S
C209 C208 1.338 . S
C209 H213 0.931 . S
C210 N207 1.313 . S
C210 N211 1.344 . S
C210 H214 0.930 . S
N211 C208 1.377 . S
N211 C210 1.344 . S
O212 Co204 2.055 . S
O212 C216 1.253 . S
H213 C209 0.931 . S
H214 C210 0.930 . S
O215 Co204 2.039 . S
O215 C205 1.265 . S
C216 O212 1.253 . S
C216 O217 1.227 . S
O217 C216 1.227 . S
N218 Co204 2.140 . S
N218 C221 1.346 . S
N218 C222 1.345 . S
C219 C220 1.387 . S
C219 C223 1.391 . S
C220 C219 1.387 . S
C220 C221 1.369 . S
C220 H229 0.929 . S
C221 N218 1.346 . S
C221 C220 1.369 . S
C221 H224 0.928 . S
C222 N218 1.345 . S
C222 C223 1.371 . S
C222 H225 0.931 . S
C223 C219 1.391 . S
C223 C222 1.371 . S
C223 H230 0.930 . S
H224 C221 0.928 . S
H225 C222 0.931 . S
H226 C202 0.930 . S
H227 C199 0.930 . S
H228 C208 0.930 . S
H229 C220 0.929 . S
H230 C223 0.930 . S
C231 C232 1.351 . S
C231 N234 1.368 . S
C231 H236 0.931 . S
C232 C231 1.351 . S
C232 N233 1.373 . S
C232 H260 0.930 . S
N233 C232 1.373 . S
N233 C235 1.340 . S
N234 C231 1.368 . S
N234 C235 1.321 . S
N234 Co237 2.135 . S
C235 N233 1.340 . S
C235 N234 1.321 . S
C235 H259 0.930 . S
H236 C231 0.931 . S
Co237 N234 2.135 . S
Co237 N240 2.121 . S
Co237 O245 2.055 . S
Co237 O248 2.039 . S
Co237 N251 2.140 . S
C238 O239 1.227 . S
C238 O248 1.265 . S
O239 C238 1.227 . S
N240 Co237 2.121 . S
N240 C242 1.375 . S
N240 C243 1.313 . S
C241 C242 1.338 . S
C241 N244 1.377 . S
C241 H261 0.930 . S
C242 N240 1.375 . S
C242 C241 1.338 . S
C242 H246 0.931 . S
C243 N240 1.313 . S
C243 N244 1.344 . S
C243 H247 0.930 . S
N244 C241 1.377 . S
N244 C243 1.344 . S
O245 Co237 2.055 . S
O245 C249 1.253 . S
H246 C242 0.931 . S
H247 C243 0.930 . S
O248 Co237 2.039 . S
O248 C238 1.265 . S
C249 O245 1.253 . S
C249 O250 1.227 . S
O250 C249 1.227 . S
N251 Co237 2.140 . S
N251 C254 1.346 . S
N251 C255 1.345 . S
C252 C253 1.387 . S
C252 C256 1.391 . S
C253 C252 1.387 . S
C253 C254 1.369 . S
C253 H262 0.929 . S
C254 N251 1.346 . S
C254 C253 1.369 . S
C254 H257 0.928 . S
C255 N251 1.345 . S
C255 C256 1.371 . S
C255 H258 0.931 . S
C256 C252 1.391 . S
C256 C255 1.371 . S
C256 H263 0.930 . S
H257 C254 0.928 . S
H258 C255 0.931 . S
H259 C235 0.930 . S
H260 C232 0.930 . S
H261 C241 0.930 . S
H262 C253 0.929 . S
H263 C256 0.930 . S
C264 C265 1.351 . S
C264 N267 1.368 . S
C264 H269 0.931 . S
C265 C264 1.351 . S
C265 N266 1.373 . S
C265 H293 0.930 . S
N266 C265 1.373 . S
N266 C268 1.340 . S
N267 C264 1.368 . S
N267 C268 1.321 . S
N267 Co270 2.135 . S
C268 N266 1.340 . S
C268 N267 1.321 . S
C268 H292 0.930 . S
H269 C264 0.931 . S
Co270 N267 2.135 . S
Co270 N273 2.121 . S
Co270 O278 2.055 . S
Co270 O281 2.039 . S
Co270 N284 2.140 . S
C271 O272 1.227 . S
C271 O281 1.265 . S
O272 C271 1.227 . S
N273 Co270 2.121 . S
N273 C275 1.375 . S
N273 C276 1.313 . S
C274 C275 1.338 . S
C274 N277 1.377 . S
C274 H294 0.930 . S
C275 N273 1.375 . S
C275 C274 1.338 . S
C275 H279 0.931 . S
C276 N273 1.313 . S
C276 N277 1.344 . S
C276 H280 0.930 . S
N277 C274 1.377 . S
N277 C276 1.344 . S
O278 Co270 2.055 . S
O278 C282 1.253 . S
H279 C275 0.931 . S
H280 C276 0.930 . S
O281 Co270 2.039 . S
O281 C271 1.265 . S
C282 O278 1.253 . S
C282 O283 1.227 . S
O283 C282 1.227 . S
N284 Co270 2.140 . S
N284 C287 1.346 . S
N284 C288 1.345 . S
C285 C286 1.387 . S
C285 C289 1.391 . S
C286 C285 1.387 . S
C286 C287 1.369 . S
C286 H295 0.929 . S
C287 N284 1.346 . S
C287 C286 1.369 . S
C287 H290 0.928 . S
C288 N284 1.345 . S
C288 C289 1.371 . S
C288 H291 0.931 . S
C289 C285 1.391 . S
C289 C288 1.371 . S
C289 H296 0.930 . S
H290 C287 0.928 . S
H291 C288 0.931 . S
H292 C268 0.930 . S
H293 C265 0.930 . S
H294 C274 0.930 . S
H295 C286 0.929 . S
H296 C289 0.930 . S
C297 C298 1.351 . S
C297 N300 1.368 . S
C297 H302 0.931 . S
C298 C297 1.351 . S
C298 N299 1.373 . S
C298 H326 0.930 . S
N299 C298 1.373 . S
N299 C301 1.340 . S
N300 C297 1.368 . S
N300 C301 1.321 . S
N300 Co303 2.135 . S
C301 N299 1.340 . S
C301 N300 1.321 . S
C301 H325 0.930 . S
H302 C297 0.931 . S
Co303 N300 2.135 . S
Co303 N306 2.121 . S
Co303 O311 2.055 . S
Co303 O314 2.039 . S
Co303 N317 2.140 . S
C304 O305 1.227 . S
C304 O314 1.265 . S
O305 C304 1.227 . S
N306 Co303 2.121 . S
N306 C308 1.375 . S
N306 C309 1.313 1_554 S
C307 C308 1.338 1_556 S
C307 N310 1.377 . S
C307 H327 0.930 . S
C308 N306 1.375 . S
C308 C307 1.338 1_554 S
C308 H312 0.931 . S
C309 N306 1.313 1_556 S
C309 N310 1.344 . S
C309 H313 0.930 . S
N310 C307 1.377 . S
N310 C309 1.344 . S
O311 Co303 2.055 . S
O311 C315 1.253 . S
H312 C308 0.931 . S
H313 C309 0.930 . S
O314 Co303 2.039 . S
O314 C304 1.265 . S
C315 O311 1.253 . S
C315 O316 1.227 . S
O316 C315 1.227 . S
N317 Co303 2.140 . S
N317 C320 1.346 . S
N317 C321 1.345 . S
C318 C319 1.387 . S
C318 C322 1.391 . S
C319 C318 1.387 . S
C319 C320 1.369 . S
C319 H328 0.929 . S
C320 N317 1.346 . S
C320 C319 1.369 . S
C320 H323 0.928 . S
C321 N317 1.345 . S
C321 C322 1.371 . S
C321 H324 0.931 . S
C322 C318 1.391 . S
C322 C321 1.371 . S
C322 H329 0.930 . S
H323 C320 0.928 . S
H324 C321 0.931 . S
H325 C301 0.930 . S
H326 C298 0.930 . S
H327 C307 0.930 . S
H328 C319 0.929 . S
H329 C322 0.930 . S
C330 C331 1.351 . S
C330 N333 1.368 . S
C330 H335 0.931 . S
C331 C330 1.351 . S
C331 N332 1.373 . S
C331 H359 0.930 . S
N332 C331 1.373 . S
N332 C334 1.340 . S
N333 C330 1.368 . S
N333 C334 1.321 . S
N333 Co336 2.135 . S
C334 N332 1.340 . S
C334 N333 1.321 . S
C334 H358 0.930 . S
H335 C330 0.931 . S
Co336 N333 2.135 . S
Co336 N339 2.121 . S
Co336 O344 2.055 . S
Co336 O347 2.039 . S
Co336 N350 2.140 . S
C337 O338 1.227 . S
C337 O347 1.265 . S
O338 C337 1.227 . S
N339 Co336 2.121 . S
N339 C341 1.375 . S
N339 C342 1.313 1_554 S
C340 C341 1.338 1_556 S
C340 N343 1.377 . S
C340 H360 0.930 . S
C341 N339 1.375 . S
C341 C340 1.338 1_554 S
C341 H345 0.931 . S
C342 N339 1.313 1_556 S
C342 N343 1.344 . S
C342 H346 0.930 . S
N343 C340 1.377 . S
N343 C342 1.344 . S
O344 Co336 2.055 . S
O344 C348 1.253 . S
H345 C341 0.931 . S
H346 C342 0.930 . S
O347 Co336 2.039 . S
O347 C337 1.265 . S
C348 O344 1.253 . S
C348 O349 1.227 . S
O349 C348 1.227 . S
N350 Co336 2.140 . S
N350 C353 1.346 . S
N350 C354 1.345 . S
C351 C352 1.387 . S
C351 C355 1.391 . S
C352 C351 1.387 . S
C352 C353 1.369 . S
C352 H361 0.929 . S
C353 N350 1.346 . S
C353 C352 1.369 . S
C353 H356 0.928 . S
C354 N350 1.345 . S
C354 C355 1.371 . S
C354 H357 0.931 . S
C355 C351 1.391 . S
C355 C354 1.371 . S
C355 H362 0.930 . S
H356 C353 0.928 . S
H357 C354 0.931 . S
H358 C334 0.930 . S
H359 C331 0.930 . S
H360 C340 0.930 . S
H361 C352 0.929 . S
H362 C355 0.930 . S
C363 C364 1.351 . S
C363 N366 1.368 . S
C363 H368 0.931 . S
C364 C363 1.351 . S
C364 N365 1.373 . S
C364 H392 0.930 . S
N365 C364 1.373 . S
N365 C367 1.340 . S
N366 C363 1.368 . S
N366 C367 1.321 . S
N366 Co369 2.135 . S
C367 N365 1.340 . S
C367 N366 1.321 . S
C367 H391 0.930 . S
H368 C363 0.931 . S
Co369 N366 2.135 . S
Co369 N372 2.121 . S
Co369 O377 2.055 . S
Co369 O380 2.039 . S
Co369 N383 2.140 . S
C370 O371 1.227 . S
C370 O380 1.265 . S
O371 C370 1.227 . S
N372 Co369 2.121 . S
N372 C374 1.375 . S
N372 C375 1.313 1_554 S
C373 C374 1.338 1_556 S
C373 N376 1.377 . S
C373 H393 0.930 . S
C374 N372 1.375 . S
C374 C373 1.338 1_554 S
C374 H378 0.931 . S
C375 N372 1.313 1_556 S
C375 N376 1.344 . S
C375 H379 0.930 . S
N376 C373 1.377 . S
N376 C375 1.344 . S
O377 Co369 2.055 . S
O377 C381 1.253 . S
H378 C374 0.931 . S
H379 C375 0.930 . S
O380 Co369 2.039 . S
O380 C370 1.265 . S
C381 O377 1.253 . S
C381 O382 1.227 . S
O382 C381 1.227 . S
N383 Co369 2.140 . S
N383 C386 1.346 . S
N383 C387 1.345 . S
C384 C385 1.387 . S
C384 C388 1.391 . S
C385 C384 1.387 . S
C385 C386 1.369 . S
C385 H394 0.929 . S
C386 N383 1.346 . S
C386 C385 1.369 . S
C386 H389 0.928 . S
C387 N383 1.345 . S
C387 C388 1.371 . S
C387 H390 0.931 . S
C388 C384 1.391 . S
C388 C387 1.371 . S
C388 H395 0.930 . S
H389 C386 0.928 . S
H390 C387 0.931 . S
H391 C367 0.930 . S
H392 C364 0.930 . S
H393 C373 0.930 . S
H394 C385 0.929 . S
H395 C388 0.930 . S
C396 C397 1.351 . S
C396 N399 1.368 . S
C396 H401 0.931 . S
C397 C396 1.351 . S
C397 N398 1.373 . S
C397 H425 0.930 . S
N398 C397 1.373 . S
N398 C400 1.340 . S
N399 C396 1.368 . S
N399 C400 1.321 . S
N399 Co402 2.135 . S
C400 N398 1.340 . S
C400 N399 1.321 . S
C400 H424 0.930 . S
H401 C396 0.931 . S
Co402 N399 2.135 . S
Co402 N405 2.121 . S
Co402 O410 2.055 . S
Co402 O413 2.039 . S
Co402 N416 2.140 . S
C403 O404 1.227 . S
C403 O413 1.265 . S
O404 C403 1.227 . S
N405 Co402 2.121 . S
N405 C407 1.375 . S
N405 C408 1.313 1_556 S
C406 C407 1.338 1_554 S
C406 N409 1.377 . S
C406 H426 0.930 . S
C407 N405 1.375 . S
C407 C406 1.338 1_556 S
C407 H411 0.931 . S
C408 N405 1.313 1_554 S
C408 N409 1.344 . S
C408 H412 0.930 . S
N409 C406 1.377 . S
N409 C408 1.344 . S
O410 Co402 2.055 . S
O410 C414 1.253 . S
H411 C407 0.931 . S
H412 C408 0.930 . S
O413 Co402 2.039 . S
O413 C403 1.265 . S
C414 O410 1.253 . S
C414 O415 1.227 . S
O415 C414 1.227 . S
N416 Co402 2.140 . S
N416 C419 1.346 . S
N416 C420 1.345 . S
C417 C418 1.387 . S
C417 C421 1.391 . S
C418 C417 1.387 . S
C418 C419 1.369 . S
C418 H427 0.929 . S
C419 N416 1.346 . S
C419 C418 1.369 . S
C419 H422 0.928 . S
C420 N416 1.345 . S
C420 C421 1.371 . S
C420 H423 0.931 . S
C421 C417 1.391 . S
C421 C420 1.371 . S
C421 H428 0.930 . S
H422 C419 0.928 . S
H423 C420 0.931 . S
H424 C400 0.930 . S
H425 C397 0.930 . S
H426 C406 0.930 . S
H427 C418 0.929 . S
H428 C421 0.930 . S
C429 C430 1.351 . S
C429 N432 1.368 . S
C429 H434 0.931 . S
C430 C429 1.351 . S
C430 N431 1.373 . S
C430 H458 0.930 . S
N431 C430 1.373 . S
N431 C433 1.340 . S
N432 C429 1.368 . S
N432 C433 1.321 . S
N432 Co435 2.135 . S
C433 N431 1.340 . S
C433 N432 1.321 . S
C433 H457 0.930 . S
H434 C429 0.931 . S
Co435 N432 2.135 . S
Co435 N438 2.121 . S
Co435 O443 2.055 . S
Co435 O446 2.039 . S
Co435 N449 2.140 . S
C436 O437 1.227 . S
C436 O446 1.265 . S
O437 C436 1.227 . S
N438 Co435 2.121 . S
N438 C440 1.375 . S
N438 C441 1.313 1_556 S
C439 C440 1.338 1_554 S
C439 N442 1.377 . S
C439 H459 0.930 . S
C440 N438 1.375 . S
C440 C439 1.338 1_556 S
C440 H444 0.931 . S
C441 N438 1.313 1_554 S
C441 N442 1.344 . S
C441 H445 0.930 . S
N442 C439 1.377 . S
N442 C441 1.344 . S
O443 Co435 2.055 . S
O443 C447 1.253 . S
H444 C440 0.931 . S
H445 C441 0.930 . S
O446 Co435 2.039 . S
O446 C436 1.265 . S
C447 O443 1.253 . S
C447 O448 1.227 . S
O448 C447 1.227 . S
N449 Co435 2.140 . S
N449 C452 1.346 . S
N449 C453 1.345 . S
C450 C451 1.387 . S
C450 C454 1.391 . S
C451 C450 1.387 . S
C451 C452 1.369 . S
C451 H460 0.929 . S
C452 N449 1.346 . S
C452 C451 1.369 . S
C452 H455 0.928 . S
C453 N449 1.345 . S
C453 C454 1.371 . S
C453 H456 0.931 . S
C454 C450 1.391 . S
C454 C453 1.371 . S
C454 H461 0.930 . S
H455 C452 0.928 . S
H456 C453 0.931 . S
H457 C433 0.930 . S
H458 C430 0.930 . S
H459 C439 0.930 . S
H460 C451 0.929 . S
H461 C454 0.930 . S
C462 C463 1.351 . S
C462 N465 1.368 . S
C462 H467 0.931 . S
C463 C462 1.351 . S
C463 N464 1.373 . S
C463 H491 0.930 . S
N464 C463 1.373 . S
N464 C466 1.340 . S
N465 C462 1.368 . S
N465 C466 1.321 . S
N465 Co468 2.135 . S
C466 N464 1.340 . S
C466 N465 1.321 . S
C466 H490 0.930 . S
H467 C462 0.931 . S
Co468 N465 2.135 . S
Co468 N471 2.121 . S
Co468 O476 2.055 . S
Co468 O479 2.039 . S
Co468 N482 2.140 . S
C469 O470 1.227 . S
C469 O479 1.265 . S
O470 C469 1.227 . S
N471 Co468 2.121 . S
N471 C473 1.375 . S
N471 C474 1.313 1_556 S
C472 C473 1.338 1_554 S
C472 N475 1.377 . S
C472 H492 0.930 . S
C473 N471 1.375 . S
C473 C472 1.338 1_556 S
C473 H477 0.931 . S
C474 N471 1.313 1_554 S
C474 N475 1.344 . S
C474 H478 0.930 . S
N475 C472 1.377 . S
N475 C474 1.344 . S
O476 Co468 2.055 . S
O476 C480 1.253 . S
H477 C473 0.931 . S
H478 C474 0.930 . S
O479 Co468 2.039 . S
O479 C469 1.265 . S
C480 O476 1.253 . S
C480 O481 1.227 . S
O481 C480 1.227 . S
N482 Co468 2.140 . S
N482 C485 1.346 . S
N482 C486 1.345 . S
C483 C484 1.387 . S
C483 C487 1.391 . S
C484 C483 1.387 . S
C484 C485 1.369 . S
C484 H493 0.929 . S
C485 N482 1.346 . S
C485 C484 1.369 . S
C485 H488 0.928 . S
C486 N482 1.345 . S
C486 C487 1.371 . S
C486 H489 0.931 . S
C487 C483 1.391 . S
C487 C486 1.371 . S
C487 H494 0.930 . S
H488 C485 0.928 . S
H489 C486 0.931 . S
H490 C466 0.930 . S
H491 C463 0.930 . S
H492 C472 0.930 . S
H493 C484 0.929 . S
H494 C487 0.930 . S
C495 C496 1.351 . S
C495 N498 1.368 . S
C495 H500 0.931 . S
C496 C495 1.351 . S
C496 N497 1.373 . S
C496 H524 0.930 . S
N497 C496 1.373 . S
N497 C499 1.340 . S
N498 C495 1.368 . S
N498 C499 1.321 . S
N498 Co501 2.135 . S
C499 N497 1.340 . S
C499 N498 1.321 . S
C499 H523 0.930 . S
H500 C495 0.931 . S
Co501 N498 2.135 . S
Co501 N504 2.121 . S
Co501 O509 2.055 . S
Co501 O512 2.039 . S
Co501 N515 2.140 . S
C502 O503 1.227 . S
C502 O512 1.265 . S
O503 C502 1.227 . S
N504 Co501 2.121 . S
N504 C506 1.375 . S
N504 C507 1.313 . S
C505 C506 1.338 . S
C505 N508 1.377 . S
C505 H525 0.930 . S
C506 N504 1.375 . S
C506 C505 1.338 . S
C506 H510 0.931 . S
C507 N504 1.313 . S
C507 N508 1.344 . S
C507 H511 0.930 . S
N508 C505 1.377 . S
N508 C507 1.344 . S
O509 Co501 2.055 . S
O509 C513 1.253 . S
H510 C506 0.931 . S
H511 C507 0.930 . S
O512 Co501 2.039 . S
O512 C502 1.265 . S
C513 O509 1.253 . S
C513 O514 1.227 . S
O514 C513 1.227 . S
N515 Co501 2.140 . S
N515 C518 1.346 . S
N515 C519 1.345 . S
C516 C517 1.387 . S
C516 C520 1.391 . S
C517 C516 1.387 . S
C517 C518 1.369 . S
C517 H526 0.929 . S
C518 N515 1.346 . S
C518 C517 1.369 . S
C518 H521 0.928 . S
C519 N515 1.345 . S
C519 C520 1.371 . S
C519 H522 0.931 . S
C520 C516 1.391 . S
C520 C519 1.371 . S
C520 H527 0.930 . S
H521 C518 0.928 . S
H522 C519 0.931 . S
H523 C499 0.930 . S
H524 C496 0.930 . S
H525 C505 0.930 . S
H526 C517 0.929 . S
H527 C520 0.930 . S
C528 C529 1.351 . S
C528 N531 1.368 . S
C528 H533 0.931 . S
C529 C528 1.351 . S
C529 N530 1.373 . S
C529 H557 0.930 . S
N530 C529 1.373 . S
N530 C532 1.340 . S
N531 C528 1.368 . S
N531 C532 1.321 . S
N531 Co534 2.135 . S
C532 N530 1.340 . S
C532 N531 1.321 . S
C532 H556 0.930 . S
H533 C528 0.931 . S
Co534 N531 2.135 . S
Co534 N537 2.121 . S
Co534 O542 2.055 . S
Co534 O545 2.039 . S
Co534 N548 2.140 . S
C535 O536 1.227 . S
C535 O545 1.265 . S
O536 C535 1.227 . S
N537 Co534 2.121 . S
N537 C539 1.375 . S
N537 C540 1.313 . S
C538 C539 1.338 . S
C538 N541 1.377 . S
C538 H558 0.930 . S
C539 N537 1.375 . S
C539 C538 1.338 . S
C539 H543 0.931 . S
C540 N537 1.313 . S
C540 N541 1.344 . S
C540 H544 0.930 . S
N541 C538 1.377 . S
N541 C540 1.344 . S
O542 Co534 2.055 . S
O542 C546 1.253 . S
H543 C539 0.931 . S
H544 C540 0.930 . S
O545 Co534 2.039 . S
O545 C535 1.265 . S
C546 O542 1.253 . S
C546 O547 1.227 . S
O547 C546 1.227 . S
N548 Co534 2.140 . S
N548 C551 1.346 . S
N548 C552 1.345 . S
C549 C550 1.387 . S
C549 C553 1.391 . S
C550 C549 1.387 . S
C550 C551 1.369 . S
C550 H559 0.929 . S
C551 N548 1.346 . S
C551 C550 1.369 . S
C551 H554 0.928 . S
C552 N548 1.345 . S
C552 C553 1.371 . S
C552 H555 0.931 . S
C553 C549 1.391 . S
C553 C552 1.371 . S
C553 H560 0.930 . S
H554 C551 0.928 . S
H555 C552 0.931 . S
H556 C532 0.930 . S
H557 C529 0.930 . S
H558 C538 0.930 . S
H559 C550 0.929 . S
H560 C553 0.930 . S
C561 C562 1.351 . S
C561 N564 1.368 . S
C561 H566 0.931 . S
C562 C561 1.351 . S
C562 N563 1.373 . S
C562 H590 0.930 . S
N563 C562 1.373 . S
N563 C565 1.340 . S
N564 C561 1.368 . S
N564 C565 1.321 . S
N564 Co567 2.135 . S
C565 N563 1.340 . S
C565 N564 1.321 . S
C565 H589 0.930 . S
H566 C561 0.931 . S
Co567 N564 2.135 . S
Co567 N570 2.121 . S
Co567 O575 2.055 . S
Co567 O578 2.039 . S
Co567 N581 2.140 . S
C568 O569 1.227 . S
C568 O578 1.265 . S
O569 C568 1.227 . S
N570 Co567 2.121 . S
N570 C572 1.375 . S
N570 C573 1.313 . S
C571 C572 1.338 . S
C571 N574 1.377 . S
C571 H591 0.930 . S
C572 N570 1.375 . S
C572 C571 1.338 . S
C572 H576 0.931 . S
C573 N570 1.313 . S
C573 N574 1.344 . S
C573 H577 0.930 . S
N574 C571 1.377 . S
N574 C573 1.344 . S
O575 Co567 2.055 . S
O575 C579 1.253 . S
H576 C572 0.931 . S
H577 C573 0.930 . S
O578 Co567 2.039 . S
O578 C568 1.265 . S
C579 O575 1.253 . S
C579 O580 1.227 . S
O580 C579 1.227 . S
N581 Co567 2.140 . S
N581 C584 1.346 . S
N581 C585 1.345 . S
C582 C583 1.387 . S
C582 C586 1.391 . S
C583 C582 1.387 . S
C583 C584 1.369 . S
C583 H592 0.929 . S
C584 N581 1.346 . S
C584 C583 1.369 . S
C584 H587 0.928 . S
C585 N581 1.345 . S
C585 C586 1.371 . S
C585 H588 0.931 . S
C586 C582 1.391 . S
C586 C585 1.371 . S
C586 H593 0.930 . S
H587 C584 0.928 . S
H588 C585 0.931 . S
H589 C565 0.930 . S
H590 C562 0.930 . S
H591 C571 0.930 . S
H592 C583 0.929 . S
H593 C586 0.930 . S
C594 C595 1.387 . S
C594 H598 0.950 . S
C594 C603 1.390 . S
C595 C594 1.387 . S
C595 C597 1.387 . S
H596 C603 0.950 . S
C597 C595 1.387 . S
C597 C599 1.390 . S
C597 H601 0.950 . S
H598 C594 0.950 . S
C599 C597 1.390 . S
C599 C600 1.387 . S
C599 H602 0.950 . S
C600 C599 1.387 . S
C600 C603 1.387 . S
H601 C597 0.950 . S
H602 C599 0.950 . S
C603 C594 1.390 . S
C603 H596 0.950 . S
C603 C600 1.387 . S
C604 C605 1.387 . S
C604 H608 0.950 . S
C604 C613 1.390 . S
C605 C604 1.387 . S
C605 C607 1.387 . S
H606 C613 0.950 . S
C607 C605 1.387 . S
C607 C609 1.390 . S
C607 H611 0.950 . S
H608 C604 0.950 . S
C609 C607 1.390 . S
C609 C610 1.387 . S
C609 H612 0.950 . S
C610 C609 1.387 . S
C610 C613 1.387 . S
H611 C607 0.950 . S
H612 C609 0.950 . S
C613 C604 1.390 . S
C613 H606 0.950 . S
C613 C610 1.387 . S
C614 C615 1.387 . S
C614 H618 0.950 . S
C614 C623 1.390 . S
C615 C614 1.387 . S
C615 C617 1.387 . S
H616 C623 0.950 . S
C617 C615 1.387 . S
C617 C619 1.390 . S
C617 H621 0.950 . S
H618 C614 0.950 . S
C619 C617 1.390 . S
C619 C620 1.387 . S
C619 H622 0.950 . S
C620 C619 1.387 . S
C620 C623 1.387 . S
H621 C617 0.950 . S
H622 C619 0.950 . S
C623 C614 1.390 . S
C623 H616 0.950 . S
C623 C620 1.387 . S
C624 C625 1.387 . S
C624 H628 0.950 . S
C624 C633 1.390 . S
C625 C624 1.387 . S
C625 C627 1.387 . S
H626 C633 0.950 . S
C627 C625 1.387 . S
C627 C629 1.390 . S
C627 H631 0.950 . S
H628 C624 0.950 . S
C629 C627 1.390 . S
C629 C630 1.387 . S
C629 H632 0.950 . S
C630 C629 1.387 . S
C630 C633 1.387 . S
H631 C627 0.950 . S
H632 C629 0.950 . S
C633 C624 1.390 . S
C633 H626 0.950 . S
C633 C630 1.387 . S
C634 C635 1.387 . S
C634 H638 0.950 . S
C634 C643 1.390 . S
C635 C634 1.387 . S
C635 C637 1.387 . S
H636 C643 0.950 . S
C637 C635 1.387 . S
C637 C639 1.390 . S
C637 H641 0.950 . S
H638 C634 0.950 . S
C639 C637 1.390 . S
C639 C640 1.387 . S
C639 H642 0.950 . S
C640 C639 1.387 . S
C640 C643 1.387 . S
H641 C637 0.950 . S
H642 C639 0.950 . S
C643 C634 1.390 . S
C643 H636 0.950 . S
C643 C640 1.387 . S
C644 C645 1.387 . S
C644 H648 0.950 . S
C644 C653 1.390 . S
C645 C644 1.387 . S
C645 C647 1.387 . S
H646 C653 0.950 . S
C647 C645 1.387 . S
C647 C649 1.390 . S
C647 H651 0.950 . S
H648 C644 0.950 . S
C649 C647 1.390 . S
C649 C650 1.387 . S
C649 H652 0.950 . S
C650 C649 1.387 . S
C650 C653 1.387 . S
H651 C647 0.950 . S
H652 C649 0.950 . S
C653 C644 1.390 . S
C653 H646 0.950 . S
C653 C650 1.387 . S
C654 C655 1.387 1_556 S
C654 H658 0.950 1_556 S
C654 C663 1.390 . S
C655 C654 1.387 1_554 S
C655 C657 1.387 . S
H656 C663 0.950 . S
C657 C655 1.387 . S
C657 C659 1.390 1_554 S
C657 H661 0.950 . S
H658 C654 0.950 1_554 S
C659 C657 1.390 1_556 S
C659 C660 1.387 . S
C659 H662 0.950 . S
C660 C659 1.387 . S
C660 C663 1.387 . S
H661 C657 0.950 . S
H662 C659 0.950 . S
C663 C654 1.390 . S
C663 H656 0.950 . S
C663 C660 1.387 . S
C664 C665 1.387 . S
C664 H668 0.950 . S
C664 C673 1.390 1_554 S
C665 C664 1.387 . S
C665 C667 1.387 1_554 S
H666 C673 0.950 . S
C667 C665 1.387 1_556 S
C667 C669 1.390 . S
C667 H671 0.950 1_556 S
H668 C664 0.950 . S
C669 C667 1.390 . S
C669 C670 1.387 . S
C669 H672 0.950 . S
C670 C669 1.387 . S
C670 C673 1.387 . S
H671 C667 0.950 1_554 S
H672 C669 0.950 . S
C673 C664 1.390 1_556 S
C673 H666 0.950 . S
C673 C670 1.387 . S
C674 C675 1.387 . S
C674 H678 0.950 . S
C674 C683 1.390 . S
C675 C674 1.387 . S
C675 C677 1.387 . S
H676 C683 0.950 1_554 S
C677 C675 1.387 . S
C677 C679 1.390 1_556 S
C677 H681 0.950 . S
H678 C674 0.950 . S
C679 C677 1.390 1_554 S
C679 C680 1.387 . S
C679 H682 0.950 . S
C680 C679 1.387 . S
C680 C683 1.387 1_554 S
H681 C677 0.950 . S
H682 C679 0.950 . S
C683 C674 1.390 . S
C683 H676 0.950 1_556 S
C683 C680 1.387 1_556 S
C684 C685 1.387 . S
C684 H688 0.950 . S
C684 C693 1.390 . S
C685 C684 1.387 . S
C685 C687 1.387 . S
H686 C693 0.950 . S
C687 C685 1.387 . S
C687 C689 1.390 . S
C687 H691 0.950 . S
H688 C684 0.950 . S
C689 C687 1.390 . S
C689 C690 1.387 . S
C689 H692 0.950 . S
C690 C689 1.387 . S
C690 C693 1.387 . S
H691 C687 0.950 . S
H692 C689 0.950 . S
C693 C684 1.390 . S
C693 H686 0.950 . S
C693 C690 1.387 . S
C694 C695 1.387 . S
C694 H698 0.950 . S
C694 C703 1.390 . S
C695 C694 1.387 . S
C695 C697 1.387 . S
H696 C703 0.950 . S
C697 C695 1.387 . S
C697 C699 1.390 . S
C697 H701 0.950 . S
H698 C694 0.950 . S
C699 C697 1.390 . S
C699 C700 1.387 . S
C699 H702 0.950 . S
C700 C699 1.387 . S
C700 C703 1.387 . S
H701 C697 0.950 . S
H702 C699 0.950 . S
C703 C694 1.390 . S
C703 H696 0.950 . S
C703 C700 1.387 . S
C704 C705 1.387 . S
C704 H708 0.950 . S
C704 C713 1.390 . S
C705 C704 1.387 . S
C705 C707 1.387 . S
H706 C713 0.950 . S
C707 C705 1.387 . S
C707 C709 1.390 . S
C707 H711 0.950 . S
H708 C704 0.950 . S
C709 C707 1.390 . S
C709 C710 1.387 . S
C709 H712 0.950 . S
C710 C709 1.387 . S
C710 C713 1.387 . S
H711 C707 0.950 . S
H712 C709 0.950 . S
C713 C704 1.390 . S
C713 H706 0.950 . S
C713 C710 1.387 . S
C714 C715 1.387 . S
C714 H718 0.950 . S
C714 C723 1.390 . S
C715 C714 1.387 . S
C715 C717 1.387 . S
H716 C723 0.950 . S
C717 C715 1.387 . S
C717 C719 1.390 . S
C717 H721 0.950 . S
H718 C714 0.950 . S
C719 C717 1.390 . S
C719 C720 1.387 . S
C719 H722 0.950 . S
C720 C719 1.387 . S
C720 C723 1.387 . S
H721 C717 0.950 . S
H722 C719 0.950 . S
C723 C714 1.390 . S
C723 H716 0.950 . S
C723 C720 1.387 . S
C724 C725 1.387 . S
C724 H728 0.950 . S
C724 C733 1.390 . S
C725 C724 1.387 . S
C725 C727 1.387 . S
H726 C733 0.950 . S
C727 C725 1.387 . S
C727 C729 1.390 . S
C727 H731 0.950 . S
H728 C724 0.950 . S
C729 C727 1.390 . S
C729 C730 1.387 . S
C729 H732 0.950 . S
C730 C729 1.387 . S
C730 C733 1.387 . S
H731 C727 0.950 . S
H732 C729 0.950 . S
C733 C724 1.390 . S
C733 H726 0.950 . S
C733 C730 1.387 . S
C734 C735 1.387 . S
C734 H738 0.950 . S
C734 C743 1.390 . S
C735 C734 1.387 . S
C735 C737 1.387 . S
H736 C743 0.950 . S
C737 C735 1.387 . S
C737 C739 1.390 . S
C737 H741 0.950 . S
H738 C734 0.950 . S
C739 C737 1.390 . S
C739 C740 1.387 . S
C739 H742 0.950 . S
C740 C739 1.387 . S
C740 C743 1.387 . S
H741 C737 0.950 . S
H742 C739 0.950 . S
C743 C734 1.390 . S
C743 H736 0.950 . S
C743 C740 1.387 . S
C744 C745 1.387 . S
C744 H748 0.950 . S
C744 C753 1.390 . S
C745 C744 1.387 . S
C745 C747 1.387 . S
H746 C753 0.950 . S
C747 C745 1.387 . S
C747 C749 1.390 1_554 S
C747 H751 0.950 . S
H748 C744 0.950 . S
C749 C747 1.390 1_556 S
C749 C750 1.387 . S
C749 H752 0.950 . S
C750 C749 1.387 . S
C750 C753 1.387 1_556 S
H751 C747 0.950 . S
H752 C749 0.950 . S
C753 C744 1.390 . S
C753 H746 0.950 . S
C753 C750 1.387 1_554 S
C754 C755 1.387 . S
C754 H758 0.950 . S
C754 C763 1.390 . S
C755 C754 1.387 . S
C755 C757 1.387 . S
H756 C763 0.950 1_556 S
C757 C755 1.387 . S
C757 C759 1.390 1_554 S
C757 H761 0.950 . S
H758 C754 0.950 . S
C759 C757 1.390 1_556 S
C759 C760 1.387 . S
C759 H762 0.950 . S
C760 C759 1.387 . S
C760 C763 1.387 1_556 S
H761 C757 0.950 . S
H762 C759 0.950 . S
C763 C754 1.390 . S
C763 H756 0.950 1_554 S
C763 C760 1.387 1_554 S
C764 C765 1.387 . S
C764 H768 0.950 . S
C764 C773 1.390 1_556 S
C765 C764 1.387 . S
C765 C767 1.387 1_556 S
H766 C773 0.950 . S
C767 C765 1.387 1_554 S
C767 C769 1.390 . S
C767 H771 0.950 1_554 S
H768 C764 0.950 . S
C769 C767 1.390 . S
C769 C770 1.387 . S
C769 H772 0.950 . S
C770 C769 1.387 . S
C770 C773 1.387 . S
H771 C767 0.950 1_556 S
H772 C769 0.950 . S
C773 C764 1.390 1_554 S
C773 H766 0.950 . S
C773 C770 1.387 . S
C774 C775 1.387 . S
C774 H778 0.950 . S
C774 C783 1.390 . S
C775 C774 1.387 . S
C775 C777 1.387 . S
H776 C783 0.950 . S
C777 C775 1.387 . S
C777 C779 1.390 . S
C777 H781 0.950 . S
H778 C774 0.950 . S
C779 C777 1.390 . S
C779 C780 1.387 . S
C779 H782 0.950 . S
C780 C779 1.387 . S
C780 C783 1.387 . S
H781 C777 0.950 . S
H782 C779 0.950 . S
C783 C774 1.390 . S
C783 H776 0.950 . S
C783 C780 1.387 . S
C784 C785 1.387 . S
C784 H788 0.950 . S
C784 C793 1.390 . S
C785 C784 1.387 . S
C785 C787 1.387 . S
H786 C793 0.950 . S
C787 C785 1.387 . S
C787 C789 1.390 . S
C787 H791 0.950 . S
H788 C784 0.950 . S
C789 C787 1.390 . S
C789 C790 1.387 . S
C789 H792 0.950 . S
C790 C789 1.387 . S
C790 C793 1.387 . S
H791 C787 0.950 . S
H792 C789 0.950 . S
C793 C784 1.390 . S
C793 H786 0.950 . S
C793 C790 1.387 . S
C794 C795 1.387 . S
C794 H798 0.950 . S
C794 C803 1.390 . S
C795 C794 1.387 . S
C795 C797 1.387 . S
H796 C803 0.950 . S
C797 C795 1.387 . S
C797 C799 1.390 . S
C797 H801 0.950 . S
H798 C794 0.950 . S
C799 C797 1.390 . S
C799 C800 1.387 . S
C799 H802 0.950 . S
C800 C799 1.387 . S
C800 C803 1.387 . S
H801 C797 0.950 . S
H802 C799 0.950 . S
C803 C794 1.390 . S
C803 H796 0.950 . S
C803 C800 1.387 . S
C804 C805 1.387 . S
C804 H808 0.950 . S
C804 C813 1.390 . S
C805 C804 1.387 . S
C805 C807 1.387 . S
H806 C813 0.950 . S
C807 C805 1.387 . S
C807 C809 1.390 . S
C807 H811 0.950 . S
H808 C804 0.950 . S
C809 C807 1.390 . S
C809 C810 1.387 . S
C809 H812 0.950 . S
C810 C809 1.387 . S
C810 C813 1.387 . S
H811 C807 0.950 . S
H812 C809 0.950 . S
C813 C804 1.390 . S
C813 H806 0.950 . S
C813 C810 1.387 . S
C814 C815 1.387 . S
C814 H818 0.950 . S
C814 C823 1.390 . S
C815 C814 1.387 . S
C815 C817 1.387 . S
H816 C823 0.950 . S
C817 C815 1.387 . S
C817 C819 1.390 . S
C817 H821 0.950 . S
H818 C814 0.950 . S
C819 C817 1.390 . S
C819 C820 1.387 . S
C819 H822 0.950 . S
C820 C819 1.387 . S
C820 C823 1.387 . S
H821 C817 0.950 . S
H822 C819 0.950 . S
C823 C814 1.390 . S
C823 H816 0.950 . S
C823 C820 1.387 . S
C824 C825 1.387 . S
C824 H828 0.950 . S
C824 C833 1.390 . S
C825 C824 1.387 . S
C825 C827 1.387 . S
H826 C833 0.950 . S
C827 C825 1.387 . S
C827 C829 1.390 . S
C827 H831 0.950 . S
H828 C824 0.950 . S
C829 C827 1.390 . S
C829 C830 1.387 . S
C829 H832 0.950 . S
C830 C829 1.387 . S
C830 C833 1.387 . S
H831 C827 0.950 . S
H832 C829 0.950 . S
C833 C824 1.390 . S
C833 H826 0.950 . S
C833 C830 1.387 . S
C834 C835 1.387 1_455 S
C834 H838 0.950 . S
C834 C843 1.390 . S
C835 C834 1.387 1_655 S
C835 C837 1.387 1_554 S
H836 C843 0.950 . S
C837 C835 1.387 1_556 S
C837 C839 1.390 . S
C837 H841 0.950 . S
H838 C834 0.950 . S
C839 C837 1.390 . S
C839 C840 1.387 1_655 S
C839 H842 0.950 . S
C840 C839 1.387 1_455 S
C840 C843 1.387 1_556 S
H841 C837 0.950 . S
H842 C839 0.950 . S
C843 C834 1.390 . S
C843 H836 0.950 . S
C843 C840 1.387 1_554 S
C844 C845 1.387 . S
C844 H848 0.950 . S
C844 C853 1.390 1_556 S
C845 C844 1.387 . S
C845 C847 1.387 . S
H846 C853 0.950 . S
C847 C845 1.387 . S
C847 C849 1.390 1_556 S
C847 H851 0.950 . S
H848 C844 0.950 . S
C849 C847 1.390 1_554 S
C849 C850 1.387 . S
C849 H852 0.950 . S
C850 C849 1.387 . S
C850 C853 1.387 . S
H851 C847 0.950 . S
H852 C849 0.950 . S
C853 C844 1.390 1_554 S
C853 H846 0.950 . S
C853 C850 1.387 . S
C854 C855 1.387 . S
C854 H858 0.950 . S
C854 C863 1.390 1_544 S
C855 C854 1.387 . S
C855 C857 1.387 . S
H856 C863 0.950 . S
C857 C855 1.387 . S
C857 C859 1.390 1_544 S
C857 H861 0.950 . S
H858 C854 0.950 . S
C859 C857 1.390 1_566 S
C859 C860 1.387 . S
C859 H862 0.950 . S
C860 C859 1.387 . S
C860 C863 1.387 . S
H861 C857 0.950 . S
H862 C859 0.950 . S
C863 C854 1.390 1_566 S
C863 H856 0.950 . S
C863 C860 1.387 . S
C864 C865 1.387 1_556 S
C864 H868 0.950 . S
C864 C873 1.390 . S
C865 C864 1.387 1_554 S
C865 C867 1.387 . S
H866 C873 0.950 . S
C867 C865 1.387 . S
C867 C869 1.390 . S
C867 H871 0.950 . S
H868 C864 0.950 . S
C869 C867 1.390 . S
C869 C870 1.387 1_554 S
C869 H872 0.950 . S
C870 C869 1.387 1_556 S
C870 C873 1.387 . S
H871 C867 0.950 . S
H872 C869 0.950 . S
C873 C864 1.390 . S
C873 H866 0.950 . S
C873 C870 1.387 . S
C874 C875 1.387 . S
C874 H878 0.950 . S
C874 C883 1.390 1_564 S
C875 C874 1.387 . S
C875 C877 1.387 . S
H876 C883 0.950 . S
C877 C875 1.387 . S
C877 C879 1.390 1_564 S
C877 H881 0.950 . S
H878 C874 0.950 . S
C879 C877 1.390 1_546 S
C879 C880 1.387 . S
C879 H882 0.950 . S
C880 C879 1.387 . S
C880 C883 1.387 . S
H881 C877 0.950 . S
H882 C879 0.950 . S
C883 C874 1.390 1_546 S
C883 H876 0.950 . S
C883 C880 1.387 . S
C884 C885 1.387 1_554 S
C884 H888 0.950 . S
C884 C893 1.390 1_655 S
C885 C884 1.387 1_556 S
C885 C887 1.387 . S
H886 C893 0.950 . S
C887 C885 1.387 . S
C887 C889 1.390 1_655 S
C887 H891 0.950 . S
H888 C884 0.950 . S
C889 C887 1.390 1_455 S
C889 C890 1.387 1_556 S
C889 H892 0.950 . S
C890 C889 1.387 1_554 S
C890 C893 1.387 . S
H891 C887 0.950 . S
H892 C889 0.950 . S
C893 C884 1.390 1_455 S
C893 H886 0.950 . S
C893 C890 1.387 . S
C894 C895 1.387 1_554 S
C894 H898 0.950 . S
C894 C903 1.390 . S
C895 C894 1.387 1_556 S
C895 C897 1.387 . S
H896 C903 0.950 . S
C897 C895 1.387 . S
C897 C899 1.390 . S
C897 H901 0.950 . S
H898 C894 0.950 . S
C899 C897 1.390 . S
C899 C900 1.387 1_556 S
C899 H902 0.950 . S
C900 C899 1.387 1_554 S
C900 C903 1.387 . S
H901 C897 0.950 . S
H902 C899 0.950 . S
C903 C894 1.390 . S
C903 H896 0.950 . S
C903 C900 1.387 . S
C904 C905 1.387 . S
C904 H908 0.950 . S
C904 C913 1.390 1_546 S
C905 C904 1.387 . S
C905 C907 1.387 . S
H906 C913 0.950 . S
C907 C905 1.387 . S
C907 C909 1.390 1_546 S
C907 H911 0.950 . S
H908 C904 0.950 . S
C909 C907 1.390 1_564 S
C909 C910 1.387 . S
C909 H912 0.950 . S
C910 C909 1.387 . S
C910 C913 1.387 . S
H911 C907 0.950 . S
H912 C909 0.950 . S
C913 C904 1.390 1_564 S
C913 H906 0.950 . S
C913 C910 1.387 . S
C914 C915 1.387 . S
C914 H918 0.950 . S
C914 C923 1.390 1_655 S
C915 C914 1.387 . S
C915 C917 1.387 1_556 S
H916 C923 0.950 . S
C917 C915 1.387 1_554 S
C917 C919 1.390 1_655 S
C917 H921 0.950 . S
H918 C914 0.950 . S
C919 C917 1.390 1_455 S
C919 C920 1.387 . S
C919 H922 0.950 . S
C920 C919 1.387 . S
C920 C923 1.387 1_554 S
H921 C917 0.950 . S
H922 C919 0.950 . S
C923 C914 1.390 1_455 S
C923 H916 0.950 . S
C923 C920 1.387 1_556 S
C924 C925 1.387 . S
C924 H928 0.950 . S
C924 C933 1.390 . S
C925 C924 1.387 . S
C925 C927 1.387 . S
H926 C933 0.950 . S
C927 C925 1.387 . S
C927 C929 1.390 . S
C927 H931 0.950 . S
H928 C924 0.950 . S
C929 C927 1.390 . S
C929 C930 1.387 . S
C929 H932 0.950 . S
C930 C929 1.387 . S
C930 C933 1.387 . S
H931 C927 0.950 . S
H932 C929 0.950 . S
C933 C924 1.390 . S
C933 H926 0.950 . S
C933 C930 1.387 . S
C934 C935 1.387 . S
C934 H938 0.950 . S
C934 C943 1.390 . S
C935 C934 1.387 . S
C935 C937 1.387 . S
H936 C943 0.950 . S
C937 C935 1.387 . S
C937 C939 1.390 . S
C937 H941 0.950 . S
H938 C934 0.950 . S
C939 C937 1.390 . S
C939 C940 1.387 . S
C939 H942 0.950 . S
C940 C939 1.387 . S
C940 C943 1.387 . S
H941 C937 0.950 . S
H942 C939 0.950 . S
C943 C934 1.390 . S
C943 H936 0.950 . S
C943 C940 1.387 . S
C944 C945 1.387 . S
C944 H948 0.950 . S
C944 C953 1.390 . S
C945 C944 1.387 . S
C945 C947 1.387 . S
H946 C953 0.950 . S
C947 C945 1.387 . S
C947 C949 1.390 . S
C947 H951 0.950 . S
H948 C944 0.950 . S
C949 C947 1.390 . S
C949 C950 1.387 . S
C949 H952 0.950 . S
C950 C949 1.387 . S
C950 C953 1.387 . S
H951 C947 0.950 . S
H952 C949 0.950 . S
C953 C944 1.390 . S
C953 H946 0.950 . S
C953 C950 1.387 . S
C954 C955 1.387 . S
C954 H958 0.950 . S
C954 C963 1.390 . S
C955 C954 1.387 . S
C955 C957 1.387 . S
H956 C963 0.950 . S
C957 C955 1.387 . S
C957 C959 1.390 . S
C957 H961 0.950 . S
H958 C954 0.950 . S
C959 C957 1.390 . S
C959 C960 1.387 . S
C959 H962 0.950 . S
C960 C959 1.387 . S
C960 C963 1.387 . S
H961 C957 0.950 . S
H962 C959 0.950 . S
C963 C954 1.390 . S
C963 H956 0.950 . S
C963 C960 1.387 . S
C964 C965 1.387 . S
C964 H968 0.950 . S
C964 C973 1.390 . S
C965 C964 1.387 . S
C965 C967 1.387 . S
H966 C973 0.950 . S
C967 C965 1.387 . S
C967 C969 1.390 . S
C967 H971 0.950 . S
H968 C964 0.950 . S
C969 C967 1.390 . S
C969 C970 1.387 . S
C969 H972 0.950 . S
C970 C969 1.387 . S
C970 C973 1.387 . S
H971 C967 0.950 . S
H972 C969 0.950 . S
C973 C964 1.390 . S
C973 H966 0.950 . S
C973 C970 1.387 . S
C974 C975 1.387 . S
C974 H978 0.950 . S
C974 C983 1.390 . S
C975 C974 1.387 . S
C975 C977 1.387 . S
H976 C983 0.950 . S
C977 C975 1.387 . S
C977 C979 1.390 . S
C977 H981 0.950 . S
H978 C974 0.950 . S
C979 C977 1.390 . S
C979 C980 1.387 . S
C979 H982 0.950 . S
C980 C979 1.387 . S
C980 C983 1.387 . S
H981 C977 0.950 . S
H982 C979 0.950 . S
C983 C974 1.390 . S
C983 H976 0.950 . S
C983 C980 1.387 . S
C984 C985 1.387 . S
C984 H988 0.950 . S
C984 C993 1.390 . S
C985 C984 1.387 . S
C985 C987 1.387 . S
H986 C993 0.950 . S
C987 C985 1.387 . S
C987 C989 1.390 . S
C987 H991 0.950 . S
H988 C984 0.950 . S
C989 C987 1.390 . S
C989 C990 1.387 . S
C989 H992 0.950 . S
C990 C989 1.387 . S
C990 C993 1.387 . S
H991 C987 0.950 . S
H992 C989 0.950 . S
C993 C984 1.390 . S
C993 H986 0.950 . S
C993 C990 1.387 . S
C994 C995 1.387 . S
C994 H998 0.950 . S
C994 C1003 1.390 . S
C995 C994 1.387 . S
C995 C997 1.387 . S
H996 C1003 0.950 . S
C997 C995 1.387 . S
C997 C999 1.390 . S
C997 H1001 0.950 . S
H998 C994 0.950 . S
C999 C997 1.390 . S
C999 C1000 1.387 . S
C999 H1002 0.950 . S
C1000 C999 1.387 . S
C1000 C1003 1.387 . S
H1001 C997 0.950 . S
H1002 C999 0.950 . S
C1003 C994 1.390 . S
C1003 H996 0.950 . S
C1003 C1000 1.387 . S
C1004 C1005 1.387 . S
C1004 H1008 0.950 . S
C1004 C1013 1.390 . S
C1005 C1004 1.387 . S
C1005 C1007 1.387 . S
H1006 C1013 0.950 . S
C1007 C1005 1.387 . S
C1007 C1009 1.390 . S
C1007 H1011 0.950 . S
H1008 C1004 0.950 . S
C1009 C1007 1.390 . S
C1009 C1010 1.387 . S
C1009 H1012 0.950 . S
C1010 C1009 1.387 . S
C1010 C1013 1.387 . S
H1011 C1007 0.950 . S
H1012 C1009 0.950 . S
C1013 C1004 1.390 . S
C1013 H1006 0.950 . S
C1013 C1010 1.387 . S
C1014 C1015 1.387 . S
C1014 H1018 0.950 . S
C1014 C1023 1.390 . S
C1015 C1014 1.387 . S
C1015 C1017 1.387 . S
H1016 C1023 0.950 . S
C1017 C1015 1.387 . S
C1017 C1019 1.390 . S
C1017 H1021 0.950 . S
H1018 C1014 0.950 . S
C1019 C1017 1.390 . S
C1019 C1020 1.387 . S
C1019 H1022 0.950 . S
C1020 C1019 1.387 . S
C1020 C1023 1.387 . S
H1021 C1017 0.950 . S
H1022 C1019 0.950 . S
C1023 C1014 1.390 . S
C1023 H1016 0.950 . S
C1023 C1020 1.387 . S
C1024 C1025 1.387 . S
C1024 H1028 0.950 . S
C1024 C1033 1.390 . S
C1025 C1024 1.387 . S
C1025 C1027 1.387 . S
H1026 C1033 0.950 . S
C1027 C1025 1.387 . S
C1027 C1029 1.390 . S
C1027 H1031 0.950 . S
H1028 C1024 0.950 . S
C1029 C1027 1.390 . S
C1029 C1030 1.387 . S
C1029 H1032 0.950 . S
C1030 C1029 1.387 . S
C1030 C1033 1.387 . S
H1031 C1027 0.950 . S
H1032 C1029 0.950 . S
C1033 C1024 1.390 . S
C1033 H1026 0.950 . S
C1033 C1030 1.387 . S
C1034 C1035 1.387 . S
C1034 H1038 0.950 . S
C1034 C1043 1.390 . S
C1035 C1034 1.387 . S
C1035 C1037 1.387 . S
H1036 C1043 0.950 . S
C1037 C1035 1.387 . S
C1037 C1039 1.390 . S
C1037 H1041 0.950 . S
H1038 C1034 0.950 . S
C1039 C1037 1.390 . S
C1039 C1040 1.387 . S
C1039 H1042 0.950 . S
C1040 C1039 1.387 . S
C1040 C1043 1.387 . S
H1041 C1037 0.950 . S
H1042 C1039 0.950 . S
C1043 C1034 1.390 . S
C1043 H1036 0.950 . S
C1043 C1040 1.387 . S
C595 N13 1.272 . S
C600 N2 1.273 . S
C605 N46 1.272 . S
C610 N35 1.272 . S
C615 N68 1.273 . S
C620 N79 1.272 . S
C625 N112 1.273 . S
C630 N101 1.273 . S
C635 N145 1.273 . S
C640 N134 1.274 . S
C645 N167 1.273 . S
C650 N178 1.273 . S
C655 N200 1.273 . S
C660 N211 1.273 . S
C665 N233 1.274 . S
C670 N244 1.273 . S
C675 N277 1.272 . S
C680 N266 1.273 . S
C685 N310 1.272 . S
C690 N299 1.273 . S
C695 N343 1.272 . S
C700 N332 1.273 . S
C705 N365 1.273 . S
C710 N376 1.272 . S
C715 N398 1.272 . S
C720 N409 1.272 . S
C725 N431 1.272 . S
C730 N442 1.272 . S
C735 N464 1.273 . S
C740 N475 1.272 . S
C745 N508 1.272 . S
C750 N497 1.272 . S
C755 N541 1.273 . S
C760 N530 1.273 . S
C765 N563 1.273 . S
C770 N574 1.273 . S
C775 C579 1.640 . S
C780 C18 1.640 . S
C785 C51 1.640 . S
C790 C513 1.640 . S
C795 C546 1.640 . S
C800 C84 1.640 . S
C805 C249 1.640 . S
C810 C117 1.640 . S
C815 C150 1.640 . S
C820 C282 1.640 . S
C825 C183 1.641 . S
C830 C216 1.641 . S
C835 C315 1.638 . S
C840 C447 1.638 . S
C845 C480 1.638 . S
C850 C348 1.637 . S
C855 C381 1.640 . S
C860 C414 1.640 . S
C865 C7 1.504 . S
C870 C106 1.504 . S
C875 C40 1.504 . S
C880 C139 1.504 . S
C885 C172 1.504 . S
C890 C73 1.504 . S
C895 C186 1.555 . S
C900 C54 1.555 . S
C905 C120 1.553 . S
C910 C87 1.553 . S
C915 C153 1.555 . S
C920 C21 1.555 . S
C925 C304 1.505 . S
C930 C205 1.504 . S
C935 C337 1.504 . S
C940 C238 1.504 . S
C945 C271 1.505 . S
C950 C370 1.505 . S
C955 C384 1.554 . S
C960 C252 1.554 . S
C965 C285 1.555 . S
C970 C318 1.555 . S
C975 C219 1.555 . S
C980 C351 1.555 . S
C985 C502 1.506 . S
C990 C403 1.505 . S
C995 C535 1.505 . S
C1000 C436 1.505 . S
C1005 C568 1.505 . S
C1010 C469 1.505 . S
C1015 C450 1.554 . S
C1020 C582 1.554 . S
C1025 C483 1.555 . S
C1030 C516 1.555 . S
C1035 C549 1.554 . S
C1040 C417 1.554 . S
