# Generated by pormake.
# Topology fny, (5)-cn, num edge types: 1
# Building blocks:
#     Node 0, Type 0, BuildingBlock: XOMCOT_clean_sbu_0, # of connection points: 5
#     Node 1, Type 0, BuildingBlock: XOMCOT_clean_sbu_0, # of connection points: 5
#     Node 2, Type 0, BuildingBlock: XOMCOT_clean_sbu_0, # of connection points: 5
#     Node 3, Type 0, BuildingBlock: XOMCOT_clean_sbu_0, # of connection points: 5
#     Node 4, Type 0, BuildingBlock: XOMCOT_clean_sbu_0, # of connection points: 5
#     Node 5, Type 0, BuildingBlock: XOMCOT_clean_sbu_0, # of connection points: 5
#     Node 6, Type 0, BuildingBlock: XOMCOT_clean_sbu_0, # of connection points: 5
#     Node 7, Type 0, BuildingBlock: XOMCOT_clean_sbu_0, # of connection points: 5
#     Node 8, Type 0, BuildingBlock: XOMCOT_clean_sbu_0, # of connection points: 5
#     Node 9, Type 0, BuildingBlock: XOMCOT_clean_sbu_0, # of connection points: 5
#     Node 10, Type 0, BuildingBlock: XOMCOT_clean_sbu_0, # of connection points: 5
#     Node 11, Type 0, BuildingBlock: XOMCOT_clean_sbu_0, # of connection points: 5
#     Edge 12, Type (0, 0), BuildingBlock: KIFKEQ_clean_linker_1, # of connection points: 2
#     Edge 13, Type (0, 0), BuildingBlock: KIFKEQ_clean_linker_1, # of connection points: 2
#     Edge 14, Type (0, 0), BuildingBlock: KIFKEQ_clean_linker_1, # of connection points: 2
#     Edge 15, Type (0, 0), BuildingBlock: KIFKEQ_clean_linker_1, # of connection points: 2
#     Edge 16, Type (0, 0), BuildingBlock: KIFKEQ_clean_linker_1, # of connection points: 2
#     Edge 17, Type (0, 0), BuildingBlock: KIFKEQ_clean_linker_1, # of connection points: 2
#     Edge 18, Type (0, 0), BuildingBlock: KIFKEQ_clean_linker_1, # of connection points: 2
#     Edge 19, Type (0, 0), BuildingBlock: KIFKEQ_clean_linker_1, # of connection points: 2
#     Edge 20, Type (0, 0), BuildingBlock: KIFKEQ_clean_linker_1, # of connection points: 2
#     Edge 21, Type (0, 0), BuildingBlock: KIFKEQ_clean_linker_1, # of connection points: 2
#     Edge 22, Type (0, 0), BuildingBlock: KIFKEQ_clean_linker_1, # of connection points: 2
#     Edge 23, Type (0, 0), BuildingBlock: KIFKEQ_clean_linker_1, # of connection points: 2
#     Edge 24, Type (0, 0), BuildingBlock: KIFKEQ_clean_linker_1, # of connection points: 2
#     Edge 25, Type (0, 0), BuildingBlock: KIFKEQ_clean_linker_1, # of connection points: 2
#     Edge 26, Type (0, 0), BuildingBlock: KIFKEQ_clean_linker_1, # of connection points: 2
#     Edge 27, Type (0, 0), BuildingBlock: KIFKEQ_clean_linker_1, # of connection points: 2
#     Edge 28, Type (0, 0), BuildingBlock: KIFKEQ_clean_linker_1, # of connection points: 2
#     Edge 29, Type (0, 0), BuildingBlock: KIFKEQ_clean_linker_1, # of connection points: 2
#     Edge 30, Type (0, 0), BuildingBlock: KIFKEQ_clean_linker_1, # of connection points: 2
#     Edge 31, Type (0, 0), BuildingBlock: KIFKEQ_clean_linker_1, # of connection points: 2
#     Edge 32, Type (0, 0), BuildingBlock: KIFKEQ_clean_linker_1, # of connection points: 2
#     Edge 33, Type (0, 0), BuildingBlock: KIFKEQ_clean_linker_1, # of connection points: 2
#     Edge 34, Type (0, 0), BuildingBlock: KIFKEQ_clean_linker_1, # of connection points: 2
#     Edge 35, Type (0, 0), BuildingBlock: KIFKEQ_clean_linker_1, # of connection points: 2
#     Edge 36, Type (0, 0), BuildingBlock: KIFKEQ_clean_linker_1, # of connection points: 2
#     Edge 37, Type (0, 0), BuildingBlock: KIFKEQ_clean_linker_1, # of connection points: 2
#     Edge 38, Type (0, 0), BuildingBlock: KIFKEQ_clean_linker_1, # of connection points: 2
#     Edge 39, Type (0, 0), BuildingBlock: KIFKEQ_clean_linker_1, # of connection points: 2
#     Edge 40, Type (0, 0), BuildingBlock: KIFKEQ_clean_linker_1, # of connection points: 2
#     Edge 41, Type (0, 0), BuildingBlock: KIFKEQ_clean_linker_1, # of connection points: 2
# Relax obj value: 0.273
# Max RMSD: 0.233
# Mean RMSD: 0.233
data_MOF--net-fny--node1-XOMCOT_clean_sbu_0--edge1-KIFKEQ_clean_linker_1
_symmetry_space_group_name_H-M    P1
_symmetry_Int_Tables_number       1
_symmetry_cell_setting            triclinic
loop_
_symmetry_equiv_pos_as_xyz
'x, y, z'
_cell_length_a     61.726737
_cell_length_b     61.788576
_cell_length_c     24.606624
_cell_angle_alpha  90.131463
_cell_angle_beta   89.94836
_cell_angle_gamma 119.97177
loop_
_atom_site_label
_atom_site_type_symbol
_atom_site_fract_x
_atom_site_fract_y
_atom_site_fract_z
_atom_type_partial_charge
Co0 Co 0.36267 0.53731 0.28794 0.0
C1 C 0.40302 0.55082 0.36155 0.0
C2 C 0.41289 0.58118 0.30644 0.0
C3 C 0.43408 0.58539 0.33434 0.0
N4 N 0.3936 0.5593 0.32354 0.0
N5 N 0.42773 0.56595 0.36824 0.0
H6 H 0.39235 0.53247 0.37945 0.0
H7 H 0.41211 0.59227 0.27339 0.0
C8 C 0.37925 0.54773 0.16939 0.0
O9 O 0.36921 0.52351 0.1621 0.0
N10 N 0.33108 0.51453 0.25353 0.0
C11 C 0.31251 0.49283 0.27385 0.0
C12 C 0.29338 0.48218 0.23665 0.0
C13 C 0.32225 0.51738 0.20571 0.0
N14 N 0.29978 0.49755 0.19361 0.0
C15 C 0.36474 0.49141 0.297 0.0
C16 C 0.41083 0.50939 0.24777 0.0
C17 C 0.39929 0.48533 0.27001 0.0
C18 C 0.37586 0.47638 0.29482 0.0
C19 C 0.39918 0.52379 0.25105 0.0
N20 N 0.37605 0.51469 0.27427 0.0
H21 H 0.3477 0.48469 0.31969 0.0
H22 H 0.40954 0.54284 0.23703 0.0
H23 H 0.31248 0.4852 0.31328 0.0
H24 H 0.33178 0.53372 0.18031 0.0
O25 O 0.34733 0.52515 0.35927 0.0
O26 O 0.34765 0.55651 0.3162 0.0
O27 O 0.37735 0.55613 0.216 0.0
C28 C 0.34102 0.54233 0.35921 0.0
H29 H 0.45276 0.60106 0.32874 0.0
H30 H 0.27641 0.46428 0.2404 0.0
H31 H 0.42933 0.5176 0.23002 0.0
H32 H 0.36631 0.45805 0.31335 0.0
Co33 Co 0.84741 0.36087 0.79446 0.0
C34 C 0.88109 0.40986 0.8458 0.0
C35 C 0.84331 0.40237 0.84305 0.0
C36 C 0.85799 0.4253 0.86739 0.0
N37 N 0.85785 0.39259 0.82997 0.0
N38 N 0.88183 0.42995 0.8689 0.0
H39 H 0.89746 0.40835 0.83963 0.0
H40 H 0.82338 0.3934 0.83599 0.0
C41 C 0.85438 0.39799 0.70619 0.0
O42 O 0.87351 0.41489 0.73398 0.0
N43 N 0.83724 0.32937 0.76032 0.0
C44 C 0.84466 0.31299 0.77414 0.0
C45 C 0.83405 0.29318 0.73854 0.0
C46 C 0.82216 0.31943 0.71716 0.0
N47 N 0.81995 0.29733 0.70289 0.0
C48 C 0.8963 0.36859 0.81846 0.0
C49 C 0.91787 0.3862 0.7181 0.0
C50 C 0.93322 0.38721 0.76133 0.0
C51 C 0.92181 0.37739 0.81153 0.0
C52 C 0.8923 0.37719 0.72686 0.0
N53 N 0.88219 0.37033 0.77769 0.0
H54 H 0.88841 0.36216 0.85827 0.0
H55 H 0.88089 0.37588 0.69253 0.0
H56 H 0.85716 0.31544 0.80732 0.0
H57 H 0.81363 0.32853 0.69567 0.0
O58 O 0.84426 0.34524 0.86506 0.0
O59 O 0.81357 0.34735 0.82499 0.0
O60 O 0.84262 0.37515 0.72249 0.0
C61 C 0.82104 0.33973 0.86654 0.0
H62 H 0.85132 0.43699 0.88478 0.0
H63 H 0.83662 0.27709 0.73868 0.0
H64 H 0.92553 0.39239 0.67782 0.0
H65 H 0.93264 0.37753 0.84626 0.0
Co66 Co 0.50449 0.8378 0.30593 0.0
C67 C 0.48978 0.8709 0.3615 0.0
C68 C 0.45919 0.83332 0.35734 0.0
C69 C 0.45124 0.84796 0.38311 0.0
N70 N 0.48348 0.84779 0.34407 0.0
N71 N 0.47059 0.87166 0.38542 0.0
H72 H 0.50779 0.88713 0.35602 0.0
H73 H 0.44806 0.81351 0.34914 0.0
C74 C 0.47254 0.84462 0.22081 0.0
O75 O 0.47385 0.86281 0.25077 0.0
N76 N 0.52585 0.82829 0.26899 0.0
C77 C 0.54793 0.8316 0.28716 0.0
C78 C 0.55874 0.82483 0.24665 0.0
C79 C 0.52361 0.81989 0.21779 0.0
N80 N 0.54347 0.81775 0.20318 0.0
C81 C 0.54642 0.88597 0.33055 0.0
C82 C 0.54723 0.90997 0.23547 0.0
C83 C 0.56236 0.92426 0.27901 0.0
C84 C 0.56254 0.91167 0.32609 0.0
C85 C 0.53126 0.88413 0.24171 0.0
N86 N 0.52952 0.87277 0.29047 0.0
H87 H 0.54641 0.87717 0.36828 0.0
H88 H 0.52031 0.87363 0.20726 0.0
H89 H 0.55604 0.83916 0.32645 0.0
H90 H 0.50797 0.81559 0.1914 0.0
O91 O 0.51747 0.8341 0.37544 0.0
O92 O 0.48462 0.80362 0.33526 0.0
O93 O 0.48465 0.83355 0.23503 0.0
C94 C 0.50002 0.81085 0.37635 0.0
H95 H 0.43293 0.84136 0.40069 0.0
H96 H 0.57676 0.82586 0.24828 0.0
H97 H 0.5471 0.91873 0.19751 0.0
H98 H 0.57466 0.92171 0.35995 0.0
Co99 Co 0.68457 0.4912 0.79073 0.0
C100 C 0.64211 0.47966 0.85845 0.0
C101 C 0.63377 0.44785 0.80903 0.0
C102 C 0.61214 0.44368 0.83458 0.0
N103 N 0.65247 0.47057 0.82392 0.0
N104 N 0.6174 0.46395 0.86497 0.0
H105 H 0.65254 0.49795 0.87692 0.0
H106 H 0.63524 0.43546 0.78028 0.0
C107 C 0.66872 0.45319 0.70085 0.0
O108 O 0.67689 0.44125 0.73105 0.0
N109 N 0.71666 0.51274 0.75729 0.0
C110 C 0.7384 0.529 0.78184 0.0
C111 C 0.75621 0.54156 0.74268 0.0
C112 C 0.72151 0.51601 0.70365 0.0
N113 N 0.74549 0.53338 0.69365 0.0
C114 C 0.68634 0.53859 0.79519 0.0
C115 C 0.64174 0.52312 0.74082 0.0
C116 C 0.65355 0.54673 0.76568 0.0
C117 C 0.67655 0.55472 0.79177 0.0
C118 C 0.65224 0.50773 0.74467 0.0
N119 N 0.67394 0.51523 0.77285 0.0
H120 H 0.70331 0.5444 0.81809 0.0
H121 H 0.64192 0.4891 0.72796 0.0
H122 H 0.74131 0.53196 0.82512 0.0
H123 H 0.70794 0.50572 0.67233 0.0
O124 O 0.69898 0.50353 0.86246 0.0
O125 O 0.69762 0.47087 0.82316 0.0
O126 O 0.67074 0.47364 0.71822 0.0
C127 C 0.7045 0.48584 0.86505 0.0
H128 H 0.59392 0.42718 0.83013 0.0
H129 H 0.77551 0.55567 0.74977 0.0
H130 H 0.62408 0.51627 0.71982 0.0
H131 H 0.68624 0.57274 0.81179 0.0
Co132 Co 0.21006 0.67428 0.29961 0.0
C133 C 0.18134 0.62792 0.36313 0.0
C134 C 0.21329 0.62956 0.32518 0.0
C135 C 0.19882 0.60606 0.3471 0.0
N136 N 0.20184 0.64299 0.33404 0.0
N137 N 0.17846 0.60503 0.36998 0.0
H138 H 0.169 0.63352 0.38063 0.0
H139 H 0.23022 0.63593 0.3017 0.0
C140 C 0.20036 0.63798 0.20677 0.0
O141 O 0.18011 0.62188 0.23299 0.0
N142 N 0.21838 0.70523 0.26478 0.0
C143 C 0.21137 0.72182 0.28005 0.0
C144 C 0.21674 0.73863 0.23831 0.0
C145 C 0.22792 0.7121 0.21467 0.0
N146 N 0.22678 0.73211 0.19721 0.0
C147 C 0.16006 0.66255 0.32806 0.0
C148 C 0.13841 0.64804 0.22677 0.0
C149 C 0.12284 0.64356 0.27202 0.0
C150 C 0.13421 0.65203 0.32278 0.0
C151 C 0.16434 0.65844 0.23423 0.0
N152 N 0.17452 0.66316 0.28533 0.0
H153 H 0.1682 0.66904 0.36772 0.0
H154 H 0.176 0.6623 0.1988 0.0
H155 H 0.20165 0.72084 0.31735 0.0
H156 H 0.23468 0.70212 0.1903 0.0
O157 O 0.21327 0.68997 0.3703 0.0
O158 O 0.2444 0.68926 0.32874 0.0
O159 O 0.21432 0.65993 0.227 0.0
C160 C 0.23676 0.69649 0.37086 0.0
H161 H 0.20278 0.59087 0.34531 0.0
H162 H 0.21217 0.7534 0.23686 0.0
H163 H 0.13059 0.64293 0.18627 0.0
H164 H 0.12316 0.6503 0.35845 0.0
Co165 Co 0.54625 0.20126 0.78436 0.0
C166 C 0.56484 0.1761 0.85121 0.0
C167 C 0.59299 0.19976 0.79415 0.0
C168 C 0.59975 0.18345 0.81616 0.0
N169 N 0.57082 0.19464 0.8156 0.0
N170 N 0.58156 0.16819 0.85077 0.0
H171 H 0.54733 0.16712 0.87324 0.0
H172 H 0.60247 0.21277 0.76143 0.0
C173 C 0.55343 0.19362 0.66506 0.0
O174 O 0.52914 0.17837 0.66248 0.0
N175 N 0.52148 0.20825 0.75326 0.0
C176 C 0.50009 0.20504 0.77592 0.0
C177 C 0.48792 0.21203 0.73902 0.0
C178 C 0.52267 0.21862 0.70455 0.0
N179 N 0.50209 0.2201 0.69402 0.0
C180 C 0.50139 0.15267 0.79627 0.0
C181 C 0.52039 0.12508 0.74878 0.0
C182 C 0.49642 0.11234 0.77156 0.0
C183 C 0.48683 0.12652 0.79498 0.0
C184 C 0.53412 0.15119 0.75007 0.0
N185 N 0.52461 0.16493 0.77309 0.0
H186 H 0.49434 0.16283 0.81852 0.0
H187 H 0.55297 0.16028 0.7344 0.0
H188 H 0.49367 0.19832 0.81656 0.0
H189 H 0.53836 0.22544 0.67712 0.0
O190 O 0.53539 0.20403 0.85734 0.0
O191 O 0.56455 0.23582 0.81136 0.0
O192 O 0.56316 0.20532 0.70973 0.0
C193 C 0.55142 0.22784 0.85594 0.0
H194 H 0.6159 0.18193 0.80501 0.0
H195 H 0.46991 0.21077 0.74429 0.0
H196 H 0.52868 0.11492 0.73067 0.0
H197 H 0.46866 0.11744 0.81446 0.0
Co198 Co 0.50723 0.67816 0.75311 0.0
C199 C 0.49762 0.63936 0.67734 0.0
C200 C 0.46547 0.62735 0.72853 0.0
C201 C 0.46277 0.6071 0.6989 0.0
N202 N 0.4875 0.64741 0.71486 0.0
N203 N 0.48327 0.61481 0.66745 0.0
H204 H 0.51628 0.65092 0.66138 0.0
H205 H 0.45308 0.62703 0.76002 0.0
C206 C 0.49423 0.66031 0.87018 0.0
O207 O 0.51834 0.67101 0.88002 0.0
N208 N 0.52787 0.70968 0.7899 0.0
C209 C 0.54926 0.7293 0.77106 0.0
C210 C 0.55792 0.74842 0.80823 0.0
C211 C 0.52324 0.71772 0.83698 0.0
N212 N 0.54162 0.74089 0.84975 0.0
C213 C 0.55476 0.67883 0.75139 0.0
C214 C 0.53628 0.63143 0.7937 0.0
C215 C 0.56084 0.64397 0.77408 0.0
C216 C 0.57025 0.66824 0.75379 0.0
C217 C 0.52158 0.64271 0.79104 0.0
N218 N 0.5307 0.66624 0.7702 0.0
H219 H 0.56175 0.69644 0.731 0.0
H220 H 0.50222 0.63167 0.80286 0.0
H221 H 0.55796 0.73011 0.73246 0.0
H222 H 0.50658 0.70726 0.86116 0.0
O223 O 0.52107 0.69473 0.68376 0.0
O224 O 0.48741 0.69186 0.72176 0.0
O225 O 0.48667 0.66215 0.82258 0.0
C226 C 0.5031 0.69993 0.68121 0.0
H227 H 0.44718 0.58819 0.70105 0.0
H228 H 0.57504 0.76625 0.80547 0.0
H229 H 0.52814 0.61262 0.80952 0.0
H230 H 0.58894 0.67838 0.73696 0.0
Co231 Co 0.84414 0.49528 0.24544 0.0
C232 C 0.87298 0.4814 0.17761 0.0
C233 C 0.85154 0.45199 0.23408 0.0
C234 C 0.86948 0.44773 0.21104 0.0
N235 N 0.8541 0.47332 0.21331 0.0
N236 N 0.88329 0.4667 0.17669 0.0
H237 H 0.88014 0.4988 0.15567 0.0
H238 H 0.83897 0.44135 0.26667 0.0
C239 C 0.84842 0.48761 0.36585 0.0
O240 O 0.86069 0.51209 0.37054 0.0
N241 N 0.83404 0.51751 0.27743 0.0
C242 C 0.83981 0.54074 0.26187 0.0
C243 C 0.82902 0.54975 0.29764 0.0
C244 C 0.81861 0.51224 0.32015 0.0
N245 N 0.81606 0.53186 0.33464 0.0
C246 C 0.89185 0.54052 0.22962 0.0
C247 C 0.92013 0.52647 0.2913 0.0
C248 C 0.93248 0.54888 0.2622 0.0
C249 C 0.91797 0.55579 0.23087 0.0
C250 C 0.8941 0.51155 0.28811 0.0
N251 N 0.87993 0.51891 0.25912 0.0
H252 H 0.88154 0.54536 0.20179 0.0
H253 H 0.88567 0.49331 0.3065 0.0
H254 H 0.85092 0.55065 0.22709 0.0
H255 H 0.80979 0.49452 0.34119 0.0
O256 O 0.84106 0.50673 0.17353 0.0
O257 O 0.81017 0.47499 0.21601 0.0
O258 O 0.84 0.47771 0.31901 0.0
C259 C 0.81768 0.48933 0.1732 0.0
H260 H 0.8729 0.43264 0.22091 0.0
H261 H 0.83141 0.56834 0.29782 0.0
H262 H 0.93063 0.51983 0.31421 0.0
H263 H 0.92674 0.57263 0.20656 0.0
Co264 Co 0.36544 0.8338 0.75726 0.0
C265 C 0.40878 0.86214 0.69106 0.0
C266 C 0.41561 0.83964 0.74686 0.0
C267 C 0.43816 0.85733 0.72484 0.0
N268 N 0.39736 0.84306 0.72597 0.0
N269 N 0.43372 0.87181 0.69096 0.0
H270 H 0.39906 0.86997 0.66942 0.0
H271 H 0.41312 0.8267 0.77902 0.0
C272 C 0.37726 0.83805 0.87761 0.0
O273 O 0.36547 0.85078 0.88162 0.0
N274 N 0.33303 0.82436 0.78815 0.0
C275 C 0.31551 0.82948 0.76932 0.0
C276 C 0.29493 0.81841 0.80272 0.0
C277 C 0.32214 0.80895 0.83056 0.0
N278 N 0.29926 0.80561 0.84119 0.0
C279 C 0.36822 0.88198 0.74599 0.0
C280 C 0.41251 0.90939 0.80224 0.0
C281 C 0.40198 0.92217 0.77658 0.0
C282 C 0.37934 0.90807 0.74874 0.0
C283 C 0.40058 0.88332 0.7993 0.0
N284 N 0.37836 0.86962 0.7722 0.0
H285 H 0.35246 0.8721 0.71943 0.0
H286 H 0.41024 0.87439 0.81621 0.0
H287 H 0.31679 0.83955 0.73268 0.0
H288 H 0.33086 0.80051 0.85369 0.0
O289 O 0.35155 0.83152 0.68477 0.0
O290 O 0.35121 0.79994 0.72673 0.0
O291 O 0.37826 0.82901 0.83116 0.0
C292 C 0.34506 0.808 0.68375 0.0
H293 H 0.45643 0.86015 0.73521 0.0
H294 H 0.27793 0.81929 0.79847 0.0
H295 H 0.43021 0.91952 0.82342 0.0
H296 H 0.37101 0.91722 0.72658 0.0
Co297 Co 0.5492 0.35644 0.24873 0.0
C298 C 0.56653 0.40126 0.18497 0.0
C299 C 0.59597 0.40442 0.23648 0.0
C300 C 0.60321 0.42756 0.21438 0.0
N301 N 0.57284 0.38814 0.21826 0.0
N302 N 0.58435 0.42552 0.18298 0.0
H303 H 0.54857 0.39331 0.16489 0.0
H304 H 0.60624 0.40019 0.2661 0.0
C305 C 0.55904 0.36989 0.3697 0.0
O306 O 0.53491 0.36047 0.37749 0.0
N307 N 0.52522 0.32419 0.27913 0.0
C308 C 0.50354 0.30634 0.25688 0.0
C309 C 0.49159 0.28698 0.29321 0.0
C310 C 0.52678 0.31456 0.327 0.0
N311 N 0.50615 0.29255 0.33752 0.0
C312 C 0.50417 0.35951 0.2388 0.0
C313 C 0.52097 0.40389 0.29468 0.0
C314 C 0.49737 0.393 0.26984 0.0
C315 C 0.48902 0.37038 0.24194 0.0
C316 C 0.53556 0.39238 0.29052 0.0
N317 N 0.52699 0.3701 0.26372 0.0
H318 H 0.49795 0.34323 0.21366 0.0
H319 H 0.55434 0.40219 0.30659 0.0
H320 H 0.49668 0.30707 0.21698 0.0
H321 H 0.5427 0.32315 0.35388 0.0
O322 O 0.53769 0.34334 0.17556 0.0
O323 O 0.56779 0.34109 0.21844 0.0
O324 O 0.56726 0.36889 0.32225 0.0
C325 C 0.55403 0.33591 0.17486 0.0
H326 H 0.62055 0.44466 0.22244 0.0
H327 H 0.47334 0.27054 0.28823 0.0
H328 H 0.52867 0.42177 0.31513 0.0
H329 H 0.47106 0.36128 0.22162 0.0
Co330 Co 0.21004 0.54021 0.74896 0.0
C331 C 0.17981 0.55318 0.68444 0.0
C332 C 0.20081 0.58307 0.74024 0.0
C333 C 0.18256 0.58673 0.71673 0.0
N334 N 0.19883 0.56184 0.71995 0.0
N335 N 0.16903 0.56745 0.68277 0.0
H336 H 0.17315 0.53584 0.66235 0.0
H337 H 0.21352 0.59451 0.77177 0.0
C338 C 0.23092 0.57557 0.84441 0.0
O339 O 0.25097 0.5893 0.81505 0.0
N340 N 0.22004 0.51746 0.77783 0.0
C341 C 0.22545 0.5018 0.75029 0.0
C342 C 0.23007 0.48784 0.78699 0.0
C343 C 0.22101 0.51244 0.83065 0.0
N344 N 0.22716 0.49454 0.8374 0.0
C345 C 0.16435 0.49369 0.73564 0.0
C346 C 0.13475 0.50636 0.797 0.0
C347 C 0.12308 0.48432 0.76598 0.0
C348 C 0.13837 0.47775 0.73616 0.0
C349 C 0.16072 0.52178 0.79525 0.0
N350 N 0.17516 0.51569 0.76377 0.0
H351 H 0.1757 0.48898 0.71026 0.0
H352 H 0.16891 0.53939 0.81666 0.0
H353 H 0.22579 0.50023 0.70661 0.0
H354 H 0.21764 0.52188 0.86376 0.0
O355 O 0.21272 0.53037 0.67491 0.0
O356 O 0.24385 0.56124 0.719 0.0
O357 O 0.21314 0.55532 0.82438 0.0
C358 C 0.23603 0.54786 0.67468 0.0
H359 H 0.17901 0.60186 0.72537 0.0
H360 H 0.2351 0.47382 0.77731 0.0
H361 H 0.12386 0.51207 0.82141 0.0
H362 H 0.13031 0.46106 0.71124 0.0
Co363 Co 0.68549 0.20021 0.24076 0.0
C364 C 0.63922 0.16635 0.18095 0.0
C365 C 0.64458 0.20332 0.1864 0.0
C366 C 0.62262 0.18834 0.15878 0.0
N367 N 0.655 0.18945 0.20008 0.0
N368 N 0.61932 0.16505 0.15568 0.0
H369 H 0.64169 0.15049 0.18584 0.0
H370 H 0.6524 0.22295 0.19564 0.0
C371 C 0.64501 0.19219 0.32234 0.0
O372 O 0.62883 0.17402 0.29128 0.0
N373 N 0.71587 0.21056 0.28034 0.0
C374 C 0.73463 0.20652 0.26589 0.0
C375 C 0.75131 0.21351 0.30832 0.0
C376 C 0.72123 0.21983 0.33105 0.0
N377 N 0.74264 0.22162 0.34923 0.0
C378 C 0.68105 0.15259 0.21772 0.0
C379 C 0.65602 0.12803 0.31092 0.0
C380 C 0.65792 0.11402 0.26806 0.0
C381 C 0.67165 0.12689 0.22207 0.0
C382 C 0.66573 0.15383 0.30482 0.0
N383 N 0.67622 0.16544 0.25673 0.0
H384 H 0.69056 0.16163 0.18071 0.0
H385 H 0.66443 0.1641 0.33881 0.0
H386 H 0.7356 0.19806 0.22812 0.0
H387 H 0.70955 0.22475 0.35469 0.0
O388 O 0.70347 0.20453 0.17277 0.0
O389 O 0.69924 0.23427 0.21143 0.0
O390 O 0.6684 0.2037 0.3099 0.0
C391 C 0.70836 0.22751 0.17127 0.0
H392 H 0.61064 0.19444 0.14048 0.0
H393 H 0.76785 0.21169 0.30991 0.0
H394 H 0.64636 0.11906 0.34814 0.0
H395 H 0.67456 0.11709 0.18887 0.0
H396 H 0.40073 0.53731 0.08392 0.0
H397 H 0.39311 0.59741 0.15325 0.0
H398 H 0.42738 0.5652 1.01221 0.0
H399 H 0.41938 0.62523 0.07965 0.0
H400 H 0.44442 0.64685 0.8834 0.0
H401 H 0.41567 0.6209 0.95618 0.0
H402 H 0.47442 0.61174 0.0268 0.0
H403 H 0.50322 0.63808 0.95592 0.0
C404 C 0.40444 0.55639 0.08358 0.0
C405 C 0.39465 0.56502 0.12462 0.0
C406 C 0.41977 0.57238 0.04238 0.0
C407 C 0.42536 0.59735 0.04003 0.0
C408 C 0.41523 0.606 0.08019 0.0
C409 C 0.40029 0.5901 0.12243 0.0
C410 C 0.45122 0.63942 0.91466 0.0
C411 C 0.47622 0.64468 0.91372 0.0
C412 C 0.43479 0.62468 0.95644 0.0
C413 C 0.44283 0.61436 0.99732 0.0
C414 C 0.4677 0.61948 0.99604 0.0
C415 C 0.4842 0.63464 0.95533 0.0
H416 H 0.84877 0.43829 0.69696 0.0
H417 H 0.84489 0.37772 0.6023 0.0
H418 H 0.84393 0.45737 0.61524 0.0
H419 H 0.84141 0.39762 0.51871 0.0
H420 H 0.82258 0.43592 0.37752 0.0
H421 H 0.82022 0.41166 0.45858 0.0
H422 H 0.86874 0.48038 0.54388 0.0
H423 H 0.87014 0.50415 0.46495 0.0
C424 C 0.84669 0.42895 0.65837 0.0
C425 C 0.84723 0.40651 0.65618 0.0
C426 C 0.84426 0.44009 0.6111 0.0
C427 C 0.84301 0.42961 0.55944 0.0
C428 C 0.84231 0.40639 0.55741 0.0
C429 C 0.84427 0.39489 0.60534 0.0
C430 C 0.83254 0.44577 0.41386 0.0
C431 C 0.84634 0.4721 0.41451 0.0
C432 C 0.83133 0.43183 0.46039 0.0
C433 C 0.84397 0.44386 0.50877 0.0
C434 C 0.85802 0.47018 0.50858 0.0
C435 C 0.85902 0.48397 0.46266 0.0
H436 H 0.48243 0.83302 0.11763 0.0
H437 H 0.428 0.84218 0.20919 0.0
H438 H 0.45942 0.82964 0.03328 0.0
H439 H 0.40452 0.83759 0.12691 0.0
H440 H 0.38503 0.86259 0.97393 0.0
H441 H 0.4076 0.86175 0.05313 0.0
H442 H 0.42345 0.80874 0.97382 0.0
H443 H 0.40132 0.81048 0.89227 0.0
C444 C 0.46525 0.83369 0.11991 0.0
C445 C 0.45718 0.83812 0.17013 0.0
C446 C 0.452 0.83178 0.07152 0.0
C447 C 0.43025 0.83397 0.07243 0.0
C448 C 0.42157 0.83675 0.12352 0.0
C449 C 0.43493 0.8391 0.17118 0.0
C450 C 0.39314 0.85058 0.97301 0.0
C451 C 0.39097 0.83639 0.92641 0.0
C452 C 0.40607 0.84994 1.0191 0.0
C453 C 0.41714 0.83476 1.02115 0.0
C454 C 0.4153 0.82071 0.97422 0.0
C455 C 0.40243 0.82156 0.92743 0.0
H456 H 0.54948 0.35851 0.47743 0.0
H457 H 0.60799 0.40827 0.36849 0.0
H458 H 0.5771 0.37865 0.55517 0.0
H459 H 0.63547 0.42895 0.44675 0.0
H460 H 0.65954 0.47563 0.61418 0.0
H461 H 0.63452 0.45556 0.53251 0.0
H462 H 0.61963 0.38375 0.59146 0.0
H463 H 0.64509 0.40374 0.67208 0.0
C464 C 0.56827 0.37374 0.47001 0.0
C465 C 0.57652 0.38165 0.41655 0.0
C466 C 0.58412 0.38525 0.51464 0.0
C467 C 0.60851 0.40546 0.5073 0.0
C468 C 0.61678 0.4135 0.45386 0.0
C469 C 0.60109 0.40153 0.40899 0.0
C470 C 0.65111 0.45559 0.60947 0.0
C471 C 0.65443 0.44136 0.64982 0.0
C472 C 0.63685 0.44411 0.56257 0.0
C473 C 0.62501 0.41802 0.55544 0.0
C474 C 0.62839 0.40384 0.59572 0.0
C475 C 0.64311 0.41536 0.64187 0.0
H476 H 0.16776 0.60029 0.14072 0.0
H477 H 0.24512 0.65826 0.14998 0.0
H478 H 0.17557 0.58618 0.05494 0.0
H479 H 0.25352 0.64326 0.06471 0.0
H480 H 0.25696 0.62326 0.8859 0.0
H481 H 0.25017 0.63908 0.97123 0.0
H482 H 0.1916 0.56452 1.01241 0.0
H483 H 0.19758 0.5492 0.92573 0.0
C484 C 0.18662 0.60995 0.12465 0.0
C485 C 0.20581 0.63041 0.15279 0.0
C486 C 0.19121 0.60162 0.07522 0.0
C487 C 0.21535 0.6131 0.05222 0.0
C488 C 0.23459 0.63388 0.08016 0.0
C489 C 0.22984 0.64251 0.12946 0.0
C490 C 0.24265 0.61022 0.91326 0.0
C491 C 0.22776 0.5849 0.89851 0.0
C492 C 0.2388 0.61932 0.96273 0.0
C493 C 0.22014 0.60333 0.99963 0.0
C494 C 0.20571 0.57782 0.98515 0.0
C495 C 0.20929 0.56884 0.93532 0.0
H496 H 0.66658 0.20573 0.42505 0.0
H497 H 0.60097 0.19095 0.33385 0.0
H498 H 0.64618 0.2081 0.50921 0.0
H499 H 0.58124 0.19443 0.416 0.0
H500 H 0.53784 0.16744 0.5704 0.0
H501 H 0.56186 0.16968 0.49105 0.0
H502 H 0.6289 0.22794 0.56684 0.0
H503 H 0.60452 0.22494 0.64851 0.0
C504 C 0.64807 0.20356 0.42279 0.0
C505 C 0.63528 0.19785 0.37279 0.0
C506 C 0.63632 0.20492 0.47104 0.0
C507 C 0.61165 0.20084 0.47016 0.0
C508 C 0.59978 0.19677 0.41926 0.0
C509 C 0.61124 0.19501 0.37173 0.0
C510 C 0.55768 0.18088 0.57052 0.0
C511 C 0.56906 0.19617 0.61614 0.0
C512 C 0.57157 0.18232 0.52437 0.0
C513 C 0.59746 0.19935 0.52138 0.0
C514 C 0.60906 0.21454 0.5673 0.0
C515 C 0.59504 0.21296 0.61411 0.0
H516 H 0.62358 0.4678 0.14341 0.0
H517 H 0.5429 0.42692 0.15109 0.0
H518 H 0.62174 0.49009 0.0647 0.0
H519 H 0.54103 0.44858 0.07019 0.0
H520 H 0.62418 0.50786 0.907 0.0
H521 H 0.60732 0.51111 0.99408 0.0
H522 H 0.55533 0.43172 0.9905 0.0
H523 H 0.57291 0.42818 0.90586 0.0
C524 C 0.60546 0.4643 0.12975 0.0
C525 C 0.58341 0.44447 0.15101 0.0
C526 C 0.60433 0.47733 0.08474 0.0
C527 C 0.58116 0.47021 0.05995 0.0
C528 C 0.55912 0.45394 0.08778 0.0
C529 C 0.56025 0.44114 0.1333 0.0
C530 C 0.60881 0.49115 0.92427 0.0
C531 C 0.60124 0.46741 0.90183 0.0
C532 C 0.59876 0.4932 0.97351 0.0
C533 C 0.58084 0.47156 1.0001 0.0
C534 C 0.56952 0.44876 0.97152 0.0
C535 C 0.57987 0.44663 0.92292 0.0
H536 H 0.17931 0.56595 0.41801 0.0
H537 H 0.13192 0.59786 0.39023 0.0
H538 H 0.15351 0.54286 0.49432 0.0
H539 H 0.10714 0.57601 0.46963 0.0
H540 H 0.15957 0.60232 0.64068 0.0
H541 H 0.13876 0.59736 0.55446 0.0
H542 H 0.1122 0.51817 0.5572 0.0
H543 H 0.13165 0.52286 0.64581 0.0
C544 C 0.16288 0.56735 0.42674 0.0
C545 C 0.15874 0.58508 0.40058 0.0
C546 C 0.14779 0.55382 0.47032 0.0
C547 C 0.12891 0.55846 0.48898 0.0
C548 C 0.12188 0.57251 0.45655 0.0
C549 C 0.13657 0.58552 0.41202 0.0
C550 C 0.148 0.58363 0.62476 0.0
C551 C 0.14871 0.56327 0.64769 0.0
C552 C 0.13579 0.58067 0.57536 0.0
C553 C 0.12498 0.55752 0.54815 0.0
C554 C 0.12098 0.53629 0.57688 0.0
C555 C 0.13266 0.53916 0.62694 0.0
H556 H 0.6237 0.12623 0.11466 0.0
H557 H 0.57369 0.15618 0.12276 0.0
H558 H 0.60246 0.10281 0.0343 0.0
H559 H 0.55271 0.13292 0.04171 0.0
H560 H 0.53892 0.12665 0.88302 0.0
H561 H 0.53641 0.1021 0.96253 0.0
H562 H 0.61693 0.13642 0.96221 0.0
H563 H 0.61943 0.16167 0.88519 0.0
C564 C 0.60752 0.1271 0.10102 0.0
C565 C 0.60146 0.14455 0.12288 0.0
C566 C 0.5951 0.11326 0.05506 0.0
C567 C 0.57696 0.11716 0.03004 0.0
C568 C 0.56723 0.13008 0.05904 0.0
C569 C 0.57963 0.14396 0.10496 0.0
C570 C 0.55604 0.12849 0.89934 0.0
C571 C 0.57955 0.14741 0.88093 0.0
C572 C 0.55449 0.11393 0.94397 0.0
C573 C 0.57647 0.11826 0.97015 0.0
C574 C 0.59957 0.13302 0.94379 0.0
C575 C 0.60113 0.14783 0.89975 0.0
H576 H 0.5141 0.63267 0.5806 0.0
H577 H 0.46668 0.56485 0.66902 0.0
H578 H 0.51351 0.60901 0.50369 0.0
H579 H 0.46677 0.54042 0.59112 0.0
H580 H 0.478 0.58435 0.35991 0.0
H581 H 0.50487 0.58369 0.43166 0.0
H582 H 0.43904 0.53497 0.52601 0.0
H583 H 0.41307 0.53535 0.45552 0.0
C584 C 0.50415 0.61255 0.58436 0.0
C585 C 0.48877 0.60059 0.62929 0.0
C586 C 0.50401 0.59867 0.5398 0.0
C587 C 0.48784 0.57262 0.53885 0.0
C588 C 0.47762 0.5606 0.58874 0.0
C589 C 0.47731 0.57452 0.63326 0.0
C590 C 0.46946 0.57331 0.39592 0.0
C591 C 0.44348 0.56133 0.40365 0.0
C592 C 0.4848 0.57265 0.43688 0.0
C593 C 0.47436 0.56115 0.48707 0.0
C594 C 0.44828 0.54514 0.48955 0.0
C595 C 0.43304 0.54556 0.4487 0.0
H596 H 0.92154 0.51112 0.14122 0.0
H597 H 0.8934 0.43159 0.13892 0.0
H598 H 0.94449 0.51562 0.05752 0.0
H599 H 0.91717 0.43618 0.0576 0.0
H600 H 0.92435 0.43028 0.90274 0.0
H601 H 0.94861 0.4529 0.9809 0.0
H602 H 0.91181 0.49669 0.98244 0.0
H603 H 0.88763 0.47436 0.90344 0.0
C604 C 0.92097 0.49472 0.12393 0.0
C605 C 0.9042 0.47068 0.14385 0.0
C606 C 0.93462 0.49745 0.07674 0.0
C607 C 0.9316 0.47615 0.04958 0.0
C608 C 0.91946 0.453 0.07678 0.0
C609 C 0.90552 0.45021 0.1234 0.0
C610 C 0.92198 0.4454 0.9178 0.0
C611 C 0.90249 0.4492 0.89926 0.0
C612 C 0.93636 0.45867 0.96251 0.0
C613 C 0.93107 0.47546 0.98956 0.0
C614 C 0.9158 0.48322 0.96351 0.0
C615 C 0.90141 0.46998 0.91877 0.0
H616 H 0.43228 0.87796 0.41993 0.0
H617 H 0.51301 0.91353 0.42067 0.0
H618 H 0.43427 0.90212 0.49911 0.0
H619 H 0.5148 0.93776 0.49911 0.0
H620 H 0.42894 0.91115 0.65733 0.0
H621 H 0.44838 0.93473 0.57498 0.0
H622 H 0.49918 0.90572 0.57495 0.0
H623 H 0.47897 0.88128 0.65475 0.0
C624 C 0.45047 0.89149 0.43566 0.0
C625 C 0.47223 0.89226 0.41644 0.0
C626 C 0.45172 0.90589 0.48048 0.0
C627 C 0.47473 0.9208 0.50703 0.0
C628 C 0.49679 0.9258 0.48032 0.0
C629 C 0.49559 0.91143 0.43549 0.0
C630 C 0.44469 0.91033 0.64033 0.0
C631 C 0.45126 0.89291 0.65955 0.0
C632 C 0.45619 0.92434 0.59398 0.0
C633 C 0.47435 0.92104 0.56704 0.0
C634 C 0.48474 0.90823 0.59395 0.0
C635 C 0.47298 0.89389 0.63966 0.0
H636 H 0.25971 0.47803 0.85503 0.0
H637 H 0.20647 0.49338 0.93507 0.0
H638 H 0.27423 0.47253 0.94311 0.0
H639 H 0.22173 0.48893 0.02314 0.0
H640 H 0.24977 0.47043 0.1768 0.0
H641 H 0.22815 0.46237 0.08928 0.0
H642 H 0.29933 0.50587 1.00861 0.0
H643 H 0.32073 0.51323 0.09507 0.0
C644 C 0.25072 0.47968 0.89132 0.0
C645 C 0.23237 0.48672 0.88823 0.0
C646 C 0.25918 0.47674 0.94173 0.0
C647 C 0.24944 0.48081 0.98982 0.0
C648 C 0.22959 0.4857 0.98673 0.0
C649 C 0.2211 0.48859 0.93632 0.0
C650 C 0.26069 0.47799 0.14017 0.0
C651 C 0.28687 0.49269 0.14269 0.0
C652 C 0.24837 0.47344 0.09028 0.0
C653 C 0.2621 0.48333 0.04223 0.0
C654 C 0.28828 0.49763 0.04484 0.0
C655 C 0.30052 0.50224 0.0945 0.0
H656 H 0.83221 0.26815 0.64343 0.0
H657 H 0.77838 0.29314 0.65706 0.0
H658 H 0.81205 0.24583 0.55985 0.0
H659 H 0.75879 0.27162 0.57277 0.0
H660 H 0.71711 0.21499 0.44261 0.0
H661 H 0.73471 0.22978 0.53266 0.0
H662 H 0.80917 0.25947 0.46694 0.0
H663 H 0.79147 0.24455 0.37672 0.0
C664 C 0.81589 0.26859 0.62895 0.0
C665 C 0.80693 0.2825 0.65643 0.0
C666 C 0.80454 0.25605 0.58092 0.0
C667 C 0.78398 0.25713 0.55982 0.0
C668 C 0.77449 0.27029 0.58838 0.0
C669 C 0.78586 0.28285 0.63625 0.0
C670 C 0.73723 0.22474 0.44741 0.0
C671 C 0.753 0.22902 0.40266 0.0
C672 C 0.74727 0.23309 0.49892 0.0
C673 C 0.77327 0.24589 0.50659 0.0
C674 C 0.78903 0.24939 0.46222 0.0
C675 C 0.77895 0.24096 0.41065 0.0
H676 H 0.5655 0.79034 0.18343 0.0
H677 H 0.53072 0.82791 0.10596 0.0
H678 H 0.56877 0.77378 0.09519 0.0
H679 H 0.53379 0.81127 1.01799 0.0
H680 H 0.5617 0.79061 0.86372 0.0
H681 H 0.5665 0.81242 0.95017 0.0
H682 H 0.53289 0.74177 0.03463 0.0
H683 H 0.52824 0.72015 0.94872 0.0
C684 C 0.55896 0.79533 0.14737 0.0
C685 C 0.54758 0.81004 0.15121 0.0
C686 C 0.56071 0.78583 0.09719 0.0
C687 C 0.55141 0.79124 0.05025 0.0
C688 C 0.5412 0.807 0.05371 0.0
C689 C 0.53919 0.81624 0.10392 0.0
C690 C 0.55552 0.77989 0.90093 0.0
C691 C 0.54441 0.75378 0.89986 0.0
C692 C 0.55821 0.79228 0.95007 0.0
C693 C 0.55019 0.77868 0.99868 0.0
C694 C 0.53948 0.75263 0.99763 0.0
C695 C 0.53651 0.74027 0.94857 0.0
H696 H 0.72434 0.5325 0.59671 0.0
H697 H 0.79387 0.54822 0.67241 0.0
H698 H 0.74291 0.53591 0.50718 0.0
H699 H 0.81253 0.55229 0.58311 0.0
H700 H 0.81689 0.51154 0.43055 0.0
H701 H 0.80134 0.51695 0.51707 0.0
H702 H 0.77789 0.56481 0.44091 0.0
H703 H 0.79339 0.55908 0.35307 0.0
C704 C 0.74368 0.53706 0.59419 0.0
C705 C 0.75752 0.53961 0.6415 0.0
C706 C 0.75435 0.5393 0.54303 0.0
C707 C 0.77899 0.54403 0.53853 0.0
C708 C 0.79337 0.54832 0.58571 0.0
C709 C 0.78274 0.54617 0.63677 0.0
C710 C 0.80818 0.52299 0.43198 0.0
C711 C 0.80606 0.53468 0.38506 0.0
C712 C 0.79965 0.52642 0.48169 0.0
C713 C 0.78872 0.54154 0.48561 0.0
C714 C 0.78634 0.55313 0.43875 0.0
C715 C 0.79519 0.54989 0.38878 0.0
H716 H 0.21832 0.70576 0.10482 0.0
H717 H 0.24676 0.78042 0.16753 0.0
H718 H 0.2314 0.72237 1.01364 0.0
H719 H 0.2602 0.79729 0.0758 0.0
H720 H 0.26894 0.81777 0.89627 0.0
H721 H 0.24654 0.79879 0.98071 0.0
H722 H 0.27355 0.74637 0.97496 0.0
H723 H 0.29523 0.76487 0.89032 0.0
C724 C 0.22739 0.72577 0.09892 0.0
C725 C 0.23212 0.74194 0.14313 0.0
C726 C 0.23477 0.73525 0.0468 0.0
C727 C 0.24711 0.7611 0.03788 0.0
C728 C 0.25057 0.77724 0.08158 0.0
C729 C 0.24303 0.76768 0.13393 0.0
C730 C 0.26956 0.80184 0.91256 0.0
C731 C 0.28387 0.79281 0.88708 0.0
C732 C 0.257 0.79118 0.96103 0.0
C733 C 0.25839 0.7712 0.98434 0.0
C734 C 0.27192 0.7616 0.95762 0.0
C735 C 0.28454 0.77232 0.9095 0.0
H736 H 0.51027 0.20667 0.59594 0.0
H737 H 0.48017 0.24793 0.67671 0.0
H738 H 0.50478 0.22138 0.5081 0.0
H739 H 0.47459 0.26287 0.58816 0.0
H740 H 0.51693 0.31382 0.43642 0.0
H741 H 0.50912 0.29275 0.52369 0.0
H742 H 0.47288 0.22126 0.44188 0.0
H743 H 0.48089 0.24262 0.35386 0.0
C744 C 0.50219 0.2187 0.59459 0.0
C745 C 0.49601 0.2266 0.64274 0.0
C746 C 0.49875 0.22684 0.54441 0.0
C747 C 0.4893 0.24325 0.54152 0.0
C748 C 0.48197 0.25023 0.58955 0.0
C749 C 0.4851 0.24174 0.63993 0.0
C750 C 0.50721 0.29361 0.43715 0.0
C751 C 0.4999 0.27977 0.38862 0.0
C752 C 0.50238 0.28156 0.48706 0.0
C753 C 0.49034 0.25542 0.48937 0.0
C754 C 0.48221 0.24147 0.44096 0.0
C755 C 0.48676 0.2536 0.39086 0.0
H756 H 0.71335 0.44749 0.89348 0.0
H757 H 0.73067 0.5216 0.94161 0.0
H758 H 0.73974 0.44697 0.9679 0.0
H759 H 0.75717 0.52125 1.01468 0.0
H760 H 0.82604 0.5237 0.09427 0.0
H761 H 0.79827 0.52163 0.02137 0.0
H762 H 0.74252 0.44802 0.07411 0.0
H763 H 0.77033 0.45028 0.14827 0.0
C764 C 0.72268 0.46363 0.9199 0.0
C765 C 0.71975 0.48457 0.91129 0.0
C766 C 0.73777 0.46331 0.96274 0.0
C767 C 0.75079 0.48413 0.9974 0.0
C768 C 0.74771 0.50496 0.98872 0.0
C769 C 0.73232 0.50509 0.94679 0.0
C770 C 0.8079 0.50699 0.09046 0.0
C771 C 0.80053 0.48718 0.12752 0.0
C772 C 0.79187 0.50586 0.04862 0.0
C773 C 0.768 0.48469 0.04162 0.0
C774 C 0.76077 0.46458 0.07794 0.0
C775 C 0.77669 0.46592 0.12066 0.0
H776 H 0.28418 0.70555 0.39945 0.0
H777 H 0.22756 0.72345 0.44603 0.0
H778 H 0.31087 0.73172 0.47458 0.0
H779 H 0.25419 0.74972 0.51968 0.0
H780 H 0.31999 0.81737 0.60399 0.0
H781 H 0.29498 0.79045 0.52918 0.0
H782 H 0.31179 0.73383 0.58097 0.0
H783 H 0.3366 0.76076 0.65701 0.0
C784 C 0.27741 0.71505 0.42551 0.0
C785 C 0.2536 0.71228 0.41635 0.0
C786 C 0.29268 0.72999 0.46881 0.0
C787 C 0.28483 0.74303 0.5034 0.0
C788 C 0.26108 0.74025 0.49388 0.0
C789 C 0.24569 0.725 0.45155 0.0
C790 C 0.31848 0.79922 0.59957 0.0
C791 C 0.3304 0.79135 0.63697 0.0
C792 C 0.30397 0.78367 0.5566 0.0
C793 C 0.30119 0.75981 0.5487 0.0
C794 C 0.31356 0.75208 0.58539 0.0
C795 C 0.32772 0.76751 0.62922 0.0
H796 H 0.53858 0.33458 0.06976 0.0
H797 H 0.57336 0.30416 0.17247 0.0
H798 H 0.53982 0.30981 0.99312 0.0
H799 H 0.57396 0.27881 0.09603 0.0
H800 H 0.53799 0.21503 0.96227 0.0
H801 H 0.54052 0.24184 0.03834 0.0
H802 H 0.57208 0.30566 0.93176 0.0
H803 H 0.5702 0.27888 0.85572 0.0
C804 C 0.54657 0.32266 0.07604 0.0
C805 C 0.55592 0.3215 0.12754 0.0
C806 C 0.54736 0.30849 0.0319 0.0
C807 C 0.55696 0.29219 0.03809 0.0
C808 C 0.56632 0.29103 0.08964 0.0
C809 C 0.5661 0.30569 0.13349 0.0
C810 C 0.54566 0.23482 0.955 0.0
C811 C 0.55393 0.24471 0.90259 0.0
C812 C 0.5472 0.25024 0.99882 0.0
C813 C 0.55649 0.276 0.9915 0.0
C814 C 0.56472 0.28592 0.93903 0.0
C815 C 0.56376 0.27057 0.89541 0.0
H816 H 0.33797 0.52675 0.46471 0.0
H817 H 0.31172 0.56442 0.35917 0.0
H818 H 0.31422 0.53063 0.54035 0.0
H819 H 0.28733 0.56762 0.43455 0.0
H820 H 0.22288 0.53486 0.56847 0.0
H821 H 0.24903 0.53551 0.49286 0.0
H822 H 0.31307 0.56584 0.59925 0.0
H823 H 0.28696 0.56592 0.67478 0.0
C824 C 0.32713 0.53586 0.45756 0.0
C825 C 0.32683 0.54527 0.4056 0.0
C826 C 0.31359 0.5382 0.50111 0.0
C827 C 0.2988 0.54946 0.49381 0.0
C828 C 0.29843 0.55879 0.44176 0.0
C829 C 0.31249 0.55702 0.39852 0.0
C830 C 0.24262 0.54203 0.57566 0.0
C831 C 0.25278 0.55049 0.62784 0.0
C832 C 0.25765 0.54243 0.53217 0.0
C833 C 0.28322 0.55066 0.53973 0.0
C834 C 0.29346 0.55928 0.59188 0.0
C835 C 0.27852 0.5595 0.63514 0.0
H836 H 0.73692 0.21996 0.09748 0.0
H837 H 0.71571 0.27422 0.1436 0.0
H838 H 0.76328 0.2475 0.02534 0.0
H839 H 0.74213 0.30193 0.07031 0.0
H840 H 0.77338 0.33053 0.89161 0.0
H841 H 0.74588 0.30453 0.96557 0.0
H842 H 0.80292 0.28833 1.01812 0.0
H843 H 0.83026 0.3143 0.94524 0.0
C844 C 0.7378 0.23778 0.0922 0.0
C845 C 0.72414 0.24479 0.12675 0.0
C846 C 0.75308 0.25369 0.05079 0.0
C847 C 0.75504 0.2771 0.04182 0.0
C848 C 0.74104 0.28402 0.07572 0.0
C849 C 0.72598 0.26818 0.11797 0.0
C850 C 0.78007 0.3215 0.91913 0.0
C851 C 0.80411 0.32457 0.91216 0.0
C852 C 0.76433 0.30667 0.96175 0.0
C853 C 0.77204 0.29412 0.99791 0.0
C854 C 0.79614 0.2974 0.99092 0.0
C855 C 0.81193 0.31246 0.94909 0.0
H856 H 0.46184 0.76324 0.40278 0.0
H857 H 0.53615 0.81961 0.45101 0.0
H858 H 0.46147 0.73583 0.47569 0.0
H859 H 0.5359 0.79236 0.52272 0.0
H860 H 0.53846 0.72687 0.60427 0.0
H861 H 0.53664 0.75251 0.53102 0.0
H862 H 0.46193 0.73296 0.57983 0.0
H863 H 0.46387 0.70738 0.65393 0.0
C864 C 0.47807 0.76981 0.42881 0.0
C865 C 0.49901 0.79373 0.42078 0.0
C866 C 0.47784 0.75413 0.47081 0.0
C867 C 0.49872 0.76173 0.50522 0.0
C868 C 0.51957 0.78564 0.4969 0.0
C869 C 0.51964 0.80139 0.45576 0.0
C870 C 0.52158 0.72793 0.59948 0.0
C871 C 0.50135 0.71501 0.6354 0.0
C872 C 0.52058 0.74279 0.55745 0.0
C873 C 0.49916 0.745 0.54927 0.0
C874 C 0.47868 0.73165 0.58449 0.0
C875 C 0.47984 0.71706 0.62724 0.0
H876 H 0.42699 0.48101 0.18781 0.0
H877 H 0.40158 0.45606 0.35143 0.0
H878 H 0.45032 0.4588 0.18866 0.0
H879 H 0.42424 0.43306 0.35157 0.0
H880 H 0.49066 0.4185 0.354 0.0
H881 H 0.46662 0.44013 0.35391 0.0
H882 H 0.445 0.41749 0.18736 0.0
H883 H 0.46971 0.39673 0.18683 0.0
C884 C 0.42628 0.47071 0.22395 0.0
C885 C 0.41235 0.47041 0.26955 0.0
C886 C 0.4395 0.45772 0.22424 0.0
C887 C 0.43924 0.44406 0.27019 0.0
C888 C 0.42513 0.44357 0.31566 0.0
C889 C 0.41183 0.45651 0.31531 0.0
C890 C 0.4809 0.41826 0.31725 0.0
C891 C 0.48215 0.40576 0.27049 0.0
C892 C 0.46687 0.43045 0.31737 0.0
C893 C 0.45378 0.43059 0.27064 0.0
C894 C 0.455 0.41804 0.22396 0.0
C895 C 0.46896 0.40581 0.22388 0.0
H896 H 0.09325 0.43309 0.76167 0.0
H897 H 0.08956 0.50109 0.76162 0.0
H898 H 0.04776 0.40865 0.75455 0.0
H899 H 0.04422 0.47674 0.75741 0.0
H900 H 0.96451 0.42912 0.70265 0.0
H901 H 1.01001 0.45126 0.69949 0.0
H902 H 1.01069 0.39621 0.80632 0.0
H903 H 0.96518 0.37334 0.80707 0.0
C904 C 0.08278 0.44286 0.76021 0.0
C905 C 0.09519 0.46912 0.76263 0.0
C906 C 0.05662 0.42881 0.75668 0.0
C907 C 0.04215 0.44063 0.75542 0.0
C908 C 0.05463 0.4669 0.75753 0.0
C909 C 0.08072 0.48091 0.7609 0.0
C910 C 0.9743 0.42139 0.72452 0.0
C911 C 0.96101 0.39944 0.75537 0.0
C912 C 1.00049 0.43434 0.72339 0.0
C913 C 1.01419 0.42578 0.75322 0.0
C914 C 1.00089 0.40337 0.78257 0.0
C915 C 0.97469 0.39037 0.78353 0.0
H916 H 0.6541 0.08368 0.35365 0.0
H917 H 0.63186 0.08123 0.18642 0.0
H918 H 0.6321 0.03807 0.35579 0.0
H919 H 0.60963 0.0358 0.18865 0.0
H920 H 0.59051 0.95429 0.19442 0.0
H921 H 0.61454 0.99991 0.19199 0.0
H922 H 0.59097 1.00271 0.35601 0.0
H923 H 0.56738 0.95731 0.35856 0.0
C924 C 0.64442 0.07342 0.31744 0.0
C925 C 0.64489 0.08616 0.26982 0.0
C926 C 0.63174 0.04723 0.31863 0.0
C927 C 0.61903 0.03309 0.27234 0.0
C928 C 0.61956 0.04593 0.22476 0.0
C929 C 0.63232 0.07205 0.22351 0.0
C930 C 0.59044 0.96468 0.22985 0.0
C931 C 0.57715 0.9521 0.27677 0.0
C932 C 0.60419 0.99087 0.2285 0.0
C933 C 0.60484 1.00515 0.27391 0.0
C934 C 0.59142 0.99247 0.32067 0.0
C935 C 0.57781 0.96636 0.3221 0.0
H936 H 0.5452 0.59682 0.73739 0.0
H937 H 0.60989 0.66161 0.8033 0.0
H938 H 0.56827 0.57448 0.73436 0.0
H939 H 0.63304 0.63896 0.80191 0.0
H940 H 0.67387 0.59708 0.74659 0.0
H941 H 0.65243 0.6214 0.74731 0.0
H942 H 0.58357 0.55504 0.79196 0.0
H943 H 0.60481 0.53089 0.78964 0.0
C944 C 0.56433 0.6062 0.75186 0.0
C945 C 0.5756 0.63089 0.77125 0.0
C946 C 0.57761 0.59335 0.75031 0.0
C947 C 0.60252 0.60467 0.76863 0.0
C948 C 0.61399 0.62962 0.78705 0.0
C949 C 0.60071 0.64261 0.78806 0.0
C950 C 0.65415 0.58779 0.75659 0.0
C951 C 0.64097 0.56199 0.76727 0.0
C952 C 0.64184 0.60173 0.75723 0.0
C953 C 0.6161 0.59023 0.76911 0.0
C954 C 0.60318 0.56451 0.78109 0.0
C955 C 0.61539 0.55061 0.77992 0.0
H956 H 0.08966 0.6054 0.33569 0.0
H957 H 0.09302 0.65017 0.19827 0.0
H958 H 0.04427 0.58306 0.3317 0.0
H959 H 0.04727 0.62848 0.19529 0.0
H960 H 0.96421 0.5688 0.17512 0.0
H961 H 1.0099 0.59143 0.17538 0.0
H962 H 1.00935 0.58646 0.35069 0.0
H963 H 0.96384 0.56304 0.34977 0.0
C964 C 0.08062 0.61066 0.30488 0.0
C965 C 0.09498 0.62972 0.26758 0.0
C966 C 0.05447 0.59792 0.30274 0.0
C967 C 0.04175 0.60405 0.26365 0.0
C968 C 0.0562 0.62294 0.22571 0.0
C969 C 0.08249 0.6355 0.22744 0.0
C970 C 0.97393 0.57275 0.21368 0.0
C971 C 0.96038 0.56407 0.26244 0.0
C972 C 1.0002 0.58581 0.21393 0.0
C973 C 1.01365 0.59078 0.26303 0.0
C974 C 0.99991 0.58255 0.31183 0.0
C975 C 0.97371 0.56922 0.31147 0.0
H976 H 0.38306 0.95321 0.79709 0.0
H977 H 0.45119 0.95411 0.75356 0.0
H978 H 0.40539 0.99885 0.79742 0.0
H979 H 0.47339 0.99956 0.75155 0.0
H980 H 0.51325 0.08084 0.80216 0.0
H981 H 0.49027 0.03539 0.80468 0.0
H982 H 0.42428 0.03524 0.74526 0.0
H983 H 0.44723 0.08087 0.74505 0.0
C984 C 0.40279 0.96321 0.78713 0.0
C985 C 0.4154 0.95004 0.77587 0.0
C986 C 0.41564 0.98943 0.787 0.0
C987 C 0.44139 1.00322 0.77476 0.0
C988 C 0.4538 0.98986 0.76257 0.0
C989 C 0.44104 0.9637 0.76348 0.0
C990 C 0.49384 0.07106 0.78946 0.0
C991 C 0.48211 0.08448 0.77309 0.0
C992 C 0.48061 0.0449 0.79064 0.0
C993 C 0.4553 0.0313 0.77474 0.0
C994 C 0.44357 0.04484 0.7586 0.0
C995 C 0.45675 0.07107 0.75818 0.0
loop_
_geom_bond_atom_site_label_1
_geom_bond_atom_site_label_2
_geom_bond_distance
_geom_bond_site_symmetry_2
_ccdc_geom_bond_type
Co0 N4 2.148 . S
Co0 N10 2.128 . S
Co0 N20 2.194 . S
Co0 O25 2.351 . S
Co0 O26 2.155 . S
Co0 O27 2.096 . S
C1 N4 1.301 . S
C1 N5 1.328 . S
C1 H6 0.930 . S
C2 C3 1.333 . S
C2 N4 1.317 . S
C2 H7 0.930 . S
C3 C2 1.333 . S
C3 N5 1.350 . S
C3 H29 0.931 . S
N4 Co0 2.148 . S
N4 C1 1.301 . S
N4 C2 1.317 . S
N5 C1 1.328 . S
N5 C3 1.350 . S
H6 C1 0.930 . S
H7 C2 0.930 . S
C8 O9 1.224 . S
C8 O27 1.247 . S
O9 C8 1.224 . S
N10 Co0 2.128 . S
N10 C11 1.355 . S
N10 C13 1.311 . S
C11 N10 1.355 . S
C11 C12 1.363 . S
C11 H23 0.929 . S
C12 C11 1.363 . S
C12 N14 1.375 . S
C12 H30 0.931 . S
C13 N10 1.311 . S
C13 N14 1.347 . S
C13 H24 0.929 . S
N14 C12 1.375 . S
N14 C13 1.347 . S
C15 C18 1.365 . S
C15 N20 1.328 . S
C15 H21 0.929 . S
C16 C17 1.362 . S
C16 C19 1.378 . S
C16 H31 0.929 . S
C17 C16 1.362 . S
C17 C18 1.366 . S
C18 C15 1.365 . S
C18 C17 1.366 . S
C18 H32 0.930 . S
C19 C16 1.378 . S
C19 N20 1.315 . S
C19 H22 0.930 . S
N20 Co0 2.194 . S
N20 C15 1.328 . S
N20 C19 1.315 . S
H21 C15 0.929 . S
H22 C19 0.930 . S
H23 C11 0.929 . S
H24 C13 0.929 . S
O25 Co0 2.351 . S
O25 C28 1.244 . S
O26 Co0 2.155 . S
O26 C28 1.240 . S
O27 Co0 2.096 . S
O27 C8 1.247 . S
C28 O25 1.244 . S
C28 O26 1.240 . S
H29 C3 0.931 . S
H30 C12 0.931 . S
H31 C16 0.929 . S
H32 C18 0.930 . S
Co33 N37 2.148 . S
Co33 N43 2.128 . S
Co33 N53 2.194 . S
Co33 O58 2.351 . S
Co33 O59 2.155 . S
Co33 O60 2.096 . S
C34 N37 1.301 . S
C34 N38 1.328 . S
C34 H39 0.930 . S
C35 C36 1.333 . S
C35 N37 1.317 . S
C35 H40 0.930 . S
C36 C35 1.333 . S
C36 N38 1.350 . S
C36 H62 0.931 . S
N37 Co33 2.148 . S
N37 C34 1.301 . S
N37 C35 1.317 . S
N38 C34 1.328 . S
N38 C36 1.350 . S
H39 C34 0.930 . S
H40 C35 0.930 . S
C41 O42 1.224 . S
C41 O60 1.247 . S
O42 C41 1.224 . S
N43 Co33 2.128 . S
N43 C44 1.355 . S
N43 C46 1.311 . S
C44 N43 1.355 . S
C44 C45 1.363 . S
C44 H56 0.929 . S
C45 C44 1.363 . S
C45 N47 1.375 . S
C45 H63 0.931 . S
C46 N43 1.311 . S
C46 N47 1.347 . S
C46 H57 0.929 . S
N47 C45 1.375 . S
N47 C46 1.347 . S
C48 C51 1.365 . S
C48 N53 1.328 . S
C48 H54 0.929 . S
C49 C50 1.362 . S
C49 C52 1.378 . S
C49 H64 0.929 . S
C50 C49 1.362 . S
C50 C51 1.366 . S
C51 C48 1.365 . S
C51 C50 1.366 . S
C51 H65 0.930 . S
C52 C49 1.378 . S
C52 N53 1.315 . S
C52 H55 0.930 . S
N53 Co33 2.194 . S
N53 C48 1.328 . S
N53 C52 1.315 . S
H54 C48 0.929 . S
H55 C52 0.930 . S
H56 C44 0.929 . S
H57 C46 0.929 . S
O58 Co33 2.351 . S
O58 C61 1.244 . S
O59 Co33 2.155 . S
O59 C61 1.240 . S
O60 Co33 2.096 . S
O60 C41 1.247 . S
C61 O58 1.244 . S
C61 O59 1.240 . S
H62 C36 0.931 . S
H63 C45 0.931 . S
H64 C49 0.929 . S
H65 C51 0.930 . S
Co66 N70 2.148 . S
Co66 N76 2.128 . S
Co66 N86 2.194 . S
Co66 O91 2.351 . S
Co66 O92 2.155 . S
Co66 O93 2.096 . S
C67 N70 1.301 . S
C67 N71 1.328 . S
C67 H72 0.930 . S
C68 C69 1.333 . S
C68 N70 1.317 . S
C68 H73 0.930 . S
C69 C68 1.333 . S
C69 N71 1.350 . S
C69 H95 0.931 . S
N70 Co66 2.148 . S
N70 C67 1.301 . S
N70 C68 1.317 . S
N71 C67 1.328 . S
N71 C69 1.350 . S
H72 C67 0.930 . S
H73 C68 0.930 . S
C74 O75 1.224 . S
C74 O93 1.247 . S
O75 C74 1.224 . S
N76 Co66 2.128 . S
N76 C77 1.355 . S
N76 C79 1.311 . S
C77 N76 1.355 . S
C77 C78 1.363 . S
C77 H89 0.929 . S
C78 C77 1.363 . S
C78 N80 1.375 . S
C78 H96 0.931 . S
C79 N76 1.311 . S
C79 N80 1.347 . S
C79 H90 0.929 . S
N80 C78 1.375 . S
N80 C79 1.347 . S
C81 C84 1.365 . S
C81 N86 1.328 . S
C81 H87 0.929 . S
C82 C83 1.362 . S
C82 C85 1.378 . S
C82 H97 0.929 . S
C83 C82 1.362 . S
C83 C84 1.366 . S
C84 C81 1.365 . S
C84 C83 1.366 . S
C84 H98 0.930 . S
C85 C82 1.378 . S
C85 N86 1.315 . S
C85 H88 0.930 . S
N86 Co66 2.194 . S
N86 C81 1.328 . S
N86 C85 1.315 . S
H87 C81 0.929 . S
H88 C85 0.930 . S
H89 C77 0.929 . S
H90 C79 0.929 . S
O91 Co66 2.351 . S
O91 C94 1.244 . S
O92 Co66 2.155 . S
O92 C94 1.240 . S
O93 Co66 2.096 . S
O93 C74 1.247 . S
C94 O91 1.244 . S
C94 O92 1.240 . S
H95 C69 0.931 . S
H96 C78 0.931 . S
H97 C82 0.929 . S
H98 C84 0.930 . S
Co99 N103 2.148 . S
Co99 N109 2.128 . S
Co99 N119 2.194 . S
Co99 O124 2.351 . S
Co99 O125 2.155 . S
Co99 O126 2.096 . S
C100 N103 1.301 . S
C100 N104 1.328 . S
C100 H105 0.930 . S
C101 C102 1.333 . S
C101 N103 1.317 . S
C101 H106 0.930 . S
C102 C101 1.333 . S
C102 N104 1.350 . S
C102 H128 0.931 . S
N103 Co99 2.148 . S
N103 C100 1.301 . S
N103 C101 1.317 . S
N104 C100 1.328 . S
N104 C102 1.350 . S
H105 C100 0.930 . S
H106 C101 0.930 . S
C107 O108 1.224 . S
C107 O126 1.247 . S
O108 C107 1.224 . S
N109 Co99 2.128 . S
N109 C110 1.355 . S
N109 C112 1.311 . S
C110 N109 1.355 . S
C110 C111 1.363 . S
C110 H122 0.929 . S
C111 C110 1.363 . S
C111 N113 1.375 . S
C111 H129 0.931 . S
C112 N109 1.311 . S
C112 N113 1.347 . S
C112 H123 0.929 . S
N113 C111 1.375 . S
N113 C112 1.347 . S
C114 C117 1.365 . S
C114 N119 1.328 . S
C114 H120 0.929 . S
C115 C116 1.362 . S
C115 C118 1.378 . S
C115 H130 0.929 . S
C116 C115 1.362 . S
C116 C117 1.366 . S
C117 C114 1.365 . S
C117 C116 1.366 . S
C117 H131 0.930 . S
C118 C115 1.378 . S
C118 N119 1.315 . S
C118 H121 0.930 . S
N119 Co99 2.194 . S
N119 C114 1.328 . S
N119 C118 1.315 . S
H120 C114 0.929 . S
H121 C118 0.930 . S
H122 C110 0.929 . S
H123 C112 0.929 . S
O124 Co99 2.351 . S
O124 C127 1.244 . S
O125 Co99 2.155 . S
O125 C127 1.240 . S
O126 Co99 2.096 . S
O126 C107 1.247 . S
C127 O124 1.244 . S
C127 O125 1.240 . S
H128 C102 0.931 . S
H129 C111 0.931 . S
H130 C115 0.929 . S
H131 C117 0.930 . S
Co132 N136 2.148 . S
Co132 N142 2.128 . S
Co132 N152 2.194 . S
Co132 O157 2.351 . S
Co132 O158 2.155 . S
Co132 O159 2.096 . S
C133 N136 1.301 . S
C133 N137 1.328 . S
C133 H138 0.930 . S
C134 C135 1.333 . S
C134 N136 1.317 . S
C134 H139 0.930 . S
C135 C134 1.333 . S
C135 N137 1.350 . S
C135 H161 0.931 . S
N136 Co132 2.148 . S
N136 C133 1.301 . S
N136 C134 1.317 . S
N137 C133 1.328 . S
N137 C135 1.350 . S
H138 C133 0.930 . S
H139 C134 0.930 . S
C140 O141 1.224 . S
C140 O159 1.247 . S
O141 C140 1.224 . S
N142 Co132 2.128 . S
N142 C143 1.355 . S
N142 C145 1.311 . S
C143 N142 1.355 . S
C143 C144 1.363 . S
C143 H155 0.929 . S
C144 C143 1.363 . S
C144 N146 1.375 . S
C144 H162 0.931 . S
C145 N142 1.311 . S
C145 N146 1.347 . S
C145 H156 0.929 . S
N146 C144 1.375 . S
N146 C145 1.347 . S
C147 C150 1.365 . S
C147 N152 1.328 . S
C147 H153 0.929 . S
C148 C149 1.362 . S
C148 C151 1.378 . S
C148 H163 0.929 . S
C149 C148 1.362 . S
C149 C150 1.366 . S
C150 C147 1.365 . S
C150 C149 1.366 . S
C150 H164 0.930 . S
C151 C148 1.378 . S
C151 N152 1.315 . S
C151 H154 0.930 . S
N152 Co132 2.194 . S
N152 C147 1.328 . S
N152 C151 1.315 . S
H153 C147 0.929 . S
H154 C151 0.930 . S
H155 C143 0.929 . S
H156 C145 0.929 . S
O157 Co132 2.351 . S
O157 C160 1.244 . S
O158 Co132 2.155 . S
O158 C160 1.240 . S
O159 Co132 2.096 . S
O159 C140 1.247 . S
C160 O157 1.244 . S
C160 O158 1.240 . S
H161 C135 0.931 . S
H162 C144 0.931 . S
H163 C148 0.929 . S
H164 C150 0.930 . S
Co165 N169 2.148 . S
Co165 N175 2.128 . S
Co165 N185 2.194 . S
Co165 O190 2.351 . S
Co165 O191 2.155 . S
Co165 O192 2.096 . S
C166 N169 1.301 . S
C166 N170 1.328 . S
C166 H171 0.930 . S
C167 C168 1.333 . S
C167 N169 1.317 . S
C167 H172 0.930 . S
C168 C167 1.333 . S
C168 N170 1.350 . S
C168 H194 0.931 . S
N169 Co165 2.148 . S
N169 C166 1.301 . S
N169 C167 1.317 . S
N170 C166 1.328 . S
N170 C168 1.350 . S
H171 C166 0.930 . S
H172 C167 0.930 . S
C173 O174 1.224 . S
C173 O192 1.247 . S
O174 C173 1.224 . S
N175 Co165 2.128 . S
N175 C176 1.355 . S
N175 C178 1.311 . S
C176 N175 1.355 . S
C176 C177 1.363 . S
C176 H188 0.929 . S
C177 C176 1.363 . S
C177 N179 1.375 . S
C177 H195 0.931 . S
C178 N175 1.311 . S
C178 N179 1.347 . S
C178 H189 0.929 . S
N179 C177 1.375 . S
N179 C178 1.347 . S
C180 C183 1.365 . S
C180 N185 1.328 . S
C180 H186 0.929 . S
C181 C182 1.362 . S
C181 C184 1.378 . S
C181 H196 0.929 . S
C182 C181 1.362 . S
C182 C183 1.366 . S
C183 C180 1.365 . S
C183 C182 1.366 . S
C183 H197 0.930 . S
C184 C181 1.378 . S
C184 N185 1.315 . S
C184 H187 0.930 . S
N185 Co165 2.194 . S
N185 C180 1.328 . S
N185 C184 1.315 . S
H186 C180 0.929 . S
H187 C184 0.930 . S
H188 C176 0.929 . S
H189 C178 0.929 . S
O190 Co165 2.351 . S
O190 C193 1.244 . S
O191 Co165 2.155 . S
O191 C193 1.240 . S
O192 Co165 2.096 . S
O192 C173 1.247 . S
C193 O190 1.244 . S
C193 O191 1.240 . S
H194 C168 0.931 . S
H195 C177 0.931 . S
H196 C181 0.929 . S
H197 C183 0.930 . S
Co198 N202 2.148 . S
Co198 N208 2.128 . S
Co198 N218 2.194 . S
Co198 O223 2.351 . S
Co198 O224 2.155 . S
Co198 O225 2.096 . S
C199 N202 1.301 . S
C199 N203 1.328 . S
C199 H204 0.930 . S
C200 C201 1.333 . S
C200 N202 1.317 . S
C200 H205 0.930 . S
C201 C200 1.333 . S
C201 N203 1.350 . S
C201 H227 0.931 . S
N202 Co198 2.148 . S
N202 C199 1.301 . S
N202 C200 1.317 . S
N203 C199 1.328 . S
N203 C201 1.350 . S
H204 C199 0.930 . S
H205 C200 0.930 . S
C206 O207 1.224 . S
C206 O225 1.247 . S
O207 C206 1.224 . S
N208 Co198 2.128 . S
N208 C209 1.355 . S
N208 C211 1.311 . S
C209 N208 1.355 . S
C209 C210 1.363 . S
C209 H221 0.929 . S
C210 C209 1.363 . S
C210 N212 1.375 . S
C210 H228 0.931 . S
C211 N208 1.311 . S
C211 N212 1.347 . S
C211 H222 0.929 . S
N212 C210 1.375 . S
N212 C211 1.347 . S
C213 C216 1.365 . S
C213 N218 1.328 . S
C213 H219 0.929 . S
C214 C215 1.362 . S
C214 C217 1.378 . S
C214 H229 0.929 . S
C215 C214 1.362 . S
C215 C216 1.366 . S
C216 C213 1.365 . S
C216 C215 1.366 . S
C216 H230 0.930 . S
C217 C214 1.378 . S
C217 N218 1.315 . S
C217 H220 0.930 . S
N218 Co198 2.194 . S
N218 C213 1.328 . S
N218 C217 1.315 . S
H219 C213 0.929 . S
H220 C217 0.930 . S
H221 C209 0.929 . S
H222 C211 0.929 . S
O223 Co198 2.351 . S
O223 C226 1.244 . S
O224 Co198 2.155 . S
O224 C226 1.240 . S
O225 Co198 2.096 . S
O225 C206 1.247 . S
C226 O223 1.244 . S
C226 O224 1.240 . S
H227 C201 0.931 . S
H228 C210 0.931 . S
H229 C214 0.929 . S
H230 C216 0.930 . S
Co231 N235 2.148 . S
Co231 N241 2.128 . S
Co231 N251 2.194 . S
Co231 O256 2.351 . S
Co231 O257 2.155 . S
Co231 O258 2.096 . S
C232 N235 1.301 . S
C232 N236 1.328 . S
C232 H237 0.930 . S
C233 C234 1.333 . S
C233 N235 1.317 . S
C233 H238 0.930 . S
C234 C233 1.333 . S
C234 N236 1.350 . S
C234 H260 0.931 . S
N235 Co231 2.148 . S
N235 C232 1.301 . S
N235 C233 1.317 . S
N236 C232 1.328 . S
N236 C234 1.350 . S
H237 C232 0.930 . S
H238 C233 0.930 . S
C239 O240 1.224 . S
C239 O258 1.247 . S
O240 C239 1.224 . S
N241 Co231 2.128 . S
N241 C242 1.355 . S
N241 C244 1.311 . S
C242 N241 1.355 . S
C242 C243 1.363 . S
C242 H254 0.929 . S
C243 C242 1.363 . S
C243 N245 1.375 . S
C243 H261 0.931 . S
C244 N241 1.311 . S
C244 N245 1.347 . S
C244 H255 0.929 . S
N245 C243 1.375 . S
N245 C244 1.347 . S
C246 C249 1.365 . S
C246 N251 1.328 . S
C246 H252 0.929 . S
C247 C248 1.362 . S
C247 C250 1.378 . S
C247 H262 0.929 . S
C248 C247 1.362 . S
C248 C249 1.366 . S
C249 C246 1.365 . S
C249 C248 1.366 . S
C249 H263 0.930 . S
C250 C247 1.378 . S
C250 N251 1.315 . S
C250 H253 0.930 . S
N251 Co231 2.194 . S
N251 C246 1.328 . S
N251 C250 1.315 . S
H252 C246 0.929 . S
H253 C250 0.930 . S
H254 C242 0.929 . S
H255 C244 0.929 . S
O256 Co231 2.351 . S
O256 C259 1.244 . S
O257 Co231 2.155 . S
O257 C259 1.240 . S
O258 Co231 2.096 . S
O258 C239 1.247 . S
C259 O256 1.244 . S
C259 O257 1.240 . S
H260 C234 0.931 . S
H261 C243 0.931 . S
H262 C247 0.929 . S
H263 C249 0.930 . S
Co264 N268 2.148 . S
Co264 N274 2.128 . S
Co264 N284 2.194 . S
Co264 O289 2.351 . S
Co264 O290 2.155 . S
Co264 O291 2.096 . S
C265 N268 1.301 . S
C265 N269 1.328 . S
C265 H270 0.930 . S
C266 C267 1.333 . S
C266 N268 1.317 . S
C266 H271 0.930 . S
C267 C266 1.333 . S
C267 N269 1.350 . S
C267 H293 0.931 . S
N268 Co264 2.148 . S
N268 C265 1.301 . S
N268 C266 1.317 . S
N269 C265 1.328 . S
N269 C267 1.350 . S
H270 C265 0.930 . S
H271 C266 0.930 . S
C272 O273 1.224 . S
C272 O291 1.247 . S
O273 C272 1.224 . S
N274 Co264 2.128 . S
N274 C275 1.355 . S
N274 C277 1.311 . S
C275 N274 1.355 . S
C275 C276 1.363 . S
C275 H287 0.929 . S
C276 C275 1.363 . S
C276 N278 1.375 . S
C276 H294 0.931 . S
C277 N274 1.311 . S
C277 N278 1.347 . S
C277 H288 0.929 . S
N278 C276 1.375 . S
N278 C277 1.347 . S
C279 C282 1.365 . S
C279 N284 1.328 . S
C279 H285 0.929 . S
C280 C281 1.362 . S
C280 C283 1.378 . S
C280 H295 0.929 . S
C281 C280 1.362 . S
C281 C282 1.366 . S
C282 C279 1.365 . S
C282 C281 1.366 . S
C282 H296 0.930 . S
C283 C280 1.378 . S
C283 N284 1.315 . S
C283 H286 0.930 . S
N284 Co264 2.194 . S
N284 C279 1.328 . S
N284 C283 1.315 . S
H285 C279 0.929 . S
H286 C283 0.930 . S
H287 C275 0.929 . S
H288 C277 0.929 . S
O289 Co264 2.351 . S
O289 C292 1.244 . S
O290 Co264 2.155 . S
O290 C292 1.240 . S
O291 Co264 2.096 . S
O291 C272 1.247 . S
C292 O289 1.244 . S
C292 O290 1.240 . S
H293 C267 0.931 . S
H294 C276 0.931 . S
H295 C280 0.929 . S
H296 C282 0.930 . S
Co297 N301 2.148 . S
Co297 N307 2.128 . S
Co297 N317 2.194 . S
Co297 O322 2.351 . S
Co297 O323 2.155 . S
Co297 O324 2.096 . S
C298 N301 1.301 . S
C298 N302 1.328 . S
C298 H303 0.930 . S
C299 C300 1.333 . S
C299 N301 1.317 . S
C299 H304 0.930 . S
C300 C299 1.333 . S
C300 N302 1.350 . S
C300 H326 0.931 . S
N301 Co297 2.148 . S
N301 C298 1.301 . S
N301 C299 1.317 . S
N302 C298 1.328 . S
N302 C300 1.350 . S
H303 C298 0.930 . S
H304 C299 0.930 . S
C305 O306 1.224 . S
C305 O324 1.247 . S
O306 C305 1.224 . S
N307 Co297 2.128 . S
N307 C308 1.355 . S
N307 C310 1.311 . S
C308 N307 1.355 . S
C308 C309 1.363 . S
C308 H320 0.929 . S
C309 C308 1.363 . S
C309 N311 1.375 . S
C309 H327 0.931 . S
C310 N307 1.311 . S
C310 N311 1.347 . S
C310 H321 0.929 . S
N311 C309 1.375 . S
N311 C310 1.347 . S
C312 C315 1.365 . S
C312 N317 1.328 . S
C312 H318 0.929 . S
C313 C314 1.362 . S
C313 C316 1.378 . S
C313 H328 0.929 . S
C314 C313 1.362 . S
C314 C315 1.366 . S
C315 C312 1.365 . S
C315 C314 1.366 . S
C315 H329 0.930 . S
C316 C313 1.378 . S
C316 N317 1.315 . S
C316 H319 0.930 . S
N317 Co297 2.194 . S
N317 C312 1.328 . S
N317 C316 1.315 . S
H318 C312 0.929 . S
H319 C316 0.930 . S
H320 C308 0.929 . S
H321 C310 0.929 . S
O322 Co297 2.351 . S
O322 C325 1.244 . S
O323 Co297 2.155 . S
O323 C325 1.240 . S
O324 Co297 2.096 . S
O324 C305 1.247 . S
C325 O322 1.244 . S
C325 O323 1.240 . S
H326 C300 0.931 . S
H327 C309 0.931 . S
H328 C313 0.929 . S
H329 C315 0.930 . S
Co330 N334 2.148 . S
Co330 N340 2.128 . S
Co330 N350 2.194 . S
Co330 O355 2.351 . S
Co330 O356 2.155 . S
Co330 O357 2.096 . S
C331 N334 1.301 . S
C331 N335 1.328 . S
C331 H336 0.930 . S
C332 C333 1.333 . S
C332 N334 1.317 . S
C332 H337 0.930 . S
C333 C332 1.333 . S
C333 N335 1.350 . S
C333 H359 0.931 . S
N334 Co330 2.148 . S
N334 C331 1.301 . S
N334 C332 1.317 . S
N335 C331 1.328 . S
N335 C333 1.350 . S
H336 C331 0.930 . S
H337 C332 0.930 . S
C338 O339 1.224 . S
C338 O357 1.247 . S
O339 C338 1.224 . S
N340 Co330 2.128 . S
N340 C341 1.355 . S
N340 C343 1.311 . S
C341 N340 1.355 . S
C341 C342 1.363 . S
C341 H353 0.929 . S
C342 C341 1.363 . S
C342 N344 1.375 . S
C342 H360 0.931 . S
C343 N340 1.311 . S
C343 N344 1.347 . S
C343 H354 0.929 . S
N344 C342 1.375 . S
N344 C343 1.347 . S
C345 C348 1.365 . S
C345 N350 1.328 . S
C345 H351 0.929 . S
C346 C347 1.362 . S
C346 C349 1.378 . S
C346 H361 0.929 . S
C347 C346 1.362 . S
C347 C348 1.366 . S
C348 C345 1.365 . S
C348 C347 1.366 . S
C348 H362 0.930 . S
C349 C346 1.378 . S
C349 N350 1.315 . S
C349 H352 0.930 . S
N350 Co330 2.194 . S
N350 C345 1.328 . S
N350 C349 1.315 . S
H351 C345 0.929 . S
H352 C349 0.930 . S
H353 C341 0.929 . S
H354 C343 0.929 . S
O355 Co330 2.351 . S
O355 C358 1.244 . S
O356 Co330 2.155 . S
O356 C358 1.240 . S
O357 Co330 2.096 . S
O357 C338 1.247 . S
C358 O355 1.244 . S
C358 O356 1.240 . S
H359 C333 0.931 . S
H360 C342 0.931 . S
H361 C346 0.929 . S
H362 C348 0.930 . S
Co363 N367 2.148 . S
Co363 N373 2.128 . S
Co363 N383 2.194 . S
Co363 O388 2.351 . S
Co363 O389 2.155 . S
Co363 O390 2.096 . S
C364 N367 1.301 . S
C364 N368 1.328 . S
C364 H369 0.930 . S
C365 C366 1.333 . S
C365 N367 1.317 . S
C365 H370 0.930 . S
C366 C365 1.333 . S
C366 N368 1.350 . S
C366 H392 0.931 . S
N367 Co363 2.148 . S
N367 C364 1.301 . S
N367 C365 1.317 . S
N368 C364 1.328 . S
N368 C366 1.350 . S
H369 C364 0.930 . S
H370 C365 0.930 . S
C371 O372 1.224 . S
C371 O390 1.247 . S
O372 C371 1.224 . S
N373 Co363 2.128 . S
N373 C374 1.355 . S
N373 C376 1.311 . S
C374 N373 1.355 . S
C374 C375 1.363 . S
C374 H386 0.929 . S
C375 C374 1.363 . S
C375 N377 1.375 . S
C375 H393 0.931 . S
C376 N373 1.311 . S
C376 N377 1.347 . S
C376 H387 0.929 . S
N377 C375 1.375 . S
N377 C376 1.347 . S
C378 C381 1.365 . S
C378 N383 1.328 . S
C378 H384 0.929 . S
C379 C380 1.362 . S
C379 C382 1.378 . S
C379 H394 0.929 . S
C380 C379 1.362 . S
C380 C381 1.366 . S
C381 C378 1.365 . S
C381 C380 1.366 . S
C381 H395 0.930 . S
C382 C379 1.378 . S
C382 N383 1.315 . S
C382 H385 0.930 . S
N383 Co363 2.194 . S
N383 C378 1.328 . S
N383 C382 1.315 . S
H384 C378 0.929 . S
H385 C382 0.930 . S
H386 C374 0.929 . S
H387 C376 0.929 . S
O388 Co363 2.351 . S
O388 C391 1.244 . S
O389 Co363 2.155 . S
O389 C391 1.240 . S
O390 Co363 2.096 . S
O390 C371 1.247 . S
C391 O388 1.244 . S
C391 O389 1.240 . S
H392 C366 0.931 . S
H393 C375 0.931 . S
H394 C379 0.929 . S
H395 C381 0.930 . S
H396 C404 0.950 . S
H397 C409 0.950 . S
H398 C406 0.950 . S
H399 C408 0.950 . S
H400 C410 0.950 . S
H401 C412 0.950 . S
H402 C414 0.950 . S
H403 C415 0.950 . S
C404 H396 0.950 . S
C404 C405 1.386 . S
C404 C406 1.391 . S
C405 C404 1.386 . S
C405 C409 1.393 . S
C406 H398 0.950 . S
C406 C404 1.391 . S
C406 C407 1.400 . S
C407 C406 1.400 . S
C407 C408 1.398 . S
C407 C413 1.491 1_554 S
C408 H399 0.950 . S
C408 C407 1.398 . S
C408 C409 1.391 . S
C409 H397 0.950 . S
C409 C405 1.393 . S
C409 C408 1.391 . S
C410 H400 0.950 . S
C410 C411 1.386 . S
C410 C412 1.391 . S
C411 C410 1.386 . S
C411 C415 1.393 . S
C412 H401 0.950 . S
C412 C410 1.391 . S
C412 C413 1.400 . S
C413 C407 1.491 1_556 S
C413 C412 1.400 . S
C413 C414 1.398 . S
C414 H402 0.950 . S
C414 C413 1.398 . S
C414 C415 1.391 . S
C415 H403 0.950 . S
C415 C411 1.393 . S
C415 C414 1.391 . S
H416 C424 0.950 . S
H417 C429 0.950 . S
H418 C426 0.950 . S
H419 C428 0.950 . S
H420 C430 0.950 . S
H421 C432 0.950 . S
H422 C434 0.950 . S
H423 C435 0.950 . S
C424 H416 0.950 . S
C424 C425 1.386 . S
C424 C426 1.391 . S
C425 C424 1.386 . S
C425 C429 1.393 . S
C426 H418 0.950 . S
C426 C424 1.391 . S
C426 C427 1.400 . S
C427 C426 1.400 . S
C427 C428 1.398 . S
C427 C433 1.491 . S
C428 H419 0.950 . S
C428 C427 1.398 . S
C428 C429 1.391 . S
C429 H417 0.950 . S
C429 C425 1.393 . S
C429 C428 1.391 . S
C430 H420 0.950 . S
C430 C431 1.386 . S
C430 C432 1.391 . S
C431 C430 1.386 . S
C431 C435 1.393 . S
C432 H421 0.950 . S
C432 C430 1.391 . S
C432 C433 1.400 . S
C433 C427 1.491 . S
C433 C432 1.400 . S
C433 C434 1.398 . S
C434 H422 0.950 . S
C434 C433 1.398 . S
C434 C435 1.391 . S
C435 H423 0.950 . S
C435 C431 1.393 . S
C435 C434 1.391 . S
H436 C444 0.950 . S
H437 C449 0.950 . S
H438 C446 0.950 1_556 S
H439 C448 0.950 . S
H440 C450 0.950 . S
H441 C452 0.950 1_554 S
H442 C454 0.950 . S
H443 C455 0.950 . S
C444 H436 0.950 . S
C444 C445 1.386 . S
C444 C446 1.391 . S
C445 C444 1.386 . S
C445 C449 1.393 . S
C446 H438 0.950 1_554 S
C446 C444 1.391 . S
C446 C447 1.400 . S
C447 C446 1.400 . S
C447 C448 1.398 . S
C447 C453 1.491 1_554 S
C448 H439 0.950 . S
C448 C447 1.398 . S
C448 C449 1.391 . S
C449 H437 0.950 . S
C449 C445 1.393 . S
C449 C448 1.391 . S
C450 H440 0.950 . S
C450 C451 1.386 . S
C450 C452 1.391 . S
C451 C450 1.386 . S
C451 C455 1.393 . S
C452 H441 0.950 1_556 S
C452 C450 1.391 . S
C452 C453 1.400 . S
C453 C447 1.491 1_556 S
C453 C452 1.400 . S
C453 C454 1.398 . S
C454 H442 0.950 . S
C454 C453 1.398 . S
C454 C455 1.391 . S
C455 H443 0.950 . S
C455 C451 1.393 . S
C455 C454 1.391 . S
H456 C464 0.950 . S
H457 C469 0.950 . S
H458 C466 0.950 . S
H459 C468 0.950 . S
H460 C470 0.950 . S
H461 C472 0.950 . S
H462 C474 0.950 . S
H463 C475 0.950 . S
C464 H456 0.950 . S
C464 C465 1.386 . S
C464 C466 1.391 . S
C465 C464 1.386 . S
C465 C469 1.393 . S
C466 H458 0.950 . S
C466 C464 1.391 . S
C466 C467 1.400 . S
C467 C466 1.400 . S
C467 C468 1.398 . S
C467 C473 1.491 . S
C468 H459 0.950 . S
C468 C467 1.398 . S
C468 C469 1.391 . S
C469 H457 0.950 . S
C469 C465 1.393 . S
C469 C468 1.391 . S
C470 H460 0.950 . S
C470 C471 1.386 . S
C470 C472 1.391 . S
C471 C470 1.386 . S
C471 C475 1.393 . S
C472 H461 0.950 . S
C472 C470 1.391 . S
C472 C473 1.400 . S
C473 C467 1.491 . S
C473 C472 1.400 . S
C473 C474 1.398 . S
C474 H462 0.950 . S
C474 C473 1.398 . S
C474 C475 1.391 . S
C475 H463 0.950 . S
C475 C471 1.393 . S
C475 C474 1.391 . S
H476 C484 0.950 . S
H477 C489 0.950 . S
H478 C486 0.950 . S
H479 C488 0.950 1_556 S
H480 C490 0.950 . S
H481 C492 0.950 . S
H482 C494 0.950 1_554 S
H483 C495 0.950 . S
C484 H476 0.950 . S
C484 C485 1.386 . S
C484 C486 1.391 . S
C485 C484 1.386 . S
C485 C489 1.393 . S
C486 H478 0.950 . S
C486 C484 1.391 . S
C486 C487 1.400 . S
C487 C486 1.400 . S
C487 C488 1.398 . S
C487 C493 1.491 1_554 S
C488 H479 0.950 1_554 S
C488 C487 1.398 . S
C488 C489 1.391 . S
C489 H477 0.950 . S
C489 C485 1.393 . S
C489 C488 1.391 . S
C490 H480 0.950 . S
C490 C491 1.386 . S
C490 C492 1.391 . S
C491 C490 1.386 . S
C491 C495 1.393 . S
C492 H481 0.950 . S
C492 C490 1.391 . S
C492 C493 1.400 . S
C493 C487 1.491 1_556 S
C493 C492 1.400 . S
C493 C494 1.398 . S
C494 H482 0.950 1_556 S
C494 C493 1.398 . S
C494 C495 1.391 . S
C495 H483 0.950 . S
C495 C491 1.393 . S
C495 C494 1.391 . S
H496 C504 0.950 . S
H497 C509 0.950 . S
H498 C506 0.950 . S
H499 C508 0.950 . S
H500 C510 0.950 . S
H501 C512 0.950 . S
H502 C514 0.950 . S
H503 C515 0.950 . S
C504 H496 0.950 . S
C504 C505 1.386 . S
C504 C506 1.391 . S
C505 C504 1.386 . S
C505 C509 1.393 . S
C506 H498 0.950 . S
C506 C504 1.391 . S
C506 C507 1.400 . S
C507 C506 1.400 . S
C507 C508 1.398 . S
C507 C513 1.491 . S
C508 H499 0.950 . S
C508 C507 1.398 . S
C508 C509 1.391 . S
C509 H497 0.950 . S
C509 C505 1.393 . S
C509 C508 1.391 . S
C510 H500 0.950 . S
C510 C511 1.386 . S
C510 C512 1.391 . S
C511 C510 1.386 . S
C511 C515 1.393 . S
C512 H501 0.950 . S
C512 C510 1.391 . S
C512 C513 1.400 . S
C513 C507 1.491 . S
C513 C512 1.400 . S
C513 C514 1.398 . S
C514 H502 0.950 . S
C514 C513 1.398 . S
C514 C515 1.391 . S
C515 H503 0.950 . S
C515 C511 1.393 . S
C515 C514 1.391 . S
H516 C524 0.950 . S
H517 C529 0.950 . S
H518 C526 0.950 . S
H519 C528 0.950 . S
H520 C530 0.950 . S
H521 C532 0.950 . S
H522 C534 0.950 . S
H523 C535 0.950 . S
C524 H516 0.950 . S
C524 C525 1.386 . S
C524 C526 1.391 . S
C525 C524 1.386 . S
C525 C529 1.393 . S
C526 H518 0.950 . S
C526 C524 1.391 . S
C526 C527 1.400 . S
C527 C526 1.400 . S
C527 C528 1.398 . S
C527 C533 1.491 1_554 S
C528 H519 0.950 . S
C528 C527 1.398 . S
C528 C529 1.391 . S
C529 H517 0.950 . S
C529 C525 1.393 . S
C529 C528 1.391 . S
C530 H520 0.950 . S
C530 C531 1.386 . S
C530 C532 1.391 . S
C531 C530 1.386 . S
C531 C535 1.393 . S
C532 H521 0.950 . S
C532 C530 1.391 . S
C532 C533 1.400 . S
C533 C527 1.491 1_556 S
C533 C532 1.400 . S
C533 C534 1.398 . S
C534 H522 0.950 . S
C534 C533 1.398 . S
C534 C535 1.391 . S
C535 H523 0.950 . S
C535 C531 1.393 . S
C535 C534 1.391 . S
H536 C544 0.950 . S
H537 C549 0.950 . S
H538 C546 0.950 . S
H539 C548 0.950 . S
H540 C550 0.950 . S
H541 C552 0.950 . S
H542 C554 0.950 . S
H543 C555 0.950 . S
C544 H536 0.950 . S
C544 C545 1.386 . S
C544 C546 1.391 . S
C545 C544 1.386 . S
C545 C549 1.393 . S
C546 H538 0.950 . S
C546 C544 1.391 . S
C546 C547 1.400 . S
C547 C546 1.400 . S
C547 C548 1.398 . S
C547 C553 1.491 . S
C548 H539 0.950 . S
C548 C547 1.398 . S
C548 C549 1.391 . S
C549 H537 0.950 . S
C549 C545 1.393 . S
C549 C548 1.391 . S
C550 H540 0.950 . S
C550 C551 1.386 . S
C550 C552 1.391 . S
C551 C550 1.386 . S
C551 C555 1.393 . S
C552 H541 0.950 . S
C552 C550 1.391 . S
C552 C553 1.400 . S
C553 C547 1.491 . S
C553 C552 1.400 . S
C553 C554 1.398 . S
C554 H542 0.950 . S
C554 C553 1.398 . S
C554 C555 1.391 . S
C555 H543 0.950 . S
C555 C551 1.393 . S
C555 C554 1.391 . S
H556 C564 0.950 . S
H557 C569 0.950 . S
H558 C566 0.950 1_556 S
H559 C568 0.950 . S
H560 C570 0.950 . S
H561 C572 0.950 1_554 S
H562 C574 0.950 . S
H563 C575 0.950 . S
C564 H556 0.950 . S
C564 C565 1.386 . S
C564 C566 1.391 . S
C565 C564 1.386 . S
C565 C569 1.393 . S
C566 H558 0.950 1_554 S
C566 C564 1.391 . S
C566 C567 1.400 . S
C567 C566 1.400 . S
C567 C568 1.398 . S
C567 C573 1.491 1_554 S
C568 H559 0.950 . S
C568 C567 1.398 . S
C568 C569 1.391 . S
C569 H557 0.950 . S
C569 C565 1.393 . S
C569 C568 1.391 . S
C570 H560 0.950 . S
C570 C571 1.386 . S
C570 C572 1.391 . S
C571 C570 1.386 . S
C571 C575 1.393 . S
C572 H561 0.950 1_556 S
C572 C570 1.391 . S
C572 C573 1.400 . S
C573 C567 1.491 1_556 S
C573 C572 1.400 . S
C573 C574 1.398 . S
C574 H562 0.950 . S
C574 C573 1.398 . S
C574 C575 1.391 . S
C575 H563 0.950 . S
C575 C571 1.393 . S
C575 C574 1.391 . S
H576 C584 0.950 . S
H577 C589 0.950 . S
H578 C586 0.950 . S
H579 C588 0.950 . S
H580 C590 0.950 . S
H581 C592 0.950 . S
H582 C594 0.950 . S
H583 C595 0.950 . S
C584 H576 0.950 . S
C584 C585 1.386 . S
C584 C586 1.391 . S
C585 C584 1.386 . S
C585 C589 1.393 . S
C586 H578 0.950 . S
C586 C584 1.391 . S
C586 C587 1.400 . S
C587 C586 1.400 . S
C587 C588 1.398 . S
C587 C593 1.491 . S
C588 H579 0.950 . S
C588 C587 1.398 . S
C588 C589 1.391 . S
C589 H577 0.950 . S
C589 C585 1.393 . S
C589 C588 1.391 . S
C590 H580 0.950 . S
C590 C591 1.386 . S
C590 C592 1.391 . S
C591 C590 1.386 . S
C591 C595 1.393 . S
C592 H581 0.950 . S
C592 C590 1.391 . S
C592 C593 1.400 . S
C593 C587 1.491 . S
C593 C592 1.400 . S
C593 C594 1.398 . S
C594 H582 0.950 . S
C594 C593 1.398 . S
C594 C595 1.391 . S
C595 H583 0.950 . S
C595 C591 1.393 . S
C595 C594 1.391 . S
H596 C604 0.950 . S
H597 C609 0.950 . S
H598 C606 0.950 1_556 S
H599 C608 0.950 . S
H600 C610 0.950 . S
H601 C612 0.950 1_554 S
H602 C614 0.950 . S
H603 C615 0.950 . S
C604 H596 0.950 . S
C604 C605 1.386 . S
C604 C606 1.391 . S
C605 C604 1.386 . S
C605 C609 1.393 . S
C606 H598 0.950 1_554 S
C606 C604 1.391 . S
C606 C607 1.400 . S
C607 C606 1.400 . S
C607 C608 1.398 . S
C607 C613 1.491 1_554 S
C608 H599 0.950 . S
C608 C607 1.398 . S
C608 C609 1.391 . S
C609 H597 0.950 . S
C609 C605 1.393 . S
C609 C608 1.391 . S
C610 H600 0.950 . S
C610 C611 1.386 . S
C610 C612 1.391 . S
C611 C610 1.386 . S
C611 C615 1.393 . S
C612 H601 0.950 1_556 S
C612 C610 1.391 . S
C612 C613 1.400 . S
C613 C607 1.491 1_556 S
C613 C612 1.400 . S
C613 C614 1.398 . S
C614 H602 0.950 . S
C614 C613 1.398 . S
C614 C615 1.391 . S
C615 H603 0.950 . S
C615 C611 1.393 . S
C615 C614 1.391 . S
H616 C624 0.950 . S
H617 C629 0.950 . S
H618 C626 0.950 . S
H619 C628 0.950 . S
H620 C630 0.950 . S
H621 C632 0.950 . S
H622 C634 0.950 . S
H623 C635 0.950 . S
C624 H616 0.950 . S
C624 C625 1.386 . S
C624 C626 1.391 . S
C625 C624 1.386 . S
C625 C629 1.393 . S
C626 H618 0.950 . S
C626 C624 1.391 . S
C626 C627 1.400 . S
C627 C626 1.400 . S
C627 C628 1.398 . S
C627 C633 1.491 . S
C628 H619 0.950 . S
C628 C627 1.398 . S
C628 C629 1.391 . S
C629 H617 0.950 . S
C629 C625 1.393 . S
C629 C628 1.391 . S
C630 H620 0.950 . S
C630 C631 1.386 . S
C630 C632 1.391 . S
C631 C630 1.386 . S
C631 C635 1.393 . S
C632 H621 0.950 . S
C632 C630 1.391 . S
C632 C633 1.400 . S
C633 C627 1.491 . S
C633 C632 1.400 . S
C633 C634 1.398 . S
C634 H622 0.950 . S
C634 C633 1.398 . S
C634 C635 1.391 . S
C635 H623 0.950 . S
C635 C631 1.393 . S
C635 C634 1.391 . S
H636 C644 0.950 . S
H637 C649 0.950 . S
H638 C646 0.950 . S
H639 C648 0.950 1_554 S
H640 C650 0.950 . S
H641 C652 0.950 . S
H642 C654 0.950 1_556 S
H643 C655 0.950 . S
C644 H636 0.950 . S
C644 C645 1.386 . S
C644 C646 1.391 . S
C645 C644 1.386 . S
C645 C649 1.393 . S
C646 H638 0.950 . S
C646 C644 1.391 . S
C646 C647 1.400 . S
C647 C646 1.400 . S
C647 C648 1.398 . S
C647 C653 1.491 1_556 S
C648 H639 0.950 1_556 S
C648 C647 1.398 . S
C648 C649 1.391 . S
C649 H637 0.950 . S
C649 C645 1.393 . S
C649 C648 1.391 . S
C650 H640 0.950 . S
C650 C651 1.386 . S
C650 C652 1.391 . S
C651 C650 1.386 . S
C651 C655 1.393 . S
C652 H641 0.950 . S
C652 C650 1.391 . S
C652 C653 1.400 . S
C653 C647 1.491 1_554 S
C653 C652 1.400 . S
C653 C654 1.398 . S
C654 H642 0.950 1_554 S
C654 C653 1.398 . S
C654 C655 1.391 . S
C655 H643 0.950 . S
C655 C651 1.393 . S
C655 C654 1.391 . S
H656 C664 0.950 . S
H657 C669 0.950 . S
H658 C666 0.950 . S
H659 C668 0.950 . S
H660 C670 0.950 . S
H661 C672 0.950 . S
H662 C674 0.950 . S
H663 C675 0.950 . S
C664 H656 0.950 . S
C664 C665 1.386 . S
C664 C666 1.391 . S
C665 C664 1.386 . S
C665 C669 1.393 . S
C666 H658 0.950 . S
C666 C664 1.391 . S
C666 C667 1.400 . S
C667 C666 1.400 . S
C667 C668 1.398 . S
C667 C673 1.491 . S
C668 H659 0.950 . S
C668 C667 1.398 . S
C668 C669 1.391 . S
C669 H657 0.950 . S
C669 C665 1.393 . S
C669 C668 1.391 . S
C670 H660 0.950 . S
C670 C671 1.386 . S
C670 C672 1.391 . S
C671 C670 1.386 . S
C671 C675 1.393 . S
C672 H661 0.950 . S
C672 C670 1.391 . S
C672 C673 1.400 . S
C673 C667 1.491 . S
C673 C672 1.400 . S
C673 C674 1.398 . S
C674 H662 0.950 . S
C674 C673 1.398 . S
C674 C675 1.391 . S
C675 H663 0.950 . S
C675 C671 1.393 . S
C675 C674 1.391 . S
H676 C684 0.950 . S
H677 C689 0.950 . S
H678 C686 0.950 . S
H679 C688 0.950 1_556 S
H680 C690 0.950 . S
H681 C692 0.950 . S
H682 C694 0.950 1_554 S
H683 C695 0.950 . S
C684 H676 0.950 . S
C684 C685 1.386 . S
C684 C686 1.391 . S
C685 C684 1.386 . S
C685 C689 1.393 . S
C686 H678 0.950 . S
C686 C684 1.391 . S
C686 C687 1.400 . S
C687 C686 1.400 . S
C687 C688 1.398 . S
C687 C693 1.491 1_554 S
C688 H679 0.950 1_554 S
C688 C687 1.398 . S
C688 C689 1.391 . S
C689 H677 0.950 . S
C689 C685 1.393 . S
C689 C688 1.391 . S
C690 H680 0.950 . S
C690 C691 1.386 . S
C690 C692 1.391 . S
C691 C690 1.386 . S
C691 C695 1.393 . S
C692 H681 0.950 . S
C692 C690 1.391 . S
C692 C693 1.400 . S
C693 C687 1.491 1_556 S
C693 C692 1.400 . S
C693 C694 1.398 . S
C694 H682 0.950 1_556 S
C694 C693 1.398 . S
C694 C695 1.391 . S
C695 H683 0.950 . S
C695 C691 1.393 . S
C695 C694 1.391 . S
H696 C704 0.950 . S
H697 C709 0.950 . S
H698 C706 0.950 . S
H699 C708 0.950 . S
H700 C710 0.950 . S
H701 C712 0.950 . S
H702 C714 0.950 . S
H703 C715 0.950 . S
C704 H696 0.950 . S
C704 C705 1.386 . S
C704 C706 1.391 . S
C705 C704 1.386 . S
C705 C709 1.393 . S
C706 H698 0.950 . S
C706 C704 1.391 . S
C706 C707 1.400 . S
C707 C706 1.400 . S
C707 C708 1.398 . S
C707 C713 1.491 . S
C708 H699 0.950 . S
C708 C707 1.398 . S
C708 C709 1.391 . S
C709 H697 0.950 . S
C709 C705 1.393 . S
C709 C708 1.391 . S
C710 H700 0.950 . S
C710 C711 1.386 . S
C710 C712 1.391 . S
C711 C710 1.386 . S
C711 C715 1.393 . S
C712 H701 0.950 . S
C712 C710 1.391 . S
C712 C713 1.400 . S
C713 C707 1.491 . S
C713 C712 1.400 . S
C713 C714 1.398 . S
C714 H702 0.950 . S
C714 C713 1.398 . S
C714 C715 1.391 . S
C715 H703 0.950 . S
C715 C711 1.393 . S
C715 C714 1.391 . S
H716 C724 0.950 . S
H717 C729 0.950 . S
H718 C726 0.950 . S
H719 C728 0.950 . S
H720 C730 0.950 . S
H721 C732 0.950 . S
H722 C734 0.950 . S
H723 C735 0.950 . S
C724 H716 0.950 . S
C724 C725 1.386 . S
C724 C726 1.391 . S
C725 C724 1.386 . S
C725 C729 1.393 . S
C726 H718 0.950 . S
C726 C724 1.391 . S
C726 C727 1.400 . S
C727 C726 1.400 . S
C727 C728 1.398 . S
C727 C733 1.491 1_554 S
C728 H719 0.950 . S
C728 C727 1.398 . S
C728 C729 1.391 . S
C729 H717 0.950 . S
C729 C725 1.393 . S
C729 C728 1.391 . S
C730 H720 0.950 . S
C730 C731 1.386 . S
C730 C732 1.391 . S
C731 C730 1.386 . S
C731 C735 1.393 . S
C732 H721 0.950 . S
C732 C730 1.391 . S
C732 C733 1.400 . S
C733 C727 1.491 1_556 S
C733 C732 1.400 . S
C733 C734 1.398 . S
C734 H722 0.950 . S
C734 C733 1.398 . S
C734 C735 1.391 . S
C735 H723 0.950 . S
C735 C731 1.393 . S
C735 C734 1.391 . S
H736 C744 0.950 . S
H737 C749 0.950 . S
H738 C746 0.950 . S
H739 C748 0.950 . S
H740 C750 0.950 . S
H741 C752 0.950 . S
H742 C754 0.950 . S
H743 C755 0.950 . S
C744 H736 0.950 . S
C744 C745 1.386 . S
C744 C746 1.391 . S
C745 C744 1.386 . S
C745 C749 1.393 . S
C746 H738 0.950 . S
C746 C744 1.391 . S
C746 C747 1.400 . S
C747 C746 1.400 . S
C747 C748 1.398 . S
C747 C753 1.491 . S
C748 H739 0.950 . S
C748 C747 1.398 . S
C748 C749 1.391 . S
C749 H737 0.950 . S
C749 C745 1.393 . S
C749 C748 1.391 . S
C750 H740 0.950 . S
C750 C751 1.386 . S
C750 C752 1.391 . S
C751 C750 1.386 . S
C751 C755 1.393 . S
C752 H741 0.950 . S
C752 C750 1.391 . S
C752 C753 1.400 . S
C753 C747 1.491 . S
C753 C752 1.400 . S
C753 C754 1.398 . S
C754 H742 0.950 . S
C754 C753 1.398 . S
C754 C755 1.391 . S
C755 H743 0.950 . S
C755 C751 1.393 . S
C755 C754 1.391 . S
H756 C764 0.950 . S
H757 C769 0.950 . S
H758 C766 0.950 . S
H759 C768 0.950 . S
H760 C770 0.950 . S
H761 C772 0.950 . S
H762 C774 0.950 . S
H763 C775 0.950 . S
C764 H756 0.950 . S
C764 C765 1.386 . S
C764 C766 1.391 . S
C765 C764 1.386 . S
C765 C769 1.393 . S
C766 H758 0.950 . S
C766 C764 1.391 . S
C766 C767 1.400 . S
C767 C766 1.400 . S
C767 C768 1.398 . S
C767 C773 1.491 1_556 S
C768 H759 0.950 . S
C768 C767 1.398 . S
C768 C769 1.391 . S
C769 H757 0.950 . S
C769 C765 1.393 . S
C769 C768 1.391 . S
C770 H760 0.950 . S
C770 C771 1.386 . S
C770 C772 1.391 . S
C771 C770 1.386 . S
C771 C775 1.393 . S
C772 H761 0.950 . S
C772 C770 1.391 . S
C772 C773 1.400 . S
C773 C767 1.491 1_554 S
C773 C772 1.400 . S
C773 C774 1.398 . S
C774 H762 0.950 . S
C774 C773 1.398 . S
C774 C775 1.391 . S
C775 H763 0.950 . S
C775 C771 1.393 . S
C775 C774 1.391 . S
H776 C784 0.950 . S
H777 C789 0.950 . S
H778 C786 0.950 . S
H779 C788 0.950 . S
H780 C790 0.950 . S
H781 C792 0.950 . S
H782 C794 0.950 . S
H783 C795 0.950 . S
C784 H776 0.950 . S
C784 C785 1.386 . S
C784 C786 1.391 . S
C785 C784 1.386 . S
C785 C789 1.393 . S
C786 H778 0.950 . S
C786 C784 1.391 . S
C786 C787 1.400 . S
C787 C786 1.400 . S
C787 C788 1.398 . S
C787 C793 1.491 . S
C788 H779 0.950 . S
C788 C787 1.398 . S
C788 C789 1.391 . S
C789 H777 0.950 . S
C789 C785 1.393 . S
C789 C788 1.391 . S
C790 H780 0.950 . S
C790 C791 1.386 . S
C790 C792 1.391 . S
C791 C790 1.386 . S
C791 C795 1.393 . S
C792 H781 0.950 . S
C792 C790 1.391 . S
C792 C793 1.400 . S
C793 C787 1.491 . S
C793 C792 1.400 . S
C793 C794 1.398 . S
C794 H782 0.950 . S
C794 C793 1.398 . S
C794 C795 1.391 . S
C795 H783 0.950 . S
C795 C791 1.393 . S
C795 C794 1.391 . S
H796 C804 0.950 . S
H797 C809 0.950 . S
H798 C806 0.950 1_556 S
H799 C808 0.950 . S
H800 C810 0.950 . S
H801 C812 0.950 1_554 S
H802 C814 0.950 . S
H803 C815 0.950 . S
C804 H796 0.950 . S
C804 C805 1.386 . S
C804 C806 1.391 . S
C805 C804 1.386 . S
C805 C809 1.393 . S
C806 H798 0.950 1_554 S
C806 C804 1.391 . S
C806 C807 1.400 . S
C807 C806 1.400 . S
C807 C808 1.398 . S
C807 C813 1.491 1_554 S
C808 H799 0.950 . S
C808 C807 1.398 . S
C808 C809 1.391 . S
C809 H797 0.950 . S
C809 C805 1.393 . S
C809 C808 1.391 . S
C810 H800 0.950 . S
C810 C811 1.386 . S
C810 C812 1.391 . S
C811 C810 1.386 . S
C811 C815 1.393 . S
C812 H801 0.950 1_556 S
C812 C810 1.391 . S
C812 C813 1.400 . S
C813 C807 1.491 1_556 S
C813 C812 1.400 . S
C813 C814 1.398 . S
C814 H802 0.950 . S
C814 C813 1.398 . S
C814 C815 1.391 . S
C815 H803 0.950 . S
C815 C811 1.393 . S
C815 C814 1.391 . S
H816 C824 0.950 . S
H817 C829 0.950 . S
H818 C826 0.950 . S
H819 C828 0.950 . S
H820 C830 0.950 . S
H821 C832 0.950 . S
H822 C834 0.950 . S
H823 C835 0.950 . S
C824 H816 0.950 . S
C824 C825 1.386 . S
C824 C826 1.391 . S
C825 C824 1.386 . S
C825 C829 1.393 . S
C826 H818 0.950 . S
C826 C824 1.391 . S
C826 C827 1.400 . S
C827 C826 1.400 . S
C827 C828 1.398 . S
C827 C833 1.491 . S
C828 H819 0.950 . S
C828 C827 1.398 . S
C828 C829 1.391 . S
C829 H817 0.950 . S
C829 C825 1.393 . S
C829 C828 1.391 . S
C830 H820 0.950 . S
C830 C831 1.386 . S
C830 C832 1.391 . S
C831 C830 1.386 . S
C831 C835 1.393 . S
C832 H821 0.950 . S
C832 C830 1.391 . S
C832 C833 1.400 . S
C833 C827 1.491 . S
C833 C832 1.400 . S
C833 C834 1.398 . S
C834 H822 0.950 . S
C834 C833 1.398 . S
C834 C835 1.391 . S
C835 H823 0.950 . S
C835 C831 1.393 . S
C835 C834 1.391 . S
H836 C844 0.950 . S
H837 C849 0.950 . S
H838 C846 0.950 . S
H839 C848 0.950 . S
H840 C850 0.950 . S
H841 C852 0.950 . S
H842 C854 0.950 . S
H843 C855 0.950 . S
C844 H836 0.950 . S
C844 C845 1.386 . S
C844 C846 1.391 . S
C845 C844 1.386 . S
C845 C849 1.393 . S
C846 H838 0.950 . S
C846 C844 1.391 . S
C846 C847 1.400 . S
C847 C846 1.400 . S
C847 C848 1.398 . S
C847 C853 1.491 1_554 S
C848 H839 0.950 . S
C848 C847 1.398 . S
C848 C849 1.391 . S
C849 H837 0.950 . S
C849 C845 1.393 . S
C849 C848 1.391 . S
C850 H840 0.950 . S
C850 C851 1.386 . S
C850 C852 1.391 . S
C851 C850 1.386 . S
C851 C855 1.393 . S
C852 H841 0.950 . S
C852 C850 1.391 . S
C852 C853 1.400 . S
C853 C847 1.491 1_556 S
C853 C852 1.400 . S
C853 C854 1.398 . S
C854 H842 0.950 . S
C854 C853 1.398 . S
C854 C855 1.391 . S
C855 H843 0.950 . S
C855 C851 1.393 . S
C855 C854 1.391 . S
H856 C864 0.950 . S
H857 C869 0.950 . S
H858 C866 0.950 . S
H859 C868 0.950 . S
H860 C870 0.950 . S
H861 C872 0.950 . S
H862 C874 0.950 . S
H863 C875 0.950 . S
C864 H856 0.950 . S
C864 C865 1.386 . S
C864 C866 1.391 . S
C865 C864 1.386 . S
C865 C869 1.393 . S
C866 H858 0.950 . S
C866 C864 1.391 . S
C866 C867 1.400 . S
C867 C866 1.400 . S
C867 C868 1.398 . S
C867 C873 1.491 . S
C868 H859 0.950 . S
C868 C867 1.398 . S
C868 C869 1.391 . S
C869 H857 0.950 . S
C869 C865 1.393 . S
C869 C868 1.391 . S
C870 H860 0.950 . S
C870 C871 1.386 . S
C870 C872 1.391 . S
C871 C870 1.386 . S
C871 C875 1.393 . S
C872 H861 0.950 . S
C872 C870 1.391 . S
C872 C873 1.400 . S
C873 C867 1.491 . S
C873 C872 1.400 . S
C873 C874 1.398 . S
C874 H862 0.950 . S
C874 C873 1.398 . S
C874 C875 1.391 . S
C875 H863 0.950 . S
C875 C871 1.393 . S
C875 C874 1.391 . S
H876 C884 0.950 . S
H877 C889 0.950 . S
H878 C886 0.950 . S
H879 C888 0.950 . S
H880 C890 0.950 . S
H881 C892 0.950 . S
H882 C894 0.950 . S
H883 C895 0.950 . S
C884 H876 0.950 . S
C884 C885 1.386 . S
C884 C886 1.391 . S
C885 C884 1.386 . S
C885 C889 1.393 . S
C886 H878 0.950 . S
C886 C884 1.391 . S
C886 C887 1.400 . S
C887 C886 1.400 . S
C887 C888 1.398 . S
C887 C893 1.491 . S
C888 H879 0.950 . S
C888 C887 1.398 . S
C888 C889 1.391 . S
C889 H877 0.950 . S
C889 C885 1.393 . S
C889 C888 1.391 . S
C890 H880 0.950 . S
C890 C891 1.386 . S
C890 C892 1.391 . S
C891 C890 1.386 . S
C891 C895 1.393 . S
C892 H881 0.950 . S
C892 C890 1.391 . S
C892 C893 1.400 . S
C893 C887 1.491 . S
C893 C892 1.400 . S
C893 C894 1.398 . S
C894 H882 0.950 . S
C894 C893 1.398 . S
C894 C895 1.391 . S
C895 H883 0.950 . S
C895 C891 1.393 . S
C895 C894 1.391 . S
H896 C904 0.950 . S
H897 C909 0.950 . S
H898 C906 0.950 . S
H899 C908 0.950 . S
H900 C910 0.950 . S
H901 C912 0.950 . S
H902 C914 0.950 . S
H903 C915 0.950 . S
C904 H896 0.950 . S
C904 C905 1.386 . S
C904 C906 1.391 . S
C905 C904 1.386 . S
C905 C909 1.393 . S
C906 H898 0.950 . S
C906 C904 1.391 . S
C906 C907 1.400 . S
C907 C906 1.400 . S
C907 C908 1.398 . S
C907 C913 1.491 1_455 S
C908 H899 0.950 . S
C908 C907 1.398 . S
C908 C909 1.391 . S
C909 H897 0.950 . S
C909 C905 1.393 . S
C909 C908 1.391 . S
C910 H900 0.950 . S
C910 C911 1.386 . S
C910 C912 1.391 . S
C911 C910 1.386 . S
C911 C915 1.393 . S
C912 H901 0.950 . S
C912 C910 1.391 . S
C912 C913 1.400 . S
C913 C907 1.491 1_655 S
C913 C912 1.400 . S
C913 C914 1.398 . S
C914 H902 0.950 . S
C914 C913 1.398 . S
C914 C915 1.391 . S
C915 H903 0.950 . S
C915 C911 1.393 . S
C915 C914 1.391 . S
H916 C924 0.950 . S
H917 C929 0.950 . S
H918 C926 0.950 . S
H919 C928 0.950 . S
H920 C930 0.950 . S
H921 C932 0.950 . S
H922 C934 0.950 . S
H923 C935 0.950 . S
C924 H916 0.950 . S
C924 C925 1.386 . S
C924 C926 1.391 . S
C925 C924 1.386 . S
C925 C929 1.393 . S
C926 H918 0.950 . S
C926 C924 1.391 . S
C926 C927 1.400 . S
C927 C926 1.400 . S
C927 C928 1.398 . S
C927 C933 1.491 1_545 S
C928 H919 0.950 . S
C928 C927 1.398 . S
C928 C929 1.391 . S
C929 H917 0.950 . S
C929 C925 1.393 . S
C929 C928 1.391 . S
C930 H920 0.950 . S
C930 C931 1.386 . S
C930 C932 1.391 . S
C931 C930 1.386 . S
C931 C935 1.393 . S
C932 H921 0.950 . S
C932 C930 1.391 . S
C932 C933 1.400 . S
C933 C927 1.491 1_565 S
C933 C932 1.400 . S
C933 C934 1.398 . S
C934 H922 0.950 . S
C934 C933 1.398 . S
C934 C935 1.391 . S
C935 H923 0.950 . S
C935 C931 1.393 . S
C935 C934 1.391 . S
H936 C944 0.950 . S
H937 C949 0.950 . S
H938 C946 0.950 . S
H939 C948 0.950 . S
H940 C950 0.950 . S
H941 C952 0.950 . S
H942 C954 0.950 . S
H943 C955 0.950 . S
C944 H936 0.950 . S
C944 C945 1.386 . S
C944 C946 1.391 . S
C945 C944 1.386 . S
C945 C949 1.393 . S
C946 H938 0.950 . S
C946 C944 1.391 . S
C946 C947 1.400 . S
C947 C946 1.400 . S
C947 C948 1.398 . S
C947 C953 1.491 . S
C948 H939 0.950 . S
C948 C947 1.398 . S
C948 C949 1.391 . S
C949 H937 0.950 . S
C949 C945 1.393 . S
C949 C948 1.391 . S
C950 H940 0.950 . S
C950 C951 1.386 . S
C950 C952 1.391 . S
C951 C950 1.386 . S
C951 C955 1.393 . S
C952 H941 0.950 . S
C952 C950 1.391 . S
C952 C953 1.400 . S
C953 C947 1.491 . S
C953 C952 1.400 . S
C953 C954 1.398 . S
C954 H942 0.950 . S
C954 C953 1.398 . S
C954 C955 1.391 . S
C955 H943 0.950 . S
C955 C951 1.393 . S
C955 C954 1.391 . S
H956 C964 0.950 . S
H957 C969 0.950 . S
H958 C966 0.950 . S
H959 C968 0.950 . S
H960 C970 0.950 . S
H961 C972 0.950 . S
H962 C974 0.950 . S
H963 C975 0.950 . S
C964 H956 0.950 . S
C964 C965 1.386 . S
C964 C966 1.391 . S
C965 C964 1.386 . S
C965 C969 1.393 . S
C966 H958 0.950 . S
C966 C964 1.391 . S
C966 C967 1.400 . S
C967 C966 1.400 . S
C967 C968 1.398 . S
C967 C973 1.491 1_455 S
C968 H959 0.950 . S
C968 C967 1.398 . S
C968 C969 1.391 . S
C969 H957 0.950 . S
C969 C965 1.393 . S
C969 C968 1.391 . S
C970 H960 0.950 . S
C970 C971 1.386 . S
C970 C972 1.391 . S
C971 C970 1.386 . S
C971 C975 1.393 . S
C972 H961 0.950 . S
C972 C970 1.391 . S
C972 C973 1.400 . S
C973 C967 1.491 1_655 S
C973 C972 1.400 . S
C973 C974 1.398 . S
C974 H962 0.950 . S
C974 C973 1.398 . S
C974 C975 1.391 . S
C975 H963 0.950 . S
C975 C971 1.393 . S
C975 C974 1.391 . S
H976 C984 0.950 . S
H977 C989 0.950 . S
H978 C986 0.950 . S
H979 C988 0.950 . S
H980 C990 0.950 . S
H981 C992 0.950 . S
H982 C994 0.950 . S
H983 C995 0.950 . S
C984 H976 0.950 . S
C984 C985 1.386 . S
C984 C986 1.391 . S
C985 C984 1.386 . S
C985 C989 1.393 . S
C986 H978 0.950 . S
C986 C984 1.391 . S
C986 C987 1.400 . S
C987 C986 1.400 . S
C987 C988 1.398 . S
C987 C993 1.491 1_565 S
C988 H979 0.950 . S
C988 C987 1.398 . S
C988 C989 1.391 . S
C989 H977 0.950 . S
C989 C985 1.393 . S
C989 C988 1.391 . S
C990 H980 0.950 . S
C990 C991 1.386 . S
C990 C992 1.391 . S
C991 C990 1.386 . S
C991 C995 1.393 . S
C992 H981 0.950 . S
C992 C990 1.391 . S
C992 C993 1.400 . S
C993 C987 1.491 1_545 S
C993 C992 1.400 . S
C993 C994 1.398 . S
C994 H982 0.950 . S
C994 C993 1.398 . S
C994 C995 1.391 . S
C995 H983 0.950 . S
C995 C991 1.393 . S
C995 C994 1.391 . S
C405 C8 2.321 . S
C411 C206 2.323 . S
C425 C41 2.325 . S
C431 C239 2.320 . S
C445 C74 2.328 . S
C451 C272 2.318 . S
C465 C305 2.327 . S
C471 C107 2.322 . S
C485 C140 2.318 . S
C491 C338 2.327 . S
C505 C371 2.325 . S
C511 C173 2.319 . S
C525 N302 0.833 . S
C531 N104 0.830 . S
C545 N137 0.853 . S
C551 N335 0.873 . S
C565 N368 0.875 . S
C571 N170 0.855 . S
C585 N203 0.879 . S
C591 N5 0.872 . S
C605 N236 0.854 . S
C611 N38 0.834 . S
C625 N71 0.829 . S
C631 N269 0.843 . S
C645 N344 0.847 . S
C651 N14 0.849 . S
C665 N47 0.820 . S
C671 N377 0.819 . S
C685 N80 0.845 . S
C691 N212 0.847 . S
C705 N113 0.827 . S
C711 N245 0.825 . S
C725 N146 0.852 . S
C731 N278 0.851 . S
C745 N179 0.843 . S
C751 N311 0.841 . S
C765 C127 1.840 . S
C771 C259 1.840 . S
C785 C160 1.841 . S
C791 C292 1.840 . S
C805 C325 1.838 . S
C811 C193 1.839 . S
C825 C28 1.835 . S
C831 C358 1.836 . S
C845 C391 1.832 . S
C851 C61 1.832 . S
C865 C94 1.840 . S
C871 C226 1.839 . S
C885 C17 1.282 . S
C891 C314 1.301 . S
C905 C347 1.293 . S
C911 C50 1.296 . S
C925 C380 1.282 . S
C931 C83 1.302 . S
C945 C215 1.296 . S
C951 C116 1.286 . S
C965 C149 1.302 . S
C971 C248 1.282 . S
C985 C281 1.288 . S
C991 C182 1.300 . S
