# Generated by pormake.
# Topology bcu, (8)-cn, num edge types: 1
# Building blocks:
#     Node 0, Type 0, BuildingBlock: AJUNOK_clean_sbu_0, # of connection points: 8
#     Node 1, Type 0, BuildingBlock: AJUNOK_clean_sbu_0, # of connection points: 8
#     Edge 2, Type (0, 0), BuildingBlock: MIFKUJ_clean_linker_0, # of connection points: 2
#     Edge 3, Type (0, 0), BuildingBlock: MIFKUJ_clean_linker_0, # of connection points: 2
#     Edge 4, Type (0, 0), BuildingBlock: MIFKUJ_clean_linker_0, # of connection points: 2
#     Edge 5, Type (0, 0), BuildingBlock: MIFKUJ_clean_linker_0, # of connection points: 2
#     Edge 6, Type (0, 0), BuildingBlock: MIFKUJ_clean_linker_0, # of connection points: 2
#     Edge 7, Type (0, 0), BuildingBlock: MIFKUJ_clean_linker_0, # of connection points: 2
#     Edge 8, Type (0, 0), BuildingBlock: MIFKUJ_clean_linker_0, # of connection points: 2
#     Edge 9, Type (0, 0), BuildingBlock: MIFKUJ_clean_linker_0, # of connection points: 2
# Relax obj value: 0.075
# Max RMSD: 0.182
# Mean RMSD: 0.182
data_MOF--net-bcu--node1-AJUNOK_clean_sbu_0--edge1-MIFKUJ_clean_linker_0
_symmetry_space_group_name_H-M    P1
_symmetry_Int_Tables_number       1
_symmetry_cell_setting            triclinic
loop_
_symmetry_equiv_pos_as_xyz
'x, y, z'
_cell_length_a     28.850484
_cell_length_b     28.711234
_cell_length_c     21.573462
_cell_angle_alpha  100.91568
_cell_angle_beta   101.65062
_cell_angle_gamma 108.16129
loop_
_atom_site_label
_atom_site_type_symbol
_atom_site_fract_x
_atom_site_fract_y
_atom_site_fract_z
_atom_type_partial_charge
Cd0 Cd 0.9289 0.93075 0.0298 0.0
Cd1 Cd 0.06586 0.03682 0.96696 0.0
C2 C 0.02301 0.89013 0.03373 0.0
N3 N 0.98155 0.88515 0.05653 0.0
C4 C 0.00473 0.83372 0.12304 0.0
C5 C 0.04859 0.83933 0.10187 0.0
C6 C 0.05749 0.86774 0.05625 0.0
C7 C 0.97181 0.85729 0.10002 0.0
H8 H 0.02997 0.91275 0.99961 0.0
H9 H 0.93927 0.85455 0.11857 0.0
C10 C 0.95596 0.96462 0.88289 0.0
C11 C 0.02329 0.10326 0.88355 0.0
C12 C 0.99381 0.13004 0.8603 0.0
C13 C 0.95879 0.13919 0.89278 0.0
C14 C 0.95417 0.12128 0.94826 0.0
C15 C 0.98391 0.09384 0.96929 0.0
N16 N 0.01744 0.08525 0.93658 0.0
H17 H 0.05024 0.09586 0.85853 0.0
H18 H 0.97995 0.07896 0.01121 0.0
C19 C 0.06973 0.92741 0.89122 0.0
N20 N 0.09525 0.96977 0.94266 0.0
C21 C 0.16678 0.94402 0.96509 0.0
C22 C 0.14219 0.90094 0.91088 0.0
C23 C 0.09249 0.8921 0.87475 0.0
C24 C 0.14246 0.978 0.98022 0.0
H25 H 0.03238 0.92156 0.86166 0.0
H26 H 0.16203 0.0121 0.02057 0.0
C27 C 0.03703 0.00942 0.1165 0.0
C28 C 0.83674 0.85034 0.01573 0.0
N29 N 0.89955 0.99604 0.06548 0.0
C30 C 0.91277 0.01941 0.13086 0.0
C31 C 0.89188 0.05441 0.15434 0.0
C32 C 0.85497 0.06418 0.11086 0.0
C33 C 0.84224 0.03976 0.04328 0.0
C34 C 0.86529 0.00586 0.02157 0.0
C35 C 0.15957 0.11423 0.97991 0.0
O36 O 0.9615 0.96071 0.94141 0.0
O37 O 0.99425 0.99178 0.86878 0.0
O38 O 0.03505 0.01011 0.05737 0.0
O39 O 0.99876 0.97958 0.12765 0.0
O40 O 0.84938 0.85873 0.9646 0.0
O41 O 0.86613 0.87952 0.07079 0.0
O42 O 0.13957 0.1158 0.02741 0.0
O43 O 0.13608 0.07714 0.9289 0.0
H44 H 0.93831 0.00993 0.16573 0.0
H45 H 0.85444 0.98591 0.96997 0.0
H46 H 0.99684 0.81276 0.15888 0.0
H47 H 0.09078 0.87276 0.03847 0.0
H48 H 0.99836 0.14362 0.81753 0.0
H49 H 0.92733 0.12773 0.97426 0.0
H50 H 0.20492 0.95199 0.99459 0.0
H51 H 0.07237 0.85956 0.83225 0.0
H52 H 0.90416 0.07287 0.20655 0.0
H53 H 0.81354 0.04522 0.00766 0.0
Cd54 Cd 0.51468 0.48736 0.61431 0.0
Cd55 Cd 0.51156 0.51536 0.40179 0.0
C56 C 0.61627 0.47718 0.69065 0.0
N57 N 0.58508 0.463 0.62864 0.0
C58 C 0.62722 0.40811 0.59128 0.0
C59 C 0.65859 0.42017 0.65569 0.0
C60 C 0.65334 0.45613 0.70535 0.0
C61 C 0.59018 0.42973 0.57893 0.0
H62 H 0.61058 0.5029 0.72945 0.0
H63 H 0.56409 0.41835 0.53036 0.0
C64 C 0.44727 0.42132 0.44104 0.0
C65 C 0.40473 0.53467 0.40272 0.0
C66 C 0.37084 0.56016 0.39185 0.0
C67 C 0.38801 0.60931 0.38247 0.0
C68 C 0.4401 0.63264 0.38897 0.0
C69 C 0.4726 0.60618 0.40084 0.0
N70 N 0.45431 0.55762 0.40535 0.0
H71 H 0.39101 0.49593 0.40628 0.0
H72 H 0.51216 0.62351 0.40296 0.0
C73 C 0.53534 0.42343 0.32687 0.0
N74 N 0.5548 0.45988 0.38523 0.0
C75 C 0.6255 0.43367 0.41317 0.0
C76 C 0.60691 0.39653 0.35225 0.0
C77 C 0.56075 0.39117 0.30939 0.0
C78 C 0.5988 0.46543 0.42858 0.0
H79 H 0.50042 0.42013 0.29322 0.0
H80 H 0.6137 0.49517 0.47439 0.0
C81 C 0.57411 0.57931 0.56981 0.0
C82 C 0.47279 0.43651 0.70224 0.0
N83 N 0.47021 0.5419 0.62892 0.0
C84 C 0.49037 0.58291 0.68254 0.0
C85 C 0.46268 0.61351 0.69725 0.0
C86 C 0.41341 0.60123 0.65705 0.0
C87 C 0.39387 0.55918 0.60126 0.0
C88 C 0.4232 0.52989 0.58793 0.0
C89 C 0.54284 0.55704 0.30217 0.0
O90 O 0.47568 0.45402 0.49448 0.0
O91 O 0.44725 0.43361 0.38743 0.0
O92 O 0.54717 0.5426 0.51998 0.0
O93 O 0.57708 0.57152 0.62621 0.0
O94 O 0.45921 0.41566 0.6407 0.0
O95 O 0.50685 0.48087 0.7231 0.0
O96 O 0.57021 0.5752 0.36177 0.0
O97 O 0.50138 0.51967 0.28981 0.0
H98 H 0.52741 0.59092 0.71508 0.0
H99 H 0.40791 0.49666 0.54607 0.0
H100 H 0.6302 0.38115 0.55119 0.0
H101 H 0.67572 0.46595 0.75591 0.0
H102 H 0.33136 0.54087 0.38884 0.0
H103 H 0.45548 0.66995 0.38135 0.0
H104 H 0.66108 0.43926 0.44748 0.0
H105 H 0.5446 0.36257 0.26245 0.0
H106 H 0.47882 0.64515 0.74121 0.0
H107 H 0.35609 0.54866 0.56893 0.0
H108 H 0.13359 0.05483 0.11076 0.0
H109 H 0.2074 0.11106 0.20232 0.0
H110 H 0.11517 0.093 0.33695 0.0
H111 H 0.0413 0.03649 0.24569 0.0
H112 H 0.16972 0.19496 0.34125 0.0
H113 H 0.20003 0.04437 0.35625 0.0
H114 H 0.20579 0.96114 0.31286 0.0
H115 H 0.33002 0.03336 0.24054 0.0
H116 H 0.3244 0.11694 0.28228 0.0
H117 H 0.39532 0.39221 0.52836 0.0
H118 H 0.33338 0.30724 0.51488 0.0
H119 H 0.36539 0.25145 0.33403 0.0
H120 H 0.42828 0.33515 0.34898 0.0
H121 H 0.33729 0.17578 0.39324 0.0
H122 H 0.27932 0.30988 0.33246 0.0
H123 H 0.27267 0.39452 0.36108 0.0
H124 H 0.1999 0.35294 0.50806 0.0
H125 H 0.20681 0.26824 0.48076 0.0
C126 C 0.12922 0.06272 0.15989 0.0
C127 C 0.08191 0.04181 0.17124 0.0
C128 C 0.17135 0.09426 0.21214 0.0
C129 C 0.16656 0.10546 0.27624 0.0
C130 C 0.11948 0.08424 0.28782 0.0
C131 C 0.07749 0.05217 0.23571 0.0
C132 C 0.20986 0.14342 0.32946 0.0
C133 C 0.20602 0.1903 0.35473 0.0
C134 C 0.25702 0.13707 0.34606 0.0
C135 C 0.26172 0.08706 0.32243 0.0
C136 C 0.22847 0.04254 0.33087 0.0
C137 C 0.23169 0.99526 0.30652 0.0
C138 C 0.26824 0.99197 0.27396 0.0
C139 C 0.30176 0.03598 0.26586 0.0
C140 C 0.29863 0.08336 0.28998 0.0
C141 C 0.39062 0.36106 0.48759 0.0
C142 C 0.41599 0.36983 0.43952 0.0
C143 C 0.35521 0.31274 0.47971 0.0
C144 C 0.34452 0.27328 0.42311 0.0
C145 C 0.37318 0.28125 0.37818 0.0
C146 C 0.40848 0.32923 0.38617 0.0
C147 C 0.29745 0.22781 0.40238 0.0
C148 C 0.30046 0.17957 0.38284 0.0
C149 C 0.24943 0.23289 0.38985 0.0
C150 C 0.24402 0.28312 0.40512 0.0
C151 C 0.26201 0.31892 0.37097 0.0
C152 C 0.25826 0.36686 0.38698 0.0
C153 C 0.23599 0.37914 0.43648 0.0
C154 C 0.21724 0.3434 0.46985 0.0
C155 C 0.22108 0.29544 0.45416 0.0
H156 H 0.23317 0.41631 0.44888 0.0
H157 H 0.2706 0.95532 0.25503 0.0
H158 H 0.8327 0.07827 0.2297 0.0
H159 H 0.79486 0.13645 0.27454 0.0
H160 H 0.77423 0.18127 0.09424 0.0
H161 H 0.81737 0.12708 0.05113 0.0
H162 H 0.80582 0.26114 0.19007 0.0
H163 H 0.67436 0.09701 0.14069 0.0
H164 H 0.63672 0.00808 0.14423 0.0
H165 H 0.66872 0.05793 0.35413 0.0
H166 H 0.70715 0.14712 0.35193 0.0
H167 H 0.62312 0.37196 0.23206 0.0
H168 H 0.66784 0.31715 0.19627 0.0
H169 H 0.70254 0.29503 0.39014 0.0
H170 H 0.65657 0.34918 0.42609 0.0
H171 H 0.66685 0.20565 0.2937 0.0
H172 H 0.79378 0.37181 0.33811 0.0
H173 H 0.82858 0.45979 0.32989 0.0
H174 H 0.8003 0.40402 0.12137 0.0
H175 H 0.7645 0.31577 0.12814 0.0
C176 C 0.82136 0.10122 0.1997 0.0
C177 C 0.829 0.09808 0.13671 0.0
C178 C 0.79858 0.13388 0.22517 0.0
C179 C 0.78096 0.16291 0.18752 0.0
C180 C 0.7877 0.15941 0.12432 0.0
C181 C 0.81177 0.12772 0.09935 0.0
C182 C 0.75675 0.19793 0.21459 0.0
C183 C 0.77484 0.24866 0.21168 0.0
C184 C 0.71735 0.18231 0.24483 0.0
C185 C 0.69409 0.12869 0.2462 0.0
C186 C 0.67369 0.08897 0.18765 0.0
C187 C 0.65216 0.03852 0.1894 0.0
C188 C 0.65045 0.02734 0.24938 0.0
C189 C 0.67014 0.06662 0.30772 0.0
C190 C 0.69176 0.11713 0.30624 0.0
C191 C 0.64003 0.35528 0.26711 0.0
C192 C 0.63603 0.3647 0.33186 0.0
C193 C 0.66608 0.32437 0.24672 0.0
C194 C 0.68905 0.30244 0.29069 0.0
C195 C 0.68533 0.31181 0.35549 0.0
C196 C 0.65932 0.34296 0.37607 0.0
C197 C 0.71535 0.26836 0.26793 0.0
C198 C 0.69779 0.21793 0.27194 0.0
C199 C 0.75467 0.28402 0.23774 0.0
C200 C 0.77606 0.33716 0.2336 0.0
C201 C 0.79456 0.37832 0.29042 0.0
C202 C 0.81453 0.42825 0.28603 0.0
C203 C 0.81654 0.4375 0.22514 0.0
C204 C 0.79866 0.39683 0.1685 0.0
C205 C 0.77856 0.34684 0.1726 0.0
H206 H 0.83205 0.47618 0.22186 0.0
H207 H 0.63377 0.98826 0.25064 0.0
H208 H 0.82076 0.80528 0.11204 0.0
H209 H 0.74272 0.74239 0.1151 0.0
H210 H 0.66883 0.73945 0.91867 0.0
H211 H 0.74888 0.80129 0.91397 0.0
H212 H 0.63829 0.76707 0.07583 0.0
H213 H 0.62719 0.64521 0.88345 0.0
H214 H 0.66131 0.60095 0.80504 0.0
H215 H 0.73442 0.54966 0.95777 0.0
H216 H 0.70129 0.59427 0.03731 0.0
H217 H 0.4973 0.51992 0.16977 0.0
H218 H 0.52027 0.55875 0.08306 0.0
H219 H 0.64474 0.68191 0.2289 0.0
H220 H 0.62195 0.64386 0.31564 0.0
H221 H 0.60878 0.58341 0.04482 0.0
H222 H 0.65357 0.79126 0.1973 0.0
H223 H 0.62106 0.83405 0.2791 0.0
H224 H 0.47601 0.71167 0.20413 0.0
H225 H 0.50691 0.66895 0.12018 0.0
C226 C 0.78821 0.79082 0.06902 0.0
C227 C 0.79045 0.80868 0.01311 0.0
C228 C 0.74373 0.75481 0.07078 0.0
C229 C 0.70021 0.73644 0.01721 0.0
C230 C 0.70228 0.75293 0.96025 0.0
C231 C 0.74771 0.78835 0.9578 0.0
C232 C 0.6529 0.70313 0.02594 0.0
C233 C 0.63021 0.72652 0.06748 0.0
C234 C 0.64173 0.65019 0.01353 0.0
C235 C 0.66221 0.62354 0.96643 0.0
C236 C 0.65105 0.625 0.90047 0.0
C237 C 0.67005 0.5997 0.85577 0.0
C238 C 0.70016 0.57264 0.87646 0.0
C239 C 0.71115 0.57069 0.94184 0.0
C240 C 0.69221 0.59592 0.98673 0.0
C241 C 0.52953 0.55537 0.1833 0.0
C242 C 0.55767 0.57914 0.24956 0.0
C243 C 0.54257 0.57734 0.13371 0.0
C244 C 0.58351 0.62362 0.14983 0.0
C245 C 0.61231 0.64668 0.21572 0.0
C246 C 0.59946 0.62476 0.26518 0.0
C247 C 0.59746 0.64837 0.09862 0.0
C248 C 0.61404 0.62322 0.0503 0.0
C249 C 0.60248 0.69973 0.10425 0.0
C250 C 0.58263 0.72687 0.15216 0.0
C251 C 0.61443 0.77386 0.19734 0.0
C252 C 0.59628 0.79811 0.24418 0.0
C253 C 0.54641 0.77573 0.24657 0.0
C254 C 0.5145 0.72916 0.2019 0.0
C255 C 0.53229 0.70495 0.15457 0.0
H256 H 0.53254 0.79438 0.28317 0.0
H257 H 0.71492 0.55316 0.84184 0.0
H258 H 0.02776 0.74338 0.1168 0.0
H259 H 0.08708 0.70793 0.16882 0.0
H260 H 0.21143 0.8494 0.20293 0.0
H261 H 0.1521 0.88471 0.14957 0.0
H262 H 0.23916 0.77324 0.16397 0.0
H263 H 0.16038 0.81589 0.32827 0.0
H264 H 0.09 0.81811 0.37585 0.0
H265 H 0.03594 0.65545 0.33946 0.0
H266 H 0.1056 0.65215 0.29076 0.0
H267 H 0.40406 0.712 0.41143 0.0
H268 H 0.34852 0.75303 0.36406 0.0
H269 H 0.23339 0.60612 0.25964 0.0
H270 H 0.28955 0.56439 0.30298 0.0
H271 H 0.20528 0.69042 0.34062 0.0
H272 H 0.28138 0.64879 0.16752 0.0
H273 H 0.35005 0.64839 0.11573 0.0
H274 H 0.40916 0.81186 0.1694 0.0
H275 H 0.34124 0.81323 0.22248 0.0
C276 C 0.06776 0.76689 0.13537 0.0
C277 C 0.08527 0.81687 0.12938 0.0
C278 C 0.10162 0.74671 0.16542 0.0
C279 C 0.15364 0.77633 0.19121 0.0
C280 C 0.17146 0.82586 0.18374 0.0
C281 C 0.13759 0.84594 0.15301 0.0
C282 C 0.18931 0.75516 0.22504 0.0
C283 C 0.23203 0.75572 0.20314 0.0
C284 C 0.17994 0.73196 0.27602 0.0
C285 C 0.13799 0.73375 0.30532 0.0
C286 C 0.13327 0.78055 0.32994 0.0
C287 C 0.09353 0.78201 0.35719 0.0
C288 C 0.05846 0.73694 0.36054 0.0
C289 C 0.06311 0.69032 0.33677 0.0
C290 C 0.10274 0.68864 0.30939 0.0
C291 C 0.36721 0.68815 0.37785 0.0
C292 C 0.35182 0.6346 0.36073 0.0
C293 C 0.33543 0.71183 0.35112 0.0
C294 C 0.28724 0.68254 0.30783 0.0
C295 C 0.27063 0.62931 0.29287 0.0
C296 C 0.30274 0.60554 0.31842 0.0
C297 C 0.25406 0.70748 0.27814 0.0
C298 C 0.21218 0.70797 0.30138 0.0
C299 C 0.26428 0.73183 0.22859 0.0
C300 C 0.30681 0.73111 0.20013 0.0
C301 C 0.30961 0.68466 0.16949 0.0
C302 C 0.3482 0.68426 0.13949 0.0
C303 C 0.38398 0.73007 0.13937 0.0
C304 C 0.38146 0.7764 0.16962 0.0
C305 C 0.34296 0.77701 0.19973 0.0
H306 H 0.41354 0.72968 0.11559 0.0
H307 H 0.02773 0.73815 0.38167 0.0
H308 H 0.10776 0.79649 0.87223 0.0
H309 H 0.15206 0.74287 0.82915 0.0
H310 H 0.28243 0.87723 0.85586 0.0
H311 H 0.23849 0.93082 0.89867 0.0
H312 H 0.25194 0.81082 0.73181 0.0
H313 H 0.28958 0.80487 0.95735 0.0
H314 H 0.27245 0.78916 0.06053 0.0
H315 H 0.18345 0.63231 0.95971 0.0
H316 H 0.1997 0.64715 0.85581 0.0
H317 H 0.44064 0.70458 0.69679 0.0
H318 H 0.39059 0.75235 0.73681 0.0
H319 H 0.26526 0.61162 0.70175 0.0
H320 H 0.31521 0.5636 0.66174 0.0
H321 H 0.28924 0.67761 0.82662 0.0
H322 H 0.25465 0.68226 0.60241 0.0
H323 H 0.27603 0.69643 0.50075 0.0
H324 H 0.35998 0.85475 0.59891 0.0
H325 H 0.33975 0.8414 0.7015 0.0
C326 C 0.14597 0.81448 0.86921 0.0
C327 C 0.1697 0.86783 0.88898 0.0
C328 C 0.17131 0.78386 0.84495 0.0
C329 C 0.2206 0.8061 0.83947 0.0
C330 C 0.24446 0.8593 0.85974 0.0
C331 C 0.21944 0.88983 0.88464 0.0
C332 C 0.24661 0.77425 0.81 0.0
C333 C 0.26057 0.78205 0.75295 0.0
C334 C 0.25662 0.7358 0.83659 0.0
C335 C 0.24532 0.72729 0.89857 0.0
C336 C 0.2658 0.76719 0.95698 0.0
C337 C 0.25642 0.75838 0.01567 0.0
C338 C 0.22673 0.7098 0.01659 0.0
C339 C 0.20635 0.66994 0.95887 0.0
C340 C 0.21568 0.67851 0.9001 0.0
C341 C 0.40229 0.68389 0.69723 0.0
C342 C 0.38175 0.6304 0.676 0.0
C343 C 0.3737 0.71118 0.71986 0.0
C344 C 0.32418 0.68549 0.72205 0.0
C345 C 0.30339 0.63212 0.70036 0.0
C346 C 0.33177 0.60481 0.67702 0.0
C347 C 0.2948 0.71447 0.74886 0.0
C348 C 0.28023 0.70614 0.80529 0.0
C349 C 0.28414 0.75237 0.72169 0.0
C350 C 0.29605 0.76072 0.65989 0.0
C351 C 0.27801 0.72003 0.6025 0.0
C352 C 0.28985 0.72792 0.54467 0.0
C353 C 0.31944 0.77643 0.54342 0.0
C354 C 0.3371 0.81718 0.59997 0.0
C355 C 0.32541 0.80948 0.65797 0.0
H356 H 0.32858 0.78244 0.4986 0.0
H357 H 0.21961 0.7029 0.06199 0.0
H358 H 0.4839 0.47652 0.83252 0.0
H359 H 0.43878 0.43529 0.90391 0.0
H360 H 0.36269 0.2978 0.74454 0.0
H361 H 0.40638 0.33904 0.67279 0.0
H362 H 0.29681 0.32175 0.80009 0.0
H363 H 0.46502 0.31357 0.8796 0.0
H364 H 0.55786 0.35212 0.92918 0.0
H365 H 0.53672 0.4383 0.09984 0.0
H366 H 0.44375 0.40053 0.05097 0.0
H367 H 0.21976 0.10813 0.90002 0.0
H368 H 0.28416 0.17845 0.88224 0.0
H369 H 0.26857 0.28344 0.04103 0.0
H370 H 0.20321 0.21255 0.05936 0.0
H371 H 0.37983 0.29508 0.00857 0.0
H372 H 0.21009 0.29613 0.93261 0.0
H373 H 0.11758 0.25225 0.88379 0.0
H374 H 0.14243 0.1799 0.70681 0.0
H375 H 0.23517 0.22254 0.7552 0.0
C376 C 0.45777 0.43737 0.81294 0.0
C377 C 0.44856 0.41098 0.74702 0.0
C378 C 0.43215 0.41385 0.85385 0.0
C379 C 0.39746 0.36341 0.82965 0.0
C380 C 0.38908 0.33686 0.7642 0.0
C381 C 0.41423 0.3604 0.72326 0.0
C382 C 0.36821 0.338 0.87087 0.0
C383 C 0.31511 0.31635 0.8459 0.0
C384 C 0.39174 0.33238 0.93195 0.0
C385 C 0.44754 0.35466 0.96136 0.0
C386 C 0.48022 0.34097 0.92752 0.0
C387 C 0.53284 0.36262 0.95553 0.0
C388 C 0.55318 0.39773 0.01754 0.0
C389 C 0.52093 0.41114 0.05179 0.0
C390 C 0.46828 0.38958 0.02399 0.0
C391 C 0.23081 0.14593 0.93237 0.0
C392 C 0.20585 0.15508 0.98029 0.0
C393 C 0.26789 0.18598 0.92241 0.0
C394 C 0.28067 0.23593 0.96003 0.0
C395 C 0.2592 0.24494 0.01183 0.0
C396 C 0.22185 0.20454 0.02202 0.0
C397 C 0.30915 0.2779 0.9363 0.0
C398 C 0.36175 0.30229 0.96408 0.0
C399 C 0.28532 0.28659 0.87797 0.0
C400 C 0.22955 0.26224 0.84774 0.0
C401 C 0.19582 0.2706 0.88346 0.0
C402 C 0.14335 0.24596 0.85587 0.0
C403 C 0.12414 0.21322 0.79229 0.0
C404 C 0.15737 0.20524 0.75608 0.0
C405 C 0.20989 0.22966 0.78355 0.0
H406 H 0.08351 0.19412 0.77106 0.0
H407 H 0.59393 0.41446 0.03911 0.0
H408 H 0.96676 0.23546 0.94878 0.0
H409 H 0.91782 0.28388 0.90481 0.0
H410 H 0.83009 0.15344 0.73828 0.0
H411 H 0.88118 0.10623 0.78084 0.0
H412 H 0.84858 0.23133 0.69527 0.0
H413 H 0.78474 0.19308 0.8735 0.0
H414 H 0.78755 0.18826 0.98678 0.0
H415 H 0.85251 0.35144 0.05655 0.0
H416 H 0.85103 0.35721 0.94352 0.0
H417 H 0.64345 0.31957 0.60507 0.0
H418 H 0.69686 0.27287 0.6406 0.0
H419 H 0.80522 0.41054 0.782 0.0
H420 H 0.75288 0.45807 0.74554 0.0
H421 H 0.77501 0.32868 0.83578 0.0
H422 H 0.83294 0.36165 0.64742 0.0
H423 H 0.8212 0.35952 0.53031 0.0
H424 H 0.75457 0.19626 0.47586 0.0
H425 H 0.76511 0.19743 0.59257 0.0
C426 C 0.9368 0.2173 0.903 0.0
C427 C 0.92725 0.16724 0.86827 0.0
C428 C 0.90866 0.24479 0.87795 0.0
C429 C 0.86944 0.22219 0.81858 0.0
C430 C 0.86 0.1719 0.78406 0.0
C431 C 0.88889 0.14481 0.80847 0.0
C432 C 0.8388 0.25113 0.79212 0.0
C433 C 0.83199 0.25203 0.72594 0.0
C434 C 0.81734 0.27872 0.83193 0.0
C435 C 0.81833 0.27553 0.90007 0.0
C436 C 0.80006 0.22794 0.91304 0.0
C437 C 0.80138 0.22505 0.97727 0.0
C438 C 0.82038 0.26954 0.02897 0.0
C439 C 0.83794 0.31702 0.01647 0.0
C440 C 0.83688 0.32012 0.95231 0.0
C441 C 0.67923 0.34037 0.64255 0.0
C442 C 0.69364 0.39275 0.67248 0.0
C443 C 0.70962 0.31343 0.66308 0.0
C444 C 0.75502 0.33821 0.71396 0.0
C445 C 0.77018 0.39062 0.74286 0.0
C446 C 0.74005 0.41768 0.72207 0.0
C447 C 0.78533 0.30904 0.73953 0.0
C448 C 0.79186 0.30803 0.80544 0.0
C449 C 0.80531 0.28034 0.69902 0.0
C450 C 0.79943 0.27967 0.62881 0.0
C451 C 0.81541 0.32531 0.61047 0.0
C452 C 0.80902 0.32427 0.54414 0.0
C453 C 0.78707 0.27779 0.49566 0.0
C454 C 0.77152 0.23225 0.51343 0.0
C455 C 0.77774 0.23308 0.57968 0.0
H456 H 0.78224 0.27704 0.44434 0.0
H457 H 0.82146 0.26727 0.07869 0.0
H458 H 0.5299 0.64931 0.57121 0.0
H459 H 0.57271 0.74076 0.58554 0.0
H460 H 0.71082 0.71508 0.57291 0.0
H461 H 0.66764 0.62421 0.55749 0.0
H462 H 0.64149 0.79578 0.68861 0.0
H463 H 0.79185 0.80088 0.53332 0.0
H464 H 0.78786 0.77079 0.41701 0.0
H465 H 0.63133 0.75538 0.35896 0.0
H466 H 0.6345 0.78666 0.47477 0.0
H467 H 0.88221 0.87556 0.87045 0.0
H468 H 0.79799 0.83747 0.79162 0.0
H469 H 0.83496 0.96182 0.70241 0.0
H470 H 0.91919 0.00072 0.78322 0.0
H471 H 0.79068 0.87161 0.61046 0.0
H472 H 0.74863 0.95532 0.77939 0.0
H473 H 0.74864 0.99258 0.89192 0.0
H474 H 0.6774 0.84323 0.91258 0.0
H475 H 0.67889 0.80469 0.80128 0.0
C476 C 0.56892 0.66345 0.56921 0.0
C477 C 0.59606 0.63069 0.56374 0.0
C478 C 0.59322 0.71543 0.5772 0.0
C479 C 0.64494 0.73497 0.58005 0.0
C480 C 0.67065 0.70106 0.56941 0.0
C481 C 0.64631 0.64921 0.56133 0.0
C482 C 0.67535 0.79002 0.6084 0.0
C483 C 0.67354 0.81305 0.67096 0.0
C484 C 0.71509 0.81479 0.58335 0.0
C485 C 0.71353 0.79647 0.51326 0.0
C486 C 0.7567 0.79182 0.49593 0.0
C487 C 0.75454 0.77437 0.42993 0.0
C488 C 0.70943 0.76134 0.38064 0.0
C489 C 0.6663 0.76562 0.39719 0.0
C490 C 0.66827 0.78318 0.46306 0.0
C491 C 0.87163 0.89532 0.83533 0.0
C492 C 0.90622 0.94131 0.83376 0.0
C493 C 0.82384 0.8736 0.79003 0.0
C494 C 0.80987 0.89754 0.74214 0.0
C495 C 0.84487 0.94314 0.73945 0.0
C496 C 0.89283 0.96503 0.78523 0.0
C497 C 0.75959 0.87206 0.69317 0.0
C498 C 0.75758 0.85545 0.62683 0.0
C499 C 0.71531 0.85452 0.71383 0.0
C500 C 0.71382 0.877 0.78134 0.0
C501 C 0.73336 0.93025 0.80798 0.0
C502 C 0.73327 0.95164 0.87178 0.0
C503 C 0.7132 0.92028 0.90946 0.0
C504 C 0.69308 0.86745 0.88334 0.0
C505 C 0.69356 0.84578 0.81978 0.0
H506 H 0.71316 0.93692 0.95885 0.0
H507 H 0.70792 0.74792 0.32964 0.0
loop_
_geom_bond_atom_site_label_1
_geom_bond_atom_site_label_2
_geom_bond_distance
_geom_bond_site_symmetry_2
_ccdc_geom_bond_type
Cd0 N3 2.334 1_655 S
Cd0 N29 2.304 1_565 S
Cd0 O36 2.268 1_554 S
Cd0 O39 2.273 1_665 S
Cd0 O40 2.417 . S
Cd0 O41 2.330 . S
Cd1 N16 2.304 1_455 S
Cd1 N20 2.334 1_545 S
Cd1 O37 2.273 1_445 S
Cd1 O38 2.268 1_556 S
Cd1 O42 2.417 . S
Cd1 O43 2.330 . S
C2 N3 1.332 . S
C2 C6 1.381 . S
C2 H8 0.931 . S
N3 Cd0 2.334 1_455 S
N3 C2 1.332 . S
N3 C7 1.328 . S
C4 C5 1.396 . S
C4 C7 1.378 . S
C4 H46 0.931 1_554 S
C5 C4 1.396 . S
C5 C6 1.382 . S
C6 C2 1.381 . S
C6 C5 1.382 . S
C6 H47 0.930 . S
C7 N3 1.328 . S
C7 C4 1.378 . S
C7 H9 0.930 1_454 S
H8 C2 0.931 . S
H9 C7 0.930 1_656 S
C10 O36 1.238 . S
C10 O37 1.253 . S
C11 C12 1.379 . S
C11 N16 1.337 . S
C11 H17 0.929 . S
C12 C11 1.379 . S
C12 C13 1.380 . S
C12 H48 0.929 . S
C13 C12 1.380 . S
C13 C14 1.399 . S
C14 C13 1.399 . S
C14 C15 1.376 . S
C14 H49 0.931 1_556 S
C15 C14 1.376 . S
C15 N16 1.338 . S
C15 H18 0.930 1_656 S
N16 Cd1 2.304 1_655 S
N16 C11 1.337 . S
N16 C15 1.338 . S
H17 C11 0.929 . S
H18 C15 0.930 1_454 S
C19 N20 1.332 . S
C19 C23 1.381 . S
C19 H25 0.931 . S
N20 Cd1 2.334 1_565 S
N20 C19 1.332 . S
N20 C24 1.328 . S
C21 C22 1.396 . S
C21 C24 1.378 . S
C21 H50 0.931 1_556 S
C22 C21 1.396 . S
C22 C23 1.382 . S
C23 C19 1.381 . S
C23 C22 1.382 . S
C23 H51 0.930 . S
C24 N20 1.328 . S
C24 C21 1.378 . S
C24 H26 0.930 1_566 S
H25 C19 0.931 . S
H26 C24 0.930 1_544 S
C27 O38 1.238 . S
C27 O39 1.253 . S
C28 O40 1.239 . S
C28 O41 1.230 . S
N29 Cd0 2.304 1_545 S
N29 C30 1.337 . S
N29 C34 1.338 . S
C30 N29 1.337 . S
C30 C31 1.379 . S
C30 H44 0.929 . S
C31 C30 1.379 . S
C31 C32 1.380 . S
C31 H52 0.929 . S
C32 C31 1.380 . S
C32 C33 1.399 . S
C33 C32 1.399 . S
C33 C34 1.376 . S
C33 H53 0.931 1_554 S
C34 N29 1.338 . S
C34 C33 1.376 . S
C34 H45 0.930 1_544 S
C35 O42 1.239 . S
C35 O43 1.230 . S
O36 Cd0 2.268 1_556 S
O36 C10 1.238 . S
O37 Cd1 2.273 1_665 S
O37 C10 1.253 . S
O38 Cd1 2.268 1_554 S
O38 C27 1.238 . S
O39 Cd0 2.273 1_445 S
O39 C27 1.253 . S
O40 Cd0 2.417 . S
O40 C28 1.239 . S
O41 Cd0 2.330 . S
O41 C28 1.230 . S
O42 Cd1 2.417 . S
O42 C35 1.239 . S
O43 Cd1 2.330 . S
O43 C35 1.230 . S
H44 C30 0.929 . S
H45 C34 0.930 1_566 S
H46 C4 0.931 1_556 S
H47 C6 0.930 . S
H48 C12 0.929 . S
H49 C14 0.931 1_554 S
H50 C21 0.931 1_554 S
H51 C23 0.930 . S
H52 C31 0.929 . S
H53 C33 0.931 1_556 S
Cd54 N57 2.334 . S
Cd54 N83 2.304 . S
Cd54 O90 2.268 . S
Cd54 O93 2.273 . S
Cd54 O94 2.417 . S
Cd54 O95 2.330 . S
Cd55 N70 2.304 . S
Cd55 N74 2.334 . S
Cd55 O91 2.273 . S
Cd55 O92 2.268 . S
Cd55 O96 2.417 . S
Cd55 O97 2.330 . S
C56 N57 1.332 . S
C56 C60 1.381 . S
C56 H62 0.931 . S
N57 Cd54 2.334 . S
N57 C56 1.332 . S
N57 C61 1.328 . S
C58 C59 1.396 . S
C58 C61 1.378 . S
C58 H100 0.931 . S
C59 C58 1.396 . S
C59 C60 1.382 . S
C60 C56 1.381 . S
C60 C59 1.382 . S
C60 H101 0.930 . S
C61 N57 1.328 . S
C61 C58 1.378 . S
C61 H63 0.930 . S
H62 C56 0.931 . S
H63 C61 0.930 . S
C64 O90 1.238 . S
C64 O91 1.253 . S
C65 C66 1.379 . S
C65 N70 1.337 . S
C65 H71 0.929 . S
C66 C65 1.379 . S
C66 C67 1.380 . S
C66 H102 0.929 . S
C67 C66 1.380 . S
C67 C68 1.399 . S
C68 C67 1.399 . S
C68 C69 1.376 . S
C68 H103 0.931 . S
C69 C68 1.376 . S
C69 N70 1.338 . S
C69 H72 0.930 . S
N70 Cd55 2.304 . S
N70 C65 1.337 . S
N70 C69 1.338 . S
H71 C65 0.929 . S
H72 C69 0.930 . S
C73 N74 1.332 . S
C73 C77 1.381 . S
C73 H79 0.931 . S
N74 Cd55 2.334 . S
N74 C73 1.332 . S
N74 C78 1.328 . S
C75 C76 1.396 . S
C75 C78 1.378 . S
C75 H104 0.931 . S
C76 C75 1.396 . S
C76 C77 1.382 . S
C77 C73 1.381 . S
C77 C76 1.382 . S
C77 H105 0.930 . S
C78 N74 1.328 . S
C78 C75 1.378 . S
C78 H80 0.930 . S
H79 C73 0.931 . S
H80 C78 0.930 . S
C81 O92 1.238 . S
C81 O93 1.253 . S
C82 O94 1.239 . S
C82 O95 1.230 . S
N83 Cd54 2.304 . S
N83 C84 1.337 . S
N83 C88 1.338 . S
C84 N83 1.337 . S
C84 C85 1.379 . S
C84 H98 0.929 . S
C85 C84 1.379 . S
C85 C86 1.380 . S
C85 H106 0.929 . S
C86 C85 1.380 . S
C86 C87 1.399 . S
C87 C86 1.399 . S
C87 C88 1.376 . S
C87 H107 0.931 . S
C88 N83 1.338 . S
C88 C87 1.376 . S
C88 H99 0.930 . S
C89 O96 1.239 . S
C89 O97 1.230 . S
O90 Cd54 2.268 . S
O90 C64 1.238 . S
O91 Cd55 2.273 . S
O91 C64 1.253 . S
O92 Cd55 2.268 . S
O92 C81 1.238 . S
O93 Cd54 2.273 . S
O93 C81 1.253 . S
O94 Cd54 2.417 . S
O94 C82 1.239 . S
O95 Cd54 2.330 . S
O95 C82 1.230 . S
O96 Cd55 2.417 . S
O96 C89 1.239 . S
O97 Cd55 2.330 . S
O97 C89 1.230 . S
H98 C84 0.929 . S
H99 C88 0.930 . S
H100 C58 0.931 . S
H101 C60 0.930 . S
H102 C66 0.929 . S
H103 C68 0.931 . S
H104 C75 0.931 . S
H105 C77 0.930 . S
H106 C85 0.929 . S
H107 C87 0.931 . S
H108 C126 0.951 . S
H109 C128 0.951 . S
H110 C130 0.950 . S
H111 C131 0.950 . S
H112 C133 0.950 . S
H113 C136 0.950 . S
H114 C137 0.950 . S
H115 C139 0.950 . S
H116 C140 0.950 . S
H117 C141 0.951 . S
H118 C143 0.951 . S
H119 C145 0.950 . S
H120 C146 0.950 . S
H121 C148 0.950 . S
H122 C151 0.950 . S
H123 C152 0.950 . S
H124 C154 0.950 . S
H125 C155 0.950 . S
C126 H108 0.951 . S
C126 C127 1.366 . S
C126 C128 1.388 . S
C127 C126 1.366 . S
C127 C131 1.385 . S
C128 H109 0.951 . S
C128 C126 1.388 . S
C128 C129 1.366 . S
C129 C128 1.366 . S
C129 C130 1.414 . S
C129 C132 1.499 . S
C130 H110 0.950 . S
C130 C129 1.414 . S
C130 C131 1.374 . S
C131 H111 0.950 . S
C131 C127 1.385 . S
C131 C130 1.374 . S
C132 C129 1.499 . S
C132 C133 1.373 . S
C132 C134 1.389 . S
C133 H112 0.950 . S
C133 C132 1.373 . S
C133 C149 1.377 . S
C134 C132 1.389 . S
C134 C135 1.524 . S
C134 C148 1.377 . S
C135 C134 1.524 . S
C135 C136 1.397 . S
C135 C140 1.363 . S
C136 H113 0.950 . S
C136 C135 1.397 . S
C136 C137 1.334 . S
C137 H114 0.950 . S
C137 C136 1.334 . S
C137 C138 1.287 . S
C138 C137 1.287 . S
C138 C139 1.524 . S
C138 H157 0.913 . S
C139 H115 0.950 . S
C139 C138 1.524 . S
C139 C140 1.415 . S
C140 H116 0.950 . S
C140 C135 1.363 . S
C140 C139 1.415 . S
C141 H117 0.951 . S
C141 C142 1.366 . S
C141 C143 1.388 . S
C142 C141 1.366 . S
C142 C146 1.385 . S
C143 H118 0.951 . S
C143 C141 1.388 . S
C143 C144 1.366 . S
C144 C143 1.366 . S
C144 C145 1.414 . S
C144 C147 1.499 . S
C145 H119 0.950 . S
C145 C144 1.414 . S
C145 C146 1.374 . S
C146 H120 0.950 . S
C146 C142 1.385 . S
C146 C145 1.374 . S
C147 C144 1.499 . S
C147 C148 1.373 . S
C147 C149 1.389 . S
C148 H121 0.950 . S
C148 C134 1.377 . S
C148 C147 1.373 . S
C149 C133 1.377 . S
C149 C147 1.389 . S
C149 C150 1.524 . S
C150 C149 1.524 . S
C150 C151 1.397 . S
C150 C155 1.363 . S
C151 H122 0.950 . S
C151 C150 1.397 . S
C151 C152 1.334 . S
C152 H123 0.950 . S
C152 C151 1.334 . S
C152 C153 1.287 . S
C153 C152 1.287 . S
C153 C154 1.524 . S
C153 H156 0.999 . S
C154 H124 0.950 . S
C154 C153 1.524 . S
C154 C155 1.415 . S
C155 H125 0.950 . S
C155 C150 1.363 . S
C155 C154 1.415 . S
H156 C153 0.999 . S
H157 C138 0.913 . S
H158 C176 0.951 . S
H159 C178 0.951 . S
H160 C180 0.950 . S
H161 C181 0.950 . S
H162 C183 0.950 . S
H163 C186 0.950 . S
H164 C187 0.950 . S
H165 C189 0.950 . S
H166 C190 0.950 . S
H167 C191 0.951 . S
H168 C193 0.951 . S
H169 C195 0.950 . S
H170 C196 0.950 . S
H171 C198 0.950 . S
H172 C201 0.950 . S
H173 C202 0.950 . S
H174 C204 0.950 . S
H175 C205 0.950 . S
C176 H158 0.951 . S
C176 C177 1.366 . S
C176 C178 1.388 . S
C177 C176 1.366 . S
C177 C181 1.385 . S
C178 H159 0.951 . S
C178 C176 1.388 . S
C178 C179 1.366 . S
C179 C178 1.366 . S
C179 C180 1.414 . S
C179 C182 1.499 . S
C180 H160 0.950 . S
C180 C179 1.414 . S
C180 C181 1.374 . S
C181 H161 0.950 . S
C181 C177 1.385 . S
C181 C180 1.374 . S
C182 C179 1.499 . S
C182 C183 1.373 . S
C182 C184 1.389 . S
C183 H162 0.950 . S
C183 C182 1.373 . S
C183 C199 1.377 . S
C184 C182 1.389 . S
C184 C185 1.524 . S
C184 C198 1.377 . S
C185 C184 1.524 . S
C185 C186 1.397 . S
C185 C190 1.363 . S
C186 H163 0.950 . S
C186 C185 1.397 . S
C186 C187 1.334 . S
C187 H164 0.950 . S
C187 C186 1.334 . S
C187 C188 1.287 . S
C188 C187 1.287 . S
C188 C189 1.524 . S
C188 H207 0.913 . S
C189 H165 0.950 . S
C189 C188 1.524 . S
C189 C190 1.415 . S
C190 H166 0.950 . S
C190 C185 1.363 . S
C190 C189 1.415 . S
C191 H167 0.951 . S
C191 C192 1.366 . S
C191 C193 1.388 . S
C192 C191 1.366 . S
C192 C196 1.385 . S
C193 H168 0.951 . S
C193 C191 1.388 . S
C193 C194 1.366 . S
C194 C193 1.366 . S
C194 C195 1.414 . S
C194 C197 1.499 . S
C195 H169 0.950 . S
C195 C194 1.414 . S
C195 C196 1.374 . S
C196 H170 0.950 . S
C196 C192 1.385 . S
C196 C195 1.374 . S
C197 C194 1.499 . S
C197 C198 1.373 . S
C197 C199 1.389 . S
C198 H171 0.950 . S
C198 C184 1.377 . S
C198 C197 1.373 . S
C199 C183 1.377 . S
C199 C197 1.389 . S
C199 C200 1.524 . S
C200 C199 1.524 . S
C200 C201 1.397 . S
C200 C205 1.363 . S
C201 H172 0.950 . S
C201 C200 1.397 . S
C201 C202 1.334 . S
C202 H173 0.950 . S
C202 C201 1.334 . S
C202 C203 1.287 . S
C203 C202 1.287 . S
C203 C204 1.524 . S
C203 H206 0.999 . S
C204 H174 0.950 . S
C204 C203 1.524 . S
C204 C205 1.415 . S
C205 H175 0.950 . S
C205 C200 1.363 . S
C205 C204 1.415 . S
H206 C203 0.999 . S
H207 C188 0.913 . S
H208 C226 0.951 . S
H209 C228 0.951 . S
H210 C230 0.950 . S
H211 C231 0.950 . S
H212 C233 0.950 . S
H213 C236 0.950 . S
H214 C237 0.950 . S
H215 C239 0.950 . S
H216 C240 0.950 . S
H217 C241 0.951 . S
H218 C243 0.951 . S
H219 C245 0.950 . S
H220 C246 0.950 . S
H221 C248 0.950 . S
H222 C251 0.950 . S
H223 C252 0.950 . S
H224 C254 0.950 . S
H225 C255 0.950 . S
C226 H208 0.951 . S
C226 C227 1.366 . S
C226 C228 1.388 . S
C227 C226 1.366 . S
C227 C231 1.385 . S
C228 H209 0.951 . S
C228 C226 1.388 . S
C228 C229 1.366 . S
C229 C228 1.366 . S
C229 C230 1.414 . S
C229 C232 1.499 . S
C230 H210 0.950 . S
C230 C229 1.414 . S
C230 C231 1.374 . S
C231 H211 0.950 . S
C231 C227 1.385 . S
C231 C230 1.374 . S
C232 C229 1.499 . S
C232 C233 1.373 . S
C232 C234 1.389 . S
C233 H212 0.950 . S
C233 C232 1.373 . S
C233 C249 1.377 . S
C234 C232 1.389 . S
C234 C235 1.524 . S
C234 C248 1.377 . S
C235 C234 1.524 . S
C235 C236 1.397 . S
C235 C240 1.363 . S
C236 H213 0.950 . S
C236 C235 1.397 . S
C236 C237 1.334 . S
C237 H214 0.950 . S
C237 C236 1.334 . S
C237 C238 1.287 . S
C238 C237 1.287 . S
C238 C239 1.524 . S
C238 H257 0.913 . S
C239 H215 0.950 . S
C239 C238 1.524 . S
C239 C240 1.415 . S
C240 H216 0.950 . S
C240 C235 1.363 . S
C240 C239 1.415 . S
C241 H217 0.951 . S
C241 C242 1.366 . S
C241 C243 1.388 . S
C242 C241 1.366 . S
C242 C246 1.385 . S
C243 H218 0.951 . S
C243 C241 1.388 . S
C243 C244 1.366 . S
C244 C243 1.366 . S
C244 C245 1.414 . S
C244 C247 1.499 . S
C245 H219 0.950 . S
C245 C244 1.414 . S
C245 C246 1.374 . S
C246 H220 0.950 . S
C246 C242 1.385 . S
C246 C245 1.374 . S
C247 C244 1.499 . S
C247 C248 1.373 . S
C247 C249 1.389 . S
C248 H221 0.950 . S
C248 C234 1.377 . S
C248 C247 1.373 . S
C249 C233 1.377 . S
C249 C247 1.389 . S
C249 C250 1.524 . S
C250 C249 1.524 . S
C250 C251 1.397 . S
C250 C255 1.363 . S
C251 H222 0.950 . S
C251 C250 1.397 . S
C251 C252 1.334 . S
C252 H223 0.950 . S
C252 C251 1.334 . S
C252 C253 1.287 . S
C253 C252 1.287 . S
C253 C254 1.524 . S
C253 H256 0.999 . S
C254 H224 0.950 . S
C254 C253 1.524 . S
C254 C255 1.415 . S
C255 H225 0.950 . S
C255 C250 1.363 . S
C255 C254 1.415 . S
H256 C253 0.999 . S
H257 C238 0.913 . S
H258 C276 0.951 . S
H259 C278 0.951 . S
H260 C280 0.950 . S
H261 C281 0.950 . S
H262 C283 0.950 . S
H263 C286 0.950 . S
H264 C287 0.950 . S
H265 C289 0.950 . S
H266 C290 0.950 . S
H267 C291 0.951 . S
H268 C293 0.951 . S
H269 C295 0.950 . S
H270 C296 0.950 . S
H271 C298 0.950 . S
H272 C301 0.950 . S
H273 C302 0.950 . S
H274 C304 0.950 . S
H275 C305 0.950 . S
C276 H258 0.951 . S
C276 C277 1.366 . S
C276 C278 1.388 . S
C277 C276 1.366 . S
C277 C281 1.385 . S
C278 H259 0.951 . S
C278 C276 1.388 . S
C278 C279 1.366 . S
C279 C278 1.366 . S
C279 C280 1.414 . S
C279 C282 1.499 . S
C280 H260 0.950 . S
C280 C279 1.414 . S
C280 C281 1.374 . S
C281 H261 0.950 . S
C281 C277 1.385 . S
C281 C280 1.374 . S
C282 C279 1.499 . S
C282 C283 1.373 . S
C282 C284 1.389 . S
C283 H262 0.950 . S
C283 C282 1.373 . S
C283 C299 1.377 . S
C284 C282 1.389 . S
C284 C285 1.524 . S
C284 C298 1.377 . S
C285 C284 1.524 . S
C285 C286 1.397 . S
C285 C290 1.363 . S
C286 H263 0.950 . S
C286 C285 1.397 . S
C286 C287 1.334 . S
C287 H264 0.950 . S
C287 C286 1.334 . S
C287 C288 1.287 . S
C288 C287 1.287 . S
C288 C289 1.524 . S
C288 H307 0.913 . S
C289 H265 0.950 . S
C289 C288 1.524 . S
C289 C290 1.415 . S
C290 H266 0.950 . S
C290 C285 1.363 . S
C290 C289 1.415 . S
C291 H267 0.951 . S
C291 C292 1.366 . S
C291 C293 1.388 . S
C292 C291 1.366 . S
C292 C296 1.385 . S
C293 H268 0.951 . S
C293 C291 1.388 . S
C293 C294 1.366 . S
C294 C293 1.366 . S
C294 C295 1.414 . S
C294 C297 1.499 . S
C295 H269 0.950 . S
C295 C294 1.414 . S
C295 C296 1.374 . S
C296 H270 0.950 . S
C296 C292 1.385 . S
C296 C295 1.374 . S
C297 C294 1.499 . S
C297 C298 1.373 . S
C297 C299 1.389 . S
C298 H271 0.950 . S
C298 C284 1.377 . S
C298 C297 1.373 . S
C299 C283 1.377 . S
C299 C297 1.389 . S
C299 C300 1.524 . S
C300 C299 1.524 . S
C300 C301 1.397 . S
C300 C305 1.363 . S
C301 H272 0.950 . S
C301 C300 1.397 . S
C301 C302 1.334 . S
C302 H273 0.950 . S
C302 C301 1.334 . S
C302 C303 1.287 . S
C303 C302 1.287 . S
C303 C304 1.524 . S
C303 H306 0.999 . S
C304 H274 0.950 . S
C304 C303 1.524 . S
C304 C305 1.415 . S
C305 H275 0.950 . S
C305 C300 1.363 . S
C305 C304 1.415 . S
H306 C303 0.999 . S
H307 C288 0.913 . S
H308 C326 0.951 . S
H309 C328 0.951 . S
H310 C330 0.950 . S
H311 C331 0.950 . S
H312 C333 0.950 . S
H313 C336 0.950 . S
H314 C337 0.950 1_554 S
H315 C339 0.950 1_554 S
H316 C340 0.950 . S
H317 C341 0.951 . S
H318 C343 0.951 . S
H319 C345 0.950 . S
H320 C346 0.950 . S
H321 C348 0.950 . S
H322 C351 0.950 . S
H323 C352 0.950 . S
H324 C354 0.950 . S
H325 C355 0.950 . S
C326 H308 0.951 . S
C326 C327 1.366 . S
C326 C328 1.388 . S
C327 C326 1.366 . S
C327 C331 1.385 . S
C328 H309 0.951 . S
C328 C326 1.388 . S
C328 C329 1.366 . S
C329 C328 1.366 . S
C329 C330 1.414 . S
C329 C332 1.499 . S
C330 H310 0.950 . S
C330 C329 1.414 . S
C330 C331 1.374 . S
C331 H311 0.950 . S
C331 C327 1.385 . S
C331 C330 1.374 . S
C332 C329 1.499 . S
C332 C333 1.373 . S
C332 C334 1.389 . S
C333 H312 0.950 . S
C333 C332 1.373 . S
C333 C349 1.377 . S
C334 C332 1.389 . S
C334 C335 1.524 . S
C334 C348 1.377 . S
C335 C334 1.524 . S
C335 C336 1.397 . S
C335 C340 1.363 . S
C336 H313 0.950 . S
C336 C335 1.397 . S
C336 C337 1.334 . S
C337 H314 0.950 1_556 S
C337 C336 1.334 . S
C337 C338 1.287 1_556 S
C338 C337 1.287 1_554 S
C338 C339 1.524 1_554 S
C338 H357 0.913 . S
C339 H315 0.950 1_556 S
C339 C338 1.524 1_556 S
C339 C340 1.415 . S
C340 H316 0.950 . S
C340 C335 1.363 . S
C340 C339 1.415 . S
C341 H317 0.951 . S
C341 C342 1.366 . S
C341 C343 1.388 . S
C342 C341 1.366 . S
C342 C346 1.385 . S
C343 H318 0.951 . S
C343 C341 1.388 . S
C343 C344 1.366 . S
C344 C343 1.366 . S
C344 C345 1.414 . S
C344 C347 1.499 . S
C345 H319 0.950 . S
C345 C344 1.414 . S
C345 C346 1.374 . S
C346 H320 0.950 . S
C346 C342 1.385 . S
C346 C345 1.374 . S
C347 C344 1.499 . S
C347 C348 1.373 . S
C347 C349 1.389 . S
C348 H321 0.950 . S
C348 C334 1.377 . S
C348 C347 1.373 . S
C349 C333 1.377 . S
C349 C347 1.389 . S
C349 C350 1.524 . S
C350 C349 1.524 . S
C350 C351 1.397 . S
C350 C355 1.363 . S
C351 H322 0.950 . S
C351 C350 1.397 . S
C351 C352 1.334 . S
C352 H323 0.950 . S
C352 C351 1.334 . S
C352 C353 1.287 . S
C353 C352 1.287 . S
C353 C354 1.524 . S
C353 H356 0.999 . S
C354 H324 0.950 . S
C354 C353 1.524 . S
C354 C355 1.415 . S
C355 H325 0.950 . S
C355 C350 1.363 . S
C355 C354 1.415 . S
H356 C353 0.999 . S
H357 C338 0.913 . S
H358 C376 0.951 . S
H359 C378 0.951 . S
H360 C380 0.950 . S
H361 C381 0.950 . S
H362 C383 0.950 . S
H363 C386 0.950 . S
H364 C387 0.950 . S
H365 C389 0.950 . S
H366 C390 0.950 . S
H367 C391 0.951 . S
H368 C393 0.951 . S
H369 C395 0.950 . S
H370 C396 0.950 . S
H371 C398 0.950 . S
H372 C401 0.950 . S
H373 C402 0.950 . S
H374 C404 0.950 . S
H375 C405 0.950 . S
C376 H358 0.951 . S
C376 C377 1.366 . S
C376 C378 1.388 . S
C377 C376 1.366 . S
C377 C381 1.385 . S
C378 H359 0.951 . S
C378 C376 1.388 . S
C378 C379 1.366 . S
C379 C378 1.366 . S
C379 C380 1.414 . S
C379 C382 1.499 . S
C380 H360 0.950 . S
C380 C379 1.414 . S
C380 C381 1.374 . S
C381 H361 0.950 . S
C381 C377 1.385 . S
C381 C380 1.374 . S
C382 C379 1.499 . S
C382 C383 1.373 . S
C382 C384 1.389 . S
C383 H362 0.950 . S
C383 C382 1.373 . S
C383 C399 1.377 . S
C384 C382 1.389 . S
C384 C385 1.524 . S
C384 C398 1.377 . S
C385 C384 1.524 . S
C385 C386 1.397 . S
C385 C390 1.363 . S
C386 H363 0.950 . S
C386 C385 1.397 . S
C386 C387 1.334 . S
C387 H364 0.950 . S
C387 C386 1.334 . S
C387 C388 1.287 . S
C388 C387 1.287 . S
C388 C389 1.524 . S
C388 H407 0.913 . S
C389 H365 0.950 . S
C389 C388 1.524 . S
C389 C390 1.415 . S
C390 H366 0.950 . S
C390 C385 1.363 . S
C390 C389 1.415 . S
C391 H367 0.951 . S
C391 C392 1.366 . S
C391 C393 1.388 . S
C392 C391 1.366 . S
C392 C396 1.385 . S
C393 H368 0.951 . S
C393 C391 1.388 . S
C393 C394 1.366 . S
C394 C393 1.366 . S
C394 C395 1.414 . S
C394 C397 1.499 . S
C395 H369 0.950 . S
C395 C394 1.414 . S
C395 C396 1.374 . S
C396 H370 0.950 . S
C396 C392 1.385 . S
C396 C395 1.374 . S
C397 C394 1.499 . S
C397 C398 1.373 . S
C397 C399 1.389 . S
C398 H371 0.950 . S
C398 C384 1.377 . S
C398 C397 1.373 . S
C399 C383 1.377 . S
C399 C397 1.389 . S
C399 C400 1.524 . S
C400 C399 1.524 . S
C400 C401 1.397 . S
C400 C405 1.363 . S
C401 H372 0.950 . S
C401 C400 1.397 . S
C401 C402 1.334 . S
C402 H373 0.950 . S
C402 C401 1.334 . S
C402 C403 1.287 . S
C403 C402 1.287 . S
C403 C404 1.524 . S
C403 H406 0.999 . S
C404 H374 0.950 . S
C404 C403 1.524 . S
C404 C405 1.415 . S
C405 H375 0.950 . S
C405 C400 1.363 . S
C405 C404 1.415 . S
H406 C403 0.999 . S
H407 C388 0.913 . S
H408 C426 0.951 . S
H409 C428 0.951 . S
H410 C430 0.950 . S
H411 C431 0.950 . S
H412 C433 0.950 . S
H413 C436 0.950 . S
H414 C437 0.950 1_554 S
H415 C439 0.950 1_554 S
H416 C440 0.950 . S
H417 C441 0.951 . S
H418 C443 0.951 . S
H419 C445 0.950 . S
H420 C446 0.950 . S
H421 C448 0.950 . S
H422 C451 0.950 . S
H423 C452 0.950 . S
H424 C454 0.950 . S
H425 C455 0.950 . S
C426 H408 0.951 . S
C426 C427 1.366 . S
C426 C428 1.388 . S
C427 C426 1.366 . S
C427 C431 1.385 . S
C428 H409 0.951 . S
C428 C426 1.388 . S
C428 C429 1.366 . S
C429 C428 1.366 . S
C429 C430 1.414 . S
C429 C432 1.499 . S
C430 H410 0.950 . S
C430 C429 1.414 . S
C430 C431 1.374 . S
C431 H411 0.950 . S
C431 C427 1.385 . S
C431 C430 1.374 . S
C432 C429 1.499 . S
C432 C433 1.373 . S
C432 C434 1.389 . S
C433 H412 0.950 . S
C433 C432 1.373 . S
C433 C449 1.377 . S
C434 C432 1.389 . S
C434 C435 1.524 . S
C434 C448 1.377 . S
C435 C434 1.524 . S
C435 C436 1.397 . S
C435 C440 1.363 . S
C436 H413 0.950 . S
C436 C435 1.397 . S
C436 C437 1.334 . S
C437 H414 0.950 1_556 S
C437 C436 1.334 . S
C437 C438 1.287 1_556 S
C438 C437 1.287 1_554 S
C438 C439 1.524 1_554 S
C438 H457 0.913 . S
C439 H415 0.950 1_556 S
C439 C438 1.524 1_556 S
C439 C440 1.415 . S
C440 H416 0.950 . S
C440 C435 1.363 . S
C440 C439 1.415 . S
C441 H417 0.951 . S
C441 C442 1.366 . S
C441 C443 1.388 . S
C442 C441 1.366 . S
C442 C446 1.385 . S
C443 H418 0.951 . S
C443 C441 1.388 . S
C443 C444 1.366 . S
C444 C443 1.366 . S
C444 C445 1.414 . S
C444 C447 1.499 . S
C445 H419 0.950 . S
C445 C444 1.414 . S
C445 C446 1.374 . S
C446 H420 0.950 . S
C446 C442 1.385 . S
C446 C445 1.374 . S
C447 C444 1.499 . S
C447 C448 1.373 . S
C447 C449 1.389 . S
C448 H421 0.950 . S
C448 C434 1.377 . S
C448 C447 1.373 . S
C449 C433 1.377 . S
C449 C447 1.389 . S
C449 C450 1.524 . S
C450 C449 1.524 . S
C450 C451 1.397 . S
C450 C455 1.363 . S
C451 H422 0.950 . S
C451 C450 1.397 . S
C451 C452 1.334 . S
C452 H423 0.950 . S
C452 C451 1.334 . S
C452 C453 1.287 . S
C453 C452 1.287 . S
C453 C454 1.524 . S
C453 H456 0.999 . S
C454 H424 0.950 . S
C454 C453 1.524 . S
C454 C455 1.415 . S
C455 H425 0.950 . S
C455 C450 1.363 . S
C455 C454 1.415 . S
H456 C453 0.999 . S
H457 C438 0.913 . S
H458 C476 0.951 . S
H459 C478 0.951 . S
H460 C480 0.950 . S
H461 C481 0.950 . S
H462 C483 0.950 . S
H463 C486 0.950 . S
H464 C487 0.950 . S
H465 C489 0.950 . S
H466 C490 0.950 . S
H467 C491 0.951 . S
H468 C493 0.951 . S
H469 C495 0.950 . S
H470 C496 0.950 . S
H471 C498 0.950 . S
H472 C501 0.950 . S
H473 C502 0.950 1_554 S
H474 C504 0.950 . S
H475 C505 0.950 . S
C476 H458 0.951 . S
C476 C477 1.366 . S
C476 C478 1.388 . S
C477 C476 1.366 . S
C477 C481 1.385 . S
C478 H459 0.951 . S
C478 C476 1.388 . S
C478 C479 1.366 . S
C479 C478 1.366 . S
C479 C480 1.414 . S
C479 C482 1.499 . S
C480 H460 0.950 . S
C480 C479 1.414 . S
C480 C481 1.374 . S
C481 H461 0.950 . S
C481 C477 1.385 . S
C481 C480 1.374 . S
C482 C479 1.499 . S
C482 C483 1.373 . S
C482 C484 1.389 . S
C483 H462 0.950 . S
C483 C482 1.373 . S
C483 C499 1.377 . S
C484 C482 1.389 . S
C484 C485 1.524 . S
C484 C498 1.377 . S
C485 C484 1.524 . S
C485 C486 1.397 . S
C485 C490 1.363 . S
C486 H463 0.950 . S
C486 C485 1.397 . S
C486 C487 1.334 . S
C487 H464 0.950 . S
C487 C486 1.334 . S
C487 C488 1.287 . S
C488 C487 1.287 . S
C488 C489 1.524 . S
C488 H507 0.913 . S
C489 H465 0.950 . S
C489 C488 1.524 . S
C489 C490 1.415 . S
C490 H466 0.950 . S
C490 C485 1.363 . S
C490 C489 1.415 . S
C491 H467 0.951 . S
C491 C492 1.366 . S
C491 C493 1.388 . S
C492 C491 1.366 . S
C492 C496 1.385 . S
C493 H468 0.951 . S
C493 C491 1.388 . S
C493 C494 1.366 . S
C494 C493 1.366 . S
C494 C495 1.414 . S
C494 C497 1.499 . S
C495 H469 0.950 . S
C495 C494 1.414 . S
C495 C496 1.374 . S
C496 H470 0.950 . S
C496 C492 1.385 . S
C496 C495 1.374 . S
C497 C494 1.499 . S
C497 C498 1.373 . S
C497 C499 1.389 . S
C498 H471 0.950 . S
C498 C484 1.377 . S
C498 C497 1.373 . S
C499 C483 1.377 . S
C499 C497 1.389 . S
C499 C500 1.524 . S
C500 C499 1.524 . S
C500 C501 1.397 . S
C500 C505 1.363 . S
C501 H472 0.950 . S
C501 C500 1.397 . S
C501 C502 1.334 . S
C502 H473 0.950 1_556 S
C502 C501 1.334 . S
C502 C503 1.287 . S
C503 C502 1.287 . S
C503 C504 1.524 . S
C503 H506 0.999 1_556 S
C504 H474 0.950 . S
C504 C503 1.524 . S
C504 C505 1.415 . S
C505 H475 0.950 . S
C505 C500 1.363 . S
C505 C504 1.415 . S
H506 C503 0.999 1_554 S
H507 C488 0.913 . S
C127 C27 0.091 . S
C142 C64 0.089 . S
C177 C32 2.096 . S
C192 C76 2.092 . S
C227 C28 1.138 . S
C242 C89 1.139 . S
C277 C5 2.093 . S
C292 C67 2.096 . S
C327 C22 2.093 . S
C342 C86 2.097 . S
C377 C82 1.138 . S
C392 C35 1.136 . S
C427 C13 2.096 . S
C442 C59 2.093 . S
C477 C81 0.088 . S
C492 C10 0.090 . S
