# Generated by pormake.
# Topology wgm, (5)-cn, num edge types: 1
# Building blocks:
#     Node 0, Type 0, BuildingBlock: BEQFEK_clean_sbu_0, # of connection points: 5
#     Node 1, Type 0, BuildingBlock: BEQFEK_clean_sbu_0, # of connection points: 5
#     Node 2, Type 0, BuildingBlock: BEQFEK_clean_sbu_0, # of connection points: 5
#     Node 3, Type 0, BuildingBlock: BEQFEK_clean_sbu_0, # of connection points: 5
#     Node 4, Type 0, BuildingBlock: BEQFEK_clean_sbu_0, # of connection points: 5
#     Node 5, Type 0, BuildingBlock: BEQFEK_clean_sbu_0, # of connection points: 5
#     Node 6, Type 0, BuildingBlock: BEQFEK_clean_sbu_0, # of connection points: 5
#     Node 7, Type 0, BuildingBlock: BEQFEK_clean_sbu_0, # of connection points: 5
#     Node 8, Type 0, BuildingBlock: BEQFEK_clean_sbu_0, # of connection points: 5
#     Node 9, Type 0, BuildingBlock: BEQFEK_clean_sbu_0, # of connection points: 5
#     Node 10, Type 0, BuildingBlock: BEQFEK_clean_sbu_0, # of connection points: 5
#     Node 11, Type 0, BuildingBlock: BEQFEK_clean_sbu_0, # of connection points: 5
#     Node 12, Type 0, BuildingBlock: BEQFEK_clean_sbu_0, # of connection points: 5
#     Node 13, Type 0, BuildingBlock: BEQFEK_clean_sbu_0, # of connection points: 5
#     Node 14, Type 0, BuildingBlock: BEQFEK_clean_sbu_0, # of connection points: 5
#     Node 15, Type 0, BuildingBlock: BEQFEK_clean_sbu_0, # of connection points: 5
#     Node 16, Type 0, BuildingBlock: BEQFEK_clean_sbu_0, # of connection points: 5
#     Node 17, Type 0, BuildingBlock: BEQFEK_clean_sbu_0, # of connection points: 5
#     Node 18, Type 0, BuildingBlock: BEQFEK_clean_sbu_0, # of connection points: 5
#     Node 19, Type 0, BuildingBlock: BEQFEK_clean_sbu_0, # of connection points: 5
#     Node 20, Type 0, BuildingBlock: BEQFEK_clean_sbu_0, # of connection points: 5
#     Node 21, Type 0, BuildingBlock: BEQFEK_clean_sbu_0, # of connection points: 5
#     Node 22, Type 0, BuildingBlock: BEQFEK_clean_sbu_0, # of connection points: 5
#     Node 23, Type 0, BuildingBlock: BEQFEK_clean_sbu_0, # of connection points: 5
#     Node 24, Type 0, BuildingBlock: BEQFEK_clean_sbu_0, # of connection points: 5
#     Node 25, Type 0, BuildingBlock: BEQFEK_clean_sbu_0, # of connection points: 5
#     Node 26, Type 0, BuildingBlock: BEQFEK_clean_sbu_0, # of connection points: 5
#     Node 27, Type 0, BuildingBlock: BEQFEK_clean_sbu_0, # of connection points: 5
#     Node 28, Type 0, BuildingBlock: BEQFEK_clean_sbu_0, # of connection points: 5
#     Node 29, Type 0, BuildingBlock: BEQFEK_clean_sbu_0, # of connection points: 5
#     Node 30, Type 0, BuildingBlock: BEQFEK_clean_sbu_0, # of connection points: 5
#     Node 31, Type 0, BuildingBlock: BEQFEK_clean_sbu_0, # of connection points: 5
#     Edge 32, Type (0, 0), BuildingBlock: TEMPAE_clean_linker_10, # of connection points: 2
#     Edge 33, Type (0, 0), BuildingBlock: TEMPAE_clean_linker_10, # of connection points: 2
#     Edge 34, Type (0, 0), BuildingBlock: TEMPAE_clean_linker_10, # of connection points: 2
#     Edge 35, Type (0, 0), BuildingBlock: TEMPAE_clean_linker_10, # of connection points: 2
#     Edge 36, Type (0, 0), BuildingBlock: TEMPAE_clean_linker_10, # of connection points: 2
#     Edge 37, Type (0, 0), BuildingBlock: TEMPAE_clean_linker_10, # of connection points: 2
#     Edge 38, Type (0, 0), BuildingBlock: TEMPAE_clean_linker_10, # of connection points: 2
#     Edge 39, Type (0, 0), BuildingBlock: TEMPAE_clean_linker_10, # of connection points: 2
#     Edge 40, Type (0, 0), BuildingBlock: TEMPAE_clean_linker_10, # of connection points: 2
#     Edge 41, Type (0, 0), BuildingBlock: TEMPAE_clean_linker_10, # of connection points: 2
#     Edge 42, Type (0, 0), BuildingBlock: TEMPAE_clean_linker_10, # of connection points: 2
#     Edge 43, Type (0, 0), BuildingBlock: TEMPAE_clean_linker_10, # of connection points: 2
#     Edge 44, Type (0, 0), BuildingBlock: TEMPAE_clean_linker_10, # of connection points: 2
#     Edge 45, Type (0, 0), BuildingBlock: TEMPAE_clean_linker_10, # of connection points: 2
#     Edge 46, Type (0, 0), BuildingBlock: TEMPAE_clean_linker_10, # of connection points: 2
#     Edge 47, Type (0, 0), BuildingBlock: TEMPAE_clean_linker_10, # of connection points: 2
#     Edge 48, Type (0, 0), BuildingBlock: TEMPAE_clean_linker_10, # of connection points: 2
#     Edge 49, Type (0, 0), BuildingBlock: TEMPAE_clean_linker_10, # of connection points: 2
#     Edge 50, Type (0, 0), BuildingBlock: TEMPAE_clean_linker_10, # of connection points: 2
#     Edge 51, Type (0, 0), BuildingBlock: TEMPAE_clean_linker_10, # of connection points: 2
#     Edge 52, Type (0, 0), BuildingBlock: TEMPAE_clean_linker_10, # of connection points: 2
#     Edge 53, Type (0, 0), BuildingBlock: TEMPAE_clean_linker_10, # of connection points: 2
#     Edge 54, Type (0, 0), BuildingBlock: TEMPAE_clean_linker_10, # of connection points: 2
#     Edge 55, Type (0, 0), BuildingBlock: TEMPAE_clean_linker_10, # of connection points: 2
#     Edge 56, Type (0, 0), BuildingBlock: TEMPAE_clean_linker_10, # of connection points: 2
#     Edge 57, Type (0, 0), BuildingBlock: TEMPAE_clean_linker_10, # of connection points: 2
#     Edge 58, Type (0, 0), BuildingBlock: TEMPAE_clean_linker_10, # of connection points: 2
#     Edge 59, Type (0, 0), BuildingBlock: TEMPAE_clean_linker_10, # of connection points: 2
#     Edge 60, Type (0, 0), BuildingBlock: TEMPAE_clean_linker_10, # of connection points: 2
#     Edge 61, Type (0, 0), BuildingBlock: TEMPAE_clean_linker_10, # of connection points: 2
#     Edge 62, Type (0, 0), BuildingBlock: TEMPAE_clean_linker_10, # of connection points: 2
#     Edge 63, Type (0, 0), BuildingBlock: TEMPAE_clean_linker_10, # of connection points: 2
#     Edge 64, Type (0, 0), BuildingBlock: TEMPAE_clean_linker_10, # of connection points: 2
#     Edge 65, Type (0, 0), BuildingBlock: TEMPAE_clean_linker_10, # of connection points: 2
#     Edge 66, Type (0, 0), BuildingBlock: TEMPAE_clean_linker_10, # of connection points: 2
#     Edge 67, Type (0, 0), BuildingBlock: TEMPAE_clean_linker_10, # of connection points: 2
#     Edge 68, Type (0, 0), BuildingBlock: TEMPAE_clean_linker_10, # of connection points: 2
#     Edge 69, Type (0, 0), BuildingBlock: TEMPAE_clean_linker_10, # of connection points: 2
#     Edge 70, Type (0, 0), BuildingBlock: TEMPAE_clean_linker_10, # of connection points: 2
#     Edge 71, Type (0, 0), BuildingBlock: TEMPAE_clean_linker_10, # of connection points: 2
#     Edge 72, Type (0, 0), BuildingBlock: TEMPAE_clean_linker_10, # of connection points: 2
#     Edge 73, Type (0, 0), BuildingBlock: TEMPAE_clean_linker_10, # of connection points: 2
#     Edge 74, Type (0, 0), BuildingBlock: TEMPAE_clean_linker_10, # of connection points: 2
#     Edge 75, Type (0, 0), BuildingBlock: TEMPAE_clean_linker_10, # of connection points: 2
#     Edge 76, Type (0, 0), BuildingBlock: TEMPAE_clean_linker_10, # of connection points: 2
#     Edge 77, Type (0, 0), BuildingBlock: TEMPAE_clean_linker_10, # of connection points: 2
#     Edge 78, Type (0, 0), BuildingBlock: TEMPAE_clean_linker_10, # of connection points: 2
#     Edge 79, Type (0, 0), BuildingBlock: TEMPAE_clean_linker_10, # of connection points: 2
#     Edge 80, Type (0, 0), BuildingBlock: TEMPAE_clean_linker_10, # of connection points: 2
#     Edge 81, Type (0, 0), BuildingBlock: TEMPAE_clean_linker_10, # of connection points: 2
#     Edge 82, Type (0, 0), BuildingBlock: TEMPAE_clean_linker_10, # of connection points: 2
#     Edge 83, Type (0, 0), BuildingBlock: TEMPAE_clean_linker_10, # of connection points: 2
#     Edge 84, Type (0, 0), BuildingBlock: TEMPAE_clean_linker_10, # of connection points: 2
#     Edge 85, Type (0, 0), BuildingBlock: TEMPAE_clean_linker_10, # of connection points: 2
#     Edge 86, Type (0, 0), BuildingBlock: TEMPAE_clean_linker_10, # of connection points: 2
#     Edge 87, Type (0, 0), BuildingBlock: TEMPAE_clean_linker_10, # of connection points: 2
#     Edge 88, Type (0, 0), BuildingBlock: TEMPAE_clean_linker_10, # of connection points: 2
#     Edge 89, Type (0, 0), BuildingBlock: TEMPAE_clean_linker_10, # of connection points: 2
#     Edge 90, Type (0, 0), BuildingBlock: TEMPAE_clean_linker_10, # of connection points: 2
#     Edge 91, Type (0, 0), BuildingBlock: TEMPAE_clean_linker_10, # of connection points: 2
#     Edge 92, Type (0, 0), BuildingBlock: TEMPAE_clean_linker_10, # of connection points: 2
#     Edge 93, Type (0, 0), BuildingBlock: TEMPAE_clean_linker_10, # of connection points: 2
#     Edge 94, Type (0, 0), BuildingBlock: TEMPAE_clean_linker_10, # of connection points: 2
#     Edge 95, Type (0, 0), BuildingBlock: TEMPAE_clean_linker_10, # of connection points: 2
#     Edge 96, Type (0, 0), BuildingBlock: TEMPAE_clean_linker_10, # of connection points: 2
#     Edge 97, Type (0, 0), BuildingBlock: TEMPAE_clean_linker_10, # of connection points: 2
#     Edge 98, Type (0, 0), BuildingBlock: TEMPAE_clean_linker_10, # of connection points: 2
#     Edge 99, Type (0, 0), BuildingBlock: TEMPAE_clean_linker_10, # of connection points: 2
#     Edge 100, Type (0, 0), BuildingBlock: TEMPAE_clean_linker_10, # of connection points: 2
#     Edge 101, Type (0, 0), BuildingBlock: TEMPAE_clean_linker_10, # of connection points: 2
#     Edge 102, Type (0, 0), BuildingBlock: TEMPAE_clean_linker_10, # of connection points: 2
#     Edge 103, Type (0, 0), BuildingBlock: TEMPAE_clean_linker_10, # of connection points: 2
#     Edge 104, Type (0, 0), BuildingBlock: TEMPAE_clean_linker_10, # of connection points: 2
#     Edge 105, Type (0, 0), BuildingBlock: TEMPAE_clean_linker_10, # of connection points: 2
#     Edge 106, Type (0, 0), BuildingBlock: TEMPAE_clean_linker_10, # of connection points: 2
#     Edge 107, Type (0, 0), BuildingBlock: TEMPAE_clean_linker_10, # of connection points: 2
#     Edge 108, Type (0, 0), BuildingBlock: TEMPAE_clean_linker_10, # of connection points: 2
#     Edge 109, Type (0, 0), BuildingBlock: TEMPAE_clean_linker_10, # of connection points: 2
#     Edge 110, Type (0, 0), BuildingBlock: TEMPAE_clean_linker_10, # of connection points: 2
#     Edge 111, Type (0, 0), BuildingBlock: TEMPAE_clean_linker_10, # of connection points: 2
# Relax obj value: 0.070
# Max RMSD: 0.115
# Mean RMSD: 0.115
data_MOF--net-wgm--node1-BEQFEK_clean_sbu_0--edge1-TEMPAE_clean_linker_10
_symmetry_space_group_name_H-M    P1
_symmetry_Int_Tables_number       1
_symmetry_cell_setting            triclinic
loop_
_symmetry_equiv_pos_as_xyz
'x, y, z'
_cell_length_a     48.64876
_cell_length_b     48.6475
_cell_length_c     83.936549
_cell_angle_alpha  89.984023
_cell_angle_beta   90.018248
_cell_angle_gamma 90.000309
loop_
_atom_site_label
_atom_site_type_symbol
_atom_site_fract_x
_atom_site_fract_y
_atom_site_fract_z
_atom_type_partial_charge
Co0 Co 0.19597 0.10622 0.3136 0.0
Co1 Co 0.20031 0.15612 0.337 0.0
C2 C 0.14867 0.12343 0.33416 0.0
O3 O 0.1591 0.10828 0.32338 0.0
O4 O 0.16244 0.14267 0.34063 0.0
C5 C 0.17491 0.07694 0.28667 0.0
O6 O 0.1562 0.09642 0.28658 0.0
C7 C 0.18676 0.20701 0.35393 0.0
C8 C 0.22779 0.22154 0.3615 0.0
C9 C 0.20005 0.22786 0.36214 0.0
N10 N 0.20577 0.18907 0.34877 0.0
N11 N 0.23023 0.1978 0.35339 0.0
C12 C 0.15684 0.20515 0.3499 0.0
H13 H 0.15416 0.19569 0.33797 0.0
H14 H 0.14705 0.22575 0.35001 0.0
H15 H 0.14643 0.1919 0.35881 0.0
C16 C 0.21425 0.14901 0.29055 0.0
N17 N 0.2067 0.14077 0.30524 0.0
N18 N 0.20747 0.16198 0.31497 0.0
C19 C 0.21499 0.18451 0.30671 0.0
C20 C 0.21968 0.17702 0.29097 0.0
C21 C 0.21806 0.1301 0.27666 0.0
H22 H 0.22597 0.10994 0.28079 0.0
H23 H 0.19794 0.12684 0.27074 0.0
H24 H 0.23259 0.13889 0.26784 0.0
O25 O 0.22263 0.09332 0.32966 0.0
O26 O 0.22628 0.12898 0.34598 0.0
H27 H 0.2351 0.21457 0.32113 0.0
H28 H 0.21711 0.22882 0.3042 0.0
C29 C 0.21643 0.21283 0.31362 0.0
H30 H 0.1982 0.21657 0.32121 0.0
H31 H 0.24862 0.18761 0.3509 0.0
O32 O 0.19408 0.07769 0.29694 0.0
C33 C 0.23289 0.10464 0.34197 0.0
Co34 Co 0.13361 0.94782 0.56149 0.0
Co35 Co 0.0852 0.95152 0.5861 0.0
C36 C 0.11891 0.90053 0.58279 0.0
O37 O 0.13307 0.91102 0.57158 0.0
O38 O 0.0998 0.91403 0.58957 0.0
C39 C 0.18205 0.93268 0.54469 0.0
O40 O 0.1867 0.91842 0.55772 0.0
C41 C 0.03515 0.93697 0.60363 0.0
C42 C 0.02031 0.97765 0.6116 0.0
C43 C 0.01426 0.94983 0.61204 0.0
N44 N 0.05282 0.95629 0.59854 0.0
N45 N 0.04394 0.98054 0.60342 0.0
C46 C 0.03712 0.90722 0.59925 0.0
H47 H 0.05018 0.89649 0.60813 0.0
H48 H 0.04681 0.90497 0.58735 0.0
H49 H 0.01653 0.89741 0.59911 0.0
C50 C 0.08924 0.96521 0.53957 0.0
N51 N 0.0983 0.9577 0.55409 0.0
N52 N 0.07769 0.95821 0.56422 0.0
C53 C 0.05464 0.96554 0.55639 0.0
C54 C 0.06121 0.97044 0.54052 0.0
C55 C 0.10768 0.96931 0.52549 0.0
H56 H 0.12666 0.98013 0.52927 0.0
H57 H 0.11371 0.94894 0.52068 0.0
H58 H 0.09751 0.98143 0.51597 0.0
O59 O 0.14707 0.975 0.57708 0.0
O60 O 0.1125 0.97826 0.59422 0.0
H61 H 0.02526 0.98537 0.57142 0.0
H62 H 0.01019 0.96727 0.55476 0.0
C63 C 0.02673 0.96674 0.56386 0.0
H64 H 0.02359 0.94845 0.5715 0.0
H65 H 0.05383 -0.00089 0.60098 0.0
O66 O 0.16017 0.94683 0.54365 0.0
C67 C 0.13641 0.98529 0.58957 0.0
Co68 Co 0.29641 0.88759 0.81274 0.0
Co69 Co 0.29298 0.84007 0.83786 0.0
C70 C 0.34275 0.876 0.83506 0.0
O71 O 0.33194 0.89012 0.82395 0.0
O72 O 0.33016 0.85577 0.84132 0.0
C73 C 0.3184 0.91969 0.78692 0.0
O74 O 0.34061 0.90478 0.78908 0.0
C75 C 0.30784 0.78737 0.85229 0.0
C76 C 0.27597 0.78282 0.87087 0.0
C77 C 0.29932 0.77062 0.86466 0.0
N78 N 0.29024 0.80855 0.85116 0.0
N79 N 0.27114 0.80564 0.86223 0.0
C80 C 0.33359 0.78472 0.84268 0.0
H81 H 0.35167 0.78657 0.85068 0.0
H82 H 0.33456 0.80086 0.83336 0.0
H83 H 0.33446 0.76414 0.83702 0.0
C84 C 0.28362 0.84115 0.7909 0.0
N85 N 0.2893 0.85126 0.80547 0.0
N86 N 0.28698 0.8314 0.81606 0.0
C87 C 0.27923 0.80814 0.80859 0.0
C88 C 0.27703 0.81347 0.79238 0.0
C89 C 0.28507 0.85777 0.77591 0.0
H90 H 0.26952 0.87444 0.77639 0.0
H91 H 0.30562 0.86745 0.77504 0.0
H92 H 0.28175 0.84507 0.76512 0.0
O93 O 0.26692 0.89971 0.82728 0.0
O94 O 0.26471 0.86629 0.84521 0.0
H95 H 0.2608 0.78695 0.82834 0.0
H96 H 0.25736 0.76942 0.80952 0.0
C97 C 0.27128 0.78214 0.81696 0.0
H98 H 0.29005 0.77003 0.81957 0.0
H99 H 0.2552 0.8196 0.86417 0.0
O100 O 0.2971 0.91485 0.79521 0.0
C101 C 0.25642 0.88925 0.83978 0.0
Co102 Co 0.36049 0.04569 0.06137 0.0
Co103 Co 0.41076 0.04651 0.08475 0.0
C104 C 0.37234 0.09376 0.08295 0.0
O105 O 0.35777 0.08135 0.07261 0.0
O106 O 0.39413 0.08301 0.08855 0.0
C107 C 0.3294 0.06615 0.03508 0.0
O108 O 0.3474 0.08628 0.03546 0.0
C109 C 0.45568 0.06027 0.10703 0.0
C110 C 0.4829 0.02428 0.10415 0.0
C111 C 0.48087 0.04944 0.11182 0.0
N112 N 0.44413 0.04279 0.09657 0.0
N113 N 0.46017 0.02102 0.09525 0.0
C114 C 0.44118 0.08496 0.11357 0.0
H115 H 0.41885 0.08079 0.11452 0.0
H116 H 0.44424 0.10263 0.1054 0.0
H117 H 0.44887 0.09035 0.12562 0.0
C118 C 0.40489 0.03367 0.03809 0.0
N119 N 0.39608 0.03983 0.05288 0.0
N120 N 0.4174 0.04177 0.06249 0.0
C121 C 0.44054 0.03815 0.0539 0.0
C122 C 0.43339 0.03239 0.03825 0.0
C123 C 0.38629 0.027 0.02442 0.0
H124 H 0.36719 0.01715 0.02882 0.0
H125 H 0.38073 0.0463 0.01816 0.0
H126 H 0.39653 0.01308 0.0158 0.0
O127 O 0.35092 0.01632 0.07624 0.0
O128 O 0.38601 0.01726 0.09309 0.0
H129 H 0.47741 0.02247 0.06442 0.0
H130 H 0.48284 0.04984 0.05048 0.0
C131 C 0.4691 0.04234 0.0601 0.0
H132 H 0.46911 0.05744 0.06998 0.0
H133 H 0.45571 0.00403 0.08811 0.0
O134 O 0.33186 0.04622 0.04474 0.0
C135 C 0.36308 0.00731 0.08858 0.0
Co136 Co 0.201 0.89001 0.18212 0.0
Co137 Co 0.20562 0.84102 0.15812 0.0
C138 C 0.15688 0.87844 0.15821 0.0
O139 O 0.16693 0.89277 0.16946 0.0
O140 O 0.16945 0.85752 0.15275 0.0
C141 C 0.17636 0.9229 0.2065 0.0
O142 O 0.15434 0.90831 0.20325 0.0
C143 C 0.18972 0.79036 0.14201 0.0
C144 C 0.22914 0.77594 0.13195 0.0
C145 C 0.20145 0.76955 0.13303 0.0
N146 N 0.20951 0.8083 0.14599 0.0
N147 N 0.23302 0.79969 0.13987 0.0
C148 C 0.16063 0.79234 0.14767 0.0
H149 H 0.15964 0.80399 0.15902 0.0
H150 H 0.15164 0.77157 0.14935 0.0
H151 H 0.14829 0.80344 0.1386 0.0
C152 C 0.21052 0.84469 0.20522 0.0
N153 N 0.20615 0.85406 0.19033 0.0
N154 N 0.20837 0.83349 0.18023 0.0
C155 C 0.21437 0.81036 0.18835 0.0
C156 C 0.21588 0.81666 0.20446 0.0
C157 C 0.20957 0.8624 0.21978 0.0
H158 H 0.2251 0.879 0.21873 0.0
H159 H 0.18905 0.87217 0.22062 0.0
H160 H 0.21322 0.85047 0.23084 0.0
O161 O 0.23249 0.90047 0.16864 0.0
O162 O 0.23561 0.86592 0.1515 0.0
H163 H 0.2372 0.78705 0.17129 0.0
H164 H 0.22964 0.76837 0.18924 0.0
C165 C 0.22146 0.78355 0.18061 0.0
H166 H 0.20285 0.77496 0.17482 0.0
H167 H 0.25173 0.80992 0.14122 0.0
O168 O 0.19869 0.91775 0.19924 0.0
C169 C 0.24406 0.88891 0.15682 0.0
Co170 Co 0.36459 0.94645 0.43581 0.0
Co171 Co 0.40802 0.95236 0.40853 0.0
C172 C 0.37459 0.90087 0.41317 0.0
O173 O 0.36302 0.90982 0.42571 0.0
O174 O 0.39169 0.91539 0.40539 0.0
C175 C 0.31764 0.93356 0.45379 0.0
O176 O 0.31068 0.92227 0.44016 0.0
C177 C 0.45904 0.93815 0.39231 0.0
C178 C 0.46051 0.96876 0.37286 0.0
C179 C 0.47404 0.94616 0.37911 0.0
N180 N 0.43761 0.95532 0.39389 0.0
N181 N 0.43866 0.97367 0.38228 0.0
C182 C 0.46343 0.91311 0.40234 0.0
H183 H 0.44757 0.91166 0.4118 0.0
H184 H 0.4841 0.91383 0.40789 0.0
H185 H 0.46262 0.89453 0.39468 0.0
C186 C 0.41276 0.96189 0.45535 0.0
N187 N 0.4012 0.95559 0.44125 0.0
N188 N 0.41957 0.95851 0.42986 0.0
C189 C 0.44335 0.96734 0.43636 0.0
C190 C 0.43984 0.96965 0.45272 0.0
C191 C 0.39803 0.96016 0.47097 0.0
H192 H 0.38345 0.97762 0.47194 0.0
H193 H 0.38597 0.94083 0.4715 0.0
H194 H 0.41254 0.96075 0.48116 0.0
O195 O 0.34868 0.9746 0.42122 0.0
O196 O 0.38055 0.97992 0.40255 0.0
H197 H 0.46147 0.98599 0.41567 0.0
H198 H 0.48081 0.99088 0.43382 0.0
C199 C 0.46798 0.97618 0.42697 0.0
H200 H 0.48066 0.9579 0.42414 0.0
H201 H 0.42405 0.98909 0.38054 0.0
O202 O 0.34079 0.94552 0.45492 0.0
C203 C 0.35744 0.98626 0.4086 0.0
Co204 Co 0.29853 0.11025 0.68354 0.0
Co205 Co 0.29331 0.15625 0.65761 0.0
C206 C 0.34431 0.12164 0.6613 0.0
O207 O 0.33505 0.10895 0.6734 0.0
O208 O 0.33013 0.13974 0.65406 0.0
C209 C 0.31972 0.07879 0.70992 0.0
O210 O 0.34212 0.09344 0.70784 0.0
C211 C 0.30822 0.20877 0.64309 0.0
C212 C 0.27747 0.21254 0.62382 0.0
C213 C 0.30022 0.22522 0.63046 0.0
N214 N 0.2909 0.18733 0.64395 0.0
N215 N 0.27248 0.18975 0.63245 0.0
C216 C 0.3333 0.21198 0.65323 0.0
H217 H 0.33469 0.19514 0.66212 0.0
H218 H 0.3327 0.23204 0.65949 0.0
H219 H 0.35186 0.21188 0.64554 0.0
C220 C 0.28384 0.15708 0.70461 0.0
N221 N 0.28988 0.14649 0.69021 0.0
N222 N 0.28711 0.16578 0.67931 0.0
C223 C 0.27861 0.18913 0.68641 0.0
C224 C 0.27646 0.18447 0.70269 0.0
C225 C 0.28584 0.14123 0.71985 0.0
H226 H 0.3065 0.13179 0.72072 0.0
H227 H 0.2826 0.15445 0.73044 0.0
H228 H 0.27044 0.12441 0.71977 0.0
O229 O 0.27023 0.09647 0.66837 0.0
O230 O 0.26533 0.12988 0.6506 0.0
H231 H 0.25519 0.22683 0.68481 0.0
H232 H 0.28822 0.22735 0.67518 0.0
C233 C 0.26989 0.2145 0.67766 0.0
H234 H 0.26006 0.20892 0.6662 0.0
H235 H 0.25689 0.17551 0.63026 0.0
O236 O 0.2987 0.0836 0.70137 0.0
C237 C 0.25871 0.10638 0.656 0.0
Co238 Co 0.13575 0.04889 0.93394 0.0
Co239 Co 0.08621 0.04652 0.91009 0.0
C240 C 0.1222 0.09616 0.91231 0.0
O241 O 0.13656 0.08522 0.9233 0.0
O242 O 0.10202 0.08345 0.90605 0.0
C243 C 0.16749 0.0696 0.96017 0.0
O244 O 0.15056 0.09061 0.95951 0.0
C245 C 0.04102 0.05902 0.88783 0.0
C246 C 0.01421 0.02282 0.89103 0.0
C247 C 0.01575 0.04801 0.88333 0.0
N248 N 0.05303 0.0417 0.89819 0.0
N249 N 0.03728 0.01974 0.89967 0.0
C250 C 0.05527 0.08362 0.88101 0.0
H251 H 0.07749 0.07916 0.87967 0.0
H252 H 0.05284 0.10131 0.88923 0.0
H253 H 0.047 0.08904 0.8691 0.0
C254 C 0.09149 0.03516 0.95696 0.0
N255 N 0.10039 0.04111 0.94216 0.0
N256 N 0.07925 0.04196 0.93237 0.0
C257 C 0.05605 0.0378 0.94085 0.0
C258 C 0.06306 0.03283 0.95661 0.0
C259 C 0.11004 0.03011 0.97088 0.0
H260 H 0.12934 0.0202 0.96685 0.0
H261 H 0.11526 0.05008 0.9765 0.0
H262 H 0.09998 0.01684 0.97991 0.0
O263 O 0.14714 0.02046 0.91877 0.0
O264 O 0.11195 0.01806 0.90205 0.0
H265 H 0.0197 0.02101 0.93031 0.0
H266 H 0.01344 0.04859 0.94398 0.0
C267 C 0.02749 0.04117 0.93449 0.0
H268 H 0.02726 0.05605 0.92449 0.0
H269 H 0.04206 0.00286 0.90682 0.0
O270 O 0.16409 0.0495 0.95073 0.0
C271 C 0.13561 0.01007 0.90658 0.0
Co272 Co 0.79634 0.88284 0.68442 0.0
Co273 Co 0.79302 0.83609 0.65894 0.0
C274 C 0.84219 0.8726 0.66131 0.0
O275 O 0.832 0.88533 0.67316 0.0
O276 O 0.82916 0.85318 0.65452 0.0
C277 C 0.80868 0.93182 0.70085 0.0
O278 O 0.81833 0.93867 0.68677 0.0
C279 C 0.80915 0.78782 0.64043 0.0
C280 C 0.76897 0.77166 0.63246 0.0
C281 C 0.79701 0.76681 0.63177 0.0
N282 N 0.78919 0.80437 0.64592 0.0
N283 N 0.76524 0.79474 0.64103 0.0
C284 C 0.83885 0.7908 0.64476 0.0
H285 H 0.84089 0.80069 0.65661 0.0
H286 H 0.8493 0.77052 0.64495 0.0
H287 H 0.84912 0.80408 0.63581 0.0
C288 C 0.78397 0.83623 0.70587 0.0
N289 N 0.78953 0.84659 0.69136 0.0
N290 N 0.78926 0.82662 0.6808 0.0
C291 C 0.78409 0.8027 0.68834 0.0
C292 C 0.7804 0.80799 0.70448 0.0
C293 C 0.7798 0.8536 0.7204 0.0
H294 H 0.76801 0.87232 0.71722 0.0
H295 H 0.80012 0.86016 0.72504 0.0
H296 H 0.76856 0.84235 0.72987 0.0
O297 O 0.76658 0.89556 0.67029 0.0
O298 O 0.76359 0.86199 0.65248 0.0
H299 H 0.76464 0.77352 0.67299 0.0
H300 H 0.78431 0.75812 0.68897 0.0
C301 C 0.7836 0.77526 0.68027 0.0
H302 H 0.80155 0.77342 0.67224 0.0
H303 H 0.74632 0.8037 0.64376 0.0
O304 O 0.79806 0.90819 0.70273 0.0
C305 C 0.7555 0.88499 0.65799 0.0
Co306 Co 0.85797 0.05029 0.43291 0.0
Co307 Co 0.90543 0.04368 0.4081 0.0
C308 C 0.87007 0.09432 0.40935 0.0
O309 O 0.85651 0.08541 0.42123 0.0
O310 O 0.8892 0.08012 0.40308 0.0
C311 C 0.82531 0.07394 0.45797 0.0
O312 O 0.83926 0.09646 0.45492 0.0
C313 C 0.95547 0.0595 0.39147 0.0
C314 C 0.96914 0.02031 0.38077 0.0
C315 C 0.9758 0.04792 0.38207 0.0
N316 N 0.93755 0.03971 0.39548 0.0
N317 N 0.94569 0.01635 0.38898 0.0
C318 C 0.95389 0.08841 0.39748 0.0
H319 H 0.94338 0.08894 0.40921 0.0
H320 H 0.97472 0.09753 0.39858 0.0
H321 H 0.94175 0.10094 0.38896 0.0
C322 C 0.90393 0.03901 0.4553 0.0
N323 N 0.89393 0.04329 0.44054 0.0
N324 N 0.91389 0.04024 0.43011 0.0
C325 C 0.93721 0.0336 0.43787 0.0
C326 C 0.93171 0.03266 0.45411 0.0
C327 C 0.88715 0.04158 0.47016 0.0
H328 H 0.87742 0.06217 0.47046 0.0
H329 H 0.89975 0.0391 0.48107 0.0
H330 H 0.87051 0.02598 0.47002 0.0
O331 O 0.84553 0.02012 0.41878 0.0
O332 O 0.87968 0.01461 0.40157 0.0
H333 H 0.97848 0.0165 0.43808 0.0
H334 H 0.97263 0.04422 0.42414 0.0
C335 C 0.96343 0.02572 0.42973 0.0
H336 H 0.95897 0.0106 0.42021 0.0
H337 H 0.93536 0.99768 0.39025 0.0
O338 O 0.83082 0.05204 0.45037 0.0
C339 C 0.85618 0.00779 0.40691 0.0
Co340 Co 0.69754 0.11332 0.1853 0.0
Co341 Co 0.70143 0.15828 0.15869 0.0
C342 C 0.65048 0.12478 0.16368 0.0
O343 O 0.66022 0.11257 0.17583 0.0
O344 O 0.66449 0.1423 0.15591 0.0
C345 C 0.68335 0.06688 0.20394 0.0
O346 O 0.66906 0.06079 0.19114 0.0
C347 C 0.68515 0.20815 0.14195 0.0
C348 C 0.71974 0.21462 0.12531 0.0
C349 C 0.69445 0.22499 0.12985 0.0
N350 N 0.70413 0.18865 0.14458 0.0
N351 N 0.72479 0.1926 0.1346 0.0
C352 C 0.65788 0.2094 0.15015 0.0
H353 H 0.64179 0.20154 0.14196 0.0
H354 H 0.65803 0.19665 0.16112 0.0
H355 H 0.6526 0.23095 0.1532 0.0
C356 C 0.71577 0.16016 0.20513 0.0
N357 N 0.70769 0.14948 0.1911 0.0
N358 N 0.70855 0.16873 0.1801 0.0
C359 C 0.71694 0.19246 0.18681 0.0
C360 C 0.72184 0.18781 0.20292 0.0
C361 C 0.71983 0.1434 0.21991 0.0
H362 H 0.73073 0.12407 0.21689 0.0
H363 H 0.69945 0.13784 0.2249 0.0
H364 H 0.73191 0.1546 0.22904 0.0
O365 O 0.72442 0.0979 0.16995 0.0
O366 O 0.72856 0.1308 0.15176 0.0
H367 H 0.73473 0.21682 0.16824 0.0
H368 H 0.72539 0.23638 0.18581 0.0
C369 C 0.71945 0.21908 0.17796 0.0
H370 H 0.69938 0.2242 0.17252 0.0
H371 H 0.74213 0.18002 0.13396 0.0
O372 O 0.6973 0.08896 0.20419 0.0
C373 C 0.73519 0.10732 0.15723 0.0
Co374 Co 0.63697 0.9475 0.93265 0.0
Co375 Co 0.59023 0.95156 0.90706 0.0
C376 C 0.62462 0.90066 0.91099 0.0
O377 O 0.6381 0.91082 0.92257 0.0
O378 O 0.60586 0.91433 0.904 0.0
C379 C 0.66815 0.92689 0.95937 0.0
O380 O 0.65275 0.90487 0.95782 0.0
C381 C 0.5377 0.93674 0.89246 0.0
C382 C 0.53398 0.96776 0.87334 0.0
C383 C 0.52136 0.94485 0.87982 0.0
N384 N 0.55906 0.95414 0.89349 0.0
N385 N 0.55665 0.97274 0.88208 0.0
C386 C 0.5345 0.91148 0.90245 0.0
H387 H 0.55053 0.91066 0.91185 0.0
H388 H 0.51386 0.91123 0.90805 0.0
H389 H 0.5361 0.89301 0.89474 0.0
C390 C 0.59061 0.96341 0.95384 0.0
N391 N 0.60083 0.9565 0.93947 0.0
N392 N 0.58121 0.95856 0.92871 0.0
C393 C 0.55797 0.9672 0.93587 0.0
C394 C 0.56309 0.97038 0.95203 0.0
C395 C 0.60694 0.96275 0.96895 0.0
H396 H 0.62452 0.97718 0.96795 0.0
H397 H 0.61538 0.94181 0.97068 0.0
H398 H 0.59434 0.96813 0.97949 0.0
O399 O 0.65048 0.97545 0.91731 0.0
O400 O 0.61687 0.97903 0.89957 0.0
H401 H 0.53724 0.98494 0.91575 0.0
H402 H 0.51927 0.98902 0.93441 0.0
C403 C 0.53216 0.97487 0.92722 0.0
H404 H 0.52011 0.95601 0.92474 0.0
H405 H 0.57085 0.9884 0.88 0.0
O406 O 0.66393 0.94748 0.95037 0.0
C407 C 0.64031 0.98623 0.9048 0.0
Co408 Co 0.7985 0.1124 0.81068 0.0
Co409 Co 0.79557 0.15975 0.8361 0.0
C410 C 0.84554 0.12461 0.83242 0.0
O411 O 0.83539 0.1116 0.82067 0.0
O412 O 0.83216 0.1433 0.83963 0.0
C413 C 0.81443 0.06579 0.79236 0.0
O414 O 0.83057 0.06124 0.80463 0.0
C415 C 0.80988 0.2042 0.85849 0.0
C416 C 0.77268 0.23013 0.85729 0.0
C417 C 0.79893 0.22906 0.86371 0.0
N418 N 0.79138 0.19195 0.84892 0.0
N419 N 0.76892 0.20719 0.84863 0.0
C420 C 0.8361 0.19078 0.86368 0.0
H421 H 0.83267 0.16847 0.86545 0.0
H422 H 0.85194 0.1935 0.8543 0.0
H423 H 0.84365 0.19944 0.87509 0.0
C424 C 0.78353 0.15815 0.78929 0.0
N425 N 0.78983 0.14825 0.80381 0.0
N426 N 0.79058 0.1686 0.81413 0.0
C427 C 0.78589 0.19236 0.80629 0.0
C428 C 0.78084 0.1865 0.79036 0.0
C429 C 0.77845 0.14038 0.77502 0.0
H430 H 0.76696 0.1217 0.77862 0.0
H431 H 0.79848 0.13381 0.76997 0.0
H432 H 0.76654 0.15137 0.76573 0.0
O433 O 0.77084 0.09899 0.82598 0.0
O434 O 0.76748 0.13316 0.84338 0.0
H435 H 0.76845 0.2269 0.81835 0.0
H436 H 0.79489 0.23564 0.80433 0.0
C437 C 0.78859 0.2204 0.81347 0.0
H438 H 0.80408 0.22024 0.82316 0.0
H439 H 0.7513 0.20229 0.84214 0.0
O440 O 0.79887 0.08677 0.79241 0.0
C441 C 0.7602 0.10953 0.83841 0.0
Co442 Co 0.63987 0.04773 0.56352 0.0
Co443 Co 0.58888 0.04494 0.58639 0.0
C444 C 0.62461 0.09472 0.58494 0.0
O445 O 0.6396 0.08391 0.57422 0.0
O446 O 0.60423 0.08189 0.59086 0.0
C447 C 0.67008 0.06954 0.53732 0.0
O448 O 0.6508 0.08846 0.53753 0.0
C449 C 0.54188 0.05767 0.60735 0.0
C450 C 0.5158 0.02097 0.604 0.0
C451 C 0.51642 0.0465 0.61134 0.0
N452 N 0.55493 0.04007 0.59758 0.0
N453 N 0.53956 0.01786 0.59601 0.0
C454 C 0.5552 0.08281 0.61414 0.0
H455 H 0.57728 0.07867 0.61631 0.0
H456 H 0.55346 0.09999 0.6055 0.0
H457 H 0.54575 0.08884 0.62564 0.0
C458 C 0.59714 0.03342 0.53965 0.0
N459 N 0.60508 0.03967 0.5546 0.0
N460 N 0.58334 0.04039 0.56394 0.0
C461 C 0.56073 0.03581 0.55501 0.0
C462 C 0.56877 0.03078 0.53942 0.0
C463 C 0.61647 0.02809 0.52613 0.0
H464 H 0.63593 0.01913 0.53065 0.0
H465 H 0.62114 0.04779 0.52006 0.0
H466 H 0.60721 0.01386 0.5173 0.0
O467 O 0.65061 0.01912 0.57882 0.0
O468 O 0.61438 0.01648 0.59479 0.0
H469 H 0.52429 0.01815 0.56491 0.0
H470 H 0.51805 0.04535 0.55098 0.0
C471 C 0.53175 0.03847 0.56078 0.0
H472 H 0.53053 0.05348 0.57068 0.0
H473 H 0.54507 0.00077 0.58921 0.0
O474 O 0.66891 0.04972 0.54715 0.0
C475 C 0.63832 0.00857 0.59072 0.0
Co476 Co 0.69855 0.88433 0.3125 0.0
Co477 Co 0.69877 0.83626 0.33739 0.0
C478 C 0.64988 0.8724 0.33341 0.0
O479 O 0.66199 0.88639 0.3227 0.0
O480 O 0.6615 0.85193 0.34003 0.0
C481 C 0.68725 0.93379 0.29608 0.0
O482 O 0.67588 0.94009 0.30979 0.0
C483 C 0.68242 0.78511 0.35324 0.0
C484 C 0.7184 0.77681 0.3686 0.0
C485 C 0.69254 0.76721 0.36462 0.0
N486 N 0.70151 0.80451 0.35052 0.0
N487 N 0.723 0.7994 0.35971 0.0
C488 C 0.65437 0.78497 0.34594 0.0
H489 H 0.63936 0.79298 0.35475 0.0
H490 H 0.65382 0.79817 0.33516 0.0
H491 H 0.64815 0.76372 0.3428 0.0
C492 C 0.71393 0.83876 0.29102 0.0
N493 N 0.70655 0.84832 0.30543 0.0
N494 N 0.70622 0.82788 0.3157 0.0
C495 C 0.71309 0.80447 0.30808 0.0
C496 C 0.71824 0.8106 0.29216 0.0
C497 C 0.71889 0.85683 0.27686 0.0
H498 H 0.73065 0.87528 0.28057 0.0
H499 H 0.69883 0.86383 0.27204 0.0
H500 H 0.73048 0.84601 0.26737 0.0
O501 O 0.72642 0.89668 0.32784 0.0
O502 O 0.7263 0.86289 0.34561 0.0
H503 H 0.72954 0.77669 0.3254 0.0
H504 H 0.71802 0.76005 0.30727 0.0
C505 C 0.71374 0.77678 0.31586 0.0
H506 H 0.69355 0.77266 0.32143 0.0
H507 H 0.74062 0.81161 0.36012 0.0
O508 O 0.69852 0.9104 0.29443 0.0
C509 C 0.73529 0.88596 0.34068 0.0
Co510 Co 0.8598 0.94706 0.06243 0.0
Co511 Co 0.90685 0.95101 0.08786 0.0
C512 C 0.87344 0.8996 0.08337 0.0
O513 O 0.85956 0.91 0.07201 0.0
O514 O 0.89209 0.91331 0.09043 0.0
C515 C 0.82804 0.92661 0.03597 0.0
O516 O 0.8432 0.90444 0.0376 0.0
C517 C 0.9601 0.93688 0.10181 0.0
C518 C 0.96379 0.9675 0.12115 0.0
C519 C 0.97675 0.94511 0.1143 0.0
N520 N 0.93826 0.95375 0.10122 0.0
N521 N 0.94064 0.97209 0.11276 0.0
C522 C 0.96354 0.91201 0.09154 0.0
H523 H 0.94691 0.9108 0.08251 0.0
H524 H 0.98375 0.91269 0.08544 0.0
H525 H 0.96321 0.8933 0.09911 0.0
C526 C 0.90563 0.96428 0.0412 0.0
N527 N 0.89564 0.95705 0.05556 0.0
N528 N 0.91531 0.95926 0.06628 0.0
C529 C 0.93832 0.96843 0.0591 0.0
C530 C 0.93304 0.97172 0.04296 0.0
C531 C 0.88927 0.96319 0.02611 0.0
H532 H 0.87189 0.9779 0.02691 0.0
H533 H 0.88053 0.94231 0.02468 0.0
H534 H 0.90192 0.96799 0.01549 0.0
O535 O 0.84592 0.97389 0.07831 0.0
O536 O 0.87961 0.97729 0.096 0.0
H537 H 0.95901 0.98585 0.07933 0.0
H538 H 0.97647 0.99115 0.06062 0.0
C539 C 0.9641 0.97638 0.0677 0.0
H540 H 0.97668 0.95774 0.06982 0.0
H541 H 0.92615 0.98736 0.11515 0.0
O542 O 0.8326 0.9473 0.04483 0.0
C543 C 0.85591 0.98414 0.09102 0.0
Co544 Co 0.69865 0.60698 0.81345 0.0
Co545 Co 0.70322 0.65573 0.83774 0.0
C546 C 0.65142 0.62298 0.8341 0.0
O547 O 0.66188 0.60816 0.82319 0.0
O548 O 0.66518 0.64199 0.84081 0.0
C549 C 0.67656 0.57506 0.78773 0.0
O550 O 0.65499 0.59102 0.78954 0.0
C551 C 0.68829 0.70704 0.85365 0.0
C552 C 0.72737 0.71916 0.86509 0.0
C553 C 0.70019 0.72698 0.86322 0.0
N554 N 0.70752 0.68822 0.8501 0.0
N555 N 0.73081 0.69548 0.85703 0.0
C556 C 0.65965 0.70655 0.84716 0.0
H557 H 0.65938 0.69638 0.83532 0.0
H558 H 0.65124 0.72768 0.8461 0.0
H559 H 0.64634 0.69457 0.85535 0.0
C560 C 0.71524 0.65121 0.791 0.0
N561 N 0.70878 0.64212 0.80568 0.0
N562 N 0.71092 0.66256 0.81589 0.0
C563 C 0.7191 0.6853 0.80804 0.0
C564 C 0.72204 0.67891 0.792 0.0
C565 C 0.71344 0.63388 0.77631 0.0
H566 H 0.72733 0.61591 0.77752 0.0
H567 H 0.69216 0.62605 0.77506 0.0
H568 H 0.71867 0.6455 0.76537 0.0
O569 O 0.72553 0.59375 0.82944 0.0
O570 O 0.72909 0.62849 0.84643 0.0
H571 H 0.73981 0.70816 0.82617 0.0
H572 H 0.73589 0.72669 0.80779 0.0
C573 C 0.7258 0.712 0.81602 0.0
H574 H 0.70663 0.7213 0.82072 0.0
H575 H 0.74907 0.68431 0.85621 0.0
O576 O 0.6977 0.579 0.79633 0.0
C577 C 0.73578 0.60442 0.84196 0.0
Co578 Co 0.63468 0.44782 0.06179 0.0
Co579 Co 0.58668 0.45074 0.08665 0.0
C580 C 0.62232 0.4009 0.08363 0.0
O581 O 0.63652 0.41201 0.07266 0.0
O582 O 0.60207 0.4133 0.09 0.0
C583 C 0.68397 0.43516 0.0455 0.0
O584 O 0.68983 0.42348 0.0592 0.0
C585 C 0.53605 0.4347 0.1029 0.0
C586 C 0.52355 0.4734 0.11463 0.0
C587 C 0.51608 0.44613 0.11264 0.0
N588 N 0.55454 0.45426 0.09937 0.0
N589 N 0.54705 0.47732 0.10648 0.0
C590 C 0.5368 0.40622 0.0962 0.0
H591 H 0.54757 0.40615 0.08454 0.0
H592 H 0.51569 0.39792 0.09475 0.0
H593 H 0.54827 0.39268 0.10451 0.0
C594 C 0.58895 0.4606 0.03979 0.0
N595 N 0.59868 0.4551 0.05445 0.0
N596 N 0.57853 0.45702 0.06484 0.0
C597 C 0.55533 0.46429 0.05714 0.0
C598 C 0.56114 0.46677 0.04098 0.0
C599 C 0.60601 0.45926 0.02497 0.0
H600 H 0.61896 0.4405 0.02521 0.0
H601 H 0.59307 0.45892 0.01409 0.0
H602 H 0.61988 0.47735 0.02456 0.0
O603 O 0.64701 0.47664 0.07669 0.0
O604 O 0.61326 0.47838 0.09444 0.0
H605 H 0.51406 0.48138 0.05727 0.0
H606 H 0.51957 0.45202 0.0701 0.0
C607 C 0.52889 0.47116 0.06535 0.0
H608 H 0.53307 0.48508 0.07551 0.0
H609 H 0.5579 0.49577 0.10567 0.0
O610 O 0.66096 0.44718 0.04383 0.0
C611 C 0.63647 0.48661 0.0893 0.0
Co612 Co 0.79939 0.39035 0.31221 0.0
Co613 Co 0.79402 0.33997 0.3352 0.0
C614 C 0.84312 0.37693 0.33595 0.0
O615 O 0.83322 0.3921 0.32503 0.0
O616 O 0.83045 0.35571 0.34093 0.0
C617 C 0.82426 0.42473 0.28854 0.0
O618 O 0.84628 0.40988 0.29139 0.0
C619 C 0.80914 0.28801 0.35026 0.0
C620 C 0.76944 0.27367 0.35999 0.0
C621 C 0.79701 0.26684 0.35879 0.0
N622 N 0.78966 0.30654 0.34664 0.0
N623 N 0.76599 0.29794 0.35255 0.0
C624 C 0.8383 0.28996 0.34472 0.0
H625 H 0.83946 0.30196 0.33349 0.0
H626 H 0.84719 0.2692 0.34286 0.0
H627 H 0.85061 0.30076 0.35392 0.0
C628 C 0.79102 0.34631 0.28809 0.0
N629 N 0.7943 0.35493 0.30322 0.0
N630 N 0.79131 0.33388 0.31292 0.0
C631 C 0.7856 0.31124 0.3043 0.0
C632 C 0.78537 0.3183 0.28825 0.0
C633 C 0.79392 0.3646 0.27384 0.0
H634 H 0.77836 0.38124 0.27444 0.0
H635 H 0.81453 0.37426 0.27402 0.0
H636 H 0.79173 0.35319 0.26249 0.0
O637 O 0.76787 0.40021 0.32582 0.0
O638 O 0.76433 0.36483 0.34236 0.0
H639 H 0.76249 0.28753 0.32107 0.0
H640 H 0.7685 0.27004 0.30258 0.0
C641 C 0.7777 0.28416 0.31146 0.0
H642 H 0.79617 0.27437 0.31673 0.0
H643 H 0.74746 0.30857 0.35142 0.0
O644 O 0.80196 0.41921 0.29574 0.0
C645 C 0.75616 0.38819 0.33745 0.0
Co646 Co 0.8611 0.54992 0.55994 0.0
Co647 Co 0.90898 0.54519 0.58477 0.0
C648 C 0.8745 0.59618 0.58185 0.0
O649 O 0.86049 0.58609 0.57046 0.0
O650 O 0.89365 0.5825 0.58851 0.0
C651 C 0.82697 0.57147 0.53476 0.0
O652 O 0.84047 0.5945 0.53716 0.0
C653 C 0.9595 0.56063 0.60137 0.0
C654 C 0.97231 0.52126 0.61223 0.0
C655 C 0.97958 0.54869 0.61082 0.0
N656 N 0.94115 0.54118 0.59742 0.0
N657 N 0.9488 0.51773 0.60402 0.0
C658 C 0.95849 0.58954 0.59532 0.0
H659 H 0.94828 0.59019 0.5835 0.0
H660 H 0.97948 0.59837 0.5944 0.0
H661 H 0.94631 0.60226 0.60372 0.0
C662 C 0.90676 0.53679 0.53773 0.0
N663 N 0.89686 0.54174 0.55242 0.0
N664 N 0.91691 0.53936 0.56286 0.0
C665 C 0.94019 0.53241 0.55516 0.0
C666 C 0.93459 0.53066 0.53895 0.0
C667 C 0.88995 0.53911 0.52285 0.0
H668 H 0.87382 0.52298 0.52289 0.0
H669 H 0.87955 0.55937 0.52265 0.0
H670 H 0.90266 0.53718 0.51195 0.0
O671 O 0.84842 0.52155 0.57517 0.0
O672 O 0.88258 0.51764 0.59249 0.0
H673 H 0.96248 0.51091 0.57324 0.0
H674 H 0.98167 0.51581 0.55519 0.0
C675 C 0.96662 0.52544 0.56337 0.0
H676 H 0.97565 0.54442 0.5685 0.0
H677 H 0.93807 0.49927 0.60282 0.0
O678 O 0.83343 0.55015 0.54267 0.0
C679 C 0.85894 0.51058 0.58751 0.0
Co680 Co 0.69808 0.38834 0.68225 0.0
Co681 Co 0.70324 0.3399 0.65785 0.0
C682 C 0.65189 0.37368 0.6605 0.0
O683 O 0.66177 0.38801 0.67181 0.0
O684 O 0.66583 0.35465 0.65394 0.0
C685 C 0.67585 0.4199 0.70816 0.0
O686 O 0.65433 0.40385 0.70644 0.0
C687 C 0.68801 0.28888 0.64184 0.0
C688 C 0.7273 0.27583 0.631 0.0
C689 C 0.69991 0.26852 0.63258 0.0
N690 N 0.70743 0.30743 0.64551 0.0
N691 N 0.73084 0.29964 0.63892 0.0
C692 C 0.65918 0.28994 0.64801 0.0
H693 H 0.65868 0.30042 0.65975 0.0
H694 H 0.65043 0.26896 0.64915 0.0
H695 H 0.64631 0.30189 0.63957 0.0
C696 C 0.71337 0.34367 0.70474 0.0
N697 N 0.70719 0.35295 0.69005 0.0
N698 N 0.70933 0.33259 0.6798 0.0
C699 C 0.71706 0.30968 0.68763 0.0
C700 C 0.71983 0.31591 0.7037 0.0
C701 C 0.71218 0.36101 0.71945 0.0
H702 H 0.69089 0.36858 0.72108 0.0
H703 H 0.71817 0.34944 0.73028 0.0
H704 H 0.72579 0.37914 0.71799 0.0
O705 O 0.7262 0.40117 0.66691 0.0
O706 O 0.73048 0.36649 0.64994 0.0
H707 H 0.73871 0.28682 0.66988 0.0
H708 H 0.73304 0.26795 0.688 0.0
C709 C 0.72387 0.28302 0.67964 0.0
H710 H 0.70491 0.27418 0.67438 0.0
H711 H 0.74928 0.31046 0.63994 0.0
O712 O 0.69686 0.41613 0.69944 0.0
C713 C 0.73728 0.39037 0.65467 0.0
Co714 Co 0.86526 0.44485 0.93588 0.0
Co715 Co 0.91026 0.45154 0.9095 0.0
C716 C 0.87707 0.39962 0.91344 0.0
O717 O 0.86465 0.40835 0.92575 0.0
O718 O 0.89444 0.41437 0.906 0.0
C719 C 0.81859 0.43004 0.9542 0.0
O720 O 0.81281 0.41573 0.94135 0.0
C721 C 0.96246 0.43806 0.89424 0.0
C722 C 0.96465 0.469 0.87499 0.0
C723 C 0.97809 0.44644 0.88136 0.0
N724 N 0.94075 0.45496 0.89551 0.0
N725 N 0.94225 0.47353 0.88404 0.0
C726 C 0.96655 0.41289 0.90421 0.0
H727 H 0.9498 0.41074 0.91309 0.0
H728 H 0.98656 0.41413 0.9105 0.0
H729 H 0.96715 0.39448 0.89641 0.0
C730 C 0.91216 0.45959 0.95647 0.0
N731 N 0.90143 0.45403 0.94206 0.0
N732 N 0.92039 0.45762 0.93108 0.0
C733 C 0.94368 0.4664 0.93815 0.0
C734 C 0.93928 0.46779 0.95449 0.0
C735 C 0.89674 0.45628 0.97179 0.0
H736 H 0.88231 0.47377 0.97322 0.0
H737 H 0.88451 0.43706 0.97144 0.0
H738 H 0.91083 0.45555 0.98217 0.0
O739 O 0.85002 0.47286 0.92098 0.0
O740 O 0.88288 0.47881 0.90297 0.0
H741 H 0.96269 0.48566 0.91791 0.0
H742 H 0.98063 0.49093 0.9365 0.0
C743 C 0.96868 0.47594 0.92934 0.0
H744 H 0.98202 0.45801 0.92676 0.0
H745 H 0.92758 0.48882 0.88211 0.0
O746 O 0.84056 0.44416 0.95458 0.0
C747 C 0.85933 0.48473 0.90856 0.0
Co748 Co 0.79833 0.60979 0.18305 0.0
Co749 Co 0.7925 0.6578 0.15847 0.0
C750 C 0.84376 0.62376 0.16067 0.0
O751 O 0.83407 0.60965 0.17211 0.0
O752 O 0.82978 0.64284 0.15418 0.0
C753 C 0.82218 0.5789 0.20857 0.0
O754 O 0.84342 0.59511 0.20628 0.0
C755 C 0.80762 0.70813 0.14179 0.0
C756 C 0.76825 0.72103 0.13097 0.0
C757 C 0.79576 0.72808 0.13221 0.0
N758 N 0.78809 0.69001 0.14593 0.0
N759 N 0.76461 0.69773 0.13938 0.0
C760 C 0.8366 0.70702 0.14774 0.0
H761 H 0.83728 0.69707 0.15963 0.0
H762 H 0.8456 0.72794 0.14849 0.0
H763 H 0.84913 0.69455 0.13939 0.0
C764 C 0.78461 0.65492 0.20554 0.0
N765 N 0.78991 0.64537 0.1908 0.0
N766 N 0.7873 0.66557 0.18047 0.0
C767 C 0.77998 0.68862 0.18829 0.0
C768 C 0.77808 0.68267 0.20445 0.0
C769 C 0.78684 0.63784 0.22032 0.0
H770 H 0.80813 0.63001 0.22139 0.0
H771 H 0.78203 0.64968 0.23124 0.0
H772 H 0.77286 0.61989 0.21938 0.0
O773 O 0.7694 0.59683 0.16824 0.0
O774 O 0.76476 0.63122 0.15109 0.0
H775 H 0.76346 0.73013 0.18856 0.0
H776 H 0.79149 0.7241 0.17484 0.0
C777 C 0.77272 0.71509 0.18022 0.0
H778 H 0.75781 0.71099 0.17052 0.0
H779 H 0.7461 0.68712 0.14068 0.0
O780 O 0.80054 0.58234 0.20033 0.0
C781 C 0.75792 0.6075 0.15609 0.0
Co782 Co 0.63522 0.54307 0.43291 0.0
Co783 Co 0.58544 0.54204 0.40923 0.0
C784 C 0.62225 0.59058 0.41113 0.0
O785 O 0.63692 0.57889 0.42171 0.0
O786 O 0.60115 0.57891 0.40527 0.0
C787 C 0.66518 0.56364 0.4598 0.0
O788 O 0.64619 0.58285 0.45988 0.0
C789 C 0.53593 0.55764 0.39137 0.0
C790 C 0.51907 0.51704 0.3847 0.0
C791 C 0.51451 0.54504 0.38327 0.0
N792 N 0.55249 0.53797 0.39722 0.0
N793 N 0.54238 0.51376 0.39313 0.0
C794 C 0.53953 0.58766 0.39465 0.0
H795 H 0.54878 0.59069 0.4066 0.0
H796 H 0.5196 0.5987 0.39405 0.0
H797 H 0.55366 0.59652 0.38563 0.0
C798 C 0.5906 0.52871 0.45578 0.0
N799 N 0.59964 0.53585 0.44117 0.0
N800 N 0.57862 0.53657 0.4313 0.0
C801 C 0.55545 0.53074 0.43939 0.0
C802 C 0.56225 0.52527 0.45516 0.0
C803 C 0.60908 0.52276 0.46962 0.0
H804 H 0.62888 0.51419 0.46538 0.0
H805 H 0.61327 0.54217 0.47611 0.0
H806 H 0.59941 0.50798 0.47799 0.0
O807 O 0.64594 0.51401 0.41798 0.0
O808 O 0.61104 0.51354 0.40099 0.0
H809 H 0.52395 0.51243 0.42517 0.0
H810 H 0.51112 0.53278 0.44156 0.0
C811 C 0.52725 0.53138 0.43226 0.0
H812 H 0.52529 0.54936 0.42424 0.0
H813 H 0.55131 0.49499 0.3962 0.0
O814 O 0.6637 0.5443 0.44967 0.0
C815 C 0.63425 0.50446 0.40561 0.0
Co816 Co 0.29906 0.3809 0.18473 0.0
Co817 Co 0.2926 0.33564 0.1585 0.0
C818 C 0.34431 0.36916 0.16195 0.0
O819 O 0.33512 0.38209 0.17399 0.0
O820 O 0.3299 0.351 0.15491 0.0
C821 C 0.31243 0.42884 0.20202 0.0
O822 O 0.32382 0.43538 0.18834 0.0
C823 C 0.30605 0.28379 0.14291 0.0
C824 C 0.27419 0.28119 0.12419 0.0
C825 C 0.29729 0.26811 0.13013 0.0
N826 N 0.28884 0.30518 0.14452 0.0
N827 N 0.26973 0.30344 0.13337 0.0
C828 C 0.33181 0.28009 0.15241 0.0
H829 H 0.33347 0.29605 0.1618 0.0
H830 H 0.33196 0.25945 0.15802 0.0
H831 H 0.34986 0.28132 0.14436 0.0
C832 C 0.28549 0.33369 0.20552 0.0
N833 N 0.29044 0.34456 0.19106 0.0
N834 N 0.287 0.3255 0.18011 0.0
C835 C 0.27908 0.30197 0.18726 0.0
C836 C 0.27802 0.30633 0.20361 0.0
C837 C 0.28871 0.34919 0.22081 0.0
H838 H 0.30775 0.36171 0.22039 0.0
H839 H 0.2897 0.33516 0.23121 0.0
H840 H 0.27104 0.3634 0.22226 0.0
O841 O 0.27039 0.39581 0.17024 0.0
O842 O 0.2652 0.36316 0.15204 0.0
H843 H 0.2561 0.26399 0.1859 0.0
H844 H 0.28861 0.26408 0.17567 0.0
C845 C 0.27024 0.27662 0.17855 0.0
H846 H 0.25976 0.28223 0.16728 0.0
H847 H 0.25411 0.31786 0.13174 0.0
O848 O 0.30045 0.40574 0.20337 0.0
C849 C 0.25876 0.38649 0.15776 0.0
Co850 Co 0.35973 0.54708 0.93285 0.0
Co851 Co 0.4079 0.54469 0.90822 0.0
C852 C 0.37071 0.59316 0.90984 0.0
O853 O 0.35686 0.58222 0.92103 0.0
O854 O 0.39142 0.58111 0.90379 0.0
C855 C 0.31067 0.56016 0.94957 0.0
O856 O 0.30328 0.5701 0.93565 0.0
C857 C 0.4571 0.56047 0.89045 0.0
C858 C 0.47303 0.52019 0.88251 0.0
C859 C 0.47823 0.54818 0.88198 0.0
N860 N 0.44012 0.54066 0.89568 0.0
N861 N 0.44963 0.51664 0.89081 0.0
C862 C 0.45432 0.59017 0.8948 0.0
H863 H 0.4439 0.59227 0.9065 0.0
H864 H 0.47473 0.60032 0.89534 0.0
H865 H 0.44165 0.60067 0.88565 0.0
C866 C 0.40538 0.5346 0.95496 0.0
N867 N 0.39581 0.5408 0.94035 0.0
N868 N 0.41631 0.54064 0.93014 0.0
C869 C 0.43977 0.53487 0.938 0.0
C870 C 0.43362 0.53066 0.95399 0.0
C871 C 0.38723 0.52981 0.96911 0.0
H872 H 0.3691 0.51747 0.96548 0.0
H873 H 0.37971 0.54989 0.97361 0.0
H874 H 0.39815 0.51887 0.97881 0.0
O875 O 0.34806 0.51679 0.91889 0.0
O876 O 0.3822 0.51528 0.90136 0.0
H877 H 0.46912 0.51497 0.92299 0.0
H878 H 0.48427 0.53386 0.93934 0.0
C879 C 0.46754 0.53382 0.93036 0.0
H880 H 0.47022 0.55188 0.92248 0.0
H881 H 0.44033 0.49781 0.89335 0.0
O882 O 0.33418 0.54911 0.95103 0.0
C883 C 0.35931 0.50634 0.90662 0.0
Co884 Co 0.19703 0.61098 0.68375 0.0
Co885 Co 0.20068 0.66021 0.65983 0.0
C886 C 0.15102 0.62411 0.66135 0.0
O887 O 0.16102 0.61012 0.67278 0.0
O888 O 0.16438 0.64383 0.65509 0.0
C889 C 0.1761 0.57985 0.71026 0.0
O890 O 0.15566 0.5975 0.7099 0.0
C891 C 0.18458 0.70967 0.64227 0.0
C892 C 0.22483 0.72657 0.63497 0.0
C893 C 0.19676 0.73113 0.63401 0.0
N894 N 0.20453 0.6931 0.64778 0.0
N895 N 0.22853 0.70322 0.64332 0.0
C896 C 0.15474 0.70604 0.64606 0.0
H897 H 0.15233 0.69627 0.65792 0.0
H898 H 0.1438 0.72606 0.64595 0.0
H899 H 0.14529 0.69238 0.637 0.0
C900 C 0.21113 0.65549 0.70666 0.0
N901 N 0.20469 0.64643 0.69196 0.0
N902 N 0.20506 0.66729 0.68197 0.0
C903 C 0.21112 0.69041 0.69007 0.0
C904 C 0.2154 0.6837 0.70597 0.0
C905 C 0.21556 0.63707 0.72072 0.0
H906 H 0.22484 0.61738 0.71682 0.0
H907 H 0.19543 0.6326 0.72636 0.0
H908 H 0.22918 0.64682 0.72969 0.0
O909 O 0.22612 0.59963 0.66879 0.0
O910 O 0.22969 0.63496 0.65222 0.0
H911 H 0.23111 0.72056 0.67562 0.0
H912 H 0.21155 0.73486 0.69195 0.0
C913 C 0.21205 0.71847 0.68276 0.0
H914 H 0.19418 0.72125 0.67474 0.0
H915 H 0.24744 0.69428 0.64607 0.0
O916 O 0.19593 0.5826 0.70055 0.0
C917 C 0.2373 0.61124 0.65685 0.0
Co918 Co 0.13924 0.44876 0.43256 0.0
Co919 Co 0.09117 0.45126 0.40787 0.0
C920 C 0.12645 0.40128 0.41121 0.0
O921 O 0.14026 0.41205 0.42246 0.0
O922 O 0.10702 0.41434 0.40445 0.0
C923 C 0.16825 0.42866 0.45991 0.0
O924 O 0.15 0.40876 0.45946 0.0
C925 C 0.03984 0.43453 0.39265 0.0
C926 C 0.03022 0.47047 0.37752 0.0
C927 C 0.02118 0.44445 0.38163 0.0
N928 N 0.05909 0.45387 0.39505 0.0
N929 N 0.05324 0.47532 0.38598 0.0
C930 C 0.04046 0.40649 0.39997 0.0
H931 H 0.0495 0.39183 0.39131 0.0
H932 H 0.05326 0.40651 0.41092 0.0
H933 H 0.01937 0.39939 0.40283 0.0
C934 C 0.09401 0.46515 0.45442 0.0
N935 N 0.10351 0.45751 0.44002 0.0
N936 N 0.0831 0.45781 0.42971 0.0
C937 C 0.05984 0.46528 0.43729 0.0
C938 C 0.06599 0.47025 0.4532 0.0
C939 C 0.11189 0.46985 0.46868 0.0
H940 H 0.13189 0.47865 0.46494 0.0
H941 H 0.11578 0.44989 0.47466 0.0
H942 H 0.102 0.48399 0.47732 0.0
O943 O 0.15169 0.47673 0.41715 0.0
O944 O 0.11719 0.47934 0.39992 0.0
H945 H 0.03269 0.48267 0.41992 0.0
H946 H 0.01556 0.47158 0.43799 0.0
C947 C 0.03223 0.46684 0.42944 0.0
H948 H 0.02749 0.44679 0.42387 0.0
H949 H 0.06517 0.49312 0.38541 0.0
O950 O 0.16671 0.44813 0.44986 0.0
C951 C 0.14073 0.48712 0.40477 0.0
Co952 Co 0.29811 0.61234 0.31033 0.0
Co953 Co 0.29589 0.66015 0.33559 0.0
C954 C 0.34568 0.62479 0.33213 0.0
O955 O 0.33462 0.61123 0.32084 0.0
O956 O 0.33297 0.64439 0.33896 0.0
C957 C 0.31309 0.56447 0.29296 0.0
O958 O 0.32717 0.55931 0.30598 0.0
C959 C 0.30907 0.7049 0.3581 0.0
C960 C 0.27169 0.7305 0.35649 0.0
C961 C 0.29772 0.72965 0.36323 0.0
N962 N 0.29104 0.6925 0.34829 0.0
N963 N 0.26846 0.70754 0.34776 0.0
C964 C 0.33499 0.69153 0.36374 0.0
H965 H 0.33137 0.66923 0.3654 0.0
H966 H 0.35132 0.69429 0.35464 0.0
H967 H 0.34192 0.70015 0.37529 0.0
C968 C 0.28281 0.65798 0.28887 0.0
N969 N 0.28971 0.64824 0.30334 0.0
N970 N 0.29068 0.66869 0.31359 0.0
C971 C 0.28561 0.69235 0.30574 0.0
C972 C 0.27994 0.68632 0.28991 0.0
C973 C 0.27717 0.64006 0.27474 0.0
H974 H 0.2662 0.62121 0.27859 0.0
H975 H 0.29699 0.63379 0.26931 0.0
H976 H 0.26458 0.65086 0.26567 0.0
O977 O 0.26995 0.59936 0.3253 0.0
O978 O 0.26787 0.63328 0.34294 0.0
H979 H 0.26837 0.72719 0.31764 0.0
H980 H 0.29476 0.73554 0.30354 0.0
C981 C 0.28846 0.72048 0.31278 0.0
H982 H 0.304 0.72042 0.32244 0.0
H983 H 0.25108 0.70246 0.34109 0.0
O984 O 0.299 0.58643 0.29212 0.0
C985 C 0.25981 0.60996 0.33785 0.0
Co986 Co 0.1386 0.55005 0.0638 0.0
Co987 Co 0.08972 0.54644 0.08801 0.0
C988 C 0.12409 0.59713 0.08514 0.0
O989 O 0.13836 0.58669 0.07397 0.0
O990 O 0.10477 0.58369 0.09176 0.0
C991 C 0.1835 0.56875 0.04425 0.0
O992 O 0.18603 0.5881 0.05507 0.0
C993 C 0.03919 0.56204 0.10449 0.0
C994 C 0.02398 0.522 0.11329 0.0
C995 C 0.01795 0.54983 0.11292 0.0
N996 N 0.057 0.54234 0.10013 0.0
N997 N 0.04791 0.51847 0.1055 0.0
C998 C 0.04142 0.59142 0.09935 0.0
H999 H 0.05186 0.59276 0.08763 0.0
H1000 H 0.02084 0.60115 0.09852 0.0
H1001 H 0.05391 0.60287 0.10821 0.0
C1002 C 0.09452 0.53442 0.04139 0.0
N1003 N 0.10334 0.54102 0.05609 0.0
N1004 N 0.08252 0.54017 0.06607 0.0
C1005 C 0.05961 0.53326 0.05797 0.0
C1006 C 0.06648 0.52931 0.04206 0.0
C1007 C 0.11316 0.53112 0.02732 0.0
H1008 H 0.13113 0.51839 0.03074 0.0
H1009 H 0.12088 0.55162 0.02363 0.0
H1010 H 0.1026 0.52122 0.01711 0.0
O1011 O 0.15137 0.52234 0.07934 0.0
O1012 O 0.11634 0.51914 0.09618 0.0
H1013 H 0.03075 0.51317 0.07322 0.0
H1014 H 0.01528 0.52958 0.05609 0.0
C1015 C 0.0316 0.53134 0.06526 0.0
H1016 H 0.02759 0.54994 0.0725 0.0
H1017 H 0.05787 0.49974 0.10366 0.0
O1018 O 0.16488 0.55065 0.04584 0.0
C1019 C 0.14026 0.51191 0.09168 0.0
Co1020 Co 0.20066 0.38756 0.81196 0.0
Co1021 Co 0.20253 0.33764 0.83554 0.0
C1022 C 0.15422 0.37509 0.83447 0.0
O1023 O 0.16545 0.3896 0.82366 0.0
O1024 O 0.16603 0.35389 0.84014 0.0
C1025 C 0.17879 0.41895 0.78599 0.0
O1026 O 0.15827 0.40146 0.78687 0.0
C1027 C 0.18688 0.28769 0.85298 0.0
C1028 C 0.22743 0.27092 0.85983 0.0
C1029 C 0.19943 0.26615 0.86101 0.0
N1030 N 0.20657 0.3045 0.8474 0.0
N1031 N 0.23075 0.29444 0.8516 0.0
C1032 C 0.15691 0.29121 0.84951 0.0
H1033 H 0.15407 0.30146 0.83781 0.0
H1034 H 0.14617 0.27108 0.84942 0.0
H1035 H 0.14761 0.30437 0.85886 0.0
C1036 C 0.21293 0.34303 0.78873 0.0
N1037 N 0.20695 0.35197 0.80352 0.0
N1038 N 0.20693 0.33091 0.81337 0.0
C1039 C 0.21233 0.30781 0.8051 0.0
C1040 C 0.21652 0.31471 0.78923 0.0
C1041 C 0.21756 0.36157 0.77475 0.0
H1042 H 0.22747 0.38092 0.7787 0.0
H1043 H 0.19743 0.36671 0.76929 0.0
H1044 H 0.23066 0.35159 0.76561 0.0
O1045 O 0.23047 0.39785 0.82652 0.0
O1046 O 0.23169 0.36283 0.84342 0.0
H1047 H 0.2318 0.27702 0.81934 0.0
H1048 H 0.21195 0.26341 0.80293 0.0
C1049 C 0.21275 0.2796 0.81222 0.0
H1050 H 0.19487 0.277 0.82024 0.0
H1051 H 0.24953 0.30354 0.84873 0.0
O1052 O 0.19927 0.41607 0.79524 0.0
C1053 C 0.2406 0.38605 0.8387 0.0
Co1054 Co 0.35798 0.44994 0.56349 0.0
Co1055 Co 0.40661 0.45325 0.58783 0.0
C1056 C 0.36967 0.4042 0.58635 0.0
O1057 O 0.3554 0.41493 0.57527 0.0
O1058 O 0.39042 0.41653 0.59221 0.0
C1059 C 0.32508 0.42722 0.53838 0.0
O1060 O 0.33982 0.40499 0.54086 0.0
C1061 C 0.45738 0.43695 0.60378 0.0
C1062 C 0.47121 0.476 0.61459 0.0
C1063 C 0.47803 0.4485 0.61298 0.0
N1064 N 0.43914 0.4567 0.60017 0.0
N1065 N 0.44739 0.47997 0.60675 0.0
C1066 C 0.45583 0.40818 0.59756 0.0
H1067 H 0.44428 0.40769 0.58616 0.0
H1068 H 0.47672 0.39955 0.59577 0.0
H1069 H 0.4448 0.39518 0.60634 0.0
C1070 C 0.40367 0.46079 0.54077 0.0
N1071 N 0.39399 0.456 0.55555 0.0
N1072 N 0.4144 0.45774 0.5658 0.0
C1073 C 0.43771 0.46385 0.55789 0.0
C1074 C 0.43173 0.4659 0.54175 0.0
C1075 C 0.38629 0.45987 0.52606 0.0
H1076 H 0.36947 0.47517 0.52708 0.0
H1077 H 0.37679 0.43925 0.52504 0.0
H1078 H 0.39838 0.46384 0.51511 0.0
O1079 O 0.347 0.48014 0.57779 0.0
O1080 O 0.38119 0.48229 0.59522 0.0
H1081 H 0.4612 0.48502 0.57559 0.0
H1082 H 0.47978 0.47886 0.55744 0.0
C1083 C 0.46456 0.47007 0.56583 0.0
H1084 H 0.47302 0.45092 0.57107 0.0
H1085 H 0.43691 0.4986 0.60574 0.0
O1086 O 0.33022 0.44886 0.54631 0.0
C1087 C 0.35814 0.49081 0.59003 0.0
C1088 C 0.20067 0.2779 0.36811 0.0
C1089 C 0.18796 0.25227 0.36984 0.0
C1090 C 0.18951 0.30143 0.37525 0.0
C1091 C 0.16538 0.29908 0.38458 0.0
C1092 C 0.15275 0.2731 0.3866 0.0
C1093 C 0.16418 0.24996 0.37915 0.0
C1094 C 0.20341 0.32884 0.37269 0.0
C1095 C 0.12728 0.26975 0.3967 0.0
C1096 C 0.15323 0.35756 0.41358 0.0
C1097 C 0.13434 0.37383 0.40516 0.0
C1098 C 0.16274 0.33261 0.40728 0.0
C1099 C 0.1534 0.32393 0.39213 0.0
C1100 C 0.1337 0.3398 0.38379 0.0
C1101 C 0.12427 0.36448 0.39046 0.0
C1102 C 0.18342 0.31598 0.41662 0.0
C1103 C 0.12342 0.33128 0.36755 0.0
H1104 H 0.21912 0.27961 0.36093 0.0
H1105 H 0.15478 0.22998 0.38083 0.0
H1106 H 0.1888 0.3435 0.36712 0.0
H1107 H 0.20972 0.33769 0.3843 0.0
H1108 H 0.22187 0.32717 0.36495 0.0
H1109 H 0.12013 0.24807 0.39718 0.0
H1110 H 0.13144 0.27689 0.40902 0.0
H1111 H 0.11042 0.28267 0.39189 0.0
H1112 H 0.16094 0.36452 0.42501 0.0
H1113 H 0.10968 0.37691 0.38387 0.0
H1114 H 0.20335 0.31569 0.4102 0.0
H1115 H 0.17641 0.29436 0.41773 0.0
H1116 H 0.1869 0.32443 0.42875 0.0
H1117 H 0.14073 0.33136 0.35894 0.0
H1118 H 0.10706 0.34516 0.36301 0.0
H1119 H 0.11521 0.31002 0.36797 0.0
C1120 C 0.99219 0.91327 0.62858 0.0
C1121 C 0.98983 0.93733 0.61951 0.0
C1122 C 0.96905 0.90147 0.63585 0.0
C1123 C 0.943 0.91398 0.63387 0.0
C1124 C 0.94057 0.93834 0.62472 0.0
C1125 C 0.96411 0.94988 0.61779 0.0
C1126 C 0.9725 0.87578 0.64575 0.0
C1127 C 0.9131 0.95212 0.6222 0.0
C1128 C 0.87806 0.87207 0.63993 0.0
C1129 C 0.86904 0.88156 0.65483 0.0
C1130 C 0.90239 0.88207 0.63309 0.0
C1131 C 0.91822 0.9018 0.64142 0.0
C1132 C 0.90974 0.91078 0.65668 0.0
C1133 C 0.88518 0.90066 0.66317 0.0
C1134 C 0.91069 0.87218 0.61673 0.0
C1135 C 0.92629 0.93154 0.66601 0.0
H1136 H 0.01222 0.90395 0.63023 0.0
H1137 H 0.96235 0.96852 0.61078 0.0
H1138 H 0.96547 0.87968 0.65812 0.0
H1139 H 0.95953 0.85902 0.64087 0.0
H1140 H 0.99418 0.86863 0.64612 0.0
H1141 H 0.91468 0.97066 0.61453 0.0
H1142 H 0.89851 0.93749 0.6166 0.0
H1143 H 0.90422 0.95827 0.63384 0.0
H1144 H 0.86571 0.85736 0.63338 0.0
H1145 H 0.87847 0.90799 0.67473 0.0
H1146 H 0.93195 0.86395 0.61701 0.0
H1147 H 0.91054 0.8897 0.60826 0.0
H1148 H 0.89675 0.85594 0.61212 0.0
H1149 H 0.9479 0.92453 0.66717 0.0
H1150 H 0.91779 0.93508 0.67812 0.0
H1151 H 0.92662 0.95143 0.65955 0.0
C1152 C 0.33398 0.62734 0.90392 0.0
C1153 C 0.36179 0.61989 0.90332 0.0
C1154 C 0.32484 0.65211 0.89723 0.0
C1155 C 0.34411 0.67019 0.89016 0.0
C1156 C 0.37231 0.663 0.88977 0.0
C1157 C 0.38077 0.63772 0.89618 0.0
C1158 C 0.29452 0.65877 0.89756 0.0
C1159 C 0.39351 0.68209 0.88269 0.0
C1160 C 0.31643 0.72287 0.86089 0.0
C1161 C 0.3126 0.74564 0.87081 0.0
C1162 C 0.32711 0.69821 0.86697 0.0
C1163 C 0.3346 0.69666 0.88326 0.0
C1164 C 0.33155 0.72001 0.89318 0.0
C1165 C 0.32014 0.74414 0.88687 0.0
C1166 C 0.3294 0.67356 0.85613 0.0
C1167 C 0.33988 0.71934 0.91051 0.0
H1168 H 0.31921 0.61346 0.90929 0.0
H1169 H 0.40231 0.63208 0.89581 0.0
H1170 H 0.29098 0.67799 0.90436 0.0
H1171 H 0.28692 0.66228 0.88526 0.0
H1172 H 0.28214 0.64208 0.90307 0.0
H1173 H 0.41468 0.67366 0.8836 0.0
H1174 H 0.38881 0.68594 0.86995 0.0
H1175 H 0.39285 0.70224 0.88887 0.0
H1176 H 0.31008 0.72405 0.84852 0.0
H1177 H 0.31713 0.7619 0.89447 0.0
H1178 H 0.31581 0.65689 0.86054 0.0
H1179 H 0.35072 0.66549 0.85621 0.0
H1180 H 0.32358 0.67846 0.84365 0.0
H1181 H 0.32652 0.70481 0.91712 0.0
H1182 H 0.33831 0.73988 0.91622 0.0
H1183 H 0.36133 0.71186 0.91168 0.0
C1184 C 0.62025 0.11311 0.14093 0.0
C1185 C 0.62356 0.11632 0.15739 0.0
C1186 C 0.59578 0.10264 0.13461 0.0
C1187 C 0.57372 0.09627 0.14497 0.0
C1188 C 0.57659 0.10052 0.16158 0.0
C1189 C 0.60179 0.10995 0.16766 0.0
C1190 C 0.5939 0.09753 0.11688 0.0
C1191 C 0.55312 0.095 0.1729 0.0
C1192 C 0.50587 0.09037 0.12316 0.0
C1193 C 0.50275 0.06177 0.12189 0.0
C1194 C 0.52782 0.10187 0.1317 0.0
C1195 C 0.54807 0.08441 0.13831 0.0
C1196 C 0.54511 0.05555 0.13711 0.0
C1197 C 0.5223 0.0446 0.12912 0.0
C1198 C 0.52992 0.13276 0.13304 0.0
C1199 C 0.56679 0.03624 0.14351 0.0
H1200 H 0.63727 0.11773 0.13303 0.0
H1201 H 0.60443 0.11256 0.1804 0.0
H1202 H 0.58924 0.07554 0.11462 0.0
H1203 H 0.5769 0.10976 0.11167 0.0
H1204 H 0.61322 0.10291 0.11056 0.0
H1205 H 0.55803 0.10129 0.1853 0.0
H1206 H 0.53447 0.10621 0.16892 0.0
H1207 H 0.54804 0.07278 0.17288 0.0
H1208 H 0.49197 0.10401 0.11697 0.0
H1209 H 0.52025 0.02249 0.12809 0.0
H1210 H 0.54644 0.14038 0.12508 0.0
H1211 H 0.53536 0.13883 0.14539 0.0
H1212 H 0.51041 0.14311 0.12966 0.0
H1213 H 0.58639 0.03959 0.13703 0.0
H1214 H 0.56082 0.01431 0.14222 0.0
H1215 H 0.57076 0.04049 0.15628 0.0
C1216 C 0.12261 0.63307 0.1064 0.0
C1217 C 0.13153 0.62462 0.09129 0.0
C1218 C 0.13216 0.65764 0.11316 0.0
C1219 C 0.15072 0.6743 0.10448 0.0
C1220 C 0.15869 0.66659 0.0889 0.0
C1221 C 0.14914 0.64173 0.08253 0.0
C1222 C 0.1234 0.66512 0.12987 0.0
C1223 C 0.17807 0.6841 0.07917 0.0
C1224 C 0.16289 0.74777 0.11799 0.0
C1225 C 0.18801 0.74525 0.12603 0.0
C1226 C 0.15039 0.72482 0.11092 0.0
C1227 C 0.16329 0.69881 0.11208 0.0
C1228 C 0.18859 0.6962 0.1203 0.0
C1229 C 0.2008 0.71956 0.12702 0.0
C1230 C 0.12369 0.72846 0.10199 0.0
C1231 C 0.20279 0.66873 0.12195 0.0
H1232 H 0.10903 0.61994 0.11325 0.0
H1233 H 0.15589 0.63547 0.07077 0.0
H1234 H 0.14148 0.66441 0.13792 0.0
H1235 H 0.11526 0.6864 0.13019 0.0
H1236 H 0.10743 0.65096 0.13458 0.0
H1237 H 0.18028 0.67646 0.06677 0.0
H1238 H 0.17068 0.70567 0.07879 0.0
H1239 H 0.19867 0.68426 0.08484 0.0
H1240 H 0.15335 0.7678 0.11688 0.0
H1241 H 0.22026 0.7177 0.13324 0.0
H1242 H 0.10769 0.71476 0.10704 0.0
H1243 H 0.12652 0.72251 0.08934 0.0
H1244 H 0.1161 0.74999 0.10244 0.0
H1245 H 0.18873 0.65368 0.12764 0.0
H1246 H 0.22188 0.67008 0.12918 0.0
H1247 H 0.20814 0.66059 0.11001 0.0
C1248 C 0.49877 0.92462 0.35644 0.0
C1249 C 0.49861 0.933 0.37238 0.0
C1250 C 0.52232 0.91276 0.34969 0.0
C1251 C 0.54641 0.91008 0.35903 0.0
C1252 C 0.54625 0.91854 0.37519 0.0
C1253 C 0.52218 0.92967 0.38172 0.0
C1254 C 0.52154 0.90343 0.33254 0.0
C1255 C 0.57174 0.91668 0.3854 0.0
C1256 C 0.60474 0.86287 0.34658 0.0
C1257 C 0.62259 0.8814 0.33905 0.0
C1258 C 0.57942 0.87174 0.35274 0.0
C1259 C 0.57224 0.89989 0.3517 0.0
C1260 C 0.59013 0.91862 0.34402 0.0
C1261 C 0.61493 0.90906 0.33761 0.0
C1262 C 0.56051 0.85109 0.36049 0.0
C1263 C 0.58347 0.9489 0.34298 0.0
H1264 H 0.48038 0.92723 0.34929 0.0
H1265 H 0.52206 0.93667 0.39398 0.0
H1266 H 0.53578 0.91613 0.32531 0.0
H1267 H 0.5286 0.8818 0.33163 0.0
H1268 H 0.50062 0.90501 0.32732 0.0
H1269 H 0.56799 0.92358 0.39783 0.0
H1270 H 0.57941 0.89522 0.3857 0.0
H1271 H 0.58827 0.92957 0.38018 0.0
H1272 H 0.61056 0.84143 0.34762 0.0
H1273 H 0.62879 0.92351 0.33194 0.0
H1274 H 0.53983 0.8521 0.35494 0.0
H1275 H 0.55798 0.85609 0.3733 0.0
H1276 H 0.56839 0.82973 0.35947 0.0
H1277 H 0.5636 0.95196 0.33674 0.0
H1278 H 0.59959 0.96072 0.33658 0.0
H1279 H 0.58121 0.95755 0.35514 0.0
C1280 C 0.3212 0.25235 0.60856 0.0
C1281 C 0.31337 0.25046 0.62455 0.0
C1282 C 0.3325 0.27672 0.60249 0.0
C1283 C 0.33514 0.29989 0.61258 0.0
C1284 C 0.32739 0.29794 0.62881 0.0
C1285 C 0.31681 0.27306 0.63465 0.0
C1286 C 0.34106 0.27783 0.58521 0.0
C1287 C 0.32923 0.3224 0.63983 0.0
C1288 C 0.38042 0.35981 0.60007 0.0
C1289 C 0.36118 0.37736 0.59292 0.0
C1290 C 0.37233 0.33432 0.60639 0.0
C1291 C 0.34426 0.32665 0.60588 0.0
C1292 C 0.32474 0.34449 0.59885 0.0
C1293 C 0.3335 0.36946 0.59227 0.0
C1294 C 0.3938 0.31551 0.61345 0.0
C1295 C 0.29453 0.33732 0.5984 0.0
H1296 H 0.3185 0.23472 0.60081 0.0
H1297 H 0.31021 0.27162 0.64696 0.0
H1298 H 0.32755 0.29224 0.57861 0.0
H1299 H 0.3624 0.28569 0.58419 0.0
H1300 H 0.33993 0.25737 0.57937 0.0
H1301 H 0.32346 0.31713 0.65227 0.0
H1302 H 0.3504 0.33085 0.63982 0.0
H1303 H 0.31535 0.33891 0.63552 0.0
H1304 H 0.40186 0.3658 0.6005 0.0
H1305 H 0.31852 0.38312 0.58689 0.0
H1306 H 0.39363 0.29549 0.60711 0.0
H1307 H 0.38899 0.31128 0.62613 0.0
H1308 H 0.41481 0.32437 0.61271 0.0
H1309 H 0.29136 0.31822 0.59142 0.0
H1310 H 0.28189 0.35392 0.59301 0.0
H1311 H 0.28693 0.33335 0.61065 0.0
C1312 C 0.87558 0.1131 0.85529 0.0
C1313 C 0.87229 0.11597 0.83881 0.0
C1314 C 0.89989 0.10232 0.86168 0.0
C1315 C 0.9218 0.09533 0.85133 0.0
C1316 C 0.91895 0.09926 0.8347 0.0
C1317 C 0.89391 0.10898 0.82858 0.0
C1318 C 0.90174 0.09752 0.87943 0.0
C1319 C 0.94229 0.09312 0.8234 0.0
C1320 C 0.99022 0.08903 0.87253 0.0
C1321 C 0.9933 0.06041 0.87372 0.0
C1322 C 0.96797 0.10065 0.86432 0.0
C1323 C 0.94735 0.08329 0.85802 0.0
C1324 C 0.95012 0.05442 0.85927 0.0
C1325 C 0.97326 0.04334 0.86689 0.0
C1326 C 0.96607 0.13154 0.8629 0.0
C1327 C 0.92803 0.03524 0.85322 0.0
H1328 H 0.85864 0.1182 0.86315 0.0
H1329 H 0.89127 0.11133 0.81582 0.0
H1330 H 0.90601 0.0755 0.88183 0.0
H1331 H 0.91898 0.10953 0.88454 0.0
H1332 H 0.88254 0.10339 0.88574 0.0
H1333 H 0.93742 0.0992 0.81095 0.0
H1334 H 0.96112 0.10416 0.82726 0.0
H1335 H 0.94704 0.07083 0.82359 0.0
H1336 H 0.00447 0.10261 0.87849 0.0
H1337 H 0.97523 0.02122 0.86791 0.0
H1338 H 0.94965 0.13935 0.87086 0.0
H1339 H 0.96059 0.13754 0.85054 0.0
H1340 H 0.98567 0.14181 0.8662 0.0
H1341 H 0.90856 0.03918 0.85972 0.0
H1342 H 0.93365 0.01326 0.85477 0.0
H1343 H 0.92399 0.03908 0.84042 0.0
C1344 C 0.8346 0.74628 0.61529 0.0
C1345 C 0.81033 0.74303 0.62408 0.0
C1346 C 0.84719 0.72369 0.6079 0.0
C1347 C 0.83518 0.69731 0.60941 0.0
C1348 C 0.81062 0.69399 0.61825 0.0
C1349 C 0.79836 0.71696 0.62537 0.0
C1350 C 0.87312 0.72805 0.59835 0.0
C1351 C 0.7973 0.66614 0.62022 0.0
C1352 C 0.84866 0.6404 0.57966 0.0
C1353 C 0.86703 0.6236 0.58811 0.0
C1354 C 0.83908 0.66514 0.58617 0.0
C1355 C 0.84789 0.67312 0.60156 0.0
C1356 C 0.86729 0.65686 0.60987 0.0
C1357 C 0.87677 0.63234 0.60301 0.0
C1358 C 0.81869 0.68216 0.57684 0.0
C1359 C 0.87706 0.66469 0.62634 0.0
H1360 H 0.84348 0.76658 0.61396 0.0
H1361 H 0.77957 0.71449 0.63216 0.0
H1362 H 0.88988 0.71492 0.60309 0.0
H1363 H 0.86964 0.72185 0.58579 0.0
H1364 H 0.88005 0.74981 0.59855 0.0
H1365 H 0.77858 0.66699 0.62778 0.0
H1366 H 0.79154 0.65775 0.60839 0.0
H1367 H 0.81208 0.65154 0.62568 0.0
H1368 H 0.84125 0.63395 0.56807 0.0
H1369 H 0.891 0.61951 0.6096 0.0
H1370 H 0.8255 0.7039 0.57631 0.0
H1371 H 0.79846 0.6818 0.58293 0.0
H1372 H 0.81591 0.67445 0.56449 0.0
H1373 H 0.88463 0.6862 0.62642 0.0
H1374 H 0.89374 0.651 0.63068 0.0
H1375 H 0.85961 0.66354 0.63482 0.0
C1376 C 0.02558 0.04832 0.37553 0.0
C1377 C -2e-05 0.06138 0.37494 0.0
C1378 C 0.04885 0.06055 0.36873 0.0
C1379 C 0.04624 0.08616 0.36084 0.0
C1380 C 0.02033 0.09932 0.36007 0.0
C1381 C 0.99746 0.08679 0.36722 0.0
C1382 C 0.07623 0.04606 0.36997 0.0
C1383 C 0.01668 0.12634 0.35148 0.0
C1384 C 0.11261 0.12583 0.3553 0.0
C1385 C 0.12084 0.11698 0.34013 0.0
C1386 C 0.08782 0.11674 0.362 0.0
C1387 C 0.0707 0.09877 0.3532 0.0
C1388 C 0.07812 0.0911 0.33752 0.0
C1389 C 0.10323 0.10012 0.33121 0.0
C1390 C 0.08069 0.12516 0.37882 0.0
C1391 C 0.0601 0.07242 0.32764 0.0
H1392 H 0.02744 0.02864 0.38152 0.0
H1393 H 0.97749 0.09655 0.36644 0.0
H1394 H 0.084 0.04105 0.3579 0.0
H1395 H 0.09156 0.05978 0.37568 0.0
H1396 H 0.0749 0.02673 0.37699 0.0
H1397 H 0.99523 0.13408 0.35218 0.0
H1398 H 0.03063 0.14207 0.3566 0.0
H1399 H 0.02232 0.12392 0.33875 0.0
H1400 H 0.12615 0.13883 0.36227 0.0
H1401 H 0.10934 0.09346 0.31941 0.0
H1402 H 0.08152 0.10688 0.38672 0.0
H1403 H 0.05944 0.13336 0.37935 0.0
H1404 H 0.09501 0.14096 0.38356 0.0
H1405 H 0.05994 0.05153 0.33294 0.0
H1406 H 0.06735 0.0708 0.31513 0.0
H1407 H 0.03859 0.08 0.32761 0.0
C1408 C 0.67653 0.27244 0.1327 0.0
C1409 C 0.68088 0.24932 0.12315 0.0
C1410 C 0.66531 0.29653 0.12624 0.0
C1411 C 0.65783 0.29713 0.10993 0.0
C1412 C 0.66137 0.27338 0.10039 0.0
C1413 C 0.67332 0.24981 0.10709 0.0
C1414 C 0.66252 0.32164 0.13669 0.0
C1415 C 0.65307 0.27307 0.08306 0.0
C1416 C 0.61171 0.35595 0.09677 0.0
C1417 C 0.63082 0.37377 0.08975 0.0
C1418 C 0.62005 0.33049 0.10302 0.0
C1419 C 0.64822 0.3232 0.10262 0.0
C1420 C 0.66756 0.34118 0.09554 0.0
C1421 C 0.65855 0.36608 0.089 0.0
C1422 C 0.59878 0.31147 0.1101 0.0
C1423 C 0.69787 0.33445 0.09522 0.0
H1424 H 0.68277 0.27193 0.14511 0.0
H1425 H 0.67674 0.23174 0.09979 0.0
H1426 H 0.67581 0.33835 0.13204 0.0
H1427 H 0.64105 0.32929 0.13647 0.0
H1428 H 0.66839 0.31744 0.14925 0.0
H1429 H 0.65477 0.25223 0.07773 0.0
H1430 H 0.63158 0.28037 0.08173 0.0
H1431 H 0.66636 0.28731 0.07619 0.0
H1432 H 0.59023 0.36181 0.09725 0.0
H1433 H 0.67342 0.37995 0.08372 0.0
H1434 H 0.60299 0.30835 0.12296 0.0
H1435 H 0.59995 0.29102 0.10428 0.0
H1436 H 0.57756 0.3196 0.10875 0.0
H1437 H 0.70556 0.33159 0.10756 0.0
H1438 H 0.71023 0.35081 0.08939 0.0
H1439 H 0.70135 0.31487 0.08876 0.0
C1440 C 0.38705 0.86495 0.84879 0.0
C1441 C 0.36987 0.88421 0.84135 0.0
C1442 C 0.41259 0.87287 0.8551 0.0
C1443 C 0.42069 0.9008 0.85431 0.0
C1444 C 0.40331 0.92031 0.84689 0.0
C1445 C 0.37828 0.9117 0.8403 0.0
C1446 C 0.43094 0.85139 0.86256 0.0
C1447 C 0.41093 0.95039 0.84612 0.0
C1448 C 0.47332 0.92863 0.88353 0.0
C1449 C 0.49634 0.93161 0.87371 0.0
C1450 C 0.44861 0.91807 0.87745 0.0
C1451 C 0.44726 0.90985 0.86128 0.0
C1452 C 0.47087 0.91195 0.85149 0.0
C1453 C 0.49506 0.92326 0.85779 0.0
C1454 C 0.42368 0.91681 0.88814 0.0
C1455 C 0.47041 0.90282 0.8343 0.0
H1456 H 0.38064 0.84364 0.84953 0.0
H1457 H 0.36493 0.92669 0.83469 0.0
H1458 H 0.4513 0.85141 0.8566 0.0
H1459 H 0.43448 0.85632 0.87529 0.0
H1460 H 0.42202 0.83041 0.86174 0.0
H1461 H 0.39478 0.96302 0.84029 0.0
H1462 H 0.41441 0.95845 0.85832 0.0
H1463 H 0.4304 0.95302 0.83942 0.0
H1464 H 0.47434 0.93557 0.89579 0.0
H1465 H 0.51303 0.92561 0.85026 0.0
H1466 H 0.41507 0.89571 0.88827 0.0
H1467 H 0.40746 0.93065 0.88343 0.0
H1468 H 0.42846 0.92299 0.90057 0.0
H1469 H 0.4623 0.88156 0.8334 0.0
H1470 H 0.49114 0.90348 0.82877 0.0
H1471 H 0.45649 0.9163 0.82734 0.0
C1472 C 0.84074 0.25596 0.87205 0.0
C1473 C 0.81222 0.2517 0.87273 0.0
C1474 C 0.85303 0.27833 0.8798 0.0
C1475 C 0.83626 0.29789 0.88759 0.0
C1476 C 0.80745 0.294 0.88816 0.0
C1477 C 0.79584 0.27076 0.88092 0.0
C1478 C 0.88391 0.28145 0.87924 0.0
C1479 C 0.78876 0.31493 0.89586 0.0
C1480 C 0.86502 0.35017 0.91673 0.0
C1481 C 0.86906 0.37289 0.90677 0.0
C1482 C 0.85543 0.32515 0.91053 0.0
C1483 C 0.84858 0.32339 0.89416 0.0
C1484 C 0.8527 0.34638 0.88408 0.0
C1485 C 0.86345 0.37071 0.89047 0.0
C1486 C 0.85238 0.30072 0.92148 0.0
C1487 C 0.84474 0.34565 0.86668 0.0
H1488 H 0.85357 0.24251 0.86501 0.0
H1489 H 0.77375 0.26788 0.88132 0.0
H1490 H 0.88946 0.29881 0.8713 0.0
H1491 H 0.89209 0.28622 0.89127 0.0
H1492 H 0.89419 0.26259 0.87474 0.0
H1493 H 0.7668 0.30868 0.89544 0.0
H1494 H 0.79469 0.31811 0.90848 0.0
H1495 H 0.79095 0.33501 0.88971 0.0
H1496 H 0.86947 0.35197 0.92935 0.0
H1497 H 0.86626 0.3885 0.88285 0.0
H1498 H 0.86314 0.28264 0.91638 0.0
H1499 H 0.83036 0.29518 0.92264 0.0
H1500 H 0.86076 0.30483 0.93356 0.0
H1501 H 0.85617 0.32915 0.86044 0.0
H1502 H 0.84891 0.36546 0.86055 0.0
H1503 H 0.82251 0.3409 0.86554 0.0
C1504 C 0.47319 0.04178 0.62713 0.0
C1505 C 0.49318 0.05891 0.6203 0.0
C1506 C 0.44965 0.05277 0.63439 0.0
C1507 C 0.44638 0.08164 0.63524 0.0
C1508 C 0.46679 0.09908 0.62878 0.0
C1509 C 0.48949 0.08751 0.62097 0.0
C1510 C 0.42784 0.03346 0.64061 0.0
C1511 C 0.46433 0.12998 0.62976 0.0
C1512 C 0.37406 0.11023 0.63823 0.0
C1513 C 0.3711 0.11346 0.65471 0.0
C1514 C 0.39846 0.09979 0.63174 0.0
C1515 C 0.42076 0.0935 0.64197 0.0
C1516 C 0.41822 0.09784 0.65859 0.0
C1517 C 0.39314 0.10723 0.66481 0.0
C1518 C 0.4 0.09455 0.61402 0.0
C1519 C 0.44192 0.09241 0.66977 0.0
H1520 H 0.47561 0.01966 0.6265 0.0
H1521 H 0.50371 0.10105 0.61496 0.0
H1522 H 0.42405 0.03737 0.65344 0.0
H1523 H 0.40819 0.03719 0.63424 0.0
H1524 H 0.43359 0.01152 0.63909 0.0
H1525 H 0.48362 0.14049 0.62613 0.0
H1526 H 0.44751 0.13713 0.62187 0.0
H1527 H 0.4591 0.13638 0.64208 0.0
H1528 H 0.35682 0.11475 0.63046 0.0
H1529 H 0.39078 0.10987 0.67757 0.0
H1530 H 0.40435 0.07249 0.6118 0.0
H1531 H 0.41708 0.10651 0.6087 0.0
H1532 H 0.38064 0.10013 0.60779 0.0
H1533 H 0.44698 0.07019 0.66978 0.0
H1534 H 0.43726 0.09881 0.68219 0.0
H1535 H 0.46049 0.10358 0.66564 0.0
C1536 C 0.61139 0.63623 0.39898 0.0
C1537 C 0.63084 0.61762 0.40493 0.0
C1538 C 0.6196 0.66168 0.39267 0.0
C1539 C 0.64794 0.66819 0.39189 0.0
C1540 C 0.66763 0.64936 0.39783 0.0
C1541 C 0.6588 0.62448 0.40449 0.0
C1542 C 0.598 0.68158 0.38685 0.0
C1543 C 0.69808 0.65524 0.39684 0.0
C1544 C 0.67306 0.72033 0.36158 0.0
C1545 C 0.67915 0.74278 0.37136 0.0
C1546 C 0.66238 0.69599 0.36807 0.0
C1547 C 0.65722 0.69447 0.38466 0.0
C1548 C 0.66251 0.71756 0.39447 0.0
C1549 C 0.67388 0.74135 0.38771 0.0
C1550 C 0.65768 0.6716 0.35729 0.0
C1551 C 0.65669 0.71693 0.41214 0.0
H1552 H 0.58974 0.63102 0.39942 0.0
H1553 H 0.67389 0.60997 0.40894 0.0
H1554 H 0.60037 0.70162 0.39302 0.0
H1555 H 0.6007 0.68542 0.37393 0.0
H1556 H 0.5768 0.67386 0.38891 0.0
H1557 H 0.71071 0.63817 0.40172 0.0
H1558 H 0.70409 0.65872 0.38424 0.0
H1559 H 0.70303 0.67428 0.40351 0.0
H1560 H 0.67759 0.7215 0.34895 0.0
H1561 H 0.67869 0.75888 0.39519 0.0
H1562 H 0.63616 0.66431 0.35835 0.0
H1563 H 0.67121 0.65438 0.361 0.0
H1564 H 0.66192 0.67646 0.3446 0.0
H1565 H 0.63528 0.71001 0.41432 0.0
H1566 H 0.65964 0.73736 0.4178 0.0
H1567 H 0.67055 0.70197 0.41805 0.0
C1568 C 0.02484 0.92959 0.10965 0.0
C1569 C 0.0024 0.93244 0.11994 0.0
C1570 C 0.05007 0.91949 0.11527 0.0
C1571 C 0.05257 0.91168 0.13147 0.0
C1572 C 0.02959 0.91375 0.14175 0.0
C1573 C 0.00485 0.92452 0.13589 0.0
C1574 C 0.07429 0.91823 0.10405 0.0
C1575 C 0.03131 0.90512 0.159 0.0
C1576 C 0.11316 0.86729 0.14392 0.0
C1577 C 0.13035 0.88674 0.15116 0.0
C1578 C 0.08769 0.87506 0.13746 0.0
C1579 C 0.07963 0.90301 0.13794 0.0
C1580 C 0.0972 0.9228 0.14496 0.0
C1581 C 0.12219 0.91436 0.15167 0.0
C1582 C 0.0692 0.85332 0.13039 0.0
C1583 C 0.08961 0.9529 0.1454 0.0
H1584 H 0.02296 0.93628 0.09738 0.0
H1585 H 0.98735 0.92678 0.14379 0.0
H1586 H 0.09057 0.9325 0.10822 0.0
H1587 H 0.08325 0.89727 0.104 0.0
H1588 H 0.06858 0.92385 0.09166 0.0
H1589 H 0.01099 0.90587 0.16503 0.0
H1590 H 0.03956 0.88392 0.15993 0.0
H1591 H 0.04566 0.91885 0.16549 0.0
H1592 H 0.11935 0.8459 0.14361 0.0
H1593 H 0.13557 0.9295 0.15712 0.0
H1594 H 0.06443 0.85837 0.1178 0.0
H1595 H 0.0494 0.85282 0.13694 0.0
H1596 H 0.07859 0.83252 0.13084 0.0
H1597 H 0.08515 0.96037 0.13318 0.0
H1598 H 0.10618 0.96581 0.15059 0.0
H1599 H 0.07068 0.95582 0.15257 0.0
C1600 C 0.70132 0.7767 0.87 0.0
C1601 C 0.6873 0.75159 0.87024 0.0
C1602 C 0.68968 0.80032 0.87678 0.0
C1603 C 0.66368 0.79853 0.8843 0.0
C1604 C 0.64959 0.77308 0.88476 0.0
C1605 C 0.66154 0.74989 0.87763 0.0
C1606 C 0.70516 0.82718 0.87584 0.0
C1607 C 0.62212 0.77029 0.89296 0.0
C1608 C 0.64877 0.85553 0.91389 0.0
C1609 C 0.6323 0.87325 0.90479 0.0
C1610 C 0.65822 0.83055 0.90758 0.0
C1611 C 0.65142 0.82339 0.89172 0.0
C1612 C 0.63416 0.8408 0.88263 0.0
C1613 C 0.62461 0.86542 0.88933 0.0
C1614 C 0.67614 0.81223 0.91773 0.0
C1615 C 0.62674 0.83401 0.86561 0.0
H1616 H 0.72129 0.77793 0.8643 0.0
H1617 H 0.65102 0.73028 0.87816 0.0
H1618 H 0.69228 0.84297 0.86988 0.0
H1619 H 0.70973 0.83479 0.88801 0.0
H1620 H 0.72481 0.82521 0.8692 0.0
H1621 H 0.61385 0.74904 0.89225 0.0
H1622 H 0.62411 0.7761 0.90569 0.0
H1623 H 0.607 0.78454 0.88751 0.0
H1624 H 0.6546 0.86134 0.92589 0.0
H1625 H 0.61195 0.87904 0.88221 0.0
H1626 H 0.69718 0.81141 0.91265 0.0
H1627 H 0.66798 0.79093 0.91777 0.0
H1628 H 0.67757 0.81959 0.93023 0.0
H1629 H 0.6456 0.83389 0.85818 0.0
H1630 H 0.61199 0.849 0.86044 0.0
H1631 H 0.61759 0.81317 0.8649 0.0
C1632 C 0.38969 0.39299 0.16425 0.0
C1633 C 0.37144 0.37682 0.15533 0.0
C1634 C 0.41435 0.40254 0.1576 0.0
C1635 C 0.42069 0.39611 0.14158 0.0
C1636 C 0.40278 0.37911 0.13266 0.0
C1637 C 0.37846 0.36948 0.13969 0.0
C1638 C 0.4332 0.42021 0.16758 0.0
C1639 C 0.40872 0.37207 0.11548 0.0
C1640 C 0.46649 0.44672 0.11976 0.0
C1641 C 0.49167 0.43282 0.11965 0.0
C1642 C 0.44311 0.43476 0.12663 0.0
C1643 C 0.4452 0.40853 0.13386 0.0
C1644 C 0.47069 0.3945 0.1339 0.0
C1645 C 0.49365 0.40679 0.12671 0.0
C1646 C 0.41619 0.4502 0.12617 0.0
C1647 C 0.47381 0.36676 0.14177 0.0
H1648 H 0.38451 0.39857 0.17639 0.0
H1649 H 0.36445 0.35705 0.1327 0.0
H1650 H 0.45447 0.412 0.16722 0.0
H1651 H 0.43382 0.44135 0.16263 0.0
H1652 H 0.42645 0.42139 0.1802 0.0
H1653 H 0.3935 0.3574 0.11047 0.0
H1654 H 0.40843 0.3911 0.10818 0.0
H1655 H 0.42954 0.36298 0.11434 0.0
H1656 H 0.46503 0.46688 0.11431 0.0
H1657 H 0.51331 0.39635 0.12697 0.0
H1658 H 0.40911 0.45455 0.13847 0.0
H1659 H 0.40016 0.43742 0.12037 0.0
H1660 H 0.41786 0.46998 0.11962 0.0
H1661 H 0.46878 0.36842 0.15462 0.0
H1662 H 0.49496 0.35842 0.14056 0.0
H1663 H 0.45915 0.35187 0.13647 0.0
C1664 C 0.84486 0.13905 0.41041 0.0
C1665 C 0.86248 0.1211 0.40224 0.0
C1666 C 0.83587 0.16359 0.40338 0.0
C1667 C 0.84443 0.17019 0.38772 0.0
C1668 C 0.86277 0.15254 0.37956 0.0
C1669 C 0.87173 0.12827 0.38696 0.0
C1670 C 0.81665 0.18213 0.41256 0.0
C1671 C 0.87215 0.15882 0.3628 0.0
C1672 C 0.79647 0.21669 0.36446 0.0
C1673 C 0.80998 0.24202 0.36553 0.0
C1674 C 0.80787 0.19298 0.37128 0.0
C1675 C 0.83308 0.19486 0.37965 0.0
C1676 C 0.84681 0.22044 0.38076 0.0
C1677 C 0.83511 0.24375 0.37362 0.0
C1678 C 0.79278 0.16599 0.36968 0.0
C1679 C 0.87347 0.22332 0.38983 0.0
H1680 H 0.83781 0.13378 0.42227 0.0
H1681 H 0.88533 0.11451 0.38055 0.0
H1682 H 0.82488 0.20339 0.41287 0.0
H1683 H 0.7964 0.18295 0.4065 0.0
H1684 H 0.81345 0.17498 0.42499 0.0
H1685 H 0.88752 0.14372 0.3584 0.0
H1686 H 0.85421 0.15863 0.35463 0.0
H1687 H 0.8813 0.17968 0.36222 0.0
H1688 H 0.77701 0.21541 0.3582 0.0
H1689 H 0.84521 0.2635 0.37479 0.0
H1690 H 0.78656 0.15847 0.38163 0.0
H1691 H 0.80653 0.15023 0.36441 0.0
H1692 H 0.7741 0.16779 0.36214 0.0
H1693 H 0.87007 0.21822 0.40256 0.0
H1694 H 0.88206 0.24444 0.38905 0.0
H1695 H 0.88893 0.20862 0.38518 0.0
C1696 C 0.0293 0.5481 0.61758 0.0
C1697 C 0.00396 0.56166 0.61805 0.0
C1698 C 0.05268 0.55973 0.62463 0.0
C1699 C 0.05041 0.58521 0.63268 0.0
C1700 C 0.02474 0.59888 0.63332 0.0
C1701 C 0.00179 0.58698 0.6259 0.0
C1702 C 0.0798 0.54474 0.62349 0.0
C1703 C 0.02143 0.62579 0.64207 0.0
C1704 C 0.10638 0.59882 0.66311 0.0
C1705 C 0.12407 0.61621 0.6546 0.0
C1706 C 0.08176 0.58943 0.65633 0.0
C1707 C 0.07492 0.59726 0.64058 0.0
C1708 C 0.09232 0.61538 0.63208 0.0
C1709 C 0.11659 0.62483 0.63925 0.0
C1710 C 0.06343 0.57054 0.66588 0.0
C1711 C 0.08587 0.62391 0.61518 0.0
H1712 H 0.03089 0.52849 0.61151 0.0
H1713 H 0.982 0.59713 0.62658 0.0
H1714 H 0.09551 0.55829 0.61799 0.0
H1715 H 0.08722 0.53933 0.63559 0.0
H1716 H 0.07825 0.52559 0.61633 0.0
H1717 H 0.00012 0.63389 0.64132 0.0
H1718 H 0.02687 0.62301 0.65481 0.0
H1719 H 0.03569 0.64138 0.63711 0.0
H1720 H 0.11192 0.59228 0.67504 0.0
H1721 H 0.1302 0.6382 0.63257 0.0
H1722 H 0.06296 0.54991 0.66026 0.0
H1723 H 0.04204 0.57846 0.66596 0.0
H1724 H 0.07054 0.56823 0.67839 0.0
H1725 H 0.08624 0.60558 0.60731 0.0
H1726 H 0.10077 0.63923 0.61052 0.0
H1727 H 0.06491 0.63279 0.61449 0.0
C1728 C 0.66148 0.24565 0.61798 0.0
C1729 C 0.68691 0.24384 0.62574 0.0
C1730 C 0.64946 0.22237 0.61099 0.0
C1731 C 0.66312 0.19673 0.61199 0.0
C1732 C 0.68872 0.19482 0.61995 0.0
C1733 C 0.70047 0.21852 0.62657 0.0
C1734 C 0.62242 0.22528 0.60231 0.0
C1735 C 0.70372 0.16776 0.62146 0.0
C1736 C 0.62364 0.13016 0.6065 0.0
C1737 C 0.63218 0.12207 0.59125 0.0
C1738 C 0.63303 0.15479 0.61328 0.0
C1739 C 0.65102 0.17189 0.60448 0.0
C1740 C 0.65872 0.16442 0.58881 0.0
C1741 C 0.6494 0.13947 0.58243 0.0
C1742 C 0.62464 0.16192 0.6301 0.0
C1743 C 0.67746 0.18239 0.57894 0.0
H1744 H 0.65132 0.2654 0.61703 0.0
H1745 H 0.72016 0.21721 0.63258 0.0
H1746 H 0.62503 0.21932 0.58964 0.0
H1747 H 0.60692 0.21121 0.60754 0.0
H1748 H 0.6143 0.24661 0.60279 0.0
H1749 H 0.72293 0.16962 0.62854 0.0
H1750 H 0.69023 0.15229 0.62723 0.0
H1751 H 0.70902 0.15982 0.60946 0.0
H1752 H 0.6105 0.11674 0.61342 0.0
H1753 H 0.65587 0.13343 0.57058 0.0
H1754 H 0.61585 0.18294 0.63054 0.0
H1755 H 0.64302 0.16177 0.63793 0.0
H1756 H 0.6093 0.14725 0.63498 0.0
H1757 H 0.66951 0.20376 0.5786 0.0
H1758 H 0.67962 0.17479 0.56653 0.0
H1759 H 0.69816 0.18311 0.58447 0.0
C1760 C 0.12027 0.41184 0.84072 0.0
C1761 C 0.12756 0.38397 0.8411 0.0
C1762 C 0.09567 0.421 0.84757 0.0
C1763 C 0.07759 0.40172 0.85461 0.0
C1764 C 0.08457 0.37346 0.85477 0.0
C1765 C 0.10969 0.36495 0.84818 0.0
C1766 C 0.08922 0.45138 0.84746 0.0
C1767 C 0.06547 0.35226 0.86184 0.0
C1768 C 0.02601 0.42933 0.88451 0.0
C1769 C 0.00296 0.43347 0.87483 0.0
C1770 C 0.05039 0.41854 0.87814 0.0
C1771 C 0.0514 0.41132 0.8618 0.0
C1772 C 0.02782 0.41477 0.85211 0.0
C1773 C 0.00396 0.42623 0.85871 0.0
C1774 C 0.07532 0.41582 0.88874 0.0
C1775 C 0.02793 0.40679 0.83473 0.0
H1776 H 0.13417 0.42664 0.83539 0.0
H1777 H 0.1152 0.34336 0.84839 0.0
H1778 H 0.06983 0.45518 0.84087 0.0
H1779 H 0.08613 0.45878 0.85984 0.0
H1780 H 0.10583 0.46374 0.84187 0.0
H1781 H 0.07366 0.33103 0.86067 0.0
H1782 H 0.06204 0.35666 0.87465 0.0
H1783 H 0.04516 0.35328 0.85585 0.0
H1784 H 0.02528 0.43548 0.89691 0.0
H1785 H 0.98599 0.42945 0.8513 0.0
H1786 H 0.09201 0.42931 0.88425 0.0
H1787 H 0.08316 0.39442 0.88847 0.0
H1788 H 0.07084 0.42147 0.90129 0.0
H1789 H 0.04248 0.42008 0.82808 0.0
H1790 H 0.00728 0.40874 0.82919 0.0
H1791 H 0.0351 0.38526 0.83336 0.0
C1792 C 0.83434 0.74939 0.11695 0.0
C1793 C 0.80897 0.75207 0.12469 0.0
C1794 C 0.84675 0.77206 0.10953 0.0
C1795 C 0.83353 0.79796 0.11003 0.0
C1796 C 0.80786 0.80069 0.11784 0.0
C1797 C 0.79574 0.77759 0.12492 0.0
C1798 C 0.87384 0.76827 0.10104 0.0
C1799 C 0.79329 0.82806 0.1188 0.0
C1800 C 0.87415 0.8638 0.10471 0.0
C1801 C 0.86603 0.87199 0.08938 0.0
C1802 C 0.86436 0.83928 0.11141 0.0
C1803 C 0.84642 0.82235 0.10247 0.0
C1804 C 0.83935 0.82976 0.08668 0.0
C1805 C 0.84907 0.85462 0.08037 0.0
C1806 C 0.87214 0.83218 0.12834 0.0
C1807 C 0.8207 0.81194 0.07668 0.0
H1808 H 0.84422 0.72945 0.11642 0.0
H1809 H 0.77607 0.77957 0.13089 0.0
H1810 H 0.87169 0.7742 0.08833 0.0
H1811 H 0.88965 0.78192 0.10634 0.0
H1812 H 0.88132 0.74672 0.10165 0.0
H1813 H 0.77371 0.82677 0.12556 0.0
H1814 H 0.80679 0.84344 0.12465 0.0
H1815 H 0.78874 0.83575 0.10664 0.0
H1816 H 0.88721 0.87713 0.11176 0.0
H1817 H 0.84292 0.86071 0.06846 0.0
H1818 H 0.88048 0.81099 0.12897 0.0
H1819 H 0.85355 0.83282 0.136 0.0
H1820 H 0.88765 0.84659 0.13332 0.0
H1821 H 0.82809 0.79036 0.0767 0.0
H1822 H 0.81939 0.81921 0.06415 0.0
H1823 H 0.79971 0.81194 0.08184 0.0
C1824 C 0.383 0.62659 0.35264 0.0
C1825 C 0.37296 0.61614 0.33818 0.0
C1826 C 0.40722 0.61633 0.35945 0.0
C1827 C 0.42194 0.59529 0.35153 0.0
C1828 C 0.41267 0.58555 0.33658 0.0
C1829 C 0.38821 0.596 0.33012 0.0
C1830 C 0.41639 0.62715 0.37546 0.0
C1831 C 0.42805 0.56339 0.32769 0.0
C1832 C 0.49496 0.58087 0.36518 0.0
C1833 C 0.49105 0.55798 0.37505 0.0
C1834 C 0.47268 0.59312 0.35727 0.0
C1835 C 0.44595 0.58225 0.35941 0.0
C1836 C 0.44199 0.55897 0.36929 0.0
C1837 C 0.46467 0.54695 0.37687 0.0
C1838 C 0.47773 0.61762 0.34662 0.0
C1839 C 0.41374 0.54695 0.37199 0.0
H1840 H 0.37144 0.64212 0.35897 0.0
H1841 H 0.38076 0.58793 0.31888 0.0
H1842 H 0.41512 0.61049 0.38446 0.0
H1843 H 0.43816 0.63387 0.37491 0.0
H1844 H 0.40362 0.6447 0.37957 0.0
H1845 H 0.41949 0.5598 0.31559 0.0
H1846 H 0.45008 0.56896 0.32655 0.0
H1847 H 0.42702 0.54383 0.33447 0.0
H1848 H 0.5155 0.58895 0.36345 0.0
H1849 H 0.46172 0.52918 0.38448 0.0
H1850 H 0.46594 0.6356 0.35101 0.0
H1851 H 0.47036 0.61314 0.33438 0.0
H1852 H 0.49983 0.62329 0.34604 0.0
H1853 H 0.39999 0.56276 0.37721 0.0
H1854 H 0.41419 0.52887 0.38008 0.0
H1855 H 0.4046 0.54055 0.36046 0.0
C1856 C 0.31757 0.24308 0.1072 0.0
C1857 C 0.31041 0.24356 0.12334 0.0
C1858 C 0.32942 0.21959 0.10039 0.0
C1859 C 0.33337 0.19585 0.10989 0.0
C1860 C 0.32613 0.19632 0.12624 0.0
C1861 C 0.31495 0.22035 0.13281 0.0
C1862 C 0.3374 0.22004 0.08301 0.0
C1863 C 0.32939 0.17121 0.13664 0.0
C1864 C 0.33477 0.12712 0.08867 0.0
C1865 C 0.36279 0.12046 0.08922 0.0
C1866 C 0.32494 0.15156 0.09542 0.0
C1867 C 0.3437 0.17009 0.10254 0.0
C1868 C 0.37211 0.16381 0.1028 0.0
C1869 C 0.3813 0.13886 0.0963 0.0
C1870 C 0.29442 0.15726 0.09521 0.0
C1871 C 0.39276 0.18341 0.10997 0.0
H1872 H 0.31404 0.26119 0.09994 0.0
H1873 H 0.30887 0.2207 0.14524 0.0
H1874 H 0.35914 0.21356 0.08161 0.0
H1875 H 0.32457 0.20521 0.07626 0.0
H1876 H 0.33483 0.24073 0.0776 0.0
H1877 H 0.32339 0.1752 0.1492 0.0
H1878 H 0.31647 0.15425 0.13194 0.0
H1879 H 0.35101 0.16401 0.13643 0.0
H1880 H 0.32034 0.11283 0.08335 0.0
H1881 H 0.403 0.13385 0.09666 0.0
H1882 H 0.29022 0.17676 0.08881 0.0
H1883 H 0.28677 0.15977 0.10758 0.0
H1884 H 0.28256 0.14053 0.08938 0.0
H1885 H 0.39106 0.20383 0.10416 0.0
H1886 H 0.41422 0.17591 0.10869 0.0
H1887 H 0.38835 0.18637 0.12282 0.0
C1888 C 0.61422 0.62659 0.85456 0.0
C1889 C 0.62345 0.61645 0.83986 0.0
C1890 C 0.58926 0.61763 0.86111 0.0
C1891 C 0.57306 0.59836 0.85265 0.0
C1892 C 0.58149 0.5893 0.8374 0.0
C1893 C 0.60666 0.59835 0.83122 0.0
C1894 C 0.58094 0.62767 0.87743 0.0
C1895 C 0.56454 0.56907 0.82792 0.0
C1896 C 0.52825 0.54921 0.8761 0.0
C1897 C 0.50231 0.56133 0.87453 0.0
C1898 C 0.5515 0.56132 0.86921 0.0
C1899 C 0.54857 0.58587 0.8603 0.0
C1900 C 0.52232 0.59803 0.8585 0.0
C1901 C 0.49944 0.58559 0.86569 0.0
C1902 C 0.57921 0.54786 0.87148 0.0
C1903 C 0.51839 0.62393 0.84886 0.0
H1904 H 0.62705 0.64062 0.8613 0.0
H1905 H 0.61349 0.59066 0.81976 0.0
H1906 H 0.55944 0.63525 0.87727 0.0
H1907 H 0.58185 0.61035 0.88602 0.0
H1908 H 0.59452 0.64441 0.88181 0.0
H1909 H 0.57252 0.56628 0.81563 0.0
H1910 H 0.56463 0.5488 0.83399 0.0
H1911 H 0.54285 0.576 0.82722 0.0
H1912 H 0.5304 0.53042 0.88295 0.0
H1913 H 0.47924 0.59458 0.86414 0.0
H1914 H 0.59374 0.5626 0.87704 0.0
H1915 H 0.58788 0.54194 0.85976 0.0
H1916 H 0.57803 0.52921 0.8791 0.0
H1917 H 0.53153 0.64062 0.85366 0.0
H1918 H 0.49668 0.63102 0.84886 0.0
H1919 H 0.52488 0.62032 0.83636 0.0
C1920 C 0.15989 0.75087 0.61668 0.0
C1921 C 0.18343 0.75466 0.62605 0.0
C1922 C 0.1474 0.77317 0.60892 0.0
C1923 C 0.15875 0.79979 0.61066 0.0
C1924 C 0.18258 0.80365 0.62009 0.0
C1925 C 0.19479 0.78095 0.62755 0.0
C1926 C 0.12228 0.76823 0.59874 0.0
C1927 C 0.19515 0.83178 0.62234 0.0
C1928 C 0.14571 0.85677 0.58081 0.0
C1929 C 0.12644 0.87301 0.58894 0.0
C1930 C 0.15548 0.83216 0.58743 0.0
C1931 C 0.14594 0.82375 0.60259 0.0
C1932 C 0.12562 0.8394 0.61054 0.0
C1933 C 0.116 0.86378 0.60358 0.0
C1934 C 0.17686 0.81578 0.57848 0.0
C1935 C 0.11504 0.83113 0.62676 0.0
H1936 H 0.15153 0.73039 0.61517 0.0
H1937 H 0.21304 0.78382 0.63478 0.0
H1938 H 0.10487 0.78085 0.60312 0.0
H1939 H 0.12646 0.77468 0.5863 0.0
H1940 H 0.11593 0.7463 0.59871 0.0
H1941 H 0.21341 0.83132 0.63029 0.0
H1942 H 0.20143 0.84035 0.61065 0.0
H1943 H 0.17972 0.84602 0.6275 0.0
H1944 H 0.15372 0.86361 0.56943 0.0
H1945 H 0.10111 0.87618 0.60995 0.0
H1946 H 0.1707 0.79386 0.57778 0.0
H1947 H 0.19671 0.81665 0.58497 0.0
H1948 H 0.18014 0.82367 0.56621 0.0
H1949 H 0.10804 0.80943 0.62662 0.0
H1950 H 0.09775 0.84432 0.63079 0.0
H1951 H 0.13191 0.83264 0.63562 0.0
C1952 C 0.87665 0.41263 0.34435 0.0
C1953 C 0.86953 0.3848 0.34325 0.0
C1954 C 0.90158 0.42076 0.35122 0.0
C1955 C 0.9202 0.4005 0.35671 0.0
C1956 C 0.9132 0.37231 0.35556 0.0
C1957 C 0.88769 0.36478 0.34903 0.0
C1958 C 0.90797 0.45106 0.35262 0.0
C1959 C 0.93285 0.35015 0.36092 0.0
C1960 C 0.99377 0.4257 0.3592 0.0
C1961 C 0.99637 0.43091 0.37551 0.0
C1962 C 0.9695 0.41439 0.35302 0.0
C1963 C 0.94714 0.40907 0.36338 0.0
C1964 C 0.94991 0.41402 0.37993 0.0
C1965 C 0.97469 0.42468 0.38583 0.0
C1966 C 0.96751 0.40885 0.33536 0.0
C1967 C 0.92632 0.40928 0.39129 0.0
H1968 H 0.86247 0.42814 0.34003 0.0
H1969 H 0.88225 0.34324 0.34808 0.0
H1970 H 0.91274 0.45634 0.36518 0.0
H1971 H 0.9264 0.45613 0.34541 0.0
H1972 H 0.89066 0.46418 0.34853 0.0
H1973 H 0.92423 0.32919 0.35928 0.0
H1974 H 0.9523 0.3517 0.35407 0.0
H1975 H 0.9381 0.35298 0.37367 0.0
H1976 H 0.0107 0.43061 0.3513 0.0
H1977 H 0.97678 0.42917 0.39843 0.0
H1978 H 0.95247 0.42314 0.32987 0.0
H1979 H 0.95999 0.38763 0.33322 0.0
H1980 H 0.98759 0.41147 0.32924 0.0
H1981 H 0.90921 0.42348 0.38834 0.0
H1982 H 0.93234 0.41265 0.40391 0.0
H1983 H 0.91834 0.38804 0.39004 0.0
C1984 C 0.29363 0.77134 0.38041 0.0
C1985 C 0.31047 0.75236 0.37247 0.0
C1986 C 0.30478 0.79466 0.38782 0.0
C1987 C 0.33358 0.79875 0.38766 0.0
C1988 C 0.3508 0.77924 0.38015 0.0
C1989 C 0.33899 0.75676 0.37225 0.0
C1990 C 0.28564 0.81551 0.39521 0.0
C1991 C 0.38167 0.78257 0.38 0.0
C1992 C 0.36063 0.87168 0.39036 0.0
C1993 C 0.36599 0.87414 0.40668 0.0
C1994 C 0.34988 0.84728 0.38405 0.0
C1995 C 0.34547 0.82449 0.39423 0.0
C1996 C 0.35189 0.82657 0.41065 0.0
C1997 C 0.36152 0.85165 0.41676 0.0
C1998 C 0.34241 0.84622 0.36659 0.0
C1999 C 0.3485 0.80236 0.42173 0.0
H2000 H 0.27155 0.76835 0.38048 0.0
H2001 H 0.35221 0.74335 0.36543 0.0
H2002 H 0.29121 0.81905 0.40785 0.0
H2003 H 0.28773 0.83547 0.38893 0.0
H2004 H 0.26378 0.80896 0.39465 0.0
H2005 H 0.39227 0.76373 0.37573 0.0
H2006 H 0.38743 0.79987 0.37207 0.0
H2007 H 0.38932 0.78756 0.39212 0.0
H2008 H 0.36376 0.88927 0.38263 0.0
H2009 H 0.36579 0.85365 0.42939 0.0
H2010 H 0.32029 0.8411 0.36524 0.0
H2011 H 0.35428 0.82983 0.36053 0.0
H2012 H 0.34645 0.86602 0.36041 0.0
H2013 H 0.3265 0.79657 0.42253 0.0
H2014 H 0.35619 0.80681 0.43392 0.0
H2015 H 0.35974 0.78429 0.41695 0.0
C2016 C 0.87946 0.62607 0.13924 0.0
C2017 C 0.8712 0.61667 0.15429 0.0
C2018 C 0.90423 0.61712 0.13241 0.0
C2019 C 0.9212 0.59863 0.14095 0.0
C2020 C 0.91358 0.59009 0.15644 0.0
C2021 C 0.8886 0.5991 0.16289 0.0
C2022 C 0.91165 0.62654 0.11582 0.0
C2023 C 0.93136 0.57069 0.166 0.0
C2024 C 0.96772 0.54987 0.11832 0.0
C2025 C 0.99326 0.56287 0.11976 0.0
C2026 C 0.944 0.56164 0.12488 0.0
C2027 C 0.94604 0.58676 0.13332 0.0
C2028 C 0.97185 0.59992 0.13488 0.0
C2029 C 0.9952 0.5878 0.12804 0.0
C2030 C 0.91678 0.54711 0.12286 0.0
C2031 C 0.97486 0.62647 0.14402 0.0
H2032 H 0.86612 0.63966 0.13252 0.0
H2033 H 0.8825 0.59196 0.17461 0.0
H2034 H 0.93278 0.6351 0.11565 0.0
H2035 H 0.91136 0.60871 0.10758 0.0
H2036 H 0.89722 0.64238 0.11123 0.0
H2037 H 0.9236 0.5678 0.17834 0.0
H2038 H 0.93206 0.55033 0.16006 0.0
H2039 H 0.95276 0.57851 0.1666 0.0
H2040 H 0.96627 0.53057 0.11191 0.0
H2041 H 0.01509 0.59751 0.1295 0.0
H2042 H 0.90163 0.56113 0.11723 0.0
H2043 H 0.90848 0.54123 0.13468 0.0
H2044 H 0.91857 0.52829 0.11543 0.0
H2045 H 0.96085 0.64231 0.13907 0.0
H2046 H 0.99622 0.63452 0.14369 0.0
H2047 H 0.96889 0.62321 0.15664 0.0
C2048 C 0.12003 0.13266 0.89133 0.0
C2049 C 0.13038 0.12338 0.90597 0.0
C2050 C 0.12978 0.15698 0.88436 0.0
C2051 C 0.15015 0.17255 0.89231 0.0
C2052 C 0.15979 0.16398 0.90743 0.0
C2053 C 0.1499 0.13942 0.91405 0.0
C2054 C 0.11912 0.16536 0.86817 0.0
C2055 C 0.18123 0.18028 0.91638 0.0
C2056 C 0.19817 0.21623 0.86731 0.0
C2057 C 0.18651 0.24237 0.86896 0.0
C2058 C 0.18639 0.1933 0.87478 0.0
C2059 C 0.16267 0.19676 0.88435 0.0
C2060 C 0.15104 0.22323 0.88625 0.0
C2061 C 0.1631 0.24577 0.87849 0.0
C2062 C 0.19925 0.16535 0.87235 0.0
C2063 C 0.12603 0.22775 0.89656 0.0
H2064 H 0.10502 0.12043 0.88498 0.0
H2065 H 0.15785 0.13253 0.92544 0.0
H2066 H 0.11176 0.18693 0.86844 0.0
H2067 H 0.13604 0.16431 0.85932 0.0
H2068 H 0.10205 0.15197 0.86402 0.0
H2069 H 0.18481 0.17213 0.92857 0.0
H2070 H 0.20097 0.17973 0.90977 0.0
H2071 H 0.17492 0.20214 0.9173 0.0
H2072 H 0.21633 0.21365 0.85998 0.0
H2073 H 0.15452 0.26612 0.88012 0.0
H2074 H 0.18394 0.15103 0.86714 0.0
H2075 H 0.2057 0.15666 0.88398 0.0
H2076 H 0.21745 0.16614 0.86437 0.0
H2077 H 0.10864 0.21512 0.89214 0.0
H2078 H 0.11952 0.24964 0.89679 0.0
H2079 H 0.1304 0.22103 0.90893 0.0
C2080 C 0.52804 0.44857 0.61893 0.0
C2081 C 0.50265 0.43512 0.61966 0.0
C2082 C 0.55166 0.43659 0.62549 0.0
C2083 C 0.54962 0.41083 0.63328 0.0
C2084 C 0.52395 0.39722 0.63411 0.0
C2085 C 0.50073 0.40951 0.62721 0.0
C2086 C 0.57876 0.45157 0.62418 0.0
C2087 C 0.52092 0.37001 0.64259 0.0
C2088 C 0.61648 0.37195 0.63892 0.0
C2089 C 0.62435 0.38057 0.65421 0.0
C2090 C 0.59175 0.38099 0.63211 0.0
C2091 C 0.57433 0.39868 0.64089 0.0
C2092 C 0.5815 0.40629 0.65663 0.0
C2093 C 0.60653 0.39731 0.66306 0.0
C2094 C 0.58489 0.37265 0.61524 0.0
C2095 C 0.56319 0.42471 0.66648 0.0
H2096 H 0.52945 0.46839 0.61308 0.0
H2097 H 0.48092 0.39943 0.62811 0.0
H2098 H 0.58651 0.45676 0.63624 0.0
H2099 H 0.59431 0.43812 0.61846 0.0
H2100 H 0.57703 0.47085 0.61715 0.0
H2101 H 0.49967 0.36175 0.64178 0.0
H2102 H 0.5353 0.35469 0.63747 0.0
H2103 H 0.52636 0.37245 0.65535 0.0
H2104 H 0.63017 0.35903 0.63201 0.0
H2105 H 0.61235 0.40381 0.67494 0.0
H2106 H 0.58526 0.39105 0.60742 0.0
H2107 H 0.56385 0.36394 0.61464 0.0
H2108 H 0.59959 0.35727 0.61044 0.0
H2109 H 0.56252 0.44553 0.6611 0.0
H2110 H 0.57048 0.42664 0.67897 0.0
H2111 H 0.54185 0.41667 0.66659 0.0
C2112 C 0.15877 0.05703 0.26084 0.0
C2113 C 0.17386 0.05428 0.27498 0.0
C2114 C 0.15822 0.03577 0.24953 0.0
C2115 C 0.17269 0.01107 0.25262 0.0
C2116 C 0.18748 0.008 0.26702 0.0
C2117 C 0.1881 0.02975 0.27796 0.0
C2118 C 0.14262 0.03994 0.23417 0.0
C2119 C 0.20277 0.9818 0.27085 0.0
C2120 C 0.15375 0.94678 0.22939 0.0
C2121 C 0.17522 0.94541 0.21828 0.0
C2122 C 0.15261 0.96808 0.24066 0.0
C2123 C 0.17315 0.98871 0.24058 0.0
C2124 C 0.19463 0.98763 0.22923 0.0
C2125 C 0.19555 0.96585 0.21832 0.0
C2126 C 0.12967 0.96832 0.25277 0.0
C2127 C 0.21666 0.00949 0.22862 0.0
H2128 H 0.14783 0.076 0.25847 0.0
H2129 H 0.1996 0.02744 0.28895 0.0
H2130 H 0.15694 0.03842 0.22392 0.0
H2131 H 0.12698 0.02354 0.23269 0.0
H2132 H 0.13215 0.06022 0.23369 0.0
H2133 H 0.21217 0.98223 0.28291 0.0
H2134 H 0.18861 0.96396 0.27013 0.0
H2135 H 0.2193 0.97841 0.26196 0.0
H2136 H 0.13805 0.93097 0.22944 0.0
H2137 H 0.21205 0.96502 0.20966 0.0
H2138 H 0.11792 0.9878 0.25189 0.0
H2139 H 0.1384 0.96731 0.26497 0.0
H2140 H 0.11524 0.95085 0.25117 0.0
H2141 H 0.20712 0.03008 0.22727 0.0
H2142 H 0.2313 0.00624 0.21863 0.0
H2143 H 0.2284 0.00962 0.23995 0.0
C2144 C 0.22424 0.91393 0.53159 0.0
C2145 C 0.20222 0.93255 0.5315 0.0
C2146 C 0.24354 0.9136 0.51917 0.0
C2147 C 0.24091 0.93253 0.50646 0.0
C2148 C 0.21883 0.95148 0.50634 0.0
C2149 C 0.19965 0.95116 0.51882 0.0
C2150 C 0.26665 0.89288 0.5196 0.0
C2151 C 0.21547 0.97213 0.49304 0.0
C2152 C 0.3037 0.94845 0.48118 0.0
C2153 C 0.29849 0.9328 0.46748 0.0
C2154 C 0.28517 0.9485 0.494 0.0
C2155 C 0.26103 0.9323 0.49314 0.0
C2156 C 0.2559 0.91612 0.47945 0.0
C2157 C 0.27462 0.91668 0.46675 0.0
C2158 C 0.29122 0.96616 0.50837 0.0
C2159 C 0.23053 0.89835 0.47817 0.0
H2160 H 0.22631 0.89942 0.54132 0.0
H2161 H 0.18275 0.96568 0.5187 0.0
H2162 H 0.26579 0.87966 0.50884 0.0
H2163 H 0.28676 0.90361 0.51945 0.0
H2164 H 0.26576 0.87952 0.53033 0.0
H2165 H 0.19746 0.98581 0.49488 0.0
H2166 H 0.23422 0.98502 0.49208 0.0
H2167 H 0.21294 0.96129 0.48151 0.0
H2168 H 0.32208 0.96099 0.48182 0.0
H2169 H 0.27052 0.90441 0.45624 0.0
H2170 H 0.29198 0.95325 0.51926 0.0
H2171 H 0.27448 0.98137 0.51006 0.0
H2172 H 0.31102 0.97737 0.50724 0.0
H2173 H 0.22966 0.88379 0.48833 0.0
H2174 H 0.22996 0.8864 0.4669 0.0
H2175 H 0.21183 0.91136 0.47879 0.0
C2176 C 0.30087 0.03403 0.71944 0.0
C2177 C 0.31932 0.05589 0.72149 0.0
C2178 C 0.30094 0.0115 0.72987 0.0
C2179 C 0.31944 0.01116 0.74288 0.0
C2180 C 0.33784 0.03339 0.74515 0.0
C2181 C 0.33779 0.05536 0.7343 0.0
C2182 C 0.28142 0.98792 0.72685 0.0
C2183 C 0.35742 0.03404 0.75911 0.0
C2184 C 0.3006 0.96504 0.77768 0.0
C2185 C 0.31847 0.94275 0.77547 0.0
C2186 C 0.30105 0.98765 0.76731 0.0
C2187 C 0.31931 0.98763 0.75419 0.0
C2188 C 0.33712 0.96498 0.75176 0.0
C2189 C 0.33674 0.94294 0.76258 0.0
C2190 C 0.28218 0.01169 0.7705 0.0
C2191 C 0.35639 0.96392 0.73768 0.0
H2192 H 0.28674 0.03423 0.70945 0.0
H2193 H 0.352 0.07229 0.73594 0.0
H2194 H 0.29314 0.96846 0.72563 0.0
H2195 H 0.26731 0.98542 0.73712 0.0
H2196 H 0.26891 0.991 0.71592 0.0
H2197 H 0.36994 0.05313 0.75939 0.0
H2198 H 0.34575 0.03246 0.77043 0.0
H2199 H 0.37149 0.01613 0.75858 0.0
H2200 H 0.28664 0.96509 0.78774 0.0
H2201 H 0.35049 0.92567 0.76081 0.0
H2202 H 0.26786 0.01452 0.76035 0.0
H2203 H 0.29438 0.03087 0.77162 0.0
H2204 H 0.2699 0.00889 0.78154 0.0
H2205 H 0.34451 0.96571 0.72644 0.0
H2206 H 0.36852 0.94458 0.73733 0.0
H2207 H 0.37084 0.98155 0.7381 0.0
C2208 C 0.30608 0.08471 0.01079 0.0
C2209 C 0.30581 0.06711 0.02401 0.0
C2210 C 0.28362 0.08583 0.0003 0.0
C2211 C 0.26023 0.06929 0.0033 0.0
C2212 C 0.25973 0.05174 0.01674 0.0
C2213 C 0.28263 0.05067 0.02685 0.0
C2214 C 0.28504 0.10444 0.98593 0.0
C2215 C 0.235 0.03408 0.02044 0.0
C2216 C 0.19238 0.0886 0.98385 0.0
C2217 C 0.19102 0.06958 0.97133 0.0
C2218 C 0.21482 0.08877 0.99438 0.0
C2219 C 0.23651 0.06974 0.99216 0.0
C2220 C 0.23533 0.05067 0.97946 0.0
C2221 C 0.21251 0.05069 0.96927 0.0
C2222 C 0.21521 0.10913 0.00795 0.0
C2223 C 0.25822 0.03027 0.9766 0.0
H2224 H 0.32399 0.09738 0.00853 0.0
H2225 H 0.28221 0.0372 0.03714 0.0
H2226 H 0.28285 0.0921 0.97488 0.0
H2227 H 0.26779 0.11934 0.98616 0.0
H2228 H 0.30468 0.11604 0.98533 0.0
H2229 H 0.23751 0.0223 0.03168 0.0
H2230 H 0.21636 0.04711 0.02145 0.0
H2231 H 0.23137 0.01935 0.01058 0.0
H2232 H 0.1758 0.10319 0.98551 0.0
H2233 H 0.21169 0.03605 0.95955 0.0
H2234 H 0.23378 0.12229 0.00713 0.0
H2235 H 0.2163 0.09802 0.01948 0.0
H2236 H 0.19675 0.12256 0.00802 0.0
H2237 H 0.27803 0.04126 0.97509 0.0
H2238 H 0.25454 0.01738 0.96588 0.0
H2239 H 0.26043 0.01654 0.98708 0.0
C2240 C 0.82448 0.9762 0.71272 0.0
C2241 C 0.80993 0.95145 0.71427 0.0
C2242 C 0.82573 0.99508 0.72532 0.0
C2243 C 0.81192 0.98915 0.73975 0.0
C2244 C 0.79719 0.96422 0.74139 0.0
C2245 C 0.79647 0.9456 0.72865 0.0
C2246 C 0.84185 0.02136 0.7232 0.0
C2247 C 0.78204 0.9573 0.75658 0.0
C2248 C 0.83389 0.02568 0.77759 0.0
C2249 C 0.81404 0.04648 0.77877 0.0
C2250 C 0.83361 0.00703 0.76486 0.0
C2251 C 0.81279 0.00907 0.75313 0.0
C2252 C 0.79271 0.03003 0.75424 0.0
C2253 C 0.79366 0.0486 0.76701 0.0
C2254 C 0.85554 0.98511 0.76396 0.0
C2255 C 0.77007 0.03269 0.74202 0.0
H2256 H 0.83502 0.98081 0.70166 0.0
H2257 H 0.78515 0.92653 0.72992 0.0
H2258 H 0.82808 0.03935 0.72471 0.0
H2259 H 0.85802 0.02286 0.73248 0.0
H2260 H 0.85175 0.02269 0.7113 0.0
H2261 H 0.77145 0.9371 0.75591 0.0
H2262 H 0.79661 0.95687 0.76675 0.0
H2263 H 0.76653 0.97341 0.75917 0.0
H2264 H 0.84978 0.02401 0.7866 0.0
H2265 H 0.77822 0.06459 0.76787 0.0
H2266 H 0.86677 0.98674 0.75249 0.0
H2267 H 0.84593 0.96444 0.76433 0.0
H2268 H 0.87061 0.98667 0.77386 0.0
H2269 H 0.77904 0.0357 0.73 0.0
H2270 H 0.75604 0.05014 0.74461 0.0
H2271 H 0.75781 0.01346 0.74164 0.0
C2272 C 0.78274 0.05342 0.46945 0.0
C2273 C 0.80286 0.07405 0.46981 0.0
C2274 C 0.7609 0.05343 0.48033 0.0
C2275 C 0.75946 0.07426 0.49206 0.0
C2276 C 0.77984 0.09503 0.49259 0.0
C2277 C 0.80119 0.09483 0.48133 0.0
C2278 C 0.73931 0.03119 0.47923 0.0
C2279 C 0.77923 0.11726 0.50513 0.0
C2280 C 0.69055 0.08706 0.51197 0.0
C2281 C 0.69302 0.07124 0.52585 0.0
C2282 C 0.71209 0.08837 0.50088 0.0
C2283 C 0.73682 0.07394 0.50393 0.0
C2284 C 0.7396 0.05839 0.51809 0.0
C2285 C 0.71755 0.05699 0.5288 0.0
C2286 C 0.70821 0.10474 0.48575 0.0
C2287 C 0.76583 0.04311 0.52189 0.0
H2288 H 0.7838 0.03744 0.46047 0.0
H2289 H 0.81677 0.11074 0.48169 0.0
H2290 H 0.73903 0.01896 0.49038 0.0
H2291 H 0.71865 0.04057 0.47786 0.0
H2292 H 0.74293 0.01703 0.46906 0.0
H2293 H 0.79672 0.13181 0.50396 0.0
H2294 H 0.75976 0.12903 0.50429 0.0
H2295 H 0.77992 0.10786 0.51717 0.0
H2296 H 0.67156 0.09801 0.50963 0.0
H2297 H 0.71964 0.04494 0.5396 0.0
H2298 H 0.71016 0.09098 0.47527 0.0
H2299 H 0.72448 0.1206 0.48471 0.0
H2300 H 0.68784 0.11503 0.48527 0.0
H2301 H 0.76959 0.02706 0.51276 0.0
H2302 H 0.76517 0.03312 0.53378 0.0
H2303 H 0.78357 0.05744 0.52156 0.0
C2304 C 0.66528 0.02576 0.21839 0.0
C2305 C 0.68364 0.04795 0.21774 0.0
C2306 C 0.66556 0.00736 0.23126 0.0
C2307 C 0.68487 0.01109 0.24368 0.0
C2308 C 0.70343 0.03348 0.24313 0.0
C2309 C 0.70249 0.05176 0.2302 0.0
C2310 C 0.64523 0.9839 0.23154 0.0
C2311 C 0.72446 0.03797 0.25611 0.0
C2312 C 0.67074 0.97751 0.28368 0.0
C2313 C 0.68682 0.95364 0.28272 0.0
C2314 C 0.66989 0.99639 0.27105 0.0
C2315 C 0.68574 0.99141 0.25722 0.0
C2316 C 0.7022 0.96747 0.25623 0.0
C2317 C 0.70243 0.94878 0.26896 0.0
C2318 C 0.65187 0.02155 0.27246 0.0
C2319 C 0.71958 0.96161 0.24171 0.0
H2320 H 0.65057 0.02277 0.20884 0.0
H2321 H 0.71679 0.06883 0.22976 0.0
H2322 H 0.65634 0.964 0.23163 0.0
H2323 H 0.63274 0.98481 0.24258 0.0
H2324 H 0.63114 0.98424 0.22112 0.0
H2325 H 0.73739 0.0564 0.2539 0.0
H2326 H 0.71403 0.04042 0.26777 0.0
H2327 H 0.73805 0.01972 0.25705 0.0
H2328 H 0.65854 0.98134 0.29425 0.0
H2329 H 0.71498 0.93043 0.26816 0.0
H2330 H 0.63653 0.02176 0.26268 0.0
H2331 H 0.66449 0.04042 0.27124 0.0
H2332 H 0.64078 0.02239 0.28402 0.0
H2333 H 0.70628 0.95985 0.23102 0.0
H2334 H 0.73166 0.94235 0.24295 0.0
H2335 H 0.734 0.97889 0.23957 0.0
C2336 C 0.69132 0.90952 0.98401 0.0
C2337 C 0.69116 0.92731 0.97088 0.0
C2338 C 0.7134 0.90943 0.9948 0.0
C2339 C 0.7361 0.92709 0.99216 0.0
C2340 C 0.7361 0.94495 0.97884 0.0
C2341 C 0.71347 0.94509 0.96848 0.0
C2342 C 0.71239 0.89054 0.00907 0.0
C2343 C 0.76015 0.96368 0.97544 0.0
C2344 C 0.78323 0.94572 0.02657 0.0
C2345 C 0.80494 0.9271 0.02451 0.0
C2346 C 0.76054 0.9457 0.01625 0.0
C2347 C 0.75983 0.92701 0.00334 0.0
C2348 C 0.78191 0.90843 0.00104 0.0
C2349 C 0.80407 0.90849 0.01177 0.0
C2350 C 0.73717 0.96546 0.01928 0.0
C2351 C 0.78216 0.8886 0.98721 0.0
H2352 H 0.67404 0.89584 0.98594 0.0
H2353 H 0.71356 0.95871 0.95825 0.0
H2354 H 0.72984 0.87589 0.00866 0.0
H2355 H 0.71452 0.90268 0.02019 0.0
H2356 H 0.69292 0.87863 0.00965 0.0
H2357 H 0.7572 0.97588 0.96437 0.0
H2358 H 0.76327 0.97808 0.98552 0.0
H2359 H 0.77924 0.95137 0.97423 0.0
H2360 H 0.78367 0.95998 0.03649 0.0
H2361 H 0.82086 0.89414 0.01009 0.0
H2362 H 0.71766 0.95391 0.02074 0.0
H2363 H 0.73454 0.97934 0.00891 0.0
H2364 H 0.74057 0.97819 0.03008 0.0
H2365 H 0.76416 0.87466 0.98794 0.0
H2366 H 0.80116 0.87593 0.98689 0.0
H2367 H 0.78045 0.90007 0.97582 0.0
C2368 C 0.65745 0.5527 0.76331 0.0
C2369 C 0.67616 0.55242 0.77601 0.0
C2370 C 0.65692 0.53125 0.75213 0.0
C2371 C 0.67513 0.50875 0.75392 0.0
C2372 C 0.69381 0.5082 0.76685 0.0
C2373 C 0.6943 0.5302 0.77764 0.0
C2374 C 0.63711 0.53281 0.73831 0.0
C2375 C 0.71319 0.48432 0.76933 0.0
C2376 C 0.65752 0.44184 0.7329 0.0
C2377 C 0.67561 0.44248 0.71992 0.0
C2378 C 0.65724 0.46321 0.74415 0.0
C2379 C 0.67504 0.48598 0.74212 0.0
C2380 C 0.69308 0.48687 0.72891 0.0
C2381 C 0.69337 0.46495 0.71806 0.0
C2382 C 0.63813 0.4613 0.75827 0.0
C2383 C 0.71199 0.51104 0.72617 0.0
H2384 H 0.64348 0.56991 0.76197 0.0
H2385 H 0.70864 0.52977 0.78753 0.0
H2386 H 0.64862 0.53214 0.7269 0.0
H2387 H 0.62314 0.51479 0.73846 0.0
H2388 H 0.62448 0.55183 0.73855 0.0
H2389 H 0.72574 0.4866 0.78031 0.0
H2390 H 0.70137 0.46486 0.77012 0.0
H2391 H 0.72725 0.48245 0.75899 0.0
H2392 H 0.64386 0.42443 0.73441 0.0
H2393 H 0.70722 0.46563 0.70796 0.0
H2394 H 0.62386 0.47907 0.75835 0.0
H2395 H 0.65017 0.46214 0.7695 0.0
H2396 H 0.62582 0.44206 0.75821 0.0
H2397 H 0.69985 0.53033 0.72556 0.0
H2398 H 0.72409 0.50897 0.71501 0.0
H2399 H 0.72648 0.51312 0.73631 0.0
C2400 C 0.80308 0.44895 0.98041 0.0
C2401 C 0.7994 0.43027 0.96786 0.0
C2402 C 0.78454 0.44992 0.9932 0.0
C2403 C 0.76196 0.43156 0.99351 0.0
C2404 C 0.75836 0.4124 0.981 0.0
C2405 C 0.77705 0.41208 0.96828 0.0
C2406 C 0.78892 0.47078 0.00628 0.0
C2407 C 0.7347 0.39229 0.98103 0.0
C2408 C 0.72746 0.41777 0.03327 0.0
C2409 C 0.7039 0.43428 0.0322 0.0
C2410 C 0.74649 0.4166 0.02074 0.0
C2411 C 0.74197 0.43254 0.00688 0.0
C2412 C 0.7183 0.44936 0.00575 0.0
C2413 C 0.69946 0.44991 0.0184 0.0
C2414 C 0.77137 0.39821 0.02229 0.0
C2415 C 0.71292 0.46681 0.9912 0.0
H2416 H 0.82028 0.46311 0.98016 0.0
H2417 H 0.77414 0.3975 0.95867 0.0
H2418 H 0.7708 0.48457 0.00709 0.0
H2419 H 0.79096 0.46022 0.01793 0.0
H2420 H 0.80754 0.48354 0.00427 0.0
H2421 H 0.73517 0.37828 0.97059 0.0
H2422 H 0.7352 0.37972 0.99206 0.0
H2423 H 0.7149 0.4036 0.98097 0.0
H2424 H 0.73098 0.40554 0.04388 0.0
H2425 H 0.68132 0.46277 0.0175 0.0
H2426 H 0.79043 0.4106 0.0213 0.0
H2427 H 0.77164 0.38301 0.01244 0.0
H2428 H 0.77175 0.38695 0.03381 0.0
H2429 H 0.73035 0.48113 0.98924 0.0
H2430 H 0.6937 0.47902 0.99227 0.0
H2431 H 0.71135 0.45357 0.98048 0.0
C2432 C 0.84156 0.55815 0.23338 0.0
C2433 C 0.82346 0.55655 0.22043 0.0
C2434 C 0.84265 0.53705 0.24478 0.0
C2435 C 0.82573 0.51359 0.2429 0.0
C2436 C 0.80779 0.51169 0.22967 0.0
C2437 C 0.80662 0.53337 0.2187 0.0
C2438 C 0.86155 0.54005 0.25894 0.0
C2439 C 0.78985 0.48673 0.22709 0.0
C2440 C 0.84457 0.44781 0.26471 0.0
C2441 C 0.8252 0.44766 0.27706 0.0
C2442 C 0.84507 0.46922 0.2535 0.0
C2443 C 0.8262 0.49124 0.25496 0.0
C2444 C 0.80707 0.49149 0.26765 0.0
C2445 C 0.80657 0.4695 0.27844 0.0
C2446 C 0.86534 0.46797 0.2399 0.0
C2447 C 0.78703 0.51492 0.2698 0.0
H2448 H 0.8545 0.57614 0.23476 0.0
H2449 H 0.79279 0.53197 0.2086 0.0
H2450 H 0.8494 0.53934 0.27012 0.0
H2451 H 0.8763 0.52268 0.25934 0.0
H2452 H 0.87333 0.55961 0.25865 0.0
H2453 H 0.77801 0.48792 0.21579 0.0
H2454 H 0.80268 0.46788 0.22687 0.0
H2455 H 0.77514 0.48456 0.2371 0.0
H2456 H 0.8589 0.43086 0.26359 0.0
H2457 H 0.79175 0.46956 0.28808 0.0
H2458 H 0.87846 0.48662 0.23987 0.0
H2459 H 0.85412 0.46757 0.22839 0.0
H2460 H 0.87881 0.44957 0.24057 0.0
H2461 H 0.79826 0.53476 0.27029 0.0
H2462 H 0.7746 0.51275 0.28083 0.0
H2463 H 0.77286 0.5159 0.25947 0.0
C2464 C 0.71295 0.5505 0.46748 0.0
C2465 C 0.68874 0.565 0.47089 0.0
C2466 C 0.73582 0.55207 0.47761 0.0
C2467 C 0.73425 0.56809 0.49164 0.0
C2468 C 0.70978 0.5826 0.49523 0.0
C2469 C 0.68737 0.5811 0.48471 0.0
C2470 C 0.76171 0.53667 0.47324 0.0
C2471 C 0.70718 0.59947 0.51025 0.0
C2472 C 0.78381 0.54967 0.52487 0.0
C2473 C 0.80359 0.57052 0.52353 0.0
C2474 C 0.76093 0.54891 0.51472 0.0
C2475 C 0.75806 0.56915 0.50273 0.0
C2476 C 0.77812 0.59009 0.50119 0.0
C2477 C 0.80053 0.59069 0.51173 0.0
C2478 C 0.73973 0.52653 0.5169 0.0
C2479 C 0.77601 0.6117 0.48833 0.0
H2480 H 0.7142 0.53821 0.45673 0.0
H2481 H 0.66866 0.59225 0.48741 0.0
H2482 H 0.77934 0.55111 0.47264 0.0
H2483 H 0.76654 0.52125 0.48256 0.0
H2484 H 0.75989 0.52592 0.46161 0.0
H2485 H 0.6867 0.60939 0.51134 0.0
H2486 H 0.71057 0.5862 0.52082 0.0
H2487 H 0.72319 0.6157 0.51048 0.0
H2488 H 0.78593 0.53417 0.53407 0.0
H2489 H 0.81583 0.60678 0.51063 0.0
H2490 H 0.73839 0.51382 0.50596 0.0
H2491 H 0.71917 0.53579 0.51887 0.0
H2492 H 0.74458 0.51285 0.52712 0.0
H2493 H 0.77545 0.60173 0.47645 0.0
H2494 H 0.79349 0.62638 0.48863 0.0
H2495 H 0.75659 0.62341 0.48969 0.0
C2496 C 0.29466 0.54748 0.26692 0.0
C2497 C 0.31333 0.54471 0.27956 0.0
C2498 C 0.29435 0.52854 0.25431 0.0
C2499 C 0.31339 0.50653 0.25425 0.0
C2500 C 0.33247 0.50379 0.26688 0.0
C2501 C 0.33211 0.52283 0.27943 0.0
C2502 C 0.27354 0.53199 0.2411 0.0
C2503 C 0.3533 0.48078 0.26712 0.0
C2504 C 0.29744 0.4434 0.22928 0.0
C2505 C 0.31302 0.44841 0.21552 0.0
C2506 C 0.29733 0.46218 0.24197 0.0
C2507 C 0.31339 0.48639 0.24093 0.0
C2508 C 0.3294 0.4914 0.22716 0.0
C2509 C 0.32893 0.47241 0.21459 0.0
C2510 C 0.27984 0.45625 0.25643 0.0
C2511 C 0.34702 0.51684 0.2257 0.0
H2512 H 0.28003 0.56429 0.26696 0.0
H2513 H 0.34669 0.52064 0.28912 0.0
H2514 H 0.28422 0.53442 0.22951 0.0
H2515 H 0.26053 0.51332 0.24023 0.0
H2516 H 0.26 0.55008 0.243 0.0
H2517 H 0.36697 0.48176 0.27771 0.0
H2518 H 0.34264 0.46063 0.26711 0.0
H2519 H 0.36619 0.48163 0.25623 0.0
H2520 H 0.28506 0.42493 0.23007 0.0
H2521 H 0.34111 0.47638 0.20403 0.0
H2522 H 0.26476 0.47309 0.2582 0.0
H2523 H 0.29291 0.45539 0.26724 0.0
H2524 H 0.26847 0.43652 0.25535 0.0
H2525 H 0.33396 0.53549 0.22644 0.0
H2526 H 0.35865 0.51745 0.21432 0.0
H2527 H 0.36186 0.51777 0.23573 0.0
C2528 C 0.26671 0.57562 0.96215 0.0
C2529 C 0.29197 0.5619 0.96342 0.0
C2530 C 0.24882 0.57741 0.97522 0.0
C2531 C 0.25635 0.56507 0.98986 0.0
C2532 C 0.28183 0.55124 0.99122 0.0
C2533 C 0.29937 0.54987 0.978 0.0
C2534 C 0.22184 0.59242 0.97336 0.0
C2535 C 0.2905 0.53774 0.00664 0.0
C2536 C 0.22171 0.58868 0.02798 0.0
C2537 C 0.20203 0.56799 0.03029 0.0
C2538 C 0.2394 0.58812 0.01479 0.0
C2539 C 0.23742 0.56628 0.00371 0.0
C2540 C 0.21757 0.54538 0.00594 0.0
C2541 C 0.20007 0.54652 0.01919 0.0
C2542 C 0.26026 0.61083 0.01273 0.0
C2543 C 0.21493 0.52172 0.99439 0.0
H2544 H 0.26088 0.58504 0.95095 0.0
H2545 H 0.31885 0.53922 0.97908 0.0
H2546 H 0.2045 0.57818 0.97572 0.0
H2547 H 0.22046 0.60929 0.98222 0.0
H2548 H 0.21925 0.60127 0.96125 0.0
H2549 H 0.31109 0.52797 0.00576 0.0
H2550 H 0.291 0.55317 0.01636 0.0
H2551 H 0.27531 0.52179 0.01006 0.0
H2552 H 0.22329 0.60538 0.03647 0.0
H2553 H 0.18491 0.53045 0.02087 0.0
H2554 H 0.25726 0.62108 0.00105 0.0
H2555 H 0.28133 0.6021 0.01277 0.0
H2556 H 0.25885 0.62657 0.02228 0.0
H2557 H 0.21067 0.52962 0.98224 0.0
H2558 H 0.19826 0.50724 -0.00221 0.0
H2559 H 0.23458 0.51018 0.99383 0.0
C2560 C 0.15805 0.55622 0.73461 0.0
C2561 C 0.17581 0.55639 0.72146 0.0
C2562 C 0.15774 0.53395 0.74527 0.0
C2563 C 0.17527 0.5112 0.74253 0.0
C2564 C 0.19297 0.51113 0.72915 0.0
C2565 C 0.19319 0.53383 0.71886 0.0
C2566 C 0.13891 0.5349 0.75955 0.0
C2567 C 0.2117 0.48709 0.72571 0.0
C2568 C 0.19567 0.46476 0.77684 0.0
C2569 C 0.17779 0.44241 0.77481 0.0
C2570 C 0.1947 0.48749 0.76659 0.0
C2571 C 0.17569 0.48769 0.75383 0.0
C2572 C 0.15765 0.46515 0.75165 0.0
C2573 C 0.15877 0.44284 0.76226 0.0
C2574 C 0.21403 0.5113 0.76942 0.0
C2575 C 0.13741 0.46447 0.73802 0.0
H2576 H 0.14464 0.57364 0.73669 0.0
H2577 H 0.20681 0.53372 0.70864 0.0
H2578 H 0.12476 0.51702 0.75939 0.0
H2579 H 0.15119 0.5335 0.77066 0.0
H2580 H 0.12647 0.55404 0.75994 0.0
H2581 H 0.22349 0.48984 0.7145 0.0
H2582 H 0.22647 0.48432 0.73566 0.0
H2583 H 0.19948 0.46789 0.7248 0.0
H2584 H 0.21027 0.46467 0.7866 0.0
H2585 H 0.14496 0.42559 0.76061 0.0
H2586 H 0.20216 0.53064 0.77074 0.0
H2587 H 0.22782 0.5139 0.75901 0.0
H2588 H 0.22688 0.50838 0.78023 0.0
H2589 H 0.12353 0.48252 0.73866 0.0
H2590 H 0.12471 0.44548 0.73803 0.0
H2591 H 0.14857 0.46575 0.72652 0.0
C2592 C 0.28087 0.44626 0.52817 0.0
C2593 C 0.30217 0.42698 0.52684 0.0
C2594 C 0.25859 0.446 0.51758 0.0
C2595 C 0.25792 0.42637 0.50514 0.0
C2596 C 0.27948 0.40698 0.50366 0.0
C2597 C 0.30123 0.40732 0.51465 0.0
C2598 C 0.23574 0.4667 0.51971 0.0
C2599 C 0.27972 0.3861 0.49035 0.0
C2600 C 0.18963 0.41104 0.48503 0.0
C2601 C 0.19098 0.42807 0.47158 0.0
C2602 C 0.21126 0.41031 0.49611 0.0
C2603 C 0.23494 0.42662 0.49348 0.0
C2604 C 0.23652 0.44361 0.47983 0.0
C2605 C 0.21442 0.44432 0.46912 0.0
C2606 C 0.20868 0.3923 0.51068 0.0
C2607 C 0.26161 0.46099 0.4765 0.0
H2608 H 0.28138 0.46133 0.53768 0.0
H2609 H 0.31773 0.39246 0.51356 0.0
H2610 H 0.23435 0.4801 0.50905 0.0
H2611 H 0.21574 0.45593 0.5209 0.0
H2612 H 0.23886 0.47989 0.53036 0.0
H2613 H 0.29805 0.3725 0.49084 0.0
H2614 H 0.26098 0.37316 0.49093 0.0
H2615 H 0.27949 0.39679 0.47867 0.0
H2616 H 0.17152 0.39852 0.48701 0.0
H2617 H 0.21568 0.45736 0.45867 0.0
H2618 H 0.21035 0.40504 0.5216 0.0
H2619 H 0.22572 0.37716 0.51101 0.0
H2620 H 0.18885 0.38098 0.51101 0.0
H2621 H 0.26466 0.47605 0.48626 0.0
H2622 H 0.25995 0.47238 0.46507 0.0
H2623 H 0.28021 0.4478 0.47607 0.0
C2624 C 0.35064 0.02161 0.38738 0.0
C2625 C 0.33999 0.00659 0.40026 0.0
C2626 C 0.33388 0.03925 0.37846 0.0
C2627 C 0.30575 0.04181 0.38244 0.0
C2628 C 0.29505 0.02747 0.39574 0.0
C2629 C 0.31234 0.01006 0.40454 0.0
C2630 C 0.34606 0.05442 0.36443 0.0
C2631 C 0.26511 0.0297 0.40031 0.0
C2632 C 0.26512 0.10137 0.36517 0.0
C2633 C 0.2521 0.08884 0.35213 0.0
C2634 C 0.28269 0.08634 0.37517 0.0
C2635 C 0.28721 0.05812 0.37207 0.0
C2636 C 0.27422 0.04537 0.35892 0.0
C2637 C 0.2569 0.0609 0.34908 0.0
C2638 C 0.29638 0.10061 0.38904 0.0
C2639 C 0.27853 0.01526 0.35528 0.0
H2640 H 0.37204 0.01925 0.38407 0.0
H2641 H 0.30395 -0.00144 0.41447 0.0
H2642 H 0.33668 0.04681 0.35322 0.0
H2643 H 0.34142 0.07669 0.36528 0.0
H2644 H 0.3687 0.05174 0.36362 0.0
H2645 H 0.26044 0.01866 0.41158 0.0
H2646 H 0.25919 0.05159 0.40171 0.0
H2647 H 0.25215 0.02096 0.39069 0.0
H2648 H 0.26157 0.12296 0.36761 0.0
H2649 H 0.24687 0.051 0.33908 0.0
H2650 H 0.31904 0.09893 0.38795 0.0
H2651 H 0.29046 0.09045 0.40036 0.0
H2652 H 0.29078 0.12272 0.38977 0.0
H2653 H 0.30066 0.01118 0.35313 0.0
H2654 H 0.26671 0.00843 0.34467 0.0
H2655 H 0.27221 0.0026 0.36564 0.0
C2656 C 0.22302 0.10158 0.63474 0.0
C2657 C 0.23806 0.08985 0.64729 0.0
C2658 C 0.20479 0.08573 0.62564 0.0
C2659 C 0.2017 0.05745 0.62909 0.0
C2660 C 0.2162 0.04563 0.64201 0.0
C2661 C 0.23415 0.06201 0.65101 0.0
C2662 C 0.18944 0.09908 0.61204 0.0
C2663 C 0.21348 0.01548 0.64601 0.0
C2664 C 0.14082 0.01795 0.6125 0.0
C2665 C 0.15262 0.00487 0.59926 0.0
C2666 C 0.15643 0.03547 0.62222 0.0
C2667 C 0.18451 0.03985 0.61865 0.0
C2668 C 0.19645 0.02704 0.60519 0.0
C2669 C 0.18034 0.00978 0.59563 0.0
C2670 C 0.143 0.04902 0.6364 0.0
C2671 C 0.22638 0.03118 0.60104 0.0
H2672 H 0.22575 0.12313 0.63186 0.0
H2673 H 0.24567 0.05277 0.66068 0.0
H2674 H 0.19639 0.09014 0.60056 0.0
H2675 H 0.16709 0.09494 0.61309 0.0
H2676 H 0.19267 0.12168 0.61162 0.0
H2677 H 0.22508 0.00979 0.65692 0.0
H2678 H 0.19154 0.01003 0.64775 0.0
H2679 H 0.22124 0.00291 0.63594 0.0
H2680 H 0.11939 0.01436 0.61537 0.0
H2681 H 0.18967 -0.00025 0.58545 0.0
H2682 H 0.14558 0.07165 0.63571 0.0
H2683 H 0.15314 0.04207 0.64754 0.0
H2684 H 0.12071 0.04425 0.63721 0.0
H2685 H 0.23072 0.05337 0.59933 0.0
H2686 H 0.2324 0.02 0.59004 0.0
H2687 H 0.23952 0.02392 0.611 0.0
C2688 C 0.17862 0.98441 0.90023 0.0
C2689 C 0.15074 0.98941 0.89709 0.0
C2690 C 0.19397 0.96651 0.89068 0.0
C2691 C 0.18106 0.95303 0.87775 0.0
C2692 C 0.15273 0.9572 0.87481 0.0
C2693 C 0.1379 0.97549 0.88447 0.0
C2694 C 0.22422 0.96272 0.89413 0.0
C2695 C 0.13826 0.94284 0.86124 0.0
C2696 C 0.22948 0.93217 0.84462 0.0
C2697 C 0.23506 0.9047 0.84856 0.0
C2698 C 0.21109 0.94785 0.85369 0.0
C2699 C 0.19778 0.93569 0.86692 0.0
C2700 C 0.20232 0.90765 0.87053 0.0
C2701 C 0.22103 0.8925 0.86134 0.0
C2702 C 0.20688 0.97778 0.84955 0.0
C2703 C 0.18819 0.89393 0.88443 0.0
H2704 H 0.18875 0.99505 0.90994 0.0
H2705 H 0.11632 0.97912 0.88202 0.0
H2706 H 0.22896 0.9406 0.89579 0.0
H2707 H 0.23653 0.97007 0.88385 0.0
H2708 H 0.23091 0.97405 0.90494 0.0
H2709 H 0.11575 0.94668 0.8613 0.0
H2710 H 0.14676 0.95008 0.84972 0.0
H2711 H 0.14187 0.92035 0.86189 0.0
H2712 H 0.24015 0.94176 0.83474 0.0
H2713 H 0.22502 0.8712 0.86437 0.0
H2714 H 0.21505 0.99087 0.85928 0.0
H2715 H 0.18465 0.98239 0.84838 0.0
H2716 H 0.21733 0.9836 0.83827 0.0
H2717 H 0.19601 0.90274 0.89575 0.0
H2718 H 0.19171 0.87136 0.88463 0.0
H2719 H 0.16574 0.89784 0.88402 0.0
C2720 C 0.27196 0.93107 0.15176 0.0
C2721 C 0.26659 0.90332 0.14846 0.0
C2722 C 0.29082 0.94602 0.14262 0.0
C2723 C 0.30487 0.93282 0.13 0.0
C2724 C 0.30093 0.9044 0.12727 0.0
C2725 C 0.28166 0.88999 0.13648 0.0
C2726 C 0.29439 0.97637 0.14584 0.0
C2727 C 0.31595 0.88955 0.1141 0.0
C2728 C 0.32184 0.97921 0.09527 0.0
C2729 C 0.34931 0.98613 0.09839 0.0
C2730 C 0.30746 0.96121 0.10524 0.0
C2731 C 0.32096 0.94955 0.11856 0.0
C2732 C 0.34903 0.9554 0.12139 0.0
C2733 C 0.36287 0.97382 0.11131 0.0
C2734 C 0.27745 0.9556 0.10188 0.0
C2735 C 0.36416 0.94291 0.13533 0.0
H2736 H 0.26053 0.9415 0.16104 0.0
H2737 H 0.27791 0.86845 0.134 0.0
H2738 H 0.31651 0.98162 0.14681 0.0
H2739 H 0.28583 0.98836 0.13574 0.0
H2740 H 0.28387 0.98295 0.15695 0.0
H2741 H 0.31369 0.86688 0.11505 0.0
H2742 H 0.30767 0.89617 0.1024 0.0
H2743 H 0.33815 0.89477 0.11429 0.0
H2744 H 0.31118 0.98857 0.08531 0.0
H2745 H 0.38416 0.9789 0.11372 0.0
H2746 H 0.26471 0.96339 0.11187 0.0
H2747 H 0.27379 0.93315 0.10098 0.0
H2748 H 0.27032 0.96548 0.09068 0.0
H2749 H 0.35595 0.95146 0.14661 0.0
H2750 H 0.3866 0.94707 0.13484 0.0
H2751 H 0.36088 0.92035 0.13567 0.0
C2752 C 0.68076 0.98239 0.59774 0.0
C2753 C 0.65277 0.98761 0.60039 0.0
C2754 C 0.69535 0.96402 0.60741 0.0
C2755 C 0.68158 0.95029 0.61995 0.0
C2756 C 0.65315 0.95474 0.62239 0.0
C2757 C 0.63908 0.97349 0.61263 0.0
C2758 C 0.72573 0.95993 0.60448 0.0
C2759 C 0.63777 0.94016 0.63553 0.0
C2760 C 0.72029 0.88887 0.63632 0.0
C2761 C 0.73404 0.90061 0.64936 0.0
C2762 C 0.70196 0.90443 0.62708 0.0
C2763 C 0.6975 0.9324 0.6309 0.0
C2764 C 0.71034 0.94401 0.64445 0.0
C2765 C 0.72836 0.92794 0.65356 0.0
C2766 C 0.68832 0.89127 0.61284 0.0
C2767 C 0.70616 0.97382 0.64887 0.0
H2768 H 0.69154 0.99318 0.58833 0.0
H2769 H 0.61741 0.97727 0.61469 0.0
H2770 H 0.73756 0.96675 0.61507 0.0
H2771 H 0.73026 0.93781 0.60266 0.0
H2772 H 0.73316 0.97155 0.59393 0.0
H2773 H 0.61532 0.9443 0.6351 0.0
H2774 H 0.64112 0.91765 0.63472 0.0
H2775 H 0.64573 0.94692 0.64728 0.0
H2776 H 0.72433 0.86768 0.63308 0.0
H2777 H 0.73878 0.93718 0.66364 0.0
H2778 H 0.69695 0.90013 0.60173 0.0
H2779 H 0.66594 0.89564 0.61285 0.0
H2780 H 0.69139 0.86864 0.61257 0.0
H2781 H 0.71509 0.98717 0.63948 0.0
H2782 H 0.71594 0.97911 0.66043 0.0
H2783 H 0.68392 0.97865 0.64961 0.0
C2784 C 0.7622 0.9285 0.34647 0.0
C2785 C 0.75554 0.90127 0.35039 0.0
C2786 C 0.77989 0.94399 0.35609 0.0
C2787 C 0.79142 0.9319 0.36989 0.0
C2788 C 0.78548 0.90419 0.37369 0.0
C2789 C 0.76749 0.88921 0.36392 0.0
C2790 C 0.78567 0.97356 0.35169 0.0
C2791 C 0.79769 0.89058 0.38823 0.0
C2792 C 0.85273 0.97009 0.38675 0.0
C2793 C 0.8403 0.98621 0.39859 0.0
C2794 C 0.83729 0.95129 0.37778 0.0
C2795 C 0.80874 0.94882 0.38063 0.0
C2796 C 0.79628 0.96423 0.39296 0.0
C2797 C 0.81225 0.98265 0.40186 0.0
C2798 C 0.85132 0.93489 0.36486 0.0
C2799 C 0.76583 0.96223 0.39629 0.0
H2800 H 0.75308 0.93801 0.33606 0.0
H2801 H 0.76258 0.86813 0.36699 0.0
H2802 H 0.77817 0.98736 0.36127 0.0
H2803 H 0.80813 0.97691 0.35055 0.0
H2804 H 0.77565 0.97963 0.34032 0.0
H2805 H 0.79245 0.86838 0.38893 0.0
H2806 H 0.82039 0.89275 0.38815 0.0
H2807 H 0.79003 0.90088 0.39915 0.0
H2808 H 0.87446 0.97251 0.38425 0.0
H2809 H 0.80248 0.99498 0.411 0.0
H2810 H 0.84399 0.94191 0.35302 0.0
H2811 H 0.84604 0.91278 0.36595 0.0
H2812 H 0.87405 0.93709 0.36525 0.0
H2813 H 0.75414 0.97008 0.38588 0.0
H2814 H 0.75968 0.9742 0.40698 0.0
H2815 H 0.75976 0.94047 0.39807 0.0
C2816 C 0.76941 0.10143 0.13528 0.0
C2817 C 0.75491 0.09022 0.1482 0.0
C2818 C 0.78695 0.08511 0.12602 0.0
C2819 C 0.7899 0.05689 0.1297 0.0
C2820 C 0.77576 0.04555 0.14289 0.0
C2821 C 0.75851 0.06239 0.15203 0.0
C2822 C 0.80195 0.09795 0.11213 0.0
C2823 C 0.77835 0.01547 0.14711 0.0
C2824 C 0.81158 0.00822 0.09677 0.0
C2825 C 0.83933 0.00369 0.10049 0.0
C2826 C 0.79531 0.02565 0.10614 0.0
C2827 C 0.80712 0.03901 0.11946 0.0
C2828 C 0.83521 0.03496 0.12312 0.0
C2829 C 0.85097 0.01727 0.11362 0.0
C2830 C 0.76535 0.02943 0.10192 0.0
C2831 C 0.84853 0.04908 0.13716 0.0
H2832 H 0.76688 0.12296 0.1323 0.0
H2833 H 0.74735 0.05355 0.16197 0.0
H2834 H 0.82436 0.09419 0.11321 0.0
H2835 H 0.79505 0.08831 0.10084 0.0
H2836 H 0.79841 0.12047 0.11132 0.0
H2837 H 0.7666 0.01004 0.15801 0.0
H2838 H 0.77073 0.00268 0.13709 0.0
H2839 H 0.80026 0.01005 0.14901 0.0
H2840 H 0.8024 0.99778 0.08668 0.0
H2841 H 0.87242 0.01399 0.11655 0.0
H2842 H 0.76086 0.05153 0.09996 0.0
H2843 H 0.75226 0.02244 0.11196 0.0
H2844 H 0.75942 0.01783 0.09105 0.0
H2845 H 0.84593 0.07168 0.13616 0.0
H2846 H 0.87082 0.04439 0.13809 0.0
H2847 H 0.83833 0.04257 0.14836 0.0
C2848 C 0.64414 0.02175 0.88338 0.0
C2849 C 0.6564 0.00683 0.89581 0.0
C2850 C 0.65951 0.04019 0.87414 0.0
C2851 C 0.68786 0.04357 0.87733 0.0
C2852 C 0.70023 0.0291 0.89009 0.0
C2853 C 0.68432 0.01099 0.89923 0.0
C2854 C 0.64559 0.05553 0.86074 0.0
C2855 C 0.73048 0.0321 0.89377 0.0
C2856 C 0.73503 0.06576 0.84384 0.0
C2857 C 0.74012 0.09333 0.84774 0.0
C2858 C 0.71769 0.04948 0.85324 0.0
C2859 C 0.70497 0.06111 0.86682 0.0
C2860 C 0.70933 0.08911 0.87058 0.0
C2861 C 0.72694 0.10489 0.86102 0.0
C2862 C 0.71356 0.01963 0.84889 0.0
C2863 C 0.69584 0.10223 0.88489 0.0
H2864 H 0.62252 0.01883 0.88074 0.0
H2865 H 0.69395 -0.00046 0.9088 0.0
H2866 H 0.64946 0.07792 0.86187 0.0
H2867 H 0.6543 0.04887 0.84915 0.0
H2868 H 0.62303 0.05201 0.86052 0.0
H2869 H 0.73668 0.02028 0.90451 0.0
H2870 H 0.74281 0.02477 0.88349 0.0
H2871 H 0.7357 0.05405 0.89566 0.0
H2872 H 0.7451 0.05662 0.83361 0.0
H2873 H 0.73065 0.12621 0.86409 0.0
H2874 H 0.69134 0.01516 0.84744 0.0
H2875 H 0.72132 0.0063 0.85863 0.0
H2876 H 0.72433 0.01396 0.83769 0.0
H2877 H 0.67326 0.09914 0.88442 0.0
H2878 H 0.70013 0.12462 0.88566 0.0
H2879 H 0.70335 0.09225 0.89595 0.0
C2880 C 0.8531 0.52009 0.88727 0.0
C2881 C 0.84202 0.50483 0.89993 0.0
C2882 C 0.83656 0.53768 0.87817 0.0
C2883 C 0.80825 0.53994 0.88176 0.0
C2884 C 0.79707 0.52523 0.89478 0.0
C2885 C 0.81413 0.50789 0.90376 0.0
C2886 C 0.84924 0.55327 0.86445 0.0
C2887 C 0.76692 0.52714 0.89892 0.0
C2888 C 0.76788 0.60016 0.86513 0.0
C2889 C 0.75508 0.58821 0.85184 0.0
C2890 C 0.78539 0.58474 0.87495 0.0
C2891 C 0.79009 0.55671 0.87141 0.0
C2892 C 0.77744 0.54458 0.85795 0.0
C2893 C 0.76014 0.56049 0.8483 0.0
C2894 C 0.79873 0.59838 0.88914 0.0
C2895 C 0.78198 0.51469 0.85384 0.0
H2896 H 0.87468 0.51801 0.8843 0.0
H2897 H 0.8054 0.49618 0.91352 0.0
H2898 H 0.84014 0.54614 0.85306 0.0
H2899 H 0.84469 0.57553 0.86554 0.0
H2900 H 0.87189 0.55051 0.86384 0.0
H2901 H 0.76174 0.51543 0.90988 0.0
H2902 H 0.76091 0.54892 0.90067 0.0
H2903 H 0.75441 0.51899 0.88892 0.0
H2904 H 0.76416 0.62159 0.86794 0.0
H2905 H 0.7503 0.55106 0.83808 0.0
H2906 H 0.82141 0.59656 0.88831 0.0
H2907 H 0.79232 0.58785 0.90026 0.0
H2908 H 0.79327 0.62049 0.8901 0.0
H2909 H 0.8042 0.51074 0.85195 0.0
H2910 H 0.77063 0.5084 0.84295 0.0
H2911 H 0.77522 0.50148 0.86388 0.0
C2912 C 0.64024 0.52004 0.11188 0.0
C2913 C 0.65217 0.50709 0.09864 0.0
C2914 C 0.65557 0.538 0.12147 0.0
C2915 C 0.68351 0.54293 0.11777 0.0
C2916 C 0.69547 0.5305 0.1042 0.0
C2917 C 0.67962 0.51282 0.09476 0.0
C2918 C 0.64209 0.55118 0.13575 0.0
C2919 C 0.72526 0.53522 0.09991 0.0
C2920 C 0.72211 0.60391 0.13478 0.0
C2921 C 0.73717 0.59153 0.14712 0.0
C2922 C 0.70382 0.58852 0.12545 0.0
C2923 C 0.70072 0.56008 0.12844 0.0
C2924 C 0.71525 0.54762 0.14114 0.0
C2925 C 0.73322 0.56353 0.15038 0.0
C2926 C 0.68839 0.60254 0.1121 0.0
C2927 C 0.71254 0.51728 0.14464 0.0
H2928 H 0.61898 0.51586 0.11491 0.0
H2929 H 0.68903 0.50292 0.08456 0.0
H2930 H 0.65193 0.54357 0.14684 0.0
H2931 H 0.645 0.57379 0.13542 0.0
H2932 H 0.61973 0.54669 0.13637 0.0
H2933 H 0.73114 0.52479 0.08865 0.0
H2934 H 0.72938 0.55754 0.09865 0.0
H2935 H 0.73867 0.52745 0.10962 0.0
H2936 H 0.72488 0.62559 0.13226 0.0
H2937 H 0.74476 0.5538 0.15988 0.0
H2938 H 0.66606 0.59823 0.11308 0.0
H2939 H 0.69538 0.59427 0.10047 0.0
H2940 H 0.69151 0.62516 0.11211 0.0
H2941 H 0.69063 0.51179 0.14642 0.0
H2942 H 0.72431 0.51103 0.15539 0.0
H2943 H 0.72012 0.50521 0.13432 0.0
C2944 C 0.63607 0.47142 0.3827 0.0
C2945 C 0.6488 0.48358 0.39596 0.0
C2946 C 0.65062 0.45337 0.37275 0.0
C2947 C 0.67856 0.44764 0.37607 0.0
C2948 C 0.69119 0.45906 0.38973 0.0
C2949 C 0.67612 0.47676 0.39955 0.0
C2950 C 0.6364 0.4412 0.3584 0.0
C2951 C 0.72101 0.45351 0.39364 0.0
C2952 C 0.7185 0.38873 0.35778 0.0
C2953 C 0.73381 0.40247 0.34605 0.0
C2954 C 0.69918 0.40286 0.3671 0.0
C2955 C 0.69539 0.43141 0.36474 0.0
C2956 C 0.70985 0.4451 0.35245 0.0
C2957 C 0.72877 0.43043 0.3432 0.0
C2958 C 0.68375 0.38751 0.37992 0.0
C2959 C 0.70647 0.47559 0.34963 0.0
H2960 H 0.61489 0.47639 0.37991 0.0
H2961 H 0.68613 0.48595 0.40978 0.0
H2962 H 0.64525 0.45009 0.34737 0.0
H2963 H 0.6398 0.41866 0.35793 0.0
H2964 H 0.61393 0.44525 0.35847 0.0
H2965 H 0.72735 0.46294 0.40512 0.0
H2966 H 0.7248 0.43106 0.39429 0.0
H2967 H 0.73429 0.46185 0.38404 0.0
H2968 H 0.72204 0.36705 0.35994 0.0
H2969 H 0.74042 0.4412 0.33413 0.0
H2970 H 0.6615 0.39246 0.3794 0.0
H2971 H 0.69135 0.39399 0.3918 0.0
H2972 H 0.68633 0.36489 0.37886 0.0
H2973 H 0.68442 0.48086 0.34827 0.0
H2974 H 0.71769 0.48271 0.33887 0.0
H2975 H 0.71434 0.48711 0.3601 0.0
C2976 C 0.85473 0.4764 0.60966 0.0
C2977 C 0.84282 0.49027 0.59672 0.0
C2978 C 0.83912 0.45857 0.61917 0.0
C2979 C 0.81093 0.45469 0.6157 0.0
C2980 C 0.79895 0.46805 0.60242 0.0
C2981 C 0.81507 0.48561 0.59305 0.0
C2982 C 0.85261 0.44441 0.63315 0.0
C2983 C 0.7689 0.46444 0.59839 0.0
C2984 C 0.77167 0.39406 0.63262 0.0
C2985 C 0.75759 0.40631 0.64537 0.0
C2986 C 0.7897 0.40939 0.62309 0.0
C2987 C 0.79356 0.43765 0.62633 0.0
C2988 C 0.77994 0.45 0.63939 0.0
C2989 C 0.76218 0.43416 0.64879 0.0
C2990 C 0.80411 0.39551 0.60934 0.0
C2991 C 0.78353 0.48015 0.64318 0.0
H2992 H 0.8762 0.47974 0.61252 0.0
H2993 H 0.80569 0.49622 0.58308 0.0
H2994 H 0.84329 0.45182 0.64442 0.0
H2995 H 0.84905 0.42191 0.63253 0.0
H2996 H 0.87511 0.44824 0.63362 0.0
H2997 H 0.76302 0.47545 0.58731 0.0
H2998 H 0.76402 0.44232 0.59693 0.0
H2999 H 0.75605 0.4723 0.60832 0.0
H3000 H 0.76839 0.37251 0.62994 0.0
H3001 H 0.75141 0.4438 0.65861 0.0
H3002 H 0.82662 0.39896 0.61013 0.0
H3003 H 0.79706 0.40462 0.59793 0.0
H3004 H 0.80017 0.37303 0.609 0.0
H3005 H 0.80563 0.48499 0.64483 0.0
H3006 H 0.77222 0.48636 0.65409 0.0
H3007 H 0.77602 0.49276 0.63305 0.0
C3008 C 0.1837 0.48673 0.09804 0.0
C3009 C 0.1559 0.49183 0.10136 0.0
C3010 C 0.19921 0.46891 0.1076 0.0
C3011 C 0.18658 0.45572 0.12072 0.0
C3012 C 0.15843 0.46033 0.12398 0.0
C3013 C 0.14343 0.47841 0.11428 0.0
C3014 C 0.22924 0.46454 0.10379 0.0
C3015 C 0.14426 0.4464 0.1378 0.0
C3016 C 0.22358 0.39269 0.13633 0.0
C3017 C 0.23841 0.40363 0.1492 0.0
C3018 C 0.20588 0.40922 0.12728 0.0
C3019 C 0.20309 0.43738 0.13112 0.0
C3020 C 0.2173 0.44838 0.14439 0.0
C3021 C 0.23473 0.43134 0.15331 0.0
C3022 C 0.19083 0.39673 0.1133 0.0
C3023 C 0.21486 0.47837 0.14881 0.0
H3024 H 0.19354 0.49703 0.08811 0.0
H3025 H 0.12193 0.48215 0.1169 0.0
H3026 H 0.24207 0.47112 0.11403 0.0
H3027 H 0.23334 0.44237 0.10179 0.0
H3028 H 0.23587 0.47613 0.09305 0.0
H3029 H 0.12203 0.45153 0.13842 0.0
H3030 H 0.14646 0.42377 0.1368 0.0
H3031 H 0.15413 0.45266 0.14915 0.0
H3032 H 0.22612 0.37125 0.13313 0.0
H3033 H 0.24609 0.43997 0.16323 0.0
H3034 H 0.19838 0.40602 0.10205 0.0
H3035 H 0.16852 0.40122 0.11412 0.0
H3036 H 0.19368 0.3741 0.1126 0.0
H3037 H 0.22327 0.49128 0.13906 0.0
H3038 H 0.22605 0.48335 0.15998 0.0
H3039 H 0.19294 0.48409 0.15032 0.0
C3040 C 0.35787 0.47026 0.88535 0.0
C3041 C 0.34474 0.48446 0.89776 0.0
C3042 C 0.34343 0.4513 0.87594 0.0
C3043 C 0.31517 0.44674 0.87891 0.0
C3044 C 0.30211 0.46013 0.89182 0.0
C3045 C 0.3171 0.47872 0.90114 0.0
C3046 C 0.35812 0.43702 0.86243 0.0
C3047 C 0.27193 0.45592 0.89529 0.0
C3048 C 0.26779 0.42821 0.84485 0.0
C3049 C 0.26187 0.40055 0.84809 0.0
C3050 C 0.2858 0.4432 0.85453 0.0
C3051 C 0.29849 0.43013 0.86767 0.0
C3052 C 0.29366 0.4019 0.87061 0.0
C3053 C 0.27524 0.38744 0.86082 0.0
C3054 C 0.29032 0.47335 0.85107 0.0
C3055 C 0.30722 0.38722 0.88437 0.0
H3056 H 0.37931 0.47436 0.88277 0.0
H3057 H 0.3068 0.48952 0.91073 0.0
H3058 H 0.35382 0.41463 0.86267 0.0
H3059 H 0.35044 0.44506 0.85089 0.0
H3060 H 0.38072 0.44019 0.86293 0.0
H3061 H 0.26536 0.46642 0.90641 0.0
H3062 H 0.2595 0.46404 0.88525 0.0
H3063 H 0.26725 0.43369 0.89639 0.0
H3064 H 0.25762 0.43853 0.83504 0.0
H3065 H 0.27096 0.366 0.86333 0.0
H3066 H 0.3126 0.47777 0.84996 0.0
H3067 H 0.28237 0.48587 0.86111 0.0
H3068 H 0.27989 0.48008 0.83996 0.0
H3069 H 0.32969 0.39109 0.88433 0.0
H3070 H 0.30363 0.36467 0.88401 0.0
H3071 H 0.29901 0.3953 0.89577 0.0
C3072 C 0.26334 0.56828 0.65078 0.0
C3073 C 0.2585 0.59621 0.6477 0.0
C3074 C 0.28157 0.55306 0.64137 0.0
C3075 C 0.29554 0.56613 0.62867 0.0
C3076 C 0.29168 0.59455 0.6259 0.0
C3077 C 0.27307 0.60926 0.6354 0.0
C3078 C 0.28507 0.52271 0.64464 0.0
C3079 C 0.30654 0.60922 0.61259 0.0
C3080 C 0.35557 0.52581 0.61187 0.0
C3081 C 0.34316 0.51237 0.59894 0.0
C3082 C 0.34067 0.54443 0.62127 0.0
C3083 C 0.31269 0.54946 0.61772 0.0
C3084 C 0.30037 0.5368 0.60432 0.0
C3085 C 0.31579 0.51851 0.59505 0.0
C3086 C 0.35456 0.55788 0.63534 0.0
C3087 C 0.27052 0.5416 0.6002 0.0
H3088 H 0.25222 0.55802 0.66026 0.0
H3089 H 0.26962 0.63089 0.63303 0.0
H3090 H 0.27753 0.51067 0.6343 0.0
H3091 H 0.30714 0.51769 0.64624 0.0
H3092 H 0.27369 0.51597 0.65543 0.0
H3093 H 0.30327 0.63181 0.61296 0.0
H3094 H 0.32893 0.60501 0.61323 0.0
H3095 H 0.29917 0.60141 0.60093 0.0
H3096 H 0.37679 0.52139 0.61487 0.0
H3097 H 0.30604 0.50831 0.58506 0.0
H3098 H 0.34569 0.54972 0.64656 0.0
H3099 H 0.35087 0.58039 0.63522 0.0
H3100 H 0.37708 0.55413 0.63547 0.0
H3101 H 0.25728 0.53342 0.60986 0.0
H3102 H 0.26454 0.53152 0.58884 0.0
H3103 H 0.26628 0.56394 0.5992 0.0
C3104 C 0.22617 0.60594 0.36033 0.0
C3105 C 0.23925 0.59419 0.34708 0.0
C3106 C 0.20812 0.59046 0.36979 0.0
C3107 C 0.20328 0.56254 0.36597 0.0
C3108 C 0.21578 0.5508 0.35236 0.0
C3109 C 0.23351 0.5668 0.34305 0.0
C3110 C 0.19485 0.60371 0.38412 0.0
C3111 C 0.21122 0.52104 0.34796 0.0
C3112 C 0.18414 0.51234 0.39859 0.0
C3113 C 0.15615 0.50789 0.39551 0.0
C3114 C 0.19955 0.5306 0.38928 0.0
C3115 C 0.18658 0.54499 0.3767 0.0
C3116 C 0.15815 0.54135 0.37386 0.0
C3117 C 0.14327 0.5227 0.38325 0.0
C3118 C 0.22991 0.5338 0.39258 0.0
C3119 C 0.1436 0.55665 0.36067 0.0
H3120 H 0.23032 0.62715 0.36347 0.0
H3121 H 0.24347 0.55752 0.33282 0.0
H3122 H 0.1723 0.60033 0.3839 0.0
H3123 H 0.20283 0.59408 0.39517 0.0
H3124 H 0.1989 0.62617 0.38469 0.0
H3125 H 0.22146 0.51542 0.33658 0.0
H3126 H 0.21933 0.50756 0.35753 0.0
H3127 H 0.18891 0.51672 0.34683 0.0
H3128 H 0.19427 0.50099 0.40803 0.0
H3129 H 0.1216 0.51954 0.38088 0.0
H3130 H 0.23505 0.55577 0.39446 0.0
H3131 H 0.2419 0.52663 0.38213 0.0
H3132 H 0.23661 0.52195 0.40321 0.0
H3133 H 0.14755 0.57905 0.36169 0.0
H3134 H 0.12104 0.55314 0.36081 0.0
H3135 H 0.15175 0.54993 0.34895 0.0
C3136 C 0.28107 0.26025 0.21658 0.0
C3137 C 0.26957 0.28662 0.21609 0.0
C3138 C 0.27332 0.2414 0.22842 0.0
C3139 C 0.25366 0.24924 0.23999 0.0
C3140 C 0.24186 0.27584 0.23945 0.0
C3141 C 0.24993 0.2942 0.22745 0.0
C3142 C 0.28631 0.21322 0.22861 0.0
C3143 C 0.22081 0.28492 0.25157 0.0
C3144 C 0.21487 0.19458 0.26317 0.0
C3145 C 0.22892 0.19478 0.27773 0.0
C3146 C 0.22298 0.2119 0.25066 0.0
C3147 C 0.24562 0.22981 0.25283 0.0
C3148 C 0.26012 0.22973 0.26746 0.0
C3149 C 0.25161 0.21212 0.27973 0.0
C3150 C 0.20705 0.21137 0.23522 0.0
C3151 C 0.2844 0.24848 0.27021 0.0
H3152 H 0.29638 0.25451 0.20781 0.0
H3153 H 0.24074 0.31448 0.22688 0.0
H3154 H 0.2976 0.21013 0.23996 0.0
H3155 H 0.27014 0.19716 0.22799 0.0
H3156 H 0.30082 0.21016 0.21855 0.0
H3157 H 0.21356 0.30626 0.24943 0.0
H3158 H 0.20281 0.27092 0.25129 0.0
H3159 H 0.22971 0.28378 0.26372 0.0
H3160 H 0.19722 0.18121 0.26169 0.0
H3161 H 0.26269 0.21192 0.29094 0.0
H3162 H 0.22113 0.20731 0.22509 0.0
H3163 H 0.19745 0.23174 0.2331 0.0
H3164 H 0.19065 0.19548 0.23523 0.0
H3165 H 0.30031 0.24484 0.26099 0.0
H3166 H 0.29382 0.24544 0.28214 0.0
H3167 H 0.27783 0.27024 0.26914 0.0
C3168 C 0.04258 0.96723 0.51286 0.0
C3169 C 0.04273 0.98022 0.52774 0.0
C3170 C 0.02498 0.97621 0.50068 0.0
C3171 C 0.00686 -0.00157 0.5036 0.0
C3172 C 0.00699 0.01164 0.51862 0.0
C3173 C 0.02513 0.00251 0.53047 0.0
C3174 C 0.02564 0.96182 0.48475 0.0
C3175 C 0.9878 0.03523 0.52221 0.0
C3176 C 0.97649 0.03691 0.46839 0.0
C3177 C 0.95067 0.02444 0.46701 0.0
C3178 C 0.9951 0.02857 0.48022 0.0
C3179 C 0.98743 0.00756 0.49102 0.0
C3180 C 0.96118 0.99516 0.48977 0.0
C3181 C 0.94319 0.00361 0.47767 0.0
C3182 C 0.02301 0.04205 0.48107 0.0
C3183 C 0.95217 0.9729 0.50117 0.0
H3184 H 0.05607 0.94985 0.51081 0.0
H3185 H 0.02557 0.01281 0.54192 0.0
H3186 H 0.00538 0.95225 0.48231 0.0
H3187 H 0.02957 0.97694 0.47511 0.0
H3188 H 0.04169 0.94561 0.48422 0.0
H3189 H 0.9904 0.04317 0.53453 0.0
H3190 H 0.99144 0.05232 0.51372 0.0
H3191 H 0.96616 0.02852 0.52066 0.0
H3192 H 0.98215 0.05311 0.46015 0.0
H3193 H 0.92334 0.99371 0.47643 0.0
H3194 H 0.03936 0.0263 0.4798 0.0
H3195 H 0.02584 0.05191 0.49288 0.0
H3196 H 0.02587 0.05787 0.47167 0.0
H3197 H 0.96608 0.95492 0.50017 0.0
H3198 H 0.93077 0.96597 0.49887 0.0
H3199 H 0.95352 0.98046 0.51362 0.0
C3200 C 0.24702 0.80152 0.76927 0.0
C3201 C 0.26809 0.79419 0.7798 0.0
C3202 C 0.23828 0.78334 0.75733 0.0
C3203 C 0.25066 0.75708 0.75612 0.0
C3204 C 0.2717 0.74945 0.76691 0.0
C3205 C 0.28025 0.7682 0.7786 0.0
C3206 C 0.21589 0.79225 0.74599 0.0
C3207 C 0.28523 0.72155 0.76607 0.0
C3208 C 0.21144 0.7017 0.73375 0.0
C3209 C 0.22462 0.7021 0.71893 0.0
C3210 C 0.21991 0.71927 0.74607 0.0
C3211 C 0.24189 0.73778 0.74338 0.0
C3212 C 0.25536 0.73812 0.72844 0.0
C3213 C 0.24668 0.72009 0.71643 0.0
C3214 C 0.20525 0.71815 0.76191 0.0
C3215 C 0.2788 0.75764 0.7251 0.0
H3216 H 0.23725 0.82145 0.77043 0.0
H3217 H 0.29658 0.7626 0.78677 0.0
H3218 H 0.22357 0.79145 0.73355 0.0
H3219 H 0.19819 0.77795 0.74679 0.0
H3220 H 0.20852 0.81343 0.74849 0.0
H3221 H 0.30072 0.71855 0.77564 0.0
H3222 H 0.26947 0.70515 0.76706 0.0
H3223 H 0.2955 0.71897 0.75437 0.0
H3224 H 0.19431 0.68783 0.73564 0.0
H3225 H 0.2572 0.72002 0.70505 0.0
H3226 H 0.1955 0.7383 0.76444 0.0
H3227 H 0.22022 0.71411 0.77161 0.0
H3228 H 0.18914 0.70198 0.76222 0.0
H3229 H 0.27183 0.77917 0.72676 0.0
H3230 H 0.28696 0.75538 0.71281 0.0
H3231 H 0.29578 0.754 0.73367 0.0
C3232 C 0.4498 0.0359 0.01008 0.0
C3233 C 0.45198 0.02399 0.02521 0.0
C3234 C 0.46747 0.02789 0.99769 0.0
C3235 C 0.48766 0.00751 0.00059 0.0
C3236 C 0.48982 0.99539 0.01587 0.0
C3237 C 0.47189 0.00377 0.02799 0.0
C3238 C 0.46461 0.04126 0.98155 0.0
C3239 C 0.51099 0.97351 0.0194 0.0
C3240 C 0.51814 0.96737 0.96609 0.0
C3241 C 0.54371 0.98018 0.96431 0.0
C3242 C 0.49945 0.97636 0.9777 0.0
C3243 C 0.5066 -0.00129 0.98768 0.0
C3244 C 0.5323 0.01196 0.98573 0.0
C3245 C 0.55056 0.00254 0.97401 0.0
C3246 C 0.47227 0.96168 0.97944 0.0
C3247 C 0.5406 0.03589 0.99612 0.0
H3248 H 0.43446 0.05166 0.008 0.0
H3249 H 0.47322 0.99421 0.03963 0.0
H3250 H 0.48413 0.0516 0.97826 0.0
H3251 H 0.46052 0.0254 0.97235 0.0
H3252 H 0.44775 0.05665 0.98123 0.0
H3253 H 0.51004 0.96629 0.03195 0.0
H3254 H 0.50783 0.95561 0.01142 0.0
H3255 H 0.53192 0.98158 0.01705 0.0
H3256 H 0.51292 0.95008 0.95852 0.0
H3257 H 0.5702 0.01269 0.97238 0.0
H3258 H 0.45508 0.97656 0.97837 0.0
H3259 H 0.47085 0.95224 0.99145 0.0
H3260 H 0.46947 0.94531 0.97036 0.0
H3261 H 0.52505 0.05251 0.99528 0.0
H3262 H 0.56098 0.04441 0.99276 0.0
H3263 H 0.54142 0.02928 0.00877 0.0
C3264 C 0.24678 0.80526 0.22721 0.0
C3265 C 0.22448 0.79821 0.2175 0.0
C3266 C 0.25593 0.78739 0.2392 0.0
C3267 C 0.24265 0.76175 0.2413 0.0
C3268 C 0.22006 0.75459 0.23151 0.0
C3269 C 0.21113 0.77303 0.21976 0.0
C3270 C 0.27991 0.79584 0.24953 0.0
C3271 C 0.20551 0.72735 0.23334 0.0
C3272 C 0.28215 0.70483 0.26214 0.0
C3273 C 0.27067 0.70564 0.27742 0.0
C3274 C 0.27313 0.72291 0.25021 0.0
C3275 C 0.2524 0.74241 0.25377 0.0
C3276 C 0.24091 0.74342 0.26924 0.0
C3277 C 0.25007 0.72487 0.28085 0.0
C3278 C 0.2857 0.72113 0.2338 0.0
C3279 C 0.21891 0.76404 0.27351 0.0
H3280 H 0.25731 0.82461 0.22527 0.0
H3281 H 0.19385 0.76771 0.21221 0.0
H3282 H 0.27385 0.79532 0.26227 0.0
H3283 H 0.29709 0.78109 0.248 0.0
H3284 H 0.28746 0.81681 0.24662 0.0
H3285 H 0.18838 0.72489 0.2247 0.0
H3286 H 0.22031 0.71026 0.2316 0.0
H3287 H 0.19713 0.72539 0.24558 0.0
H3288 H 0.29829 0.69013 0.25956 0.0
H3289 H 0.24085 0.72518 0.2926 0.0
H3290 H 0.29561 0.74095 0.23069 0.0
H3291 H 0.26942 0.7173 0.22481 0.0
H3292 H 0.3013 0.70452 0.23291 0.0
H3293 H 0.22641 0.78521 0.2712 0.0
H3294 H 0.2126 0.76254 0.2862 0.0
H3295 H 0.20053 0.76081 0.26591 0.0
C3296 C 0.55288 0.03534 0.51121 0.0
C3297 C 0.55109 0.02219 0.52601 0.0
C3298 C 0.53571 0.02751 0.49855 0.0
C3299 C 0.51651 0.00596 0.50081 0.0
C3300 C 0.51497 0.99241 0.51571 0.0
C3301 C 0.53227 0.00074 0.52814 0.0
C3302 C 0.53782 0.04251 0.48285 0.0
C3303 C 0.49493 0.9692 0.51855 0.0
C3304 C 0.45268 0.00087 0.47505 0.0
C3305 C 0.45991 0.97974 0.46455 0.0
C3306 C 0.47122 0.01013 0.48666 0.0
C3307 C 0.49754 0.99785 0.48776 0.0
C3308 C 0.50512 0.97686 0.47693 0.0
C3309 C 0.48618 0.9681 0.46539 0.0
C3310 C 0.46247 0.03269 0.49792 0.0
C3311 C 0.53295 0.9632 0.47779 0.0
H3312 H 0.5674 0.05203 0.50965 0.0
H3313 H 0.53126 0.9903 0.53954 0.0
H3314 H 0.54202 0.02771 0.4731 0.0
H3315 H 0.51797 0.05267 0.48009 0.0
H3316 H 0.55429 0.05833 0.48292 0.0
H3317 H 0.49673 0.96046 0.53073 0.0
H3318 H 0.47358 0.97664 0.51683 0.0
H3319 H 0.49846 0.95253 0.50977 0.0
H3320 H 0.43246 0.01013 0.47418 0.0
H3321 H 0.49166 0.95172 0.45723 0.0
H3322 H 0.47755 0.04979 0.49762 0.0
H3323 H 0.46202 0.0247 0.5103 0.0
H3324 H 0.44181 0.04098 0.49497 0.0
H3325 H 0.54948 0.97887 0.47727 0.0
H3326 H 0.53614 0.9482 0.46799 0.0
H3327 H 0.53508 0.95227 0.48933 0.0
C3328 C 0.24722 0.27822 0.77837 0.0
C3329 C 0.2252 0.29635 0.77613 0.0
C3330 C 0.25548 0.26028 0.76622 0.0
C3331 C 0.24151 0.26073 0.75143 0.0
C3332 C 0.2195 0.27933 0.74902 0.0
C3333 C 0.21156 0.29692 0.76145 0.0
C3334 C 0.27904 0.24075 0.76924 0.0
C3335 C 0.20423 0.28049 0.73337 0.0
C3336 C 0.27898 0.2303 0.7159 0.0
C3337 C 0.26719 0.2041 0.715 0.0
C3338 C 0.2705 0.24916 0.72755 0.0
C3339 C 0.24984 0.24149 0.73856 0.0
C3340 C 0.23766 0.2151 0.73757 0.0
C3341 C 0.2464 0.19676 0.72572 0.0
C3342 C 0.28387 0.27715 0.72818 0.0
C3343 C 0.2156 0.20617 0.74911 0.0
H3344 H 0.25806 0.27815 0.78966 0.0
H3345 H 0.19446 0.31093 0.75977 0.0
H3346 H 0.27201 0.21922 0.76768 0.0
H3347 H 0.29567 0.24439 0.76045 0.0
H3348 H 0.28771 0.243 0.78142 0.0
H3349 H 0.18803 0.29659 0.7333 0.0
H3350 H 0.2188 0.28467 0.7235 0.0
H3351 H 0.19448 0.26032 0.73091 0.0
H3352 H 0.29508 0.23591 0.70758 0.0
H3353 H 0.23694 0.17664 0.7248 0.0
H3354 H 0.29471 0.27975 0.73972 0.0
H3355 H 0.26798 0.29347 0.72747 0.0
H3356 H 0.29887 0.28027 0.71837 0.0
H3357 H 0.22374 0.2067 0.76146 0.0
H3358 H 0.20798 0.18509 0.74658 0.0
H3359 H 0.19798 0.22062 0.7486 0.0
C3360 C 0.94518 0.00326 0.02057 0.0
C3361 C 0.95236 0.98145 0.03062 0.0
C3362 C 0.96341 0.01259 0.0088 0.0
C3363 C 0.98943 -0.00017 0.00716 0.0
C3364 C 0.9969 0.97805 0.01748 0.0
C3365 C 0.97822 0.9691 0.0291 0.0
C3366 C 0.95474 0.03587 -0.00199 0.0
C3367 C 0.02444 0.96393 0.0161 0.0
C3368 C 0.02498 0.00383 0.96705 0.0
C3369 C 0.04439 0.02459 0.96966 0.0
C3370 C 0.0069 0.99566 0.97915 0.0
C3371 C 0.00841 0.00853 0.99424 0.0
C3372 C 0.02809 0.02947 0.99697 0.0
C3373 C 0.04589 0.03728 0.9846 0.0
C3374 C 0.98627 0.97319 0.97579 0.0
C3375 C 0.03029 0.04362 0.01292 0.0
H3376 H 0.92532 0.01307 0.02197 0.0
H3377 H 0.98368 0.9522 0.0369 0.0
H3378 H 0.96987 0.0529 -0.00127 0.0
H3379 H 0.95435 0.02873 0.98546 0.0
H3380 H 0.93409 0.04402 0.00111 0.0
H3381 H 0.02746 0.94803 0.02544 0.0
H3382 H 0.02627 0.95401 0.00425 0.0
H3383 H 0.04126 0.97925 0.01704 0.0
H3384 H 0.02415 0.9937 0.95556 0.0
H3385 H 0.0608 0.0535 0.98655 0.0
H3386 H 0.96512 0.9809 0.97792 0.0
H3387 H 0.98967 0.95568 0.98403 0.0
H3388 H 0.98759 0.96552 0.96335 0.0
H3389 H 0.01047 0.05364 0.01592 0.0
H3390 H 0.04678 0.05941 0.01312 0.0
H3391 H 0.03455 0.02827 0.02238 0.0
C3392 C 0.75105 0.76972 0.71464 0.0
C3393 C 0.77255 0.78836 0.71715 0.0
C3394 C 0.74316 0.75118 0.72658 0.0
C3395 C 0.75668 0.75185 0.74151 0.0
C3396 C 0.77834 0.77076 0.74413 0.0
C3397 C 0.7862 0.78862 0.73183 0.0
C3398 C 0.72024 0.73104 0.72327 0.0
C3399 C 0.79296 0.77234 0.75998 0.0
C3400 C 0.718 0.72296 0.777 0.0
C3401 C 0.7308 0.69743 0.779 0.0
C3402 C 0.72645 0.74104 0.76494 0.0
C3403 C 0.74782 0.73306 0.75447 0.0
C3404 C 0.76063 0.70713 0.75636 0.0
C3405 C 0.75215 0.68973 0.76875 0.0
C3406 C 0.71259 0.7687 0.76345 0.0
C3407 C 0.7832 0.69775 0.74528 0.0
H3408 H 0.74019 0.76982 0.70336 0.0
H3409 H 0.803 0.80291 0.73371 0.0
H3410 H 0.72738 0.70975 0.72559 0.0
H3411 H 0.70272 0.73505 0.73139 0.0
H3412 H 0.71276 0.7323 0.71078 0.0
H3413 H 0.80919 0.7884 0.76012 0.0
H3414 H 0.77794 0.77689 0.76957 0.0
H3415 H 0.80253 0.75223 0.76283 0.0
H3416 H 0.70135 0.72878 0.78489 0.0
H3417 H 0.76229 0.67011 0.77047 0.0
H3418 H 0.7025 0.77048 0.75164 0.0
H3419 H 0.72813 0.78534 0.76423 0.0
H3420 H 0.69687 0.77206 0.77285 0.0
H3421 H 0.77574 0.69807 0.73279 0.0
H3422 H 0.79051 0.67668 0.74812 0.0
H3423 H 0.8009 0.71207 0.746 0.0
C3424 C 0.75801 0.30843 0.26374 0.0
C3425 C 0.7782 0.30034 0.27467 0.0
C3426 C 0.74989 0.2909 0.25135 0.0
C3427 C 0.76168 0.26437 0.25021 0.0
C3428 C 0.78229 0.25621 0.26115 0.0
C3429 C 0.79058 0.2745 0.27313 0.0
C3430 C 0.72829 0.30053 0.2397 0.0
C3431 C 0.79495 0.22789 0.26051 0.0
C3432 C 0.71889 0.20967 0.22972 0.0
C3433 C 0.73209 0.20748 0.21496 0.0
C3434 C 0.72857 0.22785 0.24139 0.0
C3435 C 0.75157 0.24471 0.23802 0.0
C3436 C 0.76483 0.24275 0.22306 0.0
C3437 C 0.75518 0.22378 0.21179 0.0
C3438 C 0.71426 0.22892 0.25735 0.0
C3439 C 0.78907 0.26078 0.21894 0.0
H3440 H 0.74813 0.32827 0.26509 0.0
H3441 H 0.80634 0.26838 0.28155 0.0
H3442 H 0.73558 0.29759 0.22729 0.0
H3443 H 0.70935 0.28808 0.24114 0.0
H3444 H 0.72294 0.32254 0.24141 0.0
H3445 H 0.81105 0.22496 0.26974 0.0
H3446 H 0.77875 0.21212 0.26227 0.0
H3447 H 0.8042 0.2242 0.24863 0.0
H3448 H 0.70095 0.19712 0.23212 0.0
H3449 H 0.76572 0.22166 0.20048 0.0
H3450 H 0.70559 0.24973 0.25934 0.0
H3451 H 0.72926 0.22498 0.26705 0.0
H3452 H 0.69736 0.21365 0.25827 0.0
H3453 H 0.78337 0.28274 0.22029 0.0
H3454 H 0.79643 0.25737 0.20656 0.0
H3455 H 0.8063 0.25671 0.22727 0.0
C3456 C 0.78501 0.20483 0.76263 0.0
C3457 C 0.7727 0.20599 0.77769 0.0
C3458 C 0.7768 0.22277 0.75044 0.0
C3459 C 0.75612 0.24255 0.75352 0.0
C3460 C 0.74397 0.24408 0.76881 0.0
C3461 C 0.75228 0.22561 0.78068 0.0
C3462 C 0.79006 0.22041 0.73423 0.0
C3463 C 0.72202 0.26505 0.77258 0.0
C3464 C 0.75117 0.30459 0.72628 0.0
C3465 C 0.72891 0.29736 0.71658 0.0
C3466 C 0.76021 0.28698 0.73843 0.0
C3467 C 0.74687 0.26141 0.7407 0.0
C3468 C 0.72447 0.25396 0.73082 0.0
C3469 C 0.71564 0.27217 0.71892 0.0
C3470 C 0.78397 0.29572 0.74883 0.0
C3471 C 0.7099 0.22677 0.7328 0.0
H3472 H 0.80106 0.18986 0.7604 0.0
H3473 H 0.74248 0.22626 0.79227 0.0
H3474 H 0.77416 0.21615 0.72508 0.0
H3475 H 0.80002 0.24015 0.73099 0.0
H3476 H 0.80575 0.20383 0.73378 0.0
H3477 H 0.71541 0.26418 0.78524 0.0
H3478 H 0.72972 0.28605 0.76999 0.0
H3479 H 0.7038 0.26156 0.7649 0.0
H3480 H 0.76163 0.32397 0.72427 0.0
H3481 H 0.69835 0.26672 0.7114 0.0
H3482 H 0.80105 0.28072 0.74777 0.0
H3483 H 0.77751 0.29595 0.76151 0.0
H3484 H 0.79183 0.31645 0.74564 0.0
H3485 H 0.72481 0.20964 0.73161 0.0
H3486 H 0.69325 0.22387 0.7239 0.0
H3487 H 0.70085 0.22538 0.7449 0.0
C3488 C 0.71366 0.79196 0.26461 0.0
C3489 C 0.72712 0.79172 0.27936 0.0
C3490 C 0.72213 0.77456 0.25224 0.0
C3491 C 0.74421 0.75614 0.25483 0.0
C3492 C 0.75774 0.7557 0.26977 0.0
C3493 C 0.74923 0.7738 0.2818 0.0
C3494 C 0.7075 0.77593 0.23638 0.0
C3495 C 0.7811 0.73607 0.27305 0.0
C3496 C 0.74855 0.69372 0.22788 0.0
C3497 C 0.76961 0.70137 0.21743 0.0
C3498 C 0.74033 0.7112 0.24027 0.0
C3499 C 0.75306 0.73721 0.24194 0.0
C3500 C 0.77413 0.74517 0.23126 0.0
C3501 C 0.78235 0.72699 0.2192 0.0
C3502 C 0.71806 0.70184 0.25157 0.0
C3503 C 0.78784 0.77293 0.23251 0.0
H3504 H 0.69647 0.80578 0.26278 0.0
H3505 H 0.75995 0.77401 0.29312 0.0
H3506 H 0.7225 0.78025 0.22674 0.0
H3507 H 0.69784 0.75582 0.23368 0.0
H3508 H 0.69132 0.79205 0.23616 0.0
H3509 H 0.78895 0.73785 0.28544 0.0
H3510 H 0.77422 0.7146 0.27103 0.0
H3511 H 0.7983 0.74007 0.26469 0.0
H3512 H 0.73842 0.67405 0.22632 0.0
H3513 H 0.79873 0.73279 0.21112 0.0
H3514 H 0.70019 0.71594 0.25082 0.0
H3515 H 0.72571 0.70254 0.26402 0.0
H3516 H 0.71092 0.68062 0.24895 0.0
H3517 H 0.77219 0.78946 0.23166 0.0
H3518 H 0.80344 0.77618 0.22303 0.0
H3519 H 0.79802 0.77503 0.24427 0.0
C3520 C 0.45236 0.53458 0.98159 0.0
C3521 C 0.45239 0.52142 0.96676 0.0
C3522 C 0.46975 0.52567 0.99388 0.0
C3523 C 0.48783 0.50335 0.99113 0.0
C3524 C 0.48802 0.49011 0.97612 0.0
C3525 C 0.47008 0.49917 0.96415 0.0
C3526 C 0.46876 0.54007 0.0098 0.0
C3527 C 0.5072 0.46643 0.97269 0.0
C3528 C 0.55055 0.49685 0.01771 0.0
C3529 C 0.54246 0.47589 0.02814 0.0
C3530 C 0.53303 0.50587 0.00552 0.0
C3531 C 0.50665 0.4939 0.00394 0.0
C3532 C 0.49833 0.47281 0.01452 0.0
C3533 C 0.51648 0.46388 0.02643 0.0
C3534 C 0.54274 0.52818 0.99435 0.0
C3535 C 0.47025 0.45975 0.01328 0.0
H3536 H 0.43874 0.55189 0.98354 0.0
H3537 H 0.46975 0.48871 0.95275 0.0
H3538 H 0.46407 0.52504 0.01937 0.0
H3539 H 0.48913 0.54917 0.01255 0.0
H3540 H 0.45307 0.55665 0.01011 0.0
H3541 H 0.50518 0.45878 0.96028 0.0
H3542 H 0.52881 0.47288 0.97468 0.0
H3543 H 0.50293 0.4492 0.98099 0.0
H3544 H 0.57054 0.50636 0.01918 0.0
H3545 H 0.51038 0.44748 0.03443 0.0
H3546 H 0.52893 0.54627 0.99519 0.0
H3547 H 0.54188 0.52075 0.98186 0.0
H3548 H 0.56408 0.5349 0.99699 0.0
H3549 H 0.45409 0.47576 0.01427 0.0
H3550 H 0.46674 0.44405 0.02268 0.0
H3551 H 0.46781 0.44984 0.00147 0.0
C3552 C 0.04673 0.46673 0.48066 0.0
C3553 C 0.04728 0.48 0.46586 0.0
C3554 C 0.02884 0.47553 0.49273 0.0
C3555 C 0.01084 0.49783 0.48977 0.0
C3556 C 0.01149 0.51142 0.47486 0.0
C3557 C 0.03001 0.50254 0.46315 0.0
C3558 C 0.02906 0.46086 0.50858 0.0
C3559 C 0.99241 0.53508 0.47122 0.0
C3560 C 0.94659 0.5022 0.51524 0.0
C3561 C 0.95376 0.52285 0.52608 0.0
C3562 C 0.96484 0.49415 0.50318 0.0
C3563 C 0.99104 0.5067 0.50221 0.0
C3564 C -0.00162 0.52755 0.51317 0.0
C3565 C 0.97948 0.53558 0.52489 0.0
C3566 C 0.95614 0.47213 0.49155 0.0
C3567 C 0.02628 0.54113 0.51264 0.0
H3568 H 0.06012 0.44928 0.48273 0.0
H3569 H 0.03092 0.51318 0.45181 0.0
H3570 H 0.03261 0.47582 0.51835 0.0
H3571 H 0.00878 0.45114 0.51074 0.0
H3572 H 0.04518 0.44471 0.50919 0.0
H3573 H 0.99535 0.54324 0.45897 0.0
H3574 H 0.97073 0.52835 0.47252 0.0
H3575 H 0.9958 0.55202 0.47984 0.0
H3576 H 0.9268 0.49212 0.5163 0.0
H3577 H 0.98487 0.55173 0.53323 0.0
H3578 H 0.96996 0.45408 0.49261 0.0
H3579 H 0.95794 0.4799 0.47916 0.0
H3580 H 0.93465 0.46522 0.49356 0.0
H3581 H 0.04263 0.52539 0.51396 0.0
H3582 H 0.02886 0.55677 0.52217 0.0
H3583 H 0.02938 0.55123 0.50093 0.0
C3584 C 0.04769 0.53518 0.01463 0.0
C3585 C 0.04832 0.52043 0.02895 0.0
C3586 C 0.03061 0.52691 0.00206 0.0
C3587 C 0.01367 0.50347 0.00397 0.0
C3588 C 0.01431 0.48849 0.01843 0.0
C3589 C 0.03176 0.49712 0.03074 0.0
C3590 C 0.03055 0.5433 0.98678 0.0
C3591 C 0.99646 0.46346 0.02092 0.0
C3592 C 0.95002 0.49671 0.9782 0.0
C3593 C 0.95857 0.47738 0.96689 0.0
C3594 C 0.96782 0.50549 0.99031 0.0
C3595 C 0.99488 0.49486 0.99096 0.0
C3596 C 0.00377 0.47568 0.97937 0.0
C3597 C 0.98542 0.46709 0.96747 0.0
C3598 C 0.95759 0.52594 0.00247 0.0
C3599 C 0.03253 0.46403 0.97964 0.0
H3600 H 0.06046 0.55332 0.01334 0.0
H3601 H 0.03257 0.48557 0.04178 0.0
H3602 H 0.03563 0.52975 0.97656 0.0
H3603 H 0.00974 0.55181 0.98458 0.0
H3604 H 0.04551 0.56056 0.98707 0.0
H3605 H -0.00053 0.4541 0.03287 0.0
H3606 H 0.97449 0.46912 0.01959 0.0
H3607 H 0.0011 0.44777 0.01172 0.0
H3608 H 0.92937 0.50501 0.97756 0.0
H3609 H 0.99194 0.45202 0.95874 0.0
H3610 H 0.9708 0.54453 0.0024 0.0
H3611 H 0.95887 0.51688 0.01459 0.0
H3612 H 0.936 0.5323 0.00022 0.0
H3613 H 0.04782 0.48094 0.97933 0.0
H3614 H 0.03649 0.45002 0.96945 0.0
H3615 H 0.03589 0.4525 0.99088 0.0
C3616 C 0.54511 0.52779 0.48319 0.0
C3617 C 0.54372 0.51589 0.46803 0.0
C3618 C 0.52733 0.51928 0.4954 0.0
C3619 C 0.50754 0.49863 0.49226 0.0
C3620 C 0.5062 0.48643 0.47697 0.0
C3621 C 0.52451 0.49505 0.46508 0.0
C3622 C 0.52956 0.53253 0.51162 0.0
C3623 C 0.48528 0.46447 0.47314 0.0
C3624 C 0.47568 0.4598 0.52688 0.0
C3625 C 0.45074 0.47377 0.5288 0.0
C3626 C 0.49449 0.46778 0.51509 0.0
C3627 C 0.48794 0.49002 0.50488 0.0
C3628 C 0.4626 0.50399 0.50669 0.0
C3629 C 0.44437 0.49581 0.51874 0.0
C3630 C 0.52141 0.45255 0.51362 0.0
C3631 C 0.45478 0.52763 0.49594 0.0
H3632 H 0.55989 0.54401 0.48544 0.0
H3633 H 0.5238 0.48544 0.45344 0.0
H3634 H 0.51012 0.54334 0.51452 0.0
H3635 H 0.53274 0.51656 0.52088 0.0
H3636 H 0.54674 0.54754 0.51227 0.0
H3637 H 0.48687 0.45719 0.46063 0.0
H3638 H 0.48802 0.44663 0.48121 0.0
H3639 H 0.46422 0.47255 0.47512 0.0
H3640 H 0.4805 0.4427 0.53469 0.0
H3641 H 0.42523 0.50685 0.52042 0.0
H3642 H 0.53881 0.46709 0.51505 0.0
H3643 H 0.52321 0.44333 0.50158 0.0
H3644 H 0.5235 0.43596 0.52263 0.0
H3645 H 0.46999 0.54449 0.49715 0.0
H3646 H 0.43403 0.53589 0.49869 0.0
H3647 H 0.45512 0.52087 0.48331 0.0
loop_
_geom_bond_atom_site_label_1
_geom_bond_atom_site_label_2
_geom_bond_distance
_geom_bond_site_symmetry_2
_ccdc_geom_bond_type
Co0 O3 1.970 . S
Co0 N17 1.989 . S
Co0 O25 1.967 . S
Co0 O32 1.920 . S
Co1 O4 1.966 . S
Co1 N10 2.022 . S
Co1 N18 1.993 . S
Co1 O26 1.941 . S
C2 O3 1.258 . S
C2 O4 1.263 . S
O3 Co0 1.970 . S
O3 C2 1.258 . S
O4 Co1 1.966 . S
O4 C2 1.263 . S
C5 O6 1.235 . S
C5 O32 1.289 . S
O6 C5 1.235 . S
C7 C9 1.400 . S
C7 N10 1.351 . S
C7 C12 1.501 . S
C8 C9 1.387 . S
C8 N11 1.341 . S
C9 C7 1.400 . S
C9 C8 1.387 . S
N10 Co1 2.022 . S
N10 C7 1.351 . S
N10 N11 1.365 . S
N11 C8 1.341 . S
N11 N10 1.365 . S
N11 H31 0.862 . S
C12 C7 1.501 . S
C12 H13 0.961 . S
C12 H14 0.961 . S
C12 H15 0.960 . S
H13 C12 0.961 . S
H14 C12 0.961 . S
H15 C12 0.960 . S
C16 N17 1.342 . S
C16 C20 1.401 . S
C16 C21 1.499 . S
N17 Co0 1.989 . S
N17 C16 1.342 . S
N17 N18 1.388 . S
N18 Co1 1.993 . S
N18 N17 1.388 . S
N18 C19 1.346 . S
C19 N18 1.346 . S
C19 C20 1.396 . S
C19 C29 1.510 . S
C20 C16 1.401 . S
C20 C19 1.396 . S
C21 C16 1.499 . S
C21 H22 0.959 . S
C21 H23 0.960 . S
C21 H24 0.961 . S
H22 C21 0.959 . S
H23 C21 0.960 . S
H24 C21 0.961 . S
O25 Co0 1.967 . S
O25 C33 1.258 . S
O26 Co1 1.941 . S
O26 C33 1.266 . S
H27 C29 0.959 . S
H28 C29 0.961 . S
C29 C19 1.510 . S
C29 H27 0.959 . S
C29 H28 0.961 . S
C29 H30 0.960 . S
H30 C29 0.960 . S
H31 N11 0.862 . S
O32 Co0 1.920 . S
O32 C5 1.289 . S
C33 O25 1.258 . S
C33 O26 1.266 . S
Co34 O37 1.970 . S
Co34 N51 1.989 . S
Co34 O59 1.967 . S
Co34 O66 1.920 . S
Co35 O38 1.966 . S
Co35 N44 2.022 . S
Co35 N52 1.993 . S
Co35 O60 1.941 . S
C36 O37 1.258 . S
C36 O38 1.263 . S
O37 Co34 1.970 . S
O37 C36 1.258 . S
O38 Co35 1.966 . S
O38 C36 1.263 . S
C39 O40 1.235 . S
C39 O66 1.289 . S
O40 C39 1.235 . S
C41 C43 1.400 . S
C41 N44 1.351 . S
C41 C46 1.501 . S
C42 C43 1.387 . S
C42 N45 1.341 . S
C43 C41 1.400 . S
C43 C42 1.387 . S
N44 Co35 2.022 . S
N44 C41 1.351 . S
N44 N45 1.365 . S
N45 C42 1.341 . S
N45 N44 1.365 . S
N45 H65 0.862 . S
C46 C41 1.501 . S
C46 H47 0.961 . S
C46 H48 0.961 . S
C46 H49 0.960 . S
H47 C46 0.961 . S
H48 C46 0.961 . S
H49 C46 0.960 . S
C50 N51 1.342 . S
C50 C54 1.401 . S
C50 C55 1.499 . S
N51 Co34 1.989 . S
N51 C50 1.342 . S
N51 N52 1.388 . S
N52 Co35 1.993 . S
N52 N51 1.388 . S
N52 C53 1.346 . S
C53 N52 1.346 . S
C53 C54 1.396 . S
C53 C63 1.510 . S
C54 C50 1.401 . S
C54 C53 1.396 . S
C55 C50 1.499 . S
C55 H56 0.959 . S
C55 H57 0.960 . S
C55 H58 0.961 1_565 S
H56 C55 0.959 . S
H57 C55 0.960 . S
H58 C55 0.961 1_545 S
O59 Co34 1.967 . S
O59 C67 1.258 . S
O60 Co35 1.941 . S
O60 C67 1.266 . S
H61 C63 0.959 . S
H62 C63 0.961 . S
C63 C53 1.510 . S
C63 H61 0.959 . S
C63 H62 0.961 . S
C63 H64 0.960 . S
H64 C63 0.960 . S
H65 N45 0.862 . S
O66 Co34 1.920 . S
O66 C39 1.289 . S
C67 O59 1.258 . S
C67 O60 1.266 . S
Co68 O71 1.970 . S
Co68 N85 1.989 . S
Co68 O93 1.967 . S
Co68 O100 1.920 . S
Co69 O72 1.966 . S
Co69 N78 2.022 . S
Co69 N86 1.993 . S
Co69 O94 1.941 . S
C70 O71 1.258 . S
C70 O72 1.263 . S
O71 Co68 1.970 . S
O71 C70 1.258 . S
O72 Co69 1.966 . S
O72 C70 1.263 . S
C73 O74 1.235 . S
C73 O100 1.289 . S
O74 C73 1.235 . S
C75 C77 1.400 . S
C75 N78 1.351 . S
C75 C80 1.501 . S
C76 C77 1.387 . S
C76 N79 1.341 . S
C77 C75 1.400 . S
C77 C76 1.387 . S
N78 Co69 2.022 . S
N78 C75 1.351 . S
N78 N79 1.365 . S
N79 C76 1.341 . S
N79 N78 1.365 . S
N79 H99 0.862 . S
C80 C75 1.501 . S
C80 H81 0.961 . S
C80 H82 0.961 . S
C80 H83 0.960 . S
H81 C80 0.961 . S
H82 C80 0.961 . S
H83 C80 0.960 . S
C84 N85 1.342 . S
C84 C88 1.401 . S
C84 C89 1.499 . S
N85 Co68 1.989 . S
N85 C84 1.342 . S
N85 N86 1.388 . S
N86 Co69 1.993 . S
N86 N85 1.388 . S
N86 C87 1.346 . S
C87 N86 1.346 . S
C87 C88 1.396 . S
C87 C97 1.510 . S
C88 C84 1.401 . S
C88 C87 1.396 . S
C89 C84 1.499 . S
C89 H90 0.959 . S
C89 H91 0.960 . S
C89 H92 0.961 . S
H90 C89 0.959 . S
H91 C89 0.960 . S
H92 C89 0.961 . S
O93 Co68 1.967 . S
O93 C101 1.258 . S
O94 Co69 1.941 . S
O94 C101 1.266 . S
H95 C97 0.959 . S
H96 C97 0.961 . S
C97 C87 1.510 . S
C97 H95 0.959 . S
C97 H96 0.961 . S
C97 H98 0.960 . S
H98 C97 0.960 . S
H99 N79 0.862 . S
O100 Co68 1.920 . S
O100 C73 1.289 . S
C101 O93 1.258 . S
C101 O94 1.266 . S
Co102 O105 1.970 . S
Co102 N119 1.989 . S
Co102 O127 1.967 . S
Co102 O134 1.920 . S
Co103 O106 1.966 . S
Co103 N112 2.022 . S
Co103 N120 1.993 . S
Co103 O128 1.941 . S
C104 O105 1.258 . S
C104 O106 1.263 . S
O105 Co102 1.970 . S
O105 C104 1.258 . S
O106 Co103 1.966 . S
O106 C104 1.263 . S
C107 O108 1.235 . S
C107 O134 1.289 . S
O108 C107 1.235 . S
C109 C111 1.400 . S
C109 N112 1.351 . S
C109 C114 1.501 . S
C110 C111 1.387 . S
C110 N113 1.341 . S
C111 C109 1.400 . S
C111 C110 1.387 . S
N112 Co103 2.022 . S
N112 C109 1.351 . S
N112 N113 1.365 . S
N113 C110 1.341 . S
N113 N112 1.365 . S
N113 H133 0.862 . S
C114 C109 1.501 . S
C114 H115 0.961 . S
C114 H116 0.961 . S
C114 H117 0.960 . S
H115 C114 0.961 . S
H116 C114 0.961 . S
H117 C114 0.960 . S
C118 N119 1.342 . S
C118 C122 1.401 . S
C118 C123 1.499 . S
N119 Co102 1.989 . S
N119 C118 1.342 . S
N119 N120 1.388 . S
N120 Co103 1.993 . S
N120 N119 1.388 . S
N120 C121 1.346 . S
C121 N120 1.346 . S
C121 C122 1.396 . S
C121 C131 1.510 . S
C122 C118 1.401 . S
C122 C121 1.396 . S
C123 C118 1.499 . S
C123 H124 0.959 . S
C123 H125 0.960 . S
C123 H126 0.961 1_545 S
H124 C123 0.959 . S
H125 C123 0.960 . S
H126 C123 0.961 1_565 S
O127 Co102 1.967 . S
O127 C135 1.258 . S
O128 Co103 1.941 . S
O128 C135 1.266 . S
H129 C131 0.959 . S
H130 C131 0.961 . S
C131 C121 1.510 . S
C131 H129 0.959 . S
C131 H130 0.961 . S
C131 H132 0.960 . S
H132 C131 0.960 . S
H133 N113 0.862 . S
O134 Co102 1.920 . S
O134 C107 1.289 . S
C135 O127 1.258 . S
C135 O128 1.266 . S
Co136 O139 1.970 . S
Co136 N153 1.989 . S
Co136 O161 1.967 . S
Co136 O168 1.920 . S
Co137 O140 1.966 . S
Co137 N146 2.022 . S
Co137 N154 1.993 . S
Co137 O162 1.941 . S
C138 O139 1.258 . S
C138 O140 1.263 . S
O139 Co136 1.970 . S
O139 C138 1.258 . S
O140 Co137 1.966 . S
O140 C138 1.263 . S
C141 O142 1.235 . S
C141 O168 1.289 . S
O142 C141 1.235 . S
C143 C145 1.400 . S
C143 N146 1.351 . S
C143 C148 1.501 . S
C144 C145 1.387 . S
C144 N147 1.341 . S
C145 C143 1.400 . S
C145 C144 1.387 . S
N146 Co137 2.022 . S
N146 C143 1.351 . S
N146 N147 1.365 . S
N147 C144 1.341 . S
N147 N146 1.365 . S
N147 H167 0.862 . S
C148 C143 1.501 . S
C148 H149 0.961 . S
C148 H150 0.961 . S
C148 H151 0.960 . S
H149 C148 0.961 . S
H150 C148 0.961 . S
H151 C148 0.960 . S
C152 N153 1.342 . S
C152 C156 1.401 . S
C152 C157 1.499 . S
N153 Co136 1.989 . S
N153 C152 1.342 . S
N153 N154 1.388 . S
N154 Co137 1.993 . S
N154 N153 1.388 . S
N154 C155 1.346 . S
C155 N154 1.346 . S
C155 C156 1.396 . S
C155 C165 1.510 . S
C156 C152 1.401 . S
C156 C155 1.396 . S
C157 C152 1.499 . S
C157 H158 0.959 . S
C157 H159 0.960 . S
C157 H160 0.961 . S
H158 C157 0.959 . S
H159 C157 0.960 . S
H160 C157 0.961 . S
O161 Co136 1.967 . S
O161 C169 1.258 . S
O162 Co137 1.941 . S
O162 C169 1.266 . S
H163 C165 0.959 . S
H164 C165 0.961 . S
C165 C155 1.510 . S
C165 H163 0.959 . S
C165 H164 0.961 . S
C165 H166 0.960 . S
H166 C165 0.960 . S
H167 N147 0.862 . S
O168 Co136 1.920 . S
O168 C141 1.289 . S
C169 O161 1.258 . S
C169 O162 1.266 . S
Co170 O173 1.970 . S
Co170 N187 1.989 . S
Co170 O195 1.967 . S
Co170 O202 1.920 . S
Co171 O174 1.966 . S
Co171 N180 2.022 . S
Co171 N188 1.993 . S
Co171 O196 1.941 . S
C172 O173 1.258 . S
C172 O174 1.263 . S
O173 Co170 1.970 . S
O173 C172 1.258 . S
O174 Co171 1.966 . S
O174 C172 1.263 . S
C175 O176 1.235 . S
C175 O202 1.289 . S
O176 C175 1.235 . S
C177 C179 1.400 . S
C177 N180 1.351 . S
C177 C182 1.501 . S
C178 C179 1.387 . S
C178 N181 1.341 . S
C179 C177 1.400 . S
C179 C178 1.387 . S
N180 Co171 2.022 . S
N180 C177 1.351 . S
N180 N181 1.365 . S
N181 C178 1.341 . S
N181 N180 1.365 . S
N181 H201 0.862 . S
C182 C177 1.501 . S
C182 H183 0.961 . S
C182 H184 0.961 . S
C182 H185 0.960 . S
H183 C182 0.961 . S
H184 C182 0.961 . S
H185 C182 0.960 . S
C186 N187 1.342 . S
C186 C190 1.401 . S
C186 C191 1.499 . S
N187 Co170 1.989 . S
N187 C186 1.342 . S
N187 N188 1.388 . S
N188 Co171 1.993 . S
N188 N187 1.388 . S
N188 C189 1.346 . S
C189 N188 1.346 . S
C189 C190 1.396 . S
C189 C199 1.510 . S
C190 C186 1.401 . S
C190 C189 1.396 . S
C191 C186 1.499 . S
C191 H192 0.959 . S
C191 H193 0.960 . S
C191 H194 0.961 1_565 S
H192 C191 0.959 . S
H193 C191 0.960 . S
H194 C191 0.961 1_545 S
O195 Co170 1.967 . S
O195 C203 1.258 . S
O196 Co171 1.941 . S
O196 C203 1.266 . S
H197 C199 0.959 . S
H198 C199 0.961 . S
C199 C189 1.510 . S
C199 H197 0.959 . S
C199 H198 0.961 . S
C199 H200 0.960 . S
H200 C199 0.960 . S
H201 N181 0.862 . S
O202 Co170 1.920 . S
O202 C175 1.289 . S
C203 O195 1.258 . S
C203 O196 1.266 . S
Co204 O207 1.970 . S
Co204 N221 1.989 . S
Co204 O229 1.967 . S
Co204 O236 1.920 . S
Co205 O208 1.966 . S
Co205 N214 2.022 . S
Co205 N222 1.993 . S
Co205 O230 1.941 . S
C206 O207 1.258 . S
C206 O208 1.263 . S
O207 Co204 1.970 . S
O207 C206 1.258 . S
O208 Co205 1.966 . S
O208 C206 1.263 . S
C209 O210 1.235 . S
C209 O236 1.289 . S
O210 C209 1.235 . S
C211 C213 1.400 . S
C211 N214 1.351 . S
C211 C216 1.501 . S
C212 C213 1.387 . S
C212 N215 1.341 . S
C213 C211 1.400 . S
C213 C212 1.387 . S
N214 Co205 2.022 . S
N214 C211 1.351 . S
N214 N215 1.365 . S
N215 C212 1.341 . S
N215 N214 1.365 . S
N215 H235 0.862 . S
C216 C211 1.501 . S
C216 H217 0.961 . S
C216 H218 0.961 . S
C216 H219 0.960 . S
H217 C216 0.961 . S
H218 C216 0.961 . S
H219 C216 0.960 . S
C220 N221 1.342 . S
C220 C224 1.401 . S
C220 C225 1.499 . S
N221 Co204 1.989 . S
N221 C220 1.342 . S
N221 N222 1.388 . S
N222 Co205 1.993 . S
N222 N221 1.388 . S
N222 C223 1.346 . S
C223 N222 1.346 . S
C223 C224 1.396 . S
C223 C233 1.510 . S
C224 C220 1.401 . S
C224 C223 1.396 . S
C225 C220 1.499 . S
C225 H226 0.959 . S
C225 H227 0.960 . S
C225 H228 0.961 . S
H226 C225 0.959 . S
H227 C225 0.960 . S
H228 C225 0.961 . S
O229 Co204 1.967 . S
O229 C237 1.258 . S
O230 Co205 1.941 . S
O230 C237 1.266 . S
H231 C233 0.959 . S
H232 C233 0.961 . S
C233 C223 1.510 . S
C233 H231 0.959 . S
C233 H232 0.961 . S
C233 H234 0.960 . S
H234 C233 0.960 . S
H235 N215 0.862 . S
O236 Co204 1.920 . S
O236 C209 1.289 . S
C237 O229 1.258 . S
C237 O230 1.266 . S
Co238 O241 1.970 . S
Co238 N255 1.989 . S
Co238 O263 1.967 . S
Co238 O270 1.920 . S
Co239 O242 1.966 . S
Co239 N248 2.022 . S
Co239 N256 1.993 . S
Co239 O264 1.941 . S
C240 O241 1.258 . S
C240 O242 1.263 . S
O241 Co238 1.970 . S
O241 C240 1.258 . S
O242 Co239 1.966 . S
O242 C240 1.263 . S
C243 O244 1.235 . S
C243 O270 1.289 . S
O244 C243 1.235 . S
C245 C247 1.400 . S
C245 N248 1.351 . S
C245 C250 1.501 . S
C246 C247 1.387 . S
C246 N249 1.341 . S
C247 C245 1.400 . S
C247 C246 1.387 . S
N248 Co239 2.022 . S
N248 C245 1.351 . S
N248 N249 1.365 . S
N249 C246 1.341 . S
N249 N248 1.365 . S
N249 H269 0.862 . S
C250 C245 1.501 . S
C250 H251 0.961 . S
C250 H252 0.961 . S
C250 H253 0.960 . S
H251 C250 0.961 . S
H252 C250 0.961 . S
H253 C250 0.960 . S
C254 N255 1.342 . S
C254 C258 1.401 . S
C254 C259 1.499 . S
N255 Co238 1.989 . S
N255 C254 1.342 . S
N255 N256 1.388 . S
N256 Co239 1.993 . S
N256 N255 1.388 . S
N256 C257 1.346 . S
C257 N256 1.346 . S
C257 C258 1.396 . S
C257 C267 1.510 . S
C258 C254 1.401 . S
C258 C257 1.396 . S
C259 C254 1.499 . S
C259 H260 0.959 . S
C259 H261 0.960 . S
C259 H262 0.961 1_545 S
H260 C259 0.959 . S
H261 C259 0.960 . S
H262 C259 0.961 1_565 S
O263 Co238 1.967 . S
O263 C271 1.258 . S
O264 Co239 1.941 . S
O264 C271 1.266 . S
H265 C267 0.959 . S
H266 C267 0.961 . S
C267 C257 1.510 . S
C267 H265 0.959 . S
C267 H266 0.961 . S
C267 H268 0.960 . S
H268 C267 0.960 . S
H269 N249 0.862 . S
O270 Co238 1.920 . S
O270 C243 1.289 . S
C271 O263 1.258 . S
C271 O264 1.266 . S
Co272 O275 1.970 . S
Co272 N289 1.989 . S
Co272 O297 1.967 . S
Co272 O304 1.920 . S
Co273 O276 1.966 . S
Co273 N282 2.022 . S
Co273 N290 1.993 . S
Co273 O298 1.941 . S
C274 O275 1.258 . S
C274 O276 1.263 . S
O275 Co272 1.970 . S
O275 C274 1.258 . S
O276 Co273 1.966 . S
O276 C274 1.263 . S
C277 O278 1.235 . S
C277 O304 1.289 . S
O278 C277 1.235 . S
C279 C281 1.400 . S
C279 N282 1.351 . S
C279 C284 1.501 . S
C280 C281 1.387 . S
C280 N283 1.341 . S
C281 C279 1.400 . S
C281 C280 1.387 . S
N282 Co273 2.022 . S
N282 C279 1.351 . S
N282 N283 1.365 . S
N283 C280 1.341 . S
N283 N282 1.365 . S
N283 H303 0.862 . S
C284 C279 1.501 . S
C284 H285 0.961 . S
C284 H286 0.961 . S
C284 H287 0.960 . S
H285 C284 0.961 . S
H286 C284 0.961 . S
H287 C284 0.960 . S
C288 N289 1.342 . S
C288 C292 1.401 . S
C288 C293 1.499 . S
N289 Co272 1.989 . S
N289 C288 1.342 . S
N289 N290 1.388 . S
N290 Co273 1.993 . S
N290 N289 1.388 . S
N290 C291 1.346 . S
C291 N290 1.346 . S
C291 C292 1.396 . S
C291 C301 1.510 . S
C292 C288 1.401 . S
C292 C291 1.396 . S
C293 C288 1.499 . S
C293 H294 0.959 . S
C293 H295 0.960 . S
C293 H296 0.961 . S
H294 C293 0.959 . S
H295 C293 0.960 . S
H296 C293 0.961 . S
O297 Co272 1.967 . S
O297 C305 1.258 . S
O298 Co273 1.941 . S
O298 C305 1.266 . S
H299 C301 0.959 . S
H300 C301 0.961 . S
C301 C291 1.510 . S
C301 H299 0.959 . S
C301 H300 0.961 . S
C301 H302 0.960 . S
H302 C301 0.960 . S
H303 N283 0.862 . S
O304 Co272 1.920 . S
O304 C277 1.289 . S
C305 O297 1.258 . S
C305 O298 1.266 . S
Co306 O309 1.970 . S
Co306 N323 1.989 . S
Co306 O331 1.967 . S
Co306 O338 1.920 . S
Co307 O310 1.966 . S
Co307 N316 2.022 . S
Co307 N324 1.993 . S
Co307 O332 1.941 . S
C308 O309 1.258 . S
C308 O310 1.263 . S
O309 Co306 1.970 . S
O309 C308 1.258 . S
O310 Co307 1.966 . S
O310 C308 1.263 . S
C311 O312 1.235 . S
C311 O338 1.289 . S
O312 C311 1.235 . S
C313 C315 1.400 . S
C313 N316 1.351 . S
C313 C318 1.501 . S
C314 C315 1.387 . S
C314 N317 1.341 . S
C315 C313 1.400 . S
C315 C314 1.387 . S
N316 Co307 2.022 . S
N316 C313 1.351 . S
N316 N317 1.365 . S
N317 C314 1.341 . S
N317 N316 1.365 . S
N317 H337 0.862 . S
C318 C313 1.501 . S
C318 H319 0.961 . S
C318 H320 0.961 . S
C318 H321 0.960 . S
H319 C318 0.961 . S
H320 C318 0.961 . S
H321 C318 0.960 . S
C322 N323 1.342 . S
C322 C326 1.401 . S
C322 C327 1.499 . S
N323 Co306 1.989 . S
N323 C322 1.342 . S
N323 N324 1.388 . S
N324 Co307 1.993 . S
N324 N323 1.388 . S
N324 C325 1.346 . S
C325 N324 1.346 . S
C325 C326 1.396 . S
C325 C335 1.510 . S
C326 C322 1.401 . S
C326 C325 1.396 . S
C327 C322 1.499 . S
C327 H328 0.959 . S
C327 H329 0.960 . S
C327 H330 0.961 1_545 S
H328 C327 0.959 . S
H329 C327 0.960 . S
H330 C327 0.961 1_565 S
O331 Co306 1.967 . S
O331 C339 1.258 . S
O332 Co307 1.941 . S
O332 C339 1.266 . S
H333 C335 0.959 . S
H334 C335 0.961 . S
C335 C325 1.510 . S
C335 H333 0.959 . S
C335 H334 0.961 . S
C335 H336 0.960 . S
H336 C335 0.960 . S
H337 N317 0.862 . S
O338 Co306 1.920 . S
O338 C311 1.289 . S
C339 O331 1.258 . S
C339 O332 1.266 . S
Co340 O343 1.970 . S
Co340 N357 1.989 . S
Co340 O365 1.967 . S
Co340 O372 1.920 . S
Co341 O344 1.966 . S
Co341 N350 2.022 . S
Co341 N358 1.993 . S
Co341 O366 1.941 . S
C342 O343 1.258 . S
C342 O344 1.263 . S
O343 Co340 1.970 . S
O343 C342 1.258 . S
O344 Co341 1.966 . S
O344 C342 1.263 . S
C345 O346 1.235 . S
C345 O372 1.289 . S
O346 C345 1.235 . S
C347 C349 1.400 . S
C347 N350 1.351 . S
C347 C352 1.501 . S
C348 C349 1.387 . S
C348 N351 1.341 . S
C349 C347 1.400 . S
C349 C348 1.387 . S
N350 Co341 2.022 . S
N350 C347 1.351 . S
N350 N351 1.365 . S
N351 C348 1.341 . S
N351 N350 1.365 . S
N351 H371 0.862 . S
C352 C347 1.501 . S
C352 H353 0.961 . S
C352 H354 0.961 . S
C352 H355 0.960 . S
H353 C352 0.961 . S
H354 C352 0.961 . S
H355 C352 0.960 . S
C356 N357 1.342 . S
C356 C360 1.401 . S
C356 C361 1.499 . S
N357 Co340 1.989 . S
N357 C356 1.342 . S
N357 N358 1.388 . S
N358 Co341 1.993 . S
N358 N357 1.388 . S
N358 C359 1.346 . S
C359 N358 1.346 . S
C359 C360 1.396 . S
C359 C369 1.510 . S
C360 C356 1.401 . S
C360 C359 1.396 . S
C361 C356 1.499 . S
C361 H362 0.959 . S
C361 H363 0.960 . S
C361 H364 0.961 . S
H362 C361 0.959 . S
H363 C361 0.960 . S
H364 C361 0.961 . S
O365 Co340 1.967 . S
O365 C373 1.258 . S
O366 Co341 1.941 . S
O366 C373 1.266 . S
H367 C369 0.959 . S
H368 C369 0.961 . S
C369 C359 1.510 . S
C369 H367 0.959 . S
C369 H368 0.961 . S
C369 H370 0.960 . S
H370 C369 0.960 . S
H371 N351 0.862 . S
O372 Co340 1.920 . S
O372 C345 1.289 . S
C373 O365 1.258 . S
C373 O366 1.266 . S
Co374 O377 1.970 . S
Co374 N391 1.989 . S
Co374 O399 1.967 . S
Co374 O406 1.920 . S
Co375 O378 1.966 . S
Co375 N384 2.022 . S
Co375 N392 1.993 . S
Co375 O400 1.941 . S
C376 O377 1.258 . S
C376 O378 1.263 . S
O377 Co374 1.970 . S
O377 C376 1.258 . S
O378 Co375 1.966 . S
O378 C376 1.263 . S
C379 O380 1.235 . S
C379 O406 1.289 . S
O380 C379 1.235 . S
C381 C383 1.400 . S
C381 N384 1.351 . S
C381 C386 1.501 . S
C382 C383 1.387 . S
C382 N385 1.341 . S
C383 C381 1.400 . S
C383 C382 1.387 . S
N384 Co375 2.022 . S
N384 C381 1.351 . S
N384 N385 1.365 . S
N385 C382 1.341 . S
N385 N384 1.365 . S
N385 H405 0.862 . S
C386 C381 1.501 . S
C386 H387 0.961 . S
C386 H388 0.961 . S
C386 H389 0.960 . S
H387 C386 0.961 . S
H388 C386 0.961 . S
H389 C386 0.960 . S
C390 N391 1.342 . S
C390 C394 1.401 . S
C390 C395 1.499 . S
N391 Co374 1.989 . S
N391 C390 1.342 . S
N391 N392 1.388 . S
N392 Co375 1.993 . S
N392 N391 1.388 . S
N392 C393 1.346 . S
C393 N392 1.346 . S
C393 C394 1.396 . S
C393 C403 1.510 . S
C394 C390 1.401 . S
C394 C393 1.396 . S
C395 C390 1.499 . S
C395 H396 0.959 . S
C395 H397 0.960 . S
C395 H398 0.961 1_565 S
H396 C395 0.959 . S
H397 C395 0.960 . S
H398 C395 0.961 1_545 S
O399 Co374 1.967 . S
O399 C407 1.258 . S
O400 Co375 1.941 . S
O400 C407 1.266 . S
H401 C403 0.959 . S
H402 C403 0.961 . S
C403 C393 1.510 . S
C403 H401 0.959 . S
C403 H402 0.961 . S
C403 H404 0.960 . S
H404 C403 0.960 . S
H405 N385 0.862 . S
O406 Co374 1.920 . S
O406 C379 1.289 . S
C407 O399 1.258 . S
C407 O400 1.266 . S
Co408 O411 1.970 . S
Co408 N425 1.989 . S
Co408 O433 1.967 . S
Co408 O440 1.920 . S
Co409 O412 1.966 . S
Co409 N418 2.022 . S
Co409 N426 1.993 . S
Co409 O434 1.941 . S
C410 O411 1.258 . S
C410 O412 1.263 . S
O411 Co408 1.970 . S
O411 C410 1.258 . S
O412 Co409 1.966 . S
O412 C410 1.263 . S
C413 O414 1.235 . S
C413 O440 1.289 . S
O414 C413 1.235 . S
C415 C417 1.400 . S
C415 N418 1.351 . S
C415 C420 1.501 . S
C416 C417 1.387 . S
C416 N419 1.341 . S
C417 C415 1.400 . S
C417 C416 1.387 . S
N418 Co409 2.022 . S
N418 C415 1.351 . S
N418 N419 1.365 . S
N419 C416 1.341 . S
N419 N418 1.365 . S
N419 H439 0.862 . S
C420 C415 1.501 . S
C420 H421 0.961 . S
C420 H422 0.961 . S
C420 H423 0.960 . S
H421 C420 0.961 . S
H422 C420 0.961 . S
H423 C420 0.960 . S
C424 N425 1.342 . S
C424 C428 1.401 . S
C424 C429 1.499 . S
N425 Co408 1.989 . S
N425 C424 1.342 . S
N425 N426 1.388 . S
N426 Co409 1.993 . S
N426 N425 1.388 . S
N426 C427 1.346 . S
C427 N426 1.346 . S
C427 C428 1.396 . S
C427 C437 1.510 . S
C428 C424 1.401 . S
C428 C427 1.396 . S
C429 C424 1.499 . S
C429 H430 0.959 . S
C429 H431 0.960 . S
C429 H432 0.961 . S
H430 C429 0.959 . S
H431 C429 0.960 . S
H432 C429 0.961 . S
O433 Co408 1.967 . S
O433 C441 1.258 . S
O434 Co409 1.941 . S
O434 C441 1.266 . S
H435 C437 0.959 . S
H436 C437 0.961 . S
C437 C427 1.510 . S
C437 H435 0.959 . S
C437 H436 0.961 . S
C437 H438 0.960 . S
H438 C437 0.960 . S
H439 N419 0.862 . S
O440 Co408 1.920 . S
O440 C413 1.289 . S
C441 O433 1.258 . S
C441 O434 1.266 . S
Co442 O445 1.970 . S
Co442 N459 1.989 . S
Co442 O467 1.967 . S
Co442 O474 1.920 . S
Co443 O446 1.966 . S
Co443 N452 2.022 . S
Co443 N460 1.993 . S
Co443 O468 1.941 . S
C444 O445 1.258 . S
C444 O446 1.263 . S
O445 Co442 1.970 . S
O445 C444 1.258 . S
O446 Co443 1.966 . S
O446 C444 1.263 . S
C447 O448 1.235 . S
C447 O474 1.289 . S
O448 C447 1.235 . S
C449 C451 1.400 . S
C449 N452 1.351 . S
C449 C454 1.501 . S
C450 C451 1.387 . S
C450 N453 1.341 . S
C451 C449 1.400 . S
C451 C450 1.387 . S
N452 Co443 2.022 . S
N452 C449 1.351 . S
N452 N453 1.365 . S
N453 C450 1.341 . S
N453 N452 1.365 . S
N453 H473 0.862 . S
C454 C449 1.501 . S
C454 H455 0.961 . S
C454 H456 0.961 . S
C454 H457 0.960 . S
H455 C454 0.961 . S
H456 C454 0.961 . S
H457 C454 0.960 . S
C458 N459 1.342 . S
C458 C462 1.401 . S
C458 C463 1.499 . S
N459 Co442 1.989 . S
N459 C458 1.342 . S
N459 N460 1.388 . S
N460 Co443 1.993 . S
N460 N459 1.388 . S
N460 C461 1.346 . S
C461 N460 1.346 . S
C461 C462 1.396 . S
C461 C471 1.510 . S
C462 C458 1.401 . S
C462 C461 1.396 . S
C463 C458 1.499 . S
C463 H464 0.959 . S
C463 H465 0.960 . S
C463 H466 0.961 1_545 S
H464 C463 0.959 . S
H465 C463 0.960 . S
H466 C463 0.961 1_565 S
O467 Co442 1.967 . S
O467 C475 1.258 . S
O468 Co443 1.941 . S
O468 C475 1.266 . S
H469 C471 0.959 . S
H470 C471 0.961 . S
C471 C461 1.510 . S
C471 H469 0.959 . S
C471 H470 0.961 . S
C471 H472 0.960 . S
H472 C471 0.960 . S
H473 N453 0.862 . S
O474 Co442 1.920 . S
O474 C447 1.289 . S
C475 O467 1.258 . S
C475 O468 1.266 . S
Co476 O479 1.970 . S
Co476 N493 1.989 . S
Co476 O501 1.967 . S
Co476 O508 1.920 . S
Co477 O480 1.966 . S
Co477 N486 2.022 . S
Co477 N494 1.993 . S
Co477 O502 1.941 . S
C478 O479 1.258 . S
C478 O480 1.263 . S
O479 Co476 1.970 . S
O479 C478 1.258 . S
O480 Co477 1.966 . S
O480 C478 1.263 . S
C481 O482 1.235 . S
C481 O508 1.289 . S
O482 C481 1.235 . S
C483 C485 1.400 . S
C483 N486 1.351 . S
C483 C488 1.501 . S
C484 C485 1.387 . S
C484 N487 1.341 . S
C485 C483 1.400 . S
C485 C484 1.387 . S
N486 Co477 2.022 . S
N486 C483 1.351 . S
N486 N487 1.365 . S
N487 C484 1.341 . S
N487 N486 1.365 . S
N487 H507 0.862 . S
C488 C483 1.501 . S
C488 H489 0.961 . S
C488 H490 0.961 . S
C488 H491 0.960 . S
H489 C488 0.961 . S
H490 C488 0.961 . S
H491 C488 0.960 . S
C492 N493 1.342 . S
C492 C496 1.401 . S
C492 C497 1.499 . S
N493 Co476 1.989 . S
N493 C492 1.342 . S
N493 N494 1.388 . S
N494 Co477 1.993 . S
N494 N493 1.388 . S
N494 C495 1.346 . S
C495 N494 1.346 . S
C495 C496 1.396 . S
C495 C505 1.510 . S
C496 C492 1.401 . S
C496 C495 1.396 . S
C497 C492 1.499 . S
C497 H498 0.959 . S
C497 H499 0.960 . S
C497 H500 0.961 . S
H498 C497 0.959 . S
H499 C497 0.960 . S
H500 C497 0.961 . S
O501 Co476 1.967 . S
O501 C509 1.258 . S
O502 Co477 1.941 . S
O502 C509 1.266 . S
H503 C505 0.959 . S
H504 C505 0.961 . S
C505 C495 1.510 . S
C505 H503 0.959 . S
C505 H504 0.961 . S
C505 H506 0.960 . S
H506 C505 0.960 . S
H507 N487 0.862 . S
O508 Co476 1.920 . S
O508 C481 1.289 . S
C509 O501 1.258 . S
C509 O502 1.266 . S
Co510 O513 1.970 . S
Co510 N527 1.989 . S
Co510 O535 1.967 . S
Co510 O542 1.920 . S
Co511 O514 1.966 . S
Co511 N520 2.022 . S
Co511 N528 1.993 . S
Co511 O536 1.941 . S
C512 O513 1.258 . S
C512 O514 1.263 . S
O513 Co510 1.970 . S
O513 C512 1.258 . S
O514 Co511 1.966 . S
O514 C512 1.263 . S
C515 O516 1.235 . S
C515 O542 1.289 . S
O516 C515 1.235 . S
C517 C519 1.400 . S
C517 N520 1.351 . S
C517 C522 1.501 . S
C518 C519 1.387 . S
C518 N521 1.341 . S
C519 C517 1.400 . S
C519 C518 1.387 . S
N520 Co511 2.022 . S
N520 C517 1.351 . S
N520 N521 1.365 . S
N521 C518 1.341 . S
N521 N520 1.365 . S
N521 H541 0.862 . S
C522 C517 1.501 . S
C522 H523 0.961 . S
C522 H524 0.961 . S
C522 H525 0.960 . S
H523 C522 0.961 . S
H524 C522 0.961 . S
H525 C522 0.960 . S
C526 N527 1.342 . S
C526 C530 1.401 . S
C526 C531 1.499 . S
N527 Co510 1.989 . S
N527 C526 1.342 . S
N527 N528 1.388 . S
N528 Co511 1.993 . S
N528 N527 1.388 . S
N528 C529 1.346 . S
C529 N528 1.346 . S
C529 C530 1.396 . S
C529 C539 1.510 . S
C530 C526 1.401 . S
C530 C529 1.396 . S
C531 C526 1.499 . S
C531 H532 0.959 . S
C531 H533 0.960 . S
C531 H534 0.961 1_565 S
H532 C531 0.959 . S
H533 C531 0.960 . S
H534 C531 0.961 1_545 S
O535 Co510 1.967 . S
O535 C543 1.258 . S
O536 Co511 1.941 . S
O536 C543 1.266 . S
H537 C539 0.959 . S
H538 C539 0.961 . S
C539 C529 1.510 . S
C539 H537 0.959 . S
C539 H538 0.961 . S
C539 H540 0.960 . S
H540 C539 0.960 . S
H541 N521 0.862 . S
O542 Co510 1.920 . S
O542 C515 1.289 . S
C543 O535 1.258 . S
C543 O536 1.266 . S
Co544 O547 1.970 . S
Co544 N561 1.989 . S
Co544 O569 1.967 . S
Co544 O576 1.920 . S
Co545 O548 1.966 . S
Co545 N554 2.022 . S
Co545 N562 1.993 . S
Co545 O570 1.941 . S
C546 O547 1.258 . S
C546 O548 1.263 . S
O547 Co544 1.970 . S
O547 C546 1.258 . S
O548 Co545 1.966 . S
O548 C546 1.263 . S
C549 O550 1.235 . S
C549 O576 1.289 . S
O550 C549 1.235 . S
C551 C553 1.400 . S
C551 N554 1.351 . S
C551 C556 1.501 . S
C552 C553 1.387 . S
C552 N555 1.341 . S
C553 C551 1.400 . S
C553 C552 1.387 . S
N554 Co545 2.022 . S
N554 C551 1.351 . S
N554 N555 1.365 . S
N555 C552 1.341 . S
N555 N554 1.365 . S
N555 H575 0.862 . S
C556 C551 1.501 . S
C556 H557 0.961 . S
C556 H558 0.961 . S
C556 H559 0.960 . S
H557 C556 0.961 . S
H558 C556 0.961 . S
H559 C556 0.960 . S
C560 N561 1.342 . S
C560 C564 1.401 . S
C560 C565 1.499 . S
N561 Co544 1.989 . S
N561 C560 1.342 . S
N561 N562 1.388 . S
N562 Co545 1.993 . S
N562 N561 1.388 . S
N562 C563 1.346 . S
C563 N562 1.346 . S
C563 C564 1.396 . S
C563 C573 1.510 . S
C564 C560 1.401 . S
C564 C563 1.396 . S
C565 C560 1.499 . S
C565 H566 0.959 . S
C565 H567 0.960 . S
C565 H568 0.961 . S
H566 C565 0.959 . S
H567 C565 0.960 . S
H568 C565 0.961 . S
O569 Co544 1.967 . S
O569 C577 1.258 . S
O570 Co545 1.941 . S
O570 C577 1.266 . S
H571 C573 0.959 . S
H572 C573 0.961 . S
C573 C563 1.510 . S
C573 H571 0.959 . S
C573 H572 0.961 . S
C573 H574 0.960 . S
H574 C573 0.960 . S
H575 N555 0.862 . S
O576 Co544 1.920 . S
O576 C549 1.289 . S
C577 O569 1.258 . S
C577 O570 1.266 . S
Co578 O581 1.970 . S
Co578 N595 1.989 . S
Co578 O603 1.967 . S
Co578 O610 1.920 . S
Co579 O582 1.966 . S
Co579 N588 2.022 . S
Co579 N596 1.993 . S
Co579 O604 1.941 . S
C580 O581 1.258 . S
C580 O582 1.263 . S
O581 Co578 1.970 . S
O581 C580 1.258 . S
O582 Co579 1.966 . S
O582 C580 1.263 . S
C583 O584 1.235 . S
C583 O610 1.289 . S
O584 C583 1.235 . S
C585 C587 1.400 . S
C585 N588 1.351 . S
C585 C590 1.501 . S
C586 C587 1.387 . S
C586 N589 1.341 . S
C587 C585 1.400 . S
C587 C586 1.387 . S
N588 Co579 2.022 . S
N588 C585 1.351 . S
N588 N589 1.365 . S
N589 C586 1.341 . S
N589 N588 1.365 . S
N589 H609 0.862 . S
C590 C585 1.501 . S
C590 H591 0.961 . S
C590 H592 0.961 . S
C590 H593 0.960 . S
H591 C590 0.961 . S
H592 C590 0.961 . S
H593 C590 0.960 . S
C594 N595 1.342 . S
C594 C598 1.401 . S
C594 C599 1.499 . S
N595 Co578 1.989 . S
N595 C594 1.342 . S
N595 N596 1.388 . S
N596 Co579 1.993 . S
N596 N595 1.388 . S
N596 C597 1.346 . S
C597 N596 1.346 . S
C597 C598 1.396 . S
C597 C607 1.510 . S
C598 C594 1.401 . S
C598 C597 1.396 . S
C599 C594 1.499 . S
C599 H600 0.959 . S
C599 H601 0.960 . S
C599 H602 0.961 . S
H600 C599 0.959 . S
H601 C599 0.960 . S
H602 C599 0.961 . S
O603 Co578 1.967 . S
O603 C611 1.258 . S
O604 Co579 1.941 . S
O604 C611 1.266 . S
H605 C607 0.959 . S
H606 C607 0.961 . S
C607 C597 1.510 . S
C607 H605 0.959 . S
C607 H606 0.961 . S
C607 H608 0.960 . S
H608 C607 0.960 . S
H609 N589 0.862 . S
O610 Co578 1.920 . S
O610 C583 1.289 . S
C611 O603 1.258 . S
C611 O604 1.266 . S
Co612 O615 1.970 . S
Co612 N629 1.989 . S
Co612 O637 1.967 . S
Co612 O644 1.920 . S
Co613 O616 1.966 . S
Co613 N622 2.022 . S
Co613 N630 1.993 . S
Co613 O638 1.941 . S
C614 O615 1.258 . S
C614 O616 1.263 . S
O615 Co612 1.970 . S
O615 C614 1.258 . S
O616 Co613 1.966 . S
O616 C614 1.263 . S
C617 O618 1.235 . S
C617 O644 1.289 . S
O618 C617 1.235 . S
C619 C621 1.400 . S
C619 N622 1.351 . S
C619 C624 1.501 . S
C620 C621 1.387 . S
C620 N623 1.341 . S
C621 C619 1.400 . S
C621 C620 1.387 . S
N622 Co613 2.022 . S
N622 C619 1.351 . S
N622 N623 1.365 . S
N623 C620 1.341 . S
N623 N622 1.365 . S
N623 H643 0.862 . S
C624 C619 1.501 . S
C624 H625 0.961 . S
C624 H626 0.961 . S
C624 H627 0.960 . S
H625 C624 0.961 . S
H626 C624 0.961 . S
H627 C624 0.960 . S
C628 N629 1.342 . S
C628 C632 1.401 . S
C628 C633 1.499 . S
N629 Co612 1.989 . S
N629 C628 1.342 . S
N629 N630 1.388 . S
N630 Co613 1.993 . S
N630 N629 1.388 . S
N630 C631 1.346 . S
C631 N630 1.346 . S
C631 C632 1.396 . S
C631 C641 1.510 . S
C632 C628 1.401 . S
C632 C631 1.396 . S
C633 C628 1.499 . S
C633 H634 0.959 . S
C633 H635 0.960 . S
C633 H636 0.961 . S
H634 C633 0.959 . S
H635 C633 0.960 . S
H636 C633 0.961 . S
O637 Co612 1.967 . S
O637 C645 1.258 . S
O638 Co613 1.941 . S
O638 C645 1.266 . S
H639 C641 0.959 . S
H640 C641 0.961 . S
C641 C631 1.510 . S
C641 H639 0.959 . S
C641 H640 0.961 . S
C641 H642 0.960 . S
H642 C641 0.960 . S
H643 N623 0.862 . S
O644 Co612 1.920 . S
O644 C617 1.289 . S
C645 O637 1.258 . S
C645 O638 1.266 . S
Co646 O649 1.970 . S
Co646 N663 1.989 . S
Co646 O671 1.967 . S
Co646 O678 1.920 . S
Co647 O650 1.966 . S
Co647 N656 2.022 . S
Co647 N664 1.993 . S
Co647 O672 1.941 . S
C648 O649 1.258 . S
C648 O650 1.263 . S
O649 Co646 1.970 . S
O649 C648 1.258 . S
O650 Co647 1.966 . S
O650 C648 1.263 . S
C651 O652 1.235 . S
C651 O678 1.289 . S
O652 C651 1.235 . S
C653 C655 1.400 . S
C653 N656 1.351 . S
C653 C658 1.501 . S
C654 C655 1.387 . S
C654 N657 1.341 . S
C655 C653 1.400 . S
C655 C654 1.387 . S
N656 Co647 2.022 . S
N656 C653 1.351 . S
N656 N657 1.365 . S
N657 C654 1.341 . S
N657 N656 1.365 . S
N657 H677 0.862 . S
C658 C653 1.501 . S
C658 H659 0.961 . S
C658 H660 0.961 . S
C658 H661 0.960 . S
H659 C658 0.961 . S
H660 C658 0.961 . S
H661 C658 0.960 . S
C662 N663 1.342 . S
C662 C666 1.401 . S
C662 C667 1.499 . S
N663 Co646 1.989 . S
N663 C662 1.342 . S
N663 N664 1.388 . S
N664 Co647 1.993 . S
N664 N663 1.388 . S
N664 C665 1.346 . S
C665 N664 1.346 . S
C665 C666 1.396 . S
C665 C675 1.510 . S
C666 C662 1.401 . S
C666 C665 1.396 . S
C667 C662 1.499 . S
C667 H668 0.959 . S
C667 H669 0.960 . S
C667 H670 0.961 . S
H668 C667 0.959 . S
H669 C667 0.960 . S
H670 C667 0.961 . S
O671 Co646 1.967 . S
O671 C679 1.258 . S
O672 Co647 1.941 . S
O672 C679 1.266 . S
H673 C675 0.959 . S
H674 C675 0.961 . S
C675 C665 1.510 . S
C675 H673 0.959 . S
C675 H674 0.961 . S
C675 H676 0.960 . S
H676 C675 0.960 . S
H677 N657 0.862 . S
O678 Co646 1.920 . S
O678 C651 1.289 . S
C679 O671 1.258 . S
C679 O672 1.266 . S
Co680 O683 1.970 . S
Co680 N697 1.989 . S
Co680 O705 1.967 . S
Co680 O712 1.920 . S
Co681 O684 1.966 . S
Co681 N690 2.022 . S
Co681 N698 1.993 . S
Co681 O706 1.941 . S
C682 O683 1.258 . S
C682 O684 1.263 . S
O683 Co680 1.970 . S
O683 C682 1.258 . S
O684 Co681 1.966 . S
O684 C682 1.263 . S
C685 O686 1.235 . S
C685 O712 1.289 . S
O686 C685 1.235 . S
C687 C689 1.400 . S
C687 N690 1.351 . S
C687 C692 1.501 . S
C688 C689 1.387 . S
C688 N691 1.341 . S
C689 C687 1.400 . S
C689 C688 1.387 . S
N690 Co681 2.022 . S
N690 C687 1.351 . S
N690 N691 1.365 . S
N691 C688 1.341 . S
N691 N690 1.365 . S
N691 H711 0.862 . S
C692 C687 1.501 . S
C692 H693 0.961 . S
C692 H694 0.961 . S
C692 H695 0.960 . S
H693 C692 0.961 . S
H694 C692 0.961 . S
H695 C692 0.960 . S
C696 N697 1.342 . S
C696 C700 1.401 . S
C696 C701 1.499 . S
N697 Co680 1.989 . S
N697 C696 1.342 . S
N697 N698 1.388 . S
N698 Co681 1.993 . S
N698 N697 1.388 . S
N698 C699 1.346 . S
C699 N698 1.346 . S
C699 C700 1.396 . S
C699 C709 1.510 . S
C700 C696 1.401 . S
C700 C699 1.396 . S
C701 C696 1.499 . S
C701 H702 0.959 . S
C701 H703 0.960 . S
C701 H704 0.961 . S
H702 C701 0.959 . S
H703 C701 0.960 . S
H704 C701 0.961 . S
O705 Co680 1.967 . S
O705 C713 1.258 . S
O706 Co681 1.941 . S
O706 C713 1.266 . S
H707 C709 0.959 . S
H708 C709 0.961 . S
C709 C699 1.510 . S
C709 H707 0.959 . S
C709 H708 0.961 . S
C709 H710 0.960 . S
H710 C709 0.960 . S
H711 N691 0.862 . S
O712 Co680 1.920 . S
O712 C685 1.289 . S
C713 O705 1.258 . S
C713 O706 1.266 . S
Co714 O717 1.970 . S
Co714 N731 1.989 . S
Co714 O739 1.967 . S
Co714 O746 1.920 . S
Co715 O718 1.966 . S
Co715 N724 2.022 . S
Co715 N732 1.993 . S
Co715 O740 1.941 . S
C716 O717 1.258 . S
C716 O718 1.263 . S
O717 Co714 1.970 . S
O717 C716 1.258 . S
O718 Co715 1.966 . S
O718 C716 1.263 . S
C719 O720 1.235 . S
C719 O746 1.289 . S
O720 C719 1.235 . S
C721 C723 1.400 . S
C721 N724 1.351 . S
C721 C726 1.501 . S
C722 C723 1.387 . S
C722 N725 1.341 . S
C723 C721 1.400 . S
C723 C722 1.387 . S
N724 Co715 2.022 . S
N724 C721 1.351 . S
N724 N725 1.365 . S
N725 C722 1.341 . S
N725 N724 1.365 . S
N725 H745 0.862 . S
C726 C721 1.501 . S
C726 H727 0.961 . S
C726 H728 0.961 . S
C726 H729 0.960 . S
H727 C726 0.961 . S
H728 C726 0.961 . S
H729 C726 0.960 . S
C730 N731 1.342 . S
C730 C734 1.401 . S
C730 C735 1.499 . S
N731 Co714 1.989 . S
N731 C730 1.342 . S
N731 N732 1.388 . S
N732 Co715 1.993 . S
N732 N731 1.388 . S
N732 C733 1.346 . S
C733 N732 1.346 . S
C733 C734 1.396 . S
C733 C743 1.510 . S
C734 C730 1.401 . S
C734 C733 1.396 . S
C735 C730 1.499 . S
C735 H736 0.959 . S
C735 H737 0.960 . S
C735 H738 0.961 . S
H736 C735 0.959 . S
H737 C735 0.960 . S
H738 C735 0.961 . S
O739 Co714 1.967 . S
O739 C747 1.258 . S
O740 Co715 1.941 . S
O740 C747 1.266 . S
H741 C743 0.959 . S
H742 C743 0.961 . S
C743 C733 1.510 . S
C743 H741 0.959 . S
C743 H742 0.961 . S
C743 H744 0.960 . S
H744 C743 0.960 . S
H745 N725 0.862 . S
O746 Co714 1.920 . S
O746 C719 1.289 . S
C747 O739 1.258 . S
C747 O740 1.266 . S
Co748 O751 1.970 . S
Co748 N765 1.989 . S
Co748 O773 1.967 . S
Co748 O780 1.920 . S
Co749 O752 1.966 . S
Co749 N758 2.022 . S
Co749 N766 1.993 . S
Co749 O774 1.941 . S
C750 O751 1.258 . S
C750 O752 1.263 . S
O751 Co748 1.970 . S
O751 C750 1.258 . S
O752 Co749 1.966 . S
O752 C750 1.263 . S
C753 O754 1.235 . S
C753 O780 1.289 . S
O754 C753 1.235 . S
C755 C757 1.400 . S
C755 N758 1.351 . S
C755 C760 1.501 . S
C756 C757 1.387 . S
C756 N759 1.341 . S
C757 C755 1.400 . S
C757 C756 1.387 . S
N758 Co749 2.022 . S
N758 C755 1.351 . S
N758 N759 1.365 . S
N759 C756 1.341 . S
N759 N758 1.365 . S
N759 H779 0.862 . S
C760 C755 1.501 . S
C760 H761 0.961 . S
C760 H762 0.961 . S
C760 H763 0.960 . S
H761 C760 0.961 . S
H762 C760 0.961 . S
H763 C760 0.960 . S
C764 N765 1.342 . S
C764 C768 1.401 . S
C764 C769 1.499 . S
N765 Co748 1.989 . S
N765 C764 1.342 . S
N765 N766 1.388 . S
N766 Co749 1.993 . S
N766 N765 1.388 . S
N766 C767 1.346 . S
C767 N766 1.346 . S
C767 C768 1.396 . S
C767 C777 1.510 . S
C768 C764 1.401 . S
C768 C767 1.396 . S
C769 C764 1.499 . S
C769 H770 0.959 . S
C769 H771 0.960 . S
C769 H772 0.961 . S
H770 C769 0.959 . S
H771 C769 0.960 . S
H772 C769 0.961 . S
O773 Co748 1.967 . S
O773 C781 1.258 . S
O774 Co749 1.941 . S
O774 C781 1.266 . S
H775 C777 0.959 . S
H776 C777 0.961 . S
C777 C767 1.510 . S
C777 H775 0.959 . S
C777 H776 0.961 . S
C777 H778 0.960 . S
H778 C777 0.960 . S
H779 N759 0.862 . S
O780 Co748 1.920 . S
O780 C753 1.289 . S
C781 O773 1.258 . S
C781 O774 1.266 . S
Co782 O785 1.970 . S
Co782 N799 1.989 . S
Co782 O807 1.967 . S
Co782 O814 1.920 . S
Co783 O786 1.966 . S
Co783 N792 2.022 . S
Co783 N800 1.993 . S
Co783 O808 1.941 . S
C784 O785 1.258 . S
C784 O786 1.263 . S
O785 Co782 1.970 . S
O785 C784 1.258 . S
O786 Co783 1.966 . S
O786 C784 1.263 . S
C787 O788 1.235 . S
C787 O814 1.289 . S
O788 C787 1.235 . S
C789 C791 1.400 . S
C789 N792 1.351 . S
C789 C794 1.501 . S
C790 C791 1.387 . S
C790 N793 1.341 . S
C791 C789 1.400 . S
C791 C790 1.387 . S
N792 Co783 2.022 . S
N792 C789 1.351 . S
N792 N793 1.365 . S
N793 C790 1.341 . S
N793 N792 1.365 . S
N793 H813 0.862 . S
C794 C789 1.501 . S
C794 H795 0.961 . S
C794 H796 0.961 . S
C794 H797 0.960 . S
H795 C794 0.961 . S
H796 C794 0.961 . S
H797 C794 0.960 . S
C798 N799 1.342 . S
C798 C802 1.401 . S
C798 C803 1.499 . S
N799 Co782 1.989 . S
N799 C798 1.342 . S
N799 N800 1.388 . S
N800 Co783 1.993 . S
N800 N799 1.388 . S
N800 C801 1.346 . S
C801 N800 1.346 . S
C801 C802 1.396 . S
C801 C811 1.510 . S
C802 C798 1.401 . S
C802 C801 1.396 . S
C803 C798 1.499 . S
C803 H804 0.959 . S
C803 H805 0.960 . S
C803 H806 0.961 . S
H804 C803 0.959 . S
H805 C803 0.960 . S
H806 C803 0.961 . S
O807 Co782 1.967 . S
O807 C815 1.258 . S
O808 Co783 1.941 . S
O808 C815 1.266 . S
H809 C811 0.959 . S
H810 C811 0.961 . S
C811 C801 1.510 . S
C811 H809 0.959 . S
C811 H810 0.961 . S
C811 H812 0.960 . S
H812 C811 0.960 . S
H813 N793 0.862 . S
O814 Co782 1.920 . S
O814 C787 1.289 . S
C815 O807 1.258 . S
C815 O808 1.266 . S
Co816 O819 1.970 . S
Co816 N833 1.989 . S
Co816 O841 1.967 . S
Co816 O848 1.920 . S
Co817 O820 1.966 . S
Co817 N826 2.022 . S
Co817 N834 1.993 . S
Co817 O842 1.941 . S
C818 O819 1.258 . S
C818 O820 1.263 . S
O819 Co816 1.970 . S
O819 C818 1.258 . S
O820 Co817 1.966 . S
O820 C818 1.263 . S
C821 O822 1.235 . S
C821 O848 1.289 . S
O822 C821 1.235 . S
C823 C825 1.400 . S
C823 N826 1.351 . S
C823 C828 1.501 . S
C824 C825 1.387 . S
C824 N827 1.341 . S
C825 C823 1.400 . S
C825 C824 1.387 . S
N826 Co817 2.022 . S
N826 C823 1.351 . S
N826 N827 1.365 . S
N827 C824 1.341 . S
N827 N826 1.365 . S
N827 H847 0.862 . S
C828 C823 1.501 . S
C828 H829 0.961 . S
C828 H830 0.961 . S
C828 H831 0.960 . S
H829 C828 0.961 . S
H830 C828 0.961 . S
H831 C828 0.960 . S
C832 N833 1.342 . S
C832 C836 1.401 . S
C832 C837 1.499 . S
N833 Co816 1.989 . S
N833 C832 1.342 . S
N833 N834 1.388 . S
N834 Co817 1.993 . S
N834 N833 1.388 . S
N834 C835 1.346 . S
C835 N834 1.346 . S
C835 C836 1.396 . S
C835 C845 1.510 . S
C836 C832 1.401 . S
C836 C835 1.396 . S
C837 C832 1.499 . S
C837 H838 0.959 . S
C837 H839 0.960 . S
C837 H840 0.961 . S
H838 C837 0.959 . S
H839 C837 0.960 . S
H840 C837 0.961 . S
O841 Co816 1.967 . S
O841 C849 1.258 . S
O842 Co817 1.941 . S
O842 C849 1.266 . S
H843 C845 0.959 . S
H844 C845 0.961 . S
C845 C835 1.510 . S
C845 H843 0.959 . S
C845 H844 0.961 . S
C845 H846 0.960 . S
H846 C845 0.960 . S
H847 N827 0.862 . S
O848 Co816 1.920 . S
O848 C821 1.289 . S
C849 O841 1.258 . S
C849 O842 1.266 . S
Co850 O853 1.970 . S
Co850 N867 1.989 . S
Co850 O875 1.967 . S
Co850 O882 1.920 . S
Co851 O854 1.966 . S
Co851 N860 2.022 . S
Co851 N868 1.993 . S
Co851 O876 1.941 . S
C852 O853 1.258 . S
C852 O854 1.263 . S
O853 Co850 1.970 . S
O853 C852 1.258 . S
O854 Co851 1.966 . S
O854 C852 1.263 . S
C855 O856 1.235 . S
C855 O882 1.289 . S
O856 C855 1.235 . S
C857 C859 1.400 . S
C857 N860 1.351 . S
C857 C862 1.501 . S
C858 C859 1.387 . S
C858 N861 1.341 . S
C859 C857 1.400 . S
C859 C858 1.387 . S
N860 Co851 2.022 . S
N860 C857 1.351 . S
N860 N861 1.365 . S
N861 C858 1.341 . S
N861 N860 1.365 . S
N861 H881 0.862 . S
C862 C857 1.501 . S
C862 H863 0.961 . S
C862 H864 0.961 . S
C862 H865 0.960 . S
H863 C862 0.961 . S
H864 C862 0.961 . S
H865 C862 0.960 . S
C866 N867 1.342 . S
C866 C870 1.401 . S
C866 C871 1.499 . S
N867 Co850 1.989 . S
N867 C866 1.342 . S
N867 N868 1.388 . S
N868 Co851 1.993 . S
N868 N867 1.388 . S
N868 C869 1.346 . S
C869 N868 1.346 . S
C869 C870 1.396 . S
C869 C879 1.510 . S
C870 C866 1.401 . S
C870 C869 1.396 . S
C871 C866 1.499 . S
C871 H872 0.959 . S
C871 H873 0.960 . S
C871 H874 0.961 . S
H872 C871 0.959 . S
H873 C871 0.960 . S
H874 C871 0.961 . S
O875 Co850 1.967 . S
O875 C883 1.258 . S
O876 Co851 1.941 . S
O876 C883 1.266 . S
H877 C879 0.959 . S
H878 C879 0.961 . S
C879 C869 1.510 . S
C879 H877 0.959 . S
C879 H878 0.961 . S
C879 H880 0.960 . S
H880 C879 0.960 . S
H881 N861 0.862 . S
O882 Co850 1.920 . S
O882 C855 1.289 . S
C883 O875 1.258 . S
C883 O876 1.266 . S
Co884 O887 1.970 . S
Co884 N901 1.989 . S
Co884 O909 1.967 . S
Co884 O916 1.920 . S
Co885 O888 1.966 . S
Co885 N894 2.022 . S
Co885 N902 1.993 . S
Co885 O910 1.941 . S
C886 O887 1.258 . S
C886 O888 1.263 . S
O887 Co884 1.970 . S
O887 C886 1.258 . S
O888 Co885 1.966 . S
O888 C886 1.263 . S
C889 O890 1.235 . S
C889 O916 1.289 . S
O890 C889 1.235 . S
C891 C893 1.400 . S
C891 N894 1.351 . S
C891 C896 1.501 . S
C892 C893 1.387 . S
C892 N895 1.341 . S
C893 C891 1.400 . S
C893 C892 1.387 . S
N894 Co885 2.022 . S
N894 C891 1.351 . S
N894 N895 1.365 . S
N895 C892 1.341 . S
N895 N894 1.365 . S
N895 H915 0.862 . S
C896 C891 1.501 . S
C896 H897 0.961 . S
C896 H898 0.961 . S
C896 H899 0.960 . S
H897 C896 0.961 . S
H898 C896 0.961 . S
H899 C896 0.960 . S
C900 N901 1.342 . S
C900 C904 1.401 . S
C900 C905 1.499 . S
N901 Co884 1.989 . S
N901 C900 1.342 . S
N901 N902 1.388 . S
N902 Co885 1.993 . S
N902 N901 1.388 . S
N902 C903 1.346 . S
C903 N902 1.346 . S
C903 C904 1.396 . S
C903 C913 1.510 . S
C904 C900 1.401 . S
C904 C903 1.396 . S
C905 C900 1.499 . S
C905 H906 0.959 . S
C905 H907 0.960 . S
C905 H908 0.961 . S
H906 C905 0.959 . S
H907 C905 0.960 . S
H908 C905 0.961 . S
O909 Co884 1.967 . S
O909 C917 1.258 . S
O910 Co885 1.941 . S
O910 C917 1.266 . S
H911 C913 0.959 . S
H912 C913 0.961 . S
C913 C903 1.510 . S
C913 H911 0.959 . S
C913 H912 0.961 . S
C913 H914 0.960 . S
H914 C913 0.960 . S
H915 N895 0.862 . S
O916 Co884 1.920 . S
O916 C889 1.289 . S
C917 O909 1.258 . S
C917 O910 1.266 . S
Co918 O921 1.970 . S
Co918 N935 1.989 . S
Co918 O943 1.967 . S
Co918 O950 1.920 . S
Co919 O922 1.966 . S
Co919 N928 2.022 . S
Co919 N936 1.993 . S
Co919 O944 1.941 . S
C920 O921 1.258 . S
C920 O922 1.263 . S
O921 Co918 1.970 . S
O921 C920 1.258 . S
O922 Co919 1.966 . S
O922 C920 1.263 . S
C923 O924 1.235 . S
C923 O950 1.289 . S
O924 C923 1.235 . S
C925 C927 1.400 . S
C925 N928 1.351 . S
C925 C930 1.501 . S
C926 C927 1.387 . S
C926 N929 1.341 . S
C927 C925 1.400 . S
C927 C926 1.387 . S
N928 Co919 2.022 . S
N928 C925 1.351 . S
N928 N929 1.365 . S
N929 C926 1.341 . S
N929 N928 1.365 . S
N929 H949 0.862 . S
C930 C925 1.501 . S
C930 H931 0.961 . S
C930 H932 0.961 . S
C930 H933 0.960 . S
H931 C930 0.961 . S
H932 C930 0.961 . S
H933 C930 0.960 . S
C934 N935 1.342 . S
C934 C938 1.401 . S
C934 C939 1.499 . S
N935 Co918 1.989 . S
N935 C934 1.342 . S
N935 N936 1.388 . S
N936 Co919 1.993 . S
N936 N935 1.388 . S
N936 C937 1.346 . S
C937 N936 1.346 . S
C937 C938 1.396 . S
C937 C947 1.510 . S
C938 C934 1.401 . S
C938 C937 1.396 . S
C939 C934 1.499 . S
C939 H940 0.959 . S
C939 H941 0.960 . S
C939 H942 0.961 . S
H940 C939 0.959 . S
H941 C939 0.960 . S
H942 C939 0.961 . S
O943 Co918 1.967 . S
O943 C951 1.258 . S
O944 Co919 1.941 . S
O944 C951 1.266 . S
H945 C947 0.959 . S
H946 C947 0.961 . S
C947 C937 1.510 . S
C947 H945 0.959 . S
C947 H946 0.961 . S
C947 H948 0.960 . S
H948 C947 0.960 . S
H949 N929 0.862 . S
O950 Co918 1.920 . S
O950 C923 1.289 . S
C951 O943 1.258 . S
C951 O944 1.266 . S
Co952 O955 1.970 . S
Co952 N969 1.989 . S
Co952 O977 1.967 . S
Co952 O984 1.920 . S
Co953 O956 1.966 . S
Co953 N962 2.022 . S
Co953 N970 1.993 . S
Co953 O978 1.941 . S
C954 O955 1.258 . S
C954 O956 1.263 . S
O955 Co952 1.970 . S
O955 C954 1.258 . S
O956 Co953 1.966 . S
O956 C954 1.263 . S
C957 O958 1.235 . S
C957 O984 1.289 . S
O958 C957 1.235 . S
C959 C961 1.400 . S
C959 N962 1.351 . S
C959 C964 1.501 . S
C960 C961 1.387 . S
C960 N963 1.341 . S
C961 C959 1.400 . S
C961 C960 1.387 . S
N962 Co953 2.022 . S
N962 C959 1.351 . S
N962 N963 1.365 . S
N963 C960 1.341 . S
N963 N962 1.365 . S
N963 H983 0.862 . S
C964 C959 1.501 . S
C964 H965 0.961 . S
C964 H966 0.961 . S
C964 H967 0.960 . S
H965 C964 0.961 . S
H966 C964 0.961 . S
H967 C964 0.960 . S
C968 N969 1.342 . S
C968 C972 1.401 . S
C968 C973 1.499 . S
N969 Co952 1.989 . S
N969 C968 1.342 . S
N969 N970 1.388 . S
N970 Co953 1.993 . S
N970 N969 1.388 . S
N970 C971 1.346 . S
C971 N970 1.346 . S
C971 C972 1.396 . S
C971 C981 1.510 . S
C972 C968 1.401 . S
C972 C971 1.396 . S
C973 C968 1.499 . S
C973 H974 0.959 . S
C973 H975 0.960 . S
C973 H976 0.961 . S
H974 C973 0.959 . S
H975 C973 0.960 . S
H976 C973 0.961 . S
O977 Co952 1.967 . S
O977 C985 1.258 . S
O978 Co953 1.941 . S
O978 C985 1.266 . S
H979 C981 0.959 . S
H980 C981 0.961 . S
C981 C971 1.510 . S
C981 H979 0.959 . S
C981 H980 0.961 . S
C981 H982 0.960 . S
H982 C981 0.960 . S
H983 N963 0.862 . S
O984 Co952 1.920 . S
O984 C957 1.289 . S
C985 O977 1.258 . S
C985 O978 1.266 . S
Co986 O989 1.970 . S
Co986 N1003 1.989 . S
Co986 O1011 1.967 . S
Co986 O1018 1.920 . S
Co987 O990 1.966 . S
Co987 N996 2.022 . S
Co987 N1004 1.993 . S
Co987 O1012 1.941 . S
C988 O989 1.258 . S
C988 O990 1.263 . S
O989 Co986 1.970 . S
O989 C988 1.258 . S
O990 Co987 1.966 . S
O990 C988 1.263 . S
C991 O992 1.235 . S
C991 O1018 1.289 . S
O992 C991 1.235 . S
C993 C995 1.400 . S
C993 N996 1.351 . S
C993 C998 1.501 . S
C994 C995 1.387 . S
C994 N997 1.341 . S
C995 C993 1.400 . S
C995 C994 1.387 . S
N996 Co987 2.022 . S
N996 C993 1.351 . S
N996 N997 1.365 . S
N997 C994 1.341 . S
N997 N996 1.365 . S
N997 H1017 0.862 . S
C998 C993 1.501 . S
C998 H999 0.961 . S
C998 H1000 0.961 . S
C998 H1001 0.960 . S
H999 C998 0.961 . S
H1000 C998 0.961 . S
H1001 C998 0.960 . S
C1002 N1003 1.342 . S
C1002 C1006 1.401 . S
C1002 C1007 1.499 . S
N1003 Co986 1.989 . S
N1003 C1002 1.342 . S
N1003 N1004 1.388 . S
N1004 Co987 1.993 . S
N1004 N1003 1.388 . S
N1004 C1005 1.346 . S
C1005 N1004 1.346 . S
C1005 C1006 1.396 . S
C1005 C1015 1.510 . S
C1006 C1002 1.401 . S
C1006 C1005 1.396 . S
C1007 C1002 1.499 . S
C1007 H1008 0.959 . S
C1007 H1009 0.960 . S
C1007 H1010 0.961 . S
H1008 C1007 0.959 . S
H1009 C1007 0.960 . S
H1010 C1007 0.961 . S
O1011 Co986 1.967 . S
O1011 C1019 1.258 . S
O1012 Co987 1.941 . S
O1012 C1019 1.266 . S
H1013 C1015 0.959 . S
H1014 C1015 0.961 . S
C1015 C1005 1.510 . S
C1015 H1013 0.959 . S
C1015 H1014 0.961 . S
C1015 H1016 0.960 . S
H1016 C1015 0.960 . S
H1017 N997 0.862 . S
O1018 Co986 1.920 . S
O1018 C991 1.289 . S
C1019 O1011 1.258 . S
C1019 O1012 1.266 . S
Co1020 O1023 1.970 . S
Co1020 N1037 1.989 . S
Co1020 O1045 1.967 . S
Co1020 O1052 1.920 . S
Co1021 O1024 1.966 . S
Co1021 N1030 2.022 . S
Co1021 N1038 1.993 . S
Co1021 O1046 1.941 . S
C1022 O1023 1.258 . S
C1022 O1024 1.263 . S
O1023 Co1020 1.970 . S
O1023 C1022 1.258 . S
O1024 Co1021 1.966 . S
O1024 C1022 1.263 . S
C1025 O1026 1.235 . S
C1025 O1052 1.289 . S
O1026 C1025 1.235 . S
C1027 C1029 1.400 . S
C1027 N1030 1.351 . S
C1027 C1032 1.501 . S
C1028 C1029 1.387 . S
C1028 N1031 1.341 . S
C1029 C1027 1.400 . S
C1029 C1028 1.387 . S
N1030 Co1021 2.022 . S
N1030 C1027 1.351 . S
N1030 N1031 1.365 . S
N1031 C1028 1.341 . S
N1031 N1030 1.365 . S
N1031 H1051 0.862 . S
C1032 C1027 1.501 . S
C1032 H1033 0.961 . S
C1032 H1034 0.961 . S
C1032 H1035 0.960 . S
H1033 C1032 0.961 . S
H1034 C1032 0.961 . S
H1035 C1032 0.960 . S
C1036 N1037 1.342 . S
C1036 C1040 1.401 . S
C1036 C1041 1.499 . S
N1037 Co1020 1.989 . S
N1037 C1036 1.342 . S
N1037 N1038 1.388 . S
N1038 Co1021 1.993 . S
N1038 N1037 1.388 . S
N1038 C1039 1.346 . S
C1039 N1038 1.346 . S
C1039 C1040 1.396 . S
C1039 C1049 1.510 . S
C1040 C1036 1.401 . S
C1040 C1039 1.396 . S
C1041 C1036 1.499 . S
C1041 H1042 0.959 . S
C1041 H1043 0.960 . S
C1041 H1044 0.961 . S
H1042 C1041 0.959 . S
H1043 C1041 0.960 . S
H1044 C1041 0.961 . S
O1045 Co1020 1.967 . S
O1045 C1053 1.258 . S
O1046 Co1021 1.941 . S
O1046 C1053 1.266 . S
H1047 C1049 0.959 . S
H1048 C1049 0.961 . S
C1049 C1039 1.510 . S
C1049 H1047 0.959 . S
C1049 H1048 0.961 . S
C1049 H1050 0.960 . S
H1050 C1049 0.960 . S
H1051 N1031 0.862 . S
O1052 Co1020 1.920 . S
O1052 C1025 1.289 . S
C1053 O1045 1.258 . S
C1053 O1046 1.266 . S
Co1054 O1057 1.970 . S
Co1054 N1071 1.989 . S
Co1054 O1079 1.967 . S
Co1054 O1086 1.920 . S
Co1055 O1058 1.966 . S
Co1055 N1064 2.022 . S
Co1055 N1072 1.993 . S
Co1055 O1080 1.941 . S
C1056 O1057 1.258 . S
C1056 O1058 1.263 . S
O1057 Co1054 1.970 . S
O1057 C1056 1.258 . S
O1058 Co1055 1.966 . S
O1058 C1056 1.263 . S
C1059 O1060 1.235 . S
C1059 O1086 1.289 . S
O1060 C1059 1.235 . S
C1061 C1063 1.400 . S
C1061 N1064 1.351 . S
C1061 C1066 1.501 . S
C1062 C1063 1.387 . S
C1062 N1065 1.341 . S
C1063 C1061 1.400 . S
C1063 C1062 1.387 . S
N1064 Co1055 2.022 . S
N1064 C1061 1.351 . S
N1064 N1065 1.365 . S
N1065 C1062 1.341 . S
N1065 N1064 1.365 . S
N1065 H1085 0.862 . S
C1066 C1061 1.501 . S
C1066 H1067 0.961 . S
C1066 H1068 0.961 . S
C1066 H1069 0.960 . S
H1067 C1066 0.961 . S
H1068 C1066 0.961 . S
H1069 C1066 0.960 . S
C1070 N1071 1.342 . S
C1070 C1074 1.401 . S
C1070 C1075 1.499 . S
N1071 Co1054 1.989 . S
N1071 C1070 1.342 . S
N1071 N1072 1.388 . S
N1072 Co1055 1.993 . S
N1072 N1071 1.388 . S
N1072 C1073 1.346 . S
C1073 N1072 1.346 . S
C1073 C1074 1.396 . S
C1073 C1083 1.510 . S
C1074 C1070 1.401 . S
C1074 C1073 1.396 . S
C1075 C1070 1.499 . S
C1075 H1076 0.959 . S
C1075 H1077 0.960 . S
C1075 H1078 0.961 . S
H1076 C1075 0.959 . S
H1077 C1075 0.960 . S
H1078 C1075 0.961 . S
O1079 Co1054 1.967 . S
O1079 C1087 1.258 . S
O1080 Co1055 1.941 . S
O1080 C1087 1.266 . S
H1081 C1083 0.959 . S
H1082 C1083 0.961 . S
C1083 C1073 1.510 . S
C1083 H1081 0.959 . S
C1083 H1082 0.961 . S
C1083 H1084 0.960 . S
H1084 C1083 0.960 . S
H1085 N1065 0.862 . S
O1086 Co1054 1.920 . S
O1086 C1059 1.289 . S
C1087 O1079 1.258 . S
C1087 O1080 1.266 . S
C1088 C1089 1.391 . S
C1088 C1090 1.394 . S
C1088 H1104 0.931 . S
C1089 C1088 1.391 . S
C1089 C1093 1.376 . S
C1090 C1088 1.394 . S
C1090 C1091 1.369 . S
C1090 C1094 1.531 . S
C1091 C1090 1.369 . S
C1091 C1092 1.410 . S
C1091 C1099 1.503 . S
C1092 C1091 1.410 . S
C1092 C1093 1.392 . S
C1092 C1095 1.511 . S
C1093 C1089 1.376 . S
C1093 C1092 1.392 . S
C1093 H1105 0.929 . S
C1094 C1090 1.531 . S
C1094 H1106 0.960 . S
C1094 H1107 0.962 . S
C1094 H1108 0.960 . S
C1095 C1092 1.511 . S
C1095 H1109 0.961 . S
C1095 H1110 0.961 . S
C1095 H1111 0.961 . S
C1096 C1097 1.370 . S
C1096 C1098 1.363 . S
C1096 H1112 0.931 . S
C1097 C1096 1.370 . S
C1097 C1101 1.408 . S
C1098 C1096 1.363 . S
C1098 C1099 1.370 . S
C1098 C1102 1.524 . S
C1099 C1091 1.503 . S
C1099 C1098 1.370 . S
C1099 C1100 1.403 . S
C1100 C1099 1.403 . S
C1100 C1101 1.404 . S
C1100 C1103 1.539 . S
C1101 C1097 1.408 . S
C1101 C1100 1.404 . S
C1101 H1113 0.930 . S
C1102 C1098 1.524 . S
C1102 H1114 0.956 . S
C1102 H1115 0.961 . S
C1102 H1116 0.961 . S
C1103 C1100 1.539 . S
C1103 H1117 0.958 . S
C1103 H1118 0.961 . S
C1103 H1119 0.960 . S
H1104 C1088 0.931 . S
H1105 C1093 0.929 . S
H1106 C1094 0.960 . S
H1107 C1094 0.962 . S
H1108 C1094 0.960 . S
H1109 C1095 0.961 . S
H1110 C1095 0.961 . S
H1111 C1095 0.961 . S
H1112 C1096 0.931 . S
H1113 C1101 0.930 . S
H1114 C1102 0.956 . S
H1115 C1102 0.961 . S
H1116 C1102 0.961 . S
H1117 C1103 0.958 . S
H1118 C1103 0.961 . S
H1119 C1103 0.960 . S
C1120 C1121 1.391 . S
C1120 C1122 1.394 . S
C1120 H1136 0.931 . S
C1121 C1120 1.391 . S
C1121 C1125 1.376 . S
C1122 C1120 1.394 . S
C1122 C1123 1.369 . S
C1122 C1126 1.531 . S
C1123 C1122 1.369 . S
C1123 C1124 1.410 . S
C1123 C1131 1.503 . S
C1124 C1123 1.410 . S
C1124 C1125 1.392 . S
C1124 C1127 1.511 . S
C1125 C1121 1.376 . S
C1125 C1124 1.392 . S
C1125 H1137 0.929 . S
C1126 C1122 1.531 . S
C1126 H1138 0.960 . S
C1126 H1139 0.962 . S
C1126 H1140 0.960 . S
C1127 C1124 1.511 . S
C1127 H1141 0.961 . S
C1127 H1142 0.961 . S
C1127 H1143 0.961 . S
C1128 C1129 1.370 . S
C1128 C1130 1.363 . S
C1128 H1144 0.931 . S
C1129 C1128 1.370 . S
C1129 C1133 1.408 . S
C1130 C1128 1.363 . S
C1130 C1131 1.370 . S
C1130 C1134 1.524 . S
C1131 C1123 1.503 . S
C1131 C1130 1.370 . S
C1131 C1132 1.403 . S
C1132 C1131 1.403 . S
C1132 C1133 1.404 . S
C1132 C1135 1.539 . S
C1133 C1129 1.408 . S
C1133 C1132 1.404 . S
C1133 H1145 0.930 . S
C1134 C1130 1.524 . S
C1134 H1146 0.956 . S
C1134 H1147 0.961 . S
C1134 H1148 0.961 . S
C1135 C1132 1.539 . S
C1135 H1149 0.958 . S
C1135 H1150 0.961 . S
C1135 H1151 0.960 . S
H1136 C1120 0.931 . S
H1137 C1125 0.929 . S
H1138 C1126 0.960 . S
H1139 C1126 0.962 . S
H1140 C1126 0.960 . S
H1141 C1127 0.961 . S
H1142 C1127 0.961 . S
H1143 C1127 0.961 . S
H1144 C1128 0.931 . S
H1145 C1133 0.930 . S
H1146 C1134 0.956 . S
H1147 C1134 0.961 . S
H1148 C1134 0.961 . S
H1149 C1135 0.958 . S
H1150 C1135 0.961 . S
H1151 C1135 0.960 . S
C1152 C1153 1.391 . S
C1152 C1154 1.394 . S
C1152 H1168 0.931 . S
C1153 C1152 1.391 . S
C1153 C1157 1.376 . S
C1154 C1152 1.394 . S
C1154 C1155 1.369 . S
C1154 C1158 1.531 . S
C1155 C1154 1.369 . S
C1155 C1156 1.410 . S
C1155 C1163 1.503 . S
C1156 C1155 1.410 . S
C1156 C1157 1.392 . S
C1156 C1159 1.511 . S
C1157 C1153 1.376 . S
C1157 C1156 1.392 . S
C1157 H1169 0.929 . S
C1158 C1154 1.531 . S
C1158 H1170 0.960 . S
C1158 H1171 0.962 . S
C1158 H1172 0.960 . S
C1159 C1156 1.511 . S
C1159 H1173 0.961 . S
C1159 H1174 0.961 . S
C1159 H1175 0.961 . S
C1160 C1161 1.370 . S
C1160 C1162 1.363 . S
C1160 H1176 0.931 . S
C1161 C1160 1.370 . S
C1161 C1165 1.408 . S
C1162 C1160 1.363 . S
C1162 C1163 1.370 . S
C1162 C1166 1.524 . S
C1163 C1155 1.503 . S
C1163 C1162 1.370 . S
C1163 C1164 1.403 . S
C1164 C1163 1.403 . S
C1164 C1165 1.404 . S
C1164 C1167 1.539 . S
C1165 C1161 1.408 . S
C1165 C1164 1.404 . S
C1165 H1177 0.930 . S
C1166 C1162 1.524 . S
C1166 H1178 0.956 . S
C1166 H1179 0.961 . S
C1166 H1180 0.961 . S
C1167 C1164 1.539 . S
C1167 H1181 0.958 . S
C1167 H1182 0.961 . S
C1167 H1183 0.960 . S
H1168 C1152 0.931 . S
H1169 C1157 0.929 . S
H1170 C1158 0.960 . S
H1171 C1158 0.962 . S
H1172 C1158 0.960 . S
H1173 C1159 0.961 . S
H1174 C1159 0.961 . S
H1175 C1159 0.961 . S
H1176 C1160 0.931 . S
H1177 C1165 0.930 . S
H1178 C1166 0.956 . S
H1179 C1166 0.961 . S
H1180 C1166 0.961 . S
H1181 C1167 0.958 . S
H1182 C1167 0.961 . S
H1183 C1167 0.960 . S
C1184 C1185 1.391 . S
C1184 C1186 1.394 . S
C1184 H1200 0.931 . S
C1185 C1184 1.391 . S
C1185 C1189 1.376 . S
C1186 C1184 1.394 . S
C1186 C1187 1.369 . S
C1186 C1190 1.531 . S
C1187 C1186 1.369 . S
C1187 C1188 1.410 . S
C1187 C1195 1.503 . S
C1188 C1187 1.410 . S
C1188 C1189 1.392 . S
C1188 C1191 1.511 . S
C1189 C1185 1.376 . S
C1189 C1188 1.392 . S
C1189 H1201 0.929 . S
C1190 C1186 1.531 . S
C1190 H1202 0.960 . S
C1190 H1203 0.962 . S
C1190 H1204 0.960 . S
C1191 C1188 1.511 . S
C1191 H1205 0.961 . S
C1191 H1206 0.961 . S
C1191 H1207 0.961 . S
C1192 C1193 1.370 . S
C1192 C1194 1.363 . S
C1192 H1208 0.931 . S
C1193 C1192 1.370 . S
C1193 C1197 1.408 . S
C1194 C1192 1.363 . S
C1194 C1195 1.370 . S
C1194 C1198 1.524 . S
C1195 C1187 1.503 . S
C1195 C1194 1.370 . S
C1195 C1196 1.403 . S
C1196 C1195 1.403 . S
C1196 C1197 1.404 . S
C1196 C1199 1.539 . S
C1197 C1193 1.408 . S
C1197 C1196 1.404 . S
C1197 H1209 0.930 . S
C1198 C1194 1.524 . S
C1198 H1210 0.956 . S
C1198 H1211 0.961 . S
C1198 H1212 0.961 . S
C1199 C1196 1.539 . S
C1199 H1213 0.958 . S
C1199 H1214 0.961 . S
C1199 H1215 0.960 . S
H1200 C1184 0.931 . S
H1201 C1189 0.929 . S
H1202 C1190 0.960 . S
H1203 C1190 0.962 . S
H1204 C1190 0.960 . S
H1205 C1191 0.961 . S
H1206 C1191 0.961 . S
H1207 C1191 0.961 . S
H1208 C1192 0.931 . S
H1209 C1197 0.930 . S
H1210 C1198 0.956 . S
H1211 C1198 0.961 . S
H1212 C1198 0.961 . S
H1213 C1199 0.958 . S
H1214 C1199 0.961 . S
H1215 C1199 0.960 . S
C1216 C1217 1.391 . S
C1216 C1218 1.394 . S
C1216 H1232 0.931 . S
C1217 C1216 1.391 . S
C1217 C1221 1.376 . S
C1218 C1216 1.394 . S
C1218 C1219 1.369 . S
C1218 C1222 1.531 . S
C1219 C1218 1.369 . S
C1219 C1220 1.410 . S
C1219 C1227 1.503 . S
C1220 C1219 1.410 . S
C1220 C1221 1.392 . S
C1220 C1223 1.511 . S
C1221 C1217 1.376 . S
C1221 C1220 1.392 . S
C1221 H1233 0.929 . S
C1222 C1218 1.531 . S
C1222 H1234 0.960 . S
C1222 H1235 0.962 . S
C1222 H1236 0.960 . S
C1223 C1220 1.511 . S
C1223 H1237 0.961 . S
C1223 H1238 0.961 . S
C1223 H1239 0.961 . S
C1224 C1225 1.370 . S
C1224 C1226 1.363 . S
C1224 H1240 0.931 . S
C1225 C1224 1.370 . S
C1225 C1229 1.408 . S
C1226 C1224 1.363 . S
C1226 C1227 1.370 . S
C1226 C1230 1.524 . S
C1227 C1219 1.503 . S
C1227 C1226 1.370 . S
C1227 C1228 1.403 . S
C1228 C1227 1.403 . S
C1228 C1229 1.404 . S
C1228 C1231 1.539 . S
C1229 C1225 1.408 . S
C1229 C1228 1.404 . S
C1229 H1241 0.930 . S
C1230 C1226 1.524 . S
C1230 H1242 0.956 . S
C1230 H1243 0.961 . S
C1230 H1244 0.961 . S
C1231 C1228 1.539 . S
C1231 H1245 0.958 . S
C1231 H1246 0.961 . S
C1231 H1247 0.960 . S
H1232 C1216 0.931 . S
H1233 C1221 0.929 . S
H1234 C1222 0.960 . S
H1235 C1222 0.962 . S
H1236 C1222 0.960 . S
H1237 C1223 0.961 . S
H1238 C1223 0.961 . S
H1239 C1223 0.961 . S
H1240 C1224 0.931 . S
H1241 C1229 0.930 . S
H1242 C1230 0.956 . S
H1243 C1230 0.961 . S
H1244 C1230 0.961 . S
H1245 C1231 0.958 . S
H1246 C1231 0.961 . S
H1247 C1231 0.960 . S
C1248 C1249 1.391 . S
C1248 C1250 1.394 . S
C1248 H1264 0.931 . S
C1249 C1248 1.391 . S
C1249 C1253 1.376 . S
C1250 C1248 1.394 . S
C1250 C1251 1.369 . S
C1250 C1254 1.531 . S
C1251 C1250 1.369 . S
C1251 C1252 1.410 . S
C1251 C1259 1.503 . S
C1252 C1251 1.410 . S
C1252 C1253 1.392 . S
C1252 C1255 1.511 . S
C1253 C1249 1.376 . S
C1253 C1252 1.392 . S
C1253 H1265 0.929 . S
C1254 C1250 1.531 . S
C1254 H1266 0.960 . S
C1254 H1267 0.962 . S
C1254 H1268 0.960 . S
C1255 C1252 1.511 . S
C1255 H1269 0.961 . S
C1255 H1270 0.961 . S
C1255 H1271 0.961 . S
C1256 C1257 1.370 . S
C1256 C1258 1.363 . S
C1256 H1272 0.931 . S
C1257 C1256 1.370 . S
C1257 C1261 1.408 . S
C1258 C1256 1.363 . S
C1258 C1259 1.370 . S
C1258 C1262 1.524 . S
C1259 C1251 1.503 . S
C1259 C1258 1.370 . S
C1259 C1260 1.403 . S
C1260 C1259 1.403 . S
C1260 C1261 1.404 . S
C1260 C1263 1.539 . S
C1261 C1257 1.408 . S
C1261 C1260 1.404 . S
C1261 H1273 0.930 . S
C1262 C1258 1.524 . S
C1262 H1274 0.956 . S
C1262 H1275 0.961 . S
C1262 H1276 0.961 . S
C1263 C1260 1.539 . S
C1263 H1277 0.958 . S
C1263 H1278 0.961 . S
C1263 H1279 0.960 . S
H1264 C1248 0.931 . S
H1265 C1253 0.929 . S
H1266 C1254 0.960 . S
H1267 C1254 0.962 . S
H1268 C1254 0.960 . S
H1269 C1255 0.961 . S
H1270 C1255 0.961 . S
H1271 C1255 0.961 . S
H1272 C1256 0.931 . S
H1273 C1261 0.930 . S
H1274 C1262 0.956 . S
H1275 C1262 0.961 . S
H1276 C1262 0.961 . S
H1277 C1263 0.958 . S
H1278 C1263 0.961 . S
H1279 C1263 0.960 . S
C1280 C1281 1.391 . S
C1280 C1282 1.394 . S
C1280 H1296 0.931 . S
C1281 C1280 1.391 . S
C1281 C1285 1.376 . S
C1282 C1280 1.394 . S
C1282 C1283 1.369 . S
C1282 C1286 1.531 . S
C1283 C1282 1.369 . S
C1283 C1284 1.410 . S
C1283 C1291 1.503 . S
C1284 C1283 1.410 . S
C1284 C1285 1.392 . S
C1284 C1287 1.511 . S
C1285 C1281 1.376 . S
C1285 C1284 1.392 . S
C1285 H1297 0.929 . S
C1286 C1282 1.531 . S
C1286 H1298 0.960 . S
C1286 H1299 0.962 . S
C1286 H1300 0.960 . S
C1287 C1284 1.511 . S
C1287 H1301 0.961 . S
C1287 H1302 0.961 . S
C1287 H1303 0.961 . S
C1288 C1289 1.370 . S
C1288 C1290 1.363 . S
C1288 H1304 0.931 . S
C1289 C1288 1.370 . S
C1289 C1293 1.408 . S
C1290 C1288 1.363 . S
C1290 C1291 1.370 . S
C1290 C1294 1.524 . S
C1291 C1283 1.503 . S
C1291 C1290 1.370 . S
C1291 C1292 1.403 . S
C1292 C1291 1.403 . S
C1292 C1293 1.404 . S
C1292 C1295 1.539 . S
C1293 C1289 1.408 . S
C1293 C1292 1.404 . S
C1293 H1305 0.930 . S
C1294 C1290 1.524 . S
C1294 H1306 0.956 . S
C1294 H1307 0.961 . S
C1294 H1308 0.961 . S
C1295 C1292 1.539 . S
C1295 H1309 0.958 . S
C1295 H1310 0.961 . S
C1295 H1311 0.960 . S
H1296 C1280 0.931 . S
H1297 C1285 0.929 . S
H1298 C1286 0.960 . S
H1299 C1286 0.962 . S
H1300 C1286 0.960 . S
H1301 C1287 0.961 . S
H1302 C1287 0.961 . S
H1303 C1287 0.961 . S
H1304 C1288 0.931 . S
H1305 C1293 0.930 . S
H1306 C1294 0.956 . S
H1307 C1294 0.961 . S
H1308 C1294 0.961 . S
H1309 C1295 0.958 . S
H1310 C1295 0.961 . S
H1311 C1295 0.960 . S
C1312 C1313 1.391 . S
C1312 C1314 1.394 . S
C1312 H1328 0.931 . S
C1313 C1312 1.391 . S
C1313 C1317 1.376 . S
C1314 C1312 1.394 . S
C1314 C1315 1.369 . S
C1314 C1318 1.531 . S
C1315 C1314 1.369 . S
C1315 C1316 1.410 . S
C1315 C1323 1.503 . S
C1316 C1315 1.410 . S
C1316 C1317 1.392 . S
C1316 C1319 1.511 . S
C1317 C1313 1.376 . S
C1317 C1316 1.392 . S
C1317 H1329 0.929 . S
C1318 C1314 1.531 . S
C1318 H1330 0.960 . S
C1318 H1331 0.962 . S
C1318 H1332 0.960 . S
C1319 C1316 1.511 . S
C1319 H1333 0.961 . S
C1319 H1334 0.961 . S
C1319 H1335 0.961 . S
C1320 C1321 1.370 . S
C1320 C1322 1.363 . S
C1320 H1336 0.931 . S
C1321 C1320 1.370 . S
C1321 C1325 1.408 . S
C1322 C1320 1.363 . S
C1322 C1323 1.370 . S
C1322 C1326 1.524 . S
C1323 C1315 1.503 . S
C1323 C1322 1.370 . S
C1323 C1324 1.403 . S
C1324 C1323 1.403 . S
C1324 C1325 1.404 . S
C1324 C1327 1.539 . S
C1325 C1321 1.408 . S
C1325 C1324 1.404 . S
C1325 H1337 0.930 . S
C1326 C1322 1.524 . S
C1326 H1338 0.956 . S
C1326 H1339 0.961 . S
C1326 H1340 0.961 . S
C1327 C1324 1.539 . S
C1327 H1341 0.958 . S
C1327 H1342 0.961 . S
C1327 H1343 0.960 . S
H1328 C1312 0.931 . S
H1329 C1317 0.929 . S
H1330 C1318 0.960 . S
H1331 C1318 0.962 . S
H1332 C1318 0.960 . S
H1333 C1319 0.961 . S
H1334 C1319 0.961 . S
H1335 C1319 0.961 . S
H1336 C1320 0.931 . S
H1337 C1325 0.930 . S
H1338 C1326 0.956 . S
H1339 C1326 0.961 . S
H1340 C1326 0.961 . S
H1341 C1327 0.958 . S
H1342 C1327 0.961 . S
H1343 C1327 0.960 . S
C1344 C1345 1.391 . S
C1344 C1346 1.394 . S
C1344 H1360 0.931 . S
C1345 C1344 1.391 . S
C1345 C1349 1.376 . S
C1346 C1344 1.394 . S
C1346 C1347 1.369 . S
C1346 C1350 1.531 . S
C1347 C1346 1.369 . S
C1347 C1348 1.410 . S
C1347 C1355 1.503 . S
C1348 C1347 1.410 . S
C1348 C1349 1.392 . S
C1348 C1351 1.511 . S
C1349 C1345 1.376 . S
C1349 C1348 1.392 . S
C1349 H1361 0.929 . S
C1350 C1346 1.531 . S
C1350 H1362 0.960 . S
C1350 H1363 0.962 . S
C1350 H1364 0.960 . S
C1351 C1348 1.511 . S
C1351 H1365 0.961 . S
C1351 H1366 0.961 . S
C1351 H1367 0.961 . S
C1352 C1353 1.370 . S
C1352 C1354 1.363 . S
C1352 H1368 0.931 . S
C1353 C1352 1.370 . S
C1353 C1357 1.408 . S
C1354 C1352 1.363 . S
C1354 C1355 1.370 . S
C1354 C1358 1.524 . S
C1355 C1347 1.503 . S
C1355 C1354 1.370 . S
C1355 C1356 1.403 . S
C1356 C1355 1.403 . S
C1356 C1357 1.404 . S
C1356 C1359 1.539 . S
C1357 C1353 1.408 . S
C1357 C1356 1.404 . S
C1357 H1369 0.930 . S
C1358 C1354 1.524 . S
C1358 H1370 0.956 . S
C1358 H1371 0.961 . S
C1358 H1372 0.961 . S
C1359 C1356 1.539 . S
C1359 H1373 0.958 . S
C1359 H1374 0.961 . S
C1359 H1375 0.960 . S
H1360 C1344 0.931 . S
H1361 C1349 0.929 . S
H1362 C1350 0.960 . S
H1363 C1350 0.962 . S
H1364 C1350 0.960 . S
H1365 C1351 0.961 . S
H1366 C1351 0.961 . S
H1367 C1351 0.961 . S
H1368 C1352 0.931 . S
H1369 C1357 0.930 . S
H1370 C1358 0.956 . S
H1371 C1358 0.961 . S
H1372 C1358 0.961 . S
H1373 C1359 0.958 . S
H1374 C1359 0.961 . S
H1375 C1359 0.960 . S
C1376 C1377 1.391 . S
C1376 C1378 1.394 . S
C1376 H1392 0.931 . S
C1377 C1376 1.391 . S
C1377 C1381 1.376 . S
C1378 C1376 1.394 . S
C1378 C1379 1.369 . S
C1378 C1382 1.531 . S
C1379 C1378 1.369 . S
C1379 C1380 1.410 . S
C1379 C1387 1.503 . S
C1380 C1379 1.410 . S
C1380 C1381 1.392 . S
C1380 C1383 1.511 . S
C1381 C1377 1.376 . S
C1381 C1380 1.392 . S
C1381 H1393 0.929 . S
C1382 C1378 1.531 . S
C1382 H1394 0.960 . S
C1382 H1395 0.962 . S
C1382 H1396 0.960 . S
C1383 C1380 1.511 . S
C1383 H1397 0.961 . S
C1383 H1398 0.961 . S
C1383 H1399 0.961 . S
C1384 C1385 1.370 . S
C1384 C1386 1.363 . S
C1384 H1400 0.931 . S
C1385 C1384 1.370 . S
C1385 C1389 1.408 . S
C1386 C1384 1.363 . S
C1386 C1387 1.370 . S
C1386 C1390 1.524 . S
C1387 C1379 1.503 . S
C1387 C1386 1.370 . S
C1387 C1388 1.403 . S
C1388 C1387 1.403 . S
C1388 C1389 1.404 . S
C1388 C1391 1.539 . S
C1389 C1385 1.408 . S
C1389 C1388 1.404 . S
C1389 H1401 0.930 . S
C1390 C1386 1.524 . S
C1390 H1402 0.956 . S
C1390 H1403 0.961 . S
C1390 H1404 0.961 . S
C1391 C1388 1.539 . S
C1391 H1405 0.958 . S
C1391 H1406 0.961 . S
C1391 H1407 0.960 . S
H1392 C1376 0.931 . S
H1393 C1381 0.929 . S
H1394 C1382 0.960 . S
H1395 C1382 0.962 . S
H1396 C1382 0.960 . S
H1397 C1383 0.961 . S
H1398 C1383 0.961 . S
H1399 C1383 0.961 . S
H1400 C1384 0.931 . S
H1401 C1389 0.930 . S
H1402 C1390 0.956 . S
H1403 C1390 0.961 . S
H1404 C1390 0.961 . S
H1405 C1391 0.958 . S
H1406 C1391 0.961 . S
H1407 C1391 0.960 . S
C1408 C1409 1.391 . S
C1408 C1410 1.394 . S
C1408 H1424 0.931 . S
C1409 C1408 1.391 . S
C1409 C1413 1.376 . S
C1410 C1408 1.394 . S
C1410 C1411 1.369 . S
C1410 C1414 1.531 . S
C1411 C1410 1.369 . S
C1411 C1412 1.410 . S
C1411 C1419 1.503 . S
C1412 C1411 1.410 . S
C1412 C1413 1.392 . S
C1412 C1415 1.511 . S
C1413 C1409 1.376 . S
C1413 C1412 1.392 . S
C1413 H1425 0.929 . S
C1414 C1410 1.531 . S
C1414 H1426 0.960 . S
C1414 H1427 0.962 . S
C1414 H1428 0.960 . S
C1415 C1412 1.511 . S
C1415 H1429 0.961 . S
C1415 H1430 0.961 . S
C1415 H1431 0.961 . S
C1416 C1417 1.370 . S
C1416 C1418 1.363 . S
C1416 H1432 0.931 . S
C1417 C1416 1.370 . S
C1417 C1421 1.408 . S
C1418 C1416 1.363 . S
C1418 C1419 1.370 . S
C1418 C1422 1.524 . S
C1419 C1411 1.503 . S
C1419 C1418 1.370 . S
C1419 C1420 1.403 . S
C1420 C1419 1.403 . S
C1420 C1421 1.404 . S
C1420 C1423 1.539 . S
C1421 C1417 1.408 . S
C1421 C1420 1.404 . S
C1421 H1433 0.930 . S
C1422 C1418 1.524 . S
C1422 H1434 0.956 . S
C1422 H1435 0.961 . S
C1422 H1436 0.961 . S
C1423 C1420 1.539 . S
C1423 H1437 0.958 . S
C1423 H1438 0.961 . S
C1423 H1439 0.960 . S
H1424 C1408 0.931 . S
H1425 C1413 0.929 . S
H1426 C1414 0.960 . S
H1427 C1414 0.962 . S
H1428 C1414 0.960 . S
H1429 C1415 0.961 . S
H1430 C1415 0.961 . S
H1431 C1415 0.961 . S
H1432 C1416 0.931 . S
H1433 C1421 0.930 . S
H1434 C1422 0.956 . S
H1435 C1422 0.961 . S
H1436 C1422 0.961 . S
H1437 C1423 0.958 . S
H1438 C1423 0.961 . S
H1439 C1423 0.960 . S
C1440 C1441 1.391 . S
C1440 C1442 1.394 . S
C1440 H1456 0.931 . S
C1441 C1440 1.391 . S
C1441 C1445 1.376 . S
C1442 C1440 1.394 . S
C1442 C1443 1.369 . S
C1442 C1446 1.531 . S
C1443 C1442 1.369 . S
C1443 C1444 1.410 . S
C1443 C1451 1.503 . S
C1444 C1443 1.410 . S
C1444 C1445 1.392 . S
C1444 C1447 1.511 . S
C1445 C1441 1.376 . S
C1445 C1444 1.392 . S
C1445 H1457 0.929 . S
C1446 C1442 1.531 . S
C1446 H1458 0.960 . S
C1446 H1459 0.962 . S
C1446 H1460 0.960 . S
C1447 C1444 1.511 . S
C1447 H1461 0.961 . S
C1447 H1462 0.961 . S
C1447 H1463 0.961 . S
C1448 C1449 1.370 . S
C1448 C1450 1.363 . S
C1448 H1464 0.931 . S
C1449 C1448 1.370 . S
C1449 C1453 1.408 . S
C1450 C1448 1.363 . S
C1450 C1451 1.370 . S
C1450 C1454 1.524 . S
C1451 C1443 1.503 . S
C1451 C1450 1.370 . S
C1451 C1452 1.403 . S
C1452 C1451 1.403 . S
C1452 C1453 1.404 . S
C1452 C1455 1.539 . S
C1453 C1449 1.408 . S
C1453 C1452 1.404 . S
C1453 H1465 0.930 . S
C1454 C1450 1.524 . S
C1454 H1466 0.956 . S
C1454 H1467 0.961 . S
C1454 H1468 0.961 . S
C1455 C1452 1.539 . S
C1455 H1469 0.958 . S
C1455 H1470 0.961 . S
C1455 H1471 0.960 . S
H1456 C1440 0.931 . S
H1457 C1445 0.929 . S
H1458 C1446 0.960 . S
H1459 C1446 0.962 . S
H1460 C1446 0.960 . S
H1461 C1447 0.961 . S
H1462 C1447 0.961 . S
H1463 C1447 0.961 . S
H1464 C1448 0.931 . S
H1465 C1453 0.930 . S
H1466 C1454 0.956 . S
H1467 C1454 0.961 . S
H1468 C1454 0.961 . S
H1469 C1455 0.958 . S
H1470 C1455 0.961 . S
H1471 C1455 0.960 . S
C1472 C1473 1.391 . S
C1472 C1474 1.394 . S
C1472 H1488 0.931 . S
C1473 C1472 1.391 . S
C1473 C1477 1.376 . S
C1474 C1472 1.394 . S
C1474 C1475 1.369 . S
C1474 C1478 1.531 . S
C1475 C1474 1.369 . S
C1475 C1476 1.410 . S
C1475 C1483 1.503 . S
C1476 C1475 1.410 . S
C1476 C1477 1.392 . S
C1476 C1479 1.511 . S
C1477 C1473 1.376 . S
C1477 C1476 1.392 . S
C1477 H1489 0.929 . S
C1478 C1474 1.531 . S
C1478 H1490 0.960 . S
C1478 H1491 0.962 . S
C1478 H1492 0.960 . S
C1479 C1476 1.511 . S
C1479 H1493 0.961 . S
C1479 H1494 0.961 . S
C1479 H1495 0.961 . S
C1480 C1481 1.370 . S
C1480 C1482 1.363 . S
C1480 H1496 0.931 . S
C1481 C1480 1.370 . S
C1481 C1485 1.408 . S
C1482 C1480 1.363 . S
C1482 C1483 1.370 . S
C1482 C1486 1.524 . S
C1483 C1475 1.503 . S
C1483 C1482 1.370 . S
C1483 C1484 1.403 . S
C1484 C1483 1.403 . S
C1484 C1485 1.404 . S
C1484 C1487 1.539 . S
C1485 C1481 1.408 . S
C1485 C1484 1.404 . S
C1485 H1497 0.930 . S
C1486 C1482 1.524 . S
C1486 H1498 0.956 . S
C1486 H1499 0.961 . S
C1486 H1500 0.961 . S
C1487 C1484 1.539 . S
C1487 H1501 0.958 . S
C1487 H1502 0.961 . S
C1487 H1503 0.960 . S
H1488 C1472 0.931 . S
H1489 C1477 0.929 . S
H1490 C1478 0.960 . S
H1491 C1478 0.962 . S
H1492 C1478 0.960 . S
H1493 C1479 0.961 . S
H1494 C1479 0.961 . S
H1495 C1479 0.961 . S
H1496 C1480 0.931 . S
H1497 C1485 0.930 . S
H1498 C1486 0.956 . S
H1499 C1486 0.961 . S
H1500 C1486 0.961 . S
H1501 C1487 0.958 . S
H1502 C1487 0.961 . S
H1503 C1487 0.960 . S
C1504 C1505 1.391 . S
C1504 C1506 1.394 . S
C1504 H1520 0.931 . S
C1505 C1504 1.391 . S
C1505 C1509 1.376 . S
C1506 C1504 1.394 . S
C1506 C1507 1.369 . S
C1506 C1510 1.531 . S
C1507 C1506 1.369 . S
C1507 C1508 1.410 . S
C1507 C1515 1.503 . S
C1508 C1507 1.410 . S
C1508 C1509 1.392 . S
C1508 C1511 1.511 . S
C1509 C1505 1.376 . S
C1509 C1508 1.392 . S
C1509 H1521 0.929 . S
C1510 C1506 1.531 . S
C1510 H1522 0.960 . S
C1510 H1523 0.962 . S
C1510 H1524 0.960 . S
C1511 C1508 1.511 . S
C1511 H1525 0.961 . S
C1511 H1526 0.961 . S
C1511 H1527 0.961 . S
C1512 C1513 1.370 . S
C1512 C1514 1.363 . S
C1512 H1528 0.931 . S
C1513 C1512 1.370 . S
C1513 C1517 1.408 . S
C1514 C1512 1.363 . S
C1514 C1515 1.370 . S
C1514 C1518 1.524 . S
C1515 C1507 1.503 . S
C1515 C1514 1.370 . S
C1515 C1516 1.403 . S
C1516 C1515 1.403 . S
C1516 C1517 1.404 . S
C1516 C1519 1.539 . S
C1517 C1513 1.408 . S
C1517 C1516 1.404 . S
C1517 H1529 0.930 . S
C1518 C1514 1.524 . S
C1518 H1530 0.956 . S
C1518 H1531 0.961 . S
C1518 H1532 0.961 . S
C1519 C1516 1.539 . S
C1519 H1533 0.958 . S
C1519 H1534 0.961 . S
C1519 H1535 0.960 . S
H1520 C1504 0.931 . S
H1521 C1509 0.929 . S
H1522 C1510 0.960 . S
H1523 C1510 0.962 . S
H1524 C1510 0.960 . S
H1525 C1511 0.961 . S
H1526 C1511 0.961 . S
H1527 C1511 0.961 . S
H1528 C1512 0.931 . S
H1529 C1517 0.930 . S
H1530 C1518 0.956 . S
H1531 C1518 0.961 . S
H1532 C1518 0.961 . S
H1533 C1519 0.958 . S
H1534 C1519 0.961 . S
H1535 C1519 0.960 . S
C1536 C1537 1.391 . S
C1536 C1538 1.394 . S
C1536 H1552 0.931 . S
C1537 C1536 1.391 . S
C1537 C1541 1.376 . S
C1538 C1536 1.394 . S
C1538 C1539 1.369 . S
C1538 C1542 1.531 . S
C1539 C1538 1.369 . S
C1539 C1540 1.410 . S
C1539 C1547 1.503 . S
C1540 C1539 1.410 . S
C1540 C1541 1.392 . S
C1540 C1543 1.511 . S
C1541 C1537 1.376 . S
C1541 C1540 1.392 . S
C1541 H1553 0.929 . S
C1542 C1538 1.531 . S
C1542 H1554 0.960 . S
C1542 H1555 0.962 . S
C1542 H1556 0.960 . S
C1543 C1540 1.511 . S
C1543 H1557 0.961 . S
C1543 H1558 0.961 . S
C1543 H1559 0.961 . S
C1544 C1545 1.370 . S
C1544 C1546 1.363 . S
C1544 H1560 0.931 . S
C1545 C1544 1.370 . S
C1545 C1549 1.408 . S
C1546 C1544 1.363 . S
C1546 C1547 1.370 . S
C1546 C1550 1.524 . S
C1547 C1539 1.503 . S
C1547 C1546 1.370 . S
C1547 C1548 1.403 . S
C1548 C1547 1.403 . S
C1548 C1549 1.404 . S
C1548 C1551 1.539 . S
C1549 C1545 1.408 . S
C1549 C1548 1.404 . S
C1549 H1561 0.930 . S
C1550 C1546 1.524 . S
C1550 H1562 0.956 . S
C1550 H1563 0.961 . S
C1550 H1564 0.961 . S
C1551 C1548 1.539 . S
C1551 H1565 0.958 . S
C1551 H1566 0.961 . S
C1551 H1567 0.960 . S
H1552 C1536 0.931 . S
H1553 C1541 0.929 . S
H1554 C1542 0.960 . S
H1555 C1542 0.962 . S
H1556 C1542 0.960 . S
H1557 C1543 0.961 . S
H1558 C1543 0.961 . S
H1559 C1543 0.961 . S
H1560 C1544 0.931 . S
H1561 C1549 0.930 . S
H1562 C1550 0.956 . S
H1563 C1550 0.961 . S
H1564 C1550 0.961 . S
H1565 C1551 0.958 . S
H1566 C1551 0.961 . S
H1567 C1551 0.960 . S
C1568 C1569 1.391 . S
C1568 C1570 1.394 . S
C1568 H1584 0.931 . S
C1569 C1568 1.391 . S
C1569 C1573 1.376 . S
C1570 C1568 1.394 . S
C1570 C1571 1.369 . S
C1570 C1574 1.531 . S
C1571 C1570 1.369 . S
C1571 C1572 1.410 . S
C1571 C1579 1.503 . S
C1572 C1571 1.410 . S
C1572 C1573 1.392 . S
C1572 C1575 1.511 . S
C1573 C1569 1.376 . S
C1573 C1572 1.392 . S
C1573 H1585 0.929 . S
C1574 C1570 1.531 . S
C1574 H1586 0.960 . S
C1574 H1587 0.962 . S
C1574 H1588 0.960 . S
C1575 C1572 1.511 . S
C1575 H1589 0.961 . S
C1575 H1590 0.961 . S
C1575 H1591 0.961 . S
C1576 C1577 1.370 . S
C1576 C1578 1.363 . S
C1576 H1592 0.931 . S
C1577 C1576 1.370 . S
C1577 C1581 1.408 . S
C1578 C1576 1.363 . S
C1578 C1579 1.370 . S
C1578 C1582 1.524 . S
C1579 C1571 1.503 . S
C1579 C1578 1.370 . S
C1579 C1580 1.403 . S
C1580 C1579 1.403 . S
C1580 C1581 1.404 . S
C1580 C1583 1.539 . S
C1581 C1577 1.408 . S
C1581 C1580 1.404 . S
C1581 H1593 0.930 . S
C1582 C1578 1.524 . S
C1582 H1594 0.956 . S
C1582 H1595 0.961 . S
C1582 H1596 0.961 . S
C1583 C1580 1.539 . S
C1583 H1597 0.958 . S
C1583 H1598 0.961 . S
C1583 H1599 0.960 . S
H1584 C1568 0.931 . S
H1585 C1573 0.929 . S
H1586 C1574 0.960 . S
H1587 C1574 0.962 . S
H1588 C1574 0.960 . S
H1589 C1575 0.961 . S
H1590 C1575 0.961 . S
H1591 C1575 0.961 . S
H1592 C1576 0.931 . S
H1593 C1581 0.930 . S
H1594 C1582 0.956 . S
H1595 C1582 0.961 . S
H1596 C1582 0.961 . S
H1597 C1583 0.958 . S
H1598 C1583 0.961 . S
H1599 C1583 0.960 . S
C1600 C1601 1.391 . S
C1600 C1602 1.394 . S
C1600 H1616 0.931 . S
C1601 C1600 1.391 . S
C1601 C1605 1.376 . S
C1602 C1600 1.394 . S
C1602 C1603 1.369 . S
C1602 C1606 1.531 . S
C1603 C1602 1.369 . S
C1603 C1604 1.410 . S
C1603 C1611 1.503 . S
C1604 C1603 1.410 . S
C1604 C1605 1.392 . S
C1604 C1607 1.511 . S
C1605 C1601 1.376 . S
C1605 C1604 1.392 . S
C1605 H1617 0.929 . S
C1606 C1602 1.531 . S
C1606 H1618 0.960 . S
C1606 H1619 0.962 . S
C1606 H1620 0.960 . S
C1607 C1604 1.511 . S
C1607 H1621 0.961 . S
C1607 H1622 0.961 . S
C1607 H1623 0.961 . S
C1608 C1609 1.370 . S
C1608 C1610 1.363 . S
C1608 H1624 0.931 . S
C1609 C1608 1.370 . S
C1609 C1613 1.408 . S
C1610 C1608 1.363 . S
C1610 C1611 1.370 . S
C1610 C1614 1.524 . S
C1611 C1603 1.503 . S
C1611 C1610 1.370 . S
C1611 C1612 1.403 . S
C1612 C1611 1.403 . S
C1612 C1613 1.404 . S
C1612 C1615 1.539 . S
C1613 C1609 1.408 . S
C1613 C1612 1.404 . S
C1613 H1625 0.930 . S
C1614 C1610 1.524 . S
C1614 H1626 0.956 . S
C1614 H1627 0.961 . S
C1614 H1628 0.961 . S
C1615 C1612 1.539 . S
C1615 H1629 0.958 . S
C1615 H1630 0.961 . S
C1615 H1631 0.960 . S
H1616 C1600 0.931 . S
H1617 C1605 0.929 . S
H1618 C1606 0.960 . S
H1619 C1606 0.962 . S
H1620 C1606 0.960 . S
H1621 C1607 0.961 . S
H1622 C1607 0.961 . S
H1623 C1607 0.961 . S
H1624 C1608 0.931 . S
H1625 C1613 0.930 . S
H1626 C1614 0.956 . S
H1627 C1614 0.961 . S
H1628 C1614 0.961 . S
H1629 C1615 0.958 . S
H1630 C1615 0.961 . S
H1631 C1615 0.960 . S
C1632 C1633 1.391 . S
C1632 C1634 1.394 . S
C1632 H1648 0.931 . S
C1633 C1632 1.391 . S
C1633 C1637 1.376 . S
C1634 C1632 1.394 . S
C1634 C1635 1.369 . S
C1634 C1638 1.531 . S
C1635 C1634 1.369 . S
C1635 C1636 1.410 . S
C1635 C1643 1.503 . S
C1636 C1635 1.410 . S
C1636 C1637 1.392 . S
C1636 C1639 1.511 . S
C1637 C1633 1.376 . S
C1637 C1636 1.392 . S
C1637 H1649 0.929 . S
C1638 C1634 1.531 . S
C1638 H1650 0.960 . S
C1638 H1651 0.962 . S
C1638 H1652 0.960 . S
C1639 C1636 1.511 . S
C1639 H1653 0.961 . S
C1639 H1654 0.961 . S
C1639 H1655 0.961 . S
C1640 C1641 1.370 . S
C1640 C1642 1.363 . S
C1640 H1656 0.931 . S
C1641 C1640 1.370 . S
C1641 C1645 1.408 . S
C1642 C1640 1.363 . S
C1642 C1643 1.370 . S
C1642 C1646 1.524 . S
C1643 C1635 1.503 . S
C1643 C1642 1.370 . S
C1643 C1644 1.403 . S
C1644 C1643 1.403 . S
C1644 C1645 1.404 . S
C1644 C1647 1.539 . S
C1645 C1641 1.408 . S
C1645 C1644 1.404 . S
C1645 H1657 0.930 . S
C1646 C1642 1.524 . S
C1646 H1658 0.956 . S
C1646 H1659 0.961 . S
C1646 H1660 0.961 . S
C1647 C1644 1.539 . S
C1647 H1661 0.958 . S
C1647 H1662 0.961 . S
C1647 H1663 0.960 . S
H1648 C1632 0.931 . S
H1649 C1637 0.929 . S
H1650 C1638 0.960 . S
H1651 C1638 0.962 . S
H1652 C1638 0.960 . S
H1653 C1639 0.961 . S
H1654 C1639 0.961 . S
H1655 C1639 0.961 . S
H1656 C1640 0.931 . S
H1657 C1645 0.930 . S
H1658 C1646 0.956 . S
H1659 C1646 0.961 . S
H1660 C1646 0.961 . S
H1661 C1647 0.958 . S
H1662 C1647 0.961 . S
H1663 C1647 0.960 . S
C1664 C1665 1.391 . S
C1664 C1666 1.394 . S
C1664 H1680 0.931 . S
C1665 C1664 1.391 . S
C1665 C1669 1.376 . S
C1666 C1664 1.394 . S
C1666 C1667 1.369 . S
C1666 C1670 1.531 . S
C1667 C1666 1.369 . S
C1667 C1668 1.410 . S
C1667 C1675 1.503 . S
C1668 C1667 1.410 . S
C1668 C1669 1.392 . S
C1668 C1671 1.511 . S
C1669 C1665 1.376 . S
C1669 C1668 1.392 . S
C1669 H1681 0.929 . S
C1670 C1666 1.531 . S
C1670 H1682 0.960 . S
C1670 H1683 0.962 . S
C1670 H1684 0.960 . S
C1671 C1668 1.511 . S
C1671 H1685 0.961 . S
C1671 H1686 0.961 . S
C1671 H1687 0.961 . S
C1672 C1673 1.370 . S
C1672 C1674 1.363 . S
C1672 H1688 0.931 . S
C1673 C1672 1.370 . S
C1673 C1677 1.408 . S
C1674 C1672 1.363 . S
C1674 C1675 1.370 . S
C1674 C1678 1.524 . S
C1675 C1667 1.503 . S
C1675 C1674 1.370 . S
C1675 C1676 1.403 . S
C1676 C1675 1.403 . S
C1676 C1677 1.404 . S
C1676 C1679 1.539 . S
C1677 C1673 1.408 . S
C1677 C1676 1.404 . S
C1677 H1689 0.930 . S
C1678 C1674 1.524 . S
C1678 H1690 0.956 . S
C1678 H1691 0.961 . S
C1678 H1692 0.961 . S
C1679 C1676 1.539 . S
C1679 H1693 0.958 . S
C1679 H1694 0.961 . S
C1679 H1695 0.960 . S
H1680 C1664 0.931 . S
H1681 C1669 0.929 . S
H1682 C1670 0.960 . S
H1683 C1670 0.962 . S
H1684 C1670 0.960 . S
H1685 C1671 0.961 . S
H1686 C1671 0.961 . S
H1687 C1671 0.961 . S
H1688 C1672 0.931 . S
H1689 C1677 0.930 . S
H1690 C1678 0.956 . S
H1691 C1678 0.961 . S
H1692 C1678 0.961 . S
H1693 C1679 0.958 . S
H1694 C1679 0.961 . S
H1695 C1679 0.960 . S
C1696 C1697 1.391 . S
C1696 C1698 1.394 . S
C1696 H1712 0.931 . S
C1697 C1696 1.391 . S
C1697 C1701 1.376 . S
C1698 C1696 1.394 . S
C1698 C1699 1.369 . S
C1698 C1702 1.531 . S
C1699 C1698 1.369 . S
C1699 C1700 1.410 . S
C1699 C1707 1.503 . S
C1700 C1699 1.410 . S
C1700 C1701 1.392 . S
C1700 C1703 1.511 . S
C1701 C1697 1.376 . S
C1701 C1700 1.392 . S
C1701 H1713 0.926 1_455 S
C1702 C1698 1.531 . S
C1702 H1714 0.960 . S
C1702 H1715 0.962 . S
C1702 H1716 0.960 . S
C1703 C1700 1.511 . S
C1703 H1717 0.961 . S
C1703 H1718 0.961 . S
C1703 H1719 0.961 . S
C1704 C1705 1.370 . S
C1704 C1706 1.363 . S
C1704 H1720 0.931 . S
C1705 C1704 1.370 . S
C1705 C1709 1.408 . S
C1706 C1704 1.363 . S
C1706 C1707 1.370 . S
C1706 C1710 1.524 . S
C1707 C1699 1.503 . S
C1707 C1706 1.370 . S
C1707 C1708 1.403 . S
C1708 C1707 1.403 . S
C1708 C1709 1.404 . S
C1708 C1711 1.539 . S
C1709 C1705 1.408 . S
C1709 C1708 1.404 . S
C1709 H1721 0.930 . S
C1710 C1706 1.524 . S
C1710 H1722 0.956 . S
C1710 H1723 0.961 . S
C1710 H1724 0.961 . S
C1711 C1708 1.539 . S
C1711 H1725 0.958 . S
C1711 H1726 0.961 . S
C1711 H1727 0.960 . S
H1712 C1696 0.931 . S
H1713 C1701 0.926 1_655 S
H1714 C1702 0.960 . S
H1715 C1702 0.962 . S
H1716 C1702 0.960 . S
H1717 C1703 0.961 . S
H1718 C1703 0.961 . S
H1719 C1703 0.961 . S
H1720 C1704 0.931 . S
H1721 C1709 0.930 . S
H1722 C1710 0.956 . S
H1723 C1710 0.961 . S
H1724 C1710 0.961 . S
H1725 C1711 0.958 . S
H1726 C1711 0.961 . S
H1727 C1711 0.960 . S
C1728 C1729 1.391 . S
C1728 C1730 1.394 . S
C1728 H1744 0.931 . S
C1729 C1728 1.391 . S
C1729 C1733 1.376 . S
C1730 C1728 1.394 . S
C1730 C1731 1.369 . S
C1730 C1734 1.531 . S
C1731 C1730 1.369 . S
C1731 C1732 1.410 . S
C1731 C1739 1.503 . S
C1732 C1731 1.410 . S
C1732 C1733 1.392 . S
C1732 C1735 1.511 . S
C1733 C1729 1.376 . S
C1733 C1732 1.392 . S
C1733 H1745 0.929 . S
C1734 C1730 1.531 . S
C1734 H1746 0.960 . S
C1734 H1747 0.962 . S
C1734 H1748 0.960 . S
C1735 C1732 1.511 . S
C1735 H1749 0.961 . S
C1735 H1750 0.961 . S
C1735 H1751 0.961 . S
C1736 C1737 1.370 . S
C1736 C1738 1.363 . S
C1736 H1752 0.931 . S
C1737 C1736 1.370 . S
C1737 C1741 1.408 . S
C1738 C1736 1.363 . S
C1738 C1739 1.370 . S
C1738 C1742 1.524 . S
C1739 C1731 1.503 . S
C1739 C1738 1.370 . S
C1739 C1740 1.403 . S
C1740 C1739 1.403 . S
C1740 C1741 1.404 . S
C1740 C1743 1.539 . S
C1741 C1737 1.408 . S
C1741 C1740 1.404 . S
C1741 H1753 0.930 . S
C1742 C1738 1.524 . S
C1742 H1754 0.956 . S
C1742 H1755 0.961 . S
C1742 H1756 0.961 . S
C1743 C1740 1.539 . S
C1743 H1757 0.958 . S
C1743 H1758 0.961 . S
C1743 H1759 0.960 . S
H1744 C1728 0.931 . S
H1745 C1733 0.929 . S
H1746 C1734 0.960 . S
H1747 C1734 0.962 . S
H1748 C1734 0.960 . S
H1749 C1735 0.961 . S
H1750 C1735 0.961 . S
H1751 C1735 0.961 . S
H1752 C1736 0.931 . S
H1753 C1741 0.930 . S
H1754 C1742 0.956 . S
H1755 C1742 0.961 . S
H1756 C1742 0.961 . S
H1757 C1743 0.958 . S
H1758 C1743 0.961 . S
H1759 C1743 0.960 . S
C1760 C1761 1.391 . S
C1760 C1762 1.394 . S
C1760 H1776 0.931 . S
C1761 C1760 1.391 . S
C1761 C1765 1.376 . S
C1762 C1760 1.394 . S
C1762 C1763 1.369 . S
C1762 C1766 1.531 . S
C1763 C1762 1.369 . S
C1763 C1764 1.410 . S
C1763 C1771 1.503 . S
C1764 C1763 1.410 . S
C1764 C1765 1.392 . S
C1764 C1767 1.511 . S
C1765 C1761 1.376 . S
C1765 C1764 1.392 . S
C1765 H1777 0.929 . S
C1766 C1762 1.531 . S
C1766 H1778 0.960 . S
C1766 H1779 0.962 . S
C1766 H1780 0.960 . S
C1767 C1764 1.511 . S
C1767 H1781 0.961 . S
C1767 H1782 0.961 . S
C1767 H1783 0.961 . S
C1768 C1769 1.370 . S
C1768 C1770 1.363 . S
C1768 H1784 0.931 . S
C1769 C1768 1.370 . S
C1769 C1773 1.408 . S
C1770 C1768 1.363 . S
C1770 C1771 1.370 . S
C1770 C1774 1.524 . S
C1771 C1763 1.503 . S
C1771 C1770 1.370 . S
C1771 C1772 1.403 . S
C1772 C1771 1.403 . S
C1772 C1773 1.404 . S
C1772 C1775 1.539 . S
C1773 C1769 1.408 . S
C1773 C1772 1.404 . S
C1773 H1785 0.930 . S
C1774 C1770 1.524 . S
C1774 H1786 0.956 . S
C1774 H1787 0.961 . S
C1774 H1788 0.961 . S
C1775 C1772 1.539 . S
C1775 H1789 0.958 . S
C1775 H1790 0.961 . S
C1775 H1791 0.960 . S
H1776 C1760 0.931 . S
H1777 C1765 0.929 . S
H1778 C1766 0.960 . S
H1779 C1766 0.962 . S
H1780 C1766 0.960 . S
H1781 C1767 0.961 . S
H1782 C1767 0.961 . S
H1783 C1767 0.961 . S
H1784 C1768 0.931 . S
H1785 C1773 0.930 . S
H1786 C1774 0.956 . S
H1787 C1774 0.961 . S
H1788 C1774 0.961 . S
H1789 C1775 0.958 . S
H1790 C1775 0.961 . S
H1791 C1775 0.960 . S
C1792 C1793 1.391 . S
C1792 C1794 1.394 . S
C1792 H1808 0.931 . S
C1793 C1792 1.391 . S
C1793 C1797 1.376 . S
C1794 C1792 1.394 . S
C1794 C1795 1.369 . S
C1794 C1798 1.531 . S
C1795 C1794 1.369 . S
C1795 C1796 1.410 . S
C1795 C1803 1.503 . S
C1796 C1795 1.410 . S
C1796 C1797 1.392 . S
C1796 C1799 1.511 . S
C1797 C1793 1.376 . S
C1797 C1796 1.392 . S
C1797 H1809 0.929 . S
C1798 C1794 1.531 . S
C1798 H1810 0.960 . S
C1798 H1811 0.962 . S
C1798 H1812 0.960 . S
C1799 C1796 1.511 . S
C1799 H1813 0.961 . S
C1799 H1814 0.961 . S
C1799 H1815 0.961 . S
C1800 C1801 1.370 . S
C1800 C1802 1.363 . S
C1800 H1816 0.931 . S
C1801 C1800 1.370 . S
C1801 C1805 1.408 . S
C1802 C1800 1.363 . S
C1802 C1803 1.370 . S
C1802 C1806 1.524 . S
C1803 C1795 1.503 . S
C1803 C1802 1.370 . S
C1803 C1804 1.403 . S
C1804 C1803 1.403 . S
C1804 C1805 1.404 . S
C1804 C1807 1.539 . S
C1805 C1801 1.408 . S
C1805 C1804 1.404 . S
C1805 H1817 0.930 . S
C1806 C1802 1.524 . S
C1806 H1818 0.956 . S
C1806 H1819 0.961 . S
C1806 H1820 0.961 . S
C1807 C1804 1.539 . S
C1807 H1821 0.958 . S
C1807 H1822 0.961 . S
C1807 H1823 0.960 . S
H1808 C1792 0.931 . S
H1809 C1797 0.929 . S
H1810 C1798 0.960 . S
H1811 C1798 0.962 . S
H1812 C1798 0.960 . S
H1813 C1799 0.961 . S
H1814 C1799 0.961 . S
H1815 C1799 0.961 . S
H1816 C1800 0.931 . S
H1817 C1805 0.930 . S
H1818 C1806 0.956 . S
H1819 C1806 0.961 . S
H1820 C1806 0.961 . S
H1821 C1807 0.958 . S
H1822 C1807 0.961 . S
H1823 C1807 0.960 . S
C1824 C1825 1.391 . S
C1824 C1826 1.394 . S
C1824 H1840 0.931 . S
C1825 C1824 1.391 . S
C1825 C1829 1.376 . S
C1826 C1824 1.394 . S
C1826 C1827 1.369 . S
C1826 C1830 1.531 . S
C1827 C1826 1.369 . S
C1827 C1828 1.410 . S
C1827 C1835 1.503 . S
C1828 C1827 1.410 . S
C1828 C1829 1.392 . S
C1828 C1831 1.511 . S
C1829 C1825 1.376 . S
C1829 C1828 1.392 . S
C1829 H1841 0.929 . S
C1830 C1826 1.531 . S
C1830 H1842 0.960 . S
C1830 H1843 0.962 . S
C1830 H1844 0.960 . S
C1831 C1828 1.511 . S
C1831 H1845 0.961 . S
C1831 H1846 0.961 . S
C1831 H1847 0.961 . S
C1832 C1833 1.370 . S
C1832 C1834 1.363 . S
C1832 H1848 0.931 . S
C1833 C1832 1.370 . S
C1833 C1837 1.408 . S
C1834 C1832 1.363 . S
C1834 C1835 1.370 . S
C1834 C1838 1.524 . S
C1835 C1827 1.503 . S
C1835 C1834 1.370 . S
C1835 C1836 1.403 . S
C1836 C1835 1.403 . S
C1836 C1837 1.404 . S
C1836 C1839 1.539 . S
C1837 C1833 1.408 . S
C1837 C1836 1.404 . S
C1837 H1849 0.930 . S
C1838 C1834 1.524 . S
C1838 H1850 0.956 . S
C1838 H1851 0.961 . S
C1838 H1852 0.961 . S
C1839 C1836 1.539 . S
C1839 H1853 0.958 . S
C1839 H1854 0.961 . S
C1839 H1855 0.960 . S
H1840 C1824 0.931 . S
H1841 C1829 0.929 . S
H1842 C1830 0.960 . S
H1843 C1830 0.962 . S
H1844 C1830 0.960 . S
H1845 C1831 0.961 . S
H1846 C1831 0.961 . S
H1847 C1831 0.961 . S
H1848 C1832 0.931 . S
H1849 C1837 0.930 . S
H1850 C1838 0.956 . S
H1851 C1838 0.961 . S
H1852 C1838 0.961 . S
H1853 C1839 0.958 . S
H1854 C1839 0.961 . S
H1855 C1839 0.960 . S
C1856 C1857 1.391 . S
C1856 C1858 1.394 . S
C1856 H1872 0.931 . S
C1857 C1856 1.391 . S
C1857 C1861 1.376 . S
C1858 C1856 1.394 . S
C1858 C1859 1.369 . S
C1858 C1862 1.531 . S
C1859 C1858 1.369 . S
C1859 C1860 1.410 . S
C1859 C1867 1.503 . S
C1860 C1859 1.410 . S
C1860 C1861 1.392 . S
C1860 C1863 1.511 . S
C1861 C1857 1.376 . S
C1861 C1860 1.392 . S
C1861 H1873 0.929 . S
C1862 C1858 1.531 . S
C1862 H1874 0.960 . S
C1862 H1875 0.962 . S
C1862 H1876 0.960 . S
C1863 C1860 1.511 . S
C1863 H1877 0.961 . S
C1863 H1878 0.961 . S
C1863 H1879 0.961 . S
C1864 C1865 1.370 . S
C1864 C1866 1.363 . S
C1864 H1880 0.931 . S
C1865 C1864 1.370 . S
C1865 C1869 1.408 . S
C1866 C1864 1.363 . S
C1866 C1867 1.370 . S
C1866 C1870 1.524 . S
C1867 C1859 1.503 . S
C1867 C1866 1.370 . S
C1867 C1868 1.403 . S
C1868 C1867 1.403 . S
C1868 C1869 1.404 . S
C1868 C1871 1.539 . S
C1869 C1865 1.408 . S
C1869 C1868 1.404 . S
C1869 H1881 0.930 . S
C1870 C1866 1.524 . S
C1870 H1882 0.956 . S
C1870 H1883 0.961 . S
C1870 H1884 0.961 . S
C1871 C1868 1.539 . S
C1871 H1885 0.958 . S
C1871 H1886 0.961 . S
C1871 H1887 0.960 . S
H1872 C1856 0.931 . S
H1873 C1861 0.929 . S
H1874 C1862 0.960 . S
H1875 C1862 0.962 . S
H1876 C1862 0.960 . S
H1877 C1863 0.961 . S
H1878 C1863 0.961 . S
H1879 C1863 0.961 . S
H1880 C1864 0.931 . S
H1881 C1869 0.930 . S
H1882 C1870 0.956 . S
H1883 C1870 0.961 . S
H1884 C1870 0.961 . S
H1885 C1871 0.958 . S
H1886 C1871 0.961 . S
H1887 C1871 0.960 . S
C1888 C1889 1.391 . S
C1888 C1890 1.394 . S
C1888 H1904 0.931 . S
C1889 C1888 1.391 . S
C1889 C1893 1.376 . S
C1890 C1888 1.394 . S
C1890 C1891 1.369 . S
C1890 C1894 1.531 . S
C1891 C1890 1.369 . S
C1891 C1892 1.410 . S
C1891 C1899 1.503 . S
C1892 C1891 1.410 . S
C1892 C1893 1.392 . S
C1892 C1895 1.511 . S
C1893 C1889 1.376 . S
C1893 C1892 1.392 . S
C1893 H1905 0.929 . S
C1894 C1890 1.531 . S
C1894 H1906 0.960 . S
C1894 H1907 0.962 . S
C1894 H1908 0.960 . S
C1895 C1892 1.511 . S
C1895 H1909 0.961 . S
C1895 H1910 0.961 . S
C1895 H1911 0.961 . S
C1896 C1897 1.370 . S
C1896 C1898 1.363 . S
C1896 H1912 0.931 . S
C1897 C1896 1.370 . S
C1897 C1901 1.408 . S
C1898 C1896 1.363 . S
C1898 C1899 1.370 . S
C1898 C1902 1.524 . S
C1899 C1891 1.503 . S
C1899 C1898 1.370 . S
C1899 C1900 1.403 . S
C1900 C1899 1.403 . S
C1900 C1901 1.404 . S
C1900 C1903 1.539 . S
C1901 C1897 1.408 . S
C1901 C1900 1.404 . S
C1901 H1913 0.930 . S
C1902 C1898 1.524 . S
C1902 H1914 0.956 . S
C1902 H1915 0.961 . S
C1902 H1916 0.961 . S
C1903 C1900 1.539 . S
C1903 H1917 0.958 . S
C1903 H1918 0.961 . S
C1903 H1919 0.960 . S
H1904 C1888 0.931 . S
H1905 C1893 0.929 . S
H1906 C1894 0.960 . S
H1907 C1894 0.962 . S
H1908 C1894 0.960 . S
H1909 C1895 0.961 . S
H1910 C1895 0.961 . S
H1911 C1895 0.961 . S
H1912 C1896 0.931 . S
H1913 C1901 0.930 . S
H1914 C1902 0.956 . S
H1915 C1902 0.961 . S
H1916 C1902 0.961 . S
H1917 C1903 0.958 . S
H1918 C1903 0.961 . S
H1919 C1903 0.960 . S
C1920 C1921 1.391 . S
C1920 C1922 1.394 . S
C1920 H1936 0.931 . S
C1921 C1920 1.391 . S
C1921 C1925 1.376 . S
C1922 C1920 1.394 . S
C1922 C1923 1.369 . S
C1922 C1926 1.531 . S
C1923 C1922 1.369 . S
C1923 C1924 1.410 . S
C1923 C1931 1.503 . S
C1924 C1923 1.410 . S
C1924 C1925 1.392 . S
C1924 C1927 1.511 . S
C1925 C1921 1.376 . S
C1925 C1924 1.392 . S
C1925 H1937 0.929 . S
C1926 C1922 1.531 . S
C1926 H1938 0.960 . S
C1926 H1939 0.962 . S
C1926 H1940 0.960 . S
C1927 C1924 1.511 . S
C1927 H1941 0.961 . S
C1927 H1942 0.961 . S
C1927 H1943 0.961 . S
C1928 C1929 1.370 . S
C1928 C1930 1.363 . S
C1928 H1944 0.931 . S
C1929 C1928 1.370 . S
C1929 C1933 1.408 . S
C1930 C1928 1.363 . S
C1930 C1931 1.370 . S
C1930 C1934 1.524 . S
C1931 C1923 1.503 . S
C1931 C1930 1.370 . S
C1931 C1932 1.403 . S
C1932 C1931 1.403 . S
C1932 C1933 1.404 . S
C1932 C1935 1.539 . S
C1933 C1929 1.408 . S
C1933 C1932 1.404 . S
C1933 H1945 0.930 . S
C1934 C1930 1.524 . S
C1934 H1946 0.956 . S
C1934 H1947 0.961 . S
C1934 H1948 0.961 . S
C1935 C1932 1.539 . S
C1935 H1949 0.958 . S
C1935 H1950 0.961 . S
C1935 H1951 0.960 . S
H1936 C1920 0.931 . S
H1937 C1925 0.929 . S
H1938 C1926 0.960 . S
H1939 C1926 0.962 . S
H1940 C1926 0.960 . S
H1941 C1927 0.961 . S
H1942 C1927 0.961 . S
H1943 C1927 0.961 . S
H1944 C1928 0.931 . S
H1945 C1933 0.930 . S
H1946 C1934 0.956 . S
H1947 C1934 0.961 . S
H1948 C1934 0.961 . S
H1949 C1935 0.958 . S
H1950 C1935 0.961 . S
H1951 C1935 0.960 . S
C1952 C1953 1.391 . S
C1952 C1954 1.394 . S
C1952 H1968 0.931 . S
C1953 C1952 1.391 . S
C1953 C1957 1.376 . S
C1954 C1952 1.394 . S
C1954 C1955 1.369 . S
C1954 C1958 1.531 . S
C1955 C1954 1.369 . S
C1955 C1956 1.410 . S
C1955 C1963 1.503 . S
C1956 C1955 1.410 . S
C1956 C1957 1.392 . S
C1956 C1959 1.511 . S
C1957 C1953 1.376 . S
C1957 C1956 1.392 . S
C1957 H1969 0.929 . S
C1958 C1954 1.531 . S
C1958 H1970 0.960 . S
C1958 H1971 0.962 . S
C1958 H1972 0.960 . S
C1959 C1956 1.511 . S
C1959 H1973 0.961 . S
C1959 H1974 0.961 . S
C1959 H1975 0.961 . S
C1960 C1961 1.370 . S
C1960 C1962 1.363 . S
C1960 H1976 0.931 . S
C1961 C1960 1.370 . S
C1961 C1965 1.408 . S
C1962 C1960 1.363 . S
C1962 C1963 1.370 . S
C1962 C1966 1.524 . S
C1963 C1955 1.503 . S
C1963 C1962 1.370 . S
C1963 C1964 1.403 . S
C1964 C1963 1.403 . S
C1964 C1965 1.404 . S
C1964 C1967 1.539 . S
C1965 C1961 1.408 . S
C1965 C1964 1.404 . S
C1965 H1977 0.930 . S
C1966 C1962 1.524 . S
C1966 H1978 0.956 . S
C1966 H1979 0.961 . S
C1966 H1980 0.961 . S
C1967 C1964 1.539 . S
C1967 H1981 0.958 . S
C1967 H1982 0.961 . S
C1967 H1983 0.960 . S
H1968 C1952 0.931 . S
H1969 C1957 0.929 . S
H1970 C1958 0.960 . S
H1971 C1958 0.962 . S
H1972 C1958 0.960 . S
H1973 C1959 0.961 . S
H1974 C1959 0.961 . S
H1975 C1959 0.961 . S
H1976 C1960 0.931 . S
H1977 C1965 0.930 . S
H1978 C1966 0.956 . S
H1979 C1966 0.961 . S
H1980 C1966 0.961 . S
H1981 C1967 0.958 . S
H1982 C1967 0.961 . S
H1983 C1967 0.960 . S
C1984 C1985 1.391 . S
C1984 C1986 1.394 . S
C1984 H2000 0.931 . S
C1985 C1984 1.391 . S
C1985 C1989 1.376 . S
C1986 C1984 1.394 . S
C1986 C1987 1.369 . S
C1986 C1990 1.531 . S
C1987 C1986 1.369 . S
C1987 C1988 1.410 . S
C1987 C1995 1.503 . S
C1988 C1987 1.410 . S
C1988 C1989 1.392 . S
C1988 C1991 1.511 . S
C1989 C1985 1.376 . S
C1989 C1988 1.392 . S
C1989 H2001 0.929 . S
C1990 C1986 1.531 . S
C1990 H2002 0.960 . S
C1990 H2003 0.962 . S
C1990 H2004 0.960 . S
C1991 C1988 1.511 . S
C1991 H2005 0.961 . S
C1991 H2006 0.961 . S
C1991 H2007 0.961 . S
C1992 C1993 1.370 . S
C1992 C1994 1.363 . S
C1992 H2008 0.931 . S
C1993 C1992 1.370 . S
C1993 C1997 1.408 . S
C1994 C1992 1.363 . S
C1994 C1995 1.370 . S
C1994 C1998 1.524 . S
C1995 C1987 1.503 . S
C1995 C1994 1.370 . S
C1995 C1996 1.403 . S
C1996 C1995 1.403 . S
C1996 C1997 1.404 . S
C1996 C1999 1.539 . S
C1997 C1993 1.408 . S
C1997 C1996 1.404 . S
C1997 H2009 0.930 . S
C1998 C1994 1.524 . S
C1998 H2010 0.956 . S
C1998 H2011 0.961 . S
C1998 H2012 0.961 . S
C1999 C1996 1.539 . S
C1999 H2013 0.958 . S
C1999 H2014 0.961 . S
C1999 H2015 0.960 . S
H2000 C1984 0.931 . S
H2001 C1989 0.929 . S
H2002 C1990 0.960 . S
H2003 C1990 0.962 . S
H2004 C1990 0.960 . S
H2005 C1991 0.961 . S
H2006 C1991 0.961 . S
H2007 C1991 0.961 . S
H2008 C1992 0.931 . S
H2009 C1997 0.930 . S
H2010 C1998 0.956 . S
H2011 C1998 0.961 . S
H2012 C1998 0.961 . S
H2013 C1999 0.958 . S
H2014 C1999 0.961 . S
H2015 C1999 0.960 . S
C2016 C2017 1.391 . S
C2016 C2018 1.394 . S
C2016 H2032 0.931 . S
C2017 C2016 1.391 . S
C2017 C2021 1.376 . S
C2018 C2016 1.394 . S
C2018 C2019 1.369 . S
C2018 C2022 1.531 . S
C2019 C2018 1.369 . S
C2019 C2020 1.410 . S
C2019 C2027 1.503 . S
C2020 C2019 1.410 . S
C2020 C2021 1.392 . S
C2020 C2023 1.511 . S
C2021 C2017 1.376 . S
C2021 C2020 1.392 . S
C2021 H2033 0.929 . S
C2022 C2018 1.531 . S
C2022 H2034 0.960 . S
C2022 H2035 0.962 . S
C2022 H2036 0.960 . S
C2023 C2020 1.511 . S
C2023 H2037 0.961 . S
C2023 H2038 0.961 . S
C2023 H2039 0.961 . S
C2024 C2025 1.370 . S
C2024 C2026 1.363 . S
C2024 H2040 0.931 . S
C2025 C2024 1.370 . S
C2025 C2029 1.408 . S
C2026 C2024 1.363 . S
C2026 C2027 1.370 . S
C2026 C2030 1.524 . S
C2027 C2019 1.503 . S
C2027 C2026 1.370 . S
C2027 C2028 1.403 . S
C2028 C2027 1.403 . S
C2028 C2029 1.404 . S
C2028 C2031 1.539 . S
C2029 C2025 1.408 . S
C2029 C2028 1.404 . S
C2029 H2041 0.930 . S
C2030 C2026 1.524 . S
C2030 H2042 0.956 . S
C2030 H2043 0.961 . S
C2030 H2044 0.961 . S
C2031 C2028 1.539 . S
C2031 H2045 0.958 . S
C2031 H2046 0.961 . S
C2031 H2047 0.960 . S
H2032 C2016 0.931 . S
H2033 C2021 0.929 . S
H2034 C2022 0.960 . S
H2035 C2022 0.962 . S
H2036 C2022 0.960 . S
H2037 C2023 0.961 . S
H2038 C2023 0.961 . S
H2039 C2023 0.961 . S
H2040 C2024 0.931 . S
H2041 C2029 0.930 . S
H2042 C2030 0.956 . S
H2043 C2030 0.961 . S
H2044 C2030 0.961 . S
H2045 C2031 0.958 . S
H2046 C2031 0.961 . S
H2047 C2031 0.960 . S
C2048 C2049 1.391 . S
C2048 C2050 1.394 . S
C2048 H2064 0.931 . S
C2049 C2048 1.391 . S
C2049 C2053 1.376 . S
C2050 C2048 1.394 . S
C2050 C2051 1.369 . S
C2050 C2054 1.531 . S
C2051 C2050 1.369 . S
C2051 C2052 1.410 . S
C2051 C2059 1.503 . S
C2052 C2051 1.410 . S
C2052 C2053 1.392 . S
C2052 C2055 1.511 . S
C2053 C2049 1.376 . S
C2053 C2052 1.392 . S
C2053 H2065 0.929 . S
C2054 C2050 1.531 . S
C2054 H2066 0.960 . S
C2054 H2067 0.962 . S
C2054 H2068 0.960 . S
C2055 C2052 1.511 . S
C2055 H2069 0.961 . S
C2055 H2070 0.961 . S
C2055 H2071 0.961 . S
C2056 C2057 1.370 . S
C2056 C2058 1.363 . S
C2056 H2072 0.931 . S
C2057 C2056 1.370 . S
C2057 C2061 1.408 . S
C2058 C2056 1.363 . S
C2058 C2059 1.370 . S
C2058 C2062 1.524 . S
C2059 C2051 1.503 . S
C2059 C2058 1.370 . S
C2059 C2060 1.403 . S
C2060 C2059 1.403 . S
C2060 C2061 1.404 . S
C2060 C2063 1.539 . S
C2061 C2057 1.408 . S
C2061 C2060 1.404 . S
C2061 H2073 0.930 . S
C2062 C2058 1.524 . S
C2062 H2074 0.956 . S
C2062 H2075 0.961 . S
C2062 H2076 0.961 . S
C2063 C2060 1.539 . S
C2063 H2077 0.958 . S
C2063 H2078 0.961 . S
C2063 H2079 0.960 . S
H2064 C2048 0.931 . S
H2065 C2053 0.929 . S
H2066 C2054 0.960 . S
H2067 C2054 0.962 . S
H2068 C2054 0.960 . S
H2069 C2055 0.961 . S
H2070 C2055 0.961 . S
H2071 C2055 0.961 . S
H2072 C2056 0.931 . S
H2073 C2061 0.930 . S
H2074 C2062 0.956 . S
H2075 C2062 0.961 . S
H2076 C2062 0.961 . S
H2077 C2063 0.958 . S
H2078 C2063 0.961 . S
H2079 C2063 0.960 . S
C2080 C2081 1.391 . S
C2080 C2082 1.394 . S
C2080 H2096 0.931 . S
C2081 C2080 1.391 . S
C2081 C2085 1.376 . S
C2082 C2080 1.394 . S
C2082 C2083 1.369 . S
C2082 C2086 1.531 . S
C2083 C2082 1.369 . S
C2083 C2084 1.410 . S
C2083 C2091 1.503 . S
C2084 C2083 1.410 . S
C2084 C2085 1.392 . S
C2084 C2087 1.511 . S
C2085 C2081 1.376 . S
C2085 C2084 1.392 . S
C2085 H2097 0.929 . S
C2086 C2082 1.531 . S
C2086 H2098 0.960 . S
C2086 H2099 0.962 . S
C2086 H2100 0.960 . S
C2087 C2084 1.511 . S
C2087 H2101 0.961 . S
C2087 H2102 0.961 . S
C2087 H2103 0.961 . S
C2088 C2089 1.370 . S
C2088 C2090 1.363 . S
C2088 H2104 0.931 . S
C2089 C2088 1.370 . S
C2089 C2093 1.408 . S
C2090 C2088 1.363 . S
C2090 C2091 1.370 . S
C2090 C2094 1.524 . S
C2091 C2083 1.503 . S
C2091 C2090 1.370 . S
C2091 C2092 1.403 . S
C2092 C2091 1.403 . S
C2092 C2093 1.404 . S
C2092 C2095 1.539 . S
C2093 C2089 1.408 . S
C2093 C2092 1.404 . S
C2093 H2105 0.930 . S
C2094 C2090 1.524 . S
C2094 H2106 0.956 . S
C2094 H2107 0.961 . S
C2094 H2108 0.961 . S
C2095 C2092 1.539 . S
C2095 H2109 0.958 . S
C2095 H2110 0.961 . S
C2095 H2111 0.960 . S
H2096 C2080 0.931 . S
H2097 C2085 0.929 . S
H2098 C2086 0.960 . S
H2099 C2086 0.962 . S
H2100 C2086 0.960 . S
H2101 C2087 0.961 . S
H2102 C2087 0.961 . S
H2103 C2087 0.961 . S
H2104 C2088 0.931 . S
H2105 C2093 0.930 . S
H2106 C2094 0.956 . S
H2107 C2094 0.961 . S
H2108 C2094 0.961 . S
H2109 C2095 0.958 . S
H2110 C2095 0.961 . S
H2111 C2095 0.960 . S
C2112 C2113 1.391 . S
C2112 C2114 1.394 . S
C2112 H2128 0.931 . S
C2113 C2112 1.391 . S
C2113 C2117 1.376 . S
C2114 C2112 1.394 . S
C2114 C2115 1.369 . S
C2114 C2118 1.531 . S
C2115 C2114 1.369 . S
C2115 C2116 1.410 . S
C2115 C2123 1.503 1_545 S
C2116 C2115 1.410 . S
C2116 C2117 1.392 . S
C2116 C2119 1.511 1_545 S
C2117 C2113 1.376 . S
C2117 C2116 1.392 . S
C2117 H2129 0.929 . S
C2118 C2114 1.531 . S
C2118 H2130 0.960 . S
C2118 H2131 0.962 . S
C2118 H2132 0.960 . S
C2119 C2116 1.511 1_565 S
C2119 H2133 0.961 . S
C2119 H2134 0.961 . S
C2119 H2135 0.961 . S
C2120 C2121 1.370 . S
C2120 C2122 1.363 . S
C2120 H2136 0.931 . S
C2121 C2120 1.370 . S
C2121 C2125 1.408 . S
C2122 C2120 1.363 . S
C2122 C2123 1.370 . S
C2122 C2126 1.524 . S
C2123 C2115 1.503 1_565 S
C2123 C2122 1.370 . S
C2123 C2124 1.403 . S
C2124 C2123 1.403 . S
C2124 C2125 1.404 . S
C2124 C2127 1.539 1_565 S
C2125 C2121 1.408 . S
C2125 C2124 1.404 . S
C2125 H2137 0.930 . S
C2126 C2122 1.524 . S
C2126 H2138 0.956 . S
C2126 H2139 0.961 . S
C2126 H2140 0.961 . S
C2127 C2124 1.539 1_545 S
C2127 H2141 0.958 . S
C2127 H2142 0.961 . S
C2127 H2143 0.960 . S
H2128 C2112 0.931 . S
H2129 C2117 0.929 . S
H2130 C2118 0.960 . S
H2131 C2118 0.962 . S
H2132 C2118 0.960 . S
H2133 C2119 0.961 . S
H2134 C2119 0.961 . S
H2135 C2119 0.961 . S
H2136 C2120 0.931 . S
H2137 C2125 0.930 . S
H2138 C2126 0.956 . S
H2139 C2126 0.961 . S
H2140 C2126 0.961 . S
H2141 C2127 0.958 . S
H2142 C2127 0.961 . S
H2143 C2127 0.960 . S
C2144 C2145 1.391 . S
C2144 C2146 1.394 . S
C2144 H2160 0.931 . S
C2145 C2144 1.391 . S
C2145 C2149 1.376 . S
C2146 C2144 1.394 . S
C2146 C2147 1.369 . S
C2146 C2150 1.531 . S
C2147 C2146 1.369 . S
C2147 C2148 1.410 . S
C2147 C2155 1.503 . S
C2148 C2147 1.410 . S
C2148 C2149 1.392 . S
C2148 C2151 1.511 . S
C2149 C2145 1.376 . S
C2149 C2148 1.392 . S
C2149 H2161 0.929 . S
C2150 C2146 1.531 . S
C2150 H2162 0.960 . S
C2150 H2163 0.962 . S
C2150 H2164 0.960 . S
C2151 C2148 1.511 . S
C2151 H2165 0.961 1_565 S
C2151 H2166 0.961 . S
C2151 H2167 0.961 . S
C2152 C2153 1.370 . S
C2152 C2154 1.363 . S
C2152 H2168 0.931 . S
C2153 C2152 1.370 . S
C2153 C2157 1.408 . S
C2154 C2152 1.363 . S
C2154 C2155 1.370 . S
C2154 C2158 1.524 . S
C2155 C2147 1.503 . S
C2155 C2154 1.370 . S
C2155 C2156 1.403 . S
C2156 C2155 1.403 . S
C2156 C2157 1.404 . S
C2156 C2159 1.539 . S
C2157 C2153 1.408 . S
C2157 C2156 1.404 . S
C2157 H2169 0.930 . S
C2158 C2154 1.524 . S
C2158 H2170 0.956 . S
C2158 H2171 0.961 . S
C2158 H2172 0.961 . S
C2159 C2156 1.539 . S
C2159 H2173 0.958 . S
C2159 H2174 0.961 . S
C2159 H2175 0.960 . S
H2160 C2144 0.931 . S
H2161 C2149 0.929 . S
H2162 C2150 0.960 . S
H2163 C2150 0.962 . S
H2164 C2150 0.960 . S
H2165 C2151 0.961 1_545 S
H2166 C2151 0.961 . S
H2167 C2151 0.961 . S
H2168 C2152 0.931 . S
H2169 C2157 0.930 . S
H2170 C2158 0.956 . S
H2171 C2158 0.961 . S
H2172 C2158 0.961 . S
H2173 C2159 0.958 . S
H2174 C2159 0.961 . S
H2175 C2159 0.960 . S
C2176 C2177 1.391 . S
C2176 C2178 1.394 . S
C2176 H2192 0.931 . S
C2177 C2176 1.391 . S
C2177 C2181 1.376 . S
C2178 C2176 1.394 . S
C2178 C2179 1.369 . S
C2178 C2182 1.531 1_545 S
C2179 C2178 1.369 . S
C2179 C2180 1.410 . S
C2179 C2187 1.503 1_545 S
C2180 C2179 1.410 . S
C2180 C2181 1.392 . S
C2180 C2183 1.511 . S
C2181 C2177 1.376 . S
C2181 C2180 1.392 . S
C2181 H2193 0.929 . S
C2182 C2178 1.531 1_565 S
C2182 H2194 0.960 . S
C2182 H2195 0.962 . S
C2182 H2196 0.960 . S
C2183 C2180 1.511 . S
C2183 H2197 0.961 . S
C2183 H2198 0.961 . S
C2183 H2199 0.961 . S
C2184 C2185 1.370 . S
C2184 C2186 1.363 . S
C2184 H2200 0.931 . S
C2185 C2184 1.370 . S
C2185 C2189 1.408 . S
C2186 C2184 1.363 . S
C2186 C2187 1.370 . S
C2186 C2190 1.524 1_565 S
C2187 C2179 1.503 1_565 S
C2187 C2186 1.370 . S
C2187 C2188 1.403 . S
C2188 C2187 1.403 . S
C2188 C2189 1.404 . S
C2188 C2191 1.539 . S
C2189 C2185 1.408 . S
C2189 C2188 1.404 . S
C2189 H2201 0.930 . S
C2190 C2186 1.524 1_545 S
C2190 H2202 0.956 . S
C2190 H2203 0.961 . S
C2190 H2204 0.961 . S
C2191 C2188 1.539 . S
C2191 H2205 0.958 . S
C2191 H2206 0.961 . S
C2191 H2207 0.960 . S
H2192 C2176 0.931 . S
H2193 C2181 0.929 . S
H2194 C2182 0.960 . S
H2195 C2182 0.962 . S
H2196 C2182 0.960 . S
H2197 C2183 0.961 . S
H2198 C2183 0.961 . S
H2199 C2183 0.961 . S
H2200 C2184 0.931 . S
H2201 C2189 0.930 . S
H2202 C2190 0.956 . S
H2203 C2190 0.961 . S
H2204 C2190 0.961 . S
H2205 C2191 0.958 . S
H2206 C2191 0.961 . S
H2207 C2191 0.960 . S
C2208 C2209 1.391 . S
C2208 C2210 1.394 . S
C2208 H2224 0.931 . S
C2209 C2208 1.391 . S
C2209 C2213 1.376 . S
C2210 C2208 1.394 . S
C2210 C2211 1.369 . S
C2210 C2214 1.531 1_554 S
C2211 C2210 1.369 . S
C2211 C2212 1.410 . S
C2211 C2219 1.503 1_554 S
C2212 C2211 1.410 . S
C2212 C2213 1.392 . S
C2212 C2215 1.511 . S
C2213 C2209 1.376 . S
C2213 C2212 1.392 . S
C2213 H2225 0.929 . S
C2214 C2210 1.531 1_556 S
C2214 H2226 0.960 . S
C2214 H2227 0.962 . S
C2214 H2228 0.960 . S
C2215 C2212 1.511 . S
C2215 H2229 0.961 . S
C2215 H2230 0.961 . S
C2215 H2231 0.961 . S
C2216 C2217 1.370 . S
C2216 C2218 1.363 . S
C2216 H2232 0.931 . S
C2217 C2216 1.370 . S
C2217 C2221 1.408 . S
C2218 C2216 1.363 . S
C2218 C2219 1.370 . S
C2218 C2222 1.524 . S
C2219 C2211 1.503 1_556 S
C2219 C2218 1.370 . S
C2219 C2220 1.403 . S
C2220 C2219 1.403 . S
C2220 C2221 1.404 . S
C2220 C2223 1.539 1_545 S
C2221 C2217 1.408 . S
C2221 C2220 1.404 . S
C2221 H2233 0.930 . S
C2222 C2218 1.524 . S
C2222 H2234 0.956 . S
C2222 H2235 0.961 1_556 S
C2222 H2236 0.961 . S
C2223 C2220 1.539 1_565 S
C2223 H2237 0.958 . S
C2223 H2238 0.961 . S
C2223 H2239 0.960 1_556 S
H2224 C2208 0.931 . S
H2225 C2213 0.929 . S
H2226 C2214 0.960 . S
H2227 C2214 0.962 . S
H2228 C2214 0.960 . S
H2229 C2215 0.961 . S
H2230 C2215 0.961 . S
H2231 C2215 0.961 . S
H2232 C2216 0.931 . S
H2233 C2221 0.930 . S
H2234 C2222 0.956 . S
H2235 C2222 0.961 1_554 S
H2236 C2222 0.961 . S
H2237 C2223 0.958 . S
H2238 C2223 0.961 . S
H2239 C2223 0.960 1_554 S
C2240 C2241 1.391 . S
C2240 C2242 1.394 . S
C2240 H2256 0.931 . S
C2241 C2240 1.391 . S
C2241 C2245 1.376 . S
C2242 C2240 1.394 . S
C2242 C2243 1.369 . S
C2242 C2246 1.531 1_565 S
C2243 C2242 1.369 . S
C2243 C2244 1.410 . S
C2243 C2251 1.503 1_565 S
C2244 C2243 1.410 . S
C2244 C2245 1.392 . S
C2244 C2247 1.511 . S
C2245 C2241 1.376 . S
C2245 C2244 1.392 . S
C2245 H2257 0.929 . S
C2246 C2242 1.531 1_545 S
C2246 H2258 0.960 . S
C2246 H2259 0.962 . S
C2246 H2260 0.960 . S
C2247 C2244 1.511 . S
C2247 H2261 0.961 . S
C2247 H2262 0.961 . S
C2247 H2263 0.961 . S
C2248 C2249 1.370 . S
C2248 C2250 1.363 . S
C2248 H2264 0.931 . S
C2249 C2248 1.370 . S
C2249 C2253 1.408 . S
C2250 C2248 1.363 . S
C2250 C2251 1.370 . S
C2250 C2254 1.524 1_545 S
C2251 C2243 1.503 1_545 S
C2251 C2250 1.370 . S
C2251 C2252 1.403 . S
C2252 C2251 1.403 . S
C2252 C2253 1.404 . S
C2252 C2255 1.539 . S
C2253 C2249 1.408 . S
C2253 C2252 1.404 . S
C2253 H2265 0.930 . S
C2254 C2250 1.524 1_565 S
C2254 H2266 0.956 . S
C2254 H2267 0.961 . S
C2254 H2268 0.961 . S
C2255 C2252 1.539 . S
C2255 H2269 0.958 . S
C2255 H2270 0.961 . S
C2255 H2271 0.960 . S
H2256 C2240 0.931 . S
H2257 C2245 0.929 . S
H2258 C2246 0.960 . S
H2259 C2246 0.962 . S
H2260 C2246 0.960 . S
H2261 C2247 0.961 . S
H2262 C2247 0.961 . S
H2263 C2247 0.961 . S
H2264 C2248 0.931 . S
H2265 C2253 0.930 . S
H2266 C2254 0.956 . S
H2267 C2254 0.961 . S
H2268 C2254 0.961 . S
H2269 C2255 0.958 . S
H2270 C2255 0.961 . S
H2271 C2255 0.960 . S
C2272 C2273 1.391 . S
C2272 C2274 1.394 . S
C2272 H2288 0.931 . S
C2273 C2272 1.391 . S
C2273 C2277 1.376 . S
C2274 C2272 1.394 . S
C2274 C2275 1.369 . S
C2274 C2278 1.531 . S
C2275 C2274 1.369 . S
C2275 C2276 1.410 . S
C2275 C2283 1.503 . S
C2276 C2275 1.410 . S
C2276 C2277 1.392 . S
C2276 C2279 1.511 . S
C2277 C2273 1.376 . S
C2277 C2276 1.392 . S
C2277 H2289 0.929 . S
C2278 C2274 1.531 . S
C2278 H2290 0.960 1_545 S
C2278 H2291 0.962 . S
C2278 H2292 0.960 1_545 S
C2279 C2276 1.511 . S
C2279 H2293 0.961 . S
C2279 H2294 0.961 . S
C2279 H2295 0.961 . S
C2280 C2281 1.370 . S
C2280 C2282 1.363 . S
C2280 H2296 0.931 . S
C2281 C2280 1.370 . S
C2281 C2285 1.408 . S
C2282 C2280 1.363 . S
C2282 C2283 1.370 . S
C2282 C2286 1.524 . S
C2283 C2275 1.503 . S
C2283 C2282 1.370 . S
C2283 C2284 1.403 . S
C2284 C2283 1.403 . S
C2284 C2285 1.404 . S
C2284 C2287 1.539 . S
C2285 C2281 1.408 . S
C2285 C2284 1.404 . S
C2285 H2297 0.930 . S
C2286 C2282 1.524 . S
C2286 H2298 0.956 . S
C2286 H2299 0.961 . S
C2286 H2300 0.961 . S
C2287 C2284 1.539 . S
C2287 H2301 0.958 1_545 S
C2287 H2302 0.961 . S
C2287 H2303 0.960 . S
H2288 C2272 0.931 . S
H2289 C2277 0.929 . S
H2290 C2278 0.960 1_565 S
H2291 C2278 0.962 . S
H2292 C2278 0.960 1_565 S
H2293 C2279 0.961 . S
H2294 C2279 0.961 . S
H2295 C2279 0.961 . S
H2296 C2280 0.931 . S
H2297 C2285 0.930 . S
H2298 C2286 0.956 . S
H2299 C2286 0.961 . S
H2300 C2286 0.961 . S
H2301 C2287 0.958 1_565 S
H2302 C2287 0.961 . S
H2303 C2287 0.960 . S
C2304 C2305 1.391 . S
C2304 C2306 1.394 . S
C2304 H2320 0.931 . S
C2305 C2304 1.391 . S
C2305 C2309 1.376 . S
C2306 C2304 1.394 . S
C2306 C2307 1.369 . S
C2306 C2310 1.531 1_545 S
C2307 C2306 1.369 . S
C2307 C2308 1.410 . S
C2307 C2315 1.503 1_545 S
C2308 C2307 1.410 . S
C2308 C2309 1.392 . S
C2308 C2311 1.511 . S
C2309 C2305 1.376 . S
C2309 C2308 1.392 . S
C2309 H2321 0.929 . S
C2310 C2306 1.531 1_565 S
C2310 H2322 0.960 . S
C2310 H2323 0.962 . S
C2310 H2324 0.960 . S
C2311 C2308 1.511 . S
C2311 H2325 0.961 . S
C2311 H2326 0.961 . S
C2311 H2327 0.961 . S
C2312 C2313 1.370 . S
C2312 C2314 1.363 . S
C2312 H2328 0.931 . S
C2313 C2312 1.370 . S
C2313 C2317 1.408 . S
C2314 C2312 1.363 . S
C2314 C2315 1.370 . S
C2314 C2318 1.524 1_565 S
C2315 C2307 1.503 1_565 S
C2315 C2314 1.370 . S
C2315 C2316 1.403 . S
C2316 C2315 1.403 . S
C2316 C2317 1.404 . S
C2316 C2319 1.539 . S
C2317 C2313 1.408 . S
C2317 C2316 1.404 . S
C2317 H2329 0.930 . S
C2318 C2314 1.524 1_545 S
C2318 H2330 0.956 . S
C2318 H2331 0.961 . S
C2318 H2332 0.961 . S
C2319 C2316 1.539 . S
C2319 H2333 0.958 . S
C2319 H2334 0.961 . S
C2319 H2335 0.960 . S
H2320 C2304 0.931 . S
H2321 C2309 0.929 . S
H2322 C2310 0.960 . S
H2323 C2310 0.962 . S
H2324 C2310 0.960 . S
H2325 C2311 0.961 . S
H2326 C2311 0.961 . S
H2327 C2311 0.961 . S
H2328 C2312 0.931 . S
H2329 C2317 0.930 . S
H2330 C2318 0.956 . S
H2331 C2318 0.961 . S
H2332 C2318 0.961 . S
H2333 C2319 0.958 . S
H2334 C2319 0.961 . S
H2335 C2319 0.960 . S
C2336 C2337 1.391 . S
C2336 C2338 1.394 . S
C2336 H2352 0.931 . S
C2337 C2336 1.391 . S
C2337 C2341 1.376 . S
C2338 C2336 1.394 . S
C2338 C2339 1.369 . S
C2338 C2342 1.531 1_556 S
C2339 C2338 1.369 . S
C2339 C2340 1.410 . S
C2339 C2347 1.503 1_556 S
C2340 C2339 1.410 . S
C2340 C2341 1.392 . S
C2340 C2343 1.511 . S
C2341 C2337 1.376 . S
C2341 C2340 1.392 . S
C2341 H2353 0.929 . S
C2342 C2338 1.531 1_554 S
C2342 H2354 0.960 . S
C2342 H2355 0.962 . S
C2342 H2356 0.960 . S
C2343 C2340 1.511 . S
C2343 H2357 0.961 . S
C2343 H2358 0.961 . S
C2343 H2359 0.961 . S
C2344 C2345 1.370 . S
C2344 C2346 1.363 . S
C2344 H2360 0.931 . S
C2345 C2344 1.370 . S
C2345 C2349 1.408 . S
C2346 C2344 1.363 . S
C2346 C2347 1.370 . S
C2346 C2350 1.545 . S
C2347 C2339 1.503 1_554 S
C2347 C2346 1.370 . S
C2347 C2348 1.403 . S
C2348 C2347 1.403 . S
C2348 C2349 1.404 . S
C2348 C2351 1.539 . S
C2349 C2345 1.408 . S
C2349 C2348 1.404 . S
C2349 H2361 0.930 . S
C2350 C2346 1.545 . S
C2350 H2362 0.958 . S
C2350 H2363 0.958 1_564 S
C2350 H2364 0.941 1_565 S
C2351 C2348 1.539 . S
C2351 H2365 0.958 . S
C2351 H2366 0.961 . S
C2351 H2367 0.960 1_554 S
H2352 C2336 0.931 . S
H2353 C2341 0.929 . S
H2354 C2342 0.960 . S
H2355 C2342 0.962 . S
H2356 C2342 0.960 . S
H2357 C2343 0.961 . S
H2358 C2343 0.961 . S
H2359 C2343 0.961 . S
H2360 C2344 0.931 . S
H2361 C2349 0.930 . S
H2362 C2350 0.958 . S
H2363 C2350 0.958 1_546 S
H2364 C2350 0.941 1_545 S
H2365 C2351 0.958 . S
H2366 C2351 0.961 . S
H2367 C2351 0.960 1_556 S
C2368 C2369 1.391 . S
C2368 C2370 1.394 . S
C2368 H2384 0.931 . S
C2369 C2368 1.391 . S
C2369 C2373 1.376 . S
C2370 C2368 1.394 . S
C2370 C2371 1.369 . S
C2370 C2374 1.531 . S
C2371 C2370 1.369 . S
C2371 C2372 1.410 . S
C2371 C2379 1.503 . S
C2372 C2371 1.410 . S
C2372 C2373 1.392 . S
C2372 C2375 1.511 . S
C2373 C2369 1.376 . S
C2373 C2372 1.392 . S
C2373 H2385 0.929 . S
C2374 C2370 1.531 . S
C2374 H2386 0.960 . S
C2374 H2387 0.962 . S
C2374 H2388 0.960 . S
C2375 C2372 1.511 . S
C2375 H2389 0.961 . S
C2375 H2390 0.961 . S
C2375 H2391 0.961 . S
C2376 C2377 1.370 . S
C2376 C2378 1.363 . S
C2376 H2392 0.931 . S
C2377 C2376 1.370 . S
C2377 C2381 1.408 . S
C2378 C2376 1.363 . S
C2378 C2379 1.370 . S
C2378 C2382 1.524 . S
C2379 C2371 1.503 . S
C2379 C2378 1.370 . S
C2379 C2380 1.403 . S
C2380 C2379 1.403 . S
C2380 C2381 1.404 . S
C2380 C2383 1.539 . S
C2381 C2377 1.408 . S
C2381 C2380 1.404 . S
C2381 H2393 0.930 . S
C2382 C2378 1.524 . S
C2382 H2394 0.956 . S
C2382 H2395 0.961 . S
C2382 H2396 0.961 . S
C2383 C2380 1.539 . S
C2383 H2397 0.958 . S
C2383 H2398 0.961 . S
C2383 H2399 0.960 . S
H2384 C2368 0.931 . S
H2385 C2373 0.929 . S
H2386 C2374 0.960 . S
H2387 C2374 0.962 . S
H2388 C2374 0.960 . S
H2389 C2375 0.961 . S
H2390 C2375 0.961 . S
H2391 C2375 0.961 . S
H2392 C2376 0.931 . S
H2393 C2381 0.930 . S
H2394 C2382 0.956 . S
H2395 C2382 0.961 . S
H2396 C2382 0.961 . S
H2397 C2383 0.958 . S
H2398 C2383 0.961 . S
H2399 C2383 0.960 . S
C2400 C2401 1.391 . S
C2400 C2402 1.394 . S
C2400 H2416 0.931 . S
C2401 C2400 1.391 . S
C2401 C2405 1.376 . S
C2402 C2400 1.394 . S
C2402 C2403 1.369 . S
C2402 C2406 1.531 1_556 S
C2403 C2402 1.369 . S
C2403 C2404 1.410 . S
C2403 C2411 1.503 1_556 S
C2404 C2403 1.410 . S
C2404 C2405 1.392 . S
C2404 C2407 1.511 . S
C2405 C2401 1.376 . S
C2405 C2404 1.392 . S
C2405 H2417 0.929 . S
C2406 C2402 1.531 1_554 S
C2406 H2418 0.960 . S
C2406 H2419 0.962 . S
C2406 H2420 0.982 . S
C2407 C2404 1.511 . S
C2407 H2421 0.961 . S
C2407 H2422 0.961 . S
C2407 H2423 0.961 . S
C2408 C2409 1.370 . S
C2408 C2410 1.363 . S
C2408 H2424 0.931 . S
C2409 C2408 1.370 . S
C2409 C2413 1.408 . S
C2410 C2408 1.363 . S
C2410 C2411 1.370 . S
C2410 C2414 1.524 . S
C2411 C2403 1.503 1_554 S
C2411 C2410 1.370 . S
C2411 C2412 1.403 . S
C2412 C2411 1.403 . S
C2412 C2413 1.404 . S
C2412 C2415 1.539 1_554 S
C2413 C2409 1.408 . S
C2413 C2412 1.404 . S
C2413 H2425 0.930 . S
C2414 C2410 1.524 . S
C2414 H2426 0.956 . S
C2414 H2427 0.961 . S
C2414 H2428 0.961 . S
C2415 C2412 1.539 1_556 S
C2415 H2429 0.958 . S
C2415 H2430 0.961 . S
C2415 H2431 0.960 . S
H2416 C2400 0.931 . S
H2417 C2405 0.929 . S
H2418 C2406 0.960 . S
H2419 C2406 0.962 . S
H2420 C2406 0.982 . S
H2421 C2407 0.961 . S
H2422 C2407 0.961 . S
H2423 C2407 0.961 . S
H2424 C2408 0.931 . S
H2425 C2413 0.930 . S
H2426 C2414 0.956 . S
H2427 C2414 0.961 . S
H2428 C2414 0.961 . S
H2429 C2415 0.958 . S
H2430 C2415 0.961 . S
H2431 C2415 0.960 . S
C2432 C2433 1.391 . S
C2432 C2434 1.394 . S
C2432 H2448 0.931 . S
C2433 C2432 1.391 . S
C2433 C2437 1.376 . S
C2434 C2432 1.394 . S
C2434 C2435 1.369 . S
C2434 C2438 1.531 . S
C2435 C2434 1.369 . S
C2435 C2436 1.410 . S
C2435 C2443 1.503 . S
C2436 C2435 1.410 . S
C2436 C2437 1.392 . S
C2436 C2439 1.511 . S
C2437 C2433 1.376 . S
C2437 C2436 1.392 . S
C2437 H2449 0.929 . S
C2438 C2434 1.531 . S
C2438 H2450 0.960 . S
C2438 H2451 0.962 . S
C2438 H2452 0.960 . S
C2439 C2436 1.511 . S
C2439 H2453 0.961 . S
C2439 H2454 0.961 . S
C2439 H2455 0.961 . S
C2440 C2441 1.370 . S
C2440 C2442 1.363 . S
C2440 H2456 0.931 . S
C2441 C2440 1.370 . S
C2441 C2445 1.408 . S
C2442 C2440 1.363 . S
C2442 C2443 1.370 . S
C2442 C2446 1.524 . S
C2443 C2435 1.503 . S
C2443 C2442 1.370 . S
C2443 C2444 1.403 . S
C2444 C2443 1.403 . S
C2444 C2445 1.404 . S
C2444 C2447 1.539 . S
C2445 C2441 1.408 . S
C2445 C2444 1.404 . S
C2445 H2457 0.930 . S
C2446 C2442 1.524 . S
C2446 H2458 0.956 . S
C2446 H2459 0.961 . S
C2446 H2460 0.961 . S
C2447 C2444 1.539 . S
C2447 H2461 0.958 . S
C2447 H2462 0.961 . S
C2447 H2463 0.960 . S
H2448 C2432 0.931 . S
H2449 C2437 0.929 . S
H2450 C2438 0.960 . S
H2451 C2438 0.962 . S
H2452 C2438 0.960 . S
H2453 C2439 0.961 . S
H2454 C2439 0.961 . S
H2455 C2439 0.961 . S
H2456 C2440 0.931 . S
H2457 C2445 0.930 . S
H2458 C2446 0.956 . S
H2459 C2446 0.961 . S
H2460 C2446 0.961 . S
H2461 C2447 0.958 . S
H2462 C2447 0.961 . S
H2463 C2447 0.960 . S
C2464 C2465 1.391 . S
C2464 C2466 1.394 . S
C2464 H2480 0.931 . S
C2465 C2464 1.391 . S
C2465 C2469 1.376 . S
C2466 C2464 1.394 . S
C2466 C2467 1.369 . S
C2466 C2470 1.531 . S
C2467 C2466 1.369 . S
C2467 C2468 1.410 . S
C2467 C2475 1.503 . S
C2468 C2467 1.410 . S
C2468 C2469 1.392 . S
C2468 C2471 1.511 . S
C2469 C2465 1.376 . S
C2469 C2468 1.392 . S
C2469 H2481 0.929 . S
C2470 C2466 1.531 . S
C2470 H2482 0.960 . S
C2470 H2483 0.962 . S
C2470 H2484 0.960 . S
C2471 C2468 1.511 . S
C2471 H2485 0.961 . S
C2471 H2486 0.961 . S
C2471 H2487 0.961 . S
C2472 C2473 1.370 . S
C2472 C2474 1.363 . S
C2472 H2488 0.931 . S
C2473 C2472 1.370 . S
C2473 C2477 1.408 . S
C2474 C2472 1.363 . S
C2474 C2475 1.370 . S
C2474 C2478 1.524 . S
C2475 C2467 1.503 . S
C2475 C2474 1.370 . S
C2475 C2476 1.403 . S
C2476 C2475 1.403 . S
C2476 C2477 1.404 . S
C2476 C2479 1.539 . S
C2477 C2473 1.408 . S
C2477 C2476 1.404 . S
C2477 H2489 0.930 . S
C2478 C2474 1.524 . S
C2478 H2490 0.956 . S
C2478 H2491 0.961 . S
C2478 H2492 0.961 . S
C2479 C2476 1.539 . S
C2479 H2493 0.958 . S
C2479 H2494 0.961 . S
C2479 H2495 0.960 . S
H2480 C2464 0.931 . S
H2481 C2469 0.929 . S
H2482 C2470 0.960 . S
H2483 C2470 0.962 . S
H2484 C2470 0.960 . S
H2485 C2471 0.961 . S
H2486 C2471 0.961 . S
H2487 C2471 0.961 . S
H2488 C2472 0.931 . S
H2489 C2477 0.930 . S
H2490 C2478 0.956 . S
H2491 C2478 0.961 . S
H2492 C2478 0.961 . S
H2493 C2479 0.958 . S
H2494 C2479 0.961 . S
H2495 C2479 0.960 . S
C2496 C2497 1.391 . S
C2496 C2498 1.394 . S
C2496 H2512 0.931 . S
C2497 C2496 1.391 . S
C2497 C2501 1.376 . S
C2498 C2496 1.394 . S
C2498 C2499 1.369 . S
C2498 C2502 1.531 . S
C2499 C2498 1.369 . S
C2499 C2500 1.410 . S
C2499 C2507 1.503 . S
C2500 C2499 1.410 . S
C2500 C2501 1.392 . S
C2500 C2503 1.511 . S
C2501 C2497 1.376 . S
C2501 C2500 1.392 . S
C2501 H2513 0.929 . S
C2502 C2498 1.531 . S
C2502 H2514 0.960 . S
C2502 H2515 0.962 . S
C2502 H2516 0.960 . S
C2503 C2500 1.511 . S
C2503 H2517 0.961 . S
C2503 H2518 0.961 . S
C2503 H2519 0.961 . S
C2504 C2505 1.370 . S
C2504 C2506 1.363 . S
C2504 H2520 0.931 . S
C2505 C2504 1.370 . S
C2505 C2509 1.408 . S
C2506 C2504 1.363 . S
C2506 C2507 1.370 . S
C2506 C2510 1.524 . S
C2507 C2499 1.503 . S
C2507 C2506 1.370 . S
C2507 C2508 1.403 . S
C2508 C2507 1.403 . S
C2508 C2509 1.404 . S
C2508 C2511 1.539 . S
C2509 C2505 1.408 . S
C2509 C2508 1.404 . S
C2509 H2521 0.930 . S
C2510 C2506 1.524 . S
C2510 H2522 0.956 . S
C2510 H2523 0.961 . S
C2510 H2524 0.961 . S
C2511 C2508 1.539 . S
C2511 H2525 0.958 . S
C2511 H2526 0.961 . S
C2511 H2527 0.960 . S
H2512 C2496 0.931 . S
H2513 C2501 0.929 . S
H2514 C2502 0.960 . S
H2515 C2502 0.962 . S
H2516 C2502 0.960 . S
H2517 C2503 0.961 . S
H2518 C2503 0.961 . S
H2519 C2503 0.961 . S
H2520 C2504 0.931 . S
H2521 C2509 0.930 . S
H2522 C2510 0.956 . S
H2523 C2510 0.961 . S
H2524 C2510 0.961 . S
H2525 C2511 0.958 . S
H2526 C2511 0.961 . S
H2527 C2511 0.960 . S
C2528 C2529 1.391 . S
C2528 C2530 1.394 . S
C2528 H2544 0.931 . S
C2529 C2528 1.391 . S
C2529 C2533 1.376 . S
C2530 C2528 1.394 . S
C2530 C2531 1.369 . S
C2530 C2534 1.531 . S
C2531 C2530 1.369 . S
C2531 C2532 1.410 . S
C2531 C2539 1.503 1_556 S
C2532 C2531 1.410 . S
C2532 C2533 1.392 . S
C2532 C2535 1.511 1_556 S
C2533 C2529 1.376 . S
C2533 C2532 1.392 . S
C2533 H2545 0.929 . S
C2534 C2530 1.531 . S
C2534 H2546 0.960 . S
C2534 H2547 0.962 . S
C2534 H2548 0.960 . S
C2535 C2532 1.511 1_554 S
C2535 H2549 0.961 . S
C2535 H2550 0.961 . S
C2535 H2551 0.961 . S
C2536 C2537 1.370 . S
C2536 C2538 1.363 . S
C2536 H2552 0.931 . S
C2537 C2536 1.370 . S
C2537 C2541 1.408 . S
C2538 C2536 1.363 . S
C2538 C2539 1.370 . S
C2538 C2542 1.524 . S
C2539 C2531 1.503 1_554 S
C2539 C2538 1.370 . S
C2539 C2540 1.403 . S
C2540 C2539 1.403 . S
C2540 C2541 1.404 . S
C2540 C2543 1.539 1_554 S
C2541 C2537 1.408 . S
C2541 C2540 1.404 . S
C2541 H2553 0.930 . S
C2542 C2538 1.524 . S
C2542 H2554 0.956 . S
C2542 H2555 0.961 . S
C2542 H2556 0.961 . S
C2543 C2540 1.539 1_556 S
C2543 H2557 0.958 . S
C2543 H2558 0.960 1_556 S
C2543 H2559 0.960 . S
H2544 C2528 0.931 . S
H2545 C2533 0.929 . S
H2546 C2534 0.960 . S
H2547 C2534 0.962 . S
H2548 C2534 0.960 . S
H2549 C2535 0.961 . S
H2550 C2535 0.961 . S
H2551 C2535 0.961 . S
H2552 C2536 0.931 . S
H2553 C2541 0.930 . S
H2554 C2542 0.956 . S
H2555 C2542 0.961 . S
H2556 C2542 0.961 . S
H2557 C2543 0.958 . S
H2558 C2543 0.960 1_554 S
H2559 C2543 0.960 . S
C2560 C2561 1.391 . S
C2560 C2562 1.394 . S
C2560 H2576 0.931 . S
C2561 C2560 1.391 . S
C2561 C2565 1.376 . S
C2562 C2560 1.394 . S
C2562 C2563 1.369 . S
C2562 C2566 1.531 . S
C2563 C2562 1.369 . S
C2563 C2564 1.410 . S
C2563 C2571 1.503 . S
C2564 C2563 1.410 . S
C2564 C2565 1.392 . S
C2564 C2567 1.511 . S
C2565 C2561 1.376 . S
C2565 C2564 1.392 . S
C2565 H2577 0.929 . S
C2566 C2562 1.531 . S
C2566 H2578 0.960 . S
C2566 H2579 0.962 . S
C2566 H2580 0.960 . S
C2567 C2564 1.511 . S
C2567 H2581 0.961 . S
C2567 H2582 0.961 . S
C2567 H2583 0.961 . S
C2568 C2569 1.370 . S
C2568 C2570 1.363 . S
C2568 H2584 0.931 . S
C2569 C2568 1.370 . S
C2569 C2573 1.408 . S
C2570 C2568 1.363 . S
C2570 C2571 1.370 . S
C2570 C2574 1.524 . S
C2571 C2563 1.503 . S
C2571 C2570 1.370 . S
C2571 C2572 1.403 . S
C2572 C2571 1.403 . S
C2572 C2573 1.404 . S
C2572 C2575 1.539 . S
C2573 C2569 1.408 . S
C2573 C2572 1.404 . S
C2573 H2585 0.930 . S
C2574 C2570 1.524 . S
C2574 H2586 0.956 . S
C2574 H2587 0.961 . S
C2574 H2588 0.961 . S
C2575 C2572 1.539 . S
C2575 H2589 0.958 . S
C2575 H2590 0.961 . S
C2575 H2591 0.960 . S
H2576 C2560 0.931 . S
H2577 C2565 0.929 . S
H2578 C2566 0.960 . S
H2579 C2566 0.962 . S
H2580 C2566 0.960 . S
H2581 C2567 0.961 . S
H2582 C2567 0.961 . S
H2583 C2567 0.961 . S
H2584 C2568 0.931 . S
H2585 C2573 0.930 . S
H2586 C2574 0.956 . S
H2587 C2574 0.961 . S
H2588 C2574 0.961 . S
H2589 C2575 0.958 . S
H2590 C2575 0.961 . S
H2591 C2575 0.960 . S
C2592 C2593 1.391 . S
C2592 C2594 1.394 . S
C2592 H2608 0.931 . S
C2593 C2592 1.391 . S
C2593 C2597 1.376 . S
C2594 C2592 1.394 . S
C2594 C2595 1.369 . S
C2594 C2598 1.531 . S
C2595 C2594 1.369 . S
C2595 C2596 1.410 . S
C2595 C2603 1.503 . S
C2596 C2595 1.410 . S
C2596 C2597 1.392 . S
C2596 C2599 1.511 . S
C2597 C2593 1.376 . S
C2597 C2596 1.392 . S
C2597 H2609 0.929 . S
C2598 C2594 1.531 . S
C2598 H2610 0.960 . S
C2598 H2611 0.962 . S
C2598 H2612 0.960 . S
C2599 C2596 1.511 . S
C2599 H2613 0.961 . S
C2599 H2614 0.961 . S
C2599 H2615 0.961 . S
C2600 C2601 1.370 . S
C2600 C2602 1.363 . S
C2600 H2616 0.931 . S
C2601 C2600 1.370 . S
C2601 C2605 1.408 . S
C2602 C2600 1.363 . S
C2602 C2603 1.370 . S
C2602 C2606 1.524 . S
C2603 C2595 1.503 . S
C2603 C2602 1.370 . S
C2603 C2604 1.403 . S
C2604 C2603 1.403 . S
C2604 C2605 1.404 . S
C2604 C2607 1.539 . S
C2605 C2601 1.408 . S
C2605 C2604 1.404 . S
C2605 H2617 0.930 . S
C2606 C2602 1.524 . S
C2606 H2618 0.956 . S
C2606 H2619 0.961 . S
C2606 H2620 0.961 . S
C2607 C2604 1.539 . S
C2607 H2621 0.958 . S
C2607 H2622 0.961 . S
C2607 H2623 0.960 . S
H2608 C2592 0.931 . S
H2609 C2597 0.929 . S
H2610 C2598 0.960 . S
H2611 C2598 0.962 . S
H2612 C2598 0.960 . S
H2613 C2599 0.961 . S
H2614 C2599 0.961 . S
H2615 C2599 0.961 . S
H2616 C2600 0.931 . S
H2617 C2605 0.930 . S
H2618 C2606 0.956 . S
H2619 C2606 0.961 . S
H2620 C2606 0.961 . S
H2621 C2607 0.958 . S
H2622 C2607 0.961 . S
H2623 C2607 0.960 . S
C2624 C2625 1.391 . S
C2624 C2626 1.394 . S
C2624 H2640 0.931 1_545 S
C2625 C2624 1.391 . S
C2625 C2629 1.376 . S
C2626 C2624 1.394 . S
C2626 C2627 1.369 . S
C2626 C2630 1.531 . S
C2627 C2626 1.369 . S
C2627 C2628 1.410 . S
C2627 C2635 1.503 . S
C2628 C2627 1.410 . S
C2628 C2629 1.392 . S
C2628 C2631 1.511 . S
C2629 C2625 1.376 . S
C2629 C2628 1.392 . S
C2629 H2641 0.929 . S
C2630 C2626 1.531 . S
C2630 H2642 0.960 . S
C2630 H2643 0.962 . S
C2630 H2644 0.960 . S
C2631 C2628 1.511 . S
C2631 H2645 0.961 . S
C2631 H2646 0.961 . S
C2631 H2647 0.961 . S
C2632 C2633 1.370 . S
C2632 C2634 1.363 . S
C2632 H2648 0.931 . S
C2633 C2632 1.370 . S
C2633 C2637 1.408 . S
C2634 C2632 1.363 . S
C2634 C2635 1.370 . S
C2634 C2638 1.524 . S
C2635 C2627 1.503 . S
C2635 C2634 1.370 . S
C2635 C2636 1.403 . S
C2636 C2635 1.403 . S
C2636 C2637 1.404 . S
C2636 C2639 1.539 . S
C2637 C2633 1.408 . S
C2637 C2636 1.404 . S
C2637 H2649 0.930 . S
C2638 C2634 1.524 . S
C2638 H2650 0.956 . S
C2638 H2651 0.961 . S
C2638 H2652 0.961 . S
C2639 C2636 1.539 . S
C2639 H2653 0.958 . S
C2639 H2654 0.961 . S
C2639 H2655 0.960 . S
H2640 C2624 0.931 1_565 S
H2641 C2629 0.929 . S
H2642 C2630 0.960 . S
H2643 C2630 0.962 . S
H2644 C2630 0.960 . S
H2645 C2631 0.961 . S
H2646 C2631 0.961 . S
H2647 C2631 0.961 . S
H2648 C2632 0.931 . S
H2649 C2637 0.930 . S
H2650 C2638 0.956 . S
H2651 C2638 0.961 . S
H2652 C2638 0.961 . S
H2653 C2639 0.958 . S
H2654 C2639 0.961 . S
H2655 C2639 0.960 . S
C2656 C2657 1.391 . S
C2656 C2658 1.394 . S
C2656 H2672 0.931 . S
C2657 C2656 1.391 . S
C2657 C2661 1.376 . S
C2658 C2656 1.394 . S
C2658 C2659 1.369 . S
C2658 C2662 1.531 . S
C2659 C2658 1.369 . S
C2659 C2660 1.410 . S
C2659 C2667 1.503 . S
C2660 C2659 1.410 . S
C2660 C2661 1.392 . S
C2660 C2663 1.511 . S
C2661 C2657 1.376 . S
C2661 C2660 1.392 . S
C2661 H2673 0.929 . S
C2662 C2658 1.531 . S
C2662 H2674 0.960 . S
C2662 H2675 0.962 . S
C2662 H2676 0.960 . S
C2663 C2660 1.511 . S
C2663 H2677 0.961 . S
C2663 H2678 0.961 . S
C2663 H2679 0.961 . S
C2664 C2665 1.370 . S
C2664 C2666 1.363 . S
C2664 H2680 0.931 . S
C2665 C2664 1.370 . S
C2665 C2669 1.408 . S
C2666 C2664 1.363 . S
C2666 C2667 1.370 . S
C2666 C2670 1.524 . S
C2667 C2659 1.503 . S
C2667 C2666 1.370 . S
C2667 C2668 1.403 . S
C2668 C2667 1.403 . S
C2668 C2669 1.404 . S
C2668 C2671 1.539 . S
C2669 C2665 1.408 . S
C2669 C2668 1.404 . S
C2669 H2681 0.930 . S
C2670 C2666 1.524 . S
C2670 H2682 0.956 . S
C2670 H2683 0.961 . S
C2670 H2684 0.961 . S
C2671 C2668 1.539 . S
C2671 H2685 0.958 . S
C2671 H2686 0.961 . S
C2671 H2687 0.960 . S
H2672 C2656 0.931 . S
H2673 C2661 0.929 . S
H2674 C2662 0.960 . S
H2675 C2662 0.962 . S
H2676 C2662 0.960 . S
H2677 C2663 0.961 . S
H2678 C2663 0.961 . S
H2679 C2663 0.961 . S
H2680 C2664 0.931 . S
H2681 C2669 0.930 . S
H2682 C2670 0.956 . S
H2683 C2670 0.961 . S
H2684 C2670 0.961 . S
H2685 C2671 0.958 . S
H2686 C2671 0.961 . S
H2687 C2671 0.960 . S
C2688 C2689 1.391 . S
C2688 C2690 1.394 . S
C2688 H2704 0.931 1_565 S
C2689 C2688 1.391 . S
C2689 C2693 1.376 . S
C2690 C2688 1.394 . S
C2690 C2691 1.369 . S
C2690 C2694 1.531 . S
C2691 C2690 1.369 . S
C2691 C2692 1.410 . S
C2691 C2699 1.503 . S
C2692 C2691 1.410 . S
C2692 C2693 1.392 . S
C2692 C2695 1.511 . S
C2693 C2689 1.376 . S
C2693 C2692 1.392 . S
C2693 H2705 0.929 . S
C2694 C2690 1.531 . S
C2694 H2706 0.960 . S
C2694 H2707 0.962 . S
C2694 H2708 0.960 1_565 S
C2695 C2692 1.511 . S
C2695 H2709 0.961 . S
C2695 H2710 0.961 . S
C2695 H2711 0.961 . S
C2696 C2697 1.370 . S
C2696 C2698 1.363 . S
C2696 H2712 0.931 . S
C2697 C2696 1.370 . S
C2697 C2701 1.408 . S
C2698 C2696 1.363 . S
C2698 C2699 1.370 . S
C2698 C2702 1.524 . S
C2699 C2691 1.503 . S
C2699 C2698 1.370 . S
C2699 C2700 1.403 . S
C2700 C2699 1.403 . S
C2700 C2701 1.404 . S
C2700 C2703 1.539 . S
C2701 C2697 1.408 . S
C2701 C2700 1.404 . S
C2701 H2713 0.930 . S
C2702 C2698 1.524 . S
C2702 H2714 0.956 . S
C2702 H2715 0.961 . S
C2702 H2716 0.961 . S
C2703 C2700 1.539 . S
C2703 H2717 0.958 . S
C2703 H2718 0.961 . S
C2703 H2719 0.960 . S
H2704 C2688 0.931 1_545 S
H2705 C2693 0.929 . S
H2706 C2694 0.960 . S
H2707 C2694 0.962 . S
H2708 C2694 0.960 1_545 S
H2709 C2695 0.961 . S
H2710 C2695 0.961 . S
H2711 C2695 0.961 . S
H2712 C2696 0.931 . S
H2713 C2701 0.930 . S
H2714 C2702 0.956 . S
H2715 C2702 0.961 . S
H2716 C2702 0.961 . S
H2717 C2703 0.958 . S
H2718 C2703 0.961 . S
H2719 C2703 0.960 . S
C2720 C2721 1.391 . S
C2720 C2722 1.394 . S
C2720 H2736 0.931 . S
C2721 C2720 1.391 . S
C2721 C2725 1.376 . S
C2722 C2720 1.394 . S
C2722 C2723 1.369 . S
C2722 C2726 1.531 . S
C2723 C2722 1.369 . S
C2723 C2724 1.410 . S
C2723 C2731 1.503 . S
C2724 C2723 1.410 . S
C2724 C2725 1.392 . S
C2724 C2727 1.511 . S
C2725 C2721 1.376 . S
C2725 C2724 1.392 . S
C2725 H2737 0.929 . S
C2726 C2722 1.531 . S
C2726 H2738 0.960 . S
C2726 H2739 0.962 . S
C2726 H2740 0.960 . S
C2727 C2724 1.511 . S
C2727 H2741 0.961 . S
C2727 H2742 0.961 . S
C2727 H2743 0.961 . S
C2728 C2729 1.370 . S
C2728 C2730 1.363 . S
C2728 H2744 0.931 1_565 S
C2729 C2728 1.370 . S
C2729 C2733 1.408 . S
C2730 C2728 1.363 . S
C2730 C2731 1.370 . S
C2730 C2734 1.524 . S
C2731 C2723 1.503 . S
C2731 C2730 1.370 . S
C2731 C2732 1.403 . S
C2732 C2731 1.403 . S
C2732 C2733 1.404 . S
C2732 C2735 1.539 . S
C2733 C2729 1.408 . S
C2733 C2732 1.404 . S
C2733 H2745 0.930 . S
C2734 C2730 1.524 . S
C2734 H2746 0.956 . S
C2734 H2747 0.961 . S
C2734 H2748 0.961 1_565 S
C2735 C2732 1.539 . S
C2735 H2749 0.958 . S
C2735 H2750 0.961 . S
C2735 H2751 0.960 . S
H2736 C2720 0.931 . S
H2737 C2725 0.929 . S
H2738 C2726 0.960 . S
H2739 C2726 0.962 . S
H2740 C2726 0.960 . S
H2741 C2727 0.961 . S
H2742 C2727 0.961 . S
H2743 C2727 0.961 . S
H2744 C2728 0.931 1_545 S
H2745 C2733 0.930 . S
H2746 C2734 0.956 . S
H2747 C2734 0.961 . S
H2748 C2734 0.961 1_545 S
H2749 C2735 0.958 . S
H2750 C2735 0.961 . S
H2751 C2735 0.960 . S
C2752 C2753 1.391 . S
C2752 C2754 1.394 . S
C2752 H2768 0.931 1_565 S
C2753 C2752 1.391 . S
C2753 C2757 1.376 . S
C2754 C2752 1.394 . S
C2754 C2755 1.369 . S
C2754 C2758 1.531 . S
C2755 C2754 1.369 . S
C2755 C2756 1.410 . S
C2755 C2763 1.503 . S
C2756 C2755 1.410 . S
C2756 C2757 1.392 . S
C2756 C2759 1.511 . S
C2757 C2753 1.376 . S
C2757 C2756 1.392 . S
C2757 H2769 0.929 . S
C2758 C2754 1.531 . S
C2758 H2770 0.960 . S
C2758 H2771 0.962 . S
C2758 H2772 0.960 1_565 S
C2759 C2756 1.511 . S
C2759 H2773 0.961 . S
C2759 H2774 0.961 . S
C2759 H2775 0.961 . S
C2760 C2761 1.370 . S
C2760 C2762 1.363 . S
C2760 H2776 0.931 . S
C2761 C2760 1.370 . S
C2761 C2765 1.408 . S
C2762 C2760 1.363 . S
C2762 C2763 1.370 . S
C2762 C2766 1.524 . S
C2763 C2755 1.503 . S
C2763 C2762 1.370 . S
C2763 C2764 1.403 . S
C2764 C2763 1.403 . S
C2764 C2765 1.404 . S
C2764 C2767 1.539 . S
C2765 C2761 1.408 . S
C2765 C2764 1.404 . S
C2765 H2777 0.930 . S
C2766 C2762 1.524 . S
C2766 H2778 0.956 . S
C2766 H2779 0.961 . S
C2766 H2780 0.961 . S
C2767 C2764 1.539 . S
C2767 H2781 0.958 . S
C2767 H2782 0.961 . S
C2767 H2783 0.960 . S
H2768 C2752 0.931 1_545 S
H2769 C2757 0.929 . S
H2770 C2758 0.960 . S
H2771 C2758 0.962 . S
H2772 C2758 0.960 1_545 S
H2773 C2759 0.961 . S
H2774 C2759 0.961 . S
H2775 C2759 0.961 . S
H2776 C2760 0.931 . S
H2777 C2765 0.930 . S
H2778 C2766 0.956 . S
H2779 C2766 0.961 . S
H2780 C2766 0.961 . S
H2781 C2767 0.958 . S
H2782 C2767 0.961 . S
H2783 C2767 0.960 . S
C2784 C2785 1.391 . S
C2784 C2786 1.394 . S
C2784 H2800 0.931 . S
C2785 C2784 1.391 . S
C2785 C2789 1.376 . S
C2786 C2784 1.394 . S
C2786 C2787 1.369 . S
C2786 C2790 1.531 . S
C2787 C2786 1.369 . S
C2787 C2788 1.410 . S
C2787 C2795 1.503 . S
C2788 C2787 1.410 . S
C2788 C2789 1.392 . S
C2788 C2791 1.511 . S
C2789 C2785 1.376 . S
C2789 C2788 1.392 . S
C2789 H2801 0.929 . S
C2790 C2786 1.531 . S
C2790 H2802 0.960 . S
C2790 H2803 0.962 . S
C2790 H2804 0.960 . S
C2791 C2788 1.511 . S
C2791 H2805 0.961 . S
C2791 H2806 0.961 . S
C2791 H2807 0.961 . S
C2792 C2793 1.370 . S
C2792 C2794 1.363 . S
C2792 H2808 0.931 . S
C2793 C2792 1.370 . S
C2793 C2797 1.399 1_565 S
C2794 C2792 1.363 . S
C2794 C2795 1.370 . S
C2794 C2798 1.524 . S
C2795 C2787 1.503 . S
C2795 C2794 1.370 . S
C2795 C2796 1.403 . S
C2796 C2795 1.403 . S
C2796 C2797 1.392 1_565 S
C2796 C2799 1.539 . S
C2797 C2793 1.399 1_545 S
C2797 C2796 1.392 1_545 S
C2797 H2809 0.950 . S
C2798 C2794 1.524 . S
C2798 H2810 0.956 . S
C2798 H2811 0.961 . S
C2798 H2812 0.961 . S
C2799 C2796 1.539 . S
C2799 H2813 0.958 1_565 S
C2799 H2814 0.961 1_565 S
C2799 H2815 0.960 . S
H2800 C2784 0.931 . S
H2801 C2789 0.929 . S
H2802 C2790 0.960 . S
H2803 C2790 0.962 . S
H2804 C2790 0.960 . S
H2805 C2791 0.961 . S
H2806 C2791 0.961 . S
H2807 C2791 0.961 . S
H2808 C2792 0.931 . S
H2809 C2797 0.950 . S
H2810 C2798 0.956 . S
H2811 C2798 0.961 . S
H2812 C2798 0.961 . S
H2813 C2799 0.958 1_545 S
H2814 C2799 0.961 1_545 S
H2815 C2799 0.960 . S
C2816 C2817 1.391 . S
C2816 C2818 1.394 . S
C2816 H2832 0.931 . S
C2817 C2816 1.391 . S
C2817 C2821 1.376 . S
C2818 C2816 1.394 . S
C2818 C2819 1.369 . S
C2818 C2822 1.531 . S
C2819 C2818 1.369 . S
C2819 C2820 1.410 . S
C2819 C2827 1.503 . S
C2820 C2819 1.410 . S
C2820 C2821 1.392 . S
C2820 C2823 1.511 . S
C2821 C2817 1.376 . S
C2821 C2820 1.392 . S
C2821 H2833 0.929 . S
C2822 C2818 1.531 . S
C2822 H2834 0.960 . S
C2822 H2835 0.962 . S
C2822 H2836 0.960 . S
C2823 C2820 1.511 . S
C2823 H2837 0.961 . S
C2823 H2838 0.961 . S
C2823 H2839 0.961 . S
C2824 C2825 1.370 . S
C2824 C2826 1.363 . S
C2824 H2840 0.931 . S
C2825 C2824 1.370 . S
C2825 C2829 1.408 . S
C2826 C2824 1.363 . S
C2826 C2827 1.370 . S
C2826 C2830 1.524 . S
C2827 C2819 1.503 . S
C2827 C2826 1.370 . S
C2827 C2828 1.403 . S
C2828 C2827 1.403 . S
C2828 C2829 1.404 . S
C2828 C2831 1.539 . S
C2829 C2825 1.408 . S
C2829 C2828 1.404 . S
C2829 H2841 0.930 . S
C2830 C2826 1.524 . S
C2830 H2842 0.956 . S
C2830 H2843 0.961 . S
C2830 H2844 0.961 . S
C2831 C2828 1.539 . S
C2831 H2845 0.958 . S
C2831 H2846 0.961 . S
C2831 H2847 0.960 . S
H2832 C2816 0.931 . S
H2833 C2821 0.929 . S
H2834 C2822 0.960 . S
H2835 C2822 0.962 . S
H2836 C2822 0.960 . S
H2837 C2823 0.961 . S
H2838 C2823 0.961 . S
H2839 C2823 0.961 . S
H2840 C2824 0.931 . S
H2841 C2829 0.930 . S
H2842 C2830 0.956 . S
H2843 C2830 0.961 . S
H2844 C2830 0.961 . S
H2845 C2831 0.958 . S
H2846 C2831 0.961 . S
H2847 C2831 0.960 . S
C2848 C2849 1.391 . S
C2848 C2850 1.394 . S
C2848 H2864 0.931 . S
C2849 C2848 1.391 . S
C2849 C2853 1.376 . S
C2850 C2848 1.394 . S
C2850 C2851 1.369 . S
C2850 C2854 1.531 . S
C2851 C2850 1.369 . S
C2851 C2852 1.410 . S
C2851 C2859 1.503 . S
C2852 C2851 1.410 . S
C2852 C2853 1.392 . S
C2852 C2855 1.511 . S
C2853 C2849 1.376 . S
C2853 C2852 1.392 . S
C2853 H2865 0.929 1_545 S
C2854 C2850 1.531 . S
C2854 H2866 0.960 . S
C2854 H2867 0.962 . S
C2854 H2868 0.960 . S
C2855 C2852 1.511 . S
C2855 H2869 0.961 1_545 S
C2855 H2870 0.961 . S
C2855 H2871 0.961 . S
C2856 C2857 1.370 . S
C2856 C2858 1.363 . S
C2856 H2872 0.931 . S
C2857 C2856 1.370 . S
C2857 C2861 1.408 . S
C2858 C2856 1.363 . S
C2858 C2859 1.370 . S
C2858 C2862 1.524 . S
C2859 C2851 1.503 . S
C2859 C2858 1.370 . S
C2859 C2860 1.403 . S
C2860 C2859 1.403 . S
C2860 C2861 1.404 . S
C2860 C2863 1.539 . S
C2861 C2857 1.408 . S
C2861 C2860 1.404 . S
C2861 H2873 0.930 . S
C2862 C2858 1.524 . S
C2862 H2874 0.956 . S
C2862 H2875 0.961 . S
C2862 H2876 0.961 . S
C2863 C2860 1.539 . S
C2863 H2877 0.958 . S
C2863 H2878 0.961 . S
C2863 H2879 0.960 . S
H2864 C2848 0.931 . S
H2865 C2853 0.929 1_565 S
H2866 C2854 0.960 . S
H2867 C2854 0.962 . S
H2868 C2854 0.960 . S
H2869 C2855 0.961 1_565 S
H2870 C2855 0.961 . S
H2871 C2855 0.961 . S
H2872 C2856 0.931 . S
H2873 C2861 0.930 . S
H2874 C2862 0.956 . S
H2875 C2862 0.961 . S
H2876 C2862 0.961 . S
H2877 C2863 0.958 . S
H2878 C2863 0.961 . S
H2879 C2863 0.960 . S
C2880 C2881 1.391 . S
C2880 C2882 1.394 . S
C2880 H2896 0.931 . S
C2881 C2880 1.391 . S
C2881 C2885 1.376 . S
C2882 C2880 1.394 . S
C2882 C2883 1.369 . S
C2882 C2886 1.531 . S
C2883 C2882 1.369 . S
C2883 C2884 1.410 . S
C2883 C2891 1.503 . S
C2884 C2883 1.410 . S
C2884 C2885 1.392 . S
C2884 C2887 1.511 . S
C2885 C2881 1.376 . S
C2885 C2884 1.392 . S
C2885 H2897 0.929 . S
C2886 C2882 1.531 . S
C2886 H2898 0.960 . S
C2886 H2899 0.962 . S
C2886 H2900 0.960 . S
C2887 C2884 1.511 . S
C2887 H2901 0.961 . S
C2887 H2902 0.961 . S
C2887 H2903 0.961 . S
C2888 C2889 1.370 . S
C2888 C2890 1.363 . S
C2888 H2904 0.931 . S
C2889 C2888 1.370 . S
C2889 C2893 1.408 . S
C2890 C2888 1.363 . S
C2890 C2891 1.370 . S
C2890 C2894 1.524 . S
C2891 C2883 1.503 . S
C2891 C2890 1.370 . S
C2891 C2892 1.403 . S
C2892 C2891 1.403 . S
C2892 C2893 1.404 . S
C2892 C2895 1.539 . S
C2893 C2889 1.408 . S
C2893 C2892 1.404 . S
C2893 H2905 0.930 . S
C2894 C2890 1.524 . S
C2894 H2906 0.956 . S
C2894 H2907 0.961 . S
C2894 H2908 0.961 . S
C2895 C2892 1.539 . S
C2895 H2909 0.958 . S
C2895 H2910 0.961 . S
C2895 H2911 0.960 . S
H2896 C2880 0.931 . S
H2897 C2885 0.929 . S
H2898 C2886 0.960 . S
H2899 C2886 0.962 . S
H2900 C2886 0.960 . S
H2901 C2887 0.961 . S
H2902 C2887 0.961 . S
H2903 C2887 0.961 . S
H2904 C2888 0.931 . S
H2905 C2893 0.930 . S
H2906 C2894 0.956 . S
H2907 C2894 0.961 . S
H2908 C2894 0.961 . S
H2909 C2895 0.958 . S
H2910 C2895 0.961 . S
H2911 C2895 0.960 . S
C2912 C2913 1.391 . S
C2912 C2914 1.394 . S
C2912 H2928 0.931 . S
C2913 C2912 1.391 . S
C2913 C2917 1.376 . S
C2914 C2912 1.394 . S
C2914 C2915 1.369 . S
C2914 C2918 1.531 . S
C2915 C2914 1.369 . S
C2915 C2916 1.410 . S
C2915 C2923 1.503 . S
C2916 C2915 1.410 . S
C2916 C2917 1.392 . S
C2916 C2919 1.511 . S
C2917 C2913 1.376 . S
C2917 C2916 1.392 . S
C2917 H2929 0.929 . S
C2918 C2914 1.531 . S
C2918 H2930 0.960 . S
C2918 H2931 0.962 . S
C2918 H2932 0.960 . S
C2919 C2916 1.511 . S
C2919 H2933 0.961 . S
C2919 H2934 0.961 . S
C2919 H2935 0.961 . S
C2920 C2921 1.370 . S
C2920 C2922 1.363 . S
C2920 H2936 0.931 . S
C2921 C2920 1.370 . S
C2921 C2925 1.408 . S
C2922 C2920 1.363 . S
C2922 C2923 1.370 . S
C2922 C2926 1.524 . S
C2923 C2915 1.503 . S
C2923 C2922 1.370 . S
C2923 C2924 1.403 . S
C2924 C2923 1.403 . S
C2924 C2925 1.404 . S
C2924 C2927 1.539 . S
C2925 C2921 1.408 . S
C2925 C2924 1.404 . S
C2925 H2937 0.930 . S
C2926 C2922 1.524 . S
C2926 H2938 0.956 . S
C2926 H2939 0.961 . S
C2926 H2940 0.961 . S
C2927 C2924 1.539 . S
C2927 H2941 0.958 . S
C2927 H2942 0.961 . S
C2927 H2943 0.960 . S
H2928 C2912 0.931 . S
H2929 C2917 0.929 . S
H2930 C2918 0.960 . S
H2931 C2918 0.962 . S
H2932 C2918 0.960 . S
H2933 C2919 0.961 . S
H2934 C2919 0.961 . S
H2935 C2919 0.961 . S
H2936 C2920 0.931 . S
H2937 C2925 0.930 . S
H2938 C2926 0.956 . S
H2939 C2926 0.961 . S
H2940 C2926 0.961 . S
H2941 C2927 0.958 . S
H2942 C2927 0.961 . S
H2943 C2927 0.960 . S
C2944 C2945 1.391 . S
C2944 C2946 1.394 . S
C2944 H2960 0.931 . S
C2945 C2944 1.391 . S
C2945 C2949 1.376 . S
C2946 C2944 1.394 . S
C2946 C2947 1.369 . S
C2946 C2950 1.531 . S
C2947 C2946 1.369 . S
C2947 C2948 1.410 . S
C2947 C2955 1.503 . S
C2948 C2947 1.410 . S
C2948 C2949 1.392 . S
C2948 C2951 1.511 . S
C2949 C2945 1.376 . S
C2949 C2948 1.392 . S
C2949 H2961 0.929 . S
C2950 C2946 1.531 . S
C2950 H2962 0.960 . S
C2950 H2963 0.962 . S
C2950 H2964 0.960 . S
C2951 C2948 1.511 . S
C2951 H2965 0.961 . S
C2951 H2966 0.961 . S
C2951 H2967 0.961 . S
C2952 C2953 1.370 . S
C2952 C2954 1.363 . S
C2952 H2968 0.931 . S
C2953 C2952 1.370 . S
C2953 C2957 1.408 . S
C2954 C2952 1.363 . S
C2954 C2955 1.370 . S
C2954 C2958 1.524 . S
C2955 C2947 1.503 . S
C2955 C2954 1.370 . S
C2955 C2956 1.403 . S
C2956 C2955 1.403 . S
C2956 C2957 1.404 . S
C2956 C2959 1.539 . S
C2957 C2953 1.408 . S
C2957 C2956 1.404 . S
C2957 H2969 0.930 . S
C2958 C2954 1.524 . S
C2958 H2970 0.956 . S
C2958 H2971 0.961 . S
C2958 H2972 0.961 . S
C2959 C2956 1.539 . S
C2959 H2973 0.958 . S
C2959 H2974 0.961 . S
C2959 H2975 0.960 . S
H2960 C2944 0.931 . S
H2961 C2949 0.929 . S
H2962 C2950 0.960 . S
H2963 C2950 0.962 . S
H2964 C2950 0.960 . S
H2965 C2951 0.961 . S
H2966 C2951 0.961 . S
H2967 C2951 0.961 . S
H2968 C2952 0.931 . S
H2969 C2957 0.930 . S
H2970 C2958 0.956 . S
H2971 C2958 0.961 . S
H2972 C2958 0.961 . S
H2973 C2959 0.958 . S
H2974 C2959 0.961 . S
H2975 C2959 0.960 . S
C2976 C2977 1.391 . S
C2976 C2978 1.394 . S
C2976 H2992 0.931 . S
C2977 C2976 1.391 . S
C2977 C2981 1.376 . S
C2978 C2976 1.394 . S
C2978 C2979 1.369 . S
C2978 C2982 1.531 . S
C2979 C2978 1.369 . S
C2979 C2980 1.410 . S
C2979 C2987 1.503 . S
C2980 C2979 1.410 . S
C2980 C2981 1.392 . S
C2980 C2983 1.511 . S
C2981 C2977 1.376 . S
C2981 C2980 1.392 . S
C2981 H2993 0.929 . S
C2982 C2978 1.531 . S
C2982 H2994 0.960 . S
C2982 H2995 0.962 . S
C2982 H2996 0.960 . S
C2983 C2980 1.511 . S
C2983 H2997 0.961 . S
C2983 H2998 0.961 . S
C2983 H2999 0.961 . S
C2984 C2985 1.370 . S
C2984 C2986 1.363 . S
C2984 H3000 0.931 . S
C2985 C2984 1.370 . S
C2985 C2989 1.408 . S
C2986 C2984 1.363 . S
C2986 C2987 1.370 . S
C2986 C2990 1.524 . S
C2987 C2979 1.503 . S
C2987 C2986 1.370 . S
C2987 C2988 1.403 . S
C2988 C2987 1.403 . S
C2988 C2989 1.404 . S
C2988 C2991 1.539 . S
C2989 C2985 1.408 . S
C2989 C2988 1.404 . S
C2989 H3001 0.930 . S
C2990 C2986 1.524 . S
C2990 H3002 0.956 . S
C2990 H3003 0.961 . S
C2990 H3004 0.961 . S
C2991 C2988 1.539 . S
C2991 H3005 0.958 . S
C2991 H3006 0.961 . S
C2991 H3007 0.960 . S
H2992 C2976 0.931 . S
H2993 C2981 0.929 . S
H2994 C2982 0.960 . S
H2995 C2982 0.962 . S
H2996 C2982 0.960 . S
H2997 C2983 0.961 . S
H2998 C2983 0.961 . S
H2999 C2983 0.961 . S
H3000 C2984 0.931 . S
H3001 C2989 0.930 . S
H3002 C2990 0.956 . S
H3003 C2990 0.961 . S
H3004 C2990 0.961 . S
H3005 C2991 0.958 . S
H3006 C2991 0.961 . S
H3007 C2991 0.960 . S
C3008 C3009 1.391 . S
C3008 C3010 1.394 . S
C3008 H3024 0.931 . S
C3009 C3008 1.391 . S
C3009 C3013 1.376 . S
C3010 C3008 1.394 . S
C3010 C3011 1.369 . S
C3010 C3014 1.531 . S
C3011 C3010 1.369 . S
C3011 C3012 1.410 . S
C3011 C3019 1.503 . S
C3012 C3011 1.410 . S
C3012 C3013 1.392 . S
C3012 C3015 1.511 . S
C3013 C3009 1.376 . S
C3013 C3012 1.392 . S
C3013 H3025 0.929 . S
C3014 C3010 1.531 . S
C3014 H3026 0.960 . S
C3014 H3027 0.962 . S
C3014 H3028 0.960 . S
C3015 C3012 1.511 . S
C3015 H3029 0.961 . S
C3015 H3030 0.961 . S
C3015 H3031 0.961 . S
C3016 C3017 1.370 . S
C3016 C3018 1.363 . S
C3016 H3032 0.931 . S
C3017 C3016 1.370 . S
C3017 C3021 1.408 . S
C3018 C3016 1.363 . S
C3018 C3019 1.370 . S
C3018 C3022 1.524 . S
C3019 C3011 1.503 . S
C3019 C3018 1.370 . S
C3019 C3020 1.403 . S
C3020 C3019 1.403 . S
C3020 C3021 1.404 . S
C3020 C3023 1.539 . S
C3021 C3017 1.408 . S
C3021 C3020 1.404 . S
C3021 H3033 0.930 . S
C3022 C3018 1.524 . S
C3022 H3034 0.956 . S
C3022 H3035 0.961 . S
C3022 H3036 0.961 . S
C3023 C3020 1.539 . S
C3023 H3037 0.958 . S
C3023 H3038 0.961 . S
C3023 H3039 0.960 . S
H3024 C3008 0.931 . S
H3025 C3013 0.929 . S
H3026 C3014 0.960 . S
H3027 C3014 0.962 . S
H3028 C3014 0.960 . S
H3029 C3015 0.961 . S
H3030 C3015 0.961 . S
H3031 C3015 0.961 . S
H3032 C3016 0.931 . S
H3033 C3021 0.930 . S
H3034 C3022 0.956 . S
H3035 C3022 0.961 . S
H3036 C3022 0.961 . S
H3037 C3023 0.958 . S
H3038 C3023 0.961 . S
H3039 C3023 0.960 . S
C3040 C3041 1.391 . S
C3040 C3042 1.394 . S
C3040 H3056 0.931 . S
C3041 C3040 1.391 . S
C3041 C3045 1.376 . S
C3042 C3040 1.394 . S
C3042 C3043 1.369 . S
C3042 C3046 1.531 . S
C3043 C3042 1.369 . S
C3043 C3044 1.410 . S
C3043 C3051 1.503 . S
C3044 C3043 1.410 . S
C3044 C3045 1.392 . S
C3044 C3047 1.511 . S
C3045 C3041 1.376 . S
C3045 C3044 1.392 . S
C3045 H3057 0.929 . S
C3046 C3042 1.531 . S
C3046 H3058 0.960 . S
C3046 H3059 0.962 . S
C3046 H3060 0.960 . S
C3047 C3044 1.511 . S
C3047 H3061 0.961 . S
C3047 H3062 0.961 . S
C3047 H3063 0.961 . S
C3048 C3049 1.370 . S
C3048 C3050 1.363 . S
C3048 H3064 0.931 . S
C3049 C3048 1.370 . S
C3049 C3053 1.408 . S
C3050 C3048 1.363 . S
C3050 C3051 1.370 . S
C3050 C3054 1.524 . S
C3051 C3043 1.503 . S
C3051 C3050 1.370 . S
C3051 C3052 1.403 . S
C3052 C3051 1.403 . S
C3052 C3053 1.404 . S
C3052 C3055 1.539 . S
C3053 C3049 1.408 . S
C3053 C3052 1.404 . S
C3053 H3065 0.930 . S
C3054 C3050 1.524 . S
C3054 H3066 0.956 . S
C3054 H3067 0.961 . S
C3054 H3068 0.961 . S
C3055 C3052 1.539 . S
C3055 H3069 0.958 . S
C3055 H3070 0.961 . S
C3055 H3071 0.960 . S
H3056 C3040 0.931 . S
H3057 C3045 0.929 . S
H3058 C3046 0.960 . S
H3059 C3046 0.962 . S
H3060 C3046 0.960 . S
H3061 C3047 0.961 . S
H3062 C3047 0.961 . S
H3063 C3047 0.961 . S
H3064 C3048 0.931 . S
H3065 C3053 0.930 . S
H3066 C3054 0.956 . S
H3067 C3054 0.961 . S
H3068 C3054 0.961 . S
H3069 C3055 0.958 . S
H3070 C3055 0.961 . S
H3071 C3055 0.960 . S
C3072 C3073 1.391 . S
C3072 C3074 1.394 . S
C3072 H3088 0.931 . S
C3073 C3072 1.391 . S
C3073 C3077 1.376 . S
C3074 C3072 1.394 . S
C3074 C3075 1.369 . S
C3074 C3078 1.531 . S
C3075 C3074 1.369 . S
C3075 C3076 1.410 . S
C3075 C3083 1.503 . S
C3076 C3075 1.410 . S
C3076 C3077 1.392 . S
C3076 C3079 1.511 . S
C3077 C3073 1.376 . S
C3077 C3076 1.392 . S
C3077 H3089 0.929 . S
C3078 C3074 1.531 . S
C3078 H3090 0.960 . S
C3078 H3091 0.962 . S
C3078 H3092 0.960 . S
C3079 C3076 1.511 . S
C3079 H3093 0.961 . S
C3079 H3094 0.961 . S
C3079 H3095 0.961 . S
C3080 C3081 1.370 . S
C3080 C3082 1.363 . S
C3080 H3096 0.931 . S
C3081 C3080 1.370 . S
C3081 C3085 1.408 . S
C3082 C3080 1.363 . S
C3082 C3083 1.370 . S
C3082 C3086 1.524 . S
C3083 C3075 1.503 . S
C3083 C3082 1.370 . S
C3083 C3084 1.403 . S
C3084 C3083 1.403 . S
C3084 C3085 1.404 . S
C3084 C3087 1.539 . S
C3085 C3081 1.408 . S
C3085 C3084 1.404 . S
C3085 H3097 0.930 . S
C3086 C3082 1.524 . S
C3086 H3098 0.956 . S
C3086 H3099 0.961 . S
C3086 H3100 0.961 . S
C3087 C3084 1.539 . S
C3087 H3101 0.958 . S
C3087 H3102 0.961 . S
C3087 H3103 0.960 . S
H3088 C3072 0.931 . S
H3089 C3077 0.929 . S
H3090 C3078 0.960 . S
H3091 C3078 0.962 . S
H3092 C3078 0.960 . S
H3093 C3079 0.961 . S
H3094 C3079 0.961 . S
H3095 C3079 0.961 . S
H3096 C3080 0.931 . S
H3097 C3085 0.930 . S
H3098 C3086 0.956 . S
H3099 C3086 0.961 . S
H3100 C3086 0.961 . S
H3101 C3087 0.958 . S
H3102 C3087 0.961 . S
H3103 C3087 0.960 . S
C3104 C3105 1.391 . S
C3104 C3106 1.394 . S
C3104 H3120 0.931 . S
C3105 C3104 1.391 . S
C3105 C3109 1.376 . S
C3106 C3104 1.394 . S
C3106 C3107 1.369 . S
C3106 C3110 1.531 . S
C3107 C3106 1.369 . S
C3107 C3108 1.410 . S
C3107 C3115 1.503 . S
C3108 C3107 1.410 . S
C3108 C3109 1.392 . S
C3108 C3111 1.511 . S
C3109 C3105 1.376 . S
C3109 C3108 1.392 . S
C3109 H3121 0.929 . S
C3110 C3106 1.531 . S
C3110 H3122 0.960 . S
C3110 H3123 0.962 . S
C3110 H3124 0.960 . S
C3111 C3108 1.511 . S
C3111 H3125 0.961 . S
C3111 H3126 0.961 . S
C3111 H3127 0.961 . S
C3112 C3113 1.370 . S
C3112 C3114 1.363 . S
C3112 H3128 0.931 . S
C3113 C3112 1.370 . S
C3113 C3117 1.408 . S
C3114 C3112 1.363 . S
C3114 C3115 1.370 . S
C3114 C3118 1.524 . S
C3115 C3107 1.503 . S
C3115 C3114 1.370 . S
C3115 C3116 1.403 . S
C3116 C3115 1.403 . S
C3116 C3117 1.404 . S
C3116 C3119 1.539 . S
C3117 C3113 1.408 . S
C3117 C3116 1.404 . S
C3117 H3129 0.930 . S
C3118 C3114 1.524 . S
C3118 H3130 0.956 . S
C3118 H3131 0.961 . S
C3118 H3132 0.961 . S
C3119 C3116 1.539 . S
C3119 H3133 0.958 . S
C3119 H3134 0.961 . S
C3119 H3135 0.960 . S
H3120 C3104 0.931 . S
H3121 C3109 0.929 . S
H3122 C3110 0.960 . S
H3123 C3110 0.962 . S
H3124 C3110 0.960 . S
H3125 C3111 0.961 . S
H3126 C3111 0.961 . S
H3127 C3111 0.961 . S
H3128 C3112 0.931 . S
H3129 C3117 0.930 . S
H3130 C3118 0.956 . S
H3131 C3118 0.961 . S
H3132 C3118 0.961 . S
H3133 C3119 0.958 . S
H3134 C3119 0.961 . S
H3135 C3119 0.960 . S
C3136 C3137 1.391 . S
C3136 C3138 1.394 . S
C3136 H3152 0.931 . S
C3137 C3136 1.391 . S
C3137 C3141 1.376 . S
C3138 C3136 1.394 . S
C3138 C3139 1.369 . S
C3138 C3142 1.531 . S
C3139 C3138 1.369 . S
C3139 C3140 1.410 . S
C3139 C3147 1.503 . S
C3140 C3139 1.410 . S
C3140 C3141 1.392 . S
C3140 C3143 1.511 . S
C3141 C3137 1.376 . S
C3141 C3140 1.392 . S
C3141 H3153 0.929 . S
C3142 C3138 1.531 . S
C3142 H3154 0.960 . S
C3142 H3155 0.962 . S
C3142 H3156 0.960 . S
C3143 C3140 1.511 . S
C3143 H3157 0.961 . S
C3143 H3158 0.961 . S
C3143 H3159 0.961 . S
C3144 C3145 1.370 . S
C3144 C3146 1.363 . S
C3144 H3160 0.931 . S
C3145 C3144 1.370 . S
C3145 C3149 1.408 . S
C3146 C3144 1.363 . S
C3146 C3147 1.370 . S
C3146 C3150 1.524 . S
C3147 C3139 1.503 . S
C3147 C3146 1.370 . S
C3147 C3148 1.403 . S
C3148 C3147 1.403 . S
C3148 C3149 1.404 . S
C3148 C3151 1.539 . S
C3149 C3145 1.408 . S
C3149 C3148 1.404 . S
C3149 H3161 0.930 . S
C3150 C3146 1.524 . S
C3150 H3162 0.956 . S
C3150 H3163 0.961 . S
C3150 H3164 0.961 . S
C3151 C3148 1.539 . S
C3151 H3165 0.958 . S
C3151 H3166 0.961 . S
C3151 H3167 0.960 . S
H3152 C3136 0.931 . S
H3153 C3141 0.929 . S
H3154 C3142 0.960 . S
H3155 C3142 0.962 . S
H3156 C3142 0.960 . S
H3157 C3143 0.961 . S
H3158 C3143 0.961 . S
H3159 C3143 0.961 . S
H3160 C3144 0.931 . S
H3161 C3149 0.930 . S
H3162 C3150 0.956 . S
H3163 C3150 0.961 . S
H3164 C3150 0.961 . S
H3165 C3151 0.958 . S
H3166 C3151 0.961 . S
H3167 C3151 0.960 . S
C3168 C3169 1.391 . S
C3168 C3170 1.394 . S
C3168 H3184 0.931 . S
C3169 C3168 1.391 . S
C3169 C3173 1.376 1_565 S
C3170 C3168 1.394 . S
C3170 C3171 1.369 . S
C3170 C3174 1.531 . S
C3171 C3170 1.369 . S
C3171 C3172 1.410 1_565 S
C3171 C3179 1.509 1_455 S
C3172 C3171 1.410 1_545 S
C3172 C3173 1.392 . S
C3172 C3175 1.511 1_455 S
C3173 C3169 1.376 1_545 S
C3173 C3172 1.392 . S
C3173 H3185 0.929 . S
C3174 C3170 1.531 . S
C3174 H3186 0.960 . S
C3174 H3187 0.962 . S
C3174 H3188 0.960 . S
C3175 C3172 1.511 1_655 S
C3175 H3189 0.961 . S
C3175 H3190 0.961 . S
C3175 H3191 0.961 . S
C3176 C3177 1.370 . S
C3176 C3178 1.363 . S
C3176 H3192 0.931 . S
C3177 C3176 1.370 . S
C3177 C3181 1.408 1_545 S
C3178 C3176 1.363 . S
C3178 C3179 1.352 1_545 S
C3178 C3182 1.524 1_655 S
C3179 C3171 1.509 1_655 S
C3179 C3178 1.352 1_565 S
C3179 C3180 1.416 . S
C3180 C3179 1.416 . S
C3180 C3181 1.404 . S
C3180 C3183 1.539 . S
C3181 C3177 1.408 1_565 S
C3181 C3180 1.404 . S
C3181 H3193 0.930 . S
C3182 C3178 1.524 1_455 S
C3182 H3194 0.956 . S
C3182 H3195 0.961 . S
C3182 H3196 0.961 . S
C3183 C3180 1.539 . S
C3183 H3197 0.958 . S
C3183 H3198 0.961 . S
C3183 H3199 0.960 . S
H3184 C3168 0.931 . S
H3185 C3173 0.929 . S
H3186 C3174 0.960 . S
H3187 C3174 0.962 . S
H3188 C3174 0.960 . S
H3189 C3175 0.961 . S
H3190 C3175 0.961 . S
H3191 C3175 0.961 . S
H3192 C3176 0.931 . S
H3193 C3181 0.930 . S
H3194 C3182 0.956 . S
H3195 C3182 0.961 . S
H3196 C3182 0.961 . S
H3197 C3183 0.958 . S
H3198 C3183 0.961 . S
H3199 C3183 0.960 . S
C3200 C3201 1.391 . S
C3200 C3202 1.394 . S
C3200 H3216 0.931 . S
C3201 C3200 1.391 . S
C3201 C3205 1.376 . S
C3202 C3200 1.394 . S
C3202 C3203 1.369 . S
C3202 C3206 1.531 . S
C3203 C3202 1.369 . S
C3203 C3204 1.410 . S
C3203 C3211 1.503 . S
C3204 C3203 1.410 . S
C3204 C3205 1.392 . S
C3204 C3207 1.511 . S
C3205 C3201 1.376 . S
C3205 C3204 1.392 . S
C3205 H3217 0.929 . S
C3206 C3202 1.531 . S
C3206 H3218 0.960 . S
C3206 H3219 0.962 . S
C3206 H3220 0.960 . S
C3207 C3204 1.511 . S
C3207 H3221 0.961 . S
C3207 H3222 0.961 . S
C3207 H3223 0.961 . S
C3208 C3209 1.370 . S
C3208 C3210 1.363 . S
C3208 H3224 0.931 . S
C3209 C3208 1.370 . S
C3209 C3213 1.408 . S
C3210 C3208 1.363 . S
C3210 C3211 1.370 . S
C3210 C3214 1.524 . S
C3211 C3203 1.503 . S
C3211 C3210 1.370 . S
C3211 C3212 1.403 . S
C3212 C3211 1.403 . S
C3212 C3213 1.404 . S
C3212 C3215 1.539 . S
C3213 C3209 1.408 . S
C3213 C3212 1.404 . S
C3213 H3225 0.930 . S
C3214 C3210 1.524 . S
C3214 H3226 0.956 . S
C3214 H3227 0.961 . S
C3214 H3228 0.961 . S
C3215 C3212 1.539 . S
C3215 H3229 0.958 . S
C3215 H3230 0.961 . S
C3215 H3231 0.960 . S
H3216 C3200 0.931 . S
H3217 C3205 0.929 . S
H3218 C3206 0.960 . S
H3219 C3206 0.962 . S
H3220 C3206 0.960 . S
H3221 C3207 0.961 . S
H3222 C3207 0.961 . S
H3223 C3207 0.961 . S
H3224 C3208 0.931 . S
H3225 C3213 0.930 . S
H3226 C3214 0.956 . S
H3227 C3214 0.961 . S
H3228 C3214 0.961 . S
H3229 C3215 0.958 . S
H3230 C3215 0.961 . S
H3231 C3215 0.960 . S
C3232 C3233 1.391 . S
C3232 C3234 1.394 . S
C3232 H3248 0.931 . S
C3233 C3232 1.391 . S
C3233 C3237 1.376 . S
C3234 C3232 1.394 . S
C3234 C3235 1.369 . S
C3234 C3238 1.531 1_554 S
C3235 C3234 1.369 . S
C3235 C3236 1.410 . S
C3235 C3243 1.503 1_554 S
C3236 C3235 1.410 . S
C3236 C3237 1.392 . S
C3236 C3239 1.511 . S
C3237 C3233 1.376 . S
C3237 C3236 1.392 . S
C3237 H3249 0.929 . S
C3238 C3234 1.531 1_556 S
C3238 H3250 0.960 . S
C3238 H3251 0.962 1_545 S
C3238 H3252 0.960 . S
C3239 C3236 1.511 . S
C3239 H3253 0.961 1_545 S
C3239 H3254 0.961 1_545 S
C3239 H3255 0.961 . S
C3240 C3241 1.370 . S
C3240 C3242 1.363 . S
C3240 H3256 0.931 . S
C3241 C3240 1.370 . S
C3241 C3245 1.408 1_565 S
C3242 C3240 1.363 . S
C3242 C3243 1.370 1_565 S
C3242 C3246 1.524 . S
C3243 C3235 1.503 1_556 S
C3243 C3242 1.370 1_545 S
C3243 C3244 1.403 . S
C3244 C3243 1.403 . S
C3244 C3245 1.404 . S
C3244 C3247 1.539 . S
C3245 C3241 1.408 1_545 S
C3245 C3244 1.404 . S
C3245 H3257 0.930 . S
C3246 C3242 1.524 . S
C3246 H3258 0.956 . S
C3246 H3259 0.961 1_556 S
C3246 H3260 0.961 . S
C3247 C3244 1.539 . S
C3247 H3261 0.958 . S
C3247 H3262 0.961 . S
C3247 H3263 0.960 1_556 S
H3248 C3232 0.931 . S
H3249 C3237 0.929 . S
H3250 C3238 0.960 . S
H3251 C3238 0.962 1_565 S
H3252 C3238 0.960 . S
H3253 C3239 0.961 1_565 S
H3254 C3239 0.961 1_565 S
H3255 C3239 0.961 . S
H3256 C3240 0.931 . S
H3257 C3245 0.930 . S
H3258 C3246 0.956 . S
H3259 C3246 0.961 1_554 S
H3260 C3246 0.961 . S
H3261 C3247 0.958 . S
H3262 C3247 0.961 . S
H3263 C3247 0.960 1_554 S
C3264 C3265 1.391 . S
C3264 C3266 1.394 . S
C3264 H3280 0.931 . S
C3265 C3264 1.391 . S
C3265 C3269 1.376 . S
C3266 C3264 1.394 . S
C3266 C3267 1.369 . S
C3266 C3270 1.531 . S
C3267 C3266 1.369 . S
C3267 C3268 1.410 . S
C3267 C3275 1.503 . S
C3268 C3267 1.410 . S
C3268 C3269 1.392 . S
C3268 C3271 1.511 . S
C3269 C3265 1.376 . S
C3269 C3268 1.392 . S
C3269 H3281 0.929 . S
C3270 C3266 1.531 . S
C3270 H3282 0.960 . S
C3270 H3283 0.962 . S
C3270 H3284 0.960 . S
C3271 C3268 1.511 . S
C3271 H3285 0.961 . S
C3271 H3286 0.961 . S
C3271 H3287 0.961 . S
C3272 C3273 1.370 . S
C3272 C3274 1.363 . S
C3272 H3288 0.931 . S
C3273 C3272 1.370 . S
C3273 C3277 1.408 . S
C3274 C3272 1.363 . S
C3274 C3275 1.370 . S
C3274 C3278 1.524 . S
C3275 C3267 1.503 . S
C3275 C3274 1.370 . S
C3275 C3276 1.403 . S
C3276 C3275 1.403 . S
C3276 C3277 1.404 . S
C3276 C3279 1.539 . S
C3277 C3273 1.408 . S
C3277 C3276 1.404 . S
C3277 H3289 0.930 . S
C3278 C3274 1.524 . S
C3278 H3290 0.956 . S
C3278 H3291 0.961 . S
C3278 H3292 0.961 . S
C3279 C3276 1.539 . S
C3279 H3293 0.958 . S
C3279 H3294 0.961 . S
C3279 H3295 0.960 . S
H3280 C3264 0.931 . S
H3281 C3269 0.929 . S
H3282 C3270 0.960 . S
H3283 C3270 0.962 . S
H3284 C3270 0.960 . S
H3285 C3271 0.961 . S
H3286 C3271 0.961 . S
H3287 C3271 0.961 . S
H3288 C3272 0.931 . S
H3289 C3277 0.930 . S
H3290 C3278 0.956 . S
H3291 C3278 0.961 . S
H3292 C3278 0.961 . S
H3293 C3279 0.958 . S
H3294 C3279 0.961 . S
H3295 C3279 0.960 . S
C3296 C3297 1.391 1_565 S
C3296 C3298 1.394 . S
C3296 H3312 0.931 . S
C3297 C3296 1.391 1_545 S
C3297 C3301 1.376 . S
C3298 C3296 1.394 . S
C3298 C3299 1.369 . S
C3298 C3302 1.531 . S
C3299 C3298 1.369 . S
C3299 C3300 1.410 1_565 S
C3299 C3307 1.503 . S
C3300 C3299 1.410 1_545 S
C3300 C3301 1.392 . S
C3300 C3303 1.511 . S
C3301 C3297 1.376 . S
C3301 C3300 1.392 . S
C3301 H3313 0.929 . S
C3302 C3298 1.531 . S
C3302 H3314 0.960 . S
C3302 H3315 0.962 . S
C3302 H3316 0.960 . S
C3303 C3300 1.511 . S
C3303 H3317 0.961 . S
C3303 H3318 0.961 . S
C3303 H3319 0.961 1_545 S
C3304 C3305 1.370 1_545 S
C3304 C3306 1.363 . S
C3304 H3320 0.931 . S
C3305 C3304 1.370 1_565 S
C3305 C3309 1.408 . S
C3306 C3304 1.363 . S
C3306 C3307 1.370 1_545 S
C3306 C3310 1.524 . S
C3307 C3299 1.503 . S
C3307 C3306 1.370 1_565 S
C3307 C3308 1.403 . S
C3308 C3307 1.403 . S
C3308 C3309 1.404 . S
C3308 C3311 1.539 . S
C3309 C3305 1.408 . S
C3309 C3308 1.404 . S
C3309 H3321 0.930 . S
C3310 C3306 1.524 . S
C3310 H3322 0.956 . S
C3310 H3323 0.961 . S
C3310 H3324 0.961 . S
C3311 C3308 1.539 . S
C3311 H3325 0.958 . S
C3311 H3326 0.961 . S
C3311 H3327 0.960 . S
H3312 C3296 0.931 . S
H3313 C3301 0.929 . S
H3314 C3302 0.960 . S
H3315 C3302 0.962 . S
H3316 C3302 0.960 . S
H3317 C3303 0.961 . S
H3318 C3303 0.961 . S
H3319 C3303 0.961 1_565 S
H3320 C3304 0.931 . S
H3321 C3309 0.930 . S
H3322 C3310 0.956 . S
H3323 C3310 0.961 . S
H3324 C3310 0.961 . S
H3325 C3311 0.958 . S
H3326 C3311 0.961 . S
H3327 C3311 0.960 . S
C3328 C3329 1.391 . S
C3328 C3330 1.394 . S
C3328 H3344 0.931 . S
C3329 C3328 1.391 . S
C3329 C3333 1.376 . S
C3330 C3328 1.394 . S
C3330 C3331 1.369 . S
C3330 C3334 1.531 . S
C3331 C3330 1.369 . S
C3331 C3332 1.410 . S
C3331 C3339 1.503 . S
C3332 C3331 1.410 . S
C3332 C3333 1.392 . S
C3332 C3335 1.511 . S
C3333 C3329 1.376 . S
C3333 C3332 1.392 . S
C3333 H3345 0.929 . S
C3334 C3330 1.531 . S
C3334 H3346 0.960 . S
C3334 H3347 0.962 . S
C3334 H3348 0.960 . S
C3335 C3332 1.511 . S
C3335 H3349 0.961 . S
C3335 H3350 0.961 . S
C3335 H3351 0.961 . S
C3336 C3337 1.370 . S
C3336 C3338 1.363 . S
C3336 H3352 0.931 . S
C3337 C3336 1.370 . S
C3337 C3341 1.408 . S
C3338 C3336 1.363 . S
C3338 C3339 1.370 . S
C3338 C3342 1.524 . S
C3339 C3331 1.503 . S
C3339 C3338 1.370 . S
C3339 C3340 1.403 . S
C3340 C3339 1.403 . S
C3340 C3341 1.404 . S
C3340 C3343 1.539 . S
C3341 C3337 1.408 . S
C3341 C3340 1.404 . S
C3341 H3353 0.930 . S
C3342 C3338 1.524 . S
C3342 H3354 0.956 . S
C3342 H3355 0.961 . S
C3342 H3356 0.961 . S
C3343 C3340 1.539 . S
C3343 H3357 0.958 . S
C3343 H3358 0.961 . S
C3343 H3359 0.960 . S
H3344 C3328 0.931 . S
H3345 C3333 0.929 . S
H3346 C3334 0.960 . S
H3347 C3334 0.962 . S
H3348 C3334 0.960 . S
H3349 C3335 0.961 . S
H3350 C3335 0.961 . S
H3351 C3335 0.961 . S
H3352 C3336 0.931 . S
H3353 C3341 0.930 . S
H3354 C3342 0.956 . S
H3355 C3342 0.961 . S
H3356 C3342 0.961 . S
H3357 C3343 0.958 . S
H3358 C3343 0.961 . S
H3359 C3343 0.960 . S
C3360 C3361 1.391 1_545 S
C3360 C3362 1.394 . S
C3360 H3376 0.931 . S
C3361 C3360 1.391 1_565 S
C3361 C3365 1.376 . S
C3362 C3360 1.394 . S
C3362 C3363 1.369 1_545 S
C3362 C3366 1.531 . S
C3363 C3362 1.369 1_565 S
C3363 C3364 1.410 . S
C3363 C3371 1.503 1_664 S
C3364 C3363 1.410 . S
C3364 C3365 1.392 . S
C3364 C3367 1.511 . S
C3365 C3361 1.376 . S
C3365 C3364 1.392 . S
C3365 H3377 0.929 . S
C3366 C3362 1.531 . S
C3366 H3378 0.960 1_655 S
C3366 H3379 0.962 . S
C3366 H3380 0.960 . S
C3367 C3364 1.511 . S
C3367 H3381 0.961 . S
C3367 H3382 0.970 1_554 S
C3367 H3383 0.961 1_655 S
C3368 C3369 1.370 . S
C3368 C3370 1.363 . S
C3368 H3384 0.931 . S
C3369 C3368 1.370 . S
C3369 C3373 1.408 . S
C3370 C3368 1.363 . S
C3370 C3371 1.370 . S
C3370 C3374 1.524 1_455 S
C3371 C3363 1.503 1_446 S
C3371 C3370 1.370 . S
C3371 C3372 1.403 . S
C3372 C3371 1.403 . S
C3372 C3373 1.406 . S
C3372 C3375 1.536 1_546 S
C3373 C3369 1.408 . S
C3373 C3372 1.406 . S
C3373 H3385 0.930 . S
C3374 C3370 1.524 1_655 S
C3374 H3386 0.956 . S
C3374 H3387 0.961 1_545 S
C3374 H3388 0.961 . S
C3375 C3372 1.536 1_564 S
C3375 H3389 0.958 1_565 S
C3375 H3390 0.961 . S
C3375 H3391 0.960 . S
H3376 C3360 0.931 . S
H3377 C3365 0.929 . S
H3378 C3366 0.960 1_455 S
H3379 C3366 0.962 . S
H3380 C3366 0.960 . S
H3381 C3367 0.961 . S
H3382 C3367 0.970 1_556 S
H3383 C3367 0.961 1_455 S
H3384 C3368 0.931 . S
H3385 C3373 0.930 . S
H3386 C3374 0.956 . S
H3387 C3374 0.961 1_565 S
H3388 C3374 0.961 . S
H3389 C3375 0.958 1_545 S
H3390 C3375 0.961 . S
H3391 C3375 0.960 . S
C3392 C3393 1.391 . S
C3392 C3394 1.394 . S
C3392 H3408 0.931 . S
C3393 C3392 1.391 . S
C3393 C3397 1.376 . S
C3394 C3392 1.394 . S
C3394 C3395 1.369 . S
C3394 C3398 1.531 . S
C3395 C3394 1.369 . S
C3395 C3396 1.410 . S
C3395 C3403 1.503 . S
C3396 C3395 1.410 . S
C3396 C3397 1.392 . S
C3396 C3399 1.511 . S
C3397 C3393 1.376 . S
C3397 C3396 1.392 . S
C3397 H3409 0.929 . S
C3398 C3394 1.531 . S
C3398 H3410 0.960 . S
C3398 H3411 0.962 . S
C3398 H3412 0.960 . S
C3399 C3396 1.511 . S
C3399 H3413 0.961 . S
C3399 H3414 0.961 . S
C3399 H3415 0.961 . S
C3400 C3401 1.370 . S
C3400 C3402 1.363 . S
C3400 H3416 0.931 . S
C3401 C3400 1.370 . S
C3401 C3405 1.408 . S
C3402 C3400 1.363 . S
C3402 C3403 1.370 . S
C3402 C3406 1.524 . S
C3403 C3395 1.503 . S
C3403 C3402 1.370 . S
C3403 C3404 1.403 . S
C3404 C3403 1.403 . S
C3404 C3405 1.404 . S
C3404 C3407 1.539 . S
C3405 C3401 1.408 . S
C3405 C3404 1.404 . S
C3405 H3417 0.930 . S
C3406 C3402 1.524 . S
C3406 H3418 0.956 . S
C3406 H3419 0.961 . S
C3406 H3420 0.961 . S
C3407 C3404 1.539 . S
C3407 H3421 0.958 . S
C3407 H3422 0.961 . S
C3407 H3423 0.960 . S
H3408 C3392 0.931 . S
H3409 C3397 0.929 . S
H3410 C3398 0.960 . S
H3411 C3398 0.962 . S
H3412 C3398 0.960 . S
H3413 C3399 0.961 . S
H3414 C3399 0.961 . S
H3415 C3399 0.961 . S
H3416 C3400 0.931 . S
H3417 C3405 0.930 . S
H3418 C3406 0.956 . S
H3419 C3406 0.961 . S
H3420 C3406 0.961 . S
H3421 C3407 0.958 . S
H3422 C3407 0.961 . S
H3423 C3407 0.960 . S
C3424 C3425 1.391 . S
C3424 C3426 1.394 . S
C3424 H3440 0.931 . S
C3425 C3424 1.391 . S
C3425 C3429 1.376 . S
C3426 C3424 1.394 . S
C3426 C3427 1.369 . S
C3426 C3430 1.531 . S
C3427 C3426 1.369 . S
C3427 C3428 1.410 . S
C3427 C3435 1.503 . S
C3428 C3427 1.410 . S
C3428 C3429 1.392 . S
C3428 C3431 1.511 . S
C3429 C3425 1.376 . S
C3429 C3428 1.392 . S
C3429 H3441 0.929 . S
C3430 C3426 1.531 . S
C3430 H3442 0.960 . S
C3430 H3443 0.962 . S
C3430 H3444 0.960 . S
C3431 C3428 1.511 . S
C3431 H3445 0.961 . S
C3431 H3446 0.961 . S
C3431 H3447 0.961 . S
C3432 C3433 1.370 . S
C3432 C3434 1.363 . S
C3432 H3448 0.931 . S
C3433 C3432 1.370 . S
C3433 C3437 1.408 . S
C3434 C3432 1.363 . S
C3434 C3435 1.370 . S
C3434 C3438 1.524 . S
C3435 C3427 1.503 . S
C3435 C3434 1.370 . S
C3435 C3436 1.403 . S
C3436 C3435 1.403 . S
C3436 C3437 1.404 . S
C3436 C3439 1.539 . S
C3437 C3433 1.408 . S
C3437 C3436 1.404 . S
C3437 H3449 0.930 . S
C3438 C3434 1.524 . S
C3438 H3450 0.956 . S
C3438 H3451 0.961 . S
C3438 H3452 0.961 . S
C3439 C3436 1.539 . S
C3439 H3453 0.958 . S
C3439 H3454 0.961 . S
C3439 H3455 0.960 . S
H3440 C3424 0.931 . S
H3441 C3429 0.929 . S
H3442 C3430 0.960 . S
H3443 C3430 0.962 . S
H3444 C3430 0.960 . S
H3445 C3431 0.961 . S
H3446 C3431 0.961 . S
H3447 C3431 0.961 . S
H3448 C3432 0.931 . S
H3449 C3437 0.930 . S
H3450 C3438 0.956 . S
H3451 C3438 0.961 . S
H3452 C3438 0.961 . S
H3453 C3439 0.958 . S
H3454 C3439 0.961 . S
H3455 C3439 0.960 . S
C3456 C3457 1.391 . S
C3456 C3458 1.394 . S
C3456 H3472 0.931 . S
C3457 C3456 1.391 . S
C3457 C3461 1.376 . S
C3458 C3456 1.394 . S
C3458 C3459 1.369 . S
C3458 C3462 1.531 . S
C3459 C3458 1.369 . S
C3459 C3460 1.410 . S
C3459 C3467 1.503 . S
C3460 C3459 1.410 . S
C3460 C3461 1.392 . S
C3460 C3463 1.511 . S
C3461 C3457 1.376 . S
C3461 C3460 1.392 . S
C3461 H3473 0.929 . S
C3462 C3458 1.531 . S
C3462 H3474 0.960 . S
C3462 H3475 0.962 . S
C3462 H3476 0.960 . S
C3463 C3460 1.511 . S
C3463 H3477 0.961 . S
C3463 H3478 0.961 . S
C3463 H3479 0.961 . S
C3464 C3465 1.370 . S
C3464 C3466 1.363 . S
C3464 H3480 0.931 . S
C3465 C3464 1.370 . S
C3465 C3469 1.408 . S
C3466 C3464 1.363 . S
C3466 C3467 1.370 . S
C3466 C3470 1.524 . S
C3467 C3459 1.503 . S
C3467 C3466 1.370 . S
C3467 C3468 1.403 . S
C3468 C3467 1.403 . S
C3468 C3469 1.404 . S
C3468 C3471 1.539 . S
C3469 C3465 1.408 . S
C3469 C3468 1.404 . S
C3469 H3481 0.930 . S
C3470 C3466 1.524 . S
C3470 H3482 0.956 . S
C3470 H3483 0.961 . S
C3470 H3484 0.961 . S
C3471 C3468 1.539 . S
C3471 H3485 0.958 . S
C3471 H3486 0.961 . S
C3471 H3487 0.960 . S
H3472 C3456 0.931 . S
H3473 C3461 0.929 . S
H3474 C3462 0.960 . S
H3475 C3462 0.962 . S
H3476 C3462 0.960 . S
H3477 C3463 0.961 . S
H3478 C3463 0.961 . S
H3479 C3463 0.961 . S
H3480 C3464 0.931 . S
H3481 C3469 0.930 . S
H3482 C3470 0.956 . S
H3483 C3470 0.961 . S
H3484 C3470 0.961 . S
H3485 C3471 0.958 . S
H3486 C3471 0.961 . S
H3487 C3471 0.960 . S
C3488 C3489 1.391 . S
C3488 C3490 1.394 . S
C3488 H3504 0.931 . S
C3489 C3488 1.391 . S
C3489 C3493 1.376 . S
C3490 C3488 1.394 . S
C3490 C3491 1.369 . S
C3490 C3494 1.531 . S
C3491 C3490 1.369 . S
C3491 C3492 1.410 . S
C3491 C3499 1.503 . S
C3492 C3491 1.410 . S
C3492 C3493 1.392 . S
C3492 C3495 1.511 . S
C3493 C3489 1.376 . S
C3493 C3492 1.392 . S
C3493 H3505 0.929 . S
C3494 C3490 1.531 . S
C3494 H3506 0.960 . S
C3494 H3507 0.962 . S
C3494 H3508 0.960 . S
C3495 C3492 1.511 . S
C3495 H3509 0.961 . S
C3495 H3510 0.961 . S
C3495 H3511 0.961 . S
C3496 C3497 1.370 . S
C3496 C3498 1.363 . S
C3496 H3512 0.931 . S
C3497 C3496 1.370 . S
C3497 C3501 1.408 . S
C3498 C3496 1.363 . S
C3498 C3499 1.370 . S
C3498 C3502 1.524 . S
C3499 C3491 1.503 . S
C3499 C3498 1.370 . S
C3499 C3500 1.403 . S
C3500 C3499 1.403 . S
C3500 C3501 1.404 . S
C3500 C3503 1.539 . S
C3501 C3497 1.408 . S
C3501 C3500 1.404 . S
C3501 H3513 0.930 . S
C3502 C3498 1.524 . S
C3502 H3514 0.956 . S
C3502 H3515 0.961 . S
C3502 H3516 0.961 . S
C3503 C3500 1.539 . S
C3503 H3517 0.958 . S
C3503 H3518 0.961 . S
C3503 H3519 0.960 . S
H3504 C3488 0.931 . S
H3505 C3493 0.929 . S
H3506 C3494 0.960 . S
H3507 C3494 0.962 . S
H3508 C3494 0.960 . S
H3509 C3495 0.961 . S
H3510 C3495 0.961 . S
H3511 C3495 0.961 . S
H3512 C3496 0.931 . S
H3513 C3501 0.930 . S
H3514 C3502 0.956 . S
H3515 C3502 0.961 . S
H3516 C3502 0.961 . S
H3517 C3503 0.958 . S
H3518 C3503 0.961 . S
H3519 C3503 0.960 . S
C3520 C3521 1.391 . S
C3520 C3522 1.394 . S
C3520 H3536 0.931 . S
C3521 C3520 1.391 . S
C3521 C3525 1.376 . S
C3522 C3520 1.394 . S
C3522 C3523 1.369 . S
C3522 C3526 1.531 1_556 S
C3523 C3522 1.369 . S
C3523 C3524 1.410 . S
C3523 C3531 1.503 1_556 S
C3524 C3523 1.410 . S
C3524 C3525 1.392 . S
C3524 C3527 1.511 . S
C3525 C3521 1.376 . S
C3525 C3524 1.392 . S
C3525 H3537 0.929 . S
C3526 C3522 1.531 1_554 S
C3526 H3538 0.960 . S
C3526 H3539 0.962 . S
C3526 H3540 0.960 . S
C3527 C3524 1.511 . S
C3527 H3541 0.961 . S
C3527 H3542 0.961 . S
C3527 H3543 0.961 . S
C3528 C3529 1.370 . S
C3528 C3530 1.363 . S
C3528 H3544 0.931 . S
C3529 C3528 1.370 . S
C3529 C3533 1.408 . S
C3530 C3528 1.363 . S
C3530 C3531 1.370 . S
C3530 C3534 1.524 1_554 S
C3531 C3523 1.503 1_554 S
C3531 C3530 1.370 . S
C3531 C3532 1.403 . S
C3532 C3531 1.403 . S
C3532 C3533 1.404 . S
C3532 C3535 1.539 . S
C3533 C3529 1.408 . S
C3533 C3532 1.404 . S
C3533 H3545 0.930 . S
C3534 C3530 1.524 1_556 S
C3534 H3546 0.956 . S
C3534 H3547 0.961 . S
C3534 H3548 0.961 . S
C3535 C3532 1.539 . S
C3535 H3549 0.958 . S
C3535 H3550 0.961 . S
C3535 H3551 0.960 . S
H3536 C3520 0.931 . S
H3537 C3525 0.929 . S
H3538 C3526 0.960 . S
H3539 C3526 0.962 . S
H3540 C3526 0.960 . S
H3541 C3527 0.961 . S
H3542 C3527 0.961 . S
H3543 C3527 0.961 . S
H3544 C3528 0.931 . S
H3545 C3533 0.930 . S
H3546 C3534 0.956 . S
H3547 C3534 0.961 . S
H3548 C3534 0.961 . S
H3549 C3535 0.958 . S
H3550 C3535 0.961 . S
H3551 C3535 0.960 . S
C3552 C3553 1.391 . S
C3552 C3554 1.394 . S
C3552 H3568 0.931 . S
C3553 C3552 1.391 . S
C3553 C3557 1.376 . S
C3554 C3552 1.394 . S
C3554 C3555 1.369 . S
C3554 C3558 1.531 . S
C3555 C3554 1.369 . S
C3555 C3556 1.410 1_455 S
C3555 C3563 1.503 1_455 S
C3556 C3555 1.410 1_655 S
C3556 C3557 1.392 1_655 S
C3556 C3559 1.511 . S
C3557 C3553 1.376 . S
C3557 C3556 1.392 1_455 S
C3557 H3569 0.929 . S
C3558 C3554 1.531 . S
C3558 H3570 0.960 . S
C3558 H3571 0.962 . S
C3558 H3572 0.960 . S
C3559 C3556 1.511 . S
C3559 H3573 0.961 . S
C3559 H3574 0.961 . S
C3559 H3575 0.961 . S
C3560 C3561 1.370 . S
C3560 C3562 1.363 . S
C3560 H3576 0.931 . S
C3561 C3560 1.370 . S
C3561 C3565 1.408 . S
C3562 C3560 1.363 . S
C3562 C3563 1.370 . S
C3562 C3566 1.524 . S
C3563 C3555 1.503 1_655 S
C3563 C3562 1.370 . S
C3563 C3564 1.403 . S
C3564 C3563 1.403 . S
C3564 C3565 1.404 . S
C3564 C3567 1.539 . S
C3565 C3561 1.408 . S
C3565 C3564 1.404 . S
C3565 H3577 0.930 . S
C3566 C3562 1.524 . S
C3566 H3578 0.956 1_655 S
C3566 H3579 0.961 . S
C3566 H3580 0.961 . S
C3567 C3564 1.539 . S
C3567 H3581 0.958 . S
C3567 H3582 0.961 . S
C3567 H3583 0.960 . S
H3568 C3552 0.931 . S
H3569 C3557 0.929 . S
H3570 C3558 0.960 . S
H3571 C3558 0.962 . S
H3572 C3558 0.960 . S
H3573 C3559 0.961 . S
H3574 C3559 0.961 . S
H3575 C3559 0.961 . S
H3576 C3560 0.931 . S
H3577 C3565 0.930 . S
H3578 C3566 0.956 1_455 S
H3579 C3566 0.961 . S
H3580 C3566 0.961 . S
H3581 C3567 0.958 . S
H3582 C3567 0.961 . S
H3583 C3567 0.960 . S
C3584 C3585 1.391 . S
C3584 C3586 1.394 . S
C3584 H3600 0.931 . S
C3585 C3584 1.391 . S
C3585 C3589 1.376 . S
C3586 C3584 1.394 . S
C3586 C3587 1.369 . S
C3586 C3590 1.531 1_554 S
C3587 C3586 1.369 . S
C3587 C3588 1.410 . S
C3587 C3595 1.503 1_454 S
C3588 C3587 1.410 . S
C3588 C3589 1.392 . S
C3588 C3591 1.511 1_455 S
C3589 C3585 1.376 . S
C3589 C3588 1.392 . S
C3589 H3601 0.929 . S
C3590 C3586 1.531 1_556 S
C3590 H3602 0.960 . S
C3590 H3603 0.962 . S
C3590 H3604 0.960 . S
C3591 C3588 1.511 1_655 S
C3591 H3605 0.961 . S
C3591 H3606 0.961 . S
C3591 H3607 0.961 . S
C3592 C3593 1.370 . S
C3592 C3594 1.363 . S
C3592 H3608 0.931 . S
C3593 C3592 1.370 . S
C3593 C3597 1.408 . S
C3594 C3592 1.363 . S
C3594 C3595 1.370 . S
C3594 C3598 1.565 . S
C3595 C3587 1.503 1_656 S
C3595 C3594 1.370 . S
C3595 C3596 1.403 . S
C3596 C3595 1.403 . S
C3596 C3597 1.404 . S
C3596 C3599 1.539 1_655 S
C3597 C3593 1.408 . S
C3597 C3596 1.404 . S
C3597 H3609 0.930 . S
C3598 C3594 1.565 . S
C3598 H3610 0.969 . S
C3598 H3611 0.890 1_556 S
C3598 H3612 0.984 . S
C3599 C3596 1.539 1_455 S
C3599 H3613 0.958 . S
C3599 H3614 0.977 . S
C3599 H3615 0.960 . S
H3600 C3584 0.931 . S
H3601 C3589 0.929 . S
H3602 C3590 0.960 . S
H3603 C3590 0.962 . S
H3604 C3590 0.960 . S
H3605 C3591 0.961 . S
H3606 C3591 0.961 . S
H3607 C3591 0.961 . S
H3608 C3592 0.931 . S
H3609 C3597 0.930 . S
H3610 C3598 0.969 . S
H3611 C3598 0.890 1_554 S
H3612 C3598 0.984 . S
H3613 C3599 0.958 . S
H3614 C3599 0.977 . S
H3615 C3599 0.960 . S
C3616 C3617 1.391 . S
C3616 C3618 1.394 . S
C3616 H3632 0.931 . S
C3617 C3616 1.391 . S
C3617 C3621 1.376 . S
C3618 C3616 1.394 . S
C3618 C3619 1.369 . S
C3618 C3622 1.531 . S
C3619 C3618 1.369 . S
C3619 C3620 1.410 . S
C3619 C3627 1.503 . S
C3620 C3619 1.410 . S
C3620 C3621 1.392 . S
C3620 C3623 1.511 . S
C3621 C3617 1.376 . S
C3621 C3620 1.392 . S
C3621 H3633 0.929 . S
C3622 C3618 1.531 . S
C3622 H3634 0.960 . S
C3622 H3635 0.962 . S
C3622 H3636 0.960 . S
C3623 C3620 1.511 . S
C3623 H3637 0.961 . S
C3623 H3638 0.961 . S
C3623 H3639 0.961 . S
C3624 C3625 1.370 . S
C3624 C3626 1.363 . S
C3624 H3640 0.931 . S
C3625 C3624 1.370 . S
C3625 C3629 1.408 . S
C3626 C3624 1.363 . S
C3626 C3627 1.370 . S
C3626 C3630 1.524 . S
C3627 C3619 1.503 . S
C3627 C3626 1.370 . S
C3627 C3628 1.403 . S
C3628 C3627 1.403 . S
C3628 C3629 1.404 . S
C3628 C3631 1.539 . S
C3629 C3625 1.408 . S
C3629 C3628 1.404 . S
C3629 H3641 0.930 . S
C3630 C3626 1.524 . S
C3630 H3642 0.956 . S
C3630 H3643 0.961 . S
C3630 H3644 0.961 . S
C3631 C3628 1.539 . S
C3631 H3645 0.958 . S
C3631 H3646 0.961 . S
C3631 H3647 0.960 . S
H3632 C3616 0.931 . S
H3633 C3621 0.929 . S
H3634 C3622 0.960 . S
H3635 C3622 0.962 . S
H3636 C3622 0.960 . S
H3637 C3623 0.961 . S
H3638 C3623 0.961 . S
H3639 C3623 0.961 . S
H3640 C3624 0.931 . S
H3641 C3629 0.930 . S
H3642 C3630 0.956 . S
H3643 C3630 0.961 . S
H3644 C3630 0.961 . S
H3645 C3631 0.958 . S
H3646 C3631 0.961 . S
H3647 C3631 0.960 . S
C1089 C9 1.487 . S
C1097 C920 1.498 . S
C1121 C43 1.443 1_655 S
C1129 C274 1.498 . S
C1153 C852 1.493 . S
C1161 C77 1.464 . S
C1185 C342 1.494 . S
C1193 C111 1.459 . S
C1217 C988 1.495 . S
C1225 C145 1.463 . S
C1249 C179 1.447 . S
C1257 C478 1.498 . S
C1281 C213 1.447 . S
C1289 C1056 1.498 . S
C1313 C410 1.494 . S
C1321 C247 1.459 1_655 S
C1345 C281 1.475 . S
C1353 C648 1.499 . S
C1377 C315 1.458 1_455 S
C1385 C2 1.497 . S
C1409 C349 1.455 . S
C1417 C580 1.498 . S
C1441 C70 1.492 . S
C1449 C383 1.462 . S
C1473 C417 1.465 . S
C1481 C716 1.499 . S
C1505 C451 1.460 . S
C1513 C206 1.497 . S
C1537 C784 1.494 . S
C1545 C485 1.459 . S
C1569 C519 1.443 1_455 S
C1577 C138 1.498 . S
C1601 C553 1.477 . S
C1609 C376 1.498 . S
C1633 C818 1.493 . S
C1641 C587 1.478 . S
C1665 C308 1.492 . S
C1673 C621 1.468 . S
C1697 C655 1.487 1_455 S
C1705 C886 1.498 . S
C1729 C689 1.442 . S
C1737 C444 1.498 . S
C1761 C1022 1.493 . S
C1769 C723 1.461 1_455 S
C1793 C757 1.453 . S
C1801 C512 1.497 . S
C1825 C954 1.496 . S
C1833 C791 1.471 . S
C1857 C825 1.471 . S
C1865 C104 1.497 . S
C1889 C546 1.492 . S
C1897 C859 1.467 . S
C1921 C893 1.486 . S
C1929 C36 1.498 . S
C1953 C614 1.495 . S
C1961 C927 1.478 1_655 S
C1985 C961 1.468 . S
C1993 C172 1.497 . S
C2017 C750 1.493 . S
C2025 C995 1.476 1_655 S
C2049 C240 1.493 . S
C2057 C1029 1.476 . S
C2081 C1063 1.443 . S
C2089 C682 1.498 . S
C2113 C5 1.598 . S
C2121 C141 1.607 . S
C2145 C39 1.581 . S
C2153 C175 1.602 . S
C2177 C209 1.602 . S
C2185 C73 1.595 . S
C2209 C107 1.609 . S
C2217 C243 1.605 . S
C2241 C277 1.612 . S
C2249 C413 1.604 . S
C2273 C311 1.596 . S
C2281 C447 1.607 . S
C2305 C345 1.612 . S
C2313 C481 1.601 . S
C2337 C379 1.587 . S
C2345 C515 1.595 . S
C2369 C549 1.590 . S
C2377 C685 1.607 . S
C2401 C719 1.612 . S
C2409 C583 1.599 . S
C2433 C753 1.599 . S
C2441 C617 1.607 . S
C2465 C787 1.596 . S
C2473 C651 1.595 . S
C2497 C957 1.582 . S
C2505 C821 1.601 . S
C2529 C855 1.612 . S
C2537 C991 1.604 . S
C2561 C889 1.596 . S
C2569 C1025 1.595 . S
C2593 C1059 1.611 . S
C2601 C923 1.605 . S
C2625 C203 1.319 1_545 S
C2633 C33 1.328 . S
C2657 C237 1.324 . S
C2665 C67 1.328 1_545 S
C2689 C271 1.323 1_565 S
C2697 C101 1.331 . S
C2721 C169 1.337 . S
C2729 C135 1.334 1_565 S
C2753 C475 1.330 1_565 S
C2761 C305 1.332 . S
C2785 C509 1.319 . S
C2793 C339 1.328 1_565 S
C2817 C373 1.328 . S
C2825 C543 1.332 1_545 S
C2849 C407 1.323 1_545 S
C2857 C441 1.330 . S
C2881 C747 1.324 . S
C2889 C577 1.328 . S
C2913 C611 1.320 . S
C2921 C781 1.328 . S
C2945 C815 1.319 . S
C2953 C645 1.328 . S
C2977 C679 1.325 . S
C2985 C713 1.329 . S
C3009 C1019 1.328 . S
C3017 C849 1.331 . S
C3041 C883 1.337 . S
C3049 C1053 1.335 . S
C3073 C917 1.331 . S
C3081 C1087 1.332 . S
C3105 C985 1.336 . S
C3113 C951 1.334 . S
C3137 C836 1.297 . S
C3145 C20 1.324 . S
C3169 C54 1.305 . S
C3177 C326 1.321 . S
C3201 C88 1.317 . S
C3209 C904 1.318 . S
C3233 C122 1.297 . S
C3241 C394 1.325 . S
C3265 C156 1.313 . S
C3273 C972 1.319 . S
C3297 C462 1.332 . S
C3305 C190 1.311 . S
C3329 C1040 1.311 . S
C3337 C224 1.320 . S
C3361 C530 1.313 . S
C3369 C258 1.320 . S
C3393 C292 1.297 . S
C3401 C564 1.325 . S
C3425 C632 1.305 . S
C3433 C360 1.323 . S
C3457 C428 1.326 . S
C3465 C700 1.312 . S
C3489 C496 1.326 . S
C3497 C768 1.312 . S
C3521 C870 1.319 . S
C3529 C598 1.315 . S
C3553 C938 1.332 . S
C3561 C666 1.311 . S
C3585 C1006 1.330 . S
C3593 C734 1.311 . S
C3617 C802 1.299 . S
C3625 C1074 1.323 . S
