# Generated by pormake.
# Topology wht, (6)-cn, num edge types: 1
# Building blocks:
#     Node 0, Type 0, BuildingBlock: IZENUY_clean_sbu_0, # of connection points: 6
#     Node 1, Type 0, BuildingBlock: IZENUY_clean_sbu_0, # of connection points: 6
#     Node 2, Type 0, BuildingBlock: IZENUY_clean_sbu_0, # of connection points: 6
#     Node 3, Type 0, BuildingBlock: IZENUY_clean_sbu_0, # of connection points: 6
#     Node 4, Type 0, BuildingBlock: IZENUY_clean_sbu_0, # of connection points: 6
#     Node 5, Type 0, BuildingBlock: IZENUY_clean_sbu_0, # of connection points: 6
#     Node 6, Type 0, BuildingBlock: IZENUY_clean_sbu_0, # of connection points: 6
#     Node 7, Type 0, BuildingBlock: IZENUY_clean_sbu_0, # of connection points: 6
#     Edge 8, Type (0, 0), BuildingBlock: OJICUG_clean_linker_0, # of connection points: 2
#     Edge 9, Type (0, 0), BuildingBlock: OJICUG_clean_linker_0, # of connection points: 2
#     Edge 10, Type (0, 0), BuildingBlock: OJICUG_clean_linker_0, # of connection points: 2
#     Edge 11, Type (0, 0), BuildingBlock: OJICUG_clean_linker_0, # of connection points: 2
#     Edge 12, Type (0, 0), BuildingBlock: OJICUG_clean_linker_0, # of connection points: 2
#     Edge 13, Type (0, 0), BuildingBlock: OJICUG_clean_linker_0, # of connection points: 2
#     Edge 14, Type (0, 0), BuildingBlock: OJICUG_clean_linker_0, # of connection points: 2
#     Edge 15, Type (0, 0), BuildingBlock: OJICUG_clean_linker_0, # of connection points: 2
#     Edge 16, Type (0, 0), BuildingBlock: OJICUG_clean_linker_0, # of connection points: 2
#     Edge 17, Type (0, 0), BuildingBlock: OJICUG_clean_linker_0, # of connection points: 2
#     Edge 18, Type (0, 0), BuildingBlock: OJICUG_clean_linker_0, # of connection points: 2
#     Edge 19, Type (0, 0), BuildingBlock: OJICUG_clean_linker_0, # of connection points: 2
#     Edge 20, Type (0, 0), BuildingBlock: OJICUG_clean_linker_0, # of connection points: 2
#     Edge 21, Type (0, 0), BuildingBlock: OJICUG_clean_linker_0, # of connection points: 2
#     Edge 22, Type (0, 0), BuildingBlock: OJICUG_clean_linker_0, # of connection points: 2
#     Edge 23, Type (0, 0), BuildingBlock: OJICUG_clean_linker_0, # of connection points: 2
#     Edge 24, Type (0, 0), BuildingBlock: OJICUG_clean_linker_0, # of connection points: 2
#     Edge 25, Type (0, 0), BuildingBlock: OJICUG_clean_linker_0, # of connection points: 2
#     Edge 26, Type (0, 0), BuildingBlock: OJICUG_clean_linker_0, # of connection points: 2
#     Edge 27, Type (0, 0), BuildingBlock: OJICUG_clean_linker_0, # of connection points: 2
#     Edge 28, Type (0, 0), BuildingBlock: OJICUG_clean_linker_0, # of connection points: 2
#     Edge 29, Type (0, 0), BuildingBlock: OJICUG_clean_linker_0, # of connection points: 2
#     Edge 30, Type (0, 0), BuildingBlock: OJICUG_clean_linker_0, # of connection points: 2
#     Edge 31, Type (0, 0), BuildingBlock: OJICUG_clean_linker_0, # of connection points: 2
# Relax obj value: 0.256
# Max RMSD: 0.239
# Mean RMSD: 0.239
data_MOF--net-wht--node1-IZENUY_clean_sbu_0--edge1-OJICUG_clean_linker_0
_symmetry_space_group_name_H-M    P1
_symmetry_Int_Tables_number       1
_symmetry_cell_setting            triclinic
loop_
_symmetry_equiv_pos_as_xyz
'x, y, z'
_cell_length_a     19.290723
_cell_length_b     19.181907
_cell_length_c     34.851309
_cell_angle_alpha  89.952433
_cell_angle_beta   89.881275
_cell_angle_gamma 90.183355
loop_
_atom_site_label
_atom_site_type_symbol
_atom_site_fract_x
_atom_site_fract_y
_atom_site_fract_z
_atom_type_partial_charge
Fe0 Fe 0.08969 0.19733 0.13361 0.0
Fe1 Fe 0.21645 0.28621 0.15238 0.0
O2 O 0.12553 0.27347 0.15406 0.0
Fe3 Fe 0.07016 0.33687 0.17446 0.0
O4 O 1.02278 0.34707 0.13 0.0
O5 O 1.00569 0.23597 0.12046 0.0
O6 O 0.11996 0.2234 0.0869 0.0
C7 C 0.18245 0.23648 0.07931 0.0
C8 C 1.01587 0.20484 0.19978 0.0
O9 O 0.22714 0.24282 0.10566 0.0
C10 C 0.17779 0.34189 0.22547 0.0
O11 O 0.16726 0.14325 0.14175 0.0
O12 O 0.23319 0.20697 0.17881 0.0
O13 O 1.00805 0.27029 0.19403 0.0
O14 O 0.05761 0.16978 0.17962 0.0
C15 C 0.17078 0.41602 0.13264 0.0
O16 O 0.22093 0.33428 0.19823 0.0
O17 O 0.11389 0.33233 0.22013 0.0
C18 C 0.21821 0.14875 0.16448 0.0
O19 O 0.2069 0.36382 0.12507 0.0
O20 O 0.12358 0.41307 0.15828 0.0
C21 C 0.99283 0.29876 0.11214 0.0
Fe22 Fe 0.26583 0.72148 0.40325 0.0
Fe23 Fe 0.2166 0.57282 0.42392 0.0
O24 O 0.27908 0.6301 0.4039 0.0
Fe25 Fe 0.35485 0.5956 0.38278 0.0
O26 O 0.32828 0.6271 0.33651 0.0
O27 O 0.30825 0.73414 0.35638 0.0
O28 O 0.18809 0.71188 0.37633 0.0
C29 C 0.13677 0.67398 0.38342 0.0
C30 C 0.40293 0.72418 0.41462 0.0
O31 O 0.1403 0.6257 0.40851 0.0
C32 C 0.34841 0.51986 0.44838 0.0
O33 O 0.2188 0.72377 0.44951 0.0
O34 O 0.22088 0.61524 0.47001 0.0
O35 O 0.40816 0.6738 0.39135 0.0
O36 O 0.34513 0.73871 0.42927 0.0
C37 C 0.2548 0.49725 0.36091 0.0
O38 O 0.28345 0.51098 0.44267 0.0
O39 O 0.38293 0.56257 0.42838 0.0
C40 C 0.21135 0.67916 0.47618 0.0
O41 O 0.20663 0.52639 0.37907 0.0
O42 O 0.31713 0.51096 0.36907 0.0
C43 C 0.31484 0.69001 0.32961 0.0
Fe44 Fe 0.96474 0.85501 0.6329 0.0
Fe45 Fe 0.83527 0.77055 0.65268 0.0
O46 O 0.92648 0.78062 0.65435 0.0
Fe47 Fe 0.98049 0.71708 0.6757 0.0
O48 O 0.02871 0.70484 0.63137 0.0
O49 O 0.04897 0.81516 0.62233 0.0
O50 O 0.93662 0.826 0.58649 0.0
C51 C 0.87432 0.81275 0.57828 0.0
C52 C 0.03469 0.84983 0.69998 0.0
O53 O 0.82806 0.8086 0.60423 0.0
C54 C 0.87177 0.71695 0.72689 0.0
O55 O 0.88817 0.911 0.63759 0.0
O56 O 0.82046 0.8536 0.6764 0.0
O57 O 0.04241 0.78409 0.69492 0.0
O58 O 0.99414 0.8847 0.67897 0.0
C59 C 0.8777 0.63721 0.63591 0.0
O60 O 0.8285 0.72748 0.70005 0.0
O61 O 0.93604 0.72309 0.72118 0.0
C62 C 0.83554 0.90934 0.65921 0.0
O63 O 0.84177 0.68949 0.62814 0.0
O64 O 0.9268 0.64085 0.66026 0.0
C65 C 0.0603 0.75247 0.61369 0.0
Fe66 Fe 0.8321 0.4823 0.92454 0.0
Fe67 Fe 0.69307 0.46076 0.88403 0.0
O68 O 0.76884 0.42562 0.90481 0.0
Fe69 Fe 0.78125 0.33407 0.90421 0.0
O70 O 0.85875 0.34293 0.87688 0.0
O71 O 0.90776 0.42883 0.90855 0.0
O72 O 0.84187 0.5292 0.87966 0.0
C73 C 0.79377 0.55872 0.86164 0.0
C74 C 0.83744 0.37529 0.97672 0.0
O75 O 0.73139 0.54495 0.86979 0.0
C76 C 0.64417 0.33222 0.91609 0.0
O77 O 0.76606 0.54482 0.94377 0.0
O78 O 0.66598 0.49451 0.92967 0.0
O79 O 0.82881 0.33105 0.95008 0.0
O80 O 0.82833 0.43943 0.97073 0.0
C81 C 0.73085 0.3654 0.83089 0.0
O82 O 0.63904 0.38315 0.89314 0.0
O83 O 0.70196 0.3175 0.93062 0.0
C84 C 0.70085 0.53723 0.94938 0.0
O85 O 0.71815 0.42854 0.83758 0.0
O86 O 0.73834 0.3217 0.85774 0.0
C87 C 0.9106 0.38017 0.88367 0.0
Fe88 Fe 0.56554 0.21862 0.57544 0.0
Fe89 Fe 0.58681 0.3557 0.61832 0.0
O90 O 0.62156 0.2792 0.59801 0.0
Fe91 Fe 0.71137 0.26219 0.60204 0.0
O92 O 0.6948 0.18334 0.62828 0.0
O93 O 0.61621 0.14034 0.58967 0.0
O94 O 0.51598 0.20666 0.61931 0.0
C95 C 0.48722 0.25517 0.63773 0.0
C96 C 0.67613 0.21311 0.52672 0.0
O97 O 0.50136 0.31799 0.62977 0.0
C98 C 0.71985 0.40072 0.59106 0.0
O99 O 0.50556 0.28689 0.55682 0.0
O100 O 0.55829 0.38528 0.57189 0.0
O101 O 0.71704 0.21624 0.55532 0.0
O102 O 0.61238 0.22607 0.53066 0.0
C103 C 0.67414 0.31328 0.67458 0.0
O104 O 0.66636 0.40784 0.61186 0.0
O105 O 0.73531 0.34197 0.57743 0.0
C106 C 0.51534 0.35206 0.55155 0.0
O107 O 0.61301 0.32856 0.66544 0.0
O108 O 0.72034 0.30346 0.64933 0.0
C109 C 0.65912 0.13286 0.61699 0.0
Fe110 Fe 0.28143 0.22223 0.84844 0.0
Fe111 Fe 0.33179 0.0743 0.82768 0.0
O112 O 0.2689 0.13064 0.84777 0.0
Fe113 Fe 0.1935 0.09498 0.86901 0.0
O114 O 0.22001 0.12669 0.91524 0.0
O115 O 0.23922 0.23408 0.8954 0.0
O116 O 0.35936 0.21366 0.87521 0.0
C117 C 0.41087 0.17633 0.8682 0.0
C118 C 0.14423 0.22328 0.83743 0.0
O119 O 0.4077 0.12812 0.8431 0.0
C120 C 0.20023 1.01909 0.80354 0.0
O121 O 0.32822 0.22543 0.8021 0.0
O122 O 0.32711 0.11693 0.78158 0.0
O123 O 0.13944 0.1725 0.86055 0.0
O124 O 0.20183 0.23847 0.82259 0.0
C125 C 0.2944 0.99799 0.89079 0.0
O126 O 0.26539 1.01149 0.80898 0.0
O127 O 0.16554 0.06154 0.82347 0.0
C128 C 0.33605 0.18105 0.7754 0.0
O129 O 0.34226 0.0278 0.87253 0.0
O130 O 0.23195 1.01085 0.88269 0.0
C131 C 0.23306 0.18974 0.92215 0.0
Fe132 Fe 0.33301 0.78682 0.09937 0.0
Fe133 Fe 0.47957 0.83821 0.07751 0.0
O134 O 0.42392 0.77454 0.09785 0.0
Fe135 Fe 0.45948 0.69857 0.11845 0.0
O136 O 0.42904 0.72456 0.16507 0.0
O137 O 0.32199 0.74339 0.14612 0.0
O138 O 0.34253 0.86446 0.12662 0.0
C139 C 0.37886 0.91682 0.11915 0.0
C140 C 0.33112 0.64935 0.08738 0.0
O141 O 0.42626 0.91415 0.09361 0.0
C142 C 0.53383 0.70627 0.05248 0.0
O143 O 0.32886 0.83489 0.05348 0.0
O144 O 0.43603 0.8337 0.03174 0.0
O145 O 0.38187 0.64415 0.11025 0.0
O146 O 0.31627 0.70749 0.07299 0.0
C147 C 0.55652 0.80026 0.13997 0.0
O148 O 0.54163 0.77183 0.05805 0.0
O149 O 0.49172 0.67116 0.07255 0.0
C150 C 0.37215 0.84296 0.02632 0.0
O151 O 0.5268 0.84852 0.12205 0.0
O152 O 0.5435 0.73748 0.13165 0.0
C153 C 0.36653 0.73731 0.17255 0.0
Fe154 Fe 0.85592 0.95866 0.36942 0.0
Fe155 Fe 0.76666 0.8327 0.34832 0.0
O156 O 0.78009 0.92421 0.34813 0.0
Fe157 Fe 0.71769 0.9815 0.32834 0.0
O158 O 0.7077 0.02767 0.37334 0.0
O159 O 0.81815 0.04262 0.38399 0.0
O160 O 0.82991 0.92553 0.41563 0.0
C161 C 0.81633 0.86234 0.42198 0.0
C162 C 0.84973 0.03636 0.3043 0.0
O163 O 0.8088 0.81923 0.39487 0.0
C164 C 0.71183 0.87536 0.27575 0.0
O165 O 0.90929 0.88102 0.36012 0.0
O166 O 0.84614 0.81615 0.32215 0.0
O167 O 0.78455 0.044 0.30966 0.0
O168 O 0.88403 0.99337 0.32405 0.0
C169 C 0.63775 0.87954 0.36866 0.0
O170 O 0.71965 0.8307 0.30227 0.0
O171 O 0.72164 0.93935 0.28199 0.0
C172 C 0.90392 0.83047 0.33695 0.0
O173 O 0.68892 0.84161 0.37538 0.0
O174 O 0.64134 0.92822 0.34381 0.0
C175 C 0.75575 0.05637 0.39189 0.0
C176 C 0.99607 0.10066 0.24099 0.0
C177 C 0.97224 0.1655 0.22775 0.0
H178 H 0.97643 1.00992 0.27454 0.0
C179 C 0.90624 0.18828 0.23967 0.0
H180 H 0.04656 0.08129 0.23256 0.0
C181 C 0.86487 0.1462 0.26391 0.0
C182 C 0.88938 0.08127 0.27702 0.0
H183 H 0.88614 0.23773 0.22972 0.0
H184 H 0.81433 0.16477 0.27271 0.0
C185 C 0.95558 0.05949 0.2652 0.0
C186 C 0.45203 0.50051 0.48945 0.0
C187 C 0.38774 0.47609 0.47598 0.0
H188 H 0.54203 0.48082 0.5231 0.0
C189 C 0.36518 0.40934 0.48739 0.0
H190 H 0.47111 0.55167 0.48138 0.0
C191 C 0.40691 0.36772 0.51131 0.0
C192 C 0.47129 0.39268 0.52466 0.0
H193 H 0.31615 0.38884 0.47727 0.0
H194 H 0.38848 0.31652 0.51969 0.0
C195 C 0.49292 0.45969 0.51345 0.0
C196 C 0.14345 0.86627 0.74017 0.0
C197 C 0.07813 0.88966 0.72762 0.0
H198 H 0.23478 0.88947 0.77349 0.0
C199 C 0.055 0.95538 0.73985 0.0
H200 H 0.16299 0.81612 0.73097 0.0
C201 C 0.09552 0.99678 0.76379 0.0
C202 C 0.16096 0.97428 0.77628 0.0
H203 H 1.00505 0.97522 0.73088 0.0
H204 H 0.07526 0.047 0.77245 0.0
C205 C 0.18484 0.90855 0.76411 0.0
C206 C 0.55479 0.60104 0.01253 0.0
C207 C 0.57797 0.66674 0.02498 0.0
H208 H 0.5752 0.50947 0.98006 0.0
C209 C 0.6438 0.6901 0.01281 0.0
H210 H 0.50449 0.58111 0.02116 0.0
C211 C 0.68552 0.64785 0.989 0.0
C212 C 0.66154 0.58211 0.97664 0.0
H213 H 0.66344 0.74021 0.02217 0.0
H214 H 0.73579 0.66695 0.97986 0.0
C215 C 0.59565 0.55966 0.98883 0.0
C216 C 0.26962 0.39316 0.26857 0.0
C217 C 0.20037 0.37274 0.26255 0.0
H218 H 0.34143 0.44803 0.30458 0.0
C219 C 0.15103 0.38772 0.29118 0.0
H220 H 0.30902 0.38241 0.24722 0.0
C221 C 0.16949 0.42557 0.32383 0.0
C222 C 0.23792 0.44895 0.32899 0.0
H223 H 0.09727 0.37252 0.28778 0.0
H224 H 0.12949 0.43827 0.34452 0.0
C225 C 0.28824 0.4307 0.30151 0.0
C226 C 0.12701 0.66622 0.57436 0.0
C227 C 0.10722 0.73545 0.58126 0.0
H228 H 0.17637 0.59446 0.53642 0.0
C229 C 0.12766 0.78733 0.55491 0.0
H230 H 0.11236 0.62503 0.59409 0.0
C231 C 0.164 0.76976 0.52145 0.0
C232 C 0.18116 0.69998 0.51375 0.0
H233 H 0.11304 0.84122 0.55928 0.0
H234 H 0.17658 0.81056 0.50107 0.0
C235 C 0.16382 0.64877 0.54118 0.0
C236 C 0.76053 0.62737 0.8028 0.0
C237 C 0.81077 0.60807 0.83005 0.0
H238 H 0.73998 0.6772 0.74885 0.0
C239 C 0.87916 0.63175 0.825 0.0
H240 H 0.70733 0.60996 0.80579 0.0
C241 C 0.8977 0.67067 0.79264 0.0
C242 C 0.84854 0.6865 0.76412 0.0
H243 H 0.91911 0.61841 0.84551 0.0
H244 H 0.95151 0.68586 0.7893 0.0
C245 C 0.77924 0.666 0.77013 0.0
C246 C 0.92434 0.26494 0.05355 0.0
C247 C 0.9447 0.31597 0.08028 0.0
H248 H 0.87434 0.24332 0.99993 0.0
C249 C 0.9236 0.3852 0.07435 0.0
H250 H 0.93986 0.21112 0.05717 0.0
C251 C 0.88581 0.40359 0.04172 0.0
C252 C 0.86854 0.35336 0.01388 0.0
H253 H 0.93802 0.42583 0.09441 0.0
H254 H 0.87241 0.4579 0.0377 0.0
C255 C 0.88683 0.28345 0.02066 0.0
C256 C 0.76856 0.15893 0.48499 0.0
C257 C 0.69986 0.18183 0.48988 0.0
H258 H 0.84041 0.10195 0.45001 0.0
C259 C 0.65184 0.16866 0.46035 0.0
H260 H 0.80696 0.16811 0.50705 0.0
C261 C 0.67081 0.13031 0.42793 0.0
C262 C 0.73858 0.10471 0.42381 0.0
H263 H 0.59852 0.18563 0.46287 0.0
H264 H 0.63169 0.11912 0.40653 0.0
C265 C 0.78777 0.12104 0.45223 0.0
C266 C 0.38532 0.27212 0.73066 0.0
C267 C 0.36592 0.20255 0.73778 0.0
H268 H 0.43823 0.34352 0.69331 0.0
C269 C 0.38084 0.152 0.70967 0.0
H270 H 0.37466 0.31245 0.75157 0.0
C271 C 0.41755 0.1697 0.67642 0.0
C272 C 0.4398 0.23856 0.67013 0.0
H273 H 0.36646 0.09791 0.71393 0.0
H274 H 0.43032 0.12885 0.65619 0.0
C275 C 0.42169 0.28995 0.69716 0.0
C276 C 0.39909 0.89021 0.96081 0.0
C277 C 0.34965 0.87388 0.98923 0.0
H278 H 0.42049 0.94168 0.90762 0.0
C279 C 0.28019 0.89297 0.983 0.0
H280 H 0.45302 0.87611 0.96438 0.0
C281 C 0.26141 0.93041 0.95006 0.0
C282 C 0.31173 0.94992 0.92276 0.0
H283 H 0.2407 0.88118 0.00419 0.0
H284 H 0.208 0.94661 0.94684 0.0
C285 C 0.38045 0.92797 0.92814 0.0
C286 C 0.62539 0.88672 0.17823 0.0
C287 C 0.60455 0.81739 0.17191 0.0
H288 H 0.67639 0.9591 0.21531 0.0
C289 C 0.62518 0.76599 0.19833 0.0
H290 H 0.61073 0.92764 0.15844 0.0
C291 C 0.66269 0.78413 0.23129 0.0
C292 C 0.68074 0.85406 0.23848 0.0
H293 H 0.6099 0.71208 0.19441 0.0
H294 H 0.6754 0.74365 0.25176 0.0
C295 C 0.66321 0.90475 0.21095 0.0
C296 C 0.27039 0.17904 0.98927 0.0
C297 C 0.22925 0.21237 0.96175 0.0
H298 H 0.28858 0.16243 0.0491 0.0
C299 C 0.17816 0.25977 0.973 0.0
H300 H 0.30974 0.14191 0.9807 0.0
C301 C 0.16492 0.26996 0.01183 0.0
C302 C 0.20399 0.23421 0.0394 0.0
H303 H 0.14552 0.28504 0.95195 0.0
H304 H 0.12262 0.30368 0.02037 0.0
C305 C 0.25848 0.19078 0.0281 0.0
C306 C 0.38441 0.77015 0.2401 0.0
C307 C 0.34481 0.73502 0.21246 0.0
H308 H 0.40395 0.78457 0.30001 0.0
C309 C 0.28951 0.69215 0.22368 0.0
H310 H 0.42731 0.80346 0.23164 0.0
C311 C 0.27731 0.68028 0.26249 0.0
C312 C 0.31897 0.71295 0.29006 0.0
H313 H 0.25895 0.6643 0.20262 0.0
H314 H 0.23732 0.64352 0.271 0.0
C315 C 0.37091 0.75984 0.2789 0.0
C316 C 0.77387 0.84646 0.48804 0.0
C317 C 0.82602 0.8369 0.46061 0.0
H318 H 0.74779 0.84378 0.54769 0.0
C319 C 0.89099 0.81157 0.47128 0.0
H320 H 0.72352 0.86635 0.4798 0.0
C321 C 0.90545 0.80023 0.50978 0.0
C322 C 0.85476 0.81374 0.53779 0.0
H323 H 0.93161 0.80441 0.45013 0.0
H324 H 0.9571 0.78357 0.51776 0.0
C325 C 0.78787 0.83383 0.52661 0.0
C326 C 0.75902 0.33961 0.72611 0.0
C327 C 0.69291 0.31662 0.71504 0.0
H328 H 0.82258 0.37418 0.77284 0.0
C329 C 0.64244 0.30187 0.743 0.0
H330 H 0.79859 0.35119 0.70495 0.0
C331 C 0.65669 0.3136 0.78151 0.0
C332 C 0.72111 0.34083 0.79213 0.0
H333 H 0.59133 0.28339 0.73497 0.0
H334 H 0.61639 0.30491 0.80271 0.0
C335 C 0.77276 0.35261 0.76464 0.0
C336 C 0.26918 0.03388 0.18054 0.0
C337 C 0.27346 0.09668 0.16053 0.0
H338 H 0.30332 0.9287 0.18445 0.0
C339 C 0.32336 0.10435 0.1312 0.0
H340 H 0.23117 1.0269 0.20316 0.0
C341 C 0.36341 0.04739 0.11928 0.0
C342 C 0.35455 0.98246 0.13708 0.0
H343 H 0.32781 0.15295 0.11561 0.0
H344 H 0.39694 0.05287 0.09448 0.0
C345 C 0.31036 0.97775 0.16945 0.0
C346 C 0.51839 0.77255 0.43069 0.0
C347 C 0.45563 0.7793 0.41132 0.0
H348 H 0.62457 0.80269 0.43355 0.0
C349 C 0.4494 0.82982 0.38214 0.0
H350 H 0.52439 0.73368 0.45302 0.0
C351 C 0.5074 0.86815 0.36984 0.0
C352 C 0.57203 0.85665 0.38696 0.0
H353 H 0.40108 0.83566 0.36676 0.0
H354 H 0.50277 0.90224 0.3452 0.0
C355 C 0.57571 0.8118 0.41912 0.0
C356 C 0.71468 1.02108 0.60062 0.0
C357 C 0.68519 0.06402 0.6286 0.0
H358 H 0.7878 0.94084 0.5887 0.0
C359 C 0.69948 0.05084 0.66761 0.0
H360 H 0.70631 0.03145 0.5704 0.0
C361 C 0.74543 0.99766 0.6783 0.0
C362 C 0.77946 0.95887 0.64996 0.0
H363 H 0.67848 0.08462 0.68964 0.0
H364 H 0.75776 0.99006 0.70832 0.0
C365 C 0.76215 0.96984 0.61117 0.0
C366 C 0.54104 0.18957 0.86921 0.0
C367 C 0.47631 0.19926 0.88666 0.0
H368 H 0.6468 0.22355 0.86624 0.0
C369 C 0.47209 0.24242 0.91947 0.0
H370 H 0.54605 0.1569 0.84403 0.0
C371 C 0.52899 0.2817 0.93155 0.0
C372 C 0.59189 0.27676 0.91197 0.0
H373 H 0.42311 0.2501 0.93413 0.0
H374 H 0.52253 0.31924 0.9545 0.0
C375 C 0.59857 0.22797 0.88194 0.0
C376 C 0.8622 0.50618 0.63689 0.0
C377 C 0.853 0.57074 0.61872 0.0
H378 H 0.82745 0.39994 0.64107 0.0
C379 C 0.8091 0.57408 0.58631 0.0
H380 H 0.89529 0.50178 0.66183 0.0
C381 C 0.7694 0.51669 0.5751 0.0
C382 C 0.77444 0.45397 0.59515 0.0
H383 H 0.80153 0.62279 0.57113 0.0
H384 H 0.73183 0.52256 0.55226 0.0
C385 C 0.82322 0.44808 0.62504 0.0
C386 C 0.02838 0.27123 0.82204 0.0
C387 C 0.09148 0.27806 0.84112 0.0
H388 H 0.92253 0.30187 0.81928 0.0
C389 C 0.09843 0.32892 0.87006 0.0
H390 H 1.0218 0.23219 0.79988 0.0
C391 C 0.04092 0.36766 0.88235 0.0
C392 C 0.976 0.35635 0.86544 0.0
H393 H 0.14702 0.33493 0.88519 0.0
H394 H 0.04617 0.40213 0.90678 0.0
C395 C 0.97158 0.31092 0.83357 0.0
C396 C 0.28047 0.53411 0.0713 0.0
C397 C 0.27589 0.59688 0.09123 0.0
H398 H 0.24673 0.42859 0.06746 0.0
C399 C 0.22587 0.60408 0.12049 0.0
H400 H 0.31862 0.52748 0.04874 0.0
C401 C 0.18597 0.54673 0.13243 0.0
C402 C 0.19512 0.48187 0.11471 0.0
H403 H 0.22122 0.65263 0.13603 0.0
H404 H 0.1523 0.5519 0.15716 0.0
C405 C 0.23945 0.47757 0.0824 0.0
C406 C 1.01797 0.77886 0.32056 0.0
C407 C 0.95574 0.77484 0.3409 0.0
H408 H 0.12334 0.74633 0.31705 0.0
C409 C 0.94945 0.72659 0.37128 0.0
H410 H 1.02413 0.81595 0.29733 0.0
C411 C 1.00683 0.6878 0.38355 0.0
C412 C 0.07105 0.69662 0.36532 0.0
H413 H 0.90175 0.72285 0.38755 0.0
H414 H 1.00226 0.65564 0.409 0.0
C415 C 0.07473 0.73924 0.33224 0.0
loop_
_geom_bond_atom_site_label_1
_geom_bond_atom_site_label_2
_geom_bond_distance
_geom_bond_site_symmetry_2
_ccdc_geom_bond_type
Fe0 O2 1.918 . S
Fe0 O5 1.997 1_455 S
Fe0 O6 2.002 . S
Fe0 O11 1.976 . S
Fe0 O14 1.996 1_455 S
Fe1 O2 1.918 . S
Fe1 O9 1.997 . S
Fe1 O12 1.996 . S
Fe1 O16 1.976 . S
Fe1 O19 2.002 . S
O2 Fe0 1.918 . S
O2 Fe1 1.918 . S
O2 Fe3 1.918 . S
Fe3 O2 1.918 . S
Fe3 O4 2.002 1_455 S
Fe3 O13 1.976 1_455 S
Fe3 O17 1.996 . S
Fe3 O20 1.997 . S
O4 Fe3 2.002 1_655 S
O4 C21 1.295 . S
O5 Fe0 1.997 1_655 S
O5 C21 1.235 . S
O6 Fe0 2.002 . S
O6 C7 1.295 . S
C7 O6 1.295 . S
C7 O9 1.235 . S
C8 O13 1.287 . S
C8 O14 1.255 . S
O9 Fe1 1.997 . S
O9 C7 1.235 . S
C10 O16 1.287 . S
C10 O17 1.255 . S
O11 Fe0 1.976 . S
O11 C18 1.287 . S
O12 Fe1 1.996 . S
O12 C18 1.255 . S
O13 Fe3 1.976 1_655 S
O13 C8 1.287 . S
O14 Fe0 1.996 1_655 S
O14 C8 1.255 . S
C15 O19 1.295 . S
C15 O20 1.235 . S
O16 Fe1 1.976 . S
O16 C10 1.287 . S
O17 Fe3 1.996 . S
O17 C10 1.255 . S
C18 O11 1.287 . S
C18 O12 1.255 . S
O19 Fe1 2.002 . S
O19 C15 1.295 . S
O20 Fe3 1.997 . S
O20 C15 1.235 . S
C21 O4 1.295 . S
C21 O5 1.235 . S
Fe22 O24 1.918 . S
Fe22 O27 1.997 . S
Fe22 O28 2.002 . S
Fe22 O33 1.976 . S
Fe22 O36 1.996 . S
Fe23 O24 1.918 . S
Fe23 O31 1.997 . S
Fe23 O34 1.996 . S
Fe23 O38 1.976 . S
Fe23 O41 2.002 . S
O24 Fe22 1.918 . S
O24 Fe23 1.918 . S
O24 Fe25 1.918 . S
Fe25 O24 1.918 . S
Fe25 O26 2.002 . S
Fe25 O35 1.976 . S
Fe25 O39 1.996 . S
Fe25 O42 1.997 . S
O26 Fe25 2.002 . S
O26 C43 1.295 . S
O27 Fe22 1.997 . S
O27 C43 1.235 . S
O28 Fe22 2.002 . S
O28 C29 1.295 . S
C29 O28 1.295 . S
C29 O31 1.235 . S
C30 O35 1.287 . S
C30 O36 1.255 . S
O31 Fe23 1.997 . S
O31 C29 1.235 . S
C32 O38 1.287 . S
C32 O39 1.255 . S
O33 Fe22 1.976 . S
O33 C40 1.287 . S
O34 Fe23 1.996 . S
O34 C40 1.255 . S
O35 Fe25 1.976 . S
O35 C30 1.287 . S
O36 Fe22 1.996 . S
O36 C30 1.255 . S
C37 O41 1.295 . S
C37 O42 1.235 . S
O38 Fe23 1.976 . S
O38 C32 1.287 . S
O39 Fe25 1.996 . S
O39 C32 1.255 . S
C40 O33 1.287 . S
C40 O34 1.255 . S
O41 Fe23 2.002 . S
O41 C37 1.295 . S
O42 Fe25 1.997 . S
O42 C37 1.235 . S
C43 O26 1.295 . S
C43 O27 1.235 . S
Fe44 O46 1.918 . S
Fe44 O49 1.997 1_655 S
Fe44 O50 2.002 . S
Fe44 O55 1.976 . S
Fe44 O58 1.996 1_655 S
Fe45 O46 1.918 . S
Fe45 O53 1.997 . S
Fe45 O56 1.996 . S
Fe45 O60 1.976 . S
Fe45 O63 2.002 . S
O46 Fe44 1.918 . S
O46 Fe45 1.918 . S
O46 Fe47 1.918 . S
Fe47 O46 1.918 . S
Fe47 O48 2.002 1_655 S
Fe47 O57 1.976 1_655 S
Fe47 O61 1.996 . S
Fe47 O64 1.997 . S
O48 Fe47 2.002 1_455 S
O48 C65 1.295 . S
O49 Fe44 1.997 1_455 S
O49 C65 1.235 . S
O50 Fe44 2.002 . S
O50 C51 1.295 . S
C51 O50 1.295 . S
C51 O53 1.235 . S
C52 O57 1.287 . S
C52 O58 1.255 . S
O53 Fe45 1.997 . S
O53 C51 1.235 . S
C54 O60 1.287 . S
C54 O61 1.255 . S
O55 Fe44 1.976 . S
O55 C62 1.287 . S
O56 Fe45 1.996 . S
O56 C62 1.255 . S
O57 Fe47 1.976 1_455 S
O57 C52 1.287 . S
O58 Fe44 1.996 1_455 S
O58 C52 1.255 . S
C59 O63 1.295 . S
C59 O64 1.235 . S
O60 Fe45 1.976 . S
O60 C54 1.287 . S
O61 Fe47 1.996 . S
O61 C54 1.255 . S
C62 O55 1.287 . S
C62 O56 1.255 . S
O63 Fe45 2.002 . S
O63 C59 1.295 . S
O64 Fe47 1.997 . S
O64 C59 1.235 . S
C65 O48 1.295 . S
C65 O49 1.235 . S
Fe66 O68 1.918 . S
Fe66 O71 1.997 . S
Fe66 O72 2.002 . S
Fe66 O77 1.976 . S
Fe66 O80 1.996 . S
Fe67 O68 1.918 . S
Fe67 O75 1.997 . S
Fe67 O78 1.996 . S
Fe67 O82 1.976 . S
Fe67 O85 2.002 . S
O68 Fe66 1.918 . S
O68 Fe67 1.918 . S
O68 Fe69 1.918 . S
Fe69 O68 1.918 . S
Fe69 O70 2.002 . S
Fe69 O79 1.976 . S
Fe69 O83 1.996 . S
Fe69 O86 1.997 . S
O70 Fe69 2.002 . S
O70 C87 1.295 . S
O71 Fe66 1.997 . S
O71 C87 1.235 . S
O72 Fe66 2.002 . S
O72 C73 1.295 . S
C73 O72 1.295 . S
C73 O75 1.235 . S
C74 O79 1.287 . S
C74 O80 1.255 . S
O75 Fe67 1.997 . S
O75 C73 1.235 . S
C76 O82 1.287 . S
C76 O83 1.255 . S
O77 Fe66 1.976 . S
O77 C84 1.287 . S
O78 Fe67 1.996 . S
O78 C84 1.255 . S
O79 Fe69 1.976 . S
O79 C74 1.287 . S
O80 Fe66 1.996 . S
O80 C74 1.255 . S
C81 O85 1.295 . S
C81 O86 1.235 . S
O82 Fe67 1.976 . S
O82 C76 1.287 . S
O83 Fe69 1.996 . S
O83 C76 1.255 . S
C84 O77 1.287 . S
C84 O78 1.255 . S
O85 Fe67 2.002 . S
O85 C81 1.295 . S
O86 Fe69 1.997 . S
O86 C81 1.235 . S
C87 O70 1.295 . S
C87 O71 1.235 . S
Fe88 O90 1.918 . S
Fe88 O93 1.997 . S
Fe88 O94 2.002 . S
Fe88 O99 1.976 . S
Fe88 O102 1.996 . S
Fe89 O90 1.918 . S
Fe89 O97 1.997 . S
Fe89 O100 1.996 . S
Fe89 O104 1.976 . S
Fe89 O107 2.002 . S
O90 Fe88 1.918 . S
O90 Fe89 1.918 . S
O90 Fe91 1.918 . S
Fe91 O90 1.918 . S
Fe91 O92 2.002 . S
Fe91 O101 1.976 . S
Fe91 O105 1.996 . S
Fe91 O108 1.997 . S
O92 Fe91 2.002 . S
O92 C109 1.295 . S
O93 Fe88 1.997 . S
O93 C109 1.235 . S
O94 Fe88 2.002 . S
O94 C95 1.295 . S
C95 O94 1.295 . S
C95 O97 1.235 . S
C96 O101 1.287 . S
C96 O102 1.255 . S
O97 Fe89 1.997 . S
O97 C95 1.235 . S
C98 O104 1.287 . S
C98 O105 1.255 . S
O99 Fe88 1.976 . S
O99 C106 1.287 . S
O100 Fe89 1.996 . S
O100 C106 1.255 . S
O101 Fe91 1.976 . S
O101 C96 1.287 . S
O102 Fe88 1.996 . S
O102 C96 1.255 . S
C103 O107 1.295 . S
C103 O108 1.235 . S
O104 Fe89 1.976 . S
O104 C98 1.287 . S
O105 Fe91 1.996 . S
O105 C98 1.255 . S
C106 O99 1.287 . S
C106 O100 1.255 . S
O107 Fe89 2.002 . S
O107 C103 1.295 . S
O108 Fe91 1.997 . S
O108 C103 1.235 . S
C109 O92 1.295 . S
C109 O93 1.235 . S
Fe110 O112 1.918 . S
Fe110 O115 1.997 . S
Fe110 O116 2.002 . S
Fe110 O121 1.976 . S
Fe110 O124 1.996 . S
Fe111 O112 1.918 . S
Fe111 O119 1.997 . S
Fe111 O122 1.996 . S
Fe111 O126 1.976 1_545 S
Fe111 O129 2.002 1_545 S
O112 Fe110 1.918 . S
O112 Fe111 1.918 . S
O112 Fe113 1.918 . S
Fe113 O112 1.918 . S
Fe113 O114 2.002 . S
Fe113 O123 1.976 . S
Fe113 O127 1.996 1_545 S
Fe113 O130 1.997 1_545 S
O114 Fe113 2.002 . S
O114 C131 1.295 . S
O115 Fe110 1.997 . S
O115 C131 1.235 . S
O116 Fe110 2.002 . S
O116 C117 1.295 . S
C117 O116 1.295 . S
C117 O119 1.235 . S
C118 O123 1.287 . S
C118 O124 1.255 . S
O119 Fe111 1.997 . S
O119 C117 1.235 . S
C120 O126 1.287 . S
C120 O127 1.255 . S
O121 Fe110 1.976 . S
O121 C128 1.287 . S
O122 Fe111 1.996 . S
O122 C128 1.255 . S
O123 Fe113 1.976 . S
O123 C118 1.287 . S
O124 Fe110 1.996 . S
O124 C118 1.255 . S
C125 O129 1.295 . S
C125 O130 1.235 . S
O126 Fe111 1.976 1_565 S
O126 C120 1.287 . S
O127 Fe113 1.996 1_565 S
O127 C120 1.255 . S
C128 O121 1.287 . S
C128 O122 1.255 . S
O129 Fe111 2.002 1_565 S
O129 C125 1.295 . S
O130 Fe113 1.997 1_565 S
O130 C125 1.235 . S
C131 O114 1.295 . S
C131 O115 1.235 . S
Fe132 O134 1.918 . S
Fe132 O137 1.997 . S
Fe132 O138 2.002 . S
Fe132 O143 1.976 . S
Fe132 O146 1.996 . S
Fe133 O134 1.918 . S
Fe133 O141 1.997 . S
Fe133 O144 1.996 . S
Fe133 O148 1.976 . S
Fe133 O151 2.002 . S
O134 Fe132 1.918 . S
O134 Fe133 1.918 . S
O134 Fe135 1.918 . S
Fe135 O134 1.918 . S
Fe135 O136 2.002 . S
Fe135 O145 1.976 . S
Fe135 O149 1.996 . S
Fe135 O152 1.997 . S
O136 Fe135 2.002 . S
O136 C153 1.295 . S
O137 Fe132 1.997 . S
O137 C153 1.235 . S
O138 Fe132 2.002 . S
O138 C139 1.295 . S
C139 O138 1.295 . S
C139 O141 1.235 . S
C140 O145 1.287 . S
C140 O146 1.255 . S
O141 Fe133 1.997 . S
O141 C139 1.235 . S
C142 O148 1.287 . S
C142 O149 1.255 . S
O143 Fe132 1.976 . S
O143 C150 1.287 . S
O144 Fe133 1.996 . S
O144 C150 1.255 . S
O145 Fe135 1.976 . S
O145 C140 1.287 . S
O146 Fe132 1.996 . S
O146 C140 1.255 . S
C147 O151 1.295 . S
C147 O152 1.235 . S
O148 Fe133 1.976 . S
O148 C142 1.287 . S
O149 Fe135 1.996 . S
O149 C142 1.255 . S
C150 O143 1.287 . S
C150 O144 1.255 . S
O151 Fe133 2.002 . S
O151 C147 1.295 . S
O152 Fe135 1.997 . S
O152 C147 1.235 . S
C153 O136 1.295 . S
C153 O137 1.235 . S
Fe154 O156 1.918 . S
Fe154 O159 1.997 1_565 S
Fe154 O160 2.002 . S
Fe154 O165 1.976 . S
Fe154 O168 1.996 1_565 S
Fe155 O156 1.918 . S
Fe155 O163 1.997 . S
Fe155 O166 1.996 . S
Fe155 O170 1.976 . S
Fe155 O173 2.002 . S
O156 Fe154 1.918 . S
O156 Fe155 1.918 . S
O156 Fe157 1.918 . S
Fe157 O156 1.918 . S
Fe157 O158 2.002 1_565 S
Fe157 O167 1.976 1_565 S
Fe157 O171 1.996 . S
Fe157 O174 1.997 . S
O158 Fe157 2.002 1_545 S
O158 C175 1.295 . S
O159 Fe154 1.997 1_545 S
O159 C175 1.235 . S
O160 Fe154 2.002 . S
O160 C161 1.295 . S
C161 O160 1.295 . S
C161 O163 1.235 . S
C162 O167 1.287 . S
C162 O168 1.255 . S
O163 Fe155 1.997 . S
O163 C161 1.235 . S
C164 O170 1.287 . S
C164 O171 1.255 . S
O165 Fe154 1.976 . S
O165 C172 1.287 . S
O166 Fe155 1.996 . S
O166 C172 1.255 . S
O167 Fe157 1.976 1_545 S
O167 C162 1.287 . S
O168 Fe154 1.996 1_545 S
O168 C162 1.255 . S
C169 O173 1.295 . S
C169 O174 1.235 . S
O170 Fe155 1.976 . S
O170 C164 1.287 . S
O171 Fe157 1.996 . S
O171 C164 1.255 . S
C172 O165 1.287 . S
C172 O166 1.255 . S
O173 Fe155 2.002 . S
O173 C169 1.295 . S
O174 Fe157 1.997 . S
O174 C169 1.235 . S
C175 O158 1.295 . S
C175 O159 1.235 . S
C176 C177 1.387 . S
C176 H180 0.950 . S
C176 C185 1.390 . S
C177 C176 1.387 . S
C177 C179 1.387 . S
H178 C185 0.948 1_565 S
C179 C177 1.387 . S
C179 C181 1.390 . S
C179 H183 0.950 . S
H180 C176 0.950 . S
C181 C179 1.390 . S
C181 C182 1.387 . S
C181 H184 0.950 . S
C182 C181 1.387 . S
C182 C185 1.387 . S
H183 C179 0.950 . S
H184 C181 0.950 . S
C185 C176 1.390 . S
C185 H178 0.948 1_545 S
C185 C182 1.387 . S
C186 C187 1.387 . S
C186 H190 0.950 . S
C186 C195 1.390 . S
C187 C186 1.387 . S
C187 C189 1.387 . S
H188 C195 0.950 . S
C189 C187 1.387 . S
C189 C191 1.390 . S
C189 H193 0.950 . S
H190 C186 0.950 . S
C191 C189 1.390 . S
C191 C192 1.387 . S
C191 H194 0.950 . S
C192 C191 1.387 . S
C192 C195 1.387 . S
H193 C189 0.950 . S
H194 C191 0.950 . S
C195 C186 1.390 . S
C195 H188 0.950 . S
C195 C192 1.387 . S
C196 C197 1.387 . S
C196 H200 0.950 . S
C196 C205 1.390 . S
C197 C196 1.387 . S
C197 C199 1.387 . S
H198 C205 0.950 . S
C199 C197 1.387 . S
C199 C201 1.390 . S
C199 H203 0.950 . S
H200 C196 0.950 . S
C201 C199 1.390 . S
C201 C202 1.387 . S
C201 H204 0.945 1_565 S
C202 C201 1.387 . S
C202 C205 1.387 . S
H203 C199 0.950 . S
H204 C201 0.945 1_545 S
C205 C196 1.390 . S
C205 H198 0.950 . S
C205 C202 1.387 . S
C206 C207 1.387 . S
C206 H210 0.950 . S
C206 C215 1.390 1_554 S
C207 C206 1.387 . S
C207 C209 1.387 . S
H208 C215 0.950 . S
C209 C207 1.387 . S
C209 C211 1.390 1_554 S
C209 H213 0.950 . S
H210 C206 0.950 . S
C211 C209 1.390 1_556 S
C211 C212 1.387 . S
C211 H214 0.950 . S
C212 C211 1.387 . S
C212 C215 1.387 . S
H213 C209 0.950 . S
H214 C211 0.950 . S
C215 C206 1.390 1_556 S
C215 H208 0.950 . S
C215 C212 1.387 . S
C216 C217 1.387 . S
C216 H220 0.950 . S
C216 C225 1.390 . S
C217 C216 1.387 . S
C217 C219 1.387 . S
H218 C225 0.950 . S
C219 C217 1.387 . S
C219 C221 1.390 . S
C219 H223 0.950 . S
H220 C216 0.950 . S
C221 C219 1.390 . S
C221 C222 1.387 . S
C221 H224 0.950 . S
C222 C221 1.387 . S
C222 C225 1.387 . S
H223 C219 0.950 . S
H224 C221 0.950 . S
C225 C216 1.390 . S
C225 H218 0.950 . S
C225 C222 1.387 . S
C226 C227 1.387 . S
C226 H230 0.950 . S
C226 C235 1.390 . S
C227 C226 1.387 . S
C227 C229 1.387 . S
H228 C235 0.950 . S
C229 C227 1.387 . S
C229 C231 1.390 . S
C229 H233 0.950 . S
H230 C226 0.950 . S
C231 C229 1.390 . S
C231 C232 1.387 . S
C231 H234 0.950 . S
C232 C231 1.387 . S
C232 C235 1.387 . S
H233 C229 0.950 . S
H234 C231 0.950 . S
C235 C226 1.390 . S
C235 H228 0.950 . S
C235 C232 1.387 . S
C236 C237 1.387 . S
C236 H240 0.950 . S
C236 C245 1.390 . S
C237 C236 1.387 . S
C237 C239 1.387 . S
H238 C245 0.950 . S
C239 C237 1.387 . S
C239 C241 1.390 . S
C239 H243 0.950 . S
H240 C236 0.950 . S
C241 C239 1.390 . S
C241 C242 1.387 . S
C241 H244 0.950 . S
C242 C241 1.387 . S
C242 C245 1.387 . S
H243 C239 0.950 . S
H244 C241 0.950 . S
C245 C236 1.390 . S
C245 H238 0.950 . S
C245 C242 1.387 . S
C246 C247 1.387 . S
C246 H250 0.950 . S
C246 C255 1.390 . S
C247 C246 1.387 . S
C247 C249 1.387 . S
H248 C255 0.950 1_556 S
C249 C247 1.387 . S
C249 C251 1.390 . S
C249 H253 0.950 . S
H250 C246 0.950 . S
C251 C249 1.390 . S
C251 C252 1.387 . S
C251 H254 0.950 . S
C252 C251 1.387 . S
C252 C255 1.387 . S
H253 C249 0.950 . S
H254 C251 0.950 . S
C255 C246 1.390 . S
C255 H248 0.950 1_554 S
C255 C252 1.387 . S
C256 C257 1.387 . S
C256 H260 0.950 . S
C256 C265 1.390 . S
C257 C256 1.387 . S
C257 C259 1.387 . S
H258 C265 0.950 . S
C259 C257 1.387 . S
C259 C261 1.390 . S
C259 H263 0.950 . S
H260 C256 0.950 . S
C261 C259 1.390 . S
C261 C262 1.387 . S
C261 H264 0.950 . S
C262 C261 1.387 . S
C262 C265 1.387 . S
H263 C259 0.950 . S
H264 C261 0.950 . S
C265 C256 1.390 . S
C265 H258 0.950 . S
C265 C262 1.387 . S
C266 C267 1.387 . S
C266 H270 0.950 . S
C266 C275 1.390 . S
C267 C266 1.387 . S
C267 C269 1.387 . S
H268 C275 0.950 . S
C269 C267 1.387 . S
C269 C271 1.390 . S
C269 H273 0.950 . S
H270 C266 0.950 . S
C271 C269 1.390 . S
C271 C272 1.387 . S
C271 H274 0.950 . S
C272 C271 1.387 . S
C272 C275 1.387 . S
H273 C269 0.950 . S
H274 C271 0.950 . S
C275 C266 1.390 . S
C275 H268 0.950 . S
C275 C272 1.387 . S
C276 C277 1.387 . S
C276 H280 0.950 . S
C276 C285 1.390 . S
C277 C276 1.387 . S
C277 C279 1.387 . S
H278 C285 0.950 . S
C279 C277 1.387 . S
C279 C281 1.390 . S
C279 H283 0.950 1_556 S
H280 C276 0.950 . S
C281 C279 1.390 . S
C281 C282 1.387 . S
C281 H284 0.950 . S
C282 C281 1.387 . S
C282 C285 1.387 . S
H283 C279 0.950 1_554 S
H284 C281 0.950 . S
C285 C276 1.390 . S
C285 H278 0.950 . S
C285 C282 1.387 . S
C286 C287 1.387 . S
C286 H290 0.950 . S
C286 C295 1.390 . S
C287 C286 1.387 . S
C287 C289 1.387 . S
H288 C295 0.950 . S
C289 C287 1.387 . S
C289 C291 1.390 . S
C289 H293 0.950 . S
H290 C286 0.950 . S
C291 C289 1.390 . S
C291 C292 1.387 . S
C291 H294 0.950 . S
C292 C291 1.387 . S
C292 C295 1.387 . S
H293 C289 0.950 . S
H294 C291 0.950 . S
C295 C286 1.390 . S
C295 H288 0.950 . S
C295 C292 1.387 . S
C296 C297 1.387 . S
C296 H300 0.950 . S
C296 C305 1.390 1_556 S
C297 C296 1.387 . S
C297 C299 1.387 . S
H298 C305 0.950 . S
C299 C297 1.387 . S
C299 C301 1.390 1_556 S
C299 H303 0.950 . S
H300 C296 0.950 . S
C301 C299 1.390 1_554 S
C301 C302 1.387 . S
C301 H304 0.950 . S
C302 C301 1.387 . S
C302 C305 1.387 . S
H303 C299 0.950 . S
H304 C301 0.950 . S
C305 C296 1.390 1_554 S
C305 H298 0.950 . S
C305 C302 1.387 . S
C306 C307 1.387 . S
C306 H310 0.950 . S
C306 C315 1.390 . S
C307 C306 1.387 . S
C307 C309 1.387 . S
H308 C315 0.950 . S
C309 C307 1.387 . S
C309 C311 1.390 . S
C309 H313 0.950 . S
H310 C306 0.950 . S
C311 C309 1.390 . S
C311 C312 1.387 . S
C311 H314 0.950 . S
C312 C311 1.387 . S
C312 C315 1.387 . S
H313 C309 0.950 . S
H314 C311 0.950 . S
C315 C306 1.390 . S
C315 H308 0.950 . S
C315 C312 1.387 . S
C316 C317 1.387 . S
C316 H320 0.950 . S
C316 C325 1.390 . S
C317 C316 1.387 . S
C317 C319 1.387 . S
H318 C325 0.950 . S
C319 C317 1.387 . S
C319 C321 1.390 . S
C319 H323 0.950 . S
H320 C316 0.950 . S
C321 C319 1.390 . S
C321 C322 1.387 . S
C321 H324 0.950 . S
C322 C321 1.387 . S
C322 C325 1.387 . S
H323 C319 0.950 . S
H324 C321 0.950 . S
C325 C316 1.390 . S
C325 H318 0.950 . S
C325 C322 1.387 . S
C326 C327 1.387 . S
C326 H330 0.950 . S
C326 C335 1.390 . S
C327 C326 1.387 . S
C327 C329 1.387 . S
H328 C335 0.950 . S
C329 C327 1.387 . S
C329 C331 1.390 . S
C329 H333 0.950 . S
H330 C326 0.950 . S
C331 C329 1.390 . S
C331 C332 1.387 . S
C331 H334 0.950 . S
C332 C331 1.387 . S
C332 C335 1.387 . S
H333 C329 0.950 . S
H334 C331 0.950 . S
C335 C326 1.390 . S
C335 H328 0.950 . S
C335 C332 1.387 . S
C336 C337 1.387 1_565 S
C336 H340 0.950 . S
C336 C345 1.390 . S
C337 C336 1.387 1_545 S
C337 C339 1.387 . S
H338 C345 0.950 . S
C339 C337 1.387 . S
C339 C341 1.390 . S
C339 H343 0.950 . S
H340 C336 0.950 . S
C341 C339 1.390 . S
C341 C342 1.387 1_545 S
C341 H344 0.950 . S
C342 C341 1.387 1_565 S
C342 C345 1.387 . S
H343 C339 0.950 . S
H344 C341 0.950 . S
C345 C336 1.390 . S
C345 H338 0.950 . S
C345 C342 1.387 . S
C346 C347 1.387 . S
C346 H350 0.950 . S
C346 C355 1.390 . S
C347 C346 1.387 . S
C347 C349 1.387 . S
H348 C355 0.950 . S
C349 C347 1.387 . S
C349 C351 1.390 . S
C349 H353 0.950 . S
H350 C346 0.950 . S
C351 C349 1.390 . S
C351 C352 1.387 . S
C351 H354 0.950 . S
C352 C351 1.387 . S
C352 C355 1.387 . S
H353 C349 0.950 . S
H354 C351 0.950 . S
C355 C346 1.390 . S
C355 H348 0.950 . S
C355 C352 1.387 . S
C356 C357 1.387 . S
C356 H360 0.950 . S
C356 C365 1.390 1_545 S
C357 C356 1.387 . S
C357 C359 1.387 . S
H358 C365 0.950 . S
C359 C357 1.387 . S
C359 C361 1.390 1_545 S
C359 H363 0.950 . S
H360 C356 0.950 . S
C361 C359 1.390 1_565 S
C361 C362 1.387 . S
C361 H364 0.950 . S
C362 C361 1.387 . S
C362 C365 1.387 . S
H363 C359 0.950 . S
H364 C361 0.950 . S
C365 C356 1.390 1_565 S
C365 H358 0.950 . S
C365 C362 1.387 . S
C366 C367 1.387 . S
C366 H370 0.950 . S
C366 C375 1.390 . S
C367 C366 1.387 . S
C367 C369 1.387 . S
H368 C375 0.950 . S
C369 C367 1.387 . S
C369 C371 1.390 . S
C369 H373 0.950 . S
H370 C366 0.950 . S
C371 C369 1.390 . S
C371 C372 1.387 . S
C371 H374 0.950 . S
C372 C371 1.387 . S
C372 C375 1.387 . S
H373 C369 0.950 . S
H374 C371 0.950 . S
C375 C366 1.390 . S
C375 H368 0.950 . S
C375 C372 1.387 . S
C376 C377 1.387 . S
C376 H380 0.950 . S
C376 C385 1.390 . S
C377 C376 1.387 . S
C377 C379 1.387 . S
H378 C385 0.950 . S
C379 C377 1.387 . S
C379 C381 1.390 . S
C379 H383 0.950 . S
H380 C376 0.950 . S
C381 C379 1.390 . S
C381 C382 1.387 . S
C381 H384 0.950 . S
C382 C381 1.387 . S
C382 C385 1.387 . S
H383 C379 0.950 . S
H384 C381 0.950 . S
C385 C376 1.390 . S
C385 H378 0.950 . S
C385 C382 1.387 . S
C386 C387 1.387 . S
C386 H390 0.950 . S
C386 C395 1.390 1_455 S
C387 C386 1.387 . S
C387 C389 1.387 . S
H388 C395 0.950 . S
C389 C387 1.387 . S
C389 C391 1.390 1_455 S
C389 H393 0.950 . S
H390 C386 0.950 . S
C391 C389 1.390 1_655 S
C391 C392 1.387 . S
C391 H394 0.950 . S
C392 C391 1.387 . S
C392 C395 1.387 . S
H393 C389 0.950 . S
H394 C391 0.950 . S
C395 C386 1.390 1_655 S
C395 H388 0.950 . S
C395 C392 1.387 . S
C396 C397 1.387 . S
C396 H400 0.950 . S
C396 C405 1.390 . S
C397 C396 1.387 . S
C397 C399 1.387 . S
H398 C405 0.950 . S
C399 C397 1.387 . S
C399 C401 1.390 . S
C399 H403 0.950 . S
H400 C396 0.950 . S
C401 C399 1.390 . S
C401 C402 1.387 . S
C401 H404 0.950 . S
C402 C401 1.387 . S
C402 C405 1.387 . S
H403 C399 0.950 . S
H404 C401 0.950 . S
C405 C396 1.390 . S
C405 H398 0.950 . S
C405 C402 1.387 . S
C406 C407 1.387 . S
C406 H410 0.950 . S
C406 C415 1.390 1_655 S
C407 C406 1.387 . S
C407 C409 1.387 . S
H408 C415 0.950 . S
C409 C407 1.387 . S
C409 C411 1.390 1_655 S
C409 H413 0.950 . S
H410 C406 0.950 . S
C411 C409 1.390 1_455 S
C411 C412 1.387 . S
C411 H414 0.950 . S
C412 C411 1.387 . S
C412 C415 1.387 . S
H413 C409 0.950 . S
H414 C411 0.950 . S
C415 C406 1.390 1_455 S
C415 H408 0.950 . S
C415 C412 1.387 . S
C177 C8 1.605 . S
C182 C162 1.604 . S
C187 C32 1.604 . S
C192 C106 1.605 . S
C197 C52 1.604 . S
C202 C120 1.604 . S
C207 C142 1.605 . S
C212 C84 1.605 . S
C217 C10 1.418 . S
C222 C37 1.448 . S
C227 C65 1.448 . S
C232 C40 1.415 . S
C237 C73 1.448 . S
C242 C54 1.418 . S
C247 C21 1.448 . S
C252 C74 1.418 1_554 S
C257 C96 1.418 . S
C262 C175 1.448 . S
C267 C128 1.418 . S
C272 C95 1.447 . S
C277 C150 1.415 1_556 S
C282 C125 1.448 . S
C287 C147 1.448 . S
C292 C164 1.416 . S
C297 C131 0.927 . S
C302 C7 0.929 . S
C307 C153 0.928 . S
C312 C43 0.929 . S
C317 C161 0.927 . S
C322 C51 0.929 . S
C327 C103 0.929 . S
C332 C81 0.928 . S
C337 C18 1.591 . S
C342 C139 1.591 . S
C347 C30 1.592 . S
C352 C169 1.593 . S
C357 C109 1.594 . S
C362 C62 1.592 . S
C367 C117 1.594 . S
C372 C76 1.592 . S
C377 C59 1.594 . S
C382 C98 1.592 . S
C387 C118 1.590 . S
C392 C87 1.591 . S
C397 C140 1.590 . S
C402 C15 1.591 . S
C407 C172 1.592 . S
C412 C29 1.594 . S
