# Generated by pormake.
# Topology irl, (4)-cn, num edge types: 1
# Building blocks:
#     Node 0, Type 0, BuildingBlock: NAHDIM_clean_sbu_0, # of connection points: 4
#     Node 1, Type 0, BuildingBlock: NAHDIM_clean_sbu_0, # of connection points: 4
#     Node 2, Type 0, BuildingBlock: NAHDIM_clean_sbu_0, # of connection points: 4
#     Node 3, Type 0, BuildingBlock: NAHDIM_clean_sbu_0, # of connection points: 4
#     Node 4, Type 0, BuildingBlock: NAHDIM_clean_sbu_0, # of connection points: 4
#     Node 5, Type 0, BuildingBlock: NAHDIM_clean_sbu_0, # of connection points: 4
#     Node 6, Type 0, BuildingBlock: NAHDIM_clean_sbu_0, # of connection points: 4
#     Node 7, Type 0, BuildingBlock: NAHDIM_clean_sbu_0, # of connection points: 4
#     Edge 8, Type (0, 0), BuildingBlock: AJUNOK_clean_linker_0, # of connection points: 2
#     Edge 9, Type (0, 0), BuildingBlock: AJUNOK_clean_linker_0, # of connection points: 2
#     Edge 10, Type (0, 0), BuildingBlock: AJUNOK_clean_linker_0, # of connection points: 2
#     Edge 11, Type (0, 0), BuildingBlock: AJUNOK_clean_linker_0, # of connection points: 2
#     Edge 12, Type (0, 0), BuildingBlock: AJUNOK_clean_linker_0, # of connection points: 2
#     Edge 13, Type (0, 0), BuildingBlock: AJUNOK_clean_linker_0, # of connection points: 2
#     Edge 14, Type (0, 0), BuildingBlock: AJUNOK_clean_linker_0, # of connection points: 2
#     Edge 15, Type (0, 0), BuildingBlock: AJUNOK_clean_linker_0, # of connection points: 2
#     Edge 16, Type (0, 0), BuildingBlock: AJUNOK_clean_linker_0, # of connection points: 2
#     Edge 17, Type (0, 0), BuildingBlock: AJUNOK_clean_linker_0, # of connection points: 2
#     Edge 18, Type (0, 0), BuildingBlock: AJUNOK_clean_linker_0, # of connection points: 2
#     Edge 19, Type (0, 0), BuildingBlock: AJUNOK_clean_linker_0, # of connection points: 2
#     Edge 20, Type (0, 0), BuildingBlock: AJUNOK_clean_linker_0, # of connection points: 2
#     Edge 21, Type (0, 0), BuildingBlock: AJUNOK_clean_linker_0, # of connection points: 2
#     Edge 22, Type (0, 0), BuildingBlock: AJUNOK_clean_linker_0, # of connection points: 2
#     Edge 23, Type (0, 0), BuildingBlock: AJUNOK_clean_linker_0, # of connection points: 2
# Relax obj value: 0.185
# Max RMSD: 0.179
# Mean RMSD: 0.179
data_MOF--net-irl--node1-NAHDIM_clean_sbu_0--edge1-AJUNOK_clean_linker_0
_symmetry_space_group_name_H-M    P1
_symmetry_Int_Tables_number       1
_symmetry_cell_setting            triclinic
loop_
_symmetry_equiv_pos_as_xyz
'x, y, z'
_cell_length_a     30.772497
_cell_length_b     26.837327
_cell_length_c     19.388826
_cell_angle_alpha  89.970249
_cell_angle_beta   89.204862
_cell_angle_gamma 88.634621
loop_
_atom_site_label
_atom_site_type_symbol
_atom_site_fract_x
_atom_site_fract_y
_atom_site_fract_z
_atom_type_partial_charge
C0 C 0.13761 0.24769 0.01426 0.0
O1 O 0.1077 0.28329 0.0195 0.0
O2 O 0.0387 0.22091 0.09708 0.0
Zn3 Zn 0.06179 0.19308 0.00766 0.0
O4 O 0.03894 0.2251 0.92161 0.0
C5 C 0.01478 0.10266 0.02808 0.0
O6 O -0.01363 0.13355 0.05739 0.0
O7 O 0.12565 0.203 0.0078 0.0
C8 C -0.00029 0.22345 0.90255 0.0
O9 O 0.97057 0.20441 0.94438 0.0
C10 C 0.00831 0.25225 0.11098 0.0
O11 O -0.01453 0.27239 0.06104 0.0
O12 O 0.04994 0.11975 0.00363 0.0
C13 C 0.83242 0.76474 0.98054 0.0
O14 O 0.85618 0.72841 0.95301 0.0
O15 O 0.94824 0.77223 0.05754 0.0
Zn16 Zn 0.9151 0.81101 0.98511 0.0
O17 O 0.93101 0.79271 0.88721 0.0
C18 C 0.96982 0.89427 -0.00417 0.0
O19 O -0.0007 0.85873 0.98574 0.0
O20 O 0.85083 0.80444 -0.00151 0.0
C21 C 0.96609 0.77146 0.86628 0.0
O22 O -0.00505 0.7568 0.91174 0.0
C23 C 0.92941 0.75149 0.10843 0.0
O24 O 0.88679 0.75002 0.10975 0.0
O25 O 0.92997 0.88285 -0.0021 0.0
C26 C 0.14756 0.76024 0.47702 0.0
O27 O 0.12043 0.72659 0.49931 0.0
O28 O 0.04454 0.77822 0.37636 0.0
Zn29 Zn 0.06741 0.8112 0.46108 0.0
O30 O 0.04582 0.78137 0.55033 0.0
C31 C 0.01807 0.8998 0.42179 0.0
O32 O 0.00075 0.86832 0.37891 0.0
O33 O 0.1325 0.80226 0.45702 0.0
C34 C 0.00831 0.79238 0.57471 0.0
O35 O 0.98187 0.8204 0.53776 0.0
C36 C 0.01363 0.74796 0.37173 0.0
O37 O -0.00662 0.73343 0.42806 0.0
O38 O 0.0485 0.88441 0.46084 0.0
C39 C 0.82397 0.23203 0.50076 0.0
O40 O 0.84754 0.27223 0.50042 0.0
O41 O 0.92513 0.22953 0.4132 0.0
Zn42 Zn 0.90814 0.19217 0.49869 0.0
O43 O 0.92551 0.22476 0.5869 0.0
C44 C 0.93802 0.09874 0.43842 0.0
O45 O 0.92083 0.1184 0.38271 0.0
O46 O 0.8433 0.18968 0.50011 0.0
C47 C 0.96268 0.21587 0.61227 0.0
O48 O -0.00874 0.189 0.57659 0.0
C49 C 0.96319 0.24405 0.39942 0.0
O50 O -0.00629 0.23764 0.44546 0.0
O51 O 0.93542 0.12301 0.49463 0.0
C52 C 0.6457 0.75095 0.02644 0.0
O53 O 0.62245 0.79239 0.03361 0.0
O54 O 0.54326 0.74008 0.12579 0.0
Zn55 Zn 0.56164 0.71031 0.03439 0.0
O56 O 0.53947 0.74552 0.94964 0.0
C57 C 0.50628 0.62687 0.0596 0.0
O58 O 0.48189 0.66104 0.09079 0.0
O59 O 0.62644 0.70968 0.02702 0.0
C60 C 0.50058 0.74294 0.92918 0.0
O61 O 0.47172 0.72168 0.96933 0.0
C62 C 0.51522 0.77415 0.14003 0.0
O63 O 0.49428 0.79655 0.08974 0.0
O64 O 0.54222 0.6392 0.03221 0.0
C65 C 0.32266 0.28621 0.02332 0.0
O66 O 0.35034 0.24822 0.01944 0.0
O67 O 0.42185 0.30245 0.11648 0.0
Zn68 Zn 0.40169 0.33505 0.02925 0.0
O69 O 0.42388 0.30535 0.94005 0.0
C70 C 0.45552 0.41968 0.04585 0.0
O71 O 0.48524 0.38453 0.05565 0.0
O72 O 0.33735 0.32981 0.02831 0.0
C73 C 0.46255 0.29429 0.921 0.0
O74 O 0.49437 0.2993 0.96469 0.0
C75 C 0.44583 0.26447 0.12905 0.0
O76 O 0.46331 0.23833 0.07816 0.0
O77 O 0.41686 0.40738 0.03297 0.0
C78 C 0.63544 0.25707 0.50701 0.0
O79 O 0.60924 0.21915 0.50905 0.0
O80 O 0.53243 0.27085 0.42637 0.0
Zn81 Zn 0.5541 0.30599 0.51024 0.0
O82 O 0.53457 0.27648 0.60046 0.0
C83 C 0.52097 0.40096 0.45508 0.0
O84 O 0.52387 0.37801 0.3953 0.0
O85 O 0.61896 0.30094 0.50698 0.0
C86 C 0.49899 0.2918 0.62779 0.0
O87 O 0.47363 0.32229 0.59267 0.0
C88 C 0.49268 0.26295 0.41501 0.0
O89 O 0.46354 0.27476 0.46272 0.0
O90 O 0.53341 0.3781 0.50901 0.0
C91 C 0.33321 0.71645 0.459 0.0
O92 O 0.35458 0.72263 0.40065 0.0
O93 O 0.45196 0.73175 0.44741 0.0
Zn94 Zn 0.41869 0.69802 0.52381 0.0
O95 O 0.43251 0.72355 0.61812 0.0
C96 C 0.44678 0.60329 0.46503 0.0
O97 O 0.44299 0.62818 0.40696 0.0
O98 O 0.35384 0.70565 0.51351 0.0
C99 C 0.46618 0.74635 0.63627 0.0
O100 O 0.49583 0.75701 0.58951 0.0
C101 C 0.44432 0.77293 0.41702 0.0
O102 O 0.41142 0.80152 0.43762 0.0
O103 O 0.43677 0.62517 0.52141 0.0
C104 C 0.95154 0.9829 0.02678 0.0
C105 C -0.01737 0.94684 0.00467 0.0
C106 C 0.96245 0.0329 0.03504 0.0
C107 C 0.00483 0.04908 0.02099 0.0
H108 H 0.91837 0.97254 0.03796 0.0
H109 H 0.93717 0.05912 0.05182 0.0
S110 S 0.09865 0.96948 0.96257 0.0
N111 N 0.05795 0.93078 0.96964 0.0
N112 N 0.07837 0.02473 0.98483 0.0
C113 C 0.03639 0.0134 -0.00079 0.0
C114 C 0.02532 0.96234 0.9912 0.0
C115 C 0.97294 0.97006 0.37416 0.0
C116 C 0.00014 0.9516 0.42659 0.0
C117 C 0.95349 0.01771 0.37826 0.0
C118 C 0.95994 0.04884 0.43537 0.0
H119 H 0.96638 0.94745 0.32939 0.0
H120 H 0.93268 0.02987 0.33658 0.0
S121 S 0.02907 0.01896 0.58616 0.0
N122 N 0.03328 0.9688 0.53702 0.0
N123 N -0.00354 0.05825 0.54503 0.0
C124 C -0.01257 0.03116 0.488 0.0
C125 C 0.00762 0.98267 0.48349 0.0
C126 C 0.5233 0.53593 0.04536 0.0
C127 C 0.49226 0.57454 0.05633 0.0
C128 C 0.51108 0.48603 0.04253 0.0
C129 C 0.46726 0.47282 0.0494 0.0
H130 H 0.55745 0.54419 0.03962 0.0
H131 H 0.53624 0.45765 0.03424 0.0
S132 S 0.37317 0.55995 0.07778 0.0
N133 N 0.41568 0.59626 0.07368 0.0
N134 N 0.39263 0.50255 0.06743 0.0
C135 C 0.4358 0.5111 0.05984 0.0
C136 C 0.44832 0.56191 0.06363 0.0
C137 C 0.49363 0.47954 0.39896 0.0
C138 C 0.50204 0.45239 0.45964 0.0
C139 C 0.47547 0.52793 0.40137 0.0
C140 C 0.46468 0.55127 0.46457 0.0
H141 H 0.50134 0.46349 0.34889 0.0
H142 H 0.47003 0.54717 0.35302 0.0
S143 S 0.47884 0.49575 0.63871 0.0
N144 N 0.49727 0.45217 0.5851 0.0
N145 N 0.4631 0.5429 0.58964 0.0
C146 C 0.47249 0.52437 0.52577 0.0
C147 C 0.49118 0.47508 0.52331 0.0
C148 C 0.02889 0.25337 0.23443 0.0
C149 C -0.00319 0.26105 0.18426 0.0
C150 C 0.01811 0.25189 0.30468 0.0
C151 C 0.9747 0.25731 0.32742 0.0
H152 H 0.06248 0.24632 0.21914 0.0
H153 H 0.04375 0.2433 0.34083 0.0
S154 S 0.87932 0.28559 0.21754 0.0
N155 N 0.92058 0.27994 0.1625 0.0
N156 N 0.90004 0.27674 0.29482 0.0
C157 C 0.9427 0.26883 0.2782 0.0
C158 C 0.95383 0.27085 0.2065 0.0
C159 C 0.95174 0.72512 0.29672 0.0
C160 C -0.00444 0.73787 0.30282 0.0
C161 C 0.93134 0.726 0.23253 0.0
C162 C 0.95401 0.73956 0.17196 0.0
H163 H 0.93221 0.71747 0.34225 0.0
H164 H 0.89689 0.71876 0.23124 0.0
S165 S 0.0718 0.76579 0.15854 0.0
N166 N 0.06276 0.7568 0.24168 0.0
N167 N 0.02455 0.75836 0.1211 0.0
C168 C -0.00109 0.74767 0.17658 0.0
C169 C 0.01963 0.74692 0.24199 0.0
C170 C 0.95581 0.79511 0.67417 0.0
C171 C -0.00335 0.77986 0.64722 0.0
C172 C 0.9457 0.79009 0.74439 0.0
C173 C 0.97601 0.76969 0.79101 0.0
H174 H 0.93174 0.81265 0.64128 0.0
H175 H 0.91422 0.80397 0.76245 0.0
S176 S 0.0859 0.71847 0.74555 0.0
N177 N 0.06638 0.73923 0.67178 0.0
N178 N 0.04738 0.72999 0.80388 0.0
C179 C 0.01615 0.75167 0.76422 0.0
C180 C 0.02645 0.75669 0.69239 0.0
C181 C 0.02328 0.22842 0.77921 0.0
C182 C -0.01043 0.23184 0.82898 0.0
C183 C 0.01428 0.22609 0.70878 0.0
C184 C 0.9713 0.22793 0.68523 0.0
H185 H 0.05688 0.22448 0.79469 0.0
H186 H 0.04122 0.2208 0.67274 0.0
S187 S 0.87168 0.24502 0.79393 0.0
N188 N 0.91183 0.24269 0.84954 0.0
N189 N 0.8948 0.23924 0.7169 0.0
C190 C 0.93743 0.23552 0.73404 0.0
C191 C 0.94661 0.23718 0.806 0.0
C192 C 0.46205 0.80709 0.2293 0.0
C193 C 0.50171 0.78221 0.21314 0.0
C194 C 0.44496 0.80725 0.29687 0.0
C195 C 0.46687 0.78237 0.35052 0.0
H196 H 0.44284 0.82428 0.18897 0.0
H197 H 0.41312 0.82425 0.30606 0.0
S198 S 0.5755 0.71983 0.33831 0.0
N199 N 0.56528 0.73828 0.25883 0.0
N200 N 0.53287 0.73819 0.3851 0.0
C201 C 0.50808 0.76087 0.33618 0.0
C202 C 0.52559 0.76091 0.2677 0.0
C203 C 0.43691 0.26664 0.3232 0.0
C204 C 0.47903 0.25232 0.34369 0.0
C205 C 0.42581 0.26759 0.25352 0.0
C206 C 0.45611 0.25347 0.20172 0.0
H207 H 0.41305 0.2803 0.36065 0.0
H208 H 0.3937 0.28149 0.23993 0.0
S209 S 0.56851 0.20546 0.22883 0.0
N210 N 0.54969 0.21821 0.3072 0.0
N211 N 0.52841 0.21946 0.17595 0.0
C212 C 0.49712 0.23503 0.2217 0.0
C213 C 0.50869 0.23464 0.29281 0.0
C214 C 0.43853 0.29378 0.79858 0.0
C215 C 0.47164 0.28461 0.84678 0.0
C216 C 0.44732 0.29322 0.72765 0.0
C217 C 0.48941 0.28283 0.70176 0.0
H218 H 0.40583 0.30394 0.81555 0.0
H219 H 0.42112 0.30285 0.69296 0.0
S220 S 0.58633 0.24894 0.80546 0.0
N221 N 0.54728 0.25954 0.86323 0.0
N222 N 0.56376 0.25791 0.72956 0.0
C223 C 0.52219 0.26985 0.74898 0.0
C224 C 0.51332 0.27093 0.82155 0.0
C225 C 0.44961 0.74047 0.8302 0.0
C226 C 0.49027 0.75363 0.8559 0.0
C227 C 0.44153 0.74083 0.75935 0.0
C228 C 0.47372 0.75443 0.71098 0.0
H229 H 0.4243 0.72742 0.86464 0.0
H230 H 0.41021 0.72832 0.74244 0.0
S231 S 0.58334 0.80008 0.7521 0.0
N232 N 0.56141 0.78671 0.82785 0.0
N233 N 0.54618 0.78726 0.69457 0.0
C234 C 0.51341 0.77138 0.7362 0.0
C235 C 0.52168 0.77103 0.80862 0.0
C236 C 0.26012 0.22935 0.01308 0.0
C237 C 0.27529 0.27798 0.02129 0.0
C238 C 0.21565 0.22009 0.01073 0.0
C239 C 0.18442 0.25906 0.01655 0.0
H240 H 0.28272 0.19793 0.0083 0.0
H241 H 0.2058 0.1819 0.00433 0.0
S242 S 0.207 0.39341 0.03922 0.0
N243 N 0.25546 0.36581 0.03548 0.0
N244 N 0.17182 0.3484 0.0311 0.0
C245 C 0.19906 0.30798 0.02483 0.0
C246 C 0.24447 0.31744 0.0272 0.0
C247 C 0.71473 0.79801 0.02419 0.0
C248 C 0.69342 0.75271 0.0156 0.0
C249 C 0.75958 0.80134 0.01295 0.0
C250 C 0.78502 0.75958 0.99215 0.0
H251 H 0.6967 0.83139 0.03981 0.0
H252 H 0.77429 0.83719 0.02024 0.0
S253 S 0.74514 0.6319 0.9627 0.0
N254 N 0.70129 0.66484 0.9854 0.0
N255 N 0.78558 0.67118 0.96402 0.0
C256 C 0.7642 0.71392 0.98349 0.0
C257 C 0.71846 0.71044 -0.00466 0.0
C258 C 0.22112 0.77183 0.4236 0.0
C259 C 0.19474 0.74853 0.47328 0.0
C260 C 0.26572 0.7602 0.41801 0.0
C261 C 0.28567 0.7257 0.4629 0.0
H262 H 0.20713 0.79882 0.3882 0.0
H263 H 0.28484 0.77919 0.37919 0.0
S264 S 0.23104 0.65468 0.60217 0.0
N265 N 0.19176 0.68912 0.56791 0.0
N266 N 0.27564 0.66811 0.55837 0.0
C267 C 0.25968 0.70229 0.51293 0.0
C268 C 0.2142 0.71346 0.51784 0.0
C269 C 0.71054 0.29043 0.50377 0.0
C270 C 0.68329 0.24909 0.50511 0.0
C271 C 0.75581 0.28436 0.50229 0.0
C272 C 0.77586 0.23667 0.50206 0.0
H273 H 0.6969 0.32802 0.50396 0.0
H274 H 0.77516 0.31754 0.50137 0.0
S275 S 0.71934 0.11592 0.50483 0.0
N276 N 0.67975 0.1585 0.50585 0.0
N277 N 0.7649 0.14714 0.50307 0.0
C278 C 0.74908 0.19488 0.50323 0.0
C279 C 0.70284 0.20106 0.50476 0.0
loop_
_geom_bond_atom_site_label_1
_geom_bond_atom_site_label_2
_geom_bond_distance
_geom_bond_site_symmetry_2
_ccdc_geom_bond_type
C0 O1 1.160 . S
C0 O7 1.185 1_554 S
O1 C0 1.160 . S
O2 Zn3 1.899 . S
O2 C10 1.284 . S
Zn3 O2 1.899 . S
Zn3 O4 2.032 1_554 S
Zn3 O7 2.086 1_554 S
Zn3 O12 1.977 1_554 S
O4 Zn3 2.032 1_556 S
O4 C8 1.278 . S
C5 O6 1.203 1_455 S
C5 O12 1.267 1_554 S
O6 C5 1.203 1_655 S
O7 C0 1.185 1_556 S
O7 Zn3 2.086 1_556 S
C8 O4 1.278 . S
C8 O9 1.211 1_455 S
O9 C8 1.211 1_655 S
C10 O2 1.284 . S
C10 O11 1.273 1_455 S
O11 C10 1.273 1_655 S
O12 Zn3 1.977 1_556 S
O12 C5 1.267 1_556 S
C13 O14 1.160 . S
C13 O20 1.185 1_554 S
O14 C13 1.160 . S
O15 Zn16 1.899 . S
O15 C23 1.284 . S
Zn16 O15 1.899 . S
Zn16 O17 2.032 1_554 S
Zn16 O20 2.086 1_554 S
Zn16 O25 1.977 1_554 S
O17 Zn16 2.032 1_556 S
O17 C21 1.278 . S
C18 O19 1.203 1_655 S
C18 O25 1.267 1_554 S
O19 C18 1.203 1_455 S
O20 C13 1.185 1_556 S
O20 Zn16 2.086 1_556 S
C21 O17 1.278 . S
C21 O22 1.211 1_655 S
O22 C21 1.211 1_455 S
C23 O15 1.284 . S
C23 O24 1.273 1_655 S
O24 C23 1.273 1_455 S
O25 Zn16 1.977 1_556 S
O25 C18 1.267 1_556 S
C26 O27 1.160 . S
C26 O33 1.185 . S
O27 C26 1.160 . S
O28 Zn29 1.899 . S
O28 C36 1.284 . S
Zn29 O28 1.899 . S
Zn29 O30 2.032 . S
Zn29 O33 2.086 . S
Zn29 O38 1.977 . S
O30 Zn29 2.032 . S
O30 C34 1.278 . S
C31 O32 1.203 1_455 S
C31 O38 1.267 . S
O32 C31 1.203 1_655 S
O33 C26 1.185 . S
O33 Zn29 2.086 . S
C34 O30 1.278 . S
C34 O35 1.211 1_455 S
O35 C34 1.211 1_655 S
C36 O28 1.284 . S
C36 O37 1.273 1_455 S
O37 C36 1.273 1_655 S
O38 Zn29 1.977 . S
O38 C31 1.267 . S
C39 O40 1.160 . S
C39 O46 1.185 . S
O40 C39 1.160 . S
O41 Zn42 1.899 . S
O41 C49 1.284 . S
Zn42 O41 1.899 . S
Zn42 O43 2.032 . S
Zn42 O46 2.086 . S
Zn42 O51 1.977 . S
O43 Zn42 2.032 . S
O43 C47 1.278 . S
C44 O45 1.203 1_655 S
C44 O51 1.267 . S
O45 C44 1.203 1_455 S
O46 C39 1.185 . S
O46 Zn42 2.086 . S
C47 O43 1.278 . S
C47 O48 1.211 1_655 S
O48 C47 1.211 1_455 S
C49 O41 1.284 . S
C49 O50 1.273 1_655 S
O50 C49 1.273 1_455 S
O51 Zn42 1.977 . S
O51 C44 1.267 . S
C52 O53 1.160 . S
C52 O59 1.185 1_554 S
O53 C52 1.160 . S
O54 Zn55 1.899 . S
O54 C62 1.284 . S
Zn55 O54 1.899 . S
Zn55 O56 2.032 1_554 S
Zn55 O59 2.086 1_554 S
Zn55 O64 1.977 1_554 S
O56 Zn55 2.032 1_556 S
O56 C60 1.278 . S
C57 O58 1.203 . S
C57 O64 1.267 1_554 S
O58 C57 1.203 . S
O59 C52 1.185 1_556 S
O59 Zn55 2.086 1_556 S
C60 O56 1.278 . S
C60 O61 1.211 . S
O61 C60 1.211 . S
C62 O54 1.284 . S
C62 O63 1.273 . S
O63 C62 1.273 . S
O64 Zn55 1.977 1_556 S
O64 C57 1.267 1_556 S
C65 O66 1.160 . S
C65 O72 1.185 1_554 S
O66 C65 1.160 . S
O67 Zn68 1.899 . S
O67 C75 1.284 . S
Zn68 O67 1.899 . S
Zn68 O69 2.032 1_554 S
Zn68 O72 2.086 1_554 S
Zn68 O77 1.977 1_554 S
O69 Zn68 2.032 1_556 S
O69 C73 1.278 . S
C70 O71 1.203 . S
C70 O77 1.267 1_554 S
O71 C70 1.203 . S
O72 C65 1.185 1_556 S
O72 Zn68 2.086 1_556 S
C73 O69 1.278 . S
C73 O74 1.211 . S
O74 C73 1.211 . S
C75 O67 1.284 . S
C75 O76 1.273 . S
O76 C75 1.273 . S
O77 Zn68 1.977 1_556 S
O77 C70 1.267 1_556 S
C78 O79 1.160 . S
C78 O85 1.185 . S
O79 C78 1.160 . S
O80 Zn81 1.899 . S
O80 C88 1.284 . S
Zn81 O80 1.899 . S
Zn81 O82 2.032 . S
Zn81 O85 2.086 . S
Zn81 O90 1.977 . S
O82 Zn81 2.032 . S
O82 C86 1.278 . S
C83 O84 1.203 . S
C83 O90 1.267 . S
O84 C83 1.203 . S
O85 C78 1.185 . S
O85 Zn81 2.086 . S
C86 O82 1.278 . S
C86 O87 1.211 . S
O87 C86 1.211 . S
C88 O80 1.284 . S
C88 O89 1.273 . S
O89 C88 1.273 . S
O90 Zn81 1.977 . S
O90 C83 1.267 . S
C91 O92 1.160 . S
C91 O98 1.185 . S
O92 C91 1.160 . S
O93 Zn94 1.899 . S
O93 C101 1.284 . S
Zn94 O93 1.899 . S
Zn94 O95 2.032 . S
Zn94 O98 2.086 . S
Zn94 O103 1.977 . S
O95 Zn94 2.032 . S
O95 C99 1.278 . S
C96 O97 1.203 . S
C96 O103 1.267 . S
O97 C96 1.203 . S
O98 C91 1.185 . S
O98 Zn94 2.086 . S
C99 O95 1.278 . S
C99 O100 1.211 . S
O100 C99 1.211 . S
C101 O93 1.284 . S
C101 O102 1.273 . S
O102 C101 1.273 . S
O103 Zn94 1.977 . S
O103 C96 1.267 . S
C104 C105 1.369 . S
C104 C106 1.419 1_565 S
C104 H108 0.930 . S
C105 C104 1.369 . S
C105 C114 1.429 1_654 S
C106 C104 1.419 1_545 S
C106 C107 1.363 1_655 S
C106 H109 0.929 . S
C107 C106 1.363 1_455 S
C107 C113 1.428 1_554 S
H108 C104 0.930 . S
H109 C106 0.929 . S
S110 N111 1.613 . S
S110 N112 1.610 1_565 S
N111 S110 1.613 . S
N111 C114 1.350 . S
N112 S110 1.610 1_545 S
N112 C113 1.351 . S
C113 C107 1.428 1_556 S
C113 N112 1.351 . S
C113 C114 1.434 1_545 S
C114 C105 1.429 1_456 S
C114 N111 1.350 . S
C114 C113 1.434 1_565 S
C115 C116 1.369 1_655 S
C115 C117 1.419 1_565 S
C115 H119 0.930 . S
C116 C115 1.369 1_455 S
C116 C125 1.429 . S
C117 C115 1.419 1_545 S
C117 C118 1.363 . S
C117 H120 0.929 . S
C118 C117 1.363 . S
C118 C124 1.428 1_655 S
H119 C115 0.930 . S
H120 C117 0.929 . S
S121 N122 1.613 1_545 S
S121 N123 1.610 . S
N122 S121 1.613 1_565 S
N122 C125 1.350 . S
N123 S121 1.610 . S
N123 C124 1.351 . S
C124 C118 1.428 1_455 S
C124 N123 1.351 . S
C124 C125 1.434 1_545 S
C125 C116 1.429 . S
C125 N122 1.350 . S
C125 C124 1.434 1_565 S
C126 C127 1.369 . S
C126 C128 1.419 . S
C126 H130 0.930 . S
C127 C126 1.369 . S
C127 C136 1.429 1_554 S
C128 C126 1.419 . S
C128 C129 1.363 . S
C128 H131 0.929 . S
C129 C128 1.363 . S
C129 C135 1.428 1_554 S
H130 C126 0.930 . S
H131 C128 0.929 . S
S132 N133 1.613 . S
S132 N134 1.610 . S
N133 S132 1.613 . S
N133 C136 1.350 . S
N134 S132 1.610 . S
N134 C135 1.351 . S
C135 C129 1.428 1_556 S
C135 N134 1.351 . S
C135 C136 1.434 . S
C136 C127 1.429 1_556 S
C136 N133 1.350 . S
C136 C135 1.434 . S
C137 C138 1.369 . S
C137 C139 1.419 . S
C137 H141 0.930 . S
C138 C137 1.369 . S
C138 C147 1.429 . S
C139 C137 1.419 . S
C139 C140 1.363 . S
C139 H142 0.929 . S
C140 C139 1.363 . S
C140 C146 1.428 . S
H141 C137 0.930 . S
H142 C139 0.929 . S
S143 N144 1.613 . S
S143 N145 1.610 . S
N144 S143 1.613 . S
N144 C147 1.350 . S
N145 S143 1.610 . S
N145 C146 1.351 . S
C146 C140 1.428 . S
C146 N145 1.351 . S
C146 C147 1.434 . S
C147 C138 1.429 . S
C147 N144 1.350 . S
C147 C146 1.434 . S
C148 C149 1.369 . S
C148 C150 1.419 . S
C148 H152 0.930 . S
C149 C148 1.369 . S
C149 C158 1.429 1_455 S
C150 C148 1.419 . S
C150 C151 1.363 1_455 S
C150 H153 0.929 . S
C151 C150 1.363 1_655 S
C151 C157 1.428 . S
H152 C148 0.930 . S
H153 C150 0.929 . S
S154 N155 1.613 . S
S154 N156 1.610 . S
N155 S154 1.613 . S
N155 C158 1.350 . S
N156 S154 1.610 . S
N156 C157 1.351 . S
C157 C151 1.428 . S
C157 N156 1.351 . S
C157 C158 1.434 . S
C158 C149 1.429 1_655 S
C158 N155 1.350 . S
C158 C157 1.434 . S
C159 C160 1.369 1_655 S
C159 C161 1.419 . S
C159 H163 0.930 . S
C160 C159 1.369 1_455 S
C160 C169 1.429 . S
C161 C159 1.419 . S
C161 C162 1.363 . S
C161 H164 0.929 . S
C162 C161 1.363 . S
C162 C168 1.428 1_655 S
H163 C159 0.930 . S
H164 C161 0.929 . S
S165 N166 1.613 . S
S165 N167 1.610 . S
N166 S165 1.613 . S
N166 C169 1.350 . S
N167 S165 1.610 . S
N167 C168 1.351 . S
C168 C162 1.428 1_455 S
C168 N167 1.351 . S
C168 C169 1.434 . S
C169 C160 1.429 . S
C169 N166 1.350 . S
C169 C168 1.434 . S
C170 C171 1.369 1_655 S
C170 C172 1.419 . S
C170 H174 0.930 . S
C171 C170 1.369 1_455 S
C171 C180 1.429 . S
C172 C170 1.419 . S
C172 C173 1.363 . S
C172 H175 0.929 . S
C173 C172 1.363 . S
C173 C179 1.428 1_655 S
H174 C170 0.930 . S
H175 C172 0.929 . S
S176 N177 1.613 . S
S176 N178 1.610 . S
N177 S176 1.613 . S
N177 C180 1.350 . S
N178 S176 1.610 . S
N178 C179 1.351 . S
C179 C173 1.428 1_455 S
C179 N178 1.351 . S
C179 C180 1.434 . S
C180 C171 1.429 . S
C180 N177 1.350 . S
C180 C179 1.434 . S
C181 C182 1.369 . S
C181 C183 1.419 . S
C181 H185 0.930 . S
C182 C181 1.369 . S
C182 C191 1.429 1_455 S
C183 C181 1.419 . S
C183 C184 1.363 1_455 S
C183 H186 0.929 . S
C184 C183 1.363 1_655 S
C184 C190 1.428 . S
H185 C181 0.930 . S
H186 C183 0.929 . S
S187 N188 1.613 . S
S187 N189 1.610 . S
N188 S187 1.613 . S
N188 C191 1.350 . S
N189 S187 1.610 . S
N189 C190 1.351 . S
C190 C184 1.428 . S
C190 N189 1.351 . S
C190 C191 1.434 . S
C191 C182 1.429 1_655 S
C191 N188 1.350 . S
C191 C190 1.434 . S
C192 C193 1.369 . S
C192 C194 1.419 . S
C192 H196 0.930 . S
C193 C192 1.369 . S
C193 C202 1.429 . S
C194 C192 1.419 . S
C194 C195 1.363 . S
C194 H197 0.929 . S
C195 C194 1.363 . S
C195 C201 1.428 . S
H196 C192 0.930 . S
H197 C194 0.929 . S
S198 N199 1.613 . S
S198 N200 1.610 . S
N199 S198 1.613 . S
N199 C202 1.350 . S
N200 S198 1.610 . S
N200 C201 1.351 . S
C201 C195 1.428 . S
C201 N200 1.351 . S
C201 C202 1.434 . S
C202 C193 1.429 . S
C202 N199 1.350 . S
C202 C201 1.434 . S
C203 C204 1.369 . S
C203 C205 1.419 . S
C203 H207 0.930 . S
C204 C203 1.369 . S
C204 C213 1.429 . S
C205 C203 1.419 . S
C205 C206 1.363 . S
C205 H208 0.929 . S
C206 C205 1.363 . S
C206 C212 1.428 . S
H207 C203 0.930 . S
H208 C205 0.929 . S
S209 N210 1.613 . S
S209 N211 1.610 . S
N210 S209 1.613 . S
N210 C213 1.350 . S
N211 S209 1.610 . S
N211 C212 1.351 . S
C212 C206 1.428 . S
C212 N211 1.351 . S
C212 C213 1.434 . S
C213 C204 1.429 . S
C213 N210 1.350 . S
C213 C212 1.434 . S
C214 C215 1.369 . S
C214 C216 1.419 . S
C214 H218 0.930 . S
C215 C214 1.369 . S
C215 C224 1.429 . S
C216 C214 1.419 . S
C216 C217 1.363 . S
C216 H219 0.929 . S
C217 C216 1.363 . S
C217 C223 1.428 . S
H218 C214 0.930 . S
H219 C216 0.929 . S
S220 N221 1.613 . S
S220 N222 1.610 . S
N221 S220 1.613 . S
N221 C224 1.350 . S
N222 S220 1.610 . S
N222 C223 1.351 . S
C223 C217 1.428 . S
C223 N222 1.351 . S
C223 C224 1.434 . S
C224 C215 1.429 . S
C224 N221 1.350 . S
C224 C223 1.434 . S
C225 C226 1.369 . S
C225 C227 1.419 . S
C225 H229 0.930 . S
C226 C225 1.369 . S
C226 C235 1.429 . S
C227 C225 1.419 . S
C227 C228 1.363 . S
C227 H230 0.929 . S
C228 C227 1.363 . S
C228 C234 1.428 . S
H229 C225 0.930 . S
H230 C227 0.929 . S
S231 N232 1.613 . S
S231 N233 1.610 . S
N232 S231 1.613 . S
N232 C235 1.350 . S
N233 S231 1.610 . S
N233 C234 1.351 . S
C234 C228 1.428 . S
C234 N233 1.351 . S
C234 C235 1.434 . S
C235 C226 1.429 . S
C235 N232 1.350 . S
C235 C234 1.434 . S
C236 C237 1.363 1_556 S
C236 C238 1.419 . S
C236 H240 0.930 . S
C237 C236 1.363 1_554 S
C237 C246 1.435 . S
C238 C236 1.419 . S
C238 C239 1.360 1_556 S
C238 H241 0.929 . S
C239 C238 1.360 1_554 S
C239 C245 1.432 . S
H240 C236 0.930 . S
H241 C238 0.929 . S
S242 N243 1.613 . S
S242 N244 1.610 . S
N243 S242 1.613 . S
N243 C246 1.350 . S
N244 S242 1.610 . S
N244 C245 1.351 . S
C245 C239 1.432 . S
C245 N244 1.351 . S
C245 C246 1.434 . S
C246 C237 1.435 . S
C246 N243 1.350 . S
C246 C245 1.434 . S
C247 C248 1.367 1_554 S
C247 C249 1.419 . S
C247 H251 0.930 . S
C248 C247 1.367 1_556 S
C248 C257 1.431 . S
C249 C247 1.419 . S
C249 C250 1.360 1_554 S
C249 H252 0.929 . S
C250 C249 1.360 1_556 S
C250 C256 1.431 . S
H251 C247 0.930 . S
H252 C249 0.929 . S
S253 N254 1.613 . S
S253 N255 1.610 . S
N254 S253 1.613 . S
N254 C257 1.350 . S
N255 S253 1.610 . S
N255 C256 1.351 . S
C256 C250 1.431 . S
C256 N255 1.351 . S
C256 C257 1.434 . S
C257 C248 1.431 . S
C257 N254 1.350 . S
C257 C256 1.434 . S
C258 C259 1.369 . S
C258 C260 1.419 . S
C258 H262 0.930 . S
C259 C258 1.369 . S
C259 C268 1.429 . S
C260 C258 1.419 . S
C260 C261 1.363 . S
C260 H263 0.929 . S
C261 C260 1.363 . S
C261 C267 1.428 . S
H262 C258 0.930 . S
H263 C260 0.929 . S
S264 N265 1.613 . S
S264 N266 1.610 . S
N265 S264 1.613 . S
N265 C268 1.350 . S
N266 S264 1.610 . S
N266 C267 1.351 . S
C267 C261 1.428 . S
C267 N266 1.351 . S
C267 C268 1.434 . S
C268 C259 1.429 . S
C268 N265 1.350 . S
C268 C267 1.434 . S
C269 C270 1.369 . S
C269 C271 1.419 . S
C269 H273 0.930 . S
C270 C269 1.369 . S
C270 C279 1.429 . S
C271 C269 1.419 . S
C271 C272 1.363 . S
C271 H274 0.929 . S
C272 C271 1.363 . S
C272 C278 1.428 . S
H273 C269 0.930 . S
H274 C271 0.929 . S
S275 N276 1.613 . S
S275 N277 1.610 . S
N276 S275 1.613 . S
N276 C279 1.350 . S
N277 S275 1.610 . S
N277 C278 1.351 . S
C278 C272 1.428 . S
C278 N277 1.351 . S
C278 C279 1.434 . S
C279 C270 1.429 . S
C279 N276 1.350 . S
C279 C278 1.434 . S
C105 C18 1.466 . S
C107 C5 1.474 . S
C116 C31 1.472 . S
C118 C44 1.472 . S
C127 C57 1.467 . S
C129 C70 1.475 . S
C138 C83 1.469 . S
C140 C96 1.474 . S
C149 C10 1.378 . S
C151 C49 1.374 . S
C160 C36 1.374 . S
C162 C23 1.374 . S
C171 C34 1.267 . S
C173 C21 1.268 . S
C182 C8 1.259 . S
C184 C47 1.260 . S
C193 C62 1.373 . S
C195 C101 1.375 . S
C204 C88 1.374 . S
C206 C75 1.378 . S
C215 C73 1.259 . S
C217 C86 1.260 . S
C226 C60 1.268 . S
C228 C99 1.269 . S
C237 C65 1.524 . S
C239 C0 1.524 . S
C248 C52 1.525 1_556 S
C250 C13 1.525 1_556 S
C259 C26 1.529 . S
C261 C91 1.528 . S
C270 C78 1.529 . S
C272 C39 1.528 . S
