# Generated by pormake.
# Topology lcy-e, (6)-cn, num edge types: 1
# Building blocks:
#     Node 0, Type 0, BuildingBlock: BETFAJ_clean_sbu_0, # of connection points: 6
#     Node 1, Type 0, BuildingBlock: BETFAJ_clean_sbu_0, # of connection points: 6
#     Node 2, Type 0, BuildingBlock: BETFAJ_clean_sbu_0, # of connection points: 6
#     Node 3, Type 0, BuildingBlock: BETFAJ_clean_sbu_0, # of connection points: 6
#     Node 4, Type 0, BuildingBlock: BETFAJ_clean_sbu_0, # of connection points: 6
#     Node 5, Type 0, BuildingBlock: BETFAJ_clean_sbu_0, # of connection points: 6
#     Node 6, Type 0, BuildingBlock: BETFAJ_clean_sbu_0, # of connection points: 6
#     Node 7, Type 0, BuildingBlock: BETFAJ_clean_sbu_0, # of connection points: 6
#     Node 8, Type 0, BuildingBlock: BETFAJ_clean_sbu_0, # of connection points: 6
#     Node 9, Type 0, BuildingBlock: BETFAJ_clean_sbu_0, # of connection points: 6
#     Node 10, Type 0, BuildingBlock: BETFAJ_clean_sbu_0, # of connection points: 6
#     Node 11, Type 0, BuildingBlock: BETFAJ_clean_sbu_0, # of connection points: 6
#     Edge 12, Type (0, 0), BuildingBlock: CIFDUS_clean_linker_0, # of connection points: 2
#     Edge 13, Type (0, 0), BuildingBlock: CIFDUS_clean_linker_0, # of connection points: 2
#     Edge 14, Type (0, 0), BuildingBlock: CIFDUS_clean_linker_0, # of connection points: 2
#     Edge 15, Type (0, 0), BuildingBlock: CIFDUS_clean_linker_0, # of connection points: 2
#     Edge 16, Type (0, 0), BuildingBlock: CIFDUS_clean_linker_0, # of connection points: 2
#     Edge 17, Type (0, 0), BuildingBlock: CIFDUS_clean_linker_0, # of connection points: 2
#     Edge 18, Type (0, 0), BuildingBlock: CIFDUS_clean_linker_0, # of connection points: 2
#     Edge 19, Type (0, 0), BuildingBlock: CIFDUS_clean_linker_0, # of connection points: 2
#     Edge 20, Type (0, 0), BuildingBlock: CIFDUS_clean_linker_0, # of connection points: 2
#     Edge 21, Type (0, 0), BuildingBlock: CIFDUS_clean_linker_0, # of connection points: 2
#     Edge 22, Type (0, 0), BuildingBlock: CIFDUS_clean_linker_0, # of connection points: 2
#     Edge 23, Type (0, 0), BuildingBlock: CIFDUS_clean_linker_0, # of connection points: 2
#     Edge 24, Type (0, 0), BuildingBlock: CIFDUS_clean_linker_0, # of connection points: 2
#     Edge 25, Type (0, 0), BuildingBlock: CIFDUS_clean_linker_0, # of connection points: 2
#     Edge 26, Type (0, 0), BuildingBlock: CIFDUS_clean_linker_0, # of connection points: 2
#     Edge 27, Type (0, 0), BuildingBlock: CIFDUS_clean_linker_0, # of connection points: 2
#     Edge 28, Type (0, 0), BuildingBlock: CIFDUS_clean_linker_0, # of connection points: 2
#     Edge 29, Type (0, 0), BuildingBlock: CIFDUS_clean_linker_0, # of connection points: 2
#     Edge 30, Type (0, 0), BuildingBlock: CIFDUS_clean_linker_0, # of connection points: 2
#     Edge 31, Type (0, 0), BuildingBlock: CIFDUS_clean_linker_0, # of connection points: 2
#     Edge 32, Type (0, 0), BuildingBlock: CIFDUS_clean_linker_0, # of connection points: 2
#     Edge 33, Type (0, 0), BuildingBlock: CIFDUS_clean_linker_0, # of connection points: 2
#     Edge 34, Type (0, 0), BuildingBlock: CIFDUS_clean_linker_0, # of connection points: 2
#     Edge 35, Type (0, 0), BuildingBlock: CIFDUS_clean_linker_0, # of connection points: 2
#     Edge 36, Type (0, 0), BuildingBlock: CIFDUS_clean_linker_0, # of connection points: 2
#     Edge 37, Type (0, 0), BuildingBlock: CIFDUS_clean_linker_0, # of connection points: 2
#     Edge 38, Type (0, 0), BuildingBlock: CIFDUS_clean_linker_0, # of connection points: 2
#     Edge 39, Type (0, 0), BuildingBlock: CIFDUS_clean_linker_0, # of connection points: 2
#     Edge 40, Type (0, 0), BuildingBlock: CIFDUS_clean_linker_0, # of connection points: 2
#     Edge 41, Type (0, 0), BuildingBlock: CIFDUS_clean_linker_0, # of connection points: 2
#     Edge 42, Type (0, 0), BuildingBlock: CIFDUS_clean_linker_0, # of connection points: 2
#     Edge 43, Type (0, 0), BuildingBlock: CIFDUS_clean_linker_0, # of connection points: 2
#     Edge 44, Type (0, 0), BuildingBlock: CIFDUS_clean_linker_0, # of connection points: 2
#     Edge 45, Type (0, 0), BuildingBlock: CIFDUS_clean_linker_0, # of connection points: 2
#     Edge 46, Type (0, 0), BuildingBlock: CIFDUS_clean_linker_0, # of connection points: 2
#     Edge 47, Type (0, 0), BuildingBlock: CIFDUS_clean_linker_0, # of connection points: 2
# Relax obj value: 0.202
# Max RMSD: 0.315
# Mean RMSD: 0.292
data_MOF--net-lcy-e--node1-BETFAJ_clean_sbu_0--edge1-CIFDUS_clean_linker_0
_symmetry_space_group_name_H-M    P1
_symmetry_Int_Tables_number       1
_symmetry_cell_setting            triclinic
loop_
_symmetry_equiv_pos_as_xyz
'x, y, z'
_cell_length_a     40.830201
_cell_length_b     37.788659
_cell_length_c     40.755192
_cell_angle_alpha  89.384739
_cell_angle_beta   90.908436
_cell_angle_gamma 88.608415
loop_
_atom_site_label
_atom_site_type_symbol
_atom_site_fract_x
_atom_site_fract_y
_atom_site_fract_z
_atom_type_partial_charge
Sm0 Sm 0.1486 0.27139 0.48545 0.0
Sm1 Sm 0.16484 0.20817 0.52664 0.0
C2 C 0.13607 0.33252 0.45465 0.0
C3 C 0.14488 0.34764 0.42273 0.0
C4 C 0.16605 0.32914 0.40173 0.0
C5 C 0.17621 0.34493 0.37246 0.0
C6 C 0.16545 0.37947 0.36399 0.0
C7 C 0.14316 0.3972 0.38451 0.0
C8 C 0.133 0.3814 0.41364 0.0
C9 C 0.11204 0.21333 0.47039 0.0
C10 C 0.20302 0.21707 0.45665 0.0
C11 C 0.17165 0.14386 0.55264 0.0
C12 C 0.15239 0.12105 0.57423 0.0
C13 C 0.14874 0.08528 0.56642 0.0
C14 C 0.1308 0.0631 0.58671 0.0
C15 C 0.11638 0.07631 0.61532 0.0
C16 C 0.11949 0.11236 0.62272 0.0
C17 C 0.13717 0.13458 0.60227 0.0
C18 C 0.20266 0.26677 0.53948 0.0
C19 C 0.1193 0.26372 0.56064 0.0
O20 O 0.16019 0.3276 0.47575 0.0
O21 O 0.11622 0.30598 0.45383 0.0
O22 O 0.11785 0.22385 0.49923 0.0
O23 O 0.12657 0.23268 0.44889 0.0
O24 O 0.19309 0.25064 0.45603 0.0
O25 O 0.19212 0.19495 0.479 0.0
O26 O 0.15928 0.14995 0.52328 0.0
O27 O 0.18449 0.17189 0.56576 0.0
O28 O 0.19474 0.25525 0.51179 0.0
O29 O 0.19207 0.24583 0.56223 0.0
O30 O 0.12276 0.22947 0.55648 0.0
O31 O 0.12992 0.28613 0.53811 0.0
H32 H 0.17537 0.30292 0.40839 0.0
H33 H 0.19355 0.3308 0.35726 0.0
H34 H 0.1342 0.42371 0.37838 0.0
H35 H 0.11646 0.39591 0.42944 0.0
H36 H 0.16008 0.0744 0.54475 0.0
H37 H 0.12908 0.03538 0.58057 0.0
H38 H 0.10837 0.12332 0.64445 0.0
H39 H 0.13913 0.16224 0.60857 0.0
Sm40 Sm 0.98838 0.85424 0.74066 0.0
Sm41 Sm 0.04473 0.87905 0.78455 0.0
C42 C 0.93535 0.84825 0.70305 0.0
C43 C 0.91969 0.86673 0.67479 0.0
C44 C 0.88583 0.8643 0.66994 0.0
C45 C 0.87012 0.88248 0.64393 0.0
C46 C 0.88801 0.90354 0.62225 0.0
C47 C 0.92211 0.90564 0.62697 0.0
C48 C 0.93783 0.88748 0.65316 0.0
C49 C 0.0436 0.81218 0.73818 0.0
C50 C 0.03335 0.92224 0.71713 0.0
C51 C 0.0995 0.88497 0.81976 0.0
C52 C 0.12346 0.86512 0.84096 0.0
C53 C 0.15681 0.86566 0.83309 0.0
C54 C 0.18058 0.85029 0.85424 0.0
C55 C 0.1715 0.83421 0.88388 0.0
C56 C 0.13793 0.83237 0.89105 0.0
C57 C 0.11413 0.84764 0.8698 0.0
C58 C 0.98558 0.91581 0.79084 0.0
C59 C 0.99896 0.81567 0.81131 0.0
O60 O 0.93553 0.86558 0.73065 0.0
O61 O 0.96296 0.83113 0.69771 0.0
O62 O 0.04353 0.84574 0.73856 0.0
O63 O 1.01405 0.80024 0.73771 0.0
O64 O 1.00624 0.90422 0.71277 0.0
O65 O 0.05383 0.9156 0.74171 0.0
O66 O 0.09906 0.87722 0.78857 0.0
O67 O 0.07033 0.89211 0.83126 0.0
O68 O 0.98985 0.88312 0.78785 0.0
O69 O 1.01377 0.93111 0.79265 0.0
O70 O 0.02863 0.8288 0.81149 0.0
O71 O 0.97691 0.82419 0.78826 0.0
H72 H 0.87147 0.84843 0.6864 0.0
H73 H 0.84392 0.87985 0.64067 0.0
H74 H 0.9365 0.92183 0.61082 0.0
H75 H 0.96403 0.88983 0.65666 0.0
H76 H 0.16462 0.87905 0.81102 0.0
H77 H 0.20616 0.85257 0.84812 0.0
H78 H 0.1301 0.81979 0.91351 0.0
H79 H 0.08857 0.84654 0.87639 0.0
Sm80 Sm 0.37975 0.7808 0.041 0.0
Sm81 Sm 0.3956 0.72797 0.98089 0.0
C82 C 0.38241 0.81543 0.09684 0.0
C83 C 0.40548 0.83766 0.11527 0.0
C84 C 0.41029 0.83201 0.14906 0.0
C85 C 0.42785 0.85615 0.1678 0.0
C86 C 0.44068 0.8867 0.15314 0.0
C87 C 0.43759 0.891 0.11889 0.0
C88 C 0.42032 0.86667 0.10015 0.0
C89 C 0.33014 0.78574 0.99371 0.0
C90 C 0.43453 0.80419 0.98601 0.0
C91 C 0.40135 0.70048 0.92153 0.0
C92 C 0.38586 0.67972 0.89497 0.0
C93 C 0.38346 0.64277 0.89752 0.0
C94 C 0.3742 0.62295 0.87023 0.0
C95 C 0.3672 0.63952 0.8397 0.0
C96 C 0.36762 0.67663 0.83767 0.0
C97 C 0.37702 0.69649 0.86498 0.0
C98 C 0.43216 0.71933 0.03836 0.0
C99 C 0.34695 0.70106 0.03626 0.0
O100 O 0.38906 0.78134 0.09517 0.0
O101 O 0.37026 0.82909 0.06943 0.0
O102 O 0.35576 0.76663 0.99318 0.0
O103 O 0.33018 0.80371 0.0206 0.0
O104 O 0.41974 0.8119 1.01391 0.0
O105 O 0.42855 0.77499 0.96951 0.0
O106 O 0.38976 0.73253 0.92669 0.0
O107 O 0.41155 0.68405 0.94848 0.0
O108 O 0.4227 0.74801 0.02505 0.0
O109 O 0.42442 0.69293 0.01963 0.0
O110 O 0.35259 0.70056 1.00438 0.0
O111 O 0.35804 0.72645 0.0557 0.0
H112 H 0.39937 0.80964 0.16121 0.0
H113 H 0.43045 0.85146 0.19398 0.0
H114 H 0.44691 0.91417 0.10668 0.0
H115 H 0.41735 0.87153 0.07401 0.0
H116 H 0.39003 0.62895 0.92018 0.0
H117 H 0.3737 0.59439 0.87268 0.0
H118 H 0.36261 0.69014 0.8145 0.0
H119 H 0.37888 0.72491 0.86217 0.0
Sm120 Sm 0.55934 0.13282 0.24417 0.0
Sm121 Sm 0.50754 0.11279 0.2945 0.0
C122 C 0.60953 0.13084 0.20357 0.0
C123 C 0.61812 0.1131 0.17223 0.0
C124 C 0.64119 0.08484 0.17232 0.0
C125 C 0.65 0.06823 0.14304 0.0
C126 C 0.63617 0.07958 0.11274 0.0
C127 C 0.613 0.10782 0.11266 0.0
C128 C 0.60409 0.12434 0.14198 0.0
C129 C 0.50178 0.16971 0.23545 0.0
C130 C 0.51652 0.05902 0.23465 0.0
C131 C 0.45659 0.10961 0.33421 0.0
C132 C 0.42874 0.13045 0.34726 0.0
C133 C 0.41649 0.16141 0.33149 0.0
C134 C 0.38797 0.17858 0.34281 0.0
C135 C 0.37111 0.16487 0.36986 0.0
C136 C 0.38415 0.13442 0.38597 0.0
C137 C 0.4126 0.11746 0.37479 0.0
C138 C 0.571 0.08609 0.30699 0.0
C139 C 0.54761 0.18353 0.30662 0.0
O140 O 0.60789 0.11055 0.22975 0.0
O141 O 0.58667 0.1558 0.20256 0.0
O142 O 0.50357 0.13694 0.24306 0.0
O143 O 0.53038 0.18248 0.22956 0.0
O144 O 0.54088 0.07889 0.22497 0.0
O145 O 0.49864 0.06734 0.26006 0.0
O146 O 0.45524 0.10209 0.303 0.0
O147 O 0.48614 0.11696 0.34449 0.0
O148 O 0.5624 0.11603 0.29651 0.0
O149 O 0.54498 0.06834 0.31366 0.0
O150 O 0.5178 0.17089 0.30558 0.0
O151 O 0.57087 0.17022 0.28753 0.0
H152 H 0.6527 0.07571 0.19511 0.0
H153 H 0.66828 0.04698 0.14409 0.0
H154 H 0.60159 0.11709 0.08989 0.0
H155 H 0.58625 0.14602 0.14086 0.0
H156 H 0.42853 0.17181 0.31006 0.0
H157 H 0.37857 0.20192 0.3298 0.0
H158 H 0.37222 0.12351 0.40722 0.0
H159 H 0.42163 0.09363 0.38729 0.0
Sm160 Sm 0.6368 0.2366 0.55344 0.0
Sm161 Sm 0.65437 0.30029 0.5101 0.0
C162 C 0.63081 0.17598 0.58573 0.0
C163 C 0.64577 0.16075 0.61656 0.0
C164 C 0.67974 0.15349 0.6189 0.0
C165 C 0.69366 0.13736 0.647 0.0
C166 C 0.67418 0.12819 0.67376 0.0
C167 C 0.64042 0.1366 0.6721 0.0
C168 C 0.62633 0.15255 0.6437 0.0
C169 C 0.61028 0.30079 0.57355 0.0
C170 C 0.69896 0.28355 0.57328 0.0
C171 C 0.6593 0.36042 0.47663 0.0
C172 C 0.6408 0.38829 0.45816 0.0
C173 C 0.60883 0.39889 0.46656 0.0
C174 C 0.5929 0.42717 0.44981 0.0
C175 C 0.60874 0.44536 0.42446 0.0
C176 C 0.64052 0.43405 0.41584 0.0
C177 C 0.65634 0.40588 0.43253 0.0
C178 C 0.68871 0.23728 0.49865 0.0
C179 C 0.59502 0.25165 0.48415 0.0
O180 O 0.65067 0.18019 0.56115 0.0
O181 O 0.60951 0.2023 0.58829 0.0
O182 O 0.61234 0.29055 0.54433 0.0
O183 O 0.62321 0.27696 0.59326 0.0
O184 O 0.68894 0.25072 0.57091 0.0
O185 O 0.6837 0.30948 0.55711 0.0
O186 O 0.65518 0.35885 0.50843 0.0
O187 O 0.66237 0.32927 0.46311 0.0
O188 O 0.65906 0.24166 0.5044 0.0
O189 O 0.70246 0.26792 0.49737 0.0
O190 O 0.60887 0.28278 0.48228 0.0
O191 O 0.60146 0.22884 0.50869 0.0
H192 H 0.6957 0.15969 0.59877 0.0
H193 H 0.71977 0.13151 0.6476 0.0
H194 H 0.62473 0.1296 0.69223 0.0
H195 H 0.60014 0.15786 0.64271 0.0
H196 H 0.59638 0.38567 0.48632 0.0
H197 H 0.56849 0.43524 0.45713 0.0
H198 H 0.65318 0.44687 0.396 0.0
H199 H 0.68098 0.39807 0.42565 0.0
Sm200 Sm 0.99328 0.38538 0.72905 0.0
Sm201 Sm 0.03898 0.36492 0.79305 0.0
C202 C 0.96472 0.38246 0.6706 0.0
C203 C 0.93088 0.37775 0.65878 0.0
C204 C 0.92499 0.35342 0.63378 0.0
C205 C 0.89295 0.34519 0.62475 0.0
C206 C 0.8662 0.36136 0.64046 0.0
C207 C 0.87212 0.38636 0.66503 0.0
C208 C 0.90422 0.39429 0.67432 0.0
C209 C 0.97367 0.42451 0.78242 0.0
C210 C 0.9716 0.31992 0.77776 0.0
C211 C 0.05912 0.35435 0.85446 0.0
C212 C 0.08116 0.36694 0.8805 0.0
C213 C 0.08784 0.40301 0.88413 0.0
C214 C 0.10694 0.41427 0.91075 0.0
C215 C 0.11969 0.38961 0.93404 0.0
C216 C 0.11304 0.35354 0.93 0.0
C217 C 0.09401 0.34237 0.90351 0.0
C218 C 0.05887 0.33883 0.73345 0.0
C219 C 0.06371 0.42581 0.74512 0.0
O220 O 0.97788 0.35476 0.6857 0.0
O221 O 0.97153 0.41245 0.68487 0.0
O222 O 0.997 0.40213 0.78123 0.0
O223 O 0.95878 0.42619 0.75402 0.0
O224 O 0.96296 0.34137 0.75298 0.0
O225 O 0.99919 0.32306 0.79485 0.0
O226 O 0.03417 0.37514 0.84603 0.0
O227 O 0.07229 0.33773 0.82966 0.0
O228 O 0.02986 0.343 0.74307 0.0
O229 O 0.0795 0.34484 0.75743 0.0
O230 O 0.06299 0.4153 0.77614 0.0
O231 O 0.04198 0.41579 0.72249 0.0
H232 H 0.94525 0.34012 0.62175 0.0
H233 H 0.88907 0.32617 0.60546 0.0
H234 H 0.85194 0.39904 0.67766 0.0
H235 H 0.90815 0.41268 0.69412 0.0
H236 H 0.07804 0.42245 0.86663 0.0
H237 H 0.11189 0.44217 0.91299 0.0
H238 H 0.12201 0.33391 0.94771 0.0
H239 H 0.08881 0.3145 0.90132 0.0
Sm240 Sm 0.893 0.76858 0.05228 0.0
Sm241 Sm 0.87686 0.7078 1.00742 0.0
C242 C 0.89251 0.82629 0.08878 0.0
C243 C 0.88537 0.83807 0.12217 0.0
C244 C 0.89181 0.87304 0.13055 0.0
C245 C 0.88567 0.88507 0.16216 0.0
C246 C 0.873 0.86229 0.18611 0.0
C247 C 0.86613 0.82723 0.17748 0.0
C248 C 0.87236 0.81516 0.1457 0.0
C249 C 0.93625 0.71277 0.05911 0.0
C250 C 0.83434 0.71263 0.07292 0.0
C251 C 0.87622 0.65112 0.96929 0.0
C252 C 0.89597 0.62633 0.9492 0.0
C253 C 0.92429 0.60857 0.96167 0.0
C254 C 0.94005 0.58211 0.94329 0.0
C255 C 0.92766 0.57274 0.9122 0.0
C256 C 0.90005 0.59158 0.89944 0.0
C257 C 0.88441 0.61792 0.91773 0.0
C258 C 0.83934 0.76975 0.99732 0.0
C259 C 0.93303 0.76092 0.98539 0.0
O260 O 0.86752 0.81676 0.07076 0.0
O261 O 0.9184 0.8057 0.0854 0.0
O262 O 0.90548 0.70941 0.0559 0.0
O263 O 0.94425 0.74564 0.06112 0.0
O264 O 0.84937 0.74261 0.079 0.0
O265 O 0.8421 0.69283 0.04775 0.0
O266 O 0.88014 0.64959 1.0012 0.0
O267 O 0.87077 0.68333 0.95811 0.0
O268 O 0.86955 0.76731 1.00283 0.0
O269 O 0.82745 0.73826 0.99492 0.0
O270 O 0.92534 0.72734 0.9873 0.0
O271 O 0.91935 0.78464 1.0049 0.0
H272 H 0.90163 0.89111 0.1126 0.0
H273 H 0.89061 0.9124 0.16776 0.0
H274 H 0.85649 0.80903 0.19539 0.0
H275 H 0.86722 0.78802 0.13954 0.0
H276 H 0.93378 0.61447 0.98592 0.0
H277 H 0.96122 0.56817 0.95389 0.0
H278 H 0.89022 0.5857 0.87532 0.0
H279 H 0.86263 0.63116 0.90756 0.0
Sm280 Sm 0.54124 0.62187 0.24085 0.0
Sm281 Sm 0.48958 0.64605 0.28998 0.0
C282 C 0.57935 0.60563 0.19116 0.0
C283 C 0.61262 0.61484 0.18041 0.0
C284 C 0.62224 0.65032 0.17852 0.0
C285 C 0.6527 0.65892 0.16575 0.0
C286 C 0.67447 0.63227 0.15483 0.0
C287 C 0.66527 0.59668 0.15812 0.0
C288 C 0.63465 0.58812 0.17059 0.0
C289 C 0.55756 0.60617 0.30567 0.0
C290 C 0.55077 0.69628 0.27823 0.0
C291 C 0.4486 0.65365 0.3394 0.0
C292 C 0.43288 0.63294 0.3658 0.0
C293 C 0.45124 0.61686 0.39172 0.0
C294 C 0.4355 0.60122 0.41842 0.0
C295 C 0.40109 0.60146 0.41983 0.0
C296 C 0.38291 0.61597 0.39305 0.0
C297 C 0.39859 0.63161 0.36649 0.0
C298 C 0.48061 0.67109 0.2255 0.0
C299 C 0.4768 0.57276 0.25325 0.0
O300 O 0.55721 0.63136 0.1901 0.0
O301 O 0.57714 0.58508 0.21716 0.0
O302 O 0.52963 0.60331 0.29253 0.0
O303 O 0.57788 0.61812 0.28436 0.0
O304 O 0.55417 0.68043 0.24966 0.0
O305 O 0.53114 0.6837 0.30062 0.0
O306 O 0.48019 0.6586 0.34204 0.0
O307 O 0.43871 0.64866 0.30909 0.0
O308 O 0.48966 0.64105 0.23529 0.0
O309 O 0.47401 0.69043 0.25087 0.0
O310 O 0.47337 0.58975 0.28105 0.0
O311 O 0.50019 0.58088 0.23239 0.0
H312 H 0.60592 0.67159 0.18616 0.0
H313 H 0.65861 0.6866 0.16337 0.0
H314 H 0.68158 0.57533 0.15067 0.0
H315 H 0.62794 0.56058 0.17203 0.0
H316 H 0.47776 0.61731 0.39195 0.0
H317 H 0.45027 0.59044 0.43862 0.0
H318 H 0.35638 0.61604 0.39297 0.0
H319 H 0.38379 0.64366 0.34689 0.0
Sm320 Sm 0.23238 0.52122 0.15266 0.0
Sm321 Sm 0.27279 0.4553 0.13745 0.0
C322 C 0.19382 0.57864 0.15198 0.0
C323 C 0.16297 0.59021 0.13505 0.0
C324 C 0.15975 0.58998 0.10065 0.0
C325 C 0.13048 0.60166 0.08526 0.0
C326 C 0.10371 0.61344 0.10392 0.0
C327 C 0.10668 0.61263 0.13833 0.0
C328 C 0.13604 0.60129 0.1537 0.0
C329 C 0.22749 0.46941 0.19923 0.0
C330 C 0.20778 0.46695 0.09381 0.0
C331 C 0.30486 0.39331 0.13671 0.0
C332 C 0.32616 0.36859 0.15586 0.0
C333 C 0.33004 0.33369 0.14503 0.0
C334 C 0.35137 0.30987 0.16157 0.0
C335 C 0.36928 0.32054 0.18935 0.0
C336 C 0.36439 0.35534 0.20082 0.0
C337 C 0.34301 0.37919 0.18418 0.0
C338 C 0.2829 0.51379 0.09726 0.0
C339 C 0.30293 0.51125 0.18967 0.0
O340 O 0.22029 0.5757 0.13434 0.0
O341 O 0.19135 0.55298 0.17348 0.0
O342 O 0.2272 0.4634 0.16853 0.0
O343 O 0.22951 0.50289 0.20521 0.0
O344 O 0.20532 0.49864 0.10705 0.0
O345 O 0.22991 0.44346 0.10402 0.0
O346 O 0.2746 0.39716 0.14629 0.0
O347 O 0.31747 0.42296 0.1267 0.0
O348 O 0.27961 0.51327 0.12764 0.0
O349 O 0.28257 0.48166 0.08612 0.0
O350 O 0.30161 0.47764 0.18124 0.0
O351 O 0.28094 0.53521 0.17873 0.0
H352 H 0.17989 0.58109 0.08558 0.0
H353 H 0.12885 0.60179 0.0587 0.0
H354 H 0.08667 0.62198 0.15336 0.0
H355 H 0.13786 0.60154 0.18025 0.0
H356 H 0.3171 0.32505 0.12323 0.0
H357 H 0.35482 0.28356 0.15174 0.0
H358 H 0.3775 0.36431 0.22236 0.0
H359 H 0.34006 0.40598 0.19307 0.0
Sm360 Sm 0.73379 0.96897 0.88188 0.0
Sm361 Sm 0.77928 0.02587 0.90016 0.0
C362 C 0.69047 0.91794 0.87542 0.0
C363 C 0.66038 0.90462 0.89034 0.0
C364 C 0.65443 0.86831 0.88923 0.0
C365 C 0.62473 0.85519 0.90006 0.0
C366 C 0.60018 0.87814 0.91216 0.0
C367 C 0.60675 0.91443 0.9146 0.0
C368 C 0.63661 0.92757 0.90373 0.0
C369 C 0.73335 0.02351 0.8367 0.0
C370 C 0.7135 0.02492 0.94077 0.0
C371 C 0.819 0.08044 0.90437 0.0
C372 C 0.84085 0.10395 0.88625 0.0
C373 C 0.83436 0.11462 0.85359 0.0
C374 C 0.85439 0.13928 0.83817 0.0
C375 C 0.88126 0.15355 0.85513 0.0
C376 C 0.88767 0.14236 0.88772 0.0
C377 C 0.86774 0.11785 0.90301 0.0
C378 C 0.78409 0.96567 0.94066 0.0
C379 C 0.80466 0.96915 0.84723 0.0
O380 O 0.71786 0.91388 0.89213 0.0
O381 O 0.68807 0.94839 0.86004 0.0
O382 O 0.7332 0.02773 0.8676 0.0
O383 O 0.73433 0.99024 0.82942 0.0
O384 O 0.71028 0.99253 0.92929 0.0
O385 O 0.73619 0.04567 0.92972 0.0
O386 O 0.78759 0.0836 0.89812 0.0
O387 O 0.82883 0.04769 0.90972 0.0
O388 O 0.78088 0.96641 0.91003 0.0
O389 O 0.78713 0.99775 0.95124 0.0
O390 O 0.80364 1.0031 0.85432 0.0
O391 O 0.78188 0.94788 0.85846 0.0
H392 H 0.6725 0.85013 0.87919 0.0
H393 H 0.6208 0.82701 0.89849 0.0
H394 H 0.58839 0.93282 0.92373 0.0
H395 H 0.64074 0.95574 0.90497 0.0
H396 H 0.81364 0.10425 0.84018 0.0
H397 H 0.84893 0.14705 0.81298 0.0
H398 H 0.90772 0.15318 0.9018 0.0
H399 H 0.87297 0.11027 0.92832 0.0
Sm400 Sm 0.75508 0.97382 0.40776 0.0
Sm401 Sm 0.81409 0.01856 0.39217 0.0
C402 C 0.7022 0.93471 0.41034 0.0
C403 C 0.68336 0.90756 0.39301 0.0
C404 C 0.67808 0.90821 0.35881 0.0
C405 C 0.65885 0.88238 0.34381 0.0
C406 C 0.64454 0.85571 0.36283 0.0
C407 C 0.65081 0.85479 0.39688 0.0
C408 C 0.6699 0.88041 0.41173 0.0
C409 C 0.80147 0.97391 0.45744 0.0
C410 C 0.80673 0.94476 0.35186 0.0
C411 C 0.87334 0.04516 0.38468 0.0
C412 C 0.89997 0.0639 0.40178 0.0
C413 C 0.89388 0.09274 0.42251 0.0
C414 C 0.92005 0.11068 0.43705 0.0
C415 C 0.95278 0.10016 0.43109 0.0
C416 C 0.95855 0.07072 0.41093 0.0
C417 C 0.93249 0.05291 0.39646 0.0
C418 C 0.75678 0.03357 0.35606 0.0
C419 C 0.76259 0.05152 0.44041 0.0
O420 O 0.70181 0.96707 0.39827 0.0
O421 O 0.73068 0.92457 0.42283 0.0
O422 O 0.80776 0.97199 0.42722 0.0
O423 O 0.77016 0.97534 0.462 0.0
O424 O 0.78061 0.93794 0.36949 0.0
O425 O 0.82282 0.97439 0.3552 0.0
O426 O 0.86844 0.01253 0.39391 0.0
O427 O 0.84613 0.06271 0.37742 0.0
O428 O 0.76906 1.00383 0.36325 0.0
O429 O 0.77562 0.05806 0.36733 0.0
O430 O 0.79432 0.04569 0.43754 0.0
O431 O 0.7412 0.0306 0.4258 0.0
H432 H 0.68846 0.92879 0.34381 0.0
H433 H 0.65445 0.88384 0.31755 0.0
H434 H 0.64077 0.83424 0.41219 0.0
H435 H 0.67389 0.87921 0.43808 0.0
H436 H 0.86899 0.10168 0.42715 0.0
H437 H 0.91465 0.13335 0.45224 0.0
H438 H 0.9833 0.06139 0.40623 0.0
H439 H 0.93779 0.03061 0.38074 0.0
Sm440 Sm 0.30742 0.46748 0.64776 0.0
Sm441 Sm 0.25727 0.52847 0.62482 0.0
C442 C 0.34061 0.40676 0.65121 0.0
C443 C 0.37545 0.39673 0.64829 0.0
C444 C 0.39754 0.42058 0.63483 0.0
C445 C 0.43046 0.41058 0.63103 0.0
C446 C 0.4419 0.37662 0.64083 0.0
C447 C 0.4197 0.35307 0.65484 0.0
C448 C 0.38675 0.36305 0.65849 0.0
C449 C 0.32463 0.5285 0.67956 0.0
C450 C 0.32289 0.51832 0.58243 0.0
C451 C 0.21721 0.58434 0.61834 0.0
C452 C 0.19954 0.60995 0.6389 0.0
C453 C 0.19141 0.6436 0.62603 0.0
C454 C 0.17341 0.66793 0.64454 0.0
C455 C 0.16316 0.65896 0.67628 0.0
C456 C 0.17223 0.62547 0.68946 0.0
C457 C 0.19035 0.60119 0.67095 0.0
C458 C 0.24902 0.46128 0.59883 0.0
C459 C 0.2405 0.48309 0.68973 0.0
O460 O 0.32624 0.4188 0.62415 0.0
O461 O 0.33274 0.42497 0.67728 0.0
O462 O 0.30127 0.52573 0.65902 0.0
O463 O 0.34073 0.49859 0.6821 0.0
O464 O 0.32877 0.48785 0.59824 0.0
O465 O 0.29909 0.54031 0.59088 0.0
O466 O 0.24916 0.58647 0.61831 0.0
O467 O 0.20712 0.5517 0.61885 0.0
O468 O 0.25671 0.4695 0.6274 0.0
O469 O 0.24377 0.49003 0.58146 0.0
O470 O 0.23976 0.51509 0.67642 0.0
O471 O 0.26229 0.45844 0.68076 0.0
H472 H 0.38924 0.44683 0.62698 0.0
H473 H 0.44697 0.42943 0.62047 0.0
H474 H 0.42762 0.32657 0.66224 0.0
H475 H 0.37001 0.34433 0.6689 0.0
H476 H 0.19844 0.65084 0.60137 0.0
H477 H 0.16649 0.69327 0.63349 0.0
H478 H 0.16499 0.6179 0.71396 0.0
H479 H 0.19673 0.57545 0.68147 0.0
H480 H 0.20384 0.3027 0.59676 0.0
H481 H 0.22647 0.31306 0.49427 0.0
H482 H 0.24128 0.37487 0.50237 0.0
H483 H 0.2478 0.42671 0.53922 0.0
H484 H 0.22602 0.41397 0.64189 0.0
H485 H 0.21082 0.35312 0.63306 0.0
C486 C 0.21231 0.31838 0.57626 0.0
C487 C 0.21404 0.30329 0.545 0.0
C488 C 0.22076 0.35386 0.58109 0.0
C489 C 0.22486 0.32409 0.51863 0.0
C490 C 0.23326 0.3595 0.52323 0.0
C491 C 0.23949 0.4106 0.55948 0.0
C492 C 0.23812 0.42502 0.59114 0.0
C493 C 0.23116 0.37486 0.55438 0.0
C494 C 0.2276 0.40363 0.61727 0.0
C495 C 0.21885 0.36867 0.61231 0.0
H496 H 0.85954 1.00458 0.83081 0.0
H497 H 0.81764 0.90077 0.8284 0.0
H498 H 0.86961 0.87575 0.80911 0.0
H499 H 0.9279 0.88259 0.79695 0.0
H500 H 0.97042 0.98585 0.80118 0.0
H501 H 0.91713 0.01188 0.81599 0.0
C502 C 0.8615 0.97652 0.82566 0.0
C503 C 0.83451 0.95459 0.83113 0.0
C504 C 0.8917 0.96218 0.8153 0.0
C505 C 0.83782 0.9183 0.8244 0.0
C506 C 0.86763 0.90394 0.81352 0.0
C507 C 0.92548 0.91088 0.80077 0.0
C508 C 0.95315 0.9323 0.79803 0.0
C509 C 0.89488 0.92551 0.80953 0.0
C510 C 0.94958 0.96882 0.80323 0.0
C511 C 0.9191 0.98367 0.81168 0.0
H512 H 0.3325 0.63827 1.00716 0.0
H513 H 0.32509 0.6938 0.09898 0.0
H514 H 0.3031 0.64116 0.12492 0.0
H515 H 0.28903 0.57884 0.12256 0.0
H516 H 0.29776 0.52181 0.0319 0.0
H517 H 0.31618 0.57581 1.00433 0.0
C518 C 0.32572 0.63909 0.03276 0.0
C519 C 0.3305 0.67017 0.05106 0.0
C520 C 0.31357 0.60842 0.04774 0.0
C521 C 0.32175 0.67043 0.08426 0.0
C522 C 0.30923 0.64026 0.09916 0.0
C523 C 0.2947 0.57816 0.09667 0.0
C524 C 0.29213 0.54628 0.07928 0.0
C525 C 0.30553 0.60903 0.08128 0.0
C526 C 0.2996 0.54597 0.0458 0.0
C527 C 0.31015 0.57683 0.03011 0.0
H528 H 0.60933 0.02536 0.3056 0.0
H529 H 0.60791 0.13327 0.33891 0.0
H530 H 0.66514 0.12739 0.35641 0.0
H531 H 0.71673 0.09237 0.36067 0.0
H532 H 0.7191 0.98483 0.32652 0.0
H533 H 0.66113 0.98977 0.31079 0.0
C534 C 0.62152 0.04728 0.31715 0.0
C535 C 0.60435 0.07959 0.32107 0.0
C536 C 0.65496 0.04403 0.32654 0.0
C537 C 0.62059 0.10807 0.33557 0.0
C538 C 0.65342 0.10483 0.3455 0.0
C539 C 0.70459 0.0702 0.34949 0.0
C540 C 0.72225 0.03839 0.34458 0.0
C541 C 0.67108 0.07315 0.34064 0.0
C542 C 0.70604 0.00969 0.33046 0.0
C543 C 0.67282 0.01243 0.32155 0.0
H544 H 0.74508 0.19876 0.51142 0.0
H545 H 0.6572 0.20197 0.45135 0.0
H546 H 0.67081 0.14371 0.42949 0.0
H547 H 0.70715 0.09106 0.42802 0.0
H548 H 0.79521 0.08715 0.48789 0.0
H549 H 0.78187 0.14565 0.50966 0.0
C550 C 0.72939 0.18684 0.4931 0.0
C551 C 0.70051 0.20471 0.48263 0.0
C552 C 0.73698 0.15277 0.48113 0.0
C553 C 0.67979 0.18874 0.45951 0.0
C554 C 0.68738 0.15531 0.44718 0.0
C555 C 0.72311 0.10279 0.44622 0.0
C556 C 0.75192 0.08465 0.45654 0.0
C557 C 0.71568 0.13682 0.45812 0.0
C558 C 0.77274 0.10054 0.47966 0.0
C559 C 0.76527 0.13411 0.49198 0.0
H560 H 0.12563 0.41215 0.7661 0.0
H561 H 0.06837 0.47884 0.69931 0.0
H562 H 0.11865 0.50543 0.67932 0.0
H563 H 0.1786 0.50657 0.67835 0.0
H564 H 0.23619 0.43436 0.73981 0.0
H565 H 0.1859 0.41299 0.76478 0.0
C566 C 0.12416 0.43295 0.74755 0.0
C567 C 0.09337 0.44406 0.73451 0.0
C568 C 0.15317 0.44686 0.73526 0.0
C569 C 0.09179 0.47018 0.70982 0.0
C570 C 0.12049 0.48526 0.69841 0.0
C571 C 0.18024 0.48666 0.69772 0.0
C572 C 0.21111 0.4725 0.70778 0.0
C573 C 0.15129 0.47345 0.71067 0.0
C574 C 0.21275 0.44589 0.73202 0.0
C575 C 0.18402 0.43363 0.74613 0.0
H576 H 0.75906 0.90018 0.93574 0.0
H577 H 0.83455 0.95763 0.98529 0.0
H578 H 0.85806 0.90191 1.00773 0.0
H579 H 0.8595 0.83646 1.00931 0.0
H580 H 0.78137 0.77936 0.96325 0.0
H581 H 0.75649 0.83531 0.943 0.0
C582 C 0.78037 0.90052 0.95175 0.0
C583 C 0.79512 0.93298 0.95863 0.0
C584 C 0.79339 0.86841 0.96484 0.0
C585 C 0.8226 0.93307 0.97978 0.0
C586 C 0.83617 0.90116 0.99238 0.0
C587 C 0.83667 0.83626 0.9954 0.0
C588 C 0.82233 0.80367 0.98776 0.0
C589 C 0.82212 0.86861 0.98455 0.0
C590 C 0.79288 0.80397 0.96949 0.0
C591 C 0.77871 0.83598 0.95786 0.0
H592 H 0.41433 0.58301 0.27103 0.0
H593 H 0.47514 0.51821 0.20884 0.0
H594 H 0.42593 0.49073 0.18597 0.0
H595 H 0.36548 0.48886 0.18096 0.0
H596 H 0.30582 0.56013 0.23805 0.0
H597 H 0.35499 0.58159 0.26591 0.0
C598 C 0.41704 0.5623 0.25296 0.0
C599 C 0.44846 0.55211 0.24207 0.0
C600 C 0.3888 0.54823 0.23886 0.0
C601 C 0.45129 0.52613 0.21789 0.0
C602 C 0.42317 0.51063 0.20473 0.0
C603 C 0.36333 0.50877 0.19983 0.0
C604 C 0.33219 0.52276 0.20783 0.0
C605 C 0.39179 0.522 0.21463 0.0
C606 C 0.32958 0.54905 0.23168 0.0
C607 C 0.35763 0.56123 0.24754 0.0
H608 H 0.5224 0.17741 0.36703 0.0
H609 H 0.59434 0.23401 0.31217 0.0
H610 H 0.61259 0.26299 0.36265 0.0
H611 H 0.61059 0.26862 0.42235 0.0
H612 H 0.54371 0.20612 0.47821 0.0
H613 H 0.52061 0.18281 0.42698 0.0
C614 C 0.54165 0.19663 0.36597 0.0
C615 C 0.55667 0.20417 0.33581 0.0
C616 C 0.55293 0.21175 0.3952 0.0
C617 C 0.58225 0.22819 0.33501 0.0
C618 C 0.5927 0.24457 0.36384 0.0
C619 C 0.59047 0.25043 0.42336 0.0
C620 C 0.57832 0.23958 0.454 0.0
C621 C 0.57852 0.23611 0.39408 0.0
C622 C 0.55312 0.21509 0.45493 0.0
C623 C 0.54006 0.20177 0.42569 0.0
H624 H 0.08021 0.32026 0.58029 0.0
H625 H 0.14153 0.23361 0.61693 0.0
H626 H 0.13026 0.25025 0.6732 0.0
H627 H 0.10173 0.28829 0.71277 0.0
H628 H 0.03692 0.37197 0.67699 0.0
H629 H 0.05046 0.35792 0.62044 0.0
C630 C 0.09105 0.30517 0.60065 0.0
C631 C 0.11148 0.27561 0.59433 0.0
C632 C 0.08369 0.31429 0.63338 0.0
C633 C 0.12532 0.25621 0.62103 0.0
C634 C 0.11903 0.26577 0.65334 0.0
C635 C 0.09071 0.30347 0.69254 0.0
C636 C 0.06809 0.33091 0.69914 0.0
C637 C 0.09805 0.29456 0.6599 0.0
C638 C 0.05388 0.35027 0.67269 0.0
C639 C 0.06181 0.34235 0.64021 0.0
H640 H 1.01265 0.83351 0.8734 0.0
H641 H 0.96035 0.75796 0.81538 0.0
H642 H 0.93822 0.73174 0.86546 0.0
H643 H 0.93055 0.73366 0.92493 0.0
H644 H 0.97663 0.81454 0.98206 0.0
H645 H 1.00472 0.83562 0.93301 0.0
C646 C 0.99688 0.81086 0.87186 0.0
C647 C 0.98842 0.79714 0.84102 0.0
C648 C 0.98304 0.79731 0.90047 0.0
C649 C 0.96728 0.76857 0.83901 0.0
C650 C 0.95461 0.75376 0.86755 0.0
C651 C 0.94716 0.75557 0.92671 0.0
C652 C 0.95196 0.77239 0.95697 0.0
C653 C 0.96187 0.76837 0.8983 0.0
C654 C 0.97279 0.80125 0.95894 0.0
C655 C 0.98875 0.81322 0.93097 0.0
H656 H 0.47856 0.73237 0.18749 0.0
H657 H 0.45534 0.6216 0.1863 0.0
H658 H 0.43914 0.62624 0.12879 0.0
H659 H 0.43239 0.66094 0.07793 0.0
H660 H 0.45663 0.77124 0.07712 0.0
H661 H 0.47161 0.76767 0.13555 0.0
C662 C 0.46959 0.70949 0.17464 0.0
C663 C 0.46813 0.67675 0.19132 0.0
C664 C 0.4608 0.71208 0.14089 0.0
C665 C 0.45685 0.64714 0.17415 0.0
C666 C 0.4476 0.64968 0.14112 0.0
C667 C 0.44124 0.6841 0.09048 0.0
C668 C 0.44337 0.71626 0.07319 0.0
C669 C 0.44981 0.68184 0.12408 0.0
C670 C 0.45474 0.7461 0.0899 0.0
C671 C 0.46322 0.74411 0.12338 0.0
H672 H 0.1732 0.35706 0.30036 0.0
H673 H 0.19048 0.44476 0.36494 0.0
H674 H 0.21326 0.4784 0.31997 0.0
H675 H 0.22653 0.48414 0.26288 0.0
H676 H 0.20789 0.39954 0.19544 0.0
H677 H 0.18811 0.36291 0.24114 0.0
C678 C 0.18213 0.38347 0.30444 0.0
C679 C 0.17976 0.39862 0.33587 0.0
C680 C 0.19505 0.40303 0.27814 0.0
C681 C 0.19143 0.43281 0.34092 0.0
C682 C 0.20467 0.45198 0.31527 0.0
C683 C 0.21823 0.45762 0.25795 0.0
C684 C 0.21838 0.44467 0.22577 0.0
C685 C 0.20627 0.43751 0.28385 0.0
C686 C 0.20791 0.41012 0.22003 0.0
C687 C 0.19648 0.38933 0.24613 0.0
H688 H 0.90635 0.90999 0.55816 0.0
H689 H 0.83081 0.94163 0.62551 0.0
H690 H 0.79894 0.96896 0.58055 0.0
H691 H 0.79033 0.97967 0.52189 0.0
H692 H 0.8648 0.94815 0.45356 0.0
H693 H 0.89971 0.92574 0.49917 0.0
C694 C 0.88316 0.92337 0.56302 0.0
C695 C 0.87072 0.92324 0.59508 0.0
C696 C 0.86478 0.93897 0.53691 0.0
C697 C 0.84059 0.94064 0.60097 0.0
C698 C 0.82241 0.95644 0.57531 0.0
C699 C 0.81437 0.96822 0.51699 0.0
C700 C 0.82485 0.96509 0.48448 0.0
C701 C 0.8339 0.95504 0.54314 0.0
C702 C 0.85618 0.95066 0.47845 0.0
C703 C 0.87603 0.93772 0.5045 0.0
H704 H 0.37352 0.53134 0.72354 0.0
H705 H 0.28629 0.58877 0.69088 0.0
H706 H 0.29227 0.62968 0.7372 0.0
H707 H 0.32094 0.64623 0.78953 0.0
H708 H 0.40607 0.58448 0.82177 0.0
H709 H 0.40189 0.54776 0.77338 0.0
C710 C 0.35588 0.55301 0.72623 0.0
C711 C 0.32953 0.55704 0.70375 0.0
C712 C 0.35884 0.57528 0.75329 0.0
C713 C 0.30696 0.58528 0.7077 0.0
C714 C 0.31026 0.60842 0.73436 0.0
C715 C 0.33855 0.62477 0.7858 0.0
C716 C 0.36353 0.61781 0.80959 0.0
C717 C 0.33582 0.60325 0.75774 0.0
C718 C 0.38622 0.58997 0.80435 0.0
C719 C 0.38403 0.5691 0.77651 0.0
H720 H 0.64848 0.11222 0.0543 0.0
H721 H 0.64798 0.00902 0.10048 0.0
H722 H 0.66867 0.98213 0.0503 0.0
H723 H 0.69045 0.98846 0.99398 0.0
H724 H 0.69235 0.09241 0.94946 0.0
H725 H 0.66688 0.11812 0.99767 0.0
C726 C 0.65233 0.08376 0.05329 0.0
C727 C 0.64674 0.06281 0.08135 0.0
C728 C 0.66448 0.06847 0.02441 0.0
C729 C 0.65248 0.02597 0.07953 0.0
C730 C 0.66417 0.0105 0.05071 0.0
C731 C 0.68461 0.01659 0.99464 0.0
C732 C 0.69321 0.03846 0.96808 0.0
C733 C 0.67073 0.03152 0.02307 0.0
C734 C 0.68602 0.07499 0.96955 0.0
C735 C 0.67155 0.08978 0.9972 0.0
H736 H 0.66902 0.13952 0.74033 0.0
H737 H 0.71245 0.06905 0.66968 0.0
H738 H 0.73649 0.03258 0.71385 0.0
H739 H 0.74336 0.01882 0.77213 0.0
H740 H 0.70147 0.08827 0.84424 0.0
H741 H 0.6792 0.12734 0.80016 0.0
C742 C 0.68378 0.11619 0.73474 0.0
C743 C 0.68889 0.10704 0.70166 0.0
C744 C 0.69796 0.09527 0.7605 0.0
C745 C 0.70833 0.07689 0.69481 0.0
C746 C 0.72205 0.05593 0.72007 0.0
C747 C 0.72963 0.04274 0.77826 0.0
C748 C 0.7239 0.05054 0.81137 0.0
C749 C 0.71686 0.06469 0.75293 0.0
C750 C 0.70633 0.08175 0.81894 0.0
C751 C 0.69338 0.1039 0.7937 0.0
H752 H 0.21644 0.4113 0.05357 0.0
H753 H 0.15309 0.5026 0.0687 0.0
H754 H 0.12048 0.48731 0.02003 0.0
H755 H 0.10982 0.44717 0.97347 0.0
H756 H 0.17538 0.35758 0.95854 0.0
H757 H 0.20723 0.37313 1.00701 0.0
C758 C 0.19538 0.42787 0.04649 0.0
C759 C 0.18705 0.45787 0.06504 0.0
C760 C 0.17717 0.41923 0.01843 0.0
C761 C 0.15996 0.47923 0.05501 0.0
C762 C 0.14136 0.47053 0.02714 0.0
C763 C 0.13129 0.43131 0.98064 0.0
C764 C 0.13996 0.401 0.96251 0.0
C765 C 0.14977 0.44055 1.00862 0.0
C766 C 0.16774 0.38061 0.97233 0.0
C767 C 0.18608 0.38956 0.99999 0.0
H768 H 0.86411 0.94376 0.31964 0.0
H769 H 0.77082 0.89268 0.32288 0.0
H770 H 0.78411 0.86028 0.27289 0.0
H771 H 0.82016 0.85118 0.22524 0.0
H772 H 0.9131 0.90316 0.22288 0.0
H773 H 0.90182 0.93069 0.27539 0.0
C774 C 0.84675 0.92528 0.30965 0.0
C775 C 0.81637 0.92097 0.32481 0.0
C776 C 0.85432 0.90723 0.28077 0.0
C777 C 0.7944 0.89653 0.31173 0.0
C778 C 0.8019 0.87816 0.28301 0.0
C779 C 0.83816 0.86804 0.23651 0.0
C780 C 0.8672 0.87555 0.21983 0.0
C781 C 0.83148 0.88397 0.26686 0.0
C782 C 0.89023 0.89757 0.23478 0.0
C783 C 0.88389 0.9132 0.26491 0.0
H784 H 0.31319 0.57613 0.54333 0.0
H785 H 0.37634 0.48348 0.55535 0.0
H786 H 0.40652 0.50088 0.5063 0.0
H787 H 0.41422 0.54255 0.45921 0.0
H788 H 0.34974 0.63447 0.44914 0.0
H789 H 0.32078 0.61689 0.49805 0.0
C790 C 0.3336 0.55957 0.5355 0.0
C791 C 0.34239 0.52845 0.55326 0.0
C792 C 0.35054 0.56954 0.50733 0.0
C793 C 0.36895 0.50756 0.5423 0.0
C794 C 0.38621 0.51751 0.51419 0.0
C795 C 0.3939 0.55875 0.46783 0.0
C796 C 0.38398 0.58963 0.45007 0.0
C797 C 0.37714 0.54846 0.49638 0.0
C798 C 0.35752 0.61021 0.46167 0.0
C799 C 0.34104 0.60033 0.48988 0.0
H800 H 0.25197 0.25444 0.42757 0.0
H801 H 0.21378 0.14945 0.43769 0.0
H802 H 0.2613 0.12454 0.41003 0.0
H803 H 0.31567 0.13153 0.387 0.0
H804 H 0.35579 0.23557 0.37783 0.0
H805 H 0.30563 0.26183 0.40051 0.0
C806 C 0.2538 0.22623 0.4231 0.0
C807 C 0.22936 0.20384 0.43488 0.0
C808 C 0.28177 0.21179 0.40763 0.0
C809 C 0.23227 0.16728 0.42912 0.0
C810 C 0.25953 0.15294 0.41335 0.0
C811 C 0.31351 0.15997 0.38999 0.0
C812 C 0.33972 0.18144 0.38115 0.0
C813 C 0.28481 0.17478 0.4033 0.0
C814 C 0.33605 0.21836 0.38442 0.0
C815 C 0.30739 0.23339 0.39754 0.0
H816 H 0.07141 0.02571 0.60164 0.0
H817 H 0.12559 0.07239 0.6813 0.0
H818 H 0.1028 0.03025 0.71988 0.0
H819 H 0.07045 0.97826 0.73057 0.0
H820 H 1.01534 0.93077 0.65211 0.0
H821 H 0.03523 0.97535 0.61344 0.0
C822 C 0.07806 0.02664 0.62748 0.0
C823 C 0.10025 0.05207 0.6386 0.0
C824 C 0.06479 1.00223 0.64965 0.0
C825 C 0.10837 0.05332 0.67218 0.0
C826 C 0.0955 0.02911 0.69423 0.0
C827 C 0.06264 0.97768 0.70501 0.0
C828 C 0.04184 0.95098 0.69409 0.0
C829 C 0.07412 1.00319 0.68316 0.0
C830 C 0.0314 0.95104 0.66108 0.0
C831 C 0.04291 0.9764 0.63897 0.0
H832 H 0.2295 0.79753 0.87403 0.0
H833 H 0.17116 0.84626 0.94944 0.0
H834 H 0.21441 0.83353 0.98989 0.0
H835 H 0.26989 0.81252 1.00335 0.0
H836 H 0.32937 0.76321 0.9295 0.0
H837 H 0.28468 0.7722 0.88886 0.0
C838 C 0.22625 0.80517 0.89936 0.0
C839 C 0.19702 0.82286 0.90862 0.0
C840 C 0.25149 0.79791 0.92268 0.0
C841 C 0.19308 0.83222 0.94164 0.0
C842 C 0.21795 0.82522 0.96479 0.0
C843 C 0.27306 0.80351 0.97839 0.0
C844 C 0.30296 0.78759 0.96928 0.0
C845 C 0.24738 0.80865 0.95548 0.0
C846 C 0.30658 0.77563 0.93702 0.0
C847 C 0.28106 0.78089 0.91382 0.0
H848 H 0.47103 0.01082 0.25038 0.0
H849 H 0.54369 0.03375 0.17782 0.0
H850 H 0.52814 0.98119 0.14716 0.0
H851 H 0.49238 0.92983 0.14008 0.0
H852 H 0.41865 0.90944 0.21235 0.0
H853 H 0.43682 0.95942 0.24426 0.0
C854 C 0.48363 1.00444 0.22789 0.0
C855 C 0.50836 0.0265 0.21636 0.0
C856 C 0.47451 0.97438 0.21039 0.0
C857 C 0.52447 0.01741 0.18727 0.0
C858 C 0.51558 0.98732 0.16971 0.0
C859 C 0.48025 0.93631 0.16279 0.0
C860 C 0.45417 0.91557 0.1737 0.0
C861 C 0.49037 0.9658 0.18087 0.0
C862 C 0.43916 0.92425 0.2035 0.0
C863 C 0.44929 0.95317 0.22168 0.0
H864 H 0.84168 0.29564 0.63274 0.0
H865 H 0.81465 0.40665 0.62736 0.0
H866 H 0.75946 0.39202 0.60878 0.0
H867 H 0.72029 0.34808 0.59069 0.0
H868 H 0.74687 0.23687 0.59561 0.0
H869 H 0.8008 0.25115 0.61818 0.0
C870 C 0.82364 0.31657 0.62749 0.0
C871 C 0.83225 0.35218 0.63108 0.0
C872 C 0.79197 0.30794 0.61682 0.0
C873 C 0.80855 0.37906 0.62484 0.0
C874 C 0.77706 0.37071 0.61412 0.0
C875 C 0.73774 0.32688 0.59694 0.0
C876 C 0.72968 0.29147 0.59116 0.0
C877 C 0.76869 0.3353 0.60957 0.0
C878 C 0.75244 0.26435 0.59981 0.0
C879 C 0.78336 0.27251 0.61252 0.0
H880 H 1.00927 0.46214 0.82737 0.0
H881 H 0.91124 0.43259 0.80037 0.0
H882 H 0.88849 0.4738 0.84009 0.0
H883 H 0.89583 0.52206 0.87847 0.0
H884 H 0.99306 0.55579 0.90367 0.0
H885 H 1.01671 0.50917 0.86927 0.0
C886 C 0.98302 0.46422 0.83091 0.0
C887 C 0.96189 0.44423 0.8112 0.0
C888 C 0.96993 0.48918 0.85311 0.0
C889 C 0.92792 0.44762 0.81542 0.0
C890 C 0.91488 0.47134 0.83798 0.0
C891 C 0.92222 0.51938 0.8764 0.0
C892 C 0.94255 0.54287 0.89327 0.0
C893 C 0.93555 0.493 0.8562 0.0
C894 C 0.97675 0.53817 0.89097 0.0
C895 C 0.9903 0.51156 0.87117 0.0
H896 H 0.79644 0.65536 0.06429 0.0
H897 H 0.81006 0.74411 0.12851 0.0
H898 H 0.76277 0.72627 0.16049 0.0
H899 H 0.71645 0.68627 0.16905 0.0
H900 H 0.70236 0.5997 0.10225 0.0
H901 H 0.75132 0.61563 0.07299 0.0
C902 C 0.78934 0.67084 0.08539 0.0
C903 C 0.80691 0.70114 0.09385 0.0
C904 C 0.76199 0.66071 0.10335 0.0
C905 C 0.79706 0.7207 0.12133 0.0
C906 C 0.76996 0.71052 0.13961 0.0
C907 C 0.72396 0.67095 0.14801 0.0
C908 C 0.70554 0.6416 0.13816 0.0
C909 C 0.75199 0.68074 0.13063 0.0
C910 C 0.71616 0.6219 0.11103 0.0
C911 C 0.74409 0.6312 0.09397 0.0
H912 H 0.63586 0.50734 0.40558 0.0
H913 H 0.5447 0.45193 0.40341 0.0
H914 H 0.5193 0.49958 0.37005 0.0
H915 H 0.52467 0.55399 0.33681 0.0
H916 H 0.61692 0.60727 0.33655 0.0
H917 H 0.64012 0.56363 0.37564 0.0
C918 C 0.61043 0.50563 0.39779 0.0
C919 C 0.59238 0.4758 0.40667 0.0
C920 C 0.59618 0.53277 0.3781 0.0
C921 C 0.55919 0.47456 0.39706 0.0
C922 C 0.54468 0.50173 0.3778 0.0
C923 C 0.54966 0.55639 0.34579 0.0
C924 C 0.56917 0.58367 0.33364 0.0
C925 C 0.56314 0.53059 0.36757 0.0
C926 C 0.6015 0.58642 0.34544 0.0
C927 C 0.61481 0.56137 0.36766 0.0
H928 H 0.36716 0.24875 0.20123 0.0
H929 H 0.43024 0.33845 0.21005 0.0
H930 H 0.47537 0.29952 0.22809 0.0
H931 H 0.49853 0.24025 0.2363 0.0
H932 H 0.43763 0.14922 0.22694 0.0
H933 H 0.38992 0.18842 0.21425 0.0
C934 C 0.39075 0.25975 0.20727 0.0
C935 C 0.39521 0.29661 0.20412 0.0
C936 C 0.41701 0.23699 0.21724 0.0
C937 C 0.42583 0.31041 0.21259 0.0
C938 C 0.45183 0.2881 0.22264 0.0
C939 C 0.47476 0.22889 0.23167 0.0
C940 C 0.47162 0.19194 0.2319 0.0
C941 C 0.44788 0.25141 0.22429 0.0
C942 C 0.44061 0.17763 0.22661 0.0
C943 C 0.41345 0.20004 0.21926 0.0
H944 H 0.98923 0.26012 0.8113 0.0
H945 H 0.90574 0.31293 0.7646 0.0
H946 H 0.87043 0.26524 0.78298 0.0
H947 H 0.86302 0.20997 0.81516 0.0
H948 H 0.94778 0.15723 0.85984 0.0
H949 H 0.98273 0.2036 0.83951 0.0
C950 C 0.9633 0.26132 0.80507 0.0
C951 C 0.95011 0.29035 0.78694 0.0
C952 C 0.94331 0.23383 0.81552 0.0
C953 C 0.91654 0.29098 0.77861 0.0
C954 C 0.89634 0.26373 0.78919 0.0
C955 C 0.8892 0.20834 0.82002 0.0
C956 C 0.90258 0.1803 0.83953 0.0
C957 C 0.9094 0.23517 0.808 0.0
C958 C 0.9366 0.17882 0.84562 0.0
C959 C 0.9567 0.20528 0.83385 0.0
H960 H 0.03908 0.60166 0.11699 0.0
H961 H 0.10182 0.66217 0.05456 0.0
H962 H 0.05435 0.69488 0.03197 0.0
H963 H 0.99621 0.71117 0.03459 0.0
H964 H 0.93221 0.65162 0.09603 0.0
H965 H 0.97875 0.61317 0.11407 0.0
C966 C 0.04221 0.62175 0.09819 0.0
C967 C 0.07401 0.62966 0.08766 0.0
C968 C 1.01463 0.64061 0.08522 0.0
C969 C 0.07769 0.65541 0.06296 0.0
C970 C 0.05056 0.67429 0.05015 0.0
C971 C 0.99237 0.68921 0.05138 0.0
C972 C 0.96108 0.6842 0.06419 0.0
C973 C 0.01911 0.66774 0.0617 0.0
C974 C 0.95613 0.65571 0.08574 0.0
C975 C 0.9828 0.63405 0.09627 0.0
H976 H 0.65193 0.81773 0.30597 0.0
H977 H 0.58625 0.83497 0.38654 0.0
H978 H 0.55109 0.7886 0.3665 0.0
H979 H 0.54025 0.74121 0.32829 0.0
H980 H 0.60467 0.72257 0.24706 0.0
H981 H 0.63866 0.77176 0.26479 0.0
C982 C 0.62971 0.81159 0.31884 0.0
C983 C 0.62209 0.82948 0.34808 0.0
C984 C 0.60938 0.7846 0.30713 0.0
C985 C 0.59315 0.82116 0.36444 0.0
C986 C 0.57289 0.79472 0.35292 0.0
C987 C 0.56164 0.74789 0.31427 0.0
C988 C 0.57002 0.72794 0.28655 0.0
C989 C 0.58105 0.77588 0.32468 0.0
C990 C 0.59762 0.73743 0.26852 0.0
C991 C 0.61715 0.76549 0.27874 0.0
H992 H 0.58225 0.30392 0.63353 0.0
H993 H 0.57668 0.34994 0.53625 0.0
H994 H 0.52508 0.38032 0.54954 0.0
H995 H 0.47846 0.38781 0.58653 0.0
H996 H 0.48302 0.33953 0.68297 0.0
H997 H 0.53789 0.31567 0.67217 0.0
C998 C 0.5701 0.32119 0.61547 0.0
C999 C 0.58315 0.32456 0.58388 0.0
C1000 C 0.53991 0.33757 0.62293 0.0
C1001 C 0.56706 0.34692 0.56071 0.0
C1002 C 0.53745 0.36408 0.56823 0.0
C1003 C 0.49171 0.37265 0.60543 0.0
C1004 C 0.4765 0.36519 0.6354 0.0
C1005 C 0.52313 0.35869 0.59891 0.0
C1006 C 0.49391 0.34515 0.65948 0.0
C1007 C 0.52536 0.33165 0.65339 0.0
H1008 H 0.16704 0.73083 0.68266 0.0
H1009 H 0.10872 0.64172 0.70997 0.0
H1010 H 0.06839 0.68147 0.73448 0.0
H1011 H 0.04709 0.74141 0.74358 0.0
H1012 H 0.10389 0.83132 0.71587 0.0
H1013 H 0.14757 0.79145 0.69624 0.0
C1014 C 0.14558 0.72017 0.69414 0.0
C1015 C 0.14086 0.68332 0.6943 0.0
C1016 C 0.12217 0.7433 0.70793 0.0
C1017 C 0.11318 0.66986 0.70975 0.0
C1018 C 0.08994 0.69261 0.72357 0.0
C1019 C 0.06919 0.7523 0.73354 0.0
C1020 C 0.07216 0.78915 0.7307 0.0
C1021 C 0.09384 0.72933 0.72214 0.0
C1022 C 0.10106 0.80298 0.71814 0.0
C1023 C 0.12591 0.78019 0.70679 0.0
H1024 H 0.46798 0.79755 0.92932 0.0
H1025 H 0.46385 0.85962 1.01753 0.0
H1026 H 0.51398 0.88937 1.00186 0.0
H1027 H 0.56151 0.89432 0.96492 0.0
H1028 H 0.56478 0.83083 0.87753 0.0
H1029 H 0.51279 0.80482 0.89141 0.0
C1030 C 0.47775 0.8178 0.94511 0.0
C1031 C 0.46212 0.82606 0.97472 0.0
C1032 C 0.50684 0.83424 0.93631 0.0
C1033 C 0.47523 0.85265 0.99458 0.0
C1034 C 0.50407 0.86955 0.98572 0.0
C1035 C 0.55064 0.87508 0.94877 0.0
C1036 C 0.56742 0.86416 0.92047 0.0
C1037 C 0.52048 0.86004 0.95694 0.0
C1038 C 0.55292 0.83913 0.89986 0.0
C1039 C 0.52301 0.82439 0.90764 0.0
H1040 H 1.00894 0.11737 0.40024 0.0
H1041 H 0.95992 0.12876 0.49263 0.0
H1042 H 1.00573 0.16271 0.51415 0.0
H1043 H 0.05947 0.19097 0.50593 0.0
H1044 H 0.10683 0.17984 0.41262 0.0
H1045 H 0.06252 0.14327 0.3927 0.0
C1046 C 1.00839 0.12677 0.42528 0.0
C1047 C 0.98091 0.12033 0.44473 0.0
C1048 C 0.03475 0.14627 0.43744 0.0
C1049 C 0.98052 0.13355 0.4769 0.0
C1050 C 1.00684 0.15282 0.48932 0.0
C1051 C 0.06021 0.1801 0.48143 0.0
C1052 C 0.08643 0.1881 0.46077 0.0
C1053 C 0.03407 0.15957 0.46974 0.0
C1054 C 0.0869 0.17415 0.42896 0.0
C1055 C 0.06151 0.15329 0.41749 0.0
loop_
_geom_bond_atom_site_label_1
_geom_bond_atom_site_label_2
_geom_bond_distance
_geom_bond_site_symmetry_2
_ccdc_geom_bond_type
Sm0 C2 2.846 . S
Sm0 O20 2.543 . S
Sm0 O21 2.450 . S
Sm0 O22 2.681 . S
Sm0 O23 2.464 . S
Sm0 O24 2.396 . S
Sm0 O28 2.386 . S
Sm0 O31 2.408 . S
Sm1 C11 2.846 . S
Sm1 O22 2.386 . S
Sm1 O25 2.408 . S
Sm1 O26 2.543 . S
Sm1 O27 2.450 . S
Sm1 O28 2.681 . S
Sm1 O29 2.464 . S
Sm1 O30 2.396 . S
C2 Sm0 2.846 . S
C2 C3 1.506 . S
C2 O20 1.261 . S
C2 O21 1.242 . S
C3 C2 1.506 . S
C3 C4 1.358 . S
C3 C8 1.382 . S
C4 C3 1.358 . S
C4 C5 1.385 . S
C4 H32 0.930 . S
C5 C4 1.385 . S
C5 C6 1.395 . S
C5 H33 0.929 . S
C6 C5 1.395 . S
C6 C7 1.335 . S
C7 C6 1.335 . S
C7 C8 1.398 . S
C7 H34 0.930 . S
C8 C3 1.382 . S
C8 C7 1.398 . S
C8 H35 0.929 . S
C9 O22 1.271 . S
C9 O23 1.251 . S
C10 O24 1.252 . S
C10 O25 1.272 . S
C11 Sm1 2.846 . S
C11 C12 1.506 . S
C11 O26 1.261 . S
C11 O27 1.242 . S
C12 C11 1.506 . S
C12 C13 1.358 . S
C12 C17 1.382 . S
C13 C12 1.358 . S
C13 C14 1.385 . S
C13 H36 0.930 . S
C14 C13 1.385 . S
C14 C15 1.395 . S
C14 H37 0.929 . S
C15 C14 1.395 . S
C15 C16 1.335 . S
C16 C15 1.335 . S
C16 C17 1.398 . S
C16 H38 0.930 . S
C17 C12 1.382 . S
C17 C16 1.398 . S
C17 H39 0.929 . S
C18 O28 1.271 . S
C18 O29 1.251 . S
C19 O30 1.252 . S
C19 O31 1.272 . S
O20 Sm0 2.543 . S
O20 C2 1.261 . S
O21 Sm0 2.450 . S
O21 C2 1.242 . S
O22 Sm0 2.681 . S
O22 Sm1 2.386 . S
O22 C9 1.271 . S
O23 Sm0 2.464 . S
O23 C9 1.251 . S
O24 Sm0 2.396 . S
O24 C10 1.252 . S
O25 Sm1 2.408 . S
O25 C10 1.272 . S
O26 Sm1 2.543 . S
O26 C11 1.261 . S
O27 Sm1 2.450 . S
O27 C11 1.242 . S
O28 Sm0 2.386 . S
O28 Sm1 2.681 . S
O28 C18 1.271 . S
O29 Sm1 2.464 . S
O29 C18 1.251 . S
O30 Sm1 2.396 . S
O30 C19 1.252 . S
O31 Sm0 2.408 . S
O31 C19 1.272 . S
H32 C4 0.930 . S
H33 C5 0.929 . S
H34 C7 0.930 . S
H35 C8 0.929 . S
H36 C13 0.930 . S
H37 C14 0.929 . S
H38 C16 0.930 . S
H39 C17 0.929 . S
Sm40 C42 2.846 . S
Sm40 O60 2.543 . S
Sm40 O61 2.450 . S
Sm40 O62 2.681 1_655 S
Sm40 O63 2.464 1_655 S
Sm40 O64 2.396 1_655 S
Sm40 O68 2.386 . S
Sm40 O71 2.408 . S
Sm41 C51 2.846 . S
Sm41 O62 2.386 . S
Sm41 O65 2.408 . S
Sm41 O66 2.543 . S
Sm41 O67 2.450 . S
Sm41 O68 2.681 1_455 S
Sm41 O69 2.464 1_455 S
Sm41 O70 2.396 . S
C42 Sm40 2.846 . S
C42 C43 1.506 . S
C42 O60 1.261 . S
C42 O61 1.242 . S
C43 C42 1.506 . S
C43 C44 1.358 . S
C43 C48 1.382 . S
C44 C43 1.358 . S
C44 C45 1.385 . S
C44 H72 0.930 . S
C45 C44 1.385 . S
C45 C46 1.395 . S
C45 H73 0.929 . S
C46 C45 1.395 . S
C46 C47 1.335 . S
C47 C46 1.335 . S
C47 C48 1.398 . S
C47 H74 0.930 . S
C48 C43 1.382 . S
C48 C47 1.398 . S
C48 H75 0.929 . S
C49 O62 1.271 . S
C49 O63 1.251 . S
C50 O64 1.252 . S
C50 O65 1.272 . S
C51 Sm41 2.846 . S
C51 C52 1.506 . S
C51 O66 1.261 . S
C51 O67 1.242 . S
C52 C51 1.506 . S
C52 C53 1.358 . S
C52 C57 1.382 . S
C53 C52 1.358 . S
C53 C54 1.385 . S
C53 H76 0.930 . S
C54 C53 1.385 . S
C54 C55 1.395 . S
C54 H77 0.929 . S
C55 C54 1.395 . S
C55 C56 1.335 . S
C56 C55 1.335 . S
C56 C57 1.398 . S
C56 H78 0.930 . S
C57 C52 1.382 . S
C57 C56 1.398 . S
C57 H79 0.929 . S
C58 O68 1.271 . S
C58 O69 1.251 . S
C59 O70 1.252 1_655 S
C59 O71 1.272 . S
O60 Sm40 2.543 . S
O60 C42 1.261 . S
O61 Sm40 2.450 . S
O61 C42 1.242 . S
O62 Sm40 2.681 1_455 S
O62 Sm41 2.386 . S
O62 C49 1.271 . S
O63 Sm40 2.464 1_455 S
O63 C49 1.251 . S
O64 Sm40 2.396 1_455 S
O64 C50 1.252 . S
O65 Sm41 2.408 . S
O65 C50 1.272 . S
O66 Sm41 2.543 . S
O66 C51 1.261 . S
O67 Sm41 2.450 . S
O67 C51 1.242 . S
O68 Sm40 2.386 . S
O68 Sm41 2.681 1_655 S
O68 C58 1.271 . S
O69 Sm41 2.464 1_655 S
O69 C58 1.251 . S
O70 Sm41 2.396 . S
O70 C59 1.252 1_455 S
O71 Sm40 2.408 . S
O71 C59 1.272 . S
H72 C44 0.930 . S
H73 C45 0.929 . S
H74 C47 0.930 . S
H75 C48 0.929 . S
H76 C53 0.930 . S
H77 C54 0.929 . S
H78 C56 0.930 . S
H79 C57 0.929 . S
Sm80 C82 2.846 . S
Sm80 O100 2.543 . S
Sm80 O101 2.450 . S
Sm80 O102 2.681 1_554 S
Sm80 O103 2.464 1_554 S
Sm80 O104 2.396 1_554 S
Sm80 O108 2.386 . S
Sm80 O111 2.408 . S
Sm81 C91 2.846 . S
Sm81 O102 2.386 . S
Sm81 O105 2.408 . S
Sm81 O106 2.543 . S
Sm81 O107 2.450 . S
Sm81 O108 2.681 1_556 S
Sm81 O109 2.464 1_556 S
Sm81 O110 2.396 . S
C82 Sm80 2.846 . S
C82 C83 1.506 . S
C82 O100 1.261 . S
C82 O101 1.242 . S
C83 C82 1.506 . S
C83 C84 1.358 . S
C83 C88 1.382 . S
C84 C83 1.358 . S
C84 C85 1.385 . S
C84 H112 0.930 . S
C85 C84 1.385 . S
C85 C86 1.395 . S
C85 H113 0.929 . S
C86 C85 1.395 . S
C86 C87 1.335 . S
C87 C86 1.335 . S
C87 C88 1.398 . S
C87 H114 0.930 . S
C88 C83 1.382 . S
C88 C87 1.398 . S
C88 H115 0.929 . S
C89 O102 1.271 . S
C89 O103 1.251 . S
C90 O104 1.252 . S
C90 O105 1.272 . S
C91 Sm81 2.846 . S
C91 C92 1.506 . S
C91 O106 1.261 . S
C91 O107 1.242 . S
C92 C91 1.506 . S
C92 C93 1.358 . S
C92 C97 1.382 . S
C93 C92 1.358 . S
C93 C94 1.385 . S
C93 H116 0.930 . S
C94 C93 1.385 . S
C94 C95 1.395 . S
C94 H117 0.929 . S
C95 C94 1.395 . S
C95 C96 1.335 . S
C96 C95 1.335 . S
C96 C97 1.398 . S
C96 H118 0.930 . S
C97 C92 1.382 . S
C97 C96 1.398 . S
C97 H119 0.929 . S
C98 O108 1.271 . S
C98 O109 1.251 . S
C99 O110 1.252 1_554 S
C99 O111 1.272 . S
O100 Sm80 2.543 . S
O100 C82 1.261 . S
O101 Sm80 2.450 . S
O101 C82 1.242 . S
O102 Sm80 2.681 1_556 S
O102 Sm81 2.386 . S
O102 C89 1.271 . S
O103 Sm80 2.464 1_556 S
O103 C89 1.251 . S
O104 Sm80 2.396 1_556 S
O104 C90 1.252 . S
O105 Sm81 2.408 . S
O105 C90 1.272 . S
O106 Sm81 2.543 . S
O106 C91 1.261 . S
O107 Sm81 2.450 . S
O107 C91 1.242 . S
O108 Sm80 2.386 . S
O108 Sm81 2.681 1_554 S
O108 C98 1.271 . S
O109 Sm81 2.464 1_554 S
O109 C98 1.251 . S
O110 Sm81 2.396 . S
O110 C99 1.252 1_556 S
O111 Sm80 2.408 . S
O111 C99 1.272 . S
H112 C84 0.930 . S
H113 C85 0.929 . S
H114 C87 0.930 . S
H115 C88 0.929 . S
H116 C93 0.930 . S
H117 C94 0.929 . S
H118 C96 0.930 . S
H119 C97 0.929 . S
Sm120 C122 2.846 . S
Sm120 O140 2.543 . S
Sm120 O141 2.450 . S
Sm120 O142 2.681 . S
Sm120 O143 2.464 . S
Sm120 O144 2.396 . S
Sm120 O148 2.386 . S
Sm120 O151 2.408 . S
Sm121 C131 2.846 . S
Sm121 O142 2.386 . S
Sm121 O145 2.408 . S
Sm121 O146 2.543 . S
Sm121 O147 2.450 . S
Sm121 O148 2.681 . S
Sm121 O149 2.464 . S
Sm121 O150 2.396 . S
C122 Sm120 2.846 . S
C122 C123 1.506 . S
C122 O140 1.261 . S
C122 O141 1.242 . S
C123 C122 1.506 . S
C123 C124 1.358 . S
C123 C128 1.382 . S
C124 C123 1.358 . S
C124 C125 1.385 . S
C124 H152 0.930 . S
C125 C124 1.385 . S
C125 C126 1.395 . S
C125 H153 0.929 . S
C126 C125 1.395 . S
C126 C127 1.335 . S
C127 C126 1.335 . S
C127 C128 1.398 . S
C127 H154 0.930 . S
C128 C123 1.382 . S
C128 C127 1.398 . S
C128 H155 0.929 . S
C129 O142 1.271 . S
C129 O143 1.251 . S
C130 O144 1.252 . S
C130 O145 1.272 . S
C131 Sm121 2.846 . S
C131 C132 1.506 . S
C131 O146 1.261 . S
C131 O147 1.242 . S
C132 C131 1.506 . S
C132 C133 1.358 . S
C132 C137 1.382 . S
C133 C132 1.358 . S
C133 C134 1.385 . S
C133 H156 0.930 . S
C134 C133 1.385 . S
C134 C135 1.395 . S
C134 H157 0.929 . S
C135 C134 1.395 . S
C135 C136 1.335 . S
C136 C135 1.335 . S
C136 C137 1.398 . S
C136 H158 0.930 . S
C137 C132 1.382 . S
C137 C136 1.398 . S
C137 H159 0.929 . S
C138 O148 1.271 . S
C138 O149 1.251 . S
C139 O150 1.252 . S
C139 O151 1.272 . S
O140 Sm120 2.543 . S
O140 C122 1.261 . S
O141 Sm120 2.450 . S
O141 C122 1.242 . S
O142 Sm120 2.681 . S
O142 Sm121 2.386 . S
O142 C129 1.271 . S
O143 Sm120 2.464 . S
O143 C129 1.251 . S
O144 Sm120 2.396 . S
O144 C130 1.252 . S
O145 Sm121 2.408 . S
O145 C130 1.272 . S
O146 Sm121 2.543 . S
O146 C131 1.261 . S
O147 Sm121 2.450 . S
O147 C131 1.242 . S
O148 Sm120 2.386 . S
O148 Sm121 2.681 . S
O148 C138 1.271 . S
O149 Sm121 2.464 . S
O149 C138 1.251 . S
O150 Sm121 2.396 . S
O150 C139 1.252 . S
O151 Sm120 2.408 . S
O151 C139 1.272 . S
H152 C124 0.930 . S
H153 C125 0.929 . S
H154 C127 0.930 . S
H155 C128 0.929 . S
H156 C133 0.930 . S
H157 C134 0.929 . S
H158 C136 0.930 . S
H159 C137 0.929 . S
Sm160 C162 2.846 . S
Sm160 O180 2.543 . S
Sm160 O181 2.450 . S
Sm160 O182 2.681 . S
Sm160 O183 2.464 . S
Sm160 O184 2.396 . S
Sm160 O188 2.386 . S
Sm160 O191 2.408 . S
Sm161 C171 2.846 . S
Sm161 O182 2.386 . S
Sm161 O185 2.408 . S
Sm161 O186 2.543 . S
Sm161 O187 2.450 . S
Sm161 O188 2.681 . S
Sm161 O189 2.464 . S
Sm161 O190 2.396 . S
C162 Sm160 2.846 . S
C162 C163 1.506 . S
C162 O180 1.261 . S
C162 O181 1.242 . S
C163 C162 1.506 . S
C163 C164 1.358 . S
C163 C168 1.382 . S
C164 C163 1.358 . S
C164 C165 1.385 . S
C164 H192 0.930 . S
C165 C164 1.385 . S
C165 C166 1.395 . S
C165 H193 0.929 . S
C166 C165 1.395 . S
C166 C167 1.335 . S
C167 C166 1.335 . S
C167 C168 1.398 . S
C167 H194 0.930 . S
C168 C163 1.382 . S
C168 C167 1.398 . S
C168 H195 0.929 . S
C169 O182 1.271 . S
C169 O183 1.251 . S
C170 O184 1.252 . S
C170 O185 1.272 . S
C171 Sm161 2.846 . S
C171 C172 1.506 . S
C171 O186 1.261 . S
C171 O187 1.242 . S
C172 C171 1.506 . S
C172 C173 1.358 . S
C172 C177 1.382 . S
C173 C172 1.358 . S
C173 C174 1.385 . S
C173 H196 0.930 . S
C174 C173 1.385 . S
C174 C175 1.395 . S
C174 H197 0.929 . S
C175 C174 1.395 . S
C175 C176 1.335 . S
C176 C175 1.335 . S
C176 C177 1.398 . S
C176 H198 0.930 . S
C177 C172 1.382 . S
C177 C176 1.398 . S
C177 H199 0.929 . S
C178 O188 1.271 . S
C178 O189 1.251 . S
C179 O190 1.252 . S
C179 O191 1.272 . S
O180 Sm160 2.543 . S
O180 C162 1.261 . S
O181 Sm160 2.450 . S
O181 C162 1.242 . S
O182 Sm160 2.681 . S
O182 Sm161 2.386 . S
O182 C169 1.271 . S
O183 Sm160 2.464 . S
O183 C169 1.251 . S
O184 Sm160 2.396 . S
O184 C170 1.252 . S
O185 Sm161 2.408 . S
O185 C170 1.272 . S
O186 Sm161 2.543 . S
O186 C171 1.261 . S
O187 Sm161 2.450 . S
O187 C171 1.242 . S
O188 Sm160 2.386 . S
O188 Sm161 2.681 . S
O188 C178 1.271 . S
O189 Sm161 2.464 . S
O189 C178 1.251 . S
O190 Sm161 2.396 . S
O190 C179 1.252 . S
O191 Sm160 2.408 . S
O191 C179 1.272 . S
H192 C164 0.930 . S
H193 C165 0.929 . S
H194 C167 0.930 . S
H195 C168 0.929 . S
H196 C173 0.930 . S
H197 C174 0.929 . S
H198 C176 0.930 . S
H199 C177 0.929 . S
Sm200 C202 2.846 . S
Sm200 O220 2.543 . S
Sm200 O221 2.450 . S
Sm200 O222 2.681 . S
Sm200 O223 2.464 . S
Sm200 O224 2.396 . S
Sm200 O228 2.386 1_655 S
Sm200 O231 2.408 1_655 S
Sm201 C211 2.846 . S
Sm201 O222 2.386 1_455 S
Sm201 O225 2.408 1_455 S
Sm201 O226 2.543 . S
Sm201 O227 2.450 . S
Sm201 O228 2.681 . S
Sm201 O229 2.464 . S
Sm201 O230 2.396 . S
C202 Sm200 2.846 . S
C202 C203 1.506 . S
C202 O220 1.261 . S
C202 O221 1.242 . S
C203 C202 1.506 . S
C203 C204 1.358 . S
C203 C208 1.382 . S
C204 C203 1.358 . S
C204 C205 1.385 . S
C204 H232 0.930 . S
C205 C204 1.385 . S
C205 C206 1.395 . S
C205 H233 0.929 . S
C206 C205 1.395 . S
C206 C207 1.335 . S
C207 C206 1.335 . S
C207 C208 1.398 . S
C207 H234 0.930 . S
C208 C203 1.382 . S
C208 C207 1.398 . S
C208 H235 0.929 . S
C209 O222 1.271 . S
C209 O223 1.251 . S
C210 O224 1.252 . S
C210 O225 1.272 . S
C211 Sm201 2.846 . S
C211 C212 1.506 . S
C211 O226 1.261 . S
C211 O227 1.242 . S
C212 C211 1.506 . S
C212 C213 1.358 . S
C212 C217 1.382 . S
C213 C212 1.358 . S
C213 C214 1.385 . S
C213 H236 0.930 . S
C214 C213 1.385 . S
C214 C215 1.395 . S
C214 H237 0.929 . S
C215 C214 1.395 . S
C215 C216 1.335 . S
C216 C215 1.335 . S
C216 C217 1.398 . S
C216 H238 0.930 . S
C217 C212 1.382 . S
C217 C216 1.398 . S
C217 H239 0.929 . S
C218 O228 1.271 . S
C218 O229 1.251 . S
C219 O230 1.252 . S
C219 O231 1.272 . S
O220 Sm200 2.543 . S
O220 C202 1.261 . S
O221 Sm200 2.450 . S
O221 C202 1.242 . S
O222 Sm200 2.681 . S
O222 Sm201 2.386 1_655 S
O222 C209 1.271 . S
O223 Sm200 2.464 . S
O223 C209 1.251 . S
O224 Sm200 2.396 . S
O224 C210 1.252 . S
O225 Sm201 2.408 1_655 S
O225 C210 1.272 . S
O226 Sm201 2.543 . S
O226 C211 1.261 . S
O227 Sm201 2.450 . S
O227 C211 1.242 . S
O228 Sm200 2.386 1_455 S
O228 Sm201 2.681 . S
O228 C218 1.271 . S
O229 Sm201 2.464 . S
O229 C218 1.251 . S
O230 Sm201 2.396 . S
O230 C219 1.252 . S
O231 Sm200 2.408 1_455 S
O231 C219 1.272 . S
H232 C204 0.930 . S
H233 C205 0.929 . S
H234 C207 0.930 . S
H235 C208 0.929 . S
H236 C213 0.930 . S
H237 C214 0.929 . S
H238 C216 0.930 . S
H239 C217 0.929 . S
Sm240 C242 2.846 . S
Sm240 O260 2.543 . S
Sm240 O261 2.450 . S
Sm240 O262 2.681 . S
Sm240 O263 2.464 . S
Sm240 O264 2.396 . S
Sm240 O268 2.386 1_554 S
Sm240 O271 2.408 1_554 S
Sm241 C251 2.846 . S
Sm241 O262 2.386 1_556 S
Sm241 O265 2.408 1_556 S
Sm241 O266 2.543 . S
Sm241 O267 2.450 . S
Sm241 O268 2.681 . S
Sm241 O269 2.464 . S
Sm241 O270 2.396 . S
C242 Sm240 2.846 . S
C242 C243 1.506 . S
C242 O260 1.261 . S
C242 O261 1.242 . S
C243 C242 1.506 . S
C243 C244 1.358 . S
C243 C248 1.382 . S
C244 C243 1.358 . S
C244 C245 1.385 . S
C244 H272 0.930 . S
C245 C244 1.385 . S
C245 C246 1.395 . S
C245 H273 0.929 . S
C246 C245 1.395 . S
C246 C247 1.335 . S
C247 C246 1.335 . S
C247 C248 1.398 . S
C247 H274 0.930 . S
C248 C243 1.382 . S
C248 C247 1.398 . S
C248 H275 0.929 . S
C249 O262 1.271 . S
C249 O263 1.251 . S
C250 O264 1.252 . S
C250 O265 1.272 . S
C251 Sm241 2.846 . S
C251 C252 1.506 . S
C251 O266 1.261 . S
C251 O267 1.242 . S
C252 C251 1.506 . S
C252 C253 1.358 . S
C252 C257 1.382 . S
C253 C252 1.358 . S
C253 C254 1.385 . S
C253 H276 0.930 . S
C254 C253 1.385 . S
C254 C255 1.395 . S
C254 H277 0.929 . S
C255 C254 1.395 . S
C255 C256 1.335 . S
C256 C255 1.335 . S
C256 C257 1.398 . S
C256 H278 0.930 . S
C257 C252 1.382 . S
C257 C256 1.398 . S
C257 H279 0.929 . S
C258 O268 1.271 . S
C258 O269 1.251 . S
C259 O270 1.252 . S
C259 O271 1.272 . S
O260 Sm240 2.543 . S
O260 C242 1.261 . S
O261 Sm240 2.450 . S
O261 C242 1.242 . S
O262 Sm240 2.681 . S
O262 Sm241 2.386 1_554 S
O262 C249 1.271 . S
O263 Sm240 2.464 . S
O263 C249 1.251 . S
O264 Sm240 2.396 . S
O264 C250 1.252 . S
O265 Sm241 2.408 1_554 S
O265 C250 1.272 . S
O266 Sm241 2.543 . S
O266 C251 1.261 . S
O267 Sm241 2.450 . S
O267 C251 1.242 . S
O268 Sm240 2.386 1_556 S
O268 Sm241 2.681 . S
O268 C258 1.271 . S
O269 Sm241 2.464 . S
O269 C258 1.251 . S
O270 Sm241 2.396 . S
O270 C259 1.252 . S
O271 Sm240 2.408 1_556 S
O271 C259 1.272 . S
H272 C244 0.930 . S
H273 C245 0.929 . S
H274 C247 0.930 . S
H275 C248 0.929 . S
H276 C253 0.930 . S
H277 C254 0.929 . S
H278 C256 0.930 . S
H279 C257 0.929 . S
Sm280 C282 2.846 . S
Sm280 O300 2.543 . S
Sm280 O301 2.450 . S
Sm280 O302 2.681 . S
Sm280 O303 2.464 . S
Sm280 O304 2.396 . S
Sm280 O308 2.386 . S
Sm280 O311 2.408 . S
Sm281 C291 2.846 . S
Sm281 O302 2.386 . S
Sm281 O305 2.408 . S
Sm281 O306 2.543 . S
Sm281 O307 2.450 . S
Sm281 O308 2.681 . S
Sm281 O309 2.464 . S
Sm281 O310 2.396 . S
C282 Sm280 2.846 . S
C282 C283 1.506 . S
C282 O300 1.261 . S
C282 O301 1.242 . S
C283 C282 1.506 . S
C283 C284 1.358 . S
C283 C288 1.382 . S
C284 C283 1.358 . S
C284 C285 1.385 . S
C284 H312 0.930 . S
C285 C284 1.385 . S
C285 C286 1.395 . S
C285 H313 0.929 . S
C286 C285 1.395 . S
C286 C287 1.335 . S
C287 C286 1.335 . S
C287 C288 1.398 . S
C287 H314 0.930 . S
C288 C283 1.382 . S
C288 C287 1.398 . S
C288 H315 0.929 . S
C289 O302 1.271 . S
C289 O303 1.251 . S
C290 O304 1.252 . S
C290 O305 1.272 . S
C291 Sm281 2.846 . S
C291 C292 1.506 . S
C291 O306 1.261 . S
C291 O307 1.242 . S
C292 C291 1.506 . S
C292 C293 1.358 . S
C292 C297 1.382 . S
C293 C292 1.358 . S
C293 C294 1.385 . S
C293 H316 0.930 . S
C294 C293 1.385 . S
C294 C295 1.395 . S
C294 H317 0.929 . S
C295 C294 1.395 . S
C295 C296 1.335 . S
C296 C295 1.335 . S
C296 C297 1.398 . S
C296 H318 0.930 . S
C297 C292 1.382 . S
C297 C296 1.398 . S
C297 H319 0.929 . S
C298 O308 1.271 . S
C298 O309 1.251 . S
C299 O310 1.252 . S
C299 O311 1.272 . S
O300 Sm280 2.543 . S
O300 C282 1.261 . S
O301 Sm280 2.450 . S
O301 C282 1.242 . S
O302 Sm280 2.681 . S
O302 Sm281 2.386 . S
O302 C289 1.271 . S
O303 Sm280 2.464 . S
O303 C289 1.251 . S
O304 Sm280 2.396 . S
O304 C290 1.252 . S
O305 Sm281 2.408 . S
O305 C290 1.272 . S
O306 Sm281 2.543 . S
O306 C291 1.261 . S
O307 Sm281 2.450 . S
O307 C291 1.242 . S
O308 Sm280 2.386 . S
O308 Sm281 2.681 . S
O308 C298 1.271 . S
O309 Sm281 2.464 . S
O309 C298 1.251 . S
O310 Sm281 2.396 . S
O310 C299 1.252 . S
O311 Sm280 2.408 . S
O311 C299 1.272 . S
H312 C284 0.930 . S
H313 C285 0.929 . S
H314 C287 0.930 . S
H315 C288 0.929 . S
H316 C293 0.930 . S
H317 C294 0.929 . S
H318 C296 0.930 . S
H319 C297 0.929 . S
Sm320 C322 2.846 . S
Sm320 O340 2.543 . S
Sm320 O341 2.450 . S
Sm320 O342 2.681 . S
Sm320 O343 2.464 . S
Sm320 O344 2.396 . S
Sm320 O348 2.386 . S
Sm320 O351 2.408 . S
Sm321 C331 2.846 . S
Sm321 O342 2.386 . S
Sm321 O345 2.408 . S
Sm321 O346 2.543 . S
Sm321 O347 2.450 . S
Sm321 O348 2.681 . S
Sm321 O349 2.464 . S
Sm321 O350 2.396 . S
C322 Sm320 2.846 . S
C322 C323 1.506 . S
C322 O340 1.261 . S
C322 O341 1.242 . S
C323 C322 1.506 . S
C323 C324 1.358 . S
C323 C328 1.382 . S
C324 C323 1.358 . S
C324 C325 1.385 . S
C324 H352 0.930 . S
C325 C324 1.385 . S
C325 C326 1.395 . S
C325 H353 0.929 . S
C326 C325 1.395 . S
C326 C327 1.335 . S
C327 C326 1.335 . S
C327 C328 1.398 . S
C327 H354 0.930 . S
C328 C323 1.382 . S
C328 C327 1.398 . S
C328 H355 0.929 . S
C329 O342 1.271 . S
C329 O343 1.251 . S
C330 O344 1.252 . S
C330 O345 1.272 . S
C331 Sm321 2.846 . S
C331 C332 1.506 . S
C331 O346 1.261 . S
C331 O347 1.242 . S
C332 C331 1.506 . S
C332 C333 1.358 . S
C332 C337 1.382 . S
C333 C332 1.358 . S
C333 C334 1.385 . S
C333 H356 0.930 . S
C334 C333 1.385 . S
C334 C335 1.395 . S
C334 H357 0.929 . S
C335 C334 1.395 . S
C335 C336 1.335 . S
C336 C335 1.335 . S
C336 C337 1.398 . S
C336 H358 0.930 . S
C337 C332 1.382 . S
C337 C336 1.398 . S
C337 H359 0.929 . S
C338 O348 1.271 . S
C338 O349 1.251 . S
C339 O350 1.252 . S
C339 O351 1.272 . S
O340 Sm320 2.543 . S
O340 C322 1.261 . S
O341 Sm320 2.450 . S
O341 C322 1.242 . S
O342 Sm320 2.681 . S
O342 Sm321 2.386 . S
O342 C329 1.271 . S
O343 Sm320 2.464 . S
O343 C329 1.251 . S
O344 Sm320 2.396 . S
O344 C330 1.252 . S
O345 Sm321 2.408 . S
O345 C330 1.272 . S
O346 Sm321 2.543 . S
O346 C331 1.261 . S
O347 Sm321 2.450 . S
O347 C331 1.242 . S
O348 Sm320 2.386 . S
O348 Sm321 2.681 . S
O348 C338 1.271 . S
O349 Sm321 2.464 . S
O349 C338 1.251 . S
O350 Sm321 2.396 . S
O350 C339 1.252 . S
O351 Sm320 2.408 . S
O351 C339 1.272 . S
H352 C324 0.930 . S
H353 C325 0.929 . S
H354 C327 0.930 . S
H355 C328 0.929 . S
H356 C333 0.930 . S
H357 C334 0.929 . S
H358 C336 0.930 . S
H359 C337 0.929 . S
Sm360 C362 2.846 . S
Sm360 O380 2.543 . S
Sm360 O381 2.450 . S
Sm360 O382 2.681 1_565 S
Sm360 O383 2.464 1_565 S
Sm360 O384 2.396 1_565 S
Sm360 O388 2.386 . S
Sm360 O391 2.408 . S
Sm361 C371 2.846 . S
Sm361 O382 2.386 . S
Sm361 O385 2.408 . S
Sm361 O386 2.543 . S
Sm361 O387 2.450 . S
Sm361 O388 2.681 1_545 S
Sm361 O389 2.464 1_545 S
Sm361 O390 2.396 1_545 S
C362 Sm360 2.846 . S
C362 C363 1.506 . S
C362 O380 1.261 . S
C362 O381 1.242 . S
C363 C362 1.506 . S
C363 C364 1.358 . S
C363 C368 1.382 . S
C364 C363 1.358 . S
C364 C365 1.385 . S
C364 H392 0.930 . S
C365 C364 1.385 . S
C365 C366 1.395 . S
C365 H393 0.929 . S
C366 C365 1.395 . S
C366 C367 1.335 . S
C367 C366 1.335 . S
C367 C368 1.398 . S
C367 H394 0.930 . S
C368 C363 1.382 . S
C368 C367 1.398 . S
C368 H395 0.929 . S
C369 O382 1.271 . S
C369 O383 1.251 . S
C370 O384 1.252 . S
C370 O385 1.272 . S
C371 Sm361 2.846 . S
C371 C372 1.506 . S
C371 O386 1.261 . S
C371 O387 1.242 . S
C372 C371 1.506 . S
C372 C373 1.358 . S
C372 C377 1.382 . S
C373 C372 1.358 . S
C373 C374 1.385 . S
C373 H396 0.930 . S
C374 C373 1.385 . S
C374 C375 1.395 . S
C374 H397 0.929 . S
C375 C374 1.395 . S
C375 C376 1.335 . S
C376 C375 1.335 . S
C376 C377 1.398 . S
C376 H398 0.930 . S
C377 C372 1.382 . S
C377 C376 1.398 . S
C377 H399 0.929 . S
C378 O388 1.271 . S
C378 O389 1.251 . S
C379 O390 1.252 . S
C379 O391 1.272 . S
O380 Sm360 2.543 . S
O380 C362 1.261 . S
O381 Sm360 2.450 . S
O381 C362 1.242 . S
O382 Sm360 2.681 1_545 S
O382 Sm361 2.386 . S
O382 C369 1.271 . S
O383 Sm360 2.464 1_545 S
O383 C369 1.251 . S
O384 Sm360 2.396 1_545 S
O384 C370 1.252 . S
O385 Sm361 2.408 . S
O385 C370 1.272 . S
O386 Sm361 2.543 . S
O386 C371 1.261 . S
O387 Sm361 2.450 . S
O387 C371 1.242 . S
O388 Sm360 2.386 . S
O388 Sm361 2.681 1_565 S
O388 C378 1.271 . S
O389 Sm361 2.464 1_565 S
O389 C378 1.251 . S
O390 Sm361 2.396 1_565 S
O390 C379 1.252 . S
O391 Sm360 2.408 . S
O391 C379 1.272 . S
H392 C364 0.930 . S
H393 C365 0.929 . S
H394 C367 0.930 . S
H395 C368 0.929 . S
H396 C373 0.930 . S
H397 C374 0.929 . S
H398 C376 0.930 . S
H399 C377 0.929 . S
Sm400 C402 2.846 . S
Sm400 O420 2.543 . S
Sm400 O421 2.450 . S
Sm400 O422 2.681 . S
Sm400 O423 2.464 . S
Sm400 O424 2.396 . S
Sm400 O428 2.386 1_565 S
Sm400 O431 2.408 1_565 S
Sm401 C411 2.846 . S
Sm401 O422 2.386 1_545 S
Sm401 O425 2.408 1_545 S
Sm401 O426 2.543 . S
Sm401 O427 2.450 . S
Sm401 O428 2.681 . S
Sm401 O429 2.464 . S
Sm401 O430 2.396 . S
C402 Sm400 2.846 . S
C402 C403 1.506 . S
C402 O420 1.261 . S
C402 O421 1.242 . S
C403 C402 1.506 . S
C403 C404 1.358 . S
C403 C408 1.382 . S
C404 C403 1.358 . S
C404 C405 1.385 . S
C404 H432 0.930 . S
C405 C404 1.385 . S
C405 C406 1.395 . S
C405 H433 0.929 . S
C406 C405 1.395 . S
C406 C407 1.335 . S
C407 C406 1.335 . S
C407 C408 1.398 . S
C407 H434 0.930 . S
C408 C403 1.382 . S
C408 C407 1.398 . S
C408 H435 0.929 . S
C409 O422 1.271 . S
C409 O423 1.251 . S
C410 O424 1.252 . S
C410 O425 1.272 . S
C411 Sm401 2.846 . S
C411 C412 1.506 . S
C411 O426 1.261 . S
C411 O427 1.242 . S
C412 C411 1.506 . S
C412 C413 1.358 . S
C412 C417 1.382 . S
C413 C412 1.358 . S
C413 C414 1.385 . S
C413 H436 0.930 . S
C414 C413 1.385 . S
C414 C415 1.395 . S
C414 H437 0.929 . S
C415 C414 1.395 . S
C415 C416 1.335 . S
C416 C415 1.335 . S
C416 C417 1.398 . S
C416 H438 0.930 . S
C417 C412 1.382 . S
C417 C416 1.398 . S
C417 H439 0.929 . S
C418 O428 1.271 . S
C418 O429 1.251 . S
C419 O430 1.252 . S
C419 O431 1.272 . S
O420 Sm400 2.543 . S
O420 C402 1.261 . S
O421 Sm400 2.450 . S
O421 C402 1.242 . S
O422 Sm400 2.681 . S
O422 Sm401 2.386 1_565 S
O422 C409 1.271 . S
O423 Sm400 2.464 . S
O423 C409 1.251 . S
O424 Sm400 2.396 . S
O424 C410 1.252 . S
O425 Sm401 2.408 1_565 S
O425 C410 1.272 . S
O426 Sm401 2.543 . S
O426 C411 1.261 . S
O427 Sm401 2.450 . S
O427 C411 1.242 . S
O428 Sm400 2.386 1_545 S
O428 Sm401 2.681 . S
O428 C418 1.271 . S
O429 Sm401 2.464 . S
O429 C418 1.251 . S
O430 Sm401 2.396 . S
O430 C419 1.252 . S
O431 Sm400 2.408 1_545 S
O431 C419 1.272 . S
H432 C404 0.930 . S
H433 C405 0.929 . S
H434 C407 0.930 . S
H435 C408 0.929 . S
H436 C413 0.930 . S
H437 C414 0.929 . S
H438 C416 0.930 . S
H439 C417 0.929 . S
Sm440 C442 2.846 . S
Sm440 O460 2.543 . S
Sm440 O461 2.450 . S
Sm440 O462 2.681 . S
Sm440 O463 2.464 . S
Sm440 O464 2.396 . S
Sm440 O468 2.386 . S
Sm440 O471 2.408 . S
Sm441 C451 2.846 . S
Sm441 O462 2.386 . S
Sm441 O465 2.408 . S
Sm441 O466 2.543 . S
Sm441 O467 2.450 . S
Sm441 O468 2.681 . S
Sm441 O469 2.464 . S
Sm441 O470 2.396 . S
C442 Sm440 2.846 . S
C442 C443 1.506 . S
C442 O460 1.261 . S
C442 O461 1.242 . S
C443 C442 1.506 . S
C443 C444 1.358 . S
C443 C448 1.382 . S
C444 C443 1.358 . S
C444 C445 1.385 . S
C444 H472 0.930 . S
C445 C444 1.385 . S
C445 C446 1.395 . S
C445 H473 0.929 . S
C446 C445 1.395 . S
C446 C447 1.335 . S
C447 C446 1.335 . S
C447 C448 1.398 . S
C447 H474 0.930 . S
C448 C443 1.382 . S
C448 C447 1.398 . S
C448 H475 0.929 . S
C449 O462 1.271 . S
C449 O463 1.251 . S
C450 O464 1.252 . S
C450 O465 1.272 . S
C451 Sm441 2.846 . S
C451 C452 1.506 . S
C451 O466 1.261 . S
C451 O467 1.242 . S
C452 C451 1.506 . S
C452 C453 1.358 . S
C452 C457 1.382 . S
C453 C452 1.358 . S
C453 C454 1.385 . S
C453 H476 0.930 . S
C454 C453 1.385 . S
C454 C455 1.395 . S
C454 H477 0.929 . S
C455 C454 1.395 . S
C455 C456 1.335 . S
C456 C455 1.335 . S
C456 C457 1.398 . S
C456 H478 0.930 . S
C457 C452 1.382 . S
C457 C456 1.398 . S
C457 H479 0.929 . S
C458 O468 1.271 . S
C458 O469 1.251 . S
C459 O470 1.252 . S
C459 O471 1.272 . S
O460 Sm440 2.543 . S
O460 C442 1.261 . S
O461 Sm440 2.450 . S
O461 C442 1.242 . S
O462 Sm440 2.681 . S
O462 Sm441 2.386 . S
O462 C449 1.271 . S
O463 Sm440 2.464 . S
O463 C449 1.251 . S
O464 Sm440 2.396 . S
O464 C450 1.252 . S
O465 Sm441 2.408 . S
O465 C450 1.272 . S
O466 Sm441 2.543 . S
O466 C451 1.261 . S
O467 Sm441 2.450 . S
O467 C451 1.242 . S
O468 Sm440 2.386 . S
O468 Sm441 2.681 . S
O468 C458 1.271 . S
O469 Sm441 2.464 . S
O469 C458 1.251 . S
O470 Sm441 2.396 . S
O470 C459 1.252 . S
O471 Sm440 2.408 . S
O471 C459 1.272 . S
H472 C444 0.930 . S
H473 C445 0.929 . S
H474 C447 0.930 . S
H475 C448 0.929 . S
H476 C453 0.930 . S
H477 C454 0.929 . S
H478 C456 0.930 . S
H479 C457 0.929 . S
H480 C486 0.930 . S
H481 C489 0.930 . S
H482 C490 0.930 . S
H483 C491 0.930 . S
H484 C494 0.930 . S
H485 C495 0.930 . S
C486 H480 0.930 . S
C486 C487 1.355 . S
C486 C488 1.415 . S
C487 C486 1.355 . S
C487 C489 1.419 . S
C488 C486 1.415 . S
C488 C493 1.425 . S
C488 C495 1.409 . S
C489 H481 0.930 . S
C489 C487 1.419 . S
C489 C490 1.362 . S
C490 H482 0.930 . S
C490 C489 1.362 . S
C490 C493 1.409 . S
C491 H483 0.930 . S
C491 C492 1.355 . S
C491 C493 1.415 . S
C492 C491 1.355 . S
C492 C494 1.419 . S
C493 C488 1.425 . S
C493 C490 1.409 . S
C493 C491 1.415 . S
C494 H484 0.930 . S
C494 C492 1.419 . S
C494 C495 1.362 . S
C495 H485 0.930 . S
C495 C488 1.409 . S
C495 C494 1.362 . S
H496 C502 0.920 1_545 S
H497 C505 0.930 . S
H498 C506 0.930 . S
H499 C507 0.930 . S
H500 C510 0.930 . S
H501 C511 0.930 1_545 S
C502 H496 0.920 1_565 S
C502 C503 1.355 . S
C502 C504 1.415 . S
C503 C502 1.355 . S
C503 C505 1.419 . S
C504 C502 1.415 . S
C504 C509 1.425 . S
C504 C511 1.409 . S
C505 H497 0.930 . S
C505 C503 1.419 . S
C505 C506 1.362 . S
C506 H498 0.930 . S
C506 C505 1.362 . S
C506 C509 1.409 . S
C507 H499 0.930 . S
C507 C508 1.355 . S
C507 C509 1.415 . S
C508 C507 1.355 . S
C508 C510 1.419 . S
C509 C504 1.425 . S
C509 C506 1.409 . S
C509 C507 1.415 . S
C510 H500 0.930 . S
C510 C508 1.419 . S
C510 C511 1.362 . S
C511 H501 0.930 1_565 S
C511 C504 1.409 . S
C511 C510 1.362 . S
H512 C518 0.943 . S
H513 C521 0.930 . S
H514 C522 0.930 . S
H515 C523 0.930 . S
H516 C526 0.930 . S
H517 C527 0.930 . S
C518 H512 0.943 . S
C518 C519 1.355 . S
C518 C520 1.415 . S
C519 C518 1.355 . S
C519 C521 1.419 . S
C520 C518 1.415 . S
C520 C525 1.425 . S
C520 C527 1.409 . S
C521 H513 0.930 . S
C521 C519 1.419 . S
C521 C522 1.362 . S
C522 H514 0.930 . S
C522 C521 1.362 . S
C522 C525 1.409 . S
C523 H515 0.930 . S
C523 C524 1.355 . S
C523 C525 1.415 . S
C524 C523 1.355 . S
C524 C526 1.419 . S
C525 C520 1.425 . S
C525 C522 1.409 . S
C525 C523 1.415 . S
C526 H516 0.930 . S
C526 C524 1.419 . S
C526 C527 1.362 . S
C527 H517 0.930 . S
C527 C520 1.409 . S
C527 C526 1.362 . S
H528 C534 0.930 . S
H529 C537 0.930 . S
H530 C538 0.930 . S
H531 C539 0.930 . S
H532 C542 0.930 1_565 S
H533 C543 0.930 1_565 S
C534 H528 0.930 . S
C534 C535 1.355 . S
C534 C536 1.415 . S
C535 C534 1.355 . S
C535 C537 1.419 . S
C536 C534 1.415 . S
C536 C541 1.425 . S
C536 C543 1.409 . S
C537 H529 0.930 . S
C537 C535 1.419 . S
C537 C538 1.362 . S
C538 H530 0.930 . S
C538 C537 1.362 . S
C538 C541 1.409 . S
C539 H531 0.930 . S
C539 C540 1.355 . S
C539 C541 1.415 . S
C540 C539 1.355 . S
C540 C542 1.419 . S
C541 C536 1.425 . S
C541 C538 1.409 . S
C541 C539 1.415 . S
C542 H532 0.930 1_545 S
C542 C540 1.419 . S
C542 C543 1.362 . S
C543 H533 0.930 1_545 S
C543 C536 1.409 . S
C543 C542 1.362 . S
H544 C550 0.930 . S
H545 C553 0.930 . S
H546 C554 0.930 . S
H547 C555 0.930 . S
H548 C558 0.930 . S
H549 C559 0.930 . S
C550 H544 0.930 . S
C550 C551 1.355 . S
C550 C552 1.415 . S
C551 C550 1.355 . S
C551 C553 1.419 . S
C552 C550 1.415 . S
C552 C557 1.425 . S
C552 C559 1.409 . S
C553 H545 0.930 . S
C553 C551 1.419 . S
C553 C554 1.362 . S
C554 H546 0.930 . S
C554 C553 1.362 . S
C554 C557 1.409 . S
C555 H547 0.930 . S
C555 C556 1.355 . S
C555 C557 1.415 . S
C556 C555 1.355 . S
C556 C558 1.419 . S
C557 C552 1.425 . S
C557 C554 1.409 . S
C557 C555 1.415 . S
C558 H548 0.930 . S
C558 C556 1.419 . S
C558 C559 1.362 . S
C559 H549 0.930 . S
C559 C552 1.409 . S
C559 C558 1.362 . S
H560 C566 0.930 . S
H561 C569 0.930 . S
H562 C570 0.930 . S
H563 C571 0.930 . S
H564 C574 0.930 . S
H565 C575 0.930 . S
C566 H560 0.930 . S
C566 C567 1.355 . S
C566 C568 1.415 . S
C567 C566 1.355 . S
C567 C569 1.419 . S
C568 C566 1.415 . S
C568 C573 1.425 . S
C568 C575 1.409 . S
C569 H561 0.930 . S
C569 C567 1.419 . S
C569 C570 1.362 . S
C570 H562 0.930 . S
C570 C569 1.362 . S
C570 C573 1.409 . S
C571 H563 0.930 . S
C571 C572 1.355 . S
C571 C573 1.415 . S
C572 C571 1.355 . S
C572 C574 1.419 . S
C573 C568 1.425 . S
C573 C570 1.409 . S
C573 C571 1.415 . S
C574 H564 0.930 . S
C574 C572 1.419 . S
C574 C575 1.362 . S
C575 H565 0.930 . S
C575 C568 1.409 . S
C575 C574 1.362 . S
H576 C582 0.930 . S
H577 C585 0.930 . S
H578 C586 0.930 . S
H579 C587 0.930 . S
H580 C590 0.930 . S
H581 C591 0.930 . S
C582 H576 0.930 . S
C582 C583 1.355 . S
C582 C584 1.415 . S
C583 C582 1.355 . S
C583 C585 1.419 . S
C584 C582 1.415 . S
C584 C589 1.425 . S
C584 C591 1.409 . S
C585 H577 0.930 . S
C585 C583 1.419 . S
C585 C586 1.362 . S
C586 H578 0.930 . S
C586 C585 1.362 . S
C586 C589 1.409 . S
C587 H579 0.930 . S
C587 C588 1.355 . S
C587 C589 1.415 . S
C588 C587 1.355 . S
C588 C590 1.419 . S
C589 C584 1.425 . S
C589 C586 1.409 . S
C589 C587 1.415 . S
C590 H580 0.930 . S
C590 C588 1.419 . S
C590 C591 1.362 . S
C591 H581 0.930 . S
C591 C584 1.409 . S
C591 C590 1.362 . S
H592 C598 0.930 . S
H593 C601 0.930 . S
H594 C602 0.930 . S
H595 C603 0.930 . S
H596 C606 0.930 . S
H597 C607 0.930 . S
C598 H592 0.930 . S
C598 C599 1.355 . S
C598 C600 1.415 . S
C599 C598 1.355 . S
C599 C601 1.419 . S
C600 C598 1.415 . S
C600 C605 1.425 . S
C600 C607 1.409 . S
C601 H593 0.930 . S
C601 C599 1.419 . S
C601 C602 1.362 . S
C602 H594 0.930 . S
C602 C601 1.362 . S
C602 C605 1.409 . S
C603 H595 0.930 . S
C603 C604 1.355 . S
C603 C605 1.415 . S
C604 C603 1.355 . S
C604 C606 1.419 . S
C605 C600 1.425 . S
C605 C602 1.409 . S
C605 C603 1.415 . S
C606 H596 0.930 . S
C606 C604 1.419 . S
C606 C607 1.362 . S
C607 H597 0.930 . S
C607 C600 1.409 . S
C607 C606 1.362 . S
H608 C614 0.930 . S
H609 C617 0.930 . S
H610 C618 0.930 . S
H611 C619 0.930 . S
H612 C622 0.930 . S
H613 C623 0.930 . S
C614 H608 0.930 . S
C614 C615 1.355 . S
C614 C616 1.415 . S
C615 C614 1.355 . S
C615 C617 1.419 . S
C616 C614 1.415 . S
C616 C621 1.425 . S
C616 C623 1.409 . S
C617 H609 0.930 . S
C617 C615 1.419 . S
C617 C618 1.362 . S
C618 H610 0.930 . S
C618 C617 1.362 . S
C618 C621 1.409 . S
C619 H611 0.930 . S
C619 C620 1.355 . S
C619 C621 1.415 . S
C620 C619 1.355 . S
C620 C622 1.419 . S
C621 C616 1.425 . S
C621 C618 1.409 . S
C621 C619 1.415 . S
C622 H612 0.930 . S
C622 C620 1.419 . S
C622 C623 1.362 . S
C623 H613 0.930 . S
C623 C616 1.409 . S
C623 C622 1.362 . S
H624 C630 0.930 . S
H625 C633 0.930 . S
H626 C634 0.930 . S
H627 C635 0.930 . S
H628 C638 0.930 1_655 S
H629 C639 0.930 1_655 S
C630 H624 0.930 . S
C630 C631 1.355 . S
C630 C632 1.415 . S
C631 C630 1.355 . S
C631 C633 1.419 . S
C632 C630 1.415 . S
C632 C637 1.425 . S
C632 C639 1.409 . S
C633 H625 0.930 . S
C633 C631 1.419 . S
C633 C634 1.362 . S
C634 H626 0.930 . S
C634 C633 1.362 . S
C634 C637 1.409 . S
C635 H627 0.930 . S
C635 C636 1.355 . S
C635 C637 1.415 . S
C636 C635 1.355 . S
C636 C638 1.419 . S
C637 C632 1.425 . S
C637 C634 1.409 . S
C637 C635 1.415 . S
C638 H628 0.930 1_455 S
C638 C636 1.419 . S
C638 C639 1.362 . S
C639 H629 0.930 1_455 S
C639 C632 1.409 . S
C639 C638 1.362 . S
H640 C646 0.930 . S
H641 C649 0.930 . S
H642 C650 0.930 . S
H643 C651 0.930 . S
H644 C654 0.930 . S
H645 C655 0.930 . S
C646 H640 0.930 . S
C646 C647 1.355 . S
C646 C648 1.415 . S
C647 C646 1.355 . S
C647 C649 1.419 1_655 S
C648 C646 1.415 . S
C648 C653 1.425 . S
C648 C655 1.409 . S
C649 H641 0.930 . S
C649 C647 1.419 1_455 S
C649 C650 1.362 . S
C650 H642 0.930 . S
C650 C649 1.362 . S
C650 C653 1.409 1_455 S
C651 H643 0.930 . S
C651 C652 1.355 . S
C651 C653 1.415 . S
C652 C651 1.355 . S
C652 C654 1.419 . S
C653 C648 1.425 . S
C653 C650 1.409 1_655 S
C653 C651 1.415 . S
C654 H644 0.930 . S
C654 C652 1.419 . S
C654 C655 1.362 . S
C655 H645 0.930 . S
C655 C648 1.409 . S
C655 C654 1.362 . S
H656 C662 0.930 . S
H657 C665 0.930 . S
H658 C666 0.930 . S
H659 C667 0.930 . S
H660 C670 0.930 . S
H661 C671 0.930 . S
C662 H656 0.930 . S
C662 C663 1.355 . S
C662 C664 1.415 . S
C663 C662 1.355 . S
C663 C665 1.419 . S
C664 C662 1.415 . S
C664 C669 1.425 . S
C664 C671 1.409 . S
C665 H657 0.930 . S
C665 C663 1.419 . S
C665 C666 1.362 . S
C666 H658 0.930 . S
C666 C665 1.362 . S
C666 C669 1.409 . S
C667 H659 0.930 . S
C667 C668 1.355 . S
C667 C669 1.415 . S
C668 C667 1.355 . S
C668 C670 1.419 . S
C669 C664 1.425 . S
C669 C666 1.409 . S
C669 C667 1.415 . S
C670 H660 0.930 . S
C670 C668 1.419 . S
C670 C671 1.362 . S
C671 H661 0.930 . S
C671 C664 1.409 . S
C671 C670 1.362 . S
H672 C678 0.930 . S
H673 C681 0.930 . S
H674 C682 0.930 . S
H675 C683 0.930 . S
H676 C686 0.930 . S
H677 C687 0.930 . S
C678 H672 0.930 . S
C678 C679 1.355 . S
C678 C680 1.415 . S
C679 C678 1.355 . S
C679 C681 1.419 . S
C680 C678 1.415 . S
C680 C685 1.425 . S
C680 C687 1.409 . S
C681 H673 0.930 . S
C681 C679 1.419 . S
C681 C682 1.362 . S
C682 H674 0.930 . S
C682 C681 1.362 . S
C682 C685 1.409 . S
C683 H675 0.930 . S
C683 C684 1.355 . S
C683 C685 1.415 . S
C684 C683 1.355 . S
C684 C686 1.419 . S
C685 C680 1.425 . S
C685 C682 1.409 . S
C685 C683 1.415 . S
C686 H676 0.930 . S
C686 C684 1.419 . S
C686 C687 1.362 . S
C687 H677 0.930 . S
C687 C680 1.409 . S
C687 C686 1.362 . S
H688 C694 0.930 . S
H689 C697 0.930 . S
H690 C698 0.930 . S
H691 C699 0.930 . S
H692 C702 0.930 . S
H693 C703 0.930 . S
C694 H688 0.930 . S
C694 C695 1.355 . S
C694 C696 1.415 . S
C695 C694 1.355 . S
C695 C697 1.419 . S
C696 C694 1.415 . S
C696 C701 1.425 . S
C696 C703 1.409 . S
C697 H689 0.930 . S
C697 C695 1.419 . S
C697 C698 1.362 . S
C698 H690 0.930 . S
C698 C697 1.362 . S
C698 C701 1.409 . S
C699 H691 0.930 . S
C699 C700 1.355 . S
C699 C701 1.415 . S
C700 C699 1.355 . S
C700 C702 1.419 . S
C701 C696 1.425 . S
C701 C698 1.409 . S
C701 C699 1.415 . S
C702 H692 0.930 . S
C702 C700 1.419 . S
C702 C703 1.362 . S
C703 H693 0.930 . S
C703 C696 1.409 . S
C703 C702 1.362 . S
H704 C710 0.930 . S
H705 C713 0.930 . S
H706 C714 0.930 . S
H707 C715 0.930 . S
H708 C718 0.930 . S
H709 C719 0.930 . S
C710 H704 0.930 . S
C710 C711 1.355 . S
C710 C712 1.415 . S
C711 C710 1.355 . S
C711 C713 1.419 . S
C712 C710 1.415 . S
C712 C717 1.425 . S
C712 C719 1.409 . S
C713 H705 0.930 . S
C713 C711 1.419 . S
C713 C714 1.362 . S
C714 H706 0.930 . S
C714 C713 1.362 . S
C714 C717 1.409 . S
C715 H707 0.930 . S
C715 C716 1.355 . S
C715 C717 1.415 . S
C716 C715 1.355 . S
C716 C718 1.419 . S
C717 C712 1.425 . S
C717 C714 1.409 . S
C717 C715 1.415 . S
C718 H708 0.930 . S
C718 C716 1.419 . S
C718 C719 1.362 . S
C719 H709 0.930 . S
C719 C712 1.409 . S
C719 C718 1.362 . S
H720 C726 0.930 . S
H721 C729 0.930 . S
H722 C730 0.930 . S
H723 C731 0.930 1_565 S
H724 C734 0.930 . S
H725 C735 0.930 . S
C726 H720 0.930 . S
C726 C727 1.355 . S
C726 C728 1.415 1_554 S
C727 C726 1.355 . S
C727 C729 1.419 . S
C728 C726 1.415 1_556 S
C728 C733 1.425 . S
C728 C735 1.409 . S
C729 H721 0.930 . S
C729 C727 1.419 . S
C729 C730 1.362 . S
C730 H722 0.930 . S
C730 C729 1.362 . S
C730 C733 1.409 1_554 S
C731 H723 0.930 1_545 S
C731 C732 1.355 . S
C731 C733 1.415 . S
C732 C731 1.355 . S
C732 C734 1.419 . S
C733 C728 1.425 . S
C733 C730 1.409 1_556 S
C733 C731 1.415 . S
C734 H724 0.930 . S
C734 C732 1.419 . S
C734 C735 1.362 . S
C735 H725 0.930 . S
C735 C728 1.409 . S
C735 C734 1.362 . S
H736 C742 0.930 . S
H737 C745 0.930 . S
H738 C746 0.930 . S
H739 C747 0.930 . S
H740 C750 0.930 . S
H741 C751 0.930 . S
C742 H736 0.930 . S
C742 C743 1.355 . S
C742 C744 1.415 . S
C743 C742 1.355 . S
C743 C745 1.419 . S
C744 C742 1.415 . S
C744 C749 1.425 . S
C744 C751 1.409 . S
C745 H737 0.930 . S
C745 C743 1.419 . S
C745 C746 1.362 . S
C746 H738 0.930 . S
C746 C745 1.362 . S
C746 C749 1.409 . S
C747 H739 0.930 . S
C747 C748 1.355 . S
C747 C749 1.415 . S
C748 C747 1.355 . S
C748 C750 1.419 . S
C749 C744 1.425 . S
C749 C746 1.409 . S
C749 C747 1.415 . S
C750 H740 0.930 . S
C750 C748 1.419 . S
C750 C751 1.362 . S
C751 H741 0.930 . S
C751 C744 1.409 . S
C751 C750 1.362 . S
H752 C758 0.930 . S
H753 C761 0.930 . S
H754 C762 0.930 . S
H755 C763 0.930 . S
H756 C766 0.930 . S
H757 C767 0.930 . S
C758 H752 0.930 . S
C758 C759 1.355 . S
C758 C760 1.415 1_554 S
C759 C758 1.355 . S
C759 C761 1.419 . S
C760 C758 1.415 1_556 S
C760 C765 1.425 . S
C760 C767 1.409 . S
C761 H753 0.930 . S
C761 C759 1.419 . S
C761 C762 1.362 1_554 S
C762 H754 0.930 . S
C762 C761 1.362 1_556 S
C762 C765 1.409 . S
C763 H755 0.930 . S
C763 C764 1.355 . S
C763 C765 1.415 . S
C764 C763 1.355 . S
C764 C766 1.419 . S
C765 C760 1.425 . S
C765 C762 1.409 . S
C765 C763 1.415 . S
C766 H756 0.930 . S
C766 C764 1.419 . S
C766 C767 1.362 . S
C767 H757 0.930 . S
C767 C760 1.409 . S
C767 C766 1.362 . S
H768 C774 0.930 . S
H769 C777 0.930 . S
H770 C778 0.930 . S
H771 C779 0.930 . S
H772 C782 0.930 . S
H773 C783 0.930 . S
C774 H768 0.930 . S
C774 C775 1.355 . S
C774 C776 1.415 . S
C775 C774 1.355 . S
C775 C777 1.419 . S
C776 C774 1.415 . S
C776 C781 1.425 . S
C776 C783 1.409 . S
C777 H769 0.930 . S
C777 C775 1.419 . S
C777 C778 1.362 . S
C778 H770 0.930 . S
C778 C777 1.362 . S
C778 C781 1.409 . S
C779 H771 0.930 . S
C779 C780 1.355 . S
C779 C781 1.415 . S
C780 C779 1.355 . S
C780 C782 1.419 . S
C781 C776 1.425 . S
C781 C778 1.409 . S
C781 C779 1.415 . S
C782 H772 0.930 . S
C782 C780 1.419 . S
C782 C783 1.362 . S
C783 H773 0.930 . S
C783 C776 1.409 . S
C783 C782 1.362 . S
H784 C790 0.930 . S
H785 C793 0.930 . S
H786 C794 0.930 . S
H787 C795 0.930 . S
H788 C798 0.930 . S
H789 C799 0.930 . S
C790 H784 0.930 . S
C790 C791 1.355 . S
C790 C792 1.415 . S
C791 C790 1.355 . S
C791 C793 1.419 . S
C792 C790 1.415 . S
C792 C797 1.425 . S
C792 C799 1.409 . S
C793 H785 0.930 . S
C793 C791 1.419 . S
C793 C794 1.362 . S
C794 H786 0.930 . S
C794 C793 1.362 . S
C794 C797 1.409 . S
C795 H787 0.930 . S
C795 C796 1.355 . S
C795 C797 1.415 . S
C796 C795 1.355 . S
C796 C798 1.419 . S
C797 C792 1.425 . S
C797 C794 1.409 . S
C797 C795 1.415 . S
C798 H788 0.930 . S
C798 C796 1.419 . S
C798 C799 1.362 . S
C799 H789 0.930 . S
C799 C792 1.409 . S
C799 C798 1.362 . S
H800 C806 0.930 . S
H801 C809 0.930 . S
H802 C810 0.930 . S
H803 C811 0.930 . S
H804 C814 0.930 . S
H805 C815 0.930 . S
C806 H800 0.930 . S
C806 C807 1.355 . S
C806 C808 1.415 . S
C807 C806 1.355 . S
C807 C809 1.419 . S
C808 C806 1.415 . S
C808 C813 1.425 . S
C808 C815 1.409 . S
C809 H801 0.930 . S
C809 C807 1.419 . S
C809 C810 1.362 . S
C810 H802 0.930 . S
C810 C809 1.362 . S
C810 C813 1.409 . S
C811 H803 0.930 . S
C811 C812 1.355 . S
C811 C813 1.415 . S
C812 C811 1.355 . S
C812 C814 1.419 . S
C813 C808 1.425 . S
C813 C810 1.409 . S
C813 C811 1.415 . S
C814 H804 0.930 . S
C814 C812 1.419 . S
C814 C815 1.362 . S
C815 H805 0.930 . S
C815 C808 1.409 . S
C815 C814 1.362 . S
H816 C822 0.930 . S
H817 C825 0.930 . S
H818 C826 0.930 . S
H819 C827 0.930 . S
H820 C830 0.930 1_655 S
H821 C831 0.930 1_655 S
C822 H816 0.930 . S
C822 C823 1.355 . S
C822 C824 1.415 . S
C823 C822 1.355 . S
C823 C825 1.419 . S
C824 C822 1.415 . S
C824 C829 1.425 . S
C824 C831 1.409 . S
C825 H817 0.930 . S
C825 C823 1.419 . S
C825 C826 1.362 . S
C826 H818 0.930 . S
C826 C825 1.362 . S
C826 C829 1.409 . S
C827 H819 0.930 . S
C827 C828 1.355 . S
C827 C829 1.415 1_565 S
C828 C827 1.355 . S
C828 C830 1.419 . S
C829 C824 1.425 . S
C829 C826 1.409 . S
C829 C827 1.415 1_545 S
C830 H820 0.930 1_455 S
C830 C828 1.419 . S
C830 C831 1.362 1_565 S
C831 H821 0.930 1_455 S
C831 C824 1.409 . S
C831 C830 1.362 1_545 S
H832 C838 0.930 . S
H833 C841 0.930 . S
H834 C842 0.930 . S
H835 C843 0.930 . S
H836 C846 0.930 . S
H837 C847 0.930 . S
C838 H832 0.930 . S
C838 C839 1.355 . S
C838 C840 1.415 . S
C839 C838 1.355 . S
C839 C841 1.419 . S
C840 C838 1.415 . S
C840 C845 1.425 . S
C840 C847 1.409 . S
C841 H833 0.930 . S
C841 C839 1.419 . S
C841 C842 1.362 . S
C842 H834 0.930 . S
C842 C841 1.362 . S
C842 C845 1.409 . S
C843 H835 0.930 . S
C843 C844 1.355 . S
C843 C845 1.415 . S
C844 C843 1.355 . S
C844 C846 1.419 . S
C845 C840 1.425 . S
C845 C842 1.409 . S
C845 C843 1.415 . S
C846 H836 0.930 . S
C846 C844 1.419 . S
C846 C847 1.362 . S
C847 H837 0.930 . S
C847 C840 1.409 . S
C847 C846 1.362 . S
H848 C854 0.930 . S
H849 C857 0.930 . S
H850 C858 0.930 . S
H851 C859 0.930 . S
H852 C862 0.930 . S
H853 C863 0.930 . S
C854 H848 0.930 . S
C854 C855 1.355 . S
C854 C856 1.415 . S
C855 C854 1.355 . S
C855 C857 1.419 . S
C856 C854 1.415 . S
C856 C861 1.425 . S
C856 C863 1.409 1_545 S
C857 H849 0.930 . S
C857 C855 1.419 . S
C857 C858 1.362 . S
C858 H850 0.930 . S
C858 C857 1.362 . S
C858 C861 1.409 . S
C859 H851 0.930 . S
C859 C860 1.355 . S
C859 C861 1.415 1_565 S
C860 C859 1.355 . S
C860 C862 1.419 . S
C861 C856 1.425 . S
C861 C858 1.409 . S
C861 C859 1.415 1_545 S
C862 H852 0.930 . S
C862 C860 1.419 . S
C862 C863 1.362 . S
C863 H853 0.930 . S
C863 C856 1.409 1_565 S
C863 C862 1.362 . S
H864 C870 0.930 . S
H865 C873 0.930 . S
H866 C874 0.930 . S
H867 C875 0.930 . S
H868 C878 0.930 . S
H869 C879 0.930 . S
C870 H864 0.930 . S
C870 C871 1.355 . S
C870 C872 1.415 . S
C871 C870 1.355 . S
C871 C873 1.419 . S
C872 C870 1.415 . S
C872 C877 1.425 . S
C872 C879 1.409 . S
C873 H865 0.930 . S
C873 C871 1.419 . S
C873 C874 1.362 . S
C874 H866 0.930 . S
C874 C873 1.362 . S
C874 C877 1.409 . S
C875 H867 0.930 . S
C875 C876 1.355 . S
C875 C877 1.415 . S
C876 C875 1.355 . S
C876 C878 1.419 . S
C877 C872 1.425 . S
C877 C874 1.409 . S
C877 C875 1.415 . S
C878 H868 0.930 . S
C878 C876 1.419 . S
C878 C879 1.362 . S
C879 H869 0.930 . S
C879 C872 1.409 . S
C879 C878 1.362 . S
H880 C886 0.930 . S
H881 C889 0.930 . S
H882 C890 0.930 . S
H883 C891 0.930 . S
H884 C894 0.930 . S
H885 C895 0.930 . S
C886 H880 0.930 . S
C886 C887 1.355 . S
C886 C888 1.415 . S
C887 C886 1.355 . S
C887 C889 1.419 . S
C888 C886 1.415 . S
C888 C893 1.425 . S
C888 C895 1.409 . S
C889 H881 0.930 . S
C889 C887 1.419 . S
C889 C890 1.362 . S
C890 H882 0.930 . S
C890 C889 1.362 . S
C890 C893 1.409 . S
C891 H883 0.930 . S
C891 C892 1.355 . S
C891 C893 1.415 . S
C892 C891 1.355 . S
C892 C894 1.419 . S
C893 C888 1.425 . S
C893 C890 1.409 . S
C893 C891 1.415 . S
C894 H884 0.930 . S
C894 C892 1.419 . S
C894 C895 1.362 . S
C895 H885 0.930 . S
C895 C888 1.409 . S
C895 C894 1.362 . S
H896 C902 0.930 . S
H897 C905 0.930 . S
H898 C906 0.930 . S
H899 C907 0.930 . S
H900 C910 0.930 . S
H901 C911 0.930 . S
C902 H896 0.930 . S
C902 C903 1.355 . S
C902 C904 1.415 . S
C903 C902 1.355 . S
C903 C905 1.419 . S
C904 C902 1.415 . S
C904 C909 1.425 . S
C904 C911 1.409 . S
C905 H897 0.930 . S
C905 C903 1.419 . S
C905 C906 1.362 . S
C906 H898 0.930 . S
C906 C905 1.362 . S
C906 C909 1.409 . S
C907 H899 0.930 . S
C907 C908 1.355 . S
C907 C909 1.415 . S
C908 C907 1.355 . S
C908 C910 1.419 . S
C909 C904 1.425 . S
C909 C906 1.409 . S
C909 C907 1.415 . S
C910 H900 0.930 . S
C910 C908 1.419 . S
C910 C911 1.362 . S
C911 H901 0.930 . S
C911 C904 1.409 . S
C911 C910 1.362 . S
H912 C918 0.930 . S
H913 C921 0.930 . S
H914 C922 0.930 . S
H915 C923 0.930 . S
H916 C926 0.930 . S
H917 C927 0.930 . S
C918 H912 0.930 . S
C918 C919 1.355 . S
C918 C920 1.415 . S
C919 C918 1.355 . S
C919 C921 1.419 . S
C920 C918 1.415 . S
C920 C925 1.425 . S
C920 C927 1.409 . S
C921 H913 0.930 . S
C921 C919 1.419 . S
C921 C922 1.362 . S
C922 H914 0.930 . S
C922 C921 1.362 . S
C922 C925 1.409 . S
C923 H915 0.930 . S
C923 C924 1.355 . S
C923 C925 1.415 . S
C924 C923 1.355 . S
C924 C926 1.419 . S
C925 C920 1.425 . S
C925 C922 1.409 . S
C925 C923 1.415 . S
C926 H916 0.930 . S
C926 C924 1.419 . S
C926 C927 1.362 . S
C927 H917 0.930 . S
C927 C920 1.409 . S
C927 C926 1.362 . S
H928 C934 0.930 . S
H929 C937 0.930 . S
H930 C938 0.930 . S
H931 C939 0.930 . S
H932 C942 0.930 . S
H933 C943 0.930 . S
C934 H928 0.930 . S
C934 C935 1.355 . S
C934 C936 1.415 . S
C935 C934 1.355 . S
C935 C937 1.419 . S
C936 C934 1.415 . S
C936 C941 1.425 . S
C936 C943 1.409 . S
C937 H929 0.930 . S
C937 C935 1.419 . S
C937 C938 1.362 . S
C938 H930 0.930 . S
C938 C937 1.362 . S
C938 C941 1.409 . S
C939 H931 0.930 . S
C939 C940 1.355 . S
C939 C941 1.415 . S
C940 C939 1.355 . S
C940 C942 1.419 . S
C941 C936 1.425 . S
C941 C938 1.409 . S
C941 C939 1.415 . S
C942 H932 0.930 . S
C942 C940 1.419 . S
C942 C943 1.362 . S
C943 H933 0.930 . S
C943 C936 1.409 . S
C943 C942 1.362 . S
H944 C950 0.930 . S
H945 C953 0.930 . S
H946 C954 0.930 . S
H947 C955 0.930 . S
H948 C958 0.930 . S
H949 C959 0.930 . S
C950 H944 0.930 . S
C950 C951 1.355 . S
C950 C952 1.415 . S
C951 C950 1.355 . S
C951 C953 1.419 . S
C952 C950 1.415 . S
C952 C957 1.425 . S
C952 C959 1.409 . S
C953 H945 0.930 . S
C953 C951 1.419 . S
C953 C954 1.362 . S
C954 H946 0.930 . S
C954 C953 1.362 . S
C954 C957 1.409 . S
C955 H947 0.930 . S
C955 C956 1.355 . S
C955 C957 1.415 . S
C956 C955 1.355 . S
C956 C958 1.419 . S
C957 C952 1.425 . S
C957 C954 1.409 . S
C957 C955 1.415 . S
C958 H948 0.930 . S
C958 C956 1.419 . S
C958 C959 1.362 . S
C959 H949 0.930 . S
C959 C952 1.409 . S
C959 C958 1.362 . S
H960 C966 0.930 . S
H961 C969 0.930 . S
H962 C970 0.930 . S
H963 C971 0.930 . S
H964 C974 0.930 . S
H965 C975 0.930 . S
C966 H960 0.930 . S
C966 C967 1.355 . S
C966 C968 1.411 . S
C967 C966 1.355 . S
C967 C969 1.419 . S
C968 C966 1.411 . S
C968 C973 1.425 1_455 S
C968 C975 1.413 1_455 S
C969 H961 0.930 . S
C969 C967 1.419 . S
C969 C970 1.362 . S
C970 H962 0.930 . S
C970 C969 1.362 . S
C970 C973 1.409 1_455 S
C971 H963 0.930 . S
C971 C972 1.355 . S
C971 C973 1.415 . S
C972 C971 1.355 . S
C972 C974 1.419 . S
C973 C968 1.425 1_655 S
C973 C970 1.409 1_655 S
C973 C971 1.415 . S
C974 H964 0.930 . S
C974 C972 1.419 . S
C974 C975 1.362 . S
C975 H965 0.930 . S
C975 C968 1.413 1_655 S
C975 C974 1.362 . S
H976 C982 0.930 . S
H977 C985 0.930 . S
H978 C986 0.930 . S
H979 C987 0.930 . S
H980 C990 0.930 . S
H981 C991 0.930 . S
C982 H976 0.930 . S
C982 C983 1.355 . S
C982 C984 1.415 . S
C983 C982 1.355 . S
C983 C985 1.419 . S
C984 C982 1.415 . S
C984 C989 1.425 . S
C984 C991 1.409 . S
C985 H977 0.930 . S
C985 C983 1.419 . S
C985 C986 1.362 . S
C986 H978 0.930 . S
C986 C985 1.362 . S
C986 C989 1.409 . S
C987 H979 0.930 . S
C987 C988 1.355 . S
C987 C989 1.415 . S
C988 C987 1.355 . S
C988 C990 1.419 . S
C989 C984 1.425 . S
C989 C986 1.409 . S
C989 C987 1.415 . S
C990 H980 0.930 . S
C990 C988 1.419 . S
C990 C991 1.362 . S
C991 H981 0.930 . S
C991 C984 1.409 . S
C991 C990 1.362 . S
H992 C998 0.930 . S
H993 C1001 0.930 . S
H994 C1002 0.930 . S
H995 C1003 0.930 . S
H996 C1006 0.930 . S
H997 C1007 0.930 . S
C998 H992 0.930 . S
C998 C999 1.355 . S
C998 C1000 1.415 . S
C999 C998 1.355 . S
C999 C1001 1.419 . S
C1000 C998 1.415 . S
C1000 C1005 1.425 . S
C1000 C1007 1.409 . S
C1001 H993 0.930 . S
C1001 C999 1.419 . S
C1001 C1002 1.362 . S
C1002 H994 0.930 . S
C1002 C1001 1.362 . S
C1002 C1005 1.409 . S
C1003 H995 0.930 . S
C1003 C1004 1.355 . S
C1003 C1005 1.415 . S
C1004 C1003 1.355 . S
C1004 C1006 1.419 . S
C1005 C1000 1.425 . S
C1005 C1002 1.409 . S
C1005 C1003 1.415 . S
C1006 H996 0.930 . S
C1006 C1004 1.419 . S
C1006 C1007 1.362 . S
C1007 H997 0.930 . S
C1007 C1000 1.409 . S
C1007 C1006 1.362 . S
H1008 C1014 0.930 . S
H1009 C1017 0.930 . S
H1010 C1018 0.930 . S
H1011 C1019 0.930 . S
H1012 C1022 0.930 . S
H1013 C1023 0.930 . S
C1014 H1008 0.930 . S
C1014 C1015 1.355 . S
C1014 C1016 1.415 . S
C1015 C1014 1.355 . S
C1015 C1017 1.419 . S
C1016 C1014 1.415 . S
C1016 C1021 1.425 . S
C1016 C1023 1.409 . S
C1017 H1009 0.930 . S
C1017 C1015 1.419 . S
C1017 C1018 1.362 . S
C1018 H1010 0.930 . S
C1018 C1017 1.362 . S
C1018 C1021 1.409 . S
C1019 H1011 0.930 . S
C1019 C1020 1.355 . S
C1019 C1021 1.415 . S
C1020 C1019 1.355 . S
C1020 C1022 1.419 . S
C1021 C1016 1.425 . S
C1021 C1018 1.409 . S
C1021 C1019 1.415 . S
C1022 H1012 0.930 . S
C1022 C1020 1.419 . S
C1022 C1023 1.362 . S
C1023 H1013 0.930 . S
C1023 C1016 1.409 . S
C1023 C1022 1.362 . S
H1024 C1030 0.930 . S
H1025 C1033 0.930 . S
H1026 C1034 0.930 . S
H1027 C1035 0.930 . S
H1028 C1038 0.930 . S
H1029 C1039 0.930 . S
C1030 H1024 0.930 . S
C1030 C1031 1.355 . S
C1030 C1032 1.415 . S
C1031 C1030 1.355 . S
C1031 C1033 1.419 . S
C1032 C1030 1.415 . S
C1032 C1037 1.425 . S
C1032 C1039 1.409 . S
C1033 H1025 0.930 . S
C1033 C1031 1.419 . S
C1033 C1034 1.362 . S
C1034 H1026 0.930 . S
C1034 C1033 1.362 . S
C1034 C1037 1.409 . S
C1035 H1027 0.930 . S
C1035 C1036 1.355 . S
C1035 C1037 1.415 . S
C1036 C1035 1.355 . S
C1036 C1038 1.419 . S
C1037 C1032 1.425 . S
C1037 C1034 1.409 . S
C1037 C1035 1.415 . S
C1038 H1028 0.930 . S
C1038 C1036 1.419 . S
C1038 C1039 1.362 . S
C1039 H1029 0.930 . S
C1039 C1032 1.409 . S
C1039 C1038 1.362 . S
H1040 C1046 0.930 . S
H1041 C1049 0.930 . S
H1042 C1050 0.930 . S
H1043 C1051 0.930 . S
H1044 C1054 0.930 . S
H1045 C1055 0.930 . S
C1046 H1040 0.930 . S
C1046 C1047 1.355 . S
C1046 C1048 1.415 . S
C1047 C1046 1.355 . S
C1047 C1049 1.419 . S
C1048 C1046 1.415 . S
C1048 C1053 1.425 . S
C1048 C1055 1.409 . S
C1049 H1041 0.930 . S
C1049 C1047 1.419 . S
C1049 C1050 1.362 . S
C1050 H1042 0.930 . S
C1050 C1049 1.362 . S
C1050 C1053 1.409 . S
C1051 H1043 0.930 . S
C1051 C1052 1.355 . S
C1051 C1053 1.415 1_455 S
C1052 C1051 1.355 . S
C1052 C1054 1.419 . S
C1053 C1048 1.425 . S
C1053 C1050 1.409 . S
C1053 C1051 1.415 1_655 S
C1054 H1044 0.930 . S
C1054 C1052 1.419 . S
C1054 C1055 1.362 1_455 S
C1055 H1045 0.930 . S
C1055 C1048 1.409 . S
C1055 C1054 1.362 1_655 S
C487 C18 1.181 . S
C492 C458 1.159 . S
C503 C379 1.692 . S
C508 C58 1.834 . S
C519 C99 1.382 . S
C524 C338 1.409 . S
C535 C138 2.107 . S
C540 C418 2.111 . S
C551 C178 1.717 . S
C556 C419 1.704 . S
C567 C219 1.509 . S
C572 C459 1.479 . S
C583 C378 1.924 . S
C588 C258 1.948 . S
C599 C299 1.664 . S
C604 C339 1.757 . S
C615 C139 1.756 . S
C620 C179 1.793 . S
C631 C19 1.579 . S
C636 C218 1.717 . S
C647 C59 1.615 . S
C652 C259 1.599 . S
C663 C298 1.934 . S
C668 C98 1.964 . S
C679 C6 1.655 . S
C684 C329 1.543 . S
C695 C46 1.785 . S
C700 C409 1.660 . S
C711 C449 2.054 . S
C716 C95 2.086 . S
C727 C126 1.532 . S
C732 C370 1.483 . S
C743 C166 1.268 . S
C748 C369 1.239 . S
C759 C330 2.080 . S
C764 C215 1.988 . S
C775 C410 1.358 . S
C780 C246 1.364 . S
C791 C450 2.678 . S
C796 C295 2.556 . S
C807 C10 2.769 . S
C812 C135 2.666 . S
C823 C15 2.027 . S
C828 C50 2.132 . S
C839 C55 2.354 . S
C844 C89 2.330 . S
C855 C130 1.703 . S
C860 C86 1.726 . S
C871 C206 1.496 . S
C876 C170 1.489 . S
C887 C209 1.370 . S
C892 C255 1.438 . S
C903 C250 1.519 . S
C908 C286 1.529 . S
C919 C175 1.051 . S
C924 C289 1.023 . S
C935 C335 1.031 . S
C940 C129 1.020 . S
C951 C210 1.755 . S
C956 C375 1.711 . S
C967 C326 1.426 . S
C972 C249 1.385 . S
C983 C406 1.765 . S
C988 C290 1.759 . S
C999 C169 1.249 . S
C1004 C446 1.362 . S
C1015 C455 1.784 . S
C1020 C49 1.741 . S
C1031 C90 1.549 . S
C1036 C366 1.568 . S
C1047 C415 1.809 . S
C1052 C9 1.775 . S
