# Generated by pormake.
# Topology whk, (6)-cn, num edge types: 1
# Building blocks:
#     Node 0, Type 0, BuildingBlock: OJICUG_clean_sbu_0, # of connection points: 6
#     Node 1, Type 0, BuildingBlock: OJICUG_clean_sbu_0, # of connection points: 6
#     Node 2, Type 0, BuildingBlock: OJICUG_clean_sbu_0, # of connection points: 6
#     Node 3, Type 0, BuildingBlock: OJICUG_clean_sbu_0, # of connection points: 6
#     Node 4, Type 0, BuildingBlock: OJICUG_clean_sbu_0, # of connection points: 6
#     Node 5, Type 0, BuildingBlock: OJICUG_clean_sbu_0, # of connection points: 6
#     Node 6, Type 0, BuildingBlock: OJICUG_clean_sbu_0, # of connection points: 6
#     Node 7, Type 0, BuildingBlock: OJICUG_clean_sbu_0, # of connection points: 6
#     Node 8, Type 0, BuildingBlock: OJICUG_clean_sbu_0, # of connection points: 6
#     Node 9, Type 0, BuildingBlock: OJICUG_clean_sbu_0, # of connection points: 6
#     Node 10, Type 0, BuildingBlock: OJICUG_clean_sbu_0, # of connection points: 6
#     Node 11, Type 0, BuildingBlock: OJICUG_clean_sbu_0, # of connection points: 6
#     Node 12, Type 0, BuildingBlock: OJICUG_clean_sbu_0, # of connection points: 6
#     Node 13, Type 0, BuildingBlock: OJICUG_clean_sbu_0, # of connection points: 6
#     Node 14, Type 0, BuildingBlock: OJICUG_clean_sbu_0, # of connection points: 6
#     Node 15, Type 0, BuildingBlock: OJICUG_clean_sbu_0, # of connection points: 6
#     Edge 16, Type (0, 0), BuildingBlock: EZIPEK_clean_linker_0, # of connection points: 2
#     Edge 17, Type (0, 0), BuildingBlock: EZIPEK_clean_linker_0, # of connection points: 2
#     Edge 18, Type (0, 0), BuildingBlock: EZIPEK_clean_linker_0, # of connection points: 2
#     Edge 19, Type (0, 0), BuildingBlock: EZIPEK_clean_linker_0, # of connection points: 2
#     Edge 20, Type (0, 0), BuildingBlock: EZIPEK_clean_linker_0, # of connection points: 2
#     Edge 21, Type (0, 0), BuildingBlock: EZIPEK_clean_linker_0, # of connection points: 2
#     Edge 22, Type (0, 0), BuildingBlock: EZIPEK_clean_linker_0, # of connection points: 2
#     Edge 23, Type (0, 0), BuildingBlock: EZIPEK_clean_linker_0, # of connection points: 2
#     Edge 24, Type (0, 0), BuildingBlock: EZIPEK_clean_linker_0, # of connection points: 2
#     Edge 25, Type (0, 0), BuildingBlock: EZIPEK_clean_linker_0, # of connection points: 2
#     Edge 26, Type (0, 0), BuildingBlock: EZIPEK_clean_linker_0, # of connection points: 2
#     Edge 27, Type (0, 0), BuildingBlock: EZIPEK_clean_linker_0, # of connection points: 2
#     Edge 28, Type (0, 0), BuildingBlock: EZIPEK_clean_linker_0, # of connection points: 2
#     Edge 29, Type (0, 0), BuildingBlock: EZIPEK_clean_linker_0, # of connection points: 2
#     Edge 30, Type (0, 0), BuildingBlock: EZIPEK_clean_linker_0, # of connection points: 2
#     Edge 31, Type (0, 0), BuildingBlock: EZIPEK_clean_linker_0, # of connection points: 2
#     Edge 32, Type (0, 0), BuildingBlock: EZIPEK_clean_linker_0, # of connection points: 2
#     Edge 33, Type (0, 0), BuildingBlock: EZIPEK_clean_linker_0, # of connection points: 2
#     Edge 34, Type (0, 0), BuildingBlock: EZIPEK_clean_linker_0, # of connection points: 2
#     Edge 35, Type (0, 0), BuildingBlock: EZIPEK_clean_linker_0, # of connection points: 2
#     Edge 36, Type (0, 0), BuildingBlock: EZIPEK_clean_linker_0, # of connection points: 2
#     Edge 37, Type (0, 0), BuildingBlock: EZIPEK_clean_linker_0, # of connection points: 2
#     Edge 38, Type (0, 0), BuildingBlock: EZIPEK_clean_linker_0, # of connection points: 2
#     Edge 39, Type (0, 0), BuildingBlock: EZIPEK_clean_linker_0, # of connection points: 2
#     Edge 40, Type (0, 0), BuildingBlock: EZIPEK_clean_linker_0, # of connection points: 2
#     Edge 41, Type (0, 0), BuildingBlock: EZIPEK_clean_linker_0, # of connection points: 2
#     Edge 42, Type (0, 0), BuildingBlock: EZIPEK_clean_linker_0, # of connection points: 2
#     Edge 43, Type (0, 0), BuildingBlock: EZIPEK_clean_linker_0, # of connection points: 2
#     Edge 44, Type (0, 0), BuildingBlock: EZIPEK_clean_linker_0, # of connection points: 2
#     Edge 45, Type (0, 0), BuildingBlock: EZIPEK_clean_linker_0, # of connection points: 2
#     Edge 46, Type (0, 0), BuildingBlock: EZIPEK_clean_linker_0, # of connection points: 2
#     Edge 47, Type (0, 0), BuildingBlock: EZIPEK_clean_linker_0, # of connection points: 2
#     Edge 48, Type (0, 0), BuildingBlock: EZIPEK_clean_linker_0, # of connection points: 2
#     Edge 49, Type (0, 0), BuildingBlock: EZIPEK_clean_linker_0, # of connection points: 2
#     Edge 50, Type (0, 0), BuildingBlock: EZIPEK_clean_linker_0, # of connection points: 2
#     Edge 51, Type (0, 0), BuildingBlock: EZIPEK_clean_linker_0, # of connection points: 2
#     Edge 52, Type (0, 0), BuildingBlock: EZIPEK_clean_linker_0, # of connection points: 2
#     Edge 53, Type (0, 0), BuildingBlock: EZIPEK_clean_linker_0, # of connection points: 2
#     Edge 54, Type (0, 0), BuildingBlock: EZIPEK_clean_linker_0, # of connection points: 2
#     Edge 55, Type (0, 0), BuildingBlock: EZIPEK_clean_linker_0, # of connection points: 2
#     Edge 56, Type (0, 0), BuildingBlock: EZIPEK_clean_linker_0, # of connection points: 2
#     Edge 57, Type (0, 0), BuildingBlock: EZIPEK_clean_linker_0, # of connection points: 2
#     Edge 58, Type (0, 0), BuildingBlock: EZIPEK_clean_linker_0, # of connection points: 2
#     Edge 59, Type (0, 0), BuildingBlock: EZIPEK_clean_linker_0, # of connection points: 2
#     Edge 60, Type (0, 0), BuildingBlock: EZIPEK_clean_linker_0, # of connection points: 2
#     Edge 61, Type (0, 0), BuildingBlock: EZIPEK_clean_linker_0, # of connection points: 2
#     Edge 62, Type (0, 0), BuildingBlock: EZIPEK_clean_linker_0, # of connection points: 2
#     Edge 63, Type (0, 0), BuildingBlock: EZIPEK_clean_linker_0, # of connection points: 2
# Relax obj value: 0.277
# Max RMSD: 0.215
# Mean RMSD: 0.215
data_MOF--net-whk--node1-OJICUG_clean_sbu_0--edge1-EZIPEK_clean_linker_0
_symmetry_space_group_name_H-M    P1
_symmetry_Int_Tables_number       1
_symmetry_cell_setting            triclinic
loop_
_symmetry_equiv_pos_as_xyz
'x, y, z'
_cell_length_a     27.768439
_cell_length_b     27.725773
_cell_length_c     40.224835
_cell_angle_alpha  89.80931
_cell_angle_beta   89.94135
_cell_angle_gamma 90.128878
loop_
_atom_site_label
_atom_site_type_symbol
_atom_site_fract_x
_atom_site_fract_y
_atom_site_fract_z
_atom_type_partial_charge
Sc0 Sc 0.57431 0.12606 0.40887 0.0
Sc1 Sc 0.58338 0.24775 0.38475 0.0
Sc2 Sc 0.49458 0.21219 0.44206 0.0
O3 O 0.55035 0.19523 0.41154 0.0
C4 C 0.45942 0.11803 0.40309 0.0
C5 C 0.59661 0.16004 0.33398 0.0
C6 C 0.47866 0.28747 0.38171 0.0
C7 C 0.66872 0.18798 0.41706 0.0
C8 C 0.54437 0.12907 0.48565 0.0
C9 C 0.56599 0.29837 0.45603 0.0
O10 O 0.50173 0.10249 0.39638 0.0
O11 O 0.59061 0.20498 0.33935 0.0
O12 O 0.46589 0.26588 0.40832 0.0
O13 O 0.64683 0.14818 0.4221 0.0
O14 O 0.51764 0.1659 0.48284 0.0
O15 O 0.58508 0.29716 0.42716 0.0
O16 O 0.56497 0.11072 0.46067 0.0
O17 O 0.65071 0.22353 0.40165 0.0
O18 O 0.53388 0.26861 0.46545 0.0
O19 O 0.59169 0.12853 0.35666 0.0
O20 O 0.45141 0.15619 0.41988 0.0
O21 O 0.51753 0.2778 0.36667 0.0
Sc22 Sc 0.36748 0.57592 0.39498 0.0
Sc23 Sc 0.24767 0.5698 0.37215 0.0
Sc24 Sc 0.28964 0.50383 0.44013 0.0
O25 O 0.30133 0.54761 0.40173 0.0
C26 C 0.3837 0.46549 0.40134 0.0
C27 C 0.32864 0.57025 0.32002 0.0
C28 C 0.20846 0.46601 0.39465 0.0
C29 C 0.2998 0.66109 0.39056 0.0
C30 C 0.36804 0.57179 0.47209 0.0
C31 C 0.20082 0.57705 0.44383 0.0
O32 O 0.39221 0.50432 0.38516 0.0
O33 O 0.28814 0.54976 0.32708 0.0
O34 O 0.24646 0.45534 0.41064 0.0
O35 O 0.33698 0.64644 0.40601 0.0
O36 O 0.32705 0.55182 0.47418 0.0
O37 O 0.20731 0.59567 0.41503 0.0
O38 O 0.39236 0.569 0.44566 0.0
O39 O 0.28363 0.63651 0.36673 0.0
O40 O 0.22562 0.54207 0.45512 0.0
O41 O 0.35652 0.58639 0.34243 0.0
O42 O 0.35326 0.46247 0.42535 0.0
O43 O 0.20498 0.50456 0.37745 0.0
Sc44 Sc 0.91002 0.36549 0.4137 0.0
Sc45 Sc 0.91409 0.2521 0.37803 0.0
Sc46 Sc 0.98434 0.27849 0.44753 0.0
O47 O 0.93746 0.29888 0.4129 0.0
C48 C 0.02156 0.38136 0.42212 0.0
C49 C 0.91651 0.34258 0.33467 0.0
C50 C 0.01903 0.21199 0.39323 0.0
C51 C 0.82253 0.30157 0.39839 0.0
C52 C 0.91964 0.34638 0.4917 0.0
C53 C 0.90867 0.18965 0.44327 0.0
O54 O 0.98209 0.39485 0.40867 0.0
O55 O 0.93506 0.30026 0.33769 0.0
O56 O 0.02961 0.24973 0.40911 0.0
O57 O 0.83907 0.33155 0.4195 0.0
O58 O 0.94216 0.30678 0.48854 0.0
O59 O 0.88757 0.20446 0.41688 0.0
O60 O 0.91087 0.37382 0.46714 0.0
O61 O 0.84851 0.29092 0.37406 0.0
O62 O 0.94642 0.20983 0.45513 0.0
O63 O 0.90487 0.36746 0.36001 0.0
O64 O 0.0251 0.34457 0.44115 0.0
O65 O 0.97821 0.20727 0.37927 0.0
Sc66 Sc 0.21272 0.98981 0.44622 0.0
Sc67 Sc 0.24455 0.91694 0.37989 0.0
Sc68 Sc 0.12468 0.91618 0.40859 0.0
O69 O 0.1935 0.94103 0.41133 0.0
C70 C 0.13152 0.93227 0.48681 0.0
C71 C 0.30229 0.92419 0.45018 0.0
C72 C 0.19067 0.82399 0.4072 0.0
C73 C 0.28198 0.01948 0.3844 0.0
C74 C 0.11807 0.03125 0.41191 0.0
C75 C 0.152 0.90368 0.33197 0.0
O76 O 0.16622 0.9621 0.48549 0.0
O77 O 0.30024 0.91673 0.41886 0.0
O78 O 0.14957 0.84258 0.41306 0.0
O79 O 0.26667 0.02283 0.41416 0.0
O80 O 0.09966 0.99035 0.4042 0.0
O81 O 0.19715 0.91012 0.33628 0.0
O82 O 0.1579 0.03658 0.42726 0.0
O83 O 0.2663 0.9878 0.36443 0.0
O84 O 0.1221 0.90802 0.35556 0.0
O85 O 0.26854 0.94487 0.46595 0.0
O86 O 0.11324 0.91389 0.4611 0.0
O87 O 0.22638 0.84642 0.39484 0.0
Sc88 Sc 0.06984 0.85949 0.13438 0.0
Sc89 Sc 0.05446 0.73702 0.15823 0.0
Sc90 Sc -0.0065 0.78266 0.08978 0.0
O91 O 0.03934 0.79335 0.12785 0.0
C92 C 0.9565 0.87739 0.12539 0.0
C93 C 0.06652 0.82428 0.21053 0.0
C94 C 0.9482 0.71028 0.1445 0.0
C95 C 0.15534 0.78619 0.14195 0.0
C96 C 0.06374 0.85848 0.05516 0.0
C97 C 0.05515 0.68971 0.08457 0.0
O98 O -0.00171 0.89306 0.13362 0.0
O99 O 0.05553 0.78047 0.20396 0.0
O100 O 0.95198 0.73071 0.11642 0.0
O101 O 0.14089 0.82856 0.13503 0.0
O102 O 0.02781 0.83036 0.05428 0.0
O103 O 0.06026 0.6866 0.11614 0.0
O104 O 0.08252 0.87181 0.08225 0.0
O105 O 0.1282 0.75184 0.15122 0.0
O106 O 0.03597 0.72574 0.07027 0.0
O107 O 0.0691 0.85653 0.18805 0.0
O108 O 0.95007 0.83779 0.11011 0.0
O109 O 0.98052 0.71557 0.16653 0.0
Sc110 Sc 0.70692 0.00736 0.08555 0.0
Sc111 Sc 0.74878 0.07257 0.1516 0.0
Sc112 Sc 0.6246 0.07181 0.13291 0.0
O113 O 0.69259 0.04988 0.12398 0.0
C114 C 0.6221 0.06966 0.05385 0.0
C115 C 0.79878 0.06817 0.08069 0.0
C116 C 0.69477 0.16403 0.12653 0.0
C117 C 0.77589 0.96817 0.14518 0.0
C118 C 0.61676 0.95799 0.1222 0.0
C119 C 0.66273 0.08499 0.20554 0.0
O120 O 0.65886 0.04294 0.05091 0.0
O121 O 0.80276 0.06651 0.11217 0.0
O122 O 0.65202 0.14671 0.13035 0.0
O123 O 0.75963 0.97038 0.11547 0.0
O124 O 0.59893 -0.00312 0.13421 0.0
O125 O 0.70658 0.08872 0.19644 0.0
O126 O 0.6543 0.95758 0.10395 0.0
O127 O 0.76589 0.00044 0.1666 0.0
O128 O 0.63056 0.06923 0.18613 0.0
O129 O 0.76076 0.05482 0.06604 0.0
O130 O 0.60394 0.07946 0.08182 0.0
O131 O 0.7331 0.14136 0.13343 0.0
Sc132 Sc 0.49472 0.6979 0.08205 0.0
Sc133 Sc 0.42772 0.73992 0.14992 0.0
Sc134 Sc 0.41283 0.62041 0.12219 0.0
O135 O 0.44508 0.68606 0.11817 0.0
C136 C 0.42777 0.62299 0.04342 0.0
C137 C 0.43324 0.79245 0.07764 0.0
C138 C 0.32746 0.69165 0.12941 0.0
C139 C 0.53495 0.7693 0.13941 0.0
C140 C 0.52632 0.601 0.11872 0.0
C141 C 0.41109 0.65068 0.19917 0.0
O142 O 0.46144 0.65389 0.04391 0.0
O143 O 0.42305 0.79173 0.10868 0.0
O144 O 0.34232 0.65134 0.11855 0.0
O145 O 0.53502 0.74767 0.11166 0.0
O146 O 0.48364 0.58848 0.12721 0.0
O147 O 0.42659 0.69381 0.19481 0.0
O148 O 0.53619 0.63859 0.10154 0.0
O149 O 0.50041 0.76372 0.1598 0.0
O150 O 0.4054 0.62182 0.17517 0.0
O151 O 0.45534 0.75844 0.06291 0.0
O152 O 0.40836 0.60746 0.06979 0.0
O153 O 0.35411 0.72382 0.1422 0.0
Sc154 Sc 0.77159 0.47128 0.09166 0.0
Sc155 Sc 0.75583 0.39661 0.16036 0.0
Sc156 Sc 0.86908 0.41449 0.1264 0.0
O157 O 0.79843 0.43104 0.12774 0.0
C158 C 0.85414 0.42012 0.05069 0.0
C159 C 0.69842 0.38275 0.09223 0.0
C160 C 0.8169 0.31886 0.13483 0.0
C161 C 0.69687 0.49379 0.14732 0.0
C162 C 0.86474 0.52611 0.12206 0.0
C163 C 0.84378 0.40899 0.20507 0.0
O164 O 0.80993 0.43054 0.05341 0.0
O165 O 0.71356 0.36419 0.11952 0.0
O166 O 0.84603 0.33952 0.11484 0.0
O167 O 0.7259 0.50987 0.12537 0.0
O168 O 0.88511 0.48926 0.13511 0.0
O169 O 0.79933 0.42141 0.202 0.0
O170 O 0.82826 0.52319 0.10255 0.0
O171 O 0.70328 0.45408 0.16275 0.0
O172 O 0.87066 0.40254 0.17974 0.0
O173 O 0.71317 0.42341 0.08157 0.0
O174 O 0.88208 0.42889 0.0745 0.0
O175 O 0.80697 0.34105 0.16084 0.0
Sc176 Sc 0.49457 0.79051 0.58994 0.0
Sc177 Sc 0.41167 0.75115 0.64987 0.0
Sc178 Sc 0.4147 0.87161 0.62511 0.0
O179 O 0.44135 0.8042 0.62208 0.0
C180 C 0.52634 0.88584 0.62927 0.0
C181 C 0.51935 0.71208 0.64301 0.0
C182 C 0.40254 0.83467 0.70104 0.0
C183 C 0.42137 0.70184 0.5791 0.0
C184 C 0.43939 0.86978 0.54765 0.0
C185 C 0.32498 0.80844 0.62157 0.0
O186 O 0.53429 0.85267 0.60793 0.0
O187 O 0.47717 0.70985 0.65528 0.0
O188 O 0.39501 0.86375 0.67704 0.0
O189 O 0.4577 0.72762 0.57119 0.0
O190 O 0.42688 0.8919 0.57383 0.0
O191 O 0.34277 0.78293 0.64469 0.0
O192 O 0.46064 0.82947 0.54946 0.0
O193 O 0.39749 0.70779 0.6059 0.0
O194 O 0.34614 0.84483 0.60914 0.0
O195 O 0.53372 0.74742 0.62546 0.0
O196 O 0.48455 0.89652 0.64016 0.0
O197 O 0.41997 0.79237 0.69626 0.0
Sc198 Sc 0.62481 0.41517 0.64382 0.0
Sc199 Sc 0.74498 0.41781 0.66769 0.0
Sc200 Sc 0.70565 0.48487 0.59968 0.0
O201 O 0.69194 0.44124 0.63773 0.0
C202 C 0.62738 0.41916 0.56615 0.0
C203 C 0.6917 0.32818 0.64876 0.0
C204 C 0.79424 0.41072 0.59706 0.0
C205 C 0.66305 0.42104 0.71906 0.0
C206 C 0.60961 0.52529 0.63448 0.0
C207 C 0.78376 0.52206 0.64661 0.0
O208 O 0.60249 0.42125 0.59244 0.0
O209 O 0.70763 0.35173 0.67313 0.0
O210 O 0.77097 0.44708 0.58628 0.0
O211 O 0.63461 0.40595 0.69661 0.0
O212 O 0.64155 0.52593 0.61151 0.0
O213 O 0.78841 0.48249 0.66247 0.0
O214 O 0.59967 0.48794 0.65199 0.0
O215 O 0.7045 0.43952 0.71221 0.0
O216 O 0.74519 0.53298 0.6315 0.0
O217 O 0.65443 0.3436 0.63375 0.0
O218 O 0.66912 0.43779 0.56475 0.0
O219 O 0.78555 0.39075 0.62515 0.0
Sc220 Sc 0.07826 0.63235 0.627 0.0
Sc221 Sc 0.05477 0.74814 0.65816 0.0
Sc222 Sc 0.00086 0.71042 0.58413 0.0
O223 O 0.04445 0.69683 0.62326 0.0
C224 C 0.07323 0.63936 0.5479 0.0
C225 C 0.15964 0.70799 0.64067 0.0
C226 C 0.05933 0.80651 0.5877 0.0
C227 C 0.07082 0.65604 0.70473 0.0
C228 C 0.96643 0.61087 0.61636 0.0
C229 C 0.94906 0.77381 0.64128 0.0
O230 O 0.08829 0.62144 0.57481 0.0
O231 O 0.12936 0.73632 0.65387 0.0
O232 O 0.04128 0.77296 0.57019 0.0
O233 O 0.081 0.63004 0.68 0.0
O234 O 0.95918 0.64843 0.59859 0.0
O235 O 0.97979 0.76641 0.66409 0.0
O236 O 0.00756 0.5983 0.62796 0.0
O237 O 0.05306 0.69839 0.70131 0.0
O238 O 0.95455 0.75614 0.61247 0.0
O239 O 0.14731 0.66849 0.62688 0.0
O240 O 0.04143 0.67182 0.54707 0.0
O241 O 0.06265 0.80432 0.61947 0.0
Sc242 Sc 0.85765 0.06924 0.62053 0.0
Sc243 Sc 0.73927 0.08039 0.6495 0.0
Sc244 Sc 0.7634 0.00175 0.58564 0.0
O245 O 0.78741 0.05019 0.61877 0.0
C246 C 0.84298 0.05755 0.54265 0.0
C247 C 0.79688 0.16713 0.62096 0.0
C248 C 0.67606 0.06962 0.58297 0.0
C249 C 0.83578 0.08714 0.69513 0.0
C250 C 0.85705 0.95346 0.61592 0.0
C251 C 0.70064 0.97925 0.6517 0.0
O252 O 0.86236 0.07691 0.56773 0.0
O253 O 0.7572 0.14696 0.62816 0.0
O254 O 0.70936 0.04946 0.5665 0.0
O255 O 0.86278 0.06716 0.67385 0.0
O256 O 0.81453 0.95129 0.60432 0.0
O257 O 0.71918 0.01183 0.66986 0.0
O258 O 0.87979 0.99324 0.62029 0.0
O259 O 0.79121 0.09479 0.68946 0.0
O260 O 0.71138 0.97424 0.62108 0.0
O261 O 0.83776 0.14577 0.62136 0.0
O262 O 0.80985 0.02593 0.54506 0.0
O263 O 0.6791 0.0758 0.6143 0.0
Sc264 Sc 0.91196 0.1316 0.89674 0.0
Sc265 Sc 0.92787 0.25265 0.87034 0.0
Sc266 Sc 0.98728 0.20957 0.93915 0.0
O267 O 0.94247 0.19716 0.90141 0.0
C268 C 0.92056 0.13251 0.97513 0.0
C269 C 0.82792 0.209 0.89017 0.0
C270 C 0.92516 0.3007 0.94322 0.0
C271 C 0.91318 0.162 0.82054 0.0
C272 C 0.02625 0.11553 0.90501 0.0
C273 C 0.03049 0.28059 0.8828 0.0
O274 O 0.89908 0.12098 0.9487 0.0
O275 O 0.85568 0.24236 0.88065 0.0
O276 O 0.94003 0.26297 0.95793 0.0
O277 O 0.91526 0.13088 0.84362 0.0
O278 O 0.03284 0.15649 0.91855 0.0
O279 O 0.0021 0.26784 0.85975 0.0
O280 O 0.98424 0.09834 0.89837 0.0
O281 O 0.91925 0.20718 0.82573 0.0
O282 O 0.02511 0.26432 0.91211 0.0
O283 O 0.84089 0.16543 0.89585 0.0
O284 O 0.95705 0.15988 0.97514 0.0
O285 O 0.92749 0.30574 0.91154 0.0
Sc286 Sc 0.36621 0.92559 0.89931 0.0
Sc287 Sc 0.24313 0.91942 0.88016 0.0
Sc288 Sc 0.28061 0.98816 0.94605 0.0
O289 O 0.29722 0.94463 0.90827 0.0
C290 C 0.36513 0.92555 0.97823 0.0
C291 C 0.30342 0.82959 0.89607 0.0
C292 C 0.1928 0.92216 0.95221 0.0
C293 C 0.3324 0.91592 0.82716 0.0
C294 C 0.36923 0.03922 0.91137 0.0
C295 C 0.2074 0.02161 0.88738 0.0
O296 O 0.37912 0.9088 0.95062 0.0
O297 O 0.26311 0.85075 0.89589 0.0
O298 O 0.22945 0.93919 0.96679 0.0
O299 O 0.36137 0.93714 0.84656 0.0
O300 O 0.32871 0.04003 0.92597 0.0
O301 O 0.22014 0.99059 0.86582 0.0
O302 O 0.39101 0.0002 0.90371 0.0
O303 O 0.28877 0.9076 0.83582 0.0
O304 O 0.22417 0.02057 0.91692 0.0
O305 O 0.34426 0.8506 0.89345 0.0
O306 O 0.33326 0.95829 0.98051 0.0
O307 O 0.18966 0.91988 0.92058 0.0
Sc308 Sc 0.56331 0.36396 0.91525 0.0
Sc309 Sc 0.56159 0.24963 0.87933 0.0
Sc310 Sc 0.49096 0.27585 0.94774 0.0
O311 O 0.53851 0.29603 0.91343 0.0
C312 C 0.55953 0.33814 0.99012 0.0
C313 C 0.65477 0.3027 0.90652 0.0
C314 C 0.55405 0.18154 0.94215 0.0
C315 C 0.57238 0.34253 0.83708 0.0
C316 C 0.4537 0.37309 0.92037 0.0
C317 C 0.44956 0.22304 0.88669 0.0
O318 O 0.55089 0.37067 0.96869 0.0
O319 O 0.63276 0.27622 0.88564 0.0
O320 O 0.51693 0.20323 0.9527 0.0
O321 O 0.58123 0.36696 0.86304 0.0
O322 O 0.45837 0.34591 0.9457 0.0
O323 O 0.49104 0.2169 0.87361 0.0
O324 O 0.4908 0.38791 0.90461 0.0
O325 O 0.55184 0.30113 0.83848 0.0
O326 O 0.44256 0.25394 0.90948 0.0
O327 O 0.6346 0.33553 0.92377 0.0
O328 O 0.54155 0.29632 0.98641 0.0
O329 O 0.57828 0.19657 0.91732 0.0
Sc330 Sc 0.20474 0.50232 0.94455 0.0
Sc331 Sc 0.24717 0.54984 0.86992 0.0
Sc332 Sc 0.13006 0.57739 0.89871 0.0
O333 O 0.19373 0.54316 0.9041 0.0
C334 C 0.10617 0.46632 0.91093 0.0
C335 C 0.26868 0.44542 0.88993 0.0
C336 C 0.1578 0.56828 0.82156 0.0
C337 C 0.30253 0.55662 0.94121 0.0
C338 C 0.12904 0.57333 0.97786 0.0
C339 C 0.21109 0.65494 0.88685 0.0
O340 O 0.14398 0.46069 0.92871 0.0
O341 O 0.26101 0.4736 0.86556 0.0
O342 O 0.13097 0.57923 0.84571 0.0
O343 O 0.26634 0.54398 0.95867 0.0
O344 O 0.11309 0.58777 0.95023 0.0
O345 O 0.23919 0.62509 0.87307 0.0
O346 O 0.16324 0.54352 0.97991 0.0
O347 O 0.3025 0.55494 0.90934 0.0
O348 O 0.16987 0.64472 0.89939 0.0
O349 O 0.25173 0.45453 0.91853 0.0
O350 O 0.09448 0.50718 0.89832 0.0
O351 O 0.19973 0.55015 0.82578 0.0
C352 C 0.58818 0.15256 0.27129 0.0
C353 C 0.61448 0.14308 0.30073 0.0
C354 C 0.67053 0.09214 0.26849 0.0
C355 C 0.64676 0.10503 0.23855 0.0
N356 N 0.58989 0.15837 0.21136 0.0
N357 N 0.68782 0.11339 0.32564 0.0
C358 C 0.60748 0.13828 0.23993 0.0
C359 C 0.65773 0.11557 0.29882 0.0
N360 N 0.54386 0.17368 0.27319 0.0
N361 N 0.704 0.05609 0.2684 0.0
H362 H 0.68082 0.13144 0.34781 0.0
H363 H 0.72203 0.09811 0.32468 0.0
H364 H 0.71343 0.0372 0.247 0.0
H365 H 0.71881 0.04174 0.29006 0.0
H366 H 0.52067 0.17647 0.25292 0.0
H367 H 0.52833 0.18438 0.29559 0.0
H368 H 0.56508 0.18651 0.21123 0.0
H369 H 0.60378 0.151 0.18789 0.0
C370 C 0.35289 0.65415 0.24795 0.0
C371 C 0.39372 0.63249 0.23255 0.0
C372 C 0.38643 0.56394 0.27202 0.0
C373 C 0.34344 0.58388 0.28535 0.0
N374 N 0.28086 0.64324 0.2816 0.0
N375 N 0.44852 0.56538 0.22929 0.0
C376 C 0.32524 0.62749 0.27183 0.0
C377 C 0.41005 0.58682 0.24443 0.0
N378 N 0.34075 0.70065 0.24042 0.0
N379 N 0.40544 0.52364 0.28658 0.0
H380 H 0.46974 0.58308 0.21162 0.0
H381 H 0.45867 0.52975 0.23344 0.0
H382 H 0.38735 0.50441 0.30516 0.0
H383 H 0.43958 0.51025 0.28133 0.0
H384 H 0.3153 0.72023 0.25375 0.0
H385 H 0.35843 0.72139 0.22261 0.0
H386 H 0.26313 0.67227 0.27067 0.0
H387 H 0.25962 0.62436 0.29863 0.0
C388 C 0.92313 0.34801 0.27152 0.0
C389 C 0.89962 0.36121 0.30136 0.0
C390 C 0.84733 0.41471 0.26814 0.0
C391 C 0.86393 0.39371 0.23828 0.0
N392 N 0.90839 0.32571 0.21489 0.0
N393 N 0.8255 0.39545 0.32424 0.0
C394 C 0.89945 0.35629 0.24071 0.0
C395 C 0.85786 0.3915 0.2988 0.0
N396 N 0.96807 0.32821 0.27209 0.0
N397 N 0.822 0.45683 0.26776 0.0
H398 H 0.82593 0.37365 0.3453 0.0
H399 H 0.79363 0.41503 0.32189 0.0
H400 H 0.81642 0.47687 0.24614 0.0
H401 H 0.81215 0.47456 0.28956 0.0
H402 H 0.98738 0.32118 0.25038 0.0
H403 H 0.98818 0.32473 0.29383 0.0
H404 H 0.93182 0.29651 0.21708 0.0
H405 H 0.88758 0.32435 0.19345 0.0
C406 C 0.14956 0.8401 0.28616 0.0
C407 C 0.13227 0.88442 0.29954 0.0
C408 C 0.06497 0.88203 0.2592 0.0
C409 C 0.08334 0.83906 0.24489 0.0
N410 N 0.13584 0.77017 0.25154 0.0
N411 N 0.07794 0.95159 0.29476 0.0
C412 C 0.12362 0.8162 0.26019 0.0
C413 C 0.09092 0.90625 0.28502 0.0
N414 N 0.19191 0.82101 0.29732 0.0
N415 N 0.02061 0.89772 0.24947 0.0
H416 H 0.09715 0.97104 0.31252 0.0
H417 H 0.05135 0.97189 0.28309 0.0
H418 H -0.00045 0.87791 0.23295 0.0
H419 H 0.00238 0.92626 0.2605 0.0
H420 H 0.21129 0.79551 0.28391 0.0
H421 H 0.20978 0.83239 0.31858 0.0
H422 H 0.15961 0.74897 0.26523 0.0
H423 H 0.11981 0.75094 0.23241 0.0
C424 C 0.39643 0.86947 0.794 0.0
C425 C 0.35165 0.89525 0.79499 0.0
C426 C 0.33721 0.86961 0.73748 0.0
C427 C 0.38471 0.85072 0.73474 0.0
N428 N 0.46262 0.84049 0.75995 0.0
N429 N 0.28509 0.92797 0.76385 0.0
C430 C 0.41525 0.85287 0.76289 0.0
C431 C 0.3237 0.89761 0.76561 0.0
N432 N 0.41992 0.85795 0.82276 0.0
N433 N 0.30387 0.85894 0.71381 0.0
H434 H 0.27537 0.95092 0.7832 0.0
H435 H 0.2663 0.93438 0.74185 0.0
H436 H 0.3113 0.83582 0.69413 0.0
H437 H 0.26767 0.86796 0.71631 0.0
H438 H 0.44972 0.83519 0.82342 0.0
H439 H 0.40687 0.86614 0.84629 0.0
H440 H 0.48777 0.84655 0.7787 0.0
H441 H 0.47758 0.82809 0.73779 0.0
C442 C 0.63424 0.3389 0.79113 0.0
C443 C 0.59336 0.36189 0.80529 0.0
C444 C 0.60613 0.43099 0.76711 0.0
C445 C 0.64769 0.40831 0.75369 0.0
N446 N 0.70423 0.34205 0.75674 0.0
N447 N 0.54305 0.43234 0.80916 0.0
C448 C 0.66268 0.36331 0.767 0.0
C449 C 0.58025 0.40883 0.79399 0.0
N450 N 0.6472 0.29354 0.80098 0.0
N451 N 0.59048 0.4731 0.75314 0.0
H452 H 0.52092 0.41585 0.82684 0.0
H453 H 0.53506 0.46857 0.80528 0.0
H454 H 0.61048 0.49146 0.73515 0.0
H455 H 0.55741 0.48895 0.75834 0.0
H456 H 0.67653 0.27542 0.7907 0.0
H457 H 0.62831 0.27346 0.81859 0.0
H458 H 0.72844 0.35788 0.7401 0.0
H459 H 0.72844 0.35788 0.7401 0.0
C460 C 0.07198 0.58971 0.74838 0.0
C461 C 0.08743 0.6364 0.73783 0.0
C462 C 0.15782 0.62889 0.77499 0.0
C463 C 0.1399 0.5848 0.7881 0.0
N464 N 0.07806 0.52417 0.78863 0.0
N465 N 0.13959 0.70454 0.74766 0.0
C466 C 0.09633 0.56556 0.77511 0.0
C467 C 0.12865 0.65718 0.75315 0.0
N468 N 0.03413 0.56823 0.73254 0.0
N469 N 0.20332 0.64363 0.78289 0.0
H470 H 0.11873 0.72703 0.73278 0.0
H471 H 0.16627 0.72289 0.76075 0.0
H472 H 0.22572 0.62428 0.79882 0.0
H473 H 0.22047 0.67246 0.7711 0.0
H474 H 0.02447 0.53224 0.73586 0.0
H475 H 0.01332 0.58628 0.7149 0.0
H476 H 0.04378 0.51094 0.78347 0.0
H477 H 0.0971 0.50387 0.8061 0.0
C478 C 0.83518 0.09357 0.75774 0.0
C479 C 0.8577 0.10476 0.72709 0.0
C480 C 0.92007 0.15089 0.75773 0.0
C481 C 0.8941 0.14429 0.78775 0.0
N482 N 0.8204 0.1175 0.8144 0.0
N483 N 0.9184 0.15112 0.69754 0.0
C484 C 0.84985 0.11787 0.78717 0.0
C485 C 0.89945 0.13519 0.72696 0.0
N486 N 0.80092 0.05813 0.75915 0.0
N487 N 0.96514 0.17069 0.75865 0.0
H488 H 0.90472 0.14157 0.67441 0.0
H489 H 0.94501 0.17757 0.69604 0.0
H490 H 0.98108 0.18267 0.7806 0.0
H491 H 0.98825 0.17139 0.73824 0.0
H492 H 0.78694 0.04481 0.78142 0.0
H493 H 0.79037 0.03824 0.73842 0.0
H494 H 0.78552 0.10359 0.81406 0.0
H495 H 0.82851 0.13564 0.83626 0.0
C496 C 0.37767 0.1164 0.3761 0.0
C497 C 0.41663 0.0909 0.39093 0.0
C498 C 0.37131 0.01613 0.38385 0.0
C499 C 0.32891 0.043 0.37738 0.0
N500 N 0.29123 0.11961 0.36744 0.0
N501 N 0.44626 0.0157 0.41396 0.0
C502 C 0.33196 0.09351 0.37332 0.0
C503 C 0.41272 0.04035 0.39582 0.0
N504 N 0.38477 0.16174 0.36373 0.0
N505 N 0.37213 0.96754 0.37875 0.0
H506 H 0.47578 0.0321 0.42522 0.0
H507 H 0.44169 0.97971 0.42093 0.0
H508 H 0.34352 0.94917 0.36781 0.0
H509 H 0.40331 0.94696 0.38126 0.0
H510 H 0.3586 0.18031 0.3503 0.0
H511 H 0.41859 0.17823 0.36357 0.0
H512 H 0.29052 0.15719 0.36789 0.0
H513 H 0.25778 0.10324 0.36367 0.0
C514 C 0.37911 0.37979 0.38155 0.0
C515 C 0.40755 0.42063 0.39002 0.0
C516 C 0.47927 0.37687 0.37227 0.0
C517 C 0.45272 0.33291 0.37325 0.0
N518 N 0.37589 0.29297 0.37541 0.0
N519 N 0.48634 0.4569 0.39546 0.0
C520 C 0.402 0.33463 0.37666 0.0
C521 C 0.45813 0.4191 0.38563 0.0
N522 N 0.33073 0.38465 0.37661 0.0
N523 N 0.52399 0.37887 0.35818 0.0
H524 H 0.47261 0.48762 0.40691 0.0
H525 H 0.52382 0.45577 0.39513 0.0
H526 H 0.53865 0.35057 0.34465 0.0
H527 H 0.54319 0.41095 0.3553 0.0
H528 H 0.30878 0.3569 0.36795 0.0
H529 H 0.31368 0.41806 0.37727 0.0
H530 H 0.3396 0.29081 0.38188 0.0
H531 H 0.39157 0.26027 0.36879 0.0
C532 C 0.0879 0.4014 0.38145 0.0
C533 C 0.06717 0.40659 0.4136 0.0
C534 C 0.14334 0.43876 0.43453 0.0
C535 C 0.16291 0.43879 0.4016 0.0
N536 N 0.15195 0.42359 0.34313 0.0
N537 N 0.07108 0.44036 0.46839 0.0
C538 C 0.13441 0.42138 0.37485 0.0
C539 C 0.09373 0.42838 0.43937 0.0
N540 N 0.06421 0.37544 0.35765 0.0
N541 N 0.17181 0.44726 0.4616 0.0
H542 H 0.03458 0.43352 0.47256 0.0
H543 H 0.08696 0.46168 0.48666 0.0
H544 H 0.20869 0.45286 0.46054 0.0
H545 H 0.15975 0.44295 0.48597 0.0
H546 H 0.07972 0.36559 0.3351 0.0
H547 H 0.03003 0.3607 0.36126 0.0
H548 H 0.1309 0.41736 0.32216 0.0
H549 H 0.18729 0.43381 0.3377 0.0
C550 C 0.08636 0.09547 0.37347 0.0
C551 C 0.0904 0.07571 0.40589 0.0
C552 C 0.05889 0.1499 0.43003 0.0
C553 C 0.04944 0.16821 0.39738 0.0
N554 N 0.05251 0.1576 0.33788 0.0
N555 N 0.07148 0.07912 0.46417 0.0
C556 C 0.06252 0.14055 0.36903 0.0
C557 C 0.07414 0.10157 0.43385 0.0
N558 N 0.10704 0.07212 0.34722 0.0
N559 N 0.05382 0.17793 0.45774 0.0
H560 H 0.0822 0.04351 0.46799 0.0
H561 H 0.05388 0.09382 0.48465 0.0
H562 H 0.04125 0.21303 0.45801 0.0
H563 H 0.06663 0.16761 0.48102 0.0
H564 H 0.11004 0.08691 0.32349 0.0
H565 H 0.12422 0.03888 0.3497 0.0
H566 H 0.05544 0.13683 0.31646 0.0
H567 H 0.03948 0.19231 0.33351 0.0
C568 C 0.87204 0.89703 0.11167 0.0
C569 C 0.9114 0.90417 0.13356 0.0
C570 C 0.85543 0.94397 0.17255 0.0
C571 C 0.81688 0.93398 0.15029 0.0
N572 N 0.78767 0.87765 0.1096 0.0
N573 N 0.93756 0.92668 0.18904 0.0
C574 C 0.82511 0.90171 0.12395 0.0
C575 C 0.90251 0.92565 0.16529 0.0
N576 N 0.87929 0.88759 0.07874 0.0
N577 N 0.84719 0.96989 0.20074 0.0
H578 H 0.97253 0.91497 0.18511 0.0
H579 H 0.93118 0.93652 0.2136 0.0
H580 H 0.81274 0.97467 0.21046 0.0
H581 H 0.87455 0.98552 0.21478 0.0
H582 H 0.85089 0.88486 0.06186 0.0
H583 H 0.91343 0.88868 0.06785 0.0
H584 H 0.79276 0.85214 0.0909 0.0
H585 H 0.75272 0.87991 0.11915 0.0
C586 C 0.59526 0.8248 0.11387 0.0
C587 C 0.56856 0.81196 0.14251 0.0
C588 C 0.58179 0.89506 0.16265 0.0
C589 C 0.5953 0.90952 0.12976 0.0
N590 N 0.60274 0.88602 0.07197 0.0
N591 N 0.54464 0.83415 0.19808 0.0
C592 C 0.5984 0.8737 0.10474 0.0
C593 C 0.56403 0.847 0.16817 0.0
N594 N 0.61812 0.79046 0.09554 0.0
N595 N 0.5889 0.92546 0.18886 0.0
H596 H 0.54029 0.79819 0.20516 0.0
H597 H 0.5336 0.85913 0.2158 0.0
H598 H 0.60422 0.95957 0.18649 0.0
H599 H 0.58402 0.91512 0.21355 0.0
H600 H 0.63991 0.79912 0.07521 0.0
H601 H 0.62022 0.75465 0.10355 0.0
H602 H 0.60222 0.8603 0.05309 0.0
H603 H 0.60053 0.92163 0.06361 0.0
C604 C 0.6039 0.59368 0.15032 0.0
C605 C 0.5672 0.57168 0.13089 0.0
C606 C 0.60833 0.49419 0.13581 0.0
C607 C 0.64934 0.518 0.14938 0.0
N608 N 0.68659 0.59052 0.16975 0.0
N609 N 0.53754 0.50215 0.10131 0.0
C610 C 0.64709 0.56783 0.15689 0.0
C611 C 0.56987 0.5221 0.12294 0.0
N612 N 0.59685 0.63866 0.16326 0.0
N613 N 0.60578 0.44501 0.13487 0.0
H614 H 0.50933 0.52148 0.09065 0.0
H615 H 0.54145 0.46773 0.09136 0.0
H616 H 0.63229 0.4224 0.14419 0.0
H617 H 0.57451 0.42648 0.12839 0.0
H618 H 0.62041 0.65481 0.18002 0.0
H619 H 0.5651 0.65807 0.15979 0.0
H620 H 0.6895 0.62784 0.17187 0.0
H621 H 0.71743 0.57179 0.17701 0.0
C622 C 0.91338 0.63398 0.17174 0.0
C623 C 0.91164 0.67032 0.14679 0.0
C624 C 0.87915 0.61294 0.1072 0.0
C625 C 0.88165 0.57543 0.13117 0.0
N626 N 0.88315 0.55613 0.19009 0.0
N627 N 0.86424 0.69788 0.10025 0.0
C628 C 0.89365 0.5874 0.16474 0.0
C629 C 0.88441 0.66095 0.11781 0.0
N630 N 0.93221 0.64412 0.20222 0.0
N631 N 0.87464 0.60322 0.07409 0.0
H632 H 0.86507 0.73332 0.109 0.0
H633 H 0.84212 0.69205 0.07969 0.0
H634 H 0.8761 0.56836 0.06449 0.0
H635 H 0.87579 0.6303 0.05603 0.0
H636 H 0.94112 0.61759 0.21954 0.0
H637 H 0.93812 0.67938 0.2102 0.0
H638 H 0.88757 0.56472 0.21508 0.0
H639 H 0.86468 0.5238 0.18663 0.0
C640 C 0.65197 0.90585 0.66291 0.0
C641 C 0.65487 0.95664 0.66177 0.0
C642 C 0.57143 0.96192 0.64325 0.0
C643 C 0.56853 0.91089 0.64357 0.0
N644 N 0.59985 0.8358 0.66518 0.0
N645 N 0.61253 0.03232 0.66448 0.0
C646 C 0.60688 0.8832 0.65717 0.0
C647 C 0.61268 0.98438 0.65694 0.0
N648 N 0.69273 0.87949 0.66813 0.0
N649 N 0.53694 0.9889 0.62772 0.0
H650 H 0.64193 0.04935 0.67549 0.0
H651 H 0.5816 0.05349 0.66342 0.0
H652 H 0.50703 0.97392 0.61597 0.0
H653 H 0.54055 0.02588 0.62364 0.0
H654 H 0.69419 0.84217 0.66533 0.0
H655 H 0.72558 0.89578 0.674 0.0
H656 H 0.62555 0.8149 0.67735 0.0
H657 H 0.56638 0.81899 0.66296 0.0
C658 C 0.58653 0.59768 0.6692 0.0
C659 C 0.58234 0.57056 0.63939 0.0
C660 C 0.54904 0.64063 0.61108 0.0
C661 C 0.54719 0.6663 0.64172 0.0
N662 N 0.55897 0.66665 0.70107 0.0
N663 N 0.54695 0.56221 0.58513 0.0
C664 C 0.56395 0.6438 0.67126 0.0
C665 C 0.55931 0.59079 0.61143 0.0
N666 N 0.61419 0.5808 0.69474 0.0
N667 N 0.54315 0.66367 0.58131 0.0
H668 H 0.55338 0.52513 0.58486 0.0
H669 H 0.52561 0.57433 0.56551 0.0
H670 H 0.54092 0.70083 0.57885 0.0
H671 H 0.54764 0.6465 0.5585 0.0
H672 H 0.62238 0.6011 0.71573 0.0
H673 H 0.6323 0.54796 0.69365 0.0
H674 H 0.5658 0.64989 0.7238 0.0
H675 H 0.54547 0.70163 0.70305 0.0
C676 C 0.90301 0.5887 0.65827 0.0
C677 C 0.92297 0.58341 0.62594 0.0
C678 C 0.84715 0.54991 0.60602 0.0
C679 C 0.82858 0.54966 0.63918 0.0
N680 N 0.84112 0.56451 0.69759 0.0
N681 N 0.91861 0.54861 0.57147 0.0
C682 C 0.85744 0.56744 0.66559 0.0
C683 C 0.89643 0.56058 0.60066 0.0
N684 N 0.92635 0.61608 0.68144 0.0
N685 N 0.81795 0.54187 0.57927 0.0
H686 H 0.95495 0.55591 0.56696 0.0
H687 H 0.90253 0.52693 0.55349 0.0
H688 H 0.78098 0.53708 0.58078 0.0
H689 H 0.82955 0.54604 0.55478 0.0
H690 H 0.91111 0.62572 0.70413 0.0
H691 H 0.95974 0.63219 0.67706 0.0
H692 H 0.86277 0.57142 0.71817 0.0
H693 H 0.80641 0.55287 0.70361 0.0
C694 C 0.89793 0.89872 0.65822 0.0
C695 C 0.87909 0.90648 0.62565 0.0
C696 C 0.88124 0.81951 0.61661 0.0
C697 C 0.91235 0.81347 0.64409 0.0
N698 N 0.94125 0.84595 0.69604 0.0
N699 N 0.86025 0.87289 0.57171 0.0
C700 C 0.91796 0.85268 0.66657 0.0
C701 C 0.87251 0.86638 0.6043 0.0
N702 N 0.89391 0.93391 0.68178 0.0
N703 N 0.86074 0.78017 0.60201 0.0
H704 H 0.85723 0.90693 0.56078 0.0
H705 H 0.85877 0.84449 0.5548 0.0
H706 H 0.86527 0.74553 0.61181 0.0
H707 H 0.83533 0.78292 0.58302 0.0
H708 H 0.90267 0.92878 0.7067 0.0
H709 H 0.8775 0.96703 0.67731 0.0
H710 H 0.95375 0.87423 0.7107 0.0
H711 H 0.9468 0.81181 0.70622 0.0
C712 C 0.08003 0.06559 0.86629 0.0
C713 C 0.07135 0.08845 0.89748 0.0
C714 C 0.15758 0.08868 0.90753 0.0
C715 C 0.16519 0.05457 0.88212 0.0
N716 N 0.13264 0.01468 0.83347 0.0
N717 N 0.10341 0.10778 0.95189 0.0
C718 C 0.12614 0.04404 0.86022 0.0
C719 C 0.11065 0.0957 0.91937 0.0
N720 N 0.0461 0.067 0.84175 0.0
N721 N 0.1954 0.11315 0.92109 0.0
H722 H 0.06917 0.10875 0.96261 0.0
H723 H 0.13173 0.11064 0.96881 0.0
H724 H 0.23028 0.10996 0.91157 0.0
H725 H 0.19071 0.14002 0.9389 0.0
H726 H 0.05266 0.05527 0.81759 0.0
H727 H 0.01295 0.08397 0.84436 0.0
H728 H 0.10405 -0.00019 0.8202 0.0
H729 H 0.16647 0.00606 0.8241 0.0
C730 C 0.40426 0.09753 0.8687 0.0
C731 C 0.3893 0.08705 0.90194 0.0
C732 C 0.38564 0.17321 0.91265 0.0
C733 C 0.4141 0.18259 0.88426 0.0
N734 N 0.44253 0.15501 0.83117 0.0
N735 N 0.37509 0.11712 0.95762 0.0
C736 C 0.42089 0.145 0.86087 0.0
C737 C 0.38276 0.12561 0.92457 0.0
N738 N 0.39996 0.06362 0.84431 0.0
N739 N 0.361 0.20938 0.92797 0.0
H740 H 0.37645 0.0826 0.96801 0.0
H741 H 0.37314 0.14495 0.97496 0.0
H742 H 0.3586 0.24385 0.91756 0.0
H743 H 0.338 0.20308 0.94806 0.0
H744 H 0.40619 0.07089 0.81926 0.0
H745 H 0.38568 0.02942 0.84843 0.0
H746 H 0.45441 0.12853 0.8148 0.0
H747 H 0.44904 0.19041 0.8234 0.0
C748 C 0.36448 0.38237 0.93167 0.0
C749 C 0.40376 0.38562 0.90895 0.0
C750 C 0.34639 0.41071 0.86536 0.0
C751 C 0.3086 0.40891 0.88915 0.0
N752 N 0.27965 0.36409 0.93641 0.0
N753 N 0.42523 0.38051 0.85042 0.0
C754 C 0.31714 0.38375 0.91911 0.0
C755 C 0.39303 0.39337 0.87451 0.0
N756 N 0.37143 0.3818 0.96527 0.0
N757 N 0.33777 0.42733 0.83401 0.0
H758 H 0.45674 0.36157 0.8554 0.0
H759 H 0.41757 0.38244 0.8251 0.0
H760 H 0.303 0.4315 0.82469 0.0
H761 H 0.36523 0.43614 0.81736 0.0
H762 H 0.34284 0.38112 0.98211 0.0
H763 H 0.40439 0.38978 0.97634 0.0
H764 H 0.28466 0.34333 0.9578 0.0
H765 H 0.24464 0.36443 0.9269 0.0
C766 C 0.05568 0.41325 0.87111 0.0
C767 C 0.07962 0.4206 0.90228 0.0
C768 C 0.09082 0.33391 0.90764 0.0
C769 C 0.0608 0.32522 0.88012 0.0
N770 N 0.0238 0.35611 0.83047 0.0
N771 N 0.09864 0.38455 0.95547 0.0
C772 C 0.04627 0.36487 0.86002 0.0
C773 C 0.09069 0.37979 0.92214 0.0
N774 N 0.04101 0.45172 0.85248 0.0
N775 N 0.11722 0.29729 0.92106 0.0
H776 H 0.09354 0.41729 0.96775 0.0
H777 H 0.10395 0.35497 0.97113 0.0
H778 H 0.11797 0.26311 0.91019 0.0
H779 H 0.1415 0.30271 0.94049 0.0
H780 H 0.02962 0.4493 0.82795 0.0
H781 H 0.03706 0.48627 0.86195 0.0
H782 H 0.00574 0.38189 0.81644 0.0
H783 H 0.02528 0.32245 0.81906 0.0
C784 C 0.75198 0.18531 0.40402 0.0
C785 C 0.71805 0.19611 0.42833 0.0
C786 C 0.75053 0.2777 0.43364 0.0
C787 C 0.78091 0.26893 0.4059 0.0
N788 N 0.79085 0.21925 0.35631 0.0
N789 N 0.69862 0.24247 0.47604 0.0
C790 C 0.77702 0.22376 0.38877 0.0
C791 C 0.72281 0.23897 0.44674 0.0
N792 N 0.75626 0.13897 0.39338 0.0
N793 N 0.74392 0.32359 0.44488 0.0
H794 H 0.67923 0.21295 0.48525 0.0
H795 H 0.702 0.27164 0.49211 0.0
H796 H 0.75921 0.35353 0.43318 0.0
H797 H 0.71826 0.33246 0.46272 0.0
H798 H 0.78281 0.1281 0.37667 0.0
H799 H 0.73567 0.11135 0.40406 0.0
H800 H 0.78644 0.18745 0.34289 0.0
H801 H 0.79794 0.24891 0.34108 0.0
C802 C 0.24293 0.72391 0.37284 0.0
C803 C 0.27234 0.70549 0.39884 0.0
C804 C 0.23009 0.75915 0.4375 0.0
C805 C 0.19893 0.77264 0.41133 0.0
N806 N 0.16429 0.75436 0.3585 0.0
N807 N 0.29034 0.70389 0.45809 0.0
C808 C 0.20057 0.74854 0.38094 0.0
C809 C 0.26496 0.72237 0.43203 0.0
N810 N 0.25727 0.72068 0.34045 0.0
N811 N 0.2273 0.78353 0.46687 0.0
H812 H 0.31473 0.67596 0.45591 0.0
H813 H 0.28495 0.71402 0.48268 0.0
H814 H 0.19992 0.80851 0.4712 0.0
H815 H 0.25245 0.78069 0.48594 0.0
H816 H 0.23749 0.73503 0.32081 0.0
H817 H 0.29169 0.70892 0.3339 0.0
H818 H 0.1631 0.73555 0.3361 0.0
H819 H 0.13374 0.77469 0.36418 0.0
C820 C 0.25733 0.72617 0.1017 0.0
C821 C 0.27653 0.70302 0.12987 0.0
C822 C 0.22566 0.74962 0.16649 0.0
C823 C 0.20578 0.77289 0.13852 0.0
N824 N 0.21005 0.79291 0.0804 0.0
N825 N 0.26892 0.68013 0.18696 0.0
C826 C 0.22375 0.76401 0.10621 0.0
C827 C 0.25722 0.71077 0.16168 0.0
N828 N 0.26978 0.71 0.07091 0.0
N829 N 0.21472 0.76589 0.19754 0.0
H830 H 0.29202 0.65093 0.18324 0.0
H831 H 0.25198 0.68083 0.21006 0.0
H832 H 0.19313 0.79629 0.20089 0.0
H833 H 0.23087 0.75272 0.2191 0.0
H834 H 0.25359 0.72189 0.04907 0.0
H835 H 0.29373 0.6814 0.06773 0.0
H836 H 0.22534 0.79104 0.0568 0.0
H837 H 0.18615 0.8215 0.08344 0.0
C838 C 0.75596 0.26042 0.15474 0.0
C839 C 0.78388 0.27752 0.12724 0.0
C840 C 0.73375 0.22613 0.09174 0.0
C841 C 0.70381 0.21516 0.11958 0.0
N842 N 0.67562 0.24024 0.17287 0.0
N843 N 0.79277 0.27963 0.06695 0.0
C844 C 0.71016 0.24104 0.14885 0.0
C845 C 0.77044 0.26214 0.09469 0.0
N846 N 0.77433 0.25958 0.18623 0.0
N847 N 0.73053 0.1985 0.06383 0.0
H848 H 0.8226 0.30222 0.06734 0.0
H849 H 0.78015 0.27262 0.04305 0.0
H850 H 0.70548 0.17064 0.06181 0.0
H851 H 0.75491 0.20071 0.04417 0.0
H852 H 0.75534 0.24507 0.20633 0.0
H853 H 0.81045 0.2673 0.19115 0.0
H854 H 0.67924 0.2593 0.19506 0.0
H855 H 0.64204 0.2245 0.16849 0.0
C856 C 0.21741 0.77239 0.65439 0.0
C857 C 0.20844 0.72927 0.63637 0.0
C858 C 0.2689 0.75442 0.59566 0.0
C859 C 0.27535 0.79748 0.61369 0.0
N860 N 0.24164 0.85585 0.6501 0.0
N861 N 0.23851 0.6724 0.59603 0.0
C862 C 0.24403 0.80941 0.63938 0.0
C863 C 0.23738 0.71822 0.60828 0.0
N864 N 0.20225 0.77668 0.68648 0.0
N865 N 0.29376 0.74888 0.56671 0.0
H866 H 0.22147 0.64361 0.60789 0.0
H867 H 0.26163 0.66152 0.57715 0.0
H868 H 0.31566 0.77667 0.5577 0.0
H869 H 0.28931 0.71987 0.55064 0.0
H870 H 0.20972 0.80671 0.70112 0.0
H871 H 0.18731 0.74742 0.69915 0.0
H872 H 0.21606 0.86733 0.66734 0.0
H873 H 0.26263 0.88289 0.63912 0.0
C874 C 0.7608 0.23696 0.59445 0.0
C875 C 0.79298 0.21955 0.61884 0.0
C876 C 0.75339 0.26594 0.66107 0.0
C877 C 0.72171 0.28676 0.63719 0.0
N878 N 0.70117 0.29592 0.57859 0.0
N879 N 0.83291 0.23361 0.6704 0.0
C880 C 0.72709 0.27368 0.60293 0.0
C881 C 0.79456 0.24138 0.65006 0.0
N882 N 0.76132 0.2159 0.56382 0.0
N883 N 0.74217 0.26599 0.69415 0.0
H884 H 0.86311 0.21501 0.66192 0.0
H885 H 0.8363 0.25003 0.69359 0.0
H886 H 0.70863 0.27719 0.70289 0.0
H887 H 0.76324 0.24865 0.71199 0.0
H888 H 0.73517 0.22127 0.54569 0.0
H889 H 0.78783 0.19084 0.55749 0.0
H890 H 0.70398 0.28756 0.5535 0.0
H891 H 0.68029 0.3262 0.58249 0.0
C892 C 0.76424 0.23483 0.92936 0.0
C893 C 0.77912 0.22619 0.89608 0.0
C894 C 0.7288 0.2922 0.87682 0.0
C895 C 0.70656 0.29386 0.90813 0.0
N896 N 0.70538 0.27178 0.96581 0.0
N897 N 0.77058 0.24223 0.83737 0.0
C898 C 0.72533 0.26696 0.93509 0.0
C899 C 0.75923 0.25328 0.86951 0.0
N900 N 0.78857 0.21421 0.9553 0.0
N901 N 0.71887 0.32716 0.85391 0.0
H902 H 0.79281 0.21327 0.83136 0.0
H903 H 0.75486 0.2591 0.81693 0.0
H904 H 0.69573 0.35573 0.85942 0.0
H905 H 0.73683 0.3301 0.83123 0.0
H906 H 0.7834 0.22374 0.98005 0.0
H907 H 0.81585 0.18894 0.95198 0.0
H908 H 0.71432 0.25032 0.98616 0.0
H909 H 0.67874 0.2972 0.97048 0.0
C910 C 0.2885 0.75238 0.92297 0.0
C911 C 0.29901 0.77781 0.89347 0.0
C912 C 0.2422 0.7292 0.86254 0.0
C913 C 0.23299 0.70196 0.89154 0.0
N914 N 0.25805 0.67854 0.94694 0.0
N915 N 0.29841 0.78171 0.83393 0.0
C916 C 0.25905 0.7109 0.92128 0.0
C917 C 0.28067 0.76232 0.86266 0.0
N918 N 0.30541 0.76907 0.95257 0.0
N919 N 0.21334 0.7241 0.83533 0.0
H920 H 0.32694 0.80628 0.83423 0.0
H921 H 0.28823 0.76997 0.81038 0.0
H922 H 0.1833 0.70136 0.83552 0.0
H923 H 0.21626 0.74583 0.81425 0.0
H924 H 0.29341 0.75586 0.97537 0.0
H925 H 0.33003 0.79754 0.95381 0.0
H926 H 0.27861 0.68227 0.96843 0.0
H927 H 0.2406 0.64536 0.94527 0.0
C928 C 0.57134 0.14125 0.54533 0.0
C929 C 0.55873 0.10948 0.51917 0.0
C930 C 0.60663 0.04614 0.54631 0.0
C931 C 0.63059 0.0822 0.56516 0.0
N932 N 0.63301 0.16448 0.58488 0.0
N933 N 0.55274 0.02757 0.50039 0.0
C934 C 0.61155 0.12974 0.56591 0.0
C935 C 0.57236 0.0603 0.52179 0.0
N936 N 0.54402 0.18105 0.55136 0.0
N937 N 0.61583 -0.00143 0.5526 0.0
H938 H 0.52411 0.03657 0.48474 0.0
H939 H 0.56482 0.99227 0.49786 0.0
H940 H 0.63925 0.98743 0.57138 0.0
H941 H 0.59717 0.97021 0.54164 0.0
H942 H 0.54903 0.20294 0.57206 0.0
H943 H 0.51216 0.188 0.53859 0.0
H944 H 0.62231 0.20041 0.5849 0.0
H945 H 0.66351 0.15826 0.59928 0.0
C946 C 0.39707 0.68462 0.52105 0.0
C947 C 0.40429 0.66704 0.55357 0.0
C948 C 0.3873 0.58497 0.5334 0.0
C949 C 0.38597 0.60266 0.50006 0.0
N950 N 0.40771 0.66923 0.46308 0.0
N951 N 0.41399 0.59887 0.59023 0.0
C952 C 0.39648 0.65225 0.49407 0.0
C953 C 0.40125 0.61667 0.5598 0.0
N954 N 0.38941 0.7326 0.51571 0.0
N955 N 0.37648 0.53778 0.53979 0.0
H956 H 0.42465 0.62098 0.60983 0.0
H957 H 0.41764 0.56219 0.59524 0.0
H958 H 0.37091 0.51253 0.52102 0.0
H959 H 0.37129 0.52423 0.56371 0.0
H960 H 0.37664 0.74549 0.49308 0.0
H961 H 0.38998 0.75821 0.53461 0.0
H962 H 0.4192 0.70459 0.45894 0.0
H963 H 0.41136 0.6479 0.44213 0.0
C964 C 0.84206 0.34255 0.52227 0.0
C965 C 0.8913 0.35554 0.5225 0.0
C966 C 0.87915 0.39602 0.57629 0.0
C967 C 0.82867 0.38815 0.57339 0.0
N968 N 0.76174 0.36294 0.53934 0.0
N969 N 0.95743 0.39661 0.54857 0.0
C970 C 0.8101 0.36359 0.54535 0.0
C971 C 0.91029 0.38253 0.54941 0.0
N972 N 0.82557 0.30973 0.49983 0.0
N973 N 0.89698 0.41723 0.60432 0.0
H974 H 0.98088 0.38589 0.5297 0.0
H975 H 0.97269 0.42054 0.56544 0.0
H976 H 0.87486 0.42878 0.6237 0.0
H977 H 0.93357 0.42075 0.60934 0.0
H978 H 0.79153 0.29407 0.5016 0.0
H979 H 0.84767 0.29478 0.4817 0.0
H980 H 0.74687 0.35115 0.51705 0.0
H981 H 0.73653 0.37749 0.55554 0.0
C982 C 0.04843 0.88196 0.5535 0.0
C983 C 0.0797 0.84858 0.56928 0.0
C984 C 0.14774 0.87863 0.53599 0.0
C985 C 0.11627 0.91102 0.51928 0.0
N986 N 0.03965 0.95091 0.51633 0.0
N987 N 0.16009 0.82228 0.5813 0.0
C988 C 0.06748 0.91513 0.52957 0.0
C989 C 0.12974 0.84975 0.56259 0.0
N990 N 0.00031 0.88067 0.56073 0.0
N991 N 0.19388 0.87252 0.52475 0.0
H992 H 0.14821 0.79967 0.60034 0.0
H993 H 0.19723 0.8252 0.57978 0.0
H994 H 0.20907 0.89298 0.50571 0.0
H995 H 0.21651 0.84482 0.5325 0.0
H996 H 0.97428 0.89999 0.54776 0.0
H997 H 0.98606 0.85862 0.57941 0.0
H998 H 0.00487 0.95871 0.52426 0.0
H999 H 0.05303 0.97548 0.49893 0.0
C1000 C 0.12309 0.9397 0.98995 0.0
C1001 C 0.15217 0.90534 0.97332 0.0
C1002 C 0.11046 0.83988 1.0028 0.0
C1003 C 0.08734 0.8744 0.02354 0.0
N1004 N 0.0693 0.95731 0.03605 0.0
N1005 N 0.17641 0.82294 0.96505 0.0
C1006 C 0.09275 0.92444 0.01667 0.0
C1007 C 0.14608 0.85544 0.97964 0.0
N1008 N 0.1241 0.98678 0.97973 0.0
N1009 N 0.09867 0.79214 1.00505 0.0
H1010 H 0.20223 0.8327 0.94743 0.0
H1011 H 0.1784 0.78684 0.9721 0.0
H1012 H 0.07449 0.77827 0.02233 0.0
H1013 H 0.10956 0.76671 0.98763 0.0
H1014 H 0.10086 0.01317 0.98861 0.0
H1015 H 0.14574 -0.00128 0.96013 0.0
H1016 H 0.07598 -0.00576 0.03528 0.0
H1017 H 0.04387 0.94729 0.05392 0.0
C1018 C 0.60666 0.14802 0.02391 0.0
C1019 C 0.60416 0.09662 0.02415 0.0
C1020 C 0.5698 0.09934 0.96762 0.0
C1021 C 0.57757 0.14984 0.96684 0.0
N1022 N 0.61466 0.22004 0.99079 0.0
N1023 N 0.5858 0.02271 0.99514 0.0
C1024 C 0.59981 0.1732 0.99385 0.0
C1025 C 0.5869 0.07196 0.99546 0.0
N1026 N 0.61396 0.17371 0.05236 0.0
N1027 N 0.54478 0.07806 0.94239 0.0
H1028 H 0.59452 0.0018 1.01587 0.0
H1029 H 0.5782 0.00258 0.97398 0.0
H1030 H 0.5334 0.09733 0.92148 0.0
H1031 H 0.53318 0.04234 0.94294 0.0
H1032 H 0.60842 0.21081 0.05396 0.0
H1033 H 0.62198 0.15849 0.07511 0.0
H1034 H 0.63437 0.23795 1.00901 0.0
H1035 H 0.6115 0.23952 0.96869 0.0
C1036 C 0.36595 0.53784 0.98387 0.0
C1037 C 0.34711 0.57032 0.95983 0.0
C1038 C 0.39082 0.63701 0.98617 0.0
C1039 C 0.40807 0.60482 1.01116 0.0
N1040 N 0.42582 0.52283 0.02656 0.0
N1041 N 0.35772 0.64569 0.93067 0.0
C1042 C 0.40007 0.55455 1.00758 0.0
C1043 C 0.36527 0.61811 0.95832 0.0
N1044 N 0.3503 0.49113 0.98454 0.0
N1045 N 0.39506 0.68577 0.99007 0.0
H1046 H 0.3388 0.63327 0.91005 0.0
H1047 H 0.37414 0.67912 0.927 0.0
H1048 H 0.41154 0.7019 1.01042 0.0
H1049 H 0.37855 0.71058 0.97433 0.0
H1050 H 0.35709 0.46768 1.00425 0.0
H1051 H 0.32874 0.47653 0.96586 0.0
H1052 H 0.42481 0.4856 0.02322 0.0
H1053 H 0.45216 0.53421 0.04329 0.0
C1054 C 0.91745 0.36747 0.02269 0.0
C1055 C 0.87388 0.39476 0.02034 0.0
C1056 C 0.8642 0.3632 0.96337 0.0
C1057 C 0.9102 0.34111 0.96533 0.0
N1058 N 0.9874 0.34038 0.99254 0.0
N1059 N 0.8152 0.42963 0.98246 0.0
C1060 C 0.93927 0.35023 0.99337 0.0
C1061 C 0.84992 0.39612 0.98886 0.0
N1062 N 0.936 0.35307 0.05257 0.0
N1063 N 0.83333 0.35173 0.93823 0.0
H1064 H 0.80712 0.45766 0.99868 0.0
H1065 H 0.7992 0.43337 0.95916 0.0
H1066 H 0.84241 0.32808 0.91916 0.0
H1067 H 0.79751 0.36296 0.93795 0.0
H1068 H 0.96614 0.33081 0.05431 0.0
H1069 H 0.91766 0.35578 0.075 0.0
H1070 H 0.01045 0.34941 1.01204 0.0
H1071 H 0.0046 0.32845 0.97098 0.0
C1072 C 0.4055 0.9374 0.51195 0.0
C1073 C 0.42094 0.88872 0.5147 0.0
C1074 C 0.36839 0.86626 0.46821 0.0
C1075 C 0.34752 0.91298 0.46885 0.0
N1076 N 0.3595 -0.00278 0.48108 0.0
N1077 N 0.4394 0.81918 0.48124 0.0
C1078 C 0.37025 0.95003 0.48762 0.0
C1079 C 0.4095 0.85668 0.48838 0.0
N1080 N 0.42527 0.97141 0.5323 0.0
N1081 N 0.34817 0.83049 0.44953 0.0
H1082 H 0.4725 0.8147 0.49302 0.0
H1083 H 0.43486 0.79727 0.46047 0.0
H1084 H 0.31703 0.8352 0.4355 0.0
H1085 H 0.36048 0.79508 0.44962 0.0
H1086 H 0.41179 0.00616 0.53505 0.0
H1087 H 0.45594 0.96438 0.5465 0.0
H1088 H 0.37711 0.02635 0.49189 0.0
H1089 H 0.33584 0.00747 0.46223 0.0
C1090 C 0.59756 0.34098 0.54174 0.0
C1091 C 0.60873 0.39069 0.53732 0.0
C1092 C 0.59007 0.38183 0.47759 0.0
C1093 C 0.58552 0.33115 0.4821 0.0
N1094 N 0.60289 0.26255 0.51704 0.0
N1095 N 0.61882 0.45815 0.49978 0.0
C1096 C 0.59494 0.31088 0.51368 0.0
C1097 C 0.60654 0.41095 0.50472 0.0
N1098 N 0.58778 0.32175 0.57232 0.0
N1099 N 0.57635 0.40249 0.44826 0.0
H1100 H 0.62639 0.48167 0.51928 0.0
H1101 H 0.62347 0.47334 0.47628 0.0
H1102 H 0.56334 0.38252 0.42827 0.0
H1103 H 0.57425 0.43963 0.44469 0.0
H1104 H 0.5759 0.28633 0.57543 0.0
H1105 H 0.58584 0.34144 0.59411 0.0
H1106 H 0.61689 0.24787 0.53881 0.0
H1107 H 0.60171 0.23845 0.49722 0.0
C1108 C 0.11606 0.58554 0.4655 0.0
C1109 C 0.16551 0.59876 0.46703 0.0
C1110 C 0.14936 0.64808 0.51607 0.0
C1111 C 0.10189 0.6294 0.51758 0.0
N1112 N 0.03964 0.57876 0.495 0.0
N1113 N 0.23086 0.63469 0.49778 0.0
C1114 C 0.08481 0.59803 0.4924 0.0
C1115 C 0.18257 0.6281 0.49329 0.0
N1116 N 0.09937 0.56049 0.43866 0.0
N1117 N 0.16263 0.68551 0.53616 0.0
H1118 H 0.25675 0.62058 0.4818 0.0
H1119 H 0.24532 0.65093 0.51884 0.0
H1120 H 0.13918 0.70138 0.5532 0.0
H1121 H 0.19514 0.70396 0.53337 0.0
H1122 H 0.06312 0.55295 0.4346 0.0
H1123 H 0.12169 0.54992 0.41913 0.0
H1124 H 0.02665 0.55159 0.47961 0.0
H1125 H 0.01587 0.5883 0.51398 0.0
C1126 C 0.89947 0.07431 0.49475 0.0
C1127 C 0.85381 0.08041 0.50999 0.0
C1128 C 0.84157 0.15471 0.4782 0.0
C1129 C 0.88698 0.14896 0.46268 0.0
N1130 N 0.95231 0.09593 0.44882 0.0
N1131 N 0.77568 0.11816 0.50833 0.0
C1132 C 0.91387 0.10631 0.46865 0.0
C1133 C 0.82289 0.11761 0.49883 0.0
N1134 N 0.92951 0.03888 0.50587 0.0
N1135 N 0.81772 0.19732 0.47563 0.0
H1136 H 0.76066 0.09176 0.52356 0.0
H1137 H 0.75051 0.14201 0.49836 0.0
H1138 H 0.82853 0.22464 0.45956 0.0
H1139 H 0.78968 0.20658 0.49155 0.0
H1140 H 0.96536 0.03604 0.49848 0.0
H1141 H 0.91883 0.01363 0.52374 0.0
H1142 H 0.97081 0.06334 0.4499 0.0
H1143 H 0.96212 0.118 0.42887 0.0
C1144 C 0.89422 0.06536 1.0129 0.0
C1145 C 0.89954 0.11559 1.00713 0.0
C1146 C 0.85359 0.13226 0.058 0.0
C1147 C 0.84034 0.08297 0.05976 0.0
N1148 N 0.85026 0.0012 0.04102 0.0
N1149 N 0.88129 0.19762 0.02298 0.0
C1150 C 0.86175 0.04899 0.03798 0.0
C1151 C 0.87934 0.14932 0.02975 0.0
N1152 N 0.92089 0.03358 0.99467 0.0
N1153 N 0.84114 0.16292 0.08306 0.0
H1154 H 0.89882 0.21199 1.00235 0.0
H1155 H 0.86226 0.22336 0.03638 0.0
H1156 H 0.82112 0.15207 0.10368 0.0
H1157 H 0.85476 0.19783 0.08499 0.0
H1158 H 0.922 -0.00335 0.99933 0.0
H1159 H 0.94547 0.04486 0.97658 0.0
H1160 H 0.85982 0.97512 0.02369 0.0
H1161 H 0.82955 0.98776 0.06066 0.0
C1162 C 0.34962 0.85881 0.01851 0.0
C1163 C 0.37917 0.89809 1.00851 0.0
C1164 C 0.4397 0.87411 0.05002 0.0
C1165 C 0.4129 0.83144 0.05654 0.0
N1166 N 0.34513 0.78031 0.0446 0.0
N1167 N 0.45285 0.94325 1.01353 0.0
C1168 C 0.36835 0.82335 0.04044 0.0
C1169 C 0.42429 0.90606 0.02415 0.0
N1170 N 0.30352 0.85519 1.00689 0.0
N1171 N 0.47967 0.88391 0.0686 0.0
H1172 H 0.4415 0.96811 0.99565 0.0
H1173 H 0.48829 0.94829 0.0212 0.0
H1174 H 0.49176 0.8608 0.08734 0.0
H1175 H 0.49866 0.91626 0.06728 0.0
H1176 H 0.27836 0.83077 1.01625 0.0
H1177 H 0.28919 0.87877 0.98936 0.0
H1178 H 0.31685 0.76939 0.02952 0.0
H1179 H 0.35653 0.7538 0.06127 0.0
C1180 C 0.61913 0.34 0.07728 0.0
C1181 C 0.66593 0.35648 0.06859 0.0
C1182 C 0.64081 0.36677 1.01098 0.0
C1183 C 0.59417 0.34782 0.0182 0.0
N1184 N 0.54059 0.31165 0.05875 0.0
N1185 N 0.72497 0.36277 0.02515 0.0
C1186 C 0.58407 0.33224 0.05149 0.0
C1187 C 0.6778 0.36145 0.03466 0.0
N1188 N 0.60762 0.33338 0.10995 0.0
N1189 N 0.65045 0.39206 0.98252 0.0
H1190 H 0.75283 0.35868 0.04226 0.0
H1191 H 0.73574 0.3624 1.0003 0.0
H1192 H 0.62486 0.40237 0.96519 0.0
H1193 H 0.68355 0.40884 0.97824 0.0
H1194 H 0.57272 0.32724 0.11846 0.0
H1195 H 0.63313 0.33552 0.12885 0.0
H1196 H 0.53325 0.29408 0.08111 0.0
H1197 H 0.512 0.31098 0.042 0.0
C1198 C 0.11796 0.67208 0.04276 0.0
C1199 C 0.07953 0.65457 0.0625 0.0
C1200 C 0.07974 0.57888 0.03078 0.0
C1201 C 0.11336 0.59961 1.00819 0.0
N1202 N 0.16017 0.66838 0.99031 0.0
N1203 N 0.0214 0.59266 0.07504 0.0
C1204 C 0.13146 0.64685 1.01365 0.0
C1205 C 0.06006 0.60797 0.05678 0.0
N1206 N 0.14138 0.71327 0.05196 0.0
N1207 N 0.0664 0.53174 0.02713 0.0
H1208 H 0.00713 0.61282 0.09457 0.0
H1209 H 0.00193 0.56147 0.06984 0.0
H1210 H 0.07915 0.51026 1.00779 0.0
H1211 H 0.0454 0.51308 0.04437 0.0
H1212 H 0.17136 0.72682 0.03964 0.0
H1213 H 0.13282 0.73214 0.07356 0.0
H1214 H 0.17157 0.70407 0.99125 0.0
H1215 H 0.16943 0.65172 0.96816 0.0
loop_
_geom_bond_atom_site_label_1
_geom_bond_atom_site_label_2
_geom_bond_distance
_geom_bond_site_symmetry_2
_ccdc_geom_bond_type
Sc0 O3 2.025 . S
Sc0 O10 2.105 . S
Sc0 O13 2.105 . S
Sc0 O16 2.105 . S
Sc0 O19 2.105 . S
Sc1 O3 2.025 . S
Sc1 O11 2.105 . S
Sc1 O15 2.105 . S
Sc1 O17 2.105 . S
Sc1 O21 2.105 . S
Sc2 O3 2.025 . S
Sc2 O12 2.105 . S
Sc2 O14 2.105 . S
Sc2 O18 2.105 . S
Sc2 O20 2.105 . S
O3 Sc0 2.025 . S
O3 Sc1 2.025 . S
O3 Sc2 2.025 . S
C4 O10 1.268 . S
C4 O20 1.268 . S
C5 O11 1.268 . S
C5 O19 1.268 . S
C6 O12 1.268 . S
C6 O21 1.268 . S
C7 O13 1.268 . S
C7 O17 1.268 . S
C8 O14 1.268 . S
C8 O16 1.268 . S
C9 O15 1.268 . S
C9 O18 1.268 . S
O10 Sc0 2.105 . S
O10 C4 1.268 . S
O11 Sc1 2.105 . S
O11 C5 1.268 . S
O12 Sc2 2.105 . S
O12 C6 1.268 . S
O13 Sc0 2.105 . S
O13 C7 1.268 . S
O14 Sc2 2.105 . S
O14 C8 1.268 . S
O15 Sc1 2.105 . S
O15 C9 1.268 . S
O16 Sc0 2.105 . S
O16 C8 1.268 . S
O17 Sc1 2.105 . S
O17 C7 1.268 . S
O18 Sc2 2.105 . S
O18 C9 1.268 . S
O19 Sc0 2.105 . S
O19 C5 1.268 . S
O20 Sc2 2.105 . S
O20 C4 1.268 . S
O21 Sc1 2.105 . S
O21 C6 1.268 . S
Sc22 O25 2.025 . S
Sc22 O32 2.105 . S
Sc22 O35 2.105 . S
Sc22 O38 2.105 . S
Sc22 O41 2.105 . S
Sc23 O25 2.025 . S
Sc23 O33 2.105 . S
Sc23 O37 2.105 . S
Sc23 O39 2.105 . S
Sc23 O43 2.105 . S
Sc24 O25 2.025 . S
Sc24 O34 2.105 . S
Sc24 O36 2.105 . S
Sc24 O40 2.105 . S
Sc24 O42 2.105 . S
O25 Sc22 2.025 . S
O25 Sc23 2.025 . S
O25 Sc24 2.025 . S
C26 O32 1.268 . S
C26 O42 1.268 . S
C27 O33 1.268 . S
C27 O41 1.268 . S
C28 O34 1.268 . S
C28 O43 1.268 . S
C29 O35 1.268 . S
C29 O39 1.268 . S
C30 O36 1.268 . S
C30 O38 1.268 . S
C31 O37 1.268 . S
C31 O40 1.268 . S
O32 Sc22 2.105 . S
O32 C26 1.268 . S
O33 Sc23 2.105 . S
O33 C27 1.268 . S
O34 Sc24 2.105 . S
O34 C28 1.268 . S
O35 Sc22 2.105 . S
O35 C29 1.268 . S
O36 Sc24 2.105 . S
O36 C30 1.268 . S
O37 Sc23 2.105 . S
O37 C31 1.268 . S
O38 Sc22 2.105 . S
O38 C30 1.268 . S
O39 Sc23 2.105 . S
O39 C29 1.268 . S
O40 Sc24 2.105 . S
O40 C31 1.268 . S
O41 Sc22 2.105 . S
O41 C27 1.268 . S
O42 Sc24 2.105 . S
O42 C26 1.268 . S
O43 Sc23 2.105 . S
O43 C28 1.268 . S
Sc44 O47 2.025 . S
Sc44 O54 2.105 . S
Sc44 O57 2.105 . S
Sc44 O60 2.105 . S
Sc44 O63 2.105 . S
Sc45 O47 2.025 . S
Sc45 O55 2.105 . S
Sc45 O59 2.105 . S
Sc45 O61 2.105 . S
Sc45 O65 2.105 . S
Sc46 O47 2.025 . S
Sc46 O56 2.105 1_655 S
Sc46 O58 2.105 . S
Sc46 O62 2.105 . S
Sc46 O64 2.105 1_655 S
O47 Sc44 2.025 . S
O47 Sc45 2.025 . S
O47 Sc46 2.025 . S
C48 O54 1.268 1_455 S
C48 O64 1.268 . S
C49 O55 1.268 . S
C49 O63 1.268 . S
C50 O56 1.268 . S
C50 O65 1.268 1_455 S
C51 O57 1.268 . S
C51 O61 1.268 . S
C52 O58 1.268 . S
C52 O60 1.268 . S
C53 O59 1.268 . S
C53 O62 1.268 . S
O54 Sc44 2.105 . S
O54 C48 1.268 1_655 S
O55 Sc45 2.105 . S
O55 C49 1.268 . S
O56 Sc46 2.105 1_455 S
O56 C50 1.268 . S
O57 Sc44 2.105 . S
O57 C51 1.268 . S
O58 Sc46 2.105 . S
O58 C52 1.268 . S
O59 Sc45 2.105 . S
O59 C53 1.268 . S
O60 Sc44 2.105 . S
O60 C52 1.268 . S
O61 Sc45 2.105 . S
O61 C51 1.268 . S
O62 Sc46 2.105 . S
O62 C53 1.268 . S
O63 Sc44 2.105 . S
O63 C49 1.268 . S
O64 Sc46 2.105 1_455 S
O64 C48 1.268 . S
O65 Sc45 2.105 . S
O65 C50 1.268 1_655 S
Sc66 O69 2.025 . S
Sc66 O76 2.105 . S
Sc66 O79 2.105 1_565 S
Sc66 O82 2.105 1_565 S
Sc66 O85 2.105 . S
Sc67 O69 2.025 . S
Sc67 O77 2.105 . S
Sc67 O81 2.105 . S
Sc67 O83 2.105 . S
Sc67 O87 2.105 . S
Sc68 O69 2.025 . S
Sc68 O78 2.105 . S
Sc68 O80 2.105 . S
Sc68 O84 2.105 . S
Sc68 O86 2.105 . S
O69 Sc66 2.025 . S
O69 Sc67 2.025 . S
O69 Sc68 2.025 . S
C70 O76 1.268 . S
C70 O86 1.268 . S
C71 O77 1.268 . S
C71 O85 1.268 . S
C72 O78 1.268 . S
C72 O87 1.268 . S
C73 O79 1.268 . S
C73 O83 1.268 1_545 S
C74 O80 1.268 1_545 S
C74 O82 1.268 . S
C75 O81 1.268 . S
C75 O84 1.268 . S
O76 Sc66 2.105 . S
O76 C70 1.268 . S
O77 Sc67 2.105 . S
O77 C71 1.268 . S
O78 Sc68 2.105 . S
O78 C72 1.268 . S
O79 Sc66 2.105 1_545 S
O79 C73 1.268 . S
O80 Sc68 2.105 . S
O80 C74 1.268 1_565 S
O81 Sc67 2.105 . S
O81 C75 1.268 . S
O82 Sc66 2.105 1_545 S
O82 C74 1.268 . S
O83 Sc67 2.105 . S
O83 C73 1.268 1_565 S
O84 Sc68 2.105 . S
O84 C75 1.268 . S
O85 Sc66 2.105 . S
O85 C71 1.268 . S
O86 Sc68 2.105 . S
O86 C70 1.268 . S
O87 Sc67 2.105 . S
O87 C72 1.268 . S
Sc88 O91 2.025 . S
Sc88 O98 2.105 . S
Sc88 O101 2.105 . S
Sc88 O104 2.105 . S
Sc88 O107 2.105 . S
Sc89 O91 2.025 . S
Sc89 O99 2.105 . S
Sc89 O103 2.105 . S
Sc89 O105 2.105 . S
Sc89 O109 2.105 . S
Sc90 O91 2.025 . S
Sc90 O100 2.105 1_455 S
Sc90 O102 2.105 . S
Sc90 O106 2.105 . S
Sc90 O108 2.105 1_455 S
O91 Sc88 2.025 . S
O91 Sc89 2.025 . S
O91 Sc90 2.025 . S
C92 O98 1.268 1_655 S
C92 O108 1.268 . S
C93 O99 1.268 . S
C93 O107 1.268 . S
C94 O100 1.268 . S
C94 O109 1.268 1_655 S
C95 O101 1.268 . S
C95 O105 1.268 . S
C96 O102 1.268 . S
C96 O104 1.268 . S
C97 O103 1.268 . S
C97 O106 1.268 . S
O98 Sc88 2.105 . S
O98 C92 1.268 1_455 S
O99 Sc89 2.105 . S
O99 C93 1.268 . S
O100 Sc90 2.105 1_655 S
O100 C94 1.268 . S
O101 Sc88 2.105 . S
O101 C95 1.268 . S
O102 Sc90 2.105 . S
O102 C96 1.268 . S
O103 Sc89 2.105 . S
O103 C97 1.268 . S
O104 Sc88 2.105 . S
O104 C96 1.268 . S
O105 Sc89 2.105 . S
O105 C95 1.268 . S
O106 Sc90 2.105 . S
O106 C97 1.268 . S
O107 Sc88 2.105 . S
O107 C93 1.268 . S
O108 Sc90 2.105 1_655 S
O108 C92 1.268 . S
O109 Sc89 2.105 . S
O109 C94 1.268 1_455 S
Sc110 O113 2.025 . S
Sc110 O120 2.105 . S
Sc110 O123 2.105 1_545 S
Sc110 O126 2.105 1_545 S
Sc110 O129 2.105 . S
Sc111 O113 2.025 . S
Sc111 O121 2.105 . S
Sc111 O125 2.105 . S
Sc111 O127 2.105 . S
Sc111 O131 2.105 . S
Sc112 O113 2.025 . S
Sc112 O122 2.105 . S
Sc112 O124 2.105 . S
Sc112 O128 2.105 . S
Sc112 O130 2.105 . S
O113 Sc110 2.025 . S
O113 Sc111 2.025 . S
O113 Sc112 2.025 . S
C114 O120 1.268 . S
C114 O130 1.268 . S
C115 O121 1.268 . S
C115 O129 1.268 . S
C116 O122 1.268 . S
C116 O131 1.268 . S
C117 O123 1.268 . S
C117 O127 1.268 1_565 S
C118 O124 1.268 1_565 S
C118 O126 1.268 . S
C119 O125 1.268 . S
C119 O128 1.268 . S
O120 Sc110 2.105 . S
O120 C114 1.268 . S
O121 Sc111 2.105 . S
O121 C115 1.268 . S
O122 Sc112 2.105 . S
O122 C116 1.268 . S
O123 Sc110 2.105 1_565 S
O123 C117 1.268 . S
O124 Sc112 2.105 . S
O124 C118 1.268 1_545 S
O125 Sc111 2.105 . S
O125 C119 1.268 . S
O126 Sc110 2.105 1_565 S
O126 C118 1.268 . S
O127 Sc111 2.105 . S
O127 C117 1.268 1_545 S
O128 Sc112 2.105 . S
O128 C119 1.268 . S
O129 Sc110 2.105 . S
O129 C115 1.268 . S
O130 Sc112 2.105 . S
O130 C114 1.268 . S
O131 Sc111 2.105 . S
O131 C116 1.268 . S
Sc132 O135 2.025 . S
Sc132 O142 2.105 . S
Sc132 O145 2.105 . S
Sc132 O148 2.105 . S
Sc132 O151 2.105 . S
Sc133 O135 2.025 . S
Sc133 O143 2.105 . S
Sc133 O147 2.105 . S
Sc133 O149 2.105 . S
Sc133 O153 2.105 . S
Sc134 O135 2.025 . S
Sc134 O144 2.105 . S
Sc134 O146 2.105 . S
Sc134 O150 2.105 . S
Sc134 O152 2.105 . S
O135 Sc132 2.025 . S
O135 Sc133 2.025 . S
O135 Sc134 2.025 . S
C136 O142 1.268 . S
C136 O152 1.268 . S
C137 O143 1.268 . S
C137 O151 1.268 . S
C138 O144 1.268 . S
C138 O153 1.268 . S
C139 O145 1.268 . S
C139 O149 1.268 . S
C140 O146 1.268 . S
C140 O148 1.268 . S
C141 O147 1.268 . S
C141 O150 1.268 . S
O142 Sc132 2.105 . S
O142 C136 1.268 . S
O143 Sc133 2.105 . S
O143 C137 1.268 . S
O144 Sc134 2.105 . S
O144 C138 1.268 . S
O145 Sc132 2.105 . S
O145 C139 1.268 . S
O146 Sc134 2.105 . S
O146 C140 1.268 . S
O147 Sc133 2.105 . S
O147 C141 1.268 . S
O148 Sc132 2.105 . S
O148 C140 1.268 . S
O149 Sc133 2.105 . S
O149 C139 1.268 . S
O150 Sc134 2.105 . S
O150 C141 1.268 . S
O151 Sc132 2.105 . S
O151 C137 1.268 . S
O152 Sc134 2.105 . S
O152 C136 1.268 . S
O153 Sc133 2.105 . S
O153 C138 1.268 . S
Sc154 O157 2.025 . S
Sc154 O164 2.105 . S
Sc154 O167 2.105 . S
Sc154 O170 2.105 . S
Sc154 O173 2.105 . S
Sc155 O157 2.025 . S
Sc155 O165 2.105 . S
Sc155 O169 2.105 . S
Sc155 O171 2.105 . S
Sc155 O175 2.105 . S
Sc156 O157 2.025 . S
Sc156 O166 2.105 . S
Sc156 O168 2.105 . S
Sc156 O172 2.105 . S
Sc156 O174 2.105 . S
O157 Sc154 2.025 . S
O157 Sc155 2.025 . S
O157 Sc156 2.025 . S
C158 O164 1.268 . S
C158 O174 1.268 . S
C159 O165 1.268 . S
C159 O173 1.268 . S
C160 O166 1.268 . S
C160 O175 1.268 . S
C161 O167 1.268 . S
C161 O171 1.268 . S
C162 O168 1.268 . S
C162 O170 1.268 . S
C163 O169 1.268 . S
C163 O172 1.268 . S
O164 Sc154 2.105 . S
O164 C158 1.268 . S
O165 Sc155 2.105 . S
O165 C159 1.268 . S
O166 Sc156 2.105 . S
O166 C160 1.268 . S
O167 Sc154 2.105 . S
O167 C161 1.268 . S
O168 Sc156 2.105 . S
O168 C162 1.268 . S
O169 Sc155 2.105 . S
O169 C163 1.268 . S
O170 Sc154 2.105 . S
O170 C162 1.268 . S
O171 Sc155 2.105 . S
O171 C161 1.268 . S
O172 Sc156 2.105 . S
O172 C163 1.268 . S
O173 Sc154 2.105 . S
O173 C159 1.268 . S
O174 Sc156 2.105 . S
O174 C158 1.268 . S
O175 Sc155 2.105 . S
O175 C160 1.268 . S
Sc176 O179 2.025 . S
Sc176 O186 2.105 . S
Sc176 O189 2.105 . S
Sc176 O192 2.105 . S
Sc176 O195 2.105 . S
Sc177 O179 2.025 . S
Sc177 O187 2.105 . S
Sc177 O191 2.105 . S
Sc177 O193 2.105 . S
Sc177 O197 2.105 . S
Sc178 O179 2.025 . S
Sc178 O188 2.105 . S
Sc178 O190 2.105 . S
Sc178 O194 2.105 . S
Sc178 O196 2.105 . S
O179 Sc176 2.025 . S
O179 Sc177 2.025 . S
O179 Sc178 2.025 . S
C180 O186 1.268 . S
C180 O196 1.268 . S
C181 O187 1.268 . S
C181 O195 1.268 . S
C182 O188 1.268 . S
C182 O197 1.268 . S
C183 O189 1.268 . S
C183 O193 1.268 . S
C184 O190 1.268 . S
C184 O192 1.268 . S
C185 O191 1.268 . S
C185 O194 1.268 . S
O186 Sc176 2.105 . S
O186 C180 1.268 . S
O187 Sc177 2.105 . S
O187 C181 1.268 . S
O188 Sc178 2.105 . S
O188 C182 1.268 . S
O189 Sc176 2.105 . S
O189 C183 1.268 . S
O190 Sc178 2.105 . S
O190 C184 1.268 . S
O191 Sc177 2.105 . S
O191 C185 1.268 . S
O192 Sc176 2.105 . S
O192 C184 1.268 . S
O193 Sc177 2.105 . S
O193 C183 1.268 . S
O194 Sc178 2.105 . S
O194 C185 1.268 . S
O195 Sc176 2.105 . S
O195 C181 1.268 . S
O196 Sc178 2.105 . S
O196 C180 1.268 . S
O197 Sc177 2.105 . S
O197 C182 1.268 . S
Sc198 O201 2.025 . S
Sc198 O208 2.105 . S
Sc198 O211 2.105 . S
Sc198 O214 2.105 . S
Sc198 O217 2.105 . S
Sc199 O201 2.025 . S
Sc199 O209 2.105 . S
Sc199 O213 2.105 . S
Sc199 O215 2.105 . S
Sc199 O219 2.105 . S
Sc200 O201 2.025 . S
Sc200 O210 2.105 . S
Sc200 O212 2.105 . S
Sc200 O216 2.105 . S
Sc200 O218 2.105 . S
O201 Sc198 2.025 . S
O201 Sc199 2.025 . S
O201 Sc200 2.025 . S
C202 O208 1.268 . S
C202 O218 1.268 . S
C203 O209 1.268 . S
C203 O217 1.268 . S
C204 O210 1.268 . S
C204 O219 1.268 . S
C205 O211 1.268 . S
C205 O215 1.268 . S
C206 O212 1.268 . S
C206 O214 1.268 . S
C207 O213 1.268 . S
C207 O216 1.268 . S
O208 Sc198 2.105 . S
O208 C202 1.268 . S
O209 Sc199 2.105 . S
O209 C203 1.268 . S
O210 Sc200 2.105 . S
O210 C204 1.268 . S
O211 Sc198 2.105 . S
O211 C205 1.268 . S
O212 Sc200 2.105 . S
O212 C206 1.268 . S
O213 Sc199 2.105 . S
O213 C207 1.268 . S
O214 Sc198 2.105 . S
O214 C206 1.268 . S
O215 Sc199 2.105 . S
O215 C205 1.268 . S
O216 Sc200 2.105 . S
O216 C207 1.268 . S
O217 Sc198 2.105 . S
O217 C203 1.268 . S
O218 Sc200 2.105 . S
O218 C202 1.268 . S
O219 Sc199 2.105 . S
O219 C204 1.268 . S
Sc220 O223 2.025 . S
Sc220 O230 2.105 . S
Sc220 O233 2.105 . S
Sc220 O236 2.105 . S
Sc220 O239 2.105 . S
Sc221 O223 2.025 . S
Sc221 O231 2.105 . S
Sc221 O235 2.105 . S
Sc221 O237 2.105 . S
Sc221 O241 2.105 . S
Sc222 O223 2.025 . S
Sc222 O232 2.105 . S
Sc222 O234 2.105 1_455 S
Sc222 O238 2.105 1_455 S
Sc222 O240 2.105 . S
O223 Sc220 2.025 . S
O223 Sc221 2.025 . S
O223 Sc222 2.025 . S
C224 O230 1.268 . S
C224 O240 1.268 . S
C225 O231 1.268 . S
C225 O239 1.268 . S
C226 O232 1.268 . S
C226 O241 1.268 . S
C227 O233 1.268 . S
C227 O237 1.268 . S
C228 O234 1.268 . S
C228 O236 1.268 1_655 S
C229 O235 1.268 1_655 S
C229 O238 1.268 . S
O230 Sc220 2.105 . S
O230 C224 1.268 . S
O231 Sc221 2.105 . S
O231 C225 1.268 . S
O232 Sc222 2.105 . S
O232 C226 1.268 . S
O233 Sc220 2.105 . S
O233 C227 1.268 . S
O234 Sc222 2.105 1_655 S
O234 C228 1.268 . S
O235 Sc221 2.105 . S
O235 C229 1.268 1_455 S
O236 Sc220 2.105 . S
O236 C228 1.268 1_455 S
O237 Sc221 2.105 . S
O237 C227 1.268 . S
O238 Sc222 2.105 1_655 S
O238 C229 1.268 . S
O239 Sc220 2.105 . S
O239 C225 1.268 . S
O240 Sc222 2.105 . S
O240 C224 1.268 . S
O241 Sc221 2.105 . S
O241 C226 1.268 . S
Sc242 O245 2.025 . S
Sc242 O252 2.105 . S
Sc242 O255 2.105 . S
Sc242 O258 2.105 . S
Sc242 O261 2.105 . S
Sc243 O245 2.025 . S
Sc243 O253 2.105 . S
Sc243 O257 2.105 . S
Sc243 O259 2.105 . S
Sc243 O263 2.105 . S
Sc244 O245 2.025 . S
Sc244 O254 2.105 . S
Sc244 O256 2.105 1_545 S
Sc244 O260 2.105 1_545 S
Sc244 O262 2.105 . S
O245 Sc242 2.025 . S
O245 Sc243 2.025 . S
O245 Sc244 2.025 . S
C246 O252 1.268 . S
C246 O262 1.268 . S
C247 O253 1.268 . S
C247 O261 1.268 . S
C248 O254 1.268 . S
C248 O263 1.268 . S
C249 O255 1.268 . S
C249 O259 1.268 . S
C250 O256 1.268 . S
C250 O258 1.268 1_565 S
C251 O257 1.268 1_565 S
C251 O260 1.268 . S
O252 Sc242 2.105 . S
O252 C246 1.268 . S
O253 Sc243 2.105 . S
O253 C247 1.268 . S
O254 Sc244 2.105 . S
O254 C248 1.268 . S
O255 Sc242 2.105 . S
O255 C249 1.268 . S
O256 Sc244 2.105 1_565 S
O256 C250 1.268 . S
O257 Sc243 2.105 . S
O257 C251 1.268 1_545 S
O258 Sc242 2.105 . S
O258 C250 1.268 1_545 S
O259 Sc243 2.105 . S
O259 C249 1.268 . S
O260 Sc244 2.105 1_565 S
O260 C251 1.268 . S
O261 Sc242 2.105 . S
O261 C247 1.268 . S
O262 Sc244 2.105 . S
O262 C246 1.268 . S
O263 Sc243 2.105 . S
O263 C248 1.268 . S
Sc264 O267 2.025 . S
Sc264 O274 2.105 . S
Sc264 O277 2.105 . S
Sc264 O280 2.105 . S
Sc264 O283 2.105 . S
Sc265 O267 2.025 . S
Sc265 O275 2.105 . S
Sc265 O279 2.105 . S
Sc265 O281 2.105 . S
Sc265 O285 2.105 . S
Sc266 O267 2.025 . S
Sc266 O276 2.105 . S
Sc266 O278 2.105 1_655 S
Sc266 O282 2.105 1_655 S
Sc266 O284 2.105 . S
O267 Sc264 2.025 . S
O267 Sc265 2.025 . S
O267 Sc266 2.025 . S
C268 O274 1.268 . S
C268 O284 1.268 . S
C269 O275 1.268 . S
C269 O283 1.268 . S
C270 O276 1.268 . S
C270 O285 1.268 . S
C271 O277 1.268 . S
C271 O281 1.268 . S
C272 O278 1.268 . S
C272 O280 1.268 1_455 S
C273 O279 1.268 1_455 S
C273 O282 1.268 . S
O274 Sc264 2.105 . S
O274 C268 1.268 . S
O275 Sc265 2.105 . S
O275 C269 1.268 . S
O276 Sc266 2.105 . S
O276 C270 1.268 . S
O277 Sc264 2.105 . S
O277 C271 1.268 . S
O278 Sc266 2.105 1_455 S
O278 C272 1.268 . S
O279 Sc265 2.105 . S
O279 C273 1.268 1_655 S
O280 Sc264 2.105 . S
O280 C272 1.268 1_655 S
O281 Sc265 2.105 . S
O281 C271 1.268 . S
O282 Sc266 2.105 1_455 S
O282 C273 1.268 . S
O283 Sc264 2.105 . S
O283 C269 1.268 . S
O284 Sc266 2.105 . S
O284 C268 1.268 . S
O285 Sc265 2.105 . S
O285 C270 1.268 . S
Sc286 O289 2.025 . S
Sc286 O296 2.105 . S
Sc286 O299 2.105 . S
Sc286 O302 2.105 . S
Sc286 O305 2.105 . S
Sc287 O289 2.025 . S
Sc287 O297 2.105 . S
Sc287 O301 2.105 . S
Sc287 O303 2.105 . S
Sc287 O307 2.105 . S
Sc288 O289 2.025 . S
Sc288 O298 2.105 . S
Sc288 O300 2.105 1_565 S
Sc288 O304 2.105 1_565 S
Sc288 O306 2.105 . S
O289 Sc286 2.025 . S
O289 Sc287 2.025 . S
O289 Sc288 2.025 . S
C290 O296 1.268 . S
C290 O306 1.268 . S
C291 O297 1.268 . S
C291 O305 1.268 . S
C292 O298 1.268 . S
C292 O307 1.268 . S
C293 O299 1.268 . S
C293 O303 1.268 . S
C294 O300 1.268 . S
C294 O302 1.268 1_545 S
C295 O301 1.268 1_545 S
C295 O304 1.268 . S
O296 Sc286 2.105 . S
O296 C290 1.268 . S
O297 Sc287 2.105 . S
O297 C291 1.268 . S
O298 Sc288 2.105 . S
O298 C292 1.268 . S
O299 Sc286 2.105 . S
O299 C293 1.268 . S
O300 Sc288 2.105 1_545 S
O300 C294 1.268 . S
O301 Sc287 2.105 . S
O301 C295 1.268 1_565 S
O302 Sc286 2.105 . S
O302 C294 1.268 1_565 S
O303 Sc287 2.105 . S
O303 C293 1.268 . S
O304 Sc288 2.105 1_545 S
O304 C295 1.268 . S
O305 Sc286 2.105 . S
O305 C291 1.268 . S
O306 Sc288 2.105 . S
O306 C290 1.268 . S
O307 Sc287 2.105 . S
O307 C292 1.268 . S
Sc308 O311 2.025 . S
Sc308 O318 2.105 . S
Sc308 O321 2.105 . S
Sc308 O324 2.105 . S
Sc308 O327 2.105 . S
Sc309 O311 2.025 . S
Sc309 O319 2.105 . S
Sc309 O323 2.105 . S
Sc309 O325 2.105 . S
Sc309 O329 2.105 . S
Sc310 O311 2.025 . S
Sc310 O320 2.105 . S
Sc310 O322 2.105 . S
Sc310 O326 2.105 . S
Sc310 O328 2.105 . S
O311 Sc308 2.025 . S
O311 Sc309 2.025 . S
O311 Sc310 2.025 . S
C312 O318 1.268 . S
C312 O328 1.268 . S
C313 O319 1.268 . S
C313 O327 1.268 . S
C314 O320 1.268 . S
C314 O329 1.268 . S
C315 O321 1.268 . S
C315 O325 1.268 . S
C316 O322 1.268 . S
C316 O324 1.268 . S
C317 O323 1.268 . S
C317 O326 1.268 . S
O318 Sc308 2.105 . S
O318 C312 1.268 . S
O319 Sc309 2.105 . S
O319 C313 1.268 . S
O320 Sc310 2.105 . S
O320 C314 1.268 . S
O321 Sc308 2.105 . S
O321 C315 1.268 . S
O322 Sc310 2.105 . S
O322 C316 1.268 . S
O323 Sc309 2.105 . S
O323 C317 1.268 . S
O324 Sc308 2.105 . S
O324 C316 1.268 . S
O325 Sc309 2.105 . S
O325 C315 1.268 . S
O326 Sc310 2.105 . S
O326 C317 1.268 . S
O327 Sc308 2.105 . S
O327 C313 1.268 . S
O328 Sc310 2.105 . S
O328 C312 1.268 . S
O329 Sc309 2.105 . S
O329 C314 1.268 . S
Sc330 O333 2.025 . S
Sc330 O340 2.105 . S
Sc330 O343 2.105 . S
Sc330 O346 2.105 . S
Sc330 O349 2.105 . S
Sc331 O333 2.025 . S
Sc331 O341 2.105 . S
Sc331 O345 2.105 . S
Sc331 O347 2.105 . S
Sc331 O351 2.105 . S
Sc332 O333 2.025 . S
Sc332 O342 2.105 . S
Sc332 O344 2.105 . S
Sc332 O348 2.105 . S
Sc332 O350 2.105 . S
O333 Sc330 2.025 . S
O333 Sc331 2.025 . S
O333 Sc332 2.025 . S
C334 O340 1.268 . S
C334 O350 1.268 . S
C335 O341 1.268 . S
C335 O349 1.268 . S
C336 O342 1.268 . S
C336 O351 1.268 . S
C337 O343 1.268 . S
C337 O347 1.268 . S
C338 O344 1.268 . S
C338 O346 1.268 . S
C339 O345 1.268 . S
C339 O348 1.268 . S
O340 Sc330 2.105 . S
O340 C334 1.268 . S
O341 Sc331 2.105 . S
O341 C335 1.268 . S
O342 Sc332 2.105 . S
O342 C336 1.268 . S
O343 Sc330 2.105 . S
O343 C337 1.268 . S
O344 Sc332 2.105 . S
O344 C338 1.268 . S
O345 Sc331 2.105 . S
O345 C339 1.268 . S
O346 Sc330 2.105 . S
O346 C338 1.268 . S
O347 Sc331 2.105 . S
O347 C337 1.268 . S
O348 Sc332 2.105 . S
O348 C339 1.268 . S
O349 Sc330 2.105 . S
O349 C335 1.268 . S
O350 Sc332 2.105 . S
O350 C334 1.268 . S
O351 Sc331 2.105 . S
O351 C336 1.268 . S
C352 C353 1.363 . S
C352 C358 1.379 . S
C352 N360 1.356 . S
C353 C352 1.363 . S
C353 C359 1.363 . S
C354 C355 1.363 . S
C354 C359 1.379 . S
C354 N361 1.356 . S
C355 C354 1.363 . S
C355 C358 1.363 . S
N356 C358 1.356 . S
N356 H368 0.984 . S
N356 H369 0.985 . S
N357 C359 1.356 . S
N357 H362 0.984 . S
N357 H363 0.985 . S
C358 C352 1.379 . S
C358 C355 1.363 . S
C358 N356 1.356 . S
C359 C353 1.363 . S
C359 C354 1.379 . S
C359 N357 1.356 . S
N360 C352 1.356 . S
N360 H366 0.984 . S
N360 H367 0.984 . S
N361 C354 1.356 . S
N361 H364 0.984 . S
N361 H365 0.985 . S
H362 N357 0.984 . S
H363 N357 0.985 . S
H364 N361 0.984 . S
H365 N361 0.985 . S
H366 N360 0.984 . S
H367 N360 0.984 . S
H368 N356 0.984 . S
H369 N356 0.985 . S
C370 C371 1.363 . S
C370 C376 1.379 . S
C370 N378 1.356 . S
C371 C370 1.363 . S
C371 C377 1.363 . S
C372 C373 1.363 . S
C372 C377 1.379 . S
C372 N379 1.356 . S
C373 C372 1.363 . S
C373 C376 1.363 . S
N374 C376 1.356 . S
N374 H386 0.984 . S
N374 H387 0.985 . S
N375 C377 1.356 . S
N375 H380 0.984 . S
N375 H381 0.985 . S
C376 C370 1.379 . S
C376 C373 1.363 . S
C376 N374 1.356 . S
C377 C371 1.363 . S
C377 C372 1.379 . S
C377 N375 1.356 . S
N378 C370 1.356 . S
N378 H384 0.984 . S
N378 H385 0.984 . S
N379 C372 1.356 . S
N379 H382 0.984 . S
N379 H383 0.985 . S
H380 N375 0.984 . S
H381 N375 0.985 . S
H382 N379 0.984 . S
H383 N379 0.985 . S
H384 N378 0.984 . S
H385 N378 0.984 . S
H386 N374 0.984 . S
H387 N374 0.985 . S
C388 C389 1.363 . S
C388 C394 1.379 . S
C388 N396 1.356 . S
C389 C388 1.363 . S
C389 C395 1.363 . S
C390 C391 1.363 . S
C390 C395 1.379 . S
C390 N397 1.356 . S
C391 C390 1.363 . S
C391 C394 1.363 . S
N392 C394 1.356 . S
N392 H404 0.984 . S
N392 H405 0.985 . S
N393 C395 1.356 . S
N393 H398 0.984 . S
N393 H399 0.985 . S
C394 C388 1.379 . S
C394 C391 1.363 . S
C394 N392 1.356 . S
C395 C389 1.363 . S
C395 C390 1.379 . S
C395 N393 1.356 . S
N396 C388 1.356 . S
N396 H402 0.984 . S
N396 H403 0.984 . S
N397 C390 1.356 . S
N397 H400 0.984 . S
N397 H401 0.985 . S
H398 N393 0.984 . S
H399 N393 0.985 . S
H400 N397 0.984 . S
H401 N397 0.985 . S
H402 N396 0.984 . S
H403 N396 0.984 . S
H404 N392 0.984 . S
H405 N392 0.985 . S
C406 C407 1.363 . S
C406 C412 1.379 . S
C406 N414 1.356 . S
C407 C406 1.363 . S
C407 C413 1.363 . S
C408 C409 1.363 . S
C408 C413 1.379 . S
C408 N415 1.356 . S
C409 C408 1.363 . S
C409 C412 1.363 . S
N410 C412 1.356 . S
N410 H422 0.984 . S
N410 H423 0.985 . S
N411 C413 1.356 . S
N411 H416 0.984 . S
N411 H417 0.985 . S
C412 C406 1.379 . S
C412 C409 1.363 . S
C412 N410 1.356 . S
C413 C407 1.363 . S
C413 C408 1.379 . S
C413 N411 1.356 . S
N414 C406 1.356 . S
N414 H420 0.984 . S
N414 H421 0.984 . S
N415 C408 1.356 . S
N415 H418 0.984 . S
N415 H419 0.985 . S
H416 N411 0.984 . S
H417 N411 0.985 . S
H418 N415 0.984 . S
H419 N415 0.985 . S
H420 N414 0.984 . S
H421 N414 0.984 . S
H422 N410 0.984 . S
H423 N410 0.985 . S
C424 C425 1.363 . S
C424 C430 1.379 . S
C424 N432 1.356 . S
C425 C424 1.363 . S
C425 C431 1.363 . S
C426 C427 1.363 . S
C426 C431 1.379 . S
C426 N433 1.356 . S
C427 C426 1.363 . S
C427 C430 1.363 . S
N428 C430 1.356 . S
N428 H440 0.984 . S
N428 H441 0.985 . S
N429 C431 1.356 . S
N429 H434 0.984 . S
N429 H435 0.985 . S
C430 C424 1.379 . S
C430 C427 1.363 . S
C430 N428 1.356 . S
C431 C425 1.363 . S
C431 C426 1.379 . S
C431 N429 1.356 . S
N432 C424 1.356 . S
N432 H438 0.984 . S
N432 H439 0.984 . S
N433 C426 1.356 . S
N433 H436 0.984 . S
N433 H437 0.985 . S
H434 N429 0.984 . S
H435 N429 0.985 . S
H436 N433 0.984 . S
H437 N433 0.985 . S
H438 N432 0.984 . S
H439 N432 0.984 . S
H440 N428 0.984 . S
H441 N428 0.985 . S
C442 C443 1.363 . S
C442 C448 1.379 . S
C442 N450 1.356 . S
C443 C442 1.363 . S
C443 C449 1.363 . S
C444 C445 1.363 . S
C444 C449 1.379 . S
C444 N451 1.356 . S
C445 C444 1.363 . S
C445 C448 1.363 . S
N446 C448 1.356 . S
N446 H458 0.984 . S
N446 H459 0.985 . S
N447 C449 1.356 . S
N447 H452 0.984 . S
N447 H453 0.985 . S
C448 C442 1.379 . S
C448 C445 1.363 . S
C448 N446 1.356 . S
C449 C443 1.363 . S
C449 C444 1.379 . S
C449 N447 1.356 . S
N450 C442 1.356 . S
N450 H456 0.984 . S
N450 H457 0.984 . S
N451 C444 1.356 . S
N451 H454 0.984 . S
N451 H455 0.985 . S
H452 N447 0.984 . S
H453 N447 0.985 . S
H454 N451 0.984 . S
H455 N451 0.985 . S
H456 N450 0.984 . S
H457 N450 0.984 . S
H458 N446 0.984 . S
H459 N446 0.985 . S
C460 C461 1.363 . S
C460 C466 1.379 . S
C460 N468 1.356 . S
C461 C460 1.363 . S
C461 C467 1.363 . S
C462 C463 1.363 . S
C462 C467 1.379 . S
C462 N469 1.356 . S
C463 C462 1.363 . S
C463 C466 1.363 . S
N464 C466 1.356 . S
N464 H476 0.984 . S
N464 H477 0.985 . S
N465 C467 1.356 . S
N465 H470 0.984 . S
N465 H471 0.985 . S
C466 C460 1.379 . S
C466 C463 1.363 . S
C466 N464 1.356 . S
C467 C461 1.363 . S
C467 C462 1.379 . S
C467 N465 1.356 . S
N468 C460 1.356 . S
N468 H474 0.984 . S
N468 H475 0.984 . S
N469 C462 1.356 . S
N469 H472 0.984 . S
N469 H473 0.985 . S
H470 N465 0.984 . S
H471 N465 0.985 . S
H472 N469 0.984 . S
H473 N469 0.985 . S
H474 N468 0.984 . S
H475 N468 0.984 . S
H476 N464 0.984 . S
H477 N464 0.985 . S
C478 C479 1.363 . S
C478 C484 1.379 . S
C478 N486 1.356 . S
C479 C478 1.363 . S
C479 C485 1.363 . S
C480 C481 1.363 . S
C480 C485 1.379 . S
C480 N487 1.356 . S
C481 C480 1.363 . S
C481 C484 1.363 . S
N482 C484 1.356 . S
N482 H494 0.984 . S
N482 H495 0.985 . S
N483 C485 1.356 . S
N483 H488 0.984 . S
N483 H489 0.985 . S
C484 C478 1.379 . S
C484 C481 1.363 . S
C484 N482 1.356 . S
C485 C479 1.363 . S
C485 C480 1.379 . S
C485 N483 1.356 . S
N486 C478 1.356 . S
N486 H492 0.984 . S
N486 H493 0.984 . S
N487 C480 1.356 . S
N487 H490 0.984 . S
N487 H491 0.985 . S
H488 N483 0.984 . S
H489 N483 0.985 . S
H490 N487 0.984 . S
H491 N487 0.985 . S
H492 N486 0.984 . S
H493 N486 0.984 . S
H494 N482 0.984 . S
H495 N482 0.985 . S
C496 C497 1.363 . S
C496 C502 1.379 . S
C496 N504 1.356 . S
C497 C496 1.363 . S
C497 C503 1.363 . S
C498 C499 1.363 . S
C498 C503 1.379 . S
C498 N505 1.368 . S
C499 C498 1.363 . S
C499 C502 1.363 . S
N500 C502 1.356 . S
N500 H512 0.984 . S
N500 H513 0.985 . S
N501 C503 1.356 . S
N501 H506 0.984 . S
N501 H507 0.985 . S
C502 C496 1.379 . S
C502 C499 1.363 . S
C502 N500 1.356 . S
C503 C497 1.363 . S
C503 C498 1.379 . S
C503 N501 1.356 . S
N504 C496 1.356 . S
N504 H510 0.984 . S
N504 H511 0.984 . S
N505 C498 1.368 . S
N505 H508 0.982 1_545 S
N505 H509 0.976 1_545 S
H506 N501 0.984 . S
H507 N501 0.985 . S
H508 N505 0.982 1_565 S
H509 N505 0.976 1_565 S
H510 N504 0.984 . S
H511 N504 0.984 . S
H512 N500 0.984 . S
H513 N500 0.985 . S
C514 C515 1.363 . S
C514 C520 1.379 . S
C514 N522 1.356 . S
C515 C514 1.363 . S
C515 C521 1.363 . S
C516 C517 1.363 . S
C516 C521 1.379 . S
C516 N523 1.356 . S
C517 C516 1.363 . S
C517 C520 1.363 . S
N518 C520 1.356 . S
N518 H530 0.984 . S
N518 H531 0.985 . S
N519 C521 1.356 . S
N519 H524 0.984 . S
N519 H525 0.985 . S
C520 C514 1.379 . S
C520 C517 1.363 . S
C520 N518 1.356 . S
C521 C515 1.363 . S
C521 C516 1.379 . S
C521 N519 1.356 . S
N522 C514 1.356 . S
N522 H528 0.984 . S
N522 H529 0.984 . S
N523 C516 1.356 . S
N523 H526 0.984 . S
N523 H527 0.985 . S
H524 N519 0.984 . S
H525 N519 0.985 . S
H526 N523 0.984 . S
H527 N523 0.985 . S
H528 N522 0.984 . S
H529 N522 0.984 . S
H530 N518 0.984 . S
H531 N518 0.985 . S
C532 C533 1.363 . S
C532 C538 1.379 . S
C532 N540 1.356 . S
C533 C532 1.363 . S
C533 C539 1.363 . S
C534 C535 1.363 . S
C534 C539 1.379 . S
C534 N541 1.356 . S
C535 C534 1.363 . S
C535 C538 1.363 . S
N536 C538 1.356 . S
N536 H548 0.984 . S
N536 H549 0.985 . S
N537 C539 1.356 . S
N537 H542 0.984 . S
N537 H543 0.985 . S
C538 C532 1.379 . S
C538 C535 1.363 . S
C538 N536 1.356 . S
C539 C533 1.363 . S
C539 C534 1.379 . S
C539 N537 1.356 . S
N540 C532 1.356 . S
N540 H546 0.984 . S
N540 H547 0.984 . S
N541 C534 1.356 . S
N541 H544 0.984 . S
N541 H545 0.985 . S
H542 N537 0.984 . S
H543 N537 0.985 . S
H544 N541 0.984 . S
H545 N541 0.985 . S
H546 N540 0.984 . S
H547 N540 0.984 . S
H548 N536 0.984 . S
H549 N536 0.985 . S
C550 C551 1.363 . S
C550 C556 1.379 . S
C550 N558 1.356 . S
C551 C550 1.363 . S
C551 C557 1.363 . S
C552 C553 1.363 . S
C552 C557 1.379 . S
C552 N559 1.356 . S
C553 C552 1.363 . S
C553 C556 1.363 . S
N554 C556 1.356 . S
N554 H566 0.984 . S
N554 H567 0.985 . S
N555 C557 1.356 . S
N555 H560 0.984 . S
N555 H561 0.985 . S
C556 C550 1.379 . S
C556 C553 1.363 . S
C556 N554 1.356 . S
C557 C551 1.363 . S
C557 C552 1.379 . S
C557 N555 1.356 . S
N558 C550 1.356 . S
N558 H564 0.984 . S
N558 H565 0.984 . S
N559 C552 1.356 . S
N559 H562 0.984 . S
N559 H563 0.986 . S
H560 N555 0.984 . S
H561 N555 0.985 . S
H562 N559 0.984 . S
H563 N559 0.986 . S
H564 N558 0.984 . S
H565 N558 0.984 . S
H566 N554 0.984 . S
H567 N554 0.985 . S
C568 C569 1.363 . S
C568 C574 1.379 . S
C568 N576 1.356 . S
C569 C568 1.363 . S
C569 C575 1.363 . S
C570 C571 1.363 . S
C570 C575 1.379 . S
C570 N577 1.356 . S
C571 C570 1.363 . S
C571 C574 1.363 . S
N572 C574 1.356 1_545 S
N572 H584 0.984 . S
N572 H585 0.985 . S
N573 C575 1.356 . S
N573 H578 0.984 . S
N573 H579 0.985 . S
C574 C568 1.379 . S
C574 C571 1.363 . S
C574 N572 1.356 1_565 S
C575 C569 1.363 . S
C575 C570 1.379 . S
C575 N573 1.356 . S
N576 C568 1.356 . S
N576 H582 0.984 . S
N576 H583 0.984 . S
N577 C570 1.356 . S
N577 H580 0.984 . S
N577 H581 0.985 . S
H578 N573 0.984 . S
H579 N573 0.985 . S
H580 N577 0.984 . S
H581 N577 0.985 . S
H582 N576 0.984 . S
H583 N576 0.984 . S
H584 N572 0.984 . S
H585 N572 0.985 . S
C586 C587 1.363 . S
C586 C592 1.379 . S
C586 N594 1.356 . S
C587 C586 1.363 . S
C587 C593 1.363 . S
C588 C589 1.363 . S
C588 C593 1.379 . S
C588 N595 1.356 . S
C589 C588 1.363 . S
C589 C592 1.363 . S
N590 C592 1.356 . S
N590 H602 0.984 . S
N590 H603 0.985 . S
N591 C593 1.356 . S
N591 H596 0.984 . S
N591 H597 0.985 . S
C592 C586 1.379 . S
C592 C589 1.363 . S
C592 N590 1.356 . S
C593 C587 1.363 . S
C593 C588 1.379 . S
C593 N591 1.356 . S
N594 C586 1.356 . S
N594 H600 0.984 . S
N594 H601 0.984 . S
N595 C588 1.356 . S
N595 H598 0.984 . S
N595 H599 0.985 . S
H596 N591 0.984 . S
H597 N591 0.985 . S
H598 N595 0.984 . S
H599 N595 0.985 . S
H600 N594 0.984 . S
H601 N594 0.984 . S
H602 N590 0.984 . S
H603 N590 0.985 . S
C604 C605 1.363 . S
C604 C610 1.379 . S
C604 N612 1.356 . S
C605 C604 1.363 . S
C605 C611 1.363 . S
C606 C607 1.363 . S
C606 C611 1.379 . S
C606 N613 1.356 . S
C607 C606 1.363 . S
C607 C610 1.363 . S
N608 C610 1.356 . S
N608 H620 0.984 . S
N608 H621 0.985 . S
N609 C611 1.356 . S
N609 H614 0.984 . S
N609 H615 0.985 . S
C610 C604 1.379 . S
C610 C607 1.363 . S
C610 N608 1.356 . S
C611 C605 1.363 . S
C611 C606 1.379 . S
C611 N609 1.356 . S
N612 C604 1.356 . S
N612 H618 0.984 . S
N612 H619 0.984 . S
N613 C606 1.356 . S
N613 H616 0.984 . S
N613 H617 0.985 . S
H614 N609 0.984 . S
H615 N609 0.985 . S
H616 N613 0.984 . S
H617 N613 0.985 . S
H618 N612 0.984 . S
H619 N612 0.984 . S
H620 N608 0.984 . S
H621 N608 0.985 . S
C622 C623 1.363 . S
C622 C628 1.379 . S
C622 N630 1.356 . S
C623 C622 1.363 . S
C623 C629 1.363 . S
C624 C625 1.363 . S
C624 C629 1.379 . S
C624 N631 1.356 . S
C625 C624 1.363 . S
C625 C628 1.363 . S
N626 C628 1.356 . S
N626 H638 0.984 . S
N626 H639 0.985 . S
N627 C629 1.356 . S
N627 H632 0.984 . S
N627 H633 0.985 . S
C628 C622 1.379 . S
C628 C625 1.363 . S
C628 N626 1.356 . S
C629 C623 1.363 . S
C629 C624 1.379 . S
C629 N627 1.356 . S
N630 C622 1.356 . S
N630 H636 0.984 . S
N630 H637 0.984 . S
N631 C624 1.356 . S
N631 H634 0.984 . S
N631 H635 0.985 . S
H632 N627 0.984 . S
H633 N627 0.985 . S
H634 N631 0.984 . S
H635 N631 0.985 . S
H636 N630 0.984 . S
H637 N630 0.984 . S
H638 N626 0.984 . S
H639 N626 0.985 . S
C640 C641 1.363 . S
C640 C646 1.379 . S
C640 N648 1.356 . S
C641 C640 1.363 . S
C641 C647 1.363 . S
C642 C643 1.363 . S
C642 C647 1.379 . S
C642 N649 1.356 . S
C643 C642 1.363 . S
C643 C646 1.363 . S
N644 C646 1.356 . S
N644 H656 0.984 . S
N644 H657 0.985 . S
N645 C647 1.356 . S
N645 H650 0.984 . S
N645 H651 0.977 1_565 S
C646 C640 1.379 . S
C646 C643 1.363 . S
C646 N644 1.356 . S
C647 C641 1.363 . S
C647 C642 1.379 . S
C647 N645 1.356 . S
N648 C640 1.356 . S
N648 H654 0.984 . S
N648 H655 0.984 . S
N649 C642 1.356 . S
N649 H652 0.984 . S
N649 H653 0.985 . S
H650 N645 0.984 . S
H651 N645 0.977 1_545 S
H652 N649 0.984 . S
H653 N649 0.985 . S
H654 N648 0.984 . S
H655 N648 0.984 . S
H656 N644 0.984 . S
H657 N644 0.985 . S
C658 C659 1.363 . S
C658 C664 1.379 . S
C658 N666 1.356 . S
C659 C658 1.363 . S
C659 C665 1.363 . S
C660 C661 1.363 . S
C660 C665 1.379 . S
C660 N667 1.356 . S
C661 C660 1.363 . S
C661 C664 1.363 . S
N662 C664 1.356 . S
N662 H674 0.984 . S
N662 H675 0.985 . S
N663 C665 1.356 . S
N663 H668 0.984 . S
N663 H669 0.985 . S
C664 C658 1.379 . S
C664 C661 1.363 . S
C664 N662 1.356 . S
C665 C659 1.363 . S
C665 C660 1.379 . S
C665 N663 1.356 . S
N666 C658 1.356 . S
N666 H672 0.984 . S
N666 H673 0.984 . S
N667 C660 1.356 . S
N667 H670 0.984 . S
N667 H671 0.985 . S
H668 N663 0.984 . S
H669 N663 0.985 . S
H670 N667 0.984 . S
H671 N667 0.985 . S
H672 N666 0.984 . S
H673 N666 0.984 . S
H674 N662 0.984 . S
H675 N662 0.985 . S
C676 C677 1.363 . S
C676 C682 1.379 . S
C676 N684 1.356 . S
C677 C676 1.363 . S
C677 C683 1.363 . S
C678 C679 1.363 . S
C678 C683 1.379 . S
C678 N685 1.356 . S
C679 C678 1.363 . S
C679 C682 1.363 . S
N680 C682 1.356 . S
N680 H692 0.984 . S
N680 H693 0.985 . S
N681 C683 1.356 . S
N681 H686 0.984 . S
N681 H687 0.985 . S
C682 C676 1.379 . S
C682 C679 1.363 . S
C682 N680 1.356 . S
C683 C677 1.363 . S
C683 C678 1.379 . S
C683 N681 1.356 . S
N684 C676 1.356 . S
N684 H690 0.984 . S
N684 H691 0.984 . S
N685 C678 1.356 . S
N685 H688 0.984 . S
N685 H689 0.985 . S
H686 N681 0.984 . S
H687 N681 0.985 . S
H688 N685 0.984 . S
H689 N685 0.985 . S
H690 N684 0.984 . S
H691 N684 0.984 . S
H692 N680 0.984 . S
H693 N680 0.985 . S
C694 C695 1.363 . S
C694 C700 1.379 . S
C694 N702 1.356 . S
C695 C694 1.363 . S
C695 C701 1.363 . S
C696 C697 1.363 . S
C696 C701 1.379 . S
C696 N703 1.356 . S
C697 C696 1.363 . S
C697 C700 1.363 . S
N698 C700 1.356 . S
N698 H710 0.984 . S
N698 H711 0.985 . S
N699 C701 1.356 . S
N699 H704 0.984 . S
N699 H705 0.985 . S
C700 C694 1.379 . S
C700 C697 1.363 . S
C700 N698 1.356 . S
C701 C695 1.363 . S
C701 C696 1.379 . S
C701 N699 1.356 . S
N702 C694 1.356 . S
N702 H708 0.984 . S
N702 H709 0.984 . S
N703 C696 1.356 . S
N703 H706 0.984 . S
N703 H707 0.985 . S
H704 N699 0.984 . S
H705 N699 0.985 . S
H706 N703 0.984 . S
H707 N703 0.985 . S
H708 N702 0.984 . S
H709 N702 0.984 . S
H710 N698 0.984 . S
H711 N698 0.985 . S
C712 C713 1.363 . S
C712 C718 1.379 . S
C712 N720 1.356 . S
C713 C712 1.363 . S
C713 C719 1.363 . S
C714 C715 1.363 . S
C714 C719 1.379 . S
C714 N721 1.356 . S
C715 C714 1.363 . S
C715 C718 1.363 . S
N716 C718 1.356 . S
N716 H728 0.984 . S
N716 H729 0.985 . S
N717 C719 1.356 . S
N717 H722 0.984 . S
N717 H723 0.985 . S
C718 C712 1.379 . S
C718 C715 1.363 . S
C718 N716 1.356 . S
C719 C713 1.363 . S
C719 C714 1.379 . S
C719 N717 1.356 . S
N720 C712 1.356 . S
N720 H726 0.984 . S
N720 H727 0.984 . S
N721 C714 1.356 . S
N721 H724 0.984 . S
N721 H725 0.985 . S
H722 N717 0.984 . S
H723 N717 0.985 . S
H724 N721 0.984 . S
H725 N721 0.985 . S
H726 N720 0.984 . S
H727 N720 0.984 . S
H728 N716 0.984 . S
H729 N716 0.985 . S
C730 C731 1.363 . S
C730 C736 1.379 . S
C730 N738 1.356 . S
C731 C730 1.363 . S
C731 C737 1.363 . S
C732 C733 1.363 . S
C732 C737 1.379 . S
C732 N739 1.356 . S
C733 C732 1.363 . S
C733 C736 1.363 . S
N734 C736 1.356 . S
N734 H746 0.984 . S
N734 H747 0.985 . S
N735 C737 1.356 . S
N735 H740 0.984 . S
N735 H741 0.985 . S
C736 C730 1.379 . S
C736 C733 1.363 . S
C736 N734 1.356 . S
C737 C731 1.363 . S
C737 C732 1.379 . S
C737 N735 1.356 . S
N738 C730 1.356 . S
N738 H744 0.984 . S
N738 H745 0.984 . S
N739 C732 1.356 . S
N739 H742 0.984 . S
N739 H743 0.985 . S
H740 N735 0.984 . S
H741 N735 0.985 . S
H742 N739 0.984 . S
H743 N739 0.985 . S
H744 N738 0.984 . S
H745 N738 0.984 . S
H746 N734 0.984 . S
H747 N734 0.985 . S
C748 C749 1.363 . S
C748 C754 1.379 . S
C748 N756 1.356 . S
C749 C748 1.363 . S
C749 C755 1.363 . S
C750 C751 1.363 . S
C750 C755 1.379 . S
C750 N757 1.356 . S
C751 C750 1.363 . S
C751 C754 1.363 . S
N752 C754 1.356 . S
N752 H764 0.984 . S
N752 H765 0.985 . S
N753 C755 1.356 . S
N753 H758 0.984 . S
N753 H759 0.985 . S
C754 C748 1.379 . S
C754 C751 1.363 . S
C754 N752 1.356 . S
C755 C749 1.363 . S
C755 C750 1.379 . S
C755 N753 1.356 . S
N756 C748 1.356 . S
N756 H762 0.984 . S
N756 H763 0.984 . S
N757 C750 1.356 . S
N757 H760 0.984 . S
N757 H761 0.985 . S
H758 N753 0.984 . S
H759 N753 0.985 . S
H760 N757 0.984 . S
H761 N757 0.985 . S
H762 N756 0.984 . S
H763 N756 0.984 . S
H764 N752 0.984 . S
H765 N752 0.985 . S
C766 C767 1.363 . S
C766 C772 1.379 . S
C766 N774 1.356 . S
C767 C766 1.363 . S
C767 C773 1.363 . S
C768 C769 1.363 . S
C768 C773 1.379 . S
C768 N775 1.356 . S
C769 C768 1.363 . S
C769 C772 1.363 . S
N770 C772 1.356 . S
N770 H782 0.984 . S
N770 H783 0.985 . S
N771 C773 1.356 . S
N771 H776 0.984 . S
N771 H777 0.985 . S
C772 C766 1.379 . S
C772 C769 1.363 . S
C772 N770 1.356 . S
C773 C767 1.363 . S
C773 C768 1.379 . S
C773 N771 1.356 . S
N774 C766 1.356 . S
N774 H780 0.984 . S
N774 H781 0.984 . S
N775 C768 1.356 . S
N775 H778 0.984 . S
N775 H779 0.985 . S
H776 N771 0.984 . S
H777 N771 0.985 . S
H778 N775 0.984 . S
H779 N775 0.985 . S
H780 N774 0.984 . S
H781 N774 0.984 . S
H782 N770 0.984 . S
H783 N770 0.985 . S
C784 C785 1.363 . S
C784 C790 1.379 . S
C784 N792 1.356 . S
C785 C784 1.363 . S
C785 C791 1.363 . S
C786 C787 1.363 . S
C786 C791 1.379 . S
C786 N793 1.356 . S
C787 C786 1.363 . S
C787 C790 1.363 . S
N788 C790 1.356 . S
N788 H800 0.984 . S
N788 H801 0.985 . S
N789 C791 1.356 . S
N789 H794 0.984 . S
N789 H795 0.985 . S
C790 C784 1.379 . S
C790 C787 1.363 . S
C790 N788 1.356 . S
C791 C785 1.363 . S
C791 C786 1.379 . S
C791 N789 1.356 . S
N792 C784 1.356 . S
N792 H798 0.984 . S
N792 H799 0.984 . S
N793 C786 1.356 . S
N793 H796 0.984 . S
N793 H797 0.985 . S
H794 N789 0.984 . S
H795 N789 0.985 . S
H796 N793 0.984 . S
H797 N793 0.985 . S
H798 N792 0.984 . S
H799 N792 0.984 . S
H800 N788 0.984 . S
H801 N788 0.985 . S
C802 C803 1.363 . S
C802 C808 1.379 . S
C802 N810 1.356 . S
C803 C802 1.363 . S
C803 C809 1.363 . S
C804 C805 1.363 . S
C804 C809 1.379 . S
C804 N811 1.356 . S
C805 C804 1.363 . S
C805 C808 1.363 . S
N806 C808 1.356 . S
N806 H818 0.984 . S
N806 H819 0.985 . S
N807 C809 1.356 . S
N807 H812 0.984 . S
N807 H813 0.985 . S
C808 C802 1.379 . S
C808 C805 1.363 . S
C808 N806 1.356 . S
C809 C803 1.363 . S
C809 C804 1.379 . S
C809 N807 1.356 . S
N810 C802 1.356 . S
N810 H816 0.984 . S
N810 H817 0.984 . S
N811 C804 1.356 . S
N811 H814 0.984 . S
N811 H815 0.985 . S
H812 N807 0.984 . S
H813 N807 0.985 . S
H814 N811 0.984 . S
H815 N811 0.985 . S
H816 N810 0.984 . S
H817 N810 0.984 . S
H818 N806 0.984 . S
H819 N806 0.985 . S
C820 C821 1.363 . S
C820 C826 1.379 . S
C820 N828 1.356 . S
C821 C820 1.363 . S
C821 C827 1.363 . S
C822 C823 1.363 . S
C822 C827 1.379 . S
C822 N829 1.356 . S
C823 C822 1.363 . S
C823 C826 1.363 . S
N824 C826 1.356 . S
N824 H836 0.984 . S
N824 H837 0.985 . S
N825 C827 1.356 . S
N825 H830 0.984 . S
N825 H831 0.985 . S
C826 C820 1.379 . S
C826 C823 1.363 . S
C826 N824 1.356 . S
C827 C821 1.363 . S
C827 C822 1.379 . S
C827 N825 1.356 . S
N828 C820 1.356 . S
N828 H834 0.984 . S
N828 H835 0.984 . S
N829 C822 1.356 . S
N829 H832 0.984 . S
N829 H833 0.985 . S
H830 N825 0.984 . S
H831 N825 0.985 . S
H832 N829 0.984 . S
H833 N829 0.985 . S
H834 N828 0.984 . S
H835 N828 0.984 . S
H836 N824 0.984 . S
H837 N824 0.985 . S
C838 C839 1.363 . S
C838 C844 1.379 . S
C838 N846 1.356 . S
C839 C838 1.363 . S
C839 C845 1.363 . S
C840 C841 1.363 . S
C840 C845 1.379 . S
C840 N847 1.356 . S
C841 C840 1.363 . S
C841 C844 1.363 . S
N842 C844 1.356 . S
N842 H854 0.984 . S
N842 H855 0.985 . S
N843 C845 1.356 . S
N843 H848 0.984 . S
N843 H849 0.985 . S
C844 C838 1.379 . S
C844 C841 1.363 . S
C844 N842 1.356 . S
C845 C839 1.363 . S
C845 C840 1.379 . S
C845 N843 1.356 . S
N846 C838 1.356 . S
N846 H852 0.984 . S
N846 H853 0.984 . S
N847 C840 1.356 . S
N847 H850 0.984 . S
N847 H851 0.985 . S
H848 N843 0.984 . S
H849 N843 0.985 . S
H850 N847 0.984 . S
H851 N847 0.985 . S
H852 N846 0.984 . S
H853 N846 0.984 . S
H854 N842 0.984 . S
H855 N842 0.985 . S
C856 C857 1.363 . S
C856 C862 1.379 . S
C856 N864 1.356 . S
C857 C856 1.363 . S
C857 C863 1.363 . S
C858 C859 1.363 . S
C858 C863 1.379 . S
C858 N865 1.356 . S
C859 C858 1.363 . S
C859 C862 1.363 . S
N860 C862 1.356 . S
N860 H872 0.984 . S
N860 H873 0.985 . S
N861 C863 1.356 . S
N861 H866 0.984 . S
N861 H867 0.985 . S
C862 C856 1.379 . S
C862 C859 1.363 . S
C862 N860 1.356 . S
C863 C857 1.363 . S
C863 C858 1.379 . S
C863 N861 1.356 . S
N864 C856 1.356 . S
N864 H870 0.984 . S
N864 H871 0.984 . S
N865 C858 1.356 . S
N865 H868 0.984 . S
N865 H869 0.985 . S
H866 N861 0.984 . S
H867 N861 0.985 . S
H868 N865 0.984 . S
H869 N865 0.985 . S
H870 N864 0.984 . S
H871 N864 0.984 . S
H872 N860 0.984 . S
H873 N860 0.985 . S
C874 C875 1.363 . S
C874 C880 1.379 . S
C874 N882 1.356 . S
C875 C874 1.363 . S
C875 C881 1.363 . S
C876 C877 1.363 . S
C876 C881 1.379 . S
C876 N883 1.356 . S
C877 C876 1.363 . S
C877 C880 1.363 . S
N878 C880 1.356 . S
N878 H890 0.984 . S
N878 H891 0.985 . S
N879 C881 1.356 . S
N879 H884 0.984 . S
N879 H885 0.985 . S
C880 C874 1.379 . S
C880 C877 1.363 . S
C880 N878 1.356 . S
C881 C875 1.363 . S
C881 C876 1.379 . S
C881 N879 1.356 . S
N882 C874 1.356 . S
N882 H888 0.984 . S
N882 H889 0.984 . S
N883 C876 1.356 . S
N883 H886 0.984 . S
N883 H887 0.985 . S
H884 N879 0.984 . S
H885 N879 0.985 . S
H886 N883 0.984 . S
H887 N883 0.985 . S
H888 N882 0.984 . S
H889 N882 0.984 . S
H890 N878 0.984 . S
H891 N878 0.985 . S
C892 C893 1.363 . S
C892 C898 1.379 . S
C892 N900 1.356 . S
C893 C892 1.363 . S
C893 C899 1.363 . S
C894 C895 1.363 . S
C894 C899 1.379 . S
C894 N901 1.356 . S
C895 C894 1.363 . S
C895 C898 1.363 . S
N896 C898 1.356 . S
N896 H908 0.984 . S
N896 H909 0.985 . S
N897 C899 1.356 . S
N897 H902 0.984 . S
N897 H903 0.985 . S
C898 C892 1.379 . S
C898 C895 1.363 . S
C898 N896 1.356 . S
C899 C893 1.363 . S
C899 C894 1.379 . S
C899 N897 1.356 . S
N900 C892 1.356 . S
N900 H906 0.984 . S
N900 H907 0.984 . S
N901 C894 1.356 . S
N901 H904 0.984 . S
N901 H905 0.985 . S
H902 N897 0.984 . S
H903 N897 0.985 . S
H904 N901 0.984 . S
H905 N901 0.985 . S
H906 N900 0.984 . S
H907 N900 0.984 . S
H908 N896 0.984 . S
H909 N896 0.985 . S
C910 C911 1.363 . S
C910 C916 1.379 . S
C910 N918 1.356 . S
C911 C910 1.363 . S
C911 C917 1.363 . S
C912 C913 1.363 . S
C912 C917 1.379 . S
C912 N919 1.356 . S
C913 C912 1.363 . S
C913 C916 1.363 . S
N914 C916 1.356 . S
N914 H926 0.984 . S
N914 H927 0.985 . S
N915 C917 1.356 . S
N915 H920 0.984 . S
N915 H921 0.985 . S
C916 C910 1.379 . S
C916 C913 1.363 . S
C916 N914 1.356 . S
C917 C911 1.363 . S
C917 C912 1.379 . S
C917 N915 1.356 . S
N918 C910 1.356 . S
N918 H924 0.984 . S
N918 H925 0.984 . S
N919 C912 1.356 . S
N919 H922 0.984 . S
N919 H923 0.985 . S
H920 N915 0.984 . S
H921 N915 0.985 . S
H922 N919 0.984 . S
H923 N919 0.985 . S
H924 N918 0.984 . S
H925 N918 0.984 . S
H926 N914 0.984 . S
H927 N914 0.985 . S
C928 C929 1.363 . S
C928 C934 1.379 . S
C928 N936 1.356 . S
C929 C928 1.363 . S
C929 C935 1.363 . S
C930 C931 1.363 . S
C930 C935 1.379 . S
C930 N937 1.356 . S
C931 C930 1.363 . S
C931 C934 1.363 . S
N932 C934 1.356 . S
N932 H944 0.984 . S
N932 H945 0.985 . S
N933 C935 1.356 . S
N933 H938 0.984 . S
N933 H939 0.985 . S
C934 C928 1.379 . S
C934 C931 1.363 . S
C934 N932 1.356 . S
C935 C929 1.363 . S
C935 C930 1.379 . S
C935 N933 1.356 . S
N936 C928 1.356 . S
N936 H942 0.984 . S
N936 H943 0.984 . S
N937 C930 1.356 . S
N937 H940 0.984 . S
N937 H941 0.985 . S
H938 N933 0.984 . S
H939 N933 0.985 . S
H940 N937 0.984 . S
H941 N937 0.985 . S
H942 N936 0.984 . S
H943 N936 0.984 . S
H944 N932 0.984 . S
H945 N932 0.985 . S
C946 C947 1.363 . S
C946 C952 1.379 . S
C946 N954 1.356 . S
C947 C946 1.363 . S
C947 C953 1.363 . S
C948 C949 1.363 . S
C948 C953 1.379 . S
C948 N955 1.356 . S
C949 C948 1.363 . S
C949 C952 1.363 . S
N950 C952 1.356 . S
N950 H962 0.984 . S
N950 H963 0.985 . S
N951 C953 1.356 . S
N951 H956 0.984 . S
N951 H957 0.985 . S
C952 C946 1.379 . S
C952 C949 1.363 . S
C952 N950 1.356 . S
C953 C947 1.363 . S
C953 C948 1.379 . S
C953 N951 1.356 . S
N954 C946 1.356 . S
N954 H960 0.984 . S
N954 H961 0.984 . S
N955 C948 1.356 . S
N955 H958 0.984 . S
N955 H959 0.985 . S
H956 N951 0.984 . S
H957 N951 0.985 . S
H958 N955 0.984 . S
H959 N955 0.985 . S
H960 N954 0.984 . S
H961 N954 0.984 . S
H962 N950 0.984 . S
H963 N950 0.985 . S
C964 C965 1.363 . S
C964 C970 1.379 . S
C964 N972 1.356 . S
C965 C964 1.363 . S
C965 C971 1.363 . S
C966 C967 1.363 . S
C966 C971 1.379 . S
C966 N973 1.356 . S
C967 C966 1.363 . S
C967 C970 1.363 . S
N968 C970 1.356 . S
N968 H980 0.984 . S
N968 H981 0.985 . S
N969 C971 1.356 . S
N969 H974 0.984 . S
N969 H975 0.985 . S
C970 C964 1.379 . S
C970 C967 1.363 . S
C970 N968 1.356 . S
C971 C965 1.363 . S
C971 C966 1.379 . S
C971 N969 1.356 . S
N972 C964 1.356 . S
N972 H978 0.984 . S
N972 H979 0.984 . S
N973 C966 1.356 . S
N973 H976 0.984 . S
N973 H977 0.985 . S
H974 N969 0.984 . S
H975 N969 0.985 . S
H976 N973 0.984 . S
H977 N973 0.985 . S
H978 N972 0.984 . S
H979 N972 0.984 . S
H980 N968 0.984 . S
H981 N968 0.985 . S
C982 C983 1.363 . S
C982 C988 1.379 . S
C982 N990 1.356 . S
C983 C982 1.363 . S
C983 C989 1.363 . S
C984 C985 1.363 . S
C984 C989 1.379 . S
C984 N991 1.356 . S
C985 C984 1.363 . S
C985 C988 1.363 . S
N986 C988 1.356 . S
N986 H998 0.984 . S
N986 H999 0.985 . S
N987 C989 1.356 . S
N987 H992 0.984 . S
N987 H993 0.985 . S
C988 C982 1.379 . S
C988 C985 1.363 . S
C988 N986 1.356 . S
C989 C983 1.363 . S
C989 C984 1.379 . S
C989 N987 1.356 . S
N990 C982 1.356 . S
N990 H996 0.984 . S
N990 H997 0.984 . S
N991 C984 1.356 . S
N991 H994 0.984 . S
N991 H995 0.985 . S
H992 N987 0.984 . S
H993 N987 0.985 . S
H994 N991 0.984 . S
H995 N991 0.985 . S
H996 N990 0.984 . S
H997 N990 0.984 . S
H998 N986 0.984 . S
H999 N986 0.985 . S
C1000 C1001 1.363 . S
C1000 C1006 1.379 1_556 S
C1000 N1008 1.356 . S
C1001 C1000 1.363 . S
C1001 C1007 1.363 . S
C1002 C1003 1.363 1_556 S
C1002 C1007 1.379 . S
C1002 N1009 1.356 1_556 S
C1003 C1002 1.363 1_554 S
C1003 C1006 1.363 . S
N1004 C1006 1.356 . S
N1004 H1016 0.984 . S
N1004 H1017 0.985 . S
N1005 C1007 1.356 . S
N1005 H1010 0.984 . S
N1005 H1011 0.985 . S
C1006 C1000 1.379 1_554 S
C1006 C1003 1.363 . S
C1006 N1004 1.356 . S
C1007 C1001 1.363 . S
C1007 C1002 1.379 . S
C1007 N1005 1.356 . S
N1008 C1000 1.356 . S
N1008 H1014 0.984 . S
N1008 H1015 0.984 . S
N1009 C1002 1.356 1_554 S
N1009 H1012 0.984 . S
N1009 H1013 0.985 1_554 S
H1010 N1005 0.984 . S
H1011 N1005 0.985 . S
H1012 N1009 0.984 . S
H1013 N1009 0.985 1_556 S
H1014 N1008 0.984 . S
H1015 N1008 0.984 . S
H1016 N1004 0.984 . S
H1017 N1004 0.985 . S
C1018 C1019 1.363 . S
C1018 C1024 1.379 1_554 S
C1018 N1026 1.356 . S
C1019 C1018 1.363 . S
C1019 C1025 1.363 1_554 S
C1020 C1021 1.363 . S
C1020 C1025 1.379 . S
C1020 N1027 1.356 . S
C1021 C1020 1.363 . S
C1021 C1024 1.363 . S
N1022 C1024 1.356 . S
N1022 H1034 0.985 . S
N1022 H1035 0.985 . S
N1023 C1025 1.356 1_554 S
N1023 H1028 0.984 . S
N1023 H1029 0.985 1_554 S
C1024 C1018 1.379 1_556 S
C1024 C1021 1.363 . S
C1024 N1022 1.356 . S
C1025 C1019 1.363 1_556 S
C1025 C1020 1.379 . S
C1025 N1023 1.356 1_556 S
N1026 C1018 1.356 . S
N1026 H1032 0.984 . S
N1026 H1033 0.984 . S
N1027 C1020 1.356 . S
N1027 H1030 0.984 . S
N1027 H1031 0.985 . S
H1028 N1023 0.984 . S
H1029 N1023 0.985 1_556 S
H1030 N1027 0.984 . S
H1031 N1027 0.985 . S
H1032 N1026 0.984 . S
H1033 N1026 0.984 . S
H1034 N1022 0.985 . S
H1035 N1022 0.985 . S
C1036 C1037 1.363 . S
C1036 C1042 1.379 1_556 S
C1036 N1044 1.356 . S
C1037 C1036 1.363 . S
C1037 C1043 1.363 . S
C1038 C1039 1.363 1_556 S
C1038 C1043 1.379 . S
C1038 N1045 1.356 1_556 S
C1039 C1038 1.363 1_554 S
C1039 C1042 1.363 . S
N1040 C1042 1.356 . S
N1040 H1052 0.984 . S
N1040 H1053 0.985 . S
N1041 C1043 1.356 . S
N1041 H1046 0.984 . S
N1041 H1047 0.985 . S
C1042 C1036 1.379 1_554 S
C1042 C1039 1.363 . S
C1042 N1040 1.356 . S
C1043 C1037 1.363 . S
C1043 C1038 1.379 . S
C1043 N1041 1.356 . S
N1044 C1036 1.356 . S
N1044 H1050 0.984 . S
N1044 H1051 0.984 . S
N1045 C1038 1.356 1_554 S
N1045 H1048 0.984 . S
N1045 H1049 0.985 1_554 S
H1046 N1041 0.984 . S
H1047 N1041 0.985 . S
H1048 N1045 0.984 . S
H1049 N1045 0.985 1_556 S
H1050 N1044 0.984 . S
H1051 N1044 0.984 . S
H1052 N1040 0.984 . S
H1053 N1040 0.985 . S
C1054 C1055 1.363 . S
C1054 C1060 1.379 1_554 S
C1054 N1062 1.356 . S
C1055 C1054 1.363 . S
C1055 C1061 1.363 1_554 S
C1056 C1057 1.363 . S
C1056 C1061 1.379 . S
C1056 N1063 1.356 . S
C1057 C1056 1.363 . S
C1057 C1060 1.363 . S
N1058 C1060 1.356 . S
N1058 H1070 0.989 . S
N1058 H1071 0.985 . S
N1059 C1061 1.356 1_554 S
N1059 H1064 0.984 . S
N1059 H1065 0.985 1_554 S
C1060 C1054 1.379 1_556 S
C1060 C1057 1.363 . S
C1060 N1058 1.356 . S
C1061 C1055 1.363 1_556 S
C1061 C1056 1.379 . S
C1061 N1059 1.356 1_556 S
N1062 C1054 1.356 . S
N1062 H1068 0.984 . S
N1062 H1069 0.984 . S
N1063 C1056 1.356 . S
N1063 H1066 0.984 . S
N1063 H1067 0.985 . S
H1064 N1059 0.984 . S
H1065 N1059 0.985 1_556 S
H1066 N1063 0.984 . S
H1067 N1063 0.985 . S
H1068 N1062 0.984 . S
H1069 N1062 0.984 . S
H1070 N1058 0.989 . S
H1071 N1058 0.985 . S
C1072 C1073 1.363 . S
C1072 C1078 1.379 . S
C1072 N1080 1.356 . S
C1073 C1072 1.363 . S
C1073 C1079 1.363 . S
C1074 C1075 1.363 . S
C1074 C1079 1.379 . S
C1074 N1081 1.356 . S
C1075 C1074 1.363 . S
C1075 C1078 1.363 . S
N1076 C1078 1.356 . S
N1076 H1088 0.984 . S
N1076 H1089 0.985 . S
N1077 C1079 1.356 . S
N1077 H1082 0.984 . S
N1077 H1083 0.985 . S
C1078 C1072 1.379 . S
C1078 C1075 1.363 . S
C1078 N1076 1.356 . S
C1079 C1073 1.363 . S
C1079 C1074 1.379 . S
C1079 N1077 1.356 . S
N1080 C1072 1.356 . S
N1080 H1086 0.984 . S
N1080 H1087 0.984 . S
N1081 C1074 1.356 . S
N1081 H1084 0.984 . S
N1081 H1085 0.985 . S
H1082 N1077 0.984 . S
H1083 N1077 0.985 . S
H1084 N1081 0.984 . S
H1085 N1081 0.985 . S
H1086 N1080 0.984 . S
H1087 N1080 0.984 . S
H1088 N1076 0.984 . S
H1089 N1076 0.985 . S
C1090 C1091 1.363 . S
C1090 C1096 1.379 . S
C1090 N1098 1.356 . S
C1091 C1090 1.363 . S
C1091 C1097 1.363 . S
C1092 C1093 1.363 . S
C1092 C1097 1.379 . S
C1092 N1099 1.356 . S
C1093 C1092 1.363 . S
C1093 C1096 1.363 . S
N1094 C1096 1.356 . S
N1094 H1106 0.984 . S
N1094 H1107 0.985 . S
N1095 C1097 1.356 . S
N1095 H1100 0.984 . S
N1095 H1101 0.985 . S
C1096 C1090 1.379 . S
C1096 C1093 1.363 . S
C1096 N1094 1.356 . S
C1097 C1091 1.363 . S
C1097 C1092 1.379 . S
C1097 N1095 1.356 . S
N1098 C1090 1.356 . S
N1098 H1104 0.984 . S
N1098 H1105 0.984 . S
N1099 C1092 1.356 . S
N1099 H1102 0.984 . S
N1099 H1103 0.985 . S
H1100 N1095 0.984 . S
H1101 N1095 0.985 . S
H1102 N1099 0.984 . S
H1103 N1099 0.985 . S
H1104 N1098 0.984 . S
H1105 N1098 0.984 . S
H1106 N1094 0.984 . S
H1107 N1094 0.985 . S
C1108 C1109 1.363 . S
C1108 C1114 1.379 . S
C1108 N1116 1.356 . S
C1109 C1108 1.363 . S
C1109 C1115 1.363 . S
C1110 C1111 1.363 . S
C1110 C1115 1.379 . S
C1110 N1117 1.356 . S
C1111 C1110 1.363 . S
C1111 C1114 1.363 . S
N1112 C1114 1.356 . S
N1112 H1124 0.984 . S
N1112 H1125 0.985 . S
N1113 C1115 1.356 . S
N1113 H1118 0.984 . S
N1113 H1119 0.985 . S
C1114 C1108 1.379 . S
C1114 C1111 1.363 . S
C1114 N1112 1.356 . S
C1115 C1109 1.363 . S
C1115 C1110 1.379 . S
C1115 N1113 1.356 . S
N1116 C1108 1.356 . S
N1116 H1122 0.984 . S
N1116 H1123 0.984 . S
N1117 C1110 1.356 . S
N1117 H1120 0.984 . S
N1117 H1121 0.985 . S
H1118 N1113 0.984 . S
H1119 N1113 0.985 . S
H1120 N1117 0.984 . S
H1121 N1117 0.985 . S
H1122 N1116 0.984 . S
H1123 N1116 0.984 . S
H1124 N1112 0.984 . S
H1125 N1112 0.985 . S
C1126 C1127 1.363 . S
C1126 C1132 1.379 . S
C1126 N1134 1.356 . S
C1127 C1126 1.363 . S
C1127 C1133 1.363 . S
C1128 C1129 1.363 . S
C1128 C1133 1.379 . S
C1128 N1135 1.356 . S
C1129 C1128 1.363 . S
C1129 C1132 1.363 . S
N1130 C1132 1.356 . S
N1130 H1142 0.984 . S
N1130 H1143 0.985 . S
N1131 C1133 1.356 . S
N1131 H1136 0.984 . S
N1131 H1137 0.985 . S
C1132 C1126 1.379 . S
C1132 C1129 1.363 . S
C1132 N1130 1.356 . S
C1133 C1127 1.363 . S
C1133 C1128 1.379 . S
C1133 N1131 1.356 . S
N1134 C1126 1.356 . S
N1134 H1140 0.984 . S
N1134 H1141 0.984 . S
N1135 C1128 1.356 . S
N1135 H1138 0.984 . S
N1135 H1139 0.985 . S
H1136 N1131 0.984 . S
H1137 N1131 0.985 . S
H1138 N1135 0.984 . S
H1139 N1135 0.985 . S
H1140 N1134 0.984 . S
H1141 N1134 0.984 . S
H1142 N1130 0.984 . S
H1143 N1130 0.985 . S
C1144 C1145 1.363 . S
C1144 C1150 1.379 1_556 S
C1144 N1152 1.356 . S
C1145 C1144 1.363 . S
C1145 C1151 1.363 1_556 S
C1146 C1147 1.363 . S
C1146 C1151 1.379 . S
C1146 N1153 1.356 . S
C1147 C1146 1.363 . S
C1147 C1150 1.363 . S
N1148 C1150 1.356 . S
N1148 H1160 0.984 . S
N1148 H1161 0.985 . S
N1149 C1151 1.356 1_556 S
N1149 H1154 0.984 . S
N1149 H1155 0.985 1_556 S
C1150 C1144 1.379 1_554 S
C1150 C1147 1.363 . S
C1150 N1148 1.356 . S
C1151 C1145 1.363 1_554 S
C1151 C1146 1.379 . S
C1151 N1149 1.356 1_554 S
N1152 C1144 1.356 . S
N1152 H1158 0.984 . S
N1152 H1159 0.984 . S
N1153 C1146 1.356 . S
N1153 H1156 0.984 . S
N1153 H1157 0.985 . S
H1154 N1149 0.984 . S
H1155 N1149 0.985 1_554 S
H1156 N1153 0.984 . S
H1157 N1153 0.985 . S
H1158 N1152 0.984 . S
H1159 N1152 0.984 . S
H1160 N1148 0.984 . S
H1161 N1148 0.985 . S
C1162 C1163 1.363 . S
C1162 C1168 1.379 1_556 S
C1162 N1170 1.356 . S
C1163 C1162 1.363 . S
C1163 C1169 1.363 1_556 S
C1164 C1165 1.363 . S
C1164 C1169 1.379 . S
C1164 N1171 1.356 . S
C1165 C1164 1.363 . S
C1165 C1168 1.363 . S
N1166 C1168 1.356 . S
N1166 H1178 0.984 . S
N1166 H1179 0.985 . S
N1167 C1169 1.356 1_556 S
N1167 H1172 0.984 . S
N1167 H1173 0.985 1_556 S
C1168 C1162 1.379 1_554 S
C1168 C1165 1.363 . S
C1168 N1166 1.356 . S
C1169 C1163 1.363 1_554 S
C1169 C1164 1.379 . S
C1169 N1167 1.356 1_554 S
N1170 C1162 1.356 . S
N1170 H1176 0.984 . S
N1170 H1177 0.984 . S
N1171 C1164 1.356 . S
N1171 H1174 0.984 . S
N1171 H1175 0.985 . S
H1172 N1167 0.984 . S
H1173 N1167 0.985 1_554 S
H1174 N1171 0.984 . S
H1175 N1171 0.985 . S
H1176 N1170 0.984 . S
H1177 N1170 0.984 . S
H1178 N1166 0.984 . S
H1179 N1166 0.985 . S
C1180 C1181 1.363 . S
C1180 C1186 1.379 . S
C1180 N1188 1.356 . S
C1181 C1180 1.363 . S
C1181 C1187 1.363 . S
C1182 C1183 1.363 . S
C1182 C1187 1.379 1_556 S
C1182 N1189 1.356 . S
C1183 C1182 1.363 . S
C1183 C1186 1.363 1_556 S
N1184 C1186 1.356 1_556 S
N1184 H1196 0.984 1_556 S
N1184 H1197 0.985 . S
N1185 C1187 1.356 . S
N1185 H1190 0.984 . S
N1185 H1191 0.986 . S
C1186 C1180 1.379 . S
C1186 C1183 1.363 1_554 S
C1186 N1184 1.356 1_554 S
C1187 C1181 1.363 . S
C1187 C1182 1.379 1_554 S
C1187 N1185 1.356 . S
N1188 C1180 1.356 . S
N1188 H1194 0.984 . S
N1188 H1195 0.984 . S
N1189 C1182 1.356 . S
N1189 H1192 0.984 . S
N1189 H1193 0.985 . S
H1190 N1185 0.984 . S
H1191 N1185 0.986 . S
H1192 N1189 0.984 . S
H1193 N1189 0.985 . S
H1194 N1188 0.984 . S
H1195 N1188 0.984 . S
H1196 N1184 0.984 1_554 S
H1197 N1184 0.985 . S
C1198 C1199 1.363 . S
C1198 C1204 1.379 1_554 S
C1198 N1206 1.356 . S
C1199 C1198 1.363 . S
C1199 C1205 1.363 . S
C1200 C1201 1.363 1_554 S
C1200 C1205 1.379 . S
C1200 N1207 1.356 1_554 S
C1201 C1200 1.363 1_556 S
C1201 C1204 1.363 . S
N1202 C1204 1.356 . S
N1202 H1214 0.984 . S
N1202 H1215 0.985 . S
N1203 C1205 1.356 . S
N1203 H1208 0.984 . S
N1203 H1209 0.985 . S
C1204 C1198 1.379 1_556 S
C1204 C1201 1.363 . S
C1204 N1202 1.356 . S
C1205 C1199 1.363 . S
C1205 C1200 1.379 . S
C1205 N1203 1.356 . S
N1206 C1198 1.356 . S
N1206 H1212 0.983 . S
N1206 H1213 0.984 . S
N1207 C1200 1.356 1_556 S
N1207 H1210 0.984 . S
N1207 H1211 0.985 1_556 S
H1208 N1203 0.984 . S
H1209 N1203 0.985 . S
H1210 N1207 0.984 . S
H1211 N1207 0.985 1_554 S
H1212 N1206 0.983 . S
H1213 N1206 0.984 . S
H1214 N1202 0.984 . S
H1215 N1202 0.985 . S
C353 C5 2.235 . S
C355 C119 2.235 . S
C371 C141 2.235 . S
C373 C27 2.235 . S
C389 C49 2.235 . S
C391 C163 2.235 . S
C407 C75 2.235 . S
C409 C93 2.235 . S
C425 C293 2.235 . S
C427 C182 2.235 . S
C443 C315 2.235 . S
C445 C205 2.235 . S
C461 C227 2.235 . S
C463 C336 2.235 . S
C479 C249 2.235 . S
C481 C271 2.235 . S
C497 C4 1.661 . S
C499 C73 1.521 . S
C515 C26 1.661 . S
C517 C6 1.521 . S
C533 C48 1.661 . S
C535 C28 1.521 . S
C551 C74 1.661 . S
C553 C50 1.521 . S
C569 C92 1.661 . S
C571 C117 1.521 . S
C587 C139 1.521 . S
C589 C118 1.661 . S
C605 C140 1.661 . S
C607 C161 1.521 . S
C623 C94 1.521 . S
C625 C162 1.661 . S
C641 C251 1.521 . S
C643 C180 1.661 . S
C659 C206 1.661 . S
C661 C181 1.521 . S
C677 C228 1.661 . S
C679 C207 1.521 . S
C695 C250 1.661 . S
C697 C229 1.521 . S
C713 C272 1.661 . S
C715 C295 1.521 . S
C731 C294 1.661 . S
C733 C317 1.521 . S
C749 C316 1.661 . S
C751 C335 1.521 . S
C767 C334 1.661 . S
C769 C273 1.521 . S
C785 C7 0.635 . S
C787 C51 0.635 . S
C803 C29 0.635 . S
C805 C72 0.635 . S
C821 C138 0.635 . S
C823 C95 0.635 . S
C839 C160 0.635 . S
C841 C116 0.635 . S
C857 C225 0.635 . S
C859 C185 0.635 . S
C875 C247 0.635 . S
C877 C203 0.635 . S
C893 C269 0.635 . S
C895 C313 0.635 . S
C911 C291 0.635 . S
C913 C339 0.635 . S
C929 C8 1.347 . S
C931 C248 1.336 . S
C947 C183 1.336 . S
C949 C30 1.347 . S
C965 C52 1.347 . S
C967 C204 1.336 . S
C983 C226 1.336 . S
C985 C70 1.347 . S
C1001 C292 1.336 . S
C1003 C96 1.347 . S
C1019 C114 1.347 . S
C1021 C314 1.336 . S
C1037 C337 1.336 . S
C1039 C136 1.347 . S
C1055 C158 1.347 . S
C1057 C270 1.336 . S
C1073 C184 1.347 . S
C1075 C71 1.336 . S
C1091 C202 1.347 . S
C1093 C9 1.336 . S
C1109 C31 1.336 . S
C1111 C224 1.347 . S
C1127 C246 1.347 . S
C1129 C53 1.336 . S
C1145 C268 1.347 . S
C1147 C115 1.336 . S
C1163 C290 1.347 . S
C1165 C137 1.336 . S
C1181 C159 1.336 . S
C1183 C312 1.347 . S
C1199 C97 1.336 . S
C1201 C338 1.347 . S
