# Generated by pormake.
# Topology rob, (6)-cn, num edge types: 1
# Building blocks:
#     Node 0, Type 0, BuildingBlock: VOLQOD_clean_sbu_1, # of connection points: 6
#     Node 1, Type 0, BuildingBlock: VOLQOD_clean_sbu_1, # of connection points: 6
#     Node 2, Type 0, BuildingBlock: VOLQOD_clean_sbu_1, # of connection points: 6
#     Node 3, Type 0, BuildingBlock: VOLQOD_clean_sbu_1, # of connection points: 6
#     Edge 4, Type (0, 0), BuildingBlock: XUDNAN_clean_linker_2, # of connection points: 2
#     Edge 5, Type (0, 0), BuildingBlock: XUDNAN_clean_linker_2, # of connection points: 2
#     Edge 6, Type (0, 0), BuildingBlock: XUDNAN_clean_linker_2, # of connection points: 2
#     Edge 7, Type (0, 0), BuildingBlock: XUDNAN_clean_linker_2, # of connection points: 2
#     Edge 8, Type (0, 0), BuildingBlock: XUDNAN_clean_linker_2, # of connection points: 2
#     Edge 9, Type (0, 0), BuildingBlock: XUDNAN_clean_linker_2, # of connection points: 2
#     Edge 10, Type (0, 0), BuildingBlock: XUDNAN_clean_linker_2, # of connection points: 2
#     Edge 11, Type (0, 0), BuildingBlock: XUDNAN_clean_linker_2, # of connection points: 2
#     Edge 12, Type (0, 0), BuildingBlock: XUDNAN_clean_linker_2, # of connection points: 2
#     Edge 13, Type (0, 0), BuildingBlock: XUDNAN_clean_linker_2, # of connection points: 2
#     Edge 14, Type (0, 0), BuildingBlock: XUDNAN_clean_linker_2, # of connection points: 2
#     Edge 15, Type (0, 0), BuildingBlock: XUDNAN_clean_linker_2, # of connection points: 2
# Relax obj value: 0.388
# Max RMSD: 0.278
# Mean RMSD: 0.278
data_MOF--net-rob--node1-VOLQOD_clean_sbu_1--edge1-XUDNAN_clean_linker_2
_symmetry_space_group_name_H-M    P1
_symmetry_Int_Tables_number       1
_symmetry_cell_setting            triclinic
loop_
_symmetry_equiv_pos_as_xyz
'x, y, z'
_cell_length_a     17.66881
_cell_length_b     28.820829
_cell_length_c     25.587931
_cell_angle_alpha  90.715965
_cell_angle_beta   89.74166
_cell_angle_gamma 89.981582
loop_
_atom_site_label
_atom_site_type_symbol
_atom_site_fract_x
_atom_site_fract_y
_atom_site_fract_z
_atom_type_partial_charge
O0 O 0.23016 0.37986 0.01491 0.0
Zn1 Zn 0.16759 0.32576 0.03774 0.0
O2 O 0.21921 0.26745 0.01804 0.0
Zn3 Zn 0.15702 0.23374 0.96834 0.0
Zn4 Zn 0.3196 0.27966 -0.01185 0.0
Zn5 Zn 0.23196 0.22867 0.07853 0.0
O6 O 0.12817 0.17092 -0.00608 0.0
O7 O 0.17789 0.1675 0.07321 0.0
O8 O 0.06678 0.33323 0.00125 0.0
O9 O 0.06221 0.26795 0.95447 0.0
O10 O 0.21028 0.2256 0.89949 0.0
O11 O 0.32614 0.25245 0.91541 0.0
O12 O 0.40505 0.25317 0.03121 0.0
O13 O 0.1552 0.33115 0.11651 0.0
O14 O 0.33971 0.21402 0.08994 0.0
O15 O 0.20111 0.26347 0.14278 0.0
C16 C 0.29595 0.38373 -0.00487 0.0
C17 C 0.13989 0.14936 0.03617 0.0
C18 C 0.27796 0.23346 0.88502 0.0
C19 C 0.03319 0.30634 0.96904 0.0
C20 C 0.40253 0.22641 0.07036 0.0
C21 C 0.17336 0.30335 0.15277 0.0
O22 O 0.33701 0.34861 0.98408 0.0
O23 O 0.80674 0.86206 0.00023 0.0
Zn24 Zn 0.71144 0.82602 -0.00956 0.0
O25 O 0.73481 0.7596 -0.00699 0.0
Zn26 Zn 0.69908 0.72967 0.93004 0.0
Zn27 Zn 0.84366 0.74964 -0.00174 0.0
Zn28 Zn 0.68447 0.73213 0.05239 0.0
O29 O 0.61068 0.68771 0.94313 0.0
O30 O 0.60559 0.68599 0.02988 0.0
O31 O 0.66805 0.84504 0.92139 0.0
O32 O 0.66833 0.77733 0.87905 0.0
O33 O 0.78087 0.69261 0.89506 0.0
O34 O 0.88523 0.71749 0.93428 0.0
O35 O 0.86688 0.70772 0.05766 0.0
O36 O 0.64127 0.84619 0.04877 0.0
O37 O 0.75652 0.69803 0.09786 0.0
O38 O 0.63627 0.78188 0.09593 0.0
C39 C 0.87578 0.85213 0.00853 0.0
C40 C 0.58178 0.67279 0.98527 0.0
C41 C 0.85261 0.69358 0.8988 0.0
C42 C 0.65754 0.82095 0.88011 0.0
C43 C 0.82711 0.69028 0.09399 0.0
C44 C 0.62091 0.82458 0.08951 0.0
O45 O 0.8988 0.81027 0.01014 0.0
O46 O 0.15057 0.8587 0.5074 0.0
Zn47 Zn 0.24826 0.8261 0.49377 0.0
O48 O 0.23328 0.75882 0.48868 0.0
Zn49 Zn 0.28981 0.72799 0.5434 0.0
Zn50 Zn 0.12552 0.74481 0.49407 0.0
Zn51 Zn 0.27125 0.73596 0.42245 0.0
O52 O 0.35531 0.67567 0.51557 0.0
O53 O 0.34663 0.68532 0.4301 0.0
O54 O 0.31968 0.84312 0.55156 0.0
O55 O 0.35701 0.77392 0.57921 0.0
O56 O 0.21863 0.70059 0.59633 0.0
O57 O 0.10672 0.70632 0.55727 0.0
O58 O 0.08815 0.70843 0.43195 0.0
O59 O 0.29433 0.85175 0.42777 0.0
O60 O 0.18971 0.70634 0.38066 0.0
O61 O 0.31815 0.78702 0.38221 0.0
C62 C 0.0817 0.84592 0.50769 0.0
C63 C 0.37289 0.66379 0.46901 0.0
C64 C 0.14782 0.69249 0.59473 0.0
C65 C 0.36133 0.81802 0.58006 0.0
C66 C 0.12103 0.69604 0.38972 0.0
C67 C 0.32133 0.83087 0.38778 0.0
O68 O 0.06293 0.80359 0.50085 0.0
O69 O 0.70584 0.37127 0.50863 0.0
Zn70 Zn 0.78201 0.32359 0.52982 0.0
O71 O 0.74623 0.26134 0.51175 0.0
Zn72 Zn 0.74719 0.223 0.57298 0.0
Zn73 Zn 0.64516 0.26305 0.48142 0.0
Zn74 Zn 0.8132 0.23301 0.46138 0.0
O75 O 0.8008 0.16188 0.56219 0.0
O76 O 0.834 0.16661 0.47858 0.0
O77 O 0.79817 0.33044 0.60758 0.0
O78 O 0.78627 0.25798 0.63507 0.0
O79 O 0.64166 0.20804 0.59188 0.0
O80 O 0.56664 0.23468 0.52983 0.0
O81 O 0.64438 0.23256 0.40992 0.0
O82 O 0.88018 0.33753 0.49191 0.0
O83 O 0.76706 0.23201 0.39019 0.0
O84 O 0.90926 0.26876 0.45655 0.0
C85 C 0.64348 0.36849 0.4841 0.0
C86 C 0.82835 0.14389 0.52066 0.0
C87 C 0.57597 0.21417 0.57319 0.0
C88 C 0.79955 0.30076 0.64405 0.0
C89 C 0.69821 0.22735 0.37699 0.0
C90 C 0.92579 0.31073 0.46739 0.0
O91 O 0.61514 0.32963 0.47028 0.0
H92 H 0.58186 0.59266 0.03894 0.0
H93 H 0.4568 0.66914 0.92292 0.0
H94 H 0.36552 0.60399 0.91486 0.0
H95 H 0.5677 0.48431 0.97273 0.0
H96 H 0.561 0.45071 0.03151 0.0
H97 H 0.61087 0.50517 0.03225 0.0
H98 H 0.52561 0.53495 0.10829 0.0
H99 H 0.47577 0.48044 0.10805 0.0
H100 H 0.42418 0.53394 0.10098 0.0
H101 H 0.28739 0.5305 0.92134 0.0
H102 H 0.23599 0.45133 0.93476 0.0
H103 H 0.42234 0.42057 0.03815 0.0
C104 C 0.53432 0.59592 0.01263 0.0
C105 C 0.5248 0.63592 0.98231 0.0
C106 C 0.46392 0.63871 0.94683 0.0
C107 C 0.41204 0.60203 0.94212 0.0
C108 C 0.42342 0.56267 0.97228 0.0
C109 C 0.4837 0.55919 0.00629 0.0
C110 C 0.48727 0.51185 0.03091 0.0
C111 C 0.56108 0.48653 0.01593 0.0
C112 C 0.4776 0.51554 0.09059 0.0
C113 C 0.41944 0.48915 0.0056 0.0
C114 C 0.38241 0.51925 0.97266 0.0
C115 C 0.31635 0.50649 0.94657 0.0
C116 C 0.28765 0.4617 0.95433 0.0
C117 C 0.32629 0.43026 -0.0133 0.0
C118 C 0.3929 0.44404 0.01246 0.0
H119 H 0.46928 0.61975 0.53649 0.0
H120 H 0.37689 0.61163 0.37963 0.0
H121 H 0.44042 0.5365 0.36535 0.0
H122 H 0.6537 0.56658 0.50183 0.0
H123 H 0.66011 0.5365 0.56299 0.0
H124 H 0.6108 0.59114 0.55994 0.0
H125 H 0.49108 0.55266 0.59905 0.0
H126 H 0.5397 0.49787 0.60179 0.0
H127 H 0.45142 0.50217 0.56716 0.0
H128 H 0.50004 0.45849 0.37169 0.0
H129 H 0.56676 0.3861 0.39461 0.0
H130 H 0.62949 0.44697 0.54412 0.0
C131 C 0.46339 0.60243 0.49892 0.0
C132 C 0.41807 0.62147 0.45924 0.0
C133 C 0.41173 0.59786 0.41052 0.0
C134 C 0.44735 0.55506 0.40204 0.0
C135 C 0.4903 0.53678 0.44227 0.0
C136 C 0.49986 0.56003 0.48936 0.0
C137 C 0.54865 0.53235 0.52618 0.0
C138 C 0.62272 0.55819 0.53844 0.0
C139 C 0.50508 0.52057 0.57651 0.0
C140 C 0.56306 0.4894 0.49291 0.0
C141 C 0.5284 0.49257 0.44479 0.0
C142 C 0.52877 0.45588 0.4088 0.0
C143 C 0.56623 0.41491 0.42222 0.0
C144 C 0.60364 0.41145 0.47075 0.0
C145 C 0.60238 0.44923 0.50635 0.0
H146 H 0.0171 0.11234 -0.01251 0.0
H147 H 0.19699 0.07923 0.09569 0.0
H148 H 0.15187 0.9979 0.09865 0.0
H149 H 0.87492 0.04175 0.04905 0.0
H150 H 0.8313 0.02556 -0.01205 0.0
H151 H 0.87909 0.08048 -0.00568 0.0
H152 H 0.96365 0.05922 0.91445 0.0
H153 H 0.91661 1.00404 0.90811 0.0
H154 H 0.01805 1.00629 0.9149 0.0
H155 H 0.08957 0.91901 0.08571 0.0
H156 H 0.00645 0.85171 0.06622 0.0
H157 H 0.86494 0.93939 0.97065 0.0
C158 C 0.04696 0.08799 0.01187 0.0
C159 C 0.11066 0.10178 0.04112 0.0
C160 C 0.14778 0.06921 0.07312 0.0
C161 C 0.12289 0.02299 0.07479 0.0
C162 C 0.06032 0.01036 0.04482 0.0
C163 C 0.02221 0.04218 0.01466 0.0
C164 C 0.95506 0.02054 -0.01254 0.0
C165 C 0.88071 0.04344 0.00582 0.0
C166 C 0.96393 0.02265 0.92769 0.0
C167 C 0.96149 0.97139 0.00666 0.0
C168 C 0.02298 0.96589 0.0392 0.0
C169 C 0.04093 0.92301 0.06061 0.0
C170 C -0.00619 0.88501 0.04914 0.0
C171 C 0.92922 0.89059 0.01728 0.0
C172 C 0.91356 0.93426 -0.00443 0.0
H173 H 0.93974 0.10063 0.57509 0.0
H174 H 0.76165 0.07714 0.4621 0.0
H175 H 0.79629 0.99397 0.45624 0.0
H176 H 0.07359 0.03249 0.50967 0.0
H177 H 0.11821 0.01061 0.56759 0.0
H178 H 0.07118 0.06592 0.56969 0.0
H179 H -0.01257 0.03797 0.64659 0.0
H180 H 0.03416 0.98236 0.64452 0.0
H181 H 0.93262 0.98558 0.63915 0.0
H182 H 0.85486 0.91484 0.45884 0.0
H183 H 0.94336 0.84825 0.46053 0.0
H184 H 0.08969 0.9253 0.56592 0.0
C185 C 0.90729 0.07753 0.55011 0.0
C186 C 0.84757 0.09449 0.51959 0.0
C187 C 0.8073 0.06415 0.48599 0.0
C188 C 0.8262 0.01699 0.48273 0.0
C189 C 0.88607 1.00111 0.51291 0.0
C190 C 0.92667 0.03057 0.54548 0.0
C191 C -0.00569 1.00615 0.56854 0.0
C192 C 0.06869 0.03022 0.5529 0.0
C193 C 0.98664 1.00282 0.62825 0.0
C194 C 0.98674 0.95892 0.54258 0.0
C195 C 0.92267 0.95622 0.51194 0.0
C196 C 0.90496 0.91639 0.48297 0.0
C197 C 0.95526 0.87875 0.48426 0.0
C198 C 0.02308 0.88192 0.51322 0.0
C199 C 0.03807 0.92213 0.54347 0.0
H200 H 0.58066 0.17685 0.33893 0.0
H201 H 0.77367 0.25903 0.29125 0.0
H202 H 0.73158 0.25374 0.19929 0.0
H203 H 0.57371 0.10181 0.21485 0.0
H204 H 0.47178 0.10064 0.21755 0.0
H205 H 0.52575 0.10296 0.27718 0.0
H206 H 0.45226 0.17686 0.30656 0.0
H207 H 0.39826 0.1746 0.24747 0.0
H208 H 0.45051 0.22637 0.26416 0.0
H209 H 0.65295 0.2545 0.11771 0.0
H210 H 0.54773 0.25889 0.0546 0.0
H211 H 0.41288 0.1699 0.15394 0.0
C212 C 0.61511 0.19251 0.3088 0.0
C213 C 0.67999 0.21837 0.32179 0.0
C214 C 0.72391 0.23871 0.28174 0.0
C215 C 0.7006 0.23575 0.22947 0.0
C216 C 0.63473 0.21109 0.21797 0.0
C217 C 0.5936 0.18892 0.2565 0.0
C218 C 0.5211 0.16864 0.23525 0.0
C219 C 0.52325 0.11534 0.23626 0.0
C220 C 0.45152 0.18781 0.2651 0.0
C221 C 0.52468 0.18612 0.17988 0.0
C222 C 0.59119 0.20977 0.17009 0.0
C223 C 0.60172 0.23478 0.12422 0.0
C224 C 0.54163 0.23712 0.08854 0.0
C225 C 0.47206 0.21475 0.09932 0.0
C226 C 0.46553 0.18705 0.14422 0.0
H227 H 0.64756 0.81661 0.19199 0.0
H228 H 0.50268 0.88579 0.08154 0.0
H229 H 0.42077 0.91338 0.15457 0.0
H230 H 0.51597 0.76999 0.26344 0.0
H231 H 0.56023 0.77674 0.32644 0.0
H232 H 0.61748 0.7747 0.26862 0.0
H233 H 0.67699 0.8541 0.29342 0.0
H234 H 0.61965 0.85638 0.35189 0.0
H235 H 0.61671 0.90346 0.30623 0.0
H236 H 0.33952 0.91513 0.23532 0.0
H237 H 0.26914 0.89141 0.31476 0.0
H238 H 0.46964 0.82322 0.37202 0.0
C239 C 0.60007 0.83906 0.18359 0.0
C240 C 0.58073 0.84915 0.13175 0.0
C241 C 0.51831 0.8782 0.12142 0.0
C242 C 0.47187 0.89409 0.16263 0.0
C243 C 0.4904 0.8816 0.2136 0.0
C244 C 0.55424 0.8555 0.22414 0.0
C245 C 0.55658 0.84066 0.28045 0.0
C246 C 0.56281 0.78742 0.28492 0.0
C247 C 0.62132 0.86514 0.30972 0.0
C248 C 0.48061 0.85847 0.29885 0.0
C249 C 0.44404 0.88342 0.26052 0.0
C250 C 0.36858 0.89724 0.26628 0.0
C251 C 0.32899 0.88374 0.31136 0.0
C252 C 0.36519 0.85644 0.34922 0.0
C253 C 0.44217 0.8453 0.34386 0.0
H254 H 0.67933 0.78996 0.78155 0.0
H255 H 0.57076 0.89967 0.8716 0.0
H256 H 0.50214 0.92432 0.79253 0.0
H257 H 0.67919 0.85195 0.64853 0.0
H258 H 0.65955 0.79743 0.6161 0.0
H259 H 0.71775 0.79889 0.67383 0.0
H260 H 0.62876 0.73907 0.71732 0.0
H261 H 0.57019 0.73777 0.66048 0.0
H262 H 0.52917 0.75199 0.72331 0.0
H263 H 0.42347 0.92385 0.71151 0.0
H264 H 0.34216 0.89748 0.63834 0.0
H265 H 0.50012 0.78637 0.60348 0.0
C266 C 0.64322 0.82029 0.78408 0.0
C267 C 0.62971 0.84282 0.83232 0.0
C268 C 0.58207 0.88221 0.83465 0.0
C269 C 0.54319 0.89651 0.7899 0.0
C270 C 0.55412 0.87154 0.74333 0.0
C271 C 0.60423 0.83466 0.74007 0.0
C272 C 0.59669 0.80815 0.68912 0.0
C273 C 0.6675 0.81451 0.65487 0.0
C274 C 0.58013 0.75625 0.69817 0.0
C275 C 0.52956 0.83291 0.66637 0.0
C276 C 0.50759 0.87062 0.69687 0.0
C277 C 0.44139 0.89527 0.68656 0.0
C278 C 0.39547 0.88004 0.64515 0.0
C279 C 0.41539 0.83991 0.61591 0.0
C280 C 0.48431 0.81729 0.62543 0.0
H281 H 0.58134 0.17655 0.66966 0.0
H282 H 0.42383 0.22982 0.55536 0.0
H283 H 0.32156 0.22751 0.62173 0.0
H284 H 0.44418 0.10607 0.74899 0.0
H285 H 0.49099 0.1235 0.80852 0.0
H286 H 0.54468 0.11681 0.74881 0.0
H287 H 0.59447 0.20094 0.75995 0.0
H288 H 0.5402 0.2083 0.81887 0.0
H289 H 0.52768 0.24806 0.76578 0.0
H290 H 0.24234 0.23098 0.7046 0.0
H291 H 0.19648 0.24364 0.79541 0.0
H292 H 0.41197 0.19615 0.85461 0.0
C293 C 0.52483 0.18618 0.65769 0.0
C294 C 0.51058 0.20321 0.60717 0.0
C295 C 0.43595 0.21621 0.59368 0.0
C296 C 0.37754 0.21497 0.63116 0.0
C297 C 0.39493 0.2006 0.68164 0.0
C298 C 0.46698 0.18622 0.69469 0.0
C299 C 0.47535 0.17973 0.75289 0.0
C300 C 0.48961 0.12847 0.76553 0.0
C301 C 0.53807 0.21114 0.77565 0.0
C302 C 0.39791 0.19499 0.7711 0.0
C303 C 0.35126 0.20536 0.72953 0.0
C304 C 0.27808 0.22234 0.73731 0.0
C305 C 0.25258 0.22949 0.78885 0.0
C306 C 0.30116 0.221 0.8315 0.0
C307 C 0.37404 0.20293 0.82244 0.0
H308 H 0.78892 0.68857 0.19652 0.0
H309 H 0.95422 0.6375 0.08437 0.0
H310 H 0.03487 0.61102 0.15627 0.0
H311 H 0.90544 0.74273 0.26992 0.0
H312 H 0.86483 0.73173 0.33334 0.0
H313 H 0.80625 0.72903 0.27655 0.0
H314 H 0.76658 0.64506 0.29854 0.0
H315 H 0.82461 0.64762 0.35634 0.0
H316 H 0.83803 0.60152 0.30895 0.0
H317 H 0.11165 0.61246 0.23405 0.0
H318 H 0.17917 0.64214 0.31122 0.0
H319 H 0.96809 0.69462 0.3757 0.0
C320 C 0.84019 0.66948 0.18739 0.0
C321 C 0.86551 0.66465 0.13533 0.0
C322 C 0.93404 0.64124 0.12424 0.0
C323 C 0.97978 0.62572 0.16486 0.0
C324 C 0.95607 0.63396 0.21619 0.0
C325 C 0.88722 0.65482 0.22771 0.0
C326 C 0.88233 0.66912 0.28481 0.0
C327 C 0.86374 0.72121 0.29145 0.0
C328 C 0.82447 0.63902 0.31387 0.0
C329 C 0.96211 0.65808 0.30191 0.0
C330 C 0.00246 0.63579 0.26245 0.0
C331 C 0.0802 0.62852 0.26583 0.0
C332 C 0.11824 0.64598 0.30956 0.0
C333 C 0.07857 0.67076 0.34912 0.0
C334 C -0.00076 0.67502 0.34633 0.0
H335 H 0.92448 0.37367 0.39137 0.0
H336 H 0.0718 0.28456 0.47961 0.0
H337 H 0.17107 0.29248 0.41241 0.0
H338 H 0.94717 0.3213 0.28289 0.0
H339 H 0.94649 0.36903 0.23801 0.0
H340 H 0.90117 0.37522 0.30041 0.0
H341 H 0.98276 0.44722 0.32268 0.0
H342 H 0.02737 0.44231 0.2593 0.0
H343 H 0.08439 0.44377 0.31753 0.0
H344 H 0.23303 0.28766 0.32802 0.0
H345 H 0.25692 0.27361 0.2345 0.0
H346 H 0.06863 0.3631 0.19564 0.0
C347 C 0.97993 0.35888 0.398 0.0
C348 C -0.00785 0.32983 0.441 0.0
C349 C 0.06293 0.30812 0.44753 0.0
C350 C 0.11941 0.31242 0.40942 0.0
C351 C 0.10359 0.33813 0.3649 0.0
C352 C 0.03589 0.36181 0.35929 0.0
C353 C 0.02551 0.3778 0.30347 0.0
C354 C 0.95074 0.3597 0.27987 0.0
C355 C 0.03033 0.43093 0.30058 0.0
C356 C 0.09367 0.35528 0.27759 0.0
C357 C 0.13938 0.33413 0.31411 0.0
C358 C 0.19923 0.30534 0.29927 0.0
C359 C 0.21176 0.2971 0.24601 0.0
C360 C 0.16447 0.31736 0.20805 0.0
C361 C 0.1064 0.34803 0.224 0.0
H362 H 0.79273 0.24807 0.73156 0.0
H363 H 0.84128 0.38766 0.67941 0.0
H364 H 0.87478 0.41042 0.76978 0.0
H365 H 0.72401 0.28136 0.86801 0.0
H366 H 0.76852 0.23067 0.89473 0.0
H367 H 0.73055 0.22875 0.82942 0.0
H368 H 0.86108 0.20197 0.79306 0.0
H369 H 0.89842 0.20314 0.85798 0.0
H370 H 0.94391 0.2363 0.80746 0.0
H371 H 0.926 0.41368 0.86036 0.0
H372 H 0.00323 0.39451 0.93724 0.0
H373 H 0.9199 0.25336 0.9308 0.0
C374 C 0.8087 0.28377 0.73924 0.0
C375 C 0.81467 0.31602 0.6984 0.0
C376 C 0.83627 0.3623 0.71011 0.0
C377 C 0.85458 0.37568 0.76145 0.0
C378 C 0.84975 0.34261 0.80071 0.0
C379 C 0.82702 0.29757 0.79005 0.0
C380 C 0.83746 0.26665 0.8367 0.0
C381 C 0.76055 0.25095 0.8585 0.0
C382 C 0.88828 0.22462 0.82296 0.0
C383 C 0.87586 0.30026 0.87386 0.0
C384 C 0.87961 0.34445 0.85338 0.0
C385 C 0.92168 0.37963 0.87747 0.0
C386 C 0.96506 0.36856 0.92141 0.0
C387 C 0.96699 0.3225 0.93973 0.0
C388 C 0.91812 0.28897 0.91781 0.0
H389 H 0.18226 0.70175 0.69768 0.0
H390 H 0.02674 0.63451 0.59057 0.0
H391 H 0.94866 0.60897 0.66486 0.0
H392 H 0.1492 0.61988 0.81522 0.0
H393 H 0.15395 0.66872 0.85976 0.0
H394 H 0.21106 0.66789 0.80114 0.0
H395 H 0.15394 0.74697 0.77474 0.0
H396 H 0.09665 0.7479 0.83268 0.0
H397 H 0.0526 0.75272 0.76955 0.0
H398 H 0.87324 0.60746 0.74483 0.0
H399 H 0.80342 0.63281 0.82343 0.0
H400 H 0.00424 0.70351 0.88027 0.0
C401 C 0.1338 0.67966 0.69033 0.0
C402 C 0.11066 0.66951 0.63883 0.0
C403 C 0.04538 0.64226 0.63 0.0
C404 C 0.00114 0.62728 0.67197 0.0
C405 C 0.02299 0.63994 0.72243 0.0
C406 C 0.08819 0.6653 0.73191 0.0
C407 C 0.09106 0.68235 0.78811 0.0
C408 C 0.15512 0.65825 0.81781 0.0
C409 C 0.09893 0.73561 0.79139 0.0
C410 C 0.01436 0.66629 0.80725 0.0
C411 C 0.97742 0.64024 0.76944 0.0
C412 C 0.90222 0.6267 0.77531 0.0
C413 C 0.86282 0.64159 0.81998 0.0
C414 C 0.89841 0.67027 0.85786 0.0
C415 C 0.97596 0.68103 0.85234 0.0
loop_
_geom_bond_atom_site_label_1
_geom_bond_atom_site_label_2
_geom_bond_distance
_geom_bond_site_symmetry_2
_ccdc_geom_bond_type
O0 Zn1 1.953 . S
O0 C16 1.225 . S
Zn1 O0 1.953 . S
Zn1 O2 1.949 . S
Zn1 O8 1.919 1_554 S
Zn1 O13 1.924 . S
O2 Zn1 1.949 . S
O2 Zn3 1.923 1_554 S
O2 Zn4 1.950 . S
O2 Zn5 1.945 . S
Zn3 O2 1.923 1_556 S
Zn3 O6 1.933 . S
Zn3 O9 1.941 . S
Zn3 O10 1.965 . S
Zn4 O2 1.950 . S
Zn4 O11 1.938 1_554 S
Zn4 O12 1.906 . S
Zn4 O22 1.953 . S
Zn5 O2 1.945 . S
Zn5 O7 1.932 . S
Zn5 O14 1.977 . S
Zn5 O15 1.910 . S
O6 Zn3 1.933 . S
O6 C17 1.226 1_556 S
O7 Zn5 1.932 . S
O7 C17 1.307 . S
O8 Zn1 1.919 1_556 S
O8 C19 1.253 . S
O9 Zn3 1.941 . S
O9 C19 1.283 . S
O10 Zn3 1.965 . S
O10 C18 1.303 . S
O11 Zn4 1.938 1_556 S
O11 C18 1.247 . S
O12 Zn4 1.906 . S
O12 C20 1.304 . S
O13 Zn1 1.924 . S
O13 C21 1.311 . S
O14 Zn5 1.977 . S
O14 C20 1.272 . S
O15 Zn5 1.910 . S
O15 C21 1.231 . S
C16 O0 1.225 . S
C16 O22 1.298 . S
C17 O6 1.226 1_554 S
C17 O7 1.307 . S
C18 O10 1.303 . S
C18 O11 1.247 . S
C19 O8 1.253 . S
C19 O9 1.283 . S
C20 O12 1.304 . S
C20 O14 1.272 . S
C21 O13 1.311 . S
C21 O15 1.231 . S
O22 Zn4 1.953 . S
O22 C16 1.298 . S
O23 Zn24 1.953 . S
O23 C39 1.225 . S
Zn24 O23 1.953 . S
Zn24 O25 1.949 . S
Zn24 O31 1.919 1_554 S
Zn24 O36 1.924 . S
O25 Zn24 1.949 . S
O25 Zn26 1.923 1_554 S
O25 Zn27 1.950 . S
O25 Zn28 1.945 . S
Zn26 O25 1.923 1_556 S
Zn26 O29 1.933 . S
Zn26 O32 1.941 . S
Zn26 O33 1.965 . S
Zn27 O25 1.950 . S
Zn27 O34 1.938 1_554 S
Zn27 O35 1.906 . S
Zn27 O45 1.953 . S
Zn28 O25 1.945 . S
Zn28 O30 1.932 . S
Zn28 O37 1.977 . S
Zn28 O38 1.910 . S
O29 Zn26 1.933 . S
O29 C40 1.226 1_556 S
O30 Zn28 1.932 . S
O30 C40 1.307 . S
O31 Zn24 1.919 1_556 S
O31 C42 1.253 . S
O32 Zn26 1.941 . S
O32 C42 1.283 . S
O33 Zn26 1.965 . S
O33 C41 1.303 . S
O34 Zn27 1.938 1_556 S
O34 C41 1.247 . S
O35 Zn27 1.906 . S
O35 C43 1.304 . S
O36 Zn24 1.924 . S
O36 C44 1.311 . S
O37 Zn28 1.977 . S
O37 C43 1.272 . S
O38 Zn28 1.910 . S
O38 C44 1.231 . S
C39 O23 1.225 . S
C39 O45 1.298 . S
C40 O29 1.226 1_554 S
C40 O30 1.307 . S
C41 O33 1.303 . S
C41 O34 1.247 . S
C42 O31 1.253 . S
C42 O32 1.283 . S
C43 O35 1.304 . S
C43 O37 1.272 . S
C44 O36 1.311 . S
C44 O38 1.231 . S
O45 Zn27 1.953 . S
O45 C39 1.298 . S
O46 Zn47 1.953 . S
O46 C62 1.225 . S
Zn47 O46 1.953 . S
Zn47 O48 1.949 . S
Zn47 O54 1.919 . S
Zn47 O59 1.924 . S
O48 Zn47 1.949 . S
O48 Zn49 1.923 . S
O48 Zn50 1.950 . S
O48 Zn51 1.945 . S
Zn49 O48 1.923 . S
Zn49 O52 1.933 . S
Zn49 O55 1.941 . S
Zn49 O56 1.965 . S
Zn50 O48 1.950 . S
Zn50 O57 1.938 . S
Zn50 O58 1.906 . S
Zn50 O68 1.953 . S
Zn51 O48 1.945 . S
Zn51 O53 1.932 . S
Zn51 O60 1.977 . S
Zn51 O61 1.910 . S
O52 Zn49 1.933 . S
O52 C63 1.226 . S
O53 Zn51 1.932 . S
O53 C63 1.307 . S
O54 Zn47 1.919 . S
O54 C65 1.253 . S
O55 Zn49 1.941 . S
O55 C65 1.283 . S
O56 Zn49 1.965 . S
O56 C64 1.303 . S
O57 Zn50 1.938 . S
O57 C64 1.247 . S
O58 Zn50 1.906 . S
O58 C66 1.304 . S
O59 Zn47 1.924 . S
O59 C67 1.311 . S
O60 Zn51 1.977 . S
O60 C66 1.272 . S
O61 Zn51 1.910 . S
O61 C67 1.231 . S
C62 O46 1.225 . S
C62 O68 1.298 . S
C63 O52 1.226 . S
C63 O53 1.307 . S
C64 O56 1.303 . S
C64 O57 1.247 . S
C65 O54 1.253 . S
C65 O55 1.283 . S
C66 O58 1.304 . S
C66 O60 1.272 . S
C67 O59 1.311 . S
C67 O61 1.231 . S
O68 Zn50 1.953 . S
O68 C62 1.298 . S
O69 Zn70 1.953 . S
O69 C85 1.225 . S
Zn70 O69 1.953 . S
Zn70 O71 1.949 . S
Zn70 O77 1.919 . S
Zn70 O82 1.924 . S
O71 Zn70 1.949 . S
O71 Zn72 1.923 . S
O71 Zn73 1.950 . S
O71 Zn74 1.945 . S
Zn72 O71 1.923 . S
Zn72 O75 1.933 . S
Zn72 O78 1.941 . S
Zn72 O79 1.965 . S
Zn73 O71 1.950 . S
Zn73 O80 1.938 . S
Zn73 O81 1.906 . S
Zn73 O91 1.953 . S
Zn74 O71 1.945 . S
Zn74 O76 1.932 . S
Zn74 O83 1.977 . S
Zn74 O84 1.910 . S
O75 Zn72 1.933 . S
O75 C86 1.226 . S
O76 Zn74 1.932 . S
O76 C86 1.307 . S
O77 Zn70 1.919 . S
O77 C88 1.253 . S
O78 Zn72 1.941 . S
O78 C88 1.283 . S
O79 Zn72 1.965 . S
O79 C87 1.303 . S
O80 Zn73 1.938 . S
O80 C87 1.247 . S
O81 Zn73 1.906 . S
O81 C89 1.304 . S
O82 Zn70 1.924 . S
O82 C90 1.311 . S
O83 Zn74 1.977 . S
O83 C89 1.272 . S
O84 Zn74 1.910 . S
O84 C90 1.231 . S
C85 O69 1.225 . S
C85 O91 1.298 . S
C86 O75 1.226 . S
C86 O76 1.307 . S
C87 O79 1.303 . S
C87 O80 1.247 . S
C88 O77 1.253 . S
C88 O78 1.283 . S
C89 O81 1.304 . S
C89 O83 1.272 . S
C90 O82 1.311 . S
C90 O84 1.231 . S
O91 Zn73 1.953 . S
O91 C85 1.298 . S
H92 C104 0.930 . S
H93 C106 0.930 . S
H94 C107 0.930 . S
H95 C111 0.959 . S
H96 C111 0.959 . S
H97 C111 0.961 . S
H98 C112 0.960 . S
H99 C112 0.961 . S
H100 C112 0.959 . S
H101 C115 0.929 . S
H102 C116 0.931 . S
H103 C118 0.930 . S
C104 H92 0.930 . S
C104 C105 1.399 . S
C104 C109 1.399 . S
C105 C104 1.399 . S
C105 C106 1.376 1_554 S
C106 H93 0.930 . S
C106 C105 1.376 1_556 S
C106 C107 1.388 . S
C107 H94 0.930 . S
C107 C106 1.388 . S
C107 C108 1.390 . S
C108 C107 1.390 . S
C108 C109 1.394 1_556 S
C108 C114 1.465 . S
C109 C104 1.399 . S
C109 C108 1.394 1_554 S
C109 C110 1.516 . S
C110 C109 1.516 . S
C110 C111 1.502 . S
C110 C112 1.561 . S
C110 C113 1.526 . S
C111 H95 0.959 . S
C111 H96 0.959 . S
C111 H97 0.961 . S
C111 C110 1.502 . S
C112 H98 0.960 . S
C112 H99 0.961 . S
C112 H100 0.959 . S
C112 C110 1.561 . S
C113 C110 1.526 . S
C113 C114 1.396 1_554 S
C113 C118 1.390 . S
C114 C108 1.465 . S
C114 C113 1.396 1_556 S
C114 C115 1.399 . S
C115 H101 0.929 . S
C115 C114 1.399 . S
C115 C116 1.385 . S
C116 H102 0.931 . S
C116 C115 1.385 . S
C116 C117 1.389 1_556 S
C117 C116 1.389 1_554 S
C117 C118 1.387 . S
C118 H103 0.930 . S
C118 C113 1.390 . S
C118 C117 1.387 . S
H119 C131 0.930 . S
H120 C133 0.930 . S
H121 C134 0.930 . S
H122 C138 0.959 . S
H123 C138 0.959 . S
H124 C138 0.961 . S
H125 C139 0.960 . S
H126 C139 0.961 . S
H127 C139 0.959 . S
H128 C142 0.929 . S
H129 C143 0.931 . S
H130 C145 0.930 . S
C131 H119 0.930 . S
C131 C132 1.399 . S
C131 C136 1.399 . S
C132 C131 1.399 . S
C132 C133 1.376 . S
C133 H120 0.930 . S
C133 C132 1.376 . S
C133 C134 1.388 . S
C134 H121 0.930 . S
C134 C133 1.388 . S
C134 C135 1.390 . S
C135 C134 1.390 . S
C135 C136 1.394 . S
C135 C141 1.465 . S
C136 C131 1.399 . S
C136 C135 1.394 . S
C136 C137 1.516 . S
C137 C136 1.516 . S
C137 C138 1.502 . S
C137 C139 1.561 . S
C137 C140 1.526 . S
C138 H122 0.959 . S
C138 H123 0.959 . S
C138 H124 0.961 . S
C138 C137 1.502 . S
C139 H125 0.960 . S
C139 H126 0.961 . S
C139 H127 0.959 . S
C139 C137 1.561 . S
C140 C137 1.526 . S
C140 C141 1.396 . S
C140 C145 1.390 . S
C141 C135 1.465 . S
C141 C140 1.396 . S
C141 C142 1.399 . S
C142 H128 0.929 . S
C142 C141 1.399 . S
C142 C143 1.385 . S
C143 H129 0.931 . S
C143 C142 1.385 . S
C143 C144 1.389 . S
C144 C143 1.389 . S
C144 C145 1.387 . S
C145 H130 0.930 . S
C145 C140 1.390 . S
C145 C144 1.387 . S
H146 C158 0.930 . S
H147 C160 0.930 . S
H148 C161 0.930 1_565 S
H149 C165 0.959 . S
H150 C165 0.959 . S
H151 C165 0.961 . S
H152 C166 0.960 . S
H153 C166 0.961 . S
H154 C166 0.959 1_556 S
H155 C169 0.929 1_455 S
H156 C170 0.931 . S
H157 C172 0.930 . S
C158 H146 0.930 . S
C158 C159 1.399 . S
C158 C163 1.399 . S
C159 C158 1.399 . S
C159 C160 1.376 1_554 S
C160 H147 0.930 . S
C160 C159 1.376 1_556 S
C160 C161 1.388 . S
C161 H148 0.930 1_545 S
C161 C160 1.388 . S
C161 C162 1.390 . S
C162 C161 1.390 . S
C162 C163 1.394 1_556 S
C162 C168 1.465 1_445 S
C163 C158 1.399 . S
C163 C162 1.394 1_554 S
C163 C164 1.516 1_455 S
C164 C163 1.516 1_655 S
C164 C165 1.502 . S
C164 C166 1.561 . S
C164 C167 1.526 1_545 S
C165 H149 0.959 . S
C165 H150 0.959 . S
C165 H151 0.961 . S
C165 C164 1.502 . S
C166 H152 0.960 . S
C166 H153 0.961 . S
C166 H154 0.959 1_554 S
C166 C164 1.561 . S
C167 C164 1.526 1_565 S
C167 C168 1.396 1_554 S
C167 C172 1.390 . S
C168 C162 1.465 1_665 S
C168 C167 1.396 1_556 S
C168 C169 1.399 . S
C169 H155 0.929 1_655 S
C169 C168 1.399 . S
C169 C170 1.385 . S
C170 H156 0.931 . S
C170 C169 1.385 . S
C170 C171 1.389 1_556 S
C171 C170 1.389 1_554 S
C171 C172 1.387 . S
C172 H157 0.930 . S
C172 C167 1.390 . S
C172 C171 1.387 . S
H173 C185 0.930 . S
H174 C187 0.930 . S
H175 C188 0.930 . S
H176 C192 0.959 . S
H177 C192 0.959 . S
H178 C192 0.961 . S
H179 C193 0.960 . S
H180 C193 0.964 . S
H181 C193 0.959 . S
H182 C196 0.929 . S
H183 C197 0.931 . S
H184 C199 0.930 . S
C185 H173 0.930 . S
C185 C186 1.399 . S
C185 C190 1.399 . S
C186 C185 1.399 . S
C186 C187 1.376 . S
C187 H174 0.930 . S
C187 C186 1.376 . S
C187 C188 1.388 . S
C188 H175 0.930 . S
C188 C187 1.388 . S
C188 C189 1.390 . S
C189 C188 1.390 . S
C189 C190 1.394 . S
C189 C195 1.465 1_645 S
C190 C185 1.399 . S
C190 C189 1.394 . S
C190 C191 1.516 1_655 S
C191 C190 1.516 1_455 S
C191 C192 1.502 . S
C191 C193 1.561 1_445 S
C191 C194 1.526 1_545 S
C192 H176 0.959 . S
C192 H177 0.959 . S
C192 H178 0.961 . S
C192 C191 1.502 . S
C193 H179 0.960 . S
C193 H180 0.964 . S
C193 H181 0.959 . S
C193 C191 1.561 1_665 S
C194 C191 1.526 1_565 S
C194 C195 1.396 . S
C194 C199 1.390 . S
C195 C189 1.465 1_465 S
C195 C194 1.396 . S
C195 C196 1.399 . S
C196 H182 0.929 . S
C196 C195 1.399 . S
C196 C197 1.385 . S
C197 H183 0.931 . S
C197 C196 1.385 . S
C197 C198 1.389 . S
C198 C197 1.389 . S
C198 C199 1.387 . S
C199 H184 0.930 . S
C199 C194 1.390 . S
C199 C198 1.387 . S
H200 C212 0.930 . S
H201 C214 0.930 . S
H202 C215 0.930 . S
H203 C219 0.959 . S
H204 C219 0.959 . S
H205 C219 0.961 . S
H206 C220 0.960 . S
H207 C220 0.961 . S
H208 C220 0.959 . S
H209 C223 0.929 . S
H210 C224 0.931 . S
H211 C226 0.930 . S
C212 H200 0.930 . S
C212 C213 1.399 . S
C212 C217 1.399 . S
C213 C212 1.399 . S
C213 C214 1.376 . S
C214 H201 0.930 . S
C214 C213 1.376 . S
C214 C215 1.388 . S
C215 H202 0.930 . S
C215 C214 1.388 . S
C215 C216 1.390 . S
C216 C215 1.390 . S
C216 C217 1.394 . S
C216 C222 1.465 . S
C217 C212 1.399 . S
C217 C216 1.394 . S
C217 C218 1.516 . S
C218 C217 1.516 . S
C218 C219 1.502 . S
C218 C220 1.561 . S
C218 C221 1.526 . S
C219 H203 0.959 . S
C219 H204 0.959 . S
C219 H205 0.961 . S
C219 C218 1.502 . S
C220 H206 0.960 . S
C220 H207 0.961 . S
C220 H208 0.959 . S
C220 C218 1.561 . S
C221 C218 1.526 . S
C221 C222 1.396 . S
C221 C226 1.390 . S
C222 C216 1.465 . S
C222 C221 1.396 . S
C222 C223 1.399 . S
C223 H209 0.929 . S
C223 C222 1.399 . S
C223 C224 1.385 . S
C224 H210 0.931 . S
C224 C223 1.385 . S
C224 C225 1.389 . S
C225 C224 1.389 . S
C225 C226 1.387 . S
C226 H211 0.930 . S
C226 C221 1.390 . S
C226 C225 1.387 . S
H227 C239 0.930 . S
H228 C241 0.930 . S
H229 C242 0.930 . S
H230 C246 0.959 . S
H231 C246 0.959 . S
H232 C246 0.961 . S
H233 C247 0.960 . S
H234 C247 0.961 . S
H235 C247 0.959 . S
H236 C250 0.929 . S
H237 C251 0.931 . S
H238 C253 0.930 . S
C239 H227 0.930 . S
C239 C240 1.399 . S
C239 C244 1.399 . S
C240 C239 1.399 . S
C240 C241 1.376 . S
C241 H228 0.930 . S
C241 C240 1.376 . S
C241 C242 1.388 . S
C242 H229 0.930 . S
C242 C241 1.388 . S
C242 C243 1.390 . S
C243 C242 1.390 . S
C243 C244 1.394 . S
C243 C249 1.465 . S
C244 C239 1.399 . S
C244 C243 1.394 . S
C244 C245 1.516 . S
C245 C244 1.516 . S
C245 C246 1.502 . S
C245 C247 1.561 . S
C245 C248 1.526 . S
C246 H230 0.959 . S
C246 H231 0.959 . S
C246 H232 0.961 . S
C246 C245 1.502 . S
C247 H233 0.960 . S
C247 H234 0.961 . S
C247 H235 0.959 . S
C247 C245 1.561 . S
C248 C245 1.526 . S
C248 C249 1.396 . S
C248 C253 1.390 . S
C249 C243 1.465 . S
C249 C248 1.396 . S
C249 C250 1.399 . S
C250 H236 0.929 . S
C250 C249 1.399 . S
C250 C251 1.385 . S
C251 H237 0.931 . S
C251 C250 1.385 . S
C251 C252 1.389 . S
C252 C251 1.389 . S
C252 C253 1.387 . S
C253 H238 0.930 . S
C253 C248 1.390 . S
C253 C252 1.387 . S
H254 C266 0.930 . S
H255 C268 0.930 . S
H256 C269 0.930 . S
H257 C273 0.959 . S
H258 C273 0.959 . S
H259 C273 0.961 . S
H260 C274 0.960 . S
H261 C274 0.961 . S
H262 C274 0.959 . S
H263 C277 0.929 . S
H264 C278 0.931 . S
H265 C280 0.930 . S
C266 H254 0.930 . S
C266 C267 1.399 . S
C266 C271 1.399 . S
C267 C266 1.399 . S
C267 C268 1.376 . S
C268 H255 0.930 . S
C268 C267 1.376 . S
C268 C269 1.388 . S
C269 H256 0.930 . S
C269 C268 1.388 . S
C269 C270 1.390 . S
C270 C269 1.390 . S
C270 C271 1.394 . S
C270 C276 1.465 . S
C271 C266 1.399 . S
C271 C270 1.394 . S
C271 C272 1.516 . S
C272 C271 1.516 . S
C272 C273 1.502 . S
C272 C274 1.561 . S
C272 C275 1.526 . S
C273 H257 0.959 . S
C273 H258 0.959 . S
C273 H259 0.961 . S
C273 C272 1.502 . S
C274 H260 0.960 . S
C274 H261 0.961 . S
C274 H262 0.959 . S
C274 C272 1.561 . S
C275 C272 1.526 . S
C275 C276 1.396 . S
C275 C280 1.390 . S
C276 C270 1.465 . S
C276 C275 1.396 . S
C276 C277 1.399 . S
C277 H263 0.929 . S
C277 C276 1.399 . S
C277 C278 1.385 . S
C278 H264 0.931 . S
C278 C277 1.385 . S
C278 C279 1.389 . S
C279 C278 1.389 . S
C279 C280 1.387 . S
C280 H265 0.930 . S
C280 C275 1.390 . S
C280 C279 1.387 . S
H281 C293 0.930 . S
H282 C295 0.930 . S
H283 C296 0.930 . S
H284 C300 0.959 . S
H285 C300 0.959 . S
H286 C300 0.961 . S
H287 C301 0.960 . S
H288 C301 0.961 . S
H289 C301 0.959 . S
H290 C304 0.929 . S
H291 C305 0.931 . S
H292 C307 0.930 . S
C293 H281 0.930 . S
C293 C294 1.399 . S
C293 C298 1.399 . S
C294 C293 1.399 . S
C294 C295 1.376 . S
C295 H282 0.930 . S
C295 C294 1.376 . S
C295 C296 1.388 . S
C296 H283 0.930 . S
C296 C295 1.388 . S
C296 C297 1.390 . S
C297 C296 1.390 . S
C297 C298 1.394 . S
C297 C303 1.465 . S
C298 C293 1.399 . S
C298 C297 1.394 . S
C298 C299 1.516 . S
C299 C298 1.516 . S
C299 C300 1.502 . S
C299 C301 1.561 . S
C299 C302 1.526 . S
C300 H284 0.959 . S
C300 H285 0.959 . S
C300 H286 0.961 . S
C300 C299 1.502 . S
C301 H287 0.960 . S
C301 H288 0.961 . S
C301 H289 0.959 . S
C301 C299 1.561 . S
C302 C299 1.526 . S
C302 C303 1.396 . S
C302 C307 1.390 . S
C303 C297 1.465 . S
C303 C302 1.396 . S
C303 C304 1.399 . S
C304 H290 0.929 . S
C304 C303 1.399 . S
C304 C305 1.385 . S
C305 H291 0.931 . S
C305 C304 1.385 . S
C305 C306 1.389 . S
C306 C305 1.389 . S
C306 C307 1.387 . S
C307 H292 0.930 . S
C307 C302 1.390 . S
C307 C306 1.387 . S
H308 C320 0.930 . S
H309 C322 0.930 . S
H310 C323 0.930 . S
H311 C327 0.959 . S
H312 C327 0.959 . S
H313 C327 0.961 . S
H314 C328 0.960 1_655 S
H315 C328 0.961 . S
H316 C328 0.959 . S
H317 C331 0.929 . S
H318 C332 0.931 . S
H319 C334 0.930 . S
C320 H308 0.930 . S
C320 C321 1.399 . S
C320 C325 1.399 . S
C321 C320 1.399 . S
C321 C322 1.376 . S
C322 H309 0.930 . S
C322 C321 1.376 . S
C322 C323 1.388 1_655 S
C323 H310 0.930 . S
C323 C322 1.388 1_455 S
C323 C324 1.390 . S
C324 C323 1.390 . S
C324 C325 1.394 1_455 S
C324 C330 1.465 . S
C325 C320 1.399 . S
C325 C324 1.394 1_655 S
C325 C326 1.516 . S
C326 C325 1.516 . S
C326 C327 1.502 . S
C326 C328 1.561 1_655 S
C326 C329 1.526 1_655 S
C327 H311 0.959 . S
C327 H312 0.959 . S
C327 H313 0.961 . S
C327 C326 1.502 . S
C328 H314 0.960 1_455 S
C328 H315 0.961 . S
C328 H316 0.959 . S
C328 C326 1.561 1_455 S
C329 C326 1.526 1_455 S
C329 C330 1.396 . S
C329 C334 1.390 . S
C330 C324 1.465 . S
C330 C329 1.396 . S
C330 C331 1.399 . S
C331 H317 0.929 . S
C331 C330 1.399 . S
C331 C332 1.385 . S
C332 H318 0.931 . S
C332 C331 1.385 . S
C332 C333 1.389 . S
C333 C332 1.389 . S
C333 C334 1.387 . S
C334 H319 0.930 . S
C334 C329 1.390 . S
C334 C333 1.387 . S
H335 C347 0.930 . S
H336 C349 0.930 . S
H337 C350 0.930 1_455 S
H338 C354 0.959 . S
H339 C354 0.959 . S
H340 C354 0.961 . S
H341 C355 0.960 . S
H342 C355 0.961 . S
H343 C355 0.959 . S
H344 C358 0.929 . S
H345 C359 0.931 . S
H346 C361 0.930 . S
C347 H335 0.930 . S
C347 C348 1.399 . S
C347 C352 1.399 . S
C348 C347 1.399 . S
C348 C349 1.376 . S
C349 H336 0.930 . S
C349 C348 1.376 . S
C349 C350 1.388 . S
C350 H337 0.930 1_655 S
C350 C349 1.388 . S
C350 C351 1.390 . S
C351 C350 1.390 . S
C351 C352 1.394 . S
C351 C357 1.465 1_655 S
C352 C347 1.399 . S
C352 C351 1.394 . S
C352 C353 1.516 . S
C353 C352 1.516 . S
C353 C354 1.502 . S
C353 C355 1.561 1_655 S
C353 C356 1.526 1_655 S
C354 H338 0.959 . S
C354 H339 0.959 . S
C354 H340 0.961 . S
C354 C353 1.502 . S
C355 H341 0.960 . S
C355 H342 0.961 . S
C355 H343 0.959 . S
C355 C353 1.561 1_455 S
C356 C353 1.526 1_455 S
C356 C357 1.396 . S
C356 C361 1.390 . S
C357 C351 1.465 1_455 S
C357 C356 1.396 . S
C357 C358 1.399 . S
C358 H344 0.929 . S
C358 C357 1.399 . S
C358 C359 1.385 . S
C359 H345 0.931 . S
C359 C358 1.385 . S
C359 C360 1.389 . S
C360 C359 1.389 . S
C360 C361 1.387 . S
C361 H346 0.930 . S
C361 C356 1.390 . S
C361 C360 1.387 . S
H362 C374 0.930 . S
H363 C376 0.930 . S
H364 C377 0.930 1_455 S
H365 C381 0.959 . S
H366 C381 0.959 . S
H367 C381 0.961 . S
H368 C382 0.960 . S
H369 C382 0.961 . S
H370 C382 0.959 . S
H371 C385 0.929 . S
H372 C386 0.931 . S
H373 C388 0.930 . S
C374 H362 0.930 . S
C374 C375 1.399 . S
C374 C379 1.399 . S
C375 C374 1.399 . S
C375 C376 1.376 . S
C376 H363 0.930 . S
C376 C375 1.376 . S
C376 C377 1.388 . S
C377 H364 0.930 1_655 S
C377 C376 1.388 . S
C377 C378 1.390 . S
C378 C377 1.390 . S
C378 C379 1.394 . S
C378 C384 1.465 1_655 S
C379 C374 1.399 . S
C379 C378 1.394 . S
C379 C380 1.516 . S
C380 C379 1.516 . S
C380 C381 1.502 . S
C380 C382 1.561 1_655 S
C380 C383 1.526 1_655 S
C381 H365 0.959 . S
C381 H366 0.959 . S
C381 H367 0.961 . S
C381 C380 1.502 . S
C382 H368 0.960 . S
C382 H369 0.961 . S
C382 H370 0.959 . S
C382 C380 1.561 1_455 S
C383 C380 1.526 1_455 S
C383 C384 1.396 . S
C383 C388 1.390 . S
C384 C378 1.465 1_455 S
C384 C383 1.396 . S
C384 C385 1.399 . S
C385 H371 0.929 . S
C385 C384 1.399 . S
C385 C386 1.385 . S
C386 H372 0.931 . S
C386 C385 1.385 . S
C386 C387 1.389 . S
C387 C386 1.389 . S
C387 C388 1.387 . S
C388 H373 0.930 . S
C388 C383 1.390 . S
C388 C387 1.387 . S
H389 C401 0.930 . S
H390 C403 0.930 . S
H391 C404 0.930 . S
H392 C408 0.959 . S
H393 C408 0.959 . S
H394 C408 0.961 . S
H395 C409 0.960 . S
H396 C409 0.961 . S
H397 C409 0.959 . S
H398 C412 0.929 . S
H399 C413 0.931 . S
H400 C415 0.930 1_455 S
C401 H389 0.930 . S
C401 C402 1.399 . S
C401 C406 1.399 . S
C402 C401 1.399 . S
C402 C403 1.376 1_455 S
C403 H390 0.930 . S
C403 C402 1.376 1_655 S
C403 C404 1.388 . S
C404 H391 0.930 . S
C404 C403 1.388 . S
C404 C405 1.390 . S
C405 C404 1.390 . S
C405 C406 1.394 1_655 S
C405 C411 1.465 . S
C406 C401 1.399 . S
C406 C405 1.394 1_455 S
C406 C407 1.516 . S
C407 C406 1.516 . S
C407 C408 1.502 . S
C407 C409 1.561 . S
C407 C410 1.526 . S
C408 H392 0.959 . S
C408 H393 0.959 . S
C408 H394 0.961 . S
C408 C407 1.502 . S
C409 H395 0.960 . S
C409 H396 0.961 . S
C409 H397 0.959 . S
C409 C407 1.561 . S
C410 C407 1.526 . S
C410 C411 1.396 1_455 S
C410 C415 1.390 1_455 S
C411 C405 1.465 . S
C411 C410 1.396 1_655 S
C411 C412 1.399 . S
C412 H398 0.929 . S
C412 C411 1.399 . S
C412 C413 1.385 . S
C413 H399 0.931 . S
C413 C412 1.385 . S
C413 C414 1.389 . S
C414 C413 1.389 . S
C414 C415 1.387 . S
C415 H400 0.930 1_655 S
C415 C410 1.390 1_655 S
C415 C414 1.387 . S
C105 C40 1.662 . S
C117 C16 1.688 . S
C132 C63 1.692 . S
C144 C85 1.673 . S
C159 C17 1.689 . S
C171 C39 1.658 . S
C186 C86 1.697 . S
C198 C62 1.667 . S
C213 C89 0.938 . S
C225 C20 0.997 . S
C240 C44 0.890 . S
C252 C67 0.876 . S
C267 C42 0.856 . S
C279 C65 0.715 . S
C294 C87 0.880 . S
C306 C18 0.891 . S
C321 C43 0.920 . S
C333 C66 0.846 . S
C348 C90 0.885 . S
C360 C21 0.873 . S
C375 C88 0.818 . S
C387 C19 0.743 . S
C402 C64 0.889 . S
C414 C41 0.855 . S
