# Generated by pormake.
# Topology why, (6)-cn, num edge types: 1
# Building blocks:
#     Node 0, Type 0, BuildingBlock: CUWYAW_clean_sbu_0, # of connection points: 6
#     Node 1, Type 0, BuildingBlock: CUWYAW_clean_sbu_0, # of connection points: 6
#     Node 2, Type 0, BuildingBlock: CUWYAW_clean_sbu_0, # of connection points: 6
#     Node 3, Type 0, BuildingBlock: CUWYAW_clean_sbu_0, # of connection points: 6
#     Node 4, Type 0, BuildingBlock: CUWYAW_clean_sbu_0, # of connection points: 6
#     Node 5, Type 0, BuildingBlock: CUWYAW_clean_sbu_0, # of connection points: 6
#     Node 6, Type 0, BuildingBlock: CUWYAW_clean_sbu_0, # of connection points: 6
#     Node 7, Type 0, BuildingBlock: CUWYAW_clean_sbu_0, # of connection points: 6
#     Node 8, Type 0, BuildingBlock: CUWYAW_clean_sbu_0, # of connection points: 6
#     Node 9, Type 0, BuildingBlock: CUWYAW_clean_sbu_0, # of connection points: 6
#     Node 10, Type 0, BuildingBlock: CUWYAW_clean_sbu_0, # of connection points: 6
#     Node 11, Type 0, BuildingBlock: CUWYAW_clean_sbu_0, # of connection points: 6
#     Node 12, Type 0, BuildingBlock: CUWYAW_clean_sbu_0, # of connection points: 6
#     Node 13, Type 0, BuildingBlock: CUWYAW_clean_sbu_0, # of connection points: 6
#     Node 14, Type 0, BuildingBlock: CUWYAW_clean_sbu_0, # of connection points: 6
#     Node 15, Type 0, BuildingBlock: CUWYAW_clean_sbu_0, # of connection points: 6
#     Edge 16, Type (0, 0), BuildingBlock: OJICUG_clean_linker_0, # of connection points: 2
#     Edge 17, Type (0, 0), BuildingBlock: OJICUG_clean_linker_0, # of connection points: 2
#     Edge 18, Type (0, 0), BuildingBlock: OJICUG_clean_linker_0, # of connection points: 2
#     Edge 19, Type (0, 0), BuildingBlock: OJICUG_clean_linker_0, # of connection points: 2
#     Edge 20, Type (0, 0), BuildingBlock: OJICUG_clean_linker_0, # of connection points: 2
#     Edge 21, Type (0, 0), BuildingBlock: OJICUG_clean_linker_0, # of connection points: 2
#     Edge 22, Type (0, 0), BuildingBlock: OJICUG_clean_linker_0, # of connection points: 2
#     Edge 23, Type (0, 0), BuildingBlock: OJICUG_clean_linker_0, # of connection points: 2
#     Edge 24, Type (0, 0), BuildingBlock: OJICUG_clean_linker_0, # of connection points: 2
#     Edge 25, Type (0, 0), BuildingBlock: OJICUG_clean_linker_0, # of connection points: 2
#     Edge 26, Type (0, 0), BuildingBlock: OJICUG_clean_linker_0, # of connection points: 2
#     Edge 27, Type (0, 0), BuildingBlock: OJICUG_clean_linker_0, # of connection points: 2
#     Edge 28, Type (0, 0), BuildingBlock: OJICUG_clean_linker_0, # of connection points: 2
#     Edge 29, Type (0, 0), BuildingBlock: OJICUG_clean_linker_0, # of connection points: 2
#     Edge 30, Type (0, 0), BuildingBlock: OJICUG_clean_linker_0, # of connection points: 2
#     Edge 31, Type (0, 0), BuildingBlock: OJICUG_clean_linker_0, # of connection points: 2
#     Edge 32, Type (0, 0), BuildingBlock: OJICUG_clean_linker_0, # of connection points: 2
#     Edge 33, Type (0, 0), BuildingBlock: OJICUG_clean_linker_0, # of connection points: 2
#     Edge 34, Type (0, 0), BuildingBlock: OJICUG_clean_linker_0, # of connection points: 2
#     Edge 35, Type (0, 0), BuildingBlock: OJICUG_clean_linker_0, # of connection points: 2
#     Edge 36, Type (0, 0), BuildingBlock: OJICUG_clean_linker_0, # of connection points: 2
#     Edge 37, Type (0, 0), BuildingBlock: OJICUG_clean_linker_0, # of connection points: 2
#     Edge 38, Type (0, 0), BuildingBlock: OJICUG_clean_linker_0, # of connection points: 2
#     Edge 39, Type (0, 0), BuildingBlock: OJICUG_clean_linker_0, # of connection points: 2
#     Edge 40, Type (0, 0), BuildingBlock: OJICUG_clean_linker_0, # of connection points: 2
#     Edge 41, Type (0, 0), BuildingBlock: OJICUG_clean_linker_0, # of connection points: 2
#     Edge 42, Type (0, 0), BuildingBlock: OJICUG_clean_linker_0, # of connection points: 2
#     Edge 43, Type (0, 0), BuildingBlock: OJICUG_clean_linker_0, # of connection points: 2
#     Edge 44, Type (0, 0), BuildingBlock: OJICUG_clean_linker_0, # of connection points: 2
#     Edge 45, Type (0, 0), BuildingBlock: OJICUG_clean_linker_0, # of connection points: 2
#     Edge 46, Type (0, 0), BuildingBlock: OJICUG_clean_linker_0, # of connection points: 2
#     Edge 47, Type (0, 0), BuildingBlock: OJICUG_clean_linker_0, # of connection points: 2
#     Edge 48, Type (0, 0), BuildingBlock: OJICUG_clean_linker_0, # of connection points: 2
#     Edge 49, Type (0, 0), BuildingBlock: OJICUG_clean_linker_0, # of connection points: 2
#     Edge 50, Type (0, 0), BuildingBlock: OJICUG_clean_linker_0, # of connection points: 2
#     Edge 51, Type (0, 0), BuildingBlock: OJICUG_clean_linker_0, # of connection points: 2
#     Edge 52, Type (0, 0), BuildingBlock: OJICUG_clean_linker_0, # of connection points: 2
#     Edge 53, Type (0, 0), BuildingBlock: OJICUG_clean_linker_0, # of connection points: 2
#     Edge 54, Type (0, 0), BuildingBlock: OJICUG_clean_linker_0, # of connection points: 2
#     Edge 55, Type (0, 0), BuildingBlock: OJICUG_clean_linker_0, # of connection points: 2
#     Edge 56, Type (0, 0), BuildingBlock: OJICUG_clean_linker_0, # of connection points: 2
#     Edge 57, Type (0, 0), BuildingBlock: OJICUG_clean_linker_0, # of connection points: 2
#     Edge 58, Type (0, 0), BuildingBlock: OJICUG_clean_linker_0, # of connection points: 2
#     Edge 59, Type (0, 0), BuildingBlock: OJICUG_clean_linker_0, # of connection points: 2
#     Edge 60, Type (0, 0), BuildingBlock: OJICUG_clean_linker_0, # of connection points: 2
#     Edge 61, Type (0, 0), BuildingBlock: OJICUG_clean_linker_0, # of connection points: 2
#     Edge 62, Type (0, 0), BuildingBlock: OJICUG_clean_linker_0, # of connection points: 2
#     Edge 63, Type (0, 0), BuildingBlock: OJICUG_clean_linker_0, # of connection points: 2
# Relax obj value: 0.545
# Max RMSD: 0.258
# Mean RMSD: 0.258
data_MOF--net-why--node1-CUWYAW_clean_sbu_0--edge1-OJICUG_clean_linker_0
_symmetry_space_group_name_H-M    P1
_symmetry_Int_Tables_number       1
_symmetry_cell_setting            triclinic
loop_
_symmetry_equiv_pos_as_xyz
'x, y, z'
_cell_length_a     37.595888
_cell_length_b     37.516396
_cell_length_c     32.07216
_cell_angle_alpha  90.023776
_cell_angle_beta   90.045486
_cell_angle_gamma 90.170107
loop_
_atom_site_label
_atom_site_type_symbol
_atom_site_fract_x
_atom_site_fract_y
_atom_site_fract_z
_atom_type_partial_charge
C0 C 0.44329 0.27887 0.17759 0.0
Eu1 Eu 0.46852 0.26091 0.10544 0.0
C2 C 0.41545 0.26239 0.2037 0.0
C3 C 0.37948 0.26666 0.19331 0.0
C4 C 0.35301 0.25352 0.21932 0.0
C5 C 0.36167 0.23583 0.25671 0.0
C6 C 0.39773 0.22873 0.26515 0.0
C7 C 0.4244 0.24216 0.23904 0.0
C8 C 0.46837 0.30032 0.03664 0.0
C9 C 0.41718 0.23394 0.02717 0.0
C10 C 0.53646 0.18625 1.00991 0.0
Eu11 Eu 0.50273 0.22552 0.064 0.0
C12 C 0.55575 0.19462 0.9713 0.0
C13 C 0.55174 0.17262 0.93628 0.0
C14 C 0.56937 0.18086 0.89916 0.0
C15 C 0.59146 0.21108 0.89676 0.0
C16 C 0.59519 0.23322 0.93177 0.0
C17 C 0.57728 0.22522 0.96865 0.0
C18 C 0.49163 0.18319 0.14055 0.0
C19 C 0.5507 0.2992 0.0928 0.0
O20 O 0.47283 0.26095 0.17339 0.0
O21 O 0.43272 0.2931 0.14263 0.0
O22 O 0.44156 0.29769 0.06195 0.0
O23 O 0.49555 0.2829 0.0486 0.0
O24 O 0.41563 0.24833 0.06544 0.0
O25 O 0.45029 0.22239 0.01862 0.0
O26 O 0.5022 0.19128 1.00882 0.0
O27 O 0.55072 0.19794 0.04438 0.0
O28 O 0.52142 0.19583 0.12595 0.0
O29 O 0.4688 0.19916 0.11641 0.0
O30 O 0.54956 0.27125 0.06641 0.0
O31 O 0.52081 0.29955 0.11598 0.0
H32 H 0.37151 0.28153 0.16593 0.0
H33 H 0.32582 0.26017 0.21149 0.0
H34 H 0.40545 0.21474 0.29324 0.0
H35 H 0.45199 0.23777 0.24728 0.0
H36 H 0.53499 0.1491 0.93767 0.0
H37 H 0.56631 0.16327 0.87259 0.0
H38 H 0.6118 0.25684 0.93051 0.0
H39 H 0.58034 0.24298 0.99504 0.0
C40 C 0.67902 0.67141 0.40195 0.0
Eu41 Eu 0.70742 0.71924 0.35379 0.0
C42 C 0.64811 0.64839 0.39416 0.0
C43 C 0.62119 0.65915 0.36646 0.0
C44 C 0.59096 0.63811 0.36055 0.0
C45 C 0.58719 0.60586 0.38218 0.0
C46 C 0.61527 0.5942 0.408 0.0
C47 C 0.64547 0.61532 0.41389 0.0
C48 C 0.67168 0.73482 0.28294 0.0
C49 C 0.73741 0.66826 0.27381 0.0
C50 C 0.78609 0.79821 0.27412 0.0
Eu51 Eu 0.74956 0.75147 0.31667 0.0
C52 C 0.7791 0.81774 0.23558 0.0
C53 C 0.80577 0.83904 0.21818 0.0
C54 C 0.79978 0.85652 0.18047 0.0
C55 C 0.76701 0.85283 0.1596 0.0
C56 C 0.73997 0.83213 0.17777 0.0
C57 C 0.74602 0.81461 0.21553 0.0
C58 C 0.79096 0.73229 0.39035 0.0
C59 C 0.67357 0.80024 0.34537 0.0
O60 O 0.70674 0.66509 0.37874 0.0
O61 O 0.67233 0.70539 0.40532 0.0
O62 O 0.65747 0.73387 0.31954 0.0
O63 O 0.70426 0.72712 0.28425 0.0
O64 O 0.71663 0.6688 0.30775 0.0
O65 O 0.75454 0.69983 0.2694 0.0
O66 O 0.76577 0.80644 0.30553 0.0
O67 O 0.78988 0.7639 0.27001 0.0
O68 O 0.79878 0.72734 0.35143 0.0
O69 O 0.75792 0.7436 0.38843 0.0
O70 O 0.7043 0.79961 0.32318 0.0
O71 O 0.66912 0.76942 0.36568 0.0
H72 H 0.62284 0.68437 0.35042 0.0
H73 H 0.56984 0.6478 0.34058 0.0
H74 H 0.61299 0.56983 0.4259 0.0
H75 H 0.66618 0.60638 0.43491 0.0
H76 H 0.83133 0.84182 0.23349 0.0
H77 H 0.8209 0.87276 0.16746 0.0
H78 H 0.7146 0.82865 0.16224 0.0
H79 H 0.72514 0.79821 0.22881 0.0
C80 C 0.27293 0.92573 0.6697 0.0
Eu81 Eu 0.25513 0.95945 0.60255 0.0
C82 C 0.27111 0.88716 0.67655 0.0
C83 C 0.26909 0.86396 0.64216 0.0
C84 C 0.27155 0.82721 0.64777 0.0
C85 C 0.27549 0.81316 0.68795 0.0
C86 C 0.27425 0.8363 0.72257 0.0
C87 C 0.27225 0.87314 0.71686 0.0
C88 C 0.25459 0.92206 0.53206 0.0
C89 C 0.30609 0.98714 0.52601 0.0
C90 C 0.18689 1.03761 0.51471 0.0
Eu91 Eu 0.2208 0.99585 0.56639 0.0
C92 C 0.16922 1.03156 0.47464 0.0
C93 C 0.14801 1.0583 0.45736 0.0
C94 C 0.12987 1.05216 0.42006 0.0
C95 C 0.13269 1.01913 0.39943 0.0
C96 C 0.15387 0.99227 0.4171 0.0
C97 C 0.17203 0.99848 0.45447 0.0
C98 C 0.23239 1.03647 0.644 0.0
C99 C 0.17297 0.92153 0.59182 0.0
O100 O 0.29605 0.93596 0.64174 0.0
O101 O 0.24221 0.94152 0.66547 0.0
O102 O 0.28146 0.92424 0.55725 0.0
O103 O 0.22753 0.93966 0.54434 0.0
O104 O 0.30808 0.97099 0.56313 0.0
O105 O 0.27285 0.99971 0.5194 0.0
O106 O 0.22134 1.03405 0.51501 0.0
O107 O 0.17201 1.02198 0.54639 0.0
O108 O 0.20252 1.02469 0.62882 0.0
O109 O 0.25519 1.02055 0.61976 0.0
O110 O 0.17101 0.95362 0.57322 0.0
O111 O 0.2058 0.91701 0.60714 0.0
H112 H 0.2674 0.87429 0.61076 0.0
H113 H 0.27278 0.80999 0.62069 0.0
H114 H 0.27795 0.82618 0.75391 0.0
H115 H 0.2733 0.89065 0.7437 0.0
H116 H 0.14524 1.08379 0.4729 0.0
H117 H 0.11327 1.07318 0.4076 0.0
H118 H 0.15676 0.9667 0.40182 0.0
H119 H 0.18817 0.9775 0.46776 0.0
C120 C 1.02983 0.52549 0.92574 0.0
Eu121 Eu 1.01109 0.50319 0.85255 0.0
C122 C 1.01215 0.54908 0.95607 0.0
C123 C 1.00942 0.58571 0.94816 0.0
C124 C 0.99657 0.60863 0.97859 0.0
C125 C 0.98613 0.59562 0.01798 0.0
C126 C 0.98494 0.5584 0.02394 0.0
C127 C 0.99829 0.53537 0.99343 0.0
C128 C 1.04965 0.50369 0.78348 0.0
C129 C 0.98363 0.55366 0.77531 0.0
C130 C 0.93508 0.43345 0.76224 0.0
Eu131 Eu 0.97584 0.46809 0.81456 0.0
C132 C 0.94125 0.4157 0.72229 0.0
C133 C 0.91418 0.39516 0.7044 0.0
C134 C 0.92004 0.37745 0.66678 0.0
C135 C 0.95313 0.38008 0.64644 0.0
C136 C 0.98035 0.40056 0.66475 0.0
C137 C 0.97443 0.41828 0.70245 0.0
C138 C 0.934 0.48036 0.89094 0.0
C139 C 1.05008 0.42138 0.84176 0.0
O140 O 1.01507 0.49429 0.91966 0.0
O141 O 1.04064 0.54034 0.89115 0.0
O142 O 1.04711 0.53057 0.80886 0.0
O143 O 1.03248 0.47607 0.7954 0.0
O144 O 0.99806 0.55602 0.81339 0.0
O145 O 0.97268 0.51996 0.76751 0.0
O146 O 0.9386 0.46799 0.76233 0.0
O147 O 0.95044 0.41876 0.79423 0.0
O148 O 0.94686 0.4504 0.87729 0.0
O149 O 0.94957 0.50288 0.86593 0.0
O150 O 1.01881 0.4193 0.82143 0.0
O151 O 1.05355 0.45395 0.85882 0.0
H152 H 1.01895 0.59716 0.91924 0.0
H153 H 0.9982 0.63687 0.97207 0.0
H154 H 0.97609 0.54717 0.05324 0.0
H155 H 0.99913 0.50703 0.99979 0.0
H156 H 0.88857 0.39264 0.71964 0.0
H157 H 0.89876 0.36134 0.65386 0.0
H158 H 1.00599 0.40328 0.6497 0.0
H159 H 0.99569 0.43395 0.71617 0.0
C160 C 0.68885 1.03766 0.01911 0.0
Eu161 Eu 0.72212 0.99683 0.96616 0.0
C162 C 0.67027 1.03096 0.05878 0.0
C163 C 0.6812 1.04894 0.0949 0.0
C164 C 0.66401 1.04275 0.13279 0.0
C165 C 0.63525 1.01873 0.13521 0.0
C166 C 0.62471 1.00033 0.09905 0.0
C167 C 0.64214 1.00625 0.06127 0.0
C168 C 0.73345 1.03724 0.88871 0.0
C169 C 0.67438 0.92194 0.9403 0.0
C170 C 0.77544 0.92443 0.86342 0.0
Eu171 Eu 0.75673 0.9593 0.92942 0.0
C172 C 0.77413 0.88569 0.85774 0.0
C173 C 0.77225 0.86329 0.89284 0.0
C174 C 0.77529 0.82646 0.88842 0.0
C175 C 0.77952 0.81152 0.84874 0.0
C176 C 0.77815 0.8338 0.81338 0.0
C177 C 0.77566 0.87073 0.8179 0.0
C178 C 0.75486 0.9238 1.00131 0.0
C179 C 0.80772 0.98758 1.00604 0.0
O180 O 0.72321 1.0333 0.0194 0.0
O181 O 0.67419 1.02456 0.98564 0.0
O182 O 0.70355 1.02661 0.90477 0.0
O183 O 0.75647 1.02053 0.91207 0.0
O184 O 0.67256 0.95405 0.95912 0.0
O185 O 0.70713 0.91729 0.9248 0.0
O186 O 0.79823 0.93556 0.89132 0.0
O187 O 0.74453 0.93997 0.86681 0.0
O188 O 0.78212 0.92489 0.97669 0.0
O189 O 0.72815 0.94071 0.98716 0.0
O190 O 0.80951 0.97069 0.96933 0.0
O191 O 0.77473 1.00089 1.01235 0.0
H192 H 0.70307 1.06779 0.0938 0.0
H193 H 0.67326 1.05689 0.16019 0.0
H194 H 0.60242 0.98199 0.09962 0.0
H195 H 0.63331 0.99166 0.03399 0.0
H196 H 0.77023 0.87434 0.92387 0.0
H197 H 0.77667 0.8099 0.91604 0.0
H198 H 0.7821 0.82295 0.78242 0.0
H199 H 0.77662 0.88761 0.79051 0.0
C200 C 0.43794 0.43392 0.76838 0.0
Eu201 Eu 0.4786 0.46904 0.7166 0.0
C202 C 0.44383 0.41585 0.80818 0.0
C203 C 0.41648 0.39553 0.82575 0.0
C204 C 0.42199 0.3777 0.86334 0.0
C205 C 0.45499 0.37999 0.88399 0.0
C206 C 0.48252 0.40019 0.86595 0.0
C207 C 0.47695 0.41803 0.82826 0.0
C208 C 0.43674 0.47962 0.63931 0.0
C209 C 0.55263 0.42229 0.68919 0.0
C210 C 0.53187 0.52435 0.60326 0.0
Eu211 Eu 0.51259 0.50358 0.67698 0.0
C212 C 0.51372 0.53473 0.5644 0.0
C213 C 0.51503 0.57031 0.55147 0.0
C214 C 0.50494 0.57944 0.51113 0.0
C215 C 0.49403 0.55297 0.48258 0.0
C216 C 0.48831 0.51817 0.49731 0.0
C217 C 0.49821 0.50905 0.53792 0.0
C218 C 0.55368 0.50496 0.74442 0.0
C219 C 0.48729 0.55415 0.75596 0.0
O220 O 0.44142 0.46849 0.76878 0.0
O221 O 0.45345 0.41946 0.73633 0.0
O222 O 0.45068 0.45014 0.65318 0.0
O223 O 0.45132 0.50245 0.66454 0.0
O224 O 0.52412 0.42231 0.71454 0.0
O225 O 0.55309 0.45283 0.66717 0.0
O226 O 0.52932 0.4909 0.61409 0.0
O227 O 0.52947 0.5461 0.63494 0.0
O228 O 0.55119 0.53099 0.71797 0.0
O229 O 0.53544 0.47763 0.73428 0.0
O230 O 0.5023 0.55622 0.71816 0.0
O231 O 0.47514 0.52086 0.76332 0.0
H232 H 0.39091 0.39334 0.81032 0.0
H233 H 0.40048 0.36183 0.87607 0.0
H234 H 0.50811 0.40263 0.88123 0.0
H235 H 0.49839 0.43355 0.81479 0.0
H236 H 0.52639 0.59069 0.57144 0.0
H237 H 0.50986 0.6066 0.5012 0.0
H238 H 0.47953 0.49732 0.47627 0.0
H239 H 0.49601 0.48143 0.54739 0.0
C240 C 1.03792 0.18383 0.51709 0.0
Eu241 Eu 1.00368 0.22483 0.46503 0.0
C242 C 1.05569 0.19008 0.55695 0.0
C243 C 1.07643 0.16317 0.57455 0.0
C244 C 1.09455 0.16933 0.6118 0.0
C245 C 1.09213 0.20256 0.63203 0.0
C246 C 1.07146 0.22963 0.61401 0.0
C247 C 1.05332 0.2234 0.57667 0.0
C248 C 0.99147 0.18256 0.38876 0.0
C249 C 1.0509 0.29863 0.43825 0.0
C250 C 0.94865 0.27749 0.35251 0.0
Eu251 Eu 0.96884 0.25924 0.4267 0.0
C252 C 0.9277 0.25876 0.32087 0.0
C253 C 0.90395 0.23149 0.33234 0.0
C254 C 0.87901 0.21874 0.30363 0.0
C255 C 0.87776 0.23306 0.26319 0.0
C256 C 0.90472 0.25701 0.25066 0.0
C257 C 0.92933 0.26995 0.27945 0.0
C258 C 0.96824 0.2994 0.49462 0.0
C259 C 0.91858 0.23304 0.50451 0.0
O260 O 1.00347 0.18731 0.51701 0.0
O261 O 1.05269 0.19932 0.48522 0.0
O262 O 1.02121 0.19646 0.40179 0.0
O263 O 0.96906 0.19747 0.41424 0.0
O264 O 1.05279 0.2674 0.45859 0.0
O265 O 1.01838 0.30199 0.42107 0.0
O266 O 0.98005 0.26416 0.36025 0.0
O267 O 0.93132 0.28626 0.38628 0.0
O268 O 0.94163 0.29666 0.46888 0.0
O269 O 0.99563 0.28167 0.48357 0.0
O270 O 0.91586 0.24567 0.46559 0.0
O271 O 0.95247 0.22347 0.51279 0.0
H272 H 1.07883 0.13749 0.55933 0.0
H273 H 0.11078 0.14817 0.62457 0.0
H274 H 1.06893 0.25537 0.62903 0.0
H275 H 1.03751 0.24452 0.56307 0.0
H276 H 0.90302 0.22193 0.3642 0.0
H277 H 0.85874 0.20021 0.31407 0.0
H278 H 0.90449 0.2689 0.21989 0.0
H279 H 0.94796 0.29052 0.27003 0.0
C280 C 0.2899 0.78491 0.26682 0.0
Eu281 Eu 0.24885 0.75042 0.21473 0.0
C282 C 0.28317 0.80312 0.3064 0.0
C283 C 0.31007 0.8236 0.32472 0.0
C284 C 0.30354 0.84203 0.3617 0.0
C285 C 0.26994 0.84023 0.38102 0.0
C286 C 0.24287 0.81988 0.36224 0.0
C287 C 0.24946 0.80142 0.32516 0.0
C288 C 0.28898 0.73911 0.13694 0.0
C289 C 0.174 0.79756 0.1896 0.0
C290 C 0.17655 0.69555 0.11272 0.0
Eu291 Eu 0.21174 0.71528 0.17822 0.0
C292 C 0.13776 0.69525 0.10798 0.0
C293 C 0.11601 0.6964 0.14363 0.0
C294 C 1.07938 0.69139 0.14025 0.0
C295 C 1.06394 0.68608 0.10102 0.0
C296 C 1.08538 0.68812 0.06507 0.0
C297 C 0.12217 0.69247 0.06857 0.0
C298 C 0.17643 0.71616 0.25008 0.0
C299 C 0.24069 0.66459 0.25475 0.0
O300 O 0.28612 0.75038 0.26701 0.0
O301 O 0.27511 0.79946 0.2344 0.0
O302 O 0.27808 0.76903 0.15277 0.0
O303 O 0.27271 0.71609 0.16072 0.0
O304 O 0.20612 0.79971 0.20812 0.0
O305 O 0.16947 0.76466 0.17405 0.0
O306 O 0.18889 0.67304 0.14013 0.0
O307 O 0.19104 0.7271 0.11612 0.0
O308 O 0.17824 0.68887 0.22548 0.0
O309 O 0.19281 0.74338 0.23605 0.0
O310 O 0.22377 0.66259 0.21807 0.0
O311 O 0.25354 0.69792 0.26114 0.0
H312 H 0.33606 0.82553 0.31028 0.0
H313 H 0.32475 0.85801 0.37499 0.0
H314 H 0.21684 0.8178 0.37649 0.0
H315 H 0.2283 0.78586 0.31106 0.0
H316 H 0.1275 0.69936 0.17433 0.0
H317 H 1.06345 0.68944 0.1683 0.0
H318 H 1.07408 0.68334 0.03447 0.0
H319 H 0.13851 0.69196 0.04076 0.0
C320 C 0.9439 0.77884 0.67843 0.0
Eu321 Eu 0.96692 0.7606 0.60547 0.0
C322 C 0.9186 0.76134 0.70706 0.0
C323 C 0.88216 0.76089 0.69774 0.0
C324 C 0.8578 0.74764 0.72636 0.0
C325 C 0.86912 0.73448 0.76533 0.0
C326 C 0.90596 0.73138 0.77265 0.0
C327 C 0.93047 0.74508 0.74395 0.0
C328 C 0.96693 0.79992 0.5369 0.0
C329 C 0.91661 0.73329 0.52797 0.0
C330 C 1.03619 0.68616 0.51357 0.0
Eu331 Eu 1.00201 0.72571 0.56692 0.0
C332 C 1.055 0.6937 0.47433 0.0
C333 C 1.04498 0.67559 0.438 0.0
C334 C 1.0627 0.6821 0.40059 0.0
C335 C 1.09115 0.70654 0.39893 0.0
C336 C 1.10051 0.72543 0.43514 0.0
C337 C 1.08251 0.71917 0.47249 0.0
C338 C 0.98976 0.68316 0.64282 0.0
C339 C 1.0493 0.79951 0.59427 0.0
O340 O 0.97445 0.76289 0.67298 0.0
O341 O 0.93061 0.79118 0.64371 0.0
O342 O 0.93989 0.79706 0.56192 0.0
O343 O 0.99428 0.78261 0.54889 0.0
O344 O 0.91403 0.74639 0.56668 0.0
O345 O 0.95045 0.72361 0.51969 0.0
O346 O 1.00178 0.69013 0.5129 0.0
O347 O 1.05044 0.69887 0.54749 0.0
O348 O 1.01966 0.69636 0.62938 0.0
O349 O 0.96727 0.69879 0.61792 0.0
O350 O 1.05096 0.76851 0.57336 0.0
O351 O 1.01698 0.8027 0.61199 0.0
H352 H 0.87203 0.77238 0.66913 0.0
H353 H 0.82993 0.75094 0.71896 0.0
H354 H 0.91584 0.72058 0.80171 0.0
H355 H 0.95857 0.74418 0.75135 0.0
H356 H 1.02353 0.65624 0.4386 0.0
H357 H 1.05434 0.66765 0.37301 0.0
H358 H 0.12246 0.74419 0.435 0.0
H359 H 1.09053 0.73395 0.49998 0.0
C360 C 0.17611 0.1982 0.92036 0.0
Eu361 Eu 0.21038 0.21659 0.85379 0.0
C362 C 0.13746 0.1989 0.9262 0.0
C363 C 0.11496 0.20059 0.8912 0.0
C364 C 1.07829 0.19664 0.89568 0.0
C365 C 1.06359 0.19171 0.93534 0.0
C366 C 1.08589 0.19328 0.97065 0.0
C367 C 0.12269 0.19666 0.96607 0.0
C368 C 0.17363 0.21689 0.78299 0.0
C369 C 0.23846 0.16565 0.77735 0.0
C370 C 0.28871 0.28553 0.76596 0.0
Eu371 Eu 0.24703 0.25129 0.81752 0.0
C372 C 0.28246 0.30347 0.72614 0.0
C373 C 0.31013 0.3221 0.70682 0.0
C374 C 0.30399 0.34019 0.66951 0.0
C375 C 0.27003 0.33988 0.65094 0.0
C376 C 0.24224 0.32132 0.67068 0.0
C377 C 0.24845 0.3032 0.70803 0.0
C378 C 0.28727 0.23998 0.89531 0.0
C379 C 0.17241 0.29863 0.84206 0.0
O380 O 0.18731 0.17517 0.89283 0.0
O381 O 0.19125 0.22939 0.91626 0.0
O382 O 0.1757 0.18991 0.80804 0.0
O383 O 0.19103 0.2441 0.79554 0.0
O384 O 0.22195 0.16366 0.81423 0.0
O385 O 0.25123 0.19895 0.77084 0.0
O386 O 0.28492 0.25102 0.76591 0.0
O387 O 0.27342 0.30024 0.79795 0.0
O388 O 0.27575 0.26986 0.87999 0.0
O389 O 0.27134 0.21703 0.8711 0.0
O390 O 0.2045 0.30072 0.82359 0.0
O391 O 0.16797 0.26582 0.85778 0.0
H392 H 0.12583 0.20311 0.86016 0.0
H393 H 1.0617 0.1951 0.86809 0.0
H394 H 1.07522 0.1888 1.00159 0.0
H395 H 0.13963 0.19579 0.99339 0.0
H396 H 0.33641 0.32286 0.72072 0.0
H397 H 0.3258 0.35476 0.65541 0.0
H398 H 0.2159 0.3204 0.65699 0.0
H399 H 0.22678 0.28903 0.72292 0.0
C400 C 0.77781 0.42805 0.16932 0.0
Eu401 Eu 0.75502 0.46075 0.10342 0.0
C402 C 0.78194 0.38941 0.17656 0.0
C403 C 0.8146 0.3731 0.16779 0.0
C404 C 0.81846 0.33644 0.17181 0.0
C405 C 0.78988 0.31503 0.18518 0.0
C406 C 0.75704 0.33119 0.19379 0.0
C407 C 0.75305 0.36807 0.18935 0.0
C408 C 0.75381 0.42272 0.03297 0.0
C409 C 0.80564 0.48727 0.02463 0.0
C410 C 0.68735 0.53887 1.01199 0.0
Eu411 Eu 0.72079 0.4973 0.06411 0.0
C412 C 0.67009 0.53304 0.97168 0.0
C413 C 0.64942 0.56004 0.95407 0.0
C414 C 0.6319 0.55422 0.9163 0.0
C415 C 0.63483 0.52125 0.89559 0.0
C416 C 0.65558 0.49418 0.91354 0.0
C417 C 0.67311 0.50008 0.95134 0.0
C418 C 0.73112 0.53808 0.14196 0.0
C419 C 0.67278 0.42316 0.09153 0.0
O420 O 0.799 0.44197 0.14151 0.0
O421 O 0.74531 0.43995 0.16595 0.0
O422 O 0.78045 0.42404 0.05844 0.0
O423 O 0.72722 0.44055 0.04553 0.0
O424 O 0.80733 0.47119 0.06187 0.0
O425 O 0.77283 0.50057 0.01777 0.0
O426 O 0.72181 0.53518 1.01256 0.0
O427 O 0.6721 0.52326 0.04352 0.0
O428 O 0.70144 0.52648 0.12597 0.0
O429 O 0.75427 0.5219 0.11855 0.0
O430 O 0.67345 0.45187 0.06624 0.0
O431 O 0.70316 0.42194 0.11355 0.0
H432 H 0.83739 0.38871 0.15798 0.0
H433 H 0.84454 0.32514 0.16638 0.0
H434 H 0.73479 0.31543 0.20485 0.0
H435 H 0.72742 0.37983 0.19615 0.0
H436 H 0.64659 0.5855 0.96968 0.0
H437 H 0.61562 0.57538 0.90361 0.0
H438 H 0.65856 0.46865 0.89818 0.0
H439 H 0.68895 0.47894 0.96483 0.0
C440 C 0.53168 1.02285 0.42693 0.0
Eu441 Eu 0.51115 1.00462 0.35275 0.0
C442 C 0.51495 1.03221 0.46702 0.0
C443 C 0.517 1.06735 0.48145 0.0
C444 C 0.5094 1.07509 0.52294 0.0
C445 C 0.50034 1.04761 0.55102 0.0
C446 C 0.49356 1.01338 0.53514 0.0
C447 C 0.50092 1.00567 0.49342 0.0
C448 C 0.5512 1.00567 0.28489 0.0
C449 C 0.48545 1.0549 0.27499 0.0
C450 C 0.43653 0.93416 0.26396 0.0
Eu451 Eu 0.47694 0.96962 0.31596 0.0
C452 C 0.44295 0.91612 0.22422 0.0
C453 C 0.41567 0.89624 0.20576 0.0
C454 C 0.42176 0.87812 0.16847 0.0
C455 C 0.45529 0.87965 0.14898 0.0
C456 C 0.48274 0.8994 0.16789 0.0
C457 C 0.47659 0.91755 0.20528 0.0
C458 C 0.4348 0.98121 0.39247 0.0
C459 C 0.5516 0.92356 0.3424 0.0
O460 O 0.52817 0.98979 0.41477 0.0
O461 O 0.52903 1.04571 0.3963 0.0
O462 O 0.54866 1.03211 0.31091 0.0
O463 O 0.53319 0.97817 0.29538 0.0
O464 O 0.50074 1.05741 0.31255 0.0
O465 O 0.47337 1.02135 0.26836 0.0
O466 O 0.43961 0.96874 0.26375 0.0
O467 O 0.45207 0.91991 0.29608 0.0
O468 O 0.44842 0.95152 0.37902 0.0
O469 O 0.44982 1.00381 0.36721 0.0
O470 O 0.51983 0.92082 0.32335 0.0
O471 O 0.55517 0.95661 0.35806 0.0
H472 H 0.52728 1.08838 0.46164 0.0
H473 H 0.515 1.10185 0.53384 0.0
H474 H 0.48619 0.9918 0.55587 0.0
H475 H 0.49824 0.97835 0.48293 0.0
H476 H 0.38971 0.89457 0.22032 0.0
H477 H 0.40025 0.86261 0.15507 0.0
H478 H 0.50873 0.90124 0.1535 0.0
H479 H 0.49803 0.93268 0.21946 0.0
C480 C 0.18925 0.53524 0.51862 0.0
Eu481 Eu 0.22281 0.4947 0.46556 0.0
C482 C 0.17032 0.52829 0.55804 0.0
C483 C 0.18006 0.54706 0.59406 0.0
C484 C 0.16235 0.54089 0.63163 0.0
C485 C 0.13421 0.51609 0.63384 0.0
C486 C 0.12499 0.49679 0.59783 0.0
C487 C 0.14295 0.50271 0.56036 0.0
C488 C 0.23447 0.53561 0.38824 0.0
C489 C 0.17464 0.42053 0.43978 0.0
C490 C 0.27438 0.42443 0.36145 0.0
Eu491 Eu 0.25704 0.45804 0.42881 0.0
C492 C 0.27151 0.38598 0.35412 0.0
C493 C 0.26906 0.36253 0.3882 0.0
C494 C 0.27003 0.32576 0.38201 0.0
C495 C 0.27302 0.31197 0.34157 0.0
C496 C 0.27229 0.33552 0.30732 0.0
C497 C 0.27169 0.37234 0.3136 0.0
C498 C 0.25608 0.42088 0.4994 0.0
C499 C 0.30828 0.48562 0.50536 0.0
O500 O 0.2236 0.53081 0.51919 0.0
O501 O 0.17482 0.52242 0.48488 0.0
O502 O 0.20454 0.52429 0.40366 0.0
O503 O 0.2573 0.51929 0.41213 0.0
O504 O 0.17293 0.45252 0.4587 0.0
O505 O 0.20737 0.41595 0.42419 0.0
O506 O 0.2976 0.43382 0.38975 0.0
O507 O 0.24407 0.44102 0.36553 0.0
O508 O 0.28309 0.42275 0.47442 0.0
O509 O 0.22915 0.43833 0.48653 0.0
O510 O 0.31008 0.46927 0.46832 0.0
O511 O 0.27521 0.49857 0.51197 0.0
H512 H 0.20135 0.56657 0.59312 0.0
H513 H 0.17066 0.55572 0.65895 0.0
H514 H 0.10326 0.47779 0.59824 0.0
H515 H 0.13509 0.48748 0.53316 0.0
H516 H 0.26811 0.37261 0.41978 0.0
H517 H 0.27085 0.30823 0.40883 0.0
H518 H 0.27527 0.32564 0.27577 0.0
H519 H 0.273 0.39008 0.28699 0.0
C520 C 0.93671 0.93321 0.26844 0.0
Eu521 Eu 0.97784 0.96776 0.21653 0.0
C522 C 0.94247 0.91537 0.3084 0.0
C523 C 0.91496 0.89547 0.32628 0.0
C524 C 0.92043 0.87779 0.36399 0.0
C525 C 0.95355 0.87979 0.38441 0.0
C526 C 0.9812 0.89962 0.36609 0.0
C527 C 0.97567 0.91732 0.32832 0.0
C528 C 0.93594 0.98031 0.14019 0.0
C529 C 1.05189 0.92071 0.18944 0.0
C530 C 1.03183 1.02591 0.10587 0.0
Eu531 Eu 1.01322 1.00269 0.17865 0.0
C532 C 1.01436 1.05097 0.07699 0.0
C533 C 1.01335 1.08747 0.08633 0.0
C534 C 1.00013 0.11165 0.05752 0.0
C535 C 0.98754 1.10011 0.01834 0.0
C536 C 0.98498 1.06315 1.01095 0.0
C537 C 0.99867 1.03882 0.03984 0.0
C538 C 1.05187 1.00317 0.24768 0.0
C539 C 0.98576 1.05311 0.25607 0.0
O540 O 0.94043 0.96773 0.26853 0.0
O541 O 0.95221 0.91849 0.23658 0.0
O542 O 0.94876 0.95028 0.15372 0.0
O543 O 0.95166 1.00277 0.16518 0.0
O544 O 1.02072 0.91885 0.20998 0.0
O545 O 1.05531 0.95315 0.17205 0.0
O546 O 1.01613 0.99507 0.11119 0.0
O547 O 1.04376 1.03944 0.14071 0.0
O548 O 1.04934 1.03001 0.22225 0.0
O549 O 1.03451 0.9756 0.23584 0.0
O550 O 1.00019 1.05547 0.21801 0.0
O551 O 0.97475 1.01945 0.26379 0.0
H552 H 0.88931 0.89346 0.31099 0.0
H553 H 0.8988 0.86221 0.37695 0.0
H554 H 1.00689 0.90185 0.38121 0.0
H555 H 0.99722 0.93254 0.31461 0.0
H556 H 1.02438 1.09779 0.11513 0.0
H557 H 1.00299 0.13963 0.06499 0.0
H558 H 0.97462 1.05307 0.98172 0.0
H559 H 0.9982 1.01064 0.03241 0.0
C560 C 0.53778 0.68513 0.01937 0.0
Eu561 Eu 0.50389 0.72502 0.96597 0.0
C562 C 0.55718 0.69359 0.05785 0.0
C563 C 0.55403 0.67123 0.09262 0.0
C564 C 0.57156 0.6798 0.12973 0.0
C565 C 0.59266 0.7107 0.13231 0.0
C566 C 0.59563 0.73313 0.09751 0.0
C567 C 0.5778 0.72481 0.06067 0.0
C568 C 0.49222 0.68315 0.88949 0.0
C569 C 0.55123 0.79934 0.93861 0.0
C570 C 0.44481 0.77997 0.85528 0.0
Eu571 Eu 0.46911 0.76078 0.92741 0.0
C572 C 0.41802 0.7634 0.82771 0.0
C573 C 0.38178 0.76557 0.83772 0.0
C574 C 0.35617 0.75265 0.81038 0.0
C575 C 0.36596 0.73725 0.772 0.0
C576 C 0.4024 0.73203 0.76383 0.0
C577 C 0.4282 0.7453 0.79129 0.0
C578 C 0.46946 0.79901 0.99697 0.0
C579 C 0.41831 0.7329 1.0045 0.0
O580 O 0.50355 0.69014 0.0206 0.0
O581 O 0.55184 0.69704 0.98499 0.0
O582 O 0.52208 0.69573 0.90384 0.0
O583 O 0.46943 0.69897 0.91391 0.0
O584 O 0.55268 0.76835 0.95973 0.0
O585 O 0.51908 0.80258 0.92056 0.0
O586 O 0.47491 0.76297 0.85963 0.0
O587 O 0.433 0.79275 0.89048 0.0
O588 O 0.44236 0.79648 0.97197 0.0
O589 O 0.49675 0.7819 0.98438 0.0
O590 O 0.41631 0.74784 0.96667 0.0
O591 O 0.45167 0.72136 1.01222 0.0
H592 H 0.53796 0.64724 0.09108 0.0
H593 H 0.56911 0.66202 0.15619 0.0
H594 H 0.61148 0.75726 0.09896 0.0
H595 H 0.58012 0.74285 0.03446 0.0
H596 H 0.37288 0.7787 0.86591 0.0
H597 H 0.32866 0.75777 0.81817 0.0
H598 H 0.41102 0.71971 0.73505 0.0
H599 H 0.45605 0.7425 0.78331 0.0
C600 C 0.78695 0.29748 0.75985 0.0
Eu601 Eu 0.75102 0.25084 0.71635 0.0
C602 C 0.77967 0.31698 0.79836 0.0
C603 C 0.80565 0.33954 0.81511 0.0
C604 C 0.79955 0.35687 0.8529 0.0
C605 C 0.76738 0.35174 0.87459 0.0
C606 C 0.74098 0.32978 0.85704 0.0
C607 C 0.74712 0.31247 0.81916 0.0
C608 C 0.79312 0.23291 0.64236 0.0
C609 C 0.67611 0.30023 0.68662 0.0
C610 C 0.68385 0.1709 0.62776 0.0
Eu611 Eu 0.70972 0.21946 0.67693 0.0
C612 C 0.65606 0.14448 0.63644 0.0
C613 C 0.63249 0.14953 0.66995 0.0
C614 C 0.60359 0.12663 0.67561 0.0
C615 C 0.59838 1.0979 0.64835 0.0
C616 C 0.62362 1.09144 0.61675 0.0
C617 C 0.65219 0.11468 0.61075 0.0
C618 C 0.67235 0.23323 0.74696 0.0
C619 C 0.73956 0.16775 0.75755 0.0
O620 O 0.79054 0.26314 0.76399 0.0
O621 O 0.76707 0.30583 0.72804 0.0
O622 O 0.8004 0.22694 0.68127 0.0
O623 O 0.7603 0.24468 0.64424 0.0
O624 O 0.70388 0.29724 0.7134 0.0
O625 O 0.67476 0.27166 0.66164 0.0
O626 O 0.71348 0.16677 0.64833 0.0
O627 O 0.67324 0.20396 0.6274 0.0
O628 O 0.65876 0.23303 0.70994 0.0
O629 O 0.70497 0.22552 0.74633 0.0
O630 O 0.71873 0.16887 0.72348 0.0
O631 O 0.75675 0.1991 0.76264 0.0
H632 H 0.83079 0.34342 0.79921 0.0
H633 H 0.82013 0.37415 0.86532 0.0
H634 H 0.71608 0.32515 0.87314 0.0
H635 H 0.72676 0.29511 0.80638 0.0
H636 H 0.63553 0.17201 0.69072 0.0
H637 H 0.58445 0.13229 0.69995 0.0
H638 H 0.6199 1.06987 0.59469 0.0
H639 H 0.67035 0.11019 0.58508 0.0
C640 C 0.59687 0.34839 0.1293 0.0
C641 C 0.58215 0.33096 0.09283 0.0
H642 H 0.63399 0.38623 0.15887 0.0
C643 C 0.59881 0.34582 0.05599 0.0
H644 H 0.58691 0.33998 0.15939 0.0
C645 C 0.6259 0.37467 0.0556 0.0
C646 C 0.64114 0.3916 0.09209 0.0
H647 H 0.59031 0.33539 0.02611 0.0
H648 H 0.63558 0.38336 0.02549 0.0
C649 C 0.62508 0.37618 0.12899 0.0
C650 C 0.64905 0.8704 0.34142 0.0
C651 C 0.64273 0.8324 0.3445 0.0
H652 H 0.62993 0.92578 0.33978 0.0
C653 C 0.60472 0.82619 0.34677 0.0
H654 H 0.67644 0.87919 0.33945 0.0
C655 C 0.5768 0.854 0.34538 0.0
C656 C 0.58308 0.89202 0.34331 0.0
H657 H 0.59589 0.79877 0.34898 0.0
H658 H 0.54941 0.84514 0.34669 0.0
C659 C 0.62113 0.89834 0.34168 0.0
C660 C 0.10304 0.89691 0.5936 0.0
C661 C 0.14097 0.89043 0.59272 0.0
H662 H 1.04766 0.87792 0.59615 0.0
C663 C 0.147 0.85232 0.5926 0.0
H664 H 1.09443 0.92441 0.59377 0.0
C665 C 0.11894 0.82446 0.59248 0.0
C666 C 1.08104 0.8309 0.59427 0.0
H667 H 0.17435 0.8434 0.59182 0.0
H668 H 0.12755 0.79697 0.59155 0.0
C669 C 1.075 0.86902 0.59511 0.0
C670 C 1.07522 0.35171 0.84145 0.0
C671 C 1.08147 0.3898 0.84222 0.0
H672 H 1.0944 0.29639 0.84221 0.0
C673 C 0.11948 0.39625 0.84285 0.0
H674 H 1.04783 0.34278 0.84085 0.0
C675 C 0.14745 0.36843 0.84205 0.0
C676 C 0.14118 0.33035 0.84219 0.0
H677 H 0.12824 0.42375 0.8432 0.0
H678 H 0.17484 0.37736 0.84196 0.0
C679 C 0.10316 0.3239 0.84226 0.0
C680 C 0.64873 0.85261 0.94002 0.0
C681 C 0.6425 0.89069 0.93973 0.0
H682 H 0.62959 0.79715 0.94136 0.0
C683 C 0.60454 0.89697 0.93892 0.0
H684 H 0.67613 0.84384 0.94076 0.0
C685 C 0.57665 0.86891 0.93761 0.0
C686 C 0.58289 0.83082 0.93862 0.0
H687 H 0.59578 0.92442 0.93863 0.0
H688 H 0.54927 0.87766 0.93655 0.0
C689 C 0.62083 0.82459 0.94036 0.0
C690 C 0.60261 0.37799 0.65163 0.0
C691 C 0.58444 0.39102 0.6884 0.0
H692 H 0.6409 0.34233 0.62095 0.0
C693 C 0.5986 0.3728 0.72462 0.0
H694 H 0.59479 0.38922 0.62195 0.0
C695 C 0.62741 0.3458 0.7242 0.0
C696 C 0.64506 0.33226 0.68734 0.0
H697 H 0.58759 0.3799 0.75465 0.0
H698 H 0.6354 0.33474 0.75392 0.0
C699 C 0.63036 0.34991 0.65105 0.0
C700 C 0.12057 0.32352 0.43892 0.0
C701 C 1.08265 0.33 0.43809 0.0
H702 H 0.17598 0.34242 0.43858 0.0
C703 C 1.07661 0.36812 0.43794 0.0
H704 H 0.12917 0.29602 0.43922 0.0
C705 C 0.10469 0.39598 0.4392 0.0
C706 C 0.14262 0.38946 0.43912 0.0
H707 H 1.04927 0.37704 0.43763 0.0
H708 H 1.09611 0.42348 0.43963 0.0
C709 C 0.14863 0.35135 0.43856 0.0
C710 C 0.14915 0.86745 0.18886 0.0
C711 C 0.14281 0.82937 0.18932 0.0
H712 H 0.13007 0.92281 0.18712 0.0
C713 C 0.10477 0.82304 0.18973 0.0
H714 H 0.17657 0.87631 0.18854 0.0
C715 C 1.07689 0.85094 0.19043 0.0
C716 C 1.08321 0.88901 0.18906 0.0
H717 H 1.09594 0.79556 0.19027 0.0
H718 H 1.04949 0.84208 0.19146 0.0
C719 C 0.12124 0.89534 0.18795 0.0
C720 C 0.32635 0.26173 0.96267 0.0
C721 C 0.32018 0.2363 0.92962 0.0
H722 H 0.35681 0.28112 0.01647 0.0
C723 C 0.34772 0.20952 0.9303 0.0
H724 H 0.30777 0.28358 0.96551 0.0
C725 C 0.37789 0.20878 0.96003 0.0
C726 C 0.38352 0.23396 0.99361 0.0
H727 H 0.34665 0.1889 0.90673 0.0
H728 H 0.39709 0.18755 0.95658 0.0
C729 C 0.35568 0.26029 0.99314 0.0
C730 C 0.76353 0.59663 0.17968 0.0
C731 C 0.73468 0.57125 0.17605 0.0
H732 H 0.78754 0.64428 0.20843 0.0
C733 C 0.70739 0.57968 0.20606 0.0
H734 H 0.7858 0.59366 0.15862 0.0
C735 C 0.70885 0.60914 0.23639 0.0
C736 C 0.73728 0.63485 0.23983 0.0
H737 H 0.68399 0.56282 0.20658 0.0
H738 H 0.68648 0.61203 0.25732 0.0
C739 C 0.76451 0.62692 0.20936 0.0
C740 C 0.37417 1.01133 0.4276 0.0
C741 C 0.40201 0.9848 0.42694 0.0
H742 H 0.32487 1.03316 0.45424 0.0
C743 C 0.39644 0.95974 0.46045 0.0
H744 H 0.37484 1.03173 0.40378 0.0
C745 C 0.36734 0.96118 0.49117 0.0
C746 C 0.33919 0.98721 0.49166 0.0
H747 H 0.41534 0.93819 0.46349 0.0
H748 H 0.36671 0.94062 0.51482 0.0
C749 C 0.34427 1.01212 0.4577 0.0
C750 C 1.01058 0.64501 0.71105 0.0
C751 C 0.98591 0.65025 0.67711 0.0
H752 H 1.02929 0.6154 0.76566 0.0
C753 C 0.95983 0.62187 0.67704 0.0
H754 H 1.03181 0.66432 0.71456 0.0
C755 C 0.95909 0.59174 0.7069 0.0
C756 C 0.98355 0.58702 0.7413 0.0
H757 H 0.93981 0.62224 0.65278 0.0
H758 H 0.93844 0.57187 0.70288 0.0
C759 C 1.0091 0.61574 0.74159 0.0
C760 C 0.84661 1.01294 0.07371 0.0
C761 C 0.84072 0.98741 0.04054 0.0
H762 H 0.8778 1.03276 0.12713 0.0
C763 C 0.86793 0.96044 0.04196 0.0
H764 H 0.82794 1.03471 0.07642 0.0
C765 C 0.89691 0.95872 0.07283 0.0
C766 C 0.90333 0.98438 0.10554 0.0
H767 H 0.86659 0.93934 0.01898 0.0
H768 H 0.91502 0.93643 0.07058 0.0
C769 C 0.87644 1.01184 0.10395 0.0
C770 C 0.46197 0.62269 0.85344 0.0
C771 C 0.48869 0.65044 0.85482 0.0
H772 H 0.44028 0.57331 0.82625 0.0
C773 C 0.51434 0.64469 0.82203 0.0
H774 H 0.44117 0.62344 0.87672 0.0
C775 C 0.51322 0.61555 0.79124 0.0
C776 C 0.48699 0.58747 0.7901 0.0
H777 H 0.53614 0.66348 0.81967 0.0
H778 H 0.53421 0.61477 0.76818 0.0
C779 C 0.46152 0.59269 0.82336 0.0
C780 C 0.82035 0.2445 0.56244 0.0
C781 C 0.82399 0.23323 0.60529 0.0
H782 H 0.84312 0.25363 0.50018 0.0
C783 C 0.86012 0.22173 0.6127 0.0
H784 H 0.79454 0.25394 0.55246 0.0
C785 C 0.88897 0.22143 0.58165 0.0
C786 C 0.88554 0.23259 0.53889 0.0
H787 H 0.86666 0.2126 0.64377 0.0
H788 H 0.91481 0.21223 0.59186 0.0
C789 C 0.8494 0.24424 0.53121 0.0
C790 C 0.26563 0.59563 0.35213 0.0
C791 C 0.23835 0.5684 0.35369 0.0
H792 H 0.28812 0.64461 0.32483 0.0
C793 C 0.21254 0.57475 0.32121 0.0
H794 H 0.2866 0.59441 0.37521 0.0
C795 C 0.21404 0.60388 0.2905 0.0
C796 C 0.24082 0.63145 0.28911 0.0
H797 H 0.19034 0.55641 0.319 0.0
H798 H 0.19292 0.60505 0.2676 0.0
C799 C 0.26646 0.62568 0.32211 0.0
C800 C 0.81813 0.74396 0.47036 0.0
C801 C 0.82176 0.73269 0.42752 0.0
H802 H 0.84104 0.75333 0.53256 0.0
C803 C 0.85794 0.72144 0.42003 0.0
H804 H 0.79229 0.75326 0.48037 0.0
C805 C 0.88686 0.72133 0.451 0.0
C806 C 0.88346 0.73252 0.49373 0.0
H807 H 0.86446 0.71235 0.38894 0.0
H808 H 0.91273 0.7123 0.44074 0.0
C809 C 0.84727 0.74394 0.50151 0.0
C810 C 0.26436 0.12651 0.7103 0.0
C811 C 0.23854 0.13246 0.74301 0.0
H812 H 0.28467 1.09505 0.65746 0.0
C813 C 0.21158 0.10508 0.74135 0.0
H814 H 0.28614 0.14529 0.70781 0.0
C815 C 0.21014 1.07588 0.71067 0.0
C816 C 0.23613 1.06934 0.67848 0.0
H817 H 0.19028 0.10647 0.76397 0.0
H818 H 0.18783 1.05768 0.71266 0.0
C819 C 0.26355 1.09643 0.6803 0.0
C820 C 0.84445 0.51249 0.95708 0.0
C821 C 0.83876 0.48707 0.99037 0.0
H822 H 0.87548 0.53235 0.90365 0.0
C823 C 0.86618 0.46031 0.98917 0.0
H824 H 0.8256 0.5341 0.95421 0.0
C825 C 0.89517 0.45869 0.95836 0.0
C826 C 0.90139 0.48428 0.92553 0.0
H827 H 0.86499 0.4393 1.01225 0.0
H828 H 0.91346 0.43656 0.96074 0.0
C829 C 0.87429 0.51151 0.92693 0.0
C830 C 0.51183 0.11586 0.23933 0.0
C831 C 0.48547 1.08788 0.2404 0.0
H832 H 0.53519 0.16355 0.21088 0.0
C833 C 0.46023 1.09306 0.20685 0.0
H834 H 0.53263 0.11516 0.26267 0.0
C835 C 0.46102 0.12293 0.1766 0.0
C836 C 0.48791 0.15055 0.17531 0.0
H837 H 0.43889 1.07381 0.20388 0.0
H838 H 0.44034 0.12371 0.15314 0.0
C839 C 0.51333 0.14484 0.20838 0.0
C840 C 0.36936 0.45935 0.54044 0.0
C841 C 0.34138 0.48557 0.53974 0.0
H842 H 0.41719 0.43618 0.56843 0.0
C843 C 0.34654 0.51057 0.5736 0.0
H844 H 0.36863 0.43871 0.51686 0.0
C845 C 0.37636 0.50969 0.60381 0.0
C846 C 0.404 0.48299 0.60473 0.0
H847 H 0.32726 0.53175 0.57688 0.0
H848 H 0.37713 0.53021 0.62752 0.0
C849 C 0.39838 0.45783 0.5713 0.0
C850 C 0.96161 0.12137 0.35415 0.0
C851 C 0.98786 0.1496 0.35447 0.0
H852 H 0.94014 1.07153 0.32792 0.0
C853 C 1.01276 0.14425 0.32083 0.0
H854 H 0.94137 0.12187 0.37812 0.0
C855 C 1.01138 0.115 0.29023 0.0
C856 C 0.98564 1.08644 0.29013 0.0
H857 H 1.03412 0.16346 0.31762 0.0
H858 H 1.03177 0.11453 0.26644 0.0
C859 C 0.96093 1.09128 0.32423 0.0
C860 C 0.3282 0.76102 0.06991 0.0
C861 C 0.32179 0.73533 0.10256 0.0
H862 H 0.35871 0.78058 0.01635 0.0
C863 C 0.34902 0.70822 0.10143 0.0
H864 H 0.30987 0.78311 0.06741 0.0
C865 C 0.37913 0.70742 0.07164 0.0
C866 C 0.38495 0.73289 0.03843 0.0
H867 H 0.34775 0.68736 0.12468 0.0
H868 H 0.39806 0.68591 0.0747 0.0
C869 C 0.35741 0.75953 0.03937 0.0
C870 C 0.76686 0.12609 0.8215 0.0
C871 C 0.73953 0.13407 0.79112 0.0
H872 H 0.78831 1.09277 0.8721 0.0
C873 C 0.71115 0.10833 0.79445 0.0
H874 H 0.78984 0.1435 0.82251 0.0
C875 C 0.70983 1.0788 0.82465 0.0
C876 C 0.73721 1.07031 0.8546 0.0
H877 H 0.6887 0.11127 0.77359 0.0
H878 H 0.68642 1.06194 0.82414 0.0
C879 C 0.76601 1.09573 0.85104 0.0
C880 C 0.64823 0.2258 0.86046 0.0
C881 C 0.61156 0.21888 0.85831 0.0
H882 H 0.69623 0.23563 0.82656 0.0
C883 C 0.59456 0.21862 0.8193 0.0
H884 H 0.66196 0.22591 0.89018 0.0
C885 C 0.61409 0.22466 0.78293 0.0
C886 C 0.65095 0.23046 0.7851 0.0
H887 H 0.56624 0.21362 0.81698 0.0
H888 H 0.60053 0.22379 0.75313 0.0
C889 C 0.6678 0.23131 0.82414 0.0
C890 C 0.78933 0.86686 0.08848 0.0
C891 C 0.76201 0.86926 0.11809 0.0
H892 H 0.80811 0.8819 0.0284 0.0
C893 C 0.73068 0.88776 0.10785 0.0
H894 H 0.81343 0.85215 0.09513 0.0
C895 C 0.72744 0.90476 0.06913 0.0
C896 C 0.75544 0.90321 0.04027 0.0
H897 H 0.70923 0.89002 0.13021 0.0
H898 H 0.70363 0.91986 0.06229 0.0
C899 C 0.78611 0.88366 0.05009 0.0
C900 C 1.09391 1.03646 0.29277 0.0
C901 C 1.07477 1.00496 0.28491 0.0
H902 H 0.12761 1.06524 0.33449 0.0
C903 C 1.0762 0.97705 0.31399 0.0
H904 H 1.09344 1.05846 0.2709 0.0
C905 C 1.09566 0.98116 0.351 0.0
C906 C 0.11387 1.01326 0.35934 0.0
H907 H 1.06165 0.95251 0.30864 0.0
H908 H 1.09555 0.95972 0.37359 0.0
C909 C 0.11328 1.04052 0.32943 0.0
C910 C 0.9944 0.32364 0.56085 0.0
C911 C 0.96662 0.32258 0.53161 0.0
H912 H 1.01182 0.3425 0.62064 0.0
C913 C 0.93552 0.34213 0.53926 0.0
H914 H 1.01865 0.30878 0.55564 0.0
C915 C 0.9317 0.36148 0.576 0.0
C916 C 0.95879 0.36158 0.60613 0.0
H917 H 0.91368 0.34194 0.51721 0.0
H918 H 0.90727 0.37611 0.581 0.0
C919 C 0.99052 0.34302 0.59789 0.0
C920 C 0.6013 0.98094 0.18676 0.0
C921 C 0.61515 1.01433 0.17473 0.0
H922 H 0.57003 0.95183 0.23136 0.0
C923 C 0.60853 1.04414 0.20003 0.0
H924 H 0.60623 0.95736 0.16819 0.0
C925 C 0.58848 1.04079 0.23625 0.0
C926 C 0.5742 1.00767 0.2479 0.0
H927 H 0.618 1.07039 0.19132 0.0
H928 H 0.58343 1.06449 0.25461 0.0
C929 C 0.58081 0.97767 0.223 0.0
C930 C 0.43294 0.36204 0.95429 0.0
C931 C 0.46019 0.36159 0.92441 0.0
H932 H 0.41439 0.34319 1.0131 0.0
C933 C 0.49162 0.34264 0.93304 0.0
H934 H 0.40873 0.37696 0.94895 0.0
C935 C 0.49507 0.32346 0.97028 0.0
C936 C 0.46715 0.32307 0.99932 0.0
H937 H 0.513 0.34167 0.91047 0.0
H938 H 0.51903 0.30818 0.97577 0.0
C939 C 0.43633 0.34292 0.99122 0.0
C940 C 0.13019 0.18493 0.7387 0.0
C941 C 0.15044 0.21581 0.74608 0.0
H942 H 1.0954 0.15701 0.69747 0.0
C943 C 0.14965 0.24367 0.71694 0.0
H944 H 0.13 0.16307 0.76076 0.0
C945 C 0.12994 0.23995 0.68008 0.0
C946 C 0.11081 0.20834 0.67211 0.0
H947 H 0.16491 0.26779 0.72207 0.0
H948 H 0.13062 0.26124 0.65729 0.0
C949 C 0.11053 0.1813 0.70226 0.0
C950 C 0.28642 0.87826 0.48824 0.0
C951 C 0.25579 0.89878 0.49508 0.0
H952 H 0.31443 0.84327 0.44754 0.0
C953 C 0.22841 0.89823 0.4653 0.0
H954 H 0.30792 0.87787 0.51075 0.0
C955 C 0.23241 0.87849 0.42843 0.0
C956 C 0.26382 0.85908 0.42103 0.0
H957 H 0.20449 0.9137 0.46994 0.0
H958 H 0.21151 0.87936 0.40521 0.0
C959 C 0.29033 0.8586 0.4518 0.0
C960 C 0.1206 0.67967 0.33703 0.0
C961 C 0.11249 0.71023 0.36032 0.0
H962 H 0.14692 0.65791 0.28423 0.0
C963 C 0.12583 0.7435 0.34708 0.0
H964 H 0.11167 0.65352 0.34688 0.0
C965 C 0.14677 0.74599 0.31103 0.0
C966 C 0.15437 0.71524 0.28783 0.0
H967 H 0.11992 0.76757 0.36436 0.0
H968 H 0.15682 0.77176 0.3013 0.0
C969 C 0.14109 0.68218 0.30119 0.0
C970 C 0.28986 0.35609 0.57929 0.0
C971 C 0.26414 0.35852 0.61079 0.0
H972 H 0.30714 0.37364 0.51949 0.0
C973 C 0.23378 0.37969 0.60402 0.0
H974 H 0.31311 0.33942 0.58314 0.0
C975 C 0.23011 0.39923 0.56701 0.0
C976 C 0.25674 0.39776 0.53643 0.0
H977 H 0.21356 0.38212 0.62788 0.0
H978 H 0.20718 0.41631 0.56296 0.0
C979 C 0.28626 0.37554 0.54266 0.0
C980 C 0.57832 0.47923 0.81046 0.0
C981 C 0.57695 0.50703 0.78123 0.0
H982 H 0.59761 0.46204 0.87005 0.0
C983 C 0.59621 0.53849 0.78877 0.0
H984 H 0.56362 0.45474 0.80536 0.0
C985 C 0.61567 0.54261 0.8254 0.0
C986 C 0.61619 0.51542 0.85544 0.0
H987 H 0.59567 0.56038 0.76676 0.0
H988 H 0.63006 0.56731 0.83037 0.0
C989 C 0.59785 0.48339 0.84733 0.0
C990 C 0.43805 0.84281 0.0413 0.0
C991 C 0.46841 0.82199 0.03417 0.0
H992 H 0.41057 0.87781 0.08253 0.0
C993 C 0.49575 0.82175 0.06401 0.0
H994 H 0.41656 0.84368 0.01879 0.0
C995 C 0.49207 0.8412 0.1011 0.0
C996 C 0.461 0.86105 0.10873 0.0
H997 H 0.51934 0.80573 0.05929 0.0
H998 H 0.51294 0.83974 0.12433 0.0
C999 C 0.43444 0.86218 0.07802 0.0
C1000 C 1.10029 0.47837 0.6857 0.0
C1001 C 0.11341 0.51188 0.67293 0.0
H1002 H 1.06962 0.44927 0.73098 0.0
C1003 C 0.10559 0.54199 0.69723 0.0
H1004 H 0.10605 0.45458 0.66784 0.0
C1005 C 1.0854 0.5388 0.73336 0.0
C1006 C 1.07216 0.5055 0.746 0.0
H1007 H 0.11438 0.56832 0.6879 0.0
H1008 H 1.0796 0.56273 0.75098 0.0
C1009 C 1.07965 0.47523 0.7219 0.0
C1010 C 0.99002 0.84204 0.43316 0.0
C1011 C 0.95879 0.86141 0.42483 0.0
H1012 H 1.01726 0.8072 0.47559 0.0
C1013 C 0.93178 0.86226 0.45498 0.0
H1014 H 1.01121 0.84076 0.41036 0.0
C1015 C 0.93519 0.8431 0.4919 0.0
C1016 C 0.96578 0.8228 0.49968 0.0
H1017 H 0.90774 0.8775 0.44986 0.0
H1018 H 0.91343 0.8437 0.51401 0.0
C1019 C 0.99348 0.82283 0.47037 0.0
C1020 C 0.64882 0.72693 0.16912 0.0
C1021 C 0.61231 0.71913 0.17087 0.0
H1022 H 0.69631 0.73795 0.20366 0.0
C1023 C 0.59495 0.71871 0.2096 0.0
H1024 H 0.66276 0.72723 0.13957 0.0
C1025 C 0.614 0.72536 0.24616 0.0
C1026 C 0.65076 0.73191 0.24447 0.0
H1027 H 0.56673 0.71308 0.21156 0.0
H1028 H 0.60019 0.72428 0.27577 0.0
C1029 C 0.66795 0.73303 0.20568 0.0
C1030 C 0.72641 0.40128 0.96605 0.0
C1031 C 0.75511 0.402 0.99406 0.0
H1032 H 0.70786 0.38496 0.90566 0.0
C1033 C 0.78689 0.38472 0.98339 0.0
H1034 H 0.70161 0.41435 0.97367 0.0
C1035 C 0.79043 0.36796 0.94496 0.0
C1036 C 0.76232 0.36816 0.91616 0.0
H1037 H 0.80947 0.38477 1.0044 0.0
H1038 H 0.81537 0.35499 0.93769 0.0
C1039 C 0.72998 0.38441 0.92731 0.0
C1040 C 0.29805 0.23363 0.27937 0.0
C1041 C 0.33437 0.23404 0.29024 0.0
H1042 H 0.24828 0.26032 0.28785 0.0
C1043 C 0.34378 0.2466 0.3301 0.0
H1044 H 0.28942 0.22203 0.25011 0.0
C1045 C 0.31978 0.26729 0.35255 0.0
C1046 C 0.28661 0.27555 0.33498 0.0
H1047 H 0.37109 0.24622 0.34077 0.0
H1048 H 0.32963 0.28177 0.37945 0.0
C1049 C 0.27431 0.25532 0.30111 0.0
C1050 C 0.52232 0.60883 0.39636 0.0
C1051 C 0.55205 0.58815 0.38544 0.0
H1052 H 0.47657 0.612 0.43562 0.0
C1053 C 0.55031 0.5511 0.39113 0.0
H1054 H 0.52216 0.63735 0.39123 0.0
C1055 C 0.52426 0.53669 0.41709 0.0
C1056 C 0.50031 0.55955 0.43756 0.0
H1057 H 0.57211 0.53426 0.38126 0.0
H1058 H 0.52743 0.50927 0.42689 0.0
C1059 C 0.496 0.59424 0.4219 0.0
C1060 C 0.27851 0.75575 0.72666 0.0
C1061 C 0.29053 0.77728 0.69381 0.0
H1062 H 0.29396 0.72126 0.77636 0.0
C1063 C 0.32424 0.77079 0.67672 0.0
H1064 H 0.25214 0.75947 0.73951 0.0
C1065 C 0.34865 0.75028 0.69882 0.0
C1066 C 0.33911 0.73606 0.73785 0.0
H1067 H 0.33388 0.7864 0.65062 0.0
H1068 H 0.37609 0.75118 0.68871 0.0
C1069 C 0.30266 0.73414 0.7479 0.0
C1070 C 1.00428 0.68162 0.06786 0.0
C1071 C 1.02871 0.66917 0.09742 0.0
H1072 H 0.96637 0.66692 0.02132 0.0
C1073 C 1.02528 0.63424 0.11244 0.0
H1074 H 1.00575 0.70885 0.05673 0.0
C1075 C 1.00427 0.60983 0.09078 0.0
C1076 C 0.9865 0.62056 0.05421 0.0
H1077 H 1.04334 0.62423 0.13604 0.0
H1078 H 1.00727 0.58198 0.09872 0.0
C1079 C 0.98208 0.6574 0.04734 0.0
C1080 C 0.78252 0.75289 0.81261 0.0
C1081 C 0.79493 0.77569 0.84408 0.0
H1082 H 0.7973 0.71674 0.76428 0.0
C1083 C 0.82911 0.77031 0.86044 0.0
H1084 H 0.7558 0.75578 0.80041 0.0
C1085 C 0.85333 0.74945 0.83856 0.0
C1086 C 0.84316 0.73379 0.80045 0.0
H1087 H 0.83906 0.78695 0.88553 0.0
H1088 H 0.88095 0.75114 0.84785 0.0
C1089 C 0.8065 0.73086 0.79173 0.0
C1090 C 0.79021 0.26796 0.23912 0.0
C1091 C 0.79735 0.27785 0.19778 0.0
H1092 H 0.81099 0.24298 0.29338 0.0
C1093 C 0.82192 0.25765 0.17473 0.0
H1094 H 0.77074 0.28229 0.25747 0.0
C1095 C 0.84536 0.23498 0.19554 0.0
C1096 C 0.84408 0.23279 0.23923 0.0
H1097 H 0.82691 0.26377 0.14224 0.0
H1098 H 0.86798 0.22451 0.17864 0.0
C1099 C 0.81347 0.24514 0.25982 0.0
C1100 C 1.02344 0.14101 0.92358 0.0
C1101 C 1.02814 0.17539 0.93991 0.0
H1102 H 1.00508 1.08865 0.93605 0.0
C1103 C 1.00508 0.18732 0.97123 0.0
H1104 H 1.04033 0.13142 0.89863 0.0
C1105 C 0.98337 0.16281 0.99195 0.0
C1106 C 0.98686 0.12615 0.98324 0.0
H1107 H 1.00747 0.21415 0.98344 0.0
H1108 H 0.96896 0.17173 0.01924 0.0
C1109 C 1.0029 0.11629 0.9453 0.0
C1110 C 0.56281 1.04284 0.63715 0.0
C1111 C 0.56371 1.07939 0.6462 0.0
H1112 H 0.53899 1.00256 0.59976 0.0
C1113 C 0.53309 1.09988 0.63895 0.0
H1114 H 0.58569 1.02626 0.64368 0.0
C1115 C 0.50591 1.0862 0.61388 0.0
C1116 C 0.50995 1.05245 0.59551 0.0
H1117 H 0.53267 0.12802 0.64655 0.0
H1118 H 0.48544 0.10419 0.60291 0.0
C1119 C 0.53569 1.02923 0.61208 0.0
loop_
_geom_bond_atom_site_label_1
_geom_bond_atom_site_label_2
_geom_bond_distance
_geom_bond_site_symmetry_2
_ccdc_geom_bond_type
C0 Eu1 2.835 . S
C0 C2 1.500 . S
C0 O20 1.257 . S
C0 O21 1.260 . S
Eu1 C0 2.835 . S
Eu1 O20 2.473 . S
Eu1 O21 2.480 . S
Eu1 O22 2.430 . S
Eu1 O23 2.670 1_554 S
Eu1 O24 2.394 . S
Eu1 O29 2.355 . S
Eu1 O31 2.374 . S
C2 C0 1.500 . S
C2 C3 1.377 . S
C2 C7 1.377 . S
C3 C2 1.377 . S
C3 C4 1.395 . S
C3 H32 0.931 . S
C4 C3 1.395 . S
C4 C5 1.383 . S
C4 H33 0.931 . S
C5 C4 1.383 . S
C5 C6 1.394 . S
C6 C5 1.394 . S
C6 C7 1.378 . S
C6 H34 0.931 . S
C7 C2 1.377 . S
C7 C6 1.378 . S
C7 H35 0.931 . S
C8 O22 1.259 1_556 S
C8 O23 1.270 . S
C9 O24 1.258 . S
C9 O25 1.245 1_554 S
C10 Eu11 2.835 . S
C10 C12 1.500 . S
C10 O26 1.257 . S
C10 O27 1.260 . S
Eu11 C10 2.835 . S
Eu11 O23 2.355 . S
Eu11 O25 2.374 . S
Eu11 O26 2.473 . S
Eu11 O27 2.480 . S
Eu11 O28 2.430 1_556 S
Eu11 O29 2.670 1_556 S
Eu11 O30 2.394 1_556 S
C12 C10 1.500 . S
C12 C13 1.377 . S
C12 C17 1.377 . S
C13 C12 1.377 . S
C13 C14 1.395 . S
C13 H36 0.931 . S
C14 C13 1.395 . S
C14 C15 1.383 . S
C14 H37 0.931 . S
C15 C14 1.383 . S
C15 C16 1.394 . S
C16 C15 1.394 . S
C16 C17 1.378 . S
C16 H38 0.931 . S
C17 C12 1.377 . S
C17 C16 1.378 . S
C17 H39 0.931 . S
C18 O28 1.259 . S
C18 O29 1.270 . S
C19 O30 1.251 . S
C19 O31 1.251 . S
O20 C0 1.257 . S
O20 Eu1 2.473 . S
O21 C0 1.260 . S
O21 Eu1 2.480 . S
O22 Eu1 2.430 . S
O22 C8 1.259 1_554 S
O23 Eu1 2.670 1_556 S
O23 C8 1.270 . S
O23 Eu11 2.355 . S
O24 Eu1 2.394 . S
O24 C9 1.258 . S
O25 C9 1.245 1_556 S
O25 Eu11 2.374 . S
O26 C10 1.257 . S
O26 Eu11 2.473 . S
O27 C10 1.260 . S
O27 Eu11 2.480 . S
O28 Eu11 2.430 1_554 S
O28 C18 1.259 . S
O29 Eu1 2.355 . S
O29 Eu11 2.670 1_554 S
O29 C18 1.270 . S
O30 Eu11 2.394 1_554 S
O30 C19 1.251 . S
O31 Eu1 2.374 . S
O31 C19 1.251 . S
H32 C3 0.931 . S
H33 C4 0.931 . S
H34 C6 0.931 . S
H35 C7 0.931 . S
H36 C13 0.931 . S
H37 C14 0.931 . S
H38 C16 0.931 . S
H39 C17 0.931 . S
C40 Eu41 2.835 . S
C40 C42 1.500 . S
C40 O60 1.257 . S
C40 O61 1.260 . S
Eu41 C40 2.835 . S
Eu41 O60 2.473 . S
Eu41 O61 2.480 . S
Eu41 O62 2.430 . S
Eu41 O63 2.670 . S
Eu41 O64 2.394 . S
Eu41 O69 2.355 . S
Eu41 O71 2.374 . S
C42 C40 1.500 . S
C42 C43 1.377 . S
C42 C47 1.377 . S
C43 C42 1.377 . S
C43 C44 1.395 . S
C43 H72 0.931 . S
C44 C43 1.395 . S
C44 C45 1.383 . S
C44 H73 0.931 . S
C45 C44 1.383 . S
C45 C46 1.394 . S
C46 C45 1.394 . S
C46 C47 1.378 . S
C46 H74 0.931 . S
C47 C42 1.377 . S
C47 C46 1.378 . S
C47 H75 0.931 . S
C48 O62 1.259 . S
C48 O63 1.270 . S
C49 O64 1.251 . S
C49 O65 1.251 . S
C50 Eu51 2.835 . S
C50 C52 1.500 . S
C50 O66 1.257 . S
C50 O67 1.260 . S
Eu51 C50 2.835 . S
Eu51 O63 2.355 . S
Eu51 O65 2.374 . S
Eu51 O66 2.473 . S
Eu51 O67 2.480 . S
Eu51 O68 2.430 . S
Eu51 O69 2.670 . S
Eu51 O70 2.394 . S
C52 C50 1.500 . S
C52 C53 1.377 . S
C52 C57 1.377 . S
C53 C52 1.377 . S
C53 C54 1.395 . S
C53 H76 0.931 . S
C54 C53 1.395 . S
C54 C55 1.383 . S
C54 H77 0.931 . S
C55 C54 1.383 . S
C55 C56 1.394 . S
C56 C55 1.394 . S
C56 C57 1.378 . S
C56 H78 0.931 . S
C57 C52 1.377 . S
C57 C56 1.378 . S
C57 H79 0.931 . S
C58 O68 1.259 . S
C58 O69 1.270 . S
C59 O70 1.251 . S
C59 O71 1.251 . S
O60 C40 1.257 . S
O60 Eu41 2.473 . S
O61 C40 1.260 . S
O61 Eu41 2.480 . S
O62 Eu41 2.430 . S
O62 C48 1.259 . S
O63 Eu41 2.670 . S
O63 C48 1.270 . S
O63 Eu51 2.355 . S
O64 Eu41 2.394 . S
O64 C49 1.251 . S
O65 C49 1.251 . S
O65 Eu51 2.374 . S
O66 C50 1.257 . S
O66 Eu51 2.473 . S
O67 C50 1.260 . S
O67 Eu51 2.480 . S
O68 Eu51 2.430 . S
O68 C58 1.259 . S
O69 Eu41 2.355 . S
O69 Eu51 2.670 . S
O69 C58 1.270 . S
O70 Eu51 2.394 . S
O70 C59 1.251 . S
O71 Eu41 2.374 . S
O71 C59 1.251 . S
H72 C43 0.931 . S
H73 C44 0.931 . S
H74 C46 0.931 . S
H75 C47 0.931 . S
H76 C53 0.931 . S
H77 C54 0.931 . S
H78 C56 0.931 . S
H79 C57 0.931 . S
C80 Eu81 2.835 . S
C80 C82 1.500 . S
C80 O100 1.257 . S
C80 O101 1.260 . S
Eu81 C80 2.835 . S
Eu81 O100 2.473 . S
Eu81 O101 2.480 . S
Eu81 O102 2.430 . S
Eu81 O103 2.670 . S
Eu81 O104 2.394 . S
Eu81 O109 2.355 . S
Eu81 O111 2.374 . S
C82 C80 1.500 . S
C82 C83 1.377 . S
C82 C87 1.377 . S
C83 C82 1.377 . S
C83 C84 1.395 . S
C83 H112 0.931 . S
C84 C83 1.395 . S
C84 C85 1.383 . S
C84 H113 0.931 . S
C85 C84 1.383 . S
C85 C86 1.394 . S
C86 C85 1.394 . S
C86 C87 1.378 . S
C86 H114 0.931 . S
C87 C82 1.377 . S
C87 C86 1.378 . S
C87 H115 0.931 . S
C88 O102 1.259 . S
C88 O103 1.270 . S
C89 O104 1.251 . S
C89 O105 1.251 . S
C90 Eu91 2.835 . S
C90 C92 1.500 . S
C90 O106 1.257 . S
C90 O107 1.260 . S
Eu91 C90 2.835 . S
Eu91 O103 2.355 . S
Eu91 O105 2.374 . S
Eu91 O106 2.473 . S
Eu91 O107 2.480 . S
Eu91 O108 2.430 . S
Eu91 O109 2.670 . S
Eu91 O110 2.394 . S
C92 C90 1.500 . S
C92 C93 1.377 . S
C92 C97 1.377 . S
C93 C92 1.377 . S
C93 C94 1.395 1_455 S
C93 H116 0.931 . S
C94 C93 1.395 1_655 S
C94 C95 1.383 . S
C94 H117 0.931 . S
C95 C94 1.383 . S
C95 C96 1.394 . S
C96 C95 1.394 . S
C96 C97 1.378 1_655 S
C96 H118 0.931 . S
C97 C92 1.377 . S
C97 C96 1.378 1_455 S
C97 H119 0.931 . S
C98 O108 1.259 . S
C98 O109 1.270 . S
C99 O110 1.251 . S
C99 O111 1.251 . S
O100 C80 1.257 . S
O100 Eu81 2.473 . S
O101 C80 1.260 . S
O101 Eu81 2.480 . S
O102 Eu81 2.430 . S
O102 C88 1.259 . S
O103 Eu81 2.670 . S
O103 C88 1.270 . S
O103 Eu91 2.355 . S
O104 Eu81 2.394 . S
O104 C89 1.251 . S
O105 C89 1.251 . S
O105 Eu91 2.374 . S
O106 C90 1.257 . S
O106 Eu91 2.473 . S
O107 C90 1.260 . S
O107 Eu91 2.480 . S
O108 Eu91 2.430 . S
O108 C98 1.259 . S
O109 Eu81 2.355 . S
O109 Eu91 2.670 . S
O109 C98 1.270 . S
O110 Eu91 2.394 . S
O110 C99 1.251 . S
O111 Eu81 2.374 . S
O111 C99 1.251 . S
H112 C83 0.931 . S
H113 C84 0.931 . S
H114 C86 0.931 . S
H115 C87 0.931 . S
H116 C93 0.931 . S
H117 C94 0.931 . S
H118 C96 0.931 . S
H119 C97 0.931 . S
C120 Eu121 2.835 . S
C120 C122 1.500 . S
C120 O140 1.257 . S
C120 O141 1.260 . S
Eu121 C120 2.835 . S
Eu121 O140 2.473 . S
Eu121 O141 2.480 . S
Eu121 O142 2.430 . S
Eu121 O143 2.670 . S
Eu121 O144 2.394 . S
Eu121 O149 2.355 . S
Eu121 O151 2.374 . S
C122 C120 1.500 . S
C122 C123 1.377 . S
C122 C127 1.377 . S
C123 C122 1.377 . S
C123 C124 1.395 . S
C123 H152 0.931 . S
C124 C123 1.395 . S
C124 C125 1.383 . S
C124 H153 0.931 . S
C125 C124 1.383 . S
C125 C126 1.394 . S
C126 C125 1.394 . S
C126 C127 1.378 . S
C126 H154 0.931 . S
C127 C122 1.377 . S
C127 C126 1.378 . S
C127 H155 0.931 . S
C128 O142 1.259 . S
C128 O143 1.270 . S
C129 O144 1.251 . S
C129 O145 1.251 . S
C130 Eu131 2.835 . S
C130 C132 1.500 . S
C130 O146 1.257 . S
C130 O147 1.260 . S
Eu131 C130 2.835 . S
Eu131 O143 2.355 . S
Eu131 O145 2.374 . S
Eu131 O146 2.473 . S
Eu131 O147 2.480 . S
Eu131 O148 2.430 . S
Eu131 O149 2.670 . S
Eu131 O150 2.394 . S
C132 C130 1.500 . S
C132 C133 1.377 . S
C132 C137 1.377 . S
C133 C132 1.377 . S
C133 C134 1.395 . S
C133 H156 0.931 . S
C134 C133 1.395 . S
C134 C135 1.383 . S
C134 H157 0.931 . S
C135 C134 1.383 . S
C135 C136 1.394 . S
C136 C135 1.394 . S
C136 C137 1.378 . S
C136 H158 0.931 . S
C137 C132 1.377 . S
C137 C136 1.378 . S
C137 H159 0.931 . S
C138 O148 1.259 . S
C138 O149 1.270 . S
C139 O150 1.251 . S
C139 O151 1.251 . S
O140 C120 1.257 . S
O140 Eu121 2.473 . S
O141 C120 1.260 . S
O141 Eu121 2.480 . S
O142 Eu121 2.430 . S
O142 C128 1.259 . S
O143 Eu121 2.670 . S
O143 C128 1.270 . S
O143 Eu131 2.355 . S
O144 Eu121 2.394 . S
O144 C129 1.251 . S
O145 C129 1.251 . S
O145 Eu131 2.374 . S
O146 C130 1.257 . S
O146 Eu131 2.473 . S
O147 C130 1.260 . S
O147 Eu131 2.480 . S
O148 Eu131 2.430 . S
O148 C138 1.259 . S
O149 Eu121 2.355 . S
O149 Eu131 2.670 . S
O149 C138 1.270 . S
O150 Eu131 2.394 . S
O150 C139 1.251 . S
O151 Eu121 2.374 . S
O151 C139 1.251 . S
H152 C123 0.931 . S
H153 C124 0.931 . S
H154 C126 0.931 . S
H155 C127 0.931 . S
H156 C133 0.931 . S
H157 C134 0.931 . S
H158 C136 0.931 . S
H159 C137 0.931 . S
C160 Eu161 2.835 . S
C160 C162 1.500 . S
C160 O180 1.257 . S
C160 O181 1.260 . S
Eu161 C160 2.835 . S
Eu161 O180 2.473 . S
Eu161 O181 2.480 . S
Eu161 O182 2.430 1_554 S
Eu161 O183 2.670 1_554 S
Eu161 O184 2.394 1_554 S
Eu161 O189 2.355 . S
Eu161 O191 2.374 . S
C162 C160 1.500 . S
C162 C163 1.377 . S
C162 C167 1.377 . S
C163 C162 1.377 . S
C163 C164 1.395 . S
C163 H192 0.931 . S
C164 C163 1.395 . S
C164 C165 1.383 . S
C164 H193 0.931 . S
C165 C164 1.383 . S
C165 C166 1.394 . S
C166 C165 1.394 . S
C166 C167 1.378 . S
C166 H194 0.931 . S
C167 C162 1.377 . S
C167 C166 1.378 . S
C167 H195 0.931 . S
C168 O182 1.259 . S
C168 O183 1.270 . S
C169 O184 1.251 . S
C169 O185 1.251 . S
C170 Eu171 2.835 . S
C170 C172 1.500 . S
C170 O186 1.257 . S
C170 O187 1.260 . S
Eu171 C170 2.835 . S
Eu171 O183 2.355 . S
Eu171 O185 2.374 . S
Eu171 O186 2.473 . S
Eu171 O187 2.480 . S
Eu171 O188 2.430 . S
Eu171 O189 2.670 1_556 S
Eu171 O190 2.394 . S
C172 C170 1.500 . S
C172 C173 1.377 . S
C172 C177 1.377 . S
C173 C172 1.377 . S
C173 C174 1.395 . S
C173 H196 0.931 . S
C174 C173 1.395 . S
C174 C175 1.383 . S
C174 H197 0.931 . S
C175 C174 1.383 . S
C175 C176 1.394 . S
C176 C175 1.394 . S
C176 C177 1.378 . S
C176 H198 0.931 . S
C177 C172 1.377 . S
C177 C176 1.378 . S
C177 H199 0.931 . S
C178 O188 1.259 1_554 S
C178 O189 1.270 . S
C179 O190 1.258 . S
C179 O191 1.245 1_556 S
O180 C160 1.257 . S
O180 Eu161 2.473 . S
O181 C160 1.260 . S
O181 Eu161 2.480 . S
O182 Eu161 2.430 1_556 S
O182 C168 1.259 . S
O183 Eu161 2.670 1_556 S
O183 C168 1.270 . S
O183 Eu171 2.355 . S
O184 Eu161 2.394 1_556 S
O184 C169 1.251 . S
O185 C169 1.251 . S
O185 Eu171 2.374 . S
O186 C170 1.257 . S
O186 Eu171 2.473 . S
O187 C170 1.260 . S
O187 Eu171 2.480 . S
O188 Eu171 2.430 . S
O188 C178 1.259 1_556 S
O189 Eu161 2.355 . S
O189 Eu171 2.670 1_554 S
O189 C178 1.270 . S
O190 Eu171 2.394 . S
O190 C179 1.258 . S
O191 Eu161 2.374 . S
O191 C179 1.245 1_554 S
H192 C163 0.931 . S
H193 C164 0.931 . S
H194 C166 0.931 . S
H195 C167 0.931 . S
H196 C173 0.931 . S
H197 C174 0.931 . S
H198 C176 0.931 . S
H199 C177 0.931 . S
C200 Eu201 2.835 . S
C200 C202 1.500 . S
C200 O220 1.257 . S
C200 O221 1.260 . S
Eu201 C200 2.835 . S
Eu201 O220 2.473 . S
Eu201 O221 2.480 . S
Eu201 O222 2.430 . S
Eu201 O223 2.670 . S
Eu201 O224 2.394 . S
Eu201 O229 2.355 . S
Eu201 O231 2.374 . S
C202 C200 1.500 . S
C202 C203 1.377 . S
C202 C207 1.377 . S
C203 C202 1.377 . S
C203 C204 1.395 . S
C203 H232 0.931 . S
C204 C203 1.395 . S
C204 C205 1.383 . S
C204 H233 0.931 . S
C205 C204 1.383 . S
C205 C206 1.394 . S
C206 C205 1.394 . S
C206 C207 1.378 . S
C206 H234 0.931 . S
C207 C202 1.377 . S
C207 C206 1.378 . S
C207 H235 0.931 . S
C208 O222 1.259 . S
C208 O223 1.270 . S
C209 O224 1.251 . S
C209 O225 1.251 . S
C210 Eu211 2.835 . S
C210 C212 1.500 . S
C210 O226 1.257 . S
C210 O227 1.260 . S
Eu211 C210 2.835 . S
Eu211 O223 2.355 . S
Eu211 O225 2.374 . S
Eu211 O226 2.473 . S
Eu211 O227 2.480 . S
Eu211 O228 2.430 . S
Eu211 O229 2.670 . S
Eu211 O230 2.394 . S
C212 C210 1.500 . S
C212 C213 1.377 . S
C212 C217 1.377 . S
C213 C212 1.377 . S
C213 C214 1.395 . S
C213 H236 0.931 . S
C214 C213 1.395 . S
C214 C215 1.383 . S
C214 H237 0.931 . S
C215 C214 1.383 . S
C215 C216 1.394 . S
C216 C215 1.394 . S
C216 C217 1.378 . S
C216 H238 0.931 . S
C217 C212 1.377 . S
C217 C216 1.378 . S
C217 H239 0.931 . S
C218 O228 1.259 . S
C218 O229 1.270 . S
C219 O230 1.251 . S
C219 O231 1.251 . S
O220 C200 1.257 . S
O220 Eu201 2.473 . S
O221 C200 1.260 . S
O221 Eu201 2.480 . S
O222 Eu201 2.430 . S
O222 C208 1.259 . S
O223 Eu201 2.670 . S
O223 C208 1.270 . S
O223 Eu211 2.355 . S
O224 Eu201 2.394 . S
O224 C209 1.251 . S
O225 C209 1.251 . S
O225 Eu211 2.374 . S
O226 C210 1.257 . S
O226 Eu211 2.473 . S
O227 C210 1.260 . S
O227 Eu211 2.480 . S
O228 Eu211 2.430 . S
O228 C218 1.259 . S
O229 Eu201 2.355 . S
O229 Eu211 2.670 . S
O229 C218 1.270 . S
O230 Eu211 2.394 . S
O230 C219 1.251 . S
O231 Eu201 2.374 . S
O231 C219 1.251 . S
H232 C203 0.931 . S
H233 C204 0.931 . S
H234 C206 0.931 . S
H235 C207 0.931 . S
H236 C213 0.931 . S
H237 C214 0.931 . S
H238 C216 0.931 . S
H239 C217 0.931 . S
C240 Eu241 2.835 . S
C240 C242 1.500 . S
C240 O260 1.257 . S
C240 O261 1.260 . S
Eu241 C240 2.835 . S
Eu241 O260 2.473 . S
Eu241 O261 2.480 . S
Eu241 O262 2.430 . S
Eu241 O263 2.670 . S
Eu241 O264 2.394 . S
Eu241 O269 2.355 . S
Eu241 O271 2.374 . S
C242 C240 1.500 . S
C242 C243 1.377 . S
C242 C247 1.377 . S
C243 C242 1.377 . S
C243 C244 1.395 1_655 S
C243 H272 0.931 . S
C244 C243 1.395 1_455 S
C244 C245 1.383 . S
C244 H273 0.931 . S
C245 C244 1.383 . S
C245 C246 1.394 . S
C246 C245 1.394 . S
C246 C247 1.378 1_455 S
C246 H274 0.931 . S
C247 C242 1.377 . S
C247 C246 1.378 1_655 S
C247 H275 0.931 . S
C248 O262 1.259 . S
C248 O263 1.270 . S
C249 O264 1.251 . S
C249 O265 1.251 . S
C250 Eu251 2.835 . S
C250 C252 1.500 . S
C250 O266 1.257 . S
C250 O267 1.260 . S
Eu251 C250 2.835 . S
Eu251 O263 2.355 . S
Eu251 O265 2.374 . S
Eu251 O266 2.473 . S
Eu251 O267 2.480 . S
Eu251 O268 2.430 . S
Eu251 O269 2.670 . S
Eu251 O270 2.394 . S
C252 C250 1.500 . S
C252 C253 1.377 . S
C252 C257 1.377 . S
C253 C252 1.377 . S
C253 C254 1.395 . S
C253 H276 0.931 . S
C254 C253 1.395 . S
C254 C255 1.383 . S
C254 H277 0.931 . S
C255 C254 1.383 . S
C255 C256 1.394 . S
C256 C255 1.394 . S
C256 C257 1.378 . S
C256 H278 0.931 . S
C257 C252 1.377 . S
C257 C256 1.378 . S
C257 H279 0.931 . S
C258 O268 1.259 . S
C258 O269 1.270 . S
C259 O270 1.251 . S
C259 O271 1.251 . S
O260 C240 1.257 . S
O260 Eu241 2.473 . S
O261 C240 1.260 . S
O261 Eu241 2.480 . S
O262 Eu241 2.430 . S
O262 C248 1.259 . S
O263 Eu241 2.670 . S
O263 C248 1.270 . S
O263 Eu251 2.355 . S
O264 Eu241 2.394 . S
O264 C249 1.251 . S
O265 C249 1.251 . S
O265 Eu251 2.374 . S
O266 C250 1.257 . S
O266 Eu251 2.473 . S
O267 C250 1.260 . S
O267 Eu251 2.480 . S
O268 Eu251 2.430 . S
O268 C258 1.259 . S
O269 Eu241 2.355 . S
O269 Eu251 2.670 . S
O269 C258 1.270 . S
O270 Eu251 2.394 . S
O270 C259 1.251 . S
O271 Eu241 2.374 . S
O271 C259 1.251 . S
H272 C243 0.931 . S
H273 C244 0.931 . S
H274 C246 0.931 . S
H275 C247 0.931 . S
H276 C253 0.931 . S
H277 C254 0.931 . S
H278 C256 0.931 . S
H279 C257 0.931 . S
C280 Eu281 2.835 . S
C280 C282 1.500 . S
C280 O300 1.257 . S
C280 O301 1.260 . S
Eu281 C280 2.835 . S
Eu281 O300 2.473 . S
Eu281 O301 2.480 . S
Eu281 O302 2.430 . S
Eu281 O303 2.670 . S
Eu281 O304 2.394 . S
Eu281 O309 2.355 . S
Eu281 O311 2.374 . S
C282 C280 1.500 . S
C282 C283 1.377 . S
C282 C287 1.377 . S
C283 C282 1.377 . S
C283 C284 1.395 . S
C283 H312 0.931 . S
C284 C283 1.395 . S
C284 C285 1.383 . S
C284 H313 0.931 . S
C285 C284 1.383 . S
C285 C286 1.394 . S
C286 C285 1.394 . S
C286 C287 1.378 . S
C286 H314 0.931 . S
C287 C282 1.377 . S
C287 C286 1.378 . S
C287 H315 0.931 . S
C288 O302 1.259 . S
C288 O303 1.270 . S
C289 O304 1.251 . S
C289 O305 1.251 . S
C290 Eu291 2.835 . S
C290 C292 1.500 . S
C290 O306 1.257 . S
C290 O307 1.260 . S
Eu291 C290 2.835 . S
Eu291 O303 2.355 . S
Eu291 O305 2.374 . S
Eu291 O306 2.473 . S
Eu291 O307 2.480 . S
Eu291 O308 2.430 . S
Eu291 O309 2.670 . S
Eu291 O310 2.394 . S
C292 C290 1.500 . S
C292 C293 1.377 . S
C292 C297 1.377 . S
C293 C292 1.377 . S
C293 C294 1.395 . S
C293 H316 0.931 . S
C294 C293 1.395 . S
C294 C295 1.383 . S
C294 H317 0.931 . S
C295 C294 1.383 . S
C295 C296 1.394 . S
C296 C295 1.394 . S
C296 C297 1.378 . S
C296 H318 0.931 . S
C297 C292 1.377 . S
C297 C296 1.378 . S
C297 H319 0.931 . S
C298 O308 1.259 . S
C298 O309 1.270 . S
C299 O310 1.251 . S
C299 O311 1.251 . S
O300 C280 1.257 . S
O300 Eu281 2.473 . S
O301 C280 1.260 . S
O301 Eu281 2.480 . S
O302 Eu281 2.430 . S
O302 C288 1.259 . S
O303 Eu281 2.670 . S
O303 C288 1.270 . S
O303 Eu291 2.355 . S
O304 Eu281 2.394 . S
O304 C289 1.251 . S
O305 C289 1.251 . S
O305 Eu291 2.374 . S
O306 C290 1.257 . S
O306 Eu291 2.473 . S
O307 C290 1.260 . S
O307 Eu291 2.480 . S
O308 Eu291 2.430 . S
O308 C298 1.259 . S
O309 Eu281 2.355 . S
O309 Eu291 2.670 . S
O309 C298 1.270 . S
O310 Eu291 2.394 . S
O310 C299 1.251 . S
O311 Eu281 2.374 . S
O311 C299 1.251 . S
H312 C283 0.931 . S
H313 C284 0.931 . S
H314 C286 0.931 . S
H315 C287 0.931 . S
H316 C293 0.931 . S
H317 C294 0.931 . S
H318 C296 0.931 . S
H319 C297 0.931 . S
C320 Eu321 2.835 . S
C320 C322 1.500 . S
C320 O340 1.257 . S
C320 O341 1.260 . S
Eu321 C320 2.835 . S
Eu321 O340 2.473 . S
Eu321 O341 2.480 . S
Eu321 O342 2.430 . S
Eu321 O343 2.670 . S
Eu321 O344 2.394 . S
Eu321 O349 2.355 . S
Eu321 O351 2.374 . S
C322 C320 1.500 . S
C322 C323 1.377 . S
C322 C327 1.377 . S
C323 C322 1.377 . S
C323 C324 1.395 . S
C323 H352 0.931 . S
C324 C323 1.395 . S
C324 C325 1.383 . S
C324 H353 0.931 . S
C325 C324 1.383 . S
C325 C326 1.394 . S
C326 C325 1.394 . S
C326 C327 1.378 . S
C326 H354 0.931 . S
C327 C322 1.377 . S
C327 C326 1.378 . S
C327 H355 0.931 . S
C328 O342 1.259 . S
C328 O343 1.270 . S
C329 O344 1.251 . S
C329 O345 1.251 . S
C330 Eu331 2.835 . S
C330 C332 1.500 . S
C330 O346 1.257 . S
C330 O347 1.260 . S
Eu331 C330 2.835 . S
Eu331 O343 2.355 . S
Eu331 O345 2.374 . S
Eu331 O346 2.473 . S
Eu331 O347 2.480 . S
Eu331 O348 2.430 . S
Eu331 O349 2.670 . S
Eu331 O350 2.394 . S
C332 C330 1.500 . S
C332 C333 1.377 . S
C332 C337 1.377 . S
C333 C332 1.377 . S
C333 C334 1.395 1_655 S
C333 H356 0.931 . S
C334 C333 1.395 1_455 S
C334 C335 1.383 . S
C334 H357 0.931 . S
C335 C334 1.383 . S
C335 C336 1.394 . S
C336 C335 1.394 . S
C336 C337 1.378 1_455 S
C336 H358 0.931 . S
C337 C332 1.377 . S
C337 C336 1.378 1_655 S
C337 H359 0.931 . S
C338 O348 1.259 . S
C338 O349 1.270 . S
C339 O350 1.251 . S
C339 O351 1.251 . S
O340 C320 1.257 . S
O340 Eu321 2.473 . S
O341 C320 1.260 . S
O341 Eu321 2.480 . S
O342 Eu321 2.430 . S
O342 C328 1.259 . S
O343 Eu321 2.670 . S
O343 C328 1.270 . S
O343 Eu331 2.355 . S
O344 Eu321 2.394 . S
O344 C329 1.251 . S
O345 C329 1.251 . S
O345 Eu331 2.374 . S
O346 C330 1.257 . S
O346 Eu331 2.473 . S
O347 C330 1.260 . S
O347 Eu331 2.480 . S
O348 Eu331 2.430 . S
O348 C338 1.259 . S
O349 Eu321 2.355 . S
O349 Eu331 2.670 . S
O349 C338 1.270 . S
O350 Eu331 2.394 . S
O350 C339 1.251 . S
O351 Eu321 2.374 . S
O351 C339 1.251 . S
H352 C323 0.931 . S
H353 C324 0.931 . S
H354 C326 0.931 . S
H355 C327 0.931 . S
H356 C333 0.931 . S
H357 C334 0.931 . S
H358 C336 0.931 . S
H359 C337 0.931 . S
C360 Eu361 2.835 . S
C360 C362 1.500 . S
C360 O380 1.257 . S
C360 O381 1.260 . S
Eu361 C360 2.835 . S
Eu361 O380 2.473 . S
Eu361 O381 2.480 . S
Eu361 O382 2.430 . S
Eu361 O383 2.670 . S
Eu361 O384 2.394 . S
Eu361 O389 2.355 . S
Eu361 O391 2.374 . S
C362 C360 1.500 . S
C362 C363 1.377 . S
C362 C367 1.377 . S
C363 C362 1.377 . S
C363 C364 1.395 1_545 S
C363 H392 0.931 . S
C364 C363 1.395 1_565 S
C364 C365 1.383 . S
C364 H393 0.931 . S
C365 C364 1.383 . S
C365 C366 1.397 . S
C366 C365 1.397 . S
C366 C367 1.372 1_565 S
C366 H394 0.934 . S
C367 C362 1.377 . S
C367 C366 1.372 1_545 S
C367 H395 0.931 . S
C368 O382 1.259 . S
C368 O383 1.270 . S
C369 O384 1.251 . S
C369 O385 1.251 . S
C370 Eu371 2.835 . S
C370 C372 1.500 . S
C370 O386 1.257 . S
C370 O387 1.260 . S
Eu371 C370 2.835 . S
Eu371 O383 2.355 . S
Eu371 O385 2.374 . S
Eu371 O386 2.473 . S
Eu371 O387 2.480 . S
Eu371 O388 2.430 . S
Eu371 O389 2.670 . S
Eu371 O390 2.394 . S
C372 C370 1.500 . S
C372 C373 1.377 . S
C372 C377 1.377 . S
C373 C372 1.377 . S
C373 C374 1.395 . S
C373 H396 0.931 . S
C374 C373 1.395 . S
C374 C375 1.383 . S
C374 H397 0.931 . S
C375 C374 1.383 . S
C375 C376 1.394 . S
C376 C375 1.394 . S
C376 C377 1.378 . S
C376 H398 0.931 . S
C377 C372 1.377 . S
C377 C376 1.378 . S
C377 H399 0.931 . S
C378 O388 1.259 . S
C378 O389 1.270 . S
C379 O390 1.251 . S
C379 O391 1.251 . S
O380 C360 1.257 . S
O380 Eu361 2.473 . S
O381 C360 1.260 . S
O381 Eu361 2.480 . S
O382 Eu361 2.430 . S
O382 C368 1.259 . S
O383 Eu361 2.670 . S
O383 C368 1.270 . S
O383 Eu371 2.355 . S
O384 Eu361 2.394 . S
O384 C369 1.251 . S
O385 C369 1.251 . S
O385 Eu371 2.374 . S
O386 C370 1.257 . S
O386 Eu371 2.473 . S
O387 C370 1.260 . S
O387 Eu371 2.480 . S
O388 Eu371 2.430 . S
O388 C378 1.259 . S
O389 Eu361 2.355 . S
O389 Eu371 2.670 . S
O389 C378 1.270 . S
O390 Eu371 2.394 . S
O390 C379 1.251 . S
O391 Eu361 2.374 . S
O391 C379 1.251 . S
H392 C363 0.931 . S
H393 C364 0.931 . S
H394 C366 0.934 . S
H395 C367 0.931 . S
H396 C373 0.931 . S
H397 C374 0.931 . S
H398 C376 0.931 . S
H399 C377 0.931 . S
C400 Eu401 2.835 . S
C400 C402 1.500 . S
C400 O420 1.257 . S
C400 O421 1.260 . S
Eu401 C400 2.835 . S
Eu401 O420 2.473 . S
Eu401 O421 2.480 . S
Eu401 O422 2.430 . S
Eu401 O423 2.670 1_554 S
Eu401 O424 2.394 . S
Eu401 O429 2.355 . S
Eu401 O431 2.374 . S
C402 C400 1.500 . S
C402 C403 1.377 . S
C402 C407 1.377 . S
C403 C402 1.377 . S
C403 C404 1.395 . S
C403 H432 0.931 . S
C404 C403 1.395 . S
C404 C405 1.383 . S
C404 H433 0.931 . S
C405 C404 1.383 . S
C405 C406 1.394 . S
C406 C405 1.394 . S
C406 C407 1.378 . S
C406 H434 0.931 . S
C407 C402 1.377 . S
C407 C406 1.378 . S
C407 H435 0.931 . S
C408 O422 1.259 1_556 S
C408 O423 1.270 . S
C409 O424 1.258 . S
C409 O425 1.245 1_554 S
C410 Eu411 2.835 . S
C410 C412 1.500 . S
C410 O426 1.257 . S
C410 O427 1.260 . S
Eu411 C410 2.835 . S
Eu411 O423 2.355 . S
Eu411 O425 2.374 . S
Eu411 O426 2.473 . S
Eu411 O427 2.480 . S
Eu411 O428 2.430 1_556 S
Eu411 O429 2.670 1_556 S
Eu411 O430 2.394 1_556 S
C412 C410 1.500 . S
C412 C413 1.377 . S
C412 C417 1.377 . S
C413 C412 1.377 . S
C413 C414 1.395 . S
C413 H436 0.931 . S
C414 C413 1.395 . S
C414 C415 1.383 . S
C414 H437 0.931 . S
C415 C414 1.383 . S
C415 C416 1.394 . S
C416 C415 1.394 . S
C416 C417 1.378 . S
C416 H438 0.931 . S
C417 C412 1.377 . S
C417 C416 1.378 . S
C417 H439 0.931 . S
C418 O428 1.259 . S
C418 O429 1.270 . S
C419 O430 1.251 . S
C419 O431 1.251 . S
O420 C400 1.257 . S
O420 Eu401 2.473 . S
O421 C400 1.260 . S
O421 Eu401 2.480 . S
O422 Eu401 2.430 . S
O422 C408 1.259 1_554 S
O423 Eu401 2.670 1_556 S
O423 C408 1.270 . S
O423 Eu411 2.355 . S
O424 Eu401 2.394 . S
O424 C409 1.258 . S
O425 C409 1.245 1_556 S
O425 Eu411 2.374 . S
O426 C410 1.257 . S
O426 Eu411 2.473 . S
O427 C410 1.260 . S
O427 Eu411 2.480 . S
O428 Eu411 2.430 1_554 S
O428 C418 1.259 . S
O429 Eu401 2.355 . S
O429 Eu411 2.670 1_554 S
O429 C418 1.270 . S
O430 Eu411 2.394 1_554 S
O430 C419 1.251 . S
O431 Eu401 2.374 . S
O431 C419 1.251 . S
H432 C403 0.931 . S
H433 C404 0.931 . S
H434 C406 0.931 . S
H435 C407 0.931 . S
H436 C413 0.931 . S
H437 C414 0.931 . S
H438 C416 0.931 . S
H439 C417 0.931 . S
C440 Eu441 2.835 . S
C440 C442 1.500 . S
C440 O460 1.257 . S
C440 O461 1.260 . S
Eu441 C440 2.835 . S
Eu441 O460 2.473 . S
Eu441 O461 2.480 . S
Eu441 O462 2.430 . S
Eu441 O463 2.670 . S
Eu441 O464 2.394 . S
Eu441 O469 2.355 . S
Eu441 O471 2.374 . S
C442 C440 1.500 . S
C442 C443 1.377 . S
C442 C447 1.377 . S
C443 C442 1.377 . S
C443 C444 1.395 1_565 S
C443 H472 0.931 . S
C444 C443 1.395 1_545 S
C444 C445 1.383 . S
C444 H473 0.931 . S
C445 C444 1.383 . S
C445 C446 1.397 . S
C446 C445 1.397 . S
C446 C447 1.372 1_545 S
C446 H474 0.934 . S
C447 C442 1.377 . S
C447 C446 1.372 1_565 S
C447 H475 0.931 . S
C448 O462 1.259 . S
C448 O463 1.270 . S
C449 O464 1.251 . S
C449 O465 1.251 . S
C450 Eu451 2.835 . S
C450 C452 1.500 . S
C450 O466 1.257 . S
C450 O467 1.260 . S
Eu451 C450 2.835 . S
Eu451 O463 2.355 . S
Eu451 O465 2.374 . S
Eu451 O466 2.473 . S
Eu451 O467 2.480 . S
Eu451 O468 2.430 . S
Eu451 O469 2.670 . S
Eu451 O470 2.394 . S
C452 C450 1.500 . S
C452 C453 1.377 . S
C452 C457 1.377 . S
C453 C452 1.377 . S
C453 C454 1.395 . S
C453 H476 0.931 . S
C454 C453 1.395 . S
C454 C455 1.383 . S
C454 H477 0.931 . S
C455 C454 1.383 . S
C455 C456 1.394 . S
C456 C455 1.394 . S
C456 C457 1.378 . S
C456 H478 0.931 . S
C457 C452 1.377 . S
C457 C456 1.378 . S
C457 H479 0.931 . S
C458 O468 1.259 . S
C458 O469 1.270 . S
C459 O470 1.251 . S
C459 O471 1.251 . S
O460 C440 1.257 . S
O460 Eu441 2.473 . S
O461 C440 1.260 . S
O461 Eu441 2.480 . S
O462 Eu441 2.430 . S
O462 C448 1.259 . S
O463 Eu441 2.670 . S
O463 C448 1.270 . S
O463 Eu451 2.355 . S
O464 Eu441 2.394 . S
O464 C449 1.251 . S
O465 C449 1.251 . S
O465 Eu451 2.374 . S
O466 C450 1.257 . S
O466 Eu451 2.473 . S
O467 C450 1.260 . S
O467 Eu451 2.480 . S
O468 Eu451 2.430 . S
O468 C458 1.259 . S
O469 Eu441 2.355 . S
O469 Eu451 2.670 . S
O469 C458 1.270 . S
O470 Eu451 2.394 . S
O470 C459 1.251 . S
O471 Eu441 2.374 . S
O471 C459 1.251 . S
H472 C443 0.931 . S
H473 C444 0.931 . S
H474 C446 0.934 . S
H475 C447 0.931 . S
H476 C453 0.931 . S
H477 C454 0.931 . S
H478 C456 0.931 . S
H479 C457 0.931 . S
C480 Eu481 2.835 . S
C480 C482 1.500 . S
C480 O500 1.257 . S
C480 O501 1.260 . S
Eu481 C480 2.835 . S
Eu481 O500 2.473 . S
Eu481 O501 2.480 . S
Eu481 O502 2.430 . S
Eu481 O503 2.670 . S
Eu481 O504 2.394 . S
Eu481 O509 2.355 . S
Eu481 O511 2.374 . S
C482 C480 1.500 . S
C482 C483 1.377 . S
C482 C487 1.377 . S
C483 C482 1.377 . S
C483 C484 1.395 1_455 S
C483 H512 0.931 . S
C484 C483 1.395 1_655 S
C484 C485 1.383 . S
C484 H513 0.931 . S
C485 C484 1.383 . S
C485 C486 1.394 . S
C486 C485 1.394 . S
C486 C487 1.378 1_655 S
C486 H514 0.931 . S
C487 C482 1.377 . S
C487 C486 1.378 1_455 S
C487 H515 0.931 . S
C488 O502 1.259 . S
C488 O503 1.270 . S
C489 O504 1.251 . S
C489 O505 1.251 . S
C490 Eu491 2.835 . S
C490 C492 1.500 . S
C490 O506 1.257 . S
C490 O507 1.260 . S
Eu491 C490 2.835 . S
Eu491 O503 2.355 . S
Eu491 O505 2.374 . S
Eu491 O506 2.473 . S
Eu491 O507 2.480 . S
Eu491 O508 2.430 . S
Eu491 O509 2.670 . S
Eu491 O510 2.394 . S
C492 C490 1.500 . S
C492 C493 1.377 . S
C492 C497 1.377 . S
C493 C492 1.377 . S
C493 C494 1.395 . S
C493 H516 0.931 . S
C494 C493 1.395 . S
C494 C495 1.383 . S
C494 H517 0.931 . S
C495 C494 1.383 . S
C495 C496 1.394 . S
C496 C495 1.394 . S
C496 C497 1.378 . S
C496 H518 0.931 . S
C497 C492 1.377 . S
C497 C496 1.378 . S
C497 H519 0.931 . S
C498 O508 1.259 . S
C498 O509 1.270 . S
C499 O510 1.251 . S
C499 O511 1.251 . S
O500 C480 1.257 . S
O500 Eu481 2.473 . S
O501 C480 1.260 . S
O501 Eu481 2.480 . S
O502 Eu481 2.430 . S
O502 C488 1.259 . S
O503 Eu481 2.670 . S
O503 C488 1.270 . S
O503 Eu491 2.355 . S
O504 Eu481 2.394 . S
O504 C489 1.251 . S
O505 C489 1.251 . S
O505 Eu491 2.374 . S
O506 C490 1.257 . S
O506 Eu491 2.473 . S
O507 C490 1.260 . S
O507 Eu491 2.480 . S
O508 Eu491 2.430 . S
O508 C498 1.259 . S
O509 Eu481 2.355 . S
O509 Eu491 2.670 . S
O509 C498 1.270 . S
O510 Eu491 2.394 . S
O510 C499 1.251 . S
O511 Eu481 2.374 . S
O511 C499 1.251 . S
H512 C483 0.931 . S
H513 C484 0.931 . S
H514 C486 0.931 . S
H515 C487 0.931 . S
H516 C493 0.931 . S
H517 C494 0.931 . S
H518 C496 0.931 . S
H519 C497 0.931 . S
C520 Eu521 2.835 . S
C520 C522 1.500 . S
C520 O540 1.257 . S
C520 O541 1.260 . S
Eu521 C520 2.835 . S
Eu521 O540 2.473 . S
Eu521 O541 2.480 . S
Eu521 O542 2.430 . S
Eu521 O543 2.670 . S
Eu521 O544 2.394 . S
Eu521 O549 2.355 . S
Eu521 O551 2.374 . S
C522 C520 1.500 . S
C522 C523 1.377 . S
C522 C527 1.377 . S
C523 C522 1.377 . S
C523 C524 1.395 . S
C523 H552 0.931 . S
C524 C523 1.395 . S
C524 C525 1.383 . S
C524 H553 0.931 . S
C525 C524 1.383 . S
C525 C526 1.394 . S
C526 C525 1.394 . S
C526 C527 1.378 . S
C526 H554 0.931 . S
C527 C522 1.377 . S
C527 C526 1.378 . S
C527 H555 0.931 . S
C528 O542 1.259 . S
C528 O543 1.270 . S
C529 O544 1.251 . S
C529 O545 1.251 . S
C530 Eu531 2.835 . S
C530 C532 1.500 . S
C530 O546 1.257 . S
C530 O547 1.260 . S
Eu531 C530 2.835 . S
Eu531 O543 2.355 . S
Eu531 O545 2.374 . S
Eu531 O546 2.473 . S
Eu531 O547 2.480 . S
Eu531 O548 2.430 . S
Eu531 O549 2.670 . S
Eu531 O550 2.394 . S
C532 C530 1.500 . S
C532 C533 1.377 . S
C532 C537 1.377 . S
C533 C532 1.377 . S
C533 C534 1.395 1_565 S
C533 H556 0.931 . S
C534 C533 1.395 1_545 S
C534 C535 1.383 . S
C534 H557 0.931 . S
C535 C534 1.383 . S
C535 C536 1.397 . S
C536 C535 1.397 . S
C536 C537 1.372 1_545 S
C536 H558 0.934 . S
C537 C532 1.377 . S
C537 C536 1.372 1_565 S
C537 H559 0.931 . S
C538 O548 1.259 . S
C538 O549 1.270 . S
C539 O550 1.251 . S
C539 O551 1.251 . S
O540 C520 1.257 . S
O540 Eu521 2.473 . S
O541 C520 1.260 . S
O541 Eu521 2.480 . S
O542 Eu521 2.430 . S
O542 C528 1.259 . S
O543 Eu521 2.670 . S
O543 C528 1.270 . S
O543 Eu531 2.355 . S
O544 Eu521 2.394 . S
O544 C529 1.251 . S
O545 C529 1.251 . S
O545 Eu531 2.374 . S
O546 C530 1.257 . S
O546 Eu531 2.473 . S
O547 C530 1.260 . S
O547 Eu531 2.480 . S
O548 Eu531 2.430 . S
O548 C538 1.259 . S
O549 Eu521 2.355 . S
O549 Eu531 2.670 . S
O549 C538 1.270 . S
O550 Eu531 2.394 . S
O550 C539 1.251 . S
O551 Eu521 2.374 . S
O551 C539 1.251 . S
H552 C523 0.931 . S
H553 C524 0.931 . S
H554 C526 0.931 . S
H555 C527 0.931 . S
H556 C533 0.931 . S
H557 C534 0.931 . S
H558 C536 0.934 . S
H559 C537 0.931 . S
C560 Eu561 2.835 . S
C560 C562 1.500 . S
C560 O580 1.257 . S
C560 O581 1.260 . S
Eu561 C560 2.835 . S
Eu561 O580 2.473 . S
Eu561 O581 2.480 . S
Eu561 O582 2.430 1_554 S
Eu561 O583 2.670 1_554 S
Eu561 O584 2.394 1_554 S
Eu561 O589 2.355 . S
Eu561 O591 2.374 . S
C562 C560 1.500 . S
C562 C563 1.377 . S
C562 C567 1.377 . S
C563 C562 1.377 . S
C563 C564 1.395 . S
C563 H592 0.931 . S
C564 C563 1.395 . S
C564 C565 1.383 . S
C564 H593 0.931 . S
C565 C564 1.383 . S
C565 C566 1.394 . S
C566 C565 1.394 . S
C566 C567 1.378 . S
C566 H594 0.931 . S
C567 C562 1.377 . S
C567 C566 1.378 . S
C567 H595 0.931 . S
C568 O582 1.259 . S
C568 O583 1.270 . S
C569 O584 1.251 . S
C569 O585 1.251 . S
C570 Eu571 2.835 . S
C570 C572 1.500 . S
C570 O586 1.257 . S
C570 O587 1.260 . S
Eu571 C570 2.835 . S
Eu571 O583 2.355 . S
Eu571 O585 2.374 . S
Eu571 O586 2.473 . S
Eu571 O587 2.480 . S
Eu571 O588 2.430 . S
Eu571 O589 2.670 1_556 S
Eu571 O590 2.394 . S
C572 C570 1.500 . S
C572 C573 1.377 . S
C572 C577 1.377 . S
C573 C572 1.377 . S
C573 C574 1.395 . S
C573 H596 0.931 . S
C574 C573 1.395 . S
C574 C575 1.383 . S
C574 H597 0.931 . S
C575 C574 1.383 . S
C575 C576 1.394 . S
C576 C575 1.394 . S
C576 C577 1.378 . S
C576 H598 0.931 . S
C577 C572 1.377 . S
C577 C576 1.378 . S
C577 H599 0.931 . S
C578 O588 1.259 1_554 S
C578 O589 1.270 . S
C579 O590 1.258 . S
C579 O591 1.245 1_556 S
O580 C560 1.257 . S
O580 Eu561 2.473 . S
O581 C560 1.260 . S
O581 Eu561 2.480 . S
O582 Eu561 2.430 1_556 S
O582 C568 1.259 . S
O583 Eu561 2.670 1_556 S
O583 C568 1.270 . S
O583 Eu571 2.355 . S
O584 Eu561 2.394 1_556 S
O584 C569 1.251 . S
O585 C569 1.251 . S
O585 Eu571 2.374 . S
O586 C570 1.257 . S
O586 Eu571 2.473 . S
O587 C570 1.260 . S
O587 Eu571 2.480 . S
O588 Eu571 2.430 . S
O588 C578 1.259 1_556 S
O589 Eu561 2.355 . S
O589 Eu571 2.670 1_554 S
O589 C578 1.270 . S
O590 Eu571 2.394 . S
O590 C579 1.258 . S
O591 Eu561 2.374 . S
O591 C579 1.245 1_554 S
H592 C563 0.931 . S
H593 C564 0.931 . S
H594 C566 0.931 . S
H595 C567 0.931 . S
H596 C573 0.931 . S
H597 C574 0.931 . S
H598 C576 0.931 . S
H599 C577 0.931 . S
C600 Eu601 2.835 . S
C600 C602 1.500 . S
C600 O620 1.257 . S
C600 O621 1.260 . S
Eu601 C600 2.835 . S
Eu601 O620 2.473 . S
Eu601 O621 2.480 . S
Eu601 O622 2.430 . S
Eu601 O623 2.670 . S
Eu601 O624 2.394 . S
Eu601 O629 2.355 . S
Eu601 O631 2.374 . S
C602 C600 1.500 . S
C602 C603 1.377 . S
C602 C607 1.377 . S
C603 C602 1.377 . S
C603 C604 1.395 . S
C603 H632 0.931 . S
C604 C603 1.395 . S
C604 C605 1.383 . S
C604 H633 0.931 . S
C605 C604 1.383 . S
C605 C606 1.394 . S
C606 C605 1.394 . S
C606 C607 1.378 . S
C606 H634 0.931 . S
C607 C602 1.377 . S
C607 C606 1.378 . S
C607 H635 0.931 . S
C608 O622 1.259 . S
C608 O623 1.270 . S
C609 O624 1.251 . S
C609 O625 1.251 . S
C610 Eu611 2.835 . S
C610 C612 1.500 . S
C610 O626 1.257 . S
C610 O627 1.260 . S
Eu611 C610 2.835 . S
Eu611 O623 2.355 . S
Eu611 O625 2.374 . S
Eu611 O626 2.473 . S
Eu611 O627 2.480 . S
Eu611 O628 2.430 . S
Eu611 O629 2.670 . S
Eu611 O630 2.394 . S
C612 C610 1.500 . S
C612 C613 1.377 . S
C612 C617 1.377 . S
C613 C612 1.377 . S
C613 C614 1.395 1_545 S
C613 H636 0.931 . S
C614 C613 1.395 1_565 S
C614 C615 1.383 . S
C614 H637 0.931 . S
C615 C614 1.383 . S
C615 C616 1.397 . S
C616 C615 1.397 . S
C616 C617 1.372 1_565 S
C616 H638 0.934 . S
C617 C612 1.377 . S
C617 C616 1.372 1_545 S
C617 H639 0.931 . S
C618 O628 1.259 . S
C618 O629 1.270 . S
C619 O630 1.251 . S
C619 O631 1.251 . S
O620 C600 1.257 . S
O620 Eu601 2.473 . S
O621 C600 1.260 . S
O621 Eu601 2.480 . S
O622 Eu601 2.430 . S
O622 C608 1.259 . S
O623 Eu601 2.670 . S
O623 C608 1.270 . S
O623 Eu611 2.355 . S
O624 Eu601 2.394 . S
O624 C609 1.251 . S
O625 C609 1.251 . S
O625 Eu611 2.374 . S
O626 C610 1.257 . S
O626 Eu611 2.473 . S
O627 C610 1.260 . S
O627 Eu611 2.480 . S
O628 Eu611 2.430 . S
O628 C618 1.259 . S
O629 Eu601 2.355 . S
O629 Eu611 2.670 . S
O629 C618 1.270 . S
O630 Eu611 2.394 . S
O630 C619 1.251 . S
O631 Eu601 2.374 . S
O631 C619 1.251 . S
H632 C603 0.931 . S
H633 C604 0.931 . S
H634 C606 0.931 . S
H635 C607 0.931 . S
H636 C613 0.931 . S
H637 C614 0.931 . S
H638 C616 0.934 . S
H639 C617 0.931 . S
C640 C641 1.387 . S
C640 H644 0.950 . S
C640 C649 1.390 . S
C641 C640 1.387 . S
C641 C643 1.387 . S
H642 C649 0.950 . S
C643 C641 1.387 . S
C643 C645 1.390 . S
C643 H647 0.950 1_554 S
H644 C640 0.950 . S
C645 C643 1.390 . S
C645 C646 1.387 . S
C645 H648 0.950 1_554 S
C646 C645 1.387 . S
C646 C649 1.387 . S
H647 C643 0.950 1_556 S
H648 C645 0.950 1_556 S
C649 C640 1.390 . S
C649 H642 0.950 . S
C649 C646 1.387 . S
C650 C651 1.387 . S
C650 H654 0.950 . S
C650 C659 1.390 . S
C651 C650 1.387 . S
C651 C653 1.387 . S
H652 C659 0.950 . S
C653 C651 1.387 . S
C653 C655 1.390 . S
C653 H657 0.950 . S
H654 C650 0.950 . S
C655 C653 1.390 . S
C655 C656 1.387 . S
C655 H658 0.950 . S
C656 C655 1.387 . S
C656 C659 1.387 . S
H657 C653 0.950 . S
H658 C655 0.950 . S
C659 C650 1.390 . S
C659 H652 0.950 . S
C659 C656 1.387 . S
C660 C661 1.387 . S
C660 H664 0.950 . S
C660 C669 1.390 1_455 S
C661 C660 1.387 . S
C661 C663 1.387 . S
H662 C669 0.950 . S
C663 C661 1.387 . S
C663 C665 1.390 1_455 S
C663 H667 0.950 . S
H664 C660 0.950 . S
C665 C663 1.390 1_655 S
C665 C666 1.387 . S
C665 H668 0.950 . S
C666 C665 1.387 . S
C666 C669 1.387 . S
H667 C663 0.950 . S
H668 C665 0.950 . S
C669 C660 1.390 1_655 S
C669 H662 0.950 . S
C669 C666 1.387 . S
C670 C671 1.387 . S
C670 H674 0.950 . S
C670 C679 1.390 1_655 S
C671 C670 1.387 . S
C671 C673 1.387 . S
H672 C679 0.950 . S
C673 C671 1.387 . S
C673 C675 1.390 1_655 S
C673 H677 0.950 . S
H674 C670 0.950 . S
C675 C673 1.390 1_455 S
C675 C676 1.387 . S
C675 H678 0.950 . S
C676 C675 1.387 . S
C676 C679 1.387 . S
H677 C673 0.950 . S
H678 C675 0.950 . S
C679 C670 1.390 1_455 S
C679 H672 0.950 . S
C679 C676 1.387 . S
C680 C681 1.387 . S
C680 H684 0.950 1_556 S
C680 C689 1.390 . S
C681 C680 1.387 . S
C681 C683 1.387 . S
H682 C689 0.950 1_554 S
C683 C681 1.387 . S
C683 C685 1.390 . S
C683 H687 0.950 . S
H684 C680 0.950 1_554 S
C685 C683 1.390 . S
C685 C686 1.387 . S
C685 H688 0.950 . S
C686 C685 1.387 . S
C686 C689 1.387 . S
H687 C683 0.950 . S
H688 C685 0.950 . S
C689 C680 1.390 . S
C689 H682 0.950 1_556 S
C689 C686 1.387 . S
C690 C691 1.387 . S
C690 H694 0.950 . S
C690 C699 1.390 . S
C691 C690 1.387 . S
C691 C693 1.387 . S
H692 C699 0.950 . S
C693 C691 1.387 . S
C693 C695 1.390 . S
C693 H697 0.950 . S
H694 C690 0.950 . S
C695 C693 1.390 . S
C695 C696 1.387 . S
C695 H698 0.950 . S
C696 C695 1.387 . S
C696 C699 1.387 . S
H697 C693 0.950 . S
H698 C695 0.950 . S
C699 C690 1.390 . S
C699 H692 0.950 . S
C699 C696 1.387 . S
C700 C701 1.387 . S
C700 H704 0.950 . S
C700 C709 1.390 1_655 S
C701 C700 1.387 . S
C701 C703 1.387 . S
H702 C709 0.950 . S
C703 C701 1.387 . S
C703 C705 1.390 1_655 S
C703 H707 0.950 . S
H704 C700 0.950 . S
C705 C703 1.390 1_455 S
C705 C706 1.387 . S
C705 H708 0.950 . S
C706 C705 1.387 . S
C706 C709 1.387 . S
H707 C703 0.950 . S
H708 C705 0.950 . S
C709 C700 1.390 1_455 S
C709 H702 0.950 . S
C709 C706 1.387 . S
C710 C711 1.387 . S
C710 H714 0.950 . S
C710 C719 1.390 1_455 S
C711 C710 1.387 . S
C711 C713 1.387 . S
H712 C719 0.950 . S
C713 C711 1.387 . S
C713 C715 1.390 1_455 S
C713 H717 0.950 . S
H714 C710 0.950 . S
C715 C713 1.390 1_655 S
C715 C716 1.387 . S
C715 H718 0.950 . S
C716 C715 1.387 . S
C716 C719 1.387 . S
H717 C713 0.950 . S
H718 C715 0.950 . S
C719 C710 1.390 1_655 S
C719 H712 0.950 . S
C719 C716 1.387 . S
C720 C721 1.387 . S
C720 H724 0.950 . S
C720 C729 1.390 . S
C721 C720 1.387 . S
C721 C723 1.387 . S
H722 C729 0.950 . S
C723 C721 1.387 . S
C723 C725 1.390 . S
C723 H727 0.950 . S
H724 C720 0.950 . S
C725 C723 1.390 . S
C725 C726 1.387 . S
C725 H728 0.950 . S
C726 C725 1.387 . S
C726 C729 1.387 . S
H727 C723 0.950 . S
H728 C725 0.950 . S
C729 C720 1.390 . S
C729 H722 0.950 . S
C729 C726 1.387 . S
C730 C731 1.387 . S
C730 H734 0.950 . S
C730 C739 1.390 . S
C731 C730 1.387 . S
C731 C733 1.387 . S
H732 C739 0.950 . S
C733 C731 1.387 . S
C733 C735 1.390 . S
C733 H737 0.950 . S
H734 C730 0.950 . S
C735 C733 1.390 . S
C735 C736 1.387 . S
C735 H738 0.950 . S
C736 C735 1.387 . S
C736 C739 1.387 . S
H737 C733 0.950 . S
H738 C735 0.950 . S
C739 C730 1.390 . S
C739 H732 0.950 . S
C739 C736 1.387 . S
C740 C741 1.387 . S
C740 H744 0.950 . S
C740 C749 1.390 . S
C741 C740 1.387 . S
C741 C743 1.387 . S
H742 C749 0.950 . S
C743 C741 1.387 . S
C743 C745 1.390 . S
C743 H747 0.950 . S
H744 C740 0.950 . S
C745 C743 1.390 . S
C745 C746 1.387 . S
C745 H748 0.950 . S
C746 C745 1.387 . S
C746 C749 1.387 . S
H747 C743 0.950 . S
H748 C745 0.950 . S
C749 C740 1.390 . S
C749 H742 0.950 . S
C749 C746 1.387 . S
C750 C751 1.387 . S
C750 H754 0.950 . S
C750 C759 1.390 . S
C751 C750 1.387 . S
C751 C753 1.387 . S
H752 C759 0.950 . S
C753 C751 1.387 . S
C753 C755 1.390 . S
C753 H757 0.950 . S
H754 C750 0.950 . S
C755 C753 1.390 . S
C755 C756 1.387 . S
C755 H758 0.950 . S
C756 C755 1.387 . S
C756 C759 1.387 . S
H757 C753 0.950 . S
H758 C755 0.950 . S
C759 C750 1.390 . S
C759 H752 0.950 . S
C759 C756 1.387 . S
C760 C761 1.387 . S
C760 H764 0.950 . S
C760 C769 1.390 . S
C761 C760 1.387 . S
C761 C763 1.387 . S
H762 C769 0.950 . S
C763 C761 1.387 . S
C763 C765 1.390 . S
C763 H767 0.950 . S
H764 C760 0.950 . S
C765 C763 1.390 . S
C765 C766 1.387 . S
C765 H768 0.950 . S
C766 C765 1.387 . S
C766 C769 1.387 . S
H767 C763 0.950 . S
H768 C765 0.950 . S
C769 C760 1.390 . S
C769 H762 0.950 . S
C769 C766 1.387 . S
C770 C771 1.387 . S
C770 H774 0.950 . S
C770 C779 1.390 . S
C771 C770 1.387 . S
C771 C773 1.387 . S
H772 C779 0.950 . S
C773 C771 1.387 . S
C773 C775 1.390 . S
C773 H777 0.950 . S
H774 C770 0.950 . S
C775 C773 1.390 . S
C775 C776 1.387 . S
C775 H778 0.950 . S
C776 C775 1.387 . S
C776 C779 1.387 . S
H777 C773 0.950 . S
H778 C775 0.950 . S
C779 C770 1.390 . S
C779 H772 0.950 . S
C779 C776 1.387 . S
C780 C781 1.387 . S
C780 H784 0.950 . S
C780 C789 1.390 . S
C781 C780 1.387 . S
C781 C783 1.387 . S
H782 C789 0.950 . S
C783 C781 1.387 . S
C783 C785 1.390 . S
C783 H787 0.950 . S
H784 C780 0.950 . S
C785 C783 1.390 . S
C785 C786 1.387 . S
C785 H788 0.950 . S
C786 C785 1.387 . S
C786 C789 1.387 . S
H787 C783 0.950 . S
H788 C785 0.950 . S
C789 C780 1.390 . S
C789 H782 0.950 . S
C789 C786 1.387 . S
C790 C791 1.387 . S
C790 H794 0.950 . S
C790 C799 1.390 . S
C791 C790 1.387 . S
C791 C793 1.387 . S
H792 C799 0.950 . S
C793 C791 1.387 . S
C793 C795 1.390 . S
C793 H797 0.950 . S
H794 C790 0.950 . S
C795 C793 1.390 . S
C795 C796 1.387 . S
C795 H798 0.950 . S
C796 C795 1.387 . S
C796 C799 1.387 . S
H797 C793 0.950 . S
H798 C795 0.950 . S
C799 C790 1.390 . S
C799 H792 0.950 . S
C799 C796 1.387 . S
C800 C801 1.387 . S
C800 H804 0.950 . S
C800 C809 1.390 . S
C801 C800 1.387 . S
C801 C803 1.387 . S
H802 C809 0.950 . S
C803 C801 1.387 . S
C803 C805 1.390 . S
C803 H807 0.950 . S
H804 C800 0.950 . S
C805 C803 1.390 . S
C805 C806 1.387 . S
C805 H808 0.950 . S
C806 C805 1.387 . S
C806 C809 1.387 . S
H807 C803 0.950 . S
H808 C805 0.950 . S
C809 C800 1.390 . S
C809 H802 0.950 . S
C809 C806 1.387 . S
C810 C811 1.387 1_565 S
C810 H814 0.950 . S
C810 C819 1.390 . S
C811 C810 1.387 1_545 S
C811 C813 1.387 . S
H812 C819 0.950 . S
C813 C811 1.387 . S
C813 C815 1.390 1_545 S
C813 H817 0.950 . S
H814 C810 0.950 . S
C815 C813 1.390 1_565 S
C815 C816 1.387 . S
C815 H818 0.950 . S
C816 C815 1.387 . S
C816 C819 1.387 . S
H817 C813 0.950 . S
H818 C815 0.950 . S
C819 C810 1.390 . S
C819 H812 0.950 . S
C819 C816 1.387 . S
C820 C821 1.387 . S
C820 H824 0.950 . S
C820 C829 1.390 . S
C821 C820 1.387 . S
C821 C823 1.387 . S
H822 C829 0.950 . S
C823 C821 1.387 . S
C823 C825 1.390 . S
C823 H827 0.950 . S
H824 C820 0.950 . S
C825 C823 1.390 . S
C825 C826 1.387 . S
C825 H828 0.950 . S
C826 C825 1.387 . S
C826 C829 1.387 . S
H827 C823 0.950 . S
H828 C825 0.950 . S
C829 C820 1.390 . S
C829 H822 0.950 . S
C829 C826 1.387 . S
C830 C831 1.387 1_545 S
C830 H834 0.950 1_545 S
C830 C839 1.390 . S
C831 C830 1.387 1_565 S
C831 C833 1.387 1_565 S
H832 C839 0.950 . S
C833 C831 1.387 1_545 S
C833 C835 1.390 . S
C833 H837 0.950 . S
H834 C830 0.950 1_565 S
C835 C833 1.390 . S
C835 C836 1.387 . S
C835 H838 0.950 . S
C836 C835 1.387 . S
C836 C839 1.387 . S
H837 C833 0.950 . S
H838 C835 0.950 . S
C839 C830 1.390 . S
C839 H832 0.950 . S
C839 C836 1.387 . S
C840 C841 1.387 . S
C840 H844 0.950 . S
C840 C849 1.390 . S
C841 C840 1.387 . S
C841 C843 1.387 . S
H842 C849 0.950 . S
C843 C841 1.387 . S
C843 C845 1.390 . S
C843 H847 0.950 . S
H844 C840 0.950 . S
C845 C843 1.390 . S
C845 C846 1.387 . S
C845 H848 0.950 . S
C846 C845 1.387 . S
C846 C849 1.387 . S
H847 C843 0.950 . S
H848 C845 0.950 . S
C849 C840 1.390 . S
C849 H842 0.950 . S
C849 C846 1.387 . S
C850 C851 1.387 . S
C850 H854 0.950 . S
C850 C859 1.402 . S
C851 C850 1.387 . S
C851 C853 1.387 . S
H852 C859 0.941 1_565 S
C853 C851 1.387 . S
C853 C855 1.390 . S
C853 H857 0.950 . S
H854 C850 0.950 . S
C855 C853 1.390 . S
C855 C856 1.387 1_545 S
C855 H858 0.950 . S
C856 C855 1.387 1_565 S
C856 C859 1.384 1_565 S
H857 C853 0.950 . S
H858 C855 0.950 . S
C859 C850 1.402 . S
C859 H852 0.941 1_545 S
C859 C856 1.384 1_545 S
C860 C861 1.387 . S
C860 H864 0.950 . S
C860 C869 1.390 . S
C861 C860 1.387 . S
C861 C863 1.387 . S
H862 C869 0.950 . S
C863 C861 1.387 . S
C863 C865 1.390 . S
C863 H867 0.950 . S
H864 C860 0.950 . S
C865 C863 1.390 . S
C865 C866 1.387 . S
C865 H868 0.950 . S
C866 C865 1.387 . S
C866 C869 1.387 . S
H867 C863 0.950 . S
H868 C865 0.950 . S
C869 C860 1.390 . S
C869 H862 0.950 . S
C869 C866 1.387 . S
C870 C871 1.387 1_565 S
C870 H874 0.950 . S
C870 C879 1.390 . S
C871 C870 1.387 1_545 S
C871 C873 1.387 . S
H872 C879 0.950 . S
C873 C871 1.387 . S
C873 C875 1.390 1_545 S
C873 H877 0.950 . S
H874 C870 0.950 . S
C875 C873 1.390 1_565 S
C875 C876 1.387 . S
C875 H878 0.950 . S
C876 C875 1.387 . S
C876 C879 1.387 . S
H877 C873 0.950 . S
H878 C875 0.950 . S
C879 C870 1.390 . S
C879 H872 0.950 . S
C879 C876 1.387 . S
C880 C881 1.387 . S
C880 H884 0.950 . S
C880 C889 1.390 . S
C881 C880 1.387 . S
C881 C883 1.387 . S
H882 C889 0.950 . S
C883 C881 1.387 . S
C883 C885 1.390 . S
C883 H887 0.950 . S
H884 C880 0.950 . S
C885 C883 1.390 . S
C885 C886 1.387 . S
C885 H888 0.950 . S
C886 C885 1.387 . S
C886 C889 1.387 . S
H887 C883 0.950 . S
H888 C885 0.950 . S
C889 C880 1.390 . S
C889 H882 0.950 . S
C889 C886 1.387 . S
C890 C891 1.387 . S
C890 H894 0.950 . S
C890 C899 1.390 . S
C891 C890 1.387 . S
C891 C893 1.387 . S
H892 C899 0.950 . S
C893 C891 1.387 . S
C893 C895 1.390 . S
C893 H897 0.950 . S
H894 C890 0.950 . S
C895 C893 1.390 . S
C895 C896 1.387 . S
C895 H898 0.950 . S
C896 C895 1.387 . S
C896 C899 1.387 . S
H897 C893 0.950 . S
H898 C895 0.950 . S
C899 C890 1.390 . S
C899 H892 0.950 . S
C899 C896 1.387 . S
C900 C901 1.387 . S
C900 H904 0.950 . S
C900 C909 1.390 . S
C901 C900 1.387 . S
C901 C903 1.387 . S
H902 C909 0.946 . S
C903 C901 1.387 . S
C903 C905 1.390 . S
C903 H907 0.950 . S
H904 C900 0.950 . S
C905 C903 1.390 . S
C905 C906 1.387 . S
C905 H908 0.950 . S
C906 C905 1.387 . S
C906 C909 1.387 . S
H907 C903 0.950 . S
H908 C905 0.950 . S
C909 C900 1.390 . S
C909 H902 0.946 . S
C909 C906 1.387 . S
C910 C911 1.387 . S
C910 H914 0.950 . S
C910 C919 1.390 . S
C911 C910 1.387 . S
C911 C913 1.387 . S
H912 C919 0.950 . S
C913 C911 1.387 . S
C913 C915 1.390 . S
C913 H917 0.950 . S
H914 C910 0.950 . S
C915 C913 1.390 . S
C915 C916 1.387 . S
C915 H918 0.950 . S
C916 C915 1.387 . S
C916 C919 1.387 . S
H917 C913 0.950 . S
H918 C915 0.950 . S
C919 C910 1.390 . S
C919 H912 0.950 . S
C919 C916 1.387 . S
C920 C921 1.387 . S
C920 H924 0.950 . S
C920 C929 1.390 . S
C921 C920 1.387 . S
C921 C923 1.387 . S
H922 C929 0.950 . S
C923 C921 1.387 . S
C923 C925 1.390 . S
C923 H927 0.950 . S
H924 C920 0.950 . S
C925 C923 1.390 . S
C925 C926 1.387 . S
C925 H928 0.950 . S
C926 C925 1.387 . S
C926 C929 1.387 . S
H927 C923 0.950 . S
H928 C925 0.950 . S
C929 C920 1.390 . S
C929 H922 0.950 . S
C929 C926 1.387 . S
C930 C931 1.387 . S
C930 H934 0.950 . S
C930 C939 1.390 . S
C931 C930 1.387 . S
C931 C933 1.387 . S
H932 C939 0.950 . S
C933 C931 1.387 . S
C933 C935 1.390 . S
C933 H937 0.950 . S
H934 C930 0.950 . S
C935 C933 1.390 . S
C935 C936 1.387 . S
C935 H938 0.950 . S
C936 C935 1.387 . S
C936 C939 1.387 . S
H937 C933 0.950 . S
H938 C935 0.950 . S
C939 C930 1.390 . S
C939 H932 0.950 . S
C939 C936 1.387 . S
C940 C941 1.387 . S
C940 H944 0.950 . S
C940 C949 1.390 . S
C941 C940 1.387 . S
C941 C943 1.387 . S
H942 C949 0.941 1_655 S
C943 C941 1.387 . S
C943 C945 1.390 . S
C943 H947 0.950 . S
H944 C940 0.950 . S
C945 C943 1.390 . S
C945 C946 1.387 . S
C945 H948 0.950 . S
C946 C945 1.387 . S
C946 C949 1.387 . S
H947 C943 0.950 . S
H948 C945 0.950 . S
C949 C940 1.390 . S
C949 H942 0.941 1_455 S
C949 C946 1.387 . S
C950 C951 1.387 . S
C950 H954 0.950 . S
C950 C959 1.390 . S
C951 C950 1.387 . S
C951 C953 1.387 . S
H952 C959 0.950 . S
C953 C951 1.387 . S
C953 C955 1.390 . S
C953 H957 0.950 . S
H954 C950 0.950 . S
C955 C953 1.390 . S
C955 C956 1.387 . S
C955 H958 0.950 . S
C956 C955 1.387 . S
C956 C959 1.387 . S
H957 C953 0.950 . S
H958 C955 0.950 . S
C959 C950 1.390 . S
C959 H952 0.950 . S
C959 C956 1.387 . S
C960 C961 1.387 . S
C960 H964 0.950 . S
C960 C969 1.390 . S
C961 C960 1.387 . S
C961 C963 1.387 . S
H962 C969 0.950 . S
C963 C961 1.387 . S
C963 C965 1.390 . S
C963 H967 0.950 . S
H964 C960 0.950 . S
C965 C963 1.390 . S
C965 C966 1.387 . S
C965 H968 0.950 . S
C966 C965 1.387 . S
C966 C969 1.387 . S
H967 C963 0.950 . S
H968 C965 0.950 . S
C969 C960 1.390 . S
C969 H962 0.950 . S
C969 C966 1.387 . S
C970 C971 1.387 . S
C970 H974 0.950 . S
C970 C979 1.390 . S
C971 C970 1.387 . S
C971 C973 1.387 . S
H972 C979 0.950 . S
C973 C971 1.387 . S
C973 C975 1.390 . S
C973 H977 0.950 . S
H974 C970 0.950 . S
C975 C973 1.390 . S
C975 C976 1.387 . S
C975 H978 0.950 . S
C976 C975 1.387 . S
C976 C979 1.387 . S
H977 C973 0.950 . S
H978 C975 0.950 . S
C979 C970 1.390 . S
C979 H972 0.950 . S
C979 C976 1.387 . S
C980 C981 1.387 . S
C980 H984 0.950 . S
C980 C989 1.390 . S
C981 C980 1.387 . S
C981 C983 1.387 . S
H982 C989 0.950 . S
C983 C981 1.387 . S
C983 C985 1.390 . S
C983 H987 0.950 . S
H984 C980 0.950 . S
C985 C983 1.390 . S
C985 C986 1.387 . S
C985 H988 0.950 . S
C986 C985 1.387 . S
C986 C989 1.387 . S
H987 C983 0.950 . S
H988 C985 0.950 . S
C989 C980 1.390 . S
C989 H982 0.950 . S
C989 C986 1.387 . S
C990 C991 1.387 . S
C990 H994 0.950 . S
C990 C999 1.390 . S
C991 C990 1.387 . S
C991 C993 1.387 . S
H992 C999 0.950 . S
C993 C991 1.387 . S
C993 C995 1.390 . S
C993 H997 0.950 . S
H994 C990 0.950 . S
C995 C993 1.390 . S
C995 C996 1.387 . S
C995 H998 0.950 . S
C996 C995 1.387 . S
C996 C999 1.387 . S
H997 C993 0.950 . S
H998 C995 0.950 . S
C999 C990 1.390 . S
C999 H992 0.950 . S
C999 C996 1.387 . S
C1000 C1001 1.387 . S
C1000 H1004 0.950 . S
C1000 C1009 1.390 . S
C1001 C1000 1.387 . S
C1001 C1003 1.387 . S
H1002 C1009 0.950 . S
C1003 C1001 1.387 . S
C1003 C1005 1.390 . S
C1003 H1007 0.950 . S
H1004 C1000 0.950 . S
C1005 C1003 1.390 . S
C1005 C1006 1.387 . S
C1005 H1008 0.950 . S
C1006 C1005 1.387 . S
C1006 C1009 1.387 . S
H1007 C1003 0.950 . S
H1008 C1005 0.950 . S
C1009 C1000 1.390 . S
C1009 H1002 0.950 . S
C1009 C1006 1.387 . S
C1010 C1011 1.387 . S
C1010 H1014 0.950 . S
C1010 C1019 1.390 . S
C1011 C1010 1.387 . S
C1011 C1013 1.387 . S
H1012 C1019 0.950 . S
C1013 C1011 1.387 . S
C1013 C1015 1.390 . S
C1013 H1017 0.950 . S
H1014 C1010 0.950 . S
C1015 C1013 1.390 . S
C1015 C1016 1.387 . S
C1015 H1018 0.950 . S
C1016 C1015 1.387 . S
C1016 C1019 1.387 . S
H1017 C1013 0.950 . S
H1018 C1015 0.950 . S
C1019 C1010 1.390 . S
C1019 H1012 0.950 . S
C1019 C1016 1.387 . S
C1020 C1021 1.387 . S
C1020 H1024 0.950 . S
C1020 C1029 1.390 . S
C1021 C1020 1.387 . S
C1021 C1023 1.387 . S
H1022 C1029 0.950 . S
C1023 C1021 1.387 . S
C1023 C1025 1.390 . S
C1023 H1027 0.950 . S
H1024 C1020 0.950 . S
C1025 C1023 1.390 . S
C1025 C1026 1.387 . S
C1025 H1028 0.950 . S
C1026 C1025 1.387 . S
C1026 C1029 1.387 . S
H1027 C1023 0.950 . S
H1028 C1025 0.950 . S
C1029 C1020 1.390 . S
C1029 H1022 0.950 . S
C1029 C1026 1.387 . S
C1030 C1031 1.387 . S
C1030 H1034 0.950 . S
C1030 C1039 1.390 . S
C1031 C1030 1.387 . S
C1031 C1033 1.387 . S
H1032 C1039 0.950 . S
C1033 C1031 1.387 . S
C1033 C1035 1.390 . S
C1033 H1037 0.950 . S
H1034 C1030 0.950 . S
C1035 C1033 1.390 . S
C1035 C1036 1.387 . S
C1035 H1038 0.950 . S
C1036 C1035 1.387 . S
C1036 C1039 1.387 . S
H1037 C1033 0.950 . S
H1038 C1035 0.950 . S
C1039 C1030 1.390 . S
C1039 H1032 0.950 . S
C1039 C1036 1.387 . S
C1040 C1041 1.387 . S
C1040 H1044 0.950 . S
C1040 C1049 1.390 . S
C1041 C1040 1.387 . S
C1041 C1043 1.387 . S
H1042 C1049 0.950 . S
C1043 C1041 1.387 . S
C1043 C1045 1.390 . S
C1043 H1047 0.950 . S
H1044 C1040 0.950 . S
C1045 C1043 1.390 . S
C1045 C1046 1.387 . S
C1045 H1048 0.950 . S
C1046 C1045 1.387 . S
C1046 C1049 1.387 . S
H1047 C1043 0.950 . S
H1048 C1045 0.950 . S
C1049 C1040 1.390 . S
C1049 H1042 0.950 . S
C1049 C1046 1.387 . S
C1050 C1051 1.387 . S
C1050 H1054 0.950 . S
C1050 C1059 1.390 . S
C1051 C1050 1.387 . S
C1051 C1053 1.387 . S
H1052 C1059 0.950 . S
C1053 C1051 1.387 . S
C1053 C1055 1.390 . S
C1053 H1057 0.950 . S
H1054 C1050 0.950 . S
C1055 C1053 1.390 . S
C1055 C1056 1.387 . S
C1055 H1058 0.950 . S
C1056 C1055 1.387 . S
C1056 C1059 1.387 . S
H1057 C1053 0.950 . S
H1058 C1055 0.950 . S
C1059 C1050 1.390 . S
C1059 H1052 0.950 . S
C1059 C1056 1.387 . S
C1060 C1061 1.387 . S
C1060 H1064 0.950 . S
C1060 C1069 1.390 . S
C1061 C1060 1.387 . S
C1061 C1063 1.387 . S
H1062 C1069 0.950 . S
C1063 C1061 1.387 . S
C1063 C1065 1.390 . S
C1063 H1067 0.950 . S
H1064 C1060 0.950 . S
C1065 C1063 1.390 . S
C1065 C1066 1.387 . S
C1065 H1068 0.950 . S
C1066 C1065 1.387 . S
C1066 C1069 1.387 . S
H1067 C1063 0.950 . S
H1068 C1065 0.950 . S
C1069 C1060 1.390 . S
C1069 H1062 0.950 . S
C1069 C1066 1.387 . S
C1070 C1071 1.387 . S
C1070 H1074 0.950 . S
C1070 C1079 1.390 1_455 S
C1071 C1070 1.387 . S
C1071 C1073 1.387 1_554 S
H1072 C1079 0.950 . S
C1073 C1071 1.387 1_556 S
C1073 C1075 1.390 1_455 S
C1073 H1077 0.950 . S
H1074 C1070 0.950 . S
C1075 C1073 1.390 1_655 S
C1075 C1076 1.387 . S
C1075 H1078 0.950 . S
C1076 C1075 1.387 . S
C1076 C1079 1.387 1_556 S
H1077 C1073 0.950 . S
H1078 C1075 0.950 . S
C1079 C1070 1.390 1_655 S
C1079 H1072 0.950 . S
C1079 C1076 1.387 1_554 S
C1080 C1081 1.387 . S
C1080 H1084 0.950 . S
C1080 C1089 1.390 . S
C1081 C1080 1.387 . S
C1081 C1083 1.387 . S
H1082 C1089 0.950 . S
C1083 C1081 1.387 . S
C1083 C1085 1.390 . S
C1083 H1087 0.950 . S
H1084 C1080 0.950 . S
C1085 C1083 1.390 . S
C1085 C1086 1.387 . S
C1085 H1088 0.950 . S
C1086 C1085 1.387 . S
C1086 C1089 1.387 . S
H1087 C1083 0.950 . S
H1088 C1085 0.950 . S
C1089 C1080 1.390 . S
C1089 H1082 0.950 . S
C1089 C1086 1.387 . S
C1090 C1091 1.387 . S
C1090 H1094 0.950 . S
C1090 C1099 1.390 . S
C1091 C1090 1.387 . S
C1091 C1093 1.387 . S
H1092 C1099 0.950 . S
C1093 C1091 1.387 . S
C1093 C1095 1.390 . S
C1093 H1097 0.950 . S
H1094 C1090 0.950 . S
C1095 C1093 1.390 . S
C1095 C1096 1.387 . S
C1095 H1098 0.950 . S
C1096 C1095 1.387 . S
C1096 C1099 1.387 . S
H1097 C1093 0.950 . S
H1098 C1095 0.950 . S
C1099 C1090 1.390 . S
C1099 H1092 0.950 . S
C1099 C1096 1.387 . S
C1100 C1101 1.387 1_554 S
C1100 H1104 0.950 . S
C1100 C1109 1.390 1_455 S
C1101 C1100 1.387 1_556 S
C1101 C1103 1.387 1_565 S
H1102 C1109 0.950 . S
C1103 C1101 1.387 1_545 S
C1103 C1105 1.390 1_455 S
C1103 H1107 0.950 . S
H1104 C1100 0.950 . S
C1105 C1103 1.390 1_655 S
C1105 C1106 1.387 1_556 S
C1105 H1108 0.950 . S
C1106 C1105 1.387 1_554 S
C1106 C1109 1.387 1_545 S
H1107 C1103 0.950 . S
H1108 C1105 0.950 . S
C1109 C1100 1.390 1_655 S
C1109 H1102 0.950 . S
C1109 C1106 1.387 1_565 S
C1110 C1111 1.387 . S
C1110 H1114 0.950 . S
C1110 C1119 1.390 . S
C1111 C1110 1.387 . S
C1111 C1113 1.387 1_565 S
H1112 C1119 0.950 . S
C1113 C1111 1.387 1_545 S
C1113 C1115 1.390 . S
C1113 H1117 0.950 . S
H1114 C1110 0.950 . S
C1115 C1113 1.390 . S
C1115 C1116 1.387 . S
C1115 H1118 0.950 . S
C1116 C1115 1.387 . S
C1116 C1119 1.387 1_545 S
H1117 C1113 0.950 . S
H1118 C1115 0.950 . S
C1119 C1110 1.390 . S
C1119 H1112 0.950 . S
C1119 C1116 1.387 1_565 S
C641 C19 3.425 . S
C646 C419 3.425 . S
C651 C59 3.427 . S
C656 C459 3.427 . S
C661 C99 3.425 . S
C666 C339 3.425 . S
C671 C139 3.425 . S
C676 C379 3.425 . S
C681 C169 3.425 . S
C686 C569 3.425 . S
C691 C209 3.427 . S
C696 C609 3.427 . S
C701 C249 3.425 . S
C706 C489 3.425 . S
C711 C289 3.427 . S
C716 C529 3.427 . S
C721 C378 3.768 . S
C726 C9 3.668 1_556 S
C731 C418 3.769 . S
C736 C49 3.673 . S
C741 C458 3.769 . S
C746 C89 3.673 . S
C751 C338 3.768 . S
C756 C129 3.675 . S
C761 C179 3.668 1_554 S
C766 C528 3.768 . S
C771 C568 3.768 . S
C776 C219 3.675 . S
C781 C608 3.769 . S
C786 C259 3.673 . S
C791 C488 3.768 . S
C796 C299 3.675 . S
C801 C58 3.768 . S
C806 C329 3.675 . S
C811 C369 3.674 . S
C816 C98 3.769 . S
C821 C409 3.666 1_556 S
C826 C138 3.769 . S
C831 C449 3.675 . S
C836 C18 3.768 . S
C841 C499 3.673 . S
C846 C208 3.769 . S
C851 C248 3.768 . S
C856 C539 3.675 . S
C861 C288 3.769 . S
C866 C579 3.666 1_554 S
C871 C619 3.675 . S
C876 C168 3.768 . S
C881 C15 0.686 . S
C886 C618 0.629 . S
C891 C55 0.693 . S
C896 C178 0.633 . S
C901 C538 0.633 . S
C906 C95 0.693 . S
C911 C258 0.627 . S
C916 C135 0.688 . S
C921 C165 0.690 . S
C926 C448 0.628 . S
C931 C205 0.687 . S
C936 C8 0.626 . S
C941 C368 0.627 . S
C946 C245 0.687 . S
C951 C88 0.626 . S
C956 C285 0.687 . S
C961 C335 0.689 . S
C966 C298 0.628 . S
C971 C375 0.694 . S
C976 C498 0.633 . S
C981 C218 0.626 . S
C986 C415 0.687 . S
C991 C578 0.634 . S
C996 C455 0.694 . S
C1001 C485 0.692 . S
C1006 C128 0.629 . S
C1011 C525 0.693 . S
C1016 C328 0.633 . S
C1021 C565 0.695 . S
C1026 C48 0.634 . S
C1031 C408 0.633 . S
C1036 C605 0.693 . S
C1041 C5 2.238 . S
C1046 C495 2.238 . S
C1051 C45 2.239 . S
C1056 C215 2.239 . S
C1061 C85 2.241 . S
C1066 C575 2.241 . S
C1071 C295 2.239 . S
C1076 C125 2.239 . S
C1081 C175 2.240 . S
C1086 C325 2.240 . S
C1091 C405 2.241 . S
C1096 C255 2.241 . S
C1101 C365 2.240 . S
C1106 C535 2.240 . S
C1111 C615 2.238 . S
C1116 C445 2.238 . S
