# Generated by pormake.
# Topology eci, (8)-cn, num edge types: 1
# Building blocks:
#     Node 0, Type 0, BuildingBlock: TAGTUT_clean_sbu_1, # of connection points: 8
#     Node 1, Type 0, BuildingBlock: TAGTUT_clean_sbu_1, # of connection points: 8
#     Node 2, Type 0, BuildingBlock: TAGTUT_clean_sbu_1, # of connection points: 8
#     Node 3, Type 0, BuildingBlock: TAGTUT_clean_sbu_1, # of connection points: 8
#     Edge 4, Type (0, 0), BuildingBlock: UVAHIK_clean_linker_0, # of connection points: 2
#     Edge 5, Type (0, 0), BuildingBlock: UVAHIK_clean_linker_0, # of connection points: 2
#     Edge 6, Type (0, 0), BuildingBlock: UVAHIK_clean_linker_0, # of connection points: 2
#     Edge 7, Type (0, 0), BuildingBlock: UVAHIK_clean_linker_0, # of connection points: 2
#     Edge 8, Type (0, 0), BuildingBlock: UVAHIK_clean_linker_0, # of connection points: 2
#     Edge 9, Type (0, 0), BuildingBlock: UVAHIK_clean_linker_0, # of connection points: 2
#     Edge 10, Type (0, 0), BuildingBlock: UVAHIK_clean_linker_0, # of connection points: 2
#     Edge 11, Type (0, 0), BuildingBlock: UVAHIK_clean_linker_0, # of connection points: 2
#     Edge 12, Type (0, 0), BuildingBlock: UVAHIK_clean_linker_0, # of connection points: 2
#     Edge 13, Type (0, 0), BuildingBlock: UVAHIK_clean_linker_0, # of connection points: 2
#     Edge 14, Type (0, 0), BuildingBlock: UVAHIK_clean_linker_0, # of connection points: 2
#     Edge 15, Type (0, 0), BuildingBlock: UVAHIK_clean_linker_0, # of connection points: 2
#     Edge 16, Type (0, 0), BuildingBlock: UVAHIK_clean_linker_0, # of connection points: 2
#     Edge 17, Type (0, 0), BuildingBlock: UVAHIK_clean_linker_0, # of connection points: 2
#     Edge 18, Type (0, 0), BuildingBlock: UVAHIK_clean_linker_0, # of connection points: 2
#     Edge 19, Type (0, 0), BuildingBlock: UVAHIK_clean_linker_0, # of connection points: 2
# Relax obj value: 0.208
# Max RMSD: 0.264
# Mean RMSD: 0.256
data_MOF--net-eci--node1-TAGTUT_clean_sbu_1--edge1-UVAHIK_clean_linker_0
_symmetry_space_group_name_H-M    P1
_symmetry_Int_Tables_number       1
_symmetry_cell_setting            triclinic
loop_
_symmetry_equiv_pos_as_xyz
'x, y, z'
_cell_length_a     36.139378
_cell_length_b     38.75561
_cell_length_c     23.199663
_cell_angle_alpha  93.67505
_cell_angle_beta   92.509578
_cell_angle_gamma 88.710028
loop_
_atom_site_label
_atom_site_type_symbol
_atom_site_fract_x
_atom_site_fract_y
_atom_site_fract_z
_atom_type_partial_charge
C0 C 0.81148 0.71219 0.15597 0.0
C1 C 0.84884 0.81226 0.21696 0.0
C2 C 0.76369 0.85851 0.03873 0.0
Mg3 Mg 0.87272 0.76037 0.11978 0.0
O4 O 0.83332 0.77404 0.07064 0.0
Mg5 Mg 0.78646 0.79026 0.10817 0.0
Mg6 Mg 0.83973 0.81281 0.02005 0.0
O7 O 0.84575 0.8512 0.96938 0.0
Mg8 Mg 0.80506 0.86123 0.92025 0.0
Mg9 Mg 0.89303 0.83633 0.93243 0.0
C10 C 0.91853 0.77056 0.00644 0.0
C11 C 0.91095 0.8584 0.0682 0.0
O12 O 0.78715 0.7361 0.14618 0.0
O13 O 0.84604 0.71547 0.14736 0.0
O14 O 0.81667 0.81193 0.19176 0.0
O15 O 0.87636 0.79638 0.19409 0.0
O16 O 0.91664 0.75976 0.05756 0.0
O17 O 0.89077 0.78522 0.98021 0.0
C18 C 0.76569 0.77041 0.97278 0.0
O19 O 0.79493 0.78526 0.95753 0.0
O20 O 0.75811 0.76913 0.02584 0.0
O21 O 0.88883 0.8904 0.8925 0.0
O22 O 0.82847 0.90659 0.89034 0.0
O23 O 0.86377 0.81287 0.8491 0.0
C24 C 0.8625 0.91242 0.88182 0.0
O25 O 0.80305 0.8242 0.84741 0.0
O26 O 0.76333 0.86635 0.98562 0.0
C27 C 0.83156 0.81028 0.82427 0.0
O28 O 0.79087 0.8415 0.06173 0.0
O29 O 0.88245 0.84198 0.08208 0.0
O30 O 0.91978 0.85942 0.01552 0.0
C31 C 0.6894 0.20299 0.15982 0.0
C32 C 0.67401 0.30034 0.07194 0.0
C33 C 0.75767 0.35798 0.24985 0.0
Mg34 Mg 0.63945 0.26868 0.17514 0.0
O35 O 0.68032 0.28278 0.2219 0.0
Mg36 Mg 0.72965 0.28063 0.18808 0.0
Mg37 Mg 0.68154 0.32892 0.26443 0.0
O38 O 0.68173 0.37546 0.31299 0.0
Mg39 Mg 0.72973 0.38414 0.36044 0.0
Mg40 Mg 0.62569 0.37458 0.34322 0.0
C41 C 0.60069 0.30119 0.2876 0.0
C42 C 0.61654 0.37436 0.20184 0.0
O43 O 0.71834 0.22193 0.16387 0.0
O44 O 0.65656 0.21572 0.16357 0.0
O45 O 0.70538 0.29568 0.09855 0.0
O46 O 0.64358 0.29398 0.09501 0.0
O47 O 0.59897 0.28214 0.24016 0.0
O48 O 0.62937 0.31838 0.30515 0.0
C49 C 0.73998 0.2776 0.32744 0.0
O50 O 0.71583 0.3019 0.33477 0.0
O51 O 0.74988 0.26657 0.27726 0.0
O52 O 0.67583 0.40746 0.32892 0.0
O53 O 0.72126 0.44088 0.35599 0.0
O54 O 0.65128 0.36221 0.43387 0.0
C55 C 0.68664 0.4384 0.34362 0.0
O56 O 0.71344 0.36634 0.44319 0.0
O57 O 0.76293 0.35058 0.30228 0.0
C58 C 0.68199 0.36008 0.4637 0.0
O59 O 0.73487 0.33975 0.21785 0.0
O60 O 0.64535 0.35487 0.19569 0.0
O61 O 0.60464 0.38439 0.25149 0.0
C62 C 0.24499 0.21595 0.36448 0.0
C63 C 0.14324 0.17238 0.29025 0.0
C64 C 0.08015 0.24794 0.47553 0.0
Mg65 Mg 0.1961 0.15564 0.3929 0.0
O66 O 0.17483 0.19227 0.4371 0.0
Mg67 Mg 0.157 0.2344 0.39803 0.0
Mg68 Mg 0.13383 0.18759 0.48886 0.0
O69 O 0.09313 0.18497 0.54433 0.0
Mg70 Mg 0.08359 0.22575 0.59364 0.0
Mg71 Mg 0.10968 0.14193 0.58137 0.0
C72 C 0.17941 0.11514 0.5056 0.0
C73 C 0.08624 0.11915 0.44807 0.0
O74 O 0.21611 0.23585 0.36561 0.0
O75 O 0.24428 0.184 0.37597 0.0
O76 O 0.13859 0.20239 0.31538 0.0
O77 O 0.16329 0.14913 0.31354 0.0
O78 O 0.19298 0.11597 0.45538 0.0
O79 O 0.16429 0.14197 0.5316 0.0
C80 C 0.17659 0.2598 0.53046 0.0
O81 O 0.16298 0.23225 0.5485 0.0
O82 O 0.17614 0.26522 0.47703 0.0
O83 O 0.05258 0.14885 0.62165 0.0
O84 O 0.03286 0.20484 0.62248 0.0
O85 O 0.13585 0.17033 0.66202 0.0
C86 C 0.02806 0.17289 0.63145 0.0
O87 O 0.12249 0.22673 0.66665 0.0
O88 O 0.09496 0.25932 0.52364 0.0
C89 C 0.13845 0.20037 0.6876 0.0
O90 O 0.10003 0.22921 0.4407 0.0
O91 O 0.1047 0.1442 0.43089 0.0
O92 O 0.08396 0.11429 0.5017 0.0
C93 C 0.27253 0.76627 0.58843 0.0
C94 C 0.33291 0.6826 0.49412 0.0
C95 C 0.27653 0.60047 0.65566 0.0
Mg96 Mg 0.34784 0.72805 0.6061 0.0
O97 O 0.31754 0.69985 0.64556 0.0
Mg98 Mg 0.27353 0.67872 0.60277 0.0
Mg99 Mg 0.33836 0.6602 0.68628 0.0
O100 O 0.35906 0.62072 0.72883 0.0
Mg101 Mg 0.3263 0.59871 0.77414 0.0
Mg102 Mg 0.40122 0.6447 0.7728 0.0
C103 C 0.40336 0.71764 0.71479 0.0
C104 C 0.41916 0.63694 0.63622 0.0
O105 O 0.25584 0.73698 0.58379 0.0
O106 O 0.30755 0.76852 0.59851 0.0
O107 O 0.30375 0.67262 0.51701 0.0
O108 O 0.35562 0.70295 0.5219 0.0
O109 O 0.39499 0.73258 0.66794 0.0
O110 O 0.3817 0.69561 0.73454 0.0
C111 C 0.25701 0.68032 0.73885 0.0
O112 O 0.29107 0.67277 0.75196 0.0
O113 O 0.24554 0.68385 0.68673 0.0
O114 O 0.41692 0.59064 0.80443 0.0
O115 O 0.36514 0.55918 0.80077 0.0
O116 O 0.3691 0.65671 0.85597 0.0
C117 C 0.40014 0.56233 0.81085 0.0
O118 O 0.31441 0.63116 0.84973 0.0
O119 O 0.28383 0.58937 0.70608 0.0
C120 C 0.33794 0.65078 0.87707 0.0
O121 O 0.29573 0.6243 0.63494 0.0
O122 O 0.38581 0.64673 0.62222 0.0
O123 O 0.42993 0.63405 0.68908 0.0
C124 C 0.82017 0.83651 0.30741 0.0
C125 C 0.85187 0.82396 0.27907 0.0
C126 C 0.81907 0.83697 0.36756 0.0
C127 C 0.8609 0.78832 0.48509 0.0
H128 H 0.80546 0.85337 0.58347 0.0
C129 C 0.8612 0.78693 0.7341 0.0
C130 C 0.82908 0.79863 0.76212 0.0
C131 C 0.86251 0.78658 0.67398 0.0
C132 C 0.82052 0.83466 0.5563 0.0
H133 H 0.9089 0.80644 0.29242 0.0
H134 H 0.90715 0.80802 0.3974 0.0
H135 H 0.81415 0.8657 0.48326 0.0
H136 H 0.77169 0.81499 0.74821 0.0
H137 H 0.7739 0.81381 0.64328 0.0
H138 H 0.86734 0.75733 0.5582 0.0
C139 C 0.88271 0.81628 0.37287 0.0
C140 C 0.82574 0.84188 0.49899 0.0
C141 C 0.88383 0.81579 0.31267 0.0
C142 C 0.79704 0.80621 0.72822 0.0
C143 C 0.79841 0.80595 0.66806 0.0
C144 C 0.85573 0.78112 0.54241 0.0
C145 C 0.84971 0.82514 0.40069 0.0
C146 C 0.84601 0.81881 0.46269 0.0
C147 C 0.83169 0.7978 0.64061 0.0
C148 C 0.83543 0.80418 0.57867 0.0
H149 H 0.79513 0.84337 0.283 0.0
H150 H 0.79325 0.84415 0.38755 0.0
H151 H 0.87592 0.76956 0.45795 0.0
H152 H 0.88631 0.78059 0.75877 0.0
H153 H 0.88854 0.77998 0.6542 0.0
C154 C 0.71352 0.34984 0.56029 0.0
C155 C 0.68076 0.35206 0.52553 0.0
C156 C 0.71215 0.34466 0.61934 0.0
C157 C 0.6492 0.35417 0.74181 0.0
H158 H 0.72197 0.29456 0.81554 0.0
C159 C 0.64004 0.31434 0.97863 0.0
C160 C 0.67349 0.31114 0.01146 0.0
C161 C 0.64023 0.32101 0.91992 0.0
C162 C 0.7017 0.31167 0.79587 0.0
H163 H 0.62079 0.34973 0.52601 0.0
H164 H 0.61853 0.34028 0.62857 0.0
H165 H 0.72372 0.30152 0.71218 0.0
H166 H 0.73329 0.31438 0.00855 0.0
H167 H 0.7335 0.32636 0.90707 0.0
H168 H 0.62717 0.36423 0.82573 0.0
C169 C 0.64528 0.34313 0.61033 0.0
C170 C 0.70269 0.31564 0.73645 0.0
C171 C 0.64664 0.34826 0.55127 0.0
C172 C 0.70696 0.31626 0.98469 0.0
C173 C 0.70713 0.3229 0.92619 0.0
C174 C 0.64821 0.3502 0.80136 0.0
C175 C 0.678 0.34155 0.64529 0.0
C176 C 0.67653 0.337 0.70859 0.0
C177 C 0.67386 0.32463 0.89266 0.0
C178 C 0.67456 0.329 0.82923 0.0
H179 H 0.74033 0.35265 0.54217 0.0
H180 H 0.73791 0.3439 0.64495 0.0
H181 H 0.62893 0.37122 0.72202 0.0
H182 H 0.61372 0.31075 -0.00219 0.0
H183 H 0.61406 0.32212 0.89546 0.0
C184 C 0.16963 0.17351 0.77233 0.0
C185 C 0.15227 0.20257 0.74868 0.0
C186 C 0.17136 0.17041 0.83203 0.0
C187 C 0.115 0.19712 0.95346 0.0
H188 H 0.19349 0.15597 0.04714 0.0
C189 C 0.11282 0.19433 0.20075 0.0
C190 C 0.13211 0.16758 0.22813 0.0
C191 C 0.1122 0.19545 0.14075 0.0
C192 C 0.17103 0.16686 0.02123 0.0
H193 H 0.12742 0.25308 0.76962 0.0
H194 H 0.13084 0.24775 0.8738 0.0
H195 H 0.20463 0.16816 0.94751 0.0
H196 H 0.16181 0.11872 0.21334 0.0
H197 H 0.15988 0.12029 0.1084 0.0
H198 H 0.08121 0.19554 0.02661 0.0
C199 C 0.14222 0.22701 0.84596 0.0
C200 C 0.1776 0.17417 0.96439 0.0
C201 C 0.14069 0.23022 0.78628 0.0
C202 C 0.14708 0.13994 0.19376 0.0
C203 C 0.1464 0.14104 0.13361 0.0
C204 C 0.10834 0.18962 0.01008 0.0
C205 C 0.15577 0.19632 0.86908 0.0
C206 C 0.14975 0.18968 0.93014 0.0
C207 C 0.13058 0.16969 0.10674 0.0
C208 C 0.13635 0.17465 0.04483 0.0
H209 H 0.17918 0.15187 0.74457 0.0
H210 H 0.18221 0.14655 0.84865 0.0
H211 H 0.09266 0.20825 0.92755 0.0
H212 H 0.10063 0.21588 0.22581 0.0
H213 H 0.09965 0.21788 0.12159 0.0
C214 C 0.30129 0.65051 0.96633 0.0
C215 C 0.33182 0.6623 0.93813 0.0
C216 C 0.29981 0.65476 0.02648 0.0
C217 C 0.32169 0.64084 0.15075 0.0
H218 H 0.35276 0.72261 0.24369 0.0
C219 C 0.36653 0.68826 0.40286 0.0
C220 C 0.33746 0.67419 0.43155 0.0
C221 C 0.36691 0.68558 0.34249 0.0
C222 C 0.34455 0.69939 0.21833 0.0
H223 H 0.38308 0.69052 0.95072 0.0
H224 H 0.38037 0.69793 0.05533 0.0
H225 H 0.34792 0.72395 0.13863 0.0
H226 H 0.28734 0.64423 0.41917 0.0
H227 H 0.28795 0.63982 0.31436 0.0
H228 H 0.31864 0.61614 0.23024 0.0
C229 C 0.35769 0.68524 0.03107 0.0
C230 C 0.34155 0.70025 0.15816 0.0
C231 C 0.35925 0.68091 0.97098 0.0
C232 C 0.31012 0.6555 0.39863 0.0
C233 C 0.3105 0.65288 0.33836 0.0
C234 C 0.32479 0.63994 0.21087 0.0
C235 C 0.32866 0.67108 0.05963 0.0
C236 C 0.33007 0.67099 0.1237 0.0
C237 C 0.33831 0.66873 0.3095 0.0
C238 C 0.33629 0.66919 0.2454 0.0
H239 H 0.27948 0.63635 0.94239 0.0
H240 H 0.27666 0.64425 0.04723 0.0
H241 H 0.31352 0.61762 0.12536 0.0
H242 H 0.38821 0.70258 0.42683 0.0
H243 H 0.38921 0.6974 0.32159 0.0
C244 C 0.45327 0.70749 0.79219 0.0
C245 C 0.44137 0.72276 0.74108 0.0
C246 C 0.49013 0.71022 0.81321 0.0
C247 C 0.58439 0.7331 0.76756 0.0
H248 H 0.60714 0.7381 0.93255 0.0
C249 C 0.72534 0.77556 0.88254 0.0
C250 C 0.7372 0.7568 0.93004 0.0
C251 C 0.69145 0.76806 0.85289 0.0
C252 C 0.60126 0.73639 0.88628 0.0
H253 H 0.45895 0.75458 0.67383 0.0
H254 H 0.52205 0.76064 0.71171 0.0
H255 H 0.54306 0.73329 0.89703 0.0
H256 H 0.72462 0.71374 0.98058 0.0
H257 H 0.666 0.70064 0.92894 0.0
H258 H 0.64291 0.73756 0.75753 0.0
C259 C 0.50354 0.74521 0.73441 0.0
C260 C 0.56445 0.73348 0.86581 0.0
C261 C 0.46696 0.74206 0.71302 0.0
C262 C 0.71614 0.72872 0.94422 0.0
C263 C 0.68241 0.72138 0.915 0.0
C264 C 0.62125 0.73654 0.78818 0.0
C265 C 0.51591 0.72891 0.78431 0.0
C266 C 0.55539 0.73171 0.80612 0.0
C267 C 0.66892 0.74188 0.8707 0.0
C268 C 0.63007 0.73802 0.84777 0.0
H269 H 0.43431 0.69321 0.81593 0.0
H270 H 0.49847 0.69713 0.85166 0.0
H271 H 0.57876 0.73118 0.72127 0.0
H272 H 0.74051 0.79776 0.87144 0.0
H273 H 0.68168 0.78431 0.81888 0.0
C274 C 0.72532 0.14852 0.13236 0.0
C275 C 0.69367 0.16491 0.15532 0.0
C276 C 0.72856 0.11239 0.12856 0.0
C277 C 0.69823 0.03389 0.1899 0.0
H278 H 0.71498 0.98955 0.03848 0.0
C279 C 0.70621 0.89373 0.05088 0.0
C280 C 0.73861 0.87942 0.07616 0.0
C281 C 0.6923 0.92561 0.07242 0.0
C282 C 0.70987 0.00157 0.08093 0.0
H283 H 0.64133 0.15638 0.19431 0.0
H284 H 0.6475 0.09353 0.18852 0.0
H285 H 0.71223 0.05251 0.05084 0.0
H286 H 0.77747 0.88372 0.15012 0.0
H287 H 0.75278 0.93929 0.18809 0.0
H288 H 0.6971 0.98261 0.22014 0.0
C289 C 0.66948 0.10858 0.17299 0.0
C290 C 0.70882 0.03754 0.08806 0.0
C291 C 0.66587 0.14453 0.17569 0.0
C292 C 0.75263 0.89424 0.12939 0.0
C293 C 0.73863 0.92623 0.15105 0.0
C294 C 0.70004 -0.00228 0.18298 0.0
C295 C 0.70064 0.09218 0.14892 0.0
C296 C 0.70296 0.05403 0.1425 0.0
C297 C 0.71034 0.94333 0.11989 0.0
C298 C 0.70559 0.9813 0.12826 0.0
H299 H 0.74721 0.16356 0.11658 0.0
H300 H 0.7529 0.10019 0.10986 0.0
H301 H 0.69369 0.04616 0.23235 0.0
H302 H 0.69448 0.88254 0.01031 0.0
H303 H 0.6699 0.93804 0.04842 0.0
C304 C 0.28322 0.26805 0.35543 0.0
C305 C 0.28115 0.23205 0.35943 0.0
C306 C 0.31726 0.28436 0.36202 0.0
C307 C 0.41117 0.27116 0.42492 0.0
H308 H 0.44138 0.33328 0.31201 0.0
C309 C 0.55312 0.27279 0.33898 0.0
C310 C 0.56791 0.30343 0.32217 0.0
C311 C 0.519 0.2734 0.36435 0.0
C312 C 0.43302 0.31692 0.34513 0.0
H313 H 0.31344 0.18474 0.36977 0.0
H314 H 0.37283 0.21316 0.37985 0.0
H315 H 0.37728 0.31503 0.31038 0.0
H316 H 0.5601 0.35895 0.32062 0.0
H317 H 0.49945 0.35996 0.36376 0.0
H318 H 0.46757 0.27114 0.45694 0.0
C319 C 0.34795 0.22883 0.37346 0.0
C320 C 0.39641 0.3063 0.34389 0.0
C321 C 0.31399 0.2125 0.36682 0.0
C322 C 0.54927 0.33507 0.3338 0.0
C323 C 0.51467 0.33565 0.35835 0.0
C324 C 0.44775 0.28173 0.4261 0.0
C325 C 0.34974 0.26495 0.37269 0.0
C326 C 0.38577 0.2819 0.38179 0.0
C327 C 0.49886 0.30464 0.37221 0.0
C328 C 0.45933 0.30318 0.38418 0.0
H329 H 0.25843 0.28392 0.3497 0.0
H330 H 0.31802 0.31222 0.36072 0.0
H331 H 0.40325 0.25303 0.45564 0.0
H332 H 0.56728 0.24818 0.33029 0.0
H333 H 0.50717 0.24903 0.37371 0.0
C334 C 0.26408 0.82803 0.62197 0.0
C335 C 0.25126 0.79941 0.58695 0.0
C336 C 0.24688 0.86046 0.61897 0.0
C337 C 0.19671 0.91349 0.51769 0.0
H338 H 0.18337 0.97609 0.65287 0.0
C339 C 0.15654 0.05542 0.48972 0.0
C340 C 0.17476 0.08038 0.52648 0.0
C341 C 0.15746 0.02069 0.50235 0.0
C342 C 0.18716 0.95909 0.61461 0.0
H343 H 0.20946 0.78218 0.52248 0.0
H344 H 0.17959 0.8397 0.51593 0.0
H345 H 0.19953 0.91533 0.66476 0.0
H346 H 0.20731 0.08898 0.60624 0.0
H347 H 0.21036 0.02782 0.62777 0.0
H348 H 0.18649 0.95715 0.46739 0.0
C349 C 0.203 0.83665 0.54608 0.0
C350 C 0.19618 0.92418 0.62145 0.0
C351 C 0.21993 0.80377 0.54991 0.0
C352 C 0.19267 0.07022 0.57765 0.0
C353 C 0.19431 0.03513 0.58983 0.0
C354 C 0.1881 0.9484 0.51082 0.0
C355 C 0.2166 0.86541 0.58028 0.0
C356 C 0.20168 0.9011 0.57307 0.0
C357 C 0.17765 0.00972 0.55131 0.0
C358 C 0.18372 0.9719 0.55919 0.0
H359 H 0.28795 0.82548 0.65144 0.0
H360 H 0.25834 0.88202 0.64541 0.0
H361 H 0.20136 0.89656 0.47959 0.0
H362 H 0.14262 0.06262 0.44982 0.0
H363 H 0.14331 0.00228 0.47249 0.0
C364 C 0.98732 0.77334 0.01463 0.0
C365 C 0.95495 0.76734 0.97988 0.0
C366 C 0.02221 0.76528 -0.00686 0.0
C367 C 0.06631 0.70267 0.89699 0.0
H368 H 0.14953 0.76429 0.89941 0.0
C369 C 0.19343 0.66926 0.76602 0.0
C370 C 0.22821 0.68304 0.7823 0.0
C371 C 0.16265 0.67751 0.79844 0.0
C372 C 0.12689 0.74648 0.89965 0.0
H373 H 0.93357 0.74947 0.89488 0.0
H374 H -0.00511 0.73423 0.85754 0.0
H375 H 0.09005 0.78577 0.93543 0.0
H376 H 0.25877 0.71435 0.84781 0.0
H377 H 0.20453 0.72842 0.90636 0.0
H378 H 0.1028 0.66304 0.86329 0.0
C379 C 0.99309 0.74557 0.90126 0.0
C380 C 0.09272 0.75896 0.91962 0.0
C381 C 0.95813 0.75447 0.92236 0.0
C382 C 0.23223 0.70334 0.83443 0.0
C383 C 0.20106 0.71172 0.86736 0.0
C384 C 0.10053 0.69001 0.87826 0.0
C385 C 0.02536 0.75031 0.93689 0.0
C386 C 0.06191 0.73734 0.9171 0.0
C387 C 0.16561 0.69968 0.8487 0.0
C388 C 0.13111 0.71193 0.8777 0.0
H389 H 0.98556 0.78339 0.05913 0.0
H390 H 0.0466 0.76915 0.02145 0.0
H391 H 0.04324 0.68524 0.89604 0.0
H392 H 0.18956 0.65338 0.72609 0.0
H393 H 0.13608 0.66801 0.7818 0.0
C394 C 0.73048 0.41138 0.20645 0.0
C395 C 0.75832 0.39526 0.24015 0.0
C396 C 0.7304 0.44717 0.20167 0.0
C397 C 0.77101 0.52759 0.27171 0.0
H398 H 0.74813 0.56495 0.1229 0.0
C399 C 0.82407 0.65704 0.20401 0.0
C400 C 0.79906 0.67888 0.17499 0.0
C401 C 0.81336 0.62431 0.21784 0.0
C402 C 0.75401 0.55492 0.16493 0.0
H403 H 0.80837 0.40362 0.29349 0.0
H404 H 0.80917 0.46567 0.28332 0.0
H405 H 0.74066 0.50334 0.13399 0.0
H406 H 0.74297 0.68393 0.13874 0.0
H407 H 0.72456 0.62614 0.16182 0.0
H408 H 0.78621 0.57901 0.30158 0.0
C409 C 0.78665 0.45104 0.26227 0.0
C410 C 0.74969 0.51965 0.17137 0.0
C411 C 0.78647 0.41544 0.26761 0.0
C412 C 0.7628 0.66769 0.16133 0.0
C413 C 0.75229 0.63464 0.17424 0.0
C414 C 0.77579 0.56272 0.26502 0.0
C415 C 0.7584 0.46745 0.22982 0.0
C416 C 0.759 0.50543 0.22449 0.0
C417 C 0.77763 0.61258 0.20208 0.0
C418 C 0.76804 0.57653 0.21128 0.0
H419 H 0.70821 0.39659 0.18507 0.0
H420 H 0.70807 0.459 0.17674 0.0
H421 H 0.77745 0.51767 0.31365 0.0
H422 H 0.85213 0.66503 0.21531 0.0
H423 H 0.8335 0.60765 0.2389 0.0
C424 C 0.77594 0.28275 0.42133 0.0
C425 C 0.75823 0.262 0.37728 0.0
C426 C 0.80286 0.26806 0.4579 0.0
C427 C 0.87114 0.20164 0.42995 0.0
H428 H 0.91592 0.23995 0.57401 0.0
C429 C 0.02801 0.20623 0.45654 0.0
C430 C 0.04109 0.23844 0.47892 0.0
C431 C 0.99138 0.19725 0.46378 0.0
C432 C 0.90376 0.22887 0.53371 0.0
H433 H 0.74957 0.20957 0.34219 0.0
H434 H 0.79551 0.18372 0.40732 0.0
H435 H 0.84897 0.24565 0.5561 0.0
H436 H 0.02645 0.28628 0.52665 0.0
H437 H 0.96207 0.27195 0.53542 0.0
H438 H 0.92552 0.18789 0.40456 0.0
C439 C 0.7898 0.21128 0.41266 0.0
C440 C 0.86542 0.23192 0.52376 0.0
C441 C 0.7636 0.22602 0.3754 0.0
C442 C 0.01697 0.26134 0.50875 0.0
C443 C 0.98021 0.25276 0.51479 0.0
C444 C 0.90931 0.19905 0.43949 0.0
C445 C 0.81185 0.2325 0.45088 0.0
C446 C 0.84906 0.21998 0.4704 0.0
C447 C 0.96677 0.22075 0.49186 0.0
C448 C 0.92633 0.21447 0.48997 0.0
H449 H 0.77193 0.31059 0.42351 0.0
H450 H 0.81932 0.28517 0.48696 0.0
H451 H 0.85964 0.19235 0.38806 0.0
H452 H 0.04608 0.18782 0.43404 0.0
H453 H 0.98219 0.17216 0.44632 0.0
C454 C 0.16498 0.31023 0.59956 0.0
C455 C 0.19034 0.28875 0.56934 0.0
C456 C 0.17269 0.34533 0.61287 0.0
C457 C 0.24706 0.41175 0.6075 0.0
H458 H 0.16362 0.47362 0.57707 0.0
C459 C 0.27199 0.55442 0.57756 0.0
C460 C 0.2537 0.57647 0.61798 0.0
C461 C 0.26025 0.52035 0.56554 0.0
C462 C 0.18718 0.45665 0.58559 0.0
H463 H 0.24463 0.2863 0.53355 0.0
H464 H 0.25836 0.34656 0.55696 0.0
H465 H 0.15364 0.41159 0.57991 0.0
H466 H 0.20608 0.58172 0.6714 0.0
H467 H 0.18446 0.52304 0.64817 0.0
H468 H 0.28063 0.45674 0.61175 0.0
C469 C 0.23261 0.33694 0.57115 0.0
C470 C 0.18146 0.42105 0.58801 0.0
C471 C 0.22493 0.30206 0.55812 0.0
C472 C 0.22035 0.5655 0.63929 0.0
C473 C 0.20829 0.53163 0.62665 0.0
C474 C 0.2528 0.44716 0.60423 0.0
C475 C 0.20587 0.35958 0.59604 0.0
C476 C 0.21137 0.39796 0.59872 0.0
C477 C 0.22957 0.50799 0.59281 0.0
C478 C 0.22301 0.47007 0.59287 0.0
H479 H 0.13778 0.30089 0.60767 0.0
H480 H 0.15173 0.36165 0.6334 0.0
H481 H 0.27076 0.39519 0.61705 0.0
H482 H 0.29812 0.56185 0.56128 0.0
H483 H 0.27684 0.50293 0.53836 0.0
C484 C 0.07933 0.08798 0.34964 0.0
C485 C 0.06745 0.09423 0.40625 0.0
C486 C 0.06344 0.06158 0.31311 0.0
C487 C 0.00948 0.98122 0.31945 0.0
H488 H 0.9913 0.99116 0.15551 0.0
C489 C 0.91973 0.88755 0.16804 0.0
C490 C 0.93279 0.87954 0.11245 0.0
C491 C 0.93795 0.91193 0.20587 0.0
C492 C -0.00345 0.98787 0.20118 0.0
H493 H 0.02828 0.0791 0.46786 0.0
H494 H 9e-05 0.0342 0.40414 0.0
H495 H 0.01898 0.03848 0.21561 0.0
H496 H 0.97673 0.88906 0.05476 0.0
H497 H 0.00814 0.93115 0.12045 0.0
H498 H 0.98634 0.93077 0.30493 0.0
C499 C 0.02246 0.0486 0.3883 0.0
C500 C 0.01251 0.01498 0.23559 0.0
C501 C 0.03848 0.0746 0.42474 0.0
C502 C 0.96551 0.89493 0.09689 0.0
C503 C 0.98349 0.91925 0.1344 0.0
C504 C 0.99325 0.95421 0.28508 0.0
C505 C 0.03518 0.0412 0.33244 0.0
C506 C 0.01907 0.01207 0.29524 0.0
C507 C 0.9694 0.92874 0.18864 0.0
C508 C 0.98664 0.95724 0.22556 0.0
H509 H 0.10172 0.1026 0.33434 0.0
H510 H 0.07404 0.0565 0.27041 0.0
H511 H 0.0148 0.97775 0.36504 0.0
H512 H 0.89463 0.87618 0.18139 0.0
H513 H 0.92648 0.91872 0.24754 0.0
C514 C 0.62188 0.46017 0.35786 0.0
C515 C 0.65979 0.46705 0.35655 0.0
C516 C 0.59637 0.48625 0.37348 0.0
C517 C 0.5919 0.57247 0.45284 0.0
H518 H 0.48728 0.56156 0.41315 0.0
C519 C 0.48307 0.61879 0.60986 0.0
C520 C 0.44666 0.62771 0.59166 0.0
C521 C 0.50909 0.60732 0.57024 0.0
C522 C 0.51636 0.56566 0.42395 0.0
H523 H 0.70039 0.50749 0.36656 0.0
H524 H 0.65563 0.55367 0.39167 0.0
H525 H 0.53276 0.52715 0.35953 0.0
H526 H 0.40968 0.63303 0.51647 0.0
H527 H 0.45582 0.61335 0.44628 0.0
H528 H 0.57558 0.61178 0.51586 0.0
C529 C 0.64566 0.52766 0.38293 0.0
C530 C 0.54261 0.54534 0.39383 0.0
C531 C 0.67141 0.50122 0.36832 0.0
C532 C 0.4374 0.62615 0.53202 0.0
C533 C 0.46382 0.61472 0.49187 0.0
C534 C 0.56575 0.59332 0.48193 0.0
C535 C 0.60778 0.5204 0.38699 0.0
C536 C 0.58066 0.54711 0.40994 0.0
C537 C 0.49995 0.60472 0.51068 0.0
C538 C 0.52752 0.58885 0.47017 0.0
H539 H 0.61174 0.43436 0.34848 0.0
H540 H 0.56785 0.47906 0.37704 0.0
H541 H 0.62073 0.57499 0.46676 0.0
H542 H 0.49155 0.61972 0.65529 0.0
H543 H 0.53609 0.59915 0.58699 0.0
C544 C 0.98208 0.17541 0.70833 0.0
C545 C 0.99322 0.16224 0.654 0.0
C546 C 0.95558 0.15801 0.73706 0.0
C547 C 0.89014 0.0847 0.72196 0.0
H548 H 0.93864 0.05839 0.86553 0.0
C549 C 0.9083 0.95646 0.85768 0.0
C550 C 0.87141 0.94629 0.86047 0.0
C551 C 0.91628 0.98887 0.83881 0.0
C552 C 0.92463 0.06563 0.82571 0.0
H553 H 0.98338 0.12346 0.58408 0.0
H554 H 0.93687 0.09346 0.63335 0.0
H555 H 0.96024 0.10827 0.81879 0.0
H556 H 0.81391 0.96237 0.84563 0.0
H557 H 0.82802 0.0187 0.81252 0.0
H558 H 0.85609 0.04066 0.72708 0.0
C559 C 0.94827 0.1169 0.65427 0.0
C560 C 0.93659 0.09453 0.79941 0.0
C561 C 0.97502 0.13391 0.62611 0.0
C562 C 0.8427 0.96928 0.84395 0.0
C563 C 0.8507 0.00158 0.82487 0.0
C564 C 0.87809 0.05586 0.7484 0.0
C565 C 0.93977 0.12764 0.71125 0.0
C566 C 0.92045 0.1035 0.74606 0.0
C567 C 0.88755 0.01172 0.82214 0.0
C568 C 0.89623 0.04528 0.79932 0.0
H569 H -0.00392 0.19717 0.73053 0.0
H570 H 0.94929 0.16692 0.78083 0.0
H571 H 0.8771 0.09117 0.68098 0.0
H572 H 0.93105 0.93945 0.87018 0.0
H573 H 0.94501 0.99579 0.8362 0.0
C574 C 0.61128 0.39432 0.10138 0.0
C575 C 0.59448 0.38371 0.15045 0.0
C576 C 0.58942 0.40613 0.05509 0.0
C577 C 0.4947 0.44213 0.02833 0.0
H578 H 0.52431 0.44098 0.86958 0.0
C579 C 0.40361 0.50595 0.85772 0.0
C580 C 0.42171 0.533 0.83368 0.0
C581 C 0.42401 0.48077 0.88638 0.0
C582 C 0.5157 0.44117 0.91374 0.0
H583 H 0.54233 0.37353 0.18795 0.0
H584 H 0.50425 0.39191 0.10632 0.0
H585 H 0.56121 0.40848 0.9397 0.0
H586 H 0.47543 0.55321 0.81658 0.0
H587 H 0.51099 0.50895 0.86658 0.0
H588 H 0.44924 0.47455 0.00243 0.0
C589 C 0.53405 0.39331 0.10435 0.0
C590 C 0.5369 0.42285 0.954 0.0
C591 C 0.5558 0.38259 0.15106 0.0
C592 C 0.46067 0.53293 0.83529 0.0
C593 C 0.48106 0.50745 0.86335 0.0
C594 C 0.47327 0.45971 0.98804 0.0
C595 C 0.55045 0.40662 0.05677 0.0
C596 C 0.52688 0.4235 0.01207 0.0
C597 C 0.46283 0.4819 0.89079 0.0
C598 C 0.4838 0.45979 0.93067 0.0
H599 H 0.64119 0.395 0.10001 0.0
H600 H 0.60312 0.41625 0.01939 0.0
H601 H 0.48655 0.4443 0.07278 0.0
H602 H 0.37365 0.50515 0.85696 0.0
H603 H 0.40941 0.46117 0.90712 0.0
loop_
_geom_bond_atom_site_label_1
_geom_bond_atom_site_label_2
_geom_bond_distance
_geom_bond_site_symmetry_2
_ccdc_geom_bond_type
C0 O12 1.241 . S
C0 O13 1.280 . S
C1 O14 1.277 . S
C1 O15 1.245 . S
C2 O26 1.247 1_554 S
C2 O28 1.289 . S
Mg3 O4 1.926 . S
Mg3 O13 1.984 . S
Mg3 O15 1.988 . S
Mg3 O16 2.061 . S
O4 Mg3 1.926 . S
O4 Mg5 1.986 . S
O4 Mg6 1.917 . S
Mg5 O4 1.986 . S
Mg5 O12 2.042 . S
Mg5 O14 2.041 . S
Mg5 O20 2.038 . S
Mg5 O28 2.238 . S
Mg6 O4 1.917 . S
Mg6 O7 1.917 1_554 S
Mg6 O17 2.106 1_554 S
Mg6 O19 2.079 1_554 S
Mg6 O28 2.106 . S
Mg6 O29 2.079 . S
O7 Mg6 1.917 1_556 S
O7 Mg8 1.926 . S
O7 Mg9 1.986 . S
Mg8 O7 1.926 . S
Mg8 O22 1.984 . S
Mg8 O25 1.988 . S
Mg8 O26 2.061 . S
Mg9 O7 1.986 . S
Mg9 O17 2.238 . S
Mg9 O21 2.042 . S
Mg9 O23 2.041 . S
Mg9 O30 2.038 1_556 S
C10 O16 1.247 1_556 S
C10 O17 1.289 . S
C11 O29 1.245 . S
C11 O30 1.274 . S
O12 C0 1.241 . S
O12 Mg5 2.042 . S
O13 C0 1.280 . S
O13 Mg3 1.984 . S
O14 C1 1.277 . S
O14 Mg5 2.041 . S
O15 C1 1.245 . S
O15 Mg3 1.988 . S
O16 Mg3 2.061 . S
O16 C10 1.247 1_554 S
O17 Mg6 2.106 1_556 S
O17 Mg9 2.238 . S
O17 C10 1.289 . S
C18 O19 1.245 . S
C18 O20 1.274 1_556 S
O19 Mg6 2.079 1_556 S
O19 C18 1.245 . S
O20 Mg5 2.038 . S
O20 C18 1.274 1_554 S
O21 Mg9 2.042 . S
O21 C24 1.241 . S
O22 Mg8 1.984 . S
O22 C24 1.280 . S
O23 Mg9 2.041 . S
O23 C27 1.277 . S
C24 O21 1.241 . S
C24 O22 1.280 . S
O25 Mg8 1.988 . S
O25 C27 1.245 . S
O26 C2 1.247 1_556 S
O26 Mg8 2.061 . S
C27 O23 1.277 . S
C27 O25 1.245 . S
O28 C2 1.289 . S
O28 Mg5 2.238 . S
O28 Mg6 2.106 . S
O29 Mg6 2.079 . S
O29 C11 1.245 . S
O30 Mg9 2.038 1_554 S
O30 C11 1.274 . S
C31 O43 1.241 . S
C31 O44 1.280 . S
C32 O45 1.277 . S
C32 O46 1.245 . S
C33 O57 1.247 . S
C33 O59 1.289 . S
Mg34 O35 1.926 . S
Mg34 O44 1.984 . S
Mg34 O46 1.988 . S
Mg34 O47 2.061 . S
O35 Mg34 1.926 . S
O35 Mg36 1.986 . S
O35 Mg37 1.917 . S
Mg36 O35 1.986 . S
Mg36 O43 2.042 . S
Mg36 O45 2.041 . S
Mg36 O51 2.038 . S
Mg36 O59 2.238 . S
Mg37 O35 1.917 . S
Mg37 O38 1.917 . S
Mg37 O48 2.106 . S
Mg37 O50 2.079 . S
Mg37 O59 2.106 . S
Mg37 O60 2.079 . S
O38 Mg37 1.917 . S
O38 Mg39 1.926 . S
O38 Mg40 1.986 . S
Mg39 O38 1.926 . S
Mg39 O53 1.984 . S
Mg39 O56 1.988 . S
Mg39 O57 2.061 . S
Mg40 O38 1.986 . S
Mg40 O48 2.238 . S
Mg40 O52 2.042 . S
Mg40 O54 2.041 . S
Mg40 O61 2.038 . S
C41 O47 1.247 . S
C41 O48 1.289 . S
C42 O60 1.245 . S
C42 O61 1.274 . S
O43 C31 1.241 . S
O43 Mg36 2.042 . S
O44 C31 1.280 . S
O44 Mg34 1.984 . S
O45 C32 1.277 . S
O45 Mg36 2.041 . S
O46 C32 1.245 . S
O46 Mg34 1.988 . S
O47 Mg34 2.061 . S
O47 C41 1.247 . S
O48 Mg37 2.106 . S
O48 Mg40 2.238 . S
O48 C41 1.289 . S
C49 O50 1.245 . S
C49 O51 1.274 . S
O50 Mg37 2.079 . S
O50 C49 1.245 . S
O51 Mg36 2.038 . S
O51 C49 1.274 . S
O52 Mg40 2.042 . S
O52 C55 1.241 . S
O53 Mg39 1.984 . S
O53 C55 1.280 . S
O54 Mg40 2.041 . S
O54 C58 1.277 . S
C55 O52 1.241 . S
C55 O53 1.280 . S
O56 Mg39 1.988 . S
O56 C58 1.245 . S
O57 C33 1.247 . S
O57 Mg39 2.061 . S
C58 O54 1.277 . S
C58 O56 1.245 . S
O59 C33 1.289 . S
O59 Mg36 2.238 . S
O59 Mg37 2.106 . S
O60 Mg37 2.079 . S
O60 C42 1.245 . S
O61 Mg40 2.038 . S
O61 C42 1.274 . S
C62 O74 1.241 . S
C62 O75 1.280 . S
C63 O76 1.277 . S
C63 O77 1.245 . S
C64 O88 1.247 . S
C64 O90 1.289 . S
Mg65 O66 1.926 . S
Mg65 O75 1.984 . S
Mg65 O77 1.988 . S
Mg65 O78 2.061 . S
O66 Mg65 1.926 . S
O66 Mg67 1.986 . S
O66 Mg68 1.917 . S
Mg67 O66 1.986 . S
Mg67 O74 2.042 . S
Mg67 O76 2.041 . S
Mg67 O82 2.038 . S
Mg67 O90 2.238 . S
Mg68 O66 1.917 . S
Mg68 O69 1.917 . S
Mg68 O79 2.106 . S
Mg68 O81 2.079 . S
Mg68 O90 2.106 . S
Mg68 O91 2.079 . S
O69 Mg68 1.917 . S
O69 Mg70 1.926 . S
O69 Mg71 1.986 . S
Mg70 O69 1.926 . S
Mg70 O84 1.984 . S
Mg70 O87 1.988 . S
Mg70 O88 2.061 . S
Mg71 O69 1.986 . S
Mg71 O79 2.238 . S
Mg71 O83 2.042 . S
Mg71 O85 2.041 . S
Mg71 O92 2.038 . S
C72 O78 1.247 . S
C72 O79 1.289 . S
C73 O91 1.245 . S
C73 O92 1.274 . S
O74 C62 1.241 . S
O74 Mg67 2.042 . S
O75 C62 1.280 . S
O75 Mg65 1.984 . S
O76 C63 1.277 . S
O76 Mg67 2.041 . S
O77 C63 1.245 . S
O77 Mg65 1.988 . S
O78 Mg65 2.061 . S
O78 C72 1.247 . S
O79 Mg68 2.106 . S
O79 Mg71 2.238 . S
O79 C72 1.289 . S
C80 O81 1.245 . S
C80 O82 1.274 . S
O81 Mg68 2.079 . S
O81 C80 1.245 . S
O82 Mg67 2.038 . S
O82 C80 1.274 . S
O83 Mg71 2.042 . S
O83 C86 1.241 . S
O84 Mg70 1.984 . S
O84 C86 1.280 . S
O85 Mg71 2.041 . S
O85 C89 1.277 . S
C86 O83 1.241 . S
C86 O84 1.280 . S
O87 Mg70 1.988 . S
O87 C89 1.245 . S
O88 C64 1.247 . S
O88 Mg70 2.061 . S
C89 O85 1.277 . S
C89 O87 1.245 . S
O90 C64 1.289 . S
O90 Mg67 2.238 . S
O90 Mg68 2.106 . S
O91 Mg68 2.079 . S
O91 C73 1.245 . S
O92 Mg71 2.038 . S
O92 C73 1.274 . S
C93 O105 1.241 . S
C93 O106 1.280 . S
C94 O107 1.277 . S
C94 O108 1.245 . S
C95 O119 1.247 . S
C95 O121 1.289 . S
Mg96 O97 1.926 . S
Mg96 O106 1.984 . S
Mg96 O108 1.988 . S
Mg96 O109 2.061 . S
O97 Mg96 1.926 . S
O97 Mg98 1.986 . S
O97 Mg99 1.917 . S
Mg98 O97 1.986 . S
Mg98 O105 2.042 . S
Mg98 O107 2.041 . S
Mg98 O113 2.038 . S
Mg98 O121 2.238 . S
Mg99 O97 1.917 . S
Mg99 O100 1.917 . S
Mg99 O110 2.106 . S
Mg99 O112 2.079 . S
Mg99 O121 2.106 . S
Mg99 O122 2.079 . S
O100 Mg99 1.917 . S
O100 Mg101 1.926 . S
O100 Mg102 1.986 . S
Mg101 O100 1.926 . S
Mg101 O115 1.984 . S
Mg101 O118 1.988 . S
Mg101 O119 2.061 . S
Mg102 O100 1.986 . S
Mg102 O110 2.238 . S
Mg102 O114 2.042 . S
Mg102 O116 2.041 . S
Mg102 O123 2.038 . S
C103 O109 1.247 . S
C103 O110 1.289 . S
C104 O122 1.245 . S
C104 O123 1.274 . S
O105 C93 1.241 . S
O105 Mg98 2.042 . S
O106 C93 1.280 . S
O106 Mg96 1.984 . S
O107 C94 1.277 . S
O107 Mg98 2.041 . S
O108 C94 1.245 . S
O108 Mg96 1.988 . S
O109 Mg96 2.061 . S
O109 C103 1.247 . S
O110 Mg99 2.106 . S
O110 Mg102 2.238 . S
O110 C103 1.289 . S
C111 O112 1.245 . S
C111 O113 1.274 . S
O112 Mg99 2.079 . S
O112 C111 1.245 . S
O113 Mg98 2.038 . S
O113 C111 1.274 . S
O114 Mg102 2.042 . S
O114 C117 1.241 . S
O115 Mg101 1.984 . S
O115 C117 1.280 . S
O116 Mg102 2.041 . S
O116 C120 1.277 . S
C117 O114 1.241 . S
C117 O115 1.280 . S
O118 Mg101 1.988 . S
O118 C120 1.245 . S
O119 C95 1.247 . S
O119 Mg101 2.061 . S
C120 O116 1.277 . S
C120 O118 1.245 . S
O121 C95 1.289 . S
O121 Mg98 2.238 . S
O121 Mg99 2.106 . S
O122 Mg99 2.079 . S
O122 C104 1.245 . S
O123 Mg102 2.038 . S
O123 C104 1.274 . S
C124 C125 1.349 . S
C124 C126 1.327 . S
C124 H149 0.950 . S
C125 C124 1.349 . S
C125 C141 1.349 . S
C126 C124 1.327 . S
C126 C145 1.429 . S
C126 H150 0.950 . S
C127 C144 1.574 . S
C127 C146 1.368 . S
C127 H151 0.949 . S
H128 C132 0.949 . S
C129 C130 1.349 . S
C129 C131 1.327 . S
C129 H152 0.950 . S
C130 C129 1.349 . S
C130 C142 1.349 . S
C131 C129 1.327 . S
C131 C147 1.429 . S
C131 H153 0.950 . S
C132 H128 0.949 . S
C132 C140 1.574 . S
C132 C148 1.368 . S
H133 C141 0.950 . S
H134 C139 0.950 . S
H135 C140 0.949 . S
H136 C142 0.950 . S
H137 C143 0.950 . S
H138 C144 0.949 . S
C139 H134 0.950 . S
C139 C141 1.327 . S
C139 C145 1.429 . S
C140 C132 1.574 . S
C140 H135 0.949 . S
C140 C146 1.368 . S
C141 C125 1.349 . S
C141 H133 0.950 . S
C141 C139 1.327 . S
C142 C130 1.349 . S
C142 H136 0.950 . S
C142 C143 1.327 . S
C143 H137 0.950 . S
C143 C142 1.327 . S
C143 C147 1.429 . S
C144 C127 1.574 . S
C144 H138 0.949 . S
C144 C148 1.368 . S
C145 C126 1.429 . S
C145 C139 1.429 . S
C145 C146 1.523 . S
C146 C127 1.368 . S
C146 C140 1.368 . S
C146 C145 1.523 . S
C147 C131 1.429 . S
C147 C143 1.429 . S
C147 C148 1.523 . S
C148 C132 1.368 . S
C148 C144 1.368 . S
C148 C147 1.523 . S
H149 C124 0.950 . S
H150 C126 0.950 . S
H151 C127 0.949 . S
H152 C129 0.950 . S
H153 C131 0.950 . S
C154 C155 1.349 . S
C154 C156 1.327 . S
C154 H179 0.950 . S
C155 C154 1.349 . S
C155 C171 1.349 . S
C156 C154 1.327 . S
C156 C175 1.429 . S
C156 H180 0.950 . S
C157 C174 1.574 . S
C157 C176 1.368 . S
C157 H181 0.949 . S
H158 C162 0.949 . S
C159 C160 1.349 1_556 S
C159 C161 1.327 . S
C159 H182 0.950 1_556 S
C160 C159 1.349 1_554 S
C160 C172 1.349 1_554 S
C161 C159 1.327 . S
C161 C177 1.429 . S
C161 H183 0.950 . S
C162 H158 0.949 . S
C162 C170 1.574 . S
C162 C178 1.368 . S
H163 C171 0.950 . S
H164 C169 0.950 . S
H165 C170 0.949 . S
H166 C172 0.950 . S
H167 C173 0.950 . S
H168 C174 0.949 . S
C169 H164 0.950 . S
C169 C171 1.327 . S
C169 C175 1.429 . S
C170 C162 1.574 . S
C170 H165 0.949 . S
C170 C176 1.368 . S
C171 C155 1.349 . S
C171 H163 0.950 . S
C171 C169 1.327 . S
C172 C160 1.349 1_556 S
C172 H166 0.950 . S
C172 C173 1.327 . S
C173 H167 0.950 . S
C173 C172 1.327 . S
C173 C177 1.429 . S
C174 C157 1.574 . S
C174 H168 0.949 . S
C174 C178 1.368 . S
C175 C156 1.429 . S
C175 C169 1.429 . S
C175 C176 1.523 . S
C176 C157 1.368 . S
C176 C170 1.368 . S
C176 C175 1.523 . S
C177 C161 1.429 . S
C177 C173 1.429 . S
C177 C178 1.523 . S
C178 C162 1.368 . S
C178 C174 1.368 . S
C178 C177 1.523 . S
H179 C154 0.950 . S
H180 C156 0.950 . S
H181 C157 0.949 . S
H182 C159 0.950 1_554 S
H183 C161 0.950 . S
C184 C185 1.349 . S
C184 C186 1.327 . S
C184 H209 0.950 . S
C185 C184 1.349 . S
C185 C201 1.349 . S
C186 C184 1.327 . S
C186 C205 1.429 . S
C186 H210 0.950 . S
C187 C204 1.574 1_556 S
C187 C206 1.368 . S
C187 H211 0.949 . S
H188 C192 0.949 . S
C189 C190 1.349 . S
C189 C191 1.327 . S
C189 H212 0.950 . S
C190 C189 1.349 . S
C190 C202 1.349 . S
C191 C189 1.327 . S
C191 C207 1.429 . S
C191 H213 0.950 . S
C192 H188 0.949 . S
C192 C200 1.574 1_554 S
C192 C208 1.368 . S
H193 C201 0.950 . S
H194 C199 0.950 . S
H195 C200 0.949 . S
H196 C202 0.950 . S
H197 C203 0.950 . S
H198 C204 0.949 . S
C199 H194 0.950 . S
C199 C201 1.327 . S
C199 C205 1.429 . S
C200 C192 1.574 1_556 S
C200 H195 0.949 . S
C200 C206 1.368 . S
C201 C185 1.349 . S
C201 H193 0.950 . S
C201 C199 1.327 . S
C202 C190 1.349 . S
C202 H196 0.950 . S
C202 C203 1.327 . S
C203 H197 0.950 . S
C203 C202 1.327 . S
C203 C207 1.429 . S
C204 C187 1.574 1_554 S
C204 H198 0.949 . S
C204 C208 1.368 . S
C205 C186 1.429 . S
C205 C199 1.429 . S
C205 C206 1.523 . S
C206 C187 1.368 . S
C206 C200 1.368 . S
C206 C205 1.523 . S
C207 C191 1.429 . S
C207 C203 1.429 . S
C207 C208 1.523 . S
C208 C192 1.368 . S
C208 C204 1.368 . S
C208 C207 1.523 . S
H209 C184 0.950 . S
H210 C186 0.950 . S
H211 C187 0.949 . S
H212 C189 0.950 . S
H213 C191 0.950 . S
C214 C215 1.349 . S
C214 C216 1.327 . S
C214 H239 0.950 . S
C215 C214 1.349 . S
C215 C231 1.349 . S
C216 C214 1.327 . S
C216 C235 1.429 . S
C216 H240 0.950 . S
C217 C234 1.574 . S
C217 C236 1.368 . S
C217 H241 0.949 . S
H218 C222 0.949 . S
C219 C220 1.349 . S
C219 C221 1.327 . S
C219 H242 0.950 . S
C220 C219 1.349 . S
C220 C232 1.349 . S
C221 C219 1.327 . S
C221 C237 1.429 . S
C221 H243 0.950 . S
C222 H218 0.949 . S
C222 C230 1.574 . S
C222 C238 1.368 . S
H223 C231 0.950 . S
H224 C229 0.950 . S
H225 C230 0.949 . S
H226 C232 0.950 . S
H227 C233 0.950 . S
H228 C234 0.949 . S
C229 H224 0.950 . S
C229 C231 1.327 . S
C229 C235 1.429 . S
C230 C222 1.574 . S
C230 H225 0.949 . S
C230 C236 1.368 . S
C231 C215 1.349 . S
C231 H223 0.950 . S
C231 C229 1.327 . S
C232 C220 1.349 . S
C232 H226 0.950 . S
C232 C233 1.327 . S
C233 H227 0.950 . S
C233 C232 1.327 . S
C233 C237 1.429 . S
C234 C217 1.574 . S
C234 H228 0.949 . S
C234 C238 1.368 . S
C235 C216 1.429 . S
C235 C229 1.429 . S
C235 C236 1.523 . S
C236 C217 1.368 . S
C236 C230 1.368 . S
C236 C235 1.523 . S
C237 C221 1.429 . S
C237 C233 1.429 . S
C237 C238 1.523 . S
C238 C222 1.368 . S
C238 C234 1.368 . S
C238 C237 1.523 . S
H239 C214 0.950 . S
H240 C216 0.950 . S
H241 C217 0.949 . S
H242 C219 0.950 . S
H243 C221 0.950 . S
C244 C245 1.349 . S
C244 C246 1.327 . S
C244 H269 0.950 . S
C245 C244 1.349 . S
C245 C261 1.349 . S
C246 C244 1.327 . S
C246 C265 1.429 . S
C246 H270 0.950 . S
C247 C264 1.574 . S
C247 C266 1.368 . S
C247 H271 0.949 . S
H248 C252 0.949 . S
C249 C250 1.349 . S
C249 C251 1.327 . S
C249 H272 0.950 . S
C250 C249 1.349 . S
C250 C262 1.349 . S
C251 C249 1.327 . S
C251 C267 1.429 . S
C251 H273 0.950 . S
C252 H248 0.949 . S
C252 C260 1.574 . S
C252 C268 1.368 . S
H253 C261 0.950 . S
H254 C259 0.950 . S
H255 C260 0.949 . S
H256 C262 0.950 . S
H257 C263 0.950 . S
H258 C264 0.949 . S
C259 H254 0.950 . S
C259 C261 1.327 . S
C259 C265 1.429 . S
C260 C252 1.574 . S
C260 H255 0.949 . S
C260 C266 1.368 . S
C261 C245 1.349 . S
C261 H253 0.950 . S
C261 C259 1.327 . S
C262 C250 1.349 . S
C262 H256 0.950 . S
C262 C263 1.327 . S
C263 H257 0.950 . S
C263 C262 1.327 . S
C263 C267 1.429 . S
C264 C247 1.574 . S
C264 H258 0.949 . S
C264 C268 1.368 . S
C265 C246 1.429 . S
C265 C259 1.429 . S
C265 C266 1.523 . S
C266 C247 1.368 . S
C266 C260 1.368 . S
C266 C265 1.523 . S
C267 C251 1.429 . S
C267 C263 1.429 . S
C267 C268 1.523 . S
C268 C252 1.368 . S
C268 C264 1.368 . S
C268 C267 1.523 . S
H269 C244 0.950 . S
H270 C246 0.950 . S
H271 C247 0.949 . S
H272 C249 0.950 . S
H273 C251 0.950 . S
C274 C275 1.349 . S
C274 C276 1.327 . S
C274 H299 0.950 . S
C275 C274 1.349 . S
C275 C291 1.349 . S
C276 C274 1.327 . S
C276 C295 1.429 . S
C276 H300 0.950 . S
C277 C294 1.574 . S
C277 C296 1.368 . S
C277 H301 0.949 . S
H278 C282 0.949 . S
C279 C280 1.349 . S
C279 C281 1.327 . S
C279 H302 0.950 . S
C280 C279 1.349 . S
C280 C292 1.349 . S
C281 C279 1.327 . S
C281 C297 1.429 1_565 S
C281 H303 0.950 . S
C282 H278 0.949 . S
C282 C290 1.574 . S
C282 C298 1.368 . S
H283 C291 0.950 . S
H284 C289 0.950 . S
H285 C290 0.949 . S
H286 C292 0.950 1_556 S
H287 C293 0.957 . S
H288 C294 0.949 . S
C289 H284 0.950 . S
C289 C291 1.327 . S
C289 C295 1.429 . S
C290 C282 1.574 . S
C290 H285 0.949 . S
C290 C296 1.368 . S
C291 C275 1.349 . S
C291 H283 0.950 . S
C291 C289 1.327 . S
C292 C280 1.349 . S
C292 H286 0.950 1_554 S
C292 C293 1.316 1_565 S
C293 H287 0.957 . S
C293 C292 1.316 1_545 S
C293 C297 1.432 . S
C294 C277 1.574 . S
C294 H288 0.949 . S
C294 C298 1.368 . S
C295 C276 1.429 . S
C295 C289 1.429 . S
C295 C296 1.523 . S
C296 C277 1.368 . S
C296 C290 1.368 . S
C296 C295 1.523 . S
C297 C281 1.429 1_545 S
C297 C293 1.432 . S
C297 C298 1.523 . S
C298 C282 1.368 . S
C298 C294 1.368 . S
C298 C297 1.523 . S
H299 C274 0.950 . S
H300 C276 0.950 . S
H301 C277 0.949 . S
H302 C279 0.950 . S
H303 C281 0.950 . S
C304 C305 1.349 . S
C304 C306 1.327 . S
C304 H329 0.950 . S
C305 C304 1.349 . S
C305 C321 1.349 . S
C306 C304 1.327 . S
C306 C325 1.429 . S
C306 H330 0.950 . S
C307 C324 1.574 . S
C307 C326 1.368 . S
C307 H331 0.949 . S
H308 C312 0.949 . S
C309 C310 1.349 . S
C309 C311 1.327 . S
C309 H332 0.950 . S
C310 C309 1.349 . S
C310 C322 1.349 . S
C311 C309 1.327 . S
C311 C327 1.429 . S
C311 H333 0.950 . S
C312 H308 0.949 . S
C312 C320 1.574 . S
C312 C328 1.368 . S
H313 C321 0.950 . S
H314 C319 0.950 . S
H315 C320 0.949 . S
H316 C322 0.950 . S
H317 C323 0.950 . S
H318 C324 0.949 . S
C319 H314 0.950 . S
C319 C321 1.327 . S
C319 C325 1.429 . S
C320 C312 1.574 . S
C320 H315 0.949 . S
C320 C326 1.368 . S
C321 C305 1.349 . S
C321 H313 0.950 . S
C321 C319 1.327 . S
C322 C310 1.349 . S
C322 H316 0.950 . S
C322 C323 1.327 . S
C323 H317 0.950 . S
C323 C322 1.327 . S
C323 C327 1.429 . S
C324 C307 1.574 . S
C324 H318 0.949 . S
C324 C328 1.368 . S
C325 C306 1.429 . S
C325 C319 1.429 . S
C325 C326 1.523 . S
C326 C307 1.368 . S
C326 C320 1.368 . S
C326 C325 1.523 . S
C327 C311 1.429 . S
C327 C323 1.429 . S
C327 C328 1.523 . S
C328 C312 1.368 . S
C328 C324 1.368 . S
C328 C327 1.523 . S
H329 C304 0.950 . S
H330 C306 0.950 . S
H331 C307 0.949 . S
H332 C309 0.950 . S
H333 C311 0.950 . S
C334 C335 1.349 . S
C334 C336 1.327 . S
C334 H359 0.950 . S
C335 C334 1.349 . S
C335 C351 1.349 . S
C336 C334 1.327 . S
C336 C355 1.429 . S
C336 H360 0.950 . S
C337 C354 1.574 . S
C337 C356 1.368 . S
C337 H361 0.949 . S
H338 C342 0.949 . S
C339 C340 1.349 . S
C339 C341 1.327 . S
C339 H362 0.950 . S
C340 C339 1.349 . S
C340 C352 1.349 . S
C341 C339 1.327 . S
C341 C357 1.429 1_545 S
C341 H363 0.950 1_545 S
C342 H338 0.949 . S
C342 C350 1.574 . S
C342 C358 1.368 . S
H343 C351 0.950 . S
H344 C349 0.950 . S
H345 C350 0.949 . S
H346 C352 0.950 . S
H347 C353 0.950 . S
H348 C354 0.949 . S
C349 H344 0.950 . S
C349 C351 1.327 . S
C349 C355 1.429 . S
C350 C342 1.574 . S
C350 H345 0.949 . S
C350 C356 1.368 . S
C351 C335 1.349 . S
C351 H343 0.950 . S
C351 C349 1.327 . S
C352 C340 1.349 . S
C352 H346 0.950 . S
C352 C353 1.327 . S
C353 H347 0.950 . S
C353 C352 1.327 . S
C353 C357 1.429 1_545 S
C354 C337 1.574 . S
C354 H348 0.949 . S
C354 C358 1.368 . S
C355 C336 1.429 . S
C355 C349 1.429 . S
C355 C356 1.523 . S
C356 C337 1.368 . S
C356 C350 1.368 . S
C356 C355 1.523 . S
C357 C341 1.429 1_565 S
C357 C353 1.429 1_565 S
C357 C358 1.523 . S
C358 C342 1.368 . S
C358 C354 1.368 . S
C358 C357 1.523 . S
H359 C334 0.950 . S
H360 C336 0.950 . S
H361 C337 0.949 . S
H362 C339 0.950 . S
H363 C341 0.950 1_565 S
C364 C365 1.349 . S
C364 C366 1.327 1_655 S
C364 H389 0.950 1_556 S
C365 C364 1.349 . S
C365 C381 1.349 . S
C366 C364 1.327 1_455 S
C366 C385 1.429 . S
C366 H390 0.950 1_556 S
C367 C384 1.574 . S
C367 C386 1.368 . S
C367 H391 0.949 . S
H368 C372 0.949 . S
C369 C370 1.349 . S
C369 C371 1.327 . S
C369 H392 0.950 . S
C370 C369 1.349 . S
C370 C382 1.349 . S
C371 C369 1.327 . S
C371 C387 1.429 . S
C371 H393 0.950 . S
C372 H368 0.949 . S
C372 C380 1.574 . S
C372 C388 1.368 . S
H373 C381 0.950 . S
H374 C379 0.950 . S
H375 C380 0.949 . S
H376 C382 0.950 . S
H377 C383 0.950 . S
H378 C384 0.949 . S
C379 H374 0.950 . S
C379 C381 1.327 . S
C379 C385 1.429 1_655 S
C380 C372 1.574 . S
C380 H375 0.949 . S
C380 C386 1.368 . S
C381 C365 1.349 . S
C381 H373 0.950 . S
C381 C379 1.327 . S
C382 C370 1.349 . S
C382 H376 0.950 . S
C382 C383 1.327 . S
C383 H377 0.950 . S
C383 C382 1.327 . S
C383 C387 1.429 . S
C384 C367 1.574 . S
C384 H378 0.949 . S
C384 C388 1.368 . S
C385 C366 1.429 . S
C385 C379 1.429 1_455 S
C385 C386 1.523 . S
C386 C367 1.368 . S
C386 C380 1.368 . S
C386 C385 1.523 . S
C387 C371 1.429 . S
C387 C383 1.429 . S
C387 C388 1.523 . S
C388 C372 1.368 . S
C388 C384 1.368 . S
C388 C387 1.523 . S
H389 C364 0.950 1_554 S
H390 C366 0.950 1_554 S
H391 C367 0.949 . S
H392 C369 0.950 . S
H393 C371 0.950 . S
C394 C395 1.349 . S
C394 C396 1.327 . S
C394 H419 0.950 . S
C395 C394 1.349 . S
C395 C411 1.349 . S
C396 C394 1.327 . S
C396 C415 1.429 . S
C396 H420 0.950 . S
C397 C414 1.574 . S
C397 C416 1.368 . S
C397 H421 0.949 . S
H398 C402 0.949 . S
C399 C400 1.349 . S
C399 C401 1.327 . S
C399 H422 0.950 . S
C400 C399 1.349 . S
C400 C412 1.349 . S
C401 C399 1.327 . S
C401 C417 1.429 . S
C401 H423 0.950 . S
C402 H398 0.949 . S
C402 C410 1.574 . S
C402 C418 1.368 . S
H403 C411 0.950 . S
H404 C409 0.950 . S
H405 C410 0.949 . S
H406 C412 0.950 . S
H407 C413 0.950 . S
H408 C414 0.949 . S
C409 H404 0.950 . S
C409 C411 1.327 . S
C409 C415 1.429 . S
C410 C402 1.574 . S
C410 H405 0.949 . S
C410 C416 1.368 . S
C411 C395 1.349 . S
C411 H403 0.950 . S
C411 C409 1.327 . S
C412 C400 1.349 . S
C412 H406 0.950 . S
C412 C413 1.327 . S
C413 H407 0.950 . S
C413 C412 1.327 . S
C413 C417 1.429 . S
C414 C397 1.574 . S
C414 H408 0.949 . S
C414 C418 1.368 . S
C415 C396 1.429 . S
C415 C409 1.429 . S
C415 C416 1.523 . S
C416 C397 1.368 . S
C416 C410 1.368 . S
C416 C415 1.523 . S
C417 C401 1.429 . S
C417 C413 1.429 . S
C417 C418 1.523 . S
C418 C402 1.368 . S
C418 C414 1.368 . S
C418 C417 1.523 . S
H419 C394 0.950 . S
H420 C396 0.950 . S
H421 C397 0.949 . S
H422 C399 0.950 . S
H423 C401 0.950 . S
C424 C425 1.349 . S
C424 C426 1.327 . S
C424 H449 0.950 . S
C425 C424 1.349 . S
C425 C441 1.349 . S
C426 C424 1.327 . S
C426 C445 1.429 . S
C426 H450 0.950 . S
C427 C444 1.574 . S
C427 C446 1.368 . S
C427 H451 0.949 . S
H428 C432 0.949 . S
C429 C430 1.349 . S
C429 C431 1.333 . S
C429 H452 0.950 . S
C430 C429 1.349 . S
C430 C442 1.349 . S
C431 C429 1.333 . S
C431 C447 1.424 1_455 S
C431 H453 0.948 1_455 S
C432 H428 0.949 . S
C432 C440 1.574 . S
C432 C448 1.368 . S
H433 C441 0.950 . S
H434 C439 0.950 . S
H435 C440 0.949 . S
H436 C442 0.950 . S
H437 C443 0.950 . S
H438 C444 0.949 . S
C439 H434 0.950 . S
C439 C441 1.327 . S
C439 C445 1.429 . S
C440 C432 1.574 . S
C440 H435 0.949 . S
C440 C446 1.368 . S
C441 C425 1.349 . S
C441 H433 0.950 . S
C441 C439 1.327 . S
C442 C430 1.349 . S
C442 H436 0.950 . S
C442 C443 1.327 1_455 S
C443 H437 0.950 . S
C443 C442 1.327 1_655 S
C443 C447 1.429 . S
C444 C427 1.574 . S
C444 H438 0.949 . S
C444 C448 1.368 . S
C445 C426 1.429 . S
C445 C439 1.429 . S
C445 C446 1.523 . S
C446 C427 1.368 . S
C446 C440 1.368 . S
C446 C445 1.523 . S
C447 C431 1.424 1_655 S
C447 C443 1.429 . S
C447 C448 1.523 . S
C448 C432 1.368 . S
C448 C444 1.368 . S
C448 C447 1.523 . S
H449 C424 0.950 . S
H450 C426 0.950 . S
H451 C427 0.949 . S
H452 C429 0.950 . S
H453 C431 0.948 1_655 S
C454 C455 1.349 . S
C454 C456 1.327 . S
C454 H479 0.950 . S
C455 C454 1.349 . S
C455 C471 1.349 . S
C456 C454 1.327 . S
C456 C475 1.429 . S
C456 H480 0.950 . S
C457 C474 1.574 . S
C457 C476 1.368 . S
C457 H481 0.949 . S
H458 C462 0.949 . S
C459 C460 1.349 . S
C459 C461 1.327 . S
C459 H482 0.950 . S
C460 C459 1.349 . S
C460 C472 1.349 . S
C461 C459 1.327 . S
C461 C477 1.429 . S
C461 H483 0.950 . S
C462 H458 0.949 . S
C462 C470 1.574 . S
C462 C478 1.368 . S
H463 C471 0.950 . S
H464 C469 0.950 . S
H465 C470 0.949 . S
H466 C472 0.950 . S
H467 C473 0.950 . S
H468 C474 0.949 . S
C469 H464 0.950 . S
C469 C471 1.327 . S
C469 C475 1.429 . S
C470 C462 1.574 . S
C470 H465 0.949 . S
C470 C476 1.368 . S
C471 C455 1.349 . S
C471 H463 0.950 . S
C471 C469 1.327 . S
C472 C460 1.349 . S
C472 H466 0.950 . S
C472 C473 1.327 . S
C473 H467 0.950 . S
C473 C472 1.327 . S
C473 C477 1.429 . S
C474 C457 1.574 . S
C474 H468 0.949 . S
C474 C478 1.368 . S
C475 C456 1.429 . S
C475 C469 1.429 . S
C475 C476 1.523 . S
C476 C457 1.368 . S
C476 C470 1.368 . S
C476 C475 1.523 . S
C477 C461 1.429 . S
C477 C473 1.429 . S
C477 C478 1.523 . S
C478 C462 1.368 . S
C478 C474 1.368 . S
C478 C477 1.523 . S
H479 C454 0.950 . S
H480 C456 0.950 . S
H481 C457 0.949 . S
H482 C459 0.950 . S
H483 C461 0.950 . S
C484 C485 1.349 . S
C484 C486 1.327 . S
C484 H509 0.950 . S
C485 C484 1.349 . S
C485 C501 1.349 . S
C486 C484 1.327 . S
C486 C505 1.429 . S
C486 H510 0.950 . S
C487 C504 1.574 . S
C487 C506 1.368 1_665 S
C487 H511 0.949 1_565 S
H488 C492 0.949 . S
C489 C490 1.349 . S
C489 C491 1.327 . S
C489 H512 0.950 . S
C490 C489 1.349 . S
C490 C502 1.349 . S
C491 C489 1.327 . S
C491 C507 1.429 . S
C491 H513 0.950 . S
C492 H488 0.949 . S
C492 C500 1.574 1_565 S
C492 C508 1.368 1_455 S
H493 C501 0.950 . S
H494 C499 0.950 . S
H495 C500 0.949 . S
H496 C502 0.950 . S
H497 C503 0.949 1_455 S
H498 C504 0.949 . S
C499 H494 0.950 . S
C499 C501 1.327 . S
C499 C505 1.429 . S
C500 C492 1.574 1_545 S
C500 H495 0.949 . S
C500 C506 1.368 . S
C501 C485 1.349 . S
C501 H493 0.950 . S
C501 C499 1.327 . S
C502 C490 1.349 . S
C502 H496 0.950 . S
C502 C503 1.327 . S
C503 H497 0.949 1_655 S
C503 C502 1.327 . S
C503 C507 1.429 . S
C504 C487 1.574 . S
C504 H498 0.949 . S
C504 C508 1.368 . S
C505 C486 1.429 . S
C505 C499 1.429 . S
C505 C506 1.523 . S
C506 C487 1.368 1_445 S
C506 C500 1.368 . S
C506 C505 1.523 . S
C507 C491 1.429 . S
C507 C503 1.429 . S
C507 C508 1.523 . S
C508 C492 1.368 1_655 S
C508 C504 1.368 . S
C508 C507 1.523 . S
H509 C484 0.950 . S
H510 C486 0.950 . S
H511 C487 0.949 1_545 S
H512 C489 0.950 . S
H513 C491 0.950 . S
C514 C515 1.349 . S
C514 C516 1.327 . S
C514 H539 0.950 . S
C515 C514 1.349 . S
C515 C531 1.349 . S
C516 C514 1.327 . S
C516 C535 1.429 . S
C516 H540 0.950 . S
C517 C534 1.574 . S
C517 C536 1.368 . S
C517 H541 0.949 . S
H518 C522 0.949 . S
C519 C520 1.349 . S
C519 C521 1.327 . S
C519 H542 0.950 . S
C520 C519 1.349 . S
C520 C532 1.349 . S
C521 C519 1.327 . S
C521 C537 1.429 . S
C521 H543 0.950 . S
C522 H518 0.949 . S
C522 C530 1.574 . S
C522 C538 1.368 . S
H523 C531 0.950 . S
H524 C529 0.950 . S
H525 C530 0.949 . S
H526 C532 0.950 . S
H527 C533 0.950 . S
H528 C534 0.949 . S
C529 H524 0.950 . S
C529 C531 1.327 . S
C529 C535 1.429 . S
C530 C522 1.574 . S
C530 H525 0.949 . S
C530 C536 1.368 . S
C531 C515 1.349 . S
C531 H523 0.950 . S
C531 C529 1.327 . S
C532 C520 1.349 . S
C532 H526 0.950 . S
C532 C533 1.327 . S
C533 H527 0.950 . S
C533 C532 1.327 . S
C533 C537 1.429 . S
C534 C517 1.574 . S
C534 H528 0.949 . S
C534 C538 1.368 . S
C535 C516 1.429 . S
C535 C529 1.429 . S
C535 C536 1.523 . S
C536 C517 1.368 . S
C536 C530 1.368 . S
C536 C535 1.523 . S
C537 C521 1.429 . S
C537 C533 1.429 . S
C537 C538 1.523 . S
C538 C522 1.368 . S
C538 C534 1.368 . S
C538 C537 1.523 . S
H539 C514 0.950 . S
H540 C516 0.950 . S
H541 C517 0.949 . S
H542 C519 0.950 . S
H543 C521 0.950 . S
C544 C545 1.349 . S
C544 C546 1.327 1_455 S
C544 H569 0.950 1_455 S
C545 C544 1.349 . S
C545 C561 1.349 . S
C546 C544 1.327 1_655 S
C546 C565 1.429 . S
C546 H570 0.950 . S
C547 C564 1.574 1_545 S
C547 C566 1.368 . S
C547 H571 0.949 1_655 S
H548 C552 0.949 . S
C549 C550 1.349 . S
C549 C551 1.327 . S
C549 H572 0.950 . S
C550 C549 1.349 . S
C550 C562 1.349 . S
C551 C549 1.327 . S
C551 C567 1.429 . S
C551 H573 0.950 . S
C552 H548 0.949 . S
C552 C560 1.574 . S
C552 C568 1.368 . S
H553 C561 0.950 . S
H554 C559 0.950 . S
H555 C560 0.949 . S
H556 C562 0.950 1_545 S
H557 C563 0.950 . S
H558 C564 0.949 . S
C559 H554 0.950 . S
C559 C561 1.327 . S
C559 C565 1.429 1_455 S
C560 C552 1.574 . S
C560 H555 0.949 . S
C560 C566 1.368 . S
C561 C545 1.349 . S
C561 H553 0.950 . S
C561 C559 1.327 . S
C562 C550 1.349 . S
C562 H556 0.950 1_565 S
C562 C563 1.327 1_565 S
C563 H557 0.950 . S
C563 C562 1.327 1_545 S
C563 C567 1.429 1_545 S
C564 C547 1.574 1_565 S
C564 H558 0.949 . S
C564 C568 1.368 1_565 S
C565 C546 1.429 . S
C565 C559 1.429 1_655 S
C565 C566 1.523 . S
C566 C547 1.368 . S
C566 C560 1.368 . S
C566 C565 1.523 . S
C567 C551 1.429 . S
C567 C563 1.429 1_565 S
C567 C568 1.523 1_565 S
C568 C552 1.368 . S
C568 C564 1.368 1_545 S
C568 C567 1.523 1_545 S
H569 C544 0.950 1_655 S
H570 C546 0.950 . S
H571 C547 0.949 1_455 S
H572 C549 0.950 . S
H573 C551 0.950 . S
C574 C575 1.349 . S
C574 C576 1.327 . S
C574 H599 0.950 . S
C575 C574 1.349 . S
C575 C591 1.349 . S
C576 C574 1.327 . S
C576 C595 1.429 . S
C576 H600 0.950 . S
C577 C594 1.574 . S
C577 C596 1.368 . S
C577 H601 0.949 . S
H578 C582 0.949 . S
C579 C580 1.349 . S
C579 C581 1.327 . S
C579 H602 0.950 . S
C580 C579 1.349 . S
C580 C592 1.349 . S
C581 C579 1.327 . S
C581 C597 1.429 . S
C581 H603 0.950 . S
C582 H578 0.949 . S
C582 C590 1.574 1_556 S
C582 C598 1.368 . S
H583 C591 0.950 . S
H584 C589 0.950 . S
H585 C590 0.949 . S
H586 C592 0.950 . S
H587 C593 0.950 . S
H588 C594 0.949 . S
C589 H584 0.950 . S
C589 C591 1.327 . S
C589 C595 1.429 . S
C590 C582 1.574 1_554 S
C590 H585 0.949 . S
C590 C596 1.368 . S
C591 C575 1.349 . S
C591 H583 0.950 . S
C591 C589 1.327 . S
C592 C580 1.349 . S
C592 H586 0.950 . S
C592 C593 1.327 . S
C593 H587 0.950 . S
C593 C592 1.327 . S
C593 C597 1.429 . S
C594 C577 1.574 . S
C594 H588 0.949 . S
C594 C598 1.368 1_554 S
C595 C576 1.429 . S
C595 C589 1.429 . S
C595 C596 1.523 . S
C596 C577 1.368 . S
C596 C590 1.368 . S
C596 C595 1.523 . S
C597 C581 1.429 . S
C597 C593 1.429 . S
C597 C598 1.523 . S
C598 C582 1.368 . S
C598 C594 1.368 1_556 S
C598 C597 1.523 . S
H599 C574 0.950 . S
H600 C576 0.950 . S
H601 C577 0.949 . S
H602 C579 0.950 . S
H603 C581 0.950 . S
C125 C1 1.559 . S
C130 C27 1.559 . S
C155 C58 1.574 . S
C160 C32 1.574 . S
C185 C89 1.565 . S
C190 C63 1.565 . S
C215 C120 1.580 1_554 S
C220 C94 1.580 . S
C245 C103 1.502 . S
C250 C18 1.518 . S
C275 C31 1.235 . S
C280 C2 1.191 . S
C305 C62 1.228 . S
C310 C41 1.134 . S
C335 C93 1.892 . S
C340 C72 1.749 . S
C365 C10 2.139 . S
C370 C111 2.161 . S
C395 C33 1.728 . S
C400 C0 1.773 . S
C425 C49 1.438 . S
C430 C64 1.494 . S
C455 C80 2.164 . S
C460 C95 2.239 . S
C485 C73 0.745 . S
C490 C11 0.745 . S
C515 C55 0.604 . S
C520 C104 0.347 . S
C545 C86 0.736 . S
C550 C24 0.717 . S
C575 C42 0.337 . S
C580 C117 0.595 . S
