# Generated by pormake.
# Topology vbm, (6)-cn, num edge types: 1
# Building blocks:
#     Node 0, Type 0, BuildingBlock: KUMJIN_clean_sbu_0, # of connection points: 6
#     Node 1, Type 0, BuildingBlock: KUMJIN_clean_sbu_0, # of connection points: 6
#     Node 2, Type 0, BuildingBlock: KUMJIN_clean_sbu_0, # of connection points: 6
#     Node 3, Type 0, BuildingBlock: KUMJIN_clean_sbu_0, # of connection points: 6
#     Node 4, Type 0, BuildingBlock: KUMJIN_clean_sbu_0, # of connection points: 6
#     Node 5, Type 0, BuildingBlock: KUMJIN_clean_sbu_0, # of connection points: 6
#     Node 6, Type 0, BuildingBlock: KUMJIN_clean_sbu_0, # of connection points: 6
#     Node 7, Type 0, BuildingBlock: KUMJIN_clean_sbu_0, # of connection points: 6
#     Node 8, Type 0, BuildingBlock: KUMJIN_clean_sbu_0, # of connection points: 6
#     Node 9, Type 0, BuildingBlock: KUMJIN_clean_sbu_0, # of connection points: 6
#     Node 10, Type 0, BuildingBlock: KUMJIN_clean_sbu_0, # of connection points: 6
#     Node 11, Type 0, BuildingBlock: KUMJIN_clean_sbu_0, # of connection points: 6
#     Node 12, Type 0, BuildingBlock: KUMJIN_clean_sbu_0, # of connection points: 6
#     Node 13, Type 0, BuildingBlock: KUMJIN_clean_sbu_0, # of connection points: 6
#     Node 14, Type 0, BuildingBlock: KUMJIN_clean_sbu_0, # of connection points: 6
#     Node 15, Type 0, BuildingBlock: KUMJIN_clean_sbu_0, # of connection points: 6
#     Edge 16, Type (0, 0), BuildingBlock: CIFDUS_clean_linker_0, # of connection points: 2
#     Edge 17, Type (0, 0), BuildingBlock: CIFDUS_clean_linker_0, # of connection points: 2
#     Edge 18, Type (0, 0), BuildingBlock: CIFDUS_clean_linker_0, # of connection points: 2
#     Edge 19, Type (0, 0), BuildingBlock: CIFDUS_clean_linker_0, # of connection points: 2
#     Edge 20, Type (0, 0), BuildingBlock: CIFDUS_clean_linker_0, # of connection points: 2
#     Edge 21, Type (0, 0), BuildingBlock: CIFDUS_clean_linker_0, # of connection points: 2
#     Edge 22, Type (0, 0), BuildingBlock: CIFDUS_clean_linker_0, # of connection points: 2
#     Edge 23, Type (0, 0), BuildingBlock: CIFDUS_clean_linker_0, # of connection points: 2
#     Edge 24, Type (0, 0), BuildingBlock: CIFDUS_clean_linker_0, # of connection points: 2
#     Edge 25, Type (0, 0), BuildingBlock: CIFDUS_clean_linker_0, # of connection points: 2
#     Edge 26, Type (0, 0), BuildingBlock: CIFDUS_clean_linker_0, # of connection points: 2
#     Edge 27, Type (0, 0), BuildingBlock: CIFDUS_clean_linker_0, # of connection points: 2
#     Edge 28, Type (0, 0), BuildingBlock: CIFDUS_clean_linker_0, # of connection points: 2
#     Edge 29, Type (0, 0), BuildingBlock: CIFDUS_clean_linker_0, # of connection points: 2
#     Edge 30, Type (0, 0), BuildingBlock: CIFDUS_clean_linker_0, # of connection points: 2
#     Edge 31, Type (0, 0), BuildingBlock: CIFDUS_clean_linker_0, # of connection points: 2
#     Edge 32, Type (0, 0), BuildingBlock: CIFDUS_clean_linker_0, # of connection points: 2
#     Edge 33, Type (0, 0), BuildingBlock: CIFDUS_clean_linker_0, # of connection points: 2
#     Edge 34, Type (0, 0), BuildingBlock: CIFDUS_clean_linker_0, # of connection points: 2
#     Edge 35, Type (0, 0), BuildingBlock: CIFDUS_clean_linker_0, # of connection points: 2
#     Edge 36, Type (0, 0), BuildingBlock: CIFDUS_clean_linker_0, # of connection points: 2
#     Edge 37, Type (0, 0), BuildingBlock: CIFDUS_clean_linker_0, # of connection points: 2
#     Edge 38, Type (0, 0), BuildingBlock: CIFDUS_clean_linker_0, # of connection points: 2
#     Edge 39, Type (0, 0), BuildingBlock: CIFDUS_clean_linker_0, # of connection points: 2
#     Edge 40, Type (0, 0), BuildingBlock: CIFDUS_clean_linker_0, # of connection points: 2
#     Edge 41, Type (0, 0), BuildingBlock: CIFDUS_clean_linker_0, # of connection points: 2
#     Edge 42, Type (0, 0), BuildingBlock: CIFDUS_clean_linker_0, # of connection points: 2
#     Edge 43, Type (0, 0), BuildingBlock: CIFDUS_clean_linker_0, # of connection points: 2
#     Edge 44, Type (0, 0), BuildingBlock: CIFDUS_clean_linker_0, # of connection points: 2
#     Edge 45, Type (0, 0), BuildingBlock: CIFDUS_clean_linker_0, # of connection points: 2
#     Edge 46, Type (0, 0), BuildingBlock: CIFDUS_clean_linker_0, # of connection points: 2
#     Edge 47, Type (0, 0), BuildingBlock: CIFDUS_clean_linker_0, # of connection points: 2
#     Edge 48, Type (0, 0), BuildingBlock: CIFDUS_clean_linker_0, # of connection points: 2
#     Edge 49, Type (0, 0), BuildingBlock: CIFDUS_clean_linker_0, # of connection points: 2
#     Edge 50, Type (0, 0), BuildingBlock: CIFDUS_clean_linker_0, # of connection points: 2
#     Edge 51, Type (0, 0), BuildingBlock: CIFDUS_clean_linker_0, # of connection points: 2
#     Edge 52, Type (0, 0), BuildingBlock: CIFDUS_clean_linker_0, # of connection points: 2
#     Edge 53, Type (0, 0), BuildingBlock: CIFDUS_clean_linker_0, # of connection points: 2
#     Edge 54, Type (0, 0), BuildingBlock: CIFDUS_clean_linker_0, # of connection points: 2
#     Edge 55, Type (0, 0), BuildingBlock: CIFDUS_clean_linker_0, # of connection points: 2
#     Edge 56, Type (0, 0), BuildingBlock: CIFDUS_clean_linker_0, # of connection points: 2
#     Edge 57, Type (0, 0), BuildingBlock: CIFDUS_clean_linker_0, # of connection points: 2
#     Edge 58, Type (0, 0), BuildingBlock: CIFDUS_clean_linker_0, # of connection points: 2
#     Edge 59, Type (0, 0), BuildingBlock: CIFDUS_clean_linker_0, # of connection points: 2
#     Edge 60, Type (0, 0), BuildingBlock: CIFDUS_clean_linker_0, # of connection points: 2
#     Edge 61, Type (0, 0), BuildingBlock: CIFDUS_clean_linker_0, # of connection points: 2
#     Edge 62, Type (0, 0), BuildingBlock: CIFDUS_clean_linker_0, # of connection points: 2
#     Edge 63, Type (0, 0), BuildingBlock: CIFDUS_clean_linker_0, # of connection points: 2
# Relax obj value: 0.078
# Max RMSD: 0.145
# Mean RMSD: 0.145
data_MOF--net-vbm--node1-KUMJIN_clean_sbu_0--edge1-CIFDUS_clean_linker_0
_symmetry_space_group_name_H-M    P1
_symmetry_Int_Tables_number       1
_symmetry_cell_setting            triclinic
loop_
_symmetry_equiv_pos_as_xyz
'x, y, z'
_cell_length_a     45.060203
_cell_length_b     22.936906
_cell_length_c     51.476621
_cell_angle_alpha  90.029395
_cell_angle_beta   89.999822
_cell_angle_gamma 89.883374
loop_
_atom_site_label
_atom_site_type_symbol
_atom_site_fract_x
_atom_site_fract_y
_atom_site_fract_z
_atom_type_partial_charge
Eu0 Eu 0.15954 0.05674 0.1216 0.0
C1 C 0.06442 0.21277 0.17462 0.0
C2 C 0.01872 0.19004 0.15217 0.0
C3 C 0.01731 0.21923 0.19753 0.0
C4 C 0.04997 0.19422 0.15249 0.0
C5 C 0.0482 0.22727 0.19717 0.0
C6 C 1.00258 0.20062 0.17505 0.0
C7 C 0.09366 0.26333 0.21608 0.0
N8 N 0.09418 0.22082 0.17346 0.0
C9 C 0.10873 0.24842 0.19326 0.0
C10 C 0.06336 0.25166 0.21826 0.0
Eu11 Eu 0.11872 0.19079 0.1349 0.0
N12 N 0.06622 0.18552 0.13064 0.0
C13 C 0.05231 0.17884 0.10725 0.0
C14 C 1.00455 0.1783 0.12858 0.0
C15 C 0.02139 0.17417 0.10591 0.0
H16 H 0.13221 0.25717 0.19178 0.0
H17 H 0.01059 0.16704 0.0874 0.0
H18 H 0.97861 0.19679 0.17526 0.0
H19 H 0.10545 0.28363 0.23201 0.0
H20 H 0.06492 0.17542 0.08952 0.0
H21 H 0.25622 0.10469 0.18254 0.0
H22 H 0.9806 0.17471 0.12748 0.0
H23 H 0.15888 0.99295 0.06312 0.0
H24 H 0.20353 0.08638 0.17339 0.0
H25 H 0.19321 0.97435 0.02653 0.0
H26 H 1.0045 0.22936 0.21478 0.0
H27 H 0.29321 0.09952 0.14712 0.0
H28 H 0.30459 0.07674 0.1005 0.0
H29 H 0.05171 0.26341 0.23592 0.0
H30 H 0.28742 0.04179 0.05789 0.0
N31 N 0.21009 0.07225 0.13286 0.0
C32 C 0.21927 0.08357 0.15767 0.0
C33 C 0.27001 0.09145 0.14293 0.0
C34 C 0.26075 0.0764 0.11788 0.0
C35 C 0.24922 0.09418 0.16298 0.0
C36 C 0.23025 0.06666 0.11341 0.0
H37 H 0.246 1.00294 0.03017 0.0
N38 N 0.19141 0.03511 0.08628 0.0
C39 C 0.20117 0.99559 0.04396 0.0
C40 C 0.22059 0.04756 0.08937 0.0
C41 C 0.18177 1.0064 0.0646 0.0
C42 C 0.23092 1.01184 0.04609 0.0
C43 C 0.24115 0.03687 0.06923 0.0
O44 O 0.1458 0.96746 0.11311 0.0
O45 O 0.11406 0.09365 0.13039 0.0
O46 O 0.11738 0.13958 0.1729 0.0
O47 O 0.15211 0.06577 0.16519 0.0
O48 O 0.11658 0.03074 0.10162 0.0
O49 O 0.17426 0.98427 0.14611 0.0
O50 O 0.13725 0.27867 0.13769 0.0
O51 O 0.164 0.15475 0.12457 0.0
O52 O 0.1577 0.10524 0.0836 0.0
O53 O 0.11811 0.16877 0.09112 0.0
O54 O 0.16204 0.2124 0.15521 0.0
O55 O 0.10398 0.26034 0.10876 0.0
C56 C 0.09853 0.06317 0.11468 0.0
C57 C 0.1779 0.89134 0.12562 0.0
C58 C 0.17793 0.78547 0.11896 0.0
C59 C 0.16311 0.83746 0.12591 0.0
C60 C 0.20811 0.78859 0.112 0.0
C61 C 0.20792 0.89341 0.11855 0.0
C62 C 0.22291 0.84217 0.11185 0.0
C63 C 0.13395 0.095 0.18066 0.0
C64 C 0.16114 0.94469 0.13197 0.0
C65 C 0.27134 0.04918 0.0732 0.0
C66 C 0.28112 0.06901 0.09747 0.0
C67 C 0.18 0.18396 0.1404 0.0
C68 C 0.10612 0.35652 0.12592 0.0
C69 C 0.12262 0.40828 0.12351 0.0
C70 C 0.11 0.46266 0.13008 0.0
C71 C 0.0805 0.46408 0.1391 0.0
C72 C 0.07682 0.35908 0.13504 0.0
C73 C 0.06411 0.41269 0.14151 0.0
C74 C 0.13674 0.14101 0.07535 0.0
C75 C 0.12027 0.30027 0.11973 0.0
H76 H 0.13998 0.83622 0.13167 0.0
H77 H 0.22017 0.74986 0.10618 0.0
H78 H 0.2197 0.93449 0.11809 0.0
H79 H 0.24604 0.84407 0.10627 0.0
H80 H 0.14525 0.40608 0.1164 0.0
H81 H 0.07019 0.50485 0.14476 0.0
H82 H 0.06384 0.31971 0.13727 0.0
H83 H 0.04152 0.4144 0.14863 0.0
Eu84 Eu 0.8632 0.96912 0.12009 0.0
C85 C 0.95375 0.82921 0.18664 0.0
C86 C 1.00133 0.84428 0.1659 0.0
C87 C 0.99894 0.82849 0.21253 0.0
C88 C 0.97011 0.84024 0.16453 0.0
C89 C 0.968 0.82217 0.21085 0.0
C90 C 0.01558 0.83954 0.19008 0.0
C91 C 0.92031 0.79924 0.22963 0.0
N92 N 0.92394 0.82314 0.18432 0.0
C93 C 0.90723 0.80635 0.20519 0.0
C94 C 0.95078 0.80782 0.23255 0.0
Eu95 Eu 0.90295 0.84056 0.14272 0.0
N96 N 0.95564 0.84449 0.14149 0.0
C97 C 0.97131 0.84869 0.11884 0.0
C98 C 0.01733 0.85172 0.14286 0.0
C99 C 1.00226 0.8531 0.1192 0.0
H100 H 0.88362 0.80002 0.20323 0.0
H101 H 0.01446 0.85792 0.10121 0.0
H102 H 0.03949 0.84313 0.19155 0.0
H103 H 0.90686 0.78723 0.2462 0.0
H104 H 0.96011 0.8501 0.10035 0.0
H105 H 0.74999 0.94894 0.1568 0.0
H106 H 0.04131 0.85526 0.14309 0.0
H107 H 0.88582 1.01084 0.06053 0.0
H108 H 0.80437 0.95928 0.15989 0.0
H109 H 0.86503 0.02162 0.01645 0.0
H110 H 1.01025 0.82376 0.23099 0.0
H111 H 0.72554 0.94896 0.11376 0.0
H112 H 0.73001 0.96045 0.06534 0.0
H113 H 0.96086 0.80214 0.25149 0.0
H114 H 0.76127 0.98073 0.02718 0.0
N115 N 0.8108 0.96297 0.11902 0.0
C116 C 0.79399 0.95922 0.141 0.0
C117 C 0.74944 0.95336 0.11501 0.0
C118 C 0.76665 0.96096 0.09263 0.0
C119 C 0.76314 0.95347 0.13933 0.0
C120 C 0.79767 0.96631 0.09535 0.0
H121 H 0.81158 1.00406 0.00879 0.0
N122 N 0.84473 0.98584 0.07756 0.0
C123 C 0.85075 1.0094 0.03244 0.0
C124 C 0.81516 0.97834 0.07395 0.0
C125 C 0.86244 1.00342 0.05747 0.0
C126 C 0.82059 0.99927 0.02819 0.0
C127 C 0.80228 0.98447 0.04913 0.0
O128 O 0.87995 0.05752 0.11436 0.0
O129 O 0.90731 0.93564 0.13433 0.0
O130 O 0.9018 0.90636 0.17601 0.0
O131 O 0.85928 0.95754 0.16413 0.0
O132 O 0.90902 0.99136 0.10331 0.0
O133 O 0.84451 0.04264 0.14187 0.0
O134 O 0.88566 0.75268 0.1489 0.0
O135 O 0.85785 0.87331 0.12939 0.0
O136 O 0.86373 0.90381 0.0874 0.0
O137 O 0.90714 0.85587 0.09853 0.0
O138 O 0.85883 0.82031 0.16176 0.0
O139 O 0.91867 0.76704 0.11921 0.0
C140 C 0.9252 0.96219 0.11935 0.0
C141 C 0.84737 0.1362 0.12186 0.0
C142 C 0.8501 0.24258 0.11723 0.0
C143 C 0.8623 0.1893 0.12596 0.0
C144 C 0.82251 0.24144 0.10439 0.0
C145 C 0.82001 0.13625 0.10892 0.0
C146 C 0.80766 0.18871 0.10032 0.0
C147 C 0.87956 0.94226 0.18151 0.0
C148 C 0.8613 0.08132 0.13051 0.0
C149 C 0.77156 0.97666 0.04612 0.0
C150 C 0.75377 0.96501 0.06784 0.0
C151 C 0.84139 0.84752 0.1461 0.0
C152 C 0.91643 0.67292 0.1386 0.0
C153 C 0.9013 0.62034 0.13376 0.0
C154 C 0.91351 0.56625 0.14144 0.0
C155 C 0.94133 0.56613 0.15394 0.0
C156 C 0.94403 0.67156 0.15111 0.0
C157 C 0.95641 0.61833 0.15864 0.0
C158 C 0.88717 0.87258 0.0811 0.0
C159 C 0.90243 0.72868 0.13133 0.0
H160 H 0.88339 0.18897 0.13609 0.0
H161 H 0.81262 0.28118 0.09701 0.0
H162 H 0.8083 0.09583 0.10537 0.0
H163 H 0.78657 0.18848 0.09025 0.0
H164 H 0.88003 0.62177 0.12394 0.0
H165 H 0.95125 0.52579 0.1606 0.0
H166 H 0.95587 0.71157 0.15519 0.0
H167 H 0.97767 0.61753 0.16842 0.0
Eu168 Eu 0.16064 0.96885 0.37747 0.0
C169 C 0.06529 0.81547 0.32403 0.0
C170 C 0.01956 0.8391 0.34632 0.0
C171 C 0.01831 0.81054 0.30087 0.0
C172 C 0.05079 0.83414 0.34613 0.0
C173 C 0.04915 0.80165 0.30138 0.0
C174 C 1.00352 0.82927 0.32333 0.0
C175 C 0.09454 0.76438 0.28264 0.0
N176 N 0.09501 0.80659 0.32533 0.0
C177 C 0.10953 0.77865 0.30558 0.0
C178 C 0.06432 0.77702 0.28032 0.0
Eu179 Eu 0.11941 0.83568 0.36408 0.0
N180 N 0.06694 0.84203 0.36809 0.0
C181 C 0.05292 0.84832 0.39146 0.0
C182 C 1.0053 0.85072 0.3699 0.0
C183 C 0.02201 0.85378 0.39267 0.0
H184 H 0.13294 0.76917 0.30717 0.0
H185 H 0.01113 0.86063 0.41117 0.0
H186 H 0.97957 0.83369 0.32301 0.0
H187 H 0.10632 0.74385 0.26676 0.0
H188 H 0.06547 0.85082 0.40925 0.0
H189 H 0.25497 0.91902 0.31388 0.0
H190 H 0.98137 0.85489 0.37089 0.0
H191 H 0.16168 0.02897 0.43669 0.0
H192 H 0.20261 0.93624 0.32463 0.0
H193 H 0.19738 0.04761 0.47224 0.0
H194 H 1.00557 0.80092 0.28355 0.0
H195 H 0.29346 0.9273 0.34789 0.0
H196 H 0.30665 0.95177 0.39393 0.0
H197 H 0.05273 0.76576 0.26257 0.0
H198 H 0.29097 0.98587 0.43713 0.0
N199 N 0.21077 0.95309 0.36474 0.0
C200 C 0.21896 0.94045 0.33978 0.0
C201 C 0.27039 0.93496 0.3528 0.0
C202 C 0.2621 0.95077 0.37802 0.0
C203 C 0.24875 0.9304 0.33354 0.0
C204 C 0.23172 0.9599 0.38345 0.0
H205 H 0.25035 0.02196 0.46649 0.0
N206 N 0.19374 0.98969 0.41198 0.0
C207 C 0.20484 0.02764 0.45434 0.0
C208 C 0.22291 0.97856 0.40783 0.0
C209 C 0.18468 0.01679 0.43428 0.0
C210 C 0.2347 1.01307 0.45101 0.0
C211 C 0.24421 0.98941 0.42734 0.0
O212 O 0.14765 0.05805 0.38721 0.0
O213 O 0.11491 0.93289 0.36913 0.0
O214 O 0.11816 0.88694 0.32611 0.0
O215 O 0.15225 0.96148 0.33399 0.0
O216 O 0.11817 0.99511 0.39819 0.0
O217 O 0.1739 0.04186 0.35272 0.0
O218 O 0.13766 0.7474 0.36128 0.0
O219 O 0.16483 0.87068 0.37458 0.0
O220 O 0.15907 0.91943 0.41527 0.0
O221 O 0.11903 0.85725 0.40784 0.0
O222 O 0.16271 0.81317 0.34394 0.0
O223 O 0.10405 0.7661 0.38989 0.0
C224 C 0.09978 0.96332 0.38526 0.0
C225 C 0.17836 0.1348 0.37306 0.0
C226 C 0.17828 0.241 0.3786 0.0
C227 C 0.16339 0.18862 0.37261 0.0
C228 C 0.20871 0.23829 0.38478 0.0
C229 C 0.20862 0.13315 0.37931 0.0
C230 C 0.22368 0.18476 0.38507 0.0
C231 C 0.13431 0.93203 0.31848 0.0
C232 C 0.16156 0.08115 0.36761 0.0
C233 C 0.27433 0.97826 0.42232 0.0
C234 C 0.28326 0.95893 0.39772 0.0
C235 C 0.18078 0.84085 0.35889 0.0
C236 C 0.10605 0.67007 0.37246 0.0
C237 C 0.12257 0.61805 0.37425 0.0
C238 C 0.10976 0.56402 0.36756 0.0
C239 C 0.08008 0.56316 0.35902 0.0
C240 C 0.07658 0.66809 0.36375 0.0
C241 C 0.0637 0.61481 0.35714 0.0
C242 C 0.13797 0.88414 0.42354 0.0
C243 C 0.12032 0.72594 0.37897 0.0
H244 H 0.14008 0.18948 0.36744 0.0
H245 H 0.22086 0.27733 0.38987 0.0
H246 H 0.22053 0.09213 0.37984 0.0
H247 H 0.24701 0.1832 0.39001 0.0
H248 H 0.14534 0.61974 0.38102 0.0
H249 H 0.06963 0.52263 0.35334 0.0
H250 H 0.06358 0.70765 0.36196 0.0
H251 H 0.04097 0.61355 0.35037 0.0
Eu252 Eu 0.86558 0.06418 0.38036 0.0
C253 C 0.95954 0.21331 0.3237 0.0
C254 C 1.00523 0.19526 0.34714 0.0
C255 C 1.00684 0.21723 0.30098 0.0
C256 C 0.97397 0.19936 0.34654 0.0
C257 C 0.97582 0.22334 0.30073 0.0
C258 C 0.02152 0.2032 0.32415 0.0
C259 C 0.92978 0.24815 0.27935 0.0
N260 N 0.92957 0.21887 0.32412 0.0
C261 C 0.91463 0.23794 0.30261 0.0
C262 C 0.96049 0.24023 0.27832 0.0
Eu263 Eu 0.90514 0.19644 0.36369 0.0
N264 N 0.95756 0.19197 0.3684 0.0
C265 C 0.97123 0.18413 0.39184 0.0
C266 C 0.01921 0.18437 0.37091 0.0
C267 C 1.00214 0.17956 0.3934 0.0
H268 H 0.89086 0.24376 0.30315 0.0
H269 H 0.01275 0.17193 0.41196 0.0
H270 H 0.0455 0.19966 0.32419 0.0
H271 H 0.91776 0.26204 0.26223 0.0
H272 H 0.95848 0.17978 0.40941 0.0
H273 H 0.75602 0.0864 0.33608 0.0
H274 H 0.04314 0.18067 0.37217 0.0
H275 H 0.88288 1.01216 0.43948 0.0
H276 H 0.81068 0.07925 0.33682 0.0
H277 H 0.858 0.99114 0.48118 0.0
H278 H 0.01971 0.22428 0.28348 0.0
H279 H 0.72752 0.07849 0.377 0.0
H280 H 0.72747 0.05884 0.42503 0.0
H281 H 0.97218 0.24825 0.26028 0.0
H282 H 0.75523 0.03235 0.46451 0.0
N283 N 0.81321 0.0701 0.37783 0.0
C284 C 0.79852 0.0762 0.35483 0.0
C285 C 0.75152 0.07574 0.37746 0.0
C286 C 0.76664 0.06544 0.40076 0.0
C287 C 0.76752 0.08007 0.35432 0.0
C288 C 0.79791 0.06221 0.40026 0.0
H289 H 0.80383 1.00621 0.48549 0.0
N290 N 0.84332 0.04033 0.42069 0.0
C291 C 0.8452 1.00682 0.46481 0.0
C292 C 0.81343 0.04659 0.42236 0.0
C293 C 0.85921 0.01861 0.44116 0.0
C294 C 0.81465 1.01557 0.4672 0.0
C295 C 0.79827 0.03473 0.44572 0.0
O296 O 0.88034 0.97415 0.38597 0.0
O297 O 0.91009 0.10071 0.36967 0.0
O298 O 0.90855 0.13448 0.32927 0.0
O299 O 0.86603 0.07971 0.33626 0.0
O300 O 0.91053 0.0402 0.39869 0.0
O301 O 0.85021 0.99475 0.35454 0.0
O302 O 0.88878 0.28498 0.35704 0.0
O303 O 0.85949 0.16124 0.3739 0.0
O304 O 0.86371 0.12281 0.41552 0.0
O305 O 0.90549 0.17912 0.4079 0.0
O306 O 0.86226 0.21646 0.34239 0.0
O307 O 0.91809 0.2679 0.38944 0.0
C308 C 0.9274 0.07244 0.38451 0.0
C309 C 0.84788 0.89931 0.37244 0.0
C310 C 0.84709 0.7924 0.37338 0.0
C311 C 0.86207 0.84531 0.36854 0.0
C312 C 0.81758 0.7948 0.38233 0.0
C313 C 0.81853 0.90052 0.38148 0.0
C314 C 0.80351 0.84845 0.38637 0.0
C315 C 0.8881 0.09727 0.32113 0.0
C316 C 0.86422 0.95361 0.36709 0.0
C317 C 0.76726 0.04083 0.44668 0.0
C318 C 0.75146 0.05604 0.42422 0.0
C319 C 0.84401 0.18787 0.35674 0.0
C320 C 0.91882 0.36287 0.37098 0.0
C321 C 0.90337 0.41571 0.37438 0.0
C322 C 0.91719 0.46965 0.36921 0.0
C323 C 0.94683 0.46941 0.3605 0.0
C324 C 0.94823 0.36379 0.36212 0.0
C325 C 0.96211 0.41689 0.35696 0.0
C326 C 0.88517 0.15716 0.42379 0.0
C327 C 0.9036 0.30741 0.37629 0.0
H328 H 0.88492 0.84471 0.36198 0.0
H329 H 0.80515 0.75522 0.38586 0.0
H330 H 0.80722 0.94156 0.38467 0.0
H331 H 0.78079 0.84965 0.3932 0.0
H332 H 0.88045 0.41458 0.38075 0.0
H333 H 0.95841 0.50986 0.35677 0.0
H334 H 0.96041 0.32358 0.35922 0.0
H335 H 0.98488 0.41739 0.35026 0.0
Eu336 Eu 0.90182 0.83287 0.86717 0.0
C337 C 0.79604 0.96273 0.87349 0.0
C338 C 0.78157 0.02037 0.83617 0.0
C339 C 0.74416 0.96732 0.86051 0.0
C340 C 0.80374 0.99765 0.8527 0.0
C341 C 0.76601 0.94867 0.87809 0.0
C342 C 0.7519 1.00331 0.83962 0.0
C343 C 0.78093 0.905 0.9187 0.0
N344 N 0.81762 0.94611 0.89032 0.0
C345 C 0.81039 0.91959 0.91317 0.0
C346 C 0.75869 0.91845 0.9008 0.0
Eu347 Eu 0.8671 0.97129 0.87942 0.0
N348 N 0.83249 1.01409 0.85019 0.0
C349 C 0.83981 0.05923 0.83403 0.0
C350 C 0.78964 0.06198 0.8176 0.0
C351 C 0.81879 0.08249 0.81694 0.0
H352 H 0.82721 0.90966 0.92723 0.0
H353 H 0.82502 0.11655 0.80347 0.0
H354 H 0.73462 0.0196 0.82689 0.0
H355 H 0.77545 0.88306 0.93667 0.0
H356 H 0.86223 0.0759 0.83387 0.0
H357 H 0.99676 0.84947 0.93266 0.0
H358 H 0.77328 0.08055 0.80457 0.0
H359 H 0.9018 0.77869 0.80656 0.0
H360 H 0.94391 0.84313 0.92074 0.0
H361 H 0.93714 0.76249 0.77041 0.0
H362 H 0.7211 0.95599 0.86351 0.0
H363 H 0.03528 0.84837 0.89839 0.0
H364 H 0.04808 0.83724 0.8511 0.0
H365 H 0.7359 0.90695 0.90506 0.0
H366 H 0.03174 0.81396 0.80664 0.0
N367 N 0.9522 0.83864 0.88013 0.0
C368 C 0.96041 0.84215 0.90561 0.0
C369 C 0.01208 0.84522 0.89306 0.0
C370 C 1.00357 0.83854 0.8671 0.0
C371 C 0.99041 0.84563 0.91246 0.0
C372 C 0.97306 0.83437 0.86124 0.0
H373 H 0.99043 0.78476 0.77644 0.0
N374 N 0.9346 0.81245 0.83214 0.0
C375 C 0.94496 0.77944 0.78879 0.0
C376 C 0.96393 0.82116 0.83636 0.0
C377 C 0.92507 0.78848 0.80927 0.0
C378 C 0.975 0.79226 0.79225 0.0
C379 C 0.98496 0.81192 0.81647 0.0
O380 O 0.88576 0.74593 0.85625 0.0
O381 O 0.85714 0.87438 0.87593 0.0
O382 O 0.88013 0.93484 0.91886 0.0
O383 O 0.88996 0.83709 0.91025 0.0
O384 O 0.86088 0.82313 0.84266 0.0
O385 O 0.91057 0.75668 0.89155 0.0
O386 O 0.85231 0.02655 0.91171 0.0
O387 O 0.91111 0.92381 0.88158 0.0
O388 O 0.90425 0.88663 0.82949 0.0
O389 O 0.86903 0.95991 0.83575 0.0
O390 O 0.91057 1.00266 0.86196 0.0
O391 O 0.88252 0.06128 0.8834 0.0
C392 C 0.84247 0.85082 0.85733 0.0
C393 C 0.91225 0.6637 0.87165 0.0
C394 C 0.91093 0.55669 0.87344 0.0
C395 C 0.89673 0.61142 0.87615 0.0
C396 C 0.94096 0.55593 0.86572 0.0
C397 C 0.94195 0.66153 0.86371 0.0
C398 C 0.95615 0.60783 0.86071 0.0
C399 C 0.88528 0.88081 0.92647 0.0
C400 C 0.8973 0.71995 0.87624 0.0
C401 C 0.01527 0.82005 0.82175 0.0
C402 C 0.02457 0.83329 0.84705 0.0
C403 C 0.92754 0.96096 0.86989 0.0
C404 C 0.84762 0.12748 0.90072 0.0
C405 C 0.86191 0.18071 0.89517 0.0
C406 C 0.84553 0.23294 0.89261 0.0
C407 C 0.81455 0.23106 0.89583 0.0
C408 C 0.8166 0.12684 0.90354 0.0
C409 C 0.80027 0.17839 0.90118 0.0
C410 C 0.88761 0.93037 0.8209 0.0
C411 C 0.86535 0.07317 0.90293 0.0
H412 H 0.87359 0.61375 0.88179 0.0
H413 H 0.95308 0.51533 0.86401 0.0
H414 H 0.95421 0.70129 0.86014 0.0
H415 H 0.97921 0.60641 0.85483 0.0
H416 H 0.88583 0.18143 0.89298 0.0
H417 H 0.80125 0.27016 0.8937 0.0
H418 H 0.80491 0.08658 0.90747 0.0
H419 H 0.77638 0.17748 0.90334 0.0
Eu420 Eu 0.12143 0.19372 0.85899 0.0
C421 C 0.21174 0.04362 0.92093 0.0
C422 C 0.25866 0.0704 0.90144 0.0
C423 C 0.25702 0.03966 0.94659 0.0
C424 C 0.2276 0.06361 0.8998 0.0
C425 C 0.22635 0.02995 0.94438 0.0
C426 C 0.27316 0.05984 0.92514 0.0
C427 C 0.17996 0.99193 0.96064 0.0
N428 N 0.18229 0.0338 0.91798 0.0
C429 C 0.1666 1.00555 0.93687 0.0
C430 C 0.20989 1.00497 0.96456 0.0
Eu431 Eu 0.16054 0.0614 0.8779 0.0
N432 N 0.21295 0.07241 0.87711 0.0
C433 C 0.22841 0.08315 0.85479 0.0
C434 C 0.27435 0.08545 0.87898 0.0
C435 C 0.2592 0.09089 0.85546 0.0
H436 H 0.1435 0.99507 0.93382 0.0
H437 H 0.27119 0.10113 0.83783 0.0
H438 H 0.29696 0.0654 0.92685 0.0
H439 H 0.16721 0.97122 0.97587 0.0
H440 H 0.21707 0.08743 0.83645 0.0
H441 H 0.01329 0.17074 0.90638 0.0
H442 H 0.29821 0.0912 0.87943 0.0
H443 H 0.13673 0.23827 0.79849 0.0
H444 H 0.06765 0.17779 0.90436 0.0
H445 H 0.11033 0.25601 0.75709 0.0
H446 H 0.2686 0.02999 0.96454 0.0
H447 H 0.98346 0.17877 0.86622 0.0
H448 H 0.98176 0.19639 0.81812 0.0
H449 H 0.2203 0.99388 0.98287 0.0
H450 H 1.00808 0.21949 0.77753 0.0
N451 N 0.06907 0.18875 0.86328 0.0
C452 C 0.0551 0.1818 0.88664 0.0
C453 C 1.00741 0.18211 0.86518 0.0
C454 C 0.02172 0.19208 0.84149 0.0
C455 C 0.02417 0.17769 0.88789 0.0
C456 C 0.05299 0.19567 0.84118 0.0
H457 H 0.05592 0.24243 0.75466 0.0
N458 N 0.09773 0.21366 0.81894 0.0
C459 C 0.0981 0.24239 0.77413 0.0
C460 C 0.06776 0.20848 0.81833 0.0
C461 C 0.11296 0.2325 0.79758 0.0
C462 C 0.0674 0.23459 0.77283 0.0
C463 C 0.05177 0.21825 0.79517 0.0
O464 O 0.13822 0.28116 0.85097 0.0
O465 O 0.16587 0.15905 0.87257 0.0
O466 O 0.15592 0.112 0.91504 0.0
O467 O 0.12081 0.1829 0.90358 0.0
O468 O 0.16584 0.21246 0.84024 0.0
O469 O 0.10653 0.26836 0.88206 0.0
O470 O 0.14352 0.97222 0.87984 0.0
O471 O 0.11676 0.09825 0.86537 0.0
O472 O 0.12066 0.13124 0.82444 0.0
O473 O 0.16338 0.07927 0.83427 0.0
O474 O 0.11482 0.03747 0.89439 0.0
O475 O 0.17919 0.99244 0.85341 0.0
C476 C 0.18277 0.18612 0.85669 0.0
C477 C 0.10751 0.36101 0.86132 0.0
C478 C 0.11015 0.46719 0.85668 0.0
C479 C 0.123 0.41375 0.86432 0.0
C480 C 0.08135 0.46662 0.84604 0.0
C481 C 0.07889 0.36152 0.85067 0.0
C482 C 0.06591 0.41419 0.84312 0.0
C483 C 0.13687 0.15376 0.92095 0.0
C484 C 0.12207 0.30603 0.86879 0.0
C485 C 0.02073 0.21267 0.79518 0.0
C486 C 1.00575 0.19955 0.81829 0.0
C487 C 0.09877 0.07029 0.87967 0.0
C488 C 0.17753 0.8967 0.87104 0.0
C489 C 0.16235 0.8436 0.86803 0.0
C490 C 0.17546 0.79043 0.87575 0.0
C491 C 0.20425 0.79155 0.88638 0.0
C492 C 0.20613 0.89671 0.8818 0.0
C493 C 0.2194 0.8443 0.88932 0.0
C494 C 0.14247 0.09551 0.81774 0.0
C495 C 0.16276 0.95151 0.86344 0.0
H496 H 0.14503 0.41302 0.87279 0.0
H497 H 0.0709 0.50657 0.83953 0.0
H498 H 0.06668 0.32135 0.84811 0.0
H499 H 0.04385 0.41436 0.83479 0.0
H500 H 0.14034 0.84386 0.85953 0.0
H501 H 0.21492 0.75181 0.89289 0.0
H502 H 0.21814 0.93711 0.88445 0.0
H503 H 0.24145 0.84457 0.89766 0.0
Eu504 Eu 0.90047 0.18807 0.63693 0.0
C505 C 0.80259 0.03516 0.58974 0.0
C506 C 0.7594 0.05609 0.61627 0.0
C507 C 0.75311 0.02687 0.57123 0.0
C508 C 0.7905 0.0527 0.61325 0.0
C509 C 0.784 0.02091 0.56865 0.0
C510 C 0.74084 0.04446 0.59498 0.0
C511 C 0.82764 0.99088 0.54475 0.0
N512 N 0.8325 0.02909 0.58792 0.0
C513 C 0.84517 1.00528 0.56622 0.0
C514 C 0.79695 0.99932 0.54586 0.0
Eu515 Eu 0.86044 0.05438 0.62512 0.0
N516 N 0.80898 0.06233 0.63364 0.0
C517 C 0.79778 0.07111 0.65797 0.0
C518 C 0.74786 0.06878 0.64087 0.0
C519 C 0.76712 0.07532 0.66189 0.0
H520 H 0.86891 0.99887 0.56534 0.0
H521 H 0.7584 0.08367 0.68112 0.0
H522 H 0.71692 0.0473 0.59691 0.0
H523 H 0.83779 0.97313 0.52742 0.0
H524 H 0.81242 0.07607 0.6744 0.0
H525 H 1.00207 0.15308 0.58036 0.0
H526 H 0.72411 0.07177 0.64399 0.0
H527 H 0.89387 0.25264 0.69496 0.0
H528 H 0.94842 0.16341 0.58727 0.0
H529 H 0.92541 0.27949 0.73235 0.0
H530 H 0.73848 0.01654 0.55517 0.0
H531 H 0.03683 0.16565 0.6171 0.0
H532 H 0.04472 0.19227 0.6639 0.0
H533 H 0.78337 0.98766 0.5293 0.0
H534 H 0.02386 0.22677 0.70537 0.0
N535 N 0.95214 0.18044 0.62786 0.0
C536 C 0.96308 0.16942 0.60357 0.0
C537 C 0.01318 0.17036 0.6203 0.0
C538 C 1.00201 0.18525 0.64477 0.0
C539 C 0.99364 0.16344 0.59951 0.0
C540 C 0.971 0.19053 0.64791 0.0
H541 H 0.97947 0.26052 0.73091 0.0
N542 N 0.92959 0.21749 0.67293 0.0
C543 C 0.93524 0.25956 0.71534 0.0
C544 C 0.95934 0.20972 0.67119 0.0
C545 C 0.91745 0.2444 0.69412 0.0
C546 C 0.96572 0.24862 0.71448 0.0
C547 C 0.97824 0.22443 0.69203 0.0
O548 O 0.88293 0.27629 0.64214 0.0
O549 O 0.85427 0.15206 0.62997 0.0
O550 O 0.85423 0.11017 0.58974 0.0
O551 O 0.89599 0.16842 0.59286 0.0
O552 O 0.85969 0.20853 0.66089 0.0
O553 O 0.91231 0.2581 0.61002 0.0
O554 O 0.87489 0.96492 0.61771 0.0
O555 O 0.9055 0.09161 0.63325 0.0
O556 O 0.90419 0.1354 0.67458 0.0
O557 O 0.86625 0.06734 0.66875 0.0
O558 O 0.90395 0.03098 0.60415 0.0
O559 O 0.8467 0.98354 0.65083 0.0
C560 C 0.84028 0.17973 0.64779 0.0
C561 C 0.91289 0.35365 0.62789 0.0
C562 C 0.91031 0.45987 0.63231 0.0
C563 C 0.89666 0.40603 0.62669 0.0
C564 C 0.94059 0.46012 0.63911 0.0
C565 C 0.943 0.35501 0.63475 0.0
C566 C 0.95673 0.40809 0.64027 0.0
C567 C 0.87403 0.14498 0.57917 0.0
C568 C 0.8977 0.29805 0.62278 0.0
C569 C 1.00901 0.21638 0.68947 0.0
C570 C 0.02088 0.19675 0.66587 0.0
C571 C 0.92176 0.06275 0.61771 0.0
C572 C 0.84284 0.88971 0.63128 0.0
C573 C 0.85783 0.83591 0.63074 0.0
C574 C 0.84268 0.78386 0.62467 0.0
C575 C 0.81207 0.78681 0.61931 0.0
C576 C 0.81235 0.89153 0.62589 0.0
C577 C 0.7971 0.84026 0.61998 0.0
C578 C 0.88658 0.09325 0.6833 0.0
C579 C 0.85972 0.94321 0.63695 0.0
H580 H 0.87343 0.40472 0.62124 0.0
H581 H 0.95173 0.50045 0.644 0.0
H582 H 0.95583 0.31516 0.63595 0.0
H583 H 0.97994 0.40888 0.64567 0.0
H584 H 0.88132 0.83476 0.63525 0.0
H585 H 0.79974 0.748 0.61418 0.0
H586 H 0.80034 0.9324 0.62622 0.0
H587 H 0.77359 0.84199 0.61572 0.0
Eu588 Eu 0.11516 0.83323 0.63867 0.0
C589 C 0.21073 0.97705 0.58113 0.0
C590 C 0.25571 0.95375 0.60462 0.0
C591 C 0.25818 0.97721 0.55863 0.0
C592 C 0.22457 0.96016 0.60381 0.0
C593 C 0.22742 0.98734 0.55842 0.0
C594 C 0.27232 0.96052 0.58173 0.0
C595 C 0.18277 0.02393 0.53813 0.0
N596 N 0.18116 0.98778 0.58186 0.0
C597 C 0.16734 1.01387 0.56127 0.0
C598 C 0.21287 1.0097 0.53654 0.0
Eu599 Eu 0.15564 0.9642 0.62077 0.0
N600 N 0.20787 0.95519 0.6256 0.0
C601 C 0.22123 0.94972 0.64929 0.0
C602 C 0.26931 0.9436 0.62863 0.0
C603 C 0.25204 0.94293 0.65113 0.0
H604 H 0.14414 0.02543 0.56249 0.0
H605 H 0.26241 0.93691 0.66991 0.0
H606 H 0.29621 0.95505 0.5819 0.0
H607 H 0.17148 0.04282 0.52158 0.0
H608 H 0.20816 0.94893 0.66684 0.0
H609 H 1.00941 0.83925 0.58641 0.0
H610 H 0.29317 0.93852 0.63011 0.0
H611 H 0.12727 0.79615 0.70097 0.0
H612 H 0.06371 0.83429 0.5909 0.0
H613 H 0.09886 0.78567 0.74174 0.0
H614 H 0.27136 0.98423 0.54131 0.0
H615 H 0.97758 0.84168 0.62552 0.0
H616 H 0.97349 0.83545 0.6741 0.0
H617 H 0.22487 0.01803 0.51869 0.0
H618 H 0.9978 0.82016 0.71639 0.0
N619 N 0.06302 0.835 0.63226 0.0
C620 C 0.05024 0.83497 0.6082 0.0
C621 C 1.00148 0.83932 0.62765 0.0
C622 C 0.0146 0.83558 0.65222 0.0
C623 C 0.01936 0.83777 0.60553 0.0
C624 C 0.04583 0.83269 0.65389 0.0
H625 H 0.04445 0.80053 0.74173 0.0
N626 N 0.08938 0.81779 0.67824 0.0
C627 C 0.0875 0.79655 0.72386 0.0
C628 C 0.05943 0.82361 0.67762 0.0
C629 C 0.1035 0.80226 0.70072 0.0
C630 C 0.05681 0.80513 0.72378 0.0
C631 C 0.04231 0.81793 0.70041 0.0
O632 O 0.13058 0.7459 0.64898 0.0
O633 O 0.16107 0.8671 0.62808 0.0
O634 O 0.15488 0.90929 0.58455 0.0
O635 O 0.11704 0.84301 0.5942 0.0
O636 O 0.15769 0.81545 0.6608 0.0
O637 O 0.10334 0.75794 0.61474 0.0
O638 O 0.13881 0.05299 0.61573 0.0
O639 O 0.11037 0.92793 0.62976 0.0
O640 O 0.10986 0.90018 0.67108 0.0
O641 O 0.15375 0.95004 0.66473 0.0
O642 O 0.11235 0.98699 0.59985 0.0
O643 O 0.17077 0.03515 0.64591 0.0
C644 C 0.17624 0.84134 0.6457 0.0
C645 C 0.10138 0.66601 0.63593 0.0
C646 C 0.10291 0.55966 0.6401 0.0
C647 C 0.11673 0.61284 0.63367 0.0
C648 C 0.07324 0.5609 0.64871 0.0
C649 C 0.0719 0.66623 0.64461 0.0
C650 C 0.05793 0.61379 0.65088 0.0
C651 C 0.13543 0.8691 0.57775 0.0
C652 C 0.11692 0.7206 0.62976 0.0
C653 C 0.01131 0.82381 0.69905 0.0
C654 C 0.99748 0.8326 0.67498 0.0
C655 C 0.0945 0.95502 0.6132 0.0
C656 C 0.17077 0.1298 0.6272 0.0
C657 C 0.15538 0.18292 0.62961 0.0
C658 C 0.16901 0.23611 0.62286 0.0
C659 C 0.19849 0.235 0.61379 0.0
C660 C 0.20005 0.12972 0.61799 0.0
C661 C 0.21382 0.18219 0.61142 0.0
C662 C 0.13063 0.93644 0.67932 0.0
C663 C 0.15551 0.07506 0.63379 0.0
H664 H 0.13945 0.61306 0.62672 0.0
H665 H 0.06198 0.52112 0.65422 0.0
H666 H 0.05979 0.70678 0.6466 0.0
H667 H 0.03519 0.61416 0.65766 0.0
H668 H 0.13281 0.18269 0.6369 0.0
H669 H 0.20957 0.27483 0.60807 0.0
H670 H 0.2122 0.08923 0.61581 0.0
H671 H 0.23641 0.1819 0.60426 0.0
Eu672 Eu 0.65441 0.57013 0.11982 0.0
C673 C 0.56972 0.69761 0.19237 0.0
C674 C 0.52073 0.68459 0.17394 0.0
C675 C 0.52683 0.68975 0.2208 0.0
C676 C 0.55169 0.69058 0.17087 0.0
C677 C 0.55742 0.69869 0.21755 0.0
C678 C 0.50849 0.68288 0.19903 0.0
C679 C 0.60608 0.72223 0.23424 0.0
N680 N 0.59918 0.70627 0.18855 0.0
C681 C 0.61722 0.72105 0.20888 0.0
C682 C 0.57613 0.71015 0.23865 0.0
Eu683 Eu 0.61678 0.69815 0.14521 0.0
N684 N 0.56426 0.6921 0.14692 0.0
C685 C 0.54689 0.69183 0.12517 0.0
C686 C 0.50296 0.6815 0.15169 0.0
C687 C 0.51608 0.68591 0.12721 0.0
H688 H 0.64045 0.72988 0.20565 0.0
H689 H 0.50251 0.68431 0.10988 0.0
H690 H 0.48482 0.67742 0.20179 0.0
H691 H 0.6206 0.73233 0.25036 0.0
H692 H 0.55668 0.69474 0.1061 0.0
H693 H 0.76648 0.59221 0.16131 0.0
H694 H 0.47911 0.67666 0.1532 0.0
H695 H 0.63481 0.53512 0.05809 0.0
H696 H 0.71279 0.58076 0.16306 0.0
H697 H 0.65845 0.52813 0.01504 0.0
H698 H 0.5171 0.68931 0.24002 0.0
H699 H 0.79243 0.59405 0.11912 0.0
H700 H 0.79008 0.58606 0.07084 0.0
H701 H 0.56755 0.71124 0.2583 0.0
H702 H 0.76094 0.56889 0.03128 0.0
N703 N 0.70698 0.5777 0.12183 0.0
C704 C 0.72314 0.58153 0.14428 0.0
C705 C 0.76853 0.58902 0.11962 0.0
C706 C 0.75221 0.58222 0.09672 0.0
C707 C 0.75396 0.58796 0.14347 0.0
C708 C 0.72105 0.57593 0.09837 0.0
H709 H 0.71216 0.54693 0.01037 0.0
N710 N 0.67475 0.55788 0.07774 0.0
C711 C 0.67166 0.53866 0.03196 0.0
C712 C 0.70456 0.56602 0.07584 0.0
C713 C 0.65841 0.54198 0.05644 0.0
C714 C 0.70196 0.54957 0.0294 0.0
C715 C 0.71889 0.56249 0.05147 0.0
O716 O 0.63697 0.49288 0.14017 0.0
O717 O 0.61067 0.60433 0.13398 0.0
O718 O 0.61893 0.62778 0.17656 0.0
O719 O 0.66178 0.58012 0.1634 0.0
O720 O 0.60882 0.55371 0.10117 0.0
O721 O 0.67111 0.48192 0.11179 0.0
O722 O 0.6327 0.78599 0.15436 0.0
O723 O 0.6607 0.66636 0.12854 0.0
O724 O 0.64947 0.63375 0.08684 0.0
O725 O 0.61013 0.69136 0.10082 0.0
O726 O 0.66278 0.71681 0.16138 0.0
O727 O 0.59819 0.77558 0.12593 0.0
C728 C 0.59268 0.58083 0.11806 0.0
C729 C 0.63569 0.40592 0.115 0.0
C730 C 0.61957 0.30315 0.11435 0.0
C731 C 0.63572 0.34933 0.12616 0.0
C732 C 0.60386 0.3149 0.09128 0.0
C733 C 0.61975 0.41528 0.09198 0.0
C734 C 0.60393 0.37033 0.08032 0.0
C735 C 0.64168 0.59275 0.1813 0.0
C736 C 0.65233 0.45535 0.12682 0.0
C737 C 0.74966 0.57093 0.04985 0.0
C738 C 0.76625 0.5807 0.07239 0.0
C739 C 0.67883 0.69167 0.14394 0.0
C740 C 0.5983 0.86347 0.15063 0.0
C741 C 0.60387 0.92122 0.1421 0.0
C742 C 0.58843 0.96883 0.15334 0.0
C743 C 0.56806 0.9578 0.17343 0.0
C744 C 0.57771 0.8543 0.17062 0.0
C745 C 0.56287 0.9011 0.18201 0.0
C746 C 0.62768 0.67051 0.08229 0.0
C747 C 0.61406 0.81275 0.13915 0.0
H748 H 0.64797 0.3415 0.14393 0.0
H749 H 0.59183 0.28077 0.08128 0.0
H750 H 0.61969 0.4573 0.08272 0.0
H751 H 0.59185 0.37838 0.0625 0.0
H752 H 0.61951 0.9289 0.12648 0.0
H753 H 0.5559 0.99332 0.18239 0.0
H754 H 0.57305 0.81088 0.17745 0.0
H755 H 0.54704 0.89333 0.19744 0.0
Eu756 Eu 0.35828 0.47877 0.1223 0.0
C757 C 0.45845 0.3303 0.16784 0.0
C758 C 0.50102 0.3482 0.14031 0.0
C759 C 0.50822 0.32677 0.18611 0.0
C760 C 0.47002 0.34434 0.14384 0.0
C761 C 0.47744 0.31995 0.18914 0.0
C762 C 0.52001 0.34084 0.16171 0.0
C763 C 0.43447 0.29098 0.21403 0.0
N764 N 0.42866 0.32342 0.16997 0.0
C765 C 0.41661 0.30135 0.19228 0.0
C766 C 0.46498 0.30117 0.21259 0.0
Eu767 Eu 0.39953 0.34408 0.1326 0.0
N768 N 0.45106 0.35053 0.12358 0.0
C769 C 0.46173 0.3565 0.0989 0.0
C770 C 0.51203 0.35722 0.11523 0.0
C771 C 0.49231 0.36025 0.09437 0.0
H772 H 0.39305 0.29344 0.19355 0.0
H773 H 0.50059 0.36612 0.07481 0.0
H774 H 0.54385 0.34425 0.15943 0.0
H775 H 0.4247 0.27511 0.23188 0.0
H776 H 0.44674 0.35963 0.08264 0.0
H777 H 0.25661 0.44569 0.17877 0.0
H778 H 0.53569 0.36036 0.11168 0.0
H779 H 0.36307 0.54364 0.06283 0.0
H780 H 0.30999 0.46129 0.17243 0.0
H781 H 0.3307 0.56182 0.02496 0.0
H782 H 0.52315 0.31958 0.2023 0.0
H783 H 0.22284 0.44369 0.141 0.0
H784 H 0.2153 0.45941 0.09343 0.0
H785 H 0.47879 0.29282 0.22942 0.0
H786 H 0.23549 0.49135 0.05147 0.0
N787 N 0.30712 0.46599 0.13113 0.0
C788 C 0.29576 0.46038 0.15562 0.0
C789 C 0.24638 0.45041 0.138 0.0
C790 C 0.25776 0.46103 0.11318 0.0
C791 C 0.26535 0.45173 0.15937 0.0
C792 C 0.28864 0.46957 0.11028 0.0
H793 H 0.27816 0.53113 0.02605 0.0
N794 N 0.32941 0.50081 0.08477 0.0
C795 C 0.32187 0.54054 0.04204 0.0
C796 C 0.30006 0.48762 0.0865 0.0
C797 C 0.34004 0.53054 0.06358 0.0
C798 C 0.29227 0.52287 0.04269 0.0
C799 C 0.28081 0.49755 0.06529 0.0
O800 O 0.3702 0.56754 0.11122 0.0
O801 O 0.40334 0.43489 0.11715 0.0
O802 O 0.4056 0.40434 0.16797 0.0
O803 O 0.36191 0.45749 0.16497 0.0
O804 O 0.40381 0.51821 0.13098 0.0
O805 O 0.34225 0.55241 0.14517 0.0
O806 O 0.38177 0.25632 0.13867 0.0
O807 O 0.35305 0.38083 0.12677 0.0
O808 O 0.36157 0.4355 0.08311 0.0
O809 O 0.39286 0.35522 0.08853 0.0
O810 O 0.35916 0.32369 0.15723 0.0
O811 O 0.41329 0.27108 0.10799 0.0
C812 C 0.42054 0.4751 0.12515 0.0
C813 C 0.3381 0.6443 0.12406 0.0
C814 C 0.33619 0.75095 0.12327 0.0
C815 C 0.35155 0.69861 0.12834 0.0
C816 C 0.30708 0.74777 0.11344 0.0
C817 C 0.30905 0.64202 0.1144 0.0
C818 C 0.29368 0.69364 0.10906 0.0
C819 C 0.38603 0.44183 0.17765 0.0
C820 C 0.35496 0.59108 0.13014 0.0
C821 C 0.25048 0.4848 0.06768 0.0
C822 C 0.23898 0.46656 0.09157 0.0
C823 C 0.3394 0.35248 0.14449 0.0
C824 C 0.41179 0.1767 0.12665 0.0
C825 C 0.39575 0.12482 0.12309 0.0
C826 C 0.40865 0.07029 0.12882 0.0
C827 C 0.43799 0.06888 0.13828 0.0
C828 C 0.44088 0.17431 0.13625 0.0
C829 C 0.45388 0.12053 0.14199 0.0
C830 C 0.37613 0.38997 0.07399 0.0
C831 C 0.39754 0.23266 0.12039 0.0
H832 H 0.37417 0.69993 0.13552 0.0
H833 H 0.29448 0.78704 0.10956 0.0
H834 H 0.29824 0.60059 0.11113 0.0
H835 H 0.27122 0.69173 0.10166 0.0
H836 H 0.37308 0.12715 0.11611 0.0
H837 H 0.44886 0.0278 0.14248 0.0
H838 H 0.45352 0.21386 0.13922 0.0
H839 H 0.47642 0.11881 0.14923 0.0
Eu840 Eu 0.66182 0.47768 0.37825 0.0
C841 C 0.5663 0.32547 0.32622 0.0
C842 C 0.52065 0.34147 0.35001 0.0
C843 C 0.51889 0.32093 0.30371 0.0
C844 C 0.55193 0.33872 0.34921 0.0
C845 C 0.54993 0.31529 0.30331 0.0
C846 C 0.50427 0.33399 0.32703 0.0
C847 C 0.59594 0.29048 0.28179 0.0
N848 N 0.5963 0.32029 0.32648 0.0
C849 C 0.61118 0.30082 0.305 0.0
C850 C 0.56522 0.29847 0.28083 0.0
Eu851 Eu 0.62073 0.34345 0.36596 0.0
N852 N 0.5684 0.34534 0.37109 0.0
C853 C 0.55485 0.34957 0.39475 0.0
C854 C 0.50673 0.34967 0.37403 0.0
C855 C 0.5239 0.35252 0.39655 0.0
H856 H 0.63497 0.29517 0.30554 0.0
H857 H 0.51333 0.35741 0.41531 0.0
H858 H 0.48026 0.33667 0.32723 0.0
H859 H 0.60789 0.2765 0.26464 0.0
H860 H 0.56775 0.35206 0.41235 0.0
H861 H 0.76601 0.42676 0.32824 0.0
H862 H 0.48277 0.35214 0.37548 0.0
H863 H 0.65322 0.55188 0.43353 0.0
H864 H 0.71226 0.44341 0.33201 0.0
H865 H 0.6826 0.58009 0.47212 0.0
H866 H 0.50595 0.31387 0.28625 0.0
H867 H 0.79851 0.44015 0.36649 0.0
H868 H 0.80391 0.47199 0.41295 0.0
H869 H 0.55345 0.29034 0.26284 0.0
H870 H 0.78116 0.51372 0.45228 0.0
N871 N 0.71371 0.46366 0.37239 0.0
C872 C 0.72599 0.44932 0.34895 0.0
C873 C 0.77482 0.44721 0.36833 0.0
C874 C 0.7624 0.46584 0.39182 0.0
C875 C 0.75656 0.43983 0.34668 0.0
C876 C 0.73139 0.47409 0.3932 0.0
H877 H 0.73605 0.55543 0.47428 0.0
N878 N 0.68911 0.50817 0.41514 0.0
C879 C 0.69297 0.55615 0.45643 0.0
C880 C 0.71866 0.49717 0.41531 0.0
C881 C 0.67636 0.53987 0.43467 0.0
C882 C 0.7231 0.54199 0.45762 0.0
C883 C 0.73647 0.5132 0.43667 0.0
O884 O 0.64644 0.56807 0.38067 0.0
O885 O 0.61657 0.43962 0.37104 0.0
O886 O 0.61522 0.40401 0.33108 0.0
O887 O 0.65914 0.45498 0.33505 0.0
O888 O 0.61832 0.50766 0.39699 0.0
O889 O 0.67701 0.54324 0.35035 0.0
O890 O 0.6369 0.25468 0.35953 0.0
O891 O 0.66618 0.37924 0.37607 0.0
O892 O 0.65918 0.43236 0.417 0.0
O893 O 0.62078 0.36554 0.40977 0.0
O894 O 0.66419 0.32087 0.34579 0.0
O895 O 0.60835 0.27275 0.39236 0.0
C896 C 0.60055 0.47198 0.38553 0.0
C897 C 0.67938 0.64076 0.36616 0.0
C898 C 0.67967 0.74773 0.36812 0.0
C899 C 0.66467 0.69467 0.36352 0.0
C900 C 0.70977 0.74552 0.37545 0.0
C901 C 0.7093 0.63985 0.37367 0.0
C902 C 0.72435 0.69202 0.37824 0.0
C903 C 0.63579 0.43881 0.32132 0.0
C904 C 0.66291 0.58611 0.3616 0.0
C905 C 0.76714 0.50226 0.43595 0.0
C906 C 0.78009 0.47853 0.41356 0.0
C907 C 0.68222 0.34923 0.36053 0.0
C908 C 0.60704 0.17719 0.37421 0.0
C909 C 0.6229 0.12436 0.37617 0.0
C910 C 0.60891 0.07042 0.3712 0.0
C911 C 0.57868 0.07068 0.36422 0.0
C912 C 0.57705 0.17618 0.36701 0.0
C913 C 0.56299 0.12313 0.3621 0.0
C914 C 0.63875 0.3955 0.42535 0.0
C915 C 0.62245 0.23278 0.3791 0.0
H916 H 0.64138 0.69505 0.35823 0.0
H917 H 0.72223 0.78517 0.37871 0.0
H918 H 0.721 0.59891 0.37601 0.0
H919 H 0.74749 0.69102 0.38389 0.0
H920 H 0.64624 0.12552 0.38122 0.0
H921 H 0.56695 0.03027 0.36073 0.0
H922 H 0.56452 0.2163 0.3652 0.0
H923 H 0.53978 0.1226 0.3567 0.0
Eu924 Eu 0.36404 0.549 0.38379 0.0
C925 C 0.45702 0.69803 0.32614 0.0
C926 C 0.49978 0.686 0.35413 0.0
C927 C 0.50678 0.7043 0.30804 0.0
C928 C 0.46874 0.68733 0.35049 0.0
C929 C 0.4759 0.70831 0.30477 0.0
C930 C 0.5187 0.69303 0.33268 0.0
C931 C 0.43248 0.73117 0.27913 0.0
N932 N 0.42715 0.70214 0.32368 0.0
C933 C 0.41473 0.72084 0.30091 0.0
C934 C 0.46319 0.72422 0.28098 0.0
Eu935 Eu 0.39829 0.68212 0.36106 0.0
N936 N 0.44983 0.68117 0.37083 0.0
C937 C 0.46059 0.67808 0.39562 0.0
C938 C 0.51087 0.67925 0.37933 0.0
C939 C 0.49118 0.67627 0.4002 0.0
H940 H 0.39093 0.72599 0.2994 0.0
H941 H 0.49952 0.67217 0.41983 0.0
H942 H 0.54258 0.69146 0.33506 0.0
H943 H 0.42249 0.74459 0.26097 0.0
H944 H 0.44578 0.67525 0.41197 0.0
H945 H 0.28539 0.50725 0.30399 0.0
H946 H 0.53455 0.67773 0.38294 0.0
H947 H 0.34464 0.55852 0.44849 0.0
H948 H 0.33307 0.50362 0.32602 0.0
H949 H 0.30247 0.59185 0.47437 0.0
H950 H 0.52164 0.71139 0.2918 0.0
H951 H 0.24119 0.54602 0.32654 0.0
H952 H 0.21862 0.58677 0.36694 0.0
H953 H 0.4769 0.73292 0.26416 0.0
H954 H 0.22355 0.61211 0.41307 0.0
N955 N 0.31778 0.54505 0.36088 0.0
C956 C 0.31478 0.52317 0.33624 0.0
C957 C 0.26243 0.54545 0.33641 0.0
C958 C 0.26503 0.56425 0.36212 0.0
C959 C 0.28734 0.52387 0.3236 0.0
C960 C 0.29323 0.56244 0.37419 0.0
H961 H 0.2546 0.61399 0.45325 0.0
N962 N 0.32289 0.57008 0.41181 0.0
C963 C 0.30042 0.58873 0.45347 0.0
C964 C 0.296 0.57657 0.40021 0.0
C965 C 0.32467 0.57132 0.43841 0.0
C966 C 0.27347 0.60115 0.44149 0.0
C967 C 0.27066 0.59307 0.41471 0.0
O968 O 0.35726 0.4737 0.4091 0.0
O969 O 0.407 0.5883 0.37051 0.0
O970 O 0.39984 0.62173 0.32558 0.0
O971 O 0.37742 0.53736 0.34143 0.0
O972 O 0.4101 0.53185 0.40128 0.0
O973 O 0.36772 0.46033 0.36854 0.0
O974 O 0.38004 0.76563 0.34794 0.0
O975 O 0.35417 0.64453 0.37455 0.0
O976 O 0.38022 0.59261 0.4201 0.0
O977 O 0.39253 0.68551 0.40542 0.0
O978 O 0.35559 0.6864 0.33866 0.0
O979 O 0.40701 0.76221 0.38262 0.0
C980 C 0.4256 0.56324 0.38547 0.0
C981 C 0.34225 0.3842 0.38994 0.0
C982 C 0.3384 0.27778 0.38758 0.0
C983 C 0.35551 0.32918 0.38708 0.0
C984 C 0.3074 0.28301 0.39036 0.0
C985 C 0.31138 0.38854 0.39254 0.0
C986 C 0.29407 0.338 0.39264 0.0
C987 C 0.38994 0.56772 0.32251 0.0
C988 C 0.36155 0.43575 0.39064 0.0
C989 C 0.24306 0.59859 0.40232 0.0
C990 C 0.24023 0.58397 0.37609 0.0
C991 C 0.33818 0.66382 0.35577 0.0
C992 C 0.40566 0.85141 0.35965 0.0
C993 C 0.38926 0.90297 0.3633 0.0
C994 C 0.40203 0.9576 0.35798 0.0
C995 C 0.43132 0.95975 0.34855 0.0
C996 C 0.43476 0.85436 0.35014 0.0
C997 C 0.44746 0.9084 0.34455 0.0
C998 C 0.38758 0.64723 0.42416 0.0
C999 C 0.3922 0.79534 0.36664 0.0
H1000 H 0.37933 0.32678 0.38439 0.0
H1001 H 0.29345 0.24473 0.39122 0.0
H1002 H 0.30078 0.43072 0.39462 0.0
H1003 H 0.27023 0.3414 0.3948 0.0
H1004 H 0.36684 0.90061 0.37088 0.0
H1005 H 0.44165 1.00116 0.3441 0.0
H1006 H 0.4477 0.81507 0.34727 0.0
H1007 H 0.46995 0.91054 0.33723 0.0
Eu1008 Eu 0.40532 0.33321 0.85928 0.0
C1009 C 0.31234 0.48285 0.91752 0.0
C1010 C 0.26594 0.46397 0.89534 0.0
C1011 C 0.2658 0.48801 0.94134 0.0
C1012 C 0.2972 0.46744 0.8952 0.0
C1013 C 0.29679 0.49441 0.94074 0.0
C1014 C 0.25039 0.4729 0.91867 0.0
C1015 C 0.34332 0.52268 0.96039 0.0
N1016 N 0.34222 0.48936 0.91619 0.0
C1017 C 0.35772 0.5111 0.93686 0.0
C1018 C 0.31277 0.51361 0.96243 0.0
Eu1019 Eu 0.36516 0.46597 0.8761 0.0
N1020 N 0.31285 0.45998 0.87292 0.0
C1021 C 0.29851 0.45407 0.84973 0.0
C1022 C 0.25119 0.45389 0.87184 0.0
C1023 C 0.26754 0.44998 0.84887 0.0
H1024 H 0.38139 0.51773 0.93543 0.0
H1025 H 0.25632 0.44376 0.83048 0.0
H1026 H 0.22641 0.46985 0.91921 0.0
H1027 H 0.35579 0.53837 0.97693 0.0
H1028 H 0.31093 0.4512 0.83185 0.0
H1029 H 0.51275 0.35804 0.90772 0.0
H1030 H 0.2272 0.451 0.8711 0.0
H1031 H 0.39109 0.28598 0.79875 0.0
H1032 H 0.45847 0.35138 0.905 0.0
H1033 H 0.41812 0.2657 0.75807 0.0
H1034 H 0.25348 0.49619 0.95905 0.0
H1035 H 0.54333 0.34663 0.86816 0.0
H1036 H 0.54586 0.32551 0.82034 0.0
H1037 H 0.30165 0.52277 0.98064 0.0
H1038 H 0.52011 0.30019 0.77973 0.0
N1039 N 0.45772 0.33733 0.8641 0.0
C1040 C 0.4713 0.34591 0.88753 0.0
C1041 C 0.51939 0.34349 0.86682 0.0
C1042 C 0.50548 0.33196 0.84308 0.0
C1043 C 0.50221 0.34982 0.88919 0.0
C1044 C 0.47421 0.32868 0.84238 0.0
H1045 H 0.47264 0.27734 0.75637 0.0
N1046 N 0.42983 0.31009 0.81982 0.0
C1047 C 0.43012 0.27965 0.77519 0.0
C1048 C 0.45982 0.31461 0.81953 0.0
C1049 C 0.41489 0.29104 0.79831 0.0
C1050 C 0.46088 0.28637 0.77429 0.0
C1051 C 0.47618 0.30336 0.79671 0.0
O1052 O 0.38873 0.24482 0.85292 0.0
O1053 O 0.35975 0.36907 0.86938 0.0
O1054 O 0.36358 0.40708 0.91111 0.0
O1055 O 0.40548 0.3506 0.90338 0.0
O1056 O 0.36266 0.31347 0.83789 0.0
O1057 O 0.41824 0.2619 0.88514 0.0
O1058 O 0.38003 0.5557 0.88198 0.0
O1059 O 0.4095 0.42879 0.86574 0.0
O1060 O 0.40847 0.39494 0.8248 0.0
O1061 O 0.36611 0.45065 0.83202 0.0
O1062 O 0.41003 0.49008 0.89447 0.0
O1063 O 0.35018 0.53575 0.85027 0.0
C1064 C 0.34446 0.34254 0.85217 0.0
C1065 C 0.41895 0.16685 0.86674 0.0
C1066 C 0.41754 0.06007 0.86501 0.0
C1067 C 0.40364 0.11402 0.87025 0.0
C1068 C 0.44711 0.06026 0.85614 0.0
C1069 C 0.44831 0.16588 0.85774 0.0
C1070 C 0.46227 0.11276 0.85251 0.0
C1071 C 0.38507 0.37246 0.91926 0.0
C1072 C 0.40367 0.22239 0.87211 0.0
C1073 C 0.50722 0.30835 0.79709 0.0
C1074 C 0.52185 0.3227 0.82023 0.0
C1075 C 0.42683 0.45723 0.88042 0.0
C1076 C 0.34792 0.63111 0.86829 0.0
C1077 C 0.3622 0.68487 0.86434 0.0
C1078 C 0.34736 0.73799 0.86927 0.0
C1079 C 0.31789 0.73607 0.87835 0.0
C1080 C 0.31862 0.63033 0.87744 0.0
C1081 C 0.30373 0.68263 0.88241 0.0
C1082 C 0.38814 0.4328 0.81685 0.0
C1083 C 0.36417 0.57658 0.86298 0.0
H1084 H 0.38076 0.11515 0.87675 0.0
H1085 H 0.45874 0.01979 0.85234 0.0
H1086 H 0.46041 0.20605 0.85479 0.0
H1087 H 0.48499 0.11224 0.8457 0.0
H1088 H 0.38502 0.68513 0.85768 0.0
H1089 H 0.30558 0.77585 0.88196 0.0
H1090 H 0.30727 0.58945 0.88068 0.0
H1091 H 0.28105 0.68179 0.88933 0.0
Eu1092 Eu 0.62496 0.69572 0.86759 0.0
C1093 C 0.72815 0.57116 0.89333 0.0
C1094 C 0.75248 0.52721 0.8562 0.0
C1095 C 0.7821 0.57293 0.88987 0.0
C1096 C 0.72631 0.5433 0.86956 0.0
C1097 C 0.7562 0.58405 0.90421 0.0
C1098 C 0.78024 0.54452 0.86588 0.0
C1099 C 0.73143 0.60987 0.94412 0.0
N1100 N 0.70276 0.58034 0.90696 0.0
C1101 C 0.70423 0.59647 0.93251 0.0
C1102 C 0.7575 0.60501 0.9297 0.0
Eu1103 Eu 0.65729 0.55859 0.88546 0.0
N1104 N 0.69925 0.52554 0.86114 0.0
C1105 C 0.69744 0.48383 0.84212 0.0
C1106 C 0.75014 0.49068 0.83454 0.0
C1107 C 0.72256 0.46752 0.82794 0.0
H1108 H 0.68469 0.59803 0.94441 0.0
H1109 H 0.72069 0.43655 0.81216 0.0
H1110 H 0.8005 0.53337 0.85565 0.0
H1111 H 0.73224 0.62354 0.96423 0.0
H1112 H 0.6763 0.4644 0.83736 0.0
H1113 H 0.52242 0.68897 0.92388 0.0
H1114 H 0.76969 0.47727 0.8238 0.0
H1115 H 0.63378 0.74085 0.80601 0.0
H1116 H 0.5766 0.69225 0.91701 0.0
H1117 H 0.60329 0.75535 0.76648 0.0
H1118 H 0.80375 0.58351 0.89773 0.0
H1119 H 0.48844 0.68883 0.88611 0.0
H1120 H 0.48175 0.69698 0.83773 0.0
H1121 H 0.77857 0.61518 0.93876 0.0
H1122 H 0.50383 0.71511 0.79474 0.0
N1123 N 0.57336 0.69358 0.87584 0.0
C1124 C 0.56202 0.69266 0.90041 0.0
C1125 C 0.5122 0.69058 0.883 0.0
C1126 C 0.52398 0.69483 0.85791 0.0
C1127 C 0.5313 0.69088 0.90437 0.0
C1128 C 0.55507 0.69708 0.85496 0.0
H1129 H 0.54911 0.73813 0.76805 0.0
N1130 N 0.5973 0.71348 0.82917 0.0
C1131 C 0.59295 0.74147 0.7844 0.0
C1132 C 0.56744 0.70733 0.83083 0.0
C1133 C 0.6101 0.73346 0.80677 0.0
C1134 C 0.56238 0.73151 0.78535 0.0
C1135 C 0.54915 0.71551 0.8089 0.0
O1136 O 0.6431 0.78099 0.85659 0.0
O1137 O 0.66833 0.65488 0.88078 0.0
O1138 O 0.63822 0.5984 0.92252 0.0
O1139 O 0.6327 0.69605 0.9114 0.0
O1140 O 0.66849 0.7003 0.84602 0.0
O1141 O 0.61328 0.77471 0.88908 0.0
O1142 O 0.66368 0.4991 0.91841 0.0
O1143 O 0.61366 0.60757 0.88422 0.0
O1144 O 0.62174 0.6352 0.83217 0.0
O1145 O 0.65869 0.56801 0.84156 0.0
O1146 O 0.61458 0.52611 0.86704 0.0
O1147 O 0.64442 0.46702 0.88293 0.0
C1148 C 0.68535 0.67656 0.86332 0.0
C1149 C 0.61491 0.86507 0.86699 0.0
C1150 C 0.61637 0.97181 0.86608 0.0
C1151 C 0.62991 0.91781 0.87179 0.0
C1152 C 0.58777 0.97204 0.85514 0.0
C1153 C 0.5865 0.86636 0.85592 0.0
C1154 C 0.57307 0.91965 0.84998 0.0
C1155 C 0.63423 0.6538 0.92879 0.0
C1156 C 0.62884 0.80943 0.87452 0.0
C1157 C 0.51824 0.70972 0.81142 0.0
C1158 C 0.50568 0.69938 0.8359 0.0
C1159 C 0.59753 0.56917 0.87306 0.0
C1160 C 0.67241 0.39938 0.90699 0.0
C1161 C 0.65859 0.34542 0.90215 0.0
C1162 C 0.67484 0.29268 0.90293 0.0
C1163 C 0.70541 0.29537 0.90856 0.0
C1164 C 0.70295 0.40079 0.91222 0.0
C1165 C 0.71927 0.34897 0.91303 0.0
C1166 C 0.63933 0.5915 0.82544 0.0
C1167 C 0.65451 0.45338 0.90573 0.0
H1168 H 0.6518 0.91682 0.88054 0.0
H1169 H 0.57689 1.01277 0.85031 0.0
H1170 H 0.57461 0.82629 0.8521 0.0
H1171 H 0.55111 0.9204 0.84147 0.0
H1172 H 0.63517 0.34493 0.89738 0.0
H1173 H 0.71865 0.25605 0.90988 0.0
H1174 H 0.71419 0.44179 0.91564 0.0
H1175 H 0.7428 0.3503 0.91724 0.0
Eu1176 Eu 0.40221 0.69528 0.63978 0.0
C1177 C 0.31566 0.55106 0.57224 0.0
C1178 C 0.26719 0.56984 0.59087 0.0
C1179 C 0.2717 0.54732 0.54488 0.0
C1180 C 0.29829 0.56547 0.59347 0.0
C1181 C 0.30253 0.54098 0.54778 0.0
C1182 C 0.25406 0.56171 0.56638 0.0
C1183 C 0.35109 0.51577 0.53122 0.0
N1184 N 0.34536 0.54508 0.5757 0.0
C1185 C 0.36305 0.52581 0.55588 0.0
C1186 C 0.32073 0.52376 0.5271 0.0
Eu1187 Eu 0.36408 0.56563 0.61772 0.0
N1188 N 0.31163 0.57271 0.61688 0.0
C1189 C 0.29501 0.58066 0.63879 0.0
C1190 C 0.25016 0.58095 0.61306 0.0
C1191 C 0.26412 0.58569 0.63717 0.0
H1192 H 0.38656 0.51976 0.55891 0.0
H1193 H 0.25112 0.59333 0.65453 0.0
H1194 H 0.23024 0.56535 0.56397 0.0
H1195 H 0.36529 0.50182 0.51543 0.0
H1196 H 0.30548 0.58443 0.65755 0.0
H1197 H 0.51476 0.67869 0.60032 0.0
H1198 H 0.22622 0.58473 0.61188 0.0
H1199 H 0.38089 0.73677 0.69957 0.0
H1200 H 0.46039 0.68419 0.59846 0.0
H1201 H 0.40306 0.75333 0.74277 0.0
H1202 H 0.26123 0.54019 0.52619 0.0
H1203 H 0.54064 0.6857 0.64256 0.0
H1204 H 0.53761 0.70119 0.69077 0.0
H1205 H 0.31148 0.5154 0.50804 0.0
H1206 H 0.50728 0.7216 0.72949 0.0
N1207 N 0.45491 0.69266 0.63941 0.0
C1208 C 0.47113 0.6874 0.61709 0.0
C1209 C 0.51663 0.68817 0.64189 0.0
C1210 C 0.50003 0.69654 0.66455 0.0
C1211 C 0.50211 0.68431 0.61802 0.0
C1212 C 0.4688 0.69908 0.66263 0.0
H1213 H 0.4572 0.74179 0.749 0.0
N1214 N 0.42196 0.71492 0.68158 0.0
C1215 C 0.41702 0.74112 0.72654 0.0
C1216 C 0.45181 0.71062 0.68438 0.0
C1217 C 0.40455 0.73186 0.702 0.0
C1218 C 0.44758 0.73447 0.72998 0.0
C1219 C 0.46544 0.7198 0.70871 0.0
O1220 O 0.38483 0.78327 0.64592 0.0
O1221 O 0.35796 0.66212 0.62497 0.0
O1222 O 0.36549 0.6277 0.58384 0.0
O1223 O 0.40758 0.67923 0.59572 0.0
O1224 O 0.35685 0.71432 0.65738 0.0
O1225 O 0.41786 0.76843 0.61619 0.0
O1226 O 0.37995 0.47626 0.61245 0.0
O1227 O 0.4078 0.59996 0.63228 0.0
O1228 O 0.40173 0.63057 0.6734 0.0
O1229 O 0.35946 0.57934 0.66159 0.0
O1230 O 0.41032 0.54288 0.60181 0.0
O1231 O 0.34579 0.49426 0.6409 0.0
C1232 C 0.34032 0.68801 0.64068 0.0
C1233 C 0.41576 0.86257 0.63559 0.0
C1234 C 0.41276 0.96909 0.63903 0.0
C1235 C 0.40023 0.91517 0.63169 0.0
C1236 C 0.44123 0.96908 0.65033 0.0
C1237 C 0.44403 0.86375 0.64693 0.0
C1238 C 0.45667 0.91684 0.65419 0.0
C1239 C 0.3885 0.66042 0.57794 0.0
C1240 C 0.40166 0.807 0.62835 0.0
C1241 C 0.49643 0.71519 0.71092 0.0
C1242 C 0.51369 0.70356 0.68888 0.0
C1243 C 0.42613 0.57299 0.61777 0.0
C1244 C 0.34672 0.39967 0.62177 0.0
C1245 C 0.36167 0.34622 0.62502 0.0
C1246 C 0.34835 0.29313 0.6175 0.0
C1247 C 0.3196 0.29479 0.60681 0.0
C1248 C 0.31816 0.40015 0.61099 0.0
C1249 C 0.30469 0.34787 0.60365 0.0
C1250 C 0.37967 0.59465 0.67896 0.0
C1251 C 0.36167 0.45422 0.62937 0.0
H1252 H 0.37845 0.91396 0.62276 0.0
H1253 H 0.45142 1.00938 0.65666 0.0
H1254 H 0.45623 0.82374 0.65026 0.0
H1255 H 0.47846 0.91751 0.66304 0.0
H1256 H 0.38364 0.34615 0.6336 0.0
H1257 H 0.30877 0.25519 0.60043 0.0
H1258 H 0.30632 0.44079 0.60821 0.0
H1259 H 0.28265 0.34851 0.59527 0.0
Eu1260 Eu 0.62158 0.35152 0.64172 0.0
C1261 C 0.71794 0.48881 0.58261 0.0
C1262 C 0.76194 0.46444 0.60735 0.0
C1263 C 0.76611 0.48637 0.56132 0.0
C1264 C 0.73094 0.47269 0.60582 0.0
C1265 C 0.73545 0.49723 0.56023 0.0
C1266 C 0.77935 0.47002 0.58486 0.0
C1267 C 0.69161 0.53243 0.53813 0.0
N1268 N 0.68839 0.49988 0.58234 0.0
C1269 C 0.67531 0.52414 0.56095 0.0
C1270 C 0.72175 0.51814 0.53766 0.0
Eu1271 Eu 0.66161 0.48112 0.62102 0.0
N1272 N 0.71351 0.4684 0.62722 0.0
C1273 C 0.72603 0.46031 0.65114 0.0
C1274 C 0.77463 0.45259 0.63159 0.0
C1275 C 0.75662 0.45136 0.65363 0.0
H1276 H 0.65206 0.53564 0.56137 0.0
H1277 H 0.76627 0.44343 0.67256 0.0
H1278 H 0.80315 0.46333 0.58562 0.0
H1279 H 0.68095 0.55001 0.521 0.0
H1280 H 0.71248 0.45907 0.66839 0.0
H1281 H 0.51216 0.36047 0.59571 0.0
H1282 H 0.79833 0.44587 0.63358 0.0
H1283 H 0.63812 0.30717 0.70207 0.0
H1284 H 0.56669 0.35487 0.59704 0.0
H1285 H 0.61281 0.29119 0.74402 0.0
H1286 H 0.7799 0.49207 0.54427 0.0
H1287 H 0.48329 0.36051 0.63657 0.0
H1288 H 0.48284 0.35031 0.68519 0.0
H1289 H 0.73443 0.52501 0.52007 0.0
H1290 H 0.51026 0.33073 0.72563 0.0
N1291 N 0.56905 0.35381 0.63834 0.0
C1292 C 0.55451 0.35479 0.61507 0.0
C1293 C 0.5073 0.35811 0.6373 0.0
C1294 C 0.52222 0.35268 0.66101 0.0
C1295 C 0.5235 0.35791 0.6142 0.0
C1296 C 0.55351 0.34992 0.66085 0.0
H1297 H 0.55871 0.30711 0.74761 0.0
N1298 N 0.59874 0.3327 0.68229 0.0
C1299 C 0.60019 0.30483 0.72719 0.0
C1300 C 0.56884 0.33869 0.68354 0.0
C1301 C 0.61444 0.31378 0.70339 0.0
C1302 C 0.56964 0.31407 0.72916 0.0
C1303 C 0.55346 0.33023 0.70709 0.0
O1304 O 0.63846 0.26406 0.65015 0.0
O1305 O 0.66645 0.38425 0.62844 0.0
O1306 O 0.65873 0.42438 0.58546 0.0
O1307 O 0.62042 0.36083 0.59707 0.0
O1308 O 0.66578 0.33452 0.66162 0.0
O1309 O 0.60806 0.27678 0.61814 0.0
O1310 O 0.64755 0.57059 0.61261 0.0
O1311 O 0.61652 0.44629 0.63205 0.0
O1312 O 0.61902 0.41662 0.67547 0.0
O1313 O 0.6596 0.47446 0.66513 0.0
O1314 O 0.61775 0.50379 0.60133 0.0
O1315 O 0.67676 0.55375 0.64504 0.0
C1316 C 0.68316 0.35836 0.64485 0.0
C1317 C 0.60922 0.18335 0.63801 0.0
C1318 C 0.61172 0.07658 0.63905 0.0
C1319 C 0.62466 0.13103 0.63325 0.0
C1320 C 0.58298 0.07584 0.64983 0.0
C1321 C 0.58075 0.18149 0.64892 0.0
C1322 C 0.56774 0.12788 0.65477 0.0
C1323 C 0.63839 0.38509 0.57968 0.0
C1324 C 0.62343 0.23922 0.63163 0.0
C1325 C 0.52244 0.33631 0.70766 0.0
C1326 C 0.50684 0.34755 0.68464 0.0
C1327 C 0.60021 0.47334 0.61571 0.0
C1328 C 0.67923 0.64736 0.62557 0.0
C1329 C 0.66593 0.70141 0.63123 0.0
C1330 C 0.68093 0.75419 0.62622 0.0
C1331 C 0.70954 0.7516 0.61527 0.0
C1332 C 0.70771 0.64586 0.61464 0.0
C1333 C 0.72274 0.69784 0.60953 0.0
C1334 C 0.63836 0.45818 0.68126 0.0
C1335 C 0.66297 0.59332 0.63142 0.0
H1336 H 0.64689 0.13296 0.62527 0.0
H1337 H 0.572 0.03501 0.65411 0.0
H1338 H 0.56862 0.22134 0.65283 0.0
H1339 H 0.54567 0.1266 0.66304 0.0
H1340 H 0.64373 0.70218 0.63934 0.0
H1341 H 0.72195 0.79106 0.61149 0.0
H1342 H 0.71831 0.60466 0.61017 0.0
H1343 H 0.7448 0.69648 0.60122 0.0
H1344 H 0.2158 0.2376 0.17542 0.0
H1345 H 0.2132 0.19163 0.09442 0.0
H1346 H 0.26024 0.24412 0.08734 0.0
H1347 H 0.30318 0.30475 0.10469 0.0
H1348 H 0.30533 0.34241 0.1867 0.0
H1349 H 0.25788 0.29355 0.19257 0.0
C1350 C 0.22554 0.23857 0.15616 0.0
C1351 C 0.21069 0.20965 0.1356 0.0
C1352 C 0.25263 0.26902 0.15227 0.0
C1353 C 0.22398 0.21225 0.11082 0.0
C1354 C 0.25093 0.24298 0.10673 0.0
C1355 C 0.29286 0.30353 0.1237 0.0
C1356 C 0.30766 0.33019 0.14511 0.0
C1357 C 0.26552 0.27225 0.12729 0.0
C1358 C 0.29436 0.32457 0.16973 0.0
C1359 C 0.26718 0.2959 0.17319 0.0
H1360 H 0.80454 0.80058 0.10612 0.0
H1361 H 0.80521 0.851 0.18683 0.0
H1362 H 0.75701 0.80581 0.19322 0.0
H1363 H 0.71547 0.74722 0.17749 0.0
H1364 H 0.7109 0.69805 0.09693 0.0
H1365 H 0.75931 0.74509 0.08917 0.0
C1366 C 0.79372 0.80319 0.12487 0.0
C1367 C 0.80871 0.83122 0.14588 0.0
C1368 C 0.76543 0.77528 0.12874 0.0
C1369 C 0.79437 0.83142 0.17018 0.0
C1370 C 0.76674 0.8048 0.17397 0.0
C1371 C 0.72497 0.74633 0.15813 0.0
C1372 C 0.7095 0.71673 0.1381 0.0
C1373 C 0.75228 0.77558 0.15365 0.0
C1374 C 0.72239 0.71798 0.11311 0.0
C1375 C 0.75007 0.74597 0.10859 0.0
H1376 H 0.30596 0.72594 0.39457 0.0
H1377 H 0.29965 0.65857 0.31657 0.0
H1378 H 0.25228 0.70785 0.31062 0.0
H1379 H 0.21319 0.77366 0.32598 0.0
H1380 H 0.21678 0.84305 0.40359 0.0
H1381 H 0.26421 0.79167 0.41092 0.0
C1382 C 0.29384 0.7209 0.37654 0.0
C1383 C 0.30644 0.68643 0.35624 0.0
C1384 C 0.26623 0.75146 0.37283 0.0
C1385 C 0.29056 0.68306 0.33274 0.0
C1386 C 0.26341 0.71195 0.32919 0.0
C1387 C 0.22428 0.77801 0.34457 0.0
C1388 C 0.21126 0.81387 0.36392 0.0
C1389 C 0.2512 0.74703 0.34883 0.0
C1390 C 0.22623 0.81749 0.38794 0.0
C1391 C 0.25338 0.78728 0.39224 0.0
H1392 H 0.80865 0.23979 0.39623 0.0
H1393 H 0.8073 0.18574 0.31605 0.0
H1394 H 0.75873 0.23056 0.31025 0.0
H1395 H 0.71692 0.2888 0.32662 0.0
H1396 H 0.71704 0.34893 0.4058 0.0
H1397 H 0.76516 0.30014 0.41305 0.0
C1398 C 0.79732 0.23637 0.37773 0.0
C1399 C 0.81158 0.20648 0.35685 0.0
C1400 C 0.76917 0.26508 0.37408 0.0
C1401 C 0.79684 0.20612 0.33272 0.0
C1402 C 0.769 0.23253 0.32926 0.0
C1403 C 0.72741 0.29158 0.34554 0.0
C1404 C 0.71306 0.32375 0.36546 0.0
C1405 C 0.75505 0.26286 0.34959 0.0
C1406 C 0.72737 0.32583 0.38983 0.0
C1407 C 0.75497 0.29721 0.39404 0.0
H1408 H 0.72088 0.72897 0.82744 0.0
H1409 H 0.71536 0.69958 0.90966 0.0
H1410 H 0.76323 0.74868 0.91592 0.0
H1411 H 0.80812 0.79999 0.89713 0.0
H1412 H 0.80632 0.84688 0.81611 0.0
H1413 H 0.76014 0.79307 0.81035 0.0
C1414 C 0.73021 0.73255 0.84679 0.0
C1415 C 0.71534 0.70537 0.86784 0.0
C1416 C 0.75644 0.76596 0.85047 0.0
C1417 C 0.72733 0.71437 0.89279 0.0
C1418 C 0.75446 0.74436 0.89642 0.0
C1419 C 0.79698 0.80069 0.87848 0.0
C1420 C 0.81067 0.82965 0.85721 0.0
C1421 C 0.76944 0.7704 0.87534 0.0
C1422 C 0.79628 0.82667 0.83297 0.0
C1423 C 0.76986 0.7952 0.82958 0.0
H1424 H 0.30802 0.2979 0.89236 0.0
H1425 H 0.30903 0.34045 0.8108 0.0
H1426 H 0.26063 0.29536 0.80516 0.0
H1427 H 0.21867 0.23971 0.8221 0.0
H1428 H 0.2156 0.19294 0.90299 0.0
H1429 H 0.2637 0.24172 0.91 0.0
C1430 C 0.29722 0.2987 0.87356 0.0
C1431 C 0.31212 0.32486 0.85213 0.0
C1432 C 0.26914 0.27019 0.87012 0.0
C1433 C 0.29808 0.32247 0.82774 0.0
C1434 C 0.27037 0.29598 0.82441 0.0
C1435 C 0.22845 0.23986 0.84135 0.0
C1436 C 0.21337 0.21138 0.86183 0.0
C1437 C 0.25587 0.26885 0.84525 0.0
C1438 C 0.22666 0.21308 0.88663 0.0
C1439 C 0.25418 0.24171 0.89068 0.0
H1440 H 0.71822 0.30047 0.67933 0.0
H1441 H 0.71554 0.34726 0.59843 0.0
H1442 H 0.76188 0.29235 0.59099 0.0
H1443 H 0.8045 0.22986 0.60805 0.0
H1444 H 0.8056 0.18803 0.68966 0.0
H1445 H 0.75891 0.23968 0.69586 0.0
C1446 C 0.72772 0.29907 0.65999 0.0
C1447 C 0.71315 0.32938 0.63963 0.0
C1448 C 0.7542 0.26647 0.6558 0.0
C1449 C 0.72615 0.32589 0.61473 0.0
C1450 C 0.75269 0.29367 0.61042 0.0
C1451 C 0.79406 0.23062 0.62701 0.0
C1452 C 0.80847 0.20223 0.64823 0.0
C1453 C 0.76703 0.26317 0.63079 0.0
C1454 C 0.79496 0.20716 0.67281 0.0
C1455 C 0.76823 0.23754 0.67647 0.0
H1456 H 0.21398 0.79874 0.60517 0.0
H1457 H 0.21075 0.83257 0.68754 0.0
H1458 H 0.25926 0.78765 0.6931 0.0
H1459 H 0.30256 0.73593 0.67575 0.0
H1460 H 0.30781 0.69709 0.59411 0.0
H1461 H 0.25924 0.74467 0.5873 0.0
C1462 C 0.22419 0.7974 0.62421 0.0
C1463 C 0.2085 0.82119 0.64589 0.0
C1464 C 0.25252 0.76903 0.62758 0.0
C1465 C 0.22208 0.81624 0.67044 0.0
C1466 C 0.24995 0.78994 0.67371 0.0
C1467 C 0.29312 0.73739 0.65638 0.0
C1468 C 0.30914 0.71163 0.63562 0.0
C1469 C 0.26529 0.76552 0.65261 0.0
C1470 C 0.29618 0.71508 0.61069 0.0
C1471 C 0.26832 0.74306 0.60676 0.0
H1472 H 0.1321 0.0442 0.30172 0.0
H1473 H 0.13178 0.86701 0.27395 0.0
H1474 H 0.131 0.90174 0.22901 0.0
H1475 H 0.13256 0.98292 0.19745 0.0
H1476 H 0.13076 0.16011 0.22518 0.0
H1477 H 0.13008 0.12539 0.27014 0.0
C1478 C 0.13171 1.01322 0.2858 0.0
C1479 C 0.13192 0.95292 0.29121 0.0
C1480 C 0.13095 0.0337 0.25997 0.0
C1481 C 0.13113 0.91341 0.27039 0.0
C1482 C 0.13096 0.93337 0.24465 0.0
C1483 C 0.13187 1.0139 0.21337 0.0
C1484 C 0.13166 0.07419 0.20795 0.0
C1485 C 0.13114 0.99342 0.23919 0.0
C1486 C 0.13048 0.1137 0.22875 0.0
C1487 C 0.13034 0.09375 0.2545 0.0
H1488 H 0.84477 0.04905 0.29083 0.0
H1489 H 0.93853 0.08659 0.29207 0.0
H1490 H 0.94472 0.03786 0.2502 0.0
H1491 H 0.92345 0.98442 0.21274 0.0
H1492 H 0.829 0.95626 0.20947 0.0
H1493 H 0.82314 1.00068 0.25242 0.0
C1494 C 0.86654 0.04669 0.2819 0.0
C1495 C 0.89115 0.0712 0.29475 0.0
C1496 C 0.86985 0.01979 0.25741 0.0
C1497 C 0.91915 0.06827 0.28269 0.0
C1498 C 0.92276 0.04013 0.25873 0.0
C1499 C 0.90167 0.98766 0.2216 0.0
C1500 C 0.87673 0.96647 0.20812 0.0
C1501 C 0.8983 1.01551 0.24591 0.0
C1502 C 0.84853 0.97201 0.21954 0.0
C1503 C 0.84517 0.99753 0.24407 0.0
H1504 H 0.88227 0.98133 0.70016 0.0
H1505 H 0.89869 0.15603 0.72736 0.0
H1506 H 0.90185 0.12046 0.77209 0.0
H1507 H 0.89798 0.03991 0.80375 0.0
H1508 H 0.88325 0.86469 0.7767 0.0
H1509 H 0.88197 0.89967 0.73163 0.0
C1510 C 0.8866 1.01161 0.7159 0.0
C1511 C 0.89008 0.07153 0.71039 0.0
C1512 C 0.88878 0.99053 0.74158 0.0
C1513 C 0.89617 0.10991 0.73095 0.0
C1514 C 0.89781 0.08951 0.75658 0.0
C1515 C 0.89444 1.00948 0.78795 0.0
C1516 C 0.89031 0.94989 0.79352 0.0
C1517 C 0.89387 0.03002 0.76215 0.0
C1518 C 0.88659 0.91063 0.77288 0.0
C1519 C 0.88564 0.93077 0.74715 0.0
H1520 H 0.09755 0.05154 0.78797 0.0
H1521 H 0.19158 0.08552 0.7878 0.0
H1522 H 0.1962 0.04044 0.74492 0.0
H1523 H 0.17394 0.98877 0.70796 0.0
H1524 H 0.08068 0.94667 0.70939 0.0
H1525 H 0.0754 0.99643 0.75123 0.0
C1526 C 0.11894 0.04958 0.77833 0.0
C1527 C 0.14416 0.07245 0.79086 0.0
C1528 C 0.12164 0.02136 0.75403 0.0
C1529 C 0.17186 0.06851 0.77846 0.0
C1530 C 0.17452 0.04255 0.75399 0.0
C1531 C 0.15243 0.9904 0.7174 0.0
C1532 C 0.12775 0.96403 0.70542 0.0
C1533 C 0.14965 0.01829 0.74168 0.0
C1534 C 0.10012 0.96626 0.71815 0.0
C1535 C 0.09704 0.99504 0.74205 0.0
H1536 H 0.67843 0.48411 0.28966 0.0
H1537 H 0.58448 0.44922 0.29313 0.0
H1538 H 0.57758 0.49668 0.25095 0.0
H1539 H 0.59831 0.54959 0.21298 0.0
H1540 H 0.6928 0.57665 0.20831 0.0
H1541 H 0.69937 0.53157 0.25096 0.0
C1542 C 0.65644 0.48663 0.28116 0.0
C1543 C 0.63201 0.46326 0.29469 0.0
C1544 C 0.6527 0.51313 0.25667 0.0
C1545 C 0.60373 0.46654 0.28318 0.0
C1546 C 0.59973 0.49402 0.25908 0.0
C1547 C 0.62029 0.54574 0.22141 0.0
C1548 C 0.64505 0.56676 0.20756 0.0
C1549 C 0.62403 0.51785 0.24568 0.0
C1550 C 0.67343 0.56073 0.21852 0.0
C1551 C 0.6772 0.53494 0.24294 0.0
H1552 H 0.39264 0.614 0.27333 0.0
H1553 H 0.39629 0.45104 0.31497 0.0
H1554 H 0.39851 0.39737 0.27413 0.0
H1555 H 0.39535 0.39566 0.22616 0.0
H1556 H 0.38854 0.55799 0.18461 0.0
H1557 H 0.3919 0.61247 0.22533 0.0
C1558 C 0.39437 0.56686 0.27345 0.0
C1559 C 0.39415 0.53683 0.29728 0.0
C1560 C 0.39493 0.53582 0.24971 0.0
C1561 C 0.3961 0.47549 0.29697 0.0
C1562 C 0.39741 0.44456 0.27356 0.0
C1563 C 0.39525 0.44289 0.22606 0.0
C1564 C 0.39191 0.47275 0.20242 0.0
C1565 C 0.39628 0.47407 0.24975 0.0
C1566 C 0.3911 0.53406 0.20261 0.0
C1567 C 0.39296 0.56528 0.22591 0.0
H1568 H 0.34554 0.48838 0.78825 0.0
H1569 H 0.43769 0.43695 0.7862 0.0
H1570 H 0.4439 0.48634 0.74451 0.0
H1571 H 0.42312 0.5447 0.70826 0.0
H1572 H 0.33 0.58757 0.70846 0.0
H1573 H 0.32427 0.54201 0.75118 0.0
C1574 C 0.36697 0.4878 0.77866 0.0
C1575 C 0.39112 0.45914 0.79052 0.0
C1576 C 0.37029 0.51543 0.75437 0.0
C1577 C 0.41865 0.45846 0.7776 0.0
C1578 C 0.42229 0.48701 0.75375 0.0
C1579 C 0.40169 0.54444 0.71785 0.0
C1580 C 0.37708 0.57014 0.70547 0.0
C1581 C 0.39831 0.51593 0.74198 0.0
C1582 C 0.34926 0.56839 0.71775 0.0
C1583 C 0.34598 0.54218 0.74212 0.0
H1584 H 0.64171 0.6359 0.7759 0.0
H1585 H 0.62671 0.47757 0.81883 0.0
H1586 H 0.62295 0.42222 0.77842 0.0
H1587 H 0.62694 0.41742 0.73058 0.0
H1588 H 0.64444 0.57473 0.68769 0.0
H1589 H 0.64412 0.63136 0.72781 0.0
C1590 C 0.63729 0.58946 0.7763 0.0
C1591 C 0.6347 0.56084 0.80033 0.0
C1592 C 0.63581 0.5574 0.75283 0.0
C1593 C 0.62919 0.5005 0.80057 0.0
C1594 C 0.62697 0.46875 0.77744 0.0
C1595 C 0.63028 0.46405 0.73 0.0
C1596 C 0.63586 0.49146 0.70607 0.0
C1597 C 0.6307 0.49645 0.75339 0.0
C1598 C 0.64055 0.55216 0.70582 0.0
C1599 C 0.64026 0.58479 0.72881 0.0
H1600 H 0.12093 0.07679 0.95754 0.0
H1601 H 0.14338 0.25738 0.94702 0.0
H1602 H 0.14329 0.27189 0.99444 0.0
H1603 H 0.1411 0.22965 0.03934 0.0
H1604 H 0.11842 0.04834 0.04818 0.0
H1605 H 0.11476 0.03714 0.00124 0.0
C1606 C 0.1258 0.11928 0.96567 0.0
C1607 C 0.13261 0.16568 0.94897 0.0
C1608 C 0.12594 0.12687 0.99274 0.0
C1609 C 0.13804 0.22103 0.9596 0.0
C1610 C 0.13817 0.22915 0.98669 0.0
C1611 C 0.13489 0.18814 0.03087 0.0
C1612 C 0.13053 0.13949 0.04713 0.0
C1613 C 0.13275 0.18201 0.00354 0.0
C1614 C 0.12251 0.08592 0.03601 0.0
C1615 C 0.12026 0.07956 0.00916 0.0
H1616 H 0.92537 0.90737 0.96423 0.0
H1617 H 0.84084 0.82482 0.95143 0.0
H1618 H 0.83394 0.81345 0.99833 0.0
H1619 H 0.85073 0.83253 0.04325 0.0
H1620 H 0.93772 0.90427 0.05622 0.0
H1621 H 0.94527 0.91355 0.00921 0.0
C1622 C 0.90566 0.88632 0.97182 0.0
C1623 C 0.88332 0.86807 0.95457 0.0
C1624 C 0.90241 0.87778 0.99883 0.0
C1625 C 0.85807 0.84005 0.96444 0.0
C1626 C 0.85416 0.83341 0.99123 0.0
C1627 C 0.87159 0.84884 0.03568 0.0
C1628 C 0.89374 0.86725 0.05305 0.0
C1629 C 0.87598 0.85282 0.00864 0.0
C1630 C 0.92059 0.88887 0.04314 0.0
C1631 C 0.92477 0.89472 0.01628 0.0
H1632 H 0.14301 0.79549 0.4593 0.0
H1633 H 0.11933 0.97659 0.45078 0.0
H1634 H 0.11453 0.98676 0.49769 0.0
H1635 H 0.11959 0.94611 0.54129 0.0
H1636 H 0.14427 0.76641 0.55151 0.0
H1637 H 0.14525 0.75271 0.50404 0.0
C1638 C 0.1364 0.83674 0.46784 0.0
C1639 C 0.13186 0.88552 0.45172 0.0
C1640 C 0.13383 0.84238 0.49512 0.0
C1641 C 0.12339 0.93883 0.46287 0.0
C1642 C 0.12053 0.94463 0.48969 0.0
C1643 C 0.12533 0.90409 0.53307 0.0
C1644 C 0.1324 0.85767 0.54965 0.0
C1645 C 0.12624 0.8971 0.50601 0.0
C1646 C 0.13879 0.80276 0.53896 0.0
C1647 C 0.13951 0.79512 0.51186 0.0
H1648 H 0.91717 0.17857 0.54383 0.0
H1649 H 0.82448 0.133 0.54985 0.0
H1650 H 0.8196 0.13546 0.50292 0.0
H1651 H 0.84166 0.1453 0.45988 0.0
H1652 H 0.93406 0.19051 0.45234 0.0
H1653 H 0.93876 0.19497 0.49975 0.0
C1654 C 0.89584 0.17013 0.53487 0.0
C1655 C 0.87136 0.15484 0.55057 0.0
C1656 C 0.89304 0.17156 0.50744 0.0
C1657 C 0.84389 0.14397 0.53845 0.0
C1658 C 0.84097 0.14551 0.51149 0.0
C1659 C 0.86287 0.15634 0.46853 0.0
C1660 C 0.88754 0.16682 0.45242 0.0
C1661 C 0.86546 0.15825 0.49576 0.0
C1662 C 0.91465 0.18214 0.46414 0.0
C1663 C 0.91739 0.18441 0.49133 0.0
H1664 H 0.6633 0.7153 0.04525 0.0
H1665 H 0.57713 0.63937 0.05734 0.0
H1666 H 0.57087 0.62732 0.01028 0.0
H1667 H 0.59248 0.6298 0.96574 0.0
H1668 H 0.67681 0.71376 0.95386 0.0
H1669 H 0.68139 0.73147 0.0006 0.0
C1670 C 0.64272 0.69813 0.03744 0.0
C1671 C 0.62046 0.67923 0.05459 0.0
C1672 C 0.63928 0.69175 0.01041 0.0
C1673 C 0.59419 0.65565 0.04441 0.0
C1674 C 0.59083 0.64797 0.01754 0.0
C1675 C 0.61158 0.65269 0.97348 0.0
C1676 C 0.63451 0.66984 0.9566 0.0
C1677 C 0.61357 0.66449 0.00036 0.0
C1678 C 0.65901 0.70006 0.96662 0.0
C1679 C 0.66163 0.71011 0.99331 0.0
H1680 H 0.34198 0.38659 0.95551 0.0
H1681 H 0.43371 0.33594 0.94738 0.0
H1682 H 0.43882 0.3318 0.99473 0.0
H1683 H 0.41804 0.35105 0.03885 0.0
H1684 H 0.32645 0.40392 0.04558 0.0
H1685 H 0.32065 0.39953 0.99864 0.0
C1686 C 0.36314 0.37454 0.96402 0.0
C1687 C 0.38753 0.36256 0.94779 0.0
C1688 C 0.36603 0.37323 0.99119 0.0
C1689 C 0.41454 0.34565 0.9593 0.0
C1690 C 0.41752 0.34355 0.98645 0.0
C1691 C 0.39676 0.36063 0.03 0.0
C1692 C 0.37283 0.37874 0.04572 0.0
C1693 C 0.39356 0.3584 0.00266 0.0
C1694 C 0.34538 0.39114 0.03393 0.0
C1695 C 0.34198 0.38838 0.00705 0.0
H1696 H 0.64416 0.30762 0.46166 0.0
H1697 H 0.61912 0.48772 0.45219 0.0
H1698 H 0.61493 0.49943 0.49907 0.0
H1699 H 0.62141 0.46073 0.54295 0.0
H1700 H 0.64642 0.28143 0.55405 0.0
H1701 H 0.64674 0.26618 0.50667 0.0
C1702 C 0.63735 0.34897 0.46998 0.0
C1703 C 0.63249 0.3972 0.45356 0.0
C1704 C 0.63492 0.35539 0.49727 0.0
C1705 C 0.62367 0.45055 0.46449 0.0
C1706 C 0.62109 0.45717 0.4913 0.0
C1707 C 0.62681 0.4183 0.53494 0.0
C1708 C 0.63417 0.37245 0.55177 0.0
C1709 C 0.62726 0.41035 0.50789 0.0
C1710 C 0.64055 0.31727 0.54134 0.0
C1711 C 0.64093 0.30876 0.51428 0.0
H1712 H 0.3511 0.69544 0.53976 0.0
H1713 H 0.44079 0.63809 0.55357 0.0
H1714 H 0.44972 0.63257 0.50663 0.0
H1715 H 0.43009 0.63509 0.46147 0.0
H1716 H 0.34175 0.70019 0.44794 0.0
H1717 H 0.33416 0.71236 0.49473 0.0
C1718 C 0.37279 0.68312 0.53241 0.0
C1719 C 0.39532 0.6675 0.55 0.0
C1720 C 0.3779 0.68121 0.50542 0.0
C1721 C 0.42328 0.65117 0.54035 0.0
C1722 C 0.4283 0.64756 0.51352 0.0
C1723 C 0.40959 0.65363 0.46884 0.0
C1724 C 0.38653 0.66712 0.45142 0.0
C1725 C 0.40559 0.66141 0.49583 0.0
C1726 C 0.35987 0.69027 0.46107 0.0
C1727 C 0.35546 0.69676 0.48781 0.0
H1728 H 0.96675 0.99143 0.08335 0.0
H1729 H 0.9562 0.97266 0.16598 0.0
H1730 H 1.00738 1.00712 0.17268 0.0
H1731 H 0.05654 0.04243 0.15455 0.0
H1732 H 0.06618 0.05302 0.07137 0.0
H1733 H 0.0148 0.02293 0.06556 0.0
C1734 C 0.97565 0.99444 0.10288 0.0
C1735 C 0.95741 0.9783 0.12405 0.0
C1736 C 1.00531 1.01383 0.10654 0.0
C1737 C 0.96959 0.9834 0.14919 0.0
C1738 C 0.99896 1.0037 0.15303 0.0
C1739 C 0.04718 0.03923 0.13521 0.0
C1740 C 0.0654 0.0522 0.11338 0.0
C1741 C 0.01724 0.01932 0.13183 0.0
C1742 C 0.05288 0.0449 0.08852 0.0
C1743 C 0.02335 0.02723 0.08514 0.0
H1744 H 0.96877 0.0354 0.41958 0.0
H1745 H 0.95837 0.06793 0.3378 0.0
H1746 H 1.00902 0.03208 0.32984 0.0
H1747 H 0.0577 0.99133 0.34652 0.0
H1748 H 0.06788 0.96812 0.42911 0.0
H1749 H 0.01678 0.99933 0.43615 0.0
C1750 C 0.9776 0.03504 0.39998 0.0
C1751 C 0.95948 0.05538 0.37942 0.0
C1752 C 1.00707 1.01491 0.3956 0.0
C1753 C 0.97161 0.05384 0.35417 0.0
C1754 C 1.0007 0.03272 0.34958 0.0
C1755 C 0.0485 0.99192 0.36597 0.0
C1756 C 0.06674 0.97487 0.38722 0.0
C1757 C 0.01882 1.01278 0.37014 0.0
C1758 C 0.0545 0.97921 0.41233 0.0
C1759 C 0.02515 0.99756 0.41643 0.0
H1760 H 0.05568 0.03159 0.91297 0.0
H1761 H 0.07046 0.06871 0.83202 0.0
H1762 H 0.02013 0.0355 0.82172 0.0
H1763 H 0.97105 0.99539 0.83574 0.0
H1764 H 0.95554 0.96423 0.91704 0.0
H1765 H 1.00636 0.99476 0.92709 0.0
C1766 C 0.04784 0.03274 0.89307 0.0
C1767 C 0.06703 0.05391 0.8734 0.0
C1768 C 0.01857 1.01355 0.88728 0.0
C1769 C 0.05633 0.05413 0.8477 0.0
C1770 C 0.02744 0.03457 0.84177 0.0
C1771 C 0.97901 0.99428 0.85561 0.0
C1772 C 0.95975 0.9741 0.87545 0.0
C1773 C 1.00828 1.01393 0.86136 0.0
C1774 C 0.97013 0.9762 0.9012 0.0
C1775 C 0.9992 0.99459 0.90699 0.0
H1776 H 0.9614 0.02033 0.58198 0.0
H1777 H 0.9547 0.06143 0.66334 0.0
H1778 H 1.00571 0.02642 0.67022 0.0
H1779 H 0.05381 0.98524 0.65266 0.0
H1780 H 0.06069 0.95454 0.5703 0.0
H1781 H 1.00893 0.98328 0.56446 0.0
C1782 C 0.97107 0.0218 0.60126 0.0
C1783 C 0.95387 0.04436 0.62201 0.0
C1784 C 1.00085 1.00253 0.60498 0.0
C1785 C 0.96715 0.04539 0.64683 0.0
C1786 C 0.99648 0.02489 0.6508 0.0
C1787 C 0.04377 0.98365 0.63355 0.0
C1788 C 0.06126 0.96522 0.61203 0.0
C1789 C 0.01376 1.00322 0.63003 0.0
C1790 C 0.04789 0.96668 0.5873 0.0
C1791 C 0.01816 0.98362 0.58389 0.0
H1792 H 0.46531 0.49755 0.16005 0.0
H1793 H 0.44846 0.48205 0.07806 0.0
H1794 H 0.4994 0.51341 0.06864 0.0
H1795 H 0.54897 0.54836 0.08357 0.0
H1796 H 0.56567 0.56495 0.16561 0.0
H1797 H 0.51538 0.53031 0.17505 0.0
C1798 C 0.47302 0.49975 0.14012 0.0
C1799 C 0.45315 0.48468 0.11981 0.0
C1800 C 0.5025 0.51899 0.13483 0.0
C1801 C 0.46335 0.4908 0.09411 0.0
C1802 C 0.49252 0.50945 0.08872 0.0
C1803 C 0.54157 0.5447 0.10354 0.0
C1804 C 0.5612 0.56126 0.1238 0.0
C1805 C 0.51234 0.52415 0.10887 0.0
C1806 C 0.55112 0.55457 0.14953 0.0
C1807 C 0.52226 0.53411 0.15496 0.0
H1808 H 0.46827 0.53201 0.42035 0.0
H1809 H 0.45585 0.55748 0.33826 0.0
H1810 H 0.50728 0.52581 0.33024 0.0
H1811 H 0.55727 0.49185 0.347 0.0
H1812 H 0.56899 0.47464 0.42971 0.0
H1813 H 0.51718 0.50101 0.43686 0.0
C1814 C 0.47679 0.53096 0.40065 0.0
C1815 C 0.45792 0.54832 0.38004 0.0
C1816 C 0.50663 0.51316 0.39623 0.0
C1817 C 0.46966 0.54578 0.35467 0.0
C1818 C 0.49921 0.5271 0.35006 0.0
C1819 C 0.54827 0.49254 0.36652 0.0
C1820 C 0.5672 0.47875 0.38779 0.0
C1821 C 0.5181 0.51048 0.37069 0.0
C1822 C 0.55513 0.48317 0.41294 0.0
C1823 C 0.52536 0.49881 0.41709 0.0
H1824 H 0.46821 0.50161 0.91407 0.0
H1825 H 0.45697 0.45446 0.83369 0.0
H1826 H 0.50742 0.48747 0.82415 0.0
H1827 H 0.55563 0.53008 0.83862 0.0
H1828 H 0.56752 0.57341 0.9193 0.0
H1829 H 0.51653 0.54275 0.92862 0.0
C1830 C 0.47685 0.49825 0.89446 0.0
C1831 C 0.45863 0.47408 0.87477 0.0
C1832 C 0.50615 0.51783 0.88906 0.0
C1833 C 0.47034 0.47118 0.84944 0.0
C1834 C 0.49929 0.49071 0.84391 0.0
C1835 C 0.54682 0.53387 0.85816 0.0
C1836 C 0.56513 0.55715 0.87799 0.0
C1837 C 0.51748 0.51433 0.86352 0.0
C1838 C 0.55368 0.55869 0.9034 0.0
C1839 C 0.52452 0.54029 0.9088 0.0
H1840 H 0.4678 0.53788 0.58279 0.0
H1841 H 0.45726 0.56901 0.66469 0.0
H1842 H 0.50868 0.53651 0.67229 0.0
H1843 H 0.55819 0.49982 0.65512 0.0
H1844 H 0.56727 0.47394 0.57254 0.0
H1845 H 0.5157 0.50251 0.56599 0.0
C1846 C 0.47672 0.53794 0.60236 0.0
C1847 C 0.45842 0.55731 0.62301 0.0
C1848 C 0.50645 0.51907 0.60655 0.0
C1849 C 0.47066 0.55594 0.64823 0.0
C1850 C 0.5002 0.53669 0.6526 0.0
C1851 C 0.54868 0.49928 0.63579 0.0
C1852 C 0.56688 0.48269 0.61437 0.0
C1853 C 0.51853 0.51799 0.6319 0.0
C1854 C 0.55404 0.48497 0.58944 0.0
C1855 C 0.52441 0.50182 0.58562 0.0
H1856 H 0.19839 0.67739 0.13346 0.0
H1857 H 0.12089 0.76504 0.10308 0.0
H1858 H 0.09353 0.6736 0.10354 0.0
H1859 H 0.09118 0.56891 0.11279 0.0
H1860 H 0.16847 0.48037 0.14282 0.0
H1861 H 0.19656 0.57131 0.14124 0.0
C1862 C 0.17563 0.67649 0.12665 0.0
C1863 C 0.16174 0.72861 0.11853 0.0
C1864 C 0.15998 0.62335 0.12668 0.0
C1865 C 0.13207 0.72623 0.11002 0.0
C1866 C 0.1164 0.67373 0.11006 0.0
C1867 C 0.1141 0.56949 0.11919 0.0
C1868 C 0.12755 0.51769 0.12806 0.0
C1869 C 0.13004 0.62213 0.11853 0.0
C1870 C 0.15754 0.51927 0.13568 0.0
C1871 C 0.17359 0.57147 0.13498 0.0
H1872 H 0.82698 0.34959 0.12987 0.0
H1873 H 0.90986 0.26286 0.11284 0.0
H1874 H 0.93647 0.35449 0.1186 0.0
H1875 H 0.93634 0.45962 0.12783 0.0
H1876 H 0.85353 0.54634 0.14523 0.0
H1877 H 0.82684 0.455 0.13898 0.0
C1878 C 0.85084 0.3507 0.12717 0.0
C1879 C 0.86629 0.29892 0.12099 0.0
C1880 C 0.86608 0.40385 0.13031 0.0
C1881 C 0.89732 0.30148 0.118 0.0
C1882 C 0.91258 0.3541 0.1211 0.0
C1883 C 0.91248 0.45862 0.13053 0.0
C1884 C 0.89713 0.5103 0.13703 0.0
C1885 C 0.89722 0.40557 0.12727 0.0
C1886 C 0.86606 0.50783 0.13987 0.0
C1887 C 0.85073 0.45533 0.13651 0.0
H1888 H 0.19799 0.34848 0.36266 0.0
H1889 H 0.12163 0.2621 0.39554 0.0
H1890 H 0.09411 0.35356 0.39507 0.0
H1891 H 0.09138 0.45811 0.38539 0.0
H1892 H 0.16761 0.54547 0.35308 0.0
H1893 H 0.19575 0.45427 0.35421 0.0
C1894 C 0.17545 0.34965 0.37001 0.0
C1895 C 0.16194 0.29787 0.37887 0.0
C1896 C 0.15972 0.40284 0.37001 0.0
C1897 C 0.13252 0.30061 0.38804 0.0
C1898 C 0.11677 0.35315 0.38799 0.0
C1899 C 0.11409 0.45719 0.37842 0.0
C1900 C 0.12726 0.50874 0.36909 0.0
C1901 C 0.13006 0.40445 0.3789 0.0
C1902 C 0.15695 0.50676 0.36063 0.0
C1903 C 0.17301 0.45442 0.36108 0.0
H1904 H 0.91947 0.56788 0.33913 0.0
H1905 H 0.8782 0.49853 0.40818 0.0
H1906 H 0.85256 0.59102 0.41518 0.0
H1907 H 0.84323 0.693 0.4027 0.0
H1908 H 0.88461 0.76216 0.33365 0.0
H1909 H 0.90954 0.66914 0.32628 0.0
C1910 C 0.90511 0.57303 0.35588 0.0
C1911 C 0.90097 0.52596 0.37311 0.0
C1912 C 0.89067 0.62671 0.36001 0.0
C1913 C 0.88166 0.53346 0.39437 0.0
C1914 C 0.86712 0.58663 0.39853 0.0
C1915 C 0.85744 0.68767 0.38587 0.0
C1916 C 0.86205 0.73502 0.36886 0.0
C1917 C 0.87158 0.63369 0.38157 0.0
C1918 C 0.88097 0.72713 0.34737 0.0
C1919 C 0.89511 0.67368 0.34301 0.0
H1920 H 0.83579 0.34057 0.91386 0.0
H1921 H 0.88882 0.25166 0.85634 0.0
H1922 H 0.91278 0.34355 0.84477 0.0
H1923 H 0.91831 0.44914 0.85057 0.0
H1924 H 0.86724 0.53715 0.90994 0.0
H1925 H 0.8421 0.4463 0.92027 0.0
C1926 C 0.85249 0.34134 0.8987 0.0
C1927 C 0.8605 0.28908 0.88605 0.0
C1928 C 0.8663 0.39442 0.89219 0.0
C1929 C 0.88247 0.29093 0.86666 0.0
C1930 C 0.89605 0.34361 0.8599 0.0
C1931 C 0.90203 0.44868 0.86606 0.0
C1932 C 0.89493 0.50079 0.87936 0.0
C1933 C 0.8882 0.39563 0.87257 0.0
C1934 C 0.87303 0.49863 0.89889 0.0
C1935 C 0.85877 0.44628 0.90508 0.0
H1936 H 0.08855 0.57374 0.87139 0.0
H1937 H 0.16943 0.48693 0.84817 0.0
H1938 H 0.19663 0.57834 0.85228 0.0
H1939 H 0.19732 0.68367 0.86135 0.0
H1940 H 0.11638 0.77026 0.88461 0.0
H1941 H 0.08929 0.67876 0.88065 0.0
C1942 C 0.11206 0.5748 0.86695 0.0
C1943 C 0.12679 0.52317 0.85946 0.0
C1944 C 0.12758 0.62778 0.86907 0.0
C1945 C 0.15746 0.52554 0.85431 0.0
C1946 C 0.17305 0.57802 0.85647 0.0
C1947 C 0.17381 0.68254 0.8658 0.0
C1948 C 0.159 0.73419 0.87319 0.0
C1949 C 0.15833 0.62947 0.86376 0.0
C1950 C 0.12837 0.73168 0.87846 0.0
C1951 C 0.11285 0.67916 0.87641 0.0
H1952 H 0.82336 0.67664 0.6409 0.0
H1953 H 0.89854 0.76261 0.60583 0.0
H1954 H 0.92569 0.67064 0.60494 0.0
H1955 H 0.92832 0.56579 0.61404 0.0
H1956 H 0.85325 0.47932 0.64892 0.0
H1957 H 0.82552 0.57088 0.64894 0.0
C1958 C 0.84555 0.67526 0.63277 0.0
C1959 C 0.85886 0.72696 0.62364 0.0
C1960 C 0.86104 0.62189 0.63205 0.0
C1961 C 0.88784 0.72405 0.6135 0.0
C1962 C 0.90336 0.67126 0.61278 0.0
C1963 C 0.90599 0.56696 0.62186 0.0
C1964 C 0.89304 0.51551 0.63156 0.0
C1965 C 0.89026 0.61998 0.62213 0.0
C1966 C 0.86377 0.51789 0.64107 0.0
C1967 C 0.84793 0.57044 0.64129 0.0
H1968 H 0.18967 0.3417 0.63963 0.0
H1969 H 0.11085 0.2574 0.61044 0.0
H1970 H 0.08359 0.34919 0.61339 0.0
H1971 H 0.08226 0.45397 0.62337 0.0
H1972 H 0.16104 0.53818 0.65273 0.0
H1973 H 0.1883 0.44644 0.64974 0.0
C1974 C 0.1666 0.34342 0.63368 0.0
C1975 C 0.15241 0.29239 0.62486 0.0
C1976 C 0.15105 0.3966 0.63521 0.0
C1977 C 0.12231 0.29556 0.61766 0.0
C1978 C 0.10672 0.34823 0.61916 0.0
C1979 C 0.10531 0.45225 0.62938 0.0
C1980 C 0.11948 0.50329 0.63821 0.0
C1981 C 0.12085 0.39906 0.62789 0.0
C1982 C 0.14957 0.50007 0.64547 0.0
C1983 C 0.16517 0.4474 0.64396 0.0
H1984 H 0.63775 0.04028 0.15219 0.0
H1985 H 0.54447 0.03528 0.13365 0.0
H1986 H 0.54543 0.13829 0.12195 0.0
H1987 H 0.57212 0.23016 0.11753 0.0
H1988 H 0.6656 0.2381 0.13496 0.0
H1989 H 0.66504 0.13475 0.14738 0.0
C1990 C 0.61783 0.06173 0.1452 0.0
C1991 C 0.5911 0.02988 0.14353 0.0
C1992 C 0.61843 0.12188 0.13881 0.0
C1993 C 0.56532 0.0586 0.13493 0.0
C1994 C 0.56581 0.11765 0.12838 0.0
C1995 C 0.59251 0.2094 0.12389 0.0
C1996 C 0.61895 0.24219 0.12502 0.0
C1997 C 0.59214 0.14981 0.13039 0.0
C1998 C 0.64486 0.21443 0.13404 0.0
C1999 C 0.64461 0.15499 0.14087 0.0
H2000 H 0.33347 0.85041 0.09392 0.0
H2001 H 0.37103 0.7811 0.16464 0.0
H2002 H 0.39624 0.8733 0.17266 0.0
H2003 H 0.40814 0.97329 0.15955 0.0
H2004 H 0.37088 0.04296 0.08879 0.0
H2005 H 0.34426 0.95187 0.08143 0.0
C2006 C 0.34689 0.85562 0.11124 0.0
C2007 C 0.35051 0.80841 0.12849 0.0
C2008 C 0.36128 0.90907 0.11587 0.0
C2009 C 0.36827 0.81607 0.15072 0.0
C2010 C 0.38257 0.86901 0.15544 0.0
C2011 C 0.39443 0.96848 0.14237 0.0
C2012 C 0.39176 1.01509 0.12471 0.0
C2013 C 0.37946 0.91563 0.13805 0.0
C2014 C 0.37324 1.00824 0.10289 0.0
C2015 C 0.35813 0.95589 0.09854 0.0
H2016 H 0.60437 0.97332 0.34043 0.0
H2017 H 0.65103 0.04003 0.40737 0.0
H2018 H 0.67717 0.94734 0.412 0.0
H2019 H 0.68553 0.84592 0.39811 0.0
H2020 H 0.63882 0.77937 0.33117 0.0
H2021 H 0.61326 0.87254 0.32618 0.0
C2022 C 0.62003 0.96757 0.35622 0.0
C2023 C 0.62552 1.01401 0.37355 0.0
C2024 C 0.63477 0.91373 0.35901 0.0
C2025 C 0.64648 1.00568 0.3935 0.0
C2026 C 0.66132 0.95236 0.39632 0.0
C2027 C 0.67001 0.85183 0.38224 0.0
C2028 C 0.66414 0.80513 0.36513 0.0
C2029 C 0.65552 0.90593 0.37928 0.0
C2030 C 0.64351 0.81382 0.34495 0.0
C2031 C 0.629 0.86739 0.34193 0.0
H2032 H 0.42079 0.05389 0.38365 0.0
H2033 H 0.3452 0.98368 0.34307 0.0
H2034 H 0.31833 0.07568 0.34915 0.0
H2035 H 0.31761 0.17806 0.36396 0.0
H2036 H 0.39245 0.24477 0.40723 0.0
H2037 H 0.41846 0.15283 0.4015 0.0
C2038 C 0.39846 0.05887 0.37605 0.0
C2039 C 0.38515 1.01239 0.36263 0.0
C2040 C 0.38314 0.11159 0.37979 0.0
C2041 C 0.35594 0.01891 0.35344 0.0
C2042 C 0.34064 0.07158 0.35682 0.0
C2043 C 0.33941 0.17242 0.37251 0.0
C2044 C 0.35314 0.21938 0.38553 0.0
C2045 C 0.35415 0.11853 0.36974 0.0
C2046 C 0.38155 0.21061 0.39632 0.0
C2047 C 0.39644 0.15765 0.3933 0.0
H2048 H 0.34405 0.8371 0.89885 0.0
H2049 H 0.38459 0.76791 0.82934 0.0
H2050 H 0.40956 0.86069 0.82193 0.0
H2051 H 0.41963 0.96188 0.83483 0.0
H2052 H 0.37919 0.03117 0.90435 0.0
H2053 H 0.35369 0.93878 0.91149 0.0
C2054 C 0.35809 0.84238 0.88192 0.0
C2055 C 0.36243 0.79513 0.86477 0.0
C2056 C 0.37225 0.8962 0.8776 0.0
C2057 C 0.38115 0.8029 0.84315 0.0
C2058 C 0.39531 0.85621 0.83877 0.0
C2059 C 0.40547 0.95673 0.8517 0.0
C2060 C 0.40149 1.00376 0.86902 0.0
C2061 C 0.39109 0.90313 0.85589 0.0
C2062 C 0.38248 0.99627 0.89047 0.0
C2063 C 0.36803 0.94318 0.8947 0.0
H2064 H 0.6975 0.19536 0.87861 0.0
H2065 H 0.61836 0.25959 0.91656 0.0
H2066 H 0.59348 0.16746 0.90806 0.0
H2067 H 0.59398 0.06791 0.89028 0.0
H2068 H 0.67341 1.00172 0.85406 0.0
H2069 H 0.69865 0.0944 0.86228 0.0
C2070 C 0.67495 0.1892 0.88539 0.0
C2071 C 0.65992 0.23526 0.89808 0.0
C2072 C 0.66083 0.13532 0.88094 0.0
C2073 C 0.63046 0.22599 0.90623 0.0
C2074 C 0.6162 0.1729 0.90159 0.0
C2075 C 0.61679 0.0739 0.88411 0.0
C2076 C 0.63183 0.0279 0.87161 0.0
C2077 C 0.63111 0.12732 0.88892 0.0
C2078 C 0.6615 0.03612 0.86403 0.0
C2079 C 0.67584 0.08929 0.86856 0.0
H2080 H 0.43465 0.07478 0.62368 0.0
H2081 H 0.35325 0.98972 0.6462 0.0
H2082 H 0.32627 0.08145 0.64127 0.0
H2083 H 0.32597 0.18676 0.6319 0.0
H2084 H 0.40746 0.27139 0.60921 0.0
H2085 H 0.43423 0.1795 0.61378 0.0
C2086 C 0.41106 0.07627 0.62776 0.0
C2087 C 0.39614 0.02505 0.63537 0.0
C2088 C 0.39567 0.12944 0.62515 0.0
C2089 C 0.36537 0.02798 0.64001 0.0
C2090 C 0.34991 0.08067 0.63739 0.0
C2091 C 0.34953 0.18513 0.62769 0.0
C2092 C 0.36458 0.23645 0.62033 0.0
C2093 C 0.36484 0.13177 0.63008 0.0
C2094 C 0.39526 0.23319 0.61537 0.0
C2095 C 0.41061 0.1804 0.61777 0.0
H2096 H 0.68292 0.8558 0.59825 0.0
H2097 H 0.6474 0.78221 0.66887 0.0
H2098 H 0.62345 0.87484 0.67912 0.0
H2099 H 0.6124 0.97673 0.66817 0.0
H2100 H 0.64755 0.05037 0.59742 0.0
H2101 H 0.6727 0.95863 0.58775 0.0
C2102 C 0.67022 0.86008 0.61604 0.0
C2103 C 0.66689 0.81158 0.63262 0.0
C2104 C 0.65659 0.9138 0.62197 0.0
C2105 C 0.64997 0.81816 0.65543 0.0
C2106 C 0.6364 0.87137 0.66144 0.0
C2107 C 0.6253 0.97271 0.65048 0.0
C2108 C 0.62783 0.02077 0.63355 0.0
C2109 C 0.6394 0.91939 0.64479 0.0
C2110 C 0.64534 1.01469 0.61104 0.0
C2111 C 0.65959 0.96192 0.60535 0.0
loop_
_geom_bond_atom_site_label_1
_geom_bond_atom_site_label_2
_geom_bond_distance
_geom_bond_site_symmetry_2
_ccdc_geom_bond_type
Eu0 N31 2.657 . S
Eu0 N38 2.609 . S
Eu0 O44 2.558 1_545 S
Eu0 O45 2.612 . S
Eu0 O47 2.339 . S
Eu0 O48 2.563 . S
Eu0 O49 2.419 1_545 S
Eu0 O51 2.380 . S
Eu0 O52 2.432 . S
Eu0 C64 2.848 1_545 S
C1 C4 1.429 . S
C1 C5 1.411 . S
C1 N8 1.377 . S
C2 C4 1.420 . S
C2 C6 1.423 1_455 S
C2 C14 1.392 1_455 S
C3 C5 1.420 1_655 S
C3 C6 1.351 . S
C3 H26 0.931 . S
C4 C1 1.429 . S
C4 C2 1.420 . S
C4 N12 1.362 . S
C5 C1 1.411 . S
C5 C3 1.420 1_455 S
C5 C10 1.395 . S
C6 C2 1.423 1_655 S
C6 C3 1.351 . S
C6 H18 0.930 . S
C7 C9 1.400 . S
C7 C10 1.386 . S
C7 H19 0.930 . S
N8 C1 1.377 . S
N8 C9 1.321 . S
N8 Eu11 2.609 . S
C9 C7 1.400 . S
C9 N8 1.321 . S
C9 H16 0.930 . S
C10 C5 1.395 . S
C10 C7 1.386 . S
C10 H29 0.930 . S
Eu11 N8 2.609 . S
Eu11 N12 2.657 . S
Eu11 O45 2.380 . S
Eu11 O46 2.432 . S
Eu11 O50 2.558 . S
Eu11 O51 2.612 . S
Eu11 O53 2.339 . S
Eu11 O54 2.563 . S
Eu11 O55 2.419 . S
Eu11 C75 2.848 . S
N12 C4 1.362 . S
N12 Eu11 2.657 . S
N12 C13 1.334 . S
C13 N12 1.334 . S
C13 C15 1.413 . S
C13 H20 0.929 . S
C14 C2 1.392 1_655 S
C14 C15 1.367 1_655 S
C14 H22 0.930 . S
C15 C13 1.413 . S
C15 C14 1.367 1_455 S
C15 H17 0.930 . S
H16 C9 0.930 . S
H17 C15 0.930 . S
H18 C6 0.930 . S
H19 C7 0.930 . S
H20 C13 0.929 . S
H21 C35 0.930 . S
H22 C14 0.930 . S
H23 C41 0.930 . S
H24 C32 0.929 . S
H25 C39 0.930 . S
H26 C3 0.931 . S
H27 C33 0.930 . S
H28 C66 0.930 . S
H29 C10 0.930 . S
H30 C65 0.931 . S
N31 Eu0 2.657 . S
N31 C32 1.334 . S
N31 C36 1.362 . S
C32 H24 0.929 . S
C32 N31 1.334 . S
C32 C35 1.413 . S
C33 H27 0.930 . S
C33 C34 1.392 . S
C33 C35 1.367 . S
C34 C33 1.392 . S
C34 C36 1.420 . S
C34 C66 1.423 . S
C35 H21 0.930 . S
C35 C32 1.413 . S
C35 C33 1.367 . S
C36 N31 1.362 . S
C36 C34 1.420 . S
C36 C40 1.429 . S
H37 C42 0.930 1_565 S
N38 Eu0 2.609 . S
N38 C40 1.377 . S
N38 C41 1.321 . S
C39 H25 0.930 . S
C39 C41 1.400 . S
C39 C42 1.386 . S
C40 C36 1.429 . S
C40 N38 1.377 . S
C40 C43 1.411 . S
C41 H23 0.930 . S
C41 N38 1.321 . S
C41 C39 1.400 . S
C42 H37 0.930 1_545 S
C42 C39 1.386 . S
C42 C43 1.395 . S
C43 C40 1.411 . S
C43 C42 1.395 . S
C43 C65 1.420 . S
O44 Eu0 2.558 1_565 S
O44 C64 1.257 . S
O45 Eu0 2.612 . S
O45 Eu11 2.380 . S
O45 C56 1.276 . S
O46 Eu11 2.432 . S
O46 C63 1.264 . S
O47 Eu0 2.339 . S
O47 C63 1.254 . S
O48 Eu0 2.563 . S
O48 C56 1.235 . S
O49 Eu0 2.419 1_565 S
O49 C64 1.249 . S
O50 Eu11 2.558 . S
O50 C75 1.257 . S
O51 Eu0 2.380 . S
O51 Eu11 2.612 . S
O51 C67 1.276 . S
O52 Eu0 2.432 . S
O52 C74 1.264 . S
O53 Eu11 2.339 . S
O53 C74 1.254 . S
O54 Eu11 2.563 . S
O54 C67 1.235 . S
O55 Eu11 2.419 . S
O55 C75 1.249 . S
C56 O45 1.276 . S
C56 O48 1.235 . S
C57 C59 1.393 . S
C57 C61 1.395 . S
C57 C64 1.492 . S
C58 C59 1.392 . S
C58 C60 1.386 . S
C59 C57 1.393 . S
C59 C58 1.392 . S
C59 H76 0.930 . S
C60 C58 1.386 . S
C60 C62 1.395 . S
C60 H77 0.930 . S
C61 C57 1.395 . S
C61 C62 1.379 . S
C61 H78 0.930 . S
C62 C60 1.395 . S
C62 C61 1.379 . S
C62 H79 0.930 . S
C63 O46 1.264 . S
C63 O47 1.254 . S
C64 Eu0 2.848 1_565 S
C64 O44 1.257 . S
C64 O49 1.249 . S
C64 C57 1.492 . S
C65 H30 0.931 . S
C65 C43 1.420 . S
C65 C66 1.351 . S
C66 H28 0.930 . S
C66 C34 1.423 . S
C66 C65 1.351 . S
C67 O51 1.276 . S
C67 O54 1.235 . S
C68 C69 1.393 . S
C68 C72 1.395 . S
C68 C75 1.492 . S
C69 C68 1.393 . S
C69 C70 1.392 . S
C69 H80 0.930 . S
C70 C69 1.392 . S
C70 C71 1.386 . S
C71 C70 1.386 . S
C71 C73 1.395 . S
C71 H81 0.930 . S
C72 C68 1.395 . S
C72 C73 1.379 . S
C72 H82 0.930 . S
C73 C71 1.395 . S
C73 C72 1.379 . S
C73 H83 0.930 . S
C74 O52 1.264 . S
C74 O53 1.254 . S
C75 Eu11 2.848 . S
C75 O50 1.257 . S
C75 O55 1.249 . S
C75 C68 1.492 . S
H76 C59 0.930 . S
H77 C60 0.930 . S
H78 C61 0.930 . S
H79 C62 0.930 . S
H80 C69 0.930 . S
H81 C71 0.930 . S
H82 C72 0.930 . S
H83 C73 0.930 . S
Eu84 N115 2.657 . S
Eu84 N122 2.609 . S
Eu84 O128 2.558 1_565 S
Eu84 O129 2.612 . S
Eu84 O131 2.339 . S
Eu84 O132 2.563 . S
Eu84 O133 2.419 1_565 S
Eu84 O135 2.380 . S
Eu84 O136 2.432 . S
Eu84 C148 2.848 1_565 S
C85 C88 1.429 . S
C85 C89 1.411 . S
C85 N92 1.377 . S
C86 C88 1.420 . S
C86 C90 1.423 1_655 S
C86 C98 1.392 1_655 S
C87 C89 1.420 1_455 S
C87 C90 1.351 . S
C87 H110 0.931 . S
C88 C85 1.429 . S
C88 C86 1.420 . S
C88 N96 1.362 . S
C89 C85 1.411 . S
C89 C87 1.420 1_655 S
C89 C94 1.395 . S
C90 C86 1.423 1_455 S
C90 C87 1.351 . S
C90 H102 0.930 . S
C91 C93 1.400 . S
C91 C94 1.386 . S
C91 H103 0.930 . S
N92 C85 1.377 . S
N92 C93 1.321 . S
N92 Eu95 2.609 . S
C93 C91 1.400 . S
C93 N92 1.321 . S
C93 H100 0.930 . S
C94 C89 1.395 . S
C94 C91 1.386 . S
C94 H113 0.930 . S
Eu95 N92 2.609 . S
Eu95 N96 2.657 . S
Eu95 O129 2.380 . S
Eu95 O130 2.432 . S
Eu95 O134 2.558 . S
Eu95 O135 2.612 . S
Eu95 O137 2.339 . S
Eu95 O138 2.563 . S
Eu95 O139 2.419 . S
Eu95 C159 2.848 . S
N96 C88 1.362 . S
N96 Eu95 2.657 . S
N96 C97 1.334 . S
C97 N96 1.334 . S
C97 C99 1.413 . S
C97 H104 0.929 . S
C98 C86 1.392 1_455 S
C98 C99 1.367 1_455 S
C98 H106 0.930 . S
C99 C97 1.413 . S
C99 C98 1.367 1_655 S
C99 H101 0.930 . S
H100 C93 0.930 . S
H101 C99 0.930 . S
H102 C90 0.930 . S
H103 C91 0.930 . S
H104 C97 0.929 . S
H105 C119 0.930 . S
H106 C98 0.930 . S
H107 C125 0.930 . S
H108 C116 0.929 . S
H109 C123 0.930 . S
H110 C87 0.931 . S
H111 C117 0.930 . S
H112 C150 0.930 . S
H113 C94 0.930 . S
H114 C149 0.931 . S
N115 Eu84 2.657 . S
N115 C116 1.334 . S
N115 C120 1.362 . S
C116 H108 0.929 . S
C116 N115 1.334 . S
C116 C119 1.413 . S
C117 H111 0.930 . S
C117 C118 1.392 . S
C117 C119 1.367 . S
C118 C117 1.392 . S
C118 C120 1.420 . S
C118 C150 1.423 . S
C119 H105 0.930 . S
C119 C116 1.413 . S
C119 C117 1.367 . S
C120 N115 1.362 . S
C120 C118 1.420 . S
C120 C124 1.429 . S
H121 C126 0.930 1_545 S
N122 Eu84 2.609 . S
N122 C124 1.377 . S
N122 C125 1.321 . S
C123 H109 0.930 . S
C123 C125 1.400 . S
C123 C126 1.386 . S
C124 C120 1.429 . S
C124 N122 1.377 . S
C124 C127 1.411 . S
C125 H107 0.930 . S
C125 N122 1.321 . S
C125 C123 1.400 . S
C126 H121 0.930 1_565 S
C126 C123 1.386 . S
C126 C127 1.395 . S
C127 C124 1.411 . S
C127 C126 1.395 . S
C127 C149 1.420 . S
O128 Eu84 2.558 1_545 S
O128 C148 1.257 . S
O129 Eu84 2.612 . S
O129 Eu95 2.380 . S
O129 C140 1.276 . S
O130 Eu95 2.432 . S
O130 C147 1.264 . S
O131 Eu84 2.339 . S
O131 C147 1.254 . S
O132 Eu84 2.563 . S
O132 C140 1.235 . S
O133 Eu84 2.419 1_545 S
O133 C148 1.249 . S
O134 Eu95 2.558 . S
O134 C159 1.257 . S
O135 Eu84 2.380 . S
O135 Eu95 2.612 . S
O135 C151 1.276 . S
O136 Eu84 2.432 . S
O136 C158 1.264 . S
O137 Eu95 2.339 . S
O137 C158 1.254 . S
O138 Eu95 2.563 . S
O138 C151 1.235 . S
O139 Eu95 2.419 . S
O139 C159 1.249 . S
C140 O129 1.276 . S
C140 O132 1.235 . S
C141 C143 1.393 . S
C141 C145 1.395 . S
C141 C148 1.492 . S
C142 C143 1.392 . S
C142 C144 1.386 . S
C143 C141 1.393 . S
C143 C142 1.392 . S
C143 H160 0.930 . S
C144 C142 1.386 . S
C144 C146 1.395 . S
C144 H161 0.930 . S
C145 C141 1.395 . S
C145 C146 1.379 . S
C145 H162 0.930 . S
C146 C144 1.395 . S
C146 C145 1.379 . S
C146 H163 0.930 . S
C147 O130 1.264 . S
C147 O131 1.254 . S
C148 Eu84 2.848 1_545 S
C148 O128 1.257 . S
C148 O133 1.249 . S
C148 C141 1.492 . S
C149 H114 0.931 . S
C149 C127 1.420 . S
C149 C150 1.351 . S
C150 H112 0.930 . S
C150 C118 1.423 . S
C150 C149 1.351 . S
C151 O135 1.276 . S
C151 O138 1.235 . S
C152 C153 1.393 . S
C152 C156 1.395 . S
C152 C159 1.492 . S
C153 C152 1.393 . S
C153 C154 1.392 . S
C153 H164 0.930 . S
C154 C153 1.392 . S
C154 C155 1.386 . S
C155 C154 1.386 . S
C155 C157 1.395 . S
C155 H165 0.930 . S
C156 C152 1.395 . S
C156 C157 1.379 . S
C156 H166 0.930 . S
C157 C155 1.395 . S
C157 C156 1.379 . S
C157 H167 0.930 . S
C158 O136 1.264 . S
C158 O137 1.254 . S
C159 Eu95 2.848 . S
C159 O134 1.257 . S
C159 O139 1.249 . S
C159 C152 1.492 . S
H160 C143 0.930 . S
H161 C144 0.930 . S
H162 C145 0.930 . S
H163 C146 0.930 . S
H164 C153 0.930 . S
H165 C155 0.930 . S
H166 C156 0.930 . S
H167 C157 0.930 . S
Eu168 N199 2.657 . S
Eu168 N206 2.609 . S
Eu168 O212 2.558 1_565 S
Eu168 O213 2.612 . S
Eu168 O215 2.339 . S
Eu168 O216 2.563 . S
Eu168 O217 2.419 1_565 S
Eu168 O219 2.380 . S
Eu168 O220 2.432 . S
Eu168 C232 2.848 1_565 S
C169 C172 1.429 . S
C169 C173 1.411 . S
C169 N176 1.377 . S
C170 C172 1.420 . S
C170 C174 1.423 1_455 S
C170 C182 1.392 1_455 S
C171 C173 1.420 1_655 S
C171 C174 1.351 . S
C171 H194 0.931 . S
C172 C169 1.429 . S
C172 C170 1.420 . S
C172 N180 1.362 . S
C173 C169 1.411 . S
C173 C171 1.420 1_455 S
C173 C178 1.395 . S
C174 C170 1.423 1_655 S
C174 C171 1.351 . S
C174 H186 0.930 . S
C175 C177 1.400 . S
C175 C178 1.386 . S
C175 H187 0.930 . S
N176 C169 1.377 . S
N176 C177 1.321 . S
N176 Eu179 2.609 . S
C177 C175 1.400 . S
C177 N176 1.321 . S
C177 H184 0.930 . S
C178 C173 1.395 . S
C178 C175 1.386 . S
C178 H197 0.930 . S
Eu179 N176 2.609 . S
Eu179 N180 2.657 . S
Eu179 O213 2.380 . S
Eu179 O214 2.432 . S
Eu179 O218 2.558 . S
Eu179 O219 2.612 . S
Eu179 O221 2.339 . S
Eu179 O222 2.563 . S
Eu179 O223 2.419 . S
Eu179 C243 2.848 . S
N180 C172 1.362 . S
N180 Eu179 2.657 . S
N180 C181 1.334 . S
C181 N180 1.334 . S
C181 C183 1.413 . S
C181 H188 0.929 . S
C182 C170 1.392 1_655 S
C182 C183 1.367 1_655 S
C182 H190 0.930 . S
C183 C181 1.413 . S
C183 C182 1.367 1_455 S
C183 H185 0.930 . S
H184 C177 0.930 . S
H185 C183 0.930 . S
H186 C174 0.930 . S
H187 C175 0.930 . S
H188 C181 0.929 . S
H189 C203 0.930 . S
H190 C182 0.930 . S
H191 C209 0.930 . S
H192 C200 0.929 . S
H193 C207 0.930 . S
H194 C171 0.931 . S
H195 C201 0.930 . S
H196 C234 0.930 . S
H197 C178 0.930 . S
H198 C233 0.931 . S
N199 Eu168 2.657 . S
N199 C200 1.334 . S
N199 C204 1.362 . S
C200 H192 0.929 . S
C200 N199 1.334 . S
C200 C203 1.413 . S
C201 H195 0.930 . S
C201 C202 1.392 . S
C201 C203 1.367 . S
C202 C201 1.392 . S
C202 C204 1.420 . S
C202 C234 1.423 . S
C203 H189 0.930 . S
C203 C200 1.413 . S
C203 C201 1.367 . S
C204 N199 1.362 . S
C204 C202 1.420 . S
C204 C208 1.429 . S
H205 C210 0.930 1_545 S
N206 Eu168 2.609 . S
N206 C208 1.377 . S
N206 C209 1.321 . S
C207 H193 0.930 . S
C207 C209 1.400 . S
C207 C210 1.386 . S
C208 C204 1.429 . S
C208 N206 1.377 . S
C208 C211 1.411 . S
C209 H191 0.930 . S
C209 N206 1.321 . S
C209 C207 1.400 . S
C210 H205 0.930 1_565 S
C210 C207 1.386 . S
C210 C211 1.395 . S
C211 C208 1.411 . S
C211 C210 1.395 . S
C211 C233 1.420 . S
O212 Eu168 2.558 1_545 S
O212 C232 1.257 . S
O213 Eu168 2.612 . S
O213 Eu179 2.380 . S
O213 C224 1.276 . S
O214 Eu179 2.432 . S
O214 C231 1.264 . S
O215 Eu168 2.339 . S
O215 C231 1.254 . S
O216 Eu168 2.563 . S
O216 C224 1.235 . S
O217 Eu168 2.419 1_545 S
O217 C232 1.249 . S
O218 Eu179 2.558 . S
O218 C243 1.257 . S
O219 Eu168 2.380 . S
O219 Eu179 2.612 . S
O219 C235 1.276 . S
O220 Eu168 2.432 . S
O220 C242 1.264 . S
O221 Eu179 2.339 . S
O221 C242 1.254 . S
O222 Eu179 2.563 . S
O222 C235 1.235 . S
O223 Eu179 2.419 . S
O223 C243 1.249 . S
C224 O213 1.276 . S
C224 O216 1.235 . S
C225 C227 1.393 . S
C225 C229 1.395 . S
C225 C232 1.492 . S
C226 C227 1.392 . S
C226 C228 1.386 . S
C227 C225 1.393 . S
C227 C226 1.392 . S
C227 H244 0.930 . S
C228 C226 1.386 . S
C228 C230 1.395 . S
C228 H245 0.930 . S
C229 C225 1.395 . S
C229 C230 1.379 . S
C229 H246 0.930 . S
C230 C228 1.395 . S
C230 C229 1.379 . S
C230 H247 0.930 . S
C231 O214 1.264 . S
C231 O215 1.254 . S
C232 Eu168 2.848 1_545 S
C232 O212 1.257 . S
C232 O217 1.249 . S
C232 C225 1.492 . S
C233 H198 0.931 . S
C233 C211 1.420 . S
C233 C234 1.351 . S
C234 H196 0.930 . S
C234 C202 1.423 . S
C234 C233 1.351 . S
C235 O219 1.276 . S
C235 O222 1.235 . S
C236 C237 1.393 . S
C236 C240 1.395 . S
C236 C243 1.492 . S
C237 C236 1.393 . S
C237 C238 1.392 . S
C237 H248 0.930 . S
C238 C237 1.392 . S
C238 C239 1.386 . S
C239 C238 1.386 . S
C239 C241 1.395 . S
C239 H249 0.930 . S
C240 C236 1.395 . S
C240 C241 1.379 . S
C240 H250 0.930 . S
C241 C239 1.395 . S
C241 C240 1.379 . S
C241 H251 0.930 . S
C242 O220 1.264 . S
C242 O221 1.254 . S
C243 Eu179 2.848 . S
C243 O218 1.257 . S
C243 O223 1.249 . S
C243 C236 1.492 . S
H244 C227 0.930 . S
H245 C228 0.930 . S
H246 C229 0.930 . S
H247 C230 0.930 . S
H248 C237 0.930 . S
H249 C239 0.930 . S
H250 C240 0.930 . S
H251 C241 0.930 . S
Eu252 N283 2.657 . S
Eu252 N290 2.609 . S
Eu252 O296 2.558 1_545 S
Eu252 O297 2.612 . S
Eu252 O299 2.339 . S
Eu252 O300 2.563 . S
Eu252 O301 2.419 1_545 S
Eu252 O303 2.380 . S
Eu252 O304 2.432 . S
Eu252 C316 2.848 1_545 S
C253 C256 1.429 . S
C253 C257 1.411 . S
C253 N260 1.377 . S
C254 C256 1.420 . S
C254 C258 1.423 1_655 S
C254 C266 1.392 1_655 S
C255 C257 1.420 1_455 S
C255 C258 1.351 . S
C255 H278 0.931 . S
C256 C253 1.429 . S
C256 C254 1.420 . S
C256 N264 1.362 . S
C257 C253 1.411 . S
C257 C255 1.420 1_655 S
C257 C262 1.395 . S
C258 C254 1.423 1_455 S
C258 C255 1.351 . S
C258 H270 0.930 . S
C259 C261 1.400 . S
C259 C262 1.386 . S
C259 H271 0.930 . S
N260 C253 1.377 . S
N260 C261 1.321 . S
N260 Eu263 2.609 . S
C261 C259 1.400 . S
C261 N260 1.321 . S
C261 H268 0.930 . S
C262 C257 1.395 . S
C262 C259 1.386 . S
C262 H281 0.930 . S
Eu263 N260 2.609 . S
Eu263 N264 2.657 . S
Eu263 O297 2.380 . S
Eu263 O298 2.432 . S
Eu263 O302 2.558 . S
Eu263 O303 2.612 . S
Eu263 O305 2.339 . S
Eu263 O306 2.563 . S
Eu263 O307 2.419 . S
Eu263 C327 2.848 . S
N264 C256 1.362 . S
N264 Eu263 2.657 . S
N264 C265 1.334 . S
C265 N264 1.334 . S
C265 C267 1.413 . S
C265 H272 0.929 . S
C266 C254 1.392 1_455 S
C266 C267 1.367 1_455 S
C266 H274 0.930 . S
C267 C265 1.413 . S
C267 C266 1.367 1_655 S
C267 H269 0.930 . S
H268 C261 0.930 . S
H269 C267 0.930 . S
H270 C258 0.930 . S
H271 C259 0.930 . S
H272 C265 0.929 . S
H273 C287 0.930 . S
H274 C266 0.930 . S
H275 C293 0.930 . S
H276 C284 0.929 . S
H277 C291 0.930 . S
H278 C255 0.931 . S
H279 C285 0.930 . S
H280 C318 0.930 . S
H281 C262 0.930 . S
H282 C317 0.931 . S
N283 Eu252 2.657 . S
N283 C284 1.334 . S
N283 C288 1.362 . S
C284 H276 0.929 . S
C284 N283 1.334 . S
C284 C287 1.413 . S
C285 H279 0.930 . S
C285 C286 1.392 . S
C285 C287 1.367 . S
C286 C285 1.392 . S
C286 C288 1.420 . S
C286 C318 1.423 . S
C287 H273 0.930 . S
C287 C284 1.413 . S
C287 C285 1.367 . S
C288 N283 1.362 . S
C288 C286 1.420 . S
C288 C292 1.429 . S
H289 C294 0.930 1_565 S
N290 Eu252 2.609 . S
N290 C292 1.377 . S
N290 C293 1.321 . S
C291 H277 0.930 . S
C291 C293 1.400 . S
C291 C294 1.386 . S
C292 C288 1.429 . S
C292 N290 1.377 . S
C292 C295 1.411 . S
C293 H275 0.930 . S
C293 N290 1.321 . S
C293 C291 1.400 . S
C294 H289 0.930 1_545 S
C294 C291 1.386 . S
C294 C295 1.395 . S
C295 C292 1.411 . S
C295 C294 1.395 . S
C295 C317 1.420 . S
O296 Eu252 2.558 1_565 S
O296 C316 1.257 . S
O297 Eu252 2.612 . S
O297 Eu263 2.380 . S
O297 C308 1.276 . S
O298 Eu263 2.432 . S
O298 C315 1.264 . S
O299 Eu252 2.339 . S
O299 C315 1.254 . S
O300 Eu252 2.563 . S
O300 C308 1.235 . S
O301 Eu252 2.419 1_565 S
O301 C316 1.249 . S
O302 Eu263 2.558 . S
O302 C327 1.257 . S
O303 Eu252 2.380 . S
O303 Eu263 2.612 . S
O303 C319 1.276 . S
O304 Eu252 2.432 . S
O304 C326 1.264 . S
O305 Eu263 2.339 . S
O305 C326 1.254 . S
O306 Eu263 2.563 . S
O306 C319 1.235 . S
O307 Eu263 2.419 . S
O307 C327 1.249 . S
C308 O297 1.276 . S
C308 O300 1.235 . S
C309 C311 1.393 . S
C309 C313 1.395 . S
C309 C316 1.492 . S
C310 C311 1.392 . S
C310 C312 1.386 . S
C311 C309 1.393 . S
C311 C310 1.392 . S
C311 H328 0.930 . S
C312 C310 1.386 . S
C312 C314 1.395 . S
C312 H329 0.930 . S
C313 C309 1.395 . S
C313 C314 1.379 . S
C313 H330 0.930 . S
C314 C312 1.395 . S
C314 C313 1.379 . S
C314 H331 0.930 . S
C315 O298 1.264 . S
C315 O299 1.254 . S
C316 Eu252 2.848 1_565 S
C316 O296 1.257 . S
C316 O301 1.249 . S
C316 C309 1.492 . S
C317 H282 0.931 . S
C317 C295 1.420 . S
C317 C318 1.351 . S
C318 H280 0.930 . S
C318 C286 1.423 . S
C318 C317 1.351 . S
C319 O303 1.276 . S
C319 O306 1.235 . S
C320 C321 1.393 . S
C320 C324 1.395 . S
C320 C327 1.492 . S
C321 C320 1.393 . S
C321 C322 1.392 . S
C321 H332 0.930 . S
C322 C321 1.392 . S
C322 C323 1.386 . S
C323 C322 1.386 . S
C323 C325 1.395 . S
C323 H333 0.930 . S
C324 C320 1.395 . S
C324 C325 1.379 . S
C324 H334 0.930 . S
C325 C323 1.395 . S
C325 C324 1.379 . S
C325 H335 0.930 . S
C326 O304 1.264 . S
C326 O305 1.254 . S
C327 Eu263 2.848 . S
C327 O302 1.257 . S
C327 O307 1.249 . S
C327 C320 1.492 . S
H328 C311 0.930 . S
H329 C312 0.930 . S
H330 C313 0.930 . S
H331 C314 0.930 . S
H332 C321 0.930 . S
H333 C323 0.930 . S
H334 C324 0.930 . S
H335 C325 0.930 . S
Eu336 N367 2.657 . S
Eu336 N374 2.609 . S
Eu336 O380 2.558 . S
Eu336 O381 2.612 . S
Eu336 O383 2.339 . S
Eu336 O384 2.563 . S
Eu336 O385 2.419 . S
Eu336 O387 2.380 . S
Eu336 O388 2.432 . S
Eu336 C400 2.848 . S
C337 C340 1.429 . S
C337 C341 1.411 . S
C337 N344 1.377 . S
C338 C340 1.420 . S
C338 C342 1.423 . S
C338 C350 1.392 . S
C339 C341 1.420 . S
C339 C342 1.351 . S
C339 H362 0.931 . S
C340 C337 1.429 . S
C340 C338 1.420 . S
C340 N348 1.362 . S
C341 C337 1.411 . S
C341 C339 1.420 . S
C341 C346 1.395 . S
C342 C338 1.423 . S
C342 C339 1.351 . S
C342 H354 0.930 . S
C343 C345 1.400 . S
C343 C346 1.386 . S
C343 H355 0.930 . S
N344 C337 1.377 . S
N344 C345 1.321 . S
N344 Eu347 2.609 . S
C345 C343 1.400 . S
C345 N344 1.321 . S
C345 H352 0.930 . S
C346 C341 1.395 . S
C346 C343 1.386 . S
C346 H365 0.930 1_565 S
Eu347 N344 2.609 . S
Eu347 N348 2.657 . S
Eu347 O381 2.380 . S
Eu347 O382 2.432 . S
Eu347 O386 2.558 1_565 S
Eu347 O387 2.612 . S
Eu347 O389 2.339 . S
Eu347 O390 2.563 . S
Eu347 O391 2.419 1_565 S
Eu347 C411 2.848 1_565 S
N348 C340 1.362 . S
N348 Eu347 2.657 . S
N348 C349 1.334 . S
C349 N348 1.334 . S
C349 C351 1.413 . S
C349 H356 0.929 . S
C350 C338 1.392 . S
C350 C351 1.367 . S
C350 H358 0.930 . S
C351 C349 1.413 . S
C351 C350 1.367 . S
C351 H353 0.930 . S
H352 C345 0.930 . S
H353 C351 0.930 . S
H354 C342 0.930 . S
H355 C343 0.930 . S
H356 C349 0.929 . S
H357 C371 0.930 . S
H358 C350 0.930 . S
H359 C377 0.930 . S
H360 C368 0.929 . S
H361 C375 0.930 . S
H362 C339 0.931 . S
H363 C369 0.930 . S
H364 C402 0.930 . S
H365 C346 0.930 1_545 S
H366 C401 0.931 . S
N367 Eu336 2.657 . S
N367 C368 1.334 . S
N367 C372 1.362 . S
C368 H360 0.929 . S
C368 N367 1.334 . S
C368 C371 1.413 . S
C369 H363 0.930 . S
C369 C370 1.392 1_455 S
C369 C371 1.367 1_455 S
C370 C369 1.392 1_655 S
C370 C372 1.420 . S
C370 C402 1.423 1_655 S
C371 H357 0.930 . S
C371 C368 1.413 . S
C371 C369 1.367 1_655 S
C372 N367 1.362 . S
C372 C370 1.420 . S
C372 C376 1.429 . S
H373 C378 0.930 . S
N374 Eu336 2.609 . S
N374 C376 1.377 . S
N374 C377 1.321 . S
C375 H361 0.930 . S
C375 C377 1.400 . S
C375 C378 1.386 . S
C376 C372 1.429 . S
C376 N374 1.377 . S
C376 C379 1.411 . S
C377 H359 0.930 . S
C377 N374 1.321 . S
C377 C375 1.400 . S
C378 H373 0.930 . S
C378 C375 1.386 . S
C378 C379 1.395 . S
C379 C376 1.411 . S
C379 C378 1.395 . S
C379 C401 1.420 1_655 S
O380 Eu336 2.558 . S
O380 C400 1.257 . S
O381 Eu336 2.612 . S
O381 Eu347 2.380 . S
O381 C392 1.276 . S
O382 Eu347 2.432 . S
O382 C399 1.264 . S
O383 Eu336 2.339 . S
O383 C399 1.254 . S
O384 Eu336 2.563 . S
O384 C392 1.235 . S
O385 Eu336 2.419 . S
O385 C400 1.249 . S
O386 Eu347 2.558 1_545 S
O386 C411 1.257 . S
O387 Eu336 2.380 . S
O387 Eu347 2.612 . S
O387 C403 1.276 . S
O388 Eu336 2.432 . S
O388 C410 1.264 . S
O389 Eu347 2.339 . S
O389 C410 1.254 . S
O390 Eu347 2.563 . S
O390 C403 1.235 . S
O391 Eu347 2.419 1_545 S
O391 C411 1.249 . S
C392 O381 1.276 . S
C392 O384 1.235 . S
C393 C395 1.393 . S
C393 C397 1.395 . S
C393 C400 1.492 . S
C394 C395 1.392 . S
C394 C396 1.386 . S
C395 C393 1.393 . S
C395 C394 1.392 . S
C395 H412 0.930 . S
C396 C394 1.386 . S
C396 C398 1.395 . S
C396 H413 0.930 . S
C397 C393 1.395 . S
C397 C398 1.379 . S
C397 H414 0.930 . S
C398 C396 1.395 . S
C398 C397 1.379 . S
C398 H415 0.930 . S
C399 O382 1.264 . S
C399 O383 1.254 . S
C400 Eu336 2.848 . S
C400 O380 1.257 . S
C400 O385 1.249 . S
C400 C393 1.492 . S
C401 H366 0.931 . S
C401 C379 1.420 1_455 S
C401 C402 1.351 . S
C402 H364 0.930 . S
C402 C370 1.423 1_455 S
C402 C401 1.351 . S
C403 O387 1.276 . S
C403 O390 1.235 . S
C404 C405 1.393 . S
C404 C408 1.395 . S
C404 C411 1.492 . S
C405 C404 1.393 . S
C405 C406 1.392 . S
C405 H416 0.930 . S
C406 C405 1.392 . S
C406 C407 1.386 . S
C407 C406 1.386 . S
C407 C409 1.395 . S
C407 H417 0.930 . S
C408 C404 1.395 . S
C408 C409 1.379 . S
C408 H418 0.930 . S
C409 C407 1.395 . S
C409 C408 1.379 . S
C409 H419 0.930 . S
C410 O388 1.264 . S
C410 O389 1.254 . S
C411 Eu347 2.848 1_545 S
C411 O386 1.257 . S
C411 O391 1.249 . S
C411 C404 1.492 . S
H412 C395 0.930 . S
H413 C396 0.930 . S
H414 C397 0.930 . S
H415 C398 0.930 . S
H416 C405 0.930 . S
H417 C407 0.930 . S
H418 C408 0.930 . S
H419 C409 0.930 . S
Eu420 N451 2.657 . S
Eu420 N458 2.609 . S
Eu420 O464 2.558 . S
Eu420 O465 2.612 . S
Eu420 O467 2.339 . S
Eu420 O468 2.563 . S
Eu420 O469 2.419 . S
Eu420 O471 2.380 . S
Eu420 O472 2.432 . S
Eu420 C484 2.848 . S
C421 C424 1.429 . S
C421 C425 1.411 . S
C421 N428 1.377 . S
C422 C424 1.420 . S
C422 C426 1.423 . S
C422 C434 1.392 . S
C423 C425 1.420 . S
C423 C426 1.351 . S
C423 H446 0.931 . S
C424 C421 1.429 . S
C424 C422 1.420 . S
C424 N432 1.362 . S
C425 C421 1.411 . S
C425 C423 1.420 . S
C425 C430 1.395 . S
C426 C422 1.423 . S
C426 C423 1.351 . S
C426 H438 0.930 . S
C427 C429 1.400 . S
C427 C430 1.386 . S
C427 H439 0.930 . S
N428 C421 1.377 . S
N428 C429 1.321 . S
N428 Eu431 2.609 . S
C429 C427 1.400 . S
C429 N428 1.321 . S
C429 H436 0.930 . S
C430 C425 1.395 . S
C430 C427 1.386 . S
C430 H449 0.930 1_545 S
Eu431 N428 2.609 . S
Eu431 N432 2.657 . S
Eu431 O465 2.380 . S
Eu431 O466 2.432 . S
Eu431 O470 2.558 1_545 S
Eu431 O471 2.612 . S
Eu431 O473 2.339 . S
Eu431 O474 2.563 . S
Eu431 O475 2.419 1_545 S
Eu431 C495 2.848 1_545 S
N432 C424 1.362 . S
N432 Eu431 2.657 . S
N432 C433 1.334 . S
C433 N432 1.334 . S
C433 C435 1.413 . S
C433 H440 0.929 . S
C434 C422 1.392 . S
C434 C435 1.367 . S
C434 H442 0.930 . S
C435 C433 1.413 . S
C435 C434 1.367 . S
C435 H437 0.930 . S
H436 C429 0.930 . S
H437 C435 0.930 . S
H438 C426 0.930 . S
H439 C427 0.930 . S
H440 C433 0.929 . S
H441 C455 0.930 . S
H442 C434 0.930 . S
H443 C461 0.930 . S
H444 C452 0.929 . S
H445 C459 0.930 . S
H446 C423 0.931 . S
H447 C453 0.930 . S
H448 C486 0.930 . S
H449 C430 0.930 1_565 S
H450 C485 0.931 . S
N451 Eu420 2.657 . S
N451 C452 1.334 . S
N451 C456 1.362 . S
C452 H444 0.929 . S
C452 N451 1.334 . S
C452 C455 1.413 . S
C453 H447 0.930 . S
C453 C454 1.392 1_655 S
C453 C455 1.367 1_655 S
C454 C453 1.392 1_455 S
C454 C456 1.420 . S
C454 C486 1.423 1_455 S
C455 H441 0.930 . S
C455 C452 1.413 . S
C455 C453 1.367 1_455 S
C456 N451 1.362 . S
C456 C454 1.420 . S
C456 C460 1.429 . S
H457 C462 0.930 . S
N458 Eu420 2.609 . S
N458 C460 1.377 . S
N458 C461 1.321 . S
C459 H445 0.930 . S
C459 C461 1.400 . S
C459 C462 1.386 . S
C460 C456 1.429 . S
C460 N458 1.377 . S
C460 C463 1.411 . S
C461 H443 0.930 . S
C461 N458 1.321 . S
C461 C459 1.400 . S
C462 H457 0.930 . S
C462 C459 1.386 . S
C462 C463 1.395 . S
C463 C460 1.411 . S
C463 C462 1.395 . S
C463 C485 1.420 1_455 S
O464 Eu420 2.558 . S
O464 C484 1.257 . S
O465 Eu420 2.612 . S
O465 Eu431 2.380 . S
O465 C476 1.276 . S
O466 Eu431 2.432 . S
O466 C483 1.264 . S
O467 Eu420 2.339 . S
O467 C483 1.254 . S
O468 Eu420 2.563 . S
O468 C476 1.235 . S
O469 Eu420 2.419 . S
O469 C484 1.249 . S
O470 Eu431 2.558 1_565 S
O470 C495 1.257 . S
O471 Eu420 2.380 . S
O471 Eu431 2.612 . S
O471 C487 1.276 . S
O472 Eu420 2.432 . S
O472 C494 1.264 . S
O473 Eu431 2.339 . S
O473 C494 1.254 . S
O474 Eu431 2.563 . S
O474 C487 1.235 . S
O475 Eu431 2.419 1_565 S
O475 C495 1.249 . S
C476 O465 1.276 . S
C476 O468 1.235 . S
C477 C479 1.393 . S
C477 C481 1.395 . S
C477 C484 1.492 . S
C478 C479 1.392 . S
C478 C480 1.386 . S
C479 C477 1.393 . S
C479 C478 1.392 . S
C479 H496 0.930 . S
C480 C478 1.386 . S
C480 C482 1.395 . S
C480 H497 0.930 . S
C481 C477 1.395 . S
C481 C482 1.379 . S
C481 H498 0.930 . S
C482 C480 1.395 . S
C482 C481 1.379 . S
C482 H499 0.930 . S
C483 O466 1.264 . S
C483 O467 1.254 . S
C484 Eu420 2.848 . S
C484 O464 1.257 . S
C484 O469 1.249 . S
C484 C477 1.492 . S
C485 H450 0.931 . S
C485 C463 1.420 1_655 S
C485 C486 1.351 . S
C486 H448 0.930 . S
C486 C454 1.423 1_655 S
C486 C485 1.351 . S
C487 O471 1.276 . S
C487 O474 1.235 . S
C488 C489 1.393 . S
C488 C492 1.395 . S
C488 C495 1.492 . S
C489 C488 1.393 . S
C489 C490 1.392 . S
C489 H500 0.930 . S
C490 C489 1.392 . S
C490 C491 1.386 . S
C491 C490 1.386 . S
C491 C493 1.395 . S
C491 H501 0.930 . S
C492 C488 1.395 . S
C492 C493 1.379 . S
C492 H502 0.930 . S
C493 C491 1.395 . S
C493 C492 1.379 . S
C493 H503 0.930 . S
C494 O472 1.264 . S
C494 O473 1.254 . S
C495 Eu431 2.848 1_565 S
C495 O470 1.257 . S
C495 O475 1.249 . S
C495 C488 1.492 . S
H496 C479 0.930 . S
H497 C480 0.930 . S
H498 C481 0.930 . S
H499 C482 0.930 . S
H500 C489 0.930 . S
H501 C491 0.930 . S
H502 C492 0.930 . S
H503 C493 0.930 . S
Eu504 N535 2.657 . S
Eu504 N542 2.609 . S
Eu504 O548 2.558 . S
Eu504 O549 2.612 . S
Eu504 O551 2.339 . S
Eu504 O552 2.563 . S
Eu504 O553 2.419 . S
Eu504 O555 2.380 . S
Eu504 O556 2.432 . S
Eu504 C568 2.848 . S
C505 C508 1.429 . S
C505 C509 1.411 . S
C505 N512 1.377 . S
C506 C508 1.420 . S
C506 C510 1.423 . S
C506 C518 1.392 . S
C507 C509 1.420 . S
C507 C510 1.351 . S
C507 H530 0.931 . S
C508 C505 1.429 . S
C508 C506 1.420 . S
C508 N516 1.362 . S
C509 C505 1.411 . S
C509 C507 1.420 . S
C509 C514 1.395 . S
C510 C506 1.423 . S
C510 C507 1.351 . S
C510 H522 0.930 . S
C511 C513 1.400 . S
C511 C514 1.386 . S
C511 H523 0.930 . S
N512 C505 1.377 . S
N512 C513 1.321 . S
N512 Eu515 2.609 . S
C513 C511 1.400 . S
C513 N512 1.321 . S
C513 H520 0.930 . S
C514 C509 1.395 . S
C514 C511 1.386 . S
C514 H533 0.930 1_545 S
Eu515 N512 2.609 . S
Eu515 N516 2.657 . S
Eu515 O549 2.380 . S
Eu515 O550 2.432 . S
Eu515 O554 2.558 1_545 S
Eu515 O555 2.612 . S
Eu515 O557 2.339 . S
Eu515 O558 2.563 . S
Eu515 O559 2.419 1_545 S
Eu515 C579 2.848 1_545 S
N516 C508 1.362 . S
N516 Eu515 2.657 . S
N516 C517 1.334 . S
C517 N516 1.334 . S
C517 C519 1.413 . S
C517 H524 0.929 . S
C518 C506 1.392 . S
C518 C519 1.367 . S
C518 H526 0.930 . S
C519 C517 1.413 . S
C519 C518 1.367 . S
C519 H521 0.930 . S
H520 C513 0.930 . S
H521 C519 0.930 . S
H522 C510 0.930 . S
H523 C511 0.930 . S
H524 C517 0.929 . S
H525 C539 0.930 . S
H526 C518 0.930 . S
H527 C545 0.930 . S
H528 C536 0.929 . S
H529 C543 0.930 . S
H530 C507 0.931 . S
H531 C537 0.930 . S
H532 C570 0.930 . S
H533 C514 0.930 1_565 S
H534 C569 0.931 . S
N535 Eu504 2.657 . S
N535 C536 1.334 . S
N535 C540 1.362 . S
C536 H528 0.929 . S
C536 N535 1.334 . S
C536 C539 1.413 . S
C537 H531 0.930 . S
C537 C538 1.392 1_455 S
C537 C539 1.367 1_455 S
C538 C537 1.392 1_655 S
C538 C540 1.420 . S
C538 C570 1.423 1_655 S
C539 H525 0.930 . S
C539 C536 1.413 . S
C539 C537 1.367 1_655 S
C540 N535 1.362 . S
C540 C538 1.420 . S
C540 C544 1.429 . S
H541 C546 0.930 . S
N542 Eu504 2.609 . S
N542 C544 1.377 . S
N542 C545 1.321 . S
C543 H529 0.930 . S
C543 C545 1.400 . S
C543 C546 1.386 . S
C544 C540 1.429 . S
C544 N542 1.377 . S
C544 C547 1.411 . S
C545 H527 0.930 . S
C545 N542 1.321 . S
C545 C543 1.400 . S
C546 H541 0.930 . S
C546 C543 1.386 . S
C546 C547 1.395 . S
C547 C544 1.411 . S
C547 C546 1.395 . S
C547 C569 1.420 1_655 S
O548 Eu504 2.558 . S
O548 C568 1.257 . S
O549 Eu504 2.612 . S
O549 Eu515 2.380 . S
O549 C560 1.276 . S
O550 Eu515 2.432 . S
O550 C567 1.264 . S
O551 Eu504 2.339 . S
O551 C567 1.254 . S
O552 Eu504 2.563 . S
O552 C560 1.235 . S
O553 Eu504 2.419 . S
O553 C568 1.249 . S
O554 Eu515 2.558 1_565 S
O554 C579 1.257 . S
O555 Eu504 2.380 . S
O555 Eu515 2.612 . S
O555 C571 1.276 . S
O556 Eu504 2.432 . S
O556 C578 1.264 . S
O557 Eu515 2.339 . S
O557 C578 1.254 . S
O558 Eu515 2.563 . S
O558 C571 1.235 . S
O559 Eu515 2.419 1_565 S
O559 C579 1.249 . S
C560 O549 1.276 . S
C560 O552 1.235 . S
C561 C563 1.393 . S
C561 C565 1.395 . S
C561 C568 1.492 . S
C562 C563 1.392 . S
C562 C564 1.386 . S
C563 C561 1.393 . S
C563 C562 1.392 . S
C563 H580 0.930 . S
C564 C562 1.386 . S
C564 C566 1.395 . S
C564 H581 0.930 . S
C565 C561 1.395 . S
C565 C566 1.379 . S
C565 H582 0.930 . S
C566 C564 1.395 . S
C566 C565 1.379 . S
C566 H583 0.930 . S
C567 O550 1.264 . S
C567 O551 1.254 . S
C568 Eu504 2.848 . S
C568 O548 1.257 . S
C568 O553 1.249 . S
C568 C561 1.492 . S
C569 H534 0.931 . S
C569 C547 1.420 1_455 S
C569 C570 1.351 . S
C570 H532 0.930 . S
C570 C538 1.423 1_455 S
C570 C569 1.351 . S
C571 O555 1.276 . S
C571 O558 1.235 . S
C572 C573 1.393 . S
C572 C576 1.395 . S
C572 C579 1.492 . S
C573 C572 1.393 . S
C573 C574 1.392 . S
C573 H584 0.930 . S
C574 C573 1.392 . S
C574 C575 1.386 . S
C575 C574 1.386 . S
C575 C577 1.395 . S
C575 H585 0.930 . S
C576 C572 1.395 . S
C576 C577 1.379 . S
C576 H586 0.930 . S
C577 C575 1.395 . S
C577 C576 1.379 . S
C577 H587 0.930 . S
C578 O556 1.264 . S
C578 O557 1.254 . S
C579 Eu515 2.848 1_565 S
C579 O554 1.257 . S
C579 O559 1.249 . S
C579 C572 1.492 . S
H580 C563 0.930 . S
H581 C564 0.930 . S
H582 C565 0.930 . S
H583 C566 0.930 . S
H584 C573 0.930 . S
H585 C575 0.930 . S
H586 C576 0.930 . S
H587 C577 0.930 . S
Eu588 N619 2.657 . S
Eu588 N626 2.609 . S
Eu588 O632 2.558 . S
Eu588 O633 2.612 . S
Eu588 O635 2.339 . S
Eu588 O636 2.563 . S
Eu588 O637 2.419 . S
Eu588 O639 2.380 . S
Eu588 O640 2.432 . S
Eu588 C652 2.848 . S
C589 C592 1.429 . S
C589 C593 1.411 . S
C589 N596 1.377 . S
C590 C592 1.420 . S
C590 C594 1.423 . S
C590 C602 1.392 . S
C591 C593 1.420 . S
C591 C594 1.351 . S
C591 H614 0.931 . S
C592 C589 1.429 . S
C592 C590 1.420 . S
C592 N600 1.362 . S
C593 C589 1.411 . S
C593 C591 1.420 . S
C593 C598 1.395 . S
C594 C590 1.423 . S
C594 C591 1.351 . S
C594 H606 0.930 . S
C595 C597 1.400 . S
C595 C598 1.386 . S
C595 H607 0.930 . S
N596 C589 1.377 . S
N596 C597 1.321 . S
N596 Eu599 2.609 . S
C597 C595 1.400 . S
C597 N596 1.321 . S
C597 H604 0.930 . S
C598 C593 1.395 . S
C598 C595 1.386 . S
C598 H617 0.930 1_565 S
Eu599 N596 2.609 . S
Eu599 N600 2.657 . S
Eu599 O633 2.380 . S
Eu599 O634 2.432 . S
Eu599 O638 2.558 1_565 S
Eu599 O639 2.612 . S
Eu599 O641 2.339 . S
Eu599 O642 2.563 . S
Eu599 O643 2.419 1_565 S
Eu599 C663 2.848 1_565 S
N600 C592 1.362 . S
N600 Eu599 2.657 . S
N600 C601 1.334 . S
C601 N600 1.334 . S
C601 C603 1.413 . S
C601 H608 0.929 . S
C602 C590 1.392 . S
C602 C603 1.367 . S
C602 H610 0.930 . S
C603 C601 1.413 . S
C603 C602 1.367 . S
C603 H605 0.930 . S
H604 C597 0.930 . S
H605 C603 0.930 . S
H606 C594 0.930 . S
H607 C595 0.930 . S
H608 C601 0.929 . S
H609 C623 0.930 . S
H610 C602 0.930 . S
H611 C629 0.930 . S
H612 C620 0.929 . S
H613 C627 0.930 . S
H614 C591 0.931 . S
H615 C621 0.930 . S
H616 C654 0.930 . S
H617 C598 0.930 1_545 S
H618 C653 0.931 . S
N619 Eu588 2.657 . S
N619 C620 1.334 . S
N619 C624 1.362 . S
C620 H612 0.929 . S
C620 N619 1.334 . S
C620 C623 1.413 . S
C621 H615 0.930 . S
C621 C622 1.392 1_655 S
C621 C623 1.367 1_655 S
C622 C621 1.392 1_455 S
C622 C624 1.420 . S
C622 C654 1.423 1_455 S
C623 H609 0.930 . S
C623 C620 1.413 . S
C623 C621 1.367 1_455 S
C624 N619 1.362 . S
C624 C622 1.420 . S
C624 C628 1.429 . S
H625 C630 0.930 . S
N626 Eu588 2.609 . S
N626 C628 1.377 . S
N626 C629 1.321 . S
C627 H613 0.930 . S
C627 C629 1.400 . S
C627 C630 1.386 . S
C628 C624 1.429 . S
C628 N626 1.377 . S
C628 C631 1.411 . S
C629 H611 0.930 . S
C629 N626 1.321 . S
C629 C627 1.400 . S
C630 H625 0.930 . S
C630 C627 1.386 . S
C630 C631 1.395 . S
C631 C628 1.411 . S
C631 C630 1.395 . S
C631 C653 1.420 1_455 S
O632 Eu588 2.558 . S
O632 C652 1.257 . S
O633 Eu588 2.612 . S
O633 Eu599 2.380 . S
O633 C644 1.276 . S
O634 Eu599 2.432 . S
O634 C651 1.264 . S
O635 Eu588 2.339 . S
O635 C651 1.254 . S
O636 Eu588 2.563 . S
O636 C644 1.235 . S
O637 Eu588 2.419 . S
O637 C652 1.249 . S
O638 Eu599 2.558 1_545 S
O638 C663 1.257 . S
O639 Eu588 2.380 . S
O639 Eu599 2.612 . S
O639 C655 1.276 . S
O640 Eu588 2.432 . S
O640 C662 1.264 . S
O641 Eu599 2.339 . S
O641 C662 1.254 . S
O642 Eu599 2.563 . S
O642 C655 1.235 . S
O643 Eu599 2.419 1_545 S
O643 C663 1.249 . S
C644 O633 1.276 . S
C644 O636 1.235 . S
C645 C647 1.393 . S
C645 C649 1.395 . S
C645 C652 1.492 . S
C646 C647 1.392 . S
C646 C648 1.386 . S
C647 C645 1.393 . S
C647 C646 1.392 . S
C647 H664 0.930 . S
C648 C646 1.386 . S
C648 C650 1.395 . S
C648 H665 0.930 . S
C649 C645 1.395 . S
C649 C650 1.379 . S
C649 H666 0.930 . S
C650 C648 1.395 . S
C650 C649 1.379 . S
C650 H667 0.930 . S
C651 O634 1.264 . S
C651 O635 1.254 . S
C652 Eu588 2.848 . S
C652 O632 1.257 . S
C652 O637 1.249 . S
C652 C645 1.492 . S
C653 H618 0.931 . S
C653 C631 1.420 1_655 S
C653 C654 1.351 . S
C654 H616 0.930 . S
C654 C622 1.423 1_655 S
C654 C653 1.351 . S
C655 O639 1.276 . S
C655 O642 1.235 . S
C656 C657 1.393 . S
C656 C660 1.395 . S
C656 C663 1.492 . S
C657 C656 1.393 . S
C657 C658 1.392 . S
C657 H668 0.930 . S
C658 C657 1.392 . S
C658 C659 1.386 . S
C659 C658 1.386 . S
C659 C661 1.395 . S
C659 H669 0.930 . S
C660 C656 1.395 . S
C660 C661 1.379 . S
C660 H670 0.930 . S
C661 C659 1.395 . S
C661 C660 1.379 . S
C661 H671 0.930 . S
C662 O640 1.264 . S
C662 O641 1.254 . S
C663 Eu599 2.848 1_545 S
C663 O638 1.257 . S
C663 O643 1.249 . S
C663 C656 1.492 . S
H664 C647 0.930 . S
H665 C648 0.930 . S
H666 C649 0.930 . S
H667 C650 0.930 . S
H668 C657 0.930 . S
H669 C659 0.930 . S
H670 C660 0.930 . S
H671 C661 0.930 . S
Eu672 N703 2.657 . S
Eu672 N710 2.609 . S
Eu672 O716 2.558 . S
Eu672 O717 2.612 . S
Eu672 O719 2.339 . S
Eu672 O720 2.563 . S
Eu672 O721 2.419 . S
Eu672 O723 2.380 . S
Eu672 O724 2.432 . S
Eu672 C736 2.848 . S
C673 C676 1.429 . S
C673 C677 1.411 . S
C673 N680 1.377 . S
C674 C676 1.420 . S
C674 C678 1.423 . S
C674 C686 1.392 . S
C675 C677 1.420 . S
C675 C678 1.351 . S
C675 H698 0.931 . S
C676 C673 1.429 . S
C676 C674 1.420 . S
C676 N684 1.362 . S
C677 C673 1.411 . S
C677 C675 1.420 . S
C677 C682 1.395 . S
C678 C674 1.423 . S
C678 C675 1.351 . S
C678 H690 0.930 . S
C679 C681 1.400 . S
C679 C682 1.386 . S
C679 H691 0.930 . S
N680 C673 1.377 . S
N680 C681 1.321 . S
N680 Eu683 2.609 . S
C681 C679 1.400 . S
C681 N680 1.321 . S
C681 H688 0.930 . S
C682 C677 1.395 . S
C682 C679 1.386 . S
C682 H701 0.930 . S
Eu683 N680 2.609 . S
Eu683 N684 2.657 . S
Eu683 O717 2.380 . S
Eu683 O718 2.432 . S
Eu683 O722 2.558 . S
Eu683 O723 2.612 . S
Eu683 O725 2.339 . S
Eu683 O726 2.563 . S
Eu683 O727 2.419 . S
Eu683 C747 2.848 . S
N684 C676 1.362 . S
N684 Eu683 2.657 . S
N684 C685 1.334 . S
C685 N684 1.334 . S
C685 C687 1.413 . S
C685 H692 0.929 . S
C686 C674 1.392 . S
C686 C687 1.367 . S
C686 H694 0.930 . S
C687 C685 1.413 . S
C687 C686 1.367 . S
C687 H689 0.930 . S
H688 C681 0.930 . S
H689 C687 0.930 . S
H690 C678 0.930 . S
H691 C679 0.930 . S
H692 C685 0.929 . S
H693 C707 0.930 . S
H694 C686 0.930 . S
H695 C713 0.930 . S
H696 C704 0.929 . S
H697 C711 0.930 . S
H698 C675 0.931 . S
H699 C705 0.930 . S
H700 C738 0.930 . S
H701 C682 0.930 . S
H702 C737 0.931 . S
N703 Eu672 2.657 . S
N703 C704 1.334 . S
N703 C708 1.362 . S
C704 H696 0.929 . S
C704 N703 1.334 . S
C704 C707 1.413 . S
C705 H699 0.930 . S
C705 C706 1.392 . S
C705 C707 1.367 . S
C706 C705 1.392 . S
C706 C708 1.420 . S
C706 C738 1.423 . S
C707 H693 0.930 . S
C707 C704 1.413 . S
C707 C705 1.367 . S
C708 N703 1.362 . S
C708 C706 1.420 . S
C708 C712 1.429 . S
H709 C714 0.930 . S
N710 Eu672 2.609 . S
N710 C712 1.377 . S
N710 C713 1.321 . S
C711 H697 0.930 . S
C711 C713 1.400 . S
C711 C714 1.386 . S
C712 C708 1.429 . S
C712 N710 1.377 . S
C712 C715 1.411 . S
C713 H695 0.930 . S
C713 N710 1.321 . S
C713 C711 1.400 . S
C714 H709 0.930 . S
C714 C711 1.386 . S
C714 C715 1.395 . S
C715 C712 1.411 . S
C715 C714 1.395 . S
C715 C737 1.420 . S
O716 Eu672 2.558 . S
O716 C736 1.257 . S
O717 Eu672 2.612 . S
O717 Eu683 2.380 . S
O717 C728 1.276 . S
O718 Eu683 2.432 . S
O718 C735 1.264 . S
O719 Eu672 2.339 . S
O719 C735 1.254 . S
O720 Eu672 2.563 . S
O720 C728 1.235 . S
O721 Eu672 2.419 . S
O721 C736 1.249 . S
O722 Eu683 2.558 . S
O722 C747 1.257 . S
O723 Eu672 2.380 . S
O723 Eu683 2.612 . S
O723 C739 1.276 . S
O724 Eu672 2.432 . S
O724 C746 1.264 . S
O725 Eu683 2.339 . S
O725 C746 1.254 . S
O726 Eu683 2.563 . S
O726 C739 1.235 . S
O727 Eu683 2.419 . S
O727 C747 1.249 . S
C728 O717 1.276 . S
C728 O720 1.235 . S
C729 C731 1.393 . S
C729 C733 1.395 . S
C729 C736 1.492 . S
C730 C731 1.392 . S
C730 C732 1.386 . S
C731 C729 1.393 . S
C731 C730 1.392 . S
C731 H748 0.930 . S
C732 C730 1.386 . S
C732 C734 1.395 . S
C732 H749 0.930 . S
C733 C729 1.395 . S
C733 C734 1.379 . S
C733 H750 0.930 . S
C734 C732 1.395 . S
C734 C733 1.379 . S
C734 H751 0.930 . S
C735 O718 1.264 . S
C735 O719 1.254 . S
C736 Eu672 2.848 . S
C736 O716 1.257 . S
C736 O721 1.249 . S
C736 C729 1.492 . S
C737 H702 0.931 . S
C737 C715 1.420 . S
C737 C738 1.351 . S
C738 H700 0.930 . S
C738 C706 1.423 . S
C738 C737 1.351 . S
C739 O723 1.276 . S
C739 O726 1.235 . S
C740 C741 1.393 . S
C740 C744 1.395 . S
C740 C747 1.492 . S
C741 C740 1.393 . S
C741 C742 1.392 . S
C741 H752 0.930 . S
C742 C741 1.392 . S
C742 C743 1.386 . S
C743 C742 1.386 . S
C743 C745 1.395 . S
C743 H753 0.930 1_565 S
C744 C740 1.395 . S
C744 C745 1.379 . S
C744 H754 0.930 . S
C745 C743 1.395 . S
C745 C744 1.379 . S
C745 H755 0.930 . S
C746 O724 1.264 . S
C746 O725 1.254 . S
C747 Eu683 2.848 . S
C747 O722 1.257 . S
C747 O727 1.249 . S
C747 C740 1.492 . S
H748 C731 0.930 . S
H749 C732 0.930 . S
H750 C733 0.930 . S
H751 C734 0.930 . S
H752 C741 0.930 . S
H753 C743 0.930 1_545 S
H754 C744 0.930 . S
H755 C745 0.930 . S
Eu756 N787 2.657 . S
Eu756 N794 2.609 . S
Eu756 O800 2.558 . S
Eu756 O801 2.612 . S
Eu756 O803 2.339 . S
Eu756 O804 2.563 . S
Eu756 O805 2.419 . S
Eu756 O807 2.380 . S
Eu756 O808 2.432 . S
Eu756 C820 2.848 . S
C757 C760 1.429 . S
C757 C761 1.411 . S
C757 N764 1.377 . S
C758 C760 1.420 . S
C758 C762 1.423 . S
C758 C770 1.392 . S
C759 C761 1.420 . S
C759 C762 1.351 . S
C759 H782 0.931 . S
C760 C757 1.429 . S
C760 C758 1.420 . S
C760 N768 1.362 . S
C761 C757 1.411 . S
C761 C759 1.420 . S
C761 C766 1.395 . S
C762 C758 1.423 . S
C762 C759 1.351 . S
C762 H774 0.930 . S
C763 C765 1.400 . S
C763 C766 1.386 . S
C763 H775 0.930 . S
N764 C757 1.377 . S
N764 C765 1.321 . S
N764 Eu767 2.609 . S
C765 C763 1.400 . S
C765 N764 1.321 . S
C765 H772 0.930 . S
C766 C761 1.395 . S
C766 C763 1.386 . S
C766 H785 0.930 . S
Eu767 N764 2.609 . S
Eu767 N768 2.657 . S
Eu767 O801 2.380 . S
Eu767 O802 2.432 . S
Eu767 O806 2.558 . S
Eu767 O807 2.612 . S
Eu767 O809 2.339 . S
Eu767 O810 2.563 . S
Eu767 O811 2.419 . S
Eu767 C831 2.848 . S
N768 C760 1.362 . S
N768 Eu767 2.657 . S
N768 C769 1.334 . S
C769 N768 1.334 . S
C769 C771 1.413 . S
C769 H776 0.929 . S
C770 C758 1.392 . S
C770 C771 1.367 . S
C770 H778 0.930 . S
C771 C769 1.413 . S
C771 C770 1.367 . S
C771 H773 0.930 . S
H772 C765 0.930 . S
H773 C771 0.930 . S
H774 C762 0.930 . S
H775 C763 0.930 . S
H776 C769 0.929 . S
H777 C791 0.930 . S
H778 C770 0.930 . S
H779 C797 0.930 . S
H780 C788 0.929 . S
H781 C795 0.930 . S
H782 C759 0.931 . S
H783 C789 0.930 . S
H784 C822 0.930 . S
H785 C766 0.930 . S
H786 C821 0.931 . S
N787 Eu756 2.657 . S
N787 C788 1.334 . S
N787 C792 1.362 . S
C788 H780 0.929 . S
C788 N787 1.334 . S
C788 C791 1.413 . S
C789 H783 0.930 . S
C789 C790 1.392 . S
C789 C791 1.367 . S
C790 C789 1.392 . S
C790 C792 1.420 . S
C790 C822 1.423 . S
C791 H777 0.930 . S
C791 C788 1.413 . S
C791 C789 1.367 . S
C792 N787 1.362 . S
C792 C790 1.420 . S
C792 C796 1.429 . S
H793 C798 0.930 . S
N794 Eu756 2.609 . S
N794 C796 1.377 . S
N794 C797 1.321 . S
C795 H781 0.930 . S
C795 C797 1.400 . S
C795 C798 1.386 . S
C796 C792 1.429 . S
C796 N794 1.377 . S
C796 C799 1.411 . S
C797 H779 0.930 . S
C797 N794 1.321 . S
C797 C795 1.400 . S
C798 H793 0.930 . S
C798 C795 1.386 . S
C798 C799 1.395 . S
C799 C796 1.411 . S
C799 C798 1.395 . S
C799 C821 1.420 . S
O800 Eu756 2.558 . S
O800 C820 1.257 . S
O801 Eu756 2.612 . S
O801 Eu767 2.380 . S
O801 C812 1.276 . S
O802 Eu767 2.432 . S
O802 C819 1.264 . S
O803 Eu756 2.339 . S
O803 C819 1.254 . S
O804 Eu756 2.563 . S
O804 C812 1.235 . S
O805 Eu756 2.419 . S
O805 C820 1.249 . S
O806 Eu767 2.558 . S
O806 C831 1.257 . S
O807 Eu756 2.380 . S
O807 Eu767 2.612 . S
O807 C823 1.276 . S
O808 Eu756 2.432 . S
O808 C830 1.264 . S
O809 Eu767 2.339 . S
O809 C830 1.254 . S
O810 Eu767 2.563 . S
O810 C823 1.235 . S
O811 Eu767 2.419 . S
O811 C831 1.249 . S
C812 O801 1.276 . S
C812 O804 1.235 . S
C813 C815 1.393 . S
C813 C817 1.395 . S
C813 C820 1.492 . S
C814 C815 1.392 . S
C814 C816 1.386 . S
C815 C813 1.393 . S
C815 C814 1.392 . S
C815 H832 0.930 . S
C816 C814 1.386 . S
C816 C818 1.395 . S
C816 H833 0.930 . S
C817 C813 1.395 . S
C817 C818 1.379 . S
C817 H834 0.930 . S
C818 C816 1.395 . S
C818 C817 1.379 . S
C818 H835 0.930 . S
C819 O802 1.264 . S
C819 O803 1.254 . S
C820 Eu756 2.848 . S
C820 O800 1.257 . S
C820 O805 1.249 . S
C820 C813 1.492 . S
C821 H786 0.931 . S
C821 C799 1.420 . S
C821 C822 1.351 . S
C822 H784 0.930 . S
C822 C790 1.423 . S
C822 C821 1.351 . S
C823 O807 1.276 . S
C823 O810 1.235 . S
C824 C825 1.393 . S
C824 C828 1.395 . S
C824 C831 1.492 . S
C825 C824 1.393 . S
C825 C826 1.392 . S
C825 H836 0.930 . S
C826 C825 1.392 . S
C826 C827 1.386 . S
C827 C826 1.386 . S
C827 C829 1.395 . S
C827 H837 0.930 1_545 S
C828 C824 1.395 . S
C828 C829 1.379 . S
C828 H838 0.930 . S
C829 C827 1.395 . S
C829 C828 1.379 . S
C829 H839 0.930 . S
C830 O808 1.264 . S
C830 O809 1.254 . S
C831 Eu767 2.848 . S
C831 O806 1.257 . S
C831 O811 1.249 . S
C831 C824 1.492 . S
H832 C815 0.930 . S
H833 C816 0.930 . S
H834 C817 0.930 . S
H835 C818 0.930 . S
H836 C825 0.930 . S
H837 C827 0.930 1_565 S
H838 C828 0.930 . S
H839 C829 0.930 . S
Eu840 N871 2.657 . S
Eu840 N878 2.609 . S
Eu840 O884 2.558 . S
Eu840 O885 2.612 . S
Eu840 O887 2.339 . S
Eu840 O888 2.563 . S
Eu840 O889 2.419 . S
Eu840 O891 2.380 . S
Eu840 O892 2.432 . S
Eu840 C904 2.848 . S
C841 C844 1.429 . S
C841 C845 1.411 . S
C841 N848 1.377 . S
C842 C844 1.420 . S
C842 C846 1.423 . S
C842 C854 1.392 . S
C843 C845 1.420 . S
C843 C846 1.351 . S
C843 H866 0.931 . S
C844 C841 1.429 . S
C844 C842 1.420 . S
C844 N852 1.362 . S
C845 C841 1.411 . S
C845 C843 1.420 . S
C845 C850 1.395 . S
C846 C842 1.423 . S
C846 C843 1.351 . S
C846 H858 0.930 . S
C847 C849 1.400 . S
C847 C850 1.386 . S
C847 H859 0.930 . S
N848 C841 1.377 . S
N848 C849 1.321 . S
N848 Eu851 2.609 . S
C849 C847 1.400 . S
C849 N848 1.321 . S
C849 H856 0.930 . S
C850 C845 1.395 . S
C850 C847 1.386 . S
C850 H869 0.930 . S
Eu851 N848 2.609 . S
Eu851 N852 2.657 . S
Eu851 O885 2.380 . S
Eu851 O886 2.432 . S
Eu851 O890 2.558 . S
Eu851 O891 2.612 . S
Eu851 O893 2.339 . S
Eu851 O894 2.563 . S
Eu851 O895 2.419 . S
Eu851 C915 2.848 . S
N852 C844 1.362 . S
N852 Eu851 2.657 . S
N852 C853 1.334 . S
C853 N852 1.334 . S
C853 C855 1.413 . S
C853 H860 0.929 . S
C854 C842 1.392 . S
C854 C855 1.367 . S
C854 H862 0.930 . S
C855 C853 1.413 . S
C855 C854 1.367 . S
C855 H857 0.930 . S
H856 C849 0.930 . S
H857 C855 0.930 . S
H858 C846 0.930 . S
H859 C847 0.930 . S
H860 C853 0.929 . S
H861 C875 0.930 . S
H862 C854 0.930 . S
H863 C881 0.930 . S
H864 C872 0.929 . S
H865 C879 0.930 . S
H866 C843 0.931 . S
H867 C873 0.930 . S
H868 C906 0.930 . S
H869 C850 0.930 . S
H870 C905 0.931 . S
N871 Eu840 2.657 . S
N871 C872 1.334 . S
N871 C876 1.362 . S
C872 H864 0.929 . S
C872 N871 1.334 . S
C872 C875 1.413 . S
C873 H867 0.930 . S
C873 C874 1.392 . S
C873 C875 1.367 . S
C874 C873 1.392 . S
C874 C876 1.420 . S
C874 C906 1.423 . S
C875 H861 0.930 . S
C875 C872 1.413 . S
C875 C873 1.367 . S
C876 N871 1.362 . S
C876 C874 1.420 . S
C876 C880 1.429 . S
H877 C882 0.930 . S
N878 Eu840 2.609 . S
N878 C880 1.377 . S
N878 C881 1.321 . S
C879 H865 0.930 . S
C879 C881 1.400 . S
C879 C882 1.386 . S
C880 C876 1.429 . S
C880 N878 1.377 . S
C880 C883 1.411 . S
C881 H863 0.930 . S
C881 N878 1.321 . S
C881 C879 1.400 . S
C882 H877 0.930 . S
C882 C879 1.386 . S
C882 C883 1.395 . S
C883 C880 1.411 . S
C883 C882 1.395 . S
C883 C905 1.420 . S
O884 Eu840 2.558 . S
O884 C904 1.257 . S
O885 Eu840 2.612 . S
O885 Eu851 2.380 . S
O885 C896 1.276 . S
O886 Eu851 2.432 . S
O886 C903 1.264 . S
O887 Eu840 2.339 . S
O887 C903 1.254 . S
O888 Eu840 2.563 . S
O888 C896 1.235 . S
O889 Eu840 2.419 . S
O889 C904 1.249 . S
O890 Eu851 2.558 . S
O890 C915 1.257 . S
O891 Eu840 2.380 . S
O891 Eu851 2.612 . S
O891 C907 1.276 . S
O892 Eu840 2.432 . S
O892 C914 1.264 . S
O893 Eu851 2.339 . S
O893 C914 1.254 . S
O894 Eu851 2.563 . S
O894 C907 1.235 . S
O895 Eu851 2.419 . S
O895 C915 1.249 . S
C896 O885 1.276 . S
C896 O888 1.235 . S
C897 C899 1.393 . S
C897 C901 1.395 . S
C897 C904 1.492 . S
C898 C899 1.392 . S
C898 C900 1.386 . S
C899 C897 1.393 . S
C899 C898 1.392 . S
C899 H916 0.930 . S
C900 C898 1.386 . S
C900 C902 1.395 . S
C900 H917 0.930 . S
C901 C897 1.395 . S
C901 C902 1.379 . S
C901 H918 0.930 . S
C902 C900 1.395 . S
C902 C901 1.379 . S
C902 H919 0.930 . S
C903 O886 1.264 . S
C903 O887 1.254 . S
C904 Eu840 2.848 . S
C904 O884 1.257 . S
C904 O889 1.249 . S
C904 C897 1.492 . S
C905 H870 0.931 . S
C905 C883 1.420 . S
C905 C906 1.351 . S
C906 H868 0.930 . S
C906 C874 1.423 . S
C906 C905 1.351 . S
C907 O891 1.276 . S
C907 O894 1.235 . S
C908 C909 1.393 . S
C908 C912 1.395 . S
C908 C915 1.492 . S
C909 C908 1.393 . S
C909 C910 1.392 . S
C909 H920 0.930 . S
C910 C909 1.392 . S
C910 C911 1.386 . S
C911 C910 1.386 . S
C911 C913 1.395 . S
C911 H921 0.930 1_545 S
C912 C908 1.395 . S
C912 C913 1.379 . S
C912 H922 0.930 . S
C913 C911 1.395 . S
C913 C912 1.379 . S
C913 H923 0.930 . S
C914 O892 1.264 . S
C914 O893 1.254 . S
C915 Eu851 2.848 . S
C915 O890 1.257 . S
C915 O895 1.249 . S
C915 C908 1.492 . S
H916 C899 0.930 . S
H917 C900 0.930 . S
H918 C901 0.930 . S
H919 C902 0.930 . S
H920 C909 0.930 . S
H921 C911 0.930 1_565 S
H922 C912 0.930 . S
H923 C913 0.930 . S
Eu924 N955 2.657 . S
Eu924 N962 2.609 . S
Eu924 O968 2.558 . S
Eu924 O969 2.612 . S
Eu924 O971 2.339 . S
Eu924 O972 2.563 . S
Eu924 O973 2.419 . S
Eu924 O975 2.380 . S
Eu924 O976 2.432 . S
Eu924 C988 2.848 . S
C925 C928 1.429 . S
C925 C929 1.411 . S
C925 N932 1.377 . S
C926 C928 1.420 . S
C926 C930 1.423 . S
C926 C938 1.392 . S
C927 C929 1.420 . S
C927 C930 1.351 . S
C927 H950 0.931 . S
C928 C925 1.429 . S
C928 C926 1.420 . S
C928 N936 1.362 . S
C929 C925 1.411 . S
C929 C927 1.420 . S
C929 C934 1.395 . S
C930 C926 1.423 . S
C930 C927 1.351 . S
C930 H942 0.930 . S
C931 C933 1.400 . S
C931 C934 1.386 . S
C931 H943 0.930 . S
N932 C925 1.377 . S
N932 C933 1.321 . S
N932 Eu935 2.609 . S
C933 C931 1.400 . S
C933 N932 1.321 . S
C933 H940 0.930 . S
C934 C929 1.395 . S
C934 C931 1.386 . S
C934 H953 0.930 . S
Eu935 N932 2.609 . S
Eu935 N936 2.657 . S
Eu935 O969 2.380 . S
Eu935 O970 2.432 . S
Eu935 O974 2.558 . S
Eu935 O975 2.612 . S
Eu935 O977 2.339 . S
Eu935 O978 2.563 . S
Eu935 O979 2.419 . S
Eu935 C999 2.848 . S
N936 C928 1.362 . S
N936 Eu935 2.657 . S
N936 C937 1.334 . S
C937 N936 1.334 . S
C937 C939 1.413 . S
C937 H944 0.929 . S
C938 C926 1.392 . S
C938 C939 1.367 . S
C938 H946 0.930 . S
C939 C937 1.413 . S
C939 C938 1.367 . S
C939 H941 0.930 . S
H940 C933 0.930 . S
H941 C939 0.930 . S
H942 C930 0.930 . S
H943 C931 0.930 . S
H944 C937 0.929 . S
H945 C959 0.930 . S
H946 C938 0.930 . S
H947 C965 0.930 . S
H948 C956 0.929 . S
H949 C963 0.930 . S
H950 C927 0.931 . S
H951 C957 0.930 . S
H952 C990 0.930 . S
H953 C934 0.930 . S
H954 C989 0.931 . S
N955 Eu924 2.657 . S
N955 C956 1.334 . S
N955 C960 1.362 . S
C956 H948 0.929 . S
C956 N955 1.334 . S
C956 C959 1.413 . S
C957 H951 0.930 . S
C957 C958 1.392 . S
C957 C959 1.367 . S
C958 C957 1.392 . S
C958 C960 1.420 . S
C958 C990 1.423 . S
C959 H945 0.930 . S
C959 C956 1.413 . S
C959 C957 1.367 . S
C960 N955 1.362 . S
C960 C958 1.420 . S
C960 C964 1.429 . S
H961 C966 0.930 . S
N962 Eu924 2.609 . S
N962 C964 1.377 . S
N962 C965 1.321 . S
C963 H949 0.930 . S
C963 C965 1.400 . S
C963 C966 1.386 . S
C964 C960 1.429 . S
C964 N962 1.377 . S
C964 C967 1.411 . S
C965 H947 0.930 . S
C965 N962 1.321 . S
C965 C963 1.400 . S
C966 H961 0.930 . S
C966 C963 1.386 . S
C966 C967 1.395 . S
C967 C964 1.411 . S
C967 C966 1.395 . S
C967 C989 1.420 . S
O968 Eu924 2.558 . S
O968 C988 1.257 . S
O969 Eu924 2.612 . S
O969 Eu935 2.380 . S
O969 C980 1.276 . S
O970 Eu935 2.432 . S
O970 C987 1.264 . S
O971 Eu924 2.339 . S
O971 C987 1.254 . S
O972 Eu924 2.563 . S
O972 C980 1.235 . S
O973 Eu924 2.419 . S
O973 C988 1.249 . S
O974 Eu935 2.558 . S
O974 C999 1.257 . S
O975 Eu924 2.380 . S
O975 Eu935 2.612 . S
O975 C991 1.276 . S
O976 Eu924 2.432 . S
O976 C998 1.264 . S
O977 Eu935 2.339 . S
O977 C998 1.254 . S
O978 Eu935 2.563 . S
O978 C991 1.235 . S
O979 Eu935 2.419 . S
O979 C999 1.249 . S
C980 O969 1.276 . S
C980 O972 1.235 . S
C981 C983 1.393 . S
C981 C985 1.395 . S
C981 C988 1.492 . S
C982 C983 1.392 . S
C982 C984 1.386 . S
C983 C981 1.393 . S
C983 C982 1.392 . S
C983 H1000 0.930 . S
C984 C982 1.386 . S
C984 C986 1.395 . S
C984 H1001 0.930 . S
C985 C981 1.395 . S
C985 C986 1.379 . S
C985 H1002 0.930 . S
C986 C984 1.395 . S
C986 C985 1.379 . S
C986 H1003 0.930 . S
C987 O970 1.264 . S
C987 O971 1.254 . S
C988 Eu924 2.848 . S
C988 O968 1.257 . S
C988 O973 1.249 . S
C988 C981 1.492 . S
C989 H954 0.931 . S
C989 C967 1.420 . S
C989 C990 1.351 . S
C990 H952 0.930 . S
C990 C958 1.423 . S
C990 C989 1.351 . S
C991 O975 1.276 . S
C991 O978 1.235 . S
C992 C993 1.393 . S
C992 C996 1.395 . S
C992 C999 1.492 . S
C993 C992 1.393 . S
C993 C994 1.392 . S
C993 H1004 0.930 . S
C994 C993 1.392 . S
C994 C995 1.386 . S
C995 C994 1.386 . S
C995 C997 1.395 . S
C995 H1005 0.930 1_565 S
C996 C992 1.395 . S
C996 C997 1.379 . S
C996 H1006 0.930 . S
C997 C995 1.395 . S
C997 C996 1.379 . S
C997 H1007 0.930 . S
C998 O976 1.264 . S
C998 O977 1.254 . S
C999 Eu935 2.848 . S
C999 O974 1.257 . S
C999 O979 1.249 . S
C999 C992 1.492 . S
H1000 C983 0.930 . S
H1001 C984 0.930 . S
H1002 C985 0.930 . S
H1003 C986 0.930 . S
H1004 C993 0.930 . S
H1005 C995 0.930 1_545 S
H1006 C996 0.930 . S
H1007 C997 0.930 . S
Eu1008 N1039 2.657 . S
Eu1008 N1046 2.609 . S
Eu1008 O1052 2.558 . S
Eu1008 O1053 2.612 . S
Eu1008 O1055 2.339 . S
Eu1008 O1056 2.563 . S
Eu1008 O1057 2.419 . S
Eu1008 O1059 2.380 . S
Eu1008 O1060 2.432 . S
Eu1008 C1072 2.848 . S
C1009 C1012 1.429 . S
C1009 C1013 1.411 . S
C1009 N1016 1.377 . S
C1010 C1012 1.420 . S
C1010 C1014 1.423 . S
C1010 C1022 1.392 . S
C1011 C1013 1.420 . S
C1011 C1014 1.351 . S
C1011 H1034 0.931 . S
C1012 C1009 1.429 . S
C1012 C1010 1.420 . S
C1012 N1020 1.362 . S
C1013 C1009 1.411 . S
C1013 C1011 1.420 . S
C1013 C1018 1.395 . S
C1014 C1010 1.423 . S
C1014 C1011 1.351 . S
C1014 H1026 0.930 . S
C1015 C1017 1.400 . S
C1015 C1018 1.386 . S
C1015 H1027 0.930 . S
N1016 C1009 1.377 . S
N1016 C1017 1.321 . S
N1016 Eu1019 2.609 . S
C1017 C1015 1.400 . S
C1017 N1016 1.321 . S
C1017 H1024 0.930 . S
C1018 C1013 1.395 . S
C1018 C1015 1.386 . S
C1018 H1037 0.930 . S
Eu1019 N1016 2.609 . S
Eu1019 N1020 2.657 . S
Eu1019 O1053 2.380 . S
Eu1019 O1054 2.432 . S
Eu1019 O1058 2.558 . S
Eu1019 O1059 2.612 . S
Eu1019 O1061 2.339 . S
Eu1019 O1062 2.563 . S
Eu1019 O1063 2.419 . S
Eu1019 C1083 2.848 . S
N1020 C1012 1.362 . S
N1020 Eu1019 2.657 . S
N1020 C1021 1.334 . S
C1021 N1020 1.334 . S
C1021 C1023 1.413 . S
C1021 H1028 0.929 . S
C1022 C1010 1.392 . S
C1022 C1023 1.367 . S
C1022 H1030 0.930 . S
C1023 C1021 1.413 . S
C1023 C1022 1.367 . S
C1023 H1025 0.930 . S
H1024 C1017 0.930 . S
H1025 C1023 0.930 . S
H1026 C1014 0.930 . S
H1027 C1015 0.930 . S
H1028 C1021 0.929 . S
H1029 C1043 0.930 . S
H1030 C1022 0.930 . S
H1031 C1049 0.930 . S
H1032 C1040 0.929 . S
H1033 C1047 0.930 . S
H1034 C1011 0.931 . S
H1035 C1041 0.930 . S
H1036 C1074 0.930 . S
H1037 C1018 0.930 . S
H1038 C1073 0.931 . S
N1039 Eu1008 2.657 . S
N1039 C1040 1.334 . S
N1039 C1044 1.362 . S
C1040 H1032 0.929 . S
C1040 N1039 1.334 . S
C1040 C1043 1.413 . S
C1041 H1035 0.930 . S
C1041 C1042 1.392 . S
C1041 C1043 1.367 . S
C1042 C1041 1.392 . S
C1042 C1044 1.420 . S
C1042 C1074 1.423 . S
C1043 H1029 0.930 . S
C1043 C1040 1.413 . S
C1043 C1041 1.367 . S
C1044 N1039 1.362 . S
C1044 C1042 1.420 . S
C1044 C1048 1.429 . S
H1045 C1050 0.930 . S
N1046 Eu1008 2.609 . S
N1046 C1048 1.377 . S
N1046 C1049 1.321 . S
C1047 H1033 0.930 . S
C1047 C1049 1.400 . S
C1047 C1050 1.386 . S
C1048 C1044 1.429 . S
C1048 N1046 1.377 . S
C1048 C1051 1.411 . S
C1049 H1031 0.930 . S
C1049 N1046 1.321 . S
C1049 C1047 1.400 . S
C1050 H1045 0.930 . S
C1050 C1047 1.386 . S
C1050 C1051 1.395 . S
C1051 C1048 1.411 . S
C1051 C1050 1.395 . S
C1051 C1073 1.420 . S
O1052 Eu1008 2.558 . S
O1052 C1072 1.257 . S
O1053 Eu1008 2.612 . S
O1053 Eu1019 2.380 . S
O1053 C1064 1.276 . S
O1054 Eu1019 2.432 . S
O1054 C1071 1.264 . S
O1055 Eu1008 2.339 . S
O1055 C1071 1.254 . S
O1056 Eu1008 2.563 . S
O1056 C1064 1.235 . S
O1057 Eu1008 2.419 . S
O1057 C1072 1.249 . S
O1058 Eu1019 2.558 . S
O1058 C1083 1.257 . S
O1059 Eu1008 2.380 . S
O1059 Eu1019 2.612 . S
O1059 C1075 1.276 . S
O1060 Eu1008 2.432 . S
O1060 C1082 1.264 . S
O1061 Eu1019 2.339 . S
O1061 C1082 1.254 . S
O1062 Eu1019 2.563 . S
O1062 C1075 1.235 . S
O1063 Eu1019 2.419 . S
O1063 C1083 1.249 . S
C1064 O1053 1.276 . S
C1064 O1056 1.235 . S
C1065 C1067 1.393 . S
C1065 C1069 1.395 . S
C1065 C1072 1.492 . S
C1066 C1067 1.392 . S
C1066 C1068 1.386 . S
C1067 C1065 1.393 . S
C1067 C1066 1.392 . S
C1067 H1084 0.930 . S
C1068 C1066 1.386 . S
C1068 C1070 1.395 . S
C1068 H1085 0.930 1_545 S
C1069 C1065 1.395 . S
C1069 C1070 1.379 . S
C1069 H1086 0.930 . S
C1070 C1068 1.395 . S
C1070 C1069 1.379 . S
C1070 H1087 0.930 . S
C1071 O1054 1.264 . S
C1071 O1055 1.254 . S
C1072 Eu1008 2.848 . S
C1072 O1052 1.257 . S
C1072 O1057 1.249 . S
C1072 C1065 1.492 . S
C1073 H1038 0.931 . S
C1073 C1051 1.420 . S
C1073 C1074 1.351 . S
C1074 H1036 0.930 . S
C1074 C1042 1.423 . S
C1074 C1073 1.351 . S
C1075 O1059 1.276 . S
C1075 O1062 1.235 . S
C1076 C1077 1.393 . S
C1076 C1080 1.395 . S
C1076 C1083 1.492 . S
C1077 C1076 1.393 . S
C1077 C1078 1.392 . S
C1077 H1088 0.930 . S
C1078 C1077 1.392 . S
C1078 C1079 1.386 . S
C1079 C1078 1.386 . S
C1079 C1081 1.395 . S
C1079 H1089 0.930 . S
C1080 C1076 1.395 . S
C1080 C1081 1.379 . S
C1080 H1090 0.930 . S
C1081 C1079 1.395 . S
C1081 C1080 1.379 . S
C1081 H1091 0.930 . S
C1082 O1060 1.264 . S
C1082 O1061 1.254 . S
C1083 Eu1019 2.848 . S
C1083 O1058 1.257 . S
C1083 O1063 1.249 . S
C1083 C1076 1.492 . S
H1084 C1067 0.930 . S
H1085 C1068 0.930 1_565 S
H1086 C1069 0.930 . S
H1087 C1070 0.930 . S
H1088 C1077 0.930 . S
H1089 C1079 0.930 . S
H1090 C1080 0.930 . S
H1091 C1081 0.930 . S
Eu1092 N1123 2.657 . S
Eu1092 N1130 2.609 . S
Eu1092 O1136 2.558 . S
Eu1092 O1137 2.612 . S
Eu1092 O1139 2.339 . S
Eu1092 O1140 2.563 . S
Eu1092 O1141 2.419 . S
Eu1092 O1143 2.380 . S
Eu1092 O1144 2.432 . S
Eu1092 C1156 2.848 . S
C1093 C1096 1.429 . S
C1093 C1097 1.411 . S
C1093 N1100 1.377 . S
C1094 C1096 1.420 . S
C1094 C1098 1.423 . S
C1094 C1106 1.392 . S
C1095 C1097 1.420 . S
C1095 C1098 1.351 . S
C1095 H1118 0.931 . S
C1096 C1093 1.429 . S
C1096 C1094 1.420 . S
C1096 N1104 1.362 . S
C1097 C1093 1.411 . S
C1097 C1095 1.420 . S
C1097 C1102 1.395 . S
C1098 C1094 1.423 . S
C1098 C1095 1.351 . S
C1098 H1110 0.930 . S
C1099 C1101 1.400 . S
C1099 C1102 1.386 . S
C1099 H1111 0.930 . S
N1100 C1093 1.377 . S
N1100 C1101 1.321 . S
N1100 Eu1103 2.609 . S
C1101 C1099 1.400 . S
C1101 N1100 1.321 . S
C1101 H1108 0.930 . S
C1102 C1097 1.395 . S
C1102 C1099 1.386 . S
C1102 H1121 0.930 . S
Eu1103 N1100 2.609 . S
Eu1103 N1104 2.657 . S
Eu1103 O1137 2.380 . S
Eu1103 O1138 2.432 . S
Eu1103 O1142 2.558 . S
Eu1103 O1143 2.612 . S
Eu1103 O1145 2.339 . S
Eu1103 O1146 2.563 . S
Eu1103 O1147 2.419 . S
Eu1103 C1167 2.848 . S
N1104 C1096 1.362 . S
N1104 Eu1103 2.657 . S
N1104 C1105 1.334 . S
C1105 N1104 1.334 . S
C1105 C1107 1.413 . S
C1105 H1112 0.929 . S
C1106 C1094 1.392 . S
C1106 C1107 1.367 . S
C1106 H1114 0.930 . S
C1107 C1105 1.413 . S
C1107 C1106 1.367 . S
C1107 H1109 0.930 . S
H1108 C1101 0.930 . S
H1109 C1107 0.930 . S
H1110 C1098 0.930 . S
H1111 C1099 0.930 . S
H1112 C1105 0.929 . S
H1113 C1127 0.930 . S
H1114 C1106 0.930 . S
H1115 C1133 0.930 . S
H1116 C1124 0.929 . S
H1117 C1131 0.930 . S
H1118 C1095 0.931 . S
H1119 C1125 0.930 . S
H1120 C1158 0.930 . S
H1121 C1102 0.930 . S
H1122 C1157 0.931 . S
N1123 Eu1092 2.657 . S
N1123 C1124 1.334 . S
N1123 C1128 1.362 . S
C1124 H1116 0.929 . S
C1124 N1123 1.334 . S
C1124 C1127 1.413 . S
C1125 H1119 0.930 . S
C1125 C1126 1.392 . S
C1125 C1127 1.367 . S
C1126 C1125 1.392 . S
C1126 C1128 1.420 . S
C1126 C1158 1.423 . S
C1127 H1113 0.930 . S
C1127 C1124 1.413 . S
C1127 C1125 1.367 . S
C1128 N1123 1.362 . S
C1128 C1126 1.420 . S
C1128 C1132 1.429 . S
H1129 C1134 0.930 . S
N1130 Eu1092 2.609 . S
N1130 C1132 1.377 . S
N1130 C1133 1.321 . S
C1131 H1117 0.930 . S
C1131 C1133 1.400 . S
C1131 C1134 1.386 . S
C1132 C1128 1.429 . S
C1132 N1130 1.377 . S
C1132 C1135 1.411 . S
C1133 H1115 0.930 . S
C1133 N1130 1.321 . S
C1133 C1131 1.400 . S
C1134 H1129 0.930 . S
C1134 C1131 1.386 . S
C1134 C1135 1.395 . S
C1135 C1132 1.411 . S
C1135 C1134 1.395 . S
C1135 C1157 1.420 . S
O1136 Eu1092 2.558 . S
O1136 C1156 1.257 . S
O1137 Eu1092 2.612 . S
O1137 Eu1103 2.380 . S
O1137 C1148 1.276 . S
O1138 Eu1103 2.432 . S
O1138 C1155 1.264 . S
O1139 Eu1092 2.339 . S
O1139 C1155 1.254 . S
O1140 Eu1092 2.563 . S
O1140 C1148 1.235 . S
O1141 Eu1092 2.419 . S
O1141 C1156 1.249 . S
O1142 Eu1103 2.558 . S
O1142 C1167 1.257 . S
O1143 Eu1092 2.380 . S
O1143 Eu1103 2.612 . S
O1143 C1159 1.276 . S
O1144 Eu1092 2.432 . S
O1144 C1166 1.264 . S
O1145 Eu1103 2.339 . S
O1145 C1166 1.254 . S
O1146 Eu1103 2.563 . S
O1146 C1159 1.235 . S
O1147 Eu1103 2.419 . S
O1147 C1167 1.249 . S
C1148 O1137 1.276 . S
C1148 O1140 1.235 . S
C1149 C1151 1.393 . S
C1149 C1153 1.395 . S
C1149 C1156 1.492 . S
C1150 C1151 1.392 . S
C1150 C1152 1.386 . S
C1151 C1149 1.393 . S
C1151 C1150 1.392 . S
C1151 H1168 0.930 . S
C1152 C1150 1.386 . S
C1152 C1154 1.395 . S
C1152 H1169 0.930 1_565 S
C1153 C1149 1.395 . S
C1153 C1154 1.379 . S
C1153 H1170 0.930 . S
C1154 C1152 1.395 . S
C1154 C1153 1.379 . S
C1154 H1171 0.930 . S
C1155 O1138 1.264 . S
C1155 O1139 1.254 . S
C1156 Eu1092 2.848 . S
C1156 O1136 1.257 . S
C1156 O1141 1.249 . S
C1156 C1149 1.492 . S
C1157 H1122 0.931 . S
C1157 C1135 1.420 . S
C1157 C1158 1.351 . S
C1158 H1120 0.930 . S
C1158 C1126 1.423 . S
C1158 C1157 1.351 . S
C1159 O1143 1.276 . S
C1159 O1146 1.235 . S
C1160 C1161 1.393 . S
C1160 C1164 1.395 . S
C1160 C1167 1.492 . S
C1161 C1160 1.393 . S
C1161 C1162 1.392 . S
C1161 H1172 0.930 . S
C1162 C1161 1.392 . S
C1162 C1163 1.386 . S
C1163 C1162 1.386 . S
C1163 C1165 1.395 . S
C1163 H1173 0.930 . S
C1164 C1160 1.395 . S
C1164 C1165 1.379 . S
C1164 H1174 0.930 . S
C1165 C1163 1.395 . S
C1165 C1164 1.379 . S
C1165 H1175 0.930 . S
C1166 O1144 1.264 . S
C1166 O1145 1.254 . S
C1167 Eu1103 2.848 . S
C1167 O1142 1.257 . S
C1167 O1147 1.249 . S
C1167 C1160 1.492 . S
H1168 C1151 0.930 . S
H1169 C1152 0.930 1_545 S
H1170 C1153 0.930 . S
H1171 C1154 0.930 . S
H1172 C1161 0.930 . S
H1173 C1163 0.930 . S
H1174 C1164 0.930 . S
H1175 C1165 0.930 . S
Eu1176 N1207 2.657 . S
Eu1176 N1214 2.609 . S
Eu1176 O1220 2.558 . S
Eu1176 O1221 2.612 . S
Eu1176 O1223 2.339 . S
Eu1176 O1224 2.563 . S
Eu1176 O1225 2.419 . S
Eu1176 O1227 2.380 . S
Eu1176 O1228 2.432 . S
Eu1176 C1240 2.848 . S
C1177 C1180 1.429 . S
C1177 C1181 1.411 . S
C1177 N1184 1.377 . S
C1178 C1180 1.420 . S
C1178 C1182 1.423 . S
C1178 C1190 1.392 . S
C1179 C1181 1.420 . S
C1179 C1182 1.351 . S
C1179 H1202 0.931 . S
C1180 C1177 1.429 . S
C1180 C1178 1.420 . S
C1180 N1188 1.362 . S
C1181 C1177 1.411 . S
C1181 C1179 1.420 . S
C1181 C1186 1.395 . S
C1182 C1178 1.423 . S
C1182 C1179 1.351 . S
C1182 H1194 0.930 . S
C1183 C1185 1.400 . S
C1183 C1186 1.386 . S
C1183 H1195 0.930 . S
N1184 C1177 1.377 . S
N1184 C1185 1.321 . S
N1184 Eu1187 2.609 . S
C1185 C1183 1.400 . S
C1185 N1184 1.321 . S
C1185 H1192 0.930 . S
C1186 C1181 1.395 . S
C1186 C1183 1.386 . S
C1186 H1205 0.930 . S
Eu1187 N1184 2.609 . S
Eu1187 N1188 2.657 . S
Eu1187 O1221 2.380 . S
Eu1187 O1222 2.432 . S
Eu1187 O1226 2.558 . S
Eu1187 O1227 2.612 . S
Eu1187 O1229 2.339 . S
Eu1187 O1230 2.563 . S
Eu1187 O1231 2.419 . S
Eu1187 C1251 2.848 . S
N1188 C1180 1.362 . S
N1188 Eu1187 2.657 . S
N1188 C1189 1.334 . S
C1189 N1188 1.334 . S
C1189 C1191 1.413 . S
C1189 H1196 0.929 . S
C1190 C1178 1.392 . S
C1190 C1191 1.367 . S
C1190 H1198 0.930 . S
C1191 C1189 1.413 . S
C1191 C1190 1.367 . S
C1191 H1193 0.930 . S
H1192 C1185 0.930 . S
H1193 C1191 0.930 . S
H1194 C1182 0.930 . S
H1195 C1183 0.930 . S
H1196 C1189 0.929 . S
H1197 C1211 0.930 . S
H1198 C1190 0.930 . S
H1199 C1217 0.930 . S
H1200 C1208 0.929 . S
H1201 C1215 0.930 . S
H1202 C1179 0.931 . S
H1203 C1209 0.930 . S
H1204 C1242 0.930 . S
H1205 C1186 0.930 . S
H1206 C1241 0.931 . S
N1207 Eu1176 2.657 . S
N1207 C1208 1.334 . S
N1207 C1212 1.362 . S
C1208 H1200 0.929 . S
C1208 N1207 1.334 . S
C1208 C1211 1.413 . S
C1209 H1203 0.930 . S
C1209 C1210 1.392 . S
C1209 C1211 1.367 . S
C1210 C1209 1.392 . S
C1210 C1212 1.420 . S
C1210 C1242 1.423 . S
C1211 H1197 0.930 . S
C1211 C1208 1.413 . S
C1211 C1209 1.367 . S
C1212 N1207 1.362 . S
C1212 C1210 1.420 . S
C1212 C1216 1.429 . S
H1213 C1218 0.930 . S
N1214 Eu1176 2.609 . S
N1214 C1216 1.377 . S
N1214 C1217 1.321 . S
C1215 H1201 0.930 . S
C1215 C1217 1.400 . S
C1215 C1218 1.386 . S
C1216 C1212 1.429 . S
C1216 N1214 1.377 . S
C1216 C1219 1.411 . S
C1217 H1199 0.930 . S
C1217 N1214 1.321 . S
C1217 C1215 1.400 . S
C1218 H1213 0.930 . S
C1218 C1215 1.386 . S
C1218 C1219 1.395 . S
C1219 C1216 1.411 . S
C1219 C1218 1.395 . S
C1219 C1241 1.420 . S
O1220 Eu1176 2.558 . S
O1220 C1240 1.257 . S
O1221 Eu1176 2.612 . S
O1221 Eu1187 2.380 . S
O1221 C1232 1.276 . S
O1222 Eu1187 2.432 . S
O1222 C1239 1.264 . S
O1223 Eu1176 2.339 . S
O1223 C1239 1.254 . S
O1224 Eu1176 2.563 . S
O1224 C1232 1.235 . S
O1225 Eu1176 2.419 . S
O1225 C1240 1.249 . S
O1226 Eu1187 2.558 . S
O1226 C1251 1.257 . S
O1227 Eu1176 2.380 . S
O1227 Eu1187 2.612 . S
O1227 C1243 1.276 . S
O1228 Eu1176 2.432 . S
O1228 C1250 1.264 . S
O1229 Eu1187 2.339 . S
O1229 C1250 1.254 . S
O1230 Eu1187 2.563 . S
O1230 C1243 1.235 . S
O1231 Eu1187 2.419 . S
O1231 C1251 1.249 . S
C1232 O1221 1.276 . S
C1232 O1224 1.235 . S
C1233 C1235 1.393 . S
C1233 C1237 1.395 . S
C1233 C1240 1.492 . S
C1234 C1235 1.392 . S
C1234 C1236 1.386 . S
C1235 C1233 1.393 . S
C1235 C1234 1.392 . S
C1235 H1252 0.930 . S
C1236 C1234 1.386 . S
C1236 C1238 1.395 . S
C1236 H1253 0.930 1_565 S
C1237 C1233 1.395 . S
C1237 C1238 1.379 . S
C1237 H1254 0.930 . S
C1238 C1236 1.395 . S
C1238 C1237 1.379 . S
C1238 H1255 0.930 . S
C1239 O1222 1.264 . S
C1239 O1223 1.254 . S
C1240 Eu1176 2.848 . S
C1240 O1220 1.257 . S
C1240 O1225 1.249 . S
C1240 C1233 1.492 . S
C1241 H1206 0.931 . S
C1241 C1219 1.420 . S
C1241 C1242 1.351 . S
C1242 H1204 0.930 . S
C1242 C1210 1.423 . S
C1242 C1241 1.351 . S
C1243 O1227 1.276 . S
C1243 O1230 1.235 . S
C1244 C1245 1.393 . S
C1244 C1248 1.395 . S
C1244 C1251 1.492 . S
C1245 C1244 1.393 . S
C1245 C1246 1.392 . S
C1245 H1256 0.930 . S
C1246 C1245 1.392 . S
C1246 C1247 1.386 . S
C1247 C1246 1.386 . S
C1247 C1249 1.395 . S
C1247 H1257 0.930 . S
C1248 C1244 1.395 . S
C1248 C1249 1.379 . S
C1248 H1258 0.930 . S
C1249 C1247 1.395 . S
C1249 C1248 1.379 . S
C1249 H1259 0.930 . S
C1250 O1228 1.264 . S
C1250 O1229 1.254 . S
C1251 Eu1187 2.848 . S
C1251 O1226 1.257 . S
C1251 O1231 1.249 . S
C1251 C1244 1.492 . S
H1252 C1235 0.930 . S
H1253 C1236 0.930 1_545 S
H1254 C1237 0.930 . S
H1255 C1238 0.930 . S
H1256 C1245 0.930 . S
H1257 C1247 0.930 . S
H1258 C1248 0.930 . S
H1259 C1249 0.930 . S
Eu1260 N1291 2.657 . S
Eu1260 N1298 2.609 . S
Eu1260 O1304 2.558 . S
Eu1260 O1305 2.612 . S
Eu1260 O1307 2.339 . S
Eu1260 O1308 2.563 . S
Eu1260 O1309 2.419 . S
Eu1260 O1311 2.380 . S
Eu1260 O1312 2.432 . S
Eu1260 C1324 2.848 . S
C1261 C1264 1.429 . S
C1261 C1265 1.411 . S
C1261 N1268 1.377 . S
C1262 C1264 1.420 . S
C1262 C1266 1.423 . S
C1262 C1274 1.392 . S
C1263 C1265 1.420 . S
C1263 C1266 1.351 . S
C1263 H1286 0.931 . S
C1264 C1261 1.429 . S
C1264 C1262 1.420 . S
C1264 N1272 1.362 . S
C1265 C1261 1.411 . S
C1265 C1263 1.420 . S
C1265 C1270 1.395 . S
C1266 C1262 1.423 . S
C1266 C1263 1.351 . S
C1266 H1278 0.930 . S
C1267 C1269 1.400 . S
C1267 C1270 1.386 . S
C1267 H1279 0.930 . S
N1268 C1261 1.377 . S
N1268 C1269 1.321 . S
N1268 Eu1271 2.609 . S
C1269 C1267 1.400 . S
C1269 N1268 1.321 . S
C1269 H1276 0.930 . S
C1270 C1265 1.395 . S
C1270 C1267 1.386 . S
C1270 H1289 0.930 . S
Eu1271 N1268 2.609 . S
Eu1271 N1272 2.657 . S
Eu1271 O1305 2.380 . S
Eu1271 O1306 2.432 . S
Eu1271 O1310 2.558 . S
Eu1271 O1311 2.612 . S
Eu1271 O1313 2.339 . S
Eu1271 O1314 2.563 . S
Eu1271 O1315 2.419 . S
Eu1271 C1335 2.848 . S
N1272 C1264 1.362 . S
N1272 Eu1271 2.657 . S
N1272 C1273 1.334 . S
C1273 N1272 1.334 . S
C1273 C1275 1.413 . S
C1273 H1280 0.929 . S
C1274 C1262 1.392 . S
C1274 C1275 1.367 . S
C1274 H1282 0.930 . S
C1275 C1273 1.413 . S
C1275 C1274 1.367 . S
C1275 H1277 0.930 . S
H1276 C1269 0.930 . S
H1277 C1275 0.930 . S
H1278 C1266 0.930 . S
H1279 C1267 0.930 . S
H1280 C1273 0.929 . S
H1281 C1295 0.930 . S
H1282 C1274 0.930 . S
H1283 C1301 0.930 . S
H1284 C1292 0.929 . S
H1285 C1299 0.930 . S
H1286 C1263 0.931 . S
H1287 C1293 0.930 . S
H1288 C1326 0.930 . S
H1289 C1270 0.930 . S
H1290 C1325 0.931 . S
N1291 Eu1260 2.657 . S
N1291 C1292 1.334 . S
N1291 C1296 1.362 . S
C1292 H1284 0.929 . S
C1292 N1291 1.334 . S
C1292 C1295 1.413 . S
C1293 H1287 0.930 . S
C1293 C1294 1.392 . S
C1293 C1295 1.367 . S
C1294 C1293 1.392 . S
C1294 C1296 1.420 . S
C1294 C1326 1.423 . S
C1295 H1281 0.930 . S
C1295 C1292 1.413 . S
C1295 C1293 1.367 . S
C1296 N1291 1.362 . S
C1296 C1294 1.420 . S
C1296 C1300 1.429 . S
H1297 C1302 0.930 . S
N1298 Eu1260 2.609 . S
N1298 C1300 1.377 . S
N1298 C1301 1.321 . S
C1299 H1285 0.930 . S
C1299 C1301 1.400 . S
C1299 C1302 1.386 . S
C1300 C1296 1.429 . S
C1300 N1298 1.377 . S
C1300 C1303 1.411 . S
C1301 H1283 0.930 . S
C1301 N1298 1.321 . S
C1301 C1299 1.400 . S
C1302 H1297 0.930 . S
C1302 C1299 1.386 . S
C1302 C1303 1.395 . S
C1303 C1300 1.411 . S
C1303 C1302 1.395 . S
C1303 C1325 1.420 . S
O1304 Eu1260 2.558 . S
O1304 C1324 1.257 . S
O1305 Eu1260 2.612 . S
O1305 Eu1271 2.380 . S
O1305 C1316 1.276 . S
O1306 Eu1271 2.432 . S
O1306 C1323 1.264 . S
O1307 Eu1260 2.339 . S
O1307 C1323 1.254 . S
O1308 Eu1260 2.563 . S
O1308 C1316 1.235 . S
O1309 Eu1260 2.419 . S
O1309 C1324 1.249 . S
O1310 Eu1271 2.558 . S
O1310 C1335 1.257 . S
O1311 Eu1260 2.380 . S
O1311 Eu1271 2.612 . S
O1311 C1327 1.276 . S
O1312 Eu1260 2.432 . S
O1312 C1334 1.264 . S
O1313 Eu1271 2.339 . S
O1313 C1334 1.254 . S
O1314 Eu1271 2.563 . S
O1314 C1327 1.235 . S
O1315 Eu1271 2.419 . S
O1315 C1335 1.249 . S
C1316 O1305 1.276 . S
C1316 O1308 1.235 . S
C1317 C1319 1.393 . S
C1317 C1321 1.395 . S
C1317 C1324 1.492 . S
C1318 C1319 1.392 . S
C1318 C1320 1.386 . S
C1319 C1317 1.393 . S
C1319 C1318 1.392 . S
C1319 H1336 0.930 . S
C1320 C1318 1.386 . S
C1320 C1322 1.395 . S
C1320 H1337 0.930 1_545 S
C1321 C1317 1.395 . S
C1321 C1322 1.379 . S
C1321 H1338 0.930 . S
C1322 C1320 1.395 . S
C1322 C1321 1.379 . S
C1322 H1339 0.930 . S
C1323 O1306 1.264 . S
C1323 O1307 1.254 . S
C1324 Eu1260 2.848 . S
C1324 O1304 1.257 . S
C1324 O1309 1.249 . S
C1324 C1317 1.492 . S
C1325 H1290 0.931 . S
C1325 C1303 1.420 . S
C1325 C1326 1.351 . S
C1326 H1288 0.930 . S
C1326 C1294 1.423 . S
C1326 C1325 1.351 . S
C1327 O1311 1.276 . S
C1327 O1314 1.235 . S
C1328 C1329 1.393 . S
C1328 C1332 1.395 . S
C1328 C1335 1.492 . S
C1329 C1328 1.393 . S
C1329 C1330 1.392 . S
C1329 H1340 0.930 . S
C1330 C1329 1.392 . S
C1330 C1331 1.386 . S
C1331 C1330 1.386 . S
C1331 C1333 1.395 . S
C1331 H1341 0.930 . S
C1332 C1328 1.395 . S
C1332 C1333 1.379 . S
C1332 H1342 0.930 . S
C1333 C1331 1.395 . S
C1333 C1332 1.379 . S
C1333 H1343 0.930 . S
C1334 O1312 1.264 . S
C1334 O1313 1.254 . S
C1335 Eu1271 2.848 . S
C1335 O1310 1.257 . S
C1335 O1315 1.249 . S
C1335 C1328 1.492 . S
H1336 C1319 0.930 . S
H1337 C1320 0.930 1_565 S
H1338 C1321 0.930 . S
H1339 C1322 0.930 . S
H1340 C1329 0.930 . S
H1341 C1331 0.930 . S
H1342 C1332 0.930 . S
H1343 C1333 0.930 . S
H1344 C1350 0.930 . S
H1345 C1353 0.930 . S
H1346 C1354 0.930 . S
H1347 C1355 0.930 . S
H1348 C1358 0.930 . S
H1349 C1359 0.930 . S
C1350 H1344 0.930 . S
C1350 C1351 1.355 . S
C1350 C1352 1.415 . S
C1351 C1350 1.355 . S
C1351 C1353 1.419 . S
C1352 C1350 1.415 . S
C1352 C1357 1.425 . S
C1352 C1359 1.409 . S
C1353 H1345 0.930 . S
C1353 C1351 1.419 . S
C1353 C1354 1.362 . S
C1354 H1346 0.930 . S
C1354 C1353 1.362 . S
C1354 C1357 1.409 . S
C1355 H1347 0.930 . S
C1355 C1356 1.355 . S
C1355 C1357 1.415 . S
C1356 C1355 1.355 . S
C1356 C1358 1.419 . S
C1357 C1352 1.425 . S
C1357 C1354 1.409 . S
C1357 C1355 1.415 . S
C1358 H1348 0.930 . S
C1358 C1356 1.419 . S
C1358 C1359 1.362 . S
C1359 H1349 0.930 . S
C1359 C1352 1.409 . S
C1359 C1358 1.362 . S
H1360 C1366 0.930 . S
H1361 C1369 0.930 . S
H1362 C1370 0.930 . S
H1363 C1371 0.930 . S
H1364 C1374 0.930 . S
H1365 C1375 0.930 . S
C1366 H1360 0.930 . S
C1366 C1367 1.355 . S
C1366 C1368 1.415 . S
C1367 C1366 1.355 . S
C1367 C1369 1.419 . S
C1368 C1366 1.415 . S
C1368 C1373 1.425 . S
C1368 C1375 1.409 . S
C1369 H1361 0.930 . S
C1369 C1367 1.419 . S
C1369 C1370 1.362 . S
C1370 H1362 0.930 . S
C1370 C1369 1.362 . S
C1370 C1373 1.409 . S
C1371 H1363 0.930 . S
C1371 C1372 1.355 . S
C1371 C1373 1.415 . S
C1372 C1371 1.355 . S
C1372 C1374 1.419 . S
C1373 C1368 1.425 . S
C1373 C1370 1.409 . S
C1373 C1371 1.415 . S
C1374 H1364 0.930 . S
C1374 C1372 1.419 . S
C1374 C1375 1.362 . S
C1375 H1365 0.930 . S
C1375 C1368 1.409 . S
C1375 C1374 1.362 . S
H1376 C1382 0.930 . S
H1377 C1385 0.930 . S
H1378 C1386 0.930 . S
H1379 C1387 0.930 . S
H1380 C1390 0.930 . S
H1381 C1391 0.930 . S
C1382 H1376 0.930 . S
C1382 C1383 1.355 . S
C1382 C1384 1.415 . S
C1383 C1382 1.355 . S
C1383 C1385 1.419 . S
C1384 C1382 1.415 . S
C1384 C1389 1.425 . S
C1384 C1391 1.409 . S
C1385 H1377 0.930 . S
C1385 C1383 1.419 . S
C1385 C1386 1.362 . S
C1386 H1378 0.930 . S
C1386 C1385 1.362 . S
C1386 C1389 1.409 . S
C1387 H1379 0.930 . S
C1387 C1388 1.355 . S
C1387 C1389 1.415 . S
C1388 C1387 1.355 . S
C1388 C1390 1.419 . S
C1389 C1384 1.425 . S
C1389 C1386 1.409 . S
C1389 C1387 1.415 . S
C1390 H1380 0.930 . S
C1390 C1388 1.419 . S
C1390 C1391 1.362 . S
C1391 H1381 0.930 . S
C1391 C1384 1.409 . S
C1391 C1390 1.362 . S
H1392 C1398 0.930 . S
H1393 C1401 0.930 . S
H1394 C1402 0.930 . S
H1395 C1403 0.930 . S
H1396 C1406 0.930 . S
H1397 C1407 0.930 . S
C1398 H1392 0.930 . S
C1398 C1399 1.355 . S
C1398 C1400 1.415 . S
C1399 C1398 1.355 . S
C1399 C1401 1.419 . S
C1400 C1398 1.415 . S
C1400 C1405 1.425 . S
C1400 C1407 1.409 . S
C1401 H1393 0.930 . S
C1401 C1399 1.419 . S
C1401 C1402 1.362 . S
C1402 H1394 0.930 . S
C1402 C1401 1.362 . S
C1402 C1405 1.409 . S
C1403 H1395 0.930 . S
C1403 C1404 1.355 . S
C1403 C1405 1.415 . S
C1404 C1403 1.355 . S
C1404 C1406 1.419 . S
C1405 C1400 1.425 . S
C1405 C1402 1.409 . S
C1405 C1403 1.415 . S
C1406 H1396 0.930 . S
C1406 C1404 1.419 . S
C1406 C1407 1.362 . S
C1407 H1397 0.930 . S
C1407 C1400 1.409 . S
C1407 C1406 1.362 . S
H1408 C1414 0.930 . S
H1409 C1417 0.930 . S
H1410 C1418 0.930 . S
H1411 C1419 0.930 . S
H1412 C1422 0.930 . S
H1413 C1423 0.930 . S
C1414 H1408 0.930 . S
C1414 C1415 1.355 . S
C1414 C1416 1.415 . S
C1415 C1414 1.355 . S
C1415 C1417 1.419 . S
C1416 C1414 1.415 . S
C1416 C1421 1.425 . S
C1416 C1423 1.409 . S
C1417 H1409 0.930 . S
C1417 C1415 1.419 . S
C1417 C1418 1.362 . S
C1418 H1410 0.930 . S
C1418 C1417 1.362 . S
C1418 C1421 1.409 . S
C1419 H1411 0.930 . S
C1419 C1420 1.355 . S
C1419 C1421 1.415 . S
C1420 C1419 1.355 . S
C1420 C1422 1.419 . S
C1421 C1416 1.425 . S
C1421 C1418 1.409 . S
C1421 C1419 1.415 . S
C1422 H1412 0.930 . S
C1422 C1420 1.419 . S
C1422 C1423 1.362 . S
C1423 H1413 0.930 . S
C1423 C1416 1.409 . S
C1423 C1422 1.362 . S
H1424 C1430 0.930 . S
H1425 C1433 0.930 . S
H1426 C1434 0.930 . S
H1427 C1435 0.930 . S
H1428 C1438 0.930 . S
H1429 C1439 0.930 . S
C1430 H1424 0.930 . S
C1430 C1431 1.355 . S
C1430 C1432 1.415 . S
C1431 C1430 1.355 . S
C1431 C1433 1.419 . S
C1432 C1430 1.415 . S
C1432 C1437 1.425 . S
C1432 C1439 1.409 . S
C1433 H1425 0.930 . S
C1433 C1431 1.419 . S
C1433 C1434 1.362 . S
C1434 H1426 0.930 . S
C1434 C1433 1.362 . S
C1434 C1437 1.409 . S
C1435 H1427 0.930 . S
C1435 C1436 1.355 . S
C1435 C1437 1.415 . S
C1436 C1435 1.355 . S
C1436 C1438 1.419 . S
C1437 C1432 1.425 . S
C1437 C1434 1.409 . S
C1437 C1435 1.415 . S
C1438 H1428 0.930 . S
C1438 C1436 1.419 . S
C1438 C1439 1.362 . S
C1439 H1429 0.930 . S
C1439 C1432 1.409 . S
C1439 C1438 1.362 . S
H1440 C1446 0.930 . S
H1441 C1449 0.930 . S
H1442 C1450 0.930 . S
H1443 C1451 0.930 . S
H1444 C1454 0.930 . S
H1445 C1455 0.930 . S
C1446 H1440 0.930 . S
C1446 C1447 1.355 . S
C1446 C1448 1.415 . S
C1447 C1446 1.355 . S
C1447 C1449 1.419 . S
C1448 C1446 1.415 . S
C1448 C1453 1.425 . S
C1448 C1455 1.409 . S
C1449 H1441 0.930 . S
C1449 C1447 1.419 . S
C1449 C1450 1.362 . S
C1450 H1442 0.930 . S
C1450 C1449 1.362 . S
C1450 C1453 1.409 . S
C1451 H1443 0.930 . S
C1451 C1452 1.355 . S
C1451 C1453 1.415 . S
C1452 C1451 1.355 . S
C1452 C1454 1.419 . S
C1453 C1448 1.425 . S
C1453 C1450 1.409 . S
C1453 C1451 1.415 . S
C1454 H1444 0.930 . S
C1454 C1452 1.419 . S
C1454 C1455 1.362 . S
C1455 H1445 0.930 . S
C1455 C1448 1.409 . S
C1455 C1454 1.362 . S
H1456 C1462 0.930 . S
H1457 C1465 0.930 . S
H1458 C1466 0.930 . S
H1459 C1467 0.930 . S
H1460 C1470 0.930 . S
H1461 C1471 0.930 . S
C1462 H1456 0.930 . S
C1462 C1463 1.355 . S
C1462 C1464 1.415 . S
C1463 C1462 1.355 . S
C1463 C1465 1.419 . S
C1464 C1462 1.415 . S
C1464 C1469 1.425 . S
C1464 C1471 1.409 . S
C1465 H1457 0.930 . S
C1465 C1463 1.419 . S
C1465 C1466 1.362 . S
C1466 H1458 0.930 . S
C1466 C1465 1.362 . S
C1466 C1469 1.409 . S
C1467 H1459 0.930 . S
C1467 C1468 1.355 . S
C1467 C1469 1.415 . S
C1468 C1467 1.355 . S
C1468 C1470 1.419 . S
C1469 C1464 1.425 . S
C1469 C1466 1.409 . S
C1469 C1467 1.415 . S
C1470 H1460 0.930 . S
C1470 C1468 1.419 . S
C1470 C1471 1.362 . S
C1471 H1461 0.930 . S
C1471 C1464 1.409 . S
C1471 C1470 1.362 . S
H1472 C1478 0.930 . S
H1473 C1481 0.930 . S
H1474 C1482 0.930 . S
H1475 C1483 0.930 . S
H1476 C1486 0.930 . S
H1477 C1487 0.930 . S
C1478 H1472 0.930 . S
C1478 C1479 1.355 . S
C1478 C1480 1.415 . S
C1479 C1478 1.355 . S
C1479 C1481 1.419 . S
C1480 C1478 1.415 . S
C1480 C1485 1.425 1_565 S
C1480 C1487 1.409 1_565 S
C1481 H1473 0.930 . S
C1481 C1479 1.419 . S
C1481 C1482 1.362 . S
C1482 H1474 0.930 . S
C1482 C1481 1.362 . S
C1482 C1485 1.409 1_565 S
C1483 H1475 0.930 . S
C1483 C1484 1.355 . S
C1483 C1485 1.415 . S
C1484 C1483 1.355 . S
C1484 C1486 1.419 . S
C1485 C1480 1.425 1_545 S
C1485 C1482 1.409 1_545 S
C1485 C1483 1.415 . S
C1486 H1476 0.930 . S
C1486 C1484 1.419 . S
C1486 C1487 1.362 . S
C1487 H1477 0.930 . S
C1487 C1480 1.409 1_545 S
C1487 C1486 1.362 . S
H1488 C1494 0.930 . S
H1489 C1497 0.930 . S
H1490 C1498 0.930 . S
H1491 C1499 0.930 . S
H1492 C1502 0.930 . S
H1493 C1503 0.930 . S
C1494 H1488 0.930 . S
C1494 C1495 1.355 . S
C1494 C1496 1.415 . S
C1495 C1494 1.355 . S
C1495 C1497 1.419 1_545 S
C1496 C1494 1.415 . S
C1496 C1501 1.425 1_545 S
C1496 C1503 1.409 . S
C1497 H1489 0.930 . S
C1497 C1495 1.419 1_565 S
C1497 C1498 1.362 . S
C1498 H1490 0.930 . S
C1498 C1497 1.362 . S
C1498 C1501 1.409 . S
C1499 H1491 0.930 . S
C1499 C1500 1.355 . S
C1499 C1501 1.415 . S
C1500 C1499 1.355 . S
C1500 C1502 1.419 1_565 S
C1501 C1496 1.425 1_565 S
C1501 C1498 1.409 . S
C1501 C1499 1.415 . S
C1502 H1492 0.930 . S
C1502 C1500 1.419 1_545 S
C1502 C1503 1.362 . S
C1503 H1493 0.930 . S
C1503 C1496 1.409 . S
C1503 C1502 1.362 . S
H1504 C1510 0.930 . S
H1505 C1513 0.930 . S
H1506 C1514 0.930 . S
H1507 C1515 0.930 . S
H1508 C1518 0.930 . S
H1509 C1519 0.930 . S
C1510 H1504 0.930 . S
C1510 C1511 1.355 . S
C1510 C1512 1.415 1_545 S
C1511 C1510 1.355 . S
C1511 C1513 1.419 . S
C1512 C1510 1.415 1_565 S
C1512 C1517 1.425 1_565 S
C1512 C1519 1.409 . S
C1513 H1505 0.930 . S
C1513 C1511 1.419 . S
C1513 C1514 1.362 . S
C1514 H1506 0.930 . S
C1514 C1513 1.362 . S
C1514 C1517 1.409 . S
C1515 H1507 0.930 . S
C1515 C1516 1.355 . S
C1515 C1517 1.415 1_565 S
C1516 C1515 1.355 . S
C1516 C1518 1.419 . S
C1517 C1512 1.425 1_545 S
C1517 C1514 1.409 . S
C1517 C1515 1.415 1_545 S
C1518 H1508 0.930 . S
C1518 C1516 1.419 . S
C1518 C1519 1.362 . S
C1519 H1509 0.930 . S
C1519 C1512 1.409 . S
C1519 C1518 1.362 . S
H1520 C1526 0.930 . S
H1521 C1529 0.930 . S
H1522 C1530 0.930 . S
H1523 C1531 0.930 . S
H1524 C1534 0.930 . S
H1525 C1535 0.930 . S
C1526 H1520 0.930 . S
C1526 C1527 1.355 . S
C1526 C1528 1.415 . S
C1527 C1526 1.355 . S
C1527 C1529 1.419 . S
C1528 C1526 1.415 . S
C1528 C1533 1.425 1_545 S
C1528 C1535 1.409 . S
C1529 H1521 0.930 . S
C1529 C1527 1.419 . S
C1529 C1530 1.362 1_545 S
C1530 H1522 0.930 . S
C1530 C1529 1.362 1_565 S
C1530 C1533 1.409 . S
C1531 H1523 0.930 . S
C1531 C1532 1.355 . S
C1531 C1533 1.415 . S
C1532 C1531 1.355 . S
C1532 C1534 1.419 . S
C1533 C1528 1.425 1_565 S
C1533 C1530 1.409 . S
C1533 C1531 1.415 . S
C1534 H1524 0.930 . S
C1534 C1532 1.419 . S
C1534 C1535 1.362 1_565 S
C1535 H1525 0.930 . S
C1535 C1528 1.409 . S
C1535 C1534 1.362 1_545 S
H1536 C1542 0.930 . S
H1537 C1545 0.930 . S
H1538 C1546 0.930 . S
H1539 C1547 0.930 . S
H1540 C1550 0.930 . S
H1541 C1551 0.930 . S
C1542 H1536 0.930 . S
C1542 C1543 1.355 . S
C1542 C1544 1.415 . S
C1543 C1542 1.355 . S
C1543 C1545 1.419 . S
C1544 C1542 1.415 . S
C1544 C1549 1.425 . S
C1544 C1551 1.409 . S
C1545 H1537 0.930 . S
C1545 C1543 1.419 . S
C1545 C1546 1.362 . S
C1546 H1538 0.930 . S
C1546 C1545 1.362 . S
C1546 C1549 1.409 . S
C1547 H1539 0.930 . S
C1547 C1548 1.355 . S
C1547 C1549 1.415 . S
C1548 C1547 1.355 . S
C1548 C1550 1.419 . S
C1549 C1544 1.425 . S
C1549 C1546 1.409 . S
C1549 C1547 1.415 . S
C1550 H1540 0.930 . S
C1550 C1548 1.419 . S
C1550 C1551 1.362 . S
C1551 H1541 0.930 . S
C1551 C1544 1.409 . S
C1551 C1550 1.362 . S
H1552 C1558 0.930 . S
H1553 C1561 0.930 . S
H1554 C1562 0.930 . S
H1555 C1563 0.930 . S
H1556 C1566 0.930 . S
H1557 C1567 0.930 . S
C1558 H1552 0.930 . S
C1558 C1559 1.355 . S
C1558 C1560 1.415 . S
C1559 C1558 1.355 . S
C1559 C1561 1.419 . S
C1560 C1558 1.415 . S
C1560 C1565 1.425 . S
C1560 C1567 1.409 . S
C1561 H1553 0.930 . S
C1561 C1559 1.419 . S
C1561 C1562 1.362 . S
C1562 H1554 0.930 . S
C1562 C1561 1.362 . S
C1562 C1565 1.409 . S
C1563 H1555 0.930 . S
C1563 C1564 1.355 . S
C1563 C1565 1.415 . S
C1564 C1563 1.355 . S
C1564 C1566 1.419 . S
C1565 C1560 1.425 . S
C1565 C1562 1.409 . S
C1565 C1563 1.415 . S
C1566 H1556 0.930 . S
C1566 C1564 1.419 . S
C1566 C1567 1.362 . S
C1567 H1557 0.930 . S
C1567 C1560 1.409 . S
C1567 C1566 1.362 . S
H1568 C1574 0.930 . S
H1569 C1577 0.930 . S
H1570 C1578 0.930 . S
H1571 C1579 0.930 . S
H1572 C1582 0.930 . S
H1573 C1583 0.930 . S
C1574 H1568 0.930 . S
C1574 C1575 1.355 . S
C1574 C1576 1.415 . S
C1575 C1574 1.355 . S
C1575 C1577 1.419 . S
C1576 C1574 1.415 . S
C1576 C1581 1.425 . S
C1576 C1583 1.409 . S
C1577 H1569 0.930 . S
C1577 C1575 1.419 . S
C1577 C1578 1.362 . S
C1578 H1570 0.930 . S
C1578 C1577 1.362 . S
C1578 C1581 1.409 . S
C1579 H1571 0.930 . S
C1579 C1580 1.355 . S
C1579 C1581 1.415 . S
C1580 C1579 1.355 . S
C1580 C1582 1.419 . S
C1581 C1576 1.425 . S
C1581 C1578 1.409 . S
C1581 C1579 1.415 . S
C1582 H1572 0.930 . S
C1582 C1580 1.419 . S
C1582 C1583 1.362 . S
C1583 H1573 0.930 . S
C1583 C1576 1.409 . S
C1583 C1582 1.362 . S
H1584 C1590 0.930 . S
H1585 C1593 0.930 . S
H1586 C1594 0.930 . S
H1587 C1595 0.930 . S
H1588 C1598 0.930 . S
H1589 C1599 0.930 . S
C1590 H1584 0.930 . S
C1590 C1591 1.355 . S
C1590 C1592 1.415 . S
C1591 C1590 1.355 . S
C1591 C1593 1.419 . S
C1592 C1590 1.415 . S
C1592 C1597 1.425 . S
C1592 C1599 1.409 . S
C1593 H1585 0.930 . S
C1593 C1591 1.419 . S
C1593 C1594 1.362 . S
C1594 H1586 0.930 . S
C1594 C1593 1.362 . S
C1594 C1597 1.409 . S
C1595 H1587 0.930 . S
C1595 C1596 1.355 . S
C1595 C1597 1.415 . S
C1596 C1595 1.355 . S
C1596 C1598 1.419 . S
C1597 C1592 1.425 . S
C1597 C1594 1.409 . S
C1597 C1595 1.415 . S
C1598 H1588 0.930 . S
C1598 C1596 1.419 . S
C1598 C1599 1.362 . S
C1599 H1589 0.930 . S
C1599 C1592 1.409 . S
C1599 C1598 1.362 . S
H1600 C1606 0.930 . S
H1601 C1609 0.930 . S
H1602 C1610 0.930 . S
H1603 C1611 0.930 . S
H1604 C1614 0.930 . S
H1605 C1615 0.930 . S
C1606 H1600 0.930 . S
C1606 C1607 1.355 . S
C1606 C1608 1.415 . S
C1607 C1606 1.355 . S
C1607 C1609 1.419 . S
C1608 C1606 1.415 . S
C1608 C1613 1.425 1_556 S
C1608 C1615 1.409 1_556 S
C1609 H1601 0.930 . S
C1609 C1607 1.419 . S
C1609 C1610 1.362 . S
C1610 H1602 0.930 . S
C1610 C1609 1.362 . S
C1610 C1613 1.409 1_556 S
C1611 H1603 0.930 . S
C1611 C1612 1.355 . S
C1611 C1613 1.415 . S
C1612 C1611 1.355 . S
C1612 C1614 1.419 . S
C1613 C1608 1.425 1_554 S
C1613 C1610 1.409 1_554 S
C1613 C1611 1.415 . S
C1614 H1604 0.930 . S
C1614 C1612 1.419 . S
C1614 C1615 1.362 . S
C1615 H1605 0.930 . S
C1615 C1608 1.409 1_554 S
C1615 C1614 1.362 . S
H1616 C1622 0.930 . S
H1617 C1625 0.930 . S
H1618 C1626 0.930 . S
H1619 C1627 0.930 . S
H1620 C1630 0.930 . S
H1621 C1631 0.930 . S
C1622 H1616 0.930 . S
C1622 C1623 1.355 . S
C1622 C1624 1.415 . S
C1623 C1622 1.355 . S
C1623 C1625 1.419 . S
C1624 C1622 1.415 . S
C1624 C1629 1.425 1_556 S
C1624 C1631 1.409 1_556 S
C1625 H1617 0.930 . S
C1625 C1623 1.419 . S
C1625 C1626 1.362 . S
C1626 H1618 0.930 . S
C1626 C1625 1.362 . S
C1626 C1629 1.409 1_556 S
C1627 H1619 0.930 . S
C1627 C1628 1.355 . S
C1627 C1629 1.415 . S
C1628 C1627 1.355 . S
C1628 C1630 1.419 . S
C1629 C1624 1.425 1_554 S
C1629 C1626 1.409 1_554 S
C1629 C1627 1.415 . S
C1630 H1620 0.930 . S
C1630 C1628 1.419 . S
C1630 C1631 1.362 . S
C1631 H1621 0.930 . S
C1631 C1624 1.409 1_554 S
C1631 C1630 1.362 . S
H1632 C1638 0.930 . S
H1633 C1641 0.930 . S
H1634 C1642 0.930 . S
H1635 C1643 0.930 . S
H1636 C1646 0.930 . S
H1637 C1647 0.930 . S
C1638 H1632 0.930 . S
C1638 C1639 1.355 . S
C1638 C1640 1.415 . S
C1639 C1638 1.355 . S
C1639 C1641 1.419 . S
C1640 C1638 1.415 . S
C1640 C1645 1.425 . S
C1640 C1647 1.409 . S
C1641 H1633 0.930 . S
C1641 C1639 1.419 . S
C1641 C1642 1.362 . S
C1642 H1634 0.930 . S
C1642 C1641 1.362 . S
C1642 C1645 1.409 . S
C1643 H1635 0.930 . S
C1643 C1644 1.355 . S
C1643 C1645 1.415 . S
C1644 C1643 1.355 . S
C1644 C1646 1.419 . S
C1645 C1640 1.425 . S
C1645 C1642 1.409 . S
C1645 C1643 1.415 . S
C1646 H1636 0.930 . S
C1646 C1644 1.419 . S
C1646 C1647 1.362 . S
C1647 H1637 0.930 . S
C1647 C1640 1.409 . S
C1647 C1646 1.362 . S
H1648 C1654 0.930 . S
H1649 C1657 0.930 . S
H1650 C1658 0.930 . S
H1651 C1659 0.930 . S
H1652 C1662 0.930 . S
H1653 C1663 0.930 . S
C1654 H1648 0.930 . S
C1654 C1655 1.355 . S
C1654 C1656 1.415 . S
C1655 C1654 1.355 . S
C1655 C1657 1.419 . S
C1656 C1654 1.415 . S
C1656 C1661 1.425 . S
C1656 C1663 1.409 . S
C1657 H1649 0.930 . S
C1657 C1655 1.419 . S
C1657 C1658 1.362 . S
C1658 H1650 0.930 . S
C1658 C1657 1.362 . S
C1658 C1661 1.409 . S
C1659 H1651 0.930 . S
C1659 C1660 1.355 . S
C1659 C1661 1.415 . S
C1660 C1659 1.355 . S
C1660 C1662 1.419 . S
C1661 C1656 1.425 . S
C1661 C1658 1.409 . S
C1661 C1659 1.415 . S
C1662 H1652 0.930 . S
C1662 C1660 1.419 . S
C1662 C1663 1.362 . S
C1663 H1653 0.930 . S
C1663 C1656 1.409 . S
C1663 C1662 1.362 . S
H1664 C1670 0.930 . S
H1665 C1673 0.930 . S
H1666 C1674 0.930 . S
H1667 C1675 0.930 . S
H1668 C1678 0.930 . S
H1669 C1679 0.930 . S
C1670 H1664 0.930 . S
C1670 C1671 1.355 . S
C1670 C1672 1.415 . S
C1671 C1670 1.355 . S
C1671 C1673 1.419 . S
C1672 C1670 1.415 . S
C1672 C1677 1.425 1_554 S
C1672 C1679 1.409 1_554 S
C1673 H1665 0.930 . S
C1673 C1671 1.419 . S
C1673 C1674 1.362 . S
C1674 H1666 0.930 . S
C1674 C1673 1.362 . S
C1674 C1677 1.409 1_554 S
C1675 H1667 0.930 . S
C1675 C1676 1.355 . S
C1675 C1677 1.415 . S
C1676 C1675 1.355 . S
C1676 C1678 1.419 . S
C1677 C1672 1.425 1_556 S
C1677 C1674 1.409 1_556 S
C1677 C1675 1.415 . S
C1678 H1668 0.930 . S
C1678 C1676 1.419 . S
C1678 C1679 1.362 . S
C1679 H1669 0.930 . S
C1679 C1672 1.409 1_556 S
C1679 C1678 1.362 . S
H1680 C1686 0.930 . S
H1681 C1689 0.930 . S
H1682 C1690 0.930 . S
H1683 C1691 0.930 . S
H1684 C1694 0.930 . S
H1685 C1695 0.930 . S
C1686 H1680 0.930 . S
C1686 C1687 1.355 . S
C1686 C1688 1.415 . S
C1687 C1686 1.355 . S
C1687 C1689 1.419 . S
C1688 C1686 1.415 . S
C1688 C1693 1.425 1_556 S
C1688 C1695 1.409 1_556 S
C1689 H1681 0.930 . S
C1689 C1687 1.419 . S
C1689 C1690 1.362 . S
C1690 H1682 0.930 . S
C1690 C1689 1.362 . S
C1690 C1693 1.409 1_556 S
C1691 H1683 0.930 . S
C1691 C1692 1.355 . S
C1691 C1693 1.415 . S
C1692 C1691 1.355 . S
C1692 C1694 1.419 . S
C1693 C1688 1.425 1_554 S
C1693 C1690 1.409 1_554 S
C1693 C1691 1.415 . S
C1694 H1684 0.930 . S
C1694 C1692 1.419 . S
C1694 C1695 1.362 . S
C1695 H1685 0.930 . S
C1695 C1688 1.409 1_554 S
C1695 C1694 1.362 . S
H1696 C1702 0.930 . S
H1697 C1705 0.930 . S
H1698 C1706 0.930 . S
H1699 C1707 0.930 . S
H1700 C1710 0.930 . S
H1701 C1711 0.930 . S
C1702 H1696 0.930 . S
C1702 C1703 1.355 . S
C1702 C1704 1.415 . S
C1703 C1702 1.355 . S
C1703 C1705 1.419 . S
C1704 C1702 1.415 . S
C1704 C1709 1.425 . S
C1704 C1711 1.409 . S
C1705 H1697 0.930 . S
C1705 C1703 1.419 . S
C1705 C1706 1.362 . S
C1706 H1698 0.930 . S
C1706 C1705 1.362 . S
C1706 C1709 1.409 . S
C1707 H1699 0.930 . S
C1707 C1708 1.355 . S
C1707 C1709 1.415 . S
C1708 C1707 1.355 . S
C1708 C1710 1.419 . S
C1709 C1704 1.425 . S
C1709 C1706 1.409 . S
C1709 C1707 1.415 . S
C1710 H1700 0.930 . S
C1710 C1708 1.419 . S
C1710 C1711 1.362 . S
C1711 H1701 0.930 . S
C1711 C1704 1.409 . S
C1711 C1710 1.362 . S
H1712 C1718 0.930 . S
H1713 C1721 0.930 . S
H1714 C1722 0.930 . S
H1715 C1723 0.930 . S
H1716 C1726 0.930 . S
H1717 C1727 0.930 . S
C1718 H1712 0.930 . S
C1718 C1719 1.355 . S
C1718 C1720 1.415 . S
C1719 C1718 1.355 . S
C1719 C1721 1.419 . S
C1720 C1718 1.415 . S
C1720 C1725 1.425 . S
C1720 C1727 1.409 . S
C1721 H1713 0.930 . S
C1721 C1719 1.419 . S
C1721 C1722 1.362 . S
C1722 H1714 0.930 . S
C1722 C1721 1.362 . S
C1722 C1725 1.409 . S
C1723 H1715 0.930 . S
C1723 C1724 1.355 . S
C1723 C1725 1.415 . S
C1724 C1723 1.355 . S
C1724 C1726 1.419 . S
C1725 C1720 1.425 . S
C1725 C1722 1.409 . S
C1725 C1723 1.415 . S
C1726 H1716 0.930 . S
C1726 C1724 1.419 . S
C1726 C1727 1.362 . S
C1727 H1717 0.930 . S
C1727 C1720 1.409 . S
C1727 C1726 1.362 . S
H1728 C1734 0.930 . S
H1729 C1737 0.930 . S
H1730 C1738 0.930 . S
H1731 C1739 0.930 . S
H1732 C1742 0.930 . S
H1733 C1743 0.930 . S
C1734 H1728 0.930 . S
C1734 C1735 1.355 . S
C1734 C1736 1.415 1_655 S
C1735 C1734 1.355 . S
C1735 C1737 1.419 1_565 S
C1736 C1734 1.415 1_455 S
C1736 C1741 1.425 1_465 S
C1736 C1743 1.409 . S
C1737 H1729 0.930 . S
C1737 C1735 1.419 1_545 S
C1737 C1738 1.362 . S
C1738 H1730 0.930 . S
C1738 C1737 1.362 . S
C1738 C1741 1.409 . S
C1739 H1731 0.930 . S
C1739 C1740 1.355 . S
C1739 C1741 1.415 1_455 S
C1740 C1739 1.355 . S
C1740 C1742 1.419 1_545 S
C1741 C1736 1.425 1_645 S
C1741 C1738 1.409 . S
C1741 C1739 1.415 1_655 S
C1742 H1732 0.930 . S
C1742 C1740 1.419 1_565 S
C1742 C1743 1.362 . S
C1743 H1733 0.930 . S
C1743 C1736 1.409 . S
C1743 C1742 1.362 . S
H1744 C1750 0.930 . S
H1745 C1753 0.930 . S
H1746 C1754 0.930 . S
H1747 C1755 0.930 . S
H1748 C1758 0.930 . S
H1749 C1759 0.930 . S
C1750 H1744 0.930 . S
C1750 C1751 1.355 . S
C1750 C1752 1.415 1_655 S
C1751 C1750 1.355 . S
C1751 C1753 1.419 1_545 S
C1752 C1750 1.415 1_455 S
C1752 C1757 1.425 1_445 S
C1752 C1759 1.409 . S
C1753 H1745 0.930 . S
C1753 C1751 1.419 1_565 S
C1753 C1754 1.362 . S
C1754 H1746 0.930 . S
C1754 C1753 1.362 . S
C1754 C1757 1.409 . S
C1755 H1747 0.930 . S
C1755 C1756 1.355 . S
C1755 C1757 1.415 1_455 S
C1756 C1755 1.355 . S
C1756 C1758 1.419 1_565 S
C1757 C1752 1.425 1_665 S
C1757 C1754 1.409 . S
C1757 C1755 1.415 1_655 S
C1758 H1748 0.930 . S
C1758 C1756 1.419 1_545 S
C1758 C1759 1.362 . S
C1759 H1749 0.930 . S
C1759 C1752 1.409 . S
C1759 C1758 1.362 . S
H1760 C1766 0.930 . S
H1761 C1769 0.930 . S
H1762 C1770 0.930 1_565 S
H1763 C1771 0.930 . S
H1764 C1774 0.930 . S
H1765 C1775 0.930 1_545 S
C1766 H1760 0.930 . S
C1766 C1767 1.355 . S
C1766 C1768 1.415 . S
C1767 C1766 1.355 . S
C1767 C1769 1.419 . S
C1768 C1766 1.415 . S
C1768 C1773 1.425 1_445 S
C1768 C1775 1.409 1_445 S
C1769 H1761 0.930 . S
C1769 C1767 1.419 . S
C1769 C1770 1.362 . S
C1770 H1762 0.930 1_545 S
C1770 C1769 1.362 . S
C1770 C1773 1.409 1_445 S
C1771 H1763 0.930 . S
C1771 C1772 1.355 . S
C1771 C1773 1.415 . S
C1772 C1771 1.355 . S
C1772 C1774 1.419 . S
C1773 C1768 1.425 1_665 S
C1773 C1770 1.409 1_665 S
C1773 C1771 1.415 . S
C1774 H1764 0.930 . S
C1774 C1772 1.419 . S
C1774 C1775 1.362 . S
C1775 H1765 0.930 1_565 S
C1775 C1768 1.409 1_665 S
C1775 C1774 1.362 . S
H1776 C1782 0.930 . S
H1777 C1785 0.930 . S
H1778 C1786 0.930 . S
H1779 C1787 0.930 . S
H1780 C1790 0.930 . S
H1781 C1791 0.930 . S
C1782 H1776 0.930 . S
C1782 C1783 1.355 . S
C1782 C1784 1.415 1_655 S
C1783 C1782 1.355 . S
C1783 C1785 1.419 1_545 S
C1784 C1782 1.415 1_455 S
C1784 C1789 1.425 1_445 S
C1784 C1791 1.409 . S
C1785 H1777 0.930 . S
C1785 C1783 1.419 1_565 S
C1785 C1786 1.362 . S
C1786 H1778 0.930 . S
C1786 C1785 1.362 . S
C1786 C1789 1.409 . S
C1787 H1779 0.930 . S
C1787 C1788 1.355 . S
C1787 C1789 1.415 1_455 S
C1788 C1787 1.355 . S
C1788 C1790 1.419 1_565 S
C1789 C1784 1.425 1_665 S
C1789 C1786 1.409 . S
C1789 C1787 1.415 1_655 S
C1790 H1780 0.930 . S
C1790 C1788 1.419 1_545 S
C1790 C1791 1.362 . S
C1791 H1781 0.930 . S
C1791 C1784 1.409 . S
C1791 C1790 1.362 . S
H1792 C1798 0.930 . S
H1793 C1801 0.930 . S
H1794 C1802 0.930 . S
H1795 C1803 0.930 . S
H1796 C1806 0.930 . S
H1797 C1807 0.930 . S
C1798 H1792 0.930 . S
C1798 C1799 1.355 . S
C1798 C1800 1.415 . S
C1799 C1798 1.355 . S
C1799 C1801 1.419 . S
C1800 C1798 1.415 . S
C1800 C1805 1.425 . S
C1800 C1807 1.409 . S
C1801 H1793 0.930 . S
C1801 C1799 1.419 . S
C1801 C1802 1.362 . S
C1802 H1794 0.930 . S
C1802 C1801 1.362 . S
C1802 C1805 1.409 . S
C1803 H1795 0.930 . S
C1803 C1804 1.355 . S
C1803 C1805 1.415 . S
C1804 C1803 1.355 . S
C1804 C1806 1.419 . S
C1805 C1800 1.425 . S
C1805 C1802 1.409 . S
C1805 C1803 1.415 . S
C1806 H1796 0.930 . S
C1806 C1804 1.419 . S
C1806 C1807 1.362 . S
C1807 H1797 0.930 . S
C1807 C1800 1.409 . S
C1807 C1806 1.362 . S
H1808 C1814 0.930 . S
H1809 C1817 0.930 . S
H1810 C1818 0.930 . S
H1811 C1819 0.930 . S
H1812 C1822 0.930 . S
H1813 C1823 0.930 . S
C1814 H1808 0.930 . S
C1814 C1815 1.355 . S
C1814 C1816 1.415 . S
C1815 C1814 1.355 . S
C1815 C1817 1.419 . S
C1816 C1814 1.415 . S
C1816 C1821 1.425 . S
C1816 C1823 1.409 . S
C1817 H1809 0.930 . S
C1817 C1815 1.419 . S
C1817 C1818 1.362 . S
C1818 H1810 0.930 . S
C1818 C1817 1.362 . S
C1818 C1821 1.409 . S
C1819 H1811 0.930 . S
C1819 C1820 1.355 . S
C1819 C1821 1.415 . S
C1820 C1819 1.355 . S
C1820 C1822 1.419 . S
C1821 C1816 1.425 . S
C1821 C1818 1.409 . S
C1821 C1819 1.415 . S
C1822 H1812 0.930 . S
C1822 C1820 1.419 . S
C1822 C1823 1.362 . S
C1823 H1813 0.930 . S
C1823 C1816 1.409 . S
C1823 C1822 1.362 . S
H1824 C1830 0.930 . S
H1825 C1833 0.930 . S
H1826 C1834 0.930 . S
H1827 C1835 0.930 . S
H1828 C1838 0.930 . S
H1829 C1839 0.930 . S
C1830 H1824 0.930 . S
C1830 C1831 1.355 . S
C1830 C1832 1.415 . S
C1831 C1830 1.355 . S
C1831 C1833 1.419 . S
C1832 C1830 1.415 . S
C1832 C1837 1.425 . S
C1832 C1839 1.409 . S
C1833 H1825 0.930 . S
C1833 C1831 1.419 . S
C1833 C1834 1.362 . S
C1834 H1826 0.930 . S
C1834 C1833 1.362 . S
C1834 C1837 1.409 . S
C1835 H1827 0.930 . S
C1835 C1836 1.355 . S
C1835 C1837 1.415 . S
C1836 C1835 1.355 . S
C1836 C1838 1.419 . S
C1837 C1832 1.425 . S
C1837 C1834 1.409 . S
C1837 C1835 1.415 . S
C1838 H1828 0.930 . S
C1838 C1836 1.419 . S
C1838 C1839 1.362 . S
C1839 H1829 0.930 . S
C1839 C1832 1.409 . S
C1839 C1838 1.362 . S
H1840 C1846 0.930 . S
H1841 C1849 0.930 . S
H1842 C1850 0.930 . S
H1843 C1851 0.930 . S
H1844 C1854 0.930 . S
H1845 C1855 0.930 . S
C1846 H1840 0.930 . S
C1846 C1847 1.355 . S
C1846 C1848 1.415 . S
C1847 C1846 1.355 . S
C1847 C1849 1.419 . S
C1848 C1846 1.415 . S
C1848 C1853 1.425 . S
C1848 C1855 1.409 . S
C1849 H1841 0.930 . S
C1849 C1847 1.419 . S
C1849 C1850 1.362 . S
C1850 H1842 0.930 . S
C1850 C1849 1.362 . S
C1850 C1853 1.409 . S
C1851 H1843 0.930 . S
C1851 C1852 1.355 . S
C1851 C1853 1.415 . S
C1852 C1851 1.355 . S
C1852 C1854 1.419 . S
C1853 C1848 1.425 . S
C1853 C1850 1.409 . S
C1853 C1851 1.415 . S
C1854 H1844 0.930 . S
C1854 C1852 1.419 . S
C1854 C1855 1.362 . S
C1855 H1845 0.930 . S
C1855 C1848 1.409 . S
C1855 C1854 1.362 . S
H1856 C1862 0.930 . S
H1857 C1865 0.930 . S
H1858 C1866 0.930 . S
H1859 C1867 0.930 . S
H1860 C1870 0.930 . S
H1861 C1871 0.930 . S
C1862 H1856 0.930 . S
C1862 C1863 1.355 . S
C1862 C1864 1.415 . S
C1863 C1862 1.355 . S
C1863 C1865 1.419 . S
C1864 C1862 1.415 . S
C1864 C1869 1.425 . S
C1864 C1871 1.409 . S
C1865 H1857 0.930 . S
C1865 C1863 1.419 . S
C1865 C1866 1.362 . S
C1866 H1858 0.930 . S
C1866 C1865 1.362 . S
C1866 C1869 1.409 . S
C1867 H1859 0.930 . S
C1867 C1868 1.355 . S
C1867 C1869 1.415 . S
C1868 C1867 1.355 . S
C1868 C1870 1.419 . S
C1869 C1864 1.425 . S
C1869 C1866 1.409 . S
C1869 C1867 1.415 . S
C1870 H1860 0.930 . S
C1870 C1868 1.419 . S
C1870 C1871 1.362 . S
C1871 H1861 0.930 . S
C1871 C1864 1.409 . S
C1871 C1870 1.362 . S
H1872 C1878 0.930 . S
H1873 C1881 0.930 . S
H1874 C1882 0.930 . S
H1875 C1883 0.930 . S
H1876 C1886 0.930 . S
H1877 C1887 0.930 . S
C1878 H1872 0.930 . S
C1878 C1879 1.355 . S
C1878 C1880 1.415 . S
C1879 C1878 1.355 . S
C1879 C1881 1.419 . S
C1880 C1878 1.415 . S
C1880 C1885 1.425 . S
C1880 C1887 1.409 . S
C1881 H1873 0.930 . S
C1881 C1879 1.419 . S
C1881 C1882 1.362 . S
C1882 H1874 0.930 . S
C1882 C1881 1.362 . S
C1882 C1885 1.409 . S
C1883 H1875 0.930 . S
C1883 C1884 1.355 . S
C1883 C1885 1.415 . S
C1884 C1883 1.355 . S
C1884 C1886 1.419 . S
C1885 C1880 1.425 . S
C1885 C1882 1.409 . S
C1885 C1883 1.415 . S
C1886 H1876 0.930 . S
C1886 C1884 1.419 . S
C1886 C1887 1.362 . S
C1887 H1877 0.930 . S
C1887 C1880 1.409 . S
C1887 C1886 1.362 . S
H1888 C1894 0.930 . S
H1889 C1897 0.930 . S
H1890 C1898 0.930 . S
H1891 C1899 0.930 . S
H1892 C1902 0.930 . S
H1893 C1903 0.930 . S
C1894 H1888 0.930 . S
C1894 C1895 1.355 . S
C1894 C1896 1.415 . S
C1895 C1894 1.355 . S
C1895 C1897 1.419 . S
C1896 C1894 1.415 . S
C1896 C1901 1.425 . S
C1896 C1903 1.409 . S
C1897 H1889 0.930 . S
C1897 C1895 1.419 . S
C1897 C1898 1.362 . S
C1898 H1890 0.930 . S
C1898 C1897 1.362 . S
C1898 C1901 1.409 . S
C1899 H1891 0.930 . S
C1899 C1900 1.355 . S
C1899 C1901 1.415 . S
C1900 C1899 1.355 . S
C1900 C1902 1.419 . S
C1901 C1896 1.425 . S
C1901 C1898 1.409 . S
C1901 C1899 1.415 . S
C1902 H1892 0.930 . S
C1902 C1900 1.419 . S
C1902 C1903 1.362 . S
C1903 H1893 0.930 . S
C1903 C1896 1.409 . S
C1903 C1902 1.362 . S
H1904 C1910 0.930 . S
H1905 C1913 0.930 . S
H1906 C1914 0.930 . S
H1907 C1915 0.930 . S
H1908 C1918 0.930 . S
H1909 C1919 0.930 . S
C1910 H1904 0.930 . S
C1910 C1911 1.355 . S
C1910 C1912 1.415 . S
C1911 C1910 1.355 . S
C1911 C1913 1.419 . S
C1912 C1910 1.415 . S
C1912 C1917 1.425 . S
C1912 C1919 1.409 . S
C1913 H1905 0.930 . S
C1913 C1911 1.419 . S
C1913 C1914 1.362 . S
C1914 H1906 0.930 . S
C1914 C1913 1.362 . S
C1914 C1917 1.409 . S
C1915 H1907 0.930 . S
C1915 C1916 1.355 . S
C1915 C1917 1.415 . S
C1916 C1915 1.355 . S
C1916 C1918 1.419 . S
C1917 C1912 1.425 . S
C1917 C1914 1.409 . S
C1917 C1915 1.415 . S
C1918 H1908 0.930 . S
C1918 C1916 1.419 . S
C1918 C1919 1.362 . S
C1919 H1909 0.930 . S
C1919 C1912 1.409 . S
C1919 C1918 1.362 . S
H1920 C1926 0.930 . S
H1921 C1929 0.930 . S
H1922 C1930 0.930 . S
H1923 C1931 0.930 . S
H1924 C1934 0.930 . S
H1925 C1935 0.930 . S
C1926 H1920 0.930 . S
C1926 C1927 1.355 . S
C1926 C1928 1.415 . S
C1927 C1926 1.355 . S
C1927 C1929 1.419 . S
C1928 C1926 1.415 . S
C1928 C1933 1.425 . S
C1928 C1935 1.409 . S
C1929 H1921 0.930 . S
C1929 C1927 1.419 . S
C1929 C1930 1.362 . S
C1930 H1922 0.930 . S
C1930 C1929 1.362 . S
C1930 C1933 1.409 . S
C1931 H1923 0.930 . S
C1931 C1932 1.355 . S
C1931 C1933 1.415 . S
C1932 C1931 1.355 . S
C1932 C1934 1.419 . S
C1933 C1928 1.425 . S
C1933 C1930 1.409 . S
C1933 C1931 1.415 . S
C1934 H1924 0.930 . S
C1934 C1932 1.419 . S
C1934 C1935 1.362 . S
C1935 H1925 0.930 . S
C1935 C1928 1.409 . S
C1935 C1934 1.362 . S
H1936 C1942 0.930 . S
H1937 C1945 0.930 . S
H1938 C1946 0.930 . S
H1939 C1947 0.930 . S
H1940 C1950 0.930 . S
H1941 C1951 0.930 . S
C1942 H1936 0.930 . S
C1942 C1943 1.355 . S
C1942 C1944 1.415 . S
C1943 C1942 1.355 . S
C1943 C1945 1.419 . S
C1944 C1942 1.415 . S
C1944 C1949 1.425 . S
C1944 C1951 1.409 . S
C1945 H1937 0.930 . S
C1945 C1943 1.419 . S
C1945 C1946 1.362 . S
C1946 H1938 0.930 . S
C1946 C1945 1.362 . S
C1946 C1949 1.409 . S
C1947 H1939 0.930 . S
C1947 C1948 1.355 . S
C1947 C1949 1.415 . S
C1948 C1947 1.355 . S
C1948 C1950 1.419 . S
C1949 C1944 1.425 . S
C1949 C1946 1.409 . S
C1949 C1947 1.415 . S
C1950 H1940 0.930 . S
C1950 C1948 1.419 . S
C1950 C1951 1.362 . S
C1951 H1941 0.930 . S
C1951 C1944 1.409 . S
C1951 C1950 1.362 . S
H1952 C1958 0.930 . S
H1953 C1961 0.930 . S
H1954 C1962 0.930 . S
H1955 C1963 0.930 . S
H1956 C1966 0.930 . S
H1957 C1967 0.930 . S
C1958 H1952 0.930 . S
C1958 C1959 1.355 . S
C1958 C1960 1.415 . S
C1959 C1958 1.355 . S
C1959 C1961 1.419 . S
C1960 C1958 1.415 . S
C1960 C1965 1.425 . S
C1960 C1967 1.409 . S
C1961 H1953 0.930 . S
C1961 C1959 1.419 . S
C1961 C1962 1.362 . S
C1962 H1954 0.930 . S
C1962 C1961 1.362 . S
C1962 C1965 1.409 . S
C1963 H1955 0.930 . S
C1963 C1964 1.355 . S
C1963 C1965 1.415 . S
C1964 C1963 1.355 . S
C1964 C1966 1.419 . S
C1965 C1960 1.425 . S
C1965 C1962 1.409 . S
C1965 C1963 1.415 . S
C1966 H1956 0.930 . S
C1966 C1964 1.419 . S
C1966 C1967 1.362 . S
C1967 H1957 0.930 . S
C1967 C1960 1.409 . S
C1967 C1966 1.362 . S
H1968 C1974 0.930 . S
H1969 C1977 0.930 . S
H1970 C1978 0.930 . S
H1971 C1979 0.930 . S
H1972 C1982 0.930 . S
H1973 C1983 0.930 . S
C1974 H1968 0.930 . S
C1974 C1975 1.355 . S
C1974 C1976 1.415 . S
C1975 C1974 1.355 . S
C1975 C1977 1.419 . S
C1976 C1974 1.415 . S
C1976 C1981 1.425 . S
C1976 C1983 1.409 . S
C1977 H1969 0.930 . S
C1977 C1975 1.419 . S
C1977 C1978 1.362 . S
C1978 H1970 0.930 . S
C1978 C1977 1.362 . S
C1978 C1981 1.409 . S
C1979 H1971 0.930 . S
C1979 C1980 1.355 . S
C1979 C1981 1.415 . S
C1980 C1979 1.355 . S
C1980 C1982 1.419 . S
C1981 C1976 1.425 . S
C1981 C1978 1.409 . S
C1981 C1979 1.415 . S
C1982 H1972 0.930 . S
C1982 C1980 1.419 . S
C1982 C1983 1.362 . S
C1983 H1973 0.930 . S
C1983 C1976 1.409 . S
C1983 C1982 1.362 . S
H1984 C1990 0.930 . S
H1985 C1993 0.930 1_565 S
H1986 C1994 0.930 . S
H1987 C1995 0.930 . S
H1988 C1998 0.930 . S
H1989 C1999 0.930 . S
C1990 H1984 0.930 . S
C1990 C1991 1.355 . S
C1990 C1992 1.415 . S
C1991 C1990 1.355 . S
C1991 C1993 1.419 . S
C1992 C1990 1.415 . S
C1992 C1997 1.425 . S
C1992 C1999 1.409 . S
C1993 H1985 0.930 1_545 S
C1993 C1991 1.419 . S
C1993 C1994 1.362 . S
C1994 H1986 0.930 . S
C1994 C1993 1.362 . S
C1994 C1997 1.409 . S
C1995 H1987 0.930 . S
C1995 C1996 1.355 . S
C1995 C1997 1.415 . S
C1996 C1995 1.355 . S
C1996 C1998 1.419 . S
C1997 C1992 1.425 . S
C1997 C1994 1.409 . S
C1997 C1995 1.415 . S
C1998 H1988 0.930 . S
C1998 C1996 1.419 . S
C1998 C1999 1.362 . S
C1999 H1989 0.930 . S
C1999 C1992 1.409 . S
C1999 C1998 1.362 . S
H2000 C2006 0.930 . S
H2001 C2009 0.930 . S
H2002 C2010 0.930 . S
H2003 C2011 0.930 . S
H2004 C2014 0.930 . S
H2005 C2015 0.930 . S
C2006 H2000 0.930 . S
C2006 C2007 1.355 . S
C2006 C2008 1.415 . S
C2007 C2006 1.355 . S
C2007 C2009 1.419 . S
C2008 C2006 1.415 . S
C2008 C2013 1.425 . S
C2008 C2015 1.409 . S
C2009 H2001 0.930 . S
C2009 C2007 1.419 . S
C2009 C2010 1.362 . S
C2010 H2002 0.930 . S
C2010 C2009 1.362 . S
C2010 C2013 1.409 . S
C2011 H2003 0.930 . S
C2011 C2012 1.355 . S
C2011 C2013 1.415 . S
C2012 C2011 1.355 . S
C2012 C2014 1.419 . S
C2013 C2008 1.425 . S
C2013 C2010 1.409 . S
C2013 C2011 1.415 . S
C2014 H2004 0.930 . S
C2014 C2012 1.419 . S
C2014 C2015 1.362 . S
C2015 H2005 0.930 . S
C2015 C2008 1.409 . S
C2015 C2014 1.362 . S
H2016 C2022 0.930 . S
H2017 C2025 0.930 . S
H2018 C2026 0.930 . S
H2019 C2027 0.930 . S
H2020 C2030 0.930 . S
H2021 C2031 0.930 . S
C2022 H2016 0.930 . S
C2022 C2023 1.355 . S
C2022 C2024 1.415 . S
C2023 C2022 1.355 . S
C2023 C2025 1.419 . S
C2024 C2022 1.415 . S
C2024 C2029 1.425 . S
C2024 C2031 1.409 . S
C2025 H2017 0.930 . S
C2025 C2023 1.419 . S
C2025 C2026 1.362 . S
C2026 H2018 0.930 . S
C2026 C2025 1.362 . S
C2026 C2029 1.409 . S
C2027 H2019 0.930 . S
C2027 C2028 1.355 . S
C2027 C2029 1.415 . S
C2028 C2027 1.355 . S
C2028 C2030 1.419 . S
C2029 C2024 1.425 . S
C2029 C2026 1.409 . S
C2029 C2027 1.415 . S
C2030 H2020 0.930 . S
C2030 C2028 1.419 . S
C2030 C2031 1.362 . S
C2031 H2021 0.930 . S
C2031 C2024 1.409 . S
C2031 C2030 1.362 . S
H2032 C2038 0.930 . S
H2033 C2041 0.930 . S
H2034 C2042 0.930 . S
H2035 C2043 0.930 . S
H2036 C2046 0.930 . S
H2037 C2047 0.930 . S
C2038 H2032 0.930 . S
C2038 C2039 1.355 . S
C2038 C2040 1.415 . S
C2039 C2038 1.355 . S
C2039 C2041 1.419 . S
C2040 C2038 1.415 . S
C2040 C2045 1.425 . S
C2040 C2047 1.409 . S
C2041 H2033 0.930 . S
C2041 C2039 1.419 . S
C2041 C2042 1.362 . S
C2042 H2034 0.930 . S
C2042 C2041 1.362 . S
C2042 C2045 1.409 . S
C2043 H2035 0.930 . S
C2043 C2044 1.355 . S
C2043 C2045 1.415 . S
C2044 C2043 1.355 . S
C2044 C2046 1.419 . S
C2045 C2040 1.425 . S
C2045 C2042 1.409 . S
C2045 C2043 1.415 . S
C2046 H2036 0.930 . S
C2046 C2044 1.419 . S
C2046 C2047 1.362 . S
C2047 H2037 0.930 . S
C2047 C2040 1.409 . S
C2047 C2046 1.362 . S
H2048 C2054 0.930 . S
H2049 C2057 0.930 . S
H2050 C2058 0.930 . S
H2051 C2059 0.930 . S
H2052 C2062 0.930 . S
H2053 C2063 0.930 . S
C2054 H2048 0.930 . S
C2054 C2055 1.355 . S
C2054 C2056 1.415 . S
C2055 C2054 1.355 . S
C2055 C2057 1.419 . S
C2056 C2054 1.415 . S
C2056 C2061 1.425 . S
C2056 C2063 1.409 . S
C2057 H2049 0.930 . S
C2057 C2055 1.419 . S
C2057 C2058 1.362 . S
C2058 H2050 0.930 . S
C2058 C2057 1.362 . S
C2058 C2061 1.409 . S
C2059 H2051 0.930 . S
C2059 C2060 1.355 . S
C2059 C2061 1.415 . S
C2060 C2059 1.355 . S
C2060 C2062 1.419 . S
C2061 C2056 1.425 . S
C2061 C2058 1.409 . S
C2061 C2059 1.415 . S
C2062 H2052 0.930 . S
C2062 C2060 1.419 . S
C2062 C2063 1.362 . S
C2063 H2053 0.930 . S
C2063 C2056 1.409 . S
C2063 C2062 1.362 . S
H2064 C2070 0.930 . S
H2065 C2073 0.930 . S
H2066 C2074 0.930 . S
H2067 C2075 0.930 . S
H2068 C2078 0.930 1_565 S
H2069 C2079 0.930 . S
C2070 H2064 0.930 . S
C2070 C2071 1.355 . S
C2070 C2072 1.415 . S
C2071 C2070 1.355 . S
C2071 C2073 1.419 . S
C2072 C2070 1.415 . S
C2072 C2077 1.425 . S
C2072 C2079 1.409 . S
C2073 H2065 0.930 . S
C2073 C2071 1.419 . S
C2073 C2074 1.362 . S
C2074 H2066 0.930 . S
C2074 C2073 1.362 . S
C2074 C2077 1.409 . S
C2075 H2067 0.930 . S
C2075 C2076 1.355 . S
C2075 C2077 1.415 . S
C2076 C2075 1.355 . S
C2076 C2078 1.419 . S
C2077 C2072 1.425 . S
C2077 C2074 1.409 . S
C2077 C2075 1.415 . S
C2078 H2068 0.930 1_545 S
C2078 C2076 1.419 . S
C2078 C2079 1.362 . S
C2079 H2069 0.930 . S
C2079 C2072 1.409 . S
C2079 C2078 1.362 . S
H2080 C2086 0.930 . S
H2081 C2089 0.930 . S
H2082 C2090 0.930 . S
H2083 C2091 0.930 . S
H2084 C2094 0.930 . S
H2085 C2095 0.930 . S
C2086 H2080 0.930 . S
C2086 C2087 1.355 . S
C2086 C2088 1.415 . S
C2087 C2086 1.355 . S
C2087 C2089 1.419 . S
C2088 C2086 1.415 . S
C2088 C2093 1.425 . S
C2088 C2095 1.409 . S
C2089 H2081 0.930 . S
C2089 C2087 1.419 . S
C2089 C2090 1.362 . S
C2090 H2082 0.930 . S
C2090 C2089 1.362 . S
C2090 C2093 1.409 . S
C2091 H2083 0.930 . S
C2091 C2092 1.355 . S
C2091 C2093 1.415 . S
C2092 C2091 1.355 . S
C2092 C2094 1.419 . S
C2093 C2088 1.425 . S
C2093 C2090 1.409 . S
C2093 C2091 1.415 . S
C2094 H2084 0.930 . S
C2094 C2092 1.419 . S
C2094 C2095 1.362 . S
C2095 H2085 0.930 . S
C2095 C2088 1.409 . S
C2095 C2094 1.362 . S
H2096 C2102 0.930 . S
H2097 C2105 0.930 . S
H2098 C2106 0.930 . S
H2099 C2107 0.930 . S
H2100 C2110 0.930 . S
H2101 C2111 0.930 . S
C2102 H2096 0.930 . S
C2102 C2103 1.355 . S
C2102 C2104 1.415 . S
C2103 C2102 1.355 . S
C2103 C2105 1.419 . S
C2104 C2102 1.415 . S
C2104 C2109 1.425 . S
C2104 C2111 1.409 . S
C2105 H2097 0.930 . S
C2105 C2103 1.419 . S
C2105 C2106 1.362 . S
C2106 H2098 0.930 . S
C2106 C2105 1.362 . S
C2106 C2109 1.409 . S
C2107 H2099 0.930 . S
C2107 C2108 1.355 . S
C2107 C2109 1.415 . S
C2108 C2107 1.355 . S
C2108 C2110 1.419 . S
C2109 C2104 1.425 . S
C2109 C2106 1.409 . S
C2109 C2107 1.415 . S
C2110 H2100 0.930 . S
C2110 C2108 1.419 . S
C2110 C2111 1.362 . S
C2111 H2101 0.930 . S
C2111 C2104 1.409 . S
C2111 C2110 1.362 . S
C1351 C67 1.409 . S
C1356 C823 1.413 . S
C1367 C151 1.476 . S
C1372 C739 1.470 . S
C1383 C991 1.476 . S
C1388 C235 1.470 . S
C1399 C319 1.406 . S
C1404 C907 1.442 . S
C1415 C1148 1.426 . S
C1420 C392 1.404 . S
C1431 C1064 1.445 . S
C1436 C476 1.479 . S
C1447 C1316 1.436 . S
C1452 C560 1.404 . S
C1463 C644 1.451 . S
C1468 C1232 1.480 . S
C1479 C231 1.650 . S
C1484 C63 1.607 . S
C1495 C315 1.632 . S
C1500 C147 1.629 . S
C1511 C578 1.642 . S
C1516 C410 1.610 . S
C1527 C494 1.619 . S
C1532 C662 1.641 . S
C1543 C903 1.646 . S
C1548 C735 1.613 . S
C1559 C987 1.620 . S
C1564 C819 1.640 . S
C1575 C1082 1.650 . S
C1580 C1250 1.605 . S
C1591 C1166 1.622 . S
C1596 C1334 1.638 . S
C1607 C483 1.741 . S
C1612 C74 1.676 . S
C1623 C399 1.744 . S
C1628 C158 1.673 . S
C1639 C242 1.671 . S
C1644 C651 1.746 . S
C1655 C567 1.745 . S
C1660 C326 1.671 . S
C1671 C746 1.675 . S
C1676 C1155 1.742 . S
C1687 C1071 1.680 . S
C1692 C830 1.737 . S
C1703 C914 1.672 . S
C1708 C1323 1.745 . S
C1719 C1239 1.680 . S
C1724 C998 1.737 . S
C1735 C140 1.425 . S
C1740 C56 1.409 . S
C1751 C308 1.432 . S
C1756 C224 1.407 . S
C1767 C487 1.452 . S
C1772 C403 1.412 . S
C1783 C571 1.413 . S
C1788 C655 1.417 . S
C1799 C812 1.431 . S
C1804 C728 1.474 . S
C1815 C980 1.433 . S
C1820 C896 1.407 . S
C1831 C1075 1.441 . S
C1836 C1159 1.408 . S
C1847 C1243 1.416 . S
C1852 C1327 1.413 . S
C1863 C58 1.262 . S
C1868 C70 1.262 . S
C1879 C142 1.403 . S
C1884 C154 1.403 . S
C1895 C226 1.260 . S
C1900 C238 1.260 . S
C1911 C322 1.287 . S
C1916 C310 1.287 . S
C1927 C406 1.261 . S
C1932 C394 1.261 . S
C1943 C478 1.399 . S
C1948 C490 1.399 . S
C1959 C574 1.407 . S
C1964 C562 1.407 . S
C1975 C658 1.380 . S
C1980 C646 1.380 . S
C1991 C742 1.260 1_545 S
C1996 C730 1.260 . S
C2007 C814 1.400 . S
C2012 C826 1.400 1_565 S
C2023 C910 1.292 1_565 S
C2028 C898 1.292 . S
C2039 C994 1.402 1_545 S
C2044 C982 1.402 . S
C2055 C1078 1.343 . S
C2060 C1066 1.343 1_565 S
C2071 C1162 1.277 . S
C2076 C1150 1.277 1_545 S
C2087 C1234 1.388 1_545 S
C2092 C1246 1.388 . S
C2103 C1330 1.278 . S
C2108 C1318 1.278 1_565 S
