# Generated by pormake.
# Topology soe, (5)-cn, num edge types: 1
# Building blocks:
#     Node 0, Type 0, BuildingBlock: XOMCOT_clean_sbu_1, # of connection points: 5
#     Node 1, Type 0, BuildingBlock: XOMCOT_clean_sbu_1, # of connection points: 5
#     Node 2, Type 0, BuildingBlock: XOMCOT_clean_sbu_1, # of connection points: 5
#     Node 3, Type 0, BuildingBlock: XOMCOT_clean_sbu_1, # of connection points: 5
#     Node 4, Type 0, BuildingBlock: XOMCOT_clean_sbu_1, # of connection points: 5
#     Node 5, Type 0, BuildingBlock: XOMCOT_clean_sbu_1, # of connection points: 5
#     Node 6, Type 0, BuildingBlock: XOMCOT_clean_sbu_1, # of connection points: 5
#     Node 7, Type 0, BuildingBlock: XOMCOT_clean_sbu_1, # of connection points: 5
#     Edge 8, Type (0, 0), BuildingBlock: ZUJKAS_clean_linker_0, # of connection points: 2
#     Edge 9, Type (0, 0), BuildingBlock: ZUJKAS_clean_linker_0, # of connection points: 2
#     Edge 10, Type (0, 0), BuildingBlock: ZUJKAS_clean_linker_0, # of connection points: 2
#     Edge 11, Type (0, 0), BuildingBlock: ZUJKAS_clean_linker_0, # of connection points: 2
#     Edge 12, Type (0, 0), BuildingBlock: ZUJKAS_clean_linker_0, # of connection points: 2
#     Edge 13, Type (0, 0), BuildingBlock: ZUJKAS_clean_linker_0, # of connection points: 2
#     Edge 14, Type (0, 0), BuildingBlock: ZUJKAS_clean_linker_0, # of connection points: 2
#     Edge 15, Type (0, 0), BuildingBlock: ZUJKAS_clean_linker_0, # of connection points: 2
#     Edge 16, Type (0, 0), BuildingBlock: ZUJKAS_clean_linker_0, # of connection points: 2
#     Edge 17, Type (0, 0), BuildingBlock: ZUJKAS_clean_linker_0, # of connection points: 2
#     Edge 18, Type (0, 0), BuildingBlock: ZUJKAS_clean_linker_0, # of connection points: 2
#     Edge 19, Type (0, 0), BuildingBlock: ZUJKAS_clean_linker_0, # of connection points: 2
#     Edge 20, Type (0, 0), BuildingBlock: ZUJKAS_clean_linker_0, # of connection points: 2
#     Edge 21, Type (0, 0), BuildingBlock: ZUJKAS_clean_linker_0, # of connection points: 2
#     Edge 22, Type (0, 0), BuildingBlock: ZUJKAS_clean_linker_0, # of connection points: 2
#     Edge 23, Type (0, 0), BuildingBlock: ZUJKAS_clean_linker_0, # of connection points: 2
#     Edge 24, Type (0, 0), BuildingBlock: ZUJKAS_clean_linker_0, # of connection points: 2
#     Edge 25, Type (0, 0), BuildingBlock: ZUJKAS_clean_linker_0, # of connection points: 2
#     Edge 26, Type (0, 0), BuildingBlock: ZUJKAS_clean_linker_0, # of connection points: 2
#     Edge 27, Type (0, 0), BuildingBlock: ZUJKAS_clean_linker_0, # of connection points: 2
# Relax obj value: 0.045
# Max RMSD: 0.083
# Mean RMSD: 0.083
data_MOF--net-soe--node1-XOMCOT_clean_sbu_1--edge1-ZUJKAS_clean_linker_0
_symmetry_space_group_name_H-M    P1
_symmetry_Int_Tables_number       1
_symmetry_cell_setting            triclinic
loop_
_symmetry_equiv_pos_as_xyz
'x, y, z'
_cell_length_a     70.439243
_cell_length_b     59.504768
_cell_length_c     21.988716
_cell_angle_alpha  89.955873
_cell_angle_beta   90.043801
_cell_angle_gamma 90.080939
loop_
_atom_site_label
_atom_site_type_symbol
_atom_site_fract_x
_atom_site_fract_y
_atom_site_fract_z
_atom_type_partial_charge
C0 C 0.14198 0.12442 0.0829 0.0
C1 C 0.14454 0.12627 0.02117 0.0
N2 N 0.12853 0.11936 0.99317 0.0
N3 N 0.12446 0.1163 0.09399 0.0
C4 C 0.11654 0.11351 0.03855 0.0
H5 H 0.15235 0.12833 0.1176 0.0
Co6 Co 0.11497 0.10989 0.17091 0.0
C7 C 0.08974 0.07043 0.15242 0.0
O8 O 0.09763 0.06083 0.2 0.0
N9 N 0.10515 0.10416 0.2493 0.0
C10 C 0.08363 0.10156 0.32327 0.0
C11 C 0.08635 0.10347 0.26173 0.0
C12 C 0.11351 0.1034 0.30477 0.0
N13 N 0.10074 0.1016 0.35035 0.0
O14 O 0.09808 0.13513 0.1652 0.0
H15 H 0.07521 0.10512 0.22817 0.0
H16 H 0.12856 0.10484 0.31248 0.0
O17 O 0.09554 0.08982 0.13514 0.0
C18 C 0.10693 0.15318 0.17836 0.0
O19 O 0.12514 0.15197 0.19094 0.0
N20 N 0.13326 0.08681 0.17737 0.0
C21 C 0.16677 0.06146 0.17716 0.0
C22 C 0.15144 0.05555 0.1395 0.0
C23 C 0.13489 0.06866 0.13957 0.0
C24 C 0.14831 0.09314 0.21237 0.0
C25 C 0.16494 0.08047 0.21419 0.0
H26 H 0.12403 0.06497 0.1064 0.0
H27 H 0.14802 0.10912 0.23555 0.0
H28 H 0.10227 0.10732 0.03162 0.0
H29 H 0.15744 0.1317 0.9988 0.0
H30 H 0.07008 0.10136 0.34649 0.0
H31 H 0.15244 0.04137 0.10883 0.0
H32 H 0.17672 0.08639 0.24155 0.0
C33 C 0.37967 0.90705 0.08337 0.0
C34 C 0.37704 0.9052 0.02163 0.0
N35 N 0.39326 0.91137 0.99362 0.0
N36 N 0.39743 0.91442 0.0944 0.0
C37 C 0.40541 0.91677 0.03895 0.0
H38 H 0.3692 0.90355 0.11809 0.0
Co39 Co 0.40734 0.92034 0.17113 0.0
C40 C 0.43259 0.95977 0.15236 0.0
O41 O 0.42494 0.96924 0.20046 0.0
N42 N 0.41763 0.92555 0.24924 0.0
C43 C 0.4397 0.92728 0.32173 0.0
C44 C 0.4365 0.92623 0.26032 0.0
C45 C 0.40971 0.92552 0.30538 0.0
N46 N 0.42282 0.92671 0.35026 0.0
O47 O 0.42403 0.89497 0.1638 0.0
H48 H 0.4474 0.92518 0.22584 0.0
H49 H 0.39477 0.92324 0.31392 0.0
O50 O 0.42667 0.94044 0.135 0.0
C51 C 0.41506 0.87693 0.17624 0.0
O52 O 0.39687 0.87824 0.18892 0.0
N53 N 0.38923 0.94354 0.17928 0.0
C54 C 0.35568 0.96884 0.18037 0.0
C55 C 0.37083 0.97477 0.14202 0.0
C56 C 0.3874 0.9617 0.14148 0.0
C57 C 0.3744 0.93729 0.21528 0.0
C58 C 0.35777 0.94993 0.21773 0.0
H59 H 0.39807 0.96535 0.10769 0.0
H60 H 0.37477 0.92129 0.23838 0.0
H61 H 0.4199 0.92223 0.032 0.0
H62 H 0.36401 0.90022 0.99926 0.0
H63 H 0.45347 0.92791 0.34351 0.0
H64 H 0.36963 0.98888 0.11112 0.0
H65 H 0.34613 0.94399 0.24564 0.0
C66 C 0.13995 0.3967 0.43164 0.0
C67 C 0.1427 0.39454 0.49328 0.0
N68 N 0.12835 0.40504 0.52225 0.0
N69 N 0.12398 0.40852 0.42153 0.0
C70 C 0.11715 0.41326 0.47746 0.0
H71 H 0.14927 0.39059 0.39629 0.0
Co72 Co 0.11565 0.41715 0.34487 0.0
C73 C 0.09116 0.45687 0.36653 0.0
O74 O 0.10011 0.46718 0.32206 0.0
N75 N 0.10703 0.42517 0.26614 0.0
C76 C 0.08656 0.42997 0.18985 0.0
C77 C 0.08845 0.42708 0.25143 0.0
C78 C 0.11608 0.42615 0.21182 0.0
N79 N 0.10396 0.42927 0.16489 0.0
O80 O 0.09843 0.39202 0.34326 0.0
H81 H 0.07683 0.42537 0.28322 0.0
H82 H 0.13112 0.42367 0.20583 0.0
O83 O 0.0961 0.43687 0.38138 0.0
C84 C 0.10706 0.37645 0.31455 0.0
O85 O 0.1244 0.38057 0.29543 0.0
N86 N 0.13448 0.43972 0.34526 0.0
C87 C 0.16903 0.46279 0.35563 0.0
C88 C 0.15322 0.46925 0.39034 0.0
C89 C 0.13616 0.45713 0.38557 0.0
C90 C 0.14981 0.4332 0.31201 0.0
C91 C 0.167 0.44471 0.31541 0.0
H92 H 0.12491 0.46085 0.41725 0.0
H93 H 0.14919 0.41784 0.28602 0.0
H94 H 0.1043 0.42274 0.4852 0.0
H95 H 0.15471 0.3865 0.51481 0.0
H96 H 0.07333 0.43108 0.16497 0.0
H97 H 0.15436 0.4826 0.42358 0.0
H98 H 0.17885 0.43887 0.28836 0.0
C99 C 0.38216 0.63281 0.43529 0.0
C100 C 0.37936 0.63491 0.49691 0.0
N101 N 0.39385 0.62472 0.52607 0.0
N102 N 0.39831 0.62133 0.42537 0.0
C103 C 0.40519 0.61673 0.48141 0.0
H104 H 0.37275 0.63869 0.39985 0.0
Co105 Co 0.40678 0.61274 0.34886 0.0
C106 C 0.43201 0.57369 0.37212 0.0
O107 O 0.42337 0.56289 0.3279 0.0
N108 N 0.41553 0.60475 0.2703 0.0
C109 C 0.43601 0.60014 0.19408 0.0
C110 C 0.43411 0.60301 0.25565 0.0
C111 C 0.40647 0.60371 0.21593 0.0
N112 N 0.4186 0.6007 0.16904 0.0
O113 O 0.42359 0.63825 0.34676 0.0
H114 H 0.44573 0.60485 0.28744 0.0
H115 H 0.39142 0.6061 0.20988 0.0
O116 O 0.42666 0.59362 0.38594 0.0
C117 C 0.41469 0.65363 0.31809 0.0
O118 O 0.39736 0.64917 0.29936 0.0
N119 N 0.38835 0.58972 0.34958 0.0
C120 C 0.35428 0.5656 0.35912 0.0
C121 C 0.37016 0.55965 0.39433 0.0
C122 C 0.38696 0.57228 0.38995 0.0
C123 C 0.37292 0.59582 0.31604 0.0
C124 C 0.35599 0.58378 0.319 0.0
H125 H 0.39824 0.56889 0.42186 0.0
H126 H 0.37326 0.61119 0.29001 0.0
H127 H 0.41816 0.60751 0.48933 0.0
H128 H 0.36721 0.64269 0.5183 0.0
H129 H 0.44924 0.59917 0.16924 0.0
H130 H 0.36925 0.54624 0.42754 0.0
H131 H 0.34409 0.58924 0.29154 0.0
C132 C 0.87959 0.90362 0.93088 0.0
C133 C 0.87699 0.90149 0.99257 0.0
N134 N 0.89299 0.90829 0.02085 0.0
N135 N 0.89711 0.91177 0.92014 0.0
C136 C 0.905 0.91432 0.97573 0.0
H137 H 0.86923 0.89988 0.89599 0.0
Co138 Co 0.90673 0.91857 0.84356 0.0
C139 C 0.93146 0.95827 0.86453 0.0
O140 O 0.92333 0.96811 0.81774 0.0
N141 N 0.91676 0.92465 0.76543 0.0
C142 C 0.93866 0.92743 0.6927 0.0
C143 C 0.93558 0.92621 0.75413 0.0
C144 C 0.90878 0.92418 0.70931 0.0
N145 N 0.92178 0.92602 0.6643 0.0
O146 O 0.92358 0.89326 0.84859 0.0
H147 H 0.94658 0.9255 0.78841 0.0
H148 H 0.89397 0.92099 0.70085 0.0
O149 O 0.92602 0.93857 0.8805 0.0
C150 C 0.91441 0.87572 0.83279 0.0
O151 O 0.89637 0.87784 0.8187 0.0
N152 N 0.8884 0.94164 0.83761 0.0
C153 C 0.85414 0.96567 0.84155 0.0
C154 C 0.86942 0.97151 0.87963 0.0
C155 C 0.88632 0.95906 0.87768 0.0
C156 C 0.87362 0.9357 0.80101 0.0
C157 C 0.85671 0.94781 0.80079 0.0
H158 H 0.89701 0.96237 0.91172 0.0
H159 H 0.87421 0.9202 0.77575 0.0
H160 H 0.91927 0.92046 0.98296 0.0
H161 H 0.86409 0.89596 0.01474 0.0
H162 H 0.95238 0.92865 0.67082 0.0
H163 H 0.86793 0.98459 0.91348 0.0
H164 H 0.8454 0.94242 0.77076 0.0
C165 C 0.64003 0.13116 0.91986 0.0
C166 C 0.64317 0.13335 0.98138 0.0
N167 N 0.62871 0.12339 0.01119 0.0
N168 N 0.62375 0.11975 0.91085 0.0
C169 C 0.61708 0.1154 0.96731 0.0
H170 H 0.64921 0.13709 0.88382 0.0
Co171 Co 0.61474 0.11125 0.83477 0.0
C172 C 0.59033 0.07155 0.86 0.0
O173 O 0.59896 0.06085 0.81564 0.0
N174 N 0.60535 0.1034 0.75633 0.0
C175 C 0.5842 0.09886 0.68183 0.0
C176 C 0.58674 0.10048 0.7435 0.0
C177 C 0.6137 0.10429 0.70076 0.0
N178 N 0.60117 0.10145 0.65464 0.0
O179 O 0.59761 0.13638 0.83541 0.0
H180 H 0.57542 0.1008 0.77665 0.0
H181 H 0.62833 0.10882 0.69351 0.0
O182 O 0.59537 0.09168 0.87305 0.0
C183 C 0.60405 0.15206 0.80159 0.0
O184 O 0.62022 0.14881 0.77318 0.0
N185 N 0.63333 0.08836 0.83354 0.0
C186 C 0.66693 0.06332 0.83962 0.0
C187 C 0.65184 0.05886 0.87953 0.0
C188 C 0.63522 0.07176 0.87624 0.0
C189 C 0.64821 0.09339 0.79635 0.0
C190 C 0.66485 0.08074 0.79732 0.0
H191 H 0.62448 0.06926 0.91056 0.0
H192 H 0.64787 0.10847 0.76922 0.0
H193 H 0.60428 0.1059 0.9763 0.0
H194 H 0.65518 0.14162 1.00246 0.0
H195 H 0.5707 0.09678 0.65902 0.0
H196 H 0.65312 0.04601 0.91421 0.0
H197 H 0.6765 0.08554 0.76789 0.0
C198 C 0.88045 0.62509 0.57384 0.0
C199 C 0.87751 0.62612 0.5121 0.0
N200 N 0.89346 0.61917 0.48404 0.0
N201 N 0.89812 0.61741 0.58472 0.0
C202 C 0.90578 0.61413 0.52914 0.0
H203 H 0.87024 0.62926 0.60873 0.0
Co204 Co 0.90785 0.61163 0.66172 0.0
C205 C 0.93329 0.57251 0.64481 0.0
O206 O 0.92528 0.56319 0.6926 0.0
N207 N 0.91796 0.60658 0.74027 0.0
C208 C 0.93983 0.60512 0.81344 0.0
C209 C 0.9368 0.60633 0.75194 0.0
C210 C 0.90987 0.60623 0.79616 0.0
N211 N 0.92285 0.60515 0.84144 0.0
O212 O 0.92426 0.63735 0.65499 0.0
H213 H 0.94779 0.60771 0.71781 0.0
H214 H 0.89489 0.60809 0.80433 0.0
O215 O 0.92755 0.5918 0.62655 0.0
C216 C 0.91492 0.6549 0.66942 0.0
O217 O 0.89688 0.65264 0.6833 0.0
N218 N 0.88997 0.58806 0.66909 0.0
C219 C 0.85688 0.56192 0.6686 0.0
C220 C 0.87203 0.55679 0.62963 0.0
C221 C 0.88841 0.57023 0.6301 0.0
C222 C 0.87501 0.59365 0.70531 0.0
C223 C 0.85863 0.58048 0.70722 0.0
H224 H 0.89914 0.56715 0.59613 0.0
H225 H 0.87505 0.60951 0.72906 0.0
H226 H 0.91989 0.60754 0.52178 0.0
H227 H 0.86463 0.63155 0.48966 0.0
H228 H 0.95354 0.6047 0.83561 0.0
H229 H 0.87096 0.54302 0.59763 0.0
H230 H 0.84689 0.58572 0.73565 0.0
C231 C 0.63745 0.39997 0.60057 0.0
C232 C 0.64018 0.39754 0.53895 0.0
N233 N 0.62641 0.40895 0.50947 0.0
N234 N 0.62208 0.4129 0.61013 0.0
C235 C 0.61557 0.41798 0.55394 0.0
H236 H 0.64635 0.39324 0.63627 0.0
Co237 Co 0.61383 0.42214 0.6863 0.0
C238 C 0.5907 0.46293 0.66145 0.0
O239 O 0.59973 0.47341 0.70546 0.0
N240 N 0.60519 0.43086 0.76471 0.0
C241 C 0.58477 0.43693 0.84041 0.0
C242 C 0.58672 0.43419 0.77876 0.0
C243 C 0.61406 0.4309 0.81949 0.0
N244 N 0.60198 0.43472 0.86608 0.0
O245 O 0.5956 0.39806 0.68684 0.0
H246 H 0.57513 0.43343 0.74655 0.0
H247 H 0.62887 0.42711 0.8261 0.0
O248 O 0.59515 0.44263 0.6485 0.0
C249 C 0.60108 0.38222 0.72177 0.0
O250 O 0.61712 0.38453 0.75162 0.0
N251 N 0.63343 0.44378 0.68631 0.0
C252 C 0.66858 0.46587 0.67816 0.0
C253 C 0.65324 0.47227 0.641 0.0
C254 C 0.63587 0.46076 0.64504 0.0
C255 C 0.64832 0.43707 0.72136 0.0
C256 C 0.6657 0.44824 0.71954 0.0
H257 H 0.62496 0.46455 0.61212 0.0
H258 H 0.64721 0.42185 0.74782 0.0
H259 H 0.60318 0.42822 0.54578 0.0
H260 H 0.65178 0.3886 0.51779 0.0
H261 H 0.57153 0.4389 0.86479 0.0
H262 H 0.65492 0.48516 0.60665 0.0
H263 H 0.677 0.44243 0.74898 0.0
H264 H 0.3329 0.98112 0.27536 0.0
H265 H 0.30072 0.99644 0.27067 0.0
H266 H 0.30386 0.99813 0.0749 0.0
H267 H 0.33615 0.98291 0.07926 0.0
H268 H 0.28705 0.03616 0.12266 0.0
H269 H 0.2545 0.95965 0.22191 0.0
H270 H 0.27272 0.97157 0.26902 0.0
H271 H 0.27875 0.96038 0.19553 0.0
C272 C 0.32677 0.98484 0.2313 0.0
C273 C 0.33706 0.98065 0.17768 0.0
C274 C 0.30833 0.99348 0.22867 0.0
C275 C 0.29968 0.9979 0.17238 0.0
C276 C 0.31019 0.99468 0.11884 0.0
H277 H 0.18593 0.04683 0.07604 0.0
H278 H 0.21782 0.03043 0.07168 0.0
C279 C 0.3287 0.98612 0.12143 0.0
C280 C 0.27961 1.00563 0.16954 0.0
H281 H 0.23451 0.99176 0.2133 0.0
C282 C 0.27554 0.02638 0.142 0.0
C283 C 0.26455 0.99278 0.19445 0.0
C284 C 0.26778 0.96976 0.22135 0.0
C285 C 0.25694 0.03496 0.1406 0.0
C286 C 0.24199 0.02233 0.16679 0.0
C287 C 0.246 1.00144 0.19343 0.0
C288 C 0.2222 0.03092 0.16907 0.0
C289 C 0.2535 0.05778 0.11278 0.0
C290 C 0.21382 0.03587 0.22533 0.0
C291 C 0.19559 0.04509 0.228 0.0
C292 C 0.18526 0.04937 0.17442 0.0
C293 C 0.19342 0.04357 0.11817 0.0
C294 C 0.21173 0.03445 0.11554 0.0
H295 H 0.26694 0.06721 0.10559 0.0
H296 H 0.24646 0.05567 0.06799 0.0
H297 H 0.24399 0.06795 0.1421 0.0
H298 H 0.22159 0.03311 0.26722 0.0
H299 H 0.18964 0.04917 0.27205 0.0
H300 H 0.20342 0.44192 0.36481 0.0
H301 H 0.23478 0.45911 0.37329 0.0
H302 H 0.20921 0.52491 0.37466 0.0
H303 H 0.1776 0.50773 0.36622 0.0
H304 H 0.25155 0.48783 0.29217 0.0
H305 H 0.24567 0.52841 0.51847 0.0
H306 H 0.22903 0.5074 0.49239 0.0
H307 H 0.22711 0.53595 0.46629 0.0
C308 C 0.20442 0.46007 0.3668 0.0
C309 C 0.18799 0.47348 0.3642 0.0
C310 C 0.22238 0.46986 0.372 0.0
C311 C 0.22438 0.49328 0.37513 0.0
C312 C 0.20801 0.50677 0.37352 0.0
H313 H 0.31925 0.58509 0.36598 0.0
H314 H 0.28834 0.56663 0.37181 0.0
C315 C 0.18996 0.49695 0.3685 0.0
C316 C 0.24369 0.50343 0.37678 0.0
H317 H 0.27288 0.53769 0.45953 0.0
C318 C 0.25626 0.49861 0.32899 0.0
C319 C 0.24983 0.51749 0.42484 0.0
C320 C 0.23729 0.52249 0.47873 0.0
C321 C 0.27462 0.50784 0.32719 0.0
C322 C 0.28073 0.52201 0.37502 0.0
C323 C 0.2682 0.52676 0.42301 0.0
C324 C 0.29972 0.53292 0.37445 0.0
C325 C 0.28712 0.50289 0.27313 0.0
C326 C 0.31649 0.52012 0.37528 0.0
C327 C 0.33427 0.53065 0.3715 0.0
C328 C 0.33559 0.55417 0.36675 0.0
C329 C 0.31876 0.56691 0.36807 0.0
C330 C 0.30105 0.5564 0.37195 0.0
H331 H 0.27889 0.49598 0.23429 0.0
H332 H 0.29464 0.51829 0.25777 0.0
H333 H 0.29796 0.49027 0.28632 0.0
H334 H 0.3158 0.50197 0.3783 0.0
H335 H 0.34695 0.52037 0.37079 0.0
H336 H 0.68758 0.05546 0.94295 0.0
H337 H 0.7198 0.04016 0.95018 0.0
H338 H 0.72025 0.02924 0.75625 0.0
H339 H 0.68831 0.04513 0.74869 0.0
H340 H 0.73559 1.00102 0.92526 0.0
H341 H 0.76798 0.06504 0.77544 0.0
H342 H 0.74397 0.06738 0.80304 0.0
H343 H 0.7492 0.05029 0.73755 0.0
C344 C 0.6945 0.04956 0.90199 0.0
C345 C 0.68548 0.0516 0.84518 0.0
C346 C 0.71296 0.04094 0.90611 0.0
C347 C 0.72272 0.03411 0.85355 0.0
C348 C 0.71333 0.03512 0.7972 0.0
H349 H 0.81905 0.94588 0.83245 0.0
H350 H 0.78805 0.96349 0.83885 0.0
C351 C 0.695 0.044 0.79296 0.0
C352 C 0.74264 0.02583 0.85753 0.0
H353 H 0.78683 0.03241 0.7958 0.0
C354 C 0.74682 1.00803 0.89731 0.0
C355 C 0.7575 0.03531 0.82237 0.0
C356 C 0.7545 0.05572 0.78275 0.0
C357 C 0.76518 0.99889 0.90106 0.0
C358 C 0.77969 1.0073 0.86259 0.0
C359 C 0.7757 0.02569 0.82465 0.0
C360 C 0.79883 0.99672 0.85913 0.0
C361 C 0.76883 0.98046 0.94678 0.0
C362 C 0.81543 1.00963 0.86606 0.0
C363 C 0.83339 0.99968 0.86053 0.0
C364 C 0.83513 0.97659 0.8477 0.0
C365 C 0.81842 0.96377 0.84106 0.0
C366 C 0.80056 0.97375 0.84597 0.0
H367 H 0.75889 0.98162 0.98588 0.0
H368 H 0.7665 0.96391 0.92476 0.0
H369 H 0.78359 0.9811 0.96439 0.0
H370 H 0.8145 0.02744 0.87571 0.0
H371 H 0.84589 1.01014 0.86543 0.0
H372 H 0.83617 0.54471 0.76254 0.0
H373 H 0.80451 0.52774 0.75817 0.0
H374 H 0.8039 0.53621 0.56324 0.0
H375 H 0.83586 0.55238 0.56739 0.0
H376 H 0.77239 0.54573 0.72452 0.0
H377 H 0.78591 0.47293 0.57402 0.0
H378 H 0.80488 0.48947 0.6062 0.0
H379 H 0.79247 0.4991 0.53946 0.0
C380 C 0.82938 0.54256 0.71869 0.0
C381 C 0.83854 0.54962 0.66525 0.0
C382 C 0.81126 0.53294 0.7162 0.0
C383 C 0.80181 0.53038 0.66029 0.0
C384 C 0.81102 0.53736 0.60677 0.0
H385 H 0.67785 0.50994 0.6518 0.0
H386 H 0.70958 0.5264 0.64233 0.0
C387 C 0.82929 0.54665 0.60916 0.0
C388 C 0.78201 0.52149 0.65875 0.0
H389 H 0.75358 0.48141 0.59456 0.0
C390 C 0.76831 0.5316 0.69624 0.0
C391 C 0.77663 0.50295 0.62219 0.0
C392 C 0.79079 0.49034 0.58368 0.0
C393 C 0.74953 0.52363 0.69867 0.0
C394 C 0.74402 0.50548 0.66091 0.0
C395 C 0.75769 0.49548 0.62304 0.0
C396 C 0.72457 0.49556 0.66296 0.0
C397 C 0.73601 0.53427 0.7434 0.0
C398 C 0.72234 0.47254 0.67478 0.0
C399 C 0.70426 0.46298 0.67857 0.0
C400 C 0.68784 0.47621 0.67136 0.0
C401 C 0.6901 0.4992 0.65785 0.0
C402 C 0.70828 0.50873 0.65325 0.0
H403 H 0.7437 0.5434 0.77998 0.0
H404 H 0.72693 0.5466 0.71918 0.0
H405 H 0.72668 0.52146 0.7648 0.0
H406 H 0.73463 0.46192 0.6818 0.0
H407 H 0.70324 0.44509 0.68694 0.0
H408 H 0.95321 0.94273 0.95979 0.0
H409 H 0.97986 0.96195 0.00971 0.0
H410 H 0.97232 0.01894 0.89102 0.0
H411 H 0.94572 1.0001 0.84153 0.0
H412 H 0.01383 0.97749 0.9568 0.0
H413 H 0.97373 0.04813 0.05905 0.0
H414 H 0.96224 0.02312 0.03056 0.0
H415 H 0.96979 0.04479 0.97889 0.0
C416 C 0.95713 0.95943 0.94465 0.0
C417 C 0.94724 0.96988 0.89674 0.0
C418 C 0.97239 0.97038 0.97316 0.0
C419 C 0.97793 0.99204 0.95472 0.0
C420 C 0.96808 1.00245 0.90694 0.0
H421 H 0.06822 0.08572 0.05636 0.0
H422 H 0.04157 0.06646 1.00653 0.0
C423 C 0.9529 0.99155 0.87843 0.0
C424 C 0.9944 1.00353 0.98374 0.0
H425 H 1.00739 0.05113 0.06037 0.0
C426 C 0.0124 0.99351 0.97982 0.0
C427 C 0.99257 0.02453 0.01343 0.0
C428 C 0.97353 0.03571 0.02134 0.0
C429 C 0.02864 1.00408 1.0038 0.0
C430 C 0.02681 0.02509 0.03344 0.0
C431 C 1.00882 0.0351 0.03737 0.0
C432 C 0.04328 0.03658 0.0624 0.0
C433 C 0.04769 0.99289 0.99604 0.0
C434 C 0.05301 0.02629 0.11063 0.0
C435 C 0.06818 0.03722 0.13914 0.0
C436 C 0.07396 0.05879 0.12031 0.0
C437 C 0.0642 0.0691 0.0719 0.0
C438 C 0.04895 0.05814 0.04345 0.0
H439 H 0.04748 0.98034 0.95865 0.0
H440 H 0.05895 1.00548 0.9864 0.0
H441 H 0.05147 0.98399 0.03871 0.0
H442 H 0.04868 1.00987 0.12688 0.0
H443 H 0.07527 0.02877 0.17639 0.0
H444 H 0.44722 1.00136 0.17621 0.0
H445 H 0.47352 0.02039 0.12549 0.0
H446 H 0.48034 0.9637 1.00552 0.0
H447 H 0.45371 0.94461 0.05548 0.0
H448 H 0.51056 1.00752 0.11636 0.0
H449 H 0.47905 0.01574 0.88614 0.0
H450 H 0.46514 1.00818 0.95195 0.0
H451 H 0.47948 0.98743 0.91437 0.0
C452 C 0.45419 0.99294 0.13874 0.0
C453 C 0.44827 0.97144 0.11985 0.0
C454 C 0.46928 1.00387 0.10983 0.0
C455 C 0.47881 0.99365 0.06116 0.0
C456 C 0.47297 0.97216 0.04212 0.0
H457 H 0.57591 0.02961 0.83971 0.0
H458 H 0.54924 1.01132 0.89037 0.0
C459 C 0.4578 0.9612 0.07097 0.0
C460 C 0.49518 1.0053 0.0319 0.0
H461 H 0.51161 0.02547 0.89613 0.0
C462 C 0.51075 1.01154 0.06825 0.0
C463 C 0.49544 1.0106 0.96913 0.0
C464 C 0.47882 1.00535 0.92814 0.0
C465 C 0.52667 0.02249 0.04341 0.0
C466 C 0.52696 0.02768 0.9806 0.0
C467 C 0.51139 0.02149 0.94427 0.0
C468 C 0.54346 0.03899 0.95125 0.0
C469 C 0.54326 0.02791 0.08433 0.0
C470 C 0.54912 0.06076 0.9684 0.0
C471 C 0.56447 0.07135 0.93943 0.0
C472 C 0.57439 0.06039 0.89254 0.0
C473 C 0.56866 0.03859 0.87566 0.0
C474 C 0.55335 0.02807 0.90451 0.0
H475 H 0.54278 0.01812 0.12736 0.0
H476 H 0.55693 0.02443 0.06109 0.0
H477 H 0.5429 0.04603 0.09613 0.0
H478 H 0.5415 0.06969 1.00363 0.0
H479 H 0.56843 0.08816 0.9534 0.0
H480 H 0.07723 0.49872 0.3427 0.0
H481 H 0.05058 0.51776 0.39094 0.0
H482 H 0.04173 0.4605 0.50781 0.0
H483 H 0.06867 0.44128 0.46003 0.0
H484 H 0.01285 0.50435 0.39602 0.0
H485 H 0.0431 0.513 0.62815 0.0
H486 H 0.05744 0.50586 0.56298 0.0
H487 H 0.04291 0.48483 0.59882 0.0
C488 C 0.06974 0.49014 0.37893 0.0
C489 C 0.07518 0.46843 0.39756 0.0
C490 C 0.05444 0.50109 0.40639 0.0
C491 C 0.04424 0.49071 0.45344 0.0
C492 C 0.04959 0.46903 0.47231 0.0
H493 H 0.94744 0.53095 0.67103 0.0
H494 H 0.97382 0.51145 0.62259 0.0
C495 C 0.06494 0.458 0.44475 0.0
C496 C 0.02778 0.50251 0.48134 0.0
H497 H 1.01107 0.524 0.61506 0.0
C498 C 0.01247 0.5087 0.4439 0.0
C499 C 0.02729 0.50821 0.54378 0.0
C500 C 0.04361 0.50284 0.58581 0.0
C501 C 0.99658 0.52007 0.46732 0.0
C502 C 0.99612 0.52584 0.52975 0.0
C503 C 0.01142 0.51962 0.5672 0.0
C504 C 0.97973 0.53784 0.55761 0.0
C505 C 0.98024 0.52532 0.42525 0.0
C506 C 0.97422 0.5593 0.53744 0.0
C507 C 0.95899 0.57056 0.56501 0.0
C508 C 0.94909 0.56062 0.61367 0.0
C509 C 0.95469 0.53915 0.63369 0.0
C510 C 0.96983 0.52794 0.60608 0.0
H511 H 0.98057 0.51474 0.38365 0.0
H512 H 0.96641 0.52275 0.44846 0.0
H513 H 0.98115 0.54317 0.41089 0.0
H514 H 0.98186 0.56751 0.50093 0.0
H515 H 0.95514 0.58711 0.54869 0.0
H516 H 0.4461 0.53156 0.35338 0.0
H517 H 0.47293 0.51351 0.40363 0.0
H518 H 0.48175 0.57277 0.51284 0.0
H519 H 0.4546 0.59095 0.46321 0.0
H520 H 0.51034 0.52662 0.40601 0.0
H521 H 0.48129 0.52307 0.64045 0.0
H522 H 0.46667 0.52917 0.57506 0.0
H523 H 0.48152 0.55067 0.60737 0.0
C524 C 0.45362 0.54078 0.38836 0.0
C525 C 0.44811 0.56273 0.40432 0.0
C526 C 0.46902 0.53041 0.417 0.0
C527 C 0.47927 0.54163 0.46254 0.0
C528 C 0.47385 0.56357 0.47867 0.0
H529 H 0.57767 0.50559 0.68017 0.0
H530 H 0.55119 0.52449 0.63009 0.0
C531 C 0.45838 0.574 0.45001 0.0
C532 C 0.49588 0.53044 0.4916 0.0
H533 H 0.51336 0.51204 0.62788 0.0
C534 C 0.51098 0.52338 0.45451 0.0
C535 C 0.49672 0.52619 0.5549 0.0
C536 C 0.48063 0.53247 0.59681 0.0
C537 C 0.52697 0.51249 0.479 0.0
C538 C 0.52779 0.50819 0.54226 0.0
C539 C 0.51273 0.51532 0.57939 0.0
C540 C 0.54424 0.4966 0.57109 0.0
C541 C 0.54304 0.50615 0.43707 0.0
C542 C 0.54919 0.47452 0.5548 0.0
C543 C 0.56443 0.46361 0.58337 0.0
C544 C 0.57495 0.47453 0.6291 0.0
C545 C 0.56994 0.49664 0.64513 0.0
C546 C 0.55475 0.5075 0.6166 0.0
H547 H 0.54246 0.51565 0.3936 0.0
H548 H 0.55701 0.50924 0.45895 0.0
H549 H 0.54202 0.48798 0.4262 0.0
H550 H 0.54108 0.46559 0.52063 0.0
H551 H 0.56781 0.44655 0.57011 0.0
H552 H 0.10311 0.09243 0.93477 0.0
H553 H 0.09855 0.08893 0.82497 0.0
H554 H 0.14228 0.13836 0.79423 0.0
H555 H 0.14668 0.14243 0.90377 0.0
H556 H 0.08976 0.12503 0.73777 0.0
H557 H 0.15836 0.08215 0.6917 0.0
H558 H 0.14787 0.08318 0.76661 0.0
H559 H 0.15971 0.10745 0.73621 0.0
C560 C 0.11164 0.10277 0.90489 0.0
C561 C 0.12536 0.11765 0.92843 0.0
C562 C 0.10908 0.10063 0.84209 0.0
C563 C 0.12028 0.11314 0.80167 0.0
C564 C 0.13375 0.12824 0.82477 0.0
H565 H 0.12953 0.12273 0.40925 0.0
H566 H 0.13419 0.12519 0.51939 0.0
C567 C 0.13626 0.13049 0.88749 0.0
C568 C 0.11774 0.11064 0.73523 0.0
H569 H 0.14006 0.09285 0.60623 0.0
C570 C 0.10069 0.1179 0.70892 0.0
C571 C 0.13211 0.10147 0.69794 0.0
C572 C 0.15052 0.09293 0.72436 0.0
C573 C 0.09772 0.11661 0.64588 0.0
C574 C 0.11204 0.10725 0.6085 0.0
C575 C 0.1291 0.09998 0.63495 0.0
C576 C 0.1096 0.10497 0.54179 0.0
C577 C 0.07951 0.12586 0.61981 0.0
C578 C 0.09453 0.09232 0.51783 0.0
C579 C 0.09182 0.09094 0.45501 0.0
C580 C 0.10429 0.10193 0.41487 0.0
C581 C 0.11978 0.11393 0.43892 0.0
C582 C 0.1224 0.11544 0.50184 0.0
H583 H 0.07265 0.13795 0.65139 0.0
H584 H 0.08206 0.13444 0.5757 0.0
H585 H 0.06941 0.11183 0.61199 0.0
H586 H 0.0848 0.08356 0.54774 0.0
H587 H 0.07998 0.08125 0.43775 0.0
H588 H 0.39074 0.93826 0.41152 0.0
H589 H 0.38536 0.93573 0.5212 0.0
H590 H 0.44232 0.91089 0.5462 0.0
H591 H 0.44754 0.91242 0.4369 0.0
H592 H 0.41642 0.88639 0.60936 0.0
H593 H 0.40585 0.97742 0.65229 0.0
H594 H 0.39021 0.96592 0.59576 0.0
H595 H 0.41534 0.96685 0.58169 0.0
C596 C 0.40209 0.93214 0.44024 0.0
C597 C 0.41962 0.92567 0.41509 0.0
C598 C 0.39907 0.93096 0.50307 0.0
C599 C 0.41355 0.92349 0.54199 0.0
C600 C 0.43099 0.91688 0.51706 0.0
H601 H 0.41926 0.93726 0.93467 0.0
H602 H 0.42451 0.93949 0.82502 0.0
C603 C 0.434 0.91796 0.45441 0.0
C604 C 0.41051 0.92189 0.6086 0.0
H605 H 0.39976 0.95272 0.73488 0.0
C606 C 0.4128 0.9009 0.63684 0.0
C607 C 0.40605 0.9409 0.64446 0.0
C608 C 0.40439 0.96409 0.61722 0.0
C609 C 0.41061 0.89834 0.69989 0.0
C610 C 0.40558 0.9172 0.7355 0.0
C611 C 0.40347 0.93825 0.70739 0.0
C612 C 0.40256 0.91548 0.80208 0.0
C613 C 0.41408 0.87554 0.72788 0.0
C614 C 0.38841 0.90133 0.82558 0.0
C615 C 0.38551 0.8998 0.88829 0.0
C616 C 0.39658 0.91258 0.9289 0.0
C617 C 0.41067 0.92688 0.90504 0.0
C618 C 0.41359 0.92834 0.84226 0.0
H619 H 0.42283 0.86471 0.6978 0.0
H620 H 0.42133 0.87708 0.77254 0.0
H621 H 0.40026 0.86697 0.73516 0.0
H622 H 0.37949 0.89156 0.79537 0.0
H623 H 0.37465 0.88849 0.90484 0.0
H624 H 0.10717 0.43657 0.58119 0.0
H625 H 0.10385 0.44138 0.69092 0.0
H626 H 0.14134 0.38535 0.72155 0.0
H627 H 0.14437 0.37988 0.61202 0.0
H628 H 0.09145 0.40601 0.77951 0.0
H629 H 0.16391 0.43993 0.82212 0.0
H630 H 0.15282 0.44082 0.74801 0.0
H631 H 0.16227 0.41489 0.77654 0.0
C632 C 0.11458 0.42506 0.61092 0.0
C633 C 0.1261 0.40783 0.5872 0.0
C634 C 0.11275 0.42797 0.67376 0.0
C635 C 0.12255 0.41391 0.71414 0.0
C636 C 0.13392 0.39662 0.69098 0.0
H637 H 0.13159 0.4056 0.10775 0.0
H638 H 0.13637 0.40234 0.99772 0.0
C639 C 0.13565 0.39357 0.62821 0.0
C640 C 0.12055 0.41698 0.78062 0.0
H641 H 0.14477 0.43281 0.90822 0.0
C642 C 0.10305 0.41196 0.80774 0.0
C643 C 0.13579 0.42455 0.81711 0.0
C644 C 0.15477 0.43053 0.78971 0.0
C645 C 0.10044 0.41398 0.87078 0.0
C646 C 0.11561 0.42188 0.90738 0.0
C647 C 0.13314 0.42685 0.88013 0.0
C648 C 0.11352 0.42501 0.97402 0.0
C649 C 0.08161 0.40705 0.89769 0.0
C650 C 0.09951 0.43938 0.99725 0.0
C651 C 0.09673 0.44118 0.05994 0.0
C652 C 0.10809 0.42894 0.10073 0.0
C653 C 0.12271 0.41537 0.07751 0.0
C654 C 0.12538 0.41341 0.01466 0.0
H655 H 0.07373 0.39548 0.86703 0.0
H656 H 0.08355 0.39863 0.94235 0.0
H657 H 0.07271 0.4222 0.9046 0.0
H658 H 0.09056 0.44901 0.96684 0.0
H659 H 0.08558 0.45205 0.07663 0.0
H660 H 0.43713 0.57814 0.08084 0.0
H661 H 0.43207 0.58112 0.97104 0.0
H662 H 0.38592 0.6273 1.00171 0.0
H663 H 0.39078 0.6241 0.11175 0.0
H664 H 0.3777 0.59678 0.91231 0.0
H665 H 0.44846 0.63476 0.87087 0.0
H666 H 0.44968 0.60805 0.90853 0.0
H667 H 0.43872 0.63151 0.94622 0.0
C668 C 0.42589 0.58889 0.06411 0.0
C669 C 0.41446 0.60102 0.10485 0.0
C670 C 0.42306 0.59066 1.0014 0.0
C671 C 0.40893 0.60488 0.97809 0.0
C672 C 0.397 0.61635 0.01869 0.0
H673 H 0.37741 0.64949 0.61568 0.0
H674 H 0.38049 0.64404 0.72525 0.0
C675 C 0.39972 0.61443 0.08155 0.0
C676 C 0.40678 0.60798 0.91141 0.0
H677 H 0.43076 0.62406 0.78343 0.0
C678 C 0.38926 0.60285 0.88419 0.0
C679 C 0.42188 0.61601 0.87474 0.0
C680 C 0.44068 0.62312 0.90159 0.0
C681 C 0.38656 0.60511 0.82115 0.0
C682 C 0.40173 0.61282 0.78459 0.0
C683 C 0.41921 0.61801 0.81169 0.0
C684 C 0.39968 0.61586 0.71807 0.0
C685 C 0.36762 0.59893 0.79381 0.0
C686 C 0.4097 0.60202 0.67778 0.0
C687 C 0.40785 0.60492 0.61491 0.0
C688 C 0.3961 0.62193 0.59106 0.0
C689 C 0.38632 0.63597 0.63197 0.0
C690 C 0.38808 0.63294 0.69477 0.0
H691 H 0.3586 0.58935 0.8262 0.0
H692 H 0.35995 0.6145 0.78085 0.0
H693 H 0.36961 0.58874 0.75201 0.0
H694 H 0.41878 0.58879 0.69502 0.0
H695 H 0.41544 0.59358 0.58527 0.0
H696 H 0.91793 0.93549 0.08014 0.0
H697 H 0.9229 0.93806 0.18988 0.0
H698 H 0.87967 0.88783 0.21897 0.0
H699 H 0.87513 0.88447 0.10937 0.0
H700 H 0.89744 0.95003 0.27929 0.0
H701 H 0.92388 0.86341 0.31783 0.0
H702 H 0.92207 0.87565 0.24294 0.0
H703 H 0.90133 0.86446 0.27988 0.0
C704 C 0.90969 0.92469 0.10967 0.0
C705 C 0.89618 0.90967 0.08562 0.0
C706 C 0.91244 0.92634 0.1725 0.0
C707 C 0.90183 0.91294 0.21256 0.0
C708 C 0.88827 0.89804 0.18886 0.0
H709 H 0.88922 0.93568 0.60306 0.0
H710 H 0.88381 0.93261 0.49346 0.0
C711 C 0.88553 0.89634 0.12609 0.0
C712 C 0.90467 0.91488 0.27919 0.0
H713 H 0.9167 0.88488 0.40584 0.0
C714 C 0.9017 0.93581 0.30701 0.0
C715 C 0.91042 0.89636 0.31511 0.0
C716 C 0.91479 0.87375 0.28744 0.0
C717 C 0.90416 0.93869 0.36993 0.0
C718 C 0.90938 0.92001 0.40608 0.0
C719 C 0.9125 0.89913 0.37814 0.0
C720 C 0.91243 0.92188 0.47267 0.0
C721 C 0.90158 0.9618 0.39683 0.0
C722 C 0.93012 0.91629 0.49759 0.0
C723 C 0.93317 0.91766 0.56021 0.0
C724 C 0.91856 0.92466 0.5995 0.0
C725 C 0.90076 0.93011 0.57436 0.0
C726 C 0.89771 0.92863 0.51157 0.0
H727 H 0.90247 0.97515 0.36157 0.0
H728 H 0.88735 0.96285 0.41829 0.0
H729 H 0.91243 0.96523 0.4323 0.0
H730 H 0.94164 0.91086 0.46848 0.0
H731 H 0.94694 0.9129 0.57769 0.0
H732 H 0.63483 0.09591 0.59551 0.0
H733 H 0.64079 0.10043 0.48651 0.0
H734 H 0.58154 0.11494 0.45732 0.0
H735 H 0.5756 0.11154 0.56569 0.0
H736 H 0.62642 0.07765 0.38893 0.0
H737 H 0.60634 0.16737 0.37238 0.0
H738 H 0.61013 0.15351 0.44438 0.0
H739 H 0.58786 0.15046 0.40498 0.0
C740 C 0.6231 0.10037 0.56612 0.0
C741 C 0.60474 0.10347 0.59001 0.0
C742 C 0.62652 0.1028 0.50367 0.0
C743 C 0.61168 0.10846 0.46381 0.0
C744 C 0.59331 0.1111 0.48726 0.0
H745 H 0.59581 0.12042 0.07471 0.0
H746 H 0.59231 0.11629 0.1851 0.0
C747 C 0.5899 0.10881 0.54952 0.0
C748 C 0.61521 0.11115 0.39751 0.0
H749 H 0.60917 0.14745 0.27846 0.0
C750 C 0.62283 0.09298 0.36489 0.0
C751 C 0.61056 0.1312 0.36609 0.0
C752 C 0.60346 0.15182 0.39885 0.0
C753 C 0.62539 0.09412 0.30155 0.0
C754 C 0.62028 0.11394 0.27013 0.0
C755 C 0.61291 0.1322 0.30271 0.0
C756 C 0.62248 0.11608 0.20332 0.0
C757 C 0.63312 0.07396 0.26829 0.0
C758 C 0.6406 0.1175 0.17719 0.0
C759 C 0.64264 0.11995 0.11424 0.0
C760 C 0.62658 0.12094 0.07617 0.0
C761 C 0.60844 0.11947 0.10263 0.0
C762 C 0.60642 0.11722 0.16567 0.0
H763 H 0.6334 0.05871 0.29746 0.0
H764 H 0.62447 0.07038 0.22716 0.0
H765 H 0.64784 0.07757 0.25316 0.0
H766 H 0.65317 0.11684 0.20556 0.0
H767 H 0.6568 0.12078 0.09533 0.0
H768 H 0.86678 0.60987 0.39896 0.0
H769 H 0.8716 0.60595 0.28945 0.0
H770 H 0.93137 0.61926 0.31288 0.0
H771 H 0.92665 0.62298 0.42268 0.0
H772 H 0.88451 0.63645 0.20803 0.0
H773 H 0.93243 0.56261 0.21165 0.0
H774 H 0.9192 0.57149 0.27763 0.0
H775 H 0.94091 0.58555 0.25713 0.0
C776 C 0.88095 0.61202 0.38081 0.0
C777 C 0.89635 0.61671 0.41952 0.0
C778 C 0.88369 0.60967 0.31824 0.0
C779 C 0.90188 0.61195 0.29305 0.0
C780 C 0.91728 0.61683 0.33147 0.0
H781 H 0.94722 0.61893 0.92992 0.0
H782 H 0.94142 0.61981 0.03912 0.0
C783 C 0.91457 0.61903 0.39418 0.0
C784 C 0.90457 0.60999 0.22635 0.0
H785 H 0.92939 0.58183 0.11694 0.0
C786 C 0.89421 0.62438 0.18809 0.0
C787 C 0.91719 0.59418 0.2004 0.0
C788 C 0.92793 0.57743 0.23876 0.0
C789 C 0.89647 0.62376 0.1247 0.0
C790 C 0.90932 0.60824 0.09898 0.0
C791 C 0.91958 0.59374 0.13703 0.0
C792 C 0.91269 0.60725 0.03265 0.0
C793 C 0.88546 0.64004 0.08567 0.0
C794 C 0.89848 0.59964 0.99293 0.0
C795 C 0.9018 0.59886 0.93025 0.0
C796 C 0.91941 0.60571 0.90618 0.0
C797 C 0.93361 0.61321 0.94652 0.0
C798 C 0.93029 0.61386 0.00908 0.0
H799 H 0.87867 0.65349 0.11308 0.0
H800 H 0.8949 0.64795 0.05133 0.0
H801 H 0.87414 0.63081 0.06093 0.0
H802 H 0.88487 0.59417 0.01049 0.0
H803 H 0.89066 0.59266 0.90082 0.0
H804 H 0.64149 0.38281 0.42008 0.0
H805 H 0.63845 0.38809 0.31041 0.0
H806 H 0.60312 0.44609 0.33998 0.0
H807 H 0.60645 0.44146 0.44971 0.0
H808 H 0.58908 0.41156 0.25277 0.0
H809 H 0.66283 0.44065 0.20727 0.0
H810 H 0.66024 0.41578 0.25313 0.0
H811 H 0.65211 0.44229 0.28176 0.0
C812 C 0.63325 0.39688 0.40362 0.0
C813 C 0.62428 0.41173 0.44439 0.0
C814 C 0.63151 0.39982 0.34074 0.0
C815 C 0.62073 0.4176 0.3172 0.0
C816 C 0.61155 0.43228 0.35736 0.0
H817 H 0.58441 0.45798 0.95509 0.0
H818 H 0.58932 0.45428 0.06481 0.0
C819 C 0.61338 0.42948 0.42027 0.0
C820 C 0.61865 0.42058 0.2506 0.0
H821 H 0.64307 0.43469 0.12194 0.0
C822 C 0.60084 0.41669 0.22408 0.0
C823 C 0.63408 0.42709 0.21345 0.0
C824 C 0.6534 0.43187 0.2401 0.0
C825 C 0.59808 0.41884 0.16108 0.0
C826 C 0.61344 0.42571 0.12383 0.0
C827 C 0.63129 0.42951 0.15048 0.0
C828 C 0.61125 0.42898 0.05717 0.0
C829 C 0.57885 0.41314 0.13492 0.0
C830 C 0.62254 0.41679 0.01621 0.0
C831 C 0.61991 0.41911 0.9534 0.0
C832 C 0.60591 0.43366 0.93041 0.0
C833 C 0.59507 0.44637 0.97152 0.0
C834 C 0.59781 0.44419 0.0342 0.0
H835 H 0.5706 0.40207 0.16589 0.0
H836 H 0.57062 0.42885 0.12841 0.0
H837 H 0.5802 0.40466 0.09018 0.0
H838 H 0.63307 0.40505 0.03287 0.0
H839 H 0.62837 0.40894 0.923 0.0
H840 H 0.07178 0.16329 0.2254 0.0
H841 H 0.05956 0.20126 0.24815 0.0
H842 H 0.10913 0.23041 0.16419 0.0
H843 H 0.12143 0.19293 0.14284 0.0
H844 H 0.08313 0.23424 0.32124 0.0
H845 H 0.06241 0.26667 0.09483 0.0
H846 H 0.0628 0.23701 0.11289 0.0
H847 H 0.08446 0.25153 0.09458 0.0
C848 C 0.07974 0.17788 0.21047 0.0
C849 C 0.09749 0.17527 0.18214 0.0
C850 C 0.07283 0.19949 0.22376 0.0
C851 C 0.08338 0.21863 0.20736 0.0
C852 C 0.10064 0.2159 0.17653 0.0
H853 H 0.12048 0.34554 0.23577 0.0
H854 H 0.10845 0.30821 0.21464 0.0
C855 C 0.10767 0.19448 0.16444 0.0
C856 C 0.07782 0.24156 0.22696 0.0
H857 H 0.07259 0.29431 0.16858 0.0
C858 C 0.08014 0.24737 0.2884 0.0
C859 C 0.07391 0.2586 0.18401 0.0
C860 C 0.07057 0.25316 0.11791 0.0
C861 C 0.08059 0.27002 0.3069 0.0
C862 C 0.07843 0.28717 0.2628 0.0
C863 C 0.07429 0.28119 0.2024 0.0
C864 C 0.08437 0.31072 0.27518 0.0
C865 C 0.08514 0.27549 0.37228 0.0
C866 C 0.0747 0.32484 0.31607 0.0
C867 C 0.08165 0.34657 0.32856 0.0
C868 C 0.09839 0.35429 0.30052 0.0
C869 C 0.10765 0.34017 0.25874 0.0
C870 C 0.10073 0.31876 0.24623 0.0
H871 H 0.08765 0.26017 0.40003 0.0
H872 H 0.09797 0.28633 0.37469 0.0
H873 H 0.07317 0.28495 0.39266 0.0
H874 H 0.06193 0.31904 0.33851 0.0
H875 H 0.07418 0.35708 0.36081 0.0
H876 H 0.45026 0.86644 0.22246 0.0
H877 H 0.46226 0.82835 0.24502 0.0
H878 H 0.41228 0.79975 0.16208 0.0
H879 H 0.40023 0.83734 0.14079 0.0
H880 H 0.4395 0.79604 0.31903 0.0
H881 H 0.45759 0.76239 0.09202 0.0
H882 H 0.45731 0.79216 0.10863 0.0
H883 H 0.43552 0.77746 0.0929 0.0
C884 C 0.44217 0.85195 0.20764 0.0
C885 C 0.42438 0.85475 0.17964 0.0
C886 C 0.44896 0.83026 0.22084 0.0
C887 C 0.43824 0.81123 0.20468 0.0
C888 C 0.42093 0.81415 0.17415 0.0
H889 H 0.4 0.6849 0.2424 0.0
H890 H 0.41189 0.72214 0.21934 0.0
C891 C 0.41403 0.83564 0.16211 0.0
C892 C 0.44365 0.78824 0.22447 0.0
H893 H 0.44756 0.73515 0.16746 0.0
C894 C 0.44196 0.78273 0.28634 0.0
C895 C 0.44687 0.77095 0.18173 0.0
C896 C 0.44962 0.77603 0.11512 0.0
C897 C 0.44145 0.76016 0.30568 0.0
C898 C 0.4429 0.7428 0.262 0.0
C899 C 0.4464 0.74845 0.20097 0.0
C900 C 0.43689 0.7194 0.27594 0.0
C901 C 0.43762 0.75502 0.37172 0.0
C902 C 0.4471 0.70521 0.3154 0.0
C903 C 0.44024 0.68353 0.329 0.0
C904 C 0.42306 0.67591 0.3035 0.0
C905 C 0.4132 0.69015 0.26336 0.0
C906 C 0.42003 0.71152 0.24976 0.0
H907 H 0.43577 0.7705 0.39932 0.0
H908 H 0.42462 0.74455 0.37599 0.0
H909 H 0.44964 0.74528 0.39088 0.0
H910 H 0.46025 0.7109 0.33573 0.0
H911 H 0.44818 0.67293 0.35992 0.0
H912 H 0.95121 0.86525 0.80036 0.0
H913 H 0.96326 0.82762 0.77326 0.0
H914 H 0.90934 0.79857 0.82306 0.0
H915 H 0.89737 0.83566 0.84961 0.0
H916 H 0.94291 0.77312 0.86107 0.0
H917 H 0.94182 0.79628 0.61525 0.0
H918 H 0.95475 0.81365 0.66808 0.0
H919 H 0.92933 0.81282 0.67113 0.0
C920 C 0.94216 0.85071 0.80681 0.0
C921 C 0.92333 0.85334 0.82676 0.0
C922 C 0.94899 0.82929 0.79095 0.0
C923 C 0.93711 0.81033 0.79563 0.0
C924 C 0.91875 0.81293 0.81906 0.0
H925 H 0.89763 0.69474 0.65173 0.0
H926 H 0.90943 0.73203 0.67751 0.0
C927 C 0.91191 0.83416 0.83408 0.0
C928 C 0.94266 0.78792 0.77184 0.0
H929 H 0.9426 0.75796 0.63936 0.0
C930 C 0.94351 0.76978 0.81263 0.0
C931 C 0.94328 0.78365 0.70858 0.0
C932 C 0.94221 0.80252 0.66284 0.0
C933 C 0.94353 0.74743 0.79184 0.0
C934 C 0.94273 0.74315 0.72859 0.0
C935 C 0.94333 0.7613 0.68779 0.0
C936 C 0.9373 0.72065 0.70497 0.0
C937 C 0.94271 0.72856 0.83764 0.0
C938 C 0.94929 0.70184 0.70988 0.0
C939 C 0.94256 0.68031 0.69449 0.0
C940 C 0.92371 0.6774 0.67478 0.0
C941 C 0.91218 0.69644 0.66711 0.0
C942 C 0.91893 0.71779 0.68168 0.0
H943 H 0.9423 0.73481 0.88522 0.0
H944 H 0.92995 0.71801 0.82948 0.0
H945 H 0.95538 0.71768 0.83237 0.0
H946 H 0.96357 0.70371 0.72743 0.0
H947 H 0.95169 0.66588 0.70118 0.0
H948 H 0.5838 0.17603 0.88645 0.0
H949 H 0.57369 0.21554 0.87747 0.0
H950 H 0.59313 0.21682 0.6916 0.0
H951 H 0.60341 0.17781 0.70059 0.0
H952 H 0.60209 0.24941 0.84555 0.0
H953 H 0.54124 0.25047 0.6856 0.0
H954 H 0.54762 0.22592 0.7296 0.0
H955 H 0.56075 0.23308 0.66226 0.0
C956 C 0.58536 0.18461 0.84326 0.0
C957 C 0.59441 0.17394 0.79425 0.0
C958 C 0.57965 0.20714 0.83819 0.0
C959 C 0.58247 0.21904 0.78361 0.0
C960 C 0.59049 0.2079 0.73374 0.0
H961 H 0.59478 0.35056 0.63485 0.0
H962 H 0.58664 0.31101 0.65372 0.0
C963 C 0.59647 0.18564 0.73909 0.0
C964 C 0.5798 0.24377 0.78055 0.0
H965 H 0.55798 0.28523 0.69869 0.0
C966 C 0.59217 0.25733 0.81449 0.0
C967 C 0.56709 0.25396 0.73911 0.0
C968 C 0.55329 0.24015 0.70233 0.0
C969 C 0.5929 0.2807 0.80591 0.0
C970 C 0.58036 0.29099 0.7637 0.0
C971 C 0.56752 0.27744 0.7312 0.0
C972 C 0.58141 0.3155 0.75003 0.0
C973 C 0.60797 0.29387 0.83946 0.0
C974 C 0.5801 0.33144 0.79695 0.0
C975 C 0.58505 0.35386 0.78632 0.0
C976 C 0.59066 0.36092 0.72814 0.0
C977 C 0.59017 0.34554 0.67986 0.0
C978 C 0.58563 0.32293 0.69077 0.0
H979 H 0.61944 0.28282 0.85699 0.0
H980 H 0.61449 0.3068 0.8096 0.0
H981 H 0.60144 0.30246 0.87901 0.0
H982 H 0.57635 0.32629 0.84262 0.0
H983 H 0.58548 0.36546 0.82429 0.0
loop_
_geom_bond_atom_site_label_1
_geom_bond_atom_site_label_2
_geom_bond_distance
_geom_bond_site_symmetry_2
_ccdc_geom_bond_type
C0 C1 1.351 1_554 S
C0 N3 1.368 . S
C0 H5 0.931 . S
C1 C0 1.351 1_556 S
C1 N2 1.373 . S
C1 H29 0.930 . S
N2 C1 1.373 . S
N2 C4 1.340 . S
N3 C0 1.368 . S
N3 C4 1.321 1_554 S
N3 Co6 2.135 . S
C4 N2 1.340 . S
C4 N3 1.321 1_556 S
C4 H28 0.930 . S
H5 C0 0.931 . S
Co6 N3 2.135 . S
Co6 N9 2.121 . S
Co6 O14 2.055 . S
Co6 O17 2.039 . S
Co6 N20 2.140 . S
C7 O8 1.227 . S
C7 O17 1.265 . S
O8 C7 1.227 . S
N9 Co6 2.121 . S
N9 C11 1.375 . S
N9 C12 1.313 . S
C10 C11 1.338 . S
C10 N13 1.377 . S
C10 H30 0.930 . S
C11 N9 1.375 . S
C11 C10 1.338 . S
C11 H15 0.931 . S
C12 N9 1.313 . S
C12 N13 1.344 . S
C12 H16 0.930 . S
N13 C10 1.377 . S
N13 C12 1.344 . S
O14 Co6 2.055 . S
O14 C18 1.253 . S
H15 C11 0.931 . S
H16 C12 0.930 . S
O17 Co6 2.039 . S
O17 C7 1.265 . S
C18 O14 1.253 . S
C18 O19 1.227 . S
O19 C18 1.227 . S
N20 Co6 2.140 . S
N20 C23 1.346 . S
N20 C24 1.345 . S
C21 C22 1.387 . S
C21 C25 1.391 . S
C22 C21 1.387 . S
C22 C23 1.369 . S
C22 H31 0.929 . S
C23 N20 1.346 . S
C23 C22 1.369 . S
C23 H26 0.928 . S
C24 N20 1.345 . S
C24 C25 1.371 . S
C24 H27 0.931 . S
C25 C21 1.391 . S
C25 C24 1.371 . S
C25 H32 0.930 . S
H26 C23 0.928 . S
H27 C24 0.931 . S
H28 C4 0.930 . S
H29 C1 0.930 . S
H30 C10 0.930 . S
H31 C22 0.929 . S
H32 C25 0.930 . S
C33 C34 1.351 1_554 S
C33 N36 1.368 . S
C33 H38 0.931 . S
C34 C33 1.351 1_556 S
C34 N35 1.373 . S
C34 H62 0.930 . S
N35 C34 1.373 . S
N35 C37 1.340 . S
N36 C33 1.368 . S
N36 C37 1.321 1_554 S
N36 Co39 2.135 . S
C37 N35 1.340 . S
C37 N36 1.321 1_556 S
C37 H61 0.930 . S
H38 C33 0.931 . S
Co39 N36 2.135 . S
Co39 N42 2.121 . S
Co39 O47 2.055 . S
Co39 O50 2.039 . S
Co39 N53 2.140 . S
C40 O41 1.227 . S
C40 O50 1.265 . S
O41 C40 1.227 . S
N42 Co39 2.121 . S
N42 C44 1.375 . S
N42 C45 1.313 . S
C43 C44 1.338 . S
C43 N46 1.377 . S
C43 H63 0.930 . S
C44 N42 1.375 . S
C44 C43 1.338 . S
C44 H48 0.931 . S
C45 N42 1.313 . S
C45 N46 1.344 . S
C45 H49 0.930 . S
N46 C43 1.377 . S
N46 C45 1.344 . S
O47 Co39 2.055 . S
O47 C51 1.253 . S
H48 C44 0.931 . S
H49 C45 0.930 . S
O50 Co39 2.039 . S
O50 C40 1.265 . S
C51 O47 1.253 . S
C51 O52 1.227 . S
O52 C51 1.227 . S
N53 Co39 2.140 . S
N53 C56 1.346 . S
N53 C57 1.345 . S
C54 C55 1.387 . S
C54 C58 1.391 . S
C55 C54 1.387 . S
C55 C56 1.369 . S
C55 H64 0.929 . S
C56 N53 1.346 . S
C56 C55 1.369 . S
C56 H59 0.928 . S
C57 N53 1.345 . S
C57 C58 1.371 . S
C57 H60 0.931 . S
C58 C54 1.391 . S
C58 C57 1.371 . S
C58 H65 0.930 . S
H59 C56 0.928 . S
H60 C57 0.931 . S
H61 C37 0.930 . S
H62 C34 0.930 . S
H63 C43 0.930 . S
H64 C55 0.929 . S
H65 C58 0.930 . S
C66 C67 1.351 . S
C66 N69 1.368 . S
C66 H71 0.931 . S
C67 C66 1.351 . S
C67 N68 1.373 . S
C67 H95 0.930 . S
N68 C67 1.373 . S
N68 C70 1.340 . S
N69 C66 1.368 . S
N69 C70 1.321 . S
N69 Co72 2.135 . S
C70 N68 1.340 . S
C70 N69 1.321 . S
C70 H94 0.930 . S
H71 C66 0.931 . S
Co72 N69 2.135 . S
Co72 N75 2.121 . S
Co72 O80 2.055 . S
Co72 O83 2.039 . S
Co72 N86 2.140 . S
C73 O74 1.227 . S
C73 O83 1.265 . S
O74 C73 1.227 . S
N75 Co72 2.121 . S
N75 C77 1.375 . S
N75 C78 1.313 . S
C76 C77 1.338 . S
C76 N79 1.377 . S
C76 H96 0.930 . S
C77 N75 1.375 . S
C77 C76 1.338 . S
C77 H81 0.931 . S
C78 N75 1.313 . S
C78 N79 1.344 . S
C78 H82 0.930 . S
N79 C76 1.377 . S
N79 C78 1.344 . S
O80 Co72 2.055 . S
O80 C84 1.253 . S
H81 C77 0.931 . S
H82 C78 0.930 . S
O83 Co72 2.039 . S
O83 C73 1.265 . S
C84 O80 1.253 . S
C84 O85 1.227 . S
O85 C84 1.227 . S
N86 Co72 2.140 . S
N86 C89 1.346 . S
N86 C90 1.345 . S
C87 C88 1.387 . S
C87 C91 1.391 . S
C88 C87 1.387 . S
C88 C89 1.369 . S
C88 H97 0.929 . S
C89 N86 1.346 . S
C89 C88 1.369 . S
C89 H92 0.928 . S
C90 N86 1.345 . S
C90 C91 1.371 . S
C90 H93 0.931 . S
C91 C87 1.391 . S
C91 C90 1.371 . S
C91 H98 0.930 . S
H92 C89 0.928 . S
H93 C90 0.931 . S
H94 C70 0.930 . S
H95 C67 0.930 . S
H96 C76 0.930 . S
H97 C88 0.929 . S
H98 C91 0.930 . S
C99 C100 1.351 . S
C99 N102 1.368 . S
C99 H104 0.931 . S
C100 C99 1.351 . S
C100 N101 1.373 . S
C100 H128 0.930 . S
N101 C100 1.373 . S
N101 C103 1.340 . S
N102 C99 1.368 . S
N102 C103 1.321 . S
N102 Co105 2.135 . S
C103 N101 1.340 . S
C103 N102 1.321 . S
C103 H127 0.930 . S
H104 C99 0.931 . S
Co105 N102 2.135 . S
Co105 N108 2.121 . S
Co105 O113 2.055 . S
Co105 O116 2.039 . S
Co105 N119 2.140 . S
C106 O107 1.227 . S
C106 O116 1.265 . S
O107 C106 1.227 . S
N108 Co105 2.121 . S
N108 C110 1.375 . S
N108 C111 1.313 . S
C109 C110 1.338 . S
C109 N112 1.377 . S
C109 H129 0.930 . S
C110 N108 1.375 . S
C110 C109 1.338 . S
C110 H114 0.931 . S
C111 N108 1.313 . S
C111 N112 1.344 . S
C111 H115 0.930 . S
N112 C109 1.377 . S
N112 C111 1.344 . S
O113 Co105 2.055 . S
O113 C117 1.253 . S
H114 C110 0.931 . S
H115 C111 0.930 . S
O116 Co105 2.039 . S
O116 C106 1.265 . S
C117 O113 1.253 . S
C117 O118 1.227 . S
O118 C117 1.227 . S
N119 Co105 2.140 . S
N119 C122 1.346 . S
N119 C123 1.345 . S
C120 C121 1.387 . S
C120 C124 1.391 . S
C121 C120 1.387 . S
C121 C122 1.369 . S
C121 H130 0.929 . S
C122 N119 1.346 . S
C122 C121 1.369 . S
C122 H125 0.928 . S
C123 N119 1.345 . S
C123 C124 1.371 . S
C123 H126 0.931 . S
C124 C120 1.391 . S
C124 C123 1.371 . S
C124 H131 0.930 . S
H125 C122 0.928 . S
H126 C123 0.931 . S
H127 C103 0.930 . S
H128 C100 0.930 . S
H129 C109 0.930 . S
H130 C121 0.929 . S
H131 C124 0.930 . S
C132 C133 1.351 1_556 S
C132 N135 1.368 . S
C132 H137 0.931 . S
C133 C132 1.351 1_554 S
C133 N134 1.373 . S
C133 H161 0.930 . S
N134 C133 1.373 . S
N134 C136 1.340 . S
N135 C132 1.368 . S
N135 C136 1.321 1_556 S
N135 Co138 2.135 . S
C136 N134 1.340 . S
C136 N135 1.321 1_554 S
C136 H160 0.930 . S
H137 C132 0.931 . S
Co138 N135 2.135 . S
Co138 N141 2.121 . S
Co138 O146 2.055 . S
Co138 O149 2.039 . S
Co138 N152 2.140 . S
C139 O140 1.227 . S
C139 O149 1.265 . S
O140 C139 1.227 . S
N141 Co138 2.121 . S
N141 C143 1.375 . S
N141 C144 1.313 . S
C142 C143 1.338 . S
C142 N145 1.377 . S
C142 H162 0.930 . S
C143 N141 1.375 . S
C143 C142 1.338 . S
C143 H147 0.931 . S
C144 N141 1.313 . S
C144 N145 1.344 . S
C144 H148 0.930 . S
N145 C142 1.377 . S
N145 C144 1.344 . S
O146 Co138 2.055 . S
O146 C150 1.253 . S
H147 C143 0.931 . S
H148 C144 0.930 . S
O149 Co138 2.039 . S
O149 C139 1.265 . S
C150 O146 1.253 . S
C150 O151 1.227 . S
O151 C150 1.227 . S
N152 Co138 2.140 . S
N152 C155 1.346 . S
N152 C156 1.345 . S
C153 C154 1.387 . S
C153 C157 1.391 . S
C154 C153 1.387 . S
C154 C155 1.369 . S
C154 H163 0.929 . S
C155 N152 1.346 . S
C155 C154 1.369 . S
C155 H158 0.928 . S
C156 N152 1.345 . S
C156 C157 1.371 . S
C156 H159 0.931 . S
C157 C153 1.391 . S
C157 C156 1.371 . S
C157 H164 0.930 . S
H158 C155 0.928 . S
H159 C156 0.931 . S
H160 C136 0.930 . S
H161 C133 0.930 . S
H162 C142 0.930 . S
H163 C154 0.929 . S
H164 C157 0.930 . S
C165 C166 1.351 1_556 S
C165 N168 1.368 . S
C165 H170 0.931 . S
C166 C165 1.351 1_554 S
C166 N167 1.373 . S
C166 H194 0.930 . S
N167 C166 1.373 . S
N167 C169 1.340 . S
N168 C165 1.368 . S
N168 C169 1.321 1_556 S
N168 Co171 2.135 . S
C169 N167 1.340 . S
C169 N168 1.321 1_554 S
C169 H193 0.930 . S
H170 C165 0.931 . S
Co171 N168 2.135 . S
Co171 N174 2.121 . S
Co171 O179 2.055 . S
Co171 O182 2.039 . S
Co171 N185 2.140 . S
C172 O173 1.227 . S
C172 O182 1.265 . S
O173 C172 1.227 . S
N174 Co171 2.121 . S
N174 C176 1.375 . S
N174 C177 1.313 . S
C175 C176 1.338 . S
C175 N178 1.377 . S
C175 H195 0.930 . S
C176 N174 1.375 . S
C176 C175 1.338 . S
C176 H180 0.931 . S
C177 N174 1.313 . S
C177 N178 1.344 . S
C177 H181 0.930 . S
N178 C175 1.377 . S
N178 C177 1.344 . S
O179 Co171 2.055 . S
O179 C183 1.253 . S
H180 C176 0.931 . S
H181 C177 0.930 . S
O182 Co171 2.039 . S
O182 C172 1.265 . S
C183 O179 1.253 . S
C183 O184 1.227 . S
O184 C183 1.227 . S
N185 Co171 2.140 . S
N185 C188 1.346 . S
N185 C189 1.345 . S
C186 C187 1.387 . S
C186 C190 1.391 . S
C187 C186 1.387 . S
C187 C188 1.369 . S
C187 H196 0.929 . S
C188 N185 1.346 . S
C188 C187 1.369 . S
C188 H191 0.928 . S
C189 N185 1.345 . S
C189 C190 1.371 . S
C189 H192 0.931 . S
C190 C186 1.391 . S
C190 C189 1.371 . S
C190 H197 0.930 . S
H191 C188 0.928 . S
H192 C189 0.931 . S
H193 C169 0.930 . S
H194 C166 0.930 . S
H195 C175 0.930 . S
H196 C187 0.929 . S
H197 C190 0.930 . S
C198 C199 1.351 . S
C198 N201 1.368 . S
C198 H203 0.931 . S
C199 C198 1.351 . S
C199 N200 1.373 . S
C199 H227 0.930 . S
N200 C199 1.373 . S
N200 C202 1.340 . S
N201 C198 1.368 . S
N201 C202 1.321 . S
N201 Co204 2.135 . S
C202 N200 1.340 . S
C202 N201 1.321 . S
C202 H226 0.930 . S
H203 C198 0.931 . S
Co204 N201 2.135 . S
Co204 N207 2.121 . S
Co204 O212 2.055 . S
Co204 O215 2.039 . S
Co204 N218 2.140 . S
C205 O206 1.227 . S
C205 O215 1.265 . S
O206 C205 1.227 . S
N207 Co204 2.121 . S
N207 C209 1.375 . S
N207 C210 1.313 . S
C208 C209 1.338 . S
C208 N211 1.377 . S
C208 H228 0.930 . S
C209 N207 1.375 . S
C209 C208 1.338 . S
C209 H213 0.931 . S
C210 N207 1.313 . S
C210 N211 1.344 . S
C210 H214 0.930 . S
N211 C208 1.377 . S
N211 C210 1.344 . S
O212 Co204 2.055 . S
O212 C216 1.253 . S
H213 C209 0.931 . S
H214 C210 0.930 . S
O215 Co204 2.039 . S
O215 C205 1.265 . S
C216 O212 1.253 . S
C216 O217 1.227 . S
O217 C216 1.227 . S
N218 Co204 2.140 . S
N218 C221 1.346 . S
N218 C222 1.345 . S
C219 C220 1.387 . S
C219 C223 1.391 . S
C220 C219 1.387 . S
C220 C221 1.369 . S
C220 H229 0.929 . S
C221 N218 1.346 . S
C221 C220 1.369 . S
C221 H224 0.928 . S
C222 N218 1.345 . S
C222 C223 1.371 . S
C222 H225 0.931 . S
C223 C219 1.391 . S
C223 C222 1.371 . S
C223 H230 0.930 . S
H224 C221 0.928 . S
H225 C222 0.931 . S
H226 C202 0.930 . S
H227 C199 0.930 . S
H228 C208 0.930 . S
H229 C220 0.929 . S
H230 C223 0.930 . S
C231 C232 1.351 . S
C231 N234 1.368 . S
C231 H236 0.931 . S
C232 C231 1.351 . S
C232 N233 1.373 . S
C232 H260 0.930 . S
N233 C232 1.373 . S
N233 C235 1.340 . S
N234 C231 1.368 . S
N234 C235 1.321 . S
N234 Co237 2.135 . S
C235 N233 1.340 . S
C235 N234 1.321 . S
C235 H259 0.930 . S
H236 C231 0.931 . S
Co237 N234 2.135 . S
Co237 N240 2.121 . S
Co237 O245 2.055 . S
Co237 O248 2.039 . S
Co237 N251 2.140 . S
C238 O239 1.227 . S
C238 O248 1.265 . S
O239 C238 1.227 . S
N240 Co237 2.121 . S
N240 C242 1.375 . S
N240 C243 1.313 . S
C241 C242 1.338 . S
C241 N244 1.377 . S
C241 H261 0.930 . S
C242 N240 1.375 . S
C242 C241 1.338 . S
C242 H246 0.931 . S
C243 N240 1.313 . S
C243 N244 1.344 . S
C243 H247 0.930 . S
N244 C241 1.377 . S
N244 C243 1.344 . S
O245 Co237 2.055 . S
O245 C249 1.253 . S
H246 C242 0.931 . S
H247 C243 0.930 . S
O248 Co237 2.039 . S
O248 C238 1.265 . S
C249 O245 1.253 . S
C249 O250 1.227 . S
O250 C249 1.227 . S
N251 Co237 2.140 . S
N251 C254 1.346 . S
N251 C255 1.345 . S
C252 C253 1.387 . S
C252 C256 1.391 . S
C253 C252 1.387 . S
C253 C254 1.369 . S
C253 H262 0.929 . S
C254 N251 1.346 . S
C254 C253 1.369 . S
C254 H257 0.928 . S
C255 N251 1.345 . S
C255 C256 1.371 . S
C255 H258 0.931 . S
C256 C252 1.391 . S
C256 C255 1.371 . S
C256 H263 0.930 . S
H257 C254 0.928 . S
H258 C255 0.931 . S
H259 C235 0.930 . S
H260 C232 0.930 . S
H261 C241 0.930 . S
H262 C253 0.929 . S
H263 C256 0.930 . S
H264 C272 0.929 . S
H265 C274 0.930 . S
H266 C276 0.930 . S
H267 C279 0.929 . S
H268 C282 0.930 . S
H269 C284 0.960 . S
H270 C284 0.960 . S
H271 C284 0.960 . S
C272 H264 0.929 . S
C272 C273 1.377 . S
C272 C274 1.384 . S
C273 C272 1.377 . S
C273 C279 1.390 . S
C274 H265 0.930 . S
C274 C272 1.384 . S
C274 C275 1.372 . S
C275 C274 1.372 . S
C275 C276 1.400 . S
C275 C280 1.490 . S
C276 H266 0.930 . S
C276 C275 1.400 . S
C276 C279 1.386 . S
H277 C293 0.930 . S
H278 C294 0.931 . S
C279 H267 0.929 . S
C279 C273 1.390 . S
C279 C276 1.386 . S
C280 C275 1.490 . S
C280 C282 1.395 1_565 S
C280 C283 1.403 . S
H281 C287 0.930 . S
C282 H268 0.930 . S
C282 C280 1.395 1_545 S
C282 C285 1.403 . S
C283 C280 1.403 . S
C283 C284 1.524 . S
C283 C287 1.400 . S
C284 H269 0.960 . S
C284 H270 0.960 . S
C284 H271 0.960 . S
C284 C283 1.524 . S
C285 C282 1.403 . S
C285 C286 1.392 . S
C285 C289 1.495 . S
C286 C285 1.392 . S
C286 C287 1.385 1_545 S
C286 C288 1.478 . S
C287 H281 0.930 . S
C287 C283 1.400 . S
C287 C286 1.385 1_565 S
C288 C286 1.478 . S
C288 C290 1.381 . S
C288 C294 1.383 . S
C289 C285 1.495 . S
C289 H295 0.959 . S
C289 H296 0.961 . S
C289 H297 0.960 . S
C290 C288 1.381 . S
C290 C291 1.394 . S
C290 H298 0.930 . S
C291 C290 1.394 . S
C291 C292 1.383 . S
C291 H299 0.929 . S
C292 C291 1.383 . S
C292 C293 1.377 . S
C293 H277 0.930 . S
C293 C292 1.377 . S
C293 C294 1.379 . S
C294 H278 0.931 . S
C294 C288 1.383 . S
C294 C293 1.379 . S
H295 C289 0.959 . S
H296 C289 0.961 . S
H297 C289 0.960 . S
H298 C290 0.930 . S
H299 C291 0.929 . S
H300 C308 0.929 . S
H301 C310 0.930 . S
H302 C312 0.930 . S
H303 C315 0.929 . S
H304 C318 0.930 . S
H305 C320 0.960 . S
H306 C320 0.960 . S
H307 C320 0.960 . S
C308 H300 0.929 . S
C308 C309 1.377 . S
C308 C310 1.384 . S
C309 C308 1.377 . S
C309 C315 1.390 . S
C310 H301 0.930 . S
C310 C308 1.384 . S
C310 C311 1.372 . S
C311 C310 1.372 . S
C311 C312 1.400 . S
C311 C316 1.490 . S
C312 H302 0.930 . S
C312 C311 1.400 . S
C312 C315 1.386 . S
H313 C329 0.930 . S
H314 C330 0.931 . S
C315 H303 0.929 . S
C315 C309 1.390 . S
C315 C312 1.386 . S
C316 C311 1.490 . S
C316 C318 1.395 . S
C316 C319 1.403 . S
H317 C323 0.930 . S
C318 H304 0.930 . S
C318 C316 1.395 . S
C318 C321 1.403 . S
C319 C316 1.403 . S
C319 C320 1.524 . S
C319 C323 1.400 . S
C320 H305 0.960 . S
C320 H306 0.960 . S
C320 H307 0.960 . S
C320 C319 1.524 . S
C321 C318 1.403 . S
C321 C322 1.392 . S
C321 C325 1.495 . S
C322 C321 1.392 . S
C322 C323 1.385 . S
C322 C324 1.478 . S
C323 H317 0.930 . S
C323 C319 1.400 . S
C323 C322 1.385 . S
C324 C322 1.478 . S
C324 C326 1.381 . S
C324 C330 1.383 . S
C325 C321 1.495 . S
C325 H331 0.959 . S
C325 H332 0.961 . S
C325 H333 0.960 . S
C326 C324 1.381 . S
C326 C327 1.394 . S
C326 H334 0.930 . S
C327 C326 1.394 . S
C327 C328 1.383 . S
C327 H335 0.929 . S
C328 C327 1.383 . S
C328 C329 1.377 . S
C329 H313 0.930 . S
C329 C328 1.377 . S
C329 C330 1.379 . S
C330 H314 0.931 . S
C330 C324 1.383 . S
C330 C329 1.379 . S
H331 C325 0.959 . S
H332 C325 0.961 . S
H333 C325 0.960 . S
H334 C326 0.930 . S
H335 C327 0.929 . S
H336 C344 0.929 . S
H337 C346 0.930 . S
H338 C348 0.930 . S
H339 C351 0.929 . S
H340 C354 0.930 . S
H341 C356 0.960 . S
H342 C356 0.960 . S
H343 C356 0.960 . S
C344 H336 0.929 . S
C344 C345 1.377 . S
C344 C346 1.384 . S
C345 C344 1.377 . S
C345 C351 1.390 . S
C346 H337 0.930 . S
C346 C344 1.384 . S
C346 C347 1.372 . S
C347 C346 1.372 . S
C347 C348 1.400 . S
C347 C352 1.490 . S
C348 H338 0.930 . S
C348 C347 1.400 . S
C348 C351 1.386 . S
H349 C365 0.930 . S
H350 C366 0.931 . S
C351 H339 0.929 . S
C351 C345 1.390 . S
C351 C348 1.386 . S
C352 C347 1.490 . S
C352 C354 1.395 1_545 S
C352 C355 1.403 . S
H353 C359 0.931 . S
C354 H340 0.930 . S
C354 C352 1.395 1_565 S
C354 C357 1.403 . S
C355 C352 1.403 . S
C355 C356 1.524 . S
C355 C359 1.414 . S
C356 H341 0.960 . S
C356 H342 0.960 . S
C356 H343 0.960 . S
C356 C355 1.524 . S
C357 C354 1.403 . S
C357 C358 1.392 . S
C357 C361 1.495 1_556 S
C358 C357 1.392 . S
C358 C359 1.371 1_565 S
C358 C360 1.478 . S
C359 H353 0.931 . S
C359 C355 1.414 . S
C359 C358 1.371 1_545 S
C360 C358 1.478 . S
C360 C362 1.381 . S
C360 C366 1.383 . S
C361 C357 1.495 1_554 S
C361 H367 0.959 . S
C361 H368 0.961 1_554 S
C361 H369 0.960 . S
C362 C360 1.381 . S
C362 C363 1.394 . S
C362 H370 0.930 . S
C363 C362 1.394 . S
C363 C364 1.383 . S
C363 H371 0.929 . S
C364 C363 1.383 . S
C364 C365 1.377 . S
C365 H349 0.930 . S
C365 C364 1.377 . S
C365 C366 1.379 . S
C366 H350 0.931 . S
C366 C360 1.383 . S
C366 C365 1.379 . S
H367 C361 0.959 . S
H368 C361 0.961 1_556 S
H369 C361 0.960 . S
H370 C362 0.930 . S
H371 C363 0.929 . S
H372 C380 0.929 . S
H373 C382 0.930 . S
H374 C384 0.930 . S
H375 C387 0.929 . S
H376 C390 0.930 . S
H377 C392 0.960 . S
H378 C392 0.960 . S
H379 C392 0.960 . S
C380 H372 0.929 . S
C380 C381 1.377 . S
C380 C382 1.384 . S
C381 C380 1.377 . S
C381 C387 1.390 . S
C382 H373 0.930 . S
C382 C380 1.384 . S
C382 C383 1.372 . S
C383 C382 1.372 . S
C383 C384 1.400 . S
C383 C388 1.490 . S
C384 H374 0.930 . S
C384 C383 1.400 . S
C384 C387 1.386 . S
H385 C401 0.930 . S
H386 C402 0.931 . S
C387 H375 0.929 . S
C387 C381 1.390 . S
C387 C384 1.386 . S
C388 C383 1.490 . S
C388 C390 1.395 . S
C388 C391 1.403 . S
H389 C395 0.930 . S
C390 H376 0.930 . S
C390 C388 1.395 . S
C390 C393 1.403 . S
C391 C388 1.403 . S
C391 C392 1.524 . S
C391 C395 1.400 . S
C392 H377 0.960 . S
C392 H378 0.960 . S
C392 H379 0.960 . S
C392 C391 1.524 . S
C393 C390 1.403 . S
C393 C394 1.392 . S
C393 C397 1.495 . S
C394 C393 1.392 . S
C394 C395 1.385 . S
C394 C396 1.478 . S
C395 H389 0.930 . S
C395 C391 1.400 . S
C395 C394 1.385 . S
C396 C394 1.478 . S
C396 C398 1.381 . S
C396 C402 1.383 . S
C397 C393 1.495 . S
C397 H403 0.959 . S
C397 H404 0.961 . S
C397 H405 0.960 . S
C398 C396 1.381 . S
C398 C399 1.394 . S
C398 H406 0.930 . S
C399 C398 1.394 . S
C399 C400 1.383 . S
C399 H407 0.929 . S
C400 C399 1.383 . S
C400 C401 1.377 . S
C401 H385 0.930 . S
C401 C400 1.377 . S
C401 C402 1.379 . S
C402 H386 0.931 . S
C402 C396 1.383 . S
C402 C401 1.379 . S
H403 C397 0.959 . S
H404 C397 0.961 . S
H405 C397 0.960 . S
H406 C398 0.930 . S
H407 C399 0.929 . S
H408 C416 0.929 . S
H409 C418 0.930 . S
H410 C420 0.930 . S
H411 C423 0.929 . S
H412 C426 0.930 . S
H413 C428 0.960 . S
H414 C428 0.960 1_565 S
H415 C428 0.960 . S
C416 H408 0.929 . S
C416 C417 1.377 . S
C416 C418 1.384 . S
C417 C416 1.377 . S
C417 C423 1.390 . S
C418 H409 0.930 . S
C418 C416 1.384 . S
C418 C419 1.372 . S
C419 C418 1.372 . S
C419 C420 1.400 . S
C419 C424 1.490 . S
C420 H410 0.930 . S
C420 C419 1.400 . S
C420 C423 1.386 . S
H421 C437 0.930 . S
H422 C438 0.931 1_556 S
C423 H411 0.929 . S
C423 C417 1.390 . S
C423 C420 1.386 . S
C424 C419 1.490 . S
C424 C426 1.395 1_655 S
C424 C427 1.403 1_566 S
H425 C431 0.929 1_655 S
C426 H412 0.930 . S
C426 C424 1.395 1_455 S
C426 C429 1.403 . S
C427 C424 1.403 1_544 S
C427 C428 1.524 . S
C427 C431 1.369 1_655 S
C428 H413 0.960 . S
C428 H414 0.960 1_545 S
C428 H415 0.960 . S
C428 C427 1.524 . S
C429 C426 1.403 . S
C429 C430 1.392 1_566 S
C429 C433 1.495 . S
C430 C429 1.392 1_544 S
C430 C431 1.418 . S
C430 C432 1.478 . S
C431 H425 0.929 1_455 S
C431 C427 1.369 1_455 S
C431 C430 1.418 . S
C432 C430 1.478 . S
C432 C434 1.381 . S
C432 C438 1.383 . S
C433 C429 1.495 . S
C433 H439 0.959 . S
C433 H440 0.985 . S
C433 H441 0.960 . S
C434 C432 1.381 . S
C434 C435 1.394 . S
C434 H442 0.933 . S
C435 C434 1.394 . S
C435 C436 1.383 . S
C435 H443 0.929 . S
C436 C435 1.383 . S
C436 C437 1.377 . S
C437 H421 0.930 . S
C437 C436 1.377 . S
C437 C438 1.379 . S
C438 H422 0.931 1_554 S
C438 C432 1.383 . S
C438 C437 1.379 . S
H439 C433 0.959 . S
H440 C433 0.985 . S
H441 C433 0.960 . S
H442 C434 0.933 . S
H443 C435 0.929 . S
H444 C452 0.929 . S
H445 C454 0.959 . S
H446 C456 0.930 . S
H447 C459 0.929 . S
H448 C462 0.929 . S
H449 C464 0.960 . S
H450 C464 0.960 . S
H451 C464 0.960 . S
C452 H444 0.929 . S
C452 C453 1.377 . S
C452 C454 1.384 . S
C453 C452 1.377 . S
C453 C459 1.390 . S
C454 H445 0.959 . S
C454 C452 1.384 . S
C454 C455 1.372 . S
C455 C454 1.372 . S
C455 C456 1.400 . S
C455 C460 1.490 . S
C456 H446 0.930 . S
C456 C455 1.400 . S
C456 C459 1.386 . S
H457 C473 0.930 . S
H458 C474 0.931 . S
C459 H447 0.929 . S
C459 C453 1.390 . S
C459 C456 1.386 . S
C460 C455 1.490 . S
C460 C462 1.368 1_565 S
C460 C463 1.403 1_554 S
H461 C467 0.930 . S
C462 H448 0.929 . S
C462 C460 1.368 1_545 S
C462 C465 1.433 . S
C463 C460 1.403 1_556 S
C463 C464 1.524 . S
C463 C467 1.400 1_565 S
C464 H449 0.960 . S
C464 H450 0.960 . S
C464 H451 0.960 . S
C464 C463 1.524 . S
C465 C462 1.433 . S
C465 C466 1.392 1_554 S
C465 C469 1.495 . S
C466 C465 1.392 1_556 S
C466 C467 1.385 . S
C466 C468 1.478 . S
C467 H461 0.930 . S
C467 C463 1.400 1_545 S
C467 C466 1.385 . S
C468 C466 1.478 . S
C468 C470 1.381 . S
C468 C474 1.383 . S
C469 C465 1.495 . S
C469 H475 0.959 . S
C469 H476 0.961 . S
C469 H477 0.960 . S
C470 C468 1.381 . S
C470 C471 1.394 . S
C470 H478 0.930 . S
C471 C470 1.394 . S
C471 C472 1.383 . S
C471 H479 0.929 . S
C472 C471 1.383 . S
C472 C473 1.377 . S
C473 H457 0.930 . S
C473 C472 1.377 . S
C473 C474 1.379 . S
C474 H458 0.931 . S
C474 C468 1.383 . S
C474 C473 1.379 . S
H475 C469 0.959 . S
H476 C469 0.961 . S
H477 C469 0.960 . S
H478 C470 0.930 . S
H479 C471 0.929 . S
H480 C488 0.929 . S
H481 C490 0.930 . S
H482 C492 0.930 . S
H483 C495 0.929 . S
H484 C498 0.930 . S
H485 C500 0.960 . S
H486 C500 0.960 . S
H487 C500 0.960 . S
C488 H480 0.929 . S
C488 C489 1.377 . S
C488 C490 1.384 . S
C489 C488 1.377 . S
C489 C495 1.390 . S
C490 H481 0.930 . S
C490 C488 1.384 . S
C490 C491 1.372 . S
C491 C490 1.372 . S
C491 C492 1.400 . S
C491 C496 1.490 . S
C492 H482 0.930 . S
C492 C491 1.400 . S
C492 C495 1.386 . S
H493 C509 0.930 . S
H494 C510 0.931 . S
C495 H483 0.929 . S
C495 C489 1.390 . S
C495 C492 1.386 . S
C496 C491 1.490 . S
C496 C498 1.395 1_455 S
C496 C499 1.403 . S
H497 C503 0.929 1_455 S
C498 H484 0.930 . S
C498 C496 1.395 1_655 S
C498 C501 1.403 . S
C499 C496 1.403 . S
C499 C500 1.524 . S
C499 C503 1.381 1_455 S
C500 H485 0.960 . S
C500 H486 0.960 . S
C500 H487 0.960 . S
C500 C499 1.524 . S
C501 C498 1.403 . S
C501 C502 1.392 . S
C501 C505 1.495 . S
C502 C501 1.392 . S
C502 C503 1.405 . S
C502 C504 1.478 . S
C503 H497 0.929 1_655 S
C503 C499 1.381 1_655 S
C503 C502 1.405 . S
C504 C502 1.478 . S
C504 C506 1.381 . S
C504 C510 1.383 . S
C505 C501 1.495 . S
C505 H511 0.959 . S
C505 H512 0.961 . S
C505 H513 0.960 . S
C506 C504 1.381 . S
C506 C507 1.394 . S
C506 H514 0.930 . S
C507 C506 1.394 . S
C507 C508 1.383 . S
C507 H515 0.929 . S
C508 C507 1.383 . S
C508 C509 1.377 . S
C509 H493 0.930 . S
C509 C508 1.377 . S
C509 C510 1.379 . S
C510 H494 0.931 . S
C510 C504 1.383 . S
C510 C509 1.379 . S
H511 C505 0.959 . S
H512 C505 0.961 . S
H513 C505 0.960 . S
H514 C506 0.930 . S
H515 C507 0.929 . S
H516 C524 0.929 . S
H517 C526 0.930 . S
H518 C528 0.930 . S
H519 C531 0.929 . S
H520 C534 0.930 . S
H521 C536 0.960 . S
H522 C536 0.960 . S
H523 C536 0.960 . S
C524 H516 0.929 . S
C524 C525 1.377 . S
C524 C526 1.384 . S
C525 C524 1.377 . S
C525 C531 1.390 . S
C526 H517 0.930 . S
C526 C524 1.384 . S
C526 C527 1.372 . S
C527 C526 1.372 . S
C527 C528 1.400 . S
C527 C532 1.490 . S
C528 H518 0.930 . S
C528 C527 1.400 . S
C528 C531 1.386 . S
H529 C545 0.930 . S
H530 C546 0.931 . S
C531 H519 0.929 . S
C531 C525 1.390 . S
C531 C528 1.386 . S
C532 C527 1.490 . S
C532 C534 1.395 . S
C532 C535 1.403 . S
H533 C539 0.930 . S
C534 H520 0.930 . S
C534 C532 1.395 . S
C534 C537 1.403 . S
C535 C532 1.403 . S
C535 C536 1.524 . S
C535 C539 1.400 . S
C536 H521 0.960 . S
C536 H522 0.960 . S
C536 H523 0.960 . S
C536 C535 1.524 . S
C537 C534 1.403 . S
C537 C538 1.392 . S
C537 C541 1.495 . S
C538 C537 1.392 . S
C538 C539 1.385 . S
C538 C540 1.478 . S
C539 H533 0.930 . S
C539 C535 1.400 . S
C539 C538 1.385 . S
C540 C538 1.478 . S
C540 C542 1.381 . S
C540 C546 1.383 . S
C541 C537 1.495 . S
C541 H547 0.959 . S
C541 H548 0.961 . S
C541 H549 0.960 . S
C542 C540 1.381 . S
C542 C543 1.394 . S
C542 H550 0.930 . S
C543 C542 1.394 . S
C543 C544 1.383 . S
C543 H551 0.929 . S
C544 C543 1.383 . S
C544 C545 1.377 . S
C545 H529 0.930 . S
C545 C544 1.377 . S
C545 C546 1.379 . S
C546 H530 0.931 . S
C546 C540 1.383 . S
C546 C545 1.379 . S
H547 C541 0.959 . S
H548 C541 0.961 . S
H549 C541 0.960 . S
H550 C542 0.930 . S
H551 C543 0.929 . S
H552 C560 0.929 . S
H553 C562 0.930 . S
H554 C564 0.930 . S
H555 C567 0.929 . S
H556 C570 0.930 . S
H557 C572 0.960 . S
H558 C572 0.960 . S
H559 C572 0.960 . S
C560 H552 0.929 . S
C560 C561 1.377 . S
C560 C562 1.384 . S
C561 C560 1.377 . S
C561 C567 1.390 . S
C562 H553 0.930 . S
C562 C560 1.384 . S
C562 C563 1.372 . S
C563 C562 1.372 . S
C563 C564 1.400 . S
C563 C568 1.490 . S
C564 H554 0.930 . S
C564 C563 1.400 . S
C564 C567 1.386 . S
H565 C581 0.930 . S
H566 C582 0.931 . S
C567 H555 0.929 . S
C567 C561 1.390 . S
C567 C564 1.386 . S
C568 C563 1.490 . S
C568 C570 1.395 . S
C568 C571 1.403 . S
H569 C575 0.930 . S
C570 H556 0.930 . S
C570 C568 1.395 . S
C570 C573 1.403 . S
C571 C568 1.403 . S
C571 C572 1.524 . S
C571 C575 1.400 . S
C572 H557 0.960 . S
C572 H558 0.960 . S
C572 H559 0.960 . S
C572 C571 1.524 . S
C573 C570 1.403 . S
C573 C574 1.392 . S
C573 C577 1.495 . S
C574 C573 1.392 . S
C574 C575 1.385 . S
C574 C576 1.478 . S
C575 H569 0.930 . S
C575 C571 1.400 . S
C575 C574 1.385 . S
C576 C574 1.478 . S
C576 C578 1.381 . S
C576 C582 1.383 . S
C577 C573 1.495 . S
C577 H583 0.959 . S
C577 H584 0.961 . S
C577 H585 0.960 . S
C578 C576 1.381 . S
C578 C579 1.394 . S
C578 H586 0.930 . S
C579 C578 1.394 . S
C579 C580 1.383 . S
C579 H587 0.929 . S
C580 C579 1.383 . S
C580 C581 1.377 . S
C581 H565 0.930 . S
C581 C580 1.377 . S
C581 C582 1.379 . S
C582 H566 0.931 . S
C582 C576 1.383 . S
C582 C581 1.379 . S
H583 C577 0.959 . S
H584 C577 0.961 . S
H585 C577 0.960 . S
H586 C578 0.930 . S
H587 C579 0.929 . S
H588 C596 0.929 . S
H589 C598 0.930 . S
H590 C600 0.930 . S
H591 C603 0.929 . S
H592 C606 0.930 . S
H593 C608 0.960 . S
H594 C608 0.960 . S
H595 C608 0.960 . S
C596 H588 0.929 . S
C596 C597 1.377 . S
C596 C598 1.384 . S
C597 C596 1.377 . S
C597 C603 1.390 . S
C598 H589 0.930 . S
C598 C596 1.384 . S
C598 C599 1.372 . S
C599 C598 1.372 . S
C599 C600 1.400 . S
C599 C604 1.490 . S
C600 H590 0.930 . S
C600 C599 1.400 . S
C600 C603 1.386 . S
H601 C617 0.930 . S
H602 C618 0.931 . S
C603 H591 0.929 . S
C603 C597 1.390 . S
C603 C600 1.386 . S
C604 C599 1.490 . S
C604 C606 1.395 . S
C604 C607 1.403 . S
H605 C611 0.930 . S
C606 H592 0.930 . S
C606 C604 1.395 . S
C606 C609 1.403 . S
C607 C604 1.403 . S
C607 C608 1.524 . S
C607 C611 1.400 . S
C608 H593 0.960 . S
C608 H594 0.960 . S
C608 H595 0.960 . S
C608 C607 1.524 . S
C609 C606 1.403 . S
C609 C610 1.392 . S
C609 C613 1.495 . S
C610 C609 1.392 . S
C610 C611 1.385 . S
C610 C612 1.478 . S
C611 H605 0.930 . S
C611 C607 1.400 . S
C611 C610 1.385 . S
C612 C610 1.478 . S
C612 C614 1.381 . S
C612 C618 1.383 . S
C613 C609 1.495 . S
C613 H619 0.959 . S
C613 H620 0.961 . S
C613 H621 0.960 . S
C614 C612 1.381 . S
C614 C615 1.394 . S
C614 H622 0.930 . S
C615 C614 1.394 . S
C615 C616 1.383 . S
C615 H623 0.929 . S
C616 C615 1.383 . S
C616 C617 1.377 . S
C617 H601 0.930 . S
C617 C616 1.377 . S
C617 C618 1.379 . S
C618 H602 0.931 . S
C618 C612 1.383 . S
C618 C617 1.379 . S
H619 C613 0.959 . S
H620 C613 0.961 . S
H621 C613 0.960 . S
H622 C614 0.930 . S
H623 C615 0.929 . S
H624 C632 0.929 . S
H625 C634 0.930 . S
H626 C636 0.930 . S
H627 C639 0.929 . S
H628 C642 0.930 . S
H629 C644 0.960 . S
H630 C644 0.960 . S
H631 C644 0.960 . S
C632 H624 0.929 . S
C632 C633 1.377 . S
C632 C634 1.384 . S
C633 C632 1.377 . S
C633 C639 1.390 . S
C634 H625 0.930 . S
C634 C632 1.384 . S
C634 C635 1.372 . S
C635 C634 1.372 . S
C635 C636 1.400 . S
C635 C640 1.490 . S
C636 H626 0.930 . S
C636 C635 1.400 . S
C636 C639 1.386 . S
H637 C653 0.930 . S
H638 C654 0.931 . S
C639 H627 0.929 . S
C639 C633 1.390 . S
C639 C636 1.386 . S
C640 C635 1.490 . S
C640 C642 1.395 . S
C640 C643 1.403 . S
H641 C647 0.930 . S
C642 H628 0.930 . S
C642 C640 1.395 . S
C642 C645 1.403 . S
C643 C640 1.403 . S
C643 C644 1.524 . S
C643 C647 1.400 . S
C644 H629 0.960 . S
C644 H630 0.960 . S
C644 H631 0.960 . S
C644 C643 1.524 . S
C645 C642 1.403 . S
C645 C646 1.392 . S
C645 C649 1.495 . S
C646 C645 1.392 . S
C646 C647 1.385 . S
C646 C648 1.478 1_556 S
C647 H641 0.930 . S
C647 C643 1.400 . S
C647 C646 1.385 . S
C648 C646 1.478 1_554 S
C648 C650 1.381 . S
C648 C654 1.383 . S
C649 C645 1.495 . S
C649 H655 0.959 . S
C649 H656 0.961 . S
C649 H657 0.960 . S
C650 C648 1.381 . S
C650 C651 1.394 . S
C650 H658 0.930 . S
C651 C650 1.394 . S
C651 C652 1.383 . S
C651 H659 0.929 . S
C652 C651 1.383 . S
C652 C653 1.377 . S
C653 H637 0.930 . S
C653 C652 1.377 . S
C653 C654 1.379 . S
C654 H638 0.931 . S
C654 C648 1.383 . S
C654 C653 1.379 . S
H655 C649 0.959 . S
H656 C649 0.961 . S
H657 C649 0.960 . S
H658 C650 0.930 . S
H659 C651 0.929 . S
H660 C668 0.929 . S
H661 C670 0.930 . S
H662 C672 0.930 . S
H663 C675 0.929 . S
H664 C678 0.930 . S
H665 C680 0.960 . S
H666 C680 0.960 . S
H667 C680 0.960 . S
C668 H660 0.929 . S
C668 C669 1.377 . S
C668 C670 1.384 . S
C669 C668 1.377 . S
C669 C675 1.390 . S
C670 H661 0.930 . S
C670 C668 1.384 . S
C670 C671 1.372 . S
C671 C670 1.372 . S
C671 C672 1.400 . S
C671 C676 1.490 1_554 S
C672 H662 0.930 . S
C672 C671 1.400 . S
C672 C675 1.386 . S
H673 C689 0.930 . S
H674 C690 0.931 . S
C675 H663 0.929 . S
C675 C669 1.390 . S
C675 C672 1.386 . S
C676 C671 1.490 1_556 S
C676 C678 1.395 . S
C676 C679 1.403 . S
H677 C683 0.930 . S
C678 H664 0.930 . S
C678 C676 1.395 . S
C678 C681 1.403 . S
C679 C676 1.403 . S
C679 C680 1.524 . S
C679 C683 1.400 . S
C680 H665 0.960 . S
C680 H666 0.960 . S
C680 H667 0.960 . S
C680 C679 1.524 . S
C681 C678 1.403 . S
C681 C682 1.392 . S
C681 C685 1.495 . S
C682 C681 1.392 . S
C682 C683 1.385 . S
C682 C684 1.478 . S
C683 H677 0.930 . S
C683 C679 1.400 . S
C683 C682 1.385 . S
C684 C682 1.478 . S
C684 C686 1.381 . S
C684 C690 1.383 . S
C685 C681 1.495 . S
C685 H691 0.959 . S
C685 H692 0.961 . S
C685 H693 0.960 . S
C686 C684 1.381 . S
C686 C687 1.394 . S
C686 H694 0.930 . S
C687 C686 1.394 . S
C687 C688 1.383 . S
C687 H695 0.929 . S
C688 C687 1.383 . S
C688 C689 1.377 . S
C689 H673 0.930 . S
C689 C688 1.377 . S
C689 C690 1.379 . S
C690 H674 0.931 . S
C690 C684 1.383 . S
C690 C689 1.379 . S
H691 C685 0.959 . S
H692 C685 0.961 . S
H693 C685 0.960 . S
H694 C686 0.930 . S
H695 C687 0.929 . S
H696 C704 0.929 . S
H697 C706 0.930 . S
H698 C708 0.930 . S
H699 C711 0.929 . S
H700 C714 0.930 . S
H701 C716 0.960 . S
H702 C716 0.960 . S
H703 C716 0.960 . S
C704 H696 0.929 . S
C704 C705 1.377 . S
C704 C706 1.384 . S
C705 C704 1.377 . S
C705 C711 1.390 . S
C706 H697 0.930 . S
C706 C704 1.384 . S
C706 C707 1.372 . S
C707 C706 1.372 . S
C707 C708 1.400 . S
C707 C712 1.490 . S
C708 H698 0.930 . S
C708 C707 1.400 . S
C708 C711 1.386 . S
H709 C725 0.930 . S
H710 C726 0.931 . S
C711 H699 0.929 . S
C711 C705 1.390 . S
C711 C708 1.386 . S
C712 C707 1.490 . S
C712 C714 1.395 . S
C712 C715 1.403 . S
H713 C719 0.930 . S
C714 H700 0.930 . S
C714 C712 1.395 . S
C714 C717 1.403 . S
C715 C712 1.403 . S
C715 C716 1.524 . S
C715 C719 1.400 . S
C716 H701 0.960 . S
C716 H702 0.960 . S
C716 H703 0.960 . S
C716 C715 1.524 . S
C717 C714 1.403 . S
C717 C718 1.392 . S
C717 C721 1.495 . S
C718 C717 1.392 . S
C718 C719 1.385 . S
C718 C720 1.478 . S
C719 H713 0.930 . S
C719 C715 1.400 . S
C719 C718 1.385 . S
C720 C718 1.478 . S
C720 C722 1.381 . S
C720 C726 1.383 . S
C721 C717 1.495 . S
C721 H727 0.959 . S
C721 H728 0.961 . S
C721 H729 0.960 . S
C722 C720 1.381 . S
C722 C723 1.394 . S
C722 H730 0.930 . S
C723 C722 1.394 . S
C723 C724 1.383 . S
C723 H731 0.929 . S
C724 C723 1.383 . S
C724 C725 1.377 . S
C725 H709 0.930 . S
C725 C724 1.377 . S
C725 C726 1.379 . S
C726 H710 0.931 . S
C726 C720 1.383 . S
C726 C725 1.379 . S
H727 C721 0.959 . S
H728 C721 0.961 . S
H729 C721 0.960 . S
H730 C722 0.930 . S
H731 C723 0.929 . S
H732 C740 0.929 . S
H733 C742 0.930 . S
H734 C744 0.930 . S
H735 C747 0.929 . S
H736 C750 0.930 . S
H737 C752 0.960 . S
H738 C752 0.960 . S
H739 C752 0.960 . S
C740 H732 0.929 . S
C740 C741 1.377 . S
C740 C742 1.384 . S
C741 C740 1.377 . S
C741 C747 1.390 . S
C742 H733 0.930 . S
C742 C740 1.384 . S
C742 C743 1.372 . S
C743 C742 1.372 . S
C743 C744 1.400 . S
C743 C748 1.490 . S
C744 H734 0.930 . S
C744 C743 1.400 . S
C744 C747 1.386 . S
H745 C761 0.930 . S
H746 C762 0.931 . S
C747 H735 0.929 . S
C747 C741 1.390 . S
C747 C744 1.386 . S
C748 C743 1.490 . S
C748 C750 1.395 . S
C748 C751 1.403 . S
H749 C755 0.930 . S
C750 H736 0.930 . S
C750 C748 1.395 . S
C750 C753 1.403 . S
C751 C748 1.403 . S
C751 C752 1.524 . S
C751 C755 1.400 . S
C752 H737 0.960 . S
C752 H738 0.960 . S
C752 H739 0.960 . S
C752 C751 1.524 . S
C753 C750 1.403 . S
C753 C754 1.392 . S
C753 C757 1.495 . S
C754 C753 1.392 . S
C754 C755 1.385 . S
C754 C756 1.478 . S
C755 H749 0.930 . S
C755 C751 1.400 . S
C755 C754 1.385 . S
C756 C754 1.478 . S
C756 C758 1.381 . S
C756 C762 1.383 . S
C757 C753 1.495 . S
C757 H763 0.959 . S
C757 H764 0.961 . S
C757 H765 0.960 . S
C758 C756 1.381 . S
C758 C759 1.394 . S
C758 H766 0.930 . S
C759 C758 1.394 . S
C759 C760 1.383 . S
C759 H767 0.929 . S
C760 C759 1.383 . S
C760 C761 1.377 . S
C761 H745 0.930 . S
C761 C760 1.377 . S
C761 C762 1.379 . S
C762 H746 0.931 . S
C762 C756 1.383 . S
C762 C761 1.379 . S
H763 C757 0.959 . S
H764 C757 0.961 . S
H765 C757 0.960 . S
H766 C758 0.930 . S
H767 C759 0.929 . S
H768 C776 0.929 . S
H769 C778 0.930 . S
H770 C780 0.930 . S
H771 C783 0.929 . S
H772 C786 0.930 . S
H773 C788 0.960 . S
H774 C788 0.960 . S
H775 C788 0.960 . S
C776 H768 0.929 . S
C776 C777 1.377 . S
C776 C778 1.384 . S
C777 C776 1.377 . S
C777 C783 1.390 . S
C778 H769 0.930 . S
C778 C776 1.384 . S
C778 C779 1.372 . S
C779 C778 1.372 . S
C779 C780 1.400 . S
C779 C784 1.490 . S
C780 H770 0.930 . S
C780 C779 1.400 . S
C780 C783 1.386 . S
H781 C797 0.930 . S
H782 C798 0.931 . S
C783 H771 0.929 . S
C783 C777 1.390 . S
C783 C780 1.386 . S
C784 C779 1.490 . S
C784 C786 1.395 . S
C784 C787 1.403 . S
H785 C791 0.930 . S
C786 H772 0.930 . S
C786 C784 1.395 . S
C786 C789 1.403 . S
C787 C784 1.403 . S
C787 C788 1.524 . S
C787 C791 1.400 . S
C788 H773 0.960 . S
C788 H774 0.960 . S
C788 H775 0.960 . S
C788 C787 1.524 . S
C789 C786 1.403 . S
C789 C790 1.392 . S
C789 C793 1.495 . S
C790 C789 1.392 . S
C790 C791 1.385 . S
C790 C792 1.478 1_554 S
C791 H785 0.930 . S
C791 C787 1.400 . S
C791 C790 1.385 . S
C792 C790 1.478 1_556 S
C792 C794 1.381 . S
C792 C798 1.383 . S
C793 C789 1.495 . S
C793 H799 0.959 . S
C793 H800 0.961 . S
C793 H801 0.960 . S
C794 C792 1.381 . S
C794 C795 1.394 . S
C794 H802 0.930 . S
C795 C794 1.394 . S
C795 C796 1.383 . S
C795 H803 0.929 . S
C796 C795 1.383 . S
C796 C797 1.377 . S
C797 H781 0.930 . S
C797 C796 1.377 . S
C797 C798 1.379 . S
C798 H782 0.931 . S
C798 C792 1.383 . S
C798 C797 1.379 . S
H799 C793 0.959 . S
H800 C793 0.961 . S
H801 C793 0.960 . S
H802 C794 0.930 . S
H803 C795 0.929 . S
H804 C812 0.929 . S
H805 C814 0.930 . S
H806 C816 0.930 . S
H807 C819 0.929 . S
H808 C822 0.930 . S
H809 C824 0.960 . S
H810 C824 0.960 . S
H811 C824 0.960 . S
C812 H804 0.929 . S
C812 C813 1.377 . S
C812 C814 1.384 . S
C813 C812 1.377 . S
C813 C819 1.390 . S
C814 H805 0.930 . S
C814 C812 1.384 . S
C814 C815 1.372 . S
C815 C814 1.372 . S
C815 C816 1.400 . S
C815 C820 1.490 . S
C816 H806 0.930 . S
C816 C815 1.400 . S
C816 C819 1.386 . S
H817 C833 0.930 . S
H818 C834 0.931 . S
C819 H807 0.929 . S
C819 C813 1.390 . S
C819 C816 1.386 . S
C820 C815 1.490 . S
C820 C822 1.395 . S
C820 C823 1.403 . S
H821 C827 0.930 . S
C822 H808 0.930 . S
C822 C820 1.395 . S
C822 C825 1.403 . S
C823 C820 1.403 . S
C823 C824 1.524 . S
C823 C827 1.400 . S
C824 H809 0.960 . S
C824 H810 0.960 . S
C824 H811 0.960 . S
C824 C823 1.524 . S
C825 C822 1.403 . S
C825 C826 1.392 . S
C825 C829 1.495 . S
C826 C825 1.392 . S
C826 C827 1.385 . S
C826 C828 1.478 1_554 S
C827 H821 0.930 . S
C827 C823 1.400 . S
C827 C826 1.385 . S
C828 C826 1.478 1_556 S
C828 C830 1.381 . S
C828 C834 1.383 . S
C829 C825 1.495 . S
C829 H835 0.959 . S
C829 H836 0.961 . S
C829 H837 0.960 . S
C830 C828 1.381 . S
C830 C831 1.394 . S
C830 H838 0.930 . S
C831 C830 1.394 . S
C831 C832 1.383 . S
C831 H839 0.929 . S
C832 C831 1.383 . S
C832 C833 1.377 . S
C833 H817 0.930 . S
C833 C832 1.377 . S
C833 C834 1.379 . S
C834 H818 0.931 . S
C834 C828 1.383 . S
C834 C833 1.379 . S
H835 C829 0.959 . S
H836 C829 0.961 . S
H837 C829 0.960 . S
H838 C830 0.930 . S
H839 C831 0.929 . S
H840 C848 0.929 . S
H841 C850 0.930 . S
H842 C852 0.930 . S
H843 C855 0.929 . S
H844 C858 0.930 . S
H845 C860 0.960 . S
H846 C860 0.960 . S
H847 C860 0.960 . S
C848 H840 0.929 . S
C848 C849 1.377 . S
C848 C850 1.384 . S
C849 C848 1.377 . S
C849 C855 1.390 . S
C850 H841 0.930 . S
C850 C848 1.384 . S
C850 C851 1.372 . S
C851 C850 1.372 . S
C851 C852 1.400 . S
C851 C856 1.490 . S
C852 H842 0.930 . S
C852 C851 1.400 . S
C852 C855 1.386 . S
H853 C869 0.930 . S
H854 C870 0.931 . S
C855 H843 0.929 . S
C855 C849 1.390 . S
C855 C852 1.386 . S
C856 C851 1.490 . S
C856 C858 1.395 . S
C856 C859 1.403 . S
H857 C863 0.930 . S
C858 H844 0.930 . S
C858 C856 1.395 . S
C858 C861 1.403 . S
C859 C856 1.403 . S
C859 C860 1.524 . S
C859 C863 1.400 . S
C860 H845 0.960 . S
C860 H846 0.960 . S
C860 H847 0.960 . S
C860 C859 1.524 . S
C861 C858 1.403 . S
C861 C862 1.392 . S
C861 C865 1.495 . S
C862 C861 1.392 . S
C862 C863 1.385 . S
C862 C864 1.478 . S
C863 H857 0.930 . S
C863 C859 1.400 . S
C863 C862 1.385 . S
C864 C862 1.478 . S
C864 C866 1.381 . S
C864 C870 1.383 . S
C865 C861 1.495 . S
C865 H871 0.959 . S
C865 H872 0.961 . S
C865 H873 0.960 . S
C866 C864 1.381 . S
C866 C867 1.394 . S
C866 H874 0.930 . S
C867 C866 1.394 . S
C867 C868 1.383 . S
C867 H875 0.929 . S
C868 C867 1.383 . S
C868 C869 1.377 . S
C869 H853 0.930 . S
C869 C868 1.377 . S
C869 C870 1.379 . S
C870 H854 0.931 . S
C870 C864 1.383 . S
C870 C869 1.379 . S
H871 C865 0.959 . S
H872 C865 0.961 . S
H873 C865 0.960 . S
H874 C866 0.930 . S
H875 C867 0.929 . S
H876 C884 0.929 . S
H877 C886 0.930 . S
H878 C888 0.930 . S
H879 C891 0.929 . S
H880 C894 0.930 . S
H881 C896 0.960 . S
H882 C896 0.960 . S
H883 C896 0.960 . S
C884 H876 0.929 . S
C884 C885 1.377 . S
C884 C886 1.384 . S
C885 C884 1.377 . S
C885 C891 1.390 . S
C886 H877 0.930 . S
C886 C884 1.384 . S
C886 C887 1.372 . S
C887 C886 1.372 . S
C887 C888 1.400 . S
C887 C892 1.490 . S
C888 H878 0.930 . S
C888 C887 1.400 . S
C888 C891 1.386 . S
H889 C905 0.930 . S
H890 C906 0.931 . S
C891 H879 0.929 . S
C891 C885 1.390 . S
C891 C888 1.386 . S
C892 C887 1.490 . S
C892 C894 1.395 . S
C892 C895 1.403 . S
H893 C899 0.930 . S
C894 H880 0.930 . S
C894 C892 1.395 . S
C894 C897 1.403 . S
C895 C892 1.403 . S
C895 C896 1.524 . S
C895 C899 1.400 . S
C896 H881 0.960 . S
C896 H882 0.960 . S
C896 H883 0.960 . S
C896 C895 1.524 . S
C897 C894 1.403 . S
C897 C898 1.392 . S
C897 C901 1.495 . S
C898 C897 1.392 . S
C898 C899 1.385 . S
C898 C900 1.478 . S
C899 H893 0.930 . S
C899 C895 1.400 . S
C899 C898 1.385 . S
C900 C898 1.478 . S
C900 C902 1.381 . S
C900 C906 1.383 . S
C901 C897 1.495 . S
C901 H907 0.959 . S
C901 H908 0.961 . S
C901 H909 0.960 . S
C902 C900 1.381 . S
C902 C903 1.394 . S
C902 H910 0.930 . S
C903 C902 1.394 . S
C903 C904 1.383 . S
C903 H911 0.929 . S
C904 C903 1.383 . S
C904 C905 1.377 . S
C905 H889 0.930 . S
C905 C904 1.377 . S
C905 C906 1.379 . S
C906 H890 0.931 . S
C906 C900 1.383 . S
C906 C905 1.379 . S
H907 C901 0.959 . S
H908 C901 0.961 . S
H909 C901 0.960 . S
H910 C902 0.930 . S
H911 C903 0.929 . S
H912 C920 0.929 . S
H913 C922 0.930 . S
H914 C924 0.930 . S
H915 C927 0.929 . S
H916 C930 0.930 . S
H917 C932 0.960 . S
H918 C932 0.960 . S
H919 C932 0.960 . S
C920 H912 0.929 . S
C920 C921 1.377 . S
C920 C922 1.384 . S
C921 C920 1.377 . S
C921 C927 1.390 . S
C922 H913 0.930 . S
C922 C920 1.384 . S
C922 C923 1.372 . S
C923 C922 1.372 . S
C923 C924 1.400 . S
C923 C928 1.490 . S
C924 H914 0.930 . S
C924 C923 1.400 . S
C924 C927 1.386 . S
H925 C941 0.930 . S
H926 C942 0.931 . S
C927 H915 0.929 . S
C927 C921 1.390 . S
C927 C924 1.386 . S
C928 C923 1.490 . S
C928 C930 1.395 . S
C928 C931 1.403 . S
H929 C935 0.930 . S
C930 H916 0.930 . S
C930 C928 1.395 . S
C930 C933 1.403 . S
C931 C928 1.403 . S
C931 C932 1.524 . S
C931 C935 1.400 . S
C932 H917 0.960 . S
C932 H918 0.960 . S
C932 H919 0.960 . S
C932 C931 1.524 . S
C933 C930 1.403 . S
C933 C934 1.392 . S
C933 C937 1.495 . S
C934 C933 1.392 . S
C934 C935 1.385 . S
C934 C936 1.478 . S
C935 H929 0.930 . S
C935 C931 1.400 . S
C935 C934 1.385 . S
C936 C934 1.478 . S
C936 C938 1.381 . S
C936 C942 1.383 . S
C937 C933 1.495 . S
C937 H943 0.959 . S
C937 H944 0.961 . S
C937 H945 0.960 . S
C938 C936 1.381 . S
C938 C939 1.394 . S
C938 H946 0.930 . S
C939 C938 1.394 . S
C939 C940 1.383 . S
C939 H947 0.929 . S
C940 C939 1.383 . S
C940 C941 1.377 . S
C941 H925 0.930 . S
C941 C940 1.377 . S
C941 C942 1.379 . S
C942 H926 0.931 . S
C942 C936 1.383 . S
C942 C941 1.379 . S
H943 C937 0.959 . S
H944 C937 0.961 . S
H945 C937 0.960 . S
H946 C938 0.930 . S
H947 C939 0.929 . S
H948 C956 0.929 . S
H949 C958 0.930 . S
H950 C960 0.930 . S
H951 C963 0.929 . S
H952 C966 0.930 . S
H953 C968 0.960 . S
H954 C968 0.960 . S
H955 C968 0.960 . S
C956 H948 0.929 . S
C956 C957 1.377 . S
C956 C958 1.384 . S
C957 C956 1.377 . S
C957 C963 1.390 . S
C958 H949 0.930 . S
C958 C956 1.384 . S
C958 C959 1.372 . S
C959 C958 1.372 . S
C959 C960 1.400 . S
C959 C964 1.490 . S
C960 H950 0.930 . S
C960 C959 1.400 . S
C960 C963 1.386 . S
H961 C977 0.930 . S
H962 C978 0.931 . S
C963 H951 0.929 . S
C963 C957 1.390 . S
C963 C960 1.386 . S
C964 C959 1.490 . S
C964 C966 1.395 . S
C964 C967 1.403 . S
H965 C971 0.930 . S
C966 H952 0.930 . S
C966 C964 1.395 . S
C966 C969 1.403 . S
C967 C964 1.403 . S
C967 C968 1.524 . S
C967 C971 1.400 . S
C968 H953 0.960 . S
C968 H954 0.960 . S
C968 H955 0.960 . S
C968 C967 1.524 . S
C969 C966 1.403 . S
C969 C970 1.392 . S
C969 C973 1.495 . S
C970 C969 1.392 . S
C970 C971 1.385 . S
C970 C972 1.478 . S
C971 H965 0.930 . S
C971 C967 1.400 . S
C971 C970 1.385 . S
C972 C970 1.478 . S
C972 C974 1.381 . S
C972 C978 1.383 . S
C973 C969 1.495 . S
C973 H979 0.959 . S
C973 H980 0.961 . S
C973 H981 0.960 . S
C974 C972 1.381 . S
C974 C975 1.394 . S
C974 H982 0.930 . S
C975 C974 1.394 . S
C975 C976 1.383 . S
C975 H983 0.929 . S
C976 C975 1.383 . S
C976 C977 1.377 . S
C977 H961 0.930 . S
C977 C976 1.377 . S
C977 C978 1.379 . S
C978 H962 0.931 . S
C978 C972 1.383 . S
C978 C977 1.379 . S
H979 C973 0.959 . S
H980 C973 0.961 . S
H981 C973 0.960 . S
H982 C974 0.930 . S
H983 C975 0.929 . S
C273 C54 1.508 . S
C292 C21 1.503 . S
C309 C87 1.508 . S
C328 C120 1.504 . S
C345 C186 1.508 . S
C364 C153 1.505 . S
C381 C219 1.508 . S
C400 C252 1.505 . S
C417 C139 1.505 . S
C436 C7 1.491 . S
C453 C40 1.505 . S
C472 C172 1.492 . S
C489 C73 1.508 . S
C508 C205 1.493 . S
C525 C106 1.505 . S
C544 C238 1.497 . S
C561 N2 1.274 . S
C580 N13 1.271 . S
C597 N46 1.274 . S
C616 N35 1.258 . S
C633 N68 1.272 . S
C652 N79 1.256 . S
C669 N112 1.268 . S
C688 N101 1.260 . S
C705 N134 1.272 . S
C724 N145 1.258 . S
C741 N178 1.276 . S
C760 N167 1.283 . S
C777 N200 1.273 . S
C796 N211 1.288 . S
C813 N233 1.267 . S
C832 N244 1.264 . S
C849 C18 1.524 . S
C868 C84 1.527 . S
C885 C51 1.524 . S
C904 C117 1.526 . S
C921 C150 1.523 . S
C940 C216 1.513 . S
C957 C183 1.526 . S
C976 C249 1.517 . S
