# Generated by pormake.
# Topology wlb, (5)-cn, num edge types: 1
# Building blocks:
#     Node 0, Type 0, BuildingBlock: XOMCOT_clean_sbu_0, # of connection points: 5
#     Node 1, Type 0, BuildingBlock: XOMCOT_clean_sbu_0, # of connection points: 5
#     Node 2, Type 0, BuildingBlock: XOMCOT_clean_sbu_0, # of connection points: 5
#     Node 3, Type 0, BuildingBlock: XOMCOT_clean_sbu_0, # of connection points: 5
#     Node 4, Type 0, BuildingBlock: XOMCOT_clean_sbu_0, # of connection points: 5
#     Node 5, Type 0, BuildingBlock: XOMCOT_clean_sbu_0, # of connection points: 5
#     Node 6, Type 0, BuildingBlock: XOMCOT_clean_sbu_0, # of connection points: 5
#     Node 7, Type 0, BuildingBlock: XOMCOT_clean_sbu_0, # of connection points: 5
#     Node 8, Type 0, BuildingBlock: XOMCOT_clean_sbu_0, # of connection points: 5
#     Node 9, Type 0, BuildingBlock: XOMCOT_clean_sbu_0, # of connection points: 5
#     Node 10, Type 0, BuildingBlock: XOMCOT_clean_sbu_0, # of connection points: 5
#     Node 11, Type 0, BuildingBlock: XOMCOT_clean_sbu_0, # of connection points: 5
#     Node 12, Type 0, BuildingBlock: XOMCOT_clean_sbu_0, # of connection points: 5
#     Node 13, Type 0, BuildingBlock: XOMCOT_clean_sbu_0, # of connection points: 5
#     Node 14, Type 0, BuildingBlock: XOMCOT_clean_sbu_0, # of connection points: 5
#     Node 15, Type 0, BuildingBlock: XOMCOT_clean_sbu_0, # of connection points: 5
#     Node 16, Type 0, BuildingBlock: XOMCOT_clean_sbu_0, # of connection points: 5
#     Node 17, Type 0, BuildingBlock: XOMCOT_clean_sbu_0, # of connection points: 5
#     Edge 18, Type (0, 0), BuildingBlock: AJUNOK_clean_linker_0, # of connection points: 2
#     Edge 19, Type (0, 0), BuildingBlock: AJUNOK_clean_linker_0, # of connection points: 2
#     Edge 20, Type (0, 0), BuildingBlock: AJUNOK_clean_linker_0, # of connection points: 2
#     Edge 21, Type (0, 0), BuildingBlock: AJUNOK_clean_linker_0, # of connection points: 2
#     Edge 22, Type (0, 0), BuildingBlock: AJUNOK_clean_linker_0, # of connection points: 2
#     Edge 23, Type (0, 0), BuildingBlock: AJUNOK_clean_linker_0, # of connection points: 2
#     Edge 24, Type (0, 0), BuildingBlock: AJUNOK_clean_linker_0, # of connection points: 2
#     Edge 25, Type (0, 0), BuildingBlock: AJUNOK_clean_linker_0, # of connection points: 2
#     Edge 26, Type (0, 0), BuildingBlock: AJUNOK_clean_linker_0, # of connection points: 2
#     Edge 27, Type (0, 0), BuildingBlock: AJUNOK_clean_linker_0, # of connection points: 2
#     Edge 28, Type (0, 0), BuildingBlock: AJUNOK_clean_linker_0, # of connection points: 2
#     Edge 29, Type (0, 0), BuildingBlock: AJUNOK_clean_linker_0, # of connection points: 2
#     Edge 30, Type (0, 0), BuildingBlock: AJUNOK_clean_linker_0, # of connection points: 2
#     Edge 31, Type (0, 0), BuildingBlock: AJUNOK_clean_linker_0, # of connection points: 2
#     Edge 32, Type (0, 0), BuildingBlock: AJUNOK_clean_linker_0, # of connection points: 2
#     Edge 33, Type (0, 0), BuildingBlock: AJUNOK_clean_linker_0, # of connection points: 2
#     Edge 34, Type (0, 0), BuildingBlock: AJUNOK_clean_linker_0, # of connection points: 2
#     Edge 35, Type (0, 0), BuildingBlock: AJUNOK_clean_linker_0, # of connection points: 2
#     Edge 36, Type (0, 0), BuildingBlock: AJUNOK_clean_linker_0, # of connection points: 2
#     Edge 37, Type (0, 0), BuildingBlock: AJUNOK_clean_linker_0, # of connection points: 2
#     Edge 38, Type (0, 0), BuildingBlock: AJUNOK_clean_linker_0, # of connection points: 2
#     Edge 39, Type (0, 0), BuildingBlock: AJUNOK_clean_linker_0, # of connection points: 2
#     Edge 40, Type (0, 0), BuildingBlock: AJUNOK_clean_linker_0, # of connection points: 2
#     Edge 41, Type (0, 0), BuildingBlock: AJUNOK_clean_linker_0, # of connection points: 2
#     Edge 42, Type (0, 0), BuildingBlock: AJUNOK_clean_linker_0, # of connection points: 2
#     Edge 43, Type (0, 0), BuildingBlock: AJUNOK_clean_linker_0, # of connection points: 2
#     Edge 44, Type (0, 0), BuildingBlock: AJUNOK_clean_linker_0, # of connection points: 2
#     Edge 45, Type (0, 0), BuildingBlock: AJUNOK_clean_linker_0, # of connection points: 2
#     Edge 46, Type (0, 0), BuildingBlock: AJUNOK_clean_linker_0, # of connection points: 2
#     Edge 47, Type (0, 0), BuildingBlock: AJUNOK_clean_linker_0, # of connection points: 2
#     Edge 48, Type (0, 0), BuildingBlock: AJUNOK_clean_linker_0, # of connection points: 2
#     Edge 49, Type (0, 0), BuildingBlock: AJUNOK_clean_linker_0, # of connection points: 2
#     Edge 50, Type (0, 0), BuildingBlock: AJUNOK_clean_linker_0, # of connection points: 2
#     Edge 51, Type (0, 0), BuildingBlock: AJUNOK_clean_linker_0, # of connection points: 2
#     Edge 52, Type (0, 0), BuildingBlock: AJUNOK_clean_linker_0, # of connection points: 2
#     Edge 53, Type (0, 0), BuildingBlock: AJUNOK_clean_linker_0, # of connection points: 2
#     Edge 54, Type (0, 0), BuildingBlock: AJUNOK_clean_linker_0, # of connection points: 2
#     Edge 55, Type (0, 0), BuildingBlock: AJUNOK_clean_linker_0, # of connection points: 2
#     Edge 56, Type (0, 0), BuildingBlock: AJUNOK_clean_linker_0, # of connection points: 2
#     Edge 57, Type (0, 0), BuildingBlock: AJUNOK_clean_linker_0, # of connection points: 2
#     Edge 58, Type (0, 0), BuildingBlock: AJUNOK_clean_linker_0, # of connection points: 2
#     Edge 59, Type (0, 0), BuildingBlock: AJUNOK_clean_linker_0, # of connection points: 2
#     Edge 60, Type (0, 0), BuildingBlock: AJUNOK_clean_linker_0, # of connection points: 2
#     Edge 61, Type (0, 0), BuildingBlock: AJUNOK_clean_linker_0, # of connection points: 2
#     Edge 62, Type (0, 0), BuildingBlock: AJUNOK_clean_linker_0, # of connection points: 2
# Relax obj value: 0.346
# Max RMSD: 0.197
# Mean RMSD: 0.197
data_MOF--net-wlb--node1-XOMCOT_clean_sbu_0--edge1-AJUNOK_clean_linker_0
_symmetry_space_group_name_H-M    P1
_symmetry_Int_Tables_number       1
_symmetry_cell_setting            triclinic
loop_
_symmetry_equiv_pos_as_xyz
'x, y, z'
_cell_length_a     39.290028
_cell_length_b     39.392256
_cell_length_c     30.101203
_cell_angle_alpha  90.008355
_cell_angle_beta   90.251981
_cell_angle_gamma 120.2036
loop_
_atom_site_label
_atom_site_type_symbol
_atom_site_fract_x
_atom_site_fract_y
_atom_site_fract_z
_atom_type_partial_charge
Co0 Co 0.07953 0.22073 0.25711 0.0
C1 C 0.0329 0.25634 0.22998 0.0
C2 C 1.00717 0.21837 0.28594 0.0
C3 C 0.98121 0.22956 0.27067 0.0
N4 N 0.03902 0.23445 0.25966 0.0
N5 N 0.99743 0.25345 0.23528 0.0
H6 H 0.0534 0.27269 0.20381 0.0
H7 H 1.00236 0.19845 0.31296 0.0
C8 C 0.03282 0.13249 0.25316 0.0
O9 O 0.05704 0.13451 0.22191 0.0
N10 N 0.12051 0.20658 0.25572 0.0
C11 C 0.15135 0.21933 0.22792 0.0
C12 C 0.16859 0.19657 0.23369 0.0
C13 C 0.12101 0.17776 0.27968 0.0
N14 N 0.14904 0.16994 0.26578 0.0
C15 C 0.09484 0.23902 0.16404 0.0
C16 C 1.02387 0.17926 0.13234 0.0
C17 C 0.05031 0.20658 0.10163 0.0
C18 C 0.08573 0.23769 0.11884 0.0
C19 C 0.03267 0.18383 0.17761 0.0
N20 N 0.06898 0.21161 0.19305 0.0
H21 H 0.12166 0.26399 0.176 0.0
H22 H 1.00919 0.1658 0.20005 0.0
H23 H 0.15986 0.2421 0.20345 0.0
H24 H 0.09917 0.16055 0.30441 0.0
O25 O 0.11876 0.27592 0.25518 0.0
O26 O 0.09621 0.24173 0.31696 0.0
O27 O 0.03827 0.16418 0.27169 0.0
C28 C 0.11871 0.27572 0.29828 0.0
H29 H 0.95179 0.21867 0.28319 0.0
H30 H 0.19143 0.19732 0.21302 0.0
H31 H 0.99572 0.15485 0.12218 0.0
H32 H 0.10593 0.2621 0.09856 0.0
Co33 Co 0.82363 0.86576 0.26022 0.0
C34 C 0.78167 0.78057 0.23436 0.0
C35 C 0.81139 0.79159 0.29708 0.0
C36 C 0.79539 0.75234 0.28694 0.0
N37 N 0.80387 0.80959 0.26336 0.0
N38 N 0.77668 0.74585 0.24768 0.0
H39 H 0.77002 0.78394 0.20343 0.0
H40 H 0.82893 0.80645 0.32612 0.0
C41 C 0.8948 0.85644 0.26111 0.0
O42 O 0.87552 0.82681 0.23364 0.0
N43 N 0.84322 0.9217 0.25891 0.0
C44 C 0.82541 0.94019 0.24098 0.0
C45 C 0.85109 0.98022 0.2429 0.0
C46 C 0.87929 0.9506 0.27143 0.0
N47 N 0.88483 0.98644 0.26195 0.0
C48 C 0.80203 0.85084 0.16822 0.0
C49 C 0.87686 0.88844 0.13318 0.0
C50 C 0.8447 0.86699 0.10444 0.0
C51 C 0.80685 0.84822 0.12282 0.0
C52 C 0.87063 0.88886 0.17895 0.0
N53 N 0.83362 0.86777 0.19635 0.0
H54 H 0.77245 0.8378 0.18084 0.0
H55 H 0.89564 0.90646 0.20009 0.0
H56 H 0.79653 0.92566 0.22568 0.0
H57 H 0.90171 0.94584 0.28592 0.0
O58 O 0.7702 0.85524 0.2572 0.0
O59 O 0.80244 0.86241 0.31983 0.0
O60 O 0.87883 0.87594 0.27516 0.0
C61 C 0.76959 0.85472 0.30019 0.0
H62 H 0.79809 0.73055 0.30609 0.0
H63 H 0.84633 1.00283 0.22892 0.0
H64 H 0.90659 0.90485 0.12048 0.0
H65 H 0.78084 0.83077 0.10276 0.0
Co66 Co 0.17908 0.96884 0.25507 0.0
C67 C 0.26076 1.01034 0.22348 0.0
C68 C 0.25391 0.03918 0.28048 0.0
C69 C 0.29179 0.06167 0.26481 0.0
N70 N 0.23443 1.00751 0.25393 0.0
N71 N 0.29587 0.0433 0.22918 0.0
H72 H 0.25362 0.99001 0.19607 0.0
H73 H 0.24108 0.04617 0.3082 0.0
C74 C 0.14494 0.02229 0.25581 0.0
O75 O 0.12122 1.00114 0.22337 0.0
N76 N 0.12295 0.92852 0.25737 0.0
C77 C 0.1072 0.89097 0.24335 0.0
C78 C 0.06713 0.87154 0.24912 0.0
C79 C 0.09188 0.93026 0.27426 0.0
N80 N 0.05727 0.89635 0.26803 0.0
C81 C 0.15927 0.95013 0.1615 0.0
C82 C 0.19376 0.02706 0.13289 0.0
C83 C 0.17642 0.99693 0.10122 0.0
C84 C 0.15856 0.95796 0.11622 0.0
C85 C 0.19313 0.01796 0.17782 0.0
N86 N 0.17548 0.97982 0.19206 0.0
H87 H 0.14768 0.92014 0.17145 0.0
H88 H 0.20777 0.04191 0.20116 0.0
H89 H 0.12345 0.8782 0.22923 0.0
H90 H 0.0943 0.95536 0.29159 0.0
O91 O 0.19311 0.92844 0.24865 0.0
O92 O 0.18678 0.95162 0.31298 0.0
O93 O 0.16807 1.01217 0.2739 0.0
C94 C 0.19573 0.92831 0.29174 0.0
H95 H 0.31429 0.08976 0.27782 0.0
H96 H 0.04666 0.84173 0.2387 0.0
H97 H 0.20869 0.05763 0.12302 0.0
H98 H 0.14438 0.93355 0.09323 0.0
Co99 Co 0.2208 0.06552 0.76095 0.0
C100 C 0.26757 0.03127 0.79755 0.0
C101 C 0.23956 1.00495 0.73573 0.0
C102 C 0.25929 0.98664 0.75077 0.0
N103 N 0.24332 0.03177 0.7661 0.0
N104 N 0.27676 1.00302 0.78994 0.0
H105 H 0.27975 0.05227 0.82409 0.0
H106 H 0.2226 0.99838 0.70532 0.0
C107 C 0.15274 0.98265 0.75675 0.0
O108 O 0.17094 0.97363 0.78714 0.0
N109 N 0.19856 0.09959 0.75363 0.0
C110 C 0.21746 0.13783 0.74205 0.0
C111 C 0.19016 0.1495 0.73564 0.0
C112 C 0.16002 0.08881 0.75432 0.0
N113 N 0.15388 0.11861 0.74316 0.0
C114 C 0.23626 0.07857 0.85495 0.0
C115 C 0.16108 0.02707 0.88438 0.0
C116 C 0.19209 0.04286 0.91501 0.0
C117 C 0.22981 0.07004 0.90026 0.0
C118 C 0.1689 0.03632 0.83929 0.0
N119 N 0.20672 0.05925 0.82443 0.0
H120 H 0.26576 0.09935 0.84443 0.0
H121 H 0.14424 0.02391 0.81684 0.0
H122 H 0.24886 0.15622 0.73767 0.0
H123 H 0.13703 0.05985 0.76326 0.0
O124 O 0.27356 0.11029 0.76558 0.0
O125 O 0.24527 0.08081 0.70253 0.0
O126 O 0.16774 0.01825 0.74323 0.0
C127 C 0.27685 0.10738 0.72306 0.0
H128 H 0.25974 0.9624 0.73446 0.0
H129 H 0.19671 0.17852 0.72553 0.0
H130 H 0.13125 1.00692 0.89501 0.0
H131 H 0.25433 0.08365 0.92338 0.0
Co132 Co 0.96306 0.16324 0.76037 0.0
C133 C 1.00963 0.24655 0.78256 0.0
C134 C 0.03515 0.23245 0.72782 0.0
C135 C 0.06059 0.27075 0.74061 0.0
N136 N 1.00352 0.21738 0.7546 0.0
N137 N 0.04445 0.27934 0.77521 0.0
H138 H 0.98992 0.24316 0.80937 0.0
H139 H 0.04051 0.2161 0.70268 0.0
C140 C 1.00875 0.12043 0.75929 0.0
O141 O 0.98688 0.09828 0.79206 0.0
N142 N 0.92195 0.1083 0.76534 0.0
C143 C 0.89398 0.09188 0.79676 0.0
C144 C 0.87751 0.05175 0.7948 0.0
C145 C 0.91979 0.07759 0.74262 0.0
N146 N 0.89442 0.04279 0.76141 0.0
C147 C 0.95408 0.17053 0.85467 0.0
C148 C 0.02573 0.17983 0.88044 0.0
C149 C 1.00257 0.18395 0.91293 0.0
C150 C 0.96624 0.17942 0.8991 0.0
C151 C 1.01394 0.17428 0.8361 0.0
N152 N 0.97736 0.16695 0.82359 0.0
H153 H 0.9269 0.169 0.84496 0.0
H154 H 0.03551 0.17779 0.81202 0.0
H155 H 0.8876 0.10759 0.82153 0.0
H156 H 0.93993 0.08074 0.71642 0.0
O157 O 0.92407 0.17938 0.76438 0.0
O158 O 0.94327 0.16522 0.70169 0.0
O159 O 1.0031 0.14729 0.74307 0.0
C160 C 0.92175 0.17732 0.72131 0.0
H161 H 0.0898 0.2897 0.72755 0.0
H162 H 0.85753 0.03101 0.81896 0.0
H163 H 0.0533 0.18138 0.88833 0.0
H164 H 0.94752 0.18365 0.92197 0.0
Co165 Co 0.87134 0.8185 0.76279 0.0
C166 C 0.7898 0.78254 0.79222 0.0
C167 C 0.79877 0.81766 0.73409 0.0
C168 C 0.76038 0.80253 0.74818 0.0
N169 N 0.81699 0.80516 0.76204 0.0
N170 N 0.7551 0.78066 0.7848 0.0
H171 H 0.79561 0.7685 0.81977 0.0
H172 H 0.81265 0.83717 0.70631 0.0
C173 C 0.91319 0.90642 0.76417 0.0
O174 O 0.93568 0.90494 0.79569 0.0
N175 N 0.92619 0.83088 0.76293 0.0
C176 C 0.94046 0.80973 0.78243 0.0
C177 C 0.98039 0.828 0.7757 0.0
C178 C 0.95769 0.86055 0.74219 0.0
N179 N 0.99132 0.86012 0.75055 0.0
C180 C 0.8796 0.81094 0.85789 0.0
C181 C 0.8589 0.86563 0.8829 0.0
C182 C 0.86553 0.84479 0.91618 0.0
C183 C 0.87624 0.8172 0.90313 0.0
C184 C 0.86084 0.85723 0.83845 0.0
N185 N 0.87301 0.83163 0.82595 0.0
H186 H 0.88524 0.78784 0.84882 0.0
H187 H 0.8513 0.87077 0.81403 0.0
H188 H 0.92332 0.78258 0.80023 0.0
H189 H 0.95641 0.88241 0.72169 0.0
O190 O 0.85372 0.763 0.76789 0.0
O191 O 0.86436 0.79488 0.70439 0.0
O192 O 0.88741 0.8746 0.74507 0.0
C193 C 0.85274 0.76159 0.7247 0.0
H194 H 0.73862 0.80843 0.73372 0.0
H195 H 1.00003 0.81912 0.78996 0.0
H196 H 0.85136 0.88783 0.89082 0.0
H197 H 0.88059 0.79954 0.92756 0.0
Co198 Co 0.73613 0.55161 0.59631 0.0
C199 C 0.69416 0.58933 0.55531 0.0
C200 C 0.67338 0.56758 0.62083 0.0
C201 C 0.65185 0.58361 0.60434 0.0
N202 N 0.69908 0.57009 0.58949 0.0
N203 N 0.66533 0.59735 0.56343 0.0
H204 H 0.71064 0.59722 0.52488 0.0
H205 H 0.66991 0.55407 0.65303 0.0
C206 C 0.65505 0.48114 0.60074 0.0
O207 O 0.64599 0.49813 0.56898 0.0
N208 N 0.77416 0.53423 0.60506 0.0
C209 C 0.81215 0.55619 0.61801 0.0
C210 C 0.8282 0.5324 0.62264 0.0
C211 C 0.76792 0.49735 0.60188 0.0
N212 N 0.80049 0.49533 0.61202 0.0
C213 C 0.74909 0.56417 0.50169 0.0
C214 C 0.70027 0.48745 0.47491 0.0
C215 C 0.71457 0.51704 0.44278 0.0
C216 C 0.74091 0.55562 0.45636 0.0
C217 C 0.70942 0.49727 0.51972 0.0
N218 N 0.73069 0.53569 0.53323 0.0
H219 H 0.76835 0.59436 0.51136 0.0
H220 H 0.69809 0.47349 0.54305 0.0
H221 H 0.82757 0.58738 0.62451 0.0
H222 H 0.7401 0.47237 0.59238 0.0
O223 O 0.77821 0.60568 0.59082 0.0
O224 O 0.75006 0.57769 0.65417 0.0
O225 O 0.69081 0.49739 0.6151 0.0
C226 C 0.77506 0.60953 0.63323 0.0
H227 H 0.62823 0.5851 0.62089 0.0
H228 H 0.8577 0.54188 0.63432 0.0
H229 H 0.6815 0.45694 0.46555 0.0
H230 H 0.75362 0.57929 0.43242 0.0
Co231 Co 0.48398 0.20082 0.59233 0.0
C232 C 0.44603 0.11876 0.56477 0.0
C233 C 0.48267 0.12883 0.62207 0.0
C234 C 0.46868 0.09084 0.60742 0.0
N235 N 0.46908 0.14634 0.59453 0.0
N236 N 0.44556 0.08486 0.57166 0.0
H237 H 0.43158 0.12394 0.53709 0.0
H238 H 0.5022 0.143 0.64994 0.0
C239 C 0.57275 0.24239 0.59404 0.0
O240 O 0.57289 0.2668 0.56417 0.0
N241 N 0.49849 0.25594 0.59059 0.0
C242 C 0.48366 0.27233 0.56314 0.0
C243 C 0.50336 0.31218 0.57012 0.0
C244 C 0.52581 0.28614 0.61551 0.0
N245 N 0.53039 0.32114 0.60258 0.0
C246 C 0.46781 0.19823 0.49854 0.0
C247 C 0.53036 0.19128 0.46916 0.0
C248 C 0.50355 0.19021 0.4373 0.0
C249 C 0.47095 0.19214 0.45333 0.0
C250 C 0.52398 0.19364 0.51433 0.0
N251 N 0.49482 0.20023 0.52872 0.0
H252 H 0.44183 0.19844 0.5094 0.0
H253 H 0.54181 0.18836 0.53733 0.0
H254 H 0.46048 0.25686 0.53912 0.0
H255 H 0.54272 0.28259 0.64165 0.0
O256 O 0.42883 0.18519 0.58819 0.0
O257 O 0.4617 0.19616 0.65121 0.0
O258 O 0.53992 0.21533 0.60965 0.0
C259 C 0.42816 0.18512 0.63127 0.0
H260 H 0.47556 0.06959 0.62119 0.0
H261 H 0.49932 0.33321 0.55106 0.0
H262 H 0.55577 0.18914 0.45998 0.0
H263 H 0.44675 0.18734 0.43206 0.0
Co264 Co 0.83844 0.2988 0.58986 0.0
C265 C 0.9221 0.33841 0.56544 0.0
C266 C 0.91242 0.36552 0.62212 0.0
C267 C 0.9513 0.38765 0.60994 0.0
N268 N 0.89419 0.3351 0.59374 0.0
N269 N 0.95732 0.37055 0.57428 0.0
H270 H 0.91617 0.31876 0.53761 0.0
H271 H 0.89803 0.37235 0.64828 0.0
C272 C 0.80698 0.35389 0.58868 0.0
O273 O 0.78497 0.33394 0.55459 0.0
N274 N 0.78167 0.26172 0.58818 0.0
C275 C 0.76188 0.22628 0.56799 0.0
C276 C 0.72194 0.21132 0.57324 0.0
C277 C 0.75332 0.26599 0.6083 0.0
N278 N 0.71677 0.23673 0.59816 0.0
C279 C 0.82791 0.28477 0.49458 0.0
C280 C 0.86331 0.3631 0.47085 0.0
C281 C 0.84943 0.33459 0.43756 0.0
C282 C 0.83186 0.29501 0.44955 0.0
C283 C 0.85903 0.35166 0.51523 0.0
N284 N 0.84012 0.31282 0.52703 0.0
H285 H 0.8167 0.2545 0.50303 0.0
H286 H 0.87202 0.3743 0.5402 0.0
H287 H 0.77513 0.21204 0.55034 0.0
H288 H 0.75882 0.29043 0.62939 0.0
O289 O 0.84912 0.25626 0.58336 0.0
O290 O 0.84109 0.27834 0.64771 0.0
O291 O 0.82913 0.3432 0.60813 0.0
C292 C 0.84938 0.25451 0.62647 0.0
H293 H 0.97259 0.41556 0.62442 0.0
H294 H 0.69857 0.18489 0.55799 0.0
H295 H 0.87838 0.39406 0.46258 0.0
H296 H 0.82221 0.27234 0.42435 0.0
Co297 Co 0.89572 0.40113 0.09579 0.0
C298 C 0.9292 0.35285 0.12931 0.0
C299 C 0.91138 0.34048 0.06106 0.0
C300 C 0.92457 0.31562 0.07462 0.0
N301 N 0.91372 0.3634 0.09569 0.0
N302 N 0.93506 0.32322 0.11769 0.0
H303 H 0.93575 0.36579 0.16191 0.0
H304 H 0.89957 0.34086 0.02867 0.0
C305 C 0.82456 0.32085 0.09405 0.0
O306 O 0.84342 0.31151 0.12319 0.0
N307 N 0.87882 0.4396 0.09543 0.0
C308 C 0.89908 0.4752 0.11477 0.0
C309 C 0.87764 0.49381 0.11134 0.0
C310 C 0.84484 0.4368 0.08078 0.0
N311 N 0.84368 0.46996 0.08966 0.0
C312 C 0.917 0.41451 0.18845 0.0
C313 C 0.84261 0.36789 0.2227 0.0
C314 C 0.875 0.38301 0.25188 0.0
C315 C 0.91233 0.40864 0.2343 0.0
C316 C 0.84854 0.37579 0.17719 0.0
N317 N 0.88573 0.39544 0.16001 0.0
H318 H 0.94634 0.433 0.17584 0.0
H319 H 0.82298 0.36545 0.15612 0.0
H320 H 0.92698 0.4864 0.13185 0.0
H321 H 0.82127 0.41102 0.06477 0.0
O322 O 0.95052 0.4427 0.097 0.0
O323 O 0.91666 0.41624 0.03567 0.0
O324 O 0.83974 0.35665 0.08089 0.0
C325 C 0.95042 0.44076 0.054 0.0
H326 H 0.92512 0.29289 0.05496 0.0
H327 H 0.88565 0.52204 0.12579 0.0
H328 H 0.81286 0.34939 0.23458 0.0
H329 H 0.938 0.42374 0.25554 0.0
Co330 Co 0.6402 0.49723 0.10341 0.0
C331 C 0.68244 0.57923 0.1391 0.0
C332 C 0.70213 0.57492 0.07413 0.0
C333 C 0.72487 0.61306 0.08883 0.0
N334 N 0.67632 0.55344 0.10627 0.0
N335 N 0.7122 0.61535 0.12955 0.0
H336 H 0.66661 0.57236 0.16988 0.0
H337 H 0.70525 0.5632 0.0429 0.0
C338 C 0.72145 0.50827 0.10054 0.0
O339 O 0.73189 0.53621 0.1303 0.0
N340 N 0.60424 0.44135 0.09918 0.0
C341 C 0.56851 0.42087 0.11811 0.0
C342 C 0.555 0.38132 0.11268 0.0
C343 C 0.61194 0.41414 0.08248 0.0
N344 N 0.58244 0.37725 0.09034 0.0
C345 C 0.62953 0.50265 0.19744 0.0
C346 C 0.67537 0.47219 0.22675 0.0
C347 C 0.66201 0.48926 0.25781 0.0
C348 C 0.63749 0.50322 0.24286 0.0
C349 C 0.66624 0.47183 0.18165 0.0
N350 N 0.64682 0.49044 0.16698 0.0
H351 H 0.61101 0.51409 0.18667 0.0
H352 H 0.67531 0.45687 0.15881 0.0
H353 H 0.55428 0.43368 0.13679 0.0
H354 H 0.63922 0.42088 0.0665 0.0
O355 O 0.59663 0.50711 0.10678 0.0
O356 O 0.62449 0.5048 0.04433 0.0
O357 O 0.68575 0.48889 0.08664 0.0
C358 C 0.59865 0.51116 0.06389 0.0
H359 H 0.74908 0.63705 0.07144 0.0
H360 H 0.5284 0.35753 0.12687 0.0
H361 H 0.69278 0.45929 0.23723 0.0
H362 H 0.62573 0.51585 0.26583 0.0
Co363 Co 0.54478 0.14501 0.09643 0.0
C364 C 0.46154 0.10668 0.12095 0.0
C365 C 0.47283 0.14234 0.06283 0.0
C366 C 0.4342 0.12788 0.07538 0.0
N367 N 0.48994 0.12956 0.09202 0.0
N368 N 0.42735 0.10536 0.11171 0.0
H369 H 0.46635 0.09311 0.1497 0.0
H370 H 0.48769 0.16178 0.0353 0.0
C371 C 0.58613 0.23317 0.09379 0.0
O372 O 0.60902 0.23344 0.12594 0.0
N373 N 0.60031 0.1602 0.10012 0.0
C374 C 0.61682 0.14548 0.12764 0.0
C375 C 0.657 0.16599 0.12194 0.0
C376 C 0.63082 0.18828 0.07645 0.0
N377 N 0.66583 0.1932 0.09011 0.0
C378 C 0.54231 0.13282 0.19132 0.0
C379 C 0.52983 0.19333 0.21497 0.0
C380 C 0.52842 0.16795 0.24856 0.0
C381 C 0.53455 0.13704 0.23574 0.0
C382 C 0.53401 0.18582 0.17074 0.0
N383 N 0.54294 0.15762 0.15919 0.0
H384 H 0.54502 0.10778 0.18257 0.0
H385 H 0.52841 0.2021 0.14597 0.0
H386 H 0.6012 0.12187 0.15088 0.0
H387 H 0.62779 0.2059 0.0509 0.0
O388 O 0.52943 0.09034 0.10299 0.0
O389 O 0.54107 0.12091 0.03861 0.0
O390 O 0.55957 0.20036 0.07719 0.0
C391 C 0.52977 0.08813 0.06 0.0
H392 H 0.41309 0.13417 0.05983 0.0
H393 H 0.67828 0.16248 0.14137 0.0
H394 H 0.52713 0.21874 0.22185 0.0
H395 H 0.5323 0.11534 0.25938 0.0
Co396 Co 0.41382 0.88381 0.92323 0.0
C397 C 0.37621 0.92875 0.88941 0.0
C398 C 0.35431 0.90212 0.95284 0.0
C399 C 0.33514 0.92176 0.94054 0.0
N400 N 0.37941 0.90572 0.92032 0.0
N401 N 0.34912 0.93861 0.90074 0.0
H402 H 0.39323 0.93864 0.85942 0.0
H403 H 0.34956 0.8854 0.98299 0.0
C404 C 0.33168 0.81498 0.92116 0.0
O405 O 0.32379 0.83556 0.89294 0.0
N406 N 0.44838 0.86202 0.92856 0.0
C407 C 0.48734 0.88105 0.93751 0.0
C408 C 0.49909 0.85377 0.94353 0.0
C409 C 0.43726 0.82354 0.92899 0.0
N410 N 0.46747 0.81748 0.93845 0.0
C411 C 0.42666 0.90205 0.8293 0.0
C412 C 0.37709 0.82693 0.79816 0.0
C413 C 0.39218 0.85788 0.76752 0.0
C414 C 0.41866 0.89576 0.78361 0.0
C415 C 0.38708 0.83442 0.84306 0.0
N416 N 0.4083 0.87201 0.85901 0.0
H417 H 0.44636 0.93159 0.84085 0.0
H418 H 0.37618 0.80947 0.86466 0.0
H419 H 0.5061 0.91251 0.94046 0.0
H420 H 0.40765 0.80046 0.92207 0.0
O421 O 0.45841 0.93707 0.92194 0.0
O422 O 0.4282 0.90538 0.98299 0.0
O423 O 0.36646 0.82996 0.93779 0.0
C424 C 0.45493 0.93799 0.96481 0.0
H425 H 0.31164 0.92215 0.9587 0.0
H426 H 0.52861 0.86032 0.95184 0.0
H427 H 0.35645 0.79705 0.78832 0.0
H428 H 0.43252 0.92058 0.76127 0.0
Co429 Co 0.15786 0.52977 0.92096 0.0
C430 C 0.1213 0.44888 0.88296 0.0
C431 C 0.14346 0.45212 0.9489 0.0
C432 C 0.12877 0.4144 0.93317 0.0
N433 N 0.13974 0.47402 0.91684 0.0
N434 N 0.11541 0.41277 0.89146 0.0
H435 H 0.11129 0.45599 0.85305 0.0
H436 H 0.15706 0.46319 0.98099 0.0
C437 C 0.22879 0.52066 0.92438 0.0
O438 O 0.21167 0.4947 0.89245 0.0
N439 N 0.17497 0.58539 0.92619 0.0
C440 C 0.15171 0.60111 0.91985 0.0
C441 C 0.1742 0.64122 0.92216 0.0
C442 C 0.2117 0.61666 0.9323 0.0
N443 N 0.21181 0.65105 0.93002 0.0
C444 C 0.14271 0.52574 0.82668 0.0
C445 C 0.21973 0.55843 0.79892 0.0
C446 C 0.18947 0.54077 0.76728 0.0
C447 C 0.1506 0.52567 0.78145 0.0
C448 C 0.21043 0.55807 0.84384 0.0
N449 N 0.17211 0.53831 0.85774 0.0
H450 H 0.11244 0.51336 0.83676 0.0
H451 H 0.23433 0.57307 0.8672 0.0
H452 H 0.12062 0.58493 0.91217 0.0
H453 H 0.238 0.61458 0.93587 0.0
O454 O 0.10326 0.51651 0.91605 0.0
O455 O 0.1331 0.51992 0.97942 0.0
O456 O 0.21272 0.53999 0.93902 0.0
C457 C 0.10065 0.51213 0.95885 0.0
H458 H 0.12875 0.39035 0.95059 0.0
H459 H 0.16402 0.66183 0.91662 0.0
H460 H 0.25031 0.57215 0.78905 0.0
H461 H 0.12629 0.51244 0.75805 0.0
Co462 Co 0.50684 0.62365 0.92505 0.0
C463 C 0.58841 0.67099 0.89457 0.0
C464 C 0.57848 0.69626 0.95274 0.0
C465 C 0.6158 0.72173 0.93709 0.0
N466 N 0.56135 0.66471 0.92571 0.0
N467 N 0.62161 0.70596 0.90013 0.0
H468 H 0.58343 0.65085 0.86761 0.0
H469 H 0.5642 0.70128 0.98055 0.0
C470 C 0.46407 0.66966 0.92755 0.0
O471 O 0.43899 0.64591 0.89756 0.0
N472 N 0.45161 0.58188 0.9247 0.0
C473 C 0.43532 0.54931 0.89914 0.0
C474 C 0.39518 0.52916 0.90524 0.0
C475 C 0.42101 0.57985 0.9477 0.0
N476 N 0.38609 0.54861 0.93539 0.0
C477 C 0.5078 0.60815 0.83156 0.0
C478 C 0.51282 0.67638 0.80063 0.0
C479 C 0.515 0.65101 0.76943 0.0
C480 C 0.51365 0.61694 0.78618 0.0
C481 C 0.51082 0.66825 0.84591 0.0
N482 N 0.50563 0.63328 0.86115 0.0
H483 H 0.50811 0.58242 0.84311 0.0
H484 H 0.5156 0.69146 0.86828 0.0
H485 H 0.45107 0.54101 0.87649 0.0
H486 H 0.42382 0.60169 0.97151 0.0
O487 O 0.52347 0.58483 0.92248 0.0
O488 O 0.51303 0.60793 0.9845 0.0
O489 O 0.492 0.6646 0.94159 0.0
C490 C 0.52402 0.58523 0.96564 0.0
H491 H 0.63628 0.75049 0.95045 0.0
H492 H 0.37407 0.50352 0.88671 0.0
H493 H 0.51412 0.7034 0.79087 0.0
H494 H 0.51889 0.59774 0.76542 0.0
Co495 Co 0.56319 0.74022 0.42944 0.0
C496 C 0.60332 0.69703 0.45139 0.0
C497 C 0.56496 0.67118 0.3951 0.0
C498 C 0.57966 0.64726 0.40722 0.0
N499 N 0.57934 0.70186 0.42346 0.0
N500 N 0.60388 0.66393 0.44229 0.0
H501 H 0.61785 0.71578 0.47976 0.0
H502 H 0.54371 0.66549 0.36902 0.0
C503 C 0.47449 0.68981 0.42296 0.0
O504 O 0.47125 0.71003 0.4557 0.0
N505 N 0.54707 0.77951 0.43479 0.0
C506 C 0.56291 0.81104 0.46203 0.0
C507 C 0.54246 0.83072 0.45726 0.0
C508 C 0.51821 0.78165 0.41234 0.0
N509 N 0.51397 0.81188 0.42655 0.0
C510 C 0.57617 0.74883 0.52446 0.0
C511 C 0.51505 0.67569 0.54748 0.0
C512 C 0.54062 0.69948 0.58127 0.0
C513 C 0.57182 0.73662 0.56885 0.0
C514 C 0.52246 0.68778 0.5034 0.0
N515 N 0.5511 0.72484 0.49207 0.0
H516 H 0.6013 0.77678 0.516 0.0
H517 H 0.50573 0.6663 0.47866 0.0
H518 H 0.58757 0.81943 0.48411 0.0
H519 H 0.50014 0.7612 0.38668 0.0
O520 O 0.61798 0.78058 0.43632 0.0
O521 O 0.58643 0.76168 0.37207 0.0
O522 O 0.5085 0.69854 0.40858 0.0
C523 C 0.61944 0.7835 0.39332 0.0
H524 H 0.57195 0.6191 0.39276 0.0
H525 H 0.54722 0.85614 0.47618 0.0
H526 H 0.48947 0.64745 0.5542 0.0
H527 H 0.59351 0.75599 0.59286 0.0
Co528 Co 0.30985 0.8379 0.42829 0.0
C529 C 0.35181 0.9206 0.46056 0.0
C530 C 0.37102 0.91527 0.39572 0.0
C531 C 0.3931 0.95393 0.40916 0.0
N532 N 0.34604 0.89417 0.42869 0.0
N533 N 0.38052 0.95687 0.44969 0.0
H534 H 0.33638 0.91405 0.49159 0.0
H535 H 0.37402 0.90303 0.36481 0.0
C536 C 0.39128 0.85 0.42457 0.0
O537 O 0.40136 0.87899 0.4528 0.0
N538 N 0.27266 0.78188 0.42731 0.0
C539 C 0.23764 0.76498 0.44807 0.0
C540 C 0.21943 0.72504 0.44264 0.0
C541 C 0.27554 0.7517 0.40982 0.0
N542 N 0.24299 0.71656 0.4184 0.0
C543 C 0.30103 0.84544 0.52296 0.0
C544 C 0.34853 0.81643 0.55074 0.0
C545 C 0.33529 0.83302 0.5827 0.0
C546 C 0.30985 0.84624 0.5683 0.0
C547 C 0.3377 0.8149 0.50625 0.0
N548 N 0.31779 0.83307 0.49203 0.0
H549 H 0.28181 0.8562 0.51263 0.0
H550 H 0.34616 0.79948 0.48344 0.0
H551 H 0.2265 0.78059 0.46705 0.0
H552 H 0.30076 0.7552 0.39157 0.0
O553 O 0.26677 0.84883 0.43081 0.0
O554 O 0.29357 0.84347 0.36893 0.0
O555 O 0.35519 0.82892 0.41189 0.0
C556 C 0.26837 0.85116 0.38767 0.0
H557 H 0.41676 0.97782 0.39105 0.0
H558 H 0.19155 0.70367 0.45703 0.0
H559 H 0.36807 0.80556 0.55928 0.0
H560 H 0.29725 0.85768 0.59173 0.0
Co561 Co 0.20957 0.48365 0.4301 0.0
C562 C 0.12926 0.44667 0.46933 0.0
C563 C 0.13104 0.46789 0.40336 0.0
C564 C 0.09324 0.45204 0.41911 0.0
N565 N 0.15387 0.46553 0.43542 0.0
N566 N 0.09238 0.43911 0.46078 0.0
H567 H 0.1374 0.43725 0.49899 0.0
H568 H 0.14145 0.48107 0.37109 0.0
C569 C 0.20134 0.55544 0.42279 0.0
O570 O 0.17306 0.53919 0.45224 0.0
N571 N 0.26515 0.5013 0.42294 0.0
C572 C 0.28177 0.48004 0.41038 0.0
C573 C 0.3213 0.50505 0.40314 0.0
C574 C 0.29506 0.53884 0.42354 0.0
N575 N 0.32976 0.54214 0.41164 0.0
C576 C 0.20858 0.47017 0.52451 0.0
C577 C 0.23449 0.54616 0.5521 0.0
C578 C 0.2187 0.51604 0.5836 0.0
C579 C 0.20749 0.47791 0.56972 0.0
C580 C 0.23537 0.53714 0.50734 0.0
N581 N 0.21907 0.49899 0.49332 0.0
H582 H 0.19824 0.44022 0.51454 0.0
H583 H 0.24855 0.56124 0.48447 0.0
H584 H 0.26639 0.44866 0.40515 0.0
H585 H 0.29147 0.56347 0.43185 0.0
O586 O 0.19692 0.42947 0.43563 0.0
O587 O 0.19821 0.45799 0.3721 0.0
O588 O 0.22011 0.53805 0.41093 0.0
C589 C 0.19088 0.42602 0.393 0.0
H590 H 0.06851 0.45077 0.40158 0.0
H591 H 0.34152 0.49634 0.39063 0.0
H592 H 0.24548 0.5764 0.56189 0.0
H593 H 0.19616 0.45392 0.59328 0.0
C594 C 0.97638 0.29383 0.13198 0.0
C595 C 0.94815 0.30302 0.14652 0.0
C596 C 0.99179 0.2771 0.16097 0.0
C597 C 0.97963 0.26908 0.20571 0.0
H598 H 0.98728 0.30051 0.09827 0.0
H599 H 1.01339 0.27043 0.14796 0.0
S600 S 0.90172 0.28279 0.25758 0.0
N601 N 0.90495 0.29884 0.20629 0.0
N602 N 0.93505 0.26918 0.2617 0.0
C603 C 0.95007 0.27677 0.21998 0.0
C604 C 0.93413 0.2934 0.1902 0.0
C605 C 0.70482 0.66122 0.17814 0.0
C606 C 0.72887 0.6482 0.15923 0.0
C607 C 0.72047 0.69278 0.20807 0.0
C608 C 0.7602 0.71116 0.22096 0.0
H609 H 0.67397 0.64727 0.16903 0.0
H610 H 0.70166 0.70314 0.22109 0.0
S611 S 0.83476 0.687 0.18215 0.0
N612 N 0.79389 0.65539 0.15585 0.0
N613 N 0.82313 0.71428 0.21317 0.0
C614 C 0.78428 0.69789 0.20302 0.0
C615 C 0.76862 0.66642 0.17182 0.0
C616 C 0.37739 0.11191 0.15378 0.0
C617 C 0.39315 0.08872 0.13949 0.0
C618 C 0.34592 0.09707 0.18371 0.0
C619 C 0.32877 0.05834 0.19952 0.0
H620 H 0.39017 0.14198 0.14254 0.0
H621 H 0.33456 0.11575 0.19423 0.0
S622 S 0.35885 0.9857 0.17136 0.0
N623 N 0.38941 0.02537 0.14305 0.0
N624 N 0.32945 0.99707 0.1985 0.0
C625 C 0.34386 0.03472 0.18491 0.0
C626 C 0.37635 0.05006 0.15514 0.0
C627 C 0.31491 0.96931 0.8001 0.0
C628 C 0.29848 0.9908 0.81828 0.0
C629 C 0.33239 0.95337 0.82705 0.0
C630 C 0.33471 0.95865 0.87335 0.0
H631 H 0.31376 0.96406 0.76472 0.0
H632 H 0.34298 0.93564 0.81156 0.0
S633 S 0.30198 0.01719 0.93774 0.0
N634 N 0.28847 0.01868 0.88616 0.0
N635 N 0.32378 0.99075 0.93594 0.0
C636 C 0.32074 0.98199 0.89191 0.0
C637 C 0.30217 0.99768 0.86463 0.0
C638 C 0.07462 0.34154 0.87841 0.0
C639 C 0.0987 0.37959 0.86174 0.0
C640 C 0.05705 0.30903 0.84992 0.0
C641 C 0.063 0.31333 0.80367 0.0
H642 H 0.06883 0.33695 0.91368 0.0
H643 H 0.03895 0.28022 0.86433 0.0
S644 S 0.12519 0.40653 0.74347 0.0
N645 N 0.12941 0.41958 0.79623 0.0
N646 N 0.09519 0.35848 0.74258 0.0
C647 C 0.08751 0.35113 0.7866 0.0
C648 C 0.10557 0.38427 0.81563 0.0
C649 C 0.6931 0.74678 0.88775 0.0
C650 C 0.65472 0.72451 0.8705 0.0
C651 C 0.72575 0.765 0.85954 0.0
C652 C 0.72111 0.76211 0.81305 0.0
H653 H 0.69791 0.7497 0.92334 0.0
H654 H 0.75485 0.78184 0.87415 0.0
S655 S 0.62698 0.70831 0.75104 0.0
N656 N 0.61393 0.70154 0.80381 0.0
N657 N 0.67548 0.73557 0.75099 0.0
C658 C 0.68296 0.74039 0.79534 0.0
C659 C 0.64971 0.72156 0.824 0.0
C660 C 0.61017 0.5943 0.52155 0.0
C661 C 0.65031 0.61446 0.53294 0.0
C662 C 0.59531 0.60997 0.49037 0.0
C663 C 0.62013 0.6465 0.47054 0.0
H664 H 0.59041 0.56615 0.53652 0.0
H665 H 0.56415 0.59407 0.48251 0.0
S666 S 0.72707 0.71084 0.49004 0.0
N667 N 0.71452 0.67237 0.52223 0.0
N668 N 0.68621 0.7025 0.46453 0.0
C669 C 0.66017 0.66697 0.48192 0.0
C670 C 0.67541 0.6507 0.51291 0.0
C671 C 0.43696 1.00878 0.49068 0.0
C672 C 0.39699 0.99025 0.47863 0.0
C673 C 0.45255 0.03899 0.52242 0.0
C674 C 0.42867 0.05183 0.54222 0.0
H675 H 0.45589 0.99916 0.4762 0.0
H676 H 0.48351 0.05294 0.531 0.0
S677 S 0.32254 1.01312 0.52119 0.0
N678 N 0.33399 0.98655 0.48869 0.0
N679 N 0.36364 0.04431 0.5474 0.0
C680 C 0.38887 0.03383 0.52998 0.0
C681 C 0.3729 1.0027 0.49841 0.0
C682 C 1.02089 0.39799 0.4727 0.0
C683 C 0.05904 0.42135 0.49015 0.0
C684 C 0.98797 0.38102 0.50042 0.0
C685 C 0.99188 0.38664 0.54677 0.0
H686 H 1.01641 0.39272 0.43728 0.0
H687 H 0.95916 0.36411 0.4852 0.0
S688 S 0.08543 0.44536 0.60929 0.0
N689 N 0.09883 0.45009 0.55674 0.0
N690 N 0.03711 0.41641 0.60902 0.0
C691 C 0.02993 0.40957 0.56477 0.0
C692 C 0.06346 0.42728 0.53646 0.0
C693 C 0.17431 0.38555 0.32326 0.0
C694 C 0.17509 0.38741 0.36992 0.0
C695 C 0.15734 0.34939 0.3007 0.0
C696 C 0.13997 0.31334 0.32373 0.0
H697 H 0.18648 0.41226 0.30384 0.0
H698 H 0.15698 0.34981 0.26473 0.0
S699 S 0.1352 0.3018 0.44628 0.0
N700 N 0.15792 0.34977 0.43858 0.0
N701 N 0.12572 0.28202 0.39614 0.0
C702 C 0.14124 0.31475 0.37043 0.0
C703 C 0.15885 0.35166 0.39348 0.0
C704 C 0.69341 0.81821 0.39292 0.0
C705 C 0.65777 0.8065 0.36996 0.0
C706 C 0.72972 0.83531 0.37061 0.0
C707 C 0.73196 0.84168 0.32446 0.0
H708 H 0.69317 0.81267 0.42819 0.0
H709 H 0.756 0.84231 0.38949 0.0
S710 S 0.6477 0.82026 0.24972 0.0
N711 N 0.6275 0.80525 0.29906 0.0
N712 N 0.6953 0.83772 0.2572 0.0
C713 C 0.69671 0.83194 0.30155 0.0
C714 C 0.65979 0.81427 0.32423 0.0
C715 C 0.20944 0.90191 0.36174 0.0
C716 C 0.2111 0.90517 0.3151 0.0
C717 C 0.22652 0.88295 0.38467 0.0
C718 C 0.24639 0.86669 0.36205 0.0
H719 H 0.19541 0.91472 0.38088 0.0
H720 H 0.22514 0.88216 0.42061 0.0
S721 S 0.25818 0.86618 0.23973 0.0
N722 N 0.23334 0.88928 0.24699 0.0
N723 N 0.26553 0.85416 0.28993 0.0
C724 C 0.24744 0.8689 0.31533 0.0
C725 C 0.22981 0.88796 0.29195 0.0
C726 C 0.35424 0.14905 0.6318 0.0
C727 C 0.39012 0.16914 0.65552 0.0
C728 C 0.31776 0.13012 0.6537 0.0
C729 C 0.3155 0.1308 0.70026 0.0
H730 H 0.35422 0.14682 0.59594 0.0
H731 H 0.29119 0.11421 0.63392 0.0
S732 S 0.4006 0.18109 0.77795 0.0
N733 N 0.42085 0.1897 0.72825 0.0
N734 N 0.35261 0.15472 0.76941 0.0
C735 C 0.3511 0.15192 0.72435 0.0
C736 C 0.38828 0.17089 0.70203 0.0
C737 C 0.86531 0.23052 0.69659 0.0
C738 C 0.86313 0.23013 0.64991 0.0
C739 C 0.88275 0.2119 0.71929 0.0
C740 C 0.89905 0.19224 0.69634 0.0
H741 H 0.85451 0.24635 0.71587 0.0
H742 H 0.88465 0.21419 0.75518 0.0
S743 S 0.89817 0.17969 0.57406 0.0
N744 N 0.87658 0.20595 0.58156 0.0
N745 N 0.90953 0.17141 0.62421 0.0
C746 C 0.89564 0.19021 0.64975 0.0
C747 C 0.87766 0.20899 0.62658 0.0
C748 C 0.8175 0.68774 0.7243 0.0
C749 C 0.83599 0.72336 0.70046 0.0
C750 C 0.79851 0.65114 0.70245 0.0
C751 C 0.79751 0.64851 0.6558 0.0
H752 H 0.81682 0.68801 0.76026 0.0
H753 H 0.78414 0.62473 0.72237 0.0
S754 S 0.84229 0.73282 0.57763 0.0
N755 N 0.85263 0.75342 0.62733 0.0
N756 N 0.81743 0.68499 0.58639 0.0
C757 C 0.81667 0.68387 0.63153 0.0
C758 C 0.83574 0.72114 0.65378 0.0
C759 C 0.02443 0.47986 0.05149 0.0
C760 C 0.98805 0.46186 0.02853 0.0
C761 C 0.06057 0.49661 0.02886 0.0
C762 C 0.06208 0.49659 0.98218 0.0
H763 H 0.02511 0.48011 0.08747 0.0
H764 H 0.08752 0.50923 0.04822 0.0
S765 S 0.97547 0.4549 0.90602 0.0
N766 N 0.95608 0.44618 0.95619 0.0
N767 N 1.02364 0.47799 0.91364 0.0
C768 C 0.02596 0.47971 0.95872 0.0
C769 C 0.98912 0.4623 0.98184 0.0
C770 C 0.55943 0.54688 0.96927 0.0
C771 C 0.53953 0.56335 0.99139 0.0
C772 C 0.57741 0.52909 0.99274 0.0
C773 C 0.57596 0.52653 0.03942 0.0
H774 H 0.56219 0.54869 0.93344 0.0
H775 H 0.59322 0.51791 0.97409 0.0
S776 S 0.5255 0.56294 0.11331 0.0
N777 N 0.51815 0.57442 0.06282 0.0
N778 N 0.55132 0.54076 0.10682 0.0
C779 C 0.55498 0.5417 0.0619 0.0
C780 C 0.53699 0.56015 0.03798 0.0
C781 C 0.51733 0.04759 0.99058 0.0
C782 C 0.51406 0.04945 0.03694 0.0
C783 C 0.49956 1.01137 0.96787 0.0
C784 C 0.47738 0.97541 0.99046 0.0
H785 H 0.53309 0.07436 0.97145 0.0
H786 H 0.50223 1.01174 0.93205 0.0
S787 S 0.46084 0.96375 0.11219 0.0
N788 N 0.4879 1.01165 0.10488 0.0
N789 N 0.45442 0.94408 0.06225 0.0
C790 C 0.47475 0.97678 0.03695 0.0
C791 C 0.49308 1.0136 0.06013 0.0
C792 C 0.99959 0.18448 0.03982 0.0
C793 C 0.03958 0.20328 0.05297 0.0
C794 C 0.98818 0.17844 0.99505 0.0
C795 C 1.01603 0.19279 0.96058 0.0
H796 H 0.97629 0.17392 0.06409 0.0
H797 H 0.95697 0.16172 0.98777 0.0
S798 S 0.12493 0.24947 0.97583 0.0
N799 N 0.10738 0.23691 0.02652 0.0
N800 N 0.08594 0.23209 0.94316 0.0
C801 C 0.05622 0.21431 0.97302 0.0
C802 C 0.06794 0.21814 0.01876 0.0
C803 C 0.88622 0.85207 0.99654 0.0
C804 C 0.85977 0.85077 0.96395 0.0
C805 C 0.88154 0.85802 0.04157 0.0
C806 C 0.85048 0.86341 0.05595 0.0
H807 H 0.91089 0.84859 0.98722 0.0
H808 H 0.9021 0.85766 0.06537 0.0
S809 S 0.77327 0.86312 0.9838 0.0
N810 N 0.80031 0.85384 0.94966 0.0
N811 N 0.79396 0.86905 0.03314 0.0
C812 C 0.8243 0.86304 0.0235 0.0
C813 C 0.82834 0.85576 0.9779 0.0
C814 C 0.17583 0.04851 0.99402 0.0
C815 C 0.18579 0.02941 0.96166 0.0
C816 C 0.17204 0.03725 0.03885 0.0
C817 C 0.17829 1.00661 0.05294 0.0
H818 H 0.17137 0.07255 0.98467 0.0
H819 H 0.1643 0.05281 0.0627 0.0
S820 S 0.20473 0.94739 0.97986 0.0
N821 N 0.2009 0.97814 0.94572 0.0
N822 N 0.19527 0.95767 0.0299 0.0
C823 C 0.18791 0.9871 0.02038 0.0
C824 C 0.19137 0.9984 0.97479 0.0
C825 C 0.71498 0.51311 0.31617 0.0
C826 C 0.67461 0.49376 0.3052 0.0
C827 C 0.72781 0.5204 0.36066 0.0
C828 C 0.70071 0.50794 0.39583 0.0
H829 H 0.73685 0.52363 0.2901 0.0
H830 H 0.75914 0.53592 0.3676 0.0
S831 S 0.5918 0.45521 0.38493 0.0
N832 N 0.60768 0.46169 0.33319 0.0
N833 N 0.63165 0.47509 0.41663 0.0
C834 C 0.66027 0.48794 0.38529 0.0
C835 C 0.64726 0.48096 0.34006 0.0
C836 C 0.52926 0.16553 0.3756 0.0
C837 C 0.50866 0.18469 0.38862 0.0
C838 C 0.53584 0.16096 0.33089 0.0
C839 C 0.52025 0.17313 0.29622 0.0
H840 H 0.54061 0.15352 0.39991 0.0
H841 H 0.55372 0.14788 0.32386 0.0
S842 S 0.46053 0.22169 0.3111 0.0
N843 N 0.47344 0.21705 0.36188 0.0
N844 N 0.47906 0.20146 0.27857 0.0
C845 C 0.49763 0.19042 0.30851 0.0
C846 C 0.49332 0.19766 0.35425 0.0
C847 C 0.83636 0.36681 0.32316 0.0
C848 C 0.86973 0.37179 0.29996 0.0
C849 C 0.82975 0.35448 0.36763 0.0
C850 C 0.85617 0.34659 0.39051 0.0
H851 H 0.81526 0.37281 0.30705 0.0
H852 H 0.80385 0.35114 0.38428 0.0
S853 S 0.94848 0.35603 0.34713 0.0
N854 N 0.92988 0.36813 0.3048 0.0
N855 N 0.91724 0.3456 0.38839 0.0
C856 C 0.88978 0.35189 0.36848 0.0
C857 C 0.89666 0.36441 0.32325 0.0
C858 C 0.37197 0.8785 0.69763 0.0
C859 C 0.37898 0.85108 0.71985 0.0
C860 C 0.35766 0.8722 0.6538 0.0
C861 C 0.34894 0.83784 0.63015 0.0
H862 H 0.37704 0.90499 0.71439 0.0
H863 H 0.35383 0.89484 0.63822 0.0
S864 S 0.36161 0.75627 0.67295 0.0
N865 N 0.37762 0.78876 0.71369 0.0
N866 N 0.34699 0.77509 0.63339 0.0
C867 C 0.35526 0.80983 0.65216 0.0
C868 C 0.37106 0.81684 0.69636 0.0
C869 C 0.22761 0.51267 0.66591 0.0
C870 C 0.21242 0.52407 0.63019 0.0
C871 C 0.22093 0.51919 0.7101 0.0
C872 C 0.19823 0.5367 0.72018 0.0
H873 H 0.2448 0.49865 0.65962 0.0
H874 H 0.23282 0.50958 0.73663 0.0
S875 S 0.15128 0.57114 0.63858 0.0
N876 N 0.17344 0.55338 0.60778 0.0
N877 N 0.16074 0.56543 0.69069 0.0
C878 C 0.18287 0.54817 0.68473 0.0
C879 C 0.19004 0.54195 0.6398 0.0
C880 C 0.54032 0.70186 0.70814 0.0
C881 C 0.52144 0.66193 0.72084 0.0
C882 C 0.54598 0.71337 0.66354 0.0
C883 C 0.53496 0.68587 0.62878 0.0
H884 H 0.55149 0.72511 0.73263 0.0
H885 H 0.55892 0.74438 0.65659 0.0
S886 S 0.48781 0.57753 0.64275 0.0
N887 N 0.49101 0.59452 0.69354 0.0
N888 N 0.50808 0.61662 0.61063 0.0
C889 C 0.51797 0.64589 0.64075 0.0
C890 C 0.50986 0.63389 0.68629 0.0
C891 C 0.11249 0.06168 0.27011 0.0
C892 C 0.14728 0.06001 0.26737 0.0
C893 C 0.11335 0.09763 0.27291 0.0
C894 C 0.14919 0.1336 0.27201 0.0
H895 H 0.08427 0.03498 0.26871 0.0
H896 H 0.0856 0.09716 0.27311 0.0
S897 S 0.24894 0.14542 0.26897 0.0
N898 N 0.2188 0.0974 0.26737 0.0
N899 N 0.22053 0.16517 0.27171 0.0
C900 C 0.18434 0.13234 0.27152 0.0
C901 C 0.1834 0.09555 0.26949 0.0
C902 C 0.99002 0.06064 0.2378 0.0
C903 C 0.9955 0.09461 0.25993 0.0
C904 C 0.95384 0.02544 0.23897 0.0
C905 C 0.92182 0.02261 0.26248 0.0
H906 H 1.01353 0.06135 0.21842 0.0
H907 H 0.9503 1.00043 0.2202 0.0
S908 S 0.92 0.10138 0.32729 0.0
N909 N 0.96518 0.12211 0.30737 0.0
N910 N 0.89726 0.05561 0.30896 0.0
C911 C 0.92664 0.05571 0.28525 0.0
C912 C 0.96354 0.0917 0.28434 0.0
C913 C 0.94695 0.84042 0.2803 0.0
C914 C 0.93649 0.869 0.27113 0.0
C915 C 0.98656 0.85012 0.28218 0.0
C916 C 1.01742 0.88869 0.27405 0.0
H917 H 0.92423 0.81002 0.28474 0.0
H918 H 0.99302 0.82689 0.28845 0.0
S919 S 1.00537 0.97398 0.24739 0.0
N920 N 0.95998 0.93742 0.25448 0.0
N921 N 0.03425 0.95549 0.2563 0.0
C922 C 1.00727 0.91774 0.26616 0.0
C923 C 0.96687 0.90792 0.26503 0.0
C924 C 0.08161 0.15478 0.75134 0.0
C925 C 0.04503 0.11996 0.74863 0.0
C926 C 0.11686 0.15409 0.74875 0.0
C927 C 0.11698 0.11867 0.74214 0.0
H928 H 0.08309 0.18256 0.75773 0.0
H929 H 0.14413 0.18148 0.75359 0.0
S930 S 0.02784 0.02053 0.72413 0.0
N931 N 1.01026 0.04988 0.73482 0.0
N932 N 0.07628 0.04862 0.72599 0.0
C933 C 0.0802 0.084 0.73606 0.0
C934 C 0.04432 0.08466 0.74024 0.0
C935 C 0.90876 0.99622 0.79959 0.0
C936 C 0.89863 1.0085 0.76039 0.0
C937 C 0.91456 0.964 0.79979 0.0
C938 C 0.90988 0.94221 0.76089 0.0
H939 H 0.91268 1.01203 0.83038 0.0
H940 H 0.92181 0.95553 0.8311 0.0
S941 S 0.88527 0.96337 0.64908 0.0
N942 N 0.88601 0.99779 0.68121 0.0
N943 N 0.89548 0.93586 0.68173 0.0
C944 C 0.90004 0.95429 0.72128 0.0
C945 C 0.89494 0.98785 0.72095 0.0
C946 C 0.08123 0.96095 0.74803 0.0
C947 C 0.11189 0.9525 0.7451 0.0
C948 C 0.04158 0.93076 0.74682 0.0
C949 C 0.0313 0.89109 0.74258 0.0
H950 H 0.08788 0.99063 0.75459 0.0
H951 H 1.01896 0.9383 0.75225 0.0
S952 S 0.10083 0.85449 0.72617 0.0
N953 N 0.12948 0.90237 0.73285 0.0
N954 N 0.05517 0.8458 0.7294 0.0
C955 C 0.06178 0.88273 0.73623 0.0
C956 C 0.10201 0.91337 0.73785 0.0
C957 C 0.77179 0.3887 0.61072 0.0
C958 C 0.80745 0.39003 0.60202 0.0
C959 C 0.77032 0.42322 0.61596 0.0
C960 C 0.80412 0.46051 0.61129 0.0
H961 H 0.74468 0.36077 0.61286 0.0
H962 H 0.74225 0.42062 0.62297 0.0
S963 S 0.90529 0.47929 0.58918 0.0
N964 N 0.87785 0.431 0.59135 0.0
N965 N 0.87498 0.49614 0.59801 0.0
C966 C 0.84037 0.46212 0.60378 0.0
C967 C 0.84199 0.42677 0.59984 0.0
C968 C 0.58439 0.43098 0.60926 0.0
C969 C 0.62402 0.44083 0.61356 0.0
C970 C 0.55371 0.39186 0.60965 0.0
C971 C 0.56117 0.36063 0.61391 0.0
H972 H 0.57706 0.45367 0.60312 0.0
H973 H 0.52397 0.38593 0.60409 0.0
S974 S 0.65915 0.37077 0.6341 0.0
N975 N 0.66867 0.41646 0.62866 0.0
N976 N 0.61102 0.34263 0.62845 0.0
C977 C 0.60034 0.37014 0.62242 0.0
C978 C 0.63176 0.41032 0.62244 0.0
C979 C 0.68091 0.27274 0.59048 0.0
C980 C 0.68106 0.2383 0.60228 0.0
C981 C 0.64599 0.27414 0.58978 0.0
C982 C 0.60968 0.24124 0.60139 0.0
H983 H 0.70776 0.29823 0.57953 0.0
H984 H 0.64737 0.30092 0.57861 0.0
S985 S 0.59469 0.1441 0.63619 0.0
N986 N 0.64246 0.1708 0.62674 0.0
N987 N 0.57658 0.17317 0.62614 0.0
C988 C 0.60969 0.20686 0.61461 0.0
C989 C 0.64537 0.20539 0.61472 0.0
C990 C 0.77238 0.44837 0.09064 0.0
C991 C 0.81177 0.47775 0.08305 0.0
C992 C 0.74218 0.45772 0.09297 0.0
C993 C 0.7506 0.49675 0.08811 0.0
H994 H 0.76529 0.41855 0.09754 0.0
H995 H 0.7127 0.43483 0.10152 0.0
S996 S 0.84711 0.58278 0.05941 0.0
N997 N 0.85598 0.54614 0.06375 0.0
N998 N 0.79976 0.56375 0.06995 0.0
C999 C 0.78914 0.52564 0.07735 0.0
C1000 C 0.81959 0.51612 0.0743 0.0
C1001 C 0.6198 0.30631 0.09399 0.0
C1002 C 0.58576 0.27003 0.08485 0.0
C1003 C 0.61892 0.34144 0.0937 0.0
C1004 C 0.58383 0.34162 0.08479 0.0
H1005 H 0.6471 0.30748 0.103 0.0
H1006 H 0.64546 0.36838 0.10275 0.0
S1007 S 0.48735 0.25527 0.05519 0.0
N1008 N 0.51651 0.23697 0.0637 0.0
N1009 N 0.51501 0.30309 0.06335 0.0
C1010 C 0.55005 0.30591 0.07362 0.0
C1011 C 0.551 0.27011 0.07344 0.0
C1012 C 0.75221 0.29632 0.08217 0.0
C1013 C 0.78418 0.28963 0.08159 0.0
C1014 C 0.71305 0.26459 0.08157 0.0
C1015 C 0.70481 0.22534 0.08045 0.0
H1016 H 0.7574 0.32588 0.08631 0.0
H1017 H 0.68922 0.27067 0.08514 0.0
S1018 S 0.77801 0.19286 0.07035 0.0
N1019 N 0.80479 0.2412 0.0737 0.0
N1020 N 0.73166 0.18214 0.07266 0.0
C1021 C 0.73651 0.21871 0.07616 0.0
C1022 C 0.77606 0.25071 0.07669 0.0
C1023 C 0.50117 0.77876 0.93213 0.0
C1024 C 0.46671 0.78034 0.94069 0.0
C1025 C 0.50061 0.74288 0.93064 0.0
C1026 C 0.46541 0.70712 0.93668 0.0
H1027 H 0.52862 0.80526 0.92491 0.0
H1028 H 0.52757 0.74311 0.92258 0.0
S1029 S 0.36853 0.69442 0.96697 0.0
N1030 N 0.39747 0.74234 0.96172 0.0
N1031 N 0.39641 0.67523 0.95588 0.0
C1032 C 0.43126 0.70813 0.94717 0.0
C1033 C 0.43188 0.74462 0.94991 0.0
C1034 C 0.27581 0.75377 0.8895 0.0
C1035 C 0.30308 0.77214 0.9244 0.0
C1036 C 0.24738 0.7139 0.89096 0.0
C1037 C 0.24486 0.69043 0.92726 0.0
H1038 H 0.27614 0.77033 0.8606 0.0
H1039 H 0.22657 0.70131 0.86371 0.0
S1040 S 0.30836 0.72356 0.02765 0.0
N1041 N 0.32574 0.7634 0.99652 0.0
N1042 N 0.27165 0.68797 0.99916 0.0
C1043 C 0.2723 0.70783 0.96203 0.0
C1044 C 0.30156 0.74878 0.96061 0.0
C1045 C 0.30093 0.56725 0.93775 0.0
C1046 C 0.26834 0.52892 0.93887 0.0
C1047 C 0.33963 0.57374 0.93962 0.0
C1048 C 0.34703 0.54234 0.9431 0.0
H1049 H 0.29663 0.59198 0.93191 0.0
H1050 H 0.36391 0.60313 0.93486 0.0
S1051 S 0.2716 0.43713 0.95398 0.0
N1052 N 0.24588 0.45956 0.9483 0.0
N1053 N 0.31836 0.47208 0.95266 0.0
C1054 C 0.31459 0.50429 0.94757 0.0
C1055 C 0.27536 0.49757 0.94532 0.0
C1056 C 0.46097 0.86808 0.4119 0.0
C1057 C 0.42109 0.8386 0.4149 0.0
C1058 C 0.49111 0.85886 0.4128 0.0
C1059 C 0.48261 0.81982 0.41692 0.0
H1060 H 0.46904 0.89874 0.41088 0.0
H1061 H 0.52144 0.88257 0.41222 0.0
S1062 S 0.38297 0.73209 0.42693 0.0
N1063 N 0.37466 0.76893 0.42146 0.0
N1064 N 0.43123 0.75155 0.42412 0.0
C1065 C 0.44277 0.78996 0.41812 0.0
C1066 C 0.41202 0.79936 0.41682 0.0
C1067 C 0.25375 0.62674 0.41748 0.0
C1068 C 0.21462 0.59655 0.40999 0.0
C1069 C 0.26385 0.66658 0.41696 0.0
C1070 C 0.23519 0.67732 0.40872 0.0
H1071 H 0.27596 0.61954 0.42708 0.0
H1072 H 0.29344 0.68884 0.42619 0.0
S1073 S 0.13052 0.60956 0.37911 0.0
N1074 N 0.1485 0.58033 0.38877 0.0
N1075 N 0.16761 0.65473 0.38651 0.0
C1076 C 0.19694 0.64744 0.39733 0.0
C1077 C 0.18663 0.60718 0.39833 0.0
C1078 C 0.40357 0.65006 0.40308 0.0
C1079 C 0.43955 0.6518 0.41083 0.0
C1080 C 0.36818 0.61416 0.40128 0.0
C1081 C 0.36722 0.57828 0.40803 0.0
H1082 H 0.40271 0.67676 0.39899 0.0
H1083 H 0.34132 0.61479 0.39544 0.0
S1084 S 0.4548 0.56679 0.42449 0.0
N1085 N 0.47312 0.61458 0.41977 0.0
N1086 N 0.40664 0.54703 0.41959 0.0
C1087 C 0.40355 0.5795 0.41317 0.0
C1088 C 0.43972 0.61627 0.41373 0.0
loop_
_geom_bond_atom_site_label_1
_geom_bond_atom_site_label_2
_geom_bond_distance
_geom_bond_site_symmetry_2
_ccdc_geom_bond_type
Co0 N4 2.148 1_455 S
Co0 N10 2.128 . S
Co0 N20 2.194 . S
Co0 O25 2.351 . S
Co0 O26 2.155 . S
Co0 O27 2.096 1_455 S
C1 N4 1.301 . S
C1 N5 1.328 . S
C1 H6 0.930 1_655 S
C2 C3 1.333 . S
C2 N4 1.317 . S
C2 H7 0.930 . S
C3 C2 1.333 . S
C3 N5 1.350 . S
C3 H29 0.931 . S
N4 Co0 2.148 1_655 S
N4 C1 1.301 . S
N4 C2 1.317 . S
N5 C1 1.328 . S
N5 C3 1.350 . S
H6 C1 0.930 1_455 S
H7 C2 0.930 . S
C8 O9 1.224 . S
C8 O27 1.247 . S
O9 C8 1.224 . S
N10 Co0 2.128 . S
N10 C11 1.355 . S
N10 C13 1.311 . S
C11 N10 1.355 . S
C11 C12 1.363 . S
C11 H23 0.929 . S
C12 C11 1.363 . S
C12 N14 1.375 . S
C12 H30 0.931 . S
C13 N10 1.311 . S
C13 N14 1.347 . S
C13 H24 0.929 . S
N14 C12 1.375 . S
N14 C13 1.347 . S
C15 C18 1.365 . S
C15 N20 1.328 . S
C15 H21 0.929 . S
C16 C17 1.362 . S
C16 C19 1.378 . S
C16 H31 0.929 . S
C17 C16 1.362 . S
C17 C18 1.366 . S
C18 C15 1.365 . S
C18 C17 1.366 . S
C18 H32 0.930 . S
C19 C16 1.378 . S
C19 N20 1.315 . S
C19 H22 0.930 1_455 S
N20 Co0 2.194 . S
N20 C15 1.328 . S
N20 C19 1.315 . S
H21 C15 0.929 . S
H22 C19 0.930 1_655 S
H23 C11 0.929 . S
H24 C13 0.929 . S
O25 Co0 2.351 . S
O25 C28 1.244 . S
O26 Co0 2.155 . S
O26 C28 1.240 . S
O27 Co0 2.096 1_655 S
O27 C8 1.247 . S
C28 O25 1.244 . S
C28 O26 1.240 . S
H29 C3 0.931 . S
H30 C12 0.931 . S
H31 C16 0.929 . S
H32 C18 0.930 . S
Co33 N37 2.148 . S
Co33 N43 2.128 . S
Co33 N53 2.194 . S
Co33 O58 2.351 . S
Co33 O59 2.155 . S
Co33 O60 2.096 . S
C34 N37 1.301 . S
C34 N38 1.328 . S
C34 H39 0.930 . S
C35 C36 1.333 . S
C35 N37 1.317 . S
C35 H40 0.930 . S
C36 C35 1.333 . S
C36 N38 1.350 . S
C36 H62 0.931 . S
N37 Co33 2.148 . S
N37 C34 1.301 . S
N37 C35 1.317 . S
N38 C34 1.328 . S
N38 C36 1.350 . S
H39 C34 0.930 . S
H40 C35 0.930 . S
C41 O42 1.224 . S
C41 O60 1.247 . S
O42 C41 1.224 . S
N43 Co33 2.128 . S
N43 C44 1.355 . S
N43 C46 1.311 . S
C44 N43 1.355 . S
C44 C45 1.363 . S
C44 H56 0.929 . S
C45 C44 1.363 . S
C45 N47 1.375 . S
C45 H63 0.931 . S
C46 N43 1.311 . S
C46 N47 1.347 . S
C46 H57 0.929 . S
N47 C45 1.375 . S
N47 C46 1.347 . S
C48 C51 1.365 . S
C48 N53 1.328 . S
C48 H54 0.929 . S
C49 C50 1.362 . S
C49 C52 1.378 . S
C49 H64 0.929 . S
C50 C49 1.362 . S
C50 C51 1.366 . S
C51 C48 1.365 . S
C51 C50 1.366 . S
C51 H65 0.930 . S
C52 C49 1.378 . S
C52 N53 1.315 . S
C52 H55 0.930 . S
N53 Co33 2.194 . S
N53 C48 1.328 . S
N53 C52 1.315 . S
H54 C48 0.929 . S
H55 C52 0.930 . S
H56 C44 0.929 . S
H57 C46 0.929 . S
O58 Co33 2.351 . S
O58 C61 1.244 . S
O59 Co33 2.155 . S
O59 C61 1.240 . S
O60 Co33 2.096 . S
O60 C41 1.247 . S
C61 O58 1.244 . S
C61 O59 1.240 . S
H62 C36 0.931 . S
H63 C45 0.931 . S
H64 C49 0.929 . S
H65 C51 0.930 . S
Co66 N70 2.148 1_565 S
Co66 N76 2.128 . S
Co66 N86 2.194 . S
Co66 O91 2.351 . S
Co66 O92 2.155 . S
Co66 O93 2.096 1_565 S
C67 N70 1.301 . S
C67 N71 1.328 . S
C67 H72 0.930 1_545 S
C68 C69 1.333 . S
C68 N70 1.317 . S
C68 H73 0.930 . S
C69 C68 1.333 . S
C69 N71 1.350 . S
C69 H95 0.931 . S
N70 Co66 2.148 1_545 S
N70 C67 1.301 . S
N70 C68 1.317 . S
N71 C67 1.328 . S
N71 C69 1.350 . S
H72 C67 0.930 1_565 S
H73 C68 0.930 . S
C74 O75 1.224 . S
C74 O93 1.247 . S
O75 C74 1.224 . S
N76 Co66 2.128 . S
N76 C77 1.355 . S
N76 C79 1.311 . S
C77 N76 1.355 . S
C77 C78 1.363 . S
C77 H89 0.929 . S
C78 C77 1.363 . S
C78 N80 1.375 . S
C78 H96 0.931 . S
C79 N76 1.311 . S
C79 N80 1.347 . S
C79 H90 0.929 . S
N80 C78 1.375 . S
N80 C79 1.347 . S
C81 C84 1.365 . S
C81 N86 1.328 . S
C81 H87 0.929 . S
C82 C83 1.362 . S
C82 C85 1.378 . S
C82 H97 0.929 . S
C83 C82 1.362 . S
C83 C84 1.366 . S
C84 C81 1.365 . S
C84 C83 1.366 . S
C84 H98 0.930 . S
C85 C82 1.378 . S
C85 N86 1.315 . S
C85 H88 0.930 1_565 S
N86 Co66 2.194 . S
N86 C81 1.328 . S
N86 C85 1.315 . S
H87 C81 0.929 . S
H88 C85 0.930 1_545 S
H89 C77 0.929 . S
H90 C79 0.929 . S
O91 Co66 2.351 . S
O91 C94 1.244 . S
O92 Co66 2.155 . S
O92 C94 1.240 . S
O93 Co66 2.096 1_545 S
O93 C74 1.247 . S
C94 O91 1.244 . S
C94 O92 1.240 . S
H95 C69 0.931 . S
H96 C78 0.931 . S
H97 C82 0.929 . S
H98 C84 0.930 . S
Co99 N103 2.148 1_545 S
Co99 N109 2.128 . S
Co99 N119 2.194 . S
Co99 O124 2.351 . S
Co99 O125 2.155 . S
Co99 O126 2.096 1_545 S
C100 N103 1.301 . S
C100 N104 1.328 . S
C100 H105 0.930 1_565 S
C101 C102 1.333 . S
C101 N103 1.317 . S
C101 H106 0.930 . S
C102 C101 1.333 . S
C102 N104 1.350 . S
C102 H128 0.931 . S
N103 Co99 2.148 1_565 S
N103 C100 1.301 . S
N103 C101 1.317 . S
N104 C100 1.328 . S
N104 C102 1.350 . S
H105 C100 0.930 1_545 S
H106 C101 0.930 . S
C107 O108 1.224 . S
C107 O126 1.247 . S
O108 C107 1.224 . S
N109 Co99 2.128 . S
N109 C110 1.355 . S
N109 C112 1.311 . S
C110 N109 1.355 . S
C110 C111 1.363 . S
C110 H122 0.929 . S
C111 C110 1.363 . S
C111 N113 1.375 . S
C111 H129 0.931 . S
C112 N109 1.311 . S
C112 N113 1.347 . S
C112 H123 0.929 . S
N113 C111 1.375 . S
N113 C112 1.347 . S
C114 C117 1.365 . S
C114 N119 1.328 . S
C114 H120 0.929 . S
C115 C116 1.362 . S
C115 C118 1.378 . S
C115 H130 0.929 . S
C116 C115 1.362 . S
C116 C117 1.366 . S
C117 C114 1.365 . S
C117 C116 1.366 . S
C117 H131 0.930 . S
C118 C115 1.378 . S
C118 N119 1.315 . S
C118 H121 0.930 1_545 S
N119 Co99 2.194 . S
N119 C114 1.328 . S
N119 C118 1.315 . S
H120 C114 0.929 . S
H121 C118 0.930 1_565 S
H122 C110 0.929 . S
H123 C112 0.929 . S
O124 Co99 2.351 . S
O124 C127 1.244 . S
O125 Co99 2.155 . S
O125 C127 1.240 . S
O126 Co99 2.096 1_565 S
O126 C107 1.247 . S
C127 O124 1.244 . S
C127 O125 1.240 . S
H128 C102 0.931 . S
H129 C111 0.931 . S
H130 C115 0.929 . S
H131 C117 0.930 . S
Co132 N136 2.148 1_655 S
Co132 N142 2.128 . S
Co132 N152 2.194 . S
Co132 O157 2.351 . S
Co132 O158 2.155 . S
Co132 O159 2.096 1_655 S
C133 N136 1.301 . S
C133 N137 1.328 . S
C133 H138 0.930 1_455 S
C134 C135 1.333 . S
C134 N136 1.317 . S
C134 H139 0.930 . S
C135 C134 1.333 . S
C135 N137 1.350 . S
C135 H161 0.931 . S
N136 Co132 2.148 1_455 S
N136 C133 1.301 . S
N136 C134 1.317 . S
N137 C133 1.328 . S
N137 C135 1.350 . S
H138 C133 0.930 1_655 S
H139 C134 0.930 . S
C140 O141 1.224 . S
C140 O159 1.247 . S
O141 C140 1.224 . S
N142 Co132 2.128 . S
N142 C143 1.355 . S
N142 C145 1.311 . S
C143 N142 1.355 . S
C143 C144 1.363 . S
C143 H155 0.929 . S
C144 C143 1.363 . S
C144 N146 1.375 . S
C144 H162 0.931 . S
C145 N142 1.311 . S
C145 N146 1.347 . S
C145 H156 0.929 . S
N146 C144 1.375 . S
N146 C145 1.347 . S
C147 C150 1.365 . S
C147 N152 1.328 . S
C147 H153 0.929 . S
C148 C149 1.362 . S
C148 C151 1.378 . S
C148 H163 0.929 . S
C149 C148 1.362 . S
C149 C150 1.366 . S
C150 C147 1.365 . S
C150 C149 1.366 . S
C150 H164 0.930 . S
C151 C148 1.378 . S
C151 N152 1.315 . S
C151 H154 0.930 1_655 S
N152 Co132 2.194 . S
N152 C147 1.328 . S
N152 C151 1.315 . S
H153 C147 0.929 . S
H154 C151 0.930 1_455 S
H155 C143 0.929 . S
H156 C145 0.929 . S
O157 Co132 2.351 . S
O157 C160 1.244 . S
O158 Co132 2.155 . S
O158 C160 1.240 . S
O159 Co132 2.096 1_455 S
O159 C140 1.247 . S
C160 O157 1.244 . S
C160 O158 1.240 . S
H161 C135 0.931 . S
H162 C144 0.931 . S
H163 C148 0.929 . S
H164 C150 0.930 . S
Co165 N169 2.148 . S
Co165 N175 2.128 . S
Co165 N185 2.194 . S
Co165 O190 2.351 . S
Co165 O191 2.155 . S
Co165 O192 2.096 . S
C166 N169 1.301 . S
C166 N170 1.328 . S
C166 H171 0.930 . S
C167 C168 1.333 . S
C167 N169 1.317 . S
C167 H172 0.930 . S
C168 C167 1.333 . S
C168 N170 1.350 . S
C168 H194 0.931 . S
N169 Co165 2.148 . S
N169 C166 1.301 . S
N169 C167 1.317 . S
N170 C166 1.328 . S
N170 C168 1.350 . S
H171 C166 0.930 . S
H172 C167 0.930 . S
C173 O174 1.224 . S
C173 O192 1.247 . S
O174 C173 1.224 . S
N175 Co165 2.128 . S
N175 C176 1.355 . S
N175 C178 1.311 . S
C176 N175 1.355 . S
C176 C177 1.363 . S
C176 H188 0.929 . S
C177 C176 1.363 . S
C177 N179 1.375 . S
C177 H195 0.931 . S
C178 N175 1.311 . S
C178 N179 1.347 . S
C178 H189 0.929 . S
N179 C177 1.375 . S
N179 C178 1.347 . S
C180 C183 1.365 . S
C180 N185 1.328 . S
C180 H186 0.929 . S
C181 C182 1.362 . S
C181 C184 1.378 . S
C181 H196 0.929 . S
C182 C181 1.362 . S
C182 C183 1.366 . S
C183 C180 1.365 . S
C183 C182 1.366 . S
C183 H197 0.930 . S
C184 C181 1.378 . S
C184 N185 1.315 . S
C184 H187 0.930 . S
N185 Co165 2.194 . S
N185 C180 1.328 . S
N185 C184 1.315 . S
H186 C180 0.929 . S
H187 C184 0.930 . S
H188 C176 0.929 . S
H189 C178 0.929 . S
O190 Co165 2.351 . S
O190 C193 1.244 . S
O191 Co165 2.155 . S
O191 C193 1.240 . S
O192 Co165 2.096 . S
O192 C173 1.247 . S
C193 O190 1.244 . S
C193 O191 1.240 . S
H194 C168 0.931 . S
H195 C177 0.931 . S
H196 C181 0.929 . S
H197 C183 0.930 . S
Co198 N202 2.148 . S
Co198 N208 2.128 . S
Co198 N218 2.194 . S
Co198 O223 2.351 . S
Co198 O224 2.155 . S
Co198 O225 2.096 . S
C199 N202 1.301 . S
C199 N203 1.328 . S
C199 H204 0.930 . S
C200 C201 1.333 . S
C200 N202 1.317 . S
C200 H205 0.930 . S
C201 C200 1.333 . S
C201 N203 1.350 . S
C201 H227 0.931 . S
N202 Co198 2.148 . S
N202 C199 1.301 . S
N202 C200 1.317 . S
N203 C199 1.328 . S
N203 C201 1.350 . S
H204 C199 0.930 . S
H205 C200 0.930 . S
C206 O207 1.224 . S
C206 O225 1.247 . S
O207 C206 1.224 . S
N208 Co198 2.128 . S
N208 C209 1.355 . S
N208 C211 1.311 . S
C209 N208 1.355 . S
C209 C210 1.363 . S
C209 H221 0.929 . S
C210 C209 1.363 . S
C210 N212 1.375 . S
C210 H228 0.931 . S
C211 N208 1.311 . S
C211 N212 1.347 . S
C211 H222 0.929 . S
N212 C210 1.375 . S
N212 C211 1.347 . S
C213 C216 1.365 . S
C213 N218 1.328 . S
C213 H219 0.929 . S
C214 C215 1.362 . S
C214 C217 1.378 . S
C214 H229 0.929 . S
C215 C214 1.362 . S
C215 C216 1.366 . S
C216 C213 1.365 . S
C216 C215 1.366 . S
C216 H230 0.930 . S
C217 C214 1.378 . S
C217 N218 1.315 . S
C217 H220 0.930 . S
N218 Co198 2.194 . S
N218 C213 1.328 . S
N218 C217 1.315 . S
H219 C213 0.929 . S
H220 C217 0.930 . S
H221 C209 0.929 . S
H222 C211 0.929 . S
O223 Co198 2.351 . S
O223 C226 1.244 . S
O224 Co198 2.155 . S
O224 C226 1.240 . S
O225 Co198 2.096 . S
O225 C206 1.247 . S
C226 O223 1.244 . S
C226 O224 1.240 . S
H227 C201 0.931 . S
H228 C210 0.931 . S
H229 C214 0.929 . S
H230 C216 0.930 . S
Co231 N235 2.148 . S
Co231 N241 2.128 . S
Co231 N251 2.194 . S
Co231 O256 2.351 . S
Co231 O257 2.155 . S
Co231 O258 2.096 . S
C232 N235 1.301 . S
C232 N236 1.328 . S
C232 H237 0.930 . S
C233 C234 1.333 . S
C233 N235 1.317 . S
C233 H238 0.930 . S
C234 C233 1.333 . S
C234 N236 1.350 . S
C234 H260 0.931 . S
N235 Co231 2.148 . S
N235 C232 1.301 . S
N235 C233 1.317 . S
N236 C232 1.328 . S
N236 C234 1.350 . S
H237 C232 0.930 . S
H238 C233 0.930 . S
C239 O240 1.224 . S
C239 O258 1.247 . S
O240 C239 1.224 . S
N241 Co231 2.128 . S
N241 C242 1.355 . S
N241 C244 1.311 . S
C242 N241 1.355 . S
C242 C243 1.363 . S
C242 H254 0.929 . S
C243 C242 1.363 . S
C243 N245 1.375 . S
C243 H261 0.931 . S
C244 N241 1.311 . S
C244 N245 1.347 . S
C244 H255 0.929 . S
N245 C243 1.375 . S
N245 C244 1.347 . S
C246 C249 1.365 . S
C246 N251 1.328 . S
C246 H252 0.929 . S
C247 C248 1.362 . S
C247 C250 1.378 . S
C247 H262 0.929 . S
C248 C247 1.362 . S
C248 C249 1.366 . S
C249 C246 1.365 . S
C249 C248 1.366 . S
C249 H263 0.930 . S
C250 C247 1.378 . S
C250 N251 1.315 . S
C250 H253 0.930 . S
N251 Co231 2.194 . S
N251 C246 1.328 . S
N251 C250 1.315 . S
H252 C246 0.929 . S
H253 C250 0.930 . S
H254 C242 0.929 . S
H255 C244 0.929 . S
O256 Co231 2.351 . S
O256 C259 1.244 . S
O257 Co231 2.155 . S
O257 C259 1.240 . S
O258 Co231 2.096 . S
O258 C239 1.247 . S
C259 O256 1.244 . S
C259 O257 1.240 . S
H260 C234 0.931 . S
H261 C243 0.931 . S
H262 C247 0.929 . S
H263 C249 0.930 . S
Co264 N268 2.148 . S
Co264 N274 2.128 . S
Co264 N284 2.194 . S
Co264 O289 2.351 . S
Co264 O290 2.155 . S
Co264 O291 2.096 . S
C265 N268 1.301 . S
C265 N269 1.328 . S
C265 H270 0.930 . S
C266 C267 1.333 . S
C266 N268 1.317 . S
C266 H271 0.930 . S
C267 C266 1.333 . S
C267 N269 1.350 . S
C267 H293 0.931 . S
N268 Co264 2.148 . S
N268 C265 1.301 . S
N268 C266 1.317 . S
N269 C265 1.328 . S
N269 C267 1.350 . S
H270 C265 0.930 . S
H271 C266 0.930 . S
C272 O273 1.224 . S
C272 O291 1.247 . S
O273 C272 1.224 . S
N274 Co264 2.128 . S
N274 C275 1.355 . S
N274 C277 1.311 . S
C275 N274 1.355 . S
C275 C276 1.363 . S
C275 H287 0.929 . S
C276 C275 1.363 . S
C276 N278 1.375 . S
C276 H294 0.931 . S
C277 N274 1.311 . S
C277 N278 1.347 . S
C277 H288 0.929 . S
N278 C276 1.375 . S
N278 C277 1.347 . S
C279 C282 1.365 . S
C279 N284 1.328 . S
C279 H285 0.929 . S
C280 C281 1.362 . S
C280 C283 1.378 . S
C280 H295 0.929 . S
C281 C280 1.362 . S
C281 C282 1.366 . S
C282 C279 1.365 . S
C282 C281 1.366 . S
C282 H296 0.930 . S
C283 C280 1.378 . S
C283 N284 1.315 . S
C283 H286 0.930 . S
N284 Co264 2.194 . S
N284 C279 1.328 . S
N284 C283 1.315 . S
H285 C279 0.929 . S
H286 C283 0.930 . S
H287 C275 0.929 . S
H288 C277 0.929 . S
O289 Co264 2.351 . S
O289 C292 1.244 . S
O290 Co264 2.155 . S
O290 C292 1.240 . S
O291 Co264 2.096 . S
O291 C272 1.247 . S
C292 O289 1.244 . S
C292 O290 1.240 . S
H293 C267 0.931 . S
H294 C276 0.931 . S
H295 C280 0.929 . S
H296 C282 0.930 . S
Co297 N301 2.148 . S
Co297 N307 2.128 . S
Co297 N317 2.194 . S
Co297 O322 2.351 . S
Co297 O323 2.155 . S
Co297 O324 2.096 . S
C298 N301 1.301 . S
C298 N302 1.328 . S
C298 H303 0.930 . S
C299 C300 1.333 . S
C299 N301 1.317 . S
C299 H304 0.930 . S
C300 C299 1.333 . S
C300 N302 1.350 . S
C300 H326 0.931 . S
N301 Co297 2.148 . S
N301 C298 1.301 . S
N301 C299 1.317 . S
N302 C298 1.328 . S
N302 C300 1.350 . S
H303 C298 0.930 . S
H304 C299 0.930 . S
C305 O306 1.224 . S
C305 O324 1.247 . S
O306 C305 1.224 . S
N307 Co297 2.128 . S
N307 C308 1.355 . S
N307 C310 1.311 . S
C308 N307 1.355 . S
C308 C309 1.363 . S
C308 H320 0.929 . S
C309 C308 1.363 . S
C309 N311 1.375 . S
C309 H327 0.931 . S
C310 N307 1.311 . S
C310 N311 1.347 . S
C310 H321 0.929 . S
N311 C309 1.375 . S
N311 C310 1.347 . S
C312 C315 1.365 . S
C312 N317 1.328 . S
C312 H318 0.929 . S
C313 C314 1.362 . S
C313 C316 1.378 . S
C313 H328 0.929 . S
C314 C313 1.362 . S
C314 C315 1.366 . S
C315 C312 1.365 . S
C315 C314 1.366 . S
C315 H329 0.930 . S
C316 C313 1.378 . S
C316 N317 1.315 . S
C316 H319 0.930 . S
N317 Co297 2.194 . S
N317 C312 1.328 . S
N317 C316 1.315 . S
H318 C312 0.929 . S
H319 C316 0.930 . S
H320 C308 0.929 . S
H321 C310 0.929 . S
O322 Co297 2.351 . S
O322 C325 1.244 . S
O323 Co297 2.155 . S
O323 C325 1.240 . S
O324 Co297 2.096 . S
O324 C305 1.247 . S
C325 O322 1.244 . S
C325 O323 1.240 . S
H326 C300 0.931 . S
H327 C309 0.931 . S
H328 C313 0.929 . S
H329 C315 0.930 . S
Co330 N334 2.148 . S
Co330 N340 2.128 . S
Co330 N350 2.194 . S
Co330 O355 2.351 . S
Co330 O356 2.155 . S
Co330 O357 2.096 . S
C331 N334 1.301 . S
C331 N335 1.328 . S
C331 H336 0.930 . S
C332 C333 1.333 . S
C332 N334 1.317 . S
C332 H337 0.930 . S
C333 C332 1.333 . S
C333 N335 1.350 . S
C333 H359 0.931 . S
N334 Co330 2.148 . S
N334 C331 1.301 . S
N334 C332 1.317 . S
N335 C331 1.328 . S
N335 C333 1.350 . S
H336 C331 0.930 . S
H337 C332 0.930 . S
C338 O339 1.224 . S
C338 O357 1.247 . S
O339 C338 1.224 . S
N340 Co330 2.128 . S
N340 C341 1.355 . S
N340 C343 1.311 . S
C341 N340 1.355 . S
C341 C342 1.363 . S
C341 H353 0.929 . S
C342 C341 1.363 . S
C342 N344 1.375 . S
C342 H360 0.931 . S
C343 N340 1.311 . S
C343 N344 1.347 . S
C343 H354 0.929 . S
N344 C342 1.375 . S
N344 C343 1.347 . S
C345 C348 1.365 . S
C345 N350 1.328 . S
C345 H351 0.929 . S
C346 C347 1.362 . S
C346 C349 1.378 . S
C346 H361 0.929 . S
C347 C346 1.362 . S
C347 C348 1.366 . S
C348 C345 1.365 . S
C348 C347 1.366 . S
C348 H362 0.930 . S
C349 C346 1.378 . S
C349 N350 1.315 . S
C349 H352 0.930 . S
N350 Co330 2.194 . S
N350 C345 1.328 . S
N350 C349 1.315 . S
H351 C345 0.929 . S
H352 C349 0.930 . S
H353 C341 0.929 . S
H354 C343 0.929 . S
O355 Co330 2.351 . S
O355 C358 1.244 . S
O356 Co330 2.155 . S
O356 C358 1.240 . S
O357 Co330 2.096 . S
O357 C338 1.247 . S
C358 O355 1.244 . S
C358 O356 1.240 . S
H359 C333 0.931 . S
H360 C342 0.931 . S
H361 C346 0.929 . S
H362 C348 0.930 . S
Co363 N367 2.148 . S
Co363 N373 2.128 . S
Co363 N383 2.194 . S
Co363 O388 2.351 . S
Co363 O389 2.155 . S
Co363 O390 2.096 . S
C364 N367 1.301 . S
C364 N368 1.328 . S
C364 H369 0.930 . S
C365 C366 1.333 . S
C365 N367 1.317 . S
C365 H370 0.930 . S
C366 C365 1.333 . S
C366 N368 1.350 . S
C366 H392 0.931 . S
N367 Co363 2.148 . S
N367 C364 1.301 . S
N367 C365 1.317 . S
N368 C364 1.328 . S
N368 C366 1.350 . S
H369 C364 0.930 . S
H370 C365 0.930 . S
C371 O372 1.224 . S
C371 O390 1.247 . S
O372 C371 1.224 . S
N373 Co363 2.128 . S
N373 C374 1.355 . S
N373 C376 1.311 . S
C374 N373 1.355 . S
C374 C375 1.363 . S
C374 H386 0.929 . S
C375 C374 1.363 . S
C375 N377 1.375 . S
C375 H393 0.931 . S
C376 N373 1.311 . S
C376 N377 1.347 . S
C376 H387 0.929 . S
N377 C375 1.375 . S
N377 C376 1.347 . S
C378 C381 1.365 . S
C378 N383 1.328 . S
C378 H384 0.929 . S
C379 C380 1.362 . S
C379 C382 1.378 . S
C379 H394 0.929 . S
C380 C379 1.362 . S
C380 C381 1.366 . S
C381 C378 1.365 . S
C381 C380 1.366 . S
C381 H395 0.930 . S
C382 C379 1.378 . S
C382 N383 1.315 . S
C382 H385 0.930 . S
N383 Co363 2.194 . S
N383 C378 1.328 . S
N383 C382 1.315 . S
H384 C378 0.929 . S
H385 C382 0.930 . S
H386 C374 0.929 . S
H387 C376 0.929 . S
O388 Co363 2.351 . S
O388 C391 1.244 . S
O389 Co363 2.155 . S
O389 C391 1.240 . S
O390 Co363 2.096 . S
O390 C371 1.247 . S
C391 O388 1.244 . S
C391 O389 1.240 . S
H392 C366 0.931 . S
H393 C375 0.931 . S
H394 C379 0.929 . S
H395 C381 0.930 . S
Co396 N400 2.148 . S
Co396 N406 2.128 . S
Co396 N416 2.194 . S
Co396 O421 2.351 . S
Co396 O422 2.155 . S
Co396 O423 2.096 . S
C397 N400 1.301 . S
C397 N401 1.328 . S
C397 H402 0.930 . S
C398 C399 1.333 . S
C398 N400 1.317 . S
C398 H403 0.930 . S
C399 C398 1.333 . S
C399 N401 1.350 . S
C399 H425 0.931 . S
N400 Co396 2.148 . S
N400 C397 1.301 . S
N400 C398 1.317 . S
N401 C397 1.328 . S
N401 C399 1.350 . S
H402 C397 0.930 . S
H403 C398 0.930 . S
C404 O405 1.224 . S
C404 O423 1.247 . S
O405 C404 1.224 . S
N406 Co396 2.128 . S
N406 C407 1.355 . S
N406 C409 1.311 . S
C407 N406 1.355 . S
C407 C408 1.363 . S
C407 H419 0.929 . S
C408 C407 1.363 . S
C408 N410 1.375 . S
C408 H426 0.931 . S
C409 N406 1.311 . S
C409 N410 1.347 . S
C409 H420 0.929 . S
N410 C408 1.375 . S
N410 C409 1.347 . S
C411 C414 1.365 . S
C411 N416 1.328 . S
C411 H417 0.929 . S
C412 C413 1.362 . S
C412 C415 1.378 . S
C412 H427 0.929 . S
C413 C412 1.362 . S
C413 C414 1.366 . S
C414 C411 1.365 . S
C414 C413 1.366 . S
C414 H428 0.930 . S
C415 C412 1.378 . S
C415 N416 1.315 . S
C415 H418 0.930 . S
N416 Co396 2.194 . S
N416 C411 1.328 . S
N416 C415 1.315 . S
H417 C411 0.929 . S
H418 C415 0.930 . S
H419 C407 0.929 . S
H420 C409 0.929 . S
O421 Co396 2.351 . S
O421 C424 1.244 . S
O422 Co396 2.155 . S
O422 C424 1.240 . S
O423 Co396 2.096 . S
O423 C404 1.247 . S
C424 O421 1.244 . S
C424 O422 1.240 . S
H425 C399 0.931 . S
H426 C408 0.931 . S
H427 C412 0.929 . S
H428 C414 0.930 . S
Co429 N433 2.148 . S
Co429 N439 2.128 . S
Co429 N449 2.194 . S
Co429 O454 2.351 . S
Co429 O455 2.155 . S
Co429 O456 2.096 . S
C430 N433 1.301 . S
C430 N434 1.328 . S
C430 H435 0.930 . S
C431 C432 1.333 . S
C431 N433 1.317 . S
C431 H436 0.930 . S
C432 C431 1.333 . S
C432 N434 1.350 . S
C432 H458 0.931 . S
N433 Co429 2.148 . S
N433 C430 1.301 . S
N433 C431 1.317 . S
N434 C430 1.328 . S
N434 C432 1.350 . S
H435 C430 0.930 . S
H436 C431 0.930 . S
C437 O438 1.224 . S
C437 O456 1.247 . S
O438 C437 1.224 . S
N439 Co429 2.128 . S
N439 C440 1.355 . S
N439 C442 1.311 . S
C440 N439 1.355 . S
C440 C441 1.363 . S
C440 H452 0.929 . S
C441 C440 1.363 . S
C441 N443 1.375 . S
C441 H459 0.931 . S
C442 N439 1.311 . S
C442 N443 1.347 . S
C442 H453 0.929 . S
N443 C441 1.375 . S
N443 C442 1.347 . S
C444 C447 1.365 . S
C444 N449 1.328 . S
C444 H450 0.929 . S
C445 C446 1.362 . S
C445 C448 1.378 . S
C445 H460 0.929 . S
C446 C445 1.362 . S
C446 C447 1.366 . S
C447 C444 1.365 . S
C447 C446 1.366 . S
C447 H461 0.930 . S
C448 C445 1.378 . S
C448 N449 1.315 . S
C448 H451 0.930 . S
N449 Co429 2.194 . S
N449 C444 1.328 . S
N449 C448 1.315 . S
H450 C444 0.929 . S
H451 C448 0.930 . S
H452 C440 0.929 . S
H453 C442 0.929 . S
O454 Co429 2.351 . S
O454 C457 1.244 . S
O455 Co429 2.155 . S
O455 C457 1.240 . S
O456 Co429 2.096 . S
O456 C437 1.247 . S
C457 O454 1.244 . S
C457 O455 1.240 . S
H458 C432 0.931 . S
H459 C441 0.931 . S
H460 C445 0.929 . S
H461 C447 0.930 . S
Co462 N466 2.148 . S
Co462 N472 2.128 . S
Co462 N482 2.194 . S
Co462 O487 2.351 . S
Co462 O488 2.155 . S
Co462 O489 2.096 . S
C463 N466 1.301 . S
C463 N467 1.328 . S
C463 H468 0.930 . S
C464 C465 1.333 . S
C464 N466 1.317 . S
C464 H469 0.930 . S
C465 C464 1.333 . S
C465 N467 1.350 . S
C465 H491 0.931 . S
N466 Co462 2.148 . S
N466 C463 1.301 . S
N466 C464 1.317 . S
N467 C463 1.328 . S
N467 C465 1.350 . S
H468 C463 0.930 . S
H469 C464 0.930 . S
C470 O471 1.224 . S
C470 O489 1.247 . S
O471 C470 1.224 . S
N472 Co462 2.128 . S
N472 C473 1.355 . S
N472 C475 1.311 . S
C473 N472 1.355 . S
C473 C474 1.363 . S
C473 H485 0.929 . S
C474 C473 1.363 . S
C474 N476 1.375 . S
C474 H492 0.931 . S
C475 N472 1.311 . S
C475 N476 1.347 . S
C475 H486 0.929 . S
N476 C474 1.375 . S
N476 C475 1.347 . S
C477 C480 1.365 . S
C477 N482 1.328 . S
C477 H483 0.929 . S
C478 C479 1.362 . S
C478 C481 1.378 . S
C478 H493 0.929 . S
C479 C478 1.362 . S
C479 C480 1.366 . S
C480 C477 1.365 . S
C480 C479 1.366 . S
C480 H494 0.930 . S
C481 C478 1.378 . S
C481 N482 1.315 . S
C481 H484 0.930 . S
N482 Co462 2.194 . S
N482 C477 1.328 . S
N482 C481 1.315 . S
H483 C477 0.929 . S
H484 C481 0.930 . S
H485 C473 0.929 . S
H486 C475 0.929 . S
O487 Co462 2.351 . S
O487 C490 1.244 . S
O488 Co462 2.155 . S
O488 C490 1.240 . S
O489 Co462 2.096 . S
O489 C470 1.247 . S
C490 O487 1.244 . S
C490 O488 1.240 . S
H491 C465 0.931 . S
H492 C474 0.931 . S
H493 C478 0.929 . S
H494 C480 0.930 . S
Co495 N499 2.148 . S
Co495 N505 2.128 . S
Co495 N515 2.194 . S
Co495 O520 2.351 . S
Co495 O521 2.155 . S
Co495 O522 2.096 . S
C496 N499 1.301 . S
C496 N500 1.328 . S
C496 H501 0.930 . S
C497 C498 1.333 . S
C497 N499 1.317 . S
C497 H502 0.930 . S
C498 C497 1.333 . S
C498 N500 1.350 . S
C498 H524 0.931 . S
N499 Co495 2.148 . S
N499 C496 1.301 . S
N499 C497 1.317 . S
N500 C496 1.328 . S
N500 C498 1.350 . S
H501 C496 0.930 . S
H502 C497 0.930 . S
C503 O504 1.224 . S
C503 O522 1.247 . S
O504 C503 1.224 . S
N505 Co495 2.128 . S
N505 C506 1.355 . S
N505 C508 1.311 . S
C506 N505 1.355 . S
C506 C507 1.363 . S
C506 H518 0.929 . S
C507 C506 1.363 . S
C507 N509 1.375 . S
C507 H525 0.931 . S
C508 N505 1.311 . S
C508 N509 1.347 . S
C508 H519 0.929 . S
N509 C507 1.375 . S
N509 C508 1.347 . S
C510 C513 1.365 . S
C510 N515 1.328 . S
C510 H516 0.929 . S
C511 C512 1.362 . S
C511 C514 1.378 . S
C511 H526 0.929 . S
C512 C511 1.362 . S
C512 C513 1.366 . S
C513 C510 1.365 . S
C513 C512 1.366 . S
C513 H527 0.930 . S
C514 C511 1.378 . S
C514 N515 1.315 . S
C514 H517 0.930 . S
N515 Co495 2.194 . S
N515 C510 1.328 . S
N515 C514 1.315 . S
H516 C510 0.929 . S
H517 C514 0.930 . S
H518 C506 0.929 . S
H519 C508 0.929 . S
O520 Co495 2.351 . S
O520 C523 1.244 . S
O521 Co495 2.155 . S
O521 C523 1.240 . S
O522 Co495 2.096 . S
O522 C503 1.247 . S
C523 O520 1.244 . S
C523 O521 1.240 . S
H524 C498 0.931 . S
H525 C507 0.931 . S
H526 C511 0.929 . S
H527 C513 0.930 . S
Co528 N532 2.148 . S
Co528 N538 2.128 . S
Co528 N548 2.194 . S
Co528 O553 2.351 . S
Co528 O554 2.155 . S
Co528 O555 2.096 . S
C529 N532 1.301 . S
C529 N533 1.328 . S
C529 H534 0.930 . S
C530 C531 1.333 . S
C530 N532 1.317 . S
C530 H535 0.930 . S
C531 C530 1.333 . S
C531 N533 1.350 . S
C531 H557 0.931 . S
N532 Co528 2.148 . S
N532 C529 1.301 . S
N532 C530 1.317 . S
N533 C529 1.328 . S
N533 C531 1.350 . S
H534 C529 0.930 . S
H535 C530 0.930 . S
C536 O537 1.224 . S
C536 O555 1.247 . S
O537 C536 1.224 . S
N538 Co528 2.128 . S
N538 C539 1.355 . S
N538 C541 1.311 . S
C539 N538 1.355 . S
C539 C540 1.363 . S
C539 H551 0.929 . S
C540 C539 1.363 . S
C540 N542 1.375 . S
C540 H558 0.931 . S
C541 N538 1.311 . S
C541 N542 1.347 . S
C541 H552 0.929 . S
N542 C540 1.375 . S
N542 C541 1.347 . S
C543 C546 1.365 . S
C543 N548 1.328 . S
C543 H549 0.929 . S
C544 C545 1.362 . S
C544 C547 1.378 . S
C544 H559 0.929 . S
C545 C544 1.362 . S
C545 C546 1.366 . S
C546 C543 1.365 . S
C546 C545 1.366 . S
C546 H560 0.930 . S
C547 C544 1.378 . S
C547 N548 1.315 . S
C547 H550 0.930 . S
N548 Co528 2.194 . S
N548 C543 1.328 . S
N548 C547 1.315 . S
H549 C543 0.929 . S
H550 C547 0.930 . S
H551 C539 0.929 . S
H552 C541 0.929 . S
O553 Co528 2.351 . S
O553 C556 1.244 . S
O554 Co528 2.155 . S
O554 C556 1.240 . S
O555 Co528 2.096 . S
O555 C536 1.247 . S
C556 O553 1.244 . S
C556 O554 1.240 . S
H557 C531 0.931 . S
H558 C540 0.931 . S
H559 C544 0.929 . S
H560 C546 0.930 . S
Co561 N565 2.148 . S
Co561 N571 2.128 . S
Co561 N581 2.194 . S
Co561 O586 2.351 . S
Co561 O587 2.155 . S
Co561 O588 2.096 . S
C562 N565 1.301 . S
C562 N566 1.328 . S
C562 H567 0.930 . S
C563 C564 1.333 . S
C563 N565 1.317 . S
C563 H568 0.930 . S
C564 C563 1.333 . S
C564 N566 1.350 . S
C564 H590 0.931 . S
N565 Co561 2.148 . S
N565 C562 1.301 . S
N565 C563 1.317 . S
N566 C562 1.328 . S
N566 C564 1.350 . S
H567 C562 0.930 . S
H568 C563 0.930 . S
C569 O570 1.224 . S
C569 O588 1.247 . S
O570 C569 1.224 . S
N571 Co561 2.128 . S
N571 C572 1.355 . S
N571 C574 1.311 . S
C572 N571 1.355 . S
C572 C573 1.363 . S
C572 H584 0.929 . S
C573 C572 1.363 . S
C573 N575 1.375 . S
C573 H591 0.931 . S
C574 N571 1.311 . S
C574 N575 1.347 . S
C574 H585 0.929 . S
N575 C573 1.375 . S
N575 C574 1.347 . S
C576 C579 1.365 . S
C576 N581 1.328 . S
C576 H582 0.929 . S
C577 C578 1.362 . S
C577 C580 1.378 . S
C577 H592 0.929 . S
C578 C577 1.362 . S
C578 C579 1.366 . S
C579 C576 1.365 . S
C579 C578 1.366 . S
C579 H593 0.930 . S
C580 C577 1.378 . S
C580 N581 1.315 . S
C580 H583 0.930 . S
N581 Co561 2.194 . S
N581 C576 1.328 . S
N581 C580 1.315 . S
H582 C576 0.929 . S
H583 C580 0.930 . S
H584 C572 0.929 . S
H585 C574 0.929 . S
O586 Co561 2.351 . S
O586 C589 1.244 . S
O587 Co561 2.155 . S
O587 C589 1.240 . S
O588 Co561 2.096 . S
O588 C569 1.247 . S
C589 O586 1.244 . S
C589 O587 1.240 . S
H590 C564 0.931 . S
H591 C573 0.931 . S
H592 C577 0.929 . S
H593 C579 0.930 . S
C594 C595 1.369 . S
C594 C596 1.419 . S
C594 H598 0.930 . S
C595 C594 1.369 . S
C595 C604 1.429 . S
C596 C594 1.419 . S
C596 C597 1.363 . S
C596 H599 0.929 . S
C597 C596 1.363 . S
C597 C603 1.428 . S
H598 C594 0.930 . S
H599 C596 0.929 . S
S600 N601 1.613 . S
S600 N602 1.610 . S
N601 S600 1.613 . S
N601 C604 1.350 . S
N602 S600 1.610 . S
N602 C603 1.351 . S
C603 C597 1.428 . S
C603 N602 1.351 . S
C603 C604 1.434 . S
C604 C595 1.429 . S
C604 N601 1.350 . S
C604 C603 1.434 . S
C605 C606 1.369 . S
C605 C607 1.419 . S
C605 H609 0.930 . S
C606 C605 1.369 . S
C606 C615 1.429 . S
C607 C605 1.419 . S
C607 C608 1.363 . S
C607 H610 0.929 . S
C608 C607 1.363 . S
C608 C614 1.428 . S
H609 C605 0.930 . S
H610 C607 0.929 . S
S611 N612 1.613 . S
S611 N613 1.610 . S
N612 S611 1.613 . S
N612 C615 1.350 . S
N613 S611 1.610 . S
N613 C614 1.351 . S
C614 C608 1.428 . S
C614 N613 1.351 . S
C614 C615 1.434 . S
C615 C606 1.429 . S
C615 N612 1.350 . S
C615 C614 1.434 . S
C616 C617 1.369 . S
C616 C618 1.419 . S
C616 H620 0.930 . S
C617 C616 1.369 . S
C617 C626 1.429 . S
C618 C616 1.419 . S
C618 C619 1.363 . S
C618 H621 0.929 . S
C619 C618 1.363 . S
C619 C625 1.428 . S
H620 C616 0.930 . S
H621 C618 0.929 . S
S622 N623 1.613 . S
S622 N624 1.610 . S
N623 S622 1.613 . S
N623 C626 1.350 . S
N624 S622 1.610 . S
N624 C625 1.351 . S
C625 C619 1.428 . S
C625 N624 1.351 . S
C625 C626 1.434 . S
C626 C617 1.429 . S
C626 N623 1.350 . S
C626 C625 1.434 . S
C627 C628 1.369 . S
C627 C629 1.419 . S
C627 H631 0.930 . S
C628 C627 1.369 . S
C628 C637 1.429 . S
C629 C627 1.419 . S
C629 C630 1.363 . S
C629 H632 0.929 . S
C630 C629 1.363 . S
C630 C636 1.428 . S
H631 C627 0.930 . S
H632 C629 0.929 . S
S633 N634 1.613 . S
S633 N635 1.610 . S
N634 S633 1.613 . S
N634 C637 1.350 . S
N635 S633 1.610 . S
N635 C636 1.351 . S
C636 C630 1.428 . S
C636 N635 1.351 . S
C636 C637 1.434 . S
C637 C628 1.429 . S
C637 N634 1.350 . S
C637 C636 1.434 . S
C638 C639 1.369 . S
C638 C640 1.419 . S
C638 H642 0.930 . S
C639 C638 1.369 . S
C639 C648 1.429 . S
C640 C638 1.419 . S
C640 C641 1.363 . S
C640 H643 0.929 . S
C641 C640 1.363 . S
C641 C647 1.428 . S
H642 C638 0.930 . S
H643 C640 0.929 . S
S644 N645 1.613 . S
S644 N646 1.610 . S
N645 S644 1.613 . S
N645 C648 1.350 . S
N646 S644 1.610 . S
N646 C647 1.351 . S
C647 C641 1.428 . S
C647 N646 1.351 . S
C647 C648 1.434 . S
C648 C639 1.429 . S
C648 N645 1.350 . S
C648 C647 1.434 . S
C649 C650 1.369 . S
C649 C651 1.419 . S
C649 H653 0.930 . S
C650 C649 1.369 . S
C650 C659 1.429 . S
C651 C649 1.419 . S
C651 C652 1.363 . S
C651 H654 0.929 . S
C652 C651 1.363 . S
C652 C658 1.428 . S
H653 C649 0.930 . S
H654 C651 0.929 . S
S655 N656 1.613 . S
S655 N657 1.610 . S
N656 S655 1.613 . S
N656 C659 1.350 . S
N657 S655 1.610 . S
N657 C658 1.351 . S
C658 C652 1.428 . S
C658 N657 1.351 . S
C658 C659 1.434 . S
C659 C650 1.429 . S
C659 N656 1.350 . S
C659 C658 1.434 . S
C660 C661 1.369 . S
C660 C662 1.419 . S
C660 H664 0.930 . S
C661 C660 1.369 . S
C661 C670 1.429 . S
C662 C660 1.419 . S
C662 C663 1.363 . S
C662 H665 0.929 . S
C663 C662 1.363 . S
C663 C669 1.428 . S
H664 C660 0.930 . S
H665 C662 0.929 . S
S666 N667 1.613 . S
S666 N668 1.610 . S
N667 S666 1.613 . S
N667 C670 1.350 . S
N668 S666 1.610 . S
N668 C669 1.351 . S
C669 C663 1.428 . S
C669 N668 1.351 . S
C669 C670 1.434 . S
C670 C661 1.429 . S
C670 N667 1.350 . S
C670 C669 1.434 . S
C671 C672 1.369 1_545 S
C671 C673 1.419 . S
C671 H675 0.930 . S
C672 C671 1.369 1_565 S
C672 C681 1.429 . S
C673 C671 1.419 . S
C673 C674 1.363 . S
C673 H676 0.929 . S
C674 C673 1.363 . S
C674 C680 1.428 1_545 S
H675 C671 0.930 . S
H676 C673 0.929 . S
S677 N678 1.613 . S
S677 N679 1.610 . S
N678 S677 1.613 . S
N678 C681 1.350 . S
N679 S677 1.610 . S
N679 C680 1.351 . S
C680 C674 1.428 1_565 S
C680 N679 1.351 . S
C680 C681 1.434 . S
C681 C672 1.429 . S
C681 N678 1.350 . S
C681 C680 1.434 . S
C682 C683 1.369 1_655 S
C682 C684 1.419 . S
C682 H686 0.930 . S
C683 C682 1.369 1_455 S
C683 C692 1.429 . S
C684 C682 1.419 . S
C684 C685 1.363 . S
C684 H687 0.929 . S
C685 C684 1.363 . S
C685 C691 1.428 1_655 S
H686 C682 0.930 . S
H687 C684 0.929 . S
S688 N689 1.613 . S
S688 N690 1.610 . S
N689 S688 1.613 . S
N689 C692 1.350 . S
N690 S688 1.610 . S
N690 C691 1.351 . S
C691 C685 1.428 1_455 S
C691 N690 1.351 . S
C691 C692 1.434 . S
C692 C683 1.429 . S
C692 N689 1.350 . S
C692 C691 1.434 . S
C693 C694 1.369 . S
C693 C695 1.419 . S
C693 H697 0.930 . S
C694 C693 1.369 . S
C694 C703 1.429 . S
C695 C693 1.419 . S
C695 C696 1.363 . S
C695 H698 0.929 . S
C696 C695 1.363 . S
C696 C702 1.428 . S
H697 C693 0.930 . S
H698 C695 0.929 . S
S699 N700 1.613 . S
S699 N701 1.610 . S
N700 S699 1.613 . S
N700 C703 1.350 . S
N701 S699 1.610 . S
N701 C702 1.351 . S
C702 C696 1.428 . S
C702 N701 1.351 . S
C702 C703 1.434 . S
C703 C694 1.429 . S
C703 N700 1.350 . S
C703 C702 1.434 . S
C704 C705 1.369 . S
C704 C706 1.419 . S
C704 H708 0.930 . S
C705 C704 1.369 . S
C705 C714 1.429 . S
C706 C704 1.419 . S
C706 C707 1.363 . S
C706 H709 0.929 . S
C707 C706 1.363 . S
C707 C713 1.428 . S
H708 C704 0.930 . S
H709 C706 0.929 . S
S710 N711 1.613 . S
S710 N712 1.610 . S
N711 S710 1.613 . S
N711 C714 1.350 . S
N712 S710 1.610 . S
N712 C713 1.351 . S
C713 C707 1.428 . S
C713 N712 1.351 . S
C713 C714 1.434 . S
C714 C705 1.429 . S
C714 N711 1.350 . S
C714 C713 1.434 . S
C715 C716 1.369 . S
C715 C717 1.419 . S
C715 H719 0.930 . S
C716 C715 1.369 . S
C716 C725 1.429 . S
C717 C715 1.419 . S
C717 C718 1.363 . S
C717 H720 0.929 . S
C718 C717 1.363 . S
C718 C724 1.428 . S
H719 C715 0.930 . S
H720 C717 0.929 . S
S721 N722 1.613 . S
S721 N723 1.610 . S
N722 S721 1.613 . S
N722 C725 1.350 . S
N723 S721 1.610 . S
N723 C724 1.351 . S
C724 C718 1.428 . S
C724 N723 1.351 . S
C724 C725 1.434 . S
C725 C716 1.429 . S
C725 N722 1.350 . S
C725 C724 1.434 . S
C726 C727 1.369 . S
C726 C728 1.419 . S
C726 H730 0.930 . S
C727 C726 1.369 . S
C727 C736 1.429 . S
C728 C726 1.419 . S
C728 C729 1.363 . S
C728 H731 0.929 . S
C729 C728 1.363 . S
C729 C735 1.428 . S
H730 C726 0.930 . S
H731 C728 0.929 . S
S732 N733 1.613 . S
S732 N734 1.610 . S
N733 S732 1.613 . S
N733 C736 1.350 . S
N734 S732 1.610 . S
N734 C735 1.351 . S
C735 C729 1.428 . S
C735 N734 1.351 . S
C735 C736 1.434 . S
C736 C727 1.429 . S
C736 N733 1.350 . S
C736 C735 1.434 . S
C737 C738 1.369 . S
C737 C739 1.419 . S
C737 H741 0.930 . S
C738 C737 1.369 . S
C738 C747 1.429 . S
C739 C737 1.419 . S
C739 C740 1.363 . S
C739 H742 0.929 . S
C740 C739 1.363 . S
C740 C746 1.428 . S
H741 C737 0.930 . S
H742 C739 0.929 . S
S743 N744 1.613 . S
S743 N745 1.610 . S
N744 S743 1.613 . S
N744 C747 1.350 . S
N745 S743 1.610 . S
N745 C746 1.351 . S
C746 C740 1.428 . S
C746 N745 1.351 . S
C746 C747 1.434 . S
C747 C738 1.429 . S
C747 N744 1.350 . S
C747 C746 1.434 . S
C748 C749 1.369 . S
C748 C750 1.419 . S
C748 H752 0.930 . S
C749 C748 1.369 . S
C749 C758 1.429 . S
C750 C748 1.419 . S
C750 C751 1.363 . S
C750 H753 0.929 . S
C751 C750 1.363 . S
C751 C757 1.428 . S
H752 C748 0.930 . S
H753 C750 0.929 . S
S754 N755 1.613 . S
S754 N756 1.610 . S
N755 S754 1.613 . S
N755 C758 1.350 . S
N756 S754 1.610 . S
N756 C757 1.351 . S
C757 C751 1.428 . S
C757 N756 1.351 . S
C757 C758 1.434 . S
C758 C749 1.429 . S
C758 N755 1.350 . S
C758 C757 1.434 . S
C759 C760 1.369 . S
C759 C761 1.419 1_655 S
C759 H763 0.930 . S
C760 C759 1.369 . S
C760 C769 1.429 1_554 S
C761 C759 1.419 1_455 S
C761 C762 1.363 1_554 S
C761 H764 0.929 . S
C762 C761 1.363 1_556 S
C762 C768 1.428 . S
H763 C759 0.930 . S
H764 C761 0.929 . S
S765 N766 1.613 . S
S765 N767 1.610 1_655 S
N766 S765 1.613 . S
N766 C769 1.350 . S
N767 S765 1.610 1_455 S
N767 C768 1.351 . S
C768 C762 1.428 . S
C768 N767 1.351 . S
C768 C769 1.434 1_455 S
C769 C760 1.429 1_556 S
C769 N766 1.350 . S
C769 C768 1.434 1_655 S
C770 C771 1.369 . S
C770 C772 1.419 . S
C770 H774 0.930 . S
C771 C770 1.369 . S
C771 C780 1.429 1_556 S
C772 C770 1.419 . S
C772 C773 1.363 1_556 S
C772 H775 0.929 . S
C773 C772 1.363 1_554 S
C773 C779 1.428 . S
H774 C770 0.930 . S
H775 C772 0.929 . S
S776 N777 1.613 . S
S776 N778 1.610 . S
N777 S776 1.613 . S
N777 C780 1.350 . S
N778 S776 1.610 . S
N778 C779 1.351 . S
C779 C773 1.428 . S
C779 N778 1.351 . S
C779 C780 1.434 . S
C780 C771 1.429 1_554 S
C780 N777 1.350 . S
C780 C779 1.434 . S
C781 C782 1.369 1_556 S
C781 C783 1.419 1_545 S
C781 H785 0.930 . S
C782 C781 1.369 1_554 S
C782 C791 1.429 . S
C783 C781 1.419 1_565 S
C783 C784 1.363 . S
C783 H786 0.929 . S
C784 C783 1.363 . S
C784 C790 1.428 1_556 S
H785 C781 0.930 . S
H786 C783 0.929 . S
S787 N788 1.613 1_565 S
S787 N789 1.610 . S
N788 S787 1.613 1_545 S
N788 C791 1.350 . S
N789 S787 1.610 . S
N789 C790 1.351 . S
C790 C784 1.428 1_554 S
C790 N789 1.351 . S
C790 C791 1.434 1_565 S
C791 C782 1.429 . S
C791 N788 1.350 . S
C791 C790 1.434 1_545 S
C792 C793 1.369 1_655 S
C792 C794 1.419 . S
C792 H796 0.930 . S
C793 C792 1.369 1_455 S
C793 C802 1.429 1_554 S
C794 C792 1.419 . S
C794 C795 1.363 1_554 S
C794 H797 0.929 . S
C795 C794 1.363 1_556 S
C795 C801 1.428 1_655 S
H796 C792 0.930 . S
H797 C794 0.929 . S
S798 N799 1.613 . S
S798 N800 1.610 . S
N799 S798 1.613 . S
N799 C802 1.350 . S
N800 S798 1.610 . S
N800 C801 1.351 . S
C801 C795 1.428 1_455 S
C801 N800 1.351 . S
C801 C802 1.434 . S
C802 C793 1.429 1_556 S
C802 N799 1.350 . S
C802 C801 1.434 . S
C803 C804 1.369 1_554 S
C803 C805 1.419 . S
C803 H807 0.930 . S
C804 C803 1.369 1_556 S
C804 C813 1.429 . S
C805 C803 1.419 . S
C805 C806 1.363 . S
C805 H808 0.929 . S
C806 C805 1.363 . S
C806 C812 1.428 1_554 S
H807 C803 0.930 . S
H808 C805 0.929 . S
S809 N810 1.613 . S
S809 N811 1.610 . S
N810 S809 1.613 . S
N810 C813 1.350 . S
N811 S809 1.610 . S
N811 C812 1.351 . S
C812 C806 1.428 1_556 S
C812 N811 1.351 . S
C812 C813 1.434 . S
C813 C804 1.429 . S
C813 N810 1.350 . S
C813 C812 1.434 . S
C814 C815 1.369 . S
C814 C816 1.419 1_546 S
C814 H818 0.930 . S
C815 C814 1.369 . S
C815 C824 1.429 . S
C816 C814 1.419 1_564 S
C816 C817 1.363 . S
C816 H819 0.929 . S
C817 C816 1.363 . S
C817 C823 1.428 . S
H818 C814 0.930 . S
H819 C816 0.929 . S
S820 N821 1.613 . S
S820 N822 1.610 1_556 S
N821 S820 1.613 . S
N821 C824 1.350 1_565 S
N822 S820 1.610 1_554 S
N822 C823 1.351 . S
C823 C817 1.428 . S
C823 N822 1.351 . S
C823 C824 1.434 1_564 S
C824 C815 1.429 . S
C824 N821 1.350 1_545 S
C824 C823 1.434 1_546 S
C825 C826 1.369 . S
C825 C827 1.419 . S
C825 H829 0.930 . S
C826 C825 1.369 . S
C826 C835 1.429 . S
C827 C825 1.419 . S
C827 C828 1.363 . S
C827 H830 0.929 . S
C828 C827 1.363 . S
C828 C834 1.428 . S
H829 C825 0.930 . S
H830 C827 0.929 . S
S831 N832 1.613 . S
S831 N833 1.610 . S
N832 S831 1.613 . S
N832 C835 1.350 . S
N833 S831 1.610 . S
N833 C834 1.351 . S
C834 C828 1.428 . S
C834 N833 1.351 . S
C834 C835 1.434 . S
C835 C826 1.429 . S
C835 N832 1.350 . S
C835 C834 1.434 . S
C836 C837 1.369 . S
C836 C838 1.419 . S
C836 H840 0.930 . S
C837 C836 1.369 . S
C837 C846 1.429 . S
C838 C836 1.419 . S
C838 C839 1.363 . S
C838 H841 0.929 . S
C839 C838 1.363 . S
C839 C845 1.428 . S
H840 C836 0.930 . S
H841 C838 0.929 . S
S842 N843 1.613 . S
S842 N844 1.610 . S
N843 S842 1.613 . S
N843 C846 1.350 . S
N844 S842 1.610 . S
N844 C845 1.351 . S
C845 C839 1.428 . S
C845 N844 1.351 . S
C845 C846 1.434 . S
C846 C837 1.429 . S
C846 N843 1.350 . S
C846 C845 1.434 . S
C847 C848 1.369 . S
C847 C849 1.419 . S
C847 H851 0.930 . S
C848 C847 1.369 . S
C848 C857 1.429 . S
C849 C847 1.419 . S
C849 C850 1.363 . S
C849 H852 0.929 . S
C850 C849 1.363 . S
C850 C856 1.428 . S
H851 C847 0.930 . S
H852 C849 0.929 . S
S853 N854 1.613 . S
S853 N855 1.610 . S
N854 S853 1.613 . S
N854 C857 1.350 . S
N855 S853 1.610 . S
N855 C856 1.351 . S
C856 C850 1.428 . S
C856 N855 1.351 . S
C856 C857 1.434 . S
C857 C848 1.429 . S
C857 N854 1.350 . S
C857 C856 1.434 . S
C858 C859 1.369 . S
C858 C860 1.419 . S
C858 H862 0.930 . S
C859 C858 1.369 . S
C859 C868 1.429 . S
C860 C858 1.419 . S
C860 C861 1.363 . S
C860 H863 0.929 . S
C861 C860 1.363 . S
C861 C867 1.428 . S
H862 C858 0.930 . S
H863 C860 0.929 . S
S864 N865 1.613 . S
S864 N866 1.610 . S
N865 S864 1.613 . S
N865 C868 1.350 . S
N866 S864 1.610 . S
N866 C867 1.351 . S
C867 C861 1.428 . S
C867 N866 1.351 . S
C867 C868 1.434 . S
C868 C859 1.429 . S
C868 N865 1.350 . S
C868 C867 1.434 . S
C869 C870 1.369 . S
C869 C871 1.419 . S
C869 H873 0.930 . S
C870 C869 1.369 . S
C870 C879 1.429 . S
C871 C869 1.419 . S
C871 C872 1.363 . S
C871 H874 0.929 . S
C872 C871 1.363 . S
C872 C878 1.428 . S
H873 C869 0.930 . S
H874 C871 0.929 . S
S875 N876 1.613 . S
S875 N877 1.610 . S
N876 S875 1.613 . S
N876 C879 1.350 . S
N877 S875 1.610 . S
N877 C878 1.351 . S
C878 C872 1.428 . S
C878 N877 1.351 . S
C878 C879 1.434 . S
C879 C870 1.429 . S
C879 N876 1.350 . S
C879 C878 1.434 . S
C880 C881 1.369 . S
C880 C882 1.419 . S
C880 H884 0.930 . S
C881 C880 1.369 . S
C881 C890 1.429 . S
C882 C880 1.419 . S
C882 C883 1.363 . S
C882 H885 0.929 . S
C883 C882 1.363 . S
C883 C889 1.428 . S
H884 C880 0.930 . S
H885 C882 0.929 . S
S886 N887 1.613 . S
S886 N888 1.610 . S
N887 S886 1.613 . S
N887 C890 1.350 . S
N888 S886 1.610 . S
N888 C889 1.351 . S
C889 C883 1.428 . S
C889 N888 1.351 . S
C889 C890 1.434 . S
C890 C881 1.429 . S
C890 N887 1.350 . S
C890 C889 1.434 . S
C891 C892 1.369 . S
C891 C893 1.419 . S
C891 H895 0.930 . S
C892 C891 1.369 . S
C892 C901 1.429 . S
C893 C891 1.419 . S
C893 C894 1.363 . S
C893 H896 0.929 . S
C894 C893 1.363 . S
C894 C900 1.428 . S
H895 C891 0.930 . S
H896 C893 0.929 . S
S897 N898 1.613 . S
S897 N899 1.610 . S
N898 S897 1.613 . S
N898 C901 1.350 . S
N899 S897 1.610 . S
N899 C900 1.351 . S
C900 C894 1.428 . S
C900 N899 1.351 . S
C900 C901 1.434 . S
C901 C892 1.429 . S
C901 N898 1.350 . S
C901 C900 1.434 . S
C902 C903 1.369 . S
C902 C904 1.419 . S
C902 H906 0.930 . S
C903 C902 1.369 . S
C903 C912 1.429 . S
C904 C902 1.419 . S
C904 C905 1.363 1_545 S
C904 H907 0.929 1_545 S
C905 C904 1.363 1_565 S
C905 C911 1.428 1_565 S
H906 C902 0.930 . S
H907 C904 0.929 1_565 S
S908 N909 1.613 . S
S908 N910 1.610 . S
N909 S908 1.613 . S
N909 C912 1.350 . S
N910 S908 1.610 . S
N910 C911 1.351 . S
C911 C905 1.428 1_545 S
C911 N910 1.351 . S
C911 C912 1.434 . S
C912 C903 1.429 . S
C912 N909 1.350 . S
C912 C911 1.434 . S
C913 C914 1.369 . S
C913 C915 1.419 . S
C913 H917 0.930 . S
C914 C913 1.369 . S
C914 C923 1.429 . S
C915 C913 1.419 . S
C915 C916 1.363 1_655 S
C915 H918 0.929 . S
C916 C915 1.363 1_455 S
C916 C922 1.428 1_455 S
H917 C913 0.930 . S
H918 C915 0.929 . S
S919 N920 1.613 . S
S919 N921 1.610 1_655 S
N920 S919 1.613 . S
N920 C923 1.350 . S
N921 S919 1.610 1_455 S
N921 C922 1.351 1_455 S
C922 C916 1.428 1_655 S
C922 N921 1.351 1_655 S
C922 C923 1.434 . S
C923 C914 1.429 . S
C923 N920 1.350 . S
C923 C922 1.434 . S
C924 C925 1.369 . S
C924 C926 1.419 . S
C924 H928 0.930 . S
C925 C924 1.369 . S
C925 C934 1.429 . S
C926 C924 1.419 . S
C926 C927 1.363 . S
C926 H929 0.929 . S
C927 C926 1.363 . S
C927 C933 1.428 . S
H928 C924 0.930 . S
H929 C926 0.929 . S
S930 N931 1.613 . S
S930 N932 1.610 . S
N931 S930 1.613 . S
N931 C934 1.350 . S
N932 S930 1.610 . S
N932 C933 1.351 . S
C933 C927 1.428 . S
C933 N932 1.351 . S
C933 C934 1.434 . S
C934 C925 1.429 . S
C934 N931 1.350 . S
C934 C933 1.434 . S
C935 C936 1.369 1_565 S
C935 C937 1.419 . S
C935 H939 0.930 . S
C936 C935 1.369 1_545 S
C936 C945 1.429 1_545 S
C937 C935 1.419 . S
C937 C938 1.363 . S
C937 H940 0.929 . S
C938 C937 1.363 . S
C938 C944 1.428 . S
H939 C935 0.930 . S
H940 C937 0.929 . S
S941 N942 1.613 1_565 S
S941 N943 1.610 . S
N942 S941 1.613 1_545 S
N942 C945 1.350 1_545 S
N943 S941 1.610 . S
N943 C944 1.351 . S
C944 C938 1.428 . S
C944 N943 1.351 . S
C944 C945 1.434 . S
C945 C936 1.429 1_565 S
C945 N942 1.350 1_565 S
C945 C944 1.434 . S
C946 C947 1.369 . S
C946 C948 1.419 . S
C946 H950 0.930 . S
C947 C946 1.369 . S
C947 C956 1.429 . S
C948 C946 1.419 . S
C948 C949 1.363 1_455 S
C948 H951 0.929 1_455 S
C949 C948 1.363 1_655 S
C949 C955 1.428 1_655 S
H950 C946 0.930 . S
H951 C948 0.929 1_655 S
S952 N953 1.613 . S
S952 N954 1.610 . S
N953 S952 1.613 . S
N953 C956 1.350 . S
N954 S952 1.610 . S
N954 C955 1.351 . S
C955 C949 1.428 1_455 S
C955 N954 1.351 . S
C955 C956 1.434 . S
C956 C947 1.429 . S
C956 N953 1.350 . S
C956 C955 1.434 . S
C957 C958 1.369 . S
C957 C959 1.419 . S
C957 H961 0.930 . S
C958 C957 1.369 . S
C958 C967 1.429 . S
C959 C957 1.419 . S
C959 C960 1.363 . S
C959 H962 0.929 . S
C960 C959 1.363 . S
C960 C966 1.428 . S
H961 C957 0.930 . S
H962 C959 0.929 . S
S963 N964 1.613 . S
S963 N965 1.610 . S
N964 S963 1.613 . S
N964 C967 1.350 . S
N965 S963 1.610 . S
N965 C966 1.351 . S
C966 C960 1.428 . S
C966 N965 1.351 . S
C966 C967 1.434 . S
C967 C958 1.429 . S
C967 N964 1.350 . S
C967 C966 1.434 . S
C968 C969 1.369 . S
C968 C970 1.419 . S
C968 H972 0.930 . S
C969 C968 1.369 . S
C969 C978 1.429 . S
C970 C968 1.419 . S
C970 C971 1.363 . S
C970 H973 0.929 . S
C971 C970 1.363 . S
C971 C977 1.428 . S
H972 C968 0.930 . S
H973 C970 0.929 . S
S974 N975 1.613 . S
S974 N976 1.610 . S
N975 S974 1.613 . S
N975 C978 1.350 . S
N976 S974 1.610 . S
N976 C977 1.351 . S
C977 C971 1.428 . S
C977 N976 1.351 . S
C977 C978 1.434 . S
C978 C969 1.429 . S
C978 N975 1.350 . S
C978 C977 1.434 . S
C979 C980 1.369 . S
C979 C981 1.419 . S
C979 H983 0.930 . S
C980 C979 1.369 . S
C980 C989 1.429 . S
C981 C979 1.419 . S
C981 C982 1.363 . S
C981 H984 0.929 . S
C982 C981 1.363 . S
C982 C988 1.428 . S
H983 C979 0.930 . S
H984 C981 0.929 . S
S985 N986 1.613 . S
S985 N987 1.610 . S
N986 S985 1.613 . S
N986 C989 1.350 . S
N987 S985 1.610 . S
N987 C988 1.351 . S
C988 C982 1.428 . S
C988 N987 1.351 . S
C988 C989 1.434 . S
C989 C980 1.429 . S
C989 N986 1.350 . S
C989 C988 1.434 . S
C990 C991 1.369 . S
C990 C992 1.419 . S
C990 H994 0.930 . S
C991 C990 1.369 . S
C991 C1000 1.429 . S
C992 C990 1.419 . S
C992 C993 1.363 . S
C992 H995 0.929 . S
C993 C992 1.363 . S
C993 C999 1.428 . S
H994 C990 0.930 . S
H995 C992 0.929 . S
S996 N997 1.613 . S
S996 N998 1.610 . S
N997 S996 1.613 . S
N997 C1000 1.350 . S
N998 S996 1.610 . S
N998 C999 1.351 . S
C999 C993 1.428 . S
C999 N998 1.351 . S
C999 C1000 1.434 . S
C1000 C991 1.429 . S
C1000 N997 1.350 . S
C1000 C999 1.434 . S
C1001 C1002 1.369 . S
C1001 C1003 1.419 . S
C1001 H1005 0.930 . S
C1002 C1001 1.369 . S
C1002 C1011 1.429 . S
C1003 C1001 1.419 . S
C1003 C1004 1.363 . S
C1003 H1006 0.929 . S
C1004 C1003 1.363 . S
C1004 C1010 1.428 . S
H1005 C1001 0.930 . S
H1006 C1003 0.929 . S
S1007 N1008 1.613 . S
S1007 N1009 1.610 . S
N1008 S1007 1.613 . S
N1008 C1011 1.350 . S
N1009 S1007 1.610 . S
N1009 C1010 1.351 . S
C1010 C1004 1.428 . S
C1010 N1009 1.351 . S
C1010 C1011 1.434 . S
C1011 C1002 1.429 . S
C1011 N1008 1.350 . S
C1011 C1010 1.434 . S
C1012 C1013 1.369 . S
C1012 C1014 1.419 . S
C1012 H1016 0.930 . S
C1013 C1012 1.369 . S
C1013 C1022 1.429 . S
C1014 C1012 1.419 . S
C1014 C1015 1.363 . S
C1014 H1017 0.929 . S
C1015 C1014 1.363 . S
C1015 C1021 1.428 . S
H1016 C1012 0.930 . S
H1017 C1014 0.929 . S
S1018 N1019 1.613 . S
S1018 N1020 1.610 . S
N1019 S1018 1.613 . S
N1019 C1022 1.350 . S
N1020 S1018 1.610 . S
N1020 C1021 1.351 . S
C1021 C1015 1.428 . S
C1021 N1020 1.351 . S
C1021 C1022 1.434 . S
C1022 C1013 1.429 . S
C1022 N1019 1.350 . S
C1022 C1021 1.434 . S
C1023 C1024 1.369 . S
C1023 C1025 1.419 . S
C1023 H1027 0.930 . S
C1024 C1023 1.369 . S
C1024 C1033 1.429 . S
C1025 C1023 1.419 . S
C1025 C1026 1.363 . S
C1025 H1028 0.929 . S
C1026 C1025 1.363 . S
C1026 C1032 1.428 . S
H1027 C1023 0.930 . S
H1028 C1025 0.929 . S
S1029 N1030 1.613 1_554 S
S1029 N1031 1.617 . S
N1030 S1029 1.613 1_556 S
N1030 C1033 1.350 . S
N1031 S1029 1.617 . S
N1031 C1032 1.339 1_554 S
C1032 C1026 1.428 . S
C1032 N1031 1.339 1_556 S
C1032 C1033 1.434 . S
C1033 C1024 1.429 . S
C1033 N1030 1.350 . S
C1033 C1032 1.434 . S
C1034 C1035 1.369 . S
C1034 C1036 1.419 . S
C1034 H1038 0.930 . S
C1035 C1034 1.369 . S
C1035 C1044 1.429 . S
C1036 C1034 1.419 . S
C1036 C1037 1.363 . S
C1036 H1039 0.929 . S
C1037 C1036 1.363 . S
C1037 C1043 1.428 . S
H1038 C1034 0.930 . S
H1039 C1036 0.929 . S
S1040 N1041 1.613 . S
S1040 N1042 1.610 1_554 S
N1041 S1040 1.613 . S
N1041 C1044 1.350 1_554 S
N1042 S1040 1.610 1_556 S
N1042 C1043 1.351 . S
C1043 C1037 1.428 . S
C1043 N1042 1.351 . S
C1043 C1044 1.434 . S
C1044 C1035 1.429 . S
C1044 N1041 1.350 1_556 S
C1044 C1043 1.434 . S
C1045 C1046 1.369 . S
C1045 C1047 1.419 . S
C1045 H1049 0.930 . S
C1046 C1045 1.369 . S
C1046 C1055 1.429 . S
C1047 C1045 1.419 . S
C1047 C1048 1.363 . S
C1047 H1050 0.929 . S
C1048 C1047 1.363 . S
C1048 C1054 1.428 . S
H1049 C1045 0.930 . S
H1050 C1047 0.929 . S
S1051 N1052 1.613 1_554 S
S1051 N1053 1.610 1_554 S
N1052 S1051 1.613 1_556 S
N1052 C1055 1.350 . S
N1053 S1051 1.610 1_556 S
N1053 C1054 1.351 . S
C1054 C1048 1.428 . S
C1054 N1053 1.351 . S
C1054 C1055 1.434 . S
C1055 C1046 1.429 . S
C1055 N1052 1.350 . S
C1055 C1054 1.434 . S
C1056 C1057 1.369 . S
C1056 C1058 1.419 . S
C1056 H1060 0.930 . S
C1057 C1056 1.369 . S
C1057 C1066 1.429 . S
C1058 C1056 1.419 . S
C1058 C1059 1.363 . S
C1058 H1061 0.929 . S
C1059 C1058 1.363 . S
C1059 C1065 1.428 . S
H1060 C1056 0.930 . S
H1061 C1058 0.929 . S
S1062 N1063 1.613 . S
S1062 N1064 1.610 . S
N1063 S1062 1.613 . S
N1063 C1066 1.350 . S
N1064 S1062 1.610 . S
N1064 C1065 1.351 . S
C1065 C1059 1.428 . S
C1065 N1064 1.351 . S
C1065 C1066 1.434 . S
C1066 C1057 1.429 . S
C1066 N1063 1.350 . S
C1066 C1065 1.434 . S
C1067 C1068 1.369 . S
C1067 C1069 1.419 . S
C1067 H1071 0.930 . S
C1068 C1067 1.369 . S
C1068 C1077 1.429 . S
C1069 C1067 1.419 . S
C1069 C1070 1.363 . S
C1069 H1072 0.929 . S
C1070 C1069 1.363 . S
C1070 C1076 1.428 . S
H1071 C1067 0.930 . S
H1072 C1069 0.929 . S
S1073 N1074 1.613 . S
S1073 N1075 1.610 . S
N1074 S1073 1.613 . S
N1074 C1077 1.350 . S
N1075 S1073 1.610 . S
N1075 C1076 1.351 . S
C1076 C1070 1.428 . S
C1076 N1075 1.351 . S
C1076 C1077 1.434 . S
C1077 C1068 1.429 . S
C1077 N1074 1.350 . S
C1077 C1076 1.434 . S
C1078 C1079 1.369 . S
C1078 C1080 1.419 . S
C1078 H1082 0.930 . S
C1079 C1078 1.369 . S
C1079 C1088 1.429 . S
C1080 C1078 1.419 . S
C1080 C1081 1.363 . S
C1080 H1083 0.929 . S
C1081 C1080 1.363 . S
C1081 C1087 1.428 . S
H1082 C1078 0.930 . S
H1083 C1080 0.929 . S
S1084 N1085 1.613 . S
S1084 N1086 1.610 . S
N1085 S1084 1.613 . S
N1085 C1088 1.350 . S
N1086 S1084 1.610 . S
N1086 C1087 1.351 . S
C1087 C1081 1.428 . S
C1087 N1086 1.351 . S
C1087 C1088 1.434 . S
C1088 C1079 1.429 . S
C1088 N1085 1.350 . S
C1088 C1087 1.434 . S
C595 N302 1.311 . S
C597 N5 1.323 . S
C606 N335 1.312 . S
C608 N38 1.317 . S
C617 N368 1.320 . S
C619 N71 1.320 . S
C628 N104 1.314 . S
C630 N401 1.323 . S
C639 N434 1.314 . S
C641 N137 1.323 . S
C650 N467 1.311 . S
C652 N170 1.323 . S
C661 N203 1.321 . S
C663 N500 1.320 . S
C672 N533 1.320 . S
C674 N236 1.321 . S
C683 N566 1.312 . S
C685 N269 1.324 . S
C694 C589 1.889 . S
C696 C28 1.891 . S
C705 C523 1.892 . S
C707 C61 1.890 . S
C716 C94 1.889 . S
C718 C556 1.892 . S
C727 C259 1.890 . S
C729 C127 1.889 . S
C738 C292 1.889 . S
C740 C160 1.891 . S
C749 C193 1.892 . S
C751 C226 1.890 . S
C760 C325 1.891 . S
C762 C457 1.889 . S
C771 C490 1.892 . S
C773 C358 1.890 . S
C782 C391 1.889 . S
C784 C424 1.891 . S
C793 C17 1.538 . S
C795 C149 1.528 . S
C804 C182 1.526 . S
C806 C50 1.538 . S
C815 C116 1.527 . S
C817 C83 1.536 . S
C826 C347 1.535 . S
C828 C215 1.530 . S
C837 C248 1.535 . S
C839 C380 1.530 . S
C848 C314 1.528 . S
C850 C281 1.536 . S
C859 C413 1.539 . S
C861 C545 1.529 . S
C870 C578 1.526 . S
C872 C446 1.538 . S
C881 C479 1.540 . S
C883 C512 1.528 . S
C892 C74 1.285 . S
C894 N14 1.327 . S
C903 C8 1.283 . S
C905 N47 1.327 . S
C914 C41 1.277 . S
C916 N80 1.328 . S
C925 C140 1.284 . S
C927 N113 1.329 . S
C936 N146 1.329 . S
C938 C173 1.286 . S
C947 C107 1.287 . S
C949 N179 1.328 . S
C958 C272 1.280 . S
C960 N212 1.327 . S
C969 C206 1.276 . S
C971 N245 1.328 . S
C980 N278 1.327 . S
C982 C239 1.279 . S
C991 N311 1.327 . S
C993 C338 1.284 . S
C1002 C371 1.281 . S
C1004 N344 1.327 . S
C1013 C305 1.286 . S
C1015 N377 1.328 . S
C1024 N410 1.329 . S
C1026 C470 1.286 . S
C1035 C404 1.287 . S
C1037 N443 1.328 . S
C1046 C437 1.287 . S
C1048 N476 1.328 . S
C1057 C536 1.278 . S
C1059 N509 1.328 . S
C1068 C569 1.286 . S
C1070 N542 1.328 . S
C1079 C503 1.278 . S
C1081 N575 1.327 . S
