# Generated by pormake.
# Topology snz, (6)-cn, num edge types: 1
# Building blocks:
#     Node 0, Type 0, BuildingBlock: CIFDUS_clean_sbu_1, # of connection points: 6
#     Node 1, Type 0, BuildingBlock: CIFDUS_clean_sbu_1, # of connection points: 6
#     Node 2, Type 0, BuildingBlock: CIFDUS_clean_sbu_1, # of connection points: 6
#     Node 3, Type 0, BuildingBlock: CIFDUS_clean_sbu_1, # of connection points: 6
#     Node 4, Type 0, BuildingBlock: CIFDUS_clean_sbu_1, # of connection points: 6
#     Node 5, Type 0, BuildingBlock: CIFDUS_clean_sbu_1, # of connection points: 6
#     Node 6, Type 0, BuildingBlock: CIFDUS_clean_sbu_1, # of connection points: 6
#     Node 7, Type 0, BuildingBlock: CIFDUS_clean_sbu_1, # of connection points: 6
#     Node 8, Type 0, BuildingBlock: CIFDUS_clean_sbu_1, # of connection points: 6
#     Edge 9, Type (0, 0), BuildingBlock: ZUJKAS_clean_linker_0, # of connection points: 2
#     Edge 10, Type (0, 0), BuildingBlock: ZUJKAS_clean_linker_0, # of connection points: 2
#     Edge 11, Type (0, 0), BuildingBlock: ZUJKAS_clean_linker_0, # of connection points: 2
#     Edge 12, Type (0, 0), BuildingBlock: ZUJKAS_clean_linker_0, # of connection points: 2
#     Edge 13, Type (0, 0), BuildingBlock: ZUJKAS_clean_linker_0, # of connection points: 2
#     Edge 14, Type (0, 0), BuildingBlock: ZUJKAS_clean_linker_0, # of connection points: 2
#     Edge 15, Type (0, 0), BuildingBlock: ZUJKAS_clean_linker_0, # of connection points: 2
#     Edge 16, Type (0, 0), BuildingBlock: ZUJKAS_clean_linker_0, # of connection points: 2
#     Edge 17, Type (0, 0), BuildingBlock: ZUJKAS_clean_linker_0, # of connection points: 2
#     Edge 18, Type (0, 0), BuildingBlock: ZUJKAS_clean_linker_0, # of connection points: 2
#     Edge 19, Type (0, 0), BuildingBlock: ZUJKAS_clean_linker_0, # of connection points: 2
#     Edge 20, Type (0, 0), BuildingBlock: ZUJKAS_clean_linker_0, # of connection points: 2
#     Edge 21, Type (0, 0), BuildingBlock: ZUJKAS_clean_linker_0, # of connection points: 2
#     Edge 22, Type (0, 0), BuildingBlock: ZUJKAS_clean_linker_0, # of connection points: 2
#     Edge 23, Type (0, 0), BuildingBlock: ZUJKAS_clean_linker_0, # of connection points: 2
#     Edge 24, Type (0, 0), BuildingBlock: ZUJKAS_clean_linker_0, # of connection points: 2
#     Edge 25, Type (0, 0), BuildingBlock: ZUJKAS_clean_linker_0, # of connection points: 2
#     Edge 26, Type (0, 0), BuildingBlock: ZUJKAS_clean_linker_0, # of connection points: 2
#     Edge 27, Type (0, 0), BuildingBlock: ZUJKAS_clean_linker_0, # of connection points: 2
#     Edge 28, Type (0, 0), BuildingBlock: ZUJKAS_clean_linker_0, # of connection points: 2
#     Edge 29, Type (0, 0), BuildingBlock: ZUJKAS_clean_linker_0, # of connection points: 2
#     Edge 30, Type (0, 0), BuildingBlock: ZUJKAS_clean_linker_0, # of connection points: 2
#     Edge 31, Type (0, 0), BuildingBlock: ZUJKAS_clean_linker_0, # of connection points: 2
#     Edge 32, Type (0, 0), BuildingBlock: ZUJKAS_clean_linker_0, # of connection points: 2
#     Edge 33, Type (0, 0), BuildingBlock: ZUJKAS_clean_linker_0, # of connection points: 2
#     Edge 34, Type (0, 0), BuildingBlock: ZUJKAS_clean_linker_0, # of connection points: 2
#     Edge 35, Type (0, 0), BuildingBlock: ZUJKAS_clean_linker_0, # of connection points: 2
# Relax obj value: 0.262
# Max RMSD: 0.273
# Mean RMSD: 0.244
data_MOF--net-snz--node1-CIFDUS_clean_sbu_1--edge1-ZUJKAS_clean_linker_0
_symmetry_space_group_name_H-M    P1
_symmetry_Int_Tables_number       1
_symmetry_cell_setting            triclinic
loop_
_symmetry_equiv_pos_as_xyz
'x, y, z'
_cell_length_a     63.425802
_cell_length_b     64.234322
_cell_length_c     18.87791
_cell_angle_alpha  91.998977
_cell_angle_beta   91.83962
_cell_angle_gamma 120.18851
loop_
_atom_site_label
_atom_site_type_symbol
_atom_site_fract_x
_atom_site_fract_y
_atom_site_fract_z
_atom_type_partial_charge
O0 O 0.04402 0.52685 0.084 0.0
Mn1 Mn 0.02588 0.49048 0.04816 0.0
O2 O 0.01653 0.53137 0.14561 0.0
Mn3 Mn 0.9907 0.49961 0.13352 0.0
O4 O 0.00821 0.45413 0.01311 0.0
O5 O 0.04648 0.49868 0.96286 0.0
Mn6 Mn 0.06202 0.48257 0.96279 0.0
O7 O 0.05076 0.48497 0.11149 0.0
O8 O 0.03693 0.45024 0.95563 0.0
O9 O 1.00118 0.496 0.98407 0.0
O10 O 0.97109 0.49147 0.05189 0.0
O11 O 0.07052 0.49953 0.88226 0.0
O12 O 0.08203 0.49313 0.04402 0.0
C13 C 0.99546 0.47485 0.1937 0.0
C14 C 0.03785 0.53975 0.12211 0.0
C15 C 0.01542 0.44144 0.97838 0.0
C16 C 0.05473 0.50552 0.90092 0.0
C17 C 0.07264 0.48911 0.10383 0.0
C18 C 0.98019 0.49413 0.99177 0.0
O19 O 0.00494 0.48214 0.13317 0.0
O20 O 0.98024 0.48171 0.21151 0.0
O21 O 0.53551 0.45988 0.01439 0.0
Mn22 Mn 0.553 0.49754 0.01865 0.0
O23 O 0.49751 0.44692 0.96653 0.0
Mn24 Mn 0.50069 0.47683 0.95018 0.0
O25 O 0.57065 0.53523 0.02229 0.0
O26 O 0.57445 0.49945 0.10226 0.0
Mn27 Mn 0.60534 0.51791 0.08505 0.0
O28 O 0.57843 0.49918 0.94536 0.0
O29 O 0.60863 0.54793 0.06981 0.0
O30 O 0.52726 0.49587 0.09164 0.0
O31 O 0.49496 0.49151 0.02631 0.0
O32 O 0.60518 0.5082 0.17582 0.0
O33 O 0.6109 0.5032 0.00843 0.0
C34 C 0.52512 0.49747 0.87148 0.0
C35 C 0.51378 0.44292 0.99396 0.0
C36 C 0.59244 0.5521 0.04268 0.0
C37 C 0.5817 0.49763 0.16522 0.0
C38 C 0.59896 0.49955 0.94961 0.0
C39 C 0.50652 0.49514 0.08592 0.0
O40 O 0.53166 0.49554 0.93508 0.0
O41 O 0.50171 0.48676 0.859 0.0
O42 O 0.5678 0.98351 0.01073 0.0
Mn43 Mn 0.54596 0.99812 0.98408 0.0
O44 O 0.60067 0.01419 0.07189 0.0
Mn45 Mn 0.59086 0.03715 0.07126 0.0
O46 O 0.52456 0.01295 0.95812 0.0
O47 O 0.53332 0.97713 0.89356 0.0
Mn48 Mn 0.50139 0.96034 0.88949 0.0
O49 O 0.51701 0.97223 0.04277 0.0
O50 O 0.49175 0.98351 0.89406 0.0
O51 O 0.574 0.0231 0.92327 0.0
O52 O 0.59832 0.05566 0.99365 0.0
O53 O 0.51065 0.95333 0.80461 0.0
O54 O 0.49421 0.94113 0.96461 0.0
C55 C 0.56186 0.02995 0.13748 0.0
C56 C 0.58866 0.99244 0.04523 0.0
C57 C 0.50381 0.00481 0.92395 0.0
C58 C 0.53237 0.96964 0.82846 0.0
C59 C 0.49948 0.95035 0.0278 0.0
C60 C 0.59149 0.04507 0.93238 0.0
O61 O 0.55885 0.01985 0.07432 0.0
O62 O 0.584 0.04693 0.15515 0.0
O63 O 0.72818 0.86142 0.15789 0.0
Mn64 Mn 0.74548 0.84234 0.18479 0.0
O65 O 0.75673 0.89465 0.10758 0.0
Mn66 Mn 0.78231 0.88811 0.11327 0.0
O67 O 0.76221 0.82272 0.21224 0.0
O68 O 0.72354 0.82816 0.26601 0.0
Mn69 Mn 0.70674 0.79672 0.24996 0.0
O70 O 0.72173 0.81364 0.11101 0.0
O71 O 0.73082 0.78791 0.24751 0.0
O72 O 0.76921 0.87138 0.25775 0.0
O73 O 0.80077 0.89732 0.19754 0.0
O74 O 0.69749 0.80278 0.33593 0.0
O75 O 0.68806 0.79122 0.1676 0.0
C76 C 0.77716 0.85906 0.04292 0.0
C77 C 0.73509 0.88142 0.12822 0.0
C78 C 0.75333 0.80118 0.23359 0.0
C79 C 0.71406 0.82488 0.32726 0.0
C80 C 0.69909 0.79707 0.11057 0.0
C81 C 0.79046 0.89041 0.25551 0.0
O82 O 0.76762 0.85651 0.10395 0.0
O83 O 0.79281 0.8812 0.03092 0.0
O84 O 0.19735 0.80892 0.30916 0.0
Mn85 Mn 0.21563 0.84597 0.33795 0.0
O86 O 0.16404 0.80276 0.24323 0.0
Mn87 Mn 0.17016 0.83436 0.24545 0.0
O88 O 0.23307 0.88297 0.36499 0.0
O89 O 0.22903 0.84103 0.42999 0.0
Mn90 Mn 0.26076 0.86073 0.43883 0.0
O91 O 0.24653 0.85076 0.28237 0.0
O92 O 0.26571 0.89189 0.4376 0.0
O93 O 0.18519 0.84022 0.39528 0.0
O94 O 0.15952 0.8443 0.32188 0.0
O95 O 0.25272 0.84455 0.52082 0.0
O96 O 0.27283 0.8513 0.36612 0.0
C97 C 0.19927 0.85764 0.18383 0.0
C98 C 0.17741 0.79517 0.27122 0.0
C99 C 0.25222 0.89812 0.40345 0.0
C100 C 0.23056 0.83506 0.49388 0.0
C101 C 0.26606 0.85027 0.30145 0.0
C102 C 0.16598 0.84182 0.38371 0.0
O103 O 0.2022 0.85175 0.24686 0.0
O104 O 0.17679 0.85003 0.16296 0.0
O105 O 0.2607 0.37161 0.3566 0.0
Mn106 Mn 0.22334 0.35289 0.37528 0.0
O107 O 0.2671 0.34319 0.30415 0.0
Mn108 Mn 0.2349 0.31733 0.29782 0.0
O109 O 0.18638 0.33405 0.39461 0.0
O110 O 0.22914 0.37438 0.46268 0.0
Mn111 Mn 0.21122 0.388 0.45482 0.0
O112 O 0.21659 0.375 0.30866 0.0
O113 O 0.17906 0.36182 0.44658 0.0
O114 O 0.22917 0.33065 0.4429 0.0
O115 O 0.22398 0.29902 0.37548 0.0
O116 O 0.22712 0.39793 0.54353 0.0
O117 O 0.22207 0.40649 0.37755 0.0
C118 C 0.21135 0.32126 0.22352 0.0
C119 C 0.27475 0.36483 0.32867 0.0
C120 C 0.17191 0.34026 0.42221 0.0
C121 C 0.23473 0.38316 0.52768 0.0
C122 C 0.21858 0.39593 0.31665 0.0
C123 C 0.22585 0.30923 0.43593 0.0
O124 O 0.21728 0.33122 0.28742 0.0
O125 O 0.21894 0.30631 0.20993 0.0
O126 O 0.38185 0.14807 0.78472 0.0
Mn127 Mn 0.36633 0.16675 0.74241 0.0
O128 O 0.35313 0.1208 0.85236 0.0
Mn129 Mn 0.32731 0.1262 0.82888 0.0
O130 O 0.35044 0.18544 0.70194 0.0
O131 O 0.39936 0.19654 0.74076 0.0
Mn132 Mn 0.40396 0.2079 0.65571 0.0
O133 O 0.3685 0.15497 0.6399 0.0
O134 O 0.37903 0.21513 0.64047 0.0
O135 O 0.36397 0.17836 0.84488 0.0
O136 O 0.32732 0.15115 0.88039 0.0
O137 O 0.43146 0.22901 0.71203 0.0
O138 O 0.40284 0.18387 0.59663 0.0
C139 C 0.31476 0.11728 0.71845 0.0
C140 C 0.37452 0.13105 0.82796 0.0
C141 C 0.35767 0.20393 0.6646 0.0
C142 C 0.41977 0.21537 0.76242 0.0
C143 C 0.38439 0.16263 0.59259 0.0
C144 C 0.34691 0.17155 0.88857 0.0
O145 O 0.33356 0.13697 0.74374 0.0
O146 O 0.30178 0.10379 0.7674 0.0
O147 O 0.9105 0.17676 0.60575 0.0
Mn148 Mn 0.8755 0.16098 0.64383 0.0
O149 O 0.90917 0.20138 0.52509 0.0
Mn150 Mn 0.87946 0.19908 0.54608 0.0
O151 O 0.84024 0.14605 0.67854 0.0
O152 O 0.87411 0.12872 0.6521 0.0
Mn153 Mn 0.8659 0.12036 0.73968 0.0
O154 O 0.89001 0.17332 0.74794 0.0
O155 O 0.83484 0.11632 0.74825 0.0
O156 O 0.86082 0.14817 0.54021 0.0
O157 O 0.85171 0.17465 0.49878 0.0
O158 O 0.86903 0.09592 0.69993 0.0
O159 O 0.89052 0.14304 0.8006 0.0
C160 C 0.87858 0.21407 0.64721 0.0
C161 C 0.92015 0.19185 0.55685 0.0
C162 C 0.82701 0.12884 0.71808 0.0
C163 C 0.87358 0.10824 0.64389 0.0
C164 C 0.89638 0.16502 0.80006 0.0
C165 C 0.84992 0.15412 0.49386 0.0
O166 O 0.8769 0.19317 0.63655 0.0
O167 O 0.87928 0.22487 0.58996 0.0
O168 O 0.83934 0.63463 0.63601 0.0
Mn169 Mn 0.87493 0.65583 0.60283 0.0
O170 O 0.83417 0.65985 0.71055 0.0
Mn171 Mn 0.86408 0.6882 0.70245 0.0
O172 O 0.91052 0.67771 0.57219 0.0
O173 O 0.87858 0.62627 0.58883 0.0
Mn174 Mn 0.88804 0.62662 0.50153 0.0
O175 O 0.86093 0.65296 0.49914 0.0
O176 O 0.91855 0.6546 0.49876 0.0
O177 O 0.88887 0.6592 0.7068 0.0
O178 O 0.89011 0.6917 0.75869 0.0
O179 O 0.88608 0.59974 0.53756 0.0
O180 O 0.86341 0.62359 0.44032 0.0
C181 C 0.86964 0.70341 0.60042 0.0
C182 C 0.82637 0.63911 0.67861 0.0
C183 C 0.925 0.67468 0.53269 0.0
C184 C 0.88048 0.60716 0.59469 0.0
C185 C 0.85585 0.63848 0.44461 0.0
C186 C 0.89586 0.67536 0.75796 0.0
O187 O 0.87176 0.68517 0.6161 0.0
O188 O 0.86513 0.71331 0.65407 0.0
H189 H 0.00742 0.47794 0.85335 0.0
H190 H 0.99572 0.47194 0.7263 0.0
H191 H 0.06304 0.53652 0.6877 0.0
H192 H 0.07484 0.54241 0.8145 0.0
H193 H 0.9948 0.49972 0.60226 0.0
H194 H 0.06908 0.47763 0.60726 0.0
H195 H 0.05543 0.48049 0.68674 0.0
H196 H 0.07729 0.50698 0.64514 0.0
C197 C 0.0189 0.4918 0.81854 0.0
C198 C 0.04207 0.51065 0.8437 0.0
C199 C 0.01241 0.48809 0.74558 0.0
C200 C 0.02892 0.50335 0.69752 0.0
C201 C 0.05026 0.52429 0.72389 0.0
H202 H 0.04236 0.49929 0.24676 0.0
H203 H 0.05198 0.50349 0.37479 0.0
C204 C 0.05677 0.52792 0.7966 0.0
C205 C 0.02595 0.49545 0.62118 0.0
H206 H 0.05072 0.47604 0.49469 0.0
C207 C 0.00693 0.49446 0.57872 0.0
C208 C 0.04178 0.48844 0.59077 0.0
C209 C 0.06195 0.4882 0.63475 0.0
C210 C 0.00369 0.48727 0.50608 0.0
C211 C 0.01955 0.48031 0.47557 0.0
C212 C 0.03851 0.48121 0.5182 0.0
C213 C 0.01715 0.47311 0.39871 0.0
C214 C 0.98369 0.48783 0.46211 0.0
C215 C 0.9955 0.45316 0.36923 0.0
C216 C 0.99014 0.45059 0.29594 0.0
C217 C 0.00635 0.4679 0.25133 0.0
C218 C 0.02967 0.48544 0.27963 0.0
C219 C 0.03499 0.48815 0.35317 0.0
H220 H 0.97683 0.49864 0.48958 0.0
H221 H 0.99025 0.49546 0.41006 0.0
H222 H 0.96813 0.46915 0.45195 0.0
H223 H 0.98174 0.44097 0.40334 0.0
H224 H 0.97195 0.43704 0.27557 0.0
H225 H 0.52883 0.52982 0.77857 0.0
H226 H 0.54065 0.53044 0.65622 0.0
H227 H 0.5666 0.48175 0.7044 0.0
H228 H 0.55409 0.48056 0.82612 0.0
H229 H 0.58291 0.53782 0.58132 0.0
H230 H 0.506 0.44279 0.56307 0.0
H231 H 0.51122 0.46346 0.63773 0.0
H232 H 0.52992 0.44992 0.62969 0.0
C233 C 0.5382 0.52025 0.76385 0.0
C234 C 0.5411 0.5056 0.81197 0.0
C235 C 0.54476 0.52045 0.69392 0.0
C236 C 0.554 0.50575 0.67116 0.0
C237 C 0.55925 0.49303 0.721 0.0
H238 H 0.57896 0.4655 0.2576 0.0
H239 H 0.56849 0.46524 0.38135 0.0
C240 C 0.55265 0.4928 0.79103 0.0
C241 C 0.55478 0.50121 0.59423 0.0
H242 H 0.52673 0.45786 0.45877 0.0
C243 C 0.57069 0.52037 0.55444 0.0
C244 C 0.53855 0.47842 0.55945 0.0
C245 C 0.52028 0.45747 0.59935 0.0
C246 C 0.57113 0.51724 0.48067 0.0
C247 C 0.55482 0.49449 0.44587 0.0
C248 C 0.53899 0.4753 0.48569 0.0
C249 C 0.55519 0.49006 0.36865 0.0
C250 C 0.58938 0.53817 0.44072 0.0
C251 C 0.54954 0.50277 0.31977 0.0
C252 C 0.55527 0.5027 0.24888 0.0
C253 C 0.56642 0.48971 0.22623 0.0
C254 C 0.56983 0.47518 0.27368 0.0
C255 C 0.56409 0.47522 0.3444 0.0
H256 H 0.60382 0.55274 0.47694 0.0
H257 H 0.59824 0.53212 0.40177 0.0
H258 H 0.57978 0.54588 0.41102 0.0
H259 H 0.54239 0.51411 0.33753 0.0
H260 H 0.55329 0.51471 0.21398 0.0
H261 H 0.54857 0.0158 0.79675 0.0
H262 H 0.55551 0.02836 0.67483 0.0
H263 H 0.55916 0.96501 0.6141 0.0
H264 H 0.55221 0.95242 0.73596 0.0
H265 H 0.58809 0.03178 0.55387 0.0
H266 H 0.49198 0.95579 0.5263 0.0
H267 H 0.50736 0.96979 0.61143 0.0
H268 H 0.51402 0.94909 0.56501 0.0
C269 C 0.55267 0.00549 0.75871 0.0
C270 C 0.55005 0.98321 0.77586 0.0
C271 C 0.55618 0.01246 0.68859 0.0
C272 C 0.55715 0.99723 0.63526 0.0
C273 C 0.55814 0.97683 0.65446 0.0
H274 H 0.54212 0.98417 0.17882 0.0
H275 H 0.53714 0.97487 0.30396 0.0
C276 C 0.55459 0.96986 0.72439 0.0
C277 C 0.55272 1.00019 0.55964 0.0
H278 H 0.50946 0.97488 0.42169 0.0
C279 C 0.57092 0.01943 0.52493 0.0
C280 C 0.53018 0.98408 0.52228 0.0
C281 C 0.50962 0.9636 0.55804 0.0
C282 C 0.5674 0.02263 0.45308 0.0
C283 C 0.54484 0.00647 0.41558 0.0
C284 C 0.52663 0.98729 0.45054 0.0
C285 C 0.54044 0.00885 0.33929 0.0
C286 C 0.58815 0.04294 0.41737 0.0
C287 C 0.54148 0.02993 0.31696 0.0
C288 C 0.54401 0.0351 0.2454 0.0
C289 C 0.54538 0.01921 0.19522 0.0
C290 C 0.54065 0.99654 0.21606 0.0
C291 C 0.53827 0.99141 0.28791 0.0
H292 H 0.60586 0.05008 0.44835 0.0
H293 H 0.58997 0.03688 0.36326 0.0
H294 H 0.58439 0.05794 0.41234 0.0
H295 H 0.54254 0.04335 0.35557 0.0
H296 H 0.54792 0.05282 0.23081 0.0
H297 H 0.76113 0.84516 0.37855 0.0
H298 H 0.7727 0.8513 0.50589 0.0
H299 H 0.70314 0.84396 0.55063 0.0
H300 H 0.69146 0.83754 0.42362 0.0
H301 H 0.77305 0.87965 0.63128 0.0
H302 H 0.70094 0.78297 0.62755 0.0
H303 H 0.71287 0.79834 0.5475 0.0
H304 H 0.69099 0.80266 0.59419 0.0
C305 C 0.74897 0.84643 0.41519 0.0
C306 C 0.72544 0.841 0.3913 0.0
C307 C 0.75541 0.84949 0.48815 0.0
C308 C 0.73842 0.84725 0.53767 0.0
C309 C 0.7163 0.84522 0.5133 0.0
H310 H 0.73023 0.8376 0.99033 0.0
H311 H 0.71935 0.83054 0.86281 0.0
C312 C 0.70982 0.84201 0.44063 0.0
C313 C 0.74229 0.84375 0.61338 0.0
H314 H 0.71972 0.80207 0.73984 0.0
C315 C 0.76149 0.86269 0.65499 0.0
C316 C 0.72721 0.82149 0.64408 0.0
C317 C 0.70696 0.80009 0.60103 0.0
C318 C 0.76562 0.8602 0.72702 0.0
C319 C 0.75049 0.83797 0.75779 0.0
C320 C 0.73134 0.819 0.71609 0.0
C321 C 0.75393 0.83467 0.83398 0.0
C322 C 0.78579 0.88165 0.77013 0.0
C323 C 0.77598 0.83696 0.8603 0.0
C324 C 0.78206 0.84062 0.93329 0.0
C325 C 0.76611 0.84189 0.98091 0.0
C326 C 0.74262 0.83606 0.95523 0.0
C327 C 0.73658 0.83253 0.88203 0.0
H328 H 0.79202 0.89873 0.74316 0.0
H329 H 0.77969 0.88357 0.82322 0.0
H330 H 0.80167 0.87898 0.77803 0.0
H331 H 0.78941 0.83813 0.82415 0.0
H332 H 0.8004 0.84541 0.95159 0.0
H333 H 0.21636 0.79693 0.57418 0.0
H334 H 0.20815 0.79969 0.69817 0.0
H335 H 0.19561 0.85822 0.65556 0.0
H336 H 0.20417 0.85562 0.53146 0.0
H337 H 0.23702 0.87176 0.7432 0.0
H338 H 0.15805 0.79063 0.8414 0.0
H339 H 0.17666 0.78377 0.78675 0.0
H340 H 0.16036 0.7973 0.74882 0.0
C341 C 0.20999 0.80912 0.59006 0.0
C342 C 0.21094 0.82606 0.54335 0.0
C343 C 0.20557 0.8109 0.6614 0.0
C344 C 0.20167 0.82944 0.68649 0.0
C345 C 0.19872 0.84385 0.63736 0.0
H346 H 0.21154 0.8939 0.09709 0.0
H347 H 0.21801 0.88961 0.97229 0.0
C348 C 0.2031 0.842 0.56588 0.0
C349 C 0.20624 0.83706 0.76325 0.0
H350 H 0.18904 0.81733 0.92849 0.0
C351 C 0.22634 0.85995 0.78374 0.0
C352 C 0.19269 0.82149 0.81605 0.0
C353 C 0.1706 0.797 0.79726 0.0
C354 C 0.23336 0.86759 0.85555 0.0
C355 C 0.21978 0.85204 0.9084 0.0
C356 C 0.1997 0.82913 0.88793 0.0
C357 C 0.22437 0.85982 0.98506 0.0
C358 C 0.25548 0.89207 0.87417 0.0
C359 C 0.22763 0.84574 0.03476 0.0
C360 C 0.22434 0.84852 0.10677 0.0
C361 C 0.21721 0.86502 0.12923 0.0
C362 C 0.21743 0.88133 0.08122 0.0
C363 C 0.22085 0.87867 0.0095 0.0
H364 H 0.26812 0.89828 0.83022 0.0
H365 H 0.24947 0.90539 0.88381 0.0
H366 H 0.26561 0.89188 0.92299 0.0
H367 H 0.23044 0.83114 0.01703 0.0
H368 H 0.22381 0.83541 0.14236 0.0
H369 H 0.26973 0.40613 0.63258 0.0
H370 H 0.26553 0.39325 0.75384 0.0
H371 H 0.20577 0.32314 0.68123 0.0
H372 H 0.2097 0.33626 0.55986 0.0
H373 H 0.19249 0.34693 0.7777 0.0
H374 H 0.27656 0.3499 0.88205 0.0
H375 H 0.28284 0.3766 0.83816 0.0
H376 H 0.26895 0.34801 0.78813 0.0
C377 C 0.25676 0.38748 0.64182 0.0
C378 C 0.24042 0.37206 0.58654 0.0
C379 C 0.25421 0.38016 0.71142 0.0
C380 C 0.23527 0.35723 0.72691 0.0
C381 C 0.22056 0.3409 0.67056 0.0
H382 H 0.17608 0.29545 0.12117 0.0
H383 H 0.17919 0.30608 -0.00243 0.0
C384 C 0.22318 0.34824 0.60077 0.0
C385 C 0.22834 0.35211 0.8016 0.0
H386 H 0.25075 0.35203 0.96842 0.0
C387 C 0.20513 0.34776 0.81929 0.0
C388 C 0.2449 0.35348 0.85604 0.0
C389 C 0.26961 0.35702 0.84014 0.0
C390 C 0.19827 0.34527 0.88999 0.0
C391 C 0.21497 0.347 0.9445 0.0
C392 C 0.23808 0.35112 0.92676 0.0
C393 C 0.20843 0.3429 0.01975 0.0
C394 C 0.1734 0.3413 0.90595 0.0
C395 C 0.22282 0.36046 0.07399 0.0
C396 C 0.22072 0.35447 0.14514 0.0
C397 C 0.20448 0.33074 0.16271 0.0
C398 C 0.18832 0.31402 0.10924 0.0
C399 C 0.19028 0.32003 0.03833 0.0
H400 H 0.16561 0.34705 0.86242 0.0
H401 H 0.16077 0.32179 0.91199 0.0
H402 H 0.17426 0.35127 0.95622 0.0
H403 H 0.23698 0.37822 0.06083 0.0
H404 H 0.23394 0.3675 0.18479 0.0
H405 H 0.41568 0.16343 0.49609 0.0
H406 H 0.40712 0.16129 0.36833 0.0
H407 H 0.33054 0.13171 0.40128 0.0
H408 H 0.33902 0.13459 0.52886 0.0
H409 H 0.37212 0.1303 0.24902 0.0
H410 H 0.35997 0.20514 0.35771 0.0
H411 H 0.37296 0.1911 0.41079 0.0
H412 H 0.34058 0.17591 0.39058 0.0
C413 C 0.39684 0.15524 0.47585 0.0
C414 C 0.3781 0.14975 0.52235 0.0
C415 C 0.39199 0.15406 0.40287 0.0
C416 C 0.36837 0.14716 0.37631 0.0
C417 C 0.34896 0.13747 0.42147 0.0
H418 H 0.31527 0.16999 0.98536 0.0
H419 H 0.3226 0.16936 0.11272 0.0
C420 C 0.35382 0.1388 0.49454 0.0
C421 C 0.36534 0.1555 0.30721 0.0
H422 H 0.35676 0.19869 0.23338 0.0
C423 C 0.36867 0.14516 0.24532 0.0
C424 C 0.36124 0.1752 0.30338 0.0
C425 C 0.35866 0.18769 0.36906 0.0
C426 C 0.36755 0.15375 0.17895 0.0
C427 C 0.36354 0.1735 0.1752 0.0
C428 C 0.36011 0.18377 0.23704 0.0
C429 C 0.36122 0.18241 0.10638 0.0
C430 C 0.37023 0.14137 0.11323 0.0
C431 C 0.38103 0.19239 0.06274 0.0
C432 C 0.37692 0.19279 0.98997 0.0
C433 C 0.35291 0.18306 0.96077 0.0
C434 C 0.33388 0.17719 0.00652 0.0
C435 C 0.33801 0.17671 0.07922 0.0
H436 H 0.3685 0.1237 0.12424 0.0
H437 H 0.35627 0.13838 0.07088 0.0
H438 H 0.38852 0.153 0.09271 0.0
H439 H 0.39917 0.19732 0.08357 0.0
H440 H 0.39198 0.19746 0.95631 0.0
H441 H 0.86765 0.12718 0.4338 0.0
H442 H 0.87514 0.12734 0.30795 0.0
H443 H 0.8276 0.15581 0.26495 0.0
H444 H 0.8197 0.1554 0.3906 0.0
H445 H 0.83154 0.12673 0.14834 0.0
H446 H 0.92041 0.20074 0.2689 0.0
H447 H 0.91009 0.17125 0.30055 0.0
H448 H 0.89321 0.18626 0.31814 0.0
C449 C 0.85759 0.1321 0.3972 0.0
C450 C 0.84379 0.14214 0.42217 0.0
C451 C 0.86216 0.13245 0.32532 0.0
C452 C 0.85271 0.14256 0.27833 0.0
C453 C 0.83541 0.14839 0.30103 0.0
H454 H 0.87899 0.19225 0.85747 0.0
H455 H 0.87274 0.19368 0.98374 0.0
C456 C 0.83081 0.14802 0.37279 0.0
C457 C 0.8642 0.15149 0.21094 0.0
H458 H 0.91689 0.1949 0.14408 0.0
C459 C 0.85018 0.14157 0.14717 0.0
C460 C 0.88846 0.17115 0.21032 0.0
C461 C 0.90394 0.18317 0.27804 0.0
C462 C 0.85997 0.15046 0.0821 0.0
C463 C 0.88421 0.17016 0.08144 0.0
C464 C 0.89825 0.18006 0.14524 0.0
C465 C 0.89565 0.17905 0.01392 0.0
C466 C 0.84448 0.13832 0.01447 0.0
C467 C 0.9129 0.17316 0.99112 0.0
C468 C 0.91699 0.17289 0.91907 0.0
C469 C 0.90362 0.17827 0.86967 0.0
C470 C 0.88976 0.18826 0.89428 0.0
C471 C 0.88579 0.18866 0.96645 0.0
H472 H 0.82816 0.12064 0.0237 0.0
H473 H 0.83807 0.15006 0.99216 0.0
H474 H 0.85527 0.1354 0.97422 0.0
H475 H 0.92092 0.16601 0.02743 0.0
H476 H 0.92787 0.16525 0.90124 0.0
H477 H 0.8684 0.68217 0.39631 0.0
H478 H 0.8726 0.6904 0.27118 0.0
H479 H 0.83125 0.61398 0.21489 0.0
H480 H 0.82637 0.60574 0.33994 0.0
H481 H 0.89995 0.67123 0.21755 0.0
H482 H 0.81688 0.6422 0.04254 0.0
H483 H 0.81813 0.64921 0.13669 0.0
H484 H 0.81332 0.62033 0.10485 0.0
C485 C 0.85855 0.66723 0.35732 0.0
C486 C 0.84732 0.6433 0.37749 0.0
C487 C 0.86127 0.67195 0.28567 0.0
C488 C 0.85263 0.65278 0.23411 0.0
C489 C 0.83794 0.62904 0.25383 0.0
H490 H 0.88399 0.63226 0.81098 0.0
H491 H 0.87946 0.62531 0.93699 0.0
C492 C 0.83516 0.62432 0.3254 0.0
C493 C 0.86412 0.65678 0.16554 0.0
H494 H 0.85172 0.64534 0.98725 0.0
C495 C 0.88947 0.66589 0.167 0.0
C496 C 0.8503 0.64926 0.10022 0.0
C497 C 0.82318 0.6399 0.09575 0.0
C498 C 0.90137 0.66741 0.10457 0.0
C499 C 0.88753 0.65976 0.03933 0.0
C500 C 0.8622 0.65075 0.03781 0.0
C501 C 0.89896 0.66322 0.9708 0.0
C502 C 0.92851 0.67683 0.10891 0.0
C503 C 0.91345 0.68674 0.94929 0.0
C504 C 0.91629 0.69076 0.87732 0.0
C505 C 0.9043 0.67128 0.8266 0.0
C506 C 0.89341 0.64761 0.8489 0.0
C507 C 0.89057 0.6436 0.92097 0.0
H508 H 0.93502 0.67522 0.16268 0.0
H509 H 0.93343 0.66702 0.06927 0.0
H510 H 0.93829 0.6962 0.09751 0.0
H511 H 0.92001 0.70212 0.98697 0.0
H512 H 0.925 0.70917 0.86124 0.0
H513 H 0.23508 0.44234 0.28479 0.0
H514 H 0.20869 0.45722 0.24075 0.0
H515 H 0.15116 0.38417 0.18718 0.0
H516 H 0.17764 0.36916 0.23032 0.0
H517 H 0.17401 0.44682 0.10749 0.0
H518 H 0.13046 0.41383 0.363 0.0
H519 H 0.1607 0.4192 0.34738 0.0
H520 H 0.13444 0.39338 0.30482 0.0
C521 C 0.21731 0.42954 0.2599 0.0
C522 C 0.2084 0.4046 0.26124 0.0
C523 C 0.20214 0.43804 0.23553 0.0
C524 C 0.17782 0.42175 0.21246 0.0
C525 C 0.16983 0.397 0.20555 0.0
H526 H 0.0549 0.44594 0.16254 0.0
H527 H 0.08041 0.42884 0.19655 0.0
C528 C 0.18513 0.38847 0.2292 0.0
C529 C 0.16025 0.43051 0.20566 0.0
H530 H 0.11641 0.43486 0.29502 0.0
C531 C 0.16131 0.44412 0.14815 0.0
C532 C 0.14371 0.4269 0.25894 0.0
C533 C 0.14217 0.41264 0.32239 0.0
C534 C 0.1462 0.45423 0.14234 0.0
C535 C 0.13023 0.45139 0.19697 0.0
C536 C 0.12884 0.43732 0.25378 0.0
C537 C 0.1146 0.46259 0.19471 0.0
C538 C 0.14721 0.4675 0.07693 0.0
C539 C 0.12515 0.48757 0.18885 0.0
C540 C 0.1106 0.49733 0.16951 0.0
C541 C 0.08522 0.48235 0.15719 0.0
C542 C 0.07437 0.45797 0.1729 0.0
C543 C 0.089 0.44811 0.19121 0.0
H544 H 0.1548 0.46218 0.03216 0.0
H545 H 0.12879 0.46405 0.05945 0.0
H546 H 0.15926 0.48718 0.08909 0.0
H547 H 0.14482 0.49923 0.19363 0.0
H548 H 0.11943 0.51612 0.15703 0.0
H549 H 0.5694 0.57035 0.9603 0.0
H550 H 0.58353 0.61306 0.94222 0.0
H551 H 0.64639 0.63426 0.08467 0.0
H552 H 0.6326 0.59212 0.1032 0.0
H553 H 0.61781 0.65774 0.11101 0.0
H554 H 0.64603 0.66182 0.83302 0.0
H555 H 0.61647 0.6376 0.8541 0.0
H556 H 0.64356 0.63876 0.89005 0.0
C557 C 0.58617 0.58413 0.98797 0.0
C558 C 0.59984 0.57774 0.03323 0.0
C559 C 0.59432 0.60849 0.97705 0.0
C560 C 0.61617 0.62678 0.01145 0.0
C561 C 0.62958 0.62043 0.0572 0.0
H562 H 0.71938 0.77514 0.03685 0.0
H563 H 0.69602 0.73294 0.99176 0.0
C564 C 0.6216 0.59625 0.06776 0.0
C565 C 0.62493 0.65272 0.00312 0.0
H566 H 0.65442 0.69847 0.8917 0.0
C567 C 0.62544 0.66661 0.06272 0.0
C568 C 0.63516 0.6642 0.94027 0.0
C569 C 0.63549 0.64999 0.8755 0.0
C570 C 0.63649 0.69177 0.06205 0.0
C571 C 0.64699 0.70341 -0.00054 0.0
C572 C 0.64609 0.68948 0.93918 0.0
C573 C 0.66075 0.73017 -0.0006 0.0
C574 C 0.63784 0.7058 0.12967 0.0
C575 C 0.64877 0.74317 0.01228 0.0
C576 C 0.66209 0.76725 0.03839 0.0
C577 C 0.68757 0.77868 0.0511 0.0
C578 C 0.69979 0.76685 0.02707 0.0
C579 C 0.68641 0.74261 0.00184 0.0
H580 H 0.63295 0.69453 0.1764 0.0
H581 H 0.6565 0.72159 0.14042 0.0
H582 H 0.62491 0.71258 0.12394 0.0
H583 H 0.62899 0.73399 0.00975 0.0
H584 H 0.65223 0.77594 0.05666 0.0
H585 H 0.48776 0.96725 0.14878 0.0
H586 H 0.44823 0.94641 0.20344 0.0
H587 H 0.42704 0.88341 0.06409 0.0
H588 H 0.46691 0.90255 0.01813 0.0
H589 H 0.40813 0.93537 0.15426 0.0
H590 H 0.39411 0.84728 0.21897 0.0
H591 H 0.42373 0.87094 0.19712 0.0
H592 H 0.40178 0.85031 0.12836 0.0
C593 C 0.47517 0.94844 0.13332 0.0
C594 C 0.48053 0.93668 0.07868 0.0
C595 C 0.45228 0.93662 0.16348 0.0
C596 C 0.43422 0.91305 0.13851 0.0
C597 C 0.44045 0.90104 0.08719 0.0
H598 H 0.27971 0.87422 0.1762 0.0
H599 H 0.31914 0.8874 0.12336 0.0
C600 C 0.46347 0.9123 0.05987 0.0
C601 C 0.4082 0.90191 0.1588 0.0
H602 H 0.35723 0.84742 0.1784 0.0
C603 C 0.39719 0.91622 0.16179 0.0
C604 C 0.39354 0.87694 0.16941 0.0
C605 C 0.4041 0.86068 0.17913 0.0
C606 C 0.37227 0.9064 0.17473 0.0
C607 C 0.35714 0.88102 0.17852 0.0
C608 C 0.36825 0.86678 0.17463 0.0
C609 C 0.33071 0.86904 0.19594 0.0
C610 C 0.36304 0.92371 0.18704 0.0
C611 C 0.32232 0.8516 0.24694 0.0
C612 C 0.29918 0.84257 0.27235 0.0
C613 C 0.28406 0.85164 0.25084 0.0
C614 C 0.29103 0.86705 0.19442 0.0
C615 C 0.31401 0.87523 0.16596 0.0
H616 H 0.37819 0.94218 0.20342 0.0
H617 H 0.35422 0.92496 0.13693 0.0
H618 H 0.34963 0.91773 0.22892 0.0
H619 H 0.33419 0.84597 0.2713 0.0
H620 H 0.29419 0.83033 0.31494 0.0
H621 H 0.46093 0.99485 0.85464 0.0
H622 H 0.44371 0.02113 0.84525 0.0
H623 H 0.5054 0.07732 0.97116 0.0
H624 H 0.52283 0.05105 0.9817 0.0
H625 H 0.45974 0.06969 0.01249 0.0
H626 H 0.46874 0.07984 0.72301 0.0
H627 H 0.45338 0.04891 0.74583 0.0
H628 H 0.48487 0.06862 0.77517 0.0
C629 C 0.47094 0.01278 0.88028 0.0
C630 C 0.49336 0.02083 0.91858 0.0
C631 C 0.46111 0.02784 0.87455 0.0
C632 C 0.4735 0.05128 0.90652 0.0
C633 C 0.49567 0.05933 0.94571 0.0
H634 H 0.4225 0.15021 0.79733 0.0
H635 H 0.44932 0.13413 0.82412 0.0
C636 C 0.50557 0.04427 0.95148 0.0
C637 C 0.46293 0.06709 0.8997 0.0
H638 H 0.4417 0.09074 0.7766 0.0
C639 C 0.45604 0.07458 0.96107 0.0
C640 C 0.45859 0.07382 0.8327 0.0
C641 C 0.467 0.0676 0.76547 0.0
C642 C 0.44378 0.08764 0.95677 0.0
C643 C 0.43795 0.09292 0.88927 0.0
C644 C 0.44593 0.08644 0.82829 0.0
C645 C 0.42257 0.10405 0.87989 0.0
C646 C 0.43711 0.09555 0.02446 0.0
C647 C 0.39865 0.09253 0.90271 0.0
C648 C 0.38325 0.10168 0.88768 0.0
C649 C 0.39139 0.12238 0.84869 0.0
C650 C 0.41555 0.13415 0.82717 0.0
C651 C 0.43096 0.12504 0.84252 0.0
H652 H 0.44939 0.09716 0.07026 0.0
H653 H 0.43798 0.11314 0.01966 0.0
H654 H 0.41818 0.08186 0.0361 0.0
H655 H 0.39159 0.07598 0.93013 0.0
H656 H 0.36476 0.09209 0.90488 0.0
H657 H 0.91045 0.21817 0.75583 0.0
H658 H 0.92864 0.25005 0.85048 0.0
H659 H 0.88258 0.27739 0.77641 0.0
H660 H 0.8626 0.24396 0.6881 0.0
H661 H 0.95605 0.29213 0.82985 0.0
H662 H 0.88475 0.29622 0.97428 0.0
H663 H 0.87801 0.26983 0.91935 0.0
H664 H 0.8764 0.2946 0.88209 0.0
C665 C 0.90283 0.22974 0.76364 0.0
C666 C 0.88439 0.2279 0.71627 0.0
C667 C 0.91372 0.24851 0.81675 0.0
C668 C 0.90701 0.26635 0.82181 0.0
C669 C 0.88769 0.26367 0.77643 0.0
H670 H 0.00995 0.41588 0.85539 0.0
H671 H 0.98344 0.3727 0.82819 0.0
C672 C 0.87632 0.24453 0.72513 0.0
C673 C 0.92275 0.2897 0.8641 0.0
H674 H 0.92066 0.33596 0.95253 0.0
C675 C 0.94819 0.30132 0.85826 0.0
C676 C 0.91306 0.30192 0.90328 0.0
C677 C 0.88657 0.28976 0.92071 0.0
C678 C 0.96376 0.32512 0.88541 0.0
C679 C 0.95362 0.33839 0.91579 0.0
C680 C 0.92849 0.32624 0.92696 0.0
C681 C 0.96857 0.36502 0.93209 0.0
C682 C 0.99095 0.3357 0.88064 0.0
C683 C 0.96787 0.37564 -0.00214 0.0
C684 C 0.98244 0.40067 0.01254 0.0
C685 C 0.99821 0.4154 0.96207 0.0
C686 C 0.99832 0.40488 0.89577 0.0
C687 C 0.98334 0.3801 0.8805 0.0
H688 H 0.99597 0.3215 0.88449 0.0
H689 H 0.99642 0.34355 0.8283 0.0
H690 H 1.00151 0.34997 0.92328 0.0
H691 H 0.95642 0.36453 0.03835 0.0
H692 H 0.98201 0.40837 0.06407 0.0
H693 H 0.79548 0.6416 0.77153 0.0
H694 H 0.7541 0.61081 0.79443 0.0
H695 H 0.75744 0.56172 0.63995 0.0
H696 H 0.79937 0.59279 0.61583 0.0
H697 H 0.7115 0.5642 0.6344 0.0
H698 H 0.73792 0.54955 0.90271 0.0
H699 H 0.74926 0.58074 0.88695 0.0
H700 H 0.75982 0.56391 0.83619 0.0
C701 C 0.78762 0.62432 0.74207 0.0
C702 C 0.80103 0.61975 0.69194 0.0
C703 C 0.76384 0.60667 0.75545 0.0
C704 C 0.75271 0.58389 0.71942 0.0
C705 C 0.76572 0.57919 0.66847 0.0
H706 H 0.62419 0.47695 0.91809 0.0
H707 H 0.65929 0.49253 0.844 0.0
C708 C 0.78972 0.59694 0.65504 0.0
C709 C 0.72773 0.56512 0.73726 0.0
H710 H 0.69564 0.5354 0.87791 0.0
C711 C 0.70799 0.55752 0.68723 0.0
C712 C 0.72316 0.55622 0.80587 0.0
C713 C 0.74367 0.56282 0.8609 0.0
C714 C 0.68369 0.54212 0.70524 0.0
C715 C 0.67903 0.5344 0.77537 0.0
C716 C 0.69898 0.54122 0.82412 0.0
C717 C 0.65391 0.52054 0.80187 0.0
C718 C 0.6633 0.53441 0.64907 0.0
C719 C 0.63805 0.52991 0.79933 0.0
C720 C 0.61749 0.5205 0.8404 0.0
C721 C 0.61275 0.50191 0.88576 0.0
C722 C 0.62725 0.49109 0.88302 0.0
C723 C 0.64749 0.5002 0.84117 0.0
H724 H 0.66978 0.53435 0.59511 0.0
H725 H 0.64774 0.51616 0.65744 0.0
H726 H 0.65665 0.54742 0.65109 0.0
H727 H 0.64268 0.54585 0.7708 0.0
H728 H 0.607 0.52957 0.84269 0.0
H729 H 0.85372 0.56068 0.62516 0.0
H730 H 0.86868 0.54032 0.70132 0.0
H731 H 0.92792 0.6093 0.78402 0.0
H732 H 0.91279 0.62971 0.70781 0.0
H733 H 0.91657 0.54932 0.67386 0.0
H734 H 0.90815 0.56686 0.95931 0.0
H735 H 0.88904 0.56867 0.88954 0.0
H736 H 0.92018 0.59244 0.90499 0.0
C737 C 0.86905 0.57149 0.66282 0.0
C738 C 0.88185 0.59675 0.66158 0.0
C739 C 0.87782 0.55984 0.70551 0.0
C740 C 0.89954 0.57325 0.74785 0.0
C741 C 0.91099 0.59856 0.7523 0.0
H742 H 1.00109 0.52559 0.88644 0.0
H743 H 0.9819 0.54451 0.81971 0.0
C744 C 0.90214 0.61026 0.70944 0.0
C745 C 0.91195 0.56083 0.77791 0.0
H746 H 0.93048 0.5474 0.93282 0.0
C747 C 0.91962 0.54889 0.73053 0.0
C748 C 0.916 0.56039 0.85167 0.0
C749 C 0.90781 0.57261 0.90466 0.0
C750 C 0.93105 0.53637 0.75498 0.0
C751 C 0.93501 0.53583 0.82874 0.0
C752 C 0.92747 0.54789 0.87617 0.0
C753 C 0.94594 0.52202 0.85835 0.0
C754 C 0.93834 0.52334 0.70198 0.0
C755 C 0.9319 0.50246 0.8995 0.0
C756 C 0.94271 0.49153 0.93685 0.0
C757 C 0.9679 0.50006 0.93443 0.0
C758 C 0.9816 0.51838 0.88861 0.0
C759 C 0.97069 0.52936 0.85101 0.0
H760 H 0.93038 0.52214 0.64765 0.0
H761 H 0.95854 0.53316 0.70023 0.0
H762 H 0.93244 0.50483 0.71819 0.0
H763 H 0.91275 0.49637 0.90541 0.0
H764 H 0.93165 0.47745 0.97165 0.0
H765 H 0.46779 0.40388 0.99055 0.0
H766 H 0.45577 0.36151 0.99246 0.0
H767 H 0.53145 0.38101 0.01663 0.0
H768 H 0.54381 0.42388 0.01456 0.0
H769 H 0.50544 0.34822 0.9031 0.0
H770 H 0.45393 0.31705 0.14478 0.0
H771 H 0.44437 0.33402 0.09283 0.0
H772 H 0.47503 0.34854 0.13233 0.0
C773 C 0.48197 0.39929 -0.0028 0.0
C774 C 0.50682 0.41734 0.00175 0.0
C775 C 0.475 0.37499 -0.00075 0.0
C776 C 0.49266 0.36805 0.006 0.0
C777 C 0.5175 0.38599 0.01236 0.0
H778 H 0.46065 0.22622 0.84222 0.0
H779 H 0.48078 0.26112 0.92768 0.0
C780 C 0.52454 0.41046 0.01096 0.0
C781 C 0.48499 0.3421 -0.00366 0.0
H782 H 0.44388 0.28637 0.05036 0.0
C783 C 0.4925 0.33468 0.93633 0.0
C784 C 0.46795 0.32449 0.03951 0.0
C785 C 0.46003 0.33144 0.10638 0.0
C786 C 0.48209 0.31017 0.9151 0.0
C787 C 0.46418 0.29246 0.95653 0.0
C788 C 0.45766 0.29987 0.01887 0.0
C789 C 0.44989 0.26671 0.93003 0.0
C790 C 0.48905 0.30368 0.84538 0.0
C791 C 0.42496 0.25654 0.91019 0.0
C792 C 0.41318 0.23606 0.86341 0.0
C793 C 0.42627 0.22566 0.83576 0.0
C794 C 0.45009 0.23375 0.8636 0.0
C795 C 0.46173 0.25396 0.91147 0.0
H796 H 0.49941 0.31966 0.81364 0.0
H797 H 0.50077 0.29575 0.85588 0.0
H798 H 0.47254 0.29019 0.81285 0.0
H799 H 0.41535 0.26592 0.92434 0.0
H800 H 0.39495 0.23043 0.84171 0.0
H801 H 0.80161 0.14807 0.654 0.0
H802 H 0.75938 0.13784 0.671 0.0
H803 H 0.75225 0.08581 0.82064 0.0
H804 H 0.7943 0.09591 0.80465 0.0
H805 H 0.71448 0.0914 0.65206 0.0
H806 H 0.733 0.13039 0.92906 0.0
H807 H 0.75698 0.13754 0.86887 0.0
H808 H 0.74392 0.1098 0.91342 0.0
C809 C 0.79111 0.13451 0.69075 0.0
C810 C 0.80148 0.12293 0.7283 0.0
C811 C 0.76694 0.12862 0.70009 0.0
C812 C 0.75279 0.11124 0.74754 0.0
C813 C 0.76297 0.0995 0.78443 0.0
H814 H 0.60367 0.02302 0.82878 0.0
H815 H 0.64159 0.04204 0.7673 0.0
C816 C 0.78704 0.10529 0.77505 0.0
C817 C 0.72745 0.10541 0.75975 0.0
H818 H 0.69127 0.10375 0.89154 0.0
C819 C 0.70937 0.09437 0.70411 0.0
C820 C 0.72093 0.10971 0.82726 0.0
C821 C 0.73975 0.12273 0.88795 0.0
C822 C 0.68467 0.08639 0.71534 0.0
C823 C 0.67795 0.08931 0.78415 0.0
C824 C 0.69629 0.10141 0.83872 0.0
C825 C 0.65209 0.07854 0.80334 0.0
C826 C 0.66606 0.07482 0.65359 0.0
C827 C 0.64471 0.0927 0.84167 0.0
C828 C 0.62314 0.08179 0.87759 0.0
C829 C 0.60845 0.05653 0.87547 0.0
C830 C 0.6144 0.04253 0.83064 0.0
C831 C 0.63619 0.05345 0.79539 0.0
H832 H 0.6745 0.0815 0.60244 0.0
H833 H 0.65856 0.05502 0.65151 0.0
H834 H 0.65071 0.07831 0.65893 0.0
H835 H 0.65659 0.11209 0.84837 0.0
H836 H 0.61898 0.09302 0.91172 0.0
H837 H 0.58463 0.95557 0.957 0.0
H838 H 0.60654 0.9334 0.97129 0.0
H839 H 0.63861 0.97224 0.17324 0.0
H840 H 0.61775 0.99505 0.15762 0.0
H841 H 0.67233 0.9736 0.09763 0.0
H842 H 0.59653 0.87878 0.08787 0.0
H843 H 0.59596 0.89404 0.01071 0.0
H844 H 0.59147 0.90397 0.09635 0.0
C845 C 0.59612 0.95908 0.00477 0.0
C846 C 0.59963 0.97712 0.05595 0.0
C847 C 0.60851 0.9463 0.01318 0.0
C848 C 0.62407 0.95092 0.07379 0.0
C849 C 0.6268 0.96836 0.12594 0.0
H850 H 0.69382 0.86921 0.19977 0.0
H851 H 0.66631 0.88544 0.18606 0.0
C852 C 0.61487 0.98141 0.11692 0.0
C853 C 0.63911 0.93921 0.08097 0.0
H854 H 0.63675 0.88484 0.07919 0.0
C855 C 0.66446 0.95416 0.094 0.0
C856 C 0.6289 0.91386 0.07718 0.0
C857 C 0.6017 0.89672 0.06801 0.0
C858 C 0.67987 0.94459 0.10298 0.0
C859 C 0.66985 0.91928 0.09585 0.0
C860 C 0.64447 0.90425 0.08367 0.0
C861 C 0.68552 0.90825 0.10125 0.0
C862 C 0.70668 0.96176 0.12178 0.0
C863 C 0.70505 0.91516 0.05695 0.0
C864 C 0.72098 0.90628 0.06548 0.0
C865 C 0.71739 0.8898 0.11742 0.0
C866 C 0.69712 0.88195 0.15947 0.0
C867 C 0.68137 0.89118 0.15162 0.0
H868 H 0.70986 0.97907 0.14697 0.0
H869 H 0.71433 0.95379 0.15859 0.0
H870 H 0.71686 0.96593 0.07263 0.0
H871 H 0.70817 0.9277 0.0162 0.0
H872 H 0.73614 0.91234 0.0313 0.0
H873 H 0.15287 0.7677 0.15237 0.0
H874 H 0.13405 0.72418 0.1318 0.0
H875 H 0.16335 0.71991 0.33652 0.0
H876 H 0.18294 0.76407 0.35704 0.0
H877 H 0.16369 0.68778 0.2254 0.0
H878 H 0.0732 0.68074 0.2389 0.0
H879 H 0.09175 0.70108 0.17463 0.0
H880 H 0.1013 0.70789 0.26743 0.0
C881 C 0.15555 0.75759 0.19292 0.0
C882 C 0.16904 0.76925 0.25693 0.0
C883 C 0.14476 0.73269 0.18101 0.0
C884 C 0.14678 0.71873 0.23326 0.0
C885 C 0.16142 0.73037 0.29569 0.0
H886 H 0.03787 0.56712 0.23527 0.0
H887 H 0.06638 0.6096 0.26662 0.0
C888 C 0.17259 0.75554 0.30737 0.0
C889 C 0.13209 0.69199 0.22377 0.0
H890 H 0.07332 0.64583 0.19357 0.0
C891 C 0.14391 0.67851 0.21909 0.0
C892 C 0.10627 0.67988 0.21649 0.0
C893 C 0.09234 0.69309 0.22532 0.0
C894 C 0.13057 0.65327 0.20534 0.0
C895 C 0.10478 0.64135 0.19467 0.0
C896 C 0.09306 0.65489 0.20103 0.0
C897 C 0.08924 0.61483 0.17852 0.0
C898 C 0.14418 0.63964 0.20343 0.0
C899 C 0.09263 0.60333 0.11878 0.0
C900 C 0.07637 0.57874 0.10103 0.0
C901 C 0.05614 0.56539 0.14185 0.0
C902 C 0.05306 0.5769 0.20207 0.0
C903 C 0.06943 0.60124 0.22028 0.0
H904 H 0.16229 0.64994 0.23287 0.0
H905 H 0.13356 0.6218 0.22645 0.0
H906 H 0.14733 0.63663 0.14747 0.0
H907 H 0.10739 0.61349 0.08461 0.0
H908 H 0.07919 0.57042 0.05419 0.0
H909 H 0.47405 0.5104 0.10018 0.0
H910 H 0.43965 0.49351 0.17502 0.0
H911 H 0.47091 0.45743 0.28904 0.0
H912 H 0.50461 0.47288 0.20931 0.0
H913 H 0.42857 0.42624 0.25087 0.0
H914 H 0.41772 0.5002 0.35927 0.0
H915 H 0.42017 0.50344 0.26576 0.0
H916 H 0.44553 0.50596 0.31969 0.0
C917 C 0.47416 0.49965 0.14305 0.0
C918 C 0.49222 0.49311 0.14878 0.0
C919 C 0.45439 0.49005 0.18657 0.0
C920 C 0.45243 0.47418 0.23873 0.0
C921 C 0.47181 0.46959 0.24935 0.0
H922 H 0.30634 0.40303 0.42124 0.0
H923 H 0.35066 0.4296 0.41226 0.0
C924 C 0.49145 0.47885 0.20457 0.0
C925 C 0.42852 0.45945 0.27213 0.0
H926 H 0.37908 0.46188 0.32924 0.0
C927 C 0.4181 0.43423 0.26966 0.0
C928 C 0.41463 0.46945 0.29867 0.0
C929 C 0.42532 0.49628 0.31173 0.0
C930 C 0.39392 0.4189 0.28767 0.0
C931 C 0.37908 0.42882 0.30538 0.0
C932 C 0.39001 0.45405 0.3134 0.0
C933 C 0.35207 0.41331 0.31134 0.0
C934 C 0.38461 0.39215 0.28697 0.0
C935 C 0.33781 0.39585 0.25683 0.0
C936 C 0.31278 0.38046 0.26265 0.0
C937 C 0.30104 0.3826 0.32202 0.0
C938 C 0.31491 0.40093 0.37494 0.0
C939 C 0.34024 0.41607 0.36985 0.0
H940 H 0.39965 0.38864 0.30105 0.0
H941 H 0.37001 0.38306 0.32466 0.0
H942 H 0.37725 0.38394 0.23265 0.0
H943 H 0.34606 0.39397 0.20953 0.0
H944 H 0.30253 0.36683 0.22027 0.0
H945 H 0.90028 0.74375 0.53482 0.0
H946 H 0.88754 0.7613 0.44113 0.0
H947 H 0.81718 0.69608 0.41785 0.0
H948 H 0.83033 0.67825 0.50934 0.0
H949 H 0.8303 0.71903 0.29147 0.0
H950 H 0.8425 0.78353 0.51515 0.0
H951 H 0.86993 0.78383 0.49289 0.0
H952 H 0.84533 0.75736 0.52783 0.0
C953 C 0.88261 0.73275 0.50682 0.0
C954 C 0.86638 0.70959 0.52834 0.0
C955 C 0.87518 0.7429 0.45413 0.0
C956 C 0.85111 0.73031 0.42412 0.0
C957 C 0.83577 0.70623 0.44053 0.0
H958 H 0.74037 0.75424 0.25127 0.0
H959 H 0.76682 0.73844 0.28501 0.0
C960 C 0.84335 0.69595 0.49243 0.0
C961 C 0.84071 0.7431 0.38477 0.0
H962 H 0.82633 0.78749 0.40679 0.0
C963 C 0.82967 0.73417 0.31634 0.0
C964 C 0.83966 0.76276 0.41748 0.0
C965 C 0.84977 0.77235 0.49256 0.0
C966 C 0.81738 0.74417 0.28026 0.0
C967 C 0.81593 0.76345 0.31371 0.0
C968 C 0.82765 0.77286 0.38099 0.0
C969 C 0.80045 0.77269 0.28358 0.0
C970 C 0.80584 0.73387 0.20695 0.0
C971 C 0.8105 0.79729 0.27167 0.0
C972 C 0.79535 0.80649 0.25243 0.0
C973 C 0.76981 0.79129 0.24594 0.0
C974 C 0.75992 0.76653 0.256 0.0
C975 C 0.77507 0.75737 0.27463 0.0
H976 H 0.81465 0.72471 0.18055 0.0
H977 H 0.78625 0.7203 0.21119 0.0
H978 H 0.80701 0.74816 0.17304 0.0
H979 H 0.83004 0.8095 0.27903 0.0
H980 H 0.80359 0.82563 0.24537 0.0
H981 H 0.34644 0.10617 0.66099 0.0
H982 H 0.33561 0.0739 0.57044 0.0
H983 H 0.26565 0.06849 0.52948 0.0
H984 H 0.27633 0.1004 0.62222 0.0
H985 H 0.25983 0.02781 0.56953 0.0
H986 H 0.32672 0.05679 0.36255 0.0
H987 H 0.34216 0.06533 0.44883 0.0
H988 H 0.32395 0.07817 0.42052 0.0
C989 C 0.32936 0.0991 0.62966 0.0
C990 C 0.31243 0.10615 0.64719 0.0
C991 C 0.3231 0.08051 0.57783 0.0
C992 C 0.29982 0.06874 0.54242 0.0
C993 C 0.28376 0.07734 0.55565 0.0
H994 H 0.2256 0.91865 0.35683 0.0
H995 H 0.23586 0.96075 0.37647 0.0
C996 C 0.28993 0.09573 0.60813 0.0
C997 C 0.29064 0.04482 0.50397 0.0
H998 H 0.30656 0.01399 0.3867 0.0
C999 C 0.2697 0.02492 0.52811 0.0
C1000 C 0.30353 0.04089 0.45023 0.0
C1001 C 0.32518 0.06151 0.41859 0.0
C1002 C 0.26219 0.00122 0.50337 0.0
C1003 C 0.27585 0.99722 0.45256 0.0
C1004 C 0.29615 0.0171 0.42587 0.0
C1005 C 0.27066 0.97245 0.43246 0.0
C1006 C 0.24053 0.98054 0.53495 0.0
C1007 C 0.28708 0.96523 0.45581 0.0
C1008 C 0.28126 0.94124 0.44502 0.0
C1009 C 0.2589 0.92391 0.41019 0.0
C1010 C 0.2429 0.93144 0.38419 0.0
C1011 C 0.24872 0.95549 0.39536 0.0
H1012 H 0.23413 0.98661 0.58112 0.0
H1013 H 0.22519 0.97156 0.49407 0.0
H1014 H 0.24519 0.96693 0.55231 0.0
H1015 H 0.30408 0.97801 0.48465 0.0
H1016 H 0.29418 0.93624 0.46524 0.0
H1017 H 0.95529 0.1859 0.62831 0.0
H1018 H 0.99873 0.20474 0.60395 0.0
H1019 H 0.98616 0.2359 0.42013 0.0
H1020 H 0.94303 0.21678 0.44252 0.0
H1021 H 0.01828 0.22067 0.39506 0.0
H1022 H 0.04463 0.27636 0.64957 0.0
H1023 H 0.02831 0.2443 0.65767 0.0
H1024 H 0.01329 0.25843 0.61571 0.0
C1025 C 0.96172 0.19643 0.58206 0.0
C1026 C 0.94568 0.20013 0.53816 0.0
C1027 C 0.9866 0.20736 0.56853 0.0
C1028 C 0.99585 0.22224 0.51113 0.0
C1029 C 0.97956 0.22469 0.46502 0.0
H1030 H 0.13392 0.347 0.45418 0.0
H1031 H 0.09194 0.31639 0.47408 0.0
C1032 C 0.95483 0.21379 0.47826 0.0
C1033 C 0.02252 0.23659 0.50058 0.0
H1034 H 0.07607 0.28349 0.5746 0.0
C1035 C 0.03101 0.23424 0.43458 0.0
C1036 C 0.03905 0.25453 0.55184 0.0
C1037 C 0.03093 0.2588 0.62248 0.0
C1038 C 0.05533 0.24972 0.41772 0.0
C1039 C 0.07177 0.26777 0.4688 0.0
C1040 C 0.06347 0.26963 0.53552 0.0
C1041 C 0.0972 0.28602 0.45297 0.0
C1042 C 0.06285 0.24732 0.34424 0.0
C1043 C 0.11421 0.27921 0.43384 0.0
C1044 C 0.1383 0.29675 0.4217 0.0
C1045 C 0.14595 0.32149 0.4294 0.0
C1046 C 0.12877 0.32818 0.44794 0.0
C1047 C 0.10472 0.31066 0.45951 0.0
H1048 H 0.04679 0.23654 0.30646 0.0
H1049 H 0.07445 0.26532 0.3231 0.0
H1050 H 0.07361 0.23805 0.34666 0.0
H1051 H 0.10902 0.26035 0.4298 0.0
H1052 H 0.15108 0.29093 0.40821 0.0
H1053 H 0.31315 0.18879 0.72003 0.0
H1054 H 0.28589 0.20492 0.70111 0.0
H1055 H 0.33666 0.25646 0.56269 0.0
H1056 H 0.36407 0.24047 0.5808 0.0
H1057 H 0.29634 0.25474 0.72549 0.0
H1058 H 0.27003 0.21922 0.4447 0.0
H1059 H 0.28403 0.20815 0.50601 0.0
H1060 H 0.3024 0.23625 0.46584 0.0
C1061 C 0.31853 0.20348 0.68522 0.0
C1062 C 0.34079 0.21322 0.65151 0.0
C1063 C 0.30297 0.21276 0.67493 0.0
C1064 C 0.30925 0.23176 0.63034 0.0
C1065 C 0.33143 0.24163 0.5969 0.0
H1066 H 0.26144 0.33056 0.54213 0.0
H1067 H 0.27827 0.30963 0.6082 0.0
C1068 C 0.34706 0.23245 0.60732 0.0
C1069 C 0.29238 0.24099 0.61719 0.0
H1070 H 0.25874 0.24742 0.48479 0.0
C1071 C 0.28787 0.25299 0.67311 0.0
C1072 C 0.28112 0.23831 0.54914 0.0
C1073 C 0.2844 0.2246 0.48802 0.0
C1074 C 0.27301 0.26319 0.66188 0.0
C1075 C 0.26265 0.26144 0.59294 0.0
C1076 C 0.2666 0.24874 0.53779 0.0
C1077 C 0.24892 0.27375 0.57422 0.0
C1078 C 0.2686 0.27576 0.72367 0.0
C1079 C 0.22616 0.26061 0.53645 0.0
C1080 C 0.21677 0.27255 0.49784 0.0
C1081 C 0.22986 0.29781 0.4971 0.0
C1082 C 0.25091 0.31106 0.54242 0.0
C1083 C 0.26055 0.29907 0.58024 0.0
H1084 H 0.27089 0.26896 0.77499 0.0
H1085 H 0.28209 0.29536 0.72482 0.0
H1086 H 0.24999 0.27334 0.71883 0.0
H1087 H 0.21681 0.24108 0.53137 0.0
H1088 H 0.20049 0.26198 0.46324 0.0
H1089 H 0.83837 0.92297 0.28682 0.0
H1090 H 0.85425 0.9618 0.35273 0.0
H1091 H 0.78232 0.93959 0.42279 0.0
H1092 H 0.76617 0.90053 0.35629 0.0
H1093 H 0.83204 0.99153 0.31289 0.0
H1094 H 0.83207 0.97583 0.60127 0.0
H1095 H 0.83388 0.95603 0.53445 0.0
H1096 H 0.80548 0.95511 0.54568 0.0
C1097 C 0.82608 0.92594 0.31855 0.0
C1098 C 0.80097 0.9087 0.31599 0.0
C1099 C 0.83515 0.94825 0.35561 0.0
C1100 C 0.81941 0.95371 0.39168 0.0
C1101 C 0.79478 0.93571 0.39524 0.0
H1102 H 0.83968 0.09346 0.53364 0.0
H1103 H 0.82695 0.05651 0.45921 0.0
C1104 C 0.78562 0.91327 0.35787 0.0
C1105 C 0.82837 0.97896 0.41861 0.0
H1106 H 0.84389 0.01532 0.57011 0.0
C1107 C 0.83456 0.99676 0.36915 0.0
C1108 C 0.83165 0.98568 0.49185 0.0
C1109 C 0.82558 0.96729 0.54679 0.0
C1110 C 0.84407 0.02117 0.39117 0.0
C1111 C 0.84757 0.02791 0.46442 0.0
C1112 C 0.84123 0.01008 0.51384 0.0
C1113 C 0.85822 0.05339 0.49183 0.0
C1114 C 0.85082 0.03969 0.33634 0.0
C1115 C 0.88074 0.06471 0.53099 0.0
C1116 C 0.88816 0.08596 0.57244 0.0
C1117 C 0.87313 0.09616 0.57584 0.0
C1118 C 0.85195 0.08638 0.53042 0.0
C1119 C 0.84448 0.06503 0.48871 0.0
H1120 H 0.85001 0.03205 0.28193 0.0
H1121 H 0.83801 0.04671 0.33699 0.0
H1122 H 0.86952 0.05518 0.34918 0.0
H1123 H 0.89163 0.05607 0.53406 0.0
H1124 H 0.90426 0.09281 0.60819 0.0
H1125 H 0.94757 0.71936 0.60417 0.0
H1126 H 0.98984 0.75221 0.59724 0.0
H1127 H 0.00263 0.70877 0.44499 0.0
H1128 H 0.96056 0.67598 0.45097 0.0
H1129 H 0.03512 0.75242 0.62378 0.0
H1130 H 0.02313 0.772 0.34631 0.0
H1131 H 0.99761 0.75437 0.39969 0.0
H1132 H 0.01326 0.74084 0.35788 0.0
C1133 C 0.95931 0.7168 0.5689 0.0
C1134 C 0.95049 0.69499 0.52774 0.0
C1135 C 0.98352 0.73558 0.56532 0.0
C1136 C 0.99934 0.73303 0.52013 0.0
C1137 C 0.99067 0.71127 0.47951 0.0
H1138 H 0.15424 0.80682 0.47789 0.0
H1139 H 0.11412 0.7831 0.52608 0.0
C1140 C 0.96655 0.6925 0.48314 0.0
C1141 C 0.02484 0.7531 0.51441 0.0
H1142 H 0.06393 0.78961 0.3947 0.0
C1143 C 0.04142 0.76077 0.57394 0.0
C1144 C 0.03297 0.7642 0.44969 0.0
C1145 C 0.01579 0.75764 0.38487 0.0
C1146 C 0.06614 0.77867 0.56965 0.0
C1147 C 0.0745 0.78897 0.50394 0.0
C1148 C 0.05765 0.78177 0.44518 0.0
C1149 C 0.10067 0.80646 0.49281 0.0
C1150 C 0.08302 0.78638 0.63546 0.0
C1151 C 0.10702 0.82812 0.46083 0.0
C1152 C 0.1299 0.8416 0.43277 0.0
C1153 C 0.14697 0.83376 0.43633 0.0
C1154 C 0.14166 0.81357 0.47527 0.0
C1155 C 0.11859 0.79989 0.5027 0.0
H1156 H 0.07275 0.78288 0.68441 0.0
H1157 H 0.09254 0.77586 0.63625 0.0
H1158 H 0.09702 0.80584 0.63644 0.0
H1159 H 0.0936 0.83366 0.45283 0.0
H1160 H 0.13344 0.85703 0.40288 0.0
loop_
_geom_bond_atom_site_label_1
_geom_bond_atom_site_label_2
_geom_bond_distance
_geom_bond_site_symmetry_2
_ccdc_geom_bond_type
O0 Mn1 2.163 . S
O0 C14 1.244 . S
Mn1 O0 2.163 . S
Mn1 O4 2.160 1_455 S
Mn1 O5 2.221 1_554 S
Mn1 O7 2.163 . S
Mn1 O9 2.160 1_455 S
Mn1 O19 2.221 . S
O2 Mn3 2.087 . S
O2 C14 1.256 . S
Mn3 O2 2.087 . S
Mn3 O10 2.089 1_455 S
Mn3 O19 2.290 . S
Mn3 O20 2.251 . S
O4 Mn1 2.160 1_655 S
O4 C15 1.239 . S
O5 Mn1 2.221 1_556 S
O5 Mn6 2.290 . S
O5 C16 1.278 . S
Mn6 O5 2.290 . S
Mn6 O8 2.089 . S
Mn6 O11 2.251 . S
Mn6 O12 2.087 1_556 S
O7 Mn1 2.163 . S
O7 C17 1.244 . S
O8 Mn6 2.089 . S
O8 C15 1.256 1_456 S
O9 Mn1 2.160 1_655 S
O9 C18 1.239 . S
O10 Mn3 2.089 1_655 S
O10 C18 1.256 . S
O11 Mn6 2.251 . S
O11 C16 1.241 . S
O12 Mn6 2.087 1_554 S
O12 C17 1.256 . S
C13 O19 1.278 . S
C13 O20 1.241 . S
C14 O0 1.244 . S
C14 O2 1.256 . S
C15 O4 1.239 . S
C15 O8 1.256 1_654 S
C16 O5 1.278 . S
C16 O11 1.241 . S
C17 O7 1.244 . S
C17 O12 1.256 . S
C18 O9 1.239 . S
C18 O10 1.256 . S
O19 Mn1 2.221 . S
O19 Mn3 2.290 . S
O19 C13 1.278 . S
O20 Mn3 2.251 . S
O20 C13 1.241 . S
O21 Mn22 2.163 . S
O21 C35 1.244 . S
Mn22 O21 2.163 . S
Mn22 O25 2.160 . S
Mn22 O26 2.221 . S
Mn22 O28 2.163 . S
Mn22 O30 2.160 . S
Mn22 O40 2.221 1_554 S
O23 Mn24 2.087 . S
O23 C35 1.256 1_556 S
Mn24 O23 2.087 . S
Mn24 O31 2.089 1_556 S
Mn24 O40 2.290 . S
Mn24 O41 2.251 . S
O25 Mn22 2.160 . S
O25 C36 1.239 . S
O26 Mn22 2.221 . S
O26 Mn27 2.290 . S
O26 C37 1.278 . S
Mn27 O26 2.290 . S
Mn27 O29 2.089 . S
Mn27 O32 2.251 . S
Mn27 O33 2.087 . S
O28 Mn22 2.163 . S
O28 C38 1.244 . S
O29 Mn27 2.089 . S
O29 C36 1.256 . S
O30 Mn22 2.160 . S
O30 C39 1.239 . S
O31 Mn24 2.089 1_554 S
O31 C39 1.256 . S
O32 Mn27 2.251 . S
O32 C37 1.241 . S
O33 Mn27 2.087 . S
O33 C38 1.256 . S
C34 O40 1.278 . S
C34 O41 1.241 . S
C35 O21 1.244 . S
C35 O23 1.256 1_554 S
C36 O25 1.239 . S
C36 O29 1.256 . S
C37 O26 1.278 . S
C37 O32 1.241 . S
C38 O28 1.244 . S
C38 O33 1.256 . S
C39 O30 1.239 . S
C39 O31 1.256 . S
O40 Mn22 2.221 1_556 S
O40 Mn24 2.290 . S
O40 C34 1.278 . S
O41 Mn24 2.251 . S
O41 C34 1.241 . S
O42 Mn43 2.170 . S
O42 C56 1.239 1_545 S
Mn43 O42 2.170 . S
Mn43 O46 2.160 . S
Mn43 O47 2.221 1_554 S
Mn43 O49 2.163 . S
Mn43 O51 2.160 . S
Mn43 O61 2.221 . S
O44 Mn45 2.087 . S
O44 C56 1.256 1_545 S
Mn45 O44 2.087 . S
Mn45 O52 2.089 . S
Mn45 O61 2.290 . S
Mn45 O62 2.251 . S
O46 Mn43 2.160 . S
O46 C57 1.239 . S
O47 Mn43 2.221 1_556 S
O47 Mn48 2.290 . S
O47 C58 1.278 . S
Mn48 O47 2.290 . S
Mn48 O50 2.089 1_556 S
Mn48 O53 2.251 1_545 S
Mn48 O54 2.087 1_546 S
O49 Mn43 2.163 . S
O49 C59 1.244 1_545 S
O50 Mn48 2.089 1_554 S
O50 C57 1.256 . S
O51 Mn43 2.160 . S
O51 C60 1.239 . S
O52 Mn45 2.089 . S
O52 C60 1.256 . S
O53 Mn48 2.251 1_565 S
O53 C58 1.241 1_565 S
O54 Mn48 2.087 1_564 S
O54 C59 1.256 . S
C55 O61 1.278 . S
C55 O62 1.241 . S
C56 O42 1.239 1_565 S
C56 O44 1.256 1_565 S
C57 O46 1.239 . S
C57 O50 1.256 . S
C58 O47 1.278 . S
C58 O53 1.241 1_545 S
C59 O49 1.244 1_565 S
C59 O54 1.256 . S
C60 O51 1.239 . S
C60 O52 1.256 . S
O61 Mn43 2.221 . S
O61 Mn45 2.290 . S
O61 C55 1.278 . S
O62 Mn45 2.251 . S
O62 C55 1.241 . S
O63 Mn64 2.163 . S
O63 C77 1.244 . S
Mn64 O63 2.163 . S
Mn64 O67 2.160 . S
Mn64 O68 2.221 . S
Mn64 O70 2.163 . S
Mn64 O72 2.160 . S
Mn64 O82 2.221 . S
O65 Mn66 2.087 . S
O65 C77 1.256 . S
Mn66 O65 2.087 . S
Mn66 O73 2.089 . S
Mn66 O82 2.290 . S
Mn66 O83 2.251 . S
O67 Mn64 2.160 . S
O67 C78 1.239 . S
O68 Mn64 2.221 . S
O68 Mn69 2.290 . S
O68 C79 1.278 . S
Mn69 O68 2.290 . S
Mn69 O71 2.089 . S
Mn69 O74 2.251 . S
Mn69 O75 2.087 . S
O70 Mn64 2.163 . S
O70 C80 1.244 . S
O71 Mn69 2.089 . S
O71 C78 1.256 . S
O72 Mn64 2.160 . S
O72 C81 1.239 . S
O73 Mn66 2.089 . S
O73 C81 1.256 . S
O74 Mn69 2.251 . S
O74 C79 1.241 . S
O75 Mn69 2.087 . S
O75 C80 1.256 . S
C76 O82 1.278 . S
C76 O83 1.241 . S
C77 O63 1.244 . S
C77 O65 1.256 . S
C78 O67 1.239 . S
C78 O71 1.256 . S
C79 O68 1.278 . S
C79 O74 1.241 . S
C80 O70 1.244 . S
C80 O75 1.256 . S
C81 O72 1.239 . S
C81 O73 1.256 . S
O82 Mn64 2.221 . S
O82 Mn66 2.290 . S
O82 C76 1.278 . S
O83 Mn66 2.251 . S
O83 C76 1.241 . S
O84 Mn85 2.163 . S
O84 C98 1.244 . S
Mn85 O84 2.163 . S
Mn85 O88 2.160 . S
Mn85 O89 2.221 . S
Mn85 O91 2.163 . S
Mn85 O93 2.160 . S
Mn85 O103 2.221 . S
O86 Mn87 2.087 . S
O86 C98 1.256 . S
Mn87 O86 2.087 . S
Mn87 O94 2.089 . S
Mn87 O103 2.290 . S
Mn87 O104 2.251 . S
O88 Mn85 2.160 . S
O88 C99 1.239 . S
O89 Mn85 2.221 . S
O89 Mn90 2.290 . S
O89 C100 1.278 . S
Mn90 O89 2.290 . S
Mn90 O92 2.089 . S
Mn90 O95 2.251 . S
Mn90 O96 2.087 . S
O91 Mn85 2.163 . S
O91 C101 1.244 . S
O92 Mn90 2.089 . S
O92 C99 1.256 . S
O93 Mn85 2.160 . S
O93 C102 1.239 . S
O94 Mn87 2.089 . S
O94 C102 1.256 . S
O95 Mn90 2.251 . S
O95 C100 1.241 . S
O96 Mn90 2.087 . S
O96 C101 1.256 . S
C97 O103 1.278 . S
C97 O104 1.241 . S
C98 O84 1.244 . S
C98 O86 1.256 . S
C99 O88 1.239 . S
C99 O92 1.256 . S
C100 O89 1.278 . S
C100 O95 1.241 . S
C101 O91 1.244 . S
C101 O96 1.256 . S
C102 O93 1.239 . S
C102 O94 1.256 . S
O103 Mn85 2.221 . S
O103 Mn87 2.290 . S
O103 C97 1.278 . S
O104 Mn87 2.251 . S
O104 C97 1.241 . S
O105 Mn106 2.163 . S
O105 C119 1.244 . S
Mn106 O105 2.163 . S
Mn106 O109 2.160 . S
Mn106 O110 2.221 . S
Mn106 O112 2.163 . S
Mn106 O114 2.160 . S
Mn106 O124 2.221 . S
O107 Mn108 2.087 . S
O107 C119 1.256 . S
Mn108 O107 2.087 . S
Mn108 O115 2.089 . S
Mn108 O124 2.290 . S
Mn108 O125 2.251 . S
O109 Mn106 2.160 . S
O109 C120 1.239 . S
O110 Mn106 2.221 . S
O110 Mn111 2.290 . S
O110 C121 1.278 . S
Mn111 O110 2.290 . S
Mn111 O113 2.089 . S
Mn111 O116 2.251 . S
Mn111 O117 2.087 . S
O112 Mn106 2.163 . S
O112 C122 1.244 . S
O113 Mn111 2.089 . S
O113 C120 1.256 . S
O114 Mn106 2.160 . S
O114 C123 1.239 . S
O115 Mn108 2.089 . S
O115 C123 1.256 . S
O116 Mn111 2.251 . S
O116 C121 1.241 . S
O117 Mn111 2.087 . S
O117 C122 1.256 . S
C118 O124 1.278 . S
C118 O125 1.241 . S
C119 O105 1.244 . S
C119 O107 1.256 . S
C120 O109 1.239 . S
C120 O113 1.256 . S
C121 O110 1.278 . S
C121 O116 1.241 . S
C122 O112 1.244 . S
C122 O117 1.256 . S
C123 O114 1.239 . S
C123 O115 1.256 . S
O124 Mn106 2.221 . S
O124 Mn108 2.290 . S
O124 C118 1.278 . S
O125 Mn108 2.251 . S
O125 C118 1.241 . S
O126 Mn127 2.163 . S
O126 C140 1.244 . S
Mn127 O126 2.163 . S
Mn127 O130 2.160 . S
Mn127 O131 2.221 . S
Mn127 O133 2.163 . S
Mn127 O135 2.160 . S
Mn127 O145 2.221 . S
O128 Mn129 2.087 . S
O128 C140 1.256 . S
Mn129 O128 2.087 . S
Mn129 O136 2.089 . S
Mn129 O145 2.290 . S
Mn129 O146 2.251 . S
O130 Mn127 2.160 . S
O130 C141 1.239 . S
O131 Mn127 2.221 . S
O131 Mn132 2.290 . S
O131 C142 1.278 . S
Mn132 O131 2.290 . S
Mn132 O134 2.089 . S
Mn132 O137 2.251 . S
Mn132 O138 2.087 . S
O133 Mn127 2.163 . S
O133 C143 1.244 . S
O134 Mn132 2.089 . S
O134 C141 1.256 . S
O135 Mn127 2.160 . S
O135 C144 1.239 . S
O136 Mn129 2.089 . S
O136 C144 1.256 . S
O137 Mn132 2.251 . S
O137 C142 1.241 . S
O138 Mn132 2.087 . S
O138 C143 1.256 . S
C139 O145 1.278 . S
C139 O146 1.241 . S
C140 O126 1.244 . S
C140 O128 1.256 . S
C141 O130 1.239 . S
C141 O134 1.256 . S
C142 O131 1.278 . S
C142 O137 1.241 . S
C143 O133 1.244 . S
C143 O138 1.256 . S
C144 O135 1.239 . S
C144 O136 1.256 . S
O145 Mn127 2.221 . S
O145 Mn129 2.290 . S
O145 C139 1.278 . S
O146 Mn129 2.251 . S
O146 C139 1.241 . S
O147 Mn148 2.163 . S
O147 C161 1.244 . S
Mn148 O147 2.163 . S
Mn148 O151 2.160 . S
Mn148 O152 2.221 . S
Mn148 O154 2.163 . S
Mn148 O156 2.160 . S
Mn148 O166 2.221 . S
O149 Mn150 2.087 . S
O149 C161 1.256 . S
Mn150 O149 2.087 . S
Mn150 O157 2.089 . S
Mn150 O166 2.290 . S
Mn150 O167 2.251 . S
O151 Mn148 2.160 . S
O151 C162 1.239 . S
O152 Mn148 2.221 . S
O152 Mn153 2.290 . S
O152 C163 1.278 . S
Mn153 O152 2.290 . S
Mn153 O155 2.089 . S
Mn153 O158 2.251 . S
Mn153 O159 2.087 . S
O154 Mn148 2.163 . S
O154 C164 1.244 . S
O155 Mn153 2.089 . S
O155 C162 1.256 . S
O156 Mn148 2.160 . S
O156 C165 1.239 . S
O157 Mn150 2.089 . S
O157 C165 1.256 . S
O158 Mn153 2.251 . S
O158 C163 1.241 . S
O159 Mn153 2.087 . S
O159 C164 1.256 . S
C160 O166 1.278 . S
C160 O167 1.241 . S
C161 O147 1.244 . S
C161 O149 1.256 . S
C162 O151 1.239 . S
C162 O155 1.256 . S
C163 O152 1.278 . S
C163 O158 1.241 . S
C164 O154 1.244 . S
C164 O159 1.256 . S
C165 O156 1.239 . S
C165 O157 1.256 . S
O166 Mn148 2.221 . S
O166 Mn150 2.290 . S
O166 C160 1.278 . S
O167 Mn150 2.251 . S
O167 C160 1.241 . S
O168 Mn169 2.163 . S
O168 C182 1.244 . S
Mn169 O168 2.163 . S
Mn169 O172 2.160 . S
Mn169 O173 2.221 . S
Mn169 O175 2.163 . S
Mn169 O177 2.160 . S
Mn169 O187 2.221 . S
O170 Mn171 2.087 . S
O170 C182 1.256 . S
Mn171 O170 2.087 . S
Mn171 O178 2.089 . S
Mn171 O187 2.290 . S
Mn171 O188 2.251 . S
O172 Mn169 2.160 . S
O172 C183 1.239 . S
O173 Mn169 2.221 . S
O173 Mn174 2.290 . S
O173 C184 1.278 . S
Mn174 O173 2.290 . S
Mn174 O176 2.089 . S
Mn174 O179 2.251 . S
Mn174 O180 2.087 . S
O175 Mn169 2.163 . S
O175 C185 1.244 . S
O176 Mn174 2.089 . S
O176 C183 1.256 . S
O177 Mn169 2.160 . S
O177 C186 1.239 . S
O178 Mn171 2.089 . S
O178 C186 1.256 . S
O179 Mn174 2.251 . S
O179 C184 1.241 . S
O180 Mn174 2.087 . S
O180 C185 1.256 . S
C181 O187 1.278 . S
C181 O188 1.241 . S
C182 O168 1.244 . S
C182 O170 1.256 . S
C183 O172 1.239 . S
C183 O176 1.256 . S
C184 O173 1.278 . S
C184 O179 1.241 . S
C185 O175 1.244 . S
C185 O180 1.256 . S
C186 O177 1.239 . S
C186 O178 1.256 . S
O187 Mn169 2.221 . S
O187 Mn171 2.290 . S
O187 C181 1.278 . S
O188 Mn171 2.251 . S
O188 C181 1.241 . S
H189 C197 0.929 . S
H190 C199 0.930 1_655 S
H191 C201 0.930 . S
H192 C204 0.929 . S
H193 C207 0.930 . S
H194 C209 0.960 . S
H195 C209 0.960 . S
H196 C209 0.960 . S
C197 H189 0.929 . S
C197 C198 1.377 . S
C197 C199 1.384 . S
C198 C197 1.377 . S
C198 C204 1.390 . S
C199 H190 0.930 1_455 S
C199 C197 1.384 . S
C199 C200 1.372 . S
C200 C199 1.372 . S
C200 C201 1.400 . S
C200 C205 1.490 . S
C201 H191 0.930 . S
C201 C200 1.400 . S
C201 C204 1.386 . S
H202 C218 0.930 . S
H203 C219 0.931 . S
C204 H192 0.929 . S
C204 C198 1.390 . S
C204 C201 1.386 . S
C205 C200 1.490 . S
C205 C207 1.395 . S
C205 C208 1.403 . S
H206 C212 0.930 . S
C207 H193 0.930 . S
C207 C205 1.395 . S
C207 C210 1.403 . S
C208 C205 1.403 . S
C208 C209 1.524 . S
C208 C212 1.400 . S
C209 H194 0.960 . S
C209 H195 0.960 . S
C209 H196 0.960 . S
C209 C208 1.524 . S
C210 C207 1.403 . S
C210 C211 1.392 . S
C210 C214 1.495 1_455 S
C211 C210 1.392 . S
C211 C212 1.385 . S
C211 C213 1.478 . S
C212 H206 0.930 . S
C212 C208 1.400 . S
C212 C211 1.385 . S
C213 C211 1.478 . S
C213 C215 1.381 1_455 S
C213 C219 1.383 . S
C214 C210 1.495 1_655 S
C214 H220 0.959 . S
C214 H221 0.961 . S
C214 H222 0.960 . S
C215 C213 1.381 1_655 S
C215 C216 1.394 . S
C215 H223 0.930 . S
C216 C215 1.394 . S
C216 C217 1.383 1_655 S
C216 H224 0.929 . S
C217 C216 1.383 1_455 S
C217 C218 1.377 . S
C218 H202 0.930 . S
C218 C217 1.377 . S
C218 C219 1.379 . S
C219 H203 0.931 . S
C219 C213 1.383 . S
C219 C218 1.379 . S
H220 C214 0.959 . S
H221 C214 0.961 . S
H222 C214 0.960 . S
H223 C215 0.930 . S
H224 C216 0.929 . S
H225 C233 0.929 . S
H226 C235 0.930 . S
H227 C237 0.930 . S
H228 C240 0.929 . S
H229 C243 0.930 . S
H230 C245 0.960 . S
H231 C245 0.960 . S
H232 C245 0.960 . S
C233 H225 0.929 . S
C233 C234 1.377 . S
C233 C235 1.384 . S
C234 C233 1.377 . S
C234 C240 1.390 . S
C235 H226 0.930 . S
C235 C233 1.384 . S
C235 C236 1.372 . S
C236 C235 1.372 . S
C236 C237 1.400 . S
C236 C241 1.490 . S
C237 H227 0.930 . S
C237 C236 1.400 . S
C237 C240 1.386 . S
H238 C254 0.930 . S
H239 C255 0.931 . S
C240 H228 0.929 . S
C240 C234 1.390 . S
C240 C237 1.386 . S
C241 C236 1.490 . S
C241 C243 1.395 . S
C241 C244 1.403 . S
H242 C248 0.930 . S
C243 H229 0.930 . S
C243 C241 1.395 . S
C243 C246 1.403 . S
C244 C241 1.403 . S
C244 C245 1.524 . S
C244 C248 1.400 . S
C245 H230 0.960 . S
C245 H231 0.960 . S
C245 H232 0.960 . S
C245 C244 1.524 . S
C246 C243 1.403 . S
C246 C247 1.392 . S
C246 C250 1.495 . S
C247 C246 1.392 . S
C247 C248 1.385 . S
C247 C249 1.478 . S
C248 H242 0.930 . S
C248 C244 1.400 . S
C248 C247 1.385 . S
C249 C247 1.478 . S
C249 C251 1.381 . S
C249 C255 1.383 . S
C250 C246 1.495 . S
C250 H256 0.959 . S
C250 H257 0.961 . S
C250 H258 0.960 . S
C251 C249 1.381 . S
C251 C252 1.394 . S
C251 H259 0.930 . S
C252 C251 1.394 . S
C252 C253 1.383 . S
C252 H260 0.929 . S
C253 C252 1.383 . S
C253 C254 1.377 . S
C254 H238 0.930 . S
C254 C253 1.377 . S
C254 C255 1.379 . S
C255 H239 0.931 . S
C255 C249 1.383 . S
C255 C254 1.379 . S
H256 C250 0.959 . S
H257 C250 0.961 . S
H258 C250 0.960 . S
H259 C251 0.930 . S
H260 C252 0.929 . S
H261 C269 0.929 . S
H262 C271 0.930 . S
H263 C273 0.930 . S
H264 C276 0.929 . S
H265 C279 0.930 . S
H266 C281 0.960 . S
H267 C281 0.960 . S
H268 C281 0.960 . S
C269 H261 0.929 . S
C269 C270 1.377 . S
C269 C271 1.384 . S
C270 C269 1.377 . S
C270 C276 1.390 1_545 S
C271 H262 0.930 . S
C271 C269 1.384 . S
C271 C272 1.372 . S
C272 C271 1.372 . S
C272 C273 1.400 1_545 S
C272 C277 1.490 . S
C273 H263 0.930 . S
C273 C272 1.400 1_565 S
C273 C276 1.386 . S
H274 C290 0.930 . S
H275 C291 0.931 . S
C276 H264 0.929 . S
C276 C270 1.390 1_565 S
C276 C273 1.386 . S
C277 C272 1.490 . S
C277 C279 1.395 . S
C277 C280 1.403 1_545 S
H278 C284 0.930 1_565 S
C279 H265 0.930 . S
C279 C277 1.395 . S
C279 C282 1.403 . S
C280 C277 1.403 1_565 S
C280 C281 1.524 . S
C280 C284 1.400 1_565 S
C281 H266 0.960 . S
C281 H267 0.960 . S
C281 H268 0.960 . S
C281 C280 1.524 . S
C282 C279 1.403 . S
C282 C283 1.392 . S
C282 C286 1.495 . S
C283 C282 1.392 . S
C283 C284 1.385 . S
C283 C285 1.478 . S
C284 H278 0.930 1_545 S
C284 C280 1.400 1_545 S
C284 C283 1.385 . S
C285 C283 1.478 . S
C285 C287 1.381 . S
C285 C291 1.383 . S
C286 C282 1.495 . S
C286 H292 0.959 . S
C286 H293 0.961 . S
C286 H294 0.960 . S
C287 C285 1.381 . S
C287 C288 1.394 . S
C287 H295 0.930 . S
C288 C287 1.394 . S
C288 C289 1.383 . S
C288 H296 0.929 . S
C289 C288 1.383 . S
C289 C290 1.377 . S
C290 H274 0.930 . S
C290 C289 1.377 . S
C290 C291 1.379 . S
C291 H275 0.931 . S
C291 C285 1.383 . S
C291 C290 1.379 . S
H292 C286 0.959 . S
H293 C286 0.961 . S
H294 C286 0.960 . S
H295 C287 0.930 . S
H296 C288 0.929 . S
H297 C305 0.929 . S
H298 C307 0.930 . S
H299 C309 0.930 . S
H300 C312 0.929 . S
H301 C315 0.930 . S
H302 C317 0.960 . S
H303 C317 0.960 . S
H304 C317 0.960 . S
C305 H297 0.929 . S
C305 C306 1.377 . S
C305 C307 1.384 . S
C306 C305 1.377 . S
C306 C312 1.390 . S
C307 H298 0.930 . S
C307 C305 1.384 . S
C307 C308 1.372 . S
C308 C307 1.372 . S
C308 C309 1.400 . S
C308 C313 1.490 . S
C309 H299 0.930 . S
C309 C308 1.400 . S
C309 C312 1.386 . S
H310 C326 0.930 1_554 S
H311 C327 0.931 . S
C312 H300 0.929 . S
C312 C306 1.390 . S
C312 C309 1.386 . S
C313 C308 1.490 . S
C313 C315 1.395 . S
C313 C316 1.403 . S
H314 C320 0.930 . S
C315 H301 0.930 . S
C315 C313 1.395 . S
C315 C318 1.403 . S
C316 C313 1.403 . S
C316 C317 1.524 . S
C316 C320 1.400 . S
C317 H302 0.960 . S
C317 H303 0.960 . S
C317 H304 0.960 . S
C317 C316 1.524 . S
C318 C315 1.403 . S
C318 C319 1.392 . S
C318 C322 1.495 . S
C319 C318 1.392 . S
C319 C320 1.385 . S
C319 C321 1.478 . S
C320 H314 0.930 . S
C320 C316 1.400 . S
C320 C319 1.385 . S
C321 C319 1.478 . S
C321 C323 1.381 . S
C321 C327 1.383 . S
C322 C318 1.495 . S
C322 H328 0.959 . S
C322 H329 0.961 . S
C322 H330 0.960 . S
C323 C321 1.381 . S
C323 C324 1.394 . S
C323 H331 0.930 . S
C324 C323 1.394 . S
C324 C325 1.383 1_556 S
C324 H332 0.929 1_556 S
C325 C324 1.383 1_554 S
C325 C326 1.377 1_554 S
C326 H310 0.930 1_556 S
C326 C325 1.377 1_556 S
C326 C327 1.379 . S
C327 H311 0.931 . S
C327 C321 1.383 . S
C327 C326 1.379 . S
H328 C322 0.959 . S
H329 C322 0.961 . S
H330 C322 0.960 . S
H331 C323 0.930 . S
H332 C324 0.929 1_554 S
H333 C341 0.929 . S
H334 C343 0.930 . S
H335 C345 0.930 . S
H336 C348 0.929 . S
H337 C351 0.930 . S
H338 C353 0.960 . S
H339 C353 0.960 . S
H340 C353 0.960 . S
C341 H333 0.929 . S
C341 C342 1.377 . S
C341 C343 1.384 . S
C342 C341 1.377 . S
C342 C348 1.390 . S
C343 H334 0.930 . S
C343 C341 1.384 . S
C343 C344 1.372 . S
C344 C343 1.372 . S
C344 C345 1.400 . S
C344 C349 1.490 . S
C345 H335 0.930 . S
C345 C344 1.400 . S
C345 C348 1.386 . S
H346 C362 0.930 . S
H347 C363 0.931 . S
C348 H336 0.929 . S
C348 C342 1.390 . S
C348 C345 1.386 . S
C349 C344 1.490 . S
C349 C351 1.395 . S
C349 C352 1.403 . S
H350 C356 0.930 . S
C351 H337 0.930 . S
C351 C349 1.395 . S
C351 C354 1.403 . S
C352 C349 1.403 . S
C352 C353 1.524 . S
C352 C356 1.400 . S
C353 H338 0.960 . S
C353 H339 0.960 . S
C353 H340 0.960 . S
C353 C352 1.524 . S
C354 C351 1.403 . S
C354 C355 1.392 . S
C354 C358 1.495 . S
C355 C354 1.392 . S
C355 C356 1.385 . S
C355 C357 1.478 . S
C356 H350 0.930 . S
C356 C352 1.400 . S
C356 C355 1.385 . S
C357 C355 1.478 . S
C357 C359 1.381 . S
C357 C363 1.383 . S
C358 C354 1.495 . S
C358 H364 0.959 . S
C358 H365 0.961 . S
C358 H366 0.960 . S
C359 C357 1.381 . S
C359 C360 1.394 1_556 S
C359 H367 0.930 . S
C360 C359 1.394 1_554 S
C360 C361 1.383 . S
C360 H368 0.929 . S
C361 C360 1.383 . S
C361 C362 1.377 . S
C362 H346 0.930 . S
C362 C361 1.377 . S
C362 C363 1.379 1_554 S
C363 H347 0.931 . S
C363 C357 1.383 . S
C363 C362 1.379 1_556 S
H364 C358 0.959 . S
H365 C358 0.961 . S
H366 C358 0.960 . S
H367 C359 0.930 . S
H368 C360 0.929 . S
H369 C377 0.929 . S
H370 C379 0.930 . S
H371 C381 0.930 . S
H372 C384 0.929 . S
H373 C387 0.930 . S
H374 C389 0.960 . S
H375 C389 0.960 . S
H376 C389 0.960 . S
C377 H369 0.929 . S
C377 C378 1.377 . S
C377 C379 1.384 . S
C378 C377 1.377 . S
C378 C384 1.390 . S
C379 H370 0.930 . S
C379 C377 1.384 . S
C379 C380 1.372 . S
C380 C379 1.372 . S
C380 C381 1.400 . S
C380 C385 1.490 . S
C381 H371 0.930 . S
C381 C380 1.400 . S
C381 C384 1.386 . S
H382 C398 0.930 . S
H383 C399 0.931 . S
C384 H372 0.929 . S
C384 C378 1.390 . S
C384 C381 1.386 . S
C385 C380 1.490 . S
C385 C387 1.395 . S
C385 C388 1.403 . S
H386 C392 0.930 . S
C387 H373 0.930 . S
C387 C385 1.395 . S
C387 C390 1.403 . S
C388 C385 1.403 . S
C388 C389 1.524 . S
C388 C392 1.400 . S
C389 H374 0.960 . S
C389 H375 0.960 . S
C389 H376 0.960 . S
C389 C388 1.524 . S
C390 C387 1.403 . S
C390 C391 1.392 . S
C390 C394 1.495 . S
C391 C390 1.392 . S
C391 C392 1.385 . S
C391 C393 1.478 . S
C392 H386 0.930 . S
C392 C388 1.400 . S
C392 C391 1.385 . S
C393 C391 1.478 . S
C393 C395 1.381 . S
C393 C399 1.383 . S
C394 C390 1.495 . S
C394 H400 0.959 . S
C394 H401 0.961 . S
C394 H402 0.960 . S
C395 C393 1.381 . S
C395 C396 1.394 1_556 S
C395 H403 0.930 . S
C396 C395 1.394 1_554 S
C396 C397 1.383 . S
C396 H404 0.929 . S
C397 C396 1.383 . S
C397 C398 1.377 . S
C398 H382 0.930 . S
C398 C397 1.377 . S
C398 C399 1.379 1_554 S
C399 H383 0.931 . S
C399 C393 1.383 . S
C399 C398 1.379 1_556 S
H400 C394 0.959 . S
H401 C394 0.961 . S
H402 C394 0.960 . S
H403 C395 0.930 . S
H404 C396 0.929 . S
H405 C413 0.929 . S
H406 C415 0.930 . S
H407 C417 0.930 . S
H408 C420 0.929 . S
H409 C423 0.930 . S
H410 C425 0.960 . S
H411 C425 0.960 . S
H412 C425 0.960 . S
C413 H405 0.929 . S
C413 C414 1.377 . S
C413 C415 1.384 . S
C414 C413 1.377 . S
C414 C420 1.390 . S
C415 H406 0.930 . S
C415 C413 1.384 . S
C415 C416 1.372 . S
C416 C415 1.372 . S
C416 C417 1.400 . S
C416 C421 1.490 . S
C417 H407 0.930 . S
C417 C416 1.400 . S
C417 C420 1.386 . S
H418 C434 0.930 . S
H419 C435 0.931 . S
C420 H408 0.929 . S
C420 C414 1.390 . S
C420 C417 1.386 . S
C421 C416 1.490 . S
C421 C423 1.395 . S
C421 C424 1.403 . S
H422 C428 0.930 . S
C423 H409 0.930 . S
C423 C421 1.395 . S
C423 C426 1.403 . S
C424 C421 1.403 . S
C424 C425 1.524 . S
C424 C428 1.400 . S
C425 H410 0.960 . S
C425 H411 0.960 . S
C425 H412 0.960 . S
C425 C424 1.524 . S
C426 C423 1.403 . S
C426 C427 1.392 . S
C426 C430 1.495 . S
C427 C426 1.392 . S
C427 C428 1.385 . S
C427 C429 1.478 . S
C428 H422 0.930 . S
C428 C424 1.400 . S
C428 C427 1.385 . S
C429 C427 1.478 . S
C429 C431 1.381 . S
C429 C435 1.383 . S
C430 C426 1.495 . S
C430 H436 0.959 . S
C430 H437 0.961 . S
C430 H438 0.960 . S
C431 C429 1.381 . S
C431 C432 1.394 1_554 S
C431 H439 0.930 . S
C432 C431 1.394 1_556 S
C432 C433 1.383 . S
C432 H440 0.929 . S
C433 C432 1.383 . S
C433 C434 1.377 . S
C434 H418 0.930 . S
C434 C433 1.377 . S
C434 C435 1.379 1_556 S
C435 H419 0.931 . S
C435 C429 1.383 . S
C435 C434 1.379 1_554 S
H436 C430 0.959 . S
H437 C430 0.961 . S
H438 C430 0.960 . S
H439 C431 0.930 . S
H440 C432 0.929 . S
H441 C449 0.929 . S
H442 C451 0.930 . S
H443 C453 0.930 . S
H444 C456 0.929 . S
H445 C459 0.930 . S
H446 C461 0.960 . S
H447 C461 0.960 . S
H448 C461 0.960 . S
C449 H441 0.929 . S
C449 C450 1.377 . S
C449 C451 1.384 . S
C450 C449 1.377 . S
C450 C456 1.390 . S
C451 H442 0.930 . S
C451 C449 1.384 . S
C451 C452 1.372 . S
C452 C451 1.372 . S
C452 C453 1.400 . S
C452 C457 1.490 . S
C453 H443 0.930 . S
C453 C452 1.400 . S
C453 C456 1.386 . S
H454 C470 0.930 . S
H455 C471 0.940 . S
C456 H444 0.929 . S
C456 C450 1.390 . S
C456 C453 1.386 . S
C457 C452 1.490 . S
C457 C459 1.395 . S
C457 C460 1.403 . S
H458 C464 0.930 . S
C459 H445 0.930 . S
C459 C457 1.395 . S
C459 C462 1.403 . S
C460 C457 1.403 . S
C460 C461 1.524 . S
C460 C464 1.400 . S
C461 H446 0.960 . S
C461 H447 0.960 . S
C461 H448 0.960 . S
C461 C460 1.524 . S
C462 C459 1.403 . S
C462 C463 1.392 . S
C462 C466 1.495 . S
C463 C462 1.392 . S
C463 C464 1.385 . S
C463 C465 1.478 1_554 S
C464 H458 0.930 . S
C464 C460 1.400 . S
C464 C463 1.385 . S
C465 C463 1.478 1_556 S
C465 C467 1.381 . S
C465 C471 1.383 . S
C466 C462 1.495 . S
C466 H472 0.959 . S
C466 H473 0.961 . S
C466 H474 0.960 . S
C467 C465 1.381 . S
C467 C468 1.394 . S
C467 H475 0.930 . S
C468 C467 1.394 . S
C468 C469 1.383 . S
C468 H476 0.929 . S
C469 C468 1.383 . S
C469 C470 1.377 . S
C470 H454 0.930 . S
C470 C469 1.377 . S
C470 C471 1.379 . S
C471 H455 0.940 . S
C471 C465 1.383 . S
C471 C470 1.379 . S
H472 C466 0.959 . S
H473 C466 0.961 . S
H474 C466 0.960 . S
H475 C467 0.930 . S
H476 C468 0.929 . S
H477 C485 0.929 . S
H478 C487 0.930 . S
H479 C489 0.930 . S
H480 C492 0.929 . S
H481 C495 0.930 . S
H482 C497 0.960 . S
H483 C497 0.960 . S
H484 C497 0.960 . S
C485 H477 0.929 . S
C485 C486 1.377 . S
C485 C487 1.384 . S
C486 C485 1.377 . S
C486 C492 1.390 . S
C487 H478 0.930 . S
C487 C485 1.384 . S
C487 C488 1.372 . S
C488 C487 1.372 . S
C488 C489 1.400 . S
C488 C493 1.490 . S
C489 H479 0.930 . S
C489 C488 1.400 . S
C489 C492 1.386 . S
H490 C506 0.930 . S
H491 C507 0.931 . S
C492 H480 0.929 . S
C492 C486 1.390 . S
C492 C489 1.386 . S
C493 C488 1.490 . S
C493 C495 1.395 . S
C493 C496 1.403 . S
H494 C500 0.930 . S
C495 H481 0.930 . S
C495 C493 1.395 . S
C495 C498 1.403 . S
C496 C493 1.403 . S
C496 C497 1.524 . S
C496 C500 1.400 . S
C497 H482 0.960 . S
C497 H483 0.960 . S
C497 H484 0.960 . S
C497 C496 1.524 . S
C498 C495 1.403 . S
C498 C499 1.392 . S
C498 C502 1.495 . S
C499 C498 1.392 . S
C499 C500 1.385 . S
C499 C501 1.478 1_554 S
C500 H494 0.930 . S
C500 C496 1.400 . S
C500 C499 1.385 . S
C501 C499 1.478 1_556 S
C501 C503 1.381 . S
C501 C507 1.383 . S
C502 C498 1.495 . S
C502 H508 0.959 . S
C502 H509 0.961 . S
C502 H510 0.960 . S
C503 C501 1.381 . S
C503 C504 1.394 . S
C503 H511 0.930 . S
C504 C503 1.394 . S
C504 C505 1.383 . S
C504 H512 0.929 . S
C505 C504 1.383 . S
C505 C506 1.377 . S
C506 H490 0.930 . S
C506 C505 1.377 . S
C506 C507 1.379 . S
C507 H491 0.931 . S
C507 C501 1.383 . S
C507 C506 1.379 . S
H508 C502 0.959 . S
H509 C502 0.961 . S
H510 C502 0.960 . S
H511 C503 0.930 . S
H512 C504 0.929 . S
H513 C521 0.929 . S
H514 C523 0.930 . S
H515 C525 0.930 . S
H516 C528 0.929 . S
H517 C531 0.930 . S
H518 C533 0.960 . S
H519 C533 0.960 . S
H520 C533 0.960 . S
C521 H513 0.929 . S
C521 C522 1.377 . S
C521 C523 1.384 . S
C522 C521 1.377 . S
C522 C528 1.390 . S
C523 H514 0.930 . S
C523 C521 1.384 . S
C523 C524 1.372 . S
C524 C523 1.372 . S
C524 C525 1.400 . S
C524 C529 1.490 . S
C525 H515 0.930 . S
C525 C524 1.400 . S
C525 C528 1.386 . S
H526 C542 0.930 . S
H527 C543 0.931 . S
C528 H516 0.929 . S
C528 C522 1.390 . S
C528 C525 1.386 . S
C529 C524 1.490 . S
C529 C531 1.395 . S
C529 C532 1.403 . S
H530 C536 0.930 . S
C531 H517 0.930 . S
C531 C529 1.395 . S
C531 C534 1.403 . S
C532 C529 1.403 . S
C532 C533 1.524 . S
C532 C536 1.400 . S
C533 H518 0.960 . S
C533 H519 0.960 . S
C533 H520 0.960 . S
C533 C532 1.524 . S
C534 C531 1.403 . S
C534 C535 1.392 . S
C534 C538 1.495 . S
C535 C534 1.392 . S
C535 C536 1.385 . S
C535 C537 1.478 . S
C536 H530 0.930 . S
C536 C532 1.400 . S
C536 C535 1.385 . S
C537 C535 1.478 . S
C537 C539 1.381 . S
C537 C543 1.383 . S
C538 C534 1.495 . S
C538 H544 0.959 . S
C538 H545 0.961 . S
C538 H546 0.960 . S
C539 C537 1.381 . S
C539 C540 1.394 . S
C539 H547 0.930 . S
C540 C539 1.394 . S
C540 C541 1.383 . S
C540 H548 0.929 . S
C541 C540 1.383 . S
C541 C542 1.377 . S
C542 H526 0.930 . S
C542 C541 1.377 . S
C542 C543 1.379 . S
C543 H527 0.931 . S
C543 C537 1.383 . S
C543 C542 1.379 . S
H544 C538 0.959 . S
H545 C538 0.961 . S
H546 C538 0.960 . S
H547 C539 0.930 . S
H548 C540 0.929 . S
H549 C557 0.929 . S
H550 C559 0.930 . S
H551 C561 0.930 . S
H552 C564 0.929 . S
H553 C567 0.930 . S
H554 C569 0.960 . S
H555 C569 0.960 . S
H556 C569 0.960 . S
C557 H549 0.929 . S
C557 C558 1.377 . S
C557 C559 1.384 . S
C558 C557 1.377 . S
C558 C564 1.390 . S
C559 H550 0.930 . S
C559 C557 1.384 . S
C559 C560 1.372 . S
C560 C559 1.372 . S
C560 C561 1.400 . S
C560 C565 1.490 . S
C561 H551 0.930 . S
C561 C560 1.400 . S
C561 C564 1.386 . S
H562 C578 0.930 . S
H563 C579 0.931 . S
C564 H552 0.929 . S
C564 C558 1.390 . S
C564 C561 1.386 . S
C565 C560 1.490 . S
C565 C567 1.395 . S
C565 C568 1.403 . S
H566 C572 0.930 . S
C567 H553 0.930 . S
C567 C565 1.395 . S
C567 C570 1.403 . S
C568 C565 1.403 . S
C568 C569 1.524 . S
C568 C572 1.400 . S
C569 H554 0.960 . S
C569 H555 0.960 . S
C569 H556 0.960 . S
C569 C568 1.524 . S
C570 C567 1.403 . S
C570 C571 1.392 . S
C570 C574 1.495 . S
C571 C570 1.392 . S
C571 C572 1.385 . S
C571 C573 1.478 . S
C572 H566 0.930 . S
C572 C568 1.400 . S
C572 C571 1.385 . S
C573 C571 1.478 . S
C573 C575 1.381 . S
C573 C579 1.383 . S
C574 C570 1.495 . S
C574 H580 0.959 . S
C574 H581 0.961 . S
C574 H582 0.960 . S
C575 C573 1.381 . S
C575 C576 1.394 . S
C575 H583 0.930 . S
C576 C575 1.394 . S
C576 C577 1.383 . S
C576 H584 0.929 . S
C577 C576 1.383 . S
C577 C578 1.377 . S
C578 H562 0.930 . S
C578 C577 1.377 . S
C578 C579 1.379 . S
C579 H563 0.931 . S
C579 C573 1.383 . S
C579 C578 1.379 . S
H580 C574 0.959 . S
H581 C574 0.961 . S
H582 C574 0.960 . S
H583 C575 0.930 . S
H584 C576 0.929 . S
H585 C593 0.929 . S
H586 C595 0.930 . S
H587 C597 0.930 . S
H588 C600 0.929 . S
H589 C603 0.930 . S
H590 C605 0.960 . S
H591 C605 0.960 . S
H592 C605 0.960 . S
C593 H585 0.929 . S
C593 C594 1.377 . S
C593 C595 1.384 . S
C594 C593 1.377 . S
C594 C600 1.390 . S
C595 H586 0.930 . S
C595 C593 1.384 . S
C595 C596 1.372 . S
C596 C595 1.372 . S
C596 C597 1.400 . S
C596 C601 1.490 . S
C597 H587 0.930 . S
C597 C596 1.400 . S
C597 C600 1.386 . S
H598 C614 0.930 . S
H599 C615 0.931 . S
C600 H588 0.929 . S
C600 C594 1.390 . S
C600 C597 1.386 . S
C601 C596 1.490 . S
C601 C603 1.395 . S
C601 C604 1.403 . S
H602 C608 0.930 . S
C603 H589 0.930 . S
C603 C601 1.395 . S
C603 C606 1.403 . S
C604 C601 1.403 . S
C604 C605 1.524 . S
C604 C608 1.400 . S
C605 H590 0.960 . S
C605 H591 0.960 . S
C605 H592 0.960 . S
C605 C604 1.524 . S
C606 C603 1.403 . S
C606 C607 1.392 . S
C606 C610 1.495 . S
C607 C606 1.392 . S
C607 C608 1.385 . S
C607 C609 1.478 . S
C608 H602 0.930 . S
C608 C604 1.400 . S
C608 C607 1.385 . S
C609 C607 1.478 . S
C609 C611 1.381 . S
C609 C615 1.383 . S
C610 C606 1.495 . S
C610 H616 0.959 . S
C610 H617 0.961 . S
C610 H618 0.960 . S
C611 C609 1.381 . S
C611 C612 1.394 . S
C611 H619 0.930 . S
C612 C611 1.394 . S
C612 C613 1.383 . S
C612 H620 0.929 . S
C613 C612 1.383 . S
C613 C614 1.377 . S
C614 H598 0.930 . S
C614 C613 1.377 . S
C614 C615 1.379 . S
C615 H599 0.931 . S
C615 C609 1.383 . S
C615 C614 1.379 . S
H616 C610 0.959 . S
H617 C610 0.961 . S
H618 C610 0.960 . S
H619 C611 0.930 . S
H620 C612 0.929 . S
H621 C629 0.929 . S
H622 C631 0.930 . S
H623 C633 0.930 . S
H624 C636 0.929 1_556 S
H625 C639 0.930 . S
H626 C641 0.960 . S
H627 C641 0.960 . S
H628 C641 0.960 . S
C629 H621 0.929 . S
C629 C630 1.377 . S
C629 C631 1.384 . S
C630 C629 1.377 . S
C630 C636 1.390 . S
C631 H622 0.930 . S
C631 C629 1.384 . S
C631 C632 1.372 1_554 S
C632 C631 1.372 1_556 S
C632 C633 1.400 . S
C632 C637 1.490 . S
C633 H623 0.930 . S
C633 C632 1.400 . S
C633 C636 1.386 1_556 S
H634 C650 0.930 . S
H635 C651 0.931 . S
C636 H624 0.929 1_554 S
C636 C630 1.390 . S
C636 C633 1.386 1_554 S
C637 C632 1.490 . S
C637 C639 1.395 1_556 S
C637 C640 1.403 . S
H638 C644 0.930 . S
C639 H625 0.930 . S
C639 C637 1.395 1_554 S
C639 C642 1.403 1_554 S
C640 C637 1.403 . S
C640 C641 1.524 . S
C640 C644 1.400 . S
C641 H626 0.960 . S
C641 H627 0.960 . S
C641 H628 0.960 . S
C641 C640 1.524 . S
C642 C639 1.403 1_556 S
C642 C643 1.392 . S
C642 C646 1.495 1_556 S
C643 C642 1.392 . S
C643 C644 1.385 . S
C643 C645 1.478 . S
C644 H638 0.930 . S
C644 C640 1.400 . S
C644 C643 1.385 . S
C645 C643 1.478 . S
C645 C647 1.381 . S
C645 C651 1.383 . S
C646 C642 1.495 1_554 S
C646 H652 0.959 . S
C646 H653 0.961 . S
C646 H654 0.960 . S
C647 C645 1.381 . S
C647 C648 1.394 . S
C647 H655 0.930 . S
C648 C647 1.394 . S
C648 C649 1.383 . S
C648 H656 0.929 . S
C649 C648 1.383 . S
C649 C650 1.377 . S
C650 H634 0.930 . S
C650 C649 1.377 . S
C650 C651 1.379 . S
C651 H635 0.931 . S
C651 C645 1.383 . S
C651 C650 1.379 . S
H652 C646 0.959 . S
H653 C646 0.961 . S
H654 C646 0.960 . S
H655 C647 0.930 . S
H656 C648 0.929 . S
H657 C665 0.929 . S
H658 C667 0.930 . S
H659 C669 0.930 . S
H660 C672 0.929 . S
H661 C675 0.930 . S
H662 C677 0.960 . S
H663 C677 0.960 . S
H664 C677 0.960 . S
C665 H657 0.929 . S
C665 C666 1.377 . S
C665 C667 1.384 . S
C666 C665 1.377 . S
C666 C672 1.390 . S
C667 H658 0.930 . S
C667 C665 1.384 . S
C667 C668 1.372 . S
C668 C667 1.372 . S
C668 C669 1.400 . S
C668 C673 1.490 . S
C669 H659 0.930 . S
C669 C668 1.400 . S
C669 C672 1.386 . S
H670 C686 0.930 . S
H671 C687 0.931 . S
C672 H660 0.929 . S
C672 C666 1.390 . S
C672 C669 1.386 . S
C673 C668 1.490 . S
C673 C675 1.395 . S
C673 C676 1.403 . S
H674 C680 0.930 . S
C675 H661 0.930 . S
C675 C673 1.395 . S
C675 C678 1.403 . S
C676 C673 1.403 . S
C676 C677 1.524 . S
C676 C680 1.400 . S
C677 H662 0.960 . S
C677 H663 0.960 . S
C677 H664 0.960 . S
C677 C676 1.524 . S
C678 C675 1.403 . S
C678 C679 1.392 . S
C678 C682 1.495 1_556 S
C679 C678 1.392 . S
C679 C680 1.385 . S
C679 C681 1.478 . S
C680 H674 0.930 . S
C680 C676 1.400 . S
C680 C679 1.385 . S
C681 C679 1.478 . S
C681 C683 1.381 1_556 S
C681 C687 1.383 . S
C682 C678 1.495 1_554 S
C682 H688 0.959 . S
C682 H689 0.961 . S
C682 H690 0.960 . S
C683 C681 1.381 1_554 S
C683 C684 1.394 . S
C683 H691 0.930 . S
C684 C683 1.394 . S
C684 C685 1.383 . S
C684 H692 0.929 . S
C685 C684 1.383 . S
C685 C686 1.377 1_554 S
C686 H670 0.930 . S
C686 C685 1.377 1_556 S
C686 C687 1.379 . S
C687 H671 0.931 . S
C687 C681 1.383 . S
C687 C686 1.379 . S
H688 C682 0.959 . S
H689 C682 0.961 . S
H690 C682 0.960 . S
H691 C683 0.930 . S
H692 C684 0.929 . S
H693 C701 0.929 . S
H694 C703 0.930 . S
H695 C705 0.930 . S
H696 C708 0.929 . S
H697 C711 0.930 . S
H698 C713 0.960 . S
H699 C713 0.960 . S
H700 C713 0.960 . S
C701 H693 0.929 . S
C701 C702 1.377 . S
C701 C703 1.384 . S
C702 C701 1.377 . S
C702 C708 1.390 . S
C703 H694 0.930 . S
C703 C701 1.384 . S
C703 C704 1.372 . S
C704 C703 1.372 . S
C704 C705 1.400 . S
C704 C709 1.490 . S
C705 H695 0.930 . S
C705 C704 1.400 . S
C705 C708 1.386 . S
H706 C722 0.930 . S
H707 C723 0.931 . S
C708 H696 0.929 . S
C708 C702 1.390 . S
C708 C705 1.386 . S
C709 C704 1.490 . S
C709 C711 1.395 . S
C709 C712 1.403 . S
H710 C716 0.930 . S
C711 H697 0.930 . S
C711 C709 1.395 . S
C711 C714 1.403 . S
C712 C709 1.403 . S
C712 C713 1.524 . S
C712 C716 1.400 . S
C713 H698 0.960 . S
C713 H699 0.960 . S
C713 H700 0.960 . S
C713 C712 1.524 . S
C714 C711 1.403 . S
C714 C715 1.392 . S
C714 C718 1.495 . S
C715 C714 1.392 . S
C715 C716 1.385 . S
C715 C717 1.478 . S
C716 H710 0.930 . S
C716 C712 1.400 . S
C716 C715 1.385 . S
C717 C715 1.478 . S
C717 C719 1.381 . S
C717 C723 1.383 . S
C718 C714 1.495 . S
C718 H724 0.959 . S
C718 H725 0.961 . S
C718 H726 0.960 . S
C719 C717 1.381 . S
C719 C720 1.394 . S
C719 H727 0.930 . S
C720 C719 1.394 . S
C720 C721 1.383 . S
C720 H728 0.929 1_556 S
C721 C720 1.383 . S
C721 C722 1.377 . S
C722 H706 0.930 . S
C722 C721 1.377 . S
C722 C723 1.379 . S
C723 H707 0.931 . S
C723 C717 1.383 . S
C723 C722 1.379 . S
H724 C718 0.959 . S
H725 C718 0.961 . S
H726 C718 0.960 . S
H727 C719 0.930 . S
H728 C720 0.929 1_554 S
H729 C737 0.929 . S
H730 C739 0.930 . S
H731 C741 0.930 . S
H732 C744 0.929 . S
H733 C747 0.930 . S
H734 C749 0.960 . S
H735 C749 0.960 . S
H736 C749 0.960 . S
C737 H729 0.929 . S
C737 C738 1.377 . S
C737 C739 1.384 . S
C738 C737 1.377 . S
C738 C744 1.390 . S
C739 H730 0.930 . S
C739 C737 1.384 . S
C739 C740 1.372 . S
C740 C739 1.372 . S
C740 C741 1.400 . S
C740 C745 1.490 . S
C741 H731 0.930 . S
C741 C740 1.400 . S
C741 C744 1.386 . S
H742 C758 0.930 1_455 S
H743 C759 0.931 . S
C744 H732 0.929 . S
C744 C738 1.390 . S
C744 C741 1.386 . S
C745 C740 1.490 . S
C745 C747 1.395 . S
C745 C748 1.403 . S
H746 C752 0.930 . S
C747 H733 0.930 . S
C747 C745 1.395 . S
C747 C750 1.403 . S
C748 C745 1.403 . S
C748 C749 1.524 . S
C748 C752 1.400 . S
C749 H734 0.960 . S
C749 H735 0.960 . S
C749 H736 0.960 . S
C749 C748 1.524 . S
C750 C747 1.403 . S
C750 C751 1.392 . S
C750 C754 1.495 . S
C751 C750 1.392 . S
C751 C752 1.385 . S
C751 C753 1.478 . S
C752 H746 0.930 . S
C752 C748 1.400 . S
C752 C751 1.385 . S
C753 C751 1.478 . S
C753 C755 1.381 . S
C753 C759 1.383 . S
C754 C750 1.495 . S
C754 H760 0.959 . S
C754 H761 0.961 . S
C754 H762 0.960 . S
C755 C753 1.381 . S
C755 C756 1.394 . S
C755 H763 0.930 . S
C756 C755 1.394 . S
C756 C757 1.383 . S
C756 H764 0.929 . S
C757 C756 1.383 . S
C757 C758 1.377 . S
C758 H742 0.930 1_655 S
C758 C757 1.377 . S
C758 C759 1.379 . S
C759 H743 0.931 . S
C759 C753 1.383 . S
C759 C758 1.379 . S
H760 C754 0.959 . S
H761 C754 0.961 . S
H762 C754 0.960 . S
H763 C755 0.930 . S
H764 C756 0.929 . S
H765 C773 0.929 . S
H766 C775 0.930 . S
H767 C777 0.930 . S
H768 C780 0.929 . S
H769 C783 0.930 . S
H770 C785 0.960 . S
H771 C785 0.960 . S
H772 C785 0.960 . S
C773 H765 0.929 . S
C773 C774 1.377 1_556 S
C773 C775 1.384 . S
C774 C773 1.377 1_554 S
C774 C780 1.390 . S
C775 H766 0.930 . S
C775 C773 1.384 . S
C775 C776 1.372 . S
C776 C775 1.372 . S
C776 C777 1.400 1_556 S
C776 C781 1.490 . S
C777 H767 0.930 . S
C777 C776 1.400 1_554 S
C777 C780 1.386 . S
H778 C794 0.930 . S
H779 C795 0.931 . S
C780 H768 0.929 . S
C780 C774 1.390 . S
C780 C777 1.386 . S
C781 C776 1.490 . S
C781 C783 1.395 . S
C781 C784 1.403 . S
H782 C788 0.930 . S
C783 H769 0.930 . S
C783 C781 1.395 . S
C783 C786 1.403 . S
C784 C781 1.403 . S
C784 C785 1.524 1_556 S
C784 C788 1.400 . S
C785 H770 0.960 . S
C785 H771 0.960 . S
C785 H772 0.960 . S
C785 C784 1.524 1_554 S
C786 C783 1.403 . S
C786 C787 1.392 . S
C786 C790 1.495 . S
C787 C786 1.392 . S
C787 C788 1.385 . S
C787 C789 1.478 . S
C788 H782 0.930 . S
C788 C784 1.400 . S
C788 C787 1.385 . S
C789 C787 1.478 . S
C789 C791 1.381 . S
C789 C795 1.383 . S
C790 C786 1.495 . S
C790 H796 0.959 . S
C790 H797 0.961 . S
C790 H798 0.960 . S
C791 C789 1.381 . S
C791 C792 1.394 . S
C791 H799 0.930 . S
C792 C791 1.394 . S
C792 C793 1.383 . S
C792 H800 0.929 . S
C793 C792 1.383 . S
C793 C794 1.377 . S
C794 H778 0.930 . S
C794 C793 1.377 . S
C794 C795 1.379 . S
C795 H779 0.931 . S
C795 C789 1.383 . S
C795 C794 1.379 . S
H796 C790 0.959 . S
H797 C790 0.961 . S
H798 C790 0.960 . S
H799 C791 0.930 . S
H800 C792 0.929 . S
H801 C809 0.929 . S
H802 C811 0.930 . S
H803 C813 0.930 . S
H804 C816 0.929 . S
H805 C819 0.930 . S
H806 C821 0.960 . S
H807 C821 0.960 . S
H808 C821 0.960 . S
C809 H801 0.929 . S
C809 C810 1.377 . S
C809 C811 1.384 . S
C810 C809 1.377 . S
C810 C816 1.390 . S
C811 H802 0.930 . S
C811 C809 1.384 . S
C811 C812 1.372 . S
C812 C811 1.372 . S
C812 C813 1.400 . S
C812 C817 1.490 . S
C813 H803 0.930 . S
C813 C812 1.400 . S
C813 C816 1.386 . S
H814 C830 0.930 . S
H815 C831 0.931 . S
C816 H804 0.929 . S
C816 C810 1.390 . S
C816 C813 1.386 . S
C817 C812 1.490 . S
C817 C819 1.395 . S
C817 C820 1.403 . S
H818 C824 0.930 . S
C819 H805 0.930 . S
C819 C817 1.395 . S
C819 C822 1.403 . S
C820 C817 1.403 . S
C820 C821 1.524 . S
C820 C824 1.400 . S
C821 H806 0.960 . S
C821 H807 0.960 . S
C821 H808 0.960 . S
C821 C820 1.524 . S
C822 C819 1.403 . S
C822 C823 1.392 . S
C822 C826 1.495 . S
C823 C822 1.392 . S
C823 C824 1.385 . S
C823 C825 1.478 . S
C824 H818 0.930 . S
C824 C820 1.400 . S
C824 C823 1.385 . S
C825 C823 1.478 . S
C825 C827 1.381 . S
C825 C831 1.383 . S
C826 C822 1.495 . S
C826 H832 0.959 . S
C826 H833 0.961 . S
C826 H834 0.960 . S
C827 C825 1.381 . S
C827 C828 1.394 1_556 S
C827 H835 0.930 . S
C828 C827 1.394 1_554 S
C828 C829 1.383 . S
C828 H836 0.929 . S
C829 C828 1.383 . S
C829 C830 1.377 1_554 S
C830 H814 0.930 . S
C830 C829 1.377 1_556 S
C830 C831 1.379 . S
C831 H815 0.931 . S
C831 C825 1.383 . S
C831 C830 1.379 . S
H832 C826 0.959 . S
H833 C826 0.961 . S
H834 C826 0.960 . S
H835 C827 0.930 . S
H836 C828 0.929 . S
H837 C845 0.929 1_556 S
H838 C847 0.930 . S
H839 C849 0.930 . S
H840 C852 0.929 . S
H841 C855 0.930 . S
H842 C857 0.960 . S
H843 C857 0.960 . S
H844 C857 0.960 . S
C845 H837 0.929 1_554 S
C845 C846 1.377 . S
C845 C847 1.384 . S
C846 C845 1.377 . S
C846 C852 1.390 . S
C847 H838 0.930 . S
C847 C845 1.384 . S
C847 C848 1.372 . S
C848 C847 1.372 . S
C848 C849 1.400 . S
C848 C853 1.490 . S
C849 H839 0.930 . S
C849 C848 1.400 . S
C849 C852 1.386 . S
H850 C866 0.930 . S
H851 C867 0.931 . S
C852 H840 0.929 . S
C852 C846 1.390 . S
C852 C849 1.386 . S
C853 C848 1.490 . S
C853 C855 1.395 . S
C853 C856 1.403 . S
H854 C860 0.930 . S
C855 H841 0.930 . S
C855 C853 1.395 . S
C855 C858 1.403 . S
C856 C853 1.403 . S
C856 C857 1.524 . S
C856 C860 1.400 . S
C857 H842 0.960 . S
C857 H843 0.960 . S
C857 H844 0.960 . S
C857 C856 1.524 . S
C858 C855 1.403 . S
C858 C859 1.392 . S
C858 C862 1.495 . S
C859 C858 1.392 . S
C859 C860 1.385 . S
C859 C861 1.478 . S
C860 H854 0.930 . S
C860 C856 1.400 . S
C860 C859 1.385 . S
C861 C859 1.478 . S
C861 C863 1.381 . S
C861 C867 1.383 . S
C862 C858 1.495 . S
C862 H868 0.959 . S
C862 H869 0.961 . S
C862 H870 0.960 . S
C863 C861 1.381 . S
C863 C864 1.394 . S
C863 H871 0.930 . S
C864 C863 1.394 . S
C864 C865 1.383 . S
C864 H872 0.929 . S
C865 C864 1.383 . S
C865 C866 1.377 . S
C866 H850 0.930 . S
C866 C865 1.377 . S
C866 C867 1.379 . S
C867 H851 0.931 . S
C867 C861 1.383 . S
C867 C866 1.379 . S
H868 C862 0.959 . S
H869 C862 0.961 . S
H870 C862 0.960 . S
H871 C863 0.930 . S
H872 C864 0.929 . S
H873 C881 0.929 . S
H874 C883 0.930 . S
H875 C885 0.930 . S
H876 C888 0.929 . S
H877 C891 0.930 . S
H878 C893 0.960 . S
H879 C893 0.960 . S
H880 C893 0.960 . S
C881 H873 0.929 . S
C881 C882 1.377 . S
C881 C883 1.384 . S
C882 C881 1.377 . S
C882 C888 1.390 . S
C883 H874 0.930 . S
C883 C881 1.384 . S
C883 C884 1.372 . S
C884 C883 1.372 . S
C884 C885 1.400 . S
C884 C889 1.490 . S
C885 H875 0.930 . S
C885 C884 1.400 . S
C885 C888 1.386 . S
H886 C902 0.930 . S
H887 C903 0.931 . S
C888 H876 0.929 . S
C888 C882 1.390 . S
C888 C885 1.386 . S
C889 C884 1.490 . S
C889 C891 1.395 . S
C889 C892 1.403 . S
H890 C896 0.930 . S
C891 H877 0.930 . S
C891 C889 1.395 . S
C891 C894 1.403 . S
C892 C889 1.403 . S
C892 C893 1.524 . S
C892 C896 1.400 . S
C893 H878 0.960 . S
C893 H879 0.960 . S
C893 H880 0.960 . S
C893 C892 1.524 . S
C894 C891 1.403 . S
C894 C895 1.392 . S
C894 C898 1.495 . S
C895 C894 1.392 . S
C895 C896 1.385 . S
C895 C897 1.478 . S
C896 H890 0.930 . S
C896 C892 1.400 . S
C896 C895 1.385 . S
C897 C895 1.478 . S
C897 C899 1.381 . S
C897 C903 1.383 . S
C898 C894 1.495 . S
C898 H904 0.959 . S
C898 H905 0.961 . S
C898 H906 0.960 . S
C899 C897 1.381 . S
C899 C900 1.394 . S
C899 H907 0.930 . S
C900 C899 1.394 . S
C900 C901 1.383 . S
C900 H908 0.929 1_554 S
C901 C900 1.383 . S
C901 C902 1.377 . S
C902 H886 0.930 . S
C902 C901 1.377 . S
C902 C903 1.379 . S
C903 H887 0.931 . S
C903 C897 1.383 . S
C903 C902 1.379 . S
H904 C898 0.959 . S
H905 C898 0.961 . S
H906 C898 0.960 . S
H907 C899 0.930 . S
H908 C900 0.929 1_556 S
H909 C917 0.929 . S
H910 C919 0.930 . S
H911 C921 0.930 . S
H912 C924 0.929 . S
H913 C927 0.930 . S
H914 C929 0.960 . S
H915 C929 0.960 . S
H916 C929 0.960 . S
C917 H909 0.929 . S
C917 C918 1.377 . S
C917 C919 1.384 . S
C918 C917 1.377 . S
C918 C924 1.390 . S
C919 H910 0.930 . S
C919 C917 1.384 . S
C919 C920 1.372 . S
C920 C919 1.372 . S
C920 C921 1.400 . S
C920 C925 1.490 . S
C921 H911 0.930 . S
C921 C920 1.400 . S
C921 C924 1.386 . S
H922 C938 0.930 . S
H923 C939 0.931 . S
C924 H912 0.929 . S
C924 C918 1.390 . S
C924 C921 1.386 . S
C925 C920 1.490 . S
C925 C927 1.395 . S
C925 C928 1.403 . S
H926 C932 0.930 . S
C927 H913 0.930 . S
C927 C925 1.395 . S
C927 C930 1.403 . S
C928 C925 1.403 . S
C928 C929 1.524 . S
C928 C932 1.400 . S
C929 H914 0.960 . S
C929 H915 0.960 . S
C929 H916 0.960 . S
C929 C928 1.524 . S
C930 C927 1.403 . S
C930 C931 1.392 . S
C930 C934 1.495 . S
C931 C930 1.392 . S
C931 C932 1.385 . S
C931 C933 1.478 . S
C932 H926 0.930 . S
C932 C928 1.400 . S
C932 C931 1.385 . S
C933 C931 1.478 . S
C933 C935 1.381 . S
C933 C939 1.383 . S
C934 C930 1.495 . S
C934 H940 0.959 . S
C934 H941 0.961 . S
C934 H942 0.960 . S
C935 C933 1.381 . S
C935 C936 1.394 . S
C935 H943 0.930 . S
C936 C935 1.394 . S
C936 C937 1.383 . S
C936 H944 0.929 . S
C937 C936 1.383 . S
C937 C938 1.377 . S
C938 H922 0.930 . S
C938 C937 1.377 . S
C938 C939 1.379 . S
C939 H923 0.931 . S
C939 C933 1.383 . S
C939 C938 1.379 . S
H940 C934 0.959 . S
H941 C934 0.961 . S
H942 C934 0.960 . S
H943 C935 0.930 . S
H944 C936 0.929 . S
H945 C953 0.929 . S
H946 C955 0.930 . S
H947 C957 0.930 . S
H948 C960 0.929 . S
H949 C963 0.930 . S
H950 C965 0.960 . S
H951 C965 0.960 . S
H952 C965 0.960 . S
C953 H945 0.929 . S
C953 C954 1.377 . S
C953 C955 1.384 . S
C954 C953 1.377 . S
C954 C960 1.390 . S
C955 H946 0.930 . S
C955 C953 1.384 . S
C955 C956 1.372 . S
C956 C955 1.372 . S
C956 C957 1.400 . S
C956 C961 1.490 . S
C957 H947 0.930 . S
C957 C956 1.400 . S
C957 C960 1.386 . S
H958 C974 0.930 . S
H959 C975 0.931 . S
C960 H948 0.929 . S
C960 C954 1.390 . S
C960 C957 1.386 . S
C961 C956 1.490 . S
C961 C963 1.395 . S
C961 C964 1.403 . S
H962 C968 0.930 . S
C963 H949 0.930 . S
C963 C961 1.395 . S
C963 C966 1.403 . S
C964 C961 1.403 . S
C964 C965 1.524 . S
C964 C968 1.400 . S
C965 H950 0.960 . S
C965 H951 0.960 . S
C965 H952 0.960 . S
C965 C964 1.524 . S
C966 C963 1.403 . S
C966 C967 1.392 . S
C966 C970 1.495 . S
C967 C966 1.392 . S
C967 C968 1.385 . S
C967 C969 1.478 . S
C968 H962 0.930 . S
C968 C964 1.400 . S
C968 C967 1.385 . S
C969 C967 1.478 . S
C969 C971 1.381 . S
C969 C975 1.383 . S
C970 C966 1.495 . S
C970 H976 0.959 . S
C970 H977 0.961 . S
C970 H978 0.960 . S
C971 C969 1.381 . S
C971 C972 1.394 . S
C971 H979 0.930 . S
C972 C971 1.394 . S
C972 C973 1.383 . S
C972 H980 0.929 . S
C973 C972 1.383 . S
C973 C974 1.377 . S
C974 H958 0.930 . S
C974 C973 1.377 . S
C974 C975 1.379 . S
C975 H959 0.931 . S
C975 C969 1.383 . S
C975 C974 1.379 . S
H976 C970 0.959 . S
H977 C970 0.961 . S
H978 C970 0.960 . S
H979 C971 0.930 . S
H980 C972 0.929 . S
H981 C989 0.929 . S
H982 C991 0.930 . S
H983 C993 0.930 . S
H984 C996 0.929 . S
H985 C999 0.930 . S
H986 C1001 0.960 . S
H987 C1001 0.960 . S
H988 C1001 0.960 . S
C989 H981 0.929 . S
C989 C990 1.377 . S
C989 C991 1.384 . S
C990 C989 1.377 . S
C990 C996 1.390 . S
C991 H982 0.930 . S
C991 C989 1.384 . S
C991 C992 1.372 . S
C992 C991 1.372 . S
C992 C993 1.400 . S
C992 C997 1.490 . S
C993 H983 0.930 . S
C993 C992 1.400 . S
C993 C996 1.386 . S
H994 C1010 0.930 . S
H995 C1011 0.931 . S
C996 H984 0.929 . S
C996 C990 1.390 . S
C996 C993 1.386 . S
C997 C992 1.490 . S
C997 C999 1.395 . S
C997 C1000 1.403 . S
H998 C1004 0.930 . S
C999 H985 0.930 . S
C999 C997 1.395 . S
C999 C1002 1.403 1_545 S
C1000 C997 1.403 . S
C1000 C1001 1.524 . S
C1000 C1004 1.400 . S
C1001 H986 0.960 . S
C1001 H987 0.960 . S
C1001 H988 0.960 . S
C1001 C1000 1.524 . S
C1002 C999 1.403 1_565 S
C1002 C1003 1.392 . S
C1002 C1006 1.495 . S
C1003 C1002 1.392 . S
C1003 C1004 1.385 1_565 S
C1003 C1005 1.478 . S
C1004 H998 0.930 . S
C1004 C1000 1.400 . S
C1004 C1003 1.385 1_545 S
C1005 C1003 1.478 . S
C1005 C1007 1.381 . S
C1005 C1011 1.383 . S
C1006 C1002 1.495 . S
C1006 H1012 0.959 . S
C1006 H1013 0.961 . S
C1006 H1014 0.960 . S
C1007 C1005 1.381 . S
C1007 C1008 1.394 . S
C1007 H1015 0.930 . S
C1008 C1007 1.394 . S
C1008 C1009 1.383 . S
C1008 H1016 0.929 . S
C1009 C1008 1.383 . S
C1009 C1010 1.377 . S
C1010 H994 0.930 . S
C1010 C1009 1.377 . S
C1010 C1011 1.379 . S
C1011 H995 0.931 . S
C1011 C1005 1.383 . S
C1011 C1010 1.379 . S
H1012 C1006 0.959 . S
H1013 C1006 0.961 . S
H1014 C1006 0.960 . S
H1015 C1007 0.930 . S
H1016 C1008 0.929 . S
H1017 C1025 0.929 . S
H1018 C1027 0.930 . S
H1019 C1029 0.930 . S
H1020 C1032 0.929 . S
H1021 C1035 0.930 1_655 S
H1022 C1037 0.960 . S
H1023 C1037 0.960 . S
H1024 C1037 0.960 . S
C1025 H1017 0.929 . S
C1025 C1026 1.377 . S
C1025 C1027 1.384 . S
C1026 C1025 1.377 . S
C1026 C1032 1.390 . S
C1027 H1018 0.930 . S
C1027 C1025 1.384 . S
C1027 C1028 1.372 . S
C1028 C1027 1.372 . S
C1028 C1029 1.400 . S
C1028 C1033 1.490 1_655 S
C1029 H1019 0.930 . S
C1029 C1028 1.400 . S
C1029 C1032 1.386 . S
H1030 C1046 0.930 . S
H1031 C1047 0.931 . S
C1032 H1020 0.929 . S
C1032 C1026 1.390 . S
C1032 C1029 1.386 . S
C1033 C1028 1.490 1_455 S
C1033 C1035 1.395 . S
C1033 C1036 1.403 . S
H1034 C1040 0.930 . S
C1035 H1021 0.930 1_455 S
C1035 C1033 1.395 . S
C1035 C1038 1.403 . S
C1036 C1033 1.403 . S
C1036 C1037 1.524 . S
C1036 C1040 1.400 . S
C1037 H1022 0.960 . S
C1037 H1023 0.960 . S
C1037 H1024 0.960 . S
C1037 C1036 1.524 . S
C1038 C1035 1.403 . S
C1038 C1039 1.392 . S
C1038 C1042 1.495 . S
C1039 C1038 1.392 . S
C1039 C1040 1.385 . S
C1039 C1041 1.478 . S
C1040 H1034 0.930 . S
C1040 C1036 1.400 . S
C1040 C1039 1.385 . S
C1041 C1039 1.478 . S
C1041 C1043 1.381 . S
C1041 C1047 1.383 . S
C1042 C1038 1.495 . S
C1042 H1048 0.959 . S
C1042 H1049 0.961 . S
C1042 H1050 0.960 . S
C1043 C1041 1.381 . S
C1043 C1044 1.394 . S
C1043 H1051 0.930 . S
C1044 C1043 1.394 . S
C1044 C1045 1.383 . S
C1044 H1052 0.929 . S
C1045 C1044 1.383 . S
C1045 C1046 1.377 . S
C1046 H1030 0.930 . S
C1046 C1045 1.377 . S
C1046 C1047 1.379 . S
C1047 H1031 0.931 . S
C1047 C1041 1.383 . S
C1047 C1046 1.379 . S
H1048 C1042 0.959 . S
H1049 C1042 0.961 . S
H1050 C1042 0.960 . S
H1051 C1043 0.930 . S
H1052 C1044 0.929 . S
H1053 C1061 0.929 . S
H1054 C1063 0.930 . S
H1055 C1065 0.930 . S
H1056 C1068 0.929 . S
H1057 C1071 0.930 . S
H1058 C1073 0.960 . S
H1059 C1073 0.960 . S
H1060 C1073 0.960 . S
C1061 H1053 0.929 . S
C1061 C1062 1.377 . S
C1061 C1063 1.384 . S
C1062 C1061 1.377 . S
C1062 C1068 1.390 . S
C1063 H1054 0.930 . S
C1063 C1061 1.384 . S
C1063 C1064 1.372 . S
C1064 C1063 1.372 . S
C1064 C1065 1.400 . S
C1064 C1069 1.490 . S
C1065 H1055 0.930 . S
C1065 C1064 1.400 . S
C1065 C1068 1.386 . S
H1066 C1082 0.930 . S
H1067 C1083 0.931 . S
C1068 H1056 0.929 . S
C1068 C1062 1.390 . S
C1068 C1065 1.386 . S
C1069 C1064 1.490 . S
C1069 C1071 1.395 . S
C1069 C1072 1.403 . S
H1070 C1076 0.930 . S
C1071 H1057 0.930 . S
C1071 C1069 1.395 . S
C1071 C1074 1.403 . S
C1072 C1069 1.403 . S
C1072 C1073 1.524 . S
C1072 C1076 1.400 . S
C1073 H1058 0.960 . S
C1073 H1059 0.960 . S
C1073 H1060 0.960 . S
C1073 C1072 1.524 . S
C1074 C1071 1.403 . S
C1074 C1075 1.392 . S
C1074 C1078 1.495 . S
C1075 C1074 1.392 . S
C1075 C1076 1.385 . S
C1075 C1077 1.478 . S
C1076 H1070 0.930 . S
C1076 C1072 1.400 . S
C1076 C1075 1.385 . S
C1077 C1075 1.478 . S
C1077 C1079 1.381 . S
C1077 C1083 1.383 . S
C1078 C1074 1.495 . S
C1078 H1084 0.959 . S
C1078 H1085 0.961 . S
C1078 H1086 0.960 . S
C1079 C1077 1.381 . S
C1079 C1080 1.394 . S
C1079 H1087 0.930 . S
C1080 C1079 1.394 . S
C1080 C1081 1.383 . S
C1080 H1088 0.929 . S
C1081 C1080 1.383 . S
C1081 C1082 1.377 . S
C1082 H1066 0.930 . S
C1082 C1081 1.377 . S
C1082 C1083 1.379 . S
C1083 H1067 0.931 . S
C1083 C1077 1.383 . S
C1083 C1082 1.379 . S
H1084 C1078 0.959 . S
H1085 C1078 0.961 . S
H1086 C1078 0.960 . S
H1087 C1079 0.930 . S
H1088 C1080 0.929 . S
H1089 C1097 0.929 . S
H1090 C1099 0.930 . S
H1091 C1101 0.930 . S
H1092 C1104 0.929 . S
H1093 C1107 0.930 1_565 S
H1094 C1109 0.960 . S
H1095 C1109 0.960 . S
H1096 C1109 0.960 . S
C1097 H1089 0.929 . S
C1097 C1098 1.377 . S
C1097 C1099 1.384 . S
C1098 C1097 1.377 . S
C1098 C1104 1.390 . S
C1099 H1090 0.930 . S
C1099 C1097 1.384 . S
C1099 C1100 1.372 . S
C1100 C1099 1.372 . S
C1100 C1101 1.400 . S
C1100 C1105 1.490 . S
C1101 H1091 0.930 . S
C1101 C1100 1.400 . S
C1101 C1104 1.386 . S
H1102 C1118 0.930 . S
H1103 C1119 0.931 . S
C1104 H1092 0.929 . S
C1104 C1098 1.390 . S
C1104 C1101 1.386 . S
C1105 C1100 1.490 . S
C1105 C1107 1.395 1_565 S
C1105 C1108 1.420 . S
H1106 C1112 0.930 . S
C1107 H1093 0.930 1_545 S
C1107 C1105 1.395 1_545 S
C1107 C1110 1.403 . S
C1108 C1105 1.420 . S
C1108 C1109 1.523 . S
C1108 C1112 1.383 1_565 S
C1109 H1094 0.960 . S
C1109 H1095 0.960 . S
C1109 H1096 0.960 . S
C1109 C1108 1.523 . S
C1110 C1107 1.403 . S
C1110 C1111 1.392 . S
C1110 C1114 1.495 . S
C1111 C1110 1.392 . S
C1111 C1112 1.385 . S
C1111 C1113 1.478 . S
C1112 H1106 0.930 . S
C1112 C1108 1.383 1_545 S
C1112 C1111 1.385 . S
C1113 C1111 1.478 . S
C1113 C1115 1.381 . S
C1113 C1119 1.383 . S
C1114 C1110 1.495 . S
C1114 H1120 0.959 . S
C1114 H1121 0.961 . S
C1114 H1122 0.960 . S
C1115 C1113 1.381 . S
C1115 C1116 1.394 . S
C1115 H1123 0.930 . S
C1116 C1115 1.394 . S
C1116 C1117 1.383 . S
C1116 H1124 0.929 . S
C1117 C1116 1.383 . S
C1117 C1118 1.377 . S
C1118 H1102 0.930 . S
C1118 C1117 1.377 . S
C1118 C1119 1.379 . S
C1119 H1103 0.931 . S
C1119 C1113 1.383 . S
C1119 C1118 1.379 . S
H1120 C1114 0.959 . S
H1121 C1114 0.961 . S
H1122 C1114 0.960 . S
H1123 C1115 0.930 . S
H1124 C1116 0.929 . S
H1125 C1133 0.929 . S
H1126 C1135 0.930 . S
H1127 C1137 0.930 . S
H1128 C1140 0.929 . S
H1129 C1143 0.930 . S
H1130 C1145 0.992 . S
H1131 C1145 0.906 1_655 S
H1132 C1145 0.966 1_655 S
C1133 H1125 0.929 . S
C1133 C1134 1.377 . S
C1133 C1135 1.384 . S
C1134 C1133 1.377 . S
C1134 C1140 1.390 . S
C1135 H1126 0.930 . S
C1135 C1133 1.384 . S
C1135 C1136 1.372 . S
C1136 C1135 1.372 . S
C1136 C1137 1.400 . S
C1136 C1141 1.490 1_655 S
C1137 H1127 0.930 . S
C1137 C1136 1.400 . S
C1137 C1140 1.386 . S
H1138 C1154 0.930 . S
H1139 C1155 0.931 . S
C1140 H1128 0.929 . S
C1140 C1134 1.390 . S
C1140 C1137 1.386 . S
C1141 C1136 1.490 1_455 S
C1141 C1143 1.395 . S
C1141 C1144 1.403 . S
H1142 C1148 0.930 . S
C1143 H1129 0.930 . S
C1143 C1141 1.395 . S
C1143 C1146 1.403 . S
C1144 C1141 1.403 . S
C1144 C1145 1.543 . S
C1144 C1148 1.400 . S
C1145 H1130 0.992 . S
C1145 H1131 0.906 1_455 S
C1145 H1132 0.966 1_455 S
C1145 C1144 1.543 . S
C1146 C1143 1.403 . S
C1146 C1147 1.392 . S
C1146 C1150 1.495 . S
C1147 C1146 1.392 . S
C1147 C1148 1.385 . S
C1147 C1149 1.478 . S
C1148 H1142 0.930 . S
C1148 C1144 1.400 . S
C1148 C1147 1.385 . S
C1149 C1147 1.478 . S
C1149 C1151 1.381 . S
C1149 C1155 1.383 . S
C1150 C1146 1.495 . S
C1150 H1156 0.959 . S
C1150 H1157 0.961 . S
C1150 H1158 0.960 . S
C1151 C1149 1.381 . S
C1151 C1152 1.394 . S
C1151 H1159 0.930 . S
C1152 C1151 1.394 . S
C1152 C1153 1.383 . S
C1152 H1160 0.929 . S
C1153 C1152 1.383 . S
C1153 C1154 1.377 . S
C1154 H1138 0.930 . S
C1154 C1153 1.377 . S
C1154 C1155 1.379 . S
C1155 H1139 0.931 . S
C1155 C1149 1.383 . S
C1155 C1154 1.379 . S
H1156 C1150 0.959 . S
H1157 C1150 0.961 . S
H1158 C1150 0.960 . S
H1159 C1151 0.930 . S
H1160 C1152 0.929 . S
C198 C16 0.841 . S
C217 C13 0.803 . S
C234 C34 0.839 . S
C253 C37 0.812 . S
C270 C58 0.844 . S
C289 C55 0.837 . S
C306 C79 0.827 . S
C325 C76 0.784 . S
C342 C100 0.856 . S
C361 C97 0.915 . S
C378 C121 0.886 . S
C397 C118 0.961 . S
C414 C143 0.683 . S
C433 C144 0.648 . S
C450 C165 0.734 . S
C469 C164 0.730 . S
C486 C185 0.758 . S
C505 C186 0.794 . S
C522 C122 1.480 . S
C541 C17 1.462 . S
C558 C36 1.356 . S
C577 C80 1.337 . S
C594 C59 1.446 . S
C613 C101 1.428 . S
C630 C57 0.983 . S
C649 C140 1.041 . S
C666 C160 0.905 . S
C685 C15 0.924 . S
C702 C182 1.236 . S
C721 C38 1.305 1_556 S
C738 C184 1.080 . S
C757 C18 1.189 1_556 S
C774 C35 0.877 . S
C793 C142 0.834 . S
C810 C162 1.032 . S
C829 C60 1.104 . S
C846 C56 1.421 . S
C865 C77 1.390 . S
C882 C98 1.327 . S
C901 C14 1.358 . S
C918 C39 1.750 . S
C937 C119 1.638 . S
C954 C181 1.038 . S
C973 C78 1.065 . S
C990 C139 0.986 . S
C1009 C99 0.936 . S
C1026 C161 1.136 . S
C1045 C120 1.146 . S
C1062 C141 0.937 . S
C1081 C123 0.997 . S
C1098 C81 1.108 . S
C1117 C163 1.051 . S
C1134 C183 0.930 . S
C1153 C102 0.982 . S
