# Generated by pormake.
# Topology lvt, (4)-cn, num edge types: 1
# Building blocks:
#     Node 0, Type 0, BuildingBlock: NAWXER_clean_sbu_0, # of connection points: 4
#     Node 1, Type 0, BuildingBlock: NAWXER_clean_sbu_0, # of connection points: 4
#     Node 2, Type 0, BuildingBlock: NAWXER_clean_sbu_0, # of connection points: 4
#     Node 3, Type 0, BuildingBlock: NAWXER_clean_sbu_0, # of connection points: 4
#     Node 4, Type 0, BuildingBlock: NAWXER_clean_sbu_0, # of connection points: 4
#     Node 5, Type 0, BuildingBlock: NAWXER_clean_sbu_0, # of connection points: 4
#     Node 6, Type 0, BuildingBlock: NAWXER_clean_sbu_0, # of connection points: 4
#     Node 7, Type 0, BuildingBlock: NAWXER_clean_sbu_0, # of connection points: 4
#     Edge 8, Type (0, 0), BuildingBlock: FUNLAD_clean_linker_0, # of connection points: 2
#     Edge 9, Type (0, 0), BuildingBlock: FUNLAD_clean_linker_0, # of connection points: 2
#     Edge 10, Type (0, 0), BuildingBlock: FUNLAD_clean_linker_0, # of connection points: 2
#     Edge 11, Type (0, 0), BuildingBlock: FUNLAD_clean_linker_0, # of connection points: 2
#     Edge 12, Type (0, 0), BuildingBlock: FUNLAD_clean_linker_0, # of connection points: 2
#     Edge 13, Type (0, 0), BuildingBlock: FUNLAD_clean_linker_0, # of connection points: 2
#     Edge 14, Type (0, 0), BuildingBlock: FUNLAD_clean_linker_0, # of connection points: 2
#     Edge 15, Type (0, 0), BuildingBlock: FUNLAD_clean_linker_0, # of connection points: 2
#     Edge 16, Type (0, 0), BuildingBlock: FUNLAD_clean_linker_0, # of connection points: 2
#     Edge 17, Type (0, 0), BuildingBlock: FUNLAD_clean_linker_0, # of connection points: 2
#     Edge 18, Type (0, 0), BuildingBlock: FUNLAD_clean_linker_0, # of connection points: 2
#     Edge 19, Type (0, 0), BuildingBlock: FUNLAD_clean_linker_0, # of connection points: 2
#     Edge 20, Type (0, 0), BuildingBlock: FUNLAD_clean_linker_0, # of connection points: 2
#     Edge 21, Type (0, 0), BuildingBlock: FUNLAD_clean_linker_0, # of connection points: 2
#     Edge 22, Type (0, 0), BuildingBlock: FUNLAD_clean_linker_0, # of connection points: 2
#     Edge 23, Type (0, 0), BuildingBlock: FUNLAD_clean_linker_0, # of connection points: 2
# Relax obj value: 0.000
# Max RMSD: 0.000
# Mean RMSD: 0.000
data_MOF--net-lvt--node1-NAWXER_clean_sbu_0--edge1-FUNLAD_clean_linker_0
_symmetry_space_group_name_H-M    P1
_symmetry_Int_Tables_number       1
_symmetry_cell_setting            triclinic
loop_
_symmetry_equiv_pos_as_xyz
'x, y, z'
_cell_length_a     44.722162
_cell_length_b     45.318756
_cell_length_c     25.306689
_cell_angle_alpha  90.354923
_cell_angle_beta   90.396852
_cell_angle_gamma 90.116756
loop_
_atom_site_label
_atom_site_type_symbol
_atom_site_fract_x
_atom_site_fract_y
_atom_site_fract_z
_atom_type_partial_charge
C0 C 0.97579 0.99974 0.60915 0.0
C1 C 0.06141 0.05898 0.55387 0.0
O2 O 0.98592 0.9924 0.56362 0.0
Zn3 Zn 0.02077 1.00546 0.51057 0.0
O4 O 0.98755 0.02131 0.63418 0.0
Zn5 Zn 0.01749 0.03069 0.58173 0.0
O6 O 0.991 0.04659 0.51677 0.0
O7 O 0.99915 0.01788 0.44771 0.0
O8 O 0.0457 0.06266 0.59505 0.0
O9 O 0.05422 0.03875 0.5205 0.0
O10 O 0.04465 0.96994 0.50823 0.0
O11 O 0.04506 0.99194 0.58631 0.0
C12 C 0.98603 0.03999 0.4681 0.0
C13 C 0.05339 0.97067 0.55618 0.0
C14 C 0.21828 0.7694 0.7118 0.0
C15 C 0.28679 0.69638 0.78736 0.0
O16 O 0.24016 0.76261 0.68173 0.0
Zn17 Zn 0.27876 0.73514 0.68184 0.0
O18 O 0.21647 0.75797 0.75748 0.0
Zn19 Zn 0.25191 0.73316 0.75196 0.0
O20 O 0.28701 0.76495 0.7545 0.0
O21 O 0.31149 0.76373 0.67922 0.0
O22 O 0.2634 0.70681 0.80884 0.0
O23 O 0.29417 0.70509 0.7411 0.0
O24 O 0.26931 0.7094 0.62179 0.0
O25 O 0.23938 0.70318 0.68994 0.0
C26 C 0.30808 0.77463 0.72527 0.0
C27 C 0.24715 0.69636 0.64275 0.0
C28 C 0.46247 0.96631 0.95139 0.0
C29 C 0.53575 0.0333 0.03306 0.0
O30 O 0.4698 0.9879 0.9216 0.0
Zn31 Zn 0.49797 0.02623 0.92455 0.0
O32 O 0.47306 0.96505 0.99813 0.0
Zn33 Zn 0.49753 1.00044 0.99524 0.0
O34 O 0.46534 0.03485 0.99315 0.0
O35 O 0.47009 0.05912 0.91849 0.0
O36 O 0.52263 0.01179 0.05521 0.0
O37 O 0.52852 0.04036 0.98565 0.0
O38 O 0.52537 0.0169 0.86731 0.0
O39 O 0.52985 0.98799 0.93698 0.0
C40 C 0.45702 0.05571 0.9625 0.0
C41 C 0.5382 0.99548 0.89056 0.0
C42 C 0.28888 0.22249 0.20814 0.0
C43 C 0.22156 0.29539 0.28578 0.0
O44 O 0.26599 0.23414 0.18675 0.0
Zn45 Zn 0.25524 0.25916 0.24562 0.0
O46 O 0.29626 0.22983 0.2556 0.0
Zn47 Zn 0.28076 0.2593 0.31716 0.0
O48 O 0.27068 0.23243 0.37396 0.0
O49 O 0.24145 0.22787 0.30369 0.0
O50 O 0.24268 0.28786 0.31742 0.0
O51 O 0.22066 0.28448 0.23941 0.0
O52 O 0.29196 0.28926 0.24754 0.0
O53 O 0.31417 0.28669 0.32549 0.0
C54 C 0.24875 0.21993 0.35058 0.0
C55 C 0.31267 0.29771 0.27946 0.0
C56 C 0.74433 0.27125 0.13252 0.0
C57 C 0.81639 0.20354 0.21476 0.0
O58 O 0.76597 0.25868 0.10895 0.0
Zn59 Zn 0.78107 0.23719 0.17057 0.0
O60 O 0.74037 0.26676 0.1819 0.0
Zn61 Zn 0.75937 0.24291 0.24602 0.0
O62 O 0.77241 0.27508 0.2925 0.0
O63 O 0.79781 0.27269 0.21818 0.0
O64 O 0.79701 0.21423 0.24663 0.0
O65 O 0.81535 0.21055 0.16615 0.0
O66 O 0.74488 0.20769 0.1856 0.0
O67 O 0.72628 0.21667 0.26457 0.0
C68 C 0.7929 0.28515 0.26288 0.0
C69 C 0.72578 0.20187 0.22163 0.0
C70 C 0.79828 0.73332 0.72937 0.0
C71 C 0.72083 0.80549 0.77263 0.0
O72 O 0.77842 0.7439 0.69876 0.0
Zn73 Zn 0.75946 0.77018 0.74911 0.0
O74 O 0.79979 0.74236 0.77742 0.0
Zn75 Zn 0.77688 0.77266 0.82802 0.0
O76 O 0.76138 0.74689 0.88248 0.0
O77 O 0.73983 0.74033 0.80452 0.0
O78 O 0.73823 0.79937 0.81156 0.0
O79 O 0.72519 0.79361 0.72765 0.0
O80 O 0.79177 0.80409 0.76255 0.0
O81 O 0.80741 0.80201 0.84532 0.0
C82 C 0.74219 0.7336 0.85353 0.0
C83 C 0.80818 0.81419 0.80023 0.0
C84 C 0.48137 0.53118 0.97412 0.0
C85 C 0.56319 0.46657 0.02722 0.0
O86 O 0.49048 0.53709 0.02125 0.0
Zn87 Zn 0.52445 0.52069 0.07483 0.0
O88 O 0.49404 0.51075 0.94811 0.0
Zn89 Zn 0.52256 0.49897 1.00094 0.0
O90 O 0.49489 0.48024 0.06152 0.0
O91 O 0.50149 0.50669 0.13414 0.0
O92 O 0.54886 0.46673 0.9837 0.0
O93 O 0.5563 0.48521 0.0636 0.0
O94 O 0.55013 0.55455 0.08587 0.0
O95 O 0.55317 0.53563 0.0056 0.0
C96 C 0.48901 0.48514 0.11036 0.0
C97 C 0.56162 0.55482 0.04012 0.0
C98 C 0.95611 0.49046 0.41246 0.0
C99 C 0.04583 0.55109 0.44417 0.0
O100 O 0.96814 0.50793 0.37953 0.0
Zn101 Zn 0.99984 0.52272 0.42616 0.0
O102 O 0.96703 0.48847 0.45924 0.0
Zn103 Zn 1.00284 0.50622 0.50586 0.0
O104 O 0.98182 0.52751 0.5616 0.0
O105 O 0.97559 0.5475 0.48312 0.0
O106 O 0.0377 0.53562 0.48374 0.0
O107 O 0.02992 0.55118 0.40228 0.0
O108 O 0.02575 0.48355 0.43644 0.0
O109 O 0.02616 0.4709 0.52069 0.0
C110 C 0.97028 0.54744 0.53279 0.0
C111 C 0.03416 0.46603 0.47321 0.0
C112 C 0.10934 0.06786 0.50694 0.0
C113 C 0.08789 0.07762 0.54335 0.0
C114 C 0.13339 0.08582 0.49337 0.0
C115 C 0.1363 0.11437 0.51501 0.0
C116 C 0.11572 0.12359 0.55346 0.0
C117 C 0.09171 0.10537 0.56759 0.0
C118 C 0.15994 0.13514 0.49687 0.0
C119 C 0.17112 0.13379 0.44754 0.0
C120 C 0.19229 0.15558 0.42494 0.0
C121 C 0.19301 0.15835 0.3698 0.0
C122 C 0.21177 0.17885 0.34604 0.0
C123 C 0.23071 0.19691 0.37678 0.0
H124 H 0.21233 0.17108 0.49855 0.0
C125 C 0.23087 0.19357 0.432 0.0
C126 C 0.21172 0.17313 0.45598 0.0
H127 H 0.24529 0.20716 0.45668 0.0
H128 H 0.10747 0.04628 0.48852 0.0
H129 H 0.1495 0.07724 0.46556 0.0
H130 H 0.11764 0.1453 0.57134 0.0
H131 H 0.07565 0.11338 0.5961 0.0
H132 H 0.16621 0.15327 0.52294 0.0
H133 H 0.16249 0.11721 0.42025 0.0
H134 H 0.17854 0.14494 0.34483 0.0
H135 H 0.21124 0.18065 0.30338 0.0
C136 C 0.08256 0.92359 0.54652 0.0
C137 C 0.0723 0.94689 0.57836 0.0
C138 C 0.09995 0.901 0.56827 0.0
C139 C 0.10725 0.9011 0.62264 0.0
C140 C 0.09716 0.9246 0.65411 0.0
C141 C 0.07989 0.94716 0.63238 0.0
C142 C 0.12612 0.878 0.648 0.0
C143 C 0.1326 0.85181 0.6255 0.0
C144 C 0.15353 0.83029 0.64964 0.0
C145 C 0.17108 0.81299 0.61596 0.0
C146 C 0.19188 0.79323 0.63654 0.0
C147 C 0.19521 0.78979 0.69144 0.0
H148 H 0.14253 0.83902 0.73178 0.0
C149 C 0.17691 0.80628 0.72543 0.0
C150 C 0.15633 0.82655 0.70472 0.0
H151 H 0.17889 0.80393 0.76788 0.0
H152 H 0.07727 0.92283 0.50469 0.0
H153 H 0.10787 0.88395 0.54188 0.0
H154 H 0.10257 0.92551 0.6959 0.0
H155 H 0.0724 0.96477 0.65817 0.0
H156 H 0.13547 0.88314 0.68673 0.0
H157 H 0.12389 0.8463 0.5866 0.0
H158 H 0.16917 0.81522 0.57345 0.0
H159 H 0.20539 0.78057 0.60922 0.0
C160 C 0.43242 0.94412 0.87729 0.0
C161 C 0.44304 0.94251 0.92968 0.0
C162 C 0.41524 0.9213 0.85532 0.0
C163 C 0.40834 0.89613 0.88514 0.0
C164 C 0.41843 0.89478 0.93783 0.0
C165 C 0.4357 0.91763 0.95984 0.0
C166 C 0.38958 0.87161 0.86348 0.0
C167 C 0.38625 0.86578 0.81132 0.0
C168 C 0.36628 0.8421 0.78999 0.0
C169 C 0.37133 0.83061 0.73904 0.0
C170 C 0.35254 0.80873 0.71755 0.0
C171 C 0.32814 0.79807 0.74651 0.0
H172 H 0.33609 0.84063 0.85694 0.0
C173 C 0.32289 0.80993 0.79712 0.0
C174 C 0.34157 0.83169 0.81849 0.0
H175 H 0.30413 0.80253 0.82046 0.0
H176 H 0.43743 0.96304 0.85294 0.0
H177 H 0.40708 0.92381 0.81527 0.0
H178 H 0.41314 0.87584 0.96199 0.0
H179 H 0.44347 0.91568 1.0003 0.0
H180 H 0.37889 0.85735 0.89204 0.0
H181 H 0.39919 0.87818 0.78288 0.0
H182 H 0.38997 0.83847 0.71588 0.0
H183 H 0.35717 0.80016 0.67841 0.0
C184 C 0.30282 0.19551 0.1245 0.0
C185 C 0.30752 0.20102 0.17871 0.0
C186 C 0.32115 0.17566 0.09705 0.0
C187 C 0.34452 0.16091 0.12344 0.0
C188 C 0.34885 0.16622 0.17765 0.0
C189 C 0.33075 0.18611 0.20488 0.0
C190 C 0.36419 0.13895 0.09708 0.0
C191 C 0.36925 0.13757 0.04461 0.0
C192 C 0.39014 0.11558 0.02124 0.0
C193 C 0.4061 0.1225 0.97526 0.0
C194 C 0.42737 0.10283 0.95489 0.0
C195 C 0.4329 0.07581 0.98011 0.0
H196 H 0.38185 0.08108 0.07865 0.0
C197 C 0.41584 0.06836 0.02454 0.0
C198 C 0.39462 0.08785 0.04462 0.0
H199 H 0.41904 0.04747 0.04436 0.0
H200 H 0.28505 0.20659 0.1032 0.0
H201 H 0.31661 0.17163 0.05559 0.0
H202 H 0.36649 0.15502 0.19915 0.0
H203 H 0.33498 0.18969 0.24662 0.0
H204 H 0.37639 0.12415 0.123 0.0
H205 H 0.35956 0.15399 0.01859 0.0
H206 H 0.40277 0.14353 0.95599 0.0
H207 H 0.44001 0.10913 0.92038 0.0
C208 C 0.9456 0.98268 0.68702 0.0
C209 C 0.95163 0.98179 0.63255 0.0
C210 C 0.92448 0.96342 0.7089 0.0
C211 C 0.90897 0.94306 0.67648 0.0
C212 C 0.91435 0.94306 0.62193 0.0
C213 C 0.93548 0.962 0.60028 0.0
C214 C 0.88675 0.92159 0.69688 0.0
C215 C 0.88537 0.91217 0.7473 0.0
C216 C 0.86417 0.88856 0.76374 0.0
C217 C 0.8714 0.87032 0.80676 0.0
C218 C 0.85291 0.84646 0.82005 0.0
C219 C 0.82696 0.84043 0.79027 0.0
H220 H 0.82984 0.89778 0.70474 0.0
C221 C 0.81905 0.85952 0.749 0.0
C222 C 0.83715 0.88346 0.73632 0.0
H223 H 0.79874 0.85594 0.72622 0.0
H224 H 0.95766 0.99774 0.71287 0.0
H225 H 0.92039 0.96464 0.75093 0.0
H226 H 0.90255 0.92789 0.59586 0.0
H227 H 0.93939 0.96085 0.55812 0.0
H228 H 0.87223 0.91142 0.66741 0.0
H229 H 0.90158 0.92009 0.77622 0.0
H230 H 0.89183 0.87399 0.82911 0.0
H231 H 0.8594 0.83225 0.85239 0.0
C232 C 0.9634 0.0564 0.38144 0.0
C233 C 0.9646 0.05793 0.437 0.0
C234 C 0.94308 0.07388 0.35296 0.0
C235 C 0.92337 0.09291 0.37975 0.0
C236 C 0.9244 0.09398 0.43515 0.0
C237 C 0.94487 0.07697 0.46338 0.0
C238 C 0.90079 0.11156 0.35246 0.0
C239 C 0.90331 0.12201 0.30282 0.0
C240 C 0.88143 0.14341 0.28004 0.0
C241 C 0.87769 0.14544 0.22492 0.0
C242 C 0.85693 0.16524 0.20302 0.0
C243 C 0.83959 0.18339 0.236 0.0
H244 H 0.86801 0.16299 0.355 0.0
C245 C 0.8441 0.18195 0.29092 0.0
C246 C 0.86486 0.16252 0.3126 0.0
H247 H 0.83164 0.19605 0.31754 0.0
H248 H 0.97826 0.04186 0.36 0.0
H249 H 0.94252 0.07201 0.31033 0.0
H250 H 0.90941 0.10829 0.45687 0.0
H251 H 0.94499 0.07857 0.50611 0.0
H252 H 0.88166 0.11799 0.376 0.0
H253 H 0.92193 0.11517 0.27836 0.0
H254 H 0.89051 0.1314 0.19878 0.0
H255 H 0.85411 0.16596 0.16051 0.0
C256 C 0.70174 0.16538 0.16064 0.0
C257 C 0.70271 0.17894 0.21072 0.0
C258 C 0.67952 0.14496 0.1477 0.0
C259 C 0.6577 0.13692 0.1848 0.0
C260 C 0.65862 0.1504 0.23507 0.0
C261 C 0.68093 0.17117 0.24801 0.0
C262 C 0.63272 0.11627 0.17055 0.0
C263 C 0.63432 0.09718 0.12952 0.0
C264 C 0.60835 0.08076 0.10725 0.0
C265 C 0.60707 0.07674 0.05231 0.0
C266 C 0.58328 0.06161 0.02872 0.0
C267 C 0.56054 0.04933 0.05963 0.0
H268 H 0.58627 0.071 0.18118 0.0
C269 C 0.562 0.05269 0.1149 0.0
C270 C 0.58558 0.06864 0.13859 0.0
H271 H 0.54475 0.04337 0.13962 0.0
H272 H 0.71782 0.17102 0.1305 0.0
H273 H 0.6792 0.13645 0.10772 0.0
H274 H 0.64189 0.14502 0.26426 0.0
H275 H 0.68091 0.18134 0.28684 0.0
H276 H 0.61208 0.11793 0.19275 0.0
H277 H 0.65501 0.09506 0.10776 0.0
H278 H 0.62439 0.08573 0.02731 0.0
H279 H 0.58296 0.05917 0.9861 0.0
C280 C 0.58102 0.9609 0.89657 0.0
C281 C 0.562 0.97803 0.86488 0.0
C282 C 0.60125 0.9414 0.87384 0.0
C283 C 0.60272 0.9381 0.81863 0.0
C284 C 0.58509 0.95652 0.78665 0.0
C285 C 0.56476 0.97635 0.80961 0.0
C286 C 0.62263 0.91547 0.79467 0.0
C287 C 0.6275 0.88952 0.81903 0.0
C288 C 0.6505 0.86758 0.80372 0.0
C289 C 0.66169 0.84918 0.84354 0.0
C290 C 0.68421 0.82892 0.83284 0.0
C291 C 0.69575 0.82603 0.78166 0.0
H292 H 0.653 0.87789 0.72013 0.0
C293 C 0.6839 0.8436 0.74099 0.0
C294 C 0.66156 0.86446 0.75201 0.0
H295 H 0.69241 0.84174 0.70114 0.0
H296 H 0.57997 0.96218 0.9393 0.0
H297 H 0.61556 0.92872 0.89981 0.0
H298 H 0.58626 0.95483 0.744 0.0
H299 H 0.55048 0.98943 0.78423 0.0
H300 H 0.63363 0.92056 0.75773 0.0
H301 H 0.61534 0.88482 0.85507 0.0
H302 H 0.65347 0.85094 0.88362 0.0
H303 H 0.69266 0.81549 0.86491 0.0
C304 C 0.60151 0.5729 0.97975 0.0
C305 C 0.58508 0.57653 0.02644 0.0
C306 C 0.62361 0.59316 0.96603 0.0
C307 C 0.62952 0.61798 0.99821 0.0
C308 C 0.61363 0.62123 0.04561 0.0
C309 C 0.5916 0.60073 0.05962 0.0
C310 C 0.65215 0.64064 0.98346 0.0
C311 C 0.65978 0.64565 0.93283 0.0
C312 C 0.68144 0.66846 0.91509 0.0
C313 C 0.68152 0.67562 0.86124 0.0
C314 C 0.70135 0.69654 0.84167 0.0
C315 C 0.72188 0.71091 0.87539 0.0
H316 H 0.70342 0.67724 0.99061 0.0
C317 C 0.72219 0.70363 0.92933 0.0
C318 C 0.7022 0.68255 0.94907 0.0
H319 H 0.73783 0.71422 0.9563 0.0
H320 H 0.5975 0.55418 0.9538 0.0
H321 H 0.63617 0.58897 0.93041 0.0
H322 H 0.61794 0.63991 0.0715 0.0
H323 H 0.57949 0.60403 0.09609 0.0
H324 H 0.66128 0.65445 0.01483 0.0
H325 H 0.64844 0.63332 0.9017 0.0
H326 H 0.666 0.66505 0.83397 0.0
H327 H 0.70044 0.70147 0.79986 0.0
C328 C 0.69656 0.29911 0.12983 0.0
C329 C 0.72356 0.29157 0.10509 0.0
C330 C 0.67776 0.32037 0.1083 0.0
C331 C 0.68555 0.33501 0.06161 0.0
C332 C 0.71164 0.32637 0.03498 0.0
C333 C 0.73062 0.30484 0.05666 0.0
C334 C 0.66657 0.35938 0.04106 0.0
C335 C 0.65244 0.37799 0.07436 0.0
C336 C 0.63139 0.40174 0.05844 0.0
C337 C 0.62426 0.42344 0.09611 0.0
C338 C 0.6026 0.44472 0.08545 0.0
C339 C 0.58729 0.44478 0.03681 0.0
H340 H 0.62098 0.38541 0.97947 0.0
C341 C 0.59476 0.42344 0.99849 0.0
C342 C 0.61658 0.40208 0.00917 0.0
H343 H 0.58334 0.42286 0.96061 0.0
H344 H 0.69001 0.28885 0.16655 0.0
H345 H 0.65718 0.32545 0.12868 0.0
H346 H 0.71785 0.33698 0.99841 0.0
H347 H 0.75117 0.29934 0.03651 0.0
H348 H 0.66517 0.36251 0.99863 0.0
H349 H 0.65673 0.37596 0.11653 0.0
H350 H 0.63518 0.42367 0.13448 0.0
H351 H 0.59753 0.46084 0.11586 0.0
C352 C 0.8041 0.32863 0.32282 0.0
C353 C 0.81092 0.31147 0.27807 0.0
C354 C 0.82093 0.35398 0.33515 0.0
C355 C 0.84514 0.36254 0.30308 0.0
C356 C 0.85175 0.34526 0.25849 0.0
C357 C 0.83497 0.32014 0.24616 0.0
C358 C 0.86435 0.38895 0.31389 0.0
C359 C 0.86412 0.40491 0.35902 0.0
C360 C 0.88609 0.42891 0.37079 0.0
C361 C 0.8931 0.43506 0.42381 0.0
C362 C 0.91516 0.45569 0.437 0.0
C363 C 0.93062 0.47106 0.39748 0.0
H364 H 0.89505 0.44193 0.28978 0.0
C365 C 0.9226 0.46613 0.34437 0.0
C366 C 0.90054 0.44525 0.33109 0.0
H367 H 0.93392 0.47777 0.31303 0.0
H368 H 0.78556 0.3227 0.34796 0.0
H369 H 0.81452 0.36673 0.36943 0.0
H370 H 0.87014 0.35113 0.23292 0.0
H371 H 0.84094 0.30754 0.2113 0.0
H372 H 0.88081 0.39429 0.28409 0.0
H373 H 0.84923 0.39873 0.39071 0.0
H374 H 0.88213 0.42317 0.45526 0.0
H375 H 0.92049 0.45915 0.47841 0.0
C376 C 0.81695 0.69828 0.65956 0.0
C377 C 0.8193 0.71026 0.71076 0.0
C378 C 0.83655 0.67608 0.64286 0.0
C379 C 0.85918 0.66556 0.67695 0.0
C380 C 0.86123 0.67738 0.72823 0.0
C381 C 0.84165 0.69948 0.7449 0.0
C382 C 0.88062 0.64199 0.66115 0.0
C383 C 0.8875 0.63591 0.61048 0.0
C384 C 0.90959 0.6132 0.59345 0.0
C385 C 0.91986 0.61423 0.54125 0.0
C386 C 0.93984 0.59318 0.52227 0.0
C387 C 0.95013 0.5703 0.55492 0.0
H388 H 0.91218 0.58821 0.66664 0.0
C389 C 0.94012 0.5692 0.6074 0.0
C390 C 0.91995 0.59035 0.6265 0.0
H391 H 0.94743 0.55172 0.63344 0.0
H392 H 0.79977 0.7058 0.63249 0.0
H393 H 0.83344 0.66696 0.60362 0.0
H394 H 0.87821 0.66961 0.75552 0.0
H395 H 0.84405 0.70807 0.78475 0.0
H396 H 0.89221 0.63054 0.69272 0.0
H397 H 0.87754 0.64913 0.57941 0.0
H398 H 0.9123 0.63141 0.51475 0.0
H399 H 0.94703 0.5948 0.4816 0.0
C400 C 0.45083 0.44492 0.10931 0.0
C401 C 0.46809 0.46532 0.13829 0.0
C402 C 0.43168 0.42542 0.13486 0.0
C403 C 0.42965 0.4254 0.1904 0.0
C404 C 0.44631 0.44636 0.21937 0.0
C405 C 0.46539 0.46612 0.19362 0.0
C406 C 0.40963 0.4045 0.21867 0.0
C407 C 0.40098 0.37849 0.19738 0.0
C408 C 0.37842 0.35857 0.22095 0.0
C409 C 0.36082 0.34149 0.18642 0.0
C410 C 0.33937 0.32216 0.20583 0.0
C411 C 0.33536 0.31889 0.26049 0.0
H412 H 0.3882 0.36798 0.30354 0.0
C413 C 0.35328 0.3356 0.29546 0.0
C414 C 0.37453 0.35553 0.27584 0.0
H415 H 0.35075 0.33341 0.33779 0.0
H416 H 0.45192 0.44405 0.06657 0.0
H417 H 0.41822 0.41078 0.11055 0.0
H418 H 0.44485 0.4472 0.26206 0.0
H419 H 0.4783 0.4817 0.21709 0.0
H420 H 0.40157 0.41095 0.25743 0.0
H421 H 0.40948 0.37185 0.15907 0.0
H422 H 0.36348 0.34327 0.14401 0.0
H423 H 0.32619 0.30941 0.17775 0.0
C424 C 0.33221 0.66437 0.79055 0.0
C425 C 0.30639 0.67514 0.81546 0.0
C426 C 0.35178 0.64551 0.81697 0.0
C427 C 0.34595 0.63657 0.86906 0.0
C428 C 0.32014 0.64732 0.89406 0.0
C429 C 0.30047 0.6663 0.86751 0.0
C430 C 0.36718 0.61748 0.899 0.0
C431 C 0.38645 0.59885 0.87515 0.0
C432 C 0.40953 0.58103 0.9032 0.0
C433 C 0.42313 0.55767 0.87571 0.0
C434 C 0.44618 0.54136 0.89886 0.0
C435 C 0.45639 0.5481 0.95018 0.0
H436 H 0.41039 0.60595 0.97701 0.0
C437 C 0.44271 0.57134 0.97801 0.0
C438 C 0.41961 0.5877 0.95479 0.0
H439 H 0.45011 0.57721 0.01754 0.0
H440 H 0.33771 0.67091 0.75067 0.0
H441 H 0.37188 0.63874 0.79673 0.0
H442 H 0.31523 0.64109 0.93435 0.0
H443 H 0.28089 0.67432 0.88798 0.0
H444 H 0.36634 0.61857 0.9418 0.0
H445 H 0.38513 0.59598 0.83258 0.0
H446 H 0.41605 0.55212 0.83583 0.0
H447 H 0.45616 0.52362 0.87624 0.0
C448 C 0.22612 0.67487 0.55799 0.0
C449 C 0.229 0.67427 0.61337 0.0
C450 C 0.20581 0.65593 0.53194 0.0
C451 C 0.18835 0.63591 0.56101 0.0
C452 C 0.19237 0.63462 0.61598 0.0
C453 C 0.21218 0.65366 0.64185 0.0
C454 C 0.16576 0.61574 0.53666 0.0
C455 C 0.15152 0.62028 0.49016 0.0
C456 C 0.12622 0.60105 0.47205 0.0
C457 C 0.1034 0.61276 0.4398 0.0
C458 C 0.07764 0.59611 0.42788 0.0
C459 C 0.07429 0.5676 0.44844 0.0
H460 H 0.14133 0.56103 0.51106 0.0
C461 C 0.0979 0.55528 0.47766 0.0
C462 C 0.1237 0.57156 0.48863 0.0
H463 H 0.0962 0.53305 0.49291 0.0
H464 H 0.23878 0.69059 0.53506 0.0
H465 H 0.20384 0.65708 0.48937 0.0
H466 H 0.17953 0.61925 0.63942 0.0
H467 H 0.214 0.65249 0.6845 0.0
H468 H 0.15863 0.59751 0.56121 0.0
H469 H 0.15645 0.63993 0.46746 0.0
H470 H 0.10492 0.63523 0.42572 0.0
H471 H 0.05978 0.60605 0.40503 0.0
C472 C 0.19751 0.32502 0.35765 0.0
C473 C 0.19801 0.31582 0.30445 0.0
C474 C 0.17498 0.34369 0.37607 0.0
C475 C 0.15238 0.35359 0.34163 0.0
C476 C 0.15317 0.34477 0.28832 0.0
C477 C 0.1756 0.32593 0.26995 0.0
C478 C 0.12846 0.37414 0.35904 0.0
C479 C 0.11887 0.37657 0.4094 0.0
C480 C 0.09533 0.39785 0.42617 0.0
C481 C 0.09392 0.40677 0.47947 0.0
C482 C 0.07324 0.42814 0.49581 0.0
C483 C 0.05368 0.44097 0.45896 0.0
H484 H 0.07354 0.40231 0.3494 0.0
C485 C 0.05411 0.43097 0.40631 0.0
C486 C 0.07443 0.40951 0.39018 0.0
H487 H 0.03884 0.43997 0.37718 0.0
H488 H 0.21452 0.31776 0.3853 0.0
H489 H 0.1758 0.3507 0.41699 0.0
H490 H 0.13621 0.35231 0.26078 0.0
H491 H 0.17537 0.31934 0.22873 0.0
H492 H 0.11849 0.38765 0.32845 0.0
H493 H 0.129 0.36313 0.43998 0.0
H494 H 0.10941 0.39782 0.50827 0.0
H495 H 0.07334 0.43537 0.53668 0.0
loop_
_geom_bond_atom_site_label_1
_geom_bond_atom_site_label_2
_geom_bond_distance
_geom_bond_site_symmetry_2
_ccdc_geom_bond_type
C0 O2 1.247 . S
C0 O4 1.258 . S
C1 O8 1.247 . S
C1 O9 1.258 . S
O2 C0 1.247 . S
O2 Zn3 2.030 1_655 S
Zn3 O2 2.030 1_455 S
Zn3 O7 2.037 1_465 S
Zn3 O9 2.033 1_565 S
Zn3 O10 2.026 . S
O4 C0 1.258 . S
O4 Zn5 2.033 1_665 S
Zn5 O4 2.033 1_445 S
Zn5 O6 2.026 1_455 S
Zn5 O8 2.030 . S
Zn5 O11 2.037 1_545 S
O6 Zn5 2.026 1_655 S
O6 C12 1.247 . S
O7 Zn3 2.037 1_645 S
O7 C12 1.258 . S
O8 C1 1.247 . S
O8 Zn5 2.030 . S
O9 C1 1.258 . S
O9 Zn3 2.033 1_545 S
O10 Zn3 2.026 . S
O10 C13 1.247 . S
O11 Zn5 2.037 1_565 S
O11 C13 1.258 . S
C12 O6 1.247 . S
C12 O7 1.258 . S
C13 O10 1.247 . S
C13 O11 1.258 . S
C14 O16 1.247 . S
C14 O18 1.258 . S
C15 O22 1.247 . S
C15 O23 1.258 . S
O16 C14 1.247 . S
O16 Zn17 2.028 . S
Zn17 O16 2.028 . S
Zn17 O21 2.035 . S
Zn17 O23 2.035 . S
Zn17 O24 2.028 . S
O18 C14 1.258 . S
O18 Zn19 2.035 . S
Zn19 O18 2.035 . S
Zn19 O20 2.028 . S
Zn19 O22 2.028 . S
Zn19 O25 2.035 . S
O20 Zn19 2.028 . S
O20 C26 1.247 . S
O21 Zn17 2.035 . S
O21 C26 1.258 . S
O22 C15 1.247 . S
O22 Zn19 2.028 . S
O23 C15 1.258 . S
O23 Zn17 2.035 . S
O24 Zn17 2.028 . S
O24 C27 1.247 . S
O25 Zn19 2.035 . S
O25 C27 1.258 . S
C26 O20 1.247 . S
C26 O21 1.258 . S
C27 O24 1.247 . S
C27 O25 1.258 . S
C28 O30 1.247 . S
C28 O32 1.258 1_556 S
C29 O36 1.247 . S
C29 O37 1.258 1_554 S
O30 C28 1.247 . S
O30 Zn31 2.028 1_565 S
Zn31 O30 2.028 1_545 S
Zn31 O35 2.035 . S
Zn31 O37 2.035 . S
Zn31 O38 2.028 1_545 S
O32 C28 1.258 1_554 S
O32 Zn33 2.035 . S
Zn33 O32 2.035 . S
Zn33 O34 2.028 1_565 S
Zn33 O36 2.028 1_565 S
Zn33 O39 2.035 . S
O34 Zn33 2.028 1_545 S
O34 C40 1.247 . S
O35 Zn31 2.035 . S
O35 C40 1.258 1_556 S
O36 C29 1.247 . S
O36 Zn33 2.028 1_545 S
O37 C29 1.258 1_556 S
O37 Zn31 2.035 . S
O38 Zn31 2.028 1_565 S
O38 C41 1.247 . S
O39 Zn33 2.035 . S
O39 C41 1.258 1_554 S
C40 O34 1.247 . S
C40 O35 1.258 1_554 S
C41 O38 1.247 . S
C41 O39 1.258 1_556 S
C42 O44 1.247 . S
C42 O46 1.258 . S
C43 O50 1.247 . S
C43 O51 1.258 . S
O44 C42 1.247 . S
O44 Zn45 2.028 . S
Zn45 O44 2.028 . S
Zn45 O49 2.035 . S
Zn45 O51 2.035 . S
Zn45 O52 2.028 . S
O46 C42 1.258 . S
O46 Zn47 2.035 . S
Zn47 O46 2.035 . S
Zn47 O48 2.028 . S
Zn47 O50 2.028 . S
Zn47 O53 2.035 . S
O48 Zn47 2.028 . S
O48 C54 1.247 . S
O49 Zn45 2.035 . S
O49 C54 1.258 . S
O50 C43 1.247 . S
O50 Zn47 2.028 . S
O51 C43 1.258 . S
O51 Zn45 2.035 . S
O52 Zn45 2.028 . S
O52 C55 1.247 . S
O53 Zn47 2.035 . S
O53 C55 1.258 . S
C54 O48 1.247 . S
C54 O49 1.258 . S
C55 O52 1.247 . S
C55 O53 1.258 . S
C56 O58 1.247 . S
C56 O60 1.258 . S
C57 O64 1.247 . S
C57 O65 1.258 . S
O58 C56 1.247 . S
O58 Zn59 2.028 . S
Zn59 O58 2.028 . S
Zn59 O63 2.035 . S
Zn59 O65 2.035 . S
Zn59 O66 2.028 . S
O60 C56 1.258 . S
O60 Zn61 2.035 . S
Zn61 O60 2.035 . S
Zn61 O62 2.028 . S
Zn61 O64 2.028 . S
Zn61 O67 2.035 . S
O62 Zn61 2.028 . S
O62 C68 1.247 . S
O63 Zn59 2.035 . S
O63 C68 1.258 . S
O64 C57 1.247 . S
O64 Zn61 2.028 . S
O65 C57 1.258 . S
O65 Zn59 2.035 . S
O66 Zn59 2.028 . S
O66 C69 1.247 . S
O67 Zn61 2.035 . S
O67 C69 1.258 . S
C68 O62 1.247 . S
C68 O63 1.258 . S
C69 O66 1.247 . S
C69 O67 1.258 . S
C70 O72 1.247 . S
C70 O74 1.258 . S
C71 O78 1.247 . S
C71 O79 1.258 . S
O72 C70 1.247 . S
O72 Zn73 2.028 . S
Zn73 O72 2.028 . S
Zn73 O77 2.035 . S
Zn73 O79 2.035 . S
Zn73 O80 2.028 . S
O74 C70 1.258 . S
O74 Zn75 2.035 . S
Zn75 O74 2.035 . S
Zn75 O76 2.028 . S
Zn75 O78 2.028 . S
Zn75 O81 2.035 . S
O76 Zn75 2.028 . S
O76 C82 1.247 . S
O77 Zn73 2.035 . S
O77 C82 1.258 . S
O78 C71 1.247 . S
O78 Zn75 2.028 . S
O79 C71 1.258 . S
O79 Zn73 2.035 . S
O80 Zn73 2.028 . S
O80 C83 1.247 . S
O81 Zn75 2.035 . S
O81 C83 1.258 . S
C82 O76 1.247 . S
C82 O77 1.258 . S
C83 O80 1.247 . S
C83 O81 1.258 . S
C84 O86 1.247 1_556 S
C84 O88 1.258 . S
C85 O92 1.247 1_554 S
C85 O93 1.258 . S
O86 C84 1.247 1_554 S
O86 Zn87 2.028 . S
Zn87 O86 2.028 . S
Zn87 O91 2.035 . S
Zn87 O93 2.035 . S
Zn87 O94 2.028 . S
O88 C84 1.258 . S
O88 Zn89 2.035 . S
Zn89 O88 2.035 . S
Zn89 O90 2.028 . S
Zn89 O92 2.028 . S
Zn89 O95 2.035 . S
O90 Zn89 2.028 . S
O90 C96 1.247 1_556 S
O91 Zn87 2.035 . S
O91 C96 1.258 . S
O92 C85 1.247 1_556 S
O92 Zn89 2.028 . S
O93 C85 1.258 . S
O93 Zn87 2.035 . S
O94 Zn87 2.028 . S
O94 C97 1.247 1_554 S
O95 Zn89 2.035 . S
O95 C97 1.258 . S
C96 O90 1.247 1_554 S
C96 O91 1.258 . S
C97 O94 1.247 1_556 S
C97 O95 1.258 . S
C98 O100 1.247 . S
C98 O102 1.258 . S
C99 O106 1.247 . S
C99 O107 1.258 . S
O100 C98 1.247 . S
O100 Zn101 2.030 1_655 S
Zn101 O100 2.030 1_455 S
Zn101 O105 2.037 1_455 S
Zn101 O107 2.033 . S
Zn101 O108 2.026 . S
O102 C98 1.258 . S
O102 Zn103 2.033 1_655 S
Zn103 O102 2.033 1_455 S
Zn103 O104 2.026 1_455 S
Zn103 O106 2.030 . S
Zn103 O109 2.037 . S
O104 Zn103 2.026 1_655 S
O104 C110 1.247 . S
O105 Zn101 2.037 1_655 S
O105 C110 1.258 . S
O106 C99 1.247 . S
O106 Zn103 2.030 . S
O107 C99 1.258 . S
O107 Zn101 2.033 . S
O108 Zn101 2.026 . S
O108 C111 1.247 . S
O109 Zn103 2.037 . S
O109 C111 1.258 . S
C110 O104 1.247 . S
C110 O105 1.258 . S
C111 O108 1.247 . S
C111 O109 1.258 . S
C112 C113 1.386 . S
C112 C114 1.383 . S
C112 H128 0.951 . S
C113 C112 1.386 . S
C113 C117 1.383 . S
C114 C112 1.383 . S
C114 C115 1.402 . S
C114 H129 0.951 . S
C115 C114 1.402 . S
C115 C116 1.375 . S
C115 C118 1.481 . S
C116 C115 1.375 . S
C116 C117 1.367 . S
C116 H130 0.951 . S
C117 C113 1.383 . S
C117 C116 1.367 . S
C117 H131 0.950 . S
C118 C115 1.481 . S
C118 C119 1.297 . S
C118 H132 0.950 . S
C119 C118 1.297 . S
C119 C120 1.479 . S
C119 H133 0.950 . S
C120 C119 1.479 . S
C120 C121 1.375 . S
C120 C126 1.404 . S
C121 C120 1.375 . S
C121 C122 1.369 . S
C121 H134 0.950 . S
C122 C121 1.369 . S
C122 C123 1.392 . S
C122 H135 0.951 . S
C123 C122 1.392 . S
C123 C125 1.384 . S
H124 C126 0.949 . S
C125 C123 1.384 . S
C125 C126 1.385 . S
C125 H127 0.950 . S
C126 C120 1.404 . S
C126 H124 0.949 . S
C126 C125 1.385 . S
H127 C125 0.950 . S
H128 C112 0.951 . S
H129 C114 0.951 . S
H130 C116 0.951 . S
H131 C117 0.950 . S
H132 C118 0.950 . S
H133 C119 0.950 . S
H134 C121 0.950 . S
H135 C122 0.951 . S
C136 C137 1.386 . S
C136 C138 1.383 . S
C136 H152 0.951 . S
C137 C136 1.386 . S
C137 C141 1.383 . S
C138 C136 1.383 . S
C138 C139 1.402 . S
C138 H153 0.951 . S
C139 C138 1.402 . S
C139 C140 1.375 . S
C139 C142 1.481 . S
C140 C139 1.375 . S
C140 C141 1.367 . S
C140 H154 0.951 . S
C141 C137 1.383 . S
C141 C140 1.367 . S
C141 H155 0.950 . S
C142 C139 1.481 . S
C142 C143 1.297 . S
C142 H156 0.950 . S
C143 C142 1.297 . S
C143 C144 1.479 . S
C143 H157 0.950 . S
C144 C143 1.479 . S
C144 C145 1.375 . S
C144 C150 1.404 . S
C145 C144 1.375 . S
C145 C146 1.369 . S
C145 H158 0.950 . S
C146 C145 1.369 . S
C146 C147 1.392 . S
C146 H159 0.951 . S
C147 C146 1.392 . S
C147 C149 1.384 . S
H148 C150 0.949 . S
C149 C147 1.384 . S
C149 C150 1.385 . S
C149 H151 0.950 . S
C150 C144 1.404 . S
C150 H148 0.949 . S
C150 C149 1.385 . S
H151 C149 0.950 . S
H152 C136 0.951 . S
H153 C138 0.951 . S
H154 C140 0.951 . S
H155 C141 0.950 . S
H156 C142 0.950 . S
H157 C143 0.950 . S
H158 C145 0.950 . S
H159 C146 0.951 . S
C160 C161 1.386 . S
C160 C162 1.383 . S
C160 H176 0.951 . S
C161 C160 1.386 . S
C161 C165 1.383 . S
C162 C160 1.383 . S
C162 C163 1.402 . S
C162 H177 0.951 . S
C163 C162 1.402 . S
C163 C164 1.375 . S
C163 C166 1.481 . S
C164 C163 1.375 . S
C164 C165 1.367 . S
C164 H178 0.951 . S
C165 C161 1.383 . S
C165 C164 1.367 . S
C165 H179 0.950 1_556 S
C166 C163 1.481 . S
C166 C167 1.297 . S
C166 H180 0.950 . S
C167 C166 1.297 . S
C167 C168 1.479 . S
C167 H181 0.950 . S
C168 C167 1.479 . S
C168 C169 1.375 . S
C168 C174 1.404 . S
C169 C168 1.375 . S
C169 C170 1.369 . S
C169 H182 0.950 . S
C170 C169 1.369 . S
C170 C171 1.392 . S
C170 H183 0.951 . S
C171 C170 1.392 . S
C171 C173 1.384 . S
H172 C174 0.949 . S
C173 C171 1.384 . S
C173 C174 1.385 . S
C173 H175 0.950 . S
C174 C168 1.404 . S
C174 H172 0.949 . S
C174 C173 1.385 . S
H175 C173 0.950 . S
H176 C160 0.951 . S
H177 C162 0.951 . S
H178 C164 0.951 . S
H179 C165 0.950 1_554 S
H180 C166 0.950 . S
H181 C167 0.950 . S
H182 C169 0.950 . S
H183 C170 0.951 . S
C184 C185 1.386 . S
C184 C186 1.383 . S
C184 H200 0.951 . S
C185 C184 1.386 . S
C185 C189 1.383 . S
C186 C184 1.383 . S
C186 C187 1.402 . S
C186 H201 0.951 . S
C187 C186 1.402 . S
C187 C188 1.375 . S
C187 C190 1.481 . S
C188 C187 1.375 . S
C188 C189 1.367 . S
C188 H202 0.951 . S
C189 C185 1.383 . S
C189 C188 1.367 . S
C189 H203 0.950 . S
C190 C187 1.481 . S
C190 C191 1.297 . S
C190 H204 0.950 . S
C191 C190 1.297 . S
C191 C192 1.479 . S
C191 H205 0.950 . S
C192 C191 1.479 . S
C192 C193 1.375 . S
C192 C198 1.404 . S
C193 C192 1.375 . S
C193 C194 1.369 . S
C193 H206 0.950 . S
C194 C193 1.369 . S
C194 C195 1.392 . S
C194 H207 0.951 . S
C195 C194 1.392 . S
C195 C197 1.384 . S
H196 C198 0.949 . S
C197 C195 1.384 . S
C197 C198 1.385 . S
C197 H199 0.950 . S
C198 C192 1.404 . S
C198 H196 0.949 . S
C198 C197 1.385 . S
H199 C197 0.950 . S
H200 C184 0.951 . S
H201 C186 0.951 . S
H202 C188 0.951 . S
H203 C189 0.950 . S
H204 C190 0.950 . S
H205 C191 0.950 . S
H206 C193 0.950 . S
H207 C194 0.951 . S
C208 C209 1.386 . S
C208 C210 1.383 . S
C208 H224 0.951 . S
C209 C208 1.386 . S
C209 C213 1.383 . S
C210 C208 1.383 . S
C210 C211 1.402 . S
C210 H225 0.951 . S
C211 C210 1.402 . S
C211 C212 1.375 . S
C211 C214 1.481 . S
C212 C211 1.375 . S
C212 C213 1.367 . S
C212 H226 0.951 . S
C213 C209 1.383 . S
C213 C212 1.367 . S
C213 H227 0.950 . S
C214 C211 1.481 . S
C214 C215 1.297 . S
C214 H228 0.950 . S
C215 C214 1.297 . S
C215 C216 1.479 . S
C215 H229 0.950 . S
C216 C215 1.479 . S
C216 C217 1.375 . S
C216 C222 1.404 . S
C217 C216 1.375 . S
C217 C218 1.369 . S
C217 H230 0.950 . S
C218 C217 1.369 . S
C218 C219 1.392 . S
C218 H231 0.951 . S
C219 C218 1.392 . S
C219 C221 1.384 . S
H220 C222 0.949 . S
C221 C219 1.384 . S
C221 C222 1.385 . S
C221 H223 0.950 . S
C222 C216 1.404 . S
C222 H220 0.949 . S
C222 C221 1.385 . S
H223 C221 0.950 . S
H224 C208 0.951 . S
H225 C210 0.951 . S
H226 C212 0.951 . S
H227 C213 0.950 . S
H228 C214 0.950 . S
H229 C215 0.950 . S
H230 C217 0.950 . S
H231 C218 0.951 . S
C232 C233 1.386 . S
C232 C234 1.383 . S
C232 H248 0.951 . S
C233 C232 1.386 . S
C233 C237 1.383 . S
C234 C232 1.383 . S
C234 C235 1.402 . S
C234 H249 0.951 . S
C235 C234 1.402 . S
C235 C236 1.375 . S
C235 C238 1.481 . S
C236 C235 1.375 . S
C236 C237 1.367 . S
C236 H250 0.951 . S
C237 C233 1.383 . S
C237 C236 1.367 . S
C237 H251 0.950 . S
C238 C235 1.481 . S
C238 C239 1.297 . S
C238 H252 0.950 . S
C239 C238 1.297 . S
C239 C240 1.479 . S
C239 H253 0.950 . S
C240 C239 1.479 . S
C240 C241 1.375 . S
C240 C246 1.404 . S
C241 C240 1.375 . S
C241 C242 1.369 . S
C241 H254 0.950 . S
C242 C241 1.369 . S
C242 C243 1.392 . S
C242 H255 0.951 . S
C243 C242 1.392 . S
C243 C245 1.384 . S
H244 C246 0.949 . S
C245 C243 1.384 . S
C245 C246 1.385 . S
C245 H247 0.950 . S
C246 C240 1.404 . S
C246 H244 0.949 . S
C246 C245 1.385 . S
H247 C245 0.950 . S
H248 C232 0.951 . S
H249 C234 0.951 . S
H250 C236 0.951 . S
H251 C237 0.950 . S
H252 C238 0.950 . S
H253 C239 0.950 . S
H254 C241 0.950 . S
H255 C242 0.951 . S
C256 C257 1.386 . S
C256 C258 1.383 . S
C256 H272 0.951 . S
C257 C256 1.386 . S
C257 C261 1.383 . S
C258 C256 1.383 . S
C258 C259 1.402 . S
C258 H273 0.951 . S
C259 C258 1.402 . S
C259 C260 1.375 . S
C259 C262 1.481 . S
C260 C259 1.375 . S
C260 C261 1.367 . S
C260 H274 0.951 . S
C261 C257 1.383 . S
C261 C260 1.367 . S
C261 H275 0.950 . S
C262 C259 1.481 . S
C262 C263 1.297 . S
C262 H276 0.950 . S
C263 C262 1.297 . S
C263 C264 1.479 . S
C263 H277 0.950 . S
C264 C263 1.479 . S
C264 C265 1.375 . S
C264 C270 1.404 . S
C265 C264 1.375 . S
C265 C266 1.369 . S
C265 H278 0.950 . S
C266 C265 1.369 . S
C266 C267 1.392 . S
C266 H279 0.951 1_554 S
C267 C266 1.392 . S
C267 C269 1.384 . S
H268 C270 0.949 . S
C269 C267 1.384 . S
C269 C270 1.385 . S
C269 H271 0.950 . S
C270 C264 1.404 . S
C270 H268 0.949 . S
C270 C269 1.385 . S
H271 C269 0.950 . S
H272 C256 0.951 . S
H273 C258 0.951 . S
H274 C260 0.951 . S
H275 C261 0.950 . S
H276 C262 0.950 . S
H277 C263 0.950 . S
H278 C265 0.950 . S
H279 C266 0.951 1_556 S
C280 C281 1.386 . S
C280 C282 1.383 . S
C280 H296 0.951 . S
C281 C280 1.386 . S
C281 C285 1.383 . S
C282 C280 1.383 . S
C282 C283 1.402 . S
C282 H297 0.951 . S
C283 C282 1.402 . S
C283 C284 1.375 . S
C283 C286 1.481 . S
C284 C283 1.375 . S
C284 C285 1.367 . S
C284 H298 0.951 . S
C285 C281 1.383 . S
C285 C284 1.367 . S
C285 H299 0.950 . S
C286 C283 1.481 . S
C286 C287 1.297 . S
C286 H300 0.950 . S
C287 C286 1.297 . S
C287 C288 1.479 . S
C287 H301 0.950 . S
C288 C287 1.479 . S
C288 C289 1.375 . S
C288 C294 1.404 . S
C289 C288 1.375 . S
C289 C290 1.369 . S
C289 H302 0.950 . S
C290 C289 1.369 . S
C290 C291 1.392 . S
C290 H303 0.951 . S
C291 C290 1.392 . S
C291 C293 1.384 . S
H292 C294 0.949 . S
C293 C291 1.384 . S
C293 C294 1.385 . S
C293 H295 0.950 . S
C294 C288 1.404 . S
C294 H292 0.949 . S
C294 C293 1.385 . S
H295 C293 0.950 . S
H296 C280 0.951 . S
H297 C282 0.951 . S
H298 C284 0.951 . S
H299 C285 0.950 . S
H300 C286 0.950 . S
H301 C287 0.950 . S
H302 C289 0.950 . S
H303 C290 0.951 . S
C304 C305 1.386 . S
C304 C306 1.383 . S
C304 H320 0.951 . S
C305 C304 1.386 . S
C305 C309 1.383 . S
C306 C304 1.383 . S
C306 C307 1.402 . S
C306 H321 0.951 . S
C307 C306 1.402 . S
C307 C308 1.375 . S
C307 C310 1.481 . S
C308 C307 1.375 . S
C308 C309 1.367 . S
C308 H322 0.951 . S
C309 C305 1.383 . S
C309 C308 1.367 . S
C309 H323 0.950 . S
C310 C307 1.481 . S
C310 C311 1.297 . S
C310 H324 0.950 . S
C311 C310 1.297 . S
C311 C312 1.479 . S
C311 H325 0.950 . S
C312 C311 1.479 . S
C312 C313 1.375 . S
C312 C318 1.404 . S
C313 C312 1.375 . S
C313 C314 1.369 . S
C313 H326 0.950 . S
C314 C313 1.369 . S
C314 C315 1.392 . S
C314 H327 0.951 . S
C315 C314 1.392 . S
C315 C317 1.384 . S
H316 C318 0.949 . S
C317 C315 1.384 . S
C317 C318 1.385 . S
C317 H319 0.950 . S
C318 C312 1.404 . S
C318 H316 0.949 . S
C318 C317 1.385 . S
H319 C317 0.950 . S
H320 C304 0.951 . S
H321 C306 0.951 . S
H322 C308 0.951 . S
H323 C309 0.950 . S
H324 C310 0.950 . S
H325 C311 0.950 . S
H326 C313 0.950 . S
H327 C314 0.951 . S
C328 C329 1.386 . S
C328 C330 1.383 . S
C328 H344 0.951 . S
C329 C328 1.386 . S
C329 C333 1.383 . S
C330 C328 1.383 . S
C330 C331 1.402 . S
C330 H345 0.951 . S
C331 C330 1.402 . S
C331 C332 1.375 . S
C331 C334 1.481 . S
C332 C331 1.375 . S
C332 C333 1.367 . S
C332 H346 0.951 . S
C333 C329 1.383 . S
C333 C332 1.367 . S
C333 H347 0.950 . S
C334 C331 1.481 . S
C334 C335 1.297 . S
C334 H348 0.950 . S
C335 C334 1.297 . S
C335 C336 1.479 . S
C335 H349 0.950 . S
C336 C335 1.479 . S
C336 C337 1.375 . S
C336 C342 1.404 . S
C337 C336 1.375 . S
C337 C338 1.369 . S
C337 H350 0.950 . S
C338 C337 1.369 . S
C338 C339 1.392 . S
C338 H351 0.951 . S
C339 C338 1.392 . S
C339 C341 1.384 . S
H340 C342 0.949 . S
C341 C339 1.384 . S
C341 C342 1.385 . S
C341 H343 0.950 1_554 S
C342 C336 1.404 . S
C342 H340 0.949 . S
C342 C341 1.385 . S
H343 C341 0.950 1_556 S
H344 C328 0.951 . S
H345 C330 0.951 . S
H346 C332 0.951 . S
H347 C333 0.950 . S
H348 C334 0.950 . S
H349 C335 0.950 . S
H350 C337 0.950 . S
H351 C338 0.951 . S
C352 C353 1.386 . S
C352 C354 1.383 . S
C352 H368 0.951 . S
C353 C352 1.386 . S
C353 C357 1.383 . S
C354 C352 1.383 . S
C354 C355 1.402 . S
C354 H369 0.951 . S
C355 C354 1.402 . S
C355 C356 1.375 . S
C355 C358 1.481 . S
C356 C355 1.375 . S
C356 C357 1.367 . S
C356 H370 0.951 . S
C357 C353 1.383 . S
C357 C356 1.367 . S
C357 H371 0.950 . S
C358 C355 1.481 . S
C358 C359 1.297 . S
C358 H372 0.950 . S
C359 C358 1.297 . S
C359 C360 1.479 . S
C359 H373 0.950 . S
C360 C359 1.479 . S
C360 C361 1.375 . S
C360 C366 1.404 . S
C361 C360 1.375 . S
C361 C362 1.369 . S
C361 H374 0.950 . S
C362 C361 1.369 . S
C362 C363 1.392 . S
C362 H375 0.951 . S
C363 C362 1.392 . S
C363 C365 1.384 . S
H364 C366 0.949 . S
C365 C363 1.384 . S
C365 C366 1.385 . S
C365 H367 0.950 . S
C366 C360 1.404 . S
C366 H364 0.949 . S
C366 C365 1.385 . S
H367 C365 0.950 . S
H368 C352 0.951 . S
H369 C354 0.951 . S
H370 C356 0.951 . S
H371 C357 0.950 . S
H372 C358 0.950 . S
H373 C359 0.950 . S
H374 C361 0.950 . S
H375 C362 0.951 . S
C376 C377 1.386 . S
C376 C378 1.383 . S
C376 H392 0.951 . S
C377 C376 1.386 . S
C377 C381 1.383 . S
C378 C376 1.383 . S
C378 C379 1.402 . S
C378 H393 0.951 . S
C379 C378 1.402 . S
C379 C380 1.375 . S
C379 C382 1.481 . S
C380 C379 1.375 . S
C380 C381 1.367 . S
C380 H394 0.951 . S
C381 C377 1.383 . S
C381 C380 1.367 . S
C381 H395 0.950 . S
C382 C379 1.481 . S
C382 C383 1.297 . S
C382 H396 0.950 . S
C383 C382 1.297 . S
C383 C384 1.479 . S
C383 H397 0.950 . S
C384 C383 1.479 . S
C384 C385 1.375 . S
C384 C390 1.404 . S
C385 C384 1.375 . S
C385 C386 1.369 . S
C385 H398 0.950 . S
C386 C385 1.369 . S
C386 C387 1.392 . S
C386 H399 0.951 . S
C387 C386 1.392 . S
C387 C389 1.384 . S
H388 C390 0.949 . S
C389 C387 1.384 . S
C389 C390 1.385 . S
C389 H391 0.950 . S
C390 C384 1.404 . S
C390 H388 0.949 . S
C390 C389 1.385 . S
H391 C389 0.950 . S
H392 C376 0.951 . S
H393 C378 0.951 . S
H394 C380 0.951 . S
H395 C381 0.950 . S
H396 C382 0.950 . S
H397 C383 0.950 . S
H398 C385 0.950 . S
H399 C386 0.951 . S
C400 C401 1.386 . S
C400 C402 1.383 . S
C400 H416 0.951 . S
C401 C400 1.386 . S
C401 C405 1.383 . S
C402 C400 1.383 . S
C402 C403 1.402 . S
C402 H417 0.951 . S
C403 C402 1.402 . S
C403 C404 1.375 . S
C403 C406 1.481 . S
C404 C403 1.375 . S
C404 C405 1.367 . S
C404 H418 0.951 . S
C405 C401 1.383 . S
C405 C404 1.367 . S
C405 H419 0.950 . S
C406 C403 1.481 . S
C406 C407 1.297 . S
C406 H420 0.950 . S
C407 C406 1.297 . S
C407 C408 1.479 . S
C407 H421 0.950 . S
C408 C407 1.479 . S
C408 C409 1.375 . S
C408 C414 1.404 . S
C409 C408 1.375 . S
C409 C410 1.369 . S
C409 H422 0.950 . S
C410 C409 1.369 . S
C410 C411 1.392 . S
C410 H423 0.951 . S
C411 C410 1.392 . S
C411 C413 1.384 . S
H412 C414 0.949 . S
C413 C411 1.384 . S
C413 C414 1.385 . S
C413 H415 0.950 . S
C414 C408 1.404 . S
C414 H412 0.949 . S
C414 C413 1.385 . S
H415 C413 0.950 . S
H416 C400 0.951 . S
H417 C402 0.951 . S
H418 C404 0.951 . S
H419 C405 0.950 . S
H420 C406 0.950 . S
H421 C407 0.950 . S
H422 C409 0.950 . S
H423 C410 0.951 . S
C424 C425 1.386 . S
C424 C426 1.383 . S
C424 H440 0.951 . S
C425 C424 1.386 . S
C425 C429 1.383 . S
C426 C424 1.383 . S
C426 C427 1.402 . S
C426 H441 0.951 . S
C427 C426 1.402 . S
C427 C428 1.375 . S
C427 C430 1.481 . S
C428 C427 1.375 . S
C428 C429 1.367 . S
C428 H442 0.951 . S
C429 C425 1.383 . S
C429 C428 1.367 . S
C429 H443 0.950 . S
C430 C427 1.481 . S
C430 C431 1.297 . S
C430 H444 0.950 . S
C431 C430 1.297 . S
C431 C432 1.479 . S
C431 H445 0.950 . S
C432 C431 1.479 . S
C432 C433 1.375 . S
C432 C438 1.404 . S
C433 C432 1.375 . S
C433 C434 1.369 . S
C433 H446 0.950 . S
C434 C433 1.369 . S
C434 C435 1.392 . S
C434 H447 0.951 . S
C435 C434 1.392 . S
C435 C437 1.384 . S
H436 C438 0.949 . S
C437 C435 1.384 . S
C437 C438 1.385 . S
C437 H439 0.950 1_556 S
C438 C432 1.404 . S
C438 H436 0.949 . S
C438 C437 1.385 . S
H439 C437 0.950 1_554 S
H440 C424 0.951 . S
H441 C426 0.951 . S
H442 C428 0.951 . S
H443 C429 0.950 . S
H444 C430 0.950 . S
H445 C431 0.950 . S
H446 C433 0.950 . S
H447 C434 0.951 . S
C448 C449 1.386 . S
C448 C450 1.383 . S
C448 H464 0.951 . S
C449 C448 1.386 . S
C449 C453 1.383 . S
C450 C448 1.383 . S
C450 C451 1.402 . S
C450 H465 0.951 . S
C451 C450 1.402 . S
C451 C452 1.375 . S
C451 C454 1.481 . S
C452 C451 1.375 . S
C452 C453 1.367 . S
C452 H466 0.951 . S
C453 C449 1.383 . S
C453 C452 1.367 . S
C453 H467 0.950 . S
C454 C451 1.481 . S
C454 C455 1.297 . S
C454 H468 0.950 . S
C455 C454 1.297 . S
C455 C456 1.479 . S
C455 H469 0.950 . S
C456 C455 1.479 . S
C456 C457 1.375 . S
C456 C462 1.404 . S
C457 C456 1.375 . S
C457 C458 1.369 . S
C457 H470 0.950 . S
C458 C457 1.369 . S
C458 C459 1.392 . S
C458 H471 0.951 . S
C459 C458 1.392 . S
C459 C461 1.384 . S
H460 C462 0.949 . S
C461 C459 1.384 . S
C461 C462 1.385 . S
C461 H463 0.950 . S
C462 C456 1.404 . S
C462 H460 0.949 . S
C462 C461 1.385 . S
H463 C461 0.950 . S
H464 C448 0.951 . S
H465 C450 0.951 . S
H466 C452 0.951 . S
H467 C453 0.950 . S
H468 C454 0.950 . S
H469 C455 0.950 . S
H470 C457 0.950 . S
H471 C458 0.951 . S
C472 C473 1.386 . S
C472 C474 1.383 . S
C472 H488 0.951 . S
C473 C472 1.386 . S
C473 C477 1.383 . S
C474 C472 1.383 . S
C474 C475 1.402 . S
C474 H489 0.951 . S
C475 C474 1.402 . S
C475 C476 1.375 . S
C475 C478 1.481 . S
C476 C475 1.375 . S
C476 C477 1.367 . S
C476 H490 0.951 . S
C477 C473 1.383 . S
C477 C476 1.367 . S
C477 H491 0.950 . S
C478 C475 1.481 . S
C478 C479 1.297 . S
C478 H492 0.950 . S
C479 C478 1.297 . S
C479 C480 1.479 . S
C479 H493 0.950 . S
C480 C479 1.479 . S
C480 C481 1.375 . S
C480 C486 1.404 . S
C481 C480 1.375 . S
C481 C482 1.369 . S
C481 H494 0.950 . S
C482 C481 1.369 . S
C482 C483 1.392 . S
C482 H495 0.951 . S
C483 C482 1.392 . S
C483 C485 1.384 . S
H484 C486 0.949 . S
C485 C483 1.384 . S
C485 C486 1.385 . S
C485 H487 0.950 . S
C486 C480 1.404 . S
C486 H484 0.949 . S
C486 C485 1.385 . S
H487 C485 0.950 . S
H488 C472 0.951 . S
H489 C474 0.951 . S
H490 C476 0.951 . S
H491 C477 0.950 . S
H492 C478 0.950 . S
H493 C479 0.950 . S
H494 C481 0.950 . S
H495 C482 0.951 . S
C113 C1 1.496 . S
C123 C54 1.488 . S
C137 C13 1.490 . S
C147 C14 1.484 . S
C161 C28 1.499 . S
C171 C26 1.495 . S
C185 C42 1.492 . S
C195 C40 1.490 . S
C209 C0 1.490 . S
C219 C83 1.485 . S
C233 C12 1.490 . S
C243 C57 1.479 . S
C257 C69 1.490 . S
C267 C29 1.474 . S
C281 C41 1.495 . S
C291 C71 1.494 . S
C305 C97 1.499 . S
C315 C82 1.491 . S
C329 C56 1.495 . S
C339 C85 1.477 . S
C353 C68 1.493 . S
C363 C98 1.497 . S
C377 C70 1.496 . S
C387 C110 1.497 . S
C401 C96 1.497 . S
C411 C55 1.492 . S
C425 C15 1.499 . S
C435 C84 1.496 . S
C449 C27 1.490 . S
C459 C99 1.477 . S
C473 C43 1.499 . S
C483 C111 1.489 . S
