# Generated by pormake.
# Topology wna, (6)-cn, num edge types: 1
# Building blocks:
#     Node 0, Type 0, BuildingBlock: BETDAH_clean_sbu_0, # of connection points: 6
#     Node 1, Type 0, BuildingBlock: BETDAH_clean_sbu_0, # of connection points: 6
#     Node 2, Type 0, BuildingBlock: BETDAH_clean_sbu_0, # of connection points: 6
#     Node 3, Type 0, BuildingBlock: BETDAH_clean_sbu_0, # of connection points: 6
#     Node 4, Type 0, BuildingBlock: BETDAH_clean_sbu_0, # of connection points: 6
#     Node 5, Type 0, BuildingBlock: BETDAH_clean_sbu_0, # of connection points: 6
#     Node 6, Type 0, BuildingBlock: BETDAH_clean_sbu_0, # of connection points: 6
#     Node 7, Type 0, BuildingBlock: BETDAH_clean_sbu_0, # of connection points: 6
#     Node 8, Type 0, BuildingBlock: BETDAH_clean_sbu_0, # of connection points: 6
#     Node 9, Type 0, BuildingBlock: BETDAH_clean_sbu_0, # of connection points: 6
#     Node 10, Type 0, BuildingBlock: BETDAH_clean_sbu_0, # of connection points: 6
#     Node 11, Type 0, BuildingBlock: BETDAH_clean_sbu_0, # of connection points: 6
#     Node 12, Type 0, BuildingBlock: BETDAH_clean_sbu_0, # of connection points: 6
#     Node 13, Type 0, BuildingBlock: BETDAH_clean_sbu_0, # of connection points: 6
#     Node 14, Type 0, BuildingBlock: BETDAH_clean_sbu_0, # of connection points: 6
#     Node 15, Type 0, BuildingBlock: BETDAH_clean_sbu_0, # of connection points: 6
#     Node 16, Type 0, BuildingBlock: BETDAH_clean_sbu_0, # of connection points: 6
#     Node 17, Type 0, BuildingBlock: BETDAH_clean_sbu_0, # of connection points: 6
#     Node 18, Type 0, BuildingBlock: BETDAH_clean_sbu_0, # of connection points: 6
#     Node 19, Type 0, BuildingBlock: BETDAH_clean_sbu_0, # of connection points: 6
#     Node 20, Type 0, BuildingBlock: BETDAH_clean_sbu_0, # of connection points: 6
#     Node 21, Type 0, BuildingBlock: BETDAH_clean_sbu_0, # of connection points: 6
#     Node 22, Type 0, BuildingBlock: BETDAH_clean_sbu_0, # of connection points: 6
#     Node 23, Type 0, BuildingBlock: BETDAH_clean_sbu_0, # of connection points: 6
#     Node 24, Type 0, BuildingBlock: BETDAH_clean_sbu_0, # of connection points: 6
#     Node 25, Type 0, BuildingBlock: BETDAH_clean_sbu_0, # of connection points: 6
#     Node 26, Type 0, BuildingBlock: BETDAH_clean_sbu_0, # of connection points: 6
#     Node 27, Type 0, BuildingBlock: BETDAH_clean_sbu_0, # of connection points: 6
#     Node 28, Type 0, BuildingBlock: BETDAH_clean_sbu_0, # of connection points: 6
#     Node 29, Type 0, BuildingBlock: BETDAH_clean_sbu_0, # of connection points: 6
#     Node 30, Type 0, BuildingBlock: BETDAH_clean_sbu_0, # of connection points: 6
#     Node 31, Type 0, BuildingBlock: BETDAH_clean_sbu_0, # of connection points: 6
#     Node 32, Type 0, BuildingBlock: BETDAH_clean_sbu_0, # of connection points: 6
#     Node 33, Type 0, BuildingBlock: BETDAH_clean_sbu_0, # of connection points: 6
#     Node 34, Type 0, BuildingBlock: BETDAH_clean_sbu_0, # of connection points: 6
#     Node 35, Type 0, BuildingBlock: BETDAH_clean_sbu_0, # of connection points: 6
#     Edge 36, Type (0, 0), BuildingBlock: CIFDUS_clean_linker_0, # of connection points: 2
#     Edge 37, Type (0, 0), BuildingBlock: CIFDUS_clean_linker_0, # of connection points: 2
#     Edge 38, Type (0, 0), BuildingBlock: CIFDUS_clean_linker_0, # of connection points: 2
#     Edge 39, Type (0, 0), BuildingBlock: CIFDUS_clean_linker_0, # of connection points: 2
#     Edge 40, Type (0, 0), BuildingBlock: CIFDUS_clean_linker_0, # of connection points: 2
#     Edge 41, Type (0, 0), BuildingBlock: CIFDUS_clean_linker_0, # of connection points: 2
#     Edge 42, Type (0, 0), BuildingBlock: CIFDUS_clean_linker_0, # of connection points: 2
#     Edge 43, Type (0, 0), BuildingBlock: CIFDUS_clean_linker_0, # of connection points: 2
#     Edge 44, Type (0, 0), BuildingBlock: CIFDUS_clean_linker_0, # of connection points: 2
#     Edge 45, Type (0, 0), BuildingBlock: CIFDUS_clean_linker_0, # of connection points: 2
#     Edge 46, Type (0, 0), BuildingBlock: CIFDUS_clean_linker_0, # of connection points: 2
#     Edge 47, Type (0, 0), BuildingBlock: CIFDUS_clean_linker_0, # of connection points: 2
#     Edge 48, Type (0, 0), BuildingBlock: CIFDUS_clean_linker_0, # of connection points: 2
#     Edge 49, Type (0, 0), BuildingBlock: CIFDUS_clean_linker_0, # of connection points: 2
#     Edge 50, Type (0, 0), BuildingBlock: CIFDUS_clean_linker_0, # of connection points: 2
#     Edge 51, Type (0, 0), BuildingBlock: CIFDUS_clean_linker_0, # of connection points: 2
#     Edge 52, Type (0, 0), BuildingBlock: CIFDUS_clean_linker_0, # of connection points: 2
#     Edge 53, Type (0, 0), BuildingBlock: CIFDUS_clean_linker_0, # of connection points: 2
#     Edge 54, Type (0, 0), BuildingBlock: CIFDUS_clean_linker_0, # of connection points: 2
#     Edge 55, Type (0, 0), BuildingBlock: CIFDUS_clean_linker_0, # of connection points: 2
#     Edge 56, Type (0, 0), BuildingBlock: CIFDUS_clean_linker_0, # of connection points: 2
#     Edge 57, Type (0, 0), BuildingBlock: CIFDUS_clean_linker_0, # of connection points: 2
#     Edge 58, Type (0, 0), BuildingBlock: CIFDUS_clean_linker_0, # of connection points: 2
#     Edge 59, Type (0, 0), BuildingBlock: CIFDUS_clean_linker_0, # of connection points: 2
#     Edge 60, Type (0, 0), BuildingBlock: CIFDUS_clean_linker_0, # of connection points: 2
#     Edge 61, Type (0, 0), BuildingBlock: CIFDUS_clean_linker_0, # of connection points: 2
#     Edge 62, Type (0, 0), BuildingBlock: CIFDUS_clean_linker_0, # of connection points: 2
#     Edge 63, Type (0, 0), BuildingBlock: CIFDUS_clean_linker_0, # of connection points: 2
#     Edge 64, Type (0, 0), BuildingBlock: CIFDUS_clean_linker_0, # of connection points: 2
#     Edge 65, Type (0, 0), BuildingBlock: CIFDUS_clean_linker_0, # of connection points: 2
#     Edge 66, Type (0, 0), BuildingBlock: CIFDUS_clean_linker_0, # of connection points: 2
#     Edge 67, Type (0, 0), BuildingBlock: CIFDUS_clean_linker_0, # of connection points: 2
#     Edge 68, Type (0, 0), BuildingBlock: CIFDUS_clean_linker_0, # of connection points: 2
#     Edge 69, Type (0, 0), BuildingBlock: CIFDUS_clean_linker_0, # of connection points: 2
#     Edge 70, Type (0, 0), BuildingBlock: CIFDUS_clean_linker_0, # of connection points: 2
#     Edge 71, Type (0, 0), BuildingBlock: CIFDUS_clean_linker_0, # of connection points: 2
#     Edge 72, Type (0, 0), BuildingBlock: CIFDUS_clean_linker_0, # of connection points: 2
#     Edge 73, Type (0, 0), BuildingBlock: CIFDUS_clean_linker_0, # of connection points: 2
#     Edge 74, Type (0, 0), BuildingBlock: CIFDUS_clean_linker_0, # of connection points: 2
#     Edge 75, Type (0, 0), BuildingBlock: CIFDUS_clean_linker_0, # of connection points: 2
#     Edge 76, Type (0, 0), BuildingBlock: CIFDUS_clean_linker_0, # of connection points: 2
#     Edge 77, Type (0, 0), BuildingBlock: CIFDUS_clean_linker_0, # of connection points: 2
#     Edge 78, Type (0, 0), BuildingBlock: CIFDUS_clean_linker_0, # of connection points: 2
#     Edge 79, Type (0, 0), BuildingBlock: CIFDUS_clean_linker_0, # of connection points: 2
#     Edge 80, Type (0, 0), BuildingBlock: CIFDUS_clean_linker_0, # of connection points: 2
#     Edge 81, Type (0, 0), BuildingBlock: CIFDUS_clean_linker_0, # of connection points: 2
#     Edge 82, Type (0, 0), BuildingBlock: CIFDUS_clean_linker_0, # of connection points: 2
#     Edge 83, Type (0, 0), BuildingBlock: CIFDUS_clean_linker_0, # of connection points: 2
#     Edge 84, Type (0, 0), BuildingBlock: CIFDUS_clean_linker_0, # of connection points: 2
#     Edge 85, Type (0, 0), BuildingBlock: CIFDUS_clean_linker_0, # of connection points: 2
#     Edge 86, Type (0, 0), BuildingBlock: CIFDUS_clean_linker_0, # of connection points: 2
#     Edge 87, Type (0, 0), BuildingBlock: CIFDUS_clean_linker_0, # of connection points: 2
#     Edge 88, Type (0, 0), BuildingBlock: CIFDUS_clean_linker_0, # of connection points: 2
#     Edge 89, Type (0, 0), BuildingBlock: CIFDUS_clean_linker_0, # of connection points: 2
#     Edge 90, Type (0, 0), BuildingBlock: CIFDUS_clean_linker_0, # of connection points: 2
#     Edge 91, Type (0, 0), BuildingBlock: CIFDUS_clean_linker_0, # of connection points: 2
#     Edge 92, Type (0, 0), BuildingBlock: CIFDUS_clean_linker_0, # of connection points: 2
#     Edge 93, Type (0, 0), BuildingBlock: CIFDUS_clean_linker_0, # of connection points: 2
#     Edge 94, Type (0, 0), BuildingBlock: CIFDUS_clean_linker_0, # of connection points: 2
#     Edge 95, Type (0, 0), BuildingBlock: CIFDUS_clean_linker_0, # of connection points: 2
#     Edge 96, Type (0, 0), BuildingBlock: CIFDUS_clean_linker_0, # of connection points: 2
#     Edge 97, Type (0, 0), BuildingBlock: CIFDUS_clean_linker_0, # of connection points: 2
#     Edge 98, Type (0, 0), BuildingBlock: CIFDUS_clean_linker_0, # of connection points: 2
#     Edge 99, Type (0, 0), BuildingBlock: CIFDUS_clean_linker_0, # of connection points: 2
#     Edge 100, Type (0, 0), BuildingBlock: CIFDUS_clean_linker_0, # of connection points: 2
#     Edge 101, Type (0, 0), BuildingBlock: CIFDUS_clean_linker_0, # of connection points: 2
#     Edge 102, Type (0, 0), BuildingBlock: CIFDUS_clean_linker_0, # of connection points: 2
#     Edge 103, Type (0, 0), BuildingBlock: CIFDUS_clean_linker_0, # of connection points: 2
#     Edge 104, Type (0, 0), BuildingBlock: CIFDUS_clean_linker_0, # of connection points: 2
#     Edge 105, Type (0, 0), BuildingBlock: CIFDUS_clean_linker_0, # of connection points: 2
#     Edge 106, Type (0, 0), BuildingBlock: CIFDUS_clean_linker_0, # of connection points: 2
#     Edge 107, Type (0, 0), BuildingBlock: CIFDUS_clean_linker_0, # of connection points: 2
#     Edge 108, Type (0, 0), BuildingBlock: CIFDUS_clean_linker_0, # of connection points: 2
#     Edge 109, Type (0, 0), BuildingBlock: CIFDUS_clean_linker_0, # of connection points: 2
#     Edge 110, Type (0, 0), BuildingBlock: CIFDUS_clean_linker_0, # of connection points: 2
#     Edge 111, Type (0, 0), BuildingBlock: CIFDUS_clean_linker_0, # of connection points: 2
#     Edge 112, Type (0, 0), BuildingBlock: CIFDUS_clean_linker_0, # of connection points: 2
#     Edge 113, Type (0, 0), BuildingBlock: CIFDUS_clean_linker_0, # of connection points: 2
#     Edge 114, Type (0, 0), BuildingBlock: CIFDUS_clean_linker_0, # of connection points: 2
#     Edge 115, Type (0, 0), BuildingBlock: CIFDUS_clean_linker_0, # of connection points: 2
#     Edge 116, Type (0, 0), BuildingBlock: CIFDUS_clean_linker_0, # of connection points: 2
#     Edge 117, Type (0, 0), BuildingBlock: CIFDUS_clean_linker_0, # of connection points: 2
#     Edge 118, Type (0, 0), BuildingBlock: CIFDUS_clean_linker_0, # of connection points: 2
#     Edge 119, Type (0, 0), BuildingBlock: CIFDUS_clean_linker_0, # of connection points: 2
#     Edge 120, Type (0, 0), BuildingBlock: CIFDUS_clean_linker_0, # of connection points: 2
#     Edge 121, Type (0, 0), BuildingBlock: CIFDUS_clean_linker_0, # of connection points: 2
#     Edge 122, Type (0, 0), BuildingBlock: CIFDUS_clean_linker_0, # of connection points: 2
#     Edge 123, Type (0, 0), BuildingBlock: CIFDUS_clean_linker_0, # of connection points: 2
#     Edge 124, Type (0, 0), BuildingBlock: CIFDUS_clean_linker_0, # of connection points: 2
#     Edge 125, Type (0, 0), BuildingBlock: CIFDUS_clean_linker_0, # of connection points: 2
#     Edge 126, Type (0, 0), BuildingBlock: CIFDUS_clean_linker_0, # of connection points: 2
#     Edge 127, Type (0, 0), BuildingBlock: CIFDUS_clean_linker_0, # of connection points: 2
#     Edge 128, Type (0, 0), BuildingBlock: CIFDUS_clean_linker_0, # of connection points: 2
#     Edge 129, Type (0, 0), BuildingBlock: CIFDUS_clean_linker_0, # of connection points: 2
#     Edge 130, Type (0, 0), BuildingBlock: CIFDUS_clean_linker_0, # of connection points: 2
#     Edge 131, Type (0, 0), BuildingBlock: CIFDUS_clean_linker_0, # of connection points: 2
#     Edge 132, Type (0, 0), BuildingBlock: CIFDUS_clean_linker_0, # of connection points: 2
#     Edge 133, Type (0, 0), BuildingBlock: CIFDUS_clean_linker_0, # of connection points: 2
#     Edge 134, Type (0, 0), BuildingBlock: CIFDUS_clean_linker_0, # of connection points: 2
#     Edge 135, Type (0, 0), BuildingBlock: CIFDUS_clean_linker_0, # of connection points: 2
#     Edge 136, Type (0, 0), BuildingBlock: CIFDUS_clean_linker_0, # of connection points: 2
#     Edge 137, Type (0, 0), BuildingBlock: CIFDUS_clean_linker_0, # of connection points: 2
#     Edge 138, Type (0, 0), BuildingBlock: CIFDUS_clean_linker_0, # of connection points: 2
#     Edge 139, Type (0, 0), BuildingBlock: CIFDUS_clean_linker_0, # of connection points: 2
#     Edge 140, Type (0, 0), BuildingBlock: CIFDUS_clean_linker_0, # of connection points: 2
#     Edge 141, Type (0, 0), BuildingBlock: CIFDUS_clean_linker_0, # of connection points: 2
#     Edge 142, Type (0, 0), BuildingBlock: CIFDUS_clean_linker_0, # of connection points: 2
#     Edge 143, Type (0, 0), BuildingBlock: CIFDUS_clean_linker_0, # of connection points: 2
# Relax obj value: 0.156
# Max RMSD: 0.229
# Mean RMSD: 0.211
data_MOF--net-wna--node1-BETDAH_clean_sbu_0--edge1-CIFDUS_clean_linker_0
_symmetry_space_group_name_H-M    P1
_symmetry_Int_Tables_number       1
_symmetry_cell_setting            triclinic
loop_
_symmetry_equiv_pos_as_xyz
'x, y, z'
_cell_length_a     35.691466
_cell_length_b     35.690177
_cell_length_c     140.47427
_cell_angle_alpha  90.034731
_cell_angle_beta   89.996108
_cell_angle_gamma 120.11151
loop_
_atom_site_label
_atom_site_type_symbol
_atom_site_fract_x
_atom_site_fract_y
_atom_site_fract_z
_atom_type_partial_charge
Ho0 Ho 0.12598 0.25908 0.1761 0.0
Ho1 Ho 0.14131 0.25603 0.19712 0.0
C2 C 0.22429 0.31575 0.18434 0.0
C3 C 0.11684 0.28216 0.15914 0.0
C4 C 0.13872 0.30043 0.14992 0.0
C5 C 0.13811 0.3366 0.1462 0.0
C6 C 0.15278 0.3511 0.13696 0.0
C7 C 0.16831 0.32964 0.13116 0.0
C8 C 0.17019 0.29419 0.135 0.0
C9 C 0.15556 0.27972 0.14428 0.0
C10 C 0.14513 0.19718 0.18095 0.0
C11 C 0.04698 0.18884 0.18823 0.0
C12 C 0.14658 0.23675 0.21472 0.0
C13 C 0.1226 0.22811 0.22376 0.0
C14 C 0.13016 0.20566 0.23098 0.0
C15 C 0.10844 0.19745 0.23969 0.0
C16 C 0.07864 0.21161 0.24137 0.0
C17 C 0.0709 0.23391 0.23405 0.0
C18 C 0.09267 0.24205 0.22532 0.0
C19 C 0.11757 0.31508 0.19202 0.0
O20 O 0.1964 0.31208 0.17765 0.0
O21 O 0.21071 0.29161 0.19212 0.0
O22 O 0.10826 0.24307 0.16135 0.0
O23 O 0.12833 0.30803 0.16652 0.0
O24 O 0.12125 0.19452 0.17374 0.0
O25 O 0.16186 0.23455 0.18456 0.0
O26 O 0.07528 0.19677 0.19511 0.0
O27 O 0.05743 0.21424 0.18068 0.0
O28 O 0.16492 0.27633 0.21147 0.0
O29 O 0.12804 0.20789 0.20801 0.0
O30 O 0.14476 0.32054 0.19869 0.0
O31 O 0.10221 0.27731 0.18874 0.0
H32 H 0.12475 0.35279 0.15034 0.0
H33 H 0.15022 0.37809 0.13422 0.0
H34 H 0.18246 0.27723 0.1308 0.0
H35 H 0.15636 0.25163 0.14693 0.0
H36 H 0.15296 0.19442 0.22989 0.0
H37 H 0.11464 0.1795 0.24507 0.0
H38 H 0.04848 0.24561 0.23512 0.0
H39 H 0.08633 0.25941 0.21981 0.0
Ho40 Ho 0.7759 0.88043 0.17268 0.0
Ho41 Ho 0.78792 0.88973 0.19398 0.0
C42 C 0.7245 0.91918 0.1846 0.0
C43 C 0.74654 0.85396 0.15566 0.0
C44 C 0.73042 0.8638 0.14682 0.0
C45 C 0.68901 0.8338 0.14342 0.0
C46 C 0.67603 0.83793 0.13427 0.0
C47 C 0.70438 0.87199 0.12826 0.0
C48 C 0.74507 0.90318 0.13183 0.0
C49 C 0.75795 0.89919 0.14101 0.0
C50 C 0.84008 0.95974 0.1779 0.0
C51 C 0.85205 0.87 0.18139 0.0
C52 C 0.81261 0.90687 0.21166 0.0
C53 C 0.82307 0.88989 0.22033 0.0
C54 C 0.86613 0.90952 0.22353 0.0
C55 C 0.87625 0.89782 0.23227 0.0
C56 C 0.84352 0.8663 0.2381 0.0
C57 C 0.80045 0.84612 0.23482 0.0
C58 C 0.79033 0.85778 0.22606 0.0
C59 C 0.72908 0.80803 0.18764 0.0
O60 O 0.72532 0.89855 0.17681 0.0
O61 O 0.7506 0.92482 0.19184 0.0
O62 O 0.78751 0.8789 0.15771 0.0
O63 O 0.72167 0.84143 0.16322 0.0
O64 O 0.83806 0.94124 0.16984 0.0
O65 O 0.80488 0.93767 0.18239 0.0
O66 O 0.84753 0.8873 0.18933 0.0
O67 O 0.82244 0.85631 0.17461 0.0
O68 O 0.77222 0.8882 0.20891 0.0
O69 O 0.83949 0.91876 0.20447 0.0
O70 O 0.72514 0.82494 0.19545 0.0
O71 O 0.76496 0.83421 0.18404 0.0
H72 H 0.66737 0.80591 0.14768 0.0
H73 H 0.64463 0.81309 0.13172 0.0
H74 H 0.76743 0.9301 0.12743 0.0
H75 H 0.79017 0.9229 0.14339 0.0
H76 H 0.89202 0.93494 0.21939 0.0
H77 H 0.9097 0.9146 0.23459 0.0
H78 H 0.77444 0.82137 0.23905 0.0
H79 H 0.75671 0.84223 0.22388 0.0
Ho80 Ho 0.16709 0.90888 0.17431 0.0
Ho81 Ho 0.14822 0.90069 0.19545 0.0
C82 C 0.12226 0.81324 0.18388 0.0
C83 C 0.19814 0.9124 0.15742 0.0
C84 C 0.18783 0.89097 0.14799 0.0
C85 C 0.22097 0.89025 0.14277 0.0
C86 C 0.21463 0.87723 0.13322 0.0
C87 C 0.17497 0.86482 0.12866 0.0
C88 C 0.14106 0.86352 0.13405 0.0
C89 C 0.14739 0.8764 0.14363 0.0
C90 C 0.0863 0.89277 0.17858 0.0
C91 C 0.17736 0.99149 0.18455 0.0
C92 C 0.12452 0.90246 0.21291 0.0
C93 C 0.13952 0.92791 0.2219 0.0
C94 C 0.11726 0.94816 0.22541 0.0
C95 C 0.12817 0.96938 0.23422 0.0
C96 C 0.16158 0.9708 0.23983 0.0
C97 C 0.18408 0.9507 0.23629 0.0
C98 C 0.17321 0.92951 0.22743 0.0
C99 C 0.2307 0.92072 0.19078 0.0
O100 O 0.14805 0.83919 0.17711 0.0
O101 O 0.11236 0.82934 0.19137 0.0
O102 O 0.17678 0.93179 0.15985 0.0
O103 O 0.20467 0.89292 0.16459 0.0
O104 O 0.10749 0.91298 0.17102 0.0
O105 O 0.10645 0.87715 0.18284 0.0
O106 O 0.15482 0.96578 0.19168 0.0
O107 O 0.1949 0.97854 0.17802 0.0
O108 O 0.14321 0.88078 0.2102 0.0
O109 O 0.11573 0.92008 0.20574 0.0
O110 O 0.20858 0.89652 0.19783 0.0
O111 O 0.20903 0.93557 0.18692 0.0
H112 H 0.25253 0.90169 0.14596 0.0
H113 H 0.2416 0.87907 0.12929 0.0
H114 H 0.10992 0.85354 0.13081 0.0
H115 H 0.12121 0.87656 0.14749 0.0
H116 H 0.0907 0.94688 0.2214 0.0
H117 H 0.10958 0.98379 0.23675 0.0
H118 H 0.21025 0.95146 0.24034 0.0
H119 H 0.19088 0.91399 0.22499 0.0
Ho120 Ho 0.26926 0.12738 0.35998 0.0
Ho121 Ho 0.2565 0.12626 0.33868 0.0
C122 C 0.31745 0.21857 0.34855 0.0
C123 C 0.29687 0.12901 0.3772 0.0
C124 C 0.3042 0.14824 0.3869 0.0
C125 C 0.345 0.16466 0.39123 0.0
C126 C 0.35039 0.174 0.40101 0.0
C127 C 0.3149 0.1666 0.40672 0.0
C128 C 0.27467 0.15256 0.40228 0.0
C129 C 0.26938 0.1436 0.3925 0.0
C130 C 0.20251 0.13922 0.35489 0.0
C131 C 0.19759 0.03943 0.35081 0.0
C132 C 0.23032 0.11986 0.32114 0.0
C133 C 0.22263 0.09532 0.31215 0.0
C134 C 0.19063 0.09241 0.3059 0.0
C135 C 0.18437 0.07238 0.29701 0.0
C136 C 0.21003 0.05469 0.29413 0.0
C137 C 0.24157 0.05683 0.30051 0.0
C138 C 0.24788 0.07703 0.30943 0.0
C139 C 0.32084 0.10998 0.34418 0.0
O140 O 0.3194 0.19658 0.35596 0.0
O141 O 0.28964 0.19821 0.34154 0.0
O142 O 0.25676 0.10487 0.37445 0.0
O143 O 0.3227 0.15139 0.37021 0.0
O144 O 0.20521 0.12337 0.36297 0.0
O145 O 0.23795 0.15367 0.35053 0.0
O146 O 0.19952 0.06199 0.34319 0.0
O147 O 0.22809 0.05608 0.35739 0.0
O148 O 0.27044 0.14449 0.32386 0.0
O149 O 0.20433 0.10013 0.32827 0.0
O150 O 0.32159 0.13114 0.33665 0.0
O151 O 0.28465 0.0963 0.34816 0.0
H152 H 0.37228 0.16805 0.38714 0.0
H153 H 0.38175 0.18453 0.4042 0.0
H154 H 0.24681 0.1471 0.40643 0.0
H155 H 0.23742 0.13097 0.38944 0.0
H156 H 0.17076 0.10628 0.30785 0.0
H157 H 0.15926 0.07069 0.2924 0.0
H158 H 0.26212 0.04383 0.29853 0.0
H159 H 0.27289 0.07896 0.31412 0.0
Ho160 Ho 0.90119 0.14461 0.35908 0.0
Ho161 Ho 0.90261 0.13186 0.33803 0.0
C162 C 0.80952 0.10071 0.3477 0.0
C163 C 0.90094 0.17365 0.37598 0.0
C164 C 0.8799 0.16692 0.38539 0.0
C165 C 0.8809 0.20246 0.3899 0.0
C166 C 0.87012 0.20044 0.39953 0.0
C167 C 0.85817 0.16277 0.40489 0.0
C168 C 0.85472 0.12627 0.4002 0.0
C169 C 0.8656 0.12834 0.39055 0.0
C170 C 0.88852 0.06535 0.3543 0.0
C171 C 0.98871 0.15791 0.35038 0.0
C172 C 0.91081 0.11266 0.32059 0.0
C173 C 0.93854 0.1315 0.31203 0.0
C174 C 0.9701 0.12035 0.30978 0.0
C175 C 0.99373 0.13458 0.3013 0.0
C176 C 0.98621 0.16007 0.2948 0.0
C177 C 0.95495 0.17162 0.29709 0.0
C178 C 0.93136 0.15747 0.30559 0.0
C179 C 0.92104 0.21371 0.34315 0.0
O180 O 0.83133 0.12383 0.35523 0.0
O181 O 0.83017 0.09412 0.34061 0.0
O182 O 0.91775 0.14952 0.3739 0.0
O183 O 0.88436 0.1824 0.36857 0.0
O184 O 0.90533 0.08481 0.36226 0.0
O185 O 0.87408 0.08612 0.34985 0.0
O186 O 0.96624 0.13777 0.34269 0.0
O187 O 0.97238 0.17238 0.35687 0.0
O188 O 0.88592 0.12807 0.3231 0.0
O189 O 0.92784 0.10417 0.32792 0.0
O190 O 0.89934 0.19278 0.33571 0.0
O191 O 0.93389 0.19083 0.34729 0.0
H192 H 0.89211 0.23263 0.38609 0.0
H193 H 0.87229 0.22885 0.40286 0.0
H194 H 0.84574 0.09679 0.40411 0.0
H195 H 0.86481 0.10049 0.38726 0.0
H196 H 0.97591 0.09975 0.31449 0.0
H197 H 1.01705 0.12448 0.29972 0.0
H198 H 0.94862 0.19157 0.2923 0.0
H199 H 0.90698 0.16632 0.30703 0.0
Ho200 Ho 0.88573 0.75934 0.35843 0.0
Ho201 Ho 0.89995 0.77374 0.33721 0.0
C202 C 0.93053 0.71191 0.34728 0.0
C203 C 0.85604 0.72841 0.3752 0.0
C204 C 0.86432 0.7125 0.38425 0.0
C205 C 0.83304 0.6717 0.38767 0.0
C206 C 0.83554 0.65905 0.39697 0.0
C207 C 0.86929 0.68712 0.40308 0.0
C208 C 0.9018 0.72714 0.39949 0.0
C209 C 0.89939 0.7397 0.39017 0.0
C210 C 0.9652 0.82547 0.35385 0.0
C211 C 0.87442 0.83452 0.34959 0.0
C212 C 0.92191 0.80105 0.31981 0.0
C213 C 0.90568 0.80847 0.31072 0.0
C214 C 0.93559 0.83848 0.30425 0.0
C215 C 0.92214 0.84447 0.29531 0.0
C216 C 0.87831 0.82053 0.29259 0.0
C217 C 0.84817 0.79096 0.29919 0.0
C218 C 0.86173 0.78491 0.30816 0.0
C219 C 0.81793 0.71075 0.34234 0.0
O220 O 0.90696 0.71073 0.3547 0.0
O221 O 0.93739 0.7388 0.34009 0.0
O222 O 0.88022 0.76967 0.37333 0.0
O223 O 0.84632 0.704 0.36758 0.0
O224 O 0.94574 0.82268 0.36183 0.0
O225 O 0.94434 0.79047 0.3493 0.0
O226 O 0.89456 0.83192 0.34191 0.0
O227 O 0.85935 0.80371 0.3561 0.0
O228 O 0.90674 0.76091 0.32245 0.0
O229 O 0.92658 0.82646 0.32695 0.0
O230 O 0.83827 0.7098 0.33481 0.0
O231 O 0.84112 0.74653 0.34642 0.0
H232 H 0.80539 0.65035 0.38331 0.0
H233 H 0.80971 0.6282 0.39952 0.0
H234 H 0.92853 0.74926 0.40397 0.0
H235 H 0.92405 0.77145 0.38776 0.0
H236 H 0.96965 0.85702 0.30608 0.0
H237 H 0.94617 0.86808 0.29052 0.0
H238 H 0.81421 0.77175 0.29733 0.0
H239 H 0.83807 0.76145 0.31303 0.0
Ho240 Ho 0.91209 0.77436 0.83861 0.0
Ho241 Ho 0.91925 0.76186 0.85968 0.0
C242 C 1.00087 0.8383 0.84995 0.0
C243 C 0.91454 0.80067 0.8212 0.0
C244 C 0.93941 0.80874 0.81215 0.0
C245 C 0.9783 0.8479 0.81061 0.0
C246 C 0.99959 0.85674 0.8018 0.0
C247 C 0.98257 0.82678 0.79424 0.0
C248 C 0.94379 0.78749 0.79582 0.0
C249 C 0.92248 0.77868 0.80463 0.0
C250 C 0.9339 0.71279 0.84284 0.0
C251 C 0.82467 0.70878 0.84973 0.0
C252 C 0.92327 0.73478 0.87664 0.0
C253 C 0.90461 0.7272 0.8864 0.0
C254 C 0.87458 0.6852 0.88954 0.0
C255 C 0.86201 0.67735 0.89915 0.0
C256 C 0.87946 0.71126 0.90587 0.0
C257 C 0.90866 0.75338 0.90264 0.0
C258 C 0.92104 0.76121 0.89308 0.0
C259 C 0.90105 0.82538 0.85565 0.0
O260 O 0.97508 0.83464 0.84281 0.0
O261 O 0.98885 0.80693 0.85624 0.0
O262 O 0.89029 0.76052 0.82393 0.0
O263 O 0.93382 0.82665 0.82837 0.0
O264 O 0.91015 0.71127 0.83576 0.0
O265 O 0.94763 0.74859 0.84704 0.0
O266 O 0.85076 0.70864 0.85642 0.0
O267 O 0.84061 0.73696 0.84259 0.0
O268 O 0.94591 0.77495 0.87383 0.0
O269 O 0.90037 0.70867 0.86972 0.0
O270 O 0.92059 0.82408 0.86328 0.0
O271 O 0.88669 0.79007 0.85125 0.0
H272 H 0.99202 0.87221 0.81616 0.0
H273 H 0.02893 0.88764 0.80086 0.0
H274 H 0.92986 0.76335 0.79024 0.0
H275 H 0.89231 0.74844 0.8055 0.0
H276 H 0.86171 0.65814 0.88463 0.0
H277 H 0.83905 0.64456 0.90131 0.0
H278 H 0.92352 0.78029 0.90758 0.0
H279 H 0.94486 0.79389 0.891 0.0
Ho280 Ho 0.25862 0.13648 0.8371 0.0
Ho281 Ho 0.272 0.15859 0.85954 0.0
C282 C 0.20425 0.17267 0.84835 0.0
C283 C 0.22926 0.10378 0.82043 0.0
C284 C 0.2242 0.11984 0.8111 0.0
C285 C 0.20311 0.09052 0.80364 0.0
C286 C 0.19645 0.10496 0.79487 0.0
C287 C 0.21069 0.14914 0.79336 0.0
C288 C 0.23231 0.17848 0.80085 0.0
C289 C 0.23893 0.16398 0.80963 0.0
C290 C 0.3176 0.22273 0.84024 0.0
C291 C 0.31729 0.10775 0.85002 0.0
C292 C 0.30159 0.1948 0.87592 0.0
C293 C 0.31337 0.18933 0.88567 0.0
C294 C 0.33301 0.22582 0.89159 0.0
C295 C 0.34085 0.22184 0.90117 0.0
C296 C 0.32928 0.18117 0.90508 0.0
C297 C 0.31081 0.14465 0.89904 0.0
C298 C 0.30266 0.14866 0.88941 0.0
C299 C 0.20419 0.07939 0.85473 0.0
O300 O 0.20279 0.14581 0.84164 0.0
O301 O 0.23722 0.19169 0.85429 0.0
O302 O 0.26903 0.11687 0.82321 0.0
O303 O 0.20487 0.10462 0.82731 0.0
O304 O 0.30721 0.20453 0.83195 0.0
O305 O 0.29614 0.19327 0.84616 0.0
O306 O 0.31397 0.1288 0.85748 0.0
O307 O 0.29761 0.10455 0.84171 0.0
O308 O 0.26037 0.17325 0.87375 0.0
O309 O 0.32667 0.19678 0.86889 0.0
O310 O 0.20635 0.09938 0.86263 0.0
O311 O 0.24006 0.10014 0.85053 0.0
H312 H 0.19125 0.05628 0.80465 0.0
H313 H 0.17917 0.08131 0.78934 0.0
H314 H 0.24424 0.21277 0.79994 0.0
H315 H 0.25523 0.18717 0.81529 0.0
H316 H 0.34145 0.25747 0.88884 0.0
H317 H 0.35578 0.2507 0.90556 0.0
H318 H 0.30145 0.11287 0.90184 0.0
H319 H 0.28722 0.12004 0.88495 0.0
Ho320 Ho 0.89895 0.1242 0.84039 0.0
Ho321 Ho 0.88979 0.12262 0.86216 0.0
C322 C 0.88238 0.03926 0.85247 0.0
C323 C 0.91738 0.12064 0.82258 0.0
C324 C 0.90157 0.0948 0.81368 0.0
C325 C 0.93116 0.09002 0.80796 0.0
C326 C 0.9186 0.06905 0.79912 0.0
C327 C 0.87598 0.05224 0.79575 0.0
C328 C 0.84606 0.05629 0.8016 0.0
C329 C 0.85871 0.0774 0.81045 0.0
C330 C 0.81769 0.09783 0.84712 0.0
C331 C 0.92163 0.21329 0.8511 0.0
C332 C 0.86257 0.12008 0.87938 0.0
C333 C 0.86628 0.14394 0.88829 0.0
C334 C 0.82953 0.14419 0.89176 0.0
C335 C 0.82907 0.1589 0.90097 0.0
C336 C 0.86536 0.17356 0.90696 0.0
C337 C 0.90292 0.17525 0.90332 0.0
C338 C 0.90339 0.16056 0.89408 0.0
C339 C 0.96969 0.14333 0.85601 0.0
O340 O 0.89888 0.06242 0.84461 0.0
O341 O 0.86779 0.05311 0.85947 0.0
O342 O 0.89732 0.14057 0.8256 0.0
O343 O 0.92923 0.10461 0.82955 0.0
O344 O 0.83318 0.11945 0.83933 0.0
O345 O 0.84472 0.08874 0.85047 0.0
O346 O 0.90041 0.18892 0.85852 0.0
O347 O 0.93105 0.19641 0.84366 0.0
O348 O 0.89421 0.11316 0.87718 0.0
O349 O 0.84491 0.12709 0.87191 0.0
O350 O 0.95365 0.12539 0.86415 0.0
O351 O 0.94504 0.15461 0.85211 0.0
H352 H 0.9644 0.1032 0.81027 0.0
H353 H 0.94239 0.06595 0.79494 0.0
H354 H 0.81307 0.04411 0.79923 0.0
H355 H 0.83519 0.08073 0.81469 0.0
H356 H 0.80027 0.13096 0.88751 0.0
H357 H 0.79938 0.15658 0.90355 0.0
H358 H 0.93165 0.18692 0.90769 0.0
H359 H 0.93222 0.16066 0.89165 0.0
Ho360 Ho 0.78671 0.90313 0.69766 0.0
Ho361 Ho 0.76464 0.90495 0.67561 0.0
C362 C 0.84074 0.98998 0.68531 0.0
C363 C 0.81776 0.90112 0.71421 0.0
C364 C 0.82591 0.92343 0.72357 0.0
C365 C 0.84623 0.96878 0.72428 0.0
C366 C 0.8553 0.98906 0.73322 0.0
C367 C 0.84414 0.96456 0.74169 0.0
C368 C 0.82301 0.91912 0.74093 0.0
C369 C 0.81413 0.89888 0.73199 0.0
C370 C 0.72871 0.9324 0.69502 0.0
C371 C 0.7214 0.81161 0.68659 0.0
C372 C 0.72853 0.90771 0.65982 0.0
C373 C 0.71502 0.88866 0.65024 0.0
C374 C 0.69125 0.90178 0.64462 0.0
C375 C 0.68304 0.88974 0.63505 0.0
C376 C 0.69835 0.86413 0.63088 0.0
C377 C 0.7206 0.84935 0.63664 0.0
C378 C 0.72914 0.86177 0.64625 0.0
C379 C 0.83396 0.89479 0.67891 0.0
O380 O 0.84218 0.96614 0.69236 0.0
O381 O 0.80751 0.97523 0.67935 0.0
O382 O 0.77715 0.87554 0.71183 0.0
O383 O 0.84185 0.9238 0.707 0.0
O384 O 0.74191 0.92721 0.70322 0.0
O385 O 0.74715 0.9211 0.68905 0.0
O386 O 0.72227 0.83329 0.6788 0.0
O387 O 0.74493 0.83135 0.69429 0.0
O388 O 0.77023 0.92963 0.66139 0.0
O389 O 0.70641 0.88484 0.66719 0.0
O390 O 0.82698 0.90962 0.67106 0.0
O391 O 0.8004 0.88024 0.68407 0.0
H392 H 0.85545 0.98865 0.71793 0.0
H393 H 0.87104 0.02405 0.7335 0.0
H394 H 0.81431 0.89915 0.74726 0.0
H395 H 0.79852 0.86389 0.73165 0.0
H396 H 0.68024 0.92268 0.64756 0.0
H397 H 0.66524 0.90109 0.63085 0.0
H398 H 0.73291 0.8297 0.63362 0.0
H399 H 0.74788 0.8516 0.65046 0.0
Ho400 Ho 0.13422 0.88764 0.69519 0.0
Ho401 Ho 0.11962 0.87488 0.67412 0.0
C402 C 0.04194 0.86868 0.68641 0.0
C403 C 0.13835 0.90657 0.71321 0.0
C404 C 0.11268 0.89096 0.72216 0.0
C405 C 0.07393 0.89165 0.72346 0.0
C406 C 0.05222 0.88001 0.73224 0.0
C407 C 0.06862 0.8674 0.73997 0.0
C408 C 0.1071 0.86621 0.73859 0.0
C409 C 0.12884 0.87795 0.72982 0.0
C410 C 0.10406 0.80452 0.68891 0.0
C411 C 0.21787 0.91205 0.68239 0.0
C412 C 0.11015 0.84562 0.65686 0.0
C413 C 0.13275 0.85095 0.64768 0.0
C414 C 0.13232 0.81488 0.64358 0.0
C415 C 0.14782 0.81694 0.63434 0.0
C416 C 0.16395 0.85514 0.62893 0.0
C417 C 0.16569 0.89175 0.63316 0.0
C418 C 0.15029 0.88972 0.64243 0.0
C419 C 0.14166 0.95577 0.67973 0.0
O420 O 0.07012 0.88566 0.69348 0.0
O421 O 0.05156 0.85465 0.67858 0.0
O422 O 0.15346 0.883 0.70962 0.0
O423 O 0.12498 0.92302 0.70662 0.0
O424 O 0.13169 0.82257 0.69575 0.0
O425 O 0.09241 0.83059 0.68616 0.0
O426 O 0.1899 0.89093 0.67543 0.0
O427 O 0.20433 0.91983 0.69054 0.0
O428 O 0.10252 0.87634 0.65945 0.0
O429 O 0.12045 0.82909 0.66403 0.0
O430 O 0.11735 0.93576 0.67248 0.0
O431 O 0.15754 0.93374 0.68308 0.0
H432 H 0.06067 0.90187 0.71776 0.0
H433 H 0.02305 0.88194 0.73303 0.0
H434 H 0.12049 0.85606 0.74428 0.0
H435 H 0.15875 0.87737 0.72907 0.0
H436 H 0.11848 0.78446 0.64741 0.0
H437 H 0.14543 0.78794 0.63129 0.0
H438 H 0.1784 0.92183 0.62924 0.0
H439 H 0.15103 0.91813 0.64538 0.0
Ho440 Ho 0.14478 0.25582 0.69644 0.0
Ho441 Ho 0.15935 0.25586 0.6753 0.0
C442 C 0.17174 0.18858 0.68773 0.0
C443 C 0.12564 0.2384 0.71437 0.0
C444 C 0.14112 0.22584 0.72299 0.0
C445 C 0.13031 0.1826 0.72454 0.0
C446 C 0.14206 0.17043 0.73302 0.0
C447 C 0.16485 0.20109 0.7402 0.0
C448 C 0.17602 0.24442 0.7386 0.0
C449 C 0.16418 0.25658 0.73013 0.0
C450 C 0.22616 0.31552 0.69052 0.0
C451 C 0.11877 0.31337 0.68381 0.0
C452 C 0.18765 0.27568 0.65791 0.0
C453 C 0.17842 0.28483 0.6481 0.0
C454 C 0.18731 0.3264 0.64533 0.0
C455 C 0.18392 0.33553 0.63573 0.0
C456 C 0.17181 0.3034 0.62866 0.0
C457 C 0.16221 0.26171 0.63151 0.0
C458 C 0.16553 0.25263 0.64106 0.0
C459 C 0.07862 0.19458 0.68081 0.0
O460 O 0.15208 0.19712 0.69463 0.0
O461 O 0.18524 0.21285 0.67999 0.0
O462 O 0.14988 0.27761 0.71107 0.0
O463 O 0.10837 0.20984 0.70755 0.0
O464 O 0.20473 0.3216 0.69716 0.0
O465 O 0.20407 0.27708 0.68753 0.0
O466 O 0.14175 0.30879 0.67693 0.0
O467 O 0.10982 0.29053 0.69176 0.0
O468 O 0.16421 0.23608 0.66104 0.0
O469 O 0.19733 0.30457 0.66463 0.0
O470 O 0.0984 0.19146 0.67339 0.0
O471 O 0.10024 0.23227 0.68421 0.0
H472 H 0.11204 0.15783 0.71928 0.0
H473 H 0.13224 0.13665 0.73402 0.0
H474 H 0.19402 0.2691 0.74389 0.0
H475 H 0.17264 0.29006 0.72922 0.0
H476 H 0.19788 0.35218 0.65052 0.0
H477 H 0.19116 0.3679 0.63385 0.0
H478 H 0.15364 0.23626 0.62632 0.0
H479 H 0.15938 0.22054 0.64289 0.0
Ho480 Ho 0.78727 0.59683 0.50476 0.0
Ho481 Ho 0.79227 0.58987 0.52636 0.0
C482 C 0.88002 0.65454 0.51517 0.0
C483 C 0.78315 0.61969 0.48746 0.0
C484 C 0.80497 0.6314 0.47807 0.0
C485 C 0.84412 0.67023 0.47653 0.0
C486 C 0.86087 0.68229 0.46729 0.0
C487 C 0.83878 0.65583 0.45942 0.0
C488 C 0.80028 0.6165 0.46107 0.0
C489 C 0.78364 0.60454 0.47026 0.0
C490 C 0.80663 0.53613 0.51038 0.0
C491 C 0.70433 0.52347 0.51507 0.0
C492 C 0.79149 0.5683 0.54408 0.0
C493 C 0.76705 0.5576 0.55322 0.0
C494 C 0.74071 0.5141 0.55594 0.0
C495 C 0.72308 0.50343 0.56512 0.0
C496 C 0.73153 0.53594 0.57186 0.0
C497 C 0.75649 0.57951 0.56902 0.0
C498 C 0.77422 0.5902 0.55983 0.0
C499 C 0.76743 0.64677 0.52012 0.0
O500 O 0.85491 0.6517 0.50794 0.0
O501 O 0.86371 0.62864 0.52267 0.0
O502 O 0.7673 0.57952 0.49017 0.0
O503 O 0.79946 0.6473 0.49453 0.0
O504 O 0.78763 0.53483 0.50244 0.0
O505 O 0.81977 0.57232 0.51435 0.0
O506 O 0.72903 0.52893 0.52258 0.0
O507 O 0.71756 0.55276 0.50824 0.0
O508 O 0.81054 0.60835 0.54108 0.0
O509 O 0.77524 0.54034 0.53711 0.0
O510 O 0.78997 0.65218 0.52774 0.0
O511 O 0.75654 0.6102 0.51674 0.0
H512 H 0.86126 0.69172 0.48241 0.0
H513 H 0.8908 0.71262 0.46629 0.0
H514 H 0.78186 0.59566 0.4552 0.0
H515 H 0.75309 0.57474 0.47122 0.0
H516 H 0.73488 0.48811 0.55109 0.0
H517 H 0.70346 0.46954 0.56699 0.0
H518 H 0.76402 0.60541 0.57404 0.0
H519 H 0.79487 0.62406 0.55805 0.0
Ho520 Ho 0.42749 0.20771 0.50863 0.0
Ho521 Ho 0.44362 0.22242 0.5299 0.0
C522 C 0.38263 0.25364 0.52027 0.0
C523 C 0.39708 0.17963 0.49164 0.0
C524 C 0.39037 0.19227 0.48195 0.0
C525 C 0.3483 0.17791 0.47853 0.0
C526 C 0.3412 0.18319 0.46891 0.0
C527 C 0.376 0.20255 0.46242 0.0
C528 C 0.4182 0.21816 0.46596 0.0
C529 C 0.42527 0.21316 0.47556 0.0
C530 C 0.49515 0.28675 0.51307 0.0
C531 C 0.50151 0.19438 0.51753 0.0
C532 C 0.47261 0.24529 0.54716 0.0
C533 C 0.47953 0.22918 0.55628 0.0
C534 C 0.50684 0.2594 0.56305 0.0
C535 C 0.51263 0.24586 0.57199 0.0
C536 C 0.49129 0.20159 0.57438 0.0
C537 C 0.4642 0.17121 0.5675 0.0
C538 C 0.45839 0.18489 0.55852 0.0
C539 C 0.37771 0.14155 0.52502 0.0
O540 O 0.37891 0.22845 0.51294 0.0
O541 O 0.41156 0.26179 0.52704 0.0
O542 O 0.43697 0.19335 0.49426 0.0
O543 O 0.3728 0.17881 0.49873 0.0
O544 O 0.49086 0.26749 0.505 0.0
O545 O 0.4605 0.26632 0.51771 0.0
O546 O 0.50014 0.21559 0.5251 0.0
O547 O 0.47027 0.17931 0.5111 0.0
O548 O 0.43258 0.23166 0.54464 0.0
O549 O 0.49694 0.24765 0.53998 0.0
O550 O 0.37882 0.1626 0.5326 0.0
O551 O 0.41328 0.16317 0.52074 0.0
H552 H 0.32065 0.16123 0.48322 0.0
H553 H 0.30829 0.17136 0.46653 0.0
H554 H 0.44589 0.23261 0.46124 0.0
H555 H 0.45814 0.22415 0.47786 0.0
H556 H 0.52323 0.29375 0.56148 0.0
H557 H 0.53308 0.2703 0.57711 0.0
H558 H 0.4476 0.13686 0.56903 0.0
H559 H 0.43714 0.16102 0.55338 0.0
Ho560 Ho 0.81562 0.24123 0.50653 0.0
Ho561 Ho 0.81231 0.24301 0.52815 0.0
C562 C 0.78939 0.15309 0.51738 0.0
C563 C 0.82525 0.23788 0.48834 0.0
C564 C 0.83508 0.22089 0.47964 0.0
C565 C 0.87789 0.23549 0.47673 0.0
C566 C 0.88654 0.22673 0.46751 0.0
C567 C 0.85263 0.20367 0.46095 0.0
C568 C 0.80976 0.18712 0.46409 0.0
C569 C 0.80116 0.19563 0.4733 0.0
C570 C 0.74113 0.23309 0.51377 0.0
C571 C 0.83133 0.32718 0.51634 0.0
C572 C 0.79775 0.2354 0.54637 0.0
C573 C 0.81374 0.25977 0.55547 0.0
C574 C 0.78408 0.26194 0.56169 0.0
C575 C 0.79742 0.28242 0.57058 0.0
C576 C 0.84091 0.30127 0.57351 0.0
C577 C 0.87072 0.2994 0.56721 0.0
C578 C 0.85733 0.27893 0.5583 0.0
C579 C 0.89382 0.28048 0.52074 0.0
O580 O 0.8063 0.17581 0.50957 0.0
O581 O 0.78461 0.17105 0.52523 0.0
O582 O 0.78899 0.21289 0.49284 0.0
O583 O 0.85663 0.26458 0.49399 0.0
O584 O 0.75967 0.25353 0.50605 0.0
O585 O 0.76183 0.21606 0.51713 0.0
O586 O 0.81125 0.30381 0.52396 0.0
O587 O 0.84579 0.31179 0.50963 0.0
O588 O 0.82227 0.22306 0.54203 0.0
O589 O 0.77844 0.2485 0.54042 0.0
O590 O 0.88296 0.29355 0.52828 0.0
O591 O 0.86128 0.24623 0.51774 0.0
H592 H 0.90481 0.25531 0.48141 0.0
H593 H 0.91994 0.23933 0.46541 0.0
H594 H 0.78275 0.16978 0.45927 0.0
H595 H 0.76785 0.18456 0.47527 0.0
H596 H 0.75027 0.24737 0.55971 0.0
H597 H 0.77358 0.28375 0.57511 0.0
H598 H 0.90436 0.31304 0.56922 0.0
H599 H 0.88103 0.27769 0.5537 0.0
Ho600 Ho 0.9245 0.44833 0.69385 0.0
Ho601 Ho 0.92395 0.45904 0.67218 0.0
C602 C 0.98456 0.54441 0.68456 0.0
C603 C 0.94531 0.43991 0.71113 0.0
C604 C 0.96478 0.45983 0.7205 0.0
C605 C 1.0051 0.46491 0.7231 0.0
C606 C 1.02002 0.47477 0.7325 0.0
C607 C 0.99492 0.47958 0.73961 0.0
C608 C 0.95567 0.47691 0.73691 0.0
C609 C 0.94067 0.46693 0.72749 0.0
C610 C 0.86562 0.46928 0.68779 0.0
C611 C 0.85192 0.36849 0.68197 0.0
C612 C 0.90762 0.46145 0.65418 0.0
C613 C 0.89972 0.43719 0.64512 0.0
C614 C 0.87892 0.39176 0.64484 0.0
C615 C 0.86921 0.36981 0.63607 0.0
C616 C 0.88003 0.39276 0.62738 0.0
C617 C 0.90166 0.43833 0.62775 0.0
C618 C 0.91133 0.46017 0.6365 0.0
C619 C 0.97767 0.43087 0.67882 0.0
O620 O 0.97932 0.51774 0.69169 0.0
O621 O 0.96145 0.52961 0.67663 0.0
O622 O 0.90797 0.43582 0.70878 0.0
O623 O 0.97083 0.44764 0.70379 0.0
O624 O 0.86193 0.44795 0.69554 0.0
O625 O 0.90291 0.48339 0.68425 0.0
O626 O 0.86202 0.39541 0.67468 0.0
O627 O 0.8764 0.3796 0.68971 0.0
O628 O 0.94673 0.47983 0.65772 0.0
O629 O 0.87781 0.44419 0.66076 0.0
O630 O 0.98588 0.45572 0.67149 0.0
O631 O 0.94036 0.42006 0.68174 0.0
H632 H 0.02431 0.45919 0.71795 0.0
H633 H 0.05072 0.47724 0.73427 0.0
H634 H 0.93532 0.4801 0.74219 0.0
H635 H 0.90918 0.46273 0.7258 0.0
H636 H 0.86967 0.37322 0.65138 0.0
H637 H 0.85313 0.33478 0.63611 0.0
H638 H 0.91001 0.45725 0.62127 0.0
H639 H 0.92717 0.49521 0.63653 0.0
Ho640 Ho 0.57455 0.4889 0.6916 0.0
Ho641 Ho 0.57562 0.47395 0.6704 0.0
C642 C 0.48284 0.44114 0.6803 0.0
C643 C 0.57317 0.51915 0.70831 0.0
C644 C 0.55032 0.512 0.71752 0.0
C645 C 0.54664 0.54609 0.72149 0.0
C646 C 0.53323 0.54409 0.73093 0.0
C647 C 0.52331 0.50792 0.73666 0.0
C648 C 0.52494 0.47281 0.73252 0.0
C649 C 0.53831 0.47481 0.72305 0.0
C650 C 0.56432 0.41035 0.68725 0.0
C651 C 0.66196 0.50247 0.68277 0.0
C652 C 0.58132 0.45142 0.65308 0.0
C653 C 0.60335 0.46802 0.64385 0.0
C654 C 0.59923 0.43817 0.63686 0.0
C655 C 0.61716 0.45219 0.62781 0.0
C656 C 0.63988 0.49659 0.62552 0.0
C657 C 0.64449 0.52658 0.63263 0.0
C658 C 0.62636 0.51242 0.64171 0.0
C659 C 0.59231 0.55541 0.67533 0.0
O660 O 0.50439 0.46596 0.68766 0.0
O661 O 0.50374 0.43414 0.67335 0.0
O662 O 0.59059 0.4953 0.7065 0.0
O663 O 0.5574 0.52756 0.70071 0.0
O664 O 0.58053 0.43066 0.69517 0.0
O665 O 0.54899 0.42984 0.68261 0.0
O666 O 0.63926 0.4808 0.67523 0.0
O667 O 0.64572 0.5177 0.68913 0.0
O668 O 0.55412 0.46374 0.65575 0.0
O669 O 0.60438 0.45011 0.66016 0.0
O670 O 0.57172 0.53456 0.66778 0.0
O671 O 0.60557 0.53313 0.67952 0.0
H672 H 0.55626 0.57534 0.71742 0.0
H673 H 0.53287 0.57196 0.73387 0.0
H674 H 0.51688 0.44417 0.73667 0.0
H675 H 0.5409 0.448 0.7202 0.0
H676 H 0.58131 0.40374 0.63834 0.0
H677 H 0.61215 0.428 0.62252 0.0
H678 H 0.66215 0.56102 0.63119 0.0
H679 H 0.62987 0.53602 0.64702 0.0
Ho680 Ho 0.5439 0.0924 0.69437 0.0
Ho681 Ho 0.56176 0.11091 0.67218 0.0
C682 C 0.58915 0.04717 0.68276 0.0
C683 C 0.4997 0.05818 0.70966 0.0
C684 C 0.50127 0.04053 0.71899 0.0
C685 C 0.46329 0.01976 0.72442 0.0
C686 C 0.46454 1.00793 0.73384 0.0
C687 C 0.50393 0.01661 0.73802 0.0
C688 C 0.54172 0.03578 0.73238 0.0
C689 C 0.54042 0.04777 0.72295 0.0
C690 C 0.62962 0.14782 0.6914 0.0
C691 C 0.54558 0.17697 0.68531 0.0
C692 C 0.58716 0.13969 0.65505 0.0
C693 C 0.57266 0.14853 0.64583 0.0
C694 C 0.59037 0.19155 0.64274 0.0
C695 C 0.58194 0.20083 0.63357 0.0
C696 C 0.55579 0.16729 0.6272 0.0
C697 C 0.53679 0.1242 0.63041 0.0
C698 C 0.54524 0.11491 0.6396 0.0
C699 C 0.4783 0.05223 0.67754 0.0
O700 O 0.56307 0.04319 0.68993 0.0
O701 O 0.59754 0.0752 0.67572 0.0
O702 O 0.52584 0.09989 0.70854 0.0
O703 O 0.49692 0.03537 0.70208 0.0
O704 O 0.61257 0.13355 0.69976 0.0
O705 O 0.59988 0.13005 0.68526 0.0
O706 O 0.55744 0.16933 0.6769 0.0
O707 O 0.53493 0.14996 0.69262 0.0
O708 O 0.57195 0.09926 0.65755 0.0
O709 O 0.59136 0.16466 0.66228 0.0
O710 O 0.49525 0.0509 0.66948 0.0
O711 O 0.50537 0.08621 0.68171 0.0
H712 H 0.43284 1.01422 0.72149 0.0
H713 H 0.43493 0.99382 0.73796 0.0
H714 H 0.57249 0.04235 0.73532 0.0
H715 H 0.57011 0.06385 0.71884 0.0
H716 H 0.61187 0.21816 0.64732 0.0
H717 H 0.59654 0.23441 0.63142 0.0
H718 H 0.51678 0.09755 0.62569 0.0
H719 H 0.53134 0.08134 0.64171 0.0
Ho720 Ho 0.58009 0.11554 0.17069 0.0
Ho721 Ho 0.57956 0.09378 0.193 0.0
C722 C 0.66588 0.16825 0.18347 0.0
C723 C 0.57972 0.1487 0.15434 0.0
C724 C 0.60002 0.15461 0.14487 0.0
C725 C 0.60602 0.18935 0.13914 0.0
C726 C 0.62398 0.195 0.13003 0.0
C727 C 0.63628 0.1659 0.12643 0.0
C728 C 0.63061 0.13131 0.13226 0.0
C729 C 0.61276 0.12578 0.1414 0.0
C730 C 0.60702 0.05627 0.17358 0.0
C731 C 0.4878 0.05025 0.18128 0.0
C732 C 0.57961 0.05915 0.20925 0.0
C733 C 0.56148 0.05086 0.219 0.0
C734 C 0.55852 0.01576 0.22413 0.0
C735 C 0.54841 1.01091 0.23385 0.0
C736 C 0.54111 0.04123 0.2387 0.0
C737 C 0.54217 0.07534 0.23342 0.0
C738 C 0.55226 0.08012 0.22368 0.0
C739 C 0.56896 0.16222 0.18891 0.0
O740 O 0.6423 0.17053 0.17646 0.0
O741 O 0.65025 0.13465 0.18934 0.0
O742 O 0.55146 0.10886 0.1568 0.0
O743 O 0.60544 0.1713 0.16134 0.0
O744 O 0.60281 0.06985 0.16533 0.0
O745 O 0.59598 0.07492 0.1796 0.0
O746 O 0.50861 0.05022 0.18916 0.0
O747 O 0.50826 0.07466 0.17375 0.0
O748 O 0.60622 0.09962 0.20703 0.0
O749 O 0.55414 0.03693 0.20218 0.0
O750 O 0.58226 0.15659 0.19711 0.0
O751 O 0.5565 0.12849 0.18402 0.0
H752 H 0.59636 0.21192 0.14168 0.0
H753 H 0.62735 0.22166 0.12572 0.0
H754 H 0.6402 0.10861 0.12978 0.0
H755 H 0.60869 0.09886 0.14572 0.0
H756 H 0.56592 0.99302 0.2207 0.0
H757 H 0.54841 0.98454 0.23766 0.0
H758 H 0.53607 0.09892 0.23686 0.0
H759 H 0.55435 0.10753 0.21988 0.0
Ho760 Ho 0.92434 0.47282 0.17202 0.0
Ho761 Ho 0.94032 0.48327 0.19483 0.0
C762 C 0.8644 0.49451 0.18491 0.0
C763 C 0.91059 0.45124 0.15417 0.0
C764 C 0.90274 0.46585 0.1449 0.0
C765 C 0.88872 0.43712 0.13716 0.0
C766 C 0.88174 0.44995 0.12822 0.0
C767 C 0.88855 0.49197 0.12678 0.0
C768 C 0.90239 0.52069 0.13461 0.0
C769 C 0.90938 0.50775 0.14357 0.0
C770 C 0.9731 0.55509 0.17875 0.0
C771 C 0.98362 0.43792 0.18297 0.0
C772 C 0.96838 0.51709 0.21152 0.0
C773 C 0.97586 0.50853 0.22151 0.0
C774 C 1.01139 0.50369 0.22399 0.0
C775 C 0.02167 0.50236 0.23358 0.0
C776 C 0.99684 0.50603 0.24094 0.0
C777 C 0.96042 0.5093 0.23842 0.0
C778 C 0.9502 0.51069 0.22884 0.0
C779 C 0.87683 0.40168 0.18984 0.0
O780 O 0.86551 0.47437 0.17707 0.0
O781 O 0.89552 0.50904 0.19145 0.0
O782 O 0.94934 0.47428 0.15789 0.0
O783 O 0.87968 0.43808 0.16053 0.0
O784 O 0.95036 0.54476 0.171 0.0
O785 O 0.97264 0.52181 0.18197 0.0
O786 O 0.98392 0.45732 0.19105 0.0
O787 O 0.96122 0.43739 0.17532 0.0
O788 O 0.92824 0.50143 0.20872 0.0
O789 O 0.99344 0.51628 0.20479 0.0
O790 O 0.88989 0.41298 0.19857 0.0
O791 O 0.89936 0.4342 0.18474 0.0
H792 H 0.8835 0.40466 0.13801 0.0
H793 H 0.87181 0.42707 0.12239 0.0
H794 H 0.9075 0.55311 0.13384 0.0
H795 H 0.92006 0.53045 0.14946 0.0
H796 H 0.03211 0.50225 0.21854 0.0
H797 H 0.04961 0.49923 0.23523 0.0
H798 H 0.94085 0.51283 0.24385 0.0
H799 H 0.92306 0.51516 0.22719 0.0
Ho800 Ho 0.56561 0.45977 0.17338 0.0
Ho801 Ho 0.55255 0.45636 0.19513 0.0
C802 C 0.54681 0.37423 0.1853 0.0
C803 C 0.5873 0.4582 0.15572 0.0
C804 C 0.57143 0.43586 0.14643 0.0
C805 C 0.60171 0.44263 0.1393 0.0
C806 C 0.58822 0.42436 0.13023 0.0
C807 C 0.54389 0.39858 0.12802 0.0
C808 C 0.51351 0.39133 0.13527 0.0
C809 C 0.52713 0.4098 0.14437 0.0
C810 C 0.483 0.43338 0.17936 0.0
C811 C 0.58761 0.5482 0.18433 0.0
C812 C 0.52329 0.45267 0.21222 0.0
C813 C 0.53252 0.47439 0.22161 0.0
C814 C 0.49838 0.47359 0.22673 0.0
C815 C 0.50368 0.48623 0.2363 0.0
C816 C 0.54329 0.49976 0.241 0.0
C817 C 0.57819 0.50273 0.2357 0.0
C818 C 0.57289 0.49021 0.22611 0.0
C819 C 0.63336 0.47654 0.18985 0.0
O820 O 0.56621 0.39867 0.17776 0.0
O821 O 0.52926 0.38685 0.19192 0.0
O822 O 0.5709 0.48149 0.15879 0.0
O823 O 0.59323 0.43702 0.16258 0.0
O824 O 0.49965 0.45433 0.17154 0.0
O825 O 0.50948 0.42435 0.18303 0.0
O826 O 0.56483 0.52334 0.19155 0.0
O827 O 0.59788 0.53163 0.17697 0.0
O828 O 0.54721 0.43611 0.20972 0.0
O829 O 0.51365 0.46976 0.20504 0.0
O830 O 0.61594 0.45939 0.19796 0.0
O831 O 0.60977 0.48821 0.18558 0.0
H832 H 0.63606 0.46285 0.1407 0.0
H833 H 0.61271 0.43149 0.12487 0.0
H834 H 0.47914 0.37129 0.13393 0.0
H835 H 0.50311 0.40409 0.14975 0.0
H836 H 0.46683 0.46112 0.22345 0.0
H837 H 0.47597 0.4831 0.24016 0.0
H838 H 0.60933 0.51363 0.23904 0.0
H839 H 0.59985 0.49121 0.22233 0.0
Ho840 Ho 0.45075 0.24198 0.02862 0.0
Ho841 Ho 0.44142 0.24457 1.00691 0.0
C842 C 0.51826 0.32699 1.0165 0.0
C843 C 0.47373 0.24493 0.04636 0.0
C844 C 0.48392 0.26964 0.05551 0.0
C845 C 0.52717 0.29888 0.05802 0.0
C846 C 0.53781 0.31706 0.06717 0.0
C847 C 0.50559 0.30636 0.07415 0.0
C848 C 0.46213 0.27835 0.07153 0.0
C849 C 0.45147 0.26007 0.06236 0.0
C850 C 0.39498 0.26829 0.02249 0.0
C851 C 0.38306 0.15369 0.01783 0.0
C852 C 0.41632 0.24803 0.98976 0.0
C853 C 0.39705 0.22596 0.98059 0.0
C854 C 0.35465 0.21556 0.97823 0.0
C855 C 0.33932 0.20423 0.96889 0.0
C856 C 0.36612 0.20337 0.96164 0.0
C857 C 0.40757 0.21105 0.96413 0.0
C858 C 0.42292 0.22237 0.97348 0.0
C859 C 0.50128 0.22367 1.01253 0.0
O860 O 0.51259 0.30322 0.0242 0.0
O861 O 0.48854 0.31398 1.00978 0.0
O862 O 0.43356 0.22415 0.04343 0.0
O863 O 0.50115 0.26172 0.03931 0.0
O864 O 0.38993 0.24659 0.03021 0.0
O865 O 0.43082 0.27772 0.01887 0.0
O866 O 0.38562 0.17848 1.01057 0.0
O867 O 0.41014 0.17007 0.02517 0.0
O868 O 0.45534 0.25609 0.99191 0.0
O869 O 0.39132 0.23906 0.99725 0.0
O870 O 0.50238 0.24196 1.00449 0.0
O871 O 0.46562 0.21213 1.01662 0.0
H872 H 0.55313 0.30671 0.05301 0.0
H873 H 0.57156 0.33901 0.06884 0.0
H874 H 0.43641 0.26895 0.07669 0.0
H875 H 0.41787 0.23717 0.06076 0.0
H876 H 0.33402 0.21842 0.98349 0.0
H877 H 0.30696 0.19783 0.96727 0.0
H878 H 0.42925 0.21104 0.95874 0.0
H879 H 0.45595 0.23065 0.97499 0.0
Ho880 Ho 0.7949 0.22275 0.03002 0.0
Ho881 Ho 0.78858 0.20021 1.00768 0.0
C882 C 0.70647 0.19213 0.01808 0.0
C883 C 0.80041 0.25892 0.04633 0.0
C884 C 0.78028 0.24868 0.05589 0.0
C885 C 0.76882 0.27722 0.06007 0.0
C886 C 0.75192 0.27004 0.0693 0.0
C887 C 0.74626 0.23417 0.07464 0.0
C888 C 0.75696 0.20503 0.07036 0.0
C889 C 0.77378 0.21219 0.06108 0.0
C890 C 0.76241 0.13536 0.02704 0.0
C891 C 0.88236 0.2413 0.01829 0.0
C892 C 0.78447 0.16514 0.99129 0.0
C893 C 0.80738 0.1719 0.98212 0.0
C894 C 0.81013 0.13734 0.97814 0.0
C895 C 0.82647 0.14043 0.96895 0.0
C896 C 0.84037 0.17822 0.9635 0.0
C897 C 0.83889 0.21342 0.96762 0.0
C898 C 0.82261 0.21033 0.97685 0.0
C899 C 0.80657 0.28187 1.01218 0.0
O900 O 0.73186 0.21722 0.02503 0.0
O901 O 0.71947 0.17276 1.01198 0.0
O902 O 0.82425 0.24191 0.04394 0.0
O903 O 0.77643 0.25927 0.0393 0.0
O904 O 0.76989 0.15369 0.03533 0.0
O905 O 0.77282 0.16523 0.02109 0.0
O906 O 0.85838 0.22134 1.01069 0.0
O907 O 0.86583 0.24852 0.02614 0.0
O908 O 0.76752 0.18953 0.99306 0.0
O909 O 0.80136 0.15785 0.99885 0.0
O910 O 0.78879 0.26252 1.00423 0.0
O911 O 0.81835 0.25895 1.01664 0.0
H912 H 0.77339 0.3055 0.05621 0.0
H913 H 0.74331 0.29273 0.07226 0.0
H914 H 0.75339 0.17726 0.07425 0.0
H915 H 0.78226 0.18955 0.05803 0.0
H916 H 0.7982 0.10725 0.98202 0.0
H917 H 0.82654 0.11246 0.96598 0.0
H918 H 0.84983 0.24318 0.96367 0.0
H919 H 0.82091 0.23757 0.97975 0.0
Ho920 Ho 0.81705 0.58507 0.02885 0.0
Ho921 Ho 0.8367 0.59777 1.00766 0.0
C922 C 0.84263 0.52188 0.01744 0.0
C923 C 0.79245 0.55854 0.04623 0.0
C924 C 0.80761 0.54907 0.05535 0.0
C925 C 0.80389 0.50843 0.05698 0.0
C926 C 0.81314 0.49777 0.06595 0.0
C927 C 0.82616 0.52731 0.07359 0.0
C928 C 0.83101 0.56839 0.07189 0.0
C929 C 0.82168 0.57902 0.06291 0.0
C930 C 0.89996 0.64726 0.02453 0.0
C931 C 0.79601 0.65111 0.01775 0.0
C932 C 0.868 0.62508 0.99074 0.0
C933 C 0.85767 0.63297 0.98095 0.0
C934 C 0.88339 0.67375 0.97672 0.0
C935 C 0.87996 0.67974 0.96695 0.0
C936 C 0.85102 0.64489 0.96118 0.0
C937 C 0.82373 0.60468 0.96552 0.0
C938 C 0.82691 0.59879 0.97529 0.0
C939 C 0.75469 0.5349 1.01187 0.0
O940 O 0.82052 0.52528 0.02462 0.0
O941 O 0.86166 0.55322 1.01113 0.0
O942 O 0.80993 0.59896 0.04358 0.0
O943 O 0.7851 0.5326 0.03902 0.0
O944 O 0.87787 0.64837 0.03169 0.0
O945 O 0.87823 0.61137 0.02034 0.0
O946 O 0.82235 0.65137 1.01106 0.0
O947 O 0.78321 0.62253 0.02482 0.0
O948 O 0.85026 0.58483 0.9935 0.0
O949 O 0.87098 0.65114 0.99763 0.0
O950 O 0.77491 0.53568 1.00416 0.0
O951 O 0.77642 0.57017 1.0162 0.0
H952 H 0.79279 0.48431 0.05138 0.0
H953 H 0.80961 0.46606 0.06692 0.0
H954 H 0.84044 0.59184 0.07759 0.0
H955 H 0.82426 0.61036 0.06198 0.0
H956 H 0.9077 0.70053 0.98087 0.0
H957 H 0.90167 0.71105 0.96383 0.0
H958 H 0.80068 0.57733 0.96131 0.0
H959 H 0.80653 0.56689 0.97829 0.0
Ho960 Ho 0.47245 0.93548 0.84081 0.0
Ho961 Ho 0.47087 0.91972 0.86231 0.0
C962 C 0.56093 0.98927 0.85244 0.0
C963 C 0.48139 0.96663 0.8238 0.0
C964 C 0.47601 0.95711 0.81347 0.0
C965 C 0.51237 0.9649 0.80806 0.0
C966 C 0.51052 0.96341 0.79814 0.0
C967 C 0.47234 0.95435 0.79335 0.0
C968 C 0.43531 0.94465 0.79874 0.0
C969 C 0.43719 0.94628 0.80872 0.0
C970 C 0.47963 0.86569 0.84539 0.0
C971 C 0.38646 0.85908 0.85009 0.0
C972 C 0.47986 0.90699 0.88013 0.0
C973 C 0.4564 0.89801 0.88927 0.0
C974 C 0.47059 0.88379 0.89704 0.0
C975 C 0.4498 0.87605 0.90588 0.0
C976 C 0.41423 0.88238 0.90714 0.0
C977 C 0.39988 0.8964 0.89928 0.0
C978 C 0.42077 0.90415 0.89043 0.0
C979 C 0.4348 0.9677 0.85654 0.0
O980 O 0.53749 0.9895 0.84523 0.0
O981 O 0.54306 0.96147 0.85954 0.0
O982 O 0.51077 0.96132 0.82817 0.0
O983 O 0.44719 0.95614 0.8291 0.0
O984 O 0.46248 0.86947 0.8376 0.0
O985 O 0.49613 0.90091 0.84997 0.0
O986 O 0.41023 0.8602 0.85745 0.0
O987 O 0.40153 0.89033 0.84361 0.0
O988 O 0.49358 0.94535 0.87641 0.0
O989 O 0.46388 0.87597 0.87376 0.0
O990 O 0.42075 0.94078 0.86358 0.0
O991 O 0.46865 0.96977 0.85334 0.0
H992 H 0.54296 0.97391 0.81147 0.0
H993 H 0.53942 0.97046 0.79419 0.0
H994 H 0.40549 0.93784 0.79525 0.0
H995 H 0.40879 0.94069 0.81267 0.0
H996 H 0.49796 0.87874 0.89629 0.0
H997 H 0.46134 0.86458 0.91169 0.0
H998 H 0.37289 0.90202 0.9 0.0
H999 H 0.40933 0.91521 0.88452 0.0
Ho1000 Ho 0.11722 0.54479 0.84133 0.0
Ho1001 Ho 0.12118 0.55257 0.86304 0.0
C1002 C 0.06376 0.58532 0.85208 0.0
C1003 C 0.09284 0.51595 0.82414 0.0
C1004 C 0.07351 0.51715 0.81487 0.0
C1005 C 0.04781 0.47793 0.81006 0.0
C1006 C 0.03471 0.47754 0.80065 0.0
C1007 C 0.0469 0.51647 0.79579 0.0
C1008 C 0.07108 0.55581 0.80076 0.0
C1009 C 0.0845 0.55618 0.8102 0.0
C1010 C 0.17982 0.62265 0.84747 0.0
C1011 C 0.1907 0.5346 0.85226 0.0
C1012 C 0.13937 0.56799 0.88108 0.0
C1013 C 0.14877 0.5511 0.88992 0.0
C1014 C 0.19181 0.56766 0.89294 0.0
C1015 C 0.20108 0.55608 0.90179 0.0
C1016 C 0.16757 0.52776 0.90793 0.0
C1017 C 0.12447 0.51072 0.90486 0.0
C1018 C 0.11519 0.52231 0.89599 0.0
C1019 C 0.0648 0.47205 0.85586 0.0
O1020 O 0.06693 0.56555 0.84433 0.0
O1021 O 0.0865 0.58895 0.85982 0.0
O1022 O 0.13109 0.54843 0.8263 0.0
O1023 O 0.06768 0.49921 0.83158 0.0
O1024 O 0.1808 0.60532 0.83941 0.0
O1025 O 0.14299 0.60043 0.85135 0.0
O1026 O 0.18148 0.54981 0.85993 0.0
O1027 O 0.1658 0.52337 0.84456 0.0
O1028 O 0.09991 0.54754 0.87769 0.0
O1029 O 0.16855 0.58249 0.87433 0.0
O1030 O 0.05778 0.48812 0.86345 0.0
O1031 O 0.10209 0.49845 0.85291 0.0
H1032 H 0.03915 0.44741 0.81347 0.0
H1033 H 1.01554 0.44664 0.79711 0.0
H1034 H 0.08118 0.5864 0.79724 0.0
H1035 H 0.1046 0.58696 0.81371 0.0
H1036 H 0.2185 0.59062 0.88857 0.0
H1037 H 0.23465 0.57051 0.90394 0.0
H1038 H 0.0978 0.48847 0.90933 0.0
H1039 H 0.08162 0.50936 0.89398 0.0
Ho1040 Ho 0.49713 0.5668 0.83802 0.0
Ho1041 Ho 0.48315 0.57146 0.86029 0.0
C1042 C 0.45387 0.47874 0.85057 0.0
C1043 C 0.53565 0.57247 0.82204 0.0
C1044 C 0.52986 0.55137 0.81267 0.0
C1045 C 0.56586 0.553 0.80825 0.0
C1046 C 0.56331 0.53898 0.79884 0.0
C1047 C 0.52461 0.52306 0.79361 0.0
C1048 C 0.48805 0.52005 0.79818 0.0
C1049 C 0.49062 0.53402 0.80762 0.0
C1050 C 0.41214 0.53779 0.8415 0.0
C1051 C 0.49526 0.64986 0.84654 0.0
C1052 C 0.46151 0.57966 0.87753 0.0
C1053 C 0.47821 0.59488 0.88727 0.0
C1054 C 0.44984 0.57663 0.895 0.0
C1055 C 0.46315 0.59225 0.90426 0.0
C1056 C 0.50532 0.62671 0.90605 0.0
C1057 C 0.53406 0.64443 0.89828 0.0
C1058 C 0.52062 0.62874 0.88898 0.0
C1059 C 0.56497 0.59294 0.85437 0.0
O1060 O 0.4792 0.49957 0.84319 0.0
O1061 O 0.4461 0.49957 0.85743 0.0
O1062 O 0.5123 0.59073 0.82367 0.0
O1063 O 0.54 0.55315 0.82957 0.0
O1064 O 0.42799 0.53895 0.83309 0.0
O1065 O 0.44255 0.55077 0.8475 0.0
O1066 O 0.48061 0.62941 0.85475 0.0
O1067 O 0.50867 0.63449 0.83954 0.0
O1068 O 0.46082 0.54474 0.87443 0.0
O1069 O 0.4725 0.60905 0.87091 0.0
O1070 O 0.54879 0.57585 0.86257 0.0
O1071 O 0.53822 0.60051 0.85031 0.0
H1072 H 0.59655 0.56666 0.81197 0.0
H1073 H 0.59228 0.54235 0.79555 0.0
H1074 H 0.45759 0.50743 0.79441 0.0
H1075 H 0.46232 0.53241 0.81086 0.0
H1076 H 0.41694 0.55053 0.89386 0.0
H1077 H 0.4403 0.57718 0.91004 0.0
H1078 H 0.56665 0.67119 0.89933 0.0
H1079 H 0.54309 0.64351 0.88313 0.0
Ho1080 Ho 0.60324 0.79084 0.02678 0.0
Ho1081 Ho 0.5933 0.78736 1.0052 0.0
C1082 C 0.65445 0.88117 1.01496 0.0
C1083 C 0.62926 0.79192 0.04405 0.0
C1084 C 0.64184 0.81461 0.05334 0.0
C1085 C 0.68215 0.85221 0.05482 0.0
C1086 C 0.69529 0.86885 0.06405 0.0
C1087 C 0.66853 0.84807 0.07197 0.0
C1088 C 0.62769 0.81133 0.07036 0.0
C1089 C 0.61461 0.79488 0.06119 0.0
C1090 C 0.53941 0.80485 0.02085 0.0
C1091 C 0.5285 0.70383 0.01783 0.0
C1092 C 0.57044 0.77995 0.98737 0.0
C1093 C 0.56171 0.75427 0.97843 0.0
C1094 C 0.52109 0.71727 0.97675 0.0
C1095 C 0.51064 0.69753 0.96775 0.0
C1096 C 0.54034 0.71435 0.96015 0.0
C1097 C 0.58155 0.75036 0.96194 0.0
C1098 C 0.592 0.77012 0.97094 0.0
C1099 C 0.65196 0.76563 1.01216 0.0
O1100 O 0.65353 0.85989 0.02279 0.0
O1101 O 0.62945 0.86019 1.00756 0.0
O1102 O 0.58861 0.77482 0.04159 0.0
O1103 O 0.65584 0.8074 0.03678 0.0
O1104 O 0.54068 0.78966 0.02914 0.0
O1105 O 0.575 0.81764 1.0166 0.0
O1106 O 0.53287 0.7255 1.00987 0.0
O1107 O 0.55864 0.71993 0.0245 0.0
O1108 O 0.61049 0.80272 0.99031 0.0
O1109 O 0.54299 0.76325 0.99442 0.0
O1110 O 0.65621 0.78544 1.00419 0.0
O1111 O 0.61576 0.75602 1.01555 0.0
H1112 H 0.70401 0.86802 0.04892 0.0
H1113 H 0.72677 0.89748 0.065 0.0
H1114 H 0.60648 0.79381 0.07624 0.0
H1115 H 0.58368 0.76543 0.0603 0.0
H1116 H 0.49673 0.70431 0.98229 0.0
H1117 H 0.47882 0.66948 0.96671 0.0
H1118 H 0.60515 0.7646 0.95628 0.0
H1119 H 0.6233 0.79899 0.97193 0.0
Ho1120 Ho 0.24709 0.82302 0.02723 0.0
Ho1121 Ho 0.25041 0.8164 1.00555 0.0
C1122 C 0.15687 0.78207 1.01522 0.0
C1123 C 0.24536 0.84884 0.04439 0.0
C1124 C 0.22242 0.8396 0.05362 0.0
C1125 C 0.22246 0.8738 0.05856 0.0
C1126 C 0.20994 0.86914 0.06813 0.0
C1127 C 0.19726 0.83012 0.07301 0.0
C1128 C 0.19465 0.79498 0.06786 0.0
C1129 C 0.20711 0.79966 0.05827 0.0
C1130 C 0.23477 0.74588 0.02127 0.0
C1131 C 0.33485 0.8376 0.01799 0.0
C1132 C 0.25846 0.80147 0.98775 0.0
C1133 C 0.28548 0.82017 0.97907 0.0
C1134 C 0.32298 0.81739 0.97755 0.0
C1135 C 0.3451 0.83006 0.96885 0.0
C1136 C 0.33022 0.84564 0.96139 0.0
C1137 C 0.29321 0.84922 0.96299 0.0
C1138 C 0.27109 0.83652 0.97169 0.0
C1139 C 0.27018 0.89597 1.01258 0.0
O1140 O 0.17764 0.80271 0.02309 0.0
O1141 O 0.17818 0.77816 1.00791 0.0
O1142 O 0.26213 0.82487 0.04209 0.0
O1143 O 0.23022 0.85972 0.03704 0.0
O1144 O 0.24937 0.76227 0.02961 0.0
O1145 O 0.22131 0.76808 1.01703 0.0
O1146 O 0.31308 0.82029 1.01004 0.0
O1147 O 0.31825 0.84994 0.0249 0.0
O1148 O 0.23528 0.81828 0.99066 0.0
O1149 O 0.27461 0.79026 0.99482 0.0
O1150 O 0.25052 0.88029 1.00459 0.0
O1151 O 0.28074 0.8701 1.01593 0.0
H1152 H 0.23459 0.90506 0.05517 0.0
H1153 H 0.21277 0.89702 0.07186 0.0
H1154 H 0.18435 0.76425 0.07134 0.0
H1155 H 0.20673 0.77267 0.05465 0.0
H1156 H 0.33466 0.80427 0.983 0.0
H1157 H 0.3731 0.82626 0.96786 0.0
H1158 H 0.28108 0.86159 0.95749 0.0
H1159 H 0.242 0.83856 0.97256 0.0
Ho1160 Ho 0.21197 0.43519 0.02947 0.0
Ho1161 Ho 0.22271 0.442 1.00779 0.0
C1162 C 0.24735 0.3784 0.01888 0.0
C1163 C 0.18426 0.41076 0.0467 0.0
C1164 C 0.18892 0.39221 0.05577 0.0
C1165 C 0.15358 0.35371 0.05919 0.0
C1166 C 0.15373 0.33926 0.06844 0.0
C1167 C 0.1892 0.36309 0.07455 0.0
C1168 C 0.22537 0.40076 0.07099 0.0
C1169 C 0.22523 0.4152 0.06171 0.0
C1170 C 0.29162 0.4968 0.02361 0.0
C1171 C 0.20139 0.50816 0.01922 0.0
C1172 C 0.24289 0.46325 0.99003 0.0
C1173 C 0.22742 0.47157 0.98092 0.0
C1174 C 0.25812 0.4992 0.97426 0.0
C1175 C 0.24522 0.50565 0.96529 0.0
C1176 C 0.20114 0.48457 0.96274 0.0
C1177 C 0.17026 0.45746 0.96953 0.0
C1178 C 0.18327 0.45094 0.97853 0.0
C1179 C 0.14105 0.38521 1.01427 0.0
O1180 O 0.22531 0.38096 0.02619 0.0
O1181 O 0.25636 0.40419 1.01139 0.0
O1182 O 0.21442 0.45003 0.04443 0.0
O1183 O 0.16825 0.38521 0.03929 0.0
O1184 O 0.274 0.4981 0.03158 0.0
O1185 O 0.2686 0.46034 0.0197 0.0
O1186 O 0.22011 0.50258 1.01163 0.0
O1187 O 0.1867 0.47961 0.02622 0.0
O1188 O 0.22341 0.42341 0.99316 0.0
O1189 O 0.25279 0.49152 0.99687 0.0
O1190 O 0.15758 0.37972 1.00656 0.0
O1191 O 0.1673 0.42175 0.01759 0.0
H1192 H 0.12488 0.33572 0.05484 0.0
H1193 H 0.12507 0.31045 0.07095 0.0
H1194 H 0.25349 0.4196 0.07544 0.0
H1195 H 0.25294 0.44516 0.05933 0.0
H1196 H 0.29235 0.51547 0.97595 0.0
H1197 H 0.26989 0.52735 0.96035 0.0
H1198 H 0.13606 0.44047 0.96781 0.0
H1199 H 0.15895 0.42933 0.98354 0.0
Ho1200 Ho 0.23985 0.44842 0.50624 0.0
Ho1201 Ho 0.24652 0.43605 0.52761 0.0
C1202 C 0.33027 0.50727 0.51743 0.0
C1203 C 0.24154 0.4755 0.48893 0.0
C1204 C 0.26274 0.48066 0.47958 0.0
C1205 C 0.24821 0.4943 0.47177 0.0
C1206 C 0.26713 0.49928 0.46278 0.0
C1207 C 0.30125 0.4908 0.46136 0.0
C1208 C 0.31579 0.47709 0.46926 0.0
C1209 C 0.29672 0.47207 0.47828 0.0
C1210 C 0.25712 0.38416 0.51075 0.0
C1211 C 0.15173 0.38716 0.51769 0.0
C1212 C 0.24998 0.40835 0.54451 0.0
C1213 C 0.23108 0.39775 0.55426 0.0
C1214 C 0.21784 0.35662 0.55811 0.0
C1215 C 0.20802 0.34836 0.56783 0.0
C1216 C 0.21164 0.38124 0.57396 0.0
C1217 C 0.2228 0.42176 0.57 0.0
C1218 C 0.23236 0.42992 0.56028 0.0
C1219 C 0.23228 0.502 0.52318 0.0
O1220 O 0.30497 0.50605 0.5104 0.0
O1221 O 0.31627 0.47564 0.52371 0.0
O1222 O 0.21519 0.43598 0.49178 0.0
O1223 O 0.26541 0.50047 0.49586 0.0
O1224 O 0.23511 0.38397 0.50344 0.0
O1225 O 0.27216 0.42024 0.51487 0.0
O1226 O 0.17671 0.38628 0.52456 0.0
O1227 O 0.16868 0.41383 0.51032 0.0
O1228 O 0.27046 0.4491 0.542 0.0
O1229 O 0.22883 0.38231 0.53743 0.0
O1230 O 0.25133 0.50042 0.5309 0.0
O1231 O 0.21679 0.46624 0.51895 0.0
H1232 H 0.2219 0.50093 0.4726 0.0
H1233 H 0.25441 0.50911 0.45689 0.0
H1234 H 0.34224 0.47066 0.46851 0.0
H1235 H 0.30848 0.46153 0.48422 0.0
H1236 H 0.21712 0.33137 0.55369 0.0
H1237 H 0.19988 0.3169 0.57063 0.0
H1238 H 0.22529 0.44763 0.57448 0.0
H1239 H 0.24252 0.46205 0.55759 0.0
Ho1240 Ho 0.58807 0.81455 0.50674 0.0
Ho1241 Ho 0.59689 0.82408 0.52848 0.0
C1242 C 0.52255 0.8343 0.51889 0.0
C1243 C 0.56547 0.79638 0.48894 0.0
C1244 C 0.55479 0.81174 0.48001 0.0
C1245 C 0.51238 0.80308 0.47822 0.0
C1246 C 0.50081 0.81138 0.46925 0.0
C1247 C 0.53119 0.82835 0.46178 0.0
C1248 C 0.574 0.83849 0.46368 0.0
C1249 C 0.58557 0.8301 0.47265 0.0
C1250 C 0.64494 0.89566 0.51335 0.0
C1251 C 0.65424 0.79145 0.51719 0.0
C1252 C 0.62165 0.85097 0.54573 0.0
C1253 C 0.63985 0.8475 0.55498 0.0
C1254 C 0.68094 0.88091 0.55779 0.0
C1255 C 0.69468 0.88428 0.56724 0.0
C1256 C 0.66754 0.85447 0.57416 0.0
C1257 C 0.62766 0.8193 0.57122 0.0
C1258 C 0.61387 0.81593 0.56174 0.0
C1259 C 0.53582 0.74434 0.52248 0.0
O1260 O 0.5275 0.81624 0.5111 0.0
O1261 O 0.55199 0.84913 0.5257 0.0
O1262 O 0.60567 0.81654 0.49187 0.0
O1263 O 0.53795 0.78397 0.49601 0.0
O1264 O 0.64997 0.87969 0.50551 0.0
O1265 O 0.60875 0.86924 0.5168 0.0
O1266 O 0.6519 0.81289 0.52465 0.0
O1267 O 0.62744 0.78197 0.50985 0.0
O1268 O 0.58238 0.82081 0.54346 0.0
O1269 O 0.64729 0.86689 0.53834 0.0
O1270 O 0.53494 0.76106 0.53061 0.0
O1271 O 0.5718 0.76822 0.51848 0.0
H1272 H 0.48762 0.78855 0.48365 0.0
H1273 H 0.46769 0.80372 0.46813 0.0
H1274 H 0.59822 0.85111 0.45811 0.0
H1275 H 0.61833 0.83653 0.47371 0.0
H1276 H 0.70155 0.90597 0.55279 0.0
H1277 H 0.7259 0.91139 0.56922 0.0
H1278 H 0.60582 0.79591 0.57635 0.0
H1279 H 0.58181 0.78998 0.55987 0.0
Ho1280 Ho 0.22045 0.79088 0.50633 0.0
Ho1281 Ho 0.20943 0.79516 0.5279 0.0
C1282 C 0.20162 0.70872 0.51954 0.0
C1283 C 0.24031 0.78269 0.48895 0.0
C1284 C 0.22354 0.75571 0.48026 0.0
C1285 C 0.24984 0.74265 0.47558 0.0
C1286 C 0.23719 0.72089 0.46685 0.0
C1287 C 0.19789 0.71177 0.46254 0.0
C1288 C 0.17096 0.72386 0.46738 0.0
C1289 C 0.18366 0.74563 0.47614 0.0
C1290 C 0.13887 0.76858 0.51226 0.0
C1291 C 0.24945 0.88452 0.51564 0.0
C1292 C 0.17988 0.79692 0.54464 0.0
C1293 C 0.18518 0.82151 0.55352 0.0
C1294 C 0.14958 0.82371 0.55706 0.0
C1295 C 0.1501 0.83851 0.56631 0.0
C1296 C 0.18624 0.85126 0.57227 0.0
C1297 C 0.22281 0.85123 0.56853 0.0
C1298 C 0.22232 0.83652 0.55925 0.0
C1299 C 0.28856 0.81035 0.52272 0.0
O1300 O 0.21863 0.72988 0.51151 0.0
O1301 O 0.18737 0.72464 0.52621 0.0
O1302 O 0.22337 0.80639 0.49137 0.0
O1303 O 0.24878 0.76572 0.4963 0.0
O1304 O 0.1557 0.78759 0.50427 0.0
O1305 O 0.16481 0.75956 0.51624 0.0
O1306 O 0.22807 0.86373 0.52343 0.0
O1307 O 0.25563 0.86347 0.50857 0.0
O1308 O 0.20789 0.78428 0.54298 0.0
O1309 O 0.16696 0.80752 0.53687 0.0
O1310 O 0.27139 0.79576 0.53101 0.0
O1311 O 0.26575 0.82208 0.51817 0.0
H1312 H 0.28077 0.7501 0.4786 0.0
H1313 H 0.2584 0.71141 0.46345 0.0
H1314 H 0.14063 0.71768 0.46426 0.0
H1315 H 0.16272 0.7554 0.47957 0.0
H1316 H 0.12036 0.81179 0.55284 0.0
H1317 H 0.12119 0.83765 0.56897 0.0
H1318 H 0.25142 0.86145 0.57287 0.0
H1319 H 0.2503 0.83515 0.55674 0.0
Ho1320 Ho 0.11942 0.56113 0.36506 0.0
Ho1321 Ho 0.10681 0.56699 0.34249 0.0
C1322 C 0.18159 0.64983 0.35366 0.0
C1323 C 0.14616 0.55618 0.38188 0.0
C1324 C 0.15468 0.57777 0.39128 0.0
C1325 C 0.19189 0.58575 0.39631 0.0
C1326 C 0.20116 0.60602 0.40522 0.0
C1327 C 0.17333 0.61877 0.40933 0.0
C1328 C 0.13578 0.61048 0.4043 0.0
C1329 C 0.12663 0.59033 0.39533 0.0
C1330 C 0.06524 0.5937 0.36113 0.0
C1331 C 0.05669 0.47172 0.35312 0.0
C1332 C 0.07622 0.57141 0.32603 0.0
C1333 C 0.05917 0.54997 0.3167 0.0
C1334 C 1.01998 0.54525 0.31335 0.0
C1335 C 1.00619 0.53165 0.304 0.0
C1336 C 0.03138 0.52257 0.29771 0.0
C1337 C 0.06996 0.52588 0.30119 0.0
C1338 C 0.08372 0.53943 0.31057 0.0
C1339 C 0.17139 0.55203 0.34747 0.0
O1340 O 0.17767 0.62392 0.3608 0.0
O1341 O 0.15288 0.63702 0.3466 0.0
O1342 O 0.10564 0.53292 0.37915 0.0
O1343 O 0.17223 0.57905 0.37496 0.0
O1344 O 0.0742 0.58609 0.36959 0.0
O1345 O 0.08569 0.58295 0.35555 0.0
O1346 O 0.0617 0.49451 0.3452 0.0
O1347 O 0.07703 0.49034 0.36121 0.0
O1348 O 0.11741 0.58674 0.32778 0.0
O1349 O 0.05189 0.55525 0.33362 0.0
O1350 O 0.16945 0.56851 0.33935 0.0
O1351 O 0.1361 0.53907 0.35187 0.0
H1352 H 0.2139 0.57621 0.39335 0.0
H1353 H 0.23001 0.61131 0.40893 0.0
H1354 H 0.11389 0.62024 0.40721 0.0
H1355 H 0.09776 0.58473 0.39158 0.0
H1356 H 1.00074 0.55376 0.31786 0.0
H1357 H 0.97662 0.53006 0.30158 0.0
H1358 H 0.0899 0.51857 0.29662 0.0
H1359 H 0.1142 0.54287 0.31291 0.0
Ho1360 Ho 0.46939 0.55719 0.36338 0.0
Ho1361 Ho 0.46916 0.5408 0.34216 0.0
C1362 C 0.3823 0.5286 0.3512 0.0
C1363 C 0.46311 0.57921 0.38075 0.0
C1364 C 0.43764 0.56358 0.38975 0.0
C1365 C 0.40116 0.56811 0.3913 0.0
C1366 C 0.38107 0.55935 0.40025 0.0
C1367 C 0.397 0.54608 0.40794 0.0
C1368 C 0.4326 0.54015 0.4063 0.0
C1369 C 0.45275 0.54898 0.39734 0.0
C1370 C 0.45159 0.47532 0.35862 0.0
C1371 C 0.56155 0.58769 0.35335 0.0
C1372 C 0.46991 0.50979 0.32549 0.0
C1373 C 0.4919 0.51944 0.31613 0.0
C1374 C 0.49284 0.48588 0.31114 0.0
C1375 C 0.50507 0.49098 0.30154 0.0
C1376 C 0.51645 0.5298 0.29671 0.0
C1377 C 0.5179 0.5643 0.3019 0.0
C1378 C 0.50577 0.55919 0.31151 0.0
C1379 C 0.48105 0.62005 0.34627 0.0
O1380 O 0.40516 0.54962 0.35878 0.0
O1381 O 0.39815 0.51351 0.34471 0.0
O1382 O 0.48729 0.56288 0.3783 0.0
O1383 O 0.44503 0.58623 0.37339 0.0
O1384 O 0.47298 0.49654 0.36607 0.0
O1385 O 0.43839 0.49755 0.35439 0.0
O1386 O 0.53929 0.563 0.34603 0.0
O1387 O 0.54143 0.59533 0.36039 0.0
O1388 O 0.44918 0.53028 0.32751 0.0
O1389 O 0.48904 0.50463 0.33292 0.0
O1390 O 0.46486 0.59968 0.33836 0.0
O1391 O 0.49592 0.60031 0.35099 0.0
H1392 H 0.3888 0.57968 0.38567 0.0
H1393 H 0.35336 0.56369 0.40117 0.0
H1394 H 0.44615 0.53047 0.41204 0.0
H1395 H 0.48118 0.5458 0.39647 0.0
H1396 H 0.48185 0.45479 0.31452 0.0
H1397 H 0.50316 0.46359 0.29778 0.0
H1398 H 0.52715 0.59486 0.29845 0.0
H1399 H 0.50535 0.58566 0.31519 0.0
Ho1400 Ho 0.4707 0.90929 0.36194 0.0
Ho1401 Ho 0.4885 0.9314 0.34007 0.0
C1402 C 0.4907 0.8485 0.34822 0.0
C1403 C 0.44911 0.87622 0.37894 0.0
C1404 C 0.46516 0.88066 0.38886 0.0
C1405 C 0.43524 0.86635 0.39637 0.0
C1406 C 0.44841 0.86572 0.40574 0.0
C1407 C 0.49198 0.87933 0.40786 0.0
C1408 C 0.52217 0.89474 0.40031 0.0
C1409 C 0.50891 0.89535 0.39092 0.0
C1410 C 0.55175 0.97617 0.35734 0.0
C1411 C 0.44018 0.97144 0.35237 0.0
C1412 C 0.52767 0.96639 0.32421 0.0
C1413 C 0.52028 0.97703 0.31446 0.0
C1414 C 0.55546 1.00909 0.30932 0.0
C1415 C 0.55145 0.01523 0.2996 0.0
C1416 C 0.51209 0.9893 0.29479 0.0
C1417 C 0.47628 0.95845 0.30009 0.0
C1418 C 0.48033 0.95236 0.30982 0.0
C1419 C 0.40349 0.87007 0.34263 0.0
O1420 O 0.47178 0.85105 0.35609 0.0
O1421 O 0.50553 0.87908 0.34162 0.0
O1422 O 0.44078 0.90564 0.37569 0.0
O1423 O 0.46713 0.86378 0.37253 0.0
O1424 O 0.53102 0.97361 0.3651 0.0
O1425 O 0.52938 0.94166 0.35274 0.0
O1426 O 0.46795 0.97854 0.34535 0.0
O1427 O 0.43123 0.94131 0.35893 0.0
O1428 O 0.51017 0.92514 0.32618 0.0
O1429 O 0.52568 0.98902 0.33136 0.0
O1430 O 0.4207 0.8866 0.33443 0.0
O1431 O 0.43259 0.88841 0.34886 0.0
H1432 H 0.4013 0.85472 0.39496 0.0
H1433 H 0.4243 0.85439 0.41133 0.0
H1434 H 0.55591 0.90515 0.40161 0.0
H1435 H 0.53266 0.90634 0.38525 0.0
H1436 H 0.5867 0.02821 0.31273 0.0
H1437 H 0.57987 0.03893 0.29578 0.0
H1438 H 0.44528 0.93834 0.29667 0.0
H1439 H 0.4527 0.92735 0.31363 0.0
H1440 H 0.14651 0.13913 0.16891 0.0
H1441 H 0.1711 0.18114 0.19811 0.0
H1442 H 0.18278 0.12077 0.20209 0.0
H1443 H 0.1828 0.05335 0.1972 0.0
H1444 H 0.16674 0.01847 0.16745 0.0
H1445 H 0.15542 0.07864 0.16373 0.0
C1446 C 0.15471 0.13523 0.17614 0.0
C1447 C 0.15694 0.1639 0.18326 0.0
C1448 C 0.16302 0.10161 0.17826 0.0
C1449 C 0.1685 0.15905 0.19255 0.0
C1450 C 0.17524 0.12454 0.19481 0.0
C1451 C 0.17734 0.05939 0.18991 0.0
C1452 C 0.1756 0.03143 0.18261 0.0
C1453 C 0.17205 0.09517 0.18773 0.0
C1454 C 0.16869 0.03972 0.17318 0.0
C1455 C 0.16192 0.074 0.17104 0.0
H1456 H 0.98652 0.15392 0.17417 0.0
H1457 H 1.01105 0.13213 0.20314 0.0
H1458 H 0.94554 0.0608 0.20299 0.0
H1459 H 0.88517 1.00103 0.19398 0.0
H1460 H 0.86486 0.02246 0.16471 0.0
H1461 H 0.92403 0.09724 0.16567 0.0
C1462 C 0.97724 0.13398 0.18053 0.0
C1463 C 1.00397 0.14847 0.18863 0.0
C1464 C 0.94011 0.09253 0.18032 0.0
C1465 C 0.9913 0.12187 0.19677 0.0
C1466 C 0.9538 0.08091 0.19669 0.0
C1467 C 0.89322 0.02253 0.18792 0.0
C1468 C 0.87072 1.00642 0.1793 0.0
C1469 C 0.92849 0.06537 0.18842 0.0
C1470 C 0.8818 0.03422 0.17142 0.0
C1471 C 0.91573 0.07696 0.17195 0.0
H1472 H 0.02813 0.89194 0.16622 0.0
H1473 H 0.04441 0.87153 0.19578 0.0
H1474 H 0.97314 0.86268 0.19946 0.0
H1475 H 0.90704 0.86386 0.1942 0.0
H1476 H 0.88938 0.87719 0.16425 0.0
H1477 H 0.95984 0.88515 0.16077 0.0
C1478 C 1.01595 0.88529 0.17346 0.0
C1479 C 0.04176 0.8832 0.18076 0.0
C1480 C 0.97454 0.87886 0.17544 0.0
C1481 C 0.0253 0.87379 0.19007 0.0
C1482 C 0.98455 0.86871 0.19216 0.0
C1483 C 0.91854 0.86808 0.18692 0.0
C1484 C 0.89299 0.87006 0.1795 0.0
C1485 C 0.95901 0.87168 0.18491 0.0
C1486 C 0.90816 0.87521 0.17009 0.0
C1487 C 0.94863 0.88004 0.16809 0.0
H1488 H 0.14754 0.14704 0.36685 0.0
H1489 H 0.17745 0.14936 0.33709 0.0
H1490 H 0.11402 0.15561 0.33286 0.0
H1491 H 0.04766 0.15722 0.33778 0.0
H1492 H 0.02332 0.16173 0.36774 0.0
H1493 H 0.08691 0.15657 0.37172 0.0
C1494 C 0.14032 0.14919 0.35944 0.0
C1495 C 0.16671 0.14703 0.35228 0.0
C1496 C 0.1047 0.15411 0.3571 0.0
C1497 C 0.15739 0.15058 0.34272 0.0
C1498 C 0.1211 0.15414 0.34031 0.0
C1499 C 0.05662 0.15755 0.34516 0.0
C1500 C 0.03052 0.15975 0.35244 0.0
C1501 C 0.09414 0.15546 0.34745 0.0
C1502 C 0.04281 0.1604 0.36198 0.0
C1503 C 0.07913 0.15718 0.36429 0.0
H1504 H 0.87158 0.89275 0.33705 0.0
H1505 H 0.87559 0.86748 0.36696 0.0
H1506 H 0.88032 0.936 0.37101 0.0
H1507 H 0.88622 1.0047 0.36618 0.0
H1508 H 0.87506 0.02853 0.33656 0.0
H1509 H 0.87016 0.95947 0.33227 0.0
C1510 C 0.8731 0.90217 0.34444 0.0
C1511 C 0.87328 0.87486 0.35168 0.0
C1512 C 0.87479 0.9416 0.34678 0.0
C1513 C 0.87501 0.8875 0.36123 0.0
C1514 C 0.87797 0.92691 0.36357 0.0
C1515 C 0.88246 0.99467 0.35878 0.0
C1516 C 0.88168 0.02201 0.35168 0.0
C1517 C 0.8783 0.95441 0.35642 0.0
C1518 C 0.87613 1.00824 0.34215 0.0
C1519 C 0.87333 0.96872 0.3397 0.0
H1520 H 0.02743 0.87785 0.36622 0.0
H1521 H 1.00176 0.85245 0.33625 0.0
H1522 H 0.07216 0.91614 0.33248 0.0
H1523 H 0.13963 0.98172 0.33786 0.0
H1524 H 0.16659 1.00202 0.36797 0.0
H1525 H 0.0976 0.93749 0.37153 0.0
C1526 C 0.03742 0.8861 0.35886 0.0
C1527 C 1.00926 0.86103 0.35151 0.0
C1528 C 0.0783 0.92186 0.35678 0.0
C1529 C 0.02282 0.87155 0.34202 0.0
C1530 C 0.06304 0.90796 0.33987 0.0
C1531 C 0.13057 0.97164 0.34519 0.0
C1532 C 0.15825 0.99688 0.35264 0.0
C1533 C 0.09087 0.93378 0.34721 0.0
C1534 C 0.14617 0.98318 0.36209 0.0
C1535 C 0.1065 0.94636 0.36415 0.0
H1536 H 0.90507 0.88583 0.86764 0.0
H1537 H 0.87884 0.84495 0.83837 0.0
H1538 H 0.87167 0.90829 0.83451 0.0
H1539 H 0.87481 0.97706 0.8396 0.0
H1540 H 0.89535 1.01224 0.86934 0.0
H1541 H 0.90264 0.94961 0.87287 0.0
C1542 C 0.89754 0.89063 0.86042 0.0
C1543 C 0.89293 0.86111 0.85328 0.0
C1544 C 0.89248 0.92629 0.85835 0.0
C1545 C 0.8827 0.86742 0.84398 0.0
C1546 C 0.87869 0.90367 0.84178 0.0
C1547 C 0.88068 0.97075 0.84684 0.0
C1548 C 0.8845 0.99936 0.85419 0.0
C1549 C 0.88386 0.93364 0.84891 0.0
C1550 C 0.89184 0.99062 0.86355 0.0
C1551 C 0.89622 0.95485 0.86559 0.0
H1552 H 0.14337 0.01914 0.86645 0.0
H1553 H 0.18782 0.03887 0.83742 0.0
H1554 H 0.1283 0.96688 0.8331 0.0
H1555 H 0.06218 0.89772 0.83766 0.0
H1556 H 0.02519 0.87545 0.86724 0.0
H1557 H 0.08307 0.94815 0.87128 0.0
C1558 C 0.13998 1.00769 0.85917 0.0
C1559 C 0.16919 0.03495 0.85219 0.0
C1560 C 0.10703 0.96536 0.85687 0.0
C1561 C 0.16504 0.01911 0.84286 0.0
C1562 C 0.13115 0.97772 0.84041 0.0
C1563 C 0.06721 0.90875 0.84499 0.0
C1564 C 0.03941 0.88109 0.85214 0.0
C1565 C 0.10171 0.9505 0.84735 0.0
C1566 C 0.0464 0.8958 0.86162 0.0
C1567 C 0.07935 0.93757 0.86394 0.0
H1568 H 0.03683 0.15671 0.86699 0.0
H1569 H 1.00101 0.15607 0.83772 0.0
H1570 H 0.07075 0.16509 0.83249 0.0
H1571 H 0.14093 0.16893 0.83645 0.0
H1572 H 0.17784 0.17782 0.86599 0.0
H1573 H 0.10924 0.17046 0.8709 0.0
C1574 C 0.04444 0.15891 0.85946 0.0
C1575 C 1.01348 0.15455 0.85273 0.0
C1576 C 0.08499 0.1657 0.85657 0.0
C1577 C 0.02406 0.15846 0.84302 0.0
C1578 C 0.06398 0.16371 0.84004 0.0
C1579 C 0.13404 0.16985 0.84393 0.0
C1580 C 0.16449 0.17383 0.85083 0.0
C1581 C 0.09453 0.16664 0.84676 0.0
C1582 C 0.15526 0.17521 0.86052 0.0
C1583 C 0.11583 0.1707 0.86336 0.0
H1584 H 0.87951 0.89219 0.69452 0.0
H1585 H 0.86454 0.8694 0.66425 0.0
H1586 H 0.9246 0.85539 0.66405 0.0
H1587 H 0.98505 0.85496 0.67209 0.0
H1588 H 1.00468 0.88246 0.70216 0.0
H1589 H 0.93967 0.88903 0.70283 0.0
C1590 C 0.8891 0.88352 0.68794 0.0
C1591 C 0.86748 0.88181 0.67942 0.0
C1592 C 0.92492 0.87667 0.6878 0.0
C1593 C 0.88066 0.87109 0.67091 0.0
C1594 C 0.91511 0.86309 0.67077 0.0
C1595 C 0.97486 0.86177 0.67884 0.0
C1596 C 0.99991 0.86811 0.68706 0.0
C1597 C 0.93805 0.86659 0.67912 0.0
C1598 C 0.9862 0.87742 0.6957 0.0
C1599 C 0.94895 0.88127 0.69609 0.0
H1600 H 0.1944 0.15 0.67384 0.0
H1601 H 0.15502 0.13635 0.70327 0.0
H1602 H 0.14817 0.06487 0.70386 0.0
H1603 H 0.14446 1.00206 0.69543 0.0
H1604 H 0.18003 0.01486 0.66581 0.0
H1605 H 0.19792 0.09051 0.66592 0.0
C1606 C 0.18517 0.13182 0.68044 0.0
C1607 C 0.1749 0.1486 0.68846 0.0
C1608 C 0.18038 0.09016 0.68069 0.0
C1609 C 0.16284 0.12429 0.69694 0.0
C1610 C 0.15881 0.08322 0.6973 0.0
C1611 C 0.15736 0.02194 0.68911 0.0
C1612 C 0.16127 1.00318 0.68065 0.0
C1613 C 0.16625 0.06522 0.68914 0.0
C1614 C 0.17705 0.02883 0.67242 0.0
C1615 C 0.18702 0.07201 0.67246 0.0
H1616 H 0.89826 0.05177 0.69762 0.0
H1617 H 0.87337 0.01995 0.66781 0.0
H1618 H 0.94447 0.08085 0.66374 0.0
H1619 H 1.01602 0.13975 0.66873 0.0
H1620 H 0.03863 0.17794 0.69819 0.0
H1621 H 0.96641 0.11833 0.70236 0.0
C1622 C 0.90821 0.05876 0.69023 0.0
C1623 C 0.88062 0.03131 0.68302 0.0
C1624 C 0.94896 0.09466 0.68791 0.0
C1625 C 0.89379 0.04079 0.67348 0.0
C1626 C 0.93463 0.07543 0.67115 0.0
C1627 C 1.00497 0.13525 0.67606 0.0
C1628 C 0.03307 0.16247 0.6832 0.0
C1629 C 0.96282 0.10203 0.67831 0.0
C1630 C 1.01797 0.15692 0.69261 0.0
C1631 C 0.97659 0.12286 0.69498 0.0
H1632 H 0.83511 0.38967 0.5286 0.0
H1633 H 0.82444 0.35412 0.49891 0.0
H1634 H 0.81684 0.41567 0.49455 0.0
H1635 H 0.80987 0.47761 0.49902 0.0
H1636 H 0.82688 0.51959 0.52823 0.0
H1637 H 0.83555 0.458 0.53294 0.0
C1638 C 0.83147 0.39576 0.52119 0.0
C1639 C 0.83032 0.36723 0.51411 0.0
C1640 C 0.82804 0.43226 0.51864 0.0
C1641 C 0.82586 0.37567 0.50452 0.0
C1642 C 0.82127 0.41081 0.50199 0.0
C1643 C 0.81576 0.47348 0.50642 0.0
C1644 C 0.81687 0.50248 0.51331 0.0
C1645 C 0.82187 0.439 0.50898 0.0
C1646 C 0.82531 0.49725 0.52283 0.0
C1647 C 0.83027 0.46204 0.52551 0.0
H1648 H 0.54624 0.34831 0.50053 0.0
H1649 H 0.52365 0.32406 0.53059 0.0
H1650 H 0.5866 0.39549 0.53409 0.0
H1651 H 0.65017 0.4643 0.52841 0.0
H1652 H 0.66687 0.48894 0.49817 0.0
H1653 H 0.60415 0.41842 0.49495 0.0
C1654 C 0.55499 0.35876 0.50785 0.0
C1655 C 0.53085 0.33087 0.51529 0.0
C1656 C 0.59023 0.40013 0.50977 0.0
C1657 C 0.54202 0.345 0.52474 0.0
C1658 C 0.57801 0.3858 0.52674 0.0
C1659 C 0.63973 0.45429 0.52113 0.0
C1660 C 0.66335 0.48198 0.51355 0.0
C1661 C 0.60269 0.41359 0.51929 0.0
C1662 C 0.64924 0.46861 0.50416 0.0
C1663 C 0.61343 0.42806 0.50229 0.0
H1664 H 0.56212 0.1997 0.53027 0.0
H1665 H 0.53166 0.18707 0.50028 0.0
H1666 H 0.60282 0.19716 0.49652 0.0
H1667 H 0.67588 0.2154 0.50162 0.0
H1668 H 0.70542 0.22235 0.5315 0.0
H1669 H 0.63265 0.20869 0.53547 0.0
C1670 C 0.57084 0.19845 0.52293 0.0
C1671 C 0.5416 0.19287 0.51557 0.0
C1672 C 0.61187 0.2038 0.5208 0.0
C1673 C 0.5533 0.19104 0.5061 0.0
C1674 C 0.5942 0.19717 0.50392 0.0
C1675 C 0.66621 0.21359 0.509 0.0
C1676 C 0.69609 0.22059 0.51627 0.0
C1677 C 0.62406 0.20454 0.51119 0.0
C1678 C 0.68303 0.21735 0.5258 0.0
C1679 C 0.64144 0.20959 0.52806 0.0
H1680 H 0.81598 0.48537 0.69958 0.0
H1681 H 0.84474 0.48351 0.66988 0.0
H1682 H 0.78468 0.49507 0.66549 0.0
H1683 H 0.72008 0.50008 0.67029 0.0
H1684 H 0.69698 0.50835 0.70018 0.0
H1685 H 0.75896 0.50062 0.70431 0.0
C1686 C 0.8094 0.48801 0.69214 0.0
C1687 C 0.83411 0.48275 0.68504 0.0
C1688 C 0.77574 0.49581 0.68972 0.0
C1689 C 0.82584 0.48702 0.67545 0.0
C1690 C 0.79145 0.49356 0.67296 0.0
C1691 C 0.7291 0.50085 0.67769 0.0
C1692 C 0.70367 0.50452 0.68491 0.0
C1693 C 0.76555 0.49712 0.68005 0.0
C1694 C 0.71598 0.50581 0.69447 0.0
C1695 C 0.75133 0.50109 0.69685 0.0
H1696 H 0.54062 0.23188 0.67218 0.0
H1697 H 0.55392 0.21663 0.70227 0.0
H1698 H 0.5608 0.28677 0.70542 0.0
H1699 H 0.56527 0.3536 0.69976 0.0
H1700 H 0.54737 0.36886 0.66998 0.0
H1701 H 0.54003 0.29789 0.66658 0.0
C1702 C 0.54478 0.24386 0.67942 0.0
C1703 C 0.54677 0.21879 0.68697 0.0
C1704 C 0.54805 0.28438 0.68125 0.0
C1705 C 0.55192 0.23482 0.69632 0.0
C1706 C 0.55608 0.27516 0.69814 0.0
C1707 C 0.55959 0.34134 0.69252 0.0
C1708 C 0.5572 0.36653 0.68512 0.0
C1709 C 0.55451 0.30033 0.69068 0.0
C1710 C 0.54936 0.35002 0.6758 0.0
C1711 C 0.54525 0.30949 0.67386 0.0
H1712 H 0.82028 0.30422 0.69532 0.0
H1713 H 0.79109 0.33599 0.6677 0.0
H1714 H 0.72118 0.2688 0.66767 0.0
H1715 H 0.6654 0.20286 0.67607 0.0
H1716 H 0.6953 0.17326 0.70383 0.0
H1717 H 0.76743 0.23696 0.70315 0.0
C1718 C 0.79891 0.29638 0.68924 0.0
C1719 C 0.81115 0.32555 0.68157 0.0
C1720 C 0.75848 0.25777 0.68929 0.0
C1721 C 0.78275 0.31442 0.67375 0.0
C1722 C 0.74256 0.2759 0.67372 0.0
C1723 C 0.68807 0.21005 0.68187 0.0
C1724 C 0.67493 0.18333 0.69 0.0
C1725 C 0.72967 0.24755 0.68152 0.0
C1726 C 0.70452 0.19331 0.69751 0.0
C1727 C 0.74582 0.22988 0.69714 0.0
H1728 H 0.57075 0.22199 0.20096 0.0
H1729 H 0.55181 0.18443 0.17144 0.0
H1730 H 0.54483 0.24757 0.16745 0.0
H1731 H 0.54464 0.31452 0.17251 0.0
H1732 H 0.55562 0.34576 0.20243 0.0
H1733 H 0.56469 0.28417 0.20612 0.0
C1734 C 0.5651 0.22762 0.19365 0.0
C1735 C 0.56283 0.19919 0.18647 0.0
C1736 C 0.5594 0.2629 0.1915 0.0
C1737 C 0.55462 0.2064 0.17706 0.0
C1738 C 0.55038 0.2424 0.17479 0.0
C1739 C 0.54879 0.30756 0.17982 0.0
C1740 C 0.54941 0.3347 0.18718 0.0
C1741 C 0.55288 0.27107 0.18196 0.0
C1742 C 0.55455 0.32518 0.19664 0.0
C1743 C 0.56 0.29006 0.19877 0.0
H1744 H 0.83837 0.3262 0.19976 0.0
H1745 H 0.83291 0.38224 0.17303 0.0
H1746 H 0.76901 0.3141 0.16836 0.0
H1747 H 0.71186 0.23993 0.17234 0.0
H1748 H 0.71767 0.18345 0.19907 0.0
H1749 H 0.78426 0.24994 0.20322 0.0
C1750 C 0.82338 0.32328 0.19288 0.0
C1751 C 0.8404 0.35924 0.18672 0.0
C1752 C 0.78656 0.28384 0.19025 0.0
C1753 C 0.82075 0.35498 0.17783 0.0
C1754 C 0.78401 0.31603 0.17519 0.0
C1755 C 0.72789 0.24189 0.17903 0.0
C1756 C 0.70938 0.20657 0.18539 0.0
C1757 C 0.76625 0.2804 0.1814 0.0
C1758 C 0.73097 0.20988 0.19401 0.0
C1759 C 0.76905 0.24808 0.19642 0.0
H1760 H 0.80495 0.49425 0.17237 0.0
H1761 H 0.83544 0.50097 0.2023 0.0
H1762 H 0.76773 0.49787 0.20635 0.0
H1763 H 0.69766 0.48822 0.20159 0.0
H1764 H 0.66749 0.48682 0.17187 0.0
H1765 H 0.73717 0.49312 0.16752 0.0
C1766 C 0.7969 0.49549 0.17977 0.0
C1767 C 0.82524 0.49756 0.18702 0.0
C1768 C 0.75785 0.49439 0.18209 0.0
C1769 C 0.81449 0.49956 0.19656 0.0
C1770 C 0.77558 0.49757 0.19891 0.0
C1771 C 0.70653 0.48975 0.19415 0.0
C1772 C 0.67732 0.48639 0.18704 0.0
C1773 C 0.74675 0.49425 0.19175 0.0
C1774 C 0.68941 0.48907 0.17745 0.0
C1775 C 0.72918 0.49255 0.17498 0.0
H1776 H 0.64911 0.19687 0.0305 0.0
H1777 H 0.67234 0.1873 1.00068 0.0
H1778 H 0.61067 0.19522 0.9964 0.0
H1779 H 0.55288 0.20947 1.00095 0.0
H1780 H 0.52304 0.21154 0.03057 0.0
H1781 H 0.58409 0.20181 0.03513 0.0
C1782 C 0.64022 0.19598 0.02309 0.0
C1783 C 0.66548 0.19162 1.01593 0.0
C1784 C 0.60371 0.19956 0.02064 0.0
C1785 C 0.65339 0.19024 1.00635 0.0
C1786 C 0.6182 0.19506 1.00387 0.0
C1787 C 0.5595 0.2074 1.00841 0.0
C1788 C 0.53414 0.21214 1.01543 0.0
C1789 C 0.59358 0.2004 1.01093 0.0
C1790 C 0.54251 0.20856 0.02505 0.0
C1791 C 0.57743 0.203 0.02765 0.0
H1792 H 0.80534 0.34212 1.00067 0.0
H1793 H 0.83289 0.32266 0.02948 0.0
H1794 H 0.84492 0.39431 0.03397 0.0
H1795 H 0.84642 0.46296 0.0296 0.0
H1796 H 0.82869 0.48472 1.00016 0.0
H1797 H 0.81471 0.41254 0.996 0.0
C1798 C 0.81402 0.35356 1.00793 0.0
C1799 C 0.81675 0.32642 1.01481 0.0
C1800 C 0.82304 0.39564 1.01032 0.0
C1801 C 0.82917 0.34227 0.02413 0.0
C1802 C 0.83642 0.38347 0.02667 0.0
C1803 C 0.83993 0.45193 0.02228 0.0
C1804 C 0.83868 0.4793 1.0152 0.0
C1805 C 0.83317 0.41047 0.01983 0.0
C1806 C 0.83036 0.46459 1.00573 0.0
C1807 C 0.82206 0.42313 1.00334 0.0
H1808 H 0.5756 0.38941 0.02892 0.0
H1809 H 0.55659 0.3507 0.99939 0.0
H1810 H 0.62774 0.41093 0.99541 0.0
H1811 H 0.69615 0.4737 1.00022 0.0
H1812 H 0.71448 0.51846 0.02924 0.0
H1813 H 0.64322 0.45725 0.03354 0.0
C1814 C 0.58711 0.39448 0.02163 0.0
C1815 C 0.56082 0.36566 1.01447 0.0
C1816 C 0.62802 0.43021 0.0193 0.0
C1817 C 0.57596 0.37266 1.00503 0.0
C1818 C 0.61679 0.407 1.00273 0.0
C1819 C 0.68446 0.47014 1.00748 0.0
C1820 C 0.71067 0.50005 1.01444 0.0
C1821 C 0.64315 0.43584 1.0098 0.0
C1822 C 0.69495 0.49549 0.02378 0.0
C1823 C 0.65421 0.46052 0.02623 0.0
H1824 H 0.4759 0.80739 0.83268 0.0
H1825 H 0.4993 0.84155 0.86237 0.0
H1826 H 0.50587 0.77735 0.86547 0.0
H1827 H 0.50297 0.71014 0.85966 0.0
H1828 H 0.48529 0.68057 0.82964 0.0
H1829 H 0.47883 0.74446 0.82672 0.0
C1830 C 0.48259 0.80088 0.83983 0.0
C1831 C 0.48654 0.8288 0.84732 0.0
C1832 C 0.48741 0.76472 0.84148 0.0
C1833 C 0.49583 0.82033 0.85652 0.0
C1834 C 0.49957 0.78364 0.85828 0.0
C1835 C 0.4979 0.71787 0.85248 0.0
C1836 C 0.49441 0.69048 0.84488 0.0
C1837 C 0.49508 0.75536 0.85081 0.0
C1838 C 0.48832 0.70116 0.8356 0.0
C1839 C 0.48442 0.73762 0.83393 0.0
H1840 H 0.22499 0.68787 0.83522 0.0
H1841 H 0.20795 0.65827 0.86517 0.0
H1842 H 0.26988 0.73021 0.8688 0.0
H1843 H 0.33258 0.79942 0.86319 0.0
H1844 H 0.34536 0.82918 0.83317 0.0
H1845 H 0.2811 0.75955 0.82984 0.0
C1846 C 0.23452 0.69739 0.84256 0.0
C1847 C 0.21244 0.66775 0.84993 0.0
C1848 C 0.26948 0.7388 0.84456 0.0
C1849 C 0.2246 0.68058 0.8594 0.0
C1850 C 0.2601 0.72161 0.86145 0.0
C1851 C 0.32092 0.79082 0.85594 0.0
C1852 C 0.34403 0.8194 0.84843 0.0
C1853 C 0.28338 0.75069 0.85406 0.0
C1854 C 0.32824 0.80799 0.83908 0.0
C1855 C 0.29158 0.76801 0.83716 0.0
H1856 H 0.37678 0.55483 0.85718 0.0
H1857 H 0.34625 0.49889 0.82905 0.0
H1858 H 0.27425 0.49032 0.83002 0.0
H1859 H 0.22162 0.50383 0.83827 0.0
H1860 H 0.25158 0.56042 0.86638 0.0
H1861 H 0.32124 0.5633 0.86601 0.0
C1862 C 0.35401 0.54011 0.85136 0.0
C1863 C 0.36694 0.5277 0.84304 0.0
C1864 C 0.31245 0.53574 0.8519 0.0
C1865 C 0.3372 0.50891 0.83552 0.0
C1866 C 0.29595 0.50407 0.83605 0.0
C1867 C 0.24313 0.51639 0.84436 0.0
C1868 C 0.23118 0.53211 0.85229 0.0
C1869 C 0.28349 0.51822 0.84411 0.0
C1870 C 0.25969 0.54814 0.86013 0.0
C1871 C 0.29977 0.54992 0.85994 0.0
H1872 H 0.49445 0.8255 0.03299 0.0
H1873 H 0.51074 0.81071 1.0031 0.0
H1874 H 0.44957 0.82165 0.99936 0.0
H1875 H 0.38799 0.83014 1.00489 0.0
H1876 H 0.37615 0.84896 0.03488 0.0
H1877 H 0.43937 0.84236 0.03826 0.0
C1878 C 0.48486 0.82508 0.02564 0.0
C1879 C 0.50652 0.81673 0.01833 0.0
C1880 C 0.45042 0.8321 0.02358 0.0
C1881 C 0.49434 0.81694 1.00884 0.0
C1882 C 0.45932 0.82306 1.00672 0.0
C1883 C 0.39962 0.83336 1.01214 0.0
C1884 C 0.37697 0.83969 0.01962 0.0
C1885 C 0.43657 0.82988 1.01406 0.0
C1886 C 0.39277 0.84415 0.02897 0.0
C1887 C 0.42889 0.84014 0.03093 0.0
H1888 H 0.21031 0.67957 0.03332 0.0
H1889 H 0.23402 0.71254 1.00361 0.0
H1890 H 0.22426 0.64065 1.00007 0.0
H1891 H 0.21398 0.56999 1.00584 0.0
H1892 H 0.186 0.5379 0.03564 0.0
H1893 H 0.19193 0.60751 0.03869 0.0
C1894 C 0.21293 0.67085 0.02605 0.0
C1895 C 0.22344 0.70128 0.01875 0.0
C1896 C 0.20658 0.62957 0.0241 0.0
C1897 C 0.22607 0.68951 1.00934 0.0
C1898 C 0.22065 0.64852 1.00734 0.0
C1899 C 0.2087 0.5781 1.01297 0.0
C1900 C 0.19992 0.54869 0.0205 0.0
C1901 C 0.21166 0.61848 1.01471 0.0
C1902 C 0.19277 0.55964 0.02968 0.0
C1903 C 0.19633 0.59965 0.03147 0.0
H1904 H 0.35541 0.55287 0.0351 0.0
H1905 H 0.32732 0.5157 1.00566 0.0
H1906 H 0.39832 0.57667 1.00103 0.0
H1907 H 0.46775 0.64324 1.0055 0.0
H1908 H 0.49597 0.67414 0.03532 0.0
H1909 H 0.42611 0.613 0.03963 0.0
C1910 C 0.36492 0.55791 0.02767 0.0
C1911 C 0.33591 0.53033 0.02071 0.0
C1912 C 0.40603 0.59206 0.02513 0.0
C1913 C 0.34896 0.53679 1.01113 0.0
C1914 C 0.38956 0.57168 1.0085 0.0
C1915 C 0.45867 0.63622 1.01293 0.0
C1916 C 0.48723 0.66348 0.02006 0.0
C1917 C 0.41828 0.59998 1.01544 0.0
C1918 C 0.47501 0.65372 0.02966 0.0
C1919 C 0.43483 0.61879 0.03216 0.0
H1920 H 0.22798 0.55818 0.53544 0.0
H1921 H 0.21431 0.52322 0.50577 0.0
H1922 H 0.20318 0.58396 0.50186 0.0
H1923 H 0.20001 0.64905 0.50694 0.0
H1924 H 0.20699 0.67872 0.5369 0.0
H1925 H 0.21743 0.61793 0.54064 0.0
C1926 C 0.2224 0.5638 0.52812 0.0
C1927 C 0.22267 0.53679 0.52088 0.0
C1928 C 0.21462 0.59781 0.52599 0.0
C1929 C 0.21462 0.54388 0.51145 0.0
C1930 C 0.20824 0.57858 0.50923 0.0
C1931 C 0.20335 0.64184 0.51429 0.0
C1932 C 0.20279 0.66852 0.52162 0.0
C1933 C 0.20854 0.60607 0.51644 0.0
C1934 C 0.20691 0.6586 0.53111 0.0
C1935 C 0.2132 0.62395 0.53327 0.0
H1936 H 0.48678 0.67763 0.53409 0.0
H1937 H 0.51177 0.71106 0.50443 0.0
H1938 H 0.45035 0.64009 0.49999 0.0
H1939 H 0.38603 0.56972 0.50481 0.0
H1940 H 0.36768 0.53565 0.53462 0.0
H1941 H 0.43009 0.60511 0.53871 0.0
C1942 C 0.47904 0.66921 0.52664 0.0
C1943 C 0.50307 0.69981 0.51959 0.0
C1944 C 0.44475 0.62806 0.52418 0.0
C1945 C 0.49331 0.68822 0.50998 0.0
C1946 C 0.45818 0.64763 0.50745 0.0
C1947 C 0.39616 0.57739 0.51217 0.0
C1948 C 0.37196 0.54747 0.51939 0.0
C1949 C 0.43308 0.61747 0.51452 0.0
C1950 C 0.38571 0.55777 0.5289 0.0
C1951 C 0.42134 0.59771 0.53128 0.0
H1952 H 0.46282 0.83119 0.50594 0.0
H1953 H 0.49019 0.83708 0.53604 0.0
H1954 H 0.4211 0.83113 0.53975 0.0
H1955 H 0.35144 0.82071 0.53468 0.0
H1956 H 0.3237 0.82036 0.50484 0.0
H1957 H 0.39417 0.82782 0.50078 0.0
C1958 C 0.45369 0.83153 0.51329 0.0
C1959 C 0.48172 0.83447 0.52069 0.0
C1960 C 0.41374 0.82885 0.51543 0.0
C1961 C 0.46956 0.83517 0.53018 0.0
C1962 C 0.42985 0.83155 0.53234 0.0
C1963 C 0.36091 0.82254 0.52728 0.0
C1964 C 0.3323 0.81928 0.52006 0.0
C1965 C 0.40154 0.82786 0.52505 0.0
C1966 C 0.34518 0.82242 0.51051 0.0
C1967 C 0.38541 0.82664 0.5082 0.0
H1968 H 0.22765 0.54768 0.33537 0.0
H1969 H 0.19203 0.53275 0.36498 0.0
H1970 H 0.25436 0.52426 0.36895 0.0
H1971 H 0.32155 0.5245 0.36389 0.0
H1972 H 0.35039 0.53078 0.3339 0.0
H1973 H 0.28794 0.53844 0.33017 0.0
C1974 C 0.23337 0.54236 0.3427 0.0
C1975 C 0.20607 0.54229 0.34993 0.0
C1976 C 0.26805 0.53568 0.34483 0.0
C1977 C 0.21326 0.53421 0.35934 0.0
C1978 C 0.24879 0.52909 0.36159 0.0
C1979 C 0.31372 0.52696 0.35655 0.0
C1980 C 0.34075 0.52718 0.34919 0.0
C1981 C 0.27685 0.53037 0.3544 0.0
C1982 C 0.33004 0.53014 0.3397 0.0
C1983 C 0.29444 0.53484 0.33755 0.0
H1984 H 0.48233 0.67734 0.3336 0.0
H1985 H 0.49534 0.66071 0.36356 0.0
H1986 H 0.49955 0.73027 0.36692 0.0
H1987 H 0.49636 0.79457 0.36125 0.0
H1988 H 0.48915 0.81265 0.33108 0.0
H1989 H 0.48623 0.74404 0.32786 0.0
C1990 C 0.48639 0.68908 0.34086 0.0
C1991 C 0.48793 0.66373 0.34834 0.0
C1992 C 0.4898 0.72939 0.34268 0.0
C1993 C 0.49381 0.67958 0.3577 0.0
C1994 C 0.49614 0.71929 0.35961 0.0
C1995 C 0.49443 0.78354 0.35398 0.0
C1996 C 0.49269 0.80858 0.34641 0.0
C1997 C 0.49364 0.74427 0.35215 0.0
C1998 C 0.49071 0.79415 0.33702 0.0
C1999 C 0.48884 0.75479 0.33517 0.0
H2000 H 0.2145 0.7081 0.33887 0.0
H2001 H 0.23953 0.69028 0.36809 0.0
H2002 H 0.30881 0.75758 0.36758 0.0
H2003 H 0.36544 0.81995 0.35853 0.0
H2004 H 0.34068 0.83672 0.32925 0.0
H2005 H 0.26896 0.7724 0.33014 0.0
C2006 C 0.23477 0.71919 0.34517 0.0
C2007 C 0.22148 0.69367 0.35348 0.0
C2008 C 0.27522 0.75802 0.34483 0.0
C2009 C 0.24866 0.7088 0.36155 0.0
C2010 C 0.28855 0.74747 0.36128 0.0
C2011 C 0.34407 0.80975 0.3524 0.0
C2012 C 0.35857 0.83315 0.34383 0.0
C2013 C 0.30264 0.77208 0.35291 0.0
C2014 C 0.3305 0.81932 0.33594 0.0
C2015 C 0.28935 0.78239 0.33643 0.0
H2016 H 0.29167 0.32343 0.19516 0.0
H2017 H 0.26407 0.37075 0.16936 0.0
H2018 H 0.34133 0.41272 0.16576 0.0
H2019 H 0.41705 0.43379 0.16954 0.0
H2020 H 0.44432 0.38525 0.19515 0.0
H2021 H 0.36732 0.34641 0.19921 0.0
C2022 C 0.30247 0.34316 0.18878 0.0
C2023 C 0.27174 0.34365 0.18254 0.0
C2024 C 0.34714 0.36702 0.18668 0.0
C2025 C 0.2867 0.36949 0.1743 0.0
C2026 C 0.33103 0.39356 0.17222 0.0
C2027 C 0.40613 0.41495 0.17604 0.0
C2028 C 0.43644 0.41231 0.18201 0.0
C2029 C 0.36156 0.39224 0.1783 0.0
C2030 C 0.42172 0.38772 0.19041 0.0
C2031 C 0.37762 0.36544 0.19274 0.0
H2032 H 0.64011 0.0387 0.18979 0.0
H2033 H 0.60806 1.00261 0.16033 0.0
H2034 H 0.63818 0.95487 0.16128 0.0
H2035 H 0.67808 0.92673 0.17 0.0
H2036 H 0.71364 0.96388 0.19929 0.0
H2037 H 0.67784 1.00707 0.19889 0.0
C2038 C 0.63925 0.01988 0.18364 0.0
C2039 C 0.62179 0.02434 0.175 0.0
C2040 C 0.65766 0.99272 0.18417 0.0
C2041 C 0.62134 0.99999 0.16707 0.0
C2042 C 0.63866 0.97261 0.16759 0.0
C2043 C 0.67767 0.9438 0.17635 0.0
C2044 C 0.6988 0.9419 0.18465 0.0
C2045 C 0.6576 0.96923 0.17604 0.0
C2046 C 0.69782 0.96462 0.19277 0.0
C2047 C 0.67735 0.98952 0.19255 0.0
H2048 H 0.08266 0.74415 0.1965 0.0
H2049 H 0.10724 0.77493 0.16659 0.0
H2050 H 0.06427 0.69881 0.16253 0.0
H2051 H 1.01713 0.6234 0.16718 0.0
H2052 H 0.99533 0.58908 0.19684 0.0
H2053 H 0.03966 0.66596 0.20128 0.0
C2054 C 0.07883 0.73408 0.18911 0.0
C2055 C 0.0983 0.76566 0.18189 0.0
C2056 C 0.05442 0.68942 0.18675 0.0
C2057 C 0.0931 0.75176 0.17235 0.0
C2058 C 0.06825 0.70803 0.16997 0.0
C2059 C 0.02236 0.63272 0.17463 0.0
C2060 C 1.00292 0.60066 0.18167 0.0
C2061 C 0.04845 0.67665 0.17708 0.0
C2062 C 1.01028 0.61315 0.19129 0.0
C2063 C 0.03542 0.65716 0.19381 0.0
H2064 H 0.37843 0.27288 0.36149 0.0
H2065 H 0.31275 0.27408 0.3358 0.0
H2066 H 0.34902 0.35294 0.3364 0.0
H2067 H 0.39731 0.42224 0.3446 0.0
H2068 H 0.4637 0.42098 0.37014 0.0
H2069 H 0.42965 0.34223 0.36918 0.0
C2070 C 0.37221 0.29033 0.35598 0.0
C2071 C 0.34254 0.26709 0.34863 0.0
C2072 C 0.39332 0.33605 0.35635 0.0
C2073 C 0.33526 0.29068 0.34155 0.0
C2074 C 0.35598 0.33601 0.3419 0.0
C2075 C 0.4045 0.40472 0.34992 0.0
C2076 C 0.43285 0.42764 0.35747 0.0
C2077 C 0.38474 0.35911 0.34932 0.0
C2078 C 0.44195 0.40432 0.36426 0.0
C2079 C 0.42239 0.35914 0.36373 0.0
H2080 H 0.60543 0.97769 0.34306 0.0
H2081 H 0.60604 0.04108 0.36924 0.0
H2082 H 0.68483 0.08588 0.3685 0.0
H2083 H 0.75454 0.1052 0.36084 0.0
H2084 H 0.75417 0.04253 0.33453 0.0
H2085 H 0.67521 1.00003 0.3349 0.0
C2086 C 0.6228 1.00156 0.34856 0.0
C2087 C 0.59956 1.00568 0.35623 0.0
C2088 C 0.66855 0.02746 0.3481 0.0
C2089 C 0.62282 0.03697 0.36327 0.0
C2090 C 0.66807 0.06265 0.36286 0.0
C2091 C 0.73728 0.08249 0.35514 0.0
C2092 C 0.76085 0.07724 0.34769 0.0
C2093 C 0.69145 0.05789 0.35538 0.0
C2094 C 0.73739 0.04754 0.34038 0.0
C2095 C 0.69198 0.02299 0.34058 0.0
H2096 H 0.93386 0.66368 0.36203 0.0
H2097 H 0.98268 0.7056 0.33362 0.0
H2098 H 0.02664 0.67071 0.33493 0.0
H2099 H 0.0548 0.6311 0.34463 0.0
H2100 H 1.00661 0.59277 0.37323 0.0
H2101 H 0.95927 0.62292 0.37132 0.0
C2102 C 0.95373 0.66496 0.35606 0.0
C2103 C 0.95467 0.68748 0.34773 0.0
C2104 C 0.97953 0.64538 0.35691 0.0
C2105 C 0.98105 0.68864 0.34013 0.0
C2106 C 1.0064 0.66868 0.34089 0.0
C2107 C 0.03352 0.62894 0.35038 0.0
C2108 C 0.03439 0.60951 0.35908 0.0
C2109 C 1.00644 0.64734 0.3493 0.0
C2110 C 1.00684 0.60749 0.36647 0.0
C2111 C 0.97964 0.62483 0.3654 0.0
H2112 H 0.63054 0.58987 0.86382 0.0
H2113 H 0.60458 0.64272 0.83876 0.0
H2114 H 0.68172 0.68161 0.83478 0.0
H2115 H 0.75775 0.70394 0.83886 0.0
H2116 H 0.78291 0.65003 0.86392 0.0
H2117 H 0.70574 0.6086 0.86736 0.0
C2118 C 0.64173 0.60962 0.85745 0.0
C2119 C 0.61165 0.61347 0.85164 0.0
C2120 C 0.6864 0.63208 0.85519 0.0
C2121 C 0.62688 0.63918 0.84339 0.0
C2122 C 0.67114 0.66156 0.84111 0.0
C2123 C 0.74638 0.68282 0.84502 0.0
C2124 C 0.77669 0.68061 0.85112 0.0
C2125 C 0.70141 0.65877 0.84702 0.0
C2126 C 0.76085 0.65284 0.85907 0.0
C2127 C 0.71646 0.62899 0.86108 0.0
H2128 H 0.3749 0.09446 0.83932 0.0
H2129 H 0.30019 0.05658 0.86526 0.0
H2130 H 0.32831 1.00908 0.86934 0.0
H2131 H 0.37478 0.97874 0.86584 0.0
H2132 H 0.4552 0.02005 0.84079 0.0
H2133 H 0.42452 0.06534 0.83607 0.0
C2134 C 0.36485 0.07567 0.84583 0.0
C2135 C 0.33554 0.07916 0.85198 0.0
C2136 C 0.38224 0.04896 0.84832 0.0
C2137 C 0.32301 0.05484 0.86044 0.0
C2138 C 0.33897 0.0275 0.86279 0.0
C2139 C 0.38556 0.99758 0.85933 0.0
C2140 C 0.41686 0.99562 0.85362 0.0
C2141 C 0.36874 0.02444 0.85683 0.0
C2142 C 0.43082 0.02065 0.84527 0.0
C2143 C 0.41333 0.04666 0.84258 0.0
H2144 H 0.9885 0.27913 0.84099 0.0
H2145 H 0.89677 0.25552 0.86346 0.0
H2146 H 0.93121 0.33296 0.86658 0.0
H2147 H 0.99031 0.40757 0.86373 0.0
H2148 H 0.08316 0.43196 0.84153 0.0
H2149 H 0.0455 0.35479 0.83751 0.0
C2150 C 0.97562 0.29096 0.84647 0.0
C2151 C 0.94001 0.26114 0.85199 0.0
C2152 C 0.99613 0.33596 0.84835 0.0
C2153 C 0.92417 0.27737 0.85911 0.0
C2154 C 0.94393 0.32184 0.86093 0.0
C2155 C 1.00209 0.39604 0.85796 0.0
C2156 C 0.0397 0.42559 0.85298 0.0
C2157 C 0.98042 0.35143 0.85573 0.0
C2158 C 0.05441 0.40999 0.84551 0.0
C2159 C 0.03287 0.36576 0.84321 0.0
H2160 H 0.64304 0.60764 0.68993 0.0
H2161 H 0.58277 0.61054 0.66355 0.0
H2162 H 0.61585 0.68909 0.66478 0.0
H2163 H 0.66432 0.75784 0.67297 0.0
H2164 H 0.72349 0.75523 0.69957 0.0
H2165 H 0.68844 0.67646 0.69864 0.0
C2166 C 0.63698 0.62548 0.68448 0.0
C2167 C 0.61062 0.60303 0.67662 0.0
C2168 C 0.65606 0.67102 0.68525 0.0
C2169 C 0.60295 0.62677 0.66967 0.0
C2170 C 0.62196 0.67186 0.67035 0.0
C2171 C 0.66941 0.74014 0.67861 0.0
C2172 C 0.69689 0.763 0.68632 0.0
C2173 C 0.64896 0.69448 0.67806 0.0
C2174 C 0.70264 0.73898 0.69355 0.0
C2175 C 0.68264 0.69369 0.69302 0.0
H2176 H 0.41109 0.98805 0.66724 0.0
H2177 H 0.43938 0.05916 0.69359 0.0
H2178 H 0.36247 0.02086 0.69769 0.0
H2179 H 0.2863 0.96932 0.69352 0.0
H2180 H 0.25743 0.89963 0.66693 0.0
H2181 H 0.33465 0.93485 0.66326 0.0
C2182 C 0.40043 0.9949 0.67391 0.0
C2183 C 0.43129 0.02646 0.68011 0.0
C2184 C 0.35569 0.97303 0.67618 0.0
C2185 C 0.41664 0.03498 0.6887 0.0
C2186 C 0.37248 1.01312 0.69104 0.0
C2187 C 0.29679 0.96146 0.68695 0.0
C2188 C 0.26555 0.9316 0.68054 0.0
C2189 C 0.34156 0.98235 0.6848 0.0
C2190 C 0.28029 0.92233 0.67204 0.0
C2191 C 0.32467 0.94259 0.66991 0.0
H2192 H 0.0479 0.43562 0.66986 0.0
H2193 H 0.96145 0.37509 0.69356 0.0
H2194 H 0.99875 0.33539 0.69753 0.0
H2195 H 0.05416 0.31548 0.69391 0.0
H2196 H 0.13849 0.3735 0.66974 0.0
H2197 H 0.10396 0.41631 0.66635 0.0
C2198 C 0.03742 0.41395 0.67593 0.0
C2199 C 1.00196 0.4085 0.68143 0.0
C2200 C 0.05859 0.39052 0.67808 0.0
C2201 C 0.98868 0.38005 0.68923 0.0
C2202 C 1.00998 0.35722 0.6915 0.0
C2203 C 0.0653 0.33774 0.68794 0.0
C2204 C 0.09908 0.34115 0.68211 0.0
C2205 C 0.04475 0.36187 0.68592 0.0
C2206 C 0.11262 0.37 0.67436 0.0
C2207 C 0.09283 0.39457 0.6724 0.0
H2208 H 0.94474 0.65906 0.52659 0.0
H2209 H 0.92347 0.71411 0.50122 0.0
H2210 H 1.00123 0.75561 0.49835 0.0
H2211 H 0.07549 0.77341 0.50245 0.0
H2212 H 0.09727 0.71811 0.52766 0.0
H2213 H 1.01965 0.68009 0.53118 0.0
C2214 C 0.95708 0.68051 0.5205 0.0
C2215 C 0.92789 0.68309 0.51413 0.0
C2216 C 1.00219 0.70419 0.5188 0.0
C2217 C 0.94483 0.71112 0.50625 0.0
C2218 C 0.98947 0.73494 0.50458 0.0
C2219 C 0.06327 0.7533 0.50876 0.0
C2220 C 0.09217 0.74841 0.51474 0.0
C2221 C 1.01845 0.73124 0.51071 0.0
C2222 C 0.07577 0.72231 0.5229 0.0
C2223 C 0.03131 0.70049 0.52492 0.0
H2224 H 0.32176 0.24862 0.50755 0.0
H2225 H 0.39044 0.31477 0.53309 0.0
H2226 H 0.35709 0.35986 0.53264 0.0
H2227 H 0.31083 0.38344 0.52459 0.0
H2228 H 0.24121 0.31651 0.49924 0.0
H2229 H 0.27216 0.26918 0.50006 0.0
C2230 C 0.3292 0.27264 0.51306 0.0
C2231 C 0.3589 0.27821 0.5203 0.0
C2232 C 0.30981 0.29873 0.51278 0.0
C2233 C 0.36786 0.30956 0.5274 0.0
C2234 C 0.34883 0.3356 0.52715 0.0
C2235 C 0.30228 0.35831 0.51929 0.0
C2236 C 0.27402 0.35384 0.51182 0.0
C2237 C 0.32017 0.33092 0.51981 0.0
C2238 C 0.26303 0.32088 0.50505 0.0
C2239 C 0.28077 0.29374 0.5055 0.0
H2240 H 0.71839 0.9589 0.50506 0.0
H2241 H 0.63018 0.93598 0.52821 0.0
H2242 H 0.66954 1.01318 0.53221 0.0
H2243 H 0.72591 0.08847 0.52829 0.0
H2244 H 0.8128 0.11046 0.50486 0.0
H2245 H 0.77763 0.03286 0.50192 0.0
C2246 C 0.70802 0.97077 0.51103 0.0
C2247 C 0.67115 0.94179 0.51626 0.0
C2248 C 0.73064 0.01528 0.51324 0.0
C2249 C 0.65829 0.95765 0.52402 0.0
C2250 C 0.68081 1.00185 0.52631 0.0
C2251 C 0.73766 0.0762 0.52267 0.0
C2252 C 0.7719 0.10549 0.51679 0.0
C2253 C 0.71663 0.03119 0.52087 0.0
C2254 C 0.78638 0.08887 0.50947 0.0
C2255 C 0.76619 0.04437 0.50775 0.0
H2256 H 0.10973 0.73909 0.6978 0.0
H2257 H 0.04617 0.76377 0.67457 0.0
H2258 H 1.00575 0.68645 0.67078 0.0
H2259 H 0.986 0.61099 0.67444 0.0
H2260 H 0.04704 0.58591 0.69816 0.0
H2261 H 0.09058 0.66354 0.70133 0.0
C2262 C 0.08723 0.72756 0.69187 0.0
C2263 C 0.08115 0.75741 0.68647 0.0
C2264 C 0.06338 0.68268 0.68983 0.0
C2265 C 0.0516 0.7417 0.67885 0.0
C2266 C 0.02838 0.69736 0.67668 0.0
C2267 C 1.00912 0.62245 0.68025 0.0
C2268 C 1.0131 0.59223 0.68602 0.0
C2269 C 0.03367 0.66741 0.68217 0.0
C2270 C 0.04305 0.60807 0.69358 0.0
C2271 C 0.06804 0.65264 0.69542 0.0
H2272 H 0.28016 0.30831 0.67756 0.0
H2273 H 0.27937 0.38817 0.70052 0.0
H2274 H 0.35773 0.43436 0.69933 0.0
H2275 H 0.42744 0.4512 0.69217 0.0
H2276 H 0.42869 0.37324 0.66882 0.0
H2277 H 0.35003 0.32796 0.66972 0.0
C2278 C 0.29718 0.33594 0.68226 0.0
C2279 C 0.27375 0.34441 0.68917 0.0
C2280 C 0.34265 0.36294 0.68148 0.0
C2281 C 0.29639 0.38064 0.69516 0.0
C2282 C 0.34138 0.40718 0.69449 0.0
C2283 C 0.41056 0.42448 0.68724 0.0
C2284 C 0.43438 0.41579 0.68047 0.0
C2285 C 0.36499 0.3985 0.68774 0.0
C2286 C 0.41154 0.38101 0.67411 0.0
C2287 C 0.36636 0.35485 0.67463 0.0
H2288 H 0.71125 0.96473 0.67866 0.0
H2289 H 0.67621 0.93629 0.70825 0.0
H2290 H 0.62814 0.96604 0.70698 0.0
H2291 H 0.59848 1.00375 0.69782 0.0
H2292 H 0.63535 0.03622 0.66843 0.0
H2293 H 0.67952 1.00153 0.66926 0.0
C2294 C 0.6927 0.96468 0.68478 0.0
C2295 C 0.6974 0.9481 0.69355 0.0
C2296 C 0.66538 0.9829 0.68406 0.0
C2297 C 0.67338 0.94877 0.70142 0.0
C2298 C 0.64579 0.96588 0.70071 0.0
C2299 C 0.6157 1.00286 0.69154 0.0
C2300 C 0.6132 0.02267 0.68307 0.0
C2301 C 0.64186 0.98355 0.69212 0.0
C2302 C 0.63643 0.02139 0.67507 0.0
C2303 C 0.66188 1.00153 0.67554 0.0
H2304 H 0.28499 0.97506 0.17691 0.0
H2305 H 0.28366 0.90762 0.20248 0.0
H2306 H 0.36222 0.94027 0.20173 0.0
H2307 H 0.43216 0.99024 0.19418 0.0
H2308 H 0.43366 0.05615 0.16831 0.0
H2309 H 0.35495 0.02182 0.16878 0.0
C2310 C 0.30194 0.96741 0.18228 0.0
C2311 C 0.27835 0.93917 0.18979 0.0
C2312 C 0.34745 0.98612 0.18177 0.0
C2313 C 0.30086 0.92933 0.19664 0.0
C2314 C 0.34593 0.94807 0.19623 0.0
C2315 C 0.41534 0.99694 0.1886 0.0
C2316 C 0.4393 0.02607 0.18125 0.0
C2317 C 0.36971 0.97685 0.18888 0.0
C2318 C 0.41649 0.03394 0.17407 0.0
C2319 C 0.37126 0.01438 0.17434 0.0
H2320 H 0.04764 0.44623 0.19491 0.0
H2321 H 0.97273 0.37358 0.17057 0.0
H2322 H 1.00749 0.32938 0.17103 0.0
H2323 H 0.05758 0.3092 0.17883 0.0
H2324 H 0.13379 0.38457 0.2028 0.0
H2325 H 0.10025 0.42942 0.20199 0.0
C2326 C 0.03897 0.42088 0.18967 0.0
C2327 C 1.00732 0.41328 0.18275 0.0
C2328 C 0.05929 0.39571 0.18993 0.0
C2329 C 0.99701 0.38043 0.17597 0.0
C2330 C 1.01678 0.35491 0.17625 0.0
C2331 C 0.06692 0.33558 0.18383 0.0
C2332 C 0.09797 0.34317 0.19092 0.0
C2333 C 0.0477 0.36191 0.18327 0.0
C2334 C 0.10993 0.37776 0.1973 0.0
C2335 C 0.0907 0.40352 0.19685 0.0
H2336 H 0.6505 0.61392 0.17339 0.0
H2337 H 0.56742 0.59096 0.19765 0.0
H2338 H 0.60207 0.66853 0.20056 0.0
H2339 H 0.65886 0.74339 0.19687 0.0
H2340 H 0.74241 0.76704 0.17273 0.0
H2341 H 0.70483 0.68949 0.16915 0.0
C2342 C 0.63958 0.62585 0.17925 0.0
C2343 C 0.60633 0.59614 0.1853 0.0
C2344 C 0.66006 0.67098 0.18097 0.0
C2345 C 0.59296 0.61263 0.19287 0.0
C2346 C 0.61285 0.65722 0.19457 0.0
C2347 C 0.66861 0.7316 0.19078 0.0
C2348 C 0.70366 0.76111 0.18513 0.0
C2349 C 0.6469 0.68674 0.18878 0.0
C2350 C 0.71572 0.74514 0.17725 0.0
C2351 C 0.69421 0.70068 0.17519 0.0
H2352 H 0.2611 0.96018 1.00432 0.0
H2353 H 0.32387 0.93527 0.02767 0.0
H2354 H 0.36198 1.01211 0.03191 0.0
H2355 H 0.38159 0.08767 0.02828 0.0
H2356 H 0.31839 0.11188 1.00484 0.0
H2357 H 0.27644 0.03466 1.00145 0.0
C2358 C 0.28281 0.97154 1.01038 0.0
C2359 C 0.28991 0.94202 1.0156 0.0
C2360 C 0.30483 0.01594 1.01277 0.0
C2361 C 0.31801 0.95729 0.02348 0.0
C2362 C 0.33988 1.00132 0.02592 0.0
C2363 C 0.35817 0.07603 0.02253 0.0
C2364 C 0.35362 0.10595 1.0168 0.0
C2365 C 0.33415 0.03117 0.02052 0.0
C2366 C 0.32305 0.08995 1.00935 0.0
C2367 C 0.29894 0.0456 1.00737 0.0
H2368 H 0.07695 0.31305 1.00561 0.0
H2369 H 0.10053 0.40014 0.02905 0.0
H2370 H 0.02321 0.36166 0.03289 0.0
H2371 H 0.94778 0.3057 0.02897 0.0
H2372 H 0.925 0.21974 1.00527 0.0
H2373 H 1.0025 0.2549 1.00225 0.0
C2374 C 0.0652 0.32338 1.0116 0.0
C2375 C 0.09452 0.35962 1.01698 0.0
C2376 C 1.02054 0.30128 1.01373 0.0
C2377 C 0.0787 0.37248 0.02475 0.0
C2378 C 0.03439 0.35048 0.02695 0.0
C2379 C 0.95979 0.29424 0.02323 0.0
C2380 C 0.9302 0.26009 0.01735 0.0
C2381 C 1.00481 0.31514 0.02141 0.0
C2382 C 0.94666 0.24604 1.0099 0.0
C2383 C 0.99117 0.26621 1.00814 0.0
H2384 H 0.73003 0.65203 0.02785 0.0
H2385 H 0.81768 0.71409 1.00435 0.0
H2386 H 0.7825 0.75581 1.0008 0.0
H2387 H 0.72423 0.77247 1.00371 0.0
H2388 H 0.63654 0.71117 0.02716 0.0
H2389 H 0.67418 0.67202 0.03135 0.0
C2390 C 0.74179 0.67502 0.02202 0.0
C2391 C 0.77655 0.67945 1.01638 0.0
C2392 C 0.72109 0.6991 0.01993 0.0
C2393 C 0.79102 0.70954 1.00883 0.0
C2394 C 0.77081 0.73354 1.00676 0.0
C2395 C 0.71357 0.75079 1.00978 0.0
C2396 C 0.67734 0.74461 1.01506 0.0
C2397 C 0.7354 0.7282 1.01215 0.0
C2398 C 0.66415 0.71646 0.02293 0.0
C2399 C 0.68569 0.69396 0.02533 0.0
H2400 H 0.75524 0.1123 0.84005 0.0
H2401 H 0.77707 0.03775 0.86116 0.0
H2402 H 0.70011 0.9999 0.86537 0.0
H2403 H 0.62519 0.98415 0.86219 0.0
H2404 H 0.60463 0.05954 0.84099 0.0
H2405 H 0.682 0.1009 0.83781 0.0
C2406 C 0.74319 0.088 0.84562 0.0
C2407 C 0.77176 0.07754 0.8502 0.0
C2408 C 0.69887 0.06634 0.848 0.0
C2409 C 0.75571 0.04623 0.85747 0.0
C2410 C 0.71164 0.02453 0.85988 0.0
C2411 C 0.63773 1.01014 0.85701 0.0
C2412 C 0.60879 0.01833 0.8518 0.0
C2413 C 0.68267 0.03378 0.85509 0.0
C2414 C 0.62584 0.0521 0.84507 0.0
C2415 C 0.67024 0.07585 0.84321 0.0
H2416 H 0.98533 0.70968 0.85698 0.0
H2417 H 0.926 0.65164 0.83014 0.0
H2418 H 0.95982 0.6068 0.83053 0.0
H2419 H 1.00824 0.58495 0.83829 0.0
H2420 H 0.06495 0.6412 0.86549 0.0
H2421 H 0.03035 0.68495 0.86515 0.0
C2422 C 0.97974 0.68712 0.85124 0.0
C2423 C 0.95339 0.68441 0.84351 0.0
C2424 C 0.99897 0.6608 0.85155 0.0
C2425 C 0.94621 0.65462 0.83617 0.0
C2426 C 0.96562 0.62888 0.83637 0.0
C2427 C 1.01284 0.60657 0.84417 0.0
C2428 C 0.03951 0.60954 0.85188 0.0
C2429 C 0.99236 0.63181 0.844 0.0
C2430 C 0.04473 0.63783 0.85944 0.0
C2431 C 0.02497 0.66319 0.85926 0.0
H2432 H 0.32925 0.27509 0.85592 0.0
H2433 H 0.37745 0.27594 0.82771 0.0
H2434 H 0.42563 0.3539 0.8286 0.0
H2435 H 0.45108 0.42305 0.83679 0.0
H2436 H 0.40207 0.42444 0.86478 0.0
H2437 H 0.358 0.34544 0.86457 0.0
C2438 C 0.35079 0.29237 0.85005 0.0
C2439 C 0.34962 0.2695 0.84176 0.0
C2440 C 0.37826 0.33802 0.85051 0.0
C2441 C 0.37749 0.29256 0.83418 0.0
C2442 C 0.40513 0.33734 0.83465 0.0
C2443 C 0.43119 0.4062 0.84291 0.0
C2444 C 0.43012 0.43017 0.85077 0.0
C2445 C 0.40532 0.36061 0.8427 0.0
C2446 C 0.40374 0.40724 0.85859 0.0
C2447 C 0.37832 0.36183 0.85848 0.0
H2448 H 0.6967 0.935 0.02992 0.0
H2449 H 0.66498 0.93739 1.00039 0.0
H2450 H 0.69732 0.01623 1.00115 0.0
H2451 H 0.73143 0.08513 1.01059 0.0
H2452 H 0.75973 0.07979 0.04026 0.0
H2453 H 0.73229 1.00241 0.03902 0.0
C2454 C 0.6972 0.95263 0.0236 0.0
C2455 C 0.67825 0.9298 1.01511 0.0
C2456 C 0.71517 0.99796 0.02412 0.0
C2457 C 0.67923 0.95374 1.00704 0.0
C2458 C 0.69767 0.99902 1.00747 0.0
C2459 C 0.73192 0.06701 1.01673 0.0
C2460 C 0.7477 0.08854 0.02552 0.0
C2461 C 0.71526 0.0216 1.01603 0.0
C2462 C 0.74775 0.06432 0.03342 0.0
C2463 C 0.73201 0.01984 0.03273 0.0
H2464 H 0.95502 0.65077 1.01039 0.0
H2465 H 0.9518 0.71178 0.03665 0.0
H2466 H 0.03003 0.75964 0.03599 0.0
H2467 H 0.10031 0.78284 0.02834 0.0
H2468 H 0.10397 0.72374 1.00181 0.0
H2469 H 0.02542 0.67734 1.00217 0.0
C2470 C 0.9715 0.67466 1.01593 0.0
C2471 C 0.94748 0.67728 0.0236 0.0
C2472 C 1.01688 0.70269 1.01548 0.0
C2473 C 0.96936 0.70877 0.03068 0.0
C2474 C 1.01425 0.73627 0.03033 0.0
C2475 C 0.08398 0.76008 0.02259 0.0
C2476 C 0.10845 0.75692 1.01509 0.0
C2477 C 0.03848 0.73333 0.02281 0.0
C2478 C 0.08632 0.72718 1.00769 0.0
C2479 C 0.0412 0.70035 1.0079 0.0
H2480 H 0.31189 0.37884 1.0081 0.0
H2481 H 0.22776 0.31501 0.03202 0.0
H2482 H 0.26444 0.27408 0.03494 0.0
H2483 H 0.3232 0.25921 0.03137 0.0
H2484 H 0.40844 0.32342 1.0077 0.0
H2485 H 0.3686 0.36097 1.00401 0.0
C2486 C 0.30118 0.35557 1.01388 0.0
C2487 C 0.26707 0.35031 0.01985 0.0
C2488 C 0.32292 0.33232 1.01562 0.0
C2489 C 0.25396 0.32007 0.02733 0.0
C2490 C 0.275 0.29658 0.02902 0.0
C2491 C 0.33287 0.28121 0.02536 0.0
C2492 C 0.36894 0.28871 0.01986 0.0
C2493 C 0.30998 0.30294 0.02333 0.0
C2494 C 0.38093 0.3172 1.01208 0.0
C2495 C 0.35815 0.33872 1.00997 0.0
H2496 H 0.08453 0.35355 0.50465 0.0
H2497 H 0.11197 0.37023 0.53479 0.0
H2498 H 0.03535 0.33876 0.53828 0.0
H2499 H 0.96065 0.30914 0.53295 0.0
H2500 H 0.92981 0.28517 0.50314 0.0
H2501 H 1.00709 0.31638 0.49934 0.0
C2502 C 0.07357 0.34993 0.51197 0.0
C2503 C 0.10418 0.36445 0.51944 0.0
C2504 C 0.02877 0.3306 0.514 0.0
C2505 C 0.08935 0.35918 0.52889 0.0
C2506 C 0.04541 0.34132 0.53092 0.0
C2507 C 0.97081 0.31052 0.52561 0.0
C2508 C 0.93966 0.2954 0.51832 0.0
C2509 C 1.01491 0.32733 0.52355 0.0
C2510 C 0.9532 0.29673 0.50887 0.0
C2511 C 0.99743 0.31471 0.50671 0.0
H2512 H 0.6536 0.72699 0.50634 0.0
H2513 H 0.7202 0.81351 0.52977 0.0
H2514 H 0.76254 0.77813 0.53241 0.0
H2515 H 0.77758 0.71944 0.52884 0.0
H2516 H 0.71071 0.63198 0.50563 0.0
H2517 H 0.67203 0.67082 0.50213 0.0
C2518 C 0.6778 0.73852 0.51193 0.0
C2519 C 0.68337 0.77283 0.51787 0.0
C2520 C 0.70189 0.71753 0.51353 0.0
C2521 C 0.71485 0.78706 0.52511 0.0
C2522 C 0.73916 0.76677 0.52665 0.0
C2523 C 0.7548 0.70912 0.52297 0.0
C2524 C 0.74679 0.67264 0.51756 0.0
C2525 C 0.73241 0.73145 0.52103 0.0
C2526 C 0.71729 0.65979 0.50995 0.0
C2527 C 0.69512 0.68201 0.50794 0.0
H2528 H 0.24512 0.94021 0.5285 0.0
H2529 H 0.30757 0.93853 0.50232 0.0
H2530 H 0.35158 0.01736 0.50265 0.0
H2531 H 0.37561 0.0874 0.51083 0.0
H2532 H 0.31194 0.0887 0.53682 0.0
H2533 H 0.26554 1.01017 0.53606 0.0
C2534 C 0.26804 0.95702 0.52281 0.0
C2535 C 0.27291 0.933 0.51543 0.0
C2536 C 0.29349 1.00268 0.52303 0.0
C2537 C 0.30286 0.95577 0.50811 0.0
C2538 C 0.32831 1.00107 0.50831 0.0
C2539 C 0.35136 0.07047 0.51628 0.0
C2540 C 0.34764 0.09404 0.52392 0.0
C2541 C 0.32441 0.02493 0.5158 0.0
C2542 C 0.31578 0.07152 0.53089 0.0
C2543 C 0.28916 0.02646 0.53047 0.0
H2544 H 1.00079 0.4175 0.33921 0.0
H2545 H 0.05596 0.41537 0.36641 0.0
H2546 H 1.0193 0.33666 0.36589 0.0
H2547 H 0.9728 0.2672 0.35754 0.0
H2548 H 0.91523 0.26898 0.33069 0.0
H2549 H 0.95106 0.34786 0.33129 0.0
C2550 C 1.00467 0.39988 0.34505 0.0
C2551 C 0.03148 0.42301 0.35282 0.0
C2552 C 0.98296 0.35398 0.34478 0.0
C2553 C 0.03564 0.39905 0.36032 0.0
C2554 C 1.01468 0.3537 0.36004 0.0
C2555 C 0.96797 0.28487 0.35185 0.0
C2556 C 0.94147 0.26187 0.34405 0.0
C2557 C 0.98846 0.33067 0.35228 0.0
C2558 C 0.93543 0.28553 0.33678 0.0
C2559 C 0.95604 0.33087 0.3371 0.0
H2560 H 0.76576 0.71357 0.35644 0.0
H2561 H 0.76247 0.64319 0.3312 0.0
H2562 H 0.68388 0.59834 0.33246 0.0
H2563 H 0.61518 0.58044 0.34035 0.0
H2564 H 0.618 0.6498 0.36576 0.0
H2565 H 0.69685 0.69298 0.36484 0.0
C2566 C 0.74783 0.68825 0.35126 0.0
C2567 C 0.77021 0.6821 0.34369 0.0
C2568 C 0.70221 0.66222 0.35204 0.0
C2569 C 0.74631 0.6489 0.33707 0.0
C2570 C 0.70119 0.62316 0.33778 0.0
C2571 C 0.63295 0.60478 0.34574 0.0
C2572 C 0.61015 0.61168 0.3531 0.0
C2573 C 0.67864 0.62972 0.34518 0.0
C2574 C 0.63423 0.64348 0.36 0.0
C2575 C 0.67956 0.66842 0.35947 0.0
H2576 H 0.31397 0.04832 0.35699 0.0
H2577 H 0.39206 0.12823 0.33374 0.0
H2578 H 0.43634 0.09387 0.33433 0.0
H2579 H 0.45147 0.03888 0.34094 0.0
H2580 H 0.37405 0.95909 0.3643 0.0
H2581 H 0.33159 0.99546 0.36417 0.0
C2582 C 0.3409 0.05843 0.35211 0.0
C2583 C 0.34938 0.09076 0.34529 0.0
C2584 C 0.36647 0.03831 0.35246 0.0
C2585 C 0.38454 0.1034 0.33904 0.0
C2586 C 0.40995 0.08366 0.33936 0.0
C2587 C 0.4255 0.02952 0.34605 0.0
C2588 C 0.41618 0.99596 0.3526 0.0
C2589 C 0.40097 0.0507 0.34595 0.0
C2590 C 0.38228 0.98468 0.35916 0.0
C2591 C 0.35776 1.00548 0.35909 0.0
H2592 H 0.21689 0.41537 0.09026 0.0
H2593 H 0.15604 0.28114 0.08182 0.0
H2594 H 0.14605 0.25914 0.09852 0.0
H2595 H 0.15064 0.27769 0.11552 0.0
H2596 H 0.21266 0.41202 0.12393 0.0
H2597 H 0.22634 0.43415 0.10726 0.0
C2598 C 0.20219 0.38132 0.09205 0.0
C2599 C 0.18706 0.35001 0.08474 0.0
C2600 C 0.19643 0.36882 0.10169 0.0
C2601 C 0.16745 0.30599 0.08726 0.0
C2602 C 0.16184 0.29334 0.09683 0.0
C2603 C 0.16787 0.31185 0.11374 0.0
C2604 C 0.18029 0.34306 0.12102 0.0
C2605 C 0.17561 0.32443 0.1041 0.0
C2606 C 0.20205 0.38718 0.1185 0.0
C2607 C 0.21007 0.39992 0.10896 0.0
H2608 H 0.62207 0.84951 0.08735 0.0
H2609 H 0.75001 0.87714 0.07911 0.0
H2610 H 0.77332 0.89099 0.09568 0.0
H2611 H 0.75554 0.88806 0.11266 0.0
H2612 H 0.62677 0.85695 0.12101 0.0
H2613 H 0.60546 0.85074 0.10428 0.0
C2614 C 0.6551 0.85859 0.08916 0.0
C2615 C 0.68406 0.86193 0.08193 0.0
C2616 C 0.66803 0.86533 0.09876 0.0
C2617 C 0.72701 0.87473 0.08444 0.0
C2618 C 0.74031 0.88225 0.09396 0.0
C2619 C 0.72305 0.88076 0.11083 0.0
C2620 C 0.69276 0.87283 0.1181 0.0
C2621 C 0.71086 0.87671 0.10119 0.0
C2622 C 0.65059 0.86273 0.11557 0.0
C2623 C 0.63842 0.85928 0.106 0.0
H2624 H 0.20354 0.82004 0.11793 0.0
H2625 H 0.13661 0.89223 0.11573 0.0
H2626 H 0.13469 0.88525 0.09843 0.0
H2627 H 0.15623 0.86282 0.0838 0.0
H2628 H 0.22509 0.79251 0.08602 0.0
H2629 H 0.22167 0.7943 0.10334 0.0
C2630 C 0.18844 0.83416 0.11367 0.0
C2631 C 0.17038 0.85675 0.11817 0.0
C2632 C 0.18784 0.83044 0.10368 0.0
C2633 C 0.15035 0.87424 0.11251 0.0
C2634 C 0.14954 0.87057 0.10258 0.0
C2635 C 0.17038 0.84777 0.08807 0.0
C2636 C 0.19095 0.82763 0.08355 0.0
C2637 C 0.1688 0.84937 0.09808 0.0
C2638 C 0.20854 0.80776 0.08924 0.0
C2639 C 0.20695 0.80909 0.09918 0.0
H2640 H 0.30887 0.14274 0.45145 0.0
H2641 H 0.42652 0.26679 0.44963 0.0
H2642 H 0.41825 0.26687 0.4324 0.0
H2643 H 0.37875 0.23066 0.41765 0.0
H2644 H 0.25971 0.10819 0.41967 0.0
H2645 H 0.26692 0.10926 0.43695 0.0
C2646 C 0.33236 0.1703 0.44736 0.0
C2647 C 0.36855 0.20449 0.45195 0.0
C2648 C 0.32716 0.1705 0.43741 0.0
C2649 C 0.3988 0.23946 0.44637 0.0
C2650 C 0.39399 0.23971 0.43647 0.0
C2651 C 0.35435 0.2043 0.42188 0.0
C2652 C 0.3187 0.16943 0.41733 0.0
C2653 C 0.35859 0.20514 0.43189 0.0
C2654 C 0.2872 0.13572 0.42296 0.0
C2655 C 0.29143 0.13615 0.43286 0.0
H2656 H 0.90725 0.22647 0.41755 0.0
H2657 H 0.79536 0.09823 0.41589 0.0
H2658 H 0.78546 0.09825 0.43313 0.0
H2659 H 0.80753 0.13558 0.44864 0.0
H2660 H 0.91784 0.2652 0.44998 0.0
H2661 H 0.92966 0.26331 0.43297 0.0
C2662 C 0.88039 0.19866 0.42093 0.0
C2663 C 0.85183 0.16258 0.41539 0.0
C2664 C 0.87482 0.19894 0.43083 0.0
C2665 C 0.81791 0.1264 0.41997 0.0
C2666 C 0.81217 0.12643 0.42983 0.0
C2667 C 0.83412 0.16351 0.44522 0.0
C2668 C 0.86174 0.20045 0.45068 0.0
C2669 C 0.84029 0.16265 0.43533 0.0
C2670 C 0.89644 0.23596 0.44608 0.0
C2671 C 0.903 0.23515 0.4363 0.0
H2672 H 0.88619 0.73993 0.41845 0.0
H2673 H 0.84976 0.60887 0.41079 0.0
H2674 H 0.84046 0.58847 0.4276 0.0
H2675 H 0.83816 0.60673 0.44439 0.0
H2676 H 0.87218 0.73729 0.45194 0.0
H2677 H 0.88841 0.75926 0.43532 0.0
C2678 C 0.87707 0.7071 0.42045 0.0
C2679 C 0.86848 0.67594 0.41334 0.0
C2680 C 0.87138 0.69548 0.43014 0.0
C2681 C 0.85604 0.63338 0.4161 0.0
C2682 C 0.85083 0.62172 0.42572 0.0
C2683 C 0.84919 0.64003 0.44241 0.0
C2684 C 0.85361 0.67017 0.44945 0.0
C2685 C 0.85755 0.65228 0.43278 0.0
C2686 C 0.86885 0.7134 0.44674 0.0
C2687 C 0.87777 0.72595 0.4372 0.0
H2688 H 0.86796 0.64153 0.91637 0.0
H2689 H 0.86838 0.76229 0.91894 0.0
H2690 H 0.85922 0.75245 0.93613 0.0
H2691 H 0.85373 0.71083 0.95063 0.0
H2692 H 0.85111 0.58914 0.94792 0.0
H2693 H 0.85736 0.59764 0.93066 0.0
C2694 C 0.86522 0.66537 0.92064 0.0
C2695 C 0.86936 0.70287 0.91628 0.0
C2696 C 0.85953 0.65937 0.93056 0.0
C2697 C 0.86626 0.73353 0.92204 0.0
C2698 C 0.86078 0.72785 0.93191 0.0
C2699 C 0.8544 0.68614 0.94625 0.0
C2700 C 0.85193 0.6494 0.9506 0.0
C2701 C 0.858 0.6912 0.93627 0.0
C2702 C 0.85243 0.61751 0.94479 0.0
C2703 C 0.85629 0.62246 0.9349 0.0
H2704 H 0.30974 0.21793 0.91975 0.0
H2705 H 0.36305 0.13557 0.91373 0.0
H2706 H 0.37754 0.13335 0.93072 0.0
H2707 H 0.37797 0.15776 0.94728 0.0
H2708 H 0.32505 0.24097 0.95293 0.0
H2709 H 0.3074 0.23965 0.93616 0.0
C2710 C 0.32466 0.19957 0.92214 0.0
C2711 C 0.33573 0.17735 0.91545 0.0
C2712 C 0.33293 0.19853 0.93189 0.0
C2713 C 0.35412 0.1529 0.91872 0.0
C2714 C 0.3626 0.15181 0.92844 0.0
C2715 C 0.3625 0.17552 0.94484 0.0
C2716 C 0.35276 0.19929 0.95143 0.0
C2717 C 0.35261 0.17494 0.93509 0.0
C2718 C 0.3323 0.22176 0.94811 0.0
C2719 C 0.32249 0.22137 0.93848 0.0
H2720 H 0.89655 0.15206 0.92249 0.0
H2721 H 0.82711 0.21725 0.91443 0.0
H2722 H 0.81538 0.22659 0.93119 0.0
H2723 H 0.82045 0.21174 0.94811 0.0
H2724 H 0.89073 0.14736 0.95612 0.0
H2725 H 0.90678 0.14259 0.93942 0.0
C2726 C 0.87964 0.16914 0.92438 0.0
C2727 C 0.86256 0.1837 0.91716 0.0
C2728 C 0.87282 0.17425 0.93404 0.0
C2729 C 0.8401 0.20513 0.91981 0.0
C2730 C 0.83347 0.21061 0.9294 0.0
C2731 C 0.84 0.19742 0.94623 0.0
C2732 C 0.85403 0.17963 0.9534 0.0
C2733 C 0.84902 0.19463 0.93658 0.0
C2734 C 0.87886 0.16068 0.95077 0.0
C2735 C 0.88821 0.15807 0.94121 0.0
H2736 H 0.65814 0.79653 0.58819 0.0
H2737 H 0.70088 0.9316 0.58342 0.0
H2738 H 0.71517 0.94636 0.60035 0.0
H2739 H 0.71335 0.92105 0.61661 0.0
H2740 H 0.67104 0.78654 0.62174 0.0
H2741 H 0.65894 0.77149 0.60463 0.0
C2742 C 0.67066 0.82918 0.59086 0.0
C2743 C 0.67861 0.86291 0.58448 0.0
C2744 C 0.67875 0.83757 0.60069 0.0
C2745 C 0.69515 0.9051 0.58809 0.0
C2746 C 0.70303 0.91358 0.59781 0.0
C2747 C 0.70129 0.88836 0.61399 0.0
C2748 C 0.69263 0.85487 0.62046 0.0
C2749 C 0.69459 0.88006 0.60418 0.0
C2750 C 0.67798 0.81291 0.61692 0.0
C2751 C 0.67091 0.80428 0.60714 0.0
H2752 H 0.21487 0.82585 0.5876 0.0
H2753 H 0.15216 0.89825 0.58004 0.0
H2754 H 0.14186 0.90782 0.59688 0.0
H2755 H 0.14639 0.89154 0.61372 0.0
H2756 H 0.20953 0.8195 0.62125 0.0
H2757 H 0.22416 0.8142 0.60447 0.0
C2758 C 0.19973 0.8445 0.58962 0.0
C2759 C 0.18419 0.86115 0.58252 0.0
C2760 C 0.19366 0.84966 0.59933 0.0
C2761 C 0.16397 0.88458 0.58532 0.0
C2762 C 0.15816 0.89018 0.59496 0.0
C2763 C 0.16407 0.87538 0.61172 0.0
C2764 C 0.17658 0.85573 0.61877 0.0
C2765 C 0.17223 0.87225 0.60203 0.0
C2766 C 0.19892 0.83437 0.61599 0.0
C2767 C 0.20745 0.83145 0.60638 0.0
H2768 H 0.15082 0.31037 0.58387 0.0
H2769 H 0.2633 0.43679 0.58785 0.0
H2770 H 0.25976 0.42505 0.60501 0.0
H2771 H 0.22735 0.3774 0.61888 0.0
H2772 H 0.1139 0.25145 0.61499 0.0
H2773 H 0.1157 0.26433 0.59791 0.0
C2774 C 0.17452 0.33537 0.58849 0.0
C2775 C 0.20726 0.37445 0.58451 0.0
C2776 C 0.17241 0.32838 0.59842 0.0
C2777 C 0.23739 0.40663 0.59067 0.0
C2778 C 0.23558 0.39983 0.60051 0.0
C2779 C 0.20251 0.35299 0.61435 0.0
C2780 C 0.1708 0.31326 0.61831 0.0
C2781 C 0.20349 0.36068 0.60447 0.0
C2782 C 0.13929 0.28199 0.6122 0.0
C2783 C 0.14012 0.28939 0.60239 0.0
H2784 H 0.99075 0.53175 0.75359 0.0
H2785 H 0.0275 0.43498 0.74885 0.0
H2786 H 0.04692 0.43822 0.76557 0.0
H2787 H 0.05283 0.46747 0.78164 0.0
H2788 H 1.01665 0.5643 0.78668 0.0
H2789 H 0.99787 0.56215 0.76983 0.0
C2790 C 1.00295 0.51134 0.75622 0.0
C2791 C 1.00786 0.48337 0.74988 0.0
C2792 C 1.01416 0.51329 0.76594 0.0
C2793 C 0.02405 0.45741 0.75346 0.0
C2794 C 0.0349 0.45897 0.76307 0.0
C2795 C 0.0405 0.48789 0.77908 0.0
C2796 C 0.03586 0.51575 0.78548 0.0
C2797 C 0.02996 0.48663 0.76938 0.0
C2798 C 0.02074 0.54266 0.78194 0.0
C2799 C 1.00983 0.54132 0.7723 0.0
H2800 H 0.55221 0.47935 0.75142 0.0
H2801 H 0.47489 0.53838 0.74533 0.0
H2802 H 0.46669 0.54629 0.76235 0.0
H2803 H 0.48533 0.5407 0.77896 0.0
H2804 H 0.56169 0.48059 0.78503 0.0
H2805 H 0.56605 0.46862 0.76805 0.0
C2806 C 0.5328 0.49315 0.7538 0.0
C2807 C 0.51441 0.50844 0.74704 0.0
C2808 C 0.5283 0.49776 0.76362 0.0
C2809 C 0.48998 0.5269 0.75032 0.0
C2810 C 0.48514 0.53131 0.76007 0.0
C2811 C 0.50225 0.52424 0.7766 0.0
C2812 C 0.52342 0.5119 0.78331 0.0
C2813 C 0.50474 0.5175 0.76679 0.0
C2814 C 0.54568 0.49113 0.78005 0.0
C2815 C 0.54806 0.48409 0.77033 0.0
H2816 H 0.44496 0.94812 0.74873 0.0
H2817 H 0.56704 0.06795 0.75072 0.0
H2818 H 0.56856 0.05819 0.76784 0.0
H2819 H 0.53378 0.0179 0.78237 0.0
H2820 H 0.4106 0.89948 0.78068 0.0
H2821 H 0.41042 0.90707 0.76335 0.0
C2822 C 0.47186 0.97217 0.7529 0.0
C2823 C 0.50591 1.00865 0.74838 0.0
C2824 C 0.47214 0.96688 0.76282 0.0
C2825 C 0.54077 0.03913 0.75392 0.0
C2826 C 0.54149 0.03383 0.76375 0.0
C2827 C 0.50714 0.9934 0.7782 0.0
C2828 C 0.47235 0.95804 0.7828 0.0
C2829 C 0.50721 0.99807 0.76828 0.0
C2830 C 0.43763 0.92713 0.77731 0.0
C2831 C 0.43762 0.93137 0.76741 0.0
H2832 H 0.49514 0.96919 0.24987 0.0
H2833 H 0.57545 0.10826 0.25148 0.0
H2834 H 0.57144 0.10486 0.26881 0.0
H2835 H 0.5484 0.06224 0.28362 0.0
H2836 H 0.47031 0.92296 0.28201 0.0
H2837 H 0.47008 0.92677 0.26468 0.0
C2838 C 0.51181 0.99879 0.254 0.0
C2839 C 0.53561 0.03892 0.24929 0.0
C2840 C 0.50985 0.99661 0.26402 0.0
C2841 C 0.55638 0.07693 0.25483 0.0
C2842 C 0.55442 0.07501 0.26478 0.0
C2843 C 0.53134 0.03268 0.27949 0.0
C2844 C 0.50946 0.99237 0.2842 0.0
C2845 C 0.53174 0.035 0.26947 0.0
C2846 C 0.48697 0.95452 0.27866 0.0
C2847 C 0.48711 0.95662 0.26871 0.0
H2848 H 0.08325 0.55012 0.28191 0.0
H2849 H 0.94976 0.47084 0.29045 0.0
H2850 H 0.92748 0.45764 0.27378 0.0
H2851 H 0.94549 0.4704 0.2567 0.0
H2852 H 0.07904 0.55018 0.24823 0.0
H2853 H 0.10156 0.56018 0.26487 0.0
C2854 C 0.04933 0.52935 0.28015 0.0
C2855 C 1.0183 0.51175 0.2875 0.0
C2856 C 0.03665 0.52182 0.27051 0.0
C2857 C 0.9744 0.48544 0.28499 0.0
C2858 C 0.9616 0.47768 0.27544 0.0
C2859 C 0.97954 0.49002 0.25848 0.0
C2860 C 1.01041 0.50945 0.25115 0.0
C2861 C 0.99236 0.49614 0.26812 0.0
C2862 C 0.05447 0.53424 0.25365 0.0
C2863 C 0.06742 0.54032 0.2632 0.0
H2864 H 0.5113 0.54142 0.25178 0.0
H2865 H 0.58282 0.47379 0.25395 0.0
H2866 H 0.58349 0.47962 0.27126 0.0
H2867 H 0.55989 0.49985 0.2859 0.0
H2868 H 0.48661 0.56569 0.28372 0.0
H2869 H 0.49083 0.56487 0.2664 0.0
C2870 C 0.52712 0.52803 0.25603 0.0
C2871 C 0.54689 0.50711 0.25152 0.0
C2872 C 0.52703 0.53109 0.26603 0.0
C2873 C 0.56778 0.49054 0.25718 0.0
C2874 C 0.56789 0.49354 0.26711 0.0
C2875 C 0.54492 0.51411 0.28164 0.0
C2876 C 0.5229 0.53272 0.28616 0.0
C2877 C 0.54704 0.51313 0.27163 0.0
C2878 C 0.50426 0.55161 0.28049 0.0
C2879 C 0.50633 0.55085 0.27055 0.0
H2880 H 0.95434 0.16121 0.27717 0.0
H2881 H 0.07216 0.18904 0.29167 0.0
H2882 H 0.111 0.20793 0.27653 0.0
H2883 H 0.11154 0.21586 0.25916 0.0
H2884 H 0.99359 0.18718 0.2446 0.0
H2885 H 0.95525 0.17057 0.25979 0.0
C2886 C 0.98864 0.17194 0.27704 0.0
C2887 C 1.01017 0.17352 0.28558 0.0
C2888 C 1.01088 0.18279 0.26829 0.0
C2889 C 0.05455 0.18691 0.28522 0.0
C2890 C 0.07688 0.19794 0.27656 0.0
C2891 C 0.07736 0.20568 0.25928 0.0
C2892 C 0.05557 0.2027 0.2507 0.0
C2893 C 0.05532 0.19568 0.26805 0.0
C2894 C 1.01143 0.19027 0.25107 0.0
C2895 C 0.98934 0.18046 0.25976 0.0
H2896 H 0.9196 0.83039 0.27559 0.0
H2897 H 0.80559 0.82409 0.28777 0.0
H2898 H 0.78395 0.83591 0.27205 0.0
H2899 H 0.79885 0.85099 0.2549 0.0
H2900 H 0.91306 0.85726 0.24281 0.0
H2901 H 0.93344 0.84344 0.25844 0.0
C2902 C 0.89014 0.83189 0.27484 0.0
C2903 C 0.86443 0.82651 0.28292 0.0
C2904 C 0.878 0.839 0.26577 0.0
C2905 C 0.82589 0.82769 0.28171 0.0
C2906 C 0.81359 0.83472 0.27271 0.0
C2907 C 0.82792 0.84878 0.25564 0.0
C2908 C 0.85443 0.85546 0.24763 0.0
C2909 C 0.83951 0.84067 0.26469 0.0
C2910 C 0.8923 0.853 0.24883 0.0
C2911 C 0.90392 0.84486 0.25777 0.0
H2912 H 0.19517 0.08302 0.27723 0.0
H2913 H 0.21122 0.98072 0.28924 0.0
H2914 H 0.19943 0.94675 0.27357 0.0
H2915 H 0.18174 0.94452 0.25649 0.0
H2916 H 0.16569 0.04712 0.24462 0.0
H2917 H 0.17939 0.08183 0.26018 0.0
C2918 C 0.19579 0.05311 0.27646 0.0
C2919 C 0.20391 0.03447 0.28448 0.0
C2920 C 0.18868 0.03354 0.26742 0.0
C2921 C 0.20546 0.99613 0.28323 0.0
C2922 C 0.19845 0.9765 0.27425 0.0
C2923 C 0.18175 0.97474 0.25727 0.0
C2924 C 0.17233 0.99287 0.24933 0.0
C2925 C 0.18979 0.99477 0.2663 0.0
C2926 C 0.17205 0.03188 0.25058 0.0
C2927 C 0.18013 0.05196 0.25949 0.0
H2928 H 0.9462 0.80797 0.77637 0.0
H2929 H 0.06995 0.86821 0.79068 0.0
H2930 H 0.10703 0.88628 0.77535 0.0
H2931 H 0.10475 0.88575 0.75784 0.0
H2932 H 0.98106 0.82304 0.74351 0.0
H2933 H 0.94391 0.80538 0.75884 0.0
C2934 C 0.98128 0.82459 0.77617 0.0
C2935 C 1.00503 0.83674 0.78476 0.0
C2936 C 1.0026 0.8347 0.76728 0.0
C2937 C 0.05059 0.85896 0.78425 0.0
C2938 C 0.07193 0.86913 0.77546 0.0
C2939 C 0.06966 0.86774 0.75804 0.0
C2940 C 0.04597 0.85593 0.74943 0.0
C2941 C 0.04832 0.85726 0.76692 0.0
C2942 C 1.0004 0.83327 0.74994 0.0
C2943 C 0.97901 0.82284 0.75873 0.0
H2944 H 0.16311 0.22935 0.75826 0.0
H2945 H 0.19222 0.14238 0.74285 0.0
H2946 H 0.20868 0.1187 0.75778 0.0
H2947 H 0.21511 0.12265 0.77526 0.0
H2948 H 0.18616 0.20982 0.79063 0.0
H2949 H 0.17068 0.23417 0.77569 0.0
C2950 C 0.17358 0.20562 0.75813 0.0
C2951 C 0.17622 0.18771 0.74937 0.0
C2952 C 0.18333 0.19226 0.76677 0.0
C2953 C 0.18919 0.15638 0.74944 0.0
C2954 C 0.1989 0.14295 0.75799 0.0
C2955 C 0.20514 0.14677 0.77536 0.0
C2956 C 0.20196 0.16433 0.78412 0.0
C2957 C 0.19592 0.16051 0.76671 0.0
C2958 C 0.18958 0.19608 0.78404 0.0
C2959 C 0.18038 0.20987 0.77548 0.0
H2960 H 0.92285 0.07678 0.77918 0.0
H2961 H 0.79981 0.97962 0.79062 0.0
H2962 H 0.77887 0.94456 0.77504 0.0
H2963 H 0.79568 0.94082 0.75812 0.0
H2964 H 0.91937 0.03751 0.74684 0.0
H2965 H 0.93965 0.07305 0.76235 0.0
C2966 C 0.89157 0.0477 0.77831 0.0
C2967 C 0.86309 0.03096 0.78615 0.0
C2968 C 0.87972 0.02752 0.76931 0.0
C2969 C 0.82234 0.99366 0.78476 0.0
C2970 C 0.81039 0.97337 0.77583 0.0
C2971 C 0.82719 0.96952 0.75905 0.0
C2972 C 0.85582 0.98637 0.75124 0.0
C2973 C 0.83884 0.98991 0.76805 0.0
C2974 C 0.89629 0.02402 0.75263 0.0
C2975 C 0.9081 0.0443 0.76154 0.0
H2976 H 0.6776 0.46352 0.61383 0.0
H2977 H 0.64159 0.56223 0.61493 0.0
H2978 H 0.66734 0.58373 0.59863 0.0
H2979 H 0.69787 0.57286 0.58377 0.0
H2980 H 0.73231 0.473 0.58275 0.0
H2981 H 0.70829 0.453 0.59915 0.0
C2982 C 0.67499 0.48953 0.6105 0.0
C2983 C 0.65747 0.51105 0.61568 0.0
C2984 C 0.6892 0.50131 0.60106 0.0
C2985 C 0.65538 0.54533 0.61124 0.0
C2986 C 0.6698 0.55746 0.60186 0.0
C2987 C 0.70035 0.54689 0.58715 0.0
C2988 C 0.71656 0.52426 0.58194 0.0
C2989 C 0.68653 0.53551 0.59666 0.0
C2990 C 0.7192 0.49047 0.58647 0.0
C2991 C 0.70576 0.47918 0.5959 0.0
H2992 H 0.48229 0.12953 0.61616 0.0
H2993 H 0.61766 0.22761 0.61549 0.0
H2994 H 0.60994 0.24579 0.59917 0.0
H2995 H 0.56505 0.23453 0.58508 0.0
H2996 H 0.42941 0.13741 0.58563 0.0
H2997 H 0.43736 0.11737 0.60183 0.0
C2998 C 0.51017 0.15466 0.61242 0.0
C2999 C 0.55041 0.17743 0.61714 0.0
C3000 C 0.5056 0.16497 0.60296 0.0
C3001 C 0.58607 0.21011 0.61216 0.0
C3002 C 0.5818 0.22036 0.60277 0.0
C3003 C 0.53707 0.20915 0.58874 0.0
C3004 C 0.49663 0.18772 0.58409 0.0
C3005 C 0.54169 0.19822 0.59812 0.0
C3006 C 0.46107 0.15424 0.58894 0.0
C3007 C 0.4655 0.14296 0.59826 0.0
H3008 H 0.92599 0.41519 0.61059 0.0
H3009 H 0.80513 0.31767 0.62287 0.0
H3010 H 0.78308 0.28064 0.60755 0.0
H3011 H 0.79719 0.27627 0.59054 0.0
H3012 H 0.91677 0.37535 0.5781 0.0
H3013 H 0.93991 0.41106 0.59355 0.0
C3014 C 0.89467 0.386 0.60993 0.0
C3015 C 0.86743 0.36945 0.61798 0.0
C3016 C 0.88181 0.36495 0.60102 0.0
C3017 C 0.82726 0.33104 0.61692 0.0
C3018 C 0.81438 0.30991 0.60811 0.0
C3019 C 0.82818 0.3059 0.59116 0.0
C3020 C 0.85505 0.32288 0.58307 0.0
C3021 C 0.84126 0.32666 0.60009 0.0
C3022 C 0.89547 0.36096 0.58415 0.0
C3023 C 0.90869 0.38167 0.59301 0.0
H3024 H 0.6898 0.15836 0.08371 0.0
H3025 H 0.7671 0.29634 0.08829 0.0
H3026 H 0.74014 0.28749 0.10454 0.0
H3027 H 0.69469 0.24083 0.11755 0.0
H3028 H 0.61783 0.10281 0.11312 0.0
H3029 H 0.64542 0.11139 0.09687 0.0
C3030 C 0.70112 0.18648 0.08828 0.0
C3031 C 0.73025 0.22802 0.08468 0.0
C3032 C 0.68574 0.18117 0.09771 0.0
C3033 C 0.74408 0.26405 0.09074 0.0
C3034 C 0.7289 0.25902 0.10009 0.0
C3035 C 0.68373 0.21261 0.11302 0.0
C3036 C 0.65412 0.17123 0.11659 0.0
C3037 C 0.69957 0.21778 0.10364 0.0
C3038 C 0.64095 0.13501 0.11063 0.0
C3039 C 0.65652 0.13991 0.1013 0.0
H3040 H 0.82545 0.44427 0.11362 0.0
H3041 H 0.93707 0.57098 0.11804 0.0
H3042 H 0.92759 0.5932 0.10221 0.0
H3043 H 0.8886 0.5763 0.08685 0.0
H3044 H 0.77742 0.44921 0.08249 0.0
H3045 H 0.78659 0.42744 0.09837 0.0
C3046 C 0.84802 0.47667 0.11112 0.0
C3047 C 0.88198 0.50579 0.11712 0.0
C3048 C 0.84271 0.48918 0.10192 0.0
C3049 C 0.91024 0.54791 0.11372 0.0
C3050 C 0.90505 0.56061 0.1046 0.0
C3051 C 0.86618 0.54392 0.08938 0.0
C3052 C 0.83252 0.51445 0.08337 0.0
C3053 C 0.87146 0.53151 0.09861 0.0
C3054 C 0.80415 0.47246 0.08682 0.0
C3055 C 0.80914 0.46 0.09596 0.0
H3056 H 0.58199 0.36742 0.11577 0.0
H3057 H 0.47375 0.38923 0.11783 0.0
H3058 H 0.45192 0.36221 0.10162 0.0
H3059 H 0.4646 0.33421 0.08655 0.0
H3060 H 0.57378 0.31385 0.08457 0.0
H3061 H 0.59454 0.33949 0.10085 0.0
C3062 C 0.5538 0.3667 0.11268 0.0
C3063 C 0.52972 0.38056 0.11814 0.0
C3064 C 0.54169 0.35169 0.10326 0.0
C3065 C 0.49275 0.37832 0.11395 0.0
C3066 C 0.48037 0.36315 0.10461 0.0
C3067 C 0.4928 0.33513 0.08969 0.0
C3068 C 0.51771 0.32236 0.08421 0.0
C3069 C 0.50467 0.3499 0.09916 0.0
C3070 C 0.55436 0.32421 0.08846 0.0
C3071 C 0.56615 0.3386 0.09784 0.0
H3072 H 0.45115 0.90165 0.92488 0.0
H3073 H 0.32712 0.84387 0.91075 0.0
H3074 H 0.29057 0.82869 0.92614 0.0
H3075 H 0.29346 0.82953 0.94365 0.0
H3076 H 0.41751 0.88722 0.95778 0.0
H3077 H 0.45411 0.90362 0.94238 0.0
C3078 C 0.4161 0.88544 0.92514 0.0
C3079 C 0.39206 0.87394 0.9166 0.0
C3080 C 0.39515 0.87645 0.93405 0.0
C3081 C 0.34663 0.85365 0.91715 0.0
C3082 C 0.32562 0.84466 0.92597 0.0
C3083 C 0.32854 0.8462 0.94338 0.0
C3084 C 0.35254 0.85698 0.95193 0.0
C3085 C 0.34951 0.85576 0.93448 0.0
C3086 C 0.39802 0.87793 0.95137 0.0
C3087 C 0.41906 0.88757 0.94255 0.0
H3088 H 0.23976 0.48858 0.94565 0.0
H3089 H 0.13217 0.49475 0.95792 0.0
H3090 H 0.11143 0.50701 0.94215 0.0
H3091 H 0.12544 0.51883 0.92489 0.0
H3092 H 0.23304 0.51225 0.9127 0.0
H3093 H 0.25253 0.4983 0.92841 0.0
C3094 C 0.21192 0.49289 0.94491 0.0
C3095 C 0.18776 0.4909 0.95303 0.0
C3096 C 0.20028 0.5002 0.9358 0.0
C3097 C 0.15124 0.49571 0.95183 0.0
C3098 C 0.13947 0.50299 0.9428 0.0
C3099 C 0.15283 0.5138 0.92563 0.0
C3100 C 0.17781 0.51694 0.91755 0.0
C3101 C 0.16387 0.50554 0.93472 0.0
C3102 C 0.21355 0.51082 0.91875 0.0
C3103 C 0.22464 0.50257 0.92775 0.0
H3104 H 0.45764 0.63911 0.91966 0.0
H3105 H 0.58374 0.65386 0.91482 0.0
H3106 H 0.60571 0.68203 0.93096 0.0
H3107 H 0.5889 0.70178 0.94662 0.0
H3108 H 0.4625 0.68669 0.9513 0.0
H3109 H 0.44078 0.65842 0.93521 0.0
C3110 C 0.48982 0.64801 0.92214 0.0
C3111 C 0.51887 0.64416 0.91595 0.0
C3112 C 0.5022 0.66391 0.93148 0.0
C3113 C 0.56074 0.65684 0.91932 0.0
C3114 C 0.57329 0.67274 0.9286 0.0
C3115 C 0.55665 0.69249 0.94412 0.0
C3116 C 0.52737 0.69616 0.95028 0.0
C3117 C 0.5443 0.67644 0.93476 0.0
C3118 C 0.48557 0.68351 0.94686 0.0
C3119 C 0.47316 0.66761 0.9376 0.0
H3120 H 0.31814 0.55314 0.44796 0.0
H3121 H 0.32879 0.43945 0.45283 0.0
H3122 H 0.35942 0.44649 0.43693 0.0
H3123 H 0.38187 0.48403 0.42141 0.0
H3124 H 0.37026 0.59725 0.41664 0.0
H3125 H 0.34033 0.59042 0.43255 0.0
C3126 C 0.32673 0.52957 0.44554 0.0
C3127 C 0.32097 0.49576 0.45167 0.0
C3128 C 0.34389 0.53347 0.43632 0.0
C3129 C 0.33328 0.46619 0.44839 0.0
C3130 C 0.35055 0.46999 0.43924 0.0
C3131 C 0.37302 0.50737 0.42386 0.0
C3132 C 0.37813 0.54093 0.41772 0.0
C3133 C 0.35593 0.50344 0.43312 0.0
C3134 C 0.36601 0.57056 0.42106 0.0
C3135 C 0.34916 0.56691 0.43023 0.0
H3136 H 0.44806 0.81555 0.42109 0.0
H3137 H 0.56683 0.937 0.4172 0.0
H3138 H 0.58944 0.93219 0.43335 0.0
H3139 H 0.57541 0.89365 0.44873 0.0
H3140 H 0.45625 0.77238 0.45248 0.0
H3141 H 0.43367 0.7777 0.43641 0.0
C3142 C 0.47869 0.84133 0.42378 0.0
C3143 C 0.50557 0.87663 0.41784 0.0
C3144 C 0.49143 0.83855 0.43314 0.0
C3145 C 0.54557 0.90913 0.42149 0.0
C3146 C 0.55847 0.90654 0.43078 0.0
C3147 C 0.54457 0.86828 0.44603 0.0
C3148 C 0.51755 0.83279 0.45193 0.0
C3149 C 0.53172 0.87135 0.43668 0.0
C3150 C 0.47749 0.80051 0.44825 0.0
C3151 C 0.46462 0.80333 0.439 0.0
H3152 H 0.25059 0.7269 0.4472 0.0
H3153 H 0.1176 0.64932 0.45622 0.0
H3154 H 0.09791 0.61493 0.44055 0.0
H3155 H 0.11885 0.60539 0.42434 0.0
H3156 H 0.25224 0.68269 0.41556 0.0
H3157 H 0.27135 0.71789 0.4311 0.0
C3158 C 0.21734 0.70214 0.4458 0.0
C3159 C 0.18573 0.69071 0.45295 0.0
C3160 C 0.20627 0.68221 0.43679 0.0
C3161 C 0.14262 0.65917 0.45087 0.0
C3162 C 0.13134 0.63927 0.4419 0.0
C3163 C 0.15202 0.63022 0.4258 0.0
C3164 C 0.18406 0.6411 0.41877 0.0
C3165 C 0.16291 0.65045 0.43481 0.0
C3166 C 0.22698 0.6731 0.42085 0.0
C3167 C 0.23795 0.69345 0.42974 0.0
loop_
_geom_bond_atom_site_label_1
_geom_bond_atom_site_label_2
_geom_bond_distance
_geom_bond_site_symmetry_2
_ccdc_geom_bond_type
Ho0 C3 2.811 . S
Ho0 O20 2.322 . S
Ho0 O22 2.378 . S
Ho0 O23 2.524 . S
Ho0 O24 2.381 . S
Ho0 O25 2.669 . S
Ho0 O27 2.346 . S
Ho0 O31 2.305 . S
Ho1 C12 2.811 . S
Ho1 O21 2.346 . S
Ho1 O25 2.305 . S
Ho1 O26 2.322 . S
Ho1 O28 2.378 . S
Ho1 O29 2.524 . S
Ho1 O30 2.381 . S
Ho1 O31 2.669 . S
C2 O20 1.259 . S
C2 O21 1.268 . S
C3 Ho0 2.811 . S
C3 C4 1.488 . S
C3 O22 1.215 . S
C3 O23 1.289 . S
C4 C3 1.488 . S
C4 C5 1.348 . S
C4 C9 1.413 . S
C5 C4 1.348 . S
C5 C6 1.442 . S
C5 H32 0.930 . S
C6 C5 1.442 . S
C6 C7 1.381 . S
C6 H33 0.931 . S
C7 C6 1.381 . S
C7 C8 1.321 . S
C8 C7 1.321 . S
C8 C9 1.403 . S
C8 H34 0.934 . S
C9 C4 1.413 . S
C9 C8 1.403 . S
C9 H35 0.930 . S
C10 O24 1.275 . S
C10 O25 1.256 . S
C11 O26 1.259 . S
C11 O27 1.268 . S
C12 Ho1 2.811 . S
C12 C13 1.488 . S
C12 O28 1.215 . S
C12 O29 1.289 . S
C13 C12 1.488 . S
C13 C14 1.348 . S
C13 C18 1.413 . S
C14 C13 1.348 . S
C14 C15 1.442 . S
C14 H36 0.930 . S
C15 C14 1.442 . S
C15 C16 1.381 . S
C15 H37 0.931 . S
C16 C15 1.381 . S
C16 C17 1.321 . S
C17 C16 1.321 . S
C17 C18 1.403 . S
C17 H38 0.934 . S
C18 C13 1.413 . S
C18 C17 1.403 . S
C18 H39 0.930 . S
C19 O30 1.275 . S
C19 O31 1.256 . S
O20 Ho0 2.322 . S
O20 C2 1.259 . S
O21 Ho1 2.346 . S
O21 C2 1.268 . S
O22 Ho0 2.378 . S
O22 C3 1.215 . S
O23 Ho0 2.524 . S
O23 C3 1.289 . S
O24 Ho0 2.381 . S
O24 C10 1.275 . S
O25 Ho0 2.669 . S
O25 Ho1 2.305 . S
O25 C10 1.256 . S
O26 Ho1 2.322 . S
O26 C11 1.259 . S
O27 Ho0 2.346 . S
O27 C11 1.268 . S
O28 Ho1 2.378 . S
O28 C12 1.215 . S
O29 Ho1 2.524 . S
O29 C12 1.289 . S
O30 Ho1 2.381 . S
O30 C19 1.275 . S
O31 Ho0 2.305 . S
O31 Ho1 2.669 . S
O31 C19 1.256 . S
H32 C5 0.930 . S
H33 C6 0.931 . S
H34 C8 0.934 . S
H35 C9 0.930 . S
H36 C14 0.930 . S
H37 C15 0.931 . S
H38 C17 0.934 . S
H39 C18 0.930 . S
Ho40 C43 2.811 . S
Ho40 O60 2.322 . S
Ho40 O62 2.378 . S
Ho40 O63 2.524 . S
Ho40 O64 2.381 . S
Ho40 O65 2.669 . S
Ho40 O67 2.346 . S
Ho40 O71 2.305 . S
Ho41 C52 2.811 . S
Ho41 O61 2.346 . S
Ho41 O65 2.305 . S
Ho41 O66 2.322 . S
Ho41 O68 2.378 . S
Ho41 O69 2.524 . S
Ho41 O70 2.381 . S
Ho41 O71 2.669 . S
C42 O60 1.259 . S
C42 O61 1.268 . S
C43 Ho40 2.811 . S
C43 C44 1.488 . S
C43 O62 1.215 . S
C43 O63 1.289 . S
C44 C43 1.488 . S
C44 C45 1.348 . S
C44 C49 1.413 . S
C45 C44 1.348 . S
C45 C46 1.442 . S
C45 H72 0.930 . S
C46 C45 1.442 . S
C46 C47 1.381 . S
C46 H73 0.931 . S
C47 C46 1.381 . S
C47 C48 1.321 . S
C48 C47 1.321 . S
C48 C49 1.403 . S
C48 H74 0.934 . S
C49 C44 1.413 . S
C49 C48 1.403 . S
C49 H75 0.930 . S
C50 O64 1.275 . S
C50 O65 1.256 . S
C51 O66 1.259 . S
C51 O67 1.268 . S
C52 Ho41 2.811 . S
C52 C53 1.488 . S
C52 O68 1.215 . S
C52 O69 1.289 . S
C53 C52 1.488 . S
C53 C54 1.348 . S
C53 C58 1.413 . S
C54 C53 1.348 . S
C54 C55 1.442 . S
C54 H76 0.930 . S
C55 C54 1.442 . S
C55 C56 1.381 . S
C55 H77 0.931 . S
C56 C55 1.381 . S
C56 C57 1.321 . S
C57 C56 1.321 . S
C57 C58 1.403 . S
C57 H78 0.934 . S
C58 C53 1.413 . S
C58 C57 1.403 . S
C58 H79 0.930 . S
C59 O70 1.275 . S
C59 O71 1.256 . S
O60 Ho40 2.322 . S
O60 C42 1.259 . S
O61 Ho41 2.346 . S
O61 C42 1.268 . S
O62 Ho40 2.378 . S
O62 C43 1.215 . S
O63 Ho40 2.524 . S
O63 C43 1.289 . S
O64 Ho40 2.381 . S
O64 C50 1.275 . S
O65 Ho40 2.669 . S
O65 Ho41 2.305 . S
O65 C50 1.256 . S
O66 Ho41 2.322 . S
O66 C51 1.259 . S
O67 Ho40 2.346 . S
O67 C51 1.268 . S
O68 Ho41 2.378 . S
O68 C52 1.215 . S
O69 Ho41 2.524 . S
O69 C52 1.289 . S
O70 Ho41 2.381 . S
O70 C59 1.275 . S
O71 Ho40 2.305 . S
O71 Ho41 2.669 . S
O71 C59 1.256 . S
H72 C45 0.930 . S
H73 C46 0.931 . S
H74 C48 0.934 . S
H75 C49 0.930 . S
H76 C54 0.930 . S
H77 C55 0.931 . S
H78 C57 0.934 . S
H79 C58 0.930 . S
Ho80 C83 2.811 . S
Ho80 O100 2.322 . S
Ho80 O102 2.378 . S
Ho80 O103 2.524 . S
Ho80 O104 2.381 . S
Ho80 O105 2.669 . S
Ho80 O107 2.346 . S
Ho80 O111 2.305 . S
Ho81 C92 2.811 . S
Ho81 O101 2.346 . S
Ho81 O105 2.305 . S
Ho81 O106 2.322 . S
Ho81 O108 2.378 . S
Ho81 O109 2.524 . S
Ho81 O110 2.381 . S
Ho81 O111 2.669 . S
C82 O100 1.259 . S
C82 O101 1.268 . S
C83 Ho80 2.811 . S
C83 C84 1.488 . S
C83 O102 1.215 . S
C83 O103 1.289 . S
C84 C83 1.488 . S
C84 C85 1.348 . S
C84 C89 1.413 . S
C85 C84 1.348 . S
C85 C86 1.442 . S
C85 H112 0.930 . S
C86 C85 1.442 . S
C86 C87 1.381 . S
C86 H113 0.931 . S
C87 C86 1.381 . S
C87 C88 1.321 . S
C88 C87 1.321 . S
C88 C89 1.403 . S
C88 H114 0.934 . S
C89 C84 1.413 . S
C89 C88 1.403 . S
C89 H115 0.930 . S
C90 O104 1.275 . S
C90 O105 1.256 . S
C91 O106 1.259 . S
C91 O107 1.268 . S
C92 Ho81 2.811 . S
C92 C93 1.488 . S
C92 O108 1.215 . S
C92 O109 1.289 . S
C93 C92 1.488 . S
C93 C94 1.348 . S
C93 C98 1.413 . S
C94 C93 1.348 . S
C94 C95 1.442 . S
C94 H116 0.930 . S
C95 C94 1.442 . S
C95 C96 1.381 . S
C95 H117 0.931 . S
C96 C95 1.381 . S
C96 C97 1.321 . S
C97 C96 1.321 . S
C97 C98 1.403 . S
C97 H118 0.934 . S
C98 C93 1.413 . S
C98 C97 1.403 . S
C98 H119 0.930 . S
C99 O110 1.275 . S
C99 O111 1.256 . S
O100 Ho80 2.322 . S
O100 C82 1.259 . S
O101 Ho81 2.346 . S
O101 C82 1.268 . S
O102 Ho80 2.378 . S
O102 C83 1.215 . S
O103 Ho80 2.524 . S
O103 C83 1.289 . S
O104 Ho80 2.381 . S
O104 C90 1.275 . S
O105 Ho80 2.669 . S
O105 Ho81 2.305 . S
O105 C90 1.256 . S
O106 Ho81 2.322 . S
O106 C91 1.259 . S
O107 Ho80 2.346 . S
O107 C91 1.268 . S
O108 Ho81 2.378 . S
O108 C92 1.215 . S
O109 Ho81 2.524 . S
O109 C92 1.289 . S
O110 Ho81 2.381 . S
O110 C99 1.275 . S
O111 Ho80 2.305 . S
O111 Ho81 2.669 . S
O111 C99 1.256 . S
H112 C85 0.930 . S
H113 C86 0.931 . S
H114 C88 0.934 . S
H115 C89 0.930 . S
H116 C94 0.930 . S
H117 C95 0.931 . S
H118 C97 0.934 . S
H119 C98 0.930 . S
Ho120 C123 2.811 . S
Ho120 O140 2.322 . S
Ho120 O142 2.378 . S
Ho120 O143 2.524 . S
Ho120 O144 2.381 . S
Ho120 O145 2.669 . S
Ho120 O147 2.346 . S
Ho120 O151 2.305 . S
Ho121 C132 2.811 . S
Ho121 O141 2.346 . S
Ho121 O145 2.305 . S
Ho121 O146 2.322 . S
Ho121 O148 2.378 . S
Ho121 O149 2.524 . S
Ho121 O150 2.381 . S
Ho121 O151 2.669 . S
C122 O140 1.259 . S
C122 O141 1.268 . S
C123 Ho120 2.811 . S
C123 C124 1.488 . S
C123 O142 1.215 . S
C123 O143 1.289 . S
C124 C123 1.488 . S
C124 C125 1.348 . S
C124 C129 1.413 . S
C125 C124 1.348 . S
C125 C126 1.442 . S
C125 H152 0.930 . S
C126 C125 1.442 . S
C126 C127 1.381 . S
C126 H153 0.931 . S
C127 C126 1.381 . S
C127 C128 1.321 . S
C128 C127 1.321 . S
C128 C129 1.403 . S
C128 H154 0.934 . S
C129 C124 1.413 . S
C129 C128 1.403 . S
C129 H155 0.930 . S
C130 O144 1.275 . S
C130 O145 1.256 . S
C131 O146 1.259 . S
C131 O147 1.268 . S
C132 Ho121 2.811 . S
C132 C133 1.488 . S
C132 O148 1.215 . S
C132 O149 1.289 . S
C133 C132 1.488 . S
C133 C134 1.348 . S
C133 C138 1.413 . S
C134 C133 1.348 . S
C134 C135 1.442 . S
C134 H156 0.930 . S
C135 C134 1.442 . S
C135 C136 1.381 . S
C135 H157 0.931 . S
C136 C135 1.381 . S
C136 C137 1.321 . S
C137 C136 1.321 . S
C137 C138 1.403 . S
C137 H158 0.934 . S
C138 C133 1.413 . S
C138 C137 1.403 . S
C138 H159 0.930 . S
C139 O150 1.275 . S
C139 O151 1.256 . S
O140 Ho120 2.322 . S
O140 C122 1.259 . S
O141 Ho121 2.346 . S
O141 C122 1.268 . S
O142 Ho120 2.378 . S
O142 C123 1.215 . S
O143 Ho120 2.524 . S
O143 C123 1.289 . S
O144 Ho120 2.381 . S
O144 C130 1.275 . S
O145 Ho120 2.669 . S
O145 Ho121 2.305 . S
O145 C130 1.256 . S
O146 Ho121 2.322 . S
O146 C131 1.259 . S
O147 Ho120 2.346 . S
O147 C131 1.268 . S
O148 Ho121 2.378 . S
O148 C132 1.215 . S
O149 Ho121 2.524 . S
O149 C132 1.289 . S
O150 Ho121 2.381 . S
O150 C139 1.275 . S
O151 Ho120 2.305 . S
O151 Ho121 2.669 . S
O151 C139 1.256 . S
H152 C125 0.930 . S
H153 C126 0.931 . S
H154 C128 0.934 . S
H155 C129 0.930 . S
H156 C134 0.930 . S
H157 C135 0.931 . S
H158 C137 0.934 . S
H159 C138 0.930 . S
Ho160 C163 2.811 . S
Ho160 O180 2.322 . S
Ho160 O182 2.378 . S
Ho160 O183 2.524 . S
Ho160 O184 2.381 . S
Ho160 O185 2.669 . S
Ho160 O187 2.346 . S
Ho160 O191 2.305 . S
Ho161 C172 2.811 . S
Ho161 O181 2.346 . S
Ho161 O185 2.305 . S
Ho161 O186 2.322 . S
Ho161 O188 2.378 . S
Ho161 O189 2.524 . S
Ho161 O190 2.381 . S
Ho161 O191 2.669 . S
C162 O180 1.259 . S
C162 O181 1.268 . S
C163 Ho160 2.811 . S
C163 C164 1.488 . S
C163 O182 1.215 . S
C163 O183 1.289 . S
C164 C163 1.488 . S
C164 C165 1.348 . S
C164 C169 1.413 . S
C165 C164 1.348 . S
C165 C166 1.442 . S
C165 H192 0.930 . S
C166 C165 1.442 . S
C166 C167 1.381 . S
C166 H193 0.931 . S
C167 C166 1.381 . S
C167 C168 1.321 . S
C168 C167 1.321 . S
C168 C169 1.403 . S
C168 H194 0.934 . S
C169 C164 1.413 . S
C169 C168 1.403 . S
C169 H195 0.930 . S
C170 O184 1.275 . S
C170 O185 1.256 . S
C171 O186 1.259 . S
C171 O187 1.268 . S
C172 Ho161 2.811 . S
C172 C173 1.488 . S
C172 O188 1.215 . S
C172 O189 1.289 . S
C173 C172 1.488 . S
C173 C174 1.348 . S
C173 C178 1.413 . S
C174 C173 1.348 . S
C174 C175 1.442 . S
C174 H196 0.930 . S
C175 C174 1.442 . S
C175 C176 1.381 . S
C175 H197 0.931 . S
C176 C175 1.381 . S
C176 C177 1.321 . S
C177 C176 1.321 . S
C177 C178 1.403 . S
C177 H198 0.934 . S
C178 C173 1.413 . S
C178 C177 1.403 . S
C178 H199 0.930 . S
C179 O190 1.275 . S
C179 O191 1.256 . S
O180 Ho160 2.322 . S
O180 C162 1.259 . S
O181 Ho161 2.346 . S
O181 C162 1.268 . S
O182 Ho160 2.378 . S
O182 C163 1.215 . S
O183 Ho160 2.524 . S
O183 C163 1.289 . S
O184 Ho160 2.381 . S
O184 C170 1.275 . S
O185 Ho160 2.669 . S
O185 Ho161 2.305 . S
O185 C170 1.256 . S
O186 Ho161 2.322 . S
O186 C171 1.259 . S
O187 Ho160 2.346 . S
O187 C171 1.268 . S
O188 Ho161 2.378 . S
O188 C172 1.215 . S
O189 Ho161 2.524 . S
O189 C172 1.289 . S
O190 Ho161 2.381 . S
O190 C179 1.275 . S
O191 Ho160 2.305 . S
O191 Ho161 2.669 . S
O191 C179 1.256 . S
H192 C165 0.930 . S
H193 C166 0.931 . S
H194 C168 0.934 . S
H195 C169 0.930 . S
H196 C174 0.930 . S
H197 C175 0.931 . S
H198 C177 0.934 . S
H199 C178 0.930 . S
Ho200 C203 2.811 . S
Ho200 O220 2.322 . S
Ho200 O222 2.378 . S
Ho200 O223 2.524 . S
Ho200 O224 2.381 . S
Ho200 O225 2.669 . S
Ho200 O227 2.346 . S
Ho200 O231 2.305 . S
Ho201 C212 2.811 . S
Ho201 O221 2.346 . S
Ho201 O225 2.305 . S
Ho201 O226 2.322 . S
Ho201 O228 2.378 . S
Ho201 O229 2.524 . S
Ho201 O230 2.381 . S
Ho201 O231 2.669 . S
C202 O220 1.259 . S
C202 O221 1.268 . S
C203 Ho200 2.811 . S
C203 C204 1.488 . S
C203 O222 1.215 . S
C203 O223 1.289 . S
C204 C203 1.488 . S
C204 C205 1.348 . S
C204 C209 1.413 . S
C205 C204 1.348 . S
C205 C206 1.442 . S
C205 H232 0.930 . S
C206 C205 1.442 . S
C206 C207 1.381 . S
C206 H233 0.931 . S
C207 C206 1.381 . S
C207 C208 1.321 . S
C208 C207 1.321 . S
C208 C209 1.403 . S
C208 H234 0.934 . S
C209 C204 1.413 . S
C209 C208 1.403 . S
C209 H235 0.930 . S
C210 O224 1.275 . S
C210 O225 1.256 . S
C211 O226 1.259 . S
C211 O227 1.268 . S
C212 Ho201 2.811 . S
C212 C213 1.488 . S
C212 O228 1.215 . S
C212 O229 1.289 . S
C213 C212 1.488 . S
C213 C214 1.348 . S
C213 C218 1.413 . S
C214 C213 1.348 . S
C214 C215 1.442 . S
C214 H236 0.930 . S
C215 C214 1.442 . S
C215 C216 1.381 . S
C215 H237 0.931 . S
C216 C215 1.381 . S
C216 C217 1.321 . S
C217 C216 1.321 . S
C217 C218 1.403 . S
C217 H238 0.934 . S
C218 C213 1.413 . S
C218 C217 1.403 . S
C218 H239 0.930 . S
C219 O230 1.275 . S
C219 O231 1.256 . S
O220 Ho200 2.322 . S
O220 C202 1.259 . S
O221 Ho201 2.346 . S
O221 C202 1.268 . S
O222 Ho200 2.378 . S
O222 C203 1.215 . S
O223 Ho200 2.524 . S
O223 C203 1.289 . S
O224 Ho200 2.381 . S
O224 C210 1.275 . S
O225 Ho200 2.669 . S
O225 Ho201 2.305 . S
O225 C210 1.256 . S
O226 Ho201 2.322 . S
O226 C211 1.259 . S
O227 Ho200 2.346 . S
O227 C211 1.268 . S
O228 Ho201 2.378 . S
O228 C212 1.215 . S
O229 Ho201 2.524 . S
O229 C212 1.289 . S
O230 Ho201 2.381 . S
O230 C219 1.275 . S
O231 Ho200 2.305 . S
O231 Ho201 2.669 . S
O231 C219 1.256 . S
H232 C205 0.930 . S
H233 C206 0.931 . S
H234 C208 0.934 . S
H235 C209 0.930 . S
H236 C214 0.930 . S
H237 C215 0.931 . S
H238 C217 0.934 . S
H239 C218 0.930 . S
Ho240 C243 2.811 . S
Ho240 O260 2.322 . S
Ho240 O262 2.378 . S
Ho240 O263 2.524 . S
Ho240 O264 2.381 . S
Ho240 O265 2.669 . S
Ho240 O267 2.346 . S
Ho240 O271 2.305 . S
Ho241 C252 2.811 . S
Ho241 O261 2.346 . S
Ho241 O265 2.305 . S
Ho241 O266 2.322 . S
Ho241 O268 2.378 . S
Ho241 O269 2.524 . S
Ho241 O270 2.381 . S
Ho241 O271 2.669 . S
C242 O260 1.259 . S
C242 O261 1.268 . S
C243 Ho240 2.811 . S
C243 C244 1.488 . S
C243 O262 1.215 . S
C243 O263 1.289 . S
C244 C243 1.488 . S
C244 C245 1.348 . S
C244 C249 1.413 . S
C245 C244 1.348 . S
C245 C246 1.442 . S
C245 H272 0.930 . S
C246 C245 1.442 . S
C246 C247 1.381 . S
C246 H273 0.931 . S
C247 C246 1.381 . S
C247 C248 1.321 . S
C248 C247 1.321 . S
C248 C249 1.403 . S
C248 H274 0.934 . S
C249 C244 1.413 . S
C249 C248 1.403 . S
C249 H275 0.930 . S
C250 O264 1.275 . S
C250 O265 1.256 . S
C251 O266 1.259 . S
C251 O267 1.268 . S
C252 Ho241 2.811 . S
C252 C253 1.488 . S
C252 O268 1.215 . S
C252 O269 1.289 . S
C253 C252 1.488 . S
C253 C254 1.348 . S
C253 C258 1.413 . S
C254 C253 1.348 . S
C254 C255 1.442 . S
C254 H276 0.930 . S
C255 C254 1.442 . S
C255 C256 1.381 . S
C255 H277 0.931 . S
C256 C255 1.381 . S
C256 C257 1.321 . S
C257 C256 1.321 . S
C257 C258 1.403 . S
C257 H278 0.934 . S
C258 C253 1.413 . S
C258 C257 1.403 . S
C258 H279 0.930 . S
C259 O270 1.275 . S
C259 O271 1.256 . S
O260 Ho240 2.322 . S
O260 C242 1.259 . S
O261 Ho241 2.346 . S
O261 C242 1.268 . S
O262 Ho240 2.378 . S
O262 C243 1.215 . S
O263 Ho240 2.524 . S
O263 C243 1.289 . S
O264 Ho240 2.381 . S
O264 C250 1.275 . S
O265 Ho240 2.669 . S
O265 Ho241 2.305 . S
O265 C250 1.256 . S
O266 Ho241 2.322 . S
O266 C251 1.259 . S
O267 Ho240 2.346 . S
O267 C251 1.268 . S
O268 Ho241 2.378 . S
O268 C252 1.215 . S
O269 Ho241 2.524 . S
O269 C252 1.289 . S
O270 Ho241 2.381 . S
O270 C259 1.275 . S
O271 Ho240 2.305 . S
O271 Ho241 2.669 . S
O271 C259 1.256 . S
H272 C245 0.930 . S
H273 C246 0.931 . S
H274 C248 0.934 . S
H275 C249 0.930 . S
H276 C254 0.930 . S
H277 C255 0.931 . S
H278 C257 0.934 . S
H279 C258 0.930 . S
Ho280 C283 2.811 . S
Ho280 O300 2.322 . S
Ho280 O302 2.378 . S
Ho280 O303 2.524 . S
Ho280 O304 2.381 . S
Ho280 O305 2.669 . S
Ho280 O307 2.346 . S
Ho280 O311 2.305 . S
Ho281 C292 2.811 . S
Ho281 O301 2.346 . S
Ho281 O305 2.305 . S
Ho281 O306 2.322 . S
Ho281 O308 2.378 . S
Ho281 O309 2.524 . S
Ho281 O310 2.381 . S
Ho281 O311 2.669 . S
C282 O300 1.259 . S
C282 O301 1.268 . S
C283 Ho280 2.811 . S
C283 C284 1.488 . S
C283 O302 1.215 . S
C283 O303 1.289 . S
C284 C283 1.488 . S
C284 C285 1.348 . S
C284 C289 1.413 . S
C285 C284 1.348 . S
C285 C286 1.442 . S
C285 H312 0.930 . S
C286 C285 1.442 . S
C286 C287 1.381 . S
C286 H313 0.931 . S
C287 C286 1.381 . S
C287 C288 1.321 . S
C288 C287 1.321 . S
C288 C289 1.403 . S
C288 H314 0.934 . S
C289 C284 1.413 . S
C289 C288 1.403 . S
C289 H315 0.930 . S
C290 O304 1.275 . S
C290 O305 1.256 . S
C291 O306 1.259 . S
C291 O307 1.268 . S
C292 Ho281 2.811 . S
C292 C293 1.488 . S
C292 O308 1.215 . S
C292 O309 1.289 . S
C293 C292 1.488 . S
C293 C294 1.348 . S
C293 C298 1.413 . S
C294 C293 1.348 . S
C294 C295 1.442 . S
C294 H316 0.930 . S
C295 C294 1.442 . S
C295 C296 1.381 . S
C295 H317 0.931 . S
C296 C295 1.381 . S
C296 C297 1.321 . S
C297 C296 1.321 . S
C297 C298 1.403 . S
C297 H318 0.934 . S
C298 C293 1.413 . S
C298 C297 1.403 . S
C298 H319 0.930 . S
C299 O310 1.275 . S
C299 O311 1.256 . S
O300 Ho280 2.322 . S
O300 C282 1.259 . S
O301 Ho281 2.346 . S
O301 C282 1.268 . S
O302 Ho280 2.378 . S
O302 C283 1.215 . S
O303 Ho280 2.524 . S
O303 C283 1.289 . S
O304 Ho280 2.381 . S
O304 C290 1.275 . S
O305 Ho280 2.669 . S
O305 Ho281 2.305 . S
O305 C290 1.256 . S
O306 Ho281 2.322 . S
O306 C291 1.259 . S
O307 Ho280 2.346 . S
O307 C291 1.268 . S
O308 Ho281 2.378 . S
O308 C292 1.215 . S
O309 Ho281 2.524 . S
O309 C292 1.289 . S
O310 Ho281 2.381 . S
O310 C299 1.275 . S
O311 Ho280 2.305 . S
O311 Ho281 2.669 . S
O311 C299 1.256 . S
H312 C285 0.930 . S
H313 C286 0.931 . S
H314 C288 0.934 . S
H315 C289 0.930 . S
H316 C294 0.930 . S
H317 C295 0.931 . S
H318 C297 0.934 . S
H319 C298 0.930 . S
Ho320 C323 2.811 . S
Ho320 O340 2.322 . S
Ho320 O342 2.378 . S
Ho320 O343 2.524 . S
Ho320 O344 2.381 . S
Ho320 O345 2.669 . S
Ho320 O347 2.346 . S
Ho320 O351 2.305 . S
Ho321 C332 2.811 . S
Ho321 O341 2.346 . S
Ho321 O345 2.305 . S
Ho321 O346 2.322 . S
Ho321 O348 2.378 . S
Ho321 O349 2.524 . S
Ho321 O350 2.381 . S
Ho321 O351 2.669 . S
C322 O340 1.259 . S
C322 O341 1.268 . S
C323 Ho320 2.811 . S
C323 C324 1.488 . S
C323 O342 1.215 . S
C323 O343 1.289 . S
C324 C323 1.488 . S
C324 C325 1.348 . S
C324 C329 1.413 . S
C325 C324 1.348 . S
C325 C326 1.442 . S
C325 H352 0.930 . S
C326 C325 1.442 . S
C326 C327 1.381 . S
C326 H353 0.931 . S
C327 C326 1.381 . S
C327 C328 1.321 . S
C328 C327 1.321 . S
C328 C329 1.403 . S
C328 H354 0.934 . S
C329 C324 1.413 . S
C329 C328 1.403 . S
C329 H355 0.930 . S
C330 O344 1.275 . S
C330 O345 1.256 . S
C331 O346 1.259 . S
C331 O347 1.268 . S
C332 Ho321 2.811 . S
C332 C333 1.488 . S
C332 O348 1.215 . S
C332 O349 1.289 . S
C333 C332 1.488 . S
C333 C334 1.348 . S
C333 C338 1.413 . S
C334 C333 1.348 . S
C334 C335 1.442 . S
C334 H356 0.930 . S
C335 C334 1.442 . S
C335 C336 1.381 . S
C335 H357 0.931 . S
C336 C335 1.381 . S
C336 C337 1.321 . S
C337 C336 1.321 . S
C337 C338 1.403 . S
C337 H358 0.934 . S
C338 C333 1.413 . S
C338 C337 1.403 . S
C338 H359 0.930 . S
C339 O350 1.275 . S
C339 O351 1.256 . S
O340 Ho320 2.322 . S
O340 C322 1.259 . S
O341 Ho321 2.346 . S
O341 C322 1.268 . S
O342 Ho320 2.378 . S
O342 C323 1.215 . S
O343 Ho320 2.524 . S
O343 C323 1.289 . S
O344 Ho320 2.381 . S
O344 C330 1.275 . S
O345 Ho320 2.669 . S
O345 Ho321 2.305 . S
O345 C330 1.256 . S
O346 Ho321 2.322 . S
O346 C331 1.259 . S
O347 Ho320 2.346 . S
O347 C331 1.268 . S
O348 Ho321 2.378 . S
O348 C332 1.215 . S
O349 Ho321 2.524 . S
O349 C332 1.289 . S
O350 Ho321 2.381 . S
O350 C339 1.275 . S
O351 Ho320 2.305 . S
O351 Ho321 2.669 . S
O351 C339 1.256 . S
H352 C325 0.930 . S
H353 C326 0.931 . S
H354 C328 0.934 . S
H355 C329 0.930 . S
H356 C334 0.930 . S
H357 C335 0.931 . S
H358 C337 0.934 . S
H359 C338 0.930 . S
Ho360 C363 2.811 . S
Ho360 O380 2.322 . S
Ho360 O382 2.378 . S
Ho360 O383 2.524 . S
Ho360 O384 2.381 . S
Ho360 O385 2.669 . S
Ho360 O387 2.346 . S
Ho360 O391 2.305 . S
Ho361 C372 2.811 . S
Ho361 O381 2.346 . S
Ho361 O385 2.305 . S
Ho361 O386 2.322 . S
Ho361 O388 2.378 . S
Ho361 O389 2.524 . S
Ho361 O390 2.381 . S
Ho361 O391 2.669 . S
C362 O380 1.259 . S
C362 O381 1.268 . S
C363 Ho360 2.811 . S
C363 C364 1.488 . S
C363 O382 1.215 . S
C363 O383 1.289 . S
C364 C363 1.488 . S
C364 C365 1.348 . S
C364 C369 1.413 . S
C365 C364 1.348 . S
C365 C366 1.442 . S
C365 H392 0.930 . S
C366 C365 1.442 . S
C366 C367 1.381 . S
C366 H393 0.931 . S
C367 C366 1.381 . S
C367 C368 1.321 . S
C368 C367 1.321 . S
C368 C369 1.403 . S
C368 H394 0.934 . S
C369 C364 1.413 . S
C369 C368 1.403 . S
C369 H395 0.930 . S
C370 O384 1.275 . S
C370 O385 1.256 . S
C371 O386 1.259 . S
C371 O387 1.268 . S
C372 Ho361 2.811 . S
C372 C373 1.488 . S
C372 O388 1.215 . S
C372 O389 1.289 . S
C373 C372 1.488 . S
C373 C374 1.348 . S
C373 C378 1.413 . S
C374 C373 1.348 . S
C374 C375 1.442 . S
C374 H396 0.930 . S
C375 C374 1.442 . S
C375 C376 1.381 . S
C375 H397 0.931 . S
C376 C375 1.381 . S
C376 C377 1.321 . S
C377 C376 1.321 . S
C377 C378 1.403 . S
C377 H398 0.934 . S
C378 C373 1.413 . S
C378 C377 1.403 . S
C378 H399 0.930 . S
C379 O390 1.275 . S
C379 O391 1.256 . S
O380 Ho360 2.322 . S
O380 C362 1.259 . S
O381 Ho361 2.346 . S
O381 C362 1.268 . S
O382 Ho360 2.378 . S
O382 C363 1.215 . S
O383 Ho360 2.524 . S
O383 C363 1.289 . S
O384 Ho360 2.381 . S
O384 C370 1.275 . S
O385 Ho360 2.669 . S
O385 Ho361 2.305 . S
O385 C370 1.256 . S
O386 Ho361 2.322 . S
O386 C371 1.259 . S
O387 Ho360 2.346 . S
O387 C371 1.268 . S
O388 Ho361 2.378 . S
O388 C372 1.215 . S
O389 Ho361 2.524 . S
O389 C372 1.289 . S
O390 Ho361 2.381 . S
O390 C379 1.275 . S
O391 Ho360 2.305 . S
O391 Ho361 2.669 . S
O391 C379 1.256 . S
H392 C365 0.930 . S
H393 C366 0.931 . S
H394 C368 0.934 . S
H395 C369 0.930 . S
H396 C374 0.930 . S
H397 C375 0.931 . S
H398 C377 0.934 . S
H399 C378 0.930 . S
Ho400 C403 2.811 . S
Ho400 O420 2.322 . S
Ho400 O422 2.378 . S
Ho400 O423 2.524 . S
Ho400 O424 2.381 . S
Ho400 O425 2.669 . S
Ho400 O427 2.346 . S
Ho400 O431 2.305 . S
Ho401 C412 2.811 . S
Ho401 O421 2.346 . S
Ho401 O425 2.305 . S
Ho401 O426 2.322 . S
Ho401 O428 2.378 . S
Ho401 O429 2.524 . S
Ho401 O430 2.381 . S
Ho401 O431 2.669 . S
C402 O420 1.259 . S
C402 O421 1.268 . S
C403 Ho400 2.811 . S
C403 C404 1.488 . S
C403 O422 1.215 . S
C403 O423 1.289 . S
C404 C403 1.488 . S
C404 C405 1.348 . S
C404 C409 1.413 . S
C405 C404 1.348 . S
C405 C406 1.442 . S
C405 H432 0.930 . S
C406 C405 1.442 . S
C406 C407 1.381 . S
C406 H433 0.931 . S
C407 C406 1.381 . S
C407 C408 1.321 . S
C408 C407 1.321 . S
C408 C409 1.403 . S
C408 H434 0.934 . S
C409 C404 1.413 . S
C409 C408 1.403 . S
C409 H435 0.930 . S
C410 O424 1.275 . S
C410 O425 1.256 . S
C411 O426 1.259 . S
C411 O427 1.268 . S
C412 Ho401 2.811 . S
C412 C413 1.488 . S
C412 O428 1.215 . S
C412 O429 1.289 . S
C413 C412 1.488 . S
C413 C414 1.348 . S
C413 C418 1.413 . S
C414 C413 1.348 . S
C414 C415 1.442 . S
C414 H436 0.930 . S
C415 C414 1.442 . S
C415 C416 1.381 . S
C415 H437 0.931 . S
C416 C415 1.381 . S
C416 C417 1.321 . S
C417 C416 1.321 . S
C417 C418 1.403 . S
C417 H438 0.934 . S
C418 C413 1.413 . S
C418 C417 1.403 . S
C418 H439 0.930 . S
C419 O430 1.275 . S
C419 O431 1.256 . S
O420 Ho400 2.322 . S
O420 C402 1.259 . S
O421 Ho401 2.346 . S
O421 C402 1.268 . S
O422 Ho400 2.378 . S
O422 C403 1.215 . S
O423 Ho400 2.524 . S
O423 C403 1.289 . S
O424 Ho400 2.381 . S
O424 C410 1.275 . S
O425 Ho400 2.669 . S
O425 Ho401 2.305 . S
O425 C410 1.256 . S
O426 Ho401 2.322 . S
O426 C411 1.259 . S
O427 Ho400 2.346 . S
O427 C411 1.268 . S
O428 Ho401 2.378 . S
O428 C412 1.215 . S
O429 Ho401 2.524 . S
O429 C412 1.289 . S
O430 Ho401 2.381 . S
O430 C419 1.275 . S
O431 Ho400 2.305 . S
O431 Ho401 2.669 . S
O431 C419 1.256 . S
H432 C405 0.930 . S
H433 C406 0.931 . S
H434 C408 0.934 . S
H435 C409 0.930 . S
H436 C414 0.930 . S
H437 C415 0.931 . S
H438 C417 0.934 . S
H439 C418 0.930 . S
Ho440 C443 2.811 . S
Ho440 O460 2.322 . S
Ho440 O462 2.378 . S
Ho440 O463 2.524 . S
Ho440 O464 2.381 . S
Ho440 O465 2.669 . S
Ho440 O467 2.346 . S
Ho440 O471 2.305 . S
Ho441 C452 2.811 . S
Ho441 O461 2.346 . S
Ho441 O465 2.305 . S
Ho441 O466 2.322 . S
Ho441 O468 2.378 . S
Ho441 O469 2.524 . S
Ho441 O470 2.381 . S
Ho441 O471 2.669 . S
C442 O460 1.259 . S
C442 O461 1.268 . S
C443 Ho440 2.811 . S
C443 C444 1.488 . S
C443 O462 1.215 . S
C443 O463 1.289 . S
C444 C443 1.488 . S
C444 C445 1.348 . S
C444 C449 1.413 . S
C445 C444 1.348 . S
C445 C446 1.442 . S
C445 H472 0.930 . S
C446 C445 1.442 . S
C446 C447 1.381 . S
C446 H473 0.931 . S
C447 C446 1.381 . S
C447 C448 1.321 . S
C448 C447 1.321 . S
C448 C449 1.403 . S
C448 H474 0.934 . S
C449 C444 1.413 . S
C449 C448 1.403 . S
C449 H475 0.930 . S
C450 O464 1.275 . S
C450 O465 1.256 . S
C451 O466 1.259 . S
C451 O467 1.268 . S
C452 Ho441 2.811 . S
C452 C453 1.488 . S
C452 O468 1.215 . S
C452 O469 1.289 . S
C453 C452 1.488 . S
C453 C454 1.348 . S
C453 C458 1.413 . S
C454 C453 1.348 . S
C454 C455 1.442 . S
C454 H476 0.930 . S
C455 C454 1.442 . S
C455 C456 1.381 . S
C455 H477 0.931 . S
C456 C455 1.381 . S
C456 C457 1.321 . S
C457 C456 1.321 . S
C457 C458 1.403 . S
C457 H478 0.934 . S
C458 C453 1.413 . S
C458 C457 1.403 . S
C458 H479 0.930 . S
C459 O470 1.275 . S
C459 O471 1.256 . S
O460 Ho440 2.322 . S
O460 C442 1.259 . S
O461 Ho441 2.346 . S
O461 C442 1.268 . S
O462 Ho440 2.378 . S
O462 C443 1.215 . S
O463 Ho440 2.524 . S
O463 C443 1.289 . S
O464 Ho440 2.381 . S
O464 C450 1.275 . S
O465 Ho440 2.669 . S
O465 Ho441 2.305 . S
O465 C450 1.256 . S
O466 Ho441 2.322 . S
O466 C451 1.259 . S
O467 Ho440 2.346 . S
O467 C451 1.268 . S
O468 Ho441 2.378 . S
O468 C452 1.215 . S
O469 Ho441 2.524 . S
O469 C452 1.289 . S
O470 Ho441 2.381 . S
O470 C459 1.275 . S
O471 Ho440 2.305 . S
O471 Ho441 2.669 . S
O471 C459 1.256 . S
H472 C445 0.930 . S
H473 C446 0.931 . S
H474 C448 0.934 . S
H475 C449 0.930 . S
H476 C454 0.930 . S
H477 C455 0.931 . S
H478 C457 0.934 . S
H479 C458 0.930 . S
Ho480 C483 2.811 . S
Ho480 O500 2.322 . S
Ho480 O502 2.378 . S
Ho480 O503 2.524 . S
Ho480 O504 2.381 . S
Ho480 O505 2.669 . S
Ho480 O507 2.346 . S
Ho480 O511 2.305 . S
Ho481 C492 2.811 . S
Ho481 O501 2.346 . S
Ho481 O505 2.305 . S
Ho481 O506 2.322 . S
Ho481 O508 2.378 . S
Ho481 O509 2.524 . S
Ho481 O510 2.381 . S
Ho481 O511 2.669 . S
C482 O500 1.259 . S
C482 O501 1.268 . S
C483 Ho480 2.811 . S
C483 C484 1.488 . S
C483 O502 1.215 . S
C483 O503 1.289 . S
C484 C483 1.488 . S
C484 C485 1.348 . S
C484 C489 1.413 . S
C485 C484 1.348 . S
C485 C486 1.442 . S
C485 H512 0.930 . S
C486 C485 1.442 . S
C486 C487 1.381 . S
C486 H513 0.931 . S
C487 C486 1.381 . S
C487 C488 1.321 . S
C488 C487 1.321 . S
C488 C489 1.403 . S
C488 H514 0.934 . S
C489 C484 1.413 . S
C489 C488 1.403 . S
C489 H515 0.930 . S
C490 O504 1.275 . S
C490 O505 1.256 . S
C491 O506 1.259 . S
C491 O507 1.268 . S
C492 Ho481 2.811 . S
C492 C493 1.488 . S
C492 O508 1.215 . S
C492 O509 1.289 . S
C493 C492 1.488 . S
C493 C494 1.348 . S
C493 C498 1.413 . S
C494 C493 1.348 . S
C494 C495 1.442 . S
C494 H516 0.930 . S
C495 C494 1.442 . S
C495 C496 1.381 . S
C495 H517 0.931 . S
C496 C495 1.381 . S
C496 C497 1.321 . S
C497 C496 1.321 . S
C497 C498 1.403 . S
C497 H518 0.934 . S
C498 C493 1.413 . S
C498 C497 1.403 . S
C498 H519 0.930 . S
C499 O510 1.275 . S
C499 O511 1.256 . S
O500 Ho480 2.322 . S
O500 C482 1.259 . S
O501 Ho481 2.346 . S
O501 C482 1.268 . S
O502 Ho480 2.378 . S
O502 C483 1.215 . S
O503 Ho480 2.524 . S
O503 C483 1.289 . S
O504 Ho480 2.381 . S
O504 C490 1.275 . S
O505 Ho480 2.669 . S
O505 Ho481 2.305 . S
O505 C490 1.256 . S
O506 Ho481 2.322 . S
O506 C491 1.259 . S
O507 Ho480 2.346 . S
O507 C491 1.268 . S
O508 Ho481 2.378 . S
O508 C492 1.215 . S
O509 Ho481 2.524 . S
O509 C492 1.289 . S
O510 Ho481 2.381 . S
O510 C499 1.275 . S
O511 Ho480 2.305 . S
O511 Ho481 2.669 . S
O511 C499 1.256 . S
H512 C485 0.930 . S
H513 C486 0.931 . S
H514 C488 0.934 . S
H515 C489 0.930 . S
H516 C494 0.930 . S
H517 C495 0.931 . S
H518 C497 0.934 . S
H519 C498 0.930 . S
Ho520 C523 2.811 . S
Ho520 O540 2.322 . S
Ho520 O542 2.378 . S
Ho520 O543 2.524 . S
Ho520 O544 2.381 . S
Ho520 O545 2.669 . S
Ho520 O547 2.346 . S
Ho520 O551 2.305 . S
Ho521 C532 2.811 . S
Ho521 O541 2.346 . S
Ho521 O545 2.305 . S
Ho521 O546 2.322 . S
Ho521 O548 2.378 . S
Ho521 O549 2.524 . S
Ho521 O550 2.381 . S
Ho521 O551 2.669 . S
C522 O540 1.259 . S
C522 O541 1.268 . S
C523 Ho520 2.811 . S
C523 C524 1.488 . S
C523 O542 1.215 . S
C523 O543 1.289 . S
C524 C523 1.488 . S
C524 C525 1.348 . S
C524 C529 1.413 . S
C525 C524 1.348 . S
C525 C526 1.442 . S
C525 H552 0.930 . S
C526 C525 1.442 . S
C526 C527 1.381 . S
C526 H553 0.931 . S
C527 C526 1.381 . S
C527 C528 1.321 . S
C528 C527 1.321 . S
C528 C529 1.403 . S
C528 H554 0.934 . S
C529 C524 1.413 . S
C529 C528 1.403 . S
C529 H555 0.930 . S
C530 O544 1.275 . S
C530 O545 1.256 . S
C531 O546 1.259 . S
C531 O547 1.268 . S
C532 Ho521 2.811 . S
C532 C533 1.488 . S
C532 O548 1.215 . S
C532 O549 1.289 . S
C533 C532 1.488 . S
C533 C534 1.348 . S
C533 C538 1.413 . S
C534 C533 1.348 . S
C534 C535 1.442 . S
C534 H556 0.930 . S
C535 C534 1.442 . S
C535 C536 1.381 . S
C535 H557 0.931 . S
C536 C535 1.381 . S
C536 C537 1.321 . S
C537 C536 1.321 . S
C537 C538 1.403 . S
C537 H558 0.934 . S
C538 C533 1.413 . S
C538 C537 1.403 . S
C538 H559 0.930 . S
C539 O550 1.275 . S
C539 O551 1.256 . S
O540 Ho520 2.322 . S
O540 C522 1.259 . S
O541 Ho521 2.346 . S
O541 C522 1.268 . S
O542 Ho520 2.378 . S
O542 C523 1.215 . S
O543 Ho520 2.524 . S
O543 C523 1.289 . S
O544 Ho520 2.381 . S
O544 C530 1.275 . S
O545 Ho520 2.669 . S
O545 Ho521 2.305 . S
O545 C530 1.256 . S
O546 Ho521 2.322 . S
O546 C531 1.259 . S
O547 Ho520 2.346 . S
O547 C531 1.268 . S
O548 Ho521 2.378 . S
O548 C532 1.215 . S
O549 Ho521 2.524 . S
O549 C532 1.289 . S
O550 Ho521 2.381 . S
O550 C539 1.275 . S
O551 Ho520 2.305 . S
O551 Ho521 2.669 . S
O551 C539 1.256 . S
H552 C525 0.930 . S
H553 C526 0.931 . S
H554 C528 0.934 . S
H555 C529 0.930 . S
H556 C534 0.930 . S
H557 C535 0.931 . S
H558 C537 0.934 . S
H559 C538 0.930 . S
Ho560 C563 2.811 . S
Ho560 O580 2.322 . S
Ho560 O582 2.378 . S
Ho560 O583 2.524 . S
Ho560 O584 2.381 . S
Ho560 O585 2.669 . S
Ho560 O587 2.346 . S
Ho560 O591 2.305 . S
Ho561 C572 2.811 . S
Ho561 O581 2.346 . S
Ho561 O585 2.305 . S
Ho561 O586 2.322 . S
Ho561 O588 2.378 . S
Ho561 O589 2.524 . S
Ho561 O590 2.381 . S
Ho561 O591 2.669 . S
C562 O580 1.259 . S
C562 O581 1.268 . S
C563 Ho560 2.811 . S
C563 C564 1.488 . S
C563 O582 1.215 . S
C563 O583 1.289 . S
C564 C563 1.488 . S
C564 C565 1.348 . S
C564 C569 1.413 . S
C565 C564 1.348 . S
C565 C566 1.442 . S
C565 H592 0.930 . S
C566 C565 1.442 . S
C566 C567 1.381 . S
C566 H593 0.931 . S
C567 C566 1.381 . S
C567 C568 1.321 . S
C568 C567 1.321 . S
C568 C569 1.403 . S
C568 H594 0.934 . S
C569 C564 1.413 . S
C569 C568 1.403 . S
C569 H595 0.930 . S
C570 O584 1.275 . S
C570 O585 1.256 . S
C571 O586 1.259 . S
C571 O587 1.268 . S
C572 Ho561 2.811 . S
C572 C573 1.488 . S
C572 O588 1.215 . S
C572 O589 1.289 . S
C573 C572 1.488 . S
C573 C574 1.348 . S
C573 C578 1.413 . S
C574 C573 1.348 . S
C574 C575 1.442 . S
C574 H596 0.930 . S
C575 C574 1.442 . S
C575 C576 1.381 . S
C575 H597 0.931 . S
C576 C575 1.381 . S
C576 C577 1.321 . S
C577 C576 1.321 . S
C577 C578 1.403 . S
C577 H598 0.934 . S
C578 C573 1.413 . S
C578 C577 1.403 . S
C578 H599 0.930 . S
C579 O590 1.275 . S
C579 O591 1.256 . S
O580 Ho560 2.322 . S
O580 C562 1.259 . S
O581 Ho561 2.346 . S
O581 C562 1.268 . S
O582 Ho560 2.378 . S
O582 C563 1.215 . S
O583 Ho560 2.524 . S
O583 C563 1.289 . S
O584 Ho560 2.381 . S
O584 C570 1.275 . S
O585 Ho560 2.669 . S
O585 Ho561 2.305 . S
O585 C570 1.256 . S
O586 Ho561 2.322 . S
O586 C571 1.259 . S
O587 Ho560 2.346 . S
O587 C571 1.268 . S
O588 Ho561 2.378 . S
O588 C572 1.215 . S
O589 Ho561 2.524 . S
O589 C572 1.289 . S
O590 Ho561 2.381 . S
O590 C579 1.275 . S
O591 Ho560 2.305 . S
O591 Ho561 2.669 . S
O591 C579 1.256 . S
H592 C565 0.930 . S
H593 C566 0.931 . S
H594 C568 0.934 . S
H595 C569 0.930 . S
H596 C574 0.930 . S
H597 C575 0.931 . S
H598 C577 0.934 . S
H599 C578 0.930 . S
Ho600 C603 2.811 . S
Ho600 O620 2.322 . S
Ho600 O622 2.378 . S
Ho600 O623 2.524 . S
Ho600 O624 2.381 . S
Ho600 O625 2.669 . S
Ho600 O627 2.346 . S
Ho600 O631 2.305 . S
Ho601 C612 2.811 . S
Ho601 O621 2.346 . S
Ho601 O625 2.305 . S
Ho601 O626 2.322 . S
Ho601 O628 2.378 . S
Ho601 O629 2.524 . S
Ho601 O630 2.381 . S
Ho601 O631 2.669 . S
C602 O620 1.259 . S
C602 O621 1.268 . S
C603 Ho600 2.811 . S
C603 C604 1.488 . S
C603 O622 1.215 . S
C603 O623 1.289 . S
C604 C603 1.488 . S
C604 C605 1.348 1_655 S
C604 C609 1.413 . S
C605 C604 1.348 1_455 S
C605 C606 1.442 . S
C605 H632 0.930 . S
C606 C605 1.442 . S
C606 C607 1.381 1_455 S
C606 H633 0.931 . S
C607 C606 1.381 1_655 S
C607 C608 1.321 . S
C608 C607 1.321 . S
C608 C609 1.403 . S
C608 H634 0.934 . S
C609 C604 1.413 . S
C609 C608 1.403 . S
C609 H635 0.930 . S
C610 O624 1.275 . S
C610 O625 1.256 . S
C611 O626 1.259 . S
C611 O627 1.268 . S
C612 Ho601 2.811 . S
C612 C613 1.488 . S
C612 O628 1.215 . S
C612 O629 1.289 . S
C613 C612 1.488 . S
C613 C614 1.348 . S
C613 C618 1.413 . S
C614 C613 1.348 . S
C614 C615 1.442 . S
C614 H636 0.930 . S
C615 C614 1.442 . S
C615 C616 1.381 . S
C615 H637 0.931 . S
C616 C615 1.381 . S
C616 C617 1.321 . S
C617 C616 1.321 . S
C617 C618 1.403 . S
C617 H638 0.934 . S
C618 C613 1.413 . S
C618 C617 1.403 . S
C618 H639 0.930 . S
C619 O630 1.275 . S
C619 O631 1.256 . S
O620 Ho600 2.322 . S
O620 C602 1.259 . S
O621 Ho601 2.346 . S
O621 C602 1.268 . S
O622 Ho600 2.378 . S
O622 C603 1.215 . S
O623 Ho600 2.524 . S
O623 C603 1.289 . S
O624 Ho600 2.381 . S
O624 C610 1.275 . S
O625 Ho600 2.669 . S
O625 Ho601 2.305 . S
O625 C610 1.256 . S
O626 Ho601 2.322 . S
O626 C611 1.259 . S
O627 Ho600 2.346 . S
O627 C611 1.268 . S
O628 Ho601 2.378 . S
O628 C612 1.215 . S
O629 Ho601 2.524 . S
O629 C612 1.289 . S
O630 Ho601 2.381 . S
O630 C619 1.275 . S
O631 Ho600 2.305 . S
O631 Ho601 2.669 . S
O631 C619 1.256 . S
H632 C605 0.930 . S
H633 C606 0.931 . S
H634 C608 0.934 . S
H635 C609 0.930 . S
H636 C614 0.930 . S
H637 C615 0.931 . S
H638 C617 0.934 . S
H639 C618 0.930 . S
Ho640 C643 2.811 . S
Ho640 O660 2.322 . S
Ho640 O662 2.378 . S
Ho640 O663 2.524 . S
Ho640 O664 2.381 . S
Ho640 O665 2.669 . S
Ho640 O667 2.346 . S
Ho640 O671 2.305 . S
Ho641 C652 2.811 . S
Ho641 O661 2.346 . S
Ho641 O665 2.305 . S
Ho641 O666 2.322 . S
Ho641 O668 2.378 . S
Ho641 O669 2.524 . S
Ho641 O670 2.381 . S
Ho641 O671 2.669 . S
C642 O660 1.259 . S
C642 O661 1.268 . S
C643 Ho640 2.811 . S
C643 C644 1.488 . S
C643 O662 1.215 . S
C643 O663 1.289 . S
C644 C643 1.488 . S
C644 C645 1.348 . S
C644 C649 1.413 . S
C645 C644 1.348 . S
C645 C646 1.442 . S
C645 H672 0.930 . S
C646 C645 1.442 . S
C646 C647 1.381 . S
C646 H673 0.931 . S
C647 C646 1.381 . S
C647 C648 1.321 . S
C648 C647 1.321 . S
C648 C649 1.403 . S
C648 H674 0.934 . S
C649 C644 1.413 . S
C649 C648 1.403 . S
C649 H675 0.930 . S
C650 O664 1.275 . S
C650 O665 1.256 . S
C651 O666 1.259 . S
C651 O667 1.268 . S
C652 Ho641 2.811 . S
C652 C653 1.488 . S
C652 O668 1.215 . S
C652 O669 1.289 . S
C653 C652 1.488 . S
C653 C654 1.348 . S
C653 C658 1.413 . S
C654 C653 1.348 . S
C654 C655 1.442 . S
C654 H676 0.930 . S
C655 C654 1.442 . S
C655 C656 1.381 . S
C655 H677 0.931 . S
C656 C655 1.381 . S
C656 C657 1.321 . S
C657 C656 1.321 . S
C657 C658 1.403 . S
C657 H678 0.934 . S
C658 C653 1.413 . S
C658 C657 1.403 . S
C658 H679 0.930 . S
C659 O670 1.275 . S
C659 O671 1.256 . S
O660 Ho640 2.322 . S
O660 C642 1.259 . S
O661 Ho641 2.346 . S
O661 C642 1.268 . S
O662 Ho640 2.378 . S
O662 C643 1.215 . S
O663 Ho640 2.524 . S
O663 C643 1.289 . S
O664 Ho640 2.381 . S
O664 C650 1.275 . S
O665 Ho640 2.669 . S
O665 Ho641 2.305 . S
O665 C650 1.256 . S
O666 Ho641 2.322 . S
O666 C651 1.259 . S
O667 Ho640 2.346 . S
O667 C651 1.268 . S
O668 Ho641 2.378 . S
O668 C652 1.215 . S
O669 Ho641 2.524 . S
O669 C652 1.289 . S
O670 Ho641 2.381 . S
O670 C659 1.275 . S
O671 Ho640 2.305 . S
O671 Ho641 2.669 . S
O671 C659 1.256 . S
H672 C645 0.930 . S
H673 C646 0.931 . S
H674 C648 0.934 . S
H675 C649 0.930 . S
H676 C654 0.930 . S
H677 C655 0.931 . S
H678 C657 0.934 . S
H679 C658 0.930 . S
Ho680 C683 2.811 . S
Ho680 O700 2.322 . S
Ho680 O702 2.378 . S
Ho680 O703 2.524 . S
Ho680 O704 2.381 . S
Ho680 O705 2.669 . S
Ho680 O707 2.346 . S
Ho680 O711 2.305 . S
Ho681 C692 2.811 . S
Ho681 O701 2.346 . S
Ho681 O705 2.305 . S
Ho681 O706 2.322 . S
Ho681 O708 2.378 . S
Ho681 O709 2.524 . S
Ho681 O710 2.381 . S
Ho681 O711 2.669 . S
C682 O700 1.259 . S
C682 O701 1.268 . S
C683 Ho680 2.811 . S
C683 C684 1.488 . S
C683 O702 1.215 . S
C683 O703 1.289 . S
C684 C683 1.488 . S
C684 C685 1.348 1_545 S
C684 C689 1.413 . S
C685 C684 1.348 1_565 S
C685 C686 1.442 . S
C685 H712 0.930 . S
C686 C685 1.442 . S
C686 C687 1.381 1_565 S
C686 H713 0.931 . S
C687 C686 1.381 1_545 S
C687 C688 1.321 . S
C688 C687 1.321 . S
C688 C689 1.403 . S
C688 H714 0.934 . S
C689 C684 1.413 . S
C689 C688 1.403 . S
C689 H715 0.930 . S
C690 O704 1.275 . S
C690 O705 1.256 . S
C691 O706 1.259 . S
C691 O707 1.268 . S
C692 Ho681 2.811 . S
C692 C693 1.488 . S
C692 O708 1.215 . S
C692 O709 1.289 . S
C693 C692 1.488 . S
C693 C694 1.348 . S
C693 C698 1.413 . S
C694 C693 1.348 . S
C694 C695 1.442 . S
C694 H716 0.930 . S
C695 C694 1.442 . S
C695 C696 1.381 . S
C695 H717 0.931 . S
C696 C695 1.381 . S
C696 C697 1.321 . S
C697 C696 1.321 . S
C697 C698 1.403 . S
C697 H718 0.934 . S
C698 C693 1.413 . S
C698 C697 1.403 . S
C698 H719 0.930 . S
C699 O710 1.275 . S
C699 O711 1.256 . S
O700 Ho680 2.322 . S
O700 C682 1.259 . S
O701 Ho681 2.346 . S
O701 C682 1.268 . S
O702 Ho680 2.378 . S
O702 C683 1.215 . S
O703 Ho680 2.524 . S
O703 C683 1.289 . S
O704 Ho680 2.381 . S
O704 C690 1.275 . S
O705 Ho680 2.669 . S
O705 Ho681 2.305 . S
O705 C690 1.256 . S
O706 Ho681 2.322 . S
O706 C691 1.259 . S
O707 Ho680 2.346 . S
O707 C691 1.268 . S
O708 Ho681 2.378 . S
O708 C692 1.215 . S
O709 Ho681 2.524 . S
O709 C692 1.289 . S
O710 Ho681 2.381 . S
O710 C699 1.275 . S
O711 Ho680 2.305 . S
O711 Ho681 2.669 . S
O711 C699 1.256 . S
H712 C685 0.930 . S
H713 C686 0.931 . S
H714 C688 0.934 . S
H715 C689 0.930 . S
H716 C694 0.930 . S
H717 C695 0.931 . S
H718 C697 0.934 . S
H719 C698 0.930 . S
Ho720 C723 2.811 . S
Ho720 O740 2.322 . S
Ho720 O742 2.378 . S
Ho720 O743 2.524 . S
Ho720 O744 2.381 . S
Ho720 O745 2.669 . S
Ho720 O747 2.346 . S
Ho720 O751 2.305 . S
Ho721 C732 2.811 . S
Ho721 O741 2.346 . S
Ho721 O745 2.305 . S
Ho721 O746 2.322 . S
Ho721 O748 2.378 . S
Ho721 O749 2.524 . S
Ho721 O750 2.381 . S
Ho721 O751 2.669 . S
C722 O740 1.259 . S
C722 O741 1.268 . S
C723 Ho720 2.811 . S
C723 C724 1.488 . S
C723 O742 1.215 . S
C723 O743 1.289 . S
C724 C723 1.488 . S
C724 C725 1.348 . S
C724 C729 1.413 . S
C725 C724 1.348 . S
C725 C726 1.442 . S
C725 H752 0.930 . S
C726 C725 1.442 . S
C726 C727 1.381 . S
C726 H753 0.931 . S
C727 C726 1.381 . S
C727 C728 1.321 . S
C728 C727 1.321 . S
C728 C729 1.403 . S
C728 H754 0.934 . S
C729 C724 1.413 . S
C729 C728 1.403 . S
C729 H755 0.930 . S
C730 O744 1.275 . S
C730 O745 1.256 . S
C731 O746 1.259 . S
C731 O747 1.268 . S
C732 Ho721 2.811 . S
C732 C733 1.488 . S
C732 O748 1.215 . S
C732 O749 1.289 . S
C733 C732 1.488 . S
C733 C734 1.348 . S
C733 C738 1.413 . S
C734 C733 1.348 . S
C734 C735 1.442 1_545 S
C734 H756 0.930 1_545 S
C735 C734 1.442 1_565 S
C735 C736 1.381 1_565 S
C735 H757 0.931 . S
C736 C735 1.381 1_545 S
C736 C737 1.321 . S
C737 C736 1.321 . S
C737 C738 1.403 . S
C737 H758 0.934 . S
C738 C733 1.413 . S
C738 C737 1.403 . S
C738 H759 0.930 . S
C739 O750 1.275 . S
C739 O751 1.256 . S
O740 Ho720 2.322 . S
O740 C722 1.259 . S
O741 Ho721 2.346 . S
O741 C722 1.268 . S
O742 Ho720 2.378 . S
O742 C723 1.215 . S
O743 Ho720 2.524 . S
O743 C723 1.289 . S
O744 Ho720 2.381 . S
O744 C730 1.275 . S
O745 Ho720 2.669 . S
O745 Ho721 2.305 . S
O745 C730 1.256 . S
O746 Ho721 2.322 . S
O746 C731 1.259 . S
O747 Ho720 2.346 . S
O747 C731 1.268 . S
O748 Ho721 2.378 . S
O748 C732 1.215 . S
O749 Ho721 2.524 . S
O749 C732 1.289 . S
O750 Ho721 2.381 . S
O750 C739 1.275 . S
O751 Ho720 2.305 . S
O751 Ho721 2.669 . S
O751 C739 1.256 . S
H752 C725 0.930 . S
H753 C726 0.931 . S
H754 C728 0.934 . S
H755 C729 0.930 . S
H756 C734 0.930 1_565 S
H757 C735 0.931 . S
H758 C737 0.934 . S
H759 C738 0.930 . S
Ho760 C763 2.811 . S
Ho760 O780 2.322 . S
Ho760 O782 2.378 . S
Ho760 O783 2.524 . S
Ho760 O784 2.381 . S
Ho760 O785 2.669 . S
Ho760 O787 2.346 . S
Ho760 O791 2.305 . S
Ho761 C772 2.811 . S
Ho761 O781 2.346 . S
Ho761 O785 2.305 . S
Ho761 O786 2.322 . S
Ho761 O788 2.378 . S
Ho761 O789 2.524 . S
Ho761 O790 2.381 . S
Ho761 O791 2.669 . S
C762 O780 1.259 . S
C762 O781 1.268 . S
C763 Ho760 2.811 . S
C763 C764 1.488 . S
C763 O782 1.215 . S
C763 O783 1.289 . S
C764 C763 1.488 . S
C764 C765 1.348 . S
C764 C769 1.413 . S
C765 C764 1.348 . S
C765 C766 1.442 . S
C765 H792 0.930 . S
C766 C765 1.442 . S
C766 C767 1.381 . S
C766 H793 0.931 . S
C767 C766 1.381 . S
C767 C768 1.321 . S
C768 C767 1.321 . S
C768 C769 1.403 . S
C768 H794 0.934 . S
C769 C764 1.413 . S
C769 C768 1.403 . S
C769 H795 0.930 . S
C770 O784 1.275 . S
C770 O785 1.256 . S
C771 O786 1.259 . S
C771 O787 1.268 . S
C772 Ho761 2.811 . S
C772 C773 1.488 . S
C772 O788 1.215 . S
C772 O789 1.289 . S
C773 C772 1.488 . S
C773 C774 1.348 . S
C773 C778 1.413 . S
C774 C773 1.348 . S
C774 C775 1.442 1_655 S
C774 H796 0.930 1_655 S
C775 C774 1.442 1_455 S
C775 C776 1.381 1_455 S
C775 H797 0.931 . S
C776 C775 1.381 1_655 S
C776 C777 1.321 . S
C777 C776 1.321 . S
C777 C778 1.403 . S
C777 H798 0.934 . S
C778 C773 1.413 . S
C778 C777 1.403 . S
C778 H799 0.930 . S
C779 O790 1.275 . S
C779 O791 1.256 . S
O780 Ho760 2.322 . S
O780 C762 1.259 . S
O781 Ho761 2.346 . S
O781 C762 1.268 . S
O782 Ho760 2.378 . S
O782 C763 1.215 . S
O783 Ho760 2.524 . S
O783 C763 1.289 . S
O784 Ho760 2.381 . S
O784 C770 1.275 . S
O785 Ho760 2.669 . S
O785 Ho761 2.305 . S
O785 C770 1.256 . S
O786 Ho761 2.322 . S
O786 C771 1.259 . S
O787 Ho760 2.346 . S
O787 C771 1.268 . S
O788 Ho761 2.378 . S
O788 C772 1.215 . S
O789 Ho761 2.524 . S
O789 C772 1.289 . S
O790 Ho761 2.381 . S
O790 C779 1.275 . S
O791 Ho760 2.305 . S
O791 Ho761 2.669 . S
O791 C779 1.256 . S
H792 C765 0.930 . S
H793 C766 0.931 . S
H794 C768 0.934 . S
H795 C769 0.930 . S
H796 C774 0.930 1_455 S
H797 C775 0.931 . S
H798 C777 0.934 . S
H799 C778 0.930 . S
Ho800 C803 2.811 . S
Ho800 O820 2.322 . S
Ho800 O822 2.378 . S
Ho800 O823 2.524 . S
Ho800 O824 2.381 . S
Ho800 O825 2.669 . S
Ho800 O827 2.346 . S
Ho800 O831 2.305 . S
Ho801 C812 2.811 . S
Ho801 O821 2.346 . S
Ho801 O825 2.305 . S
Ho801 O826 2.322 . S
Ho801 O828 2.378 . S
Ho801 O829 2.524 . S
Ho801 O830 2.381 . S
Ho801 O831 2.669 . S
C802 O820 1.259 . S
C802 O821 1.268 . S
C803 Ho800 2.811 . S
C803 C804 1.488 . S
C803 O822 1.215 . S
C803 O823 1.289 . S
C804 C803 1.488 . S
C804 C805 1.348 . S
C804 C809 1.413 . S
C805 C804 1.348 . S
C805 C806 1.442 . S
C805 H832 0.930 . S
C806 C805 1.442 . S
C806 C807 1.381 . S
C806 H833 0.931 . S
C807 C806 1.381 . S
C807 C808 1.321 . S
C808 C807 1.321 . S
C808 C809 1.403 . S
C808 H834 0.934 . S
C809 C804 1.413 . S
C809 C808 1.403 . S
C809 H835 0.930 . S
C810 O824 1.275 . S
C810 O825 1.256 . S
C811 O826 1.259 . S
C811 O827 1.268 . S
C812 Ho801 2.811 . S
C812 C813 1.488 . S
C812 O828 1.215 . S
C812 O829 1.289 . S
C813 C812 1.488 . S
C813 C814 1.348 . S
C813 C818 1.413 . S
C814 C813 1.348 . S
C814 C815 1.442 . S
C814 H836 0.930 . S
C815 C814 1.442 . S
C815 C816 1.381 . S
C815 H837 0.931 . S
C816 C815 1.381 . S
C816 C817 1.321 . S
C817 C816 1.321 . S
C817 C818 1.403 . S
C817 H838 0.934 . S
C818 C813 1.413 . S
C818 C817 1.403 . S
C818 H839 0.930 . S
C819 O830 1.275 . S
C819 O831 1.256 . S
O820 Ho800 2.322 . S
O820 C802 1.259 . S
O821 Ho801 2.346 . S
O821 C802 1.268 . S
O822 Ho800 2.378 . S
O822 C803 1.215 . S
O823 Ho800 2.524 . S
O823 C803 1.289 . S
O824 Ho800 2.381 . S
O824 C810 1.275 . S
O825 Ho800 2.669 . S
O825 Ho801 2.305 . S
O825 C810 1.256 . S
O826 Ho801 2.322 . S
O826 C811 1.259 . S
O827 Ho800 2.346 . S
O827 C811 1.268 . S
O828 Ho801 2.378 . S
O828 C812 1.215 . S
O829 Ho801 2.524 . S
O829 C812 1.289 . S
O830 Ho801 2.381 . S
O830 C819 1.275 . S
O831 Ho800 2.305 . S
O831 Ho801 2.669 . S
O831 C819 1.256 . S
H832 C805 0.930 . S
H833 C806 0.931 . S
H834 C808 0.934 . S
H835 C809 0.930 . S
H836 C814 0.930 . S
H837 C815 0.931 . S
H838 C817 0.934 . S
H839 C818 0.930 . S
Ho840 C843 2.811 . S
Ho840 O860 2.322 . S
Ho840 O862 2.378 . S
Ho840 O863 2.524 . S
Ho840 O864 2.381 . S
Ho840 O865 2.669 1_554 S
Ho840 O867 2.346 . S
Ho840 O871 2.305 . S
Ho841 C852 2.811 . S
Ho841 O861 2.346 . S
Ho841 O865 2.305 . S
Ho841 O866 2.322 . S
Ho841 O868 2.378 . S
Ho841 O869 2.524 . S
Ho841 O870 2.381 . S
Ho841 O871 2.669 1_556 S
C842 O860 1.259 . S
C842 O861 1.268 1_554 S
C843 Ho840 2.811 . S
C843 C844 1.488 . S
C843 O862 1.215 . S
C843 O863 1.289 . S
C844 C843 1.488 . S
C844 C845 1.348 . S
C844 C849 1.413 . S
C845 C844 1.348 . S
C845 C846 1.442 . S
C845 H872 0.930 . S
C846 C845 1.442 . S
C846 C847 1.381 . S
C846 H873 0.931 . S
C847 C846 1.381 . S
C847 C848 1.321 . S
C848 C847 1.321 . S
C848 C849 1.403 . S
C848 H874 0.934 . S
C849 C844 1.413 . S
C849 C848 1.403 . S
C849 H875 0.930 . S
C850 O864 1.275 . S
C850 O865 1.256 1_554 S
C851 O866 1.259 . S
C851 O867 1.268 1_556 S
C852 Ho841 2.811 . S
C852 C853 1.488 . S
C852 O868 1.215 . S
C852 O869 1.289 . S
C853 C852 1.488 . S
C853 C854 1.348 . S
C853 C858 1.413 . S
C854 C853 1.348 . S
C854 C855 1.442 . S
C854 H876 0.930 . S
C855 C854 1.442 . S
C855 C856 1.381 . S
C855 H877 0.931 . S
C856 C855 1.381 . S
C856 C857 1.321 . S
C857 C856 1.321 . S
C857 C858 1.403 . S
C857 H878 0.934 . S
C858 C853 1.413 . S
C858 C857 1.403 . S
C858 H879 0.930 . S
C859 O870 1.275 . S
C859 O871 1.256 1_556 S
O860 Ho840 2.322 . S
O860 C842 1.259 . S
O861 Ho841 2.346 . S
O861 C842 1.268 1_556 S
O862 Ho840 2.378 . S
O862 C843 1.215 . S
O863 Ho840 2.524 . S
O863 C843 1.289 . S
O864 Ho840 2.381 . S
O864 C850 1.275 . S
O865 Ho840 2.669 1_556 S
O865 Ho841 2.305 . S
O865 C850 1.256 1_556 S
O866 Ho841 2.322 . S
O866 C851 1.259 . S
O867 Ho840 2.346 . S
O867 C851 1.268 1_554 S
O868 Ho841 2.378 . S
O868 C852 1.215 . S
O869 Ho841 2.524 . S
O869 C852 1.289 . S
O870 Ho841 2.381 . S
O870 C859 1.275 . S
O871 Ho840 2.305 . S
O871 Ho841 2.669 1_554 S
O871 C859 1.256 1_554 S
H872 C845 0.930 . S
H873 C846 0.931 . S
H874 C848 0.934 . S
H875 C849 0.930 . S
H876 C854 0.930 . S
H877 C855 0.931 . S
H878 C857 0.934 . S
H879 C858 0.930 . S
Ho880 C883 2.811 . S
Ho880 O900 2.322 . S
Ho880 O902 2.378 . S
Ho880 O903 2.524 . S
Ho880 O904 2.381 . S
Ho880 O905 2.669 1_554 S
Ho880 O907 2.346 . S
Ho880 O911 2.305 . S
Ho881 C892 2.811 . S
Ho881 O901 2.346 . S
Ho881 O905 2.305 . S
Ho881 O906 2.322 . S
Ho881 O908 2.378 . S
Ho881 O909 2.524 . S
Ho881 O910 2.381 . S
Ho881 O911 2.669 1_556 S
C882 O900 1.259 . S
C882 O901 1.268 1_554 S
C883 Ho880 2.811 . S
C883 C884 1.488 . S
C883 O902 1.215 . S
C883 O903 1.289 . S
C884 C883 1.488 . S
C884 C885 1.348 . S
C884 C889 1.413 . S
C885 C884 1.348 . S
C885 C886 1.442 . S
C885 H912 0.930 . S
C886 C885 1.442 . S
C886 C887 1.381 . S
C886 H913 0.931 . S
C887 C886 1.381 . S
C887 C888 1.321 . S
C888 C887 1.321 . S
C888 C889 1.403 . S
C888 H914 0.934 . S
C889 C884 1.413 . S
C889 C888 1.403 . S
C889 H915 0.930 . S
C890 O904 1.275 . S
C890 O905 1.256 1_554 S
C891 O906 1.259 . S
C891 O907 1.268 1_556 S
C892 Ho881 2.811 . S
C892 C893 1.488 . S
C892 O908 1.215 . S
C892 O909 1.289 . S
C893 C892 1.488 . S
C893 C894 1.348 . S
C893 C898 1.413 . S
C894 C893 1.348 . S
C894 C895 1.442 . S
C894 H916 0.930 . S
C895 C894 1.442 . S
C895 C896 1.381 . S
C895 H917 0.931 . S
C896 C895 1.381 . S
C896 C897 1.321 . S
C897 C896 1.321 . S
C897 C898 1.403 . S
C897 H918 0.934 . S
C898 C893 1.413 . S
C898 C897 1.403 . S
C898 H919 0.930 . S
C899 O910 1.275 . S
C899 O911 1.256 1_556 S
O900 Ho880 2.322 . S
O900 C882 1.259 . S
O901 Ho881 2.346 . S
O901 C882 1.268 1_556 S
O902 Ho880 2.378 . S
O902 C883 1.215 . S
O903 Ho880 2.524 . S
O903 C883 1.289 . S
O904 Ho880 2.381 . S
O904 C890 1.275 . S
O905 Ho880 2.669 1_556 S
O905 Ho881 2.305 . S
O905 C890 1.256 1_556 S
O906 Ho881 2.322 . S
O906 C891 1.259 . S
O907 Ho880 2.346 . S
O907 C891 1.268 1_554 S
O908 Ho881 2.378 . S
O908 C892 1.215 . S
O909 Ho881 2.524 . S
O909 C892 1.289 . S
O910 Ho881 2.381 . S
O910 C899 1.275 . S
O911 Ho880 2.305 . S
O911 Ho881 2.669 1_554 S
O911 C899 1.256 1_554 S
H912 C885 0.930 . S
H913 C886 0.931 . S
H914 C888 0.934 . S
H915 C889 0.930 . S
H916 C894 0.930 . S
H917 C895 0.931 . S
H918 C897 0.934 . S
H919 C898 0.930 . S
Ho920 C923 2.811 . S
Ho920 O940 2.322 . S
Ho920 O942 2.378 . S
Ho920 O943 2.524 . S
Ho920 O944 2.381 . S
Ho920 O945 2.669 1_554 S
Ho920 O947 2.346 . S
Ho920 O951 2.305 . S
Ho921 C932 2.811 . S
Ho921 O941 2.346 . S
Ho921 O945 2.305 . S
Ho921 O946 2.322 . S
Ho921 O948 2.378 . S
Ho921 O949 2.524 . S
Ho921 O950 2.381 . S
Ho921 O951 2.669 1_556 S
C922 O940 1.259 . S
C922 O941 1.268 1_554 S
C923 Ho920 2.811 . S
C923 C924 1.488 . S
C923 O942 1.215 . S
C923 O943 1.289 . S
C924 C923 1.488 . S
C924 C925 1.348 . S
C924 C929 1.413 . S
C925 C924 1.348 . S
C925 C926 1.442 . S
C925 H952 0.930 . S
C926 C925 1.442 . S
C926 C927 1.381 . S
C926 H953 0.931 . S
C927 C926 1.381 . S
C927 C928 1.321 . S
C928 C927 1.321 . S
C928 C929 1.403 . S
C928 H954 0.934 . S
C929 C924 1.413 . S
C929 C928 1.403 . S
C929 H955 0.930 . S
C930 O944 1.275 . S
C930 O945 1.256 1_554 S
C931 O946 1.259 . S
C931 O947 1.268 1_556 S
C932 Ho921 2.811 . S
C932 C933 1.488 . S
C932 O948 1.215 . S
C932 O949 1.289 . S
C933 C932 1.488 . S
C933 C934 1.348 . S
C933 C938 1.413 . S
C934 C933 1.348 . S
C934 C935 1.442 . S
C934 H956 0.930 . S
C935 C934 1.442 . S
C935 C936 1.381 . S
C935 H957 0.931 . S
C936 C935 1.381 . S
C936 C937 1.321 . S
C937 C936 1.321 . S
C937 C938 1.403 . S
C937 H958 0.934 . S
C938 C933 1.413 . S
C938 C937 1.403 . S
C938 H959 0.930 . S
C939 O950 1.275 . S
C939 O951 1.256 1_556 S
O940 Ho920 2.322 . S
O940 C922 1.259 . S
O941 Ho921 2.346 . S
O941 C922 1.268 1_556 S
O942 Ho920 2.378 . S
O942 C923 1.215 . S
O943 Ho920 2.524 . S
O943 C923 1.289 . S
O944 Ho920 2.381 . S
O944 C930 1.275 . S
O945 Ho920 2.669 1_556 S
O945 Ho921 2.305 . S
O945 C930 1.256 1_556 S
O946 Ho921 2.322 . S
O946 C931 1.259 . S
O947 Ho920 2.346 . S
O947 C931 1.268 1_554 S
O948 Ho921 2.378 . S
O948 C932 1.215 . S
O949 Ho921 2.524 . S
O949 C932 1.289 . S
O950 Ho921 2.381 . S
O950 C939 1.275 . S
O951 Ho920 2.305 . S
O951 Ho921 2.669 1_554 S
O951 C939 1.256 1_554 S
H952 C925 0.930 . S
H953 C926 0.931 . S
H954 C928 0.934 . S
H955 C929 0.930 . S
H956 C934 0.930 . S
H957 C935 0.931 . S
H958 C937 0.934 . S
H959 C938 0.930 . S
Ho960 C963 2.811 . S
Ho960 O980 2.322 . S
Ho960 O982 2.378 . S
Ho960 O983 2.524 . S
Ho960 O984 2.381 . S
Ho960 O985 2.669 . S
Ho960 O987 2.346 . S
Ho960 O991 2.305 . S
Ho961 C972 2.811 . S
Ho961 O981 2.346 . S
Ho961 O985 2.305 . S
Ho961 O986 2.322 . S
Ho961 O988 2.378 . S
Ho961 O989 2.524 . S
Ho961 O990 2.381 . S
Ho961 O991 2.669 . S
C962 O980 1.259 . S
C962 O981 1.268 . S
C963 Ho960 2.811 . S
C963 C964 1.488 . S
C963 O982 1.215 . S
C963 O983 1.289 . S
C964 C963 1.488 . S
C964 C965 1.348 . S
C964 C969 1.413 . S
C965 C964 1.348 . S
C965 C966 1.442 1_565 S
C965 H992 0.930 1_565 S
C966 C965 1.442 1_545 S
C966 C967 1.381 1_545 S
C966 H993 0.931 . S
C967 C966 1.381 1_565 S
C967 C968 1.321 . S
C968 C967 1.321 . S
C968 C969 1.403 . S
C968 H994 0.934 . S
C969 C964 1.413 . S
C969 C968 1.403 . S
C969 H995 0.930 . S
C970 O984 1.275 . S
C970 O985 1.256 . S
C971 O986 1.259 . S
C971 O987 1.268 . S
C972 Ho961 2.811 . S
C972 C973 1.488 . S
C972 O988 1.215 . S
C972 O989 1.289 . S
C973 C972 1.488 . S
C973 C974 1.348 . S
C973 C978 1.413 . S
C974 C973 1.348 . S
C974 C975 1.442 . S
C974 H996 0.930 . S
C975 C974 1.442 . S
C975 C976 1.381 . S
C975 H997 0.931 . S
C976 C975 1.381 . S
C976 C977 1.321 . S
C977 C976 1.321 . S
C977 C978 1.403 . S
C977 H998 0.934 . S
C978 C973 1.413 . S
C978 C977 1.403 . S
C978 H999 0.930 . S
C979 O990 1.275 . S
C979 O991 1.256 . S
O980 Ho960 2.322 . S
O980 C962 1.259 . S
O981 Ho961 2.346 . S
O981 C962 1.268 . S
O982 Ho960 2.378 . S
O982 C963 1.215 . S
O983 Ho960 2.524 . S
O983 C963 1.289 . S
O984 Ho960 2.381 . S
O984 C970 1.275 . S
O985 Ho960 2.669 . S
O985 Ho961 2.305 . S
O985 C970 1.256 . S
O986 Ho961 2.322 . S
O986 C971 1.259 . S
O987 Ho960 2.346 . S
O987 C971 1.268 . S
O988 Ho961 2.378 . S
O988 C972 1.215 . S
O989 Ho961 2.524 . S
O989 C972 1.289 . S
O990 Ho961 2.381 . S
O990 C979 1.275 . S
O991 Ho960 2.305 . S
O991 Ho961 2.669 . S
O991 C979 1.256 . S
H992 C965 0.930 1_545 S
H993 C966 0.931 . S
H994 C968 0.934 . S
H995 C969 0.930 . S
H996 C974 0.930 . S
H997 C975 0.931 . S
H998 C977 0.934 . S
H999 C978 0.930 . S
Ho1000 C1003 2.811 . S
Ho1000 O1020 2.322 . S
Ho1000 O1022 2.378 . S
Ho1000 O1023 2.524 . S
Ho1000 O1024 2.381 . S
Ho1000 O1025 2.669 . S
Ho1000 O1027 2.346 . S
Ho1000 O1031 2.305 . S
Ho1001 C1012 2.811 . S
Ho1001 O1021 2.346 . S
Ho1001 O1025 2.305 . S
Ho1001 O1026 2.322 . S
Ho1001 O1028 2.378 . S
Ho1001 O1029 2.524 . S
Ho1001 O1030 2.381 . S
Ho1001 O1031 2.669 . S
C1002 O1020 1.259 . S
C1002 O1021 1.268 . S
C1003 Ho1000 2.811 . S
C1003 C1004 1.488 . S
C1003 O1022 1.215 . S
C1003 O1023 1.289 . S
C1004 C1003 1.488 . S
C1004 C1005 1.348 . S
C1004 C1009 1.413 . S
C1005 C1004 1.348 . S
C1005 C1006 1.442 1_455 S
C1005 H1032 0.930 1_455 S
C1006 C1005 1.442 1_655 S
C1006 C1007 1.381 1_655 S
C1006 H1033 0.931 . S
C1007 C1006 1.381 1_455 S
C1007 C1008 1.321 . S
C1008 C1007 1.321 . S
C1008 C1009 1.403 . S
C1008 H1034 0.934 . S
C1009 C1004 1.413 . S
C1009 C1008 1.403 . S
C1009 H1035 0.930 . S
C1010 O1024 1.275 . S
C1010 O1025 1.256 . S
C1011 O1026 1.259 . S
C1011 O1027 1.268 . S
C1012 Ho1001 2.811 . S
C1012 C1013 1.488 . S
C1012 O1028 1.215 . S
C1012 O1029 1.289 . S
C1013 C1012 1.488 . S
C1013 C1014 1.348 . S
C1013 C1018 1.413 . S
C1014 C1013 1.348 . S
C1014 C1015 1.442 . S
C1014 H1036 0.930 . S
C1015 C1014 1.442 . S
C1015 C1016 1.381 . S
C1015 H1037 0.931 . S
C1016 C1015 1.381 . S
C1016 C1017 1.321 . S
C1017 C1016 1.321 . S
C1017 C1018 1.403 . S
C1017 H1038 0.934 . S
C1018 C1013 1.413 . S
C1018 C1017 1.403 . S
C1018 H1039 0.930 . S
C1019 O1030 1.275 . S
C1019 O1031 1.256 . S
O1020 Ho1000 2.322 . S
O1020 C1002 1.259 . S
O1021 Ho1001 2.346 . S
O1021 C1002 1.268 . S
O1022 Ho1000 2.378 . S
O1022 C1003 1.215 . S
O1023 Ho1000 2.524 . S
O1023 C1003 1.289 . S
O1024 Ho1000 2.381 . S
O1024 C1010 1.275 . S
O1025 Ho1000 2.669 . S
O1025 Ho1001 2.305 . S
O1025 C1010 1.256 . S
O1026 Ho1001 2.322 . S
O1026 C1011 1.259 . S
O1027 Ho1000 2.346 . S
O1027 C1011 1.268 . S
O1028 Ho1001 2.378 . S
O1028 C1012 1.215 . S
O1029 Ho1001 2.524 . S
O1029 C1012 1.289 . S
O1030 Ho1001 2.381 . S
O1030 C1019 1.275 . S
O1031 Ho1000 2.305 . S
O1031 Ho1001 2.669 . S
O1031 C1019 1.256 . S
H1032 C1005 0.930 1_655 S
H1033 C1006 0.931 . S
H1034 C1008 0.934 . S
H1035 C1009 0.930 . S
H1036 C1014 0.930 . S
H1037 C1015 0.931 . S
H1038 C1017 0.934 . S
H1039 C1018 0.930 . S
Ho1040 C1043 2.811 . S
Ho1040 O1060 2.322 . S
Ho1040 O1062 2.378 . S
Ho1040 O1063 2.524 . S
Ho1040 O1064 2.381 . S
Ho1040 O1065 2.669 . S
Ho1040 O1067 2.346 . S
Ho1040 O1071 2.305 . S
Ho1041 C1052 2.811 . S
Ho1041 O1061 2.346 . S
Ho1041 O1065 2.305 . S
Ho1041 O1066 2.322 . S
Ho1041 O1068 2.378 . S
Ho1041 O1069 2.524 . S
Ho1041 O1070 2.381 . S
Ho1041 O1071 2.669 . S
C1042 O1060 1.259 . S
C1042 O1061 1.268 . S
C1043 Ho1040 2.811 . S
C1043 C1044 1.488 . S
C1043 O1062 1.215 . S
C1043 O1063 1.289 . S
C1044 C1043 1.488 . S
C1044 C1045 1.348 . S
C1044 C1049 1.413 . S
C1045 C1044 1.348 . S
C1045 C1046 1.442 . S
C1045 H1072 0.930 . S
C1046 C1045 1.442 . S
C1046 C1047 1.381 . S
C1046 H1073 0.931 . S
C1047 C1046 1.381 . S
C1047 C1048 1.321 . S
C1048 C1047 1.321 . S
C1048 C1049 1.403 . S
C1048 H1074 0.934 . S
C1049 C1044 1.413 . S
C1049 C1048 1.403 . S
C1049 H1075 0.930 . S
C1050 O1064 1.275 . S
C1050 O1065 1.256 . S
C1051 O1066 1.259 . S
C1051 O1067 1.268 . S
C1052 Ho1041 2.811 . S
C1052 C1053 1.488 . S
C1052 O1068 1.215 . S
C1052 O1069 1.289 . S
C1053 C1052 1.488 . S
C1053 C1054 1.348 . S
C1053 C1058 1.413 . S
C1054 C1053 1.348 . S
C1054 C1055 1.442 . S
C1054 H1076 0.930 . S
C1055 C1054 1.442 . S
C1055 C1056 1.381 . S
C1055 H1077 0.931 . S
C1056 C1055 1.381 . S
C1056 C1057 1.321 . S
C1057 C1056 1.321 . S
C1057 C1058 1.403 . S
C1057 H1078 0.934 . S
C1058 C1053 1.413 . S
C1058 C1057 1.403 . S
C1058 H1079 0.930 . S
C1059 O1070 1.275 . S
C1059 O1071 1.256 . S
O1060 Ho1040 2.322 . S
O1060 C1042 1.259 . S
O1061 Ho1041 2.346 . S
O1061 C1042 1.268 . S
O1062 Ho1040 2.378 . S
O1062 C1043 1.215 . S
O1063 Ho1040 2.524 . S
O1063 C1043 1.289 . S
O1064 Ho1040 2.381 . S
O1064 C1050 1.275 . S
O1065 Ho1040 2.669 . S
O1065 Ho1041 2.305 . S
O1065 C1050 1.256 . S
O1066 Ho1041 2.322 . S
O1066 C1051 1.259 . S
O1067 Ho1040 2.346 . S
O1067 C1051 1.268 . S
O1068 Ho1041 2.378 . S
O1068 C1052 1.215 . S
O1069 Ho1041 2.524 . S
O1069 C1052 1.289 . S
O1070 Ho1041 2.381 . S
O1070 C1059 1.275 . S
O1071 Ho1040 2.305 . S
O1071 Ho1041 2.669 . S
O1071 C1059 1.256 . S
H1072 C1045 0.930 . S
H1073 C1046 0.931 . S
H1074 C1048 0.934 . S
H1075 C1049 0.930 . S
H1076 C1054 0.930 . S
H1077 C1055 0.931 . S
H1078 C1057 0.934 . S
H1079 C1058 0.930 . S
Ho1080 C1083 2.811 . S
Ho1080 O1100 2.322 . S
Ho1080 O1102 2.378 . S
Ho1080 O1103 2.524 . S
Ho1080 O1104 2.381 . S
Ho1080 O1105 2.669 1_554 S
Ho1080 O1107 2.346 . S
Ho1080 O1111 2.305 . S
Ho1081 C1092 2.811 . S
Ho1081 O1101 2.346 . S
Ho1081 O1105 2.305 . S
Ho1081 O1106 2.322 . S
Ho1081 O1108 2.378 . S
Ho1081 O1109 2.524 . S
Ho1081 O1110 2.381 . S
Ho1081 O1111 2.669 1_556 S
C1082 O1100 1.259 . S
C1082 O1101 1.268 1_554 S
C1083 Ho1080 2.811 . S
C1083 C1084 1.488 . S
C1083 O1102 1.215 . S
C1083 O1103 1.289 . S
C1084 C1083 1.488 . S
C1084 C1085 1.348 . S
C1084 C1089 1.413 . S
C1085 C1084 1.348 . S
C1085 C1086 1.442 . S
C1085 H1112 0.930 . S
C1086 C1085 1.442 . S
C1086 C1087 1.381 . S
C1086 H1113 0.931 . S
C1087 C1086 1.381 . S
C1087 C1088 1.321 . S
C1088 C1087 1.321 . S
C1088 C1089 1.403 . S
C1088 H1114 0.934 . S
C1089 C1084 1.413 . S
C1089 C1088 1.403 . S
C1089 H1115 0.930 . S
C1090 O1104 1.275 . S
C1090 O1105 1.256 1_554 S
C1091 O1106 1.259 . S
C1091 O1107 1.268 1_556 S
C1092 Ho1081 2.811 . S
C1092 C1093 1.488 . S
C1092 O1108 1.215 . S
C1092 O1109 1.289 . S
C1093 C1092 1.488 . S
C1093 C1094 1.348 . S
C1093 C1098 1.413 . S
C1094 C1093 1.348 . S
C1094 C1095 1.442 . S
C1094 H1116 0.930 . S
C1095 C1094 1.442 . S
C1095 C1096 1.381 . S
C1095 H1117 0.931 . S
C1096 C1095 1.381 . S
C1096 C1097 1.321 . S
C1097 C1096 1.321 . S
C1097 C1098 1.403 . S
C1097 H1118 0.934 . S
C1098 C1093 1.413 . S
C1098 C1097 1.403 . S
C1098 H1119 0.930 . S
C1099 O1110 1.275 . S
C1099 O1111 1.256 1_556 S
O1100 Ho1080 2.322 . S
O1100 C1082 1.259 . S
O1101 Ho1081 2.346 . S
O1101 C1082 1.268 1_556 S
O1102 Ho1080 2.378 . S
O1102 C1083 1.215 . S
O1103 Ho1080 2.524 . S
O1103 C1083 1.289 . S
O1104 Ho1080 2.381 . S
O1104 C1090 1.275 . S
O1105 Ho1080 2.669 1_556 S
O1105 Ho1081 2.305 . S
O1105 C1090 1.256 1_556 S
O1106 Ho1081 2.322 . S
O1106 C1091 1.259 . S
O1107 Ho1080 2.346 . S
O1107 C1091 1.268 1_554 S
O1108 Ho1081 2.378 . S
O1108 C1092 1.215 . S
O1109 Ho1081 2.524 . S
O1109 C1092 1.289 . S
O1110 Ho1081 2.381 . S
O1110 C1099 1.275 . S
O1111 Ho1080 2.305 . S
O1111 Ho1081 2.669 1_554 S
O1111 C1099 1.256 1_554 S
H1112 C1085 0.930 . S
H1113 C1086 0.931 . S
H1114 C1088 0.934 . S
H1115 C1089 0.930 . S
H1116 C1094 0.930 . S
H1117 C1095 0.931 . S
H1118 C1097 0.934 . S
H1119 C1098 0.930 . S
Ho1120 C1123 2.811 . S
Ho1120 O1140 2.322 . S
Ho1120 O1142 2.378 . S
Ho1120 O1143 2.524 . S
Ho1120 O1144 2.381 . S
Ho1120 O1145 2.669 1_554 S
Ho1120 O1147 2.346 . S
Ho1120 O1151 2.305 . S
Ho1121 C1132 2.811 . S
Ho1121 O1141 2.346 . S
Ho1121 O1145 2.305 . S
Ho1121 O1146 2.322 . S
Ho1121 O1148 2.378 . S
Ho1121 O1149 2.524 . S
Ho1121 O1150 2.381 . S
Ho1121 O1151 2.669 1_556 S
C1122 O1140 1.259 . S
C1122 O1141 1.268 1_554 S
C1123 Ho1120 2.811 . S
C1123 C1124 1.488 . S
C1123 O1142 1.215 . S
C1123 O1143 1.289 . S
C1124 C1123 1.488 . S
C1124 C1125 1.348 . S
C1124 C1129 1.413 . S
C1125 C1124 1.348 . S
C1125 C1126 1.442 . S
C1125 H1152 0.930 . S
C1126 C1125 1.442 . S
C1126 C1127 1.381 . S
C1126 H1153 0.931 . S
C1127 C1126 1.381 . S
C1127 C1128 1.321 . S
C1128 C1127 1.321 . S
C1128 C1129 1.403 . S
C1128 H1154 0.934 . S
C1129 C1124 1.413 . S
C1129 C1128 1.403 . S
C1129 H1155 0.930 . S
C1130 O1144 1.275 . S
C1130 O1145 1.256 1_554 S
C1131 O1146 1.259 . S
C1131 O1147 1.268 1_556 S
C1132 Ho1121 2.811 . S
C1132 C1133 1.488 . S
C1132 O1148 1.215 . S
C1132 O1149 1.289 . S
C1133 C1132 1.488 . S
C1133 C1134 1.348 . S
C1133 C1138 1.413 . S
C1134 C1133 1.348 . S
C1134 C1135 1.442 . S
C1134 H1156 0.930 . S
C1135 C1134 1.442 . S
C1135 C1136 1.381 . S
C1135 H1157 0.931 . S
C1136 C1135 1.381 . S
C1136 C1137 1.321 . S
C1137 C1136 1.321 . S
C1137 C1138 1.403 . S
C1137 H1158 0.934 . S
C1138 C1133 1.413 . S
C1138 C1137 1.403 . S
C1138 H1159 0.930 . S
C1139 O1150 1.275 . S
C1139 O1151 1.256 1_556 S
O1140 Ho1120 2.322 . S
O1140 C1122 1.259 . S
O1141 Ho1121 2.346 . S
O1141 C1122 1.268 1_556 S
O1142 Ho1120 2.378 . S
O1142 C1123 1.215 . S
O1143 Ho1120 2.524 . S
O1143 C1123 1.289 . S
O1144 Ho1120 2.381 . S
O1144 C1130 1.275 . S
O1145 Ho1120 2.669 1_556 S
O1145 Ho1121 2.305 . S
O1145 C1130 1.256 1_556 S
O1146 Ho1121 2.322 . S
O1146 C1131 1.259 . S
O1147 Ho1120 2.346 . S
O1147 C1131 1.268 1_554 S
O1148 Ho1121 2.378 . S
O1148 C1132 1.215 . S
O1149 Ho1121 2.524 . S
O1149 C1132 1.289 . S
O1150 Ho1121 2.381 . S
O1150 C1139 1.275 . S
O1151 Ho1120 2.305 . S
O1151 Ho1121 2.669 1_554 S
O1151 C1139 1.256 1_554 S
H1152 C1125 0.930 . S
H1153 C1126 0.931 . S
H1154 C1128 0.934 . S
H1155 C1129 0.930 . S
H1156 C1134 0.930 . S
H1157 C1135 0.931 . S
H1158 C1137 0.934 . S
H1159 C1138 0.930 . S
Ho1160 C1163 2.811 . S
Ho1160 O1180 2.322 . S
Ho1160 O1182 2.378 . S
Ho1160 O1183 2.524 . S
Ho1160 O1184 2.381 . S
Ho1160 O1185 2.669 1_554 S
Ho1160 O1187 2.346 . S
Ho1160 O1191 2.305 . S
Ho1161 C1172 2.811 . S
Ho1161 O1181 2.346 . S
Ho1161 O1185 2.305 . S
Ho1161 O1186 2.322 . S
Ho1161 O1188 2.378 . S
Ho1161 O1189 2.524 . S
Ho1161 O1190 2.381 . S
Ho1161 O1191 2.669 1_556 S
C1162 O1180 1.259 . S
C1162 O1181 1.268 1_554 S
C1163 Ho1160 2.811 . S
C1163 C1164 1.488 . S
C1163 O1182 1.215 . S
C1163 O1183 1.289 . S
C1164 C1163 1.488 . S
C1164 C1165 1.348 . S
C1164 C1169 1.413 . S
C1165 C1164 1.348 . S
C1165 C1166 1.442 . S
C1165 H1192 0.930 . S
C1166 C1165 1.442 . S
C1166 C1167 1.381 . S
C1166 H1193 0.931 . S
C1167 C1166 1.381 . S
C1167 C1168 1.321 . S
C1168 C1167 1.321 . S
C1168 C1169 1.403 . S
C1168 H1194 0.934 . S
C1169 C1164 1.413 . S
C1169 C1168 1.403 . S
C1169 H1195 0.930 . S
C1170 O1184 1.275 . S
C1170 O1185 1.256 1_554 S
C1171 O1186 1.259 . S
C1171 O1187 1.268 1_556 S
C1172 Ho1161 2.811 . S
C1172 C1173 1.488 . S
C1172 O1188 1.215 . S
C1172 O1189 1.289 . S
C1173 C1172 1.488 . S
C1173 C1174 1.348 . S
C1173 C1178 1.413 . S
C1174 C1173 1.348 . S
C1174 C1175 1.442 . S
C1174 H1196 0.930 . S
C1175 C1174 1.442 . S
C1175 C1176 1.381 . S
C1175 H1197 0.931 . S
C1176 C1175 1.381 . S
C1176 C1177 1.321 . S
C1177 C1176 1.321 . S
C1177 C1178 1.403 . S
C1177 H1198 0.934 . S
C1178 C1173 1.413 . S
C1178 C1177 1.403 . S
C1178 H1199 0.930 . S
C1179 O1190 1.275 . S
C1179 O1191 1.256 1_556 S
O1180 Ho1160 2.322 . S
O1180 C1162 1.259 . S
O1181 Ho1161 2.346 . S
O1181 C1162 1.268 1_556 S
O1182 Ho1160 2.378 . S
O1182 C1163 1.215 . S
O1183 Ho1160 2.524 . S
O1183 C1163 1.289 . S
O1184 Ho1160 2.381 . S
O1184 C1170 1.275 . S
O1185 Ho1160 2.669 1_556 S
O1185 Ho1161 2.305 . S
O1185 C1170 1.256 1_556 S
O1186 Ho1161 2.322 . S
O1186 C1171 1.259 . S
O1187 Ho1160 2.346 . S
O1187 C1171 1.268 1_554 S
O1188 Ho1161 2.378 . S
O1188 C1172 1.215 . S
O1189 Ho1161 2.524 . S
O1189 C1172 1.289 . S
O1190 Ho1161 2.381 . S
O1190 C1179 1.275 . S
O1191 Ho1160 2.305 . S
O1191 Ho1161 2.669 1_554 S
O1191 C1179 1.256 1_554 S
H1192 C1165 0.930 . S
H1193 C1166 0.931 . S
H1194 C1168 0.934 . S
H1195 C1169 0.930 . S
H1196 C1174 0.930 . S
H1197 C1175 0.931 . S
H1198 C1177 0.934 . S
H1199 C1178 0.930 . S
Ho1200 C1203 2.811 . S
Ho1200 O1220 2.322 . S
Ho1200 O1222 2.378 . S
Ho1200 O1223 2.524 . S
Ho1200 O1224 2.381 . S
Ho1200 O1225 2.669 . S
Ho1200 O1227 2.346 . S
Ho1200 O1231 2.305 . S
Ho1201 C1212 2.811 . S
Ho1201 O1221 2.346 . S
Ho1201 O1225 2.305 . S
Ho1201 O1226 2.322 . S
Ho1201 O1228 2.378 . S
Ho1201 O1229 2.524 . S
Ho1201 O1230 2.381 . S
Ho1201 O1231 2.669 . S
C1202 O1220 1.259 . S
C1202 O1221 1.268 . S
C1203 Ho1200 2.811 . S
C1203 C1204 1.488 . S
C1203 O1222 1.215 . S
C1203 O1223 1.289 . S
C1204 C1203 1.488 . S
C1204 C1205 1.348 . S
C1204 C1209 1.413 . S
C1205 C1204 1.348 . S
C1205 C1206 1.442 . S
C1205 H1232 0.930 . S
C1206 C1205 1.442 . S
C1206 C1207 1.381 . S
C1206 H1233 0.931 . S
C1207 C1206 1.381 . S
C1207 C1208 1.321 . S
C1208 C1207 1.321 . S
C1208 C1209 1.403 . S
C1208 H1234 0.934 . S
C1209 C1204 1.413 . S
C1209 C1208 1.403 . S
C1209 H1235 0.930 . S
C1210 O1224 1.275 . S
C1210 O1225 1.256 . S
C1211 O1226 1.259 . S
C1211 O1227 1.268 . S
C1212 Ho1201 2.811 . S
C1212 C1213 1.488 . S
C1212 O1228 1.215 . S
C1212 O1229 1.289 . S
C1213 C1212 1.488 . S
C1213 C1214 1.348 . S
C1213 C1218 1.413 . S
C1214 C1213 1.348 . S
C1214 C1215 1.442 . S
C1214 H1236 0.930 . S
C1215 C1214 1.442 . S
C1215 C1216 1.381 . S
C1215 H1237 0.931 . S
C1216 C1215 1.381 . S
C1216 C1217 1.321 . S
C1217 C1216 1.321 . S
C1217 C1218 1.403 . S
C1217 H1238 0.934 . S
C1218 C1213 1.413 . S
C1218 C1217 1.403 . S
C1218 H1239 0.930 . S
C1219 O1230 1.275 . S
C1219 O1231 1.256 . S
O1220 Ho1200 2.322 . S
O1220 C1202 1.259 . S
O1221 Ho1201 2.346 . S
O1221 C1202 1.268 . S
O1222 Ho1200 2.378 . S
O1222 C1203 1.215 . S
O1223 Ho1200 2.524 . S
O1223 C1203 1.289 . S
O1224 Ho1200 2.381 . S
O1224 C1210 1.275 . S
O1225 Ho1200 2.669 . S
O1225 Ho1201 2.305 . S
O1225 C1210 1.256 . S
O1226 Ho1201 2.322 . S
O1226 C1211 1.259 . S
O1227 Ho1200 2.346 . S
O1227 C1211 1.268 . S
O1228 Ho1201 2.378 . S
O1228 C1212 1.215 . S
O1229 Ho1201 2.524 . S
O1229 C1212 1.289 . S
O1230 Ho1201 2.381 . S
O1230 C1219 1.275 . S
O1231 Ho1200 2.305 . S
O1231 Ho1201 2.669 . S
O1231 C1219 1.256 . S
H1232 C1205 0.930 . S
H1233 C1206 0.931 . S
H1234 C1208 0.934 . S
H1235 C1209 0.930 . S
H1236 C1214 0.930 . S
H1237 C1215 0.931 . S
H1238 C1217 0.934 . S
H1239 C1218 0.930 . S
Ho1240 C1243 2.811 . S
Ho1240 O1260 2.322 . S
Ho1240 O1262 2.378 . S
Ho1240 O1263 2.524 . S
Ho1240 O1264 2.381 . S
Ho1240 O1265 2.669 . S
Ho1240 O1267 2.346 . S
Ho1240 O1271 2.305 . S
Ho1241 C1252 2.811 . S
Ho1241 O1261 2.346 . S
Ho1241 O1265 2.305 . S
Ho1241 O1266 2.322 . S
Ho1241 O1268 2.378 . S
Ho1241 O1269 2.524 . S
Ho1241 O1270 2.381 . S
Ho1241 O1271 2.669 . S
C1242 O1260 1.259 . S
C1242 O1261 1.268 . S
C1243 Ho1240 2.811 . S
C1243 C1244 1.488 . S
C1243 O1262 1.215 . S
C1243 O1263 1.289 . S
C1244 C1243 1.488 . S
C1244 C1245 1.348 . S
C1244 C1249 1.413 . S
C1245 C1244 1.348 . S
C1245 C1246 1.442 . S
C1245 H1272 0.930 . S
C1246 C1245 1.442 . S
C1246 C1247 1.381 . S
C1246 H1273 0.931 . S
C1247 C1246 1.381 . S
C1247 C1248 1.321 . S
C1248 C1247 1.321 . S
C1248 C1249 1.403 . S
C1248 H1274 0.934 . S
C1249 C1244 1.413 . S
C1249 C1248 1.403 . S
C1249 H1275 0.930 . S
C1250 O1264 1.275 . S
C1250 O1265 1.256 . S
C1251 O1266 1.259 . S
C1251 O1267 1.268 . S
C1252 Ho1241 2.811 . S
C1252 C1253 1.488 . S
C1252 O1268 1.215 . S
C1252 O1269 1.289 . S
C1253 C1252 1.488 . S
C1253 C1254 1.348 . S
C1253 C1258 1.413 . S
C1254 C1253 1.348 . S
C1254 C1255 1.442 . S
C1254 H1276 0.930 . S
C1255 C1254 1.442 . S
C1255 C1256 1.381 . S
C1255 H1277 0.931 . S
C1256 C1255 1.381 . S
C1256 C1257 1.321 . S
C1257 C1256 1.321 . S
C1257 C1258 1.403 . S
C1257 H1278 0.934 . S
C1258 C1253 1.413 . S
C1258 C1257 1.403 . S
C1258 H1279 0.930 . S
C1259 O1270 1.275 . S
C1259 O1271 1.256 . S
O1260 Ho1240 2.322 . S
O1260 C1242 1.259 . S
O1261 Ho1241 2.346 . S
O1261 C1242 1.268 . S
O1262 Ho1240 2.378 . S
O1262 C1243 1.215 . S
O1263 Ho1240 2.524 . S
O1263 C1243 1.289 . S
O1264 Ho1240 2.381 . S
O1264 C1250 1.275 . S
O1265 Ho1240 2.669 . S
O1265 Ho1241 2.305 . S
O1265 C1250 1.256 . S
O1266 Ho1241 2.322 . S
O1266 C1251 1.259 . S
O1267 Ho1240 2.346 . S
O1267 C1251 1.268 . S
O1268 Ho1241 2.378 . S
O1268 C1252 1.215 . S
O1269 Ho1241 2.524 . S
O1269 C1252 1.289 . S
O1270 Ho1241 2.381 . S
O1270 C1259 1.275 . S
O1271 Ho1240 2.305 . S
O1271 Ho1241 2.669 . S
O1271 C1259 1.256 . S
H1272 C1245 0.930 . S
H1273 C1246 0.931 . S
H1274 C1248 0.934 . S
H1275 C1249 0.930 . S
H1276 C1254 0.930 . S
H1277 C1255 0.931 . S
H1278 C1257 0.934 . S
H1279 C1258 0.930 . S
Ho1280 C1283 2.811 . S
Ho1280 O1300 2.322 . S
Ho1280 O1302 2.378 . S
Ho1280 O1303 2.524 . S
Ho1280 O1304 2.381 . S
Ho1280 O1305 2.669 . S
Ho1280 O1307 2.346 . S
Ho1280 O1311 2.305 . S
Ho1281 C1292 2.811 . S
Ho1281 O1301 2.346 . S
Ho1281 O1305 2.305 . S
Ho1281 O1306 2.322 . S
Ho1281 O1308 2.378 . S
Ho1281 O1309 2.524 . S
Ho1281 O1310 2.381 . S
Ho1281 O1311 2.669 . S
C1282 O1300 1.259 . S
C1282 O1301 1.268 . S
C1283 Ho1280 2.811 . S
C1283 C1284 1.488 . S
C1283 O1302 1.215 . S
C1283 O1303 1.289 . S
C1284 C1283 1.488 . S
C1284 C1285 1.348 . S
C1284 C1289 1.413 . S
C1285 C1284 1.348 . S
C1285 C1286 1.442 . S
C1285 H1312 0.930 . S
C1286 C1285 1.442 . S
C1286 C1287 1.381 . S
C1286 H1313 0.931 . S
C1287 C1286 1.381 . S
C1287 C1288 1.321 . S
C1288 C1287 1.321 . S
C1288 C1289 1.403 . S
C1288 H1314 0.934 . S
C1289 C1284 1.413 . S
C1289 C1288 1.403 . S
C1289 H1315 0.930 . S
C1290 O1304 1.275 . S
C1290 O1305 1.256 . S
C1291 O1306 1.259 . S
C1291 O1307 1.268 . S
C1292 Ho1281 2.811 . S
C1292 C1293 1.488 . S
C1292 O1308 1.215 . S
C1292 O1309 1.289 . S
C1293 C1292 1.488 . S
C1293 C1294 1.348 . S
C1293 C1298 1.413 . S
C1294 C1293 1.348 . S
C1294 C1295 1.442 . S
C1294 H1316 0.930 . S
C1295 C1294 1.442 . S
C1295 C1296 1.381 . S
C1295 H1317 0.931 . S
C1296 C1295 1.381 . S
C1296 C1297 1.321 . S
C1297 C1296 1.321 . S
C1297 C1298 1.403 . S
C1297 H1318 0.934 . S
C1298 C1293 1.413 . S
C1298 C1297 1.403 . S
C1298 H1319 0.930 . S
C1299 O1310 1.275 . S
C1299 O1311 1.256 . S
O1300 Ho1280 2.322 . S
O1300 C1282 1.259 . S
O1301 Ho1281 2.346 . S
O1301 C1282 1.268 . S
O1302 Ho1280 2.378 . S
O1302 C1283 1.215 . S
O1303 Ho1280 2.524 . S
O1303 C1283 1.289 . S
O1304 Ho1280 2.381 . S
O1304 C1290 1.275 . S
O1305 Ho1280 2.669 . S
O1305 Ho1281 2.305 . S
O1305 C1290 1.256 . S
O1306 Ho1281 2.322 . S
O1306 C1291 1.259 . S
O1307 Ho1280 2.346 . S
O1307 C1291 1.268 . S
O1308 Ho1281 2.378 . S
O1308 C1292 1.215 . S
O1309 Ho1281 2.524 . S
O1309 C1292 1.289 . S
O1310 Ho1281 2.381 . S
O1310 C1299 1.275 . S
O1311 Ho1280 2.305 . S
O1311 Ho1281 2.669 . S
O1311 C1299 1.256 . S
H1312 C1285 0.930 . S
H1313 C1286 0.931 . S
H1314 C1288 0.934 . S
H1315 C1289 0.930 . S
H1316 C1294 0.930 . S
H1317 C1295 0.931 . S
H1318 C1297 0.934 . S
H1319 C1298 0.930 . S
Ho1320 C1323 2.811 . S
Ho1320 O1340 2.322 . S
Ho1320 O1342 2.378 . S
Ho1320 O1343 2.524 . S
Ho1320 O1344 2.381 . S
Ho1320 O1345 2.669 . S
Ho1320 O1347 2.346 . S
Ho1320 O1351 2.305 . S
Ho1321 C1332 2.811 . S
Ho1321 O1341 2.346 . S
Ho1321 O1345 2.305 . S
Ho1321 O1346 2.322 . S
Ho1321 O1348 2.378 . S
Ho1321 O1349 2.524 . S
Ho1321 O1350 2.381 . S
Ho1321 O1351 2.669 . S
C1322 O1340 1.259 . S
C1322 O1341 1.268 . S
C1323 Ho1320 2.811 . S
C1323 C1324 1.488 . S
C1323 O1342 1.215 . S
C1323 O1343 1.289 . S
C1324 C1323 1.488 . S
C1324 C1325 1.348 . S
C1324 C1329 1.413 . S
C1325 C1324 1.348 . S
C1325 C1326 1.442 . S
C1325 H1352 0.930 . S
C1326 C1325 1.442 . S
C1326 C1327 1.381 . S
C1326 H1353 0.931 . S
C1327 C1326 1.381 . S
C1327 C1328 1.321 . S
C1328 C1327 1.321 . S
C1328 C1329 1.403 . S
C1328 H1354 0.934 . S
C1329 C1324 1.413 . S
C1329 C1328 1.403 . S
C1329 H1355 0.930 . S
C1330 O1344 1.275 . S
C1330 O1345 1.256 . S
C1331 O1346 1.259 . S
C1331 O1347 1.268 . S
C1332 Ho1321 2.811 . S
C1332 C1333 1.488 . S
C1332 O1348 1.215 . S
C1332 O1349 1.289 . S
C1333 C1332 1.488 . S
C1333 C1334 1.348 1_455 S
C1333 C1338 1.413 . S
C1334 C1333 1.348 1_655 S
C1334 C1335 1.442 . S
C1334 H1356 0.930 . S
C1335 C1334 1.442 . S
C1335 C1336 1.381 1_655 S
C1335 H1357 0.931 . S
C1336 C1335 1.381 1_455 S
C1336 C1337 1.321 . S
C1337 C1336 1.321 . S
C1337 C1338 1.403 . S
C1337 H1358 0.934 . S
C1338 C1333 1.413 . S
C1338 C1337 1.403 . S
C1338 H1359 0.930 . S
C1339 O1350 1.275 . S
C1339 O1351 1.256 . S
O1340 Ho1320 2.322 . S
O1340 C1322 1.259 . S
O1341 Ho1321 2.346 . S
O1341 C1322 1.268 . S
O1342 Ho1320 2.378 . S
O1342 C1323 1.215 . S
O1343 Ho1320 2.524 . S
O1343 C1323 1.289 . S
O1344 Ho1320 2.381 . S
O1344 C1330 1.275 . S
O1345 Ho1320 2.669 . S
O1345 Ho1321 2.305 . S
O1345 C1330 1.256 . S
O1346 Ho1321 2.322 . S
O1346 C1331 1.259 . S
O1347 Ho1320 2.346 . S
O1347 C1331 1.268 . S
O1348 Ho1321 2.378 . S
O1348 C1332 1.215 . S
O1349 Ho1321 2.524 . S
O1349 C1332 1.289 . S
O1350 Ho1321 2.381 . S
O1350 C1339 1.275 . S
O1351 Ho1320 2.305 . S
O1351 Ho1321 2.669 . S
O1351 C1339 1.256 . S
H1352 C1325 0.930 . S
H1353 C1326 0.931 . S
H1354 C1328 0.934 . S
H1355 C1329 0.930 . S
H1356 C1334 0.930 . S
H1357 C1335 0.931 . S
H1358 C1337 0.934 . S
H1359 C1338 0.930 . S
Ho1360 C1363 2.811 . S
Ho1360 O1380 2.322 . S
Ho1360 O1382 2.378 . S
Ho1360 O1383 2.524 . S
Ho1360 O1384 2.381 . S
Ho1360 O1385 2.669 . S
Ho1360 O1387 2.346 . S
Ho1360 O1391 2.305 . S
Ho1361 C1372 2.811 . S
Ho1361 O1381 2.346 . S
Ho1361 O1385 2.305 . S
Ho1361 O1386 2.322 . S
Ho1361 O1388 2.378 . S
Ho1361 O1389 2.524 . S
Ho1361 O1390 2.381 . S
Ho1361 O1391 2.669 . S
C1362 O1380 1.259 . S
C1362 O1381 1.268 . S
C1363 Ho1360 2.811 . S
C1363 C1364 1.488 . S
C1363 O1382 1.215 . S
C1363 O1383 1.289 . S
C1364 C1363 1.488 . S
C1364 C1365 1.348 . S
C1364 C1369 1.413 . S
C1365 C1364 1.348 . S
C1365 C1366 1.442 . S
C1365 H1392 0.930 . S
C1366 C1365 1.442 . S
C1366 C1367 1.381 . S
C1366 H1393 0.931 . S
C1367 C1366 1.381 . S
C1367 C1368 1.321 . S
C1368 C1367 1.321 . S
C1368 C1369 1.403 . S
C1368 H1394 0.934 . S
C1369 C1364 1.413 . S
C1369 C1368 1.403 . S
C1369 H1395 0.930 . S
C1370 O1384 1.275 . S
C1370 O1385 1.256 . S
C1371 O1386 1.259 . S
C1371 O1387 1.268 . S
C1372 Ho1361 2.811 . S
C1372 C1373 1.488 . S
C1372 O1388 1.215 . S
C1372 O1389 1.289 . S
C1373 C1372 1.488 . S
C1373 C1374 1.348 . S
C1373 C1378 1.413 . S
C1374 C1373 1.348 . S
C1374 C1375 1.442 . S
C1374 H1396 0.930 . S
C1375 C1374 1.442 . S
C1375 C1376 1.381 . S
C1375 H1397 0.931 . S
C1376 C1375 1.381 . S
C1376 C1377 1.321 . S
C1377 C1376 1.321 . S
C1377 C1378 1.403 . S
C1377 H1398 0.934 . S
C1378 C1373 1.413 . S
C1378 C1377 1.403 . S
C1378 H1399 0.930 . S
C1379 O1390 1.275 . S
C1379 O1391 1.256 . S
O1380 Ho1360 2.322 . S
O1380 C1362 1.259 . S
O1381 Ho1361 2.346 . S
O1381 C1362 1.268 . S
O1382 Ho1360 2.378 . S
O1382 C1363 1.215 . S
O1383 Ho1360 2.524 . S
O1383 C1363 1.289 . S
O1384 Ho1360 2.381 . S
O1384 C1370 1.275 . S
O1385 Ho1360 2.669 . S
O1385 Ho1361 2.305 . S
O1385 C1370 1.256 . S
O1386 Ho1361 2.322 . S
O1386 C1371 1.259 . S
O1387 Ho1360 2.346 . S
O1387 C1371 1.268 . S
O1388 Ho1361 2.378 . S
O1388 C1372 1.215 . S
O1389 Ho1361 2.524 . S
O1389 C1372 1.289 . S
O1390 Ho1361 2.381 . S
O1390 C1379 1.275 . S
O1391 Ho1360 2.305 . S
O1391 Ho1361 2.669 . S
O1391 C1379 1.256 . S
H1392 C1365 0.930 . S
H1393 C1366 0.931 . S
H1394 C1368 0.934 . S
H1395 C1369 0.930 . S
H1396 C1374 0.930 . S
H1397 C1375 0.931 . S
H1398 C1377 0.934 . S
H1399 C1378 0.930 . S
Ho1400 C1403 2.811 . S
Ho1400 O1420 2.322 . S
Ho1400 O1422 2.378 . S
Ho1400 O1423 2.524 . S
Ho1400 O1424 2.381 . S
Ho1400 O1425 2.669 . S
Ho1400 O1427 2.346 . S
Ho1400 O1431 2.305 . S
Ho1401 C1412 2.811 . S
Ho1401 O1421 2.346 . S
Ho1401 O1425 2.305 . S
Ho1401 O1426 2.322 . S
Ho1401 O1428 2.378 . S
Ho1401 O1429 2.524 . S
Ho1401 O1430 2.381 . S
Ho1401 O1431 2.669 . S
C1402 O1420 1.259 . S
C1402 O1421 1.268 . S
C1403 Ho1400 2.811 . S
C1403 C1404 1.488 . S
C1403 O1422 1.215 . S
C1403 O1423 1.289 . S
C1404 C1403 1.488 . S
C1404 C1405 1.348 . S
C1404 C1409 1.413 . S
C1405 C1404 1.348 . S
C1405 C1406 1.442 . S
C1405 H1432 0.930 . S
C1406 C1405 1.442 . S
C1406 C1407 1.381 . S
C1406 H1433 0.931 . S
C1407 C1406 1.381 . S
C1407 C1408 1.321 . S
C1408 C1407 1.321 . S
C1408 C1409 1.403 . S
C1408 H1434 0.934 . S
C1409 C1404 1.413 . S
C1409 C1408 1.403 . S
C1409 H1435 0.930 . S
C1410 O1424 1.275 . S
C1410 O1425 1.256 . S
C1411 O1426 1.259 . S
C1411 O1427 1.268 . S
C1412 Ho1401 2.811 . S
C1412 C1413 1.488 . S
C1412 O1428 1.215 . S
C1412 O1429 1.289 . S
C1413 C1412 1.488 . S
C1413 C1414 1.348 1_565 S
C1413 C1418 1.413 . S
C1414 C1413 1.348 1_545 S
C1414 C1415 1.442 . S
C1414 H1436 0.930 . S
C1415 C1414 1.442 . S
C1415 C1416 1.381 1_545 S
C1415 H1437 0.931 . S
C1416 C1415 1.381 1_565 S
C1416 C1417 1.321 . S
C1417 C1416 1.321 . S
C1417 C1418 1.403 . S
C1417 H1438 0.934 . S
C1418 C1413 1.413 . S
C1418 C1417 1.403 . S
C1418 H1439 0.930 . S
C1419 O1430 1.275 . S
C1419 O1431 1.256 . S
O1420 Ho1400 2.322 . S
O1420 C1402 1.259 . S
O1421 Ho1401 2.346 . S
O1421 C1402 1.268 . S
O1422 Ho1400 2.378 . S
O1422 C1403 1.215 . S
O1423 Ho1400 2.524 . S
O1423 C1403 1.289 . S
O1424 Ho1400 2.381 . S
O1424 C1410 1.275 . S
O1425 Ho1400 2.669 . S
O1425 Ho1401 2.305 . S
O1425 C1410 1.256 . S
O1426 Ho1401 2.322 . S
O1426 C1411 1.259 . S
O1427 Ho1400 2.346 . S
O1427 C1411 1.268 . S
O1428 Ho1401 2.378 . S
O1428 C1412 1.215 . S
O1429 Ho1401 2.524 . S
O1429 C1412 1.289 . S
O1430 Ho1401 2.381 . S
O1430 C1419 1.275 . S
O1431 Ho1400 2.305 . S
O1431 Ho1401 2.669 . S
O1431 C1419 1.256 . S
H1432 C1405 0.930 . S
H1433 C1406 0.931 . S
H1434 C1408 0.934 . S
H1435 C1409 0.930 . S
H1436 C1414 0.930 . S
H1437 C1415 0.931 . S
H1438 C1417 0.934 . S
H1439 C1418 0.930 . S
H1440 C1446 0.930 . S
H1441 C1449 0.930 . S
H1442 C1450 0.930 . S
H1443 C1451 0.930 . S
H1444 C1454 0.930 . S
H1445 C1455 0.930 . S
C1446 H1440 0.930 . S
C1446 C1447 1.355 . S
C1446 C1448 1.415 . S
C1447 C1446 1.355 . S
C1447 C1449 1.419 . S
C1448 C1446 1.415 . S
C1448 C1453 1.425 . S
C1448 C1455 1.409 . S
C1449 H1441 0.930 . S
C1449 C1447 1.419 . S
C1449 C1450 1.362 . S
C1450 H1442 0.930 . S
C1450 C1449 1.362 . S
C1450 C1453 1.409 . S
C1451 H1443 0.930 . S
C1451 C1452 1.355 1_545 S
C1451 C1453 1.415 . S
C1452 C1451 1.355 1_565 S
C1452 C1454 1.419 . S
C1453 C1448 1.425 . S
C1453 C1450 1.409 . S
C1453 C1451 1.415 . S
C1454 H1444 0.930 . S
C1454 C1452 1.419 . S
C1454 C1455 1.362 1_565 S
C1455 H1445 0.930 . S
C1455 C1448 1.409 . S
C1455 C1454 1.362 1_545 S
H1456 C1462 0.930 . S
H1457 C1465 0.930 . S
H1458 C1466 0.930 . S
H1459 C1467 0.930 . S
H1460 C1470 0.930 . S
H1461 C1471 0.930 . S
C1462 H1456 0.930 . S
C1462 C1463 1.355 1_655 S
C1462 C1464 1.415 . S
C1463 C1462 1.355 1_455 S
C1463 C1465 1.419 . S
C1464 C1462 1.415 . S
C1464 C1469 1.425 . S
C1464 C1471 1.409 . S
C1465 H1457 0.930 . S
C1465 C1463 1.419 . S
C1465 C1466 1.362 1_455 S
C1466 H1458 0.930 . S
C1466 C1465 1.362 1_655 S
C1466 C1469 1.409 . S
C1467 H1459 0.930 . S
C1467 C1468 1.355 . S
C1467 C1469 1.415 . S
C1468 C1467 1.355 . S
C1468 C1470 1.419 . S
C1469 C1464 1.425 . S
C1469 C1466 1.409 . S
C1469 C1467 1.415 . S
C1470 H1460 0.930 . S
C1470 C1468 1.419 . S
C1470 C1471 1.362 . S
C1471 H1461 0.930 . S
C1471 C1464 1.409 . S
C1471 C1470 1.362 . S
H1472 C1478 0.930 . S
H1473 C1481 0.930 . S
H1474 C1482 0.930 . S
H1475 C1483 0.930 . S
H1476 C1486 0.930 . S
H1477 C1487 0.930 . S
C1478 H1472 0.930 . S
C1478 C1479 1.355 . S
C1478 C1480 1.415 . S
C1479 C1478 1.355 . S
C1479 C1481 1.419 . S
C1480 C1478 1.415 . S
C1480 C1485 1.425 . S
C1480 C1487 1.409 . S
C1481 H1473 0.930 . S
C1481 C1479 1.419 . S
C1481 C1482 1.362 . S
C1482 H1474 0.930 . S
C1482 C1481 1.362 . S
C1482 C1485 1.409 . S
C1483 H1475 0.930 . S
C1483 C1484 1.355 . S
C1483 C1485 1.415 . S
C1484 C1483 1.355 . S
C1484 C1486 1.419 . S
C1485 C1480 1.425 . S
C1485 C1482 1.409 . S
C1485 C1483 1.415 . S
C1486 H1476 0.930 . S
C1486 C1484 1.419 . S
C1486 C1487 1.362 . S
C1487 H1477 0.930 . S
C1487 C1480 1.409 . S
C1487 C1486 1.362 . S
H1488 C1494 0.930 . S
H1489 C1497 0.930 . S
H1490 C1498 0.930 . S
H1491 C1499 0.930 1_655 S
H1492 C1502 0.930 . S
H1493 C1503 0.930 . S
C1494 H1488 0.930 . S
C1494 C1495 1.355 . S
C1494 C1496 1.415 . S
C1495 C1494 1.355 . S
C1495 C1497 1.419 . S
C1496 C1494 1.415 . S
C1496 C1501 1.425 . S
C1496 C1503 1.409 . S
C1497 H1489 0.930 . S
C1497 C1495 1.419 . S
C1497 C1498 1.362 . S
C1498 H1490 0.930 . S
C1498 C1497 1.362 . S
C1498 C1501 1.409 . S
C1499 H1491 0.930 1_455 S
C1499 C1500 1.355 1_455 S
C1499 C1501 1.415 . S
C1500 C1499 1.355 1_655 S
C1500 C1502 1.419 1_655 S
C1501 C1496 1.425 . S
C1501 C1498 1.409 . S
C1501 C1499 1.415 . S
C1502 H1492 0.930 . S
C1502 C1500 1.419 1_455 S
C1502 C1503 1.362 . S
C1503 H1493 0.930 . S
C1503 C1496 1.409 . S
C1503 C1502 1.362 . S
H1504 C1510 0.930 . S
H1505 C1513 0.930 . S
H1506 C1514 0.930 . S
H1507 C1515 0.930 . S
H1508 C1518 0.930 . S
H1509 C1519 0.930 . S
C1510 H1504 0.930 . S
C1510 C1511 1.355 . S
C1510 C1512 1.415 . S
C1511 C1510 1.355 . S
C1511 C1513 1.419 . S
C1512 C1510 1.415 . S
C1512 C1517 1.425 . S
C1512 C1519 1.409 . S
C1513 H1505 0.930 . S
C1513 C1511 1.419 . S
C1513 C1514 1.362 . S
C1514 H1506 0.930 . S
C1514 C1513 1.362 . S
C1514 C1517 1.409 . S
C1515 H1507 0.930 . S
C1515 C1516 1.355 . S
C1515 C1517 1.415 . S
C1516 C1515 1.355 . S
C1516 C1518 1.419 . S
C1517 C1512 1.425 . S
C1517 C1514 1.409 . S
C1517 C1515 1.415 . S
C1518 H1508 0.930 . S
C1518 C1516 1.419 . S
C1518 C1519 1.362 . S
C1519 H1509 0.930 . S
C1519 C1512 1.409 . S
C1519 C1518 1.362 . S
H1520 C1526 0.930 . S
H1521 C1529 0.930 1_655 S
H1522 C1530 0.930 . S
H1523 C1531 0.930 1_545 S
H1524 C1534 0.930 1_545 S
H1525 C1535 0.930 . S
C1526 H1520 0.930 . S
C1526 C1527 1.355 . S
C1526 C1528 1.415 . S
C1527 C1526 1.355 . S
C1527 C1529 1.419 . S
C1528 C1526 1.415 . S
C1528 C1533 1.425 . S
C1528 C1535 1.409 . S
C1529 H1521 0.930 1_455 S
C1529 C1527 1.419 . S
C1529 C1530 1.362 . S
C1530 H1522 0.930 . S
C1530 C1529 1.362 . S
C1530 C1533 1.409 . S
C1531 H1523 0.930 1_565 S
C1531 C1532 1.355 1_565 S
C1531 C1533 1.415 . S
C1532 C1531 1.355 1_545 S
C1532 C1534 1.419 1_545 S
C1533 C1528 1.425 . S
C1533 C1530 1.409 . S
C1533 C1531 1.415 . S
C1534 H1524 0.930 1_565 S
C1534 C1532 1.419 1_565 S
C1534 C1535 1.362 . S
C1535 H1525 0.930 . S
C1535 C1528 1.409 . S
C1535 C1534 1.362 . S
H1536 C1542 0.930 . S
H1537 C1545 0.930 . S
H1538 C1546 0.930 . S
H1539 C1547 0.930 1_545 S
H1540 C1550 0.930 1_545 S
H1541 C1551 0.930 . S
C1542 H1536 0.930 . S
C1542 C1543 1.355 . S
C1542 C1544 1.415 . S
C1543 C1542 1.355 . S
C1543 C1545 1.419 . S
C1544 C1542 1.415 . S
C1544 C1549 1.425 . S
C1544 C1551 1.409 . S
C1545 H1537 0.930 . S
C1545 C1543 1.419 . S
C1545 C1546 1.362 . S
C1546 H1538 0.930 . S
C1546 C1545 1.362 . S
C1546 C1549 1.409 . S
C1547 H1539 0.930 1_565 S
C1547 C1548 1.355 1_565 S
C1547 C1549 1.415 . S
C1548 C1547 1.355 1_545 S
C1548 C1550 1.419 1_545 S
C1549 C1544 1.425 . S
C1549 C1546 1.409 . S
C1549 C1547 1.415 . S
C1550 H1540 0.930 1_565 S
C1550 C1548 1.419 1_565 S
C1550 C1551 1.362 . S
C1551 H1541 0.930 . S
C1551 C1544 1.409 . S
C1551 C1550 1.362 . S
H1552 C1558 0.930 . S
H1553 C1561 0.930 . S
H1554 C1562 0.930 . S
H1555 C1563 0.930 . S
H1556 C1566 0.930 . S
H1557 C1567 0.930 . S
C1558 H1552 0.930 . S
C1558 C1559 1.355 . S
C1558 C1560 1.415 . S
C1559 C1558 1.355 . S
C1559 C1561 1.419 . S
C1560 C1558 1.415 . S
C1560 C1565 1.425 . S
C1560 C1567 1.409 . S
C1561 H1553 0.930 . S
C1561 C1559 1.419 . S
C1561 C1562 1.362 . S
C1562 H1554 0.930 . S
C1562 C1561 1.362 . S
C1562 C1565 1.409 . S
C1563 H1555 0.930 . S
C1563 C1564 1.355 1_455 S
C1563 C1565 1.415 . S
C1564 C1563 1.355 1_655 S
C1564 C1566 1.419 . S
C1565 C1560 1.425 . S
C1565 C1562 1.409 . S
C1565 C1563 1.415 . S
C1566 H1556 0.930 . S
C1566 C1564 1.419 . S
C1566 C1567 1.362 1_655 S
C1567 H1557 0.930 . S
C1567 C1560 1.409 . S
C1567 C1566 1.362 1_455 S
H1568 C1574 0.930 . S
H1569 C1577 0.930 1_655 S
H1570 C1578 0.930 . S
H1571 C1579 0.930 . S
H1572 C1582 0.930 . S
H1573 C1583 0.930 . S
C1574 H1568 0.930 . S
C1574 C1575 1.355 . S
C1574 C1576 1.415 . S
C1575 C1574 1.355 . S
C1575 C1577 1.419 . S
C1576 C1574 1.415 . S
C1576 C1581 1.425 . S
C1576 C1583 1.409 . S
C1577 H1569 0.930 1_455 S
C1577 C1575 1.419 . S
C1577 C1578 1.362 . S
C1578 H1570 0.930 . S
C1578 C1577 1.362 . S
C1578 C1581 1.409 . S
C1579 H1571 0.930 . S
C1579 C1580 1.355 . S
C1579 C1581 1.415 . S
C1580 C1579 1.355 . S
C1580 C1582 1.419 . S
C1581 C1576 1.425 . S
C1581 C1578 1.409 . S
C1581 C1579 1.415 . S
C1582 H1572 0.930 . S
C1582 C1580 1.419 . S
C1582 C1583 1.362 . S
C1583 H1573 0.930 . S
C1583 C1576 1.409 . S
C1583 C1582 1.362 . S
H1584 C1590 0.930 . S
H1585 C1593 0.930 . S
H1586 C1594 0.930 . S
H1587 C1595 0.930 . S
H1588 C1598 0.930 . S
H1589 C1599 0.930 . S
C1590 H1584 0.930 . S
C1590 C1591 1.355 . S
C1590 C1592 1.415 . S
C1591 C1590 1.355 . S
C1591 C1593 1.419 . S
C1592 C1590 1.415 . S
C1592 C1597 1.425 . S
C1592 C1599 1.409 . S
C1593 H1585 0.930 . S
C1593 C1591 1.419 . S
C1593 C1594 1.362 . S
C1594 H1586 0.930 . S
C1594 C1593 1.362 . S
C1594 C1597 1.409 . S
C1595 H1587 0.930 . S
C1595 C1596 1.355 1_655 S
C1595 C1597 1.415 . S
C1596 C1595 1.355 1_455 S
C1596 C1598 1.419 . S
C1597 C1592 1.425 . S
C1597 C1594 1.409 . S
C1597 C1595 1.415 . S
C1598 H1588 0.930 . S
C1598 C1596 1.419 . S
C1598 C1599 1.362 1_455 S
C1599 H1589 0.930 . S
C1599 C1592 1.409 . S
C1599 C1598 1.362 1_655 S
H1600 C1606 0.930 . S
H1601 C1609 0.930 . S
H1602 C1610 0.930 . S
H1603 C1611 0.930 . S
H1604 C1614 0.930 . S
H1605 C1615 0.930 . S
C1606 H1600 0.930 . S
C1606 C1607 1.355 . S
C1606 C1608 1.415 . S
C1607 C1606 1.355 . S
C1607 C1609 1.419 . S
C1608 C1606 1.415 . S
C1608 C1613 1.425 . S
C1608 C1615 1.409 . S
C1609 H1601 0.930 . S
C1609 C1607 1.419 . S
C1609 C1610 1.362 . S
C1610 H1602 0.930 . S
C1610 C1609 1.362 . S
C1610 C1613 1.409 . S
C1611 H1603 0.930 . S
C1611 C1612 1.355 . S
C1611 C1613 1.415 . S
C1612 C1611 1.355 . S
C1612 C1614 1.419 . S
C1613 C1608 1.425 . S
C1613 C1610 1.409 . S
C1613 C1611 1.415 . S
C1614 H1604 0.930 . S
C1614 C1612 1.419 . S
C1614 C1615 1.362 . S
C1615 H1605 0.930 . S
C1615 C1608 1.409 . S
C1615 C1614 1.362 . S
H1616 C1622 0.930 1_565 S
H1617 C1625 0.930 . S
H1618 C1626 0.930 . S
H1619 C1627 0.930 . S
H1620 C1630 0.930 1_455 S
H1621 C1631 0.930 . S
C1622 H1616 0.930 1_545 S
C1622 C1623 1.355 1_545 S
C1622 C1624 1.415 . S
C1623 C1622 1.355 1_565 S
C1623 C1625 1.419 1_565 S
C1624 C1622 1.415 . S
C1624 C1629 1.425 . S
C1624 C1631 1.409 . S
C1625 H1617 0.930 . S
C1625 C1623 1.419 1_545 S
C1625 C1626 1.362 . S
C1626 H1618 0.930 . S
C1626 C1625 1.362 . S
C1626 C1629 1.409 . S
C1627 H1619 0.930 . S
C1627 C1628 1.355 . S
C1627 C1629 1.415 . S
C1628 C1627 1.355 . S
C1628 C1630 1.419 . S
C1629 C1624 1.425 . S
C1629 C1626 1.409 . S
C1629 C1627 1.415 . S
C1630 H1620 0.930 1_655 S
C1630 C1628 1.419 . S
C1630 C1631 1.362 . S
C1631 H1621 0.930 . S
C1631 C1624 1.409 . S
C1631 C1630 1.362 . S
H1632 C1638 0.930 . S
H1633 C1641 0.930 . S
H1634 C1642 0.930 . S
H1635 C1643 0.930 . S
H1636 C1646 0.930 . S
H1637 C1647 0.930 . S
C1638 H1632 0.930 . S
C1638 C1639 1.355 . S
C1638 C1640 1.415 . S
C1639 C1638 1.355 . S
C1639 C1641 1.419 . S
C1640 C1638 1.415 . S
C1640 C1645 1.425 . S
C1640 C1647 1.409 . S
C1641 H1633 0.930 . S
C1641 C1639 1.419 . S
C1641 C1642 1.362 . S
C1642 H1634 0.930 . S
C1642 C1641 1.362 . S
C1642 C1645 1.409 . S
C1643 H1635 0.930 . S
C1643 C1644 1.355 . S
C1643 C1645 1.415 . S
C1644 C1643 1.355 . S
C1644 C1646 1.419 . S
C1645 C1640 1.425 . S
C1645 C1642 1.409 . S
C1645 C1643 1.415 . S
C1646 H1636 0.930 . S
C1646 C1644 1.419 . S
C1646 C1647 1.362 . S
C1647 H1637 0.930 . S
C1647 C1640 1.409 . S
C1647 C1646 1.362 . S
H1648 C1654 0.930 . S
H1649 C1657 0.930 . S
H1650 C1658 0.930 . S
H1651 C1659 0.930 . S
H1652 C1662 0.930 . S
H1653 C1663 0.930 . S
C1654 H1648 0.930 . S
C1654 C1655 1.355 . S
C1654 C1656 1.415 . S
C1655 C1654 1.355 . S
C1655 C1657 1.419 . S
C1656 C1654 1.415 . S
C1656 C1661 1.425 . S
C1656 C1663 1.409 . S
C1657 H1649 0.930 . S
C1657 C1655 1.419 . S
C1657 C1658 1.362 . S
C1658 H1650 0.930 . S
C1658 C1657 1.362 . S
C1658 C1661 1.409 . S
C1659 H1651 0.930 . S
C1659 C1660 1.355 . S
C1659 C1661 1.415 . S
C1660 C1659 1.355 . S
C1660 C1662 1.419 . S
C1661 C1656 1.425 . S
C1661 C1658 1.409 . S
C1661 C1659 1.415 . S
C1662 H1652 0.930 . S
C1662 C1660 1.419 . S
C1662 C1663 1.362 . S
C1663 H1653 0.930 . S
C1663 C1656 1.409 . S
C1663 C1662 1.362 . S
H1664 C1670 0.930 . S
H1665 C1673 0.930 . S
H1666 C1674 0.930 . S
H1667 C1675 0.930 . S
H1668 C1678 0.930 . S
H1669 C1679 0.930 . S
C1670 H1664 0.930 . S
C1670 C1671 1.355 . S
C1670 C1672 1.415 . S
C1671 C1670 1.355 . S
C1671 C1673 1.419 . S
C1672 C1670 1.415 . S
C1672 C1677 1.425 . S
C1672 C1679 1.409 . S
C1673 H1665 0.930 . S
C1673 C1671 1.419 . S
C1673 C1674 1.362 . S
C1674 H1666 0.930 . S
C1674 C1673 1.362 . S
C1674 C1677 1.409 . S
C1675 H1667 0.930 . S
C1675 C1676 1.355 . S
C1675 C1677 1.415 . S
C1676 C1675 1.355 . S
C1676 C1678 1.419 . S
C1677 C1672 1.425 . S
C1677 C1674 1.409 . S
C1677 C1675 1.415 . S
C1678 H1668 0.930 . S
C1678 C1676 1.419 . S
C1678 C1679 1.362 . S
C1679 H1669 0.930 . S
C1679 C1672 1.409 . S
C1679 C1678 1.362 . S
H1680 C1686 0.930 . S
H1681 C1689 0.930 . S
H1682 C1690 0.930 . S
H1683 C1691 0.930 . S
H1684 C1694 0.930 . S
H1685 C1695 0.930 . S
C1686 H1680 0.930 . S
C1686 C1687 1.355 . S
C1686 C1688 1.415 . S
C1687 C1686 1.355 . S
C1687 C1689 1.419 . S
C1688 C1686 1.415 . S
C1688 C1693 1.425 . S
C1688 C1695 1.409 . S
C1689 H1681 0.930 . S
C1689 C1687 1.419 . S
C1689 C1690 1.362 . S
C1690 H1682 0.930 . S
C1690 C1689 1.362 . S
C1690 C1693 1.409 . S
C1691 H1683 0.930 . S
C1691 C1692 1.355 . S
C1691 C1693 1.415 . S
C1692 C1691 1.355 . S
C1692 C1694 1.419 . S
C1693 C1688 1.425 . S
C1693 C1690 1.409 . S
C1693 C1691 1.415 . S
C1694 H1684 0.930 . S
C1694 C1692 1.419 . S
C1694 C1695 1.362 . S
C1695 H1685 0.930 . S
C1695 C1688 1.409 . S
C1695 C1694 1.362 . S
H1696 C1702 0.930 . S
H1697 C1705 0.930 . S
H1698 C1706 0.930 . S
H1699 C1707 0.930 . S
H1700 C1710 0.930 . S
H1701 C1711 0.930 . S
C1702 H1696 0.930 . S
C1702 C1703 1.355 . S
C1702 C1704 1.415 . S
C1703 C1702 1.355 . S
C1703 C1705 1.419 . S
C1704 C1702 1.415 . S
C1704 C1709 1.425 . S
C1704 C1711 1.409 . S
C1705 H1697 0.930 . S
C1705 C1703 1.419 . S
C1705 C1706 1.362 . S
C1706 H1698 0.930 . S
C1706 C1705 1.362 . S
C1706 C1709 1.409 . S
C1707 H1699 0.930 . S
C1707 C1708 1.355 . S
C1707 C1709 1.415 . S
C1708 C1707 1.355 . S
C1708 C1710 1.419 . S
C1709 C1704 1.425 . S
C1709 C1706 1.409 . S
C1709 C1707 1.415 . S
C1710 H1700 0.930 . S
C1710 C1708 1.419 . S
C1710 C1711 1.362 . S
C1711 H1701 0.930 . S
C1711 C1704 1.409 . S
C1711 C1710 1.362 . S
H1712 C1718 0.930 . S
H1713 C1721 0.930 . S
H1714 C1722 0.930 . S
H1715 C1723 0.930 . S
H1716 C1726 0.930 . S
H1717 C1727 0.930 . S
C1718 H1712 0.930 . S
C1718 C1719 1.355 . S
C1718 C1720 1.415 . S
C1719 C1718 1.355 . S
C1719 C1721 1.419 . S
C1720 C1718 1.415 . S
C1720 C1725 1.425 . S
C1720 C1727 1.409 . S
C1721 H1713 0.930 . S
C1721 C1719 1.419 . S
C1721 C1722 1.362 . S
C1722 H1714 0.930 . S
C1722 C1721 1.362 . S
C1722 C1725 1.409 . S
C1723 H1715 0.930 . S
C1723 C1724 1.355 . S
C1723 C1725 1.415 . S
C1724 C1723 1.355 . S
C1724 C1726 1.419 . S
C1725 C1720 1.425 . S
C1725 C1722 1.409 . S
C1725 C1723 1.415 . S
C1726 H1716 0.930 . S
C1726 C1724 1.419 . S
C1726 C1727 1.362 . S
C1727 H1717 0.930 . S
C1727 C1720 1.409 . S
C1727 C1726 1.362 . S
H1728 C1734 0.930 . S
H1729 C1737 0.930 . S
H1730 C1738 0.930 . S
H1731 C1739 0.930 . S
H1732 C1742 0.930 . S
H1733 C1743 0.930 . S
C1734 H1728 0.930 . S
C1734 C1735 1.355 . S
C1734 C1736 1.415 . S
C1735 C1734 1.355 . S
C1735 C1737 1.419 . S
C1736 C1734 1.415 . S
C1736 C1741 1.425 . S
C1736 C1743 1.409 . S
C1737 H1729 0.930 . S
C1737 C1735 1.419 . S
C1737 C1738 1.362 . S
C1738 H1730 0.930 . S
C1738 C1737 1.362 . S
C1738 C1741 1.409 . S
C1739 H1731 0.930 . S
C1739 C1740 1.355 . S
C1739 C1741 1.415 . S
C1740 C1739 1.355 . S
C1740 C1742 1.419 . S
C1741 C1736 1.425 . S
C1741 C1738 1.409 . S
C1741 C1739 1.415 . S
C1742 H1732 0.930 . S
C1742 C1740 1.419 . S
C1742 C1743 1.362 . S
C1743 H1733 0.930 . S
C1743 C1736 1.409 . S
C1743 C1742 1.362 . S
H1744 C1750 0.930 . S
H1745 C1753 0.930 . S
H1746 C1754 0.930 . S
H1747 C1755 0.930 . S
H1748 C1758 0.930 . S
H1749 C1759 0.930 . S
C1750 H1744 0.930 . S
C1750 C1751 1.355 . S
C1750 C1752 1.415 . S
C1751 C1750 1.355 . S
C1751 C1753 1.419 . S
C1752 C1750 1.415 . S
C1752 C1757 1.425 . S
C1752 C1759 1.409 . S
C1753 H1745 0.930 . S
C1753 C1751 1.419 . S
C1753 C1754 1.362 . S
C1754 H1746 0.930 . S
C1754 C1753 1.362 . S
C1754 C1757 1.409 . S
C1755 H1747 0.930 . S
C1755 C1756 1.355 . S
C1755 C1757 1.415 . S
C1756 C1755 1.355 . S
C1756 C1758 1.419 . S
C1757 C1752 1.425 . S
C1757 C1754 1.409 . S
C1757 C1755 1.415 . S
C1758 H1748 0.930 . S
C1758 C1756 1.419 . S
C1758 C1759 1.362 . S
C1759 H1749 0.930 . S
C1759 C1752 1.409 . S
C1759 C1758 1.362 . S
H1760 C1766 0.930 . S
H1761 C1769 0.930 . S
H1762 C1770 0.930 . S
H1763 C1771 0.930 . S
H1764 C1774 0.930 . S
H1765 C1775 0.930 . S
C1766 H1760 0.930 . S
C1766 C1767 1.355 . S
C1766 C1768 1.415 . S
C1767 C1766 1.355 . S
C1767 C1769 1.419 . S
C1768 C1766 1.415 . S
C1768 C1773 1.425 . S
C1768 C1775 1.409 . S
C1769 H1761 0.930 . S
C1769 C1767 1.419 . S
C1769 C1770 1.362 . S
C1770 H1762 0.930 . S
C1770 C1769 1.362 . S
C1770 C1773 1.409 . S
C1771 H1763 0.930 . S
C1771 C1772 1.355 . S
C1771 C1773 1.415 . S
C1772 C1771 1.355 . S
C1772 C1774 1.419 . S
C1773 C1768 1.425 . S
C1773 C1770 1.409 . S
C1773 C1771 1.415 . S
C1774 H1764 0.930 . S
C1774 C1772 1.419 . S
C1774 C1775 1.362 . S
C1775 H1765 0.930 . S
C1775 C1768 1.409 . S
C1775 C1774 1.362 . S
H1776 C1782 0.930 . S
H1777 C1785 0.930 . S
H1778 C1786 0.930 . S
H1779 C1787 0.930 . S
H1780 C1790 0.930 . S
H1781 C1791 0.930 . S
C1782 H1776 0.930 . S
C1782 C1783 1.355 1_556 S
C1782 C1784 1.415 . S
C1783 C1782 1.355 1_554 S
C1783 C1785 1.419 . S
C1784 C1782 1.415 . S
C1784 C1789 1.425 1_556 S
C1784 C1791 1.409 . S
C1785 H1777 0.930 . S
C1785 C1783 1.419 . S
C1785 C1786 1.362 . S
C1786 H1778 0.930 . S
C1786 C1785 1.362 . S
C1786 C1789 1.409 . S
C1787 H1779 0.930 . S
C1787 C1788 1.361 . S
C1787 C1789 1.415 . S
C1788 C1787 1.361 . S
C1788 C1790 1.412 1_554 S
C1789 C1784 1.425 1_554 S
C1789 C1786 1.409 . S
C1789 C1787 1.415 . S
C1790 H1780 0.930 . S
C1790 C1788 1.412 1_556 S
C1790 C1791 1.362 . S
C1791 H1781 0.930 . S
C1791 C1784 1.409 . S
C1791 C1790 1.362 . S
H1792 C1798 0.930 . S
H1793 C1801 0.930 . S
H1794 C1802 0.930 . S
H1795 C1803 0.930 . S
H1796 C1806 0.930 . S
H1797 C1807 0.930 . S
C1798 H1792 0.930 . S
C1798 C1799 1.355 1_556 S
C1798 C1800 1.415 . S
C1799 C1798 1.355 1_554 S
C1799 C1801 1.419 . S
C1800 C1798 1.415 . S
C1800 C1805 1.425 1_556 S
C1800 C1807 1.409 . S
C1801 H1793 0.930 . S
C1801 C1799 1.419 . S
C1801 C1802 1.362 . S
C1802 H1794 0.930 . S
C1802 C1801 1.362 . S
C1802 C1805 1.409 . S
C1803 H1795 0.930 . S
C1803 C1804 1.355 . S
C1803 C1805 1.415 . S
C1804 C1803 1.355 . S
C1804 C1806 1.419 1_554 S
C1805 C1800 1.425 1_554 S
C1805 C1802 1.409 . S
C1805 C1803 1.415 . S
C1806 H1796 0.930 . S
C1806 C1804 1.419 1_556 S
C1806 C1807 1.362 . S
C1807 H1797 0.930 . S
C1807 C1800 1.409 . S
C1807 C1806 1.362 . S
H1808 C1814 0.930 . S
H1809 C1817 0.930 . S
H1810 C1818 0.930 . S
H1811 C1819 0.930 . S
H1812 C1822 0.930 . S
H1813 C1823 0.930 . S
C1814 H1808 0.930 . S
C1814 C1815 1.355 . S
C1814 C1816 1.415 . S
C1815 C1814 1.355 . S
C1815 C1817 1.419 1_554 S
C1816 C1814 1.415 . S
C1816 C1821 1.425 1_554 S
C1816 C1823 1.409 . S
C1817 H1809 0.930 . S
C1817 C1815 1.419 1_556 S
C1817 C1818 1.362 . S
C1818 H1810 0.930 . S
C1818 C1817 1.362 . S
C1818 C1821 1.409 . S
C1819 H1811 0.930 . S
C1819 C1820 1.355 1_556 S
C1819 C1821 1.415 . S
C1820 C1819 1.355 1_554 S
C1820 C1822 1.419 . S
C1821 C1816 1.425 1_556 S
C1821 C1818 1.409 . S
C1821 C1819 1.415 . S
C1822 H1812 0.930 . S
C1822 C1820 1.419 . S
C1822 C1823 1.362 . S
C1823 H1813 0.930 . S
C1823 C1816 1.409 . S
C1823 C1822 1.362 . S
H1824 C1830 0.930 . S
H1825 C1833 0.930 . S
H1826 C1834 0.930 . S
H1827 C1835 0.930 . S
H1828 C1838 0.930 . S
H1829 C1839 0.930 . S
C1830 H1824 0.930 . S
C1830 C1831 1.355 . S
C1830 C1832 1.415 . S
C1831 C1830 1.355 . S
C1831 C1833 1.419 . S
C1832 C1830 1.415 . S
C1832 C1837 1.425 . S
C1832 C1839 1.409 . S
C1833 H1825 0.930 . S
C1833 C1831 1.419 . S
C1833 C1834 1.362 . S
C1834 H1826 0.930 . S
C1834 C1833 1.362 . S
C1834 C1837 1.409 . S
C1835 H1827 0.930 . S
C1835 C1836 1.355 . S
C1835 C1837 1.415 . S
C1836 C1835 1.355 . S
C1836 C1838 1.419 . S
C1837 C1832 1.425 . S
C1837 C1834 1.409 . S
C1837 C1835 1.415 . S
C1838 H1828 0.930 . S
C1838 C1836 1.419 . S
C1838 C1839 1.362 . S
C1839 H1829 0.930 . S
C1839 C1832 1.409 . S
C1839 C1838 1.362 . S
H1840 C1846 0.930 . S
H1841 C1849 0.930 . S
H1842 C1850 0.930 . S
H1843 C1851 0.930 . S
H1844 C1854 0.930 . S
H1845 C1855 0.930 . S
C1846 H1840 0.930 . S
C1846 C1847 1.355 . S
C1846 C1848 1.415 . S
C1847 C1846 1.355 . S
C1847 C1849 1.419 . S
C1848 C1846 1.415 . S
C1848 C1853 1.425 . S
C1848 C1855 1.409 . S
C1849 H1841 0.930 . S
C1849 C1847 1.419 . S
C1849 C1850 1.362 . S
C1850 H1842 0.930 . S
C1850 C1849 1.362 . S
C1850 C1853 1.409 . S
C1851 H1843 0.930 . S
C1851 C1852 1.355 . S
C1851 C1853 1.415 . S
C1852 C1851 1.355 . S
C1852 C1854 1.419 . S
C1853 C1848 1.425 . S
C1853 C1850 1.409 . S
C1853 C1851 1.415 . S
C1854 H1844 0.930 . S
C1854 C1852 1.419 . S
C1854 C1855 1.362 . S
C1855 H1845 0.930 . S
C1855 C1848 1.409 . S
C1855 C1854 1.362 . S
H1856 C1862 0.930 . S
H1857 C1865 0.930 . S
H1858 C1866 0.930 . S
H1859 C1867 0.930 . S
H1860 C1870 0.930 . S
H1861 C1871 0.930 . S
C1862 H1856 0.930 . S
C1862 C1863 1.355 . S
C1862 C1864 1.415 . S
C1863 C1862 1.355 . S
C1863 C1865 1.419 . S
C1864 C1862 1.415 . S
C1864 C1869 1.425 . S
C1864 C1871 1.409 . S
C1865 H1857 0.930 . S
C1865 C1863 1.419 . S
C1865 C1866 1.362 . S
C1866 H1858 0.930 . S
C1866 C1865 1.362 . S
C1866 C1869 1.409 . S
C1867 H1859 0.930 . S
C1867 C1868 1.355 . S
C1867 C1869 1.415 . S
C1868 C1867 1.355 . S
C1868 C1870 1.419 . S
C1869 C1864 1.425 . S
C1869 C1866 1.409 . S
C1869 C1867 1.415 . S
C1870 H1860 0.930 . S
C1870 C1868 1.419 . S
C1870 C1871 1.362 . S
C1871 H1861 0.930 . S
C1871 C1864 1.409 . S
C1871 C1870 1.362 . S
H1872 C1878 0.930 . S
H1873 C1881 0.930 . S
H1874 C1882 0.930 . S
H1875 C1883 0.930 . S
H1876 C1886 0.930 . S
H1877 C1887 0.930 . S
C1878 H1872 0.930 . S
C1878 C1879 1.355 1_554 S
C1878 C1880 1.415 . S
C1879 C1878 1.355 1_556 S
C1879 C1881 1.419 . S
C1880 C1878 1.415 . S
C1880 C1885 1.425 1_554 S
C1880 C1887 1.409 . S
C1881 H1873 0.930 . S
C1881 C1879 1.419 . S
C1881 C1882 1.362 . S
C1882 H1874 0.930 . S
C1882 C1881 1.362 . S
C1882 C1885 1.409 . S
C1883 H1875 0.930 . S
C1883 C1884 1.355 . S
C1883 C1885 1.415 . S
C1884 C1883 1.355 . S
C1884 C1886 1.419 1_556 S
C1885 C1880 1.425 1_556 S
C1885 C1882 1.409 . S
C1885 C1883 1.415 . S
C1886 H1876 0.930 . S
C1886 C1884 1.419 1_554 S
C1886 C1887 1.362 . S
C1887 H1877 0.930 . S
C1887 C1880 1.409 . S
C1887 C1886 1.362 . S
H1888 C1894 0.930 . S
H1889 C1897 0.930 . S
H1890 C1898 0.930 . S
H1891 C1899 0.915 1_554 S
H1892 C1902 0.930 . S
H1893 C1903 0.930 . S
C1894 H1888 0.930 . S
C1894 C1895 1.372 . S
C1894 C1896 1.415 . S
C1895 C1894 1.372 . S
C1895 C1897 1.402 1_556 S
C1896 C1894 1.415 . S
C1896 C1901 1.429 . S
C1896 C1903 1.409 . S
C1897 H1889 0.930 . S
C1897 C1895 1.402 1_554 S
C1897 C1898 1.362 . S
C1898 H1890 0.930 . S
C1898 C1897 1.362 . S
C1898 C1901 1.406 1_554 S
C1899 H1891 0.915 1_556 S
C1899 C1900 1.370 . S
C1899 C1901 1.414 . S
C1900 C1899 1.370 . S
C1900 C1902 1.419 . S
C1901 C1896 1.429 . S
C1901 C1898 1.406 1_556 S
C1901 C1899 1.414 . S
C1902 H1892 0.930 . S
C1902 C1900 1.419 . S
C1902 C1903 1.362 . S
C1903 H1893 0.930 . S
C1903 C1896 1.409 . S
C1903 C1902 1.362 . S
H1904 C1910 0.930 . S
H1905 C1913 0.930 . S
H1906 C1914 0.930 . S
H1907 C1915 0.930 . S
H1908 C1918 0.930 . S
H1909 C1919 0.930 . S
C1910 H1904 0.930 . S
C1910 C1911 1.355 1_554 S
C1910 C1912 1.428 . S
C1911 C1910 1.355 1_556 S
C1911 C1913 1.419 . S
C1912 C1910 1.428 . S
C1912 C1917 1.389 1_554 S
C1912 C1919 1.433 . S
C1913 H1905 0.930 . S
C1913 C1911 1.419 . S
C1913 C1914 1.362 . S
C1914 H1906 0.930 . S
C1914 C1913 1.362 . S
C1914 C1917 1.409 . S
C1915 H1907 0.930 . S
C1915 C1916 1.355 . S
C1915 C1917 1.415 . S
C1916 C1915 1.355 . S
C1916 C1918 1.419 1_556 S
C1917 C1912 1.389 1_556 S
C1917 C1914 1.409 . S
C1917 C1915 1.415 . S
C1918 H1908 0.930 . S
C1918 C1916 1.419 1_554 S
C1918 C1919 1.362 . S
C1919 H1909 0.930 . S
C1919 C1912 1.433 . S
C1919 C1918 1.362 . S
H1920 C1926 0.930 . S
H1921 C1929 0.930 . S
H1922 C1930 0.930 . S
H1923 C1931 0.930 . S
H1924 C1934 0.930 . S
H1925 C1935 0.930 . S
C1926 H1920 0.930 . S
C1926 C1927 1.355 . S
C1926 C1928 1.415 . S
C1927 C1926 1.355 . S
C1927 C1929 1.419 . S
C1928 C1926 1.415 . S
C1928 C1933 1.425 . S
C1928 C1935 1.409 . S
C1929 H1921 0.930 . S
C1929 C1927 1.419 . S
C1929 C1930 1.362 . S
C1930 H1922 0.930 . S
C1930 C1929 1.362 . S
C1930 C1933 1.409 . S
C1931 H1923 0.930 . S
C1931 C1932 1.355 . S
C1931 C1933 1.415 . S
C1932 C1931 1.355 . S
C1932 C1934 1.419 . S
C1933 C1928 1.425 . S
C1933 C1930 1.409 . S
C1933 C1931 1.415 . S
C1934 H1924 0.930 . S
C1934 C1932 1.419 . S
C1934 C1935 1.362 . S
C1935 H1925 0.930 . S
C1935 C1928 1.409 . S
C1935 C1934 1.362 . S
H1936 C1942 0.930 . S
H1937 C1945 0.930 . S
H1938 C1946 0.930 . S
H1939 C1947 0.930 . S
H1940 C1950 0.930 . S
H1941 C1951 0.930 . S
C1942 H1936 0.930 . S
C1942 C1943 1.355 . S
C1942 C1944 1.415 . S
C1943 C1942 1.355 . S
C1943 C1945 1.419 . S
C1944 C1942 1.415 . S
C1944 C1949 1.425 . S
C1944 C1951 1.409 . S
C1945 H1937 0.930 . S
C1945 C1943 1.419 . S
C1945 C1946 1.362 . S
C1946 H1938 0.930 . S
C1946 C1945 1.362 . S
C1946 C1949 1.409 . S
C1947 H1939 0.930 . S
C1947 C1948 1.355 . S
C1947 C1949 1.415 . S
C1948 C1947 1.355 . S
C1948 C1950 1.419 . S
C1949 C1944 1.425 . S
C1949 C1946 1.409 . S
C1949 C1947 1.415 . S
C1950 H1940 0.930 . S
C1950 C1948 1.419 . S
C1950 C1951 1.362 . S
C1951 H1941 0.930 . S
C1951 C1944 1.409 . S
C1951 C1950 1.362 . S
H1952 C1958 0.930 . S
H1953 C1961 0.930 . S
H1954 C1962 0.930 . S
H1955 C1963 0.930 . S
H1956 C1966 0.930 . S
H1957 C1967 0.930 . S
C1958 H1952 0.930 . S
C1958 C1959 1.355 . S
C1958 C1960 1.415 . S
C1959 C1958 1.355 . S
C1959 C1961 1.419 . S
C1960 C1958 1.415 . S
C1960 C1965 1.425 . S
C1960 C1967 1.409 . S
C1961 H1953 0.930 . S
C1961 C1959 1.419 . S
C1961 C1962 1.362 . S
C1962 H1954 0.930 . S
C1962 C1961 1.362 . S
C1962 C1965 1.409 . S
C1963 H1955 0.930 . S
C1963 C1964 1.355 . S
C1963 C1965 1.415 . S
C1964 C1963 1.355 . S
C1964 C1966 1.419 . S
C1965 C1960 1.425 . S
C1965 C1962 1.409 . S
C1965 C1963 1.415 . S
C1966 H1956 0.930 . S
C1966 C1964 1.419 . S
C1966 C1967 1.362 . S
C1967 H1957 0.930 . S
C1967 C1960 1.409 . S
C1967 C1966 1.362 . S
H1968 C1974 0.930 . S
H1969 C1977 0.930 . S
H1970 C1978 0.930 . S
H1971 C1979 0.930 . S
H1972 C1982 0.930 . S
H1973 C1983 0.930 . S
C1974 H1968 0.930 . S
C1974 C1975 1.355 . S
C1974 C1976 1.415 . S
C1975 C1974 1.355 . S
C1975 C1977 1.419 . S
C1976 C1974 1.415 . S
C1976 C1981 1.425 . S
C1976 C1983 1.409 . S
C1977 H1969 0.930 . S
C1977 C1975 1.419 . S
C1977 C1978 1.362 . S
C1978 H1970 0.930 . S
C1978 C1977 1.362 . S
C1978 C1981 1.409 . S
C1979 H1971 0.930 . S
C1979 C1980 1.355 . S
C1979 C1981 1.415 . S
C1980 C1979 1.355 . S
C1980 C1982 1.419 . S
C1981 C1976 1.425 . S
C1981 C1978 1.409 . S
C1981 C1979 1.415 . S
C1982 H1972 0.930 . S
C1982 C1980 1.419 . S
C1982 C1983 1.362 . S
C1983 H1973 0.930 . S
C1983 C1976 1.409 . S
C1983 C1982 1.362 . S
H1984 C1990 0.930 . S
H1985 C1993 0.930 . S
H1986 C1994 0.930 . S
H1987 C1995 0.930 . S
H1988 C1998 0.930 . S
H1989 C1999 0.930 . S
C1990 H1984 0.930 . S
C1990 C1991 1.355 . S
C1990 C1992 1.415 . S
C1991 C1990 1.355 . S
C1991 C1993 1.419 . S
C1992 C1990 1.415 . S
C1992 C1997 1.425 . S
C1992 C1999 1.409 . S
C1993 H1985 0.930 . S
C1993 C1991 1.419 . S
C1993 C1994 1.362 . S
C1994 H1986 0.930 . S
C1994 C1993 1.362 . S
C1994 C1997 1.409 . S
C1995 H1987 0.930 . S
C1995 C1996 1.355 . S
C1995 C1997 1.415 . S
C1996 C1995 1.355 . S
C1996 C1998 1.419 . S
C1997 C1992 1.425 . S
C1997 C1994 1.409 . S
C1997 C1995 1.415 . S
C1998 H1988 0.930 . S
C1998 C1996 1.419 . S
C1998 C1999 1.362 . S
C1999 H1989 0.930 . S
C1999 C1992 1.409 . S
C1999 C1998 1.362 . S
H2000 C2006 0.930 . S
H2001 C2009 0.930 . S
H2002 C2010 0.930 . S
H2003 C2011 0.930 . S
H2004 C2014 0.930 . S
H2005 C2015 0.930 . S
C2006 H2000 0.930 . S
C2006 C2007 1.355 . S
C2006 C2008 1.415 . S
C2007 C2006 1.355 . S
C2007 C2009 1.419 . S
C2008 C2006 1.415 . S
C2008 C2013 1.425 . S
C2008 C2015 1.409 . S
C2009 H2001 0.930 . S
C2009 C2007 1.419 . S
C2009 C2010 1.362 . S
C2010 H2002 0.930 . S
C2010 C2009 1.362 . S
C2010 C2013 1.409 . S
C2011 H2003 0.930 . S
C2011 C2012 1.355 . S
C2011 C2013 1.415 . S
C2012 C2011 1.355 . S
C2012 C2014 1.419 . S
C2013 C2008 1.425 . S
C2013 C2010 1.409 . S
C2013 C2011 1.415 . S
C2014 H2004 0.930 . S
C2014 C2012 1.419 . S
C2014 C2015 1.362 . S
C2015 H2005 0.930 . S
C2015 C2008 1.409 . S
C2015 C2014 1.362 . S
H2016 C2022 0.930 . S
H2017 C2025 0.930 . S
H2018 C2026 0.930 . S
H2019 C2027 0.930 . S
H2020 C2030 0.930 . S
H2021 C2031 0.930 . S
C2022 H2016 0.930 . S
C2022 C2023 1.355 . S
C2022 C2024 1.415 . S
C2023 C2022 1.355 . S
C2023 C2025 1.419 . S
C2024 C2022 1.415 . S
C2024 C2029 1.425 . S
C2024 C2031 1.409 . S
C2025 H2017 0.930 . S
C2025 C2023 1.419 . S
C2025 C2026 1.362 . S
C2026 H2018 0.930 . S
C2026 C2025 1.362 . S
C2026 C2029 1.409 . S
C2027 H2019 0.930 . S
C2027 C2028 1.355 . S
C2027 C2029 1.415 . S
C2028 C2027 1.355 . S
C2028 C2030 1.419 . S
C2029 C2024 1.425 . S
C2029 C2026 1.409 . S
C2029 C2027 1.415 . S
C2030 H2020 0.930 . S
C2030 C2028 1.419 . S
C2030 C2031 1.362 . S
C2031 H2021 0.930 . S
C2031 C2024 1.409 . S
C2031 C2030 1.362 . S
H2032 C2038 0.930 . S
H2033 C2041 0.930 . S
H2034 C2042 0.930 . S
H2035 C2043 0.930 . S
H2036 C2046 0.930 . S
H2037 C2047 0.930 . S
C2038 H2032 0.930 . S
C2038 C2039 1.355 1_545 S
C2038 C2040 1.415 1_545 S
C2039 C2038 1.355 1_565 S
C2039 C2041 1.419 . S
C2040 C2038 1.415 1_565 S
C2040 C2045 1.425 . S
C2040 C2047 1.409 1_565 S
C2041 H2033 0.930 . S
C2041 C2039 1.419 . S
C2041 C2042 1.362 . S
C2042 H2034 0.930 . S
C2042 C2041 1.362 . S
C2042 C2045 1.409 . S
C2043 H2035 0.930 . S
C2043 C2044 1.355 . S
C2043 C2045 1.415 . S
C2044 C2043 1.355 . S
C2044 C2046 1.419 . S
C2045 C2040 1.425 . S
C2045 C2042 1.409 . S
C2045 C2043 1.415 . S
C2046 H2036 0.930 . S
C2046 C2044 1.419 . S
C2046 C2047 1.362 1_565 S
C2047 H2037 0.930 . S
C2047 C2040 1.409 1_545 S
C2047 C2046 1.362 1_545 S
H2048 C2054 0.930 . S
H2049 C2057 0.930 . S
H2050 C2058 0.930 . S
H2051 C2059 0.930 . S
H2052 C2062 0.930 . S
H2053 C2063 0.930 . S
C2054 H2048 0.930 . S
C2054 C2055 1.355 . S
C2054 C2056 1.415 . S
C2055 C2054 1.355 . S
C2055 C2057 1.419 . S
C2056 C2054 1.415 . S
C2056 C2061 1.425 . S
C2056 C2063 1.409 . S
C2057 H2049 0.930 . S
C2057 C2055 1.419 . S
C2057 C2058 1.362 1_455 S
C2058 H2050 0.930 . S
C2058 C2057 1.362 1_655 S
C2058 C2061 1.409 1_655 S
C2059 H2051 0.930 . S
C2059 C2060 1.355 1_655 S
C2059 C2061 1.415 1_655 S
C2060 C2059 1.355 1_455 S
C2060 C2062 1.419 . S
C2061 C2056 1.425 . S
C2061 C2058 1.409 1_455 S
C2061 C2059 1.415 1_455 S
C2062 H2052 0.930 . S
C2062 C2060 1.419 . S
C2062 C2063 1.362 . S
C2063 H2053 0.930 . S
C2063 C2056 1.409 . S
C2063 C2062 1.362 . S
H2064 C2070 0.930 . S
H2065 C2073 0.930 . S
H2066 C2074 0.930 . S
H2067 C2075 0.930 . S
H2068 C2078 0.930 . S
H2069 C2079 0.930 . S
C2070 H2064 0.930 . S
C2070 C2071 1.355 . S
C2070 C2072 1.415 . S
C2071 C2070 1.355 . S
C2071 C2073 1.419 . S
C2072 C2070 1.415 . S
C2072 C2077 1.425 . S
C2072 C2079 1.409 . S
C2073 H2065 0.930 . S
C2073 C2071 1.419 . S
C2073 C2074 1.362 . S
C2074 H2066 0.930 . S
C2074 C2073 1.362 . S
C2074 C2077 1.409 . S
C2075 H2067 0.930 . S
C2075 C2076 1.355 . S
C2075 C2077 1.415 . S
C2076 C2075 1.355 . S
C2076 C2078 1.419 . S
C2077 C2072 1.425 . S
C2077 C2074 1.409 . S
C2077 C2075 1.415 . S
C2078 H2068 0.930 . S
C2078 C2076 1.419 . S
C2078 C2079 1.362 . S
C2079 H2069 0.930 . S
C2079 C2072 1.409 . S
C2079 C2078 1.362 . S
H2080 C2086 0.930 . S
H2081 C2089 0.930 . S
H2082 C2090 0.930 . S
H2083 C2091 0.930 . S
H2084 C2094 0.930 . S
H2085 C2095 0.930 . S
C2086 H2080 0.930 . S
C2086 C2087 1.355 1_565 S
C2086 C2088 1.415 1_565 S
C2087 C2086 1.355 1_545 S
C2087 C2089 1.419 . S
C2088 C2086 1.415 1_545 S
C2088 C2093 1.425 . S
C2088 C2095 1.409 1_545 S
C2089 H2081 0.930 . S
C2089 C2087 1.419 . S
C2089 C2090 1.362 . S
C2090 H2082 0.930 . S
C2090 C2089 1.362 . S
C2090 C2093 1.409 . S
C2091 H2083 0.930 . S
C2091 C2092 1.355 . S
C2091 C2093 1.415 . S
C2092 C2091 1.355 . S
C2092 C2094 1.419 . S
C2093 C2088 1.425 . S
C2093 C2090 1.409 . S
C2093 C2091 1.415 . S
C2094 H2084 0.930 . S
C2094 C2092 1.419 . S
C2094 C2095 1.362 1_545 S
C2095 H2085 0.930 . S
C2095 C2088 1.409 1_565 S
C2095 C2094 1.362 1_565 S
H2096 C2102 0.930 . S
H2097 C2105 0.930 . S
H2098 C2106 0.930 1_455 S
H2099 C2107 0.930 . S
H2100 C2110 0.930 . S
H2101 C2111 0.930 . S
C2102 H2096 0.930 . S
C2102 C2103 1.355 . S
C2102 C2104 1.415 . S
C2103 C2102 1.355 . S
C2103 C2105 1.419 . S
C2104 C2102 1.415 . S
C2104 C2109 1.425 . S
C2104 C2111 1.409 . S
C2105 H2097 0.930 . S
C2105 C2103 1.419 . S
C2105 C2106 1.362 . S
C2106 H2098 0.930 1_655 S
C2106 C2105 1.362 . S
C2106 C2109 1.409 . S
C2107 H2099 0.930 . S
C2107 C2108 1.355 1_455 S
C2107 C2109 1.415 1_455 S
C2108 C2107 1.355 1_655 S
C2108 C2110 1.419 . S
C2109 C2104 1.425 . S
C2109 C2106 1.409 . S
C2109 C2107 1.415 1_655 S
C2110 H2100 0.930 . S
C2110 C2108 1.419 . S
C2110 C2111 1.362 . S
C2111 H2101 0.930 . S
C2111 C2104 1.409 . S
C2111 C2110 1.362 . S
H2112 C2118 0.930 . S
H2113 C2121 0.930 . S
H2114 C2122 0.930 . S
H2115 C2123 0.930 . S
H2116 C2126 0.930 . S
H2117 C2127 0.930 . S
C2118 H2112 0.930 . S
C2118 C2119 1.355 . S
C2118 C2120 1.415 . S
C2119 C2118 1.355 . S
C2119 C2121 1.419 . S
C2120 C2118 1.415 . S
C2120 C2125 1.425 . S
C2120 C2127 1.409 . S
C2121 H2113 0.930 . S
C2121 C2119 1.419 . S
C2121 C2122 1.362 . S
C2122 H2114 0.930 . S
C2122 C2121 1.362 . S
C2122 C2125 1.409 . S
C2123 H2115 0.930 . S
C2123 C2124 1.355 . S
C2123 C2125 1.415 . S
C2124 C2123 1.355 . S
C2124 C2126 1.419 . S
C2125 C2120 1.425 . S
C2125 C2122 1.409 . S
C2125 C2123 1.415 . S
C2126 H2116 0.930 . S
C2126 C2124 1.419 . S
C2126 C2127 1.362 . S
C2127 H2117 0.930 . S
C2127 C2120 1.409 . S
C2127 C2126 1.362 . S
H2128 C2134 0.930 . S
H2129 C2137 0.930 . S
H2130 C2138 0.930 . S
H2131 C2139 0.930 . S
H2132 C2142 0.930 . S
H2133 C2143 0.930 . S
C2134 H2128 0.930 . S
C2134 C2135 1.355 . S
C2134 C2136 1.415 . S
C2135 C2134 1.355 . S
C2135 C2137 1.419 . S
C2136 C2134 1.415 . S
C2136 C2141 1.425 . S
C2136 C2143 1.409 . S
C2137 H2129 0.930 . S
C2137 C2135 1.419 . S
C2137 C2138 1.362 1_545 S
C2138 H2130 0.930 . S
C2138 C2137 1.362 1_565 S
C2138 C2141 1.409 1_565 S
C2139 H2131 0.930 . S
C2139 C2140 1.355 1_565 S
C2139 C2141 1.415 1_565 S
C2140 C2139 1.355 1_545 S
C2140 C2142 1.419 . S
C2141 C2136 1.425 . S
C2141 C2138 1.409 1_545 S
C2141 C2139 1.415 1_545 S
C2142 H2132 0.930 . S
C2142 C2140 1.419 . S
C2142 C2143 1.362 . S
C2143 H2133 0.930 . S
C2143 C2136 1.409 . S
C2143 C2142 1.362 . S
H2144 C2150 0.930 . S
H2145 C2153 0.930 . S
H2146 C2154 0.930 . S
H2147 C2155 0.930 . S
H2148 C2158 0.930 . S
H2149 C2159 0.929 . S
C2150 H2144 0.930 . S
C2150 C2151 1.355 . S
C2150 C2152 1.415 . S
C2151 C2150 1.355 . S
C2151 C2153 1.419 . S
C2152 C2150 1.415 . S
C2152 C2157 1.425 . S
C2152 C2159 1.409 . S
C2153 H2145 0.930 . S
C2153 C2151 1.419 . S
C2153 C2154 1.362 . S
C2154 H2146 0.930 . S
C2154 C2153 1.362 . S
C2154 C2157 1.409 . S
C2155 H2147 0.930 . S
C2155 C2156 1.355 1_655 S
C2155 C2157 1.415 . S
C2156 C2155 1.355 1_455 S
C2156 C2158 1.419 . S
C2157 C2152 1.425 . S
C2157 C2154 1.409 . S
C2157 C2155 1.415 . S
C2158 H2148 0.930 . S
C2158 C2156 1.419 . S
C2158 C2159 1.362 1_455 S
C2159 H2149 0.929 . S
C2159 C2152 1.409 . S
C2159 C2158 1.362 1_655 S
H2160 C2166 0.930 . S
H2161 C2169 0.930 . S
H2162 C2170 0.930 . S
H2163 C2171 0.930 . S
H2164 C2174 0.930 . S
H2165 C2175 0.930 . S
C2166 H2160 0.930 . S
C2166 C2167 1.355 . S
C2166 C2168 1.415 . S
C2167 C2166 1.355 . S
C2167 C2169 1.419 . S
C2168 C2166 1.415 . S
C2168 C2173 1.425 . S
C2168 C2175 1.409 . S
C2169 H2161 0.930 . S
C2169 C2167 1.419 . S
C2169 C2170 1.362 . S
C2170 H2162 0.930 . S
C2170 C2169 1.362 . S
C2170 C2173 1.409 . S
C2171 H2163 0.930 . S
C2171 C2172 1.355 . S
C2171 C2173 1.415 . S
C2172 C2171 1.355 . S
C2172 C2174 1.419 . S
C2173 C2168 1.425 . S
C2173 C2170 1.409 . S
C2173 C2171 1.415 . S
C2174 H2164 0.930 . S
C2174 C2172 1.419 . S
C2174 C2175 1.362 . S
C2175 H2165 0.930 . S
C2175 C2168 1.409 . S
C2175 C2174 1.362 . S
H2176 C2182 0.930 . S
H2177 C2185 0.930 . S
H2178 C2186 0.930 . S
H2179 C2187 0.930 . S
H2180 C2190 0.930 . S
H2181 C2191 0.930 1_545 S
C2182 H2176 0.930 . S
C2182 C2183 1.355 1_545 S
C2182 C2184 1.415 1_545 S
C2183 C2182 1.355 1_565 S
C2183 C2185 1.419 . S
C2184 C2182 1.415 1_565 S
C2184 C2189 1.425 . S
C2184 C2191 1.409 . S
C2185 H2177 0.930 . S
C2185 C2183 1.419 . S
C2185 C2186 1.362 . S
C2186 H2178 0.930 . S
C2186 C2185 1.362 . S
C2186 C2189 1.409 . S
C2187 H2179 0.930 . S
C2187 C2188 1.355 . S
C2187 C2189 1.415 . S
C2188 C2187 1.355 . S
C2188 C2190 1.419 . S
C2189 C2184 1.425 . S
C2189 C2186 1.409 . S
C2189 C2187 1.415 . S
C2190 H2180 0.930 . S
C2190 C2188 1.419 . S
C2190 C2191 1.362 . S
C2191 H2181 0.930 1_565 S
C2191 C2184 1.409 . S
C2191 C2190 1.362 . S
H2192 C2198 0.930 . S
H2193 C2201 0.930 . S
H2194 C2202 0.930 . S
H2195 C2203 0.930 . S
H2196 C2206 0.930 . S
H2197 C2207 0.930 . S
C2198 H2192 0.930 . S
C2198 C2199 1.355 1_455 S
C2198 C2200 1.415 . S
C2199 C2198 1.355 1_655 S
C2199 C2201 1.419 . S
C2200 C2198 1.415 . S
C2200 C2205 1.425 . S
C2200 C2207 1.409 . S
C2201 H2193 0.930 . S
C2201 C2199 1.419 . S
C2201 C2202 1.362 . S
C2202 H2194 0.930 . S
C2202 C2201 1.362 . S
C2202 C2205 1.409 1_655 S
C2203 H2195 0.930 . S
C2203 C2204 1.355 . S
C2203 C2205 1.415 . S
C2204 C2203 1.355 . S
C2204 C2206 1.419 . S
C2205 C2200 1.425 . S
C2205 C2202 1.409 1_455 S
C2205 C2203 1.415 . S
C2206 H2196 0.930 . S
C2206 C2204 1.419 . S
C2206 C2207 1.362 . S
C2207 H2197 0.930 . S
C2207 C2200 1.409 . S
C2207 C2206 1.362 . S
H2208 C2214 0.930 . S
H2209 C2217 0.930 . S
H2210 C2218 0.930 1_455 S
H2211 C2219 0.930 . S
H2212 C2222 0.930 . S
H2213 C2223 0.930 . S
C2214 H2208 0.930 . S
C2214 C2215 1.355 . S
C2214 C2216 1.415 1_655 S
C2215 C2214 1.355 . S
C2215 C2217 1.419 . S
C2216 C2214 1.415 1_455 S
C2216 C2221 1.425 . S
C2216 C2223 1.409 . S
C2217 H2209 0.930 . S
C2217 C2215 1.419 . S
C2217 C2218 1.362 . S
C2218 H2210 0.930 1_655 S
C2218 C2217 1.362 . S
C2218 C2221 1.409 1_655 S
C2219 H2211 0.930 . S
C2219 C2220 1.355 . S
C2219 C2221 1.415 . S
C2220 C2219 1.355 . S
C2220 C2222 1.419 . S
C2221 C2216 1.425 . S
C2221 C2218 1.409 1_455 S
C2221 C2219 1.415 . S
C2222 H2212 0.930 . S
C2222 C2220 1.419 . S
C2222 C2223 1.362 . S
C2223 H2213 0.930 . S
C2223 C2216 1.409 . S
C2223 C2222 1.362 . S
H2224 C2230 0.930 . S
H2225 C2233 0.930 . S
H2226 C2234 0.930 . S
H2227 C2235 0.930 . S
H2228 C2238 0.930 . S
H2229 C2239 0.930 . S
C2230 H2224 0.930 . S
C2230 C2231 1.355 . S
C2230 C2232 1.415 . S
C2231 C2230 1.355 . S
C2231 C2233 1.419 . S
C2232 C2230 1.415 . S
C2232 C2237 1.425 . S
C2232 C2239 1.409 . S
C2233 H2225 0.930 . S
C2233 C2231 1.419 . S
C2233 C2234 1.362 . S
C2234 H2226 0.930 . S
C2234 C2233 1.362 . S
C2234 C2237 1.409 . S
C2235 H2227 0.930 . S
C2235 C2236 1.355 . S
C2235 C2237 1.415 . S
C2236 C2235 1.355 . S
C2236 C2238 1.419 . S
C2237 C2232 1.425 . S
C2237 C2234 1.409 . S
C2237 C2235 1.415 . S
C2238 H2228 0.930 . S
C2238 C2236 1.419 . S
C2238 C2239 1.362 . S
C2239 H2229 0.930 . S
C2239 C2232 1.409 . S
C2239 C2238 1.362 . S
H2240 C2246 0.930 . S
H2241 C2249 0.930 . S
H2242 C2250 0.930 . S
H2243 C2251 0.930 . S
H2244 C2254 0.930 . S
H2245 C2255 0.925 1_565 S
C2246 H2240 0.930 . S
C2246 C2247 1.355 . S
C2246 C2248 1.415 . S
C2247 C2246 1.355 . S
C2247 C2249 1.419 . S
C2248 C2246 1.415 . S
C2248 C2253 1.425 . S
C2248 C2255 1.409 1_565 S
C2249 H2241 0.930 . S
C2249 C2247 1.419 . S
C2249 C2250 1.362 . S
C2250 H2242 0.930 . S
C2250 C2249 1.362 . S
C2250 C2253 1.409 . S
C2251 H2243 0.930 . S
C2251 C2252 1.355 . S
C2251 C2253 1.415 1_545 S
C2252 C2251 1.355 . S
C2252 C2254 1.419 . S
C2253 C2248 1.425 . S
C2253 C2250 1.409 . S
C2253 C2251 1.415 1_565 S
C2254 H2244 0.930 . S
C2254 C2252 1.419 . S
C2254 C2255 1.362 . S
C2255 H2245 0.925 1_545 S
C2255 C2248 1.409 1_545 S
C2255 C2254 1.362 . S
H2256 C2262 0.930 . S
H2257 C2265 0.930 . S
H2258 C2266 0.930 . S
H2259 C2267 0.930 1_655 S
H2260 C2270 0.930 . S
H2261 C2271 0.930 . S
C2262 H2256 0.930 . S
C2262 C2263 1.355 . S
C2262 C2264 1.415 . S
C2263 C2262 1.355 . S
C2263 C2265 1.419 . S
C2264 C2262 1.415 . S
C2264 C2269 1.425 . S
C2264 C2271 1.409 . S
C2265 H2257 0.930 . S
C2265 C2263 1.419 . S
C2265 C2266 1.362 . S
C2266 H2258 0.930 . S
C2266 C2265 1.362 . S
C2266 C2269 1.409 . S
C2267 H2259 0.930 1_455 S
C2267 C2268 1.355 . S
C2267 C2269 1.415 . S
C2268 C2267 1.355 . S
C2268 C2270 1.419 . S
C2269 C2264 1.425 . S
C2269 C2266 1.409 . S
C2269 C2267 1.415 . S
C2270 H2260 0.930 . S
C2270 C2268 1.419 . S
C2270 C2271 1.362 . S
C2271 H2261 0.930 . S
C2271 C2264 1.409 . S
C2271 C2270 1.362 . S
H2272 C2278 0.930 . S
H2273 C2281 0.930 . S
H2274 C2282 0.930 . S
H2275 C2283 0.930 . S
H2276 C2286 0.930 . S
H2277 C2287 0.930 . S
C2278 H2272 0.930 . S
C2278 C2279 1.355 . S
C2278 C2280 1.415 . S
C2279 C2278 1.355 . S
C2279 C2281 1.419 . S
C2280 C2278 1.415 . S
C2280 C2285 1.425 . S
C2280 C2287 1.409 . S
C2281 H2273 0.930 . S
C2281 C2279 1.419 . S
C2281 C2282 1.362 . S
C2282 H2274 0.930 . S
C2282 C2281 1.362 . S
C2282 C2285 1.409 . S
C2283 H2275 0.930 . S
C2283 C2284 1.355 . S
C2283 C2285 1.415 . S
C2284 C2283 1.355 . S
C2284 C2286 1.419 . S
C2285 C2280 1.425 . S
C2285 C2282 1.409 . S
C2285 C2283 1.415 . S
C2286 H2276 0.930 . S
C2286 C2284 1.419 . S
C2286 C2287 1.362 . S
C2287 H2277 0.930 . S
C2287 C2280 1.409 . S
C2287 C2286 1.362 . S
H2288 C2294 0.930 . S
H2289 C2297 0.930 . S
H2290 C2298 0.930 . S
H2291 C2299 0.930 . S
H2292 C2302 0.930 . S
H2293 C2303 0.930 1_545 S
C2294 H2288 0.930 . S
C2294 C2295 1.355 . S
C2294 C2296 1.415 . S
C2295 C2294 1.355 . S
C2295 C2297 1.419 . S
C2296 C2294 1.415 . S
C2296 C2301 1.425 . S
C2296 C2303 1.409 . S
C2297 H2289 0.930 . S
C2297 C2295 1.419 . S
C2297 C2298 1.362 . S
C2298 H2290 0.930 . S
C2298 C2297 1.362 . S
C2298 C2301 1.409 . S
C2299 H2291 0.930 . S
C2299 C2300 1.355 . S
C2299 C2301 1.415 . S
C2300 C2299 1.355 . S
C2300 C2302 1.419 1_565 S
C2301 C2296 1.425 . S
C2301 C2298 1.409 . S
C2301 C2299 1.415 . S
C2302 H2292 0.930 . S
C2302 C2300 1.419 1_545 S
C2302 C2303 1.362 1_545 S
C2303 H2293 0.930 1_565 S
C2303 C2296 1.409 . S
C2303 C2302 1.362 1_565 S
H2304 C2310 0.930 . S
H2305 C2313 0.930 . S
H2306 C2314 0.930 . S
H2307 C2315 0.930 1_545 S
H2308 C2318 0.930 . S
H2309 C2319 0.930 . S
C2310 H2304 0.930 . S
C2310 C2311 1.355 . S
C2310 C2312 1.415 . S
C2311 C2310 1.355 . S
C2311 C2313 1.419 . S
C2312 C2310 1.415 . S
C2312 C2317 1.425 . S
C2312 C2319 1.409 . S
C2313 H2305 0.930 . S
C2313 C2311 1.419 . S
C2313 C2314 1.362 . S
C2314 H2306 0.930 . S
C2314 C2313 1.362 . S
C2314 C2317 1.409 . S
C2315 H2307 0.930 1_565 S
C2315 C2316 1.355 . S
C2315 C2317 1.415 . S
C2316 C2315 1.355 . S
C2316 C2318 1.419 . S
C2317 C2312 1.425 . S
C2317 C2314 1.409 . S
C2317 C2315 1.415 . S
C2318 H2308 0.930 . S
C2318 C2316 1.419 . S
C2318 C2319 1.362 . S
C2319 H2309 0.930 . S
C2319 C2312 1.409 . S
C2319 C2318 1.362 . S
H2320 C2326 0.930 1_655 S
H2321 C2329 0.930 . S
H2322 C2330 0.930 . S
H2323 C2331 0.930 . S
H2324 C2334 0.930 . S
H2325 C2335 0.908 1_655 S
C2326 H2320 0.930 1_455 S
C2326 C2327 1.355 . S
C2326 C2328 1.415 . S
C2327 C2326 1.355 . S
C2327 C2329 1.419 . S
C2328 C2326 1.415 . S
C2328 C2333 1.425 . S
C2328 C2335 1.409 . S
C2329 H2321 0.930 . S
C2329 C2327 1.419 . S
C2329 C2330 1.362 . S
C2330 H2322 0.930 . S
C2330 C2329 1.362 . S
C2330 C2333 1.409 . S
C2331 H2323 0.930 . S
C2331 C2332 1.355 . S
C2331 C2333 1.415 . S
C2332 C2331 1.355 . S
C2332 C2334 1.419 . S
C2333 C2328 1.425 . S
C2333 C2330 1.409 . S
C2333 C2331 1.415 . S
C2334 H2324 0.930 . S
C2334 C2332 1.419 . S
C2334 C2335 1.362 . S
C2335 H2325 0.908 1_455 S
C2335 C2328 1.409 . S
C2335 C2334 1.362 . S
H2336 C2342 0.930 . S
H2337 C2345 0.930 . S
H2338 C2346 0.930 . S
H2339 C2347 0.930 . S
H2340 C2350 0.930 . S
H2341 C2351 0.930 . S
C2342 H2336 0.930 . S
C2342 C2343 1.355 . S
C2342 C2344 1.415 . S
C2343 C2342 1.355 . S
C2343 C2345 1.419 . S
C2344 C2342 1.415 . S
C2344 C2349 1.425 . S
C2344 C2351 1.409 . S
C2345 H2337 0.930 . S
C2345 C2343 1.419 . S
C2345 C2346 1.362 . S
C2346 H2338 0.930 . S
C2346 C2345 1.362 . S
C2346 C2349 1.409 . S
C2347 H2339 0.930 . S
C2347 C2348 1.355 . S
C2347 C2349 1.415 . S
C2348 C2347 1.355 . S
C2348 C2350 1.419 . S
C2349 C2344 1.425 . S
C2349 C2346 1.409 . S
C2349 C2347 1.415 . S
C2350 H2340 0.930 . S
C2350 C2348 1.419 . S
C2350 C2351 1.362 . S
C2351 H2341 0.930 . S
C2351 C2344 1.409 . S
C2351 C2350 1.362 . S
H2352 C2358 0.975 . S
H2353 C2361 0.930 . S
H2354 C2362 0.930 . S
H2355 C2363 0.930 . S
H2356 C2366 0.932 . S
H2357 C2367 0.930 . S
C2358 H2352 0.975 . S
C2358 C2359 1.335 1_554 S
C2358 C2360 1.405 1_554 S
C2359 C2358 1.335 1_556 S
C2359 C2361 1.445 . S
C2360 C2358 1.405 1_556 S
C2360 C2365 1.430 . S
C2360 C2367 1.406 1_566 S
C2361 H2353 0.930 . S
C2361 C2359 1.445 . S
C2361 C2362 1.362 . S
C2362 H2354 0.930 . S
C2362 C2361 1.362 . S
C2362 C2365 1.409 . S
C2363 H2355 0.930 . S
C2363 C2364 1.355 . S
C2363 C2365 1.415 1_545 S
C2364 C2363 1.355 . S
C2364 C2366 1.415 1_556 S
C2365 C2360 1.430 . S
C2365 C2362 1.409 . S
C2365 C2363 1.415 1_565 S
C2366 H2356 0.932 . S
C2366 C2364 1.415 1_554 S
C2366 C2367 1.364 . S
C2367 H2357 0.930 . S
C2367 C2360 1.406 1_544 S
C2367 C2366 1.364 . S
H2368 C2374 0.930 . S
H2369 C2377 0.947 . S
H2370 C2378 0.929 1_554 S
H2371 C2379 0.930 . S
H2372 C2382 0.930 . S
H2373 C2383 0.930 1_455 S
C2374 H2368 0.930 . S
C2374 C2375 1.358 . S
C2374 C2376 1.415 . S
C2375 C2374 1.358 . S
C2375 C2377 1.413 1_556 S
C2376 C2374 1.415 . S
C2376 C2381 1.425 . S
C2376 C2383 1.409 1_455 S
C2377 H2369 0.947 . S
C2377 C2375 1.413 1_554 S
C2377 C2378 1.359 1_554 S
C2378 H2370 0.929 1_556 S
C2378 C2377 1.359 1_556 S
C2378 C2381 1.407 . S
C2379 H2371 0.930 . S
C2379 C2380 1.355 . S
C2379 C2381 1.415 1_655 S
C2380 C2379 1.355 . S
C2380 C2382 1.419 . S
C2381 C2376 1.425 . S
C2381 C2378 1.407 . S
C2381 C2379 1.415 1_455 S
C2382 H2372 0.930 . S
C2382 C2380 1.419 . S
C2382 C2383 1.362 . S
C2383 H2373 0.930 1_655 S
C2383 C2376 1.409 1_655 S
C2383 C2382 1.362 . S
H2384 C2390 0.930 . S
H2385 C2393 0.930 1_554 S
H2386 C2394 0.930 . S
H2387 C2395 0.930 . S
H2388 C2398 0.930 . S
H2389 C2399 0.930 . S
C2390 H2384 0.930 . S
C2390 C2391 1.355 . S
C2390 C2392 1.415 . S
C2391 C2390 1.355 . S
C2391 C2393 1.420 . S
C2392 C2390 1.415 . S
C2392 C2397 1.430 . S
C2392 C2399 1.409 . S
C2393 H2385 0.930 1_556 S
C2393 C2391 1.420 . S
C2393 C2394 1.362 1_556 S
C2394 H2386 0.930 . S
C2394 C2393 1.362 1_554 S
C2394 C2397 1.407 1_554 S
C2395 H2387 0.930 . S
C2395 C2396 1.350 1_554 S
C2395 C2397 1.413 1_554 S
C2396 C2395 1.350 1_556 S
C2396 C2398 1.428 . S
C2397 C2392 1.430 . S
C2397 C2394 1.407 1_556 S
C2397 C2395 1.413 1_556 S
C2398 H2388 0.930 . S
C2398 C2396 1.428 . S
C2398 C2399 1.362 . S
C2399 H2389 0.930 . S
C2399 C2392 1.409 . S
C2399 C2398 1.362 . S
H2400 C2406 0.930 . S
H2401 C2409 0.930 . S
H2402 C2410 0.930 1_565 S
H2403 C2411 0.930 1_565 S
H2404 C2414 0.930 . S
H2405 C2415 0.930 . S
C2406 H2400 0.930 . S
C2406 C2407 1.355 . S
C2406 C2408 1.415 . S
C2407 C2406 1.355 . S
C2407 C2409 1.419 . S
C2408 C2406 1.415 . S
C2408 C2413 1.425 . S
C2408 C2415 1.409 . S
C2409 H2401 0.930 . S
C2409 C2407 1.419 . S
C2409 C2410 1.362 . S
C2410 H2402 0.930 1_545 S
C2410 C2409 1.362 . S
C2410 C2413 1.409 . S
C2411 H2403 0.930 1_545 S
C2411 C2412 1.355 . S
C2411 C2413 1.415 . S
C2412 C2411 1.355 . S
C2412 C2414 1.419 . S
C2413 C2408 1.425 . S
C2413 C2410 1.409 . S
C2413 C2411 1.415 . S
C2414 H2404 0.930 . S
C2414 C2412 1.419 . S
C2414 C2415 1.362 . S
C2415 H2405 0.930 . S
C2415 C2408 1.409 . S
C2415 C2414 1.362 . S
H2416 C2422 0.930 . S
H2417 C2425 0.930 . S
H2418 C2426 0.930 . S
H2419 C2427 0.930 . S
H2420 C2430 0.930 . S
H2421 C2431 0.930 . S
C2422 H2416 0.930 . S
C2422 C2423 1.355 . S
C2422 C2424 1.415 . S
C2423 C2422 1.355 . S
C2423 C2425 1.419 . S
C2424 C2422 1.415 . S
C2424 C2429 1.425 . S
C2424 C2431 1.409 1_655 S
C2425 H2417 0.930 . S
C2425 C2423 1.419 . S
C2425 C2426 1.362 . S
C2426 H2418 0.930 . S
C2426 C2425 1.362 . S
C2426 C2429 1.409 . S
C2427 H2419 0.930 . S
C2427 C2428 1.355 . S
C2427 C2429 1.415 . S
C2428 C2427 1.355 . S
C2428 C2430 1.419 1_655 S
C2429 C2424 1.425 . S
C2429 C2426 1.409 . S
C2429 C2427 1.415 . S
C2430 H2420 0.930 . S
C2430 C2428 1.419 1_455 S
C2430 C2431 1.362 . S
C2431 H2421 0.930 . S
C2431 C2424 1.409 1_455 S
C2431 C2430 1.362 . S
H2432 C2438 0.930 . S
H2433 C2441 0.930 . S
H2434 C2442 0.930 . S
H2435 C2443 0.930 . S
H2436 C2446 0.930 . S
H2437 C2447 0.930 . S
C2438 H2432 0.930 . S
C2438 C2439 1.355 . S
C2438 C2440 1.415 . S
C2439 C2438 1.355 . S
C2439 C2441 1.419 . S
C2440 C2438 1.415 . S
C2440 C2445 1.425 . S
C2440 C2447 1.409 . S
C2441 H2433 0.930 . S
C2441 C2439 1.419 . S
C2441 C2442 1.362 . S
C2442 H2434 0.930 . S
C2442 C2441 1.362 . S
C2442 C2445 1.409 . S
C2443 H2435 0.930 . S
C2443 C2444 1.355 . S
C2443 C2445 1.415 . S
C2444 C2443 1.355 . S
C2444 C2446 1.419 . S
C2445 C2440 1.425 . S
C2445 C2442 1.409 . S
C2445 C2443 1.415 . S
C2446 H2436 0.930 . S
C2446 C2444 1.419 . S
C2446 C2447 1.362 . S
C2447 H2437 0.930 . S
C2447 C2440 1.409 . S
C2447 C2446 1.362 . S
H2448 C2454 0.930 . S
H2449 C2457 0.930 . S
H2450 C2458 0.930 1_545 S
H2451 C2459 0.930 . S
H2452 C2462 0.930 . S
H2453 C2463 0.930 . S
C2454 H2448 0.930 . S
C2454 C2455 1.355 . S
C2454 C2456 1.415 1_565 S
C2455 C2454 1.355 . S
C2455 C2457 1.419 1_554 S
C2456 C2454 1.415 1_545 S
C2456 C2461 1.425 1_554 S
C2456 C2463 1.409 . S
C2457 H2449 0.930 . S
C2457 C2455 1.419 1_556 S
C2457 C2458 1.362 . S
C2458 H2450 0.930 1_565 S
C2458 C2457 1.362 . S
C2458 C2461 1.409 1_565 S
C2459 H2451 0.930 . S
C2459 C2460 1.277 1_556 S
C2459 C2461 1.415 . S
C2460 C2459 1.277 1_554 S
C2460 C2462 1.535 . S
C2461 C2456 1.425 1_556 S
C2461 C2458 1.409 1_545 S
C2461 C2459 1.415 . S
C2462 H2452 0.930 . S
C2462 C2460 1.535 . S
C2462 C2463 1.362 . S
C2463 H2453 0.930 . S
C2463 C2456 1.409 . S
C2463 C2462 1.362 . S
H2464 C2470 0.930 . S
H2465 C2473 0.930 . S
H2466 C2474 0.930 . S
H2467 C2475 0.930 . S
H2468 C2478 0.930 . S
H2469 C2479 0.930 . S
C2470 H2464 0.930 . S
C2470 C2471 1.332 1_556 S
C2470 C2472 1.415 . S
C2471 C2470 1.332 1_554 S
C2471 C2473 1.455 . S
C2472 C2470 1.415 . S
C2472 C2477 1.425 1_556 S
C2472 C2479 1.409 1_655 S
C2473 H2465 0.930 . S
C2473 C2471 1.455 . S
C2473 C2474 1.362 . S
C2474 H2466 0.930 . S
C2474 C2473 1.362 . S
C2474 C2477 1.409 . S
C2475 H2467 0.930 . S
C2475 C2476 1.355 . S
C2475 C2477 1.415 1_455 S
C2476 C2475 1.355 . S
C2476 C2478 1.419 1_554 S
C2477 C2472 1.425 1_554 S
C2477 C2474 1.409 . S
C2477 C2475 1.415 1_655 S
C2478 H2468 0.930 . S
C2478 C2476 1.419 1_556 S
C2478 C2479 1.362 . S
C2479 H2469 0.930 . S
C2479 C2472 1.409 1_455 S
C2479 C2478 1.362 . S
H2480 C2486 0.930 . S
H2481 C2489 0.930 . S
H2482 C2490 0.937 . S
H2483 C2491 0.927 . S
H2484 C2494 0.930 . S
H2485 C2495 0.930 . S
C2486 H2480 0.930 . S
C2486 C2487 1.355 . S
C2486 C2488 1.415 . S
C2487 C2486 1.355 . S
C2487 C2489 1.419 . S
C2488 C2486 1.415 . S
C2488 C2493 1.425 . S
C2488 C2495 1.409 . S
C2489 H2481 0.930 . S
C2489 C2487 1.419 . S
C2489 C2490 1.362 . S
C2490 H2482 0.937 . S
C2490 C2489 1.362 . S
C2490 C2493 1.409 . S
C2491 H2483 0.927 . S
C2491 C2492 1.355 . S
C2491 C2493 1.424 . S
C2492 C2491 1.355 . S
C2492 C2494 1.429 . S
C2493 C2488 1.425 . S
C2493 C2490 1.409 . S
C2493 C2491 1.424 . S
C2494 H2484 0.930 . S
C2494 C2492 1.429 . S
C2494 C2495 1.362 . S
C2495 H2485 0.930 . S
C2495 C2488 1.409 . S
C2495 C2494 1.362 . S
H2496 C2502 0.930 . S
H2497 C2505 0.930 . S
H2498 C2506 0.930 . S
H2499 C2507 0.930 . S
H2500 C2510 0.930 . S
H2501 C2511 0.930 . S
C2502 H2496 0.930 . S
C2502 C2503 1.355 . S
C2502 C2504 1.415 1_455 S
C2503 C2502 1.355 . S
C2503 C2505 1.419 . S
C2504 C2502 1.415 1_655 S
C2504 C2509 1.425 . S
C2504 C2511 1.409 . S
C2505 H2497 0.930 . S
C2505 C2503 1.419 . S
C2505 C2506 1.362 1_455 S
C2506 H2498 0.930 . S
C2506 C2505 1.362 1_655 S
C2506 C2509 1.409 . S
C2507 H2499 0.930 . S
C2507 C2508 1.355 . S
C2507 C2509 1.415 . S
C2508 C2507 1.355 . S
C2508 C2510 1.419 . S
C2509 C2504 1.425 . S
C2509 C2506 1.409 . S
C2509 C2507 1.415 . S
C2510 H2500 0.930 . S
C2510 C2508 1.419 . S
C2510 C2511 1.362 . S
C2511 H2501 0.930 . S
C2511 C2504 1.409 . S
C2511 C2510 1.362 . S
H2512 C2518 0.930 . S
H2513 C2521 0.930 . S
H2514 C2522 0.930 . S
H2515 C2523 0.930 . S
H2516 C2526 0.930 . S
H2517 C2527 0.930 . S
C2518 H2512 0.930 . S
C2518 C2519 1.355 . S
C2518 C2520 1.415 . S
C2519 C2518 1.355 . S
C2519 C2521 1.419 . S
C2520 C2518 1.415 . S
C2520 C2525 1.425 . S
C2520 C2527 1.409 . S
C2521 H2513 0.930 . S
C2521 C2519 1.419 . S
C2521 C2522 1.362 . S
C2522 H2514 0.930 . S
C2522 C2521 1.362 . S
C2522 C2525 1.409 . S
C2523 H2515 0.930 . S
C2523 C2524 1.355 . S
C2523 C2525 1.415 . S
C2524 C2523 1.355 . S
C2524 C2526 1.419 . S
C2525 C2520 1.425 . S
C2525 C2522 1.409 . S
C2525 C2523 1.415 . S
C2526 H2516 0.930 . S
C2526 C2524 1.419 . S
C2526 C2527 1.362 . S
C2527 H2517 0.930 . S
C2527 C2520 1.409 . S
C2527 C2526 1.362 . S
H2528 C2534 0.930 . S
H2529 C2537 0.930 . S
H2530 C2538 0.930 . S
H2531 C2539 0.930 . S
H2532 C2542 0.930 . S
H2533 C2543 0.930 . S
C2534 H2528 0.930 . S
C2534 C2535 1.355 . S
C2534 C2536 1.415 1_565 S
C2535 C2534 1.355 . S
C2535 C2537 1.419 . S
C2536 C2534 1.415 1_545 S
C2536 C2541 1.425 . S
C2536 C2543 1.409 . S
C2537 H2529 0.930 . S
C2537 C2535 1.419 . S
C2537 C2538 1.362 1_565 S
C2538 H2530 0.930 . S
C2538 C2537 1.362 1_545 S
C2538 C2541 1.409 . S
C2539 H2531 0.930 . S
C2539 C2540 1.355 . S
C2539 C2541 1.415 . S
C2540 C2539 1.355 . S
C2540 C2542 1.419 . S
C2541 C2536 1.425 . S
C2541 C2538 1.409 . S
C2541 C2539 1.415 . S
C2542 H2532 0.930 . S
C2542 C2540 1.419 . S
C2542 C2543 1.362 . S
C2543 H2533 0.930 . S
C2543 C2536 1.409 . S
C2543 C2542 1.362 . S
H2544 C2550 0.930 1_455 S
H2545 C2553 0.930 . S
H2546 C2554 0.930 . S
H2547 C2555 0.930 . S
H2548 C2558 0.930 . S
H2549 C2559 0.930 . S
C2550 H2544 0.930 1_655 S
C2550 C2551 1.355 . S
C2550 C2552 1.415 . S
C2551 C2550 1.355 . S
C2551 C2553 1.419 . S
C2552 C2550 1.415 . S
C2552 C2557 1.425 . S
C2552 C2559 1.409 . S
C2553 H2545 0.930 . S
C2553 C2551 1.419 . S
C2553 C2554 1.362 . S
C2554 H2546 0.930 . S
C2554 C2553 1.362 . S
C2554 C2557 1.409 . S
C2555 H2547 0.930 . S
C2555 C2556 1.355 . S
C2555 C2557 1.415 . S
C2556 C2555 1.355 . S
C2556 C2558 1.419 . S
C2557 C2552 1.425 . S
C2557 C2554 1.409 . S
C2557 C2555 1.415 . S
C2558 H2548 0.930 . S
C2558 C2556 1.419 . S
C2558 C2559 1.362 . S
C2559 H2549 0.930 . S
C2559 C2552 1.409 . S
C2559 C2558 1.362 . S
H2560 C2566 0.930 . S
H2561 C2569 0.930 . S
H2562 C2570 0.930 . S
H2563 C2571 0.930 . S
H2564 C2574 0.930 . S
H2565 C2575 0.930 . S
C2566 H2560 0.930 . S
C2566 C2567 1.355 . S
C2566 C2568 1.415 . S
C2567 C2566 1.355 . S
C2567 C2569 1.419 . S
C2568 C2566 1.415 . S
C2568 C2573 1.425 . S
C2568 C2575 1.409 . S
C2569 H2561 0.930 . S
C2569 C2567 1.419 . S
C2569 C2570 1.362 . S
C2570 H2562 0.930 . S
C2570 C2569 1.362 . S
C2570 C2573 1.409 . S
C2571 H2563 0.930 . S
C2571 C2572 1.355 . S
C2571 C2573 1.415 . S
C2572 C2571 1.355 . S
C2572 C2574 1.419 . S
C2573 C2568 1.425 . S
C2573 C2570 1.409 . S
C2573 C2571 1.415 . S
C2574 H2564 0.930 . S
C2574 C2572 1.419 . S
C2574 C2575 1.362 . S
C2575 H2565 0.930 . S
C2575 C2568 1.409 . S
C2575 C2574 1.362 . S
H2576 C2582 0.930 . S
H2577 C2585 0.930 . S
H2578 C2586 0.930 . S
H2579 C2587 0.930 . S
H2580 C2590 0.930 . S
H2581 C2591 0.929 1_565 S
C2582 H2576 0.930 . S
C2582 C2583 1.355 . S
C2582 C2584 1.415 . S
C2583 C2582 1.355 . S
C2583 C2585 1.419 . S
C2584 C2582 1.415 . S
C2584 C2589 1.425 . S
C2584 C2591 1.427 . S
C2585 H2577 0.930 . S
C2585 C2583 1.419 . S
C2585 C2586 1.362 . S
C2586 H2578 0.930 . S
C2586 C2585 1.362 . S
C2586 C2589 1.409 . S
C2587 H2579 0.930 . S
C2587 C2588 1.355 . S
C2587 C2589 1.415 . S
C2588 C2587 1.355 . S
C2588 C2590 1.419 1_545 S
C2589 C2584 1.425 . S
C2589 C2586 1.409 . S
C2589 C2587 1.415 . S
C2590 H2580 0.930 . S
C2590 C2588 1.419 1_565 S
C2590 C2591 1.346 1_565 S
C2591 H2581 0.929 1_545 S
C2591 C2584 1.427 . S
C2591 C2590 1.346 1_545 S
H2592 C2598 0.930 . S
H2593 C2601 0.930 . S
H2594 C2602 0.930 . S
H2595 C2603 0.930 . S
H2596 C2606 0.930 . S
H2597 C2607 0.930 . S
C2598 H2592 0.930 . S
C2598 C2599 1.355 . S
C2598 C2600 1.415 . S
C2599 C2598 1.355 . S
C2599 C2601 1.419 . S
C2600 C2598 1.415 . S
C2600 C2605 1.425 . S
C2600 C2607 1.409 . S
C2601 H2593 0.930 . S
C2601 C2599 1.419 . S
C2601 C2602 1.362 . S
C2602 H2594 0.930 . S
C2602 C2601 1.362 . S
C2602 C2605 1.409 . S
C2603 H2595 0.930 . S
C2603 C2604 1.355 . S
C2603 C2605 1.415 . S
C2604 C2603 1.355 . S
C2604 C2606 1.419 . S
C2605 C2600 1.425 . S
C2605 C2602 1.409 . S
C2605 C2603 1.415 . S
C2606 H2596 0.930 . S
C2606 C2604 1.419 . S
C2606 C2607 1.362 . S
C2607 H2597 0.930 . S
C2607 C2600 1.409 . S
C2607 C2606 1.362 . S
H2608 C2614 0.930 . S
H2609 C2617 0.930 . S
H2610 C2618 0.930 . S
H2611 C2619 0.930 . S
H2612 C2622 0.930 . S
H2613 C2623 0.930 . S
C2614 H2608 0.930 . S
C2614 C2615 1.355 . S
C2614 C2616 1.415 . S
C2615 C2614 1.355 . S
C2615 C2617 1.419 . S
C2616 C2614 1.415 . S
C2616 C2621 1.425 . S
C2616 C2623 1.409 . S
C2617 H2609 0.930 . S
C2617 C2615 1.419 . S
C2617 C2618 1.362 . S
C2618 H2610 0.930 . S
C2618 C2617 1.362 . S
C2618 C2621 1.409 . S
C2619 H2611 0.930 . S
C2619 C2620 1.355 . S
C2619 C2621 1.415 . S
C2620 C2619 1.355 . S
C2620 C2622 1.419 . S
C2621 C2616 1.425 . S
C2621 C2618 1.409 . S
C2621 C2619 1.415 . S
C2622 H2612 0.930 . S
C2622 C2620 1.419 . S
C2622 C2623 1.362 . S
C2623 H2613 0.930 . S
C2623 C2616 1.409 . S
C2623 C2622 1.362 . S
H2624 C2630 0.930 . S
H2625 C2633 0.930 . S
H2626 C2634 0.930 . S
H2627 C2635 0.930 . S
H2628 C2638 0.930 . S
H2629 C2639 0.930 . S
C2630 H2624 0.930 . S
C2630 C2631 1.355 . S
C2630 C2632 1.415 . S
C2631 C2630 1.355 . S
C2631 C2633 1.419 . S
C2632 C2630 1.415 . S
C2632 C2637 1.425 . S
C2632 C2639 1.409 . S
C2633 H2625 0.930 . S
C2633 C2631 1.419 . S
C2633 C2634 1.362 . S
C2634 H2626 0.930 . S
C2634 C2633 1.362 . S
C2634 C2637 1.409 . S
C2635 H2627 0.930 . S
C2635 C2636 1.355 . S
C2635 C2637 1.415 . S
C2636 C2635 1.355 . S
C2636 C2638 1.419 . S
C2637 C2632 1.425 . S
C2637 C2634 1.409 . S
C2637 C2635 1.415 . S
C2638 H2628 0.930 . S
C2638 C2636 1.419 . S
C2638 C2639 1.362 . S
C2639 H2629 0.930 . S
C2639 C2632 1.409 . S
C2639 C2638 1.362 . S
H2640 C2646 0.930 . S
H2641 C2649 0.930 . S
H2642 C2650 0.930 . S
H2643 C2651 0.930 . S
H2644 C2654 0.930 . S
H2645 C2655 0.930 . S
C2646 H2640 0.930 . S
C2646 C2647 1.355 . S
C2646 C2648 1.415 . S
C2647 C2646 1.355 . S
C2647 C2649 1.419 . S
C2648 C2646 1.415 . S
C2648 C2653 1.425 . S
C2648 C2655 1.409 . S
C2649 H2641 0.930 . S
C2649 C2647 1.419 . S
C2649 C2650 1.362 . S
C2650 H2642 0.930 . S
C2650 C2649 1.362 . S
C2650 C2653 1.409 . S
C2651 H2643 0.930 . S
C2651 C2652 1.355 . S
C2651 C2653 1.415 . S
C2652 C2651 1.355 . S
C2652 C2654 1.419 . S
C2653 C2648 1.425 . S
C2653 C2650 1.409 . S
C2653 C2651 1.415 . S
C2654 H2644 0.930 . S
C2654 C2652 1.419 . S
C2654 C2655 1.362 . S
C2655 H2645 0.930 . S
C2655 C2648 1.409 . S
C2655 C2654 1.362 . S
H2656 C2662 0.930 . S
H2657 C2665 0.930 . S
H2658 C2666 0.930 . S
H2659 C2667 0.930 . S
H2660 C2670 0.930 . S
H2661 C2671 0.930 . S
C2662 H2656 0.930 . S
C2662 C2663 1.355 . S
C2662 C2664 1.415 . S
C2663 C2662 1.355 . S
C2663 C2665 1.419 . S
C2664 C2662 1.415 . S
C2664 C2669 1.425 . S
C2664 C2671 1.409 . S
C2665 H2657 0.930 . S
C2665 C2663 1.419 . S
C2665 C2666 1.362 . S
C2666 H2658 0.930 . S
C2666 C2665 1.362 . S
C2666 C2669 1.409 . S
C2667 H2659 0.930 . S
C2667 C2668 1.355 . S
C2667 C2669 1.415 . S
C2668 C2667 1.355 . S
C2668 C2670 1.419 . S
C2669 C2664 1.425 . S
C2669 C2666 1.409 . S
C2669 C2667 1.415 . S
C2670 H2660 0.930 . S
C2670 C2668 1.419 . S
C2670 C2671 1.362 . S
C2671 H2661 0.930 . S
C2671 C2664 1.409 . S
C2671 C2670 1.362 . S
H2672 C2678 0.930 . S
H2673 C2681 0.930 . S
H2674 C2682 0.930 . S
H2675 C2683 0.930 . S
H2676 C2686 0.930 . S
H2677 C2687 0.930 . S
C2678 H2672 0.930 . S
C2678 C2679 1.355 . S
C2678 C2680 1.415 . S
C2679 C2678 1.355 . S
C2679 C2681 1.419 . S
C2680 C2678 1.415 . S
C2680 C2685 1.425 . S
C2680 C2687 1.409 . S
C2681 H2673 0.930 . S
C2681 C2679 1.419 . S
C2681 C2682 1.362 . S
C2682 H2674 0.930 . S
C2682 C2681 1.362 . S
C2682 C2685 1.409 . S
C2683 H2675 0.930 . S
C2683 C2684 1.355 . S
C2683 C2685 1.415 . S
C2684 C2683 1.355 . S
C2684 C2686 1.419 . S
C2685 C2680 1.425 . S
C2685 C2682 1.409 . S
C2685 C2683 1.415 . S
C2686 H2676 0.930 . S
C2686 C2684 1.419 . S
C2686 C2687 1.362 . S
C2687 H2677 0.930 . S
C2687 C2680 1.409 . S
C2687 C2686 1.362 . S
H2688 C2694 0.930 . S
H2689 C2697 0.930 . S
H2690 C2698 0.930 . S
H2691 C2699 0.930 . S
H2692 C2702 0.930 . S
H2693 C2703 0.930 . S
C2694 H2688 0.930 . S
C2694 C2695 1.355 . S
C2694 C2696 1.415 . S
C2695 C2694 1.355 . S
C2695 C2697 1.419 . S
C2696 C2694 1.415 . S
C2696 C2701 1.425 . S
C2696 C2703 1.409 . S
C2697 H2689 0.930 . S
C2697 C2695 1.419 . S
C2697 C2698 1.362 . S
C2698 H2690 0.930 . S
C2698 C2697 1.362 . S
C2698 C2701 1.409 . S
C2699 H2691 0.930 . S
C2699 C2700 1.355 . S
C2699 C2701 1.415 . S
C2700 C2699 1.355 . S
C2700 C2702 1.419 . S
C2701 C2696 1.425 . S
C2701 C2698 1.409 . S
C2701 C2699 1.415 . S
C2702 H2692 0.930 . S
C2702 C2700 1.419 . S
C2702 C2703 1.362 . S
C2703 H2693 0.930 . S
C2703 C2696 1.409 . S
C2703 C2702 1.362 . S
H2704 C2710 0.930 . S
H2705 C2713 0.930 . S
H2706 C2714 0.930 . S
H2707 C2715 0.930 . S
H2708 C2718 0.930 . S
H2709 C2719 0.930 . S
C2710 H2704 0.930 . S
C2710 C2711 1.355 . S
C2710 C2712 1.415 . S
C2711 C2710 1.355 . S
C2711 C2713 1.419 . S
C2712 C2710 1.415 . S
C2712 C2717 1.425 . S
C2712 C2719 1.409 . S
C2713 H2705 0.930 . S
C2713 C2711 1.419 . S
C2713 C2714 1.362 . S
C2714 H2706 0.930 . S
C2714 C2713 1.362 . S
C2714 C2717 1.409 . S
C2715 H2707 0.930 . S
C2715 C2716 1.355 . S
C2715 C2717 1.415 . S
C2716 C2715 1.355 . S
C2716 C2718 1.419 . S
C2717 C2712 1.425 . S
C2717 C2714 1.409 . S
C2717 C2715 1.415 . S
C2718 H2708 0.930 . S
C2718 C2716 1.419 . S
C2718 C2719 1.362 . S
C2719 H2709 0.930 . S
C2719 C2712 1.409 . S
C2719 C2718 1.362 . S
H2720 C2726 0.930 . S
H2721 C2729 0.930 . S
H2722 C2730 0.930 . S
H2723 C2731 0.930 . S
H2724 C2734 0.930 . S
H2725 C2735 0.930 . S
C2726 H2720 0.930 . S
C2726 C2727 1.355 . S
C2726 C2728 1.415 . S
C2727 C2726 1.355 . S
C2727 C2729 1.419 . S
C2728 C2726 1.415 . S
C2728 C2733 1.425 . S
C2728 C2735 1.409 . S
C2729 H2721 0.930 . S
C2729 C2727 1.419 . S
C2729 C2730 1.362 . S
C2730 H2722 0.930 . S
C2730 C2729 1.362 . S
C2730 C2733 1.409 . S
C2731 H2723 0.930 . S
C2731 C2732 1.355 . S
C2731 C2733 1.415 . S
C2732 C2731 1.355 . S
C2732 C2734 1.419 . S
C2733 C2728 1.425 . S
C2733 C2730 1.409 . S
C2733 C2731 1.415 . S
C2734 H2724 0.930 . S
C2734 C2732 1.419 . S
C2734 C2735 1.362 . S
C2735 H2725 0.930 . S
C2735 C2728 1.409 . S
C2735 C2734 1.362 . S
H2736 C2742 0.930 . S
H2737 C2745 0.930 . S
H2738 C2746 0.930 . S
H2739 C2747 0.930 . S
H2740 C2750 0.930 . S
H2741 C2751 0.930 . S
C2742 H2736 0.930 . S
C2742 C2743 1.355 . S
C2742 C2744 1.415 . S
C2743 C2742 1.355 . S
C2743 C2745 1.419 . S
C2744 C2742 1.415 . S
C2744 C2749 1.425 . S
C2744 C2751 1.409 . S
C2745 H2737 0.930 . S
C2745 C2743 1.419 . S
C2745 C2746 1.362 . S
C2746 H2738 0.930 . S
C2746 C2745 1.362 . S
C2746 C2749 1.409 . S
C2747 H2739 0.930 . S
C2747 C2748 1.355 . S
C2747 C2749 1.415 . S
C2748 C2747 1.355 . S
C2748 C2750 1.419 . S
C2749 C2744 1.425 . S
C2749 C2746 1.409 . S
C2749 C2747 1.415 . S
C2750 H2740 0.930 . S
C2750 C2748 1.419 . S
C2750 C2751 1.362 . S
C2751 H2741 0.930 . S
C2751 C2744 1.409 . S
C2751 C2750 1.362 . S
H2752 C2758 0.930 . S
H2753 C2761 0.930 . S
H2754 C2762 0.930 . S
H2755 C2763 0.930 . S
H2756 C2766 0.930 . S
H2757 C2767 0.930 . S
C2758 H2752 0.930 . S
C2758 C2759 1.355 . S
C2758 C2760 1.415 . S
C2759 C2758 1.355 . S
C2759 C2761 1.419 . S
C2760 C2758 1.415 . S
C2760 C2765 1.425 . S
C2760 C2767 1.409 . S
C2761 H2753 0.930 . S
C2761 C2759 1.419 . S
C2761 C2762 1.362 . S
C2762 H2754 0.930 . S
C2762 C2761 1.362 . S
C2762 C2765 1.409 . S
C2763 H2755 0.930 . S
C2763 C2764 1.355 . S
C2763 C2765 1.415 . S
C2764 C2763 1.355 . S
C2764 C2766 1.419 . S
C2765 C2760 1.425 . S
C2765 C2762 1.409 . S
C2765 C2763 1.415 . S
C2766 H2756 0.930 . S
C2766 C2764 1.419 . S
C2766 C2767 1.362 . S
C2767 H2757 0.930 . S
C2767 C2760 1.409 . S
C2767 C2766 1.362 . S
H2768 C2774 0.930 . S
H2769 C2777 0.930 . S
H2770 C2778 0.930 . S
H2771 C2779 0.930 . S
H2772 C2782 0.930 . S
H2773 C2783 0.930 1_655 S
C2774 H2768 0.930 . S
C2774 C2775 1.355 . S
C2774 C2776 1.415 . S
C2775 C2774 1.355 . S
C2775 C2777 1.419 . S
C2776 C2774 1.415 . S
C2776 C2781 1.425 . S
C2776 C2783 1.409 . S
C2777 H2769 0.930 . S
C2777 C2775 1.419 . S
C2777 C2778 1.362 . S
C2778 H2770 0.930 . S
C2778 C2777 1.362 . S
C2778 C2781 1.409 . S
C2779 H2771 0.930 . S
C2779 C2780 1.355 . S
C2779 C2781 1.415 . S
C2780 C2779 1.355 . S
C2780 C2782 1.419 . S
C2781 C2776 1.425 . S
C2781 C2778 1.409 . S
C2781 C2779 1.415 . S
C2782 H2772 0.930 . S
C2782 C2780 1.419 . S
C2782 C2783 1.362 . S
C2783 H2773 0.930 1_455 S
C2783 C2776 1.409 . S
C2783 C2782 1.362 . S
H2784 C2790 0.930 . S
H2785 C2793 0.931 . S
H2786 C2794 0.930 . S
H2787 C2795 0.930 . S
H2788 C2798 0.930 . S
H2789 C2799 0.930 . S
C2790 H2784 0.930 . S
C2790 C2791 1.355 . S
C2790 C2792 1.415 . S
C2791 C2790 1.355 . S
C2791 C2793 1.418 1_455 S
C2792 C2790 1.415 . S
C2792 C2797 1.417 . S
C2792 C2799 1.409 . S
C2793 H2785 0.931 . S
C2793 C2791 1.418 1_655 S
C2793 C2794 1.362 . S
C2794 H2786 0.930 . S
C2794 C2793 1.362 . S
C2794 C2797 1.417 1_655 S
C2795 H2787 0.930 . S
C2795 C2796 1.355 1_655 S
C2795 C2797 1.415 1_655 S
C2796 C2795 1.355 1_455 S
C2796 C2798 1.419 . S
C2797 C2792 1.417 . S
C2797 C2794 1.417 1_455 S
C2797 C2795 1.415 1_455 S
C2798 H2788 0.930 . S
C2798 C2796 1.419 . S
C2798 C2799 1.362 . S
C2799 H2789 0.930 . S
C2799 C2792 1.409 . S
C2799 C2798 1.362 . S
H2800 C2806 0.930 . S
H2801 C2809 0.930 . S
H2802 C2810 0.930 . S
H2803 C2811 0.930 . S
H2804 C2814 0.930 . S
H2805 C2815 0.930 . S
C2806 H2800 0.930 . S
C2806 C2807 1.355 . S
C2806 C2808 1.415 . S
C2807 C2806 1.355 . S
C2807 C2809 1.419 . S
C2808 C2806 1.415 . S
C2808 C2813 1.425 . S
C2808 C2815 1.409 . S
C2809 H2801 0.930 . S
C2809 C2807 1.419 . S
C2809 C2810 1.362 . S
C2810 H2802 0.930 . S
C2810 C2809 1.362 . S
C2810 C2813 1.409 . S
C2811 H2803 0.930 . S
C2811 C2812 1.355 . S
C2811 C2813 1.415 . S
C2812 C2811 1.355 . S
C2812 C2814 1.419 . S
C2813 C2808 1.425 . S
C2813 C2810 1.409 . S
C2813 C2811 1.415 . S
C2814 H2804 0.930 . S
C2814 C2812 1.419 . S
C2814 C2815 1.362 . S
C2815 H2805 0.930 . S
C2815 C2808 1.409 . S
C2815 C2814 1.362 . S
H2816 C2822 0.930 . S
H2817 C2825 0.930 . S
H2818 C2826 0.930 . S
H2819 C2827 0.930 . S
H2820 C2830 0.930 . S
H2821 C2831 0.930 . S
C2822 H2816 0.930 . S
C2822 C2823 1.355 . S
C2822 C2824 1.415 . S
C2823 C2822 1.355 . S
C2823 C2825 1.419 1_565 S
C2824 C2822 1.415 . S
C2824 C2829 1.425 1_565 S
C2824 C2831 1.409 . S
C2825 H2817 0.930 . S
C2825 C2823 1.419 1_545 S
C2825 C2826 1.362 . S
C2826 H2818 0.930 . S
C2826 C2825 1.362 . S
C2826 C2829 1.409 . S
C2827 H2819 0.930 . S
C2827 C2828 1.355 1_545 S
C2827 C2829 1.415 . S
C2828 C2827 1.355 1_565 S
C2828 C2830 1.419 . S
C2829 C2824 1.425 1_545 S
C2829 C2826 1.409 . S
C2829 C2827 1.415 . S
C2830 H2820 0.930 . S
C2830 C2828 1.419 . S
C2830 C2831 1.362 . S
C2831 H2821 0.930 . S
C2831 C2824 1.409 . S
C2831 C2830 1.362 . S
H2832 C2838 0.930 . S
H2833 C2841 0.930 . S
H2834 C2842 0.930 . S
H2835 C2843 0.930 . S
H2836 C2846 0.930 . S
H2837 C2847 0.930 . S
C2838 H2832 0.930 . S
C2838 C2839 1.355 1_565 S
C2838 C2840 1.415 . S
C2839 C2838 1.355 1_545 S
C2839 C2841 1.419 . S
C2840 C2838 1.415 . S
C2840 C2845 1.425 1_565 S
C2840 C2847 1.409 . S
C2841 H2833 0.930 . S
C2841 C2839 1.419 . S
C2841 C2842 1.362 . S
C2842 H2834 0.930 . S
C2842 C2841 1.362 . S
C2842 C2845 1.409 . S
C2843 H2835 0.930 . S
C2843 C2844 1.355 . S
C2843 C2845 1.415 . S
C2844 C2843 1.355 . S
C2844 C2846 1.419 1_545 S
C2845 C2840 1.425 1_545 S
C2845 C2842 1.409 . S
C2845 C2843 1.415 . S
C2846 H2836 0.930 . S
C2846 C2844 1.419 1_565 S
C2846 C2847 1.362 . S
C2847 H2837 0.930 . S
C2847 C2840 1.409 . S
C2847 C2846 1.362 . S
H2848 C2854 0.930 . S
H2849 C2857 0.930 . S
H2850 C2858 0.930 . S
H2851 C2859 0.930 . S
H2852 C2862 0.930 . S
H2853 C2863 0.930 . S
C2854 H2848 0.930 . S
C2854 C2855 1.355 1_455 S
C2854 C2856 1.415 . S
C2855 C2854 1.355 1_655 S
C2855 C2857 1.419 . S
C2856 C2854 1.415 . S
C2856 C2861 1.425 1_455 S
C2856 C2863 1.409 . S
C2857 H2849 0.930 . S
C2857 C2855 1.419 . S
C2857 C2858 1.362 . S
C2858 H2850 0.930 . S
C2858 C2857 1.362 . S
C2858 C2861 1.409 . S
C2859 H2851 0.930 . S
C2859 C2860 1.355 1_655 S
C2859 C2861 1.415 . S
C2860 C2859 1.355 1_455 S
C2860 C2862 1.419 . S
C2861 C2856 1.425 1_655 S
C2861 C2858 1.409 . S
C2861 C2859 1.415 . S
C2862 H2852 0.930 . S
C2862 C2860 1.419 . S
C2862 C2863 1.362 . S
C2863 H2853 0.930 . S
C2863 C2856 1.409 . S
C2863 C2862 1.362 . S
H2864 C2870 0.930 . S
H2865 C2873 0.930 . S
H2866 C2874 0.930 . S
H2867 C2875 0.930 . S
H2868 C2878 0.930 . S
H2869 C2879 0.930 . S
C2870 H2864 0.930 . S
C2870 C2871 1.355 . S
C2870 C2872 1.415 . S
C2871 C2870 1.355 . S
C2871 C2873 1.419 . S
C2872 C2870 1.415 . S
C2872 C2877 1.425 . S
C2872 C2879 1.409 . S
C2873 H2865 0.930 . S
C2873 C2871 1.419 . S
C2873 C2874 1.362 . S
C2874 H2866 0.930 . S
C2874 C2873 1.362 . S
C2874 C2877 1.409 . S
C2875 H2867 0.930 . S
C2875 C2876 1.355 . S
C2875 C2877 1.415 . S
C2876 C2875 1.355 . S
C2876 C2878 1.419 . S
C2877 C2872 1.425 . S
C2877 C2874 1.409 . S
C2877 C2875 1.415 . S
C2878 H2868 0.930 . S
C2878 C2876 1.419 . S
C2878 C2879 1.362 . S
C2879 H2869 0.930 . S
C2879 C2872 1.409 . S
C2879 C2878 1.362 . S
H2880 C2886 0.930 . S
H2881 C2889 0.930 . S
H2882 C2890 0.930 1_455 S
H2883 C2891 0.930 . S
H2884 C2894 0.930 . S
H2885 C2895 0.930 1_655 S
C2886 H2880 0.930 . S
C2886 C2887 1.355 . S
C2886 C2888 1.415 . S
C2887 C2886 1.355 . S
C2887 C2889 1.419 . S
C2888 C2886 1.415 . S
C2888 C2893 1.425 1_655 S
C2888 C2895 1.409 1_655 S
C2889 H2881 0.930 . S
C2889 C2887 1.419 . S
C2889 C2890 1.362 . S
C2890 H2882 0.930 1_655 S
C2890 C2889 1.362 . S
C2890 C2893 1.409 1_655 S
C2891 H2883 0.930 . S
C2891 C2892 1.355 . S
C2891 C2893 1.415 . S
C2892 C2891 1.355 . S
C2892 C2894 1.419 . S
C2893 C2888 1.425 1_455 S
C2893 C2890 1.409 1_455 S
C2893 C2891 1.415 . S
C2894 H2884 0.930 . S
C2894 C2892 1.419 . S
C2894 C2895 1.362 . S
C2895 H2885 0.930 1_455 S
C2895 C2888 1.409 1_455 S
C2895 C2894 1.362 . S
H2896 C2902 0.930 . S
H2897 C2905 0.930 . S
H2898 C2906 0.930 . S
H2899 C2907 0.930 . S
H2900 C2910 0.930 . S
H2901 C2911 0.930 . S
C2902 H2896 0.930 . S
C2902 C2903 1.355 . S
C2902 C2904 1.415 . S
C2903 C2902 1.355 . S
C2903 C2905 1.419 . S
C2904 C2902 1.415 . S
C2904 C2909 1.425 . S
C2904 C2911 1.409 . S
C2905 H2897 0.930 . S
C2905 C2903 1.419 . S
C2905 C2906 1.362 . S
C2906 H2898 0.930 . S
C2906 C2905 1.362 . S
C2906 C2909 1.409 . S
C2907 H2899 0.930 . S
C2907 C2908 1.355 . S
C2907 C2909 1.415 . S
C2908 C2907 1.355 . S
C2908 C2910 1.419 . S
C2909 C2904 1.425 . S
C2909 C2906 1.409 . S
C2909 C2907 1.415 . S
C2910 H2900 0.930 . S
C2910 C2908 1.419 . S
C2910 C2911 1.362 . S
C2911 H2901 0.930 . S
C2911 C2904 1.409 . S
C2911 C2910 1.362 . S
H2912 C2918 0.930 . S
H2913 C2921 0.930 . S
H2914 C2922 0.930 . S
H2915 C2923 0.930 . S
H2916 C2926 0.930 . S
H2917 C2927 0.930 . S
C2918 H2912 0.930 . S
C2918 C2919 1.355 . S
C2918 C2920 1.415 . S
C2919 C2918 1.355 . S
C2919 C2921 1.419 1_545 S
C2920 C2918 1.415 . S
C2920 C2925 1.425 1_545 S
C2920 C2927 1.409 . S
C2921 H2913 0.930 . S
C2921 C2919 1.419 1_565 S
C2921 C2922 1.362 . S
C2922 H2914 0.930 . S
C2922 C2921 1.362 . S
C2922 C2925 1.409 . S
C2923 H2915 0.930 . S
C2923 C2924 1.355 . S
C2923 C2925 1.415 . S
C2924 C2923 1.355 . S
C2924 C2926 1.419 1_565 S
C2925 C2920 1.425 1_565 S
C2925 C2922 1.409 . S
C2925 C2923 1.415 . S
C2926 H2916 0.930 . S
C2926 C2924 1.419 1_545 S
C2926 C2927 1.362 . S
C2927 H2917 0.930 . S
C2927 C2920 1.409 . S
C2927 C2926 1.362 . S
H2928 C2934 0.930 . S
H2929 C2937 0.930 . S
H2930 C2938 0.930 . S
H2931 C2939 0.930 . S
H2932 C2942 0.930 . S
H2933 C2943 0.930 . S
C2934 H2928 0.930 . S
C2934 C2935 1.355 . S
C2934 C2936 1.415 . S
C2935 C2934 1.355 . S
C2935 C2937 1.419 1_655 S
C2936 C2934 1.415 . S
C2936 C2941 1.425 1_655 S
C2936 C2943 1.409 . S
C2937 H2929 0.930 . S
C2937 C2935 1.419 1_455 S
C2937 C2938 1.362 . S
C2938 H2930 0.930 . S
C2938 C2937 1.362 . S
C2938 C2941 1.409 . S
C2939 H2931 0.930 . S
C2939 C2940 1.355 . S
C2939 C2941 1.415 . S
C2940 C2939 1.355 . S
C2940 C2942 1.419 1_455 S
C2941 C2936 1.425 1_455 S
C2941 C2938 1.409 . S
C2941 C2939 1.415 . S
C2942 H2932 0.930 . S
C2942 C2940 1.419 1_655 S
C2942 C2943 1.362 . S
C2943 H2933 0.930 . S
C2943 C2936 1.409 . S
C2943 C2942 1.362 . S
H2944 C2950 0.930 . S
H2945 C2953 0.930 . S
H2946 C2954 0.930 . S
H2947 C2955 0.930 . S
H2948 C2958 0.930 . S
H2949 C2959 0.930 . S
C2950 H2944 0.930 . S
C2950 C2951 1.355 . S
C2950 C2952 1.415 . S
C2951 C2950 1.355 . S
C2951 C2953 1.419 . S
C2952 C2950 1.415 . S
C2952 C2957 1.425 . S
C2952 C2959 1.409 . S
C2953 H2945 0.930 . S
C2953 C2951 1.419 . S
C2953 C2954 1.362 . S
C2954 H2946 0.930 . S
C2954 C2953 1.362 . S
C2954 C2957 1.409 . S
C2955 H2947 0.930 . S
C2955 C2956 1.355 . S
C2955 C2957 1.415 . S
C2956 C2955 1.355 . S
C2956 C2958 1.419 . S
C2957 C2952 1.425 . S
C2957 C2954 1.409 . S
C2957 C2955 1.415 . S
C2958 H2948 0.930 . S
C2958 C2956 1.419 . S
C2958 C2959 1.362 . S
C2959 H2949 0.930 . S
C2959 C2952 1.409 . S
C2959 C2958 1.362 . S
H2960 C2966 0.930 . S
H2961 C2969 0.930 . S
H2962 C2970 0.930 . S
H2963 C2971 0.930 . S
H2964 C2974 0.930 . S
H2965 C2975 0.930 . S
C2966 H2960 0.930 . S
C2966 C2967 1.355 . S
C2966 C2968 1.415 . S
C2967 C2966 1.355 . S
C2967 C2969 1.419 . S
C2968 C2966 1.415 . S
C2968 C2973 1.425 1_545 S
C2968 C2975 1.409 1_545 S
C2969 H2961 0.930 . S
C2969 C2967 1.419 . S
C2969 C2970 1.362 . S
C2970 H2962 0.930 . S
C2970 C2969 1.362 . S
C2970 C2973 1.409 1_545 S
C2971 H2963 0.930 . S
C2971 C2972 1.355 . S
C2971 C2973 1.415 . S
C2972 C2971 1.355 . S
C2972 C2974 1.419 . S
C2973 C2968 1.425 1_565 S
C2973 C2970 1.409 1_565 S
C2973 C2971 1.415 . S
C2974 H2964 0.930 . S
C2974 C2972 1.419 . S
C2974 C2975 1.362 . S
C2975 H2965 0.930 . S
C2975 C2968 1.409 1_565 S
C2975 C2974 1.362 . S
H2976 C2982 0.930 . S
H2977 C2985 0.930 . S
H2978 C2986 0.930 . S
H2979 C2987 0.930 . S
H2980 C2990 0.930 . S
H2981 C2991 0.930 . S
C2982 H2976 0.930 . S
C2982 C2983 1.355 . S
C2982 C2984 1.415 . S
C2983 C2982 1.355 . S
C2983 C2985 1.419 . S
C2984 C2982 1.415 . S
C2984 C2989 1.425 . S
C2984 C2991 1.409 . S
C2985 H2977 0.930 . S
C2985 C2983 1.419 . S
C2985 C2986 1.362 . S
C2986 H2978 0.930 . S
C2986 C2985 1.362 . S
C2986 C2989 1.409 . S
C2987 H2979 0.930 . S
C2987 C2988 1.355 . S
C2987 C2989 1.415 . S
C2988 C2987 1.355 . S
C2988 C2990 1.419 . S
C2989 C2984 1.425 . S
C2989 C2986 1.409 . S
C2989 C2987 1.415 . S
C2990 H2980 0.930 . S
C2990 C2988 1.419 . S
C2990 C2991 1.362 . S
C2991 H2981 0.930 . S
C2991 C2984 1.409 . S
C2991 C2990 1.362 . S
H2992 C2998 0.930 . S
H2993 C3001 0.930 . S
H2994 C3002 0.930 . S
H2995 C3003 0.930 . S
H2996 C3006 0.930 . S
H2997 C3007 0.930 . S
C2998 H2992 0.930 . S
C2998 C2999 1.355 . S
C2998 C3000 1.415 . S
C2999 C2998 1.355 . S
C2999 C3001 1.419 . S
C3000 C2998 1.415 . S
C3000 C3005 1.425 . S
C3000 C3007 1.409 . S
C3001 H2993 0.930 . S
C3001 C2999 1.419 . S
C3001 C3002 1.362 . S
C3002 H2994 0.930 . S
C3002 C3001 1.362 . S
C3002 C3005 1.409 . S
C3003 H2995 0.930 . S
C3003 C3004 1.355 . S
C3003 C3005 1.415 . S
C3004 C3003 1.355 . S
C3004 C3006 1.419 . S
C3005 C3000 1.425 . S
C3005 C3002 1.409 . S
C3005 C3003 1.415 . S
C3006 H2996 0.930 . S
C3006 C3004 1.419 . S
C3006 C3007 1.362 . S
C3007 H2997 0.930 . S
C3007 C3000 1.409 . S
C3007 C3006 1.362 . S
H3008 C3014 0.930 . S
H3009 C3017 0.930 . S
H3010 C3018 0.930 . S
H3011 C3019 0.930 . S
H3012 C3022 0.930 . S
H3013 C3023 0.930 . S
C3014 H3008 0.930 . S
C3014 C3015 1.355 . S
C3014 C3016 1.415 . S
C3015 C3014 1.355 . S
C3015 C3017 1.419 . S
C3016 C3014 1.415 . S
C3016 C3021 1.425 . S
C3016 C3023 1.409 . S
C3017 H3009 0.930 . S
C3017 C3015 1.419 . S
C3017 C3018 1.362 . S
C3018 H3010 0.930 . S
C3018 C3017 1.362 . S
C3018 C3021 1.409 . S
C3019 H3011 0.930 . S
C3019 C3020 1.355 . S
C3019 C3021 1.415 . S
C3020 C3019 1.355 . S
C3020 C3022 1.419 . S
C3021 C3016 1.425 . S
C3021 C3018 1.409 . S
C3021 C3019 1.415 . S
C3022 H3012 0.930 . S
C3022 C3020 1.419 . S
C3022 C3023 1.362 . S
C3023 H3013 0.930 . S
C3023 C3016 1.409 . S
C3023 C3022 1.362 . S
H3024 C3030 0.930 . S
H3025 C3033 0.930 . S
H3026 C3034 0.930 . S
H3027 C3035 0.930 . S
H3028 C3038 0.930 . S
H3029 C3039 0.930 . S
C3030 H3024 0.930 . S
C3030 C3031 1.355 . S
C3030 C3032 1.415 . S
C3031 C3030 1.355 . S
C3031 C3033 1.419 . S
C3032 C3030 1.415 . S
C3032 C3037 1.425 . S
C3032 C3039 1.409 . S
C3033 H3025 0.930 . S
C3033 C3031 1.419 . S
C3033 C3034 1.362 . S
C3034 H3026 0.930 . S
C3034 C3033 1.362 . S
C3034 C3037 1.409 . S
C3035 H3027 0.930 . S
C3035 C3036 1.355 . S
C3035 C3037 1.415 . S
C3036 C3035 1.355 . S
C3036 C3038 1.419 . S
C3037 C3032 1.425 . S
C3037 C3034 1.409 . S
C3037 C3035 1.415 . S
C3038 H3028 0.930 . S
C3038 C3036 1.419 . S
C3038 C3039 1.362 . S
C3039 H3029 0.930 . S
C3039 C3032 1.409 . S
C3039 C3038 1.362 . S
H3040 C3046 0.930 . S
H3041 C3049 0.930 . S
H3042 C3050 0.930 . S
H3043 C3051 0.930 . S
H3044 C3054 0.930 . S
H3045 C3055 0.930 . S
C3046 H3040 0.930 . S
C3046 C3047 1.355 . S
C3046 C3048 1.415 . S
C3047 C3046 1.355 . S
C3047 C3049 1.419 . S
C3048 C3046 1.415 . S
C3048 C3053 1.425 . S
C3048 C3055 1.409 . S
C3049 H3041 0.930 . S
C3049 C3047 1.419 . S
C3049 C3050 1.362 . S
C3050 H3042 0.930 . S
C3050 C3049 1.362 . S
C3050 C3053 1.409 . S
C3051 H3043 0.930 . S
C3051 C3052 1.355 . S
C3051 C3053 1.415 . S
C3052 C3051 1.355 . S
C3052 C3054 1.419 . S
C3053 C3048 1.425 . S
C3053 C3050 1.409 . S
C3053 C3051 1.415 . S
C3054 H3044 0.930 . S
C3054 C3052 1.419 . S
C3054 C3055 1.362 . S
C3055 H3045 0.930 . S
C3055 C3048 1.409 . S
C3055 C3054 1.362 . S
H3056 C3062 0.930 . S
H3057 C3065 0.930 . S
H3058 C3066 0.930 . S
H3059 C3067 0.930 . S
H3060 C3070 0.930 . S
H3061 C3071 0.930 . S
C3062 H3056 0.930 . S
C3062 C3063 1.355 . S
C3062 C3064 1.415 . S
C3063 C3062 1.355 . S
C3063 C3065 1.419 . S
C3064 C3062 1.415 . S
C3064 C3069 1.425 . S
C3064 C3071 1.409 . S
C3065 H3057 0.930 . S
C3065 C3063 1.419 . S
C3065 C3066 1.362 . S
C3066 H3058 0.930 . S
C3066 C3065 1.362 . S
C3066 C3069 1.409 . S
C3067 H3059 0.930 . S
C3067 C3068 1.355 . S
C3067 C3069 1.415 . S
C3068 C3067 1.355 . S
C3068 C3070 1.419 . S
C3069 C3064 1.425 . S
C3069 C3066 1.409 . S
C3069 C3067 1.415 . S
C3070 H3060 0.930 . S
C3070 C3068 1.419 . S
C3070 C3071 1.362 . S
C3071 H3061 0.930 . S
C3071 C3064 1.409 . S
C3071 C3070 1.362 . S
H3072 C3078 0.930 . S
H3073 C3081 0.930 . S
H3074 C3082 0.930 . S
H3075 C3083 0.930 . S
H3076 C3086 0.930 . S
H3077 C3087 0.930 . S
C3078 H3072 0.930 . S
C3078 C3079 1.355 . S
C3078 C3080 1.415 . S
C3079 C3078 1.355 . S
C3079 C3081 1.419 . S
C3080 C3078 1.415 . S
C3080 C3085 1.425 . S
C3080 C3087 1.409 . S
C3081 H3073 0.930 . S
C3081 C3079 1.419 . S
C3081 C3082 1.362 . S
C3082 H3074 0.930 . S
C3082 C3081 1.362 . S
C3082 C3085 1.409 . S
C3083 H3075 0.930 . S
C3083 C3084 1.355 . S
C3083 C3085 1.415 . S
C3084 C3083 1.355 . S
C3084 C3086 1.419 . S
C3085 C3080 1.425 . S
C3085 C3082 1.409 . S
C3085 C3083 1.415 . S
C3086 H3076 0.930 . S
C3086 C3084 1.419 . S
C3086 C3087 1.362 . S
C3087 H3077 0.930 . S
C3087 C3080 1.409 . S
C3087 C3086 1.362 . S
H3088 C3094 0.930 . S
H3089 C3097 0.930 . S
H3090 C3098 0.930 . S
H3091 C3099 0.930 . S
H3092 C3102 0.930 . S
H3093 C3103 0.930 . S
C3094 H3088 0.930 . S
C3094 C3095 1.355 . S
C3094 C3096 1.415 . S
C3095 C3094 1.355 . S
C3095 C3097 1.419 . S
C3096 C3094 1.415 . S
C3096 C3101 1.425 . S
C3096 C3103 1.409 . S
C3097 H3089 0.930 . S
C3097 C3095 1.419 . S
C3097 C3098 1.362 . S
C3098 H3090 0.930 . S
C3098 C3097 1.362 . S
C3098 C3101 1.409 . S
C3099 H3091 0.930 . S
C3099 C3100 1.355 . S
C3099 C3101 1.415 . S
C3100 C3099 1.355 . S
C3100 C3102 1.419 . S
C3101 C3096 1.425 . S
C3101 C3098 1.409 . S
C3101 C3099 1.415 . S
C3102 H3092 0.930 . S
C3102 C3100 1.419 . S
C3102 C3103 1.362 . S
C3103 H3093 0.930 . S
C3103 C3096 1.409 . S
C3103 C3102 1.362 . S
H3104 C3110 0.930 . S
H3105 C3113 0.930 . S
H3106 C3114 0.930 . S
H3107 C3115 0.930 . S
H3108 C3118 0.930 . S
H3109 C3119 0.930 . S
C3110 H3104 0.930 . S
C3110 C3111 1.355 . S
C3110 C3112 1.415 . S
C3111 C3110 1.355 . S
C3111 C3113 1.419 . S
C3112 C3110 1.415 . S
C3112 C3117 1.425 . S
C3112 C3119 1.409 . S
C3113 H3105 0.930 . S
C3113 C3111 1.419 . S
C3113 C3114 1.362 . S
C3114 H3106 0.930 . S
C3114 C3113 1.362 . S
C3114 C3117 1.409 . S
C3115 H3107 0.930 . S
C3115 C3116 1.355 . S
C3115 C3117 1.415 . S
C3116 C3115 1.355 . S
C3116 C3118 1.419 . S
C3117 C3112 1.425 . S
C3117 C3114 1.409 . S
C3117 C3115 1.415 . S
C3118 H3108 0.930 . S
C3118 C3116 1.419 . S
C3118 C3119 1.362 . S
C3119 H3109 0.930 . S
C3119 C3112 1.409 . S
C3119 C3118 1.362 . S
H3120 C3126 0.930 . S
H3121 C3129 0.930 . S
H3122 C3130 0.930 . S
H3123 C3131 0.930 . S
H3124 C3134 0.930 . S
H3125 C3135 0.930 . S
C3126 H3120 0.930 . S
C3126 C3127 1.355 . S
C3126 C3128 1.415 . S
C3127 C3126 1.355 . S
C3127 C3129 1.419 . S
C3128 C3126 1.415 . S
C3128 C3133 1.425 . S
C3128 C3135 1.409 . S
C3129 H3121 0.930 . S
C3129 C3127 1.419 . S
C3129 C3130 1.362 . S
C3130 H3122 0.930 . S
C3130 C3129 1.362 . S
C3130 C3133 1.409 . S
C3131 H3123 0.930 . S
C3131 C3132 1.355 . S
C3131 C3133 1.415 . S
C3132 C3131 1.355 . S
C3132 C3134 1.419 . S
C3133 C3128 1.425 . S
C3133 C3130 1.409 . S
C3133 C3131 1.415 . S
C3134 H3124 0.930 . S
C3134 C3132 1.419 . S
C3134 C3135 1.362 . S
C3135 H3125 0.930 . S
C3135 C3128 1.409 . S
C3135 C3134 1.362 . S
H3136 C3142 0.930 . S
H3137 C3145 0.930 . S
H3138 C3146 0.930 . S
H3139 C3147 0.930 . S
H3140 C3150 0.930 . S
H3141 C3151 0.930 . S
C3142 H3136 0.930 . S
C3142 C3143 1.355 . S
C3142 C3144 1.415 . S
C3143 C3142 1.355 . S
C3143 C3145 1.419 . S
C3144 C3142 1.415 . S
C3144 C3149 1.425 . S
C3144 C3151 1.409 . S
C3145 H3137 0.930 . S
C3145 C3143 1.419 . S
C3145 C3146 1.362 . S
C3146 H3138 0.930 . S
C3146 C3145 1.362 . S
C3146 C3149 1.409 . S
C3147 H3139 0.930 . S
C3147 C3148 1.355 . S
C3147 C3149 1.415 . S
C3148 C3147 1.355 . S
C3148 C3150 1.419 . S
C3149 C3144 1.425 . S
C3149 C3146 1.409 . S
C3149 C3147 1.415 . S
C3150 H3140 0.930 . S
C3150 C3148 1.419 . S
C3150 C3151 1.362 . S
C3151 H3141 0.930 . S
C3151 C3144 1.409 . S
C3151 C3150 1.362 . S
H3152 C3158 0.930 . S
H3153 C3161 0.930 . S
H3154 C3162 0.930 . S
H3155 C3163 0.930 . S
H3156 C3166 0.930 . S
H3157 C3167 0.930 . S
C3158 H3152 0.930 . S
C3158 C3159 1.355 . S
C3158 C3160 1.415 . S
C3159 C3158 1.355 . S
C3159 C3161 1.419 . S
C3160 C3158 1.415 . S
C3160 C3165 1.425 . S
C3160 C3167 1.409 . S
C3161 H3153 0.930 . S
C3161 C3159 1.419 . S
C3161 C3162 1.362 . S
C3162 H3154 0.930 . S
C3162 C3161 1.362 . S
C3162 C3165 1.409 . S
C3163 H3155 0.930 . S
C3163 C3164 1.355 . S
C3163 C3165 1.415 . S
C3164 C3163 1.355 . S
C3164 C3166 1.419 . S
C3165 C3160 1.425 . S
C3165 C3162 1.409 . S
C3165 C3163 1.415 . S
C3166 H3156 0.930 . S
C3166 C3164 1.419 . S
C3166 C3167 1.362 . S
C3167 H3157 0.930 . S
C3167 C3160 1.409 . S
C3167 C3166 1.362 . S
C1447 C10 1.791 . S
C1452 C91 1.811 . S
C1463 C11 1.836 . S
C1468 C50 1.744 1_545 S
C1479 C90 1.792 1_655 S
C1484 C51 1.809 . S
C1495 C130 1.796 . S
C1500 C171 1.895 . S
C1511 C211 1.878 . S
C1516 C170 1.862 1_565 S
C1527 C210 1.816 1_455 S
C1532 C131 1.868 . S
C1543 C259 1.778 . S
C1548 C322 1.790 . S
C1559 C299 1.784 1_565 S
C1564 C242 1.820 . S
C1575 C339 1.749 1_455 S
C1580 C282 1.794 . S
C1591 C379 1.818 . S
C1596 C402 1.905 . S
C1607 C442 1.891 . S
C1612 C419 1.853 1_545 S
C1623 C362 1.893 . S
C1628 C459 1.795 1_655 S
C1639 C571 1.866 . S
C1644 C490 1.794 . S
C1655 C530 1.789 . S
C1660 C491 1.871 . S
C1671 C531 1.865 . S
C1676 C570 1.852 . S
C1687 C610 1.874 . S
C1692 C651 1.904 . S
C1703 C691 1.913 . S
C1708 C650 1.863 . S
C1719 C611 1.915 . S
C1724 C690 1.815 . S
C1735 C739 1.770 . S
C1740 C802 1.829 . S
C1751 C779 1.788 . S
C1756 C722 1.821 . S
C1767 C762 1.849 . S
C1772 C819 1.753 . S
C1783 C882 1.757 . S
C1788 C859 1.665 1_554 S
C1799 C899 1.726 1_554 S
C1804 C922 1.732 . S
C1815 C842 1.715 . S
C1820 C939 1.703 1_554 S
C1831 C970 1.813 . S
C1836 C1051 1.851 . S
C1847 C1010 1.820 . S
C1852 C971 1.826 . S
C1863 C1050 1.774 . S
C1868 C1011 1.866 . S
C1879 C1090 1.695 1_556 S
C1884 C1131 1.717 . S
C1895 C1130 1.653 1_556 S
C1900 C1171 1.748 . S
C1911 C1170 1.679 1_556 S
C1916 C1091 1.723 . S
C1927 C1219 1.847 . S
C1932 C1282 1.877 . S
C1943 C1259 1.836 . S
C1948 C1202 1.887 . S
C1959 C1242 1.879 . S
C1964 C1299 1.784 . S
C1975 C1339 1.850 . S
C1980 C1362 1.880 . S
C1991 C1379 1.864 . S
C1996 C1402 1.912 . S
C2007 C1322 1.922 . S
C2012 C1419 1.830 . S
C2023 C2 1.855 . S
C2028 C810 1.816 . S
C2039 C730 1.807 1_565 S
C2044 C42 1.813 . S
C2055 C82 1.829 . S
C2060 C770 1.843 1_455 S
C2071 C122 1.719 . S
C2076 C1370 1.734 . S
C2087 C1410 1.706 1_545 S
C2092 C162 1.715 . S
C2103 C202 1.715 . S
C2108 C1330 1.723 1_655 S
C2119 C1059 1.798 . S
C2124 C251 1.851 . S
C2135 C291 1.813 . S
C2140 C979 1.833 1_545 S
C2151 C331 1.843 . S
C2156 C1019 1.838 . S
C2167 C659 1.685 . S
C2172 C371 1.736 . S
C2183 C699 1.747 1_565 S
C2188 C411 1.741 . S
C2199 C619 1.691 . S
C2204 C451 1.753 . S
C2215 C482 1.798 . S
C2220 C1290 1.741 . S
C2231 C522 1.792 . S
C2236 C1210 1.738 . S
C2247 C1250 1.779 . S
C2252 C562 1.807 . S
C2263 C410 1.736 . S
C2268 C602 1.796 1_455 S
C2279 C450 1.731 . S
C2284 C642 1.791 . S
C2295 C370 1.753 . S
C2300 C682 1.752 1_565 S
C2311 C99 1.786 . S
C2316 C731 1.832 1_565 S
C2327 C771 1.846 1_455 S
C2332 C19 1.796 . S
C2343 C811 1.850 . S
C2348 C59 1.806 . S
C2359 C1139 1.751 . S
C2364 C851 1.809 . S
C2375 C1179 1.756 . S
C2380 C891 1.821 . S
C2391 C931 1.826 . S
C2396 C1099 1.758 . S
C2407 C330 1.809 . S
C2412 C962 1.850 1_545 S
C2423 C250 1.827 . S
C2428 C1002 1.807 1_655 S
C2439 C290 1.812 . S
C2444 C1042 1.804 . S
C2455 C1082 1.775 . S
C2460 C890 1.770 . S
C2471 C930 1.753 . S
C2476 C1122 1.815 . S
C2487 C1162 1.817 . S
C2492 C850 1.754 . S
C2503 C1211 1.768 . S
C2508 C579 1.786 . S
C2519 C1251 1.795 . S
C2524 C499 1.794 . S
C2535 C1291 1.793 . S
C2540 C539 1.738 . S
C2551 C1331 1.794 1_655 S
C2556 C179 1.734 . S
C2567 C219 1.732 . S
C2572 C1371 1.761 . S
C2583 C139 1.779 . S
C2588 C1411 1.762 1_545 S
C2599 C1167 2.302 . S
C2604 C7 2.271 . S
C2615 C1087 2.285 . S
C2620 C47 2.292 . S
C2631 C87 2.263 . S
C2636 C1127 2.259 . S
C2647 C527 2.488 . S
C2652 C127 2.470 . S
C2663 C167 2.499 . S
C2668 C567 2.479 . S
C2679 C207 2.501 . S
C2684 C487 2.480 . S
C2695 C256 2.291 . S
C2700 C936 2.248 . S
C2711 C296 2.305 . S
C2716 C856 2.266 . S
C2727 C336 2.302 . S
C2732 C896 2.286 . S
C2743 C1256 2.472 . S
C2748 C376 2.487 . S
C2759 C1296 2.508 . S
C2764 C416 2.504 . S
C2775 C1216 2.471 . S
C2780 C456 2.484 . S
C2791 C607 2.526 1_455 S
C2796 C1007 2.551 . S
C2807 C647 2.548 . S
C2812 C1047 2.553 . S
C2823 C687 2.517 1_565 S
C2828 C967 2.540 . S
C2839 C736 2.535 . S
C2844 C1416 2.516 1_545 S
C2855 C1336 2.553 1_655 S
C2860 C776 2.544 1_455 S
C2871 C816 2.536 . S
C2876 C1376 2.515 . S
C2887 C176 1.189 . S
C2892 C16 1.161 . S
C2903 C216 1.164 . S
C2908 C56 1.192 . S
C2919 C136 1.172 . S
C2924 C96 1.189 . S
C2935 C247 1.177 . S
C2940 C407 1.186 . S
C2951 C447 1.192 . S
C2956 C287 1.166 . S
C2967 C327 1.161 . S
C2972 C367 1.187 . S
C2983 C656 1.236 . S
C2988 C496 1.264 . S
C2999 C696 1.257 . S
C3004 C536 1.240 . S
C3015 C616 1.266 . S
C3020 C576 1.239 . S
C3031 C887 1.499 . S
C3036 C727 1.515 . S
C3047 C767 1.502 . S
C3052 C927 1.503 . S
C3063 C807 1.505 . S
C3068 C847 1.495 . S
C3079 C976 1.512 . S
C3084 C1136 1.534 . S
C3095 C1176 1.494 . S
C3100 C1016 1.537 . S
C3111 C1056 1.501 . S
C3116 C1096 1.521 . S
C3127 C1207 1.240 . S
C3132 C1367 1.256 . S
C3143 C1407 1.247 . S
C3148 C1247 1.247 . S
C3159 C1287 1.241 . S
C3164 C1327 1.268 . S
