# Generated by pormake.
# Topology tes, (8)-cn, num edge types: 1
# Building blocks:
#     Node 0, Type 0, BuildingBlock: TAGTUT_clean_sbu_3, # of connection points: 8
#     Node 1, Type 0, BuildingBlock: TAGTUT_clean_sbu_3, # of connection points: 8
#     Node 2, Type 0, BuildingBlock: TAGTUT_clean_sbu_3, # of connection points: 8
#     Node 3, Type 0, BuildingBlock: TAGTUT_clean_sbu_3, # of connection points: 8
#     Node 4, Type 0, BuildingBlock: TAGTUT_clean_sbu_3, # of connection points: 8
#     Node 5, Type 0, BuildingBlock: TAGTUT_clean_sbu_3, # of connection points: 8
#     Node 6, Type 0, BuildingBlock: TAGTUT_clean_sbu_3, # of connection points: 8
#     Node 7, Type 0, BuildingBlock: TAGTUT_clean_sbu_3, # of connection points: 8
#     Node 8, Type 0, BuildingBlock: TAGTUT_clean_sbu_3, # of connection points: 8
#     Node 9, Type 0, BuildingBlock: TAGTUT_clean_sbu_3, # of connection points: 8
#     Node 10, Type 0, BuildingBlock: TAGTUT_clean_sbu_3, # of connection points: 8
#     Node 11, Type 0, BuildingBlock: TAGTUT_clean_sbu_3, # of connection points: 8
#     Node 12, Type 0, BuildingBlock: TAGTUT_clean_sbu_3, # of connection points: 8
#     Node 13, Type 0, BuildingBlock: TAGTUT_clean_sbu_3, # of connection points: 8
#     Node 14, Type 0, BuildingBlock: TAGTUT_clean_sbu_3, # of connection points: 8
#     Node 15, Type 0, BuildingBlock: TAGTUT_clean_sbu_3, # of connection points: 8
#     Node 16, Type 0, BuildingBlock: TAGTUT_clean_sbu_3, # of connection points: 8
#     Node 17, Type 0, BuildingBlock: TAGTUT_clean_sbu_3, # of connection points: 8
#     Node 18, Type 0, BuildingBlock: TAGTUT_clean_sbu_3, # of connection points: 8
#     Node 19, Type 0, BuildingBlock: TAGTUT_clean_sbu_3, # of connection points: 8
#     Node 20, Type 0, BuildingBlock: TAGTUT_clean_sbu_3, # of connection points: 8
#     Node 21, Type 0, BuildingBlock: TAGTUT_clean_sbu_3, # of connection points: 8
#     Node 22, Type 0, BuildingBlock: TAGTUT_clean_sbu_3, # of connection points: 8
#     Node 23, Type 0, BuildingBlock: TAGTUT_clean_sbu_3, # of connection points: 8
#     Edge 24, Type (0, 0), BuildingBlock: TEMPAE_clean_linker_10, # of connection points: 2
#     Edge 25, Type (0, 0), BuildingBlock: TEMPAE_clean_linker_10, # of connection points: 2
#     Edge 26, Type (0, 0), BuildingBlock: TEMPAE_clean_linker_10, # of connection points: 2
#     Edge 27, Type (0, 0), BuildingBlock: TEMPAE_clean_linker_10, # of connection points: 2
#     Edge 28, Type (0, 0), BuildingBlock: TEMPAE_clean_linker_10, # of connection points: 2
#     Edge 29, Type (0, 0), BuildingBlock: TEMPAE_clean_linker_10, # of connection points: 2
#     Edge 30, Type (0, 0), BuildingBlock: TEMPAE_clean_linker_10, # of connection points: 2
#     Edge 31, Type (0, 0), BuildingBlock: TEMPAE_clean_linker_10, # of connection points: 2
#     Edge 32, Type (0, 0), BuildingBlock: TEMPAE_clean_linker_10, # of connection points: 2
#     Edge 33, Type (0, 0), BuildingBlock: TEMPAE_clean_linker_10, # of connection points: 2
#     Edge 34, Type (0, 0), BuildingBlock: TEMPAE_clean_linker_10, # of connection points: 2
#     Edge 35, Type (0, 0), BuildingBlock: TEMPAE_clean_linker_10, # of connection points: 2
#     Edge 36, Type (0, 0), BuildingBlock: TEMPAE_clean_linker_10, # of connection points: 2
#     Edge 37, Type (0, 0), BuildingBlock: TEMPAE_clean_linker_10, # of connection points: 2
#     Edge 38, Type (0, 0), BuildingBlock: TEMPAE_clean_linker_10, # of connection points: 2
#     Edge 39, Type (0, 0), BuildingBlock: TEMPAE_clean_linker_10, # of connection points: 2
#     Edge 40, Type (0, 0), BuildingBlock: TEMPAE_clean_linker_10, # of connection points: 2
#     Edge 41, Type (0, 0), BuildingBlock: TEMPAE_clean_linker_10, # of connection points: 2
#     Edge 42, Type (0, 0), BuildingBlock: TEMPAE_clean_linker_10, # of connection points: 2
#     Edge 43, Type (0, 0), BuildingBlock: TEMPAE_clean_linker_10, # of connection points: 2
#     Edge 44, Type (0, 0), BuildingBlock: TEMPAE_clean_linker_10, # of connection points: 2
#     Edge 45, Type (0, 0), BuildingBlock: TEMPAE_clean_linker_10, # of connection points: 2
#     Edge 46, Type (0, 0), BuildingBlock: TEMPAE_clean_linker_10, # of connection points: 2
#     Edge 47, Type (0, 0), BuildingBlock: TEMPAE_clean_linker_10, # of connection points: 2
#     Edge 48, Type (0, 0), BuildingBlock: TEMPAE_clean_linker_10, # of connection points: 2
#     Edge 49, Type (0, 0), BuildingBlock: TEMPAE_clean_linker_10, # of connection points: 2
#     Edge 50, Type (0, 0), BuildingBlock: TEMPAE_clean_linker_10, # of connection points: 2
#     Edge 51, Type (0, 0), BuildingBlock: TEMPAE_clean_linker_10, # of connection points: 2
#     Edge 52, Type (0, 0), BuildingBlock: TEMPAE_clean_linker_10, # of connection points: 2
#     Edge 53, Type (0, 0), BuildingBlock: TEMPAE_clean_linker_10, # of connection points: 2
#     Edge 54, Type (0, 0), BuildingBlock: TEMPAE_clean_linker_10, # of connection points: 2
#     Edge 55, Type (0, 0), BuildingBlock: TEMPAE_clean_linker_10, # of connection points: 2
#     Edge 56, Type (0, 0), BuildingBlock: TEMPAE_clean_linker_10, # of connection points: 2
#     Edge 57, Type (0, 0), BuildingBlock: TEMPAE_clean_linker_10, # of connection points: 2
#     Edge 58, Type (0, 0), BuildingBlock: TEMPAE_clean_linker_10, # of connection points: 2
#     Edge 59, Type (0, 0), BuildingBlock: TEMPAE_clean_linker_10, # of connection points: 2
#     Edge 60, Type (0, 0), BuildingBlock: TEMPAE_clean_linker_10, # of connection points: 2
#     Edge 61, Type (0, 0), BuildingBlock: TEMPAE_clean_linker_10, # of connection points: 2
#     Edge 62, Type (0, 0), BuildingBlock: TEMPAE_clean_linker_10, # of connection points: 2
#     Edge 63, Type (0, 0), BuildingBlock: TEMPAE_clean_linker_10, # of connection points: 2
#     Edge 64, Type (0, 0), BuildingBlock: TEMPAE_clean_linker_10, # of connection points: 2
#     Edge 65, Type (0, 0), BuildingBlock: TEMPAE_clean_linker_10, # of connection points: 2
#     Edge 66, Type (0, 0), BuildingBlock: TEMPAE_clean_linker_10, # of connection points: 2
#     Edge 67, Type (0, 0), BuildingBlock: TEMPAE_clean_linker_10, # of connection points: 2
#     Edge 68, Type (0, 0), BuildingBlock: TEMPAE_clean_linker_10, # of connection points: 2
#     Edge 69, Type (0, 0), BuildingBlock: TEMPAE_clean_linker_10, # of connection points: 2
#     Edge 70, Type (0, 0), BuildingBlock: TEMPAE_clean_linker_10, # of connection points: 2
#     Edge 71, Type (0, 0), BuildingBlock: TEMPAE_clean_linker_10, # of connection points: 2
#     Edge 72, Type (0, 0), BuildingBlock: TEMPAE_clean_linker_10, # of connection points: 2
#     Edge 73, Type (0, 0), BuildingBlock: TEMPAE_clean_linker_10, # of connection points: 2
#     Edge 74, Type (0, 0), BuildingBlock: TEMPAE_clean_linker_10, # of connection points: 2
#     Edge 75, Type (0, 0), BuildingBlock: TEMPAE_clean_linker_10, # of connection points: 2
#     Edge 76, Type (0, 0), BuildingBlock: TEMPAE_clean_linker_10, # of connection points: 2
#     Edge 77, Type (0, 0), BuildingBlock: TEMPAE_clean_linker_10, # of connection points: 2
#     Edge 78, Type (0, 0), BuildingBlock: TEMPAE_clean_linker_10, # of connection points: 2
#     Edge 79, Type (0, 0), BuildingBlock: TEMPAE_clean_linker_10, # of connection points: 2
#     Edge 80, Type (0, 0), BuildingBlock: TEMPAE_clean_linker_10, # of connection points: 2
#     Edge 81, Type (0, 0), BuildingBlock: TEMPAE_clean_linker_10, # of connection points: 2
#     Edge 82, Type (0, 0), BuildingBlock: TEMPAE_clean_linker_10, # of connection points: 2
#     Edge 83, Type (0, 0), BuildingBlock: TEMPAE_clean_linker_10, # of connection points: 2
#     Edge 84, Type (0, 0), BuildingBlock: TEMPAE_clean_linker_10, # of connection points: 2
#     Edge 85, Type (0, 0), BuildingBlock: TEMPAE_clean_linker_10, # of connection points: 2
#     Edge 86, Type (0, 0), BuildingBlock: TEMPAE_clean_linker_10, # of connection points: 2
#     Edge 87, Type (0, 0), BuildingBlock: TEMPAE_clean_linker_10, # of connection points: 2
#     Edge 88, Type (0, 0), BuildingBlock: TEMPAE_clean_linker_10, # of connection points: 2
#     Edge 89, Type (0, 0), BuildingBlock: TEMPAE_clean_linker_10, # of connection points: 2
#     Edge 90, Type (0, 0), BuildingBlock: TEMPAE_clean_linker_10, # of connection points: 2
#     Edge 91, Type (0, 0), BuildingBlock: TEMPAE_clean_linker_10, # of connection points: 2
#     Edge 92, Type (0, 0), BuildingBlock: TEMPAE_clean_linker_10, # of connection points: 2
#     Edge 93, Type (0, 0), BuildingBlock: TEMPAE_clean_linker_10, # of connection points: 2
#     Edge 94, Type (0, 0), BuildingBlock: TEMPAE_clean_linker_10, # of connection points: 2
#     Edge 95, Type (0, 0), BuildingBlock: TEMPAE_clean_linker_10, # of connection points: 2
#     Edge 96, Type (0, 0), BuildingBlock: TEMPAE_clean_linker_10, # of connection points: 2
#     Edge 97, Type (0, 0), BuildingBlock: TEMPAE_clean_linker_10, # of connection points: 2
#     Edge 98, Type (0, 0), BuildingBlock: TEMPAE_clean_linker_10, # of connection points: 2
#     Edge 99, Type (0, 0), BuildingBlock: TEMPAE_clean_linker_10, # of connection points: 2
#     Edge 100, Type (0, 0), BuildingBlock: TEMPAE_clean_linker_10, # of connection points: 2
#     Edge 101, Type (0, 0), BuildingBlock: TEMPAE_clean_linker_10, # of connection points: 2
#     Edge 102, Type (0, 0), BuildingBlock: TEMPAE_clean_linker_10, # of connection points: 2
#     Edge 103, Type (0, 0), BuildingBlock: TEMPAE_clean_linker_10, # of connection points: 2
#     Edge 104, Type (0, 0), BuildingBlock: TEMPAE_clean_linker_10, # of connection points: 2
#     Edge 105, Type (0, 0), BuildingBlock: TEMPAE_clean_linker_10, # of connection points: 2
#     Edge 106, Type (0, 0), BuildingBlock: TEMPAE_clean_linker_10, # of connection points: 2
#     Edge 107, Type (0, 0), BuildingBlock: TEMPAE_clean_linker_10, # of connection points: 2
#     Edge 108, Type (0, 0), BuildingBlock: TEMPAE_clean_linker_10, # of connection points: 2
#     Edge 109, Type (0, 0), BuildingBlock: TEMPAE_clean_linker_10, # of connection points: 2
#     Edge 110, Type (0, 0), BuildingBlock: TEMPAE_clean_linker_10, # of connection points: 2
#     Edge 111, Type (0, 0), BuildingBlock: TEMPAE_clean_linker_10, # of connection points: 2
#     Edge 112, Type (0, 0), BuildingBlock: TEMPAE_clean_linker_10, # of connection points: 2
#     Edge 113, Type (0, 0), BuildingBlock: TEMPAE_clean_linker_10, # of connection points: 2
#     Edge 114, Type (0, 0), BuildingBlock: TEMPAE_clean_linker_10, # of connection points: 2
#     Edge 115, Type (0, 0), BuildingBlock: TEMPAE_clean_linker_10, # of connection points: 2
#     Edge 116, Type (0, 0), BuildingBlock: TEMPAE_clean_linker_10, # of connection points: 2
#     Edge 117, Type (0, 0), BuildingBlock: TEMPAE_clean_linker_10, # of connection points: 2
#     Edge 118, Type (0, 0), BuildingBlock: TEMPAE_clean_linker_10, # of connection points: 2
#     Edge 119, Type (0, 0), BuildingBlock: TEMPAE_clean_linker_10, # of connection points: 2
# Relax obj value: 0.262
# Max RMSD: 0.244
# Mean RMSD: 0.244
data_MOF--net-tes--node1-TAGTUT_clean_sbu_3--edge1-TEMPAE_clean_linker_10
_symmetry_space_group_name_H-M    P1
_symmetry_Int_Tables_number       1
_symmetry_cell_setting            triclinic
loop_
_symmetry_equiv_pos_as_xyz
'x, y, z'
_cell_length_a     46.029441
_cell_length_b     46.089848
_cell_length_c     46.093719
_cell_angle_alpha  89.826867
_cell_angle_beta   90.117269
_cell_angle_gamma 89.99552
loop_
_atom_site_label
_atom_site_type_symbol
_atom_site_fract_x
_atom_site_fract_y
_atom_site_fract_z
_atom_type_partial_charge
C0 C 0.15106 0.33284 0.42408 0.0
C1 C 0.18619 0.30268 0.31633 0.0
C2 C 0.1776 0.39163 0.29841 0.0
Mg3 Mg 0.1196 0.3948 0.43948 0.0
Mg4 Mg 0.06386 0.3951 0.3814 0.0
O5 O 0.1038 0.40691 0.39648 0.0
Mg6 Mg 0.12527 0.3769 0.3736 0.0
O7 O 0.14624 0.34629 0.35304 0.0
Mg8 Mg 0.18658 0.35749 0.36354 0.0
Mg9 Mg 0.13721 0.34639 0.3134 0.0
C10 C 0.09071 0.41399 0.32373 0.0
O11 O 0.08533 0.34799 0.35971 0.0
O12 O 0.08948 0.42373 0.41052 0.0
O13 O 0.09268 0.33352 0.31416 0.0
O14 O 0.07533 0.37178 0.45049 0.0
O15 O 0.04273 0.43037 0.403 0.0
O16 O 0.06513 0.35541 0.40686 0.0
O17 O 0.16959 0.40162 0.38198 0.0
O18 O 0.16319 0.4208 0.42529 0.0
C19 C 0.17846 0.41894 0.40198 0.0
C20 C 0.06524 0.43609 0.41785 0.0
O21 O 0.11526 0.40641 0.33434 0.0
O22 O 0.19589 0.31479 0.33959 0.0
O23 O 0.067 0.40624 0.33579 0.0
O24 O 0.19433 0.381 0.31818 0.0
O25 O 0.16571 0.31313 0.30089 0.0
O26 O 0.15059 0.38707 0.29919 0.0
O27 O 0.13157 0.35117 0.41586 0.0
O28 O 0.17472 0.33129 0.40896 0.0
C29 C 0.05825 0.35809 0.43317 0.0
C30 C 0.07718 0.33415 0.33703 0.0
C31 C 0.83448 0.9258 0.65056 0.0
C32 C 0.81425 0.81467 0.66282 0.0
C33 C 0.89296 0.80444 0.68038 0.0
Mg34 Mg 0.89648 0.93577 0.61491 0.0
Mg35 Mg 0.90926 0.88821 0.56412 0.0
O36 O 0.90935 0.89584 0.60401 0.0
Mg37 Mg 0.87841 0.87349 0.6233 0.0
O38 O 0.84764 0.85117 0.644 0.0
Mg39 Mg 0.85761 0.86662 0.68758 0.0
Mg40 Mg 0.85633 0.81095 0.62724 0.0
C41 C 0.92372 0.82764 0.58663 0.0
O42 O 0.84936 0.8646 0.58399 0.0
O43 O 0.93908 0.94708 0.59243 0.0
O44 O 0.84683 0.81676 0.58128 0.0
O45 O 0.87496 0.94498 0.56896 0.0
O46 O 0.94176 0.91833 0.55283 0.0
O47 O 0.86755 0.90127 0.55176 0.0
O48 O 0.90275 0.87937 0.66664 0.0
O49 O 0.92164 0.92314 0.66059 0.0
C50 C 0.92042 0.89925 0.67543 0.0
C51 C 0.95151 0.93856 0.56894 0.0
O52 O 0.90885 0.83403 0.60932 0.0
O53 O 0.82993 0.83739 0.65707 0.0
O54 O 0.92378 0.84414 0.56434 0.0
O55 O 0.8801 0.82208 0.69774 0.0
O56 O 0.81833 0.79219 0.6475 0.0
O57 O 0.89538 0.81055 0.65376 0.0
O58 O 0.85254 0.91699 0.63133 0.0
O59 O 0.83169 0.91041 0.67372 0.0
C60 C 0.8649 0.92826 0.54909 0.0
C61 C 0.84024 0.84176 0.5713 0.0
C62 C 0.33195 0.58766 0.89958 0.0
C63 C 0.43945 0.55239 0.92672 0.0
C64 C 0.46144 0.6404 0.91872 0.0
Mg65 Mg 0.32172 0.65006 0.86397 0.0
Mg66 Mg 0.36936 0.66611 0.81421 0.0
O67 O 0.36148 0.66354 0.85386 0.0
Mg68 Mg 0.38318 0.63173 0.87163 0.0
O69 O 0.40349 0.59928 0.89011 0.0
Mg70 Mg 0.39543 0.60979 0.93126 0.0
Mg71 Mg 0.44244 0.5979 0.87856 0.0
C72 C 0.43019 0.67752 0.83658 0.0
O73 O 0.39136 0.60353 0.83042 0.0
O74 O 0.31107 0.694 0.8427 0.0
O75 O 0.43724 0.58788 0.83368 0.0
O76 O 0.31397 0.62784 0.81806 0.0
O77 O 0.34017 0.69941 0.80372 0.0
O78 O 0.35703 0.62699 0.79666 0.0
O79 O 0.37779 0.65561 0.91661 0.0
O80 O 0.33368 0.67386 0.91033 0.0
C81 C 0.35711 0.67199 0.92588 0.0
C82 C 0.32026 0.70841 0.82054 0.0
O83 O 0.42342 0.66226 0.85907 0.0
O84 O 0.41779 0.56583 0.93817 0.0
O85 O 0.41361 0.67867 0.81442 0.0
O86 O 0.4426 0.63017 0.9366 0.0
O87 O 0.45402 0.56214 0.90528 0.0
O88 O 0.45701 0.63864 0.89191 0.0
O89 O 0.34008 0.60552 0.87969 0.0
O90 O 0.34823 0.58557 0.92242 0.0
C91 C 0.33079 0.61905 0.7976 0.0
C92 C 0.41302 0.58928 0.82025 0.0
C93 C 0.67398 0.08005 0.15419 0.0
C94 C 0.71092 0.18151 0.18541 0.0
C95 C 0.62051 0.20669 0.18205 0.0
Mg96 Mg 0.61225 0.07111 0.11843 0.0
Mg97 Mg 0.60327 0.12018 0.06844 0.0
O98 O 0.59965 0.1118 0.10799 0.0
Mg99 Mg 0.63093 0.13306 0.12791 0.0
O100 O 0.66262 0.15236 0.14868 0.0
Mg101 Mg 0.65139 0.14108 0.18923 0.0
Mg102 Mg 0.66319 0.19223 0.14101 0.0
C103 C 0.58847 0.18035 0.09217 0.0
O104 O 0.6601 0.14575 0.08825 0.0
O105 O 0.56978 0.06124 0.09509 0.0
O106 O 0.67369 0.19162 0.09609 0.0
O107 O 0.63343 0.06191 0.07245 0.0
O108 O 0.56983 0.09126 0.05602 0.0
O109 O 0.64581 0.10552 0.05902 0.0
O110 O 0.6056 0.12599 0.17182 0.0
O111 O 0.58728 0.08227 0.16469 0.0
C112 C 0.58844 0.10562 0.18021 0.0
C113 C 0.55877 0.07087 0.07121 0.0
O114 O 0.60143 0.17313 0.11587 0.0
O115 O 0.69598 0.16094 0.19705 0.0
O116 O 0.59031 0.16479 0.06934 0.0
O117 O 0.63163 0.18749 0.19893 0.0
O118 O 0.70011 0.20016 0.16789 0.0
O119 O 0.62103 0.20255 0.1552 0.0
O120 O 0.65652 0.08929 0.1345 0.0
O121 O 0.67548 0.09484 0.17788 0.0
C122 C 0.6455 0.07884 0.05396 0.0
C123 C 0.67373 0.16879 0.08052 0.0
C124 C 0.17593 0.58234 0.10908 0.0
C125 C 0.0666 0.55097 0.07412 0.0
C126 C 0.05139 0.64233 0.08081 0.0
Mg127 Mg 0.18319 0.64653 0.14647 0.0
Mg128 Mg 0.12906 0.66059 0.19131 0.0
O129 O 0.14222 0.65788 0.15305 0.0
Mg130 Mg 0.12343 0.62557 0.13349 0.0
O131 O 0.10429 0.59412 0.11308 0.0
Mg132 Mg 0.11511 0.60593 0.0732 0.0
Mg133 Mg 0.06445 0.59457 0.12205 0.0
C134 C 0.07151 0.6691 0.16132 0.0
O135 O 0.11099 0.59646 0.17456 0.0
O136 O 0.19073 0.69067 0.16912 0.0
O137 O 0.06475 0.58406 0.16697 0.0
O138 O 0.18647 0.62617 0.19332 0.0
O139 O 0.15536 0.69586 0.20275 0.0
O140 O 0.14163 0.62178 0.21017 0.0
O141 O 0.13334 0.64996 0.08991 0.0
O142 O 0.1754 0.67068 0.09961 0.0
C143 C 0.15357 0.66764 0.08221 0.0
C144 C 0.17828 0.70454 0.18996 0.0
O145 O 0.08225 0.65462 0.14014 0.0
O146 O 0.08958 0.56347 0.06398 0.0
O147 O 0.08435 0.67068 0.18576 0.0
O148 O 0.07235 0.6325 0.06531 0.0
O149 O 0.05199 0.56054 0.09541 0.0
O150 O 0.04627 0.63242 0.10598 0.0
O151 O 0.16784 0.60075 0.12858 0.0
O152 O 0.1597 0.57959 0.08622 0.0
C153 C 0.16852 0.61733 0.21275 0.0
C154 C 0.0877 0.5831 0.18252 0.0
C155 C 0.67185 0.927 0.35856 0.0
C156 C 0.70638 0.8287 0.36019 0.0
C157 C 0.62125 0.79775 0.33882 0.0
Mg158 Mg 0.60699 0.93679 0.38914 0.0
Mg159 Mg 0.58722 0.88106 0.44125 0.0
O160 O 0.59349 0.89638 0.40191 0.0
Mg161 Mg 0.62715 0.87607 0.38548 0.0
O162 O 0.6598 0.85464 0.36913 0.0
Mg163 Mg 0.65046 0.86513 0.3251 0.0
Mg164 Mg 0.66198 0.81657 0.39145 0.0
C165 C 0.58786 0.8222 0.41408 0.0
O166 O 0.65234 0.87152 0.42955 0.0
O167 O 0.56458 0.91832 0.41064 0.0
O168 O 0.65552 0.82428 0.43674 0.0
O169 O 0.62777 0.94302 0.43556 0.0
O170 O 0.54337 0.89385 0.44574 0.0
O171 O 0.61843 0.90449 0.46428 0.0
O172 O 0.60487 0.88032 0.34041 0.0
O173 O 0.58674 0.92471 0.34219 0.0
C174 C 0.5887 0.90018 0.32893 0.0
C175 C 0.54137 0.90824 0.42234 0.0
O176 O 0.59987 0.83451 0.39236 0.0
O177 O 0.68115 0.83881 0.35408 0.0
O178 O 0.58771 0.8344 0.4388 0.0
O179 O 0.62692 0.81956 0.32194 0.0
O180 O 0.70781 0.81054 0.38097 0.0
O181 O 0.63206 0.79479 0.36429 0.0
O182 O 0.65302 0.91937 0.37784 0.0
O183 O 0.67465 0.91073 0.33601 0.0
C184 C 0.63173 0.92819 0.45899 0.0
C185 C 0.66015 0.85 0.44536 0.0
C186 C 0.35795 0.33877 0.5783 0.0
C187 C 0.3552 0.30574 0.68057 0.0
C188 C 0.33645 0.39099 0.70635 0.0
Mg189 Mg 0.39492 0.40225 0.57096 0.0
Mg190 Mg 0.44394 0.4181 0.62167 0.0
O191 O 0.40482 0.41314 0.61107 0.0
Mg192 Mg 0.38626 0.38102 0.63062 0.0
O193 O 0.36708 0.34941 0.65131 0.0
Mg194 Mg 0.32373 0.36111 0.63934 0.0
Mg195 Mg 0.38876 0.34875 0.68988 0.0
C196 C 0.4175 0.42236 0.68223 0.0
O197 O 0.42821 0.3532 0.63567 0.0
O198 O 0.41638 0.44704 0.56295 0.0
O199 O 0.43492 0.35044 0.68304 0.0
O200 O 0.43963 0.37838 0.56461 0.0
O201 O 0.45114 0.45536 0.59658 0.0
O202 O 0.46597 0.38255 0.60516 0.0
O203 O 0.34284 0.40598 0.62553 0.0
O204 O 0.34951 0.42664 0.58267 0.0
C205 C 0.33418 0.42429 0.60603 0.0
C206 C 0.43578 0.46327 0.57494 0.0
O207 O 0.39595 0.40751 0.67261 0.0
O208 O 0.35062 0.33031 0.66815 0.0
O209 O 0.44066 0.42572 0.6674 0.0
O210 O 0.31993 0.38491 0.68441 0.0
O211 O 0.376 0.30439 0.6987 0.0
O212 O 0.36185 0.38017 0.71012 0.0
O213 O 0.37775 0.35674 0.58665 0.0
O214 O 0.33495 0.33634 0.59412 0.0
C215 C 0.46155 0.37122 0.58046 0.0
C216 C 0.44352 0.34516 0.65742 0.0
C217 C 0.91921 0.1082 0.82967 0.0
C218 C 0.94954 0.10322 0.93135 0.0
C219 C 0.86969 0.08339 0.95683 0.0
Mg220 Mg 0.85821 0.14679 0.82157 0.0
Mg221 Mg 0.84295 0.1962 0.87058 0.0
O222 O 0.84568 0.15677 0.86119 0.0
Mg223 Mg 0.87674 0.13753 0.88219 0.0
O224 O 0.90745 0.11757 0.90362 0.0
Mg225 Mg 0.89773 0.07348 0.89035 0.0
Mg226 Mg 0.90615 0.13583 0.94415 0.0
C227 C 0.83335 0.17229 0.931 0.0
O228 O 0.90542 0.17817 0.88878 0.0
O229 O 0.81524 0.17029 0.81115 0.0
O230 O 0.90925 0.18205 0.93658 0.0
O231 O 0.88372 0.19111 0.81504 0.0
O232 O 0.8085 0.20668 0.84316 0.0
O233 O 0.8808 0.21551 0.85659 0.0
O234 O 0.85235 0.09397 0.87723 0.0
O235 O 0.83205 0.10194 0.83419 0.0
C236 C 0.83406 0.0861 0.85743 0.0
C237 C 0.80057 0.19176 0.82137 0.0
O238 O 0.84787 0.14995 0.92278 0.0
O239 O 0.92777 0.10653 0.91371 0.0
O240 O 0.83198 0.19507 0.9153 0.0
O241 O 0.87928 0.06569 0.93749 0.0
O242 O 0.94932 0.11848 0.95428 0.0
O243 O 0.86795 0.11028 0.95174 0.0
O244 O 0.90215 0.12841 0.83863 0.0
O245 O 0.9208 0.08483 0.84489 0.0
C246 C 0.89179 0.21207 0.83165 0.0
C247 C 0.91432 0.19181 0.91121 0.0
C248 C 0.40237 0.1765 0.42334 0.0
C249 C 0.43179 0.06643 0.45683 0.0
C250 C 0.42754 0.04913 0.36851 0.0
Mg251 Mg 0.36481 0.18436 0.35982 0.0
Mg252 Mg 0.31899 0.13126 0.34589 0.0
O253 O 0.35776 0.14366 0.34774 0.0
Mg254 Mg 0.37693 0.12441 0.38019 0.0
O255 O 0.3956 0.1048 0.41231 0.0
Mg256 Mg 0.43585 0.11444 0.40163 0.0
Mg257 Mg 0.38425 0.06531 0.41192 0.0
C258 C 0.34749 0.07265 0.33786 0.0
O259 O 0.33623 0.11376 0.4083 0.0
O260 O 0.34203 0.19226 0.31597 0.0
O261 O 0.33873 0.0672 0.42123 0.0
O262 O 0.31759 0.18879 0.38077 0.0
O263 O 0.30665 0.15845 0.31136 0.0
O264 O 0.30051 0.14406 0.38473 0.0
O265 O 0.42087 0.13253 0.35618 0.0
O266 O 0.41193 0.17514 0.33589 0.0
C267 C 0.42887 0.15283 0.33866 0.0
C268 C 0.32054 0.18061 0.30227 0.0
O269 O 0.36909 0.08322 0.35196 0.0
O270 O 0.44306 0.08905 0.44459 0.0
O271 O 0.32337 0.08613 0.33586 0.0
O272 O 0.44238 0.07062 0.37814 0.0
O273 O 0.40994 0.05271 0.44694 0.0
O274 O 0.40101 0.04571 0.37494 0.0
O275 O 0.38278 0.16855 0.40496 0.0
O276 O 0.4246 0.15967 0.4269 0.0
C277 C 0.29804 0.17082 0.38959 0.0
C278 C 0.32546 0.09148 0.42113 0.0
C279 C 0.07926 0.15202 0.67235 0.0
C280 C 0.18343 0.18376 0.70915 0.0
C281 C 0.20602 0.18133 0.61952 0.0
Mg282 Mg 0.07168 0.11404 0.61051 0.0
Mg283 Mg 0.12406 0.06805 0.59621 0.0
O284 O 0.11239 0.10686 0.5977 0.0
Mg285 Mg 0.1322 0.12677 0.62957 0.0
O286 O 0.15123 0.14682 0.66129 0.0
Mg287 Mg 0.13986 0.18703 0.65061 0.0
Mg288 Mg 0.19115 0.13807 0.66234 0.0
C289 C 0.18281 0.09648 0.58606 0.0
O290 O 0.14435 0.08657 0.6587 0.0
O291 O 0.06198 0.09115 0.56774 0.0
O292 O 0.19046 0.09291 0.67229 0.0
O293 O 0.06725 0.06716 0.63237 0.0
O294 O 0.09544 0.05559 0.56272 0.0
O295 O 0.11248 0.05182 0.63662 0.0
O296 O 0.12357 0.17074 0.60495 0.0
O297 O 0.08098 0.16044 0.58517 0.0
C298 C 0.10305 0.17779 0.58726 0.0
C299 C 0.07297 0.06942 0.55415 0.0
O300 O 0.17319 0.1183 0.60047 0.0
O301 O 0.16184 0.19478 0.69501 0.0
O302 O 0.16874 0.07269 0.5845 0.0
O303 O 0.18468 0.19601 0.62961 0.0
O304 O 0.19936 0.16331 0.69952 0.0
O305 O 0.20696 0.15413 0.62259 0.0
O306 O 0.08815 0.13218 0.65485 0.0
O307 O 0.09475 0.1752 0.6746 0.0
C308 C 0.08585 0.04838 0.64157 0.0
C309 C 0.16717 0.07793 0.67228 0.0
C310 C 0.10746 0.82331 0.91978 0.0
C311 C 0.06866 0.92339 0.95908 0.0
C312 C 0.07043 0.94898 0.8712 0.0
Mg313 Mg 0.14457 0.82009 0.85709 0.0
Mg314 Mg 0.19007 0.87259 0.8461 0.0
O315 O 0.15133 0.86142 0.84646 0.0
Mg316 Mg 0.13065 0.87968 0.87866 0.0
O317 O 0.1088 0.89597 0.91101 0.0
Mg318 Mg 0.06896 0.88214 0.89965 0.0
Mg319 Mg 0.114 0.93617 0.91291 0.0
C320 C 0.16162 0.93164 0.8365 0.0
O321 O 0.17106 0.89333 0.90809 0.0
O322 O 0.16794 0.81386 0.81332 0.0
O323 O 0.15906 0.93782 0.92343 0.0
O324 O 0.19029 0.81478 0.88041 0.0
O325 O 0.2039 0.84701 0.81083 0.0
O326 O 0.20652 0.85959 0.88567 0.0
O327 O 0.08664 0.87002 0.85379 0.0
O328 O 0.09811 0.8294 0.83145 0.0
C329 C 0.08011 0.85073 0.83477 0.0
C330 C 0.18951 0.82594 0.80019 0.0
O331 O 0.13871 0.92246 0.84989 0.0
O332 O 0.05996 0.90106 0.94471 0.0
O333 O 0.18534 0.91731 0.83717 0.0
O334 O 0.05681 0.92678 0.88084 0.0
O335 O 0.08639 0.9422 0.94909 0.0
O336 O 0.09773 0.95038 0.87288 0.0
O337 O 0.12694 0.83432 0.90294 0.0
O338 O 0.08292 0.83655 0.92156 0.0
C339 C 0.20844 0.83292 0.89137 0.0
C340 C 0.17668 0.91643 0.92284 0.0
C341 C 0.4276 0.85563 0.17187 0.0
C342 C 0.32164 0.82872 0.21059 0.0
C343 C 0.29782 0.83495 0.12127 0.0
Mg344 Mg 0.43722 0.88936 0.10878 0.0
Mg345 Mg 0.3894 0.93958 0.09526 0.0
O346 O 0.39658 0.89972 0.0961 0.0
Mg347 Mg 0.37519 0.88232 0.12851 0.0
O348 O 0.35524 0.8644 0.16153 0.0
Mg349 Mg 0.36369 0.82335 0.15133 0.0
Mg350 Mg 0.31599 0.87531 0.16427 0.0
C351 C 0.32821 0.9172 0.08359 0.0
O352 O 0.36495 0.92304 0.15705 0.0
O353 O 0.44522 0.90781 0.06386 0.0
O354 O 0.31932 0.92063 0.17307 0.0
O355 O 0.44724 0.93669 0.12706 0.0
O356 O 0.41737 0.94793 0.05965 0.0
O357 O 0.40325 0.95074 0.13712 0.0
O358 O 0.38052 0.83739 0.10474 0.0
O359 O 0.42502 0.84235 0.08722 0.0
C360 C 0.40106 0.82775 0.08838 0.0
C361 C 0.4338 0.92847 0.04882 0.0
O362 O 0.33496 0.89418 0.09808 0.0
O363 O 0.34242 0.81723 0.19586 0.0
O364 O 0.34459 0.93953 0.08391 0.0
O365 O 0.31663 0.81694 0.13136 0.0
O366 O 0.3056 0.84916 0.20091 0.0
O367 O 0.30193 0.86176 0.12374 0.0
O368 O 0.4195 0.87543 0.15395 0.0
O369 O 0.41071 0.83344 0.17508 0.0
C370 C 0.42993 0.95541 0.13815 0.0
C371 C 0.34353 0.93386 0.17112 0.0
C372 C 0.33488 0.42261 0.15545 0.0
C373 C 0.3008 0.3146 0.18258 0.0
C374 C 0.39058 0.29441 0.17284 0.0
Mg375 Mg 0.39688 0.43431 0.11875 0.0
Mg376 Mg 0.40863 0.3864 0.06831 0.0
O377 O 0.41004 0.39436 0.10809 0.0
Mg378 Mg 0.37882 0.37233 0.12694 0.0
O379 O 0.34692 0.35164 0.14592 0.0
Mg380 Mg 0.35829 0.35922 0.18676 0.0
Mg381 Mg 0.34504 0.31284 0.13432 0.0
C382 C 0.42307 0.32593 0.09115 0.0
O383 O 0.35011 0.36244 0.08642 0.0
O384 O 0.43957 0.44525 0.09565 0.0
O385 O 0.33453 0.31667 0.08945 0.0
O386 O 0.37519 0.44373 0.07304 0.0
O387 O 0.4416 0.41566 0.05654 0.0
O388 O 0.3673 0.40032 0.05525 0.0
O389 O 0.4034 0.37813 0.17117 0.0
O390 O 0.42191 0.42193 0.16418 0.0
C391 C 0.42058 0.39849 0.1797 0.0
C392 C 0.45159 0.4362 0.07211 0.0
O393 O 0.40934 0.33288 0.11446 0.0
O394 O 0.31452 0.33611 0.19403 0.0
O395 O 0.4217 0.3419 0.06848 0.0
O396 O 0.38073 0.31269 0.19147 0.0
O397 O 0.31076 0.2997 0.16159 0.0
O398 O 0.38537 0.29768 0.14622 0.0
O399 O 0.35288 0.41528 0.13545 0.0
O400 O 0.33287 0.40566 0.17783 0.0
C401 C 0.36466 0.42738 0.05314 0.0
C402 C 0.33608 0.34079 0.07596 0.0
C403 C 0.85812 0.83858 0.07537 0.0
C404 C 0.82502 0.79447 0.17541 0.0
C405 C 0.8274 0.8816 0.2041 0.0
Mg406 Mg 0.89766 0.90011 0.07404 0.0
Mg407 Mg 0.9403 0.91435 0.13011 0.0
O408 O 0.90242 0.91124 0.11502 0.0
Mg409 Mg 0.88201 0.8781 0.13119 0.0
O410 O 0.86209 0.84466 0.14697 0.0
Mg411 Mg 0.822 0.85605 0.1357 0.0
Mg412 Mg 0.87102 0.84004 0.18659 0.0
C413 C 0.90756 0.919 0.18648 0.0
O414 O 0.92328 0.85078 0.14154 0.0
O415 O 0.9229 0.94306 0.06743 0.0
O416 O 0.91682 0.83195 0.18575 0.0
O417 O 0.94258 0.87505 0.07302 0.0
O418 O 0.95338 0.94991 0.10535 0.0
O419 O 0.9636 0.87859 0.1166 0.0
O420 O 0.83827 0.90253 0.1223 0.0
O421 O 0.85125 0.92586 0.08226 0.0
C422 C 0.83258 0.92204 0.10302 0.0
C423 C 0.94286 0.95738 0.08087 0.0
O424 O 0.8872 0.90471 0.17391 0.0
O425 O 0.81452 0.81021 0.15468 0.0
O426 O 0.93256 0.92199 0.17501 0.0
O427 O 0.8132 0.87385 0.18147 0.0
O428 O 0.84505 0.8029 0.19259 0.0
O429 O 0.85429 0.87674 0.20677 0.0
O430 O 0.87798 0.85492 0.08643 0.0
O431 O 0.83402 0.83586 0.08923 0.0
C432 C 0.96242 0.86768 0.0914 0.0
C433 C 0.93232 0.83557 0.16311 0.0
C434 C 0.176 0.58475 0.65212 0.0
C435 C 0.21224 0.69239 0.67803 0.0
C436 C 0.12102 0.7122 0.67482 0.0
Mg437 Mg 0.11042 0.5717 0.6227 0.0
Mg438 Mg 0.1046 0.6303 0.56569 0.0
O439 O 0.10159 0.61433 0.60725 0.0
Mg440 Mg 0.13229 0.63535 0.62622 0.0
O441 O 0.16422 0.65555 0.6445 0.0
Mg442 Mg 0.15464 0.64737 0.6853 0.0
Mg443 Mg 0.16545 0.69433 0.63254 0.0
C444 C 0.09487 0.68785 0.59301 0.0
O445 O 0.1594 0.64382 0.58373 0.0
O446 O 0.08029 0.60521 0.59802 0.0
O447 O 0.17304 0.69025 0.58725 0.0
O448 O 0.12782 0.56179 0.57668 0.0
O449 O 0.06059 0.61696 0.55604 0.0
O450 O 0.13927 0.60219 0.55179 0.0
O451 O 0.10877 0.62908 0.67191 0.0
O452 O 0.08931 0.58551 0.66761 0.0
C453 C 0.09182 0.60916 0.68204 0.0
C454 C 0.05885 0.60285 0.57971 0.0
O455 O 0.10314 0.67624 0.61697 0.0
O456 O 0.19871 0.67122 0.69048 0.0
O457 O 0.10255 0.67672 0.56893 0.0
O458 O 0.13081 0.69204 0.69153 0.0
O459 O 0.20203 0.70658 0.65659 0.0
O460 O 0.12842 0.71377 0.64841 0.0
O461 O 0.15663 0.59196 0.63309 0.0
O462 O 0.17952 0.60173 0.67419 0.0
C463 C 0.1376 0.57464 0.55388 0.0
C464 C 0.17255 0.66624 0.57356 0.0
C465 C 0.67521 0.92567 0.90303 0.0
C466 C 0.56678 0.95953 0.92577 0.0
C467 C 0.54709 0.86997 0.92314 0.0
Mg468 Mg 0.69125 0.85986 0.87899 0.0
Mg469 Mg 0.63861 0.85229 0.81652 0.0
O470 O 0.65067 0.84818 0.85847 0.0
Mg471 Mg 0.6268 0.88013 0.87561 0.0
O472 O 0.60514 0.91189 0.89268 0.0
Mg473 Mg 0.61204 0.90316 0.93419 0.0
Mg474 Mg 0.5665 0.91279 0.88018 0.0
C475 C 0.57781 0.8417 0.8412 0.0
O476 O 0.61806 0.90713 0.8319 0.0
O477 O 0.67224 0.8277 0.84424 0.0
O478 O 0.57069 0.91748 0.83491 0.0
O479 O 0.70849 0.87956 0.83647 0.0
O480 O 0.65278 0.80921 0.80523 0.0
O481 O 0.66683 0.88998 0.81484 0.0
O482 O 0.63021 0.85765 0.92195 0.0
O483 O 0.67231 0.83556 0.92085 0.0
C484 C 0.64791 0.83938 0.93354 0.0
C485 C 0.66522 0.8051 0.82947 0.0
O486 O 0.58676 0.85126 0.86567 0.0
O487 O 0.58741 0.94602 0.93909 0.0
O488 O 0.59157 0.84791 0.81794 0.0
O489 O 0.56774 0.87949 0.93927 0.0
O490 O 0.55458 0.95044 0.90269 0.0
O491 O 0.54522 0.87691 0.89661 0.0
O492 O 0.66912 0.90572 0.88437 0.0
O493 O 0.65773 0.92879 0.92474 0.0
C494 C 0.69401 0.88589 0.81351 0.0
C495 C 0.59485 0.91897 0.82153 0.0
C496 C 0.83323 0.0842 0.40287 0.0
C497 C 0.94347 0.05144 0.42414 0.0
C498 C 0.96288 0.13979 0.41502 0.0
Mg499 Mg 0.82013 0.14585 0.36617 0.0
Mg500 Mg 0.86778 0.16297 0.31527 0.0
O501 O 0.85919 0.16033 0.35519 0.0
Mg502 Mg 0.88141 0.12907 0.37265 0.0
O503 O 0.90335 0.09713 0.38989 0.0
Mg504 Mg 0.89771 0.10764 0.43109 0.0
Mg505 Mg 0.94155 0.0965 0.37572 0.0
C506 C 0.92843 0.17376 0.33786 0.0
O507 O 0.8878 0.10233 0.33067 0.0
O508 O 0.80782 0.18873 0.34327 0.0
O509 O 0.93405 0.08743 0.33088 0.0
O510 O 0.81316 0.12192 0.3216 0.0
O511 O 0.83882 0.19635 0.30594 0.0
O512 O 0.85327 0.12567 0.29481 0.0
O513 O 0.87698 0.15269 0.41723 0.0
O514 O 0.83225 0.17009 0.41192 0.0
C515 C 0.85618 0.16884 0.4268 0.0
C516 C 0.81701 0.20349 0.32129 0.0
O517 O 0.92048 0.15912 0.36023 0.0
O518 O 0.92238 0.06452 0.43703 0.0
O519 O 0.91258 0.17504 0.31516 0.0
O520 O 0.94437 0.12996 0.43351 0.0
O521 O 0.95585 0.0611 0.40133 0.0
O522 O 0.95894 0.13627 0.38822 0.0
O523 O 0.83956 0.10266 0.38292 0.0
O524 O 0.8513 0.08164 0.42429 0.0
C525 C 0.82844 0.11468 0.29943 0.0
C526 C 0.90909 0.08883 0.31886 0.0
C527 C 0.65461 0.17091 0.57797 0.0
C528 C 0.68778 0.19985 0.68679 0.0
C529 C 0.67576 0.1125 0.70374 0.0
Mg530 Mg 0.61805 0.11021 0.56589 0.0
Mg531 Mg 0.56695 0.09693 0.61334 0.0
O532 O 0.60677 0.09664 0.60604 0.0
Mg533 Mg 0.62599 0.12759 0.62849 0.0
O534 O 0.64664 0.1586 0.6492 0.0
Mg535 Mg 0.68724 0.14573 0.6398 0.0
Mg536 Mg 0.63633 0.15835 0.68837 0.0
C537 C 0.59034 0.082 0.67384 0.0
O538 O 0.58663 0.15773 0.64042 0.0
O539 O 0.59718 0.06683 0.55519 0.0
O540 O 0.59158 0.1717 0.68642 0.0
O541 O 0.57197 0.13145 0.55635 0.0
O542 O 0.55737 0.06318 0.58345 0.0
O543 O 0.55907 0.14014 0.60081 0.0
O544 O 0.66921 0.10209 0.62168 0.0
O545 O 0.66393 0.08543 0.57715 0.0
C546 C 0.67842 0.08572 0.60118 0.0
C547 C 0.57552 0.05249 0.5655 0.0
O548 O 0.61328 0.09664 0.66747 0.0
O549 O 0.69786 0.18773 0.66376 0.0
O550 O 0.56779 0.08278 0.65764 0.0
O551 O 0.69393 0.12279 0.68531 0.0
O552 O 0.66609 0.19034 0.70112 0.0
O553 O 0.64903 0.1168 0.70019 0.0
O554 O 0.63391 0.15402 0.58578 0.0
O555 O 0.67766 0.17187 0.59405 0.0
C556 C 0.55389 0.1425 0.5743 0.0
C557 C 0.5774 0.17172 0.66261 0.0
C558 C 0.1733 0.42741 0.852 0.0
C559 C 0.2136 0.32268 0.8233 0.0
C560 C 0.12169 0.29747 0.83352 0.0
Mg561 Mg 0.10872 0.43505 0.88649 0.0
Mg562 Mg 0.09589 0.38508 0.93555 0.0
O563 O 0.09778 0.39409 0.89609 0.0
Mg564 Mg 0.13102 0.37448 0.87825 0.0
O565 O 0.16411 0.35578 0.85997 0.0
Mg566 Mg 0.1526 0.36352 0.81938 0.0
Mg567 Mg 0.16991 0.31708 0.87134 0.0
C568 C 0.08875 0.32415 0.91037 0.0
O569 O 0.15962 0.36516 0.91955 0.0
O570 O 0.06378 0.44193 0.90634 0.0
O571 O 0.17869 0.32073 0.91641 0.0
O572 O 0.12786 0.44417 0.93346 0.0
O573 O 0.05928 0.41154 0.94462 0.0
O574 O 0.1362 0.40011 0.94961 0.0
O575 O 0.10676 0.38022 0.83369 0.0
O576 O 0.08603 0.42293 0.8399 0.0
C577 C 0.08909 0.39983 0.82438 0.0
C578 C 0.04915 0.43081 0.92742 0.0
O579 O 0.10318 0.33268 0.88798 0.0
O580 O 0.19739 0.34231 0.81164 0.0
O581 O 0.08714 0.33957 0.93329 0.0
O582 O 0.12908 0.31748 0.81533 0.0
O583 O 0.20591 0.30761 0.84516 0.0
O584 O 0.13289 0.29602 0.85859 0.0
O585 O 0.15505 0.41932 0.8716 0.0
O586 O 0.1767 0.41053 0.82979 0.0
C587 C 0.13831 0.42702 0.95285 0.0
C588 C 0.1747 0.34425 0.93023 0.0
C589 C 0.42597 0.60347 0.33554 0.0
C590 C 0.45796 0.58004 0.44478 0.0
C591 C 0.3675 0.58669 0.4622 0.0
Mg592 Mg 0.3631 0.63364 0.31809 0.0
Mg593 Mg 0.35004 0.6881 0.37526 0.0
O594 O 0.3479 0.64835 0.35873 0.0
Mg595 Mg 0.37944 0.63059 0.38233 0.0
O596 O 0.41115 0.61366 0.40444 0.0
Mg597 Mg 0.4017 0.57249 0.39807 0.0
Mg598 Mg 0.4132 0.62775 0.44248 0.0
C599 C 0.34095 0.66294 0.43348 0.0
O600 O 0.40561 0.67387 0.38982 0.0
O601 O 0.3289 0.66637 0.33548 0.0
O602 O 0.42054 0.67301 0.43602 0.0
O603 O 0.38658 0.67798 0.30975 0.0
O604 O 0.30861 0.70127 0.36055 0.0
O605 O 0.3834 0.70603 0.34972 0.0
O606 O 0.35673 0.58521 0.37669 0.0
O607 O 0.33807 0.58961 0.3326 0.0
C608 C 0.33976 0.57527 0.35667 0.0
C609 C 0.30651 0.68178 0.34134 0.0
O610 O 0.34985 0.63926 0.42218 0.0
O611 O 0.44435 0.5667 0.42427 0.0
O612 O 0.34713 0.68706 0.42156 0.0
O613 O 0.37599 0.56918 0.44222 0.0
O614 O 0.44935 0.60377 0.45591 0.0
O615 O 0.37683 0.61255 0.46372 0.0
O616 O 0.4062 0.6223 0.3415 0.0
O617 O 0.42899 0.58168 0.35311 0.0
C618 C 0.39334 0.70083 0.32439 0.0
C619 C 0.41885 0.68562 0.41139 0.0
C620 C 0.90392 0.67856 0.9206 0.0
C621 C 0.92989 0.58011 0.96855 0.0
C622 C 0.92728 0.54884 0.8763 0.0
Mg623 Mg 0.86823 0.68129 0.85666 0.0
Mg624 Mg 0.82141 0.62763 0.84509 0.0
O625 O 0.86046 0.64018 0.84693 0.0
Mg626 Mg 0.87871 0.6235 0.88087 0.0
O627 O 0.89683 0.60711 0.91487 0.0
Mg628 Mg 0.93757 0.61602 0.90433 0.0
Mg629 Mg 0.88577 0.56847 0.92225 0.0
C630 C 0.85038 0.56863 0.84165 0.0
O631 O 0.83557 0.61572 0.90738 0.0
O632 O 0.84513 0.68681 0.81216 0.0
O633 O 0.83979 0.57166 0.92739 0.0
O634 O 0.82412 0.68624 0.87773 0.0
O635 O 0.81147 0.65116 0.80749 0.0
O636 O 0.7979 0.64573 0.87939 0.0
O637 O 0.92379 0.63061 0.85736 0.0
O638 O 0.91454 0.67208 0.83479 0.0
C639 C 0.93169 0.65034 0.83901 0.0
C640 C 0.82432 0.67393 0.79844 0.0
O641 O 0.87193 0.57995 0.85536 0.0
O642 O 0.94295 0.59756 0.95093 0.0
O643 O 0.82608 0.5818 0.83928 0.0
O644 O 0.94366 0.57044 0.8828 0.0
O645 O 0.90889 0.56376 0.96112 0.0
O646 O 0.90275 0.54495 0.8882 0.0
O647 O 0.88441 0.66867 0.90317 0.0
O648 O 0.92681 0.66301 0.92502 0.0
C649 C 0.80175 0.67213 0.88613 0.0
C650 C 0.82521 0.59472 0.92265 0.0
C651 C 0.583 0.65439 0.17637 0.0
C652 C 0.68955 0.69099 0.20718 0.0
C653 C 0.70699 0.67825 0.11428 0.0
Mg654 Mg 0.5722 0.61698 0.11474 0.0
Mg655 Mg 0.62387 0.56964 0.09955 0.0
O656 O 0.61288 0.6085 0.10124 0.0
Mg657 Mg 0.63414 0.62829 0.13259 0.0
O658 O 0.65414 0.64962 0.16326 0.0
Mg659 Mg 0.64336 0.68932 0.15039 0.0
Mg660 Mg 0.69388 0.64146 0.16524 0.0
C661 C 0.6829 0.59794 0.08741 0.0
O662 O 0.64781 0.5879 0.16255 0.0
O663 O 0.5611 0.59445 0.07204 0.0
O664 O 0.6932 0.59713 0.17717 0.0
O665 O 0.56664 0.57043 0.13547 0.0
O666 O 0.59384 0.55812 0.06699 0.0
O667 O 0.61179 0.55611 0.14084 0.0
O668 O 0.62418 0.67128 0.10744 0.0
O669 O 0.58025 0.66335 0.08999 0.0
C670 C 0.60318 0.6795 0.09091 0.0
C671 C 0.57152 0.57232 0.0586 0.0
O672 O 0.67431 0.61979 0.10242 0.0
O673 O 0.66761 0.70067 0.1927 0.0
O674 O 0.66831 0.5744 0.08623 0.0
O675 O 0.68684 0.69543 0.12321 0.0
O676 O 0.70542 0.67014 0.19853 0.0
O677 O 0.71099 0.65365 0.12595 0.0
O678 O 0.591 0.63442 0.15863 0.0
O679 O 0.59878 0.67766 0.17783 0.0
C680 C 0.58511 0.55141 0.14406 0.0
C681 C 0.67079 0.58087 0.17704 0.0
C682 C 0.58309 0.35401 0.3356 0.0
C683 C 0.6954 0.32422 0.309 0.0
C684 C 0.70815 0.33369 0.39874 0.0
Mg685 Mg 0.56969 0.38964 0.39746 0.0
Mg686 Mg 0.61696 0.44201 0.41109 0.0
O687 O 0.60969 0.40193 0.41073 0.0
Mg688 Mg 0.63231 0.38337 0.37971 0.0
O689 O 0.65461 0.36332 0.34919 0.0
Mg690 Mg 0.64598 0.32245 0.36128 0.0
Mg691 Mg 0.69392 0.37294 0.35365 0.0
C692 C 0.67765 0.41948 0.42399 0.0
O693 O 0.64477 0.42365 0.35062 0.0
O694 O 0.55952 0.4099 0.44131 0.0
O695 O 0.69213 0.41746 0.34165 0.0
O696 O 0.55924 0.43558 0.37685 0.0
O697 O 0.58738 0.45004 0.44566 0.0
O698 O 0.60343 0.44988 0.36806 0.0
O699 O 0.62636 0.33963 0.40469 0.0
O700 O 0.58175 0.34375 0.42154 0.0
C701 C 0.60595 0.32964 0.42076 0.0
C702 C 0.56979 0.43127 0.45608 0.0
O703 O 0.66978 0.39682 0.41004 0.0
O704 O 0.67173 0.31362 0.31958 0.0
O705 O 0.66212 0.44244 0.42396 0.0
O706 O 0.69127 0.31573 0.38576 0.0
O707 O 0.7094 0.34512 0.32054 0.0
O708 O 0.70306 0.36023 0.39655 0.0
O709 O 0.58967 0.37435 0.35342 0.0
O710 O 0.60054 0.332 0.33395 0.0
C711 C 0.57669 0.45443 0.36619 0.0
C712 C 0.6687 0.43205 0.33895 0.0
C713 C 0.92738 0.35265 0.66799 0.0
C714 C 0.82147 0.32765 0.70915 0.0
C715 C 0.79473 0.33891 0.62185 0.0
Mg716 Mg 0.93392 0.38827 0.60409 0.0
Mg717 Mg 0.88463 0.4394 0.59273 0.0
O718 O 0.89359 0.39948 0.59421 0.0
Mg719 Mg 0.87493 0.38159 0.62736 0.0
O720 O 0.85634 0.36353 0.66085 0.0
Mg721 Mg 0.86199 0.32251 0.64905 0.0
Mg722 Mg 0.81793 0.37656 0.66495 0.0
C723 C 0.82443 0.41603 0.58618 0.0
O724 O 0.86896 0.42331 0.65607 0.0
O725 O 0.94056 0.40988 0.55914 0.0
O726 O 0.82432 0.42124 0.67496 0.0
O727 O 0.94339 0.43305 0.62392 0.0
O728 O 0.90909 0.44755 0.55521 0.0
O729 O 0.90218 0.45694 0.6307 0.0
O730 O 0.87841 0.33661 0.60282 0.0
O731 O 0.92111 0.34293 0.58176 0.0
C732 C 0.89813 0.32736 0.58525 0.0
C733 C 0.9295 0.43172 0.5454 0.0
O734 O 0.83426 0.39347 0.59927 0.0
O735 O 0.84174 0.31571 0.69408 0.0
O736 O 0.83901 0.43946 0.58504 0.0
O737 O 0.81344 0.31993 0.6305 0.0
O738 O 0.80677 0.34948 0.70043 0.0
O739 O 0.79933 0.36549 0.62554 0.0
O740 O 0.91914 0.37293 0.65057 0.0
O741 O 0.9106 0.33023 0.67081 0.0
C742 C 0.92935 0.4549 0.63371 0.0
C743 C 0.84856 0.43418 0.67165 0.0
C744 C 0.1688 0.25536 0.32975 0.0
C745 C 0.18969 0.27171 0.31488 0.0
C746 C 0.17693 0.22999 0.34405 0.0
C747 C 0.20595 0.22068 0.34152 0.0
C748 C 0.22454 0.23343 0.3205 0.0
C749 C 0.21658 0.25991 0.30823 0.0
C750 C 0.15603 0.21679 0.36554 0.0
C751 C 0.25458 0.22209 0.31419 0.0
C752 C 0.26138 0.20949 0.39761 0.0
C753 C 0.26777 0.18052 0.39198 0.0
C754 C 0.23632 0.22185 0.38568 0.0
C755 C 0.21963 0.20527 0.36577 0.0
C756 C 0.22316 0.17506 0.36424 0.0
C757 C 0.24633 0.16267 0.37921 0.0
C758 C 0.23059 0.2537 0.39045 0.0
C759 C 0.20683 0.1568 0.34246 0.0
H760 H 0.14766 0.26476 0.33429 0.0
H761 H 0.23235 0.27257 0.29616 0.0
H762 H 0.16252 0.19473 0.37262 0.0
H763 H 0.1549 0.23087 0.38501 0.0
H764 H 0.13389 0.2158 0.356 0.0
H765 H 0.27108 0.23756 0.32253 0.0
H766 H 0.25874 0.20034 0.32358 0.0
H767 H 0.25738 0.22069 0.29033 0.0
H768 H 0.27718 0.22305 0.40859 0.0
H769 H 0.25029 0.13972 0.37593 0.0
H770 H 0.20691 0.25825 0.39052 0.0
H771 H 0.24063 0.26647 0.37264 0.0
H772 H 0.2401 0.26117 0.4113 0.0
H773 H 0.18444 0.16486 0.33875 0.0
H774 H 0.20587 0.13372 0.3494 0.0
H775 H 0.21844 0.15773 0.32137 0.0
C776 C 0.99191 0.97225 0.56569 0.0
C777 C 0.98223 0.94383 0.56738 0.0
C778 C 0.01771 0.97995 0.57937 0.0
C779 C 0.03241 0.95887 0.59652 0.0
C780 C 0.0248 0.92933 0.59465 0.0
C781 C 0.99997 0.92198 0.57899 0.0
C782 C 0.02657 0.01144 0.57886 0.0
C783 C 0.03964 0.90605 0.61238 0.0
C784 C 0.09391 0.99804 0.62677 0.0
C785 C 0.07736 0.01781 0.64327 0.0
C786 C 0.08055 0.97446 0.61365 0.0
C787 C 0.05118 0.96928 0.61996 0.0
C788 C 0.03755 0.98392 0.6433 0.0
C789 C 0.05021 0.00948 0.65366 0.0
C790 C 0.09581 0.95992 0.5886 0.0
C791 C 0.00728 0.97606 0.65296 0.0
H792 H 0.97787 0.98887 0.55661 0.0
H793 H 0.992 0.89982 0.58006 0.0
H794 H 0.01904 0.0223 0.59893 0.0
H795 H 0.05051 0.01361 0.57751 0.0
H796 H 0.01658 0.0229 0.5602 0.0
H797 H 0.04146 0.88574 0.59957 0.0
H798 H 0.06154 0.91249 0.62002 0.0
H799 H 0.02612 0.90113 0.6317 0.0
H800 H 0.11561 1.00363 0.61955 0.0
H801 H 0.03791 0.02402 0.66741 0.0
H802 H 0.09162 0.97263 0.56851 0.0
H803 H 0.08787 0.93754 0.58496 0.0
H804 H 0.11969 0.95934 0.59213 0.0
H805 H 0.9912 0.9874 0.63898 0.0
H806 H 1.00354 0.98284 0.67576 0.0
H807 H 1.00354 0.95233 0.65112 0.0
C808 C 0.26103 0.84192 0.89292 0.0
C809 C 0.23768 0.82331 0.89987 0.0
C810 C 0.28672 0.8306 0.88195 0.0
C811 C 0.28946 0.80032 0.88061 0.0
C812 C 0.26981 0.78228 0.89607 0.0
C813 C 0.2432 0.79397 0.90475 0.0
C814 C 0.30715 0.85084 0.86619 0.0
C815 C 0.27404 0.74987 0.89792 0.0
C816 C 0.29379 0.75438 0.8163 0.0
C817 C 0.31888 0.73941 0.82366 0.0
C818 C 0.28679 0.77955 0.83145 0.0
C819 C 0.30426 0.78749 0.85565 0.0
C820 C 0.33206 0.77537 0.85941 0.0
C821 C 0.33946 0.75156 0.8425 0.0
C822 C 0.25822 0.79422 0.82483 0.0
C823 C 0.35157 0.78352 0.88444 0.0
H824 H 0.25761 0.86498 0.89012 0.0
H825 H 0.22574 0.7797 0.91152 0.0
H826 H 0.32853 0.84083 0.86161 0.0
H827 H 0.29717 0.85729 0.84518 0.0
H828 H 0.3105 0.87095 0.87899 0.0
H829 H 0.26168 0.74049 0.91637 0.0
H830 H 0.26601 0.73966 0.87764 0.0
H831 H 0.29737 0.74434 0.90051 0.0
H832 H 0.27843 0.74496 0.80114 0.0
H833 H 0.35926 0.73971 0.8475 0.0
H834 H 0.25948 0.81787 0.82899 0.0
H835 H 0.24097 0.78487 0.83881 0.0
H836 H 0.25178 0.7908 0.80187 0.0
H837 H 0.34806 0.80614 0.89167 0.0
H838 H 0.37479 0.78063 0.87856 0.0
H839 H 0.34685 0.76898 0.90307 0.0
C840 C 0.46255 0.99781 0.14556 0.0
C841 C 0.43685 0.9861 0.13493 0.0
C842 C 0.47222 0.02444 0.13468 0.0
C843 C 0.4571 0.03713 0.11089 0.0
C844 C 0.42875 0.02826 0.10417 0.0
C845 C 0.41859 1.00293 0.1169 0.0
C846 C 0.50132 0.03576 0.14459 0.0
C847 C 0.41175 0.04125 0.07928 0.0
C848 C 0.50881 0.08638 0.07494 0.0
C849 C 0.5285 0.06486 0.06647 0.0
C850 C 0.48208 0.07839 0.08666 0.0
C851 C 0.47492 0.04867 0.08732 0.0
C852 C 0.49185 0.02824 0.07177 0.0
C853 C 0.51964 0.03627 0.06349 0.0
C854 C 0.46458 0.101 0.10249 0.0
C855 C 0.4835 0.99664 0.06918 0.0
H856 H 0.47591 0.9854 0.16051 0.0
H857 H 0.39794 0.99445 0.10935 0.0
H858 H 0.51871 0.02628 0.13091 0.0
H859 H 0.50235 0.05974 0.1426 0.0
H860 H 0.50571 0.02951 0.16748 0.0
H861 H 0.38807 0.04048 0.0838 0.0
H862 H 0.41818 0.06397 0.0747 0.0
H863 H 0.41576 0.02825 0.05944 0.0
H864 H 0.51611 0.10867 0.07713 0.0
H865 H 0.53531 0.01965 0.05834 0.0
H866 H 0.47565 0.10629 0.12324 0.0
H867 H 0.44221 0.09365 0.1075 0.0
H868 H 0.4635 0.12129 0.08948 0.0
H869 H 0.49 0.98484 0.08919 0.0
H870 H 0.49477 0.98623 0.05062 0.0
H871 H 0.45975 0.99413 0.06608 0.0
C872 C 0.16428 0.75384 0.17885 0.0
C873 C 0.18427 0.7351 0.19213 0.0
C874 C 0.17372 0.77998 0.16701 0.0
C875 C 0.20328 0.78723 0.17001 0.0
C876 C 0.22148 0.77144 0.18933 0.0
C877 C 0.21198 0.74455 0.19936 0.0
C878 C 0.15336 0.79656 0.14731 0.0
C879 C 0.25257 0.78019 0.19515 0.0
C880 C 0.25795 0.79953 0.11379 0.0
C881 C 0.2672 0.8269 0.12242 0.0
C882 C 0.23217 0.78826 0.1251 0.0
C883 C 0.21756 0.80399 0.14716 0.0
C884 C 0.22422 0.83323 0.15225 0.0
C885 C 0.24859 0.84478 0.13883 0.0
C886 C 0.22343 0.75777 0.11708 0.0
C887 C 0.20934 0.85068 0.1756 0.0
H888 H 0.14252 0.74621 0.17381 0.0
H889 H 0.22695 0.72992 0.21023 0.0
H890 H 0.16092 0.81897 0.14291 0.0
H891 H 0.15154 0.78498 0.12629 0.0
H892 H 0.13127 0.79743 0.15694 0.0
H893 H 0.26117 0.76953 0.21505 0.0
H894 H 0.26642 0.77353 0.17664 0.0
H895 H 0.25446 0.80404 0.19765 0.0
H896 H 0.27186 0.78619 0.10034 0.0
H897 H 0.25521 0.86649 0.14501 0.0
H898 H 0.19942 0.75557 0.11659 0.0
H899 H 0.23209 0.74234 0.1335 0.0
H900 H 0.23223 0.75155 0.09556 0.0
H901 H 0.18645 0.84395 0.17874 0.0
H902 H 0.21 0.87425 0.1705 0.0
H903 H 0.22099 0.84732 0.19646 0.0
C904 C 0.51555 0.91421 0.37614 0.0
C905 C 0.51421 0.90961 0.40614 0.0
C906 C 0.49226 0.92705 0.36181 0.0
C907 C 0.46788 0.93504 0.37829 0.0
C908 C 0.46342 0.92237 0.40589 0.0
C909 C 0.48734 0.91008 0.42019 0.0
C910 C 0.49675 0.93868 0.3316 0.0
C911 C 0.43575 0.92732 0.42243 0.0
C912 C 0.46692 0.01623 0.37888 0.0
C913 C 0.44271 0.02236 0.36175 0.0
C914 C 0.47387 0.98783 0.38599 0.0
C915 C 0.45756 0.96479 0.37349 0.0
C916 C 0.43476 0.97081 0.35381 0.0
C917 C 0.42755 0.99976 0.34811 0.0
C918 C 0.49803 0.98306 0.40787 0.0
C919 C 0.41729 0.94712 0.33944 0.0
H920 H 0.53587 0.91139 0.36472 0.0
H921 H 0.48583 0.90445 0.44299 0.0
H922 H 0.47639 0.93757 0.31884 0.0
H923 H 0.50368 0.96175 0.33266 0.0
H924 H 0.5137 0.92626 0.3203 0.0
H925 H 0.43144 0.90891 0.43743 0.0
H926 H 0.43792 0.94732 0.43561 0.0
H927 H 0.41703 0.93005 0.40743 0.0
H928 H 0.47843 0.03369 0.38968 0.0
H929 H 0.40861 0.0047 0.33493 0.0
H930 H 0.51615 0.97097 0.39779 0.0
H931 H 0.48988 0.97057 0.42675 0.0
H932 H 0.50706 0.00372 0.41638 0.0
H933 H 0.42563 0.94371 0.31715 0.0
H934 H 0.39412 0.9536 0.33744 0.0
H935 H 0.4185 0.9262 0.35134 0.0
C936 C 0.35111 0.25311 0.67147 0.0
C937 C 0.3389 0.28087 0.67105 0.0
C938 C 0.33666 0.23017 0.65793 0.0
C939 C 0.30985 0.23577 0.64401 0.0
C940 C 0.29829 0.26422 0.64264 0.0
C941 C 0.31275 0.28625 0.65677 0.0
C942 C 0.34933 0.2 0.65935 0.0
C943 C 0.26935 0.27128 0.62853 0.0
C944 C 0.25552 0.19442 0.60239 0.0
C945 C 0.23415 0.19419 0.62384 0.0
C946 C 0.28348 0.20431 0.60931 0.0
C947 C 0.2896 0.21227 0.63835 0.0
C948 C 0.26921 0.20722 0.66057 0.0
C949 C 0.2413 0.19989 0.65267 0.0
C950 C 0.30518 0.20938 0.58536 0.0
C951 C 0.27501 0.21437 0.69211 0.0
H952 H 0.37195 0.2495 0.68187 0.0
H953 H 0.30354 0.30792 0.65652 0.0
H954 H 0.33472 0.18543 0.67178 0.0
H955 H 0.35115 0.19094 0.63717 0.0
H956 H 0.37113 0.19971 0.66975 0.0
H957 H 0.26613 0.29501 0.62569 0.0
H958 H 0.26751 0.26094 0.60694 0.0
H959 H 0.25142 0.26306 0.64234 0.0
H960 H 0.2501 0.18817 0.58038 0.0
H961 H 0.22482 0.19881 0.66923 0.0
H962 H 0.3276 0.20481 0.59297 0.0
H963 H 0.30432 0.23249 0.57857 0.0
H964 H 0.30035 0.19576 0.56609 0.0
H965 H 0.25975 0.20273 0.70675 0.0
H966 H 0.27199 0.23801 0.69555 0.0
H967 H 0.2975 0.20866 0.69851 0.0
C968 C 0.06403 1.00084 0.85919 0.0
C969 C 0.05665 0.9767 0.8761 0.0
C970 C 0.05535 0.0286 0.86771 0.0
C971 C 0.04007 0.03173 0.89406 0.0
C972 C 0.03557 0.00769 0.91263 0.0
C973 C 0.04298 0.98035 0.90287 0.0
C974 C 0.06134 0.05427 0.8482 0.0
C975 C 0.02025 0.01024 0.94158 0.0
C976 C 1.00232 0.09234 0.93094 0.0
C977 C 0.97399 0.08591 0.92203 0.0
C978 C 0.02576 0.07741 0.91873 0.0
C979 C 0.02008 0.05586 0.89774 0.0
C980 C 0.99171 0.05143 0.88695 0.0
C981 C 0.96899 0.06593 0.89991 0.0
C982 C 0.05624 0.08354 0.92905 0.0
C983 C 0.98474 0.0291 0.86389 0.0
H984 H 0.07643 0.99795 0.8395 0.0
H985 H 0.03885 0.96181 0.9168 0.0
H986 H 0.04085 0.06581 0.84285 0.0
H987 H 0.07554 0.0699 0.85975 0.0
H988 H 0.0721 0.0478 0.82766 0.0
H989 H 0.02268 0.9903 0.95498 0.0
H990 H 0.02888 0.0288 0.95416 0.0
H991 H 0.99671 0.01402 0.93795 0.0
H992 H 0.00611 0.10895 0.94712 0.0
H993 H 0.94714 0.06122 0.89282 0.0
H994 H 0.071 0.08589 0.91018 0.0
H995 H 0.06433 0.06506 0.94225 0.0
H996 H 0.05738 0.10355 0.94238 0.0
H997 H 0.99977 0.03126 0.84525 0.0
H998 H 0.96215 0.03123 0.85561 0.0
H999 H 0.98728 0.00694 0.87304 0.0
C1000 C 0.3827 0.24272 0.16309 0.0
C1001 C 0.39512 0.26404 0.18126 0.0
C1002 C 0.36969 0.21833 0.17518 0.0
C1003 C 0.3729 0.21379 0.20514 0.0
C1004 C 0.39339 0.2303 0.22118 0.0
C1005 C 0.40307 0.2566 0.20948 0.0
C1006 C 0.34771 0.20191 0.1572 0.0
C1007 C 0.40014 0.22342 0.25247 0.0
C1008 C 0.3157 0.21286 0.26038 0.0
C1009 C 0.32009 0.18514 0.27137 0.0
C1010 C 0.32869 0.22079 0.23433 0.0
C1011 C 0.34861 0.20122 0.22131 0.0
C1012 C 0.34956 0.17194 0.23009 0.0
C1013 C 0.33414 0.16393 0.25481 0.0
C1014 C 0.32493 0.25159 0.22378 0.0
C1015 C 0.37036 0.15035 0.21699 0.0
H1016 H 0.37789 0.24747 0.14052 0.0
H1017 H 0.41396 0.27233 0.22316 0.0
H1018 H 0.34269 0.18021 0.16628 0.0
H1019 H 0.32718 0.21456 0.1564 0.0
H1020 H 0.35549 0.19942 0.13454 0.0
H1021 H 0.42158 0.23245 0.25888 0.0
H1022 H 0.38332 0.23329 0.26658 0.0
H1023 H 0.40018 0.19963 0.2563 0.0
H1024 H 0.30496 0.22912 0.27347 0.0
H1025 H 0.33727 0.1423 0.2637 0.0
H1026 H 0.32505 0.25258 0.19974 0.0
H1027 H 0.34299 0.26521 0.23207 0.0
H1028 H 0.3043 0.26106 0.23181 0.0
H1029 H 0.37635 0.15594 0.19439 0.0
H1030 H 0.3609 0.12817 0.21743 0.0
H1031 H 0.39057 0.14989 0.23017 0.0
C1032 C 0.03705 0.0679 0.51532 0.0
C1033 C 0.06604 0.06755 0.52371 0.0
C1034 C 0.02917 0.08013 0.48889 0.0
C1035 C 0.05087 0.09407 0.47197 0.0
C1036 C 0.08054 0.0906 0.47875 0.0
C1037 C 0.08786 0.07626 0.5044 0.0
C1038 C 0.9972 0.08155 0.48138 0.0
C1039 C 0.1044 0.10525 0.46172 0.0
C1040 C 0.01086 0.11844 0.40868 0.0
C1041 C 0.99349 0.13899 0.42313 0.0
C1042 C 0.03442 0.10583 0.42269 0.0
C1043 C 0.04142 0.11567 0.45064 0.0
C1044 C 0.02899 0.14163 0.46145 0.0
C1045 C 1.0037 0.15224 0.44827 0.0
C1046 C 0.04695 0.07816 0.41045 0.0
C1047 C 0.03885 0.15453 0.48982 0.0
H1048 H 0.02035 0.0617 0.53062 0.0
H1049 H 0.11042 0.07608 0.51132 0.0
H1050 H 0.98858 0.10335 0.48672 0.0
H1051 H 0.99369 0.07762 0.45792 0.0
H1052 H 0.98439 0.06541 0.49392 0.0
H1053 H 0.12379 0.09095 0.46051 0.0
H1054 H 0.09766 0.11134 0.43943 0.0
H1055 H 0.11105 0.12531 0.47325 0.0
H1056 H 1.0034 0.10859 0.38866 0.0
H1057 H 0.99083 0.16884 0.45881 0.0
H1058 H 0.03406 0.05947 0.41859 0.0
H1059 H 0.06982 0.07488 0.41726 0.0
H1060 H 0.04579 0.07805 0.38638 0.0
H1061 H 0.02751 0.14347 0.50798 0.0
H1062 H 0.03359 0.17803 0.49082 0.0
H1063 H 0.06261 0.15157 0.49287 0.0
C1064 C 0.19865 0.80222 0.75313 0.0
C1065 C 0.18775 0.82546 0.76891 0.0
C1066 C 0.18468 0.79411 0.72747 0.0
C1067 C 0.15801 0.80779 0.72025 0.0
C1068 C 0.15075 0.8346 0.73281 0.0
C1069 C 0.16659 0.84374 0.75685 0.0
C1070 C 0.19516 0.76757 0.71159 0.0
C1071 C 0.12306 0.85022 0.72496 0.0
C1072 C 0.11212 0.7643 0.66963 0.0
C1073 C 0.10999 0.73938 0.68727 0.0
C1074 C 0.12697 0.7885 0.68002 0.0
C1075 C 0.1344 0.78915 0.70966 0.0
C1076 C 0.1228 0.76797 0.72894 0.0
C1077 C 0.11098 0.74266 0.7173 0.0
C1078 C 0.13857 0.81008 0.65824 0.0
C1079 C 0.12709 0.76963 0.76138 0.0
H1080 H 0.21569 0.78871 0.7622 0.0
H1081 H 0.15896 0.86229 0.76914 0.0
H1082 H 0.18618 0.74783 0.72213 0.0
H1083 H 0.18804 0.76791 0.68856 0.0
H1084 H 0.21924 0.76613 0.71247 0.0
H1085 H 0.12037 0.87077 0.7372 0.0
H1086 H 0.12248 0.85519 0.70145 0.0
H1087 H 0.10437 0.83586 0.72972 0.0
H1088 H 0.10869 0.76262 0.64639 0.0
H1089 H 0.10714 0.7241 0.73131 0.0
H1090 H 0.15508 0.79917 0.64452 0.0
H1091 H 0.1489 0.8293 0.66825 0.0
H1092 H 0.12078 0.81732 0.64361 0.0
H1093 H 0.14916 0.76172 0.76705 0.0
H1094 H 0.11113 0.75581 0.77305 0.0
H1095 H 0.12489 0.79227 0.76916 0.0
C1096 C 0.51732 0.86302 0.96648 0.0
C1097 C 0.52023 0.85955 0.93665 0.0
C1098 C 0.49068 0.87124 0.97804 0.0
C1099 C 0.46626 0.87417 0.95918 0.0
C1100 C 0.46796 0.86431 0.93034 0.0
C1101 C 0.49516 0.85677 0.91934 0.0
C1102 C 0.49019 0.88041 0.00951 0.0
C1103 C 0.44233 0.86503 0.90989 0.0
C1104 C 0.41554 0.893 0.01415 0.0
C1105 C 0.42774 0.92054 0.01894 0.0
C1106 C 0.42243 0.87782 0.98902 0.0
C1107 C 0.4412 0.8913 0.96907 0.0
C1108 C 0.44486 0.92186 0.96983 0.0
C1109 C 0.43901 0.93635 0.99582 0.0
C1110 C 0.41618 0.84571 0.9877 0.0
C1111 C 0.46061 0.93786 0.94611 0.0
H1112 H 0.53656 0.86379 0.9801 0.0
H1113 H 0.49711 0.85265 0.89628 0.0
H1114 H 0.48834 0.90435 0.01086 0.0
H1115 H 0.47162 0.8704 0.02101 0.0
H1116 H 0.51034 0.87412 0.02125 0.0
H1117 H 0.4423 0.84532 0.89606 0.0
H1118 H 0.42123 0.86648 0.92136 0.0
H1119 H 0.44441 0.88406 0.89523 0.0
H1120 H 0.40496 0.88157 0.03185 0.0
H1121 H 0.44656 0.95839 0.99909 0.0
H1122 H 0.4341 0.83366 0.99852 0.0
H1123 H 0.41476 0.83814 0.96492 0.0
H1124 H 0.39567 0.84032 0.99918 0.0
H1125 H 0.48427 0.93781 0.95082 0.0
H1126 H 0.45324 0.96081 0.94495 0.0
H1127 H 0.45696 0.92743 0.92476 0.0
C1128 C 0.31265 0.80699 0.25885 0.0
C1129 C 0.32616 0.82788 0.2417 0.0
C1130 C 0.32806 0.79477 0.28211 0.0
C1131 C 0.35797 0.80165 0.28512 0.0
C1132 C 0.36921 0.82661 0.27152 0.0
C1133 C 0.35209 0.84074 0.25098 0.0
C1134 C 0.31419 0.7708 0.29949 0.0
C1135 C 0.40089 0.83462 0.27279 0.0
C1136 C 0.40785 0.75164 0.32646 0.0
C1137 C 0.40443 0.72665 0.30931 0.0
C1138 C 0.39212 0.77663 0.31947 0.0
C1139 C 0.37823 0.778 0.2922 0.0
C1140 C 0.38284 0.75571 0.27144 0.0
C1141 C 0.39615 0.72996 0.28036 0.0
C1142 C 0.38721 0.79943 0.34248 0.0
C1143 C 0.37065 0.75736 0.241 0.0
H1144 H 0.29191 0.79798 0.25229 0.0
H1145 H 0.36186 0.85777 0.23788 0.0
H1146 H 0.31649 0.74996 0.28772 0.0
H1147 H 0.32468 0.76853 0.3211 0.0
H1148 H 0.29062 0.77505 0.30244 0.0
H1149 H 0.41125 0.82806 0.2521 0.0
H1150 H 0.40288 0.85846 0.27508 0.0
H1151 H 0.41313 0.82403 0.29051 0.0
H1152 H 0.4165 0.74944 0.34826 0.0
H1153 H 0.39536 0.71119 0.26624 0.0
H1154 H 0.36355 0.80216 0.34627 0.0
H1155 H 0.39569 0.82076 0.33536 0.0
H1156 H 0.3978 0.79369 0.3634 0.0
H1157 H 0.34696 0.75291 0.24149 0.0
H1158 H 0.38087 0.74112 0.22648 0.0
H1159 H 0.37399 0.77927 0.23158 0.0
C1160 C 0.51299 0.1457 0.53926 0.0
C1161 C 0.52287 0.14111 0.56743 0.0
C1162 C 0.48689 0.13305 0.53037 0.0
C1163 C 0.47259 0.11353 0.54956 0.0
C1164 C 0.47988 0.11278 0.5791 0.0
C1165 C 0.50433 0.12797 0.58804 0.0
C1166 C 0.47752 0.1367 0.49918 0.0
C1167 C 0.46565 0.09213 0.60026 0.0
C1168 C 0.41741 0.07742 0.5055 0.0
C1169 C 0.437 0.06305 0.48734 0.0
C1170 C 0.42766 0.09138 0.53018 0.0
C1171 C 0.45741 0.0888 0.53681 0.0
C1172 C 0.47478 0.06765 0.52276 0.0
C1173 C 0.46462 0.05575 0.49698 0.0
C1174 C 0.40824 0.11315 0.54492 0.0
C1175 C 0.5058 0.062 0.5316 0.0
H1176 H 0.52669 0.15684 0.52368 0.0
H1177 H 0.51111 0.12533 0.61044 0.0
H1178 H 0.4865 0.11867 0.48605 0.0
H1179 H 0.45349 0.1363 0.49722 0.0
H1180 H 0.48571 0.15743 0.48994 0.0
H1181 H 0.46446 0.10197 0.62219 0.0
H1182 H 0.44353 0.08556 0.59338 0.0
H1183 H 0.47914 0.07223 0.60206 0.0
H1184 H 0.39565 0.08233 0.49776 0.0
H1185 H 0.47924 0.04391 0.48288 0.0
H1186 H 0.40783 0.13338 0.5318 0.0
H1187 H 0.41588 0.11867 0.56704 0.0
H1188 H 0.38562 0.10483 0.54618 0.0
H1189 H 0.51994 0.07976 0.52349 0.0
H1190 H 0.51391 0.04125 0.52247 0.0
H1191 H 0.5076 0.0612 0.55556 0.0
C1192 C 0.18947 0.21171 0.75393 0.0
C1193 C 0.18175 0.18604 0.74027 0.0
C1194 C 0.1748 0.21997 0.77904 0.0
C1195 C 0.15048 0.20322 0.78816 0.0
C1196 C 0.14637 0.17495 0.77733 0.0
C1197 C 0.1631 0.16622 0.7538 0.0
C1198 C 0.18192 0.24905 0.79225 0.0
C1199 C 0.12135 0.15587 0.78645 0.0
C1200 C 0.11062 0.24619 0.84228 0.0
C1201 C 0.10734 0.27054 0.82393 0.0
C1202 C 0.12307 0.22105 0.83101 0.0
C1203 C 0.12577 0.21894 0.8007 0.0
C1204 C 0.11117 0.23917 0.78251 0.0
C1205 C 0.10308 0.26587 0.79435 0.0
C1206 C 0.13862 0.20067 0.85152 0.0
C1207 C 0.10995 0.23542 0.75005 0.0
H1208 H 0.20448 0.22655 0.74348 0.0
H1209 H 0.15786 0.14592 0.74306 0.0
H1210 H 0.17675 0.2494 0.81575 0.0
H1211 H 0.20528 0.25442 0.78931 0.0
H1212 H 0.16902 0.26621 0.78125 0.0
H1213 H 0.12907 0.13324 0.7896 0.0
H1214 H 0.11057 0.16328 0.80657 0.0
H1215 H 0.10491 0.15546 0.7688 0.0
H1216 H 0.11087 0.24901 0.86564 0.0
H1217 H 0.09809 0.28395 0.78008 0.0
H1218 H 0.15991 0.21036 0.85745 0.0
H1219 H 0.14284 0.17913 0.84179 0.0
H1220 H 0.12601 0.1978 0.87185 0.0
H1221 H 0.12986 0.24476 0.74017 0.0
H1222 H 0.09091 0.24701 0.74075 0.0
H1223 H 0.10867 0.21213 0.74411 0.0
C1224 C 0.01406 0.85648 0.09896 0.0
C1225 C 0.98903 0.85296 0.08168 0.0
C1226 C 0.03976 0.86588 0.08598 0.0
C1227 C 0.04066 0.86731 0.0555 0.0
C1228 C 0.01881 0.85328 0.03887 0.0
C1229 C 0.99238 0.84685 0.05227 0.0
C1230 C 0.06274 0.87964 0.10483 0.0
C1231 C 0.02071 0.85107 0.00628 0.0
C1232 C 0.04643 0.92991 0.00725 0.0
C1233 C 0.06898 0.91966 0.99016 0.0
C1234 C 0.04072 0.91632 0.03375 0.0
C1235 C 0.05671 0.89091 0.04124 0.0
C1236 C 0.0827 0.88432 0.02662 0.0
C1237 C 0.08884 0.89936 1.00114 0.0
C1238 C 0.01443 0.92592 0.05072 0.0
C1239 C 0.10103 0.85827 0.03433 0.0
H1240 H 0.0121 0.85844 0.12233 0.0
H1241 H 0.97353 0.8418 0.03907 0.0
H1242 H 0.08351 0.88311 0.0932 0.0
H1243 H 0.05475 0.90103 0.11246 0.0
H1244 H 0.06678 0.86601 0.12434 0.0
H1245 H 0.00618 0.83375 0.99791 0.0
H1246 H 0.01382 0.87194 0.99634 0.0
H1247 H 0.04329 0.84643 0.9993 0.0
H1248 H 0.03176 0.94631 0.99878 0.0
H1249 H 0.1069 0.8923 0.98777 0.0
H1250 H 0.01744 0.92195 0.07428 0.0
H1251 H 0.9951 0.91357 0.04331 0.0
H1252 H 0.00993 0.94936 0.0472 0.0
H1253 H 0.09784 0.85109 0.05707 0.0
H1254 H 0.12441 0.86314 0.03084 0.0
H1255 H 0.09517 0.83999 0.01981 0.0
C1256 C 0.25764 0.33784 0.16463 0.0
C1257 C 0.26958 0.31707 0.18348 0.0
C1258 C 0.23408 0.35449 0.17356 0.0
C1259 C 0.22203 0.34858 0.20095 0.0
C1260 C 0.22913 0.32249 0.21577 0.0
C1261 C 0.25415 0.30757 0.20757 0.0
C1262 C 0.22599 0.38129 0.15652 0.0
C1263 C 0.21377 0.31344 0.24318 0.0
C1264 C 0.21908 0.39688 0.26447 0.0
C1265 C 0.18915 0.3967 0.26905 0.0
C1266 C 0.2303 0.38575 0.23864 0.0
C1267 C 0.21096 0.37268 0.21846 0.0
C1268 C 0.18091 0.3774 0.22063 0.0
C1269 C 0.17049 0.39115 0.24536 0.0
C1270 C 0.26285 0.38383 0.23525 0.0
C1271 C 0.15943 0.36502 0.19906 0.0
H1272 H 0.26965 0.34445 0.14546 0.0
H1273 H 0.26312 0.29088 0.22156 0.0
H1274 H 0.20216 0.3846 0.15667 0.0
H1275 H 0.23624 0.40056 0.1667 0.0
H1276 H 0.23351 0.37995 0.13367 0.0
H1277 H 0.21557 0.28964 0.24663 0.0
H1278 H 0.22392 0.32447 0.26202 0.0
H1279 H 0.19044 0.31948 0.24236 0.0
H1280 H 0.23366 0.40243 0.28211 0.0
H1281 H 0.14723 0.39244 0.24791 0.0
H1282 H 0.26923 0.38664 0.21221 0.0
H1283 H 0.27044 0.36218 0.24266 0.0
H1284 H 0.27411 0.40054 0.24846 0.0
H1285 H 0.15668 0.38062 0.1809 0.0
H1286 H 0.13773 0.3616 0.20902 0.0
H1287 H 0.16684 0.34407 0.18987 0.0
C1288 C 0.75892 0.19584 0.78895 0.0
C1289 C 0.7698 0.19044 0.81647 0.0
C1290 C 0.7342 0.18112 0.77974 0.0
C1291 C 0.72221 0.15929 0.7979 0.0
C1292 C 0.73049 0.15732 0.82725 0.0
C1293 C 0.75402 0.17387 0.83653 0.0
C1294 C 0.72389 0.18592 0.74914 0.0
C1295 C 0.71822 0.13473 0.84756 0.0
C1296 C 0.6659 0.12247 0.75514 0.0
C1297 C 0.68455 0.11011 0.73425 0.0
C1298 C 0.67738 0.13636 0.77932 0.0
C1299 C 0.70752 0.13488 0.78385 0.0
C1300 C 0.72481 0.11558 0.76729 0.0
C1301 C 0.71333 0.10426 0.74161 0.0
C1302 C 0.65824 0.15712 0.79591 0.0
C1303 C 0.75665 0.11122 0.77368 0.0
H1304 H 0.77127 0.20903 0.77382 0.0
H1305 H 0.76283 0.17009 0.85808 0.0
H1306 H 0.73457 0.17013 0.73447 0.0
H1307 H 0.70005 0.18306 0.74755 0.0
H1308 H 0.72953 0.20812 0.74178 0.0
H1309 H 0.71663 0.14353 0.86991 0.0
H1310 H 0.69654 0.12684 0.84066 0.0
H1311 H 0.73323 0.11591 0.84832 0.0
H1312 H 0.64311 0.12602 0.75032 0.0
H1313 H 0.72747 0.09367 0.72612 0.0
H1314 H 0.65785 0.1783 0.78436 0.0
H1315 H 0.66631 0.16099 0.81823 0.0
H1316 H 0.63555 0.14898 0.79699 0.0
H1317 H 0.76934 0.12893 0.76337 0.0
H1318 H 0.76448 0.09024 0.76482 0.0
H1319 H 0.76088 0.11171 0.79738 0.0
C1320 C 0.14197 0.46482 0.99093 0.0
C1321 C 0.13792 0.43593 0.98327 0.0
C1322 C 0.12994 0.47511 0.0167 0.0
C1323 C 0.11147 0.45647 0.03298 0.0
C1324 C 0.11103 0.42655 0.02764 0.0
C1325 C 0.12578 0.41634 1.00354 0.0
C1326 C 0.13338 0.50685 0.02397 0.0
C1327 C 0.09126 0.40594 0.04382 0.0
C1328 C 0.08026 0.5028 0.08855 0.0
C1329 C 0.06432 0.52031 0.06944 0.0
C1330 C 0.09295 0.47743 0.07847 0.0
C1331 C 0.08786 0.46966 0.0494 0.0
C1332 C 0.06545 0.48329 0.03314 0.0
C1333 C 0.0547 0.50972 0.04296 0.0
C1334 C 0.11609 0.46307 0.09678 0.0
C1335 C 0.05732 0.47335 1.00304 0.0
H1336 H 0.15226 0.4797 0.97585 0.0
H1337 H 0.12349 0.3935 0.99844 0.0
H1338 H 0.11441 0.51914 0.01554 0.0
H1339 H 0.13458 0.51008 0.04779 0.0
H1340 H 0.15328 0.51608 0.01393 0.0
H1341 H 0.1017 0.38433 0.04625 0.0
H1342 H 0.08504 0.41404 0.06555 0.0
H1343 H 0.07106 0.40285 0.03098 0.0
H1344 H 0.0869 0.51129 0.1095 0.0
H1345 H 0.04162 0.52332 0.0288 0.0
H1346 H 0.13662 0.47555 0.0947 0.0
H1347 H 0.12041 0.44043 0.09 0.0
H1348 H 0.10979 0.46319 0.12003 0.0
H1349 H 0.07297 0.48241 0.98712 0.0
H1350 H 0.03525 0.48106 0.99697 0.0
H1351 H 0.05798 0.44933 1.00151 0.0
C1352 C 0.82076 0.8972 0.25464 0.0
C1353 C 0.81236 0.87972 0.23134 0.0
C1354 C 0.81208 0.89001 0.28279 0.0
C1355 C 0.79577 0.86441 0.28717 0.0
C1356 C 0.78958 0.84549 0.26385 0.0
C1357 C 0.79713 0.85395 0.23609 0.0
C1358 C 0.81933 0.91004 0.30761 0.0
C1359 C 0.77264 0.81755 0.26762 0.0
C1360 C 0.75972 0.83088 0.35096 0.0
C1361 C 0.73141 0.84008 0.34492 0.0
C1362 C 0.78282 0.84174 0.33448 0.0
C1363 C 0.77681 0.86207 0.31222 0.0
C1364 C 0.7487 0.87369 0.30855 0.0
C1365 C 0.72632 0.86188 0.32441 0.0
C1366 C 0.81299 0.82988 0.33911 0.0
C1367 C 0.74129 0.89557 0.28504 0.0
H1368 H 0.83427 0.91611 0.25081 0.0
H1369 H 0.79237 0.83951 0.21813 0.0
H1370 H 0.79929 0.91642 0.31928 0.0
H1371 H 0.83339 0.89846 0.32342 0.0
H1372 H 0.8307 0.92999 0.30021 0.0
H1373 H 0.77445 0.80324 0.24834 0.0
H1374 H 0.78036 0.80528 0.28685 0.0
H1375 H 0.74931 0.82265 0.27088 0.0
H1376 H 0.76359 0.81455 0.36749 0.0
H1377 H 0.7045 0.86897 0.31954 0.0
H1378 H 0.82913 0.84775 0.33871 0.0
H1379 H 0.81854 0.81479 0.32125 0.0
H1380 H 0.8149 0.81795 0.36001 0.0
H1381 H 0.75714 0.91367 0.28494 0.0
H1382 H 0.71919 0.90485 0.2878 0.0
H1383 H 0.74203 0.88492 0.26349 0.0
C1384 C 0.89711 0.09396 1.00116 0.0
C1385 C 0.87643 0.07663 0.98691 0.0
C1386 C 0.91139 0.08375 0.0257 0.0
C1387 C 0.90346 0.05643 0.03661 0.0
C1388 C 0.87816 0.04218 0.02618 0.0
C1389 C 0.86559 0.05183 1.00029 0.0
C1390 C 0.93801 0.09965 0.03633 0.0
C1391 C 0.86728 0.01435 0.03964 0.0
C1392 C 0.95157 0.99327 0.04292 0.0
C1393 C 0.94736 0.98707 0.07212 0.0
C1394 C 0.94161 0.01944 0.03161 0.0
C1395 C 0.92586 0.03837 0.05009 0.0
C1396 C 0.92599 0.0342 0.08039 0.0
C1397 C 0.93776 0.00853 0.09128 0.0
C1398 C 0.94349 0.02417 0.99919 0.0
C1399 C 0.91018 0.05447 0.10067 0.0
H1400 H 0.90462 0.11395 0.99141 0.0
H1401 H 0.84869 0.03926 0.98979 0.0
H1402 H 0.94098 0.09695 0.06002 0.0
H1403 H 0.95752 0.09063 0.02548 0.0
H1404 H 0.93684 0.12318 0.03112 0.0
H1405 H 0.84419 0.01027 0.03386 0.0
H1406 H 0.88046 0.99589 0.03161 0.0
H1407 H 0.86929 0.01502 0.06362 0.0
H1408 H 0.95951 0.97648 0.0285 0.0
H1409 H 0.93514 1.00341 0.11412 0.0
H1410 H 0.94757 0.04731 0.99397 0.0
H1411 H 0.92263 0.01777 0.98892 0.0
H1412 H 0.96103 0.01089 0.98936 0.0
H1413 H 0.92061 0.07612 0.10025 0.0
H1414 H 0.9103 0.04646 0.12344 0.0
H1415 H 0.88728 0.05733 0.09365 0.0
C1416 C 0.28904 0.61297 0.76456 0.0
C1417 C 0.31884 0.61032 0.76926 0.0
C1418 C 0.27903 0.6253 0.73866 0.0
C1419 C 0.29969 0.63647 0.7186 0.0
C1420 C 0.32908 0.62843 0.72093 0.0
C1421 C 0.33773 0.61254 0.74527 0.0
C1422 C 0.2468 0.63034 0.73513 0.0
C1423 C 0.35235 0.64038 0.70115 0.0
C1424 C 0.256 0.66963 0.66157 0.0
C1425 C 0.24349 0.69081 0.67932 0.0
C1426 C 0.27936 0.65339 0.67186 0.0
C1427 C 0.29071 0.66033 0.69938 0.0
C1428 C 0.28342 0.6871 0.71265 0.0
C1429 C 0.25844 0.70151 0.70321 0.0
C1430 C 0.28701 0.62553 0.65658 0.0
C1431 C 0.29803 0.69714 0.74012 0.0
H1432 H 0.274 0.60945 0.78231 0.0
H1433 H 0.36074 0.60818 0.74802 0.0
H1434 H 0.24127 0.65254 0.74256 0.0
H1435 H 0.24019 0.62822 0.71208 0.0
H1436 H 0.234 0.61472 0.74832 0.0
H1437 H 0.3681 0.62305 0.69551 0.0
H1438 H 0.34369 0.65018 0.68094 0.0
H1439 H 0.36457 0.65748 0.71295 0.0
H1440 H 0.24433 0.66214 0.6425 0.0
H1441 H 0.24896 0.71859 0.71627 0.0
H1442 H 0.27469 0.60751 0.6667 0.0
H1443 H 0.31042 0.62039 0.65869 0.0
H1444 H 0.28118 0.62644 0.63319 0.0
H1445 H 0.28681 0.68748 0.75913 0.0
H1446 H 0.29679 0.72113 0.74214 0.0
H1447 H 0.32116 0.69032 0.74066 0.0
C1448 C 0.14744 0.54857 0.50764 0.0
C1449 C 0.12826 0.56109 0.52729 0.0
C1450 C 0.13631 0.53356 0.48368 0.0
C1451 C 0.10575 0.53156 0.48016 0.0
C1452 C 0.0868 0.54714 0.49825 0.0
C1453 C 0.09841 0.56139 0.52189 0.0
C1454 C 0.15689 0.51762 0.46394 0.0
C1455 C 0.05409 0.54552 0.49519 0.0
C1456 C 0.06961 0.48834 0.42139 0.0
C1457 C 0.06729 0.46152 0.43541 0.0
C1458 C 0.08282 0.51164 0.43543 0.0
C1459 C 0.09331 0.50749 0.46393 0.0
C1460 C 0.08956 0.48065 0.47853 0.0
C1461 C 0.0767 0.45779 0.46382 0.0
C1462 C 0.08691 0.53997 0.41939 0.0
C1463 C 0.09985 0.47576 0.50935 0.0
H1464 H 0.17064 0.54928 0.51174 0.0
H1465 H 0.0839 0.57143 0.53721 0.0
H1466 H 0.15765 0.49439 0.47032 0.0
H1467 H 0.14927 0.51873 0.44112 0.0
H1468 H 0.17927 0.52655 0.46528 0.0
H1469 H 0.04301 0.56281 0.50776 0.0
H1470 H 0.04742 0.54736 0.47214 0.0
H1471 H 0.04639 0.52419 0.50339 0.0
H1472 H 0.06327 0.49035 0.39878 0.0
H1473 H 0.07552 0.43648 0.47384 0.0
H1474 H 0.11036 0.54329 0.41495 0.0
H1475 H 0.07953 0.55849 0.43279 0.0
H1476 H 0.07498 0.54037 0.39841 0.0
H1477 H 0.1236 0.47953 0.51085 0.0
H1478 H 0.09522 0.45342 0.51719 0.0
H1479 H 0.08905 0.49132 0.52415 0.0
C1480 C 0.36244 0.46777 0.01749 0.0
C1481 C 0.36452 0.43814 0.02314 0.0
C1482 C 0.37465 0.47923 0.99219 0.0
C1483 C 0.39076 0.46063 0.97368 0.0
C1484 C 0.38948 0.43039 0.97728 0.0
C1485 C 0.37495 0.41938 1.00134 0.0
C1486 C 0.3735 0.51163 0.98737 0.0
C1487 C 0.40699 0.4098 0.95878 0.0
C1488 C 0.41963 0.5058 0.91439 0.0
C1489 C 0.43976 0.52139 0.93099 0.0
C1490 C 0.40532 0.48208 0.9265 0.0
C1491 C 0.41296 0.47355 0.95488 0.0
C1492 C 0.43823 0.48492 0.96831 0.0
C1493 C 0.45087 0.50983 0.95659 0.0
C1494 C 0.37882 0.47029 0.91119 0.0
C1495 C 0.44866 0.47417 0.99744 0.0
H1496 H 0.35367 0.48217 0.03385 0.0
H1497 H 0.37586 0.39614 0.00496 0.0
H1498 H 0.39422 0.52154 0.99469 0.0
H1499 H 0.3706 0.51676 0.964 0.0
H1500 H 0.3555 0.52177 0.99975 0.0
H1501 H 0.39618 0.38831 0.95727 0.0
H1502 H 0.41073 0.41829 0.93659 0.0
H1503 H 0.42854 0.40643 0.96914 0.0
H1504 H 0.41154 0.51499 0.89421 0.0
H1505 H 0.46691 0.52184 0.96892 0.0
H1506 H 0.35976 0.4839 0.91681 0.0
H1507 H 0.37393 0.44765 0.9177 0.0
H1508 H 0.38164 0.47119 0.88727 0.0
H1509 H 0.43587 0.48476 0.01484 0.0
H1510 H 0.47195 0.47953 1.00084 0.0
H1511 H 0.44575 0.45035 0.99946 0.0
C1512 C 0.67782 0.75318 0.82317 0.0
C1513 C 0.67126 0.77654 0.84115 0.0
C1514 C 0.6911 0.72858 0.83505 0.0
C1515 C 0.69783 0.7284 0.86506 0.0
C1516 C 0.68688 0.74999 0.88365 0.0
C1517 C 0.67319 0.77379 0.87129 0.0
C1518 C 0.70258 0.70564 0.81482 0.0
C1519 C 0.69455 0.75067 0.91566 0.0
C1520 C 0.74952 0.67426 0.89768 0.0
C1521 C 0.77586 0.68886 0.89304 0.0
C1522 C 0.72338 0.68686 0.88877 0.0
C1523 C 0.72432 0.71402 0.87468 0.0
C1524 C 0.75057 0.72997 0.87284 0.0
C1525 C 0.77574 0.71781 0.88392 0.0
C1526 C 0.69523 0.67059 0.89277 0.0
C1527 C 0.75245 0.75952 0.85839 0.0
H1528 H 0.67538 0.75526 0.79985 0.0
H1529 H 0.66664 0.79163 0.885 0.0
H1530 H 0.72514 0.71132 0.80847 0.0
H1531 H 0.70307 0.68406 0.82551 0.0
H1532 H 0.68925 0.70431 0.79475 0.0
H1533 H 0.68917 0.77167 0.92592 0.0
H1534 H 0.68313 0.7328 0.92696 0.0
H1535 H 0.71811 0.74733 0.9194 0.0
H1536 H 0.74962 0.65209 0.90565 0.0
H1537 H 0.79597 0.72964 0.88153 0.0
H1538 H 0.68587 0.66513 0.87127 0.0
H1539 H 0.6792 0.68446 0.90414 0.0
H1540 H 0.69823 0.65022 0.90538 0.0
H1541 H 0.74337 0.75859 0.8361 0.0
H1542 H 0.77513 0.76761 0.85685 0.0
H1543 H 0.73967 0.77563 0.87082 0.0
C1544 C 0.5014 0.42172 0.07982 0.0
C1545 C 0.48198 0.44242 0.06883 0.0
C1546 C 0.52779 0.43057 0.09172 0.0
C1547 C 0.53462 0.46034 0.09099 0.0
C1548 C 0.51781 0.47976 0.07394 0.0
C1549 C 0.49075 0.47077 0.06402 0.0
C1550 C 0.5454 0.40894 0.10897 0.0
C1551 C 0.52591 0.51116 0.07023 0.0
C1552 C 0.55029 0.51072 0.15032 0.0
C1553 C 0.57708 0.52091 0.14076 0.0
C1554 C 0.53839 0.48582 0.1378 0.0
C1555 C 0.55278 0.47301 0.11379 0.0
C1556 C 0.58162 0.48048 0.10729 0.0
C1557 C 0.59389 0.50395 0.12169 0.0
C1558 C 0.5084 0.47629 0.14695 0.0
C1559 C 0.59762 0.46764 0.08179 0.0
H1560 H 0.49419 0.39953 0.08319 0.0
H1561 H 0.47545 0.48649 0.05539 0.0
H1562 H 0.56812 0.41616 0.11236 0.0
H1563 H 0.53516 0.40589 0.13055 0.0
H1564 H 0.54551 0.38754 0.09794 0.0
H1565 H 0.52003 0.52346 0.09003 0.0
H1566 H 0.54958 0.51347 0.06656 0.0
H1567 H 0.51406 0.52073 0.05157 0.0
H1568 H 0.53774 0.52338 0.16562 0.0
H1569 H 0.61509 0.51135 0.1146 0.0
H1570 H 0.50621 0.45236 0.14562 0.0
H1571 H 0.49199 0.48619 0.13227 0.0
H1572 H 0.5035 0.48326 0.16948 0.0
H1573 H 0.59051 0.44516 0.07707 0.0
H1574 H 0.62145 0.46774 0.08563 0.0
H1575 H 0.59327 0.48109 0.06223 0.0
C1576 C 0.75639 0.344 0.37949 0.0
C1577 C 0.73918 0.32745 0.39865 0.0
C1578 C 0.78066 0.3317 0.36665 0.0
C1579 C 0.78824 0.30337 0.37498 0.0
C1580 C 0.77666 0.29119 0.40074 0.0
C1581 C 0.75058 0.30251 0.41142 0.0
C1582 C 0.79349 0.34603 0.3401 0.0
C1583 C 0.78789 0.26286 0.41265 0.0
C1584 C 0.78054 0.24132 0.324 0.0
C1585 C 0.80947 0.23377 0.32082 0.0
C1586 C 0.77335 0.26631 0.33907 0.0
C1587 C 0.79598 0.28309 0.35188 0.0
C1588 C 0.82529 0.27757 0.34501 0.0
C1589 C 0.83163 0.25321 0.32839 0.0
C1590 C 0.74153 0.2722 0.34437 0.0
C1591 C 0.85023 0.29513 0.35712 0.0
H1592 H 0.74834 0.3643 0.37063 0.0
H1593 H 0.73806 0.29056 0.42737 0.0
H1594 H 0.81739 0.34335 0.33972 0.0
H1595 H 0.78446 0.33565 0.32032 0.0
H1596 H 0.78831 0.36957 0.33918 0.0
H1597 H 0.78382 0.26127 0.43635 0.0
H1598 H 0.77644 0.2446 0.40191 0.0
H1599 H 0.81155 0.26057 0.40848 0.0
H1600 H 0.76373 0.22607 0.31768 0.0
H1601 H 0.85421 0.24712 0.32535 0.0
H1602 H 0.73693 0.29571 0.3429 0.0
H1603 H 0.73544 0.26441 0.3663 0.0
H1604 H 0.72742 0.2605 0.32878 0.0
H1605 H 0.85907 0.30915 0.33961 0.0
H1606 H 0.86814 0.2806 0.36429 0.0
H1607 H 0.84394 0.30911 0.3756 0.0
C1608 C 0.03876 0.56085 0.60353 0.0
C1609 C 0.03399 0.58607 0.58767 0.0
C1610 C 0.0157 0.54623 0.61591 0.0
C1611 C 0.98725 0.55732 0.61183 0.0
C1612 C 0.98244 0.58365 0.59686 0.0
C1613 C 0.00619 0.59779 0.58453 0.0
C1614 C 0.02179 0.51777 0.6313 0.0
C1615 C 0.95237 0.59628 0.59337 0.0
C1616 C 0.95084 0.48908 0.60122 0.0
C1617 C 0.94333 0.48238 0.62979 0.0
C1618 C 0.9597 0.51663 0.59371 0.0
C1619 C 0.96351 0.53708 0.61608 0.0
C1620 C 0.95334 0.53148 0.64447 0.0
C1621 C 0.94262 0.50385 0.65102 0.0
C1622 C 0.96906 0.52217 0.5627 0.0
C1623 C 0.95667 0.55352 0.66826 0.0
H1624 H 0.06065 0.55246 0.60608 0.0
H1625 H 1.00322 0.61824 0.57319 0.0
H1626 H 0.01062 0.51699 0.65255 0.0
H1627 H 0.01363 0.49948 0.61798 0.0
H1628 H 0.04538 0.51425 0.63509 0.0
H1629 H 0.9525 0.61681 0.58067 0.0
H1630 H 0.93779 0.58056 0.58242 0.0
H1631 H 0.943 0.60065 0.61507 0.0
H1632 H 0.94975 0.47262 0.58458 0.0
H1633 H 0.93473 0.49877 0.6726 0.0
H1634 H 0.99303 0.52004 0.5611 0.0
H1635 H 0.96306 0.54435 0.55556 0.0
H1636 H 0.95908 0.50639 0.54745 0.0
H1637 H 0.97993 0.55494 0.67438 0.0
H1638 H 0.9439 0.54766 0.68785 0.0
H1639 H 0.94987 0.57529 0.66048 0.0
C1640 C 0.74821 0.34659 0.64583 0.0
C1641 C 0.76405 0.33183 0.62426 0.0
C1642 C 0.72415 0.33368 0.65848 0.0
C1643 C 0.71566 0.30639 0.64818 0.0
C1644 C 0.72626 0.29606 0.62124 0.0
C1645 C 0.75189 0.30805 0.61027 0.0
C1646 C 0.7125 0.34583 0.68651 0.0
C1647 C 0.71419 0.26896 0.60757 0.0
C1648 C 0.72363 0.23863 0.68978 0.0
C1649 C 0.69478 0.22999 0.69083 0.0
C1650 C 0.73046 0.26651 0.6807 0.0
C1651 C 0.7078 0.28442 0.66967 0.0
C1652 C 0.67847 0.2771 0.67434 0.0
C1653 C 0.6723 0.24999 0.68621 0.0
C1654 C 0.76219 0.27482 0.67912 0.0
C1655 C 0.65362 0.29624 0.66458 0.0
H1656 H 0.75706 0.36583 0.65607 0.0
H1657 H 0.76341 0.29756 0.59268 0.0
H1658 H 0.68868 0.34267 0.6879 0.0
H1659 H 0.72268 0.33419 0.70507 0.0
H1660 H 0.71745 0.36931 0.68872 0.0
H1661 H 0.71789 0.26904 0.58376 0.0
H1662 H 0.72533 0.24969 0.61689 0.0
H1663 H 0.69054 0.26692 0.61189 0.0
H1664 H 0.7408 0.2229 0.69346 0.0
H1665 H 0.64984 0.24297 0.68763 0.0
H1666 H 0.76532 0.29816 0.68391 0.0
H1667 H 0.7706 0.27033 0.65704 0.0
H1668 H 0.77546 0.26202 0.69474 0.0
H1669 H 0.64748 0.31072 0.68274 0.0
H1670 H 0.63414 0.28317 0.65891 0.0
H1671 H 0.65937 0.31 0.64566 0.0
C1672 C 0.92051 0.49987 0.85651 0.0
C1673 C 0.93875 0.5241 0.86002 0.0
C1674 C 0.9312 0.47225 0.86283 0.0
C1675 C 0.96091 0.46953 0.8696 0.0
C1676 C 0.9803 0.49268 0.86321 0.0
C1677 C 0.96876 0.52032 0.85874 0.0
C1678 C 0.90982 0.44792 0.86758 0.0
C1679 C 0.01277 0.4898 0.867 0.0
C1680 C 0.9994 0.44939 0.93504 0.0
C1681 C 0.01819 0.42965 0.92221 0.0
C1682 C 0.97431 0.45775 0.92003 0.0
C1683 C 0.97048 0.44792 0.89107 0.0
C1684 C 0.98596 0.42362 0.88123 0.0
C1685 C 0.00956 0.41409 0.89758 0.0
C1686 C 0.95553 0.48128 0.9327 0.0
C1687 C 0.98199 0.41161 0.85119 0.0
H1688 H 0.89718 0.50282 0.85493 0.0
H1689 H 0.98307 0.53902 0.85928 0.0
H1690 H 0.92038 0.42635 0.86877 0.0
H1691 H 0.8981 0.45165 0.88827 0.0
H1692 H 0.89338 0.4478 0.8499 0.0
H1693 H 0.01843 0.49231 0.89028 0.0
H1694 H 0.02049 0.46826 0.85964 0.0
H1695 H 0.02454 0.50691 0.8547 0.0
H1696 H 0.00577 0.46051 0.95473 0.0
H1697 H 0.02403 0.39792 0.88842 0.0
H1698 H 0.93281 0.47944 0.9248 0.0
H1699 H 0.96414 0.50281 0.92611 0.0
H1700 H 0.95562 0.48024 0.95679 0.0
H1701 H 0.98301 0.3876 0.85219 0.0
H1702 H 1.00002 0.41933 0.8372 0.0
H1703 H 0.96119 0.41822 0.841 0.0
C1704 C 0.79981 0.74769 0.18027 0.0
C1705 C 0.82351 0.76361 0.17063 0.0
C1706 C 0.7908 0.7236 0.16432 0.0
C1707 C 0.80444 0.71798 0.13722 0.0
C1708 C 0.83161 0.73054 0.13089 0.0
C1709 C 0.84138 0.75297 0.14854 0.0
C1710 C 0.76338 0.70822 0.17348 0.0
C1711 C 0.84755 0.72493 0.10289 0.0
C1712 C 0.75581 0.67028 0.09496 0.0
C1713 C 0.73168 0.68901 0.09701 0.0
C1714 C 0.78245 0.67953 0.10617 0.0
C1715 C 0.78551 0.7091 0.11311 0.0
C1716 C 0.76418 0.72931 0.1036 0.0
C1717 C 0.73663 0.71885 0.09633 0.0
C1718 C 0.80412 0.65689 0.1159 0.0
C1719 C 0.76817 0.7616 0.10715 0.0
H1720 H 0.78665 0.75576 0.198 0.0
H1721 H 0.86035 0.76532 0.14191 0.0
H1722 H 0.76314 0.68546 0.16569 0.0
H1723 H 0.7611 0.70829 0.19748 0.0
H1724 H 0.74427 0.71969 0.16422 0.0
H1725 H 0.87128 0.72334 0.10709 0.0
H1726 H 0.84018 0.70494 0.0918 0.0
H1727 H 0.84412 0.74358 0.08795 0.0
H1728 H 0.75232 0.64715 0.09247 0.0
H1729 H 0.71845 0.73378 0.09565 0.0
H1730 H 0.79613 0.64664 0.13621 0.0
H1731 H 0.82593 0.66607 0.12032 0.0
H1732 H 0.80602 0.63953 0.09935 0.0
H1733 H 0.76177 0.768 0.12944 0.0
H1734 H 0.75419 0.77378 0.09167 0.0
H1735 H 0.79115 0.76799 0.10367 0.0
C1736 C 0.54041 0.49423 0.36404 0.0
C1737 C 0.56886 0.48509 0.36867 0.0
C1738 C 0.53069 0.51986 0.37686 0.0
C1739 C 0.54943 0.53469 0.39637 0.0
C1740 C 0.57914 0.52798 0.39753 0.0
C1741 C 0.58882 0.50379 0.3825 0.0
C1742 C 0.49927 0.52843 0.37304 0.0
C1743 C 0.59979 0.54277 0.41829 0.0
C1744 C 0.50689 0.59219 0.43176 0.0
C1745 C 0.48849 0.57383 0.44752 0.0
C1746 C 0.53047 0.58057 0.41694 0.0
C1747 C 0.53621 0.55073 0.42027 0.0
C1748 C 0.52203 0.53435 0.44217 0.0
C1749 C 0.49721 0.5459 0.4549 0.0
C1750 C 0.54504 0.59881 0.39393 0.0
C1751 C 0.52968 0.50307 0.44821 0.0
H1752 H 0.5253 0.48031 0.35255 0.0
H1753 H 0.61132 0.49745 0.38546 0.0
H1754 H 0.48624 0.51913 0.39104 0.0
H1755 H 0.49674 0.55237 0.37345 0.0
H1756 H 0.49033 0.52009 0.35227 0.0
H1757 H 0.6221 0.54353 0.40915 0.0
H1758 H 0.59286 0.56511 0.4238 0.0
H1759 H 0.60077 0.52999 0.43873 0.0
H1760 H 0.49988 0.6141 0.42654 0.0
H1761 H 0.48292 0.53209 0.46756 0.0
H1762 H 0.53174 0.59811 0.37381 0.0
H1763 H 0.56711 0.59086 0.38861 0.0
H1764 H 0.54647 0.62182 0.4009 0.0
H1765 H 0.51969 0.48901 0.43142 0.0
H1766 H 0.52144 0.49595 0.46973 0.0
H1767 H 0.55355 0.49988 0.44756 0.0
C1768 C 0.87572 0.75597 0.66629 0.0
C1769 C 0.88996 0.77363 0.6867 0.0
C1770 C 0.86178 0.73068 0.6751 0.0
C1771 C 0.86442 0.72215 0.70427 0.0
C1772 C 0.88421 0.73656 0.72308 0.0
C1773 C 0.89587 0.76308 0.71436 0.0
C1774 C 0.84092 0.71621 0.65436 0.0
C1775 C 0.88974 0.72638 0.75378 0.0
C1776 C 0.81066 0.70753 0.75958 0.0
C1777 C 0.82109 0.68051 0.7681 0.0
C1778 C 0.81998 0.71941 0.73339 0.0
C1779 C 0.84169 0.70442 0.71757 0.0
C1780 C 0.84757 0.67497 0.72337 0.0
C1781 C 0.83655 0.663 0.74882 0.0
C1782 C 0.81125 0.75015 0.72602 0.0
C1783 C 0.86998 0.65815 0.70653 0.0
H1784 H 0.87215 0.76355 0.64432 0.0
H1785 H 0.90776 0.77641 0.72968 0.0
H1786 H 0.83589 0.69354 0.66063 0.0
H1787 H 0.82023 0.7286 0.65404 0.0
H1788 H 0.84977 0.71645 0.63196 0.0
H1789 H 0.91007 0.73585 0.76271 0.0
H1790 H 0.87148 0.73324 0.76787 0.0
H1791 H 0.89144 0.70239 0.75482 0.0
H1792 H 0.79808 0.72051 0.77461 0.0
H1793 H 0.84396 0.6417 0.75573 0.0
H1794 H 0.81026 0.75338 0.70218 0.0
H1795 H 0.82757 0.76545 0.73498 0.0
H1796 H 0.78978 0.75568 0.73552 0.0
H1797 H 0.87046 0.66478 0.6834 0.0
H1798 H 0.86582 0.63444 0.70793 0.0
H1799 H 0.8918 0.66239 0.71592 0.0
C1800 C 0.585 0.57358 0.00775 0.0
C1801 C 0.56331 0.56907 0.02858 0.0
C1802 C 0.57776 0.58497 0.98065 0.0
C1803 C 0.54817 0.58957 0.97425 0.0
C1804 C 0.52622 0.57912 0.99322 0.0
C1805 C 0.53414 0.57051 0.021 0.0
C1806 C 0.60193 0.59563 0.96128 0.0
C1807 C 0.4942 0.58113 0.98615 0.0
C1808 C 0.50457 0.64988 0.94985 0.0
C1809 C 0.49184 0.63615 0.9262 0.0
C1810 C 0.52973 0.63804 0.96211 0.0
C1811 C 0.53947 0.61061 0.9521 0.0
C1812 C 0.53 0.59987 0.92523 0.0
C1813 C 0.50652 0.61345 0.91202 0.0
C1814 C 0.54222 0.65168 0.98907 0.0
C1815 C 0.53985 0.57085 0.91373 0.0
H1816 H 0.60773 0.5725 0.01398 0.0
H1817 H 0.51758 0.56773 0.03744 0.0
H1818 H 0.59457 0.60063 0.93891 0.0
H1819 H 0.61136 0.61566 0.97075 0.0
H1820 H 0.61958 0.57923 0.96034 0.0
H1821 H 0.48122 0.56611 0.99988 0.0
H1822 H 0.48639 0.60349 0.99035 0.0
H1823 H 0.49004 0.57587 0.96307 0.0
H1824 H 0.49383 0.66816 0.95996 0.0
H1825 H 0.49716 0.60342 0.89292 0.0
H1826 H 0.56581 0.64698 0.99103 0.0
H1827 H 0.53111 0.64265 0.00846 0.0
H1828 H 0.5389 0.67556 0.98893 0.0
H1829 H 0.53809 0.57013 0.88971 0.0
H1830 H 0.52556 0.55361 0.9227 0.0
H1831 H 0.5625 0.56582 0.92018 0.0
C1832 C 0.61761 0.24665 0.21786 0.0
C1833 C 0.62444 0.23706 0.19013 0.0
C1834 C 0.63062 0.27184 0.22855 0.0
C1835 C 0.65243 0.28573 0.2117 0.0
C1836 C 0.65601 0.27867 0.18232 0.0
C1837 C 0.64115 0.25477 0.17153 0.0
C1838 C 0.62429 0.28083 0.25935 0.0
C1839 C 0.67894 0.29278 0.1636 0.0
C1840 C 0.68653 0.33944 0.25979 0.0
C1841 C 0.70008 0.31952 0.27841 0.0
C1842 C 0.67369 0.32979 0.23417 0.0
C1843 C 0.67616 0.30016 0.2272 0.0
C1844 C 0.69612 0.28217 0.24235 0.0
C1845 C 0.70729 0.29194 0.26866 0.0
C1846 C 0.65334 0.3499 0.21813 0.0
C1847 C 0.70127 0.25095 0.23389 0.0
H1848 H 0.60402 0.23342 0.23182 0.0
H1849 H 0.64601 0.24787 0.1496 0.0
H1850 H 0.64106 0.27157 0.27403 0.0
H1851 H 0.62477 0.30479 0.26152 0.0
H1852 H 0.60271 0.27281 0.26659 0.0
H1853 H 0.67198 0.2933 0.14052 0.0
H1854 H 0.68409 0.31516 0.1707 0.0
H1855 H 0.69919 0.27975 0.1649 0.0
H1856 H 0.68155 0.36111 0.26752 0.0
H1857 H 0.71854 0.27699 0.28289 0.0
H1858 H 0.63209 0.35026 0.22948 0.0
H1859 H 0.64954 0.3429 0.19546 0.0
H1860 H 0.66202 0.37239 0.21806 0.0
H1861 H 0.68296 0.23737 0.24174 0.0
H1862 H 0.72164 0.24238 0.24365 0.0
H1863 H 0.70253 0.2487 0.20998 0.0
C1864 C 0.00914 0.37252 0.41678 0.0
C1865 C 0.02707 0.36064 0.43859 0.0
C1866 C 0.98324 0.38634 0.42402 0.0
C1867 C 0.97441 0.38596 0.45319 0.0
C1868 C 0.98911 0.36806 0.47369 0.0
C1869 C 0.01616 0.35655 0.46639 0.0
C1870 C 0.96822 0.40471 0.40134 0.0
C1871 C 0.97865 0.36459 0.50455 0.0
C1872 C 0.96065 0.44363 0.50415 0.0
C1873 C 0.93443 0.43307 0.51462 0.0
C1874 C 0.97152 0.43279 0.47817 0.0
C1875 C 0.95646 0.40964 0.46453 0.0
C1876 C 0.92735 0.40375 0.47187 0.0
C1877 C 0.91638 0.41599 0.49719 0.0
C1878 C 1.00161 0.44169 0.4689 0.0
C1879 C 0.91017 0.38026 0.45695 0.0
H1880 H 0.01687 0.37445 0.39468 0.0
H1881 H 0.02956 0.34626 0.48285 0.0
H1882 H 0.9453 0.4094 0.40691 0.0
H1883 H 0.97983 0.42572 0.39928 0.0
H1884 H 0.969 0.39394 0.37982 0.0
H1885 H 0.9888 0.34549 0.51529 0.0
H1886 H 0.98454 0.38417 0.51721 0.0
H1887 H 0.95472 0.36195 0.50529 0.0
H1888 H 0.974 0.45751 0.51769 0.0
H1889 H 0.8956 0.4086 0.50553 0.0
H1890 H 1.00302 0.44253 0.44493 0.0
H1891 H 0.01764 0.42554 0.47692 0.0
H1892 H 0.00765 0.46327 0.47778 0.0
H1893 H 0.91462 0.37992 0.43334 0.0
H1894 H 0.88646 0.38308 0.46044 0.0
H1895 H 0.91662 0.35886 0.466 0.0
C1896 C 0.81799 0.29963 0.75433 0.0
C1897 C 0.82538 0.32521 0.74015 0.0
C1898 C 0.83494 0.29009 0.77763 0.0
C1899 C 0.86097 0.30536 0.78429 0.0
C1900 C 0.86558 0.33344 0.77301 0.0
C1901 C 0.84658 0.34367 0.75176 0.0
C1902 C 0.82762 0.26131 0.79152 0.0
C1903 C 0.89287 0.35066 0.7789 0.0
C1904 C 0.90509 0.26315 0.8369 0.0
C1905 C 0.90641 0.23793 0.81972 0.0
C1906 C 0.8915 0.28777 0.82555 0.0
C1907 C 0.88569 0.2885 0.79554 0.0
C1908 C 0.898 0.26714 0.77715 0.0
C1909 C 0.90765 0.24117 0.78964 0.0
C1910 C 0.87839 0.30932 0.84638 0.0
C1911 C 0.89565 0.26917 0.74456 0.0
H1912 H 0.8012 0.28573 0.7454 0.0
H1913 H 0.8518 0.3638 0.74059 0.0
H1914 H 0.83539 0.26034 0.81431 0.0
H1915 H 0.8038 0.25738 0.79113 0.0
H1916 H 0.83817 0.24356 0.77919 0.0
H1917 H 0.88748 0.37401 0.78149 0.0
H1918 H 0.90487 0.34313 0.79837 0.0
H1919 H 0.90757 0.34882 0.75991 0.0
H1920 H 0.9071 0.26135 0.86029 0.0
H1921 H 0.91116 0.22239 0.77598 0.0
H1922 H 0.85739 0.30054 0.85435 0.0
H1923 H 0.87399 0.33065 0.83613 0.0
H1924 H 0.89275 0.31246 0.8655 0.0
H1925 H 0.87438 0.2603 0.73747 0.0
H1926 H 0.91301 0.25626 0.73394 0.0
H1927 H 0.89717 0.29205 0.7371 0.0
C1928 C 0.91561 0.6168 1.00313 0.0
C1929 C 0.92908 0.58995 0.99829 0.0
C1930 C 0.92507 0.63434 0.02578 0.0
C1931 C 0.94797 0.62414 0.04318 0.0
C1932 C 0.95472 0.59409 0.04345 0.0
C1933 C 0.94606 0.5772 0.01979 0.0
C1934 C 0.91532 0.66547 0.02677 0.0
C1935 C 0.97575 0.58143 0.06511 0.0
C1936 C 0.02259 0.65361 0.03782 0.0
C1937 C 0.02735 0.6583 0.06727 0.0
C1938 C 0.99478 0.64627 0.02833 0.0
C1939 C 0.972 0.64429 0.04911 0.0
C1940 C 0.97567 0.65659 0.07683 0.0
C1941 C 1.00356 0.66529 0.08502 0.0
C1942 C 0.9913 0.63611 0.99738 0.0
C1943 C 0.95158 0.65778 0.09899 0.0
H1944 H 0.90112 0.62586 0.98682 0.0
H1945 H 0.95507 0.55571 0.01661 0.0
H1946 H 0.91845 0.67501 0.04861 0.0
H1947 H 0.92804 0.67837 0.01085 0.0
H1948 H 0.89207 0.66695 0.02074 0.0
H1949 H 0.97115 0.55804 0.0688 0.0
H1950 H 0.99819 0.58337 0.05655 0.0
H1951 H 0.97456 0.5931 0.08612 0.0
H1952 H 0.04091 0.65036 0.02342 0.0
H1953 H 0.0073 0.6716 0.10731 0.0
H1954 H 0.97034 0.64352 0.98811 0.0
H1955 H 0.992 0.61206 0.99673 0.0
H1956 H 0.00909 0.6443 0.98331 0.0
H1957 H 0.94337 0.68039 0.10016 0.0
H1958 H 0.95993 0.65199 0.12089 0.0
H1959 H 0.93304 0.64335 0.09372 0.0
C1960 C 0.69319 0.71758 0.25325 0.0
C1961 C 0.68604 0.69255 0.23819 0.0
C1962 C 0.67767 0.7246 0.27825 0.0
C1963 C 0.65308 0.70746 0.28579 0.0
C1964 C 0.64908 0.67992 0.27325 0.0
C1965 C 0.66667 0.67227 0.25001 0.0
C1966 C 0.6846 0.75273 0.29344 0.0
C1967 C 0.62356 0.66063 0.28039 0.0
C1968 C 0.61227 0.74546 0.34299 0.0
C1969 C 0.60834 0.77113 0.32676 0.0
C1970 C 0.62509 0.72156 0.32969 0.0
C1971 C 0.62835 0.72223 0.29934 0.0
C1972 C 0.61378 0.74376 0.28273 0.0
C1973 C 0.60458 0.76896 0.29679 0.0
C1974 C 0.64008 0.69932 0.34862 0.0
C1975 C 0.61344 0.74303 0.25001 0.0
H1976 H 0.7087 0.73279 0.24414 0.0
H1977 H 0.66175 0.65254 0.23813 0.0
H1978 H 0.67184 0.77057 0.28342 0.0
H1979 H 0.67904 0.7515 0.31683 0.0
H1980 H 0.708 0.75825 0.29124 0.0
H1981 H 0.63069 0.63764 0.28162 0.0
H1982 H 0.61262 0.6665 0.30094 0.0
H1983 H 0.6074 0.66218 0.2626 0.0
H1984 H 0.61222 0.74624 0.36652 0.0
H1985 H 0.59913 0.78804 0.28408 0.0
H1986 H 0.66036 0.70896 0.35742 0.0
H1987 H 0.64597 0.67931 0.33675 0.0
H1988 H 0.62609 0.69351 0.36736 0.0
H1989 H 0.63371 0.75301 0.24158 0.0
H1990 H 0.59479 0.75561 0.24124 0.0
H1991 H 0.61218 0.7204 0.24193 0.0
C1992 C 0.55602 0.43588 0.50773 0.0
C1993 C 0.57392 0.42425 0.48652 0.0
C1994 C 0.55025 0.41951 0.53267 0.0
C1995 C 0.56077 0.39051 0.53416 0.0
C1996 C 0.5839 0.38192 0.5162 0.0
C1997 C 0.59074 0.39952 0.49255 0.0
C1998 C 0.52826 0.43088 0.554 0.0
C1999 C 0.59683 0.35188 0.51777 0.0
C2000 C 0.51158 0.35288 0.58495 0.0
C2001 C 0.48646 0.35592 0.56775 0.0
C2002 C 0.5386 0.36042 0.57343 0.0
C2003 C 0.53999 0.36823 0.5439 0.0
C2004 C 0.51616 0.36194 0.52525 0.0
C2005 C 0.4892 0.35582 0.53764 0.0
C2006 C 0.56373 0.36496 0.59395 0.0
C2007 C 0.51737 0.36732 0.49293 0.0
H2008 H 0.54409 0.45573 0.50344 0.0
H2009 H 0.60567 0.39138 0.47627 0.0
H2010 H 0.50616 0.42399 0.54722 0.0
H2011 H 0.53251 0.42226 0.5761 0.0
H2012 H 0.52864 0.45498 0.55471 0.0
H2013 H 0.62024 0.35245 0.51197 0.0
H2014 H 0.59437 0.342 0.53958 0.0
H2015 H 0.5857 0.33769 0.5018 0.0
H2016 H 0.5096 0.35049 0.60828 0.0
H2017 H 0.46992 0.35609 0.52407 0.0
H2018 H 0.55993 0.38502 0.60668 0.0
H2019 H 0.58479 0.36713 0.58253 0.0
H2020 H 0.56507 0.34664 0.60962 0.0
H2021 H 0.51459 0.39085 0.48854 0.0
H2022 H 0.4997 0.35563 0.48139 0.0
H2023 H 0.53849 0.36032 0.48381 0.0
C2024 C 0.76363 0.80658 0.67782 0.0
C2025 C 0.79152 0.81679 0.68416 0.0
C2026 C 0.74003 0.81531 0.69474 0.0
C2027 C 0.74506 0.83469 0.7179 0.0
C2028 C 0.77351 0.84441 0.72453 0.0
C2029 C 0.79645 0.83478 0.7078 0.0
C2030 C 0.70993 0.80488 0.68702 0.0
C2031 C 0.77994 0.86515 0.74917 0.0
C2032 C 0.69942 0.88452 0.76027 0.0
C2033 C 0.70346 0.87137 0.78732 0.0
C2034 C 0.7091 0.87058 0.7352 0.0
C2035 C 0.72191 0.84279 0.73785 0.0
C2036 C 0.72132 0.82771 0.76448 0.0
C2037 C 0.7135 0.84278 0.78924 0.0
C2038 C 0.70899 0.88689 0.70678 0.0
C2039 C 0.73312 0.79726 0.76756 0.0
H2040 H 0.76007 0.79319 0.65884 0.0
H2041 H 0.81824 0.84228 0.71252 0.0
H2042 H 0.69675 0.80053 0.70669 0.0
H2043 H 0.69867 0.82197 0.67425 0.0
H2044 H 0.71066 0.78489 0.67362 0.0
H2045 H 0.80297 0.87236 0.7494 0.0
H2046 H 0.766 0.88472 0.74748 0.0
H2047 H 0.77532 0.85447 0.77025 0.0
H2048 H 0.69038 0.90623 0.75896 0.0
H2049 H 0.71592 0.8323 0.81015 0.0
H2050 H 0.70401 0.8721 0.6885 0.0
H2051 H 0.73088 0.89625 0.70296 0.0
H2052 H 0.69296 0.90492 0.70686 0.0
H2053 H 0.72719 0.78387 0.74848 0.0
H2054 H 0.72487 0.7865 0.7875 0.0
H2055 H 0.75719 0.7981 0.76893 0.0
C2056 C 0.17151 0.64598 0.25634 0.0
C2057 C 0.17787 0.61973 0.24252 0.0
C2058 C 0.18524 0.65333 0.28198 0.0
C2059 C 0.20472 0.63315 0.29422 0.0
C2060 C 0.20574 0.60427 0.28392 0.0
C2061 C 0.19334 0.59808 0.25689 0.0
C2062 C 0.18324 0.68435 0.29244 0.0
C2063 C 0.22352 0.58147 0.29919 0.0
C2064 C 0.27859 0.6657 0.30008 0.0
C2065 C 0.27908 0.67381 0.32903 0.0
C2066 C 0.25453 0.65176 0.28872 0.0
C2067 C 0.23087 0.64515 0.30738 0.0
C2068 C 0.23132 0.65351 0.33685 0.0
C2069 C 0.25553 0.66836 0.3473 0.0
C2070 C 0.25474 0.64437 0.25672 0.0
C2071 C 0.20686 0.64685 0.35759 0.0
H2072 H 0.15804 0.66201 0.24559 0.0
H2073 H 0.19683 0.57724 0.24664 0.0
H2074 H 0.18004 0.68493 0.31623 0.0
H2075 H 0.20381 0.69593 0.28744 0.0
H2076 H 0.16514 0.69639 0.28189 0.0
H2077 H 0.21451 0.55954 0.29492 0.0
H2078 H 0.24616 0.58207 0.29101 0.0
H2079 H 0.22402 0.58536 0.32297 0.0
H2080 H 0.29741 0.66978 0.2865 0.0
H2081 H 0.25674 0.67416 0.37008 0.0
H2082 H 0.23505 0.65304 0.24585 0.0
H2083 H 0.25501 0.62049 0.2539 0.0
H2084 H 0.27404 0.65333 0.24535 0.0
H2085 H 0.19537 0.6673 0.36304 0.0
H2086 H 0.21577 0.63807 0.37824 0.0
H2087 H 0.19092 0.63112 0.34877 0.0
C2088 C 0.57148 1.00148 0.54998 0.0
C2089 C 0.58186 0.02194 0.56943 0.0
C2090 C 0.58818 0.97681 0.54437 0.0
C2091 C 0.61656 0.97494 0.55663 0.0
C2092 C 0.62385 0.99225 0.58068 0.0
C2093 C 0.60565 0.01542 0.58742 0.0
C2094 C 0.57792 0.95631 0.52105 0.0
C2095 C 0.65314 0.99043 0.59534 0.0
C2096 C 0.65121 0.92302 0.50851 0.0
C2097 C 0.64795 0.94041 0.48357 0.0
C2098 C 0.64589 0.93492 0.53578 0.0
C2099 C 0.63991 0.96481 0.53736 0.0
C2100 C 0.64697 0.98308 0.51349 0.0
C2101 C 0.65028 0.97045 0.48617 0.0
C2102 C 0.64068 0.91465 0.56097 0.0
C2103 C 0.64435 0.01567 0.51523 0.0
H2104 H 0.55243 0.00621 0.53694 0.0
H2105 H 0.61285 0.03119 0.60336 0.0
H2106 H 0.58603 0.96385 0.49966 0.0
H2107 H 0.58607 0.934 0.525 0.0
H2108 H 0.55381 0.95573 0.51996 0.0
H2109 H 0.65098 0.99459 0.61897 0.0
H2110 H 0.66376 0.96911 0.59209 0.0
H2111 H 0.66757 0.00749 0.58631 0.0
H2112 H 0.65189 0.8996 0.50651 0.0
H2113 H 0.64984 0.98408 0.46695 0.0
H2114 H 0.61979 0.90308 0.55759 0.0
H2115 H 0.63965 0.92617 0.58201 0.0
H2116 H 0.6581 0.898 0.56194 0.0
H2117 H 0.62132 0.02205 0.51194 0.0
H2118 H 0.65746 0.0264 0.49806 0.0
H2119 H 0.65158 0.02376 0.5367 0.0
C2120 C 0.34126 0.40488 0.7575 0.0
C2121 C 0.32394 0.40472 0.73228 0.0
C2122 C 0.33012 0.39317 0.7831 0.0
C2123 C 0.30033 0.38628 0.78395 0.0
C2124 C 0.28154 0.39635 0.76162 0.0
C2125 C 0.29378 0.40503 0.73529 0.0
C2126 C 0.35125 0.38339 0.80623 0.0
C2127 C 0.249 0.39251 0.76326 0.0
C2128 C 0.26068 0.31897 0.79814 0.0
C2129 C 0.24431 0.3286 0.82149 0.0
C2130 C 0.2847 0.33524 0.78923 0.0
C2131 C 0.28983 0.36256 0.80252 0.0
C2132 C 0.27645 0.36937 0.82903 0.0
C2133 C 0.25414 0.35152 0.83881 0.0
C2134 C 0.30107 0.32576 0.76259 0.0
C2135 C 0.28123 0.39797 0.84398 0.0
H2136 H 0.36463 0.40741 0.75569 0.0
H2137 H 0.28 0.40707 0.7163 0.0
H2138 H 0.34057 0.37699 0.82678 0.0
H2139 H 0.36355 0.36436 0.79807 0.0
H2140 H 0.36726 0.40086 0.8107 0.0
H2141 H 0.23764 0.40782 0.74842 0.0
H2142 H 0.24321 0.37012 0.75658 0.0
H2143 H 0.24101 0.39594 0.78569 0.0
H2144 H 0.2532 0.30074 0.78532 0.0
H2145 H 0.24132 0.35839 0.85733 0.0
H2146 H 0.32392 0.33344 0.76327 0.0
H2147 H 0.29048 0.33502 0.74298 0.0
H2148 H 0.30091 0.30174 0.76051 0.0
H2149 H 0.27776 0.39564 0.8677 0.0
H2150 H 0.26529 0.4139 0.8354 0.0
H2151 H 0.30323 0.40687 0.84014 0.0
C2152 C 0.40778 0.50369 0.59258 0.0
C2153 C 0.42955 0.49392 0.57374 0.0
C2154 C 0.39035 0.52712 0.5847 0.0
C2155 C 0.39597 0.54098 0.55809 0.0
C2156 C 0.42238 0.53551 0.5431 0.0
C2157 C 0.4384 0.51081 0.5504 0.0
C2158 C 0.36334 0.53355 0.60197 0.0
C2159 C 0.43097 0.55247 0.51643 0.0
C2160 C 0.35179 0.54555 0.49267 0.0
C2161 C 0.35385 0.57549 0.48881 0.0
C2162 C 0.35991 0.53347 0.51928 0.0
C2163 C 0.37142 0.5521 0.54093 0.0
C2164 C 0.36613 0.58215 0.53941 0.0
C2165 C 0.35498 0.59338 0.51352 0.0
C2166 C 0.36191 0.50087 0.52176 0.0
C2167 C 0.37586 0.60276 0.56294 0.0
H2168 H 0.40167 0.4905 0.61115 0.0
H2169 H 0.45583 0.50337 0.53647 0.0
H2170 H 0.36042 0.55729 0.60433 0.0
H2171 H 0.3441 0.52497 0.59028 0.0
H2172 H 0.36408 0.52347 0.62389 0.0
H2173 H 0.45487 0.55176 0.51314 0.0
H2174 H 0.42049 0.54276 0.49704 0.0
H2175 H 0.42401 0.57545 0.51808 0.0
H2176 H 0.34873 0.53153 0.47408 0.0
H2177 H 0.35345 0.61675 0.51112 0.0
H2178 H 0.35869 0.49362 0.54449 0.0
H2179 H 0.38374 0.49364 0.51457 0.0
H2180 H 0.34549 0.49015 0.50772 0.0
H2181 H 0.35885 0.60365 0.57993 0.0
H2182 H 0.379 0.62512 0.55445 0.0
H2183 H 0.39639 0.5956 0.57339 0.0
C2184 C 0.74581 0.14732 0.16574 0.0
C2185 C 0.7411 0.17359 0.18045 0.0
C2186 C 0.76887 0.12942 0.17396 0.0
C2187 C 0.7872 0.13904 0.19637 0.0
C2188 C 0.78765 0.16893 0.20367 0.0
C2189 C 0.7634 0.18593 0.19665 0.0
C2190 C 0.76966 0.09838 0.16379 0.0
C2191 C 0.81036 0.18114 0.22374 0.0
C2192 C 0.78493 0.10646 0.27023 0.0
C2193 C 0.81456 0.10152 0.27396 0.0
C2194 C 0.77451 0.11525 0.24315 0.0
C2195 C 0.79444 0.1183 0.21974 0.0
C2196 C 0.82246 0.10618 0.22206 0.0
C2197 C 0.83191 0.09665 0.24934 0.0
C2198 C 0.74333 0.12529 0.24115 0.0
C2199 C 0.84358 0.10571 0.19706 0.0
H2200 H 0.72886 0.13858 0.15187 0.0
H2201 H 0.76036 0.20697 0.20668 0.0
H2202 H 0.7924 0.09145 0.1599 0.0
H2203 H 0.76066 0.08414 0.18102 0.0
H2204 H 0.75671 0.09522 0.14367 0.0
H2205 H 0.81364 0.20466 0.21948 0.0
H2206 H 0.80304 0.17857 0.24654 0.0
H2207 H 0.83137 0.16961 0.22112 0.0
H2208 H 0.77096 0.10843 0.28905 0.0
H2209 H 0.85452 0.09059 0.25205 0.0
H2210 H 0.73328 0.11811 0.22052 0.0
H2211 H 0.74254 0.14932 0.24213 0.0
H2212 H 0.73002 0.11678 0.25936 0.0
H2213 H 0.84526 0.08313 0.18892 0.0
H2214 H 0.8656 0.11228 0.20445 0.0
H2215 H 0.83697 0.11989 0.17872 0.0
C2216 C 0.57655 0.00979 0.91544 0.0
C2217 C 0.56282 0.98949 0.9334 0.0
C2218 C 0.59153 0.03304 0.92775 0.0
C2219 C 0.59135 0.03582 0.9582 0.0
C2220 C 0.57249 0.01855 0.97533 0.0
C2221 C 0.55811 0.99543 0.96246 0.0
C2222 C 0.61089 0.05128 0.90865 0.0
C2223 C 0.57084 0.0215 0.00781 0.0
C2224 C 0.65 0.04599 0.01142 0.0
C2225 C 0.64076 0.0721 0.02336 0.0
C2226 C 0.6377 0.03636 0.98537 0.0
C2227 C 0.61415 0.05217 0.97317 0.0
C2228 C 0.60769 0.08026 0.98297 0.0
C2229 C 0.62193 0.09036 0.00753 0.0
C2230 C 0.64659 0.00718 0.97363 0.0
C2231 C 0.5824 0.09752 0.97107 0.0
H2232 H 0.5798 0.0049 0.89265 0.0
H2233 H 0.54704 0.97949 0.97586 0.0
H2234 H 0.61529 0.07292 0.91812 0.0
H2235 H 0.63198 0.03996 0.90584 0.0
H2236 H 0.60102 0.05414 0.88681 0.0
H2237 H 0.59189 0.01547 0.01791 0.0
H2238 H 0.56593 0.04427 0.0137 0.0
H2239 H 0.554 0.00693 0.01689 0.0
H2240 H 0.66518 0.03238 0.02325 0.0
H2241 H 0.61526 0.11111 0.01628 0.0
H2242 H 0.64585 0.00718 0.94956 0.0
H2243 H 0.63127 0.99034 0.98157 0.0
H2244 H 0.66882 1.00116 0.98088 0.0
H2245 H 0.57881 0.09334 0.94767 0.0
H2246 H 0.58568 0.12116 0.97435 0.0
H2247 H 0.56236 0.09111 0.98284 0.0
C2248 C 0.92592 0.0042 0.41135 0.0
C2249 C 0.94484 0.02049 0.42867 0.0
C2250 C 0.91096 0.98082 0.42333 0.0
C2251 C 0.9171 0.97303 0.45228 0.0
C2252 C 0.94152 0.98496 0.46678 0.0
C2253 C 0.95459 0.00965 0.45512 0.0
C2254 C 0.88513 0.96884 0.40709 0.0
C2255 C 0.95043 0.97507 0.49673 0.0
C2256 C 0.86374 0.96781 0.51242 0.0
C2257 C 0.86607 0.93837 0.51889 0.0
C2258 C 0.87681 0.97884 0.48738 0.0
C2259 C 0.89418 0.96012 0.47017 0.0
C2260 C 0.8935 0.92997 0.4746 0.0
C2261 C 0.87778 0.91926 0.49805 0.0
C2262 C 0.8752 0.01107 0.48163 0.0
C2263 C 0.91218 0.90943 0.45713 0.0
H2264 H 0.91884 0.01284 0.39056 0.0
H2265 H 0.96977 0.02213 0.46803 0.0
H2266 H 0.88005 0.94628 0.41359 0.0
H2267 H 0.8658 0.98241 0.41189 0.0
H2268 H 0.88884 0.96956 0.38328 0.0
H2269 H 0.97334 0.98104 0.50143 0.0
H2270 H 0.93638 0.98568 0.51312 0.0
H2271 H 0.94795 0.95123 0.49906 0.0
H2272 H 0.85396 0.98243 0.528 0.0
H2273 H 0.87861 0.89611 0.50219 0.0
H2274 H 0.87354 0.01556 0.45802 0.0
H2275 H 0.89523 0.02165 0.48986 0.0
H2276 H 0.85627 0.02107 0.49268 0.0
H2277 H 0.90436 0.90859 0.43442 0.0
H2278 H 0.91195 0.887 0.46605 0.0
H2279 H 0.93504 0.9171 0.45665 0.0
C2280 C 0.11557 0.30192 0.45508 0.0
C2281 C 0.14436 0.31103 0.4491 0.0
C2282 C 0.10857 0.28076 0.47692 0.0
C2283 C 0.13055 0.26795 0.49477 0.0
C2284 C 0.15966 0.27736 0.48913 0.0
C2285 C 0.16614 0.29798 0.46649 0.0
C2286 C 0.07731 0.27171 0.48055 0.0
C2287 C 0.18431 0.26545 0.50711 0.0
C2288 C 0.10986 0.23125 0.56974 0.0
C2289 C 0.10887 0.20121 0.56365 0.0
C2290 C 0.11631 0.25274 0.54794 0.0
C2291 C 0.12317 0.24479 0.51873 0.0
C2292 C 0.12268 0.21436 0.51271 0.0
C2293 C 0.11533 0.19344 0.53468 0.0
C2294 C 0.11571 0.28431 0.5563 0.0
C2295 C 0.12994 0.20364 0.48272 0.0
H2296 H 0.0982 0.31078 0.44189 0.0
H2297 H 0.18852 0.30414 0.46265 0.0
H2298 H 0.07521 0.24803 0.47675 0.0
H2299 H 0.07012 0.27592 0.50311 0.0
H2300 H 0.06253 0.28333 0.46538 0.0
H2301 H 0.20537 0.27597 0.50185 0.0
H2302 H 0.17974 0.26857 0.53052 0.0
H2303 H 0.18636 0.24177 0.50337 0.0
H2304 H 0.10528 0.23812 0.59171 0.0
H2305 H 0.11522 0.17059 0.5292 0.0
H2306 H 0.09944 0.29601 0.54285 0.0
H2307 H 0.13717 0.29437 0.55193 0.0
H2308 H 0.11023 0.28745 0.57954 0.0
H2309 H 0.11235 0.20998 0.46747 0.0
H2310 H 0.13246 0.17968 0.48205 0.0
H2311 H 0.15033 0.21378 0.47484 0.0
C2312 C 0.05965 0.85414 0.7822 0.0
C2313 C 0.05524 0.85673 0.81247 0.0
C2314 C 0.03798 0.8619 0.761 0.0
C2315 C 0.00977 0.87182 0.76936 0.0
C2316 C 0.005 0.87397 0.79997 0.0
C2317 C 0.02754 0.86724 0.82069 0.0
C2318 C 0.04618 0.85974 0.72943 0.0
C2319 C 0.97564 0.88317 0.81103 0.0
C2320 C 0.96071 0.91438 0.71268 0.0
C2321 C 0.94204 0.89296 0.70088 0.0
C2322 C 0.98187 0.90813 0.73492 0.0
C2323 C 0.98557 0.87947 0.74643 0.0
C2324 C 0.96693 0.85779 0.73446 0.0
C2325 C 0.9458 0.86467 0.71248 0.0
C2326 C 1.00117 0.93231 0.74544 0.0
C2327 C 0.9699 0.82673 0.74432 0.0
H2328 H 0.08072 0.84682 0.77483 0.0
H2329 H 0.0232 0.86981 0.84364 0.0
H2330 H 0.0527 0.83711 0.72447 0.0
H2331 H 0.02864 0.86613 0.71422 0.0
H2332 H 0.06516 0.87397 0.72521 0.0
H2333 H 0.97487 0.88406 0.83509 0.0
H2334 H 0.9699 0.90483 0.80217 0.0
H2335 H 0.95886 0.86767 0.80334 0.0
H2336 H 0.95906 0.93628 0.70426 0.0
H2337 H 0.93261 0.84736 0.70375 0.0
H2338 H 0.02395 0.92774 0.73904 0.0
H2339 H 1.00063 0.93351 0.76947 0.0
H2340 H 0.9947 0.95372 0.73636 0.0
H2341 H 0.99185 0.81858 0.73861 0.0
H2342 H 0.9534 0.81233 0.73423 0.0
H2343 H 0.9678 0.8254 0.76827 0.0
C2344 C 0.41648 0.78467 0.05513 0.0
C2345 C 0.39474 0.80351 0.06582 0.0
C2346 C 0.41074 0.76293 0.03352 0.0
C2347 C 0.38268 0.76001 0.02039 0.0
C2348 C 0.36086 0.77951 0.03063 0.0
C2349 C 0.36688 0.80016 0.05315 0.0
C2350 C 0.43505 0.74295 0.02468 0.0
C2351 C 0.33093 0.77902 0.01731 0.0
C2352 C 0.37485 0.72204 0.94404 0.0
C2353 C 0.36326 0.69429 0.95032 0.0
C2354 C 0.38123 0.7431 0.96608 0.0
C2355 C 0.37621 0.73708 0.9961 0.0
C2356 C 0.36469 0.70894 1.00255 0.0
C2357 C 0.35849 0.68826 0.98002 0.0
C2358 C 0.39322 0.77218 0.95704 0.0
C2359 C 0.35902 0.70045 0.03362 0.0
H2360 H 0.4382 0.78661 0.06403 0.0
H2361 H 0.34967 0.81453 0.06023 0.0
H2362 H 0.42762 0.72004 0.02532 0.0
H2363 H 0.44161 0.74782 1.00205 0.0
H2364 H 0.45441 0.7452 0.03893 0.0
H2365 H 0.31669 0.79637 0.02605 0.0
H2366 H 0.33252 0.78174 0.99342 0.0
H2367 H 0.32053 0.75771 0.02145 0.0
H2368 H 0.37909 0.72738 0.92153 0.0
H2369 H 0.34986 0.66715 0.98579 0.0
H2370 H 0.41391 0.77659 0.96858 0.0
H2371 H 0.37772 0.78955 0.96317 0.0
H2372 H 0.39724 0.77351 0.93332 0.0
H2373 H 0.37934 0.70245 0.04647 0.0
H2374 H 0.35075 0.6779 0.03563 0.0
H2375 H 0.34289 0.71544 0.0433 0.0
C2376 C 0.48168 0.15615 0.3182 0.0
C2377 C 0.45266 0.14643 0.31565 0.0
C2378 C 0.50369 0.14934 0.29711 0.0
C2379 C 0.49729 0.13256 0.27177 0.0
C2380 C 0.46783 0.12303 0.26903 0.0
C2381 C 0.44647 0.12961 0.29074 0.0
C2382 C 0.53419 0.16008 0.3022 0.0
C2383 C 0.45845 0.10549 0.24308 0.0
C2384 C 0.55011 0.13868 0.20453 0.0
C2385 C 0.56547 0.11204 0.2041 0.0
C2386 C 0.52794 0.14514 0.22544 0.0
C2387 C 0.52101 0.12538 0.24835 0.0
C2388 C 0.53677 0.09857 0.24826 0.0
C2389 C 0.55791 0.09207 0.22619 0.0
C2390 C 0.51116 0.17309 0.22236 0.0
C2391 C 0.53141 0.07653 0.27184 0.0
H2392 H 0.48739 0.16897 0.33703 0.0
H2393 H 0.42451 0.12154 0.28802 0.0
H2394 H 0.54987 0.14191 0.30011 0.0
H2395 H 0.53986 0.1765 0.28552 0.0
H2396 H 0.53682 0.17006 0.32395 0.0
H2397 H 0.43474 0.10761 0.23908 0.0
H2398 H 0.47018 0.11218 0.22315 0.0
H2399 H 0.46327 0.08225 0.2472 0.0
H2400 H 0.55483 0.15445 0.1877 0.0
H2401 H 0.56906 0.07137 0.22667 0.0
H2402 H 0.51503 0.18705 0.24152 0.0
H2403 H 0.48751 0.16839 0.22151 0.0
H2404 H 0.51729 0.18538 0.20252 0.0
H2405 H 0.53342 0.08693 0.29344 0.0
H2406 H 0.5468 0.058 0.27073 0.0
H2407 H 0.50895 0.06803 0.26996 0.0
C2408 C 0.14284 0.79684 0.95497 0.0
C2409 C 0.11503 0.799 0.94194 0.0
C2410 C 0.14938 0.77639 0.97766 0.0
C2411 C 0.1282 0.75602 0.9877 0.0
C2412 C 0.10025 0.75781 0.97422 0.0
C2413 C 0.09396 0.77926 0.95242 0.0
C2414 C 0.17907 0.77715 0.9915 0.0
C2415 C 0.07661 0.73694 0.98297 0.0
C2416 C 0.15326 0.68453 0.0282 0.0
C2417 C 0.14778 0.69014 0.05781 0.0
C2418 C 0.14731 0.70542 0.0057 0.0
C2419 C 0.13509 0.73323 0.01208 0.0
C2420 C 0.12935 0.73884 0.04202 0.0
C2421 C 0.13576 0.71769 0.06406 0.0
C2422 C 0.15406 0.69754 0.97475 0.0
C2423 C 0.11663 0.76759 0.05106 0.0
H2424 H 0.15947 0.81202 0.94812 0.0
H2425 H 0.07227 0.78039 0.9433 0.0
H2426 H 0.17692 0.78054 0.01523 0.0
H2427 H 0.19016 0.75603 0.98836 0.0
H2428 H 0.19297 0.79464 0.9824 0.0
H2429 H 0.0569 0.73916 0.96919 0.0
H2430 H 0.08463 0.71428 0.9815 0.0
H2431 H 0.07043 0.74081 0.00588 0.0
H2432 H 0.16234 0.66363 0.0225 0.0
H2433 H 0.13111 0.72275 0.08653 0.0
H2434 H 0.17022 0.71296 0.96573 0.0
H2435 H 0.13412 0.69939 0.96128 0.0
H2436 H 0.16281 0.67517 0.97277 0.0
H2437 H 0.13288 0.785 0.0474 0.0
H2438 H 0.11027 0.76775 0.0743 0.0
H2439 H 0.09728 0.77295 0.0377 0.0
C2440 C 0.44685 0.86971 0.22263 0.0
C2441 C 0.45264 0.86179 0.19361 0.0
C2442 C 0.4693 0.87585 0.2434 0.0
C2443 C 0.49932 0.87468 0.23564 0.0
C2444 C 0.50526 0.86786 0.20597 0.0
C2445 C 0.48229 0.86161 0.18567 0.0
C2446 C 0.46041 0.88332 0.27395 0.0
C2447 C 0.53621 0.86742 0.19545 0.0
C2448 C 0.55602 0.91538 0.28538 0.0
C2449 C 0.56833 0.8933 0.3029 0.0
C2450 C 0.53427 0.90973 0.26373 0.0
C2451 C 0.5241 0.88097 0.25815 0.0
C2452 C 0.53709 0.85847 0.27521 0.0
C2453 C 0.55868 0.86476 0.29688 0.0
C2454 C 0.52098 0.93503 0.24773 0.0
C2455 C 0.52737 0.82751 0.27131 0.0
H2456 H 0.42436 0.87175 0.22904 0.0
H2457 H 0.48766 0.85652 0.16339 0.0
H2458 H 0.45794 0.86294 0.28659 0.0
H2459 H 0.47671 0.8969 0.28519 0.0
H2460 H 0.43931 0.89502 0.27416 0.0
H2461 H 0.5377 0.86319 0.17179 0.0
H2462 H 0.54681 0.88852 0.2002 0.0
H2463 H 0.54856 0.85039 0.20724 0.0
H2464 H 0.56256 0.93759 0.28941 0.0
H2465 H 0.56731 0.84714 0.30991 0.0
H2466 H 0.49773 0.93701 0.25376 0.0
H2467 H 0.52191 0.93132 0.22397 0.0
H2468 H 0.53203 0.95583 0.25281 0.0
H2469 H 0.5041 0.82559 0.27734 0.0
H2470 H 0.5402 0.8121 0.28477 0.0
H2471 H 0.5293 0.82115 0.24819 0.0
C2472 C 0.39456 0.1952 0.47552 0.0
C2473 C 0.39611 0.20099 0.44539 0.0
C2474 C 0.38778 0.2171 0.49651 0.0
C2475 C 0.38322 0.24662 0.48809 0.0
C2476 C 0.38513 0.25262 0.45768 0.0
C2477 C 0.39087 0.23004 0.43701 0.0
C2478 C 0.3852 0.20843 0.52797 0.0
C2479 C 0.38127 0.28325 0.44685 0.0
C2480 C 0.3419 0.29998 0.5406 0.0
C2481 C 0.3642 0.31638 0.55395 0.0
C2482 C 0.34761 0.27805 0.51927 0.0
C2483 C 0.3766 0.2709 0.51081 0.0
C2484 C 0.39922 0.28711 0.52456 0.0
C2485 C 0.39286 0.3094 0.54529 0.0
C2486 C 0.32228 0.26218 0.50592 0.0
C2487 C 0.43055 0.28048 0.51779 0.0
H2488 H 0.39803 0.17307 0.48277 0.0
H2489 H 0.39181 0.23534 0.41411 0.0
H2490 H 0.40135 0.2205 0.54113 0.0
H2491 H 0.36334 0.21425 0.53625 0.0
H2492 H 0.38861 0.18481 0.53134 0.0
H2493 H 0.38341 0.28489 0.4229 0.0
H2494 H 0.35957 0.29152 0.45324 0.0
H2495 H 0.39774 0.29756 0.45706 0.0
H2496 H 0.31964 0.30432 0.54682 0.0
H2497 H 0.4107 0.32092 0.55542 0.0
H2498 H 0.32319 0.23891 0.51207 0.0
H2499 H 0.32351 0.26337 0.4819 0.0
H2500 H 0.30105 0.27117 0.51297 0.0
H2501 H 0.43559 0.2578 0.52422 0.0
H2502 H 0.44579 0.29523 0.52925 0.0
H2503 H 0.43437 0.28227 0.49409 0.0
C2504 C 0.93902 0.13748 0.78557 0.0
C2505 C 0.94141 0.1138 0.80502 0.0
C2506 C 0.96045 0.14357 0.76381 0.0
C2507 C 0.98604 0.12621 0.76105 0.0
C2508 C 0.98869 0.10244 0.78082 0.0
C2509 C 0.96668 0.09653 0.80199 0.0
C2510 C 0.95565 0.16893 0.74364 0.0
C2511 C 0.01547 0.08357 0.78044 0.0
C2512 C 0.03242 0.12538 0.68927 0.0
C2513 C 0.05457 0.146 0.69431 0.0
C2514 C 0.01015 0.11923 0.71017 0.0
C2515 C 0.00983 0.13304 0.73792 0.0
C2516 C 0.03261 0.15335 0.74333 0.0
C2517 C 0.05398 0.15979 0.7217 0.0
C2518 C 0.98674 0.09774 0.70242 0.0
C2519 C 0.0351 0.1678 0.77255 0.0
H2520 H 0.92018 0.15144 0.78728 0.0
H2521 H 0.96979 0.07854 0.81686 0.0
H2522 H 0.97287 0.18541 0.74706 0.0
H2523 H 0.95717 0.16164 0.72076 0.0
H2524 H 0.93418 0.17938 0.747 0.0
H2525 H 0.01284 0.06377 0.79398 0.0
H2526 H 0.02089 0.07692 0.758 0.0
H2527 H 0.0342 0.09615 0.78891 0.0
H2528 H 0.03226 0.11411 0.66868 0.0
H2529 H 0.07097 0.17525 0.72672 0.0
H2530 H 0.96505 0.10793 0.705 0.0
H2531 H 0.98767 0.0789 0.71743 0.0
H2532 H 0.98886 0.08971 0.67983 0.0
H2533 H 0.05284 0.18414 0.77321 0.0
H2534 H 0.03947 0.15109 0.7894 0.0
H2535 H 0.01437 0.17857 0.77832 0.0
C2536 C 0.22436 0.56607 0.13389 0.0
C2537 C 0.20042 0.55995 0.11557 0.0
C2538 C 0.24652 0.545 0.14048 0.0
C2539 C 0.24497 0.51594 0.12972 0.0
C2540 C 0.2205 0.50954 0.11171 0.0
C2541 C 0.19926 0.53128 0.10462 0.0
C2542 C 0.27195 0.55406 0.15897 0.0
C2543 C 0.21626 0.47921 0.10026 0.0
C2544 C 0.31414 0.4655 0.12493 0.0
C2545 C 0.31284 0.44774 0.15006 0.0
C2546 C 0.29291 0.48742 0.11839 0.0
C2547 C 0.26867 0.49254 0.13703 0.0
C2548 C 0.26718 0.47466 0.16242 0.0
C2549 C 0.28889 0.45302 0.16856 0.0
C2550 C 0.29644 0.50514 0.09108 0.0
C2551 C 0.2422 0.47807 0.18322 0.0
H2552 H 0.22608 0.58769 0.14289 0.0
H2553 H 0.181 0.52541 0.09097 0.0
H2554 H 0.27266 0.54077 0.17906 0.0
H2555 H 0.29253 0.55011 0.1471 0.0
H2556 H 0.27092 0.57734 0.16508 0.0
H2557 H 0.19632 0.47721 0.08679 0.0
H2558 H 0.23526 0.4727 0.08702 0.0
H2559 H 0.21476 0.4637 0.11866 0.0
H2560 H 0.33187 0.46211 0.10992 0.0
H2561 H 0.28669 0.43974 0.18787 0.0
H2562 H 0.29686 0.52858 0.09648 0.0
H2563 H 0.27761 0.50153 0.07648 0.0
H2564 H 0.31663 0.49959 0.07914 0.0
H2565 H 0.24307 0.49988 0.1933 0.0
H2566 H 0.24253 0.46144 0.20072 0.0
H2567 H 0.22124 0.47649 0.17138 0.0
C2568 C 0.8183 0.03722 0.88163 0.0
C2569 C 0.81196 0.0612 0.86339 0.0
C2570 C 0.79747 0.01477 0.88792 0.0
C2571 C 0.76836 0.01603 0.87699 0.0
C2572 C 0.76179 0.04044 0.85889 0.0
C2573 C 0.78332 0.062 0.85214 0.0
C2574 C 0.80686 0.98931 0.90625 0.0
C2575 C 0.73144 0.04449 0.84722 0.0
C2576 C 0.71775 0.94691 0.87207 0.0
C2577 C 0.70025 0.94789 0.89732 0.0
C2578 C 0.73974 0.96809 0.8656 0.0
C2579 C 0.74506 0.9922 0.88431 0.0
C2580 C 0.72741 0.99344 0.9098 0.0
C2581 C 0.70584 0.97167 0.91595 0.0
C2582 C 0.75732 0.96465 0.83826 0.0
C2583 C 0.73104 0.01823 0.93075 0.0
H2584 H 0.83994 0.03572 0.89083 0.0
H2585 H 0.77729 0.08025 0.83857 0.0
H2586 H 0.7939 0.98854 0.92649 0.0
H2587 H 0.80272 0.96878 0.89439 0.0
H2588 H 0.83027 0.99033 0.91209 0.0
H2589 H 0.7301 0.06249 0.83118 0.0
H2590 H 0.72356 0.0243 0.8368 0.0
H2591 H 0.71653 0.04936 0.86547 0.0
H2592 H 0.71404 0.92958 0.85684 0.0
H2593 H 0.6929 0.97362 0.93544 0.0
H2594 H 0.78085 0.96456 0.84359 0.0
H2595 H 0.75336 0.98335 0.82356 0.0
H2596 H 0.75193 0.94436 0.82646 0.0
H2597 H 0.75278 0.01697 0.94109 0.0
H2598 H 0.71429 0.01802 0.94806 0.0
H2599 H 0.72983 0.03925 0.91899 0.0
C2600 C 0.78635 0.06673 0.37671 0.0
C2601 C 0.80797 0.06229 0.39817 0.0
C2602 C 0.76408 0.04583 0.37052 0.0
C2603 C 0.76277 0.01867 0.38551 0.0
C2604 C 0.78472 0.01392 0.40702 0.0
C2605 C 0.80644 0.03546 0.41316 0.0
C2606 C 0.74192 0.05282 0.34741 0.0
C2607 C 0.78588 0.98545 0.42315 0.0
C2608 C 0.69084 0.97187 0.3874 0.0
C2609 C 0.69432 0.95146 0.36477 0.0
C2610 C 0.7123 0.99356 0.39402 0.0
C2611 C 0.73904 0.99537 0.37834 0.0
C2612 C 0.74271 0.97471 0.35558 0.0
C2613 C 0.72074 0.95356 0.34917 0.0
C2614 C 0.70617 0.01483 0.41801 0.0
C2615 C 0.77049 0.97412 0.3383 0.0
H2616 H 0.78682 0.0868 0.36443 0.0
H2617 H 0.82291 0.03081 0.42935 0.0
H2618 H 0.7436 0.03693 0.32946 0.0
H2619 H 0.71969 0.05096 0.35653 0.0
H2620 H 0.7448 0.07498 0.33831 0.0
H2621 H 0.80383 0.98473 0.4393 0.0
H2622 H 0.76503 0.98154 0.43453 0.0
H2623 H 0.78892 0.96746 0.40749 0.0
H2624 H 0.67109 0.971 0.40011 0.0
H2625 H 0.72472 0.93803 0.33206 0.0
H2626 H 0.70762 0.03733 0.40948 0.0
H2627 H 0.72278 0.01261 0.43534 0.0
H2628 H 0.68434 0.01159 0.42774 0.0
H2629 H 0.76814 0.96129 0.31807 0.0
H2630 H 0.7879 0.96415 0.35171 0.0
H2631 H 0.77768 0.99634 0.33246 0.0
C2632 C 0.78079 0.93687 0.12009 0.0
C2633 C 0.80836 0.94472 0.10903 0.0
C2634 C 0.7588 0.95787 0.12707 0.0
C2635 C 0.76409 0.98836 0.12456 0.0
C2636 C 0.79221 0.99639 0.11412 0.0
C2637 C 0.81335 0.97491 0.10612 0.0
C2638 C 0.72953 0.94724 0.13709 0.0
C2639 C 0.80038 0.028 0.11196 0.0
C2640 C 0.69942 0.04435 0.11882 0.0
C2641 C 0.69598 0.05531 0.14731 0.0
C2642 C 0.72091 0.02307 0.11135 0.0
C2643 C 0.74045 0.01151 0.13255 0.0
C2644 C 0.73708 0.02243 0.16139 0.0
C2645 C 0.71529 0.0437 0.16828 0.0
C2646 C 0.72282 0.01307 0.08029 0.0
C2647 C 0.7569 0.01185 0.18523 0.0
H2648 H 0.77617 0.91399 0.12297 0.0
H2649 H 0.83446 0.98193 0.09845 0.0
H2650 H 0.72512 0.95523 0.15933 0.0
H2651 H 0.71226 0.95608 0.12273 0.0
H2652 H 0.72803 0.92318 0.13713 0.0
H2653 H 0.82318 0.03112 0.1047 0.0
H2654 H 0.7857 0.03926 0.0965 0.0
H2655 H 0.79764 0.03856 0.13339 0.0
H2656 H 0.68547 0.05285 0.10188 0.0
H2657 H 0.71369 0.05159 0.19034 0.0
H2658 H 0.72053 0.98913 0.07929 0.0
H2659 H 0.74447 0.01859 0.0713 0.0
H2660 H 0.70588 0.02313 0.06631 0.0
H2661 H 0.75316 0.98838 0.18907 0.0
H2662 H 0.75338 0.02364 0.20591 0.0
H2663 H 0.77994 0.01449 0.17868 0.0
C2664 C 0.29108 0.44421 0.63712 0.0
C2665 C 0.309 0.44608 0.61221 0.0
C2666 C 0.26901 0.46531 0.64371 0.0
C2667 C 0.26414 0.49006 0.62552 0.0
C2668 C 0.28222 0.49209 0.60042 0.0
C2669 C 0.30376 0.47045 0.59411 0.0
C2670 C 0.25096 0.46119 0.67064 0.0
C2671 C 0.27938 0.5178 0.58033 0.0
C2672 C 0.19147 0.53604 0.62749 0.0
C2673 C 0.19773 0.55948 0.64632 0.0
C2674 C 0.21211 0.51341 0.62129 0.0
C2675 C 0.24094 0.51389 0.63301 0.0
C2676 C 0.24739 0.53763 0.65186 0.0
C2677 C 0.22605 0.55939 0.65842 0.0
C2678 C 0.20283 0.4886 0.60217 0.0
C2679 C 0.27746 0.54092 0.66448 0.0
H2680 H 0.29433 0.42613 0.6518 0.0
H2681 H 0.31713 0.4731 0.57498 0.0
H2682 H 0.25564 0.47888 0.68624 0.0
H2683 H 0.2275 0.46243 0.66513 0.0
H2684 H 0.25532 0.44008 0.68146 0.0
H2685 H 0.29438 0.51645 0.56152 0.0
H2686 H 0.25679 0.51948 0.57209 0.0
H2687 H 0.28411 0.53803 0.59246 0.0
H2688 H 0.17008 0.53513 0.61769 0.0
H2689 H 0.23198 0.57707 0.67268 0.0
H2690 H 0.20618 0.46772 0.61377 0.0
H2691 H 0.21644 0.48804 0.58235 0.0
H2692 H 0.17966 0.49025 0.59559 0.0
H2693 H 0.27771 0.55596 0.68327 0.0
H2694 H 0.2921 0.54976 0.64752 0.0
H2695 H 0.28646 0.51973 0.67156 0.0
C2696 C 0.2292 0.43332 0.3818 0.0
C2697 C 0.20311 0.44099 0.39595 0.0
C2698 C 0.25189 0.45395 0.37608 0.0
C2699 C 0.24862 0.48399 0.38309 0.0
C2700 C 0.22183 0.49194 0.3965 0.0
C2701 C 0.20018 0.47063 0.40332 0.0
C2702 C 0.27978 0.44337 0.3627 0.0
C2703 C 0.21564 0.52325 0.40364 0.0
C2704 C 0.31568 0.53679 0.39057 0.0
C2705 C 0.31764 0.55061 0.36314 0.0
C2706 C 0.29396 0.51539 0.39715 0.0
C2707 C 0.27277 0.50683 0.37614 0.0
C2708 C 0.27461 0.52073 0.34849 0.0
C2709 C 0.29656 0.54199 0.34245 0.0
C2710 C 0.29355 0.50201 0.42701 0.0
C2711 C 0.25265 0.51374 0.32524 0.0
H2712 H 0.23223 0.41084 0.37568 0.0
H2713 H 0.18026 0.47749 0.41375 0.0
H2714 H 0.28314 0.45398 0.34134 0.0
H2715 H 0.29842 0.44945 0.37674 0.0
H2716 H 0.2799 0.41948 0.35961 0.0
H2717 H 0.19201 0.52724 0.40637 0.0
H2718 H 0.22671 0.52896 0.42424 0.0
H2719 H 0.22389 0.53798 0.38645 0.0
H2720 H 0.33105 0.54297 0.40727 0.0
H2721 H 0.29683 0.5523 0.3213 0.0
H2722 H 0.29383 0.47798 0.42534 0.0
H2723 H 0.2732 0.50815 0.43829 0.0
H2724 H 0.31228 0.50907 0.44046 0.0
H2725 H 0.25207 0.49005 0.32118 0.0
H2726 H 0.25745 0.525 0.30446 0.0
H2727 H 0.23067 0.52021 0.33269 0.0
C2728 C 0.22343 0.44503 0.87087 0.0
C2729 C 0.19583 0.45168 0.85893 0.0
C2730 C 0.24466 0.4668 0.87807 0.0
C2731 C 0.2391 0.497 0.87348 0.0
C2732 C 0.21094 0.50388 0.86205 0.0
C2733 C 0.19007 0.48161 0.85507 0.0
C2734 C 0.27352 0.45705 0.89019 0.0
C2735 C 0.20257 0.53515 0.85739 0.0
C2736 C 0.28874 0.55389 0.91493 0.0
C2737 C 0.30727 0.56533 0.89324 0.0
C2738 C 0.26639 0.53284 0.9088 0.0
C2739 C 0.26247 0.521 0.88033 0.0
C2740 C 0.28169 0.53197 0.85858 0.0
C2741 C 0.3029 0.55395 0.86502 0.0
C2742 C 0.24685 0.52312 0.93314 0.0
C2743 C 0.28052 0.51973 0.82831 0.0
H2744 H 0.22849 0.42241 0.87484 0.0
H2745 H 0.16903 0.48776 0.84647 0.0
H2746 H 0.28952 0.45596 0.87226 0.0
H2747 H 0.28212 0.47243 0.90653 0.0
H2748 H 0.27191 0.4353 0.90047 0.0
H2749 H 0.17941 0.53758 0.85104 0.0
H2750 H 0.20655 0.54776 0.87749 0.0
H2751 H 0.21629 0.54475 0.84009 0.0
H2752 H 0.29137 0.56177 0.93689 0.0
H2753 H 0.31695 0.56161 0.84778 0.0
H2754 H 0.2511 0.49998 0.93828 0.0
H2755 H 0.22374 0.52491 0.9264 0.0
H2756 H 0.25018 0.53609 0.95315 0.0
H2757 H 0.28446 0.49597 0.82915 0.0
H2758 H 0.29686 0.52981 0.81372 0.0
H2759 H 0.2586 0.52305 0.81884 0.0
C2760 C 0.58533 0.71497 0.05053 0.0
C2761 C 0.60768 0.70485 0.06911 0.0
C2762 C 0.58994 0.73723 0.02917 0.0
C2763 C 0.61789 0.75015 0.02509 0.0
C2764 C 0.64059 0.73968 0.04345 0.0
C2765 C 0.63526 0.71784 0.06499 0.0
C2766 C 0.56472 0.74658 0.01044 0.0
C2767 C 0.67106 0.75111 0.03985 0.0
C2768 C 0.63706 0.78729 0.95076 0.0
C2769 C 0.63791 0.81731 0.95688 0.0
C2770 C 0.63068 0.76568 0.97218 0.0
C2771 C 0.6237 0.77356 1.00123 0.0
C2772 C 0.62276 0.80401 0.00718 0.0
C2773 C 0.62993 0.8252 0.98535 0.0
C2774 C 0.63244 0.73415 0.96366 0.0
C2775 C 0.61412 0.81433 0.0369 0.0
H2776 H 0.56397 0.70529 0.05251 0.0
H2777 H 0.65321 0.71037 0.07824 0.0
H2778 H 0.56285 0.77059 0.01032 0.0
H2779 H 0.56847 0.73962 0.98774 0.0
H2780 H 0.54383 0.73713 0.01791 0.0
H2781 H 0.68683 0.73986 0.05422 0.0
H2782 H 0.67819 0.74842 0.01702 0.0
H2783 H 0.67156 0.77466 0.04474 0.0
H2784 H 0.64119 0.78051 0.92875 0.0
H2785 H 0.62968 0.84804 0.9908 0.0
H2786 H 0.61462 0.72129 0.97344 0.0
H2787 H 0.65321 0.72498 0.97185 0.0
H2788 H 0.63165 0.73132 0.93975 0.0
H2789 H 0.59286 0.80475 0.04301 0.0
H2790 H 0.61247 0.83834 0.03803 0.0
H2791 H 0.63031 0.80685 0.05314 0.0
C2792 C 0.55839 0.34668 0.28538 0.0
C2793 C 0.55797 0.35871 0.31359 0.0
C2794 C 0.53664 0.35319 0.26393 0.0
C2795 C 0.51257 0.37173 0.27029 0.0
C2796 C 0.51181 0.38348 0.29893 0.0
C2797 C 0.53433 0.37736 0.31963 0.0
C2798 C 0.53994 0.34065 0.23395 0.0
C2799 C 0.4869 0.40266 0.30792 0.0
C2800 C 0.4677 0.41061 0.20842 0.0
C2801 C 0.44322 0.39252 0.20406 0.0
C2802 C 0.49004 0.40413 0.22923 0.0
C2803 C 0.48855 0.37891 0.2473 0.0
C2804 C 0.46375 0.36072 0.24318 0.0
C2805 C 0.44197 0.36746 0.22186 0.0
C2806 C 0.51575 0.42427 0.23146 0.0
C2807 C 0.46013 0.33376 0.26143 0.0
H2808 H 0.57643 0.33276 0.27961 0.0
H2809 H 0.53326 0.38721 0.34091 0.0
H2810 H 0.52101 0.32671 0.22876 0.0
H2811 H 0.54039 0.35841 0.21764 0.0
H2812 H 0.56008 0.32755 0.23173 0.0
H2813 H 0.48868 0.40968 0.33089 0.0
H2814 H 0.48606 0.42223 0.29388 0.0
H2815 H 0.46605 0.3909 0.30499 0.0
H2816 H 0.46986 0.4298 0.19496 0.0
H2817 H 0.42379 0.35279 0.2191 0.0
H2818 H 0.53615 0.41198 0.22781 0.0
H2819 H 0.51698 0.43356 0.25359 0.0
H2820 H 0.51461 0.44237 0.21552 0.0
H2821 H 0.47827 0.31852 0.2572 0.0
H2822 H 0.43931 0.32242 0.25694 0.0
H2823 H 0.46099 0.33947 0.28479 0.0
C2824 C 0.83923 0.20538 0.46611 0.0
C2825 C 0.86192 0.19053 0.45179 0.0
C2826 C 0.8445 0.22663 0.48818 0.0
C2827 C 0.87336 0.23459 0.49641 0.0
C2828 C 0.89635 0.21989 0.48179 0.0
C2829 C 0.89046 0.1982 0.46033 0.0
C2830 C 0.81887 0.24098 0.50252 0.0
C2831 C 0.92753 0.22742 0.48847 0.0
C2832 C 0.88877 0.30985 0.53319 0.0
C2833 C 0.89133 0.30332 0.56306 0.0
C2834 C 0.88245 0.28826 0.51182 0.0
C2835 C 0.87943 0.25842 0.51961 0.0
C2836 C 0.88236 0.25167 0.54979 0.0
C2837 C 0.88772 0.27391 0.57088 0.0
C2838 C 0.87909 0.29759 0.4806 0.0
C2839 C 0.88006 0.22065 0.55989 0.0
H2840 H 0.81704 0.20038 0.46006 0.0
H2841 H 0.90855 0.18773 0.44958 0.0
H2842 H 0.82075 0.23913 0.52646 0.0
H2843 H 0.81866 0.26445 0.49706 0.0
H2844 H 0.79787 0.23132 0.4956 0.0
H2845 H 0.94312 0.2147 0.47524 0.0
H2846 H 0.93132 0.25085 0.48435 0.0
H2847 H 0.93213 0.22339 0.51178 0.0
H2848 H 0.89134 0.33225 0.52642 0.0
H2849 H 0.8897 0.2681 0.5936 0.0
H2850 H 0.85872 0.28868 0.47131 0.0
H2851 H 0.89739 0.28887 0.46765 0.0
H2852 H 0.8787 0.32157 0.47821 0.0
H2853 H 0.85845 0.21175 0.55397 0.0
H2854 H 0.88314 0.21847 0.58371 0.0
H2855 H 0.89665 0.20723 0.54878 0.0
C2856 C 0.9765 0.62148 0.82055 0.0
C2857 C 0.95733 0.64532 0.81795 0.0
C2858 C 0.999 0.61587 0.79982 0.0
C2859 C 1.00303 0.63415 0.77504 0.0
C2860 C 0.98341 0.65793 0.77211 0.0
C2861 C 0.96146 0.66331 0.79335 0.0
C2862 C 0.01805 0.5896 0.80401 0.0
C2863 C 0.9846 0.67708 0.74555 0.0
C2864 C 0.07501 0.63572 0.72896 0.0
C2865 C 0.06993 0.61537 0.70667 0.0
C2866 C 0.05411 0.64141 0.75133 0.0
C2867 C 0.02633 0.62747 0.75152 0.0
C2868 C 0.021 0.60727 0.72873 0.0
C2869 C 0.04256 0.60135 0.70728 0.0
C2870 C 0.06203 0.66221 0.77522 0.0
C2871 C 0.99218 0.59197 0.72586 0.0
H2872 H 0.97375 0.60679 0.83873 0.0
H2873 H 0.94681 0.68144 0.7901 0.0
H2874 H 0.0137 0.57378 0.78642 0.0
H2875 H 0.04128 0.59589 0.80256 0.0
H2876 H 0.01419 0.57873 0.8252 0.0
H2877 H 0.9687 0.6952 0.74652 0.0
H2878 H 0.00668 0.68629 0.74287 0.0
H2879 H 0.9799 0.66387 0.72599 0.0
H2880 H 0.09566 0.64701 0.72923 0.0
H2881 H 0.03742 0.58597 0.69027 0.0
H2882 H 0.05946 0.65137 0.7966 0.0
H2883 H 0.0471 0.68109 0.77486 0.0
H2884 H 0.0847 0.67025 0.77325 0.0
H2885 H 0.99584 0.56832 0.72319 0.0
H2886 H 0.98108 0.59998 0.70599 0.0
H2887 H 0.97739 0.59525 0.7445 0.0
C2888 C 0.59526 0.28123 0.44778 0.0
C2889 C 0.61296 0.30583 0.44332 0.0
C2890 C 0.60238 0.25914 0.46864 0.0
C2891 C 0.62717 0.26174 0.48724 0.0
C2892 C 0.64443 0.28723 0.48347 0.0
C2893 C 0.63772 0.30807 0.46137 0.0
C2894 C 0.58322 0.23271 0.47057 0.0
C2895 C 0.67007 0.29313 0.50299 0.0
C2896 C 0.62703 0.2157 0.55918 0.0
C2897 C 0.64854 0.19429 0.5547 0.0
C2898 C 0.62056 0.23779 0.53823 0.0
C2899 C 0.63464 0.23836 0.51066 0.0
C2900 C 0.65618 0.21651 0.5059 0.0
C2901 C 0.66312 0.19538 0.52781 0.0
C2902 C 0.59859 0.26072 0.54611 0.0
C2903 C 0.67183 0.21516 0.47727 0.0
H2904 H 0.57605 0.27881 0.43438 0.0
H2905 H 0.65163 0.3269 0.45888 0.0
H2906 H 0.59661 0.21268 0.4713 0.0
H2907 H 0.57035 0.23355 0.49086 0.0
H2908 H 0.56791 0.23126 0.45196 0.0
H2909 H 0.67393 0.31682 0.50519 0.0
H2910 H 0.667 0.28381 0.525 0.0
H2911 H 0.68985 0.28338 0.49338 0.0
H2912 H 0.6154 0.21556 0.57961 0.0
H2913 H 0.67962 0.17919 0.52355 0.0
H2914 H 0.57687 0.25408 0.53806 0.0
H2915 H 0.60402 0.28203 0.53626 0.0
H2916 H 0.59713 0.26347 0.57 0.0
H2917 H 0.65589 0.21529 0.45915 0.0
H2918 H 0.68569 0.19552 0.47544 0.0
H2919 H 0.6858 0.2346 0.47473 0.0
C2920 C 0.97115 0.3368 0.70067 0.0
C2921 C 0.95245 0.35866 0.68985 0.0
C2922 C 0.99406 0.34271 0.72112 0.0
C2923 C 0.99826 0.37109 0.73305 0.0
C2924 C 0.97876 0.39299 0.72283 0.0
C2925 C 0.95706 0.38679 0.7013 0.0
C2926 C 0.01374 0.31814 0.73016 0.0
C2927 C 0.9802 0.42316 0.73532 0.0
C2928 C 0.03925 0.37963 0.80789 0.0
C2929 C 0.06634 0.39224 0.80064 0.0
C2930 C 0.01756 0.37243 0.78661 0.0
C2931 C 0.02219 0.37774 0.75641 0.0
C2932 C 0.04988 0.38973 0.74892 0.0
C2933 C 0.07117 0.39682 0.7707 0.0
C2934 C 0.98919 0.35965 0.79683 0.0
C2935 C 0.05737 0.39467 0.71749 0.0
H2936 H 0.96825 0.31489 0.69272 0.0
H2937 H 0.94284 0.40413 0.69408 0.0
H2938 H 0.03668 0.32548 0.73127 0.0
H2939 H 0.00748 0.31041 0.75208 0.0
H2940 H 0.01226 0.29952 0.71499 0.0
H2941 H 0.96253 0.43738 0.72701 0.0
H2942 H 0.97867 0.42208 0.75934 0.0
H2943 H 1.00138 0.43328 0.72994 0.0
H2944 H 0.03486 0.37535 0.8306 0.0
H2945 H 0.09182 0.40601 0.76417 0.0
H2946 H 0.98096 0.34285 0.78178 0.0
H2947 H 0.97259 0.3771 0.79765 0.0
H2948 H 0.99129 0.34973 0.81871 0.0
H2949 H 0.05402 0.37435 0.70506 0.0
H2950 H 0.08019 0.40195 0.7146 0.0
H2951 H 0.04272 0.41133 0.70806 0.0
C2952 C 0.89112 0.80042 0.05139 0.0
C2953 C 0.86533 0.81707 0.0509 0.0
C2954 C 0.8968 0.77796 0.03076 0.0
C2955 C 0.87718 0.77234 0.00739 0.0
C2956 C 0.85144 0.78967 0.00643 0.0
C2957 C 0.84553 0.81082 0.02835 0.0
C2958 C 0.9238 0.75979 0.03452 0.0
C2959 C 0.82983 0.78599 0.9821 0.0
C2960 C 0.90844 0.73117 0.93966 0.0
C2961 C 0.8964 0.70312 0.94188 0.0
C2962 C 0.9019 0.75369 0.96003 0.0
C2963 C 0.88344 0.74847 0.98439 0.0
C2964 C 0.87129 0.72007 0.98671 0.0
C2965 C 0.87756 0.69822 0.96558 0.0
C2966 C 0.9147 0.7834 0.95523 0.0
C2967 C 0.85226 0.71235 0.01222 0.0
H2968 H 0.90654 0.80413 0.0688 0.0
H2969 H 0.82534 0.8229 0.02754 0.0
H2970 H 0.9191 0.73652 0.03047 0.0
H2971 H 0.94048 0.76686 0.01869 0.0
H2972 H 0.93306 0.76192 0.05667 0.0
H2973 H 0.81437 0.80447 0.98085 0.0
H2974 H 0.84114 0.78398 0.96095 0.0
H2975 H 0.8171 0.76587 0.98557 0.0
H2976 H 0.92294 0.73568 0.92172 0.0
H2977 H 0.86812 0.67681 0.96805 0.0
H2978 H 0.93115 0.78791 0.97223 0.0
H2979 H 0.89753 0.80022 0.957 0.0
H2980 H 0.92528 0.7854 0.93368 0.0
H2981 H 0.86479 0.71499 0.03266 0.0
H2982 H 0.84402 0.68973 0.01106 0.0
H2983 H 0.83341 0.72722 0.01343 0.0
C2984 C 0.53877 0.62479 0.19506 0.0
C2985 C 0.5585 0.64809 0.19865 0.0
C2986 C 0.51722 0.6174 0.2163 0.0
C2987 C 0.51501 0.63282 0.24306 0.0
C2988 C 0.53506 0.65621 0.24692 0.0
C2989 C 0.55581 0.66371 0.22489 0.0
C2990 C 0.49661 0.59281 0.20995 0.0
C2991 C 0.53522 0.67305 0.27492 0.0
C2992 C 0.44309 0.63091 0.28927 0.0
C2993 C 0.44811 0.60949 0.31078 0.0
C2994 C 0.46411 0.63843 0.26757 0.0
C2995 C 0.49189 0.62467 0.26658 0.0
C2996 C 0.49715 0.60299 0.28824 0.0
C2997 C 0.47554 0.59565 0.3095 0.0
C2998 C 0.4564 0.66139 0.24548 0.0
C2999 C 0.52597 0.58747 0.28926 0.0
H3000 H 0.54008 0.61213 0.17535 0.0
H3001 H 0.57063 0.68155 0.22871 0.0
H3002 H 0.49944 0.57534 0.22631 0.0
H3003 H 0.47383 0.60055 0.21155 0.0
H3004 H 0.50003 0.58347 0.18803 0.0
H3005 H 0.5518 0.69057 0.27498 0.0
H3006 H 0.51355 0.68282 0.27877 0.0
H3007 H 0.53975 0.65811 0.29331 0.0
H3008 H 0.42239 0.64194 0.28922 0.0
H3009 H 0.48053 0.5793 0.32569 0.0
H3010 H 0.45822 0.6523 0.22329 0.0
H3011 H 0.47194 0.67972 0.24698 0.0
H3012 H 0.43405 0.66994 0.24851 0.0
H3013 H 0.52781 0.57288 0.27027 0.0
H3014 H 0.52855 0.57427 0.30931 0.0
H3015 H 0.5441 0.60329 0.28799 0.0
C3016 C 0.81883 0.9796 0.64439 0.0
C3017 C 0.81216 0.94973 0.64315 0.0
C3018 C 0.79791 1.00169 0.63747 0.0
C3019 C 0.76907 0.99448 0.6284 0.0
C3020 C 0.76242 0.96426 0.62681 0.0
C3021 C 0.78362 0.94267 0.63424 0.0
C3022 C 0.80674 0.03305 0.64006 0.0
C3023 C 0.73262 0.95455 0.61723 0.0
C3024 C 0.70694 0.05245 0.6362 0.0
C3025 C 0.70244 0.06306 0.60769 0.0
C3026 C 0.72772 0.0303 0.64297 0.0
C3027 C 0.74598 0.01825 0.62112 0.0
C3028 C 0.74177 0.0291 0.59231 0.0
C3029 C 0.72006 0.05062 0.58595 0.0
C3030 C 0.72974 0.01941 0.6738 0.0
C3031 C 0.76052 0.01806 0.56796 0.0
H3032 H 0.84052 0.98582 0.6511 0.0
H3033 H 0.77782 0.91993 0.63282 0.0
H3034 H 0.80258 0.04458 0.61929 0.0
H3035 H 0.79342 0.04378 0.65695 0.0
H3036 H 0.83004 0.03553 0.64588 0.0
H3037 H 0.7304 0.93055 0.61722 0.0
H3038 H 0.71586 0.96385 0.63176 0.0
H3039 H 0.72804 0.96274 0.59502 0.0
H3040 H 0.69348 0.06098 0.65345 0.0
H3041 H 0.71718 0.058 0.5638 0.0
H3042 H 0.75191 0.02323 0.68245 0.0
H3043 H 0.72586 0.99564 0.67438 0.0
H3044 H 0.71379 0.03013 0.68832 0.0
H3045 H 0.78373 0.02216 0.57305 0.0
H3046 H 0.7552 0.02854 0.54687 0.0
H3047 H 0.75782 0.99426 0.5657 0.0
C3048 C 0.06418 0.54283 0.21063 0.0
C3049 C 0.08817 0.56144 0.20689 0.0
C3050 C 0.06527 0.51885 0.22947 0.0
C3051 C 0.09049 0.51372 0.24629 0.0
C3052 C 0.11432 0.53309 0.24385 0.0
C3053 C 0.11318 0.55616 0.22365 0.0
C3054 C 0.03968 0.49835 0.23055 0.0
C3055 C 0.14154 0.52911 0.26174 0.0
C3056 C 0.0786 0.46523 0.31232 0.0
C3057 C 0.08982 0.43857 0.30297 0.0
C3058 C 0.07958 0.49001 0.29449 0.0
C3059 C 0.09153 0.48802 0.26627 0.0
C3060 C 0.1029 0.46105 0.25672 0.0
C3061 C 0.10201 0.43668 0.27529 0.0
C3062 C 0.0682 0.51845 0.306 0.0
C3063 C 0.11584 0.45794 0.22684 0.0
H3064 H 0.04474 0.5461 0.19774 0.0
H3065 H 0.13223 0.56942 0.2206 0.0
H3066 H 0.04686 0.47607 0.22493 0.0
H3067 H 0.0307 0.4975 0.25284 0.0
H3068 H 0.02202 0.50482 0.21539 0.0
H3069 H 0.15274 0.55014 0.2652 0.0
H3070 H 0.13687 0.51932 0.28325 0.0
H3071 H 0.15667 0.51455 0.25003 0.0
H3072 H 0.06968 0.46687 0.33402 0.0
H3073 H 0.11026 0.41603 0.26808 0.0
H3074 H 0.04946 0.52583 0.29273 0.0
H3075 H 0.08529 0.53536 0.30431 0.0
H3076 H 0.06116 0.51678 0.32899 0.0
H3077 H 0.09971 0.46455 0.21015 0.0
H3078 H 0.12294 0.43538 0.2223 0.0
H3079 H 0.13487 0.47255 0.22465 0.0
C3080 C 0.71246 0.86041 0.45184 0.0
C3081 C 0.6856 0.85388 0.46464 0.0
C3082 C 0.73849 0.8589 0.46779 0.0
C3083 C 0.73767 0.85147 0.49761 0.0
C3084 C 0.71038 0.84593 0.51092 0.0
C3085 C 0.68472 0.8465 0.49409 0.0
C3086 C 0.76695 0.86413 0.45239 0.0
C3087 C 0.70837 0.83885 0.54283 0.0
C3088 C 0.80538 0.82029 0.53474 0.0
C3089 C 0.81672 0.8447 0.549 0.0
C3090 C 0.78004 0.82227 0.51755 0.0
C3091 C 0.76537 0.84923 0.51471 0.0
C3092 C 0.77715 0.87407 0.52836 0.0
C3093 C 0.80257 0.87153 0.54517 0.0
C3094 C 0.76854 0.79531 0.503 0.0
C3095 C 0.7623 0.90322 0.52609 0.0
H3096 H 0.71324 0.86525 0.4288 0.0
H3097 H 0.66404 0.84092 0.50384 0.0
H3098 H 0.77922 0.88177 0.46322 0.0
H3099 H 0.78056 0.84428 0.45357 0.0
H3100 H 0.76385 0.87002 0.42919 0.0
H3101 H 0.68551 0.83673 0.55023 0.0
H3102 H 0.71992 0.81821 0.54743 0.0
H3103 H 0.71915 0.85606 0.55575 0.0
H3104 H 0.81584 0.79941 0.53766 0.0
H3105 H 0.81051 0.89051 0.55648 0.0
H3106 H 0.76564 0.79927 0.47941 0.0
H3107 H 0.7469 0.78975 0.512 0.0
H3108 H 0.7832 0.77638 0.50602 0.0
H3109 H 0.76004 0.90968 0.50299 0.0
H3110 H 0.77436 0.92054 0.53773 0.0
H3111 H 0.74006 0.90177 0.53525 0.0
C3112 C 0.43753 0.45199 0.72291 0.0
C3113 C 0.41336 0.44167 0.70754 0.0
C3114 C 0.43506 0.47553 0.74205 0.0
C3115 C 0.40784 0.48945 0.74556 0.0
C3116 C 0.38306 0.47821 0.73121 0.0
C3117 C 0.3861 0.45437 0.71248 0.0
C3118 C 0.46189 0.48623 0.75759 0.0
C3119 C 0.35366 0.49241 0.73423 0.0
C3120 C 0.39997 0.53842 0.81116 0.0
C3121 C 0.40728 0.56564 0.79963 0.0
C3122 C 0.39922 0.51359 0.79368 0.0
C3123 C 0.40561 0.5161 0.76377 0.0
C3124 C 0.41168 0.54389 0.75175 0.0
C3125 C 0.41282 0.56839 0.76997 0.0
C3126 C 0.39311 0.48448 0.80755 0.0
C3127 C 0.41807 0.54755 0.71986 0.0
H3128 H 0.45867 0.44237 0.71905 0.0
H3129 H 0.36743 0.44702 0.70017 0.0
H3130 H 0.46762 0.50822 0.74958 0.0
H3131 H 0.45767 0.48801 0.78121 0.0
H3132 H 0.48085 0.4717 0.75428 0.0
H3133 H 0.33616 0.47962 0.72363 0.0
H3134 H 0.34808 0.49529 0.75744 0.0
H3135 H 0.35427 0.51432 0.72419 0.0
H3136 H 0.39611 0.53638 0.83429 0.0
H3137 H 0.41881 0.58942 0.76123 0.0
H3138 H 0.41271 0.47054 0.80606 0.0
H3139 H 0.37535 0.47318 0.79585 0.0
H3140 H 0.38698 0.48648 0.83076 0.0
H3141 H 0.43916 0.53716 0.71469 0.0
H3142 H 0.41916 0.57076 0.71336 0.0
H3143 H 0.40113 0.53663 0.70665 0.0
C3144 C 0.80686 0.14379 0.96969 0.0
C3145 C 0.81344 0.17049 0.95645 0.0
C3146 C 0.78477 0.14147 0.99065 0.0
C3147 C 0.76788 0.16617 0.9976 0.0
C3148 C 0.7746 0.19322 0.98465 0.0
C3149 C 0.79752 0.19513 0.9647 0.0
C3150 C 0.77908 0.1124 0.00473 0.0
C3151 C 0.75702 0.22009 0.99121 0.0
C3152 C 0.69193 0.15799 0.03006 0.0
C3153 C 0.69703 0.16662 0.05869 0.0
C3154 C 0.71493 0.15718 0.00987 0.0
C3155 C 0.74361 0.16422 0.01895 0.0
C3156 C 0.74885 0.17142 0.04828 0.0
C3157 C 0.72549 0.17292 0.06761 0.0
C3158 C 0.70845 0.14973 0.97867 0.0
C3159 C 0.77912 0.1779 0.05925 0.0
H3160 H 0.81802 0.12437 0.96298 0.0
H3161 H 0.80215 0.21591 0.95465 0.0
H3162 H 0.77678 0.11479 0.02856 0.0
H3163 H 0.75841 0.10333 0.99634 0.0
H3164 H 0.79675 0.09659 1.00031 0.0
H3165 H 0.76441 0.23926 0.97856 0.0
H3166 H 0.73376 0.21611 0.98623 0.0
H3167 H 0.75857 0.22533 0.01463 0.0
H3168 H 0.66997 0.15278 0.02331 0.0
H3169 H 0.72952 0.17884 0.09003 0.0
H3170 H 0.72188 0.13102 0.97178 0.0
H3171 H 0.71426 0.16834 0.96449 0.0
H3172 H 0.68519 0.14431 0.97517 0.0
H3173 H 0.79406 0.15991 0.05351 0.0
H3174 H 0.77975 0.181 0.08314 0.0
H3175 H 0.78753 0.19785 0.04871 0.0
C3176 C 0.23284 0.08866 0.56604 0.0
C3177 C 0.20522 0.10113 0.56371 0.0
C3178 C 0.25205 0.08883 0.54224 0.0
C3179 C 0.24286 0.10066 0.51523 0.0
C3180 C 0.21492 0.11333 0.51298 0.0
C3181 C 0.19664 0.11375 0.53734 0.0
C3182 C 0.28189 0.07572 0.54579 0.0
C3183 C 0.2037 0.12511 0.48446 0.0
C3184 C 0.29934 0.12084 0.45822 0.0
C3185 C 0.30098 0.09537 0.44166 0.0
C3186 C 0.28057 0.12285 0.48218 0.0
C3187 C 0.26216 0.09923 0.48917 0.0
C3188 C 0.26252 0.0741 0.47146 0.0
C3189 C 0.28236 0.07224 0.44832 0.0
C3190 C 0.28153 0.1497 0.50087 0.0
C3191 C 0.24259 0.04878 0.47743 0.0
H3192 H 0.23915 0.07832 0.58625 0.0
H3193 H 0.17488 0.12259 0.53536 0.0
H3194 H 0.28369 0.05592 0.5323 0.0
H3195 H 0.29871 0.0912 0.53816 0.0
H3196 H 0.28662 0.06977 0.56869 0.0
H3197 H 0.18168 0.13477 0.48648 0.0
H3198 H 0.21869 0.14186 0.47583 0.0
H3199 H 0.20275 0.10736 0.46826 0.0
H3200 H 0.3141 0.13859 0.4536 0.0
H3201 H 0.2837 0.05244 0.43574 0.0
H3202 H 0.28825 0.1437 0.52325 0.0
H3203 H 0.25962 0.15958 0.50235 0.0
H3204 H 0.29689 0.16626 0.4924 0.0
H3205 H 0.24967 0.03746 0.49749 0.0
H3206 H 0.24256 0.03286 0.45937 0.0
H3207 H 0.22001 0.05643 0.48095 0.0
C3208 C 0.18526 0.96173 0.79796 0.0
C3209 C 0.16039 0.95594 0.81485 0.0
C3210 C 0.18435 0.9803 0.77385 0.0
C3211 C 0.15824 0.99479 0.76673 0.0
C3212 C 0.13317 0.98993 0.784 0.0
C3213 C 0.13444 0.9703 0.80764 0.0
C3214 C 0.21142 0.984 0.75565 0.0
C3215 C 0.10511 0.00567 0.77772 0.0
C3216 C 0.17122 0.06408 0.72395 0.0
C3217 C 0.16422 0.05584 0.69551 0.0
C3218 C 0.16799 0.04487 0.74736 0.0
C3219 C 0.15813 0.01626 0.74228 0.0
C3220 C 0.15077 0.00778 0.71354 0.0
C3221 C 0.15359 0.02783 0.69048 0.0
C3222 C 0.17556 0.05517 0.77752 0.0
C3223 C 0.14076 0.97731 0.70706 0.0
H3224 H 0.20556 0.95084 0.80284 0.0
H3225 H 0.11499 0.9658 0.81999 0.0
H3226 H 0.20647 0.9794 0.73254 0.0
H3227 H 0.21916 0.00674 0.7569 0.0
H3228 H 0.22935 0.96947 0.76276 0.0
H3229 H 0.0863 0.99516 0.7885 0.0
H3230 H 0.10689 0.0283 0.7857 0.0
H3231 H 0.10073 0.00674 0.75407 0.0
H3232 H 0.17893 0.08595 0.728 0.0
H3233 H 0.14831 0.02134 0.66853 0.0
H3234 H 0.19506 0.04348 0.78554 0.0
H3235 H 0.1575 0.05029 0.7927 0.0
H3236 H 0.18009 0.07884 0.77818 0.0
H3237 H 0.15893 0.96195 0.71097 0.0
H3238 H 0.13328 0.97489 0.68426 0.0
H3239 H 0.12279 0.971 0.72179 0.0
C3240 C 0.2271 0.90306 0.94108 0.0
C3241 C 0.20014 0.91646 0.94524 0.0
C3242 C 0.24815 0.90234 0.96344 0.0
C3243 C 0.24176 0.91479 0.99085 0.0
C3244 C 0.21455 0.92836 0.99508 0.0
C3245 C 0.19431 0.92921 0.97229 0.0
C3246 C 0.27716 0.88823 0.95774 0.0
C3247 C 0.20671 0.94198 0.02379 0.0
C3248 C 0.28569 0.89293 0.05809 0.0
C3249 C 0.3041 0.91696 0.06171 0.0
C3250 C 0.26526 0.89188 0.03523 0.0
C3251 C 0.26375 0.91496 0.01486 0.0
C3252 C 0.28243 0.93908 0.01817 0.0
C3253 C 0.30191 0.93999 0.04164 0.0
C3254 C 0.24538 0.86596 0.03278 0.0
C3255 C 0.28231 0.96378 0.99652 0.0
H3256 H 0.23193 0.89377 0.92025 0.0
H3257 H 0.17339 0.93936 0.97599 0.0
H3258 H 0.29519 0.90163 0.96646 0.0
H3259 H 0.27797 0.86687 0.96887 0.0
H3260 H 0.28097 0.88479 0.93424 0.0
H3261 H 0.18415 0.95055 0.024 0.0
H3262 H 0.20901 0.92578 0.04151 0.0
H3263 H 0.22182 0.96008 0.02864 0.0
H3264 H 0.28744 0.8747 0.07273 0.0
H3265 H 0.3162 0.95856 0.04358 0.0
H3266 H 0.24951 0.85455 0.01203 0.0
H3267 H 0.22238 0.87319 0.03248 0.0
H3268 H 0.2484 0.85035 0.05095 0.0
H3269 H 0.28686 0.95532 0.97447 0.0
H3270 H 0.2987 0.98067 1.00177 0.0
H3271 H 0.26056 0.97411 0.99582 0.0
C3272 C 0.37259 0.05368 0.29454 0.0
C3273 C 0.35257 0.04903 0.31694 0.0
C3274 C 0.37321 0.03559 0.27008 0.0
C3275 C 0.35412 0.01154 0.26851 0.0
C3276 C 0.3352 0.00566 0.29209 0.0
C3277 C 0.33407 0.02498 0.31568 0.0
C3278 C 0.39283 0.04347 0.24506 0.0
C3279 C 0.31551 0.97948 0.29201 0.0
C3280 C 0.32977 0.98013 0.19591 0.0
C3281 C 0.34917 0.95702 0.19248 0.0
C3282 C 0.33199 0.99887 0.21989 0.0
C3283 C 0.3531 0.99333 0.24172 0.0
C3284 C 0.37284 0.97006 0.23816 0.0
C3285 C 0.37104 0.95261 0.21327 0.0
C3286 C 0.31127 0.02413 0.2222 0.0
C3287 C 0.39471 0.96247 0.26144 0.0
H3288 H 0.38635 0.07278 0.29517 0.0
H3289 H 0.31833 0.02164 0.33284 0.0
H3290 H 0.40563 0.02441 0.23793 0.0
H3291 H 0.37937 0.05057 0.22633 0.0
H3292 H 0.40808 0.06124 0.2507 0.0
H3293 H 0.30469 0.97616 0.31329 0.0
H3294 H 0.29851 0.98211 0.27514 0.0
H3295 H 0.32809 0.95967 0.28662 0.0
H3296 H 0.31257 0.98321 0.18009 0.0
H3297 H 0.3855 0.93415 0.21109 0.0
H3298 H 0.32341 0.04439 0.22688 0.0
H3299 H 0.29601 0.02045 0.24043 0.0
H3300 H 0.29838 0.0273 0.20203 0.0
H3301 H 0.40871 0.9814 0.26636 0.0
H3302 H 0.40878 0.94392 0.25521 0.0
H3303 H 0.38306 0.95673 0.28171 0.0
C3304 C 0.45062 0.28546 0.11647 0.0
C3305 C 0.44505 0.30196 0.0914 0.0
C3306 C 0.47362 0.2653 0.11762 0.0
C3307 C 0.49258 0.26247 0.0936 0.0
C3308 C 0.48721 0.27907 0.06825 0.0
C3309 C 0.46335 0.29809 0.06728 0.0
C3310 C 0.4778 0.24729 0.14472 0.0
C3311 C 0.50708 0.27722 0.04227 0.0
C3312 C 0.56834 0.22975 0.1052 0.0
C3313 C 0.56486 0.20226 0.09281 0.0
C3314 C 0.54504 0.24973 0.10557 0.0
C3315 C 0.51744 0.2415 0.09438 0.0
C3316 C 0.51375 0.21333 0.08283 0.0
C3317 C 0.53753 0.19435 0.08177 0.0
C3318 C 0.55008 0.2798 0.11738 0.0
C3319 C 0.48459 0.20309 0.07177 0.0
H3320 H 0.43759 0.28871 0.13557 0.0
H3321 H 0.45977 0.31081 0.04779 0.0
H3322 H 0.48016 0.22402 0.13908 0.0
H3323 H 0.49803 0.25403 0.15593 0.0
H3324 H 0.45937 0.24962 0.16008 0.0
H3325 H 0.50081 0.29263 0.02477 0.0
H3326 H 0.52978 0.28191 0.04894 0.0
H3327 H 0.50675 0.25493 0.03329 0.0
H3328 H 0.58934 0.23584 0.11393 0.0
H3329 H 0.53453 0.1728 0.07285 0.0
H3330 H 0.53519 0.28397 0.13578 0.0
H3331 H 0.54515 0.29618 0.10036 0.0
H3332 H 0.5728 0.28298 0.12491 0.0
H3333 H 0.46793 0.20555 0.08897 0.0
H3334 H 0.48503 0.18003 0.06482 0.0
H3335 H 0.47759 0.21661 0.05308 0.0
C3336 C 0.9664 0.19922 0.90046 0.0
C3337 C 0.93951 0.21145 0.9078 0.0
C3338 C 0.99189 0.21599 0.89994 0.0
C3339 C 0.99042 0.246 0.9062 0.0
C3340 C 0.96306 0.25863 0.91293 0.0
C3341 C 0.93796 0.24105 0.91417 0.0
C3342 C 0.02055 0.20134 0.89367 0.0
C3343 C 0.96038 0.29063 0.91917 0.0
C3344 C 0.05795 0.28571 0.93331 0.0
C3345 C 0.06788 0.29963 0.90806 0.0
C3346 C 0.03328 0.26769 0.93286 0.0
C3347 C 0.01766 0.26384 0.90661 0.0
C3348 C 0.02817 0.27701 0.88083 0.0
C3349 C 0.05329 0.29447 0.8818 0.0
C3350 C 0.02337 0.25357 0.96074 0.0
C3351 C 0.01207 0.27379 0.85246 0.0
H3352 H 0.96764 0.17613 0.89612 0.0
H3353 H 0.9172 0.2504 0.92011 0.0
H3354 H 0.03151 0.2121 0.87513 0.0
H3355 H 0.03514 0.20341 0.91275 0.0
H3356 H 0.01792 0.17793 0.88861 0.0
H3357 H 0.93742 0.29743 0.92214 0.0
H3358 H 0.97272 0.29604 0.93914 0.0
H3359 H 0.96995 0.30343 0.90114 0.0
H3360 H 0.0689 0.28979 0.95374 0.0
H3361 H 0.06033 0.30566 0.86233 0.0
H3362 H 0.02068 0.22986 0.95761 0.0
H3363 H 1.0019 0.26241 0.96711 0.0
H3364 H 0.0389 0.25721 0.97886 0.0
H3365 H 0.01045 0.25054 0.84656 0.0
H3366 H 0.02285 0.28564 0.83442 0.0
H3367 H 0.98957 0.28214 0.85477 0.0
C3368 C 0.96232 0.80267 0.13258 0.0
C3369 C 0.95774 0.81624 0.1594 0.0
C3370 C 0.98154 0.77914 0.12997 0.0
C3371 C 0.99665 0.76896 0.15478 0.0
C3372 C 0.9935 0.78379 0.1815 0.0
C3373 C 0.97381 0.80701 0.18357 0.0
C3374 C 0.98391 0.76402 0.10106 0.0
C3375 C 0.01011 0.77444 0.20822 0.0
C3376 C 0.0214 0.69033 0.1627 0.0
C3377 C 0.05067 0.69249 0.15506 0.0
C3378 C 1.00312 0.71481 0.16114 0.0
C3379 C 0.01489 0.74222 0.15323 0.0
C3380 C 0.04446 0.74424 0.14518 0.0
C3381 C 0.06186 0.71925 0.14583 0.0
C3382 C 0.97141 0.71154 0.16867 0.0
C3383 C 0.05806 0.77299 0.13712 0.0
H3384 H 0.94937 0.8091 0.11397 0.0
H3385 H 0.9702 0.81731 0.20438 0.0
H3386 H 0.00637 0.75647 0.09682 0.0
H3387 H 0.96957 0.74466 0.10116 0.0
H3388 H 0.97709 0.77846 0.08294 0.0
H3389 H 0.00731 0.78984 0.2265 0.0
H3390 H 1.00252 0.75272 0.21533 0.0
H3391 H 0.03362 0.77259 0.20324 0.0
H3392 H 0.01296 0.66968 0.17022 0.0
H3393 H 0.08477 0.72092 0.14056 0.0
H3394 H 0.95772 0.72099 0.15118 0.0
H3395 H 0.96661 0.72359 0.18889 0.0
H3396 H 0.96513 0.68847 0.17183 0.0
H3397 H 0.04617 0.78296 0.11865 0.0
H3398 H 0.08131 0.77078 0.13107 0.0
H3399 H 0.05642 0.7882 0.15567 0.0
C3400 C 0.53916 0.81161 0.39442 0.0
C3401 C 0.56437 0.80128 0.40813 0.0
C3402 C 0.51415 0.79434 0.39221 0.0
C3403 C 0.51457 0.76568 0.40331 0.0
C3404 C 0.54056 0.75467 0.41594 0.0
C3405 C 0.56505 0.77285 0.41873 0.0
C3406 C 0.48681 0.80737 0.37948 0.0
C3407 C 0.5422 0.72397 0.42727 0.0
C3408 C 0.44524 0.7292 0.4297 0.0
C3409 C 0.43854 0.71063 0.4066 0.0
C3410 C 0.46917 0.74809 0.42835 0.0
C3411 C 0.48734 0.74796 0.40356 0.0
C3412 C 0.47988 0.73025 0.37958 0.0
C3413 C 0.45541 0.71199 0.38129 0.0
C3414 C 0.47576 0.76722 0.45408 0.0
C3415 C 0.49874 0.72925 0.35284 0.0
H3416 H 0.53856 0.83387 0.38672 0.0
H3417 H 0.5845 0.76503 0.4295 0.0
H3418 H 0.47777 0.79312 0.36235 0.0
H3419 H 0.47007 0.80923 0.39667 0.0
H3420 H 0.49062 0.82927 0.37008 0.0
H3421 H 0.5646 0.71788 0.43392 0.0
H3422 H 0.52766 0.72151 0.44628 0.0
H3423 H 0.53461 0.70855 0.41043 0.0
H3424 H 0.43244 0.72804 0.44939 0.0
H3425 H 0.45072 0.69728 0.36358 0.0
H3426 H 0.47922 0.78996 0.4469 0.0
H3427 H 0.4961 0.75982 0.46473 0.0
H3428 H 0.45805 0.76685 0.47041 0.0
H3429 H 0.5019 0.75139 0.34392 0.0
H3430 H 0.48931 0.7153 0.33559 0.0
H3431 H 0.52054 0.72071 0.35868 0.0
C3432 C 0.94299 0.77738 0.59899 0.0
C3433 C 0.94737 0.80568 0.58864 0.0
C3434 C 0.96635 0.75739 0.60044 0.0
C3435 C 0.99489 0.76638 0.59267 0.0
C3436 C 0.99934 0.79532 0.58333 0.0
C3437 C 0.97559 0.81429 0.58094 0.0
C3438 C 0.96039 0.72656 0.60973 0.0
C3439 C 0.02932 0.80641 0.57588 0.0
C3440 C 0.06136 0.72324 0.61851 0.0
C3441 C 0.07071 0.70974 0.59288 0.0
C3442 C 0.03691 0.74173 0.61885 0.0
C3443 C 0.02017 0.7457 0.59327 0.0
C3444 C 0.02891 0.73144 0.56752 0.0
C3445 C 0.05421 0.71422 0.5675 0.0
C3446 C 0.02917 0.75724 0.64657 0.0
C3447 C 0.01128 0.73407 0.53997 0.0
H3448 H 0.9213 0.77072 0.60525 0.0
H3449 H 0.97926 0.83637 0.5736 0.0
H3450 H 0.96787 0.71133 0.59269 0.0
H3451 H 0.97276 0.72141 0.62976 0.0
H3452 H 0.93695 0.72265 0.61389 0.0
H3453 H 0.02946 0.83011 0.57139 0.0
H3454 H 0.04461 0.80188 0.59399 0.0
H3455 H 0.03764 0.795 0.55646 0.0
H3456 H 0.07293 0.71919 0.63849 0.0
H3457 H 0.06043 0.70335 0.54764 0.0
H3458 H 0.00725 0.75052 0.6539 0.0
H3459 H 0.02845 0.78101 0.64269 0.0
H3460 H 0.04494 0.75274 0.6643 0.0
H3461 H 0.98841 0.72771 0.54421 0.0
H3462 H 0.01995 0.72029 0.52225 0.0
H3463 H 0.01105 0.75694 0.53242 0.0
C3464 C 0.02544 0.31665 0.34061 0.0
C3465 C 0.05529 0.31104 0.34027 0.0
C3466 C 0.00533 0.29357 0.34191 0.0
C3467 C 0.01549 0.26446 0.34343 0.0
C3468 C 0.04573 0.25904 0.3443 0.0
C3469 C 0.06519 0.28236 0.34245 0.0
C3470 C 0.97326 0.30022 0.34083 0.0
C3471 C 0.0576 0.22855 0.34638 0.0
C3472 C 0.96281 0.20481 0.3666 0.0
C3473 C 0.95383 0.19363 0.33972 0.0
C3474 C 0.98313 0.22758 0.36824 0.0
C3475 C 0.99471 0.23955 0.34238 0.0
C3476 C 0.98663 0.22753 0.31528 0.0
C3477 C 0.96628 0.20483 0.31429 0.0
C3478 C 0.99144 0.23947 0.3976 0.0
C3479 C 0.99882 0.23924 0.28719 0.0
H3480 H 0.01791 0.33889 0.33909 0.0
H3481 H 0.08839 0.27817 0.3425 0.0
H3482 H 0.96361 0.29063 0.32096 0.0
H3483 H 0.96214 0.29022 0.3597 0.0
H3484 H 0.96884 0.32392 0.3408 0.0
H3485 H 0.08153 0.22826 0.34939 0.0
H3486 H 0.04741 0.21677 0.36475 0.0
H3487 H 0.05225 0.21647 0.32628 0.0
H3488 H 0.9529 0.19679 0.38636 0.0
H3489 H 0.95946 0.19638 0.29344 0.0
H3490 H 0.9836 0.26214 0.39955 0.0
H3491 H 0.01542 0.23995 0.40002 0.0
H3492 H 0.98214 0.22647 0.41568 0.0
H3493 H 0.99217 0.26222 0.28437 0.0
H3494 H 0.99129 0.22672 0.26804 0.0
H3495 H 0.02291 0.23874 0.28776 0.0
C3496 C 0.48102 0.69474 0.85013 0.0
C3497 C 0.45353 0.69989 0.83802 0.0
C3498 C 0.50226 0.71694 0.85088 0.0
C3499 C 0.49553 0.74508 0.83999 0.0
C3500 C 0.46759 0.75032 0.82828 0.0
C3501 C 0.44724 0.72772 0.82716 0.0
C3502 C 0.53194 0.71029 0.86315 0.0
C3503 C 0.45898 0.77997 0.81713 0.0
C3504 C 0.53892 0.81113 0.86514 0.0
C3505 C 0.55515 0.81832 0.84036 0.0
C3506 C 0.51957 0.78744 0.86542 0.0
C3507 C 0.5173 0.76932 0.84074 0.0
C3508 C 0.53432 0.77576 0.81595 0.0
C3509 C 0.55253 0.80036 0.81585 0.0
C3510 C 0.50107 0.78227 0.89196 0.0
C3511 C 0.53361 0.75637 0.78961 0.0
H3512 H 0.48618 0.67332 0.85835 0.0
H3513 H 0.42587 0.7321 0.8182 0.0
H3514 H 0.54891 0.71575 0.84696 0.0
H3515 H 0.53603 0.72387 0.88256 0.0
H3516 H 0.53427 0.68711 0.86942 0.0
H3517 H 0.43595 0.78079 0.80991 0.0
H3518 H 0.46224 0.79644 0.83435 0.0
H3519 H 0.47297 0.78618 0.79856 0.0
H3520 H 0.54154 0.82376 0.8846 0.0
H3521 H 0.56555 0.80487 0.79681 0.0
H3522 H 0.50114 0.75903 0.89822 0.0
H3523 H 0.47826 0.78833 0.88696 0.0
H3524 H 0.5085 0.79524 0.91083 0.0
H3525 H 0.5388 0.73373 0.79605 0.0
H3526 H 0.54925 0.7634 0.77266 0.0
H3527 H 0.51148 0.75621 0.78004 0.0
C3528 C 0.57508 0.03343 0.69265 0.0
C3529 C 0.59167 0.05877 0.69646 0.0
C3530 C 0.57791 0.00955 0.71143 0.0
C3531 C 0.59777 0.01081 0.73487 0.0
C3532 C 0.61443 0.03631 0.73909 0.0
C3533 C 0.61107 0.05994 0.71994 0.0
C3534 C 0.55931 0.98303 0.70637 0.0
C3535 C 0.63541 0.03885 0.76418 0.0
C3536 C 0.5774 0.96514 0.80004 0.0
C3537 C 0.59633 0.94124 0.79813 0.0
C3538 C 0.57826 0.98798 0.78007 0.0
C3539 C 0.59824 0.98698 0.75691 0.0
C3540 C 0.61758 0.96304 0.75463 0.0
C3541 C 0.61673 0.94055 0.77559 0.0
C3542 C 0.55767 0.01326 0.7839 0.0
C3543 C 0.63891 0.96111 0.72992 0.0
H3544 H 0.56019 0.03192 0.67447 0.0
H3545 H 0.62329 0.07938 0.72383 0.0
H3546 H 0.5731 0.96331 0.70554 0.0
H3547 H 0.54394 0.98022 0.72467 0.0
H3548 H 0.54657 0.98455 0.68592 0.0
H3549 H 0.64783 0.05949 0.76366 0.0
H3550 H 0.62338 0.03761 0.78499 0.0
H3551 H 0.651 0.0205 0.76391 0.0
H3552 H 0.56206 0.96649 0.81781 0.0
H3553 H 0.63161 0.9224 0.77413 0.0
H3554 H 0.5429 0.01489 0.76493 0.0
H3555 H 0.57004 0.03388 0.78512 0.0
H3556 H 0.54423 0.01121 0.80381 0.0
H3557 H 0.62704 0.96116 0.70894 0.0
H3558 H 0.65251 0.94124 0.73118 0.0
H3559 H 0.65335 0.98039 0.72994 0.0
C3560 C 0.30944 0.32266 0.03237 0.0
C3561 C 0.31579 0.34537 0.05148 0.0
C3562 C 0.28619 0.32474 0.01266 0.0
C3563 C 0.26815 0.34969 0.01287 0.0
C3564 C 0.27477 0.37288 0.03186 0.0
C3565 C 0.29882 0.37065 0.05057 0.0
C3566 C 0.28052 0.29991 0.99212 0.0
C3567 C 0.25555 0.39938 0.03353 0.0
C3568 C 0.22145 0.36428 0.94638 0.0
C3569 C 0.19545 0.35032 0.95373 0.0
C3570 C 0.24512 0.36463 0.96558 0.0
C3571 C 0.2424 0.35144 0.99321 0.0
C3572 C 0.2155 0.3387 1.00135 0.0
C3573 C 0.19248 0.33771 0.98119 0.0
C3574 C 0.27359 0.37751 0.95556 0.0
C3575 C 0.21141 0.32509 0.03088 0.0
H3576 H 0.32233 0.30298 0.03329 0.0
H3577 H 0.30317 0.38794 0.06588 0.0
H3578 H 0.25967 0.28925 0.99774 0.0
H3579 H 0.27854 0.3081 0.96954 0.0
H3580 H 0.29802 0.28332 0.99291 0.0
H3581 H 0.26401 0.41578 0.04902 0.0
H3582 H 0.25341 0.40965 0.01185 0.0
H3583 H 0.23343 0.39284 0.0405 0.0
H3584 H 0.22388 0.37335 0.92476 0.0
H3585 H 0.17252 0.32643 0.98656 0.0
H3586 H 0.2905 0.36034 0.95511 0.0
H3587 H 0.28106 0.39437 0.97097 0.0
H3588 H 0.27195 0.38734 0.93358 0.0
H3589 H 0.2239 0.30455 0.03217 0.0
H3590 H 0.18822 0.32018 0.03539 0.0
H3591 H 0.2198 0.33967 0.0481 0.0
C3592 C 0.88367 0.96494 0.19907 0.0
C3593 C 0.89966 0.94074 0.20838 0.0
C3594 C 0.88229 0.99022 0.21589 0.0
C3595 C 0.89636 0.99086 0.24319 0.0
C3596 C 0.91081 0.96565 0.25358 0.0
C3597 C 0.91297 0.94108 0.23566 0.0
C3598 C 0.86778 0.01691 0.20339 0.0
C3599 C 0.92513 0.96509 0.28307 0.0
C3600 C 0.92489 0.06128 0.27516 0.0
C3601 C 0.90315 0.06815 0.29519 0.0
C3602 C 0.92227 0.03692 0.25711 0.0
C3603 C 0.89778 0.01845 0.25992 0.0
C3604 C 0.87528 0.02591 0.27941 0.0
C3605 C 0.87806 0.05091 0.29653 0.0
C3606 C 0.94632 0.03031 0.2359 0.0
C3607 C 0.84915 0.00652 0.28354 0.0
H3608 H 0.87414 0.96491 0.17751 0.0
H3609 H 0.92578 0.92254 0.24253 0.0
H3610 H 0.85251 0.02655 0.21924 0.0
H3611 H 0.88453 0.03356 0.19859 0.0
H3612 H 0.85572 0.01215 0.18305 0.0
H3613 H 0.9323 0.94292 0.28932 0.0
H3614 H 0.94438 0.97957 0.28303 0.0
H3615 H 0.90992 0.9733 0.29981 0.0
H3616 H 0.94443 0.0744 0.27436 0.0
H3617 H 0.86149 0.05578 0.31248 0.0
H3618 H 0.93716 0.02583 0.21408 0.0
H3619 H 0.9582 0.01059 0.24302 0.0
H3620 H 0.96213 0.04844 0.23408 0.0
H3621 H 0.83816 1.00263 0.26248 0.0
H3622 H 0.83312 0.01587 0.2989 0.0
H3623 H 0.8563 0.9851 0.292 0.0
C3624 C 0.19117 0.65656 0.52295 0.0
C3625 C 0.19612 0.66221 0.55234 0.0
C3626 C 0.21466 0.65557 0.50329 0.0
C3627 C 0.24352 0.65974 0.51359 0.0
C3628 C 0.2484 0.66427 0.54352 0.0
C3629 C 0.22467 0.66568 0.56238 0.0
C3630 C 0.20862 0.65095 0.47146 0.0
C3631 C 0.27866 0.66825 0.55566 0.0
C3632 C 0.30731 0.63572 0.46692 0.0
C3633 C 0.31798 0.66223 0.45629 0.0
C3634 C 0.28352 0.63457 0.48596 0.0
C3635 C 0.26871 0.66045 0.49323 0.0
C3636 C 0.27889 0.68728 0.48216 0.0
C3637 C 0.30365 0.68791 0.46435 0.0
C3638 C 0.2742 0.60562 0.49825 0.0
C3639 C 0.26324 0.71532 0.48865 0.0
H3640 H 0.16906 0.65388 0.51527 0.0
H3641 H 0.22843 0.66981 0.58525 0.0
H3642 H 0.21643 0.66994 0.45884 0.0
H3643 H 0.22065 0.6317 0.46356 0.0
H3644 H 0.18511 0.64781 0.46695 0.0
H3645 H 0.27884 0.66921 0.57975 0.0
H3646 H 0.29295 0.6502 0.54866 0.0
H3647 H 0.28819 0.68867 0.54714 0.0
H3648 H 0.31699 0.61567 0.45978 0.0
H3649 H 0.31107 0.70854 0.4558 0.0
H3650 H 0.25148 0.60085 0.49179 0.0
H3651 H 0.2748 0.60636 0.52231 0.0
H3652 H 0.28831 0.58755 0.49086 0.0
H3653 H 0.24031 0.71377 0.48132 0.0
H3654 H 0.27349 0.73429 0.47783 0.0
H3655 H 0.26293 0.71923 0.51237 0.0
C3656 C 0.73274 0.59169 0.06611 0.0
C3657 C 0.70442 0.60251 0.06411 0.0
C3658 C 0.75146 0.59249 0.0419 0.0
C3659 C 0.74118 0.60342 0.01488 0.0
C3660 C 0.7125 0.61436 0.01297 0.0
C3661 C 0.69463 0.61404 0.03766 0.0
C3662 C 0.782 0.58102 0.04505 0.0
C3663 C 0.7002 0.62519 0.98451 0.0
C3664 C 0.79652 0.62501 0.95701 0.0
C3665 C 0.79922 0.59925 0.94109 0.0
C3666 C 0.77749 0.62682 0.98085 0.0
C3667 C 0.76006 0.60259 0.98842 0.0
C3668 C 0.76122 0.57727 0.97104 0.0
C3669 C 0.78113 0.57574 0.94797 0.0
C3670 C 0.77742 0.654 0.99906 0.0
C3671 C 0.74243 0.55123 0.9776 0.0
H3672 H 0.74006 0.58224 0.08641 0.0
H3673 H 0.67239 0.62167 0.03597 0.0
H3674 H 0.78468 0.56133 0.03154 0.0
H3675 H 0.79784 0.59739 0.03717 0.0
H3676 H 0.78737 0.57538 0.06789 0.0
H3677 H 0.67768 0.63356 0.98678 0.0
H3678 H 0.71407 0.6427 0.97553 0.0
H3679 H 0.70006 0.60728 0.96846 0.0
H3680 H 0.81092 0.64303 0.95226 0.0
H3681 H 0.78338 0.55568 0.93595 0.0
H3682 H 0.78546 0.64883 0.0212 0.0
H3683 H 0.75499 0.66245 1.00134 0.0
H3684 H 0.79131 0.67135 0.98967 0.0
H3685 H 0.7503 0.54046 0.99768 0.0
H3686 H 0.7428 0.53511 0.95973 0.0
H3687 H 0.7196 0.55796 0.98139 0.0
C3688 C 0.6514 0.47986 0.31827 0.0
C3689 C 0.66824 0.45467 0.31607 0.0
C3690 C 0.65062 0.50023 0.29537 0.0
C3691 C 0.66632 0.49468 0.26947 0.0
C3692 C 0.68271 0.46887 0.26701 0.0
C3693 C 0.68376 0.44947 0.2904 0.0
C3694 C 0.6334 0.52782 0.29903 0.0
C3695 C 0.69921 0.46169 0.23963 0.0
C3696 C 0.64777 0.53625 0.20016 0.0
C3697 C 0.6703 0.55673 0.19883 0.0
C3698 C 0.64613 0.51585 0.22291 0.0
C3699 C 0.66711 0.51639 0.24542 0.0
C3700 C 0.68998 0.53682 0.24424 0.0
C3701 C 0.69149 0.55635 0.22092 0.0
C3702 C 0.62194 0.49372 0.22284 0.0
C3703 C 0.71269 0.53839 0.26791 0.0
H3704 H 0.63935 0.48391 0.33799 0.0
H3705 H 0.69626 0.42964 0.28826 0.0
H3706 H 0.64794 0.54688 0.29657 0.0
H3707 H 0.61656 0.52944 0.28186 0.0
H3708 H 0.62261 0.529 0.32054 0.0
H3709 H 0.7092 0.43976 0.24049 0.0
H3710 H 0.68448 0.46276 0.22057 0.0
H3711 H 0.71669 0.47787 0.23608 0.0
H3712 H 0.63126 0.53603 0.18371 0.0
H3713 H 0.70897 0.57209 0.22068 0.0
H3714 H 0.60827 0.49642 0.24244 0.0
H3715 H 0.63117 0.47149 0.22366 0.0
H3716 H 0.60784 0.49559 0.20333 0.0
H3717 H 0.70204 0.54193 0.28919 0.0
H3718 H 0.72862 0.55612 0.2642 0.0
H3719 H 0.72469 0.51757 0.26935 0.0
C3720 C 0.8111 0.40351 0.53605 0.0
C3721 C 0.80202 0.4122 0.56369 0.0
C3722 C 0.79185 0.40345 0.51243 0.0
C3723 C 0.76263 0.41199 0.51664 0.0
C3724 C 0.75309 0.41977 0.54487 0.0
C3725 C 0.77307 0.42013 0.5681 0.0
C3726 C 0.80308 0.39523 0.48279 0.0
C3727 C 0.72194 0.42827 0.55036 0.0
C3728 C 0.71814 0.44148 0.45317 0.0
C3729 C 0.702 0.41707 0.44499 0.0
C3730 C 0.73858 0.4399 0.47588 0.0
C3731 C 0.74232 0.41349 0.49135 0.0
C3732 C 0.72649 0.38862 0.48273 0.0
C3733 C 0.70666 0.39069 0.45962 0.0
C3734 C 0.75586 0.46661 0.48365 0.0
C3735 C 0.7294 0.3601 0.4987 0.0
H3736 H 0.8337 0.39774 0.53271 0.0
H3737 H 0.76624 0.42708 0.58947 0.0
H3738 H 0.78962 0.37766 0.47335 0.0
H3739 H 0.80146 0.41419 0.46797 0.0
H3740 H 0.82607 0.38789 0.48345 0.0
H3741 H 0.71758 0.43209 0.57373 0.0
H3742 H 0.71667 0.44835 0.53811 0.0
H3743 H 0.70713 0.41099 0.54246 0.0
H3744 H 0.71453 0.46192 0.44202 0.0
H3745 H 0.69369 0.37189 0.45401 0.0
H3746 H 0.77943 0.46155 0.48366 0.0
H3747 H 0.7501 0.4738 0.50585 0.0
H3748 H 0.75184 0.48485 0.46834 0.0
H3749 H 0.75254 0.3547 0.50274 0.0
H3750 H 0.71928 0.34192 0.48654 0.0
H3751 H 0.71859 0.36185 0.52012 0.0
C3752 C 0.84161 0.48298 0.69448 0.0
C3753 C 0.85579 0.45614 0.69375 0.0
C3754 C 0.84359 0.50094 0.71912 0.0
C3755 C 0.85882 0.49106 0.74413 0.0
C3756 C 0.8734 0.46401 0.74322 0.0
C3757 C 0.87214 0.44719 0.71787 0.0
C3758 C 0.82853 0.53002 0.71874 0.0
C3759 C 0.88858 0.45185 0.76968 0.0
C3760 C 0.87985 0.54512 0.80312 0.0
C3761 C 0.85546 0.54429 0.82133 0.0
C3762 C 0.88135 0.52782 0.77805 0.0
C3763 C 0.85843 0.50834 0.7716 0.0
C3764 C 0.83471 0.50596 0.79109 0.0
C3765 C 0.83321 0.52442 0.81532 0.0
C3766 C 0.90652 0.53183 0.75745 0.0
C3767 C 0.81022 0.48484 0.78576 0.0
H3768 H 0.82839 0.48955 0.67611 0.0
H3769 H 0.88227 0.42593 0.71764 0.0
H3770 H 0.80944 0.52943 0.73336 0.0
H3771 H 0.84337 0.54718 0.72683 0.0
H3772 H 0.82094 0.5361 0.69664 0.0
H3773 H 0.90013 0.43122 0.76499 0.0
H3774 H 0.90447 0.46769 0.77839 0.0
H3775 H 0.87235 0.44773 0.78699 0.0
H3776 H 0.89676 0.56098 0.80721 0.0
H3777 H 0.81412 0.52402 0.82906 0.0
H3778 H 0.89833 0.54007 0.7363 0.0
H3779 H 0.91733 0.51077 0.75325 0.0
H3780 H 0.92296 0.54732 0.7659 0.0
H3781 H 0.79631 0.49299 0.76783 0.0
H3782 H 0.79639 0.48194 0.80528 0.0
H3783 H 0.81883 0.46335 0.77918 0.0
C3784 C 0.45473 0.29551 0.63997 0.0
C3785 C 0.46437 0.32096 0.65359 0.0
C3786 C 0.47146 0.26997 0.64051 0.0
C3787 C 0.49915 0.2701 0.65399 0.0
C3788 C 0.50953 0.29619 0.66667 0.0
C3789 C 0.49168 0.32108 0.66701 0.0
C3790 C 0.45892 0.24252 0.62777 0.0
C3791 C 0.53936 0.2977 0.6802 0.0
C3792 C 0.53535 0.20066 0.68186 0.0
C3793 C 0.55387 0.19353 0.65884 0.0
C3794 C 0.51645 0.22469 0.68003 0.0
C3795 C 0.51705 0.24289 0.65513 0.0
C3796 C 0.53527 0.23535 0.63158 0.0
C3797 C 0.55307 0.21058 0.63355 0.0
C3798 C 0.4963 0.23092 0.70504 0.0
C3799 C 0.53739 0.25438 0.60494 0.0
H3800 H 0.43323 0.2951 0.63028 0.0
H3801 H 0.49898 0.3406 0.67788 0.0
H3802 H 0.47383 0.23343 0.61126 0.0
H3803 H 0.45653 0.22593 0.64511 0.0
H3804 H 0.43735 0.24616 0.61753 0.0
H3805 H 0.54507 0.32005 0.68715 0.0
H3806 H 0.54042 0.28318 0.6994 0.0
H3807 H 0.55593 0.29005 0.66452 0.0
H3808 H 0.53598 0.18768 0.70151 0.0
H3809 H 0.5678 0.20562 0.61591 0.0
H3810 H 0.47384 0.23449 0.69697 0.0
H3811 H 0.50325 0.25106 0.71617 0.0
H3812 H 0.49602 0.21297 0.72118 0.0
H3813 H 0.51559 0.26108 0.59718 0.0
H3814 H 0.54881 0.24327 0.58692 0.0
H3815 H 0.54955 0.27442 0.61048 0.0
loop_
_geom_bond_atom_site_label_1
_geom_bond_atom_site_label_2
_geom_bond_distance
_geom_bond_site_symmetry_2
_ccdc_geom_bond_type
C0 O27 1.312 . S
C0 O28 1.208 . S
C1 O22 1.331 . S
C1 O25 1.244 . S
C2 O24 1.264 . S
C2 O26 1.273 . S
Mg3 O5 1.936 . S
Mg3 O12 2.081 . S
Mg3 O14 2.023 . S
Mg3 O18 2.031 . S
Mg3 O27 2.291 . S
Mg4 O5 1.963 . S
Mg4 O15 1.942 . S
Mg4 O16 1.955 . S
Mg4 O23 1.986 . S
O5 Mg3 1.936 . S
O5 Mg4 1.963 . S
O5 Mg6 1.915 . S
Mg6 O5 1.915 . S
Mg6 O7 1.915 . S
Mg6 O11 2.013 . S
Mg6 O17 2.114 . S
Mg6 O21 2.013 . S
Mg6 O27 2.114 . S
O7 Mg6 1.915 . S
O7 Mg8 1.936 . S
O7 Mg9 1.963 . S
Mg8 O7 1.936 . S
Mg8 O17 2.291 . S
Mg8 O22 2.081 . S
Mg8 O24 2.023 . S
Mg8 O28 2.031 . S
Mg9 O7 1.963 . S
Mg9 O13 1.986 . S
Mg9 O25 1.942 . S
Mg9 O26 1.955 . S
C10 O21 1.191 . S
C10 O23 1.307 . S
O11 Mg6 2.013 . S
O11 C30 1.191 . S
O12 Mg3 2.081 . S
O12 C20 1.331 . S
O13 Mg9 1.986 . S
O13 C30 1.307 . S
O14 Mg3 2.023 . S
O14 C29 1.264 . S
O15 Mg4 1.942 . S
O15 C20 1.244 . S
O16 Mg4 1.955 . S
O16 C29 1.273 . S
O17 Mg6 2.114 . S
O17 Mg8 2.291 . S
O17 C19 1.312 . S
O18 Mg3 2.031 . S
O18 C19 1.208 . S
C19 O17 1.312 . S
C19 O18 1.208 . S
C20 O12 1.331 . S
C20 O15 1.244 . S
O21 Mg6 2.013 . S
O21 C10 1.191 . S
O22 C1 1.331 . S
O22 Mg8 2.081 . S
O23 Mg4 1.986 . S
O23 C10 1.307 . S
O24 C2 1.264 . S
O24 Mg8 2.023 . S
O25 C1 1.244 . S
O25 Mg9 1.942 . S
O26 C2 1.273 . S
O26 Mg9 1.955 . S
O27 C0 1.312 . S
O27 Mg3 2.291 . S
O27 Mg6 2.114 . S
O28 C0 1.208 . S
O28 Mg8 2.031 . S
C29 O14 1.264 . S
C29 O16 1.273 . S
C30 O11 1.191 . S
C30 O13 1.307 . S
C31 O58 1.312 . S
C31 O59 1.208 . S
C32 O53 1.331 . S
C32 O56 1.244 . S
C33 O55 1.264 . S
C33 O57 1.273 . S
Mg34 O36 1.936 . S
Mg34 O43 2.081 . S
Mg34 O45 2.023 . S
Mg34 O49 2.031 . S
Mg34 O58 2.291 . S
Mg35 O36 1.963 . S
Mg35 O46 1.942 . S
Mg35 O47 1.955 . S
Mg35 O54 1.986 . S
O36 Mg34 1.936 . S
O36 Mg35 1.963 . S
O36 Mg37 1.915 . S
Mg37 O36 1.915 . S
Mg37 O38 1.915 . S
Mg37 O42 2.013 . S
Mg37 O48 2.114 . S
Mg37 O52 2.013 . S
Mg37 O58 2.114 . S
O38 Mg37 1.915 . S
O38 Mg39 1.936 . S
O38 Mg40 1.963 . S
Mg39 O38 1.936 . S
Mg39 O48 2.291 . S
Mg39 O53 2.081 . S
Mg39 O55 2.023 . S
Mg39 O59 2.031 . S
Mg40 O38 1.963 . S
Mg40 O44 1.986 . S
Mg40 O56 1.942 . S
Mg40 O57 1.955 . S
C41 O52 1.191 . S
C41 O54 1.307 . S
O42 Mg37 2.013 . S
O42 C61 1.191 . S
O43 Mg34 2.081 . S
O43 C51 1.331 . S
O44 Mg40 1.986 . S
O44 C61 1.307 . S
O45 Mg34 2.023 . S
O45 C60 1.264 . S
O46 Mg35 1.942 . S
O46 C51 1.244 . S
O47 Mg35 1.955 . S
O47 C60 1.273 . S
O48 Mg37 2.114 . S
O48 Mg39 2.291 . S
O48 C50 1.312 . S
O49 Mg34 2.031 . S
O49 C50 1.208 . S
C50 O48 1.312 . S
C50 O49 1.208 . S
C51 O43 1.331 . S
C51 O46 1.244 . S
O52 Mg37 2.013 . S
O52 C41 1.191 . S
O53 C32 1.331 . S
O53 Mg39 2.081 . S
O54 Mg35 1.986 . S
O54 C41 1.307 . S
O55 C33 1.264 . S
O55 Mg39 2.023 . S
O56 C32 1.244 . S
O56 Mg40 1.942 . S
O57 C33 1.273 . S
O57 Mg40 1.955 . S
O58 C31 1.312 . S
O58 Mg34 2.291 . S
O58 Mg37 2.114 . S
O59 C31 1.208 . S
O59 Mg39 2.031 . S
C60 O45 1.264 . S
C60 O47 1.273 . S
C61 O42 1.191 . S
C61 O44 1.307 . S
C62 O89 1.312 . S
C62 O90 1.208 . S
C63 O84 1.331 . S
C63 O87 1.244 . S
C64 O86 1.264 . S
C64 O88 1.273 . S
Mg65 O67 1.936 . S
Mg65 O74 2.081 . S
Mg65 O76 2.023 . S
Mg65 O80 2.031 . S
Mg65 O89 2.291 . S
Mg66 O67 1.963 . S
Mg66 O77 1.942 . S
Mg66 O78 1.955 . S
Mg66 O85 1.986 . S
O67 Mg65 1.936 . S
O67 Mg66 1.963 . S
O67 Mg68 1.915 . S
Mg68 O67 1.915 . S
Mg68 O69 1.915 . S
Mg68 O73 2.013 . S
Mg68 O79 2.114 . S
Mg68 O83 2.013 . S
Mg68 O89 2.114 . S
O69 Mg68 1.915 . S
O69 Mg70 1.936 . S
O69 Mg71 1.963 . S
Mg70 O69 1.936 . S
Mg70 O79 2.291 . S
Mg70 O84 2.081 . S
Mg70 O86 2.023 . S
Mg70 O90 2.031 . S
Mg71 O69 1.963 . S
Mg71 O75 1.986 . S
Mg71 O87 1.942 . S
Mg71 O88 1.955 . S
C72 O83 1.191 . S
C72 O85 1.307 . S
O73 Mg68 2.013 . S
O73 C92 1.191 . S
O74 Mg65 2.081 . S
O74 C82 1.331 . S
O75 Mg71 1.986 . S
O75 C92 1.307 . S
O76 Mg65 2.023 . S
O76 C91 1.264 . S
O77 Mg66 1.942 . S
O77 C82 1.244 . S
O78 Mg66 1.955 . S
O78 C91 1.273 . S
O79 Mg68 2.114 . S
O79 Mg70 2.291 . S
O79 C81 1.312 . S
O80 Mg65 2.031 . S
O80 C81 1.208 . S
C81 O79 1.312 . S
C81 O80 1.208 . S
C82 O74 1.331 . S
C82 O77 1.244 . S
O83 Mg68 2.013 . S
O83 C72 1.191 . S
O84 C63 1.331 . S
O84 Mg70 2.081 . S
O85 Mg66 1.986 . S
O85 C72 1.307 . S
O86 C64 1.264 . S
O86 Mg70 2.023 . S
O87 C63 1.244 . S
O87 Mg71 1.942 . S
O88 C64 1.273 . S
O88 Mg71 1.955 . S
O89 C62 1.312 . S
O89 Mg65 2.291 . S
O89 Mg68 2.114 . S
O90 C62 1.208 . S
O90 Mg70 2.031 . S
C91 O76 1.264 . S
C91 O78 1.273 . S
C92 O73 1.191 . S
C92 O75 1.307 . S
C93 O120 1.312 . S
C93 O121 1.208 . S
C94 O115 1.331 . S
C94 O118 1.244 . S
C95 O117 1.264 . S
C95 O119 1.273 . S
Mg96 O98 1.936 . S
Mg96 O105 2.081 . S
Mg96 O107 2.023 . S
Mg96 O111 2.031 . S
Mg96 O120 2.291 . S
Mg97 O98 1.963 . S
Mg97 O108 1.942 . S
Mg97 O109 1.955 . S
Mg97 O116 1.986 . S
O98 Mg96 1.936 . S
O98 Mg97 1.963 . S
O98 Mg99 1.915 . S
Mg99 O98 1.915 . S
Mg99 O100 1.915 . S
Mg99 O104 2.013 . S
Mg99 O110 2.114 . S
Mg99 O114 2.013 . S
Mg99 O120 2.114 . S
O100 Mg99 1.915 . S
O100 Mg101 1.936 . S
O100 Mg102 1.963 . S
Mg101 O100 1.936 . S
Mg101 O110 2.291 . S
Mg101 O115 2.081 . S
Mg101 O117 2.023 . S
Mg101 O121 2.031 . S
Mg102 O100 1.963 . S
Mg102 O106 1.986 . S
Mg102 O118 1.942 . S
Mg102 O119 1.955 . S
C103 O114 1.191 . S
C103 O116 1.307 . S
O104 Mg99 2.013 . S
O104 C123 1.191 . S
O105 Mg96 2.081 . S
O105 C113 1.331 . S
O106 Mg102 1.986 . S
O106 C123 1.307 . S
O107 Mg96 2.023 . S
O107 C122 1.264 . S
O108 Mg97 1.942 . S
O108 C113 1.244 . S
O109 Mg97 1.955 . S
O109 C122 1.273 . S
O110 Mg99 2.114 . S
O110 Mg101 2.291 . S
O110 C112 1.312 . S
O111 Mg96 2.031 . S
O111 C112 1.208 . S
C112 O110 1.312 . S
C112 O111 1.208 . S
C113 O105 1.331 . S
C113 O108 1.244 . S
O114 Mg99 2.013 . S
O114 C103 1.191 . S
O115 C94 1.331 . S
O115 Mg101 2.081 . S
O116 Mg97 1.986 . S
O116 C103 1.307 . S
O117 C95 1.264 . S
O117 Mg101 2.023 . S
O118 C94 1.244 . S
O118 Mg102 1.942 . S
O119 C95 1.273 . S
O119 Mg102 1.955 . S
O120 C93 1.312 . S
O120 Mg96 2.291 . S
O120 Mg99 2.114 . S
O121 C93 1.208 . S
O121 Mg101 2.031 . S
C122 O107 1.264 . S
C122 O109 1.273 . S
C123 O104 1.191 . S
C123 O106 1.307 . S
C124 O151 1.312 . S
C124 O152 1.208 . S
C125 O146 1.331 . S
C125 O149 1.244 . S
C126 O148 1.264 . S
C126 O150 1.273 . S
Mg127 O129 1.936 . S
Mg127 O136 2.081 . S
Mg127 O138 2.023 . S
Mg127 O142 2.031 . S
Mg127 O151 2.291 . S
Mg128 O129 1.963 . S
Mg128 O139 1.942 . S
Mg128 O140 1.955 . S
Mg128 O147 1.986 . S
O129 Mg127 1.936 . S
O129 Mg128 1.963 . S
O129 Mg130 1.915 . S
Mg130 O129 1.915 . S
Mg130 O131 1.915 . S
Mg130 O135 2.013 . S
Mg130 O141 2.114 . S
Mg130 O145 2.013 . S
Mg130 O151 2.114 . S
O131 Mg130 1.915 . S
O131 Mg132 1.936 . S
O131 Mg133 1.963 . S
Mg132 O131 1.936 . S
Mg132 O141 2.291 . S
Mg132 O146 2.081 . S
Mg132 O148 2.023 . S
Mg132 O152 2.031 . S
Mg133 O131 1.963 . S
Mg133 O137 1.986 . S
Mg133 O149 1.942 . S
Mg133 O150 1.955 . S
C134 O145 1.191 . S
C134 O147 1.307 . S
O135 Mg130 2.013 . S
O135 C154 1.191 . S
O136 Mg127 2.081 . S
O136 C144 1.331 . S
O137 Mg133 1.986 . S
O137 C154 1.307 . S
O138 Mg127 2.023 . S
O138 C153 1.264 . S
O139 Mg128 1.942 . S
O139 C144 1.244 . S
O140 Mg128 1.955 . S
O140 C153 1.273 . S
O141 Mg130 2.114 . S
O141 Mg132 2.291 . S
O141 C143 1.312 . S
O142 Mg127 2.031 . S
O142 C143 1.208 . S
C143 O141 1.312 . S
C143 O142 1.208 . S
C144 O136 1.331 . S
C144 O139 1.244 . S
O145 Mg130 2.013 . S
O145 C134 1.191 . S
O146 C125 1.331 . S
O146 Mg132 2.081 . S
O147 Mg128 1.986 . S
O147 C134 1.307 . S
O148 C126 1.264 . S
O148 Mg132 2.023 . S
O149 C125 1.244 . S
O149 Mg133 1.942 . S
O150 C126 1.273 . S
O150 Mg133 1.955 . S
O151 C124 1.312 . S
O151 Mg127 2.291 . S
O151 Mg130 2.114 . S
O152 C124 1.208 . S
O152 Mg132 2.031 . S
C153 O138 1.264 . S
C153 O140 1.273 . S
C154 O135 1.191 . S
C154 O137 1.307 . S
C155 O182 1.312 . S
C155 O183 1.208 . S
C156 O177 1.331 . S
C156 O180 1.244 . S
C157 O179 1.264 . S
C157 O181 1.273 . S
Mg158 O160 1.936 . S
Mg158 O167 2.081 . S
Mg158 O169 2.023 . S
Mg158 O173 2.031 . S
Mg158 O182 2.291 . S
Mg159 O160 1.963 . S
Mg159 O170 1.942 . S
Mg159 O171 1.955 . S
Mg159 O178 1.986 . S
O160 Mg158 1.936 . S
O160 Mg159 1.963 . S
O160 Mg161 1.915 . S
Mg161 O160 1.915 . S
Mg161 O162 1.915 . S
Mg161 O166 2.013 . S
Mg161 O172 2.114 . S
Mg161 O176 2.013 . S
Mg161 O182 2.114 . S
O162 Mg161 1.915 . S
O162 Mg163 1.936 . S
O162 Mg164 1.963 . S
Mg163 O162 1.936 . S
Mg163 O172 2.291 . S
Mg163 O177 2.081 . S
Mg163 O179 2.023 . S
Mg163 O183 2.031 . S
Mg164 O162 1.963 . S
Mg164 O168 1.986 . S
Mg164 O180 1.942 . S
Mg164 O181 1.955 . S
C165 O176 1.191 . S
C165 O178 1.307 . S
O166 Mg161 2.013 . S
O166 C185 1.191 . S
O167 Mg158 2.081 . S
O167 C175 1.331 . S
O168 Mg164 1.986 . S
O168 C185 1.307 . S
O169 Mg158 2.023 . S
O169 C184 1.264 . S
O170 Mg159 1.942 . S
O170 C175 1.244 . S
O171 Mg159 1.955 . S
O171 C184 1.273 . S
O172 Mg161 2.114 . S
O172 Mg163 2.291 . S
O172 C174 1.312 . S
O173 Mg158 2.031 . S
O173 C174 1.208 . S
C174 O172 1.312 . S
C174 O173 1.208 . S
C175 O167 1.331 . S
C175 O170 1.244 . S
O176 Mg161 2.013 . S
O176 C165 1.191 . S
O177 C156 1.331 . S
O177 Mg163 2.081 . S
O178 Mg159 1.986 . S
O178 C165 1.307 . S
O179 C157 1.264 . S
O179 Mg163 2.023 . S
O180 C156 1.244 . S
O180 Mg164 1.942 . S
O181 C157 1.273 . S
O181 Mg164 1.955 . S
O182 C155 1.312 . S
O182 Mg158 2.291 . S
O182 Mg161 2.114 . S
O183 C155 1.208 . S
O183 Mg163 2.031 . S
C184 O169 1.264 . S
C184 O171 1.273 . S
C185 O166 1.191 . S
C185 O168 1.307 . S
C186 O213 1.312 . S
C186 O214 1.208 . S
C187 O208 1.331 . S
C187 O211 1.244 . S
C188 O210 1.264 . S
C188 O212 1.273 . S
Mg189 O191 1.936 . S
Mg189 O198 2.081 . S
Mg189 O200 2.023 . S
Mg189 O204 2.031 . S
Mg189 O213 2.291 . S
Mg190 O191 1.963 . S
Mg190 O201 1.942 . S
Mg190 O202 1.955 . S
Mg190 O209 1.986 . S
O191 Mg189 1.936 . S
O191 Mg190 1.963 . S
O191 Mg192 1.915 . S
Mg192 O191 1.915 . S
Mg192 O193 1.915 . S
Mg192 O197 2.013 . S
Mg192 O203 2.114 . S
Mg192 O207 2.013 . S
Mg192 O213 2.114 . S
O193 Mg192 1.915 . S
O193 Mg194 1.936 . S
O193 Mg195 1.963 . S
Mg194 O193 1.936 . S
Mg194 O203 2.291 . S
Mg194 O208 2.081 . S
Mg194 O210 2.023 . S
Mg194 O214 2.031 . S
Mg195 O193 1.963 . S
Mg195 O199 1.986 . S
Mg195 O211 1.942 . S
Mg195 O212 1.955 . S
C196 O207 1.191 . S
C196 O209 1.307 . S
O197 Mg192 2.013 . S
O197 C216 1.191 . S
O198 Mg189 2.081 . S
O198 C206 1.331 . S
O199 Mg195 1.986 . S
O199 C216 1.307 . S
O200 Mg189 2.023 . S
O200 C215 1.264 . S
O201 Mg190 1.942 . S
O201 C206 1.244 . S
O202 Mg190 1.955 . S
O202 C215 1.273 . S
O203 Mg192 2.114 . S
O203 Mg194 2.291 . S
O203 C205 1.312 . S
O204 Mg189 2.031 . S
O204 C205 1.208 . S
C205 O203 1.312 . S
C205 O204 1.208 . S
C206 O198 1.331 . S
C206 O201 1.244 . S
O207 Mg192 2.013 . S
O207 C196 1.191 . S
O208 C187 1.331 . S
O208 Mg194 2.081 . S
O209 Mg190 1.986 . S
O209 C196 1.307 . S
O210 C188 1.264 . S
O210 Mg194 2.023 . S
O211 C187 1.244 . S
O211 Mg195 1.942 . S
O212 C188 1.273 . S
O212 Mg195 1.955 . S
O213 C186 1.312 . S
O213 Mg189 2.291 . S
O213 Mg192 2.114 . S
O214 C186 1.208 . S
O214 Mg194 2.031 . S
C215 O200 1.264 . S
C215 O202 1.273 . S
C216 O197 1.191 . S
C216 O199 1.307 . S
C217 O244 1.312 . S
C217 O245 1.208 . S
C218 O239 1.331 . S
C218 O242 1.244 . S
C219 O241 1.264 . S
C219 O243 1.273 . S
Mg220 O222 1.936 . S
Mg220 O229 2.081 . S
Mg220 O231 2.023 . S
Mg220 O235 2.031 . S
Mg220 O244 2.291 . S
Mg221 O222 1.963 . S
Mg221 O232 1.942 . S
Mg221 O233 1.955 . S
Mg221 O240 1.986 . S
O222 Mg220 1.936 . S
O222 Mg221 1.963 . S
O222 Mg223 1.915 . S
Mg223 O222 1.915 . S
Mg223 O224 1.915 . S
Mg223 O228 2.013 . S
Mg223 O234 2.114 . S
Mg223 O238 2.013 . S
Mg223 O244 2.114 . S
O224 Mg223 1.915 . S
O224 Mg225 1.936 . S
O224 Mg226 1.963 . S
Mg225 O224 1.936 . S
Mg225 O234 2.291 . S
Mg225 O239 2.081 . S
Mg225 O241 2.023 . S
Mg225 O245 2.031 . S
Mg226 O224 1.963 . S
Mg226 O230 1.986 . S
Mg226 O242 1.942 . S
Mg226 O243 1.955 . S
C227 O238 1.191 . S
C227 O240 1.307 . S
O228 Mg223 2.013 . S
O228 C247 1.191 . S
O229 Mg220 2.081 . S
O229 C237 1.331 . S
O230 Mg226 1.986 . S
O230 C247 1.307 . S
O231 Mg220 2.023 . S
O231 C246 1.264 . S
O232 Mg221 1.942 . S
O232 C237 1.244 . S
O233 Mg221 1.955 . S
O233 C246 1.273 . S
O234 Mg223 2.114 . S
O234 Mg225 2.291 . S
O234 C236 1.312 . S
O235 Mg220 2.031 . S
O235 C236 1.208 . S
C236 O234 1.312 . S
C236 O235 1.208 . S
C237 O229 1.331 . S
C237 O232 1.244 . S
O238 Mg223 2.013 . S
O238 C227 1.191 . S
O239 C218 1.331 . S
O239 Mg225 2.081 . S
O240 Mg221 1.986 . S
O240 C227 1.307 . S
O241 C219 1.264 . S
O241 Mg225 2.023 . S
O242 C218 1.244 . S
O242 Mg226 1.942 . S
O243 C219 1.273 . S
O243 Mg226 1.955 . S
O244 C217 1.312 . S
O244 Mg220 2.291 . S
O244 Mg223 2.114 . S
O245 C217 1.208 . S
O245 Mg225 2.031 . S
C246 O231 1.264 . S
C246 O233 1.273 . S
C247 O228 1.191 . S
C247 O230 1.307 . S
C248 O275 1.312 . S
C248 O276 1.208 . S
C249 O270 1.331 . S
C249 O273 1.244 . S
C250 O272 1.264 . S
C250 O274 1.273 . S
Mg251 O253 1.936 . S
Mg251 O260 2.081 . S
Mg251 O262 2.023 . S
Mg251 O266 2.031 . S
Mg251 O275 2.291 . S
Mg252 O253 1.963 . S
Mg252 O263 1.942 . S
Mg252 O264 1.955 . S
Mg252 O271 1.986 . S
O253 Mg251 1.936 . S
O253 Mg252 1.963 . S
O253 Mg254 1.915 . S
Mg254 O253 1.915 . S
Mg254 O255 1.915 . S
Mg254 O259 2.013 . S
Mg254 O265 2.114 . S
Mg254 O269 2.013 . S
Mg254 O275 2.114 . S
O255 Mg254 1.915 . S
O255 Mg256 1.936 . S
O255 Mg257 1.963 . S
Mg256 O255 1.936 . S
Mg256 O265 2.291 . S
Mg256 O270 2.081 . S
Mg256 O272 2.023 . S
Mg256 O276 2.031 . S
Mg257 O255 1.963 . S
Mg257 O261 1.986 . S
Mg257 O273 1.942 . S
Mg257 O274 1.955 . S
C258 O269 1.191 . S
C258 O271 1.307 . S
O259 Mg254 2.013 . S
O259 C278 1.191 . S
O260 Mg251 2.081 . S
O260 C268 1.331 . S
O261 Mg257 1.986 . S
O261 C278 1.307 . S
O262 Mg251 2.023 . S
O262 C277 1.264 . S
O263 Mg252 1.942 . S
O263 C268 1.244 . S
O264 Mg252 1.955 . S
O264 C277 1.273 . S
O265 Mg254 2.114 . S
O265 Mg256 2.291 . S
O265 C267 1.312 . S
O266 Mg251 2.031 . S
O266 C267 1.208 . S
C267 O265 1.312 . S
C267 O266 1.208 . S
C268 O260 1.331 . S
C268 O263 1.244 . S
O269 Mg254 2.013 . S
O269 C258 1.191 . S
O270 C249 1.331 . S
O270 Mg256 2.081 . S
O271 Mg252 1.986 . S
O271 C258 1.307 . S
O272 C250 1.264 . S
O272 Mg256 2.023 . S
O273 C249 1.244 . S
O273 Mg257 1.942 . S
O274 C250 1.273 . S
O274 Mg257 1.955 . S
O275 C248 1.312 . S
O275 Mg251 2.291 . S
O275 Mg254 2.114 . S
O276 C248 1.208 . S
O276 Mg256 2.031 . S
C277 O262 1.264 . S
C277 O264 1.273 . S
C278 O259 1.191 . S
C278 O261 1.307 . S
C279 O306 1.312 . S
C279 O307 1.208 . S
C280 O301 1.331 . S
C280 O304 1.244 . S
C281 O303 1.264 . S
C281 O305 1.273 . S
Mg282 O284 1.936 . S
Mg282 O291 2.081 . S
Mg282 O293 2.023 . S
Mg282 O297 2.031 . S
Mg282 O306 2.291 . S
Mg283 O284 1.963 . S
Mg283 O294 1.942 . S
Mg283 O295 1.955 . S
Mg283 O302 1.986 . S
O284 Mg282 1.936 . S
O284 Mg283 1.963 . S
O284 Mg285 1.915 . S
Mg285 O284 1.915 . S
Mg285 O286 1.915 . S
Mg285 O290 2.013 . S
Mg285 O296 2.114 . S
Mg285 O300 2.013 . S
Mg285 O306 2.114 . S
O286 Mg285 1.915 . S
O286 Mg287 1.936 . S
O286 Mg288 1.963 . S
Mg287 O286 1.936 . S
Mg287 O296 2.291 . S
Mg287 O301 2.081 . S
Mg287 O303 2.023 . S
Mg287 O307 2.031 . S
Mg288 O286 1.963 . S
Mg288 O292 1.986 . S
Mg288 O304 1.942 . S
Mg288 O305 1.955 . S
C289 O300 1.191 . S
C289 O302 1.307 . S
O290 Mg285 2.013 . S
O290 C309 1.191 . S
O291 Mg282 2.081 . S
O291 C299 1.331 . S
O292 Mg288 1.986 . S
O292 C309 1.307 . S
O293 Mg282 2.023 . S
O293 C308 1.264 . S
O294 Mg283 1.942 . S
O294 C299 1.244 . S
O295 Mg283 1.955 . S
O295 C308 1.273 . S
O296 Mg285 2.114 . S
O296 Mg287 2.291 . S
O296 C298 1.312 . S
O297 Mg282 2.031 . S
O297 C298 1.208 . S
C298 O296 1.312 . S
C298 O297 1.208 . S
C299 O291 1.331 . S
C299 O294 1.244 . S
O300 Mg285 2.013 . S
O300 C289 1.191 . S
O301 C280 1.331 . S
O301 Mg287 2.081 . S
O302 Mg283 1.986 . S
O302 C289 1.307 . S
O303 C281 1.264 . S
O303 Mg287 2.023 . S
O304 C280 1.244 . S
O304 Mg288 1.942 . S
O305 C281 1.273 . S
O305 Mg288 1.955 . S
O306 C279 1.312 . S
O306 Mg282 2.291 . S
O306 Mg285 2.114 . S
O307 C279 1.208 . S
O307 Mg287 2.031 . S
C308 O293 1.264 . S
C308 O295 1.273 . S
C309 O290 1.191 . S
C309 O292 1.307 . S
C310 O337 1.312 . S
C310 O338 1.208 . S
C311 O332 1.331 . S
C311 O335 1.244 . S
C312 O334 1.264 . S
C312 O336 1.273 . S
Mg313 O315 1.936 . S
Mg313 O322 2.081 . S
Mg313 O324 2.023 . S
Mg313 O328 2.031 . S
Mg313 O337 2.291 . S
Mg314 O315 1.963 . S
Mg314 O325 1.942 . S
Mg314 O326 1.955 . S
Mg314 O333 1.986 . S
O315 Mg313 1.936 . S
O315 Mg314 1.963 . S
O315 Mg316 1.915 . S
Mg316 O315 1.915 . S
Mg316 O317 1.915 . S
Mg316 O321 2.013 . S
Mg316 O327 2.114 . S
Mg316 O331 2.013 . S
Mg316 O337 2.114 . S
O317 Mg316 1.915 . S
O317 Mg318 1.936 . S
O317 Mg319 1.963 . S
Mg318 O317 1.936 . S
Mg318 O327 2.291 . S
Mg318 O332 2.081 . S
Mg318 O334 2.023 . S
Mg318 O338 2.031 . S
Mg319 O317 1.963 . S
Mg319 O323 1.986 . S
Mg319 O335 1.942 . S
Mg319 O336 1.955 . S
C320 O331 1.191 . S
C320 O333 1.307 . S
O321 Mg316 2.013 . S
O321 C340 1.191 . S
O322 Mg313 2.081 . S
O322 C330 1.331 . S
O323 Mg319 1.986 . S
O323 C340 1.307 . S
O324 Mg313 2.023 . S
O324 C339 1.264 . S
O325 Mg314 1.942 . S
O325 C330 1.244 . S
O326 Mg314 1.955 . S
O326 C339 1.273 . S
O327 Mg316 2.114 . S
O327 Mg318 2.291 . S
O327 C329 1.312 . S
O328 Mg313 2.031 . S
O328 C329 1.208 . S
C329 O327 1.312 . S
C329 O328 1.208 . S
C330 O322 1.331 . S
C330 O325 1.244 . S
O331 Mg316 2.013 . S
O331 C320 1.191 . S
O332 C311 1.331 . S
O332 Mg318 2.081 . S
O333 Mg314 1.986 . S
O333 C320 1.307 . S
O334 C312 1.264 . S
O334 Mg318 2.023 . S
O335 C311 1.244 . S
O335 Mg319 1.942 . S
O336 C312 1.273 . S
O336 Mg319 1.955 . S
O337 C310 1.312 . S
O337 Mg313 2.291 . S
O337 Mg316 2.114 . S
O338 C310 1.208 . S
O338 Mg318 2.031 . S
C339 O324 1.264 . S
C339 O326 1.273 . S
C340 O321 1.191 . S
C340 O323 1.307 . S
C341 O368 1.312 . S
C341 O369 1.208 . S
C342 O363 1.331 . S
C342 O366 1.244 . S
C343 O365 1.264 . S
C343 O367 1.273 . S
Mg344 O346 1.936 . S
Mg344 O353 2.081 . S
Mg344 O355 2.023 . S
Mg344 O359 2.031 . S
Mg344 O368 2.291 . S
Mg345 O346 1.963 . S
Mg345 O356 1.942 . S
Mg345 O357 1.955 . S
Mg345 O364 1.986 . S
O346 Mg344 1.936 . S
O346 Mg345 1.963 . S
O346 Mg347 1.915 . S
Mg347 O346 1.915 . S
Mg347 O348 1.915 . S
Mg347 O352 2.013 . S
Mg347 O358 2.114 . S
Mg347 O362 2.013 . S
Mg347 O368 2.114 . S
O348 Mg347 1.915 . S
O348 Mg349 1.936 . S
O348 Mg350 1.963 . S
Mg349 O348 1.936 . S
Mg349 O358 2.291 . S
Mg349 O363 2.081 . S
Mg349 O365 2.023 . S
Mg349 O369 2.031 . S
Mg350 O348 1.963 . S
Mg350 O354 1.986 . S
Mg350 O366 1.942 . S
Mg350 O367 1.955 . S
C351 O362 1.191 . S
C351 O364 1.307 . S
O352 Mg347 2.013 . S
O352 C371 1.191 . S
O353 Mg344 2.081 . S
O353 C361 1.331 . S
O354 Mg350 1.986 . S
O354 C371 1.307 . S
O355 Mg344 2.023 . S
O355 C370 1.264 . S
O356 Mg345 1.942 . S
O356 C361 1.244 . S
O357 Mg345 1.955 . S
O357 C370 1.273 . S
O358 Mg347 2.114 . S
O358 Mg349 2.291 . S
O358 C360 1.312 . S
O359 Mg344 2.031 . S
O359 C360 1.208 . S
C360 O358 1.312 . S
C360 O359 1.208 . S
C361 O353 1.331 . S
C361 O356 1.244 . S
O362 Mg347 2.013 . S
O362 C351 1.191 . S
O363 C342 1.331 . S
O363 Mg349 2.081 . S
O364 Mg345 1.986 . S
O364 C351 1.307 . S
O365 C343 1.264 . S
O365 Mg349 2.023 . S
O366 C342 1.244 . S
O366 Mg350 1.942 . S
O367 C343 1.273 . S
O367 Mg350 1.955 . S
O368 C341 1.312 . S
O368 Mg344 2.291 . S
O368 Mg347 2.114 . S
O369 C341 1.208 . S
O369 Mg349 2.031 . S
C370 O355 1.264 . S
C370 O357 1.273 . S
C371 O352 1.191 . S
C371 O354 1.307 . S
C372 O399 1.312 . S
C372 O400 1.208 . S
C373 O394 1.331 . S
C373 O397 1.244 . S
C374 O396 1.264 . S
C374 O398 1.273 . S
Mg375 O377 1.936 . S
Mg375 O384 2.081 . S
Mg375 O386 2.023 . S
Mg375 O390 2.031 . S
Mg375 O399 2.291 . S
Mg376 O377 1.963 . S
Mg376 O387 1.942 . S
Mg376 O388 1.955 . S
Mg376 O395 1.986 . S
O377 Mg375 1.936 . S
O377 Mg376 1.963 . S
O377 Mg378 1.915 . S
Mg378 O377 1.915 . S
Mg378 O379 1.915 . S
Mg378 O383 2.013 . S
Mg378 O389 2.114 . S
Mg378 O393 2.013 . S
Mg378 O399 2.114 . S
O379 Mg378 1.915 . S
O379 Mg380 1.936 . S
O379 Mg381 1.963 . S
Mg380 O379 1.936 . S
Mg380 O389 2.291 . S
Mg380 O394 2.081 . S
Mg380 O396 2.023 . S
Mg380 O400 2.031 . S
Mg381 O379 1.963 . S
Mg381 O385 1.986 . S
Mg381 O397 1.942 . S
Mg381 O398 1.955 . S
C382 O393 1.191 . S
C382 O395 1.307 . S
O383 Mg378 2.013 . S
O383 C402 1.191 . S
O384 Mg375 2.081 . S
O384 C392 1.331 . S
O385 Mg381 1.986 . S
O385 C402 1.307 . S
O386 Mg375 2.023 . S
O386 C401 1.264 . S
O387 Mg376 1.942 . S
O387 C392 1.244 . S
O388 Mg376 1.955 . S
O388 C401 1.273 . S
O389 Mg378 2.114 . S
O389 Mg380 2.291 . S
O389 C391 1.312 . S
O390 Mg375 2.031 . S
O390 C391 1.208 . S
C391 O389 1.312 . S
C391 O390 1.208 . S
C392 O384 1.331 . S
C392 O387 1.244 . S
O393 Mg378 2.013 . S
O393 C382 1.191 . S
O394 C373 1.331 . S
O394 Mg380 2.081 . S
O395 Mg376 1.986 . S
O395 C382 1.307 . S
O396 C374 1.264 . S
O396 Mg380 2.023 . S
O397 C373 1.244 . S
O397 Mg381 1.942 . S
O398 C374 1.273 . S
O398 Mg381 1.955 . S
O399 C372 1.312 . S
O399 Mg375 2.291 . S
O399 Mg378 2.114 . S
O400 C372 1.208 . S
O400 Mg380 2.031 . S
C401 O386 1.264 . S
C401 O388 1.273 . S
C402 O383 1.191 . S
C402 O385 1.307 . S
C403 O430 1.312 . S
C403 O431 1.208 . S
C404 O425 1.331 . S
C404 O428 1.244 . S
C405 O427 1.264 . S
C405 O429 1.273 . S
Mg406 O408 1.936 . S
Mg406 O415 2.081 . S
Mg406 O417 2.023 . S
Mg406 O421 2.031 . S
Mg406 O430 2.291 . S
Mg407 O408 1.963 . S
Mg407 O418 1.942 . S
Mg407 O419 1.955 . S
Mg407 O426 1.986 . S
O408 Mg406 1.936 . S
O408 Mg407 1.963 . S
O408 Mg409 1.915 . S
Mg409 O408 1.915 . S
Mg409 O410 1.915 . S
Mg409 O414 2.013 . S
Mg409 O420 2.114 . S
Mg409 O424 2.013 . S
Mg409 O430 2.114 . S
O410 Mg409 1.915 . S
O410 Mg411 1.936 . S
O410 Mg412 1.963 . S
Mg411 O410 1.936 . S
Mg411 O420 2.291 . S
Mg411 O425 2.081 . S
Mg411 O427 2.023 . S
Mg411 O431 2.031 . S
Mg412 O410 1.963 . S
Mg412 O416 1.986 . S
Mg412 O428 1.942 . S
Mg412 O429 1.955 . S
C413 O424 1.191 . S
C413 O426 1.307 . S
O414 Mg409 2.013 . S
O414 C433 1.191 . S
O415 Mg406 2.081 . S
O415 C423 1.331 . S
O416 Mg412 1.986 . S
O416 C433 1.307 . S
O417 Mg406 2.023 . S
O417 C432 1.264 . S
O418 Mg407 1.942 . S
O418 C423 1.244 . S
O419 Mg407 1.955 . S
O419 C432 1.273 . S
O420 Mg409 2.114 . S
O420 Mg411 2.291 . S
O420 C422 1.312 . S
O421 Mg406 2.031 . S
O421 C422 1.208 . S
C422 O420 1.312 . S
C422 O421 1.208 . S
C423 O415 1.331 . S
C423 O418 1.244 . S
O424 Mg409 2.013 . S
O424 C413 1.191 . S
O425 C404 1.331 . S
O425 Mg411 2.081 . S
O426 Mg407 1.986 . S
O426 C413 1.307 . S
O427 C405 1.264 . S
O427 Mg411 2.023 . S
O428 C404 1.244 . S
O428 Mg412 1.942 . S
O429 C405 1.273 . S
O429 Mg412 1.955 . S
O430 C403 1.312 . S
O430 Mg406 2.291 . S
O430 Mg409 2.114 . S
O431 C403 1.208 . S
O431 Mg411 2.031 . S
C432 O417 1.264 . S
C432 O419 1.273 . S
C433 O414 1.191 . S
C433 O416 1.307 . S
C434 O461 1.312 . S
C434 O462 1.208 . S
C435 O456 1.331 . S
C435 O459 1.244 . S
C436 O458 1.264 . S
C436 O460 1.273 . S
Mg437 O439 1.936 . S
Mg437 O446 2.081 . S
Mg437 O448 2.023 . S
Mg437 O452 2.031 . S
Mg437 O461 2.291 . S
Mg438 O439 1.963 . S
Mg438 O449 1.942 . S
Mg438 O450 1.955 . S
Mg438 O457 1.986 . S
O439 Mg437 1.936 . S
O439 Mg438 1.963 . S
O439 Mg440 1.915 . S
Mg440 O439 1.915 . S
Mg440 O441 1.915 . S
Mg440 O445 2.013 . S
Mg440 O451 2.114 . S
Mg440 O455 2.013 . S
Mg440 O461 2.114 . S
O441 Mg440 1.915 . S
O441 Mg442 1.936 . S
O441 Mg443 1.963 . S
Mg442 O441 1.936 . S
Mg442 O451 2.291 . S
Mg442 O456 2.081 . S
Mg442 O458 2.023 . S
Mg442 O462 2.031 . S
Mg443 O441 1.963 . S
Mg443 O447 1.986 . S
Mg443 O459 1.942 . S
Mg443 O460 1.955 . S
C444 O455 1.191 . S
C444 O457 1.307 . S
O445 Mg440 2.013 . S
O445 C464 1.191 . S
O446 Mg437 2.081 . S
O446 C454 1.331 . S
O447 Mg443 1.986 . S
O447 C464 1.307 . S
O448 Mg437 2.023 . S
O448 C463 1.264 . S
O449 Mg438 1.942 . S
O449 C454 1.244 . S
O450 Mg438 1.955 . S
O450 C463 1.273 . S
O451 Mg440 2.114 . S
O451 Mg442 2.291 . S
O451 C453 1.312 . S
O452 Mg437 2.031 . S
O452 C453 1.208 . S
C453 O451 1.312 . S
C453 O452 1.208 . S
C454 O446 1.331 . S
C454 O449 1.244 . S
O455 Mg440 2.013 . S
O455 C444 1.191 . S
O456 C435 1.331 . S
O456 Mg442 2.081 . S
O457 Mg438 1.986 . S
O457 C444 1.307 . S
O458 C436 1.264 . S
O458 Mg442 2.023 . S
O459 C435 1.244 . S
O459 Mg443 1.942 . S
O460 C436 1.273 . S
O460 Mg443 1.955 . S
O461 C434 1.312 . S
O461 Mg437 2.291 . S
O461 Mg440 2.114 . S
O462 C434 1.208 . S
O462 Mg442 2.031 . S
C463 O448 1.264 . S
C463 O450 1.273 . S
C464 O445 1.191 . S
C464 O447 1.307 . S
C465 O492 1.312 . S
C465 O493 1.208 . S
C466 O487 1.331 . S
C466 O490 1.244 . S
C467 O489 1.264 . S
C467 O491 1.273 . S
Mg468 O470 1.936 . S
Mg468 O477 2.081 . S
Mg468 O479 2.023 . S
Mg468 O483 2.031 . S
Mg468 O492 2.291 . S
Mg469 O470 1.963 . S
Mg469 O480 1.942 . S
Mg469 O481 1.955 . S
Mg469 O488 1.986 . S
O470 Mg468 1.936 . S
O470 Mg469 1.963 . S
O470 Mg471 1.915 . S
Mg471 O470 1.915 . S
Mg471 O472 1.915 . S
Mg471 O476 2.013 . S
Mg471 O482 2.114 . S
Mg471 O486 2.013 . S
Mg471 O492 2.114 . S
O472 Mg471 1.915 . S
O472 Mg473 1.936 . S
O472 Mg474 1.963 . S
Mg473 O472 1.936 . S
Mg473 O482 2.291 . S
Mg473 O487 2.081 . S
Mg473 O489 2.023 . S
Mg473 O493 2.031 . S
Mg474 O472 1.963 . S
Mg474 O478 1.986 . S
Mg474 O490 1.942 . S
Mg474 O491 1.955 . S
C475 O486 1.191 . S
C475 O488 1.307 . S
O476 Mg471 2.013 . S
O476 C495 1.191 . S
O477 Mg468 2.081 . S
O477 C485 1.331 . S
O478 Mg474 1.986 . S
O478 C495 1.307 . S
O479 Mg468 2.023 . S
O479 C494 1.264 . S
O480 Mg469 1.942 . S
O480 C485 1.244 . S
O481 Mg469 1.955 . S
O481 C494 1.273 . S
O482 Mg471 2.114 . S
O482 Mg473 2.291 . S
O482 C484 1.312 . S
O483 Mg468 2.031 . S
O483 C484 1.208 . S
C484 O482 1.312 . S
C484 O483 1.208 . S
C485 O477 1.331 . S
C485 O480 1.244 . S
O486 Mg471 2.013 . S
O486 C475 1.191 . S
O487 C466 1.331 . S
O487 Mg473 2.081 . S
O488 Mg469 1.986 . S
O488 C475 1.307 . S
O489 C467 1.264 . S
O489 Mg473 2.023 . S
O490 C466 1.244 . S
O490 Mg474 1.942 . S
O491 C467 1.273 . S
O491 Mg474 1.955 . S
O492 C465 1.312 . S
O492 Mg468 2.291 . S
O492 Mg471 2.114 . S
O493 C465 1.208 . S
O493 Mg473 2.031 . S
C494 O479 1.264 . S
C494 O481 1.273 . S
C495 O476 1.191 . S
C495 O478 1.307 . S
C496 O523 1.312 . S
C496 O524 1.208 . S
C497 O518 1.331 . S
C497 O521 1.244 . S
C498 O520 1.264 . S
C498 O522 1.273 . S
Mg499 O501 1.936 . S
Mg499 O508 2.081 . S
Mg499 O510 2.023 . S
Mg499 O514 2.031 . S
Mg499 O523 2.291 . S
Mg500 O501 1.963 . S
Mg500 O511 1.942 . S
Mg500 O512 1.955 . S
Mg500 O519 1.986 . S
O501 Mg499 1.936 . S
O501 Mg500 1.963 . S
O501 Mg502 1.915 . S
Mg502 O501 1.915 . S
Mg502 O503 1.915 . S
Mg502 O507 2.013 . S
Mg502 O513 2.114 . S
Mg502 O517 2.013 . S
Mg502 O523 2.114 . S
O503 Mg502 1.915 . S
O503 Mg504 1.936 . S
O503 Mg505 1.963 . S
Mg504 O503 1.936 . S
Mg504 O513 2.291 . S
Mg504 O518 2.081 . S
Mg504 O520 2.023 . S
Mg504 O524 2.031 . S
Mg505 O503 1.963 . S
Mg505 O509 1.986 . S
Mg505 O521 1.942 . S
Mg505 O522 1.955 . S
C506 O517 1.191 . S
C506 O519 1.307 . S
O507 Mg502 2.013 . S
O507 C526 1.191 . S
O508 Mg499 2.081 . S
O508 C516 1.331 . S
O509 Mg505 1.986 . S
O509 C526 1.307 . S
O510 Mg499 2.023 . S
O510 C525 1.264 . S
O511 Mg500 1.942 . S
O511 C516 1.244 . S
O512 Mg500 1.955 . S
O512 C525 1.273 . S
O513 Mg502 2.114 . S
O513 Mg504 2.291 . S
O513 C515 1.312 . S
O514 Mg499 2.031 . S
O514 C515 1.208 . S
C515 O513 1.312 . S
C515 O514 1.208 . S
C516 O508 1.331 . S
C516 O511 1.244 . S
O517 Mg502 2.013 . S
O517 C506 1.191 . S
O518 C497 1.331 . S
O518 Mg504 2.081 . S
O519 Mg500 1.986 . S
O519 C506 1.307 . S
O520 C498 1.264 . S
O520 Mg504 2.023 . S
O521 C497 1.244 . S
O521 Mg505 1.942 . S
O522 C498 1.273 . S
O522 Mg505 1.955 . S
O523 C496 1.312 . S
O523 Mg499 2.291 . S
O523 Mg502 2.114 . S
O524 C496 1.208 . S
O524 Mg504 2.031 . S
C525 O510 1.264 . S
C525 O512 1.273 . S
C526 O507 1.191 . S
C526 O509 1.307 . S
C527 O554 1.312 . S
C527 O555 1.208 . S
C528 O549 1.331 . S
C528 O552 1.244 . S
C529 O551 1.264 . S
C529 O553 1.273 . S
Mg530 O532 1.936 . S
Mg530 O539 2.081 . S
Mg530 O541 2.023 . S
Mg530 O545 2.031 . S
Mg530 O554 2.291 . S
Mg531 O532 1.963 . S
Mg531 O542 1.942 . S
Mg531 O543 1.955 . S
Mg531 O550 1.986 . S
O532 Mg530 1.936 . S
O532 Mg531 1.963 . S
O532 Mg533 1.915 . S
Mg533 O532 1.915 . S
Mg533 O534 1.915 . S
Mg533 O538 2.013 . S
Mg533 O544 2.114 . S
Mg533 O548 2.013 . S
Mg533 O554 2.114 . S
O534 Mg533 1.915 . S
O534 Mg535 1.936 . S
O534 Mg536 1.963 . S
Mg535 O534 1.936 . S
Mg535 O544 2.291 . S
Mg535 O549 2.081 . S
Mg535 O551 2.023 . S
Mg535 O555 2.031 . S
Mg536 O534 1.963 . S
Mg536 O540 1.986 . S
Mg536 O552 1.942 . S
Mg536 O553 1.955 . S
C537 O548 1.191 . S
C537 O550 1.307 . S
O538 Mg533 2.013 . S
O538 C557 1.191 . S
O539 Mg530 2.081 . S
O539 C547 1.331 . S
O540 Mg536 1.986 . S
O540 C557 1.307 . S
O541 Mg530 2.023 . S
O541 C556 1.264 . S
O542 Mg531 1.942 . S
O542 C547 1.244 . S
O543 Mg531 1.955 . S
O543 C556 1.273 . S
O544 Mg533 2.114 . S
O544 Mg535 2.291 . S
O544 C546 1.312 . S
O545 Mg530 2.031 . S
O545 C546 1.208 . S
C546 O544 1.312 . S
C546 O545 1.208 . S
C547 O539 1.331 . S
C547 O542 1.244 . S
O548 Mg533 2.013 . S
O548 C537 1.191 . S
O549 C528 1.331 . S
O549 Mg535 2.081 . S
O550 Mg531 1.986 . S
O550 C537 1.307 . S
O551 C529 1.264 . S
O551 Mg535 2.023 . S
O552 C528 1.244 . S
O552 Mg536 1.942 . S
O553 C529 1.273 . S
O553 Mg536 1.955 . S
O554 C527 1.312 . S
O554 Mg530 2.291 . S
O554 Mg533 2.114 . S
O555 C527 1.208 . S
O555 Mg535 2.031 . S
C556 O541 1.264 . S
C556 O543 1.273 . S
C557 O538 1.191 . S
C557 O540 1.307 . S
C558 O585 1.312 . S
C558 O586 1.208 . S
C559 O580 1.331 . S
C559 O583 1.244 . S
C560 O582 1.264 . S
C560 O584 1.273 . S
Mg561 O563 1.936 . S
Mg561 O570 2.081 . S
Mg561 O572 2.023 . S
Mg561 O576 2.031 . S
Mg561 O585 2.291 . S
Mg562 O563 1.963 . S
Mg562 O573 1.942 . S
Mg562 O574 1.955 . S
Mg562 O581 1.986 . S
O563 Mg561 1.936 . S
O563 Mg562 1.963 . S
O563 Mg564 1.915 . S
Mg564 O563 1.915 . S
Mg564 O565 1.915 . S
Mg564 O569 2.013 . S
Mg564 O575 2.114 . S
Mg564 O579 2.013 . S
Mg564 O585 2.114 . S
O565 Mg564 1.915 . S
O565 Mg566 1.936 . S
O565 Mg567 1.963 . S
Mg566 O565 1.936 . S
Mg566 O575 2.291 . S
Mg566 O580 2.081 . S
Mg566 O582 2.023 . S
Mg566 O586 2.031 . S
Mg567 O565 1.963 . S
Mg567 O571 1.986 . S
Mg567 O583 1.942 . S
Mg567 O584 1.955 . S
C568 O579 1.191 . S
C568 O581 1.307 . S
O569 Mg564 2.013 . S
O569 C588 1.191 . S
O570 Mg561 2.081 . S
O570 C578 1.331 . S
O571 Mg567 1.986 . S
O571 C588 1.307 . S
O572 Mg561 2.023 . S
O572 C587 1.264 . S
O573 Mg562 1.942 . S
O573 C578 1.244 . S
O574 Mg562 1.955 . S
O574 C587 1.273 . S
O575 Mg564 2.114 . S
O575 Mg566 2.291 . S
O575 C577 1.312 . S
O576 Mg561 2.031 . S
O576 C577 1.208 . S
C577 O575 1.312 . S
C577 O576 1.208 . S
C578 O570 1.331 . S
C578 O573 1.244 . S
O579 Mg564 2.013 . S
O579 C568 1.191 . S
O580 C559 1.331 . S
O580 Mg566 2.081 . S
O581 Mg562 1.986 . S
O581 C568 1.307 . S
O582 C560 1.264 . S
O582 Mg566 2.023 . S
O583 C559 1.244 . S
O583 Mg567 1.942 . S
O584 C560 1.273 . S
O584 Mg567 1.955 . S
O585 C558 1.312 . S
O585 Mg561 2.291 . S
O585 Mg564 2.114 . S
O586 C558 1.208 . S
O586 Mg566 2.031 . S
C587 O572 1.264 . S
C587 O574 1.273 . S
C588 O569 1.191 . S
C588 O571 1.307 . S
C589 O616 1.312 . S
C589 O617 1.208 . S
C590 O611 1.331 . S
C590 O614 1.244 . S
C591 O613 1.264 . S
C591 O615 1.273 . S
Mg592 O594 1.936 . S
Mg592 O601 2.081 . S
Mg592 O603 2.023 . S
Mg592 O607 2.031 . S
Mg592 O616 2.291 . S
Mg593 O594 1.963 . S
Mg593 O604 1.942 . S
Mg593 O605 1.955 . S
Mg593 O612 1.986 . S
O594 Mg592 1.936 . S
O594 Mg593 1.963 . S
O594 Mg595 1.915 . S
Mg595 O594 1.915 . S
Mg595 O596 1.915 . S
Mg595 O600 2.013 . S
Mg595 O606 2.114 . S
Mg595 O610 2.013 . S
Mg595 O616 2.114 . S
O596 Mg595 1.915 . S
O596 Mg597 1.936 . S
O596 Mg598 1.963 . S
Mg597 O596 1.936 . S
Mg597 O606 2.291 . S
Mg597 O611 2.081 . S
Mg597 O613 2.023 . S
Mg597 O617 2.031 . S
Mg598 O596 1.963 . S
Mg598 O602 1.986 . S
Mg598 O614 1.942 . S
Mg598 O615 1.955 . S
C599 O610 1.191 . S
C599 O612 1.307 . S
O600 Mg595 2.013 . S
O600 C619 1.191 . S
O601 Mg592 2.081 . S
O601 C609 1.331 . S
O602 Mg598 1.986 . S
O602 C619 1.307 . S
O603 Mg592 2.023 . S
O603 C618 1.264 . S
O604 Mg593 1.942 . S
O604 C609 1.244 . S
O605 Mg593 1.955 . S
O605 C618 1.273 . S
O606 Mg595 2.114 . S
O606 Mg597 2.291 . S
O606 C608 1.312 . S
O607 Mg592 2.031 . S
O607 C608 1.208 . S
C608 O606 1.312 . S
C608 O607 1.208 . S
C609 O601 1.331 . S
C609 O604 1.244 . S
O610 Mg595 2.013 . S
O610 C599 1.191 . S
O611 C590 1.331 . S
O611 Mg597 2.081 . S
O612 Mg593 1.986 . S
O612 C599 1.307 . S
O613 C591 1.264 . S
O613 Mg597 2.023 . S
O614 C590 1.244 . S
O614 Mg598 1.942 . S
O615 C591 1.273 . S
O615 Mg598 1.955 . S
O616 C589 1.312 . S
O616 Mg592 2.291 . S
O616 Mg595 2.114 . S
O617 C589 1.208 . S
O617 Mg597 2.031 . S
C618 O603 1.264 . S
C618 O605 1.273 . S
C619 O600 1.191 . S
C619 O602 1.307 . S
C620 O647 1.312 . S
C620 O648 1.208 . S
C621 O642 1.331 . S
C621 O645 1.244 . S
C622 O644 1.264 . S
C622 O646 1.273 . S
Mg623 O625 1.936 . S
Mg623 O632 2.081 . S
Mg623 O634 2.023 . S
Mg623 O638 2.031 . S
Mg623 O647 2.291 . S
Mg624 O625 1.963 . S
Mg624 O635 1.942 . S
Mg624 O636 1.955 . S
Mg624 O643 1.986 . S
O625 Mg623 1.936 . S
O625 Mg624 1.963 . S
O625 Mg626 1.915 . S
Mg626 O625 1.915 . S
Mg626 O627 1.915 . S
Mg626 O631 2.013 . S
Mg626 O637 2.114 . S
Mg626 O641 2.013 . S
Mg626 O647 2.114 . S
O627 Mg626 1.915 . S
O627 Mg628 1.936 . S
O627 Mg629 1.963 . S
Mg628 O627 1.936 . S
Mg628 O637 2.291 . S
Mg628 O642 2.081 . S
Mg628 O644 2.023 . S
Mg628 O648 2.031 . S
Mg629 O627 1.963 . S
Mg629 O633 1.986 . S
Mg629 O645 1.942 . S
Mg629 O646 1.955 . S
C630 O641 1.191 . S
C630 O643 1.307 . S
O631 Mg626 2.013 . S
O631 C650 1.191 . S
O632 Mg623 2.081 . S
O632 C640 1.331 . S
O633 Mg629 1.986 . S
O633 C650 1.307 . S
O634 Mg623 2.023 . S
O634 C649 1.264 . S
O635 Mg624 1.942 . S
O635 C640 1.244 . S
O636 Mg624 1.955 . S
O636 C649 1.273 . S
O637 Mg626 2.114 . S
O637 Mg628 2.291 . S
O637 C639 1.312 . S
O638 Mg623 2.031 . S
O638 C639 1.208 . S
C639 O637 1.312 . S
C639 O638 1.208 . S
C640 O632 1.331 . S
C640 O635 1.244 . S
O641 Mg626 2.013 . S
O641 C630 1.191 . S
O642 C621 1.331 . S
O642 Mg628 2.081 . S
O643 Mg624 1.986 . S
O643 C630 1.307 . S
O644 C622 1.264 . S
O644 Mg628 2.023 . S
O645 C621 1.244 . S
O645 Mg629 1.942 . S
O646 C622 1.273 . S
O646 Mg629 1.955 . S
O647 C620 1.312 . S
O647 Mg623 2.291 . S
O647 Mg626 2.114 . S
O648 C620 1.208 . S
O648 Mg628 2.031 . S
C649 O634 1.264 . S
C649 O636 1.273 . S
C650 O631 1.191 . S
C650 O633 1.307 . S
C651 O678 1.312 . S
C651 O679 1.208 . S
C652 O673 1.331 . S
C652 O676 1.244 . S
C653 O675 1.264 . S
C653 O677 1.273 . S
Mg654 O656 1.936 . S
Mg654 O663 2.081 . S
Mg654 O665 2.023 . S
Mg654 O669 2.031 . S
Mg654 O678 2.291 . S
Mg655 O656 1.963 . S
Mg655 O666 1.942 . S
Mg655 O667 1.955 . S
Mg655 O674 1.986 . S
O656 Mg654 1.936 . S
O656 Mg655 1.963 . S
O656 Mg657 1.915 . S
Mg657 O656 1.915 . S
Mg657 O658 1.915 . S
Mg657 O662 2.013 . S
Mg657 O668 2.114 . S
Mg657 O672 2.013 . S
Mg657 O678 2.114 . S
O658 Mg657 1.915 . S
O658 Mg659 1.936 . S
O658 Mg660 1.963 . S
Mg659 O658 1.936 . S
Mg659 O668 2.291 . S
Mg659 O673 2.081 . S
Mg659 O675 2.023 . S
Mg659 O679 2.031 . S
Mg660 O658 1.963 . S
Mg660 O664 1.986 . S
Mg660 O676 1.942 . S
Mg660 O677 1.955 . S
C661 O672 1.191 . S
C661 O674 1.307 . S
O662 Mg657 2.013 . S
O662 C681 1.191 . S
O663 Mg654 2.081 . S
O663 C671 1.331 . S
O664 Mg660 1.986 . S
O664 C681 1.307 . S
O665 Mg654 2.023 . S
O665 C680 1.264 . S
O666 Mg655 1.942 . S
O666 C671 1.244 . S
O667 Mg655 1.955 . S
O667 C680 1.273 . S
O668 Mg657 2.114 . S
O668 Mg659 2.291 . S
O668 C670 1.312 . S
O669 Mg654 2.031 . S
O669 C670 1.208 . S
C670 O668 1.312 . S
C670 O669 1.208 . S
C671 O663 1.331 . S
C671 O666 1.244 . S
O672 Mg657 2.013 . S
O672 C661 1.191 . S
O673 C652 1.331 . S
O673 Mg659 2.081 . S
O674 Mg655 1.986 . S
O674 C661 1.307 . S
O675 C653 1.264 . S
O675 Mg659 2.023 . S
O676 C652 1.244 . S
O676 Mg660 1.942 . S
O677 C653 1.273 . S
O677 Mg660 1.955 . S
O678 C651 1.312 . S
O678 Mg654 2.291 . S
O678 Mg657 2.114 . S
O679 C651 1.208 . S
O679 Mg659 2.031 . S
C680 O665 1.264 . S
C680 O667 1.273 . S
C681 O662 1.191 . S
C681 O664 1.307 . S
C682 O709 1.312 . S
C682 O710 1.208 . S
C683 O704 1.331 . S
C683 O707 1.244 . S
C684 O706 1.264 . S
C684 O708 1.273 . S
Mg685 O687 1.936 . S
Mg685 O694 2.081 . S
Mg685 O696 2.023 . S
Mg685 O700 2.031 . S
Mg685 O709 2.291 . S
Mg686 O687 1.963 . S
Mg686 O697 1.942 . S
Mg686 O698 1.955 . S
Mg686 O705 1.986 . S
O687 Mg685 1.936 . S
O687 Mg686 1.963 . S
O687 Mg688 1.915 . S
Mg688 O687 1.915 . S
Mg688 O689 1.915 . S
Mg688 O693 2.013 . S
Mg688 O699 2.114 . S
Mg688 O703 2.013 . S
Mg688 O709 2.114 . S
O689 Mg688 1.915 . S
O689 Mg690 1.936 . S
O689 Mg691 1.963 . S
Mg690 O689 1.936 . S
Mg690 O699 2.291 . S
Mg690 O704 2.081 . S
Mg690 O706 2.023 . S
Mg690 O710 2.031 . S
Mg691 O689 1.963 . S
Mg691 O695 1.986 . S
Mg691 O707 1.942 . S
Mg691 O708 1.955 . S
C692 O703 1.191 . S
C692 O705 1.307 . S
O693 Mg688 2.013 . S
O693 C712 1.191 . S
O694 Mg685 2.081 . S
O694 C702 1.331 . S
O695 Mg691 1.986 . S
O695 C712 1.307 . S
O696 Mg685 2.023 . S
O696 C711 1.264 . S
O697 Mg686 1.942 . S
O697 C702 1.244 . S
O698 Mg686 1.955 . S
O698 C711 1.273 . S
O699 Mg688 2.114 . S
O699 Mg690 2.291 . S
O699 C701 1.312 . S
O700 Mg685 2.031 . S
O700 C701 1.208 . S
C701 O699 1.312 . S
C701 O700 1.208 . S
C702 O694 1.331 . S
C702 O697 1.244 . S
O703 Mg688 2.013 . S
O703 C692 1.191 . S
O704 C683 1.331 . S
O704 Mg690 2.081 . S
O705 Mg686 1.986 . S
O705 C692 1.307 . S
O706 C684 1.264 . S
O706 Mg690 2.023 . S
O707 C683 1.244 . S
O707 Mg691 1.942 . S
O708 C684 1.273 . S
O708 Mg691 1.955 . S
O709 C682 1.312 . S
O709 Mg685 2.291 . S
O709 Mg688 2.114 . S
O710 C682 1.208 . S
O710 Mg690 2.031 . S
C711 O696 1.264 . S
C711 O698 1.273 . S
C712 O693 1.191 . S
C712 O695 1.307 . S
C713 O740 1.312 . S
C713 O741 1.208 . S
C714 O735 1.331 . S
C714 O738 1.244 . S
C715 O737 1.264 . S
C715 O739 1.273 . S
Mg716 O718 1.936 . S
Mg716 O725 2.081 . S
Mg716 O727 2.023 . S
Mg716 O731 2.031 . S
Mg716 O740 2.291 . S
Mg717 O718 1.963 . S
Mg717 O728 1.942 . S
Mg717 O729 1.955 . S
Mg717 O736 1.986 . S
O718 Mg716 1.936 . S
O718 Mg717 1.963 . S
O718 Mg719 1.915 . S
Mg719 O718 1.915 . S
Mg719 O720 1.915 . S
Mg719 O724 2.013 . S
Mg719 O730 2.114 . S
Mg719 O734 2.013 . S
Mg719 O740 2.114 . S
O720 Mg719 1.915 . S
O720 Mg721 1.936 . S
O720 Mg722 1.963 . S
Mg721 O720 1.936 . S
Mg721 O730 2.291 . S
Mg721 O735 2.081 . S
Mg721 O737 2.023 . S
Mg721 O741 2.031 . S
Mg722 O720 1.963 . S
Mg722 O726 1.986 . S
Mg722 O738 1.942 . S
Mg722 O739 1.955 . S
C723 O734 1.191 . S
C723 O736 1.307 . S
O724 Mg719 2.013 . S
O724 C743 1.191 . S
O725 Mg716 2.081 . S
O725 C733 1.331 . S
O726 Mg722 1.986 . S
O726 C743 1.307 . S
O727 Mg716 2.023 . S
O727 C742 1.264 . S
O728 Mg717 1.942 . S
O728 C733 1.244 . S
O729 Mg717 1.955 . S
O729 C742 1.273 . S
O730 Mg719 2.114 . S
O730 Mg721 2.291 . S
O730 C732 1.312 . S
O731 Mg716 2.031 . S
O731 C732 1.208 . S
C732 O730 1.312 . S
C732 O731 1.208 . S
C733 O725 1.331 . S
C733 O728 1.244 . S
O734 Mg719 2.013 . S
O734 C723 1.191 . S
O735 C714 1.331 . S
O735 Mg721 2.081 . S
O736 Mg717 1.986 . S
O736 C723 1.307 . S
O737 C715 1.264 . S
O737 Mg721 2.023 . S
O738 C714 1.244 . S
O738 Mg722 1.942 . S
O739 C715 1.273 . S
O739 Mg722 1.955 . S
O740 C713 1.312 . S
O740 Mg716 2.291 . S
O740 Mg719 2.114 . S
O741 C713 1.208 . S
O741 Mg721 2.031 . S
C742 O727 1.264 . S
C742 O729 1.273 . S
C743 O724 1.191 . S
C743 O726 1.307 . S
C744 C745 1.391 . S
C744 C746 1.394 . S
C744 H760 0.931 . S
C745 C744 1.391 . S
C745 C749 1.376 . S
C746 C744 1.394 . S
C746 C747 1.369 . S
C746 C750 1.531 . S
C747 C746 1.369 . S
C747 C748 1.410 . S
C747 C755 1.503 . S
C748 C747 1.410 . S
C748 C749 1.392 . S
C748 C751 1.511 . S
C749 C745 1.376 . S
C749 C748 1.392 . S
C749 H761 0.929 . S
C750 C746 1.531 . S
C750 H762 0.960 . S
C750 H763 0.962 . S
C750 H764 0.960 . S
C751 C748 1.511 . S
C751 H765 0.961 . S
C751 H766 0.961 . S
C751 H767 0.961 . S
C752 C753 1.370 . S
C752 C754 1.363 . S
C752 H768 0.931 . S
C753 C752 1.370 . S
C753 C757 1.408 . S
C754 C752 1.363 . S
C754 C755 1.370 . S
C754 C758 1.524 . S
C755 C747 1.503 . S
C755 C754 1.370 . S
C755 C756 1.403 . S
C756 C755 1.403 . S
C756 C757 1.404 . S
C756 C759 1.539 . S
C757 C753 1.408 . S
C757 C756 1.404 . S
C757 H769 0.930 . S
C758 C754 1.524 . S
C758 H770 0.956 . S
C758 H771 0.961 . S
C758 H772 0.961 . S
C759 C756 1.539 . S
C759 H773 0.958 . S
C759 H774 0.961 . S
C759 H775 0.960 . S
H760 C744 0.931 . S
H761 C749 0.929 . S
H762 C750 0.960 . S
H763 C750 0.962 . S
H764 C750 0.960 . S
H765 C751 0.961 . S
H766 C751 0.961 . S
H767 C751 0.961 . S
H768 C752 0.931 . S
H769 C757 0.930 . S
H770 C758 0.956 . S
H771 C758 0.961 . S
H772 C758 0.961 . S
H773 C759 0.958 . S
H774 C759 0.961 . S
H775 C759 0.960 . S
C776 C777 1.391 . S
C776 C778 1.394 . S
C776 H792 0.931 . S
C777 C776 1.391 . S
C777 C781 1.376 1_655 S
C778 C776 1.394 . S
C778 C779 1.369 1_655 S
C778 C782 1.531 . S
C779 C778 1.369 1_455 S
C779 C780 1.410 . S
C779 C787 1.503 . S
C780 C779 1.410 . S
C780 C781 1.392 . S
C780 C783 1.511 . S
C781 C777 1.376 1_455 S
C781 C780 1.392 . S
C781 H793 0.929 . S
C782 C778 1.531 . S
C782 H794 0.960 . S
C782 H795 0.962 . S
C782 H796 0.960 . S
C783 C780 1.511 . S
C783 H797 0.961 . S
C783 H798 0.961 . S
C783 H799 0.961 . S
C784 C785 1.370 . S
C784 C786 1.363 1_545 S
C784 H800 0.931 . S
C785 C784 1.370 . S
C785 C789 1.408 . S
C786 C784 1.363 1_565 S
C786 C787 1.370 . S
C786 C790 1.524 . S
C787 C779 1.503 . S
C787 C786 1.370 . S
C787 C788 1.403 . S
C788 C787 1.403 . S
C788 C789 1.404 1_565 S
C788 C791 1.539 . S
C789 C785 1.408 . S
C789 C788 1.404 1_545 S
C789 H801 0.930 . S
C790 C786 1.524 . S
C790 H802 0.956 . S
C790 H803 0.961 . S
C790 H804 0.961 . S
C791 C788 1.539 . S
C791 H805 0.958 1_455 S
C791 H806 0.961 . S
C791 H807 0.960 . S
H792 C776 0.931 . S
H793 C781 0.929 . S
H794 C782 0.960 . S
H795 C782 0.962 . S
H796 C782 0.960 . S
H797 C783 0.961 . S
H798 C783 0.961 . S
H799 C783 0.961 . S
H800 C784 0.931 . S
H801 C789 0.930 . S
H802 C790 0.956 . S
H803 C790 0.961 . S
H804 C790 0.961 . S
H805 C791 0.958 1_655 S
H806 C791 0.961 . S
H807 C791 0.960 . S
C808 C809 1.391 . S
C808 C810 1.394 . S
C808 H824 0.931 . S
C809 C808 1.391 . S
C809 C813 1.376 . S
C810 C808 1.394 . S
C810 C811 1.369 . S
C810 C814 1.531 . S
C811 C810 1.369 . S
C811 C812 1.410 . S
C811 C819 1.503 . S
C812 C811 1.410 . S
C812 C813 1.392 . S
C812 C815 1.511 . S
C813 C809 1.376 . S
C813 C812 1.392 . S
C813 H825 0.929 . S
C814 C810 1.531 . S
C814 H826 0.960 . S
C814 H827 0.962 . S
C814 H828 0.960 . S
C815 C812 1.511 . S
C815 H829 0.961 . S
C815 H830 0.961 . S
C815 H831 0.961 . S
C816 C817 1.370 . S
C816 C818 1.363 . S
C816 H832 0.931 . S
C817 C816 1.370 . S
C817 C821 1.408 . S
C818 C816 1.363 . S
C818 C819 1.370 . S
C818 C822 1.524 . S
C819 C811 1.503 . S
C819 C818 1.370 . S
C819 C820 1.403 . S
C820 C819 1.403 . S
C820 C821 1.404 . S
C820 C823 1.539 . S
C821 C817 1.408 . S
C821 C820 1.404 . S
C821 H833 0.930 . S
C822 C818 1.524 . S
C822 H834 0.956 . S
C822 H835 0.961 . S
C822 H836 0.961 . S
C823 C820 1.539 . S
C823 H837 0.958 . S
C823 H838 0.961 . S
C823 H839 0.960 . S
H824 C808 0.931 . S
H825 C813 0.929 . S
H826 C814 0.960 . S
H827 C814 0.962 . S
H828 C814 0.960 . S
H829 C815 0.961 . S
H830 C815 0.961 . S
H831 C815 0.961 . S
H832 C816 0.931 . S
H833 C821 0.930 . S
H834 C822 0.956 . S
H835 C822 0.961 . S
H836 C822 0.961 . S
H837 C823 0.958 . S
H838 C823 0.961 . S
H839 C823 0.960 . S
C840 C841 1.391 . S
C840 C842 1.394 1_565 S
C840 H856 0.931 . S
C841 C840 1.391 . S
C841 C845 1.376 . S
C842 C840 1.394 1_545 S
C842 C843 1.369 . S
C842 C846 1.531 . S
C843 C842 1.369 . S
C843 C844 1.410 . S
C843 C851 1.503 . S
C844 C843 1.410 . S
C844 C845 1.392 1_545 S
C844 C847 1.511 . S
C845 C841 1.376 . S
C845 C844 1.392 1_565 S
C845 H857 0.929 . S
C846 C842 1.531 . S
C846 H858 0.960 . S
C846 H859 0.962 . S
C846 H860 0.960 . S
C847 C844 1.511 . S
C847 H861 0.961 . S
C847 H862 0.961 . S
C847 H863 0.961 . S
C848 C849 1.370 . S
C848 C850 1.363 . S
C848 H864 0.931 . S
C849 C848 1.370 . S
C849 C853 1.408 . S
C850 C848 1.363 . S
C850 C851 1.370 . S
C850 C854 1.524 . S
C851 C843 1.503 . S
C851 C850 1.370 . S
C851 C852 1.403 . S
C852 C851 1.403 . S
C852 C853 1.404 . S
C852 C855 1.539 . S
C853 C849 1.408 . S
C853 C852 1.404 . S
C853 H865 0.930 . S
C854 C850 1.524 . S
C854 H866 0.956 . S
C854 H867 0.961 . S
C854 H868 0.961 . S
C855 C852 1.539 . S
C855 H869 0.958 . S
C855 H870 0.961 . S
C855 H871 0.960 1_545 S
H856 C840 0.931 . S
H857 C845 0.929 . S
H858 C846 0.960 . S
H859 C846 0.962 . S
H860 C846 0.960 . S
H861 C847 0.961 . S
H862 C847 0.961 . S
H863 C847 0.961 . S
H864 C848 0.931 . S
H865 C853 0.930 . S
H866 C854 0.956 . S
H867 C854 0.961 . S
H868 C854 0.961 . S
H869 C855 0.958 . S
H870 C855 0.961 . S
H871 C855 0.960 1_565 S
C872 C873 1.391 . S
C872 C874 1.394 . S
C872 H888 0.931 . S
C873 C872 1.391 . S
C873 C877 1.376 . S
C874 C872 1.394 . S
C874 C875 1.369 . S
C874 C878 1.531 . S
C875 C874 1.369 . S
C875 C876 1.410 . S
C875 C883 1.503 . S
C876 C875 1.410 . S
C876 C877 1.392 . S
C876 C879 1.511 . S
C877 C873 1.376 . S
C877 C876 1.392 . S
C877 H889 0.929 . S
C878 C874 1.531 . S
C878 H890 0.960 . S
C878 H891 0.962 . S
C878 H892 0.960 . S
C879 C876 1.511 . S
C879 H893 0.961 . S
C879 H894 0.961 . S
C879 H895 0.961 . S
C880 C881 1.370 . S
C880 C882 1.363 . S
C880 H896 0.931 . S
C881 C880 1.370 . S
C881 C885 1.408 . S
C882 C880 1.363 . S
C882 C883 1.370 . S
C882 C886 1.524 . S
C883 C875 1.503 . S
C883 C882 1.370 . S
C883 C884 1.403 . S
C884 C883 1.403 . S
C884 C885 1.404 . S
C884 C887 1.539 . S
C885 C881 1.408 . S
C885 C884 1.404 . S
C885 H897 0.930 . S
C886 C882 1.524 . S
C886 H898 0.956 . S
C886 H899 0.961 . S
C886 H900 0.961 . S
C887 C884 1.539 . S
C887 H901 0.958 . S
C887 H902 0.961 . S
C887 H903 0.960 . S
H888 C872 0.931 . S
H889 C877 0.929 . S
H890 C878 0.960 . S
H891 C878 0.962 . S
H892 C878 0.960 . S
H893 C879 0.961 . S
H894 C879 0.961 . S
H895 C879 0.961 . S
H896 C880 0.931 . S
H897 C885 0.930 . S
H898 C886 0.956 . S
H899 C886 0.961 . S
H900 C886 0.961 . S
H901 C887 0.958 . S
H902 C887 0.961 . S
H903 C887 0.960 . S
C904 C905 1.391 . S
C904 C906 1.394 . S
C904 H920 0.931 . S
C905 C904 1.391 . S
C905 C909 1.376 . S
C906 C904 1.394 . S
C906 C907 1.369 . S
C906 C910 1.531 . S
C907 C906 1.369 . S
C907 C908 1.410 . S
C907 C915 1.503 . S
C908 C907 1.410 . S
C908 C909 1.392 . S
C908 C911 1.511 . S
C909 C905 1.376 . S
C909 C908 1.392 . S
C909 H921 0.929 . S
C910 C906 1.531 . S
C910 H922 0.960 . S
C910 H923 0.962 . S
C910 H924 0.960 . S
C911 C908 1.511 . S
C911 H925 0.961 . S
C911 H926 0.961 . S
C911 H927 0.961 . S
C912 C913 1.370 . S
C912 C914 1.363 1_545 S
C912 H928 0.931 . S
C913 C912 1.370 . S
C913 C917 1.408 1_545 S
C914 C912 1.363 1_565 S
C914 C915 1.370 . S
C914 C918 1.525 . S
C915 C907 1.503 . S
C915 C914 1.370 . S
C915 C916 1.403 . S
C916 C915 1.403 . S
C916 C917 1.404 . S
C916 C919 1.539 . S
C917 C913 1.408 1_565 S
C917 C916 1.404 . S
C917 H929 0.930 . S
C918 C914 1.525 . S
C918 H930 0.956 . S
C918 H931 0.965 . S
C918 H932 0.955 1_565 S
C919 C916 1.539 . S
C919 H933 0.958 . S
C919 H934 0.961 . S
C919 H935 0.960 . S
H920 C904 0.931 . S
H921 C909 0.929 . S
H922 C910 0.960 . S
H923 C910 0.962 . S
H924 C910 0.960 . S
H925 C911 0.961 . S
H926 C911 0.961 . S
H927 C911 0.961 . S
H928 C912 0.931 . S
H929 C917 0.930 . S
H930 C918 0.956 . S
H931 C918 0.965 . S
H932 C918 0.955 1_545 S
H933 C919 0.958 . S
H934 C919 0.961 . S
H935 C919 0.960 . S
C936 C937 1.391 . S
C936 C938 1.394 . S
C936 H952 0.931 . S
C937 C936 1.391 . S
C937 C941 1.376 . S
C938 C936 1.394 . S
C938 C939 1.369 . S
C938 C942 1.531 . S
C939 C938 1.369 . S
C939 C940 1.410 . S
C939 C947 1.503 . S
C940 C939 1.410 . S
C940 C941 1.392 . S
C940 C943 1.511 . S
C941 C937 1.376 . S
C941 C940 1.392 . S
C941 H953 0.929 . S
C942 C938 1.531 . S
C942 H954 0.960 . S
C942 H955 0.962 . S
C942 H956 0.960 . S
C943 C940 1.511 . S
C943 H957 0.961 . S
C943 H958 0.961 . S
C943 H959 0.961 . S
C944 C945 1.370 . S
C944 C946 1.363 . S
C944 H960 0.931 . S
C945 C944 1.370 . S
C945 C949 1.408 . S
C946 C944 1.363 . S
C946 C947 1.370 . S
C946 C950 1.524 . S
C947 C939 1.503 . S
C947 C946 1.370 . S
C947 C948 1.403 . S
C948 C947 1.403 . S
C948 C949 1.404 . S
C948 C951 1.539 . S
C949 C945 1.408 . S
C949 C948 1.404 . S
C949 H961 0.930 . S
C950 C946 1.524 . S
C950 H962 0.956 . S
C950 H963 0.961 . S
C950 H964 0.961 . S
C951 C948 1.539 . S
C951 H965 0.958 . S
C951 H966 0.961 . S
C951 H967 0.960 . S
H952 C936 0.931 . S
H953 C941 0.929 . S
H954 C942 0.960 . S
H955 C942 0.962 . S
H956 C942 0.960 . S
H957 C943 0.961 . S
H958 C943 0.961 . S
H959 C943 0.961 . S
H960 C944 0.931 . S
H961 C949 0.930 . S
H962 C950 0.956 . S
H963 C950 0.961 . S
H964 C950 0.961 . S
H965 C951 0.958 . S
H966 C951 0.961 . S
H967 C951 0.960 . S
C968 C969 1.391 1_545 S
C968 C970 1.394 . S
C968 H984 0.931 . S
C969 C968 1.391 1_565 S
C969 C973 1.376 . S
C970 C968 1.394 . S
C970 C971 1.369 . S
C970 C974 1.531 . S
C971 C970 1.369 . S
C971 C972 1.410 1_545 S
C971 C979 1.503 . S
C972 C971 1.410 1_565 S
C972 C973 1.392 . S
C972 C975 1.511 . S
C973 C969 1.376 . S
C973 C972 1.392 . S
C973 H985 0.929 . S
C974 C970 1.531 . S
C974 H986 0.960 . S
C974 H987 0.962 . S
C974 H988 0.960 . S
C975 C972 1.511 . S
C975 H989 0.961 . S
C975 H990 0.961 1_565 S
C975 H991 0.991 . S
C976 C977 1.370 1_455 S
C976 C978 1.363 . S
C976 H992 0.931 . S
C977 C976 1.370 1_655 S
C977 C981 1.408 . S
C978 C976 1.363 . S
C978 C979 1.370 . S
C978 C982 1.524 . S
C979 C971 1.503 . S
C979 C978 1.370 . S
C979 C980 1.403 1_455 S
C980 C979 1.403 1_655 S
C980 C981 1.404 . S
C980 C983 1.539 . S
C981 C977 1.408 . S
C981 C980 1.404 . S
C981 H993 0.930 . S
C982 C978 1.524 . S
C982 H994 0.956 . S
C982 H995 0.961 . S
C982 H996 0.961 . S
C983 C980 1.539 . S
C983 H997 0.958 . S
C983 H998 0.961 . S
C983 H999 0.960 . S
H984 C968 0.931 . S
H985 C973 0.929 . S
H986 C974 0.960 . S
H987 C974 0.962 . S
H988 C974 0.960 . S
H989 C975 0.961 . S
H990 C975 0.961 1_545 S
H991 C975 0.991 . S
H992 C976 0.931 . S
H993 C981 0.930 . S
H994 C982 0.956 . S
H995 C982 0.961 . S
H996 C982 0.961 . S
H997 C983 0.958 . S
H998 C983 0.961 . S
H999 C983 0.960 . S
C1000 C1001 1.391 . S
C1000 C1002 1.394 . S
C1000 H1016 0.931 . S
C1001 C1000 1.391 . S
C1001 C1005 1.376 . S
C1002 C1000 1.394 . S
C1002 C1003 1.369 . S
C1002 C1006 1.531 . S
C1003 C1002 1.369 . S
C1003 C1004 1.410 . S
C1003 C1011 1.503 . S
C1004 C1003 1.410 . S
C1004 C1005 1.392 . S
C1004 C1007 1.511 . S
C1005 C1001 1.376 . S
C1005 C1004 1.392 . S
C1005 H1017 0.929 . S
C1006 C1002 1.531 . S
C1006 H1018 0.960 . S
C1006 H1019 0.962 . S
C1006 H1020 0.960 . S
C1007 C1004 1.511 . S
C1007 H1021 0.961 . S
C1007 H1022 0.961 . S
C1007 H1023 0.961 . S
C1008 C1009 1.370 . S
C1008 C1010 1.363 . S
C1008 H1024 0.931 . S
C1009 C1008 1.370 . S
C1009 C1013 1.408 . S
C1010 C1008 1.363 . S
C1010 C1011 1.370 . S
C1010 C1014 1.524 . S
C1011 C1003 1.503 . S
C1011 C1010 1.370 . S
C1011 C1012 1.403 . S
C1012 C1011 1.403 . S
C1012 C1013 1.404 . S
C1012 C1015 1.539 . S
C1013 C1009 1.408 . S
C1013 C1012 1.404 . S
C1013 H1025 0.930 . S
C1014 C1010 1.524 . S
C1014 H1026 0.956 . S
C1014 H1027 0.961 . S
C1014 H1028 0.961 . S
C1015 C1012 1.539 . S
C1015 H1029 0.958 . S
C1015 H1030 0.961 . S
C1015 H1031 0.960 . S
H1016 C1000 0.931 . S
H1017 C1005 0.929 . S
H1018 C1006 0.960 . S
H1019 C1006 0.962 . S
H1020 C1006 0.960 . S
H1021 C1007 0.961 . S
H1022 C1007 0.961 . S
H1023 C1007 0.961 . S
H1024 C1008 0.931 . S
H1025 C1013 0.930 . S
H1026 C1014 0.956 . S
H1027 C1014 0.961 . S
H1028 C1014 0.961 . S
H1029 C1015 0.958 . S
H1030 C1015 0.961 . S
H1031 C1015 0.960 . S
C1032 C1033 1.391 . S
C1032 C1034 1.394 . S
C1032 H1048 0.931 . S
C1033 C1032 1.391 . S
C1033 C1037 1.376 . S
C1034 C1032 1.394 . S
C1034 C1035 1.369 . S
C1034 C1038 1.531 . S
C1035 C1034 1.369 . S
C1035 C1036 1.410 . S
C1035 C1043 1.503 . S
C1036 C1035 1.410 . S
C1036 C1037 1.392 . S
C1036 C1039 1.511 . S
C1037 C1033 1.376 . S
C1037 C1036 1.392 . S
C1037 H1049 0.929 . S
C1038 C1034 1.531 . S
C1038 H1050 0.960 . S
C1038 H1051 0.962 . S
C1038 H1052 0.960 . S
C1039 C1036 1.511 . S
C1039 H1053 0.961 . S
C1039 H1054 0.961 . S
C1039 H1055 0.961 . S
C1040 C1041 1.370 . S
C1040 C1042 1.363 1_655 S
C1040 H1056 0.931 . S
C1041 C1040 1.370 . S
C1041 C1045 1.408 . S
C1042 C1040 1.363 1_455 S
C1042 C1043 1.370 . S
C1042 C1046 1.524 . S
C1043 C1035 1.503 . S
C1043 C1042 1.370 . S
C1043 C1044 1.403 . S
C1044 C1043 1.403 . S
C1044 C1045 1.404 1_455 S
C1044 C1047 1.539 . S
C1045 C1041 1.408 . S
C1045 C1044 1.404 1_655 S
C1045 H1057 0.930 . S
C1046 C1042 1.524 . S
C1046 H1058 0.956 . S
C1046 H1059 0.961 . S
C1046 H1060 0.961 . S
C1047 C1044 1.539 . S
C1047 H1061 0.958 . S
C1047 H1062 0.961 . S
C1047 H1063 0.960 . S
H1048 C1032 0.931 . S
H1049 C1037 0.929 . S
H1050 C1038 0.960 . S
H1051 C1038 0.962 . S
H1052 C1038 0.960 . S
H1053 C1039 0.961 . S
H1054 C1039 0.961 . S
H1055 C1039 0.961 . S
H1056 C1040 0.931 . S
H1057 C1045 0.930 . S
H1058 C1046 0.956 . S
H1059 C1046 0.961 . S
H1060 C1046 0.961 . S
H1061 C1047 0.958 . S
H1062 C1047 0.961 . S
H1063 C1047 0.960 . S
C1064 C1065 1.391 . S
C1064 C1066 1.394 . S
C1064 H1080 0.931 . S
C1065 C1064 1.391 . S
C1065 C1069 1.376 . S
C1066 C1064 1.394 . S
C1066 C1067 1.369 . S
C1066 C1070 1.531 . S
C1067 C1066 1.369 . S
C1067 C1068 1.410 . S
C1067 C1075 1.503 . S
C1068 C1067 1.410 . S
C1068 C1069 1.392 . S
C1068 C1071 1.511 . S
C1069 C1065 1.376 . S
C1069 C1068 1.392 . S
C1069 H1081 0.929 . S
C1070 C1066 1.531 . S
C1070 H1082 0.960 . S
C1070 H1083 0.962 . S
C1070 H1084 0.960 . S
C1071 C1068 1.511 . S
C1071 H1085 0.961 . S
C1071 H1086 0.961 . S
C1071 H1087 0.961 . S
C1072 C1073 1.370 . S
C1072 C1074 1.363 . S
C1072 H1088 0.931 . S
C1073 C1072 1.370 . S
C1073 C1077 1.408 . S
C1074 C1072 1.363 . S
C1074 C1075 1.370 . S
C1074 C1078 1.524 . S
C1075 C1067 1.503 . S
C1075 C1074 1.370 . S
C1075 C1076 1.403 . S
C1076 C1075 1.403 . S
C1076 C1077 1.404 . S
C1076 C1079 1.539 . S
C1077 C1073 1.408 . S
C1077 C1076 1.404 . S
C1077 H1089 0.930 . S
C1078 C1074 1.524 . S
C1078 H1090 0.956 . S
C1078 H1091 0.961 . S
C1078 H1092 0.961 . S
C1079 C1076 1.539 . S
C1079 H1093 0.958 . S
C1079 H1094 0.961 . S
C1079 H1095 0.960 . S
H1080 C1064 0.931 . S
H1081 C1069 0.929 . S
H1082 C1070 0.960 . S
H1083 C1070 0.962 . S
H1084 C1070 0.960 . S
H1085 C1071 0.961 . S
H1086 C1071 0.961 . S
H1087 C1071 0.961 . S
H1088 C1072 0.931 . S
H1089 C1077 0.930 . S
H1090 C1078 0.956 . S
H1091 C1078 0.961 . S
H1092 C1078 0.961 . S
H1093 C1079 0.958 . S
H1094 C1079 0.961 . S
H1095 C1079 0.960 . S
C1096 C1097 1.391 . S
C1096 C1098 1.394 . S
C1096 H1112 0.931 . S
C1097 C1096 1.391 . S
C1097 C1101 1.376 . S
C1098 C1096 1.394 . S
C1098 C1099 1.369 . S
C1098 C1102 1.531 . S
C1099 C1098 1.369 . S
C1099 C1100 1.410 . S
C1099 C1107 1.503 . S
C1100 C1099 1.410 . S
C1100 C1101 1.392 . S
C1100 C1103 1.511 . S
C1101 C1097 1.376 . S
C1101 C1100 1.392 . S
C1101 H1113 0.929 . S
C1102 C1098 1.531 . S
C1102 H1114 0.960 . S
C1102 H1115 0.926 1_556 S
C1102 H1116 0.960 . S
C1103 C1100 1.511 . S
C1103 H1117 0.961 . S
C1103 H1118 0.961 . S
C1103 H1119 0.961 . S
C1104 C1105 1.370 . S
C1104 C1106 1.363 . S
C1104 H1120 0.931 . S
C1105 C1104 1.370 . S
C1105 C1109 1.408 1_554 S
C1106 C1104 1.363 . S
C1106 C1107 1.370 1_554 S
C1106 C1110 1.524 . S
C1107 C1099 1.503 . S
C1107 C1106 1.370 1_556 S
C1107 C1108 1.403 . S
C1108 C1107 1.403 . S
C1108 C1109 1.404 . S
C1108 C1111 1.539 . S
C1109 C1105 1.408 1_556 S
C1109 C1108 1.404 . S
C1109 H1121 0.930 . S
C1110 C1106 1.524 . S
C1110 H1122 0.956 . S
C1110 H1123 0.978 . S
C1110 H1124 0.961 . S
C1111 C1108 1.539 . S
C1111 H1125 0.958 . S
C1111 H1126 0.961 . S
C1111 H1127 0.960 . S
H1112 C1096 0.931 . S
H1113 C1101 0.929 . S
H1114 C1102 0.960 . S
H1115 C1102 0.926 1_554 S
H1116 C1102 0.960 . S
H1117 C1103 0.961 . S
H1118 C1103 0.961 . S
H1119 C1103 0.961 . S
H1120 C1104 0.931 . S
H1121 C1109 0.930 . S
H1122 C1110 0.956 . S
H1123 C1110 0.978 . S
H1124 C1110 0.961 . S
H1125 C1111 0.958 . S
H1126 C1111 0.961 . S
H1127 C1111 0.960 . S
C1128 C1129 1.391 . S
C1128 C1130 1.394 . S
C1128 H1144 0.931 . S
C1129 C1128 1.391 . S
C1129 C1133 1.376 . S
C1130 C1128 1.394 . S
C1130 C1131 1.369 . S
C1130 C1134 1.531 . S
C1131 C1130 1.369 . S
C1131 C1132 1.410 . S
C1131 C1139 1.503 . S
C1132 C1131 1.410 . S
C1132 C1133 1.392 . S
C1132 C1135 1.511 . S
C1133 C1129 1.376 . S
C1133 C1132 1.392 . S
C1133 H1145 0.929 . S
C1134 C1130 1.531 . S
C1134 H1146 0.960 . S
C1134 H1147 0.962 . S
C1134 H1148 0.960 . S
C1135 C1132 1.511 . S
C1135 H1149 0.961 . S
C1135 H1150 0.961 . S
C1135 H1151 0.961 . S
C1136 C1137 1.370 . S
C1136 C1138 1.363 . S
C1136 H1152 0.931 . S
C1137 C1136 1.370 . S
C1137 C1141 1.408 . S
C1138 C1136 1.363 . S
C1138 C1139 1.370 . S
C1138 C1142 1.524 . S
C1139 C1131 1.503 . S
C1139 C1138 1.370 . S
C1139 C1140 1.403 . S
C1140 C1139 1.403 . S
C1140 C1141 1.404 . S
C1140 C1143 1.539 . S
C1141 C1137 1.408 . S
C1141 C1140 1.404 . S
C1141 H1153 0.930 . S
C1142 C1138 1.524 . S
C1142 H1154 0.956 . S
C1142 H1155 0.961 . S
C1142 H1156 0.961 . S
C1143 C1140 1.539 . S
C1143 H1157 0.958 . S
C1143 H1158 0.961 . S
C1143 H1159 0.960 . S
H1144 C1128 0.931 . S
H1145 C1133 0.929 . S
H1146 C1134 0.960 . S
H1147 C1134 0.962 . S
H1148 C1134 0.960 . S
H1149 C1135 0.961 . S
H1150 C1135 0.961 . S
H1151 C1135 0.961 . S
H1152 C1136 0.931 . S
H1153 C1141 0.930 . S
H1154 C1142 0.956 . S
H1155 C1142 0.961 . S
H1156 C1142 0.961 . S
H1157 C1143 0.958 . S
H1158 C1143 0.961 . S
H1159 C1143 0.960 . S
C1160 C1161 1.391 . S
C1160 C1162 1.394 . S
C1160 H1176 0.931 . S
C1161 C1160 1.391 . S
C1161 C1165 1.376 . S
C1162 C1160 1.394 . S
C1162 C1163 1.369 . S
C1162 C1166 1.531 . S
C1163 C1162 1.369 . S
C1163 C1164 1.410 . S
C1163 C1171 1.503 . S
C1164 C1163 1.410 . S
C1164 C1165 1.392 . S
C1164 C1167 1.511 . S
C1165 C1161 1.376 . S
C1165 C1164 1.392 . S
C1165 H1177 0.929 . S
C1166 C1162 1.531 . S
C1166 H1178 0.960 . S
C1166 H1179 0.962 . S
C1166 H1180 0.960 . S
C1167 C1164 1.511 . S
C1167 H1181 0.961 . S
C1167 H1182 0.961 . S
C1167 H1183 0.961 . S
C1168 C1169 1.370 . S
C1168 C1170 1.363 . S
C1168 H1184 0.931 . S
C1169 C1168 1.370 . S
C1169 C1173 1.408 . S
C1170 C1168 1.363 . S
C1170 C1171 1.370 . S
C1170 C1174 1.524 . S
C1171 C1163 1.503 . S
C1171 C1170 1.370 . S
C1171 C1172 1.403 . S
C1172 C1171 1.403 . S
C1172 C1173 1.404 . S
C1172 C1175 1.539 . S
C1173 C1169 1.408 . S
C1173 C1172 1.404 . S
C1173 H1185 0.930 . S
C1174 C1170 1.524 . S
C1174 H1186 0.956 . S
C1174 H1187 0.961 . S
C1174 H1188 0.961 . S
C1175 C1172 1.539 . S
C1175 H1189 0.958 . S
C1175 H1190 0.961 . S
C1175 H1191 0.960 . S
H1176 C1160 0.931 . S
H1177 C1165 0.929 . S
H1178 C1166 0.960 . S
H1179 C1166 0.962 . S
H1180 C1166 0.960 . S
H1181 C1167 0.961 . S
H1182 C1167 0.961 . S
H1183 C1167 0.961 . S
H1184 C1168 0.931 . S
H1185 C1173 0.930 . S
H1186 C1174 0.956 . S
H1187 C1174 0.961 . S
H1188 C1174 0.961 . S
H1189 C1175 0.958 . S
H1190 C1175 0.961 . S
H1191 C1175 0.960 . S
C1192 C1193 1.391 . S
C1192 C1194 1.394 . S
C1192 H1208 0.931 . S
C1193 C1192 1.391 . S
C1193 C1197 1.376 . S
C1194 C1192 1.394 . S
C1194 C1195 1.369 . S
C1194 C1198 1.531 . S
C1195 C1194 1.369 . S
C1195 C1196 1.410 . S
C1195 C1203 1.503 . S
C1196 C1195 1.410 . S
C1196 C1197 1.392 . S
C1196 C1199 1.511 . S
C1197 C1193 1.376 . S
C1197 C1196 1.392 . S
C1197 H1209 0.929 . S
C1198 C1194 1.531 . S
C1198 H1210 0.960 . S
C1198 H1211 0.962 . S
C1198 H1212 0.960 . S
C1199 C1196 1.511 . S
C1199 H1213 0.961 . S
C1199 H1214 0.961 . S
C1199 H1215 0.961 . S
C1200 C1201 1.370 . S
C1200 C1202 1.363 . S
C1200 H1216 0.931 . S
C1201 C1200 1.370 . S
C1201 C1205 1.408 . S
C1202 C1200 1.363 . S
C1202 C1203 1.370 . S
C1202 C1206 1.524 . S
C1203 C1195 1.503 . S
C1203 C1202 1.370 . S
C1203 C1204 1.403 . S
C1204 C1203 1.403 . S
C1204 C1205 1.404 . S
C1204 C1207 1.539 . S
C1205 C1201 1.408 . S
C1205 C1204 1.404 . S
C1205 H1217 0.930 . S
C1206 C1202 1.524 . S
C1206 H1218 0.956 . S
C1206 H1219 0.961 . S
C1206 H1220 0.961 . S
C1207 C1204 1.539 . S
C1207 H1221 0.958 . S
C1207 H1222 0.961 . S
C1207 H1223 0.960 . S
H1208 C1192 0.931 . S
H1209 C1197 0.929 . S
H1210 C1198 0.960 . S
H1211 C1198 0.962 . S
H1212 C1198 0.960 . S
H1213 C1199 0.961 . S
H1214 C1199 0.961 . S
H1215 C1199 0.961 . S
H1216 C1200 0.931 . S
H1217 C1205 0.930 . S
H1218 C1206 0.956 . S
H1219 C1206 0.961 . S
H1220 C1206 0.961 . S
H1221 C1207 0.958 . S
H1222 C1207 0.961 . S
H1223 C1207 0.960 . S
C1224 C1225 1.391 1_455 S
C1224 C1226 1.394 . S
C1224 H1240 0.929 1_455 S
C1225 C1224 1.391 1_655 S
C1225 C1229 1.376 . S
C1226 C1224 1.394 . S
C1226 C1227 1.369 . S
C1226 C1230 1.531 . S
C1227 C1226 1.369 . S
C1227 C1228 1.410 . S
C1227 C1235 1.503 . S
C1228 C1227 1.410 . S
C1228 C1229 1.392 1_455 S
C1228 C1231 1.511 1_554 S
C1229 C1225 1.376 . S
C1229 C1228 1.392 1_655 S
C1229 H1241 0.929 . S
C1230 C1226 1.531 . S
C1230 H1242 0.960 . S
C1230 H1243 0.962 . S
C1230 H1244 0.960 . S
C1231 C1228 1.511 1_556 S
C1231 H1245 0.961 1_455 S
C1231 H1246 0.961 . S
C1231 H1247 0.961 . S
C1232 C1233 1.370 . S
C1232 C1234 1.363 1_556 S
C1232 H1248 0.931 . S
C1233 C1232 1.370 . S
C1233 C1237 1.410 . S
C1234 C1232 1.363 1_554 S
C1234 C1235 1.370 . S
C1234 C1238 1.524 . S
C1235 C1227 1.503 . S
C1235 C1234 1.370 . S
C1235 C1236 1.403 . S
C1236 C1235 1.403 . S
C1236 C1237 1.402 1_554 S
C1236 C1239 1.539 . S
C1237 C1233 1.410 . S
C1237 C1236 1.402 1_556 S
C1237 H1249 0.930 . S
C1238 C1234 1.524 . S
C1238 H1250 0.956 . S
C1238 H1251 0.954 1_554 S
C1238 H1252 0.961 1_554 S
C1239 C1236 1.539 . S
C1239 H1253 0.958 . S
C1239 H1254 0.961 . S
C1239 H1255 0.960 . S
H1240 C1224 0.929 1_655 S
H1241 C1229 0.929 . S
H1242 C1230 0.960 . S
H1243 C1230 0.962 . S
H1244 C1230 0.960 . S
H1245 C1231 0.961 1_655 S
H1246 C1231 0.961 . S
H1247 C1231 0.961 . S
H1248 C1232 0.931 . S
H1249 C1237 0.930 . S
H1250 C1238 0.956 . S
H1251 C1238 0.954 1_556 S
H1252 C1238 0.961 1_556 S
H1253 C1239 0.958 . S
H1254 C1239 0.961 . S
H1255 C1239 0.960 . S
C1256 C1257 1.391 . S
C1256 C1258 1.394 . S
C1256 H1272 0.931 . S
C1257 C1256 1.391 . S
C1257 C1261 1.376 . S
C1258 C1256 1.394 . S
C1258 C1259 1.369 . S
C1258 C1262 1.531 . S
C1259 C1258 1.369 . S
C1259 C1260 1.410 . S
C1259 C1267 1.503 . S
C1260 C1259 1.410 . S
C1260 C1261 1.392 . S
C1260 C1263 1.511 . S
C1261 C1257 1.376 . S
C1261 C1260 1.392 . S
C1261 H1273 0.929 . S
C1262 C1258 1.531 . S
C1262 H1274 0.960 . S
C1262 H1275 0.962 . S
C1262 H1276 0.960 . S
C1263 C1260 1.511 . S
C1263 H1277 0.961 . S
C1263 H1278 0.961 . S
C1263 H1279 0.961 . S
C1264 C1265 1.370 . S
C1264 C1266 1.363 . S
C1264 H1280 0.931 . S
C1265 C1264 1.370 . S
C1265 C1269 1.408 . S
C1266 C1264 1.363 . S
C1266 C1267 1.370 . S
C1266 C1270 1.524 . S
C1267 C1259 1.503 . S
C1267 C1266 1.370 . S
C1267 C1268 1.403 . S
C1268 C1267 1.403 . S
C1268 C1269 1.404 . S
C1268 C1271 1.539 . S
C1269 C1265 1.408 . S
C1269 C1268 1.404 . S
C1269 H1281 0.930 . S
C1270 C1266 1.524 . S
C1270 H1282 0.956 . S
C1270 H1283 0.961 . S
C1270 H1284 0.961 . S
C1271 C1268 1.539 . S
C1271 H1285 0.958 . S
C1271 H1286 0.961 . S
C1271 H1287 0.960 . S
H1272 C1256 0.931 . S
H1273 C1261 0.929 . S
H1274 C1262 0.960 . S
H1275 C1262 0.962 . S
H1276 C1262 0.960 . S
H1277 C1263 0.961 . S
H1278 C1263 0.961 . S
H1279 C1263 0.961 . S
H1280 C1264 0.931 . S
H1281 C1269 0.930 . S
H1282 C1270 0.956 . S
H1283 C1270 0.961 . S
H1284 C1270 0.961 . S
H1285 C1271 0.958 . S
H1286 C1271 0.961 . S
H1287 C1271 0.960 . S
C1288 C1289 1.391 . S
C1288 C1290 1.394 . S
C1288 H1304 0.931 . S
C1289 C1288 1.391 . S
C1289 C1293 1.376 . S
C1290 C1288 1.394 . S
C1290 C1291 1.369 . S
C1290 C1294 1.531 . S
C1291 C1290 1.369 . S
C1291 C1292 1.410 . S
C1291 C1299 1.503 . S
C1292 C1291 1.410 . S
C1292 C1293 1.392 . S
C1292 C1295 1.511 . S
C1293 C1289 1.376 . S
C1293 C1292 1.392 . S
C1293 H1305 0.929 . S
C1294 C1290 1.531 . S
C1294 H1306 0.960 . S
C1294 H1307 0.962 . S
C1294 H1308 0.960 . S
C1295 C1292 1.511 . S
C1295 H1309 0.961 . S
C1295 H1310 0.961 . S
C1295 H1311 0.961 . S
C1296 C1297 1.370 . S
C1296 C1298 1.363 . S
C1296 H1312 0.931 . S
C1297 C1296 1.370 . S
C1297 C1301 1.408 . S
C1298 C1296 1.363 . S
C1298 C1299 1.370 . S
C1298 C1302 1.524 . S
C1299 C1291 1.503 . S
C1299 C1298 1.370 . S
C1299 C1300 1.403 . S
C1300 C1299 1.403 . S
C1300 C1301 1.404 . S
C1300 C1303 1.539 . S
C1301 C1297 1.408 . S
C1301 C1300 1.404 . S
C1301 H1313 0.930 . S
C1302 C1298 1.524 . S
C1302 H1314 0.956 . S
C1302 H1315 0.961 . S
C1302 H1316 0.961 . S
C1303 C1300 1.539 . S
C1303 H1317 0.958 . S
C1303 H1318 0.961 . S
C1303 H1319 0.960 . S
H1304 C1288 0.931 . S
H1305 C1293 0.929 . S
H1306 C1294 0.960 . S
H1307 C1294 0.962 . S
H1308 C1294 0.960 . S
H1309 C1295 0.961 . S
H1310 C1295 0.961 . S
H1311 C1295 0.961 . S
H1312 C1296 0.931 . S
H1313 C1301 0.930 . S
H1314 C1302 0.956 . S
H1315 C1302 0.961 . S
H1316 C1302 0.961 . S
H1317 C1303 0.958 . S
H1318 C1303 0.961 . S
H1319 C1303 0.960 . S
C1320 C1321 1.391 . S
C1320 C1322 1.394 1_556 S
C1320 H1336 0.931 . S
C1321 C1320 1.391 . S
C1321 C1325 1.376 . S
C1322 C1320 1.394 1_554 S
C1322 C1323 1.369 . S
C1322 C1326 1.531 . S
C1323 C1322 1.369 . S
C1323 C1324 1.410 . S
C1323 C1331 1.503 . S
C1324 C1323 1.410 . S
C1324 C1325 1.392 1_554 S
C1324 C1327 1.511 . S
C1325 C1321 1.376 . S
C1325 C1324 1.392 1_556 S
C1325 H1337 0.929 . S
C1326 C1322 1.531 . S
C1326 H1338 0.960 . S
C1326 H1339 0.962 . S
C1326 H1340 0.960 1_554 S
C1327 C1324 1.511 . S
C1327 H1341 0.961 . S
C1327 H1342 0.961 . S
C1327 H1343 0.961 . S
C1328 C1329 1.370 . S
C1328 C1330 1.363 . S
C1328 H1344 0.931 . S
C1329 C1328 1.370 . S
C1329 C1333 1.408 . S
C1330 C1328 1.363 . S
C1330 C1331 1.370 . S
C1330 C1334 1.524 . S
C1331 C1323 1.503 . S
C1331 C1330 1.370 . S
C1331 C1332 1.403 . S
C1332 C1331 1.403 . S
C1332 C1333 1.404 . S
C1332 C1335 1.539 . S
C1333 C1329 1.408 . S
C1333 C1332 1.404 . S
C1333 H1345 0.930 . S
C1334 C1330 1.524 . S
C1334 H1346 0.956 . S
C1334 H1347 0.961 . S
C1334 H1348 0.961 . S
C1335 C1332 1.539 . S
C1335 H1349 0.958 . S
C1335 H1350 0.961 . S
C1335 H1351 0.960 . S
H1336 C1320 0.931 . S
H1337 C1325 0.929 . S
H1338 C1326 0.960 . S
H1339 C1326 0.962 . S
H1340 C1326 0.960 1_556 S
H1341 C1327 0.961 . S
H1342 C1327 0.961 . S
H1343 C1327 0.961 . S
H1344 C1328 0.931 . S
H1345 C1333 0.930 . S
H1346 C1334 0.956 . S
H1347 C1334 0.961 . S
H1348 C1334 0.961 . S
H1349 C1335 0.958 . S
H1350 C1335 0.961 . S
H1351 C1335 0.960 . S
C1352 C1353 1.391 . S
C1352 C1354 1.394 . S
C1352 H1368 0.931 . S
C1353 C1352 1.391 . S
C1353 C1357 1.376 . S
C1354 C1352 1.394 . S
C1354 C1355 1.369 . S
C1354 C1358 1.531 . S
C1355 C1354 1.369 . S
C1355 C1356 1.410 . S
C1355 C1363 1.503 . S
C1356 C1355 1.410 . S
C1356 C1357 1.392 . S
C1356 C1359 1.511 . S
C1357 C1353 1.376 . S
C1357 C1356 1.392 . S
C1357 H1369 0.929 . S
C1358 C1354 1.531 . S
C1358 H1370 0.960 . S
C1358 H1371 0.962 . S
C1358 H1372 0.960 . S
C1359 C1356 1.511 . S
C1359 H1373 0.961 . S
C1359 H1374 0.961 . S
C1359 H1375 0.961 . S
C1360 C1361 1.370 . S
C1360 C1362 1.363 . S
C1360 H1376 0.931 . S
C1361 C1360 1.370 . S
C1361 C1365 1.408 . S
C1362 C1360 1.363 . S
C1362 C1363 1.370 . S
C1362 C1366 1.524 . S
C1363 C1355 1.503 . S
C1363 C1362 1.370 . S
C1363 C1364 1.403 . S
C1364 C1363 1.403 . S
C1364 C1365 1.404 . S
C1364 C1367 1.539 . S
C1365 C1361 1.408 . S
C1365 C1364 1.404 . S
C1365 H1377 0.930 . S
C1366 C1362 1.524 . S
C1366 H1378 0.956 . S
C1366 H1379 0.961 . S
C1366 H1380 0.961 . S
C1367 C1364 1.539 . S
C1367 H1381 0.958 . S
C1367 H1382 0.961 . S
C1367 H1383 0.960 . S
H1368 C1352 0.931 . S
H1369 C1357 0.929 . S
H1370 C1358 0.960 . S
H1371 C1358 0.962 . S
H1372 C1358 0.960 . S
H1373 C1359 0.961 . S
H1374 C1359 0.961 . S
H1375 C1359 0.961 . S
H1376 C1360 0.931 . S
H1377 C1365 0.930 . S
H1378 C1366 0.956 . S
H1379 C1366 0.961 . S
H1380 C1366 0.961 . S
H1381 C1367 0.958 . S
H1382 C1367 0.961 . S
H1383 C1367 0.960 . S
C1384 C1385 1.391 . S
C1384 C1386 1.394 1_556 S
C1384 H1400 0.931 . S
C1385 C1384 1.391 . S
C1385 C1389 1.389 . S
C1386 C1384 1.394 1_554 S
C1386 C1387 1.369 . S
C1386 C1390 1.531 . S
C1387 C1386 1.369 . S
C1387 C1388 1.410 . S
C1387 C1395 1.503 . S
C1388 C1387 1.410 . S
C1388 C1389 1.374 1_554 S
C1388 C1391 1.511 . S
C1389 C1385 1.389 . S
C1389 C1388 1.374 1_556 S
C1389 H1401 0.934 . S
C1390 C1386 1.531 . S
C1390 H1402 0.960 . S
C1390 H1403 0.962 . S
C1390 H1404 0.960 . S
C1391 C1388 1.511 . S
C1391 H1405 0.961 . S
C1391 H1406 0.961 . S
C1391 H1407 0.961 . S
C1392 C1393 1.370 . S
C1392 C1394 1.363 . S
C1392 H1408 0.931 . S
C1393 C1392 1.370 . S
C1393 C1397 1.408 1_565 S
C1394 C1392 1.363 . S
C1394 C1395 1.370 1_565 S
C1394 C1398 1.524 . S
C1395 C1387 1.503 . S
C1395 C1394 1.370 1_545 S
C1395 C1396 1.403 . S
C1396 C1395 1.403 . S
C1396 C1397 1.404 . S
C1396 C1399 1.539 . S
C1397 C1393 1.408 1_545 S
C1397 C1396 1.404 . S
C1397 H1409 0.930 . S
C1398 C1394 1.524 . S
C1398 H1410 0.956 . S
C1398 H1411 0.961 . S
C1398 H1412 0.961 . S
C1399 C1396 1.539 . S
C1399 H1413 0.958 . S
C1399 H1414 0.961 . S
C1399 H1415 0.960 . S
H1400 C1384 0.931 . S
H1401 C1389 0.934 . S
H1402 C1390 0.960 . S
H1403 C1390 0.962 . S
H1404 C1390 0.960 . S
H1405 C1391 0.961 . S
H1406 C1391 0.961 . S
H1407 C1391 0.961 . S
H1408 C1392 0.931 . S
H1409 C1397 0.930 . S
H1410 C1398 0.956 . S
H1411 C1398 0.961 . S
H1412 C1398 0.961 . S
H1413 C1399 0.958 . S
H1414 C1399 0.961 . S
H1415 C1399 0.960 . S
C1416 C1417 1.391 . S
C1416 C1418 1.394 . S
C1416 H1432 0.931 . S
C1417 C1416 1.391 . S
C1417 C1421 1.376 . S
C1418 C1416 1.394 . S
C1418 C1419 1.369 . S
C1418 C1422 1.531 . S
C1419 C1418 1.369 . S
C1419 C1420 1.410 . S
C1419 C1427 1.503 . S
C1420 C1419 1.410 . S
C1420 C1421 1.392 . S
C1420 C1423 1.511 . S
C1421 C1417 1.376 . S
C1421 C1420 1.392 . S
C1421 H1433 0.929 . S
C1422 C1418 1.531 . S
C1422 H1434 0.960 . S
C1422 H1435 0.962 . S
C1422 H1436 0.960 . S
C1423 C1420 1.511 . S
C1423 H1437 0.961 . S
C1423 H1438 0.961 . S
C1423 H1439 0.961 . S
C1424 C1425 1.370 . S
C1424 C1426 1.363 . S
C1424 H1440 0.931 . S
C1425 C1424 1.370 . S
C1425 C1429 1.408 . S
C1426 C1424 1.363 . S
C1426 C1427 1.370 . S
C1426 C1430 1.524 . S
C1427 C1419 1.503 . S
C1427 C1426 1.370 . S
C1427 C1428 1.403 . S
C1428 C1427 1.403 . S
C1428 C1429 1.404 . S
C1428 C1431 1.539 . S
C1429 C1425 1.408 . S
C1429 C1428 1.404 . S
C1429 H1441 0.930 . S
C1430 C1426 1.524 . S
C1430 H1442 0.956 . S
C1430 H1443 0.961 . S
C1430 H1444 0.961 . S
C1431 C1428 1.539 . S
C1431 H1445 0.958 . S
C1431 H1446 0.961 . S
C1431 H1447 0.960 . S
H1432 C1416 0.931 . S
H1433 C1421 0.929 . S
H1434 C1422 0.960 . S
H1435 C1422 0.962 . S
H1436 C1422 0.960 . S
H1437 C1423 0.961 . S
H1438 C1423 0.961 . S
H1439 C1423 0.961 . S
H1440 C1424 0.931 . S
H1441 C1429 0.930 . S
H1442 C1430 0.956 . S
H1443 C1430 0.961 . S
H1444 C1430 0.961 . S
H1445 C1431 0.958 . S
H1446 C1431 0.961 . S
H1447 C1431 0.960 . S
C1448 C1449 1.391 . S
C1448 C1450 1.394 . S
C1448 H1464 0.931 . S
C1449 C1448 1.391 . S
C1449 C1453 1.376 . S
C1450 C1448 1.394 . S
C1450 C1451 1.369 . S
C1450 C1454 1.531 . S
C1451 C1450 1.369 . S
C1451 C1452 1.410 . S
C1451 C1459 1.503 . S
C1452 C1451 1.410 . S
C1452 C1453 1.392 . S
C1452 C1455 1.511 . S
C1453 C1449 1.376 . S
C1453 C1452 1.392 . S
C1453 H1465 0.929 . S
C1454 C1450 1.531 . S
C1454 H1466 0.960 . S
C1454 H1467 0.962 . S
C1454 H1468 0.960 . S
C1455 C1452 1.511 . S
C1455 H1469 0.961 . S
C1455 H1470 0.961 . S
C1455 H1471 0.961 . S
C1456 C1457 1.370 . S
C1456 C1458 1.363 . S
C1456 H1472 0.931 . S
C1457 C1456 1.370 . S
C1457 C1461 1.408 . S
C1458 C1456 1.363 . S
C1458 C1459 1.370 . S
C1458 C1462 1.524 . S
C1459 C1451 1.503 . S
C1459 C1458 1.370 . S
C1459 C1460 1.403 . S
C1460 C1459 1.403 . S
C1460 C1461 1.404 . S
C1460 C1463 1.539 . S
C1461 C1457 1.408 . S
C1461 C1460 1.404 . S
C1461 H1473 0.930 . S
C1462 C1458 1.524 . S
C1462 H1474 0.956 . S
C1462 H1475 0.961 . S
C1462 H1476 0.961 . S
C1463 C1460 1.539 . S
C1463 H1477 0.958 . S
C1463 H1478 0.961 . S
C1463 H1479 0.960 . S
H1464 C1448 0.931 . S
H1465 C1453 0.929 . S
H1466 C1454 0.960 . S
H1467 C1454 0.962 . S
H1468 C1454 0.960 . S
H1469 C1455 0.961 . S
H1470 C1455 0.961 . S
H1471 C1455 0.961 . S
H1472 C1456 0.931 . S
H1473 C1461 0.930 . S
H1474 C1462 0.956 . S
H1475 C1462 0.961 . S
H1476 C1462 0.961 . S
H1477 C1463 0.958 . S
H1478 C1463 0.961 . S
H1479 C1463 0.960 . S
C1480 C1481 1.391 . S
C1480 C1482 1.394 1_554 S
C1480 H1496 0.931 . S
C1481 C1480 1.391 . S
C1481 C1485 1.376 . S
C1482 C1480 1.394 1_556 S
C1482 C1483 1.369 . S
C1482 C1486 1.531 . S
C1483 C1482 1.369 . S
C1483 C1484 1.410 . S
C1483 C1491 1.503 . S
C1484 C1483 1.410 . S
C1484 C1485 1.392 1_556 S
C1484 C1487 1.511 . S
C1485 C1481 1.376 . S
C1485 C1484 1.392 1_554 S
C1485 H1497 0.929 . S
C1486 C1482 1.531 . S
C1486 H1498 0.960 . S
C1486 H1499 0.962 . S
C1486 H1500 0.960 1_556 S
C1487 C1484 1.511 . S
C1487 H1501 0.961 . S
C1487 H1502 0.961 . S
C1487 H1503 0.961 . S
C1488 C1489 1.370 . S
C1488 C1490 1.363 . S
C1488 H1504 0.931 . S
C1489 C1488 1.370 . S
C1489 C1493 1.408 . S
C1490 C1488 1.363 . S
C1490 C1491 1.370 . S
C1490 C1494 1.524 . S
C1491 C1483 1.503 . S
C1491 C1490 1.370 . S
C1491 C1492 1.403 . S
C1492 C1491 1.403 . S
C1492 C1493 1.404 . S
C1492 C1495 1.539 . S
C1493 C1489 1.408 . S
C1493 C1492 1.404 . S
C1493 H1505 0.930 . S
C1494 C1490 1.524 . S
C1494 H1506 0.956 . S
C1494 H1507 0.961 . S
C1494 H1508 0.961 . S
C1495 C1492 1.539 . S
C1495 H1509 0.958 . S
C1495 H1510 0.961 . S
C1495 H1511 0.960 . S
H1496 C1480 0.931 . S
H1497 C1485 0.929 . S
H1498 C1486 0.960 . S
H1499 C1486 0.962 . S
H1500 C1486 0.960 1_554 S
H1501 C1487 0.961 . S
H1502 C1487 0.961 . S
H1503 C1487 0.961 . S
H1504 C1488 0.931 . S
H1505 C1493 0.930 . S
H1506 C1494 0.956 . S
H1507 C1494 0.961 . S
H1508 C1494 0.961 . S
H1509 C1495 0.958 . S
H1510 C1495 0.961 . S
H1511 C1495 0.960 . S
C1512 C1513 1.391 . S
C1512 C1514 1.394 . S
C1512 H1528 0.931 . S
C1513 C1512 1.391 . S
C1513 C1517 1.376 . S
C1514 C1512 1.394 . S
C1514 C1515 1.369 . S
C1514 C1518 1.531 . S
C1515 C1514 1.369 . S
C1515 C1516 1.410 . S
C1515 C1523 1.503 . S
C1516 C1515 1.410 . S
C1516 C1517 1.392 . S
C1516 C1519 1.511 . S
C1517 C1513 1.376 . S
C1517 C1516 1.392 . S
C1517 H1529 0.929 . S
C1518 C1514 1.531 . S
C1518 H1530 0.960 . S
C1518 H1531 0.962 . S
C1518 H1532 0.960 . S
C1519 C1516 1.511 . S
C1519 H1533 0.961 . S
C1519 H1534 0.961 . S
C1519 H1535 0.961 . S
C1520 C1521 1.370 . S
C1520 C1522 1.363 . S
C1520 H1536 0.931 . S
C1521 C1520 1.370 . S
C1521 C1525 1.408 . S
C1522 C1520 1.363 . S
C1522 C1523 1.370 . S
C1522 C1526 1.524 . S
C1523 C1515 1.503 . S
C1523 C1522 1.370 . S
C1523 C1524 1.403 . S
C1524 C1523 1.403 . S
C1524 C1525 1.404 . S
C1524 C1527 1.539 . S
C1525 C1521 1.408 . S
C1525 C1524 1.404 . S
C1525 H1537 0.930 . S
C1526 C1522 1.524 . S
C1526 H1538 0.956 . S
C1526 H1539 0.961 . S
C1526 H1540 0.961 . S
C1527 C1524 1.539 . S
C1527 H1541 0.958 . S
C1527 H1542 0.961 . S
C1527 H1543 0.960 . S
H1528 C1512 0.931 . S
H1529 C1517 0.929 . S
H1530 C1518 0.960 . S
H1531 C1518 0.962 . S
H1532 C1518 0.960 . S
H1533 C1519 0.961 . S
H1534 C1519 0.961 . S
H1535 C1519 0.961 . S
H1536 C1520 0.931 . S
H1537 C1525 0.930 . S
H1538 C1526 0.956 . S
H1539 C1526 0.961 . S
H1540 C1526 0.961 . S
H1541 C1527 0.958 . S
H1542 C1527 0.961 . S
H1543 C1527 0.960 . S
C1544 C1545 1.391 . S
C1544 C1546 1.394 . S
C1544 H1560 0.931 . S
C1545 C1544 1.391 . S
C1545 C1549 1.376 . S
C1546 C1544 1.394 . S
C1546 C1547 1.369 . S
C1546 C1550 1.531 . S
C1547 C1546 1.369 . S
C1547 C1548 1.410 . S
C1547 C1555 1.503 . S
C1548 C1547 1.410 . S
C1548 C1549 1.392 . S
C1548 C1551 1.511 . S
C1549 C1545 1.376 . S
C1549 C1548 1.392 . S
C1549 H1561 0.929 . S
C1550 C1546 1.531 . S
C1550 H1562 0.960 . S
C1550 H1563 0.962 . S
C1550 H1564 0.960 . S
C1551 C1548 1.511 . S
C1551 H1565 0.961 . S
C1551 H1566 0.961 . S
C1551 H1567 0.961 . S
C1552 C1553 1.370 . S
C1552 C1554 1.363 . S
C1552 H1568 0.931 . S
C1553 C1552 1.370 . S
C1553 C1557 1.408 . S
C1554 C1552 1.363 . S
C1554 C1555 1.370 . S
C1554 C1558 1.524 . S
C1555 C1547 1.503 . S
C1555 C1554 1.370 . S
C1555 C1556 1.403 . S
C1556 C1555 1.403 . S
C1556 C1557 1.404 . S
C1556 C1559 1.539 . S
C1557 C1553 1.408 . S
C1557 C1556 1.404 . S
C1557 H1569 0.930 . S
C1558 C1554 1.524 . S
C1558 H1570 0.956 . S
C1558 H1571 0.961 . S
C1558 H1572 0.961 . S
C1559 C1556 1.539 . S
C1559 H1573 0.958 . S
C1559 H1574 0.961 . S
C1559 H1575 0.960 . S
H1560 C1544 0.931 . S
H1561 C1549 0.929 . S
H1562 C1550 0.960 . S
H1563 C1550 0.962 . S
H1564 C1550 0.960 . S
H1565 C1551 0.961 . S
H1566 C1551 0.961 . S
H1567 C1551 0.961 . S
H1568 C1552 0.931 . S
H1569 C1557 0.930 . S
H1570 C1558 0.956 . S
H1571 C1558 0.961 . S
H1572 C1558 0.961 . S
H1573 C1559 0.958 . S
H1574 C1559 0.961 . S
H1575 C1559 0.960 . S
C1576 C1577 1.391 . S
C1576 C1578 1.394 . S
C1576 H1592 0.931 . S
C1577 C1576 1.391 . S
C1577 C1581 1.376 . S
C1578 C1576 1.394 . S
C1578 C1579 1.369 . S
C1578 C1582 1.531 . S
C1579 C1578 1.369 . S
C1579 C1580 1.410 . S
C1579 C1587 1.503 . S
C1580 C1579 1.410 . S
C1580 C1581 1.392 . S
C1580 C1583 1.511 . S
C1581 C1577 1.376 . S
C1581 C1580 1.392 . S
C1581 H1593 0.929 . S
C1582 C1578 1.531 . S
C1582 H1594 0.960 . S
C1582 H1595 0.962 . S
C1582 H1596 0.960 . S
C1583 C1580 1.511 . S
C1583 H1597 0.961 . S
C1583 H1598 0.961 . S
C1583 H1599 0.961 . S
C1584 C1585 1.370 . S
C1584 C1586 1.363 . S
C1584 H1600 0.931 . S
C1585 C1584 1.370 . S
C1585 C1589 1.408 . S
C1586 C1584 1.363 . S
C1586 C1587 1.370 . S
C1586 C1590 1.524 . S
C1587 C1579 1.503 . S
C1587 C1586 1.370 . S
C1587 C1588 1.403 . S
C1588 C1587 1.403 . S
C1588 C1589 1.404 . S
C1588 C1591 1.539 . S
C1589 C1585 1.408 . S
C1589 C1588 1.404 . S
C1589 H1601 0.930 . S
C1590 C1586 1.524 . S
C1590 H1602 0.956 . S
C1590 H1603 0.961 . S
C1590 H1604 0.961 . S
C1591 C1588 1.539 . S
C1591 H1605 0.958 . S
C1591 H1606 0.961 . S
C1591 H1607 0.960 . S
H1592 C1576 0.931 . S
H1593 C1581 0.929 . S
H1594 C1582 0.960 . S
H1595 C1582 0.962 . S
H1596 C1582 0.960 . S
H1597 C1583 0.961 . S
H1598 C1583 0.961 . S
H1599 C1583 0.961 . S
H1600 C1584 0.931 . S
H1601 C1589 0.930 . S
H1602 C1590 0.956 . S
H1603 C1590 0.961 . S
H1604 C1590 0.961 . S
H1605 C1591 0.958 . S
H1606 C1591 0.961 . S
H1607 C1591 0.960 . S
C1608 C1609 1.391 . S
C1608 C1610 1.394 . S
C1608 H1624 0.931 . S
C1609 C1608 1.391 . S
C1609 C1613 1.376 1_455 S
C1610 C1608 1.394 . S
C1610 C1611 1.369 1_455 S
C1610 C1614 1.531 . S
C1611 C1610 1.369 1_655 S
C1611 C1612 1.410 . S
C1611 C1619 1.503 . S
C1612 C1611 1.410 . S
C1612 C1613 1.392 . S
C1612 C1615 1.511 . S
C1613 C1609 1.376 1_655 S
C1613 C1612 1.392 . S
C1613 H1625 0.929 . S
C1614 C1610 1.531 . S
C1614 H1626 0.960 . S
C1614 H1627 0.962 . S
C1614 H1628 0.960 . S
C1615 C1612 1.511 . S
C1615 H1629 0.961 . S
C1615 H1630 0.961 . S
C1615 H1631 0.961 . S
C1616 C1617 1.370 . S
C1616 C1618 1.363 . S
C1616 H1632 0.931 . S
C1617 C1616 1.370 . S
C1617 C1621 1.408 . S
C1618 C1616 1.363 . S
C1618 C1619 1.370 . S
C1618 C1622 1.524 . S
C1619 C1611 1.503 . S
C1619 C1618 1.370 . S
C1619 C1620 1.403 . S
C1620 C1619 1.403 . S
C1620 C1621 1.404 . S
C1620 C1623 1.539 . S
C1621 C1617 1.408 . S
C1621 C1620 1.404 . S
C1621 H1633 0.930 . S
C1622 C1618 1.524 . S
C1622 H1634 0.956 . S
C1622 H1635 0.961 . S
C1622 H1636 0.961 . S
C1623 C1620 1.539 . S
C1623 H1637 0.958 . S
C1623 H1638 0.961 . S
C1623 H1639 0.960 . S
H1624 C1608 0.931 . S
H1625 C1613 0.929 . S
H1626 C1614 0.960 . S
H1627 C1614 0.962 . S
H1628 C1614 0.960 . S
H1629 C1615 0.961 . S
H1630 C1615 0.961 . S
H1631 C1615 0.961 . S
H1632 C1616 0.931 . S
H1633 C1621 0.930 . S
H1634 C1622 0.956 . S
H1635 C1622 0.961 . S
H1636 C1622 0.961 . S
H1637 C1623 0.958 . S
H1638 C1623 0.961 . S
H1639 C1623 0.960 . S
C1640 C1641 1.391 . S
C1640 C1642 1.394 . S
C1640 H1656 0.931 . S
C1641 C1640 1.391 . S
C1641 C1645 1.376 . S
C1642 C1640 1.394 . S
C1642 C1643 1.369 . S
C1642 C1646 1.531 . S
C1643 C1642 1.369 . S
C1643 C1644 1.410 . S
C1643 C1651 1.503 . S
C1644 C1643 1.410 . S
C1644 C1645 1.392 . S
C1644 C1647 1.511 . S
C1645 C1641 1.376 . S
C1645 C1644 1.392 . S
C1645 H1657 0.929 . S
C1646 C1642 1.531 . S
C1646 H1658 0.960 . S
C1646 H1659 0.962 . S
C1646 H1660 0.960 . S
C1647 C1644 1.511 . S
C1647 H1661 0.961 . S
C1647 H1662 0.961 . S
C1647 H1663 0.961 . S
C1648 C1649 1.370 . S
C1648 C1650 1.363 . S
C1648 H1664 0.931 . S
C1649 C1648 1.370 . S
C1649 C1653 1.408 . S
C1650 C1648 1.363 . S
C1650 C1651 1.370 . S
C1650 C1654 1.524 . S
C1651 C1643 1.503 . S
C1651 C1650 1.370 . S
C1651 C1652 1.403 . S
C1652 C1651 1.403 . S
C1652 C1653 1.404 . S
C1652 C1655 1.539 . S
C1653 C1649 1.408 . S
C1653 C1652 1.404 . S
C1653 H1665 0.930 . S
C1654 C1650 1.524 . S
C1654 H1666 0.956 . S
C1654 H1667 0.961 . S
C1654 H1668 0.961 . S
C1655 C1652 1.539 . S
C1655 H1669 0.958 . S
C1655 H1670 0.961 . S
C1655 H1671 0.960 . S
H1656 C1640 0.931 . S
H1657 C1645 0.929 . S
H1658 C1646 0.960 . S
H1659 C1646 0.962 . S
H1660 C1646 0.960 . S
H1661 C1647 0.961 . S
H1662 C1647 0.961 . S
H1663 C1647 0.961 . S
H1664 C1648 0.931 . S
H1665 C1653 0.930 . S
H1666 C1654 0.956 . S
H1667 C1654 0.961 . S
H1668 C1654 0.961 . S
H1669 C1655 0.958 . S
H1670 C1655 0.961 . S
H1671 C1655 0.960 . S
C1672 C1673 1.391 . S
C1672 C1674 1.394 . S
C1672 H1688 0.931 . S
C1673 C1672 1.391 . S
C1673 C1677 1.376 . S
C1674 C1672 1.394 . S
C1674 C1675 1.369 . S
C1674 C1678 1.531 . S
C1675 C1674 1.369 . S
C1675 C1676 1.410 . S
C1675 C1683 1.503 . S
C1676 C1675 1.410 . S
C1676 C1677 1.392 . S
C1676 C1679 1.511 1_655 S
C1677 C1673 1.376 . S
C1677 C1676 1.392 . S
C1677 H1689 0.929 . S
C1678 C1674 1.531 . S
C1678 H1690 0.960 . S
C1678 H1691 0.962 . S
C1678 H1692 0.960 . S
C1679 C1676 1.511 1_455 S
C1679 H1693 0.961 1_455 S
C1679 H1694 0.961 . S
C1679 H1695 0.961 . S
C1680 C1681 1.370 1_655 S
C1680 C1682 1.363 . S
C1680 H1696 0.931 . S
C1681 C1680 1.370 1_455 S
C1681 C1685 1.408 . S
C1682 C1680 1.363 . S
C1682 C1683 1.370 . S
C1682 C1686 1.524 . S
C1683 C1675 1.503 . S
C1683 C1682 1.370 . S
C1683 C1684 1.403 1_655 S
C1684 C1683 1.403 1_455 S
C1684 C1685 1.404 . S
C1684 C1687 1.539 . S
C1685 C1681 1.408 . S
C1685 C1684 1.404 . S
C1685 H1697 0.930 . S
C1686 C1682 1.524 . S
C1686 H1698 0.956 . S
C1686 H1699 0.961 . S
C1686 H1700 0.961 . S
C1687 C1684 1.539 . S
C1687 H1701 0.958 . S
C1687 H1702 0.961 . S
C1687 H1703 0.960 . S
H1688 C1672 0.931 . S
H1689 C1677 0.929 . S
H1690 C1678 0.960 . S
H1691 C1678 0.962 . S
H1692 C1678 0.960 . S
H1693 C1679 0.961 1_655 S
H1694 C1679 0.961 . S
H1695 C1679 0.961 . S
H1696 C1680 0.931 . S
H1697 C1685 0.930 . S
H1698 C1686 0.956 . S
H1699 C1686 0.961 . S
H1700 C1686 0.961 . S
H1701 C1687 0.958 . S
H1702 C1687 0.961 . S
H1703 C1687 0.960 . S
C1704 C1705 1.391 . S
C1704 C1706 1.394 . S
C1704 H1720 0.931 . S
C1705 C1704 1.391 . S
C1705 C1709 1.376 . S
C1706 C1704 1.394 . S
C1706 C1707 1.369 . S
C1706 C1710 1.531 . S
C1707 C1706 1.369 . S
C1707 C1708 1.410 . S
C1707 C1715 1.503 . S
C1708 C1707 1.410 . S
C1708 C1709 1.392 . S
C1708 C1711 1.511 . S
C1709 C1705 1.376 . S
C1709 C1708 1.392 . S
C1709 H1721 0.929 . S
C1710 C1706 1.531 . S
C1710 H1722 0.960 . S
C1710 H1723 0.962 . S
C1710 H1724 0.960 . S
C1711 C1708 1.511 . S
C1711 H1725 0.961 . S
C1711 H1726 0.961 . S
C1711 H1727 0.961 . S
C1712 C1713 1.370 . S
C1712 C1714 1.363 . S
C1712 H1728 0.931 . S
C1713 C1712 1.370 . S
C1713 C1717 1.408 . S
C1714 C1712 1.363 . S
C1714 C1715 1.370 . S
C1714 C1718 1.524 . S
C1715 C1707 1.503 . S
C1715 C1714 1.370 . S
C1715 C1716 1.403 . S
C1716 C1715 1.403 . S
C1716 C1717 1.404 . S
C1716 C1719 1.539 . S
C1717 C1713 1.408 . S
C1717 C1716 1.404 . S
C1717 H1729 0.930 . S
C1718 C1714 1.524 . S
C1718 H1730 0.956 . S
C1718 H1731 0.961 . S
C1718 H1732 0.961 . S
C1719 C1716 1.539 . S
C1719 H1733 0.958 . S
C1719 H1734 0.961 . S
C1719 H1735 0.960 . S
H1720 C1704 0.931 . S
H1721 C1709 0.929 . S
H1722 C1710 0.960 . S
H1723 C1710 0.962 . S
H1724 C1710 0.960 . S
H1725 C1711 0.961 . S
H1726 C1711 0.961 . S
H1727 C1711 0.961 . S
H1728 C1712 0.931 . S
H1729 C1717 0.930 . S
H1730 C1718 0.956 . S
H1731 C1718 0.961 . S
H1732 C1718 0.961 . S
H1733 C1719 0.958 . S
H1734 C1719 0.961 . S
H1735 C1719 0.960 . S
C1736 C1737 1.391 . S
C1736 C1738 1.394 . S
C1736 H1752 0.931 . S
C1737 C1736 1.391 . S
C1737 C1741 1.376 . S
C1738 C1736 1.394 . S
C1738 C1739 1.369 . S
C1738 C1742 1.531 . S
C1739 C1738 1.369 . S
C1739 C1740 1.410 . S
C1739 C1747 1.503 . S
C1740 C1739 1.410 . S
C1740 C1741 1.392 . S
C1740 C1743 1.511 . S
C1741 C1737 1.376 . S
C1741 C1740 1.392 . S
C1741 H1753 0.929 . S
C1742 C1738 1.531 . S
C1742 H1754 0.960 . S
C1742 H1755 0.962 . S
C1742 H1756 0.960 . S
C1743 C1740 1.511 . S
C1743 H1757 0.961 . S
C1743 H1758 0.961 . S
C1743 H1759 0.961 . S
C1744 C1745 1.370 . S
C1744 C1746 1.363 . S
C1744 H1760 0.931 . S
C1745 C1744 1.370 . S
C1745 C1749 1.408 . S
C1746 C1744 1.363 . S
C1746 C1747 1.370 . S
C1746 C1750 1.524 . S
C1747 C1739 1.503 . S
C1747 C1746 1.370 . S
C1747 C1748 1.403 . S
C1748 C1747 1.403 . S
C1748 C1749 1.404 . S
C1748 C1751 1.539 . S
C1749 C1745 1.408 . S
C1749 C1748 1.404 . S
C1749 H1761 0.930 . S
C1750 C1746 1.524 . S
C1750 H1762 0.956 . S
C1750 H1763 0.961 . S
C1750 H1764 0.961 . S
C1751 C1748 1.539 . S
C1751 H1765 0.958 . S
C1751 H1766 0.961 . S
C1751 H1767 0.960 . S
H1752 C1736 0.931 . S
H1753 C1741 0.929 . S
H1754 C1742 0.960 . S
H1755 C1742 0.962 . S
H1756 C1742 0.960 . S
H1757 C1743 0.961 . S
H1758 C1743 0.961 . S
H1759 C1743 0.961 . S
H1760 C1744 0.931 . S
H1761 C1749 0.930 . S
H1762 C1750 0.956 . S
H1763 C1750 0.961 . S
H1764 C1750 0.961 . S
H1765 C1751 0.958 . S
H1766 C1751 0.961 . S
H1767 C1751 0.960 . S
C1768 C1769 1.391 . S
C1768 C1770 1.394 . S
C1768 H1784 0.931 . S
C1769 C1768 1.391 . S
C1769 C1773 1.376 . S
C1770 C1768 1.394 . S
C1770 C1771 1.369 . S
C1770 C1774 1.531 . S
C1771 C1770 1.369 . S
C1771 C1772 1.410 . S
C1771 C1779 1.503 . S
C1772 C1771 1.410 . S
C1772 C1773 1.392 . S
C1772 C1775 1.511 . S
C1773 C1769 1.376 . S
C1773 C1772 1.392 . S
C1773 H1785 0.929 . S
C1774 C1770 1.531 . S
C1774 H1786 0.960 . S
C1774 H1787 0.962 . S
C1774 H1788 0.960 . S
C1775 C1772 1.511 . S
C1775 H1789 0.961 . S
C1775 H1790 0.961 . S
C1775 H1791 0.961 . S
C1776 C1777 1.370 . S
C1776 C1778 1.363 . S
C1776 H1792 0.931 . S
C1777 C1776 1.370 . S
C1777 C1781 1.408 . S
C1778 C1776 1.363 . S
C1778 C1779 1.370 . S
C1778 C1782 1.524 . S
C1779 C1771 1.503 . S
C1779 C1778 1.370 . S
C1779 C1780 1.403 . S
C1780 C1779 1.403 . S
C1780 C1781 1.404 . S
C1780 C1783 1.539 . S
C1781 C1777 1.408 . S
C1781 C1780 1.404 . S
C1781 H1793 0.930 . S
C1782 C1778 1.524 . S
C1782 H1794 0.956 . S
C1782 H1795 0.961 . S
C1782 H1796 0.961 . S
C1783 C1780 1.539 . S
C1783 H1797 0.958 . S
C1783 H1798 0.961 . S
C1783 H1799 0.960 . S
H1784 C1768 0.931 . S
H1785 C1773 0.929 . S
H1786 C1774 0.960 . S
H1787 C1774 0.962 . S
H1788 C1774 0.960 . S
H1789 C1775 0.961 . S
H1790 C1775 0.961 . S
H1791 C1775 0.961 . S
H1792 C1776 0.931 . S
H1793 C1781 0.930 . S
H1794 C1782 0.956 . S
H1795 C1782 0.961 . S
H1796 C1782 0.961 . S
H1797 C1783 0.958 . S
H1798 C1783 0.961 . S
H1799 C1783 0.960 . S
C1800 C1801 1.391 1_556 S
C1800 C1802 1.394 . S
C1800 H1816 0.931 . S
C1801 C1800 1.391 1_554 S
C1801 C1805 1.376 . S
C1802 C1800 1.394 . S
C1802 C1803 1.369 . S
C1802 C1806 1.531 . S
C1803 C1802 1.369 . S
C1803 C1804 1.410 1_556 S
C1803 C1811 1.503 . S
C1804 C1803 1.410 1_554 S
C1804 C1805 1.392 . S
C1804 C1807 1.511 . S
C1805 C1801 1.376 . S
C1805 C1804 1.392 . S
C1805 H1817 0.929 . S
C1806 C1802 1.531 . S
C1806 H1818 0.960 . S
C1806 H1819 0.962 . S
C1806 H1820 0.960 . S
C1807 C1804 1.511 . S
C1807 H1821 0.961 . S
C1807 H1822 0.961 . S
C1807 H1823 0.961 . S
C1808 C1809 1.370 . S
C1808 C1810 1.363 . S
C1808 H1824 0.931 . S
C1809 C1808 1.370 . S
C1809 C1813 1.408 . S
C1810 C1808 1.363 . S
C1810 C1811 1.370 . S
C1810 C1814 1.524 . S
C1811 C1803 1.503 . S
C1811 C1810 1.370 . S
C1811 C1812 1.403 . S
C1812 C1811 1.403 . S
C1812 C1813 1.404 . S
C1812 C1815 1.539 . S
C1813 C1809 1.408 . S
C1813 C1812 1.404 . S
C1813 H1825 0.930 . S
C1814 C1810 1.524 . S
C1814 H1826 0.956 . S
C1814 H1827 0.961 . S
C1814 H1828 0.961 . S
C1815 C1812 1.539 . S
C1815 H1829 0.958 . S
C1815 H1830 0.961 . S
C1815 H1831 0.960 . S
H1816 C1800 0.931 . S
H1817 C1805 0.929 . S
H1818 C1806 0.960 . S
H1819 C1806 0.962 . S
H1820 C1806 0.960 . S
H1821 C1807 0.961 . S
H1822 C1807 0.961 . S
H1823 C1807 0.961 . S
H1824 C1808 0.931 . S
H1825 C1813 0.930 . S
H1826 C1814 0.956 . S
H1827 C1814 0.961 . S
H1828 C1814 0.961 . S
H1829 C1815 0.958 . S
H1830 C1815 0.961 . S
H1831 C1815 0.960 . S
C1832 C1833 1.391 . S
C1832 C1834 1.394 . S
C1832 H1848 0.931 . S
C1833 C1832 1.391 . S
C1833 C1837 1.376 . S
C1834 C1832 1.394 . S
C1834 C1835 1.369 . S
C1834 C1838 1.531 . S
C1835 C1834 1.369 . S
C1835 C1836 1.410 . S
C1835 C1843 1.503 . S
C1836 C1835 1.410 . S
C1836 C1837 1.392 . S
C1836 C1839 1.511 . S
C1837 C1833 1.376 . S
C1837 C1836 1.392 . S
C1837 H1849 0.929 . S
C1838 C1834 1.531 . S
C1838 H1850 0.960 . S
C1838 H1851 0.962 . S
C1838 H1852 0.960 . S
C1839 C1836 1.511 . S
C1839 H1853 0.961 . S
C1839 H1854 0.961 . S
C1839 H1855 0.961 . S
C1840 C1841 1.370 . S
C1840 C1842 1.363 . S
C1840 H1856 0.931 . S
C1841 C1840 1.370 . S
C1841 C1845 1.408 . S
C1842 C1840 1.363 . S
C1842 C1843 1.370 . S
C1842 C1846 1.524 . S
C1843 C1835 1.503 . S
C1843 C1842 1.370 . S
C1843 C1844 1.403 . S
C1844 C1843 1.403 . S
C1844 C1845 1.404 . S
C1844 C1847 1.539 . S
C1845 C1841 1.408 . S
C1845 C1844 1.404 . S
C1845 H1857 0.930 . S
C1846 C1842 1.524 . S
C1846 H1858 0.956 . S
C1846 H1859 0.961 . S
C1846 H1860 0.961 . S
C1847 C1844 1.539 . S
C1847 H1861 0.958 . S
C1847 H1862 0.961 . S
C1847 H1863 0.960 . S
H1848 C1832 0.931 . S
H1849 C1837 0.929 . S
H1850 C1838 0.960 . S
H1851 C1838 0.962 . S
H1852 C1838 0.960 . S
H1853 C1839 0.961 . S
H1854 C1839 0.961 . S
H1855 C1839 0.961 . S
H1856 C1840 0.931 . S
H1857 C1845 0.930 . S
H1858 C1846 0.956 . S
H1859 C1846 0.961 . S
H1860 C1846 0.961 . S
H1861 C1847 0.958 . S
H1862 C1847 0.961 . S
H1863 C1847 0.960 . S
C1864 C1865 1.391 . S
C1864 C1866 1.394 1_455 S
C1864 H1880 0.931 . S
C1865 C1864 1.391 . S
C1865 C1869 1.376 . S
C1866 C1864 1.394 1_655 S
C1866 C1867 1.369 . S
C1866 C1870 1.531 . S
C1867 C1866 1.369 . S
C1867 C1868 1.410 . S
C1867 C1875 1.503 . S
C1868 C1867 1.410 . S
C1868 C1869 1.392 1_655 S
C1868 C1871 1.511 . S
C1869 C1865 1.376 . S
C1869 C1868 1.392 1_455 S
C1869 H1881 0.929 . S
C1870 C1866 1.531 . S
C1870 H1882 0.960 . S
C1870 H1883 0.962 . S
C1870 H1884 0.960 . S
C1871 C1868 1.511 . S
C1871 H1885 0.961 . S
C1871 H1886 0.961 . S
C1871 H1887 0.961 . S
C1872 C1873 1.370 . S
C1872 C1874 1.363 . S
C1872 H1888 0.931 . S
C1873 C1872 1.370 . S
C1873 C1877 1.408 . S
C1874 C1872 1.363 . S
C1874 C1875 1.370 . S
C1874 C1878 1.524 . S
C1875 C1867 1.503 . S
C1875 C1874 1.370 . S
C1875 C1876 1.403 . S
C1876 C1875 1.403 . S
C1876 C1877 1.404 . S
C1876 C1879 1.539 . S
C1877 C1873 1.408 . S
C1877 C1876 1.404 . S
C1877 H1889 0.930 . S
C1878 C1874 1.524 . S
C1878 H1890 0.956 . S
C1878 H1891 0.961 . S
C1878 H1892 0.961 . S
C1879 C1876 1.539 . S
C1879 H1893 0.958 . S
C1879 H1894 0.961 . S
C1879 H1895 0.960 . S
H1880 C1864 0.931 . S
H1881 C1869 0.929 . S
H1882 C1870 0.960 . S
H1883 C1870 0.962 . S
H1884 C1870 0.960 . S
H1885 C1871 0.961 . S
H1886 C1871 0.961 . S
H1887 C1871 0.961 . S
H1888 C1872 0.931 . S
H1889 C1877 0.930 . S
H1890 C1878 0.956 . S
H1891 C1878 0.961 . S
H1892 C1878 0.961 . S
H1893 C1879 0.958 . S
H1894 C1879 0.961 . S
H1895 C1879 0.960 . S
C1896 C1897 1.391 . S
C1896 C1898 1.394 . S
C1896 H1912 0.931 . S
C1897 C1896 1.391 . S
C1897 C1901 1.376 . S
C1898 C1896 1.394 . S
C1898 C1899 1.369 . S
C1898 C1902 1.531 . S
C1899 C1898 1.369 . S
C1899 C1900 1.410 . S
C1899 C1907 1.503 . S
C1900 C1899 1.410 . S
C1900 C1901 1.392 . S
C1900 C1903 1.511 . S
C1901 C1897 1.376 . S
C1901 C1900 1.392 . S
C1901 H1913 0.929 . S
C1902 C1898 1.531 . S
C1902 H1914 0.960 . S
C1902 H1915 0.962 . S
C1902 H1916 0.960 . S
C1903 C1900 1.511 . S
C1903 H1917 0.961 . S
C1903 H1918 0.961 . S
C1903 H1919 0.961 . S
C1904 C1905 1.370 . S
C1904 C1906 1.363 . S
C1904 H1920 0.931 . S
C1905 C1904 1.370 . S
C1905 C1909 1.408 . S
C1906 C1904 1.363 . S
C1906 C1907 1.370 . S
C1906 C1910 1.524 . S
C1907 C1899 1.503 . S
C1907 C1906 1.370 . S
C1907 C1908 1.403 . S
C1908 C1907 1.403 . S
C1908 C1909 1.404 . S
C1908 C1911 1.539 . S
C1909 C1905 1.408 . S
C1909 C1908 1.404 . S
C1909 H1921 0.930 . S
C1910 C1906 1.524 . S
C1910 H1922 0.956 . S
C1910 H1923 0.961 . S
C1910 H1924 0.961 . S
C1911 C1908 1.539 . S
C1911 H1925 0.958 . S
C1911 H1926 0.961 . S
C1911 H1927 0.960 . S
H1912 C1896 0.931 . S
H1913 C1901 0.929 . S
H1914 C1902 0.960 . S
H1915 C1902 0.962 . S
H1916 C1902 0.960 . S
H1917 C1903 0.961 . S
H1918 C1903 0.961 . S
H1919 C1903 0.961 . S
H1920 C1904 0.931 . S
H1921 C1909 0.930 . S
H1922 C1910 0.956 . S
H1923 C1910 0.961 . S
H1924 C1910 0.961 . S
H1925 C1911 0.958 . S
H1926 C1911 0.961 . S
H1927 C1911 0.960 . S
C1928 C1929 1.391 . S
C1928 C1930 1.394 . S
C1928 H1944 0.931 . S
C1929 C1928 1.391 . S
C1929 C1933 1.376 1_556 S
C1930 C1928 1.394 . S
C1930 C1931 1.369 1_556 S
C1930 C1934 1.531 . S
C1931 C1930 1.369 1_554 S
C1931 C1932 1.410 . S
C1931 C1939 1.503 . S
C1932 C1931 1.410 . S
C1932 C1933 1.392 . S
C1932 C1935 1.511 . S
C1933 C1929 1.376 1_554 S
C1933 C1932 1.392 . S
C1933 H1945 0.929 . S
C1934 C1930 1.531 . S
C1934 H1946 0.960 1_556 S
C1934 H1947 0.962 . S
C1934 H1948 0.960 . S
C1935 C1932 1.511 . S
C1935 H1949 0.961 . S
C1935 H1950 0.961 . S
C1935 H1951 0.961 . S
C1936 C1937 1.370 . S
C1936 C1938 1.363 1_455 S
C1936 H1952 0.931 . S
C1937 C1936 1.370 . S
C1937 C1941 1.408 1_455 S
C1938 C1936 1.363 1_655 S
C1938 C1939 1.370 . S
C1938 C1942 1.524 1_655 S
C1939 C1931 1.503 . S
C1939 C1938 1.370 . S
C1939 C1940 1.403 . S
C1940 C1939 1.403 . S
C1940 C1941 1.404 . S
C1940 C1943 1.539 . S
C1941 C1937 1.408 1_655 S
C1941 C1940 1.404 . S
C1941 H1953 0.930 . S
C1942 C1938 1.524 1_455 S
C1942 H1954 0.953 1_454 S
C1942 H1955 0.961 1_455 S
C1942 H1956 0.961 . S
C1943 C1940 1.539 . S
C1943 H1957 0.958 . S
C1943 H1958 0.961 . S
C1943 H1959 0.960 . S
H1944 C1928 0.931 . S
H1945 C1933 0.929 . S
H1946 C1934 0.960 1_554 S
H1947 C1934 0.962 . S
H1948 C1934 0.960 . S
H1949 C1935 0.961 . S
H1950 C1935 0.961 . S
H1951 C1935 0.961 . S
H1952 C1936 0.931 . S
H1953 C1941 0.930 . S
H1954 C1942 0.953 1_656 S
H1955 C1942 0.961 1_655 S
H1956 C1942 0.961 . S
H1957 C1943 0.958 . S
H1958 C1943 0.961 . S
H1959 C1943 0.960 . S
C1960 C1961 1.391 . S
C1960 C1962 1.394 . S
C1960 H1976 0.931 . S
C1961 C1960 1.391 . S
C1961 C1965 1.376 . S
C1962 C1960 1.394 . S
C1962 C1963 1.369 . S
C1962 C1966 1.531 . S
C1963 C1962 1.369 . S
C1963 C1964 1.410 . S
C1963 C1971 1.503 . S
C1964 C1963 1.410 . S
C1964 C1965 1.392 . S
C1964 C1967 1.511 . S
C1965 C1961 1.376 . S
C1965 C1964 1.392 . S
C1965 H1977 0.929 . S
C1966 C1962 1.531 . S
C1966 H1978 0.960 . S
C1966 H1979 0.962 . S
C1966 H1980 0.960 . S
C1967 C1964 1.511 . S
C1967 H1981 0.961 . S
C1967 H1982 0.961 . S
C1967 H1983 0.961 . S
C1968 C1969 1.370 . S
C1968 C1970 1.363 . S
C1968 H1984 0.931 . S
C1969 C1968 1.370 . S
C1969 C1973 1.408 . S
C1970 C1968 1.363 . S
C1970 C1971 1.370 . S
C1970 C1974 1.524 . S
C1971 C1963 1.503 . S
C1971 C1970 1.370 . S
C1971 C1972 1.403 . S
C1972 C1971 1.403 . S
C1972 C1973 1.404 . S
C1972 C1975 1.539 . S
C1973 C1969 1.408 . S
C1973 C1972 1.404 . S
C1973 H1985 0.930 . S
C1974 C1970 1.524 . S
C1974 H1986 0.956 . S
C1974 H1987 0.961 . S
C1974 H1988 0.961 . S
C1975 C1972 1.539 . S
C1975 H1989 0.958 . S
C1975 H1990 0.961 . S
C1975 H1991 0.960 . S
H1976 C1960 0.931 . S
H1977 C1965 0.929 . S
H1978 C1966 0.960 . S
H1979 C1966 0.962 . S
H1980 C1966 0.960 . S
H1981 C1967 0.961 . S
H1982 C1967 0.961 . S
H1983 C1967 0.961 . S
H1984 C1968 0.931 . S
H1985 C1973 0.930 . S
H1986 C1974 0.956 . S
H1987 C1974 0.961 . S
H1988 C1974 0.961 . S
H1989 C1975 0.958 . S
H1990 C1975 0.961 . S
H1991 C1975 0.960 . S
C1992 C1993 1.391 . S
C1992 C1994 1.394 . S
C1992 H2008 0.931 . S
C1993 C1992 1.391 . S
C1993 C1997 1.376 . S
C1994 C1992 1.394 . S
C1994 C1995 1.369 . S
C1994 C1998 1.531 . S
C1995 C1994 1.369 . S
C1995 C1996 1.410 . S
C1995 C2003 1.503 . S
C1996 C1995 1.410 . S
C1996 C1997 1.392 . S
C1996 C1999 1.511 . S
C1997 C1993 1.376 . S
C1997 C1996 1.392 . S
C1997 H2009 0.929 . S
C1998 C1994 1.531 . S
C1998 H2010 0.960 . S
C1998 H2011 0.962 . S
C1998 H2012 0.960 . S
C1999 C1996 1.511 . S
C1999 H2013 0.961 . S
C1999 H2014 0.961 . S
C1999 H2015 0.961 . S
C2000 C2001 1.370 . S
C2000 C2002 1.363 . S
C2000 H2016 0.931 . S
C2001 C2000 1.370 . S
C2001 C2005 1.408 . S
C2002 C2000 1.363 . S
C2002 C2003 1.370 . S
C2002 C2006 1.524 . S
C2003 C1995 1.503 . S
C2003 C2002 1.370 . S
C2003 C2004 1.403 . S
C2004 C2003 1.403 . S
C2004 C2005 1.404 . S
C2004 C2007 1.539 . S
C2005 C2001 1.408 . S
C2005 C2004 1.404 . S
C2005 H2017 0.930 . S
C2006 C2002 1.524 . S
C2006 H2018 0.956 . S
C2006 H2019 0.961 . S
C2006 H2020 0.961 . S
C2007 C2004 1.539 . S
C2007 H2021 0.958 . S
C2007 H2022 0.961 . S
C2007 H2023 0.960 . S
H2008 C1992 0.931 . S
H2009 C1997 0.929 . S
H2010 C1998 0.960 . S
H2011 C1998 0.962 . S
H2012 C1998 0.960 . S
H2013 C1999 0.961 . S
H2014 C1999 0.961 . S
H2015 C1999 0.961 . S
H2016 C2000 0.931 . S
H2017 C2005 0.930 . S
H2018 C2006 0.956 . S
H2019 C2006 0.961 . S
H2020 C2006 0.961 . S
H2021 C2007 0.958 . S
H2022 C2007 0.961 . S
H2023 C2007 0.960 . S
C2024 C2025 1.391 . S
C2024 C2026 1.394 . S
C2024 H2040 0.931 . S
C2025 C2024 1.391 . S
C2025 C2029 1.376 . S
C2026 C2024 1.394 . S
C2026 C2027 1.369 . S
C2026 C2030 1.531 . S
C2027 C2026 1.369 . S
C2027 C2028 1.410 . S
C2027 C2035 1.503 . S
C2028 C2027 1.410 . S
C2028 C2029 1.392 . S
C2028 C2031 1.511 . S
C2029 C2025 1.376 . S
C2029 C2028 1.392 . S
C2029 H2041 0.929 . S
C2030 C2026 1.531 . S
C2030 H2042 0.960 . S
C2030 H2043 0.962 . S
C2030 H2044 0.960 . S
C2031 C2028 1.511 . S
C2031 H2045 0.961 . S
C2031 H2046 0.961 . S
C2031 H2047 0.961 . S
C2032 C2033 1.370 . S
C2032 C2034 1.363 . S
C2032 H2048 0.931 . S
C2033 C2032 1.370 . S
C2033 C2037 1.408 . S
C2034 C2032 1.363 . S
C2034 C2035 1.370 . S
C2034 C2038 1.524 . S
C2035 C2027 1.503 . S
C2035 C2034 1.370 . S
C2035 C2036 1.403 . S
C2036 C2035 1.403 . S
C2036 C2037 1.404 . S
C2036 C2039 1.539 . S
C2037 C2033 1.408 . S
C2037 C2036 1.404 . S
C2037 H2049 0.930 . S
C2038 C2034 1.524 . S
C2038 H2050 0.956 . S
C2038 H2051 0.961 . S
C2038 H2052 0.961 . S
C2039 C2036 1.539 . S
C2039 H2053 0.958 . S
C2039 H2054 0.961 . S
C2039 H2055 0.960 . S
H2040 C2024 0.931 . S
H2041 C2029 0.929 . S
H2042 C2030 0.960 . S
H2043 C2030 0.962 . S
H2044 C2030 0.960 . S
H2045 C2031 0.961 . S
H2046 C2031 0.961 . S
H2047 C2031 0.961 . S
H2048 C2032 0.931 . S
H2049 C2037 0.930 . S
H2050 C2038 0.956 . S
H2051 C2038 0.961 . S
H2052 C2038 0.961 . S
H2053 C2039 0.958 . S
H2054 C2039 0.961 . S
H2055 C2039 0.960 . S
C2056 C2057 1.391 . S
C2056 C2058 1.394 . S
C2056 H2072 0.931 . S
C2057 C2056 1.391 . S
C2057 C2061 1.376 . S
C2058 C2056 1.394 . S
C2058 C2059 1.369 . S
C2058 C2062 1.531 . S
C2059 C2058 1.369 . S
C2059 C2060 1.410 . S
C2059 C2067 1.503 . S
C2060 C2059 1.410 . S
C2060 C2061 1.392 . S
C2060 C2063 1.511 . S
C2061 C2057 1.376 . S
C2061 C2060 1.392 . S
C2061 H2073 0.929 . S
C2062 C2058 1.531 . S
C2062 H2074 0.960 . S
C2062 H2075 0.962 . S
C2062 H2076 0.960 . S
C2063 C2060 1.511 . S
C2063 H2077 0.961 . S
C2063 H2078 0.961 . S
C2063 H2079 0.961 . S
C2064 C2065 1.370 . S
C2064 C2066 1.363 . S
C2064 H2080 0.931 . S
C2065 C2064 1.370 . S
C2065 C2069 1.408 . S
C2066 C2064 1.363 . S
C2066 C2067 1.370 . S
C2066 C2070 1.524 . S
C2067 C2059 1.503 . S
C2067 C2066 1.370 . S
C2067 C2068 1.403 . S
C2068 C2067 1.403 . S
C2068 C2069 1.404 . S
C2068 C2071 1.539 . S
C2069 C2065 1.408 . S
C2069 C2068 1.404 . S
C2069 H2081 0.930 . S
C2070 C2066 1.524 . S
C2070 H2082 0.956 . S
C2070 H2083 0.961 . S
C2070 H2084 0.961 . S
C2071 C2068 1.539 . S
C2071 H2085 0.958 . S
C2071 H2086 0.961 . S
C2071 H2087 0.960 . S
H2072 C2056 0.931 . S
H2073 C2061 0.929 . S
H2074 C2062 0.960 . S
H2075 C2062 0.962 . S
H2076 C2062 0.960 . S
H2077 C2063 0.961 . S
H2078 C2063 0.961 . S
H2079 C2063 0.961 . S
H2080 C2064 0.931 . S
H2081 C2069 0.930 . S
H2082 C2070 0.956 . S
H2083 C2070 0.961 . S
H2084 C2070 0.961 . S
H2085 C2071 0.958 . S
H2086 C2071 0.961 . S
H2087 C2071 0.960 . S
C2088 C2089 1.391 . S
C2088 C2090 1.394 1_545 S
C2088 H2104 0.931 . S
C2089 C2088 1.391 . S
C2089 C2093 1.376 . S
C2090 C2088 1.394 1_565 S
C2090 C2091 1.369 . S
C2090 C2094 1.531 . S
C2091 C2090 1.369 . S
C2091 C2092 1.410 1_565 S
C2091 C2099 1.503 . S
C2092 C2091 1.410 1_545 S
C2092 C2093 1.392 . S
C2092 C2095 1.511 . S
C2093 C2089 1.376 . S
C2093 C2092 1.392 . S
C2093 H2105 0.929 . S
C2094 C2090 1.531 . S
C2094 H2106 0.960 . S
C2094 H2107 0.962 . S
C2094 H2108 0.960 . S
C2095 C2092 1.511 . S
C2095 H2109 0.961 . S
C2095 H2110 0.961 1_545 S
C2095 H2111 0.961 . S
C2096 C2097 1.370 . S
C2096 C2098 1.363 . S
C2096 H2112 0.931 . S
C2097 C2096 1.370 . S
C2097 C2101 1.408 . S
C2098 C2096 1.363 . S
C2098 C2099 1.370 . S
C2098 C2102 1.524 . S
C2099 C2091 1.503 . S
C2099 C2098 1.370 . S
C2099 C2100 1.403 . S
C2100 C2099 1.403 . S
C2100 C2101 1.404 . S
C2100 C2103 1.539 1_565 S
C2101 C2097 1.408 . S
C2101 C2100 1.404 . S
C2101 H2113 0.930 . S
C2102 C2098 1.524 . S
C2102 H2114 0.956 . S
C2102 H2115 0.961 . S
C2102 H2116 0.961 . S
C2103 C2100 1.539 1_545 S
C2103 H2117 0.958 . S
C2103 H2118 0.961 . S
C2103 H2119 0.960 . S
H2104 C2088 0.931 . S
H2105 C2093 0.929 . S
H2106 C2094 0.960 . S
H2107 C2094 0.962 . S
H2108 C2094 0.960 . S
H2109 C2095 0.961 . S
H2110 C2095 0.961 1_565 S
H2111 C2095 0.961 . S
H2112 C2096 0.931 . S
H2113 C2101 0.930 . S
H2114 C2102 0.956 . S
H2115 C2102 0.961 . S
H2116 C2102 0.961 . S
H2117 C2103 0.958 . S
H2118 C2103 0.961 . S
H2119 C2103 0.960 . S
C2120 C2121 1.391 . S
C2120 C2122 1.394 . S
C2120 H2136 0.931 . S
C2121 C2120 1.391 . S
C2121 C2125 1.376 . S
C2122 C2120 1.394 . S
C2122 C2123 1.369 . S
C2122 C2126 1.531 . S
C2123 C2122 1.369 . S
C2123 C2124 1.410 . S
C2123 C2131 1.503 . S
C2124 C2123 1.410 . S
C2124 C2125 1.392 . S
C2124 C2127 1.511 . S
C2125 C2121 1.376 . S
C2125 C2124 1.392 . S
C2125 H2137 0.929 . S
C2126 C2122 1.531 . S
C2126 H2138 0.960 . S
C2126 H2139 0.962 . S
C2126 H2140 0.960 . S
C2127 C2124 1.511 . S
C2127 H2141 0.961 . S
C2127 H2142 0.961 . S
C2127 H2143 0.961 . S
C2128 C2129 1.370 . S
C2128 C2130 1.363 . S
C2128 H2144 0.931 . S
C2129 C2128 1.370 . S
C2129 C2133 1.408 . S
C2130 C2128 1.363 . S
C2130 C2131 1.370 . S
C2130 C2134 1.524 . S
C2131 C2123 1.503 . S
C2131 C2130 1.370 . S
C2131 C2132 1.403 . S
C2132 C2131 1.403 . S
C2132 C2133 1.404 . S
C2132 C2135 1.539 . S
C2133 C2129 1.408 . S
C2133 C2132 1.404 . S
C2133 H2145 0.930 . S
C2134 C2130 1.524 . S
C2134 H2146 0.956 . S
C2134 H2147 0.961 . S
C2134 H2148 0.961 . S
C2135 C2132 1.539 . S
C2135 H2149 0.958 . S
C2135 H2150 0.961 . S
C2135 H2151 0.960 . S
H2136 C2120 0.931 . S
H2137 C2125 0.929 . S
H2138 C2126 0.960 . S
H2139 C2126 0.962 . S
H2140 C2126 0.960 . S
H2141 C2127 0.961 . S
H2142 C2127 0.961 . S
H2143 C2127 0.961 . S
H2144 C2128 0.931 . S
H2145 C2133 0.930 . S
H2146 C2134 0.956 . S
H2147 C2134 0.961 . S
H2148 C2134 0.961 . S
H2149 C2135 0.958 . S
H2150 C2135 0.961 . S
H2151 C2135 0.960 . S
C2152 C2153 1.391 . S
C2152 C2154 1.394 . S
C2152 H2168 0.931 . S
C2153 C2152 1.391 . S
C2153 C2157 1.376 . S
C2154 C2152 1.394 . S
C2154 C2155 1.369 . S
C2154 C2158 1.531 . S
C2155 C2154 1.369 . S
C2155 C2156 1.410 . S
C2155 C2163 1.503 . S
C2156 C2155 1.410 . S
C2156 C2157 1.392 . S
C2156 C2159 1.511 . S
C2157 C2153 1.376 . S
C2157 C2156 1.392 . S
C2157 H2169 0.929 . S
C2158 C2154 1.531 . S
C2158 H2170 0.960 . S
C2158 H2171 0.962 . S
C2158 H2172 0.960 . S
C2159 C2156 1.511 . S
C2159 H2173 0.961 . S
C2159 H2174 0.961 . S
C2159 H2175 0.961 . S
C2160 C2161 1.370 . S
C2160 C2162 1.363 . S
C2160 H2176 0.931 . S
C2161 C2160 1.370 . S
C2161 C2165 1.408 . S
C2162 C2160 1.363 . S
C2162 C2163 1.370 . S
C2162 C2166 1.524 . S
C2163 C2155 1.503 . S
C2163 C2162 1.370 . S
C2163 C2164 1.403 . S
C2164 C2163 1.403 . S
C2164 C2165 1.404 . S
C2164 C2167 1.539 . S
C2165 C2161 1.408 . S
C2165 C2164 1.404 . S
C2165 H2177 0.930 . S
C2166 C2162 1.524 . S
C2166 H2178 0.956 . S
C2166 H2179 0.961 . S
C2166 H2180 0.961 . S
C2167 C2164 1.539 . S
C2167 H2181 0.958 . S
C2167 H2182 0.961 . S
C2167 H2183 0.960 . S
H2168 C2152 0.931 . S
H2169 C2157 0.929 . S
H2170 C2158 0.960 . S
H2171 C2158 0.962 . S
H2172 C2158 0.960 . S
H2173 C2159 0.961 . S
H2174 C2159 0.961 . S
H2175 C2159 0.961 . S
H2176 C2160 0.931 . S
H2177 C2165 0.930 . S
H2178 C2166 0.956 . S
H2179 C2166 0.961 . S
H2180 C2166 0.961 . S
H2181 C2167 0.958 . S
H2182 C2167 0.961 . S
H2183 C2167 0.960 . S
C2184 C2185 1.391 . S
C2184 C2186 1.394 . S
C2184 H2200 0.931 . S
C2185 C2184 1.391 . S
C2185 C2189 1.376 . S
C2186 C2184 1.394 . S
C2186 C2187 1.369 . S
C2186 C2190 1.531 . S
C2187 C2186 1.369 . S
C2187 C2188 1.410 . S
C2187 C2195 1.503 . S
C2188 C2187 1.410 . S
C2188 C2189 1.392 . S
C2188 C2191 1.511 . S
C2189 C2185 1.376 . S
C2189 C2188 1.392 . S
C2189 H2201 0.929 . S
C2190 C2186 1.531 . S
C2190 H2202 0.960 . S
C2190 H2203 0.962 . S
C2190 H2204 0.960 . S
C2191 C2188 1.511 . S
C2191 H2205 0.961 . S
C2191 H2206 0.961 . S
C2191 H2207 0.961 . S
C2192 C2193 1.370 . S
C2192 C2194 1.363 . S
C2192 H2208 0.931 . S
C2193 C2192 1.370 . S
C2193 C2197 1.408 . S
C2194 C2192 1.363 . S
C2194 C2195 1.370 . S
C2194 C2198 1.524 . S
C2195 C2187 1.503 . S
C2195 C2194 1.370 . S
C2195 C2196 1.403 . S
C2196 C2195 1.403 . S
C2196 C2197 1.404 . S
C2196 C2199 1.539 . S
C2197 C2193 1.408 . S
C2197 C2196 1.404 . S
C2197 H2209 0.930 . S
C2198 C2194 1.524 . S
C2198 H2210 0.956 . S
C2198 H2211 0.961 . S
C2198 H2212 0.961 . S
C2199 C2196 1.539 . S
C2199 H2213 0.958 . S
C2199 H2214 0.961 . S
C2199 H2215 0.960 . S
H2200 C2184 0.931 . S
H2201 C2189 0.929 . S
H2202 C2190 0.960 . S
H2203 C2190 0.962 . S
H2204 C2190 0.960 . S
H2205 C2191 0.961 . S
H2206 C2191 0.961 . S
H2207 C2191 0.961 . S
H2208 C2192 0.931 . S
H2209 C2197 0.930 . S
H2210 C2198 0.956 . S
H2211 C2198 0.961 . S
H2212 C2198 0.961 . S
H2213 C2199 0.958 . S
H2214 C2199 0.961 . S
H2215 C2199 0.960 . S
C2216 C2217 1.391 1_545 S
C2216 C2218 1.394 . S
C2216 H2232 0.931 . S
C2217 C2216 1.391 1_565 S
C2217 C2221 1.376 . S
C2218 C2216 1.394 . S
C2218 C2219 1.369 . S
C2218 C2222 1.531 . S
C2219 C2218 1.369 . S
C2219 C2220 1.410 1_545 S
C2219 C2227 1.503 . S
C2220 C2219 1.410 1_565 S
C2220 C2221 1.392 . S
C2220 C2223 1.511 . S
C2221 C2217 1.376 . S
C2221 C2220 1.392 . S
C2221 H2233 0.929 . S
C2222 C2218 1.531 . S
C2222 H2234 0.960 . S
C2222 H2235 0.962 . S
C2222 H2236 0.960 . S
C2223 C2220 1.511 . S
C2223 H2237 0.961 . S
C2223 H2238 0.961 . S
C2223 H2239 0.961 . S
C2224 C2225 1.370 . S
C2224 C2226 1.363 1_554 S
C2224 H2240 0.931 . S
C2225 C2224 1.370 . S
C2225 C2229 1.408 . S
C2226 C2224 1.363 1_556 S
C2226 C2227 1.370 . S
C2226 C2230 1.524 . S
C2227 C2219 1.503 . S
C2227 C2226 1.370 . S
C2227 C2228 1.403 . S
C2228 C2227 1.403 . S
C2228 C2229 1.404 1_556 S
C2228 C2231 1.539 . S
C2229 C2225 1.408 . S
C2229 C2228 1.404 1_554 S
C2229 H2241 0.930 . S
C2230 C2226 1.524 . S
C2230 H2242 0.956 . S
C2230 H2243 0.961 1_545 S
C2230 H2244 0.961 . S
C2231 C2228 1.539 . S
C2231 H2245 0.958 . S
C2231 H2246 0.961 1_556 S
C2231 H2247 0.960 . S
H2232 C2216 0.931 . S
H2233 C2221 0.929 . S
H2234 C2222 0.960 . S
H2235 C2222 0.962 . S
H2236 C2222 0.960 . S
H2237 C2223 0.961 . S
H2238 C2223 0.961 . S
H2239 C2223 0.961 . S
H2240 C2224 0.931 . S
H2241 C2229 0.930 . S
H2242 C2230 0.956 . S
H2243 C2230 0.961 1_565 S
H2244 C2230 0.961 . S
H2245 C2231 0.958 . S
H2246 C2231 0.961 1_554 S
H2247 C2231 0.960 . S
C2248 C2249 1.391 1_565 S
C2248 C2250 1.394 . S
C2248 H2264 0.931 . S
C2249 C2248 1.391 1_545 S
C2249 C2253 1.376 . S
C2250 C2248 1.394 . S
C2250 C2251 1.369 . S
C2250 C2254 1.531 . S
C2251 C2250 1.369 . S
C2251 C2252 1.410 . S
C2251 C2259 1.503 . S
C2252 C2251 1.410 . S
C2252 C2253 1.392 1_565 S
C2252 C2255 1.511 . S
C2253 C2249 1.376 . S
C2253 C2252 1.392 1_545 S
C2253 H2265 0.929 . S
C2254 C2250 1.531 . S
C2254 H2266 0.960 . S
C2254 H2267 0.962 . S
C2254 H2268 0.960 . S
C2255 C2252 1.511 . S
C2255 H2269 0.961 1_565 S
C2255 H2270 0.961 . S
C2255 H2271 0.961 . S
C2256 C2257 1.370 . S
C2256 C2258 1.363 . S
C2256 H2272 0.931 . S
C2257 C2256 1.370 . S
C2257 C2261 1.408 . S
C2258 C2256 1.363 . S
C2258 C2259 1.370 . S
C2258 C2262 1.524 1_565 S
C2259 C2251 1.503 . S
C2259 C2258 1.370 . S
C2259 C2260 1.403 . S
C2260 C2259 1.403 . S
C2260 C2261 1.404 . S
C2260 C2263 1.539 . S
C2261 C2257 1.408 . S
C2261 C2260 1.404 . S
C2261 H2273 0.930 . S
C2262 C2258 1.524 1_545 S
C2262 H2274 0.956 . S
C2262 H2275 0.961 . S
C2262 H2276 0.961 . S
C2263 C2260 1.539 . S
C2263 H2277 0.958 . S
C2263 H2278 0.961 . S
C2263 H2279 0.960 . S
H2264 C2248 0.931 . S
H2265 C2253 0.929 . S
H2266 C2254 0.960 . S
H2267 C2254 0.962 . S
H2268 C2254 0.960 . S
H2269 C2255 0.961 1_545 S
H2270 C2255 0.961 . S
H2271 C2255 0.961 . S
H2272 C2256 0.931 . S
H2273 C2261 0.930 . S
H2274 C2262 0.956 . S
H2275 C2262 0.961 . S
H2276 C2262 0.961 . S
H2277 C2263 0.958 . S
H2278 C2263 0.961 . S
H2279 C2263 0.960 . S
C2280 C2281 1.391 . S
C2280 C2282 1.394 . S
C2280 H2296 0.931 . S
C2281 C2280 1.391 . S
C2281 C2285 1.376 . S
C2282 C2280 1.394 . S
C2282 C2283 1.369 . S
C2282 C2286 1.531 . S
C2283 C2282 1.369 . S
C2283 C2284 1.410 . S
C2283 C2291 1.503 . S
C2284 C2283 1.410 . S
C2284 C2285 1.392 . S
C2284 C2287 1.511 . S
C2285 C2281 1.376 . S
C2285 C2284 1.392 . S
C2285 H2297 0.929 . S
C2286 C2282 1.531 . S
C2286 H2298 0.960 . S
C2286 H2299 0.962 . S
C2286 H2300 0.960 . S
C2287 C2284 1.511 . S
C2287 H2301 0.961 . S
C2287 H2302 0.961 . S
C2287 H2303 0.961 . S
C2288 C2289 1.370 . S
C2288 C2290 1.363 . S
C2288 H2304 0.931 . S
C2289 C2288 1.370 . S
C2289 C2293 1.408 . S
C2290 C2288 1.363 . S
C2290 C2291 1.370 . S
C2290 C2294 1.524 . S
C2291 C2283 1.503 . S
C2291 C2290 1.370 . S
C2291 C2292 1.403 . S
C2292 C2291 1.403 . S
C2292 C2293 1.404 . S
C2292 C2295 1.539 . S
C2293 C2289 1.408 . S
C2293 C2292 1.404 . S
C2293 H2305 0.930 . S
C2294 C2290 1.524 . S
C2294 H2306 0.956 . S
C2294 H2307 0.961 . S
C2294 H2308 0.961 . S
C2295 C2292 1.539 . S
C2295 H2309 0.958 . S
C2295 H2310 0.961 . S
C2295 H2311 0.960 . S
H2296 C2280 0.931 . S
H2297 C2285 0.929 . S
H2298 C2286 0.960 . S
H2299 C2286 0.962 . S
H2300 C2286 0.960 . S
H2301 C2287 0.961 . S
H2302 C2287 0.961 . S
H2303 C2287 0.961 . S
H2304 C2288 0.931 . S
H2305 C2293 0.930 . S
H2306 C2294 0.956 . S
H2307 C2294 0.961 . S
H2308 C2294 0.961 . S
H2309 C2295 0.958 . S
H2310 C2295 0.961 . S
H2311 C2295 0.960 . S
C2312 C2313 1.391 . S
C2312 C2314 1.394 . S
C2312 H2328 0.931 . S
C2313 C2312 1.391 . S
C2313 C2317 1.376 . S
C2314 C2312 1.394 . S
C2314 C2315 1.369 . S
C2314 C2318 1.531 . S
C2315 C2314 1.369 . S
C2315 C2316 1.410 . S
C2315 C2323 1.503 1_455 S
C2316 C2315 1.410 . S
C2316 C2317 1.392 . S
C2316 C2319 1.511 1_455 S
C2317 C2313 1.376 . S
C2317 C2316 1.392 . S
C2317 H2329 0.929 . S
C2318 C2314 1.531 . S
C2318 H2330 0.960 . S
C2318 H2331 0.962 . S
C2318 H2332 0.960 . S
C2319 C2316 1.511 1_655 S
C2319 H2333 0.961 . S
C2319 H2334 0.961 . S
C2319 H2335 0.961 . S
C2320 C2321 1.370 . S
C2320 C2322 1.363 . S
C2320 H2336 0.931 . S
C2321 C2320 1.370 . S
C2321 C2325 1.408 . S
C2322 C2320 1.363 . S
C2322 C2323 1.370 . S
C2322 C2326 1.524 1_655 S
C2323 C2315 1.503 1_655 S
C2323 C2322 1.370 . S
C2323 C2324 1.403 . S
C2324 C2323 1.403 . S
C2324 C2325 1.404 . S
C2324 C2327 1.539 . S
C2325 C2321 1.408 . S
C2325 C2324 1.404 . S
C2325 H2337 0.930 . S
C2326 C2322 1.524 1_455 S
C2326 H2338 0.956 . S
C2326 H2339 0.961 1_455 S
C2326 H2340 0.961 1_455 S
C2327 C2324 1.539 . S
C2327 H2341 0.958 . S
C2327 H2342 0.961 . S
C2327 H2343 0.960 . S
H2328 C2312 0.931 . S
H2329 C2317 0.929 . S
H2330 C2318 0.960 . S
H2331 C2318 0.962 . S
H2332 C2318 0.960 . S
H2333 C2319 0.961 . S
H2334 C2319 0.961 . S
H2335 C2319 0.961 . S
H2336 C2320 0.931 . S
H2337 C2325 0.930 . S
H2338 C2326 0.956 . S
H2339 C2326 0.961 1_655 S
H2340 C2326 0.961 1_655 S
H2341 C2327 0.958 . S
H2342 C2327 0.961 . S
H2343 C2327 0.960 . S
C2344 C2345 1.391 . S
C2344 C2346 1.394 . S
C2344 H2360 0.931 . S
C2345 C2344 1.391 . S
C2345 C2349 1.376 . S
C2346 C2344 1.394 . S
C2346 C2347 1.369 . S
C2346 C2350 1.531 . S
C2347 C2346 1.369 . S
C2347 C2348 1.410 . S
C2347 C2355 1.503 1_554 S
C2348 C2347 1.410 . S
C2348 C2349 1.392 . S
C2348 C2351 1.511 1_554 S
C2349 C2345 1.376 . S
C2349 C2348 1.392 . S
C2349 H2361 0.929 . S
C2350 C2346 1.531 . S
C2350 H2362 0.960 . S
C2350 H2363 0.962 . S
C2350 H2364 0.960 . S
C2351 C2348 1.511 1_556 S
C2351 H2365 0.961 . S
C2351 H2366 0.961 . S
C2351 H2367 0.961 1_556 S
C2352 C2353 1.370 . S
C2352 C2354 1.363 . S
C2352 H2368 0.931 . S
C2353 C2352 1.370 . S
C2353 C2357 1.408 . S
C2354 C2352 1.363 . S
C2354 C2355 1.370 . S
C2354 C2358 1.524 . S
C2355 C2347 1.503 1_556 S
C2355 C2354 1.370 . S
C2355 C2356 1.403 . S
C2356 C2355 1.403 . S
C2356 C2357 1.404 . S
C2356 C2359 1.539 1_556 S
C2357 C2353 1.408 . S
C2357 C2356 1.404 . S
C2357 H2369 0.930 . S
C2358 C2354 1.524 . S
C2358 H2370 0.956 . S
C2358 H2371 0.961 . S
C2358 H2372 0.961 . S
C2359 C2356 1.539 1_554 S
C2359 H2373 0.958 . S
C2359 H2374 0.961 . S
C2359 H2375 0.960 . S
H2360 C2344 0.931 . S
H2361 C2349 0.929 . S
H2362 C2350 0.960 . S
H2363 C2350 0.962 . S
H2364 C2350 0.960 . S
H2365 C2351 0.961 . S
H2366 C2351 0.961 . S
H2367 C2351 0.961 1_554 S
H2368 C2352 0.931 . S
H2369 C2357 0.930 . S
H2370 C2358 0.956 . S
H2371 C2358 0.961 . S
H2372 C2358 0.961 . S
H2373 C2359 0.958 . S
H2374 C2359 0.961 . S
H2375 C2359 0.960 . S
C2376 C2377 1.391 . S
C2376 C2378 1.394 . S
C2376 H2392 0.931 . S
C2377 C2376 1.391 . S
C2377 C2381 1.376 . S
C2378 C2376 1.394 . S
C2378 C2379 1.369 . S
C2378 C2382 1.531 . S
C2379 C2378 1.369 . S
C2379 C2380 1.410 . S
C2379 C2387 1.503 . S
C2380 C2379 1.410 . S
C2380 C2381 1.392 . S
C2380 C2383 1.511 . S
C2381 C2377 1.376 . S
C2381 C2380 1.392 . S
C2381 H2393 0.929 . S
C2382 C2378 1.531 . S
C2382 H2394 0.960 . S
C2382 H2395 0.962 . S
C2382 H2396 0.960 . S
C2383 C2380 1.511 . S
C2383 H2397 0.961 . S
C2383 H2398 0.961 . S
C2383 H2399 0.961 . S
C2384 C2385 1.370 . S
C2384 C2386 1.363 . S
C2384 H2400 0.931 . S
C2385 C2384 1.370 . S
C2385 C2389 1.408 . S
C2386 C2384 1.363 . S
C2386 C2387 1.370 . S
C2386 C2390 1.524 . S
C2387 C2379 1.503 . S
C2387 C2386 1.370 . S
C2387 C2388 1.403 . S
C2388 C2387 1.403 . S
C2388 C2389 1.404 . S
C2388 C2391 1.539 . S
C2389 C2385 1.408 . S
C2389 C2388 1.404 . S
C2389 H2401 0.930 . S
C2390 C2386 1.524 . S
C2390 H2402 0.956 . S
C2390 H2403 0.961 . S
C2390 H2404 0.961 . S
C2391 C2388 1.539 . S
C2391 H2405 0.958 . S
C2391 H2406 0.961 . S
C2391 H2407 0.960 . S
H2392 C2376 0.931 . S
H2393 C2381 0.929 . S
H2394 C2382 0.960 . S
H2395 C2382 0.962 . S
H2396 C2382 0.960 . S
H2397 C2383 0.961 . S
H2398 C2383 0.961 . S
H2399 C2383 0.961 . S
H2400 C2384 0.931 . S
H2401 C2389 0.930 . S
H2402 C2390 0.956 . S
H2403 C2390 0.961 . S
H2404 C2390 0.961 . S
H2405 C2391 0.958 . S
H2406 C2391 0.961 . S
H2407 C2391 0.960 . S
C2408 C2409 1.391 . S
C2408 C2410 1.394 . S
C2408 H2424 0.931 . S
C2409 C2408 1.391 . S
C2409 C2413 1.376 . S
C2410 C2408 1.394 . S
C2410 C2411 1.369 . S
C2410 C2414 1.531 1_556 S
C2411 C2410 1.369 . S
C2411 C2412 1.410 . S
C2411 C2419 1.503 1_556 S
C2412 C2411 1.410 . S
C2412 C2413 1.392 . S
C2412 C2415 1.511 . S
C2413 C2409 1.376 . S
C2413 C2412 1.392 . S
C2413 H2425 0.929 . S
C2414 C2410 1.531 1_554 S
C2414 H2426 0.960 . S
C2414 H2427 0.962 . S
C2414 H2428 0.960 . S
C2415 C2412 1.511 . S
C2415 H2429 0.961 . S
C2415 H2430 0.961 . S
C2415 H2431 0.961 . S
C2416 C2417 1.370 . S
C2416 C2418 1.363 . S
C2416 H2432 0.931 . S
C2417 C2416 1.370 . S
C2417 C2421 1.408 . S
C2418 C2416 1.363 . S
C2418 C2419 1.370 . S
C2418 C2422 1.524 1_554 S
C2419 C2411 1.503 1_554 S
C2419 C2418 1.370 . S
C2419 C2420 1.403 . S
C2420 C2419 1.403 . S
C2420 C2421 1.404 . S
C2420 C2423 1.539 . S
C2421 C2417 1.408 . S
C2421 C2420 1.404 . S
C2421 H2433 0.930 . S
C2422 C2418 1.524 1_556 S
C2422 H2434 0.956 . S
C2422 H2435 0.961 . S
C2422 H2436 0.961 . S
C2423 C2420 1.539 . S
C2423 H2437 0.958 . S
C2423 H2438 0.961 . S
C2423 H2439 0.960 . S
H2424 C2408 0.931 . S
H2425 C2413 0.929 . S
H2426 C2414 0.960 . S
H2427 C2414 0.962 . S
H2428 C2414 0.960 . S
H2429 C2415 0.961 . S
H2430 C2415 0.961 . S
H2431 C2415 0.961 . S
H2432 C2416 0.931 . S
H2433 C2421 0.930 . S
H2434 C2422 0.956 . S
H2435 C2422 0.961 . S
H2436 C2422 0.961 . S
H2437 C2423 0.958 . S
H2438 C2423 0.961 . S
H2439 C2423 0.960 . S
C2440 C2441 1.391 . S
C2440 C2442 1.394 . S
C2440 H2456 0.931 . S
C2441 C2440 1.391 . S
C2441 C2445 1.376 . S
C2442 C2440 1.394 . S
C2442 C2443 1.369 . S
C2442 C2446 1.531 . S
C2443 C2442 1.369 . S
C2443 C2444 1.410 . S
C2443 C2451 1.503 . S
C2444 C2443 1.410 . S
C2444 C2445 1.392 . S
C2444 C2447 1.511 . S
C2445 C2441 1.376 . S
C2445 C2444 1.392 . S
C2445 H2457 0.929 . S
C2446 C2442 1.531 . S
C2446 H2458 0.960 . S
C2446 H2459 0.962 . S
C2446 H2460 0.960 . S
C2447 C2444 1.511 . S
C2447 H2461 0.961 . S
C2447 H2462 0.961 . S
C2447 H2463 0.961 . S
C2448 C2449 1.370 . S
C2448 C2450 1.363 . S
C2448 H2464 0.931 . S
C2449 C2448 1.370 . S
C2449 C2453 1.408 . S
C2450 C2448 1.363 . S
C2450 C2451 1.370 . S
C2450 C2454 1.524 . S
C2451 C2443 1.503 . S
C2451 C2450 1.370 . S
C2451 C2452 1.403 . S
C2452 C2451 1.403 . S
C2452 C2453 1.404 . S
C2452 C2455 1.539 . S
C2453 C2449 1.408 . S
C2453 C2452 1.404 . S
C2453 H2465 0.930 . S
C2454 C2450 1.524 . S
C2454 H2466 0.956 . S
C2454 H2467 0.961 . S
C2454 H2468 0.961 . S
C2455 C2452 1.539 . S
C2455 H2469 0.958 . S
C2455 H2470 0.961 . S
C2455 H2471 0.960 . S
H2456 C2440 0.931 . S
H2457 C2445 0.929 . S
H2458 C2446 0.960 . S
H2459 C2446 0.962 . S
H2460 C2446 0.960 . S
H2461 C2447 0.961 . S
H2462 C2447 0.961 . S
H2463 C2447 0.961 . S
H2464 C2448 0.931 . S
H2465 C2453 0.930 . S
H2466 C2454 0.956 . S
H2467 C2454 0.961 . S
H2468 C2454 0.961 . S
H2469 C2455 0.958 . S
H2470 C2455 0.961 . S
H2471 C2455 0.960 . S
C2472 C2473 1.391 . S
C2472 C2474 1.394 . S
C2472 H2488 0.931 . S
C2473 C2472 1.391 . S
C2473 C2477 1.376 . S
C2474 C2472 1.394 . S
C2474 C2475 1.369 . S
C2474 C2478 1.531 . S
C2475 C2474 1.369 . S
C2475 C2476 1.410 . S
C2475 C2483 1.503 . S
C2476 C2475 1.410 . S
C2476 C2477 1.392 . S
C2476 C2479 1.511 . S
C2477 C2473 1.376 . S
C2477 C2476 1.392 . S
C2477 H2489 0.929 . S
C2478 C2474 1.531 . S
C2478 H2490 0.960 . S
C2478 H2491 0.962 . S
C2478 H2492 0.960 . S
C2479 C2476 1.511 . S
C2479 H2493 0.961 . S
C2479 H2494 0.961 . S
C2479 H2495 0.961 . S
C2480 C2481 1.370 . S
C2480 C2482 1.363 . S
C2480 H2496 0.931 . S
C2481 C2480 1.370 . S
C2481 C2485 1.408 . S
C2482 C2480 1.363 . S
C2482 C2483 1.370 . S
C2482 C2486 1.524 . S
C2483 C2475 1.503 . S
C2483 C2482 1.370 . S
C2483 C2484 1.403 . S
C2484 C2483 1.403 . S
C2484 C2485 1.404 . S
C2484 C2487 1.539 . S
C2485 C2481 1.408 . S
C2485 C2484 1.404 . S
C2485 H2497 0.930 . S
C2486 C2482 1.524 . S
C2486 H2498 0.956 . S
C2486 H2499 0.961 . S
C2486 H2500 0.961 . S
C2487 C2484 1.539 . S
C2487 H2501 0.958 . S
C2487 H2502 0.961 . S
C2487 H2503 0.960 . S
H2488 C2472 0.931 . S
H2489 C2477 0.929 . S
H2490 C2478 0.960 . S
H2491 C2478 0.962 . S
H2492 C2478 0.960 . S
H2493 C2479 0.961 . S
H2494 C2479 0.961 . S
H2495 C2479 0.961 . S
H2496 C2480 0.931 . S
H2497 C2485 0.930 . S
H2498 C2486 0.956 . S
H2499 C2486 0.961 . S
H2500 C2486 0.961 . S
H2501 C2487 0.958 . S
H2502 C2487 0.961 . S
H2503 C2487 0.960 . S
C2504 C2505 1.391 . S
C2504 C2506 1.394 . S
C2504 H2520 0.931 . S
C2505 C2504 1.391 . S
C2505 C2509 1.376 . S
C2506 C2504 1.394 . S
C2506 C2507 1.369 . S
C2506 C2510 1.531 . S
C2507 C2506 1.369 . S
C2507 C2508 1.410 . S
C2507 C2515 1.503 1_655 S
C2508 C2507 1.410 . S
C2508 C2509 1.392 . S
C2508 C2511 1.511 1_655 S
C2509 C2505 1.376 . S
C2509 C2508 1.392 . S
C2509 H2521 0.929 . S
C2510 C2506 1.531 . S
C2510 H2522 0.960 . S
C2510 H2523 0.962 . S
C2510 H2524 0.960 . S
C2511 C2508 1.511 1_455 S
C2511 H2525 0.961 . S
C2511 H2526 0.961 . S
C2511 H2527 0.961 . S
C2512 C2513 1.370 . S
C2512 C2514 1.363 . S
C2512 H2528 0.931 . S
C2513 C2512 1.370 . S
C2513 C2517 1.408 . S
C2514 C2512 1.363 . S
C2514 C2515 1.370 . S
C2514 C2518 1.524 1_455 S
C2515 C2507 1.503 1_455 S
C2515 C2514 1.370 . S
C2515 C2516 1.403 . S
C2516 C2515 1.403 . S
C2516 C2517 1.404 . S
C2516 C2519 1.539 . S
C2517 C2513 1.408 . S
C2517 C2516 1.404 . S
C2517 H2529 0.930 . S
C2518 C2514 1.524 1_655 S
C2518 H2530 0.956 . S
C2518 H2531 0.961 . S
C2518 H2532 0.961 . S
C2519 C2516 1.539 . S
C2519 H2533 0.958 . S
C2519 H2534 0.961 . S
C2519 H2535 0.960 . S
H2520 C2504 0.931 . S
H2521 C2509 0.929 . S
H2522 C2510 0.960 . S
H2523 C2510 0.962 . S
H2524 C2510 0.960 . S
H2525 C2511 0.961 . S
H2526 C2511 0.961 . S
H2527 C2511 0.961 . S
H2528 C2512 0.931 . S
H2529 C2517 0.930 . S
H2530 C2518 0.956 . S
H2531 C2518 0.961 . S
H2532 C2518 0.961 . S
H2533 C2519 0.958 . S
H2534 C2519 0.961 . S
H2535 C2519 0.960 . S
C2536 C2537 1.391 . S
C2536 C2538 1.394 . S
C2536 H2552 0.931 . S
C2537 C2536 1.391 . S
C2537 C2541 1.376 . S
C2538 C2536 1.394 . S
C2538 C2539 1.369 . S
C2538 C2542 1.531 . S
C2539 C2538 1.369 . S
C2539 C2540 1.410 . S
C2539 C2547 1.503 . S
C2540 C2539 1.410 . S
C2540 C2541 1.392 . S
C2540 C2543 1.511 . S
C2541 C2537 1.376 . S
C2541 C2540 1.392 . S
C2541 H2553 0.929 . S
C2542 C2538 1.531 . S
C2542 H2554 0.960 . S
C2542 H2555 0.962 . S
C2542 H2556 0.960 . S
C2543 C2540 1.511 . S
C2543 H2557 0.961 . S
C2543 H2558 0.961 . S
C2543 H2559 0.961 . S
C2544 C2545 1.370 . S
C2544 C2546 1.363 . S
C2544 H2560 0.931 . S
C2545 C2544 1.370 . S
C2545 C2549 1.408 . S
C2546 C2544 1.363 . S
C2546 C2547 1.370 . S
C2546 C2550 1.524 . S
C2547 C2539 1.503 . S
C2547 C2546 1.370 . S
C2547 C2548 1.403 . S
C2548 C2547 1.403 . S
C2548 C2549 1.404 . S
C2548 C2551 1.539 . S
C2549 C2545 1.408 . S
C2549 C2548 1.404 . S
C2549 H2561 0.930 . S
C2550 C2546 1.524 . S
C2550 H2562 0.956 . S
C2550 H2563 0.961 . S
C2550 H2564 0.961 . S
C2551 C2548 1.539 . S
C2551 H2565 0.958 . S
C2551 H2566 0.961 . S
C2551 H2567 0.960 . S
H2552 C2536 0.931 . S
H2553 C2541 0.929 . S
H2554 C2542 0.960 . S
H2555 C2542 0.962 . S
H2556 C2542 0.960 . S
H2557 C2543 0.961 . S
H2558 C2543 0.961 . S
H2559 C2543 0.961 . S
H2560 C2544 0.931 . S
H2561 C2549 0.930 . S
H2562 C2550 0.956 . S
H2563 C2550 0.961 . S
H2564 C2550 0.961 . S
H2565 C2551 0.958 . S
H2566 C2551 0.961 . S
H2567 C2551 0.960 . S
C2568 C2569 1.391 . S
C2568 C2570 1.394 . S
C2568 H2584 0.931 . S
C2569 C2568 1.391 . S
C2569 C2573 1.376 . S
C2570 C2568 1.394 . S
C2570 C2571 1.369 . S
C2570 C2574 1.531 1_545 S
C2571 C2570 1.369 . S
C2571 C2572 1.410 . S
C2571 C2579 1.503 1_545 S
C2572 C2571 1.410 . S
C2572 C2573 1.392 . S
C2572 C2575 1.511 . S
C2573 C2569 1.376 . S
C2573 C2572 1.392 . S
C2573 H2585 0.929 . S
C2574 C2570 1.531 1_565 S
C2574 H2586 0.960 . S
C2574 H2587 0.962 . S
C2574 H2588 0.960 . S
C2575 C2572 1.511 . S
C2575 H2589 0.961 . S
C2575 H2590 0.961 . S
C2575 H2591 0.961 . S
C2576 C2577 1.370 . S
C2576 C2578 1.363 . S
C2576 H2592 0.931 . S
C2577 C2576 1.370 . S
C2577 C2581 1.408 . S
C2578 C2576 1.363 . S
C2578 C2579 1.370 . S
C2578 C2582 1.524 . S
C2579 C2571 1.503 1_565 S
C2579 C2578 1.370 . S
C2579 C2580 1.403 . S
C2580 C2579 1.403 . S
C2580 C2581 1.404 . S
C2580 C2583 1.539 1_565 S
C2581 C2577 1.408 . S
C2581 C2580 1.404 . S
C2581 H2593 0.930 . S
C2582 C2578 1.524 . S
C2582 H2594 0.956 . S
C2582 H2595 0.961 1_565 S
C2582 H2596 0.961 . S
C2583 C2580 1.539 1_545 S
C2583 H2597 0.958 1_545 S
C2583 H2598 0.961 . S
C2583 H2599 0.960 . S
H2584 C2568 0.931 . S
H2585 C2573 0.929 . S
H2586 C2574 0.960 . S
H2587 C2574 0.962 . S
H2588 C2574 0.960 . S
H2589 C2575 0.961 . S
H2590 C2575 0.961 . S
H2591 C2575 0.961 . S
H2592 C2576 0.931 . S
H2593 C2581 0.930 . S
H2594 C2582 0.956 . S
H2595 C2582 0.961 1_545 S
H2596 C2582 0.961 . S
H2597 C2583 0.958 1_565 S
H2598 C2583 0.961 . S
H2599 C2583 0.960 . S
C2600 C2601 1.391 . S
C2600 C2602 1.394 . S
C2600 H2616 0.931 . S
C2601 C2600 1.391 . S
C2601 C2605 1.376 . S
C2602 C2600 1.394 . S
C2602 C2603 1.369 . S
C2602 C2606 1.531 . S
C2603 C2602 1.369 . S
C2603 C2604 1.410 . S
C2603 C2611 1.503 1_545 S
C2604 C2603 1.410 . S
C2604 C2605 1.392 . S
C2604 C2607 1.511 1_545 S
C2605 C2601 1.376 . S
C2605 C2604 1.392 . S
C2605 H2617 0.929 . S
C2606 C2602 1.531 . S
C2606 H2618 0.960 . S
C2606 H2619 0.962 . S
C2606 H2620 0.960 . S
C2607 C2604 1.511 1_565 S
C2607 H2621 0.961 . S
C2607 H2622 0.961 . S
C2607 H2623 0.961 . S
C2608 C2609 1.370 . S
C2608 C2610 1.363 . S
C2608 H2624 0.931 . S
C2609 C2608 1.370 . S
C2609 C2613 1.408 . S
C2610 C2608 1.363 . S
C2610 C2611 1.370 . S
C2610 C2614 1.524 1_565 S
C2611 C2603 1.503 1_565 S
C2611 C2610 1.370 . S
C2611 C2612 1.403 . S
C2612 C2611 1.403 . S
C2612 C2613 1.404 . S
C2612 C2615 1.539 . S
C2613 C2609 1.408 . S
C2613 C2612 1.404 . S
C2613 H2625 0.930 . S
C2614 C2610 1.524 1_545 S
C2614 H2626 0.956 . S
C2614 H2627 0.961 . S
C2614 H2628 0.961 . S
C2615 C2612 1.539 . S
C2615 H2629 0.958 . S
C2615 H2630 0.961 . S
C2615 H2631 0.960 . S
H2616 C2600 0.931 . S
H2617 C2605 0.929 . S
H2618 C2606 0.960 . S
H2619 C2606 0.962 . S
H2620 C2606 0.960 . S
H2621 C2607 0.961 . S
H2622 C2607 0.961 . S
H2623 C2607 0.961 . S
H2624 C2608 0.931 . S
H2625 C2613 0.930 . S
H2626 C2614 0.956 . S
H2627 C2614 0.961 . S
H2628 C2614 0.961 . S
H2629 C2615 0.958 . S
H2630 C2615 0.961 . S
H2631 C2615 0.960 . S
C2632 C2633 1.391 . S
C2632 C2634 1.394 . S
C2632 H2648 0.931 . S
C2633 C2632 1.391 . S
C2633 C2637 1.376 . S
C2634 C2632 1.394 . S
C2634 C2635 1.369 . S
C2634 C2638 1.531 . S
C2635 C2634 1.369 . S
C2635 C2636 1.408 1_565 S
C2635 C2643 1.503 1_565 S
C2636 C2635 1.408 1_545 S
C2636 C2637 1.389 1_545 S
C2636 C2639 1.516 . S
C2637 C2633 1.376 . S
C2637 C2636 1.389 1_565 S
C2637 H2649 0.929 . S
C2638 C2634 1.531 . S
C2638 H2650 0.960 . S
C2638 H2651 0.962 . S
C2638 H2652 0.960 . S
C2639 C2636 1.516 . S
C2639 H2653 0.961 . S
C2639 H2654 0.961 . S
C2639 H2655 0.961 . S
C2640 C2641 1.370 . S
C2640 C2642 1.363 . S
C2640 H2656 0.931 . S
C2641 C2640 1.370 . S
C2641 C2645 1.408 . S
C2642 C2640 1.363 . S
C2642 C2643 1.370 . S
C2642 C2646 1.524 . S
C2643 C2635 1.503 1_545 S
C2643 C2642 1.370 . S
C2643 C2644 1.403 . S
C2644 C2643 1.403 . S
C2644 C2645 1.404 . S
C2644 C2647 1.539 . S
C2645 C2641 1.408 . S
C2645 C2644 1.404 . S
C2645 H2657 0.930 . S
C2646 C2642 1.524 . S
C2646 H2658 0.956 1_545 S
C2646 H2659 0.961 . S
C2646 H2660 0.961 . S
C2647 C2644 1.539 . S
C2647 H2661 0.958 . S
C2647 H2662 0.961 . S
C2647 H2663 0.960 . S
H2648 C2632 0.931 . S
H2649 C2637 0.929 . S
H2650 C2638 0.960 . S
H2651 C2638 0.962 . S
H2652 C2638 0.960 . S
H2653 C2639 0.961 . S
H2654 C2639 0.961 . S
H2655 C2639 0.961 . S
H2656 C2640 0.931 . S
H2657 C2645 0.930 . S
H2658 C2646 0.956 1_565 S
H2659 C2646 0.961 . S
H2660 C2646 0.961 . S
H2661 C2647 0.958 . S
H2662 C2647 0.961 . S
H2663 C2647 0.960 . S
C2664 C2665 1.391 . S
C2664 C2666 1.394 . S
C2664 H2680 0.931 . S
C2665 C2664 1.391 . S
C2665 C2669 1.376 . S
C2666 C2664 1.394 . S
C2666 C2667 1.369 . S
C2666 C2670 1.531 . S
C2667 C2666 1.369 . S
C2667 C2668 1.410 . S
C2667 C2675 1.503 . S
C2668 C2667 1.410 . S
C2668 C2669 1.392 . S
C2668 C2671 1.511 . S
C2669 C2665 1.376 . S
C2669 C2668 1.392 . S
C2669 H2681 0.929 . S
C2670 C2666 1.531 . S
C2670 H2682 0.960 . S
C2670 H2683 0.962 . S
C2670 H2684 0.960 . S
C2671 C2668 1.511 . S
C2671 H2685 0.961 . S
C2671 H2686 0.961 . S
C2671 H2687 0.961 . S
C2672 C2673 1.370 . S
C2672 C2674 1.363 . S
C2672 H2688 0.931 . S
C2673 C2672 1.370 . S
C2673 C2677 1.408 . S
C2674 C2672 1.363 . S
C2674 C2675 1.370 . S
C2674 C2678 1.524 . S
C2675 C2667 1.503 . S
C2675 C2674 1.370 . S
C2675 C2676 1.403 . S
C2676 C2675 1.403 . S
C2676 C2677 1.404 . S
C2676 C2679 1.539 . S
C2677 C2673 1.408 . S
C2677 C2676 1.404 . S
C2677 H2689 0.930 . S
C2678 C2674 1.524 . S
C2678 H2690 0.956 . S
C2678 H2691 0.961 . S
C2678 H2692 0.961 . S
C2679 C2676 1.539 . S
C2679 H2693 0.958 . S
C2679 H2694 0.961 . S
C2679 H2695 0.960 . S
H2680 C2664 0.931 . S
H2681 C2669 0.929 . S
H2682 C2670 0.960 . S
H2683 C2670 0.962 . S
H2684 C2670 0.960 . S
H2685 C2671 0.961 . S
H2686 C2671 0.961 . S
H2687 C2671 0.961 . S
H2688 C2672 0.931 . S
H2689 C2677 0.930 . S
H2690 C2678 0.956 . S
H2691 C2678 0.961 . S
H2692 C2678 0.961 . S
H2693 C2679 0.958 . S
H2694 C2679 0.961 . S
H2695 C2679 0.960 . S
C2696 C2697 1.391 . S
C2696 C2698 1.394 . S
C2696 H2712 0.931 . S
C2697 C2696 1.391 . S
C2697 C2701 1.376 . S
C2698 C2696 1.394 . S
C2698 C2699 1.369 . S
C2698 C2702 1.531 . S
C2699 C2698 1.369 . S
C2699 C2700 1.410 . S
C2699 C2707 1.503 . S
C2700 C2699 1.410 . S
C2700 C2701 1.392 . S
C2700 C2703 1.511 . S
C2701 C2697 1.376 . S
C2701 C2700 1.392 . S
C2701 H2713 0.929 . S
C2702 C2698 1.531 . S
C2702 H2714 0.960 . S
C2702 H2715 0.962 . S
C2702 H2716 0.960 . S
C2703 C2700 1.511 . S
C2703 H2717 0.961 . S
C2703 H2718 0.961 . S
C2703 H2719 0.961 . S
C2704 C2705 1.370 . S
C2704 C2706 1.363 . S
C2704 H2720 0.931 . S
C2705 C2704 1.370 . S
C2705 C2709 1.408 . S
C2706 C2704 1.363 . S
C2706 C2707 1.370 . S
C2706 C2710 1.524 . S
C2707 C2699 1.503 . S
C2707 C2706 1.370 . S
C2707 C2708 1.403 . S
C2708 C2707 1.403 . S
C2708 C2709 1.404 . S
C2708 C2711 1.539 . S
C2709 C2705 1.408 . S
C2709 C2708 1.404 . S
C2709 H2721 0.930 . S
C2710 C2706 1.524 . S
C2710 H2722 0.956 . S
C2710 H2723 0.961 . S
C2710 H2724 0.961 . S
C2711 C2708 1.539 . S
C2711 H2725 0.958 . S
C2711 H2726 0.961 . S
C2711 H2727 0.960 . S
H2712 C2696 0.931 . S
H2713 C2701 0.929 . S
H2714 C2702 0.960 . S
H2715 C2702 0.962 . S
H2716 C2702 0.960 . S
H2717 C2703 0.961 . S
H2718 C2703 0.961 . S
H2719 C2703 0.961 . S
H2720 C2704 0.931 . S
H2721 C2709 0.930 . S
H2722 C2710 0.956 . S
H2723 C2710 0.961 . S
H2724 C2710 0.961 . S
H2725 C2711 0.958 . S
H2726 C2711 0.961 . S
H2727 C2711 0.960 . S
C2728 C2729 1.391 . S
C2728 C2730 1.394 . S
C2728 H2744 0.931 . S
C2729 C2728 1.391 . S
C2729 C2733 1.376 . S
C2730 C2728 1.394 . S
C2730 C2731 1.369 . S
C2730 C2734 1.531 . S
C2731 C2730 1.369 . S
C2731 C2732 1.410 . S
C2731 C2739 1.503 . S
C2732 C2731 1.410 . S
C2732 C2733 1.392 . S
C2732 C2735 1.511 . S
C2733 C2729 1.376 . S
C2733 C2732 1.392 . S
C2733 H2745 0.929 . S
C2734 C2730 1.531 . S
C2734 H2746 0.960 . S
C2734 H2747 0.962 . S
C2734 H2748 0.960 . S
C2735 C2732 1.511 . S
C2735 H2749 0.961 . S
C2735 H2750 0.961 . S
C2735 H2751 0.961 . S
C2736 C2737 1.370 . S
C2736 C2738 1.363 . S
C2736 H2752 0.931 . S
C2737 C2736 1.370 . S
C2737 C2741 1.408 . S
C2738 C2736 1.363 . S
C2738 C2739 1.370 . S
C2738 C2742 1.524 . S
C2739 C2731 1.503 . S
C2739 C2738 1.370 . S
C2739 C2740 1.403 . S
C2740 C2739 1.403 . S
C2740 C2741 1.404 . S
C2740 C2743 1.539 . S
C2741 C2737 1.408 . S
C2741 C2740 1.404 . S
C2741 H2753 0.930 . S
C2742 C2738 1.524 . S
C2742 H2754 0.956 . S
C2742 H2755 0.961 . S
C2742 H2756 0.961 . S
C2743 C2740 1.539 . S
C2743 H2757 0.958 . S
C2743 H2758 0.961 . S
C2743 H2759 0.960 . S
H2744 C2728 0.931 . S
H2745 C2733 0.929 . S
H2746 C2734 0.960 . S
H2747 C2734 0.962 . S
H2748 C2734 0.960 . S
H2749 C2735 0.961 . S
H2750 C2735 0.961 . S
H2751 C2735 0.961 . S
H2752 C2736 0.931 . S
H2753 C2741 0.930 . S
H2754 C2742 0.956 . S
H2755 C2742 0.961 . S
H2756 C2742 0.961 . S
H2757 C2743 0.958 . S
H2758 C2743 0.961 . S
H2759 C2743 0.960 . S
C2760 C2761 1.391 . S
C2760 C2762 1.394 . S
C2760 H2776 0.931 . S
C2761 C2760 1.391 . S
C2761 C2765 1.376 . S
C2762 C2760 1.394 . S
C2762 C2763 1.369 . S
C2762 C2766 1.531 . S
C2763 C2762 1.369 . S
C2763 C2764 1.410 . S
C2763 C2771 1.503 1_554 S
C2764 C2763 1.410 . S
C2764 C2765 1.392 . S
C2764 C2767 1.511 . S
C2765 C2761 1.376 . S
C2765 C2764 1.392 . S
C2765 H2777 0.929 . S
C2766 C2762 1.531 . S
C2766 H2778 0.960 1_554 S
C2766 H2779 0.962 1_554 S
C2766 H2780 0.960 . S
C2767 C2764 1.511 . S
C2767 H2781 0.961 . S
C2767 H2782 0.961 . S
C2767 H2783 0.961 . S
C2768 C2769 1.370 . S
C2768 C2770 1.363 . S
C2768 H2784 0.931 . S
C2769 C2768 1.370 . S
C2769 C2773 1.408 . S
C2770 C2768 1.363 . S
C2770 C2771 1.370 . S
C2770 C2774 1.524 . S
C2771 C2763 1.503 1_556 S
C2771 C2770 1.370 . S
C2771 C2772 1.403 . S
C2772 C2771 1.403 . S
C2772 C2773 1.404 . S
C2772 C2775 1.539 1_556 S
C2773 C2769 1.408 . S
C2773 C2772 1.404 . S
C2773 H2785 0.930 . S
C2774 C2770 1.524 . S
C2774 H2786 0.956 . S
C2774 H2787 0.961 . S
C2774 H2788 0.961 . S
C2775 C2772 1.539 1_554 S
C2775 H2789 0.958 . S
C2775 H2790 0.961 . S
C2775 H2791 0.960 . S
H2776 C2760 0.931 . S
H2777 C2765 0.929 . S
H2778 C2766 0.960 1_556 S
H2779 C2766 0.962 1_556 S
H2780 C2766 0.960 . S
H2781 C2767 0.961 . S
H2782 C2767 0.961 . S
H2783 C2767 0.961 . S
H2784 C2768 0.931 . S
H2785 C2773 0.930 . S
H2786 C2774 0.956 . S
H2787 C2774 0.961 . S
H2788 C2774 0.961 . S
H2789 C2775 0.958 . S
H2790 C2775 0.961 . S
H2791 C2775 0.960 . S
C2792 C2793 1.391 . S
C2792 C2794 1.394 . S
C2792 H2808 0.931 . S
C2793 C2792 1.391 . S
C2793 C2797 1.376 . S
C2794 C2792 1.394 . S
C2794 C2795 1.369 . S
C2794 C2798 1.531 . S
C2795 C2794 1.369 . S
C2795 C2796 1.410 . S
C2795 C2803 1.503 . S
C2796 C2795 1.410 . S
C2796 C2797 1.392 . S
C2796 C2799 1.511 . S
C2797 C2793 1.376 . S
C2797 C2796 1.392 . S
C2797 H2809 0.929 . S
C2798 C2794 1.531 . S
C2798 H2810 0.960 . S
C2798 H2811 0.962 . S
C2798 H2812 0.960 . S
C2799 C2796 1.511 . S
C2799 H2813 0.961 . S
C2799 H2814 0.961 . S
C2799 H2815 0.961 . S
C2800 C2801 1.370 . S
C2800 C2802 1.363 . S
C2800 H2816 0.931 . S
C2801 C2800 1.370 . S
C2801 C2805 1.408 . S
C2802 C2800 1.363 . S
C2802 C2803 1.370 . S
C2802 C2806 1.524 . S
C2803 C2795 1.503 . S
C2803 C2802 1.370 . S
C2803 C2804 1.403 . S
C2804 C2803 1.403 . S
C2804 C2805 1.404 . S
C2804 C2807 1.539 . S
C2805 C2801 1.408 . S
C2805 C2804 1.404 . S
C2805 H2817 0.930 . S
C2806 C2802 1.524 . S
C2806 H2818 0.956 . S
C2806 H2819 0.961 . S
C2806 H2820 0.961 . S
C2807 C2804 1.539 . S
C2807 H2821 0.958 . S
C2807 H2822 0.961 . S
C2807 H2823 0.960 . S
H2808 C2792 0.931 . S
H2809 C2797 0.929 . S
H2810 C2798 0.960 . S
H2811 C2798 0.962 . S
H2812 C2798 0.960 . S
H2813 C2799 0.961 . S
H2814 C2799 0.961 . S
H2815 C2799 0.961 . S
H2816 C2800 0.931 . S
H2817 C2805 0.930 . S
H2818 C2806 0.956 . S
H2819 C2806 0.961 . S
H2820 C2806 0.961 . S
H2821 C2807 0.958 . S
H2822 C2807 0.961 . S
H2823 C2807 0.960 . S
C2824 C2825 1.391 . S
C2824 C2826 1.394 . S
C2824 H2840 0.931 . S
C2825 C2824 1.391 . S
C2825 C2829 1.376 . S
C2826 C2824 1.394 . S
C2826 C2827 1.369 . S
C2826 C2830 1.531 . S
C2827 C2826 1.369 . S
C2827 C2828 1.410 . S
C2827 C2835 1.503 . S
C2828 C2827 1.410 . S
C2828 C2829 1.392 . S
C2828 C2831 1.511 . S
C2829 C2825 1.376 . S
C2829 C2828 1.392 . S
C2829 H2841 0.929 . S
C2830 C2826 1.531 . S
C2830 H2842 0.960 . S
C2830 H2843 0.962 . S
C2830 H2844 0.960 . S
C2831 C2828 1.511 . S
C2831 H2845 0.961 . S
C2831 H2846 0.961 . S
C2831 H2847 0.961 . S
C2832 C2833 1.370 . S
C2832 C2834 1.363 . S
C2832 H2848 0.931 . S
C2833 C2832 1.370 . S
C2833 C2837 1.408 . S
C2834 C2832 1.363 . S
C2834 C2835 1.370 . S
C2834 C2838 1.524 . S
C2835 C2827 1.503 . S
C2835 C2834 1.370 . S
C2835 C2836 1.403 . S
C2836 C2835 1.403 . S
C2836 C2837 1.404 . S
C2836 C2839 1.539 . S
C2837 C2833 1.408 . S
C2837 C2836 1.404 . S
C2837 H2849 0.930 . S
C2838 C2834 1.524 . S
C2838 H2850 0.956 . S
C2838 H2851 0.961 . S
C2838 H2852 0.961 . S
C2839 C2836 1.539 . S
C2839 H2853 0.958 . S
C2839 H2854 0.961 . S
C2839 H2855 0.960 . S
H2840 C2824 0.931 . S
H2841 C2829 0.929 . S
H2842 C2830 0.960 . S
H2843 C2830 0.962 . S
H2844 C2830 0.960 . S
H2845 C2831 0.961 . S
H2846 C2831 0.961 . S
H2847 C2831 0.961 . S
H2848 C2832 0.931 . S
H2849 C2837 0.930 . S
H2850 C2838 0.956 . S
H2851 C2838 0.961 . S
H2852 C2838 0.961 . S
H2853 C2839 0.958 . S
H2854 C2839 0.961 . S
H2855 C2839 0.960 . S
C2856 C2857 1.391 . S
C2856 C2858 1.394 . S
C2856 H2872 0.931 . S
C2857 C2856 1.391 . S
C2857 C2861 1.376 . S
C2858 C2856 1.394 . S
C2858 C2859 1.369 . S
C2858 C2862 1.531 1_655 S
C2859 C2858 1.369 . S
C2859 C2860 1.410 . S
C2859 C2867 1.503 1_655 S
C2860 C2859 1.410 . S
C2860 C2861 1.392 . S
C2860 C2863 1.511 . S
C2861 C2857 1.376 . S
C2861 C2860 1.392 . S
C2861 H2873 0.929 . S
C2862 C2858 1.531 1_455 S
C2862 H2874 0.960 . S
C2862 H2875 0.962 . S
C2862 H2876 0.960 1_455 S
C2863 C2860 1.511 . S
C2863 H2877 0.961 . S
C2863 H2878 0.961 . S
C2863 H2879 0.961 . S
C2864 C2865 1.370 . S
C2864 C2866 1.363 . S
C2864 H2880 0.931 . S
C2865 C2864 1.370 . S
C2865 C2869 1.408 . S
C2866 C2864 1.363 . S
C2866 C2867 1.370 . S
C2866 C2870 1.524 . S
C2867 C2859 1.503 1_455 S
C2867 C2866 1.370 . S
C2867 C2868 1.403 . S
C2868 C2867 1.403 . S
C2868 C2869 1.404 . S
C2868 C2871 1.539 1_455 S
C2869 C2865 1.408 . S
C2869 C2868 1.404 . S
C2869 H2881 0.930 . S
C2870 C2866 1.524 . S
C2870 H2882 0.956 . S
C2870 H2883 0.961 . S
C2870 H2884 0.961 . S
C2871 C2868 1.539 1_655 S
C2871 H2885 0.958 . S
C2871 H2886 0.961 . S
C2871 H2887 0.960 . S
H2872 C2856 0.931 . S
H2873 C2861 0.929 . S
H2874 C2862 0.960 . S
H2875 C2862 0.962 . S
H2876 C2862 0.960 1_655 S
H2877 C2863 0.961 . S
H2878 C2863 0.961 . S
H2879 C2863 0.961 . S
H2880 C2864 0.931 . S
H2881 C2869 0.930 . S
H2882 C2870 0.956 . S
H2883 C2870 0.961 . S
H2884 C2870 0.961 . S
H2885 C2871 0.958 . S
H2886 C2871 0.961 . S
H2887 C2871 0.960 . S
C2888 C2889 1.391 . S
C2888 C2890 1.394 . S
C2888 H2904 0.931 . S
C2889 C2888 1.391 . S
C2889 C2893 1.376 . S
C2890 C2888 1.394 . S
C2890 C2891 1.369 . S
C2890 C2894 1.531 . S
C2891 C2890 1.369 . S
C2891 C2892 1.410 . S
C2891 C2899 1.503 . S
C2892 C2891 1.410 . S
C2892 C2893 1.392 . S
C2892 C2895 1.511 . S
C2893 C2889 1.376 . S
C2893 C2892 1.392 . S
C2893 H2905 0.929 . S
C2894 C2890 1.531 . S
C2894 H2906 0.960 . S
C2894 H2907 0.962 . S
C2894 H2908 0.960 . S
C2895 C2892 1.511 . S
C2895 H2909 0.961 . S
C2895 H2910 0.961 . S
C2895 H2911 0.961 . S
C2896 C2897 1.370 . S
C2896 C2898 1.363 . S
C2896 H2912 0.931 . S
C2897 C2896 1.370 . S
C2897 C2901 1.408 . S
C2898 C2896 1.363 . S
C2898 C2899 1.370 . S
C2898 C2902 1.524 . S
C2899 C2891 1.503 . S
C2899 C2898 1.370 . S
C2899 C2900 1.403 . S
C2900 C2899 1.403 . S
C2900 C2901 1.404 . S
C2900 C2903 1.539 . S
C2901 C2897 1.408 . S
C2901 C2900 1.404 . S
C2901 H2913 0.930 . S
C2902 C2898 1.524 . S
C2902 H2914 0.956 . S
C2902 H2915 0.961 . S
C2902 H2916 0.961 . S
C2903 C2900 1.539 . S
C2903 H2917 0.958 . S
C2903 H2918 0.961 . S
C2903 H2919 0.960 . S
H2904 C2888 0.931 . S
H2905 C2893 0.929 . S
H2906 C2894 0.960 . S
H2907 C2894 0.962 . S
H2908 C2894 0.960 . S
H2909 C2895 0.961 . S
H2910 C2895 0.961 . S
H2911 C2895 0.961 . S
H2912 C2896 0.931 . S
H2913 C2901 0.930 . S
H2914 C2902 0.956 . S
H2915 C2902 0.961 . S
H2916 C2902 0.961 . S
H2917 C2903 0.958 . S
H2918 C2903 0.961 . S
H2919 C2903 0.960 . S
C2920 C2921 1.391 . S
C2920 C2922 1.394 . S
C2920 H2936 0.931 . S
C2921 C2920 1.391 . S
C2921 C2925 1.376 . S
C2922 C2920 1.394 . S
C2922 C2923 1.369 . S
C2922 C2926 1.549 . S
C2923 C2922 1.369 . S
C2923 C2924 1.410 . S
C2923 C2931 1.503 1_655 S
C2924 C2923 1.410 . S
C2924 C2925 1.392 . S
C2924 C2927 1.511 . S
C2925 C2921 1.376 . S
C2925 C2924 1.392 . S
C2925 H2937 0.929 . S
C2926 C2922 1.549 . S
C2926 H2938 0.927 1_655 S
C2926 H2939 0.978 . S
C2926 H2940 0.960 . S
C2927 C2924 1.511 . S
C2927 H2941 0.961 . S
C2927 H2942 0.961 . S
C2927 H2943 0.961 . S
C2928 C2929 1.370 . S
C2928 C2930 1.363 . S
C2928 H2944 0.931 . S
C2929 C2928 1.370 . S
C2929 C2933 1.408 . S
C2930 C2928 1.363 . S
C2930 C2931 1.370 . S
C2930 C2934 1.524 1_455 S
C2931 C2923 1.503 1_455 S
C2931 C2930 1.370 . S
C2931 C2932 1.403 . S
C2932 C2931 1.403 . S
C2932 C2933 1.404 . S
C2932 C2935 1.539 . S
C2933 C2929 1.408 . S
C2933 C2932 1.404 . S
C2933 H2945 0.930 . S
C2934 C2930 1.524 1_655 S
C2934 H2946 0.956 . S
C2934 H2947 0.961 . S
C2934 H2948 0.961 . S
C2935 C2932 1.539 . S
C2935 H2949 0.958 . S
C2935 H2950 0.961 . S
C2935 H2951 0.960 . S
H2936 C2920 0.931 . S
H2937 C2925 0.929 . S
H2938 C2926 0.927 1_455 S
H2939 C2926 0.978 . S
H2940 C2926 0.960 . S
H2941 C2927 0.961 . S
H2942 C2927 0.961 . S
H2943 C2927 0.961 . S
H2944 C2928 0.931 . S
H2945 C2933 0.930 . S
H2946 C2934 0.956 . S
H2947 C2934 0.961 . S
H2948 C2934 0.961 . S
H2949 C2935 0.958 . S
H2950 C2935 0.961 . S
H2951 C2935 0.960 . S
C2952 C2953 1.391 . S
C2952 C2954 1.394 . S
C2952 H2968 0.931 . S
C2953 C2952 1.391 . S
C2953 C2957 1.376 . S
C2954 C2952 1.394 . S
C2954 C2955 1.369 . S
C2954 C2958 1.531 . S
C2955 C2954 1.369 . S
C2955 C2956 1.410 . S
C2955 C2963 1.503 1_554 S
C2956 C2955 1.410 . S
C2956 C2957 1.392 . S
C2956 C2959 1.526 . S
C2957 C2953 1.376 . S
C2957 C2956 1.392 . S
C2957 H2969 0.929 . S
C2958 C2954 1.531 . S
C2958 H2970 0.960 . S
C2958 H2971 0.962 . S
C2958 H2972 0.960 . S
C2959 C2956 1.526 . S
C2959 H2973 0.957 1_554 S
C2959 H2974 0.940 1_554 S
C2959 H2975 0.970 . S
C2960 C2961 1.370 . S
C2960 C2962 1.363 . S
C2960 H2976 0.931 . S
C2961 C2960 1.370 . S
C2961 C2965 1.408 . S
C2962 C2960 1.363 . S
C2962 C2963 1.370 . S
C2962 C2966 1.524 . S
C2963 C2955 1.503 1_556 S
C2963 C2962 1.370 . S
C2963 C2964 1.406 . S
C2964 C2963 1.406 . S
C2964 C2965 1.421 . S
C2964 C2967 1.520 1_556 S
C2965 C2961 1.408 . S
C2965 C2964 1.421 . S
C2965 H2977 0.930 . S
C2966 C2962 1.524 . S
C2966 H2978 0.956 . S
C2966 H2979 0.961 . S
C2966 H2980 0.961 . S
C2967 C2964 1.520 1_554 S
C2967 H2981 0.958 . S
C2967 H2982 0.961 . S
C2967 H2983 0.960 . S
H2968 C2952 0.931 . S
H2969 C2957 0.929 . S
H2970 C2958 0.960 . S
H2971 C2958 0.962 . S
H2972 C2958 0.960 . S
H2973 C2959 0.957 1_556 S
H2974 C2959 0.940 1_556 S
H2975 C2959 0.970 . S
H2976 C2960 0.931 . S
H2977 C2965 0.930 . S
H2978 C2966 0.956 . S
H2979 C2966 0.961 . S
H2980 C2966 0.961 . S
H2981 C2967 0.958 . S
H2982 C2967 0.961 . S
H2983 C2967 0.960 . S
C2984 C2985 1.391 . S
C2984 C2986 1.394 . S
C2984 H3000 0.931 . S
C2985 C2984 1.391 . S
C2985 C2989 1.376 . S
C2986 C2984 1.394 . S
C2986 C2987 1.369 . S
C2986 C2990 1.531 . S
C2987 C2986 1.369 . S
C2987 C2988 1.410 . S
C2987 C2995 1.503 . S
C2988 C2987 1.410 . S
C2988 C2989 1.392 . S
C2988 C2991 1.511 . S
C2989 C2985 1.376 . S
C2989 C2988 1.392 . S
C2989 H3001 0.929 . S
C2990 C2986 1.531 . S
C2990 H3002 0.960 . S
C2990 H3003 0.962 . S
C2990 H3004 0.960 . S
C2991 C2988 1.511 . S
C2991 H3005 0.961 . S
C2991 H3006 0.961 . S
C2991 H3007 0.961 . S
C2992 C2993 1.370 . S
C2992 C2994 1.363 . S
C2992 H3008 0.931 . S
C2993 C2992 1.370 . S
C2993 C2997 1.408 . S
C2994 C2992 1.363 . S
C2994 C2995 1.370 . S
C2994 C2998 1.524 . S
C2995 C2987 1.503 . S
C2995 C2994 1.370 . S
C2995 C2996 1.403 . S
C2996 C2995 1.403 . S
C2996 C2997 1.404 . S
C2996 C2999 1.539 . S
C2997 C2993 1.408 . S
C2997 C2996 1.404 . S
C2997 H3009 0.930 . S
C2998 C2994 1.524 . S
C2998 H3010 0.956 . S
C2998 H3011 0.961 . S
C2998 H3012 0.961 . S
C2999 C2996 1.539 . S
C2999 H3013 0.958 . S
C2999 H3014 0.961 . S
C2999 H3015 0.960 . S
H3000 C2984 0.931 . S
H3001 C2989 0.929 . S
H3002 C2990 0.960 . S
H3003 C2990 0.962 . S
H3004 C2990 0.960 . S
H3005 C2991 0.961 . S
H3006 C2991 0.961 . S
H3007 C2991 0.961 . S
H3008 C2992 0.931 . S
H3009 C2997 0.930 . S
H3010 C2998 0.956 . S
H3011 C2998 0.961 . S
H3012 C2998 0.961 . S
H3013 C2999 0.958 . S
H3014 C2999 0.961 . S
H3015 C2999 0.960 . S
C3016 C3017 1.391 . S
C3016 C3018 1.394 . S
C3016 H3032 0.931 . S
C3017 C3016 1.391 . S
C3017 C3021 1.376 . S
C3018 C3016 1.394 . S
C3018 C3019 1.369 . S
C3018 C3022 1.531 1_565 S
C3019 C3018 1.369 . S
C3019 C3020 1.410 . S
C3019 C3027 1.503 1_565 S
C3020 C3019 1.410 . S
C3020 C3021 1.392 . S
C3020 C3023 1.511 . S
C3021 C3017 1.376 . S
C3021 C3020 1.392 . S
C3021 H3033 0.929 . S
C3022 C3018 1.531 1_545 S
C3022 H3034 0.960 . S
C3022 H3035 0.962 . S
C3022 H3036 0.960 . S
C3023 C3020 1.511 . S
C3023 H3037 0.961 . S
C3023 H3038 0.961 . S
C3023 H3039 0.961 . S
C3024 C3025 1.370 . S
C3024 C3026 1.363 . S
C3024 H3040 0.931 . S
C3025 C3024 1.370 . S
C3025 C3029 1.408 . S
C3026 C3024 1.363 . S
C3026 C3027 1.370 . S
C3026 C3030 1.524 1_545 S
C3027 C3019 1.503 1_545 S
C3027 C3026 1.370 . S
C3027 C3028 1.403 . S
C3028 C3027 1.403 . S
C3028 C3029 1.404 . S
C3028 C3031 1.539 . S
C3029 C3025 1.408 . S
C3029 C3028 1.404 . S
C3029 H3041 0.930 . S
C3030 C3026 1.524 1_565 S
C3030 H3042 0.956 . S
C3030 H3043 0.961 . S
C3030 H3044 0.961 . S
C3031 C3028 1.539 . S
C3031 H3045 0.958 . S
C3031 H3046 0.961 . S
C3031 H3047 0.960 . S
H3032 C3016 0.931 . S
H3033 C3021 0.929 . S
H3034 C3022 0.960 . S
H3035 C3022 0.962 . S
H3036 C3022 0.960 . S
H3037 C3023 0.961 . S
H3038 C3023 0.961 . S
H3039 C3023 0.961 . S
H3040 C3024 0.931 . S
H3041 C3029 0.930 . S
H3042 C3030 0.956 . S
H3043 C3030 0.961 . S
H3044 C3030 0.961 . S
H3045 C3031 0.958 . S
H3046 C3031 0.961 . S
H3047 C3031 0.960 . S
C3048 C3049 1.391 . S
C3048 C3050 1.394 . S
C3048 H3064 0.931 . S
C3049 C3048 1.391 . S
C3049 C3053 1.376 . S
C3050 C3048 1.394 . S
C3050 C3051 1.369 . S
C3050 C3054 1.531 . S
C3051 C3050 1.369 . S
C3051 C3052 1.410 . S
C3051 C3059 1.503 . S
C3052 C3051 1.410 . S
C3052 C3053 1.392 . S
C3052 C3055 1.511 . S
C3053 C3049 1.376 . S
C3053 C3052 1.392 . S
C3053 H3065 0.929 . S
C3054 C3050 1.531 . S
C3054 H3066 0.960 . S
C3054 H3067 0.962 . S
C3054 H3068 0.960 . S
C3055 C3052 1.511 . S
C3055 H3069 0.961 . S
C3055 H3070 0.961 . S
C3055 H3071 0.961 . S
C3056 C3057 1.370 . S
C3056 C3058 1.363 . S
C3056 H3072 0.931 . S
C3057 C3056 1.370 . S
C3057 C3061 1.408 . S
C3058 C3056 1.363 . S
C3058 C3059 1.370 . S
C3058 C3062 1.524 . S
C3059 C3051 1.503 . S
C3059 C3058 1.370 . S
C3059 C3060 1.403 . S
C3060 C3059 1.403 . S
C3060 C3061 1.404 . S
C3060 C3063 1.539 . S
C3061 C3057 1.408 . S
C3061 C3060 1.404 . S
C3061 H3073 0.930 . S
C3062 C3058 1.524 . S
C3062 H3074 0.956 . S
C3062 H3075 0.961 . S
C3062 H3076 0.961 . S
C3063 C3060 1.539 . S
C3063 H3077 0.958 . S
C3063 H3078 0.961 . S
C3063 H3079 0.960 . S
H3064 C3048 0.931 . S
H3065 C3053 0.929 . S
H3066 C3054 0.960 . S
H3067 C3054 0.962 . S
H3068 C3054 0.960 . S
H3069 C3055 0.961 . S
H3070 C3055 0.961 . S
H3071 C3055 0.961 . S
H3072 C3056 0.931 . S
H3073 C3061 0.930 . S
H3074 C3062 0.956 . S
H3075 C3062 0.961 . S
H3076 C3062 0.961 . S
H3077 C3063 0.958 . S
H3078 C3063 0.961 . S
H3079 C3063 0.960 . S
C3080 C3081 1.391 . S
C3080 C3082 1.394 . S
C3080 H3096 0.931 . S
C3081 C3080 1.391 . S
C3081 C3085 1.376 . S
C3082 C3080 1.394 . S
C3082 C3083 1.369 . S
C3082 C3086 1.531 . S
C3083 C3082 1.369 . S
C3083 C3084 1.410 . S
C3083 C3091 1.503 . S
C3084 C3083 1.410 . S
C3084 C3085 1.392 . S
C3084 C3087 1.511 . S
C3085 C3081 1.376 . S
C3085 C3084 1.392 . S
C3085 H3097 0.929 . S
C3086 C3082 1.531 . S
C3086 H3098 0.960 . S
C3086 H3099 0.962 . S
C3086 H3100 0.960 . S
C3087 C3084 1.511 . S
C3087 H3101 0.961 . S
C3087 H3102 0.961 . S
C3087 H3103 0.961 . S
C3088 C3089 1.370 . S
C3088 C3090 1.363 . S
C3088 H3104 0.931 . S
C3089 C3088 1.370 . S
C3089 C3093 1.408 . S
C3090 C3088 1.363 . S
C3090 C3091 1.370 . S
C3090 C3094 1.524 . S
C3091 C3083 1.503 . S
C3091 C3090 1.370 . S
C3091 C3092 1.403 . S
C3092 C3091 1.403 . S
C3092 C3093 1.404 . S
C3092 C3095 1.539 . S
C3093 C3089 1.408 . S
C3093 C3092 1.404 . S
C3093 H3105 0.930 . S
C3094 C3090 1.524 . S
C3094 H3106 0.956 . S
C3094 H3107 0.961 . S
C3094 H3108 0.961 . S
C3095 C3092 1.539 . S
C3095 H3109 0.958 . S
C3095 H3110 0.961 . S
C3095 H3111 0.960 . S
H3096 C3080 0.931 . S
H3097 C3085 0.929 . S
H3098 C3086 0.960 . S
H3099 C3086 0.962 . S
H3100 C3086 0.960 . S
H3101 C3087 0.961 . S
H3102 C3087 0.961 . S
H3103 C3087 0.961 . S
H3104 C3088 0.931 . S
H3105 C3093 0.930 . S
H3106 C3094 0.956 . S
H3107 C3094 0.961 . S
H3108 C3094 0.961 . S
H3109 C3095 0.958 . S
H3110 C3095 0.961 . S
H3111 C3095 0.960 . S
C3112 C3113 1.391 . S
C3112 C3114 1.394 . S
C3112 H3128 0.931 . S
C3113 C3112 1.391 . S
C3113 C3117 1.376 . S
C3114 C3112 1.394 . S
C3114 C3115 1.369 . S
C3114 C3118 1.531 . S
C3115 C3114 1.369 . S
C3115 C3116 1.410 . S
C3115 C3123 1.503 . S
C3116 C3115 1.410 . S
C3116 C3117 1.392 . S
C3116 C3119 1.511 . S
C3117 C3113 1.376 . S
C3117 C3116 1.392 . S
C3117 H3129 0.929 . S
C3118 C3114 1.531 . S
C3118 H3130 0.960 . S
C3118 H3131 0.962 . S
C3118 H3132 0.960 . S
C3119 C3116 1.511 . S
C3119 H3133 0.961 . S
C3119 H3134 0.961 . S
C3119 H3135 0.961 . S
C3120 C3121 1.370 . S
C3120 C3122 1.363 . S
C3120 H3136 0.931 . S
C3121 C3120 1.370 . S
C3121 C3125 1.408 . S
C3122 C3120 1.363 . S
C3122 C3123 1.370 . S
C3122 C3126 1.524 . S
C3123 C3115 1.503 . S
C3123 C3122 1.370 . S
C3123 C3124 1.403 . S
C3124 C3123 1.403 . S
C3124 C3125 1.404 . S
C3124 C3127 1.539 . S
C3125 C3121 1.408 . S
C3125 C3124 1.404 . S
C3125 H3137 0.930 . S
C3126 C3122 1.524 . S
C3126 H3138 0.956 . S
C3126 H3139 0.961 . S
C3126 H3140 0.961 . S
C3127 C3124 1.539 . S
C3127 H3141 0.958 . S
C3127 H3142 0.961 . S
C3127 H3143 0.960 . S
H3128 C3112 0.931 . S
H3129 C3117 0.929 . S
H3130 C3118 0.960 . S
H3131 C3118 0.962 . S
H3132 C3118 0.960 . S
H3133 C3119 0.961 . S
H3134 C3119 0.961 . S
H3135 C3119 0.961 . S
H3136 C3120 0.931 . S
H3137 C3125 0.930 . S
H3138 C3126 0.956 . S
H3139 C3126 0.961 . S
H3140 C3126 0.961 . S
H3141 C3127 0.958 . S
H3142 C3127 0.961 . S
H3143 C3127 0.960 . S
C3144 C3145 1.391 . S
C3144 C3146 1.394 . S
C3144 H3160 0.931 . S
C3145 C3144 1.391 . S
C3145 C3149 1.376 . S
C3146 C3144 1.394 . S
C3146 C3147 1.369 . S
C3146 C3150 1.531 1_556 S
C3147 C3146 1.369 . S
C3147 C3148 1.410 . S
C3147 C3155 1.503 1_556 S
C3148 C3147 1.410 . S
C3148 C3149 1.392 . S
C3148 C3151 1.511 . S
C3149 C3145 1.376 . S
C3149 C3148 1.392 . S
C3149 H3161 0.929 . S
C3150 C3146 1.531 1_554 S
C3150 H3162 0.960 . S
C3150 H3163 0.947 1_554 S
C3150 H3164 0.960 . S
C3151 C3148 1.511 . S
C3151 H3165 0.961 . S
C3151 H3166 0.961 . S
C3151 H3167 0.961 1_556 S
C3152 C3153 1.370 . S
C3152 C3154 1.363 1_554 S
C3152 H3168 0.931 . S
C3153 C3152 1.370 . S
C3153 C3157 1.408 . S
C3154 C3152 1.363 1_556 S
C3154 C3155 1.370 1_556 S
C3154 C3158 1.524 . S
C3155 C3147 1.503 1_554 S
C3155 C3154 1.370 1_554 S
C3155 C3156 1.403 . S
C3156 C3155 1.403 . S
C3156 C3157 1.404 . S
C3156 C3159 1.539 . S
C3157 C3153 1.408 . S
C3157 C3156 1.404 . S
C3157 H3169 0.930 . S
C3158 C3154 1.524 . S
C3158 H3170 0.956 . S
C3158 H3171 0.961 . S
C3158 H3172 0.961 . S
C3159 C3156 1.539 . S
C3159 H3173 0.958 . S
C3159 H3174 0.961 . S
C3159 H3175 0.960 . S
H3160 C3144 0.931 . S
H3161 C3149 0.929 . S
H3162 C3150 0.960 . S
H3163 C3150 0.947 1_556 S
H3164 C3150 0.960 . S
H3165 C3151 0.961 . S
H3166 C3151 0.961 . S
H3167 C3151 0.961 1_554 S
H3168 C3152 0.931 . S
H3169 C3157 0.930 . S
H3170 C3158 0.956 . S
H3171 C3158 0.961 . S
H3172 C3158 0.961 . S
H3173 C3159 0.958 . S
H3174 C3159 0.961 . S
H3175 C3159 0.960 . S
C3176 C3177 1.391 . S
C3176 C3178 1.394 . S
C3176 H3192 0.931 . S
C3177 C3176 1.391 . S
C3177 C3181 1.376 . S
C3178 C3176 1.394 . S
C3178 C3179 1.369 . S
C3178 C3182 1.531 . S
C3179 C3178 1.369 . S
C3179 C3180 1.410 . S
C3179 C3187 1.503 . S
C3180 C3179 1.410 . S
C3180 C3181 1.392 . S
C3180 C3183 1.511 . S
C3181 C3177 1.376 . S
C3181 C3180 1.392 . S
C3181 H3193 0.929 . S
C3182 C3178 1.531 . S
C3182 H3194 0.960 . S
C3182 H3195 0.962 . S
C3182 H3196 0.960 . S
C3183 C3180 1.511 . S
C3183 H3197 0.961 . S
C3183 H3198 0.961 . S
C3183 H3199 0.961 . S
C3184 C3185 1.370 . S
C3184 C3186 1.363 . S
C3184 H3200 0.931 . S
C3185 C3184 1.370 . S
C3185 C3189 1.408 . S
C3186 C3184 1.363 . S
C3186 C3187 1.370 . S
C3186 C3190 1.524 . S
C3187 C3179 1.503 . S
C3187 C3186 1.370 . S
C3187 C3188 1.403 . S
C3188 C3187 1.403 . S
C3188 C3189 1.404 . S
C3188 C3191 1.539 . S
C3189 C3185 1.408 . S
C3189 C3188 1.404 . S
C3189 H3201 0.930 . S
C3190 C3186 1.524 . S
C3190 H3202 0.956 . S
C3190 H3203 0.961 . S
C3190 H3204 0.961 . S
C3191 C3188 1.539 . S
C3191 H3205 0.958 . S
C3191 H3206 0.961 . S
C3191 H3207 0.960 . S
H3192 C3176 0.931 . S
H3193 C3181 0.929 . S
H3194 C3182 0.960 . S
H3195 C3182 0.962 . S
H3196 C3182 0.960 . S
H3197 C3183 0.961 . S
H3198 C3183 0.961 . S
H3199 C3183 0.961 . S
H3200 C3184 0.931 . S
H3201 C3189 0.930 . S
H3202 C3190 0.956 . S
H3203 C3190 0.961 . S
H3204 C3190 0.961 . S
H3205 C3191 0.958 . S
H3206 C3191 0.961 . S
H3207 C3191 0.960 . S
C3208 C3209 1.391 . S
C3208 C3210 1.394 . S
C3208 H3224 0.931 . S
C3209 C3208 1.391 . S
C3209 C3213 1.376 . S
C3210 C3208 1.394 . S
C3210 C3211 1.369 . S
C3210 C3214 1.531 . S
C3211 C3210 1.369 . S
C3211 C3212 1.410 . S
C3211 C3219 1.503 1_565 S
C3212 C3211 1.410 . S
C3212 C3213 1.392 . S
C3212 C3215 1.511 1_565 S
C3213 C3209 1.376 . S
C3213 C3212 1.392 . S
C3213 H3225 0.929 . S
C3214 C3210 1.531 . S
C3214 H3226 0.960 . S
C3214 H3227 0.962 . S
C3214 H3228 0.960 . S
C3215 C3212 1.511 1_545 S
C3215 H3229 0.961 . S
C3215 H3230 0.961 . S
C3215 H3231 0.961 1_545 S
C3216 C3217 1.370 . S
C3216 C3218 1.363 . S
C3216 H3232 0.931 . S
C3217 C3216 1.370 . S
C3217 C3221 1.408 . S
C3218 C3216 1.363 . S
C3218 C3219 1.370 . S
C3218 C3222 1.524 . S
C3219 C3211 1.503 1_545 S
C3219 C3218 1.370 . S
C3219 C3220 1.403 1_545 S
C3220 C3219 1.403 1_565 S
C3220 C3221 1.404 1_565 S
C3220 C3223 1.539 . S
C3221 C3217 1.408 . S
C3221 C3220 1.404 1_545 S
C3221 H3233 0.930 . S
C3222 C3218 1.524 . S
C3222 H3234 0.956 . S
C3222 H3235 0.961 . S
C3222 H3236 0.961 . S
C3223 C3220 1.539 . S
C3223 H3237 0.958 . S
C3223 H3238 0.961 . S
C3223 H3239 0.960 . S
H3224 C3208 0.931 . S
H3225 C3213 0.929 . S
H3226 C3214 0.960 . S
H3227 C3214 0.962 . S
H3228 C3214 0.960 . S
H3229 C3215 0.961 . S
H3230 C3215 0.961 . S
H3231 C3215 0.961 1_565 S
H3232 C3216 0.931 . S
H3233 C3221 0.930 . S
H3234 C3222 0.956 . S
H3235 C3222 0.961 . S
H3236 C3222 0.961 . S
H3237 C3223 0.958 . S
H3238 C3223 0.961 . S
H3239 C3223 0.960 . S
C3240 C3241 1.391 . S
C3240 C3242 1.394 . S
C3240 H3256 0.931 . S
C3241 C3240 1.391 . S
C3241 C3245 1.376 . S
C3242 C3240 1.394 . S
C3242 C3243 1.369 . S
C3242 C3246 1.531 . S
C3243 C3242 1.369 . S
C3243 C3244 1.410 . S
C3243 C3251 1.503 1_556 S
C3244 C3243 1.410 . S
C3244 C3245 1.392 . S
C3244 C3247 1.511 1_556 S
C3245 C3241 1.376 . S
C3245 C3244 1.392 . S
C3245 H3257 0.929 . S
C3246 C3242 1.531 . S
C3246 H3258 0.960 . S
C3246 H3259 0.962 . S
C3246 H3260 0.960 . S
C3247 C3244 1.511 1_554 S
C3247 H3261 0.961 . S
C3247 H3262 0.961 . S
C3247 H3263 0.961 . S
C3248 C3249 1.370 . S
C3248 C3250 1.363 . S
C3248 H3264 0.931 . S
C3249 C3248 1.370 . S
C3249 C3253 1.408 . S
C3250 C3248 1.363 . S
C3250 C3251 1.370 . S
C3250 C3254 1.524 . S
C3251 C3243 1.503 1_554 S
C3251 C3250 1.370 . S
C3251 C3252 1.403 . S
C3252 C3251 1.403 . S
C3252 C3253 1.404 . S
C3252 C3255 1.541 . S
C3253 C3249 1.408 . S
C3253 C3252 1.404 . S
C3253 H3265 0.930 . S
C3254 C3250 1.524 . S
C3254 H3266 0.956 . S
C3254 H3267 0.961 . S
C3254 H3268 0.961 . S
C3255 C3252 1.541 . S
C3255 H3269 0.956 1_554 S
C3255 H3270 0.963 . S
C3255 H3271 0.958 1_554 S
H3256 C3240 0.931 . S
H3257 C3245 0.929 . S
H3258 C3246 0.960 . S
H3259 C3246 0.962 . S
H3260 C3246 0.960 . S
H3261 C3247 0.961 . S
H3262 C3247 0.961 . S
H3263 C3247 0.961 . S
H3264 C3248 0.931 . S
H3265 C3253 0.930 . S
H3266 C3254 0.956 . S
H3267 C3254 0.961 . S
H3268 C3254 0.961 . S
H3269 C3255 0.956 1_556 S
H3270 C3255 0.963 . S
H3271 C3255 0.958 1_556 S
C3272 C3273 1.391 . S
C3272 C3274 1.394 . S
C3272 H3288 0.931 . S
C3273 C3272 1.391 . S
C3273 C3277 1.376 . S
C3274 C3272 1.394 . S
C3274 C3275 1.369 . S
C3274 C3278 1.531 . S
C3275 C3274 1.369 . S
C3275 C3276 1.410 1_545 S
C3275 C3283 1.503 1_545 S
C3276 C3275 1.410 1_565 S
C3276 C3277 1.392 1_565 S
C3276 C3279 1.511 . S
C3277 C3273 1.376 . S
C3277 C3276 1.392 1_545 S
C3277 H3289 0.929 . S
C3278 C3274 1.531 . S
C3278 H3290 0.960 . S
C3278 H3291 0.962 . S
C3278 H3292 0.960 . S
C3279 C3276 1.511 . S
C3279 H3293 0.961 . S
C3279 H3294 0.961 . S
C3279 H3295 0.961 . S
C3280 C3281 1.370 . S
C3280 C3282 1.363 . S
C3280 H3296 0.931 . S
C3281 C3280 1.370 . S
C3281 C3285 1.408 . S
C3282 C3280 1.363 . S
C3282 C3283 1.370 . S
C3282 C3286 1.524 1_565 S
C3283 C3275 1.503 1_565 S
C3283 C3282 1.370 . S
C3283 C3284 1.403 . S
C3284 C3283 1.403 . S
C3284 C3285 1.404 . S
C3284 C3287 1.539 . S
C3285 C3281 1.408 . S
C3285 C3284 1.404 . S
C3285 H3297 0.930 . S
C3286 C3282 1.524 1_545 S
C3286 H3298 0.956 . S
C3286 H3299 0.961 . S
C3286 H3300 0.961 . S
C3287 C3284 1.539 . S
C3287 H3301 0.958 . S
C3287 H3302 0.961 . S
C3287 H3303 0.960 . S
H3288 C3272 0.931 . S
H3289 C3277 0.929 . S
H3290 C3278 0.960 . S
H3291 C3278 0.962 . S
H3292 C3278 0.960 . S
H3293 C3279 0.961 . S
H3294 C3279 0.961 . S
H3295 C3279 0.961 . S
H3296 C3280 0.931 . S
H3297 C3285 0.930 . S
H3298 C3286 0.956 . S
H3299 C3286 0.961 . S
H3300 C3286 0.961 . S
H3301 C3287 0.958 . S
H3302 C3287 0.961 . S
H3303 C3287 0.960 . S
C3304 C3305 1.391 . S
C3304 C3306 1.394 . S
C3304 H3320 0.931 . S
C3305 C3304 1.391 . S
C3305 C3309 1.376 . S
C3306 C3304 1.394 . S
C3306 C3307 1.369 . S
C3306 C3310 1.531 . S
C3307 C3306 1.369 . S
C3307 C3308 1.410 . S
C3307 C3315 1.503 . S
C3308 C3307 1.410 . S
C3308 C3309 1.392 . S
C3308 C3311 1.511 . S
C3309 C3305 1.376 . S
C3309 C3308 1.392 . S
C3309 H3321 0.929 . S
C3310 C3306 1.531 . S
C3310 H3322 0.960 . S
C3310 H3323 0.962 . S
C3310 H3324 0.960 . S
C3311 C3308 1.511 . S
C3311 H3325 0.961 . S
C3311 H3326 0.961 . S
C3311 H3327 0.961 . S
C3312 C3313 1.370 . S
C3312 C3314 1.363 . S
C3312 H3328 0.931 . S
C3313 C3312 1.370 . S
C3313 C3317 1.408 . S
C3314 C3312 1.363 . S
C3314 C3315 1.370 . S
C3314 C3318 1.524 . S
C3315 C3307 1.503 . S
C3315 C3314 1.370 . S
C3315 C3316 1.403 . S
C3316 C3315 1.403 . S
C3316 C3317 1.404 . S
C3316 C3319 1.539 . S
C3317 C3313 1.408 . S
C3317 C3316 1.404 . S
C3317 H3329 0.930 . S
C3318 C3314 1.524 . S
C3318 H3330 0.956 . S
C3318 H3331 0.961 . S
C3318 H3332 0.961 . S
C3319 C3316 1.539 . S
C3319 H3333 0.958 . S
C3319 H3334 0.961 . S
C3319 H3335 0.960 . S
H3320 C3304 0.931 . S
H3321 C3309 0.929 . S
H3322 C3310 0.960 . S
H3323 C3310 0.962 . S
H3324 C3310 0.960 . S
H3325 C3311 0.961 . S
H3326 C3311 0.961 . S
H3327 C3311 0.961 . S
H3328 C3312 0.931 . S
H3329 C3317 0.930 . S
H3330 C3318 0.956 . S
H3331 C3318 0.961 . S
H3332 C3318 0.961 . S
H3333 C3319 0.958 . S
H3334 C3319 0.961 . S
H3335 C3319 0.960 . S
C3336 C3337 1.391 . S
C3336 C3338 1.394 . S
C3336 H3352 0.931 . S
C3337 C3336 1.391 . S
C3337 C3341 1.376 . S
C3338 C3336 1.394 . S
C3338 C3339 1.369 . S
C3338 C3342 1.531 1_655 S
C3339 C3338 1.369 . S
C3339 C3340 1.410 . S
C3339 C3347 1.503 1_655 S
C3340 C3339 1.410 . S
C3340 C3341 1.392 . S
C3340 C3343 1.511 . S
C3341 C3337 1.376 . S
C3341 C3340 1.392 . S
C3341 H3353 0.929 . S
C3342 C3338 1.531 1_455 S
C3342 H3354 0.960 . S
C3342 H3355 0.962 . S
C3342 H3356 0.960 . S
C3343 C3340 1.511 . S
C3343 H3357 0.961 . S
C3343 H3358 0.961 . S
C3343 H3359 0.961 . S
C3344 C3345 1.370 . S
C3344 C3346 1.363 . S
C3344 H3360 0.931 . S
C3345 C3344 1.370 . S
C3345 C3349 1.408 . S
C3346 C3344 1.363 . S
C3346 C3347 1.370 . S
C3346 C3350 1.524 . S
C3347 C3339 1.503 1_455 S
C3347 C3346 1.370 . S
C3347 C3348 1.403 . S
C3348 C3347 1.403 . S
C3348 C3349 1.404 . S
C3348 C3351 1.539 . S
C3349 C3345 1.408 . S
C3349 C3348 1.404 . S
C3349 H3361 0.930 . S
C3350 C3346 1.524 . S
C3350 H3362 0.956 . S
C3350 H3363 0.961 1_455 S
C3350 H3364 0.961 . S
C3351 C3348 1.539 . S
C3351 H3365 0.958 . S
C3351 H3366 0.961 . S
C3351 H3367 0.960 1_455 S
H3352 C3336 0.931 . S
H3353 C3341 0.929 . S
H3354 C3342 0.960 . S
H3355 C3342 0.962 . S
H3356 C3342 0.960 . S
H3357 C3343 0.961 . S
H3358 C3343 0.961 . S
H3359 C3343 0.961 . S
H3360 C3344 0.931 . S
H3361 C3349 0.930 . S
H3362 C3350 0.956 . S
H3363 C3350 0.961 1_655 S
H3364 C3350 0.961 . S
H3365 C3351 0.958 . S
H3366 C3351 0.961 . S
H3367 C3351 0.960 1_655 S
C3368 C3369 1.391 . S
C3368 C3370 1.394 . S
C3368 H3384 0.931 . S
C3369 C3368 1.391 . S
C3369 C3373 1.376 . S
C3370 C3368 1.394 . S
C3370 C3371 1.369 . S
C3370 C3374 1.531 . S
C3371 C3370 1.369 . S
C3371 C3372 1.410 . S
C3371 C3379 1.503 1_655 S
C3372 C3371 1.410 . S
C3372 C3373 1.392 . S
C3372 C3375 1.511 1_655 S
C3373 C3369 1.376 . S
C3373 C3372 1.392 . S
C3373 H3385 0.929 . S
C3374 C3370 1.531 . S
C3374 H3386 0.960 1_655 S
C3374 H3387 0.962 . S
C3374 H3388 0.960 . S
C3375 C3372 1.511 1_455 S
C3375 H3389 0.961 . S
C3375 H3390 0.961 . S
C3375 H3391 0.961 . S
C3376 C3377 1.370 . S
C3376 C3378 1.363 1_455 S
C3376 H3392 0.941 . S
C3377 C3376 1.370 . S
C3377 C3381 1.408 . S
C3378 C3376 1.363 1_655 S
C3378 C3379 1.370 1_655 S
C3378 C3382 1.524 . S
C3379 C3371 1.503 1_455 S
C3379 C3378 1.370 1_455 S
C3379 C3380 1.403 . S
C3380 C3379 1.403 . S
C3380 C3381 1.404 . S
C3380 C3383 1.539 . S
C3381 C3377 1.408 . S
C3381 C3380 1.404 . S
C3381 H3393 0.930 . S
C3382 C3378 1.524 . S
C3382 H3394 0.956 . S
C3382 H3395 0.961 . S
C3382 H3396 0.961 . S
C3383 C3380 1.539 . S
C3383 H3397 0.958 . S
C3383 H3398 0.961 . S
C3383 H3399 0.960 . S
H3384 C3368 0.931 . S
H3385 C3373 0.929 . S
H3386 C3374 0.960 1_455 S
H3387 C3374 0.962 . S
H3388 C3374 0.960 . S
H3389 C3375 0.961 . S
H3390 C3375 0.961 . S
H3391 C3375 0.961 . S
H3392 C3376 0.941 . S
H3393 C3381 0.930 . S
H3394 C3382 0.956 . S
H3395 C3382 0.961 . S
H3396 C3382 0.961 . S
H3397 C3383 0.958 . S
H3398 C3383 0.961 . S
H3399 C3383 0.960 . S
C3400 C3401 1.391 . S
C3400 C3402 1.394 . S
C3400 H3416 0.931 . S
C3401 C3400 1.391 . S
C3401 C3405 1.376 . S
C3402 C3400 1.394 . S
C3402 C3403 1.369 . S
C3402 C3406 1.531 . S
C3403 C3402 1.369 . S
C3403 C3404 1.410 . S
C3403 C3411 1.503 . S
C3404 C3403 1.410 . S
C3404 C3405 1.392 . S
C3404 C3407 1.511 . S
C3405 C3401 1.376 . S
C3405 C3404 1.392 . S
C3405 H3417 0.929 . S
C3406 C3402 1.531 . S
C3406 H3418 0.960 . S
C3406 H3419 0.962 . S
C3406 H3420 0.960 . S
C3407 C3404 1.511 . S
C3407 H3421 0.961 . S
C3407 H3422 0.961 . S
C3407 H3423 0.961 . S
C3408 C3409 1.370 . S
C3408 C3410 1.363 . S
C3408 H3424 0.931 . S
C3409 C3408 1.370 . S
C3409 C3413 1.408 . S
C3410 C3408 1.363 . S
C3410 C3411 1.370 . S
C3410 C3414 1.524 . S
C3411 C3403 1.503 . S
C3411 C3410 1.370 . S
C3411 C3412 1.403 . S
C3412 C3411 1.403 . S
C3412 C3413 1.404 . S
C3412 C3415 1.539 . S
C3413 C3409 1.408 . S
C3413 C3412 1.404 . S
C3413 H3425 0.930 . S
C3414 C3410 1.524 . S
C3414 H3426 0.956 . S
C3414 H3427 0.961 . S
C3414 H3428 0.961 . S
C3415 C3412 1.539 . S
C3415 H3429 0.958 . S
C3415 H3430 0.961 . S
C3415 H3431 0.960 . S
H3416 C3400 0.931 . S
H3417 C3405 0.929 . S
H3418 C3406 0.960 . S
H3419 C3406 0.962 . S
H3420 C3406 0.960 . S
H3421 C3407 0.961 . S
H3422 C3407 0.961 . S
H3423 C3407 0.961 . S
H3424 C3408 0.931 . S
H3425 C3413 0.930 . S
H3426 C3414 0.956 . S
H3427 C3414 0.961 . S
H3428 C3414 0.961 . S
H3429 C3415 0.958 . S
H3430 C3415 0.961 . S
H3431 C3415 0.960 . S
C3432 C3433 1.391 . S
C3432 C3434 1.394 . S
C3432 H3448 0.931 . S
C3433 C3432 1.391 . S
C3433 C3437 1.376 . S
C3434 C3432 1.394 . S
C3434 C3435 1.369 . S
C3434 C3438 1.531 . S
C3435 C3434 1.369 . S
C3435 C3436 1.410 . S
C3435 C3443 1.503 1_655 S
C3436 C3435 1.410 . S
C3436 C3437 1.392 . S
C3436 C3439 1.511 1_655 S
C3437 C3433 1.376 . S
C3437 C3436 1.392 . S
C3437 H3449 0.929 . S
C3438 C3434 1.531 . S
C3438 H3450 0.960 . S
C3438 H3451 0.962 . S
C3438 H3452 0.960 . S
C3439 C3436 1.511 1_455 S
C3439 H3453 0.961 . S
C3439 H3454 0.961 . S
C3439 H3455 0.961 . S
C3440 C3441 1.370 . S
C3440 C3442 1.363 . S
C3440 H3456 0.931 . S
C3441 C3440 1.370 . S
C3441 C3445 1.408 . S
C3442 C3440 1.363 . S
C3442 C3443 1.370 . S
C3442 C3446 1.524 . S
C3443 C3435 1.503 1_455 S
C3443 C3442 1.370 . S
C3443 C3444 1.403 . S
C3444 C3443 1.403 . S
C3444 C3445 1.404 . S
C3444 C3447 1.539 . S
C3445 C3441 1.408 . S
C3445 C3444 1.404 . S
C3445 H3457 0.930 . S
C3446 C3442 1.524 . S
C3446 H3458 0.956 . S
C3446 H3459 0.961 . S
C3446 H3460 0.961 . S
C3447 C3444 1.539 . S
C3447 H3461 0.958 1_455 S
C3447 H3462 0.961 . S
C3447 H3463 0.960 1_455 S
H3448 C3432 0.931 . S
H3449 C3437 0.929 . S
H3450 C3438 0.960 . S
H3451 C3438 0.962 . S
H3452 C3438 0.960 . S
H3453 C3439 0.961 . S
H3454 C3439 0.961 . S
H3455 C3439 0.961 . S
H3456 C3440 0.931 . S
H3457 C3445 0.930 . S
H3458 C3446 0.956 . S
H3459 C3446 0.961 . S
H3460 C3446 0.961 . S
H3461 C3447 0.958 1_655 S
H3462 C3447 0.961 . S
H3463 C3447 0.960 1_655 S
C3464 C3465 1.391 . S
C3464 C3466 1.394 1_455 S
C3464 H3480 0.922 1_455 S
C3465 C3464 1.391 . S
C3465 C3469 1.376 . S
C3466 C3464 1.394 1_655 S
C3466 C3467 1.369 1_655 S
C3466 C3470 1.531 . S
C3467 C3466 1.369 1_455 S
C3467 C3468 1.410 . S
C3467 C3475 1.503 1_455 S
C3468 C3467 1.410 . S
C3468 C3469 1.392 . S
C3468 C3471 1.511 . S
C3469 C3465 1.376 . S
C3469 C3468 1.392 . S
C3469 H3481 0.929 . S
C3470 C3466 1.531 . S
C3470 H3482 0.960 . S
C3470 H3483 0.962 . S
C3470 H3484 0.960 . S
C3471 C3468 1.511 . S
C3471 H3485 0.961 . S
C3471 H3486 0.961 . S
C3471 H3487 0.961 . S
C3472 C3473 1.370 . S
C3472 C3474 1.363 . S
C3472 H3488 0.931 . S
C3473 C3472 1.370 . S
C3473 C3477 1.408 . S
C3474 C3472 1.363 . S
C3474 C3475 1.370 . S
C3474 C3478 1.524 . S
C3475 C3467 1.503 1_655 S
C3475 C3474 1.370 . S
C3475 C3476 1.403 . S
C3476 C3475 1.403 . S
C3476 C3477 1.404 . S
C3476 C3479 1.539 . S
C3477 C3473 1.408 . S
C3477 C3476 1.404 . S
C3477 H3489 0.930 . S
C3478 C3474 1.524 . S
C3478 H3490 0.956 . S
C3478 H3491 0.961 1_655 S
C3478 H3492 0.961 . S
C3479 C3476 1.539 . S
C3479 H3493 0.958 . S
C3479 H3494 0.961 . S
C3479 H3495 0.960 1_655 S
H3480 C3464 0.922 1_655 S
H3481 C3469 0.929 . S
H3482 C3470 0.960 . S
H3483 C3470 0.962 . S
H3484 C3470 0.960 . S
H3485 C3471 0.961 . S
H3486 C3471 0.961 . S
H3487 C3471 0.961 . S
H3488 C3472 0.931 . S
H3489 C3477 0.930 . S
H3490 C3478 0.956 . S
H3491 C3478 0.961 1_455 S
H3492 C3478 0.961 . S
H3493 C3479 0.958 . S
H3494 C3479 0.961 . S
H3495 C3479 0.960 1_455 S
C3496 C3497 1.391 . S
C3496 C3498 1.394 . S
C3496 H3512 0.931 . S
C3497 C3496 1.391 . S
C3497 C3501 1.376 . S
C3498 C3496 1.394 . S
C3498 C3499 1.369 . S
C3498 C3502 1.531 . S
C3499 C3498 1.369 . S
C3499 C3500 1.410 . S
C3499 C3507 1.503 . S
C3500 C3499 1.410 . S
C3500 C3501 1.392 . S
C3500 C3503 1.511 . S
C3501 C3497 1.376 . S
C3501 C3500 1.392 . S
C3501 H3513 0.929 . S
C3502 C3498 1.531 . S
C3502 H3514 0.960 . S
C3502 H3515 0.962 . S
C3502 H3516 0.960 . S
C3503 C3500 1.511 . S
C3503 H3517 0.961 . S
C3503 H3518 0.961 . S
C3503 H3519 0.961 . S
C3504 C3505 1.370 . S
C3504 C3506 1.363 . S
C3504 H3520 0.931 . S
C3505 C3504 1.370 . S
C3505 C3509 1.408 . S
C3506 C3504 1.363 . S
C3506 C3507 1.370 . S
C3506 C3510 1.524 . S
C3507 C3499 1.503 . S
C3507 C3506 1.370 . S
C3507 C3508 1.403 . S
C3508 C3507 1.403 . S
C3508 C3509 1.404 . S
C3508 C3511 1.539 . S
C3509 C3505 1.408 . S
C3509 C3508 1.404 . S
C3509 H3521 0.930 . S
C3510 C3506 1.524 . S
C3510 H3522 0.956 . S
C3510 H3523 0.961 . S
C3510 H3524 0.961 . S
C3511 C3508 1.539 . S
C3511 H3525 0.958 . S
C3511 H3526 0.961 . S
C3511 H3527 0.960 . S
H3512 C3496 0.931 . S
H3513 C3501 0.929 . S
H3514 C3502 0.960 . S
H3515 C3502 0.962 . S
H3516 C3502 0.960 . S
H3517 C3503 0.961 . S
H3518 C3503 0.961 . S
H3519 C3503 0.961 . S
H3520 C3504 0.931 . S
H3521 C3509 0.930 . S
H3522 C3510 0.956 . S
H3523 C3510 0.961 . S
H3524 C3510 0.961 . S
H3525 C3511 0.958 . S
H3526 C3511 0.961 . S
H3527 C3511 0.960 . S
C3528 C3529 1.391 . S
C3528 C3530 1.394 . S
C3528 H3544 0.931 . S
C3529 C3528 1.391 . S
C3529 C3533 1.376 . S
C3530 C3528 1.394 . S
C3530 C3531 1.369 . S
C3530 C3534 1.531 1_545 S
C3531 C3530 1.369 . S
C3531 C3532 1.410 . S
C3531 C3539 1.503 1_545 S
C3532 C3531 1.410 . S
C3532 C3533 1.392 . S
C3532 C3535 1.511 . S
C3533 C3529 1.376 . S
C3533 C3532 1.392 . S
C3533 H3545 0.929 . S
C3534 C3530 1.531 1_565 S
C3534 H3546 0.960 . S
C3534 H3547 0.962 . S
C3534 H3548 0.960 . S
C3535 C3532 1.511 . S
C3535 H3549 0.961 . S
C3535 H3550 0.961 . S
C3535 H3551 0.961 . S
C3536 C3537 1.370 . S
C3536 C3538 1.363 . S
C3536 H3552 0.931 . S
C3537 C3536 1.370 . S
C3537 C3541 1.408 . S
C3538 C3536 1.363 . S
C3538 C3539 1.370 . S
C3538 C3542 1.524 1_565 S
C3539 C3531 1.503 1_565 S
C3539 C3538 1.370 . S
C3539 C3540 1.403 . S
C3540 C3539 1.403 . S
C3540 C3541 1.404 . S
C3540 C3543 1.539 . S
C3541 C3537 1.408 . S
C3541 C3540 1.404 . S
C3541 H3553 0.930 . S
C3542 C3538 1.524 1_545 S
C3542 H3554 0.956 . S
C3542 H3555 0.961 . S
C3542 H3556 0.961 . S
C3543 C3540 1.539 . S
C3543 H3557 0.958 . S
C3543 H3558 0.961 . S
C3543 H3559 0.960 . S
H3544 C3528 0.931 . S
H3545 C3533 0.929 . S
H3546 C3534 0.960 . S
H3547 C3534 0.962 . S
H3548 C3534 0.960 . S
H3549 C3535 0.961 . S
H3550 C3535 0.961 . S
H3551 C3535 0.961 . S
H3552 C3536 0.931 . S
H3553 C3541 0.930 . S
H3554 C3542 0.956 . S
H3555 C3542 0.961 . S
H3556 C3542 0.961 . S
H3557 C3543 0.958 . S
H3558 C3543 0.961 . S
H3559 C3543 0.960 . S
C3560 C3561 1.391 . S
C3560 C3562 1.394 . S
C3560 H3576 0.931 . S
C3561 C3560 1.391 . S
C3561 C3565 1.376 . S
C3562 C3560 1.394 . S
C3562 C3563 1.369 . S
C3562 C3566 1.531 1_554 S
C3563 C3562 1.369 . S
C3563 C3564 1.410 . S
C3563 C3571 1.503 1_554 S
C3564 C3563 1.410 . S
C3564 C3565 1.392 . S
C3564 C3567 1.511 . S
C3565 C3561 1.376 . S
C3565 C3564 1.392 . S
C3565 H3577 0.929 . S
C3566 C3562 1.531 1_556 S
C3566 H3578 0.960 . S
C3566 H3579 0.962 . S
C3566 H3580 0.954 1_556 S
C3567 C3564 1.511 . S
C3567 H3581 0.961 . S
C3567 H3582 0.961 . S
C3567 H3583 0.961 . S
C3568 C3569 1.370 . S
C3568 C3570 1.363 . S
C3568 H3584 0.931 . S
C3569 C3568 1.370 . S
C3569 C3573 1.408 . S
C3570 C3568 1.363 . S
C3570 C3571 1.370 . S
C3570 C3574 1.524 . S
C3571 C3563 1.503 1_556 S
C3571 C3570 1.370 . S
C3571 C3572 1.403 1_556 S
C3572 C3571 1.403 1_554 S
C3572 C3573 1.404 1_554 S
C3572 C3575 1.539 . S
C3573 C3569 1.408 . S
C3573 C3572 1.404 1_556 S
C3573 H3585 0.930 . S
C3574 C3570 1.524 . S
C3574 H3586 0.956 . S
C3574 H3587 0.961 . S
C3574 H3588 0.961 . S
C3575 C3572 1.539 . S
C3575 H3589 0.958 . S
C3575 H3590 0.961 . S
C3575 H3591 0.960 . S
H3576 C3560 0.931 . S
H3577 C3565 0.929 . S
H3578 C3566 0.960 . S
H3579 C3566 0.962 . S
H3580 C3566 0.954 1_554 S
H3581 C3567 0.961 . S
H3582 C3567 0.961 . S
H3583 C3567 0.961 . S
H3584 C3568 0.931 . S
H3585 C3573 0.930 . S
H3586 C3574 0.956 . S
H3587 C3574 0.961 . S
H3588 C3574 0.961 . S
H3589 C3575 0.958 . S
H3590 C3575 0.961 . S
H3591 C3575 0.960 . S
C3592 C3593 1.391 . S
C3592 C3594 1.394 . S
C3592 H3608 0.931 . S
C3593 C3592 1.391 . S
C3593 C3597 1.376 . S
C3594 C3592 1.394 . S
C3594 C3595 1.369 . S
C3594 C3598 1.531 1_565 S
C3595 C3594 1.369 . S
C3595 C3596 1.410 . S
C3595 C3603 1.503 1_565 S
C3596 C3595 1.410 . S
C3596 C3597 1.392 . S
C3596 C3599 1.511 . S
C3597 C3593 1.376 . S
C3597 C3596 1.392 . S
C3597 H3609 0.929 . S
C3598 C3594 1.531 1_545 S
C3598 H3610 0.960 . S
C3598 H3611 0.962 . S
C3598 H3612 0.960 . S
C3599 C3596 1.511 . S
C3599 H3613 0.961 . S
C3599 H3614 0.961 . S
C3599 H3615 0.961 . S
C3600 C3601 1.370 . S
C3600 C3602 1.363 . S
C3600 H3616 0.931 . S
C3601 C3600 1.370 . S
C3601 C3605 1.408 . S
C3602 C3600 1.363 . S
C3602 C3603 1.370 . S
C3602 C3606 1.524 . S
C3603 C3595 1.503 1_545 S
C3603 C3602 1.370 . S
C3603 C3604 1.403 . S
C3604 C3603 1.403 . S
C3604 C3605 1.404 . S
C3604 C3607 1.539 . S
C3605 C3601 1.408 . S
C3605 C3604 1.404 . S
C3605 H3617 0.930 . S
C3606 C3602 1.524 . S
C3606 H3618 0.956 . S
C3606 H3619 0.961 . S
C3606 H3620 0.961 . S
C3607 C3604 1.539 . S
C3607 H3621 0.958 . S
C3607 H3622 0.961 . S
C3607 H3623 0.960 1_545 S
H3608 C3592 0.931 . S
H3609 C3597 0.929 . S
H3610 C3598 0.960 . S
H3611 C3598 0.962 . S
H3612 C3598 0.960 . S
H3613 C3599 0.961 . S
H3614 C3599 0.961 . S
H3615 C3599 0.961 . S
H3616 C3600 0.931 . S
H3617 C3605 0.930 . S
H3618 C3606 0.956 . S
H3619 C3606 0.961 . S
H3620 C3606 0.961 . S
H3621 C3607 0.958 . S
H3622 C3607 0.961 . S
H3623 C3607 0.960 1_565 S
C3624 C3625 1.391 . S
C3624 C3626 1.394 . S
C3624 H3640 0.931 . S
C3625 C3624 1.391 . S
C3625 C3629 1.376 . S
C3626 C3624 1.394 . S
C3626 C3627 1.369 . S
C3626 C3630 1.531 . S
C3627 C3626 1.369 . S
C3627 C3628 1.410 . S
C3627 C3635 1.503 . S
C3628 C3627 1.410 . S
C3628 C3629 1.392 . S
C3628 C3631 1.511 . S
C3629 C3625 1.376 . S
C3629 C3628 1.392 . S
C3629 H3641 0.929 . S
C3630 C3626 1.531 . S
C3630 H3642 0.960 . S
C3630 H3643 0.962 . S
C3630 H3644 0.960 . S
C3631 C3628 1.511 . S
C3631 H3645 0.961 . S
C3631 H3646 0.961 . S
C3631 H3647 0.961 . S
C3632 C3633 1.370 . S
C3632 C3634 1.363 . S
C3632 H3648 0.931 . S
C3633 C3632 1.370 . S
C3633 C3637 1.408 . S
C3634 C3632 1.363 . S
C3634 C3635 1.370 . S
C3634 C3638 1.524 . S
C3635 C3627 1.503 . S
C3635 C3634 1.370 . S
C3635 C3636 1.403 . S
C3636 C3635 1.403 . S
C3636 C3637 1.404 . S
C3636 C3639 1.539 . S
C3637 C3633 1.408 . S
C3637 C3636 1.404 . S
C3637 H3649 0.930 . S
C3638 C3634 1.524 . S
C3638 H3650 0.956 . S
C3638 H3651 0.961 . S
C3638 H3652 0.961 . S
C3639 C3636 1.539 . S
C3639 H3653 0.958 . S
C3639 H3654 0.961 . S
C3639 H3655 0.960 . S
H3640 C3624 0.931 . S
H3641 C3629 0.929 . S
H3642 C3630 0.960 . S
H3643 C3630 0.962 . S
H3644 C3630 0.960 . S
H3645 C3631 0.961 . S
H3646 C3631 0.961 . S
H3647 C3631 0.961 . S
H3648 C3632 0.931 . S
H3649 C3637 0.930 . S
H3650 C3638 0.956 . S
H3651 C3638 0.961 . S
H3652 C3638 0.961 . S
H3653 C3639 0.958 . S
H3654 C3639 0.961 . S
H3655 C3639 0.960 . S
C3656 C3657 1.391 . S
C3656 C3658 1.394 . S
C3656 H3672 0.931 . S
C3657 C3656 1.391 . S
C3657 C3661 1.376 . S
C3658 C3656 1.394 . S
C3658 C3659 1.369 . S
C3658 C3662 1.531 . S
C3659 C3658 1.369 . S
C3659 C3660 1.410 . S
C3659 C3667 1.503 1_554 S
C3660 C3659 1.410 . S
C3660 C3661 1.392 . S
C3660 C3663 1.511 1_554 S
C3661 C3657 1.376 . S
C3661 C3660 1.392 . S
C3661 H3673 0.929 . S
C3662 C3658 1.531 . S
C3662 H3674 0.960 . S
C3662 H3675 0.962 . S
C3662 H3676 0.960 . S
C3663 C3660 1.511 1_556 S
C3663 H3677 0.961 . S
C3663 H3678 0.961 . S
C3663 H3679 0.961 . S
C3664 C3665 1.370 . S
C3664 C3666 1.363 . S
C3664 H3680 0.931 . S
C3665 C3664 1.370 . S
C3665 C3669 1.408 . S
C3666 C3664 1.363 . S
C3666 C3667 1.370 . S
C3666 C3670 1.538 . S
C3667 C3659 1.503 1_556 S
C3667 C3666 1.370 . S
C3667 C3668 1.403 . S
C3668 C3667 1.403 . S
C3668 C3669 1.404 . S
C3668 C3671 1.539 . S
C3669 C3665 1.408 . S
C3669 C3668 1.404 . S
C3669 H3681 0.930 . S
C3670 C3666 1.538 . S
C3670 H3682 0.938 1_556 S
C3670 H3683 0.957 1_556 S
C3670 H3684 0.970 . S
C3671 C3668 1.539 . S
C3671 H3685 0.958 . S
C3671 H3686 0.961 . S
C3671 H3687 0.960 . S
H3672 C3656 0.931 . S
H3673 C3661 0.929 . S
H3674 C3662 0.960 . S
H3675 C3662 0.962 . S
H3676 C3662 0.960 . S
H3677 C3663 0.961 . S
H3678 C3663 0.961 . S
H3679 C3663 0.961 . S
H3680 C3664 0.931 . S
H3681 C3669 0.930 . S
H3682 C3670 0.938 1_554 S
H3683 C3670 0.957 1_554 S
H3684 C3670 0.970 . S
H3685 C3671 0.958 . S
H3686 C3671 0.961 . S
H3687 C3671 0.960 . S
C3688 C3689 1.391 . S
C3688 C3690 1.394 . S
C3688 H3704 0.931 . S
C3689 C3688 1.391 . S
C3689 C3693 1.376 . S
C3690 C3688 1.394 . S
C3690 C3691 1.369 . S
C3690 C3694 1.531 . S
C3691 C3690 1.369 . S
C3691 C3692 1.410 . S
C3691 C3699 1.503 . S
C3692 C3691 1.410 . S
C3692 C3693 1.392 . S
C3692 C3695 1.511 . S
C3693 C3689 1.376 . S
C3693 C3692 1.392 . S
C3693 H3705 0.929 . S
C3694 C3690 1.531 . S
C3694 H3706 0.960 . S
C3694 H3707 0.962 . S
C3694 H3708 0.960 . S
C3695 C3692 1.511 . S
C3695 H3709 0.961 . S
C3695 H3710 0.961 . S
C3695 H3711 0.961 . S
C3696 C3697 1.370 . S
C3696 C3698 1.363 . S
C3696 H3712 0.931 . S
C3697 C3696 1.370 . S
C3697 C3701 1.408 . S
C3698 C3696 1.363 . S
C3698 C3699 1.370 . S
C3698 C3702 1.524 . S
C3699 C3691 1.503 . S
C3699 C3698 1.370 . S
C3699 C3700 1.403 . S
C3700 C3699 1.403 . S
C3700 C3701 1.404 . S
C3700 C3703 1.539 . S
C3701 C3697 1.408 . S
C3701 C3700 1.404 . S
C3701 H3713 0.930 . S
C3702 C3698 1.524 . S
C3702 H3714 0.956 . S
C3702 H3715 0.961 . S
C3702 H3716 0.961 . S
C3703 C3700 1.539 . S
C3703 H3717 0.958 . S
C3703 H3718 0.961 . S
C3703 H3719 0.960 . S
H3704 C3688 0.931 . S
H3705 C3693 0.929 . S
H3706 C3694 0.960 . S
H3707 C3694 0.962 . S
H3708 C3694 0.960 . S
H3709 C3695 0.961 . S
H3710 C3695 0.961 . S
H3711 C3695 0.961 . S
H3712 C3696 0.931 . S
H3713 C3701 0.930 . S
H3714 C3702 0.956 . S
H3715 C3702 0.961 . S
H3716 C3702 0.961 . S
H3717 C3703 0.958 . S
H3718 C3703 0.961 . S
H3719 C3703 0.960 . S
C3720 C3721 1.391 . S
C3720 C3722 1.394 . S
C3720 H3736 0.931 . S
C3721 C3720 1.391 . S
C3721 C3725 1.376 . S
C3722 C3720 1.394 . S
C3722 C3723 1.369 . S
C3722 C3726 1.531 . S
C3723 C3722 1.369 . S
C3723 C3724 1.410 . S
C3723 C3731 1.503 . S
C3724 C3723 1.410 . S
C3724 C3725 1.392 . S
C3724 C3727 1.511 . S
C3725 C3721 1.376 . S
C3725 C3724 1.392 . S
C3725 H3737 0.929 . S
C3726 C3722 1.531 . S
C3726 H3738 0.960 . S
C3726 H3739 0.962 . S
C3726 H3740 0.960 . S
C3727 C3724 1.511 . S
C3727 H3741 0.961 . S
C3727 H3742 0.961 . S
C3727 H3743 0.961 . S
C3728 C3729 1.370 . S
C3728 C3730 1.363 . S
C3728 H3744 0.931 . S
C3729 C3728 1.370 . S
C3729 C3733 1.408 . S
C3730 C3728 1.363 . S
C3730 C3731 1.370 . S
C3730 C3734 1.524 . S
C3731 C3723 1.503 . S
C3731 C3730 1.370 . S
C3731 C3732 1.403 . S
C3732 C3731 1.403 . S
C3732 C3733 1.404 . S
C3732 C3735 1.539 . S
C3733 C3729 1.408 . S
C3733 C3732 1.404 . S
C3733 H3745 0.930 . S
C3734 C3730 1.524 . S
C3734 H3746 0.956 . S
C3734 H3747 0.961 . S
C3734 H3748 0.961 . S
C3735 C3732 1.539 . S
C3735 H3749 0.958 . S
C3735 H3750 0.961 . S
C3735 H3751 0.960 . S
H3736 C3720 0.931 . S
H3737 C3725 0.929 . S
H3738 C3726 0.960 . S
H3739 C3726 0.962 . S
H3740 C3726 0.960 . S
H3741 C3727 0.961 . S
H3742 C3727 0.961 . S
H3743 C3727 0.961 . S
H3744 C3728 0.931 . S
H3745 C3733 0.930 . S
H3746 C3734 0.956 . S
H3747 C3734 0.961 . S
H3748 C3734 0.961 . S
H3749 C3735 0.958 . S
H3750 C3735 0.961 . S
H3751 C3735 0.960 . S
C3752 C3753 1.391 . S
C3752 C3754 1.394 . S
C3752 H3768 0.931 . S
C3753 C3752 1.391 . S
C3753 C3757 1.376 . S
C3754 C3752 1.394 . S
C3754 C3755 1.369 . S
C3754 C3758 1.531 . S
C3755 C3754 1.369 . S
C3755 C3756 1.410 . S
C3755 C3763 1.503 . S
C3756 C3755 1.410 . S
C3756 C3757 1.392 . S
C3756 C3759 1.511 . S
C3757 C3753 1.376 . S
C3757 C3756 1.392 . S
C3757 H3769 0.929 . S
C3758 C3754 1.531 . S
C3758 H3770 0.960 . S
C3758 H3771 0.962 . S
C3758 H3772 0.960 . S
C3759 C3756 1.511 . S
C3759 H3773 0.961 . S
C3759 H3774 0.961 . S
C3759 H3775 0.961 . S
C3760 C3761 1.370 . S
C3760 C3762 1.363 . S
C3760 H3776 0.931 . S
C3761 C3760 1.370 . S
C3761 C3765 1.408 . S
C3762 C3760 1.363 . S
C3762 C3763 1.370 . S
C3762 C3766 1.524 . S
C3763 C3755 1.503 . S
C3763 C3762 1.370 . S
C3763 C3764 1.403 . S
C3764 C3763 1.403 . S
C3764 C3765 1.404 . S
C3764 C3767 1.539 . S
C3765 C3761 1.408 . S
C3765 C3764 1.404 . S
C3765 H3777 0.930 . S
C3766 C3762 1.524 . S
C3766 H3778 0.956 . S
C3766 H3779 0.961 . S
C3766 H3780 0.961 . S
C3767 C3764 1.539 . S
C3767 H3781 0.958 . S
C3767 H3782 0.961 . S
C3767 H3783 0.960 . S
H3768 C3752 0.931 . S
H3769 C3757 0.929 . S
H3770 C3758 0.960 . S
H3771 C3758 0.962 . S
H3772 C3758 0.960 . S
H3773 C3759 0.961 . S
H3774 C3759 0.961 . S
H3775 C3759 0.961 . S
H3776 C3760 0.931 . S
H3777 C3765 0.930 . S
H3778 C3766 0.956 . S
H3779 C3766 0.961 . S
H3780 C3766 0.961 . S
H3781 C3767 0.958 . S
H3782 C3767 0.961 . S
H3783 C3767 0.960 . S
C3784 C3785 1.391 . S
C3784 C3786 1.394 . S
C3784 H3800 0.931 . S
C3785 C3784 1.391 . S
C3785 C3789 1.376 . S
C3786 C3784 1.394 . S
C3786 C3787 1.369 . S
C3786 C3790 1.531 . S
C3787 C3786 1.369 . S
C3787 C3788 1.410 . S
C3787 C3795 1.503 . S
C3788 C3787 1.410 . S
C3788 C3789 1.392 . S
C3788 C3791 1.511 . S
C3789 C3785 1.376 . S
C3789 C3788 1.392 . S
C3789 H3801 0.929 . S
C3790 C3786 1.531 . S
C3790 H3802 0.960 . S
C3790 H3803 0.962 . S
C3790 H3804 0.960 . S
C3791 C3788 1.511 . S
C3791 H3805 0.961 . S
C3791 H3806 0.961 . S
C3791 H3807 0.961 . S
C3792 C3793 1.370 . S
C3792 C3794 1.363 . S
C3792 H3808 0.931 . S
C3793 C3792 1.370 . S
C3793 C3797 1.408 . S
C3794 C3792 1.363 . S
C3794 C3795 1.370 . S
C3794 C3798 1.524 . S
C3795 C3787 1.503 . S
C3795 C3794 1.370 . S
C3795 C3796 1.403 . S
C3796 C3795 1.403 . S
C3796 C3797 1.404 . S
C3796 C3799 1.539 . S
C3797 C3793 1.408 . S
C3797 C3796 1.404 . S
C3797 H3809 0.930 . S
C3798 C3794 1.524 . S
C3798 H3810 0.956 . S
C3798 H3811 0.961 . S
C3798 H3812 0.961 . S
C3799 C3796 1.539 . S
C3799 H3813 0.958 . S
C3799 H3814 0.961 . S
C3799 H3815 0.960 . S
H3800 C3784 0.931 . S
H3801 C3789 0.929 . S
H3802 C3790 0.960 . S
H3803 C3790 0.962 . S
H3804 C3790 0.960 . S
H3805 C3791 0.961 . S
H3806 C3791 0.961 . S
H3807 C3791 0.961 . S
H3808 C3792 0.931 . S
H3809 C3797 0.930 . S
H3810 C3798 0.956 . S
H3811 C3798 0.961 . S
H3812 C3798 0.961 . S
H3813 C3799 0.958 . S
H3814 C3799 0.961 . S
H3815 C3799 0.960 . S
C745 C1 1.049 . S
C753 C277 0.978 . S
C777 C51 0.968 . S
C785 C308 1.030 . S
C809 C339 1.048 . S
C817 C82 1.011 . S
C841 C370 0.993 . S
C849 C113 0.979 . S
C873 C144 1.042 . S
C881 C343 0.976 . S
C905 C175 1.030 . S
C913 C250 1.020 . S
C937 C187 0.999 . S
C945 C281 0.978 . S
C969 C312 1.034 . S
C977 C218 0.975 . S
C1001 C374 1.030 . S
C1009 C268 1.020 . S
C1033 C299 0.990 . S
C1041 C498 1.029 . S
C1065 C330 0.938 . S
C1073 C436 1.006 . S
C1097 C467 0.953 . S
C1105 C361 1.027 . S
C1129 C342 0.952 . S
C1137 C618 0.995 . S
C1161 C556 0.971 . S
C1169 C249 0.986 . S
C1193 C280 0.948 . S
C1201 C560 1.027 . S
C1225 C432 1.049 . S
C1233 C311 1.011 . S
C1257 C373 1.062 . S
C1265 C2 0.984 . S
C1289 C237 0.951 . S
C1297 C529 1.027 . S
C1321 C587 0.959 . S
C1329 C125 0.991 . S
C1353 C405 1.037 . S
C1361 C156 0.975 . S
C1385 C219 1.001 . S
C1393 C423 1.027 . S
C1417 C91 0.937 . S
C1425 C435 1.007 . S
C1449 C463 1.011 . S
C1457 C20 0.976 . S
C1481 C401 0.955 . S
C1489 C63 0.993 . S
C1513 C485 0.947 . S
C1521 C649 0.998 . S
C1545 C392 1.033 . S
C1553 C680 0.975 . S
C1577 C684 1.010 . S
C1585 C516 1.025 . S
C1609 C454 1.004 . S
C1617 C742 1.027 . S
C1641 C715 0.993 . S
C1649 C528 1.028 . S
C1673 C622 1.059 . S
C1681 C578 0.981 . S
C1705 C404 0.939 . S
C1713 C653 1.022 . S
C1737 C711 0.964 . S
C1745 C590 0.989 . S
C1769 C33 1.033 . S
C1777 C640 1.019 . S
C1801 C671 1.010 . S
C1809 C64 0.977 . S
C1833 C95 0.984 . S
C1841 C683 0.982 . S
C1865 C29 1.034 . S
C1873 C733 1.018 . S
C1897 C714 0.941 . S
C1905 C246 1.023 . S
C1929 C621 1.042 . S
C1937 C126 1.015 . S
C1961 C652 0.937 . S
C1969 C157 1.020 . S
C1993 C702 0.953 . S
C2001 C215 0.994 . S
C2025 C32 0.984 . S
C2033 C494 0.982 . S
C2057 C153 0.986 . S
C2065 C609 1.029 . S
C2089 C547 0.938 . S
C2097 C184 1.006 . S
C2121 C188 1.065 . S
C2129 C559 0.994 . S
C2153 C206 1.064 . S
C2161 C591 0.988 . S
C2185 C94 1.037 . S
C2193 C525 1.017 . S
C2217 C466 1.022 . S
C2225 C122 0.975 . S
C2249 C497 1.058 . S
C2257 C60 0.981 . S
C2281 C0 2.659 . S
C2289 C298 2.673 . S
C2313 C329 2.658 . S
C2321 C50 2.676 . S
C2345 C360 2.675 . S
C2353 C81 2.671 . S
C2377 C267 2.677 . S
C2385 C112 2.670 . S
C2409 C310 2.658 . S
C2417 C143 2.673 . S
C2441 C341 2.658 . S
C2449 C174 2.676 . S
C2473 C248 2.656 . S
C2481 C186 2.676 . S
C2505 C217 2.669 . S
C2513 C279 2.669 . S
C2537 C124 2.673 . S
C2545 C372 2.668 . S
C2569 C236 2.673 . S
C2577 C465 2.668 . S
C2601 C496 2.670 . S
C2609 C155 2.668 . S
C2633 C422 2.676 . S
C2641 C93 2.668 . S
C2665 C205 2.666 . S
C2673 C434 2.669 . S
C2697 C19 2.675 . S
C2705 C608 2.668 . S
C2729 C558 2.656 . S
C2737 C62 2.676 . S
C2761 C670 2.668 . S
C2769 C484 2.674 . S
C2793 C682 2.661 . S
C2801 C391 2.676 . S
C2825 C515 2.673 . S
C2833 C732 2.672 . S
C2857 C639 2.668 . S
C2865 C453 2.669 . S
C2889 C701 2.676 . S
C2897 C527 2.670 . S
C2921 C713 2.673 . S
C2929 C577 2.672 . S
C2953 C403 2.658 . S
C2961 C620 2.673 . S
C2985 C651 2.670 . S
C2993 C589 2.668 . S
C3017 C31 2.677 . S
C3025 C546 2.669 . S
C3049 C154 1.315 . S
C3057 C10 1.354 . S
C3081 C185 1.350 . S
C3089 C61 1.342 . S
C3113 C196 1.306 . S
C3121 C92 1.354 . S
C3145 C227 1.364 . S
C3153 C123 1.328 . S
C3177 C289 1.317 . S
C3185 C278 1.345 . S
C3209 C320 1.313 . S
C3217 C309 1.354 . S
C3241 C340 1.346 . S
C3249 C351 1.333 . S
C3273 C258 1.364 . S
C3281 C371 1.334 . S
C3305 C382 1.361 . S
C3313 C103 1.329 . S
C3337 C247 1.352 . S
C3345 C568 1.340 . S
C3369 C433 1.369 . S
C3377 C134 1.329 . S
C3401 C165 1.357 . S
C3409 C619 1.338 . S
C3433 C41 1.339 . S
C3441 C444 1.336 . S
C3465 C30 1.327 . S
C3473 C506 1.341 . S
C3497 C72 1.345 . S
C3505 C475 1.334 . S
C3529 C537 1.321 . S
C3537 C495 1.352 . S
C3561 C402 1.307 . S
C3569 C588 1.352 . S
C3593 C413 1.359 . S
C3601 C526 1.337 . S
C3625 C464 1.337 . S
C3633 C599 1.337 . S
C3657 C661 1.318 . S
C3665 C650 1.345 . S
C3689 C712 1.349 . S
C3697 C681 1.332 . S
C3721 C723 1.356 . S
C3729 C692 1.339 . S
C3753 C743 1.315 . S
C3761 C630 1.346 . S
C3785 C216 1.360 . S
C3793 C557 1.337 . S
