# Generated by pormake.
# Topology vbf, (5)-cn, num edge types: 1
# Building blocks:
#     Node 0, Type 0, BuildingBlock: BEQFEK_clean_sbu_0, # of connection points: 5
#     Node 1, Type 0, BuildingBlock: BEQFEK_clean_sbu_0, # of connection points: 5
#     Node 2, Type 0, BuildingBlock: BEQFEK_clean_sbu_0, # of connection points: 5
#     Node 3, Type 0, BuildingBlock: BEQFEK_clean_sbu_0, # of connection points: 5
#     Node 4, Type 0, BuildingBlock: BEQFEK_clean_sbu_0, # of connection points: 5
#     Node 5, Type 0, BuildingBlock: BEQFEK_clean_sbu_0, # of connection points: 5
#     Node 6, Type 0, BuildingBlock: BEQFEK_clean_sbu_0, # of connection points: 5
#     Node 7, Type 0, BuildingBlock: BEQFEK_clean_sbu_0, # of connection points: 5
#     Node 8, Type 0, BuildingBlock: BEQFEK_clean_sbu_0, # of connection points: 5
#     Node 9, Type 0, BuildingBlock: BEQFEK_clean_sbu_0, # of connection points: 5
#     Node 10, Type 0, BuildingBlock: BEQFEK_clean_sbu_0, # of connection points: 5
#     Node 11, Type 0, BuildingBlock: BEQFEK_clean_sbu_0, # of connection points: 5
#     Node 12, Type 0, BuildingBlock: BEQFEK_clean_sbu_0, # of connection points: 5
#     Node 13, Type 0, BuildingBlock: BEQFEK_clean_sbu_0, # of connection points: 5
#     Node 14, Type 0, BuildingBlock: BEQFEK_clean_sbu_0, # of connection points: 5
#     Node 15, Type 0, BuildingBlock: BEQFEK_clean_sbu_0, # of connection points: 5
#     Edge 16, Type (0, 0), BuildingBlock: AJUNOK_clean_linker_0, # of connection points: 2
#     Edge 17, Type (0, 0), BuildingBlock: AJUNOK_clean_linker_0, # of connection points: 2
#     Edge 18, Type (0, 0), BuildingBlock: AJUNOK_clean_linker_0, # of connection points: 2
#     Edge 19, Type (0, 0), BuildingBlock: AJUNOK_clean_linker_0, # of connection points: 2
#     Edge 20, Type (0, 0), BuildingBlock: AJUNOK_clean_linker_0, # of connection points: 2
#     Edge 21, Type (0, 0), BuildingBlock: AJUNOK_clean_linker_0, # of connection points: 2
#     Edge 22, Type (0, 0), BuildingBlock: AJUNOK_clean_linker_0, # of connection points: 2
#     Edge 23, Type (0, 0), BuildingBlock: AJUNOK_clean_linker_0, # of connection points: 2
#     Edge 24, Type (0, 0), BuildingBlock: AJUNOK_clean_linker_0, # of connection points: 2
#     Edge 25, Type (0, 0), BuildingBlock: AJUNOK_clean_linker_0, # of connection points: 2
#     Edge 26, Type (0, 0), BuildingBlock: AJUNOK_clean_linker_0, # of connection points: 2
#     Edge 27, Type (0, 0), BuildingBlock: AJUNOK_clean_linker_0, # of connection points: 2
#     Edge 28, Type (0, 0), BuildingBlock: AJUNOK_clean_linker_0, # of connection points: 2
#     Edge 29, Type (0, 0), BuildingBlock: AJUNOK_clean_linker_0, # of connection points: 2
#     Edge 30, Type (0, 0), BuildingBlock: AJUNOK_clean_linker_0, # of connection points: 2
#     Edge 31, Type (0, 0), BuildingBlock: AJUNOK_clean_linker_0, # of connection points: 2
#     Edge 32, Type (0, 0), BuildingBlock: AJUNOK_clean_linker_0, # of connection points: 2
#     Edge 33, Type (0, 0), BuildingBlock: AJUNOK_clean_linker_0, # of connection points: 2
#     Edge 34, Type (0, 0), BuildingBlock: AJUNOK_clean_linker_0, # of connection points: 2
#     Edge 35, Type (0, 0), BuildingBlock: AJUNOK_clean_linker_0, # of connection points: 2
#     Edge 36, Type (0, 0), BuildingBlock: AJUNOK_clean_linker_0, # of connection points: 2
#     Edge 37, Type (0, 0), BuildingBlock: AJUNOK_clean_linker_0, # of connection points: 2
#     Edge 38, Type (0, 0), BuildingBlock: AJUNOK_clean_linker_0, # of connection points: 2
#     Edge 39, Type (0, 0), BuildingBlock: AJUNOK_clean_linker_0, # of connection points: 2
#     Edge 40, Type (0, 0), BuildingBlock: AJUNOK_clean_linker_0, # of connection points: 2
#     Edge 41, Type (0, 0), BuildingBlock: AJUNOK_clean_linker_0, # of connection points: 2
#     Edge 42, Type (0, 0), BuildingBlock: AJUNOK_clean_linker_0, # of connection points: 2
#     Edge 43, Type (0, 0), BuildingBlock: AJUNOK_clean_linker_0, # of connection points: 2
#     Edge 44, Type (0, 0), BuildingBlock: AJUNOK_clean_linker_0, # of connection points: 2
#     Edge 45, Type (0, 0), BuildingBlock: AJUNOK_clean_linker_0, # of connection points: 2
#     Edge 46, Type (0, 0), BuildingBlock: AJUNOK_clean_linker_0, # of connection points: 2
#     Edge 47, Type (0, 0), BuildingBlock: AJUNOK_clean_linker_0, # of connection points: 2
#     Edge 48, Type (0, 0), BuildingBlock: AJUNOK_clean_linker_0, # of connection points: 2
#     Edge 49, Type (0, 0), BuildingBlock: AJUNOK_clean_linker_0, # of connection points: 2
#     Edge 50, Type (0, 0), BuildingBlock: AJUNOK_clean_linker_0, # of connection points: 2
#     Edge 51, Type (0, 0), BuildingBlock: AJUNOK_clean_linker_0, # of connection points: 2
#     Edge 52, Type (0, 0), BuildingBlock: AJUNOK_clean_linker_0, # of connection points: 2
#     Edge 53, Type (0, 0), BuildingBlock: AJUNOK_clean_linker_0, # of connection points: 2
#     Edge 54, Type (0, 0), BuildingBlock: AJUNOK_clean_linker_0, # of connection points: 2
#     Edge 55, Type (0, 0), BuildingBlock: AJUNOK_clean_linker_0, # of connection points: 2
# Relax obj value: 0.048
# Max RMSD: 0.099
# Mean RMSD: 0.099
data_MOF--net-vbf--node1-BEQFEK_clean_sbu_0--edge1-AJUNOK_clean_linker_0
_symmetry_space_group_name_H-M    P1
_symmetry_Int_Tables_number       1
_symmetry_cell_setting            triclinic
loop_
_symmetry_equiv_pos_as_xyz
'x, y, z'
_cell_length_a     28.367825
_cell_length_b     65.432132
_cell_length_c     22.443715
_cell_angle_alpha  90.089186
_cell_angle_beta   90.004117
_cell_angle_gamma 90.031623
loop_
_atom_site_label
_atom_site_type_symbol
_atom_site_fract_x
_atom_site_fract_y
_atom_site_fract_z
_atom_type_partial_charge
Co0 Co 0.12701 0.31999 0.95942 0.0
Co1 Co 0.06437 0.28792 0.02782 0.0
C2 C 0.17047 0.28428 0.02013 0.0
O3 O 0.17494 0.30087 0.99111 0.0
O4 O 0.13007 0.27786 0.0362 0.0
C5 C 0.20031 0.34954 0.9369 0.0
O6 O 0.22347 0.33915 0.97747 0.0
C7 C 0.03273 0.26784 0.13825 0.0
C8 C 0.96795 0.25212 0.10874 0.0
C9 C 0.99634 0.25537 0.15819 0.0
N10 N 0.02593 0.2718 0.07996 0.0
N11 N 0.98713 0.26232 0.06266 0.0
C12 C 0.07444 0.27514 0.1732 0.0
H13 H 0.10309 0.28027 0.14326 0.0
H14 H 0.06399 0.28831 0.20137 0.0
H15 H 0.08739 0.26283 0.20297 0.0
C16 C 0.07538 0.34836 0.03827 0.0
N17 N 0.08602 0.3293 0.01998 0.0
N18 N 0.05881 0.31613 0.04792 0.0
C19 C 0.02951 0.32651 0.08446 0.0
C20 C 0.03932 0.34721 0.07968 0.0
C21 C 0.09878 0.36731 1.01559 0.0
H22 H 0.09168 0.36887 0.96721 0.0
H23 H 0.13741 0.36601 0.02191 0.0
H24 H 0.08612 0.38119 0.03912 0.0
O25 O 0.09056 0.30579 0.89596 0.0
O26 O 0.04526 0.28327 0.94309 0.0
H27 H 0.97252 0.30507 0.09144 0.0
H28 H 0.96299 0.32879 0.13109 0.0
C29 C 0.98964 0.31715 0.11852 0.0
H30 H 0.00351 0.31014 0.15985 0.0
H31 H 0.97378 0.2628 0.01936 0.0
O32 O 0.15911 0.34377 0.92224 0.0
C33 C 0.05975 0.29158 0.895 0.0
Co34 Co 0.8801 0.69788 0.95966 0.0
Co35 Co 0.94367 0.73002 0.02664 0.0
C36 C 0.83762 0.73415 0.01839 0.0
O37 O 0.83275 0.71736 0.99038 0.0
O38 O 0.87816 0.74053 0.03416 0.0
C39 C 0.80702 0.66807 0.93886 0.0
O40 O 0.78517 0.6777 0.98222 0.0
C41 C 0.97272 0.75177 0.13522 0.0
C42 C 0.0449 0.76189 0.11317 0.0
C43 C 0.01187 0.76169 0.15868 0.0
N44 N 0.98262 0.74598 0.07899 0.0
N45 N 0.02569 0.75225 0.06593 0.0
C46 C 0.92584 0.74849 0.16433 0.0
H47 H 0.9181 0.73188 0.1663 0.0
H48 H 0.9244 0.75524 0.20963 0.0
H49 H 0.898 0.75574 0.13691 0.0
C50 C 0.93064 0.66958 0.03932 0.0
N51 N 0.92058 0.68861 0.02045 0.0
N52 N 0.94796 0.7018 0.04817 0.0
C53 C 0.97662 0.69144 0.08552 0.0
C54 C 0.96642 0.67072 0.08116 0.0
C55 C 0.90934 0.65057 1.01364 0.0
H56 H 0.9133 0.65074 0.96448 0.0
H57 H 0.87116 0.65023 0.02416 0.0
H58 H 0.92616 0.63655 0.03143 0.0
O59 O 0.91724 0.71141 0.89646 0.0
O60 O 0.96369 0.73401 0.94164 0.0
H61 H 0.03713 0.71065 0.09625 0.0
H62 H 0.03455 0.68957 0.1484 0.0
C63 C 0.01346 0.70113 0.12406 0.0
H64 H 0.99611 0.71118 0.15719 0.0
H65 H 0.04227 0.74963 0.02512 0.0
O66 O 0.84733 0.67435 0.92236 0.0
C67 C 0.94891 0.72521 0.89431 0.0
Co68 Co 0.13027 0.5703 0.20834 0.0
Co69 Co 0.19306 0.53836 0.27678 0.0
C70 C 0.08712 0.53436 0.26831 0.0
O71 O 0.08249 0.55102 0.23966 0.0
O72 O 0.12752 0.52803 0.28452 0.0
C73 C 0.05698 0.59991 0.18741 0.0
O74 O 0.03481 0.58979 0.22946 0.0
C75 C 0.2243 0.51832 0.38729 0.0
C76 C 0.28904 0.50251 0.35817 0.0
C77 C 0.26045 0.50578 0.40742 0.0
N78 N 0.23137 0.52228 0.32907 0.0
N79 N 0.27016 0.51276 0.31199 0.0
C80 C 0.18248 0.52564 0.42196 0.0
H81 H 0.15422 0.53103 0.39183 0.0
H82 H 0.19302 0.53861 0.45084 0.0
H83 H 0.16898 0.51323 0.45104 0.0
C84 C 0.1817 0.59879 0.2873 0.0
N85 N 0.17108 0.57971 0.26905 0.0
N86 N 0.19825 0.56657 0.29713 0.0
C87 C 0.22744 0.57699 0.33379 0.0
C88 C 0.21762 0.59768 0.32893 0.0
C89 C 0.15848 0.61773 0.2643 0.0
H90 H 0.11992 0.61663 0.2716 0.0
H91 H 0.17182 0.63167 0.2869 0.0
H92 H 0.16485 0.619 0.21568 0.0
O93 O 0.16699 0.55622 0.1449 0.0
O94 O 0.21251 0.53383 0.19216 0.0
H95 H 0.2938 0.57933 0.38079 0.0
H96 H 0.25328 0.56061 0.40924 0.0
C97 C 0.26724 0.56766 0.36802 0.0
H98 H 0.28451 0.55562 0.34096 0.0
H99 H 0.28367 0.51322 0.26877 0.0
O100 O 0.09771 0.59398 0.17131 0.0
C101 C 0.19799 0.5421 0.14403 0.0
Co102 Co 0.87688 0.44759 0.20761 0.0
Co103 Co 0.81448 0.47983 0.27544 0.0
C104 C 0.92033 0.48336 0.26838 0.0
O105 O 0.92433 0.46663 0.23993 0.0
O106 O 0.88012 0.49025 0.28358 0.0
C107 C 0.94518 0.41557 0.194 0.0
O108 O 0.9583 0.42118 0.24774 0.0
C109 C 0.78562 0.50178 0.38375 0.0
C110 C 0.71288 0.51126 0.36237 0.0
C111 C 0.74627 0.51145 0.40746 0.0
N112 N 0.77551 0.49575 0.32779 0.0
N113 N 0.73211 0.50165 0.31511 0.0
C114 C 0.83285 0.49896 0.41236 0.0
H115 H 0.86005 0.50666 0.38493 0.0
H116 H 0.84167 0.48244 0.41368 0.0
H117 H 0.83415 0.50555 0.45786 0.0
C118 C 0.82472 0.41911 0.28586 0.0
N119 N 0.83575 0.43812 0.26755 0.0
N120 N 0.80958 0.45148 0.29649 0.0
C121 C 0.78115 0.44125 0.33448 0.0
C122 C 0.79003 0.42046 0.32901 0.0
C123 C 0.84379 0.39991 0.25871 0.0
H124 H 0.84561 0.40151 0.20961 0.0
H125 H 0.87984 0.39717 0.276 0.0
H126 H 0.82155 0.38648 0.26975 0.0
O127 O 0.8404 0.46145 0.14472 0.0
O128 O 0.79447 0.48408 0.1904 0.0
H129 H 0.72138 0.46058 0.34867 0.0
H130 H 0.7259 0.43969 0.40117 0.0
C131 C 0.7461 0.45113 0.37515 0.0
H132 H 0.7649 0.46125 0.40681 0.0
H133 H 0.7153 0.49876 0.2746 0.0
O134 O 0.91089 0.42469 0.16922 0.0
C135 C 0.80901 0.47534 0.14287 0.0
Co136 Co 0.12747 0.82043 0.45951 0.0
Co137 Co 0.06457 0.78843 0.5278 0.0
C138 C 0.17046 0.78444 0.51943 0.0
O139 O 0.17497 0.80107 0.4907 0.0
O140 O 0.13009 0.77808 0.53574 0.0
C141 C 0.20125 0.84973 0.44182 0.0
O142 O 0.22094 0.83983 0.48617 0.0
C143 C 0.03369 0.768 0.63806 0.0
C144 C 0.96787 0.7529 0.60949 0.0
C145 C 0.99716 0.75569 0.65833 0.0
N146 N 0.02613 0.77235 0.58016 0.0
N147 N 0.98671 0.76324 0.56341 0.0
C148 C 0.07613 0.77482 0.67246 0.0
H149 H 0.10419 0.78037 0.6423 0.0
H150 H 0.06633 0.78757 0.70257 0.0
H151 H 0.08961 0.76209 0.70032 0.0
C152 C 0.0761 0.8489 0.53848 0.0
N153 N 0.08669 0.82983 0.5202 0.0
N154 N 0.05918 0.81668 0.54776 0.0
C155 C 0.02949 0.8271 0.58371 0.0
C156 C 0.03959 0.8478 0.57929 0.0
C157 C 0.09774 0.86789 0.51336 0.0
H158 H 0.09433 0.86774 0.46412 0.0
H159 H 0.13582 0.8682 0.52453 0.0
H160 H 0.08079 0.88191 0.5311 0.0
O161 O 0.09068 0.80642 0.39594 0.0
O162 O 0.04539 0.78387 0.44307 0.0
H163 H 0.97118 0.80646 0.59214 0.0
H164 H 0.9666 0.82909 0.63842 0.0
C165 C 0.99111 0.81751 0.61993 0.0
H166 H 0.007 0.80911 0.65768 0.0
H167 H 0.97272 0.76404 0.52047 0.0
O168 O 0.16106 0.84397 0.42312 0.0
C169 C 0.05983 0.79222 0.395 0.0
Co170 Co 0.87915 0.19745 0.45973 0.0
Co171 Co 0.94201 0.22976 0.52688 0.0
C172 C 0.83601 0.23315 0.52096 0.0
O173 O 0.83183 0.21642 0.49253 0.0
O174 O 0.87632 0.24008 0.53569 0.0
C175 C 0.81066 0.16536 0.44627 0.0
O176 O 0.79724 0.1711 0.49978 0.0
C177 C 0.97158 0.25146 0.63537 0.0
C178 C 0.04373 0.26151 0.6129 0.0
C179 C 0.01091 0.2613 0.65865 0.0
N180 N 0.98119 0.24571 0.57903 0.0
N181 N 0.02423 0.25195 0.56571 0.0
C182 C 0.92479 0.24823 0.66478 0.0
H183 H 0.89694 0.25564 0.63775 0.0
H184 H 0.9168 0.23164 0.66639 0.0
H185 H 0.92367 0.25485 0.71025 0.0
C186 C 0.93187 0.16905 0.53745 0.0
N187 N 0.92066 0.18805 0.51929 0.0
N188 N 0.94722 0.20141 0.54767 0.0
C189 C 0.97621 0.1912 0.58498 0.0
C190 C 0.96716 0.17042 0.5798 0.0
C191 C 0.91234 0.14983 0.51086 0.0
H192 H 0.91062 0.15127 0.46171 0.0
H193 H 0.87617 0.14732 0.52811 0.0
H194 H 0.93419 0.13634 0.52234 0.0
O195 O 0.91529 0.21138 0.39649 0.0
O196 O 0.96148 0.23405 0.44169 0.0
H197 H 0.03592 0.21076 0.59717 0.0
H198 H 0.03339 0.1896 0.64897 0.0
C199 C 0.0122 0.20106 0.62439 0.0
H200 H 0.9941 0.21094 0.6573 0.0
H201 H 0.04063 0.24934 0.52478 0.0
O202 O 0.84509 0.17445 0.42164 0.0
C203 C 0.94665 0.2253 0.39431 0.0
Co204 Co 0.13036 0.06995 0.70705 0.0
Co205 Co 0.19296 0.0379 0.77539 0.0
C206 C 0.08689 0.03412 0.76689 0.0
O207 O 0.08239 0.05079 0.73829 0.0
O208 O 0.12725 0.02772 0.78302 0.0
C209 C 0.05771 0.09983 0.68699 0.0
O210 O 0.03589 0.08995 0.7298 0.0
C211 C 0.22342 0.01738 0.88572 0.0
C212 C 0.28926 1.0023 0.8573 0.0
C213 C 0.25986 1.00504 0.90604 0.0
N214 N 0.23113 0.02177 0.82786 0.0
N215 N 0.27056 0.01266 0.81122 0.0
C216 C 0.18091 0.02417 0.91998 0.0
H217 H 0.15293 0.02973 0.88974 0.0
H218 H 0.19066 0.0369 0.9502 0.0
H219 H 0.16733 0.01142 0.94771 0.0
C220 C 0.18136 0.09834 0.78677 0.0
N221 N 0.17108 0.07929 0.76792 0.0
N222 N 0.19855 0.06613 0.79546 0.0
C223 C 0.22792 0.07652 0.83195 0.0
C224 C 0.21759 0.09721 0.82795 0.0
C225 C 0.15964 0.11735 0.76201 0.0
H226 H 0.16407 0.11751 0.71293 0.0
H227 H 0.12136 0.11738 0.77201 0.0
H228 H 0.17586 0.13136 0.78095 0.0
O229 O 0.16695 0.05578 0.64368 0.0
O230 O 0.21227 0.03326 0.69077 0.0
H231 H 0.28599 0.05581 0.84088 0.0
H232 H 0.2907 0.07851 0.88681 0.0
C233 C 0.26611 0.06693 0.86843 0.0
H234 H 0.25005 0.05863 0.90626 0.0
H235 H 0.28466 0.0135 0.76834 0.0
O236 O 0.09798 0.09363 0.67 0.0
C237 C 0.19775 0.04157 0.64269 0.0
Co238 Co 0.87492 0.948 0.70669 0.0
Co239 Co 0.81355 0.98029 0.77627 0.0
C240 C 0.91952 0.9835 0.76765 0.0
O241 O 0.92307 0.96691 0.7384 0.0
O242 O 0.87957 0.99038 0.78394 0.0
C243 C 0.94681 0.91777 0.68767 0.0
O244 O 0.967 0.92688 0.7332 0.0
C245 C 0.78292 1.0008 0.8869 0.0
C246 C 0.71712 0.01586 0.85835 0.0
C247 C 0.74634 0.01309 0.90721 0.0
N248 N 0.77544 0.99646 0.82892 0.0
N249 N 0.73604 1.00555 0.81221 0.0
C250 C 0.82542 0.99407 0.92124 0.0
H251 H 0.85321 0.98826 0.89105 0.0
H252 H 0.81561 0.98158 0.95211 0.0
H253 H 0.83926 1.00695 0.94835 0.0
C254 C 0.82423 0.91971 0.78654 0.0
N255 N 0.83437 0.93872 0.76757 0.0
N256 N 0.80751 0.95196 0.79589 0.0
C257 C 0.77865 0.94162 0.8331 0.0
C258 C 0.78886 0.92091 0.82891 0.0
C259 C 0.84543 0.90065 0.76113 0.0
H260 H 0.84255 0.90095 0.71187 0.0
H261 H 0.88334 0.90004 0.77307 0.0
H262 H 0.82772 0.8867 0.77803 0.0
O263 O 0.83823 0.96227 0.64392 0.0
O264 O 0.79395 0.98504 0.69178 0.0
H265 H 0.72183 0.96286 0.84455 0.0
H266 H 0.71615 0.93982 0.88846 0.0
C267 C 0.7413 0.95129 0.87085 0.0
H268 H 0.75812 0.95904 0.90922 0.0
H269 H 0.72206 1.00473 0.76925 0.0
O270 O 0.90747 0.92445 0.66887 0.0
C271 C 0.8078 0.97662 0.64348 0.0
Co272 Co 0.62743 0.32016 0.45986 0.0
Co273 Co 0.56311 0.28765 0.52331 0.0
C274 C 0.66944 0.28412 0.51995 0.0
O275 O 0.67466 0.30087 0.49194 0.0
O276 O 0.62866 0.27765 0.53423 0.0
C277 C 0.70141 0.34965 0.43801 0.0
O278 O 0.72523 0.33887 0.47707 0.0
C279 C 0.52919 0.26815 0.63267 0.0
C280 C 0.46703 0.25099 0.60132 0.0
C281 C 0.49275 0.25555 0.65235 0.0
N282 N 0.52451 0.27099 0.57355 0.0
N283 N 0.48752 0.26053 0.55499 0.0
C284 C 0.56659 0.27837 0.66912 0.0
H285 H 0.58197 0.29148 0.64457 0.0
H286 H 0.55196 0.28369 0.7123 0.0
H287 H 0.59529 0.26728 0.6781 0.0
C288 C 0.57459 0.34801 0.53866 0.0
N289 N 0.58518 0.32908 0.51937 0.0
N290 N 0.55676 0.31579 0.54486 0.0
C291 C 0.52661 0.32604 0.5807 0.0
C292 C 0.53721 0.34671 0.5781 0.0
C293 C 0.5994 0.36701 0.51883 0.0
H294 H 0.63789 0.36513 0.52531 0.0
H295 H 0.58741 0.38065 0.54406 0.0
H296 H 0.59273 0.36942 0.47065 0.0
O297 O 0.59214 0.30652 0.39465 0.0
O298 O 0.54553 0.28355 0.4376 0.0
H299 H 0.45753 0.32813 0.62066 0.0
H300 H 0.49742 0.31064 0.65597 0.0
C301 C 0.48555 0.31664 0.61233 0.0
H302 H 0.47081 0.30388 0.58568 0.0
H303 H 0.47592 0.26012 0.51088 0.0
O304 O 0.65982 0.34415 0.42436 0.0
C305 C 0.56105 0.2925 0.391 0.0
Co306 Co 0.38059 0.69792 0.45797 0.0
Co307 Co 0.44367 0.73028 0.52464 0.0
C308 C 0.33739 0.73364 0.51827 0.0
O309 O 0.33309 0.71679 0.49051 0.0
O310 O 0.37776 0.74062 0.53253 0.0
C311 C 0.31186 0.66599 0.4437 0.0
O312 O 0.29795 0.67186 0.49688 0.0
C313 C 0.47452 0.75092 0.63518 0.0
C314 C 0.54085 0.76562 0.6069 0.0
C315 C 0.51139 0.76305 0.65566 0.0
N316 N 0.48208 0.74647 0.57726 0.0
N317 N 0.52181 0.75535 0.56072 0.0
C318 C 0.43189 0.74431 0.66948 0.0
H319 H 0.40358 0.73905 0.63922 0.0
H320 H 0.44126 0.7314 0.69912 0.0
H321 H 0.41894 0.75705 0.6978 0.0
C322 C 0.43312 0.66959 0.5362 0.0
N323 N 0.42204 0.68858 0.51777 0.0
N324 N 0.44929 0.70193 0.54516 0.0
C325 C 0.47905 0.6917 0.58146 0.0
C326 C 0.46932 0.67095 0.57731 0.0
C327 C 0.41252 0.65037 0.51098 0.0
H328 H 0.41119 0.65138 0.46172 0.0
H329 H 0.37609 0.64848 0.52798 0.0
H330 H 0.43341 0.63673 0.52374 0.0
O331 O 0.41683 0.71193 0.39476 0.0
O332 O 0.46334 0.73459 0.4395 0.0
H333 H 0.53703 0.71251 0.59018 0.0
H334 H 0.5416 0.69003 0.63684 0.0
C335 C 0.51705 0.70149 0.61793 0.0
H336 H 0.50081 0.70994 0.6554 0.0
H337 H 0.53595 0.75439 0.51789 0.0
O338 O 0.34677 0.6749 0.41956 0.0
C339 C 0.44827 0.72582 0.39226 0.0
Co340 Co 0.63021 0.5702 0.70753 0.0
Co341 Co 0.69305 0.53837 0.77623 0.0
C342 C 0.58697 0.53437 0.76759 0.0
O343 O 0.58226 0.55102 0.73891 0.0
O344 O 0.62742 0.52807 0.78375 0.0
C345 C 0.55814 0.60037 0.68692 0.0
O346 O 0.53648 0.591 0.73083 0.0
C347 C 0.72369 0.51802 0.88672 0.0
C348 C 0.78982 0.50313 0.85844 0.0
C349 C 0.76035 0.50583 0.90714 0.0
N350 N 0.73135 0.52238 0.82885 0.0
N351 N 0.77094 0.51339 0.81228 0.0
C352 C 0.68106 0.52469 0.92093 0.0
H353 H 0.6532 0.53036 0.89067 0.0
H354 H 0.69069 0.53729 0.95164 0.0
H355 H 0.66739 0.51183 0.94817 0.0
C356 C 0.68097 0.5988 0.78697 0.0
N357 N 0.67078 0.57972 0.76836 0.0
N358 N 0.69828 0.56663 0.79612 0.0
C359 C 0.72753 0.57709 0.83257 0.0
C360 C 0.71714 0.59776 0.82827 0.0
C361 C 0.65927 0.61777 0.76188 0.0
H362 H 0.66326 0.61775 0.71273 0.0
H363 H 0.62108 0.61792 0.77242 0.0
H364 H 0.67579 0.63181 0.78017 0.0
O365 O 0.6671 0.55604 0.64449 0.0
O366 O 0.71273 0.53371 0.69179 0.0
H367 H 0.78583 0.55652 0.84196 0.0
H368 H 0.78997 0.5792 0.88806 0.0
C369 C 0.76564 0.56758 0.86937 0.0
H370 H 0.74946 0.55922 0.90701 0.0
H371 H 0.78505 0.51425 0.76941 0.0
O372 O 0.59799 0.59376 0.66969 0.0
C373 C 0.69817 0.54195 0.64365 0.0
Co374 Co 0.37686 0.4475 0.708 0.0
Co375 Co 0.31445 0.47977 0.7759 0.0
C376 C 0.42037 0.48324 0.76883 0.0
O377 O 0.4244 0.46649 0.74048 0.0
O378 O 0.38015 0.49014 0.78396 0.0
C379 C 0.44441 0.41507 0.69419 0.0
O380 O 0.45725 0.42029 0.74836 0.0
C381 C 0.28552 0.5017 0.88436 0.0
C382 C 0.213 0.5114 0.86263 0.0
C383 C 0.24623 0.51147 0.90791 0.0
N384 N 0.27552 0.49572 0.82831 0.0
N385 N 0.23225 0.50175 0.81544 0.0
C386 C 0.33263 0.49874 0.9132 0.0
H387 H 0.36008 0.50621 0.88566 0.0
H388 H 0.34099 0.48219 0.91502 0.0
H389 H 0.33399 0.50547 0.95853 0.0
C390 C 0.32423 0.41903 0.78583 0.0
N391 N 0.33553 0.43804 0.76779 0.0
N392 N 0.30939 0.4514 0.79673 0.0
C393 C 0.28072 0.44118 0.83446 0.0
C394 C 0.28942 0.42039 0.82882 0.0
C395 C 0.34305 0.3998 0.75849 0.0
H396 H 0.34524 0.4015 0.70945 0.0
H397 H 0.37889 0.39685 0.77617 0.0
H398 H 0.32041 0.38645 0.769 0.0
O399 O 0.34051 0.46146 0.6452 0.0
O400 O 0.29452 0.48409 0.69086 0.0
H401 H 0.22105 0.4606 0.8483 0.0
H402 H 0.22507 0.43963 0.90058 0.0
C403 C 0.24552 0.45107 0.87491 0.0
H404 H 0.26423 0.46111 0.90685 0.0
H405 H 0.21554 0.49895 0.77482 0.0
O406 O 0.4107 0.42457 0.66932 0.0
C407 C 0.30915 0.47537 0.64333 0.0
Co408 Co 0.62714 0.82121 0.95957 0.0
Co409 Co 0.56454 0.78833 0.0247 0.0
C410 C 0.67081 0.78514 0.01784 0.0
O411 O 0.67489 0.80204 0.99043 0.0
O412 O 0.63054 0.77812 0.03232 0.0
C413 C 0.70019 0.85089 0.9419 0.0
O414 O 0.72022 0.841 0.98599 0.0
C415 C 0.53342 0.76805 0.135 0.0
C416 C 0.46889 0.75207 0.10588 0.0
C417 C 0.49727 0.75549 0.15526 0.0
N418 N 0.5265 0.77188 0.07665 0.0
N419 N 0.48784 0.76225 0.05958 0.0
C420 C 0.57497 0.77562 0.16979 0.0
H421 H 0.60356 0.78072 0.1397 0.0
H422 H 0.5643 0.78887 0.19749 0.0
H423 H 0.58811 0.76347 0.19999 0.0
C424 C 0.57555 0.84879 0.04054 0.0
N425 N 0.58609 0.82994 0.02048 0.0
N426 N 0.55876 0.81646 0.04698 0.0
C427 C 0.52934 0.82648 0.08428 0.0
C428 C 0.53941 0.84723 0.08176 0.0
C429 C 0.59959 0.86791 0.02015 0.0
H430 H 0.59391 0.86986 0.97158 0.0
H431 H 0.63801 0.86649 0.02806 0.0
H432 H 0.58651 0.88162 0.04407 0.0
O433 O 0.59082 0.8075 0.89538 0.0
O434 O 0.54504 0.78443 0.93941 0.0
H435 H 0.47264 0.80477 0.08856 0.0
H436 H 0.46171 0.82834 0.12838 0.0
C437 C 0.4889 0.81683 0.11656 0.0
H438 H 0.50187 0.80979 0.1583 0.0
H439 H 0.47436 0.76264 1.01633 0.0
O440 O 0.6599 0.84508 0.92369 0.0
C441 C 0.55973 0.79345 0.89245 0.0
Co442 Co 0.37905 0.19803 0.95809 0.0
Co443 Co 0.44406 0.23019 0.02285 0.0
C444 C 0.337 0.23331 0.02024 0.0
O445 O 0.33179 0.21631 0.99352 0.0
O446 O 0.37783 0.24035 0.03212 0.0
C447 C 0.30723 0.16759 0.93845 0.0
O448 O 0.28626 0.17663 0.98351 0.0
C449 C 0.47591 0.25049 0.13329 0.0
C450 C 0.54164 0.26553 0.10429 0.0
C451 C 0.51281 0.26266 0.15351 0.0
N452 N 0.48285 0.24632 0.07509 0.0
N453 N 0.52222 0.25539 0.05812 0.0
C454 C 0.43374 0.24361 0.16807 0.0
H455 H 0.40503 0.23859 0.13808 0.0
H456 H 0.44349 0.23047 0.19661 0.0
H457 H 0.42115 0.25613 0.19749 0.0
C458 C 0.43213 0.16972 0.03519 0.0
N459 N 0.42211 0.18871 1.016 0.0
N460 N 0.45026 0.20189 0.0425 0.0
C461 C 0.47989 0.19152 0.07865 0.0
C462 C 0.46882 0.17086 0.07575 0.0
C463 C 0.40904 0.15072 1.01206 0.0
H464 H 0.411 0.15051 0.96272 0.0
H465 H 0.37134 0.15074 0.02513 0.0
H466 H 0.42607 0.13669 0.02952 0.0
O467 O 0.41184 0.21334 0.89416 0.0
O468 O 0.46229 0.2348 0.93758 0.0
H469 H 0.53709 0.21275 0.08751 0.0
H470 H 0.54408 0.18963 0.13075 0.0
C471 C 0.51843 0.20113 0.11461 0.0
H472 H 0.50288 0.20881 0.15394 0.0
H473 H 0.53588 0.25465 1.015 0.0
O474 O 0.34663 0.17444 0.92036 0.0
C475 C 0.44363 0.22708 0.8909 0.0
Co476 Co 0.62852 0.07102 0.20885 0.0
Co477 Co 0.69055 0.03828 0.27541 0.0
C478 C 0.58452 0.03495 0.26719 0.0
O479 O 0.58062 0.05178 0.23933 0.0
O480 O 0.62467 0.02803 0.28248 0.0
C481 C 0.55601 0.10089 0.1907 0.0
O482 O 0.53602 0.09131 0.23542 0.0
C483 C 0.71999 0.01735 0.38493 0.0
C484 C 0.78955 1.00479 0.36026 0.0
C485 C 0.75827 1.0066 0.40743 0.0
N486 N 0.7288 0.02205 0.3276 0.0
N487 N 0.77029 0.01435 0.31302 0.0
C488 C 0.67472 0.02233 0.41604 0.0
H489 H 0.6716 0.03914 0.42123 0.0
H490 H 0.67236 0.01484 0.46024 0.0
H491 H 0.64461 0.01712 0.3885 0.0
C492 C 0.67999 0.0988 0.2893 0.0
N493 N 0.66912 0.07989 0.27005 0.0
N494 N 0.69575 0.06644 0.29776 0.0
C495 C 0.72468 0.07654 0.33555 0.0
C496 C 0.71544 0.09731 0.33144 0.0
C497 C 0.6575 0.11796 0.26665 0.0
H498 H 0.61903 0.11727 0.27503 0.0
H499 H 0.67194 0.13179 0.28877 0.0
H500 H 0.66308 0.11912 0.21784 0.0
O501 O 0.66545 0.05738 0.1454 0.0
O502 O 0.71079 0.0344 0.19044 0.0
H503 H 0.78273 0.05572 0.34238 0.0
H504 H 0.78863 0.07838 0.38798 0.0
C505 C 0.76346 0.06681 0.37068 0.0
H506 H 0.74806 0.0585 0.409 0.0
H507 H 0.78577 0.01588 0.27109 0.0
O508 O 0.596 0.09479 0.1723 0.0
C509 C 0.69664 0.04338 0.14319 0.0
Co510 Co 0.37653 0.94716 0.20737 0.0
Co511 Co 0.31249 0.97904 0.27442 0.0
C512 C 0.41821 0.98358 0.26689 0.0
O513 O 0.42332 0.96679 0.23897 0.0
O514 O 0.37757 0.98986 0.28237 0.0
C515 C 0.44486 0.91519 0.1977 0.0
O516 O 0.45615 0.92118 0.25174 0.0
C517 C 0.28353 1.0009 0.38266 0.0
C518 C 0.21099 0.01065 0.36124 0.0
C519 C 0.24436 0.01071 0.40636 0.0
N520 N 0.27335 0.99492 0.32668 0.0
N521 N 0.23006 1.00097 0.31397 0.0
C522 C 0.33077 0.99799 0.4112 0.0
H523 H 0.3399 0.9815 0.41129 0.0
H524 H 0.33193 1.0042 0.45715 0.0
H525 H 0.35784 1.00603 0.38441 0.0
C526 C 0.32527 0.91852 0.2867 0.0
N527 N 0.33551 0.93753 0.26761 0.0
N528 N 0.30866 0.95077 0.296 0.0
C529 C 0.28061 0.94049 0.33432 0.0
C530 C 0.29063 0.91979 0.32999 0.0
C531 C 0.34473 0.8993 0.26007 0.0
H532 H 0.34741 0.90086 0.21103 0.0
H533 H 0.38038 0.89646 0.27852 0.0
H534 H 0.32217 0.88591 0.2705 0.0
O535 O 0.33958 0.96062 0.14391 0.0
O536 O 0.2927 0.98299 0.18926 0.0
H537 H 0.22074 0.95989 0.3471 0.0
H538 H 0.2238 0.93876 0.39885 0.0
C539 C 0.24474 0.95026 0.37407 0.0
H540 H 0.26294 0.96018 0.40681 0.0
H541 H 0.21325 0.99818 0.27341 0.0
O542 O 0.41179 0.92429 0.17028 0.0
C543 C 0.30772 0.97432 0.14185 0.0
C544 C 0.26988 0.37224 0.91875 0.0
C545 C 0.22167 0.36805 0.90979 0.0
C546 C 0.29132 0.38941 0.89311 0.0
C547 C 0.26525 0.40316 0.85831 0.0
H548 H 0.29151 0.36205 0.94511 0.0
H549 H 0.32866 0.39191 0.90027 0.0
S550 S 0.13842 0.39951 0.82082 0.0
N551 N 0.14857 0.37938 0.86319 0.0
N552 N 0.18932 0.41162 0.81532 0.0
C553 C 0.21716 0.39936 0.8492 0.0
C554 C 0.19525 0.38181 0.87486 0.0
C555 C 0.73831 0.64455 0.92393 0.0
C556 C 0.78528 0.64984 0.91048 0.0
C557 C 0.71665 0.62755 0.89748 0.0
C558 C 0.7413 0.61511 0.8572 0.0
H559 H 0.71783 0.65371 0.95472 0.0
H560 H 0.68031 0.62411 0.90849 0.0
S561 S 0.86428 0.62205 0.80595 0.0
N562 N 0.85554 0.64099 0.85336 0.0
N563 N 0.81432 0.60911 0.8039 0.0
C564 C 0.78805 0.62006 0.84324 0.0
C565 C 0.81019 0.63741 0.86984 0.0
C566 C 0.96582 0.64016 0.14728 0.0
C567 C 0.99088 0.6534 0.10973 0.0
C568 C 0.98762 0.623 0.17249 0.0
C569 C 0.03519 0.61835 0.16049 0.0
H570 H 0.92899 0.64305 0.15695 0.0
H571 H 0.96676 0.61321 0.20106 0.0
S572 S 0.11572 0.64848 0.06383 0.0
N573 N 0.06516 0.66092 0.061 0.0
N574 N 0.10661 0.62876 0.10819 0.0
C575 C 0.0606 0.63163 0.12285 0.0
C576 C 0.03833 0.64914 0.09754 0.0
C577 C 0.01657 0.36714 0.16996 0.0
C578 C 0.01413 0.36436 0.10805 0.0
C579 C 0.99445 0.38386 0.19739 0.0
C580 C 0.96851 0.39814 0.16383 0.0
H581 H 0.03628 0.35648 0.19718 0.0
H582 H 0.99743 0.38549 0.24528 0.0
S583 S 0.95065 0.39697 0.99988 0.0
N584 N 0.98352 0.37672 1.01388 0.0
N585 N 0.94136 0.40805 0.065 0.0
C586 C 0.96531 0.39523 0.10176 0.0
C587 C 0.98828 0.37835 0.07395 0.0
C588 C 0.19841 0.88156 0.38001 0.0
C589 C 0.22467 0.86779 0.41506 0.0
C590 C 0.2197 0.89867 0.35378 0.0
C591 C 0.26798 0.90256 0.3614 0.0
H592 H 0.16108 0.87912 0.37271 0.0
H593 H 0.19846 0.90873 0.32644 0.0
S594 S 0.35266 0.87158 0.44841 0.0
N595 N 0.3019 0.85947 0.45585 0.0
N596 N 0.34154 0.89166 0.40622 0.0
C597 C 0.29463 0.8891 0.39634 0.0
C598 C 0.27305 0.87174 0.42337 0.0
C599 C 0.75989 0.13404 0.44931 0.0
C600 C 0.7873 0.14792 0.41608 0.0
C601 C 0.73747 0.11739 0.42181 0.0
C602 C 0.74117 0.11426 0.36015 0.0
H603 H 0.75587 0.13596 0.49698 0.0
H604 H 0.71654 0.10708 0.44874 0.0
S605 S 0.8088 0.14565 0.2529 0.0
N606 N 0.81722 0.157 0.31783 0.0
N607 N 0.77456 0.1258 0.26662 0.0
C608 C 0.76857 0.1278 0.32642 0.0
C609 C 0.79178 0.14462 0.35428 0.0
C610 C 0.9663 0.13976 0.6454 0.0
C611 C 0.99168 0.15322 0.60885 0.0
C612 C 0.98811 0.12266 0.67088 0.0
C613 C 0.03594 0.11824 0.65995 0.0
H614 H 0.92924 0.14245 0.65409 0.0
H615 H 0.96703 0.11269 0.69868 0.0
S616 S 0.11728 0.14892 0.5659 0.0
N617 N 0.06652 0.16118 0.56214 0.0
N618 N 0.10791 0.12904 0.60959 0.0
C619 C 0.06164 0.13171 0.6232 0.0
C620 C 0.03939 0.1492 0.59775 0.0
C621 C 0.01623 0.89463 0.674 0.0
C622 C 0.96929 0.89966 0.65965 0.0
C623 C 0.03862 0.87772 0.64806 0.0
C624 C 0.01473 0.86511 0.60744 0.0
H625 H 0.03613 0.90392 0.70509 0.0
H626 H 0.07491 0.87447 0.65977 0.0
S627 S 0.89208 0.87134 0.55417 0.0
N628 N 0.89986 0.8904 0.6015 0.0
N629 N 0.9424 0.85867 0.55301 0.0
C630 C 0.96801 0.86982 0.59261 0.0
C631 C 0.94515 0.88708 0.61867 0.0
C632 C 0.79226 0.38951 0.39344 0.0
C633 C 0.76603 0.40324 0.35877 0.0
C634 C 0.77092 0.37237 0.41938 0.0
C635 C 0.72265 0.3682 0.41091 0.0
H636 H 0.82964 0.392 0.40025 0.0
H637 H 0.79269 0.36218 0.44558 0.0
S638 S 0.63899 0.39962 0.3224 0.0
N639 N 0.68989 0.41169 0.31638 0.0
N640 N 0.64932 0.37953 0.36488 0.0
C641 C 0.69606 0.38196 0.37616 0.0
C642 C 0.71787 0.39947 0.35015 0.0
C643 C 0.23976 0.61775 0.41923 0.0
C644 C 0.24277 0.61484 0.35741 0.0
C645 C 0.26195 0.63444 0.44676 0.0
C646 C 0.28855 0.64857 0.41342 0.0
H647 H 0.21958 0.6072 0.44629 0.0
H648 H 0.25852 0.63617 0.49457 0.0
S649 S 0.30801 0.64704 0.2498 0.0
N650 N 0.27457 0.62693 0.26355 0.0
N651 N 0.3169 0.6582 0.3149 0.0
C652 C 0.29231 0.64553 0.35145 0.0
C653 C 0.26925 0.62868 0.32352 0.0
C654 C 0.46849 0.64115 0.64611 0.0
C655 C 0.49355 0.65374 0.60669 0.0
C656 C 0.48983 0.62404 0.67217 0.0
C657 C 0.53685 0.61876 0.65907 0.0
H658 H 0.43203 0.64453 0.65661 0.0
H659 H 0.46901 0.61477 0.70223 0.0
S660 S 0.61694 0.64692 0.55692 0.0
N661 N 0.56707 0.6599 0.5547 0.0
N662 N 0.60767 0.62779 0.60339 0.0
C663 C 0.5622 0.63134 0.61938 0.0
C664 C 0.54041 0.64883 0.59324 0.0
C665 C 0.51293 0.36592 0.66912 0.0
C666 C 0.51198 0.36377 0.60692 0.0
C667 C 0.49126 0.38266 0.69701 0.0
C668 C 0.46725 0.3976 0.6636 0.0
H669 H 0.53123 0.35476 0.69622 0.0
H670 H 0.49308 0.38381 0.74511 0.0
S671 S 0.4537 0.39825 0.499 0.0
N672 N 0.48478 0.37744 0.51262 0.0
N673 N 0.4434 0.4088 0.56462 0.0
C674 C 0.46545 0.39532 0.60123 0.0
C675 C 0.488 0.37842 0.57298 0.0
C676 C 0.69747 0.88205 0.8772 0.0
C677 C 0.72337 0.86897 0.91484 0.0
C678 C 0.71858 0.89913 0.8505 0.0
C679 C 0.76628 0.90369 0.86037 0.0
H680 H 0.66059 0.87909 0.86811 0.0
H681 H 0.69769 0.90863 0.82113 0.0
S682 S 0.84989 0.87466 0.95446 0.0
N683 N 0.7997 0.86202 0.96031 0.0
N684 N 0.83893 0.89416 0.90994 0.0
C685 C 0.79256 0.89093 0.89787 0.0
C686 C 0.7712 0.87358 0.92526 0.0
C687 C 0.23887 0.14385 0.9242 0.0
C688 C 0.28562 0.14932 0.91013 0.0
C689 C 0.21728 0.12681 0.89782 0.0
C690 C 0.2418 0.11451 0.85705 0.0
H691 H 0.21849 0.1529 0.95535 0.0
H692 H 0.18108 0.12326 0.90922 0.0
S693 S 0.36429 0.12188 0.80446 0.0
N694 N 0.35559 0.14076 0.85211 0.0
N695 N 0.31452 0.10879 0.80286 0.0
C696 C 0.28837 0.11963 0.84258 0.0
C697 C 0.31041 0.13702 0.86906 0.0
C698 C 0.55908 0.13154 0.12395 0.0
C699 C 0.53323 0.11897 0.16314 0.0
C700 C 0.53836 0.1486 0.09674 0.0
C701 C 0.4911 0.15367 0.10766 0.0
H702 H 0.59563 0.12818 0.11401 0.0
H703 H 0.55918 0.15768 0.06616 0.0
S704 S 0.40782 0.12615 0.20607 0.0
N705 N 0.45742 0.11308 0.21125 0.0
N706 N 0.41894 0.1452 0.16001 0.0
C707 C 0.46488 0.14144 0.14677 0.0
C708 C 0.48585 0.1241 0.17463 0.0
C709 C 0.49184 0.87925 0.07894 0.0
C710 C 0.51472 0.8641 0.11238 0.0
C711 C 0.46905 0.89564 0.10701 0.0
C712 C 0.46891 0.89757 0.16951 0.0
H713 H 0.49154 0.87839 0.03073 0.0
H714 H 0.45196 0.90701 0.07944 0.0
S715 S 0.52287 0.86132 0.27679 0.0
N716 N 0.53508 0.85155 0.21068 0.0
N717 N 0.49268 0.88245 0.26392 0.0
C718 C 0.49146 0.88235 0.20339 0.0
C719 C 0.51416 0.86555 0.17469 0.0
C720 C 0.98295 0.25169 0.32698 0.0
C721 C 0.96383 0.23201 0.3348 0.0
C722 C 0.99451 0.25905 0.26999 0.0
C723 C 0.9879 0.24694 0.21874 0.0
H724 H 0.9873 0.26181 0.36482 0.0
H725 H 0.00679 0.27464 0.26609 0.0
S726 S 0.94348 0.19362 0.21525 0.0
N727 N 0.94193 0.20005 0.28636 0.0
N728 N 0.96392 0.21387 0.17991 0.0
C729 C 0.97038 0.22702 0.22616 0.0
C730 C 0.95847 0.21954 0.28396 0.0
C731 C 0.05012 0.7966 0.28471 0.0
C732 C 0.04296 0.78463 0.33612 0.0
C733 C 0.03888 0.78919 0.22777 0.0
C734 C 0.01972 0.76959 0.21983 0.0
H735 H 0.06527 0.81175 0.28825 0.0
H736 H 0.04566 0.79884 0.18952 0.0
S737 S 0.9964 0.73157 0.33867 0.0
N738 N 0.01623 0.75185 0.37468 0.0
N739 N 0.99615 0.73788 0.26748 0.0
C740 C 0.01219 0.75742 0.27055 0.0
C741 C 0.0234 0.76498 0.32871 0.0
C742 C 0.26205 0.50938 0.51923 0.0
C743 C 0.26844 0.49727 0.46793 0.0
C744 C 0.27333 0.50193 0.57621 0.0
C745 C 0.29191 0.48215 0.58395 0.0
H746 H 0.25023 0.52503 0.51536 0.0
H747 H 0.26926 0.51205 0.6141 0.0
S748 S 0.31124 0.44373 0.46427 0.0
N749 N 0.29147 0.4641 0.42898 0.0
N750 N 0.31289 0.4501 0.53541 0.0
C751 C 0.29693 0.46968 0.53307 0.0
C752 C 0.28532 0.47725 0.47529 0.0
C753 C 0.70749 0.54627 0.53332 0.0
C754 C 0.71516 0.5344 0.58481 0.0
C755 C 0.71877 0.53887 0.4764 0.0
C756 C 0.7385 0.51938 0.46856 0.0
H757 H 0.69188 0.56133 0.53677 0.0
H758 H 0.71154 0.54843 0.43809 0.0
S759 S 0.76347 0.48166 0.58765 0.0
N760 N 0.74309 0.50185 0.62356 0.0
N761 N 0.76328 0.48789 0.5164 0.0
C762 C 0.74661 0.50733 0.51935 0.0
C763 C 0.73533 0.51488 0.5775 0.0
C764 C 0.98503 0.75165 0.8271 0.0
C765 C 0.96611 0.73193 0.83483 0.0
C766 C 0.99617 0.75913 0.77012 0.0
C767 C 0.98931 0.7471 0.71877 0.0
H768 H 0.98946 0.76173 0.86502 0.0
H769 H 0.00823 0.77475 0.76631 0.0
S770 S 0.94546 0.6937 0.71494 0.0
N771 N 0.94428 0.7 0.78617 0.0
N772 N 0.96544 0.71406 0.67967 0.0
C773 C 0.97207 0.72713 0.72607 0.0
C774 C 0.9606 0.71953 0.78388 0.0
C775 C 0.04993 0.29602 0.78475 0.0
C776 C 0.04283 0.28402 0.83612 0.0
C777 C 0.03846 0.28869 0.72782 0.0
C778 C 0.01911 0.26912 0.71982 0.0
H779 H 0.06517 0.31116 0.78833 0.0
H780 H 0.04517 0.29836 0.68961 0.0
S781 S 0.99596 0.23101 0.83849 0.0
N782 N 0.01604 0.25124 0.87456 0.0
N783 N 0.99552 0.23739 0.76735 0.0
C784 C 0.0117 0.25691 0.77048 0.0
C785 C 0.02315 0.2644 0.82865 0.0
C786 C 0.26056 1.00835 0.01789 0.0
C787 C 0.26755 0.99639 0.96644 0.0
C788 C 0.27161 1.00081 0.07483 0.0
C789 C 0.29057 0.9811 0.0824 0.0
H790 H 0.24848 0.02396 1.0142 0.0
H791 H 0.2671 0.01084 0.11284 0.0
S792 S 0.31148 0.94303 0.96219 0.0
N793 N 0.29153 0.96342 0.92707 0.0
N794 N 0.31254 0.94924 0.03348 0.0
C795 C 0.29618 0.96876 0.03134 0.0
C796 C 0.2848 0.97642 0.97358 0.0
C797 C 0.74462 0.00955 0.01893 0.0
C798 C 0.73827 0.02164 0.96773 0.0
C799 C 0.73302 0.01697 0.07589 0.0
C800 C 0.71413 0.03669 0.08375 0.0
H801 H 0.75661 0.99392 1.01498 0.0
H802 H 0.73708 1.00684 0.11368 0.0
S803 S 0.69481 0.07507 0.96428 0.0
N804 N 0.71495 0.05473 0.92891 0.0
N805 N 0.69296 0.0687 0.03537 0.0
C806 C 0.70916 0.04916 0.03295 0.0
C807 C 0.72109 0.04161 0.97516 0.0
C808 C 0.51519 0.24551 0.75777 0.0
C809 C 0.48029 0.24897 0.71409 0.0
C810 C 0.50329 0.23893 0.81554 0.0
C811 C 0.4562 0.235 0.8312 0.0
H812 H 0.5521 0.24731 0.74722 0.0
H813 H 0.53121 0.23631 0.84755 0.0
S814 S 0.3512 0.24243 0.73514 0.0
N815 N 0.3962 0.24877 0.69238 0.0
N816 N 0.37435 0.23571 0.79964 0.0
C817 C 0.42102 0.23842 0.78829 0.0
C818 C 0.43294 0.24548 0.73009 0.0
C819 C 0.52318 0.76716 0.82464 0.0
C820 C 0.54298 0.78673 0.83259 0.0
C821 C 0.51191 0.75972 0.76757 0.0
C822 C 0.51953 0.77162 0.71624 0.0
H823 H 0.51799 0.75718 0.86252 0.0
H824 H 0.49907 0.74422 0.7637 0.0
S825 S 0.56615 0.82458 0.71271 0.0
N826 N 0.56668 0.81837 0.78395 0.0
N827 N 0.54531 0.80437 0.67733 0.0
C828 C 0.5378 0.79142 0.72369 0.0
C829 C 0.54939 0.799 0.78161 0.0
C830 C 0.7728 0.50182 0.07587 0.0
C831 C 0.79168 0.4821 0.08351 0.0
C832 C 0.76149 0.50929 0.01892 0.0
C833 C 0.76818 0.49725 0.96757 0.0
H834 H 0.76853 0.5119 0.11381 0.0
H835 H 0.74947 0.52491 1.01512 0.0
S836 S 0.81177 0.44384 0.96354 0.0
N837 N 0.81318 0.45015 0.03475 0.0
N838 N 0.79178 0.46421 0.92836 0.0
C839 C 0.78534 0.47728 0.97479 0.0
C840 C 0.79694 0.46968 0.03254 0.0
C841 C 0.20741 0.54637 0.03365 0.0
C842 C 0.21495 0.53451 0.08519 0.0
C843 C 0.21874 0.53894 0.97677 0.0
C844 C 0.23838 0.51943 0.969 0.0
H845 H 0.19188 0.56145 0.03704 0.0
H846 H 0.21163 0.5485 0.93842 0.0
S847 S 0.26289 0.4817 0.08823 0.0
N848 N 0.24259 0.50192 0.12405 0.0
N849 N 0.26286 0.48791 1.01697 0.0
C850 C 0.24632 0.50738 0.01984 0.0
C851 C 0.235 0.51496 0.07795 0.0
C852 C 0.48429 0.75213 0.32429 0.0
C853 C 0.46525 0.73245 0.33254 0.0
C854 C 0.49566 0.7594 0.26711 0.0
C855 C 0.48895 0.74719 0.21604 0.0
H856 H 0.48873 0.76232 0.36196 0.0
H857 H 0.50788 0.77498 0.26293 0.0
S858 S 0.44458 0.69385 0.21365 0.0
N859 N 0.44323 0.70041 0.28466 0.0
N860 N 0.46488 0.71404 0.17789 0.0
C861 C 0.47147 0.72728 0.2239 0.0
C862 C 0.45974 0.7199 0.28189 0.0
C863 C 0.52508 0.26631 0.32251 0.0
C864 C 0.5449 0.28585 0.33085 0.0
C865 C 0.51384 0.25901 0.26531 0.0
C866 C 0.52143 0.27103 0.21422 0.0
H867 H 0.51976 0.25625 0.36021 0.0
H868 H 0.50093 0.24352 0.26117 0.0
S869 S 0.56848 0.32393 0.21177 0.0
N870 N 0.56895 0.31755 0.28289 0.0
N871 N 0.5475 0.30384 0.17597 0.0
C872 C 0.5399 0.29079 0.22206 0.0
C873 C 0.55153 0.29821 0.28013 0.0
C874 C 0.79565 0.97182 0.53379 0.0
C875 C 0.7906 0.98419 0.58488 0.0
C876 C 0.78404 0.97909 0.47693 0.0
C877 C 0.76667 0.99899 0.46872 0.0
H878 H 0.80936 0.95643 0.53753 0.0
H879 H 0.7891 0.9691 0.43893 0.0
S880 S 0.74944 0.03805 0.5867 0.0
N881 N 0.7679 0.01762 0.62293 0.0
N882 N 0.74721 0.03137 0.5158 0.0
C883 C 0.76131 0.01156 0.51915 0.0
C884 C 0.77286 1.00412 0.57727 0.0
C885 C 0.20698 0.04582 0.53229 0.0
C886 C 0.21434 0.03391 0.58378 0.0
C887 C 0.21785 0.03833 0.47534 0.0
C888 C 0.23683 0.0187 0.46746 0.0
H889 H 0.19194 0.06099 0.53579 0.0
H890 H 0.21092 0.04793 0.43703 0.0
S891 S 0.26056 0.98081 0.5865 0.0
N892 N 0.24105 1.00115 0.62246 0.0
N893 N 0.26047 0.98704 0.51525 0.0
C894 C 0.24456 1.0066 0.51824 0.0
C895 C 0.23372 0.01424 0.57641 0.0
C896 C 0.29846 0.26754 0.02648 0.0
C897 C 0.29493 0.24615 0.031 0.0
C898 C 0.25805 0.27987 0.02558 0.0
C899 C 0.21264 0.27132 0.03025 0.0
H900 H 0.33248 0.27475 0.02022 0.0
H901 H 0.26244 0.29618 0.0193 0.0
S902 S 0.18495 0.21627 0.05106 0.0
N903 N 0.24295 0.21708 0.04575 0.0
N904 N 0.16702 0.24018 0.04521 0.0
C905 C 0.20891 0.25005 0.03897 0.0
C906 C 0.25004 0.23749 0.03897 0.0
C907 C 0.7502 0.7387 0.02521 0.0
C908 C 0.79566 0.7473 0.02767 0.0
C909 C 0.70981 0.75103 0.02567 0.0
C910 C 0.71336 0.77247 0.02748 0.0
H911 H 0.74573 0.72231 0.0212 0.0
H912 H 0.67569 0.74372 0.02149 0.0
S913 S 0.8237 0.80262 0.0404 0.0
N914 N 0.84154 0.77863 0.03708 0.0
N915 N 0.76561 0.80174 0.03695 0.0
C916 C 0.7584 0.78124 0.03292 0.0
C917 C 0.79954 0.76868 0.03336 0.0
C918 C 0.9997 0.52984 0.27605 0.0
C919 C 0.04514 0.52124 0.27776 0.0
C920 C 0.9593 0.51749 0.27685 0.0
C921 C 0.96286 0.49604 0.27812 0.0
H922 H 0.99525 0.54624 0.27243 0.0
H923 H 0.92514 0.52478 0.27327 0.0
S924 S 0.07325 0.46591 0.28865 0.0
N925 N 0.09107 0.48991 0.28581 0.0
N926 N 0.01513 0.46676 0.28596 0.0
C927 C 0.00792 0.48727 0.28269 0.0
C928 C 0.04905 0.49984 0.28293 0.0
C929 C 0.2984 0.76774 0.52629 0.0
C930 C 0.29494 0.74631 0.52841 0.0
C931 C 0.25794 0.78004 0.5259 0.0
C932 C 0.21255 0.77139 0.5288 0.0
H933 H 0.33247 0.77506 0.52172 0.0
H934 H 0.26229 0.79642 0.52156 0.0
S935 S 0.18484 0.71609 0.5425 0.0
N936 N 0.24291 0.717 0.53853 0.0
N937 N 0.16687 0.74005 0.53907 0.0
C938 C 0.20879 0.75002 0.5349 0.0
C939 C 0.24998 0.7375 0.53429 0.0
C940 C 0.79714 0.26726 0.52994 0.0
C941 C 0.79353 0.24582 0.53106 0.0
C942 C 0.75678 0.27961 0.52904 0.0
C943 C 0.71129 0.27101 0.53041 0.0
H944 H 0.83132 0.27456 0.52644 0.0
H945 H 0.76129 0.296 0.52538 0.0
S946 S 0.68308 0.21567 0.54149 0.0
N947 N 0.7412 0.21654 0.53894 0.0
N948 N 0.6653 0.23967 0.53851 0.0
C949 C 0.70733 0.24961 0.53571 0.0
C950 C 0.74845 0.23704 0.53563 0.0
C951 C 0.99943 0.02979 0.77441 0.0
C952 C 0.04477 0.0211 0.77645 0.0
C953 C 0.95889 0.01753 0.77533 0.0
C954 C 0.96221 0.99609 0.7771 0.0
H955 H 0.99517 0.04619 0.77042 0.0
H956 H 0.92482 0.02489 0.77147 0.0
S957 S 0.07218 0.96574 0.78875 0.0
N958 N 0.09031 0.98969 0.78537 0.0
N959 N 0.01408 0.96672 0.78584 0.0
C960 C 0.00714 0.98723 0.78201 0.0
C961 C 0.04843 0.99971 0.78209 0.0
C962 C 0.45921 0.51741 0.77646 0.0
C963 C 0.46285 0.49597 0.77832 0.0
C964 C 0.49956 0.52979 0.77533 0.0
C965 C 0.54504 0.52123 0.77729 0.0
H966 H 0.42502 0.52467 0.77266 0.0
H967 H 0.49504 0.54617 0.77126 0.0
S968 S 0.57334 0.46596 0.78979 0.0
N969 N 0.51522 0.46676 0.78701 0.0
N970 N 0.59108 0.48996 0.78628 0.0
C971 C 0.54903 0.49986 0.78307 0.0
C972 C 0.50794 0.48725 0.78315 0.0
C973 C 0.50551 0.98835 0.27487 0.0
C974 C 0.45995 0.99686 0.2763 0.0
C975 C 0.54576 1.00079 0.27554 0.0
C976 C 0.54198 0.02223 0.27647 0.0
H977 H 0.51016 0.97196 0.27157 0.0
H978 H 0.57999 0.99355 0.27223 0.0
S979 S 0.4312 0.05216 0.28634 0.0
N980 N 0.41366 0.02811 0.28369 0.0
N981 N 0.48933 0.05141 0.28387 0.0
C982 C 0.4968 0.03092 0.2808 0.0
C983 C 0.45579 0.01826 0.28108 0.0
loop_
_geom_bond_atom_site_label_1
_geom_bond_atom_site_label_2
_geom_bond_distance
_geom_bond_site_symmetry_2
_ccdc_geom_bond_type
Co0 O3 1.970 . S
Co0 N17 1.989 . S
Co0 O25 1.967 . S
Co0 O32 1.920 . S
Co1 O4 1.966 . S
Co1 N10 2.022 . S
Co1 N18 1.993 . S
Co1 O26 1.941 1_554 S
C2 O3 1.258 . S
C2 O4 1.263 1_556 S
O3 Co0 1.970 . S
O3 C2 1.258 . S
O4 Co1 1.966 . S
O4 C2 1.263 1_554 S
C5 O6 1.235 . S
C5 O32 1.289 . S
O6 C5 1.235 . S
C7 C9 1.400 . S
C7 N10 1.351 . S
C7 C12 1.501 . S
C8 C9 1.387 1_655 S
C8 N11 1.341 . S
C9 C7 1.400 . S
C9 C8 1.387 1_455 S
N10 Co1 2.022 . S
N10 C7 1.351 . S
N10 N11 1.365 1_455 S
N11 C8 1.341 . S
N11 N10 1.365 1_655 S
N11 H31 0.862 . S
C12 C7 1.501 . S
C12 H13 0.961 . S
C12 H14 0.961 . S
C12 H15 0.960 . S
H13 C12 0.961 . S
H14 C12 0.961 . S
H15 C12 0.960 . S
C16 N17 1.342 1_554 S
C16 C20 1.401 . S
C16 C21 1.499 1_554 S
N17 Co0 1.989 . S
N17 C16 1.342 1_556 S
N17 N18 1.388 1_556 S
N18 Co1 1.993 . S
N18 N17 1.388 1_554 S
N18 C19 1.346 . S
C19 N18 1.346 . S
C19 C20 1.396 . S
C19 C29 1.510 1_455 S
C20 C16 1.401 . S
C20 C19 1.396 . S
C21 C16 1.499 1_556 S
C21 H22 0.959 . S
C21 H23 0.965 . S
C21 H24 0.961 . S
H22 C21 0.959 . S
H23 C21 0.965 . S
H24 C21 0.961 . S
O25 Co0 1.967 . S
O25 C33 1.258 . S
O26 Co1 1.941 1_556 S
O26 C33 1.266 . S
H27 C29 0.959 . S
H28 C29 0.961 1_455 S
C29 C19 1.510 1_655 S
C29 H27 0.959 . S
C29 H28 0.961 1_655 S
C29 H30 0.960 1_655 S
H30 C29 0.960 1_455 S
H31 N11 0.862 . S
O32 Co0 1.920 . S
O32 C5 1.289 . S
C33 O25 1.258 . S
C33 O26 1.266 . S
Co34 O37 1.970 . S
Co34 N51 1.989 . S
Co34 O59 1.967 . S
Co34 O66 1.920 . S
Co35 O38 1.966 . S
Co35 N44 2.022 . S
Co35 N52 1.993 . S
Co35 O60 1.941 1_554 S
C36 O37 1.258 . S
C36 O38 1.263 1_556 S
O37 Co34 1.970 . S
O37 C36 1.258 . S
O38 Co35 1.966 . S
O38 C36 1.263 1_554 S
C39 O40 1.235 . S
C39 O66 1.289 . S
O40 C39 1.235 . S
C41 C43 1.400 . S
C41 N44 1.351 . S
C41 C46 1.501 . S
C42 C43 1.387 1_455 S
C42 N45 1.341 . S
C43 C41 1.400 . S
C43 C42 1.387 1_655 S
N44 Co35 2.022 . S
N44 C41 1.351 . S
N44 N45 1.365 1_655 S
N45 C42 1.341 . S
N45 N44 1.365 1_455 S
N45 H65 0.862 . S
C46 C41 1.501 . S
C46 H47 0.961 . S
C46 H48 0.961 . S
C46 H49 0.960 . S
H47 C46 0.961 . S
H48 C46 0.961 . S
H49 C46 0.960 . S
C50 N51 1.342 1_554 S
C50 C54 1.401 . S
C50 C55 1.499 1_554 S
N51 Co34 1.989 . S
N51 C50 1.342 1_556 S
N51 N52 1.388 1_556 S
N52 Co35 1.993 . S
N52 N51 1.388 1_554 S
N52 C53 1.346 . S
C53 N52 1.346 . S
C53 C54 1.396 . S
C53 C63 1.510 1_655 S
C54 C50 1.401 . S
C54 C53 1.396 . S
C55 C50 1.499 1_556 S
C55 H56 0.959 . S
C55 H57 0.965 . S
C55 H58 0.961 . S
H56 C55 0.959 . S
H57 C55 0.965 . S
H58 C55 0.961 . S
O59 Co34 1.967 . S
O59 C67 1.258 . S
O60 Co35 1.941 1_556 S
O60 C67 1.266 . S
H61 C63 0.959 . S
H62 C63 0.961 1_655 S
C63 C53 1.510 1_455 S
C63 H61 0.959 . S
C63 H62 0.961 1_455 S
C63 H64 0.960 1_455 S
H64 C63 0.960 1_655 S
H65 N45 0.862 . S
O66 Co34 1.920 . S
O66 C39 1.289 . S
C67 O59 1.258 . S
C67 O60 1.266 . S
Co68 O71 1.970 . S
Co68 N85 1.989 . S
Co68 O93 1.967 . S
Co68 O100 1.920 . S
Co69 O72 1.966 . S
Co69 N78 2.022 . S
Co69 N86 1.993 . S
Co69 O94 1.941 . S
C70 O71 1.258 . S
C70 O72 1.263 . S
O71 Co68 1.970 . S
O71 C70 1.258 . S
O72 Co69 1.966 . S
O72 C70 1.263 . S
C73 O74 1.235 . S
C73 O100 1.289 . S
O74 C73 1.235 . S
C75 C77 1.400 . S
C75 N78 1.351 . S
C75 C80 1.501 . S
C76 C77 1.387 . S
C76 N79 1.341 . S
C77 C75 1.400 . S
C77 C76 1.387 . S
N78 Co69 2.022 . S
N78 C75 1.351 . S
N78 N79 1.365 . S
N79 C76 1.341 . S
N79 N78 1.365 . S
N79 H99 0.862 . S
C80 C75 1.501 . S
C80 H81 0.961 . S
C80 H82 0.961 . S
C80 H83 0.960 . S
H81 C80 0.961 . S
H82 C80 0.961 . S
H83 C80 0.960 . S
C84 N85 1.342 . S
C84 C88 1.401 . S
C84 C89 1.499 . S
N85 Co68 1.989 . S
N85 C84 1.342 . S
N85 N86 1.388 . S
N86 Co69 1.993 . S
N86 N85 1.388 . S
N86 C87 1.346 . S
C87 N86 1.346 . S
C87 C88 1.396 . S
C87 C97 1.510 . S
C88 C84 1.401 . S
C88 C87 1.396 . S
C89 C84 1.499 . S
C89 H90 0.959 . S
C89 H91 0.960 . S
C89 H92 0.961 . S
H90 C89 0.959 . S
H91 C89 0.960 . S
H92 C89 0.961 . S
O93 Co68 1.967 . S
O93 C101 1.258 . S
O94 Co69 1.941 . S
O94 C101 1.266 . S
H95 C97 0.959 . S
H96 C97 0.961 . S
C97 C87 1.510 . S
C97 H95 0.959 . S
C97 H96 0.961 . S
C97 H98 0.960 . S
H98 C97 0.960 . S
H99 N79 0.862 . S
O100 Co68 1.920 . S
O100 C73 1.289 . S
C101 O93 1.258 . S
C101 O94 1.266 . S
Co102 O105 1.970 . S
Co102 N119 1.989 . S
Co102 O127 1.967 . S
Co102 O134 1.920 . S
Co103 O106 1.966 . S
Co103 N112 2.022 . S
Co103 N120 1.993 . S
Co103 O128 1.941 . S
C104 O105 1.258 . S
C104 O106 1.263 . S
O105 Co102 1.970 . S
O105 C104 1.258 . S
O106 Co103 1.966 . S
O106 C104 1.263 . S
C107 O108 1.235 . S
C107 O134 1.289 . S
O108 C107 1.235 . S
C109 C111 1.400 . S
C109 N112 1.351 . S
C109 C114 1.501 . S
C110 C111 1.387 . S
C110 N113 1.341 . S
C111 C109 1.400 . S
C111 C110 1.387 . S
N112 Co103 2.022 . S
N112 C109 1.351 . S
N112 N113 1.365 . S
N113 C110 1.341 . S
N113 N112 1.365 . S
N113 H133 0.862 . S
C114 C109 1.501 . S
C114 H115 0.961 . S
C114 H116 0.961 . S
C114 H117 0.960 . S
H115 C114 0.961 . S
H116 C114 0.961 . S
H117 C114 0.960 . S
C118 N119 1.342 . S
C118 C122 1.401 . S
C118 C123 1.499 . S
N119 Co102 1.989 . S
N119 C118 1.342 . S
N119 N120 1.388 . S
N120 Co103 1.993 . S
N120 N119 1.388 . S
N120 C121 1.346 . S
C121 N120 1.346 . S
C121 C122 1.396 . S
C121 C131 1.510 . S
C122 C118 1.401 . S
C122 C121 1.396 . S
C123 C118 1.499 . S
C123 H124 0.959 . S
C123 H125 0.960 . S
C123 H126 0.961 . S
H124 C123 0.959 . S
H125 C123 0.960 . S
H126 C123 0.961 . S
O127 Co102 1.967 . S
O127 C135 1.258 . S
O128 Co103 1.941 . S
O128 C135 1.266 . S
H129 C131 0.959 . S
H130 C131 0.961 . S
C131 C121 1.510 . S
C131 H129 0.959 . S
C131 H130 0.961 . S
C131 H132 0.960 . S
H132 C131 0.960 . S
H133 N113 0.862 . S
O134 Co102 1.920 . S
O134 C107 1.289 . S
C135 O127 1.258 . S
C135 O128 1.266 . S
Co136 O139 1.970 . S
Co136 N153 1.989 . S
Co136 O161 1.967 . S
Co136 O168 1.920 . S
Co137 O140 1.966 . S
Co137 N146 2.022 . S
Co137 N154 1.993 . S
Co137 O162 1.941 . S
C138 O139 1.258 . S
C138 O140 1.263 . S
O139 Co136 1.970 . S
O139 C138 1.258 . S
O140 Co137 1.966 . S
O140 C138 1.263 . S
C141 O142 1.235 . S
C141 O168 1.289 . S
O142 C141 1.235 . S
C143 C145 1.400 . S
C143 N146 1.351 . S
C143 C148 1.501 . S
C144 C145 1.387 1_655 S
C144 N147 1.341 . S
C145 C143 1.400 . S
C145 C144 1.387 1_455 S
N146 Co137 2.022 . S
N146 C143 1.351 . S
N146 N147 1.365 1_455 S
N147 C144 1.341 . S
N147 N146 1.365 1_655 S
N147 H167 0.862 . S
C148 C143 1.501 . S
C148 H149 0.961 . S
C148 H150 0.961 . S
C148 H151 0.960 . S
H149 C148 0.961 . S
H150 C148 0.961 . S
H151 C148 0.960 . S
C152 N153 1.342 . S
C152 C156 1.401 . S
C152 C157 1.499 . S
N153 Co136 1.989 . S
N153 C152 1.342 . S
N153 N154 1.388 . S
N154 Co137 1.993 . S
N154 N153 1.388 . S
N154 C155 1.346 . S
C155 N154 1.346 . S
C155 C156 1.396 . S
C155 C165 1.510 1_455 S
C156 C152 1.401 . S
C156 C155 1.396 . S
C157 C152 1.499 . S
C157 H158 0.959 . S
C157 H159 0.960 . S
C157 H160 0.961 . S
H158 C157 0.959 . S
H159 C157 0.960 . S
H160 C157 0.961 . S
O161 Co136 1.967 . S
O161 C169 1.258 . S
O162 Co137 1.941 . S
O162 C169 1.266 . S
H163 C165 0.959 . S
H164 C165 0.961 1_455 S
C165 C155 1.510 1_655 S
C165 H163 0.959 . S
C165 H164 0.961 1_655 S
C165 H166 0.960 1_655 S
H166 C165 0.960 1_455 S
H167 N147 0.862 . S
O168 Co136 1.920 . S
O168 C141 1.289 . S
C169 O161 1.258 . S
C169 O162 1.266 . S
Co170 O173 1.970 . S
Co170 N187 1.989 . S
Co170 O195 1.967 . S
Co170 O202 1.920 . S
Co171 O174 1.966 . S
Co171 N180 2.022 . S
Co171 N188 1.993 . S
Co171 O196 1.941 . S
C172 O173 1.258 . S
C172 O174 1.263 . S
O173 Co170 1.970 . S
O173 C172 1.258 . S
O174 Co171 1.966 . S
O174 C172 1.263 . S
C175 O176 1.235 . S
C175 O202 1.289 . S
O176 C175 1.235 . S
C177 C179 1.400 . S
C177 N180 1.351 . S
C177 C182 1.501 . S
C178 C179 1.387 1_455 S
C178 N181 1.341 . S
C179 C177 1.400 . S
C179 C178 1.387 1_655 S
N180 Co171 2.022 . S
N180 C177 1.351 . S
N180 N181 1.365 1_655 S
N181 C178 1.341 . S
N181 N180 1.365 1_455 S
N181 H201 0.862 . S
C182 C177 1.501 . S
C182 H183 0.961 . S
C182 H184 0.961 . S
C182 H185 0.960 . S
H183 C182 0.961 . S
H184 C182 0.961 . S
H185 C182 0.960 . S
C186 N187 1.342 . S
C186 C190 1.401 . S
C186 C191 1.499 . S
N187 Co170 1.989 . S
N187 C186 1.342 . S
N187 N188 1.388 . S
N188 Co171 1.993 . S
N188 N187 1.388 . S
N188 C189 1.346 . S
C189 N188 1.346 . S
C189 C190 1.396 . S
C189 C199 1.510 1_655 S
C190 C186 1.401 . S
C190 C189 1.396 . S
C191 C186 1.499 . S
C191 H192 0.959 . S
C191 H193 0.960 . S
C191 H194 0.961 . S
H192 C191 0.959 . S
H193 C191 0.960 . S
H194 C191 0.961 . S
O195 Co170 1.967 . S
O195 C203 1.258 . S
O196 Co171 1.941 . S
O196 C203 1.266 . S
H197 C199 0.959 . S
H198 C199 0.961 1_655 S
C199 C189 1.510 1_455 S
C199 H197 0.959 . S
C199 H198 0.961 1_455 S
C199 H200 0.960 1_455 S
H200 C199 0.960 1_655 S
H201 N181 0.862 . S
O202 Co170 1.920 . S
O202 C175 1.289 . S
C203 O195 1.258 . S
C203 O196 1.266 . S
Co204 O207 1.970 . S
Co204 N221 1.989 . S
Co204 O229 1.967 . S
Co204 O236 1.920 . S
Co205 O208 1.966 . S
Co205 N214 2.022 . S
Co205 N222 1.993 . S
Co205 O230 1.941 . S
C206 O207 1.258 . S
C206 O208 1.263 . S
O207 Co204 1.970 . S
O207 C206 1.258 . S
O208 Co205 1.966 . S
O208 C206 1.263 . S
C209 O210 1.235 . S
C209 O236 1.289 . S
O210 C209 1.235 . S
C211 C213 1.400 . S
C211 N214 1.351 . S
C211 C216 1.501 . S
C212 C213 1.387 . S
C212 N215 1.341 . S
C213 C211 1.400 . S
C213 C212 1.387 . S
N214 Co205 2.022 . S
N214 C211 1.351 . S
N214 N215 1.365 . S
N215 C212 1.341 . S
N215 N214 1.365 . S
N215 H235 0.862 . S
C216 C211 1.501 . S
C216 H217 0.961 . S
C216 H218 0.961 . S
C216 H219 0.960 1_545 S
H217 C216 0.961 . S
H218 C216 0.961 . S
H219 C216 0.960 1_565 S
C220 N221 1.342 . S
C220 C224 1.401 . S
C220 C225 1.499 . S
N221 Co204 1.989 . S
N221 C220 1.342 . S
N221 N222 1.388 . S
N222 Co205 1.993 . S
N222 N221 1.388 . S
N222 C223 1.346 . S
C223 N222 1.346 . S
C223 C224 1.396 . S
C223 C233 1.510 . S
C224 C220 1.401 . S
C224 C223 1.396 . S
C225 C220 1.499 . S
C225 H226 0.959 . S
C225 H227 0.960 . S
C225 H228 0.961 . S
H226 C225 0.959 . S
H227 C225 0.960 . S
H228 C225 0.961 . S
O229 Co204 1.967 . S
O229 C237 1.258 . S
O230 Co205 1.941 . S
O230 C237 1.266 . S
H231 C233 0.959 . S
H232 C233 0.961 . S
C233 C223 1.510 . S
C233 H231 0.959 . S
C233 H232 0.961 . S
C233 H234 0.960 . S
H234 C233 0.960 . S
H235 N215 0.862 . S
O236 Co204 1.920 . S
O236 C209 1.289 . S
C237 O229 1.258 . S
C237 O230 1.266 . S
Co238 O241 1.970 . S
Co238 N255 1.989 . S
Co238 O263 1.967 . S
Co238 O270 1.920 . S
Co239 O242 1.966 . S
Co239 N248 2.022 . S
Co239 N256 1.993 . S
Co239 O264 1.941 . S
C240 O241 1.258 . S
C240 O242 1.263 . S
O241 Co238 1.970 . S
O241 C240 1.258 . S
O242 Co239 1.966 . S
O242 C240 1.263 . S
C243 O244 1.235 . S
C243 O270 1.289 . S
O244 C243 1.235 . S
C245 C247 1.400 . S
C245 N248 1.351 . S
C245 C250 1.501 . S
C246 C247 1.387 . S
C246 N249 1.341 . S
C247 C245 1.400 . S
C247 C246 1.387 . S
N248 Co239 2.022 . S
N248 C245 1.351 . S
N248 N249 1.365 . S
N249 C246 1.341 . S
N249 N248 1.365 . S
N249 H269 0.862 . S
C250 C245 1.501 . S
C250 H251 0.961 . S
C250 H252 0.961 . S
C250 H253 0.960 1_565 S
H251 C250 0.961 . S
H252 C250 0.961 . S
H253 C250 0.960 1_545 S
C254 N255 1.342 . S
C254 C258 1.401 . S
C254 C259 1.499 . S
N255 Co238 1.989 . S
N255 C254 1.342 . S
N255 N256 1.388 . S
N256 Co239 1.993 . S
N256 N255 1.388 . S
N256 C257 1.346 . S
C257 N256 1.346 . S
C257 C258 1.396 . S
C257 C267 1.510 . S
C258 C254 1.401 . S
C258 C257 1.396 . S
C259 C254 1.499 . S
C259 H260 0.959 . S
C259 H261 0.960 . S
C259 H262 0.961 . S
H260 C259 0.959 . S
H261 C259 0.960 . S
H262 C259 0.961 . S
O263 Co238 1.967 . S
O263 C271 1.258 . S
O264 Co239 1.941 . S
O264 C271 1.266 . S
H265 C267 0.959 . S
H266 C267 0.961 . S
C267 C257 1.510 . S
C267 H265 0.959 . S
C267 H266 0.961 . S
C267 H268 0.960 . S
H268 C267 0.960 . S
H269 N249 0.862 . S
O270 Co238 1.920 . S
O270 C243 1.289 . S
C271 O263 1.258 . S
C271 O264 1.266 . S
Co272 O275 1.970 . S
Co272 N289 1.989 . S
Co272 O297 1.967 . S
Co272 O304 1.920 . S
Co273 O276 1.966 . S
Co273 N282 2.022 . S
Co273 N290 1.993 . S
Co273 O298 1.941 . S
C274 O275 1.258 . S
C274 O276 1.263 . S
O275 Co272 1.970 . S
O275 C274 1.258 . S
O276 Co273 1.966 . S
O276 C274 1.263 . S
C277 O278 1.235 . S
C277 O304 1.289 . S
O278 C277 1.235 . S
C279 C281 1.400 . S
C279 N282 1.351 . S
C279 C284 1.501 . S
C280 C281 1.387 . S
C280 N283 1.341 . S
C281 C279 1.400 . S
C281 C280 1.387 . S
N282 Co273 2.022 . S
N282 C279 1.351 . S
N282 N283 1.365 . S
N283 C280 1.341 . S
N283 N282 1.365 . S
N283 H303 0.862 . S
C284 C279 1.501 . S
C284 H285 0.961 . S
C284 H286 0.961 . S
C284 H287 0.960 . S
H285 C284 0.961 . S
H286 C284 0.961 . S
H287 C284 0.960 . S
C288 N289 1.342 . S
C288 C292 1.401 . S
C288 C293 1.499 . S
N289 Co272 1.989 . S
N289 C288 1.342 . S
N289 N290 1.388 . S
N290 Co273 1.993 . S
N290 N289 1.388 . S
N290 C291 1.346 . S
C291 N290 1.346 . S
C291 C292 1.396 . S
C291 C301 1.510 . S
C292 C288 1.401 . S
C292 C291 1.396 . S
C293 C288 1.499 . S
C293 H294 0.959 . S
C293 H295 0.960 . S
C293 H296 0.961 . S
H294 C293 0.959 . S
H295 C293 0.960 . S
H296 C293 0.961 . S
O297 Co272 1.967 . S
O297 C305 1.258 . S
O298 Co273 1.941 . S
O298 C305 1.266 . S
H299 C301 0.959 . S
H300 C301 0.961 . S
C301 C291 1.510 . S
C301 H299 0.959 . S
C301 H300 0.961 . S
C301 H302 0.960 . S
H302 C301 0.960 . S
H303 N283 0.862 . S
O304 Co272 1.920 . S
O304 C277 1.289 . S
C305 O297 1.258 . S
C305 O298 1.266 . S
Co306 O309 1.970 . S
Co306 N323 1.989 . S
Co306 O331 1.967 . S
Co306 O338 1.920 . S
Co307 O310 1.966 . S
Co307 N316 2.022 . S
Co307 N324 1.993 . S
Co307 O332 1.941 . S
C308 O309 1.258 . S
C308 O310 1.263 . S
O309 Co306 1.970 . S
O309 C308 1.258 . S
O310 Co307 1.966 . S
O310 C308 1.263 . S
C311 O312 1.235 . S
C311 O338 1.289 . S
O312 C311 1.235 . S
C313 C315 1.400 . S
C313 N316 1.351 . S
C313 C318 1.501 . S
C314 C315 1.387 . S
C314 N317 1.341 . S
C315 C313 1.400 . S
C315 C314 1.387 . S
N316 Co307 2.022 . S
N316 C313 1.351 . S
N316 N317 1.365 . S
N317 C314 1.341 . S
N317 N316 1.365 . S
N317 H337 0.862 . S
C318 C313 1.501 . S
C318 H319 0.961 . S
C318 H320 0.961 . S
C318 H321 0.960 . S
H319 C318 0.961 . S
H320 C318 0.961 . S
H321 C318 0.960 . S
C322 N323 1.342 . S
C322 C326 1.401 . S
C322 C327 1.499 . S
N323 Co306 1.989 . S
N323 C322 1.342 . S
N323 N324 1.388 . S
N324 Co307 1.993 . S
N324 N323 1.388 . S
N324 C325 1.346 . S
C325 N324 1.346 . S
C325 C326 1.396 . S
C325 C335 1.510 . S
C326 C322 1.401 . S
C326 C325 1.396 . S
C327 C322 1.499 . S
C327 H328 0.959 . S
C327 H329 0.960 . S
C327 H330 0.961 . S
H328 C327 0.959 . S
H329 C327 0.960 . S
H330 C327 0.961 . S
O331 Co306 1.967 . S
O331 C339 1.258 . S
O332 Co307 1.941 . S
O332 C339 1.266 . S
H333 C335 0.959 . S
H334 C335 0.961 . S
C335 C325 1.510 . S
C335 H333 0.959 . S
C335 H334 0.961 . S
C335 H336 0.960 . S
H336 C335 0.960 . S
H337 N317 0.862 . S
O338 Co306 1.920 . S
O338 C311 1.289 . S
C339 O331 1.258 . S
C339 O332 1.266 . S
Co340 O343 1.970 . S
Co340 N357 1.989 . S
Co340 O365 1.967 . S
Co340 O372 1.920 . S
Co341 O344 1.966 . S
Co341 N350 2.022 . S
Co341 N358 1.993 . S
Co341 O366 1.941 . S
C342 O343 1.258 . S
C342 O344 1.263 . S
O343 Co340 1.970 . S
O343 C342 1.258 . S
O344 Co341 1.966 . S
O344 C342 1.263 . S
C345 O346 1.235 . S
C345 O372 1.289 . S
O346 C345 1.235 . S
C347 C349 1.400 . S
C347 N350 1.351 . S
C347 C352 1.501 . S
C348 C349 1.387 . S
C348 N351 1.341 . S
C349 C347 1.400 . S
C349 C348 1.387 . S
N350 Co341 2.022 . S
N350 C347 1.351 . S
N350 N351 1.365 . S
N351 C348 1.341 . S
N351 N350 1.365 . S
N351 H371 0.862 . S
C352 C347 1.501 . S
C352 H353 0.961 . S
C352 H354 0.961 . S
C352 H355 0.960 . S
H353 C352 0.961 . S
H354 C352 0.961 . S
H355 C352 0.960 . S
C356 N357 1.342 . S
C356 C360 1.401 . S
C356 C361 1.499 . S
N357 Co340 1.989 . S
N357 C356 1.342 . S
N357 N358 1.388 . S
N358 Co341 1.993 . S
N358 N357 1.388 . S
N358 C359 1.346 . S
C359 N358 1.346 . S
C359 C360 1.396 . S
C359 C369 1.510 . S
C360 C356 1.401 . S
C360 C359 1.396 . S
C361 C356 1.499 . S
C361 H362 0.959 . S
C361 H363 0.960 . S
C361 H364 0.961 . S
H362 C361 0.959 . S
H363 C361 0.960 . S
H364 C361 0.961 . S
O365 Co340 1.967 . S
O365 C373 1.258 . S
O366 Co341 1.941 . S
O366 C373 1.266 . S
H367 C369 0.959 . S
H368 C369 0.961 . S
C369 C359 1.510 . S
C369 H367 0.959 . S
C369 H368 0.961 . S
C369 H370 0.960 . S
H370 C369 0.960 . S
H371 N351 0.862 . S
O372 Co340 1.920 . S
O372 C345 1.289 . S
C373 O365 1.258 . S
C373 O366 1.266 . S
Co374 O377 1.970 . S
Co374 N391 1.989 . S
Co374 O399 1.967 . S
Co374 O406 1.920 . S
Co375 O378 1.966 . S
Co375 N384 2.022 . S
Co375 N392 1.993 . S
Co375 O400 1.941 . S
C376 O377 1.258 . S
C376 O378 1.263 . S
O377 Co374 1.970 . S
O377 C376 1.258 . S
O378 Co375 1.966 . S
O378 C376 1.263 . S
C379 O380 1.235 . S
C379 O406 1.289 . S
O380 C379 1.235 . S
C381 C383 1.400 . S
C381 N384 1.351 . S
C381 C386 1.501 . S
C382 C383 1.387 . S
C382 N385 1.341 . S
C383 C381 1.400 . S
C383 C382 1.387 . S
N384 Co375 2.022 . S
N384 C381 1.351 . S
N384 N385 1.365 . S
N385 C382 1.341 . S
N385 N384 1.365 . S
N385 H405 0.862 . S
C386 C381 1.501 . S
C386 H387 0.961 . S
C386 H388 0.961 . S
C386 H389 0.960 . S
H387 C386 0.961 . S
H388 C386 0.961 . S
H389 C386 0.960 . S
C390 N391 1.342 . S
C390 C394 1.401 . S
C390 C395 1.499 . S
N391 Co374 1.989 . S
N391 C390 1.342 . S
N391 N392 1.388 . S
N392 Co375 1.993 . S
N392 N391 1.388 . S
N392 C393 1.346 . S
C393 N392 1.346 . S
C393 C394 1.396 . S
C393 C403 1.510 . S
C394 C390 1.401 . S
C394 C393 1.396 . S
C395 C390 1.499 . S
C395 H396 0.959 . S
C395 H397 0.960 . S
C395 H398 0.961 . S
H396 C395 0.959 . S
H397 C395 0.960 . S
H398 C395 0.961 . S
O399 Co374 1.967 . S
O399 C407 1.258 . S
O400 Co375 1.941 . S
O400 C407 1.266 . S
H401 C403 0.959 . S
H402 C403 0.961 . S
C403 C393 1.510 . S
C403 H401 0.959 . S
C403 H402 0.961 . S
C403 H404 0.960 . S
H404 C403 0.960 . S
H405 N385 0.862 . S
O406 Co374 1.920 . S
O406 C379 1.289 . S
C407 O399 1.258 . S
C407 O400 1.266 . S
Co408 O411 1.970 . S
Co408 N425 1.989 . S
Co408 O433 1.967 . S
Co408 O440 1.920 . S
Co409 O412 1.966 . S
Co409 N418 2.022 . S
Co409 N426 1.993 . S
Co409 O434 1.941 1_554 S
C410 O411 1.258 . S
C410 O412 1.263 1_556 S
O411 Co408 1.970 . S
O411 C410 1.258 . S
O412 Co409 1.966 . S
O412 C410 1.263 1_554 S
C413 O414 1.235 . S
C413 O440 1.289 . S
O414 C413 1.235 . S
C415 C417 1.400 . S
C415 N418 1.351 . S
C415 C420 1.501 . S
C416 C417 1.387 . S
C416 N419 1.341 . S
C417 C415 1.400 . S
C417 C416 1.387 . S
N418 Co409 2.022 . S
N418 C415 1.351 . S
N418 N419 1.365 . S
N419 C416 1.341 . S
N419 N418 1.365 . S
N419 H439 0.862 . S
C420 C415 1.501 . S
C420 H421 0.961 . S
C420 H422 0.961 . S
C420 H423 0.960 . S
H421 C420 0.961 . S
H422 C420 0.961 . S
H423 C420 0.960 . S
C424 N425 1.342 1_554 S
C424 C428 1.401 . S
C424 C429 1.499 1_554 S
N425 Co408 1.989 . S
N425 C424 1.342 1_556 S
N425 N426 1.388 1_556 S
N426 Co409 1.993 . S
N426 N425 1.388 1_554 S
N426 C427 1.346 . S
C427 N426 1.346 . S
C427 C428 1.396 . S
C427 C437 1.510 . S
C428 C424 1.401 . S
C428 C427 1.396 . S
C429 C424 1.499 1_556 S
C429 H430 0.959 . S
C429 H431 0.965 . S
C429 H432 0.961 . S
H430 C429 0.959 . S
H431 C429 0.965 . S
H432 C429 0.961 . S
O433 Co408 1.967 . S
O433 C441 1.258 . S
O434 Co409 1.941 1_556 S
O434 C441 1.266 . S
H435 C437 0.959 . S
H436 C437 0.961 . S
C437 C427 1.510 . S
C437 H435 0.959 . S
C437 H436 0.961 . S
C437 H438 0.960 . S
H438 C437 0.960 . S
H439 N419 0.862 . S
O440 Co408 1.920 . S
O440 C413 1.289 . S
C441 O433 1.258 . S
C441 O434 1.266 . S
Co442 O445 1.970 . S
Co442 N459 1.989 . S
Co442 O467 1.967 . S
Co442 O474 1.920 . S
Co443 O446 1.966 . S
Co443 N452 2.022 . S
Co443 N460 1.993 . S
Co443 O468 1.941 1_554 S
C444 O445 1.258 . S
C444 O446 1.263 1_556 S
O445 Co442 1.970 . S
O445 C444 1.258 . S
O446 Co443 1.966 . S
O446 C444 1.263 1_554 S
C447 O448 1.235 . S
C447 O474 1.289 . S
O448 C447 1.235 . S
C449 C451 1.400 . S
C449 N452 1.351 . S
C449 C454 1.501 . S
C450 C451 1.387 . S
C450 N453 1.341 . S
C451 C449 1.400 . S
C451 C450 1.387 . S
N452 Co443 2.022 . S
N452 C449 1.351 . S
N452 N453 1.365 . S
N453 C450 1.341 . S
N453 N452 1.365 . S
N453 H473 0.862 . S
C454 C449 1.501 . S
C454 H455 0.961 . S
C454 H456 0.961 . S
C454 H457 0.960 . S
H455 C454 0.961 . S
H456 C454 0.961 . S
H457 C454 0.960 . S
C458 N459 1.342 1_554 S
C458 C462 1.401 . S
C458 C463 1.499 1_554 S
N459 Co442 1.989 . S
N459 C458 1.342 1_556 S
N459 N460 1.388 1_556 S
N460 Co443 1.993 . S
N460 N459 1.388 1_554 S
N460 C461 1.346 . S
C461 N460 1.346 . S
C461 C462 1.396 . S
C461 C471 1.510 . S
C462 C458 1.401 . S
C462 C461 1.396 . S
C463 C458 1.499 1_556 S
C463 H464 0.959 . S
C463 H465 0.965 . S
C463 H466 0.961 . S
H464 C463 0.959 . S
H465 C463 0.965 . S
H466 C463 0.961 . S
O467 Co442 1.967 . S
O467 C475 1.258 . S
O468 Co443 1.941 1_556 S
O468 C475 1.266 . S
H469 C471 0.959 . S
H470 C471 0.961 . S
C471 C461 1.510 . S
C471 H469 0.959 . S
C471 H470 0.961 . S
C471 H472 0.960 . S
H472 C471 0.960 . S
H473 N453 0.862 . S
O474 Co442 1.920 . S
O474 C447 1.289 . S
C475 O467 1.258 . S
C475 O468 1.266 . S
Co476 O479 1.970 . S
Co476 N493 1.989 . S
Co476 O501 1.967 . S
Co476 O508 1.920 . S
Co477 O480 1.966 . S
Co477 N486 2.022 . S
Co477 N494 1.993 . S
Co477 O502 1.941 . S
C478 O479 1.258 . S
C478 O480 1.263 . S
O479 Co476 1.970 . S
O479 C478 1.258 . S
O480 Co477 1.966 . S
O480 C478 1.263 . S
C481 O482 1.235 . S
C481 O508 1.289 . S
O482 C481 1.235 . S
C483 C485 1.400 . S
C483 N486 1.351 . S
C483 C488 1.501 . S
C484 C485 1.387 . S
C484 N487 1.341 . S
C485 C483 1.400 . S
C485 C484 1.387 . S
N486 Co477 2.022 . S
N486 C483 1.351 . S
N486 N487 1.365 . S
N487 C484 1.341 . S
N487 N486 1.365 . S
N487 H507 0.862 . S
C488 C483 1.501 . S
C488 H489 0.961 . S
C488 H490 0.961 . S
C488 H491 0.960 1_545 S
H489 C488 0.961 . S
H490 C488 0.961 . S
H491 C488 0.960 1_565 S
C492 N493 1.342 . S
C492 C496 1.401 . S
C492 C497 1.499 . S
N493 Co476 1.989 . S
N493 C492 1.342 . S
N493 N494 1.388 . S
N494 Co477 1.993 . S
N494 N493 1.388 . S
N494 C495 1.346 . S
C495 N494 1.346 . S
C495 C496 1.396 . S
C495 C505 1.510 . S
C496 C492 1.401 . S
C496 C495 1.396 . S
C497 C492 1.499 . S
C497 H498 0.959 . S
C497 H499 0.960 . S
C497 H500 0.961 . S
H498 C497 0.959 . S
H499 C497 0.960 . S
H500 C497 0.961 . S
O501 Co476 1.967 . S
O501 C509 1.258 . S
O502 Co477 1.941 . S
O502 C509 1.266 . S
H503 C505 0.959 . S
H504 C505 0.961 . S
C505 C495 1.510 . S
C505 H503 0.959 . S
C505 H504 0.961 . S
C505 H506 0.960 . S
H506 C505 0.960 . S
H507 N487 0.862 . S
O508 Co476 1.920 . S
O508 C481 1.289 . S
C509 O501 1.258 . S
C509 O502 1.266 . S
Co510 O513 1.970 . S
Co510 N527 1.989 . S
Co510 O535 1.967 . S
Co510 O542 1.920 . S
Co511 O514 1.966 . S
Co511 N520 2.022 . S
Co511 N528 1.993 . S
Co511 O536 1.941 . S
C512 O513 1.258 . S
C512 O514 1.263 . S
O513 Co510 1.970 . S
O513 C512 1.258 . S
O514 Co511 1.966 . S
O514 C512 1.263 . S
C515 O516 1.235 . S
C515 O542 1.289 . S
O516 C515 1.235 . S
C517 C519 1.400 . S
C517 N520 1.351 . S
C517 C522 1.501 . S
C518 C519 1.387 . S
C518 N521 1.341 . S
C519 C517 1.400 . S
C519 C518 1.387 . S
N520 Co511 2.022 . S
N520 C517 1.351 . S
N520 N521 1.365 . S
N521 C518 1.341 . S
N521 N520 1.365 . S
N521 H541 0.862 . S
C522 C517 1.501 . S
C522 H523 0.961 . S
C522 H524 0.961 . S
C522 H525 0.960 1_565 S
H523 C522 0.961 . S
H524 C522 0.961 . S
H525 C522 0.960 1_545 S
C526 N527 1.342 . S
C526 C530 1.401 . S
C526 C531 1.499 . S
N527 Co510 1.989 . S
N527 C526 1.342 . S
N527 N528 1.388 . S
N528 Co511 1.993 . S
N528 N527 1.388 . S
N528 C529 1.346 . S
C529 N528 1.346 . S
C529 C530 1.396 . S
C529 C539 1.510 . S
C530 C526 1.401 . S
C530 C529 1.396 . S
C531 C526 1.499 . S
C531 H532 0.959 . S
C531 H533 0.960 . S
C531 H534 0.961 . S
H532 C531 0.959 . S
H533 C531 0.960 . S
H534 C531 0.961 . S
O535 Co510 1.967 . S
O535 C543 1.258 . S
O536 Co511 1.941 . S
O536 C543 1.266 . S
H537 C539 0.959 . S
H538 C539 0.961 . S
C539 C529 1.510 . S
C539 H537 0.959 . S
C539 H538 0.961 . S
C539 H540 0.960 . S
H540 C539 0.960 . S
H541 N521 0.862 . S
O542 Co510 1.920 . S
O542 C515 1.289 . S
C543 O535 1.258 . S
C543 O536 1.266 . S
C544 C545 1.369 . S
C544 C546 1.419 . S
C544 H548 0.930 . S
C545 C544 1.369 . S
C545 C554 1.429 . S
C546 C544 1.419 . S
C546 C547 1.363 . S
C546 H549 0.929 . S
C547 C546 1.363 . S
C547 C553 1.428 . S
H548 C544 0.930 . S
H549 C546 0.929 . S
S550 N551 1.613 . S
S550 N552 1.610 . S
N551 S550 1.613 . S
N551 C554 1.350 . S
N552 S550 1.610 . S
N552 C553 1.351 . S
C553 C547 1.428 . S
C553 N552 1.351 . S
C553 C554 1.434 . S
C554 C545 1.429 . S
C554 N551 1.350 . S
C554 C553 1.434 . S
C555 C556 1.369 . S
C555 C557 1.419 . S
C555 H559 0.930 . S
C556 C555 1.369 . S
C556 C565 1.429 . S
C557 C555 1.419 . S
C557 C558 1.363 . S
C557 H560 0.929 . S
C558 C557 1.363 . S
C558 C564 1.428 . S
H559 C555 0.930 . S
H560 C557 0.929 . S
S561 N562 1.613 . S
S561 N563 1.610 . S
N562 S561 1.613 . S
N562 C565 1.350 . S
N563 S561 1.610 . S
N563 C564 1.351 . S
C564 C558 1.428 . S
C564 N563 1.351 . S
C564 C565 1.434 . S
C565 C556 1.429 . S
C565 N562 1.350 . S
C565 C564 1.434 . S
C566 C567 1.369 1_655 S
C566 C568 1.419 1_655 S
C566 H570 0.930 . S
C567 C566 1.369 1_455 S
C567 C576 1.429 . S
C568 C566 1.419 1_455 S
C568 C569 1.363 . S
C568 H571 0.938 . S
C569 C568 1.363 . S
C569 C575 1.428 . S
H570 C566 0.930 . S
H571 C568 0.938 . S
S572 N573 1.613 . S
S572 N574 1.610 . S
N573 S572 1.613 . S
N573 C576 1.350 . S
N574 S572 1.610 . S
N574 C575 1.351 . S
C575 C569 1.428 . S
C575 N574 1.351 . S
C575 C576 1.434 . S
C576 C567 1.429 . S
C576 N573 1.350 . S
C576 C575 1.434 . S
C577 C578 1.369 1_455 S
C577 C579 1.419 1_455 S
C577 H581 0.930 . S
C578 C577 1.369 1_655 S
C578 C587 1.429 . S
C579 C577 1.419 1_655 S
C579 C580 1.363 . S
C579 H582 0.929 . S
C580 C579 1.363 . S
C580 C586 1.428 . S
H581 C577 0.930 . S
H582 C579 0.929 . S
S583 N584 1.613 . S
S583 N585 1.610 1_556 S
N584 S583 1.613 . S
N584 C587 1.350 1_556 S
N585 S583 1.610 1_554 S
N585 C586 1.351 . S
C586 C580 1.428 . S
C586 N585 1.351 . S
C586 C587 1.434 . S
C587 C578 1.429 . S
C587 N584 1.350 1_554 S
C587 C586 1.434 . S
C588 C589 1.369 . S
C588 C590 1.419 . S
C588 H592 0.930 . S
C589 C588 1.369 . S
C589 C598 1.429 . S
C590 C588 1.419 . S
C590 C591 1.363 . S
C590 H593 0.929 . S
C591 C590 1.363 . S
C591 C597 1.428 . S
H592 C588 0.930 . S
H593 C590 0.929 . S
S594 N595 1.613 . S
S594 N596 1.610 . S
N595 S594 1.613 . S
N595 C598 1.350 . S
N596 S594 1.610 . S
N596 C597 1.351 . S
C597 C591 1.428 . S
C597 N596 1.351 . S
C597 C598 1.434 . S
C598 C589 1.429 . S
C598 N595 1.350 . S
C598 C597 1.434 . S
C599 C600 1.369 . S
C599 C601 1.419 . S
C599 H603 0.930 . S
C600 C599 1.369 . S
C600 C609 1.429 . S
C601 C599 1.419 . S
C601 C602 1.363 . S
C601 H604 0.929 . S
C602 C601 1.363 . S
C602 C608 1.428 . S
H603 C599 0.930 . S
H604 C601 0.929 . S
S605 N606 1.613 . S
S605 N607 1.610 . S
N606 S605 1.613 . S
N606 C609 1.350 . S
N607 S605 1.610 . S
N607 C608 1.351 . S
C608 C602 1.428 . S
C608 N607 1.351 . S
C608 C609 1.434 . S
C609 C600 1.429 . S
C609 N606 1.350 . S
C609 C608 1.434 . S
C610 C611 1.369 1_655 S
C610 C612 1.419 1_655 S
C610 H614 0.930 . S
C611 C610 1.369 1_455 S
C611 C620 1.429 . S
C612 C610 1.419 1_455 S
C612 C613 1.363 . S
C612 H615 0.929 1_455 S
C613 C612 1.363 . S
C613 C619 1.428 . S
H614 C610 0.930 . S
H615 C612 0.929 1_655 S
S616 N617 1.613 . S
S616 N618 1.610 . S
N617 S616 1.613 . S
N617 C620 1.350 . S
N618 S616 1.610 . S
N618 C619 1.351 . S
C619 C613 1.428 . S
C619 N618 1.351 . S
C619 C620 1.434 . S
C620 C611 1.429 . S
C620 N617 1.350 . S
C620 C619 1.434 . S
C621 C622 1.369 . S
C621 C623 1.419 1_655 S
C621 H625 0.930 1_655 S
C622 C621 1.369 . S
C622 C631 1.429 . S
C623 C621 1.419 1_455 S
C623 C624 1.363 1_455 S
C623 H626 0.929 . S
C624 C623 1.363 1_655 S
C624 C630 1.428 . S
H625 C621 0.930 1_455 S
H626 C623 0.929 . S
S627 N628 1.613 . S
S627 N629 1.610 . S
N628 S627 1.613 . S
N628 C631 1.350 . S
N629 S627 1.610 . S
N629 C630 1.351 . S
C630 C624 1.428 . S
C630 N629 1.351 . S
C630 C631 1.434 . S
C631 C622 1.429 . S
C631 N628 1.350 . S
C631 C630 1.434 . S
C632 C633 1.369 . S
C632 C634 1.419 . S
C632 H636 0.930 . S
C633 C632 1.369 . S
C633 C642 1.429 . S
C634 C632 1.419 . S
C634 C635 1.363 . S
C634 H637 0.929 . S
C635 C634 1.363 . S
C635 C641 1.428 . S
H636 C632 0.930 . S
H637 C634 0.929 . S
S638 N639 1.613 . S
S638 N640 1.610 . S
N639 S638 1.613 . S
N639 C642 1.350 . S
N640 S638 1.610 . S
N640 C641 1.351 . S
C641 C635 1.428 . S
C641 N640 1.351 . S
C641 C642 1.434 . S
C642 C633 1.429 . S
C642 N639 1.350 . S
C642 C641 1.434 . S
C643 C644 1.369 . S
C643 C645 1.419 . S
C643 H647 0.930 . S
C644 C643 1.369 . S
C644 C653 1.429 . S
C645 C643 1.419 . S
C645 C646 1.363 . S
C645 H648 0.929 . S
C646 C645 1.363 . S
C646 C652 1.428 . S
H647 C643 0.930 . S
H648 C645 0.929 . S
S649 N650 1.613 . S
S649 N651 1.610 . S
N650 S649 1.613 . S
N650 C653 1.350 . S
N651 S649 1.610 . S
N651 C652 1.351 . S
C652 C646 1.428 . S
C652 N651 1.351 . S
C652 C653 1.434 . S
C653 C644 1.429 . S
C653 N650 1.350 . S
C653 C652 1.434 . S
C654 C655 1.369 . S
C654 C656 1.419 . S
C654 H658 0.930 . S
C655 C654 1.369 . S
C655 C664 1.429 . S
C656 C654 1.419 . S
C656 C657 1.363 . S
C656 H659 0.929 . S
C657 C656 1.363 . S
C657 C663 1.428 . S
H658 C654 0.930 . S
H659 C656 0.929 . S
S660 N661 1.613 . S
S660 N662 1.610 . S
N661 S660 1.613 . S
N661 C664 1.350 . S
N662 S660 1.610 . S
N662 C663 1.351 . S
C663 C657 1.428 . S
C663 N662 1.351 . S
C663 C664 1.434 . S
C664 C655 1.429 . S
C664 N661 1.350 . S
C664 C663 1.434 . S
C665 C666 1.369 . S
C665 C667 1.419 . S
C665 H669 0.930 . S
C666 C665 1.369 . S
C666 C675 1.429 . S
C667 C665 1.419 . S
C667 C668 1.363 . S
C667 H670 0.929 . S
C668 C667 1.363 . S
C668 C674 1.428 . S
H669 C665 0.930 . S
H670 C667 0.929 . S
S671 N672 1.613 . S
S671 N673 1.610 . S
N672 S671 1.613 . S
N672 C675 1.350 . S
N673 S671 1.610 . S
N673 C674 1.351 . S
C674 C668 1.428 . S
C674 N673 1.351 . S
C674 C675 1.434 . S
C675 C666 1.429 . S
C675 N672 1.350 . S
C675 C674 1.434 . S
C676 C677 1.369 . S
C676 C678 1.419 . S
C676 H680 0.930 . S
C677 C676 1.369 . S
C677 C686 1.429 . S
C678 C676 1.419 . S
C678 C679 1.363 . S
C678 H681 0.929 . S
C679 C678 1.363 . S
C679 C685 1.428 . S
H680 C676 0.930 . S
H681 C678 0.929 . S
S682 N683 1.613 . S
S682 N684 1.610 . S
N683 S682 1.613 . S
N683 C686 1.350 . S
N684 S682 1.610 . S
N684 C685 1.351 . S
C685 C679 1.428 . S
C685 N684 1.351 . S
C685 C686 1.434 . S
C686 C677 1.429 . S
C686 N683 1.350 . S
C686 C685 1.434 . S
C687 C688 1.369 . S
C687 C689 1.419 . S
C687 H691 0.930 . S
C688 C687 1.369 . S
C688 C697 1.429 . S
C689 C687 1.419 . S
C689 C690 1.363 . S
C689 H692 0.929 . S
C690 C689 1.363 . S
C690 C696 1.428 . S
H691 C687 0.930 . S
H692 C689 0.929 . S
S693 N694 1.613 . S
S693 N695 1.610 . S
N694 S693 1.613 . S
N694 C697 1.350 . S
N695 S693 1.610 . S
N695 C696 1.351 . S
C696 C690 1.428 . S
C696 N695 1.351 . S
C696 C697 1.434 . S
C697 C688 1.429 . S
C697 N694 1.350 . S
C697 C696 1.434 . S
C698 C699 1.369 . S
C698 C700 1.419 . S
C698 H702 0.930 . S
C699 C698 1.369 . S
C699 C708 1.429 . S
C700 C698 1.419 . S
C700 C701 1.363 . S
C700 H703 0.929 . S
C701 C700 1.363 . S
C701 C707 1.428 . S
H702 C698 0.930 . S
H703 C700 0.929 . S
S704 N705 1.613 . S
S704 N706 1.610 . S
N705 S704 1.613 . S
N705 C708 1.350 . S
N706 S704 1.610 . S
N706 C707 1.351 . S
C707 C701 1.428 . S
C707 N706 1.351 . S
C707 C708 1.434 . S
C708 C699 1.429 . S
C708 N705 1.350 . S
C708 C707 1.434 . S
C709 C710 1.369 . S
C709 C711 1.419 . S
C709 H713 0.930 . S
C710 C709 1.369 . S
C710 C719 1.429 . S
C711 C709 1.419 . S
C711 C712 1.363 . S
C711 H714 0.929 . S
C712 C711 1.363 . S
C712 C718 1.428 . S
H713 C709 0.930 . S
H714 C711 0.929 . S
S715 N716 1.613 . S
S715 N717 1.610 . S
N716 S715 1.613 . S
N716 C719 1.350 . S
N717 S715 1.610 . S
N717 C718 1.351 . S
C718 C712 1.428 . S
C718 N717 1.351 . S
C718 C719 1.434 . S
C719 C710 1.429 . S
C719 N716 1.350 . S
C719 C718 1.434 . S
C720 C721 1.369 1_455 S
C720 C722 1.419 . S
C720 H724 0.930 . S
C721 C720 1.369 1_655 S
C721 C730 1.429 . S
C722 C720 1.419 . S
C722 C723 1.363 1_455 S
C722 H725 0.929 . S
C723 C722 1.363 1_655 S
C723 C729 1.428 . S
H724 C720 0.930 . S
H725 C722 0.929 . S
S726 N727 1.613 . S
S726 N728 1.610 . S
N727 S726 1.613 . S
N727 C730 1.350 . S
N728 S726 1.610 . S
N728 C729 1.351 . S
C729 C723 1.428 . S
C729 N728 1.351 . S
C729 C730 1.434 . S
C730 C721 1.429 . S
C730 N727 1.350 . S
C730 C729 1.434 . S
C731 C732 1.369 . S
C731 C733 1.419 1_455 S
C731 H735 0.930 1_455 S
C732 C731 1.369 . S
C732 C741 1.429 . S
C733 C731 1.419 1_655 S
C733 C734 1.363 1_655 S
C733 H736 0.929 . S
C734 C733 1.363 1_455 S
C734 C740 1.428 . S
H735 C731 0.930 1_655 S
H736 C733 0.929 . S
S737 N738 1.613 . S
S737 N739 1.610 . S
N738 S737 1.613 . S
N738 C741 1.350 . S
N739 S737 1.610 . S
N739 C740 1.351 . S
C740 C734 1.428 . S
C740 N739 1.351 . S
C740 C741 1.434 . S
C741 C732 1.429 . S
C741 N738 1.350 . S
C741 C740 1.434 . S
C742 C743 1.369 . S
C742 C744 1.419 . S
C742 H746 0.930 . S
C743 C742 1.369 . S
C743 C752 1.429 . S
C744 C742 1.419 . S
C744 C745 1.363 . S
C744 H747 0.929 . S
C745 C744 1.363 . S
C745 C751 1.428 . S
H746 C742 0.930 . S
H747 C744 0.929 . S
S748 N749 1.613 . S
S748 N750 1.610 . S
N749 S748 1.613 . S
N749 C752 1.350 . S
N750 S748 1.610 . S
N750 C751 1.351 . S
C751 C745 1.428 . S
C751 N750 1.351 . S
C751 C752 1.434 . S
C752 C743 1.429 . S
C752 N749 1.350 . S
C752 C751 1.434 . S
C753 C754 1.369 . S
C753 C755 1.419 . S
C753 H757 0.930 . S
C754 C753 1.369 . S
C754 C763 1.429 . S
C755 C753 1.419 . S
C755 C756 1.363 . S
C755 H758 0.929 . S
C756 C755 1.363 . S
C756 C762 1.428 . S
H757 C753 0.930 . S
H758 C755 0.929 . S
S759 N760 1.613 . S
S759 N761 1.610 . S
N760 S759 1.613 . S
N760 C763 1.350 . S
N761 S759 1.610 . S
N761 C762 1.351 . S
C762 C756 1.428 . S
C762 N761 1.351 . S
C762 C763 1.434 . S
C763 C754 1.429 . S
C763 N760 1.350 . S
C763 C762 1.434 . S
C764 C765 1.369 . S
C764 C766 1.419 . S
C764 H768 0.930 . S
C765 C764 1.369 . S
C765 C774 1.429 . S
C766 C764 1.419 . S
C766 C767 1.363 . S
C766 H769 0.929 . S
C767 C766 1.363 . S
C767 C773 1.428 . S
H768 C764 0.930 . S
H769 C766 0.929 . S
S770 N771 1.613 1_455 S
S770 N772 1.610 . S
N771 S770 1.613 1_655 S
N771 C774 1.350 . S
N772 S770 1.610 . S
N772 C773 1.351 1_455 S
C773 C767 1.428 . S
C773 N772 1.351 1_655 S
C773 C774 1.434 . S
C774 C765 1.429 . S
C774 N771 1.350 . S
C774 C773 1.434 . S
C775 C776 1.369 . S
C775 C777 1.419 . S
C775 H779 0.930 . S
C776 C775 1.369 . S
C776 C785 1.429 1_455 S
C777 C775 1.419 . S
C777 C778 1.363 . S
C777 H780 0.929 . S
C778 C777 1.363 . S
C778 C784 1.428 1_455 S
H779 C775 0.930 . S
H780 C777 0.929 . S
S781 N782 1.613 . S
S781 N783 1.610 . S
N782 S781 1.613 . S
N782 C785 1.350 . S
N783 S781 1.610 . S
N783 C784 1.351 . S
C784 C778 1.428 1_655 S
C784 N783 1.351 . S
C784 C785 1.434 . S
C785 C776 1.429 1_655 S
C785 N782 1.350 . S
C785 C784 1.434 . S
C786 C787 1.369 1_544 S
C786 C788 1.419 1_545 S
C786 H790 0.930 . S
C787 C786 1.369 1_566 S
C787 C796 1.429 . S
C788 C786 1.419 1_565 S
C788 C789 1.363 . S
C788 H791 0.929 1_565 S
C789 C788 1.363 . S
C789 C795 1.428 . S
H790 C786 0.930 . S
H791 C788 0.929 1_545 S
S792 N793 1.613 . S
S792 N794 1.610 1_556 S
N793 S792 1.613 . S
N793 C796 1.350 . S
N794 S792 1.610 1_554 S
N794 C795 1.351 . S
C795 C789 1.428 . S
C795 N794 1.351 . S
C795 C796 1.434 1_554 S
C796 C787 1.429 . S
C796 N793 1.350 . S
C796 C795 1.434 1_556 S
C797 C798 1.369 1_564 S
C797 C799 1.419 1_565 S
C797 H801 0.930 . S
C798 C797 1.369 1_546 S
C798 C807 1.429 . S
C799 C797 1.419 1_545 S
C799 C800 1.363 . S
C799 H802 0.929 1_545 S
C800 C799 1.363 . S
C800 C806 1.428 . S
H801 C797 0.930 . S
H802 C799 0.929 1_565 S
S803 N804 1.614 1_554 S
S803 N805 1.610 . S
N804 S803 1.614 1_556 S
N804 C807 1.350 . S
N805 S803 1.610 . S
N805 C806 1.351 . S
C806 C800 1.428 . S
C806 N805 1.351 . S
C806 C807 1.434 1_554 S
C807 C798 1.429 . S
C807 N804 1.350 . S
C807 C806 1.434 1_556 S
C808 C809 1.369 . S
C808 C810 1.419 . S
C808 H812 0.930 . S
C809 C808 1.369 . S
C809 C818 1.429 . S
C810 C808 1.419 . S
C810 C811 1.363 . S
C810 H813 0.929 . S
C811 C810 1.363 . S
C811 C817 1.428 . S
H812 C808 0.930 . S
H813 C810 0.929 . S
S814 N815 1.613 . S
S814 N816 1.610 . S
N815 S814 1.613 . S
N815 C818 1.350 . S
N816 S814 1.610 . S
N816 C817 1.351 . S
C817 C811 1.428 . S
C817 N816 1.351 . S
C817 C818 1.434 . S
C818 C809 1.429 . S
C818 N815 1.350 . S
C818 C817 1.434 . S
C819 C820 1.369 . S
C819 C821 1.419 . S
C819 H823 0.930 . S
C820 C819 1.369 . S
C820 C829 1.429 . S
C821 C819 1.419 . S
C821 C822 1.363 . S
C821 H824 0.929 . S
C822 C821 1.363 . S
C822 C828 1.428 . S
H823 C819 0.930 . S
H824 C821 0.929 . S
S825 N826 1.613 . S
S825 N827 1.610 . S
N826 S825 1.613 . S
N826 C829 1.350 . S
N827 S825 1.610 . S
N827 C828 1.351 . S
C828 C822 1.428 . S
C828 N827 1.351 . S
C828 C829 1.434 . S
C829 C820 1.429 . S
C829 N826 1.350 . S
C829 C828 1.434 . S
C830 C831 1.369 . S
C830 C832 1.419 . S
C830 H834 0.930 . S
C831 C830 1.369 . S
C831 C840 1.429 . S
C832 C830 1.419 . S
C832 C833 1.363 1_554 S
C832 H835 0.929 1_554 S
C833 C832 1.363 1_556 S
C833 C839 1.428 . S
H834 C830 0.930 . S
H835 C832 0.929 1_556 S
S836 N837 1.623 . S
S836 N838 1.604 1_554 S
N837 S836 1.623 . S
N837 C840 1.350 . S
N838 S836 1.604 1_556 S
N838 C839 1.351 . S
C839 C833 1.428 . S
C839 N838 1.351 . S
C839 C840 1.434 1_556 S
C840 C831 1.429 . S
C840 N837 1.350 . S
C840 C839 1.434 1_554 S
C841 C842 1.369 . S
C841 C843 1.419 1_554 S
C841 H845 0.930 . S
C842 C841 1.369 . S
C842 C851 1.429 . S
C843 C841 1.419 1_556 S
C843 C844 1.363 . S
C843 H846 0.929 . S
C844 C843 1.363 . S
C844 C850 1.428 1_556 S
H845 C841 0.930 . S
H846 C843 0.929 . S
S847 N848 1.613 . S
S847 N849 1.610 . S
N848 S847 1.613 . S
N848 C851 1.350 . S
N849 S847 1.610 . S
N849 C850 1.351 . S
C850 C844 1.428 1_554 S
C850 N849 1.351 . S
C850 C851 1.434 . S
C851 C842 1.429 . S
C851 N848 1.350 . S
C851 C850 1.434 . S
C852 C853 1.369 . S
C852 C854 1.419 . S
C852 H856 0.930 . S
C853 C852 1.369 . S
C853 C862 1.429 . S
C854 C852 1.419 . S
C854 C855 1.363 . S
C854 H857 0.929 . S
C855 C854 1.363 . S
C855 C861 1.428 . S
H856 C852 0.930 . S
H857 C854 0.929 . S
S858 N859 1.613 . S
S858 N860 1.610 . S
N859 S858 1.613 . S
N859 C862 1.350 . S
N860 S858 1.610 . S
N860 C861 1.351 . S
C861 C855 1.428 . S
C861 N860 1.351 . S
C861 C862 1.434 . S
C862 C853 1.429 . S
C862 N859 1.350 . S
C862 C861 1.434 . S
C863 C864 1.369 . S
C863 C865 1.419 . S
C863 H867 0.930 . S
C864 C863 1.369 . S
C864 C873 1.429 . S
C865 C863 1.419 . S
C865 C866 1.363 . S
C865 H868 0.929 . S
C866 C865 1.363 . S
C866 C872 1.428 . S
H867 C863 0.930 . S
H868 C865 0.929 . S
S869 N870 1.613 . S
S869 N871 1.610 . S
N870 S869 1.613 . S
N870 C873 1.350 . S
N871 S869 1.610 . S
N871 C872 1.351 . S
C872 C866 1.428 . S
C872 N871 1.351 . S
C872 C873 1.434 . S
C873 C864 1.429 . S
C873 N870 1.350 . S
C873 C872 1.434 . S
C874 C875 1.369 . S
C874 C876 1.419 . S
C874 H878 0.930 . S
C875 C874 1.369 . S
C875 C884 1.425 . S
C876 C874 1.419 . S
C876 C877 1.363 . S
C876 H879 0.929 . S
C877 C876 1.363 . S
C877 C883 1.428 1_565 S
H878 C874 0.930 . S
H879 C876 0.929 . S
S880 N881 1.613 . S
S880 N882 1.610 . S
N881 S880 1.613 . S
N881 C884 1.353 1_545 S
N882 S880 1.610 . S
N882 C883 1.351 . S
C883 C877 1.428 1_545 S
C883 N882 1.351 . S
C883 C884 1.435 1_545 S
C884 C875 1.425 . S
C884 N881 1.353 1_565 S
C884 C883 1.435 1_565 S
C885 C886 1.369 . S
C885 C887 1.419 . S
C885 H889 0.930 . S
C886 C885 1.369 . S
C886 C895 1.429 . S
C887 C885 1.419 . S
C887 C888 1.363 . S
C887 H890 0.929 . S
C888 C887 1.363 . S
C888 C894 1.428 1_545 S
H889 C885 0.930 . S
H890 C887 0.929 . S
S891 N892 1.613 . S
S891 N893 1.610 . S
N892 S891 1.613 . S
N892 C895 1.350 1_565 S
N893 S891 1.610 . S
N893 C894 1.351 . S
C894 C888 1.428 1_565 S
C894 N893 1.351 . S
C894 C895 1.434 1_565 S
C895 C886 1.429 . S
C895 N892 1.350 1_545 S
C895 C894 1.434 1_545 S
C896 C897 1.369 1_554 S
C896 C898 1.419 . S
C896 H900 0.930 . S
C897 C896 1.369 1_556 S
C897 C906 1.429 . S
C898 C896 1.419 . S
C898 C899 1.363 1_554 S
C898 H901 0.929 . S
C899 C898 1.363 1_556 S
C899 C905 1.428 . S
H900 C896 0.930 . S
H901 C898 0.929 . S
S902 N903 1.613 . S
S902 N904 1.610 . S
N903 S902 1.613 . S
N903 C906 1.350 . S
N904 S902 1.610 . S
N904 C905 1.351 . S
C905 C899 1.428 . S
C905 N904 1.351 . S
C905 C906 1.434 . S
C906 C897 1.429 . S
C906 N903 1.350 . S
C906 C905 1.434 . S
C907 C908 1.369 . S
C907 C909 1.419 . S
C907 H911 0.930 . S
C908 C907 1.369 . S
C908 C917 1.429 1_556 S
C909 C907 1.419 . S
C909 C910 1.363 . S
C909 H912 0.929 . S
C910 C909 1.363 . S
C910 C916 1.428 1_556 S
H911 C907 0.930 . S
H912 C909 0.929 . S
S913 N914 1.613 . S
S913 N915 1.610 . S
N914 S913 1.613 . S
N914 C917 1.350 . S
N915 S913 1.610 . S
N915 C916 1.351 . S
C916 C910 1.428 1_554 S
C916 N915 1.351 . S
C916 C917 1.434 . S
C917 C908 1.429 1_554 S
C917 N914 1.350 . S
C917 C916 1.434 . S
C918 C919 1.369 . S
C918 C920 1.419 1_455 S
C918 H922 0.930 . S
C919 C918 1.369 . S
C919 C928 1.429 . S
C920 C918 1.419 1_655 S
C920 C921 1.363 . S
C920 H923 0.929 . S
C921 C920 1.363 . S
C921 C927 1.428 . S
H922 C918 0.930 . S
H923 C920 0.929 . S
S924 N925 1.613 . S
S924 N926 1.612 . S
N925 S924 1.613 . S
N925 C928 1.350 . S
N926 S924 1.612 . S
N926 C927 1.351 1_455 S
C927 C921 1.428 . S
C927 N926 1.351 1_655 S
C927 C928 1.434 1_655 S
C928 C919 1.429 . S
C928 N925 1.350 . S
C928 C927 1.434 1_455 S
C929 C930 1.369 . S
C929 C931 1.419 . S
C929 H933 0.930 . S
C930 C929 1.369 . S
C930 C939 1.429 . S
C931 C929 1.419 . S
C931 C932 1.363 . S
C931 H934 0.929 . S
C932 C931 1.363 . S
C932 C938 1.428 . S
H933 C929 0.930 . S
H934 C931 0.929 . S
S935 N936 1.613 . S
S935 N937 1.610 . S
N936 S935 1.613 . S
N936 C939 1.350 . S
N937 S935 1.610 . S
N937 C938 1.351 . S
C938 C932 1.428 . S
C938 N937 1.351 . S
C938 C939 1.434 . S
C939 C930 1.429 . S
C939 N936 1.350 . S
C939 C938 1.434 . S
C940 C941 1.369 . S
C940 C942 1.419 . S
C940 H944 0.930 . S
C941 C940 1.369 . S
C941 C950 1.429 . S
C942 C940 1.419 . S
C942 C943 1.363 . S
C942 H945 0.929 . S
C943 C942 1.363 . S
C943 C949 1.428 . S
H944 C940 0.930 . S
H945 C942 0.929 . S
S946 N947 1.613 . S
S946 N948 1.610 . S
N947 S946 1.613 . S
N947 C950 1.350 . S
N948 S946 1.610 . S
N948 C949 1.351 . S
C949 C943 1.428 . S
C949 N948 1.351 . S
C949 C950 1.434 . S
C950 C941 1.429 . S
C950 N947 1.350 . S
C950 C949 1.434 . S
C951 C952 1.369 . S
C951 C953 1.419 1_455 S
C951 H955 0.930 . S
C952 C951 1.369 . S
C952 C961 1.429 1_545 S
C953 C951 1.419 1_655 S
C953 C954 1.363 1_545 S
C953 H956 0.929 . S
C954 C953 1.363 1_565 S
C954 C960 1.429 . S
H955 C951 0.930 . S
H956 C953 0.929 . S
S957 N958 1.613 . S
S957 N959 1.610 . S
N958 S957 1.613 . S
N958 C961 1.350 . S
N959 S957 1.610 . S
N959 C960 1.351 1_455 S
C960 C954 1.429 . S
C960 N959 1.351 1_655 S
C960 C961 1.433 1_655 S
C961 C952 1.429 1_565 S
C961 N958 1.350 . S
C961 C960 1.433 1_455 S
C962 C963 1.369 . S
C962 C964 1.419 . S
C962 H966 0.930 . S
C963 C962 1.369 . S
C963 C972 1.429 . S
C964 C962 1.419 . S
C964 C965 1.363 . S
C964 H967 0.929 . S
C965 C964 1.363 . S
C965 C971 1.428 . S
H966 C962 0.930 . S
H967 C964 0.929 . S
S968 N969 1.613 . S
S968 N970 1.610 . S
N969 S968 1.613 . S
N969 C972 1.350 . S
N970 S968 1.610 . S
N970 C971 1.351 . S
C971 C965 1.428 . S
C971 N970 1.351 . S
C971 C972 1.434 . S
C972 C963 1.429 . S
C972 N969 1.350 . S
C972 C971 1.434 . S
C973 C974 1.369 . S
C973 C975 1.419 . S
C973 H977 0.930 . S
C974 C973 1.369 . S
C974 C983 1.429 1_565 S
C975 C973 1.419 . S
C975 C976 1.363 1_565 S
C975 H978 0.929 . S
C976 C975 1.363 1_545 S
C976 C982 1.428 . S
H977 C973 0.930 . S
H978 C975 0.929 . S
S979 N980 1.613 . S
S979 N981 1.610 . S
N980 S979 1.613 . S
N980 C983 1.350 . S
N981 S979 1.610 . S
N981 C982 1.351 . S
C982 C976 1.428 . S
C982 N981 1.351 . S
C982 C983 1.434 . S
C983 C974 1.429 1_545 S
C983 N980 1.350 . S
C983 C982 1.434 . S
C545 C5 1.401 . S
C547 C394 1.447 . S
C556 C39 1.399 . S
C558 C360 1.448 . S
C567 C54 1.447 1_455 S
C569 C73 1.399 . S
C578 C20 1.445 1_655 S
C580 C107 1.402 . S
C589 C141 1.395 . S
C591 C530 1.446 . S
C600 C175 1.404 . S
C602 C496 1.445 . S
C611 C190 1.446 1_455 S
C613 C209 1.402 . S
C622 C243 1.399 . S
C624 C156 1.447 1_655 S
C633 C122 1.447 . S
C635 C277 1.399 . S
C644 C88 1.445 . S
C646 C311 1.403 . S
C655 C326 1.446 . S
C657 C345 1.402 . S
C666 C292 1.445 . S
C668 C379 1.403 . S
C677 C413 1.395 . S
C679 C258 1.447 . S
C688 C447 1.402 . S
C690 C224 1.447 . S
C699 C481 1.402 . S
C701 C462 1.444 . S
C710 C428 1.447 . S
C712 C515 1.395 . S
C721 C203 1.558 . S
C723 C9 1.522 1_655 S
C732 C169 1.558 . S
C734 C43 1.522 1_455 S
C743 C77 1.527 . S
C745 C407 1.558 . S
C754 C373 1.559 . S
C756 C111 1.528 . S
C765 C67 1.558 . S
C767 C145 1.530 1_655 S
C776 C33 1.559 . S
C778 C179 1.530 1_455 S
C787 C213 1.528 1_565 S
C789 C543 1.558 . S
C798 C247 1.529 1_545 S
C800 C509 1.558 . S
C809 C281 1.523 . S
C811 C475 1.560 . S
C820 C441 1.558 . S
C822 C315 1.527 . S
C831 C135 1.558 . S
C833 C349 1.527 . S
C842 C101 1.559 . S
C844 C383 1.529 . S
C853 C339 1.558 . S
C855 C417 1.524 . S
C864 C305 1.558 . S
C866 C451 1.522 . S
C875 C271 1.559 . S
C877 C485 1.527 1_565 S
C886 C237 1.558 . S
C888 C519 1.525 1_545 S
C897 C444 1.720 . S
C899 C2 1.720 . S
C908 C36 1.721 . S
C910 C410 1.721 . S
C919 C70 1.720 . S
C921 C104 1.720 . S
C930 C308 1.721 . S
C932 C138 1.720 . S
C941 C172 1.721 . S
C943 C274 1.720 . S
C952 C206 1.721 . S
C954 C240 1.721 . S
C963 C376 1.721 . S
C965 C342 1.721 . S
C974 C512 1.720 . S
C976 C478 1.721 . S
