# Generated by pormake.
# Topology uop, (4)-cn, num edge types: 1
# Building blocks:
#     Node 0, Type 0, BuildingBlock: MUDLON_clean_sbu_0, # of connection points: 4
#     Node 1, Type 0, BuildingBlock: MUDLON_clean_sbu_0, # of connection points: 4
#     Node 2, Type 0, BuildingBlock: MUDLON_clean_sbu_0, # of connection points: 4
#     Node 3, Type 0, BuildingBlock: MUDLON_clean_sbu_0, # of connection points: 4
#     Node 4, Type 0, BuildingBlock: MUDLON_clean_sbu_0, # of connection points: 4
#     Node 5, Type 0, BuildingBlock: MUDLON_clean_sbu_0, # of connection points: 4
#     Node 6, Type 0, BuildingBlock: MUDLON_clean_sbu_0, # of connection points: 4
#     Node 7, Type 0, BuildingBlock: MUDLON_clean_sbu_0, # of connection points: 4
#     Node 8, Type 0, BuildingBlock: MUDLON_clean_sbu_0, # of connection points: 4
#     Node 9, Type 0, BuildingBlock: MUDLON_clean_sbu_0, # of connection points: 4
#     Node 10, Type 0, BuildingBlock: MUDLON_clean_sbu_0, # of connection points: 4
#     Node 11, Type 0, BuildingBlock: MUDLON_clean_sbu_0, # of connection points: 4
#     Edge 12, Type (0, 0), BuildingBlock: AJUNOK_clean_linker_0, # of connection points: 2
#     Edge 13, Type (0, 0), BuildingBlock: AJUNOK_clean_linker_0, # of connection points: 2
#     Edge 14, Type (0, 0), BuildingBlock: AJUNOK_clean_linker_0, # of connection points: 2
#     Edge 15, Type (0, 0), BuildingBlock: AJUNOK_clean_linker_0, # of connection points: 2
#     Edge 16, Type (0, 0), BuildingBlock: AJUNOK_clean_linker_0, # of connection points: 2
#     Edge 17, Type (0, 0), BuildingBlock: AJUNOK_clean_linker_0, # of connection points: 2
#     Edge 18, Type (0, 0), BuildingBlock: AJUNOK_clean_linker_0, # of connection points: 2
#     Edge 19, Type (0, 0), BuildingBlock: AJUNOK_clean_linker_0, # of connection points: 2
#     Edge 20, Type (0, 0), BuildingBlock: AJUNOK_clean_linker_0, # of connection points: 2
#     Edge 21, Type (0, 0), BuildingBlock: AJUNOK_clean_linker_0, # of connection points: 2
#     Edge 22, Type (0, 0), BuildingBlock: AJUNOK_clean_linker_0, # of connection points: 2
#     Edge 23, Type (0, 0), BuildingBlock: AJUNOK_clean_linker_0, # of connection points: 2
#     Edge 24, Type (0, 0), BuildingBlock: AJUNOK_clean_linker_0, # of connection points: 2
#     Edge 25, Type (0, 0), BuildingBlock: AJUNOK_clean_linker_0, # of connection points: 2
#     Edge 26, Type (0, 0), BuildingBlock: AJUNOK_clean_linker_0, # of connection points: 2
#     Edge 27, Type (0, 0), BuildingBlock: AJUNOK_clean_linker_0, # of connection points: 2
#     Edge 28, Type (0, 0), BuildingBlock: AJUNOK_clean_linker_0, # of connection points: 2
#     Edge 29, Type (0, 0), BuildingBlock: AJUNOK_clean_linker_0, # of connection points: 2
#     Edge 30, Type (0, 0), BuildingBlock: AJUNOK_clean_linker_0, # of connection points: 2
#     Edge 31, Type (0, 0), BuildingBlock: AJUNOK_clean_linker_0, # of connection points: 2
#     Edge 32, Type (0, 0), BuildingBlock: AJUNOK_clean_linker_0, # of connection points: 2
#     Edge 33, Type (0, 0), BuildingBlock: AJUNOK_clean_linker_0, # of connection points: 2
#     Edge 34, Type (0, 0), BuildingBlock: AJUNOK_clean_linker_0, # of connection points: 2
#     Edge 35, Type (0, 0), BuildingBlock: AJUNOK_clean_linker_0, # of connection points: 2
# Relax obj value: 0.174
# Max RMSD: 0.296
# Mean RMSD: 0.296
data_MOF--net-uop--node1-MUDLON_clean_sbu_0--edge1-AJUNOK_clean_linker_0
_symmetry_space_group_name_H-M    P1
_symmetry_Int_Tables_number       1
_symmetry_cell_setting            triclinic
loop_
_symmetry_equiv_pos_as_xyz
'x, y, z'
_cell_length_a     24.868703
_cell_length_b     25.35369
_cell_length_c     35.893905
_cell_angle_alpha  89.647401
_cell_angle_beta   89.98568
_cell_angle_gamma 119.13949
loop_
_atom_site_label
_atom_site_type_symbol
_atom_site_fract_x
_atom_site_fract_y
_atom_site_fract_z
_atom_type_partial_charge
Mg0 Mg 0.28523 0.40617 0.20779 0.0
C1 C 0.26886 0.50456 0.17364 0.0
O2 O 0.27958 0.47982 0.14458 0.0
C3 C 0.35809 0.38262 0.26622 0.0
O4 O 0.39041 0.38692 0.23634 0.0
C5 C 0.16449 0.31885 0.16709 0.0
O6 O 0.18851 0.35745 0.13936 0.0
O7 O 0.19688 0.32598 0.19598 0.0
O8 O 0.26776 0.48248 0.20578 0.0
O9 O 0.36705 0.43287 0.17279 0.0
C10 C 0.4074 0.48822 0.17682 0.0
O11 O 0.3938 0.52217 0.19799 0.0
O12 O 0.31137 0.39039 0.2632 0.0
Mg13 Mg 0.88173 0.25848 0.52135 0.0
C14 C 0.93693 0.3752 0.47835 0.0
O15 O 0.87974 0.3641 0.48147 0.0
C16 C 0.84133 0.12692 0.52762 0.0
O17 O 0.82836 0.13869 0.56098 0.0
C18 C 0.9525 0.25852 0.58939 0.0
O19 O 0.96425 0.22398 0.56754 0.0
O20 O 0.91655 0.27763 0.57809 0.0
O21 O 0.9503 0.3353 0.48964 0.0
O22 O 0.79431 0.25721 0.51474 0.0
C23 C 0.74797 0.22907 0.536 0.0
O24 O 0.75259 0.20002 0.56518 0.0
O25 O 0.86689 0.17011 0.50419 0.0
Mg26 Mg 0.6077 0.85525 0.867 0.0
C27 C 0.50748 0.74695 0.83147 0.0
O28 O 0.52986 0.78539 0.80353 0.0
C29 C 0.65877 0.94788 0.9255 0.0
O30 O 0.68426 0.97832 0.89482 0.0
C31 C 0.69766 0.82638 0.82334 0.0
O32 O 0.65879 0.81436 0.79577 0.0
O33 O 0.68979 0.84859 0.85318 0.0
O34 O 0.53111 0.76409 0.86356 0.0
O35 O 0.57755 0.91087 0.8364 0.0
C36 C 0.60826 0.9604 0.81882 0.0
O37 O 0.66758 0.9816 0.8137 0.0
O38 O 0.62258 0.89127 0.92317 0.0
Mg39 Mg 0.78136 0.60286 0.21048 0.0
C40 C 0.79108 0.50028 0.18066 0.0
O41 O 0.77942 0.52374 0.15106 0.0
C42 C 0.74769 0.66581 0.26914 0.0
O43 O 0.73772 0.68848 0.23862 0.0
C44 C 0.91134 0.70072 0.20483 0.0
O45 O 0.90511 0.68661 0.24043 0.0
O46 O 0.8641 0.67446 0.18404 0.0
O47 O 0.7955 0.52511 0.21203 0.0
O48 O 0.69286 0.5686 0.18255 0.0
C49 C 0.67084 0.59774 0.16542 0.0
O50 O 0.70536 0.65627 0.16053 0.0
O51 O 0.76852 0.62903 0.26613 0.0
Mg52 Mg 0.17116 0.74353 0.51961 0.0
C53 C 0.12692 0.62467 0.482 0.0
O54 O 0.18224 0.63667 0.49258 0.0
C55 C 0.20501 0.87271 0.52272 0.0
O56 O 0.21612 0.86144 0.5568 0.0
C57 C 0.08185 0.73133 0.57803 0.0
O58 O 0.06434 0.75153 0.54929 0.0
O59 O 0.12923 0.72486 0.57469 0.0
O60 O 0.11059 0.66452 0.48711 0.0
O61 O 0.26257 0.75285 0.51814 0.0
C62 C 0.28999 0.7451 0.54572 0.0
O63 O 0.26252 0.73128 0.57838 0.0
O64 O 0.1822 0.82937 0.49963 0.0
Mg65 Mg 0.43776 0.16765 0.87059 0.0
C66 C 0.53504 0.28918 0.84476 0.0
O67 O 0.49368 0.27466 0.81836 0.0
C68 C 0.37865 0.06892 0.92721 0.0
O69 O 0.35651 0.03956 0.89598 0.0
C70 C 0.33382 0.17837 0.82678 0.0
O71 O 0.339 0.14383 0.80151 0.0
O72 O 0.36697 0.19161 0.85582 0.0
O73 O 0.5236 0.25259 0.87184 0.0
O74 O 0.45373 0.10506 0.83633 0.0
C75 C 0.50627 0.12277 0.82124 0.0
O76 O 0.5461 0.18069 0.82122 0.0
O77 O 0.41493 0.12564 0.92554 0.0
Mg78 Mg 0.62697 0.7486 0.47903 0.0
C79 C 0.55652 0.6232 0.50777 0.0
O80 O 0.51348 0.63237 0.49292 0.0
C81 C 0.72455 0.8775 0.47872 0.0
O82 O 0.71005 0.86819 0.44326 0.0
C83 C 0.68268 0.71421 0.41667 0.0
O84 O 0.70213 0.69725 0.44602 0.0
O85 O 0.64878 0.73835 0.42166 0.0
O86 O 0.61155 0.66674 0.50804 0.0
O87 O 0.54277 0.75382 0.48501 0.0
C88 C 0.52678 0.75632 0.51837 0.0
O89 O 0.56258 0.75737 0.54559 0.0
O90 O 0.69915 0.833 0.50122 0.0
Mg91 Mg 0.87699 0.61176 0.7872 0.0
C92 C 0.77388 0.50498 0.82406 0.0
O93 O 0.81313 0.52893 0.85155 0.0
C94 C 0.93345 0.67122 0.71327 0.0
O95 O 0.92002 0.71181 0.72615 0.0
C96 C 0.83312 0.69344 0.82499 0.0
O97 O 0.81908 0.65501 0.85282 0.0
O98 O 0.86127 0.68828 0.79687 0.0
O99 O 0.78832 0.53041 0.79218 0.0
O100 O 0.93962 0.59619 0.82209 0.0
C101 C 0.99655 0.62397 0.81385 0.0
O102 O 1.01642 0.66929 0.7901 0.0
O103 O 0.91726 0.62293 0.73187 0.0
Mg104 Mg 0.28856 0.85145 0.13122 0.0
C105 C 0.26753 0.7332 0.15993 0.0
O106 O 0.26538 0.76045 0.19048 0.0
C107 C 0.32321 0.94673 0.07205 0.0
O108 O 0.34263 0.98 0.10213 0.0
C109 C 0.15744 0.81878 0.13971 0.0
O110 O 0.16175 0.80761 0.10445 0.0
O111 O 0.20636 0.84206 0.1592 0.0
O112 O 0.27615 0.76089 0.12898 0.0
O113 O 0.3783 0.90438 0.1573 0.0
C114 C 0.39687 0.95067 0.17778 0.0
O115 O 0.3578 0.96905 0.18749 0.0
O116 O 0.29674 0.88955 0.07562 0.0
Mg117 Mg 0.41984 0.25224 0.47846 0.0
C118 C 0.49445 0.37268 0.51407 0.0
O119 O 0.53773 0.36048 0.50354 0.0
C120 C 0.32096 0.12426 0.47583 0.0
O121 O 0.33478 0.13737 0.44044 0.0
C122 C 0.4315 0.3136 0.4041 0.0
O123 O 0.48861 0.3458 0.4155 0.0
O124 O 0.39359 0.26929 0.4239 0.0
O125 O 0.43844 0.3323 0.51003 0.0
O126 O 0.50354 0.24543 0.47816 0.0
C127 C 0.51519 0.22589 0.5081 0.0
O128 O 0.47509 0.20892 0.53556 0.0
O129 O 0.3478 0.16604 0.49963 0.0
Mg130 Mg 0.17486 0.41181 0.78775 0.0
C131 C 0.29402 0.50804 0.81447 0.0
O132 O 0.26688 0.47804 0.84504 0.0
C133 C 0.08653 0.33181 0.72896 0.0
O134 O 0.07245 0.29177 0.75584 0.0
C135 C 0.2067 0.31308 0.78879 0.0
O136 O 0.20964 0.32684 0.75322 0.0
O137 O 0.18883 0.33969 0.81168 0.0
O138 O 0.26689 0.48834 0.78353 0.0
O139 O 0.12341 0.44821 0.81782 0.0
C140 C 0.13971 0.50206 0.80721 0.0
O141 O 0.18284 0.52676 0.78164 0.0
O142 O 0.12967 0.38553 0.73391 0.0
Mg143 Mg 0.77489 0.15861 0.13013 0.0
C144 C 0.80268 0.27746 0.16321 0.0
O145 O 0.82123 0.25468 0.19 0.0
C146 C 0.722 0.06557 0.07045 0.0
O147 O 0.71044 0.03152 0.10035 0.0
C148 C 0.8967 0.17775 0.16873 0.0
O149 O 0.86632 0.16582 0.20038 0.0
O150 O 0.86853 0.17398 0.13846 0.0
O151 O 0.78123 0.24702 0.13359 0.0
O152 O 0.69717 0.09519 0.16473 0.0
C153 C 0.65999 0.11221 0.17702 0.0
O154 O 0.67541 0.16944 0.17389 0.0
O155 O 0.74928 0.12266 0.07424 0.0
C156 C 0.26201 0.64707 0.19741 0.0
C157 C 0.26378 0.67296 0.16228 0.0
C158 C 0.26217 0.59204 0.20081 0.0
C159 C 0.26406 0.56045 0.16919 0.0
H160 H 0.26167 0.66996 0.22272 0.0
H161 H 0.26204 0.57484 0.22851 0.0
S162 S 0.2643 0.60624 0.07055 0.0
N163 N 0.26406 0.66094 0.09509 0.0
N164 N 0.26417 0.55759 0.10135 0.0
C165 C 0.26389 0.58484 0.13381 0.0
C166 C 0.2638 0.64099 0.13036 0.0
C167 C 0.6395 0.2009 0.55285 0.0
C168 C 0.68906 0.22838 0.52763 0.0
C169 C 0.58348 0.19974 0.54594 0.0
C170 C 0.57437 0.22574 0.51344 0.0
H171 H 0.64393 0.18037 0.57837 0.0
H172 H 0.5471 0.17836 0.5665 0.0
S173 S 0.68903 0.30253 0.43793 0.0
N174 N 0.72495 0.28169 0.46836 0.0
N175 N 0.61968 0.27935 0.45546 0.0
C176 C 0.62325 0.25285 0.4877 0.0
C177 C 0.68051 0.25425 0.49481 0.0
C178 C 0.43024 0.64527 0.85619 0.0
C179 C 0.45511 0.68518 0.82572 0.0
C180 C 0.37941 0.5876 0.85194 0.0
C181 C 0.3512 0.56722 0.81704 0.0
H182 H 0.44956 0.65883 0.88377 0.0
H183 H 0.36155 0.55919 0.8765 0.0
S184 S 0.40023 0.65292 0.72783 0.0
N185 N 0.44892 0.6992 0.75894 0.0
N186 N 0.35343 0.59092 0.75107 0.0
C187 C 0.37652 0.606 0.78608 0.0
C188 C 0.42835 0.66489 0.79041 0.0
C189 C 0.78174 0.41359 0.14307 0.0
C190 C 0.79655 0.44475 0.17712 0.0
C191 C 0.78457 0.36013 0.13879 0.0
C192 C 0.80264 0.33556 0.16833 0.0
H193 H 0.76702 0.43008 0.11944 0.0
H194 H 0.77202 0.33776 0.11207 0.0
S195 S 0.84844 0.40072 0.26304 0.0
N196 N 0.83149 0.44785 0.24078 0.0
N197 N 0.83709 0.34754 0.2328 0.0
C198 C 0.8186 0.36676 0.20244 0.0
C199 C 0.81544 0.4212 0.20684 0.0
C200 C 0.43255 0.75964 0.49717 0.0
C201 C 0.46754 0.75504 0.5265 0.0
C202 C 0.37579 0.75703 0.50382 0.0
C203 C 0.35124 0.74937 0.5401 0.0
H204 H 0.44894 0.76514 0.46868 0.0
H205 H 0.35074 0.76047 0.48009 0.0
S206 S 0.42476 0.73549 0.62691 0.0
N207 N 0.47366 0.74299 0.59351 0.0
N208 N 0.36696 0.73789 0.6059 0.0
C209 C 0.38589 0.74509 0.56979 0.0
C210 C 0.44397 0.74801 0.56304 0.0
C211 C 0.60991 0.37977 0.80815 0.0
C212 C 0.59578 0.34474 0.84098 0.0
C213 C 0.66751 0.43116 0.8029 0.0
C214 C 0.71342 0.45005 0.83037 0.0
H215 H 0.57643 0.36725 0.78597 0.0
H216 H 0.6759 0.45635 0.77709 0.0
S217 S 0.69998 0.37444 0.92165 0.0
N218 N 0.63271 0.33285 0.90154 0.0
N219 N 0.74077 0.42944 0.89182 0.0
C220 C 0.69987 0.41569 0.8635 0.0
C221 C 0.64121 0.36312 0.86878 0.0
C222 C 0.57359 0.60307 0.1582 0.0
C223 C 0.6033 0.568 0.15903 0.0
C224 C 0.50936 0.57612 0.16098 0.0
C225 C 0.47212 0.51303 0.16418 0.0
H226 H 0.60016 0.65191 0.15803 0.0
H227 H 0.48897 0.6053 0.16267 0.0
S228 S 0.52642 0.4004 0.16078 0.0
N229 N 0.59004 0.46633 0.15829 0.0
N230 N 0.46918 0.41582 0.16303 0.0
C231 C 0.5007 0.47712 0.16141 0.0
C232 C 0.56633 0.5046 0.15903 0.0
C233 C 1.01783 0.54571 0.47019 0.0
C234 C 0.08045 0.56178 0.47231 0.0
C235 C 0.97179 0.48505 0.46922 0.0
C236 C 0.98641 0.4379 0.47049 0.0
H237 H 1.00382 0.57997 0.47146 0.0
H238 H 0.92427 0.47528 0.46977 0.0
S239 S 0.14372 0.45594 0.46808 0.0
N240 N 0.15496 0.52565 0.46954 0.0
N241 N 0.06833 0.41173 0.46805 0.0
C242 C 0.04893 0.4534 0.46905 0.0
C243 C 0.09593 0.51529 0.46987 0.0
C244 C 0.49333 0.01831 0.82457 0.0
C245 C 0.52773 0.07863 0.81239 0.0
C246 C 0.51838 0.97927 0.82414 0.0
C247 C 0.57902 0.99878 0.81159 0.0
H248 H 0.44794 1.00188 0.83659 0.0
H249 H 0.49085 0.93431 0.83567 0.0
S250 S 0.68397 0.14886 0.7699 0.0
N251 N 0.62234 0.15331 0.78221 0.0
N252 N 0.66941 0.08009 0.78166 0.0
C253 C 0.6119 0.05733 0.7963 0.0
C254 C 0.58629 0.09714 0.79665 0.0
C255 C 0.48001 0.51431 0.51728 0.0
C256 C 0.54181 0.56067 0.51781 0.0
C257 C 0.46463 0.45338 0.51914 0.0
C258 C 0.51047 0.43624 0.52147 0.0
H259 H 0.44307 0.52489 0.5135 0.0
H260 H 0.41663 0.41962 0.51639 0.0
S261 S 0.6785 0.54006 0.53097 0.0
N262 N 0.64859 0.58527 0.52617 0.0
N263 N 0.61977 0.47073 0.52977 0.0
C264 C 0.57207 0.48214 0.52546 0.0
C265 C 0.58774 0.54434 0.52362 0.0
C266 C 1.00825 0.53301 0.82864 0.0
C267 C 0.03557 0.59577 0.82199 0.0
C268 C 0.04307 0.50289 0.82691 0.0
C269 C 0.10634 0.53457 0.81853 0.0
H270 H 0.95892 0.50618 0.83253 0.0
H271 H 1.01945 0.45412 0.82948 0.0
S272 S 0.20205 0.7007 0.80712 0.0
N273 N 0.13132 0.68943 0.81269 0.0
N274 N 0.19658 0.63322 0.80968 0.0
C275 C 0.13507 0.59793 0.81552 0.0
C276 C 0.09975 0.62844 0.8172 0.0
C277 C 0.5054 0.96968 0.17126 0.0
C278 C 0.46417 0.98836 0.18494 0.0
C279 C 0.56931 1.00831 0.17155 0.0
C280 C 0.59477 0.06739 0.18542 0.0
H281 H 0.48823 0.92581 0.1585 0.0
H282 H 0.59853 0.99291 0.15863 0.0
S283 S 0.5083 0.13481 0.23067 0.0
N284 N 0.45449 0.06732 0.21742 0.0
N285 N 0.5744 0.13981 0.21789 0.0
C286 C 0.55456 0.08489 0.20201 0.0
C287 C 0.4894 0.04547 0.2018 0.0
C288 C 0.43658 0.37942 0.30809 0.0
C289 C 0.37537 0.36649 0.30233 0.0
C290 C 0.45428 0.36244 0.34114 0.0
C291 C 0.41119 0.33061 0.36941 0.0
H292 H 0.47134 0.40311 0.28692 0.0
H293 H 0.50198 0.37362 0.3443 0.0
S294 S 0.24508 0.28592 0.36827 0.0
N295 N 0.2717 0.32072 0.32794 0.0
N296 N 0.3046 0.2876 0.38976 0.0
C297 C 0.34976 0.31734 0.36406 0.0
C298 C 0.33197 0.33568 0.33064 0.0
C299 C 0.99627 0.23746 0.64648 0.0
C300 C 0.98409 0.2776 0.62566 0.0
C301 C 1.02876 0.2552 0.68013 0.0
C302 C 0.05191 0.3143 0.69356 0.0
H303 H 0.9803 0.19185 0.63678 0.0
H304 H 0.03684 0.2227 0.69536 0.0
S305 S 0.03282 0.43681 0.64932 0.0
N306 N 0.997 0.37884 0.62102 0.0
N307 N 0.05986 0.41284 0.68365 0.0
C308 C 0.04024 0.35499 0.67294 0.0
C309 C 1.00579 0.33644 0.63916 0.0
C310 C 0.65729 0.94532 0.99535 0.0
C311 C 0.6734 0.97906 0.96202 0.0
C312 C 0.67275 0.97377 0.03012 0.0
C313 C 0.70469 0.03721 0.03308 0.0
H314 H 0.63331 0.89642 0.99468 0.0
H315 H 0.65979 0.94553 0.05486 0.0
S316 S 0.75445 0.14654 0.95418 0.0
N317 N 0.72101 0.07967 0.93419 0.0
N318 N 0.74989 0.13296 0.99941 0.0
C319 C 0.71994 0.07157 -4e-05 0.0
C320 C 0.70439 0.04258 0.96451 0.0
C321 C 0.72869 0.66868 0.3742 0.0
C322 C 0.69952 0.70395 0.37866 0.0
C323 C 0.74452 0.65715 0.33886 0.0
C324 C 0.73217 0.6806 0.30634 0.0
H325 H 0.739 0.64912 0.39821 0.0
H326 H 0.76638 0.62928 0.33712 0.0
S327 S 0.65815 0.77745 0.30261 0.0
N328 N 0.66003 0.76339 0.34741 0.0
N329 N 0.68982 0.74201 0.28104 0.0
C330 C 0.70366 0.71665 0.31037 0.0
C331 C 0.6873 0.72819 0.34644 0.0
C332 C 1.00606 0.7395 0.61986 0.0
C333 C 0.04547 0.71532 0.61308 0.0
C334 C 0.96986 0.7246 0.65219 0.0
C335 C 0.9706 0.68399 0.67875 0.0
H336 H 1.00346 0.77073 0.60018 0.0
H337 H 0.94073 0.74489 0.65625 0.0
S338 S 0.06568 0.60786 0.67445 0.0
N339 N 0.08332 0.64886 0.63587 0.0
N340 N 1.01445 0.62009 0.69638 0.0
C341 C 1.00946 0.65906 0.6723 0.0
C342 C 0.04717 0.67501 0.63959 0.0
C343 C 0.3698 0.03953 0.03172 0.0
C344 C 0.33479 0.97616 0.03469 0.0
C345 C 0.3834 0.06892 0.997 0.0
C346 C 0.36244 0.03637 0.96366 0.0
H347 H 0.38753 0.06695 0.05641 0.0
H348 H 0.41084 0.11772 0.99642 0.0
S349 S 0.26787 0.86952 0.95589 0.0
N350 N 0.2786 0.88172 0.00108 0.0
N351 N 0.30396 0.9368 0.9359 0.0
C352 C 0.32677 0.97292 0.96617 0.0
C353 C 0.31305 0.94294 0.00161 0.0
C354 C 0.99801 0.23278 0.1352 0.0
C355 C 0.96516 0.20527 0.16816 0.0
C356 C 0.06248 0.26672 0.13477 0.0
C357 C 0.0973 0.27439 0.16719 0.0
H358 H 0.97375 0.23039 0.10966 0.0
H359 H 0.08498 0.28885 0.10896 0.0
S360 S 0.03442 0.2051 0.25978 0.0
N361 N 0.97296 0.1833 0.23336 0.0
N362 N 0.09403 0.24655 0.23256 0.0
C363 C 0.06536 0.2439 0.19984 0.0
C364 C 0.99945 0.2096 0.20033 0.0
C365 C 0.81629 0.04884 0.47834 0.0
C366 C 0.81959 0.06342 0.51632 0.0
C367 C 0.78811 0.98859 0.46665 0.0
C368 C 0.76228 0.94033 0.49243 0.0
H369 H 0.83327 0.08409 0.45727 0.0
H370 H 0.78476 0.97996 0.437 0.0
S371 S 0.76641 0.95433 0.59547 0.0
N372 N 0.80019 0.02467 0.57997 0.0
N373 N 0.74737 0.9116 0.55801 0.0
C374 C 0.76873 0.95433 0.53063 0.0
C375 C 0.79726 0.01576 0.54255 0.0
C376 C 0.78872 0.7511 0.85721 0.0
C377 C 0.8077 0.73586 0.82396 0.0
C378 C 0.75671 0.78392 0.85681 0.0
C379 C 0.7412 0.80186 0.82307 0.0
H380 H 0.79706 0.73603 0.88382 0.0
H381 H 0.74118 0.79242 0.88316 0.0
S382 S 0.78487 0.77831 0.72831 0.0
N383 N 0.81283 0.74573 0.75632 0.0
N384 N 0.75145 0.80603 0.75567 0.0
C385 C 0.76235 0.78943 0.7897 0.0
C386 C 0.79593 0.75689 0.7901 0.0
C387 C 0.98306 0.7397 0.14989 0.0
C388 C 0.97391 0.73895 0.1886 0.0
C389 C 0.04245 0.76797 0.13436 0.0
C390 C 0.09543 0.79691 0.15681 0.0
H391 H 0.9442 0.71615 0.13141 0.0
H392 H 0.04669 0.7652 0.1045 0.0
S393 S 0.09661 0.81491 0.25943 0.0
N394 N 1.02295 0.77503 0.2488 0.0
N395 N 0.13431 0.82792 0.2196 0.0
C396 C 0.08687 0.79965 0.19536 0.0
C397 C 1.02628 0.77075 0.21123 0.0
C398 C 0.25651 0.98331 0.53649 0.0
C399 C 0.22617 0.93615 0.51077 0.0
C400 C 0.28421 0.04404 0.52534 0.0
C401 C 0.28292 0.0603 0.48795 0.0
H402 H 0.26093 0.97347 0.56538 0.0
H403 H 0.30907 0.07835 0.54601 0.0
S404 S 0.20203 0.95456 0.41048 0.0
N405 N 0.1911 0.91022 0.44683 0.0
N406 N 0.24308 0.02425 0.42586 0.0
C407 C 0.24952 0.01375 0.46233 0.0
C408 C 0.22118 0.95178 0.47373 0.0
C409 C 0.23644 0.23387 0.77568 0.0
C410 C 0.23118 0.27285 0.80142 0.0
C411 C 0.26723 0.20155 0.78469 0.0
C412 C 0.29477 0.20723 0.81976 0.0
H413 H 0.21797 0.22941 0.74783 0.0
H414 H 0.27125 0.17357 0.7634 0.0
S415 S 0.29022 0.30007 0.89829 0.0
N416 N 0.25286 0.31246 0.86436 0.0
N417 N 0.31095 0.25218 0.88141 0.0
C418 C 0.28744 0.24403 0.84642 0.0
C419 C 0.25558 0.27663 0.83726 0.0
loop_
_geom_bond_atom_site_label_1
_geom_bond_atom_site_label_2
_geom_bond_distance
_geom_bond_site_symmetry_2
_ccdc_geom_bond_type
Mg0 O7 2.141 . S
Mg0 O8 2.048 . S
Mg0 O9 2.048 . S
Mg0 O12 2.141 . S
C1 O2 1.313 . S
C1 O8 1.195 . S
O2 C1 1.313 . S
C3 O4 1.245 . S
C3 O12 1.289 . S
O4 C3 1.245 . S
C5 O6 1.245 . S
C5 O7 1.289 . S
O6 C5 1.245 . S
O7 Mg0 2.141 . S
O7 C5 1.289 . S
O8 Mg0 2.048 . S
O8 C1 1.195 . S
O9 Mg0 2.048 . S
O9 C10 1.195 . S
C10 O9 1.195 . S
C10 O11 1.313 . S
O11 C10 1.313 . S
O12 Mg0 2.141 . S
O12 C3 1.289 . S
Mg13 O20 2.141 . S
Mg13 O21 2.048 . S
Mg13 O22 2.048 . S
Mg13 O25 2.141 . S
C14 O15 1.313 . S
C14 O21 1.195 . S
O15 C14 1.313 . S
C16 O17 1.245 . S
C16 O25 1.289 . S
O17 C16 1.245 . S
C18 O19 1.245 . S
C18 O20 1.289 . S
O19 C18 1.245 . S
O20 Mg13 2.141 . S
O20 C18 1.289 . S
O21 Mg13 2.048 . S
O21 C14 1.195 . S
O22 Mg13 2.048 . S
O22 C23 1.195 . S
C23 O22 1.195 . S
C23 O24 1.313 . S
O24 C23 1.313 . S
O25 Mg13 2.141 . S
O25 C16 1.289 . S
Mg26 O33 2.141 . S
Mg26 O34 2.048 . S
Mg26 O35 2.048 . S
Mg26 O38 2.141 . S
C27 O28 1.313 . S
C27 O34 1.195 . S
O28 C27 1.313 . S
C29 O30 1.245 . S
C29 O38 1.289 . S
O30 C29 1.245 . S
C31 O32 1.245 . S
C31 O33 1.289 . S
O32 C31 1.245 . S
O33 Mg26 2.141 . S
O33 C31 1.289 . S
O34 Mg26 2.048 . S
O34 C27 1.195 . S
O35 Mg26 2.048 . S
O35 C36 1.195 . S
C36 O35 1.195 . S
C36 O37 1.313 . S
O37 C36 1.313 . S
O38 Mg26 2.141 . S
O38 C29 1.289 . S
Mg39 O46 2.141 . S
Mg39 O47 2.048 . S
Mg39 O48 2.048 . S
Mg39 O51 2.141 . S
C40 O41 1.313 . S
C40 O47 1.195 . S
O41 C40 1.313 . S
C42 O43 1.245 . S
C42 O51 1.289 . S
O43 C42 1.245 . S
C44 O45 1.245 . S
C44 O46 1.289 . S
O45 C44 1.245 . S
O46 Mg39 2.141 . S
O46 C44 1.289 . S
O47 Mg39 2.048 . S
O47 C40 1.195 . S
O48 Mg39 2.048 . S
O48 C49 1.195 . S
C49 O48 1.195 . S
C49 O50 1.313 . S
O50 C49 1.313 . S
O51 Mg39 2.141 . S
O51 C42 1.289 . S
Mg52 O59 2.141 . S
Mg52 O60 2.048 . S
Mg52 O61 2.048 . S
Mg52 O64 2.141 . S
C53 O54 1.313 . S
C53 O60 1.195 . S
O54 C53 1.313 . S
C55 O56 1.245 . S
C55 O64 1.289 . S
O56 C55 1.245 . S
C57 O58 1.245 . S
C57 O59 1.289 . S
O58 C57 1.245 . S
O59 Mg52 2.141 . S
O59 C57 1.289 . S
O60 Mg52 2.048 . S
O60 C53 1.195 . S
O61 Mg52 2.048 . S
O61 C62 1.195 . S
C62 O61 1.195 . S
C62 O63 1.313 . S
O63 C62 1.313 . S
O64 Mg52 2.141 . S
O64 C55 1.289 . S
Mg65 O72 2.141 . S
Mg65 O73 2.048 . S
Mg65 O74 2.048 . S
Mg65 O77 2.141 . S
C66 O67 1.313 . S
C66 O73 1.195 . S
O67 C66 1.313 . S
C68 O69 1.245 . S
C68 O77 1.289 . S
O69 C68 1.245 . S
C70 O71 1.245 . S
C70 O72 1.289 . S
O71 C70 1.245 . S
O72 Mg65 2.141 . S
O72 C70 1.289 . S
O73 Mg65 2.048 . S
O73 C66 1.195 . S
O74 Mg65 2.048 . S
O74 C75 1.195 . S
C75 O74 1.195 . S
C75 O76 1.313 . S
O76 C75 1.313 . S
O77 Mg65 2.141 . S
O77 C68 1.289 . S
Mg78 O85 2.141 . S
Mg78 O86 2.048 . S
Mg78 O87 2.048 . S
Mg78 O90 2.141 . S
C79 O80 1.313 . S
C79 O86 1.195 . S
O80 C79 1.313 . S
C81 O82 1.245 . S
C81 O90 1.289 . S
O82 C81 1.245 . S
C83 O84 1.245 . S
C83 O85 1.289 . S
O84 C83 1.245 . S
O85 Mg78 2.141 . S
O85 C83 1.289 . S
O86 Mg78 2.048 . S
O86 C79 1.195 . S
O87 Mg78 2.048 . S
O87 C88 1.195 . S
C88 O87 1.195 . S
C88 O89 1.313 . S
O89 C88 1.313 . S
O90 Mg78 2.141 . S
O90 C81 1.289 . S
Mg91 O98 2.141 . S
Mg91 O99 2.048 . S
Mg91 O100 2.048 . S
Mg91 O103 2.141 . S
C92 O93 1.313 . S
C92 O99 1.195 . S
O93 C92 1.313 . S
C94 O95 1.245 . S
C94 O103 1.289 . S
O95 C94 1.245 . S
C96 O97 1.245 . S
C96 O98 1.289 . S
O97 C96 1.245 . S
O98 Mg91 2.141 . S
O98 C96 1.289 . S
O99 Mg91 2.048 . S
O99 C92 1.195 . S
O100 Mg91 2.048 . S
O100 C101 1.195 . S
C101 O100 1.195 . S
C101 O102 1.313 . S
O102 C101 1.313 . S
O103 Mg91 2.141 . S
O103 C94 1.289 . S
Mg104 O111 2.141 . S
Mg104 O112 2.048 . S
Mg104 O113 2.048 . S
Mg104 O116 2.141 . S
C105 O106 1.313 . S
C105 O112 1.195 . S
O106 C105 1.313 . S
C107 O108 1.245 . S
C107 O116 1.289 . S
O108 C107 1.245 . S
C109 O110 1.245 . S
C109 O111 1.289 . S
O110 C109 1.245 . S
O111 Mg104 2.141 . S
O111 C109 1.289 . S
O112 Mg104 2.048 . S
O112 C105 1.195 . S
O113 Mg104 2.048 . S
O113 C114 1.195 . S
C114 O113 1.195 . S
C114 O115 1.313 . S
O115 C114 1.313 . S
O116 Mg104 2.141 . S
O116 C107 1.289 . S
Mg117 O124 2.141 . S
Mg117 O125 2.048 . S
Mg117 O126 2.048 . S
Mg117 O129 2.141 . S
C118 O119 1.313 . S
C118 O125 1.195 . S
O119 C118 1.313 . S
C120 O121 1.245 . S
C120 O129 1.289 . S
O121 C120 1.245 . S
C122 O123 1.245 . S
C122 O124 1.289 . S
O123 C122 1.245 . S
O124 Mg117 2.141 . S
O124 C122 1.289 . S
O125 Mg117 2.048 . S
O125 C118 1.195 . S
O126 Mg117 2.048 . S
O126 C127 1.195 . S
C127 O126 1.195 . S
C127 O128 1.313 . S
O128 C127 1.313 . S
O129 Mg117 2.141 . S
O129 C120 1.289 . S
Mg130 O137 2.141 . S
Mg130 O138 2.048 . S
Mg130 O139 2.048 . S
Mg130 O142 2.141 . S
C131 O132 1.313 . S
C131 O138 1.195 . S
O132 C131 1.313 . S
C133 O134 1.245 . S
C133 O142 1.289 . S
O134 C133 1.245 . S
C135 O136 1.245 . S
C135 O137 1.289 . S
O136 C135 1.245 . S
O137 Mg130 2.141 . S
O137 C135 1.289 . S
O138 Mg130 2.048 . S
O138 C131 1.195 . S
O139 Mg130 2.048 . S
O139 C140 1.195 . S
C140 O139 1.195 . S
C140 O141 1.313 . S
O141 C140 1.313 . S
O142 Mg130 2.141 . S
O142 C133 1.289 . S
Mg143 O150 2.141 . S
Mg143 O151 2.048 . S
Mg143 O152 2.048 . S
Mg143 O155 2.141 . S
C144 O145 1.313 . S
C144 O151 1.195 . S
O145 C144 1.313 . S
C146 O147 1.245 . S
C146 O155 1.289 . S
O147 C146 1.245 . S
C148 O149 1.245 . S
C148 O150 1.289 . S
O149 C148 1.245 . S
O150 Mg143 2.141 . S
O150 C148 1.289 . S
O151 Mg143 2.048 . S
O151 C144 1.195 . S
O152 Mg143 2.048 . S
O152 C153 1.195 . S
C153 O152 1.195 . S
C153 O154 1.313 . S
O154 C153 1.313 . S
O155 Mg143 2.141 . S
O155 C146 1.289 . S
C156 C157 1.369 . S
C156 C158 1.419 . S
C156 H160 0.930 . S
C157 C156 1.369 . S
C157 C166 1.429 . S
C158 C156 1.419 . S
C158 C159 1.363 . S
C158 H161 0.929 . S
C159 C158 1.363 . S
C159 C165 1.428 . S
H160 C156 0.930 . S
H161 C158 0.929 . S
S162 N163 1.613 . S
S162 N164 1.610 . S
N163 S162 1.613 . S
N163 C166 1.350 . S
N164 S162 1.610 . S
N164 C165 1.351 . S
C165 C159 1.428 . S
C165 N164 1.351 . S
C165 C166 1.434 . S
C166 C157 1.429 . S
C166 N163 1.350 . S
C166 C165 1.434 . S
C167 C168 1.369 . S
C167 C169 1.419 . S
C167 H171 0.930 . S
C168 C167 1.369 . S
C168 C177 1.429 . S
C169 C167 1.419 . S
C169 C170 1.363 . S
C169 H172 0.929 . S
C170 C169 1.363 . S
C170 C176 1.428 . S
H171 C167 0.930 . S
H172 C169 0.929 . S
S173 N174 1.613 . S
S173 N175 1.610 . S
N174 S173 1.613 . S
N174 C177 1.350 . S
N175 S173 1.610 . S
N175 C176 1.351 . S
C176 C170 1.428 . S
C176 N175 1.351 . S
C176 C177 1.434 . S
C177 C168 1.429 . S
C177 N174 1.350 . S
C177 C176 1.434 . S
C178 C179 1.369 . S
C178 C180 1.419 . S
C178 H182 0.930 . S
C179 C178 1.369 . S
C179 C188 1.429 . S
C180 C178 1.419 . S
C180 C181 1.363 . S
C180 H183 0.929 . S
C181 C180 1.363 . S
C181 C187 1.428 . S
H182 C178 0.930 . S
H183 C180 0.929 . S
S184 N185 1.613 . S
S184 N186 1.610 . S
N185 S184 1.613 . S
N185 C188 1.350 . S
N186 S184 1.610 . S
N186 C187 1.351 . S
C187 C181 1.428 . S
C187 N186 1.351 . S
C187 C188 1.434 . S
C188 C179 1.429 . S
C188 N185 1.350 . S
C188 C187 1.434 . S
C189 C190 1.369 . S
C189 C191 1.419 . S
C189 H193 0.930 . S
C190 C189 1.369 . S
C190 C199 1.429 . S
C191 C189 1.419 . S
C191 C192 1.363 . S
C191 H194 0.929 . S
C192 C191 1.363 . S
C192 C198 1.428 . S
H193 C189 0.930 . S
H194 C191 0.929 . S
S195 N196 1.613 . S
S195 N197 1.610 . S
N196 S195 1.613 . S
N196 C199 1.350 . S
N197 S195 1.610 . S
N197 C198 1.351 . S
C198 C192 1.428 . S
C198 N197 1.351 . S
C198 C199 1.434 . S
C199 C190 1.429 . S
C199 N196 1.350 . S
C199 C198 1.434 . S
C200 C201 1.369 . S
C200 C202 1.419 . S
C200 H204 0.930 . S
C201 C200 1.369 . S
C201 C210 1.429 . S
C202 C200 1.419 . S
C202 C203 1.363 . S
C202 H205 0.929 . S
C203 C202 1.363 . S
C203 C209 1.428 . S
H204 C200 0.930 . S
H205 C202 0.929 . S
S206 N207 1.613 . S
S206 N208 1.610 . S
N207 S206 1.613 . S
N207 C210 1.350 . S
N208 S206 1.610 . S
N208 C209 1.351 . S
C209 C203 1.428 . S
C209 N208 1.351 . S
C209 C210 1.434 . S
C210 C201 1.429 . S
C210 N207 1.350 . S
C210 C209 1.434 . S
C211 C212 1.369 . S
C211 C213 1.419 . S
C211 H215 0.930 . S
C212 C211 1.369 . S
C212 C221 1.429 . S
C213 C211 1.419 . S
C213 C214 1.363 . S
C213 H216 0.929 . S
C214 C213 1.363 . S
C214 C220 1.428 . S
H215 C211 0.930 . S
H216 C213 0.929 . S
S217 N218 1.613 . S
S217 N219 1.610 . S
N218 S217 1.613 . S
N218 C221 1.350 . S
N219 S217 1.610 . S
N219 C220 1.351 . S
C220 C214 1.428 . S
C220 N219 1.351 . S
C220 C221 1.434 . S
C221 C212 1.429 . S
C221 N218 1.350 . S
C221 C220 1.434 . S
C222 C223 1.369 . S
C222 C224 1.419 . S
C222 H226 0.930 . S
C223 C222 1.369 . S
C223 C232 1.429 . S
C224 C222 1.419 . S
C224 C225 1.363 . S
C224 H227 0.929 . S
C225 C224 1.363 . S
C225 C231 1.428 . S
H226 C222 0.930 . S
H227 C224 0.929 . S
S228 N229 1.613 . S
S228 N230 1.610 . S
N229 S228 1.613 . S
N229 C232 1.350 . S
N230 S228 1.610 . S
N230 C231 1.351 . S
C231 C225 1.428 . S
C231 N230 1.351 . S
C231 C232 1.434 . S
C232 C223 1.429 . S
C232 N229 1.350 . S
C232 C231 1.434 . S
C233 C234 1.369 . S
C233 C235 1.419 1_455 S
C233 H237 0.930 . S
C234 C233 1.369 . S
C234 C243 1.429 . S
C235 C233 1.419 1_655 S
C235 C236 1.363 . S
C235 H238 0.929 . S
C236 C235 1.363 . S
C236 C242 1.428 . S
H237 C233 0.930 . S
H238 C235 0.929 . S
S239 N240 1.613 . S
S239 N241 1.610 1_455 S
N240 S239 1.613 . S
N240 C243 1.350 . S
N241 S239 1.610 1_655 S
N241 C242 1.351 . S
C242 C236 1.428 . S
C242 N241 1.351 . S
C242 C243 1.434 1_655 S
C243 C234 1.429 . S
C243 N240 1.350 . S
C243 C242 1.434 1_455 S
C244 C245 1.369 1_565 S
C244 C246 1.419 . S
C244 H248 0.930 . S
C245 C244 1.369 1_545 S
C245 C254 1.429 . S
C246 C244 1.419 . S
C246 C247 1.363 . S
C246 H249 0.929 . S
C247 C246 1.363 . S
C247 C253 1.428 1_565 S
H248 C244 0.930 . S
H249 C246 0.929 . S
S250 N251 1.613 . S
S250 N252 1.610 . S
N251 S250 1.613 . S
N251 C254 1.350 . S
N252 S250 1.610 . S
N252 C253 1.351 . S
C253 C247 1.428 1_545 S
C253 N252 1.351 . S
C253 C254 1.434 . S
C254 C245 1.429 . S
C254 N251 1.350 . S
C254 C253 1.434 . S
C255 C256 1.369 . S
C255 C257 1.419 . S
C255 H259 0.930 . S
C256 C255 1.369 . S
C256 C265 1.429 . S
C257 C255 1.419 . S
C257 C258 1.363 . S
C257 H260 0.929 . S
C258 C257 1.363 . S
C258 C264 1.428 . S
H259 C255 0.930 . S
H260 C257 0.929 . S
S261 N262 1.613 . S
S261 N263 1.610 . S
N262 S261 1.613 . S
N262 C265 1.350 . S
N263 S261 1.610 . S
N263 C264 1.351 . S
C264 C258 1.428 . S
C264 N263 1.351 . S
C264 C265 1.434 . S
C265 C256 1.429 . S
C265 N262 1.350 . S
C265 C264 1.434 . S
C266 C267 1.369 . S
C266 C268 1.419 . S
C266 H270 0.930 . S
C267 C266 1.369 . S
C267 C276 1.429 1_655 S
C268 C266 1.419 . S
C268 C269 1.363 1_655 S
C268 H271 0.929 . S
C269 C268 1.363 1_455 S
C269 C275 1.428 . S
H270 C266 0.930 . S
H271 C268 0.929 . S
S272 N273 1.613 . S
S272 N274 1.610 . S
N273 S272 1.613 . S
N273 C276 1.350 . S
N274 S272 1.610 . S
N274 C275 1.351 . S
C275 C269 1.428 . S
C275 N274 1.351 . S
C275 C276 1.434 . S
C276 C267 1.429 1_455 S
C276 N273 1.350 . S
C276 C275 1.434 . S
C277 C278 1.369 . S
C277 C279 1.419 1_565 S
C277 H281 0.930 . S
C278 C277 1.369 . S
C278 C287 1.429 . S
C279 C277 1.419 1_545 S
C279 C280 1.363 . S
C279 H282 0.929 . S
C280 C279 1.363 . S
C280 C286 1.428 . S
H281 C277 0.930 . S
H282 C279 0.929 . S
S283 N284 1.613 1_545 S
S283 N285 1.610 . S
N284 S283 1.613 1_565 S
N284 C287 1.350 . S
N285 S283 1.610 . S
N285 C286 1.351 . S
C286 C280 1.428 . S
C286 N285 1.351 . S
C286 C287 1.434 1_545 S
C287 C278 1.429 . S
C287 N284 1.350 . S
C287 C286 1.434 1_565 S
C288 C289 1.369 . S
C288 C290 1.419 . S
C288 H292 0.930 . S
C289 C288 1.369 . S
C289 C298 1.429 . S
C290 C288 1.419 . S
C290 C291 1.363 . S
C290 H293 0.929 . S
C291 C290 1.363 . S
C291 C297 1.428 . S
H292 C288 0.930 . S
H293 C290 0.929 . S
S294 N295 1.613 . S
S294 N296 1.610 . S
N295 S294 1.613 . S
N295 C298 1.350 . S
N296 S294 1.610 . S
N296 C297 1.351 . S
C297 C291 1.428 . S
C297 N296 1.351 . S
C297 C298 1.434 . S
C298 C289 1.429 . S
C298 N295 1.350 . S
C298 C297 1.434 . S
C299 C300 1.369 . S
C299 C301 1.419 . S
C299 H303 0.930 . S
C300 C299 1.369 . S
C300 C309 1.429 1_655 S
C301 C299 1.419 . S
C301 C302 1.363 1_655 S
C301 H304 0.929 . S
C302 C301 1.363 1_455 S
C302 C308 1.428 . S
H303 C299 0.930 . S
H304 C301 0.929 . S
S305 N306 1.613 . S
S305 N307 1.610 . S
N306 S305 1.613 . S
N306 C309 1.350 . S
N307 S305 1.610 . S
N307 C308 1.351 . S
C308 C302 1.428 . S
C308 N307 1.351 . S
C308 C309 1.434 . S
C309 C300 1.429 1_455 S
C309 N306 1.350 . S
C309 C308 1.434 . S
C310 C311 1.369 . S
C310 C312 1.419 1_556 S
C310 H314 0.930 . S
C311 C310 1.369 . S
C311 C320 1.429 1_565 S
C312 C310 1.419 1_554 S
C312 C313 1.363 1_565 S
C312 H315 0.929 . S
C313 C312 1.363 1_545 S
C313 C319 1.428 . S
H314 C310 0.930 . S
H315 C312 0.929 . S
S316 N317 1.613 . S
S316 N318 1.610 1_556 S
N317 S316 1.613 . S
N317 C320 1.350 . S
N318 S316 1.610 1_554 S
N318 C319 1.351 . S
C319 C313 1.428 . S
C319 N318 1.351 . S
C319 C320 1.434 1_554 S
C320 C311 1.429 1_545 S
C320 N317 1.350 . S
C320 C319 1.434 1_556 S
C321 C322 1.369 . S
C321 C323 1.419 . S
C321 H325 0.930 . S
C322 C321 1.369 . S
C322 C331 1.429 . S
C323 C321 1.419 . S
C323 C324 1.363 . S
C323 H326 0.929 . S
C324 C323 1.363 . S
C324 C330 1.428 . S
H325 C321 0.930 . S
H326 C323 0.929 . S
S327 N328 1.613 . S
S327 N329 1.610 . S
N328 S327 1.613 . S
N328 C331 1.350 . S
N329 S327 1.610 . S
N329 C330 1.351 . S
C330 C324 1.428 . S
C330 N329 1.351 . S
C330 C331 1.434 . S
C331 C322 1.429 . S
C331 N328 1.350 . S
C331 C330 1.434 . S
C332 C333 1.369 . S
C332 C334 1.421 . S
C332 H336 0.930 . S
C333 C332 1.369 . S
C333 C342 1.429 1_455 S
C334 C332 1.421 . S
C334 C335 1.369 1_455 S
C334 H337 0.921 . S
C335 C334 1.369 1_655 S
C335 C341 1.428 . S
H336 C332 0.930 . S
H337 C334 0.921 . S
S338 N339 1.613 . S
S338 N340 1.610 . S
N339 S338 1.613 . S
N339 C342 1.350 . S
N340 S338 1.610 . S
N340 C341 1.351 . S
C341 C335 1.428 . S
C341 N340 1.351 . S
C341 C342 1.434 . S
C342 C333 1.429 1_655 S
C342 N339 1.350 . S
C342 C341 1.434 . S
C343 C344 1.369 1_545 S
C343 C345 1.419 1_554 S
C343 H347 0.930 . S
C344 C343 1.369 1_565 S
C344 C353 1.429 . S
C345 C343 1.419 1_556 S
C345 C346 1.363 . S
C345 H348 0.929 . S
C346 C345 1.363 . S
C346 C352 1.428 1_545 S
H347 C343 0.930 . S
H348 C345 0.929 . S
S349 N350 1.613 1_556 S
S349 N351 1.610 . S
N350 S349 1.613 1_554 S
N350 C353 1.350 . S
N351 S349 1.610 . S
N351 C352 1.351 . S
C352 C346 1.428 1_565 S
C352 N351 1.351 . S
C352 C353 1.434 1_556 S
C353 C344 1.429 . S
C353 N350 1.350 . S
C353 C352 1.434 1_554 S
C354 C355 1.369 . S
C354 C356 1.419 1_655 S
C354 H358 0.930 . S
C355 C354 1.369 . S
C355 C364 1.429 . S
C356 C354 1.419 1_455 S
C356 C357 1.363 . S
C356 H359 0.929 . S
C357 C356 1.363 . S
C357 C363 1.428 . S
H358 C354 0.930 . S
H359 C356 0.929 . S
S360 N361 1.613 . S
S360 N362 1.610 1_655 S
N361 S360 1.613 . S
N361 C364 1.350 . S
N362 S360 1.610 1_455 S
N362 C363 1.351 . S
C363 C357 1.428 . S
C363 N362 1.351 . S
C363 C364 1.434 1_455 S
C364 C355 1.429 . S
C364 N361 1.350 . S
C364 C363 1.434 1_655 S
C365 C366 1.369 . S
C365 C367 1.419 1_545 S
C365 H369 0.930 . S
C366 C365 1.369 . S
C366 C375 1.429 . S
C367 C365 1.419 1_565 S
C367 C368 1.363 . S
C367 H370 0.929 . S
C368 C367 1.363 . S
C368 C374 1.428 . S
H369 C365 0.930 . S
H370 C367 0.929 . S
S371 N372 1.613 1_565 S
S371 N373 1.610 . S
N372 S371 1.613 1_545 S
N372 C375 1.350 . S
N373 S371 1.610 . S
N373 C374 1.351 . S
C374 C368 1.428 . S
C374 N373 1.351 . S
C374 C375 1.434 1_565 S
C375 C366 1.429 . S
C375 N372 1.350 . S
C375 C374 1.434 1_545 S
C376 C377 1.369 . S
C376 C378 1.419 . S
C376 H380 0.930 . S
C377 C376 1.369 . S
C377 C386 1.429 . S
C378 C376 1.419 . S
C378 C379 1.363 . S
C378 H381 0.929 . S
C379 C378 1.363 . S
C379 C385 1.428 . S
H380 C376 0.930 . S
H381 C378 0.929 . S
S382 N383 1.613 . S
S382 N384 1.610 . S
N383 S382 1.613 . S
N383 C386 1.350 . S
N384 S382 1.610 . S
N384 C385 1.351 . S
C385 C379 1.428 . S
C385 N384 1.351 . S
C385 C386 1.434 . S
C386 C377 1.429 . S
C386 N383 1.350 . S
C386 C385 1.434 . S
C387 C388 1.369 . S
C387 C389 1.419 1_655 S
C387 H391 0.930 . S
C388 C387 1.369 . S
C388 C397 1.429 . S
C389 C387 1.419 1_455 S
C389 C390 1.363 . S
C389 H392 0.929 . S
C390 C389 1.363 . S
C390 C396 1.428 . S
H391 C387 0.930 . S
H392 C389 0.929 . S
S393 N394 1.613 . S
S393 N395 1.610 1_655 S
N394 S393 1.613 . S
N394 C397 1.350 . S
N395 S393 1.610 1_455 S
N395 C396 1.351 . S
C396 C390 1.428 . S
C396 N395 1.351 . S
C396 C397 1.434 1_455 S
C397 C388 1.429 . S
C397 N394 1.350 . S
C397 C396 1.434 1_655 S
C398 C399 1.369 . S
C398 C400 1.419 1_565 S
C398 H402 0.930 . S
C399 C398 1.369 . S
C399 C408 1.429 . S
C400 C398 1.419 1_545 S
C400 C401 1.363 . S
C400 H403 0.929 . S
C401 C400 1.363 . S
C401 C407 1.428 . S
H402 C398 0.930 . S
H403 C400 0.929 . S
S404 N405 1.613 . S
S404 N406 1.610 1_565 S
N405 S404 1.613 . S
N405 C408 1.350 . S
N406 S404 1.610 1_545 S
N406 C407 1.351 . S
C407 C401 1.428 . S
C407 N406 1.351 . S
C407 C408 1.434 1_545 S
C408 C399 1.429 . S
C408 N405 1.350 . S
C408 C407 1.434 1_565 S
C409 C410 1.369 . S
C409 C411 1.419 . S
C409 H413 0.930 . S
C410 C409 1.369 . S
C410 C419 1.429 . S
C411 C409 1.419 . S
C411 C412 1.363 . S
C411 H414 0.929 . S
C412 C411 1.363 . S
C412 C418 1.428 . S
H413 C409 0.930 . S
H414 C411 0.929 . S
S415 N416 1.613 . S
S415 N417 1.610 . S
N416 S415 1.613 . S
N416 C419 1.350 . S
N417 S415 1.610 . S
N417 C418 1.351 . S
C418 C412 1.428 . S
C418 N417 1.351 . S
C418 C419 1.434 . S
C419 C410 1.429 . S
C419 N416 1.350 . S
C419 C418 1.434 . S
C157 C105 2.529 . S
C159 C1 2.535 . S
C168 C23 2.370 . S
C170 C127 2.364 . S
C179 C27 2.536 . S
C181 C131 2.530 . S
C190 C40 2.531 . S
C192 C144 2.534 . S
C201 C88 2.365 . S
C203 C62 2.366 . S
C212 C66 2.531 . S
C214 C92 2.534 . S
C223 C49 1.408 . S
C225 C10 1.402 . S
C234 C53 1.428 . S
C236 C14 1.428 . S
C245 C75 1.404 . S
C247 C36 1.402 . S
C256 C79 1.426 . S
C258 C118 1.429 . S
C267 C101 1.401 . S
C269 C140 1.407 . S
C278 C114 1.401 . S
C280 C153 1.405 . S
C289 C3 2.176 . S
C291 C122 1.985 . S
C300 C18 1.982 . S
C302 C133 2.177 . S
C311 C29 2.182 . S
C313 C146 2.180 . S
C322 C83 1.978 . S
C324 C42 2.182 . S
C333 C57 1.981 . S
C335 C94 2.177 . S
C344 C107 2.177 . S
C346 C68 2.182 . S
C355 C148 1.350 . S
C357 C5 1.359 . S
C366 C16 1.407 . S
C368 C81 1.404 . S
C377 C96 1.359 . S
C379 C31 1.351 . S
C388 C44 1.355 . S
C390 C109 1.358 . S
C399 C55 1.406 . S
C401 C120 1.407 . S
C410 C135 1.358 . S
C412 C70 1.356 . S
