# Generated by pormake.
# Topology wio, (6)-cn, num edge types: 1
# Building blocks:
#     Node 0, Type 0, BuildingBlock: BETFEN_clean_sbu_0, # of connection points: 6
#     Node 1, Type 0, BuildingBlock: BETFEN_clean_sbu_0, # of connection points: 6
#     Node 2, Type 0, BuildingBlock: BETFEN_clean_sbu_0, # of connection points: 6
#     Node 3, Type 0, BuildingBlock: BETFEN_clean_sbu_0, # of connection points: 6
#     Node 4, Type 0, BuildingBlock: BETFEN_clean_sbu_0, # of connection points: 6
#     Node 5, Type 0, BuildingBlock: BETFEN_clean_sbu_0, # of connection points: 6
#     Node 6, Type 0, BuildingBlock: BETFEN_clean_sbu_0, # of connection points: 6
#     Node 7, Type 0, BuildingBlock: BETFEN_clean_sbu_0, # of connection points: 6
#     Node 8, Type 0, BuildingBlock: BETFEN_clean_sbu_0, # of connection points: 6
#     Node 9, Type 0, BuildingBlock: BETFEN_clean_sbu_0, # of connection points: 6
#     Node 10, Type 0, BuildingBlock: BETFEN_clean_sbu_0, # of connection points: 6
#     Node 11, Type 0, BuildingBlock: BETFEN_clean_sbu_0, # of connection points: 6
#     Node 12, Type 0, BuildingBlock: BETFEN_clean_sbu_0, # of connection points: 6
#     Node 13, Type 0, BuildingBlock: BETFEN_clean_sbu_0, # of connection points: 6
#     Node 14, Type 0, BuildingBlock: BETFEN_clean_sbu_0, # of connection points: 6
#     Node 15, Type 0, BuildingBlock: BETFEN_clean_sbu_0, # of connection points: 6
#     Node 16, Type 0, BuildingBlock: BETFEN_clean_sbu_0, # of connection points: 6
#     Node 17, Type 0, BuildingBlock: BETFEN_clean_sbu_0, # of connection points: 6
#     Node 18, Type 0, BuildingBlock: BETFEN_clean_sbu_0, # of connection points: 6
#     Node 19, Type 0, BuildingBlock: BETFEN_clean_sbu_0, # of connection points: 6
#     Node 20, Type 0, BuildingBlock: BETFEN_clean_sbu_0, # of connection points: 6
#     Node 21, Type 0, BuildingBlock: BETFEN_clean_sbu_0, # of connection points: 6
#     Node 22, Type 0, BuildingBlock: BETFEN_clean_sbu_0, # of connection points: 6
#     Node 23, Type 0, BuildingBlock: BETFEN_clean_sbu_0, # of connection points: 6
#     Node 24, Type 0, BuildingBlock: BETFEN_clean_sbu_0, # of connection points: 6
#     Node 25, Type 0, BuildingBlock: BETFEN_clean_sbu_0, # of connection points: 6
#     Node 26, Type 0, BuildingBlock: BETFEN_clean_sbu_0, # of connection points: 6
#     Node 27, Type 0, BuildingBlock: BETFEN_clean_sbu_0, # of connection points: 6
#     Node 28, Type 0, BuildingBlock: BETFEN_clean_sbu_0, # of connection points: 6
#     Node 29, Type 0, BuildingBlock: BETFEN_clean_sbu_0, # of connection points: 6
#     Node 30, Type 0, BuildingBlock: BETFEN_clean_sbu_0, # of connection points: 6
#     Node 31, Type 0, BuildingBlock: BETFEN_clean_sbu_0, # of connection points: 6
#     Edge 32, Type (0, 0), BuildingBlock: MIFKUJ_clean_linker_0, # of connection points: 2
#     Edge 33, Type (0, 0), BuildingBlock: MIFKUJ_clean_linker_0, # of connection points: 2
#     Edge 34, Type (0, 0), BuildingBlock: MIFKUJ_clean_linker_0, # of connection points: 2
#     Edge 35, Type (0, 0), BuildingBlock: MIFKUJ_clean_linker_0, # of connection points: 2
#     Edge 36, Type (0, 0), BuildingBlock: MIFKUJ_clean_linker_0, # of connection points: 2
#     Edge 37, Type (0, 0), BuildingBlock: MIFKUJ_clean_linker_0, # of connection points: 2
#     Edge 38, Type (0, 0), BuildingBlock: MIFKUJ_clean_linker_0, # of connection points: 2
#     Edge 39, Type (0, 0), BuildingBlock: MIFKUJ_clean_linker_0, # of connection points: 2
#     Edge 40, Type (0, 0), BuildingBlock: MIFKUJ_clean_linker_0, # of connection points: 2
#     Edge 41, Type (0, 0), BuildingBlock: MIFKUJ_clean_linker_0, # of connection points: 2
#     Edge 42, Type (0, 0), BuildingBlock: MIFKUJ_clean_linker_0, # of connection points: 2
#     Edge 43, Type (0, 0), BuildingBlock: MIFKUJ_clean_linker_0, # of connection points: 2
#     Edge 44, Type (0, 0), BuildingBlock: MIFKUJ_clean_linker_0, # of connection points: 2
#     Edge 45, Type (0, 0), BuildingBlock: MIFKUJ_clean_linker_0, # of connection points: 2
#     Edge 46, Type (0, 0), BuildingBlock: MIFKUJ_clean_linker_0, # of connection points: 2
#     Edge 47, Type (0, 0), BuildingBlock: MIFKUJ_clean_linker_0, # of connection points: 2
#     Edge 48, Type (0, 0), BuildingBlock: MIFKUJ_clean_linker_0, # of connection points: 2
#     Edge 49, Type (0, 0), BuildingBlock: MIFKUJ_clean_linker_0, # of connection points: 2
#     Edge 50, Type (0, 0), BuildingBlock: MIFKUJ_clean_linker_0, # of connection points: 2
#     Edge 51, Type (0, 0), BuildingBlock: MIFKUJ_clean_linker_0, # of connection points: 2
#     Edge 52, Type (0, 0), BuildingBlock: MIFKUJ_clean_linker_0, # of connection points: 2
#     Edge 53, Type (0, 0), BuildingBlock: MIFKUJ_clean_linker_0, # of connection points: 2
#     Edge 54, Type (0, 0), BuildingBlock: MIFKUJ_clean_linker_0, # of connection points: 2
#     Edge 55, Type (0, 0), BuildingBlock: MIFKUJ_clean_linker_0, # of connection points: 2
#     Edge 56, Type (0, 0), BuildingBlock: MIFKUJ_clean_linker_0, # of connection points: 2
#     Edge 57, Type (0, 0), BuildingBlock: MIFKUJ_clean_linker_0, # of connection points: 2
#     Edge 58, Type (0, 0), BuildingBlock: MIFKUJ_clean_linker_0, # of connection points: 2
#     Edge 59, Type (0, 0), BuildingBlock: MIFKUJ_clean_linker_0, # of connection points: 2
#     Edge 60, Type (0, 0), BuildingBlock: MIFKUJ_clean_linker_0, # of connection points: 2
#     Edge 61, Type (0, 0), BuildingBlock: MIFKUJ_clean_linker_0, # of connection points: 2
#     Edge 62, Type (0, 0), BuildingBlock: MIFKUJ_clean_linker_0, # of connection points: 2
#     Edge 63, Type (0, 0), BuildingBlock: MIFKUJ_clean_linker_0, # of connection points: 2
#     Edge 64, Type (0, 0), BuildingBlock: MIFKUJ_clean_linker_0, # of connection points: 2
#     Edge 65, Type (0, 0), BuildingBlock: MIFKUJ_clean_linker_0, # of connection points: 2
#     Edge 66, Type (0, 0), BuildingBlock: MIFKUJ_clean_linker_0, # of connection points: 2
#     Edge 67, Type (0, 0), BuildingBlock: MIFKUJ_clean_linker_0, # of connection points: 2
#     Edge 68, Type (0, 0), BuildingBlock: MIFKUJ_clean_linker_0, # of connection points: 2
#     Edge 69, Type (0, 0), BuildingBlock: MIFKUJ_clean_linker_0, # of connection points: 2
#     Edge 70, Type (0, 0), BuildingBlock: MIFKUJ_clean_linker_0, # of connection points: 2
#     Edge 71, Type (0, 0), BuildingBlock: MIFKUJ_clean_linker_0, # of connection points: 2
#     Edge 72, Type (0, 0), BuildingBlock: MIFKUJ_clean_linker_0, # of connection points: 2
#     Edge 73, Type (0, 0), BuildingBlock: MIFKUJ_clean_linker_0, # of connection points: 2
#     Edge 74, Type (0, 0), BuildingBlock: MIFKUJ_clean_linker_0, # of connection points: 2
#     Edge 75, Type (0, 0), BuildingBlock: MIFKUJ_clean_linker_0, # of connection points: 2
#     Edge 76, Type (0, 0), BuildingBlock: MIFKUJ_clean_linker_0, # of connection points: 2
#     Edge 77, Type (0, 0), BuildingBlock: MIFKUJ_clean_linker_0, # of connection points: 2
#     Edge 78, Type (0, 0), BuildingBlock: MIFKUJ_clean_linker_0, # of connection points: 2
#     Edge 79, Type (0, 0), BuildingBlock: MIFKUJ_clean_linker_0, # of connection points: 2
#     Edge 80, Type (0, 0), BuildingBlock: MIFKUJ_clean_linker_0, # of connection points: 2
#     Edge 81, Type (0, 0), BuildingBlock: MIFKUJ_clean_linker_0, # of connection points: 2
#     Edge 82, Type (0, 0), BuildingBlock: MIFKUJ_clean_linker_0, # of connection points: 2
#     Edge 83, Type (0, 0), BuildingBlock: MIFKUJ_clean_linker_0, # of connection points: 2
#     Edge 84, Type (0, 0), BuildingBlock: MIFKUJ_clean_linker_0, # of connection points: 2
#     Edge 85, Type (0, 0), BuildingBlock: MIFKUJ_clean_linker_0, # of connection points: 2
#     Edge 86, Type (0, 0), BuildingBlock: MIFKUJ_clean_linker_0, # of connection points: 2
#     Edge 87, Type (0, 0), BuildingBlock: MIFKUJ_clean_linker_0, # of connection points: 2
#     Edge 88, Type (0, 0), BuildingBlock: MIFKUJ_clean_linker_0, # of connection points: 2
#     Edge 89, Type (0, 0), BuildingBlock: MIFKUJ_clean_linker_0, # of connection points: 2
#     Edge 90, Type (0, 0), BuildingBlock: MIFKUJ_clean_linker_0, # of connection points: 2
#     Edge 91, Type (0, 0), BuildingBlock: MIFKUJ_clean_linker_0, # of connection points: 2
#     Edge 92, Type (0, 0), BuildingBlock: MIFKUJ_clean_linker_0, # of connection points: 2
#     Edge 93, Type (0, 0), BuildingBlock: MIFKUJ_clean_linker_0, # of connection points: 2
#     Edge 94, Type (0, 0), BuildingBlock: MIFKUJ_clean_linker_0, # of connection points: 2
#     Edge 95, Type (0, 0), BuildingBlock: MIFKUJ_clean_linker_0, # of connection points: 2
#     Edge 96, Type (0, 0), BuildingBlock: MIFKUJ_clean_linker_0, # of connection points: 2
#     Edge 97, Type (0, 0), BuildingBlock: MIFKUJ_clean_linker_0, # of connection points: 2
#     Edge 98, Type (0, 0), BuildingBlock: MIFKUJ_clean_linker_0, # of connection points: 2
#     Edge 99, Type (0, 0), BuildingBlock: MIFKUJ_clean_linker_0, # of connection points: 2
#     Edge 100, Type (0, 0), BuildingBlock: MIFKUJ_clean_linker_0, # of connection points: 2
#     Edge 101, Type (0, 0), BuildingBlock: MIFKUJ_clean_linker_0, # of connection points: 2
#     Edge 102, Type (0, 0), BuildingBlock: MIFKUJ_clean_linker_0, # of connection points: 2
#     Edge 103, Type (0, 0), BuildingBlock: MIFKUJ_clean_linker_0, # of connection points: 2
#     Edge 104, Type (0, 0), BuildingBlock: MIFKUJ_clean_linker_0, # of connection points: 2
#     Edge 105, Type (0, 0), BuildingBlock: MIFKUJ_clean_linker_0, # of connection points: 2
#     Edge 106, Type (0, 0), BuildingBlock: MIFKUJ_clean_linker_0, # of connection points: 2
#     Edge 107, Type (0, 0), BuildingBlock: MIFKUJ_clean_linker_0, # of connection points: 2
#     Edge 108, Type (0, 0), BuildingBlock: MIFKUJ_clean_linker_0, # of connection points: 2
#     Edge 109, Type (0, 0), BuildingBlock: MIFKUJ_clean_linker_0, # of connection points: 2
#     Edge 110, Type (0, 0), BuildingBlock: MIFKUJ_clean_linker_0, # of connection points: 2
#     Edge 111, Type (0, 0), BuildingBlock: MIFKUJ_clean_linker_0, # of connection points: 2
#     Edge 112, Type (0, 0), BuildingBlock: MIFKUJ_clean_linker_0, # of connection points: 2
#     Edge 113, Type (0, 0), BuildingBlock: MIFKUJ_clean_linker_0, # of connection points: 2
#     Edge 114, Type (0, 0), BuildingBlock: MIFKUJ_clean_linker_0, # of connection points: 2
#     Edge 115, Type (0, 0), BuildingBlock: MIFKUJ_clean_linker_0, # of connection points: 2
#     Edge 116, Type (0, 0), BuildingBlock: MIFKUJ_clean_linker_0, # of connection points: 2
#     Edge 117, Type (0, 0), BuildingBlock: MIFKUJ_clean_linker_0, # of connection points: 2
#     Edge 118, Type (0, 0), BuildingBlock: MIFKUJ_clean_linker_0, # of connection points: 2
#     Edge 119, Type (0, 0), BuildingBlock: MIFKUJ_clean_linker_0, # of connection points: 2
#     Edge 120, Type (0, 0), BuildingBlock: MIFKUJ_clean_linker_0, # of connection points: 2
#     Edge 121, Type (0, 0), BuildingBlock: MIFKUJ_clean_linker_0, # of connection points: 2
#     Edge 122, Type (0, 0), BuildingBlock: MIFKUJ_clean_linker_0, # of connection points: 2
#     Edge 123, Type (0, 0), BuildingBlock: MIFKUJ_clean_linker_0, # of connection points: 2
#     Edge 124, Type (0, 0), BuildingBlock: MIFKUJ_clean_linker_0, # of connection points: 2
#     Edge 125, Type (0, 0), BuildingBlock: MIFKUJ_clean_linker_0, # of connection points: 2
#     Edge 126, Type (0, 0), BuildingBlock: MIFKUJ_clean_linker_0, # of connection points: 2
#     Edge 127, Type (0, 0), BuildingBlock: MIFKUJ_clean_linker_0, # of connection points: 2
# Relax obj value: 0.193
# Max RMSD: 0.229
# Mean RMSD: 0.229
data_MOF--net-wio--node1-BETFEN_clean_sbu_0--edge1-MIFKUJ_clean_linker_0
_symmetry_space_group_name_H-M    P1
_symmetry_Int_Tables_number       1
_symmetry_cell_setting            triclinic
loop_
_symmetry_equiv_pos_as_xyz
'x, y, z'
_cell_length_a     77.262704
_cell_length_b     77.217786
_cell_length_c     69.270374
_cell_angle_alpha  89.960486
_cell_angle_beta   89.993233
_cell_angle_gamma 89.999058
loop_
_atom_site_label
_atom_site_type_symbol
_atom_site_fract_x
_atom_site_fract_y
_atom_site_fract_z
_atom_type_partial_charge
Pr0 Pr 0.14964 0.11702 0.2739 0.0
Pr1 Pr 0.10821 0.12417 0.2859 0.0
C2 C 0.17841 0.10345 0.2575 0.0
C3 C 0.19227 0.10629 0.24305 0.0
C4 C 0.1997 0.12263 0.23974 0.0
C5 C 0.21264 0.12472 0.22563 0.0
C6 C 0.21833 0.11053 0.21448 0.0
C7 C 0.2108 0.09421 0.21796 0.0
C8 C 0.19795 0.09215 0.23202 0.0
C9 C 0.14501 0.14889 0.29361 0.0
C10 C 0.12288 0.13396 0.24078 0.0
C11 C 0.07756 0.13744 0.29748 0.0
C12 C 0.06432 0.1354 0.31295 0.0
C13 C 0.05391 0.12048 0.31427 0.0
C14 C 0.04096 0.1192 0.3284 0.0
C15 C 0.03806 0.13277 0.34159 0.0
C16 C 0.04863 0.14759 0.34037 0.0
C17 C 0.06153 0.1489 0.3262 0.0
C18 C 0.11634 0.0907 0.27516 0.0
C19 C 0.13343 0.1013 0.31545 0.0
O20 O 0.16279 0.10105 0.25075 0.0
O21 O 0.17871 0.11232 0.27364 0.0
O22 O 0.13383 0.13796 0.28862 0.0
O23 O 0.16 0.14371 0.28727 0.0
O24 O 0.10955 0.13328 0.25301 0.0
O25 O 0.13888 0.12974 0.24577 0.0
O26 O 0.09252 0.1441 0.30242 0.0
O27 O 0.07893 0.12516 0.28449 0.0
O28 O 0.12319 0.10427 0.26832 0.0
O29 O 0.10329 0.09431 0.28639 0.0
O30 O 0.14508 0.09966 0.30144 0.0
O31 O 0.12008 0.11217 0.31435 0.0
H32 H 0.19545 0.13378 0.24794 0.0
H33 H 0.21798 0.13751 0.22325 0.0
H34 H 0.21497 0.08291 0.20998 0.0
H35 H 0.19241 0.07941 0.2343 0.0
H36 H 0.05567 0.10981 0.30433 0.0
H37 H 0.03325 0.1075 0.32903 0.0
H38 H 0.04667 0.15839 0.35009 0.0
H39 H 0.06922 0.16061 0.32546 0.0
Pr40 Pr 0.1325 0.90354 0.529 0.0
Pr41 Pr 0.12694 0.86455 0.53621 0.0
C42 C 0.13793 0.93614 0.51566 0.0
C43 C 0.13684 0.94761 0.49834 0.0
C44 C 0.12241 0.95848 0.49572 0.0
C45 C 0.12189 0.9705 0.48057 0.0
C46 C 0.13583 0.97214 0.46761 0.0
C47 C 0.15016 0.96104 0.47001 0.0
C48 C 0.15068 0.94899 0.48521 0.0
C49 C 0.10297 0.8952 0.55038 0.0
C50 C 0.12014 0.87791 0.49214 0.0
C51 C 0.1164 0.83406 0.55159 0.0
C52 C 0.11895 0.82158 0.56764 0.0
C53 C 0.13537 0.815 0.57243 0.0
C54 C 0.13712 0.80214 0.58665 0.0
C55 C 0.1225 0.79559 0.59642 0.0
C56 C 0.10616 0.80254 0.59186 0.0
C57 C 0.10442 0.81534 0.57765 0.0
C58 C 0.15864 0.87217 0.51885 0.0
C59 C 0.14943 0.88836 0.56909 0.0
O60 O 0.15008 0.92433 0.5164 0.0
O61 O 0.12343 0.93101 0.52354 0.0
O62 O 0.10782 0.88724 0.5353 0.0
O63 O 0.11326 0.90797 0.55441 0.0
O64 O 0.11559 0.86573 0.5046 0.0
O65 O 0.12785 0.89224 0.49798 0.0
O66 O 0.10905 0.8489 0.5556 0.0
O67 O 0.12849 0.83532 0.53843 0.0
O68 O 0.15145 0.88092 0.53193 0.0
O69 O 0.1499 0.85811 0.51525 0.0
O70 O 0.14971 0.90144 0.55672 0.0
O71 O 0.14068 0.87393 0.56524 0.0
H72 H 0.11158 0.95793 0.50564 0.0
H73 H 0.11051 0.97859 0.47907 0.0
H74 H 0.16124 0.96201 0.46051 0.0
H75 H 0.16212 0.94102 0.48689 0.0
H76 H 0.14683 0.8196 0.56503 0.0
H77 H 0.14993 0.7973 0.58994 0.0
H78 H 0.09459 0.79771 0.59885 0.0
H79 H 0.09161 0.82011 0.57415 0.0
Pr80 Pr 0.34933 0.88316 0.77938 0.0
Pr81 Pr 0.38778 0.87688 0.78722 0.0
C82 C 0.31716 0.8897 0.76554 0.0
C83 C 0.30576 0.88868 0.74823 0.0
C84 C 0.29123 0.87774 0.74861 0.0
C85 C 0.27954 0.87735 0.73317 0.0
C86 C 0.28196 0.88799 0.71688 0.0
C87 C 0.29664 0.89883 0.71639 0.0
C88 C 0.30841 0.89917 0.73186 0.0
C89 C 0.35674 0.85257 0.79928 0.0
C90 C 0.37506 0.87074 0.74292 0.0
C91 C 0.41807 0.86622 0.80299 0.0
C92 C 0.43127 0.86976 0.81818 0.0
C93 C 0.44816 0.87439 0.81272 0.0
C94 C 0.46124 0.87638 0.82656 0.0
C95 C 0.45783 0.87371 0.84631 0.0
C96 C 0.44084 0.86926 0.85181 0.0
C97 C 0.42773 0.86731 0.83793 0.0
C98 C 0.38107 0.90977 0.77203 0.0
C99 C 0.36337 0.89816 0.82063 0.0
O100 O 0.32952 0.9013 0.76596 0.0
O101 O 0.32152 0.87514 0.77386 0.0
O102 O 0.36509 0.85792 0.78469 0.0
O103 O 0.34407 0.86289 0.80357 0.0
O104 O 0.38668 0.86545 0.75566 0.0
O105 O 0.36108 0.87917 0.74848 0.0
O106 O 0.40292 0.86026 0.80828 0.0
O107 O 0.41719 0.87679 0.78825 0.0
O108 O 0.37195 0.90197 0.78433 0.0
O109 O 0.39463 0.90063 0.7675 0.0
O110 O 0.35047 0.89883 0.80813 0.0
O111 O 0.378 0.88987 0.81654 0.0
H112 H 0.28871 0.86967 0.76111 0.0
H113 H 0.26829 0.86904 0.73428 0.0
H114 H 0.29906 0.90707 0.70402 0.0
H115 H 0.31944 0.90779 0.73107 0.0
H116 H 0.45138 0.87611 0.79761 0.0
H117 H 0.47417 0.87955 0.82168 0.0
H118 H 0.43765 0.86728 0.86687 0.0
H119 H 0.41488 0.86365 0.84269 0.0
Pr120 Pr 0.3672 0.10229 0.02576 0.0
Pr121 Pr 0.37372 0.14105 0.03615 0.0
C122 C 0.36278 0.07015 1.01112 0.0
C123 C 0.36007 0.05929 0.99372 0.0
C124 C 0.34966 0.04446 0.99514 0.0
C125 C 0.34868 0.03261 0.97987 0.0
C126 C 0.35816 0.03527 0.96274 0.0
C127 C 0.36813 0.0505 0.96111 0.0
C128 C 0.36907 0.06238 0.97642 0.0
C129 C 0.39555 0.10897 0.05 0.0
C130 C 0.37888 0.1296 0.99016 0.0
C131 C 0.38708 0.17136 0.0487 0.0
C132 C 0.38465 0.18474 0.06378 0.0
C133 C 0.36816 0.18951 0.07047 0.0
C134 C 0.36635 0.20235 0.0847 0.0
C135 C 0.381 0.2106 0.09263 0.0
C136 C 0.39748 0.20559 0.08597 0.0
C137 C 0.39926 0.19283 0.07174 0.0
C138 C 0.33953 0.13385 0.02698 0.0
C139 C 0.35054 0.11625 0.06611 0.0
O140 O 0.34987 0.07943 0.01776 0.0
O141 O 0.37788 0.07764 0.0131 0.0
O142 O 0.39167 0.11755 0.03511 0.0
O143 O 0.38467 0.09645 0.05275 0.0
O144 O 0.38152 0.14203 1.00305 0.0
O145 O 0.37314 0.11414 0.99528 0.0
O146 O 0.39267 0.15621 0.05452 0.0
O147 O 0.37551 0.17034 0.03488 0.0
O148 O 0.35248 0.12731 0.01851 0.0
O149 O 0.34407 0.14559 0.03945 0.0
O150 O 0.34827 0.10524 0.05172 0.0
O151 O 0.36212 0.12897 0.06501 0.0
H152 H 0.34273 0.04169 1.00839 0.0
H153 H 0.34103 0.02099 0.98182 0.0
H154 H 0.37539 0.05315 0.94806 0.0
H155 H 0.3772 0.07373 0.9749 0.0
H156 H 0.35668 0.18333 0.06472 0.0
H157 H 0.35347 0.20568 0.08963 0.0
H158 H 0.40904 0.21176 0.09149 0.0
H159 H 0.41211 0.18934 0.06684 0.0
Pr160 Pr 0.15356 0.88326 0.24707 0.0
Pr161 Pr 0.11481 0.87749 0.23781 0.0
C162 C 0.18631 0.88646 0.26027 0.0
C163 C 0.19817 0.88732 0.27702 0.0
C164 C 0.21335 0.87738 0.27643 0.0
C165 C 0.22507 0.87764 0.29177 0.0
C166 C 0.22195 0.88787 0.30819 0.0
C167 C 0.20673 0.89797 0.30875 0.0
C168 C 0.1949 0.89766 0.29331 0.0
C169 C 0.1461 0.85509 0.2229 0.0
C170 C 0.12688 0.87266 0.28368 0.0
C171 C 0.0841 0.86425 0.22635 0.0
C172 C 0.07054 0.86642 0.21148 0.0
C173 C 0.06738 0.88248 0.20262 0.0
C174 C 0.05456 0.88404 0.18836 0.0
C175 C 0.04473 0.86956 0.18259 0.0
C176 C 0.04803 0.85351 0.19151 0.0
C177 C 0.0608 0.85198 0.20575 0.0
C178 C 0.12283 0.91176 0.24576 0.0
C179 C 0.1393 0.90006 0.20694 0.0
O180 O 0.17656 0.89984 0.256 0.0
O181 O 0.17884 0.87155 0.25697 0.0
O182 O 0.13785 0.85888 0.23809 0.0
O183 O 0.15843 0.86609 0.21974 0.0
O184 O 0.11406 0.87059 0.27117 0.0
O185 O 0.14251 0.87745 0.27801 0.0
O186 O 0.09905 0.85836 0.22037 0.0
O187 O 0.08551 0.87624 0.23966 0.0
O188 O 0.12918 0.89889 0.25463 0.0
O189 O 0.11086 0.90713 0.2336 0.0
O190 O 0.15076 0.90205 0.22094 0.0
O191 O 0.1263 0.88885 0.20855 0.0
H192 H 0.2162 0.86939 0.26397 0.0
H193 H 0.23675 0.86996 0.29061 0.0
H194 H 0.20385 0.90591 0.32122 0.0
H195 H 0.18324 0.90541 0.29414 0.0
H196 H 0.07487 0.89377 0.20665 0.0
H197 H 0.05251 0.89655 0.18166 0.0
H198 H 0.04064 0.84213 0.18758 0.0
H199 H 0.06309 0.83944 0.21231 0.0
Pr200 Pr 0.36904 0.90012 0.49821 0.0
Pr201 Pr 0.37387 0.86095 0.49118 0.0
C202 C 0.36418 0.93311 0.51041 0.0
C203 C 0.36524 0.94532 0.52689 0.0
C204 C 0.37185 0.96199 0.52363 0.0
C205 C 0.37246 0.97421 0.53853 0.0
C206 C 0.36646 0.97011 0.55717 0.0
C207 C 0.35992 0.9533 0.56047 0.0
C208 C 0.35934 0.94102 0.54549 0.0
C209 C 0.3977 0.89115 0.47586 0.0
C210 C 0.38211 0.87459 0.53488 0.0
C211 C 0.38328 0.83006 0.47578 0.0
C212 C 0.38078 0.81786 0.45933 0.0
C213 C 0.36497 0.80925 0.45622 0.0
C214 C 0.36346 0.79659 0.44176 0.0
C215 C 0.37771 0.79214 0.43005 0.0
C216 C 0.3934 0.80107 0.43296 0.0
C217 C 0.39491 0.8137 0.44741 0.0
C218 C 0.34296 0.86928 0.50982 0.0
C219 C 0.35164 0.88506 0.45851 0.0
O220 O 0.35195 0.92139 0.51039 0.0
O221 O 0.37873 0.92755 0.50304 0.0
O222 O 0.39331 0.88344 0.49127 0.0
O223 O 0.38735 0.90388 0.47187 0.0
O224 O 0.3859 0.86215 0.52242 0.0
O225 O 0.37462 0.8891 0.52919 0.0
O226 O 0.39172 0.84448 0.47257 0.0
O227 O 0.37075 0.83186 0.48832 0.0
O228 O 0.34973 0.87776 0.49622 0.0
O229 O 0.35159 0.85513 0.51326 0.0
O230 O 0.35149 0.89812 0.47086 0.0
O231 O 0.36021 0.87053 0.46229 0.0
H232 H 0.37637 0.96567 0.5094 0.0
H233 H 0.37732 0.98704 0.53528 0.0
H234 H 0.35535 0.94959 0.57466 0.0
H235 H 0.35422 0.92823 0.54844 0.0
H236 H 0.35384 0.81201 0.4652 0.0
H237 H 0.35121 0.78992 0.44016 0.0
H238 H 0.40459 0.79827 0.42409 0.0
H239 H 0.40728 0.82002 0.4495 0.0
Pr240 Pr 0.35156 0.11806 0.74678 0.0
Pr241 Pr 0.39037 0.12558 0.7388 0.0
C242 C 0.31996 0.10997 0.76132 0.0
C243 C 0.30804 0.11225 0.77808 0.0
C244 C 0.29263 0.12169 0.77571 0.0
C245 C 0.28041 0.12274 0.79063 0.0
C246 C 0.28314 0.11424 0.80839 0.0
C247 C 0.29878 0.10509 0.8109 0.0
C248 C 0.31105 0.10408 0.79595 0.0
C249 C 0.35808 0.14835 0.72587 0.0
C250 C 0.37645 0.13388 0.78258 0.0
C251 C 0.42041 0.13709 0.72306 0.0
C252 C 0.43338 0.13463 0.70752 0.0
C253 C 0.43604 0.11851 0.69859 0.0
C254 C 0.44915 0.11646 0.68468 0.0
C255 C 0.45993 0.13047 0.67945 0.0
C256 C 0.45692 0.14664 0.68825 0.0
C257 C 0.44382 0.14867 0.70206 0.0
C258 C 0.38429 0.09433 0.75769 0.0
C259 C 0.36721 0.10125 0.7069 0.0
O260 O 0.33363 0.10014 0.7634 0.0
O261 O 0.32276 0.12333 0.75013 0.0
O262 O 0.36671 0.14347 0.74046 0.0
O263 O 0.34542 0.13779 0.7222 0.0
O264 O 0.38865 0.13805 0.76994 0.0
O265 O 0.36239 0.12547 0.7772 0.0
O266 O 0.40521 0.14322 0.71829 0.0
O267 O 0.41966 0.12544 0.73676 0.0
O268 O 0.37529 0.10049 0.74415 0.0
O269 O 0.39788 0.10385 0.76096 0.0
O270 O 0.35445 0.1004 0.71961 0.0
O271 O 0.38115 0.11093 0.71016 0.0
H272 H 0.28985 0.12805 0.76212 0.0
H273 H 0.26875 0.13019 0.78817 0.0
H274 H 0.30135 0.09822 0.82423 0.0
H275 H 0.32271 0.09659 0.79829 0.0
H276 H 0.42815 0.10747 0.70255 0.0
H277 H 0.45112 0.10378 0.6784 0.0
H278 H 0.46461 0.15783 0.68437 0.0
H279 H 0.44194 0.16125 0.70865 0.0
Pr280 Pr 0.13217 0.09974 0.99574 0.0
Pr281 Pr 0.12573 0.13849 0.9873 0.0
C282 C 0.13603 0.06725 1.00973 0.0
C283 C 0.13685 0.05663 0.02769 0.0
C284 C 0.12186 0.0533 0.03865 0.0
C285 C 0.12223 0.04157 0.05408 0.0
C286 C 0.13758 0.03283 0.05903 0.0
C287 C 0.15271 0.0366 0.04849 0.0
C288 C 0.15232 0.04828 0.03295 0.0
C289 C 0.10453 0.10723 0.97077 0.0
C290 C 0.11907 0.12533 0.03239 0.0
C291 C 0.11254 0.16908 0.97543 0.0
C292 C 0.11535 0.18261 0.96048 0.0
C293 C 0.1168 0.20005 0.96598 0.0
C294 C 0.11853 0.21312 0.95205 0.0
C295 C 0.11869 0.20908 0.93224 0.0
C296 C 0.1174 0.19158 0.92675 0.0
C297 C 0.11584 0.1785 0.94069 0.0
C298 C 0.15969 0.13144 0.9974 0.0
C299 C 0.15038 0.11526 0.957 0.0
O300 O 0.14923 0.07715 1.00523 0.0
O301 O 0.12109 0.07409 1.00514 0.0
O302 O 0.10771 0.115 0.98639 0.0
O303 O 0.11595 0.09531 0.96743 0.0
O304 O 0.11753 0.13853 0.02025 0.0
O305 O 0.12432 0.10994 0.02645 0.0
O306 O 0.10675 0.15401 0.96957 0.0
O307 O 0.12392 0.16786 0.98942 0.0
O308 O 0.14664 0.12435 1.00516 0.0
O309 O 0.15529 0.14347 0.9852 0.0
O310 O 0.15201 0.1035 0.97076 0.0
O311 O 0.13885 0.12802 0.95842 0.0
H312 H 0.10967 0.05943 0.03505 0.0
H313 H 0.11039 0.0392 0.06204 0.0
H314 H 0.16474 0.03002 0.05178 0.0
H315 H 0.16404 0.05039 0.02469 0.0
H316 H 0.11637 0.2036 0.9811 0.0
H317 H 0.11936 0.22646 0.9568 0.0
H318 H 0.11773 0.18798 0.91164 0.0
H319 H 0.11487 0.16517 0.93594 0.0
Pr320 Pr 0.89103 0.87538 0.73894 0.0
Pr321 Pr 0.85255 0.88233 0.74766 0.0
C322 C 0.92152 0.86192 0.72718 0.0
C323 C 0.93511 0.86488 0.71232 0.0
C324 C 0.9526 0.86521 0.71778 0.0
C325 C 0.96568 0.86721 0.70391 0.0
C326 C 0.96158 0.86878 0.68418 0.0
C327 C 0.94403 0.86861 0.67874 0.0
C328 C 0.93094 0.86677 0.69265 0.0
C329 C 0.88472 0.91003 0.74621 0.0
C330 C 0.86725 0.89841 0.70755 0.0
C331 C 0.81971 0.88641 0.76058 0.0
C332 C 0.80757 0.88803 0.77702 0.0
C333 C 0.7899 0.88531 0.77358 0.0
C334 C 0.77796 0.88549 0.78877 0.0
C335 C 0.78337 0.8884 0.80789 0.0
C336 C 0.80112 0.8915 0.8113 0.0
C337 C 0.81314 0.89122 0.79599 0.0
C338 C 0.85957 0.85374 0.72377 0.0
C339 C 0.87847 0.87098 0.78461 0.0
O340 O 0.90644 0.85634 0.72115 0.0
O341 O 0.92034 0.87315 0.74131 0.0
O342 O 0.87728 0.89779 0.75526 0.0
O343 O 0.8965 0.90445 0.73437 0.0
O344 O 0.85564 0.90073 0.7213 0.0
O345 O 0.88019 0.88719 0.70956 0.0
O346 O 0.82976 0.89949 0.75608 0.0
O347 O 0.82705 0.87133 0.75801 0.0
O348 O 0.86756 0.85739 0.73914 0.0
O349 O 0.84764 0.86509 0.72026 0.0
O350 O 0.89145 0.86872 0.77234 0.0
O351 O 0.86306 0.87607 0.77863 0.0
H352 H 0.95619 0.86371 0.73281 0.0
H353 H 0.97905 0.86716 0.7086 0.0
H354 H 0.9404 0.86996 0.66371 0.0
H355 H 0.91757 0.86667 0.68795 0.0
H356 H 0.7853 0.8828 0.75907 0.0
H357 H 0.76442 0.88337 0.78549 0.0
H358 H 0.80578 0.89369 0.82583 0.0
H359 H 0.82675 0.89323 0.799 0.0
Pr360 Pr 0.87095 0.13706 0.49069 0.0
Pr361 Pr 0.86848 0.09777 0.49692 0.0
C362 C 0.87903 0.16851 0.47577 0.0
C363 C 0.87583 0.18159 0.46042 0.0
C364 C 0.87511 0.19916 0.46551 0.0
C365 C 0.87367 0.21204 0.45135 0.0
C366 C 0.87292 0.20771 0.43161 0.0
C367 C 0.8733 0.19003 0.42654 0.0
C368 C 0.87474 0.17711 0.44078 0.0
C369 C 0.84118 0.12684 0.51035 0.0
C370 C 0.84814 0.11235 0.45874 0.0
C371 C 0.86674 0.06478 0.51007 0.0
C372 C 0.86729 0.05404 0.52786 0.0
C373 C 0.87851 0.03975 0.52851 0.0
C374 C 0.87888 0.02879 0.5446 0.0
C375 C 0.86795 0.03177 0.56052 0.0
C376 C 0.85686 0.04626 0.56 0.0
C377 C 0.85657 0.05731 0.54387 0.0
C378 C 0.89618 0.10872 0.47406 0.0
C379 C 0.87955 0.12349 0.53397 0.0
O380 O 0.887 0.15417 0.47105 0.0
O381 O 0.86728 0.16632 0.48915 0.0
O382 O 0.84792 0.11902 0.49629 0.0
O383 O 0.84924 0.14131 0.51395 0.0
O384 O 0.85003 0.09881 0.47027 0.0
O385 O 0.85564 0.12746 0.46268 0.0
O386 O 0.85305 0.07437 0.50686 0.0
O387 O 0.88117 0.0722 0.50469 0.0
O388 O 0.89169 0.11577 0.4898 0.0
O389 O 0.88637 0.09561 0.4699 0.0
O390 O 0.88373 0.13585 0.52158 0.0
O391 O 0.87208 0.10907 0.52809 0.0
H392 H 0.87608 0.20298 0.48052 0.0
H393 H 0.87364 0.22545 0.45588 0.0
H394 H 0.87253 0.18615 0.41155 0.0
H395 H 0.87529 0.16365 0.43639 0.0
H396 H 0.88686 0.03688 0.51635 0.0
H397 H 0.88741 0.01766 0.54433 0.0
H398 H 0.84842 0.04906 0.57208 0.0
H399 H 0.84785 0.0683 0.54386 0.0
Pr400 Pr 0.60751 0.12387 0.2389 0.0
Pr401 Pr 0.64959 0.1189 0.24869 0.0
C402 C 0.57637 0.13664 0.22856 0.0
C403 C 0.56287 0.13503 0.21339 0.0
C404 C 0.54586 0.13086 0.21875 0.0
C405 C 0.53276 0.12957 0.20486 0.0
C406 C 0.5363 0.13246 0.18517 0.0
C407 C 0.55337 0.13678 0.17983 0.0
C408 C 0.5665 0.13804 0.19376 0.0
C409 C 0.61798 0.09118 0.2499 0.0
C410 C 0.63281 0.1028 0.20756 0.0
C411 C 0.68092 0.10839 0.26161 0.0
C412 C 0.69245 0.10847 0.27884 0.0
C413 C 0.70583 0.12075 0.2801 0.0
C414 C 0.71768 0.12037 0.29535 0.0
C415 C 0.71666 0.10755 0.30976 0.0
C416 C 0.70305 0.09542 0.30874 0.0
C417 C 0.69112 0.09583 0.29343 0.0
C418 C 0.6423 0.14966 0.22786 0.0
C419 C 0.62314 0.13365 0.28354 0.0
O420 O 0.59109 0.14399 0.22381 0.0
O421 O 0.57818 0.12364 0.24061 0.0
O422 O 0.62405 0.10516 0.2567 0.0
O423 O 0.60485 0.0939 0.23841 0.0
O424 O 0.64555 0.10234 0.22047 0.0
O425 O 0.61842 0.11204 0.21002 0.0
O426 O 0.6673 0.09827 0.26147 0.0
O427 O 0.67819 0.12327 0.2531 0.0
O428 O 0.63214 0.13829 0.23392 0.0
O429 O 0.65782 0.14553 0.23332 0.0
O430 O 0.60963 0.13332 0.27156 0.0
O431 O 0.63901 0.12923 0.27816 0.0
H432 H 0.54264 0.12868 0.23379 0.0
H433 H 0.51975 0.12656 0.20963 0.0
H434 H 0.55666 0.13895 0.16483 0.0
H435 H 0.57948 0.14135 0.18913 0.0
H436 H 0.70735 0.1306 0.26908 0.0
H437 H 0.72771 0.13015 0.29579 0.0
H438 H 0.70189 0.08527 0.31946 0.0
H439 H 0.68107 0.08606 0.29285 0.0
Pr440 Pr 0.62808 0.8646 0.98941 0.0
Pr441 Pr 0.63337 0.90354 0.99659 0.0
C442 C 0.61795 0.83397 0.97407 0.0
C443 C 0.62037 0.8217 0.95777 0.0
C444 C 0.63671 0.81497 0.95291 0.0
C445 C 0.63834 0.80228 0.93852 0.0
C446 C 0.62367 0.79602 0.92861 0.0
C447 C 0.60741 0.80311 0.93323 0.0
C448 C 0.60579 0.81575 0.94764 0.0
C449 C 0.65951 0.87251 1.00705 0.0
C450 C 0.65123 0.88829 0.95696 0.0
C451 C 0.63949 0.9361 1.00951 0.0
C452 C 0.63824 0.94787 0.02647 0.0
C453 C 0.62718 0.9623 0.02561 0.0
C454 C 0.62665 0.97435 0.04071 0.0
C455 C 0.63725 0.97238 0.05709 0.0
C456 C 0.64821 0.95781 0.05804 0.0
C457 C 0.6487 0.9457 0.04293 0.0
C458 C 0.604 0.89519 0.97492 0.0
C459 C 0.62031 0.87812 0.03344 0.0
O460 O 0.61005 0.84862 0.97053 0.0
O461 O 0.63037 0.83544 0.9868 0.0
O462 O 0.65234 0.88103 0.99378 0.0
O463 O 0.65067 0.85864 1.01119 0.0
O464 O 0.65122 0.90128 0.96941 0.0
O465 O 0.64226 0.87391 0.96045 0.0
O466 O 0.65113 0.92378 1.00969 0.0
O467 O 0.62509 0.93148 1.00104 0.0
O468 O 0.60875 0.88722 0.99005 0.0
O469 O 0.6143 0.908 0.971 0.0
O470 O 0.61683 0.86552 0.02106 0.0
O471 O 0.62746 0.89277 0.02766 0.0
H472 H 0.64822 0.81932 0.96041 0.0
H473 H 0.65111 0.79733 0.93519 0.0
H474 H 0.59579 0.79851 0.92615 0.0
H475 H 0.59302 0.82062 0.95118 0.0
H476 H 0.61915 0.96447 0.01302 0.0
H477 H 0.61824 0.98549 0.03926 0.0
H478 H 0.65642 0.95573 0.0705 0.0
H479 H 0.65744 0.93478 0.04406 0.0
Pr480 Pr 0.88579 0.1222 0.78531 0.0
Pr481 Pr 0.84656 0.1181 0.77923 0.0
C482 C 0.91719 0.13097 0.7998 0.0
C483 C 0.93006 0.12799 0.81548 0.0
C484 C 0.93993 0.11269 0.81643 0.0
C485 C 0.95324 0.1109 0.83008 0.0
C486 C 0.95709 0.12437 0.84312 0.0
C487 C 0.94693 0.1395 0.8424 0.0
C488 C 0.93366 0.14129 0.82873 0.0
C489 C 0.87656 0.09197 0.76595 0.0
C490 C 0.86218 0.09961 0.81822 0.0
C491 C 0.81357 0.11394 0.76672 0.0
C492 C 0.80197 0.11506 0.74967 0.0
C493 C 0.78551 0.12245 0.75196 0.0
C494 C 0.77393 0.12335 0.73645 0.0
C495 C 0.77848 0.11687 0.71815 0.0
C496 C 0.79507 0.10951 0.71584 0.0
C497 C 0.80672 0.10865 0.73143 0.0
C498 C 0.85615 0.14674 0.80147 0.0
C499 C 0.87174 0.13085 0.74208 0.0
O500 O 0.90291 0.13925 0.80406 0.0
O501 O 0.91492 0.11889 0.78681 0.0
O502 O 0.86857 0.09842 0.7801 0.0
O503 O 0.8907 0.1005 0.76221 0.0
O504 O 0.8486 0.10035 0.8066 0.0
O505 O 0.87687 0.10769 0.81394 0.0
O506 O 0.82483 0.1013 0.76755 0.0
O507 O 0.8195 0.12848 0.77375 0.0
O508 O 0.86369 0.14219 0.786 0.0
O509 O 0.84323 0.13661 0.80544 0.0
O510 O 0.88425 0.13472 0.75438 0.0
O511 O 0.8573 0.12338 0.74801 0.0
H512 H 0.9376 0.10218 0.80642 0.0
H513 H 0.96059 0.09897 0.83034 0.0
H514 H 0.9496 0.15024 0.85198 0.0
H515 H 0.92647 0.15333 0.82822 0.0
H516 H 0.78151 0.1274 0.7659 0.0
H517 H 0.76123 0.12885 0.73894 0.0
H518 H 0.79913 0.10454 0.70194 0.0
H519 H 0.81937 0.10295 0.72922 0.0
Pr520 Pr 0.62447 0.14337 0.53718 0.0
Pr521 Pr 0.63418 0.1022 0.52561 0.0
C522 C 0.60851 0.17256 0.549 0.0
C523 C 0.61004 0.18619 0.56403 0.0
C524 C 0.61062 0.20366 0.55846 0.0
C525 C 0.61207 0.21682 0.57228 0.0
C526 C 0.61292 0.21286 0.59211 0.0
C527 C 0.61212 0.19533 0.5977 0.0
C528 C 0.61073 0.18215 0.58383 0.0
C529 C 0.65889 0.13727 0.52921 0.0
C530 C 0.64801 0.11885 0.56751 0.0
C531 C 0.6479 0.07329 0.5096 0.0
C532 C 0.64498 0.05991 0.49437 0.0
C533 C 0.63881 0.04332 0.49925 0.0
C534 C 0.63745 0.03026 0.48522 0.0
C535 C 0.64239 0.03336 0.46595 0.0
C536 C 0.64833 0.05004 0.46104 0.0
C537 C 0.64962 0.06309 0.47503 0.0
C538 C 0.60161 0.1062 0.54417 0.0
C539 C 0.61719 0.12833 0.49171 0.0
O540 O 0.60375 0.15701 0.55454 0.0
O541 O 0.6203 0.17242 0.53535 0.0
O542 O 0.64637 0.12944 0.52108 0.0
O543 O 0.65353 0.15007 0.53994 0.0
O544 O 0.65031 0.10706 0.55376 0.0
O545 O 0.6369 0.132 0.56583 0.0
O546 O 0.65164 0.08903 0.50395 0.0
O547 O 0.63824 0.07296 0.52516 0.0
O548 O 0.61218 0.11731 0.53848 0.0
O549 O 0.60754 0.09111 0.53909 0.0
O550 O 0.61672 0.1417 0.50389 0.0
O551 O 0.62218 0.1126 0.49693 0.0
H552 H 0.60993 0.20716 0.54333 0.0
H553 H 0.61234 0.23014 0.5674 0.0
H554 H 0.61288 0.19175 0.61279 0.0
H555 H 0.61028 0.1688 0.58864 0.0
H556 H 0.63536 0.04031 0.51403 0.0
H557 H 0.633 0.01756 0.48963 0.0
H558 H 0.65203 0.05302 0.44634 0.0
H559 H 0.65455 0.07563 0.47068 0.0
Pr560 Pr 0.61054 0.87952 0.2872 0.0
Pr561 Pr 0.65161 0.88623 0.27499 0.0
C562 C 0.57965 0.86667 0.29857 0.0
C563 C 0.56653 0.86874 0.31414 0.0
C564 C 0.55618 0.88368 0.3155 0.0
C565 C 0.54336 0.88503 0.32975 0.0
C566 C 0.54054 0.87149 0.34302 0.0
C567 C 0.55106 0.85665 0.34178 0.0
C568 C 0.56384 0.85528 0.32749 0.0
C569 C 0.61871 0.9132 0.27747 0.0
C570 C 0.6364 0.90132 0.31721 0.0
C571 C 0.6803 0.89958 0.25823 0.0
C572 C 0.69406 0.89636 0.2438 0.0
C573 C 0.70003 0.87964 0.2394 0.0
C574 C 0.71288 0.87721 0.22528 0.0
C575 C 0.71991 0.89145 0.21519 0.0
C576 C 0.71377 0.90814 0.21971 0.0
C577 C 0.70102 0.91053 0.23379 0.0
C578 C 0.64722 0.85423 0.29452 0.0
C579 C 0.62471 0.86959 0.24201 0.0
O580 O 0.59447 0.85966 0.30335 0.0
O581 O 0.58123 0.87911 0.2858 0.0
O582 O 0.62542 0.89986 0.26984 0.0
O583 O 0.60597 0.90925 0.28897 0.0
O584 O 0.64795 0.903 0.3031 0.0
O585 O 0.62267 0.89096 0.31581 0.0
O586 O 0.66466 0.90184 0.25148 0.0
O587 O 0.68066 0.89099 0.27456 0.0
O588 O 0.63592 0.86517 0.2898 0.0
O589 O 0.66212 0.85952 0.28803 0.0
O590 O 0.61141 0.87088 0.25418 0.0
O591 O 0.64082 0.87326 0.24703 0.0
H592 H 0.55788 0.89433 0.30549 0.0
H593 H 0.5357 0.89676 0.33041 0.0
H594 H 0.54916 0.84588 0.35157 0.0
H595 H 0.5715 0.84355 0.32673 0.0
H596 H 0.69471 0.86848 0.2468 0.0
H597 H 0.71713 0.86417 0.22207 0.0
H598 H 0.71901 0.91945 0.21255 0.0
H599 H 0.69657 0.92355 0.2369 0.0
Pr600 Pr 0.87643 0.8622 0.03717 0.0
Pr601 Pr 0.8718 0.90109 0.03012 0.0
C602 C 0.88554 0.83105 0.05206 0.0
C603 C 0.88192 0.81825 0.0676 0.0
C604 C 0.87664 0.80141 0.06265 0.0
C605 C 0.87461 0.78863 0.07684 0.0
C606 C 0.87802 0.79229 0.09637 0.0
C607 C 0.88299 0.80924 0.10139 0.0
C608 C 0.88486 0.82209 0.08719 0.0
C609 C 0.84453 0.8708 0.0207 0.0
C610 C 0.85502 0.88651 0.07047 0.0
C611 C 0.86724 0.9338 0.01685 0.0
C612 C 0.86685 0.9449 0.99926 0.0
C613 C 0.8802 0.95695 0.99615 0.0
C614 C 0.8795 0.96859 0.98066 0.0
C615 C 0.86536 0.96862 0.96786 0.0
C616 C 0.85211 0.95635 0.97077 0.0
C617 C 0.85283 0.94463 0.98628 0.0
C618 C 0.90121 0.89224 0.05143 0.0
C619 C 0.88293 0.87539 0.99325 0.0
O620 O 0.89309 0.84563 0.05675 0.0
O621 O 0.87411 0.83284 0.03828 0.0
O622 O 0.8523 0.87912 0.03365 0.0
O623 O 0.85297 0.85677 0.01625 0.0
O624 O 0.85488 0.89951 0.05802 0.0
O625 O 0.8635 0.87192 0.06663 0.0
O626 O 0.85442 0.92306 0.02003 0.0
O627 O 0.88223 0.9276 0.02225 0.0
O628 O 0.89627 0.88435 0.03634 0.0
O629 O 0.89111 0.90516 0.05547 0.0
O630 O 0.8883 0.86364 1.0058 0.0
O631 O 0.87462 0.88937 0.99904 0.0
H632 H 0.87442 0.79802 0.04767 0.0
H633 H 0.87088 0.7757 0.07244 0.0
H634 H 0.88551 0.81255 0.11632 0.0
H635 H 0.88886 0.83494 0.09152 0.0
H636 H 0.89106 0.95766 1.00601 0.0
H637 H 0.88983 0.97797 0.9791 0.0
H638 H 0.84112 0.95582 0.96108 0.0
H639 H 0.84228 0.93557 0.98824 0.0
Pr640 Pr 0.65171 0.62005 0.77888 0.0
Pr641 Pr 0.61334 0.62676 0.78696 0.0
C642 C 0.68373 0.61402 0.76421 0.0
C643 C 0.69463 0.61483 0.7464 0.0
C644 C 0.70242 0.63046 0.74053 0.0
C645 C 0.71421 0.63084 0.72513 0.0
C646 C 0.71868 0.61559 0.71514 0.0
C647 C 0.71053 0.60003 0.72071 0.0
C648 C 0.69874 0.59965 0.73615 0.0
C649 C 0.64471 0.65031 0.79962 0.0
C650 C 0.62585 0.63287 0.7428 0.0
C651 C 0.58321 0.63777 0.80276 0.0
C652 C 0.56949 0.63416 0.81726 0.0
C653 C 0.55207 0.635 0.81156 0.0
C654 C 0.53872 0.6329 0.82504 0.0
C655 C 0.5424 0.62994 0.84468 0.0
C656 C 0.5599 0.6289 0.85035 0.0
C657 C 0.57329 0.63097 0.8368 0.0
C658 C 0.61952 0.59425 0.77063 0.0
C659 C 0.63742 0.60405 0.81968 0.0
O660 O 0.67184 0.60201 0.7656 0.0
O661 O 0.67906 0.62863 0.77218 0.0
O662 O 0.63631 0.64541 0.78488 0.0
O663 O 0.65719 0.63968 0.80368 0.0
O664 O 0.61474 0.63882 0.7557 0.0
O665 O 0.63948 0.62379 0.74816 0.0
O666 O 0.59847 0.64267 0.80889 0.0
O667 O 0.58392 0.62791 0.78743 0.0
O668 O 0.62876 0.60154 0.78319 0.0
O669 O 0.60599 0.60363 0.76659 0.0
O670 O 0.65044 0.6037 0.80727 0.0
O671 O 0.62287 0.6126 0.81575 0.0
H672 H 0.69979 0.6424 0.74816 0.0
H673 H 0.7203 0.64305 0.72152 0.0
H674 H 0.71333 0.58805 0.71323 0.0
H675 H 0.69312 0.58735 0.74034 0.0
H676 H 0.54877 0.63762 0.79663 0.0
H677 H 0.52547 0.63406 0.8201 0.0
H678 H 0.56327 0.62642 0.86527 0.0
H679 H 0.5866 0.63024 0.84166 0.0
Pr680 Pr 0.63135 0.40175 0.02757 0.0
Pr681 Pr 0.62564 0.36258 0.03497 0.0
C682 C 0.63703 0.43436 0.01445 0.0
C683 C 0.6385 0.44554 0.99708 0.0
C684 C 0.64951 0.45997 0.99763 0.0
C685 C 0.65009 0.47172 0.9822 0.0
C686 C 0.63963 0.46936 0.96576 0.0
C687 C 0.62884 0.45462 0.96507 0.0
C688 C 0.62829 0.44284 0.98055 0.0
C689 C 0.6018 0.39358 0.04899 0.0
C690 C 0.61896 0.37612 0.99099 0.0
C691 C 0.61497 0.33198 0.05001 0.0
C692 C 0.61809 0.31829 0.06471 0.0
C693 C 0.61926 0.30095 0.05877 0.0
C694 C 0.62071 0.28754 0.07231 0.0
C695 C 0.62095 0.29108 0.09225 0.0
C696 C 0.62012 0.30853 0.09819 0.0
C697 C 0.61868 0.32197 0.08459 0.0
C698 C 0.65742 0.37021 0.01769 0.0
C699 C 0.64839 0.38631 0.06765 0.0
O700 O 0.64955 0.42345 0.01815 0.0
O701 O 0.62172 0.42826 0.01875 0.0
O702 O 0.60667 0.38547 0.03402 0.0
O703 O 0.61205 0.40643 0.05287 0.0
O704 O 0.6139 0.36429 1.00362 0.0
O705 O 0.62739 0.39012 0.99661 0.0
O706 O 0.60916 0.34705 0.05577 0.0
O707 O 0.62567 0.33311 0.03542 0.0
O708 O 0.65002 0.37898 0.03055 0.0
O709 O 0.64896 0.35593 0.01442 0.0
O710 O 0.64842 0.39951 0.05543 0.0
O711 O 0.63971 0.37184 0.06382 0.0
H712 H 0.65741 0.46242 1.01027 0.0
H713 H 0.65838 0.48297 0.98348 0.0
H714 H 0.62078 0.4522 0.95258 0.0
H715 H 0.6197 0.43178 0.97971 0.0
H716 H 0.61877 0.29772 0.04355 0.0
H717 H 0.62164 0.27436 0.0671 0.0
H718 H 0.62012 0.31181 0.11338 0.0
H719 H 0.61773 0.3352 0.08968 0.0
Pr720 Pr 0.8494 0.38141 0.27759 0.0
Pr721 Pr 0.88792 0.37479 0.28671 0.0
C722 C 0.81811 0.3895 0.26236 0.0
C723 C 0.80621 0.3867 0.24571 0.0
C724 C 0.79059 0.37773 0.24856 0.0
C725 C 0.77831 0.37648 0.23374 0.0
C726 C 0.78119 0.38431 0.21565 0.0
C727 C 0.79706 0.39288 0.21262 0.0
C728 C 0.8094 0.39409 0.22746 0.0
C729 C 0.85603 0.35131 0.29882 0.0
C730 C 0.87545 0.36612 0.24241 0.0
C731 C 0.91755 0.36372 0.30358 0.0
C732 C 0.92945 0.36616 0.32021 0.0
C733 C 0.93673 0.38238 0.32458 0.0
C734 C 0.94929 0.38396 0.33911 0.0
C735 C 0.95491 0.36936 0.34963 0.0
C736 C 0.94714 0.35326 0.34561 0.0
C737 C 0.9346 0.3517 0.33108 0.0
C738 C 0.88169 0.40642 0.26848 0.0
C739 C 0.8638 0.39844 0.31805 0.0
O740 O 0.83206 0.39881 0.25967 0.0
O741 O 0.82048 0.37671 0.27449 0.0
O742 O 0.86479 0.35627 0.28435 0.0
O743 O 0.84317 0.3617 0.30221 0.0
O744 O 0.88791 0.36335 0.25517 0.0
O745 O 0.86057 0.37323 0.24742 0.0
O746 O 0.90246 0.35659 0.30687 0.0
O747 O 0.91702 0.37578 0.29031 0.0
O748 O 0.87246 0.39966 0.28144 0.0
O749 O 0.89548 0.39716 0.2653 0.0
O750 O 0.85158 0.39939 0.30471 0.0
O751 O 0.87778 0.38869 0.3154 0.0
H752 H 0.78768 0.37197 0.26245 0.0
H753 H 0.76644 0.36947 0.23658 0.0
H754 H 0.79973 0.39921 0.19899 0.0
H755 H 0.82124 0.4012 0.22474 0.0
H756 H 0.93297 0.39382 0.31654 0.0
H757 H 0.9547 0.39663 0.34199 0.0
H758 H 0.95118 0.34169 0.35321 0.0
H759 H 0.92925 0.33903 0.32798 0.0
Pr760 Pr 0.86847 0.59971 0.52706 0.0
Pr761 Pr 0.87603 0.63865 0.53529 0.0
C762 C 0.85977 0.56803 0.51323 0.0
C763 C 0.86106 0.55611 0.49639 0.0
C764 C 0.87701 0.54923 0.49028 0.0
C765 C 0.87769 0.53677 0.47555 0.0
C766 C 0.86245 0.53085 0.46653 0.0
C767 C 0.84655 0.53804 0.47242 0.0
C768 C 0.84588 0.55045 0.48718 0.0
C769 C 0.89868 0.60615 0.548 0.0
C770 C 0.88369 0.62496 0.49111 0.0
C771 C 0.88821 0.66834 0.5511 0.0
C772 C 0.88559 0.6814 0.56648 0.0
C773 C 0.86906 0.68551 0.57358 0.0
C774 C 0.86699 0.69859 0.58749 0.0
C775 C 0.88141 0.70777 0.59463 0.0
C776 C 0.89794 0.70342 0.58758 0.0
C777 C 0.89998 0.69039 0.5737 0.0
C778 C 0.84438 0.63265 0.51721 0.0
C779 C 0.8517 0.61581 0.5672 0.0
O780 O 0.84974 0.58162 0.51169 0.0
O781 O 0.87371 0.57102 0.52342 0.0
O782 O 0.8938 0.61488 0.53346 0.0
O783 O 0.88817 0.59342 0.55157 0.0
O784 O 0.8874 0.63734 0.5037 0.0
O785 O 0.87593 0.61049 0.49646 0.0
O786 O 0.8936 0.65296 0.55626 0.0
O787 O 0.87706 0.66794 0.5369 0.0
O788 O 0.85105 0.62339 0.53017 0.0
O789 O 0.85334 0.64675 0.5147 0.0
O790 O 0.85092 0.60299 0.5545 0.0
O791 O 0.86141 0.62972 0.56396 0.0
H792 H 0.88898 0.55326 0.49706 0.0
H793 H 0.89019 0.53174 0.47125 0.0
H794 H 0.83452 0.53369 0.46604 0.0
H795 H 0.83338 0.55534 0.49171 0.0
H796 H 0.85776 0.67871 0.56829 0.0
H797 H 0.8541 0.70146 0.59272 0.0
H798 H 0.90931 0.71029 0.59255 0.0
H799 H 0.91285 0.68746 0.56842 0.0
Pr800 Pr 0.64995 0.38376 0.74644 0.0
Pr801 Pr 0.61133 0.37722 0.73931 0.0
C802 C 0.68213 0.38971 0.76057 0.0
C803 C 0.69274 0.38929 0.77853 0.0
C804 C 0.6953 0.37385 0.78898 0.0
C805 C 0.70681 0.37332 0.80465 0.0
C806 C 0.716 0.38822 0.81038 0.0
C807 C 0.713 0.40376 0.80024 0.0
C808 C 0.70158 0.40425 0.7845 0.0
C809 C 0.64231 0.35385 0.72537 0.0
C810 C 0.62479 0.37056 0.78302 0.0
C811 C 0.58092 0.36646 0.72408 0.0
C812 C 0.56776 0.37 0.70899 0.0
C813 C 0.55019 0.37003 0.71411 0.0
C814 C 0.53733 0.37218 0.70008 0.0
C815 C 0.54171 0.37422 0.68049 0.0
C816 C 0.55936 0.37439 0.67537 0.0
C817 C 0.57226 0.37241 0.68949 0.0
C818 C 0.61795 0.40908 0.75675 0.0
C819 C 0.63476 0.40011 0.70625 0.0
O820 O 0.67049 0.40193 0.75869 0.0
O821 O 0.67717 0.37492 0.75324 0.0
O822 O 0.63432 0.35862 0.74043 0.0
O823 O 0.6548 0.36442 0.72113 0.0
O824 O 0.61326 0.36492 0.7704 0.0
O825 O 0.63842 0.3795 0.77737 0.0
O826 O 0.596 0.36049 0.71862 0.0
O827 O 0.5819 0.3772 0.73863 0.0
O828 O 0.62688 0.40231 0.74351 0.0
O829 O 0.60443 0.39967 0.76069 0.0
O830 O 0.64798 0.40045 0.7184 0.0
O831 O 0.62035 0.39143 0.71037 0.0
H832 H 0.68869 0.36206 0.78484 0.0
H833 H 0.70858 0.36118 0.81221 0.0
H834 H 0.71995 0.41545 0.80403 0.0
H835 H 0.7 0.41629 0.77665 0.0
H836 H 0.54637 0.3681 0.72901 0.0
H837 H 0.5239 0.37179 0.70454 0.0
H838 H 0.5632 0.37614 0.66046 0.0
H839 H 0.58572 0.37259 0.68515 0.0
Pr840 Pr 0.86802 0.40128 0.99717 0.0
Pr841 Pr 0.87294 0.36231 0.99033 0.0
C842 C 0.86239 0.43406 1.00965 0.0
C843 C 0.86182 0.44565 0.02673 0.0
C844 C 0.84897 0.45846 0.02774 0.0
C845 C 0.84885 0.47055 0.04281 0.0
C846 C 0.86164 0.47018 0.0573 0.0
C847 C 0.87434 0.45707 0.05646 0.0
C848 C 0.87441 0.44493 0.04136 0.0
C849 C 0.89692 0.39265 0.97487 0.0
C850 C 0.88125 0.37602 0.034 0.0
C851 C 0.88238 0.33134 0.97522 0.0
C852 C 0.87924 0.31859 0.95948 0.0
C853 C 0.87291 0.30204 0.96411 0.0
C854 C 0.87124 0.28924 0.9499 0.0
C855 C 0.87594 0.29258 0.93061 0.0
C856 C 0.88209 0.30925 0.92592 0.0
C857 C 0.88372 0.32209 0.94017 0.0
C858 C 0.84191 0.37068 1.00887 0.0
C859 C 0.8496 0.38583 0.95794 0.0
O860 O 0.84998 0.42269 1.00754 0.0
O861 O 0.87749 0.42831 1.00404 0.0
O862 O 0.89244 0.38479 0.99017 0.0
O863 O 0.88656 0.40543 0.97102 0.0
O864 O 0.88488 0.36352 0.02157 0.0
O865 O 0.87368 0.39051 0.02835 0.0
O866 O 0.89004 0.34598 0.97094 0.0
O867 O 0.8706 0.33299 0.98866 0.0
O868 O 0.8488 0.37887 0.99518 0.0
O869 O 0.85074 0.35676 1.01275 0.0
O870 O 0.85008 0.39907 0.97005 0.0
O871 O 0.85826 0.37132 0.96165 0.0
H872 H 0.83919 0.45936 0.01657 0.0
H873 H 0.839 0.48052 0.04277 0.0
H874 H 0.88424 0.4562 0.06748 0.0
H875 H 0.88445 0.43514 0.041 0.0
H876 H 0.8696 0.29884 0.97889 0.0
H877 H 0.86673 0.27653 0.95419 0.0
H878 H 0.88566 0.31239 0.91121 0.0
H879 H 0.88873 0.33466 0.93607 0.0
Pr880 Pr 0.85169 0.6173 0.24755 0.0
Pr881 Pr 0.89043 0.62377 0.23842 0.0
C882 C 0.82073 0.60841 0.26299 0.0
C883 C 0.80962 0.61004 0.28042 0.0
C884 C 0.80609 0.62617 0.28901 0.0
C885 C 0.79439 0.62741 0.30447 0.0
C886 C 0.78599 0.61257 0.31176 0.0
C887 C 0.78996 0.59642 0.30343 0.0
C888 C 0.8016 0.5952 0.28796 0.0
C889 C 0.85818 0.64776 0.22712 0.0
C890 C 0.8779 0.63228 0.28276 0.0
C891 C 0.92033 0.63489 0.22211 0.0
C892 C 0.93273 0.63264 0.20596 0.0
C893 C 0.9372 0.61622 0.19878 0.0
C894 C 0.94984 0.61454 0.18431 0.0
C895 C 0.95823 0.62924 0.17666 0.0
C896 C 0.9535 0.64565 0.18375 0.0
C897 C 0.9409 0.64731 0.19818 0.0
C898 C 0.88369 0.59155 0.25522 0.0
C899 C 0.86572 0.60189 0.20603 0.0
O900 O 0.8345 0.59861 0.26422 0.0
O901 O 0.82309 0.62216 0.25226 0.0
O902 O 0.86732 0.64238 0.24114 0.0
O903 O 0.8449 0.6378 0.22412 0.0
O904 O 0.89038 0.63502 0.27002 0.0
O905 O 0.86302 0.62516 0.27777 0.0
O906 O 0.90523 0.64171 0.21822 0.0
O907 O 0.91962 0.62282 0.23535 0.0
O908 O 0.87456 0.59901 0.24267 0.0
O909 O 0.89762 0.60048 0.25882 0.0
O910 O 0.85311 0.60115 0.21896 0.0
O911 O 0.88023 0.61059 0.2095 0.0
H912 H 0.81215 0.63785 0.2836 0.0
H913 H 0.79189 0.64003 0.31068 0.0
H914 H 0.78365 0.58473 0.30842 0.0
H915 H 0.80402 0.58263 0.28157 0.0
H916 H 0.93106 0.60468 0.20448 0.0
H917 H 0.95302 0.60172 0.17908 0.0
H918 H 0.95977 0.65724 0.1784 0.0
H919 H 0.93771 0.66011 0.20351 0.0
Pr920 Pr 0.63368 0.60268 0.49816 0.0
Pr921 Pr 0.62967 0.64219 0.49081 0.0
C922 C 0.63849 0.5699 0.51121 0.0
C923 C 0.63706 0.55794 0.52802 0.0
C924 C 0.62561 0.54382 0.52706 0.0
C925 C 0.625 0.53146 0.54187 0.0
C926 C 0.63593 0.53278 0.55807 0.0
C927 C 0.64723 0.54709 0.55917 0.0
C928 C 0.6478 0.55951 0.54434 0.0
C929 C 0.605 0.61208 0.47602 0.0
C930 C 0.62073 0.62871 0.53453 0.0
C931 C 0.62117 0.67333 0.47534 0.0
C932 C 0.62441 0.68586 0.45934 0.0
C933 C 0.64053 0.69407 0.4569 0.0
C934 C 0.64272 0.70707 0.44289 0.0
C935 C 0.62883 0.71226 0.431 0.0
C936 C 0.61285 0.7037 0.43322 0.0
C937 C 0.61068 0.69073 0.44721 0.0
C938 C 0.66026 0.63286 0.50949 0.0
C939 C 0.65229 0.61763 0.45876 0.0
O940 O 0.65066 0.58171 0.51121 0.0
O941 O 0.62417 0.57518 0.50304 0.0
O942 O 0.60984 0.61999 0.49114 0.0
O943 O 0.6148 0.59883 0.47237 0.0
O944 O 0.61749 0.6413 0.52203 0.0
O945 O 0.62782 0.61396 0.52895 0.0
O946 O 0.61285 0.65899 0.47136 0.0
O947 O 0.6331 0.67128 0.48855 0.0
O948 O 0.65312 0.62477 0.49591 0.0
O949 O 0.65211 0.64727 0.51307 0.0
O950 O 0.65184 0.6046 0.47119 0.0
O951 O 0.64373 0.63227 0.46214 0.0
H952 H 0.61735 0.5421 0.51457 0.0
H953 H 0.61631 0.52055 0.54031 0.0
H954 H 0.65568 0.54869 0.57151 0.0
H955 H 0.65682 0.57018 0.54556 0.0
H956 H 0.65139 0.69073 0.46606 0.0
H957 H 0.65518 0.71341 0.4418 0.0
H958 H 0.60192 0.70705 0.42417 0.0
H959 H 0.59809 0.68472 0.44878 0.0
Pr960 Pr 0.38796 0.37775 0.2397 0.0
Pr961 Pr 0.3488 0.3823 0.24746 0.0
C962 C 0.41877 0.3684 0.22417 0.0
C963 C 0.43135 0.37134 0.20822 0.0
C964 C 0.44795 0.37769 0.21253 0.0
C965 C 0.46063 0.37904 0.19815 0.0
C966 C 0.45713 0.37397 0.17902 0.0
C967 C 0.44037 0.36793 0.17463 0.0
C968 C 0.42765 0.3666 0.18904 0.0
C969 C 0.37949 0.4088 0.25799 0.0
C970 C 0.36361 0.40049 0.2077 0.0
C971 C 0.31631 0.38799 0.26075 0.0
C972 C 0.30459 0.38675 0.27775 0.0
C973 C 0.28996 0.37599 0.27674 0.0
C974 C 0.27786 0.37559 0.29179 0.0
C975 C 0.27999 0.38603 0.30826 0.0
C976 C 0.29481 0.39662 0.30942 0.0
C977 C 0.30698 0.39698 0.29435 0.0
C978 C 0.35748 0.35351 0.2251 0.0
C979 C 0.37483 0.36892 0.28359 0.0
O980 O 0.40415 0.36058 0.22025 0.0
O981 O 0.4172 0.38039 0.2374 0.0
O982 O 0.37099 0.40159 0.24476 0.0
O983 O 0.39378 0.40042 0.26145 0.0
O984 O 0.35067 0.40023 0.22024 0.0
O985 O 0.37818 0.39184 0.21106 0.0
O986 O 0.32844 0.39982 0.26072 0.0
O987 O 0.32108 0.37357 0.25241 0.0
O988 O 0.36555 0.35814 0.2402 0.0
O989 O 0.34435 0.36354 0.22167 0.0
O990 O 0.38738 0.36592 0.27101 0.0
O991 O 0.35998 0.3759 0.27822 0.0
H992 H 0.45124 0.38134 0.22718 0.0
H993 H 0.47324 0.38403 0.20209 0.0
H994 H 0.43719 0.36374 0.16014 0.0
H995 H 0.41505 0.36151 0.18521 0.0
H996 H 0.28765 0.36813 0.26405 0.0
H997 H 0.26653 0.36745 0.29022 0.0
H998 H 0.297 0.40468 0.32197 0.0
H999 H 0.31809 0.40544 0.29561 0.0
Pr1000 Pr 0.37364 0.63949 0.99021 0.0
Pr1001 Pr 0.3686 0.60038 0.99735 0.0
C1002 C 0.38363 0.66984 0.97414 0.0
C1003 C 0.38122 0.68167 0.95743 0.0
C1004 C 0.36501 0.68888 0.95291 0.0
C1005 C 0.36345 0.70128 0.93819 0.0
C1006 C 0.37806 0.70676 0.92762 0.0
C1007 C 0.39416 0.6991 0.93184 0.0
C1008 C 0.39571 0.68676 0.94657 0.0
C1009 C 0.34441 0.63177 1.01193 0.0
C1010 C 0.34811 0.6163 0.95964 0.0
C1011 C 0.36344 0.56782 1.01071 0.0
C1012 C 0.36296 0.55697 0.02842 0.0
C1013 C 0.37728 0.55565 0.04088 0.0
C1014 C 0.37706 0.54402 0.05646 0.0
C1015 C 0.36251 0.53349 0.06 0.0
C1016 C 0.34803 0.53523 0.04782 0.0
C1017 C 0.34829 0.54678 0.03221 0.0
C1018 C 0.39658 0.6091 0.97363 0.0
C1019 C 0.38356 0.62567 0.03338 0.0
O1020 O 0.39171 0.65518 0.97111 0.0
O1021 O 0.37114 0.66855 0.98682 0.0
O1022 O 0.3498 0.6232 0.99764 0.0
O1023 O 0.35351 0.6458 0.0145 0.0
O1024 O 0.34955 0.60274 0.97122 0.0
O1025 O 0.35676 0.63087 0.96302 0.0
O1026 O 0.35083 0.57886 1.00795 0.0
O1027 O 0.37846 0.57362 1.00485 0.0
O1028 O 0.39268 0.61669 0.98923 0.0
O1029 O 0.38601 0.59643 0.97004 0.0
O1030 O 0.38664 0.63826 0.02085 0.0
O1031 O 0.37581 0.61117 0.0281 0.0
H1032 H 0.35356 0.68519 0.96095 0.0
H1033 H 0.3508 0.70666 0.93517 0.0
H1034 H 0.40573 0.70307 0.9242 0.0
H1035 H 0.40838 0.68147 0.94979 0.0
H1036 H 0.38877 0.56337 0.03843 0.0
H1037 H 0.38834 0.54322 0.06569 0.0
H1038 H 0.33667 0.52724 0.04994 0.0
H1039 H 0.33712 0.54744 0.02277 0.0
Pr1040 Pr 0.11288 0.62481 0.73807 0.0
Pr1041 Pr 0.15177 0.61889 0.74501 0.0
C1042 C 0.08221 0.63496 0.72281 0.0
C1043 C 0.06936 0.6318 0.70715 0.0
C1044 C 0.05456 0.62168 0.71071 0.0
C1045 C 0.04154 0.62002 0.69673 0.0
C1046 C 0.04288 0.62853 0.67881 0.0
C1047 C 0.05784 0.63841 0.67511 0.0
C1048 C 0.07087 0.64007 0.68911 0.0
C1049 C 0.12043 0.59345 0.75611 0.0
C1050 C 0.13619 0.60132 0.7055 0.0
C1051 C 0.18426 0.61267 0.75809 0.0
C1052 C 0.19575 0.61317 0.77535 0.0
C1053 C 0.20915 0.62546 0.77626 0.0
C1054 C 0.22099 0.62543 0.79158 0.0
C1055 C 0.21987 0.61301 0.80642 0.0
C1056 C 0.2063 0.60083 0.80565 0.0
C1057 C 0.19442 0.60087 0.7903 0.0
C1058 C 0.14367 0.64827 0.72324 0.0
C1059 C 0.1267 0.63261 0.78171 0.0
O1060 O 0.09706 0.64206 0.71826 0.0
O1061 O 0.08356 0.62349 0.73665 0.0
O1062 O 0.12891 0.60028 0.74261 0.0
O1063 O 0.10672 0.60252 0.76024 0.0
O1064 O 0.14933 0.60127 0.71774 0.0
O1065 O 0.12186 0.61029 0.70922 0.0
O1066 O 0.17222 0.60076 0.75713 0.0
O1067 O 0.17942 0.62745 0.75061 0.0
O1068 O 0.1358 0.64373 0.73849 0.0
O1069 O 0.15625 0.63774 0.71918 0.0
O1070 O 0.1145 0.63696 0.7692 0.0
O1071 O 0.14085 0.62447 0.77604 0.0
H1072 H 0.05284 0.61526 0.72449 0.0
H1073 H 0.03037 0.61208 0.70004 0.0
H1074 H 0.05928 0.64533 0.6616 0.0
H1075 H 0.08194 0.64819 0.68593 0.0
H1076 H 0.21064 0.63501 0.76492 0.0
H1077 H 0.23104 0.63519 0.79176 0.0
H1078 H 0.20509 0.59094 0.81666 0.0
H1079 H 0.18439 0.59108 0.79 0.0
Pr1080 Pr 0.1264 0.35986 0.48976 0.0
Pr1081 Pr 0.13186 0.39856 0.49738 0.0
C1082 C 0.1164 0.32939 0.47382 0.0
C1083 C 0.1196 0.3169 0.45786 0.0
C1084 C 0.13614 0.31006 0.45407 0.0
C1085 C 0.13844 0.29723 0.43991 0.0
C1086 C 0.12426 0.29088 0.42921 0.0
C1087 C 0.10782 0.2981 0.43277 0.0
C1088 C 0.10555 0.31089 0.4469 0.0
C1089 C 0.15843 0.36725 0.50642 0.0
C1090 C 0.14808 0.38447 0.45672 0.0
C1091 C 0.13698 0.43092 0.51146 0.0
C1092 C 0.13663 0.44177 0.52926 0.0
C1093 C 0.12106 0.44526 0.5391 0.0
C1094 C 0.12064 0.4571 0.55445 0.0
C1095 C 0.13577 0.46574 0.56045 0.0
C1096 C 0.15141 0.46182 0.55096 0.0
C1097 C 0.15181 0.45005 0.53554 0.0
C1098 C 0.10198 0.39038 0.47653 0.0
C1099 C 0.12035 0.37255 0.53401 0.0
O1100 O 0.10922 0.34425 0.46951 0.0
O1101 O 0.12791 0.3306 0.48761 0.0
O1102 O 0.15103 0.37617 0.4936 0.0
O1103 O 0.14954 0.35339 0.51045 0.0
O1104 O 0.14832 0.39746 0.46915 0.0
O1105 O 0.13976 0.3698 0.46069 0.0
O1106 O 0.14952 0.41968 0.50933 0.0
O1107 O 0.12222 0.42544 0.50456 0.0
O1108 O 0.10704 0.38234 0.49147 0.0
O1109 O 0.11228 0.40311 0.47232 0.0
O1110 O 0.11496 0.36086 0.52139 0.0
O1111 O 0.12857 0.38661 0.52827 0.0
H1112 H 0.14726 0.31439 0.46228 0.0
H1113 H 0.15127 0.29194 0.43775 0.0
H1114 H 0.09663 0.29385 0.42465 0.0
H1115 H 0.09266 0.31592 0.4495 0.0
H1116 H 0.10909 0.43913 0.53469 0.0
H1117 H 0.10841 0.45957 0.56156 0.0
H1118 H 0.16329 0.46832 0.55498 0.0
H1119 H 0.16396 0.4478 0.52815 0.0
Pr1120 Pr 0.39225 0.62294 0.28496 0.0
Pr1121 Pr 0.35043 0.61864 0.27647 0.0
C1122 C 0.42372 0.63074 0.29964 0.0
C1123 C 0.43465 0.63074 0.31731 0.0
C1124 C 0.43902 0.61523 0.3268 0.0
C1125 C 0.45121 0.61518 0.34178 0.0
C1126 C 0.45932 0.63062 0.34769 0.0
C1127 C 0.45438 0.64622 0.33873 0.0
C1128 C 0.44225 0.64626 0.32366 0.0
C1129 C 0.38174 0.5928 0.26626 0.0
C1130 C 0.36661 0.60195 0.31736 0.0
C1131 C 0.32041 0.60699 0.26135 0.0
C1132 C 0.30696 0.61097 0.24664 0.0
C1133 C 0.2894 0.60938 0.25148 0.0
C1134 C 0.27651 0.61123 0.23737 0.0
C1135 C 0.28086 0.61461 0.21795 0.0
C1136 C 0.29849 0.61669 0.21326 0.0
C1137 C 0.31137 0.61491 0.22741 0.0
C1138 C 0.35775 0.65117 0.29341 0.0
C1139 C 0.37756 0.63328 0.24141 0.0
O1140 O 0.41126 0.64218 0.29816 0.0
O1141 O 0.41985 0.61576 0.29193 0.0
O1142 O 0.37374 0.60054 0.27954 0.0
O1143 O 0.39651 0.60033 0.26272 0.0
O1144 O 0.35323 0.60269 0.30531 0.0
O1145 O 0.38165 0.60971 0.31361 0.0
O1146 O 0.33574 0.60251 0.25494 0.0
O1147 O 0.32098 0.6164 0.27712 0.0
O1148 O 0.36824 0.63946 0.28859 0.0
O1149 O 0.34222 0.6463 0.28859 0.0
O1150 O 0.39071 0.63483 0.25364 0.0
O1151 O 0.36223 0.62721 0.24667 0.0
H1152 H 0.43339 0.60303 0.32234 0.0
H1153 H 0.45449 0.60297 0.34855 0.0
H1154 H 0.46044 0.65834 0.34278 0.0
H1155 H 0.43924 0.65839 0.31653 0.0
H1156 H 0.28563 0.60633 0.26616 0.0
H1157 H 0.26311 0.60988 0.24169 0.0
H1158 H 0.30243 0.61912 0.19851 0.0
H1159 H 0.3248 0.61619 0.22317 0.0
Pr1160 Pr 0.12815 0.63965 0.03407 0.0
Pr1161 Pr 0.1343 0.60109 0.02705 0.0
C1162 C 0.11759 0.67024 0.0492 0.0
C1163 C 0.12093 0.68348 0.06441 0.0
C1164 C 0.12941 0.69903 0.0597 0.0
C1165 C 0.13115 0.71231 0.07336 0.0
C1166 C 0.12433 0.7105 0.09211 0.0
C1167 C 0.11609 0.6948 0.09692 0.0
C1168 C 0.11436 0.6815 0.08325 0.0
C1169 C 0.16085 0.63253 0.01847 0.0
C1170 C 0.15033 0.61607 0.06753 0.0
C1171 C 0.14042 0.56855 0.01401 0.0
C1172 C 0.13957 0.557 0.9968 0.0
C1173 C 0.12733 0.54354 0.9963 0.0
C1174 C 0.12703 0.53166 0.98103 0.0
C1175 C 0.13906 0.53281 0.96582 0.0
C1176 C 0.15122 0.54641 0.9662 0.0
C1177 C 0.15148 0.55835 0.98149 0.0
C1178 C 0.10428 0.60881 0.04782 0.0
C1179 C 0.12192 0.62624 0.99004 0.0
O1180 O 0.11123 0.65523 0.05441 0.0
O1181 O 0.12851 0.66905 0.03481 0.0
O1182 O 0.15307 0.62375 0.03106 0.0
O1183 O 0.15181 0.64614 0.01389 0.0
O1184 O 0.15113 0.6032 0.05496 0.0
O1185 O 0.14131 0.63033 0.06363 0.0
O1186 O 0.1523 0.58064 0.01464 0.0
O1187 O 0.12579 0.57338 0.0218 0.0
O1188 O 0.1091 0.61688 0.03275 0.0
O1189 O 0.11486 0.59636 0.05213 0.0
O1190 O 0.11664 0.63805 1.00255 0.0
O1191 O 0.13032 0.61233 0.99588 0.0
H1192 H 0.13447 0.7011 0.0453 0.0
H1193 H 0.13782 0.72406 0.06915 0.0
H1194 H 0.11049 0.69296 0.1111 0.0
H1195 H 0.10753 0.66982 0.08736 0.0
H1196 H 0.11814 0.54197 1.00799 0.0
H1197 H 0.11764 0.52126 0.98146 0.0
H1198 H 0.16057 0.54783 0.95466 0.0
H1199 H 0.16116 0.5685 0.98141 0.0
Pr1200 Pr 0.11294 0.37685 0.78655 0.0
Pr1201 Pr 0.15211 0.38159 0.77956 0.0
C1202 C 0.08203 0.36722 0.80159 0.0
C1203 C 0.06897 0.37048 0.81694 0.0
C1204 C 0.05158 0.37287 0.81173 0.0
C1205 C 0.03868 0.37443 0.82584 0.0
C1206 C 0.04278 0.37346 0.84565 0.0
C1207 C 0.06033 0.37148 0.85083 0.0
C1208 C 0.07326 0.37004 0.83666 0.0
C1209 C 0.12163 0.40879 0.77022 0.0
C1210 C 0.13709 0.39855 0.81984 0.0
C1211 C 0.1847 0.38716 0.7664 0.0
C1212 C 0.19627 0.38635 0.74915 0.0
C1213 C 0.20392 0.37064 0.74335 0.0
C1214 C 0.21618 0.37024 0.72842 0.0
C1215 C 0.2212 0.38554 0.71886 0.0
C1216 C 0.21328 0.4012 0.72441 0.0
C1217 C 0.20105 0.4016 0.73939 0.0
C1218 C 0.1432 0.35214 0.80073 0.0
C1219 C 0.12638 0.36943 0.74263 0.0
O1220 O 0.09679 0.36015 0.80652 0.0
O1221 O 0.08355 0.3786 0.7877 0.0
O1222 O 0.12997 0.40087 0.78306 0.0
O1223 O 0.1075 0.40048 0.76587 0.0
O1224 O 0.15034 0.39834 0.8077 0.0
O1225 O 0.12238 0.3904 0.8157 0.0
O1226 O 0.17289 0.39931 0.76715 0.0
O1227 O 0.17957 0.37258 0.77413 0.0
O1228 O 0.13528 0.3572 0.78568 0.0
O1229 O 0.15631 0.36204 0.80464 0.0
O1230 O 0.11405 0.36534 0.75508 0.0
O1231 O 0.14086 0.37689 0.74844 0.0
H1232 H 0.0479 0.37326 0.79664 0.0
H1233 H 0.02546 0.37636 0.82115 0.0
H1234 H 0.06407 0.3705 0.86585 0.0
H1235 H 0.08656 0.36821 0.84116 0.0
H1236 H 0.20071 0.35863 0.75059 0.0
H1237 H 0.22179 0.35791 0.72441 0.0
H1238 H 0.21693 0.41329 0.7176 0.0
H1239 H 0.19564 0.41396 0.74365 0.0
Pr1240 Pr 0.37498 0.36267 0.53573 0.0
Pr1241 Pr 0.36805 0.40137 0.52759 0.0
C1242 C 0.38585 0.33243 0.5515 0.0
C1243 C 0.3828 0.31964 0.56729 0.0
C1244 C 0.37353 0.30433 0.56359 0.0
C1245 C 0.37179 0.29153 0.57782 0.0
C1246 C 0.37932 0.29361 0.59619 0.0
C1247 C 0.3885 0.30903 0.59993 0.0
C1248 C 0.39028 0.32182 0.58565 0.0
C1249 C 0.3433 0.36898 0.51779 0.0
C1250 C 0.35132 0.38603 0.5678 0.0
C1251 C 0.36001 0.4332 0.5137 0.0
C1252 C 0.36179 0.44511 0.49688 0.0
C1253 C 0.37159 0.46035 0.49874 0.0
C1254 C 0.37233 0.47249 0.48372 0.0
C1255 C 0.36316 0.46981 0.46641 0.0
C1256 C 0.35351 0.45443 0.46445 0.0
C1257 C 0.35283 0.44223 0.47948 0.0
C1258 C 0.39791 0.39445 0.54902 0.0
C1259 C 0.38342 0.37622 0.49178 0.0
O1260 O 0.3925 0.34752 0.55593 0.0
O1261 O 0.37449 0.33334 0.53754 0.0
O1262 O 0.35002 0.37808 0.53087 0.0
O1263 O 0.35265 0.35533 0.51428 0.0
O1264 O 0.35031 0.39856 0.55481 0.0
O1265 O 0.36106 0.3721 0.56472 0.0
O1266 O 0.34983 0.41972 0.51208 0.0
O1267 O 0.37378 0.43008 0.52412 0.0
O1268 O 0.39327 0.38605 0.53418 0.0
O1269 O 0.38731 0.40708 0.55271 0.0
O1270 O 0.38677 0.36375 0.50437 0.0
O1271 O 0.37574 0.39074 0.49703 0.0
H1272 H 0.36789 0.30204 0.5495 0.0
H1273 H 0.3649 0.27976 0.57418 0.0
H1274 H 0.39434 0.31125 0.61392 0.0
H1275 H 0.39775 0.33331 0.58891 0.0
H1276 H 0.37844 0.46308 0.51205 0.0
H1277 H 0.3797 0.48425 0.48591 0.0
H1278 H 0.34645 0.4518 0.45126 0.0
H1279 H 0.34508 0.43068 0.47753 0.0
H1280 H 0.21989 0.09517 0.17875 0.0
H1281 H 0.24303 0.09694 0.15483 0.0
H1282 H 0.271 0.13235 0.1914 0.0
H1283 H 0.24791 0.13053 0.2156 0.0
H1284 H 0.27231 0.14231 0.15313 0.0
H1285 H 0.28266 0.09004 0.18937 0.0
H1286 H 0.27467 0.06183 0.20352 0.0
H1287 H 0.26356 0.04186 0.14703 0.0
H1288 H 0.27126 0.07003 0.13255 0.0
H1289 H 0.35123 0.13513 0.09993 0.0
H1290 H 0.32992 0.13474 0.12616 0.0
H1291 H 0.30081 0.09546 0.09609 0.0
H1292 H 0.32214 0.09547 0.07023 0.0
H1293 H 0.30113 0.08793 0.13263 0.0
H1294 H 0.28895 0.13919 0.09604 0.0
H1295 H 0.29605 0.16706 0.08055 0.0
H1296 H 0.30918 0.1887 0.13574 0.0
H1297 H 0.30241 0.16085 0.15153 0.0
C1298 C 0.23099 0.10327 0.18184 0.0
C1299 C 0.23205 0.11254 0.19932 0.0
C1300 C 0.24423 0.10431 0.16806 0.0
C1301 C 0.25895 0.11457 0.17138 0.0
C1302 C 0.25981 0.12432 0.18848 0.0
C1303 C 0.24655 0.12329 0.20231 0.0
C1304 C 0.27357 0.11469 0.15721 0.0
C1305 C 0.27879 0.13045 0.14887 0.0
C1306 C 0.28183 0.0992 0.15124 0.0
C1307 C 0.27741 0.08219 0.1599 0.0
C1308 C 0.27842 0.07966 0.17998 0.0
C1309 C 0.27395 0.06368 0.18805 0.0
C1310 C 0.26858 0.05008 0.17619 0.0
C1311 C 0.26771 0.05241 0.15621 0.0
C1312 C 0.27215 0.06838 0.14805 0.0
C1313 C 0.34038 0.1263 0.09899 0.0
C1314 C 0.33849 0.11532 0.08292 0.0
C1315 C 0.3281 0.12616 0.11396 0.0
C1316 C 0.31353 0.11523 0.11307 0.0
C1317 C 0.31188 0.10401 0.09723 0.0
C1318 C 0.32416 0.10404 0.08239 0.0
C1319 C 0.29983 0.11553 0.12837 0.0
C1320 C 0.29475 0.09983 0.13694 0.0
C1321 C 0.29157 0.13104 0.13434 0.0
C1322 C 0.29534 0.14789 0.12495 0.0
C1323 C 0.29345 0.14986 0.10486 0.0
C1324 C 0.29741 0.16566 0.09603 0.0
C1325 C 0.30311 0.17963 0.10715 0.0
C1326 C 0.30479 0.17785 0.12714 0.0
C1327 C 0.30088 0.16207 0.13605 0.0
H1328 H 0.30618 0.19184 0.10028 0.0
H1329 H 0.26512 0.03772 0.18247 0.0
H1330 H 0.15027 0.07022 0.31696 0.0
H1331 H 0.15018 0.0489 0.34305 0.0
H1332 H 0.11862 0.08286 0.37765 0.0
H1333 H 0.11838 0.10426 0.35137 0.0
H1334 H 0.14682 0.06734 0.39823 0.0
H1335 H 0.09999 0.05099 0.35732 0.0
H1336 H 0.08507 0.04293 0.3272 0.0
H1337 H 0.11789 0.99839 0.32145 0.0
H1338 H 0.13336 0.00642 0.35123 0.0
H1339 H 0.12336 0.00545 0.46963 0.0
H1340 H 0.12282 0.02747 0.44435 0.0
H1341 H 0.1477 0.99202 0.4051 0.0
H1342 H 0.14774 0.96965 0.43017 0.0
H1343 H 0.12235 0.0088 0.38706 0.0
H1344 H 0.17003 0.0257 0.42705 0.0
H1345 H 0.18474 0.03336 0.45746 0.0
H1346 H 0.15031 0.07648 0.46503 0.0
H1347 H 0.13523 0.06893 0.43479 0.0
C1348 C 0.14345 0.0733 0.33018 0.0
C1349 C 0.1344 0.08906 0.33207 0.0
C1350 C 0.14332 0.06101 0.34506 0.0
C1351 C 0.13432 0.0642 0.3623 0.0
C1352 C 0.12565 0.08009 0.36448 0.0
C1353 C 0.12551 0.09231 0.34944 0.0
C1354 C 0.13383 0.05081 0.37787 0.0
C1355 C 0.14125 0.05462 0.39588 0.0
C1356 C 0.12693 0.03405 0.37469 0.0
C1357 C 0.11799 0.02944 0.35643 0.0
C1358 C 0.10423 0.03962 0.34948 0.0
C1359 C 0.09564 0.03503 0.33248 0.0
C1360 C 0.10054 0.02017 0.32239 0.0
C1361 C 0.11412 0.00991 0.32924 0.0
C1362 C 0.12283 0.0145 0.34616 0.0
C1363 C 0.12857 0.00221 0.45558 0.0
C1364 C 0.13559 0.98567 0.45204 0.0
C1365 C 0.12843 0.01495 0.44115 0.0
C1366 C 0.13543 0.01158 0.4228 0.0
C1367 C 0.14228 0.99503 0.41913 0.0
C1368 C 0.14243 0.98226 0.43357 0.0
C1369 C 0.13547 0.02524 0.40743 0.0
C1370 C 0.12795 0.0215 0.38943 0.0
C1371 C 0.14233 0.04205 0.41059 0.0
C1372 C 0.15139 0.04664 0.42876 0.0
C1373 C 0.16551 0.03673 0.43528 0.0
C1374 C 0.17393 0.04107 0.45247 0.0
C1375 C 0.16844 0.05537 0.4632 0.0
C1376 C 0.15454 0.06539 0.45672 0.0
C1377 C 0.14606 0.0611 0.43955 0.0
H1378 H 0.17498 0.05871 0.4765 0.0
H1379 H 0.09377 0.01656 0.30932 0.0
H1380 H 0.26456 0.86032 0.70109 0.0
H1381 H 0.24201 0.86072 0.67635 0.0
H1382 H 0.24729 0.91613 0.67126 0.0
H1383 H 0.26953 0.91589 0.69642 0.0
H1384 H 0.2143 0.90811 0.67241 0.0
H1385 H 0.26262 0.88814 0.63687 0.0
H1386 H 0.2877 0.87023 0.62778 0.0
H1387 H 0.25477 0.82573 0.62228 0.0
H1388 H 0.22951 0.84327 0.63179 0.0
H1389 H 0.16847 0.91583 0.58249 0.0
H1390 H 0.1901 0.91584 0.60826 0.0
H1391 H 0.17914 0.86213 0.62001 0.0
H1392 H 0.15741 0.86197 0.59426 0.0
H1393 H 0.21479 0.86945 0.61533 0.0
H1394 H 0.1663 0.89135 0.6514 0.0
H1395 H 0.14191 0.91112 0.65779 0.0
H1396 H 0.17679 0.95441 0.6588 0.0
H1397 H 0.20138 0.93491 0.65214 0.0
C1398 C 0.26092 0.87262 0.69476 0.0
C1399 C 0.26892 0.88808 0.70085 0.0
C1400 C 0.2481 0.87281 0.68044 0.0
C1401 C 0.24295 0.88844 0.67174 0.0
C1402 C 0.25099 0.90388 0.67768 0.0
C1403 C 0.26386 0.9037 0.69198 0.0
C1404 C 0.22882 0.88873 0.65694 0.0
C1405 C 0.21458 0.89981 0.65979 0.0
C1406 C 0.22892 0.87775 0.64052 0.0
C1407 C 0.24418 0.86699 0.63537 0.0
C1408 C 0.26074 0.87448 0.63402 0.0
C1409 C 0.275 0.8644 0.62872 0.0
C1410 C 0.27285 0.84684 0.62451 0.0
C1411 C 0.25643 0.83932 0.62561 0.0
C1412 C 0.24214 0.84933 0.63099 0.0
C1413 C 0.17044 0.90405 0.5907 0.0
C1414 C 0.16112 0.8889 0.58623 0.0
C1415 C 0.18284 0.9041 0.60548 0.0
C1416 C 0.18627 0.88899 0.61613 0.0
C1417 C 0.17672 0.87395 0.61203 0.0
C1418 C 0.16423 0.87392 0.59732 0.0
C1419 C 0.20037 0.88872 0.63087 0.0
C1420 C 0.21458 0.87769 0.62797 0.0
C1421 C 0.20041 0.89996 0.647 0.0
C1422 C 0.18566 0.91169 0.65109 0.0
C1423 C 0.16876 0.9051 0.65282 0.0
C1424 C 0.1549 0.91626 0.65653 0.0
C1425 C 0.15779 0.93401 0.65865 0.0
C1426 C 0.17456 0.94065 0.65713 0.0
C1427 C 0.18847 0.92955 0.65341 0.0
H1428 H 0.14705 0.94263 0.66152 0.0
H1429 H 0.28391 0.83908 0.62034 0.0
H1430 H 0.33475 0.90893 0.84058 0.0
H1431 H 0.33337 0.93115 0.86571 0.0
H1432 H 0.38892 0.93671 0.86322 0.0
H1433 H 0.39037 0.91392 0.83895 0.0
H1434 H 0.38031 0.94113 0.89756 0.0
H1435 H 0.35571 0.9616 0.83803 0.0
H1436 H 0.33534 0.96358 0.81087 0.0
H1437 H 0.29359 0.97358 0.85013 0.0
H1438 H 0.31365 0.97154 0.87767 0.0
H1439 H 0.3856 0.02429 0.94062 0.0
H1440 H 0.38612 0.00109 0.91663 0.0
H1441 H 0.33171 0.99196 0.92595 0.0
H1442 H 0.33095 0.01553 0.94953 0.0
H1443 H 0.33947 0.98993 0.88809 0.0
H1444 H 0.36266 0.96608 0.9469 0.0
H1445 H 0.38254 0.96483 0.97473 0.0
H1446 H 0.426 0.9611 0.93632 0.0
H1447 H 0.40639 0.96256 0.90824 0.0
C1448 C 0.34668 0.91472 0.84566 0.0
C1449 C 0.36266 0.9097 0.83773 0.0
C1450 C 0.34587 0.92759 0.85989 0.0
C1451 C 0.36097 0.93624 0.86594 0.0
C1452 C 0.37701 0.93056 0.85869 0.0
C1453 C 0.37786 0.9174 0.84483 0.0
C1454 C 0.36014 0.95143 0.87937 0.0
C1455 C 0.37149 0.95186 0.89524 0.0
C1456 C 0.34838 0.96542 0.87677 0.0
C1457 C 0.3363 0.96647 0.86004 0.0
C1458 C 0.34224 0.96431 0.84097 0.0
C1459 C 0.33072 0.96539 0.82546 0.0
C1460 C 0.31321 0.96874 0.82876 0.0
C1461 C 0.30717 0.971 0.84759 0.0
C1462 C 0.31862 0.9699 0.86316 0.0
C1463 C 0.37366 0.01757 0.93737 0.0
C1464 C 0.35824 0.0218 0.94717 0.0
C1465 C 0.37402 0.00414 0.92376 0.0
C1466 C 0.35901 0.99453 0.91964 0.0
C1467 C 0.34349 0.99908 0.92891 0.0
C1468 C 0.34311 0.0125 0.94254 0.0
C1469 C 0.35957 0.97946 0.90609 0.0
C1470 C 0.34824 0.97912 0.89024 0.0
C1471 C 0.37128 0.96554 0.90863 0.0
C1472 C 0.38308 0.9646 0.92549 0.0
C1473 C 0.37647 0.96512 0.9444 0.0
C1474 C 0.38768 0.96436 0.96021 0.0
C1475 C 0.40552 0.96293 0.95729 0.0
C1476 C 0.41218 0.96223 0.93855 0.0
C1477 C 0.40102 0.96301 0.92269 0.0
H1478 H 0.41418 0.96234 0.96955 0.0
H1479 H 0.30432 0.96957 0.81672 0.0
H1480 H 0.34071 0.85834 0.43548 0.0
H1481 H 0.31957 0.8595 0.40925 0.0
H1482 H 0.31591 0.91491 0.41575 0.0
H1483 H 0.33659 0.91378 0.44245 0.0
H1484 H 0.28436 0.90063 0.41439 0.0
H1485 H 0.33623 0.89631 0.37653 0.0
H1486 H 0.3641 0.88357 0.36657 0.0
H1487 H 0.3386 0.83578 0.35264 0.0
H1488 H 0.3106 0.84816 0.36276 0.0
H1489 H 0.23352 0.91561 0.32956 0.0
H1490 H 0.25586 0.91569 0.35466 0.0
H1491 H 0.26172 0.86042 0.34854 0.0
H1492 H 0.23944 0.86025 0.32356 0.0
H1493 H 0.29251 0.8752 0.34937 0.0
H1494 H 0.24094 0.87898 0.38746 0.0
H1495 H 0.21305 0.89088 0.39855 0.0
H1496 H 0.23786 0.93887 0.4132 0.0
H1497 H 0.26586 0.92735 0.4019 0.0
C1498 C 0.33559 0.87082 0.43119 0.0
C1499 C 0.34035 0.88597 0.44114 0.0
C1500 C 0.3235 0.87146 0.41612 0.0
C1501 C 0.31611 0.88731 0.41044 0.0
C1502 C 0.32132 0.90251 0.41992 0.0
C1503 C 0.33321 0.90185 0.43516 0.0
C1504 C 0.30232 0.88793 0.39535 0.0
C1505 C 0.28627 0.89535 0.40007 0.0
C1506 C 0.30454 0.88055 0.3768 0.0
C1507 C 0.32134 0.87312 0.37056 0.0
C1508 C 0.33659 0.88304 0.37147 0.0
C1509 C 0.3524 0.87589 0.36577 0.0
C1510 C 0.35313 0.85886 0.35902 0.0
C1511 C 0.33802 0.84896 0.35789 0.0
C1512 C 0.32217 0.85605 0.36358 0.0
C1513 C 0.23938 0.90344 0.33376 0.0
C1514 C 0.2347 0.88794 0.32443 0.0
C1515 C 0.25221 0.9035 0.3481 0.0
C1516 C 0.26052 0.88804 0.35359 0.0
C1517 C 0.25565 0.87254 0.34451 0.0
C1518 C 0.24289 0.87247 0.33018 0.0
C1519 C 0.27456 0.88799 0.36843 0.0
C1520 C 0.29064 0.88061 0.36367 0.0
C1521 C 0.27234 0.89535 0.38699 0.0
C1522 C 0.25546 0.90238 0.39356 0.0
C1523 C 0.24042 0.89214 0.39283 0.0
C1524 C 0.22459 0.89881 0.3992 0.0
C1525 C 0.22367 0.91564 0.4065 0.0
C1526 C 0.23858 0.92584 0.40748 0.0
C1527 C 0.25443 0.91926 0.40109 0.0
H1528 H 0.21141 0.92077 0.41145 0.0
H1529 H 0.36539 0.85335 0.35462 0.0
H1530 H 0.3918 0.99414 0.56477 0.0
H1531 H 0.39177 0.01695 0.58914 0.0
H1532 H 0.34229 0.99915 0.61 0.0
H1533 H 0.34194 0.9766 0.58514 0.0
H1534 H 0.34223 0.03346 0.6076 0.0
H1535 H 0.38014 0.9915 0.63527 0.0
H1536 H 0.4048 0.97128 0.63674 0.0
H1537 H 0.44013 0.0134 0.62749 0.0
H1538 H 0.41565 0.03386 0.62569 0.0
H1539 H 0.342 0.07786 0.69724 0.0
H1540 H 0.34205 0.05693 0.67095 0.0
H1541 H 0.39123 0.0766 0.65132 0.0
H1542 H 0.39146 0.09747 0.67797 0.0
H1543 H 0.39189 0.04234 0.65184 0.0
H1544 H 0.35288 0.0843 0.62606 0.0
H1545 H 0.32774 0.10397 0.62587 0.0
H1546 H 0.29351 0.0607 0.63358 0.0
H1547 H 0.31848 0.04078 0.63408 0.0
C1548 C 0.38084 0.99509 0.57445 0.0
C1549 C 0.36685 0.98346 0.57288 0.0
C1550 C 0.38093 0.00808 0.58856 0.0
C1551 C 0.3671 0.00976 0.60162 0.0
C1552 C 0.35314 0.99816 0.60015 0.0
C1553 C 0.35304 0.98513 0.58602 0.0
C1554 C 0.36712 0.02379 0.61654 0.0
C1555 C 0.35295 0.03518 0.61752 0.0
C1556 C 0.38128 0.02645 0.62921 0.0
C1557 C 0.39604 0.01419 0.63012 0.0
C1558 C 0.39316 0.99643 0.63336 0.0
C1559 C 0.4071 0.98493 0.63429 0.0
C1560 C 0.42401 0.99104 0.63215 0.0
C1561 C 0.42701 0.00868 0.62911 0.0
C1562 C 0.41311 0.02024 0.62814 0.0
C1563 C 0.35277 0.07795 0.68723 0.0
C1564 C 0.36669 0.08952 0.68976 0.0
C1565 C 0.35272 0.06596 0.67207 0.0
C1566 C 0.3665 0.06527 0.65884 0.0
C1567 C 0.38037 0.07689 0.66121 0.0
C1568 C 0.38046 0.08889 0.67645 0.0
C1569 C 0.36679 0.05178 0.6433 0.0
C1570 C 0.38107 0.04055 0.64208 0.0
C1571 C 0.35262 0.04913 0.63063 0.0
C1572 C 0.33757 0.06106 0.63027 0.0
C1573 C 0.34 0.07899 0.62786 0.0
C1574 C 0.32578 0.09018 0.62767 0.0
C1575 C 0.30904 0.08359 0.62975 0.0
C1576 C 0.30649 0.06579 0.63198 0.0
C1577 C 0.32067 0.05454 0.6322 0.0
H1578 H 0.29805 0.09228 0.6296 0.0
H1579 H 0.4348 0.98212 0.63289 0.0
H1580 H 0.15633 0.14037 0.92948 0.0
H1581 H 0.17863 0.14045 0.90423 0.0
H1582 H 0.19552 0.08983 0.92249 0.0
H1583 H 0.17338 0.08962 0.94764 0.0
H1584 H 0.21466 0.13811 0.90728 0.0
H1585 H 0.20885 0.06739 0.88248 0.0
H1586 H 0.18697 0.04417 0.88081 0.0
H1587 H 0.14656 0.08215 0.87637 0.0
H1588 H 0.16822 0.10558 0.87776 0.0
H1589 H 0.28739 0.11584 0.84799 0.0
H1590 H 0.26499 0.11583 0.87296 0.0
H1591 H 0.22551 0.11384 0.82903 0.0
H1592 H 0.24777 0.11302 0.80408 0.0
H1593 H 0.21725 0.09252 0.85694 0.0
H1594 H 0.2362 0.1526 0.85494 0.0
H1595 H 0.25826 0.17566 0.85665 0.0
H1596 H 0.27204 0.15942 0.91393 0.0
H1597 H 0.2501 0.13622 0.91252 0.0
C1598 C 0.16466 0.12917 0.928 0.0
C1599 C 0.16291 0.11494 0.94058 0.0
C1600 C 0.17751 0.1293 0.91364 0.0
C1601 C 0.18877 0.11512 0.91135 0.0
C1602 C 0.18694 0.10086 0.92378 0.0
C1603 C 0.17421 0.10077 0.9382 0.0
C1604 C 0.20243 0.11519 0.89603 0.0
C1605 C 0.2152 0.12816 0.89626 0.0
C1606 C 0.20328 0.10219 0.88163 0.0
C1607 C 0.19015 0.08823 0.88039 0.0
C1608 C 0.1953 0.07078 0.88105 0.0
C1609 C 0.18294 0.05758 0.88018 0.0
C1610 C 0.16538 0.06168 0.87855 0.0
C1611 C 0.16016 0.07899 0.87771 0.0
C1612 C 0.17247 0.09223 0.87856 0.0
C1613 C 0.27396 0.11525 0.8436 0.0
C1614 C 0.26951 0.11454 0.82387 0.0
C1615 C 0.2611 0.11545 0.85795 0.0
C1616 C 0.24344 0.1151 0.85298 0.0
C1617 C 0.23899 0.11421 0.83334 0.0
C1618 C 0.2518 0.11394 0.81901 0.0
C1619 C 0.22953 0.11547 0.8681 0.0
C1620 C 0.21674 0.10252 0.86792 0.0
C1621 C 0.2287 0.12846 0.88256 0.0
C1622 C 0.24159 0.14264 0.88358 0.0
C1623 C 0.24396 0.15394 0.86788 0.0
C1624 C 0.25643 0.16704 0.8688 0.0
C1625 C 0.26655 0.169 0.88538 0.0
C1626 C 0.26417 0.15791 0.90111 0.0
C1627 C 0.2517 0.14481 0.90028 0.0
H1628 H 0.27623 0.17911 0.88604 0.0
H1629 H 0.15583 0.05144 0.87789 0.0
H1630 H 0.1161 0.90331 0.17695 0.0
H1631 H 0.11577 0.92548 0.15166 0.0
H1632 H 0.16325 0.94688 0.17403 0.0
H1633 H 0.16356 0.925 0.19943 0.0
H1634 H 0.14108 0.97211 0.16703 0.0
H1635 H 0.16198 0.92306 0.13153 0.0
H1636 H 0.16148 0.89306 0.11939 0.0
H1637 H 0.11309 0.90286 0.09091 0.0
H1638 H 0.1132 0.93288 0.10311 0.0
H1639 H 0.16201 0.02714 0.08727 0.0
H1640 H 0.16214 0.00449 0.11208 0.0
H1641 H 0.11334 0.98531 0.09078 0.0
H1642 H 0.11326 0.00771 0.0658 0.0
H1643 H 0.13577 0.95903 0.0972 0.0
H1644 H 0.11516 0.0083 0.13265 0.0
H1645 H 0.11573 0.0382 0.14516 0.0
H1646 H 0.16399 0.02793 0.17367 0.0
H1647 H 0.16376 0.99802 0.16126 0.0
C1648 C 0.12661 0.91257 0.17634 0.0
C1649 C 0.13991 0.91223 0.19023 0.0
C1650 C 0.12641 0.92528 0.16183 0.0
C1651 C 0.13955 0.93787 0.16079 0.0
C1652 C 0.15294 0.93738 0.17448 0.0
C1653 C 0.15314 0.92474 0.18897 0.0
C1654 C 0.13919 0.95183 0.14579 0.0
C1655 C 0.14016 0.96921 0.15174 0.0
C1656 C 0.13757 0.94817 0.12583 0.0
C1657 C 0.13751 0.93017 0.1184 0.0
C1658 C 0.15117 0.91878 0.1228 0.0
C1659 C 0.15097 0.90178 0.11589 0.0
C1660 C 0.13724 0.89604 0.10443 0.0
C1661 C 0.12371 0.90732 0.09981 0.0
C1662 C 0.12384 0.92433 0.10671 0.0
C1663 C 0.15132 0.01808 0.08784 0.0
C1664 C 0.13759 0.01933 0.07455 0.0
C1665 C 0.15134 0.0052 0.10214 0.0
C1666 C 0.13767 0.99323 0.10346 0.0
C1667 C 0.12401 0.99439 0.09014 0.0
C1668 C 0.12392 0.00732 0.07594 0.0
C1669 C 0.13774 0.97929 0.11844 0.0
C1670 C 0.1367 0.96192 0.11249 0.0
C1671 C 0.13934 0.98295 0.1384 0.0
C1672 C 0.13953 0.00097 0.14584 0.0
C1673 C 0.12596 0.01246 0.14146 0.0
C1674 C 0.12619 0.0294 0.1486 0.0
C1675 C 0.13989 0.03498 0.16019 0.0
C1676 C 0.15337 0.02361 0.16473 0.0
C1677 C 0.15318 0.00665 0.15767 0.0
H1678 H 0.14006 0.0481 0.16566 0.0
H1679 H 0.1371 0.88287 0.09909 0.0
H1680 H 0.75664 0.86552 0.8131 0.0
H1681 H 0.73455 0.86546 0.83827 0.0
H1682 H 0.75841 0.91005 0.8646 0.0
H1683 H 0.78075 0.91008 0.83941 0.0
H1684 H 0.74836 0.88807 0.89179 0.0
H1685 H 0.72095 0.91324 0.8365 0.0
H1686 H 0.71159 0.91488 0.80251 0.0
H1687 H 0.68174 0.86841 0.80963 0.0
H1688 H 0.69111 0.86635 0.84361 0.0
H1689 H 0.67659 0.91231 0.95011 0.0
H1690 H 0.69902 0.91181 0.92533 0.0
H1691 H 0.67746 0.86478 0.90202 0.0
H1692 H 0.65489 0.86511 0.92695 0.0
H1693 H 0.68629 0.88792 0.87346 0.0
H1694 H 0.71333 0.86338 0.92931 0.0
H1695 H 0.7236 0.86147 0.96296 0.0
H1696 H 0.75434 0.9072 0.95485 0.0
H1697 H 0.74404 0.90958 0.92124 0.0
C1698 C 0.75718 0.8754 0.82416 0.0
C1699 C 0.77043 0.88794 0.82402 0.0
C1700 C 0.74448 0.87535 0.8386 0.0
C1701 C 0.7445 0.88797 0.85322 0.0
C1702 C 0.758 0.90021 0.85348 0.0
C1703 C 0.77082 0.90019 0.83907 0.0
C1704 C 0.73037 0.88842 0.86807 0.0
C1705 C 0.7348 0.88831 0.88776 0.0
C1706 C 0.71259 0.88831 0.86294 0.0
C1707 C 0.70687 0.88955 0.84255 0.0
C1708 C 0.71249 0.9033 0.83078 0.0
C1709 C 0.70717 0.90431 0.81152 0.0
C1710 C 0.69612 0.89173 0.8039 0.0
C1711 C 0.69032 0.87813 0.81555 0.0
C1712 C 0.69562 0.87704 0.83481 0.0
C1713 C 0.67644 0.90191 0.93963 0.0
C1714 C 0.66381 0.88876 0.94058 0.0
C1715 C 0.68943 0.90158 0.92552 0.0
C1716 C 0.69014 0.88814 0.9119 0.0
C1717 C 0.67726 0.87526 0.9124 0.0
C1718 C 0.66432 0.87548 0.92666 0.0
C1719 C 0.70429 0.8876 0.89716 0.0
C1720 C 0.69986 0.8877 0.8775 0.0
C1721 C 0.72206 0.8878 0.90233 0.0
C1722 C 0.72779 0.88674 0.92277 0.0
C1723 C 0.72211 0.87316 0.93476 0.0
C1724 C 0.72799 0.87196 0.95381 0.0
C1725 C 0.73966 0.88417 0.96099 0.0
C1726 C 0.74533 0.89773 0.94923 0.0
C1727 C 0.73948 0.89901 0.93018 0.0
H1728 H 0.74434 0.88311 0.97564 0.0
H1729 H 0.69201 0.89254 0.78899 0.0
H1730 H 0.89565 0.01631 0.57842 0.0
H1731 H 0.89522 0.99401 0.60349 0.0
H1732 H 0.83949 0.99654 0.60524 0.0
H1733 H 0.83985 0.01897 0.58024 0.0
H1734 H 0.85161 0.99274 0.64065 0.0
H1735 H 0.86109 0.96414 0.58039 0.0
H1736 H 0.87555 0.95845 0.54929 0.0
H1737 H 0.92294 0.94683 0.57898 0.0
H1738 H 0.90882 0.9527 0.61026 0.0
H1739 H 0.83891 0.91348 0.69093 0.0
H1740 H 0.83839 0.93555 0.66555 0.0
H1741 H 0.89408 0.9331 0.66156 0.0
H1742 H 0.89451 0.91031 0.68614 0.0
H1743 H 0.88159 0.93723 0.62733 0.0
H1744 H 0.86823 0.96303 0.68926 0.0
H1745 H 0.85042 0.96602 0.71859 0.0
H1746 H 0.80733 0.98302 0.68451 0.0
H1747 H 0.82429 0.97873 0.6548 0.0
C1748 C 0.88328 0.01214 0.58414 0.0
C1749 C 0.86777 0.01934 0.57711 0.0
C1750 C 0.88306 0.99936 0.5985 0.0
C1751 C 0.8673 0.99326 0.60606 0.0
C1752 C 0.85182 0.00093 0.59965 0.0
C1753 C 0.85205 0.01382 0.58536 0.0
C1754 C 0.86693 0.97854 0.62015 0.0
C1755 C 0.858 0.98053 0.63768 0.0
C1756 C 0.87542 0.96262 0.61642 0.0
C1757 C 0.88395 0.95904 0.59765 0.0
C1758 C 0.87463 0.96051 0.58027 0.0
C1759 C 0.88276 0.95723 0.56262 0.0
C1760 C 0.90016 0.95233 0.56216 0.0
C1761 C 0.90946 0.95065 0.57936 0.0
C1762 C 0.90141 0.95395 0.59705 0.0
C1763 C 0.85102 0.91746 0.6844 0.0
C1764 C 0.86676 0.91015 0.69055 0.0
C1765 C 0.85073 0.93022 0.66999 0.0
C1766 C 0.86624 0.93648 0.66194 0.0
C1767 C 0.88192 0.92867 0.66757 0.0
C1768 C 0.88216 0.91557 0.68161 0.0
C1769 C 0.86628 0.95135 0.64799 0.0
C1770 C 0.87521 0.94943 0.63044 0.0
C1771 C 0.85748 0.96721 0.65162 0.0
C1772 C 0.84754 0.97035 0.66969 0.0
C1773 C 0.85491 0.96724 0.68795 0.0
C1774 C 0.84494 0.96913 0.70466 0.0
C1775 C 0.82787 0.97491 0.70345 0.0
C1776 C 0.82059 0.97857 0.68546 0.0
C1777 C 0.83032 0.97623 0.66864 0.0
H1778 H 0.82025 0.97649 0.71644 0.0
H1779 H 0.90643 0.94979 0.54847 0.0
H1780 H 0.75157 0.1137 0.3068 0.0
H1781 H 0.77327 0.11344 0.33229 0.0
H1782 H 0.73429 0.09849 0.37364 0.0
H1783 H 0.71223 0.09953 0.34827 0.0
H1784 H 0.75391 0.12201 0.38907 0.0
H1785 H 0.76494 0.06929 0.35594 0.0
H1786 H 0.77062 0.05027 0.32807 0.0
H1787 H 0.81786 0.07764 0.3164 0.0
H1788 H 0.81234 0.09699 0.34406 0.0
H1789 H 0.83387 0.08313 0.443 0.0
H1790 H 0.8111 0.08122 0.41857 0.0
H1791 H 0.81033 0.13689 0.41383 0.0
H1792 H 0.8332 0.13892 0.43822 0.0
H1793 H 0.80957 0.09074 0.3815 0.0
H1794 H 0.76793 0.14966 0.4058 0.0
H1795 H 0.75785 0.16421 0.43544 0.0
H1796 H 0.76802 0.11813 0.46827 0.0
H1797 H 0.77813 0.10329 0.43882 0.0
C1798 C 0.7475 0.11052 0.32134 0.0
C1799 C 0.73003 0.10672 0.3254 0.0
C1800 C 0.76004 0.11015 0.33591 0.0
C1801 C 0.75555 0.10573 0.35494 0.0
C1802 C 0.73814 0.1019 0.35909 0.0
C1803 C 0.72554 0.10234 0.3445 0.0
C1804 C 0.76898 0.10552 0.3705 0.0
C1805 C 0.7661 0.1152 0.38735 0.0
C1806 C 0.78476 0.09629 0.36861 0.0
C1807 C 0.78814 0.08469 0.35197 0.0
C1808 C 0.77648 0.07134 0.34734 0.0
C1809 C 0.77968 0.06048 0.3316 0.0
C1810 C 0.79457 0.06277 0.32044 0.0
C1811 C 0.80632 0.0759 0.32504 0.0
C1812 C 0.80317 0.0868 0.34076 0.0
C1813 C 0.82898 0.09498 0.43667 0.0
C1814 C 0.83546 0.11118 0.44258 0.0
C1815 C 0.81592 0.09386 0.42269 0.0
C1816 C 0.80881 0.1089 0.41447 0.0
C1817 C 0.81543 0.12509 0.42011 0.0
C1818 C 0.82864 0.12622 0.43395 0.0
C1819 C 0.79467 0.10761 0.39983 0.0
C1820 C 0.79743 0.09764 0.38314 0.0
C1821 C 0.77859 0.11618 0.40211 0.0
C1822 C 0.77394 0.12544 0.42013 0.0
C1823 C 0.76815 0.14268 0.41938 0.0
C1824 C 0.7624 0.15097 0.43613 0.0
C1825 C 0.76226 0.14209 0.4537 0.0
C1826 C 0.76817 0.125 0.45464 0.0
C1827 C 0.774 0.11668 0.43794 0.0
H1828 H 0.75745 0.14843 0.46654 0.0
H1829 H 0.79703 0.05435 0.30826 0.0
H1830 H 0.6649 0.98547 0.07741 0.0
H1831 H 0.66474 0.00799 0.10221 0.0
H1832 H 0.60929 0.01229 0.0971 0.0
H1833 H 0.60934 0.98978 0.0723 0.0
H1834 H 0.62341 0.04367 0.09832 0.0
H1835 H 0.629 0.99171 0.13681 0.0
H1836 H 0.64218 0.96406 0.14697 0.0
H1837 H 0.69046 0.98991 0.15756 0.0
H1838 H 0.67761 0.01768 0.14725 0.0
H1839 H 0.60682 0.09283 0.18299 0.0
H1840 H 0.60816 0.07145 0.15715 0.0
H1841 H 0.66285 0.0648 0.16734 0.0
H1842 H 0.66142 0.08568 0.19378 0.0
H1843 H 0.6499 0.03506 0.16276 0.0
H1844 H 0.64453 0.0872 0.126 0.0
H1845 H 0.63169 0.11513 0.11633 0.0
H1846 H 0.58402 0.08958 0.10209 0.0
H1847 H 0.5965 0.06151 0.1119 0.0
C1848 C 0.65262 0.99102 0.08172 0.0
C1849 C 0.63712 0.98571 0.0728 0.0
C1850 C 0.65256 0.00396 0.09593 0.0
C1851 C 0.63698 0.01181 0.10174 0.0
C1852 C 0.6215 0.00652 0.09288 0.0
C1853 C 0.62155 0.99363 0.07864 0.0
C1854 C 0.63681 0.02569 0.11682 0.0
C1855 C 0.62902 0.0417 0.11251 0.0
C1856 C 0.64458 0.02343 0.13516 0.0
C1857 C 0.65239 0.00672 0.14109 0.0
C1858 C 0.64247 0.99146 0.14115 0.0
C1859 C 0.64987 0.97578 0.14697 0.0
C1860 C 0.66716 0.97522 0.15286 0.0
C1861 C 0.67709 0.99035 0.15294 0.0
C1862 C 0.66975 0.00606 0.14711 0.0
C1863 C 0.61921 0.08703 0.17958 0.0
C1864 C 0.63404 0.09116 0.19044 0.0
C1865 C 0.61998 0.07479 0.16467 0.0
C1866 C 0.63568 0.06661 0.15989 0.0
C1867 C 0.65056 0.07089 0.17059 0.0
C1868 C 0.64974 0.08294 0.18569 0.0
C1869 C 0.63646 0.05306 0.14439 0.0
C1870 C 0.64435 0.0371 0.14859 0.0
C1871 C 0.62891 0.05543 0.1259 0.0
C1872 C 0.62141 0.07227 0.11984 0.0
C1873 C 0.63127 0.08755 0.12092 0.0
C1874 C 0.62406 0.1034 0.11539 0.0
C1875 C 0.60704 0.10413 0.10864 0.0
C1876 C 0.5972 0.08899 0.10734 0.0
C1877 C 0.60434 0.0731 0.11285 0.0
H1878 H 0.60148 0.11642 0.10438 0.0
H1879 H 0.67285 0.96308 0.1574 0.0
H1880 H 0.77182 0.09214 0.69045 0.0
H1881 H 0.74998 0.0929 0.66488 0.0
H1882 H 0.73438 0.14394 0.68318 0.0
H1883 H 0.75617 0.14327 0.70871 0.0
H1884 H 0.70673 0.12495 0.67737 0.0
H1885 H 0.75823 0.13649 0.64126 0.0
H1886 H 0.78778 0.13165 0.62898 0.0
H1887 H 0.77174 0.08356 0.60356 0.0
H1888 H 0.74214 0.08797 0.61596 0.0
H1889 H 0.65338 0.14374 0.59537 0.0
H1890 H 0.67538 0.14382 0.62078 0.0
H1891 H 0.69195 0.09285 0.60334 0.0
H1892 H 0.67033 0.09282 0.57769 0.0
H1893 H 0.71918 0.11242 0.60856 0.0
H1894 H 0.66784 0.10063 0.64574 0.0
H1895 H 0.63815 0.10605 0.65736 0.0
H1896 H 0.654 0.15526 0.68016 0.0
H1897 H 0.68375 0.15021 0.66847 0.0
C1898 C 0.76393 0.10364 0.68888 0.0
C1899 C 0.7658 0.11762 0.70177 0.0
C1900 C 0.75138 0.10406 0.67422 0.0
C1901 C 0.7405 0.11853 0.67192 0.0
C1902 C 0.74249 0.13257 0.68463 0.0
C1903 C 0.75498 0.13215 0.6993 0.0
C1904 C 0.72669 0.11887 0.65673 0.0
C1905 C 0.70954 0.12243 0.66229 0.0
C1906 C 0.73014 0.11525 0.63703 0.0
C1907 C 0.748 0.11246 0.62976 0.0
C1908 C 0.76104 0.12479 0.63324 0.0
C1909 C 0.7778 0.12214 0.62622 0.0
C1910 C 0.78165 0.10728 0.61555 0.0
C1911 C 0.76875 0.09505 0.61186 0.0
C1912 C 0.75198 0.09761 0.61888 0.0
C1913 C 0.66151 0.13242 0.5971 0.0
C1914 C 0.65993 0.11823 0.58447 0.0
C1915 C 0.67414 0.13248 0.61169 0.0
C1916 C 0.68535 0.11827 0.61416 0.0
C1917 C 0.68357 0.104 0.60176 0.0
C1918 C 0.67106 0.10398 0.58713 0.0
C1919 C 0.69924 0.11837 0.62925 0.0
C1920 C 0.7164 0.11492 0.62366 0.0
C1921 C 0.69581 0.12212 0.64891 0.0
C1922 C 0.67797 0.12511 0.65607 0.0
C1923 C 0.66496 0.11265 0.65312 0.0
C1924 C 0.64813 0.11565 0.65974 0.0
C1925 C 0.64418 0.13101 0.66945 0.0
C1926 C 0.65707 0.14338 0.67262 0.0
C1927 C 0.67393 0.14045 0.66602 0.0
H1928 H 0.63114 0.13331 0.67455 0.0
H1929 H 0.79463 0.10527 0.61011 0.0
H1930 H 0.66624 0.02605 0.43771 0.0
H1931 H 0.66547 0.00302 0.41361 0.0
H1932 H 0.61659 0.98535 0.43635 0.0
H1933 H 0.61737 0.00836 0.46066 0.0
H1934 H 0.63581 0.9584 0.42886 0.0
H1935 H 0.62001 0.00852 0.39286 0.0
H1936 H 0.62212 0.03817 0.37984 0.0
H1937 H 0.67021 0.02534 0.35228 0.0
H1938 H 0.66853 0.99567 0.36538 0.0
H1939 H 0.61346 0.90593 0.34725 0.0
H1940 H 0.61517 0.92704 0.37348 0.0
H1941 H 0.66493 0.94405 0.35259 0.0
H1942 H 0.66315 0.92329 0.32612 0.0
H1943 H 0.64578 0.97101 0.3596 0.0
H1944 H 0.65958 0.91979 0.39518 0.0
H1945 H 0.65541 0.88994 0.40697 0.0
H1946 H 0.60771 0.90489 0.43404 0.0
H1947 H 0.61142 0.93476 0.4221 0.0
C1948 C 0.65521 0.0174 0.43749 0.0
C1949 C 0.6418 0.01922 0.45113 0.0
C1950 C 0.65478 0.00418 0.42365 0.0
C1951 C 0.64083 0.99249 0.42284 0.0
C1952 C 0.62751 0.99414 0.43657 0.0
C1953 C 0.62798 0.00732 0.45053 0.0
C1954 C 0.64027 0.9785 0.40784 0.0
C1955 C 0.63763 0.96123 0.41365 0.0
C1956 C 0.64301 0.98198 0.38796 0.0
C1957 C 0.64425 0.99992 0.38034 0.0
C1958 C 0.63114 0.01207 0.38421 0.0
C1959 C 0.63223 0.02887 0.37677 0.0
C1960 C 0.64632 0.03366 0.3653 0.0
C1961 C 0.65933 0.02163 0.36121 0.0
C1962 C 0.65831 0.00482 0.36864 0.0
C1963 C 0.6249 0.91397 0.34837 0.0
C1964 C 0.63817 0.91279 0.33449 0.0
C1965 C 0.6259 0.92604 0.36349 0.0
C1966 C 0.64029 0.93712 0.36527 0.0
C1967 C 0.6537 0.93569 0.35166 0.0
C1968 C 0.65267 0.92371 0.3365 0.0
C1969 C 0.64086 0.95093 0.38047 0.0
C1970 C 0.64367 0.96817 0.37473 0.0
C1971 C 0.6379 0.94744 0.40029 0.0
C1972 C 0.63571 0.9295 0.4076 0.0
C1973 C 0.64813 0.91669 0.40352 0.0
C1974 C 0.64586 0.89976 0.41025 0.0
C1975 C 0.6313 0.89552 0.42124 0.0
C1976 C 0.61898 0.90819 0.42552 0.0
C1977 C 0.62116 0.92513 0.41878 0.0
H1978 H 0.62958 0.88242 0.42647 0.0
H1979 H 0.64713 0.04667 0.35953 0.0
H1980 H 0.85311 0.86431 0.1016 0.0
H1981 H 0.83148 0.86427 0.12748 0.0
H1982 H 0.80752 0.90957 0.10263 0.0
H1983 H 0.82939 0.91009 0.07736 0.0
H1984 H 0.80676 0.91311 0.13906 0.0
H1985 H 0.79157 0.86625 0.09677 0.0
H1986 H 0.79662 0.83924 0.07869 0.0
H1987 H 0.80642 0.81211 0.13171 0.0
H1988 H 0.80166 0.83906 0.15012 0.0
H1989 H 0.72335 0.90848 0.18058 0.0
H1990 H 0.7471 0.90659 0.1574 0.0
H1991 H 0.77142 0.86715 0.19211 0.0
H1992 H 0.74779 0.86917 0.21564 0.0
H1993 H 0.77304 0.8598 0.15263 0.0
H1994 H 0.78601 0.90788 0.19453 0.0
H1995 H 0.77961 0.93536 0.2112 0.0
H1996 H 0.77223 0.96065 0.15659 0.0
H1997 H 0.77835 0.93325 0.1396 0.0
C1998 C 0.84337 0.87439 0.1018 0.0
C1999 C 0.84307 0.88722 0.08736 0.0
C2000 C 0.83087 0.87427 0.11654 0.0
C2001 C 0.81755 0.88672 0.11692 0.0
C2002 C 0.81757 0.89979 0.10278 0.0
C2003 C 0.83017 0.90007 0.08827 0.0
C2004 C 0.80342 0.88619 0.13176 0.0
C2005 C 0.79932 0.90146 0.14182 0.0
C2006 C 0.79377 0.87096 0.13579 0.0
C2007 C 0.79643 0.8547 0.1248 0.0
C2008 C 0.7949 0.85454 0.10457 0.0
C2009 C 0.79769 0.83924 0.09426 0.0
C2010 C 0.80187 0.82397 0.10403 0.0
C2011 C 0.8032 0.82395 0.12416 0.0
C2012 C 0.80045 0.83924 0.13454 0.0
C2013 C 0.73378 0.89946 0.1834 0.0
C2014 C 0.73371 0.88916 0.20021 0.0
C2015 C 0.74734 0.89834 0.17005 0.0
C2016 C 0.76123 0.88692 0.17311 0.0
C2017 C 0.76089 0.8761 0.18943 0.0
C2018 C 0.74732 0.87723 0.20286 0.0
C2019 C 0.77631 0.88675 0.1596 0.0
C2020 C 0.78059 0.87138 0.14986 0.0
C2021 C 0.78596 0.90194 0.15561 0.0
C2022 C 0.78251 0.91848 0.1658 0.0
C2023 C 0.78292 0.91928 0.18608 0.0
C2024 C 0.77935 0.93484 0.19559 0.0
C2025 C 0.77548 0.94973 0.18496 0.0
C2026 C 0.77521 0.9491 0.1648 0.0
C2027 C 0.77875 0.93357 0.15523 0.0
H2028 H 0.77271 0.96176 0.19235 0.0
H2029 H 0.80404 0.81214 0.09602 0.0
H2030 H 0.88963 0.08546 0.83762 0.0
H2031 H 0.88898 0.06378 0.86338 0.0
H2032 H 0.83323 0.06516 0.86338 0.0
H2033 H 0.83373 0.0866 0.83717 0.0
H2034 H 0.84971 0.06469 0.90193 0.0
H2035 H 0.84866 0.0343 0.84237 0.0
H2036 H 0.85823 0.02756 0.80955 0.0
H2037 H 0.90763 0.01094 0.83123 0.0
H2038 H 0.89847 0.01834 0.86437 0.0
H2039 H 0.83677 0.98672 0.95546 0.0
H2040 H 0.83533 0.00922 0.93061 0.0
H2041 H 0.88999 0.00337 0.91993 0.0
H2042 H 0.89144 0.98054 0.94436 0.0
H2043 H 0.87288 0.00633 0.88665 0.0
H2044 H 0.87379 0.03746 0.94666 0.0
H2045 H 0.86386 0.04514 0.97938 0.0
H2046 H 0.81419 0.05965 0.95673 0.0
H2047 H 0.82376 0.05182 0.92389 0.0
C2048 C 0.8772 0.08135 0.84322 0.0
C2049 C 0.86171 0.0878 0.83526 0.0
C2050 C 0.87687 0.06889 0.85794 0.0
C2051 C 0.86106 0.06278 0.8653 0.0
C2052 C 0.84558 0.06969 0.85797 0.0
C2053 C 0.84589 0.08192 0.84294 0.0
C2054 C 0.8608 0.04853 0.87988 0.0
C2055 C 0.85457 0.05187 0.89854 0.0
C2056 C 0.86739 0.03185 0.87559 0.0
C2057 C 0.87298 0.02717 0.8558 0.0
C2058 C 0.86166 0.02945 0.84014 0.0
C2059 C 0.86702 0.02547 0.82144 0.0
C2060 C 0.88361 0.01885 0.8182 0.0
C2061 C 0.89482 0.01615 0.83374 0.0
C2062 C 0.88956 0.02029 0.8525 0.0
C2063 C 0.84846 0.99005 0.94767 0.0
C2064 C 0.86425 0.98181 0.95204 0.0
C2065 C 0.84765 0.00309 0.93358 0.0
C2066 C 0.86261 0.00825 0.92354 0.0
C2067 C 0.87828 0.99974 0.92752 0.0
C2068 C 0.87912 0.98675 0.94163 0.0
C2069 C 0.86197 0.02248 0.90888 0.0
C2070 C 0.86804 0.01914 0.89013 0.0
C2071 C 0.85521 0.03914 0.91313 0.0
C2072 C 0.84944 0.04388 0.93285 0.0
C2073 C 0.86071 0.04215 0.94868 0.0
C2074 C 0.85515 0.04656 0.96724 0.0
C2075 C 0.83839 0.05283 0.97014 0.0
C2076 C 0.82716 0.05476 0.95447 0.0
C2077 C 0.83265 0.05035 0.93588 0.0
H2078 H 0.83411 0.05624 0.98453 0.0
H2079 H 0.88777 0.01577 0.80369 0.0
H2080 H 0.74346 0.59099 0.70694 0.0
H2081 H 0.76587 0.59179 0.68212 0.0
H2082 H 0.74763 0.64182 0.66339 0.0
H2083 H 0.72471 0.64082 0.68769 0.0
H2084 H 0.75547 0.62338 0.63298 0.0
H2085 H 0.78452 0.63711 0.69179 0.0
H2086 H 0.79352 0.63303 0.72565 0.0
H2087 H 0.81852 0.58524 0.71061 0.0
H2088 H 0.80945 0.58891 0.67669 0.0
H2089 H 0.84868 0.63964 0.5967 0.0
H2090 H 0.82636 0.64077 0.62191 0.0
H2091 H 0.80381 0.59374 0.59995 0.0
H2092 H 0.82657 0.592 0.57541 0.0
H2093 H 0.81688 0.6135 0.65079 0.0
H2094 H 0.7566 0.60651 0.60036 0.0
H2095 H 0.74635 0.61587 0.56827 0.0
H2096 H 0.78433 0.65642 0.56746 0.0
H2097 H 0.79446 0.64767 0.59974 0.0
C2098 C 0.74399 0.60208 0.6974 0.0
C2099 C 0.73217 0.61586 0.6995 0.0
C2100 C 0.75702 0.60262 0.6833 0.0
C2101 C 0.75872 0.617 0.67097 0.0
C2102 C 0.74673 0.6306 0.67273 0.0
C2103 C 0.73368 0.63007 0.68682 0.0
C2104 C 0.77301 0.61788 0.65633 0.0
C2105 C 0.76887 0.62112 0.63689 0.0
C2106 C 0.79064 0.61543 0.66139 0.0
C2107 C 0.79617 0.61321 0.68174 0.0
C2108 C 0.79183 0.62567 0.69573 0.0
C2109 C 0.79696 0.62344 0.71493 0.0
C2110 C 0.80655 0.60887 0.72028 0.0
C2111 C 0.81107 0.59651 0.70644 0.0
C2112 C 0.80595 0.59867 0.68723 0.0
C2113 C 0.83913 0.62939 0.59737 0.0
C2114 C 0.83935 0.6158 0.58381 0.0
C2115 C 0.82632 0.63011 0.61176 0.0
C2116 C 0.81322 0.6175 0.61262 0.0
C2117 C 0.81361 0.60375 0.5994 0.0
C2118 C 0.82665 0.60279 0.58535 0.0
C2119 C 0.79922 0.6185 0.62744 0.0
C2120 C 0.80344 0.6156 0.64688 0.0
C2121 C 0.78171 0.62162 0.62242 0.0
C2122 C 0.77647 0.62625 0.60243 0.0
C2123 C 0.7628 0.6174 0.59333 0.0
C2124 C 0.75691 0.62268 0.57516 0.0
C2125 C 0.76461 0.6368 0.56591 0.0
C2126 C 0.77836 0.64551 0.57467 0.0
C2127 C 0.78421 0.64035 0.59289 0.0
H2128 H 0.75996 0.64097 0.55193 0.0
H2129 H 0.81051 0.60717 0.73515 0.0
H2130 H 0.66586 0.592 0.83916 0.0
H2131 H 0.66669 0.56991 0.86453 0.0
H2132 H 0.61098 0.56611 0.86258 0.0
H2133 H 0.6101 0.5888 0.83806 0.0
H2134 H 0.6199 0.56269 0.89731 0.0
H2135 H 0.64283 0.53982 0.83829 0.0
H2136 H 0.66256 0.53591 0.81083 0.0
H2137 H 0.70433 0.52465 0.84968 0.0
H2138 H 0.68485 0.52851 0.87748 0.0
H2139 H 0.61198 0.48134 0.94446 0.0
H2140 H 0.61183 0.50389 0.91965 0.0
H2141 H 0.66692 0.51039 0.92642 0.0
H2142 H 0.66727 0.48744 0.95074 0.0
H2143 H 0.65847 0.51192 0.88913 0.0
H2144 H 0.63742 0.53851 0.94733 0.0
H2145 H 0.61822 0.54174 0.97554 0.0
H2146 H 0.57424 0.54656 0.93802 0.0
H2147 H 0.59316 0.54309 0.90958 0.0
C2148 C 0.65379 0.58661 0.84437 0.0
C2149 C 0.63792 0.59217 0.83658 0.0
C2150 C 0.65427 0.57383 0.85877 0.0
C2151 C 0.63893 0.56581 0.86518 0.0
C2152 C 0.62305 0.57186 0.85787 0.0
C2153 C 0.62254 0.58494 0.84384 0.0
C2154 C 0.63931 0.55098 0.87919 0.0
C2155 C 0.62822 0.55152 0.89528 0.0
C2156 C 0.65045 0.53644 0.87698 0.0
C2157 C 0.66224 0.53438 0.8601 0.0
C2158 C 0.65616 0.53641 0.84107 0.0
C2159 C 0.66734 0.53426 0.8254 0.0
C2160 C 0.68468 0.53001 0.82849 0.0
C2161 C 0.69088 0.52792 0.84729 0.0
C2162 C 0.67975 0.53007 0.86302 0.0
C2163 C 0.62413 0.48735 0.9405 0.0
C2164 C 0.63962 0.48254 0.9498 0.0
C2165 C 0.624 0.50042 0.92641 0.0
C2166 C 0.63933 0.50913 0.92129 0.0
C2167 C 0.65488 0.504 0.93012 0.0
C2168 C 0.65503 0.49093 0.9442 0.0
C2169 C 0.63914 0.52378 0.90709 0.0
C2170 C 0.65021 0.52316 0.891 0.0
C2171 C 0.62808 0.53828 0.90926 0.0
C2172 C 0.61669 0.54035 0.92634 0.0
C2173 C 0.62364 0.54011 0.9451 0.0
C2174 C 0.61281 0.54201 0.96113 0.0
C2175 C 0.59501 0.5443 0.95857 0.0
C2176 C 0.58802 0.54474 0.93998 0.0
C2177 C 0.59879 0.54282 0.9239 0.0
H2178 H 0.58665 0.54578 0.971 0.0
H2179 H 0.69332 0.52835 0.81633 0.0
H2180 H 0.65383 0.36104 0.095 0.0
H2181 H 0.6756 0.36071 0.12066 0.0
H2182 H 0.69267 0.41162 0.10358 0.0
H2183 H 0.67082 0.41219 0.07813 0.0
H2184 H 0.71008 0.36172 0.11861 0.0
H2185 H 0.70827 0.43331 0.14265 0.0
H2186 H 0.6874 0.45741 0.14488 0.0
H2187 H 0.64553 0.42113 0.14994 0.0
H2188 H 0.66616 0.39682 0.14799 0.0
H2189 H 0.78489 0.38119 0.17609 0.0
H2190 H 0.76215 0.38152 0.15146 0.0
H2191 H 0.72345 0.3869 0.19591 0.0
H2192 H 0.74604 0.38728 0.22046 0.0
H2193 H 0.71615 0.40801 0.16773 0.0
H2194 H 0.7322 0.34793 0.17187 0.0
H2195 H 0.75164 0.32264 0.17037 0.0
H2196 H 0.76276 0.33369 0.11088 0.0
H2197 H 0.74363 0.35923 0.11211 0.0
C2198 C 0.66203 0.37229 0.09685 0.0
C2199 C 0.66042 0.3867 0.0845 0.0
C2200 C 0.67457 0.37203 0.1115 0.0
C2201 C 0.68577 0.38618 0.11421 0.0
C2202 C 0.68406 0.40064 0.10204 0.0
C2203 C 0.67151 0.40094 0.08743 0.0
C2204 C 0.69952 0.38562 0.12938 0.0
C2205 C 0.71143 0.37187 0.12932 0.0
C2206 C 0.70126 0.39874 0.14353 0.0
C2207 C 0.68875 0.41326 0.14499 0.0
C2208 C 0.69461 0.43048 0.14432 0.0
C2209 C 0.68283 0.44418 0.14551 0.0
C2210 C 0.66515 0.4408 0.14749 0.0
C2211 C 0.65922 0.42372 0.14834 0.0
C2212 C 0.67095 0.40998 0.14716 0.0
C2213 C 0.77155 0.38256 0.18065 0.0
C2214 C 0.76739 0.38409 0.20039 0.0
C2215 C 0.75851 0.38257 0.16651 0.0
C2216 C 0.74097 0.38403 0.17175 0.0
C2217 C 0.73682 0.38569 0.19141 0.0
C2218 C 0.74981 0.38571 0.20551 0.0
C2219 C 0.72688 0.38415 0.15689 0.0
C2220 C 0.7149 0.39788 0.15697 0.0
C2221 C 0.72501 0.37091 0.14286 0.0
C2222 C 0.73667 0.35566 0.14218 0.0
C2223 C 0.73895 0.3451 0.15854 0.0
C2224 C 0.74988 0.33069 0.15772 0.0
C2225 C 0.75849 0.32661 0.14057 0.0
C2226 C 0.75614 0.3369 0.12418 0.0
C2227 C 0.74526 0.35135 0.12493 0.0
H2228 H 0.76693 0.31544 0.13996 0.0
H2229 H 0.65604 0.45143 0.1484 0.0
H2230 H 0.88267 0.50154 0.46588 0.0
H2231 H 0.88301 0.47841 0.44182 0.0
H2232 H 0.84381 0.50517 0.40903 0.0
H2233 H 0.84339 0.52835 0.43307 0.0
H2234 H 0.83613 0.47192 0.41092 0.0
H2235 H 0.88718 0.50404 0.39466 0.0
H2236 H 0.91534 0.51812 0.40052 0.0
H2237 H 0.93718 0.46933 0.41762 0.0
H2238 H 0.90907 0.45499 0.4121 0.0
H2239 H 0.8425 0.42638 0.32283 0.0
H2240 H 0.84246 0.44751 0.34889 0.0
H2241 H 0.88315 0.41927 0.37767 0.0
H2242 H 0.88368 0.3983 0.3511 0.0
H2243 H 0.89025 0.45181 0.37968 0.0
H2244 H 0.83913 0.41968 0.39393 0.0
H2245 H 0.81095 0.40584 0.38746 0.0
H2246 H 0.78902 0.45528 0.37304 0.0
H2247 H 0.81713 0.46939 0.37918 0.0
C2248 C 0.87427 0.50266 0.45343 0.0
C2249 C 0.86304 0.51693 0.45146 0.0
C2250 C 0.87446 0.48936 0.43965 0.0
C2251 C 0.86356 0.49003 0.4234 0.0
C2252 C 0.85233 0.50425 0.42141 0.0
C2253 C 0.85208 0.51752 0.43523 0.0
C2254 C 0.86365 0.47583 0.40867 0.0
C2255 C 0.84794 0.46774 0.40384 0.0
C2256 C 0.87908 0.4699 0.39979 0.0
C2257 C 0.89597 0.47848 0.40318 0.0
C2258 C 0.89795 0.49634 0.39983 0.0
C2259 C 0.91391 0.50436 0.40306 0.0
C2260 C 0.92803 0.49464 0.4095 0.0
C2261 C 0.92623 0.47685 0.41267 0.0
C2262 C 0.91029 0.46877 0.40948 0.0
C2263 C 0.8513 0.42446 0.33481 0.0
C2264 C 0.86297 0.41045 0.33491 0.0
C2265 C 0.85121 0.43658 0.34983 0.0
C2266 C 0.86253 0.4349 0.36562 0.0
C2267 C 0.87419 0.42089 0.36578 0.0
C2268 C 0.87444 0.40883 0.35059 0.0
C2269 C 0.86264 0.4482 0.38141 0.0
C2270 C 0.8784 0.45604 0.3866 0.0
C2271 C 0.84723 0.454 0.39049 0.0
C2272 C 0.83028 0.44557 0.38688 0.0
C2273 C 0.82833 0.42758 0.38926 0.0
C2274 C 0.81236 0.41969 0.38566 0.0
C2275 C 0.79822 0.42967 0.3798 0.0
C2276 C 0.8 0.44757 0.37757 0.0
C2277 C 0.81593 0.45552 0.38113 0.0
H2278 H 0.78587 0.42354 0.37703 0.0
H2279 H 0.94037 0.50087 0.41198 0.0
H2280 H 0.72244 0.41229 0.83882 0.0
H2281 H 0.74499 0.41166 0.8636 0.0
H2282 H 0.76202 0.36184 0.84291 0.0
H2283 H 0.7395 0.36238 0.81812 0.0
H2284 H 0.76236 0.36211 0.88127 0.0
H2285 H 0.78388 0.40002 0.83168 0.0
H2286 H 0.78289 0.42498 0.80947 0.0
H2287 H 0.77861 0.45968 0.85766 0.0
H2288 H 0.77935 0.43489 0.88015 0.0
H2289 H 0.84331 0.36082 0.93045 0.0
H2290 H 0.821 0.36092 0.90537 0.0
H2291 H 0.80476 0.41181 0.92342 0.0
H2292 H 0.82713 0.41194 0.94827 0.0
H2293 H 0.80403 0.41076 0.88624 0.0
H2294 H 0.78204 0.37295 0.9359 0.0
H2295 H 0.78241 0.34797 0.95814 0.0
H2296 H 0.78751 0.31324 0.91015 0.0
H2297 H 0.7872 0.33799 0.8876 0.0
C2298 C 0.73101 0.40122 0.83946 0.0
C2299 C 0.72915 0.38745 0.82629 0.0
C2300 C 0.74394 0.40087 0.85369 0.0
C2301 C 0.75549 0.38682 0.85502 0.0
C2302 C 0.75335 0.37285 0.84225 0.0
C2303 C 0.74038 0.37316 0.82807 0.0
C2304 C 0.76992 0.38678 0.86949 0.0
C2305 C 0.77159 0.37266 0.88217 0.0
C2306 C 0.78184 0.40067 0.87107 0.0
C2307 C 0.7815 0.41559 0.85758 0.0
C2308 C 0.78261 0.41297 0.83753 0.0
C2309 C 0.78211 0.42708 0.82489 0.0
C2310 C 0.78064 0.4439 0.83215 0.0
C2311 C 0.77972 0.44664 0.85206 0.0
C2312 C 0.78019 0.43257 0.86476 0.0
C2313 C 0.83509 0.37211 0.92901 0.0
C2314 C 0.83711 0.38636 0.94148 0.0
C2315 C 0.82218 0.37209 0.91473 0.0
C2316 C 0.81082 0.38623 0.91269 0.0
C2317 C 0.81319 0.40067 0.92474 0.0
C2318 C 0.82609 0.40073 0.93896 0.0
C2319 C 0.79647 0.38609 0.89809 0.0
C2320 C 0.79481 0.40019 0.88537 0.0
C2321 C 0.78453 0.3722 0.89652 0.0
C2322 C 0.78475 0.35734 0.91008 0.0
C2323 C 0.78334 0.36 0.9301 0.0
C2324 C 0.78352 0.34589 0.94276 0.0
C2325 C 0.78506 0.32906 0.93558 0.0
C2326 C 0.78635 0.32629 0.9157 0.0
C2327 C 0.78613 0.34035 0.90297 0.0
H2328 H 0.78521 0.31817 0.94541 0.0
H2329 H 0.78026 0.45481 0.82234 0.0
H2330 H 0.89219 0.59106 0.18261 0.0
H2331 H 0.89092 0.56983 0.15658 0.0
H2332 H 0.83559 0.56585 0.16383 0.0
H2333 H 0.83692 0.58658 0.19046 0.0
H2334 H 0.84746 0.53546 0.16073 0.0
H2335 H 0.85655 0.58651 0.12314 0.0
H2336 H 0.8709 0.61375 0.11369 0.0
H2337 H 0.91809 0.58612 0.10259 0.0
H2338 H 0.90408 0.55873 0.11222 0.0
H2339 H 0.83408 0.48442 0.0768 0.0
H2340 H 0.83446 0.50749 0.10093 0.0
H2341 H 0.89014 0.5096 0.09751 0.0
H2342 H 0.88983 0.48686 0.07291 0.0
H2343 H 0.87717 0.54157 0.09767 0.0
H2344 H 0.86956 0.4911 0.1366 0.0
H2345 H 0.85634 0.4637 0.14744 0.0
H2346 H 0.80809 0.48982 0.15734 0.0
H2347 H 0.82097 0.51735 0.14633 0.0
C2348 C 0.87969 0.58591 0.17847 0.0
C2349 C 0.86463 0.59064 0.18861 0.0
C2350 C 0.87896 0.57377 0.16345 0.0
C2351 C 0.8631 0.56631 0.15788 0.0
C2352 C 0.848 0.57134 0.16774 0.0
C2353 C 0.84876 0.58329 0.18295 0.0
C2354 C 0.8624 0.55252 0.14265 0.0
C2355 C 0.8538 0.53693 0.14687 0.0
C2356 C 0.8709 0.55417 0.12459 0.0
C2357 C 0.87929 0.57059 0.11855 0.0
C2358 C 0.87001 0.58625 0.11879 0.0
C2359 C 0.87808 0.60172 0.11339 0.0
C2360 C 0.8954 0.60167 0.10759 0.0
C2361 C 0.90467 0.58614 0.10711 0.0
C2362 C 0.89667 0.57064 0.11251 0.0
C2363 C 0.84643 0.48981 0.08109 0.0
C2364 C 0.86192 0.48369 0.07283 0.0
C2365 C 0.84664 0.50294 0.09507 0.0
C2366 C 0.86235 0.51027 0.10125 0.0
C2367 C 0.87784 0.50419 0.09306 0.0
C2368 C 0.87765 0.49103 0.0791 0.0
C2369 C 0.86257 0.52443 0.116 0.0
C2370 C 0.87094 0.54011 0.11161 0.0
C2371 C 0.85405 0.52281 0.13403 0.0
C2372 C 0.84617 0.50624 0.14039 0.0
C2373 C 0.85608 0.49096 0.14088 0.0
C2374 C 0.84866 0.47542 0.14712 0.0
C2375 C 0.83137 0.47501 0.15301 0.0
C2376 C 0.82147 0.49015 0.15273 0.0
C2377 C 0.82883 0.50573 0.1465 0.0
H2378 H 0.82566 0.46296 0.15785 0.0
H2379 H 0.90163 0.61366 0.10343 0.0
H2380 H 0.76105 0.63762 0.3167 0.0
H2381 H 0.73836 0.63893 0.34126 0.0
H2382 H 0.75762 0.59177 0.36675 0.0
H2383 H 0.78047 0.59045 0.34234 0.0
H2384 H 0.72314 0.59044 0.36316 0.0
H2385 H 0.76395 0.63155 0.3882 0.0
H2386 H 0.78293 0.6572 0.38722 0.0
H2387 H 0.73904 0.68975 0.37582 0.0
H2388 H 0.71981 0.66425 0.37646 0.0
H2389 H 0.67606 0.59227 0.45093 0.0
H2390 H 0.69813 0.59195 0.42582 0.0
H2391 H 0.67902 0.6406 0.40385 0.0
H2392 H 0.65709 0.64126 0.42941 0.0
H2393 H 0.71292 0.64156 0.40494 0.0
H2394 H 0.67199 0.60063 0.38018 0.0
H2395 H 0.65292 0.57504 0.38107 0.0
H2396 H 0.69679 0.54223 0.39158 0.0
H2397 H 0.71611 0.56766 0.39101 0.0
C2398 C 0.76067 0.62766 0.3277 0.0
C2399 C 0.77267 0.61391 0.32745 0.0
C2400 C 0.74761 0.62841 0.34175 0.0
C2401 C 0.74625 0.6155 0.35601 0.0
C2402 C 0.75829 0.60185 0.35589 0.0
C2403 C 0.77136 0.6011 0.34186 0.0
C2404 C 0.73205 0.61596 0.37071 0.0
C2405 C 0.72106 0.60154 0.37246 0.0
C2406 C 0.72893 0.63061 0.38254 0.0
C2407 C 0.74047 0.64596 0.38218 0.0
C2408 C 0.75836 0.64416 0.38533 0.0
C2409 C 0.76916 0.65868 0.38486 0.0
C2410 C 0.76221 0.67509 0.38141 0.0
C2411 C 0.74442 0.67703 0.37847 0.0
C2412 C 0.73356 0.66255 0.37889 0.0
C2413 C 0.67634 0.60283 0.44064 0.0
C2414 C 0.66462 0.61673 0.44219 0.0
C2415 C 0.68902 0.60261 0.42619 0.0
C2416 C 0.6902 0.61612 0.41264 0.0
C2417 C 0.67842 0.62997 0.41404 0.0
C2418 C 0.66579 0.63028 0.42863 0.0
C2419 C 0.70401 0.616 0.39744 0.0
C2420 C 0.71494 0.63047 0.3956 0.0
C2421 C 0.70705 0.60141 0.38547 0.0
C2422 C 0.69547 0.58608 0.38571 0.0
C2423 C 0.67755 0.58798 0.38281 0.0
C2424 C 0.6667 0.57349 0.38324 0.0
C2425 C 0.67363 0.55702 0.38643 0.0
C2426 C 0.69144 0.555 0.38914 0.0
C2427 C 0.70235 0.56944 0.38874 0.0
H2428 H 0.66521 0.54583 0.38676 0.0
H2429 H 0.77059 0.68632 0.38106 0.0
H2430 H 0.60757 0.41094 0.68375 0.0
H2431 H 0.60807 0.4323 0.65774 0.0
H2432 H 0.66353 0.43657 0.66327 0.0
H2433 H 0.66301 0.41571 0.68981 0.0
H2434 H 0.65103 0.46702 0.66103 0.0
H2435 H 0.64171 0.41576 0.62346 0.0
H2436 H 0.62711 0.38857 0.61434 0.0
H2437 H 0.57989 0.41639 0.60398 0.0
H2438 H 0.59415 0.44373 0.61328 0.0
H2439 H 0.66367 0.51872 0.57743 0.0
H2440 H 0.6636 0.49562 0.60155 0.0
H2441 H 0.60801 0.49222 0.5975 0.0
H2442 H 0.60799 0.51534 0.57334 0.0
H2443 H 0.62103 0.46076 0.59818 0.0
H2444 H 0.62852 0.51124 0.63697 0.0
H2445 H 0.64158 0.53872 0.64776 0.0
H2446 H 0.69001 0.51291 0.65759 0.0
H2447 H 0.6773 0.48531 0.64661 0.0
C2448 C 0.61993 0.41621 0.67925 0.0
C2449 C 0.63527 0.41152 0.68889 0.0
C2450 C 0.62021 0.42841 0.66424 0.0
C2451 C 0.63588 0.43598 0.6582 0.0
C2452 C 0.65125 0.43099 0.66756 0.0
C2453 C 0.65094 0.41897 0.68273 0.0
C2454 C 0.63618 0.44985 0.64303 0.0
C2455 C 0.64465 0.46552 0.64719 0.0
C2456 C 0.62751 0.44819 0.62507 0.0
C2457 C 0.61897 0.43179 0.61921 0.0
C2458 C 0.62819 0.41607 0.61934 0.0
C2459 C 0.61998 0.40063 0.61413 0.0
C2460 C 0.60258 0.40075 0.60862 0.0
C2461 C 0.59337 0.41632 0.60826 0.0
C2462 C 0.60151 0.4318 0.61348 0.0
C2463 C 0.65139 0.51325 0.58183 0.0
C2464 C 0.63583 0.51903 0.57339 0.0
C2465 C 0.65136 0.49997 0.59565 0.0
C2466 C 0.63578 0.49218 0.60159 0.0
C2467 C 0.62023 0.49791 0.59318 0.0
C2468 C 0.62025 0.51116 0.57931 0.0
C2469 C 0.63571 0.47798 0.61635 0.0
C2470 C 0.62736 0.46225 0.61206 0.0
C2471 C 0.64425 0.47964 0.63436 0.0
C2472 C 0.65202 0.49626 0.64073 0.0
C2473 C 0.64201 0.51146 0.64124 0.0
C2474 C 0.64933 0.52705 0.64744 0.0
C2475 C 0.66663 0.52757 0.6533 0.0
C2476 C 0.67663 0.51249 0.65301 0.0
C2477 C 0.66937 0.49687 0.64681 0.0
H2478 H 0.67227 0.53965 0.6581 0.0
H2479 H 0.59624 0.38878 0.6046 0.0
H2480 H 0.16368 0.41315 0.44119 0.0
H2481 H 0.18448 0.41432 0.41464 0.0
H2482 H 0.17988 0.35905 0.40715 0.0
H2483 H 0.15867 0.35789 0.43323 0.0
H2484 H 0.21486 0.40182 0.41166 0.0
H2485 H 0.19028 0.34629 0.36235 0.0
H2486 H 0.16259 0.33316 0.35237 0.0
H2487 H 0.13618 0.38092 0.36418 0.0
H2488 H 0.16374 0.3944 0.374 0.0
H2489 H 0.26197 0.35847 0.32339 0.0
H2490 H 0.23902 0.35894 0.3477 0.0
H2491 H 0.24413 0.4144 0.3524 0.0
H2492 H 0.26715 0.414 0.32818 0.0
H2493 H 0.20811 0.37294 0.34823 0.0
H2494 H 0.23368 0.428 0.39755 0.0
H2495 H 0.26154 0.44015 0.4085 0.0
H2496 H 0.28645 0.39134 0.39809 0.0
H2497 H 0.25871 0.37883 0.38735 0.0
C2498 C 0.16686 0.40127 0.43367 0.0
C2499 C 0.15936 0.38544 0.43931 0.0
C2500 C 0.17885 0.40195 0.4185 0.0
C2501 C 0.18373 0.38682 0.40861 0.0
C2502 C 0.17609 0.37102 0.4141 0.0
C2503 C 0.16396 0.37036 0.42913 0.0
C2504 C 0.19752 0.38743 0.3934 0.0
C2505 C 0.21328 0.39564 0.39772 0.0
C2506 C 0.19567 0.3792 0.37522 0.0
C2507 C 0.17906 0.3713 0.36907 0.0
C2508 C 0.17858 0.35401 0.36273 0.0
C2509 C 0.1629 0.3465 0.35712 0.0
C2510 C 0.14763 0.35618 0.35769 0.0
C2511 C 0.14801 0.37342 0.36381 0.0
C2512 C 0.16365 0.38099 0.36942 0.0
C2513 C 0.25822 0.37079 0.32958 0.0
C2514 C 0.2665 0.3862 0.3238 0.0
C2515 C 0.24507 0.37104 0.34352 0.0
C2516 C 0.23984 0.38668 0.3521 0.0
C2517 C 0.24809 0.40209 0.34635 0.0
C2518 C 0.26131 0.40184 0.33248 0.0
C2519 C 0.22561 0.38687 0.36677 0.0
C2520 C 0.20972 0.37898 0.36225 0.0
C2521 C 0.22741 0.39517 0.3849 0.0
C2522 C 0.24416 0.40257 0.39138 0.0
C2523 C 0.2451 0.41986 0.39762 0.0
C2524 C 0.26087 0.42681 0.4038 0.0
C2525 C 0.27577 0.41655 0.40391 0.0
C2526 C 0.27491 0.3993 0.39791 0.0
C2527 C 0.25918 0.39228 0.39174 0.0
H2528 H 0.28796 0.42195 0.40868 0.0
H2529 H 0.1355 0.35034 0.35336 0.0
H2530 H 0.33679 0.42189 0.1975 0.0
H2531 H 0.33647 0.44421 0.17255 0.0
H2532 H 0.38818 0.42984 0.15548 0.0
H2533 H 0.38871 0.40755 0.18064 0.0
H2534 H 0.38511 0.46467 0.15874 0.0
H2535 H 0.35259 0.41914 0.12783 0.0
H2536 H 0.32926 0.39746 0.1254 0.0
H2537 H 0.29112 0.4376 0.13095 0.0
H2538 H 0.31424 0.4595 0.13367 0.0
H2539 H 0.38897 0.51176 0.0706 0.0
H2540 H 0.38884 0.48939 0.09557 0.0
H2541 H 0.33621 0.50264 0.11015 0.0
H2542 H 0.33624 0.52502 0.08509 0.0
H2543 H 0.33942 0.46869 0.10864 0.0
H2544 H 0.37099 0.51439 0.13832 0.0
H2545 H 0.39369 0.53666 0.14115 0.0
H2546 H 0.43288 0.49727 0.13945 0.0
H2547 H 0.41042 0.47477 0.13609 0.0
C2548 C 0.34805 0.42327 0.18831 0.0
C2549 C 0.36276 0.41278 0.1911 0.0
C2550 C 0.34783 0.4361 0.17399 0.0
C2551 C 0.36226 0.43871 0.16198 0.0
C2552 C 0.37688 0.42812 0.16455 0.0
C2553 C 0.37712 0.41527 0.17889 0.0
C2554 C 0.36222 0.45272 0.14706 0.0
C2555 C 0.37528 0.46539 0.14759 0.0
C2556 C 0.34906 0.45408 0.1329 0.0
C2557 C 0.33515 0.44094 0.13112 0.0
C2558 C 0.33923 0.42333 0.12866 0.0
C2559 C 0.32605 0.411 0.12721 0.0
C2560 C 0.30872 0.41614 0.12807 0.0
C2561 C 0.30455 0.43363 0.13031 0.0
C2562 C 0.31769 0.44601 0.13179 0.0
C2563 C 0.37743 0.5101 0.07928 0.0
C2564 C 0.36264 0.52029 0.07583 0.0
C2565 C 0.37736 0.49724 0.09357 0.0
C2566 C 0.36257 0.49436 0.10496 0.0
C2567 C 0.34778 0.50453 0.10157 0.0
C2568 C 0.34781 0.51733 0.0872 0.0
C2569 C 0.36243 0.48057 0.12015 0.0
C2570 C 0.34931 0.46798 0.11974 0.0
C2571 C 0.37545 0.47939 0.13453 0.0
C2572 C 0.389 0.49289 0.13672 0.0
C2573 C 0.38445 0.51048 0.13831 0.0
C2574 C 0.39728 0.52315 0.14 0.0
C2575 C 0.41472 0.51839 0.14041 0.0
C2576 C 0.41936 0.50094 0.13911 0.0
C2577 C 0.40658 0.48822 0.13728 0.0
H2578 H 0.42463 0.52821 0.1418 0.0
H2579 H 0.29853 0.40658 0.12694 0.0
H2580 H 0.25492 0.61902 0.80415 0.0
H2581 H 0.27617 0.61912 0.83023 0.0
H2582 H 0.23615 0.60574 0.871 0.0
H2583 H 0.21467 0.60627 0.84506 0.0
H2584 H 0.25576 0.6296 0.88607 0.0
H2585 H 0.2664 0.5757 0.85489 0.0
H2586 H 0.27258 0.55599 0.82775 0.0
H2587 H 0.32087 0.58195 0.81755 0.0
H2588 H 0.31487 0.60198 0.84447 0.0
H2589 H 0.33244 0.58775 0.94393 0.0
H2590 H 0.31004 0.58679 0.919 0.0
H2591 H 0.31134 0.64248 0.91465 0.0
H2592 H 0.33387 0.64354 0.93953 0.0
H2593 H 0.31044 0.59616 0.88213 0.0
H2594 H 0.27242 0.65744 0.90392 0.0
H2595 H 0.26021 0.67239 0.93233 0.0
H2596 H 0.2614 0.62481 0.96442 0.0
H2597 H 0.27399 0.6097 0.93633 0.0
C2598 C 0.25055 0.61625 0.81867 0.0
C2599 C 0.23297 0.61267 0.8224 0.0
C2600 C 0.26281 0.61611 0.8336 0.0
C2601 C 0.25789 0.61226 0.85265 0.0
C2602 C 0.24035 0.60872 0.85645 0.0
C2603 C 0.22807 0.60888 0.84153 0.0
C2604 C 0.27093 0.61222 0.86866 0.0
C2605 C 0.26775 0.62234 0.88511 0.0
C2606 C 0.28645 0.60245 0.86778 0.0
C2607 C 0.2901 0.59046 0.85157 0.0
C2608 C 0.27827 0.5773 0.84675 0.0
C2609 C 0.28175 0.56605 0.83143 0.0
C2610 C 0.29708 0.56775 0.8209 0.0
C2611 C 0.30899 0.58067 0.8257 0.0
C2612 C 0.30556 0.59197 0.841 0.0
C2613 C 0.32804 0.59982 0.93764 0.0
C2614 C 0.33512 0.61571 0.94369 0.0
C2615 C 0.31517 0.59925 0.92336 0.0
C2616 C 0.30881 0.61456 0.91497 0.0
C2617 C 0.31583 0.63047 0.92101 0.0
C2618 C 0.32888 0.63104 0.93512 0.0
C2619 C 0.29538 0.61379 0.89941 0.0
C2620 C 0.29852 0.60355 0.88299 0.0
C2621 C 0.2796 0.62307 0.90053 0.0
C2622 C 0.27429 0.63252 0.91813 0.0
C2623 C 0.27033 0.65026 0.91715 0.0
C2624 C 0.26331 0.65874 0.93317 0.0
C2625 C 0.25994 0.64952 0.95011 0.0
C2626 C 0.26402 0.63192 0.95126 0.0
C2627 C 0.27128 0.62344 0.93538 0.0
H2628 H 0.25419 0.65604 0.96236 0.0
H2629 H 0.29976 0.55902 0.80905 0.0
H2630 H 0.11173 0.5966 0.67697 0.0
H2631 H 0.11139 0.57434 0.65179 0.0
H2632 H 0.16071 0.55529 0.67177 0.0
H2633 H 0.16136 0.57768 0.69653 0.0
H2634 H 0.16048 0.55448 0.63423 0.0
H2635 H 0.12116 0.53513 0.6834 0.0
H2636 H 0.09619 0.53759 0.7054 0.0
H2637 H 0.06207 0.54347 0.6569 0.0
H2638 H 0.08689 0.54124 0.63461 0.0
H2639 H 0.15921 0.47169 0.58965 0.0
H2640 H 0.15894 0.49489 0.61368 0.0
H2641 H 0.11073 0.51382 0.59048 0.0
H2642 H 0.11092 0.49066 0.56642 0.0
H2643 H 0.10999 0.51507 0.62904 0.0
H2644 H 0.15008 0.5335 0.57993 0.0
H2645 H 0.17547 0.53059 0.5586 0.0
H2646 H 0.20867 0.52582 0.60803 0.0
H2647 H 0.18343 0.52847 0.62966 0.0
C2648 C 0.12261 0.58781 0.67588 0.0
C2649 C 0.13656 0.589 0.68889 0.0
C2650 C 0.12233 0.57495 0.66154 0.0
C2651 C 0.13588 0.56283 0.66 0.0
C2652 C 0.15006 0.56439 0.67258 0.0
C2653 C 0.1504 0.57727 0.6868 0.0
C2654 C 0.13527 0.54835 0.6456 0.0
C2655 C 0.1495 0.54577 0.63329 0.0
C2656 C 0.12086 0.53705 0.644 0.0
C2657 C 0.1059 0.53819 0.65735 0.0
C2658 C 0.10834 0.53705 0.67744 0.0
C2659 C 0.09422 0.53839 0.68996 0.0
C2660 C 0.07755 0.54073 0.68255 0.0
C2661 C 0.07498 0.54167 0.66261 0.0
C2662 C 0.08907 0.54036 0.65002 0.0
C2663 C 0.14857 0.48082 0.58958 0.0
C2664 C 0.13515 0.4793 0.57592 0.0
C2665 C 0.14842 0.49412 0.60338 0.0
C2666 C 0.13496 0.50638 0.60377 0.0
C2667 C 0.1213 0.5046 0.59052 0.0
C2668 C 0.1214 0.49127 0.57677 0.0
C2669 C 0.13524 0.52119 0.61775 0.0
C2670 C 0.12095 0.52382 0.62998 0.0
C2671 C 0.14964 0.53247 0.61938 0.0
C2672 C 0.16485 0.53103 0.6064 0.0
C2673 C 0.16278 0.53172 0.58624 0.0
C2674 C 0.17715 0.53013 0.5741 0.0
C2675 C 0.19367 0.52798 0.58195 0.0
C2676 C 0.19586 0.52747 0.60197 0.0
C2677 C 0.18153 0.52903 0.61417 0.0
H2678 H 0.20477 0.52675 0.57253 0.0
H2679 H 0.06663 0.54177 0.69227 0.0
H2680 H 0.17348 0.59073 0.07744 0.0
H2681 H 0.19488 0.59117 0.10329 0.0
H2682 H 0.17628 0.64116 0.12164 0.0
H2683 H 0.15459 0.64077 0.09583 0.0
H2684 H 0.22137 0.61272 0.10919 0.0
H2685 H 0.18304 0.6448 0.17073 0.0
H2686 H 0.15286 0.64764 0.18197 0.0
H2687 H 0.14005 0.59907 0.15541 0.0
H2688 H 0.17019 0.59585 0.14423 0.0
H2689 H 0.27911 0.63593 0.18596 0.0
H2690 H 0.25692 0.6365 0.16075 0.0
H2691 H 0.22917 0.59573 0.18992 0.0
H2692 H 0.25137 0.59485 0.21494 0.0
H2693 H 0.20721 0.62013 0.1785 0.0
H2694 H 0.25389 0.58839 0.14977 0.0
H2695 H 0.28347 0.58286 0.13793 0.0
H2696 H 0.27909 0.62552 0.09845 0.0
H2697 H 0.24961 0.63156 0.11033 0.0
C2698 C 0.17371 0.60176 0.0871 0.0
C2699 C 0.16214 0.61568 0.08456 0.0
C2700 C 0.18611 0.60204 0.10182 0.0
C2701 C 0.18726 0.61617 0.11449 0.0
C2702 C 0.17558 0.63 0.11221 0.0
C2703 C 0.16315 0.62975 0.09742 0.0
C2704 C 0.2009 0.61643 0.1298 0.0
C2705 C 0.21828 0.61433 0.12435 0.0
C2706 C 0.19692 0.61852 0.14962 0.0
C2707 C 0.17882 0.62019 0.15649 0.0
C2708 C 0.17379 0.63471 0.16736 0.0
C2709 C 0.15669 0.63639 0.1737 0.0
C2710 C 0.14453 0.62357 0.16935 0.0
C2711 C 0.14946 0.60902 0.15871 0.0
C2712 C 0.16654 0.60727 0.15234 0.0
C2713 C 0.26838 0.62696 0.18697 0.0
C2714 C 0.26713 0.61535 0.20263 0.0
C2715 C 0.25565 0.62734 0.17251 0.0
C2716 C 0.24135 0.61608 0.1733 0.0
C2717 C 0.23999 0.60461 0.18898 0.0
C2718 C 0.25271 0.6042 0.20338 0.0
C2719 C 0.22776 0.61622 0.15792 0.0
C2720 C 0.21036 0.61852 0.16334 0.0
C2721 C 0.23173 0.614 0.13807 0.0
C2722 C 0.24962 0.61061 0.1312 0.0
C2723 C 0.25931 0.59676 0.13876 0.0
C2724 C 0.27606 0.5935 0.132 0.0
C2725 C 0.28319 0.60389 0.11752 0.0
C2726 C 0.27358 0.61754 0.10974 0.0
C2727 C 0.25686 0.62089 0.1165 0.0
H2728 H 0.29613 0.60133 0.11229 0.0
H2729 H 0.1313 0.6249 0.17426 0.0
H2730 H 0.16546 0.41461 0.83554 0.0
H2731 H 0.16596 0.43696 0.86057 0.0
H2732 H 0.1106 0.43287 0.8667 0.0
H2733 H 0.10998 0.41037 0.84181 0.0
H2734 H 0.12224 0.46725 0.86272 0.0
H2735 H 0.13569 0.4169 0.90103 0.0
H2736 H 0.15208 0.39053 0.90937 0.0
H2737 H 0.19869 0.42047 0.91443 0.0
H2738 H 0.18262 0.447 0.90585 0.0
H2739 H 0.11119 0.5178 0.94761 0.0
H2740 H 0.11135 0.49507 0.92309 0.0
H2741 H 0.16716 0.49511 0.92328 0.0
H2742 H 0.1671 0.51752 0.94825 0.0
H2743 H 0.15578 0.46287 0.92358 0.0
H2744 H 0.14389 0.51288 0.88612 0.0
H2745 H 0.1292 0.53978 0.8763 0.0
H2746 H 0.08188 0.51173 0.86752 0.0
H2747 H 0.09619 0.48466 0.87773 0.0
C2748 C 0.1534 0.41826 0.84239 0.0
C2749 C 0.13769 0.41057 0.83666 0.0
C2750 C 0.15372 0.43108 0.85671 0.0
C2751 C 0.13832 0.43664 0.86556 0.0
C2752 C 0.12265 0.42883 0.86008 0.0
C2753 C 0.12234 0.41585 0.84593 0.0
C2754 C 0.13852 0.4509 0.88013 0.0
C2755 C 0.12934 0.4662 0.87618 0.0
C2756 C 0.14832 0.44982 0.89736 0.0
C2757 C 0.15798 0.4339 0.90261 0.0
C2758 C 0.14947 0.41784 0.90377 0.0
C2759 C 0.15869 0.40287 0.90857 0.0
C2760 C 0.17642 0.40382 0.91238 0.0
C2761 C 0.18496 0.41975 0.91145 0.0
C2762 C 0.17579 0.43476 0.90663 0.0
C2763 C 0.12353 0.51296 0.94251 0.0
C2764 C 0.13914 0.51957 0.95 0.0
C2765 C 0.12359 0.50003 0.9283 0.0
C2766 C 0.13927 0.49339 0.92112 0.0
C2767 C 0.15488 0.49999 0.92851 0.0
C2768 C 0.15482 0.51296 0.94269 0.0
C2769 C 0.13935 0.47926 0.90632 0.0
C2770 C 0.14862 0.46398 0.91017 0.0
C2771 C 0.12983 0.48047 0.88885 0.0
C2772 C 0.12108 0.49675 0.88292 0.0
C2773 C 0.1303 0.51246 0.88231 0.0
C2774 C 0.12205 0.52774 0.87662 0.0
C2775 C 0.10461 0.52748 0.8713 0.0
C2776 C 0.09538 0.51192 0.87168 0.0
C2777 C 0.10356 0.4966 0.87742 0.0
H2778 H 0.09827 0.53933 0.86685 0.0
H2779 H 0.18354 0.39222 0.9161 0.0
H2780 H 0.32281 0.40645 0.57272 0.0
H2781 H 0.30208 0.40619 0.59915 0.0
H2782 H 0.33188 0.36666 0.62802 0.0
H2783 H 0.35245 0.36638 0.60103 0.0
H2784 H 0.29983 0.35871 0.63112 0.0
H2785 H 0.33034 0.41123 0.6434 0.0
H2786 H 0.34307 0.43973 0.63591 0.0
H2787 H 0.29272 0.45965 0.62193 0.0
H2788 H 0.2797 0.43119 0.62909 0.0
H2789 H 0.25138 0.36666 0.71838 0.0
H2790 H 0.27412 0.36658 0.69387 0.0
H2791 H 0.24533 0.40376 0.66029 0.0
H2792 H 0.22251 0.40392 0.6848 0.0
H2793 H 0.27831 0.41277 0.66134 0.0
H2794 H 0.24796 0.35983 0.64781 0.0
H2795 H 0.2354 0.3312 0.65509 0.0
H2796 H 0.28557 0.31211 0.67119 0.0
H2797 H 0.29839 0.34071 0.66426 0.0
C2798 C 0.32515 0.39784 0.58479 0.0
C2799 C 0.33948 0.38658 0.58479 0.0
C2800 C 0.31326 0.39777 0.60004 0.0
C2801 C 0.3155 0.38671 0.61598 0.0
C2802 C 0.32983 0.37543 0.61603 0.0
C2803 C 0.34164 0.37532 0.60059 0.0
C2804 C 0.30248 0.38647 0.63206 0.0
C2805 C 0.29532 0.37055 0.63786 0.0
C2806 C 0.29629 0.40186 0.64086 0.0
C2807 C 0.30406 0.41903 0.63665 0.0
C2808 C 0.32199 0.42165 0.63861 0.0
C2809 C 0.32926 0.43781 0.63444 0.0
C2810 C 0.31872 0.45148 0.62841 0.0
C2811 C 0.30087 0.44904 0.62659 0.0
C2812 C 0.29354 0.43291 0.63073 0.0
C2813 C 0.24974 0.37467 0.70568 0.0
C2814 C 0.23498 0.38524 0.70361 0.0
C2815 C 0.26282 0.37462 0.69163 0.0
C2816 C 0.26145 0.38501 0.67502 0.0
C2817 C 0.24677 0.39563 0.67294 0.0
C2818 C 0.23371 0.39573 0.68703 0.0
C2819 C 0.27541 0.38507 0.65999 0.0
C2820 C 0.2828 0.40096 0.65451 0.0
C2821 C 0.2818 0.36965 0.65147 0.0
C2822 C 0.2741 0.35247 0.65573 0.0
C2823 C 0.25629 0.34957 0.65307 0.0
C2824 C 0.24912 0.33334 0.6571 0.0
C2825 C 0.25967 0.31986 0.66365 0.0
C2826 C 0.27741 0.32257 0.66615 0.0
C2827 C 0.28463 0.33879 0.66217 0.0
H2828 H 0.2541 0.3073 0.66675 0.0
H2829 H 0.32437 0.46398 0.62518 0.0
H2830 H 0.3361 0.48095 0.44378 0.0
H2831 H 0.33633 0.50342 0.41886 0.0
H2832 H 0.39083 0.51167 0.42864 0.0
H2833 H 0.39067 0.48926 0.4536 0.0
H2834 H 0.37457 0.54186 0.42596 0.0
H2835 H 0.3742 0.48876 0.39011 0.0
H2836 H 0.36272 0.46018 0.38082 0.0
H2837 H 0.31625 0.48403 0.3597 0.0
H2838 H 0.32704 0.51268 0.36976 0.0
H2839 H 0.39252 0.59261 0.34251 0.0
H2840 H 0.39159 0.57048 0.36766 0.0
H2841 H 0.33754 0.5616 0.35573 0.0
H2842 H 0.33845 0.58345 0.3302 0.0
H2843 H 0.35333 0.53161 0.35939 0.0
H2844 H 0.35189 0.58365 0.39706 0.0
H2845 H 0.36179 0.61243 0.40781 0.0
H2846 H 0.41057 0.59073 0.4251 0.0
H2847 H 0.40102 0.56185 0.41422 0.0
C2848 C 0.34819 0.48739 0.44049 0.0
C2849 C 0.36338 0.48319 0.45073 0.0
C2850 C 0.3483 0.5003 0.42623 0.0
C2851 C 0.36364 0.50921 0.42165 0.0
C2852 C 0.37881 0.50507 0.43187 0.0
C2853 C 0.37869 0.49223 0.44619 0.0
C2854 C 0.36391 0.52299 0.40642 0.0
C2855 C 0.37013 0.53952 0.41133 0.0
C2856 C 0.35769 0.52015 0.3874 0.0
C2857 C 0.35136 0.50291 0.38096 0.0
C2858 C 0.36143 0.48792 0.38372 0.0
C2859 C 0.35502 0.47169 0.37837 0.0
C2860 C 0.33877 0.47029 0.36969 0.0
C2861 C 0.32884 0.48512 0.36645 0.0
C2862 C 0.33505 0.50136 0.37208 0.0
C2863 C 0.38034 0.58615 0.34536 0.0
C2864 C 0.36553 0.58998 0.33429 0.0
C2865 C 0.37983 0.57344 0.35983 0.0
C2866 C 0.36445 0.56435 0.36382 0.0
C2867 C 0.34959 0.56834 0.35298 0.0
C2868 C 0.35011 0.58098 0.33844 0.0
C2869 C 0.36396 0.55048 0.37896 0.0
C2870 C 0.35774 0.53394 0.37402 0.0
C2871 C 0.37006 0.55329 0.398 0.0
C2872 C 0.3758 0.57062 0.40466 0.0
C2873 C 0.36477 0.58504 0.40303 0.0
C2874 C 0.37031 0.60137 0.40917 0.0
C2875 C 0.38681 0.60342 0.41709 0.0
C2876 C 0.39779 0.58913 0.41894 0.0
C2877 C 0.39232 0.57277 0.41281 0.0
H2878 H 0.39108 0.61607 0.42183 0.0
H2879 H 0.3339 0.45772 0.36543 0.0
H2880 H 0.10232 0.26359 0.4219 0.0
H2881 H 0.10573 0.24027 0.39846 0.0
H2882 H 0.15477 0.26161 0.38067 0.0
H2883 H 0.15116 0.28542 0.40367 0.0
H2884 H 0.13662 0.25141 0.34976 0.0
H2885 H 0.15207 0.22549 0.41037 0.0
H2886 H 0.14794 0.21732 0.44448 0.0
H2887 H 0.10259 0.18819 0.42934 0.0
H2888 H 0.10632 0.19639 0.39516 0.0
H2889 H 0.16606 0.17695 0.29823 0.0
H2890 H 0.16253 0.20126 0.32061 0.0
H2891 H 0.11452 0.17926 0.34086 0.0
H2892 H 0.11858 0.15458 0.31916 0.0
H2893 H 0.13229 0.19005 0.3704 0.0
H2894 H 0.11645 0.21587 0.31004 0.0
H2895 H 0.12011 0.2241 0.27589 0.0
H2896 H 0.16552 0.25341 0.29036 0.0
H2897 H 0.16225 0.24516 0.32459 0.0
C2898 C 0.11377 0.2635 0.41288 0.0
C2899 C 0.12645 0.27651 0.41479 0.0
C2900 C 0.1158 0.24997 0.39958 0.0
C2901 C 0.13063 0.24894 0.38788 0.0
C2902 C 0.14323 0.262 0.38954 0.0
C2903 C 0.14121 0.27557 0.40287 0.0
C2904 C 0.13295 0.23427 0.37394 0.0
C2905 C 0.13591 0.23799 0.35434 0.0
C2906 C 0.13162 0.21669 0.3797 0.0
C2907 C 0.12939 0.21169 0.40023 0.0
C2908 C 0.14115 0.21745 0.41433 0.0
C2909 C 0.13889 0.21279 0.43368 0.0
C2910 C 0.12499 0.20228 0.43908 0.0
C2911 C 0.11334 0.19635 0.42514 0.0
C2912 C 0.11553 0.20099 0.40577 0.0
C2913 C 0.15467 0.1774 0.30733 0.0
C2914 C 0.14227 0.16409 0.30646 0.0
C2915 C 0.1526 0.19137 0.32009 0.0
C2916 C 0.13805 0.19242 0.33226 0.0
C2917 C 0.12576 0.17898 0.33152 0.0
C2918 C 0.12789 0.16498 0.31882 0.0
C2919 C 0.1359 0.20716 0.34617 0.0
C2920 C 0.13299 0.20345 0.36578 0.0
C2921 C 0.13722 0.22475 0.34041 0.0
C2922 C 0.1392 0.22975 0.31985 0.0
C2923 C 0.12729 0.22396 0.30592 0.0
C2924 C 0.12928 0.22865 0.28655 0.0
C2925 C 0.14307 0.23924 0.28095 0.0
C2926 C 0.15486 0.24519 0.29472 0.0
C2927 C 0.15294 0.24053 0.31411 0.0
H2928 H 0.14459 0.24285 0.26595 0.0
H2929 H 0.12327 0.19869 0.45406 0.0
H2930 H 0.07795 0.87 0.54472 0.0
H2931 H 0.05341 0.86308 0.56613 0.0
H2932 H 0.06968 0.90327 0.60535 0.0
H2933 H 0.09399 0.91007 0.58431 0.0
H2934 H 0.06175 0.87426 0.62474 0.0
H2935 H 0.03539 0.90882 0.57417 0.0
H2936 H 0.02751 0.91548 0.54046 0.0
H2937 H 1.00017 0.86721 0.53627 0.0
H2938 H 0.00808 0.86017 0.56989 0.0
H2939 H 0.99039 0.88943 0.68544 0.0
H2940 H 0.01361 0.89181 0.66165 0.0
H2941 H 0.98801 0.85406 0.62572 0.0
H2942 H 0.96446 0.85201 0.64935 0.0
H2943 H 1.00057 0.87809 0.60355 0.0
H2944 H 0.02474 0.8441 0.65432 0.0
H2945 H 0.03263 0.83664 0.6878 0.0
H2946 H 0.06443 0.88213 0.69138 0.0
H2947 H 0.05654 0.88999 0.658 0.0
C2948 C 0.07624 0.87733 0.55791 0.0
C2949 C 0.08791 0.89061 0.56277 0.0
C2950 C 0.06219 0.87341 0.57011 0.0
C2951 C 0.05959 0.88271 0.58738 0.0
C2952 C 0.07135 0.89586 0.5922 0.0
C2953 C 0.08526 0.89979 0.58006 0.0
C2954 C 0.04478 0.87896 0.60067 0.0
C2955 C 0.04837 0.87522 0.62012 0.0
C2956 C 0.02728 0.87963 0.59461 0.0
C2957 C 0.02249 0.88389 0.57445 0.0
C2958 C 0.02781 0.89957 0.566 0.0
C2959 C 0.02332 0.90342 0.54692 0.0
C2960 C 0.01339 0.89175 0.53621 0.0
C2961 C 0.00789 0.87622 0.54457 0.0
C2962 C 0.01236 0.8723 0.56364 0.0
C2963 C 0.98973 0.88158 0.67252 0.0
C2964 C 0.97559 0.87045 0.66939 0.0
C2965 C 0.00307 0.8829 0.6589 0.0
C2966 C 0.00287 0.87284 0.64195 0.0
C2967 C 0.98859 0.86194 0.63864 0.0
C2968 C 0.9751 0.86078 0.65217 0.0
C2969 C 0.01753 0.87379 0.62779 0.0
C2970 C 0.01393 0.87695 0.60818 0.0
C2971 C 0.03507 0.87244 0.63365 0.0
C2972 C 0.03994 0.8677 0.6537 0.0
C2973 C 0.03333 0.85257 0.66229 0.0
C2974 C 0.03781 0.84826 0.68125 0.0
C2975 C 0.049 0.85892 0.69173 0.0
C2976 C 0.05576 0.87389 0.68325 0.0
C2977 C 0.0513 0.87827 0.66431 0.0
H2978 H 0.05245 0.85557 0.7064 0.0
H2979 H 0.00993 0.89476 0.52144 0.0
H2980 H 0.38039 0.82652 0.79183 0.0
H2981 H 0.38642 0.80088 0.812 0.0
H2982 H 0.34865 0.81833 0.8535 0.0
H2983 H 0.34256 0.84359 0.83356 0.0
H2984 H 0.37874 0.80794 0.87092 0.0
H2985 H 0.33887 0.78647 0.82264 0.0
H2986 H 0.32922 0.78032 0.78942 0.0
H2987 H 0.37419 0.74872 0.78012 0.0
H2988 H 0.38422 0.75488 0.81324 0.0
H2989 H 0.35868 0.73649 0.92954 0.0
H2990 H 0.35729 0.76019 0.90626 0.0
H2991 H 0.39336 0.7334 0.86935 0.0
H2992 H 0.39441 0.7093 0.89236 0.0
H2993 H 0.368 0.74799 0.84817 0.0
H2994 H 0.40678 0.7672 0.89706 0.0
H2995 H 0.41685 0.7733 0.93014 0.0
H2996 H 0.37508 0.80928 0.93805 0.0
H2997 H 0.3646 0.80321 0.9051 0.0
C2998 C 0.3734 0.82482 0.80525 0.0
C2999 C 0.36095 0.83704 0.81105 0.0
C3000 C 0.37682 0.81017 0.81675 0.0
C3001 C 0.36793 0.80762 0.83428 0.0
C3002 C 0.3557 0.81998 0.8401 0.0
C3003 C 0.35218 0.83442 0.82861 0.0
C3004 C 0.37111 0.79218 0.84676 0.0
C3005 C 0.37629 0.79484 0.86596 0.0
C3006 C 0.36842 0.77502 0.8402 0.0
C3007 C 0.36241 0.77131 0.82032 0.0
C3008 C 0.34678 0.77834 0.81345 0.0
C3009 C 0.34123 0.77483 0.79465 0.0
C3010 C 0.35112 0.76419 0.78264 0.0
C3011 C 0.36656 0.75699 0.78943 0.0
C3012 C 0.37219 0.76049 0.80821 0.0
C3013 C 0.36615 0.73546 0.91636 0.0
C3014 C 0.3767 0.72092 0.91292 0.0
C3015 C 0.36549 0.74916 0.90312 0.0
C3016 C 0.37544 0.74878 0.88613 0.0
C3017 C 0.38565 0.7341 0.88238 0.0
C3018 C 0.38633 0.72036 0.89565 0.0
C3019 C 0.37524 0.76379 0.87249 0.0
C3020 C 0.37065 0.76106 0.85309 0.0
C3021 C 0.37856 0.78092 0.87882 0.0
C3022 C 0.38482 0.78463 0.89865 0.0
C3023 C 0.39966 0.77631 0.9059 0.0
C3024 C 0.40546 0.77978 0.92462 0.0
C3025 C 0.39659 0.79164 0.9362 0.0
C3026 C 0.38193 0.80008 0.92907 0.0
C3027 C 0.37606 0.79665 0.91036 0.0
H3028 H 0.4011 0.79431 0.95069 0.0
H3029 H 0.34679 0.76148 0.76809 0.0
H3030 H 0.40407 0.09201 0.08304 0.0
H3031 H 0.42825 0.09768 0.1048 0.0
H3032 H 0.44488 0.13987 0.0684 0.0
H3033 H 0.42076 0.13392 0.04621 0.0
H3034 H 0.4723 0.12103 0.08032 0.0
H3035 H 0.42399 0.14777 0.1109 0.0
H3036 H 0.39422 0.14955 0.12355 0.0
H3037 H 0.40533 0.10896 0.16411 0.0
H3038 H 0.43511 0.10674 0.15148 0.0
H3039 H 0.53068 0.15272 0.153 0.0
H3040 H 0.50736 0.15026 0.12923 0.0
H3041 H 0.48655 0.10649 0.16015 0.0
H3042 H 0.50988 0.10869 0.18378 0.0
H3043 H 0.46121 0.12889 0.15033 0.0
H3044 H 0.50929 0.10144 0.11799 0.0
H3045 H 0.53897 0.10002 0.10495 0.0
H3046 H 0.52817 0.14309 0.06761 0.0
H3047 H 0.49848 0.14492 0.08062 0.0
C3048 C 0.41287 0.1025 0.07963 0.0
C3049 C 0.41041 0.11261 0.06297 0.0
C3050 C 0.42667 0.10579 0.09216 0.0
C3051 C 0.4383 0.11939 0.08847 0.0
C3052 C 0.43606 0.12935 0.07163 0.0
C3053 C 0.42223 0.126 0.05901 0.0
C3054 C 0.45268 0.1231 0.10229 0.0
C3055 C 0.46985 0.12305 0.09558 0.0
C3056 C 0.44958 0.12553 0.12228 0.0
C3057 C 0.43176 0.127 0.13014 0.0
C3058 C 0.42006 0.13915 0.12244 0.0
C3059 C 0.40319 0.14025 0.12961 0.0
C3060 C 0.39788 0.12935 0.1446 0.0
C3061 C 0.40946 0.11738 0.15249 0.0
C3062 C 0.42635 0.11621 0.14534 0.0
C3063 C 0.52127 0.14243 0.15464 0.0
C3064 C 0.52223 0.13092 0.17039 0.0
C3065 C 0.50788 0.14108 0.14103 0.0
C3066 C 0.49518 0.12813 0.14279 0.0
C3067 C 0.4961 0.11665 0.15849 0.0
C3068 C 0.50947 0.11798 0.17206 0.0
C3069 C 0.48084 0.12652 0.12842 0.0
C3070 C 0.46366 0.127 0.13505 0.0
C3071 C 0.48394 0.12461 0.10836 0.0
C3072 C 0.50173 0.12343 0.10042 0.0
C3073 C 0.51329 0.11069 0.1071 0.0
C3074 C 0.5301 0.10979 0.0997 0.0
C3075 C 0.53546 0.12149 0.0855 0.0
C3076 C 0.524 0.13406 0.07863 0.0
C3077 C 0.50718 0.13502 0.086 0.0
H3078 H 0.54849 0.12078 0.0798 0.0
H3079 H 0.3848 0.13021 0.15012 0.0
H3080 H 0.1652 0.84461 0.19217 0.0
H3081 H 0.16048 0.81963 0.17121 0.0
H3082 H 0.11508 0.80589 0.20399 0.0
H3083 H 0.12005 0.83075 0.2255 0.0
H3084 H 0.15913 0.78445 0.17988 0.0
H3085 H 0.08519 0.79101 0.16897 0.0
H3086 H 0.0629 0.81396 0.16855 0.0
H3087 H 0.10127 0.85144 0.15229 0.0
H3088 H 0.12369 0.82874 0.15236 0.0
H3089 H 0.13035 0.70866 0.13129 0.0
H3090 H 0.13241 0.73251 0.15439 0.0
H3091 H 0.12352 0.76921 0.10852 0.0
H3092 H 0.1208 0.74544 0.08547 0.0
H3093 H 0.10624 0.77916 0.1397 0.0
H3094 H 0.16451 0.76118 0.12614 0.0
H3095 H 0.18872 0.7405 0.12352 0.0
H3096 H 0.18487 0.72934 0.18411 0.0
H3097 H 0.16047 0.7498 0.18703 0.0
C3098 C 0.15422 0.83626 0.195 0.0
C3099 C 0.14292 0.83975 0.21044 0.0
C3100 C 0.15158 0.82194 0.18302 0.0
C3101 C 0.13741 0.81089 0.18595 0.0
C3102 C 0.12605 0.8143 0.20137 0.0
C3103 C 0.12887 0.82853 0.21362 0.0
C3104 C 0.13458 0.79594 0.1727 0.0
C3105 C 0.14749 0.7832 0.17124 0.0
C3106 C 0.11959 0.79449 0.16106 0.0
C3107 C 0.10614 0.80819 0.1609 0.0
C3108 C 0.08884 0.80415 0.16528 0.0
C3109 C 0.07619 0.81711 0.16509 0.0
C3110 C 0.08068 0.83414 0.16042 0.0
C3111 C 0.09782 0.83826 0.15596 0.0
C3112 C 0.11051 0.82535 0.15611 0.0
C3113 C 0.12862 0.72178 0.1261 0.0
C3114 C 0.12553 0.72504 0.10639 0.0
C3115 C 0.12995 0.73545 0.13935 0.0
C3116 C 0.12832 0.75275 0.13324 0.0
C3117 C 0.12487 0.75603 0.11366 0.0
C3118 C 0.12352 0.74238 0.10041 0.0
C3119 C 0.13072 0.76745 0.14706 0.0
C3120 C 0.11776 0.7802 0.14858 0.0
C3121 C 0.14586 0.76914 0.15847 0.0
C3122 C 0.16055 0.75687 0.15676 0.0
C3123 C 0.16874 0.75422 0.13888 0.0
C3124 C 0.18251 0.74255 0.13734 0.0
C3125 C 0.1883 0.73357 0.15363 0.0
C3126 C 0.18035 0.73628 0.1715 0.0
C3127 C 0.16656 0.74791 0.17311 0.0
H3128 H 0.19896 0.72455 0.15241 0.0
H3129 H 0.07089 0.84414 0.16014 0.0
H3130 H 0.54131 0.86114 0.38107 0.0
H3131 H 0.5181 0.86307 0.40504 0.0
H3132 H 0.48469 0.88644 0.36251 0.0
H3133 H 0.50777 0.88454 0.33851 0.0
H3134 H 0.4827 0.90357 0.39565 0.0
H3135 H 0.48062 0.84322 0.37706 0.0
H3136 H 0.49283 0.81401 0.37238 0.0
H3137 H 0.50504 0.811 0.43277 0.0
H3138 H 0.49309 0.84029 0.43775 0.0
H3139 H 0.40133 0.89892 0.43809 0.0
H3140 H 0.42617 0.89388 0.41722 0.0
H3141 H 0.45292 0.86867 0.46415 0.0
H3142 H 0.42744 0.87304 0.48502 0.0
H3143 H 0.46031 0.85264 0.43152 0.0
H3144 H 0.46142 0.912 0.45083 0.0
H3145 H 0.44966 0.94132 0.45604 0.0
H3146 H 0.44034 0.94664 0.39522 0.0
H3147 H 0.45183 0.91726 0.38967 0.0
C3148 C 0.52897 0.86656 0.37676 0.0
C3149 C 0.52646 0.8727 0.3578 0.0
C3150 C 0.51568 0.86765 0.39051 0.0
C3151 C 0.49951 0.87475 0.3856 0.0
C3152 C 0.49702 0.88095 0.36672 0.0
C3153 C 0.51029 0.87991 0.353 0.0
C3154 C 0.48524 0.8761 0.40009 0.0
C3155 C 0.4777 0.89238 0.40332 0.0
C3156 C 0.47906 0.86166 0.41071 0.0
C3157 C 0.48612 0.84401 0.40773 0.0
C3158 C 0.48602 0.83638 0.38931 0.0
C3159 C 0.49287 0.8198 0.38661 0.0
C3160 C 0.49975 0.81067 0.40226 0.0
C3161 C 0.49973 0.81809 0.42065 0.0
C3162 C 0.49291 0.83467 0.42343 0.0
C3163 C 0.41246 0.8922 0.44398 0.0
C3164 C 0.41254 0.88659 0.46328 0.0
C3165 C 0.42673 0.88941 0.43203 0.0
C3166 C 0.44173 0.88139 0.4392 0.0
C3167 C 0.4416 0.87507 0.45829 0.0
C3168 C 0.42707 0.87757 0.47022 0.0
C3169 C 0.4575 0.88007 0.42674 0.0
C3170 C 0.46537 0.86385 0.42394 0.0
C3171 C 0.46412 0.89461 0.4166 0.0
C3172 C 0.45739 0.91238 0.41986 0.0
C3173 C 0.45678 0.91939 0.43858 0.0
C3174 C 0.45017 0.93602 0.44159 0.0
C3175 C 0.44423 0.94582 0.42598 0.0
C3176 C 0.44494 0.93903 0.4073 0.0
C3177 C 0.45152 0.9224 0.40421 0.0
H3178 H 0.4391 0.95869 0.42834 0.0
H3179 H 0.50506 0.79784 0.40014 0.0
H3180 H 0.35146 0.2725 0.60387 0.0
H3181 H 0.34939 0.24906 0.62735 0.0
H3182 H 0.40138 0.25969 0.64658 0.0
H3183 H 0.40386 0.28272 0.62245 0.0
H3184 H 0.39686 0.22574 0.64398 0.0
H3185 H 0.36537 0.27188 0.67349 0.0
H3186 H 0.34372 0.29527 0.6755 0.0
H3187 H 0.30291 0.25853 0.66595 0.0
H3188 H 0.32433 0.23494 0.6636 0.0
H3189 H 0.38541 0.17129 0.72828 0.0
H3190 H 0.39048 0.19703 0.70803 0.0
H3191 H 0.34256 0.18748 0.67799 0.0
H3192 H 0.33767 0.16171 0.69769 0.0
H3193 H 0.34678 0.22226 0.68865 0.0
H3194 H 0.3784 0.17685 0.65661 0.0
H3195 H 0.39988 0.1533 0.65452 0.0
H3196 H 0.44041 0.18883 0.6696 0.0
H3197 H 0.41911 0.21259 0.67203 0.0
C3198 C 0.36255 0.26981 0.61294 0.0
C3199 C 0.37784 0.27963 0.61116 0.0
C3200 C 0.36127 0.25647 0.62658 0.0
C3201 C 0.37513 0.25267 0.63904 0.0
C3202 C 0.39045 0.26236 0.63726 0.0
C3203 C 0.39178 0.27569 0.62354 0.0
C3204 C 0.37362 0.2385 0.65372 0.0
C3205 C 0.38607 0.22519 0.65399 0.0
C3206 C 0.35944 0.23752 0.66668 0.0
C3207 C 0.34648 0.25166 0.66821 0.0
C3208 C 0.35179 0.2688 0.67168 0.0
C3209 C 0.33955 0.2821 0.6729 0.0
C3210 C 0.32195 0.2784 0.67081 0.0
C3211 C 0.31655 0.26138 0.66755 0.0
C3212 C 0.32873 0.24804 0.66629 0.0
C3213 C 0.37601 0.17468 0.71732 0.0
C3214 C 0.36121 0.16438 0.7145 0.0
C3215 C 0.3789 0.18938 0.70577 0.0
C3216 C 0.36691 0.19418 0.69143 0.0
C3217 C 0.35197 0.1841 0.68896 0.0
C3218 C 0.34923 0.16932 0.70023 0.0
C3219 C 0.36987 0.2095 0.6787 0.0
C3220 C 0.35767 0.22299 0.6788 0.0
C3221 C 0.38429 0.21067 0.66616 0.0
C3222 C 0.39714 0.19646 0.66469 0.0
C3223 C 0.39187 0.17962 0.65965 0.0
C3224 C 0.40401 0.16624 0.65837 0.0
C3225 C 0.42149 0.16957 0.66193 0.0
C3226 C 0.42686 0.18628 0.66684 0.0
C3227 C 0.41477 0.19971 0.66815 0.0
H3228 H 0.43086 0.15922 0.6608 0.0
H3229 H 0.3125 0.28871 0.67175 0.0
H3230 H 0.09938 0.09565 0.93411 0.0
H3231 H 0.07421 0.10035 0.91328 0.0
H3232 H 0.05007 0.13089 0.95787 0.0
H3233 H 0.07546 0.12645 0.97873 0.0
H3234 H 0.02775 0.10559 0.94127 0.0
H3235 H 0.06419 0.15194 0.92056 0.0
H3236 H 0.09115 0.16574 0.90941 0.0
H3237 H 0.09143 0.13327 0.85913 0.0
H3238 H 0.06442 0.11924 0.87 0.0
H3239 H 0.95883 0.13538 0.8809 0.0
H3240 H 0.98348 0.13381 0.903 0.0
H3241 H 0.01364 0.10825 0.85908 0.0
H3242 H 0.98925 0.11025 0.83671 0.0
H3243 H 0.03263 0.13257 0.87647 0.0
H3244 H 0.99616 0.0859 0.89765 0.0
H3245 H 0.9691 0.07234 0.90895 0.0
H3246 H 0.96899 0.10531 0.95885 0.0
H3247 H 0.99595 0.11923 0.9477 0.0
C3248 C 0.08875 0.10344 0.93947 0.0
C3249 C 0.0894 0.11067 0.95808 0.0
C3250 C 0.07438 0.10615 0.92751 0.0
C3251 C 0.06023 0.11601 0.93396 0.0
C3252 C 0.06082 0.12323 0.95258 0.0
C3253 C 0.07535 0.12074 0.96446 0.0
C3254 C 0.04478 0.11841 0.92127 0.0
C3255 C 0.02874 0.11176 0.92724 0.0
C3256 C 0.04611 0.12611 0.90278 0.0
C3257 C 0.06237 0.13443 0.89619 0.0
C3258 C 0.07007 0.14764 0.9072 0.0
C3259 C 0.08535 0.15553 0.90092 0.0
C3260 C 0.09306 0.15032 0.88363 0.0
C3261 C 0.08545 0.13727 0.87254 0.0
C3262 C 0.07013 0.12938 0.87872 0.0
C3263 C 0.97073 0.1295 0.87587 0.0
C3264 C 0.97195 0.1229 0.85696 0.0
C3265 C 0.9848 0.12847 0.88862 0.0
C3266 C 1.00046 0.12075 0.88284 0.0
C3267 C 0.00174 0.11423 0.86396 0.0
C3268 C 0.98767 0.11523 0.85121 0.0
C3269 C 0.01554 0.1196 0.89636 0.0
C3270 C 0.03157 0.12648 0.89054 0.0
C3271 C 0.01417 0.1121 0.91499 0.0
C3272 C 0.99797 0.10374 0.92173 0.0
C3273 C 0.99029 0.09036 0.91095 0.0
C3274 C 0.97498 0.08259 0.91734 0.0
C3275 C 0.9673 0.088 0.93457 0.0
C3276 C 0.97494 0.10116 0.94548 0.0
C3277 C 0.99024 0.10898 0.93914 0.0
H3278 H 0.95545 0.08196 0.9395 0.0
H3279 H 0.1049 0.15644 0.8788 0.0
H3280 H 0.88382 0.82788 0.72845 0.0
H3281 H 0.88847 0.80251 0.70765 0.0
H3282 H 0.84711 0.81954 0.67038 0.0
H3283 H 0.84247 0.84477 0.69099 0.0
H3284 H 0.84421 0.78551 0.67816 0.0
H3285 H 0.88973 0.824 0.65693 0.0
H3286 H 0.91547 0.84252 0.6609 0.0
H3287 H 0.94405 0.79935 0.68352 0.0
H3288 H 0.91843 0.78057 0.67973 0.0
H3289 H 0.85671 0.73331 0.59536 0.0
H3290 H 0.85377 0.75716 0.6183 0.0
H3291 H 0.89834 0.73858 0.64958 0.0
H3292 H 0.90147 0.7148 0.62647 0.0
H3293 H 0.90035 0.77227 0.64676 0.0
H3294 H 0.85579 0.73329 0.66662 0.0
H3295 H 0.8303 0.71439 0.66279 0.0
H3296 H 0.79997 0.75788 0.64412 0.0
H3297 H 0.82535 0.77702 0.64759 0.0
C3298 C 0.8758 0.82623 0.71576 0.0
C3299 C 0.8628 0.83837 0.71136 0.0
C3300 C 0.87848 0.81175 0.70385 0.0
C3301 C 0.8682 0.8091 0.68732 0.0
C3302 C 0.8552 0.82121 0.68302 0.0
C3303 C 0.85259 0.83568 0.69482 0.0
C3304 C 0.87066 0.79365 0.6746 0.0
C3305 C 0.85645 0.78273 0.67114 0.0
C3306 C 0.88674 0.78963 0.66585 0.0
C3307 C 0.90211 0.80093 0.66823 0.0
C3308 C 0.90146 0.81849 0.6629 0.0
C3309 C 0.91604 0.82903 0.66508 0.0
C3310 C 0.93137 0.82214 0.67254 0.0
C3311 C 0.93216 0.80468 0.67777 0.0
C3312 C 0.91763 0.79407 0.67557 0.0
C3313 C 0.86578 0.73417 0.60724 0.0
C3314 C 0.87928 0.72204 0.60906 0.0
C3315 C 0.86409 0.74785 0.6204 0.0
C3316 C 0.87568 0.74964 0.63595 0.0
C3317 C 0.88921 0.73757 0.63776 0.0
C3318 C 0.89099 0.72395 0.6245 0.0
C3319 C 0.87381 0.76421 0.65009 0.0
C3320 C 0.88812 0.77496 0.65385 0.0
C3321 C 0.85783 0.76802 0.65924 0.0
C3322 C 0.84252 0.75656 0.6572 0.0
C3323 C 0.84372 0.73881 0.66156 0.0
C3324 C 0.82928 0.72805 0.65948 0.0
C3325 C 0.81354 0.73492 0.65317 0.0
C3326 C 0.81218 0.75257 0.64898 0.0
C3327 C 0.82658 0.76338 0.65103 0.0
H3328 H 0.80238 0.72657 0.65157 0.0
H3329 H 0.94267 0.83029 0.6742 0.0
H3330 H 0.03866 0.14319 0.37959 0.0
H3331 H 0.01525 0.14171 0.40335 0.0
H3332 H 0.982 0.1181 0.36088 0.0
H3333 H 0.00518 0.11992 0.33693 0.0
H3334 H 0.96487 0.14284 0.38062 0.0
H3335 H 0.00118 0.09418 0.39672 0.0
H3336 H 0.02849 0.07966 0.40552 0.0
H3337 H 0.03187 0.11048 0.45696 0.0
H3338 H 0.00468 0.12535 0.44832 0.0
H3339 H 0.90143 0.10022 0.43663 0.0
H3340 H 0.92596 0.10758 0.41597 0.0
H3341 H 0.94911 0.13639 0.46257 0.0
H3342 H 0.92417 0.12932 0.48339 0.0
H3343 H 0.97215 0.11207 0.44301 0.0
H3344 H 0.93544 0.15967 0.42818 0.0
H3345 H 0.90829 0.17455 0.41969 0.0
H3346 H 0.90562 0.14598 0.36661 0.0
H3347 H 0.93282 0.1309 0.37481 0.0
C3348 C 0.02634 0.13778 0.37524 0.0
C3349 C 0.02389 0.13163 0.35629 0.0
C3350 C 0.01298 0.13681 0.38892 0.0
C3351 C 0.99684 0.12965 0.38401 0.0
C3352 C 0.99431 0.12365 0.36508 0.0
C3353 C 0.00767 0.12455 0.35142 0.0
C3354 C 0.98255 0.12841 0.39851 0.0
C3355 C 0.96646 0.13597 0.39417 0.0
C3356 C 0.98467 0.11995 0.41654 0.0
C3357 C 0.001 0.11102 0.42176 0.0
C3358 C 0.00783 0.09796 0.40982 0.0
C3359 C 0.02327 0.08965 0.4148 0.0
C3360 C 0.03194 0.09418 0.43176 0.0
C3361 C 0.02516 0.10701 0.44381 0.0
C3362 C 0.00973 0.11537 0.43888 0.0
C3363 C 0.91167 0.10823 0.4425 0.0
C3364 C 0.91089 0.11416 0.46166 0.0
C3365 C 0.92568 0.11246 0.43063 0.0
C3366 C 0.93938 0.12256 0.43768 0.0
C3367 C 0.93868 0.12858 0.45683 0.0
C3368 C 0.92442 0.12459 0.46867 0.0
C3369 C 0.95449 0.12628 0.42493 0.0
C3370 C 0.97067 0.11912 0.42956 0.0
C3371 C 0.9525 0.13515 0.40719 0.0
C3372 C 0.93608 0.14405 0.40219 0.0
C3373 C 0.92899 0.15645 0.41477 0.0
C3374 C 0.9136 0.16495 0.40999 0.0
C3375 C 0.90516 0.16115 0.39267 0.0
C3376 C 0.91215 0.14889 0.38004 0.0
C3377 C 0.92759 0.1404 0.38472 0.0
H3378 H 0.89325 0.16775 0.389 0.0
H3379 H 0.04389 0.08773 0.43559 0.0
H3380 H 0.63889 0.29003 0.12662 0.0
H3381 H 0.64071 0.2662 0.14978 0.0
H3382 H 0.60743 0.23522 0.11371 0.0
H3383 H 0.605 0.25922 0.09083 0.0
H3384 H 0.59897 0.23054 0.15075 0.0
H3385 H 0.65154 0.22904 0.1142 0.0
H3386 H 0.67833 0.24081 0.09997 0.0
H3387 H 0.69769 0.25253 0.15658 0.0
H3388 H 0.6709 0.24103 0.17114 0.0
H3389 H 0.61843 0.15062 0.19874 0.0
H3390 H 0.61375 0.17395 0.17536 0.0
H3391 H 0.65164 0.20533 0.20498 0.0
H3392 H 0.65721 0.18144 0.22735 0.0
H3393 H 0.65701 0.20914 0.16984 0.0
H3394 H 0.60312 0.21091 0.20632 0.0
H3395 H 0.57693 0.19709 0.21972 0.0
H3396 H 0.56029 0.18342 0.16259 0.0
H3397 H 0.58645 0.19706 0.14886 0.0
C3398 C 0.63177 0.27825 0.12368 0.0
C3399 C 0.6219 0.27661 0.10668 0.0
C3400 C 0.63295 0.26452 0.13689 0.0
C3401 C 0.62441 0.24873 0.13343 0.0
C3402 C 0.61422 0.24719 0.11674 0.0
C3403 C 0.613 0.26091 0.10352 0.0
C3404 C 0.62646 0.23374 0.14697 0.0
C3405 C 0.61166 0.22579 0.15482 0.0
C3406 C 0.64298 0.22747 0.15245 0.0
C3407 C 0.65914 0.23433 0.14374 0.0
C3408 C 0.66146 0.23424 0.1236 0.0
C3409 C 0.67665 0.24085 0.11548 0.0
C3410 C 0.68969 0.24745 0.12736 0.0
C3411 C 0.68757 0.24743 0.14739 0.0
C3412 C 0.67239 0.24086 0.15559 0.0
C3413 C 0.62553 0.16263 0.20037 0.0
C3414 C 0.638 0.16435 0.21499 0.0
C3415 C 0.62282 0.17604 0.18702 0.0
C3416 C 0.63203 0.19176 0.18848 0.0
C3417 C 0.64431 0.19346 0.20338 0.0
C3418 C 0.64742 0.17984 0.21629 0.0
C3419 C 0.62953 0.2062 0.17421 0.0
C3420 C 0.64428 0.21397 0.16602 0.0
C3421 C 0.61296 0.21224 0.16842 0.0
C3422 C 0.59678 0.20492 0.17659 0.0
C3423 C 0.59385 0.20499 0.19662 0.0
C3424 C 0.57903 0.19717 0.20427 0.0
C3425 C 0.56698 0.18935 0.19201 0.0
C3426 C 0.56964 0.18949 0.17206 0.0
C3427 C 0.58443 0.1973 0.16434 0.0
H3428 H 0.55558 0.1832 0.19797 0.0
H3429 H 0.70144 0.25256 0.12104 0.0
H3430 H 0.48416 0.89762 0.84775 0.0
H3431 H 0.50819 0.89916 0.87057 0.0
H3432 H 0.48802 0.85485 0.90106 0.0
H3433 H 0.46389 0.85319 0.87819 0.0
H3434 H 0.49951 0.87867 0.92627 0.0
H3435 H 0.52269 0.85088 0.87035 0.0
H3436 H 0.52909 0.84725 0.83572 0.0
H3437 H 0.5582 0.89461 0.83586 0.0
H3438 H 0.55177 0.89866 0.87045 0.0
H3439 H 0.57941 0.86947 0.98001 0.0
H3440 H 0.55409 0.86357 0.95943 0.0
H3441 H 0.56821 0.9064 0.92265 0.0
H3442 H 0.59342 0.91206 0.94274 0.0
H3443 H 0.55963 0.87981 0.90121 0.0
H3444 H 0.53457 0.90857 0.95658 0.0
H3445 H 0.52805 0.91223 0.9912 0.0
H3446 H 0.50265 0.86277 0.9921 0.0
H3447 H 0.50923 0.85873 0.95753 0.0
C3448 C 0.48484 0.88811 0.85922 0.0
C3449 C 0.47208 0.87518 0.86094 0.0
C3450 C 0.49863 0.88902 0.87232 0.0
C3451 C 0.50017 0.87694 0.88743 0.0
C3452 C 0.4872 0.86431 0.88954 0.0
C3453 C 0.47335 0.86342 0.87645 0.0
C3454 C 0.51541 0.87743 0.90077 0.0
C3455 C 0.51266 0.87864 0.9208 0.0
C3456 C 0.53265 0.87758 0.89375 0.0
C3457 C 0.53663 0.87514 0.87296 0.0
C3458 C 0.53036 0.86058 0.86297 0.0
C3459 C 0.534 0.85844 0.84335 0.0
C3460 C 0.54402 0.87071 0.83358 0.0
C3461 C 0.55044 0.88513 0.84344 0.0
C3462 C 0.54681 0.88734 0.86305 0.0
C3463 C 0.57706 0.87759 0.96752 0.0
C3464 C 0.58844 0.89124 0.96304 0.0
C3465 C 0.56255 0.87427 0.9558 0.0
C3466 C 0.55908 0.88462 0.93947 0.0
C3467 C 0.57053 0.89817 0.93506 0.0
C3468 C 0.58496 0.90144 0.94667 0.0
C3469 C 0.54375 0.8815 0.92669 0.0
C3470 C 0.54649 0.87972 0.90673 0.0
C3471 C 0.52655 0.88082 0.93379 0.0
C3472 C 0.52257 0.88326 0.95454 0.0
C3473 C 0.52772 0.89842 0.96421 0.0
C3474 C 0.52399 0.90057 0.98381 0.0
C3475 C 0.51499 0.88771 0.99386 0.0
C3476 C 0.50965 0.8727 0.98431 0.0
C3477 C 0.51337 0.87047 0.96471 0.0
H3478 H 0.51211 0.88941 1.00903 0.0
H3479 H 0.54683 0.86903 0.81839 0.0
H3480 H 0.85052 0.26802 0.92612 0.0
H3481 H 0.84951 0.24412 0.9031 0.0
H3482 H 0.8976 0.2613 0.87799 0.0
H3483 H 0.89877 0.28527 0.90112 0.0
H3484 H 0.87505 0.25111 0.85006 0.0
H3485 H 0.89696 0.22694 0.9088 0.0
H3486 H 0.89727 0.22077 0.94373 0.0
H3487 H 0.84858 0.19433 0.93882 0.0
H3488 H 0.84785 0.20056 0.90389 0.0
H3489 H 0.88296 0.17036 0.79746 0.0
H3490 H 0.88891 0.19565 0.81809 0.0
H3491 H 0.84376 0.18372 0.85226 0.0
H3492 H 0.83816 0.15847 0.8323 0.0
H3493 H 0.86878 0.19133 0.87532 0.0
H3494 H 0.8456 0.21755 0.81729 0.0
H3495 H 0.84489 0.22402 0.78242 0.0
H3496 H 0.89562 0.24651 0.78596 0.0
H3497 H 0.89671 0.23998 0.82082 0.0
C3498 C 0.86096 0.26671 0.91579 0.0
C3499 C 0.87481 0.27856 0.91569 0.0
C3500 C 0.86035 0.25301 0.90257 0.0
C3501 C 0.87363 0.25066 0.88894 0.0
C3502 C 0.8872 0.26277 0.88835 0.0
C3503 C 0.88782 0.27653 0.90158 0.0
C3504 C 0.87343 0.23537 0.87567 0.0
C3505 C 0.87394 0.23801 0.85559 0.0
C3506 C 0.87183 0.21823 0.88277 0.0
C3507 C 0.87229 0.21433 0.90375 0.0
C3508 C 0.88626 0.21991 0.91519 0.0
C3509 C 0.88652 0.21638 0.93499 0.0
C3510 C 0.87293 0.20719 0.94349 0.0
C3511 C 0.85908 0.20146 0.93221 0.0
C3512 C 0.85875 0.20497 0.91241 0.0
C3513 C 0.87436 0.17318 0.80939 0.0
C3514 C 0.8601 0.16238 0.81322 0.0
C3515 C 0.8777 0.1877 0.82114 0.0
C3516 C 0.86672 0.19177 0.83676 0.0
C3517 C 0.85251 0.18093 0.84044 0.0
C3518 C 0.84928 0.16647 0.8289 0.0
C3519 C 0.86984 0.20705 0.84964 0.0
C3520 C 0.86999 0.2044 0.86973 0.0
C3521 C 0.87199 0.22414 0.84252 0.0
C3522 C 0.87132 0.2281 0.8216 0.0
C3523 C 0.85666 0.22376 0.81059 0.0
C3524 C 0.85617 0.22746 0.79084 0.0
C3525 C 0.87022 0.23562 0.78197 0.0
C3526 C 0.88476 0.24015 0.79284 0.0
C3527 C 0.88532 0.23647 0.8126 0.0
H3528 H 0.86982 0.23847 0.76667 0.0
H3529 H 0.87315 0.20448 0.95882 0.0
H3530 H 0.46041 0.11095 0.64609 0.0
H3531 H 0.48418 0.10728 0.62312 0.0
H3532 H 0.5161 0.14135 0.65721 0.0
H3533 H 0.49246 0.145 0.68027 0.0
H3534 H 0.52034 0.14865 0.62003 0.0
H3535 H 0.52155 0.09695 0.65813 0.0
H3536 H 0.50968 0.07059 0.67327 0.0
H3537 H 0.49744 0.04995 0.61737 0.0
H3538 H 0.50903 0.0763 0.6019 0.0
H3539 H 0.60042 0.1283 0.57476 0.0
H3540 H 0.57678 0.13251 0.59774 0.0
H3541 H 0.54601 0.09498 0.56684 0.0
H3542 H 0.57019 0.09012 0.54449 0.0
H3543 H 0.54113 0.08994 0.60258 0.0
H3544 H 0.54035 0.14273 0.56459 0.0
H3545 H 0.5544 0.16846 0.55039 0.0
H3546 H 0.5674 0.18685 0.60704 0.0
H3547 H 0.55353 0.16116 0.62157 0.0
C3548 C 0.47252 0.11756 0.64883 0.0
C3549 C 0.47441 0.12825 0.66517 0.0
C3550 C 0.48614 0.11548 0.63561 0.0
C3551 C 0.5021 0.1239 0.63843 0.0
C3552 C 0.50396 0.13474 0.65458 0.0
C3553 C 0.49035 0.13685 0.66778 0.0
C3554 C 0.5169 0.12128 0.62471 0.0
C3555 C 0.52496 0.13581 0.61635 0.0
C3556 C 0.52294 0.10455 0.61962 0.0
C3557 C 0.51599 0.08868 0.62887 0.0
C3558 C 0.5162 0.08685 0.64907 0.0
C3559 C 0.50954 0.0719 0.65771 0.0
C3560 C 0.50276 0.05862 0.64629 0.0
C3561 C 0.50267 0.06025 0.6262 0.0
C3562 C 0.50929 0.07519 0.61749 0.0
C3563 C 0.58849 0.1212 0.5727 0.0
C3564 C 0.58695 0.10922 0.55755 0.0
C3565 C 0.57491 0.1236 0.58587 0.0
C3566 C 0.55922 0.11448 0.58385 0.0
C3567 C 0.55783 0.10232 0.56876 0.0
C3568 C 0.57161 0.09959 0.5559 0.0
C3569 C 0.54444 0.11729 0.5976 0.0
C3570 C 0.53642 0.1028 0.60607 0.0
C3571 C 0.5385 0.13406 0.60283 0.0
C3572 C 0.54597 0.14998 0.59416 0.0
C3573 C 0.54617 0.15228 0.57401 0.0
C3574 C 0.55412 0.16684 0.56591 0.0
C3575 C 0.5618 0.17926 0.57781 0.0
C3576 C 0.56142 0.17722 0.59785 0.0
C3577 C 0.55348 0.16269 0.60603 0.0
H3578 H 0.56805 0.19047 0.5715 0.0
H3579 H 0.49762 0.04705 0.65301 0.0
H3580 H 0.6196 0.84667 0.31785 0.0
H3581 H 0.61603 0.8222 0.33983 0.0
H3582 H 0.66698 0.80393 0.32453 0.0
H3583 H 0.66996 0.82789 0.30154 0.0
H3584 H 0.64661 0.77726 0.32799 0.0
H3585 H 0.65759 0.82699 0.36801 0.0
H3586 H 0.65241 0.8567 0.37978 0.0
H3587 H 0.60108 0.84242 0.39742 0.0
H3588 H 0.60589 0.81267 0.38557 0.0
H3589 H 0.65696 0.72005 0.40798 0.0
H3590 H 0.66013 0.7439 0.385 0.0
H3591 H 0.60837 0.76111 0.3981 0.0
H3592 H 0.60532 0.7377 0.42161 0.0
H3593 H 0.62926 0.78824 0.39583 0.0
H3594 H 0.61826 0.73865 0.35588 0.0
H3595 H 0.62309 0.70909 0.34355 0.0
H3596 H 0.67439 0.72321 0.3256 0.0
H3597 H 0.66993 0.75281 0.33806 0.0
C3598 C 0.62975 0.83716 0.31867 0.0
C3599 C 0.64481 0.83905 0.30754 0.0
C3600 C 0.62791 0.82331 0.33163 0.0
C3601 C 0.64134 0.81121 0.33421 0.0
C3602 C 0.65638 0.813 0.32292 0.0
C3603 C 0.6581 0.82676 0.30978 0.0
C3604 C 0.63982 0.79686 0.34875 0.0
C3605 C 0.64307 0.77974 0.34289 0.0
C3606 C 0.63481 0.79988 0.36818 0.0
C3607 C 0.63205 0.81764 0.37576 0.0
C3608 C 0.64518 0.83021 0.37434 0.0
C3609 C 0.64231 0.84705 0.38103 0.0
C3610 C 0.62641 0.85145 0.38929 0.0
C3611 C 0.61338 0.83899 0.391 0.0
C3612 C 0.61618 0.82213 0.38433 0.0
C3613 C 0.64627 0.72897 0.40613 0.0
C3614 C 0.63083 0.72677 0.41669 0.0
C3615 C 0.64805 0.74255 0.39278 0.0
C3616 C 0.63441 0.75428 0.38952 0.0
C3617 C 0.61908 0.75226 0.40021 0.0
C3618 C 0.6173 0.73869 0.41356 0.0
C3619 C 0.63609 0.76866 0.37506 0.0
C3620 C 0.63286 0.78578 0.38094 0.0
C3621 C 0.64114 0.76565 0.35566 0.0
C3622 C 0.64382 0.74789 0.34808 0.0
C3623 C 0.63061 0.73541 0.34943 0.0
C3624 C 0.63328 0.71866 0.3424 0.0
C3625 C 0.64905 0.71426 0.33384 0.0
C3626 C 0.66218 0.72663 0.33225 0.0
C3627 C 0.65959 0.7434 0.33929 0.0
H3628 H 0.65109 0.70129 0.3284 0.0
H3629 H 0.62418 0.86451 0.39436 0.0
H3630 H 0.92473 0.8654 0.04722 0.0
H3631 H 0.95047 0.85972 0.0673 0.0
H3632 H 0.93847 0.90449 0.10201 0.0
H3633 H 0.91309 0.91017 0.08222 0.0
H3634 H 0.97205 0.90424 0.09263 0.0
H3635 H 0.93083 0.86287 0.11915 0.0
H3636 H 0.91078 0.83805 0.11816 0.0
H3637 H 0.95124 0.80568 0.0957 0.0
H3638 H 0.97158 0.83033 0.09672 0.0
H3639 H 0.02069 0.89539 0.17816 0.0
H3640 H 0.99794 0.89772 0.15381 0.0
H3641 H 0.01488 0.84971 0.12823 0.0
H3642 H 0.03753 0.84719 0.15278 0.0
H3643 H 0.98108 0.84992 0.12949 0.0
H3644 H 0.02332 0.8901 0.10695 0.0
H3645 H 0.04382 0.9145 0.10898 0.0
H3646 H 0.00208 0.94907 0.12271 0.0
H3647 H 0.98134 0.92483 0.12102 0.0
C3648 C 0.92763 0.87398 0.05915 0.0
C3649 C 0.91688 0.88825 0.06308 0.0
C3650 C 0.94229 0.8707 0.07067 0.0
C3651 C 0.94644 0.88166 0.08626 0.0
C3652 C 0.93566 0.89587 0.09007 0.0
C3653 C 0.92108 0.89908 0.07872 0.0
C3654 C 0.96204 0.87877 0.09861 0.0
C3655 C 0.97395 0.89239 0.10078 0.0
C3656 C 0.96493 0.86314 0.10881 0.0
C3657 C 0.95264 0.84846 0.1078 0.0
C3658 C 0.9354 0.85049 0.11384 0.0
C3659 C 0.924 0.83644 0.11332 0.0
C3660 C 0.9297 0.82031 0.10674 0.0
C3661 C 0.94683 0.81819 0.10074 0.0
C3662 C 0.95831 0.83217 0.10135 0.0
C3663 C 0.01971 0.88541 0.16724 0.0
C3664 C 0.03103 0.87115 0.16743 0.0
C3665 C 0.00666 0.88676 0.15327 0.0
C3666 C 0.00477 0.87404 0.13889 0.0
C3667 C 0.01601 0.85972 0.1391 0.0
C3668 C 0.02897 0.85829 0.15319 0.0
C3669 C 0.99088 0.87557 0.12391 0.0
C3670 C 0.97933 0.8617 0.12119 0.0
C3671 C 0.98837 0.89096 0.11309 0.0
C3672 C 0.00079 0.90561 0.114 0.0
C3673 C 0.01852 0.90288 0.11053 0.0
C3674 C 0.03018 0.91669 0.1116 0.0
C3675 C 0.02426 0.93332 0.11601 0.0
C3676 C 0.00665 0.93618 0.11931 0.0
C3677 C 0.99493 0.92242 0.11827 0.0
H3678 H 0.03331 0.94399 0.11684 0.0
H3679 H 0.92088 0.80943 0.10638 0.0
H3680 H 0.62082 0.67637 0.79318 0.0
H3681 H 0.61523 0.70181 0.81374 0.0
H3682 H 0.65427 0.68431 0.85374 0.0
H3683 H 0.65988 0.65917 0.83343 0.0
H3684 H 0.62525 0.69443 0.87253 0.0
H3685 H 0.66251 0.71695 0.82243 0.0
H3686 H 0.6708 0.72341 0.78881 0.0
H3687 H 0.62481 0.75398 0.78165 0.0
H3688 H 0.61613 0.74749 0.81518 0.0
H3689 H 0.64432 0.76708 0.93017 0.0
H3690 H 0.64605 0.74326 0.90708 0.0
H3691 H 0.60784 0.76822 0.87123 0.0
H3692 H 0.60642 0.79242 0.89402 0.0
H3693 H 0.63318 0.75469 0.84928 0.0
H3694 H 0.59679 0.73404 0.89988 0.0
H3695 H 0.58817 0.7276 0.93339 0.0
H3696 H 0.63164 0.69338 0.93949 0.0
H3697 H 0.64066 0.6998 0.90608 0.0
C3698 C 0.62819 0.67801 0.80635 0.0
C3699 C 0.64085 0.66579 0.81162 0.0
C3700 C 0.62503 0.69256 0.81807 0.0
C3701 C 0.63439 0.69505 0.8353 0.0
C3702 C 0.64685 0.68271 0.84059 0.0
C3703 C 0.65009 0.66835 0.82888 0.0
C3704 C 0.63143 0.71041 0.84801 0.0
C3705 C 0.62711 0.7076 0.86746 0.0
C3706 C 0.63337 0.72765 0.84135 0.0
C3707 C 0.63857 0.73156 0.82122 0.0
C3708 C 0.65409 0.72492 0.81363 0.0
C3709 C 0.65887 0.72861 0.7946 0.0
C3710 C 0.64831 0.73905 0.78308 0.0
C3711 C 0.63296 0.74586 0.79058 0.0
C3712 C 0.62811 0.74219 0.8096 0.0
C3713 C 0.63644 0.76767 0.91726 0.0
C3714 C 0.62519 0.78174 0.91406 0.0
C3715 C 0.6373 0.7539 0.90413 0.0
C3716 C 0.62688 0.75374 0.88749 0.0
C3717 C 0.61595 0.76795 0.88399 0.0
C3718 C 0.61506 0.78173 0.89714 0.0
C3719 C 0.62733 0.73868 0.87392 0.0
C3720 C 0.63116 0.74154 0.85433 0.0
C3721 C 0.62487 0.72145 0.88042 0.0
C3722 C 0.61948 0.71753 0.90052 0.0
C3723 C 0.60459 0.72524 0.90841 0.0
C3724 C 0.59962 0.72158 0.92738 0.0
C3725 C 0.60937 0.71012 0.93858 0.0
C3726 C 0.6241 0.70227 0.93081 0.0
C3727 C 0.62914 0.7059 0.91185 0.0
H3728 H 0.6055 0.70729 0.95326 0.0
H3729 H 0.65204 0.74191 0.76836 0.0
H3730 H 0.57751 0.36767 0.04392 0.0
H3731 H 0.5513 0.36256 0.0634 0.0
H3732 H 0.56459 0.40592 0.09968 0.0
H3733 H 0.59045 0.4111 0.08041 0.0
H3734 H 0.54607 0.35503 0.10154 0.0
H3735 H 0.52885 0.4275 0.11305 0.0
H3736 H 0.53144 0.45524 0.0956 0.0
H3737 H 0.53238 0.42814 0.04151 0.0
H3738 H 0.52955 0.40026 0.05859 0.0
H3739 H 0.49166 0.36609 0.18295 0.0
H3740 H 0.51444 0.36774 0.15862 0.0
H3741 H 0.47706 0.3843 0.11624 0.0
H3742 H 0.45425 0.38332 0.14074 0.0
H3743 H 0.50497 0.40331 0.11311 0.0
H3744 H 0.49426 0.34264 0.11619 0.0
H3745 H 0.49046 0.31413 0.13167 0.0
H3746 H 0.54267 0.31605 0.1528 0.0
H3747 H 0.54671 0.34469 0.13767 0.0
C3748 C 0.57478 0.37609 0.05605 0.0
C3749 C 0.58599 0.38987 0.06052 0.0
C3750 C 0.55984 0.37314 0.0672 0.0
C3751 C 0.55579 0.38401 0.08288 0.0
C3752 C 0.56719 0.39754 0.08749 0.0
C3753 C 0.58205 0.40045 0.07644 0.0
C3754 C 0.53972 0.38144 0.09458 0.0
C3755 C 0.53705 0.36556 0.10401 0.0
C3756 C 0.52768 0.39504 0.09756 0.0
C3757 C 0.52912 0.41178 0.08713 0.0
C3758 C 0.52952 0.42746 0.09742 0.0
C3759 C 0.53105 0.44321 0.0876 0.0
C3760 C 0.53212 0.44345 0.06746 0.0
C3761 C 0.53161 0.42794 0.05711 0.0
C3762 C 0.53006 0.41216 0.06686 0.0
C3763 C 0.48824 0.37023 0.16851 0.0
C3764 C 0.47102 0.37462 0.16392 0.0
C3765 C 0.50131 0.37095 0.15449 0.0
C3766 C 0.49752 0.37592 0.13543 0.0
C3767 C 0.48036 0.38034 0.13078 0.0
C3768 C 0.46727 0.37964 0.14481 0.0
C3769 C 0.51156 0.37705 0.12059 0.0
C3770 C 0.51389 0.3927 0.11057 0.0
C3771 C 0.52309 0.36314 0.11685 0.0
C3772 C 0.52074 0.34589 0.12592 0.0
C3773 C 0.50489 0.33704 0.12426 0.0
C3774 C 0.5027 0.32085 0.13295 0.0
C3775 C 0.5163 0.3133 0.14324 0.0
C3776 C 0.53214 0.32192 0.14483 0.0
C3777 C 0.5344 0.33813 0.13618 0.0
H3778 H 0.51458 0.30076 0.14996 0.0
H3779 H 0.53332 0.45565 0.05989 0.0
H3780 H 0.84088 0.34281 0.33283 0.0
H3781 H 0.84657 0.31789 0.35353 0.0
H3782 H 0.88523 0.29972 0.31351 0.0
H3783 H 0.87965 0.32498 0.2926 0.0
H3784 H 0.86243 0.27309 0.32701 0.0
H3785 H 0.89918 0.31641 0.35319 0.0
H3786 H 0.90688 0.34549 0.36505 0.0
H3787 H 0.86973 0.34059 0.41085 0.0
H3788 H 0.86161 0.31155 0.39908 0.0
H3789 H 0.88957 0.20909 0.39643 0.0
H3790 H 0.88909 0.23251 0.37257 0.0
H3791 H 0.85416 0.26152 0.40876 0.0
H3792 H 0.85455 0.2382 0.43259 0.0
H3793 H 0.8789 0.28227 0.39548 0.0
H3794 H 0.84069 0.2397 0.36703 0.0
H3795 H 0.83303 0.2108 0.35452 0.0
H3796 H 0.87374 0.21434 0.31249 0.0
H3797 H 0.88179 0.24318 0.32493 0.0
C3798 C 0.85062 0.33354 0.32837 0.0
C3799 C 0.85982 0.33591 0.31104 0.0
C3800 C 0.85388 0.31929 0.34028 0.0
C3801 C 0.8664 0.30693 0.3352 0.0
C3802 C 0.87551 0.30907 0.31776 0.0
C3803 C 0.87236 0.32353 0.30585 0.0
C3804 C 0.86979 0.29194 0.34835 0.0
C3805 C 0.86637 0.27505 0.34188 0.0
C3806 C 0.8747 0.29446 0.36784 0.0
C3807 C 0.87969 0.31183 0.37516 0.0
C3808 C 0.89256 0.32157 0.36571 0.0
C3809 C 0.89702 0.33804 0.37243 0.0
C3810 C 0.88877 0.3449 0.38867 0.0
C3811 C 0.8761 0.33526 0.39826 0.0
C3812 C 0.87158 0.31878 0.39159 0.0
C3813 C 0.8816 0.22034 0.39922 0.0
C3814 C 0.8721 0.22167 0.41653 0.0
C3815 C 0.88137 0.23379 0.38554 0.0
C3816 C 0.87151 0.24885 0.38872 0.0
C3817 C 0.86197 0.25014 0.40594 0.0
C3818 C 0.86222 0.23675 0.41961 0.0
C3819 C 0.87115 0.26336 0.37431 0.0
C3820 C 0.87515 0.28022 0.38056 0.0
C3821 C 0.86686 0.26078 0.3546 0.0
C3822 C 0.86196 0.2435 0.34704 0.0
C3823 C 0.84809 0.23426 0.35521 0.0
C3824 C 0.84366 0.2179 0.34812 0.0
C3825 C 0.85292 0.21072 0.33276 0.0
C3826 C 0.8666 0.2199 0.32441 0.0
C3827 C 0.87109 0.23626 0.33147 0.0
H3828 H 0.84948 0.19805 0.32729 0.0
H3829 H 0.89223 0.35766 0.39384 0.0
H3830 H 0.91182 0.58569 0.57623 0.0
H3831 H 0.93706 0.59079 0.5966 0.0
H3832 H 0.94655 0.6391 0.56722 0.0
H3833 H 0.92139 0.63376 0.5462 0.0
H3834 H 0.9718 0.59538 0.58739 0.0
H3835 H 0.96003 0.6677 0.60514 0.0
H3836 H 0.93568 0.68825 0.6083 0.0
H3837 H 0.90116 0.64617 0.62092 0.0
H3838 H 0.92529 0.62545 0.61813 0.0
H3839 H 0.04534 0.62583 0.63922 0.0
H3840 H 0.02182 0.62386 0.61568 0.0
H3841 H 0.98439 0.62634 0.66177 0.0
H3842 H 0.00779 0.62892 0.68532 0.0
H3843 H 0.97348 0.64541 0.63224 0.0
H3844 H 0.99545 0.58772 0.64053 0.0
H3845 H 0.01785 0.56497 0.64112 0.0
H3846 H 0.02874 0.57408 0.58118 0.0
H3847 H 0.00655 0.59707 0.58031 0.0
C3848 C 0.91931 0.59737 0.57396 0.0
C3849 C 0.9145 0.60939 0.55966 0.0
C3850 C 0.93379 0.60024 0.58562 0.0
C3851 C 0.94369 0.61535 0.58354 0.0
C3852 C 0.93904 0.62739 0.56917 0.0
C3853 C 0.92466 0.62435 0.55719 0.0
C3854 C 0.95862 0.61846 0.59675 0.0
C3855 C 0.97226 0.60643 0.59703 0.0
C3856 C 0.95906 0.63263 0.60969 0.0
C3857 C 0.94444 0.64501 0.61117 0.0
C3858 C 0.94724 0.66285 0.60858 0.0
C3859 C 0.93348 0.67452 0.61034 0.0
C3860 C 0.91689 0.66851 0.6148 0.0
C3861 C 0.914 0.65081 0.61742 0.0
C3862 C 0.92771 0.63909 0.61571 0.0
C3863 C 0.03211 0.62615 0.64437 0.0
C3864 C 0.02855 0.62741 0.66427 0.0
C3865 C 0.01864 0.6249 0.63087 0.0
C3866 C 0.00126 0.62477 0.6369 0.0
C3867 C 0.99765 0.62638 0.65669 0.0
C3868 C 0.0111 0.62764 0.6702 0.0
C3869 C 0.98683 0.62244 0.62273 0.0
C3870 C 0.97323 0.63456 0.62231 0.0
C3871 C 0.98621 0.60811 0.60996 0.0
C3872 C 0.99948 0.59423 0.61041 0.0
C3873 C 0.00271 0.58495 0.62751 0.0
C3874 C 0.01535 0.57201 0.6279 0.0
C3875 C 0.02475 0.56812 0.61121 0.0
C3876 C 0.02147 0.57713 0.5941 0.0
C3877 C 0.00886 0.59011 0.59365 0.0
H3878 H 0.03454 0.55809 0.61154 0.0
H3879 H 0.90629 0.67755 0.61635 0.0
H3880 H 0.65601 0.34562 0.69053 0.0
H3881 H 0.64857 0.32153 0.66936 0.0
H3882 H 0.61049 0.30398 0.71046 0.0
H3883 H 0.61792 0.32834 0.7319 0.0
H3884 H 0.63113 0.27694 0.69579 0.0
H3885 H 0.59615 0.3227 0.67012 0.0
H3886 H 0.58989 0.35206 0.658 0.0
H3887 H 0.62733 0.34547 0.61283 0.0
H3888 H 0.63379 0.31599 0.62462 0.0
H3889 H 0.59725 0.21567 0.62771 0.0
H3890 H 0.60031 0.23898 0.65141 0.0
H3891 H 0.63585 0.26541 0.6135 0.0
H3892 H 0.6329 0.24219 0.58982 0.0
H3893 H 0.61355 0.28786 0.62797 0.0
H3894 H 0.64953 0.24282 0.65417 0.0
H3895 H 0.65614 0.21343 0.66602 0.0
H3896 H 0.61772 0.21884 0.7104 0.0
H3897 H 0.61071 0.24819 0.69864 0.0
C3898 C 0.64603 0.33666 0.69513 0.0
C3899 C 0.63755 0.33891 0.71292 0.0
C3900 C 0.64174 0.32291 0.68293 0.0
C3901 C 0.62884 0.31099 0.68817 0.0
C3902 C 0.62046 0.31303 0.70607 0.0
C3903 C 0.62468 0.32695 0.71829 0.0
C3904 C 0.62444 0.29644 0.67486 0.0
C3905 C 0.62694 0.2793 0.68107 0.0
C3906 C 0.61937 0.29948 0.6555 0.0
C3907 C 0.61554 0.31719 0.64834 0.0
C3908 C 0.60313 0.32755 0.65767 0.0
C3909 C 0.59953 0.3442 0.65085 0.0
C3910 C 0.60827 0.35067 0.63474 0.0
C3911 C 0.62058 0.34045 0.62533 0.0
C3912 C 0.62417 0.32374 0.63203 0.0
C3913 C 0.60586 0.22635 0.62448 0.0
C3914 C 0.61482 0.22698 0.60678 0.0
C3915 C 0.60758 0.23972 0.63807 0.0
C3916 C 0.61843 0.25398 0.63439 0.0
C3917 C 0.62734 0.25464 0.61672 0.0
C3918 C 0.62559 0.24133 0.60312 0.0
C3919 C 0.62047 0.26829 0.64877 0.0
C3920 C 0.61755 0.28543 0.64274 0.0
C3921 C 0.62522 0.26523 0.66826 0.0
C3922 C 0.62945 0.24762 0.67539 0.0
C3923 C 0.64239 0.23769 0.66636 0.0
C3924 C 0.64623 0.22105 0.67308 0.0
C3925 C 0.63732 0.21425 0.68892 0.0
C3926 C 0.62459 0.22411 0.69811 0.0
C3927 C 0.62068 0.24075 0.69143 0.0
H3928 H 0.64031 0.20136 0.6941 0.0
H3929 H 0.60547 0.36358 0.62952 0.0
H3930 H 0.9228 0.3686 0.98145 0.0
H3931 H 0.94911 0.36394 0.96203 0.0
H3932 H 0.93237 0.40346 0.92216 0.0
H3933 H 0.9065 0.40832 0.94151 0.0
H3934 H 0.9555 0.35395 0.92572 0.0
H3935 H 0.96572 0.42629 0.90516 0.0
H3936 H 0.96078 0.45518 0.9193 0.0
H3937 H 0.96255 0.43332 0.97628 0.0
H3938 H 0.96774 0.40435 0.9625 0.0
H3939 H 0.00964 0.36035 0.84369 0.0
H3940 H 0.98658 0.36244 0.86754 0.0
H3941 H 0.021 0.38939 0.90622 0.0
H3942 H 0.04389 0.38832 0.88191 0.0
H3943 H 0.99167 0.4045 0.90757 0.0
H3944 H 0.00843 0.34544 0.91268 0.0
H3945 H 0.01527 0.31598 0.90129 0.0
H3946 H 0.96329 0.31009 0.88039 0.0
H3947 H 0.9562 0.33963 0.8914 0.0
C3948 C 0.92479 0.37627 0.96855 0.0
C3949 C 0.91264 0.38896 0.96315 0.0
C3950 C 0.9398 0.37358 0.95742 0.0
C3951 C 0.94296 0.38357 0.94075 0.0
C3952 C 0.93053 0.39585 0.93514 0.0
C3953 C 0.91565 0.39857 0.94622 0.0
C3954 C 0.95917 0.3814 0.92914 0.0
C3955 C 0.96344 0.36499 0.9218 0.0
C3956 C 0.96988 0.39569 0.92434 0.0
C3957 C 0.96698 0.41312 0.93277 0.0
C3958 C 0.96514 0.42766 0.92071 0.0
C3959 C 0.96228 0.44405 0.92866 0.0
C3960 C 0.9613 0.44608 0.94868 0.0
C3961 C 0.96324 0.43173 0.96078 0.0
C3962 C 0.96613 0.41532 0.9529 0.0
C3963 C 0.01234 0.36694 0.85715 0.0
C3964 C 0.02876 0.37424 0.86068 0.0
C3965 C 0.99913 0.36787 0.87098 0.0
C3966 C 0.002 0.37583 0.88894 0.0
C3967 C 0.01838 0.38309 0.89257 0.0
C3968 C 0.03157 0.38231 0.87865 0.0
C3969 C 0.98776 0.37711 0.90361 0.0
C3970 C 0.98384 0.3934 0.91153 0.0
C3971 C 0.97765 0.36262 0.90929 0.0
C3972 C 0.98183 0.34481 0.90274 0.0
C3973 C 0.99849 0.33791 0.90554 0.0
C3974 C 0.00241 0.32119 0.89916 0.0
C3975 C 0.98973 0.31118 0.89009 0.0
C3976 C 0.9731 0.31786 0.88741 0.0
C3977 C 0.96912 0.33459 0.89374 0.0
H3978 H 0.99279 0.29824 0.88516 0.0
H3979 H 0.95907 0.45877 0.95481 0.0
H3980 H 0.85224 0.76825 0.10098 0.0
H3981 H 0.85044 0.74497 0.12494 0.0
H3982 H 0.8991 0.76125 0.14937 0.0
H3983 H 0.90096 0.78463 0.12541 0.0
H3984 H 0.89637 0.72457 0.14374 0.0
H3985 H 0.86404 0.7709 0.17294 0.0
H3986 H 0.84181 0.79381 0.17346 0.0
H3987 H 0.80216 0.75589 0.16353 0.0
H3988 H 0.82419 0.73277 0.16265 0.0
H3989 H 0.88632 0.66995 0.22799 0.0
H3990 H 0.89132 0.6954 0.20725 0.0
H3991 H 0.84188 0.68717 0.17989 0.0
H3992 H 0.83706 0.66173 0.20004 0.0
H3993 H 0.8467 0.72123 0.18899 0.0
H3994 H 0.87672 0.67593 0.15664 0.0
H3995 H 0.89744 0.65203 0.15203 0.0
H3996 H 0.93967 0.68629 0.16476 0.0
H3997 H 0.91914 0.71041 0.16973 0.0
C3998 C 0.86258 0.76687 0.11142 0.0
C3999 C 0.87672 0.77836 0.11129 0.0
C4000 C 0.86151 0.75359 0.12517 0.0
C4001 C 0.8746 0.75137 0.13904 0.0
C4002 C 0.88883 0.7627 0.13884 0.0
C4003 C 0.88981 0.77614 0.12523 0.0
C4004 C 0.87327 0.73729 0.15377 0.0
C4005 C 0.88572 0.72402 0.15393 0.0
C4006 C 0.8591 0.73628 0.16669 0.0
C4007 C 0.84579 0.75012 0.16758 0.0
C4008 C 0.85059 0.76746 0.17075 0.0
C4009 C 0.83803 0.78048 0.17112 0.0
C4010 C 0.82059 0.77632 0.16849 0.0
C4011 C 0.81568 0.7591 0.16555 0.0
C4012 C 0.8282 0.74603 0.16514 0.0
C4013 C 0.87658 0.67356 0.2175 0.0
C4014 C 0.86136 0.66371 0.21558 0.0
C4015 C 0.87943 0.6881 0.20566 0.0
C4016 C 0.86699 0.6932 0.19192 0.0
C4017 C 0.85166 0.68357 0.19036 0.0
C4018 C 0.84895 0.66897 0.20191 0.0
C4019 C 0.86978 0.70843 0.17897 0.0
C4020 C 0.85755 0.72191 0.17908 0.0
C4021 C 0.884 0.70947 0.16609 0.0
C4022 C 0.89637 0.69493 0.1638 0.0
C4023 C 0.8904 0.67833 0.15873 0.0
C4024 C 0.90211 0.66476 0.15598 0.0
C4025 C 0.91985 0.66765 0.15808 0.0
C4026 C 0.92592 0.68409 0.16312 0.0
C4027 C 0.91425 0.69772 0.16591 0.0
H4028 H 0.92888 0.65717 0.15568 0.0
H4029 H 0.81089 0.78642 0.16875 0.0
H4030 H 0.58083 0.63812 0.48123 0.0
H4031 H 0.55556 0.64443 0.46069 0.0
H4032 H 0.56948 0.60195 0.42337 0.0
H4033 H 0.59457 0.59583 0.44346 0.0
H4034 H 0.56097 0.62914 0.40238 0.0
H4035 H 0.53644 0.59898 0.45712 0.0
H4036 H 0.53003 0.59449 0.49164 0.0
H4037 H 0.50391 0.64355 0.49381 0.0
H4038 H 0.51038 0.64842 0.45934 0.0
H4039 H 0.48586 0.60732 0.35067 0.0
H4040 H 0.50981 0.6072 0.37366 0.0
H4041 H 0.48944 0.65318 0.40066 0.0
H4042 H 0.46518 0.65325 0.37774 0.0
H4043 H 0.50087 0.62872 0.42758 0.0
H4044 H 0.52304 0.65717 0.37156 0.0
H4045 H 0.52918 0.66095 0.33689 0.0
H4046 H 0.5598 0.61454 0.33705 0.0
H4047 H 0.55362 0.61034 0.37168 0.0
C4048 C 0.57846 0.63019 0.46862 0.0
C4049 C 0.58968 0.61645 0.46401 0.0
C4050 C 0.56399 0.63374 0.45693 0.0
C4051 C 0.5605 0.62359 0.44048 0.0
C4052 C 0.57185 0.61002 0.43588 0.0
C4053 C 0.5862 0.60649 0.44748 0.0
C4054 C 0.54515 0.62683 0.42785 0.0
C4055 C 0.54784 0.62894 0.40792 0.0
C4056 C 0.52797 0.62707 0.43503 0.0
C4057 C 0.52408 0.62416 0.45573 0.0
C4058 C 0.52946 0.60888 0.465 0.0
C4059 C 0.52579 0.60625 0.48455 0.0
C4060 C 0.51662 0.61875 0.49493 0.0
C4061 C 0.51105 0.63389 0.48577 0.0
C4062 C 0.51471 0.63659 0.46622 0.0
C4063 C 0.48631 0.6173 0.36163 0.0
C4064 C 0.47354 0.63029 0.36232 0.0
C4065 C 0.50013 0.6173 0.37469 0.0
C4066 C 0.50157 0.63029 0.3888 0.0
C4067 C 0.48865 0.64306 0.38987 0.0
C4068 C 0.47485 0.64315 0.37668 0.0
C4069 C 0.51675 0.63054 0.40211 0.0
C4070 C 0.51402 0.62913 0.42211 0.0
C4071 C 0.53394 0.63086 0.39501 0.0
C4072 C 0.53775 0.63337 0.37419 0.0
C4073 C 0.53097 0.6477 0.36417 0.0
C4074 C 0.53448 0.64993 0.34453 0.0
C4075 C 0.54485 0.63798 0.33476 0.0
C4076 C 0.55176 0.62379 0.34463 0.0
C4077 C 0.54827 0.62148 0.36427 0.0
H4078 H 0.54755 0.63973 0.31956 0.0
H4079 H 0.51379 0.61669 0.51006 0.0
H4080 H 0.35691 0.23677 0.09412 0.0
H4081 H 0.3547 0.26023 0.11767 0.0
H4082 H 0.399 0.24004 0.14811 0.0
H4083 H 0.40101 0.21623 0.12489 0.0
H4084 H 0.37437 0.25049 0.17329 0.0
H4085 H 0.4031 0.27502 0.1186 0.0
H4086 H 0.40728 0.28229 0.08425 0.0
H4087 H 0.35994 0.31142 0.08438 0.0
H4088 H 0.35534 0.30412 0.11868 0.0
H4089 H 0.38339 0.32901 0.22945 0.0
H4090 H 0.3895 0.30425 0.20808 0.0
H4091 H 0.34685 0.31922 0.17151 0.0
H4092 H 0.34094 0.34381 0.19243 0.0
H4093 H 0.37384 0.31125 0.15002 0.0
H4094 H 0.34414 0.28503 0.20402 0.0
H4095 H 0.33981 0.27765 0.23833 0.0
H4096 H 0.38902 0.25182 0.23949 0.0
H4097 H 0.39374 0.25925 0.20523 0.0
C4098 C 0.36607 0.23716 0.10595 0.0
C4099 C 0.37921 0.22459 0.10747 0.0
C4100 C 0.36489 0.25071 0.11933 0.0
C4101 C 0.37685 0.25212 0.13457 0.0
C4102 C 0.38968 0.23934 0.13646 0.0
C4103 C 0.39089 0.2258 0.12304 0.0
C4104 C 0.37606 0.26704 0.14831 0.0
C4105 C 0.37452 0.26378 0.16821 0.0
C4106 C 0.37606 0.28443 0.14179 0.0
C4107 C 0.37881 0.28889 0.12117 0.0
C4108 C 0.39351 0.28287 0.11127 0.0
C4109 C 0.39597 0.28701 0.09181 0.0
C4110 C 0.38386 0.29727 0.08212 0.0
C4111 C 0.3693 0.30345 0.09189 0.0
C4112 C 0.36677 0.29933 0.11135 0.0
C4113 C 0.37537 0.32697 0.21684 0.0
C4114 C 0.36166 0.33837 0.21268 0.0
C4115 C 0.37881 0.31278 0.20467 0.0
C4116 C 0.36856 0.30973 0.18817 0.0
C4117 C 0.355 0.32123 0.18405 0.0
C4118 C 0.35158 0.3353 0.19612 0.0
C4119 C 0.37176 0.29473 0.17498 0.0
C4120 C 0.3738 0.29797 0.15514 0.0
C4121 C 0.37221 0.27735 0.18158 0.0
C4122 C 0.36938 0.27288 0.20215 0.0
C4123 C 0.3541 0.2779 0.21164 0.0
C4124 C 0.35157 0.27369 0.23107 0.0
C4125 C 0.36416 0.26432 0.2411 0.0
C4126 C 0.3793 0.25911 0.23171 0.0
C4127 C 0.3819 0.26331 0.21229 0.0
H4128 H 0.36217 0.26107 0.25614 0.0
H4129 H 0.38579 0.30047 0.06706 0.0
H4130 H 0.54083 0.64289 0.8817 0.0
H4131 H 0.51683 0.64105 0.90467 0.0
H4132 H 0.48718 0.61169 0.86334 0.0
H4133 H 0.51112 0.6134 0.84037 0.0
H4134 H 0.46736 0.63593 0.87924 0.0
H4135 H 0.50672 0.59262 0.90328 0.0
H4136 H 0.53465 0.5815 0.91525 0.0
H4137 H 0.53299 0.61742 0.96251 0.0
H4138 H 0.50514 0.62891 0.95067 0.0
H4139 H 0.40341 0.59674 0.93774 0.0
H4140 H 0.42853 0.60255 0.91731 0.0
H4141 H 0.44954 0.63625 0.96102 0.0
H4142 H 0.42415 0.63059 0.98159 0.0
H4143 H 0.47414 0.61255 0.94554 0.0
H4144 H 0.43369 0.65441 0.92273 0.0
H4145 H 0.40549 0.66504 0.91102 0.0
H4146 H 0.40907 0.63168 0.86163 0.0
H4147 H 0.43719 0.62064 0.87318 0.0
C4148 C 0.52931 0.63584 0.87756 0.0
C4149 C 0.528 0.6283 0.8591 0.0
C4150 C 0.51553 0.63484 0.89073 0.0
C4151 C 0.50014 0.62614 0.88586 0.0
C4152 C 0.49883 0.61856 0.86748 0.0
C4153 C 0.51257 0.61958 0.85431 0.0
C4154 C 0.4853 0.62505 0.89973 0.0
C4155 C 0.46885 0.63065 0.89366 0.0
C4156 C 0.48722 0.61866 0.91882 0.0
C4157 C 0.50394 0.61176 0.92597 0.0
C4158 C 0.51238 0.59824 0.91614 0.0
C4159 C 0.52819 0.59186 0.92291 0.0
C4160 C 0.53562 0.59878 0.93959 0.0
C4161 C 0.52723 0.61209 0.94957 0.0
C4162 C 0.51143 0.61853 0.94284 0.0
C4163 C 0.41334 0.60545 0.94302 0.0
C4164 C 0.41178 0.61321 0.9613 0.0
C4165 C 0.42769 0.60879 0.93128 0.0
C4166 C 0.44093 0.6199 0.93755 0.0
C4167 C 0.4395 0.62763 0.95586 0.0
C4168 C 0.42497 0.62444 0.96757 0.0
C4169 C 0.45624 0.62316 0.92488 0.0
C4170 C 0.47273 0.61797 0.93117 0.0
C4171 C 0.45438 0.62991 0.90598 0.0
C4172 C 0.4375 0.63659 0.89891 0.0
C4173 C 0.42841 0.64923 0.90945 0.0
C4174 C 0.41245 0.65536 0.90283 0.0
C4175 C 0.40548 0.64902 0.88562 0.0
C4176 C 0.41448 0.63657 0.87497 0.0
C4177 C 0.43045 0.63039 0.88153 0.0
H4178 H 0.39312 0.65378 0.88052 0.0
H4179 H 0.54785 0.59382 0.94482 0.0
H4180 H 0.14344 0.76689 0.59447 0.0
H4181 H 0.14526 0.74272 0.61716 0.0
H4182 H 0.10677 0.76687 0.65328 0.0
H4183 H 0.10524 0.7914 0.63091 0.0
H4184 H 0.13219 0.75313 0.67505 0.0
H4185 H 0.09598 0.73319 0.62388 0.0
H4186 H 0.08759 0.72729 0.59018 0.0
H4187 H 0.13121 0.69332 0.58374 0.0
H4188 H 0.14001 0.69922 0.61734 0.0
H4189 H 0.11996 0.67437 0.73009 0.0
H4190 H 0.11436 0.69999 0.70981 0.0
H4191 H 0.15291 0.68252 0.66921 0.0
H4192 H 0.15846 0.65714 0.68919 0.0
H4193 H 0.12432 0.69325 0.65069 0.0
H4194 H 0.16145 0.71495 0.7013 0.0
H4195 H 0.16969 0.7209 0.73505 0.0
H4196 H 0.12373 0.75142 0.74262 0.0
H4197 H 0.1151 0.74545 0.70896 0.0
C4198 C 0.13551 0.76722 0.60736 0.0
C4199 C 0.12414 0.78114 0.61076 0.0
C4200 C 0.13643 0.75326 0.62025 0.0
C4201 C 0.12595 0.75278 0.63684 0.0
C4202 C 0.11492 0.76685 0.64056 0.0
C4203 C 0.11397 0.78082 0.62764 0.0
C4204 C 0.12642 0.73751 0.65012 0.0
C4205 C 0.13019 0.74006 0.66977 0.0
C4206 C 0.124 0.72038 0.64329 0.0
C4207 C 0.11874 0.71677 0.62309 0.0
C4208 C 0.10386 0.72457 0.61524 0.0
C4209 C 0.09902 0.72121 0.59616 0.0
C4210 C 0.10889 0.70997 0.58482 0.0
C4211 C 0.12359 0.70204 0.59254 0.0
C4212 C 0.1285 0.70537 0.61161 0.0
C4213 C 0.1272 0.67604 0.71683 0.0
C4214 C 0.1397 0.66377 0.7113 0.0
C4215 C 0.12404 0.6907 0.70527 0.0
C4216 C 0.1333 0.69329 0.68798 0.0
C4217 C 0.14558 0.68087 0.68241 0.0
C4218 C 0.14878 0.66636 0.69394 0.0
C4219 C 0.13043 0.70884 0.67553 0.0
C4220 C 0.12618 0.70633 0.65601 0.0
C4221 C 0.13236 0.72598 0.6825 0.0
C4222 C 0.13753 0.72958 0.7027 0.0
C4223 C 0.15303 0.7228 0.71022 0.0
C4224 C 0.15778 0.72621 0.72931 0.0
C4225 C 0.14721 0.73649 0.74099 0.0
C4226 C 0.13188 0.74343 0.73357 0.0
C4227 C 0.12706 0.74005 0.71449 0.0
H4228 H 0.15091 0.73911 0.75577 0.0
H4229 H 0.10511 0.70738 0.57005 0.0
H4230 H 0.98439 0.38915 0.34738 0.0
H4231 H 0.00837 0.39068 0.37022 0.0
H4232 H 0.98271 0.35378 0.40717 0.0
H4233 H 0.95827 0.35266 0.38467 0.0
H4234 H 0.99715 0.37877 0.42849 0.0
H4235 H 0.01662 0.34154 0.37809 0.0
H4236 H 0.02256 0.3325 0.34461 0.0
H4237 H 0.05747 0.37531 0.33757 0.0
H4238 H 0.05154 0.38476 0.37094 0.0
H4239 H 0.07599 0.36659 0.48382 0.0
H4240 H 0.05032 0.36072 0.46371 0.0
H4241 H 0.06757 0.39892 0.42254 0.0
H4242 H 0.09293 0.40478 0.44237 0.0
H4243 H 0.05698 0.36968 0.40457 0.0
H4244 H 0.03546 0.40795 0.45432 0.0
H4245 H 0.0295 0.41673 0.4879 0.0
H4246 H 0.99862 0.37109 0.49627 0.0
H4247 H 0.0046 0.36193 0.4628 0.0
C4248 C 0.98366 0.38153 0.36048 0.0
C4249 C 0.96931 0.37074 0.36407 0.0
C4250 C 0.99753 0.38226 0.37347 0.0
C4251 C 0.99757 0.37212 0.39033 0.0
C4252 C 0.9831 0.36165 0.39423 0.0
C4253 C 0.96917 0.36092 0.38123 0.0
C4254 C 0.01277 0.37241 0.40373 0.0
C4255 C 0.01019 0.37648 0.4233 0.0
C4256 C 0.02989 0.36959 0.39705 0.0
C4257 C 0.03352 0.36394 0.37698 0.0
C4258 C 0.02546 0.3491 0.36936 0.0
C4259 C 0.02885 0.3439 0.35041 0.0
C4260 C 0.04036 0.35335 0.33896 0.0
C4261 C 0.04854 0.36801 0.34646 0.0
C4262 C 0.04519 0.37329 0.36539 0.0
C4263 C 0.07425 0.37369 0.47047 0.0
C4264 C 0.08645 0.3862 0.46474 0.0
C4265 C 0.05957 0.37038 0.45901 0.0
C4266 C 0.05692 0.37945 0.4416 0.0
C4267 C 0.06927 0.39172 0.43584 0.0
C4268 C 0.08377 0.39511 0.44728 0.0
C4269 C 0.04138 0.37641 0.4292 0.0
C4270 C 0.0439 0.37178 0.40979 0.0
C4271 C 0.02425 0.37865 0.43605 0.0
C4272 C 0.02065 0.38415 0.45615 0.0
C4273 C 0.02752 0.39971 0.46338 0.0
C4274 C 0.02412 0.40477 0.48238 0.0
C4275 C 0.01373 0.39444 0.49423 0.0
C4276 C 0.00669 0.37906 0.48709 0.0
C4277 C 0.01008 0.37393 0.4681 0.0
H4278 H 0.01111 0.39839 0.50893 0.0
H4279 H 0.04296 0.34929 0.32429 0.0
H4280 H 0.3503 0.7844 0.40606 0.0
H4281 H 0.34796 0.76086 0.38263 0.0
H4282 H 0.39969 0.74419 0.39675 0.0
H4283 H 0.40209 0.76761 0.42032 0.0
H4284 H 0.39511 0.74276 0.35866 0.0
H4285 H 0.36398 0.72238 0.4137 0.0
H4286 H 0.34239 0.72337 0.43989 0.0
H4287 H 0.30143 0.72682 0.39817 0.0
H4288 H 0.3228 0.7261 0.37171 0.0
H4289 H 0.38721 0.65879 0.31416 0.0
H4290 H 0.39176 0.68301 0.33649 0.0
H4291 H 0.34058 0.70207 0.32362 0.0
H4292 H 0.33608 0.67792 0.30135 0.0
H4293 H 0.34574 0.7018 0.36158 0.0
H4294 H 0.37772 0.72242 0.30643 0.0
H4295 H 0.39978 0.72055 0.28078 0.0
H4296 H 0.43972 0.7155 0.32352 0.0
H4297 H 0.41786 0.71714 0.34944 0.0
C4298 C 0.36116 0.77567 0.40434 0.0
C4299 C 0.37637 0.77798 0.41525 0.0
C4300 C 0.35981 0.76218 0.39085 0.0
C4301 C 0.37357 0.75052 0.38798 0.0
C4302 C 0.38888 0.75297 0.39859 0.0
C4303 C 0.39025 0.76646 0.41208 0.0
C4304 C 0.37194 0.73573 0.37409 0.0
C4305 C 0.38442 0.73369 0.35947 0.0
C4306 C 0.35791 0.72392 0.37486 0.0
C4307 C 0.34501 0.72437 0.39073 0.0
C4308 C 0.35038 0.7235 0.41011 0.0
C4309 C 0.33818 0.72399 0.425 0.0
C4310 C 0.32055 0.72521 0.4207 0.0
C4311 C 0.31509 0.7259 0.40148 0.0
C4312 C 0.32724 0.72544 0.38653 0.0
C4313 C 0.37713 0.66836 0.31575 0.0
C4314 C 0.36142 0.66654 0.30573 0.0
C4315 C 0.37968 0.68219 0.32862 0.0
C4316 C 0.36656 0.69454 0.33173 0.0
C4317 C 0.35092 0.69278 0.32156 0.0
C4318 C 0.34839 0.67898 0.30874 0.0
C4319 C 0.36877 0.70897 0.34599 0.0
C4320 C 0.35641 0.71089 0.36074 0.0
C4321 C 0.38297 0.72057 0.3454 0.0
C4322 C 0.39614 0.71974 0.32986 0.0
C4323 C 0.3912 0.7208 0.31035 0.0
C4324 C 0.40367 0.7198 0.29577 0.0
C4325 C 0.42114 0.71786 0.30052 0.0
C4326 C 0.42618 0.71698 0.31987 0.0
C4327 C 0.41376 0.71796 0.33451 0.0
H4328 H 0.43077 0.71708 0.28921 0.0
H4329 H 0.31113 0.72558 0.43225 0.0
H4330 H 0.0945 0.59282 0.08083 0.0
H4331 H 0.06875 0.59764 0.10025 0.0
H4332 H 0.05212 0.63766 0.06097 0.0
H4333 H 0.07839 0.63301 0.0414 0.0
H4334 H 0.04668 0.64704 0.09865 0.0
H4335 H 0.0331 0.59759 0.06002 0.0
H4336 H 0.03804 0.56883 0.0456 0.0
H4337 H 0.04008 0.54602 0.10211 0.0
H4338 H 0.03538 0.57469 0.11689 0.0
H4339 H 0.96348 0.64916 0.14424 0.0
H4340 H 0.98681 0.64686 0.12047 0.0
H4341 H 0.00805 0.6034 0.15165 0.0
H4342 H 0.98461 0.60549 0.17525 0.0
H4343 H 0.0094 0.5968 0.11492 0.0
H4344 H 0.0254 0.64612 0.15365 0.0
H4345 H 0.02114 0.6748 0.16858 0.0
H4346 H 0.01501 0.69772 0.11249 0.0
H4347 H 0.01902 0.66912 0.09724 0.0
C4348 C 0.0854 0.60266 0.07622 0.0
C4349 C 0.08845 0.61242 0.0594 0.0
C4350 C 0.07058 0.60535 0.08738 0.0
C4351 C 0.05822 0.61777 0.08197 0.0
C4352 C 0.06139 0.62789 0.06541 0.0
C4353 C 0.07636 0.62522 0.05417 0.0
C4354 C 0.04212 0.61991 0.09376 0.0
C4355 C 0.03834 0.63613 0.10191 0.0
C4356 C 0.03135 0.60563 0.09841 0.0
C4357 C 0.034 0.58832 0.08956 0.0
C4358 C 0.0347 0.58646 0.06938 0.0
C4359 C 0.03745 0.57017 0.06114 0.0
C4360 C 0.0394 0.55561 0.07293 0.0
C4361 C 0.03857 0.55731 0.09299 0.0
C4362 C 0.03584 0.57357 0.10131 0.0
C4363 C 0.97316 0.63915 0.14608 0.0
C4364 C 0.97215 0.62754 0.16174 0.0
C4365 C 0.98656 0.63786 0.13247 0.0
C4366 C 0.99946 0.62512 0.13432 0.0
C4367 C 0.99831 0.61336 0.14979 0.0
C4368 C 0.98484 0.61453 0.1633 0.0
C4369 C 0.01412 0.62387 0.12018 0.0
C4370 C 0.01763 0.60778 0.11156 0.0
C4371 C 0.02465 0.63826 0.11518 0.0
C4372 C 0.02232 0.65546 0.12433 0.0
C4373 C 0.02302 0.65726 0.14451 0.0
C4374 C 0.02067 0.6735 0.15303 0.0
C4375 C 0.01775 0.68806 0.14149 0.0
C4376 C 0.01724 0.68642 0.12141 0.0
C4377 C 0.01956 0.6702 0.11283 0.0
H4378 H 0.01593 0.70062 0.14811 0.0
H4379 H 0.04154 0.54301 0.06653 0.0
H4380 H 0.11687 0.32816 0.79579 0.0
H4381 H 0.11081 0.30267 0.81615 0.0
H4382 H 0.15368 0.31627 0.85304 0.0
H4383 H 0.15981 0.34131 0.83288 0.0
H4384 H 0.15494 0.2831 0.84547 0.0
H4385 H 0.11094 0.32275 0.86757 0.0
H4386 H 0.08598 0.34239 0.86432 0.0
H4387 H 0.05571 0.30114 0.84008 0.0
H4388 H 0.08053 0.28119 0.84334 0.0
H4389 H 0.14027 0.23726 0.93233 0.0
H4390 H 0.14262 0.26018 0.90805 0.0
H4391 H 0.10275 0.23565 0.8742 0.0
H4392 H 0.10027 0.21266 0.89854 0.0
H4393 H 0.09848 0.27196 0.87721 0.0
H4394 H 0.14284 0.23149 0.85977 0.0
H4395 H 0.16808 0.21263 0.86544 0.0
H4396 H 0.19837 0.25675 0.88221 0.0
H4397 H 0.17322 0.27586 0.87691 0.0
C4398 C 0.12495 0.32566 0.80826 0.0
C4399 C 0.13886 0.33672 0.81265 0.0
C4400 C 0.12145 0.31114 0.81995 0.0
C4401 C 0.13178 0.3075 0.83623 0.0
C4402 C 0.14557 0.31865 0.84056 0.0
C4403 C 0.14904 0.33304 0.82898 0.0
C4404 C 0.12868 0.29202 0.84876 0.0
C4405 C 0.1426 0.28077 0.85248 0.0
C4406 C 0.11251 0.28862 0.85764 0.0
C4407 C 0.09763 0.30056 0.85547 0.0
C4408 C 0.099 0.31791 0.8614 0.0
C4409 C 0.08486 0.32909 0.85959 0.0
C4410 C 0.06929 0.32307 0.85184 0.0
C4411 C 0.06779 0.3058 0.84602 0.0
C4412 C 0.08187 0.29454 0.8479 0.0
C4413 C 0.13193 0.23677 0.91979 0.0
C4414 C 0.12012 0.22307 0.91738 0.0
C4415 C 0.13334 0.24985 0.90585 0.0
C4416 C 0.12294 0.24961 0.8892 0.0
C4417 C 0.11093 0.23611 0.88689 0.0
C4418 C 0.10963 0.22291 0.90074 0.0
C4419 C 0.12485 0.26336 0.87419 0.0
C4420 C 0.11073 0.27421 0.86999 0.0
C4421 C 0.14091 0.26653 0.865 0.0
C4422 C 0.15609 0.25509 0.86809 0.0
C4423 C 0.15484 0.23716 0.86481 0.0
C4424 C 0.16914 0.22642 0.86793 0.0
C4425 C 0.18481 0.23348 0.87422 0.0
C4426 C 0.18622 0.2513 0.87735 0.0
C4427 C 0.17195 0.26209 0.87427 0.0
H4428 H 0.19586 0.22515 0.87662 0.0
H4429 H 0.05836 0.33174 0.85043 0.0
H4430 H 0.53975 0.35833 0.64507 0.0
H4431 H 0.51617 0.35985 0.6215 0.0
H4432 H 0.48872 0.39539 0.65852 0.0
H4433 H 0.51208 0.39365 0.68221 0.0
H4434 H 0.46706 0.37256 0.64576 0.0
H4435 H 0.51056 0.40803 0.61585 0.0
H4436 H 0.53957 0.41454 0.6029 0.0
H4437 H 0.5341 0.3737 0.5613 0.0
H4438 H 0.50514 0.36678 0.57421 0.0
H4439 H 0.40693 0.41034 0.58239 0.0
H4440 H 0.43182 0.4047 0.60305 0.0
H4441 H 0.44884 0.36448 0.5643 0.0
H4442 H 0.42368 0.37015 0.54331 0.0
H4443 H 0.47593 0.38651 0.57654 0.0
H4444 H 0.43068 0.35294 0.60613 0.0
H4445 H 0.40162 0.34781 0.61979 0.0
H4446 H 0.41033 0.38724 0.6623 0.0
H4447 H 0.43939 0.39272 0.64888 0.0
C4448 C 0.52878 0.36662 0.64808 0.0
C4449 C 0.52783 0.37586 0.66556 0.0
C4450 C 0.51526 0.36749 0.63457 0.0
C4451 C 0.50061 0.37785 0.63807 0.0
C4452 C 0.49977 0.38722 0.65544 0.0
C4453 C 0.51317 0.38622 0.66901 0.0
C4454 C 0.48596 0.37874 0.62394 0.0
C4455 C 0.46905 0.37578 0.63067 0.0
C4456 C 0.48844 0.38248 0.60407 0.0
C4457 C 0.50576 0.38676 0.59614 0.0
C4458 C 0.51559 0.40036 0.60403 0.0
C4459 C 0.53202 0.40413 0.59669 0.0
C4460 C 0.5387 0.3945 0.58133 0.0
C4461 C 0.52893 0.38113 0.57323 0.0
C4462 C 0.5125 0.37727 0.58054 0.0
C4463 C 0.41593 0.40027 0.57819 0.0
C4464 C 0.41329 0.39067 0.5612 0.0
C4465 C 0.43016 0.39701 0.5901 0.0
C4466 C 0.44215 0.38404 0.58539 0.0
C4467 C 0.43974 0.37453 0.56827 0.0
C4468 C 0.42536 0.37774 0.55632 0.0
C4469 C 0.45711 0.38064 0.59851 0.0
C4470 C 0.47403 0.38312 0.59159 0.0
C4471 C 0.45466 0.37666 0.61828 0.0
C4472 C 0.43719 0.37332 0.62641 0.0
C4473 C 0.42636 0.3606 0.61831 0.0
C4474 C 0.4099 0.35761 0.62602 0.0
C4475 C 0.40412 0.36723 0.64183 0.0
C4476 C 0.41482 0.37981 0.65004 0.0
C4477 C 0.4313 0.38283 0.64242 0.0
H4478 H 0.39136 0.3649 0.64774 0.0
H4479 H 0.55143 0.39744 0.57568 0.0
H4480 H 0.14908 0.07749 0.2713 0.0
H4481 H 0.15703 0.04704 0.26658 0.0
H4482 H 0.10284 0.03341 0.2645 0.0
H4483 H 0.09505 0.0636 0.26997 0.0
H4484 H 0.11797 0.01207 0.28613 0.0
H4485 H 0.13086 0.0361 0.22317 0.0
H4486 H 0.14563 0.0568 0.20163 0.0
H4487 H 0.195 0.03697 0.21955 0.0
H4488 H 0.18051 0.01636 0.24151 0.0
H4489 H 0.1121 0.93923 0.2247 0.0
H4490 H 0.11976 0.96961 0.22905 0.0
H4491 H 0.15532 0.95559 0.27439 0.0
H4492 H 0.14746 0.92492 0.27033 0.0
H4493 H 0.15587 0.9901 0.23381 0.0
H4494 H 0.13788 0.96841 0.30201 0.0
H4495 H 0.11953 0.94698 0.31876 0.0
H4496 H 0.07568 0.96304 0.28508 0.0
H4497 H 0.09394 0.98427 0.26785 0.0
C4498 C 0.13895 0.06801 0.26938 0.0
C4499 C 0.12148 0.07285 0.27061 0.0
C4500 C 0.14348 0.0506 0.2668 0.0
C4501 C 0.13054 0.0379 0.26499 0.0
C4502 C 0.11308 0.04291 0.26594 0.0
C4503 C 0.10862 0.06016 0.26894 0.0
C4504 C 0.13484 0.01926 0.26268 0.0
C4505 C 0.12654 0.00739 0.27492 0.0
C4506 C 0.14595 0.01299 0.24796 0.0
C4507 C 0.15462 0.02483 0.23414 0.0
C4508 C 0.14487 0.0362 0.22257 0.0
C4509 C 0.15319 0.04793 0.21032 0.0
C4510 C 0.17125 0.04825 0.20928 0.0
C4511 C 0.18102 0.03674 0.22041 0.0
C4512 C 0.17276 0.02503 0.23276 0.0
C4513 C 0.12169 0.94256 0.23549 0.0
C4514 C 0.12887 0.9298 0.24754 0.0
C4515 C 0.12624 0.95989 0.23772 0.0
C4516 C 0.13809 0.96479 0.252 0.0
C4517 C 0.14617 0.95199 0.26325 0.0
C4518 C 0.14156 0.93455 0.26106 0.0
C4519 C 0.13906 0.98326 0.25741 0.0
C4520 C 0.14804 0.995 0.2456 0.0
C4521 C 0.12835 0.98957 0.27231 0.0
C4522 C 0.11723 0.97779 0.28365 0.0
C4523 C 0.12431 0.96735 0.29824 0.0
C4524 C 0.11395 0.95523 0.30777 0.0
C4525 C 0.09644 0.95362 0.30295 0.0
C4526 C 0.08924 0.96427 0.28876 0.0
C4527 C 0.09958 0.97633 0.27911 0.0
H4528 H 0.08844 0.94411 0.31015 0.0
H4529 H 0.17766 0.05737 0.1998 0.0
H4530 H 0.18122 0.84635 0.50949 0.0
H4531 H 0.21289 0.84819 0.50917 0.0
H4532 H 0.20992 0.90314 0.5197 0.0
H4533 H 0.17823 0.90128 0.52073 0.0
H4534 H 0.23543 0.8909 0.49002 0.0
H4535 H 0.2172 0.88373 0.55507 0.0
H4536 H 0.20107 0.87045 0.58176 0.0
H4537 H 0.22864 0.82274 0.57363 0.0
H4538 H 0.2445 0.83557 0.54618 0.0
H4539 H 0.32445 0.89916 0.51018 0.0
H4540 H 0.29313 0.90226 0.51403 0.0
H4541 H 0.28866 0.84709 0.52296 0.0
H4542 H 0.32007 0.84421 0.52052 0.0
H4543 H 0.26621 0.86205 0.54411 0.0
H4544 H 0.28295 0.86971 0.47651 0.0
H4545 H 0.29865 0.88426 0.45009 0.0
H4546 H 0.27393 0.93241 0.46424 0.0
H4547 H 0.25823 0.91819 0.4909 0.0
C4548 C 0.18731 0.85887 0.51137 0.0
C4549 C 0.17734 0.87369 0.51515 0.0
C4550 C 0.20536 0.85988 0.51129 0.0
C4551 C 0.21364 0.87577 0.51459 0.0
C4552 C 0.2037 0.89078 0.51716 0.0
C4553 C 0.18566 0.8897 0.51771 0.0
C4554 C 0.23267 0.87649 0.51639 0.0
C4555 C 0.24222 0.88475 0.50191 0.0
C4556 C 0.24138 0.86841 0.53192 0.0
C4557 C 0.23183 0.86054 0.54832 0.0
C4558 C 0.21962 0.87031 0.55871 0.0
C4559 C 0.21054 0.86286 0.57403 0.0
C4560 C 0.21378 0.84574 0.57942 0.0
C4561 C 0.2261 0.836 0.56941 0.0
C4562 C 0.23509 0.84334 0.5539 0.0
C4563 C 0.31677 0.88779 0.5134 0.0
C4564 C 0.3246 0.87145 0.51493 0.0
C4565 C 0.29886 0.88952 0.51537 0.0
C4566 C 0.28841 0.87482 0.51809 0.0
C4567 C 0.29638 0.85862 0.52069 0.0
C4568 C 0.31435 0.85697 0.51929 0.0
C4569 C 0.26921 0.87605 0.51737 0.0
C4570 C 0.25953 0.86818 0.53214 0.0
C4571 C 0.26037 0.88455 0.50209 0.0
C4572 C 0.26958 0.89294 0.48581 0.0
C4573 C 0.28093 0.88342 0.47403 0.0
C4574 C 0.28984 0.89162 0.45902 0.0
C4575 C 0.28737 0.90929 0.45558 0.0
C4576 C 0.27588 0.91875 0.46699 0.0
C4577 C 0.26697 0.91063 0.48203 0.0
H4578 H 0.29431 0.91569 0.44406 0.0
H4579 H 0.2068 0.84005 0.5914 0.0
H4580 H 0.4028 0.93033 0.75102 0.0
H4581 H 0.40452 0.96199 0.75158 0.0
H4582 H 0.36112 0.96391 0.79068 0.0
H4583 H 0.35934 0.9323 0.79024 0.0
H4584 H 0.38283 0.98588 0.74061 0.0
H4585 H 0.36839 0.00135 0.82277 0.0
H4586 H 0.37457 0.98972 0.85514 0.0
H4587 H 0.41394 0.95676 0.8315 0.0
H4588 H 0.40882 0.96894 0.79916 0.0
H4589 H 0.35829 0.07185 0.74945 0.0
H4590 H 0.35799 0.04063 0.75508 0.0
H4591 H 0.40688 0.0443 0.78489 0.0
H4592 H 0.40712 0.0757 0.77955 0.0
H4593 H 0.38583 0.01994 0.80125 0.0
H4594 H 0.4082 0.03353 0.73961 0.0
H4595 H 0.40842 0.04893 0.70844 0.0
H4596 H 0.36104 0.02381 0.69223 0.0
H4597 H 0.36039 0.0084 0.72351 0.0
C4598 C 0.39354 0.93752 0.75959 0.0
C4599 C 0.38095 0.92885 0.77056 0.0
C4600 C 0.39456 0.95559 0.75997 0.0
C4601 C 0.3831 0.96529 0.77143 0.0
C4602 C 0.37027 0.95666 0.78203 0.0
C4603 C 0.36917 0.93861 0.78159 0.0
C4604 C 0.38416 0.98447 0.77169 0.0
C4605 C 0.38343 0.99323 0.75394 0.0
C4606 C 0.38541 0.99416 0.78907 0.0
C4607 C 0.38798 0.98592 0.80832 0.0
C4608 C 0.37843 0.99167 0.82442 0.0
C4609 C 0.38187 0.9851 0.84283 0.0
C4610 C 0.3946 0.97248 0.84536 0.0
C4611 C 0.404 0.96648 0.8295 0.0
C4612 C 0.40088 0.97328 0.8111 0.0
C4613 C 0.36882 0.06606 0.75752 0.0
C4614 C 0.38287 0.07611 0.76382 0.0
C4615 C 0.36864 0.04823 0.7607 0.0
C4616 C 0.38257 0.04014 0.77008 0.0
C4617 C 0.39604 0.05031 0.77756 0.0
C4618 C 0.3962 0.06821 0.77445 0.0
C4619 C 0.38377 0.021 0.77039 0.0
C4620 C 0.38501 0.01236 0.78811 0.0
C4621 C 0.38357 0.01134 0.75308 0.0
C4622 C 0.38418 0.01993 0.73394 0.0
C4623 C 0.3978 0.03132 0.72942 0.0
C4624 C 0.398 0.04005 0.71177 0.0
C4625 C 0.38473 0.03736 0.69844 0.0
C4626 C 0.37129 0.02586 0.70263 0.0
C4627 C 0.37101 0.01711 0.72031 0.0
H4628 H 0.38491 0.0442 0.68488 0.0
H4629 H 0.39722 0.96742 0.85964 0.0
H4630 H 0.17251 0.10419 0.01866 0.0
H4631 H 0.20318 0.09672 0.02348 0.0
H4632 H 0.21809 0.14111 0.98936 0.0
H4633 H 0.18785 0.14814 0.98403 0.0
H4634 H 0.23747 0.11528 0.97992 0.0
H4635 H 0.21733 0.14069 0.04044 0.0
H4636 H 0.19903 0.14179 0.06962 0.0
H4637 H 0.21749 0.09162 0.08676 0.0
H4638 H 0.23573 0.09015 0.05753 0.0
H4639 H 0.31124 0.14844 0.04304 0.0
H4640 H 0.28109 0.14052 0.03841 0.0
H4641 H 0.29656 0.09859 1.00095 0.0
H4642 H 0.32702 0.10704 1.005 0.0
H4643 H 0.26203 0.11415 0.04603 0.0
H4644 H 0.26405 0.09293 0.96675 0.0
H4645 H 0.28195 0.09649 0.93747 0.0
H4646 H 0.29956 0.14591 0.95797 0.0
H4647 H 0.28153 0.14278 0.98713 0.0
C4648 C 0.18241 0.11226 1.01222 0.0
C4649 C 0.17787 0.12679 1.0011 0.0
C4650 C 0.19988 0.108 0.01495 0.0
C4651 C 0.21296 0.11838 1.00682 0.0
C4652 C 0.20828 0.13279 0.99564 0.0
C4653 C 0.19096 0.1369 0.99274 0.0
C4654 C 0.23161 0.11505 1.01034 0.0
C4655 C 0.24284 0.11477 0.99438 0.0
C4656 C 0.23865 0.11433 0.02918 0.0
C4657 C 0.22768 0.1152 0.04669 0.0
C4658 C 0.21737 0.12984 0.05036 0.0
C4659 C 0.20703 0.13054 0.06691 0.0
C4660 C 0.20704 0.11676 0.07999 0.0
C4661 C 0.21744 0.10227 0.07658 0.0
C4662 C 0.22778 0.10149 0.06003 0.0
C4663 C 0.30825 0.13756 0.03375 0.0
C4664 C 0.32141 0.12851 0.02413 0.0
C4665 C 0.29099 0.13292 0.03127 0.0
C4666 C 0.28649 0.11902 0.01924 0.0
C4667 C 0.29969 0.10952 1.01009 0.0
C4668 C 0.31705 0.11435 1.01238 0.0
C4669 C 0.26788 0.11546 0.01562 0.0
C4670 C 0.25668 0.11416 0.03154 0.0
C4671 C 0.26084 0.11538 0.99675 0.0
C4672 C 0.27169 0.11747 0.97925 0.0
C4673 C 0.27174 0.10455 0.96497 0.0
C4674 C 0.28187 0.10651 0.94838 0.0
C4675 C 0.29194 0.12138 0.94589 0.0
C4676 C 0.2918 0.13438 0.95992 0.0
C4677 C 0.28164 0.13252 0.97649 0.0
H4678 H 0.29982 0.12283 0.93308 0.0
H4679 H 0.19904 0.11733 0.0928 0.0
H4680 H 0.89693 0.07198 0.74268 0.0
H4681 H 0.89307 0.04124 0.73545 0.0
H4682 H 0.8441 0.04164 0.76547 0.0
H4683 H 0.84818 0.07222 0.7732 0.0
H4684 H 0.86327 0.01792 0.77936 0.0
H4685 H 0.84728 0.03294 0.71604 0.0
H4686 H 0.84826 0.04675 0.68398 0.0
H4687 H 0.89624 0.021 0.67164 0.0
H4688 H 0.89575 0.00729 0.70377 0.0
H4689 H 0.8571 0.92605 0.76396 0.0
H4690 H 0.85137 0.9574 0.76507 0.0
H4691 H 0.89952 0.967 0.73529 0.0
H4692 H 0.90492 0.93608 0.73363 0.0
H4693 H 0.87605 0.98547 0.71958 0.0
H4694 H 0.89352 0.97439 0.78501 0.0
H4695 H 0.89299 0.96183 0.81774 0.0
H4696 H 0.84134 0.98091 0.82616 0.0
H4697 H 0.84148 0.99339 0.79336 0.0
C4698 C 0.88518 0.06558 0.74738 0.0
C4699 C 0.87297 0.07438 0.75872 0.0
C4700 C 0.8829 0.04803 0.74309 0.0
C4701 C 0.86825 0.03909 0.74985 0.0
C4702 C 0.85551 0.04824 0.76011 0.0
C4703 C 0.85786 0.06571 0.76454 0.0
C4704 C 0.86755 0.01989 0.74883 0.0
C4705 C 0.86555 0.01078 0.76621 0.0
C4706 C 0.87091 0.0106 0.73166 0.0
C4707 C 0.87156 0.01921 0.71247 0.0
C4708 C 0.85816 0.03039 0.70661 0.0
C4709 C 0.8586 0.03816 0.68838 0.0
C4710 C 0.87232 0.03479 0.67579 0.0
C4711 C 0.88563 0.02363 0.68141 0.0
C4712 C 0.88528 0.01585 0.69964 0.0
C4713 C 0.86647 0.93494 0.75786 0.0
C4714 C 0.88145 0.92868 0.74877 0.0
C4715 C 0.86323 0.95281 0.75851 0.0
C4716 C 0.87508 0.96459 0.75033 0.0
C4717 C 0.89014 0.95823 0.74159 0.0
C4718 C 0.89325 0.94051 0.74075 0.0
C4719 C 0.87183 0.98355 0.75026 0.0
C4720 C 0.87324 0.99259 0.73269 0.0
C4721 C 0.86782 0.99281 0.76726 0.0
C4722 C 0.86739 0.98454 0.78659 0.0
C4723 C 0.88194 0.97565 0.79372 0.0
C4724 C 0.88174 0.96862 0.81232 0.0
C4725 C 0.86711 0.97049 0.82399 0.0
C4726 C 0.85263 0.97939 0.81707 0.0
C4727 C 0.85276 0.98642 0.79847 0.0
H4728 H 0.86701 0.96511 0.83842 0.0
H4729 H 0.87262 0.0408 0.66167 0.0
H4730 H 0.67512 0.11373 0.50521 0.0
H4731 H 0.70647 0.10776 0.50364 0.0
H4732 H 0.71527 0.14479 0.54918 0.0
H4733 H 0.6844 0.15046 0.5511 0.0
H4734 H 0.73534 0.15014 0.51536 0.0
H4735 H 0.71919 0.10527 0.56072 0.0
H4736 H 0.70267 0.07958 0.57108 0.0
H4737 H 0.72343 0.05047 0.52364 0.0
H4738 H 0.73995 0.07608 0.51285 0.0
H4739 H 0.82261 0.14386 0.53797 0.0
H4740 H 0.79146 0.14131 0.54395 0.0
H4741 H 0.78837 0.09968 0.50258 0.0
H4742 H 0.81951 0.10182 0.49697 0.0
H4743 H 0.76511 0.09522 0.5322 0.0
H4744 H 0.78436 0.14008 0.4896 0.0
H4745 H 0.80018 0.16615 0.4794 0.0
H4746 H 0.77314 0.19627 0.52185 0.0
H4747 H 0.75725 0.17028 0.5325 0.0
C4748 C 0.68377 0.12034 0.51503 0.0
C4749 C 0.67736 0.13259 0.52818 0.0
C4750 C 0.70161 0.11698 0.5141 0.0
C4751 C 0.71311 0.12593 0.52625 0.0
C4752 C 0.70661 0.13785 0.53961 0.0
C4753 C 0.68894 0.14108 0.54063 0.0
C4754 C 0.73206 0.12376 0.52469 0.0
C4755 C 0.7419 0.13819 0.51918 0.0
C4756 C 0.74045 0.10805 0.5293 0.0
C4757 C 0.73064 0.09264 0.53584 0.0
C4758 C 0.72011 0.09344 0.5524 0.0
C4759 C 0.71078 0.07889 0.55837 0.0
C4760 C 0.71194 0.06343 0.54799 0.0
C4761 C 0.72251 0.06247 0.53165 0.0
C4762 C 0.73188 0.07699 0.5256 0.0
C4763 C 0.81534 0.1339 0.53053 0.0
C4764 C 0.82334 0.12331 0.51672 0.0
C4765 C 0.79758 0.13244 0.53396 0.0
C4766 C 0.78759 0.12056 0.52337 0.0
C4767 C 0.79584 0.10896 0.51083 0.0
C4768 C 0.81361 0.1103 0.50755 0.0
C4769 C 0.76847 0.12179 0.52338 0.0
C4770 C 0.75859 0.10718 0.52837 0.0
C4771 C 0.76 0.13744 0.51834 0.0
C4772 C 0.76962 0.15313 0.51192 0.0
C4773 C 0.78182 0.1522 0.49687 0.0
C4774 C 0.79081 0.16699 0.49098 0.0
C4775 C 0.78769 0.18286 0.49999 0.0
C4776 C 0.77555 0.18397 0.51488 0.0
C4777 C 0.76652 0.1692 0.52083 0.0
H4778 H 0.79466 0.19431 0.49541 0.0
H4779 H 0.7047 0.05217 0.55263 0.0
H4780 H 0.63922 0.08031 0.27934 0.0
H4781 H 0.64878 0.05041 0.28567 0.0
H4782 H 0.62208 0.03331 0.23438 0.0
H4783 H 0.61276 0.06284 0.228 0.0
H4784 H 0.62775 0.02352 0.29293 0.0
H4785 H 0.64095 0.99896 0.21447 0.0
H4786 H 0.65447 0.00962 0.1847 0.0
H4787 H 0.68483 0.0458 0.21736 0.0
H4788 H 0.67178 0.03501 0.24755 0.0
H4789 H 0.5974 0.9407 0.27659 0.0
H4790 H 0.60512 0.97119 0.27354 0.0
H4791 H 0.65897 0.95721 0.26791 0.0
H4792 H 0.6511 0.92645 0.27055 0.0
H4793 H 0.65066 0.98295 0.24365 0.0
H4794 H 0.64163 0.97057 0.30968 0.0
H4795 H 0.6254 0.95859 0.33711 0.0
H4796 H 0.58606 0.9972 0.32988 0.0
H4797 H 0.60111 0.00848 0.30121 0.0
C4798 C 0.63572 0.07016 0.26929 0.0
C4799 C 0.62519 0.07379 0.25326 0.0
C4800 C 0.64116 0.05313 0.27291 0.0
C4801 C 0.63634 0.03966 0.26036 0.0
C4802 C 0.62627 0.0435 0.24405 0.0
C4803 C 0.62078 0.06037 0.24054 0.0
C4804 C 0.63989 0.02126 0.26511 0.0
C4805 C 0.63297 0.01463 0.28231 0.0
C4806 C 0.64712 0.00976 0.25139 0.0
C4807 C 0.65534 0.01616 0.23333 0.0
C4808 C 0.65064 0.00906 0.21538 0.0
C4809 C 0.65823 0.01515 0.19839 0.0
C4810 C 0.67052 0.0284 0.19909 0.0
C4811 C 0.67529 0.03554 0.21683 0.0
C4812 C 0.6678 0.02943 0.23391 0.0
C4813 C 0.61087 0.94412 0.27447 0.0
C4814 C 0.62367 0.93127 0.27361 0.0
C4815 C 0.61529 0.96154 0.27286 0.0
C4816 C 0.63267 0.96651 0.27096 0.0
C4817 C 0.64548 0.95365 0.26946 0.0
C4818 C 0.64099 0.93611 0.27078 0.0
C4819 C 0.63721 0.98519 0.27072 0.0
C4820 C 0.6458 0.99183 0.25449 0.0
C4821 C 0.63134 0.99671 0.28528 0.0
C4822 C 0.62257 0.99039 0.30312 0.0
C4823 C 0.62944 0.97646 0.31376 0.0
C4824 C 0.62041 0.96973 0.32954 0.0
C4825 C 0.60488 0.97728 0.33546 0.0
C4826 C 0.59816 0.99141 0.32536 0.0
C4827 C 0.60686 0.99787 0.30919 0.0
H4828 H 0.59801 0.97211 0.34781 0.0
H4829 H 0.67636 0.03313 0.18589 0.0
H4830 H 0.67868 0.85625 0.03493 0.0
H4831 H 0.71023 0.85755 0.03905 0.0
H4832 H 0.7137 0.89262 0.9906 0.0
H4833 H 0.68253 0.8921 0.9872 0.0
H4834 H 0.73494 0.84751 0.01776 0.0
H4835 H 0.74742 0.91793 0.99159 0.0
H4836 H 0.73303 0.94643 0.99273 0.0
H4837 H 0.70592 0.93137 0.04419 0.0
H4838 H 0.72032 0.90287 0.0435 0.0
H4839 H 0.82372 0.85398 0.99471 0.0
H4840 H 0.79205 0.85567 0.99255 0.0
H4841 H 0.79158 0.89312 0.03884 0.0
H4842 H 0.82295 0.89222 0.04021 0.0
H4843 H 0.76876 0.90206 0.01527 0.0
H4844 H 0.78292 0.84828 0.04564 0.0
H4845 H 0.79699 0.81973 0.04885 0.0
H4846 H 0.77064 0.80183 0.99808 0.0
H4847 H 0.75659 0.83035 0.99441 0.0
C4848 C 0.68624 0.86445 0.02544 0.0
C4849 C 0.67818 0.87414 1.01086 0.0
C4850 C 0.70424 0.86512 0.0277 0.0
C4851 C 0.7144 0.87533 0.01526 0.0
C4852 C 0.70624 0.88498 1.00071 0.0
C4853 C 0.68833 0.88462 0.99873 0.0
C4854 C 0.73357 0.87538 0.01682 0.0
C4855 C 0.74232 0.85945 0.01737 0.0
C4856 C 0.74327 0.89095 0.01659 0.0
C4857 C 0.73488 0.90823 0.01742 0.0
C4858 C 0.73849 0.92075 1.00322 0.0
C4859 C 0.7303 0.93689 1.00377 0.0
C4860 C 0.71855 0.9407 0.0185 0.0
C4861 C 0.715 0.92839 0.03276 0.0
C4862 C 0.72316 0.91224 0.0323 0.0
C4863 C 0.8168 0.86274 1.00417 0.0
C4864 C 0.82576 0.87286 0.01769 0.0
C4865 C 0.79873 0.8636 1.00307 0.0
C4866 C 0.78937 0.87424 0.01584 0.0
C4867 C 0.79844 0.88479 0.02884 0.0
C4868 C 0.81643 0.88422 0.02964 0.0
C4869 C 0.77014 0.87419 0.01617 0.0
C4870 C 0.76138 0.89012 0.01586 0.0
C4871 C 0.76045 0.85866 0.01746 0.0
C4872 C 0.76884 0.84149 0.01965 0.0
C4873 C 0.78022 0.83828 0.03509 0.0
C4874 C 0.78817 0.82211 0.03701 0.0
C4875 C 0.78474 0.809 0.02366 0.0
C4876 C 0.77331 0.81201 1.00839 0.0
C4877 C 0.76534 0.82817 1.00639 0.0
H4878 H 0.79091 0.79649 0.02517 0.0
H4879 H 0.7122 0.95319 0.01888 0.0
H4880 H 0.59819 0.57474 0.74798 0.0
H4881 H 0.59642 0.54307 0.74683 0.0
H4882 H 0.63904 0.53938 0.78682 0.0
H4883 H 0.64092 0.57095 0.78802 0.0
H4884 H 0.61866 0.51913 0.7357 0.0
H4885 H 0.6294 0.50205 0.81822 0.0
H4886 H 0.62203 0.51365 0.85029 0.0
H4887 H 0.58391 0.547 0.82482 0.0
H4888 H 0.59018 0.53484 0.79276 0.0
H4889 H 0.64274 0.43196 0.74542 0.0
H4890 H 0.64203 0.46349 0.74851 0.0
H4891 H 0.59391 0.45998 0.77992 0.0
H4892 H 0.59474 0.42839 0.7772 0.0
H4893 H 0.61315 0.48383 0.79522 0.0
H4894 H 0.59485 0.46951 0.73246 0.0
H4895 H 0.59486 0.45712 0.69969 0.0
H4896 H 0.6395 0.48754 0.68505 0.0
H4897 H 0.64018 0.4996 0.71794 0.0
C4898 C 0.60728 0.56716 0.75636 0.0
C4899 C 0.61965 0.57529 0.7681 0.0
C4900 C 0.60623 0.54909 0.75575 0.0
C4901 C 0.61742 0.53891 0.76701 0.0
C4902 C 0.6301 0.54702 0.77831 0.0
C4903 C 0.63124 0.56505 0.77882 0.0
C4904 C 0.61611 0.51977 0.76662 0.0
C4905 C 0.61755 0.5114 0.74873 0.0
C4906 C 0.61403 0.50976 0.78365 0.0
C4907 C 0.61054 0.5177 0.80287 0.0
C4908 C 0.61936 0.51179 0.8194 0.0
C4909 C 0.61524 0.51834 0.83765 0.0
C4910 C 0.60259 0.53113 0.83957 0.0
C4911 C 0.59382 0.53719 0.82329 0.0
C4912 C 0.5976 0.5304 0.80506 0.0
C4913 C 0.63214 0.43791 0.75322 0.0
C4914 C 0.61871 0.42777 0.76093 0.0
C4915 C 0.63168 0.45592 0.75485 0.0
C4916 C 0.61773 0.4641 0.76408 0.0
C4917 C 0.60475 0.45394 0.77263 0.0
C4918 C 0.60523 0.4359 0.77108 0.0
C4919 C 0.6165 0.48327 0.76443 0.0
C4920 C 0.61449 0.49161 0.78227 0.0
C4921 C 0.61748 0.49329 0.74734 0.0
C4922 C 0.61768 0.48533 0.7278 0.0
C4923 C 0.60488 0.47331 0.72239 0.0
C4924 C 0.60475 0.46635 0.70377 0.0
C4925 C 0.61719 0.47149 0.69031 0.0
C4926 C 0.62992 0.48346 0.69551 0.0
C4927 C 0.63022 0.49034 0.71416 0.0
H4928 H 0.61684 0.46632 0.67583 0.0
H4929 H 0.59953 0.53626 0.8537 0.0
H4930 H 0.8183 0.36615 0.98096 0.0
H4931 H 0.78693 0.36813 0.9837 0.0
H4932 H 0.79178 0.3791 0.04458 0.0
H4933 H 0.82345 0.37621 0.04195 0.0
H4934 H 0.76573 0.35955 0.04018 0.0
H4935 H 0.78239 0.41172 1.00962 0.0
H4936 H 0.79762 0.43041 0.98627 0.0
H4937 H 0.77029 0.40625 0.93953 0.0
H4938 H 0.75503 0.38725 0.96259 0.0
H4939 H 0.67641 0.39961 0.0204 0.0
H4940 H 0.70802 0.40215 0.01964 0.0
H4941 H 0.71219 0.34753 1.00754 0.0
H4942 H 0.68055 0.345 1.00774 0.0
H4943 H 0.73335 0.39346 0.99112 0.0
H4944 H 0.74419 0.33349 0.04162 0.0
H4945 H 0.7296 0.31915 0.069 0.0
H4946 H 0.70219 0.36612 0.08178 0.0
H4947 H 0.7169 0.38085 0.05489 0.0
C4948 C 0.81262 0.36887 0.99495 0.0
C4949 C 0.8231 0.3711 1.01127 0.0
C4950 C 0.79472 0.37013 0.99648 0.0
C4951 C 0.78695 0.3742 0.01423 0.0
C4952 C 0.79746 0.37606 0.0307 0.0
C4953 C 0.81548 0.37442 0.02924 0.0
C4954 C 0.76787 0.37628 0.01536 0.0
C4955 C 0.75869 0.36701 0.02948 0.0
C4956 C 0.75862 0.38651 1.00182 0.0
C4957 C 0.76758 0.39805 0.98785 0.0
C4958 C 0.77966 0.41036 0.99436 0.0
C4959 C 0.78829 0.42101 0.98118 0.0
C4960 C 0.78488 0.41955 0.96145 0.0
C4961 C 0.77285 0.40741 0.95484 0.0
C4962 C 0.76418 0.39672 0.96796 0.0
C4963 C 0.68408 0.38824 0.01712 0.0
C4964 C 0.6761 0.37212 0.01409 0.0
C4965 C 0.70208 0.38971 0.01675 0.0
C4966 C 0.71235 0.37499 0.01378 0.0
C4967 C 0.70441 0.359 1.01001 0.0
C4968 C 0.68638 0.35759 1.00999 0.0
C4969 C 0.73138 0.37614 0.01536 0.0
C4970 C 0.74048 0.38606 1.0018 0.0
C4971 C 0.74054 0.3671 0.02989 0.0
C4972 C 0.73147 0.35819 0.046 0.0
C4973 C 0.73506 0.34076 0.05029 0.0
C4974 C 0.72679 0.33257 0.06577 0.0
C4975 C 0.71493 0.3417 0.0771 0.0
C4976 C 0.71132 0.35904 0.07299 0.0
C4977 C 0.7196 0.3673 0.05759 0.0
H4978 H 0.70856 0.33536 0.0891 0.0
H4979 H 0.79154 0.42786 0.95129 0.0
H4980 H 0.90599 0.57089 0.27552 0.0
H4981 H 0.90575 0.53917 0.2772 0.0
H4982 H 0.85841 0.53807 0.24421 0.0
H4983 H 0.85859 0.56967 0.24244 0.0
H4984 H 0.88384 0.5152 0.29115 0.0
H4985 H 0.86178 0.50197 0.21153 0.0
H4986 H 0.86421 0.51465 0.17912 0.0
H4987 H 0.90742 0.54541 0.19758 0.0
H4988 H 0.9059 0.53217 0.22991 0.0
H4989 H 0.85693 0.42914 0.2801 0.0
H4990 H 0.85739 0.46063 0.27697 0.0
H4991 H 0.90454 0.45745 0.24381 0.0
H4992 H 0.90416 0.42579 0.24689 0.0
H4993 H 0.88219 0.48216 0.22972 0.0
H4994 H 0.90829 0.46684 0.28919 0.0
H4995 H 0.91027 0.45109 0.32006 0.0
H4996 H 0.86472 0.47706 0.34057 0.0
H4997 H 0.86229 0.49281 0.30961 0.0
C4998 C 0.89542 0.56387 0.26886 0.0
C4999 C 0.88241 0.57272 0.2587 0.0
C5000 C 0.8953 0.54577 0.26982 0.0
C5001 C 0.88223 0.53626 0.26052 0.0
C5002 C 0.86878 0.54514 0.25118 0.0
C5003 C 0.86886 0.5632 0.25028 0.0
C5004 C 0.8829 0.51706 0.2601 0.0
C5005 C 0.8834 0.50802 0.2777 0.0
C5006 C 0.88279 0.50764 0.24252 0.0
C5007 C 0.88352 0.51624 0.22332 0.0
C5008 C 0.87181 0.51144 0.20872 0.0
C5009 C 0.87307 0.5187 0.19031 0.0
C5010 C 0.88586 0.53098 0.18631 0.0
C5011 C 0.89746 0.53597 0.20073 0.0
C5012 C 0.89644 0.52854 0.21911 0.0
C5013 C 0.86727 0.43511 0.2719 0.0
C5014 C 0.88064 0.42505 0.26392 0.0
C5015 C 0.86754 0.4531 0.27019 0.0
C5016 C 0.88116 0.46136 0.26046 0.0
C5017 C 0.89397 0.4513 0.25146 0.0
C5018 C 0.89375 0.43325 0.25324 0.0
C5019 C 0.88247 0.4805 0.26066 0.0
C5020 C 0.88244 0.48946 0.24309 0.0
C5021 C 0.88341 0.48986 0.27817 0.0
C5022 C 0.88504 0.4809 0.29704 0.0
C5023 C 0.89864 0.46914 0.30024 0.0
C5024 C 0.89985 0.46022 0.31773 0.0
C5025 C 0.88762 0.46307 0.33221 0.0
C5026 C 0.87418 0.47489 0.32929 0.0
C5027 C 0.87289 0.48384 0.31178 0.0
H5028 H 0.8886 0.4561 0.34567 0.0
H5029 H 0.88691 0.53647 0.17199 0.0
H5030 H 0.68175 0.65393 0.53025 0.0
H5031 H 0.71331 0.65158 0.53247 0.0
H5032 H 0.71159 0.60327 0.50124 0.0
H5033 H 0.68012 0.60538 0.49929 0.0
H5034 H 0.73652 0.6026 0.52822 0.0
H5035 H 0.71882 0.63945 0.47685 0.0
H5036 H 0.70285 0.66348 0.46161 0.0
H5037 H 0.72935 0.69996 0.49786 0.0
H5038 H 0.74531 0.67609 0.51352 0.0
H5039 H 0.82588 0.60636 0.50137 0.0
H5040 H 0.79424 0.60416 0.49928 0.0
H5041 H 0.78958 0.65468 0.52558 0.0
H5042 H 0.82106 0.65728 0.52633 0.0
H5043 H 0.76735 0.65237 0.49876 0.0
H5044 H 0.78612 0.61155 0.54937 0.0
H5045 H 0.79973 0.58529 0.56259 0.0
H5046 H 0.77135 0.55378 0.52272 0.0
H5047 H 0.7571 0.57979 0.50954 0.0
C5048 C 0.68809 0.64263 0.52428 0.0
C5049 C 0.67858 0.62998 0.51433 0.0
C5050 C 0.70609 0.64133 0.52547 0.0
C5051 C 0.71476 0.62744 0.51663 0.0
C5052 C 0.70515 0.61413 0.50804 0.0
C5053 C 0.68718 0.6154 0.5069 0.0
C5054 C 0.73383 0.62756 0.51478 0.0
C5055 C 0.74333 0.6134 0.52168 0.0
C5056 C 0.74258 0.64156 0.50597 0.0
C5057 C 0.73313 0.65597 0.49649 0.0
C5058 C 0.72115 0.65258 0.48167 0.0
C5059 C 0.71211 0.66617 0.47294 0.0
C5060 C 0.71505 0.68323 0.4788 0.0
C5061 C 0.72707 0.68674 0.49336 0.0
C5062 C 0.73613 0.67319 0.50216 0.0
C5063 C 0.81799 0.61706 0.50632 0.0
C5064 C 0.82571 0.63206 0.51376 0.0
C5065 C 0.79996 0.61573 0.50538 0.0
C5066 C 0.78947 0.6291 0.51266 0.0
C5067 C 0.79734 0.6442 0.51982 0.0
C5068 C 0.8153 0.64573 0.52018 0.0
C5069 C 0.77032 0.62766 0.51293 0.0
C5070 C 0.76068 0.64156 0.50545 0.0
C5071 C 0.76148 0.61316 0.52077 0.0
C5072 C 0.77054 0.59767 0.52843 0.0
C5073 C 0.78274 0.59906 0.5434 0.0
C5074 C 0.79059 0.58421 0.5509 0.0
C5075 C 0.78654 0.56791 0.54343 0.0
C5076 C 0.77451 0.56641 0.52849 0.0
C5077 C 0.76646 0.58119 0.52107 0.0
H5078 H 0.79269 0.55645 0.54926 0.0
H5079 H 0.70804 0.69374 0.47203 0.0
H5080 H 0.4015 0.57068 0.24468 0.0
H5081 H 0.39837 0.53912 0.24269 0.0
H5082 H 0.35147 0.54199 0.27634 0.0
H5083 H 0.35447 0.57342 0.27833 0.0
H5084 H 0.37545 0.51918 0.29155 0.0
H5085 H 0.34949 0.53194 0.22951 0.0
H5086 H 0.3485 0.54436 0.1967 0.0
H5087 H 0.39331 0.51469 0.1808 0.0
H5088 H 0.39468 0.50231 0.2135 0.0
H5089 H 0.35204 0.42882 0.24828 0.0
H5090 H 0.3499 0.46029 0.25032 0.0
H5091 H 0.39942 0.46225 0.27901 0.0
H5092 H 0.40162 0.4306 0.27708 0.0
H5093 H 0.37245 0.48264 0.23278 0.0
H5094 H 0.39988 0.49821 0.30749 0.0
H5095 H 0.40252 0.48414 0.33935 0.0
H5096 H 0.35495 0.45677 0.3296 0.0
H5097 H 0.35198 0.47073 0.29773 0.0
C5098 C 0.39032 0.5646 0.25127 0.0
C5099 C 0.37831 0.57446 0.26179 0.0
C5100 C 0.38856 0.5466 0.25015 0.0
C5101 C 0.37475 0.53825 0.2595 0.0
C5102 C 0.36227 0.54819 0.26915 0.0
C5103 C 0.36397 0.56615 0.27018 0.0
C5104 C 0.37393 0.51913 0.26045 0.0
C5105 C 0.3747 0.51119 0.27869 0.0
C5106 C 0.3731 0.50873 0.24369 0.0
C5107 C 0.37228 0.51632 0.22403 0.0
C5108 C 0.35922 0.5282 0.21906 0.0
C5109 C 0.35856 0.5352 0.20045 0.0
C5110 C 0.37084 0.53035 0.18665 0.0
C5111 C 0.38379 0.51846 0.19144 0.0
C5112 C 0.38451 0.51144 0.21001 0.0
C5113 C 0.36234 0.43591 0.25535 0.0
C5114 C 0.37707 0.42731 0.2624 0.0
C5115 C 0.36112 0.45389 0.25642 0.0
C5116 C 0.37453 0.46358 0.2647 0.0
C5117 C 0.38888 0.45497 0.27265 0.0
C5118 C 0.39012 0.43692 0.27157 0.0
C5119 C 0.37393 0.48272 0.26384 0.0
C5120 C 0.37304 0.49065 0.24563 0.0
C5121 C 0.37474 0.4931 0.2806 0.0
C5122 C 0.37582 0.48538 0.30016 0.0
C5123 C 0.38992 0.48928 0.31221 0.0
C5124 C 0.3915 0.48128 0.33024 0.0
C5125 C 0.37901 0.46943 0.33639 0.0
C5126 C 0.36471 0.46581 0.32472 0.0
C5127 C 0.36308 0.47375 0.30667 0.0
H5128 H 0.38046 0.46301 0.35017 0.0
H5129 H 0.3703 0.53578 0.17226 0.0
H5130 H 0.32359 0.60374 1.00783 0.0
H5131 H 0.29235 0.60265 0.01318 0.0
H5132 H 0.29384 0.65406 0.03746 0.0
H5133 H 0.32519 0.65517 0.0323 0.0
H5134 H 0.26797 0.60783 0.043 0.0
H5135 H 0.26067 0.67676 1.01009 0.0
H5136 H 0.27761 0.69719 0.99027 0.0
H5137 H 0.30653 0.65492 0.9662 0.0
H5138 H 0.28951 0.63424 0.98541 0.0
H5139 H 0.18143 0.63387 0.04974 0.0
H5140 H 0.21293 0.63346 0.05088 0.0
H5141 H 0.21474 0.63146 0.9886 0.0
H5142 H 0.18287 0.63271 0.98749 0.0
H5143 H 0.23938 0.65149 1.00109 0.0
H5144 H 0.21946 0.595 0.01832 0.0
H5145 H 0.20248 0.57345 0.03653 0.0
H5146 H 0.22869 0.58779 0.08876 0.0
H5147 H 0.24538 0.60991 0.07104 0.0
C5148 C 0.31733 0.6146 0.01484 0.0
C5149 C 0.32668 0.62967 0.01931 0.0
C5150 C 0.29952 0.61391 0.01799 0.0
C5151 C 0.29082 0.62839 0.02539 0.0
C5152 C 0.30037 0.64283 0.03156 0.0
C5153 C 0.31824 0.64345 0.02859 0.0
C5154 C 0.27179 0.62936 0.02377 0.0
C5155 C 0.26165 0.61745 0.03401 0.0
C5156 C 0.26373 0.64159 1.01147 0.0
C5157 C 0.27394 0.65393 0.99951 0.0
C5158 C 0.27061 0.67181 1.00054 0.0
C5159 C 0.28022 0.68344 0.98937 0.0
C5160 C 0.29321 0.67737 0.97708 0.0
C5161 C 0.29658 0.65964 0.97586 0.0
C5162 C 0.28696 0.64795 0.98693 0.0
C5163 C 0.18856 0.63338 0.03629 0.0
C5164 C 0.17985 0.63308 0.01851 0.0
C5165 C 0.20656 0.63308 0.03695 0.0
C5166 C 0.21623 0.63194 0.01986 0.0
C5167 C 0.20753 0.6322 1.00199 0.0
C5168 C 0.1894 0.63287 1.00132 0.0
C5169 C 0.23537 0.63026 0.0208 0.0
C5170 C 0.2456 0.64196 1.01027 0.0
C5171 C 0.24354 0.61763 0.03262 0.0
C5172 C 0.23357 0.60425 0.04334 0.0
C5173 C 0.22148 0.5937 0.03372 0.0
C5174 C 0.21188 0.58141 0.04398 0.0
C5175 C 0.21443 0.57935 0.06381 0.0
C5176 C 0.22663 0.58953 0.07343 0.0
C5177 C 0.23615 0.60196 0.06329 0.0
H5178 H 0.207 0.56981 0.07172 0.0
H5179 H 0.30062 0.6864 0.96844 0.0
H5180 H 0.14418 0.42984 0.78891 0.0
H5181 H 0.14455 0.46128 0.78915 0.0
H5182 H 0.10441 0.46213 0.74578 0.0
H5183 H 0.10328 0.43038 0.74635 0.0
H5184 H 0.15169 0.48531 0.76665 0.0
H5185 H 0.0783 0.49634 0.75131 0.0
H5186 H 0.05048 0.48157 0.75725 0.0
H5187 H 0.07267 0.45469 0.80556 0.0
H5188 H 0.10053 0.46946 0.80007 0.0
H5189 H 0.13838 0.56956 0.73581 0.0
H5190 H 0.13931 0.53852 0.74094 0.0
H5191 H 0.10769 0.54412 0.79198 0.0
H5192 H 0.10593 0.57551 0.78619 0.0
H5193 H 0.09667 0.51801 0.77262 0.0
H5194 H 0.15189 0.53453 0.79463 0.0
H5195 H 0.17995 0.54972 0.79425 0.0
H5196 H 0.19495 0.52165 0.74345 0.0
H5197 H 0.16685 0.50649 0.74331 0.0
C5198 C 0.13547 0.43668 0.77931 0.0
C5199 C 0.12352 0.42766 0.76777 0.0
C5200 C 0.13574 0.45471 0.77944 0.0
C5201 C 0.12427 0.46414 0.76779 0.0
C5202 C 0.11305 0.45514 0.75532 0.0
C5203 C 0.11253 0.43702 0.75548 0.0
C5204 C 0.12393 0.48334 0.76906 0.0
C5205 C 0.13965 0.49243 0.76799 0.0
C5206 C 0.10832 0.49269 0.77162 0.0
C5207 C 0.09154 0.48389 0.77514 0.0
C5208 C 0.07721 0.48733 0.76324 0.0
C5209 C 0.06144 0.47895 0.76652 0.0
C5210 C 0.05982 0.46716 0.78173 0.0
C5211 C 0.07396 0.46377 0.79374 0.0
C5212 C 0.08974 0.47214 0.79054 0.0
C5213 C 0.13175 0.56426 0.74826 0.0
C5214 C 0.12211 0.57492 0.76067 0.0
C5215 C 0.13237 0.54647 0.75124 0.0
C5216 C 0.12385 0.53897 0.76705 0.0
C5217 C 0.11439 0.54963 0.7797 0.0
C5218 C 0.11345 0.56752 0.77646 0.0
C5219 C 0.12437 0.51991 0.76966 0.0
C5220 C 0.10871 0.51085 0.77146 0.0
C5221 C 0.14012 0.51056 0.76873 0.0
C5222 C 0.1572 0.51942 0.7689 0.0
C5223 C 0.16113 0.53165 0.78331 0.0
C5224 C 0.17704 0.54026 0.78319 0.0
C5225 C 0.18921 0.53666 0.76883 0.0
C5226 C 0.18551 0.52441 0.75458 0.0
C5227 C 0.16959 0.51579 0.7546 0.0
H5228 H 0.20152 0.54336 0.76875 0.0
H5229 H 0.04761 0.46067 0.78423 0.0
H5230 H 0.18043 0.39193 0.49287 0.0
H5231 H 0.21203 0.39183 0.49448 0.0
H5232 H 0.21055 0.34519 0.52878 0.0
H5233 H 0.17887 0.34527 0.52732 0.0
H5234 H 0.23472 0.3669 0.54194 0.0
H5235 H 0.21715 0.34408 0.48143 0.0
H5236 H 0.20377 0.34206 0.44923 0.0
H5237 H 0.23525 0.38427 0.42934 0.0
H5238 H 0.248 0.38728 0.4616 0.0
H5239 H 0.3239 0.34623 0.49666 0.0
H5240 H 0.29223 0.34551 0.49423 0.0
H5241 H 0.28908 0.39279 0.5272 0.0
H5242 H 0.32058 0.39359 0.5297 0.0
H5243 H 0.2675 0.36732 0.48031 0.0
H5244 H 0.25684 0.38805 0.56025 0.0
H5245 H 0.27214 0.38546 0.59144 0.0
H5246 H 0.29851 0.34008 0.57106 0.0
H5247 H 0.2832 0.34221 0.53994 0.0
C5248 C 0.18683 0.38178 0.50098 0.0
C5249 C 0.17722 0.3685 0.50983 0.0
C5250 C 0.20488 0.38169 0.50178 0.0
C5251 C 0.21363 0.36832 0.51143 0.0
C5252 C 0.20404 0.35556 0.52116 0.0
C5253 C 0.18596 0.35563 0.52033 0.0
C5254 C 0.23277 0.3674 0.5109 0.0
C5255 C 0.24185 0.36708 0.52845 0.0
C5256 C 0.24209 0.3671 0.49325 0.0
C5257 C 0.23341 0.36606 0.47412 0.0
C5258 C 0.2209 0.35325 0.47035 0.0
C5259 C 0.21339 0.35193 0.45204 0.0
C5260 C 0.21853 0.36311 0.43725 0.0
C5261 C 0.23104 0.37576 0.44081 0.0
C5262 C 0.23836 0.37734 0.45915 0.0
C5263 C 0.31644 0.3566 0.5031 0.0
C5264 C 0.32465 0.36985 0.51355 0.0
C5265 C 0.29839 0.35617 0.50172 0.0
C5266 C 0.28836 0.36892 0.51086 0.0
C5267 C 0.2966 0.38267 0.52035 0.0
C5268 C 0.31459 0.38315 0.52167 0.0
C5269 C 0.26927 0.36755 0.51124 0.0
C5270 C 0.26026 0.36733 0.49372 0.0
C5271 C 0.26 0.36691 0.52883 0.0
C5272 C 0.26898 0.3654 0.5477 0.0
C5273 C 0.26583 0.37747 0.56247 0.0
C5274 C 0.27452 0.37609 0.58013 0.0
C5275 C 0.28629 0.36263 0.58317 0.0
C5276 C 0.28942 0.35052 0.56863 0.0
C5277 C 0.28076 0.35182 0.55099 0.0
H5278 H 0.29299 0.36152 0.5968 0.0
H5279 H 0.21297 0.36184 0.42299 0.0
H5280 H 0.10589 0.15373 0.05211 0.0
H5281 H 0.10347 0.15754 0.08721 0.0
H5282 H 0.12499 0.10657 0.09591 0.0
H5283 H 0.12669 0.10244 0.06126 0.0
H5284 H 0.10225 0.10988 0.121 0.0
H5285 H 0.14886 0.14664 0.10114 0.0
H5286 H 0.16311 0.16998 0.08272 0.0
H5287 H 0.12779 0.20715 0.10666 0.0
H5288 H 0.1132 0.18398 0.12506 0.0
H5289 H 0.14682 0.14349 0.21367 0.0
H5290 H 0.14343 0.14437 0.1787 0.0
H5291 H 0.08902 0.13323 0.1848 0.0
H5292 H 0.09238 0.13216 0.22003 0.0
H5293 H 0.12649 0.16214 0.15255 0.0
H5294 H 0.07682 0.10583 0.14814 0.0
H5295 H 0.06875 0.0795 0.16628 0.0
H5296 H 0.11974 0.07705 0.19077 0.0
H5297 H 0.12815 0.10323 0.17265 0.0
C5298 C 0.10994 0.14328 0.06152 0.0
C5299 C 0.11648 0.12778 0.05367 0.0
C5300 C 0.10868 0.14551 0.08167 0.0
C5301 C 0.11427 0.13245 0.0945 0.0
C5302 C 0.12049 0.11689 0.08658 0.0
C5303 C 0.12151 0.11457 0.06657 0.0
C5304 C 0.11402 0.13482 0.1161 0.0
C5305 C 0.10742 0.12143 0.1278 0.0
C5306 C 0.12112 0.14962 0.12533 0.0
C5307 C 0.12982 0.16356 0.11428 0.0
C5308 C 0.14406 0.15978 0.10235 0.0
C5309 C 0.15221 0.17297 0.09194 0.0
C5310 C 0.14632 0.19003 0.09346 0.0
C5311 C 0.13231 0.19393 0.10546 0.0
C5312 C 0.1241 0.18077 0.11589 0.0
C5313 C 0.13403 0.1415 0.20767 0.0
C5314 C 0.11988 0.1377 0.21982 0.0
C5315 C 0.13211 0.14204 0.18756 0.0
C5316 C 0.11602 0.13864 0.1789 0.0
C5317 C 0.10165 0.13569 0.19101 0.0
C5318 C 0.10355 0.13524 0.21123 0.0
C5319 C 0.11467 0.13725 0.15731 0.0
C5320 C 0.12102 0.15078 0.14567 0.0
C5321 C 0.10805 0.12224 0.14812 0.0
C5322 C 0.10301 0.10663 0.15926 0.0
C5323 C 0.08629 0.09967 0.15742 0.0
C5324 C 0.08167 0.08477 0.16768 0.0
C5325 C 0.0937 0.07665 0.17973 0.0
C5326 C 0.1104 0.08339 0.18152 0.0
C5327 C 0.11509 0.09829 0.17129 0.0
H5328 H 0.0901 0.0651 0.18764 0.0
H5329 H 0.15265 0.20023 0.08539 0.0
H5330 H 0.10175 0.85263 0.47201 0.0
H5331 H 0.09931 0.84939 0.43674 0.0
H5332 H 0.13229 0.89393 0.42892 0.0
H5333 H 0.13419 0.89758 0.46354 0.0
H5334 H 0.10794 0.89686 0.40526 0.0
H5335 H 0.14519 0.84896 0.42232 0.0
H5336 H 0.15287 0.82179 0.439 0.0
H5337 H 0.10983 0.79607 0.41226 0.0
H5338 H 0.10177 0.82316 0.3956 0.0
H5339 H 0.14618 0.88652 0.3128 0.0
H5340 H 0.14098 0.88554 0.34751 0.0
H5341 H 0.09541 0.85451 0.33824 0.0
H5342 H 0.10027 0.85583 0.30306 0.0
H5343 H 0.12092 0.84272 0.36969 0.0
H5344 H 0.08629 0.89147 0.35012 0.0
H5345 H 0.07856 0.91965 0.33575 0.0
H5346 H 0.11893 0.9444 0.36817 0.0
H5347 H 0.12705 0.91634 0.38256 0.0
C5348 C 0.1084 0.86176 0.46273 0.0
C5349 C 0.11806 0.87544 0.47079 0.0
C5350 C 0.10711 0.85982 0.4425 0.0
C5351 C 0.11571 0.87135 0.4299 0.0
C5352 C 0.12538 0.88489 0.43807 0.0
C5353 C 0.12647 0.88695 0.45808 0.0
C5354 C 0.11462 0.86992 0.40824 0.0
C5355 C 0.11096 0.88499 0.39759 0.0
C5356 C 0.11794 0.85438 0.39791 0.0
C5357 C 0.12276 0.83813 0.40792 0.0
C5358 C 0.13729 0.83754 0.42013 0.0
C5359 C 0.14172 0.82215 0.42955 0.0
C5360 C 0.13181 0.80723 0.42674 0.0
C5361 C 0.11747 0.80765 0.41446 0.0
C5362 C 0.11297 0.82301 0.40502 0.0
C5363 C 0.13505 0.87938 0.31801 0.0
C5364 C 0.12368 0.87118 0.30497 0.0
C5365 C 0.13207 0.87891 0.33796 0.0
C5366 C 0.11779 0.86999 0.34558 0.0
C5367 C 0.10653 0.86148 0.33273 0.0
C5368 C 0.10931 0.86226 0.3126 0.0
C5369 C 0.11488 0.86982 0.36697 0.0
C5370 C 0.11778 0.85449 0.37748 0.0
C5371 C 0.11119 0.8852 0.37727 0.0
C5372 C 0.10734 0.90177 0.36732 0.0
C5373 C 0.09372 0.90286 0.35393 0.0
C5374 C 0.0892 0.91884 0.34587 0.0
C5375 C 0.09818 0.93381 0.35116 0.0
C5376 C 0.11194 0.9328 0.36417 0.0
C5377 C 0.11651 0.91687 0.37227 0.0
H5378 H 0.09445 0.94623 0.34526 0.0
H5379 H 0.13527 0.79532 0.43404 0.0
H5380 H 0.39717 0.8483 0.72344 0.0
H5381 H 0.40043 0.84506 0.68828 0.0
H5382 H 0.36286 0.88565 0.67943 0.0
H5383 H 0.35905 0.88832 0.71401 0.0
H5384 H 0.35598 0.86266 0.65538 0.0
H5385 H 0.40979 0.88993 0.67384 0.0
H5386 H 0.43749 0.89242 0.69134 0.0
H5387 H 0.45502 0.84486 0.66589 0.0
H5388 H 0.42733 0.84199 0.64841 0.0
H5389 H 0.37321 0.89688 0.5638 0.0
H5390 H 0.37426 0.89226 0.59848 0.0
H5391 H 0.39762 0.84222 0.58974 0.0
H5392 H 0.39639 0.84661 0.5545 0.0
H5393 H 0.41261 0.86447 0.62172 0.0
H5394 H 0.35832 0.84054 0.60001 0.0
H5395 H 0.33082 0.84095 0.58192 0.0
H5396 H 0.31447 0.88593 0.61344 0.0
H5397 H 0.34193 0.88588 0.63159 0.0
C5398 C 0.38962 0.85648 0.71395 0.0
C5399 C 0.37778 0.86849 0.72168 0.0
C5400 C 0.39155 0.85471 0.69378 0.0
C5401 C 0.38198 0.86519 0.68091 0.0
C5402 C 0.37033 0.87724 0.68878 0.0
C5403 C 0.36819 0.87879 0.70874 0.0
C5404 C 0.38365 0.86378 0.65931 0.0
C5405 C 0.36843 0.86315 0.64815 0.0
C5406 C 0.39982 0.86395 0.64951 0.0
C5407 C 0.41642 0.86564 0.66002 0.0
C5408 C 0.41951 0.87994 0.6721 0.0
C5409 C 0.43521 0.88143 0.68199 0.0
C5410 C 0.44798 0.86877 0.67978 0.0
C5411 C 0.4451 0.85463 0.66762 0.0
C5412 C 0.42941 0.85307 0.65772 0.0
C5413 C 0.37875 0.88488 0.56906 0.0
C5414 C 0.38466 0.87207 0.55614 0.0
C5415 C 0.37931 0.88228 0.58903 0.0
C5416 C 0.38589 0.86685 0.5968 0.0
C5417 C 0.39247 0.85424 0.58409 0.0
C5418 C 0.39175 0.85677 0.56394 0.0
C5419 C 0.38497 0.8639 0.61812 0.0
C5420 C 0.40025 0.86371 0.62911 0.0
C5421 C 0.36886 0.86333 0.62784 0.0
C5422 C 0.35223 0.86325 0.61709 0.0
C5423 C 0.3489 0.85057 0.60301 0.0
C5424 C 0.3333 0.85072 0.59277 0.0
C5425 C 0.3209 0.86345 0.59654 0.0
C5426 C 0.32406 0.87605 0.61057 0.0
C5427 C 0.33963 0.87595 0.62086 0.0
H5428 H 0.30883 0.86354 0.5886 0.0
H5429 H 0.46013 0.86995 0.68744 0.0
H5430 H 0.40262 0.15154 0.80215 0.0
H5431 H 0.40543 0.1555 0.8373 0.0
H5432 H 0.35797 0.12709 0.8459 0.0
H5433 H 0.35477 0.12375 0.81143 0.0
H5434 H 0.35728 0.15211 0.86897 0.0
H5435 H 0.40122 0.10989 0.85293 0.0
H5436 H 0.42741 0.09921 0.83642 0.0
H5437 H 0.45731 0.14018 0.86177 0.0
H5438 H 0.43122 0.15123 0.87826 0.0
H5439 H 0.36429 0.11165 0.9605 0.0
H5440 H 0.36608 0.11731 0.92595 0.0
H5441 H 0.39962 0.16082 0.93661 0.0
H5442 H 0.39751 0.15553 0.97168 0.0
H5443 H 0.40986 0.13409 0.90474 0.0
H5444 H 0.36434 0.17213 0.92547 0.0
H5445 H 0.33718 0.18056 0.94158 0.0
H5446 H 0.30892 0.14432 0.90675 0.0
H5447 H 0.33599 0.13524 0.89085 0.0
C5448 C 0.39273 0.14629 0.81156 0.0
C5449 C 0.37846 0.13736 0.80375 0.0
C5450 C 0.3944 0.14844 0.83173 0.0
C5451 C 0.38199 0.14147 0.84452 0.0
C5452 C 0.36772 0.13274 0.83659 0.0
C5453 C 0.36595 0.13079 0.81665 0.0
C5454 C 0.38348 0.1429 0.86613 0.0
C5455 C 0.3688 0.14808 0.8767 0.0
C5456 C 0.39859 0.13812 0.87651 0.0
C5457 C 0.41425 0.13151 0.86661 0.0
C5458 C 0.41335 0.1167 0.85486 0.0
C5459 C 0.42818 0.11056 0.84553 0.0
C5460 C 0.444 0.11905 0.84799 0.0
C5461 C 0.44504 0.13365 0.85984 0.0
C5462 C 0.43024 0.13985 0.86918 0.0
C5463 C 0.37214 0.12243 0.95564 0.0
C5464 C 0.3808 0.13312 0.96902 0.0
C5465 C 0.3731 0.12566 0.93578 0.0
C5466 C 0.38295 0.13949 0.92862 0.0
C5467 C 0.39194 0.15005 0.9418 0.0
C5468 C 0.39069 0.14704 0.96184 0.0
C5469 C 0.38349 0.14272 0.90733 0.0
C5470 C 0.39848 0.13839 0.89691 0.0
C5471 C 0.36852 0.14787 0.89703 0.0
C5472 C 0.35228 0.15287 0.90709 0.0
C5473 C 0.3524 0.16573 0.92147 0.0
C5474 C 0.337 0.17065 0.93054 0.0
C5475 C 0.32135 0.16294 0.92523 0.0
C5476 C 0.32107 0.15022 0.91091 0.0
C5477 C 0.33645 0.14517 0.90188 0.0
H5478 H 0.30942 0.1669 0.93213 0.0
H5479 H 0.45547 0.11428 0.84076 0.0
H5480 H 0.90732 0.85915 0.80471 0.0
H5481 H 0.9114 0.85825 0.83998 0.0
H5482 H 0.85989 0.87838 0.84803 0.0
H5483 H 0.85564 0.87914 0.8133 0.0
H5484 H 0.88428 0.89613 0.86963 0.0
H5485 H 0.86828 0.8365 0.8564 0.0
H5486 H 0.87196 0.80798 0.84092 0.0
H5487 H 0.92237 0.80302 0.86642 0.0
H5488 H 0.91907 0.83164 0.88185 0.0
H5489 H 0.86095 0.88672 0.9656 0.0
H5490 H 0.86329 0.88413 0.93078 0.0
H5491 H 0.91116 0.85595 0.93718 0.0
H5492 H 0.90833 0.8578 0.97261 0.0
H5493 H 0.89403 0.84275 0.90801 0.0
H5494 H 0.90956 0.90058 0.9239 0.0
H5495 H 0.90655 0.929 0.93977 0.0
H5496 H 0.85918 0.93816 0.90904 0.0
H5497 H 0.86175 0.90968 0.89318 0.0
C5498 C 0.89682 0.86324 0.814 0.0
C5499 C 0.88114 0.8692 0.80597 0.0
C5500 C 0.89917 0.86271 0.8342 0.0
C5501 C 0.88596 0.86829 0.84678 0.0
C5502 C 0.87033 0.87408 0.83875 0.0
C5503 C 0.8679 0.87442 0.81873 0.0
C5504 C 0.88823 0.86858 0.86829 0.0
C5505 C 0.88633 0.88444 0.87801 0.0
C5506 C 0.89156 0.85347 0.87932 0.0
C5507 C 0.89352 0.83629 0.87007 0.0
C5508 C 0.88021 0.8294 0.85856 0.0
C5509 C 0.88221 0.8132 0.84983 0.0
C5510 C 0.89742 0.80372 0.85263 0.0
C5511 C 0.91062 0.8104 0.86423 0.0
C5512 C 0.90869 0.8266 0.87297 0.0
C5513 C 0.87203 0.87994 0.95969 0.0
C5514 C 0.8846 0.8727 0.97198 0.0
C5515 C 0.87341 0.87855 0.93964 0.0
C5516 C 0.88772 0.87036 0.93107 0.0
C5517 C 0.90007 0.86253 0.9433 0.0
C5518 C 0.89847 0.8636 0.96357 0.0
C5519 C 0.88955 0.87027 0.90944 0.0
C5520 C 0.89224 0.85451 0.89967 0.0
C5521 C 0.8872 0.88555 0.89829 0.0
C5522 C 0.88581 0.90292 0.90742 0.0
C5523 C 0.89846 0.90862 0.92057 0.0
C5524 C 0.89683 0.92474 0.92957 0.0
C5525 C 0.88266 0.93536 0.92544 0.0
C5526 C 0.87014 0.92991 0.91222 0.0
C5527 C 0.87169 0.91379 0.9032 0.0
H5528 H 0.8814 0.94781 0.93246 0.0
H5529 H 0.89894 0.79118 0.84587 0.0
H5530 H 0.89881 0.14647 0.7222 0.0
H5531 H 0.9033 0.14722 0.68698 0.0
H5532 H 0.85517 0.12005 0.67865 0.0
H5533 H 0.85044 0.11948 0.71333 0.0
H5534 H 0.88283 0.10515 0.65851 0.0
H5535 H 0.8571 0.16161 0.66867 0.0
H5536 H 0.85551 0.19082 0.68294 0.0
H5537 H 0.90506 0.2034 0.65858 0.0
H5538 H 0.90704 0.17416 0.64438 0.0
H5539 H 0.85995 0.10854 0.56176 0.0
H5540 H 0.86167 0.11181 0.59649 0.0
H5541 H 0.9045 0.14717 0.58995 0.0
H5542 H 0.9022 0.14457 0.55454 0.0
H5543 H 0.88496 0.15817 0.6181 0.0
H5544 H 0.90938 0.10286 0.60465 0.0
H5545 H 0.91098 0.07377 0.59009 0.0
H5546 H 0.86531 0.05844 0.62098 0.0
H5547 H 0.86324 0.08752 0.63549 0.0
C5548 C 0.88909 0.14085 0.71285 0.0
C5549 C 0.87425 0.13295 0.72076 0.0
C5550 C 0.89168 0.14127 0.6927 0.0
C5551 C 0.8796 0.13361 0.68009 0.0
C5552 C 0.86473 0.12596 0.68799 0.0
C5553 C 0.86202 0.12575 0.70795 0.0
C5554 C 0.88237 0.133 0.65871 0.0
C5555 C 0.88323 0.11674 0.64966 0.0
C5556 C 0.8835 0.14809 0.64714 0.0
C5557 C 0.88232 0.16563 0.65569 0.0
C5558 C 0.86773 0.17055 0.66652 0.0
C5559 C 0.86674 0.18712 0.67456 0.0
C5560 C 0.88021 0.19894 0.67173 0.0
C5561 C 0.89466 0.19422 0.6608 0.0
C5562 C 0.89572 0.17765 0.65275 0.0
C5563 C 0.86985 0.11698 0.56759 0.0
C5564 C 0.88115 0.12607 0.55526 0.0
C5565 C 0.87088 0.11877 0.58762 0.0
C5566 C 0.8836 0.12928 0.59613 0.0
C5567 C 0.89468 0.13879 0.58387 0.0
C5568 C 0.8934 0.13728 0.56361 0.0
C5569 C 0.88495 0.13025 0.61775 0.0
C5570 C 0.88488 0.14654 0.62689 0.0
C5571 C 0.88471 0.11513 0.62947 0.0
C5572 C 0.8861 0.09746 0.62107 0.0
C5573 C 0.89963 0.09332 0.60827 0.0
C5574 C 0.90061 0.07683 0.60002 0.0
C5575 C 0.88823 0.06428 0.60456 0.0
C5576 C 0.87488 0.06818 0.61745 0.0
C5577 C 0.87381 0.08467 0.62572 0.0
H5578 H 0.889 0.05153 0.59813 0.0
H5579 H 0.87941 0.21177 0.67795 0.0
H5580 H 0.6167 0.15881 0.47063 0.0
H5581 H 0.61541 0.16183 0.43535 0.0
H5582 H 0.60851 0.10664 0.42983 0.0
H5583 H 0.61004 0.10353 0.46475 0.0
H5584 H 0.63233 0.11612 0.40601 0.0
H5585 H 0.57533 0.13676 0.42059 0.0
H5586 H 0.55352 0.15523 0.43644 0.0
H5587 H 0.57637 0.20043 0.41082 0.0
H5588 H 0.59847 0.18224 0.39501 0.0
H5589 H 0.59268 0.13321 0.30444 0.0
H5590 H 0.58948 0.13441 0.33968 0.0
H5591 H 0.64428 0.1435 0.34549 0.0
H5592 H 0.64762 0.14198 0.31054 0.0
H5593 H 0.59533 0.15671 0.36887 0.0
H5594 H 0.66029 0.12203 0.38325 0.0
H5595 H 0.68011 0.10174 0.36683 0.0
H5596 H 0.6376 0.08087 0.3344 0.0
H5597 H 0.61752 0.10092 0.35074 0.0
C5598 C 0.61455 0.14737 0.46192 0.0
C5599 C 0.61352 0.13093 0.47067 0.0
C5600 C 0.61384 0.1491 0.44168 0.0
C5601 C 0.61191 0.13445 0.42972 0.0
C5602 C 0.61018 0.11816 0.43855 0.0
C5603 C 0.61097 0.11642 0.45866 0.0
C5604 C 0.61258 0.13575 0.40807 0.0
C5605 C 0.62423 0.12506 0.39798 0.0
C5606 C 0.60192 0.14719 0.39731 0.0
C5607 C 0.58866 0.15815 0.40678 0.0
C5608 C 0.57579 0.15065 0.41846 0.0
C5609 C 0.56336 0.16107 0.42741 0.0
C5610 C 0.56359 0.179 0.42468 0.0
C5611 C 0.57623 0.18654 0.41294 0.0
C5612 C 0.5887 0.17618 0.40397 0.0
C5613 C 0.604 0.13577 0.31319 0.0
C5614 C 0.62043 0.13733 0.30453 0.0
C5615 C 0.60216 0.13643 0.3334 0.0
C5616 C 0.61669 0.13867 0.34541 0.0
C5617 C 0.6329 0.14134 0.33669 0.0
C5618 C 0.63477 0.14055 0.31659 0.0
C5619 C 0.6152 0.13724 0.36697 0.0
C5620 C 0.60345 0.14786 0.37699 0.0
C5621 C 0.62553 0.12548 0.3777 0.0
C5622 C 0.63744 0.11309 0.36811 0.0
C5623 C 0.65517 0.11305 0.37268 0.0
C5624 C 0.66645 0.10162 0.36336 0.0
C5625 C 0.66013 0.09006 0.34954 0.0
C5626 C 0.64249 0.08987 0.34506 0.0
C5627 C 0.63116 0.10128 0.35433 0.0
H5628 H 0.66889 0.08125 0.34231 0.0
H5629 H 0.55395 0.18704 0.43162 0.0
H5630 H 0.61333 0.84802 0.05391 0.0
H5631 H 0.61226 0.8444 0.08913 0.0
H5632 H 0.62025 0.89927 0.09642 0.0
H5633 H 0.62161 0.9029 0.06155 0.0
H5634 H 0.64052 0.88342 0.12 0.0
H5635 H 0.58013 0.87852 0.10489 0.0
H5636 H 0.55441 0.86661 0.08851 0.0
H5637 H 0.56492 0.81646 0.11262 0.0
H5638 H 0.59083 0.82803 0.12896 0.0
H5639 H 0.59539 0.87565 0.22036 0.0
H5640 H 0.59288 0.87496 0.18504 0.0
H5641 H 0.64458 0.85426 0.18098 0.0
H5642 H 0.64737 0.85555 0.21605 0.0
H5643 H 0.59394 0.85312 0.1559 0.0
H5644 H 0.66577 0.8701 0.14287 0.0
H5645 H 0.68998 0.88413 0.16008 0.0
H5646 H 0.65397 0.91478 0.19264 0.0
H5647 H 0.62957 0.9011 0.17546 0.0
C5648 C 0.61461 0.85935 0.06301 0.0
C5649 C 0.61755 0.87576 0.05472 0.0
C5650 C 0.614 0.85727 0.08323 0.0
C5651 C 0.61616 0.87156 0.09568 0.0
C5652 C 0.61867 0.88796 0.08734 0.0
C5653 C 0.61936 0.89003 0.06725 0.0
C5654 C 0.61641 0.86958 0.11732 0.0
C5655 C 0.63032 0.87673 0.12776 0.0
C5656 C 0.60308 0.86108 0.12776 0.0
C5657 C 0.58751 0.8541 0.11797 0.0
C5658 C 0.57703 0.86492 0.10657 0.0
C5659 C 0.5624 0.85824 0.09732 0.0
C5660 C 0.55806 0.84078 0.09948 0.0
C5661 C 0.56831 0.82997 0.11094 0.0
C5662 C 0.58296 0.83659 0.12021 0.0
C5663 C 0.60609 0.87062 0.21196 0.0
C5664 C 0.62163 0.86578 0.22112 0.0
C5665 C 0.60467 0.87028 0.19169 0.0
C5666 C 0.6187 0.86499 0.18011 0.0
C5667 C 0.63371 0.8589 0.18938 0.0
C5668 C 0.63525 0.85951 0.20954 0.0
C5669 C 0.6181 0.86682 0.15848 0.0
C5670 C 0.60417 0.8597 0.14808 0.0
C5671 C 0.63124 0.87567 0.14805 0.0
C5672 C 0.64584 0.88444 0.15799 0.0
C5673 C 0.66303 0.87991 0.15361 0.0
C5674 C 0.67678 0.88778 0.16339 0.0
C5675 C 0.67351 0.90029 0.1775 0.0
C5676 C 0.65648 0.90505 0.18176 0.0
C5677 C 0.64269 0.89724 0.17201 0.0
H5678 H 0.68417 0.9063 0.1851 0.0
H5679 H 0.54673 0.83563 0.09231 0.0
H5680 H 0.63378 0.60949 0.7152 0.0
H5681 H 0.63057 0.61185 0.68042 0.0
H5682 H 0.6081 0.66264 0.68702 0.0
H5683 H 0.61051 0.65986 0.72244 0.0
H5684 H 0.59254 0.64665 0.65807 0.0
H5685 H 0.65203 0.6561 0.67325 0.0
H5686 H 0.68009 0.64986 0.68877 0.0
H5687 H 0.68346 0.60175 0.65798 0.0
H5688 H 0.6553 0.60754 0.6425 0.0
H5689 H 0.60973 0.65802 0.55442 0.0
H5690 H 0.60848 0.66203 0.58968 0.0
H5691 H 0.62472 0.60915 0.5979 0.0
H5692 H 0.62586 0.60499 0.56319 0.0
H5693 H 0.64426 0.63158 0.61912 0.0
H5694 H 0.58339 0.62141 0.60652 0.0
H5695 H 0.55519 0.62771 0.59139 0.0
H5696 H 0.55512 0.67836 0.61694 0.0
H5697 H 0.58346 0.67244 0.63202 0.0
C5698 C 0.62811 0.6212 0.70933 0.0
C5699 C 0.62266 0.63461 0.72164 0.0
C5700 C 0.62636 0.62258 0.68932 0.0
C5701 C 0.61965 0.63768 0.68081 0.0
C5702 C 0.61353 0.65091 0.69309 0.0
C5703 C 0.61492 0.64934 0.71335 0.0
C5704 C 0.61947 0.63945 0.65918 0.0
C5705 C 0.60396 0.64368 0.64959 0.0
C5706 C 0.6343 0.63554 0.64786 0.0
C5707 C 0.65149 0.63223 0.65678 0.0
C5708 C 0.65872 0.64416 0.66983 0.0
C5709 C 0.67464 0.6407 0.67863 0.0
C5710 C 0.68352 0.62541 0.67438 0.0
C5711 C 0.67655 0.61358 0.66126 0.0
C5712 C 0.66063 0.61696 0.65244 0.0
C5713 C 0.61279 0.64718 0.56374 0.0
C5714 C 0.61795 0.6312 0.55578 0.0
C5715 C 0.61209 0.6495 0.58394 0.0
C5716 C 0.61659 0.63591 0.59657 0.0
C5717 C 0.6213 0.61989 0.58858 0.0
C5718 C 0.62188 0.61754 0.56858 0.0
C5719 C 0.61724 0.63821 0.61807 0.0
C5720 C 0.63291 0.6348 0.62762 0.0
C5721 C 0.60264 0.64302 0.62924 0.0
C5722 C 0.58563 0.64657 0.62019 0.0
C5723 C 0.57744 0.63395 0.60876 0.0
C5724 C 0.56142 0.63744 0.60023 0.0
C5725 C 0.5534 0.65345 0.60315 0.0
C5726 C 0.56137 0.66598 0.61466 0.0
C5727 C 0.5774 0.66257 0.62321 0.0
H5728 H 0.54099 0.65612 0.59654 0.0
H5729 H 0.69579 0.62271 0.68124 0.0
H5730 H 0.63713 0.39155 0.81108 0.0
H5731 H 0.63412 0.38901 0.84579 0.0
H5732 H 0.60387 0.34251 0.8386 0.0
H5733 H 0.60623 0.34551 0.80322 0.0
H5734 H 0.59087 0.36058 0.86736 0.0
H5735 H 0.64821 0.342 0.85294 0.0
H5736 H 0.67737 0.34323 0.83848 0.0
H5737 H 0.6882 0.38999 0.86969 0.0
H5738 H 0.65902 0.38922 0.88411 0.0
H5739 H 0.60456 0.34818 0.97145 0.0
H5740 H 0.6035 0.34365 0.93625 0.0
H5741 H 0.62744 0.39344 0.92738 0.0
H5742 H 0.62842 0.39812 0.96202 0.0
H5743 H 0.64379 0.36771 0.90708 0.0
H5744 H 0.58505 0.3875 0.91829 0.0
H5745 H 0.55601 0.38586 0.93297 0.0
H5746 H 0.54849 0.33544 0.90826 0.0
H5747 H 0.5776 0.33669 0.89364 0.0
C5748 C 0.62986 0.38069 0.81676 0.0
C5749 C 0.62216 0.36856 0.80426 0.0
C5750 C 0.62821 0.3792 0.83676 0.0
C5751 C 0.61925 0.36524 0.84507 0.0
C5752 C 0.61105 0.35331 0.83266 0.0
C5753 C 0.61242 0.355 0.81242 0.0
C5754 C 0.61861 0.36346 0.86666 0.0
C5755 C 0.60251 0.36177 0.876 0.0
C5756 C 0.63374 0.3651 0.87818 0.0
C5757 C 0.65136 0.36558 0.86956 0.0
C5758 C 0.65676 0.3526 0.85664 0.0
C5759 C 0.6733 0.35322 0.84845 0.0
C5760 C 0.68462 0.36668 0.85318 0.0
C5761 C 0.67942 0.37957 0.86607 0.0
C5762 C 0.66289 0.37903 0.87427 0.0
C5763 C 0.60941 0.35824 0.96198 0.0
C5764 C 0.61663 0.37349 0.96973 0.0
C5765 C 0.6088 0.35563 0.94184 0.0
C5766 C 0.61547 0.36818 0.92907 0.0
C5767 C 0.62232 0.38349 0.93683 0.0
C5768 C 0.62281 0.38615 0.95678 0.0
C5769 C 0.61606 0.36544 0.90767 0.0
C5770 C 0.6322 0.36623 0.89839 0.0
C5771 C 0.60104 0.36283 0.8963 0.0
C5772 C 0.58357 0.36209 0.90508 0.0
C5773 C 0.57727 0.376 0.91614 0.0
C5774 C 0.56078 0.37515 0.92441 0.0
C5775 C 0.55044 0.36053 0.9216 0.0
C5776 C 0.55653 0.34674 0.91046 0.0
C5777 C 0.57302 0.34751 0.90217 0.0
H5778 H 0.53767 0.3599 0.92802 0.0
H5779 H 0.69745 0.36709 0.84692 0.0
H5780 H 0.88354 0.40108 0.06169 0.0
H5781 H 0.88517 0.39758 0.09661 0.0
H5782 H 0.88612 0.34206 0.08976 0.0
H5783 H 0.88512 0.34557 0.05457 0.0
H5784 H 0.8641 0.38556 0.12064 0.0
H5785 H 0.90384 0.32233 0.12927 0.0
H5786 H 0.92762 0.30681 0.11297 0.0
H5787 H 0.94609 0.35471 0.0891 0.0
H5788 H 0.92255 0.37053 0.10545 0.0
H5789 H 0.85107 0.35793 0.2155 0.0
H5790 H 0.85425 0.35715 0.18047 0.0
H5791 H 0.90891 0.36721 0.18624 0.0
H5792 H 0.90586 0.36724 0.22157 0.0
H5793 H 0.90444 0.34713 0.15626 0.0
H5794 H 0.87848 0.40041 0.17622 0.0
H5795 H 0.85731 0.41877 0.1933 0.0
H5796 H 0.81595 0.39607 0.16056 0.0
H5797 H 0.83687 0.37746 0.14338 0.0
C5798 C 0.88437 0.38809 0.06754 0.0
C5799 C 0.88426 0.37361 0.05519 0.0
C5800 C 0.8852 0.3861 0.08764 0.0
C5801 C 0.8858 0.36955 0.09613 0.0
C5802 C 0.886 0.35502 0.08379 0.0
C5803 C 0.8854 0.35703 0.06357 0.0
C5804 C 0.8854 0.3677 0.1178 0.0
C5805 C 0.87296 0.37711 0.12831 0.0
C5806 C 0.89705 0.35694 0.12819 0.0
C5807 C 0.91132 0.34757 0.11842 0.0
C5808 C 0.91301 0.32955 0.12059 0.0
C5809 C 0.92644 0.3207 0.11133 0.0
C5810 C 0.93832 0.32976 0.09995 0.0
C5811 C 0.93683 0.3477 0.09786 0.0
C5812 C 0.92344 0.35661 0.10709 0.0
C5813 C 0.86386 0.35965 0.20936 0.0
C5814 C 0.87821 0.36271 0.22141 0.0
C5815 C 0.86564 0.35935 0.18924 0.0
C5816 C 0.88174 0.36265 0.18047 0.0
C5817 C 0.8963 0.36475 0.1925 0.0
C5818 C 0.89457 0.36472 0.21276 0.0
C5819 C 0.88305 0.36483 0.15892 0.0
C5820 C 0.89559 0.35551 0.14848 0.0
C5821 C 0.87183 0.37608 0.14858 0.0
C5822 C 0.85923 0.38746 0.15862 0.0
C5823 C 0.86486 0.3993 0.17271 0.0
C5824 C 0.85291 0.40975 0.1824 0.0
C5825 C 0.8353 0.40858 0.17802 0.0
C5826 C 0.8296 0.39697 0.16391 0.0
C5827 C 0.8415 0.38649 0.15417 0.0
H5828 H 0.82608 0.41668 0.18554 0.0
H5829 H 0.9487 0.32289 0.0928 0.0
H5830 H 0.90805 0.63044 0.30391 0.0
H5831 H 0.91086 0.63134 0.33925 0.0
H5832 H 0.85663 0.64386 0.34415 0.0
H5833 H 0.85363 0.64205 0.30913 0.0
H5834 H 0.90709 0.65244 0.36839 0.0
H5835 H 0.83842 0.62624 0.38246 0.0
H5836 H 0.81603 0.60922 0.36553 0.0
H5837 H 0.85537 0.58307 0.33288 0.0
H5838 H 0.87798 0.5998 0.34974 0.0
H5839 H 0.88803 0.65542 0.47059 0.0
H5840 H 0.88892 0.65892 0.43535 0.0
H5841 H 0.88732 0.60342 0.42853 0.0
H5842 H 0.88596 0.59993 0.46344 0.0
H5843 H 0.86546 0.61627 0.4051 0.0
H5844 H 0.92484 0.6296 0.41944 0.0
H5845 H 0.94875 0.64517 0.43541 0.0
H5846 H 0.93104 0.69313 0.411 0.0
H5847 H 0.9069 0.67787 0.39507 0.0
C5848 C 0.8968 0.63365 0.31254 0.0
C5849 C 0.88059 0.63602 0.30368 0.0
C5850 C 0.8984 0.63413 0.33279 0.0
C5851 C 0.88387 0.63719 0.34461 0.0
C5852 C 0.86797 0.64089 0.33558 0.0
C5853 C 0.86629 0.64 0.31546 0.0
C5854 C 0.885 0.63554 0.36624 0.0
C5855 C 0.89795 0.64455 0.3764 0.0
C5856 C 0.87331 0.62505 0.3769 0.0
C5857 C 0.85987 0.61438 0.36726 0.0
C5858 C 0.84229 0.61676 0.37177 0.0
C5859 C 0.82956 0.6072 0.36215 0.0
C5860 C 0.83427 0.59511 0.3481 0.0
C5861 C 0.85173 0.59247 0.34373 0.0
C5862 C 0.86451 0.60199 0.3533 0.0
C5863 C 0.88819 0.64397 0.46158 0.0
C5864 C 0.88692 0.6274 0.46997 0.0
C5865 C 0.88869 0.64597 0.44135 0.0
C5866 C 0.8882 0.63143 0.42902 0.0
C5867 C 0.88756 0.6149 0.43751 0.0
C5868 C 0.88688 0.61292 0.4576 0.0
C5869 C 0.88753 0.63322 0.40738 0.0
C5870 C 0.8746 0.62422 0.39717 0.0
C5871 C 0.89945 0.64344 0.3967 0.0
C5872 C 0.91397 0.65262 0.40622 0.0
C5873 C 0.92598 0.64348 0.41759 0.0
C5874 C 0.93958 0.65225 0.42662 0.0
C5875 C 0.94139 0.67013 0.42427 0.0
C5876 C 0.92961 0.67928 0.41284 0.0
C5877 C 0.91598 0.67058 0.40379 0.0
H5878 H 0.95193 0.67689 0.43127 0.0
H5879 H 0.82439 0.58779 0.34061 0.0
H5880 H 0.35019 0.36545 0.31158 0.0
H5881 H 0.35414 0.36477 0.34648 0.0
H5882 H 0.40952 0.36603 0.33887 0.0
H5883 H 0.40561 0.3662 0.30366 0.0
H5884 H 0.40247 0.3465 0.36892 0.0
H5885 H 0.38585 0.40328 0.34992 0.0
H5886 H 0.36827 0.42565 0.33378 0.0
H5887 H 0.32418 0.41116 0.36791 0.0
H5888 H 0.34146 0.38852 0.38408 0.0
H5889 H 0.39012 0.40126 0.4651 0.0
H5890 H 0.39183 0.39837 0.43011 0.0
H5891 H 0.38475 0.34313 0.43538 0.0
H5892 H 0.38387 0.34596 0.47064 0.0
H5893 H 0.36964 0.39055 0.40593 0.0
H5894 H 0.39855 0.32174 0.3953 0.0
H5895 H 0.4198 0.30236 0.41082 0.0
H5896 H 0.44574 0.34627 0.43546 0.0
H5897 H 0.42479 0.36591 0.4199 0.0
C5898 C 0.36326 0.36534 0.31726 0.0
C5899 C 0.37759 0.36598 0.3047 0.0
C5900 C 0.3655 0.36507 0.33732 0.0
C5901 C 0.38213 0.3658 0.34552 0.0
C5902 C 0.39653 0.36556 0.33303 0.0
C5903 C 0.39428 0.36562 0.31284 0.0
C5904 C 0.38432 0.36758 0.367 0.0
C5905 C 0.39528 0.35612 0.37701 0.0
C5906 C 0.37537 0.38044 0.3777 0.0
C5907 C 0.36491 0.39408 0.36808 0.0
C5908 C 0.37238 0.40479 0.35389 0.0
C5909 C 0.36247 0.41753 0.34476 0.0
C5910 C 0.3451 0.4198 0.34979 0.0
C5911 C 0.33763 0.40937 0.36402 0.0
C5912 C 0.34748 0.39659 0.37318 0.0
C5913 C 0.3893 0.38842 0.45885 0.0
C5914 C 0.38697 0.37383 0.47076 0.0
C5915 C 0.39015 0.38679 0.43873 0.0
C5916 C 0.38842 0.37053 0.42978 0.0
C5917 C 0.38648 0.35583 0.4417 0.0
C5918 C 0.38596 0.35744 0.46196 0.0
C5919 C 0.38765 0.36929 0.40808 0.0
C5920 C 0.37688 0.38088 0.39796 0.0
C5921 C 0.39725 0.35696 0.39728 0.0
C5922 C 0.40998 0.34527 0.4066 0.0
C5923 C 0.40882 0.32725 0.40398 0.0
C5924 C 0.42081 0.31622 0.4128 0.0
C5925 C 0.43407 0.32307 0.42418 0.0
C5926 C 0.43542 0.34097 0.42671 0.0
C5927 C 0.42348 0.35206 0.41792 0.0
H5928 H 0.44333 0.31451 0.43099 0.0
H5929 H 0.33744 0.42965 0.34267 0.0
H5930 H 0.40778 0.63258 0.22023 0.0
H5931 H 0.41068 0.6336 0.18499 0.0
H5932 H 0.35583 0.64298 0.17975 0.0
H5933 H 0.35283 0.64133 0.21473 0.0
H5934 H 0.36321 0.61993 0.15568 0.0
H5935 H 0.38897 0.67468 0.16981 0.0
H5936 H 0.40913 0.69505 0.18548 0.0
H5937 H 0.45233 0.66816 0.16055 0.0
H5938 H 0.43242 0.64748 0.14493 0.0
H5939 H 0.38699 0.65623 0.05366 0.0
H5940 H 0.38776 0.65981 0.08888 0.0
H5941 H 0.38881 0.60432 0.09587 0.0
H5942 H 0.38749 0.6007 0.06093 0.0
H5943 H 0.40767 0.65221 0.11862 0.0
H5944 H 0.36555 0.59154 0.13361 0.0
H5945 H 0.34301 0.5742 0.11739 0.0
H5946 H 0.32804 0.61847 0.08376 0.0
H5947 H 0.35037 0.63611 0.09991 0.0
C5948 C 0.39641 0.63522 0.21158 0.0
C5949 C 0.38008 0.6369 0.2204 0.0
C5950 C 0.39807 0.6358 0.19134 0.0
C5951 C 0.38348 0.63841 0.17945 0.0
C5952 C 0.36731 0.6408 0.18839 0.0
C5953 C 0.36562 0.63996 0.20851 0.0
C5954 C 0.38471 0.63763 0.15778 0.0
C5955 C 0.37297 0.62704 0.14768 0.0
C5956 C 0.3972 0.64703 0.14699 0.0
C5957 C 0.40921 0.65943 0.15636 0.0
C5958 C 0.40277 0.67303 0.16779 0.0
C5959 C 0.41415 0.68465 0.17664 0.0
C5960 C 0.432 0.68287 0.17405 0.0
C5961 C 0.4385 0.6695 0.16256 0.0
C5962 C 0.42717 0.65784 0.1537 0.0
C5963 C 0.38767 0.6448 0.0627 0.0
C5964 C 0.38703 0.62817 0.0544 0.0
C5965 C 0.38808 0.64686 0.08289 0.0
C5966 C 0.38792 0.63234 0.09522 0.0
C5967 C 0.38845 0.61577 0.08684 0.0
C5968 C 0.3878 0.61371 0.06676 0.0
C5969 C 0.38632 0.63437 0.11672 0.0
C5970 C 0.39796 0.64513 0.12672 0.0
C5971 C 0.3734 0.62552 0.12744 0.0
C5972 C 0.35975 0.61509 0.11785 0.0
C5973 C 0.3574 0.59758 0.12281 0.0
C5974 C 0.34468 0.5877 0.11361 0.0
C5975 C 0.33414 0.59521 0.09951 0.0
C5976 C 0.33626 0.61265 0.09463 0.0
C5977 C 0.34896 0.62259 0.10378 0.0
H5978 H 0.32431 0.58754 0.09239 0.0
H5979 H 0.44079 0.69188 0.18091 0.0
H5980 H 0.14921 0.62411 0.8106 0.0
H5981 H 0.1447 0.62526 0.84529 0.0
H5982 H 0.09441 0.64806 0.8366 0.0
H5983 H 0.09873 0.6468 0.80136 0.0
H5984 H 0.11591 0.66323 0.86859 0.0
H5985 H 0.09367 0.6081 0.84687 0.0
H5986 H 0.0954 0.58089 0.8283 0.0
H5987 H 0.14113 0.56632 0.85955 0.0
H5988 H 0.13971 0.59346 0.87824 0.0
H5989 H 0.09925 0.64775 0.97002 0.0
H5990 H 0.09632 0.6507 0.93479 0.0
H5991 H 0.13773 0.61388 0.92684 0.0
H5992 H 0.14006 0.61033 0.96151 0.0
H5993 H 0.11556 0.60651 0.90223 0.0
H5994 H 0.14099 0.6611 0.92102 0.0
H5995 H 0.14255 0.68887 0.93852 0.0
H5996 H 0.0948 0.70511 0.91245 0.0
H5997 H 0.09287 0.67733 0.89496 0.0
C5998 C 0.13718 0.62955 0.81588 0.0
C5999 C 0.12428 0.63528 0.80297 0.0
C6000 C 0.13464 0.63017 0.83586 0.0
C6001 C 0.11916 0.63659 0.84365 0.0
C6002 C 0.10647 0.64303 0.83095 0.0
C6003 C 0.10896 0.64229 0.81079 0.0
C6004 C 0.1162 0.63558 0.86498 0.0
C6005 C 0.11547 0.65084 0.87597 0.0
C6006 C 0.11606 0.61944 0.87471 0.0
C6007 C 0.11661 0.60284 0.86391 0.0
C6008 C 0.1041 0.5991 0.84976 0.0
C6009 C 0.10501 0.58368 0.83923 0.0
C6010 C 0.11834 0.57186 0.84277 0.0
C6011 C 0.13076 0.57543 0.85688 0.0
C6012 C 0.12988 0.59081 0.86749 0.0
C6013 C 0.10767 0.64028 0.96071 0.0
C6014 C 0.11981 0.62873 0.96872 0.0
C6015 C 0.10608 0.64204 0.9405 0.0
C6016 C 0.1169 0.63262 0.92785 0.0
C6017 C 0.12906 0.62123 0.936 0.0
C6018 C 0.13042 0.61924 0.95601 0.0
C6019 C 0.11576 0.63423 0.90619 0.0
C6020 C 0.11573 0.61898 0.89502 0.0
C6021 C 0.11554 0.6504 0.89638 0.0
C6022 C 0.11667 0.66707 0.90689 0.0
C6023 C 0.13076 0.67055 0.91914 0.0
C6024 C 0.13172 0.68629 0.92903 0.0
C6025 C 0.11875 0.69872 0.92665 0.0
C6026 C 0.10481 0.69545 0.91432 0.0
C6027 C 0.10378 0.67971 0.90441 0.0
H6028 H 0.11952 0.7109 0.93432 0.0
H6029 H 0.11905 0.55995 0.83458 0.0
H6030 H 0.09857 0.35494 0.72291 0.0
H6031 H 0.09433 0.35345 0.6877 0.0
H6032 H 0.14405 0.37751 0.67897 0.0
H6033 H 0.14843 0.37892 0.71367 0.0
H6034 H 0.11873 0.39326 0.65766 0.0
H6035 H 0.13826 0.33475 0.67065 0.0
H6036 H 0.13653 0.30603 0.68611 0.0
H6037 H 0.08624 0.29799 0.66131 0.0
H6038 H 0.08758 0.32679 0.64589 0.0
H6039 H 0.14191 0.3848 0.56156 0.0
H6040 H 0.13981 0.38221 0.59637 0.0
H6041 H 0.09318 0.35198 0.59035 0.0
H6042 H 0.09572 0.35394 0.55487 0.0
H6043 H 0.11144 0.33948 0.61941 0.0
H6044 H 0.09288 0.39654 0.60356 0.0
H6045 H 0.09409 0.42536 0.58825 0.0
H6046 H 0.14101 0.43682 0.61886 0.0
H6047 H 0.14027 0.40796 0.63413 0.0
C6048 C 0.10867 0.35974 0.71349 0.0
C6049 C 0.12385 0.36706 0.72132 0.0
C6050 C 0.10623 0.35888 0.69332 0.0
C6051 C 0.11886 0.36541 0.68055 0.0
C6052 C 0.13405 0.37246 0.68839 0.0
C6053 C 0.13655 0.37319 0.70839 0.0
C6054 C 0.11634 0.36555 0.65906 0.0
C6055 C 0.11723 0.38148 0.64931 0.0
C6056 C 0.11372 0.35029 0.64807 0.0
C6057 C 0.11292 0.333 0.65732 0.0
C6058 C 0.12676 0.32692 0.66864 0.0
C6059 C 0.12587 0.31062 0.67736 0.0
C6060 C 0.11126 0.30021 0.67475 0.0
C6061 C 0.09753 0.30608 0.66335 0.0
C6062 C 0.09835 0.32239 0.65461 0.0
C6063 C 0.13113 0.37758 0.56752 0.0
C6064 C 0.11881 0.36981 0.55531 0.0
C6065 C 0.1299 0.37619 0.58758 0.0
C6066 C 0.11601 0.3674 0.59626 0.0
C6067 C 0.10393 0.35904 0.58414 0.0
C6068 C 0.10537 0.36017 0.56383 0.0
C6069 C 0.11438 0.3672 0.61792 0.0
C6070 C 0.11267 0.35131 0.62772 0.0
C6071 C 0.11609 0.38257 0.62904 0.0
C6072 C 0.11655 0.40002 0.61994 0.0
C6073 C 0.10352 0.40515 0.60695 0.0
C6074 C 0.10412 0.42151 0.59828 0.0
C6075 C 0.11762 0.43291 0.60259 0.0
C6076 C 0.13056 0.42797 0.61555 0.0
C6077 C 0.13004 0.41163 0.62424 0.0
H6078 H 0.11803 0.44558 0.59594 0.0
H6079 H 0.1106 0.28759 0.68151 0.0
loop_
_geom_bond_atom_site_label_1
_geom_bond_atom_site_label_2
_geom_bond_distance
_geom_bond_site_symmetry_2
_ccdc_geom_bond_type
Pr0 C2 2.880 . S
Pr0 O20 2.562 . S
Pr0 O21 2.490 . S
Pr0 O22 2.695 . S
Pr0 O23 2.512 . S
Pr0 O25 2.437 . S
Pr0 O28 2.436 . S
Pr0 O30 2.438 . S
Pr1 C11 2.880 . S
Pr1 O22 2.436 . S
Pr1 O24 2.438 . S
Pr1 O26 2.562 . S
Pr1 O27 2.490 . S
Pr1 O28 2.695 . S
Pr1 O29 2.512 . S
Pr1 O31 2.437 . S
C2 Pr0 2.880 . S
C2 C3 1.491 . S
C2 O20 1.254 . S
C2 O21 1.225 . S
C3 C2 1.491 . S
C3 C4 1.392 . S
C3 C8 1.356 . S
C4 C3 1.392 . S
C4 C5 1.368 . S
C4 H32 0.929 . S
C5 C4 1.368 . S
C5 C6 1.386 . S
C5 H33 0.929 . S
C6 C5 1.386 . S
C6 C7 1.373 . S
C7 C6 1.373 . S
C7 C8 1.409 . S
C7 H34 0.931 . S
C8 C3 1.356 . S
C8 C7 1.409 . S
C8 H35 0.930 . S
C9 O22 1.270 . S
C9 O23 1.248 . S
C10 O24 1.267 . S
C10 O25 1.278 . S
C11 Pr1 2.880 . S
C11 C12 1.491 . S
C11 O26 1.254 . S
C11 O27 1.225 . S
C12 C11 1.491 . S
C12 C13 1.392 . S
C12 C17 1.356 . S
C13 C12 1.392 . S
C13 C14 1.368 . S
C13 H36 0.929 . S
C14 C13 1.368 . S
C14 C15 1.386 . S
C14 H37 0.929 . S
C15 C14 1.386 . S
C15 C16 1.373 . S
C16 C15 1.373 . S
C16 C17 1.409 . S
C16 H38 0.931 . S
C17 C12 1.356 . S
C17 C16 1.409 . S
C17 H39 0.930 . S
C18 O28 1.270 . S
C18 O29 1.248 . S
C19 O30 1.267 . S
C19 O31 1.278 . S
O20 Pr0 2.562 . S
O20 C2 1.254 . S
O21 Pr0 2.490 . S
O21 C2 1.225 . S
O22 Pr0 2.695 . S
O22 Pr1 2.436 . S
O22 C9 1.270 . S
O23 Pr0 2.512 . S
O23 C9 1.248 . S
O24 Pr1 2.438 . S
O24 C10 1.267 . S
O25 Pr0 2.437 . S
O25 C10 1.278 . S
O26 Pr1 2.562 . S
O26 C11 1.254 . S
O27 Pr1 2.490 . S
O27 C11 1.225 . S
O28 Pr0 2.436 . S
O28 Pr1 2.695 . S
O28 C18 1.270 . S
O29 Pr1 2.512 . S
O29 C18 1.248 . S
O30 Pr0 2.438 . S
O30 C19 1.267 . S
O31 Pr1 2.437 . S
O31 C19 1.278 . S
H32 C4 0.929 . S
H33 C5 0.929 . S
H34 C7 0.931 . S
H35 C8 0.930 . S
H36 C13 0.929 . S
H37 C14 0.929 . S
H38 C16 0.931 . S
H39 C17 0.930 . S
Pr40 C42 2.880 . S
Pr40 O60 2.562 . S
Pr40 O61 2.490 . S
Pr40 O62 2.695 . S
Pr40 O63 2.512 . S
Pr40 O65 2.437 . S
Pr40 O68 2.436 . S
Pr40 O70 2.438 . S
Pr41 C51 2.880 . S
Pr41 O62 2.436 . S
Pr41 O64 2.438 . S
Pr41 O66 2.562 . S
Pr41 O67 2.490 . S
Pr41 O68 2.695 . S
Pr41 O69 2.512 . S
Pr41 O71 2.437 . S
C42 Pr40 2.880 . S
C42 C43 1.491 . S
C42 O60 1.254 . S
C42 O61 1.225 . S
C43 C42 1.491 . S
C43 C44 1.392 . S
C43 C48 1.356 . S
C44 C43 1.392 . S
C44 C45 1.368 . S
C44 H72 0.929 . S
C45 C44 1.368 . S
C45 C46 1.386 . S
C45 H73 0.929 . S
C46 C45 1.386 . S
C46 C47 1.373 . S
C47 C46 1.373 . S
C47 C48 1.409 . S
C47 H74 0.931 . S
C48 C43 1.356 . S
C48 C47 1.409 . S
C48 H75 0.930 . S
C49 O62 1.270 . S
C49 O63 1.248 . S
C50 O64 1.267 . S
C50 O65 1.278 . S
C51 Pr41 2.880 . S
C51 C52 1.491 . S
C51 O66 1.254 . S
C51 O67 1.225 . S
C52 C51 1.491 . S
C52 C53 1.392 . S
C52 C57 1.356 . S
C53 C52 1.392 . S
C53 C54 1.368 . S
C53 H76 0.929 . S
C54 C53 1.368 . S
C54 C55 1.386 . S
C54 H77 0.929 . S
C55 C54 1.386 . S
C55 C56 1.373 . S
C56 C55 1.373 . S
C56 C57 1.409 . S
C56 H78 0.931 . S
C57 C52 1.356 . S
C57 C56 1.409 . S
C57 H79 0.930 . S
C58 O68 1.270 . S
C58 O69 1.248 . S
C59 O70 1.267 . S
C59 O71 1.278 . S
O60 Pr40 2.562 . S
O60 C42 1.254 . S
O61 Pr40 2.490 . S
O61 C42 1.225 . S
O62 Pr40 2.695 . S
O62 Pr41 2.436 . S
O62 C49 1.270 . S
O63 Pr40 2.512 . S
O63 C49 1.248 . S
O64 Pr41 2.438 . S
O64 C50 1.267 . S
O65 Pr40 2.437 . S
O65 C50 1.278 . S
O66 Pr41 2.562 . S
O66 C51 1.254 . S
O67 Pr41 2.490 . S
O67 C51 1.225 . S
O68 Pr40 2.436 . S
O68 Pr41 2.695 . S
O68 C58 1.270 . S
O69 Pr41 2.512 . S
O69 C58 1.248 . S
O70 Pr40 2.438 . S
O70 C59 1.267 . S
O71 Pr41 2.437 . S
O71 C59 1.278 . S
H72 C44 0.929 . S
H73 C45 0.929 . S
H74 C47 0.931 . S
H75 C48 0.930 . S
H76 C53 0.929 . S
H77 C54 0.929 . S
H78 C56 0.931 . S
H79 C57 0.930 . S
Pr80 C82 2.880 . S
Pr80 O100 2.562 . S
Pr80 O101 2.490 . S
Pr80 O102 2.695 . S
Pr80 O103 2.512 . S
Pr80 O105 2.437 . S
Pr80 O108 2.436 . S
Pr80 O110 2.438 . S
Pr81 C91 2.880 . S
Pr81 O102 2.436 . S
Pr81 O104 2.438 . S
Pr81 O106 2.562 . S
Pr81 O107 2.490 . S
Pr81 O108 2.695 . S
Pr81 O109 2.512 . S
Pr81 O111 2.437 . S
C82 Pr80 2.880 . S
C82 C83 1.491 . S
C82 O100 1.254 . S
C82 O101 1.225 . S
C83 C82 1.491 . S
C83 C84 1.392 . S
C83 C88 1.356 . S
C84 C83 1.392 . S
C84 C85 1.368 . S
C84 H112 0.929 . S
C85 C84 1.368 . S
C85 C86 1.386 . S
C85 H113 0.929 . S
C86 C85 1.386 . S
C86 C87 1.373 . S
C87 C86 1.373 . S
C87 C88 1.409 . S
C87 H114 0.931 . S
C88 C83 1.356 . S
C88 C87 1.409 . S
C88 H115 0.930 . S
C89 O102 1.270 . S
C89 O103 1.248 . S
C90 O104 1.267 . S
C90 O105 1.278 . S
C91 Pr81 2.880 . S
C91 C92 1.491 . S
C91 O106 1.254 . S
C91 O107 1.225 . S
C92 C91 1.491 . S
C92 C93 1.392 . S
C92 C97 1.356 . S
C93 C92 1.392 . S
C93 C94 1.368 . S
C93 H116 0.929 . S
C94 C93 1.368 . S
C94 C95 1.386 . S
C94 H117 0.929 . S
C95 C94 1.386 . S
C95 C96 1.373 . S
C96 C95 1.373 . S
C96 C97 1.409 . S
C96 H118 0.931 . S
C97 C92 1.356 . S
C97 C96 1.409 . S
C97 H119 0.930 . S
C98 O108 1.270 . S
C98 O109 1.248 . S
C99 O110 1.267 . S
C99 O111 1.278 . S
O100 Pr80 2.562 . S
O100 C82 1.254 . S
O101 Pr80 2.490 . S
O101 C82 1.225 . S
O102 Pr80 2.695 . S
O102 Pr81 2.436 . S
O102 C89 1.270 . S
O103 Pr80 2.512 . S
O103 C89 1.248 . S
O104 Pr81 2.438 . S
O104 C90 1.267 . S
O105 Pr80 2.437 . S
O105 C90 1.278 . S
O106 Pr81 2.562 . S
O106 C91 1.254 . S
O107 Pr81 2.490 . S
O107 C91 1.225 . S
O108 Pr80 2.436 . S
O108 Pr81 2.695 . S
O108 C98 1.270 . S
O109 Pr81 2.512 . S
O109 C98 1.248 . S
O110 Pr80 2.438 . S
O110 C99 1.267 . S
O111 Pr81 2.437 . S
O111 C99 1.278 . S
H112 C84 0.929 . S
H113 C85 0.929 . S
H114 C87 0.931 . S
H115 C88 0.930 . S
H116 C93 0.929 . S
H117 C94 0.929 . S
H118 C96 0.931 . S
H119 C97 0.930 . S
Pr120 C122 2.853 1_554 S
Pr120 O140 2.562 1_554 S
Pr120 O141 2.490 . S
Pr120 O142 2.695 . S
Pr120 O143 2.512 . S
Pr120 O145 2.437 . S
Pr120 O148 2.436 . S
Pr120 O150 2.438 . S
Pr121 C131 2.880 . S
Pr121 O142 2.436 . S
Pr121 O144 2.484 . S
Pr121 O146 2.562 . S
Pr121 O147 2.490 . S
Pr121 O148 2.695 . S
Pr121 O149 2.512 . S
Pr121 O151 2.437 . S
C122 Pr120 2.853 1_556 S
C122 C123 1.518 . S
C122 O140 1.258 . S
C122 O141 1.195 1_556 S
C123 C122 1.518 . S
C123 C124 1.392 . S
C123 C128 1.356 . S
C124 C123 1.392 . S
C124 C125 1.368 . S
C124 H152 0.929 . S
C125 C124 1.368 . S
C125 C126 1.386 . S
C125 H153 0.929 . S
C126 C125 1.386 . S
C126 C127 1.373 . S
C127 C126 1.373 . S
C127 C128 1.409 . S
C127 H154 0.931 . S
C128 C123 1.356 . S
C128 C127 1.409 . S
C128 H155 0.930 . S
C129 O142 1.270 . S
C129 O143 1.248 . S
C130 O144 1.247 1_556 S
C130 O145 1.278 1_556 S
C131 Pr121 2.880 . S
C131 C132 1.491 . S
C131 O146 1.254 . S
C131 O147 1.225 . S
C132 C131 1.491 . S
C132 C133 1.392 . S
C132 C137 1.356 . S
C133 C132 1.392 . S
C133 C134 1.368 . S
C133 H156 0.929 . S
C134 C133 1.368 . S
C134 C135 1.386 . S
C134 H157 0.929 . S
C135 C134 1.386 . S
C135 C136 1.373 . S
C136 C135 1.373 . S
C136 C137 1.409 . S
C136 H158 0.931 . S
C137 C132 1.356 . S
C137 C136 1.409 . S
C137 H159 0.930 . S
C138 O148 1.270 . S
C138 O149 1.248 . S
C139 O150 1.267 . S
C139 O151 1.278 . S
O140 Pr120 2.562 1_556 S
O140 C122 1.258 . S
O141 Pr120 2.490 . S
O141 C122 1.195 1_554 S
O142 Pr120 2.695 . S
O142 Pr121 2.436 . S
O142 C129 1.270 . S
O143 Pr120 2.512 . S
O143 C129 1.248 . S
O144 Pr121 2.484 . S
O144 C130 1.247 1_554 S
O145 Pr120 2.437 . S
O145 C130 1.278 1_554 S
O146 Pr121 2.562 . S
O146 C131 1.254 . S
O147 Pr121 2.490 . S
O147 C131 1.225 . S
O148 Pr120 2.436 . S
O148 Pr121 2.695 . S
O148 C138 1.270 . S
O149 Pr121 2.512 . S
O149 C138 1.248 . S
O150 Pr120 2.438 . S
O150 C139 1.267 . S
O151 Pr121 2.437 . S
O151 C139 1.278 . S
H152 C124 0.929 . S
H153 C125 0.929 . S
H154 C127 0.931 . S
H155 C128 0.930 . S
H156 C133 0.929 . S
H157 C134 0.929 . S
H158 C136 0.931 . S
H159 C137 0.930 . S
Pr160 C162 2.880 . S
Pr160 O180 2.562 . S
Pr160 O181 2.490 . S
Pr160 O182 2.695 . S
Pr160 O183 2.512 . S
Pr160 O185 2.437 . S
Pr160 O188 2.436 . S
Pr160 O190 2.438 . S
Pr161 C171 2.880 . S
Pr161 O182 2.436 . S
Pr161 O184 2.438 . S
Pr161 O186 2.562 . S
Pr161 O187 2.490 . S
Pr161 O188 2.695 . S
Pr161 O189 2.512 . S
Pr161 O191 2.437 . S
C162 Pr160 2.880 . S
C162 C163 1.491 . S
C162 O180 1.254 . S
C162 O181 1.225 . S
C163 C162 1.491 . S
C163 C164 1.392 . S
C163 C168 1.356 . S
C164 C163 1.392 . S
C164 C165 1.368 . S
C164 H192 0.929 . S
C165 C164 1.368 . S
C165 C166 1.386 . S
C165 H193 0.929 . S
C166 C165 1.386 . S
C166 C167 1.373 . S
C167 C166 1.373 . S
C167 C168 1.409 . S
C167 H194 0.931 . S
C168 C163 1.356 . S
C168 C167 1.409 . S
C168 H195 0.930 . S
C169 O182 1.270 . S
C169 O183 1.248 . S
C170 O184 1.267 . S
C170 O185 1.278 . S
C171 Pr161 2.880 . S
C171 C172 1.491 . S
C171 O186 1.254 . S
C171 O187 1.225 . S
C172 C171 1.491 . S
C172 C173 1.392 . S
C172 C177 1.356 . S
C173 C172 1.392 . S
C173 C174 1.368 . S
C173 H196 0.929 . S
C174 C173 1.368 . S
C174 C175 1.386 . S
C174 H197 0.929 . S
C175 C174 1.386 . S
C175 C176 1.373 . S
C176 C175 1.373 . S
C176 C177 1.409 . S
C176 H198 0.931 . S
C177 C172 1.356 . S
C177 C176 1.409 . S
C177 H199 0.930 . S
C178 O188 1.270 . S
C178 O189 1.248 . S
C179 O190 1.267 . S
C179 O191 1.278 . S
O180 Pr160 2.562 . S
O180 C162 1.254 . S
O181 Pr160 2.490 . S
O181 C162 1.225 . S
O182 Pr160 2.695 . S
O182 Pr161 2.436 . S
O182 C169 1.270 . S
O183 Pr160 2.512 . S
O183 C169 1.248 . S
O184 Pr161 2.438 . S
O184 C170 1.267 . S
O185 Pr160 2.437 . S
O185 C170 1.278 . S
O186 Pr161 2.562 . S
O186 C171 1.254 . S
O187 Pr161 2.490 . S
O187 C171 1.225 . S
O188 Pr160 2.436 . S
O188 Pr161 2.695 . S
O188 C178 1.270 . S
O189 Pr161 2.512 . S
O189 C178 1.248 . S
O190 Pr160 2.438 . S
O190 C179 1.267 . S
O191 Pr161 2.437 . S
O191 C179 1.278 . S
H192 C164 0.929 . S
H193 C165 0.929 . S
H194 C167 0.931 . S
H195 C168 0.930 . S
H196 C173 0.929 . S
H197 C174 0.929 . S
H198 C176 0.931 . S
H199 C177 0.930 . S
Pr200 C202 2.880 . S
Pr200 O220 2.562 . S
Pr200 O221 2.490 . S
Pr200 O222 2.695 . S
Pr200 O223 2.512 . S
Pr200 O225 2.437 . S
Pr200 O228 2.436 . S
Pr200 O230 2.438 . S
Pr201 C211 2.880 . S
Pr201 O222 2.436 . S
Pr201 O224 2.438 . S
Pr201 O226 2.562 . S
Pr201 O227 2.490 . S
Pr201 O228 2.695 . S
Pr201 O229 2.512 . S
Pr201 O231 2.437 . S
C202 Pr200 2.880 . S
C202 C203 1.491 . S
C202 O220 1.254 . S
C202 O221 1.225 . S
C203 C202 1.491 . S
C203 C204 1.392 . S
C203 C208 1.356 . S
C204 C203 1.392 . S
C204 C205 1.368 . S
C204 H232 0.929 . S
C205 C204 1.368 . S
C205 C206 1.386 . S
C205 H233 0.929 . S
C206 C205 1.386 . S
C206 C207 1.373 . S
C207 C206 1.373 . S
C207 C208 1.409 . S
C207 H234 0.931 . S
C208 C203 1.356 . S
C208 C207 1.409 . S
C208 H235 0.930 . S
C209 O222 1.270 . S
C209 O223 1.248 . S
C210 O224 1.267 . S
C210 O225 1.278 . S
C211 Pr201 2.880 . S
C211 C212 1.491 . S
C211 O226 1.254 . S
C211 O227 1.225 . S
C212 C211 1.491 . S
C212 C213 1.392 . S
C212 C217 1.356 . S
C213 C212 1.392 . S
C213 C214 1.368 . S
C213 H236 0.929 . S
C214 C213 1.368 . S
C214 C215 1.386 . S
C214 H237 0.929 . S
C215 C214 1.386 . S
C215 C216 1.373 . S
C216 C215 1.373 . S
C216 C217 1.409 . S
C216 H238 0.931 . S
C217 C212 1.356 . S
C217 C216 1.409 . S
C217 H239 0.930 . S
C218 O228 1.270 . S
C218 O229 1.248 . S
C219 O230 1.267 . S
C219 O231 1.278 . S
O220 Pr200 2.562 . S
O220 C202 1.254 . S
O221 Pr200 2.490 . S
O221 C202 1.225 . S
O222 Pr200 2.695 . S
O222 Pr201 2.436 . S
O222 C209 1.270 . S
O223 Pr200 2.512 . S
O223 C209 1.248 . S
O224 Pr201 2.438 . S
O224 C210 1.267 . S
O225 Pr200 2.437 . S
O225 C210 1.278 . S
O226 Pr201 2.562 . S
O226 C211 1.254 . S
O227 Pr201 2.490 . S
O227 C211 1.225 . S
O228 Pr200 2.436 . S
O228 Pr201 2.695 . S
O228 C218 1.270 . S
O229 Pr201 2.512 . S
O229 C218 1.248 . S
O230 Pr200 2.438 . S
O230 C219 1.267 . S
O231 Pr201 2.437 . S
O231 C219 1.278 . S
H232 C204 0.929 . S
H233 C205 0.929 . S
H234 C207 0.931 . S
H235 C208 0.930 . S
H236 C213 0.929 . S
H237 C214 0.929 . S
H238 C216 0.931 . S
H239 C217 0.930 . S
Pr240 C242 2.880 . S
Pr240 O260 2.562 . S
Pr240 O261 2.490 . S
Pr240 O262 2.695 . S
Pr240 O263 2.512 . S
Pr240 O265 2.437 . S
Pr240 O268 2.436 . S
Pr240 O270 2.438 . S
Pr241 C251 2.880 . S
Pr241 O262 2.436 . S
Pr241 O264 2.438 . S
Pr241 O266 2.562 . S
Pr241 O267 2.490 . S
Pr241 O268 2.695 . S
Pr241 O269 2.512 . S
Pr241 O271 2.437 . S
C242 Pr240 2.880 . S
C242 C243 1.491 . S
C242 O260 1.254 . S
C242 O261 1.225 . S
C243 C242 1.491 . S
C243 C244 1.392 . S
C243 C248 1.356 . S
C244 C243 1.392 . S
C244 C245 1.368 . S
C244 H272 0.929 . S
C245 C244 1.368 . S
C245 C246 1.386 . S
C245 H273 0.929 . S
C246 C245 1.386 . S
C246 C247 1.373 . S
C247 C246 1.373 . S
C247 C248 1.409 . S
C247 H274 0.931 . S
C248 C243 1.356 . S
C248 C247 1.409 . S
C248 H275 0.930 . S
C249 O262 1.270 . S
C249 O263 1.248 . S
C250 O264 1.267 . S
C250 O265 1.278 . S
C251 Pr241 2.880 . S
C251 C252 1.491 . S
C251 O266 1.254 . S
C251 O267 1.225 . S
C252 C251 1.491 . S
C252 C253 1.392 . S
C252 C257 1.356 . S
C253 C252 1.392 . S
C253 C254 1.368 . S
C253 H276 0.929 . S
C254 C253 1.368 . S
C254 C255 1.386 . S
C254 H277 0.929 . S
C255 C254 1.386 . S
C255 C256 1.373 . S
C256 C255 1.373 . S
C256 C257 1.409 . S
C256 H278 0.931 . S
C257 C252 1.356 . S
C257 C256 1.409 . S
C257 H279 0.930 . S
C258 O268 1.270 . S
C258 O269 1.248 . S
C259 O270 1.267 . S
C259 O271 1.278 . S
O260 Pr240 2.562 . S
O260 C242 1.254 . S
O261 Pr240 2.490 . S
O261 C242 1.225 . S
O262 Pr240 2.695 . S
O262 Pr241 2.436 . S
O262 C249 1.270 . S
O263 Pr240 2.512 . S
O263 C249 1.248 . S
O264 Pr241 2.438 . S
O264 C250 1.267 . S
O265 Pr240 2.437 . S
O265 C250 1.278 . S
O266 Pr241 2.562 . S
O266 C251 1.254 . S
O267 Pr241 2.490 . S
O267 C251 1.225 . S
O268 Pr240 2.436 . S
O268 Pr241 2.695 . S
O268 C258 1.270 . S
O269 Pr241 2.512 . S
O269 C258 1.248 . S
O270 Pr240 2.438 . S
O270 C259 1.267 . S
O271 Pr241 2.437 . S
O271 C259 1.278 . S
H272 C244 0.929 . S
H273 C245 0.929 . S
H274 C247 0.931 . S
H275 C248 0.930 . S
H276 C253 0.929 . S
H277 C254 0.929 . S
H278 C256 0.931 . S
H279 C257 0.930 . S
Pr280 C282 2.853 1_556 S
Pr280 O300 2.562 1_556 S
Pr280 O301 2.490 . S
Pr280 O302 2.695 . S
Pr280 O303 2.512 . S
Pr280 O305 2.437 . S
Pr280 O308 2.436 . S
Pr280 O310 2.438 . S
Pr281 C291 2.880 . S
Pr281 O302 2.436 . S
Pr281 O304 2.484 . S
Pr281 O306 2.562 . S
Pr281 O307 2.490 . S
Pr281 O308 2.695 . S
Pr281 O309 2.512 . S
Pr281 O311 2.437 . S
C282 Pr280 2.853 1_554 S
C282 C283 1.518 . S
C282 O300 1.258 . S
C282 O301 1.195 1_554 S
C283 C282 1.518 . S
C283 C284 1.392 . S
C283 C288 1.356 . S
C284 C283 1.392 . S
C284 C285 1.368 . S
C284 H312 0.929 . S
C285 C284 1.368 . S
C285 C286 1.386 . S
C285 H313 0.929 . S
C286 C285 1.386 . S
C286 C287 1.373 . S
C287 C286 1.373 . S
C287 C288 1.409 . S
C287 H314 0.931 . S
C288 C283 1.356 . S
C288 C287 1.409 . S
C288 H315 0.930 . S
C289 O302 1.270 . S
C289 O303 1.248 . S
C290 O304 1.247 1_554 S
C290 O305 1.278 1_554 S
C291 Pr281 2.880 . S
C291 C292 1.491 . S
C291 O306 1.254 . S
C291 O307 1.225 . S
C292 C291 1.491 . S
C292 C293 1.392 . S
C292 C297 1.356 . S
C293 C292 1.392 . S
C293 C294 1.368 . S
C293 H316 0.929 . S
C294 C293 1.368 . S
C294 C295 1.386 . S
C294 H317 0.929 . S
C295 C294 1.386 . S
C295 C296 1.373 . S
C296 C295 1.373 . S
C296 C297 1.409 . S
C296 H318 0.931 . S
C297 C292 1.356 . S
C297 C296 1.409 . S
C297 H319 0.930 . S
C298 O308 1.270 . S
C298 O309 1.248 . S
C299 O310 1.267 . S
C299 O311 1.278 . S
O300 Pr280 2.562 1_554 S
O300 C282 1.258 . S
O301 Pr280 2.490 . S
O301 C282 1.195 1_556 S
O302 Pr280 2.695 . S
O302 Pr281 2.436 . S
O302 C289 1.270 . S
O303 Pr280 2.512 . S
O303 C289 1.248 . S
O304 Pr281 2.484 . S
O304 C290 1.247 1_556 S
O305 Pr280 2.437 . S
O305 C290 1.278 1_556 S
O306 Pr281 2.562 . S
O306 C291 1.254 . S
O307 Pr281 2.490 . S
O307 C291 1.225 . S
O308 Pr280 2.436 . S
O308 Pr281 2.695 . S
O308 C298 1.270 . S
O309 Pr281 2.512 . S
O309 C298 1.248 . S
O310 Pr280 2.438 . S
O310 C299 1.267 . S
O311 Pr281 2.437 . S
O311 C299 1.278 . S
H312 C284 0.929 . S
H313 C285 0.929 . S
H314 C287 0.931 . S
H315 C288 0.930 . S
H316 C293 0.929 . S
H317 C294 0.929 . S
H318 C296 0.931 . S
H319 C297 0.930 . S
Pr320 C322 2.880 . S
Pr320 O340 2.562 . S
Pr320 O341 2.490 . S
Pr320 O342 2.695 . S
Pr320 O343 2.512 . S
Pr320 O345 2.437 . S
Pr320 O348 2.436 . S
Pr320 O350 2.438 . S
Pr321 C331 2.880 . S
Pr321 O342 2.436 . S
Pr321 O344 2.438 . S
Pr321 O346 2.562 . S
Pr321 O347 2.490 . S
Pr321 O348 2.695 . S
Pr321 O349 2.512 . S
Pr321 O351 2.437 . S
C322 Pr320 2.880 . S
C322 C323 1.491 . S
C322 O340 1.254 . S
C322 O341 1.225 . S
C323 C322 1.491 . S
C323 C324 1.392 . S
C323 C328 1.356 . S
C324 C323 1.392 . S
C324 C325 1.368 . S
C324 H352 0.929 . S
C325 C324 1.368 . S
C325 C326 1.386 . S
C325 H353 0.929 . S
C326 C325 1.386 . S
C326 C327 1.373 . S
C327 C326 1.373 . S
C327 C328 1.409 . S
C327 H354 0.931 . S
C328 C323 1.356 . S
C328 C327 1.409 . S
C328 H355 0.930 . S
C329 O342 1.270 . S
C329 O343 1.248 . S
C330 O344 1.267 . S
C330 O345 1.278 . S
C331 Pr321 2.880 . S
C331 C332 1.491 . S
C331 O346 1.254 . S
C331 O347 1.225 . S
C332 C331 1.491 . S
C332 C333 1.392 . S
C332 C337 1.356 . S
C333 C332 1.392 . S
C333 C334 1.368 . S
C333 H356 0.929 . S
C334 C333 1.368 . S
C334 C335 1.386 . S
C334 H357 0.929 . S
C335 C334 1.386 . S
C335 C336 1.373 . S
C336 C335 1.373 . S
C336 C337 1.409 . S
C336 H358 0.931 . S
C337 C332 1.356 . S
C337 C336 1.409 . S
C337 H359 0.930 . S
C338 O348 1.270 . S
C338 O349 1.248 . S
C339 O350 1.267 . S
C339 O351 1.278 . S
O340 Pr320 2.562 . S
O340 C322 1.254 . S
O341 Pr320 2.490 . S
O341 C322 1.225 . S
O342 Pr320 2.695 . S
O342 Pr321 2.436 . S
O342 C329 1.270 . S
O343 Pr320 2.512 . S
O343 C329 1.248 . S
O344 Pr321 2.438 . S
O344 C330 1.267 . S
O345 Pr320 2.437 . S
O345 C330 1.278 . S
O346 Pr321 2.562 . S
O346 C331 1.254 . S
O347 Pr321 2.490 . S
O347 C331 1.225 . S
O348 Pr320 2.436 . S
O348 Pr321 2.695 . S
O348 C338 1.270 . S
O349 Pr321 2.512 . S
O349 C338 1.248 . S
O350 Pr320 2.438 . S
O350 C339 1.267 . S
O351 Pr321 2.437 . S
O351 C339 1.278 . S
H352 C324 0.929 . S
H353 C325 0.929 . S
H354 C327 0.931 . S
H355 C328 0.930 . S
H356 C333 0.929 . S
H357 C334 0.929 . S
H358 C336 0.931 . S
H359 C337 0.930 . S
Pr360 C362 2.880 . S
Pr360 O380 2.562 . S
Pr360 O381 2.490 . S
Pr360 O382 2.695 . S
Pr360 O383 2.512 . S
Pr360 O385 2.437 . S
Pr360 O388 2.436 . S
Pr360 O390 2.438 . S
Pr361 C371 2.880 . S
Pr361 O382 2.436 . S
Pr361 O384 2.438 . S
Pr361 O386 2.562 . S
Pr361 O387 2.490 . S
Pr361 O388 2.695 . S
Pr361 O389 2.512 . S
Pr361 O391 2.437 . S
C362 Pr360 2.880 . S
C362 C363 1.491 . S
C362 O380 1.254 . S
C362 O381 1.225 . S
C363 C362 1.491 . S
C363 C364 1.392 . S
C363 C368 1.356 . S
C364 C363 1.392 . S
C364 C365 1.368 . S
C364 H392 0.929 . S
C365 C364 1.368 . S
C365 C366 1.386 . S
C365 H393 0.929 . S
C366 C365 1.386 . S
C366 C367 1.373 . S
C367 C366 1.373 . S
C367 C368 1.409 . S
C367 H394 0.931 . S
C368 C363 1.356 . S
C368 C367 1.409 . S
C368 H395 0.930 . S
C369 O382 1.270 . S
C369 O383 1.248 . S
C370 O384 1.267 . S
C370 O385 1.278 . S
C371 Pr361 2.880 . S
C371 C372 1.491 . S
C371 O386 1.254 . S
C371 O387 1.225 . S
C372 C371 1.491 . S
C372 C373 1.392 . S
C372 C377 1.356 . S
C373 C372 1.392 . S
C373 C374 1.368 . S
C373 H396 0.929 . S
C374 C373 1.368 . S
C374 C375 1.386 . S
C374 H397 0.929 . S
C375 C374 1.386 . S
C375 C376 1.373 . S
C376 C375 1.373 . S
C376 C377 1.409 . S
C376 H398 0.931 . S
C377 C372 1.356 . S
C377 C376 1.409 . S
C377 H399 0.930 . S
C378 O388 1.270 . S
C378 O389 1.248 . S
C379 O390 1.267 . S
C379 O391 1.278 . S
O380 Pr360 2.562 . S
O380 C362 1.254 . S
O381 Pr360 2.490 . S
O381 C362 1.225 . S
O382 Pr360 2.695 . S
O382 Pr361 2.436 . S
O382 C369 1.270 . S
O383 Pr360 2.512 . S
O383 C369 1.248 . S
O384 Pr361 2.438 . S
O384 C370 1.267 . S
O385 Pr360 2.437 . S
O385 C370 1.278 . S
O386 Pr361 2.562 . S
O386 C371 1.254 . S
O387 Pr361 2.490 . S
O387 C371 1.225 . S
O388 Pr360 2.436 . S
O388 Pr361 2.695 . S
O388 C378 1.270 . S
O389 Pr361 2.512 . S
O389 C378 1.248 . S
O390 Pr360 2.438 . S
O390 C379 1.267 . S
O391 Pr361 2.437 . S
O391 C379 1.278 . S
H392 C364 0.929 . S
H393 C365 0.929 . S
H394 C367 0.931 . S
H395 C368 0.930 . S
H396 C373 0.929 . S
H397 C374 0.929 . S
H398 C376 0.931 . S
H399 C377 0.930 . S
Pr400 C402 2.880 . S
Pr400 O420 2.562 . S
Pr400 O421 2.490 . S
Pr400 O422 2.695 . S
Pr400 O423 2.512 . S
Pr400 O425 2.437 . S
Pr400 O428 2.436 . S
Pr400 O430 2.438 . S
Pr401 C411 2.880 . S
Pr401 O422 2.436 . S
Pr401 O424 2.438 . S
Pr401 O426 2.562 . S
Pr401 O427 2.490 . S
Pr401 O428 2.695 . S
Pr401 O429 2.512 . S
Pr401 O431 2.437 . S
C402 Pr400 2.880 . S
C402 C403 1.491 . S
C402 O420 1.254 . S
C402 O421 1.225 . S
C403 C402 1.491 . S
C403 C404 1.392 . S
C403 C408 1.356 . S
C404 C403 1.392 . S
C404 C405 1.368 . S
C404 H432 0.929 . S
C405 C404 1.368 . S
C405 C406 1.386 . S
C405 H433 0.929 . S
C406 C405 1.386 . S
C406 C407 1.373 . S
C407 C406 1.373 . S
C407 C408 1.409 . S
C407 H434 0.931 . S
C408 C403 1.356 . S
C408 C407 1.409 . S
C408 H435 0.930 . S
C409 O422 1.270 . S
C409 O423 1.248 . S
C410 O424 1.267 . S
C410 O425 1.278 . S
C411 Pr401 2.880 . S
C411 C412 1.491 . S
C411 O426 1.254 . S
C411 O427 1.225 . S
C412 C411 1.491 . S
C412 C413 1.392 . S
C412 C417 1.356 . S
C413 C412 1.392 . S
C413 C414 1.368 . S
C413 H436 0.929 . S
C414 C413 1.368 . S
C414 C415 1.386 . S
C414 H437 0.929 . S
C415 C414 1.386 . S
C415 C416 1.373 . S
C416 C415 1.373 . S
C416 C417 1.409 . S
C416 H438 0.931 . S
C417 C412 1.356 . S
C417 C416 1.409 . S
C417 H439 0.930 . S
C418 O428 1.270 . S
C418 O429 1.248 . S
C419 O430 1.267 . S
C419 O431 1.278 . S
O420 Pr400 2.562 . S
O420 C402 1.254 . S
O421 Pr400 2.490 . S
O421 C402 1.225 . S
O422 Pr400 2.695 . S
O422 Pr401 2.436 . S
O422 C409 1.270 . S
O423 Pr400 2.512 . S
O423 C409 1.248 . S
O424 Pr401 2.438 . S
O424 C410 1.267 . S
O425 Pr400 2.437 . S
O425 C410 1.278 . S
O426 Pr401 2.562 . S
O426 C411 1.254 . S
O427 Pr401 2.490 . S
O427 C411 1.225 . S
O428 Pr400 2.436 . S
O428 Pr401 2.695 . S
O428 C418 1.270 . S
O429 Pr401 2.512 . S
O429 C418 1.248 . S
O430 Pr400 2.438 . S
O430 C419 1.267 . S
O431 Pr401 2.437 . S
O431 C419 1.278 . S
H432 C404 0.929 . S
H433 C405 0.929 . S
H434 C407 0.931 . S
H435 C408 0.930 . S
H436 C413 0.929 . S
H437 C414 0.929 . S
H438 C416 0.931 . S
H439 C417 0.930 . S
Pr440 C442 2.880 . S
Pr440 O460 2.562 . S
Pr440 O461 2.490 . S
Pr440 O462 2.695 . S
Pr440 O463 2.512 . S
Pr440 O465 2.437 . S
Pr440 O468 2.436 . S
Pr440 O470 2.484 . S
Pr441 C451 2.853 1_556 S
Pr441 O462 2.436 . S
Pr441 O464 2.438 . S
Pr441 O466 2.562 1_556 S
Pr441 O467 2.490 . S
Pr441 O468 2.695 . S
Pr441 O469 2.512 . S
Pr441 O471 2.437 . S
C442 Pr440 2.880 . S
C442 C443 1.491 . S
C442 O460 1.254 . S
C442 O461 1.225 . S
C443 C442 1.491 . S
C443 C444 1.392 . S
C443 C448 1.356 . S
C444 C443 1.392 . S
C444 C445 1.368 . S
C444 H472 0.929 . S
C445 C444 1.368 . S
C445 C446 1.386 . S
C445 H473 0.929 . S
C446 C445 1.386 . S
C446 C447 1.373 . S
C447 C446 1.373 . S
C447 C448 1.409 . S
C447 H474 0.931 . S
C448 C443 1.356 . S
C448 C447 1.409 . S
C448 H475 0.930 . S
C449 O462 1.270 . S
C449 O463 1.248 . S
C450 O464 1.267 . S
C450 O465 1.278 . S
C451 Pr441 2.853 1_554 S
C451 C452 1.518 . S
C451 O466 1.258 . S
C451 O467 1.195 1_554 S
C452 C451 1.518 . S
C452 C453 1.392 . S
C452 C457 1.356 . S
C453 C452 1.392 . S
C453 C454 1.368 . S
C453 H476 0.929 . S
C454 C453 1.368 . S
C454 C455 1.386 . S
C454 H477 0.929 . S
C455 C454 1.386 . S
C455 C456 1.373 . S
C456 C455 1.373 . S
C456 C457 1.409 . S
C456 H478 0.931 . S
C457 C452 1.356 . S
C457 C456 1.409 . S
C457 H479 0.930 . S
C458 O468 1.270 . S
C458 O469 1.248 . S
C459 O470 1.247 1_554 S
C459 O471 1.278 1_554 S
O460 Pr440 2.562 . S
O460 C442 1.254 . S
O461 Pr440 2.490 . S
O461 C442 1.225 . S
O462 Pr440 2.695 . S
O462 Pr441 2.436 . S
O462 C449 1.270 . S
O463 Pr440 2.512 . S
O463 C449 1.248 . S
O464 Pr441 2.438 . S
O464 C450 1.267 . S
O465 Pr440 2.437 . S
O465 C450 1.278 . S
O466 Pr441 2.562 1_554 S
O466 C451 1.258 . S
O467 Pr441 2.490 . S
O467 C451 1.195 1_556 S
O468 Pr440 2.436 . S
O468 Pr441 2.695 . S
O468 C458 1.270 . S
O469 Pr441 2.512 . S
O469 C458 1.248 . S
O470 Pr440 2.484 . S
O470 C459 1.247 1_556 S
O471 Pr441 2.437 . S
O471 C459 1.278 1_556 S
H472 C444 0.929 . S
H473 C445 0.929 . S
H474 C447 0.931 . S
H475 C448 0.930 . S
H476 C453 0.929 . S
H477 C454 0.929 . S
H478 C456 0.931 . S
H479 C457 0.930 . S
Pr480 C482 2.880 . S
Pr480 O500 2.562 . S
Pr480 O501 2.490 . S
Pr480 O502 2.695 . S
Pr480 O503 2.512 . S
Pr480 O505 2.437 . S
Pr480 O508 2.436 . S
Pr480 O510 2.438 . S
Pr481 C491 2.880 . S
Pr481 O502 2.436 . S
Pr481 O504 2.438 . S
Pr481 O506 2.562 . S
Pr481 O507 2.490 . S
Pr481 O508 2.695 . S
Pr481 O509 2.512 . S
Pr481 O511 2.437 . S
C482 Pr480 2.880 . S
C482 C483 1.491 . S
C482 O500 1.254 . S
C482 O501 1.225 . S
C483 C482 1.491 . S
C483 C484 1.392 . S
C483 C488 1.356 . S
C484 C483 1.392 . S
C484 C485 1.368 . S
C484 H512 0.929 . S
C485 C484 1.368 . S
C485 C486 1.386 . S
C485 H513 0.929 . S
C486 C485 1.386 . S
C486 C487 1.373 . S
C487 C486 1.373 . S
C487 C488 1.409 . S
C487 H514 0.931 . S
C488 C483 1.356 . S
C488 C487 1.409 . S
C488 H515 0.930 . S
C489 O502 1.270 . S
C489 O503 1.248 . S
C490 O504 1.267 . S
C490 O505 1.278 . S
C491 Pr481 2.880 . S
C491 C492 1.491 . S
C491 O506 1.254 . S
C491 O507 1.225 . S
C492 C491 1.491 . S
C492 C493 1.392 . S
C492 C497 1.356 . S
C493 C492 1.392 . S
C493 C494 1.368 . S
C493 H516 0.929 . S
C494 C493 1.368 . S
C494 C495 1.386 . S
C494 H517 0.929 . S
C495 C494 1.386 . S
C495 C496 1.373 . S
C496 C495 1.373 . S
C496 C497 1.409 . S
C496 H518 0.931 . S
C497 C492 1.356 . S
C497 C496 1.409 . S
C497 H519 0.930 . S
C498 O508 1.270 . S
C498 O509 1.248 . S
C499 O510 1.267 . S
C499 O511 1.278 . S
O500 Pr480 2.562 . S
O500 C482 1.254 . S
O501 Pr480 2.490 . S
O501 C482 1.225 . S
O502 Pr480 2.695 . S
O502 Pr481 2.436 . S
O502 C489 1.270 . S
O503 Pr480 2.512 . S
O503 C489 1.248 . S
O504 Pr481 2.438 . S
O504 C490 1.267 . S
O505 Pr480 2.437 . S
O505 C490 1.278 . S
O506 Pr481 2.562 . S
O506 C491 1.254 . S
O507 Pr481 2.490 . S
O507 C491 1.225 . S
O508 Pr480 2.436 . S
O508 Pr481 2.695 . S
O508 C498 1.270 . S
O509 Pr481 2.512 . S
O509 C498 1.248 . S
O510 Pr480 2.438 . S
O510 C499 1.267 . S
O511 Pr481 2.437 . S
O511 C499 1.278 . S
H512 C484 0.929 . S
H513 C485 0.929 . S
H514 C487 0.931 . S
H515 C488 0.930 . S
H516 C493 0.929 . S
H517 C494 0.929 . S
H518 C496 0.931 . S
H519 C497 0.930 . S
Pr520 C522 2.880 . S
Pr520 O540 2.562 . S
Pr520 O541 2.490 . S
Pr520 O542 2.695 . S
Pr520 O543 2.512 . S
Pr520 O545 2.437 . S
Pr520 O548 2.436 . S
Pr520 O550 2.438 . S
Pr521 C531 2.880 . S
Pr521 O542 2.436 . S
Pr521 O544 2.438 . S
Pr521 O546 2.562 . S
Pr521 O547 2.490 . S
Pr521 O548 2.695 . S
Pr521 O549 2.512 . S
Pr521 O551 2.437 . S
C522 Pr520 2.880 . S
C522 C523 1.491 . S
C522 O540 1.254 . S
C522 O541 1.225 . S
C523 C522 1.491 . S
C523 C524 1.392 . S
C523 C528 1.356 . S
C524 C523 1.392 . S
C524 C525 1.368 . S
C524 H552 0.929 . S
C525 C524 1.368 . S
C525 C526 1.386 . S
C525 H553 0.929 . S
C526 C525 1.386 . S
C526 C527 1.373 . S
C527 C526 1.373 . S
C527 C528 1.409 . S
C527 H554 0.931 . S
C528 C523 1.356 . S
C528 C527 1.409 . S
C528 H555 0.930 . S
C529 O542 1.270 . S
C529 O543 1.248 . S
C530 O544 1.267 . S
C530 O545 1.278 . S
C531 Pr521 2.880 . S
C531 C532 1.491 . S
C531 O546 1.254 . S
C531 O547 1.225 . S
C532 C531 1.491 . S
C532 C533 1.392 . S
C532 C537 1.356 . S
C533 C532 1.392 . S
C533 C534 1.368 . S
C533 H556 0.929 . S
C534 C533 1.368 . S
C534 C535 1.386 . S
C534 H557 0.929 . S
C535 C534 1.386 . S
C535 C536 1.373 . S
C536 C535 1.373 . S
C536 C537 1.409 . S
C536 H558 0.931 . S
C537 C532 1.356 . S
C537 C536 1.409 . S
C537 H559 0.930 . S
C538 O548 1.270 . S
C538 O549 1.248 . S
C539 O550 1.267 . S
C539 O551 1.278 . S
O540 Pr520 2.562 . S
O540 C522 1.254 . S
O541 Pr520 2.490 . S
O541 C522 1.225 . S
O542 Pr520 2.695 . S
O542 Pr521 2.436 . S
O542 C529 1.270 . S
O543 Pr520 2.512 . S
O543 C529 1.248 . S
O544 Pr521 2.438 . S
O544 C530 1.267 . S
O545 Pr520 2.437 . S
O545 C530 1.278 . S
O546 Pr521 2.562 . S
O546 C531 1.254 . S
O547 Pr521 2.490 . S
O547 C531 1.225 . S
O548 Pr520 2.436 . S
O548 Pr521 2.695 . S
O548 C538 1.270 . S
O549 Pr521 2.512 . S
O549 C538 1.248 . S
O550 Pr520 2.438 . S
O550 C539 1.267 . S
O551 Pr521 2.437 . S
O551 C539 1.278 . S
H552 C524 0.929 . S
H553 C525 0.929 . S
H554 C527 0.931 . S
H555 C528 0.930 . S
H556 C533 0.929 . S
H557 C534 0.929 . S
H558 C536 0.931 . S
H559 C537 0.930 . S
Pr560 C562 2.880 . S
Pr560 O580 2.562 . S
Pr560 O581 2.490 . S
Pr560 O582 2.695 . S
Pr560 O583 2.512 . S
Pr560 O585 2.437 . S
Pr560 O588 2.436 . S
Pr560 O590 2.438 . S
Pr561 C571 2.880 . S
Pr561 O582 2.436 . S
Pr561 O584 2.438 . S
Pr561 O586 2.562 . S
Pr561 O587 2.490 . S
Pr561 O588 2.695 . S
Pr561 O589 2.512 . S
Pr561 O591 2.437 . S
C562 Pr560 2.880 . S
C562 C563 1.491 . S
C562 O580 1.254 . S
C562 O581 1.225 . S
C563 C562 1.491 . S
C563 C564 1.392 . S
C563 C568 1.356 . S
C564 C563 1.392 . S
C564 C565 1.368 . S
C564 H592 0.929 . S
C565 C564 1.368 . S
C565 C566 1.386 . S
C565 H593 0.929 . S
C566 C565 1.386 . S
C566 C567 1.373 . S
C567 C566 1.373 . S
C567 C568 1.409 . S
C567 H594 0.931 . S
C568 C563 1.356 . S
C568 C567 1.409 . S
C568 H595 0.930 . S
C569 O582 1.270 . S
C569 O583 1.248 . S
C570 O584 1.267 . S
C570 O585 1.278 . S
C571 Pr561 2.880 . S
C571 C572 1.491 . S
C571 O586 1.254 . S
C571 O587 1.225 . S
C572 C571 1.491 . S
C572 C573 1.392 . S
C572 C577 1.356 . S
C573 C572 1.392 . S
C573 C574 1.368 . S
C573 H596 0.929 . S
C574 C573 1.368 . S
C574 C575 1.386 . S
C574 H597 0.929 . S
C575 C574 1.386 . S
C575 C576 1.373 . S
C576 C575 1.373 . S
C576 C577 1.409 . S
C576 H598 0.931 . S
C577 C572 1.356 . S
C577 C576 1.409 . S
C577 H599 0.930 . S
C578 O588 1.270 . S
C578 O589 1.248 . S
C579 O590 1.267 . S
C579 O591 1.278 . S
O580 Pr560 2.562 . S
O580 C562 1.254 . S
O581 Pr560 2.490 . S
O581 C562 1.225 . S
O582 Pr560 2.695 . S
O582 Pr561 2.436 . S
O582 C569 1.270 . S
O583 Pr560 2.512 . S
O583 C569 1.248 . S
O584 Pr561 2.438 . S
O584 C570 1.267 . S
O585 Pr560 2.437 . S
O585 C570 1.278 . S
O586 Pr561 2.562 . S
O586 C571 1.254 . S
O587 Pr561 2.490 . S
O587 C571 1.225 . S
O588 Pr560 2.436 . S
O588 Pr561 2.695 . S
O588 C578 1.270 . S
O589 Pr561 2.512 . S
O589 C578 1.248 . S
O590 Pr560 2.438 . S
O590 C579 1.267 . S
O591 Pr561 2.437 . S
O591 C579 1.278 . S
H592 C564 0.929 . S
H593 C565 0.929 . S
H594 C567 0.931 . S
H595 C568 0.930 . S
H596 C573 0.929 . S
H597 C574 0.929 . S
H598 C576 0.931 . S
H599 C577 0.930 . S
Pr600 C602 2.880 . S
Pr600 O620 2.562 . S
Pr600 O621 2.490 . S
Pr600 O622 2.695 . S
Pr600 O623 2.512 . S
Pr600 O625 2.437 . S
Pr600 O628 2.436 . S
Pr600 O630 2.484 . S
Pr601 C611 2.853 1_554 S
Pr601 O622 2.436 . S
Pr601 O624 2.438 . S
Pr601 O626 2.562 1_554 S
Pr601 O627 2.490 . S
Pr601 O628 2.695 . S
Pr601 O629 2.512 . S
Pr601 O631 2.437 . S
C602 Pr600 2.880 . S
C602 C603 1.491 . S
C602 O620 1.254 . S
C602 O621 1.225 . S
C603 C602 1.491 . S
C603 C604 1.392 . S
C603 C608 1.356 . S
C604 C603 1.392 . S
C604 C605 1.368 . S
C604 H632 0.929 . S
C605 C604 1.368 . S
C605 C606 1.386 . S
C605 H633 0.929 . S
C606 C605 1.386 . S
C606 C607 1.373 . S
C607 C606 1.373 . S
C607 C608 1.409 . S
C607 H634 0.931 . S
C608 C603 1.356 . S
C608 C607 1.409 . S
C608 H635 0.930 . S
C609 O622 1.270 . S
C609 O623 1.248 . S
C610 O624 1.267 . S
C610 O625 1.278 . S
C611 Pr601 2.853 1_556 S
C611 C612 1.518 . S
C611 O626 1.258 . S
C611 O627 1.195 1_556 S
C612 C611 1.518 . S
C612 C613 1.392 . S
C612 C617 1.356 . S
C613 C612 1.392 . S
C613 C614 1.368 . S
C613 H636 0.929 . S
C614 C613 1.368 . S
C614 C615 1.386 . S
C614 H637 0.929 . S
C615 C614 1.386 . S
C615 C616 1.373 . S
C616 C615 1.373 . S
C616 C617 1.409 . S
C616 H638 0.931 . S
C617 C612 1.356 . S
C617 C616 1.409 . S
C617 H639 0.930 . S
C618 O628 1.270 . S
C618 O629 1.248 . S
C619 O630 1.247 1_556 S
C619 O631 1.278 1_556 S
O620 Pr600 2.562 . S
O620 C602 1.254 . S
O621 Pr600 2.490 . S
O621 C602 1.225 . S
O622 Pr600 2.695 . S
O622 Pr601 2.436 . S
O622 C609 1.270 . S
O623 Pr600 2.512 . S
O623 C609 1.248 . S
O624 Pr601 2.438 . S
O624 C610 1.267 . S
O625 Pr600 2.437 . S
O625 C610 1.278 . S
O626 Pr601 2.562 1_556 S
O626 C611 1.258 . S
O627 Pr601 2.490 . S
O627 C611 1.195 1_554 S
O628 Pr600 2.436 . S
O628 Pr601 2.695 . S
O628 C618 1.270 . S
O629 Pr601 2.512 . S
O629 C618 1.248 . S
O630 Pr600 2.484 . S
O630 C619 1.247 1_554 S
O631 Pr601 2.437 . S
O631 C619 1.278 1_554 S
H632 C604 0.929 . S
H633 C605 0.929 . S
H634 C607 0.931 . S
H635 C608 0.930 . S
H636 C613 0.929 . S
H637 C614 0.929 . S
H638 C616 0.931 . S
H639 C617 0.930 . S
Pr640 C642 2.880 . S
Pr640 O660 2.562 . S
Pr640 O661 2.490 . S
Pr640 O662 2.695 . S
Pr640 O663 2.512 . S
Pr640 O665 2.437 . S
Pr640 O668 2.436 . S
Pr640 O670 2.438 . S
Pr641 C651 2.880 . S
Pr641 O662 2.436 . S
Pr641 O664 2.438 . S
Pr641 O666 2.562 . S
Pr641 O667 2.490 . S
Pr641 O668 2.695 . S
Pr641 O669 2.512 . S
Pr641 O671 2.437 . S
C642 Pr640 2.880 . S
C642 C643 1.491 . S
C642 O660 1.254 . S
C642 O661 1.225 . S
C643 C642 1.491 . S
C643 C644 1.392 . S
C643 C648 1.356 . S
C644 C643 1.392 . S
C644 C645 1.368 . S
C644 H672 0.929 . S
C645 C644 1.368 . S
C645 C646 1.386 . S
C645 H673 0.929 . S
C646 C645 1.386 . S
C646 C647 1.373 . S
C647 C646 1.373 . S
C647 C648 1.409 . S
C647 H674 0.931 . S
C648 C643 1.356 . S
C648 C647 1.409 . S
C648 H675 0.930 . S
C649 O662 1.270 . S
C649 O663 1.248 . S
C650 O664 1.267 . S
C650 O665 1.278 . S
C651 Pr641 2.880 . S
C651 C652 1.491 . S
C651 O666 1.254 . S
C651 O667 1.225 . S
C652 C651 1.491 . S
C652 C653 1.392 . S
C652 C657 1.356 . S
C653 C652 1.392 . S
C653 C654 1.368 . S
C653 H676 0.929 . S
C654 C653 1.368 . S
C654 C655 1.386 . S
C654 H677 0.929 . S
C655 C654 1.386 . S
C655 C656 1.373 . S
C656 C655 1.373 . S
C656 C657 1.409 . S
C656 H678 0.931 . S
C657 C652 1.356 . S
C657 C656 1.409 . S
C657 H679 0.930 . S
C658 O668 1.270 . S
C658 O669 1.248 . S
C659 O670 1.267 . S
C659 O671 1.278 . S
O660 Pr640 2.562 . S
O660 C642 1.254 . S
O661 Pr640 2.490 . S
O661 C642 1.225 . S
O662 Pr640 2.695 . S
O662 Pr641 2.436 . S
O662 C649 1.270 . S
O663 Pr640 2.512 . S
O663 C649 1.248 . S
O664 Pr641 2.438 . S
O664 C650 1.267 . S
O665 Pr640 2.437 . S
O665 C650 1.278 . S
O666 Pr641 2.562 . S
O666 C651 1.254 . S
O667 Pr641 2.490 . S
O667 C651 1.225 . S
O668 Pr640 2.436 . S
O668 Pr641 2.695 . S
O668 C658 1.270 . S
O669 Pr641 2.512 . S
O669 C658 1.248 . S
O670 Pr640 2.438 . S
O670 C659 1.267 . S
O671 Pr641 2.437 . S
O671 C659 1.278 . S
H672 C644 0.929 . S
H673 C645 0.929 . S
H674 C647 0.931 . S
H675 C648 0.930 . S
H676 C653 0.929 . S
H677 C654 0.929 . S
H678 C656 0.931 . S
H679 C657 0.930 . S
Pr680 C682 2.853 1_554 S
Pr680 O700 2.562 1_554 S
Pr680 O701 2.490 . S
Pr680 O702 2.695 . S
Pr680 O703 2.512 . S
Pr680 O705 2.437 . S
Pr680 O708 2.436 . S
Pr680 O710 2.438 . S
Pr681 C691 2.880 . S
Pr681 O702 2.436 . S
Pr681 O704 2.484 . S
Pr681 O706 2.562 . S
Pr681 O707 2.490 . S
Pr681 O708 2.695 . S
Pr681 O709 2.512 . S
Pr681 O711 2.437 . S
C682 Pr680 2.853 1_556 S
C682 C683 1.518 . S
C682 O700 1.258 . S
C682 O701 1.195 1_556 S
C683 C682 1.518 . S
C683 C684 1.392 . S
C683 C688 1.356 . S
C684 C683 1.392 . S
C684 C685 1.368 . S
C684 H712 0.929 . S
C685 C684 1.368 . S
C685 C686 1.386 . S
C685 H713 0.929 . S
C686 C685 1.386 . S
C686 C687 1.373 . S
C687 C686 1.373 . S
C687 C688 1.409 . S
C687 H714 0.931 . S
C688 C683 1.356 . S
C688 C687 1.409 . S
C688 H715 0.930 . S
C689 O702 1.270 . S
C689 O703 1.248 . S
C690 O704 1.247 1_556 S
C690 O705 1.278 1_556 S
C691 Pr681 2.880 . S
C691 C692 1.491 . S
C691 O706 1.254 . S
C691 O707 1.225 . S
C692 C691 1.491 . S
C692 C693 1.392 . S
C692 C697 1.356 . S
C693 C692 1.392 . S
C693 C694 1.368 . S
C693 H716 0.929 . S
C694 C693 1.368 . S
C694 C695 1.386 . S
C694 H717 0.929 . S
C695 C694 1.386 . S
C695 C696 1.373 . S
C696 C695 1.373 . S
C696 C697 1.409 . S
C696 H718 0.931 . S
C697 C692 1.356 . S
C697 C696 1.409 . S
C697 H719 0.930 . S
C698 O708 1.270 . S
C698 O709 1.248 . S
C699 O710 1.267 . S
C699 O711 1.278 . S
O700 Pr680 2.562 1_556 S
O700 C682 1.258 . S
O701 Pr680 2.490 . S
O701 C682 1.195 1_554 S
O702 Pr680 2.695 . S
O702 Pr681 2.436 . S
O702 C689 1.270 . S
O703 Pr680 2.512 . S
O703 C689 1.248 . S
O704 Pr681 2.484 . S
O704 C690 1.247 1_554 S
O705 Pr680 2.437 . S
O705 C690 1.278 1_554 S
O706 Pr681 2.562 . S
O706 C691 1.254 . S
O707 Pr681 2.490 . S
O707 C691 1.225 . S
O708 Pr680 2.436 . S
O708 Pr681 2.695 . S
O708 C698 1.270 . S
O709 Pr681 2.512 . S
O709 C698 1.248 . S
O710 Pr680 2.438 . S
O710 C699 1.267 . S
O711 Pr681 2.437 . S
O711 C699 1.278 . S
H712 C684 0.929 . S
H713 C685 0.929 . S
H714 C687 0.931 . S
H715 C688 0.930 . S
H716 C693 0.929 . S
H717 C694 0.929 . S
H718 C696 0.931 . S
H719 C697 0.930 . S
Pr720 C722 2.880 . S
Pr720 O740 2.562 . S
Pr720 O741 2.490 . S
Pr720 O742 2.695 . S
Pr720 O743 2.512 . S
Pr720 O745 2.437 . S
Pr720 O748 2.436 . S
Pr720 O750 2.438 . S
Pr721 C731 2.880 . S
Pr721 O742 2.436 . S
Pr721 O744 2.438 . S
Pr721 O746 2.562 . S
Pr721 O747 2.490 . S
Pr721 O748 2.695 . S
Pr721 O749 2.512 . S
Pr721 O751 2.437 . S
C722 Pr720 2.880 . S
C722 C723 1.491 . S
C722 O740 1.254 . S
C722 O741 1.225 . S
C723 C722 1.491 . S
C723 C724 1.392 . S
C723 C728 1.356 . S
C724 C723 1.392 . S
C724 C725 1.368 . S
C724 H752 0.929 . S
C725 C724 1.368 . S
C725 C726 1.386 . S
C725 H753 0.929 . S
C726 C725 1.386 . S
C726 C727 1.373 . S
C727 C726 1.373 . S
C727 C728 1.409 . S
C727 H754 0.931 . S
C728 C723 1.356 . S
C728 C727 1.409 . S
C728 H755 0.930 . S
C729 O742 1.270 . S
C729 O743 1.248 . S
C730 O744 1.267 . S
C730 O745 1.278 . S
C731 Pr721 2.880 . S
C731 C732 1.491 . S
C731 O746 1.254 . S
C731 O747 1.225 . S
C732 C731 1.491 . S
C732 C733 1.392 . S
C732 C737 1.356 . S
C733 C732 1.392 . S
C733 C734 1.368 . S
C733 H756 0.929 . S
C734 C733 1.368 . S
C734 C735 1.386 . S
C734 H757 0.929 . S
C735 C734 1.386 . S
C735 C736 1.373 . S
C736 C735 1.373 . S
C736 C737 1.409 . S
C736 H758 0.931 . S
C737 C732 1.356 . S
C737 C736 1.409 . S
C737 H759 0.930 . S
C738 O748 1.270 . S
C738 O749 1.248 . S
C739 O750 1.267 . S
C739 O751 1.278 . S
O740 Pr720 2.562 . S
O740 C722 1.254 . S
O741 Pr720 2.490 . S
O741 C722 1.225 . S
O742 Pr720 2.695 . S
O742 Pr721 2.436 . S
O742 C729 1.270 . S
O743 Pr720 2.512 . S
O743 C729 1.248 . S
O744 Pr721 2.438 . S
O744 C730 1.267 . S
O745 Pr720 2.437 . S
O745 C730 1.278 . S
O746 Pr721 2.562 . S
O746 C731 1.254 . S
O747 Pr721 2.490 . S
O747 C731 1.225 . S
O748 Pr720 2.436 . S
O748 Pr721 2.695 . S
O748 C738 1.270 . S
O749 Pr721 2.512 . S
O749 C738 1.248 . S
O750 Pr720 2.438 . S
O750 C739 1.267 . S
O751 Pr721 2.437 . S
O751 C739 1.278 . S
H752 C724 0.929 . S
H753 C725 0.929 . S
H754 C727 0.931 . S
H755 C728 0.930 . S
H756 C733 0.929 . S
H757 C734 0.929 . S
H758 C736 0.931 . S
H759 C737 0.930 . S
Pr760 C762 2.880 . S
Pr760 O780 2.562 . S
Pr760 O781 2.490 . S
Pr760 O782 2.695 . S
Pr760 O783 2.512 . S
Pr760 O785 2.437 . S
Pr760 O788 2.436 . S
Pr760 O790 2.438 . S
Pr761 C771 2.880 . S
Pr761 O782 2.436 . S
Pr761 O784 2.438 . S
Pr761 O786 2.562 . S
Pr761 O787 2.490 . S
Pr761 O788 2.695 . S
Pr761 O789 2.512 . S
Pr761 O791 2.437 . S
C762 Pr760 2.880 . S
C762 C763 1.491 . S
C762 O780 1.254 . S
C762 O781 1.225 . S
C763 C762 1.491 . S
C763 C764 1.392 . S
C763 C768 1.356 . S
C764 C763 1.392 . S
C764 C765 1.368 . S
C764 H792 0.929 . S
C765 C764 1.368 . S
C765 C766 1.386 . S
C765 H793 0.929 . S
C766 C765 1.386 . S
C766 C767 1.373 . S
C767 C766 1.373 . S
C767 C768 1.409 . S
C767 H794 0.931 . S
C768 C763 1.356 . S
C768 C767 1.409 . S
C768 H795 0.930 . S
C769 O782 1.270 . S
C769 O783 1.248 . S
C770 O784 1.267 . S
C770 O785 1.278 . S
C771 Pr761 2.880 . S
C771 C772 1.491 . S
C771 O786 1.254 . S
C771 O787 1.225 . S
C772 C771 1.491 . S
C772 C773 1.392 . S
C772 C777 1.356 . S
C773 C772 1.392 . S
C773 C774 1.368 . S
C773 H796 0.929 . S
C774 C773 1.368 . S
C774 C775 1.386 . S
C774 H797 0.929 . S
C775 C774 1.386 . S
C775 C776 1.373 . S
C776 C775 1.373 . S
C776 C777 1.409 . S
C776 H798 0.931 . S
C777 C772 1.356 . S
C777 C776 1.409 . S
C777 H799 0.930 . S
C778 O788 1.270 . S
C778 O789 1.248 . S
C779 O790 1.267 . S
C779 O791 1.278 . S
O780 Pr760 2.562 . S
O780 C762 1.254 . S
O781 Pr760 2.490 . S
O781 C762 1.225 . S
O782 Pr760 2.695 . S
O782 Pr761 2.436 . S
O782 C769 1.270 . S
O783 Pr760 2.512 . S
O783 C769 1.248 . S
O784 Pr761 2.438 . S
O784 C770 1.267 . S
O785 Pr760 2.437 . S
O785 C770 1.278 . S
O786 Pr761 2.562 . S
O786 C771 1.254 . S
O787 Pr761 2.490 . S
O787 C771 1.225 . S
O788 Pr760 2.436 . S
O788 Pr761 2.695 . S
O788 C778 1.270 . S
O789 Pr761 2.512 . S
O789 C778 1.248 . S
O790 Pr760 2.438 . S
O790 C779 1.267 . S
O791 Pr761 2.437 . S
O791 C779 1.278 . S
H792 C764 0.929 . S
H793 C765 0.929 . S
H794 C767 0.931 . S
H795 C768 0.930 . S
H796 C773 0.929 . S
H797 C774 0.929 . S
H798 C776 0.931 . S
H799 C777 0.930 . S
Pr800 C802 2.880 . S
Pr800 O820 2.562 . S
Pr800 O821 2.490 . S
Pr800 O822 2.695 . S
Pr800 O823 2.512 . S
Pr800 O825 2.437 . S
Pr800 O828 2.436 . S
Pr800 O830 2.438 . S
Pr801 C811 2.880 . S
Pr801 O822 2.436 . S
Pr801 O824 2.438 . S
Pr801 O826 2.562 . S
Pr801 O827 2.490 . S
Pr801 O828 2.695 . S
Pr801 O829 2.512 . S
Pr801 O831 2.437 . S
C802 Pr800 2.880 . S
C802 C803 1.491 . S
C802 O820 1.254 . S
C802 O821 1.225 . S
C803 C802 1.491 . S
C803 C804 1.392 . S
C803 C808 1.356 . S
C804 C803 1.392 . S
C804 C805 1.368 . S
C804 H832 0.929 . S
C805 C804 1.368 . S
C805 C806 1.386 . S
C805 H833 0.929 . S
C806 C805 1.386 . S
C806 C807 1.373 . S
C807 C806 1.373 . S
C807 C808 1.409 . S
C807 H834 0.931 . S
C808 C803 1.356 . S
C808 C807 1.409 . S
C808 H835 0.930 . S
C809 O822 1.270 . S
C809 O823 1.248 . S
C810 O824 1.267 . S
C810 O825 1.278 . S
C811 Pr801 2.880 . S
C811 C812 1.491 . S
C811 O826 1.254 . S
C811 O827 1.225 . S
C812 C811 1.491 . S
C812 C813 1.392 . S
C812 C817 1.356 . S
C813 C812 1.392 . S
C813 C814 1.368 . S
C813 H836 0.929 . S
C814 C813 1.368 . S
C814 C815 1.386 . S
C814 H837 0.929 . S
C815 C814 1.386 . S
C815 C816 1.373 . S
C816 C815 1.373 . S
C816 C817 1.409 . S
C816 H838 0.931 . S
C817 C812 1.356 . S
C817 C816 1.409 . S
C817 H839 0.930 . S
C818 O828 1.270 . S
C818 O829 1.248 . S
C819 O830 1.267 . S
C819 O831 1.278 . S
O820 Pr800 2.562 . S
O820 C802 1.254 . S
O821 Pr800 2.490 . S
O821 C802 1.225 . S
O822 Pr800 2.695 . S
O822 Pr801 2.436 . S
O822 C809 1.270 . S
O823 Pr800 2.512 . S
O823 C809 1.248 . S
O824 Pr801 2.438 . S
O824 C810 1.267 . S
O825 Pr800 2.437 . S
O825 C810 1.278 . S
O826 Pr801 2.562 . S
O826 C811 1.254 . S
O827 Pr801 2.490 . S
O827 C811 1.225 . S
O828 Pr800 2.436 . S
O828 Pr801 2.695 . S
O828 C818 1.270 . S
O829 Pr801 2.512 . S
O829 C818 1.248 . S
O830 Pr800 2.438 . S
O830 C819 1.267 . S
O831 Pr801 2.437 . S
O831 C819 1.278 . S
H832 C804 0.929 . S
H833 C805 0.929 . S
H834 C807 0.931 . S
H835 C808 0.930 . S
H836 C813 0.929 . S
H837 C814 0.929 . S
H838 C816 0.931 . S
H839 C817 0.930 . S
Pr840 C842 2.853 1_556 S
Pr840 O860 2.562 1_556 S
Pr840 O861 2.490 . S
Pr840 O862 2.695 . S
Pr840 O863 2.512 . S
Pr840 O865 2.437 . S
Pr840 O868 2.436 . S
Pr840 O870 2.438 . S
Pr841 C851 2.880 . S
Pr841 O862 2.436 . S
Pr841 O864 2.484 . S
Pr841 O866 2.562 . S
Pr841 O867 2.490 . S
Pr841 O868 2.695 . S
Pr841 O869 2.512 . S
Pr841 O871 2.437 . S
C842 Pr840 2.853 1_554 S
C842 C843 1.518 . S
C842 O860 1.258 . S
C842 O861 1.195 1_554 S
C843 C842 1.518 . S
C843 C844 1.392 . S
C843 C848 1.356 . S
C844 C843 1.392 . S
C844 C845 1.368 . S
C844 H872 0.929 . S
C845 C844 1.368 . S
C845 C846 1.386 . S
C845 H873 0.929 . S
C846 C845 1.386 . S
C846 C847 1.373 . S
C847 C846 1.373 . S
C847 C848 1.409 . S
C847 H874 0.931 . S
C848 C843 1.356 . S
C848 C847 1.409 . S
C848 H875 0.930 . S
C849 O862 1.270 . S
C849 O863 1.248 . S
C850 O864 1.247 1_554 S
C850 O865 1.278 1_554 S
C851 Pr841 2.880 . S
C851 C852 1.491 . S
C851 O866 1.254 . S
C851 O867 1.225 . S
C852 C851 1.491 . S
C852 C853 1.392 . S
C852 C857 1.356 . S
C853 C852 1.392 . S
C853 C854 1.368 . S
C853 H876 0.929 . S
C854 C853 1.368 . S
C854 C855 1.386 . S
C854 H877 0.929 . S
C855 C854 1.386 . S
C855 C856 1.373 . S
C856 C855 1.373 . S
C856 C857 1.409 . S
C856 H878 0.931 . S
C857 C852 1.356 . S
C857 C856 1.409 . S
C857 H879 0.930 . S
C858 O868 1.270 . S
C858 O869 1.248 . S
C859 O870 1.267 . S
C859 O871 1.278 . S
O860 Pr840 2.562 1_554 S
O860 C842 1.258 . S
O861 Pr840 2.490 . S
O861 C842 1.195 1_556 S
O862 Pr840 2.695 . S
O862 Pr841 2.436 . S
O862 C849 1.270 . S
O863 Pr840 2.512 . S
O863 C849 1.248 . S
O864 Pr841 2.484 . S
O864 C850 1.247 1_556 S
O865 Pr840 2.437 . S
O865 C850 1.278 1_556 S
O866 Pr841 2.562 . S
O866 C851 1.254 . S
O867 Pr841 2.490 . S
O867 C851 1.225 . S
O868 Pr840 2.436 . S
O868 Pr841 2.695 . S
O868 C858 1.270 . S
O869 Pr841 2.512 . S
O869 C858 1.248 . S
O870 Pr840 2.438 . S
O870 C859 1.267 . S
O871 Pr841 2.437 . S
O871 C859 1.278 . S
H872 C844 0.929 . S
H873 C845 0.929 . S
H874 C847 0.931 . S
H875 C848 0.930 . S
H876 C853 0.929 . S
H877 C854 0.929 . S
H878 C856 0.931 . S
H879 C857 0.930 . S
Pr880 C882 2.880 . S
Pr880 O900 2.562 . S
Pr880 O901 2.490 . S
Pr880 O902 2.695 . S
Pr880 O903 2.512 . S
Pr880 O905 2.437 . S
Pr880 O908 2.436 . S
Pr880 O910 2.438 . S
Pr881 C891 2.880 . S
Pr881 O902 2.436 . S
Pr881 O904 2.438 . S
Pr881 O906 2.562 . S
Pr881 O907 2.490 . S
Pr881 O908 2.695 . S
Pr881 O909 2.512 . S
Pr881 O911 2.437 . S
C882 Pr880 2.880 . S
C882 C883 1.491 . S
C882 O900 1.254 . S
C882 O901 1.225 . S
C883 C882 1.491 . S
C883 C884 1.392 . S
C883 C888 1.356 . S
C884 C883 1.392 . S
C884 C885 1.368 . S
C884 H912 0.929 . S
C885 C884 1.368 . S
C885 C886 1.386 . S
C885 H913 0.929 . S
C886 C885 1.386 . S
C886 C887 1.373 . S
C887 C886 1.373 . S
C887 C888 1.409 . S
C887 H914 0.931 . S
C888 C883 1.356 . S
C888 C887 1.409 . S
C888 H915 0.930 . S
C889 O902 1.270 . S
C889 O903 1.248 . S
C890 O904 1.267 . S
C890 O905 1.278 . S
C891 Pr881 2.880 . S
C891 C892 1.491 . S
C891 O906 1.254 . S
C891 O907 1.225 . S
C892 C891 1.491 . S
C892 C893 1.392 . S
C892 C897 1.356 . S
C893 C892 1.392 . S
C893 C894 1.368 . S
C893 H916 0.929 . S
C894 C893 1.368 . S
C894 C895 1.386 . S
C894 H917 0.929 . S
C895 C894 1.386 . S
C895 C896 1.373 . S
C896 C895 1.373 . S
C896 C897 1.409 . S
C896 H918 0.931 . S
C897 C892 1.356 . S
C897 C896 1.409 . S
C897 H919 0.930 . S
C898 O908 1.270 . S
C898 O909 1.248 . S
C899 O910 1.267 . S
C899 O911 1.278 . S
O900 Pr880 2.562 . S
O900 C882 1.254 . S
O901 Pr880 2.490 . S
O901 C882 1.225 . S
O902 Pr880 2.695 . S
O902 Pr881 2.436 . S
O902 C889 1.270 . S
O903 Pr880 2.512 . S
O903 C889 1.248 . S
O904 Pr881 2.438 . S
O904 C890 1.267 . S
O905 Pr880 2.437 . S
O905 C890 1.278 . S
O906 Pr881 2.562 . S
O906 C891 1.254 . S
O907 Pr881 2.490 . S
O907 C891 1.225 . S
O908 Pr880 2.436 . S
O908 Pr881 2.695 . S
O908 C898 1.270 . S
O909 Pr881 2.512 . S
O909 C898 1.248 . S
O910 Pr880 2.438 . S
O910 C899 1.267 . S
O911 Pr881 2.437 . S
O911 C899 1.278 . S
H912 C884 0.929 . S
H913 C885 0.929 . S
H914 C887 0.931 . S
H915 C888 0.930 . S
H916 C893 0.929 . S
H917 C894 0.929 . S
H918 C896 0.931 . S
H919 C897 0.930 . S
Pr920 C922 2.880 . S
Pr920 O940 2.562 . S
Pr920 O941 2.490 . S
Pr920 O942 2.695 . S
Pr920 O943 2.512 . S
Pr920 O945 2.437 . S
Pr920 O948 2.436 . S
Pr920 O950 2.438 . S
Pr921 C931 2.880 . S
Pr921 O942 2.436 . S
Pr921 O944 2.438 . S
Pr921 O946 2.562 . S
Pr921 O947 2.490 . S
Pr921 O948 2.695 . S
Pr921 O949 2.512 . S
Pr921 O951 2.437 . S
C922 Pr920 2.880 . S
C922 C923 1.491 . S
C922 O940 1.254 . S
C922 O941 1.225 . S
C923 C922 1.491 . S
C923 C924 1.392 . S
C923 C928 1.356 . S
C924 C923 1.392 . S
C924 C925 1.368 . S
C924 H952 0.929 . S
C925 C924 1.368 . S
C925 C926 1.386 . S
C925 H953 0.929 . S
C926 C925 1.386 . S
C926 C927 1.373 . S
C927 C926 1.373 . S
C927 C928 1.409 . S
C927 H954 0.931 . S
C928 C923 1.356 . S
C928 C927 1.409 . S
C928 H955 0.930 . S
C929 O942 1.270 . S
C929 O943 1.248 . S
C930 O944 1.267 . S
C930 O945 1.278 . S
C931 Pr921 2.880 . S
C931 C932 1.491 . S
C931 O946 1.254 . S
C931 O947 1.225 . S
C932 C931 1.491 . S
C932 C933 1.392 . S
C932 C937 1.356 . S
C933 C932 1.392 . S
C933 C934 1.368 . S
C933 H956 0.929 . S
C934 C933 1.368 . S
C934 C935 1.386 . S
C934 H957 0.929 . S
C935 C934 1.386 . S
C935 C936 1.373 . S
C936 C935 1.373 . S
C936 C937 1.409 . S
C936 H958 0.931 . S
C937 C932 1.356 . S
C937 C936 1.409 . S
C937 H959 0.930 . S
C938 O948 1.270 . S
C938 O949 1.248 . S
C939 O950 1.267 . S
C939 O951 1.278 . S
O940 Pr920 2.562 . S
O940 C922 1.254 . S
O941 Pr920 2.490 . S
O941 C922 1.225 . S
O942 Pr920 2.695 . S
O942 Pr921 2.436 . S
O942 C929 1.270 . S
O943 Pr920 2.512 . S
O943 C929 1.248 . S
O944 Pr921 2.438 . S
O944 C930 1.267 . S
O945 Pr920 2.437 . S
O945 C930 1.278 . S
O946 Pr921 2.562 . S
O946 C931 1.254 . S
O947 Pr921 2.490 . S
O947 C931 1.225 . S
O948 Pr920 2.436 . S
O948 Pr921 2.695 . S
O948 C938 1.270 . S
O949 Pr921 2.512 . S
O949 C938 1.248 . S
O950 Pr920 2.438 . S
O950 C939 1.267 . S
O951 Pr921 2.437 . S
O951 C939 1.278 . S
H952 C924 0.929 . S
H953 C925 0.929 . S
H954 C927 0.931 . S
H955 C928 0.930 . S
H956 C933 0.929 . S
H957 C934 0.929 . S
H958 C936 0.931 . S
H959 C937 0.930 . S
Pr960 C962 2.880 . S
Pr960 O980 2.562 . S
Pr960 O981 2.490 . S
Pr960 O982 2.695 . S
Pr960 O983 2.512 . S
Pr960 O985 2.437 . S
Pr960 O988 2.436 . S
Pr960 O990 2.438 . S
Pr961 C971 2.880 . S
Pr961 O982 2.436 . S
Pr961 O984 2.438 . S
Pr961 O986 2.562 . S
Pr961 O987 2.490 . S
Pr961 O988 2.695 . S
Pr961 O989 2.512 . S
Pr961 O991 2.437 . S
C962 Pr960 2.880 . S
C962 C963 1.491 . S
C962 O980 1.254 . S
C962 O981 1.225 . S
C963 C962 1.491 . S
C963 C964 1.392 . S
C963 C968 1.356 . S
C964 C963 1.392 . S
C964 C965 1.368 . S
C964 H992 0.929 . S
C965 C964 1.368 . S
C965 C966 1.386 . S
C965 H993 0.929 . S
C966 C965 1.386 . S
C966 C967 1.373 . S
C967 C966 1.373 . S
C967 C968 1.409 . S
C967 H994 0.931 . S
C968 C963 1.356 . S
C968 C967 1.409 . S
C968 H995 0.930 . S
C969 O982 1.270 . S
C969 O983 1.248 . S
C970 O984 1.267 . S
C970 O985 1.278 . S
C971 Pr961 2.880 . S
C971 C972 1.491 . S
C971 O986 1.254 . S
C971 O987 1.225 . S
C972 C971 1.491 . S
C972 C973 1.392 . S
C972 C977 1.356 . S
C973 C972 1.392 . S
C973 C974 1.368 . S
C973 H996 0.929 . S
C974 C973 1.368 . S
C974 C975 1.386 . S
C974 H997 0.929 . S
C975 C974 1.386 . S
C975 C976 1.373 . S
C976 C975 1.373 . S
C976 C977 1.409 . S
C976 H998 0.931 . S
C977 C972 1.356 . S
C977 C976 1.409 . S
C977 H999 0.930 . S
C978 O988 1.270 . S
C978 O989 1.248 . S
C979 O990 1.267 . S
C979 O991 1.278 . S
O980 Pr960 2.562 . S
O980 C962 1.254 . S
O981 Pr960 2.490 . S
O981 C962 1.225 . S
O982 Pr960 2.695 . S
O982 Pr961 2.436 . S
O982 C969 1.270 . S
O983 Pr960 2.512 . S
O983 C969 1.248 . S
O984 Pr961 2.438 . S
O984 C970 1.267 . S
O985 Pr960 2.437 . S
O985 C970 1.278 . S
O986 Pr961 2.562 . S
O986 C971 1.254 . S
O987 Pr961 2.490 . S
O987 C971 1.225 . S
O988 Pr960 2.436 . S
O988 Pr961 2.695 . S
O988 C978 1.270 . S
O989 Pr961 2.512 . S
O989 C978 1.248 . S
O990 Pr960 2.438 . S
O990 C979 1.267 . S
O991 Pr961 2.437 . S
O991 C979 1.278 . S
H992 C964 0.929 . S
H993 C965 0.929 . S
H994 C967 0.931 . S
H995 C968 0.930 . S
H996 C973 0.929 . S
H997 C974 0.929 . S
H998 C976 0.931 . S
H999 C977 0.930 . S
Pr1000 C1002 2.880 . S
Pr1000 O1020 2.562 . S
Pr1000 O1021 2.490 . S
Pr1000 O1022 2.695 . S
Pr1000 O1023 2.512 . S
Pr1000 O1025 2.437 . S
Pr1000 O1028 2.436 . S
Pr1000 O1030 2.484 . S
Pr1001 C1011 2.853 1_556 S
Pr1001 O1022 2.436 . S
Pr1001 O1024 2.438 . S
Pr1001 O1026 2.562 1_556 S
Pr1001 O1027 2.490 . S
Pr1001 O1028 2.695 . S
Pr1001 O1029 2.512 . S
Pr1001 O1031 2.437 . S
C1002 Pr1000 2.880 . S
C1002 C1003 1.491 . S
C1002 O1020 1.254 . S
C1002 O1021 1.225 . S
C1003 C1002 1.491 . S
C1003 C1004 1.392 . S
C1003 C1008 1.356 . S
C1004 C1003 1.392 . S
C1004 C1005 1.368 . S
C1004 H1032 0.929 . S
C1005 C1004 1.368 . S
C1005 C1006 1.386 . S
C1005 H1033 0.929 . S
C1006 C1005 1.386 . S
C1006 C1007 1.373 . S
C1007 C1006 1.373 . S
C1007 C1008 1.409 . S
C1007 H1034 0.931 . S
C1008 C1003 1.356 . S
C1008 C1007 1.409 . S
C1008 H1035 0.930 . S
C1009 O1022 1.270 . S
C1009 O1023 1.248 . S
C1010 O1024 1.267 . S
C1010 O1025 1.278 . S
C1011 Pr1001 2.853 1_554 S
C1011 C1012 1.518 . S
C1011 O1026 1.258 . S
C1011 O1027 1.195 1_554 S
C1012 C1011 1.518 . S
C1012 C1013 1.392 . S
C1012 C1017 1.356 . S
C1013 C1012 1.392 . S
C1013 C1014 1.368 . S
C1013 H1036 0.929 . S
C1014 C1013 1.368 . S
C1014 C1015 1.386 . S
C1014 H1037 0.929 . S
C1015 C1014 1.386 . S
C1015 C1016 1.373 . S
C1016 C1015 1.373 . S
C1016 C1017 1.409 . S
C1016 H1038 0.931 . S
C1017 C1012 1.356 . S
C1017 C1016 1.409 . S
C1017 H1039 0.930 . S
C1018 O1028 1.270 . S
C1018 O1029 1.248 . S
C1019 O1030 1.247 1_554 S
C1019 O1031 1.278 1_554 S
O1020 Pr1000 2.562 . S
O1020 C1002 1.254 . S
O1021 Pr1000 2.490 . S
O1021 C1002 1.225 . S
O1022 Pr1000 2.695 . S
O1022 Pr1001 2.436 . S
O1022 C1009 1.270 . S
O1023 Pr1000 2.512 . S
O1023 C1009 1.248 . S
O1024 Pr1001 2.438 . S
O1024 C1010 1.267 . S
O1025 Pr1000 2.437 . S
O1025 C1010 1.278 . S
O1026 Pr1001 2.562 1_554 S
O1026 C1011 1.258 . S
O1027 Pr1001 2.490 . S
O1027 C1011 1.195 1_556 S
O1028 Pr1000 2.436 . S
O1028 Pr1001 2.695 . S
O1028 C1018 1.270 . S
O1029 Pr1001 2.512 . S
O1029 C1018 1.248 . S
O1030 Pr1000 2.484 . S
O1030 C1019 1.247 1_556 S
O1031 Pr1001 2.437 . S
O1031 C1019 1.278 1_556 S
H1032 C1004 0.929 . S
H1033 C1005 0.929 . S
H1034 C1007 0.931 . S
H1035 C1008 0.930 . S
H1036 C1013 0.929 . S
H1037 C1014 0.929 . S
H1038 C1016 0.931 . S
H1039 C1017 0.930 . S
Pr1040 C1042 2.880 . S
Pr1040 O1060 2.562 . S
Pr1040 O1061 2.490 . S
Pr1040 O1062 2.695 . S
Pr1040 O1063 2.512 . S
Pr1040 O1065 2.437 . S
Pr1040 O1068 2.436 . S
Pr1040 O1070 2.438 . S
Pr1041 C1051 2.880 . S
Pr1041 O1062 2.436 . S
Pr1041 O1064 2.438 . S
Pr1041 O1066 2.562 . S
Pr1041 O1067 2.490 . S
Pr1041 O1068 2.695 . S
Pr1041 O1069 2.512 . S
Pr1041 O1071 2.437 . S
C1042 Pr1040 2.880 . S
C1042 C1043 1.491 . S
C1042 O1060 1.254 . S
C1042 O1061 1.225 . S
C1043 C1042 1.491 . S
C1043 C1044 1.392 . S
C1043 C1048 1.356 . S
C1044 C1043 1.392 . S
C1044 C1045 1.368 . S
C1044 H1072 0.929 . S
C1045 C1044 1.368 . S
C1045 C1046 1.386 . S
C1045 H1073 0.929 . S
C1046 C1045 1.386 . S
C1046 C1047 1.373 . S
C1047 C1046 1.373 . S
C1047 C1048 1.409 . S
C1047 H1074 0.931 . S
C1048 C1043 1.356 . S
C1048 C1047 1.409 . S
C1048 H1075 0.930 . S
C1049 O1062 1.270 . S
C1049 O1063 1.248 . S
C1050 O1064 1.267 . S
C1050 O1065 1.278 . S
C1051 Pr1041 2.880 . S
C1051 C1052 1.491 . S
C1051 O1066 1.254 . S
C1051 O1067 1.225 . S
C1052 C1051 1.491 . S
C1052 C1053 1.392 . S
C1052 C1057 1.356 . S
C1053 C1052 1.392 . S
C1053 C1054 1.368 . S
C1053 H1076 0.929 . S
C1054 C1053 1.368 . S
C1054 C1055 1.386 . S
C1054 H1077 0.929 . S
C1055 C1054 1.386 . S
C1055 C1056 1.373 . S
C1056 C1055 1.373 . S
C1056 C1057 1.409 . S
C1056 H1078 0.931 . S
C1057 C1052 1.356 . S
C1057 C1056 1.409 . S
C1057 H1079 0.930 . S
C1058 O1068 1.270 . S
C1058 O1069 1.248 . S
C1059 O1070 1.267 . S
C1059 O1071 1.278 . S
O1060 Pr1040 2.562 . S
O1060 C1042 1.254 . S
O1061 Pr1040 2.490 . S
O1061 C1042 1.225 . S
O1062 Pr1040 2.695 . S
O1062 Pr1041 2.436 . S
O1062 C1049 1.270 . S
O1063 Pr1040 2.512 . S
O1063 C1049 1.248 . S
O1064 Pr1041 2.438 . S
O1064 C1050 1.267 . S
O1065 Pr1040 2.437 . S
O1065 C1050 1.278 . S
O1066 Pr1041 2.562 . S
O1066 C1051 1.254 . S
O1067 Pr1041 2.490 . S
O1067 C1051 1.225 . S
O1068 Pr1040 2.436 . S
O1068 Pr1041 2.695 . S
O1068 C1058 1.270 . S
O1069 Pr1041 2.512 . S
O1069 C1058 1.248 . S
O1070 Pr1040 2.438 . S
O1070 C1059 1.267 . S
O1071 Pr1041 2.437 . S
O1071 C1059 1.278 . S
H1072 C1044 0.929 . S
H1073 C1045 0.929 . S
H1074 C1047 0.931 . S
H1075 C1048 0.930 . S
H1076 C1053 0.929 . S
H1077 C1054 0.929 . S
H1078 C1056 0.931 . S
H1079 C1057 0.930 . S
Pr1080 C1082 2.880 . S
Pr1080 O1100 2.562 . S
Pr1080 O1101 2.490 . S
Pr1080 O1102 2.695 . S
Pr1080 O1103 2.512 . S
Pr1080 O1105 2.437 . S
Pr1080 O1108 2.436 . S
Pr1080 O1110 2.438 . S
Pr1081 C1091 2.880 . S
Pr1081 O1102 2.436 . S
Pr1081 O1104 2.438 . S
Pr1081 O1106 2.562 . S
Pr1081 O1107 2.490 . S
Pr1081 O1108 2.695 . S
Pr1081 O1109 2.512 . S
Pr1081 O1111 2.437 . S
C1082 Pr1080 2.880 . S
C1082 C1083 1.491 . S
C1082 O1100 1.254 . S
C1082 O1101 1.225 . S
C1083 C1082 1.491 . S
C1083 C1084 1.392 . S
C1083 C1088 1.356 . S
C1084 C1083 1.392 . S
C1084 C1085 1.368 . S
C1084 H1112 0.929 . S
C1085 C1084 1.368 . S
C1085 C1086 1.386 . S
C1085 H1113 0.929 . S
C1086 C1085 1.386 . S
C1086 C1087 1.373 . S
C1087 C1086 1.373 . S
C1087 C1088 1.409 . S
C1087 H1114 0.931 . S
C1088 C1083 1.356 . S
C1088 C1087 1.409 . S
C1088 H1115 0.930 . S
C1089 O1102 1.270 . S
C1089 O1103 1.248 . S
C1090 O1104 1.267 . S
C1090 O1105 1.278 . S
C1091 Pr1081 2.880 . S
C1091 C1092 1.491 . S
C1091 O1106 1.254 . S
C1091 O1107 1.225 . S
C1092 C1091 1.491 . S
C1092 C1093 1.392 . S
C1092 C1097 1.356 . S
C1093 C1092 1.392 . S
C1093 C1094 1.368 . S
C1093 H1116 0.929 . S
C1094 C1093 1.368 . S
C1094 C1095 1.386 . S
C1094 H1117 0.929 . S
C1095 C1094 1.386 . S
C1095 C1096 1.373 . S
C1096 C1095 1.373 . S
C1096 C1097 1.409 . S
C1096 H1118 0.931 . S
C1097 C1092 1.356 . S
C1097 C1096 1.409 . S
C1097 H1119 0.930 . S
C1098 O1108 1.270 . S
C1098 O1109 1.248 . S
C1099 O1110 1.267 . S
C1099 O1111 1.278 . S
O1100 Pr1080 2.562 . S
O1100 C1082 1.254 . S
O1101 Pr1080 2.490 . S
O1101 C1082 1.225 . S
O1102 Pr1080 2.695 . S
O1102 Pr1081 2.436 . S
O1102 C1089 1.270 . S
O1103 Pr1080 2.512 . S
O1103 C1089 1.248 . S
O1104 Pr1081 2.438 . S
O1104 C1090 1.267 . S
O1105 Pr1080 2.437 . S
O1105 C1090 1.278 . S
O1106 Pr1081 2.562 . S
O1106 C1091 1.254 . S
O1107 Pr1081 2.490 . S
O1107 C1091 1.225 . S
O1108 Pr1080 2.436 . S
O1108 Pr1081 2.695 . S
O1108 C1098 1.270 . S
O1109 Pr1081 2.512 . S
O1109 C1098 1.248 . S
O1110 Pr1080 2.438 . S
O1110 C1099 1.267 . S
O1111 Pr1081 2.437 . S
O1111 C1099 1.278 . S
H1112 C1084 0.929 . S
H1113 C1085 0.929 . S
H1114 C1087 0.931 . S
H1115 C1088 0.930 . S
H1116 C1093 0.929 . S
H1117 C1094 0.929 . S
H1118 C1096 0.931 . S
H1119 C1097 0.930 . S
Pr1120 C1122 2.880 . S
Pr1120 O1140 2.562 . S
Pr1120 O1141 2.490 . S
Pr1120 O1142 2.695 . S
Pr1120 O1143 2.512 . S
Pr1120 O1145 2.437 . S
Pr1120 O1148 2.436 . S
Pr1120 O1150 2.438 . S
Pr1121 C1131 2.880 . S
Pr1121 O1142 2.436 . S
Pr1121 O1144 2.438 . S
Pr1121 O1146 2.562 . S
Pr1121 O1147 2.490 . S
Pr1121 O1148 2.695 . S
Pr1121 O1149 2.512 . S
Pr1121 O1151 2.437 . S
C1122 Pr1120 2.880 . S
C1122 C1123 1.491 . S
C1122 O1140 1.254 . S
C1122 O1141 1.225 . S
C1123 C1122 1.491 . S
C1123 C1124 1.392 . S
C1123 C1128 1.356 . S
C1124 C1123 1.392 . S
C1124 C1125 1.368 . S
C1124 H1152 0.929 . S
C1125 C1124 1.368 . S
C1125 C1126 1.386 . S
C1125 H1153 0.929 . S
C1126 C1125 1.386 . S
C1126 C1127 1.373 . S
C1127 C1126 1.373 . S
C1127 C1128 1.409 . S
C1127 H1154 0.931 . S
C1128 C1123 1.356 . S
C1128 C1127 1.409 . S
C1128 H1155 0.930 . S
C1129 O1142 1.270 . S
C1129 O1143 1.248 . S
C1130 O1144 1.267 . S
C1130 O1145 1.278 . S
C1131 Pr1121 2.880 . S
C1131 C1132 1.491 . S
C1131 O1146 1.254 . S
C1131 O1147 1.225 . S
C1132 C1131 1.491 . S
C1132 C1133 1.392 . S
C1132 C1137 1.356 . S
C1133 C1132 1.392 . S
C1133 C1134 1.368 . S
C1133 H1156 0.929 . S
C1134 C1133 1.368 . S
C1134 C1135 1.386 . S
C1134 H1157 0.929 . S
C1135 C1134 1.386 . S
C1135 C1136 1.373 . S
C1136 C1135 1.373 . S
C1136 C1137 1.409 . S
C1136 H1158 0.931 . S
C1137 C1132 1.356 . S
C1137 C1136 1.409 . S
C1137 H1159 0.930 . S
C1138 O1148 1.270 . S
C1138 O1149 1.248 . S
C1139 O1150 1.267 . S
C1139 O1151 1.278 . S
O1140 Pr1120 2.562 . S
O1140 C1122 1.254 . S
O1141 Pr1120 2.490 . S
O1141 C1122 1.225 . S
O1142 Pr1120 2.695 . S
O1142 Pr1121 2.436 . S
O1142 C1129 1.270 . S
O1143 Pr1120 2.512 . S
O1143 C1129 1.248 . S
O1144 Pr1121 2.438 . S
O1144 C1130 1.267 . S
O1145 Pr1120 2.437 . S
O1145 C1130 1.278 . S
O1146 Pr1121 2.562 . S
O1146 C1131 1.254 . S
O1147 Pr1121 2.490 . S
O1147 C1131 1.225 . S
O1148 Pr1120 2.436 . S
O1148 Pr1121 2.695 . S
O1148 C1138 1.270 . S
O1149 Pr1121 2.512 . S
O1149 C1138 1.248 . S
O1150 Pr1120 2.438 . S
O1150 C1139 1.267 . S
O1151 Pr1121 2.437 . S
O1151 C1139 1.278 . S
H1152 C1124 0.929 . S
H1153 C1125 0.929 . S
H1154 C1127 0.931 . S
H1155 C1128 0.930 . S
H1156 C1133 0.929 . S
H1157 C1134 0.929 . S
H1158 C1136 0.931 . S
H1159 C1137 0.930 . S
Pr1160 C1162 2.880 . S
Pr1160 O1180 2.562 . S
Pr1160 O1181 2.490 . S
Pr1160 O1182 2.695 . S
Pr1160 O1183 2.512 . S
Pr1160 O1185 2.437 . S
Pr1160 O1188 2.436 . S
Pr1160 O1190 2.484 . S
Pr1161 C1171 2.853 1_554 S
Pr1161 O1182 2.436 . S
Pr1161 O1184 2.438 . S
Pr1161 O1186 2.562 1_554 S
Pr1161 O1187 2.490 . S
Pr1161 O1188 2.695 . S
Pr1161 O1189 2.512 . S
Pr1161 O1191 2.437 . S
C1162 Pr1160 2.880 . S
C1162 C1163 1.491 . S
C1162 O1180 1.254 . S
C1162 O1181 1.225 . S
C1163 C1162 1.491 . S
C1163 C1164 1.392 . S
C1163 C1168 1.356 . S
C1164 C1163 1.392 . S
C1164 C1165 1.368 . S
C1164 H1192 0.929 . S
C1165 C1164 1.368 . S
C1165 C1166 1.386 . S
C1165 H1193 0.929 . S
C1166 C1165 1.386 . S
C1166 C1167 1.373 . S
C1167 C1166 1.373 . S
C1167 C1168 1.409 . S
C1167 H1194 0.931 . S
C1168 C1163 1.356 . S
C1168 C1167 1.409 . S
C1168 H1195 0.930 . S
C1169 O1182 1.270 . S
C1169 O1183 1.248 . S
C1170 O1184 1.267 . S
C1170 O1185 1.278 . S
C1171 Pr1161 2.853 1_556 S
C1171 C1172 1.518 . S
C1171 O1186 1.258 . S
C1171 O1187 1.195 1_556 S
C1172 C1171 1.518 . S
C1172 C1173 1.392 . S
C1172 C1177 1.356 . S
C1173 C1172 1.392 . S
C1173 C1174 1.368 . S
C1173 H1196 0.929 . S
C1174 C1173 1.368 . S
C1174 C1175 1.386 . S
C1174 H1197 0.929 . S
C1175 C1174 1.386 . S
C1175 C1176 1.373 . S
C1176 C1175 1.373 . S
C1176 C1177 1.409 . S
C1176 H1198 0.931 . S
C1177 C1172 1.356 . S
C1177 C1176 1.409 . S
C1177 H1199 0.930 . S
C1178 O1188 1.270 . S
C1178 O1189 1.248 . S
C1179 O1190 1.247 1_556 S
C1179 O1191 1.278 1_556 S
O1180 Pr1160 2.562 . S
O1180 C1162 1.254 . S
O1181 Pr1160 2.490 . S
O1181 C1162 1.225 . S
O1182 Pr1160 2.695 . S
O1182 Pr1161 2.436 . S
O1182 C1169 1.270 . S
O1183 Pr1160 2.512 . S
O1183 C1169 1.248 . S
O1184 Pr1161 2.438 . S
O1184 C1170 1.267 . S
O1185 Pr1160 2.437 . S
O1185 C1170 1.278 . S
O1186 Pr1161 2.562 1_556 S
O1186 C1171 1.258 . S
O1187 Pr1161 2.490 . S
O1187 C1171 1.195 1_554 S
O1188 Pr1160 2.436 . S
O1188 Pr1161 2.695 . S
O1188 C1178 1.270 . S
O1189 Pr1161 2.512 . S
O1189 C1178 1.248 . S
O1190 Pr1160 2.484 . S
O1190 C1179 1.247 1_554 S
O1191 Pr1161 2.437 . S
O1191 C1179 1.278 1_554 S
H1192 C1164 0.929 . S
H1193 C1165 0.929 . S
H1194 C1167 0.931 . S
H1195 C1168 0.930 . S
H1196 C1173 0.929 . S
H1197 C1174 0.929 . S
H1198 C1176 0.931 . S
H1199 C1177 0.930 . S
Pr1200 C1202 2.880 . S
Pr1200 O1220 2.562 . S
Pr1200 O1221 2.490 . S
Pr1200 O1222 2.695 . S
Pr1200 O1223 2.512 . S
Pr1200 O1225 2.437 . S
Pr1200 O1228 2.436 . S
Pr1200 O1230 2.438 . S
Pr1201 C1211 2.880 . S
Pr1201 O1222 2.436 . S
Pr1201 O1224 2.438 . S
Pr1201 O1226 2.562 . S
Pr1201 O1227 2.490 . S
Pr1201 O1228 2.695 . S
Pr1201 O1229 2.512 . S
Pr1201 O1231 2.437 . S
C1202 Pr1200 2.880 . S
C1202 C1203 1.491 . S
C1202 O1220 1.254 . S
C1202 O1221 1.225 . S
C1203 C1202 1.491 . S
C1203 C1204 1.392 . S
C1203 C1208 1.356 . S
C1204 C1203 1.392 . S
C1204 C1205 1.368 . S
C1204 H1232 0.929 . S
C1205 C1204 1.368 . S
C1205 C1206 1.386 . S
C1205 H1233 0.929 . S
C1206 C1205 1.386 . S
C1206 C1207 1.373 . S
C1207 C1206 1.373 . S
C1207 C1208 1.409 . S
C1207 H1234 0.931 . S
C1208 C1203 1.356 . S
C1208 C1207 1.409 . S
C1208 H1235 0.930 . S
C1209 O1222 1.270 . S
C1209 O1223 1.248 . S
C1210 O1224 1.267 . S
C1210 O1225 1.278 . S
C1211 Pr1201 2.880 . S
C1211 C1212 1.491 . S
C1211 O1226 1.254 . S
C1211 O1227 1.225 . S
C1212 C1211 1.491 . S
C1212 C1213 1.392 . S
C1212 C1217 1.356 . S
C1213 C1212 1.392 . S
C1213 C1214 1.368 . S
C1213 H1236 0.929 . S
C1214 C1213 1.368 . S
C1214 C1215 1.386 . S
C1214 H1237 0.929 . S
C1215 C1214 1.386 . S
C1215 C1216 1.373 . S
C1216 C1215 1.373 . S
C1216 C1217 1.409 . S
C1216 H1238 0.931 . S
C1217 C1212 1.356 . S
C1217 C1216 1.409 . S
C1217 H1239 0.930 . S
C1218 O1228 1.270 . S
C1218 O1229 1.248 . S
C1219 O1230 1.267 . S
C1219 O1231 1.278 . S
O1220 Pr1200 2.562 . S
O1220 C1202 1.254 . S
O1221 Pr1200 2.490 . S
O1221 C1202 1.225 . S
O1222 Pr1200 2.695 . S
O1222 Pr1201 2.436 . S
O1222 C1209 1.270 . S
O1223 Pr1200 2.512 . S
O1223 C1209 1.248 . S
O1224 Pr1201 2.438 . S
O1224 C1210 1.267 . S
O1225 Pr1200 2.437 . S
O1225 C1210 1.278 . S
O1226 Pr1201 2.562 . S
O1226 C1211 1.254 . S
O1227 Pr1201 2.490 . S
O1227 C1211 1.225 . S
O1228 Pr1200 2.436 . S
O1228 Pr1201 2.695 . S
O1228 C1218 1.270 . S
O1229 Pr1201 2.512 . S
O1229 C1218 1.248 . S
O1230 Pr1200 2.438 . S
O1230 C1219 1.267 . S
O1231 Pr1201 2.437 . S
O1231 C1219 1.278 . S
H1232 C1204 0.929 . S
H1233 C1205 0.929 . S
H1234 C1207 0.931 . S
H1235 C1208 0.930 . S
H1236 C1213 0.929 . S
H1237 C1214 0.929 . S
H1238 C1216 0.931 . S
H1239 C1217 0.930 . S
Pr1240 C1242 2.880 . S
Pr1240 O1260 2.562 . S
Pr1240 O1261 2.490 . S
Pr1240 O1262 2.695 . S
Pr1240 O1263 2.512 . S
Pr1240 O1265 2.437 . S
Pr1240 O1268 2.436 . S
Pr1240 O1270 2.438 . S
Pr1241 C1251 2.880 . S
Pr1241 O1262 2.436 . S
Pr1241 O1264 2.438 . S
Pr1241 O1266 2.562 . S
Pr1241 O1267 2.490 . S
Pr1241 O1268 2.695 . S
Pr1241 O1269 2.512 . S
Pr1241 O1271 2.437 . S
C1242 Pr1240 2.880 . S
C1242 C1243 1.491 . S
C1242 O1260 1.254 . S
C1242 O1261 1.225 . S
C1243 C1242 1.491 . S
C1243 C1244 1.392 . S
C1243 C1248 1.356 . S
C1244 C1243 1.392 . S
C1244 C1245 1.368 . S
C1244 H1272 0.929 . S
C1245 C1244 1.368 . S
C1245 C1246 1.386 . S
C1245 H1273 0.929 . S
C1246 C1245 1.386 . S
C1246 C1247 1.373 . S
C1247 C1246 1.373 . S
C1247 C1248 1.409 . S
C1247 H1274 0.931 . S
C1248 C1243 1.356 . S
C1248 C1247 1.409 . S
C1248 H1275 0.930 . S
C1249 O1262 1.270 . S
C1249 O1263 1.248 . S
C1250 O1264 1.267 . S
C1250 O1265 1.278 . S
C1251 Pr1241 2.880 . S
C1251 C1252 1.491 . S
C1251 O1266 1.254 . S
C1251 O1267 1.225 . S
C1252 C1251 1.491 . S
C1252 C1253 1.392 . S
C1252 C1257 1.356 . S
C1253 C1252 1.392 . S
C1253 C1254 1.368 . S
C1253 H1276 0.929 . S
C1254 C1253 1.368 . S
C1254 C1255 1.386 . S
C1254 H1277 0.929 . S
C1255 C1254 1.386 . S
C1255 C1256 1.373 . S
C1256 C1255 1.373 . S
C1256 C1257 1.409 . S
C1256 H1278 0.931 . S
C1257 C1252 1.356 . S
C1257 C1256 1.409 . S
C1257 H1279 0.930 . S
C1258 O1268 1.270 . S
C1258 O1269 1.248 . S
C1259 O1270 1.267 . S
C1259 O1271 1.278 . S
O1260 Pr1240 2.562 . S
O1260 C1242 1.254 . S
O1261 Pr1240 2.490 . S
O1261 C1242 1.225 . S
O1262 Pr1240 2.695 . S
O1262 Pr1241 2.436 . S
O1262 C1249 1.270 . S
O1263 Pr1240 2.512 . S
O1263 C1249 1.248 . S
O1264 Pr1241 2.438 . S
O1264 C1250 1.267 . S
O1265 Pr1240 2.437 . S
O1265 C1250 1.278 . S
O1266 Pr1241 2.562 . S
O1266 C1251 1.254 . S
O1267 Pr1241 2.490 . S
O1267 C1251 1.225 . S
O1268 Pr1240 2.436 . S
O1268 Pr1241 2.695 . S
O1268 C1258 1.270 . S
O1269 Pr1241 2.512 . S
O1269 C1258 1.248 . S
O1270 Pr1240 2.438 . S
O1270 C1259 1.267 . S
O1271 Pr1241 2.437 . S
O1271 C1259 1.278 . S
H1272 C1244 0.929 . S
H1273 C1245 0.929 . S
H1274 C1247 0.931 . S
H1275 C1248 0.930 . S
H1276 C1253 0.929 . S
H1277 C1254 0.929 . S
H1278 C1256 0.931 . S
H1279 C1257 0.930 . S
H1280 C1298 0.951 . S
H1281 C1300 0.951 . S
H1282 C1302 0.950 . S
H1283 C1303 0.950 . S
H1284 C1305 0.950 . S
H1285 C1308 0.950 . S
H1286 C1309 0.950 . S
H1287 C1311 0.950 . S
H1288 C1312 0.950 . S
H1289 C1313 0.951 . S
H1290 C1315 0.951 . S
H1291 C1317 0.950 . S
H1292 C1318 0.950 . S
H1293 C1320 0.950 . S
H1294 C1323 0.950 . S
H1295 C1324 0.950 . S
H1296 C1326 0.950 . S
H1297 C1327 0.950 . S
C1298 H1280 0.951 . S
C1298 C1299 1.366 . S
C1298 C1300 1.388 . S
C1299 C1298 1.366 . S
C1299 C1303 1.385 . S
C1300 H1281 0.951 . S
C1300 C1298 1.388 . S
C1300 C1301 1.366 . S
C1301 C1300 1.366 . S
C1301 C1302 1.414 . S
C1301 C1304 1.499 . S
C1302 H1282 0.950 . S
C1302 C1301 1.414 . S
C1302 C1303 1.374 . S
C1303 H1283 0.950 . S
C1303 C1299 1.385 . S
C1303 C1302 1.374 . S
C1304 C1301 1.499 . S
C1304 C1305 1.373 . S
C1304 C1306 1.389 . S
C1305 H1284 0.950 . S
C1305 C1304 1.373 . S
C1305 C1321 1.377 . S
C1306 C1304 1.389 . S
C1306 C1307 1.524 . S
C1306 C1320 1.377 . S
C1307 C1306 1.524 . S
C1307 C1308 1.397 . S
C1307 C1312 1.363 . S
C1308 H1285 0.950 . S
C1308 C1307 1.397 . S
C1308 C1309 1.334 . S
C1309 H1286 0.950 . S
C1309 C1308 1.334 . S
C1309 C1310 1.287 . S
C1310 C1309 1.287 . S
C1310 C1311 1.524 . S
C1310 H1329 0.913 . S
C1311 H1287 0.950 . S
C1311 C1310 1.524 . S
C1311 C1312 1.415 . S
C1312 H1288 0.950 . S
C1312 C1307 1.363 . S
C1312 C1311 1.415 . S
C1313 H1289 0.951 . S
C1313 C1314 1.366 . S
C1313 C1315 1.388 . S
C1314 C1313 1.366 . S
C1314 C1318 1.385 . S
C1315 H1290 0.951 . S
C1315 C1313 1.388 . S
C1315 C1316 1.366 . S
C1316 C1315 1.366 . S
C1316 C1317 1.414 . S
C1316 C1319 1.499 . S
C1317 H1291 0.950 . S
C1317 C1316 1.414 . S
C1317 C1318 1.374 . S
C1318 H1292 0.950 . S
C1318 C1314 1.385 . S
C1318 C1317 1.374 . S
C1319 C1316 1.499 . S
C1319 C1320 1.373 . S
C1319 C1321 1.389 . S
C1320 H1293 0.950 . S
C1320 C1306 1.377 . S
C1320 C1319 1.373 . S
C1321 C1305 1.377 . S
C1321 C1319 1.389 . S
C1321 C1322 1.524 . S
C1322 C1321 1.524 . S
C1322 C1323 1.397 . S
C1322 C1327 1.363 . S
C1323 H1294 0.950 . S
C1323 C1322 1.397 . S
C1323 C1324 1.334 . S
C1324 H1295 0.950 . S
C1324 C1323 1.334 . S
C1324 C1325 1.287 . S
C1325 C1324 1.287 . S
C1325 C1326 1.524 . S
C1325 H1328 0.999 . S
C1326 H1296 0.950 . S
C1326 C1325 1.524 . S
C1326 C1327 1.415 . S
C1327 H1297 0.950 . S
C1327 C1322 1.363 . S
C1327 C1326 1.415 . S
H1328 C1325 0.999 . S
H1329 C1310 0.913 . S
H1330 C1348 0.951 . S
H1331 C1350 0.951 . S
H1332 C1352 0.950 . S
H1333 C1353 0.950 . S
H1334 C1355 0.950 . S
H1335 C1358 0.950 . S
H1336 C1359 0.950 . S
H1337 C1361 0.950 . S
H1338 C1362 0.950 . S
H1339 C1363 0.951 . S
H1340 C1365 0.951 . S
H1341 C1367 0.950 . S
H1342 C1368 0.950 . S
H1343 C1370 0.950 . S
H1344 C1373 0.950 . S
H1345 C1374 0.950 . S
H1346 C1376 0.950 . S
H1347 C1377 0.950 . S
C1348 H1330 0.951 . S
C1348 C1349 1.366 . S
C1348 C1350 1.388 . S
C1349 C1348 1.366 . S
C1349 C1353 1.385 . S
C1350 H1331 0.951 . S
C1350 C1348 1.388 . S
C1350 C1351 1.366 . S
C1351 C1350 1.366 . S
C1351 C1352 1.414 . S
C1351 C1354 1.499 . S
C1352 H1332 0.950 . S
C1352 C1351 1.414 . S
C1352 C1353 1.374 . S
C1353 H1333 0.950 . S
C1353 C1349 1.385 . S
C1353 C1352 1.374 . S
C1354 C1351 1.499 . S
C1354 C1355 1.373 . S
C1354 C1356 1.389 . S
C1355 H1334 0.950 . S
C1355 C1354 1.373 . S
C1355 C1371 1.377 . S
C1356 C1354 1.389 . S
C1356 C1357 1.524 . S
C1356 C1370 1.377 . S
C1357 C1356 1.524 . S
C1357 C1358 1.397 . S
C1357 C1362 1.363 . S
C1358 H1335 0.950 . S
C1358 C1357 1.397 . S
C1358 C1359 1.334 . S
C1359 H1336 0.950 . S
C1359 C1358 1.334 . S
C1359 C1360 1.287 . S
C1360 C1359 1.287 . S
C1360 C1361 1.524 1_545 S
C1360 H1379 0.913 . S
C1361 H1337 0.950 . S
C1361 C1360 1.524 1_565 S
C1361 C1362 1.415 1_565 S
C1362 H1338 0.950 . S
C1362 C1357 1.363 . S
C1362 C1361 1.415 1_545 S
C1363 H1339 0.951 . S
C1363 C1364 1.366 . S
C1363 C1365 1.388 1_565 S
C1364 C1363 1.366 . S
C1364 C1368 1.385 . S
C1365 H1340 0.951 . S
C1365 C1363 1.388 1_545 S
C1365 C1366 1.366 . S
C1366 C1365 1.366 . S
C1366 C1367 1.414 1_545 S
C1366 C1369 1.499 . S
C1367 H1341 0.950 . S
C1367 C1366 1.414 1_565 S
C1367 C1368 1.374 . S
C1368 H1342 0.950 . S
C1368 C1364 1.385 . S
C1368 C1367 1.374 . S
C1369 C1366 1.499 . S
C1369 C1370 1.373 . S
C1369 C1371 1.389 . S
C1370 H1343 0.950 . S
C1370 C1356 1.377 . S
C1370 C1369 1.373 . S
C1371 C1355 1.377 . S
C1371 C1369 1.389 . S
C1371 C1372 1.524 . S
C1372 C1371 1.524 . S
C1372 C1373 1.397 . S
C1372 C1377 1.363 . S
C1373 H1344 0.950 . S
C1373 C1372 1.397 . S
C1373 C1374 1.334 . S
C1374 H1345 0.950 . S
C1374 C1373 1.334 . S
C1374 C1375 1.287 . S
C1375 C1374 1.287 . S
C1375 C1376 1.524 . S
C1375 H1378 0.999 . S
C1376 H1346 0.950 . S
C1376 C1375 1.524 . S
C1376 C1377 1.415 . S
C1377 H1347 0.950 . S
C1377 C1372 1.363 . S
C1377 C1376 1.415 . S
H1378 C1375 0.999 . S
H1379 C1360 0.913 . S
H1380 C1398 0.951 . S
H1381 C1400 0.951 . S
H1382 C1402 0.950 . S
H1383 C1403 0.950 . S
H1384 C1405 0.950 . S
H1385 C1408 0.950 . S
H1386 C1409 0.950 . S
H1387 C1411 0.950 . S
H1388 C1412 0.950 . S
H1389 C1413 0.951 . S
H1390 C1415 0.951 . S
H1391 C1417 0.950 . S
H1392 C1418 0.950 . S
H1393 C1420 0.950 . S
H1394 C1423 0.950 . S
H1395 C1424 0.950 . S
H1396 C1426 0.950 . S
H1397 C1427 0.950 . S
C1398 H1380 0.951 . S
C1398 C1399 1.366 . S
C1398 C1400 1.388 . S
C1399 C1398 1.366 . S
C1399 C1403 1.385 . S
C1400 H1381 0.951 . S
C1400 C1398 1.388 . S
C1400 C1401 1.366 . S
C1401 C1400 1.366 . S
C1401 C1402 1.414 . S
C1401 C1404 1.499 . S
C1402 H1382 0.950 . S
C1402 C1401 1.414 . S
C1402 C1403 1.374 . S
C1403 H1383 0.950 . S
C1403 C1399 1.385 . S
C1403 C1402 1.374 . S
C1404 C1401 1.499 . S
C1404 C1405 1.373 . S
C1404 C1406 1.389 . S
C1405 H1384 0.950 . S
C1405 C1404 1.373 . S
C1405 C1421 1.377 . S
C1406 C1404 1.389 . S
C1406 C1407 1.524 . S
C1406 C1420 1.377 . S
C1407 C1406 1.524 . S
C1407 C1408 1.397 . S
C1407 C1412 1.363 . S
C1408 H1385 0.950 . S
C1408 C1407 1.397 . S
C1408 C1409 1.334 . S
C1409 H1386 0.950 . S
C1409 C1408 1.334 . S
C1409 C1410 1.287 . S
C1410 C1409 1.287 . S
C1410 C1411 1.524 . S
C1410 H1429 0.913 . S
C1411 H1387 0.950 . S
C1411 C1410 1.524 . S
C1411 C1412 1.415 . S
C1412 H1388 0.950 . S
C1412 C1407 1.363 . S
C1412 C1411 1.415 . S
C1413 H1389 0.951 . S
C1413 C1414 1.366 . S
C1413 C1415 1.388 . S
C1414 C1413 1.366 . S
C1414 C1418 1.385 . S
C1415 H1390 0.951 . S
C1415 C1413 1.388 . S
C1415 C1416 1.366 . S
C1416 C1415 1.366 . S
C1416 C1417 1.414 . S
C1416 C1419 1.499 . S
C1417 H1391 0.950 . S
C1417 C1416 1.414 . S
C1417 C1418 1.374 . S
C1418 H1392 0.950 . S
C1418 C1414 1.385 . S
C1418 C1417 1.374 . S
C1419 C1416 1.499 . S
C1419 C1420 1.373 . S
C1419 C1421 1.389 . S
C1420 H1393 0.950 . S
C1420 C1406 1.377 . S
C1420 C1419 1.373 . S
C1421 C1405 1.377 . S
C1421 C1419 1.389 . S
C1421 C1422 1.524 . S
C1422 C1421 1.524 . S
C1422 C1423 1.397 . S
C1422 C1427 1.363 . S
C1423 H1394 0.950 . S
C1423 C1422 1.397 . S
C1423 C1424 1.334 . S
C1424 H1395 0.950 . S
C1424 C1423 1.334 . S
C1424 C1425 1.287 . S
C1425 C1424 1.287 . S
C1425 C1426 1.524 . S
C1425 H1428 0.999 . S
C1426 H1396 0.950 . S
C1426 C1425 1.524 . S
C1426 C1427 1.415 . S
C1427 H1397 0.950 . S
C1427 C1422 1.363 . S
C1427 C1426 1.415 . S
H1428 C1425 0.999 . S
H1429 C1410 0.913 . S
H1430 C1448 0.951 . S
H1431 C1450 0.951 . S
H1432 C1452 0.950 . S
H1433 C1453 0.950 . S
H1434 C1455 0.950 . S
H1435 C1458 0.950 . S
H1436 C1459 0.950 . S
H1437 C1461 0.950 . S
H1438 C1462 0.950 . S
H1439 C1463 0.951 . S
H1440 C1465 0.951 . S
H1441 C1467 0.950 . S
H1442 C1468 0.950 1_565 S
H1443 C1470 0.950 . S
H1444 C1473 0.950 . S
H1445 C1474 0.950 . S
H1446 C1476 0.950 . S
H1447 C1477 0.950 . S
C1448 H1430 0.951 . S
C1448 C1449 1.366 . S
C1448 C1450 1.388 . S
C1449 C1448 1.366 . S
C1449 C1453 1.385 . S
C1450 H1431 0.951 . S
C1450 C1448 1.388 . S
C1450 C1451 1.366 . S
C1451 C1450 1.366 . S
C1451 C1452 1.414 . S
C1451 C1454 1.499 . S
C1452 H1432 0.950 . S
C1452 C1451 1.414 . S
C1452 C1453 1.374 . S
C1453 H1433 0.950 . S
C1453 C1449 1.385 . S
C1453 C1452 1.374 . S
C1454 C1451 1.499 . S
C1454 C1455 1.373 . S
C1454 C1456 1.389 . S
C1455 H1434 0.950 . S
C1455 C1454 1.373 . S
C1455 C1471 1.377 . S
C1456 C1454 1.389 . S
C1456 C1457 1.524 . S
C1456 C1470 1.377 . S
C1457 C1456 1.524 . S
C1457 C1458 1.397 . S
C1457 C1462 1.363 . S
C1458 H1435 0.950 . S
C1458 C1457 1.397 . S
C1458 C1459 1.334 . S
C1459 H1436 0.950 . S
C1459 C1458 1.334 . S
C1459 C1460 1.287 . S
C1460 C1459 1.287 . S
C1460 C1461 1.524 . S
C1460 H1479 0.913 . S
C1461 H1437 0.950 . S
C1461 C1460 1.524 . S
C1461 C1462 1.415 . S
C1462 H1438 0.950 . S
C1462 C1457 1.363 . S
C1462 C1461 1.415 . S
C1463 H1439 0.951 . S
C1463 C1464 1.366 . S
C1463 C1465 1.388 . S
C1464 C1463 1.366 . S
C1464 C1468 1.385 . S
C1465 H1440 0.951 . S
C1465 C1463 1.388 . S
C1465 C1466 1.366 1_545 S
C1466 C1465 1.366 1_565 S
C1466 C1467 1.414 . S
C1466 C1469 1.499 . S
C1467 H1441 0.950 . S
C1467 C1466 1.414 . S
C1467 C1468 1.374 1_565 S
C1468 H1442 0.950 1_545 S
C1468 C1464 1.385 . S
C1468 C1467 1.374 1_545 S
C1469 C1466 1.499 . S
C1469 C1470 1.373 . S
C1469 C1471 1.389 . S
C1470 H1443 0.950 . S
C1470 C1456 1.377 . S
C1470 C1469 1.373 . S
C1471 C1455 1.377 . S
C1471 C1469 1.389 . S
C1471 C1472 1.524 . S
C1472 C1471 1.524 . S
C1472 C1473 1.397 . S
C1472 C1477 1.370 . S
C1473 H1444 0.950 . S
C1473 C1472 1.397 . S
C1473 C1474 1.334 . S
C1474 H1445 0.950 . S
C1474 C1473 1.334 . S
C1474 C1475 1.287 1_565 S
C1475 C1474 1.287 1_545 S
C1475 C1476 1.524 . S
C1475 H1478 0.999 . S
C1476 H1446 0.950 . S
C1476 C1475 1.524 . S
C1476 C1477 1.408 1_545 S
C1477 H1447 0.950 . S
C1477 C1472 1.370 . S
C1477 C1476 1.408 1_565 S
H1478 C1475 0.999 . S
H1479 C1460 0.913 . S
H1480 C1498 0.951 . S
H1481 C1500 0.951 . S
H1482 C1502 0.950 . S
H1483 C1503 0.950 . S
H1484 C1505 0.950 . S
H1485 C1508 0.950 . S
H1486 C1509 0.950 . S
H1487 C1511 0.950 . S
H1488 C1512 0.950 . S
H1489 C1513 0.951 . S
H1490 C1515 0.951 . S
H1491 C1517 0.950 . S
H1492 C1518 0.950 . S
H1493 C1520 0.950 . S
H1494 C1523 0.950 . S
H1495 C1524 0.950 . S
H1496 C1526 0.950 . S
H1497 C1527 0.950 . S
C1498 H1480 0.951 . S
C1498 C1499 1.366 . S
C1498 C1500 1.388 . S
C1499 C1498 1.366 . S
C1499 C1503 1.385 . S
C1500 H1481 0.951 . S
C1500 C1498 1.388 . S
C1500 C1501 1.366 . S
C1501 C1500 1.366 . S
C1501 C1502 1.414 . S
C1501 C1504 1.499 . S
C1502 H1482 0.950 . S
C1502 C1501 1.414 . S
C1502 C1503 1.374 . S
C1503 H1483 0.950 . S
C1503 C1499 1.385 . S
C1503 C1502 1.374 . S
C1504 C1501 1.499 . S
C1504 C1505 1.373 . S
C1504 C1506 1.389 . S
C1505 H1484 0.950 . S
C1505 C1504 1.373 . S
C1505 C1521 1.377 . S
C1506 C1504 1.389 . S
C1506 C1507 1.524 . S
C1506 C1520 1.377 . S
C1507 C1506 1.524 . S
C1507 C1508 1.397 . S
C1507 C1512 1.363 . S
C1508 H1485 0.950 . S
C1508 C1507 1.397 . S
C1508 C1509 1.334 . S
C1509 H1486 0.950 . S
C1509 C1508 1.334 . S
C1509 C1510 1.287 . S
C1510 C1509 1.287 . S
C1510 C1511 1.524 . S
C1510 H1529 0.913 . S
C1511 H1487 0.950 . S
C1511 C1510 1.524 . S
C1511 C1512 1.415 . S
C1512 H1488 0.950 . S
C1512 C1507 1.363 . S
C1512 C1511 1.415 . S
C1513 H1489 0.951 . S
C1513 C1514 1.366 . S
C1513 C1515 1.388 . S
C1514 C1513 1.366 . S
C1514 C1518 1.385 . S
C1515 H1490 0.951 . S
C1515 C1513 1.388 . S
C1515 C1516 1.366 . S
C1516 C1515 1.366 . S
C1516 C1517 1.414 . S
C1516 C1519 1.499 . S
C1517 H1491 0.950 . S
C1517 C1516 1.414 . S
C1517 C1518 1.374 . S
C1518 H1492 0.950 . S
C1518 C1514 1.385 . S
C1518 C1517 1.374 . S
C1519 C1516 1.499 . S
C1519 C1520 1.373 . S
C1519 C1521 1.389 . S
C1520 H1493 0.950 . S
C1520 C1506 1.377 . S
C1520 C1519 1.373 . S
C1521 C1505 1.377 . S
C1521 C1519 1.389 . S
C1521 C1522 1.524 . S
C1522 C1521 1.524 . S
C1522 C1523 1.397 . S
C1522 C1527 1.363 . S
C1523 H1494 0.950 . S
C1523 C1522 1.397 . S
C1523 C1524 1.334 . S
C1524 H1495 0.950 . S
C1524 C1523 1.334 . S
C1524 C1525 1.287 . S
C1525 C1524 1.287 . S
C1525 C1526 1.524 . S
C1525 H1528 0.999 . S
C1526 H1496 0.950 . S
C1526 C1525 1.524 . S
C1526 C1527 1.415 . S
C1527 H1497 0.950 . S
C1527 C1522 1.363 . S
C1527 C1526 1.415 . S
H1528 C1525 0.999 . S
H1529 C1510 0.913 . S
H1530 C1548 0.951 . S
H1531 C1550 0.951 . S
H1532 C1552 0.947 1_545 S
H1533 C1553 0.950 . S
H1534 C1555 0.950 . S
H1535 C1558 0.950 . S
H1536 C1559 0.950 . S
H1537 C1561 0.950 . S
H1538 C1562 0.950 . S
H1539 C1563 0.951 . S
H1540 C1565 0.951 . S
H1541 C1567 0.950 . S
H1542 C1568 0.950 . S
H1543 C1570 0.950 . S
H1544 C1573 0.950 . S
H1545 C1574 0.950 . S
H1546 C1576 0.950 . S
H1547 C1577 0.950 . S
C1548 H1530 0.951 . S
C1548 C1549 1.366 . S
C1548 C1550 1.388 1_565 S
C1549 C1548 1.366 . S
C1549 C1553 1.385 . S
C1550 H1531 0.951 . S
C1550 C1548 1.388 1_545 S
C1550 C1551 1.366 . S
C1551 C1550 1.366 . S
C1551 C1552 1.414 1_545 S
C1551 C1554 1.499 . S
C1552 H1532 0.947 1_565 S
C1552 C1551 1.414 1_565 S
C1552 C1553 1.374 . S
C1553 H1533 0.950 . S
C1553 C1549 1.385 . S
C1553 C1552 1.374 . S
C1554 C1551 1.499 . S
C1554 C1555 1.373 . S
C1554 C1556 1.389 . S
C1555 H1534 0.950 . S
C1555 C1554 1.373 . S
C1555 C1571 1.377 . S
C1556 C1554 1.389 . S
C1556 C1557 1.524 . S
C1556 C1570 1.377 . S
C1557 C1556 1.524 . S
C1557 C1558 1.397 1_545 S
C1557 C1562 1.363 . S
C1558 H1535 0.950 . S
C1558 C1557 1.397 1_565 S
C1558 C1559 1.334 . S
C1559 H1536 0.950 . S
C1559 C1558 1.334 . S
C1559 C1560 1.287 . S
C1560 C1559 1.287 . S
C1560 C1561 1.524 . S
C1560 H1579 0.913 . S
C1561 H1537 0.950 . S
C1561 C1560 1.524 . S
C1561 C1562 1.415 1_565 S
C1562 H1538 0.950 . S
C1562 C1557 1.363 . S
C1562 C1561 1.415 1_545 S
C1563 H1539 0.951 . S
C1563 C1564 1.366 . S
C1563 C1565 1.388 . S
C1564 C1563 1.366 . S
C1564 C1568 1.385 . S
C1565 H1540 0.951 . S
C1565 C1563 1.388 . S
C1565 C1566 1.366 . S
C1566 C1565 1.366 . S
C1566 C1567 1.414 . S
C1566 C1569 1.499 . S
C1567 H1541 0.950 . S
C1567 C1566 1.414 . S
C1567 C1568 1.374 . S
C1568 H1542 0.950 . S
C1568 C1564 1.385 . S
C1568 C1567 1.374 . S
C1569 C1566 1.499 . S
C1569 C1570 1.373 . S
C1569 C1571 1.389 . S
C1570 H1543 0.950 . S
C1570 C1556 1.377 . S
C1570 C1569 1.373 . S
C1571 C1555 1.377 . S
C1571 C1569 1.389 . S
C1571 C1572 1.524 . S
C1572 C1571 1.524 . S
C1572 C1573 1.397 . S
C1572 C1577 1.363 . S
C1573 H1544 0.950 . S
C1573 C1572 1.397 . S
C1573 C1574 1.334 . S
C1574 H1545 0.950 . S
C1574 C1573 1.334 . S
C1574 C1575 1.287 . S
C1575 C1574 1.287 . S
C1575 C1576 1.524 . S
C1575 H1578 0.999 . S
C1576 H1546 0.950 . S
C1576 C1575 1.524 . S
C1576 C1577 1.415 . S
C1577 H1547 0.950 . S
C1577 C1572 1.363 . S
C1577 C1576 1.415 . S
H1578 C1575 0.999 . S
H1579 C1560 0.913 . S
H1580 C1598 0.951 . S
H1581 C1600 0.951 . S
H1582 C1602 0.950 . S
H1583 C1603 0.950 . S
H1584 C1605 0.950 . S
H1585 C1608 0.950 . S
H1586 C1609 0.950 . S
H1587 C1611 0.950 . S
H1588 C1612 0.950 . S
H1589 C1613 0.951 . S
H1590 C1615 0.951 . S
H1591 C1617 0.950 . S
H1592 C1618 0.950 . S
H1593 C1620 0.950 . S
H1594 C1623 0.950 . S
H1595 C1624 0.950 . S
H1596 C1626 0.950 . S
H1597 C1627 0.950 . S
C1598 H1580 0.951 . S
C1598 C1599 1.366 . S
C1598 C1600 1.388 . S
C1599 C1598 1.366 . S
C1599 C1603 1.385 . S
C1600 H1581 0.951 . S
C1600 C1598 1.388 . S
C1600 C1601 1.366 . S
C1601 C1600 1.366 . S
C1601 C1602 1.414 . S
C1601 C1604 1.499 . S
C1602 H1582 0.950 . S
C1602 C1601 1.414 . S
C1602 C1603 1.374 . S
C1603 H1583 0.950 . S
C1603 C1599 1.385 . S
C1603 C1602 1.374 . S
C1604 C1601 1.499 . S
C1604 C1605 1.373 . S
C1604 C1606 1.389 . S
C1605 H1584 0.950 . S
C1605 C1604 1.373 . S
C1605 C1621 1.377 . S
C1606 C1604 1.389 . S
C1606 C1607 1.524 . S
C1606 C1620 1.377 . S
C1607 C1606 1.524 . S
C1607 C1608 1.397 . S
C1607 C1612 1.363 . S
C1608 H1585 0.950 . S
C1608 C1607 1.397 . S
C1608 C1609 1.334 . S
C1609 H1586 0.950 . S
C1609 C1608 1.334 . S
C1609 C1610 1.287 . S
C1610 C1609 1.287 . S
C1610 C1611 1.524 . S
C1610 H1629 0.913 . S
C1611 H1587 0.950 . S
C1611 C1610 1.524 . S
C1611 C1612 1.415 . S
C1612 H1588 0.950 . S
C1612 C1607 1.363 . S
C1612 C1611 1.415 . S
C1613 H1589 0.951 . S
C1613 C1614 1.366 . S
C1613 C1615 1.388 . S
C1614 C1613 1.366 . S
C1614 C1618 1.385 . S
C1615 H1590 0.951 . S
C1615 C1613 1.388 . S
C1615 C1616 1.366 . S
C1616 C1615 1.366 . S
C1616 C1617 1.414 . S
C1616 C1619 1.499 . S
C1617 H1591 0.950 . S
C1617 C1616 1.414 . S
C1617 C1618 1.374 . S
C1618 H1592 0.950 . S
C1618 C1614 1.385 . S
C1618 C1617 1.374 . S
C1619 C1616 1.499 . S
C1619 C1620 1.373 . S
C1619 C1621 1.389 . S
C1620 H1593 0.950 . S
C1620 C1606 1.377 . S
C1620 C1619 1.373 . S
C1621 C1605 1.377 . S
C1621 C1619 1.389 . S
C1621 C1622 1.524 . S
C1622 C1621 1.524 . S
C1622 C1623 1.397 . S
C1622 C1627 1.363 . S
C1623 H1594 0.950 . S
C1623 C1622 1.397 . S
C1623 C1624 1.334 . S
C1624 H1595 0.950 . S
C1624 C1623 1.334 . S
C1624 C1625 1.287 . S
C1625 C1624 1.287 . S
C1625 C1626 1.524 . S
C1625 H1628 0.999 . S
C1626 H1596 0.950 . S
C1626 C1625 1.524 . S
C1626 C1627 1.415 . S
C1627 H1597 0.950 . S
C1627 C1622 1.363 . S
C1627 C1626 1.415 . S
H1628 C1625 0.999 . S
H1629 C1610 0.913 . S
H1630 C1648 0.951 . S
H1631 C1650 0.951 . S
H1632 C1652 0.950 . S
H1633 C1653 0.950 . S
H1634 C1655 0.950 . S
H1635 C1658 0.950 . S
H1636 C1659 0.950 . S
H1637 C1661 0.950 . S
H1638 C1662 0.950 . S
H1639 C1663 0.951 . S
H1640 C1665 0.951 . S
H1641 C1667 0.950 . S
H1642 C1668 0.950 1_565 S
H1643 C1670 0.950 . S
H1644 C1673 0.950 . S
H1645 C1674 0.950 . S
H1646 C1676 0.950 . S
H1647 C1677 0.950 . S
C1648 H1630 0.951 . S
C1648 C1649 1.366 . S
C1648 C1650 1.388 . S
C1649 C1648 1.366 . S
C1649 C1653 1.385 . S
C1650 H1631 0.951 . S
C1650 C1648 1.388 . S
C1650 C1651 1.366 . S
C1651 C1650 1.366 . S
C1651 C1652 1.414 . S
C1651 C1654 1.499 . S
C1652 H1632 0.950 . S
C1652 C1651 1.414 . S
C1652 C1653 1.374 . S
C1653 H1633 0.950 . S
C1653 C1649 1.385 . S
C1653 C1652 1.374 . S
C1654 C1651 1.499 . S
C1654 C1655 1.373 . S
C1654 C1656 1.389 . S
C1655 H1634 0.950 . S
C1655 C1654 1.373 . S
C1655 C1671 1.377 . S
C1656 C1654 1.389 . S
C1656 C1657 1.524 . S
C1656 C1670 1.377 . S
C1657 C1656 1.524 . S
C1657 C1658 1.397 . S
C1657 C1662 1.363 . S
C1658 H1635 0.950 . S
C1658 C1657 1.397 . S
C1658 C1659 1.334 . S
C1659 H1636 0.950 . S
C1659 C1658 1.334 . S
C1659 C1660 1.287 . S
C1660 C1659 1.287 . S
C1660 C1661 1.524 . S
C1660 H1679 0.913 . S
C1661 H1637 0.950 . S
C1661 C1660 1.524 . S
C1661 C1662 1.415 . S
C1662 H1638 0.950 . S
C1662 C1657 1.363 . S
C1662 C1661 1.415 . S
C1663 H1639 0.951 . S
C1663 C1664 1.366 . S
C1663 C1665 1.388 . S
C1664 C1663 1.366 . S
C1664 C1668 1.385 . S
C1665 H1640 0.951 . S
C1665 C1663 1.388 . S
C1665 C1666 1.366 1_545 S
C1666 C1665 1.366 1_565 S
C1666 C1667 1.414 . S
C1666 C1669 1.499 . S
C1667 H1641 0.950 . S
C1667 C1666 1.414 . S
C1667 C1668 1.374 1_565 S
C1668 H1642 0.950 1_545 S
C1668 C1664 1.385 . S
C1668 C1667 1.374 1_545 S
C1669 C1666 1.499 . S
C1669 C1670 1.373 . S
C1669 C1671 1.389 . S
C1670 H1643 0.950 . S
C1670 C1656 1.377 . S
C1670 C1669 1.373 . S
C1671 C1655 1.377 . S
C1671 C1669 1.389 . S
C1671 C1672 1.524 . S
C1672 C1671 1.524 . S
C1672 C1673 1.397 . S
C1672 C1677 1.388 . S
C1673 H1644 0.950 . S
C1673 C1672 1.397 . S
C1673 C1674 1.334 . S
C1674 H1645 0.950 . S
C1674 C1673 1.334 . S
C1674 C1675 1.287 1_565 S
C1675 C1674 1.287 1_545 S
C1675 C1676 1.524 . S
C1675 H1678 0.999 . S
C1676 H1646 0.950 . S
C1676 C1675 1.524 . S
C1676 C1677 1.390 1_545 S
C1677 H1647 0.950 . S
C1677 C1672 1.388 . S
C1677 C1676 1.390 1_565 S
H1678 C1675 0.999 . S
H1679 C1660 0.913 . S
H1680 C1698 0.951 . S
H1681 C1700 0.951 . S
H1682 C1702 0.950 . S
H1683 C1703 0.950 . S
H1684 C1705 0.950 . S
H1685 C1708 0.950 . S
H1686 C1709 0.950 . S
H1687 C1711 0.950 . S
H1688 C1712 0.950 . S
H1689 C1713 0.951 . S
H1690 C1715 0.951 . S
H1691 C1717 0.950 . S
H1692 C1718 0.950 . S
H1693 C1720 0.950 . S
H1694 C1723 0.950 . S
H1695 C1724 0.950 . S
H1696 C1726 0.950 . S
H1697 C1727 0.950 . S
C1698 H1680 0.951 . S
C1698 C1699 1.366 . S
C1698 C1700 1.388 . S
C1699 C1698 1.366 . S
C1699 C1703 1.385 . S
C1700 H1681 0.951 . S
C1700 C1698 1.388 . S
C1700 C1701 1.366 . S
C1701 C1700 1.366 . S
C1701 C1702 1.414 . S
C1701 C1704 1.499 . S
C1702 H1682 0.950 . S
C1702 C1701 1.414 . S
C1702 C1703 1.374 . S
C1703 H1683 0.950 . S
C1703 C1699 1.385 . S
C1703 C1702 1.374 . S
C1704 C1701 1.499 . S
C1704 C1705 1.373 . S
C1704 C1706 1.389 . S
C1705 H1684 0.950 . S
C1705 C1704 1.373 . S
C1705 C1721 1.377 . S
C1706 C1704 1.389 . S
C1706 C1707 1.524 . S
C1706 C1720 1.377 . S
C1707 C1706 1.524 . S
C1707 C1708 1.397 . S
C1707 C1712 1.363 . S
C1708 H1685 0.950 . S
C1708 C1707 1.397 . S
C1708 C1709 1.334 . S
C1709 H1686 0.950 . S
C1709 C1708 1.334 . S
C1709 C1710 1.287 . S
C1710 C1709 1.287 . S
C1710 C1711 1.524 . S
C1710 H1729 0.913 . S
C1711 H1687 0.950 . S
C1711 C1710 1.524 . S
C1711 C1712 1.415 . S
C1712 H1688 0.950 . S
C1712 C1707 1.363 . S
C1712 C1711 1.415 . S
C1713 H1689 0.951 . S
C1713 C1714 1.366 . S
C1713 C1715 1.388 . S
C1714 C1713 1.366 . S
C1714 C1718 1.385 . S
C1715 H1690 0.951 . S
C1715 C1713 1.388 . S
C1715 C1716 1.366 . S
C1716 C1715 1.366 . S
C1716 C1717 1.414 . S
C1716 C1719 1.499 . S
C1717 H1691 0.950 . S
C1717 C1716 1.414 . S
C1717 C1718 1.374 . S
C1718 H1692 0.950 . S
C1718 C1714 1.385 . S
C1718 C1717 1.374 . S
C1719 C1716 1.499 . S
C1719 C1720 1.373 . S
C1719 C1721 1.389 . S
C1720 H1693 0.950 . S
C1720 C1706 1.377 . S
C1720 C1719 1.373 . S
C1721 C1705 1.377 . S
C1721 C1719 1.389 . S
C1721 C1722 1.524 . S
C1722 C1721 1.524 . S
C1722 C1723 1.397 . S
C1722 C1727 1.363 . S
C1723 H1694 0.950 . S
C1723 C1722 1.397 . S
C1723 C1724 1.334 . S
C1724 H1695 0.950 . S
C1724 C1723 1.334 . S
C1724 C1725 1.287 . S
C1725 C1724 1.287 . S
C1725 C1726 1.524 . S
C1725 H1728 0.999 . S
C1726 H1696 0.950 . S
C1726 C1725 1.524 . S
C1726 C1727 1.415 . S
C1727 H1697 0.950 . S
C1727 C1722 1.363 . S
C1727 C1726 1.415 . S
H1728 C1725 0.999 . S
H1729 C1710 0.913 . S
H1730 C1748 0.951 . S
H1731 C1750 0.951 . S
H1732 C1752 0.950 . S
H1733 C1753 0.950 . S
H1734 C1755 0.950 . S
H1735 C1758 0.950 . S
H1736 C1759 0.950 . S
H1737 C1761 0.950 . S
H1738 C1762 0.950 . S
H1739 C1763 0.951 . S
H1740 C1765 0.951 . S
H1741 C1767 0.950 . S
H1742 C1768 0.950 . S
H1743 C1770 0.950 . S
H1744 C1773 0.950 . S
H1745 C1774 0.950 . S
H1746 C1776 0.921 1_545 S
H1747 C1777 0.950 . S
C1748 H1730 0.951 . S
C1748 C1749 1.366 . S
C1748 C1750 1.388 1_545 S
C1749 C1748 1.366 . S
C1749 C1753 1.385 . S
C1750 H1731 0.951 . S
C1750 C1748 1.388 1_565 S
C1750 C1751 1.366 . S
C1751 C1750 1.366 . S
C1751 C1752 1.414 1_565 S
C1751 C1754 1.499 . S
C1752 H1732 0.950 . S
C1752 C1751 1.414 1_545 S
C1752 C1753 1.374 . S
C1753 H1733 0.950 . S
C1753 C1749 1.385 . S
C1753 C1752 1.374 . S
C1754 C1751 1.499 . S
C1754 C1755 1.373 . S
C1754 C1756 1.389 . S
C1755 H1734 0.950 . S
C1755 C1754 1.373 . S
C1755 C1771 1.377 . S
C1756 C1754 1.389 . S
C1756 C1757 1.524 . S
C1756 C1770 1.377 . S
C1757 C1756 1.524 . S
C1757 C1758 1.397 . S
C1757 C1762 1.363 . S
C1758 H1735 0.950 . S
C1758 C1757 1.397 . S
C1758 C1759 1.334 . S
C1759 H1736 0.950 . S
C1759 C1758 1.334 . S
C1759 C1760 1.287 . S
C1760 C1759 1.287 . S
C1760 C1761 1.524 . S
C1760 H1779 0.913 . S
C1761 H1737 0.950 . S
C1761 C1760 1.524 . S
C1761 C1762 1.415 . S
C1762 H1738 0.950 . S
C1762 C1757 1.363 . S
C1762 C1761 1.415 . S
C1763 H1739 0.951 . S
C1763 C1764 1.366 . S
C1763 C1765 1.388 . S
C1764 C1763 1.366 . S
C1764 C1768 1.385 . S
C1765 H1740 0.951 . S
C1765 C1763 1.388 . S
C1765 C1766 1.366 . S
C1766 C1765 1.366 . S
C1766 C1767 1.414 . S
C1766 C1769 1.499 . S
C1767 H1741 0.950 . S
C1767 C1766 1.414 . S
C1767 C1768 1.374 . S
C1768 H1742 0.950 . S
C1768 C1764 1.385 . S
C1768 C1767 1.374 . S
C1769 C1766 1.499 . S
C1769 C1770 1.373 . S
C1769 C1771 1.389 . S
C1770 H1743 0.950 . S
C1770 C1756 1.377 . S
C1770 C1769 1.373 . S
C1771 C1755 1.377 . S
C1771 C1769 1.389 . S
C1771 C1772 1.524 . S
C1772 C1771 1.524 . S
C1772 C1773 1.397 . S
C1772 C1777 1.363 . S
C1773 H1744 0.950 . S
C1773 C1772 1.397 . S
C1773 C1774 1.334 . S
C1774 H1745 0.950 . S
C1774 C1773 1.334 . S
C1774 C1775 1.287 . S
C1775 C1774 1.287 . S
C1775 C1776 1.537 . S
C1775 H1778 0.999 . S
C1776 H1746 0.921 1_565 S
C1776 C1775 1.537 . S
C1776 C1777 1.438 . S
C1777 H1747 0.950 . S
C1777 C1772 1.363 . S
C1777 C1776 1.438 . S
H1778 C1775 0.999 . S
H1779 C1760 0.913 . S
H1780 C1798 0.951 . S
H1781 C1800 0.951 . S
H1782 C1802 0.950 . S
H1783 C1803 0.950 . S
H1784 C1805 0.950 . S
H1785 C1808 0.950 . S
H1786 C1809 0.950 . S
H1787 C1811 0.950 . S
H1788 C1812 0.950 . S
H1789 C1813 0.951 . S
H1790 C1815 0.951 . S
H1791 C1817 0.950 . S
H1792 C1818 0.950 . S
H1793 C1820 0.950 . S
H1794 C1823 0.950 . S
H1795 C1824 0.950 . S
H1796 C1826 0.950 . S
H1797 C1827 0.950 . S
C1798 H1780 0.951 . S
C1798 C1799 1.366 . S
C1798 C1800 1.388 . S
C1799 C1798 1.366 . S
C1799 C1803 1.385 . S
C1800 H1781 0.951 . S
C1800 C1798 1.388 . S
C1800 C1801 1.366 . S
C1801 C1800 1.366 . S
C1801 C1802 1.414 . S
C1801 C1804 1.499 . S
C1802 H1782 0.950 . S
C1802 C1801 1.414 . S
C1802 C1803 1.374 . S
C1803 H1783 0.950 . S
C1803 C1799 1.385 . S
C1803 C1802 1.374 . S
C1804 C1801 1.499 . S
C1804 C1805 1.373 . S
C1804 C1806 1.389 . S
C1805 H1784 0.950 . S
C1805 C1804 1.373 . S
C1805 C1821 1.377 . S
C1806 C1804 1.389 . S
C1806 C1807 1.524 . S
C1806 C1820 1.377 . S
C1807 C1806 1.524 . S
C1807 C1808 1.397 . S
C1807 C1812 1.363 . S
C1808 H1785 0.950 . S
C1808 C1807 1.397 . S
C1808 C1809 1.334 . S
C1809 H1786 0.950 . S
C1809 C1808 1.334 . S
C1809 C1810 1.287 . S
C1810 C1809 1.287 . S
C1810 C1811 1.524 . S
C1810 H1829 0.913 . S
C1811 H1787 0.950 . S
C1811 C1810 1.524 . S
C1811 C1812 1.415 . S
C1812 H1788 0.950 . S
C1812 C1807 1.363 . S
C1812 C1811 1.415 . S
C1813 H1789 0.951 . S
C1813 C1814 1.366 . S
C1813 C1815 1.388 . S
C1814 C1813 1.366 . S
C1814 C1818 1.385 . S
C1815 H1790 0.951 . S
C1815 C1813 1.388 . S
C1815 C1816 1.366 . S
C1816 C1815 1.366 . S
C1816 C1817 1.414 . S
C1816 C1819 1.499 . S
C1817 H1791 0.950 . S
C1817 C1816 1.414 . S
C1817 C1818 1.374 . S
C1818 H1792 0.950 . S
C1818 C1814 1.385 . S
C1818 C1817 1.374 . S
C1819 C1816 1.499 . S
C1819 C1820 1.373 . S
C1819 C1821 1.389 . S
C1820 H1793 0.950 . S
C1820 C1806 1.377 . S
C1820 C1819 1.373 . S
C1821 C1805 1.377 . S
C1821 C1819 1.389 . S
C1821 C1822 1.524 . S
C1822 C1821 1.524 . S
C1822 C1823 1.397 . S
C1822 C1827 1.363 . S
C1823 H1794 0.950 . S
C1823 C1822 1.397 . S
C1823 C1824 1.334 . S
C1824 H1795 0.950 . S
C1824 C1823 1.334 . S
C1824 C1825 1.287 . S
C1825 C1824 1.287 . S
C1825 C1826 1.524 . S
C1825 H1828 0.999 . S
C1826 H1796 0.950 . S
C1826 C1825 1.524 . S
C1826 C1827 1.415 . S
C1827 H1797 0.950 . S
C1827 C1822 1.363 . S
C1827 C1826 1.415 . S
H1828 C1825 0.999 . S
H1829 C1810 0.913 . S
H1830 C1848 0.951 . S
H1831 C1850 0.951 . S
H1832 C1852 0.951 1_545 S
H1833 C1853 0.950 . S
H1834 C1855 0.950 . S
H1835 C1858 0.950 . S
H1836 C1859 0.950 . S
H1837 C1861 0.950 . S
H1838 C1862 0.950 . S
H1839 C1863 0.951 . S
H1840 C1865 0.951 . S
H1841 C1867 0.950 . S
H1842 C1868 0.950 . S
H1843 C1870 0.950 . S
H1844 C1873 0.950 . S
H1845 C1874 0.950 . S
H1846 C1876 0.950 . S
H1847 C1877 0.950 . S
C1848 H1830 0.951 . S
C1848 C1849 1.366 . S
C1848 C1850 1.388 1_565 S
C1849 C1848 1.366 . S
C1849 C1853 1.385 . S
C1850 H1831 0.951 . S
C1850 C1848 1.388 1_545 S
C1850 C1851 1.366 . S
C1851 C1850 1.366 . S
C1851 C1852 1.414 1_545 S
C1851 C1854 1.499 . S
C1852 H1832 0.951 1_565 S
C1852 C1851 1.414 1_565 S
C1852 C1853 1.374 . S
C1853 H1833 0.950 . S
C1853 C1849 1.385 . S
C1853 C1852 1.374 . S
C1854 C1851 1.499 . S
C1854 C1855 1.373 . S
C1854 C1856 1.389 . S
C1855 H1834 0.950 . S
C1855 C1854 1.373 . S
C1855 C1871 1.377 . S
C1856 C1854 1.389 . S
C1856 C1857 1.524 . S
C1856 C1870 1.377 . S
C1857 C1856 1.524 . S
C1857 C1858 1.397 1_545 S
C1857 C1862 1.363 . S
C1858 H1835 0.950 . S
C1858 C1857 1.397 1_565 S
C1858 C1859 1.334 . S
C1859 H1836 0.950 . S
C1859 C1858 1.334 . S
C1859 C1860 1.287 . S
C1860 C1859 1.287 . S
C1860 C1861 1.524 . S
C1860 H1879 0.913 . S
C1861 H1837 0.950 . S
C1861 C1860 1.524 . S
C1861 C1862 1.415 1_565 S
C1862 H1838 0.950 . S
C1862 C1857 1.363 . S
C1862 C1861 1.415 1_545 S
C1863 H1839 0.951 . S
C1863 C1864 1.366 . S
C1863 C1865 1.388 . S
C1864 C1863 1.366 . S
C1864 C1868 1.385 . S
C1865 H1840 0.951 . S
C1865 C1863 1.388 . S
C1865 C1866 1.366 . S
C1866 C1865 1.366 . S
C1866 C1867 1.414 . S
C1866 C1869 1.499 . S
C1867 H1841 0.950 . S
C1867 C1866 1.414 . S
C1867 C1868 1.374 . S
C1868 H1842 0.950 . S
C1868 C1864 1.385 . S
C1868 C1867 1.374 . S
C1869 C1866 1.499 . S
C1869 C1870 1.373 . S
C1869 C1871 1.389 . S
C1870 H1843 0.950 . S
C1870 C1856 1.377 . S
C1870 C1869 1.373 . S
C1871 C1855 1.377 . S
C1871 C1869 1.389 . S
C1871 C1872 1.524 . S
C1872 C1871 1.524 . S
C1872 C1873 1.397 . S
C1872 C1877 1.363 . S
C1873 H1844 0.950 . S
C1873 C1872 1.397 . S
C1873 C1874 1.334 . S
C1874 H1845 0.950 . S
C1874 C1873 1.334 . S
C1874 C1875 1.287 . S
C1875 C1874 1.287 . S
C1875 C1876 1.524 . S
C1875 H1878 0.999 . S
C1876 H1846 0.950 . S
C1876 C1875 1.524 . S
C1876 C1877 1.415 . S
C1877 H1847 0.950 . S
C1877 C1872 1.363 . S
C1877 C1876 1.415 . S
H1878 C1875 0.999 . S
H1879 C1860 0.913 . S
H1880 C1898 0.951 . S
H1881 C1900 0.951 . S
H1882 C1902 0.950 . S
H1883 C1903 0.950 . S
H1884 C1905 0.950 . S
H1885 C1908 0.950 . S
H1886 C1909 0.950 . S
H1887 C1911 0.950 . S
H1888 C1912 0.950 . S
H1889 C1913 0.951 . S
H1890 C1915 0.951 . S
H1891 C1917 0.950 . S
H1892 C1918 0.950 . S
H1893 C1920 0.950 . S
H1894 C1923 0.950 . S
H1895 C1924 0.950 . S
H1896 C1926 0.950 . S
H1897 C1927 0.950 . S
C1898 H1880 0.951 . S
C1898 C1899 1.366 . S
C1898 C1900 1.388 . S
C1899 C1898 1.366 . S
C1899 C1903 1.385 . S
C1900 H1881 0.951 . S
C1900 C1898 1.388 . S
C1900 C1901 1.366 . S
C1901 C1900 1.366 . S
C1901 C1902 1.414 . S
C1901 C1904 1.499 . S
C1902 H1882 0.950 . S
C1902 C1901 1.414 . S
C1902 C1903 1.374 . S
C1903 H1883 0.950 . S
C1903 C1899 1.385 . S
C1903 C1902 1.374 . S
C1904 C1901 1.499 . S
C1904 C1905 1.373 . S
C1904 C1906 1.389 . S
C1905 H1884 0.950 . S
C1905 C1904 1.373 . S
C1905 C1921 1.377 . S
C1906 C1904 1.389 . S
C1906 C1907 1.524 . S
C1906 C1920 1.377 . S
C1907 C1906 1.524 . S
C1907 C1908 1.397 . S
C1907 C1912 1.363 . S
C1908 H1885 0.950 . S
C1908 C1907 1.397 . S
C1908 C1909 1.334 . S
C1909 H1886 0.950 . S
C1909 C1908 1.334 . S
C1909 C1910 1.287 . S
C1910 C1909 1.287 . S
C1910 C1911 1.524 . S
C1910 H1929 0.913 . S
C1911 H1887 0.950 . S
C1911 C1910 1.524 . S
C1911 C1912 1.415 . S
C1912 H1888 0.950 . S
C1912 C1907 1.363 . S
C1912 C1911 1.415 . S
C1913 H1889 0.951 . S
C1913 C1914 1.366 . S
C1913 C1915 1.388 . S
C1914 C1913 1.366 . S
C1914 C1918 1.385 . S
C1915 H1890 0.951 . S
C1915 C1913 1.388 . S
C1915 C1916 1.366 . S
C1916 C1915 1.366 . S
C1916 C1917 1.414 . S
C1916 C1919 1.499 . S
C1917 H1891 0.950 . S
C1917 C1916 1.414 . S
C1917 C1918 1.374 . S
C1918 H1892 0.950 . S
C1918 C1914 1.385 . S
C1918 C1917 1.374 . S
C1919 C1916 1.499 . S
C1919 C1920 1.373 . S
C1919 C1921 1.389 . S
C1920 H1893 0.950 . S
C1920 C1906 1.377 . S
C1920 C1919 1.373 . S
C1921 C1905 1.377 . S
C1921 C1919 1.389 . S
C1921 C1922 1.524 . S
C1922 C1921 1.524 . S
C1922 C1923 1.397 . S
C1922 C1927 1.363 . S
C1923 H1894 0.950 . S
C1923 C1922 1.397 . S
C1923 C1924 1.334 . S
C1924 H1895 0.950 . S
C1924 C1923 1.334 . S
C1924 C1925 1.287 . S
C1925 C1924 1.287 . S
C1925 C1926 1.524 . S
C1925 H1928 0.999 . S
C1926 H1896 0.950 . S
C1926 C1925 1.524 . S
C1926 C1927 1.415 . S
C1927 H1897 0.950 . S
C1927 C1922 1.363 . S
C1927 C1926 1.415 . S
H1928 C1925 0.999 . S
H1929 C1910 0.913 . S
H1930 C1948 0.951 . S
H1931 C1950 0.951 1_565 S
H1932 C1952 0.949 . S
H1933 C1953 0.950 . S
H1934 C1955 0.950 . S
H1935 C1958 0.950 . S
H1936 C1959 0.950 . S
H1937 C1961 0.950 . S
H1938 C1962 0.945 1_565 S
H1939 C1963 0.951 . S
H1940 C1965 0.951 . S
H1941 C1967 0.950 . S
H1942 C1968 0.950 . S
H1943 C1970 0.950 . S
H1944 C1973 0.950 . S
H1945 C1974 0.950 . S
H1946 C1976 0.950 . S
H1947 C1977 0.950 . S
C1948 H1930 0.951 . S
C1948 C1949 1.366 . S
C1948 C1950 1.388 . S
C1949 C1948 1.366 . S
C1949 C1953 1.385 . S
C1950 H1931 0.951 1_545 S
C1950 C1948 1.388 . S
C1950 C1951 1.366 1_545 S
C1951 C1950 1.366 1_565 S
C1951 C1952 1.412 . S
C1951 C1954 1.499 . S
C1952 H1932 0.949 . S
C1952 C1951 1.412 . S
C1952 C1953 1.377 1_565 S
C1953 H1933 0.950 . S
C1953 C1949 1.385 . S
C1953 C1952 1.377 1_545 S
C1954 C1951 1.499 . S
C1954 C1955 1.373 . S
C1954 C1956 1.389 . S
C1955 H1934 0.950 . S
C1955 C1954 1.373 . S
C1955 C1971 1.377 . S
C1956 C1954 1.389 . S
C1956 C1957 1.513 1_565 S
C1956 C1970 1.377 . S
C1957 C1956 1.513 1_545 S
C1957 C1958 1.408 . S
C1957 C1962 1.363 . S
C1958 H1935 0.950 . S
C1958 C1957 1.408 . S
C1958 C1959 1.334 . S
C1959 H1936 0.950 . S
C1959 C1958 1.334 . S
C1959 C1960 1.287 . S
C1960 C1959 1.287 . S
C1960 C1961 1.524 . S
C1960 H1979 0.913 . S
C1961 H1937 0.950 . S
C1961 C1960 1.524 . S
C1961 C1962 1.421 . S
C1962 H1938 0.945 1_545 S
C1962 C1957 1.363 . S
C1962 C1961 1.421 . S
C1963 H1939 0.951 . S
C1963 C1964 1.366 . S
C1963 C1965 1.388 . S
C1964 C1963 1.366 . S
C1964 C1968 1.385 . S
C1965 H1940 0.951 . S
C1965 C1963 1.388 . S
C1965 C1966 1.366 . S
C1966 C1965 1.366 . S
C1966 C1967 1.414 . S
C1966 C1969 1.499 . S
C1967 H1941 0.950 . S
C1967 C1966 1.414 . S
C1967 C1968 1.374 . S
C1968 H1942 0.950 . S
C1968 C1964 1.385 . S
C1968 C1967 1.374 . S
C1969 C1966 1.499 . S
C1969 C1970 1.373 . S
C1969 C1971 1.389 . S
C1970 H1943 0.950 . S
C1970 C1956 1.377 . S
C1970 C1969 1.373 . S
C1971 C1955 1.377 . S
C1971 C1969 1.389 . S
C1971 C1972 1.524 . S
C1972 C1971 1.524 . S
C1972 C1973 1.397 . S
C1972 C1977 1.363 . S
C1973 H1944 0.950 . S
C1973 C1972 1.397 . S
C1973 C1974 1.334 . S
C1974 H1945 0.950 . S
C1974 C1973 1.334 . S
C1974 C1975 1.287 . S
C1975 C1974 1.287 . S
C1975 C1976 1.524 . S
C1975 H1978 0.999 . S
C1976 H1946 0.950 . S
C1976 C1975 1.524 . S
C1976 C1977 1.415 . S
C1977 H1947 0.950 . S
C1977 C1972 1.363 . S
C1977 C1976 1.415 . S
H1978 C1975 0.999 . S
H1979 C1960 0.913 . S
H1980 C1998 0.951 . S
H1981 C2000 0.951 . S
H1982 C2002 0.950 . S
H1983 C2003 0.950 . S
H1984 C2005 0.950 . S
H1985 C2008 0.950 . S
H1986 C2009 0.950 . S
H1987 C2011 0.950 . S
H1988 C2012 0.950 . S
H1989 C2013 0.951 . S
H1990 C2015 0.951 . S
H1991 C2017 0.950 . S
H1992 C2018 0.950 . S
H1993 C2020 0.950 . S
H1994 C2023 0.950 . S
H1995 C2024 0.950 . S
H1996 C2026 0.950 . S
H1997 C2027 0.950 . S
C1998 H1980 0.951 . S
C1998 C1999 1.366 . S
C1998 C2000 1.388 . S
C1999 C1998 1.366 . S
C1999 C2003 1.385 . S
C2000 H1981 0.951 . S
C2000 C1998 1.388 . S
C2000 C2001 1.366 . S
C2001 C2000 1.366 . S
C2001 C2002 1.414 . S
C2001 C2004 1.499 . S
C2002 H1982 0.950 . S
C2002 C2001 1.414 . S
C2002 C2003 1.374 . S
C2003 H1983 0.950 . S
C2003 C1999 1.385 . S
C2003 C2002 1.374 . S
C2004 C2001 1.499 . S
C2004 C2005 1.373 . S
C2004 C2006 1.389 . S
C2005 H1984 0.950 . S
C2005 C2004 1.373 . S
C2005 C2021 1.377 . S
C2006 C2004 1.389 . S
C2006 C2007 1.524 . S
C2006 C2020 1.377 . S
C2007 C2006 1.524 . S
C2007 C2008 1.397 . S
C2007 C2012 1.363 . S
C2008 H1985 0.950 . S
C2008 C2007 1.397 . S
C2008 C2009 1.334 . S
C2009 H1986 0.950 . S
C2009 C2008 1.334 . S
C2009 C2010 1.287 . S
C2010 C2009 1.287 . S
C2010 C2011 1.524 . S
C2010 H2029 0.913 . S
C2011 H1987 0.950 . S
C2011 C2010 1.524 . S
C2011 C2012 1.415 . S
C2012 H1988 0.950 . S
C2012 C2007 1.363 . S
C2012 C2011 1.415 . S
C2013 H1989 0.951 . S
C2013 C2014 1.366 . S
C2013 C2015 1.388 . S
C2014 C2013 1.366 . S
C2014 C2018 1.385 . S
C2015 H1990 0.951 . S
C2015 C2013 1.388 . S
C2015 C2016 1.366 . S
C2016 C2015 1.366 . S
C2016 C2017 1.414 . S
C2016 C2019 1.499 . S
C2017 H1991 0.950 . S
C2017 C2016 1.414 . S
C2017 C2018 1.374 . S
C2018 H1992 0.950 . S
C2018 C2014 1.385 . S
C2018 C2017 1.374 . S
C2019 C2016 1.499 . S
C2019 C2020 1.373 . S
C2019 C2021 1.389 . S
C2020 H1993 0.950 . S
C2020 C2006 1.377 . S
C2020 C2019 1.373 . S
C2021 C2005 1.377 . S
C2021 C2019 1.389 . S
C2021 C2022 1.524 . S
C2022 C2021 1.524 . S
C2022 C2023 1.397 . S
C2022 C2027 1.363 . S
C2023 H1994 0.950 . S
C2023 C2022 1.397 . S
C2023 C2024 1.334 . S
C2024 H1995 0.950 . S
C2024 C2023 1.334 . S
C2024 C2025 1.287 . S
C2025 C2024 1.287 . S
C2025 C2026 1.524 . S
C2025 H2028 0.999 . S
C2026 H1996 0.950 . S
C2026 C2025 1.524 . S
C2026 C2027 1.415 . S
C2027 H1997 0.950 . S
C2027 C2022 1.363 . S
C2027 C2026 1.415 . S
H2028 C2025 0.999 . S
H2029 C2010 0.913 . S
H2030 C2048 0.951 . S
H2031 C2050 0.951 . S
H2032 C2052 0.950 . S
H2033 C2053 0.950 . S
H2034 C2055 0.950 . S
H2035 C2058 0.950 . S
H2036 C2059 0.950 . S
H2037 C2061 0.934 1_565 S
H2038 C2062 0.950 . S
H2039 C2063 0.951 . S
H2040 C2065 0.951 . S
H2041 C2067 0.950 . S
H2042 C2068 0.950 . S
H2043 C2070 0.950 . S
H2044 C2073 0.950 . S
H2045 C2074 0.950 . S
H2046 C2076 0.950 . S
H2047 C2077 0.950 . S
C2048 H2030 0.951 . S
C2048 C2049 1.366 . S
C2048 C2050 1.388 . S
C2049 C2048 1.366 . S
C2049 C2053 1.385 . S
C2050 H2031 0.951 . S
C2050 C2048 1.388 . S
C2050 C2051 1.366 . S
C2051 C2050 1.366 . S
C2051 C2052 1.414 . S
C2051 C2054 1.499 . S
C2052 H2032 0.950 . S
C2052 C2051 1.414 . S
C2052 C2053 1.374 . S
C2053 H2033 0.950 . S
C2053 C2049 1.385 . S
C2053 C2052 1.374 . S
C2054 C2051 1.499 . S
C2054 C2055 1.373 . S
C2054 C2056 1.389 . S
C2055 H2034 0.950 . S
C2055 C2054 1.373 . S
C2055 C2071 1.377 . S
C2056 C2054 1.389 . S
C2056 C2057 1.524 . S
C2056 C2070 1.377 . S
C2057 C2056 1.524 . S
C2057 C2058 1.397 . S
C2057 C2062 1.363 . S
C2058 H2035 0.950 . S
C2058 C2057 1.397 . S
C2058 C2059 1.334 . S
C2059 H2036 0.950 . S
C2059 C2058 1.334 . S
C2059 C2060 1.287 . S
C2060 C2059 1.287 . S
C2060 C2061 1.531 . S
C2060 H2079 0.913 . S
C2061 H2037 0.934 1_545 S
C2061 C2060 1.531 . S
C2061 C2062 1.427 . S
C2062 H2038 0.950 . S
C2062 C2057 1.363 . S
C2062 C2061 1.427 . S
C2063 H2039 0.951 . S
C2063 C2064 1.366 . S
C2063 C2065 1.388 1_565 S
C2064 C2063 1.366 . S
C2064 C2068 1.385 . S
C2065 H2040 0.951 . S
C2065 C2063 1.388 1_545 S
C2065 C2066 1.366 . S
C2066 C2065 1.366 . S
C2066 C2067 1.414 1_545 S
C2066 C2069 1.499 . S
C2067 H2041 0.950 . S
C2067 C2066 1.414 1_565 S
C2067 C2068 1.374 . S
C2068 H2042 0.950 . S
C2068 C2064 1.385 . S
C2068 C2067 1.374 . S
C2069 C2066 1.499 . S
C2069 C2070 1.373 . S
C2069 C2071 1.389 . S
C2070 H2043 0.950 . S
C2070 C2056 1.377 . S
C2070 C2069 1.373 . S
C2071 C2055 1.377 . S
C2071 C2069 1.389 . S
C2071 C2072 1.524 . S
C2072 C2071 1.524 . S
C2072 C2073 1.397 . S
C2072 C2077 1.363 . S
C2073 H2044 0.950 . S
C2073 C2072 1.397 . S
C2073 C2074 1.334 . S
C2074 H2045 0.950 . S
C2074 C2073 1.334 . S
C2074 C2075 1.287 . S
C2075 C2074 1.287 . S
C2075 C2076 1.524 . S
C2075 H2078 0.999 . S
C2076 H2046 0.950 . S
C2076 C2075 1.524 . S
C2076 C2077 1.415 . S
C2077 H2047 0.950 . S
C2077 C2072 1.363 . S
C2077 C2076 1.415 . S
H2078 C2075 0.999 . S
H2079 C2060 0.913 . S
H2080 C2098 0.951 . S
H2081 C2100 0.951 . S
H2082 C2102 0.950 . S
H2083 C2103 0.950 . S
H2084 C2105 0.950 . S
H2085 C2108 0.950 . S
H2086 C2109 0.950 . S
H2087 C2111 0.950 . S
H2088 C2112 0.950 . S
H2089 C2113 0.951 . S
H2090 C2115 0.951 . S
H2091 C2117 0.950 . S
H2092 C2118 0.950 . S
H2093 C2120 0.950 . S
H2094 C2123 0.950 . S
H2095 C2124 0.950 . S
H2096 C2126 0.950 . S
H2097 C2127 0.950 . S
C2098 H2080 0.951 . S
C2098 C2099 1.366 . S
C2098 C2100 1.388 . S
C2099 C2098 1.366 . S
C2099 C2103 1.385 . S
C2100 H2081 0.951 . S
C2100 C2098 1.388 . S
C2100 C2101 1.366 . S
C2101 C2100 1.366 . S
C2101 C2102 1.414 . S
C2101 C2104 1.499 . S
C2102 H2082 0.950 . S
C2102 C2101 1.414 . S
C2102 C2103 1.374 . S
C2103 H2083 0.950 . S
C2103 C2099 1.385 . S
C2103 C2102 1.374 . S
C2104 C2101 1.499 . S
C2104 C2105 1.373 . S
C2104 C2106 1.389 . S
C2105 H2084 0.950 . S
C2105 C2104 1.373 . S
C2105 C2121 1.377 . S
C2106 C2104 1.389 . S
C2106 C2107 1.524 . S
C2106 C2120 1.377 . S
C2107 C2106 1.524 . S
C2107 C2108 1.397 . S
C2107 C2112 1.363 . S
C2108 H2085 0.950 . S
C2108 C2107 1.397 . S
C2108 C2109 1.334 . S
C2109 H2086 0.950 . S
C2109 C2108 1.334 . S
C2109 C2110 1.287 . S
C2110 C2109 1.287 . S
C2110 C2111 1.524 . S
C2110 H2129 0.913 . S
C2111 H2087 0.950 . S
C2111 C2110 1.524 . S
C2111 C2112 1.415 . S
C2112 H2088 0.950 . S
C2112 C2107 1.363 . S
C2112 C2111 1.415 . S
C2113 H2089 0.951 . S
C2113 C2114 1.366 . S
C2113 C2115 1.388 . S
C2114 C2113 1.366 . S
C2114 C2118 1.385 . S
C2115 H2090 0.951 . S
C2115 C2113 1.388 . S
C2115 C2116 1.366 . S
C2116 C2115 1.366 . S
C2116 C2117 1.414 . S
C2116 C2119 1.499 . S
C2117 H2091 0.950 . S
C2117 C2116 1.414 . S
C2117 C2118 1.374 . S
C2118 H2092 0.950 . S
C2118 C2114 1.385 . S
C2118 C2117 1.374 . S
C2119 C2116 1.499 . S
C2119 C2120 1.373 . S
C2119 C2121 1.389 . S
C2120 H2093 0.950 . S
C2120 C2106 1.377 . S
C2120 C2119 1.373 . S
C2121 C2105 1.377 . S
C2121 C2119 1.389 . S
C2121 C2122 1.524 . S
C2122 C2121 1.524 . S
C2122 C2123 1.397 . S
C2122 C2127 1.363 . S
C2123 H2094 0.950 . S
C2123 C2122 1.397 . S
C2123 C2124 1.334 . S
C2124 H2095 0.950 . S
C2124 C2123 1.334 . S
C2124 C2125 1.287 . S
C2125 C2124 1.287 . S
C2125 C2126 1.524 . S
C2125 H2128 0.999 . S
C2126 H2096 0.950 . S
C2126 C2125 1.524 . S
C2126 C2127 1.415 . S
C2127 H2097 0.950 . S
C2127 C2122 1.363 . S
C2127 C2126 1.415 . S
H2128 C2125 0.999 . S
H2129 C2110 0.913 . S
H2130 C2148 0.951 . S
H2131 C2150 0.951 . S
H2132 C2152 0.950 . S
H2133 C2153 0.950 . S
H2134 C2155 0.950 . S
H2135 C2158 0.950 . S
H2136 C2159 0.950 . S
H2137 C2161 0.950 . S
H2138 C2162 0.950 . S
H2139 C2163 0.951 . S
H2140 C2165 0.951 . S
H2141 C2167 0.950 . S
H2142 C2168 0.950 . S
H2143 C2170 0.950 . S
H2144 C2173 0.950 . S
H2145 C2174 0.950 . S
H2146 C2176 0.950 . S
H2147 C2177 0.950 . S
C2148 H2130 0.951 . S
C2148 C2149 1.366 . S
C2148 C2150 1.388 . S
C2149 C2148 1.366 . S
C2149 C2153 1.385 . S
C2150 H2131 0.951 . S
C2150 C2148 1.388 . S
C2150 C2151 1.366 . S
C2151 C2150 1.366 . S
C2151 C2152 1.414 . S
C2151 C2154 1.499 . S
C2152 H2132 0.950 . S
C2152 C2151 1.414 . S
C2152 C2153 1.374 . S
C2153 H2133 0.950 . S
C2153 C2149 1.385 . S
C2153 C2152 1.374 . S
C2154 C2151 1.499 . S
C2154 C2155 1.373 . S
C2154 C2156 1.389 . S
C2155 H2134 0.950 . S
C2155 C2154 1.373 . S
C2155 C2171 1.377 . S
C2156 C2154 1.389 . S
C2156 C2157 1.524 . S
C2156 C2170 1.377 . S
C2157 C2156 1.524 . S
C2157 C2158 1.397 . S
C2157 C2162 1.363 . S
C2158 H2135 0.950 . S
C2158 C2157 1.397 . S
C2158 C2159 1.334 . S
C2159 H2136 0.950 . S
C2159 C2158 1.334 . S
C2159 C2160 1.287 . S
C2160 C2159 1.287 . S
C2160 C2161 1.524 . S
C2160 H2179 0.913 . S
C2161 H2137 0.950 . S
C2161 C2160 1.524 . S
C2161 C2162 1.415 . S
C2162 H2138 0.950 . S
C2162 C2157 1.363 . S
C2162 C2161 1.415 . S
C2163 H2139 0.951 . S
C2163 C2164 1.366 . S
C2163 C2165 1.388 . S
C2164 C2163 1.366 . S
C2164 C2168 1.385 . S
C2165 H2140 0.951 . S
C2165 C2163 1.388 . S
C2165 C2166 1.366 . S
C2166 C2165 1.366 . S
C2166 C2167 1.414 . S
C2166 C2169 1.499 . S
C2167 H2141 0.950 . S
C2167 C2166 1.414 . S
C2167 C2168 1.374 . S
C2168 H2142 0.950 . S
C2168 C2164 1.385 . S
C2168 C2167 1.374 . S
C2169 C2166 1.499 . S
C2169 C2170 1.373 . S
C2169 C2171 1.389 . S
C2170 H2143 0.950 . S
C2170 C2156 1.377 . S
C2170 C2169 1.373 . S
C2171 C2155 1.377 . S
C2171 C2169 1.389 . S
C2171 C2172 1.524 . S
C2172 C2171 1.524 . S
C2172 C2173 1.397 . S
C2172 C2177 1.363 . S
C2173 H2144 0.950 . S
C2173 C2172 1.397 . S
C2173 C2174 1.334 . S
C2174 H2145 0.950 . S
C2174 C2173 1.334 . S
C2174 C2175 1.287 . S
C2175 C2174 1.287 . S
C2175 C2176 1.524 . S
C2175 H2178 0.999 . S
C2176 H2146 0.950 . S
C2176 C2175 1.524 . S
C2176 C2177 1.415 . S
C2177 H2147 0.950 . S
C2177 C2172 1.363 . S
C2177 C2176 1.415 . S
H2178 C2175 0.999 . S
H2179 C2160 0.913 . S
H2180 C2198 0.951 . S
H2181 C2200 0.951 . S
H2182 C2202 0.950 . S
H2183 C2203 0.950 . S
H2184 C2205 0.950 . S
H2185 C2208 0.950 . S
H2186 C2209 0.950 . S
H2187 C2211 0.950 . S
H2188 C2212 0.950 . S
H2189 C2213 0.951 . S
H2190 C2215 0.951 . S
H2191 C2217 0.950 . S
H2192 C2218 0.950 . S
H2193 C2220 0.950 . S
H2194 C2223 0.950 . S
H2195 C2224 0.950 . S
H2196 C2226 0.950 . S
H2197 C2227 0.950 . S
C2198 H2180 0.951 . S
C2198 C2199 1.366 . S
C2198 C2200 1.388 . S
C2199 C2198 1.366 . S
C2199 C2203 1.385 . S
C2200 H2181 0.951 . S
C2200 C2198 1.388 . S
C2200 C2201 1.366 . S
C2201 C2200 1.366 . S
C2201 C2202 1.414 . S
C2201 C2204 1.499 . S
C2202 H2182 0.950 . S
C2202 C2201 1.414 . S
C2202 C2203 1.374 . S
C2203 H2183 0.950 . S
C2203 C2199 1.385 . S
C2203 C2202 1.374 . S
C2204 C2201 1.499 . S
C2204 C2205 1.373 . S
C2204 C2206 1.389 . S
C2205 H2184 0.950 . S
C2205 C2204 1.373 . S
C2205 C2221 1.377 . S
C2206 C2204 1.389 . S
C2206 C2207 1.524 . S
C2206 C2220 1.377 . S
C2207 C2206 1.524 . S
C2207 C2208 1.397 . S
C2207 C2212 1.363 . S
C2208 H2185 0.950 . S
C2208 C2207 1.397 . S
C2208 C2209 1.334 . S
C2209 H2186 0.950 . S
C2209 C2208 1.334 . S
C2209 C2210 1.287 . S
C2210 C2209 1.287 . S
C2210 C2211 1.524 . S
C2210 H2229 0.913 . S
C2211 H2187 0.950 . S
C2211 C2210 1.524 . S
C2211 C2212 1.415 . S
C2212 H2188 0.950 . S
C2212 C2207 1.363 . S
C2212 C2211 1.415 . S
C2213 H2189 0.951 . S
C2213 C2214 1.366 . S
C2213 C2215 1.388 . S
C2214 C2213 1.366 . S
C2214 C2218 1.385 . S
C2215 H2190 0.951 . S
C2215 C2213 1.388 . S
C2215 C2216 1.366 . S
C2216 C2215 1.366 . S
C2216 C2217 1.414 . S
C2216 C2219 1.499 . S
C2217 H2191 0.950 . S
C2217 C2216 1.414 . S
C2217 C2218 1.374 . S
C2218 H2192 0.950 . S
C2218 C2214 1.385 . S
C2218 C2217 1.374 . S
C2219 C2216 1.499 . S
C2219 C2220 1.373 . S
C2219 C2221 1.389 . S
C2220 H2193 0.950 . S
C2220 C2206 1.377 . S
C2220 C2219 1.373 . S
C2221 C2205 1.377 . S
C2221 C2219 1.389 . S
C2221 C2222 1.524 . S
C2222 C2221 1.524 . S
C2222 C2223 1.397 . S
C2222 C2227 1.363 . S
C2223 H2194 0.950 . S
C2223 C2222 1.397 . S
C2223 C2224 1.334 . S
C2224 H2195 0.950 . S
C2224 C2223 1.334 . S
C2224 C2225 1.287 . S
C2225 C2224 1.287 . S
C2225 C2226 1.524 . S
C2225 H2228 0.999 . S
C2226 H2196 0.950 . S
C2226 C2225 1.524 . S
C2226 C2227 1.415 . S
C2227 H2197 0.950 . S
C2227 C2222 1.363 . S
C2227 C2226 1.415 . S
H2228 C2225 0.999 . S
H2229 C2210 0.913 . S
H2230 C2248 0.951 . S
H2231 C2250 0.951 . S
H2232 C2252 0.950 . S
H2233 C2253 0.950 . S
H2234 C2255 0.950 . S
H2235 C2258 0.950 . S
H2236 C2259 0.950 . S
H2237 C2261 0.950 . S
H2238 C2262 0.950 . S
H2239 C2263 0.951 . S
H2240 C2265 0.951 . S
H2241 C2267 0.950 . S
H2242 C2268 0.950 . S
H2243 C2270 0.950 . S
H2244 C2273 0.950 . S
H2245 C2274 0.950 . S
H2246 C2276 0.950 . S
H2247 C2277 0.950 . S
C2248 H2230 0.951 . S
C2248 C2249 1.366 . S
C2248 C2250 1.388 . S
C2249 C2248 1.366 . S
C2249 C2253 1.385 . S
C2250 H2231 0.951 . S
C2250 C2248 1.388 . S
C2250 C2251 1.366 . S
C2251 C2250 1.366 . S
C2251 C2252 1.414 . S
C2251 C2254 1.499 . S
C2252 H2232 0.950 . S
C2252 C2251 1.414 . S
C2252 C2253 1.374 . S
C2253 H2233 0.950 . S
C2253 C2249 1.385 . S
C2253 C2252 1.374 . S
C2254 C2251 1.499 . S
C2254 C2255 1.373 . S
C2254 C2256 1.389 . S
C2255 H2234 0.950 . S
C2255 C2254 1.373 . S
C2255 C2271 1.377 . S
C2256 C2254 1.389 . S
C2256 C2257 1.524 . S
C2256 C2270 1.377 . S
C2257 C2256 1.524 . S
C2257 C2258 1.397 . S
C2257 C2262 1.363 . S
C2258 H2235 0.950 . S
C2258 C2257 1.397 . S
C2258 C2259 1.334 . S
C2259 H2236 0.950 . S
C2259 C2258 1.334 . S
C2259 C2260 1.287 . S
C2260 C2259 1.287 . S
C2260 C2261 1.524 . S
C2260 H2279 0.913 . S
C2261 H2237 0.950 . S
C2261 C2260 1.524 . S
C2261 C2262 1.415 . S
C2262 H2238 0.950 . S
C2262 C2257 1.363 . S
C2262 C2261 1.415 . S
C2263 H2239 0.951 . S
C2263 C2264 1.366 . S
C2263 C2265 1.388 . S
C2264 C2263 1.366 . S
C2264 C2268 1.385 . S
C2265 H2240 0.951 . S
C2265 C2263 1.388 . S
C2265 C2266 1.366 . S
C2266 C2265 1.366 . S
C2266 C2267 1.414 . S
C2266 C2269 1.499 . S
C2267 H2241 0.950 . S
C2267 C2266 1.414 . S
C2267 C2268 1.374 . S
C2268 H2242 0.950 . S
C2268 C2264 1.385 . S
C2268 C2267 1.374 . S
C2269 C2266 1.499 . S
C2269 C2270 1.373 . S
C2269 C2271 1.389 . S
C2270 H2243 0.950 . S
C2270 C2256 1.377 . S
C2270 C2269 1.373 . S
C2271 C2255 1.377 . S
C2271 C2269 1.389 . S
C2271 C2272 1.524 . S
C2272 C2271 1.524 . S
C2272 C2273 1.397 . S
C2272 C2277 1.363 . S
C2273 H2244 0.950 . S
C2273 C2272 1.397 . S
C2273 C2274 1.334 . S
C2274 H2245 0.950 . S
C2274 C2273 1.334 . S
C2274 C2275 1.287 . S
C2275 C2274 1.287 . S
C2275 C2276 1.524 . S
C2275 H2278 0.999 . S
C2276 H2246 0.950 . S
C2276 C2275 1.524 . S
C2276 C2277 1.415 . S
C2277 H2247 0.950 . S
C2277 C2272 1.363 . S
C2277 C2276 1.415 . S
H2278 C2275 0.999 . S
H2279 C2260 0.913 . S
H2280 C2298 0.951 . S
H2281 C2300 0.951 . S
H2282 C2302 0.950 . S
H2283 C2303 0.950 . S
H2284 C2305 0.950 . S
H2285 C2308 0.950 . S
H2286 C2309 0.950 . S
H2287 C2311 0.950 . S
H2288 C2312 0.950 . S
H2289 C2313 0.951 . S
H2290 C2315 0.951 . S
H2291 C2317 0.950 . S
H2292 C2318 0.950 . S
H2293 C2320 0.950 . S
H2294 C2323 0.950 . S
H2295 C2324 0.950 . S
H2296 C2326 0.950 . S
H2297 C2327 0.950 . S
C2298 H2280 0.951 . S
C2298 C2299 1.366 . S
C2298 C2300 1.388 . S
C2299 C2298 1.366 . S
C2299 C2303 1.385 . S
C2300 H2281 0.951 . S
C2300 C2298 1.388 . S
C2300 C2301 1.366 . S
C2301 C2300 1.366 . S
C2301 C2302 1.414 . S
C2301 C2304 1.499 . S
C2302 H2282 0.950 . S
C2302 C2301 1.414 . S
C2302 C2303 1.374 . S
C2303 H2283 0.950 . S
C2303 C2299 1.385 . S
C2303 C2302 1.374 . S
C2304 C2301 1.499 . S
C2304 C2305 1.373 . S
C2304 C2306 1.389 . S
C2305 H2284 0.950 . S
C2305 C2304 1.373 . S
C2305 C2321 1.377 . S
C2306 C2304 1.389 . S
C2306 C2307 1.524 . S
C2306 C2320 1.377 . S
C2307 C2306 1.524 . S
C2307 C2308 1.397 . S
C2307 C2312 1.363 . S
C2308 H2285 0.950 . S
C2308 C2307 1.397 . S
C2308 C2309 1.334 . S
C2309 H2286 0.950 . S
C2309 C2308 1.334 . S
C2309 C2310 1.287 . S
C2310 C2309 1.287 . S
C2310 C2311 1.524 . S
C2310 H2329 0.913 . S
C2311 H2287 0.950 . S
C2311 C2310 1.524 . S
C2311 C2312 1.415 . S
C2312 H2288 0.950 . S
C2312 C2307 1.363 . S
C2312 C2311 1.415 . S
C2313 H2289 0.951 . S
C2313 C2314 1.366 . S
C2313 C2315 1.388 . S
C2314 C2313 1.366 . S
C2314 C2318 1.385 . S
C2315 H2290 0.951 . S
C2315 C2313 1.388 . S
C2315 C2316 1.366 . S
C2316 C2315 1.366 . S
C2316 C2317 1.414 . S
C2316 C2319 1.499 . S
C2317 H2291 0.950 . S
C2317 C2316 1.414 . S
C2317 C2318 1.374 . S
C2318 H2292 0.950 . S
C2318 C2314 1.385 . S
C2318 C2317 1.374 . S
C2319 C2316 1.499 . S
C2319 C2320 1.373 . S
C2319 C2321 1.389 . S
C2320 H2293 0.950 . S
C2320 C2306 1.377 . S
C2320 C2319 1.373 . S
C2321 C2305 1.377 . S
C2321 C2319 1.389 . S
C2321 C2322 1.524 . S
C2322 C2321 1.524 . S
C2322 C2323 1.397 . S
C2322 C2327 1.363 . S
C2323 H2294 0.950 . S
C2323 C2322 1.397 . S
C2323 C2324 1.334 . S
C2324 H2295 0.950 . S
C2324 C2323 1.334 . S
C2324 C2325 1.287 . S
C2325 C2324 1.287 . S
C2325 C2326 1.524 . S
C2325 H2328 0.999 . S
C2326 H2296 0.950 . S
C2326 C2325 1.524 . S
C2326 C2327 1.415 . S
C2327 H2297 0.950 . S
C2327 C2322 1.363 . S
C2327 C2326 1.415 . S
H2328 C2325 0.999 . S
H2329 C2310 0.913 . S
H2330 C2348 0.951 . S
H2331 C2350 0.951 . S
H2332 C2352 0.950 . S
H2333 C2353 0.950 . S
H2334 C2355 0.950 . S
H2335 C2358 0.950 . S
H2336 C2359 0.950 . S
H2337 C2361 0.950 . S
H2338 C2362 0.950 . S
H2339 C2363 0.951 . S
H2340 C2365 0.951 . S
H2341 C2367 0.950 . S
H2342 C2368 0.950 . S
H2343 C2370 0.950 . S
H2344 C2373 0.950 . S
H2345 C2374 0.950 . S
H2346 C2376 0.950 . S
H2347 C2377 0.950 . S
C2348 H2330 0.951 . S
C2348 C2349 1.366 . S
C2348 C2350 1.388 . S
C2349 C2348 1.366 . S
C2349 C2353 1.385 . S
C2350 H2331 0.951 . S
C2350 C2348 1.388 . S
C2350 C2351 1.366 . S
C2351 C2350 1.366 . S
C2351 C2352 1.414 . S
C2351 C2354 1.499 . S
C2352 H2332 0.950 . S
C2352 C2351 1.414 . S
C2352 C2353 1.374 . S
C2353 H2333 0.950 . S
C2353 C2349 1.385 . S
C2353 C2352 1.374 . S
C2354 C2351 1.499 . S
C2354 C2355 1.373 . S
C2354 C2356 1.389 . S
C2355 H2334 0.950 . S
C2355 C2354 1.373 . S
C2355 C2371 1.377 . S
C2356 C2354 1.389 . S
C2356 C2357 1.524 . S
C2356 C2370 1.377 . S
C2357 C2356 1.524 . S
C2357 C2358 1.397 . S
C2357 C2362 1.363 . S
C2358 H2335 0.950 . S
C2358 C2357 1.397 . S
C2358 C2359 1.334 . S
C2359 H2336 0.950 . S
C2359 C2358 1.334 . S
C2359 C2360 1.287 . S
C2360 C2359 1.287 . S
C2360 C2361 1.524 . S
C2360 H2379 0.913 . S
C2361 H2337 0.950 . S
C2361 C2360 1.524 . S
C2361 C2362 1.415 . S
C2362 H2338 0.950 . S
C2362 C2357 1.363 . S
C2362 C2361 1.415 . S
C2363 H2339 0.951 . S
C2363 C2364 1.366 . S
C2363 C2365 1.388 . S
C2364 C2363 1.366 . S
C2364 C2368 1.385 . S
C2365 H2340 0.951 . S
C2365 C2363 1.388 . S
C2365 C2366 1.366 . S
C2366 C2365 1.366 . S
C2366 C2367 1.414 . S
C2366 C2369 1.499 . S
C2367 H2341 0.950 . S
C2367 C2366 1.414 . S
C2367 C2368 1.374 . S
C2368 H2342 0.950 . S
C2368 C2364 1.385 . S
C2368 C2367 1.374 . S
C2369 C2366 1.499 . S
C2369 C2370 1.373 . S
C2369 C2371 1.389 . S
C2370 H2343 0.950 . S
C2370 C2356 1.377 . S
C2370 C2369 1.373 . S
C2371 C2355 1.377 . S
C2371 C2369 1.389 . S
C2371 C2372 1.524 . S
C2372 C2371 1.524 . S
C2372 C2373 1.397 . S
C2372 C2377 1.363 . S
C2373 H2344 0.950 . S
C2373 C2372 1.397 . S
C2373 C2374 1.334 . S
C2374 H2345 0.950 . S
C2374 C2373 1.334 . S
C2374 C2375 1.287 . S
C2375 C2374 1.287 . S
C2375 C2376 1.524 . S
C2375 H2378 0.999 . S
C2376 H2346 0.950 . S
C2376 C2375 1.524 . S
C2376 C2377 1.415 . S
C2377 H2347 0.950 . S
C2377 C2372 1.363 . S
C2377 C2376 1.415 . S
H2378 C2375 0.999 . S
H2379 C2360 0.913 . S
H2380 C2398 0.951 . S
H2381 C2400 0.951 . S
H2382 C2402 0.950 . S
H2383 C2403 0.950 . S
H2384 C2405 0.950 . S
H2385 C2408 0.950 . S
H2386 C2409 0.950 . S
H2387 C2411 0.950 . S
H2388 C2412 0.950 . S
H2389 C2413 0.951 . S
H2390 C2415 0.951 . S
H2391 C2417 0.950 . S
H2392 C2418 0.950 . S
H2393 C2420 0.950 . S
H2394 C2423 0.950 . S
H2395 C2424 0.950 . S
H2396 C2426 0.950 . S
H2397 C2427 0.950 . S
C2398 H2380 0.951 . S
C2398 C2399 1.366 . S
C2398 C2400 1.388 . S
C2399 C2398 1.366 . S
C2399 C2403 1.385 . S
C2400 H2381 0.951 . S
C2400 C2398 1.388 . S
C2400 C2401 1.366 . S
C2401 C2400 1.366 . S
C2401 C2402 1.414 . S
C2401 C2404 1.499 . S
C2402 H2382 0.950 . S
C2402 C2401 1.414 . S
C2402 C2403 1.374 . S
C2403 H2383 0.950 . S
C2403 C2399 1.385 . S
C2403 C2402 1.374 . S
C2404 C2401 1.499 . S
C2404 C2405 1.373 . S
C2404 C2406 1.389 . S
C2405 H2384 0.950 . S
C2405 C2404 1.373 . S
C2405 C2421 1.377 . S
C2406 C2404 1.389 . S
C2406 C2407 1.524 . S
C2406 C2420 1.377 . S
C2407 C2406 1.524 . S
C2407 C2408 1.397 . S
C2407 C2412 1.363 . S
C2408 H2385 0.950 . S
C2408 C2407 1.397 . S
C2408 C2409 1.334 . S
C2409 H2386 0.950 . S
C2409 C2408 1.334 . S
C2409 C2410 1.287 . S
C2410 C2409 1.287 . S
C2410 C2411 1.524 . S
C2410 H2429 0.913 . S
C2411 H2387 0.950 . S
C2411 C2410 1.524 . S
C2411 C2412 1.415 . S
C2412 H2388 0.950 . S
C2412 C2407 1.363 . S
C2412 C2411 1.415 . S
C2413 H2389 0.951 . S
C2413 C2414 1.366 . S
C2413 C2415 1.388 . S
C2414 C2413 1.366 . S
C2414 C2418 1.385 . S
C2415 H2390 0.951 . S
C2415 C2413 1.388 . S
C2415 C2416 1.366 . S
C2416 C2415 1.366 . S
C2416 C2417 1.414 . S
C2416 C2419 1.499 . S
C2417 H2391 0.950 . S
C2417 C2416 1.414 . S
C2417 C2418 1.374 . S
C2418 H2392 0.950 . S
C2418 C2414 1.385 . S
C2418 C2417 1.374 . S
C2419 C2416 1.499 . S
C2419 C2420 1.373 . S
C2419 C2421 1.389 . S
C2420 H2393 0.950 . S
C2420 C2406 1.377 . S
C2420 C2419 1.373 . S
C2421 C2405 1.377 . S
C2421 C2419 1.389 . S
C2421 C2422 1.524 . S
C2422 C2421 1.524 . S
C2422 C2423 1.397 . S
C2422 C2427 1.363 . S
C2423 H2394 0.950 . S
C2423 C2422 1.397 . S
C2423 C2424 1.334 . S
C2424 H2395 0.950 . S
C2424 C2423 1.334 . S
C2424 C2425 1.287 . S
C2425 C2424 1.287 . S
C2425 C2426 1.524 . S
C2425 H2428 0.999 . S
C2426 H2396 0.950 . S
C2426 C2425 1.524 . S
C2426 C2427 1.415 . S
C2427 H2397 0.950 . S
C2427 C2422 1.363 . S
C2427 C2426 1.415 . S
H2428 C2425 0.999 . S
H2429 C2410 0.913 . S
H2430 C2448 0.951 . S
H2431 C2450 0.951 . S
H2432 C2452 0.950 . S
H2433 C2453 0.950 . S
H2434 C2455 0.950 . S
H2435 C2458 0.950 . S
H2436 C2459 0.950 . S
H2437 C2461 0.950 . S
H2438 C2462 0.950 . S
H2439 C2463 0.951 . S
H2440 C2465 0.951 . S
H2441 C2467 0.950 . S
H2442 C2468 0.950 . S
H2443 C2470 0.950 . S
H2444 C2473 0.950 . S
H2445 C2474 0.950 . S
H2446 C2476 0.950 . S
H2447 C2477 0.950 . S
C2448 H2430 0.951 . S
C2448 C2449 1.366 . S
C2448 C2450 1.388 . S
C2449 C2448 1.366 . S
C2449 C2453 1.385 . S
C2450 H2431 0.951 . S
C2450 C2448 1.388 . S
C2450 C2451 1.366 . S
C2451 C2450 1.366 . S
C2451 C2452 1.414 . S
C2451 C2454 1.499 . S
C2452 H2432 0.950 . S
C2452 C2451 1.414 . S
C2452 C2453 1.374 . S
C2453 H2433 0.950 . S
C2453 C2449 1.385 . S
C2453 C2452 1.374 . S
C2454 C2451 1.499 . S
C2454 C2455 1.373 . S
C2454 C2456 1.389 . S
C2455 H2434 0.950 . S
C2455 C2454 1.373 . S
C2455 C2471 1.377 . S
C2456 C2454 1.389 . S
C2456 C2457 1.524 . S
C2456 C2470 1.377 . S
C2457 C2456 1.524 . S
C2457 C2458 1.397 . S
C2457 C2462 1.363 . S
C2458 H2435 0.950 . S
C2458 C2457 1.397 . S
C2458 C2459 1.334 . S
C2459 H2436 0.950 . S
C2459 C2458 1.334 . S
C2459 C2460 1.287 . S
C2460 C2459 1.287 . S
C2460 C2461 1.524 . S
C2460 H2479 0.913 . S
C2461 H2437 0.950 . S
C2461 C2460 1.524 . S
C2461 C2462 1.415 . S
C2462 H2438 0.950 . S
C2462 C2457 1.363 . S
C2462 C2461 1.415 . S
C2463 H2439 0.951 . S
C2463 C2464 1.366 . S
C2463 C2465 1.388 . S
C2464 C2463 1.366 . S
C2464 C2468 1.385 . S
C2465 H2440 0.951 . S
C2465 C2463 1.388 . S
C2465 C2466 1.366 . S
C2466 C2465 1.366 . S
C2466 C2467 1.414 . S
C2466 C2469 1.499 . S
C2467 H2441 0.950 . S
C2467 C2466 1.414 . S
C2467 C2468 1.374 . S
C2468 H2442 0.950 . S
C2468 C2464 1.385 . S
C2468 C2467 1.374 . S
C2469 C2466 1.499 . S
C2469 C2470 1.373 . S
C2469 C2471 1.389 . S
C2470 H2443 0.950 . S
C2470 C2456 1.377 . S
C2470 C2469 1.373 . S
C2471 C2455 1.377 . S
C2471 C2469 1.389 . S
C2471 C2472 1.524 . S
C2472 C2471 1.524 . S
C2472 C2473 1.397 . S
C2472 C2477 1.363 . S
C2473 H2444 0.950 . S
C2473 C2472 1.397 . S
C2473 C2474 1.334 . S
C2474 H2445 0.950 . S
C2474 C2473 1.334 . S
C2474 C2475 1.287 . S
C2475 C2474 1.287 . S
C2475 C2476 1.524 . S
C2475 H2478 0.999 . S
C2476 H2446 0.950 . S
C2476 C2475 1.524 . S
C2476 C2477 1.415 . S
C2477 H2447 0.950 . S
C2477 C2472 1.363 . S
C2477 C2476 1.415 . S
H2478 C2475 0.999 . S
H2479 C2460 0.913 . S
H2480 C2498 0.951 . S
H2481 C2500 0.951 . S
H2482 C2502 0.950 . S
H2483 C2503 0.950 . S
H2484 C2505 0.950 . S
H2485 C2508 0.950 . S
H2486 C2509 0.950 . S
H2487 C2511 0.950 . S
H2488 C2512 0.950 . S
H2489 C2513 0.951 . S
H2490 C2515 0.951 . S
H2491 C2517 0.950 . S
H2492 C2518 0.950 . S
H2493 C2520 0.950 . S
H2494 C2523 0.950 . S
H2495 C2524 0.950 . S
H2496 C2526 0.950 . S
H2497 C2527 0.950 . S
C2498 H2480 0.951 . S
C2498 C2499 1.366 . S
C2498 C2500 1.388 . S
C2499 C2498 1.366 . S
C2499 C2503 1.385 . S
C2500 H2481 0.951 . S
C2500 C2498 1.388 . S
C2500 C2501 1.366 . S
C2501 C2500 1.366 . S
C2501 C2502 1.414 . S
C2501 C2504 1.499 . S
C2502 H2482 0.950 . S
C2502 C2501 1.414 . S
C2502 C2503 1.374 . S
C2503 H2483 0.950 . S
C2503 C2499 1.385 . S
C2503 C2502 1.374 . S
C2504 C2501 1.499 . S
C2504 C2505 1.373 . S
C2504 C2506 1.389 . S
C2505 H2484 0.950 . S
C2505 C2504 1.373 . S
C2505 C2521 1.377 . S
C2506 C2504 1.389 . S
C2506 C2507 1.524 . S
C2506 C2520 1.377 . S
C2507 C2506 1.524 . S
C2507 C2508 1.397 . S
C2507 C2512 1.363 . S
C2508 H2485 0.950 . S
C2508 C2507 1.397 . S
C2508 C2509 1.334 . S
C2509 H2486 0.950 . S
C2509 C2508 1.334 . S
C2509 C2510 1.287 . S
C2510 C2509 1.287 . S
C2510 C2511 1.524 . S
C2510 H2529 0.913 . S
C2511 H2487 0.950 . S
C2511 C2510 1.524 . S
C2511 C2512 1.415 . S
C2512 H2488 0.950 . S
C2512 C2507 1.363 . S
C2512 C2511 1.415 . S
C2513 H2489 0.951 . S
C2513 C2514 1.366 . S
C2513 C2515 1.388 . S
C2514 C2513 1.366 . S
C2514 C2518 1.385 . S
C2515 H2490 0.951 . S
C2515 C2513 1.388 . S
C2515 C2516 1.366 . S
C2516 C2515 1.366 . S
C2516 C2517 1.414 . S
C2516 C2519 1.499 . S
C2517 H2491 0.950 . S
C2517 C2516 1.414 . S
C2517 C2518 1.374 . S
C2518 H2492 0.950 . S
C2518 C2514 1.385 . S
C2518 C2517 1.374 . S
C2519 C2516 1.499 . S
C2519 C2520 1.373 . S
C2519 C2521 1.389 . S
C2520 H2493 0.950 . S
C2520 C2506 1.377 . S
C2520 C2519 1.373 . S
C2521 C2505 1.377 . S
C2521 C2519 1.389 . S
C2521 C2522 1.524 . S
C2522 C2521 1.524 . S
C2522 C2523 1.397 . S
C2522 C2527 1.363 . S
C2523 H2494 0.950 . S
C2523 C2522 1.397 . S
C2523 C2524 1.334 . S
C2524 H2495 0.950 . S
C2524 C2523 1.334 . S
C2524 C2525 1.287 . S
C2525 C2524 1.287 . S
C2525 C2526 1.524 . S
C2525 H2528 0.999 . S
C2526 H2496 0.950 . S
C2526 C2525 1.524 . S
C2526 C2527 1.415 . S
C2527 H2497 0.950 . S
C2527 C2522 1.363 . S
C2527 C2526 1.415 . S
H2528 C2525 0.999 . S
H2529 C2510 0.913 . S
H2530 C2548 0.951 . S
H2531 C2550 0.951 . S
H2532 C2552 0.950 . S
H2533 C2553 0.950 . S
H2534 C2555 0.950 . S
H2535 C2558 0.950 . S
H2536 C2559 0.950 . S
H2537 C2561 0.950 . S
H2538 C2562 0.950 . S
H2539 C2563 0.951 . S
H2540 C2565 0.951 . S
H2541 C2567 0.950 . S
H2542 C2568 0.950 . S
H2543 C2570 0.950 . S
H2544 C2573 0.950 . S
H2545 C2574 0.950 . S
H2546 C2576 0.950 . S
H2547 C2577 0.950 . S
C2548 H2530 0.951 . S
C2548 C2549 1.366 . S
C2548 C2550 1.388 . S
C2549 C2548 1.366 . S
C2549 C2553 1.385 . S
C2550 H2531 0.951 . S
C2550 C2548 1.388 . S
C2550 C2551 1.366 . S
C2551 C2550 1.366 . S
C2551 C2552 1.414 . S
C2551 C2554 1.499 . S
C2552 H2532 0.950 . S
C2552 C2551 1.414 . S
C2552 C2553 1.374 . S
C2553 H2533 0.950 . S
C2553 C2549 1.385 . S
C2553 C2552 1.374 . S
C2554 C2551 1.499 . S
C2554 C2555 1.373 . S
C2554 C2556 1.389 . S
C2555 H2534 0.950 . S
C2555 C2554 1.373 . S
C2555 C2571 1.377 . S
C2556 C2554 1.389 . S
C2556 C2557 1.524 . S
C2556 C2570 1.377 . S
C2557 C2556 1.524 . S
C2557 C2558 1.397 . S
C2557 C2562 1.363 . S
C2558 H2535 0.950 . S
C2558 C2557 1.397 . S
C2558 C2559 1.334 . S
C2559 H2536 0.950 . S
C2559 C2558 1.334 . S
C2559 C2560 1.287 . S
C2560 C2559 1.287 . S
C2560 C2561 1.524 . S
C2560 H2579 0.913 . S
C2561 H2537 0.950 . S
C2561 C2560 1.524 . S
C2561 C2562 1.415 . S
C2562 H2538 0.950 . S
C2562 C2557 1.363 . S
C2562 C2561 1.415 . S
C2563 H2539 0.951 . S
C2563 C2564 1.366 . S
C2563 C2565 1.388 . S
C2564 C2563 1.366 . S
C2564 C2568 1.385 . S
C2565 H2540 0.951 . S
C2565 C2563 1.388 . S
C2565 C2566 1.366 . S
C2566 C2565 1.366 . S
C2566 C2567 1.414 . S
C2566 C2569 1.499 . S
C2567 H2541 0.950 . S
C2567 C2566 1.414 . S
C2567 C2568 1.374 . S
C2568 H2542 0.950 . S
C2568 C2564 1.385 . S
C2568 C2567 1.374 . S
C2569 C2566 1.499 . S
C2569 C2570 1.373 . S
C2569 C2571 1.389 . S
C2570 H2543 0.950 . S
C2570 C2556 1.377 . S
C2570 C2569 1.373 . S
C2571 C2555 1.377 . S
C2571 C2569 1.389 . S
C2571 C2572 1.524 . S
C2572 C2571 1.524 . S
C2572 C2573 1.397 . S
C2572 C2577 1.363 . S
C2573 H2544 0.950 . S
C2573 C2572 1.397 . S
C2573 C2574 1.334 . S
C2574 H2545 0.950 . S
C2574 C2573 1.334 . S
C2574 C2575 1.287 . S
C2575 C2574 1.287 . S
C2575 C2576 1.524 . S
C2575 H2578 0.999 . S
C2576 H2546 0.950 . S
C2576 C2575 1.524 . S
C2576 C2577 1.415 . S
C2577 H2547 0.950 . S
C2577 C2572 1.363 . S
C2577 C2576 1.415 . S
H2578 C2575 0.999 . S
H2579 C2560 0.913 . S
H2580 C2598 0.951 . S
H2581 C2600 0.951 . S
H2582 C2602 0.950 . S
H2583 C2603 0.950 . S
H2584 C2605 0.950 . S
H2585 C2608 0.950 . S
H2586 C2609 0.950 . S
H2587 C2611 0.950 . S
H2588 C2612 0.950 . S
H2589 C2613 0.951 . S
H2590 C2615 0.951 . S
H2591 C2617 0.950 . S
H2592 C2618 0.950 . S
H2593 C2620 0.950 . S
H2594 C2623 0.950 . S
H2595 C2624 0.950 . S
H2596 C2626 0.950 . S
H2597 C2627 0.950 . S
C2598 H2580 0.951 . S
C2598 C2599 1.366 . S
C2598 C2600 1.388 . S
C2599 C2598 1.366 . S
C2599 C2603 1.385 . S
C2600 H2581 0.951 . S
C2600 C2598 1.388 . S
C2600 C2601 1.366 . S
C2601 C2600 1.366 . S
C2601 C2602 1.414 . S
C2601 C2604 1.499 . S
C2602 H2582 0.950 . S
C2602 C2601 1.414 . S
C2602 C2603 1.374 . S
C2603 H2583 0.950 . S
C2603 C2599 1.385 . S
C2603 C2602 1.374 . S
C2604 C2601 1.499 . S
C2604 C2605 1.373 . S
C2604 C2606 1.389 . S
C2605 H2584 0.950 . S
C2605 C2604 1.373 . S
C2605 C2621 1.377 . S
C2606 C2604 1.389 . S
C2606 C2607 1.524 . S
C2606 C2620 1.377 . S
C2607 C2606 1.524 . S
C2607 C2608 1.397 . S
C2607 C2612 1.363 . S
C2608 H2585 0.950 . S
C2608 C2607 1.397 . S
C2608 C2609 1.334 . S
C2609 H2586 0.950 . S
C2609 C2608 1.334 . S
C2609 C2610 1.287 . S
C2610 C2609 1.287 . S
C2610 C2611 1.524 . S
C2610 H2629 0.913 . S
C2611 H2587 0.950 . S
C2611 C2610 1.524 . S
C2611 C2612 1.415 . S
C2612 H2588 0.950 . S
C2612 C2607 1.363 . S
C2612 C2611 1.415 . S
C2613 H2589 0.951 . S
C2613 C2614 1.366 . S
C2613 C2615 1.388 . S
C2614 C2613 1.366 . S
C2614 C2618 1.385 . S
C2615 H2590 0.951 . S
C2615 C2613 1.388 . S
C2615 C2616 1.366 . S
C2616 C2615 1.366 . S
C2616 C2617 1.414 . S
C2616 C2619 1.499 . S
C2617 H2591 0.950 . S
C2617 C2616 1.414 . S
C2617 C2618 1.374 . S
C2618 H2592 0.950 . S
C2618 C2614 1.385 . S
C2618 C2617 1.374 . S
C2619 C2616 1.499 . S
C2619 C2620 1.373 . S
C2619 C2621 1.389 . S
C2620 H2593 0.950 . S
C2620 C2606 1.377 . S
C2620 C2619 1.373 . S
C2621 C2605 1.377 . S
C2621 C2619 1.389 . S
C2621 C2622 1.524 . S
C2622 C2621 1.524 . S
C2622 C2623 1.397 . S
C2622 C2627 1.363 . S
C2623 H2594 0.950 . S
C2623 C2622 1.397 . S
C2623 C2624 1.334 . S
C2624 H2595 0.950 . S
C2624 C2623 1.334 . S
C2624 C2625 1.287 . S
C2625 C2624 1.287 . S
C2625 C2626 1.524 . S
C2625 H2628 0.999 . S
C2626 H2596 0.950 . S
C2626 C2625 1.524 . S
C2626 C2627 1.415 . S
C2627 H2597 0.950 . S
C2627 C2622 1.363 . S
C2627 C2626 1.415 . S
H2628 C2625 0.999 . S
H2629 C2610 0.913 . S
H2630 C2648 0.951 . S
H2631 C2650 0.951 . S
H2632 C2652 0.950 . S
H2633 C2653 0.950 . S
H2634 C2655 0.950 . S
H2635 C2658 0.950 . S
H2636 C2659 0.950 . S
H2637 C2661 0.950 . S
H2638 C2662 0.950 . S
H2639 C2663 0.951 . S
H2640 C2665 0.951 . S
H2641 C2667 0.950 . S
H2642 C2668 0.950 . S
H2643 C2670 0.950 . S
H2644 C2673 0.950 . S
H2645 C2674 0.950 . S
H2646 C2676 0.950 . S
H2647 C2677 0.950 . S
C2648 H2630 0.951 . S
C2648 C2649 1.366 . S
C2648 C2650 1.388 . S
C2649 C2648 1.366 . S
C2649 C2653 1.385 . S
C2650 H2631 0.951 . S
C2650 C2648 1.388 . S
C2650 C2651 1.366 . S
C2651 C2650 1.366 . S
C2651 C2652 1.414 . S
C2651 C2654 1.499 . S
C2652 H2632 0.950 . S
C2652 C2651 1.414 . S
C2652 C2653 1.374 . S
C2653 H2633 0.950 . S
C2653 C2649 1.385 . S
C2653 C2652 1.374 . S
C2654 C2651 1.499 . S
C2654 C2655 1.373 . S
C2654 C2656 1.389 . S
C2655 H2634 0.950 . S
C2655 C2654 1.373 . S
C2655 C2671 1.377 . S
C2656 C2654 1.389 . S
C2656 C2657 1.524 . S
C2656 C2670 1.377 . S
C2657 C2656 1.524 . S
C2657 C2658 1.397 . S
C2657 C2662 1.363 . S
C2658 H2635 0.950 . S
C2658 C2657 1.397 . S
C2658 C2659 1.334 . S
C2659 H2636 0.950 . S
C2659 C2658 1.334 . S
C2659 C2660 1.287 . S
C2660 C2659 1.287 . S
C2660 C2661 1.524 . S
C2660 H2679 0.913 . S
C2661 H2637 0.950 . S
C2661 C2660 1.524 . S
C2661 C2662 1.415 . S
C2662 H2638 0.950 . S
C2662 C2657 1.363 . S
C2662 C2661 1.415 . S
C2663 H2639 0.951 . S
C2663 C2664 1.366 . S
C2663 C2665 1.388 . S
C2664 C2663 1.366 . S
C2664 C2668 1.385 . S
C2665 H2640 0.951 . S
C2665 C2663 1.388 . S
C2665 C2666 1.366 . S
C2666 C2665 1.366 . S
C2666 C2667 1.414 . S
C2666 C2669 1.499 . S
C2667 H2641 0.950 . S
C2667 C2666 1.414 . S
C2667 C2668 1.374 . S
C2668 H2642 0.950 . S
C2668 C2664 1.385 . S
C2668 C2667 1.374 . S
C2669 C2666 1.499 . S
C2669 C2670 1.373 . S
C2669 C2671 1.389 . S
C2670 H2643 0.950 . S
C2670 C2656 1.377 . S
C2670 C2669 1.373 . S
C2671 C2655 1.377 . S
C2671 C2669 1.389 . S
C2671 C2672 1.524 . S
C2672 C2671 1.524 . S
C2672 C2673 1.397 . S
C2672 C2677 1.363 . S
C2673 H2644 0.950 . S
C2673 C2672 1.397 . S
C2673 C2674 1.334 . S
C2674 H2645 0.950 . S
C2674 C2673 1.334 . S
C2674 C2675 1.287 . S
C2675 C2674 1.287 . S
C2675 C2676 1.524 . S
C2675 H2678 0.999 . S
C2676 H2646 0.950 . S
C2676 C2675 1.524 . S
C2676 C2677 1.415 . S
C2677 H2647 0.950 . S
C2677 C2672 1.363 . S
C2677 C2676 1.415 . S
H2678 C2675 0.999 . S
H2679 C2660 0.913 . S
H2680 C2698 0.951 . S
H2681 C2700 0.951 . S
H2682 C2702 0.950 . S
H2683 C2703 0.950 . S
H2684 C2705 0.950 . S
H2685 C2708 0.950 . S
H2686 C2709 0.950 . S
H2687 C2711 0.950 . S
H2688 C2712 0.950 . S
H2689 C2713 0.951 . S
H2690 C2715 0.951 . S
H2691 C2717 0.950 . S
H2692 C2718 0.950 . S
H2693 C2720 0.950 . S
H2694 C2723 0.950 . S
H2695 C2724 0.950 . S
H2696 C2726 0.950 . S
H2697 C2727 0.950 . S
C2698 H2680 0.951 . S
C2698 C2699 1.366 . S
C2698 C2700 1.388 . S
C2699 C2698 1.366 . S
C2699 C2703 1.385 . S
C2700 H2681 0.951 . S
C2700 C2698 1.388 . S
C2700 C2701 1.366 . S
C2701 C2700 1.366 . S
C2701 C2702 1.414 . S
C2701 C2704 1.499 . S
C2702 H2682 0.950 . S
C2702 C2701 1.414 . S
C2702 C2703 1.374 . S
C2703 H2683 0.950 . S
C2703 C2699 1.385 . S
C2703 C2702 1.374 . S
C2704 C2701 1.499 . S
C2704 C2705 1.373 . S
C2704 C2706 1.389 . S
C2705 H2684 0.950 . S
C2705 C2704 1.373 . S
C2705 C2721 1.377 . S
C2706 C2704 1.389 . S
C2706 C2707 1.524 . S
C2706 C2720 1.377 . S
C2707 C2706 1.524 . S
C2707 C2708 1.397 . S
C2707 C2712 1.363 . S
C2708 H2685 0.950 . S
C2708 C2707 1.397 . S
C2708 C2709 1.334 . S
C2709 H2686 0.950 . S
C2709 C2708 1.334 . S
C2709 C2710 1.287 . S
C2710 C2709 1.287 . S
C2710 C2711 1.524 . S
C2710 H2729 0.913 . S
C2711 H2687 0.950 . S
C2711 C2710 1.524 . S
C2711 C2712 1.415 . S
C2712 H2688 0.950 . S
C2712 C2707 1.363 . S
C2712 C2711 1.415 . S
C2713 H2689 0.951 . S
C2713 C2714 1.366 . S
C2713 C2715 1.388 . S
C2714 C2713 1.366 . S
C2714 C2718 1.385 . S
C2715 H2690 0.951 . S
C2715 C2713 1.388 . S
C2715 C2716 1.366 . S
C2716 C2715 1.366 . S
C2716 C2717 1.414 . S
C2716 C2719 1.499 . S
C2717 H2691 0.950 . S
C2717 C2716 1.414 . S
C2717 C2718 1.374 . S
C2718 H2692 0.950 . S
C2718 C2714 1.385 . S
C2718 C2717 1.374 . S
C2719 C2716 1.499 . S
C2719 C2720 1.373 . S
C2719 C2721 1.389 . S
C2720 H2693 0.950 . S
C2720 C2706 1.377 . S
C2720 C2719 1.373 . S
C2721 C2705 1.377 . S
C2721 C2719 1.389 . S
C2721 C2722 1.524 . S
C2722 C2721 1.524 . S
C2722 C2723 1.397 . S
C2722 C2727 1.363 . S
C2723 H2694 0.950 . S
C2723 C2722 1.397 . S
C2723 C2724 1.334 . S
C2724 H2695 0.950 . S
C2724 C2723 1.334 . S
C2724 C2725 1.287 . S
C2725 C2724 1.287 . S
C2725 C2726 1.524 . S
C2725 H2728 0.999 . S
C2726 H2696 0.950 . S
C2726 C2725 1.524 . S
C2726 C2727 1.415 . S
C2727 H2697 0.950 . S
C2727 C2722 1.363 . S
C2727 C2726 1.415 . S
H2728 C2725 0.999 . S
H2729 C2710 0.913 . S
H2730 C2748 0.951 . S
H2731 C2750 0.951 . S
H2732 C2752 0.950 . S
H2733 C2753 0.950 . S
H2734 C2755 0.950 . S
H2735 C2758 0.950 . S
H2736 C2759 0.950 . S
H2737 C2761 0.950 . S
H2738 C2762 0.950 . S
H2739 C2763 0.951 . S
H2740 C2765 0.951 . S
H2741 C2767 0.950 . S
H2742 C2768 0.950 . S
H2743 C2770 0.950 . S
H2744 C2773 0.950 . S
H2745 C2774 0.950 . S
H2746 C2776 0.950 . S
H2747 C2777 0.950 . S
C2748 H2730 0.951 . S
C2748 C2749 1.366 . S
C2748 C2750 1.388 . S
C2749 C2748 1.366 . S
C2749 C2753 1.385 . S
C2750 H2731 0.951 . S
C2750 C2748 1.388 . S
C2750 C2751 1.366 . S
C2751 C2750 1.366 . S
C2751 C2752 1.414 . S
C2751 C2754 1.499 . S
C2752 H2732 0.950 . S
C2752 C2751 1.414 . S
C2752 C2753 1.374 . S
C2753 H2733 0.950 . S
C2753 C2749 1.385 . S
C2753 C2752 1.374 . S
C2754 C2751 1.499 . S
C2754 C2755 1.373 . S
C2754 C2756 1.389 . S
C2755 H2734 0.950 . S
C2755 C2754 1.373 . S
C2755 C2771 1.377 . S
C2756 C2754 1.389 . S
C2756 C2757 1.524 . S
C2756 C2770 1.377 . S
C2757 C2756 1.524 . S
C2757 C2758 1.397 . S
C2757 C2762 1.363 . S
C2758 H2735 0.950 . S
C2758 C2757 1.397 . S
C2758 C2759 1.334 . S
C2759 H2736 0.950 . S
C2759 C2758 1.334 . S
C2759 C2760 1.287 . S
C2760 C2759 1.287 . S
C2760 C2761 1.524 . S
C2760 H2779 0.913 . S
C2761 H2737 0.950 . S
C2761 C2760 1.524 . S
C2761 C2762 1.415 . S
C2762 H2738 0.950 . S
C2762 C2757 1.363 . S
C2762 C2761 1.415 . S
C2763 H2739 0.951 . S
C2763 C2764 1.366 . S
C2763 C2765 1.388 . S
C2764 C2763 1.366 . S
C2764 C2768 1.385 . S
C2765 H2740 0.951 . S
C2765 C2763 1.388 . S
C2765 C2766 1.366 . S
C2766 C2765 1.366 . S
C2766 C2767 1.414 . S
C2766 C2769 1.499 . S
C2767 H2741 0.950 . S
C2767 C2766 1.414 . S
C2767 C2768 1.374 . S
C2768 H2742 0.950 . S
C2768 C2764 1.385 . S
C2768 C2767 1.374 . S
C2769 C2766 1.499 . S
C2769 C2770 1.373 . S
C2769 C2771 1.389 . S
C2770 H2743 0.950 . S
C2770 C2756 1.377 . S
C2770 C2769 1.373 . S
C2771 C2755 1.377 . S
C2771 C2769 1.389 . S
C2771 C2772 1.524 . S
C2772 C2771 1.524 . S
C2772 C2773 1.397 . S
C2772 C2777 1.363 . S
C2773 H2744 0.950 . S
C2773 C2772 1.397 . S
C2773 C2774 1.334 . S
C2774 H2745 0.950 . S
C2774 C2773 1.334 . S
C2774 C2775 1.287 . S
C2775 C2774 1.287 . S
C2775 C2776 1.524 . S
C2775 H2778 0.999 . S
C2776 H2746 0.950 . S
C2776 C2775 1.524 . S
C2776 C2777 1.415 . S
C2777 H2747 0.950 . S
C2777 C2772 1.363 . S
C2777 C2776 1.415 . S
H2778 C2775 0.999 . S
H2779 C2760 0.913 . S
H2780 C2798 0.951 . S
H2781 C2800 0.951 . S
H2782 C2802 0.950 . S
H2783 C2803 0.950 . S
H2784 C2805 0.950 . S
H2785 C2808 0.950 . S
H2786 C2809 0.950 . S
H2787 C2811 0.950 . S
H2788 C2812 0.950 . S
H2789 C2813 0.951 . S
H2790 C2815 0.951 . S
H2791 C2817 0.950 . S
H2792 C2818 0.950 . S
H2793 C2820 0.950 . S
H2794 C2823 0.950 . S
H2795 C2824 0.950 . S
H2796 C2826 0.950 . S
H2797 C2827 0.950 . S
C2798 H2780 0.951 . S
C2798 C2799 1.366 . S
C2798 C2800 1.388 . S
C2799 C2798 1.366 . S
C2799 C2803 1.385 . S
C2800 H2781 0.951 . S
C2800 C2798 1.388 . S
C2800 C2801 1.366 . S
C2801 C2800 1.366 . S
C2801 C2802 1.414 . S
C2801 C2804 1.499 . S
C2802 H2782 0.950 . S
C2802 C2801 1.414 . S
C2802 C2803 1.374 . S
C2803 H2783 0.950 . S
C2803 C2799 1.385 . S
C2803 C2802 1.374 . S
C2804 C2801 1.499 . S
C2804 C2805 1.373 . S
C2804 C2806 1.389 . S
C2805 H2784 0.950 . S
C2805 C2804 1.373 . S
C2805 C2821 1.377 . S
C2806 C2804 1.389 . S
C2806 C2807 1.524 . S
C2806 C2820 1.377 . S
C2807 C2806 1.524 . S
C2807 C2808 1.397 . S
C2807 C2812 1.363 . S
C2808 H2785 0.950 . S
C2808 C2807 1.397 . S
C2808 C2809 1.334 . S
C2809 H2786 0.950 . S
C2809 C2808 1.334 . S
C2809 C2810 1.287 . S
C2810 C2809 1.287 . S
C2810 C2811 1.524 . S
C2810 H2829 0.913 . S
C2811 H2787 0.950 . S
C2811 C2810 1.524 . S
C2811 C2812 1.415 . S
C2812 H2788 0.950 . S
C2812 C2807 1.363 . S
C2812 C2811 1.415 . S
C2813 H2789 0.951 . S
C2813 C2814 1.366 . S
C2813 C2815 1.388 . S
C2814 C2813 1.366 . S
C2814 C2818 1.385 . S
C2815 H2790 0.951 . S
C2815 C2813 1.388 . S
C2815 C2816 1.366 . S
C2816 C2815 1.366 . S
C2816 C2817 1.414 . S
C2816 C2819 1.499 . S
C2817 H2791 0.950 . S
C2817 C2816 1.414 . S
C2817 C2818 1.374 . S
C2818 H2792 0.950 . S
C2818 C2814 1.385 . S
C2818 C2817 1.374 . S
C2819 C2816 1.499 . S
C2819 C2820 1.373 . S
C2819 C2821 1.389 . S
C2820 H2793 0.950 . S
C2820 C2806 1.377 . S
C2820 C2819 1.373 . S
C2821 C2805 1.377 . S
C2821 C2819 1.389 . S
C2821 C2822 1.524 . S
C2822 C2821 1.524 . S
C2822 C2823 1.397 . S
C2822 C2827 1.363 . S
C2823 H2794 0.950 . S
C2823 C2822 1.397 . S
C2823 C2824 1.334 . S
C2824 H2795 0.950 . S
C2824 C2823 1.334 . S
C2824 C2825 1.287 . S
C2825 C2824 1.287 . S
C2825 C2826 1.524 . S
C2825 H2828 0.999 . S
C2826 H2796 0.950 . S
C2826 C2825 1.524 . S
C2826 C2827 1.415 . S
C2827 H2797 0.950 . S
C2827 C2822 1.363 . S
C2827 C2826 1.415 . S
H2828 C2825 0.999 . S
H2829 C2810 0.913 . S
H2830 C2848 0.951 . S
H2831 C2850 0.951 . S
H2832 C2852 0.950 . S
H2833 C2853 0.950 . S
H2834 C2855 0.950 . S
H2835 C2858 0.950 . S
H2836 C2859 0.950 . S
H2837 C2861 0.950 . S
H2838 C2862 0.950 . S
H2839 C2863 0.951 . S
H2840 C2865 0.951 . S
H2841 C2867 0.950 . S
H2842 C2868 0.950 . S
H2843 C2870 0.950 . S
H2844 C2873 0.950 . S
H2845 C2874 0.950 . S
H2846 C2876 0.950 . S
H2847 C2877 0.950 . S
C2848 H2830 0.951 . S
C2848 C2849 1.366 . S
C2848 C2850 1.388 . S
C2849 C2848 1.366 . S
C2849 C2853 1.385 . S
C2850 H2831 0.951 . S
C2850 C2848 1.388 . S
C2850 C2851 1.366 . S
C2851 C2850 1.366 . S
C2851 C2852 1.414 . S
C2851 C2854 1.499 . S
C2852 H2832 0.950 . S
C2852 C2851 1.414 . S
C2852 C2853 1.374 . S
C2853 H2833 0.950 . S
C2853 C2849 1.385 . S
C2853 C2852 1.374 . S
C2854 C2851 1.499 . S
C2854 C2855 1.373 . S
C2854 C2856 1.389 . S
C2855 H2834 0.950 . S
C2855 C2854 1.373 . S
C2855 C2871 1.377 . S
C2856 C2854 1.389 . S
C2856 C2857 1.524 . S
C2856 C2870 1.377 . S
C2857 C2856 1.524 . S
C2857 C2858 1.397 . S
C2857 C2862 1.363 . S
C2858 H2835 0.950 . S
C2858 C2857 1.397 . S
C2858 C2859 1.334 . S
C2859 H2836 0.950 . S
C2859 C2858 1.334 . S
C2859 C2860 1.287 . S
C2860 C2859 1.287 . S
C2860 C2861 1.524 . S
C2860 H2879 0.913 . S
C2861 H2837 0.950 . S
C2861 C2860 1.524 . S
C2861 C2862 1.415 . S
C2862 H2838 0.950 . S
C2862 C2857 1.363 . S
C2862 C2861 1.415 . S
C2863 H2839 0.951 . S
C2863 C2864 1.366 . S
C2863 C2865 1.388 . S
C2864 C2863 1.366 . S
C2864 C2868 1.385 . S
C2865 H2840 0.951 . S
C2865 C2863 1.388 . S
C2865 C2866 1.366 . S
C2866 C2865 1.366 . S
C2866 C2867 1.414 . S
C2866 C2869 1.499 . S
C2867 H2841 0.950 . S
C2867 C2866 1.414 . S
C2867 C2868 1.374 . S
C2868 H2842 0.950 . S
C2868 C2864 1.385 . S
C2868 C2867 1.374 . S
C2869 C2866 1.499 . S
C2869 C2870 1.373 . S
C2869 C2871 1.389 . S
C2870 H2843 0.950 . S
C2870 C2856 1.377 . S
C2870 C2869 1.373 . S
C2871 C2855 1.377 . S
C2871 C2869 1.389 . S
C2871 C2872 1.524 . S
C2872 C2871 1.524 . S
C2872 C2873 1.397 . S
C2872 C2877 1.363 . S
C2873 H2844 0.950 . S
C2873 C2872 1.397 . S
C2873 C2874 1.334 . S
C2874 H2845 0.950 . S
C2874 C2873 1.334 . S
C2874 C2875 1.287 . S
C2875 C2874 1.287 . S
C2875 C2876 1.524 . S
C2875 H2878 0.999 . S
C2876 H2846 0.950 . S
C2876 C2875 1.524 . S
C2876 C2877 1.415 . S
C2877 H2847 0.950 . S
C2877 C2872 1.363 . S
C2877 C2876 1.415 . S
H2878 C2875 0.999 . S
H2879 C2860 0.913 . S
H2880 C2898 0.951 . S
H2881 C2900 0.951 . S
H2882 C2902 0.950 . S
H2883 C2903 0.950 . S
H2884 C2905 0.950 . S
H2885 C2908 0.950 . S
H2886 C2909 0.950 . S
H2887 C2911 0.950 . S
H2888 C2912 0.950 . S
H2889 C2913 0.951 . S
H2890 C2915 0.951 . S
H2891 C2917 0.950 . S
H2892 C2918 0.950 . S
H2893 C2920 0.950 . S
H2894 C2923 0.950 . S
H2895 C2924 0.950 . S
H2896 C2926 0.950 . S
H2897 C2927 0.950 . S
C2898 H2880 0.951 . S
C2898 C2899 1.366 . S
C2898 C2900 1.388 . S
C2899 C2898 1.366 . S
C2899 C2903 1.385 . S
C2900 H2881 0.951 . S
C2900 C2898 1.388 . S
C2900 C2901 1.366 . S
C2901 C2900 1.366 . S
C2901 C2902 1.414 . S
C2901 C2904 1.499 . S
C2902 H2882 0.950 . S
C2902 C2901 1.414 . S
C2902 C2903 1.374 . S
C2903 H2883 0.950 . S
C2903 C2899 1.385 . S
C2903 C2902 1.374 . S
C2904 C2901 1.499 . S
C2904 C2905 1.373 . S
C2904 C2906 1.389 . S
C2905 H2884 0.950 . S
C2905 C2904 1.373 . S
C2905 C2921 1.377 . S
C2906 C2904 1.389 . S
C2906 C2907 1.524 . S
C2906 C2920 1.377 . S
C2907 C2906 1.524 . S
C2907 C2908 1.397 . S
C2907 C2912 1.363 . S
C2908 H2885 0.950 . S
C2908 C2907 1.397 . S
C2908 C2909 1.334 . S
C2909 H2886 0.950 . S
C2909 C2908 1.334 . S
C2909 C2910 1.287 . S
C2910 C2909 1.287 . S
C2910 C2911 1.524 . S
C2910 H2929 0.913 . S
C2911 H2887 0.950 . S
C2911 C2910 1.524 . S
C2911 C2912 1.415 . S
C2912 H2888 0.950 . S
C2912 C2907 1.363 . S
C2912 C2911 1.415 . S
C2913 H2889 0.951 . S
C2913 C2914 1.366 . S
C2913 C2915 1.388 . S
C2914 C2913 1.366 . S
C2914 C2918 1.385 . S
C2915 H2890 0.951 . S
C2915 C2913 1.388 . S
C2915 C2916 1.366 . S
C2916 C2915 1.366 . S
C2916 C2917 1.414 . S
C2916 C2919 1.499 . S
C2917 H2891 0.950 . S
C2917 C2916 1.414 . S
C2917 C2918 1.374 . S
C2918 H2892 0.950 . S
C2918 C2914 1.385 . S
C2918 C2917 1.374 . S
C2919 C2916 1.499 . S
C2919 C2920 1.373 . S
C2919 C2921 1.389 . S
C2920 H2893 0.950 . S
C2920 C2906 1.377 . S
C2920 C2919 1.373 . S
C2921 C2905 1.377 . S
C2921 C2919 1.389 . S
C2921 C2922 1.524 . S
C2922 C2921 1.524 . S
C2922 C2923 1.397 . S
C2922 C2927 1.363 . S
C2923 H2894 0.950 . S
C2923 C2922 1.397 . S
C2923 C2924 1.334 . S
C2924 H2895 0.950 . S
C2924 C2923 1.334 . S
C2924 C2925 1.287 . S
C2925 C2924 1.287 . S
C2925 C2926 1.524 . S
C2925 H2928 0.999 . S
C2926 H2896 0.950 . S
C2926 C2925 1.524 . S
C2926 C2927 1.415 . S
C2927 H2897 0.950 . S
C2927 C2922 1.363 . S
C2927 C2926 1.415 . S
H2928 C2925 0.999 . S
H2929 C2910 0.913 . S
H2930 C2948 0.951 . S
H2931 C2950 0.951 . S
H2932 C2952 0.950 . S
H2933 C2953 0.950 . S
H2934 C2955 0.950 . S
H2935 C2958 0.950 . S
H2936 C2959 0.950 . S
H2937 C2961 0.950 . S
H2938 C2962 0.950 . S
H2939 C2963 0.951 . S
H2940 C2965 0.963 . S
H2941 C2967 0.950 1_455 S
H2942 C2968 0.950 . S
H2943 C2970 0.950 . S
H2944 C2973 0.950 . S
H2945 C2974 0.950 . S
H2946 C2976 0.950 . S
H2947 C2977 0.950 . S
C2948 H2930 0.951 . S
C2948 C2949 1.366 . S
C2948 C2950 1.388 . S
C2949 C2948 1.366 . S
C2949 C2953 1.385 . S
C2950 H2931 0.951 . S
C2950 C2948 1.388 . S
C2950 C2951 1.366 . S
C2951 C2950 1.366 . S
C2951 C2952 1.414 . S
C2951 C2954 1.499 . S
C2952 H2932 0.950 . S
C2952 C2951 1.414 . S
C2952 C2953 1.374 . S
C2953 H2933 0.950 . S
C2953 C2949 1.385 . S
C2953 C2952 1.374 . S
C2954 C2951 1.499 . S
C2954 C2955 1.373 . S
C2954 C2956 1.389 . S
C2955 H2934 0.950 . S
C2955 C2954 1.373 . S
C2955 C2971 1.377 . S
C2956 C2954 1.389 . S
C2956 C2957 1.524 . S
C2956 C2970 1.377 . S
C2957 C2956 1.524 . S
C2957 C2958 1.397 . S
C2957 C2962 1.363 . S
C2958 H2935 0.950 . S
C2958 C2957 1.397 . S
C2958 C2959 1.334 . S
C2959 H2936 0.950 . S
C2959 C2958 1.334 . S
C2959 C2960 1.287 . S
C2960 C2959 1.287 . S
C2960 C2961 1.524 . S
C2960 H2979 0.913 . S
C2961 H2937 0.950 . S
C2961 C2960 1.524 . S
C2961 C2962 1.415 . S
C2962 H2938 0.950 . S
C2962 C2957 1.363 . S
C2962 C2961 1.415 . S
C2963 H2939 0.951 . S
C2963 C2964 1.366 . S
C2963 C2965 1.367 1_655 S
C2964 C2963 1.366 . S
C2964 C2968 1.385 . S
C2965 H2940 0.963 . S
C2965 C2963 1.367 1_455 S
C2965 C2966 1.375 . S
C2966 C2965 1.375 . S
C2966 C2967 1.414 1_455 S
C2966 C2969 1.499 . S
C2967 H2941 0.950 1_655 S
C2967 C2966 1.414 1_655 S
C2967 C2968 1.374 . S
C2968 H2942 0.950 . S
C2968 C2964 1.385 . S
C2968 C2967 1.374 . S
C2969 C2966 1.499 . S
C2969 C2970 1.373 . S
C2969 C2971 1.389 . S
C2970 H2943 0.950 . S
C2970 C2956 1.377 . S
C2970 C2969 1.373 . S
C2971 C2955 1.377 . S
C2971 C2969 1.389 . S
C2971 C2972 1.524 . S
C2972 C2971 1.524 . S
C2972 C2973 1.397 . S
C2972 C2977 1.363 . S
C2973 H2944 0.950 . S
C2973 C2972 1.397 . S
C2973 C2974 1.334 . S
C2974 H2945 0.950 . S
C2974 C2973 1.334 . S
C2974 C2975 1.287 . S
C2975 C2974 1.287 . S
C2975 C2976 1.524 . S
C2975 H2978 0.999 . S
C2976 H2946 0.950 . S
C2976 C2975 1.524 . S
C2976 C2977 1.415 . S
C2977 H2947 0.950 . S
C2977 C2972 1.363 . S
C2977 C2976 1.415 . S
H2978 C2975 0.999 . S
H2979 C2960 0.913 . S
H2980 C2998 0.951 . S
H2981 C3000 0.951 . S
H2982 C3002 0.950 . S
H2983 C3003 0.950 . S
H2984 C3005 0.950 . S
H2985 C3008 0.950 . S
H2986 C3009 0.950 . S
H2987 C3011 0.950 . S
H2988 C3012 0.950 . S
H2989 C3013 0.951 . S
H2990 C3015 0.951 . S
H2991 C3017 0.950 . S
H2992 C3018 0.950 . S
H2993 C3020 0.950 . S
H2994 C3023 0.950 . S
H2995 C3024 0.950 . S
H2996 C3026 0.950 . S
H2997 C3027 0.950 . S
C2998 H2980 0.951 . S
C2998 C2999 1.366 . S
C2998 C3000 1.388 . S
C2999 C2998 1.366 . S
C2999 C3003 1.385 . S
C3000 H2981 0.951 . S
C3000 C2998 1.388 . S
C3000 C3001 1.366 . S
C3001 C3000 1.366 . S
C3001 C3002 1.414 . S
C3001 C3004 1.499 . S
C3002 H2982 0.950 . S
C3002 C3001 1.414 . S
C3002 C3003 1.374 . S
C3003 H2983 0.950 . S
C3003 C2999 1.385 . S
C3003 C3002 1.374 . S
C3004 C3001 1.499 . S
C3004 C3005 1.373 . S
C3004 C3006 1.389 . S
C3005 H2984 0.950 . S
C3005 C3004 1.373 . S
C3005 C3021 1.377 . S
C3006 C3004 1.389 . S
C3006 C3007 1.524 . S
C3006 C3020 1.377 . S
C3007 C3006 1.524 . S
C3007 C3008 1.397 . S
C3007 C3012 1.363 . S
C3008 H2985 0.950 . S
C3008 C3007 1.397 . S
C3008 C3009 1.334 . S
C3009 H2986 0.950 . S
C3009 C3008 1.334 . S
C3009 C3010 1.287 . S
C3010 C3009 1.287 . S
C3010 C3011 1.524 . S
C3010 H3029 0.913 . S
C3011 H2987 0.950 . S
C3011 C3010 1.524 . S
C3011 C3012 1.415 . S
C3012 H2988 0.950 . S
C3012 C3007 1.363 . S
C3012 C3011 1.415 . S
C3013 H2989 0.951 . S
C3013 C3014 1.366 . S
C3013 C3015 1.388 . S
C3014 C3013 1.366 . S
C3014 C3018 1.385 . S
C3015 H2990 0.951 . S
C3015 C3013 1.388 . S
C3015 C3016 1.366 . S
C3016 C3015 1.366 . S
C3016 C3017 1.414 . S
C3016 C3019 1.499 . S
C3017 H2991 0.950 . S
C3017 C3016 1.414 . S
C3017 C3018 1.374 . S
C3018 H2992 0.950 . S
C3018 C3014 1.385 . S
C3018 C3017 1.374 . S
C3019 C3016 1.499 . S
C3019 C3020 1.373 . S
C3019 C3021 1.389 . S
C3020 H2993 0.950 . S
C3020 C3006 1.377 . S
C3020 C3019 1.373 . S
C3021 C3005 1.377 . S
C3021 C3019 1.389 . S
C3021 C3022 1.524 . S
C3022 C3021 1.524 . S
C3022 C3023 1.397 . S
C3022 C3027 1.363 . S
C3023 H2994 0.950 . S
C3023 C3022 1.397 . S
C3023 C3024 1.334 . S
C3024 H2995 0.950 . S
C3024 C3023 1.334 . S
C3024 C3025 1.287 . S
C3025 C3024 1.287 . S
C3025 C3026 1.524 . S
C3025 H3028 0.999 . S
C3026 H2996 0.950 . S
C3026 C3025 1.524 . S
C3026 C3027 1.415 . S
C3027 H2997 0.950 . S
C3027 C3022 1.363 . S
C3027 C3026 1.415 . S
H3028 C3025 0.999 . S
H3029 C3010 0.913 . S
H3030 C3048 0.951 . S
H3031 C3050 0.951 . S
H3032 C3052 0.950 . S
H3033 C3053 0.950 . S
H3034 C3055 0.950 . S
H3035 C3058 0.950 . S
H3036 C3059 0.950 . S
H3037 C3061 0.950 . S
H3038 C3062 0.950 . S
H3039 C3063 0.951 . S
H3040 C3065 0.951 . S
H3041 C3067 0.950 . S
H3042 C3068 0.950 . S
H3043 C3070 0.950 . S
H3044 C3073 0.950 . S
H3045 C3074 0.950 . S
H3046 C3076 0.950 . S
H3047 C3077 0.950 . S
C3048 H3030 0.951 . S
C3048 C3049 1.366 . S
C3048 C3050 1.388 . S
C3049 C3048 1.366 . S
C3049 C3053 1.385 . S
C3050 H3031 0.951 . S
C3050 C3048 1.388 . S
C3050 C3051 1.366 . S
C3051 C3050 1.366 . S
C3051 C3052 1.414 . S
C3051 C3054 1.499 . S
C3052 H3032 0.950 . S
C3052 C3051 1.414 . S
C3052 C3053 1.374 . S
C3053 H3033 0.950 . S
C3053 C3049 1.385 . S
C3053 C3052 1.374 . S
C3054 C3051 1.499 . S
C3054 C3055 1.373 . S
C3054 C3056 1.389 . S
C3055 H3034 0.950 . S
C3055 C3054 1.373 . S
C3055 C3071 1.377 . S
C3056 C3054 1.389 . S
C3056 C3057 1.524 . S
C3056 C3070 1.377 . S
C3057 C3056 1.524 . S
C3057 C3058 1.397 . S
C3057 C3062 1.363 . S
C3058 H3035 0.950 . S
C3058 C3057 1.397 . S
C3058 C3059 1.334 . S
C3059 H3036 0.950 . S
C3059 C3058 1.334 . S
C3059 C3060 1.287 . S
C3060 C3059 1.287 . S
C3060 C3061 1.524 . S
C3060 H3079 0.913 . S
C3061 H3037 0.950 . S
C3061 C3060 1.524 . S
C3061 C3062 1.415 . S
C3062 H3038 0.950 . S
C3062 C3057 1.363 . S
C3062 C3061 1.415 . S
C3063 H3039 0.951 . S
C3063 C3064 1.366 . S
C3063 C3065 1.388 . S
C3064 C3063 1.366 . S
C3064 C3068 1.385 . S
C3065 H3040 0.951 . S
C3065 C3063 1.388 . S
C3065 C3066 1.366 . S
C3066 C3065 1.366 . S
C3066 C3067 1.414 . S
C3066 C3069 1.499 . S
C3067 H3041 0.950 . S
C3067 C3066 1.414 . S
C3067 C3068 1.374 . S
C3068 H3042 0.950 . S
C3068 C3064 1.385 . S
C3068 C3067 1.374 . S
C3069 C3066 1.499 . S
C3069 C3070 1.373 . S
C3069 C3071 1.389 . S
C3070 H3043 0.950 . S
C3070 C3056 1.377 . S
C3070 C3069 1.373 . S
C3071 C3055 1.377 . S
C3071 C3069 1.389 . S
C3071 C3072 1.524 . S
C3072 C3071 1.524 . S
C3072 C3073 1.397 . S
C3072 C3077 1.363 . S
C3073 H3044 0.950 . S
C3073 C3072 1.397 . S
C3073 C3074 1.334 . S
C3074 H3045 0.950 . S
C3074 C3073 1.334 . S
C3074 C3075 1.287 . S
C3075 C3074 1.287 . S
C3075 C3076 1.524 . S
C3075 H3078 0.999 . S
C3076 H3046 0.950 . S
C3076 C3075 1.524 . S
C3076 C3077 1.415 . S
C3077 H3047 0.950 . S
C3077 C3072 1.363 . S
C3077 C3076 1.415 . S
H3078 C3075 0.999 . S
H3079 C3060 0.913 . S
H3080 C3098 0.951 . S
H3081 C3100 0.951 . S
H3082 C3102 0.950 . S
H3083 C3103 0.950 . S
H3084 C3105 0.950 . S
H3085 C3108 0.950 . S
H3086 C3109 0.950 . S
H3087 C3111 0.950 . S
H3088 C3112 0.950 . S
H3089 C3113 0.951 . S
H3090 C3115 0.951 . S
H3091 C3117 0.950 . S
H3092 C3118 0.950 . S
H3093 C3120 0.950 . S
H3094 C3123 0.950 . S
H3095 C3124 0.950 . S
H3096 C3126 0.950 . S
H3097 C3127 0.950 . S
C3098 H3080 0.951 . S
C3098 C3099 1.366 . S
C3098 C3100 1.388 . S
C3099 C3098 1.366 . S
C3099 C3103 1.385 . S
C3100 H3081 0.951 . S
C3100 C3098 1.388 . S
C3100 C3101 1.366 . S
C3101 C3100 1.366 . S
C3101 C3102 1.414 . S
C3101 C3104 1.499 . S
C3102 H3082 0.950 . S
C3102 C3101 1.414 . S
C3102 C3103 1.374 . S
C3103 H3083 0.950 . S
C3103 C3099 1.385 . S
C3103 C3102 1.374 . S
C3104 C3101 1.499 . S
C3104 C3105 1.373 . S
C3104 C3106 1.389 . S
C3105 H3084 0.950 . S
C3105 C3104 1.373 . S
C3105 C3121 1.377 . S
C3106 C3104 1.389 . S
C3106 C3107 1.524 . S
C3106 C3120 1.377 . S
C3107 C3106 1.524 . S
C3107 C3108 1.397 . S
C3107 C3112 1.363 . S
C3108 H3085 0.950 . S
C3108 C3107 1.397 . S
C3108 C3109 1.334 . S
C3109 H3086 0.950 . S
C3109 C3108 1.334 . S
C3109 C3110 1.287 . S
C3110 C3109 1.287 . S
C3110 C3111 1.524 . S
C3110 H3129 0.913 . S
C3111 H3087 0.950 . S
C3111 C3110 1.524 . S
C3111 C3112 1.415 . S
C3112 H3088 0.950 . S
C3112 C3107 1.363 . S
C3112 C3111 1.415 . S
C3113 H3089 0.951 . S
C3113 C3114 1.366 . S
C3113 C3115 1.388 . S
C3114 C3113 1.366 . S
C3114 C3118 1.385 . S
C3115 H3090 0.951 . S
C3115 C3113 1.388 . S
C3115 C3116 1.366 . S
C3116 C3115 1.366 . S
C3116 C3117 1.414 . S
C3116 C3119 1.499 . S
C3117 H3091 0.950 . S
C3117 C3116 1.414 . S
C3117 C3118 1.374 . S
C3118 H3092 0.950 . S
C3118 C3114 1.385 . S
C3118 C3117 1.374 . S
C3119 C3116 1.499 . S
C3119 C3120 1.373 . S
C3119 C3121 1.389 . S
C3120 H3093 0.950 . S
C3120 C3106 1.377 . S
C3120 C3119 1.373 . S
C3121 C3105 1.377 . S
C3121 C3119 1.389 . S
C3121 C3122 1.524 . S
C3122 C3121 1.524 . S
C3122 C3123 1.397 . S
C3122 C3127 1.363 . S
C3123 H3094 0.950 . S
C3123 C3122 1.397 . S
C3123 C3124 1.334 . S
C3124 H3095 0.950 . S
C3124 C3123 1.334 . S
C3124 C3125 1.287 . S
C3125 C3124 1.287 . S
C3125 C3126 1.524 . S
C3125 H3128 0.999 . S
C3126 H3096 0.950 . S
C3126 C3125 1.524 . S
C3126 C3127 1.415 . S
C3127 H3097 0.950 . S
C3127 C3122 1.363 . S
C3127 C3126 1.415 . S
H3128 C3125 0.999 . S
H3129 C3110 0.913 . S
H3130 C3148 0.951 . S
H3131 C3150 0.951 . S
H3132 C3152 0.950 . S
H3133 C3153 0.950 . S
H3134 C3155 0.950 . S
H3135 C3158 0.950 . S
H3136 C3159 0.950 . S
H3137 C3161 0.950 . S
H3138 C3162 0.950 . S
H3139 C3163 0.951 . S
H3140 C3165 0.951 . S
H3141 C3167 0.950 . S
H3142 C3168 0.950 . S
H3143 C3170 0.950 . S
H3144 C3173 0.950 . S
H3145 C3174 0.950 . S
H3146 C3176 0.950 . S
H3147 C3177 0.950 . S
C3148 H3130 0.951 . S
C3148 C3149 1.366 . S
C3148 C3150 1.388 . S
C3149 C3148 1.366 . S
C3149 C3153 1.385 . S
C3150 H3131 0.951 . S
C3150 C3148 1.388 . S
C3150 C3151 1.366 . S
C3151 C3150 1.366 . S
C3151 C3152 1.414 . S
C3151 C3154 1.499 . S
C3152 H3132 0.950 . S
C3152 C3151 1.414 . S
C3152 C3153 1.374 . S
C3153 H3133 0.950 . S
C3153 C3149 1.385 . S
C3153 C3152 1.374 . S
C3154 C3151 1.499 . S
C3154 C3155 1.373 . S
C3154 C3156 1.389 . S
C3155 H3134 0.950 . S
C3155 C3154 1.373 . S
C3155 C3171 1.377 . S
C3156 C3154 1.389 . S
C3156 C3157 1.524 . S
C3156 C3170 1.377 . S
C3157 C3156 1.524 . S
C3157 C3158 1.397 . S
C3157 C3162 1.363 . S
C3158 H3135 0.950 . S
C3158 C3157 1.397 . S
C3158 C3159 1.334 . S
C3159 H3136 0.950 . S
C3159 C3158 1.334 . S
C3159 C3160 1.287 . S
C3160 C3159 1.287 . S
C3160 C3161 1.524 . S
C3160 H3179 0.913 . S
C3161 H3137 0.950 . S
C3161 C3160 1.524 . S
C3161 C3162 1.415 . S
C3162 H3138 0.950 . S
C3162 C3157 1.363 . S
C3162 C3161 1.415 . S
C3163 H3139 0.951 . S
C3163 C3164 1.366 . S
C3163 C3165 1.388 . S
C3164 C3163 1.366 . S
C3164 C3168 1.385 . S
C3165 H3140 0.951 . S
C3165 C3163 1.388 . S
C3165 C3166 1.366 . S
C3166 C3165 1.366 . S
C3166 C3167 1.414 . S
C3166 C3169 1.499 . S
C3167 H3141 0.950 . S
C3167 C3166 1.414 . S
C3167 C3168 1.374 . S
C3168 H3142 0.950 . S
C3168 C3164 1.385 . S
C3168 C3167 1.374 . S
C3169 C3166 1.499 . S
C3169 C3170 1.373 . S
C3169 C3171 1.389 . S
C3170 H3143 0.950 . S
C3170 C3156 1.377 . S
C3170 C3169 1.373 . S
C3171 C3155 1.377 . S
C3171 C3169 1.389 . S
C3171 C3172 1.524 . S
C3172 C3171 1.524 . S
C3172 C3173 1.397 . S
C3172 C3177 1.363 . S
C3173 H3144 0.950 . S
C3173 C3172 1.397 . S
C3173 C3174 1.334 . S
C3174 H3145 0.950 . S
C3174 C3173 1.334 . S
C3174 C3175 1.287 . S
C3175 C3174 1.287 . S
C3175 C3176 1.524 . S
C3175 H3178 0.999 . S
C3176 H3146 0.950 . S
C3176 C3175 1.524 . S
C3176 C3177 1.415 . S
C3177 H3147 0.950 . S
C3177 C3172 1.363 . S
C3177 C3176 1.415 . S
H3178 C3175 0.999 . S
H3179 C3160 0.913 . S
H3180 C3198 0.951 . S
H3181 C3200 0.951 . S
H3182 C3202 0.950 . S
H3183 C3203 0.950 . S
H3184 C3205 0.950 . S
H3185 C3208 0.950 . S
H3186 C3209 0.950 . S
H3187 C3211 0.950 . S
H3188 C3212 0.950 . S
H3189 C3213 0.951 . S
H3190 C3215 0.951 . S
H3191 C3217 0.950 . S
H3192 C3218 0.950 . S
H3193 C3220 0.950 . S
H3194 C3223 0.950 . S
H3195 C3224 0.950 . S
H3196 C3226 0.950 . S
H3197 C3227 0.950 . S
C3198 H3180 0.951 . S
C3198 C3199 1.366 . S
C3198 C3200 1.388 . S
C3199 C3198 1.366 . S
C3199 C3203 1.385 . S
C3200 H3181 0.951 . S
C3200 C3198 1.388 . S
C3200 C3201 1.366 . S
C3201 C3200 1.366 . S
C3201 C3202 1.414 . S
C3201 C3204 1.499 . S
C3202 H3182 0.950 . S
C3202 C3201 1.414 . S
C3202 C3203 1.374 . S
C3203 H3183 0.950 . S
C3203 C3199 1.385 . S
C3203 C3202 1.374 . S
C3204 C3201 1.499 . S
C3204 C3205 1.373 . S
C3204 C3206 1.389 . S
C3205 H3184 0.950 . S
C3205 C3204 1.373 . S
C3205 C3221 1.377 . S
C3206 C3204 1.389 . S
C3206 C3207 1.524 . S
C3206 C3220 1.377 . S
C3207 C3206 1.524 . S
C3207 C3208 1.397 . S
C3207 C3212 1.363 . S
C3208 H3185 0.950 . S
C3208 C3207 1.397 . S
C3208 C3209 1.334 . S
C3209 H3186 0.950 . S
C3209 C3208 1.334 . S
C3209 C3210 1.287 . S
C3210 C3209 1.287 . S
C3210 C3211 1.524 . S
C3210 H3229 0.913 . S
C3211 H3187 0.950 . S
C3211 C3210 1.524 . S
C3211 C3212 1.415 . S
C3212 H3188 0.950 . S
C3212 C3207 1.363 . S
C3212 C3211 1.415 . S
C3213 H3189 0.951 . S
C3213 C3214 1.366 . S
C3213 C3215 1.388 . S
C3214 C3213 1.366 . S
C3214 C3218 1.385 . S
C3215 H3190 0.951 . S
C3215 C3213 1.388 . S
C3215 C3216 1.366 . S
C3216 C3215 1.366 . S
C3216 C3217 1.414 . S
C3216 C3219 1.499 . S
C3217 H3191 0.950 . S
C3217 C3216 1.414 . S
C3217 C3218 1.374 . S
C3218 H3192 0.950 . S
C3218 C3214 1.385 . S
C3218 C3217 1.374 . S
C3219 C3216 1.499 . S
C3219 C3220 1.373 . S
C3219 C3221 1.389 . S
C3220 H3193 0.950 . S
C3220 C3206 1.377 . S
C3220 C3219 1.373 . S
C3221 C3205 1.377 . S
C3221 C3219 1.389 . S
C3221 C3222 1.524 . S
C3222 C3221 1.524 . S
C3222 C3223 1.397 . S
C3222 C3227 1.363 . S
C3223 H3194 0.950 . S
C3223 C3222 1.397 . S
C3223 C3224 1.334 . S
C3224 H3195 0.950 . S
C3224 C3223 1.334 . S
C3224 C3225 1.287 . S
C3225 C3224 1.287 . S
C3225 C3226 1.524 . S
C3225 H3228 0.999 . S
C3226 H3196 0.950 . S
C3226 C3225 1.524 . S
C3226 C3227 1.415 . S
C3227 H3197 0.950 . S
C3227 C3222 1.363 . S
C3227 C3226 1.415 . S
H3228 C3225 0.999 . S
H3229 C3210 0.913 . S
H3230 C3248 0.951 . S
H3231 C3250 0.951 . S
H3232 C3252 0.950 . S
H3233 C3253 0.950 . S
H3234 C3255 0.950 . S
H3235 C3258 0.950 . S
H3236 C3259 0.950 . S
H3237 C3261 0.950 . S
H3238 C3262 0.950 . S
H3239 C3263 0.951 . S
H3240 C3265 0.951 . S
H3241 C3267 0.950 . S
H3242 C3268 0.950 . S
H3243 C3270 0.950 . S
H3244 C3273 0.950 . S
H3245 C3274 0.949 . S
H3246 C3276 0.950 1_655 S
H3247 C3277 0.950 . S
C3248 H3230 0.951 . S
C3248 C3249 1.366 . S
C3248 C3250 1.388 . S
C3249 C3248 1.366 . S
C3249 C3253 1.385 . S
C3250 H3231 0.951 . S
C3250 C3248 1.388 . S
C3250 C3251 1.366 . S
C3251 C3250 1.366 . S
C3251 C3252 1.414 . S
C3251 C3254 1.499 . S
C3252 H3232 0.950 . S
C3252 C3251 1.414 . S
C3252 C3253 1.374 . S
C3253 H3233 0.950 . S
C3253 C3249 1.385 . S
C3253 C3252 1.374 . S
C3254 C3251 1.499 . S
C3254 C3255 1.373 . S
C3254 C3256 1.389 . S
C3255 H3234 0.950 . S
C3255 C3254 1.373 . S
C3255 C3271 1.377 . S
C3256 C3254 1.389 . S
C3256 C3257 1.524 . S
C3256 C3270 1.377 . S
C3257 C3256 1.524 . S
C3257 C3258 1.397 . S
C3257 C3262 1.363 . S
C3258 H3235 0.950 . S
C3258 C3257 1.397 . S
C3258 C3259 1.334 . S
C3259 H3236 0.950 . S
C3259 C3258 1.334 . S
C3259 C3260 1.287 . S
C3260 C3259 1.287 . S
C3260 C3261 1.524 . S
C3260 H3279 0.913 . S
C3261 H3237 0.950 . S
C3261 C3260 1.524 . S
C3261 C3262 1.415 . S
C3262 H3238 0.950 . S
C3262 C3257 1.363 . S
C3262 C3261 1.415 . S
C3263 H3239 0.951 . S
C3263 C3264 1.366 . S
C3263 C3265 1.388 . S
C3264 C3263 1.366 . S
C3264 C3268 1.385 . S
C3265 H3240 0.951 . S
C3265 C3263 1.388 . S
C3265 C3266 1.366 1_655 S
C3266 C3265 1.366 1_455 S
C3266 C3267 1.414 . S
C3266 C3269 1.499 . S
C3267 H3241 0.950 . S
C3267 C3266 1.414 . S
C3267 C3268 1.374 1_455 S
C3268 H3242 0.950 . S
C3268 C3264 1.385 . S
C3268 C3267 1.374 1_655 S
C3269 C3266 1.499 . S
C3269 C3270 1.373 . S
C3269 C3271 1.389 . S
C3270 H3243 0.950 . S
C3270 C3256 1.377 . S
C3270 C3269 1.373 . S
C3271 C3255 1.377 . S
C3271 C3269 1.389 . S
C3271 C3272 1.524 . S
C3272 C3271 1.524 . S
C3272 C3273 1.397 . S
C3272 C3277 1.363 . S
C3273 H3244 0.950 . S
C3273 C3272 1.397 . S
C3273 C3274 1.334 . S
C3274 H3245 0.949 . S
C3274 C3273 1.334 . S
C3274 C3275 1.287 1_455 S
C3275 C3274 1.287 1_655 S
C3275 C3276 1.524 1_655 S
C3275 H3278 0.999 . S
C3276 H3246 0.950 1_455 S
C3276 C3275 1.524 1_455 S
C3276 C3277 1.415 . S
C3277 H3247 0.950 . S
C3277 C3272 1.363 . S
C3277 C3276 1.415 . S
H3278 C3275 0.999 . S
H3279 C3260 0.913 . S
H3280 C3298 0.951 . S
H3281 C3300 0.951 . S
H3282 C3302 0.950 . S
H3283 C3303 0.950 . S
H3284 C3305 0.950 . S
H3285 C3308 0.950 . S
H3286 C3309 0.950 . S
H3287 C3311 0.950 . S
H3288 C3312 0.950 . S
H3289 C3313 0.951 . S
H3290 C3315 0.951 . S
H3291 C3317 0.950 . S
H3292 C3318 0.950 . S
H3293 C3320 0.950 . S
H3294 C3323 0.950 . S
H3295 C3324 0.950 . S
H3296 C3326 0.950 . S
H3297 C3327 0.950 . S
C3298 H3280 0.951 . S
C3298 C3299 1.366 . S
C3298 C3300 1.388 . S
C3299 C3298 1.366 . S
C3299 C3303 1.385 . S
C3300 H3281 0.951 . S
C3300 C3298 1.388 . S
C3300 C3301 1.366 . S
C3301 C3300 1.366 . S
C3301 C3302 1.414 . S
C3301 C3304 1.499 . S
C3302 H3282 0.950 . S
C3302 C3301 1.414 . S
C3302 C3303 1.374 . S
C3303 H3283 0.950 . S
C3303 C3299 1.385 . S
C3303 C3302 1.374 . S
C3304 C3301 1.499 . S
C3304 C3305 1.373 . S
C3304 C3306 1.389 . S
C3305 H3284 0.950 . S
C3305 C3304 1.373 . S
C3305 C3321 1.377 . S
C3306 C3304 1.389 . S
C3306 C3307 1.524 . S
C3306 C3320 1.377 . S
C3307 C3306 1.524 . S
C3307 C3308 1.397 . S
C3307 C3312 1.363 . S
C3308 H3285 0.950 . S
C3308 C3307 1.397 . S
C3308 C3309 1.334 . S
C3309 H3286 0.950 . S
C3309 C3308 1.334 . S
C3309 C3310 1.287 . S
C3310 C3309 1.287 . S
C3310 C3311 1.524 . S
C3310 H3329 0.913 . S
C3311 H3287 0.950 . S
C3311 C3310 1.524 . S
C3311 C3312 1.415 . S
C3312 H3288 0.950 . S
C3312 C3307 1.363 . S
C3312 C3311 1.415 . S
C3313 H3289 0.951 . S
C3313 C3314 1.366 . S
C3313 C3315 1.388 . S
C3314 C3313 1.366 . S
C3314 C3318 1.385 . S
C3315 H3290 0.951 . S
C3315 C3313 1.388 . S
C3315 C3316 1.366 . S
C3316 C3315 1.366 . S
C3316 C3317 1.414 . S
C3316 C3319 1.499 . S
C3317 H3291 0.950 . S
C3317 C3316 1.414 . S
C3317 C3318 1.374 . S
C3318 H3292 0.950 . S
C3318 C3314 1.385 . S
C3318 C3317 1.374 . S
C3319 C3316 1.499 . S
C3319 C3320 1.373 . S
C3319 C3321 1.389 . S
C3320 H3293 0.950 . S
C3320 C3306 1.377 . S
C3320 C3319 1.373 . S
C3321 C3305 1.377 . S
C3321 C3319 1.389 . S
C3321 C3322 1.524 . S
C3322 C3321 1.524 . S
C3322 C3323 1.397 . S
C3322 C3327 1.363 . S
C3323 H3294 0.950 . S
C3323 C3322 1.397 . S
C3323 C3324 1.334 . S
C3324 H3295 0.950 . S
C3324 C3323 1.334 . S
C3324 C3325 1.287 . S
C3325 C3324 1.287 . S
C3325 C3326 1.524 . S
C3325 H3328 0.999 . S
C3326 H3296 0.950 . S
C3326 C3325 1.524 . S
C3326 C3327 1.415 . S
C3327 H3297 0.950 . S
C3327 C3322 1.363 . S
C3327 C3326 1.415 . S
H3328 C3325 0.999 . S
H3329 C3310 0.913 . S
H3330 C3348 0.951 . S
H3331 C3350 0.951 . S
H3332 C3352 0.950 . S
H3333 C3353 0.950 . S
H3334 C3355 0.950 . S
H3335 C3358 0.950 . S
H3336 C3359 0.950 . S
H3337 C3361 0.950 . S
H3338 C3362 0.950 . S
H3339 C3363 0.951 . S
H3340 C3365 0.951 . S
H3341 C3367 0.950 . S
H3342 C3368 0.950 . S
H3343 C3370 0.950 . S
H3344 C3373 0.950 . S
H3345 C3374 0.950 . S
H3346 C3376 0.950 . S
H3347 C3377 0.950 . S
C3348 H3330 0.951 . S
C3348 C3349 1.366 . S
C3348 C3350 1.388 . S
C3349 C3348 1.366 . S
C3349 C3353 1.385 . S
C3350 H3331 0.951 . S
C3350 C3348 1.388 . S
C3350 C3351 1.366 1_455 S
C3351 C3350 1.366 1_655 S
C3351 C3352 1.414 . S
C3351 C3354 1.499 . S
C3352 H3332 0.950 . S
C3352 C3351 1.414 . S
C3352 C3353 1.374 1_655 S
C3353 H3333 0.950 . S
C3353 C3349 1.385 . S
C3353 C3352 1.374 1_455 S
C3354 C3351 1.499 . S
C3354 C3355 1.373 . S
C3354 C3356 1.389 . S
C3355 H3334 0.950 . S
C3355 C3354 1.373 . S
C3355 C3371 1.377 . S
C3356 C3354 1.389 . S
C3356 C3357 1.524 . S
C3356 C3370 1.377 . S
C3357 C3356 1.524 . S
C3357 C3358 1.397 . S
C3357 C3362 1.363 . S
C3358 H3335 0.950 . S
C3358 C3357 1.397 . S
C3358 C3359 1.334 1_655 S
C3359 H3336 0.950 . S
C3359 C3358 1.334 1_455 S
C3359 C3360 1.287 . S
C3360 C3359 1.287 . S
C3360 C3361 1.524 . S
C3360 H3379 0.913 . S
C3361 H3337 0.950 . S
C3361 C3360 1.524 . S
C3361 C3362 1.415 1_455 S
C3362 H3338 0.950 . S
C3362 C3357 1.363 . S
C3362 C3361 1.415 1_655 S
C3363 H3339 0.951 . S
C3363 C3364 1.366 . S
C3363 C3365 1.388 . S
C3364 C3363 1.366 . S
C3364 C3368 1.385 . S
C3365 H3340 0.951 . S
C3365 C3363 1.388 . S
C3365 C3366 1.366 . S
C3366 C3365 1.366 . S
C3366 C3367 1.414 . S
C3366 C3369 1.499 . S
C3367 H3341 0.950 . S
C3367 C3366 1.414 . S
C3367 C3368 1.374 . S
C3368 H3342 0.950 . S
C3368 C3364 1.385 . S
C3368 C3367 1.374 . S
C3369 C3366 1.499 . S
C3369 C3370 1.373 . S
C3369 C3371 1.389 . S
C3370 H3343 0.950 . S
C3370 C3356 1.377 . S
C3370 C3369 1.373 . S
C3371 C3355 1.377 . S
C3371 C3369 1.389 . S
C3371 C3372 1.524 . S
C3372 C3371 1.524 . S
C3372 C3373 1.397 . S
C3372 C3377 1.363 . S
C3373 H3344 0.950 . S
C3373 C3372 1.397 . S
C3373 C3374 1.334 . S
C3374 H3345 0.950 . S
C3374 C3373 1.334 . S
C3374 C3375 1.287 . S
C3375 C3374 1.287 . S
C3375 C3376 1.524 . S
C3375 H3378 0.999 . S
C3376 H3346 0.950 . S
C3376 C3375 1.524 . S
C3376 C3377 1.415 . S
C3377 H3347 0.950 . S
C3377 C3372 1.363 . S
C3377 C3376 1.415 . S
H3378 C3375 0.999 . S
H3379 C3360 0.913 . S
H3380 C3398 0.951 . S
H3381 C3400 0.951 . S
H3382 C3402 0.950 . S
H3383 C3403 0.950 . S
H3384 C3405 0.950 . S
H3385 C3408 0.950 . S
H3386 C3409 0.950 . S
H3387 C3411 0.950 . S
H3388 C3412 0.950 . S
H3389 C3413 0.951 . S
H3390 C3415 0.951 . S
H3391 C3417 0.950 . S
H3392 C3418 0.950 . S
H3393 C3420 0.950 . S
H3394 C3423 0.950 . S
H3395 C3424 0.950 . S
H3396 C3426 0.950 . S
H3397 C3427 0.950 . S
C3398 H3380 0.951 . S
C3398 C3399 1.366 . S
C3398 C3400 1.388 . S
C3399 C3398 1.366 . S
C3399 C3403 1.385 . S
C3400 H3381 0.951 . S
C3400 C3398 1.388 . S
C3400 C3401 1.366 . S
C3401 C3400 1.366 . S
C3401 C3402 1.414 . S
C3401 C3404 1.499 . S
C3402 H3382 0.950 . S
C3402 C3401 1.414 . S
C3402 C3403 1.374 . S
C3403 H3383 0.950 . S
C3403 C3399 1.385 . S
C3403 C3402 1.374 . S
C3404 C3401 1.499 . S
C3404 C3405 1.373 . S
C3404 C3406 1.389 . S
C3405 H3384 0.950 . S
C3405 C3404 1.373 . S
C3405 C3421 1.377 . S
C3406 C3404 1.389 . S
C3406 C3407 1.524 . S
C3406 C3420 1.377 . S
C3407 C3406 1.524 . S
C3407 C3408 1.397 . S
C3407 C3412 1.363 . S
C3408 H3385 0.950 . S
C3408 C3407 1.397 . S
C3408 C3409 1.334 . S
C3409 H3386 0.950 . S
C3409 C3408 1.334 . S
C3409 C3410 1.287 . S
C3410 C3409 1.287 . S
C3410 C3411 1.524 . S
C3410 H3429 0.913 . S
C3411 H3387 0.950 . S
C3411 C3410 1.524 . S
C3411 C3412 1.415 . S
C3412 H3388 0.950 . S
C3412 C3407 1.363 . S
C3412 C3411 1.415 . S
C3413 H3389 0.951 . S
C3413 C3414 1.366 . S
C3413 C3415 1.388 . S
C3414 C3413 1.366 . S
C3414 C3418 1.385 . S
C3415 H3390 0.951 . S
C3415 C3413 1.388 . S
C3415 C3416 1.366 . S
C3416 C3415 1.366 . S
C3416 C3417 1.414 . S
C3416 C3419 1.499 . S
C3417 H3391 0.950 . S
C3417 C3416 1.414 . S
C3417 C3418 1.374 . S
C3418 H3392 0.950 . S
C3418 C3414 1.385 . S
C3418 C3417 1.374 . S
C3419 C3416 1.499 . S
C3419 C3420 1.373 . S
C3419 C3421 1.389 . S
C3420 H3393 0.950 . S
C3420 C3406 1.377 . S
C3420 C3419 1.373 . S
C3421 C3405 1.377 . S
C3421 C3419 1.389 . S
C3421 C3422 1.524 . S
C3422 C3421 1.524 . S
C3422 C3423 1.397 . S
C3422 C3427 1.363 . S
C3423 H3394 0.950 . S
C3423 C3422 1.397 . S
C3423 C3424 1.334 . S
C3424 H3395 0.950 . S
C3424 C3423 1.334 . S
C3424 C3425 1.287 . S
C3425 C3424 1.287 . S
C3425 C3426 1.524 . S
C3425 H3428 0.999 . S
C3426 H3396 0.950 . S
C3426 C3425 1.524 . S
C3426 C3427 1.415 . S
C3427 H3397 0.950 . S
C3427 C3422 1.363 . S
C3427 C3426 1.415 . S
H3428 C3425 0.999 . S
H3429 C3410 0.913 . S
H3430 C3448 0.951 . S
H3431 C3450 0.951 . S
H3432 C3452 0.950 . S
H3433 C3453 0.950 . S
H3434 C3455 0.950 . S
H3435 C3458 0.950 . S
H3436 C3459 0.950 . S
H3437 C3461 0.950 . S
H3438 C3462 0.950 . S
H3439 C3463 0.951 . S
H3440 C3465 0.951 . S
H3441 C3467 0.950 . S
H3442 C3468 0.950 . S
H3443 C3470 0.950 . S
H3444 C3473 0.950 . S
H3445 C3474 0.950 . S
H3446 C3476 0.950 . S
H3447 C3477 0.950 . S
C3448 H3430 0.951 . S
C3448 C3449 1.366 . S
C3448 C3450 1.388 . S
C3449 C3448 1.366 . S
C3449 C3453 1.385 . S
C3450 H3431 0.951 . S
C3450 C3448 1.388 . S
C3450 C3451 1.366 . S
C3451 C3450 1.366 . S
C3451 C3452 1.414 . S
C3451 C3454 1.499 . S
C3452 H3432 0.950 . S
C3452 C3451 1.414 . S
C3452 C3453 1.374 . S
C3453 H3433 0.950 . S
C3453 C3449 1.385 . S
C3453 C3452 1.374 . S
C3454 C3451 1.499 . S
C3454 C3455 1.373 . S
C3454 C3456 1.389 . S
C3455 H3434 0.950 . S
C3455 C3454 1.373 . S
C3455 C3471 1.377 . S
C3456 C3454 1.389 . S
C3456 C3457 1.524 . S
C3456 C3470 1.377 . S
C3457 C3456 1.524 . S
C3457 C3458 1.397 . S
C3457 C3462 1.363 . S
C3458 H3435 0.950 . S
C3458 C3457 1.397 . S
C3458 C3459 1.334 . S
C3459 H3436 0.950 . S
C3459 C3458 1.334 . S
C3459 C3460 1.287 . S
C3460 C3459 1.287 . S
C3460 C3461 1.524 . S
C3460 H3479 0.913 . S
C3461 H3437 0.950 . S
C3461 C3460 1.524 . S
C3461 C3462 1.415 . S
C3462 H3438 0.950 . S
C3462 C3457 1.363 . S
C3462 C3461 1.415 . S
C3463 H3439 0.951 . S
C3463 C3464 1.366 . S
C3463 C3465 1.388 . S
C3464 C3463 1.366 . S
C3464 C3468 1.385 . S
C3465 H3440 0.951 . S
C3465 C3463 1.388 . S
C3465 C3466 1.366 . S
C3466 C3465 1.366 . S
C3466 C3467 1.414 . S
C3466 C3469 1.499 . S
C3467 H3441 0.950 . S
C3467 C3466 1.414 . S
C3467 C3468 1.374 . S
C3468 H3442 0.950 . S
C3468 C3464 1.385 . S
C3468 C3467 1.374 . S
C3469 C3466 1.499 . S
C3469 C3470 1.373 . S
C3469 C3471 1.389 . S
C3470 H3443 0.950 . S
C3470 C3456 1.377 . S
C3470 C3469 1.373 . S
C3471 C3455 1.377 . S
C3471 C3469 1.389 . S
C3471 C3472 1.524 . S
C3472 C3471 1.524 . S
C3472 C3473 1.397 . S
C3472 C3477 1.363 . S
C3473 H3444 0.950 . S
C3473 C3472 1.397 . S
C3473 C3474 1.334 . S
C3474 H3445 0.950 . S
C3474 C3473 1.334 . S
C3474 C3475 1.287 . S
C3475 C3474 1.287 . S
C3475 C3476 1.524 . S
C3475 H3478 0.999 . S
C3476 H3446 0.950 . S
C3476 C3475 1.524 . S
C3476 C3477 1.415 . S
C3477 H3447 0.950 . S
C3477 C3472 1.363 . S
C3477 C3476 1.415 . S
H3478 C3475 0.999 . S
H3479 C3460 0.913 . S
H3480 C3498 0.951 . S
H3481 C3500 0.951 . S
H3482 C3502 0.950 . S
H3483 C3503 0.950 . S
H3484 C3505 0.950 . S
H3485 C3508 0.950 . S
H3486 C3509 0.950 . S
H3487 C3511 0.950 . S
H3488 C3512 0.950 . S
H3489 C3513 0.951 . S
H3490 C3515 0.951 . S
H3491 C3517 0.950 . S
H3492 C3518 0.950 . S
H3493 C3520 0.950 . S
H3494 C3523 0.950 . S
H3495 C3524 0.950 . S
H3496 C3526 0.950 . S
H3497 C3527 0.950 . S
C3498 H3480 0.951 . S
C3498 C3499 1.366 . S
C3498 C3500 1.388 . S
C3499 C3498 1.366 . S
C3499 C3503 1.385 . S
C3500 H3481 0.951 . S
C3500 C3498 1.388 . S
C3500 C3501 1.366 . S
C3501 C3500 1.366 . S
C3501 C3502 1.414 . S
C3501 C3504 1.499 . S
C3502 H3482 0.950 . S
C3502 C3501 1.414 . S
C3502 C3503 1.374 . S
C3503 H3483 0.950 . S
C3503 C3499 1.385 . S
C3503 C3502 1.374 . S
C3504 C3501 1.499 . S
C3504 C3505 1.373 . S
C3504 C3506 1.389 . S
C3505 H3484 0.950 . S
C3505 C3504 1.373 . S
C3505 C3521 1.377 . S
C3506 C3504 1.389 . S
C3506 C3507 1.524 . S
C3506 C3520 1.377 . S
C3507 C3506 1.524 . S
C3507 C3508 1.397 . S
C3507 C3512 1.363 . S
C3508 H3485 0.950 . S
C3508 C3507 1.397 . S
C3508 C3509 1.334 . S
C3509 H3486 0.950 . S
C3509 C3508 1.334 . S
C3509 C3510 1.287 . S
C3510 C3509 1.287 . S
C3510 C3511 1.524 . S
C3510 H3529 0.913 . S
C3511 H3487 0.950 . S
C3511 C3510 1.524 . S
C3511 C3512 1.415 . S
C3512 H3488 0.950 . S
C3512 C3507 1.363 . S
C3512 C3511 1.415 . S
C3513 H3489 0.951 . S
C3513 C3514 1.366 . S
C3513 C3515 1.388 . S
C3514 C3513 1.366 . S
C3514 C3518 1.385 . S
C3515 H3490 0.951 . S
C3515 C3513 1.388 . S
C3515 C3516 1.366 . S
C3516 C3515 1.366 . S
C3516 C3517 1.414 . S
C3516 C3519 1.499 . S
C3517 H3491 0.950 . S
C3517 C3516 1.414 . S
C3517 C3518 1.374 . S
C3518 H3492 0.950 . S
C3518 C3514 1.385 . S
C3518 C3517 1.374 . S
C3519 C3516 1.499 . S
C3519 C3520 1.373 . S
C3519 C3521 1.389 . S
C3520 H3493 0.950 . S
C3520 C3506 1.377 . S
C3520 C3519 1.373 . S
C3521 C3505 1.377 . S
C3521 C3519 1.389 . S
C3521 C3522 1.524 . S
C3522 C3521 1.524 . S
C3522 C3523 1.397 . S
C3522 C3527 1.363 . S
C3523 H3494 0.950 . S
C3523 C3522 1.397 . S
C3523 C3524 1.334 . S
C3524 H3495 0.950 . S
C3524 C3523 1.334 . S
C3524 C3525 1.287 . S
C3525 C3524 1.287 . S
C3525 C3526 1.524 . S
C3525 H3528 0.999 . S
C3526 H3496 0.950 . S
C3526 C3525 1.524 . S
C3526 C3527 1.415 . S
C3527 H3497 0.950 . S
C3527 C3522 1.363 . S
C3527 C3526 1.415 . S
H3528 C3525 0.999 . S
H3529 C3510 0.913 . S
H3530 C3548 0.951 . S
H3531 C3550 0.951 . S
H3532 C3552 0.950 . S
H3533 C3553 0.950 . S
H3534 C3555 0.950 . S
H3535 C3558 0.950 . S
H3536 C3559 0.950 . S
H3537 C3561 0.950 . S
H3538 C3562 0.950 . S
H3539 C3563 0.951 . S
H3540 C3565 0.951 . S
H3541 C3567 0.950 . S
H3542 C3568 0.950 . S
H3543 C3570 0.950 . S
H3544 C3573 0.950 . S
H3545 C3574 0.950 . S
H3546 C3576 0.950 . S
H3547 C3577 0.950 . S
C3548 H3530 0.951 . S
C3548 C3549 1.366 . S
C3548 C3550 1.388 . S
C3549 C3548 1.366 . S
C3549 C3553 1.385 . S
C3550 H3531 0.951 . S
C3550 C3548 1.388 . S
C3550 C3551 1.366 . S
C3551 C3550 1.366 . S
C3551 C3552 1.414 . S
C3551 C3554 1.499 . S
C3552 H3532 0.950 . S
C3552 C3551 1.414 . S
C3552 C3553 1.374 . S
C3553 H3533 0.950 . S
C3553 C3549 1.385 . S
C3553 C3552 1.374 . S
C3554 C3551 1.499 . S
C3554 C3555 1.373 . S
C3554 C3556 1.389 . S
C3555 H3534 0.950 . S
C3555 C3554 1.373 . S
C3555 C3571 1.377 . S
C3556 C3554 1.389 . S
C3556 C3557 1.524 . S
C3556 C3570 1.377 . S
C3557 C3556 1.524 . S
C3557 C3558 1.397 . S
C3557 C3562 1.363 . S
C3558 H3535 0.950 . S
C3558 C3557 1.397 . S
C3558 C3559 1.334 . S
C3559 H3536 0.950 . S
C3559 C3558 1.334 . S
C3559 C3560 1.287 . S
C3560 C3559 1.287 . S
C3560 C3561 1.524 . S
C3560 H3579 0.913 . S
C3561 H3537 0.950 . S
C3561 C3560 1.524 . S
C3561 C3562 1.415 . S
C3562 H3538 0.950 . S
C3562 C3557 1.363 . S
C3562 C3561 1.415 . S
C3563 H3539 0.951 . S
C3563 C3564 1.366 . S
C3563 C3565 1.388 . S
C3564 C3563 1.366 . S
C3564 C3568 1.385 . S
C3565 H3540 0.951 . S
C3565 C3563 1.388 . S
C3565 C3566 1.366 . S
C3566 C3565 1.366 . S
C3566 C3567 1.414 . S
C3566 C3569 1.499 . S
C3567 H3541 0.950 . S
C3567 C3566 1.414 . S
C3567 C3568 1.374 . S
C3568 H3542 0.950 . S
C3568 C3564 1.385 . S
C3568 C3567 1.374 . S
C3569 C3566 1.499 . S
C3569 C3570 1.373 . S
C3569 C3571 1.389 . S
C3570 H3543 0.950 . S
C3570 C3556 1.377 . S
C3570 C3569 1.373 . S
C3571 C3555 1.377 . S
C3571 C3569 1.389 . S
C3571 C3572 1.524 . S
C3572 C3571 1.524 . S
C3572 C3573 1.397 . S
C3572 C3577 1.363 . S
C3573 H3544 0.950 . S
C3573 C3572 1.397 . S
C3573 C3574 1.334 . S
C3574 H3545 0.950 . S
C3574 C3573 1.334 . S
C3574 C3575 1.287 . S
C3575 C3574 1.287 . S
C3575 C3576 1.524 . S
C3575 H3578 0.999 . S
C3576 H3546 0.950 . S
C3576 C3575 1.524 . S
C3576 C3577 1.415 . S
C3577 H3547 0.950 . S
C3577 C3572 1.363 . S
C3577 C3576 1.415 . S
H3578 C3575 0.999 . S
H3579 C3560 0.913 . S
H3580 C3598 0.951 . S
H3581 C3600 0.951 . S
H3582 C3602 0.950 . S
H3583 C3603 0.950 . S
H3584 C3605 0.950 . S
H3585 C3608 0.950 . S
H3586 C3609 0.950 . S
H3587 C3611 0.950 . S
H3588 C3612 0.950 . S
H3589 C3613 0.951 . S
H3590 C3615 0.951 . S
H3591 C3617 0.950 . S
H3592 C3618 0.950 . S
H3593 C3620 0.950 . S
H3594 C3623 0.950 . S
H3595 C3624 0.950 . S
H3596 C3626 0.950 . S
H3597 C3627 0.950 . S
C3598 H3580 0.951 . S
C3598 C3599 1.366 . S
C3598 C3600 1.388 . S
C3599 C3598 1.366 . S
C3599 C3603 1.385 . S
C3600 H3581 0.951 . S
C3600 C3598 1.388 . S
C3600 C3601 1.366 . S
C3601 C3600 1.366 . S
C3601 C3602 1.414 . S
C3601 C3604 1.499 . S
C3602 H3582 0.950 . S
C3602 C3601 1.414 . S
C3602 C3603 1.374 . S
C3603 H3583 0.950 . S
C3603 C3599 1.385 . S
C3603 C3602 1.374 . S
C3604 C3601 1.499 . S
C3604 C3605 1.373 . S
C3604 C3606 1.389 . S
C3605 H3584 0.950 . S
C3605 C3604 1.373 . S
C3605 C3621 1.377 . S
C3606 C3604 1.389 . S
C3606 C3607 1.524 . S
C3606 C3620 1.377 . S
C3607 C3606 1.524 . S
C3607 C3608 1.397 . S
C3607 C3612 1.363 . S
C3608 H3585 0.950 . S
C3608 C3607 1.397 . S
C3608 C3609 1.334 . S
C3609 H3586 0.950 . S
C3609 C3608 1.334 . S
C3609 C3610 1.287 . S
C3610 C3609 1.287 . S
C3610 C3611 1.524 . S
C3610 H3629 0.913 . S
C3611 H3587 0.950 . S
C3611 C3610 1.524 . S
C3611 C3612 1.415 . S
C3612 H3588 0.950 . S
C3612 C3607 1.363 . S
C3612 C3611 1.415 . S
C3613 H3589 0.951 . S
C3613 C3614 1.366 . S
C3613 C3615 1.388 . S
C3614 C3613 1.366 . S
C3614 C3618 1.385 . S
C3615 H3590 0.951 . S
C3615 C3613 1.388 . S
C3615 C3616 1.366 . S
C3616 C3615 1.366 . S
C3616 C3617 1.414 . S
C3616 C3619 1.499 . S
C3617 H3591 0.950 . S
C3617 C3616 1.414 . S
C3617 C3618 1.374 . S
C3618 H3592 0.950 . S
C3618 C3614 1.385 . S
C3618 C3617 1.374 . S
C3619 C3616 1.499 . S
C3619 C3620 1.373 . S
C3619 C3621 1.389 . S
C3620 H3593 0.950 . S
C3620 C3606 1.377 . S
C3620 C3619 1.373 . S
C3621 C3605 1.377 . S
C3621 C3619 1.389 . S
C3621 C3622 1.524 . S
C3622 C3621 1.524 . S
C3622 C3623 1.397 . S
C3622 C3627 1.363 . S
C3623 H3594 0.950 . S
C3623 C3622 1.397 . S
C3623 C3624 1.334 . S
C3624 H3595 0.950 . S
C3624 C3623 1.334 . S
C3624 C3625 1.287 . S
C3625 C3624 1.287 . S
C3625 C3626 1.524 . S
C3625 H3628 0.999 . S
C3626 H3596 0.950 . S
C3626 C3625 1.524 . S
C3626 C3627 1.415 . S
C3627 H3597 0.950 . S
C3627 C3622 1.363 . S
C3627 C3626 1.415 . S
H3628 C3625 0.999 . S
H3629 C3610 0.913 . S
H3630 C3648 0.951 . S
H3631 C3650 0.951 . S
H3632 C3652 0.950 . S
H3633 C3653 0.950 . S
H3634 C3655 0.950 . S
H3635 C3658 0.950 . S
H3636 C3659 0.950 . S
H3637 C3661 0.950 . S
H3638 C3662 0.950 . S
H3639 C3663 0.951 . S
H3640 C3665 0.951 . S
H3641 C3667 0.950 . S
H3642 C3668 0.950 . S
H3643 C3670 0.950 . S
H3644 C3673 0.950 . S
H3645 C3674 0.950 . S
H3646 C3676 0.950 . S
H3647 C3677 0.950 . S
C3648 H3630 0.951 . S
C3648 C3649 1.366 . S
C3648 C3650 1.388 . S
C3649 C3648 1.366 . S
C3649 C3653 1.385 . S
C3650 H3631 0.951 . S
C3650 C3648 1.388 . S
C3650 C3651 1.366 . S
C3651 C3650 1.366 . S
C3651 C3652 1.414 . S
C3651 C3654 1.499 . S
C3652 H3632 0.950 . S
C3652 C3651 1.414 . S
C3652 C3653 1.374 . S
C3653 H3633 0.950 . S
C3653 C3649 1.385 . S
C3653 C3652 1.374 . S
C3654 C3651 1.499 . S
C3654 C3655 1.373 . S
C3654 C3656 1.389 . S
C3655 H3634 0.950 . S
C3655 C3654 1.373 . S
C3655 C3671 1.377 . S
C3656 C3654 1.389 . S
C3656 C3657 1.524 . S
C3656 C3670 1.377 . S
C3657 C3656 1.524 . S
C3657 C3658 1.397 . S
C3657 C3662 1.363 . S
C3658 H3635 0.950 . S
C3658 C3657 1.397 . S
C3658 C3659 1.334 . S
C3659 H3636 0.950 . S
C3659 C3658 1.334 . S
C3659 C3660 1.287 . S
C3660 C3659 1.287 . S
C3660 C3661 1.524 . S
C3660 H3679 0.913 . S
C3661 H3637 0.950 . S
C3661 C3660 1.524 . S
C3661 C3662 1.415 . S
C3662 H3638 0.950 . S
C3662 C3657 1.363 . S
C3662 C3661 1.415 . S
C3663 H3639 0.951 . S
C3663 C3664 1.366 . S
C3663 C3665 1.388 1_455 S
C3664 C3663 1.366 . S
C3664 C3668 1.385 . S
C3665 H3640 0.951 . S
C3665 C3663 1.388 1_655 S
C3665 C3666 1.366 . S
C3666 C3665 1.366 . S
C3666 C3667 1.414 1_655 S
C3666 C3669 1.499 . S
C3667 H3641 0.950 . S
C3667 C3666 1.414 1_455 S
C3667 C3668 1.374 . S
C3668 H3642 0.950 . S
C3668 C3664 1.385 . S
C3668 C3667 1.374 . S
C3669 C3666 1.499 . S
C3669 C3670 1.373 . S
C3669 C3671 1.389 . S
C3670 H3643 0.950 . S
C3670 C3656 1.377 . S
C3670 C3669 1.373 . S
C3671 C3655 1.377 . S
C3671 C3669 1.389 . S
C3671 C3672 1.524 . S
C3672 C3671 1.524 . S
C3672 C3673 1.397 . S
C3672 C3677 1.363 . S
C3673 H3644 0.950 . S
C3673 C3672 1.397 . S
C3673 C3674 1.334 . S
C3674 H3645 0.950 . S
C3674 C3673 1.334 . S
C3674 C3675 1.287 . S
C3675 C3674 1.287 . S
C3675 C3676 1.524 . S
C3675 H3678 0.999 . S
C3676 H3646 0.950 . S
C3676 C3675 1.524 . S
C3676 C3677 1.415 . S
C3677 H3647 0.950 . S
C3677 C3672 1.363 . S
C3677 C3676 1.415 . S
H3678 C3675 0.999 . S
H3679 C3660 0.913 . S
H3680 C3698 0.951 . S
H3681 C3700 0.951 . S
H3682 C3702 0.950 . S
H3683 C3703 0.950 . S
H3684 C3705 0.950 . S
H3685 C3708 0.950 . S
H3686 C3709 0.950 . S
H3687 C3711 0.950 . S
H3688 C3712 0.950 . S
H3689 C3713 0.951 . S
H3690 C3715 0.951 . S
H3691 C3717 0.950 . S
H3692 C3718 0.950 . S
H3693 C3720 0.950 . S
H3694 C3723 0.950 . S
H3695 C3724 0.950 . S
H3696 C3726 0.950 . S
H3697 C3727 0.950 . S
C3698 H3680 0.951 . S
C3698 C3699 1.366 . S
C3698 C3700 1.388 . S
C3699 C3698 1.366 . S
C3699 C3703 1.385 . S
C3700 H3681 0.951 . S
C3700 C3698 1.388 . S
C3700 C3701 1.366 . S
C3701 C3700 1.366 . S
C3701 C3702 1.414 . S
C3701 C3704 1.499 . S
C3702 H3682 0.950 . S
C3702 C3701 1.414 . S
C3702 C3703 1.374 . S
C3703 H3683 0.950 . S
C3703 C3699 1.385 . S
C3703 C3702 1.374 . S
C3704 C3701 1.499 . S
C3704 C3705 1.373 . S
C3704 C3706 1.389 . S
C3705 H3684 0.950 . S
C3705 C3704 1.373 . S
C3705 C3721 1.377 . S
C3706 C3704 1.389 . S
C3706 C3707 1.524 . S
C3706 C3720 1.377 . S
C3707 C3706 1.524 . S
C3707 C3708 1.397 . S
C3707 C3712 1.363 . S
C3708 H3685 0.950 . S
C3708 C3707 1.397 . S
C3708 C3709 1.334 . S
C3709 H3686 0.950 . S
C3709 C3708 1.334 . S
C3709 C3710 1.287 . S
C3710 C3709 1.287 . S
C3710 C3711 1.524 . S
C3710 H3729 0.913 . S
C3711 H3687 0.950 . S
C3711 C3710 1.524 . S
C3711 C3712 1.415 . S
C3712 H3688 0.950 . S
C3712 C3707 1.363 . S
C3712 C3711 1.415 . S
C3713 H3689 0.951 . S
C3713 C3714 1.366 . S
C3713 C3715 1.388 . S
C3714 C3713 1.366 . S
C3714 C3718 1.385 . S
C3715 H3690 0.951 . S
C3715 C3713 1.388 . S
C3715 C3716 1.366 . S
C3716 C3715 1.366 . S
C3716 C3717 1.414 . S
C3716 C3719 1.499 . S
C3717 H3691 0.950 . S
C3717 C3716 1.414 . S
C3717 C3718 1.374 . S
C3718 H3692 0.950 . S
C3718 C3714 1.385 . S
C3718 C3717 1.374 . S
C3719 C3716 1.499 . S
C3719 C3720 1.373 . S
C3719 C3721 1.389 . S
C3720 H3693 0.950 . S
C3720 C3706 1.377 . S
C3720 C3719 1.373 . S
C3721 C3705 1.377 . S
C3721 C3719 1.389 . S
C3721 C3722 1.524 . S
C3722 C3721 1.524 . S
C3722 C3723 1.397 . S
C3722 C3727 1.363 . S
C3723 H3694 0.950 . S
C3723 C3722 1.397 . S
C3723 C3724 1.334 . S
C3724 H3695 0.950 . S
C3724 C3723 1.334 . S
C3724 C3725 1.287 . S
C3725 C3724 1.287 . S
C3725 C3726 1.524 . S
C3725 H3728 0.999 . S
C3726 H3696 0.950 . S
C3726 C3725 1.524 . S
C3726 C3727 1.415 . S
C3727 H3697 0.950 . S
C3727 C3722 1.363 . S
C3727 C3726 1.415 . S
H3728 C3725 0.999 . S
H3729 C3710 0.913 . S
H3730 C3748 0.951 . S
H3731 C3750 0.951 . S
H3732 C3752 0.950 . S
H3733 C3753 0.950 . S
H3734 C3755 0.950 . S
H3735 C3758 0.950 . S
H3736 C3759 0.950 . S
H3737 C3761 0.950 . S
H3738 C3762 0.950 . S
H3739 C3763 0.951 . S
H3740 C3765 0.951 . S
H3741 C3767 0.950 . S
H3742 C3768 0.950 . S
H3743 C3770 0.950 . S
H3744 C3773 0.950 . S
H3745 C3774 0.950 . S
H3746 C3776 0.950 . S
H3747 C3777 0.950 . S
C3748 H3730 0.951 . S
C3748 C3749 1.366 . S
C3748 C3750 1.388 . S
C3749 C3748 1.366 . S
C3749 C3753 1.385 . S
C3750 H3731 0.951 . S
C3750 C3748 1.388 . S
C3750 C3751 1.366 . S
C3751 C3750 1.366 . S
C3751 C3752 1.414 . S
C3751 C3754 1.499 . S
C3752 H3732 0.950 . S
C3752 C3751 1.414 . S
C3752 C3753 1.374 . S
C3753 H3733 0.950 . S
C3753 C3749 1.385 . S
C3753 C3752 1.374 . S
C3754 C3751 1.499 . S
C3754 C3755 1.373 . S
C3754 C3756 1.389 . S
C3755 H3734 0.950 . S
C3755 C3754 1.373 . S
C3755 C3771 1.377 . S
C3756 C3754 1.389 . S
C3756 C3757 1.524 . S
C3756 C3770 1.377 . S
C3757 C3756 1.524 . S
C3757 C3758 1.397 . S
C3757 C3762 1.363 . S
C3758 H3735 0.950 . S
C3758 C3757 1.397 . S
C3758 C3759 1.334 . S
C3759 H3736 0.950 . S
C3759 C3758 1.334 . S
C3759 C3760 1.287 . S
C3760 C3759 1.287 . S
C3760 C3761 1.524 . S
C3760 H3779 0.913 . S
C3761 H3737 0.950 . S
C3761 C3760 1.524 . S
C3761 C3762 1.415 . S
C3762 H3738 0.950 . S
C3762 C3757 1.363 . S
C3762 C3761 1.415 . S
C3763 H3739 0.951 . S
C3763 C3764 1.366 . S
C3763 C3765 1.388 . S
C3764 C3763 1.366 . S
C3764 C3768 1.385 . S
C3765 H3740 0.951 . S
C3765 C3763 1.388 . S
C3765 C3766 1.366 . S
C3766 C3765 1.366 . S
C3766 C3767 1.414 . S
C3766 C3769 1.499 . S
C3767 H3741 0.950 . S
C3767 C3766 1.414 . S
C3767 C3768 1.374 . S
C3768 H3742 0.950 . S
C3768 C3764 1.385 . S
C3768 C3767 1.374 . S
C3769 C3766 1.499 . S
C3769 C3770 1.373 . S
C3769 C3771 1.389 . S
C3770 H3743 0.950 . S
C3770 C3756 1.377 . S
C3770 C3769 1.373 . S
C3771 C3755 1.377 . S
C3771 C3769 1.389 . S
C3771 C3772 1.524 . S
C3772 C3771 1.524 . S
C3772 C3773 1.397 . S
C3772 C3777 1.363 . S
C3773 H3744 0.950 . S
C3773 C3772 1.397 . S
C3773 C3774 1.334 . S
C3774 H3745 0.950 . S
C3774 C3773 1.334 . S
C3774 C3775 1.287 . S
C3775 C3774 1.287 . S
C3775 C3776 1.524 . S
C3775 H3778 0.999 . S
C3776 H3746 0.950 . S
C3776 C3775 1.524 . S
C3776 C3777 1.415 . S
C3777 H3747 0.950 . S
C3777 C3772 1.363 . S
C3777 C3776 1.415 . S
H3778 C3775 0.999 . S
H3779 C3760 0.913 . S
H3780 C3798 0.951 . S
H3781 C3800 0.951 . S
H3782 C3802 0.950 . S
H3783 C3803 0.950 . S
H3784 C3805 0.950 . S
H3785 C3808 0.950 . S
H3786 C3809 0.950 . S
H3787 C3811 0.950 . S
H3788 C3812 0.950 . S
H3789 C3813 0.951 . S
H3790 C3815 0.951 . S
H3791 C3817 0.950 . S
H3792 C3818 0.950 . S
H3793 C3820 0.950 . S
H3794 C3823 0.950 . S
H3795 C3824 0.950 . S
H3796 C3826 0.950 . S
H3797 C3827 0.950 . S
C3798 H3780 0.951 . S
C3798 C3799 1.366 . S
C3798 C3800 1.388 . S
C3799 C3798 1.366 . S
C3799 C3803 1.385 . S
C3800 H3781 0.951 . S
C3800 C3798 1.388 . S
C3800 C3801 1.366 . S
C3801 C3800 1.366 . S
C3801 C3802 1.414 . S
C3801 C3804 1.499 . S
C3802 H3782 0.950 . S
C3802 C3801 1.414 . S
C3802 C3803 1.374 . S
C3803 H3783 0.950 . S
C3803 C3799 1.385 . S
C3803 C3802 1.374 . S
C3804 C3801 1.499 . S
C3804 C3805 1.373 . S
C3804 C3806 1.389 . S
C3805 H3784 0.950 . S
C3805 C3804 1.373 . S
C3805 C3821 1.377 . S
C3806 C3804 1.389 . S
C3806 C3807 1.524 . S
C3806 C3820 1.377 . S
C3807 C3806 1.524 . S
C3807 C3808 1.397 . S
C3807 C3812 1.363 . S
C3808 H3785 0.950 . S
C3808 C3807 1.397 . S
C3808 C3809 1.334 . S
C3809 H3786 0.950 . S
C3809 C3808 1.334 . S
C3809 C3810 1.287 . S
C3810 C3809 1.287 . S
C3810 C3811 1.524 . S
C3810 H3829 0.913 . S
C3811 H3787 0.950 . S
C3811 C3810 1.524 . S
C3811 C3812 1.415 . S
C3812 H3788 0.950 . S
C3812 C3807 1.363 . S
C3812 C3811 1.415 . S
C3813 H3789 0.951 . S
C3813 C3814 1.366 . S
C3813 C3815 1.388 . S
C3814 C3813 1.366 . S
C3814 C3818 1.385 . S
C3815 H3790 0.951 . S
C3815 C3813 1.388 . S
C3815 C3816 1.366 . S
C3816 C3815 1.366 . S
C3816 C3817 1.414 . S
C3816 C3819 1.499 . S
C3817 H3791 0.950 . S
C3817 C3816 1.414 . S
C3817 C3818 1.374 . S
C3818 H3792 0.950 . S
C3818 C3814 1.385 . S
C3818 C3817 1.374 . S
C3819 C3816 1.499 . S
C3819 C3820 1.373 . S
C3819 C3821 1.389 . S
C3820 H3793 0.950 . S
C3820 C3806 1.377 . S
C3820 C3819 1.373 . S
C3821 C3805 1.377 . S
C3821 C3819 1.389 . S
C3821 C3822 1.524 . S
C3822 C3821 1.524 . S
C3822 C3823 1.397 . S
C3822 C3827 1.363 . S
C3823 H3794 0.950 . S
C3823 C3822 1.397 . S
C3823 C3824 1.334 . S
C3824 H3795 0.950 . S
C3824 C3823 1.334 . S
C3824 C3825 1.287 . S
C3825 C3824 1.287 . S
C3825 C3826 1.524 . S
C3825 H3828 0.999 . S
C3826 H3796 0.950 . S
C3826 C3825 1.524 . S
C3826 C3827 1.415 . S
C3827 H3797 0.950 . S
C3827 C3822 1.363 . S
C3827 C3826 1.415 . S
H3828 C3825 0.999 . S
H3829 C3810 0.913 . S
H3830 C3848 0.951 . S
H3831 C3850 0.951 . S
H3832 C3852 0.950 . S
H3833 C3853 0.950 . S
H3834 C3855 0.950 . S
H3835 C3858 0.950 . S
H3836 C3859 0.950 . S
H3837 C3861 0.950 . S
H3838 C3862 0.950 . S
H3839 C3863 0.951 . S
H3840 C3865 0.951 . S
H3841 C3867 0.950 . S
H3842 C3868 0.950 . S
H3843 C3870 0.950 . S
H3844 C3873 0.950 . S
H3845 C3874 0.950 . S
H3846 C3876 0.950 . S
H3847 C3877 0.950 . S
C3848 H3830 0.951 . S
C3848 C3849 1.366 . S
C3848 C3850 1.388 . S
C3849 C3848 1.366 . S
C3849 C3853 1.385 . S
C3850 H3831 0.951 . S
C3850 C3848 1.388 . S
C3850 C3851 1.366 . S
C3851 C3850 1.366 . S
C3851 C3852 1.414 . S
C3851 C3854 1.499 . S
C3852 H3832 0.950 . S
C3852 C3851 1.414 . S
C3852 C3853 1.374 . S
C3853 H3833 0.950 . S
C3853 C3849 1.385 . S
C3853 C3852 1.374 . S
C3854 C3851 1.499 . S
C3854 C3855 1.373 . S
C3854 C3856 1.389 . S
C3855 H3834 0.950 . S
C3855 C3854 1.373 . S
C3855 C3871 1.377 . S
C3856 C3854 1.389 . S
C3856 C3857 1.524 . S
C3856 C3870 1.377 . S
C3857 C3856 1.524 . S
C3857 C3858 1.397 . S
C3857 C3862 1.363 . S
C3858 H3835 0.950 . S
C3858 C3857 1.397 . S
C3858 C3859 1.334 . S
C3859 H3836 0.950 . S
C3859 C3858 1.334 . S
C3859 C3860 1.287 . S
C3860 C3859 1.287 . S
C3860 C3861 1.524 . S
C3860 H3879 0.913 . S
C3861 H3837 0.950 . S
C3861 C3860 1.524 . S
C3861 C3862 1.415 . S
C3862 H3838 0.950 . S
C3862 C3857 1.363 . S
C3862 C3861 1.415 . S
C3863 H3839 0.951 . S
C3863 C3864 1.366 . S
C3863 C3865 1.388 . S
C3864 C3863 1.366 . S
C3864 C3868 1.385 . S
C3865 H3840 0.951 . S
C3865 C3863 1.388 . S
C3865 C3866 1.366 1_455 S
C3866 C3865 1.366 1_655 S
C3866 C3867 1.414 . S
C3866 C3869 1.499 . S
C3867 H3841 0.950 . S
C3867 C3866 1.414 . S
C3867 C3868 1.374 1_655 S
C3868 H3842 0.950 . S
C3868 C3864 1.385 . S
C3868 C3867 1.374 1_455 S
C3869 C3866 1.499 . S
C3869 C3870 1.373 . S
C3869 C3871 1.389 . S
C3870 H3843 0.950 . S
C3870 C3856 1.377 . S
C3870 C3869 1.373 . S
C3871 C3855 1.377 . S
C3871 C3869 1.389 . S
C3871 C3872 1.524 . S
C3872 C3871 1.524 . S
C3872 C3873 1.397 . S
C3872 C3877 1.363 . S
C3873 H3844 0.950 . S
C3873 C3872 1.397 . S
C3873 C3874 1.334 . S
C3874 H3845 0.950 . S
C3874 C3873 1.334 . S
C3874 C3875 1.287 . S
C3875 C3874 1.287 . S
C3875 C3876 1.524 . S
C3875 H3878 0.999 . S
C3876 H3846 0.950 . S
C3876 C3875 1.524 . S
C3876 C3877 1.415 . S
C3877 H3847 0.950 . S
C3877 C3872 1.363 . S
C3877 C3876 1.415 . S
H3878 C3875 0.999 . S
H3879 C3860 0.913 . S
H3880 C3898 0.951 . S
H3881 C3900 0.951 . S
H3882 C3902 0.950 . S
H3883 C3903 0.950 . S
H3884 C3905 0.950 . S
H3885 C3908 0.950 . S
H3886 C3909 0.950 . S
H3887 C3911 0.950 . S
H3888 C3912 0.950 . S
H3889 C3913 0.951 . S
H3890 C3915 0.951 . S
H3891 C3917 0.950 . S
H3892 C3918 0.950 . S
H3893 C3920 0.950 . S
H3894 C3923 0.950 . S
H3895 C3924 0.950 . S
H3896 C3926 0.950 . S
H3897 C3927 0.950 . S
C3898 H3880 0.951 . S
C3898 C3899 1.366 . S
C3898 C3900 1.388 . S
C3899 C3898 1.366 . S
C3899 C3903 1.385 . S
C3900 H3881 0.951 . S
C3900 C3898 1.388 . S
C3900 C3901 1.366 . S
C3901 C3900 1.366 . S
C3901 C3902 1.414 . S
C3901 C3904 1.499 . S
C3902 H3882 0.950 . S
C3902 C3901 1.414 . S
C3902 C3903 1.374 . S
C3903 H3883 0.950 . S
C3903 C3899 1.385 . S
C3903 C3902 1.374 . S
C3904 C3901 1.499 . S
C3904 C3905 1.373 . S
C3904 C3906 1.389 . S
C3905 H3884 0.950 . S
C3905 C3904 1.373 . S
C3905 C3921 1.377 . S
C3906 C3904 1.389 . S
C3906 C3907 1.524 . S
C3906 C3920 1.377 . S
C3907 C3906 1.524 . S
C3907 C3908 1.397 . S
C3907 C3912 1.363 . S
C3908 H3885 0.950 . S
C3908 C3907 1.397 . S
C3908 C3909 1.334 . S
C3909 H3886 0.950 . S
C3909 C3908 1.334 . S
C3909 C3910 1.287 . S
C3910 C3909 1.287 . S
C3910 C3911 1.524 . S
C3910 H3929 0.913 . S
C3911 H3887 0.950 . S
C3911 C3910 1.524 . S
C3911 C3912 1.415 . S
C3912 H3888 0.950 . S
C3912 C3907 1.363 . S
C3912 C3911 1.415 . S
C3913 H3889 0.951 . S
C3913 C3914 1.366 . S
C3913 C3915 1.388 . S
C3914 C3913 1.366 . S
C3914 C3918 1.385 . S
C3915 H3890 0.951 . S
C3915 C3913 1.388 . S
C3915 C3916 1.366 . S
C3916 C3915 1.366 . S
C3916 C3917 1.414 . S
C3916 C3919 1.499 . S
C3917 H3891 0.950 . S
C3917 C3916 1.414 . S
C3917 C3918 1.374 . S
C3918 H3892 0.950 . S
C3918 C3914 1.385 . S
C3918 C3917 1.374 . S
C3919 C3916 1.499 . S
C3919 C3920 1.373 . S
C3919 C3921 1.389 . S
C3920 H3893 0.950 . S
C3920 C3906 1.377 . S
C3920 C3919 1.373 . S
C3921 C3905 1.377 . S
C3921 C3919 1.389 . S
C3921 C3922 1.524 . S
C3922 C3921 1.524 . S
C3922 C3923 1.397 . S
C3922 C3927 1.363 . S
C3923 H3894 0.950 . S
C3923 C3922 1.397 . S
C3923 C3924 1.334 . S
C3924 H3895 0.950 . S
C3924 C3923 1.334 . S
C3924 C3925 1.287 . S
C3925 C3924 1.287 . S
C3925 C3926 1.524 . S
C3925 H3928 0.999 . S
C3926 H3896 0.950 . S
C3926 C3925 1.524 . S
C3926 C3927 1.415 . S
C3927 H3897 0.950 . S
C3927 C3922 1.363 . S
C3927 C3926 1.415 . S
H3928 C3925 0.999 . S
H3929 C3910 0.913 . S
H3930 C3948 0.951 . S
H3931 C3950 0.951 . S
H3932 C3952 0.950 . S
H3933 C3953 0.950 . S
H3934 C3955 0.950 . S
H3935 C3958 0.950 . S
H3936 C3959 0.950 . S
H3937 C3961 0.950 . S
H3938 C3962 0.950 . S
H3939 C3963 0.951 . S
H3940 C3965 0.951 . S
H3941 C3967 0.950 . S
H3942 C3968 0.950 . S
H3943 C3970 0.950 . S
H3944 C3973 0.950 . S
H3945 C3974 0.950 1_455 S
H3946 C3976 0.950 . S
H3947 C3977 0.950 . S
C3948 H3930 0.951 . S
C3948 C3949 1.366 . S
C3948 C3950 1.388 . S
C3949 C3948 1.366 . S
C3949 C3953 1.385 . S
C3950 H3931 0.951 . S
C3950 C3948 1.388 . S
C3950 C3951 1.366 . S
C3951 C3950 1.366 . S
C3951 C3952 1.414 . S
C3951 C3954 1.499 . S
C3952 H3932 0.950 . S
C3952 C3951 1.414 . S
C3952 C3953 1.374 . S
C3953 H3933 0.950 . S
C3953 C3949 1.385 . S
C3953 C3952 1.374 . S
C3954 C3951 1.499 . S
C3954 C3955 1.373 . S
C3954 C3956 1.389 . S
C3955 H3934 0.950 . S
C3955 C3954 1.373 . S
C3955 C3971 1.377 . S
C3956 C3954 1.389 . S
C3956 C3957 1.524 . S
C3956 C3970 1.377 . S
C3957 C3956 1.524 . S
C3957 C3958 1.397 . S
C3957 C3962 1.363 . S
C3958 H3935 0.950 . S
C3958 C3957 1.397 . S
C3958 C3959 1.334 . S
C3959 H3936 0.950 . S
C3959 C3958 1.334 . S
C3959 C3960 1.287 . S
C3960 C3959 1.287 . S
C3960 C3961 1.524 . S
C3960 H3979 0.913 . S
C3961 H3937 0.950 . S
C3961 C3960 1.524 . S
C3961 C3962 1.415 . S
C3962 H3938 0.950 . S
C3962 C3957 1.363 . S
C3962 C3961 1.415 . S
C3963 H3939 0.951 . S
C3963 C3964 1.366 . S
C3963 C3965 1.388 1_455 S
C3964 C3963 1.366 . S
C3964 C3968 1.385 . S
C3965 H3940 0.951 . S
C3965 C3963 1.388 1_655 S
C3965 C3966 1.366 . S
C3966 C3965 1.366 . S
C3966 C3967 1.414 1_655 S
C3966 C3969 1.499 . S
C3967 H3941 0.950 . S
C3967 C3966 1.414 1_455 S
C3967 C3968 1.374 . S
C3968 H3942 0.950 . S
C3968 C3964 1.385 . S
C3968 C3967 1.374 . S
C3969 C3966 1.499 . S
C3969 C3970 1.373 . S
C3969 C3971 1.389 . S
C3970 H3943 0.950 . S
C3970 C3956 1.377 . S
C3970 C3969 1.373 . S
C3971 C3955 1.377 . S
C3971 C3969 1.389 . S
C3971 C3972 1.524 . S
C3972 C3971 1.524 . S
C3972 C3973 1.397 . S
C3972 C3977 1.363 . S
C3973 H3944 0.950 . S
C3973 C3972 1.397 . S
C3973 C3974 1.334 . S
C3974 H3945 0.950 1_655 S
C3974 C3973 1.334 . S
C3974 C3975 1.287 . S
C3975 C3974 1.287 . S
C3975 C3976 1.524 . S
C3975 H3978 0.999 . S
C3976 H3946 0.950 . S
C3976 C3975 1.524 . S
C3976 C3977 1.415 . S
C3977 H3947 0.950 . S
C3977 C3972 1.363 . S
C3977 C3976 1.415 . S
H3978 C3975 0.999 . S
H3979 C3960 0.913 . S
H3980 C3998 0.951 . S
H3981 C4000 0.951 . S
H3982 C4002 0.950 . S
H3983 C4003 0.950 . S
H3984 C4005 0.950 . S
H3985 C4008 0.950 . S
H3986 C4009 0.950 . S
H3987 C4011 0.950 . S
H3988 C4012 0.950 . S
H3989 C4013 0.951 . S
H3990 C4015 0.951 . S
H3991 C4017 0.950 . S
H3992 C4018 0.950 . S
H3993 C4020 0.950 . S
H3994 C4023 0.950 . S
H3995 C4024 0.950 . S
H3996 C4026 0.950 . S
H3997 C4027 0.950 . S
C3998 H3980 0.951 . S
C3998 C3999 1.366 . S
C3998 C4000 1.388 . S
C3999 C3998 1.366 . S
C3999 C4003 1.385 . S
C4000 H3981 0.951 . S
C4000 C3998 1.388 . S
C4000 C4001 1.366 . S
C4001 C4000 1.366 . S
C4001 C4002 1.414 . S
C4001 C4004 1.499 . S
C4002 H3982 0.950 . S
C4002 C4001 1.414 . S
C4002 C4003 1.374 . S
C4003 H3983 0.950 . S
C4003 C3999 1.385 . S
C4003 C4002 1.374 . S
C4004 C4001 1.499 . S
C4004 C4005 1.373 . S
C4004 C4006 1.389 . S
C4005 H3984 0.950 . S
C4005 C4004 1.373 . S
C4005 C4021 1.377 . S
C4006 C4004 1.389 . S
C4006 C4007 1.524 . S
C4006 C4020 1.377 . S
C4007 C4006 1.524 . S
C4007 C4008 1.397 . S
C4007 C4012 1.363 . S
C4008 H3985 0.950 . S
C4008 C4007 1.397 . S
C4008 C4009 1.334 . S
C4009 H3986 0.950 . S
C4009 C4008 1.334 . S
C4009 C4010 1.287 . S
C4010 C4009 1.287 . S
C4010 C4011 1.524 . S
C4010 H4029 0.913 . S
C4011 H3987 0.950 . S
C4011 C4010 1.524 . S
C4011 C4012 1.415 . S
C4012 H3988 0.950 . S
C4012 C4007 1.363 . S
C4012 C4011 1.415 . S
C4013 H3989 0.951 . S
C4013 C4014 1.366 . S
C4013 C4015 1.388 . S
C4014 C4013 1.366 . S
C4014 C4018 1.385 . S
C4015 H3990 0.951 . S
C4015 C4013 1.388 . S
C4015 C4016 1.366 . S
C4016 C4015 1.366 . S
C4016 C4017 1.414 . S
C4016 C4019 1.499 . S
C4017 H3991 0.950 . S
C4017 C4016 1.414 . S
C4017 C4018 1.374 . S
C4018 H3992 0.950 . S
C4018 C4014 1.385 . S
C4018 C4017 1.374 . S
C4019 C4016 1.499 . S
C4019 C4020 1.373 . S
C4019 C4021 1.389 . S
C4020 H3993 0.950 . S
C4020 C4006 1.377 . S
C4020 C4019 1.373 . S
C4021 C4005 1.377 . S
C4021 C4019 1.389 . S
C4021 C4022 1.524 . S
C4022 C4021 1.524 . S
C4022 C4023 1.397 . S
C4022 C4027 1.363 . S
C4023 H3994 0.950 . S
C4023 C4022 1.397 . S
C4023 C4024 1.334 . S
C4024 H3995 0.950 . S
C4024 C4023 1.334 . S
C4024 C4025 1.287 . S
C4025 C4024 1.287 . S
C4025 C4026 1.524 . S
C4025 H4028 0.999 . S
C4026 H3996 0.950 . S
C4026 C4025 1.524 . S
C4026 C4027 1.415 . S
C4027 H3997 0.950 . S
C4027 C4022 1.363 . S
C4027 C4026 1.415 . S
H4028 C4025 0.999 . S
H4029 C4010 0.913 . S
H4030 C4048 0.951 . S
H4031 C4050 0.951 . S
H4032 C4052 0.950 . S
H4033 C4053 0.950 . S
H4034 C4055 0.950 . S
H4035 C4058 0.950 . S
H4036 C4059 0.950 . S
H4037 C4061 0.950 . S
H4038 C4062 0.950 . S
H4039 C4063 0.951 . S
H4040 C4065 0.951 . S
H4041 C4067 0.950 . S
H4042 C4068 0.950 . S
H4043 C4070 0.950 . S
H4044 C4073 0.950 . S
H4045 C4074 0.950 . S
H4046 C4076 0.950 . S
H4047 C4077 0.950 . S
C4048 H4030 0.951 . S
C4048 C4049 1.366 . S
C4048 C4050 1.388 . S
C4049 C4048 1.366 . S
C4049 C4053 1.385 . S
C4050 H4031 0.951 . S
C4050 C4048 1.388 . S
C4050 C4051 1.366 . S
C4051 C4050 1.366 . S
C4051 C4052 1.414 . S
C4051 C4054 1.499 . S
C4052 H4032 0.950 . S
C4052 C4051 1.414 . S
C4052 C4053 1.374 . S
C4053 H4033 0.950 . S
C4053 C4049 1.385 . S
C4053 C4052 1.374 . S
C4054 C4051 1.499 . S
C4054 C4055 1.373 . S
C4054 C4056 1.389 . S
C4055 H4034 0.950 . S
C4055 C4054 1.373 . S
C4055 C4071 1.377 . S
C4056 C4054 1.389 . S
C4056 C4057 1.524 . S
C4056 C4070 1.377 . S
C4057 C4056 1.524 . S
C4057 C4058 1.397 . S
C4057 C4062 1.363 . S
C4058 H4035 0.950 . S
C4058 C4057 1.397 . S
C4058 C4059 1.334 . S
C4059 H4036 0.950 . S
C4059 C4058 1.334 . S
C4059 C4060 1.287 . S
C4060 C4059 1.287 . S
C4060 C4061 1.524 . S
C4060 H4079 0.913 . S
C4061 H4037 0.950 . S
C4061 C4060 1.524 . S
C4061 C4062 1.415 . S
C4062 H4038 0.950 . S
C4062 C4057 1.363 . S
C4062 C4061 1.415 . S
C4063 H4039 0.951 . S
C4063 C4064 1.366 . S
C4063 C4065 1.388 . S
C4064 C4063 1.366 . S
C4064 C4068 1.385 . S
C4065 H4040 0.951 . S
C4065 C4063 1.388 . S
C4065 C4066 1.366 . S
C4066 C4065 1.366 . S
C4066 C4067 1.414 . S
C4066 C4069 1.499 . S
C4067 H4041 0.950 . S
C4067 C4066 1.414 . S
C4067 C4068 1.374 . S
C4068 H4042 0.950 . S
C4068 C4064 1.385 . S
C4068 C4067 1.374 . S
C4069 C4066 1.499 . S
C4069 C4070 1.373 . S
C4069 C4071 1.389 . S
C4070 H4043 0.950 . S
C4070 C4056 1.377 . S
C4070 C4069 1.373 . S
C4071 C4055 1.377 . S
C4071 C4069 1.389 . S
C4071 C4072 1.524 . S
C4072 C4071 1.524 . S
C4072 C4073 1.397 . S
C4072 C4077 1.363 . S
C4073 H4044 0.950 . S
C4073 C4072 1.397 . S
C4073 C4074 1.334 . S
C4074 H4045 0.950 . S
C4074 C4073 1.334 . S
C4074 C4075 1.287 . S
C4075 C4074 1.287 . S
C4075 C4076 1.524 . S
C4075 H4078 0.999 . S
C4076 H4046 0.950 . S
C4076 C4075 1.524 . S
C4076 C4077 1.415 . S
C4077 H4047 0.950 . S
C4077 C4072 1.363 . S
C4077 C4076 1.415 . S
H4078 C4075 0.999 . S
H4079 C4060 0.913 . S
H4080 C4098 0.951 . S
H4081 C4100 0.951 . S
H4082 C4102 0.950 . S
H4083 C4103 0.950 . S
H4084 C4105 0.950 . S
H4085 C4108 0.950 . S
H4086 C4109 0.950 . S
H4087 C4111 0.950 . S
H4088 C4112 0.950 . S
H4089 C4113 0.951 . S
H4090 C4115 0.951 . S
H4091 C4117 0.950 . S
H4092 C4118 0.950 . S
H4093 C4120 0.950 . S
H4094 C4123 0.950 . S
H4095 C4124 0.950 . S
H4096 C4126 0.950 . S
H4097 C4127 0.950 . S
C4098 H4080 0.951 . S
C4098 C4099 1.366 . S
C4098 C4100 1.388 . S
C4099 C4098 1.366 . S
C4099 C4103 1.385 . S
C4100 H4081 0.951 . S
C4100 C4098 1.388 . S
C4100 C4101 1.366 . S
C4101 C4100 1.366 . S
C4101 C4102 1.414 . S
C4101 C4104 1.499 . S
C4102 H4082 0.950 . S
C4102 C4101 1.414 . S
C4102 C4103 1.374 . S
C4103 H4083 0.950 . S
C4103 C4099 1.385 . S
C4103 C4102 1.374 . S
C4104 C4101 1.499 . S
C4104 C4105 1.373 . S
C4104 C4106 1.389 . S
C4105 H4084 0.950 . S
C4105 C4104 1.373 . S
C4105 C4121 1.377 . S
C4106 C4104 1.389 . S
C4106 C4107 1.524 . S
C4106 C4120 1.377 . S
C4107 C4106 1.524 . S
C4107 C4108 1.397 . S
C4107 C4112 1.363 . S
C4108 H4085 0.950 . S
C4108 C4107 1.397 . S
C4108 C4109 1.334 . S
C4109 H4086 0.950 . S
C4109 C4108 1.334 . S
C4109 C4110 1.287 . S
C4110 C4109 1.287 . S
C4110 C4111 1.524 . S
C4110 H4129 0.913 . S
C4111 H4087 0.950 . S
C4111 C4110 1.524 . S
C4111 C4112 1.415 . S
C4112 H4088 0.950 . S
C4112 C4107 1.363 . S
C4112 C4111 1.415 . S
C4113 H4089 0.951 . S
C4113 C4114 1.366 . S
C4113 C4115 1.388 . S
C4114 C4113 1.366 . S
C4114 C4118 1.385 . S
C4115 H4090 0.951 . S
C4115 C4113 1.388 . S
C4115 C4116 1.366 . S
C4116 C4115 1.366 . S
C4116 C4117 1.414 . S
C4116 C4119 1.499 . S
C4117 H4091 0.950 . S
C4117 C4116 1.414 . S
C4117 C4118 1.374 . S
C4118 H4092 0.950 . S
C4118 C4114 1.385 . S
C4118 C4117 1.374 . S
C4119 C4116 1.499 . S
C4119 C4120 1.373 . S
C4119 C4121 1.389 . S
C4120 H4093 0.950 . S
C4120 C4106 1.377 . S
C4120 C4119 1.373 . S
C4121 C4105 1.377 . S
C4121 C4119 1.389 . S
C4121 C4122 1.524 . S
C4122 C4121 1.524 . S
C4122 C4123 1.397 . S
C4122 C4127 1.363 . S
C4123 H4094 0.950 . S
C4123 C4122 1.397 . S
C4123 C4124 1.334 . S
C4124 H4095 0.950 . S
C4124 C4123 1.334 . S
C4124 C4125 1.287 . S
C4125 C4124 1.287 . S
C4125 C4126 1.524 . S
C4125 H4128 0.999 . S
C4126 H4096 0.950 . S
C4126 C4125 1.524 . S
C4126 C4127 1.415 . S
C4127 H4097 0.950 . S
C4127 C4122 1.363 . S
C4127 C4126 1.415 . S
H4128 C4125 0.999 . S
H4129 C4110 0.913 . S
H4130 C4148 0.951 . S
H4131 C4150 0.951 . S
H4132 C4152 0.950 . S
H4133 C4153 0.950 . S
H4134 C4155 0.950 . S
H4135 C4158 0.950 . S
H4136 C4159 0.950 . S
H4137 C4161 0.950 . S
H4138 C4162 0.950 . S
H4139 C4163 0.951 . S
H4140 C4165 0.951 . S
H4141 C4167 0.950 . S
H4142 C4168 0.950 . S
H4143 C4170 0.950 . S
H4144 C4173 0.950 . S
H4145 C4174 0.950 . S
H4146 C4176 0.950 . S
H4147 C4177 0.950 . S
C4148 H4130 0.951 . S
C4148 C4149 1.366 . S
C4148 C4150 1.388 . S
C4149 C4148 1.366 . S
C4149 C4153 1.385 . S
C4150 H4131 0.951 . S
C4150 C4148 1.388 . S
C4150 C4151 1.366 . S
C4151 C4150 1.366 . S
C4151 C4152 1.414 . S
C4151 C4154 1.499 . S
C4152 H4132 0.950 . S
C4152 C4151 1.414 . S
C4152 C4153 1.374 . S
C4153 H4133 0.950 . S
C4153 C4149 1.385 . S
C4153 C4152 1.374 . S
C4154 C4151 1.499 . S
C4154 C4155 1.373 . S
C4154 C4156 1.389 . S
C4155 H4134 0.950 . S
C4155 C4154 1.373 . S
C4155 C4171 1.377 . S
C4156 C4154 1.389 . S
C4156 C4157 1.524 . S
C4156 C4170 1.377 . S
C4157 C4156 1.524 . S
C4157 C4158 1.397 . S
C4157 C4162 1.363 . S
C4158 H4135 0.950 . S
C4158 C4157 1.397 . S
C4158 C4159 1.334 . S
C4159 H4136 0.950 . S
C4159 C4158 1.334 . S
C4159 C4160 1.287 . S
C4160 C4159 1.287 . S
C4160 C4161 1.524 . S
C4160 H4179 0.913 . S
C4161 H4137 0.950 . S
C4161 C4160 1.524 . S
C4161 C4162 1.415 . S
C4162 H4138 0.950 . S
C4162 C4157 1.363 . S
C4162 C4161 1.415 . S
C4163 H4139 0.951 . S
C4163 C4164 1.366 . S
C4163 C4165 1.388 . S
C4164 C4163 1.366 . S
C4164 C4168 1.385 . S
C4165 H4140 0.951 . S
C4165 C4163 1.388 . S
C4165 C4166 1.366 . S
C4166 C4165 1.366 . S
C4166 C4167 1.414 . S
C4166 C4169 1.499 . S
C4167 H4141 0.950 . S
C4167 C4166 1.414 . S
C4167 C4168 1.374 . S
C4168 H4142 0.950 . S
C4168 C4164 1.385 . S
C4168 C4167 1.374 . S
C4169 C4166 1.499 . S
C4169 C4170 1.373 . S
C4169 C4171 1.389 . S
C4170 H4143 0.950 . S
C4170 C4156 1.377 . S
C4170 C4169 1.373 . S
C4171 C4155 1.377 . S
C4171 C4169 1.389 . S
C4171 C4172 1.524 . S
C4172 C4171 1.524 . S
C4172 C4173 1.397 . S
C4172 C4177 1.363 . S
C4173 H4144 0.950 . S
C4173 C4172 1.397 . S
C4173 C4174 1.334 . S
C4174 H4145 0.950 . S
C4174 C4173 1.334 . S
C4174 C4175 1.287 . S
C4175 C4174 1.287 . S
C4175 C4176 1.524 . S
C4175 H4178 0.999 . S
C4176 H4146 0.950 . S
C4176 C4175 1.524 . S
C4176 C4177 1.415 . S
C4177 H4147 0.950 . S
C4177 C4172 1.363 . S
C4177 C4176 1.415 . S
H4178 C4175 0.999 . S
H4179 C4160 0.913 . S
H4180 C4198 0.951 . S
H4181 C4200 0.951 . S
H4182 C4202 0.950 . S
H4183 C4203 0.950 . S
H4184 C4205 0.950 . S
H4185 C4208 0.950 . S
H4186 C4209 0.950 . S
H4187 C4211 0.950 . S
H4188 C4212 0.950 . S
H4189 C4213 0.951 . S
H4190 C4215 0.951 . S
H4191 C4217 0.950 . S
H4192 C4218 0.950 . S
H4193 C4220 0.950 . S
H4194 C4223 0.950 . S
H4195 C4224 0.950 . S
H4196 C4226 0.950 . S
H4197 C4227 0.950 . S
C4198 H4180 0.951 . S
C4198 C4199 1.366 . S
C4198 C4200 1.388 . S
C4199 C4198 1.366 . S
C4199 C4203 1.385 . S
C4200 H4181 0.951 . S
C4200 C4198 1.388 . S
C4200 C4201 1.366 . S
C4201 C4200 1.366 . S
C4201 C4202 1.414 . S
C4201 C4204 1.499 . S
C4202 H4182 0.950 . S
C4202 C4201 1.414 . S
C4202 C4203 1.374 . S
C4203 H4183 0.950 . S
C4203 C4199 1.385 . S
C4203 C4202 1.374 . S
C4204 C4201 1.499 . S
C4204 C4205 1.373 . S
C4204 C4206 1.389 . S
C4205 H4184 0.950 . S
C4205 C4204 1.373 . S
C4205 C4221 1.377 . S
C4206 C4204 1.389 . S
C4206 C4207 1.524 . S
C4206 C4220 1.377 . S
C4207 C4206 1.524 . S
C4207 C4208 1.397 . S
C4207 C4212 1.363 . S
C4208 H4185 0.950 . S
C4208 C4207 1.397 . S
C4208 C4209 1.334 . S
C4209 H4186 0.950 . S
C4209 C4208 1.334 . S
C4209 C4210 1.287 . S
C4210 C4209 1.287 . S
C4210 C4211 1.524 . S
C4210 H4229 0.913 . S
C4211 H4187 0.950 . S
C4211 C4210 1.524 . S
C4211 C4212 1.415 . S
C4212 H4188 0.950 . S
C4212 C4207 1.363 . S
C4212 C4211 1.415 . S
C4213 H4189 0.951 . S
C4213 C4214 1.366 . S
C4213 C4215 1.388 . S
C4214 C4213 1.366 . S
C4214 C4218 1.385 . S
C4215 H4190 0.951 . S
C4215 C4213 1.388 . S
C4215 C4216 1.366 . S
C4216 C4215 1.366 . S
C4216 C4217 1.414 . S
C4216 C4219 1.499 . S
C4217 H4191 0.950 . S
C4217 C4216 1.414 . S
C4217 C4218 1.374 . S
C4218 H4192 0.950 . S
C4218 C4214 1.385 . S
C4218 C4217 1.374 . S
C4219 C4216 1.499 . S
C4219 C4220 1.373 . S
C4219 C4221 1.389 . S
C4220 H4193 0.950 . S
C4220 C4206 1.377 . S
C4220 C4219 1.373 . S
C4221 C4205 1.377 . S
C4221 C4219 1.389 . S
C4221 C4222 1.524 . S
C4222 C4221 1.524 . S
C4222 C4223 1.397 . S
C4222 C4227 1.363 . S
C4223 H4194 0.950 . S
C4223 C4222 1.397 . S
C4223 C4224 1.334 . S
C4224 H4195 0.950 . S
C4224 C4223 1.334 . S
C4224 C4225 1.287 . S
C4225 C4224 1.287 . S
C4225 C4226 1.524 . S
C4225 H4228 0.999 . S
C4226 H4196 0.950 . S
C4226 C4225 1.524 . S
C4226 C4227 1.415 . S
C4227 H4197 0.950 . S
C4227 C4222 1.363 . S
C4227 C4226 1.415 . S
H4228 C4225 0.999 . S
H4229 C4210 0.913 . S
H4230 C4248 0.951 . S
H4231 C4250 0.951 . S
H4232 C4252 0.950 . S
H4233 C4253 0.950 . S
H4234 C4255 0.950 . S
H4235 C4258 0.950 . S
H4236 C4259 0.950 . S
H4237 C4261 0.950 . S
H4238 C4262 0.950 . S
H4239 C4263 0.951 . S
H4240 C4265 0.951 . S
H4241 C4267 0.950 . S
H4242 C4268 0.950 . S
H4243 C4270 0.950 . S
H4244 C4273 0.950 . S
H4245 C4274 0.950 . S
H4246 C4276 0.950 . S
H4247 C4277 0.950 . S
C4248 H4230 0.951 . S
C4248 C4249 1.366 . S
C4248 C4250 1.388 1_655 S
C4249 C4248 1.366 . S
C4249 C4253 1.385 . S
C4250 H4231 0.951 . S
C4250 C4248 1.388 1_455 S
C4250 C4251 1.366 . S
C4251 C4250 1.366 . S
C4251 C4252 1.414 1_455 S
C4251 C4254 1.499 . S
C4252 H4232 0.950 . S
C4252 C4251 1.414 1_655 S
C4252 C4253 1.374 . S
C4253 H4233 0.950 . S
C4253 C4249 1.385 . S
C4253 C4252 1.374 . S
C4254 C4251 1.499 . S
C4254 C4255 1.373 . S
C4254 C4256 1.389 . S
C4255 H4234 0.950 . S
C4255 C4254 1.373 . S
C4255 C4271 1.377 . S
C4256 C4254 1.389 . S
C4256 C4257 1.524 . S
C4256 C4270 1.377 . S
C4257 C4256 1.524 . S
C4257 C4258 1.397 . S
C4257 C4262 1.363 . S
C4258 H4235 0.950 . S
C4258 C4257 1.397 . S
C4258 C4259 1.334 . S
C4259 H4236 0.950 . S
C4259 C4258 1.334 . S
C4259 C4260 1.287 . S
C4260 C4259 1.287 . S
C4260 C4261 1.524 . S
C4260 H4279 0.913 . S
C4261 H4237 0.950 . S
C4261 C4260 1.524 . S
C4261 C4262 1.415 . S
C4262 H4238 0.950 . S
C4262 C4257 1.363 . S
C4262 C4261 1.415 . S
C4263 H4239 0.951 . S
C4263 C4264 1.366 . S
C4263 C4265 1.388 . S
C4264 C4263 1.366 . S
C4264 C4268 1.385 . S
C4265 H4240 0.951 . S
C4265 C4263 1.388 . S
C4265 C4266 1.366 . S
C4266 C4265 1.366 . S
C4266 C4267 1.414 . S
C4266 C4269 1.499 . S
C4267 H4241 0.950 . S
C4267 C4266 1.414 . S
C4267 C4268 1.374 . S
C4268 H4242 0.950 . S
C4268 C4264 1.385 . S
C4268 C4267 1.374 . S
C4269 C4266 1.499 . S
C4269 C4270 1.373 . S
C4269 C4271 1.389 . S
C4270 H4243 0.950 . S
C4270 C4256 1.377 . S
C4270 C4269 1.373 . S
C4271 C4255 1.377 . S
C4271 C4269 1.389 . S
C4271 C4272 1.524 . S
C4272 C4271 1.524 . S
C4272 C4273 1.397 . S
C4272 C4277 1.363 . S
C4273 H4244 0.950 . S
C4273 C4272 1.397 . S
C4273 C4274 1.334 . S
C4274 H4245 0.950 . S
C4274 C4273 1.334 . S
C4274 C4275 1.287 . S
C4275 C4274 1.287 . S
C4275 C4276 1.524 . S
C4275 H4278 0.999 . S
C4276 H4246 0.950 . S
C4276 C4275 1.524 . S
C4276 C4277 1.415 . S
C4277 H4247 0.950 . S
C4277 C4272 1.363 . S
C4277 C4276 1.415 . S
H4278 C4275 0.999 . S
H4279 C4260 0.913 . S
H4280 C4298 0.951 . S
H4281 C4300 0.951 . S
H4282 C4302 0.950 . S
H4283 C4303 0.950 . S
H4284 C4305 0.950 . S
H4285 C4308 0.950 . S
H4286 C4309 0.950 . S
H4287 C4311 0.950 . S
H4288 C4312 0.950 . S
H4289 C4313 0.951 . S
H4290 C4315 0.951 . S
H4291 C4317 0.950 . S
H4292 C4318 0.950 . S
H4293 C4320 0.950 . S
H4294 C4323 0.950 . S
H4295 C4324 0.950 . S
H4296 C4326 0.950 . S
H4297 C4327 0.950 . S
C4298 H4280 0.951 . S
C4298 C4299 1.366 . S
C4298 C4300 1.388 . S
C4299 C4298 1.366 . S
C4299 C4303 1.385 . S
C4300 H4281 0.951 . S
C4300 C4298 1.388 . S
C4300 C4301 1.366 . S
C4301 C4300 1.366 . S
C4301 C4302 1.414 . S
C4301 C4304 1.499 . S
C4302 H4282 0.950 . S
C4302 C4301 1.414 . S
C4302 C4303 1.374 . S
C4303 H4283 0.950 . S
C4303 C4299 1.385 . S
C4303 C4302 1.374 . S
C4304 C4301 1.499 . S
C4304 C4305 1.373 . S
C4304 C4306 1.389 . S
C4305 H4284 0.950 . S
C4305 C4304 1.373 . S
C4305 C4321 1.377 . S
C4306 C4304 1.389 . S
C4306 C4307 1.524 . S
C4306 C4320 1.377 . S
C4307 C4306 1.524 . S
C4307 C4308 1.397 . S
C4307 C4312 1.363 . S
C4308 H4285 0.950 . S
C4308 C4307 1.397 . S
C4308 C4309 1.334 . S
C4309 H4286 0.950 . S
C4309 C4308 1.334 . S
C4309 C4310 1.287 . S
C4310 C4309 1.287 . S
C4310 C4311 1.524 . S
C4310 H4329 0.913 . S
C4311 H4287 0.950 . S
C4311 C4310 1.524 . S
C4311 C4312 1.415 . S
C4312 H4288 0.950 . S
C4312 C4307 1.363 . S
C4312 C4311 1.415 . S
C4313 H4289 0.951 . S
C4313 C4314 1.366 . S
C4313 C4315 1.388 . S
C4314 C4313 1.366 . S
C4314 C4318 1.385 . S
C4315 H4290 0.951 . S
C4315 C4313 1.388 . S
C4315 C4316 1.366 . S
C4316 C4315 1.366 . S
C4316 C4317 1.414 . S
C4316 C4319 1.499 . S
C4317 H4291 0.950 . S
C4317 C4316 1.414 . S
C4317 C4318 1.374 . S
C4318 H4292 0.950 . S
C4318 C4314 1.385 . S
C4318 C4317 1.374 . S
C4319 C4316 1.499 . S
C4319 C4320 1.373 . S
C4319 C4321 1.389 . S
C4320 H4293 0.950 . S
C4320 C4306 1.377 . S
C4320 C4319 1.373 . S
C4321 C4305 1.377 . S
C4321 C4319 1.389 . S
C4321 C4322 1.524 . S
C4322 C4321 1.524 . S
C4322 C4323 1.397 . S
C4322 C4327 1.363 . S
C4323 H4294 0.950 . S
C4323 C4322 1.397 . S
C4323 C4324 1.334 . S
C4324 H4295 0.950 . S
C4324 C4323 1.334 . S
C4324 C4325 1.287 . S
C4325 C4324 1.287 . S
C4325 C4326 1.524 . S
C4325 H4328 0.999 . S
C4326 H4296 0.950 . S
C4326 C4325 1.524 . S
C4326 C4327 1.415 . S
C4327 H4297 0.950 . S
C4327 C4322 1.363 . S
C4327 C4326 1.415 . S
H4328 C4325 0.999 . S
H4329 C4310 0.913 . S
H4330 C4348 0.951 . S
H4331 C4350 0.951 . S
H4332 C4352 0.950 . S
H4333 C4353 0.950 . S
H4334 C4355 0.950 . S
H4335 C4358 0.950 . S
H4336 C4359 0.950 . S
H4337 C4361 0.950 . S
H4338 C4362 0.950 . S
H4339 C4363 0.951 . S
H4340 C4365 0.951 . S
H4341 C4367 0.950 . S
H4342 C4368 0.950 . S
H4343 C4370 0.950 . S
H4344 C4373 0.950 . S
H4345 C4374 0.950 . S
H4346 C4376 0.950 . S
H4347 C4377 0.950 . S
C4348 H4330 0.951 . S
C4348 C4349 1.366 . S
C4348 C4350 1.388 . S
C4349 C4348 1.366 . S
C4349 C4353 1.385 . S
C4350 H4331 0.951 . S
C4350 C4348 1.388 . S
C4350 C4351 1.366 . S
C4351 C4350 1.366 . S
C4351 C4352 1.414 . S
C4351 C4354 1.499 . S
C4352 H4332 0.950 . S
C4352 C4351 1.414 . S
C4352 C4353 1.374 . S
C4353 H4333 0.950 . S
C4353 C4349 1.385 . S
C4353 C4352 1.374 . S
C4354 C4351 1.499 . S
C4354 C4355 1.373 . S
C4354 C4356 1.389 . S
C4355 H4334 0.950 . S
C4355 C4354 1.373 . S
C4355 C4371 1.377 . S
C4356 C4354 1.389 . S
C4356 C4357 1.524 . S
C4356 C4370 1.377 . S
C4357 C4356 1.524 . S
C4357 C4358 1.397 . S
C4357 C4362 1.363 . S
C4358 H4335 0.950 . S
C4358 C4357 1.397 . S
C4358 C4359 1.334 . S
C4359 H4336 0.950 . S
C4359 C4358 1.334 . S
C4359 C4360 1.287 . S
C4360 C4359 1.287 . S
C4360 C4361 1.524 . S
C4360 H4379 0.913 . S
C4361 H4337 0.950 . S
C4361 C4360 1.524 . S
C4361 C4362 1.415 . S
C4362 H4338 0.950 . S
C4362 C4357 1.363 . S
C4362 C4361 1.415 . S
C4363 H4339 0.951 . S
C4363 C4364 1.366 . S
C4363 C4365 1.388 . S
C4364 C4363 1.366 . S
C4364 C4368 1.385 . S
C4365 H4340 0.951 . S
C4365 C4363 1.388 . S
C4365 C4366 1.366 1_655 S
C4366 C4365 1.366 1_455 S
C4366 C4367 1.414 . S
C4366 C4369 1.499 . S
C4367 H4341 0.950 . S
C4367 C4366 1.414 . S
C4367 C4368 1.374 1_455 S
C4368 H4342 0.950 . S
C4368 C4364 1.385 . S
C4368 C4367 1.374 1_655 S
C4369 C4366 1.499 . S
C4369 C4370 1.373 . S
C4369 C4371 1.389 . S
C4370 H4343 0.950 . S
C4370 C4356 1.377 . S
C4370 C4369 1.373 . S
C4371 C4355 1.377 . S
C4371 C4369 1.389 . S
C4371 C4372 1.524 . S
C4372 C4371 1.524 . S
C4372 C4373 1.397 . S
C4372 C4377 1.363 . S
C4373 H4344 0.950 . S
C4373 C4372 1.397 . S
C4373 C4374 1.334 1_455 S
C4374 H4345 0.950 . S
C4374 C4373 1.334 1_655 S
C4374 C4375 1.287 . S
C4375 C4374 1.287 . S
C4375 C4376 1.524 . S
C4375 H4378 0.999 . S
C4376 H4346 0.950 . S
C4376 C4375 1.524 . S
C4376 C4377 1.415 1_655 S
C4377 H4347 0.950 . S
C4377 C4372 1.363 . S
C4377 C4376 1.415 1_455 S
H4378 C4375 0.999 . S
H4379 C4360 0.913 . S
H4380 C4398 0.951 . S
H4381 C4400 0.951 . S
H4382 C4402 0.950 . S
H4383 C4403 0.950 . S
H4384 C4405 0.950 . S
H4385 C4408 0.950 . S
H4386 C4409 0.950 . S
H4387 C4411 0.950 . S
H4388 C4412 0.950 . S
H4389 C4413 0.951 . S
H4390 C4415 0.951 . S
H4391 C4417 0.950 . S
H4392 C4418 0.950 . S
H4393 C4420 0.950 . S
H4394 C4423 0.950 . S
H4395 C4424 0.950 . S
H4396 C4426 0.950 . S
H4397 C4427 0.950 . S
C4398 H4380 0.951 . S
C4398 C4399 1.366 . S
C4398 C4400 1.388 . S
C4399 C4398 1.366 . S
C4399 C4403 1.385 . S
C4400 H4381 0.951 . S
C4400 C4398 1.388 . S
C4400 C4401 1.366 . S
C4401 C4400 1.366 . S
C4401 C4402 1.414 . S
C4401 C4404 1.499 . S
C4402 H4382 0.950 . S
C4402 C4401 1.414 . S
C4402 C4403 1.374 . S
C4403 H4383 0.950 . S
C4403 C4399 1.385 . S
C4403 C4402 1.374 . S
C4404 C4401 1.499 . S
C4404 C4405 1.373 . S
C4404 C4406 1.389 . S
C4405 H4384 0.950 . S
C4405 C4404 1.373 . S
C4405 C4421 1.377 . S
C4406 C4404 1.389 . S
C4406 C4407 1.524 . S
C4406 C4420 1.377 . S
C4407 C4406 1.524 . S
C4407 C4408 1.397 . S
C4407 C4412 1.363 . S
C4408 H4385 0.950 . S
C4408 C4407 1.397 . S
C4408 C4409 1.334 . S
C4409 H4386 0.950 . S
C4409 C4408 1.334 . S
C4409 C4410 1.287 . S
C4410 C4409 1.287 . S
C4410 C4411 1.524 . S
C4410 H4429 0.913 . S
C4411 H4387 0.950 . S
C4411 C4410 1.524 . S
C4411 C4412 1.415 . S
C4412 H4388 0.950 . S
C4412 C4407 1.363 . S
C4412 C4411 1.415 . S
C4413 H4389 0.951 . S
C4413 C4414 1.366 . S
C4413 C4415 1.388 . S
C4414 C4413 1.366 . S
C4414 C4418 1.385 . S
C4415 H4390 0.951 . S
C4415 C4413 1.388 . S
C4415 C4416 1.366 . S
C4416 C4415 1.366 . S
C4416 C4417 1.414 . S
C4416 C4419 1.499 . S
C4417 H4391 0.950 . S
C4417 C4416 1.414 . S
C4417 C4418 1.374 . S
C4418 H4392 0.950 . S
C4418 C4414 1.385 . S
C4418 C4417 1.374 . S
C4419 C4416 1.499 . S
C4419 C4420 1.373 . S
C4419 C4421 1.389 . S
C4420 H4393 0.950 . S
C4420 C4406 1.377 . S
C4420 C4419 1.373 . S
C4421 C4405 1.377 . S
C4421 C4419 1.389 . S
C4421 C4422 1.524 . S
C4422 C4421 1.524 . S
C4422 C4423 1.397 . S
C4422 C4427 1.363 . S
C4423 H4394 0.950 . S
C4423 C4422 1.397 . S
C4423 C4424 1.334 . S
C4424 H4395 0.950 . S
C4424 C4423 1.334 . S
C4424 C4425 1.287 . S
C4425 C4424 1.287 . S
C4425 C4426 1.524 . S
C4425 H4428 0.999 . S
C4426 H4396 0.950 . S
C4426 C4425 1.524 . S
C4426 C4427 1.415 . S
C4427 H4397 0.950 . S
C4427 C4422 1.363 . S
C4427 C4426 1.415 . S
H4428 C4425 0.999 . S
H4429 C4410 0.913 . S
H4430 C4448 0.951 . S
H4431 C4450 0.951 . S
H4432 C4452 0.950 . S
H4433 C4453 0.950 . S
H4434 C4455 0.950 . S
H4435 C4458 0.950 . S
H4436 C4459 0.950 . S
H4437 C4461 0.950 . S
H4438 C4462 0.950 . S
H4439 C4463 0.951 . S
H4440 C4465 0.951 . S
H4441 C4467 0.950 . S
H4442 C4468 0.950 . S
H4443 C4470 0.950 . S
H4444 C4473 0.950 . S
H4445 C4474 0.950 . S
H4446 C4476 0.950 . S
H4447 C4477 0.950 . S
C4448 H4430 0.951 . S
C4448 C4449 1.366 . S
C4448 C4450 1.388 . S
C4449 C4448 1.366 . S
C4449 C4453 1.385 . S
C4450 H4431 0.951 . S
C4450 C4448 1.388 . S
C4450 C4451 1.366 . S
C4451 C4450 1.366 . S
C4451 C4452 1.414 . S
C4451 C4454 1.499 . S
C4452 H4432 0.950 . S
C4452 C4451 1.414 . S
C4452 C4453 1.374 . S
C4453 H4433 0.950 . S
C4453 C4449 1.385 . S
C4453 C4452 1.374 . S
C4454 C4451 1.499 . S
C4454 C4455 1.373 . S
C4454 C4456 1.389 . S
C4455 H4434 0.950 . S
C4455 C4454 1.373 . S
C4455 C4471 1.377 . S
C4456 C4454 1.389 . S
C4456 C4457 1.524 . S
C4456 C4470 1.377 . S
C4457 C4456 1.524 . S
C4457 C4458 1.397 . S
C4457 C4462 1.363 . S
C4458 H4435 0.950 . S
C4458 C4457 1.397 . S
C4458 C4459 1.334 . S
C4459 H4436 0.950 . S
C4459 C4458 1.334 . S
C4459 C4460 1.287 . S
C4460 C4459 1.287 . S
C4460 C4461 1.524 . S
C4460 H4479 0.913 . S
C4461 H4437 0.950 . S
C4461 C4460 1.524 . S
C4461 C4462 1.415 . S
C4462 H4438 0.950 . S
C4462 C4457 1.363 . S
C4462 C4461 1.415 . S
C4463 H4439 0.951 . S
C4463 C4464 1.366 . S
C4463 C4465 1.388 . S
C4464 C4463 1.366 . S
C4464 C4468 1.385 . S
C4465 H4440 0.951 . S
C4465 C4463 1.388 . S
C4465 C4466 1.366 . S
C4466 C4465 1.366 . S
C4466 C4467 1.414 . S
C4466 C4469 1.499 . S
C4467 H4441 0.950 . S
C4467 C4466 1.414 . S
C4467 C4468 1.374 . S
C4468 H4442 0.950 . S
C4468 C4464 1.385 . S
C4468 C4467 1.374 . S
C4469 C4466 1.499 . S
C4469 C4470 1.373 . S
C4469 C4471 1.389 . S
C4470 H4443 0.950 . S
C4470 C4456 1.377 . S
C4470 C4469 1.373 . S
C4471 C4455 1.377 . S
C4471 C4469 1.389 . S
C4471 C4472 1.524 . S
C4472 C4471 1.524 . S
C4472 C4473 1.397 . S
C4472 C4477 1.363 . S
C4473 H4444 0.950 . S
C4473 C4472 1.397 . S
C4473 C4474 1.334 . S
C4474 H4445 0.950 . S
C4474 C4473 1.334 . S
C4474 C4475 1.287 . S
C4475 C4474 1.287 . S
C4475 C4476 1.524 . S
C4475 H4478 0.999 . S
C4476 H4446 0.950 . S
C4476 C4475 1.524 . S
C4476 C4477 1.415 . S
C4477 H4447 0.950 . S
C4477 C4472 1.363 . S
C4477 C4476 1.415 . S
H4478 C4475 0.999 . S
H4479 C4460 0.913 . S
H4480 C4498 0.951 . S
H4481 C4500 0.951 . S
H4482 C4502 0.950 . S
H4483 C4503 0.950 . S
H4484 C4505 0.950 . S
H4485 C4508 0.950 . S
H4486 C4509 0.950 . S
H4487 C4511 0.950 . S
H4488 C4512 0.950 . S
H4489 C4513 0.951 . S
H4490 C4515 0.951 . S
H4491 C4517 0.950 . S
H4492 C4518 0.950 . S
H4493 C4520 0.950 . S
H4494 C4523 0.950 . S
H4495 C4524 0.950 . S
H4496 C4526 0.950 . S
H4497 C4527 0.950 . S
C4498 H4480 0.951 . S
C4498 C4499 1.366 . S
C4498 C4500 1.388 . S
C4499 C4498 1.366 . S
C4499 C4503 1.385 . S
C4500 H4481 0.951 . S
C4500 C4498 1.388 . S
C4500 C4501 1.366 . S
C4501 C4500 1.366 . S
C4501 C4502 1.414 . S
C4501 C4504 1.499 . S
C4502 H4482 0.950 . S
C4502 C4501 1.414 . S
C4502 C4503 1.374 . S
C4503 H4483 0.950 . S
C4503 C4499 1.385 . S
C4503 C4502 1.374 . S
C4504 C4501 1.499 . S
C4504 C4505 1.373 . S
C4504 C4506 1.389 . S
C4505 H4484 0.950 . S
C4505 C4504 1.373 . S
C4505 C4521 1.377 1_545 S
C4506 C4504 1.389 . S
C4506 C4507 1.524 . S
C4506 C4520 1.377 1_545 S
C4507 C4506 1.524 . S
C4507 C4508 1.397 . S
C4507 C4512 1.363 . S
C4508 H4485 0.950 . S
C4508 C4507 1.397 . S
C4508 C4509 1.334 . S
C4509 H4486 0.950 . S
C4509 C4508 1.334 . S
C4509 C4510 1.287 . S
C4510 C4509 1.287 . S
C4510 C4511 1.524 . S
C4510 H4529 0.913 . S
C4511 H4487 0.950 . S
C4511 C4510 1.524 . S
C4511 C4512 1.415 . S
C4512 H4488 0.950 . S
C4512 C4507 1.363 . S
C4512 C4511 1.415 . S
C4513 H4489 0.951 . S
C4513 C4514 1.366 . S
C4513 C4515 1.388 . S
C4514 C4513 1.366 . S
C4514 C4518 1.385 . S
C4515 H4490 0.951 . S
C4515 C4513 1.388 . S
C4515 C4516 1.366 . S
C4516 C4515 1.366 . S
C4516 C4517 1.414 . S
C4516 C4519 1.499 . S
C4517 H4491 0.950 . S
C4517 C4516 1.414 . S
C4517 C4518 1.374 . S
C4518 H4492 0.950 . S
C4518 C4514 1.385 . S
C4518 C4517 1.374 . S
C4519 C4516 1.499 . S
C4519 C4520 1.373 . S
C4519 C4521 1.389 . S
C4520 H4493 0.950 . S
C4520 C4506 1.377 1_565 S
C4520 C4519 1.373 . S
C4521 C4505 1.377 1_565 S
C4521 C4519 1.389 . S
C4521 C4522 1.524 . S
C4522 C4521 1.524 . S
C4522 C4523 1.397 . S
C4522 C4527 1.363 . S
C4523 H4494 0.950 . S
C4523 C4522 1.397 . S
C4523 C4524 1.334 . S
C4524 H4495 0.950 . S
C4524 C4523 1.334 . S
C4524 C4525 1.287 . S
C4525 C4524 1.287 . S
C4525 C4526 1.524 . S
C4525 H4528 0.999 . S
C4526 H4496 0.950 . S
C4526 C4525 1.524 . S
C4526 C4527 1.415 . S
C4527 H4497 0.950 . S
C4527 C4522 1.363 . S
C4527 C4526 1.415 . S
H4528 C4525 0.999 . S
H4529 C4510 0.913 . S
H4530 C4548 0.951 . S
H4531 C4550 0.951 . S
H4532 C4552 0.950 . S
H4533 C4553 0.950 . S
H4534 C4555 0.950 . S
H4535 C4558 0.950 . S
H4536 C4559 0.950 . S
H4537 C4561 0.950 . S
H4538 C4562 0.950 . S
H4539 C4563 0.951 . S
H4540 C4565 0.951 . S
H4541 C4567 0.950 . S
H4542 C4568 0.950 . S
H4543 C4570 0.950 . S
H4544 C4573 0.950 . S
H4545 C4574 0.950 . S
H4546 C4576 0.950 . S
H4547 C4577 0.950 . S
C4548 H4530 0.951 . S
C4548 C4549 1.366 . S
C4548 C4550 1.388 . S
C4549 C4548 1.366 . S
C4549 C4553 1.385 . S
C4550 H4531 0.951 . S
C4550 C4548 1.388 . S
C4550 C4551 1.366 . S
C4551 C4550 1.366 . S
C4551 C4552 1.414 . S
C4551 C4554 1.499 . S
C4552 H4532 0.950 . S
C4552 C4551 1.414 . S
C4552 C4553 1.374 . S
C4553 H4533 0.950 . S
C4553 C4549 1.385 . S
C4553 C4552 1.374 . S
C4554 C4551 1.499 . S
C4554 C4555 1.373 . S
C4554 C4556 1.389 . S
C4555 H4534 0.950 . S
C4555 C4554 1.373 . S
C4555 C4571 1.377 . S
C4556 C4554 1.389 . S
C4556 C4557 1.524 . S
C4556 C4570 1.377 . S
C4557 C4556 1.524 . S
C4557 C4558 1.397 . S
C4557 C4562 1.363 . S
C4558 H4535 0.950 . S
C4558 C4557 1.397 . S
C4558 C4559 1.334 . S
C4559 H4536 0.950 . S
C4559 C4558 1.334 . S
C4559 C4560 1.287 . S
C4560 C4559 1.287 . S
C4560 C4561 1.524 . S
C4560 H4579 0.913 . S
C4561 H4537 0.950 . S
C4561 C4560 1.524 . S
C4561 C4562 1.415 . S
C4562 H4538 0.950 . S
C4562 C4557 1.363 . S
C4562 C4561 1.415 . S
C4563 H4539 0.951 . S
C4563 C4564 1.366 . S
C4563 C4565 1.388 . S
C4564 C4563 1.366 . S
C4564 C4568 1.385 . S
C4565 H4540 0.951 . S
C4565 C4563 1.388 . S
C4565 C4566 1.366 . S
C4566 C4565 1.366 . S
C4566 C4567 1.414 . S
C4566 C4569 1.499 . S
C4567 H4541 0.950 . S
C4567 C4566 1.414 . S
C4567 C4568 1.374 . S
C4568 H4542 0.950 . S
C4568 C4564 1.385 . S
C4568 C4567 1.374 . S
C4569 C4566 1.499 . S
C4569 C4570 1.373 . S
C4569 C4571 1.389 . S
C4570 H4543 0.950 . S
C4570 C4556 1.377 . S
C4570 C4569 1.373 . S
C4571 C4555 1.377 . S
C4571 C4569 1.389 . S
C4571 C4572 1.524 . S
C4572 C4571 1.524 . S
C4572 C4573 1.397 . S
C4572 C4577 1.363 . S
C4573 H4544 0.950 . S
C4573 C4572 1.397 . S
C4573 C4574 1.334 . S
C4574 H4545 0.950 . S
C4574 C4573 1.334 . S
C4574 C4575 1.287 . S
C4575 C4574 1.287 . S
C4575 C4576 1.524 . S
C4575 H4578 0.999 . S
C4576 H4546 0.950 . S
C4576 C4575 1.524 . S
C4576 C4577 1.415 . S
C4577 H4547 0.950 . S
C4577 C4572 1.363 . S
C4577 C4576 1.415 . S
H4578 C4575 0.999 . S
H4579 C4560 0.913 . S
H4580 C4598 0.951 . S
H4581 C4600 0.951 . S
H4582 C4602 0.950 . S
H4583 C4603 0.950 . S
H4584 C4605 0.950 . S
H4585 C4608 0.950 . S
H4586 C4609 0.950 . S
H4587 C4611 0.950 . S
H4588 C4612 0.950 1_545 S
H4589 C4613 0.951 . S
H4590 C4615 0.951 . S
H4591 C4617 0.950 . S
H4592 C4618 0.950 . S
H4593 C4620 0.950 . S
H4594 C4623 0.950 . S
H4595 C4624 0.950 . S
H4596 C4626 0.950 . S
H4597 C4627 0.950 1_565 S
C4598 H4580 0.951 . S
C4598 C4599 1.366 . S
C4598 C4600 1.388 . S
C4599 C4598 1.366 . S
C4599 C4603 1.385 . S
C4600 H4581 0.951 . S
C4600 C4598 1.388 . S
C4600 C4601 1.366 . S
C4601 C4600 1.366 . S
C4601 C4602 1.414 . S
C4601 C4604 1.499 . S
C4602 H4582 0.950 . S
C4602 C4601 1.414 . S
C4602 C4603 1.374 . S
C4603 H4583 0.950 . S
C4603 C4599 1.385 . S
C4603 C4602 1.374 . S
C4604 C4601 1.499 . S
C4604 C4605 1.373 . S
C4604 C4606 1.389 . S
C4605 H4584 0.950 . S
C4605 C4604 1.373 . S
C4605 C4621 1.377 1_565 S
C4606 C4604 1.389 . S
C4606 C4607 1.524 . S
C4606 C4620 1.377 1_565 S
C4607 C4606 1.524 . S
C4607 C4608 1.397 . S
C4607 C4612 1.363 . S
C4608 H4585 0.950 . S
C4608 C4607 1.397 . S
C4608 C4609 1.334 . S
C4609 H4586 0.950 . S
C4609 C4608 1.334 . S
C4609 C4610 1.287 . S
C4610 C4609 1.287 . S
C4610 C4611 1.524 . S
C4610 H4629 0.913 . S
C4611 H4587 0.950 . S
C4611 C4610 1.524 . S
C4611 C4612 1.415 . S
C4612 H4588 0.950 1_565 S
C4612 C4607 1.363 . S
C4612 C4611 1.415 . S
C4613 H4589 0.951 . S
C4613 C4614 1.366 . S
C4613 C4615 1.388 . S
C4614 C4613 1.366 . S
C4614 C4618 1.385 . S
C4615 H4590 0.951 . S
C4615 C4613 1.388 . S
C4615 C4616 1.366 . S
C4616 C4615 1.366 . S
C4616 C4617 1.414 . S
C4616 C4619 1.499 . S
C4617 H4591 0.950 . S
C4617 C4616 1.414 . S
C4617 C4618 1.374 . S
C4618 H4592 0.950 . S
C4618 C4614 1.385 . S
C4618 C4617 1.374 . S
C4619 C4616 1.499 . S
C4619 C4620 1.373 . S
C4619 C4621 1.389 . S
C4620 H4593 0.950 . S
C4620 C4606 1.377 1_545 S
C4620 C4619 1.373 . S
C4621 C4605 1.377 1_545 S
C4621 C4619 1.389 . S
C4621 C4622 1.524 . S
C4622 C4621 1.524 . S
C4622 C4623 1.397 . S
C4622 C4627 1.363 . S
C4623 H4594 0.950 . S
C4623 C4622 1.397 . S
C4623 C4624 1.334 . S
C4624 H4595 0.950 . S
C4624 C4623 1.334 . S
C4624 C4625 1.287 . S
C4625 C4624 1.287 . S
C4625 C4626 1.524 . S
C4625 H4628 0.999 . S
C4626 H4596 0.950 . S
C4626 C4625 1.524 . S
C4626 C4627 1.415 . S
C4627 H4597 0.950 1_545 S
C4627 C4622 1.363 . S
C4627 C4626 1.415 . S
H4628 C4625 0.999 . S
H4629 C4610 0.913 . S
H4630 C4648 0.951 . S
H4631 C4650 0.951 . S
H4632 C4652 0.950 . S
H4633 C4653 0.950 . S
H4634 C4655 0.950 . S
H4635 C4658 0.950 . S
H4636 C4659 0.950 . S
H4637 C4661 0.950 . S
H4638 C4662 0.950 . S
H4639 C4663 0.951 . S
H4640 C4665 0.951 . S
H4641 C4667 0.950 . S
H4642 C4668 0.950 . S
H4643 C4670 0.950 . S
H4644 C4673 0.950 . S
H4645 C4674 0.950 . S
H4646 C4676 0.950 . S
H4647 C4677 0.950 . S
C4648 H4630 0.951 . S
C4648 C4649 1.366 . S
C4648 C4650 1.388 . S
C4649 C4648 1.366 . S
C4649 C4653 1.385 . S
C4650 H4631 0.951 . S
C4650 C4648 1.388 . S
C4650 C4651 1.366 . S
C4651 C4650 1.366 . S
C4651 C4652 1.414 . S
C4651 C4654 1.499 . S
C4652 H4632 0.950 . S
C4652 C4651 1.414 . S
C4652 C4653 1.374 . S
C4653 H4633 0.950 . S
C4653 C4649 1.385 . S
C4653 C4652 1.374 . S
C4654 C4651 1.499 . S
C4654 C4655 1.373 . S
C4654 C4656 1.389 1_556 S
C4655 H4634 0.950 . S
C4655 C4654 1.373 . S
C4655 C4671 1.377 . S
C4656 C4654 1.389 1_554 S
C4656 C4657 1.524 . S
C4656 C4670 1.377 . S
C4657 C4656 1.524 . S
C4657 C4658 1.397 . S
C4657 C4662 1.363 . S
C4658 H4635 0.950 . S
C4658 C4657 1.397 . S
C4658 C4659 1.334 . S
C4659 H4636 0.950 . S
C4659 C4658 1.334 . S
C4659 C4660 1.287 . S
C4660 C4659 1.287 . S
C4660 C4661 1.524 . S
C4660 H4679 0.913 . S
C4661 H4637 0.950 . S
C4661 C4660 1.524 . S
C4661 C4662 1.415 . S
C4662 H4638 0.950 . S
C4662 C4657 1.363 . S
C4662 C4661 1.415 . S
C4663 H4639 0.951 . S
C4663 C4664 1.366 . S
C4663 C4665 1.388 . S
C4664 C4663 1.366 . S
C4664 C4668 1.385 . S
C4665 H4640 0.951 . S
C4665 C4663 1.388 . S
C4665 C4666 1.366 . S
C4666 C4665 1.366 . S
C4666 C4667 1.414 . S
C4666 C4669 1.499 . S
C4667 H4641 0.950 . S
C4667 C4666 1.414 . S
C4667 C4668 1.374 . S
C4668 H4642 0.950 . S
C4668 C4664 1.385 . S
C4668 C4667 1.374 . S
C4669 C4666 1.499 . S
C4669 C4670 1.373 . S
C4669 C4671 1.389 1_554 S
C4670 H4643 0.950 . S
C4670 C4656 1.377 . S
C4670 C4669 1.373 . S
C4671 C4655 1.377 . S
C4671 C4669 1.389 1_556 S
C4671 C4672 1.524 . S
C4672 C4671 1.524 . S
C4672 C4673 1.397 . S
C4672 C4677 1.363 . S
C4673 H4644 0.950 . S
C4673 C4672 1.397 . S
C4673 C4674 1.334 . S
C4674 H4645 0.950 . S
C4674 C4673 1.334 . S
C4674 C4675 1.287 . S
C4675 C4674 1.287 . S
C4675 C4676 1.524 . S
C4675 H4678 0.999 . S
C4676 H4646 0.950 . S
C4676 C4675 1.524 . S
C4676 C4677 1.415 . S
C4677 H4647 0.950 . S
C4677 C4672 1.363 . S
C4677 C4676 1.415 . S
H4678 C4675 0.999 . S
H4679 C4660 0.913 . S
H4680 C4698 0.951 . S
H4681 C4700 0.951 . S
H4682 C4702 0.950 . S
H4683 C4703 0.950 . S
H4684 C4705 0.950 . S
H4685 C4708 0.950 . S
H4686 C4709 0.950 . S
H4687 C4711 0.950 . S
H4688 C4712 0.950 . S
H4689 C4713 0.951 . S
H4690 C4715 0.951 . S
H4691 C4717 0.950 . S
H4692 C4718 0.950 . S
H4693 C4720 0.950 . S
H4694 C4723 0.950 . S
H4695 C4724 0.950 . S
H4696 C4726 0.950 . S
H4697 C4727 0.950 . S
C4698 H4680 0.951 . S
C4698 C4699 1.366 . S
C4698 C4700 1.388 . S
C4699 C4698 1.366 . S
C4699 C4703 1.385 . S
C4700 H4681 0.951 . S
C4700 C4698 1.388 . S
C4700 C4701 1.366 . S
C4701 C4700 1.366 . S
C4701 C4702 1.414 . S
C4701 C4704 1.499 . S
C4702 H4682 0.950 . S
C4702 C4701 1.414 . S
C4702 C4703 1.374 . S
C4703 H4683 0.950 . S
C4703 C4699 1.385 . S
C4703 C4702 1.374 . S
C4704 C4701 1.499 . S
C4704 C4705 1.373 . S
C4704 C4706 1.389 . S
C4705 H4684 0.950 . S
C4705 C4704 1.373 . S
C4705 C4721 1.377 1_545 S
C4706 C4704 1.389 . S
C4706 C4707 1.524 . S
C4706 C4720 1.377 1_545 S
C4707 C4706 1.524 . S
C4707 C4708 1.397 . S
C4707 C4712 1.363 . S
C4708 H4685 0.950 . S
C4708 C4707 1.397 . S
C4708 C4709 1.334 . S
C4709 H4686 0.950 . S
C4709 C4708 1.334 . S
C4709 C4710 1.287 . S
C4710 C4709 1.287 . S
C4710 C4711 1.524 . S
C4710 H4729 0.913 . S
C4711 H4687 0.950 . S
C4711 C4710 1.524 . S
C4711 C4712 1.415 . S
C4712 H4688 0.950 . S
C4712 C4707 1.363 . S
C4712 C4711 1.415 . S
C4713 H4689 0.951 . S
C4713 C4714 1.366 . S
C4713 C4715 1.388 . S
C4714 C4713 1.366 . S
C4714 C4718 1.385 . S
C4715 H4690 0.951 . S
C4715 C4713 1.388 . S
C4715 C4716 1.366 . S
C4716 C4715 1.366 . S
C4716 C4717 1.414 . S
C4716 C4719 1.499 . S
C4717 H4691 0.950 . S
C4717 C4716 1.414 . S
C4717 C4718 1.374 . S
C4718 H4692 0.950 . S
C4718 C4714 1.385 . S
C4718 C4717 1.374 . S
C4719 C4716 1.499 . S
C4719 C4720 1.373 . S
C4719 C4721 1.389 . S
C4720 H4693 0.950 . S
C4720 C4706 1.377 1_565 S
C4720 C4719 1.373 . S
C4721 C4705 1.377 1_565 S
C4721 C4719 1.389 . S
C4721 C4722 1.524 . S
C4722 C4721 1.524 . S
C4722 C4723 1.397 . S
C4722 C4727 1.363 . S
C4723 H4694 0.950 . S
C4723 C4722 1.397 . S
C4723 C4724 1.334 . S
C4724 H4695 0.950 . S
C4724 C4723 1.334 . S
C4724 C4725 1.287 . S
C4725 C4724 1.287 . S
C4725 C4726 1.524 . S
C4725 H4728 0.999 . S
C4726 H4696 0.950 . S
C4726 C4725 1.524 . S
C4726 C4727 1.415 . S
C4727 H4697 0.950 . S
C4727 C4722 1.363 . S
C4727 C4726 1.415 . S
H4728 C4725 0.999 . S
H4729 C4710 0.913 . S
H4730 C4748 0.951 . S
H4731 C4750 0.951 . S
H4732 C4752 0.950 . S
H4733 C4753 0.950 . S
H4734 C4755 0.950 . S
H4735 C4758 0.950 . S
H4736 C4759 0.950 . S
H4737 C4761 0.950 . S
H4738 C4762 0.950 . S
H4739 C4763 0.951 . S
H4740 C4765 0.951 . S
H4741 C4767 0.950 . S
H4742 C4768 0.950 . S
H4743 C4770 0.950 . S
H4744 C4773 0.950 . S
H4745 C4774 0.950 . S
H4746 C4776 0.950 . S
H4747 C4777 0.950 . S
C4748 H4730 0.951 . S
C4748 C4749 1.366 . S
C4748 C4750 1.388 . S
C4749 C4748 1.366 . S
C4749 C4753 1.385 . S
C4750 H4731 0.951 . S
C4750 C4748 1.388 . S
C4750 C4751 1.366 . S
C4751 C4750 1.366 . S
C4751 C4752 1.414 . S
C4751 C4754 1.499 . S
C4752 H4732 0.950 . S
C4752 C4751 1.414 . S
C4752 C4753 1.374 . S
C4753 H4733 0.950 . S
C4753 C4749 1.385 . S
C4753 C4752 1.374 . S
C4754 C4751 1.499 . S
C4754 C4755 1.373 . S
C4754 C4756 1.389 . S
C4755 H4734 0.950 . S
C4755 C4754 1.373 . S
C4755 C4771 1.377 . S
C4756 C4754 1.389 . S
C4756 C4757 1.524 . S
C4756 C4770 1.377 . S
C4757 C4756 1.524 . S
C4757 C4758 1.397 . S
C4757 C4762 1.363 . S
C4758 H4735 0.950 . S
C4758 C4757 1.397 . S
C4758 C4759 1.334 . S
C4759 H4736 0.950 . S
C4759 C4758 1.334 . S
C4759 C4760 1.287 . S
C4760 C4759 1.287 . S
C4760 C4761 1.524 . S
C4760 H4779 0.913 . S
C4761 H4737 0.950 . S
C4761 C4760 1.524 . S
C4761 C4762 1.415 . S
C4762 H4738 0.950 . S
C4762 C4757 1.363 . S
C4762 C4761 1.415 . S
C4763 H4739 0.951 . S
C4763 C4764 1.366 . S
C4763 C4765 1.388 . S
C4764 C4763 1.366 . S
C4764 C4768 1.385 . S
C4765 H4740 0.951 . S
C4765 C4763 1.388 . S
C4765 C4766 1.366 . S
C4766 C4765 1.366 . S
C4766 C4767 1.414 . S
C4766 C4769 1.499 . S
C4767 H4741 0.950 . S
C4767 C4766 1.414 . S
C4767 C4768 1.374 . S
C4768 H4742 0.950 . S
C4768 C4764 1.385 . S
C4768 C4767 1.374 . S
C4769 C4766 1.499 . S
C4769 C4770 1.373 . S
C4769 C4771 1.389 . S
C4770 H4743 0.950 . S
C4770 C4756 1.377 . S
C4770 C4769 1.373 . S
C4771 C4755 1.377 . S
C4771 C4769 1.389 . S
C4771 C4772 1.524 . S
C4772 C4771 1.524 . S
C4772 C4773 1.397 . S
C4772 C4777 1.363 . S
C4773 H4744 0.950 . S
C4773 C4772 1.397 . S
C4773 C4774 1.334 . S
C4774 H4745 0.950 . S
C4774 C4773 1.334 . S
C4774 C4775 1.287 . S
C4775 C4774 1.287 . S
C4775 C4776 1.524 . S
C4775 H4778 0.999 . S
C4776 H4746 0.950 . S
C4776 C4775 1.524 . S
C4776 C4777 1.415 . S
C4777 H4747 0.950 . S
C4777 C4772 1.363 . S
C4777 C4776 1.415 . S
H4778 C4775 0.999 . S
H4779 C4760 0.913 . S
H4780 C4798 0.951 . S
H4781 C4800 0.951 . S
H4782 C4802 0.950 . S
H4783 C4803 0.950 . S
H4784 C4805 0.950 . S
H4785 C4808 0.950 . S
H4786 C4809 0.950 . S
H4787 C4811 0.950 . S
H4788 C4812 0.950 . S
H4789 C4813 0.951 . S
H4790 C4815 0.951 . S
H4791 C4817 0.950 . S
H4792 C4818 0.950 . S
H4793 C4820 0.950 . S
H4794 C4823 0.950 . S
H4795 C4824 0.950 . S
H4796 C4826 0.950 . S
H4797 C4827 0.950 . S
C4798 H4780 0.951 . S
C4798 C4799 1.366 . S
C4798 C4800 1.388 . S
C4799 C4798 1.366 . S
C4799 C4803 1.385 . S
C4800 H4781 0.951 . S
C4800 C4798 1.388 . S
C4800 C4801 1.366 . S
C4801 C4800 1.366 . S
C4801 C4802 1.414 . S
C4801 C4804 1.499 . S
C4802 H4782 0.950 . S
C4802 C4801 1.414 . S
C4802 C4803 1.374 . S
C4803 H4783 0.950 . S
C4803 C4799 1.385 . S
C4803 C4802 1.374 . S
C4804 C4801 1.499 . S
C4804 C4805 1.373 . S
C4804 C4806 1.389 . S
C4805 H4784 0.950 . S
C4805 C4804 1.373 . S
C4805 C4821 1.377 1_545 S
C4806 C4804 1.389 . S
C4806 C4807 1.524 . S
C4806 C4820 1.377 1_545 S
C4807 C4806 1.524 . S
C4807 C4808 1.397 . S
C4807 C4812 1.363 . S
C4808 H4785 0.950 . S
C4808 C4807 1.397 . S
C4808 C4809 1.334 . S
C4809 H4786 0.950 . S
C4809 C4808 1.334 . S
C4809 C4810 1.287 . S
C4810 C4809 1.287 . S
C4810 C4811 1.524 . S
C4810 H4829 0.913 . S
C4811 H4787 0.950 . S
C4811 C4810 1.524 . S
C4811 C4812 1.415 . S
C4812 H4788 0.950 . S
C4812 C4807 1.363 . S
C4812 C4811 1.415 . S
C4813 H4789 0.951 . S
C4813 C4814 1.366 . S
C4813 C4815 1.388 . S
C4814 C4813 1.366 . S
C4814 C4818 1.385 . S
C4815 H4790 0.951 . S
C4815 C4813 1.388 . S
C4815 C4816 1.366 . S
C4816 C4815 1.366 . S
C4816 C4817 1.414 . S
C4816 C4819 1.499 . S
C4817 H4791 0.950 . S
C4817 C4816 1.414 . S
C4817 C4818 1.374 . S
C4818 H4792 0.950 . S
C4818 C4814 1.385 . S
C4818 C4817 1.374 . S
C4819 C4816 1.499 . S
C4819 C4820 1.373 . S
C4819 C4821 1.389 . S
C4820 H4793 0.950 . S
C4820 C4806 1.377 1_565 S
C4820 C4819 1.373 . S
C4821 C4805 1.377 1_565 S
C4821 C4819 1.389 . S
C4821 C4822 1.524 . S
C4822 C4821 1.524 . S
C4822 C4823 1.397 . S
C4822 C4827 1.363 . S
C4823 H4794 0.950 . S
C4823 C4822 1.397 . S
C4823 C4824 1.334 . S
C4824 H4795 0.950 . S
C4824 C4823 1.334 . S
C4824 C4825 1.287 . S
C4825 C4824 1.287 . S
C4825 C4826 1.524 . S
C4825 H4828 0.999 . S
C4826 H4796 0.950 . S
C4826 C4825 1.524 . S
C4826 C4827 1.415 . S
C4827 H4797 0.950 . S
C4827 C4822 1.363 . S
C4827 C4826 1.415 . S
H4828 C4825 0.999 . S
H4829 C4810 0.913 . S
H4830 C4848 0.951 . S
H4831 C4850 0.951 . S
H4832 C4852 0.950 . S
H4833 C4853 0.950 . S
H4834 C4855 0.950 . S
H4835 C4858 0.950 1_556 S
H4836 C4859 0.950 . S
H4837 C4861 0.950 . S
H4838 C4862 0.950 . S
H4839 C4863 0.951 . S
H4840 C4865 0.951 . S
H4841 C4867 0.950 . S
H4842 C4868 0.950 . S
H4843 C4870 0.950 . S
H4844 C4873 0.950 1_554 S
H4845 C4874 0.950 . S
H4846 C4876 0.950 . S
H4847 C4877 0.950 . S
C4848 H4830 0.951 . S
C4848 C4849 1.366 1_554 S
C4848 C4850 1.388 . S
C4849 C4848 1.366 1_556 S
C4849 C4853 1.385 . S
C4850 H4831 0.951 . S
C4850 C4848 1.388 . S
C4850 C4851 1.366 1_554 S
C4851 C4850 1.366 1_556 S
C4851 C4852 1.414 . S
C4851 C4854 1.499 . S
C4852 H4832 0.950 . S
C4852 C4851 1.414 . S
C4852 C4853 1.374 . S
C4853 H4833 0.950 . S
C4853 C4849 1.385 . S
C4853 C4852 1.374 . S
C4854 C4851 1.499 . S
C4854 C4855 1.373 . S
C4854 C4856 1.389 1_556 S
C4855 H4834 0.950 . S
C4855 C4854 1.373 . S
C4855 C4871 1.377 . S
C4856 C4854 1.389 1_554 S
C4856 C4857 1.524 . S
C4856 C4870 1.377 . S
C4857 C4856 1.524 . S
C4857 C4858 1.397 . S
C4857 C4862 1.363 . S
C4858 H4835 0.950 1_554 S
C4858 C4857 1.397 . S
C4858 C4859 1.334 . S
C4859 H4836 0.950 . S
C4859 C4858 1.334 . S
C4859 C4860 1.287 . S
C4860 C4859 1.287 . S
C4860 C4861 1.524 . S
C4860 H4879 0.913 . S
C4861 H4837 0.950 . S
C4861 C4860 1.524 . S
C4861 C4862 1.415 . S
C4862 H4838 0.950 . S
C4862 C4857 1.363 . S
C4862 C4861 1.415 . S
C4863 H4839 0.951 . S
C4863 C4864 1.366 1_556 S
C4863 C4865 1.388 . S
C4864 C4863 1.366 1_554 S
C4864 C4868 1.385 . S
C4865 H4840 0.951 . S
C4865 C4863 1.388 . S
C4865 C4866 1.366 1_556 S
C4866 C4865 1.366 1_554 S
C4866 C4867 1.414 . S
C4866 C4869 1.499 . S
C4867 H4841 0.950 . S
C4867 C4866 1.414 . S
C4867 C4868 1.374 . S
C4868 H4842 0.950 . S
C4868 C4864 1.385 . S
C4868 C4867 1.374 . S
C4869 C4866 1.499 . S
C4869 C4870 1.373 . S
C4869 C4871 1.389 1_554 S
C4870 H4843 0.950 . S
C4870 C4856 1.377 . S
C4870 C4869 1.373 . S
C4871 C4855 1.377 . S
C4871 C4869 1.389 1_556 S
C4871 C4872 1.524 . S
C4872 C4871 1.524 . S
C4872 C4873 1.397 . S
C4872 C4877 1.363 . S
C4873 H4844 0.950 1_556 S
C4873 C4872 1.397 . S
C4873 C4874 1.334 . S
C4874 H4845 0.950 . S
C4874 C4873 1.334 . S
C4874 C4875 1.287 . S
C4875 C4874 1.287 . S
C4875 C4876 1.524 . S
C4875 H4878 0.999 . S
C4876 H4846 0.950 . S
C4876 C4875 1.524 . S
C4876 C4877 1.415 . S
C4877 H4847 0.950 . S
C4877 C4872 1.363 . S
C4877 C4876 1.415 . S
H4878 C4875 0.999 . S
H4879 C4860 0.913 . S
H4880 C4898 0.951 . S
H4881 C4900 0.951 . S
H4882 C4902 0.950 . S
H4883 C4903 0.950 . S
H4884 C4905 0.950 . S
H4885 C4908 0.950 . S
H4886 C4909 0.950 . S
H4887 C4911 0.950 . S
H4888 C4912 0.950 . S
H4889 C4913 0.951 . S
H4890 C4915 0.951 . S
H4891 C4917 0.950 . S
H4892 C4918 0.950 . S
H4893 C4920 0.950 . S
H4894 C4923 0.950 . S
H4895 C4924 0.950 . S
H4896 C4926 0.950 . S
H4897 C4927 0.950 . S
C4898 H4880 0.951 . S
C4898 C4899 1.366 . S
C4898 C4900 1.388 . S
C4899 C4898 1.366 . S
C4899 C4903 1.385 . S
C4900 H4881 0.951 . S
C4900 C4898 1.388 . S
C4900 C4901 1.366 . S
C4901 C4900 1.366 . S
C4901 C4902 1.414 . S
C4901 C4904 1.499 . S
C4902 H4882 0.950 . S
C4902 C4901 1.414 . S
C4902 C4903 1.374 . S
C4903 H4883 0.950 . S
C4903 C4899 1.385 . S
C4903 C4902 1.374 . S
C4904 C4901 1.499 . S
C4904 C4905 1.373 . S
C4904 C4906 1.389 . S
C4905 H4884 0.950 . S
C4905 C4904 1.373 . S
C4905 C4921 1.377 . S
C4906 C4904 1.389 . S
C4906 C4907 1.524 . S
C4906 C4920 1.377 . S
C4907 C4906 1.524 . S
C4907 C4908 1.397 . S
C4907 C4912 1.363 . S
C4908 H4885 0.950 . S
C4908 C4907 1.397 . S
C4908 C4909 1.334 . S
C4909 H4886 0.950 . S
C4909 C4908 1.334 . S
C4909 C4910 1.287 . S
C4910 C4909 1.287 . S
C4910 C4911 1.524 . S
C4910 H4929 0.913 . S
C4911 H4887 0.950 . S
C4911 C4910 1.524 . S
C4911 C4912 1.415 . S
C4912 H4888 0.950 . S
C4912 C4907 1.363 . S
C4912 C4911 1.415 . S
C4913 H4889 0.951 . S
C4913 C4914 1.366 . S
C4913 C4915 1.388 . S
C4914 C4913 1.366 . S
C4914 C4918 1.385 . S
C4915 H4890 0.951 . S
C4915 C4913 1.388 . S
C4915 C4916 1.366 . S
C4916 C4915 1.366 . S
C4916 C4917 1.414 . S
C4916 C4919 1.499 . S
C4917 H4891 0.950 . S
C4917 C4916 1.414 . S
C4917 C4918 1.374 . S
C4918 H4892 0.950 . S
C4918 C4914 1.385 . S
C4918 C4917 1.374 . S
C4919 C4916 1.499 . S
C4919 C4920 1.373 . S
C4919 C4921 1.389 . S
C4920 H4893 0.950 . S
C4920 C4906 1.377 . S
C4920 C4919 1.373 . S
C4921 C4905 1.377 . S
C4921 C4919 1.389 . S
C4921 C4922 1.524 . S
C4922 C4921 1.524 . S
C4922 C4923 1.397 . S
C4922 C4927 1.363 . S
C4923 H4894 0.950 . S
C4923 C4922 1.397 . S
C4923 C4924 1.334 . S
C4924 H4895 0.950 . S
C4924 C4923 1.334 . S
C4924 C4925 1.287 . S
C4925 C4924 1.287 . S
C4925 C4926 1.524 . S
C4925 H4928 0.999 . S
C4926 H4896 0.950 . S
C4926 C4925 1.524 . S
C4926 C4927 1.415 . S
C4927 H4897 0.950 . S
C4927 C4922 1.363 . S
C4927 C4926 1.415 . S
H4928 C4925 0.999 . S
H4929 C4910 0.913 . S
H4930 C4948 0.951 . S
H4931 C4950 0.951 . S
H4932 C4952 0.950 . S
H4933 C4953 0.950 . S
H4934 C4955 0.950 . S
H4935 C4958 0.945 . S
H4936 C4959 0.950 . S
H4937 C4961 0.950 . S
H4938 C4962 0.950 . S
H4939 C4963 0.951 . S
H4940 C4965 0.951 . S
H4941 C4967 0.950 . S
H4942 C4968 0.950 . S
H4943 C4970 0.950 . S
H4944 C4973 0.945 . S
H4945 C4974 0.950 . S
H4946 C4976 0.950 . S
H4947 C4977 0.950 . S
C4948 H4930 0.951 . S
C4948 C4949 1.366 . S
C4948 C4950 1.388 . S
C4949 C4948 1.366 . S
C4949 C4953 1.385 1_556 S
C4950 H4931 0.951 . S
C4950 C4948 1.388 . S
C4950 C4951 1.366 . S
C4951 C4950 1.366 . S
C4951 C4952 1.414 1_556 S
C4951 C4954 1.499 . S
C4952 H4932 0.950 . S
C4952 C4951 1.414 1_554 S
C4952 C4953 1.374 . S
C4953 H4933 0.950 . S
C4953 C4949 1.385 1_554 S
C4953 C4952 1.374 . S
C4954 C4951 1.499 . S
C4954 C4955 1.373 1_556 S
C4954 C4956 1.389 . S
C4955 H4934 0.950 . S
C4955 C4954 1.373 1_554 S
C4955 C4971 1.377 . S
C4956 C4954 1.389 . S
C4956 C4957 1.524 . S
C4956 C4970 1.377 . S
C4957 C4956 1.524 . S
C4957 C4958 1.397 . S
C4957 C4962 1.363 . S
C4958 H4935 0.945 . S
C4958 C4957 1.397 . S
C4958 C4959 1.334 . S
C4959 H4936 0.950 . S
C4959 C4958 1.334 . S
C4959 C4960 1.287 . S
C4960 C4959 1.287 . S
C4960 C4961 1.524 . S
C4960 H4979 0.913 . S
C4961 H4937 0.950 . S
C4961 C4960 1.524 . S
C4961 C4962 1.415 . S
C4962 H4938 0.950 . S
C4962 C4957 1.363 . S
C4962 C4961 1.415 . S
C4963 H4939 0.951 . S
C4963 C4964 1.366 . S
C4963 C4965 1.388 . S
C4964 C4963 1.366 . S
C4964 C4968 1.385 1_554 S
C4965 H4940 0.951 . S
C4965 C4963 1.388 . S
C4965 C4966 1.366 . S
C4966 C4965 1.366 . S
C4966 C4967 1.414 1_554 S
C4966 C4969 1.499 . S
C4967 H4941 0.950 . S
C4967 C4966 1.414 1_556 S
C4967 C4968 1.374 . S
C4968 H4942 0.950 . S
C4968 C4964 1.385 1_556 S
C4968 C4967 1.374 . S
C4969 C4966 1.499 . S
C4969 C4970 1.373 1_554 S
C4969 C4971 1.389 . S
C4970 H4943 0.950 . S
C4970 C4956 1.377 . S
C4970 C4969 1.373 1_556 S
C4971 C4955 1.377 . S
C4971 C4969 1.389 . S
C4971 C4972 1.524 . S
C4972 C4971 1.524 . S
C4972 C4973 1.397 . S
C4972 C4977 1.363 . S
C4973 H4944 0.945 . S
C4973 C4972 1.397 . S
C4973 C4974 1.334 . S
C4974 H4945 0.950 . S
C4974 C4973 1.334 . S
C4974 C4975 1.287 . S
C4975 C4974 1.287 . S
C4975 C4976 1.524 . S
C4975 H4978 0.999 . S
C4976 H4946 0.950 . S
C4976 C4975 1.524 . S
C4976 C4977 1.415 . S
C4977 H4947 0.950 . S
C4977 C4972 1.363 . S
C4977 C4976 1.415 . S
H4978 C4975 0.999 . S
H4979 C4960 0.913 . S
H4980 C4998 0.951 . S
H4981 C5000 0.951 . S
H4982 C5002 0.950 . S
H4983 C5003 0.950 . S
H4984 C5005 0.950 . S
H4985 C5008 0.950 . S
H4986 C5009 0.950 . S
H4987 C5011 0.950 . S
H4988 C5012 0.950 . S
H4989 C5013 0.951 . S
H4990 C5015 0.951 . S
H4991 C5017 0.950 . S
H4992 C5018 0.950 . S
H4993 C5020 0.950 . S
H4994 C5023 0.950 . S
H4995 C5024 0.950 . S
H4996 C5026 0.950 . S
H4997 C5027 0.950 . S
C4998 H4980 0.951 . S
C4998 C4999 1.366 . S
C4998 C5000 1.388 . S
C4999 C4998 1.366 . S
C4999 C5003 1.385 . S
C5000 H4981 0.951 . S
C5000 C4998 1.388 . S
C5000 C5001 1.366 . S
C5001 C5000 1.366 . S
C5001 C5002 1.414 . S
C5001 C5004 1.499 . S
C5002 H4982 0.950 . S
C5002 C5001 1.414 . S
C5002 C5003 1.374 . S
C5003 H4983 0.950 . S
C5003 C4999 1.385 . S
C5003 C5002 1.374 . S
C5004 C5001 1.499 . S
C5004 C5005 1.373 . S
C5004 C5006 1.389 . S
C5005 H4984 0.950 . S
C5005 C5004 1.373 . S
C5005 C5021 1.377 . S
C5006 C5004 1.389 . S
C5006 C5007 1.524 . S
C5006 C5020 1.377 . S
C5007 C5006 1.524 . S
C5007 C5008 1.397 . S
C5007 C5012 1.363 . S
C5008 H4985 0.950 . S
C5008 C5007 1.397 . S
C5008 C5009 1.334 . S
C5009 H4986 0.950 . S
C5009 C5008 1.334 . S
C5009 C5010 1.287 . S
C5010 C5009 1.287 . S
C5010 C5011 1.524 . S
C5010 H5029 0.913 . S
C5011 H4987 0.950 . S
C5011 C5010 1.524 . S
C5011 C5012 1.415 . S
C5012 H4988 0.950 . S
C5012 C5007 1.363 . S
C5012 C5011 1.415 . S
C5013 H4989 0.951 . S
C5013 C5014 1.366 . S
C5013 C5015 1.388 . S
C5014 C5013 1.366 . S
C5014 C5018 1.385 . S
C5015 H4990 0.951 . S
C5015 C5013 1.388 . S
C5015 C5016 1.366 . S
C5016 C5015 1.366 . S
C5016 C5017 1.414 . S
C5016 C5019 1.499 . S
C5017 H4991 0.950 . S
C5017 C5016 1.414 . S
C5017 C5018 1.374 . S
C5018 H4992 0.950 . S
C5018 C5014 1.385 . S
C5018 C5017 1.374 . S
C5019 C5016 1.499 . S
C5019 C5020 1.373 . S
C5019 C5021 1.389 . S
C5020 H4993 0.950 . S
C5020 C5006 1.377 . S
C5020 C5019 1.373 . S
C5021 C5005 1.377 . S
C5021 C5019 1.389 . S
C5021 C5022 1.524 . S
C5022 C5021 1.524 . S
C5022 C5023 1.397 . S
C5022 C5027 1.363 . S
C5023 H4994 0.950 . S
C5023 C5022 1.397 . S
C5023 C5024 1.334 . S
C5024 H4995 0.950 . S
C5024 C5023 1.334 . S
C5024 C5025 1.287 . S
C5025 C5024 1.287 . S
C5025 C5026 1.524 . S
C5025 H5028 0.999 . S
C5026 H4996 0.950 . S
C5026 C5025 1.524 . S
C5026 C5027 1.415 . S
C5027 H4997 0.950 . S
C5027 C5022 1.363 . S
C5027 C5026 1.415 . S
H5028 C5025 0.999 . S
H5029 C5010 0.913 . S
H5030 C5048 0.951 . S
H5031 C5050 0.951 . S
H5032 C5052 0.950 . S
H5033 C5053 0.950 . S
H5034 C5055 0.950 . S
H5035 C5058 0.950 . S
H5036 C5059 0.950 . S
H5037 C5061 0.950 . S
H5038 C5062 0.950 . S
H5039 C5063 0.951 . S
H5040 C5065 0.951 . S
H5041 C5067 0.950 . S
H5042 C5068 0.950 . S
H5043 C5070 0.950 . S
H5044 C5073 0.950 . S
H5045 C5074 0.950 . S
H5046 C5076 0.950 . S
H5047 C5077 0.950 . S
C5048 H5030 0.951 . S
C5048 C5049 1.366 . S
C5048 C5050 1.388 . S
C5049 C5048 1.366 . S
C5049 C5053 1.385 . S
C5050 H5031 0.951 . S
C5050 C5048 1.388 . S
C5050 C5051 1.366 . S
C5051 C5050 1.366 . S
C5051 C5052 1.414 . S
C5051 C5054 1.499 . S
C5052 H5032 0.950 . S
C5052 C5051 1.414 . S
C5052 C5053 1.374 . S
C5053 H5033 0.950 . S
C5053 C5049 1.385 . S
C5053 C5052 1.374 . S
C5054 C5051 1.499 . S
C5054 C5055 1.373 . S
C5054 C5056 1.389 . S
C5055 H5034 0.950 . S
C5055 C5054 1.373 . S
C5055 C5071 1.377 . S
C5056 C5054 1.389 . S
C5056 C5057 1.524 . S
C5056 C5070 1.377 . S
C5057 C5056 1.524 . S
C5057 C5058 1.397 . S
C5057 C5062 1.363 . S
C5058 H5035 0.950 . S
C5058 C5057 1.397 . S
C5058 C5059 1.334 . S
C5059 H5036 0.950 . S
C5059 C5058 1.334 . S
C5059 C5060 1.287 . S
C5060 C5059 1.287 . S
C5060 C5061 1.524 . S
C5060 H5079 0.913 . S
C5061 H5037 0.950 . S
C5061 C5060 1.524 . S
C5061 C5062 1.415 . S
C5062 H5038 0.950 . S
C5062 C5057 1.363 . S
C5062 C5061 1.415 . S
C5063 H5039 0.951 . S
C5063 C5064 1.366 . S
C5063 C5065 1.388 . S
C5064 C5063 1.366 . S
C5064 C5068 1.385 . S
C5065 H5040 0.951 . S
C5065 C5063 1.388 . S
C5065 C5066 1.366 . S
C5066 C5065 1.366 . S
C5066 C5067 1.414 . S
C5066 C5069 1.499 . S
C5067 H5041 0.950 . S
C5067 C5066 1.414 . S
C5067 C5068 1.374 . S
C5068 H5042 0.950 . S
C5068 C5064 1.385 . S
C5068 C5067 1.374 . S
C5069 C5066 1.499 . S
C5069 C5070 1.373 . S
C5069 C5071 1.389 . S
C5070 H5043 0.950 . S
C5070 C5056 1.377 . S
C5070 C5069 1.373 . S
C5071 C5055 1.377 . S
C5071 C5069 1.389 . S
C5071 C5072 1.524 . S
C5072 C5071 1.524 . S
C5072 C5073 1.397 . S
C5072 C5077 1.363 . S
C5073 H5044 0.950 . S
C5073 C5072 1.397 . S
C5073 C5074 1.334 . S
C5074 H5045 0.950 . S
C5074 C5073 1.334 . S
C5074 C5075 1.287 . S
C5075 C5074 1.287 . S
C5075 C5076 1.524 . S
C5075 H5078 0.999 . S
C5076 H5046 0.950 . S
C5076 C5075 1.524 . S
C5076 C5077 1.415 . S
C5077 H5047 0.950 . S
C5077 C5072 1.363 . S
C5077 C5076 1.415 . S
H5078 C5075 0.999 . S
H5079 C5060 0.913 . S
H5080 C5098 0.951 . S
H5081 C5100 0.951 . S
H5082 C5102 0.950 . S
H5083 C5103 0.950 . S
H5084 C5105 0.950 . S
H5085 C5108 0.950 . S
H5086 C5109 0.950 . S
H5087 C5111 0.950 . S
H5088 C5112 0.950 . S
H5089 C5113 0.951 . S
H5090 C5115 0.951 . S
H5091 C5117 0.950 . S
H5092 C5118 0.950 . S
H5093 C5120 0.950 . S
H5094 C5123 0.950 . S
H5095 C5124 0.950 . S
H5096 C5126 0.950 . S
H5097 C5127 0.950 . S
C5098 H5080 0.951 . S
C5098 C5099 1.366 . S
C5098 C5100 1.388 . S
C5099 C5098 1.366 . S
C5099 C5103 1.385 . S
C5100 H5081 0.951 . S
C5100 C5098 1.388 . S
C5100 C5101 1.366 . S
C5101 C5100 1.366 . S
C5101 C5102 1.414 . S
C5101 C5104 1.499 . S
C5102 H5082 0.950 . S
C5102 C5101 1.414 . S
C5102 C5103 1.374 . S
C5103 H5083 0.950 . S
C5103 C5099 1.385 . S
C5103 C5102 1.374 . S
C5104 C5101 1.499 . S
C5104 C5105 1.373 . S
C5104 C5106 1.389 . S
C5105 H5084 0.950 . S
C5105 C5104 1.373 . S
C5105 C5121 1.377 . S
C5106 C5104 1.389 . S
C5106 C5107 1.524 . S
C5106 C5120 1.377 . S
C5107 C5106 1.524 . S
C5107 C5108 1.397 . S
C5107 C5112 1.363 . S
C5108 H5085 0.950 . S
C5108 C5107 1.397 . S
C5108 C5109 1.334 . S
C5109 H5086 0.950 . S
C5109 C5108 1.334 . S
C5109 C5110 1.287 . S
C5110 C5109 1.287 . S
C5110 C5111 1.524 . S
C5110 H5129 0.913 . S
C5111 H5087 0.950 . S
C5111 C5110 1.524 . S
C5111 C5112 1.415 . S
C5112 H5088 0.950 . S
C5112 C5107 1.363 . S
C5112 C5111 1.415 . S
C5113 H5089 0.951 . S
C5113 C5114 1.366 . S
C5113 C5115 1.388 . S
C5114 C5113 1.366 . S
C5114 C5118 1.385 . S
C5115 H5090 0.951 . S
C5115 C5113 1.388 . S
C5115 C5116 1.366 . S
C5116 C5115 1.366 . S
C5116 C5117 1.414 . S
C5116 C5119 1.499 . S
C5117 H5091 0.950 . S
C5117 C5116 1.414 . S
C5117 C5118 1.374 . S
C5118 H5092 0.950 . S
C5118 C5114 1.385 . S
C5118 C5117 1.374 . S
C5119 C5116 1.499 . S
C5119 C5120 1.373 . S
C5119 C5121 1.389 . S
C5120 H5093 0.950 . S
C5120 C5106 1.377 . S
C5120 C5119 1.373 . S
C5121 C5105 1.377 . S
C5121 C5119 1.389 . S
C5121 C5122 1.524 . S
C5122 C5121 1.524 . S
C5122 C5123 1.397 . S
C5122 C5127 1.363 . S
C5123 H5094 0.950 . S
C5123 C5122 1.397 . S
C5123 C5124 1.334 . S
C5124 H5095 0.950 . S
C5124 C5123 1.334 . S
C5124 C5125 1.287 . S
C5125 C5124 1.287 . S
C5125 C5126 1.524 . S
C5125 H5128 0.999 . S
C5126 H5096 0.950 . S
C5126 C5125 1.524 . S
C5126 C5127 1.415 . S
C5127 H5097 0.950 . S
C5127 C5122 1.363 . S
C5127 C5126 1.415 . S
H5128 C5125 0.999 . S
H5129 C5110 0.913 . S
H5130 C5148 0.951 . S
H5131 C5150 0.951 . S
H5132 C5152 0.950 . S
H5133 C5153 0.950 . S
H5134 C5155 0.950 . S
H5135 C5158 0.950 . S
H5136 C5159 0.950 . S
H5137 C5161 0.950 . S
H5138 C5162 0.950 . S
H5139 C5163 0.951 . S
H5140 C5165 0.951 . S
H5141 C5167 0.950 . S
H5142 C5168 0.950 . S
H5143 C5170 0.950 . S
H5144 C5173 0.950 . S
H5145 C5174 0.950 . S
H5146 C5176 0.950 . S
H5147 C5177 0.950 . S
C5148 H5130 0.951 . S
C5148 C5149 1.366 . S
C5148 C5150 1.388 . S
C5149 C5148 1.366 . S
C5149 C5153 1.385 1_556 S
C5150 H5131 0.951 . S
C5150 C5148 1.388 . S
C5150 C5151 1.366 . S
C5151 C5150 1.366 . S
C5151 C5152 1.414 1_556 S
C5151 C5154 1.499 . S
C5152 H5132 0.950 . S
C5152 C5151 1.414 1_554 S
C5152 C5153 1.374 . S
C5153 H5133 0.950 . S
C5153 C5149 1.385 1_554 S
C5153 C5152 1.374 . S
C5154 C5151 1.499 . S
C5154 C5155 1.373 1_556 S
C5154 C5156 1.389 . S
C5155 H5134 0.950 . S
C5155 C5154 1.373 1_554 S
C5155 C5171 1.377 . S
C5156 C5154 1.389 . S
C5156 C5157 1.524 . S
C5156 C5170 1.377 . S
C5157 C5156 1.524 . S
C5157 C5158 1.397 . S
C5157 C5162 1.363 . S
C5158 H5135 0.950 . S
C5158 C5157 1.397 . S
C5158 C5159 1.334 . S
C5159 H5136 0.950 . S
C5159 C5158 1.334 . S
C5159 C5160 1.287 . S
C5160 C5159 1.287 . S
C5160 C5161 1.524 . S
C5160 H5179 0.913 . S
C5161 H5137 0.950 . S
C5161 C5160 1.524 . S
C5161 C5162 1.415 . S
C5162 H5138 0.950 . S
C5162 C5157 1.363 . S
C5162 C5161 1.415 . S
C5163 H5139 0.951 . S
C5163 C5164 1.366 . S
C5163 C5165 1.388 . S
C5164 C5163 1.366 . S
C5164 C5168 1.385 1_554 S
C5165 H5140 0.951 . S
C5165 C5163 1.388 . S
C5165 C5166 1.366 . S
C5166 C5165 1.366 . S
C5166 C5167 1.414 1_554 S
C5166 C5169 1.499 . S
C5167 H5141 0.950 . S
C5167 C5166 1.414 1_556 S
C5167 C5168 1.374 . S
C5168 H5142 0.950 . S
C5168 C5164 1.385 1_556 S
C5168 C5167 1.374 . S
C5169 C5166 1.499 . S
C5169 C5170 1.373 1_554 S
C5169 C5171 1.389 . S
C5170 H5143 0.950 . S
C5170 C5156 1.377 . S
C5170 C5169 1.373 1_556 S
C5171 C5155 1.377 . S
C5171 C5169 1.389 . S
C5171 C5172 1.524 . S
C5172 C5171 1.524 . S
C5172 C5173 1.397 . S
C5172 C5177 1.363 . S
C5173 H5144 0.950 . S
C5173 C5172 1.397 . S
C5173 C5174 1.334 . S
C5174 H5145 0.950 . S
C5174 C5173 1.334 . S
C5174 C5175 1.287 . S
C5175 C5174 1.287 . S
C5175 C5176 1.524 . S
C5175 H5178 0.999 . S
C5176 H5146 0.950 . S
C5176 C5175 1.524 . S
C5176 C5177 1.415 . S
C5177 H5147 0.950 . S
C5177 C5172 1.363 . S
C5177 C5176 1.415 . S
H5178 C5175 0.999 . S
H5179 C5160 0.913 . S
H5180 C5198 0.951 . S
H5181 C5200 0.951 . S
H5182 C5202 0.950 . S
H5183 C5203 0.950 . S
H5184 C5205 0.950 . S
H5185 C5208 0.950 . S
H5186 C5209 0.950 . S
H5187 C5211 0.950 . S
H5188 C5212 0.950 . S
H5189 C5213 0.951 . S
H5190 C5215 0.951 . S
H5191 C5217 0.950 . S
H5192 C5218 0.950 . S
H5193 C5220 0.950 . S
H5194 C5223 0.950 . S
H5195 C5224 0.950 . S
H5196 C5226 0.950 . S
H5197 C5227 0.950 . S
C5198 H5180 0.951 . S
C5198 C5199 1.366 . S
C5198 C5200 1.388 . S
C5199 C5198 1.366 . S
C5199 C5203 1.385 . S
C5200 H5181 0.951 . S
C5200 C5198 1.388 . S
C5200 C5201 1.366 . S
C5201 C5200 1.366 . S
C5201 C5202 1.414 . S
C5201 C5204 1.499 . S
C5202 H5182 0.950 . S
C5202 C5201 1.414 . S
C5202 C5203 1.374 . S
C5203 H5183 0.950 . S
C5203 C5199 1.385 . S
C5203 C5202 1.374 . S
C5204 C5201 1.499 . S
C5204 C5205 1.373 . S
C5204 C5206 1.389 . S
C5205 H5184 0.950 . S
C5205 C5204 1.373 . S
C5205 C5221 1.377 . S
C5206 C5204 1.389 . S
C5206 C5207 1.524 . S
C5206 C5220 1.377 . S
C5207 C5206 1.524 . S
C5207 C5208 1.397 . S
C5207 C5212 1.363 . S
C5208 H5185 0.950 . S
C5208 C5207 1.397 . S
C5208 C5209 1.334 . S
C5209 H5186 0.950 . S
C5209 C5208 1.334 . S
C5209 C5210 1.287 . S
C5210 C5209 1.287 . S
C5210 C5211 1.524 . S
C5210 H5229 0.913 . S
C5211 H5187 0.950 . S
C5211 C5210 1.524 . S
C5211 C5212 1.415 . S
C5212 H5188 0.950 . S
C5212 C5207 1.363 . S
C5212 C5211 1.415 . S
C5213 H5189 0.951 . S
C5213 C5214 1.366 . S
C5213 C5215 1.388 . S
C5214 C5213 1.366 . S
C5214 C5218 1.385 . S
C5215 H5190 0.951 . S
C5215 C5213 1.388 . S
C5215 C5216 1.366 . S
C5216 C5215 1.366 . S
C5216 C5217 1.414 . S
C5216 C5219 1.499 . S
C5217 H5191 0.950 . S
C5217 C5216 1.414 . S
C5217 C5218 1.374 . S
C5218 H5192 0.950 . S
C5218 C5214 1.385 . S
C5218 C5217 1.374 . S
C5219 C5216 1.499 . S
C5219 C5220 1.373 . S
C5219 C5221 1.389 . S
C5220 H5193 0.950 . S
C5220 C5206 1.377 . S
C5220 C5219 1.373 . S
C5221 C5205 1.377 . S
C5221 C5219 1.389 . S
C5221 C5222 1.524 . S
C5222 C5221 1.524 . S
C5222 C5223 1.397 . S
C5222 C5227 1.363 . S
C5223 H5194 0.950 . S
C5223 C5222 1.397 . S
C5223 C5224 1.334 . S
C5224 H5195 0.950 . S
C5224 C5223 1.334 . S
C5224 C5225 1.287 . S
C5225 C5224 1.287 . S
C5225 C5226 1.524 . S
C5225 H5228 0.999 . S
C5226 H5196 0.950 . S
C5226 C5225 1.524 . S
C5226 C5227 1.415 . S
C5227 H5197 0.950 . S
C5227 C5222 1.363 . S
C5227 C5226 1.415 . S
H5228 C5225 0.999 . S
H5229 C5210 0.913 . S
H5230 C5248 0.951 . S
H5231 C5250 0.951 . S
H5232 C5252 0.950 . S
H5233 C5253 0.950 . S
H5234 C5255 0.950 . S
H5235 C5258 0.950 . S
H5236 C5259 0.950 . S
H5237 C5261 0.950 . S
H5238 C5262 0.950 . S
H5239 C5263 0.951 . S
H5240 C5265 0.951 . S
H5241 C5267 0.950 . S
H5242 C5268 0.950 . S
H5243 C5270 0.950 . S
H5244 C5273 0.950 . S
H5245 C5274 0.950 . S
H5246 C5276 0.950 . S
H5247 C5277 0.950 . S
C5248 H5230 0.951 . S
C5248 C5249 1.366 . S
C5248 C5250 1.388 . S
C5249 C5248 1.366 . S
C5249 C5253 1.385 . S
C5250 H5231 0.951 . S
C5250 C5248 1.388 . S
C5250 C5251 1.366 . S
C5251 C5250 1.366 . S
C5251 C5252 1.414 . S
C5251 C5254 1.499 . S
C5252 H5232 0.950 . S
C5252 C5251 1.414 . S
C5252 C5253 1.374 . S
C5253 H5233 0.950 . S
C5253 C5249 1.385 . S
C5253 C5252 1.374 . S
C5254 C5251 1.499 . S
C5254 C5255 1.373 . S
C5254 C5256 1.389 . S
C5255 H5234 0.950 . S
C5255 C5254 1.373 . S
C5255 C5271 1.377 . S
C5256 C5254 1.389 . S
C5256 C5257 1.524 . S
C5256 C5270 1.377 . S
C5257 C5256 1.524 . S
C5257 C5258 1.397 . S
C5257 C5262 1.363 . S
C5258 H5235 0.950 . S
C5258 C5257 1.397 . S
C5258 C5259 1.334 . S
C5259 H5236 0.950 . S
C5259 C5258 1.334 . S
C5259 C5260 1.287 . S
C5260 C5259 1.287 . S
C5260 C5261 1.524 . S
C5260 H5279 0.913 . S
C5261 H5237 0.950 . S
C5261 C5260 1.524 . S
C5261 C5262 1.415 . S
C5262 H5238 0.950 . S
C5262 C5257 1.363 . S
C5262 C5261 1.415 . S
C5263 H5239 0.951 . S
C5263 C5264 1.366 . S
C5263 C5265 1.388 . S
C5264 C5263 1.366 . S
C5264 C5268 1.385 . S
C5265 H5240 0.951 . S
C5265 C5263 1.388 . S
C5265 C5266 1.366 . S
C5266 C5265 1.366 . S
C5266 C5267 1.414 . S
C5266 C5269 1.499 . S
C5267 H5241 0.950 . S
C5267 C5266 1.414 . S
C5267 C5268 1.374 . S
C5268 H5242 0.950 . S
C5268 C5264 1.385 . S
C5268 C5267 1.374 . S
C5269 C5266 1.499 . S
C5269 C5270 1.373 . S
C5269 C5271 1.389 . S
C5270 H5243 0.950 . S
C5270 C5256 1.377 . S
C5270 C5269 1.373 . S
C5271 C5255 1.377 . S
C5271 C5269 1.389 . S
C5271 C5272 1.524 . S
C5272 C5271 1.524 . S
C5272 C5273 1.397 . S
C5272 C5277 1.363 . S
C5273 H5244 0.950 . S
C5273 C5272 1.397 . S
C5273 C5274 1.334 . S
C5274 H5245 0.950 . S
C5274 C5273 1.334 . S
C5274 C5275 1.287 . S
C5275 C5274 1.287 . S
C5275 C5276 1.524 . S
C5275 H5278 0.999 . S
C5276 H5246 0.950 . S
C5276 C5275 1.524 . S
C5276 C5277 1.415 . S
C5277 H5247 0.950 . S
C5277 C5272 1.363 . S
C5277 C5276 1.415 . S
H5278 C5275 0.999 . S
H5279 C5260 0.913 . S
H5280 C5298 0.951 . S
H5281 C5300 0.951 . S
H5282 C5302 0.950 . S
H5283 C5303 0.950 . S
H5284 C5305 0.950 . S
H5285 C5308 0.950 . S
H5286 C5309 0.950 . S
H5287 C5311 0.950 . S
H5288 C5312 0.950 . S
H5289 C5313 0.951 . S
H5290 C5315 0.951 . S
H5291 C5317 0.950 . S
H5292 C5318 0.950 . S
H5293 C5320 0.950 . S
H5294 C5323 0.950 . S
H5295 C5324 0.950 . S
H5296 C5326 0.950 . S
H5297 C5327 0.950 . S
C5298 H5280 0.951 . S
C5298 C5299 1.366 . S
C5298 C5300 1.388 . S
C5299 C5298 1.366 . S
C5299 C5303 1.385 . S
C5300 H5281 0.951 . S
C5300 C5298 1.388 . S
C5300 C5301 1.366 . S
C5301 C5300 1.366 . S
C5301 C5302 1.414 . S
C5301 C5304 1.499 . S
C5302 H5282 0.950 . S
C5302 C5301 1.414 . S
C5302 C5303 1.374 . S
C5303 H5283 0.950 . S
C5303 C5299 1.385 . S
C5303 C5302 1.374 . S
C5304 C5301 1.499 . S
C5304 C5305 1.373 . S
C5304 C5306 1.389 . S
C5305 H5284 0.950 . S
C5305 C5304 1.373 . S
C5305 C5321 1.377 . S
C5306 C5304 1.389 . S
C5306 C5307 1.524 . S
C5306 C5320 1.377 . S
C5307 C5306 1.524 . S
C5307 C5308 1.397 . S
C5307 C5312 1.363 . S
C5308 H5285 0.950 . S
C5308 C5307 1.397 . S
C5308 C5309 1.334 . S
C5309 H5286 0.950 . S
C5309 C5308 1.334 . S
C5309 C5310 1.287 . S
C5310 C5309 1.287 . S
C5310 C5311 1.524 . S
C5310 H5329 0.913 . S
C5311 H5287 0.950 . S
C5311 C5310 1.524 . S
C5311 C5312 1.415 . S
C5312 H5288 0.950 . S
C5312 C5307 1.363 . S
C5312 C5311 1.415 . S
C5313 H5289 0.951 . S
C5313 C5314 1.366 . S
C5313 C5315 1.388 . S
C5314 C5313 1.366 . S
C5314 C5318 1.385 . S
C5315 H5290 0.951 . S
C5315 C5313 1.388 . S
C5315 C5316 1.366 . S
C5316 C5315 1.366 . S
C5316 C5317 1.414 . S
C5316 C5319 1.499 . S
C5317 H5291 0.950 . S
C5317 C5316 1.414 . S
C5317 C5318 1.374 . S
C5318 H5292 0.950 . S
C5318 C5314 1.385 . S
C5318 C5317 1.374 . S
C5319 C5316 1.499 . S
C5319 C5320 1.373 . S
C5319 C5321 1.389 . S
C5320 H5293 0.950 . S
C5320 C5306 1.377 . S
C5320 C5319 1.373 . S
C5321 C5305 1.377 . S
C5321 C5319 1.389 . S
C5321 C5322 1.524 . S
C5322 C5321 1.524 . S
C5322 C5323 1.397 . S
C5322 C5327 1.363 . S
C5323 H5294 0.950 . S
C5323 C5322 1.397 . S
C5323 C5324 1.334 . S
C5324 H5295 0.950 . S
C5324 C5323 1.334 . S
C5324 C5325 1.287 . S
C5325 C5324 1.287 . S
C5325 C5326 1.524 . S
C5325 H5328 0.999 . S
C5326 H5296 0.950 . S
C5326 C5325 1.524 . S
C5326 C5327 1.415 . S
C5327 H5297 0.950 . S
C5327 C5322 1.363 . S
C5327 C5326 1.415 . S
H5328 C5325 0.999 . S
H5329 C5310 0.913 . S
H5330 C5348 0.951 . S
H5331 C5350 0.951 . S
H5332 C5352 0.950 . S
H5333 C5353 0.950 . S
H5334 C5355 0.950 . S
H5335 C5358 0.950 . S
H5336 C5359 0.950 . S
H5337 C5361 0.950 . S
H5338 C5362 0.950 . S
H5339 C5363 0.951 . S
H5340 C5365 0.951 . S
H5341 C5367 0.950 . S
H5342 C5368 0.950 . S
H5343 C5370 0.950 . S
H5344 C5373 0.950 . S
H5345 C5374 0.950 . S
H5346 C5376 0.950 . S
H5347 C5377 0.950 . S
C5348 H5330 0.951 . S
C5348 C5349 1.366 . S
C5348 C5350 1.388 . S
C5349 C5348 1.366 . S
C5349 C5353 1.385 . S
C5350 H5331 0.951 . S
C5350 C5348 1.388 . S
C5350 C5351 1.366 . S
C5351 C5350 1.366 . S
C5351 C5352 1.414 . S
C5351 C5354 1.499 . S
C5352 H5332 0.950 . S
C5352 C5351 1.414 . S
C5352 C5353 1.374 . S
C5353 H5333 0.950 . S
C5353 C5349 1.385 . S
C5353 C5352 1.374 . S
C5354 C5351 1.499 . S
C5354 C5355 1.373 . S
C5354 C5356 1.389 . S
C5355 H5334 0.950 . S
C5355 C5354 1.373 . S
C5355 C5371 1.377 . S
C5356 C5354 1.389 . S
C5356 C5357 1.524 . S
C5356 C5370 1.377 . S
C5357 C5356 1.524 . S
C5357 C5358 1.397 . S
C5357 C5362 1.363 . S
C5358 H5335 0.950 . S
C5358 C5357 1.397 . S
C5358 C5359 1.334 . S
C5359 H5336 0.950 . S
C5359 C5358 1.334 . S
C5359 C5360 1.287 . S
C5360 C5359 1.287 . S
C5360 C5361 1.524 . S
C5360 H5379 0.913 . S
C5361 H5337 0.950 . S
C5361 C5360 1.524 . S
C5361 C5362 1.415 . S
C5362 H5338 0.950 . S
C5362 C5357 1.363 . S
C5362 C5361 1.415 . S
C5363 H5339 0.951 . S
C5363 C5364 1.366 . S
C5363 C5365 1.388 . S
C5364 C5363 1.366 . S
C5364 C5368 1.385 . S
C5365 H5340 0.951 . S
C5365 C5363 1.388 . S
C5365 C5366 1.366 . S
C5366 C5365 1.366 . S
C5366 C5367 1.414 . S
C5366 C5369 1.499 . S
C5367 H5341 0.950 . S
C5367 C5366 1.414 . S
C5367 C5368 1.374 . S
C5368 H5342 0.950 . S
C5368 C5364 1.385 . S
C5368 C5367 1.374 . S
C5369 C5366 1.499 . S
C5369 C5370 1.373 . S
C5369 C5371 1.389 . S
C5370 H5343 0.950 . S
C5370 C5356 1.377 . S
C5370 C5369 1.373 . S
C5371 C5355 1.377 . S
C5371 C5369 1.389 . S
C5371 C5372 1.524 . S
C5372 C5371 1.524 . S
C5372 C5373 1.397 . S
C5372 C5377 1.363 . S
C5373 H5344 0.950 . S
C5373 C5372 1.397 . S
C5373 C5374 1.334 . S
C5374 H5345 0.950 . S
C5374 C5373 1.334 . S
C5374 C5375 1.287 . S
C5375 C5374 1.287 . S
C5375 C5376 1.524 . S
C5375 H5378 0.999 . S
C5376 H5346 0.950 . S
C5376 C5375 1.524 . S
C5376 C5377 1.415 . S
C5377 H5347 0.950 . S
C5377 C5372 1.363 . S
C5377 C5376 1.415 . S
H5378 C5375 0.999 . S
H5379 C5360 0.913 . S
H5380 C5398 0.951 . S
H5381 C5400 0.951 . S
H5382 C5402 0.950 . S
H5383 C5403 0.950 . S
H5384 C5405 0.950 . S
H5385 C5408 0.950 . S
H5386 C5409 0.950 . S
H5387 C5411 0.950 . S
H5388 C5412 0.950 . S
H5389 C5413 0.951 . S
H5390 C5415 0.951 . S
H5391 C5417 0.950 . S
H5392 C5418 0.950 . S
H5393 C5420 0.950 . S
H5394 C5423 0.950 . S
H5395 C5424 0.950 . S
H5396 C5426 0.950 . S
H5397 C5427 0.950 . S
C5398 H5380 0.951 . S
C5398 C5399 1.366 . S
C5398 C5400 1.388 . S
C5399 C5398 1.366 . S
C5399 C5403 1.385 . S
C5400 H5381 0.951 . S
C5400 C5398 1.388 . S
C5400 C5401 1.366 . S
C5401 C5400 1.366 . S
C5401 C5402 1.414 . S
C5401 C5404 1.499 . S
C5402 H5382 0.950 . S
C5402 C5401 1.414 . S
C5402 C5403 1.374 . S
C5403 H5383 0.950 . S
C5403 C5399 1.385 . S
C5403 C5402 1.374 . S
C5404 C5401 1.499 . S
C5404 C5405 1.373 . S
C5404 C5406 1.389 . S
C5405 H5384 0.950 . S
C5405 C5404 1.373 . S
C5405 C5421 1.377 . S
C5406 C5404 1.389 . S
C5406 C5407 1.524 . S
C5406 C5420 1.377 . S
C5407 C5406 1.524 . S
C5407 C5408 1.397 . S
C5407 C5412 1.363 . S
C5408 H5385 0.950 . S
C5408 C5407 1.397 . S
C5408 C5409 1.334 . S
C5409 H5386 0.950 . S
C5409 C5408 1.334 . S
C5409 C5410 1.287 . S
C5410 C5409 1.287 . S
C5410 C5411 1.524 . S
C5410 H5429 0.913 . S
C5411 H5387 0.950 . S
C5411 C5410 1.524 . S
C5411 C5412 1.415 . S
C5412 H5388 0.950 . S
C5412 C5407 1.363 . S
C5412 C5411 1.415 . S
C5413 H5389 0.951 . S
C5413 C5414 1.366 . S
C5413 C5415 1.388 . S
C5414 C5413 1.366 . S
C5414 C5418 1.385 . S
C5415 H5390 0.951 . S
C5415 C5413 1.388 . S
C5415 C5416 1.366 . S
C5416 C5415 1.366 . S
C5416 C5417 1.414 . S
C5416 C5419 1.499 . S
C5417 H5391 0.950 . S
C5417 C5416 1.414 . S
C5417 C5418 1.374 . S
C5418 H5392 0.950 . S
C5418 C5414 1.385 . S
C5418 C5417 1.374 . S
C5419 C5416 1.499 . S
C5419 C5420 1.373 . S
C5419 C5421 1.389 . S
C5420 H5393 0.950 . S
C5420 C5406 1.377 . S
C5420 C5419 1.373 . S
C5421 C5405 1.377 . S
C5421 C5419 1.389 . S
C5421 C5422 1.524 . S
C5422 C5421 1.524 . S
C5422 C5423 1.397 . S
C5422 C5427 1.363 . S
C5423 H5394 0.950 . S
C5423 C5422 1.397 . S
C5423 C5424 1.334 . S
C5424 H5395 0.950 . S
C5424 C5423 1.334 . S
C5424 C5425 1.287 . S
C5425 C5424 1.287 . S
C5425 C5426 1.524 . S
C5425 H5428 0.999 . S
C5426 H5396 0.950 . S
C5426 C5425 1.524 . S
C5426 C5427 1.415 . S
C5427 H5397 0.950 . S
C5427 C5422 1.363 . S
C5427 C5426 1.415 . S
H5428 C5425 0.999 . S
H5429 C5410 0.913 . S
H5430 C5448 0.951 . S
H5431 C5450 0.951 . S
H5432 C5452 0.950 . S
H5433 C5453 0.950 . S
H5434 C5455 0.950 . S
H5435 C5458 0.950 . S
H5436 C5459 0.950 . S
H5437 C5461 0.950 . S
H5438 C5462 0.950 . S
H5439 C5463 0.951 . S
H5440 C5465 0.951 . S
H5441 C5467 0.950 . S
H5442 C5468 0.950 . S
H5443 C5470 0.950 . S
H5444 C5473 0.950 . S
H5445 C5474 0.950 . S
H5446 C5476 0.950 . S
H5447 C5477 0.950 . S
C5448 H5430 0.951 . S
C5448 C5449 1.366 . S
C5448 C5450 1.388 . S
C5449 C5448 1.366 . S
C5449 C5453 1.385 . S
C5450 H5431 0.951 . S
C5450 C5448 1.388 . S
C5450 C5451 1.366 . S
C5451 C5450 1.366 . S
C5451 C5452 1.414 . S
C5451 C5454 1.499 . S
C5452 H5432 0.950 . S
C5452 C5451 1.414 . S
C5452 C5453 1.374 . S
C5453 H5433 0.950 . S
C5453 C5449 1.385 . S
C5453 C5452 1.374 . S
C5454 C5451 1.499 . S
C5454 C5455 1.373 . S
C5454 C5456 1.389 . S
C5455 H5434 0.950 . S
C5455 C5454 1.373 . S
C5455 C5471 1.377 . S
C5456 C5454 1.389 . S
C5456 C5457 1.524 . S
C5456 C5470 1.377 . S
C5457 C5456 1.524 . S
C5457 C5458 1.397 . S
C5457 C5462 1.363 . S
C5458 H5435 0.950 . S
C5458 C5457 1.397 . S
C5458 C5459 1.334 . S
C5459 H5436 0.950 . S
C5459 C5458 1.334 . S
C5459 C5460 1.287 . S
C5460 C5459 1.287 . S
C5460 C5461 1.524 . S
C5460 H5479 0.913 . S
C5461 H5437 0.950 . S
C5461 C5460 1.524 . S
C5461 C5462 1.415 . S
C5462 H5438 0.950 . S
C5462 C5457 1.363 . S
C5462 C5461 1.415 . S
C5463 H5439 0.951 . S
C5463 C5464 1.366 . S
C5463 C5465 1.388 . S
C5464 C5463 1.366 . S
C5464 C5468 1.385 . S
C5465 H5440 0.951 . S
C5465 C5463 1.388 . S
C5465 C5466 1.366 . S
C5466 C5465 1.366 . S
C5466 C5467 1.414 . S
C5466 C5469 1.499 . S
C5467 H5441 0.950 . S
C5467 C5466 1.414 . S
C5467 C5468 1.374 . S
C5468 H5442 0.950 . S
C5468 C5464 1.385 . S
C5468 C5467 1.374 . S
C5469 C5466 1.499 . S
C5469 C5470 1.373 . S
C5469 C5471 1.389 . S
C5470 H5443 0.950 . S
C5470 C5456 1.377 . S
C5470 C5469 1.373 . S
C5471 C5455 1.377 . S
C5471 C5469 1.389 . S
C5471 C5472 1.524 . S
C5472 C5471 1.524 . S
C5472 C5473 1.397 . S
C5472 C5477 1.363 . S
C5473 H5444 0.950 . S
C5473 C5472 1.397 . S
C5473 C5474 1.334 . S
C5474 H5445 0.950 . S
C5474 C5473 1.334 . S
C5474 C5475 1.287 . S
C5475 C5474 1.287 . S
C5475 C5476 1.524 . S
C5475 H5478 0.999 . S
C5476 H5446 0.950 . S
C5476 C5475 1.524 . S
C5476 C5477 1.415 . S
C5477 H5447 0.950 . S
C5477 C5472 1.363 . S
C5477 C5476 1.415 . S
H5478 C5475 0.999 . S
H5479 C5460 0.913 . S
H5480 C5498 0.951 . S
H5481 C5500 0.951 . S
H5482 C5502 0.950 . S
H5483 C5503 0.950 . S
H5484 C5505 0.950 . S
H5485 C5508 0.950 . S
H5486 C5509 0.950 . S
H5487 C5511 0.950 . S
H5488 C5512 0.950 . S
H5489 C5513 0.951 . S
H5490 C5515 0.951 . S
H5491 C5517 0.950 . S
H5492 C5518 0.950 . S
H5493 C5520 0.950 . S
H5494 C5523 0.950 . S
H5495 C5524 0.950 . S
H5496 C5526 0.950 . S
H5497 C5527 0.950 . S
C5498 H5480 0.951 . S
C5498 C5499 1.366 . S
C5498 C5500 1.388 . S
C5499 C5498 1.366 . S
C5499 C5503 1.385 . S
C5500 H5481 0.951 . S
C5500 C5498 1.388 . S
C5500 C5501 1.366 . S
C5501 C5500 1.366 . S
C5501 C5502 1.414 . S
C5501 C5504 1.499 . S
C5502 H5482 0.950 . S
C5502 C5501 1.414 . S
C5502 C5503 1.374 . S
C5503 H5483 0.950 . S
C5503 C5499 1.385 . S
C5503 C5502 1.374 . S
C5504 C5501 1.499 . S
C5504 C5505 1.373 . S
C5504 C5506 1.389 . S
C5505 H5484 0.950 . S
C5505 C5504 1.373 . S
C5505 C5521 1.377 . S
C5506 C5504 1.389 . S
C5506 C5507 1.524 . S
C5506 C5520 1.377 . S
C5507 C5506 1.524 . S
C5507 C5508 1.397 . S
C5507 C5512 1.363 . S
C5508 H5485 0.950 . S
C5508 C5507 1.397 . S
C5508 C5509 1.334 . S
C5509 H5486 0.950 . S
C5509 C5508 1.334 . S
C5509 C5510 1.287 . S
C5510 C5509 1.287 . S
C5510 C5511 1.524 . S
C5510 H5529 0.913 . S
C5511 H5487 0.950 . S
C5511 C5510 1.524 . S
C5511 C5512 1.415 . S
C5512 H5488 0.950 . S
C5512 C5507 1.363 . S
C5512 C5511 1.415 . S
C5513 H5489 0.951 . S
C5513 C5514 1.366 . S
C5513 C5515 1.388 . S
C5514 C5513 1.366 . S
C5514 C5518 1.385 . S
C5515 H5490 0.951 . S
C5515 C5513 1.388 . S
C5515 C5516 1.366 . S
C5516 C5515 1.366 . S
C5516 C5517 1.414 . S
C5516 C5519 1.499 . S
C5517 H5491 0.950 . S
C5517 C5516 1.414 . S
C5517 C5518 1.374 . S
C5518 H5492 0.950 . S
C5518 C5514 1.385 . S
C5518 C5517 1.374 . S
C5519 C5516 1.499 . S
C5519 C5520 1.373 . S
C5519 C5521 1.389 . S
C5520 H5493 0.950 . S
C5520 C5506 1.377 . S
C5520 C5519 1.373 . S
C5521 C5505 1.377 . S
C5521 C5519 1.389 . S
C5521 C5522 1.524 . S
C5522 C5521 1.524 . S
C5522 C5523 1.397 . S
C5522 C5527 1.363 . S
C5523 H5494 0.950 . S
C5523 C5522 1.397 . S
C5523 C5524 1.334 . S
C5524 H5495 0.950 . S
C5524 C5523 1.334 . S
C5524 C5525 1.287 . S
C5525 C5524 1.287 . S
C5525 C5526 1.524 . S
C5525 H5528 0.999 . S
C5526 H5496 0.950 . S
C5526 C5525 1.524 . S
C5526 C5527 1.415 . S
C5527 H5497 0.950 . S
C5527 C5522 1.363 . S
C5527 C5526 1.415 . S
H5528 C5525 0.999 . S
H5529 C5510 0.913 . S
H5530 C5548 0.951 . S
H5531 C5550 0.951 . S
H5532 C5552 0.950 . S
H5533 C5553 0.950 . S
H5534 C5555 0.950 . S
H5535 C5558 0.950 . S
H5536 C5559 0.950 . S
H5537 C5561 0.950 . S
H5538 C5562 0.950 . S
H5539 C5563 0.951 . S
H5540 C5565 0.951 . S
H5541 C5567 0.950 . S
H5542 C5568 0.950 . S
H5543 C5570 0.950 . S
H5544 C5573 0.950 . S
H5545 C5574 0.950 . S
H5546 C5576 0.950 . S
H5547 C5577 0.950 . S
C5548 H5530 0.951 . S
C5548 C5549 1.366 . S
C5548 C5550 1.388 . S
C5549 C5548 1.366 . S
C5549 C5553 1.385 . S
C5550 H5531 0.951 . S
C5550 C5548 1.388 . S
C5550 C5551 1.366 . S
C5551 C5550 1.366 . S
C5551 C5552 1.414 . S
C5551 C5554 1.499 . S
C5552 H5532 0.950 . S
C5552 C5551 1.414 . S
C5552 C5553 1.374 . S
C5553 H5533 0.950 . S
C5553 C5549 1.385 . S
C5553 C5552 1.374 . S
C5554 C5551 1.499 . S
C5554 C5555 1.373 . S
C5554 C5556 1.389 . S
C5555 H5534 0.950 . S
C5555 C5554 1.373 . S
C5555 C5571 1.377 . S
C5556 C5554 1.389 . S
C5556 C5557 1.524 . S
C5556 C5570 1.377 . S
C5557 C5556 1.524 . S
C5557 C5558 1.397 . S
C5557 C5562 1.363 . S
C5558 H5535 0.950 . S
C5558 C5557 1.397 . S
C5558 C5559 1.334 . S
C5559 H5536 0.950 . S
C5559 C5558 1.334 . S
C5559 C5560 1.287 . S
C5560 C5559 1.287 . S
C5560 C5561 1.524 . S
C5560 H5579 0.913 . S
C5561 H5537 0.950 . S
C5561 C5560 1.524 . S
C5561 C5562 1.415 . S
C5562 H5538 0.950 . S
C5562 C5557 1.363 . S
C5562 C5561 1.415 . S
C5563 H5539 0.951 . S
C5563 C5564 1.366 . S
C5563 C5565 1.388 . S
C5564 C5563 1.366 . S
C5564 C5568 1.385 . S
C5565 H5540 0.951 . S
C5565 C5563 1.388 . S
C5565 C5566 1.366 . S
C5566 C5565 1.366 . S
C5566 C5567 1.414 . S
C5566 C5569 1.499 . S
C5567 H5541 0.950 . S
C5567 C5566 1.414 . S
C5567 C5568 1.374 . S
C5568 H5542 0.950 . S
C5568 C5564 1.385 . S
C5568 C5567 1.374 . S
C5569 C5566 1.499 . S
C5569 C5570 1.373 . S
C5569 C5571 1.389 . S
C5570 H5543 0.950 . S
C5570 C5556 1.377 . S
C5570 C5569 1.373 . S
C5571 C5555 1.377 . S
C5571 C5569 1.389 . S
C5571 C5572 1.524 . S
C5572 C5571 1.524 . S
C5572 C5573 1.397 . S
C5572 C5577 1.363 . S
C5573 H5544 0.950 . S
C5573 C5572 1.397 . S
C5573 C5574 1.334 . S
C5574 H5545 0.950 . S
C5574 C5573 1.334 . S
C5574 C5575 1.287 . S
C5575 C5574 1.287 . S
C5575 C5576 1.524 . S
C5575 H5578 0.999 . S
C5576 H5546 0.950 . S
C5576 C5575 1.524 . S
C5576 C5577 1.415 . S
C5577 H5547 0.950 . S
C5577 C5572 1.363 . S
C5577 C5576 1.415 . S
H5578 C5575 0.999 . S
H5579 C5560 0.913 . S
H5580 C5598 0.951 . S
H5581 C5600 0.951 . S
H5582 C5602 0.950 . S
H5583 C5603 0.950 . S
H5584 C5605 0.950 . S
H5585 C5608 0.950 . S
H5586 C5609 0.950 . S
H5587 C5611 0.950 . S
H5588 C5612 0.950 . S
H5589 C5613 0.951 . S
H5590 C5615 0.951 . S
H5591 C5617 0.950 . S
H5592 C5618 0.950 . S
H5593 C5620 0.950 . S
H5594 C5623 0.950 . S
H5595 C5624 0.950 . S
H5596 C5626 0.950 . S
H5597 C5627 0.950 . S
C5598 H5580 0.951 . S
C5598 C5599 1.366 . S
C5598 C5600 1.388 . S
C5599 C5598 1.366 . S
C5599 C5603 1.385 . S
C5600 H5581 0.951 . S
C5600 C5598 1.388 . S
C5600 C5601 1.366 . S
C5601 C5600 1.366 . S
C5601 C5602 1.414 . S
C5601 C5604 1.499 . S
C5602 H5582 0.950 . S
C5602 C5601 1.414 . S
C5602 C5603 1.374 . S
C5603 H5583 0.950 . S
C5603 C5599 1.385 . S
C5603 C5602 1.374 . S
C5604 C5601 1.499 . S
C5604 C5605 1.373 . S
C5604 C5606 1.389 . S
C5605 H5584 0.950 . S
C5605 C5604 1.373 . S
C5605 C5621 1.377 . S
C5606 C5604 1.389 . S
C5606 C5607 1.524 . S
C5606 C5620 1.377 . S
C5607 C5606 1.524 . S
C5607 C5608 1.397 . S
C5607 C5612 1.363 . S
C5608 H5585 0.950 . S
C5608 C5607 1.397 . S
C5608 C5609 1.334 . S
C5609 H5586 0.950 . S
C5609 C5608 1.334 . S
C5609 C5610 1.287 . S
C5610 C5609 1.287 . S
C5610 C5611 1.524 . S
C5610 H5629 0.913 . S
C5611 H5587 0.950 . S
C5611 C5610 1.524 . S
C5611 C5612 1.415 . S
C5612 H5588 0.950 . S
C5612 C5607 1.363 . S
C5612 C5611 1.415 . S
C5613 H5589 0.951 . S
C5613 C5614 1.366 . S
C5613 C5615 1.388 . S
C5614 C5613 1.366 . S
C5614 C5618 1.385 . S
C5615 H5590 0.951 . S
C5615 C5613 1.388 . S
C5615 C5616 1.366 . S
C5616 C5615 1.366 . S
C5616 C5617 1.414 . S
C5616 C5619 1.499 . S
C5617 H5591 0.950 . S
C5617 C5616 1.414 . S
C5617 C5618 1.374 . S
C5618 H5592 0.950 . S
C5618 C5614 1.385 . S
C5618 C5617 1.374 . S
C5619 C5616 1.499 . S
C5619 C5620 1.373 . S
C5619 C5621 1.389 . S
C5620 H5593 0.950 . S
C5620 C5606 1.377 . S
C5620 C5619 1.373 . S
C5621 C5605 1.377 . S
C5621 C5619 1.389 . S
C5621 C5622 1.524 . S
C5622 C5621 1.524 . S
C5622 C5623 1.397 . S
C5622 C5627 1.363 . S
C5623 H5594 0.950 . S
C5623 C5622 1.397 . S
C5623 C5624 1.334 . S
C5624 H5595 0.950 . S
C5624 C5623 1.334 . S
C5624 C5625 1.287 . S
C5625 C5624 1.287 . S
C5625 C5626 1.524 . S
C5625 H5628 0.999 . S
C5626 H5596 0.950 . S
C5626 C5625 1.524 . S
C5626 C5627 1.415 . S
C5627 H5597 0.950 . S
C5627 C5622 1.363 . S
C5627 C5626 1.415 . S
H5628 C5625 0.999 . S
H5629 C5610 0.913 . S
H5630 C5648 0.951 . S
H5631 C5650 0.951 . S
H5632 C5652 0.950 . S
H5633 C5653 0.950 . S
H5634 C5655 0.950 . S
H5635 C5658 0.950 . S
H5636 C5659 0.950 . S
H5637 C5661 0.950 . S
H5638 C5662 0.950 . S
H5639 C5663 0.951 . S
H5640 C5665 0.951 . S
H5641 C5667 0.950 . S
H5642 C5668 0.950 . S
H5643 C5670 0.950 . S
H5644 C5673 0.950 . S
H5645 C5674 0.950 . S
H5646 C5676 0.950 . S
H5647 C5677 0.950 . S
C5648 H5630 0.951 . S
C5648 C5649 1.366 . S
C5648 C5650 1.388 . S
C5649 C5648 1.366 . S
C5649 C5653 1.385 . S
C5650 H5631 0.951 . S
C5650 C5648 1.388 . S
C5650 C5651 1.366 . S
C5651 C5650 1.366 . S
C5651 C5652 1.414 . S
C5651 C5654 1.499 . S
C5652 H5632 0.950 . S
C5652 C5651 1.414 . S
C5652 C5653 1.374 . S
C5653 H5633 0.950 . S
C5653 C5649 1.385 . S
C5653 C5652 1.374 . S
C5654 C5651 1.499 . S
C5654 C5655 1.373 . S
C5654 C5656 1.389 . S
C5655 H5634 0.950 . S
C5655 C5654 1.373 . S
C5655 C5671 1.377 . S
C5656 C5654 1.389 . S
C5656 C5657 1.524 . S
C5656 C5670 1.377 . S
C5657 C5656 1.524 . S
C5657 C5658 1.397 . S
C5657 C5662 1.363 . S
C5658 H5635 0.950 . S
C5658 C5657 1.397 . S
C5658 C5659 1.334 . S
C5659 H5636 0.950 . S
C5659 C5658 1.334 . S
C5659 C5660 1.287 . S
C5660 C5659 1.287 . S
C5660 C5661 1.524 . S
C5660 H5679 0.913 . S
C5661 H5637 0.950 . S
C5661 C5660 1.524 . S
C5661 C5662 1.415 . S
C5662 H5638 0.950 . S
C5662 C5657 1.363 . S
C5662 C5661 1.415 . S
C5663 H5639 0.951 . S
C5663 C5664 1.366 . S
C5663 C5665 1.388 . S
C5664 C5663 1.366 . S
C5664 C5668 1.385 . S
C5665 H5640 0.951 . S
C5665 C5663 1.388 . S
C5665 C5666 1.366 . S
C5666 C5665 1.366 . S
C5666 C5667 1.414 . S
C5666 C5669 1.499 . S
C5667 H5641 0.950 . S
C5667 C5666 1.414 . S
C5667 C5668 1.374 . S
C5668 H5642 0.950 . S
C5668 C5664 1.385 . S
C5668 C5667 1.374 . S
C5669 C5666 1.499 . S
C5669 C5670 1.373 . S
C5669 C5671 1.389 . S
C5670 H5643 0.950 . S
C5670 C5656 1.377 . S
C5670 C5669 1.373 . S
C5671 C5655 1.377 . S
C5671 C5669 1.389 . S
C5671 C5672 1.524 . S
C5672 C5671 1.524 . S
C5672 C5673 1.397 . S
C5672 C5677 1.363 . S
C5673 H5644 0.950 . S
C5673 C5672 1.397 . S
C5673 C5674 1.334 . S
C5674 H5645 0.950 . S
C5674 C5673 1.334 . S
C5674 C5675 1.287 . S
C5675 C5674 1.287 . S
C5675 C5676 1.524 . S
C5675 H5678 0.999 . S
C5676 H5646 0.950 . S
C5676 C5675 1.524 . S
C5676 C5677 1.415 . S
C5677 H5647 0.950 . S
C5677 C5672 1.363 . S
C5677 C5676 1.415 . S
H5678 C5675 0.999 . S
H5679 C5660 0.913 . S
H5680 C5698 0.951 . S
H5681 C5700 0.951 . S
H5682 C5702 0.950 . S
H5683 C5703 0.950 . S
H5684 C5705 0.950 . S
H5685 C5708 0.950 . S
H5686 C5709 0.950 . S
H5687 C5711 0.950 . S
H5688 C5712 0.950 . S
H5689 C5713 0.951 . S
H5690 C5715 0.951 . S
H5691 C5717 0.950 . S
H5692 C5718 0.950 . S
H5693 C5720 0.950 . S
H5694 C5723 0.950 . S
H5695 C5724 0.950 . S
H5696 C5726 0.950 . S
H5697 C5727 0.950 . S
C5698 H5680 0.951 . S
C5698 C5699 1.366 . S
C5698 C5700 1.388 . S
C5699 C5698 1.366 . S
C5699 C5703 1.385 . S
C5700 H5681 0.951 . S
C5700 C5698 1.388 . S
C5700 C5701 1.366 . S
C5701 C5700 1.366 . S
C5701 C5702 1.414 . S
C5701 C5704 1.499 . S
C5702 H5682 0.950 . S
C5702 C5701 1.414 . S
C5702 C5703 1.374 . S
C5703 H5683 0.950 . S
C5703 C5699 1.385 . S
C5703 C5702 1.374 . S
C5704 C5701 1.499 . S
C5704 C5705 1.373 . S
C5704 C5706 1.389 . S
C5705 H5684 0.950 . S
C5705 C5704 1.373 . S
C5705 C5721 1.377 . S
C5706 C5704 1.389 . S
C5706 C5707 1.524 . S
C5706 C5720 1.377 . S
C5707 C5706 1.524 . S
C5707 C5708 1.397 . S
C5707 C5712 1.363 . S
C5708 H5685 0.950 . S
C5708 C5707 1.397 . S
C5708 C5709 1.334 . S
C5709 H5686 0.950 . S
C5709 C5708 1.334 . S
C5709 C5710 1.287 . S
C5710 C5709 1.287 . S
C5710 C5711 1.524 . S
C5710 H5729 0.913 . S
C5711 H5687 0.950 . S
C5711 C5710 1.524 . S
C5711 C5712 1.415 . S
C5712 H5688 0.950 . S
C5712 C5707 1.363 . S
C5712 C5711 1.415 . S
C5713 H5689 0.951 . S
C5713 C5714 1.366 . S
C5713 C5715 1.388 . S
C5714 C5713 1.366 . S
C5714 C5718 1.385 . S
C5715 H5690 0.951 . S
C5715 C5713 1.388 . S
C5715 C5716 1.366 . S
C5716 C5715 1.366 . S
C5716 C5717 1.414 . S
C5716 C5719 1.499 . S
C5717 H5691 0.950 . S
C5717 C5716 1.414 . S
C5717 C5718 1.374 . S
C5718 H5692 0.950 . S
C5718 C5714 1.385 . S
C5718 C5717 1.374 . S
C5719 C5716 1.499 . S
C5719 C5720 1.373 . S
C5719 C5721 1.389 . S
C5720 H5693 0.950 . S
C5720 C5706 1.377 . S
C5720 C5719 1.373 . S
C5721 C5705 1.377 . S
C5721 C5719 1.389 . S
C5721 C5722 1.524 . S
C5722 C5721 1.524 . S
C5722 C5723 1.397 . S
C5722 C5727 1.363 . S
C5723 H5694 0.950 . S
C5723 C5722 1.397 . S
C5723 C5724 1.334 . S
C5724 H5695 0.950 . S
C5724 C5723 1.334 . S
C5724 C5725 1.287 . S
C5725 C5724 1.287 . S
C5725 C5726 1.524 . S
C5725 H5728 0.999 . S
C5726 H5696 0.950 . S
C5726 C5725 1.524 . S
C5726 C5727 1.415 . S
C5727 H5697 0.950 . S
C5727 C5722 1.363 . S
C5727 C5726 1.415 . S
H5728 C5725 0.999 . S
H5729 C5710 0.913 . S
H5730 C5748 0.951 . S
H5731 C5750 0.951 . S
H5732 C5752 0.950 . S
H5733 C5753 0.950 . S
H5734 C5755 0.950 . S
H5735 C5758 0.950 . S
H5736 C5759 0.950 . S
H5737 C5761 0.950 . S
H5738 C5762 0.950 . S
H5739 C5763 0.951 . S
H5740 C5765 0.951 . S
H5741 C5767 0.950 . S
H5742 C5768 0.950 . S
H5743 C5770 0.950 . S
H5744 C5773 0.950 . S
H5745 C5774 0.950 . S
H5746 C5776 0.950 . S
H5747 C5777 0.950 . S
C5748 H5730 0.951 . S
C5748 C5749 1.366 . S
C5748 C5750 1.388 . S
C5749 C5748 1.366 . S
C5749 C5753 1.385 . S
C5750 H5731 0.951 . S
C5750 C5748 1.388 . S
C5750 C5751 1.366 . S
C5751 C5750 1.366 . S
C5751 C5752 1.414 . S
C5751 C5754 1.499 . S
C5752 H5732 0.950 . S
C5752 C5751 1.414 . S
C5752 C5753 1.374 . S
C5753 H5733 0.950 . S
C5753 C5749 1.385 . S
C5753 C5752 1.374 . S
C5754 C5751 1.499 . S
C5754 C5755 1.373 . S
C5754 C5756 1.389 . S
C5755 H5734 0.950 . S
C5755 C5754 1.373 . S
C5755 C5771 1.377 . S
C5756 C5754 1.389 . S
C5756 C5757 1.524 . S
C5756 C5770 1.377 . S
C5757 C5756 1.524 . S
C5757 C5758 1.397 . S
C5757 C5762 1.363 . S
C5758 H5735 0.950 . S
C5758 C5757 1.397 . S
C5758 C5759 1.334 . S
C5759 H5736 0.950 . S
C5759 C5758 1.334 . S
C5759 C5760 1.287 . S
C5760 C5759 1.287 . S
C5760 C5761 1.524 . S
C5760 H5779 0.913 . S
C5761 H5737 0.950 . S
C5761 C5760 1.524 . S
C5761 C5762 1.415 . S
C5762 H5738 0.950 . S
C5762 C5757 1.363 . S
C5762 C5761 1.415 . S
C5763 H5739 0.951 . S
C5763 C5764 1.366 . S
C5763 C5765 1.388 . S
C5764 C5763 1.366 . S
C5764 C5768 1.385 . S
C5765 H5740 0.951 . S
C5765 C5763 1.388 . S
C5765 C5766 1.366 . S
C5766 C5765 1.366 . S
C5766 C5767 1.414 . S
C5766 C5769 1.499 . S
C5767 H5741 0.950 . S
C5767 C5766 1.414 . S
C5767 C5768 1.374 . S
C5768 H5742 0.950 . S
C5768 C5764 1.385 . S
C5768 C5767 1.374 . S
C5769 C5766 1.499 . S
C5769 C5770 1.373 . S
C5769 C5771 1.389 . S
C5770 H5743 0.950 . S
C5770 C5756 1.377 . S
C5770 C5769 1.373 . S
C5771 C5755 1.377 . S
C5771 C5769 1.389 . S
C5771 C5772 1.524 . S
C5772 C5771 1.524 . S
C5772 C5773 1.397 . S
C5772 C5777 1.363 . S
C5773 H5744 0.950 . S
C5773 C5772 1.397 . S
C5773 C5774 1.334 . S
C5774 H5745 0.950 . S
C5774 C5773 1.334 . S
C5774 C5775 1.287 . S
C5775 C5774 1.287 . S
C5775 C5776 1.524 . S
C5775 H5778 0.999 . S
C5776 H5746 0.950 . S
C5776 C5775 1.524 . S
C5776 C5777 1.415 . S
C5777 H5747 0.950 . S
C5777 C5772 1.363 . S
C5777 C5776 1.415 . S
H5778 C5775 0.999 . S
H5779 C5760 0.913 . S
H5780 C5798 0.951 . S
H5781 C5800 0.951 . S
H5782 C5802 0.950 . S
H5783 C5803 0.950 . S
H5784 C5805 0.950 . S
H5785 C5808 0.950 . S
H5786 C5809 0.950 . S
H5787 C5811 0.950 . S
H5788 C5812 0.950 . S
H5789 C5813 0.951 . S
H5790 C5815 0.951 . S
H5791 C5817 0.950 . S
H5792 C5818 0.950 . S
H5793 C5820 0.950 . S
H5794 C5823 0.950 . S
H5795 C5824 0.950 . S
H5796 C5826 0.950 . S
H5797 C5827 0.950 . S
C5798 H5780 0.951 . S
C5798 C5799 1.366 . S
C5798 C5800 1.388 . S
C5799 C5798 1.366 . S
C5799 C5803 1.385 . S
C5800 H5781 0.951 . S
C5800 C5798 1.388 . S
C5800 C5801 1.366 . S
C5801 C5800 1.366 . S
C5801 C5802 1.414 . S
C5801 C5804 1.499 . S
C5802 H5782 0.950 . S
C5802 C5801 1.414 . S
C5802 C5803 1.374 . S
C5803 H5783 0.950 . S
C5803 C5799 1.385 . S
C5803 C5802 1.374 . S
C5804 C5801 1.499 . S
C5804 C5805 1.373 . S
C5804 C5806 1.389 . S
C5805 H5784 0.950 . S
C5805 C5804 1.373 . S
C5805 C5821 1.377 . S
C5806 C5804 1.389 . S
C5806 C5807 1.524 . S
C5806 C5820 1.377 . S
C5807 C5806 1.524 . S
C5807 C5808 1.397 . S
C5807 C5812 1.363 . S
C5808 H5785 0.950 . S
C5808 C5807 1.397 . S
C5808 C5809 1.334 . S
C5809 H5786 0.950 . S
C5809 C5808 1.334 . S
C5809 C5810 1.287 . S
C5810 C5809 1.287 . S
C5810 C5811 1.524 . S
C5810 H5829 0.913 . S
C5811 H5787 0.950 . S
C5811 C5810 1.524 . S
C5811 C5812 1.415 . S
C5812 H5788 0.950 . S
C5812 C5807 1.363 . S
C5812 C5811 1.415 . S
C5813 H5789 0.951 . S
C5813 C5814 1.366 . S
C5813 C5815 1.388 . S
C5814 C5813 1.366 . S
C5814 C5818 1.385 . S
C5815 H5790 0.951 . S
C5815 C5813 1.388 . S
C5815 C5816 1.366 . S
C5816 C5815 1.366 . S
C5816 C5817 1.414 . S
C5816 C5819 1.499 . S
C5817 H5791 0.950 . S
C5817 C5816 1.414 . S
C5817 C5818 1.374 . S
C5818 H5792 0.950 . S
C5818 C5814 1.385 . S
C5818 C5817 1.374 . S
C5819 C5816 1.499 . S
C5819 C5820 1.373 . S
C5819 C5821 1.389 . S
C5820 H5793 0.950 . S
C5820 C5806 1.377 . S
C5820 C5819 1.373 . S
C5821 C5805 1.377 . S
C5821 C5819 1.389 . S
C5821 C5822 1.524 . S
C5822 C5821 1.524 . S
C5822 C5823 1.397 . S
C5822 C5827 1.363 . S
C5823 H5794 0.950 . S
C5823 C5822 1.397 . S
C5823 C5824 1.334 . S
C5824 H5795 0.950 . S
C5824 C5823 1.334 . S
C5824 C5825 1.287 . S
C5825 C5824 1.287 . S
C5825 C5826 1.524 . S
C5825 H5828 0.999 . S
C5826 H5796 0.950 . S
C5826 C5825 1.524 . S
C5826 C5827 1.415 . S
C5827 H5797 0.950 . S
C5827 C5822 1.363 . S
C5827 C5826 1.415 . S
H5828 C5825 0.999 . S
H5829 C5810 0.913 . S
H5830 C5848 0.951 . S
H5831 C5850 0.951 . S
H5832 C5852 0.950 . S
H5833 C5853 0.950 . S
H5834 C5855 0.950 . S
H5835 C5858 0.950 . S
H5836 C5859 0.950 . S
H5837 C5861 0.950 . S
H5838 C5862 0.950 . S
H5839 C5863 0.951 . S
H5840 C5865 0.951 . S
H5841 C5867 0.950 . S
H5842 C5868 0.950 . S
H5843 C5870 0.950 . S
H5844 C5873 0.950 . S
H5845 C5874 0.950 . S
H5846 C5876 0.950 . S
H5847 C5877 0.950 . S
C5848 H5830 0.951 . S
C5848 C5849 1.366 . S
C5848 C5850 1.388 . S
C5849 C5848 1.366 . S
C5849 C5853 1.385 . S
C5850 H5831 0.951 . S
C5850 C5848 1.388 . S
C5850 C5851 1.366 . S
C5851 C5850 1.366 . S
C5851 C5852 1.414 . S
C5851 C5854 1.499 . S
C5852 H5832 0.950 . S
C5852 C5851 1.414 . S
C5852 C5853 1.374 . S
C5853 H5833 0.950 . S
C5853 C5849 1.385 . S
C5853 C5852 1.374 . S
C5854 C5851 1.499 . S
C5854 C5855 1.373 . S
C5854 C5856 1.389 . S
C5855 H5834 0.950 . S
C5855 C5854 1.373 . S
C5855 C5871 1.377 . S
C5856 C5854 1.389 . S
C5856 C5857 1.524 . S
C5856 C5870 1.377 . S
C5857 C5856 1.524 . S
C5857 C5858 1.397 . S
C5857 C5862 1.363 . S
C5858 H5835 0.950 . S
C5858 C5857 1.397 . S
C5858 C5859 1.334 . S
C5859 H5836 0.950 . S
C5859 C5858 1.334 . S
C5859 C5860 1.287 . S
C5860 C5859 1.287 . S
C5860 C5861 1.524 . S
C5860 H5879 0.913 . S
C5861 H5837 0.950 . S
C5861 C5860 1.524 . S
C5861 C5862 1.415 . S
C5862 H5838 0.950 . S
C5862 C5857 1.363 . S
C5862 C5861 1.415 . S
C5863 H5839 0.951 . S
C5863 C5864 1.366 . S
C5863 C5865 1.388 . S
C5864 C5863 1.366 . S
C5864 C5868 1.385 . S
C5865 H5840 0.951 . S
C5865 C5863 1.388 . S
C5865 C5866 1.366 . S
C5866 C5865 1.366 . S
C5866 C5867 1.414 . S
C5866 C5869 1.499 . S
C5867 H5841 0.950 . S
C5867 C5866 1.414 . S
C5867 C5868 1.374 . S
C5868 H5842 0.950 . S
C5868 C5864 1.385 . S
C5868 C5867 1.374 . S
C5869 C5866 1.499 . S
C5869 C5870 1.373 . S
C5869 C5871 1.389 . S
C5870 H5843 0.950 . S
C5870 C5856 1.377 . S
C5870 C5869 1.373 . S
C5871 C5855 1.377 . S
C5871 C5869 1.389 . S
C5871 C5872 1.524 . S
C5872 C5871 1.524 . S
C5872 C5873 1.397 . S
C5872 C5877 1.363 . S
C5873 H5844 0.950 . S
C5873 C5872 1.397 . S
C5873 C5874 1.334 . S
C5874 H5845 0.950 . S
C5874 C5873 1.334 . S
C5874 C5875 1.287 . S
C5875 C5874 1.287 . S
C5875 C5876 1.524 . S
C5875 H5878 0.999 . S
C5876 H5846 0.950 . S
C5876 C5875 1.524 . S
C5876 C5877 1.415 . S
C5877 H5847 0.950 . S
C5877 C5872 1.363 . S
C5877 C5876 1.415 . S
H5878 C5875 0.999 . S
H5879 C5860 0.913 . S
H5880 C5898 0.951 . S
H5881 C5900 0.951 . S
H5882 C5902 0.950 . S
H5883 C5903 0.950 . S
H5884 C5905 0.950 . S
H5885 C5908 0.950 . S
H5886 C5909 0.950 . S
H5887 C5911 0.950 . S
H5888 C5912 0.950 . S
H5889 C5913 0.951 . S
H5890 C5915 0.951 . S
H5891 C5917 0.950 . S
H5892 C5918 0.950 . S
H5893 C5920 0.950 . S
H5894 C5923 0.950 . S
H5895 C5924 0.950 . S
H5896 C5926 0.950 . S
H5897 C5927 0.950 . S
C5898 H5880 0.951 . S
C5898 C5899 1.366 . S
C5898 C5900 1.388 . S
C5899 C5898 1.366 . S
C5899 C5903 1.385 . S
C5900 H5881 0.951 . S
C5900 C5898 1.388 . S
C5900 C5901 1.366 . S
C5901 C5900 1.366 . S
C5901 C5902 1.414 . S
C5901 C5904 1.499 . S
C5902 H5882 0.950 . S
C5902 C5901 1.414 . S
C5902 C5903 1.374 . S
C5903 H5883 0.950 . S
C5903 C5899 1.385 . S
C5903 C5902 1.374 . S
C5904 C5901 1.499 . S
C5904 C5905 1.373 . S
C5904 C5906 1.389 . S
C5905 H5884 0.950 . S
C5905 C5904 1.373 . S
C5905 C5921 1.377 . S
C5906 C5904 1.389 . S
C5906 C5907 1.524 . S
C5906 C5920 1.377 . S
C5907 C5906 1.524 . S
C5907 C5908 1.397 . S
C5907 C5912 1.363 . S
C5908 H5885 0.950 . S
C5908 C5907 1.397 . S
C5908 C5909 1.334 . S
C5909 H5886 0.950 . S
C5909 C5908 1.334 . S
C5909 C5910 1.287 . S
C5910 C5909 1.287 . S
C5910 C5911 1.524 . S
C5910 H5929 0.913 . S
C5911 H5887 0.950 . S
C5911 C5910 1.524 . S
C5911 C5912 1.415 . S
C5912 H5888 0.950 . S
C5912 C5907 1.363 . S
C5912 C5911 1.415 . S
C5913 H5889 0.951 . S
C5913 C5914 1.366 . S
C5913 C5915 1.388 . S
C5914 C5913 1.366 . S
C5914 C5918 1.385 . S
C5915 H5890 0.951 . S
C5915 C5913 1.388 . S
C5915 C5916 1.366 . S
C5916 C5915 1.366 . S
C5916 C5917 1.414 . S
C5916 C5919 1.499 . S
C5917 H5891 0.950 . S
C5917 C5916 1.414 . S
C5917 C5918 1.374 . S
C5918 H5892 0.950 . S
C5918 C5914 1.385 . S
C5918 C5917 1.374 . S
C5919 C5916 1.499 . S
C5919 C5920 1.373 . S
C5919 C5921 1.389 . S
C5920 H5893 0.950 . S
C5920 C5906 1.377 . S
C5920 C5919 1.373 . S
C5921 C5905 1.377 . S
C5921 C5919 1.389 . S
C5921 C5922 1.524 . S
C5922 C5921 1.524 . S
C5922 C5923 1.397 . S
C5922 C5927 1.363 . S
C5923 H5894 0.950 . S
C5923 C5922 1.397 . S
C5923 C5924 1.334 . S
C5924 H5895 0.950 . S
C5924 C5923 1.334 . S
C5924 C5925 1.287 . S
C5925 C5924 1.287 . S
C5925 C5926 1.524 . S
C5925 H5928 0.999 . S
C5926 H5896 0.950 . S
C5926 C5925 1.524 . S
C5926 C5927 1.415 . S
C5927 H5897 0.950 . S
C5927 C5922 1.363 . S
C5927 C5926 1.415 . S
H5928 C5925 0.999 . S
H5929 C5910 0.913 . S
H5930 C5948 0.951 . S
H5931 C5950 0.951 . S
H5932 C5952 0.950 . S
H5933 C5953 0.950 . S
H5934 C5955 0.950 . S
H5935 C5958 0.950 . S
H5936 C5959 0.950 . S
H5937 C5961 0.950 . S
H5938 C5962 0.950 . S
H5939 C5963 0.951 . S
H5940 C5965 0.951 . S
H5941 C5967 0.950 . S
H5942 C5968 0.950 . S
H5943 C5970 0.950 . S
H5944 C5973 0.950 . S
H5945 C5974 0.950 . S
H5946 C5976 0.950 . S
H5947 C5977 0.950 . S
C5948 H5930 0.951 . S
C5948 C5949 1.366 . S
C5948 C5950 1.388 . S
C5949 C5948 1.366 . S
C5949 C5953 1.385 . S
C5950 H5931 0.951 . S
C5950 C5948 1.388 . S
C5950 C5951 1.366 . S
C5951 C5950 1.366 . S
C5951 C5952 1.414 . S
C5951 C5954 1.499 . S
C5952 H5932 0.950 . S
C5952 C5951 1.414 . S
C5952 C5953 1.374 . S
C5953 H5933 0.950 . S
C5953 C5949 1.385 . S
C5953 C5952 1.374 . S
C5954 C5951 1.499 . S
C5954 C5955 1.373 . S
C5954 C5956 1.389 . S
C5955 H5934 0.950 . S
C5955 C5954 1.373 . S
C5955 C5971 1.377 . S
C5956 C5954 1.389 . S
C5956 C5957 1.524 . S
C5956 C5970 1.377 . S
C5957 C5956 1.524 . S
C5957 C5958 1.397 . S
C5957 C5962 1.363 . S
C5958 H5935 0.950 . S
C5958 C5957 1.397 . S
C5958 C5959 1.334 . S
C5959 H5936 0.950 . S
C5959 C5958 1.334 . S
C5959 C5960 1.287 . S
C5960 C5959 1.287 . S
C5960 C5961 1.524 . S
C5960 H5979 0.913 . S
C5961 H5937 0.950 . S
C5961 C5960 1.524 . S
C5961 C5962 1.415 . S
C5962 H5938 0.950 . S
C5962 C5957 1.363 . S
C5962 C5961 1.415 . S
C5963 H5939 0.951 . S
C5963 C5964 1.366 . S
C5963 C5965 1.388 . S
C5964 C5963 1.366 . S
C5964 C5968 1.385 . S
C5965 H5940 0.951 . S
C5965 C5963 1.388 . S
C5965 C5966 1.366 . S
C5966 C5965 1.366 . S
C5966 C5967 1.414 . S
C5966 C5969 1.499 . S
C5967 H5941 0.950 . S
C5967 C5966 1.414 . S
C5967 C5968 1.374 . S
C5968 H5942 0.950 . S
C5968 C5964 1.385 . S
C5968 C5967 1.374 . S
C5969 C5966 1.499 . S
C5969 C5970 1.373 . S
C5969 C5971 1.389 . S
C5970 H5943 0.950 . S
C5970 C5956 1.377 . S
C5970 C5969 1.373 . S
C5971 C5955 1.377 . S
C5971 C5969 1.389 . S
C5971 C5972 1.524 . S
C5972 C5971 1.524 . S
C5972 C5973 1.397 . S
C5972 C5977 1.363 . S
C5973 H5944 0.950 . S
C5973 C5972 1.397 . S
C5973 C5974 1.334 . S
C5974 H5945 0.950 . S
C5974 C5973 1.334 . S
C5974 C5975 1.287 . S
C5975 C5974 1.287 . S
C5975 C5976 1.524 . S
C5975 H5978 0.999 . S
C5976 H5946 0.950 . S
C5976 C5975 1.524 . S
C5976 C5977 1.415 . S
C5977 H5947 0.950 . S
C5977 C5972 1.363 . S
C5977 C5976 1.415 . S
H5978 C5975 0.999 . S
H5979 C5960 0.913 . S
H5980 C5998 0.951 . S
H5981 C6000 0.951 . S
H5982 C6002 0.950 . S
H5983 C6003 0.950 . S
H5984 C6005 0.950 . S
H5985 C6008 0.950 . S
H5986 C6009 0.950 . S
H5987 C6011 0.950 . S
H5988 C6012 0.950 . S
H5989 C6013 0.951 . S
H5990 C6015 0.951 . S
H5991 C6017 0.950 . S
H5992 C6018 0.950 . S
H5993 C6020 0.950 . S
H5994 C6023 0.950 . S
H5995 C6024 0.950 . S
H5996 C6026 0.950 . S
H5997 C6027 0.950 . S
C5998 H5980 0.951 . S
C5998 C5999 1.366 . S
C5998 C6000 1.388 . S
C5999 C5998 1.366 . S
C5999 C6003 1.385 . S
C6000 H5981 0.951 . S
C6000 C5998 1.388 . S
C6000 C6001 1.366 . S
C6001 C6000 1.366 . S
C6001 C6002 1.414 . S
C6001 C6004 1.499 . S
C6002 H5982 0.950 . S
C6002 C6001 1.414 . S
C6002 C6003 1.374 . S
C6003 H5983 0.950 . S
C6003 C5999 1.385 . S
C6003 C6002 1.374 . S
C6004 C6001 1.499 . S
C6004 C6005 1.373 . S
C6004 C6006 1.389 . S
C6005 H5984 0.950 . S
C6005 C6004 1.373 . S
C6005 C6021 1.377 . S
C6006 C6004 1.389 . S
C6006 C6007 1.524 . S
C6006 C6020 1.377 . S
C6007 C6006 1.524 . S
C6007 C6008 1.397 . S
C6007 C6012 1.363 . S
C6008 H5985 0.950 . S
C6008 C6007 1.397 . S
C6008 C6009 1.334 . S
C6009 H5986 0.950 . S
C6009 C6008 1.334 . S
C6009 C6010 1.287 . S
C6010 C6009 1.287 . S
C6010 C6011 1.524 . S
C6010 H6029 0.913 . S
C6011 H5987 0.950 . S
C6011 C6010 1.524 . S
C6011 C6012 1.415 . S
C6012 H5988 0.950 . S
C6012 C6007 1.363 . S
C6012 C6011 1.415 . S
C6013 H5989 0.951 . S
C6013 C6014 1.366 . S
C6013 C6015 1.388 . S
C6014 C6013 1.366 . S
C6014 C6018 1.385 . S
C6015 H5990 0.951 . S
C6015 C6013 1.388 . S
C6015 C6016 1.366 . S
C6016 C6015 1.366 . S
C6016 C6017 1.414 . S
C6016 C6019 1.499 . S
C6017 H5991 0.950 . S
C6017 C6016 1.414 . S
C6017 C6018 1.374 . S
C6018 H5992 0.950 . S
C6018 C6014 1.385 . S
C6018 C6017 1.374 . S
C6019 C6016 1.499 . S
C6019 C6020 1.373 . S
C6019 C6021 1.389 . S
C6020 H5993 0.950 . S
C6020 C6006 1.377 . S
C6020 C6019 1.373 . S
C6021 C6005 1.377 . S
C6021 C6019 1.389 . S
C6021 C6022 1.524 . S
C6022 C6021 1.524 . S
C6022 C6023 1.397 . S
C6022 C6027 1.363 . S
C6023 H5994 0.950 . S
C6023 C6022 1.397 . S
C6023 C6024 1.334 . S
C6024 H5995 0.950 . S
C6024 C6023 1.334 . S
C6024 C6025 1.287 . S
C6025 C6024 1.287 . S
C6025 C6026 1.524 . S
C6025 H6028 0.999 . S
C6026 H5996 0.950 . S
C6026 C6025 1.524 . S
C6026 C6027 1.415 . S
C6027 H5997 0.950 . S
C6027 C6022 1.363 . S
C6027 C6026 1.415 . S
H6028 C6025 0.999 . S
H6029 C6010 0.913 . S
H6030 C6048 0.951 . S
H6031 C6050 0.951 . S
H6032 C6052 0.950 . S
H6033 C6053 0.950 . S
H6034 C6055 0.950 . S
H6035 C6058 0.950 . S
H6036 C6059 0.950 . S
H6037 C6061 0.950 . S
H6038 C6062 0.950 . S
H6039 C6063 0.951 . S
H6040 C6065 0.951 . S
H6041 C6067 0.950 . S
H6042 C6068 0.950 . S
H6043 C6070 0.950 . S
H6044 C6073 0.950 . S
H6045 C6074 0.950 . S
H6046 C6076 0.950 . S
H6047 C6077 0.950 . S
C6048 H6030 0.951 . S
C6048 C6049 1.366 . S
C6048 C6050 1.388 . S
C6049 C6048 1.366 . S
C6049 C6053 1.385 . S
C6050 H6031 0.951 . S
C6050 C6048 1.388 . S
C6050 C6051 1.366 . S
C6051 C6050 1.366 . S
C6051 C6052 1.414 . S
C6051 C6054 1.499 . S
C6052 H6032 0.950 . S
C6052 C6051 1.414 . S
C6052 C6053 1.374 . S
C6053 H6033 0.950 . S
C6053 C6049 1.385 . S
C6053 C6052 1.374 . S
C6054 C6051 1.499 . S
C6054 C6055 1.373 . S
C6054 C6056 1.389 . S
C6055 H6034 0.950 . S
C6055 C6054 1.373 . S
C6055 C6071 1.377 . S
C6056 C6054 1.389 . S
C6056 C6057 1.524 . S
C6056 C6070 1.377 . S
C6057 C6056 1.524 . S
C6057 C6058 1.397 . S
C6057 C6062 1.363 . S
C6058 H6035 0.950 . S
C6058 C6057 1.397 . S
C6058 C6059 1.334 . S
C6059 H6036 0.950 . S
C6059 C6058 1.334 . S
C6059 C6060 1.287 . S
C6060 C6059 1.287 . S
C6060 C6061 1.524 . S
C6060 H6079 0.913 . S
C6061 H6037 0.950 . S
C6061 C6060 1.524 . S
C6061 C6062 1.415 . S
C6062 H6038 0.950 . S
C6062 C6057 1.363 . S
C6062 C6061 1.415 . S
C6063 H6039 0.951 . S
C6063 C6064 1.366 . S
C6063 C6065 1.388 . S
C6064 C6063 1.366 . S
C6064 C6068 1.385 . S
C6065 H6040 0.951 . S
C6065 C6063 1.388 . S
C6065 C6066 1.366 . S
C6066 C6065 1.366 . S
C6066 C6067 1.414 . S
C6066 C6069 1.499 . S
C6067 H6041 0.950 . S
C6067 C6066 1.414 . S
C6067 C6068 1.374 . S
C6068 H6042 0.950 . S
C6068 C6064 1.385 . S
C6068 C6067 1.374 . S
C6069 C6066 1.499 . S
C6069 C6070 1.373 . S
C6069 C6071 1.389 . S
C6070 H6043 0.950 . S
C6070 C6056 1.377 . S
C6070 C6069 1.373 . S
C6071 C6055 1.377 . S
C6071 C6069 1.389 . S
C6071 C6072 1.524 . S
C6072 C6071 1.524 . S
C6072 C6073 1.397 . S
C6072 C6077 1.363 . S
C6073 H6044 0.950 . S
C6073 C6072 1.397 . S
C6073 C6074 1.334 . S
C6074 H6045 0.950 . S
C6074 C6073 1.334 . S
C6074 C6075 1.287 . S
C6075 C6074 1.287 . S
C6075 C6076 1.524 . S
C6075 H6078 0.999 . S
C6076 H6046 0.950 . S
C6076 C6075 1.524 . S
C6076 C6077 1.415 . S
C6077 H6047 0.950 . S
C6077 C6072 1.363 . S
C6077 C6076 1.415 . S
H6078 C6075 0.999 . S
H6079 C6060 0.913 . S
C1299 C6 1.113 . S
C1314 C139 1.068 . S
C1349 C19 1.069 . S
C1364 C46 1.113 . S
C1399 C86 1.114 . S
C1414 C59 1.068 . S
C1449 C99 1.069 . S
C1464 C126 1.114 . S
C1499 C219 1.068 . S
C1514 C166 1.114 . S
C1549 C206 1.114 . S
C1564 C259 1.068 . S
C1599 C299 1.069 . S
C1614 C246 1.113 . S
C1649 C179 1.069 . S
C1664 C286 1.114 . S
C1699 C335 1.113 . S
C1714 C450 1.069 . S
C1749 C375 1.113 . S
C1764 C330 1.070 . S
C1799 C415 1.113 . S
C1814 C370 1.069 . S
C1849 C455 1.114 . S
C1864 C410 1.068 . S
C1899 C495 1.114 . S
C1914 C530 1.068 . S
C1949 C535 1.114 . S
C1964 C570 1.068 . S
C1999 C610 1.069 . S
C2014 C575 1.113 . S
C2049 C490 1.070 . S
C2064 C615 1.114 . S
C2099 C646 1.113 . S
C2114 C779 1.070 . S
C2149 C659 1.069 . S
C2164 C686 1.114 . S
C2199 C699 1.069 . S
C2214 C726 1.113 . S
C2249 C766 1.113 . S
C2264 C739 1.069 . S
C2299 C806 1.114 . S
C2314 C859 1.068 . S
C2349 C899 1.068 . S
C2364 C846 1.114 . S
C2399 C886 1.114 . S
C2414 C939 1.069 . S
C2449 C819 1.068 . S
C2464 C926 1.114 . S
C2499 C1090 1.068 . S
C2514 C975 1.114 . S
C2549 C970 1.069 . S
C2564 C1015 1.114 . S
C2599 C1055 1.113 . S
C2614 C1010 1.069 . S
C2649 C1050 1.069 . S
C2664 C1095 1.113 . S
C2699 C1170 1.068 . S
C2714 C1135 1.114 . S
C2749 C1210 1.068 . S
C2764 C1175 1.114 . S
C2799 C1250 1.069 . S
C2814 C1215 1.113 . S
C2849 C1255 1.114 . S
C2864 C1130 1.068 . S
C2899 C1086 1.573 . S
C2914 C9 1.526 . S
C2949 C49 1.526 . S
C2964 C326 1.574 . S
C2999 C89 1.526 . S
C3014 C1006 1.573 . S
C3049 C129 1.527 . S
C3064 C406 1.574 . S
C3099 C169 1.525 . S
C3114 C1166 1.572 . S
C3149 C566 1.574 . S
C3164 C209 1.527 . S
C3199 C1246 1.573 . S
C3214 C249 1.526 . S
C3249 C289 1.526 . S
C3264 C486 1.573 . S
C3299 C338 1.525 . S
C3314 C775 1.573 . S
C3349 C15 1.573 . S
C3364 C378 1.526 . S
C3399 C695 1.572 . S
C3414 C418 1.525 . S
C3449 C95 1.574 . S
C3464 C458 1.526 . S
C3499 C855 1.573 . S
C3514 C498 1.525 . S
C3549 C255 1.574 . S
C3564 C538 1.526 . S
C3599 C578 1.526 . S
C3614 C935 1.573 . S
C3649 C618 1.526 . S
C3664 C175 1.573 . S
C3699 C649 1.526 . S
C3714 C446 1.573 . S
C3749 C689 1.527 . S
C3764 C966 1.574 . S
C3799 C729 1.526 . S
C3814 C366 1.573 . S
C3849 C769 1.526 . S
C3864 C1046 1.573 . S
C3899 C809 1.526 . S
C3914 C526 1.573 . S
C3949 C849 1.527 . S
C3964 C1206 1.574 . S
C3999 C606 1.573 . S
C4014 C889 1.526 . S
C4049 C929 1.527 . S
C4064 C1126 1.574 . S
C4099 C135 1.573 . S
C4114 C978 1.526 . S
C4149 C655 1.573 . S
C4164 C1018 1.526 . S
C4199 C55 1.573 . S
C4214 C1058 1.526 . S
C4249 C735 1.574 . S
C4264 C1098 1.527 . S
C4299 C215 1.573 . S
C4314 C1138 1.526 . S
C4349 C1178 1.527 . S
C4364 C895 1.574 . S
C4399 C1218 1.525 . S
C4414 C295 1.572 . S
C4449 C815 1.573 . S
C4464 C1258 1.526 . S
C4499 C18 0.361 . S
C4514 C178 0.362 . S
C4549 C58 0.365 . S
C4564 C218 0.362 . S
C4599 C98 0.363 . S
C4614 C258 0.365 . S
C4649 C298 0.361 . S
C4664 C138 0.362 . S
C4699 C489 0.363 . S
C4714 C329 0.361 . S
C4749 C529 0.361 . S
C4764 C369 0.365 . S
C4799 C409 0.363 . S
C4814 C569 0.364 . S
C4849 C449 0.360 . S
C4864 C609 0.364 . S
C4899 C658 0.362 . S
C4914 C818 0.365 . S
C4949 C858 0.361 . S
C4964 C698 0.364 . S
C4999 C898 0.361 . S
C5014 C738 0.365 . S
C5049 C938 0.365 . S
C5064 C778 0.362 . S
C5099 C1129 0.361 . S
C5114 C969 0.362 . S
C5149 C1009 0.365 . S
C5164 C1169 0.362 . S
C5199 C1209 0.364 . S
C5214 C1049 0.361 . S
C5249 C1089 0.364 . S
C5264 C1249 0.362 . S
C5299 C290 2.771 . S
C5314 C10 2.771 . S
C5349 C50 2.771 . S
C5364 C170 2.771 . S
C5399 C90 2.771 . S
C5414 C210 2.771 . S
C5449 C250 2.771 . S
C5464 C130 2.771 . S
C5499 C339 2.771 . S
C5514 C619 2.771 . S
C5549 C499 2.771 . S
C5564 C379 2.771 . S
C5599 C539 2.771 . S
C5614 C419 2.771 . S
C5649 C459 2.771 . S
C5664 C579 2.771 . S
C5699 C650 2.771 . S
C5714 C930 2.771 . S
C5749 C810 2.771 . S
C5764 C690 2.771 . S
C5799 C850 2.771 . S
C5814 C730 2.771 . S
C5849 C890 2.771 . S
C5864 C770 2.771 . S
C5899 C979 2.771 . S
C5914 C1259 2.771 . S
C5949 C1139 2.771 . S
C5964 C1019 2.771 . S
C5999 C1059 2.771 . S
C6014 C1179 2.771 . S
C6049 C1219 2.771 . S
C6064 C1099 2.771 . S
