# Generated by pormake.
# Topology wjx, (5)-cn, num edge types: 1
# Building blocks:
#     Node 0, Type 0, BuildingBlock: BEQFEK_clean_sbu_0, # of connection points: 5
#     Node 1, Type 0, BuildingBlock: BEQFEK_clean_sbu_0, # of connection points: 5
#     Node 2, Type 0, BuildingBlock: BEQFEK_clean_sbu_0, # of connection points: 5
#     Node 3, Type 0, BuildingBlock: BEQFEK_clean_sbu_0, # of connection points: 5
#     Node 4, Type 0, BuildingBlock: BEQFEK_clean_sbu_0, # of connection points: 5
#     Node 5, Type 0, BuildingBlock: BEQFEK_clean_sbu_0, # of connection points: 5
#     Node 6, Type 0, BuildingBlock: BEQFEK_clean_sbu_0, # of connection points: 5
#     Node 7, Type 0, BuildingBlock: BEQFEK_clean_sbu_0, # of connection points: 5
#     Node 8, Type 0, BuildingBlock: BEQFEK_clean_sbu_0, # of connection points: 5
#     Node 9, Type 0, BuildingBlock: BEQFEK_clean_sbu_0, # of connection points: 5
#     Node 10, Type 0, BuildingBlock: BEQFEK_clean_sbu_0, # of connection points: 5
#     Node 11, Type 0, BuildingBlock: BEQFEK_clean_sbu_0, # of connection points: 5
#     Edge 12, Type (0, 0), BuildingBlock: OJICUG_clean_linker_0, # of connection points: 2
#     Edge 13, Type (0, 0), BuildingBlock: OJICUG_clean_linker_0, # of connection points: 2
#     Edge 14, Type (0, 0), BuildingBlock: OJICUG_clean_linker_0, # of connection points: 2
#     Edge 15, Type (0, 0), BuildingBlock: OJICUG_clean_linker_0, # of connection points: 2
#     Edge 16, Type (0, 0), BuildingBlock: OJICUG_clean_linker_0, # of connection points: 2
#     Edge 17, Type (0, 0), BuildingBlock: OJICUG_clean_linker_0, # of connection points: 2
#     Edge 18, Type (0, 0), BuildingBlock: OJICUG_clean_linker_0, # of connection points: 2
#     Edge 19, Type (0, 0), BuildingBlock: OJICUG_clean_linker_0, # of connection points: 2
#     Edge 20, Type (0, 0), BuildingBlock: OJICUG_clean_linker_0, # of connection points: 2
#     Edge 21, Type (0, 0), BuildingBlock: OJICUG_clean_linker_0, # of connection points: 2
#     Edge 22, Type (0, 0), BuildingBlock: OJICUG_clean_linker_0, # of connection points: 2
#     Edge 23, Type (0, 0), BuildingBlock: OJICUG_clean_linker_0, # of connection points: 2
#     Edge 24, Type (0, 0), BuildingBlock: OJICUG_clean_linker_0, # of connection points: 2
#     Edge 25, Type (0, 0), BuildingBlock: OJICUG_clean_linker_0, # of connection points: 2
#     Edge 26, Type (0, 0), BuildingBlock: OJICUG_clean_linker_0, # of connection points: 2
#     Edge 27, Type (0, 0), BuildingBlock: OJICUG_clean_linker_0, # of connection points: 2
#     Edge 28, Type (0, 0), BuildingBlock: OJICUG_clean_linker_0, # of connection points: 2
#     Edge 29, Type (0, 0), BuildingBlock: OJICUG_clean_linker_0, # of connection points: 2
#     Edge 30, Type (0, 0), BuildingBlock: OJICUG_clean_linker_0, # of connection points: 2
#     Edge 31, Type (0, 0), BuildingBlock: OJICUG_clean_linker_0, # of connection points: 2
#     Edge 32, Type (0, 0), BuildingBlock: OJICUG_clean_linker_0, # of connection points: 2
#     Edge 33, Type (0, 0), BuildingBlock: OJICUG_clean_linker_0, # of connection points: 2
#     Edge 34, Type (0, 0), BuildingBlock: OJICUG_clean_linker_0, # of connection points: 2
#     Edge 35, Type (0, 0), BuildingBlock: OJICUG_clean_linker_0, # of connection points: 2
#     Edge 36, Type (0, 0), BuildingBlock: OJICUG_clean_linker_0, # of connection points: 2
#     Edge 37, Type (0, 0), BuildingBlock: OJICUG_clean_linker_0, # of connection points: 2
#     Edge 38, Type (0, 0), BuildingBlock: OJICUG_clean_linker_0, # of connection points: 2
#     Edge 39, Type (0, 0), BuildingBlock: OJICUG_clean_linker_0, # of connection points: 2
#     Edge 40, Type (0, 0), BuildingBlock: OJICUG_clean_linker_0, # of connection points: 2
#     Edge 41, Type (0, 0), BuildingBlock: OJICUG_clean_linker_0, # of connection points: 2
# Relax obj value: 0.091
# Max RMSD: 0.107
# Mean RMSD: 0.107
data_MOF--net-wjx--node1-BEQFEK_clean_sbu_0--edge1-OJICUG_clean_linker_0
_symmetry_space_group_name_H-M    P1
_symmetry_Int_Tables_number       1
_symmetry_cell_setting            triclinic
loop_
_symmetry_equiv_pos_as_xyz
'x, y, z'
_cell_length_a     54.645621
_cell_length_b     54.650259
_cell_length_c     15.305627
_cell_angle_alpha  90.015828
_cell_angle_beta   89.953434
_cell_angle_gamma 120.00655
loop_
_atom_site_label
_atom_site_type_symbol
_atom_site_fract_x
_atom_site_fract_y
_atom_site_fract_z
_atom_type_partial_charge
Co0 Co 0.11452 0.45383 0.20756 0.0
Co1 Co 0.10315 0.45756 0.00824 0.0
C2 C 0.05693 0.41769 0.12346 0.0
O3 O 0.07406 0.42653 0.18742 0.0
O4 O 0.06509 0.42714 0.04636 0.0
C5 C 0.10516 0.43041 0.38035 0.0
O6 O 0.08225 0.40949 0.34582 0.0
C7 C 0.09502 0.44557 0.81794 0.0
C8 C 0.12307 0.48863 0.76688 0.0
C9 C 0.1069 0.46067 0.74133 0.0
N10 N 0.10467 0.46385 0.88534 0.0
N11 N 0.1208 0.48957 0.85396 0.0
C12 C 0.07755 0.4142 0.82877 0.0
H13 H 0.07822 0.40809 0.89749 0.0
H14 H 0.08515 0.40332 0.78448 0.0
H15 H 0.05529 0.40729 0.81178 0.0
C16 C 0.16155 0.44763 0.1333 0.0
N17 N 0.13801 0.44956 0.12497 0.0
N18 N 0.13263 0.45019 0.04139 0.0
C19 C 0.15239 0.4482 0.99398 0.0
C20 C 0.17155 0.44686 0.05032 0.0
C21 C 0.17527 0.44888 0.219 0.0
H22 H 0.17354 0.46405 0.26314 0.0
H23 H 0.16399 0.42771 0.25012 0.0
H24 H 0.19784 0.45519 0.21052 0.0
O25 O 0.11957 0.49206 0.19986 0.0
O26 O 0.11011 0.49388 0.0601 0.0
H27 H 0.15678 0.46705 0.86812 0.0
H28 H 0.16842 0.44142 0.87165 0.0
C29 C 0.1525 0.44661 0.89637 0.0
H30 H 0.13163 0.42972 0.87404 0.0
H31 H 0.13155 0.50764 0.89256 0.0
O32 O 0.12312 0.44987 0.33096 0.0
C33 C 0.11658 0.50507 0.13564 0.0
Co34 Co 0.6603 0.11534 0.54204 0.0
Co35 Co 0.64442 0.10419 0.34289 0.0
C36 C 0.63803 0.05787 0.46109 0.0
O37 O 0.64673 0.07488 0.52531 0.0
O38 O 0.63665 0.06624 0.38433 0.0
C39 C 0.67592 0.10778 0.71517 0.0
O40 O 0.67527 0.08539 0.68127 0.0
C41 C 0.65224 0.09801 0.15431 0.0
C42 C 0.62805 0.1167 0.09793 0.0
C43 C 0.64587 0.10647 0.07588 0.0
N44 N 0.63934 0.1038 0.21943 0.0
N45 N 0.62443 0.11435 0.18492 0.0
C46 C 0.67247 0.08749 0.16883 0.0
H47 H 0.67963 0.09074 0.23788 0.0
H48 H 0.69092 0.09834 0.12437 0.0
H49 H 0.6616 0.06452 0.15449 0.0
C50 C 0.7145 0.16009 0.46629 0.0
N51 N 0.68821 0.13775 0.45807 0.0
N52 N 0.68131 0.13377 0.37468 0.0
C53 C 0.7028 0.15401 0.32755 0.0
C54 C 0.72469 0.17098 0.38368 0.0
C55 C 0.72901 0.17113 0.55197 0.0
H56 H 0.72539 0.15324 0.59474 0.0
H57 H 0.75205 0.18554 0.54309 0.0
H58 H 0.71977 0.18276 0.58477 0.0
O59 O 0.6272 0.12087 0.53309 0.0
O60 O 0.61558 0.11183 0.39336 0.0
H61 H 0.71615 0.18241 0.2165 0.0
H62 H 0.70614 0.14652 0.19209 0.0
C63 C 0.701 0.16005 0.23301 0.0
H64 H 0.67949 0.15587 0.21726 0.0
H65 H 0.61295 0.12137 0.22119 0.0
O66 O 0.67298 0.12477 0.66525 0.0
C67 C 0.6112 0.11833 0.46926 0.0
Co68 Co 0.542 0.65983 0.87212 0.0
Co69 Co 0.53933 0.64498 0.67457 0.0
C70 C 0.57889 0.63881 0.79147 0.0
O71 O 0.56986 0.64715 0.855 0.0
O72 O 0.56955 0.6373 0.71406 0.0
C73 C 0.56385 0.67515 0.04629 0.0
O74 O 0.58744 0.67782 0.01492 0.0
C75 C 0.54943 0.64607 0.48248 0.0
C76 C 0.50731 0.63713 0.43749 0.0
C77 C 0.53411 0.64458 0.40775 0.0
N78 N 0.53252 0.64081 0.55237 0.0
N79 N 0.50729 0.63489 0.5246 0.0
C80 C 0.57928 0.65212 0.48855 0.0
H81 H 0.58234 0.64288 0.54915 0.0
H82 H 0.59387 0.67528 0.4906 0.0
H83 H 0.58466 0.64329 0.43115 0.0
C84 C 0.54905 0.71346 0.79782 0.0
N85 N 0.54679 0.68781 0.79046 0.0
N86 N 0.54711 0.68194 0.70726 0.0
C87 C 0.55044 0.70406 0.65913 0.0
C88 C 0.55126 0.72456 0.71447 0.0
C89 C 0.5469 0.7259 0.88257 0.0
H90 H 0.5324 0.7089 0.92763 0.0
H91 H 0.56811 0.7372 0.91336 0.0
H92 H 0.53927 0.74108 0.87245 0.0
O93 O 0.50398 0.62672 0.86327 0.0
O94 O 0.50269 0.61534 0.72417 0.0
H95 H 0.53363 0.69321 0.52975 0.0
H96 H 0.56342 0.7285 0.53941 0.0
C97 C 0.55432 0.70636 0.56211 0.0
H98 H 0.56891 0.69883 0.54277 0.0
H99 H 0.49035 0.6306 0.56567 0.0
O100 O 0.5441 0.67131 0.99447 0.0
C101 C 0.4912 0.61064 0.79917 0.0
Co102 Co 0.88203 0.54472 0.20693 0.0
Co103 Co 0.89304 0.5398 0.00779 0.0
C104 C 0.93931 0.58032 0.12516 0.0
O105 O 0.92236 0.57201 0.18959 0.0
O106 O 0.93094 0.57031 0.04866 0.0
C107 C 0.88935 0.56778 0.38029 0.0
O108 O 0.91167 0.58967 0.34659 0.0
C109 C 0.89899 0.55378 0.81933 0.0
C110 C 0.88077 0.51097 0.76271 0.0
C111 C 0.89071 0.53898 0.74082 0.0
N112 N 0.89339 0.53511 0.88433 0.0
N113 N 0.88312 0.5097 0.84969 0.0
C114 C 0.90917 0.58446 0.83405 0.0
H115 H 0.90581 0.58827 0.90314 0.0
H116 H 0.89818 0.59189 0.78968 0.0
H117 H 0.93214 0.5968 0.81978 0.0
C118 C 0.83693 0.55363 0.13179 0.0
N119 N 0.85932 0.54979 0.12329 0.0
N120 N 0.86322 0.54677 0.03987 0.0
C121 C 0.84285 0.54785 0.99301 0.0
C122 C 0.8259 0.55275 0.04934 0.0
C123 C 0.82604 0.5573 0.21758 0.0
H124 H 0.81447 0.5365 0.25082 0.0
H125 H 0.84402 0.57168 0.2599 0.0
H126 H 0.81162 0.56591 0.20878 0.0
O127 O 0.87696 0.50626 0.19818 0.0
O128 O 0.88579 0.50346 0.05836 0.0
H129 H 0.84117 0.52281 0.8825 0.0
H130 H 0.81433 0.53254 0.88243 0.0
C131 C 0.83676 0.53996 0.89852 0.0
H132 H 0.8501 0.55869 0.85752 0.0
H133 H 0.87631 0.49123 0.88587 0.0
O134 O 0.87252 0.54782 0.33019 0.0
C135 C 0.87952 0.49274 0.13451 0.0
Co136 Co 0.33659 0.88285 0.53569 0.0
Co137 Co 0.35259 0.89392 0.33657 0.0
C138 C 0.35886 0.9403 0.45454 0.0
O139 O 0.35005 0.92325 0.51869 0.0
O140 O 0.36041 0.93197 0.37785 0.0
C141 C 0.32093 0.89035 0.70905 0.0
O142 O 0.32149 0.91271 0.67527 0.0
C143 C 0.34462 0.9 0.1481 0.0
C144 C 0.36877 0.88129 0.09138 0.0
C145 C 0.35094 0.89152 0.06957 0.0
N146 N 0.35757 0.89423 0.21305 0.0
N147 N 0.37245 0.88366 0.17834 0.0
C148 C 0.3244 0.91052 0.1629 0.0
H149 H 0.31727 0.90727 0.23202 0.0
H150 H 0.30593 0.89967 0.11861 0.0
H151 H 0.33526 0.93348 0.14855 0.0
C152 C 0.28243 0.83812 0.46052 0.0
N153 N 0.30872 0.86043 0.45202 0.0
N154 N 0.31564 0.86432 0.36861 0.0
C155 C 0.29412 0.84404 0.32171 0.0
C156 C 0.27223 0.82713 0.37806 0.0
C157 C 0.26791 0.82721 0.54634 0.0
H158 H 0.27155 0.84517 0.58882 0.0
H159 H 0.24487 0.81281 0.53764 0.0
H160 H 0.27714 0.81561 0.57936 0.0
O161 O 0.36965 0.87729 0.52644 0.0
O162 O 0.3815 0.88627 0.38681 0.0
H163 H 0.2807 0.81556 0.21091 0.0
H164 H 0.29072 0.85144 0.18627 0.0
C165 C 0.29588 0.83793 0.2272 0.0
H166 H 0.31737 0.84211 0.21126 0.0
H167 H 0.38395 0.87666 0.21445 0.0
O168 O 0.32395 0.87342 0.65901 0.0
C169 C 0.38574 0.87977 0.46285 0.0
Co170 Co 0.45305 0.33709 0.87447 0.0
Co171 Co 0.45799 0.35321 0.67538 0.0
C172 C 0.41739 0.35871 0.79319 0.0
O173 O 0.42573 0.35007 0.85744 0.0
O174 O 0.4274 0.36042 0.7166 0.0
C175 C 0.43001 0.32145 0.0479 0.0
O176 O 0.40818 0.32198 0.01423 0.0
C177 C 0.44407 0.34539 0.48684 0.0
C178 C 0.48694 0.36978 0.43029 0.0
C179 C 0.4589 0.35185 0.40833 0.0
N180 N 0.46274 0.35836 0.55189 0.0
N181 N 0.48819 0.37338 0.51729 0.0
C182 C 0.41335 0.32502 0.5015 0.0
H183 H 0.40948 0.31783 0.57055 0.0
H184 H 0.40584 0.3066 0.45703 0.0
H185 H 0.40113 0.33577 0.4873 0.0
C186 C 0.44409 0.28313 0.79837 0.0
N187 N 0.44802 0.30941 0.79036 0.0
N188 N 0.45107 0.31643 0.70703 0.0
C189 C 0.44991 0.29501 0.65975 0.0
C190 C 0.44493 0.27306 0.71569 0.0
C191 C 0.44033 0.26843 0.88389 0.0
H192 H 0.42607 0.27212 0.92656 0.0
H193 H 0.43154 0.24538 0.87472 0.0
H194 H 0.46113 0.27746 0.91696 0.0
O195 O 0.49145 0.37055 0.86589 0.0
O196 O 0.49427 0.38235 0.72623 0.0
H197 H 0.46508 0.28183 0.54862 0.0
H198 H 0.43906 0.29166 0.52435 0.0
C199 C 0.45777 0.2969 0.56518 0.0
H200 H 0.47501 0.31844 0.54939 0.0
H201 H 0.50667 0.38493 0.5535 0.0
O202 O 0.44991 0.32441 -0.00228 0.0
C203 C 0.50496 0.38674 0.80239 0.0
Co204 Co 0.54147 0.88109 0.45141 0.0
Co205 Co 0.53661 0.89216 0.65054 0.0
C206 C 0.57713 0.93837 0.53284 0.0
O207 O 0.56874 0.9214 0.4685 0.0
O208 O 0.56718 0.93003 0.60947 0.0
C209 C 0.56456 0.88852 0.27803 0.0
O210 O 0.58639 0.91086 0.31177 0.0
C211 C 0.55057 0.89826 0.83904 0.0
C212 C 0.50767 0.87945 0.89557 0.0
C213 C 0.53574 0.88975 0.91752 0.0
N214 N 0.53187 0.89245 0.77401 0.0
N215 N 0.5064 0.88181 0.8086 0.0
C216 C 0.58134 0.90887 0.82437 0.0
H217 H 0.58527 0.90562 0.7553 0.0
H218 H 0.589 0.89808 0.86879 0.0
H219 H 0.59339 0.93184 0.83863 0.0
C220 C 0.55089 0.83633 0.52672 0.0
N221 N 0.54668 0.85849 0.53509 0.0
N222 N 0.54365 0.86239 0.6185 0.0
C223 C 0.54512 0.84225 0.6655 0.0
C224 C 0.55027 0.82546 0.60926 0.0
C225 C 0.55484 0.82561 0.44101 0.0
H226 H 0.56906 0.84368 0.39868 0.0
H227 H 0.56378 0.81147 0.44993 0.0
H228 H 0.53409 0.81378 0.40771 0.0
O229 O 0.50302 0.87599 0.46049 0.0
O230 O 0.50025 0.88501 0.60013 0.0
H231 H 0.53048 0.81395 0.77672 0.0
H232 H 0.55631 0.84991 0.80063 0.0
C233 C 0.53754 0.83628 0.76023 0.0
H234 H 0.5202 0.84039 0.77663 0.0
H235 H 0.4879 0.87477 0.77239 0.0
O236 O 0.54461 0.87161 0.32811 0.0
C237 C 0.48952 0.87867 0.52406 0.0
Co238 Co 0.65884 0.54185 0.78787 0.0
Co239 Co 0.64403 0.53915 0.98545 0.0
C240 C 0.63805 0.57889 0.86869 0.0
O241 O 0.64633 0.56982 0.80509 0.0
O242 O 0.63648 0.56949 0.94607 0.0
C243 C 0.67418 0.56368 0.6136 0.0
O244 O 0.67696 0.58731 0.6449 0.0
C245 C 0.64513 0.54925 0.17752 0.0
C246 C 0.63627 0.50716 0.2226 0.0
C247 C 0.64367 0.53394 0.25226 0.0
N248 N 0.6399 0.53236 0.10766 0.0
N249 N 0.63403 0.50713 0.13549 0.0
C250 C 0.65112 0.57908 0.17143 0.0
H251 H 0.6418 0.5821 0.11098 0.0
H252 H 0.67429 0.5937 0.16907 0.0
H253 H 0.64235 0.58445 0.22898 0.0
C254 C 0.71258 0.54909 0.86177 0.0
N255 N 0.68684 0.54659 0.86932 0.0
N256 N 0.68097 0.54685 0.95257 0.0
C257 C 0.70317 0.55033 0.00054 0.0
C258 C 0.72374 0.55138 0.94503 0.0
C259 C 0.72513 0.54724 0.77686 0.0
H260 H 0.70821 0.53263 0.7318 0.0
H261 H 0.73618 0.56848 0.74619 0.0
H262 H 0.74054 0.53989 0.78672 0.0
O263 O 0.62564 0.50387 0.79688 0.0
O264 O 0.61428 0.50255 0.93602 0.0
H265 H 0.69245 0.53362 0.1301 0.0
H266 H 0.72767 0.56352 0.1201 0.0
C267 C 0.70551 0.5543 0.09752 0.0
H268 H 0.69788 0.56882 0.11676 0.0
H269 H 0.62977 0.49021 0.09445 0.0
O270 O 0.67027 0.54391 0.66547 0.0
C271 C 0.60954 0.49109 0.861 0.0
Co272 Co 0.11639 0.65954 0.1172 0.0
Co273 Co 0.10433 0.64498 0.31485 0.0
C274 C 0.05865 0.63907 0.19825 0.0
O275 O 0.07592 0.64715 0.13445 0.0
O276 O 0.06653 0.63762 0.27564 0.0
C277 C 0.10993 0.67488 0.9431 0.0
O278 O 0.08909 0.67767 0.97449 0.0
C279 C 0.09537 0.64604 0.50697 0.0
C280 C 0.12872 0.63732 0.55174 0.0
C281 C 0.10927 0.6446 0.58159 0.0
N282 N 0.10707 0.64089 0.43699 0.0
N283 N 0.1265 0.63512 0.46463 0.0
C284 C 0.07144 0.65189 0.50111 0.0
H285 H 0.05906 0.6425 0.44077 0.0
H286 H 0.0799 0.67504 0.49868 0.0
H287 H 0.05735 0.6431 0.55877 0.0
C288 C 0.16292 0.71338 0.19083 0.0
N289 N 0.13972 0.6876 0.19852 0.0
N290 N 0.13361 0.68181 0.28179 0.0
C291 C 0.15227 0.70408 0.32965 0.0
C292 C 0.17176 0.72463 0.27404 0.0
C293 C 0.17725 0.72592 0.10585 0.0
H294 H 0.17508 0.70902 0.06094 0.0
H295 H 0.16689 0.73678 0.07507 0.0
H296 H 0.19997 0.74149 0.11562 0.0
O297 O 0.12098 0.62622 0.12616 0.0
O298 O 0.11093 0.61511 0.26542 0.0
H299 H 0.15829 0.69356 0.45942 0.0
H300 H 0.16345 0.72871 0.44899 0.0
C301 C 0.1506 0.70651 0.42659 0.0
H302 H 0.12842 0.6988 0.44573 0.0
H303 H 0.1392 0.63092 0.42346 0.0
O304 O 0.12579 0.67094 0.99489 0.0
C305 C 0.11755 0.61018 0.1905 0.0
Co306 Co 0.45641 0.11757 0.45078 0.0
Co307 Co 0.45862 0.10513 0.64828 0.0
C308 C 0.4194 0.05953 0.5306 0.0
O309 O 0.42865 0.07697 0.46728 0.0
O310 O 0.42846 0.06728 0.60833 0.0
C311 C 0.43453 0.11105 0.2768 0.0
O312 O 0.41093 0.09022 0.30839 0.0
C313 C 0.44858 0.09607 0.84051 0.0
C314 C 0.49063 0.12951 0.88516 0.0
C315 C 0.46392 0.11001 0.91511 0.0
N316 N 0.4654 0.1078 0.77047 0.0
N317 N 0.4906 0.12727 0.79805 0.0
C318 C 0.41881 0.0721 0.83469 0.0
H319 H 0.41579 0.05984 0.774 0.0
H320 H 0.40407 0.08049 0.83298 0.0
H321 H 0.41362 0.05792 0.89206 0.0
C322 C 0.44872 0.16379 0.5253 0.0
N323 N 0.45128 0.14057 0.53248 0.0
N324 N 0.4508 0.13425 0.61562 0.0
C325 C 0.4471 0.15279 0.66386 0.0
C326 C 0.44616 0.17242 0.6087 0.0
C327 C 0.45078 0.1784 0.44072 0.0
H328 H 0.46544 0.17614 0.39567 0.0
H329 H 0.4296 0.16834 0.40975 0.0
H330 H 0.45817 0.20115 0.45113 0.0
O331 O 0.49451 0.12267 0.46024 0.0
O332 O 0.4953 0.11217 0.59917 0.0
H333 H 0.46345 0.15859 0.7938 0.0
H334 H 0.43342 0.16368 0.78332 0.0
C335 C 0.44285 0.15091 0.76074 0.0
H336 H 0.42839 0.12869 0.77938 0.0
H337 H 0.50746 0.14 0.75685 0.0
O338 O 0.45435 0.12697 0.32846 0.0
C339 C 0.50707 0.11918 0.52461 0.0
Co340 Co 0.3367 0.45476 0.78525 0.0
Co341 Co 0.35281 0.45926 0.9843 0.0
C342 C 0.35797 0.41866 0.86586 0.0
O343 O 0.34947 0.42724 0.80183 0.0
O344 O 0.3597 0.42854 0.94263 0.0
C345 C 0.32079 0.43172 0.61201 0.0
O346 O 0.32095 0.40973 0.64586 0.0
C347 C 0.34507 0.44534 0.17302 0.0
C348 C 0.36976 0.48821 0.22919 0.0
C349 C 0.35167 0.46023 0.25143 0.0
N350 N 0.35809 0.46395 0.10778 0.0
N351 N 0.3733 0.48939 0.14217 0.0
C352 C 0.32456 0.41465 0.15861 0.0
H353 H 0.31737 0.41077 0.08959 0.0
H354 H 0.30615 0.40725 0.20312 0.0
H355 H 0.3352 0.40233 0.17294 0.0
C356 C 0.28302 0.44642 0.86191 0.0
N357 N 0.30915 0.44995 0.86969 0.0
N358 N 0.31611 0.45265 0.95304 0.0
C359 C 0.29475 0.45154 0.00058 0.0
C360 C 0.27297 0.44704 0.94476 0.0
C361 C 0.26851 0.44337 0.77649 0.0
H362 H 0.27846 0.4642 0.74328 0.0
H363 H 0.27131 0.42852 0.73387 0.0
H364 H 0.24564 0.43564 0.78575 0.0
O365 O 0.37031 0.49301 0.79383 0.0
O366 O 0.38211 0.4955 0.93336 0.0
H367 H 0.318 0.47606 0.11195 0.0
H368 H 0.28133 0.46603 0.11277 0.0
C369 C 0.29648 0.45888 0.09554 0.0
H370 H 0.2912 0.43997 0.13536 0.0
H371 H 0.38494 0.50783 0.10581 0.0
O372 O 0.324 0.45174 0.66206 0.0
C373 C 0.38655 0.50632 0.85736 0.0
Co374 Co 0.87986 0.3384 0.11898 0.0
Co375 Co 0.8921 0.35324 0.3165 0.0
C376 C 0.9377 0.35911 0.19929 0.0
O377 O 0.92037 0.35088 0.13575 0.0
O378 O 0.92989 0.36068 0.27673 0.0
C379 C 0.8863 0.32304 0.94472 0.0
O380 O 0.90716 0.32028 0.97597 0.0
C381 C 0.90116 0.35227 0.50862 0.0
C382 C 0.86778 0.36093 0.55362 0.0
C383 C 0.88724 0.35365 0.58335 0.0
N384 N 0.88945 0.3574 0.43872 0.0
N385 N 0.87001 0.36316 0.46651 0.0
C386 C 0.92511 0.34644 0.50256 0.0
H387 H 0.93744 0.35578 0.44203 0.0
H388 H 0.91668 0.3233 0.50039 0.0
H389 H 0.93925 0.35531 0.56003 0.0
C390 C 0.83352 0.28456 0.19357 0.0
N391 N 0.85667 0.31039 0.20075 0.0
N392 N 0.86287 0.31632 0.28392 0.0
C393 C 0.84432 0.29408 0.33217 0.0
C394 C 0.82481 0.27342 0.27699 0.0
C395 C 0.81913 0.27183 0.10888 0.0
H396 H 0.82126 0.28863 0.06362 0.0
H397 H 0.82947 0.26091 0.0783 0.0
H398 H 0.79642 0.25627 0.11905 0.0
O399 O 0.87514 0.37165 0.12805 0.0
O400 O 0.8853 0.383 0.26709 0.0
H401 H 0.83848 0.30473 0.46202 0.0
H402 H 0.83335 0.26959 0.45179 0.0
C403 C 0.84614 0.29176 0.42908 0.0
H404 H 0.86835 0.29951 0.44777 0.0
H405 H 0.85729 0.36733 0.42544 0.0
O406 O 0.87041 0.32692 -0.00335 0.0
C407 C 0.87855 0.38776 0.19218 0.0
C408 C 0.00656 0.38814 0.07421 0.0
C409 C 0.02649 0.39863 0.14206 0.0
H410 H 0.96288 0.36705 0.03901 0.0
C411 C 0.01681 0.39304 0.22912 0.0
H412 H 0.01325 0.3919 0.00652 0.0
C413 C 0.98792 0.37894 0.24794 0.0
C414 C 0.96801 0.36992 0.18016 0.0
H415 H 0.0315 0.40073 0.28325 0.0
H416 H 0.98127 0.37611 0.31567 0.0
C417 C 0.97764 0.37384 0.09304 0.0
C418 C 0.61714 0.00768 0.41052 0.0
C419 C 0.62639 0.02737 0.47897 0.0
H420 H 0.59475 0.96418 0.37384 0.0
C421 C 0.62198 0.01743 0.56579 0.0
H422 H 0.62033 0.01458 0.34304 0.0
C423 C 0.60708 0.98848 0.58369 0.0
C424 C 0.59649 0.9688 0.5152 0.0
H425 H 0.62888 0.032 0.62034 0.0
H426 H 0.60303 0.98158 0.65115 0.0
C427 C 0.60249 0.97872 0.42843 0.0
C428 C 0.62334 0.60399 0.76234 0.0
C429 C 0.62712 0.59828 0.84953 0.0
H430 H 0.60524 0.62132 0.67538 0.0
C431 C 0.61784 0.60903 0.91712 0.0
H432 H 0.63034 0.59616 0.70844 0.0
C433 C 0.60361 0.62368 0.89795 0.0
C434 C 0.59812 0.62769 0.81074 0.0
H435 H 0.62057 0.60522 0.9849 0.0
H436 H 0.59576 0.63067 0.95184 0.0
C437 C 0.60889 0.61841 0.74317 0.0
C438 C 0.01855 0.62366 0.09254 0.0
C439 C 0.02833 0.62824 0.17949 0.0
H440 H 0.98278 0.60499 0.00688 0.0
C441 C 0.00856 0.61986 0.24763 0.0
H442 H 0.0332 0.62994 0.03825 0.0
C443 C 0.97964 0.60575 0.22943 0.0
C444 C 0.9698 0.59945 0.14267 0.0
H445 H 0.01534 0.62324 0.31521 0.0
H446 H 0.96502 0.59862 0.2839 0.0
C447 C 0.9896 0.6093 0.07435 0.0
C448 C 0.39521 0.01965 0.42376 0.0
C449 C 0.4001 0.02924 0.51096 0.0
H450 H 0.37832 0.98408 0.33723 0.0
C451 C 0.38848 0.00931 0.57856 0.0
H452 H 0.40376 0.03443 0.36986 0.0
C453 C 0.37369 0.98043 0.55963 0.0
C454 C 0.37039 0.97079 0.47267 0.0
H455 H 0.39165 0.01593 0.6463 0.0
H456 H 0.36599 0.9657 0.61375 0.0
C457 C 0.38063 0.99075 0.40484 0.0
C458 C 0.37331 0.39375 0.76079 0.0
C459 C 0.36902 0.39932 0.84769 0.0
H460 H 0.39188 0.37652 0.67515 0.0
C461 C 0.37791 0.38849 0.91597 0.0
H462 H 0.36666 0.40169 0.70637 0.0
C463 C 0.39219 0.37383 0.89784 0.0
C464 C 0.39816 0.36992 0.811 0.0
H465 H 0.37479 0.39221 0.98351 0.0
H466 H 0.39972 0.36678 0.95231 0.0
C467 C 0.38783 0.37933 0.74266 0.0
C468 C 0.13129 0.46499 0.59995 0.0
C469 C 0.10699 0.45028 0.65207 0.0
H470 H 0.15006 0.46981 0.47394 0.0
C471 C 0.08299 0.42698 0.61636 0.0
H472 H 0.15027 0.48285 0.62589 0.0
C473 C 0.083 0.41927 0.52915 0.0
C474 C 0.1069 0.43493 0.47592 0.0
H475 H 0.06378 0.41553 0.65408 0.0
H476 H 0.06377 0.40198 0.50236 0.0
C477 C 0.13128 0.45739 0.51298 0.0
C478 C 0.66964 0.08751 0.8662 0.0
C479 C 0.67334 0.10972 0.81094 0.0
H480 H 0.65758 0.0687 0.99332 0.0
C481 C 0.67077 0.13203 0.84643 0.0
H482 H 0.67136 0.06993 0.84086 0.0
C483 C 0.66287 0.13125 0.93349 0.0
C484 C 0.65762 0.10833 0.98744 0.0
H485 H 0.67361 0.14953 0.80602 0.0
H486 H 0.66016 0.14835 0.95802 0.0
C487 C 0.66181 0.08681 0.95374 0.0
C488 C 0.52208 0.64189 0.25051 0.0
C489 C 0.54305 0.65205 0.31547 0.0
H490 H 0.51212 0.64175 0.11601 0.0
C491 C 0.57123 0.67095 0.2912 0.0
H492 H 0.50014 0.6274 0.26637 0.0
C493 C 0.57823 0.67884 0.20361 0.0
C494 C 0.55704 0.66877 0.13957 0.0
H495 H 0.58787 0.68033 0.33916 0.0
H496 H 0.60008 0.69309 0.18617 0.0
C497 C 0.52892 0.65033 0.16408 0.0
C498 C 0.86605 0.53096 0.59819 0.0
C499 C 0.88879 0.54883 0.65241 0.0
H500 H 0.8479 0.52328 0.47058 0.0
C501 C 0.9101 0.57471 0.61901 0.0
H502 H 0.84912 0.511 0.62247 0.0
C503 C 0.90938 0.58185 0.53153 0.0
C504 C 0.88736 0.56318 0.47601 0.0
H505 H 0.92807 0.58875 0.65879 0.0
H506 H 0.92681 0.60132 0.50643 0.0
C507 C 0.86525 0.5381 0.5112 0.0
C508 C 0.335 0.91122 0.94768 0.0
C509 C 0.33917 0.88969 0.98122 0.0
H510 H 0.32548 0.92816 0.83495 0.0
C511 C 0.33392 0.86678 0.92717 0.0
H512 H 0.33923 0.92931 0.98734 0.0
C513 C 0.32603 0.86604 0.84015 0.0
C514 C 0.32348 0.88837 0.8048 0.0
H515 H 0.33662 0.84967 0.95158 0.0
H516 H 0.3232 0.84855 0.79965 0.0
C517 C 0.32718 0.91056 0.86018 0.0
C518 C 0.41607 0.32774 0.19903 0.0
C519 C 0.43464 0.32417 0.1436 0.0
H520 H 0.40929 0.33977 0.32616 0.0
C521 C 0.45964 0.32699 0.17883 0.0
H522 H 0.39667 0.32583 0.1739 0.0
C523 C 0.4668 0.33498 0.26579 0.0
C524 C 0.44904 0.34007 0.31992 0.0
H525 H 0.47437 0.32428 0.13828 0.0
H526 H 0.4867 0.33788 0.29011 0.0
C527 C 0.42323 0.33566 0.28647 0.0
C528 C 0.57136 0.90945 0.03946 0.0
C529 C 0.54564 0.88792 0.00591 0.0
H530 H 0.59783 0.92635 0.15216 0.0
C531 C 0.52797 0.86501 0.05996 0.0
H532 H 0.58523 0.92754 -0.00019 0.0
C533 C 0.53512 0.86426 0.14697 0.0
C534 C 0.56001 0.88657 0.1823 0.0
H535 H 0.50816 0.84791 0.03556 0.0
H536 H 0.52045 0.84676 0.18747 0.0
C537 C 0.57851 0.90876 0.12694 0.0
C538 C 0.67795 0.57804 0.4562 0.0
C539 C 0.66779 0.55687 0.52035 0.0
H540 H 0.67953 0.58767 0.32057 0.0
C541 C 0.64926 0.52877 0.49598 0.0
H542 H 0.69227 0.59989 0.47355 0.0
C543 C 0.64084 0.52193 0.40956 0.0
C544 C 0.6511 0.54288 0.34451 0.0
H545 H 0.6406 0.51198 0.54413 0.0
H546 H 0.62628 0.50001 0.39379 0.0
C547 C 0.67007 0.57105 0.36864 0.0
C548 C 0.09849 0.67089 0.69819 0.0
C549 C 0.10772 0.65196 0.67389 0.0
H550 H 0.09181 0.69301 0.80329 0.0
C551 C 0.1184 0.64167 0.73881 0.0
H552 H 0.09133 0.68036 0.65021 0.0
C553 C 0.11996 0.65003 0.82529 0.0
C554 C 0.11036 0.66853 0.84983 0.0
H555 H 0.1258 0.62714 0.72288 0.0
H556 H 0.12809 0.64137 0.87335 0.0
C557 C 0.09935 0.67871 0.78581 0.0
C558 C 0.41998 0.10012 0.11967 0.0
C559 C 0.44124 0.11139 0.18346 0.0
H560 H 0.41019 0.09176 0.98424 0.0
C561 C 0.46935 0.12115 0.15867 0.0
H562 H 0.39813 0.09244 0.13734 0.0
C563 C 0.47611 0.11948 0.0722 0.0
C564 C 0.45507 0.10853 0.00748 0.0
H565 H 0.48621 0.12949 0.20654 0.0
H566 H 0.49805 0.127 0.0561 0.0
C567 C 0.42689 0.09914 0.03203 0.0
C568 C 0.32703 0.46155 0.4809 0.0
C569 C 0.32365 0.43633 0.51628 0.0
H570 H 0.33846 0.48864 0.36954 0.0
C571 C 0.32681 0.41749 0.46099 0.0
H572 H 0.32466 0.4765 0.52134 0.0
C573 C 0.33487 0.42455 0.37356 0.0
C574 C 0.33982 0.45053 0.33994 0.0
H575 H 0.32446 0.39791 0.48624 0.0
H576 H 0.33865 0.41035 0.33402 0.0
C577 C 0.33515 0.4686 0.39395 0.0
C578 C 0.87781 0.35629 0.7406 0.0
C579 C 0.8887 0.3462 0.67561 0.0
H580 H 0.86788 0.35635 0.87509 0.0
C581 C 0.89805 0.32737 0.69981 0.0
H582 H 0.87031 0.37074 0.72477 0.0
C583 C 0.89711 0.31944 0.78737 0.0
C584 C 0.8859 0.32944 0.85145 0.0
H585 H 0.90538 0.31804 0.65181 0.0
H586 H 0.90476 0.30523 0.80476 0.0
C587 C 0.87617 0.34783 0.827 0.0
C588 C 0.1201 0.54968 0.07843 0.0
C589 C 0.1192 0.53309 0.14984 0.0
H590 H 0.12062 0.58714 0.0352 0.0
C591 C 0.11947 0.54293 0.23495 0.0
H592 H 0.12007 0.54279 0.01203 0.0
C593 C 0.11957 0.56828 0.24828 0.0
C594 C 0.1197 0.58449 0.1768 0.0
H595 H 0.1188 0.53067 0.29144 0.0
H596 H 0.11911 0.57494 0.31464 0.0
C597 C 0.12049 0.57516 0.09176 0.0
C598 C 0.5762 0.12098 0.56926 0.0
C599 C 0.58604 0.12131 0.48412 0.0
H600 H 0.54349 0.11999 0.64897 0.0
C601 C 0.57065 0.12286 0.41287 0.0
H602 H 0.58755 0.1198 0.62559 0.0
C603 C 0.54553 0.12317 0.42628 0.0
C604 C 0.53505 0.12165 0.51123 0.0
H605 H 0.57773 0.12332 0.34645 0.0
H606 H 0.53391 0.12374 0.36975 0.0
C607 C 0.55089 0.121 0.58266 0.0
C608 C 0.45303 0.57633 0.89865 0.0
C609 C 0.46321 0.58519 0.81338 0.0
H610 H 0.42093 0.54455 0.97939 0.0
C611 C 0.44702 0.56875 0.74239 0.0
H612 H 0.46495 0.58849 0.95486 0.0
C613 C 0.4216 0.5436 0.75651 0.0
C614 C 0.41199 0.53421 0.84193 0.0
H615 H 0.45418 0.57506 0.67586 0.0
H616 H 0.40992 0.53111 0.70047 0.0
C617 C 0.4278 0.55107 0.91277 0.0
C618 C 0.87683 0.42995 0.24919 0.0
C619 C 0.87628 0.41337 0.17813 0.0
H620 H 0.87796 0.46786 0.2913 0.0
C621 C 0.87497 0.42226 0.09293 0.0
H622 H 0.8777 0.42362 0.31567 0.0
C623 C 0.87532 0.44769 0.07895 0.0
C624 C 0.87671 0.46469 0.14985 0.0
H625 H 0.87448 0.41 0.03667 0.0
H626 H 0.87498 0.45422 0.01237 0.0
C627 C 0.8769 0.45527 0.23522 0.0
C628 C 0.45208 0.87569 0.42275 0.0
C629 C 0.46159 0.87612 0.50837 0.0
H630 H 0.42072 0.87652 0.34118 0.0
C631 C 0.44488 0.87577 0.57885 0.0
H632 H 0.46439 0.87592 0.36695 0.0
C633 C 0.41973 0.87592 0.56406 0.0
C634 C 0.41083 0.8767 0.47845 0.0
H635 H 0.4515 0.87593 0.64564 0.0
H636 H 0.40773 0.87631 0.61988 0.0
C637 C 0.42705 0.87611 0.40796 0.0
C638 C 0.57525 0.45297 0.76146 0.0
C639 C 0.58402 0.46315 0.84675 0.0
H640 H 0.54349 0.42094 0.68061 0.0
C641 C 0.56743 0.44702 0.91767 0.0
H642 H 0.58753 0.46482 0.7053 0.0
C643 C 0.54221 0.42167 0.90345 0.0
C644 C 0.53292 0.41208 0.818 0.0
H645 H 0.57366 0.45419 0.98421 0.0
H646 H 0.52961 0.41006 0.95942 0.0
C647 C 0.54993 0.42781 0.74725 0.0
C648 C 0.2402 0.46628 0.9352 0.0
C649 C 0.24653 0.44634 0.96954 0.0
H650 H 0.21198 0.48277 0.93708 0.0
C651 C 0.22866 0.42712 0.03302 0.0
H652 H 0.2541 0.48172 0.8878 0.0
C653 C 0.20443 0.42748 0.06061 0.0
C654 C 0.19794 0.44727 0.02564 0.0
H655 H 0.23345 0.41179 0.06103 0.0
H656 H 0.1906 0.4121 0.10822 0.0
C657 C 0.21626 0.46693 0.96372 0.0
C658 C 0.7922 0.22109 0.26463 0.0
C659 C 0.79915 0.247 0.30355 0.0
H660 H 0.76314 0.17641 0.2611 0.0
C661 C 0.78178 0.24762 0.37036 0.0
H662 H 0.80536 0.22005 0.21347 0.0
C663 C 0.75809 0.22276 0.39855 0.0
C664 C 0.75114 0.19689 0.35964 0.0
H665 H 0.78642 0.26743 0.40039 0.0
H666 H 0.74477 0.22387 0.44906 0.0
C667 C 0.76831 0.1962 0.29238 0.0
C668 C 0.56973 0.80115 0.70015 0.0
C669 C 0.55157 0.79995 0.63319 0.0
H670 H 0.584 0.77809 0.77829 0.0
C671 C 0.5332 0.77393 0.59405 0.0
H672 H 0.58395 0.82107 0.73154 0.0
C673 C 0.53288 0.74944 0.62172 0.0
C674 C 0.55119 0.75059 0.68819 0.0
H675 H 0.51858 0.77242 0.54372 0.0
H676 H 0.5181 0.7295 0.59159 0.0
C677 C 0.56959 0.77665 0.72735 0.0
C678 C 0.77418 0.53473 0.06514 0.0
C679 C 0.80005 0.55343 0.02564 0.0
H680 H 0.72959 0.51881 0.06811 0.0
C681 C 0.80078 0.57132 0.95848 0.0
H682 H 0.77304 0.52029 0.11562 0.0
C683 C 0.77598 0.5706 0.93149 0.0
C684 C 0.75008 0.55187 0.97103 0.0
H685 H 0.82056 0.58579 0.92679 0.0
H686 H 0.77707 0.58484 0.88043 0.0
C687 C 0.74939 0.53383 0.03767 0.0
C688 C 0.22851 0.8018 0.28739 0.0
C689 C 0.24575 0.8012 0.35448 0.0
H690 H 0.1913 0.77789 0.20939 0.0
C691 C 0.23875 0.77539 0.39398 0.0
H692 H 0.23371 0.82154 0.25569 0.0
C693 C 0.21493 0.75052 0.36657 0.0
C694 C 0.19751 0.75106 0.29994 0.0
H695 H 0.2521 0.77435 0.44441 0.0
H696 H 0.21027 0.73076 0.39704 0.0
C697 C 0.20451 0.77691 0.26042 0.0
C698 C 0.42632 0.22955 0.62387 0.0
C699 C 0.44416 0.24653 0.6914 0.0
H700 H 0.41286 0.19253 0.54474 0.0
C701 C 0.46278 0.23923 0.73056 0.0
H702 H 0.41191 0.23497 0.59242 0.0
C703 C 0.46367 0.2154 0.70237 0.0
C704 C 0.4457 0.19823 0.63531 0.0
H705 H 0.47718 0.25238 0.78131 0.0
H706 H 0.47863 0.21051 0.7326 0.0
C707 C 0.42704 0.20552 0.59611 0.0
loop_
_geom_bond_atom_site_label_1
_geom_bond_atom_site_label_2
_geom_bond_distance
_geom_bond_site_symmetry_2
_ccdc_geom_bond_type
Co0 O3 1.970 . S
Co0 N17 1.989 . S
Co0 O25 1.967 . S
Co0 O32 1.920 . S
Co1 O4 1.966 . S
Co1 N10 2.022 1_554 S
Co1 N18 1.993 . S
Co1 O26 1.941 . S
C2 O3 1.258 . S
C2 O4 1.263 . S
O3 Co0 1.970 . S
O3 C2 1.258 . S
O4 Co1 1.966 . S
O4 C2 1.263 . S
C5 O6 1.235 . S
C5 O32 1.289 . S
O6 C5 1.235 . S
C7 C9 1.400 . S
C7 N10 1.351 . S
C7 C12 1.501 . S
C8 C9 1.387 . S
C8 N11 1.341 . S
C9 C7 1.400 . S
C9 C8 1.387 . S
N10 Co1 2.022 1_556 S
N10 C7 1.351 . S
N10 N11 1.365 . S
N11 C8 1.341 . S
N11 N10 1.365 . S
N11 H31 0.862 . S
C12 C7 1.501 . S
C12 H13 0.961 . S
C12 H14 0.961 . S
C12 H15 0.960 . S
H13 C12 0.961 . S
H14 C12 0.961 . S
H15 C12 0.960 . S
C16 N17 1.342 . S
C16 C20 1.401 . S
C16 C21 1.499 . S
N17 Co0 1.989 . S
N17 C16 1.342 . S
N17 N18 1.388 . S
N18 Co1 1.993 . S
N18 N17 1.388 . S
N18 C19 1.346 . S
C19 N18 1.346 . S
C19 C20 1.396 . S
C19 C29 1.510 1_554 S
C20 C16 1.401 . S
C20 C19 1.396 . S
C21 C16 1.499 . S
C21 H22 0.959 . S
C21 H23 0.960 . S
C21 H24 0.961 . S
H22 C21 0.959 . S
H23 C21 0.960 . S
H24 C21 0.961 . S
O25 Co0 1.967 . S
O25 C33 1.258 . S
O26 Co1 1.941 . S
O26 C33 1.266 . S
H27 C29 0.959 . S
H28 C29 0.961 . S
C29 C19 1.510 1_556 S
C29 H27 0.959 . S
C29 H28 0.961 . S
C29 H30 0.960 . S
H30 C29 0.960 . S
H31 N11 0.862 . S
O32 Co0 1.920 . S
O32 C5 1.289 . S
C33 O25 1.258 . S
C33 O26 1.266 . S
Co34 O37 1.970 . S
Co34 N51 1.989 . S
Co34 O59 1.967 . S
Co34 O66 1.920 . S
Co35 O38 1.966 . S
Co35 N44 2.022 . S
Co35 N52 1.993 . S
Co35 O60 1.941 . S
C36 O37 1.258 . S
C36 O38 1.263 . S
O37 Co34 1.970 . S
O37 C36 1.258 . S
O38 Co35 1.966 . S
O38 C36 1.263 . S
C39 O40 1.235 . S
C39 O66 1.289 . S
O40 C39 1.235 . S
C41 C43 1.400 . S
C41 N44 1.351 . S
C41 C46 1.501 . S
C42 C43 1.387 . S
C42 N45 1.341 . S
C43 C41 1.400 . S
C43 C42 1.387 . S
N44 Co35 2.022 . S
N44 C41 1.351 . S
N44 N45 1.365 . S
N45 C42 1.341 . S
N45 N44 1.365 . S
N45 H65 0.862 . S
C46 C41 1.501 . S
C46 H47 0.961 . S
C46 H48 0.961 . S
C46 H49 0.960 . S
H47 C46 0.961 . S
H48 C46 0.961 . S
H49 C46 0.960 . S
C50 N51 1.342 . S
C50 C54 1.401 . S
C50 C55 1.499 . S
N51 Co34 1.989 . S
N51 C50 1.342 . S
N51 N52 1.388 . S
N52 Co35 1.993 . S
N52 N51 1.388 . S
N52 C53 1.346 . S
C53 N52 1.346 . S
C53 C54 1.396 . S
C53 C63 1.510 . S
C54 C50 1.401 . S
C54 C53 1.396 . S
C55 C50 1.499 . S
C55 H56 0.959 . S
C55 H57 0.960 . S
C55 H58 0.961 . S
H56 C55 0.959 . S
H57 C55 0.960 . S
H58 C55 0.961 . S
O59 Co34 1.967 . S
O59 C67 1.258 . S
O60 Co35 1.941 . S
O60 C67 1.266 . S
H61 C63 0.959 . S
H62 C63 0.961 . S
C63 C53 1.510 . S
C63 H61 0.959 . S
C63 H62 0.961 . S
C63 H64 0.960 . S
H64 C63 0.960 . S
H65 N45 0.862 . S
O66 Co34 1.920 . S
O66 C39 1.289 . S
C67 O59 1.258 . S
C67 O60 1.266 . S
Co68 O71 1.970 . S
Co68 N85 1.989 . S
Co68 O93 1.967 . S
Co68 O100 1.910 1_556 S
Co69 O72 1.966 . S
Co69 N78 2.022 . S
Co69 N86 1.993 . S
Co69 O94 1.941 . S
C70 O71 1.258 . S
C70 O72 1.263 . S
O71 Co68 1.970 . S
O71 C70 1.258 . S
O72 Co69 1.966 . S
O72 C70 1.263 . S
C73 O74 1.235 . S
C73 O100 1.294 . S
O74 C73 1.235 . S
C75 C77 1.400 . S
C75 N78 1.351 . S
C75 C80 1.501 . S
C76 C77 1.387 . S
C76 N79 1.341 . S
C77 C75 1.400 . S
C77 C76 1.387 . S
N78 Co69 2.022 . S
N78 C75 1.351 . S
N78 N79 1.365 . S
N79 C76 1.341 . S
N79 N78 1.365 . S
N79 H99 0.862 . S
C80 C75 1.501 . S
C80 H81 0.961 . S
C80 H82 0.961 . S
C80 H83 0.960 . S
H81 C80 0.961 . S
H82 C80 0.961 . S
H83 C80 0.960 . S
C84 N85 1.342 . S
C84 C88 1.401 . S
C84 C89 1.499 . S
N85 Co68 1.989 . S
N85 C84 1.342 . S
N85 N86 1.388 . S
N86 Co69 1.993 . S
N86 N85 1.388 . S
N86 C87 1.346 . S
C87 N86 1.346 . S
C87 C88 1.396 . S
C87 C97 1.510 . S
C88 C84 1.401 . S
C88 C87 1.396 . S
C89 C84 1.499 . S
C89 H90 0.959 . S
C89 H91 0.960 . S
C89 H92 0.961 . S
H90 C89 0.959 . S
H91 C89 0.960 . S
H92 C89 0.961 . S
O93 Co68 1.967 . S
O93 C101 1.258 . S
O94 Co69 1.941 . S
O94 C101 1.266 . S
H95 C97 0.959 . S
H96 C97 0.961 . S
C97 C87 1.510 . S
C97 H95 0.959 . S
C97 H96 0.961 . S
C97 H98 0.960 . S
H98 C97 0.960 . S
H99 N79 0.862 . S
O100 Co68 1.910 1_554 S
O100 C73 1.294 . S
C101 O93 1.258 . S
C101 O94 1.266 . S
Co102 O105 1.970 . S
Co102 N119 1.989 . S
Co102 O127 1.967 . S
Co102 O134 1.920 . S
Co103 O106 1.966 . S
Co103 N112 2.022 1_554 S
Co103 N120 1.993 . S
Co103 O128 1.941 . S
C104 O105 1.258 . S
C104 O106 1.263 . S
O105 Co102 1.970 . S
O105 C104 1.258 . S
O106 Co103 1.966 . S
O106 C104 1.263 . S
C107 O108 1.235 . S
C107 O134 1.289 . S
O108 C107 1.235 . S
C109 C111 1.400 . S
C109 N112 1.351 . S
C109 C114 1.501 . S
C110 C111 1.387 . S
C110 N113 1.341 . S
C111 C109 1.400 . S
C111 C110 1.387 . S
N112 Co103 2.022 1_556 S
N112 C109 1.351 . S
N112 N113 1.365 . S
N113 C110 1.341 . S
N113 N112 1.365 . S
N113 H133 0.862 . S
C114 C109 1.501 . S
C114 H115 0.961 . S
C114 H116 0.961 . S
C114 H117 0.960 . S
H115 C114 0.961 . S
H116 C114 0.961 . S
H117 C114 0.960 . S
C118 N119 1.342 . S
C118 C122 1.401 . S
C118 C123 1.499 . S
N119 Co102 1.989 . S
N119 C118 1.342 . S
N119 N120 1.388 . S
N120 Co103 1.993 . S
N120 N119 1.388 . S
N120 C121 1.346 . S
C121 N120 1.346 . S
C121 C122 1.396 . S
C121 C131 1.510 1_554 S
C122 C118 1.401 . S
C122 C121 1.396 . S
C123 C118 1.499 . S
C123 H124 0.959 . S
C123 H125 0.960 . S
C123 H126 0.961 . S
H124 C123 0.959 . S
H125 C123 0.960 . S
H126 C123 0.961 . S
O127 Co102 1.967 . S
O127 C135 1.258 . S
O128 Co103 1.941 . S
O128 C135 1.266 . S
H129 C131 0.959 . S
H130 C131 0.961 . S
C131 C121 1.510 1_556 S
C131 H129 0.959 . S
C131 H130 0.961 . S
C131 H132 0.960 . S
H132 C131 0.960 . S
H133 N113 0.862 . S
O134 Co102 1.920 . S
O134 C107 1.289 . S
C135 O127 1.258 . S
C135 O128 1.266 . S
Co136 O139 1.970 . S
Co136 N153 1.989 . S
Co136 O161 1.967 . S
Co136 O168 1.920 . S
Co137 O140 1.966 . S
Co137 N146 2.022 . S
Co137 N154 1.993 . S
Co137 O162 1.941 . S
C138 O139 1.258 . S
C138 O140 1.263 . S
O139 Co136 1.970 . S
O139 C138 1.258 . S
O140 Co137 1.966 . S
O140 C138 1.263 . S
C141 O142 1.235 . S
C141 O168 1.289 . S
O142 C141 1.235 . S
C143 C145 1.400 . S
C143 N146 1.351 . S
C143 C148 1.501 . S
C144 C145 1.387 . S
C144 N147 1.341 . S
C145 C143 1.400 . S
C145 C144 1.387 . S
N146 Co137 2.022 . S
N146 C143 1.351 . S
N146 N147 1.365 . S
N147 C144 1.341 . S
N147 N146 1.365 . S
N147 H167 0.862 . S
C148 C143 1.501 . S
C148 H149 0.961 . S
C148 H150 0.961 . S
C148 H151 0.960 . S
H149 C148 0.961 . S
H150 C148 0.961 . S
H151 C148 0.960 . S
C152 N153 1.342 . S
C152 C156 1.401 . S
C152 C157 1.499 . S
N153 Co136 1.989 . S
N153 C152 1.342 . S
N153 N154 1.388 . S
N154 Co137 1.993 . S
N154 N153 1.388 . S
N154 C155 1.346 . S
C155 N154 1.346 . S
C155 C156 1.396 . S
C155 C165 1.510 . S
C156 C152 1.401 . S
C156 C155 1.396 . S
C157 C152 1.499 . S
C157 H158 0.959 . S
C157 H159 0.960 . S
C157 H160 0.961 . S
H158 C157 0.959 . S
H159 C157 0.960 . S
H160 C157 0.961 . S
O161 Co136 1.967 . S
O161 C169 1.258 . S
O162 Co137 1.941 . S
O162 C169 1.266 . S
H163 C165 0.959 . S
H164 C165 0.961 . S
C165 C155 1.510 . S
C165 H163 0.959 . S
C165 H164 0.961 . S
C165 H166 0.960 . S
H166 C165 0.960 . S
H167 N147 0.862 . S
O168 Co136 1.920 . S
O168 C141 1.289 . S
C169 O161 1.258 . S
C169 O162 1.266 . S
Co170 O173 1.970 . S
Co170 N187 1.989 . S
Co170 O195 1.967 . S
Co170 O202 1.910 1_556 S
Co171 O174 1.966 . S
Co171 N180 2.022 . S
Co171 N188 1.993 . S
Co171 O196 1.941 . S
C172 O173 1.258 . S
C172 O174 1.263 . S
O173 Co170 1.970 . S
O173 C172 1.258 . S
O174 Co171 1.966 . S
O174 C172 1.263 . S
C175 O176 1.235 . S
C175 O202 1.294 . S
O176 C175 1.235 . S
C177 C179 1.400 . S
C177 N180 1.351 . S
C177 C182 1.501 . S
C178 C179 1.387 . S
C178 N181 1.341 . S
C179 C177 1.400 . S
C179 C178 1.387 . S
N180 Co171 2.022 . S
N180 C177 1.351 . S
N180 N181 1.365 . S
N181 C178 1.341 . S
N181 N180 1.365 . S
N181 H201 0.862 . S
C182 C177 1.501 . S
C182 H183 0.961 . S
C182 H184 0.961 . S
C182 H185 0.960 . S
H183 C182 0.961 . S
H184 C182 0.961 . S
H185 C182 0.960 . S
C186 N187 1.342 . S
C186 C190 1.401 . S
C186 C191 1.499 . S
N187 Co170 1.989 . S
N187 C186 1.342 . S
N187 N188 1.388 . S
N188 Co171 1.993 . S
N188 N187 1.388 . S
N188 C189 1.346 . S
C189 N188 1.346 . S
C189 C190 1.396 . S
C189 C199 1.510 . S
C190 C186 1.401 . S
C190 C189 1.396 . S
C191 C186 1.499 . S
C191 H192 0.959 . S
C191 H193 0.960 . S
C191 H194 0.961 . S
H192 C191 0.959 . S
H193 C191 0.960 . S
H194 C191 0.961 . S
O195 Co170 1.967 . S
O195 C203 1.258 . S
O196 Co171 1.941 . S
O196 C203 1.266 . S
H197 C199 0.959 . S
H198 C199 0.961 . S
C199 C189 1.510 . S
C199 H197 0.959 . S
C199 H198 0.961 . S
C199 H200 0.960 . S
H200 C199 0.960 . S
H201 N181 0.862 . S
O202 Co170 1.910 1_554 S
O202 C175 1.294 . S
C203 O195 1.258 . S
C203 O196 1.266 . S
Co204 O207 1.970 . S
Co204 N221 1.989 . S
Co204 O229 1.967 . S
Co204 O236 1.920 . S
Co205 O208 1.966 . S
Co205 N214 2.022 . S
Co205 N222 1.993 . S
Co205 O230 1.941 . S
C206 O207 1.258 . S
C206 O208 1.263 . S
O207 Co204 1.970 . S
O207 C206 1.258 . S
O208 Co205 1.966 . S
O208 C206 1.263 . S
C209 O210 1.235 . S
C209 O236 1.289 . S
O210 C209 1.235 . S
C211 C213 1.400 . S
C211 N214 1.351 . S
C211 C216 1.501 . S
C212 C213 1.387 . S
C212 N215 1.341 . S
C213 C211 1.400 . S
C213 C212 1.387 . S
N214 Co205 2.022 . S
N214 C211 1.351 . S
N214 N215 1.365 . S
N215 C212 1.341 . S
N215 N214 1.365 . S
N215 H235 0.862 . S
C216 C211 1.501 . S
C216 H217 0.961 . S
C216 H218 0.961 . S
C216 H219 0.960 . S
H217 C216 0.961 . S
H218 C216 0.961 . S
H219 C216 0.960 . S
C220 N221 1.342 . S
C220 C224 1.401 . S
C220 C225 1.499 . S
N221 Co204 1.989 . S
N221 C220 1.342 . S
N221 N222 1.388 . S
N222 Co205 1.993 . S
N222 N221 1.388 . S
N222 C223 1.346 . S
C223 N222 1.346 . S
C223 C224 1.396 . S
C223 C233 1.510 . S
C224 C220 1.401 . S
C224 C223 1.396 . S
C225 C220 1.499 . S
C225 H226 0.959 . S
C225 H227 0.960 . S
C225 H228 0.961 . S
H226 C225 0.959 . S
H227 C225 0.960 . S
H228 C225 0.961 . S
O229 Co204 1.967 . S
O229 C237 1.258 . S
O230 Co205 1.941 . S
O230 C237 1.266 . S
H231 C233 0.959 . S
H232 C233 0.961 . S
C233 C223 1.510 . S
C233 H231 0.959 . S
C233 H232 0.961 . S
C233 H234 0.960 . S
H234 C233 0.960 . S
H235 N215 0.862 . S
O236 Co204 1.920 . S
O236 C209 1.289 . S
C237 O229 1.258 . S
C237 O230 1.266 . S
Co238 O241 1.970 . S
Co238 N255 1.989 . S
Co238 O263 1.967 . S
Co238 O270 1.920 . S
Co239 O242 1.966 . S
Co239 N248 2.022 1_556 S
Co239 N256 1.993 . S
Co239 O264 1.941 . S
C240 O241 1.258 . S
C240 O242 1.263 . S
O241 Co238 1.970 . S
O241 C240 1.258 . S
O242 Co239 1.966 . S
O242 C240 1.263 . S
C243 O244 1.235 . S
C243 O270 1.289 . S
O244 C243 1.235 . S
C245 C247 1.400 . S
C245 N248 1.351 . S
C245 C250 1.501 . S
C246 C247 1.387 . S
C246 N249 1.341 . S
C247 C245 1.400 . S
C247 C246 1.387 . S
N248 Co239 2.022 1_554 S
N248 C245 1.351 . S
N248 N249 1.365 . S
N249 C246 1.341 . S
N249 N248 1.365 . S
N249 H269 0.862 . S
C250 C245 1.501 . S
C250 H251 0.961 . S
C250 H252 0.961 . S
C250 H253 0.960 . S
H251 C250 0.961 . S
H252 C250 0.961 . S
H253 C250 0.960 . S
C254 N255 1.342 . S
C254 C258 1.401 . S
C254 C259 1.499 . S
N255 Co238 1.989 . S
N255 C254 1.342 . S
N255 N256 1.388 . S
N256 Co239 1.993 . S
N256 N255 1.388 . S
N256 C257 1.346 . S
C257 N256 1.346 . S
C257 C258 1.396 . S
C257 C267 1.510 1_556 S
C258 C254 1.401 . S
C258 C257 1.396 . S
C259 C254 1.499 . S
C259 H260 0.959 . S
C259 H261 0.960 . S
C259 H262 0.961 . S
H260 C259 0.959 . S
H261 C259 0.960 . S
H262 C259 0.961 . S
O263 Co238 1.967 . S
O263 C271 1.258 . S
O264 Co239 1.941 . S
O264 C271 1.266 . S
H265 C267 0.959 . S
H266 C267 0.961 . S
C267 C257 1.510 1_554 S
C267 H265 0.959 . S
C267 H266 0.961 . S
C267 H268 0.960 . S
H268 C267 0.960 . S
H269 N249 0.862 . S
O270 Co238 1.920 . S
O270 C243 1.289 . S
C271 O263 1.258 . S
C271 O264 1.266 . S
Co272 O275 1.970 . S
Co272 N289 1.989 . S
Co272 O297 1.967 . S
Co272 O304 1.910 1_554 S
Co273 O276 1.966 . S
Co273 N282 2.022 . S
Co273 N290 1.993 . S
Co273 O298 1.941 . S
C274 O275 1.258 . S
C274 O276 1.263 . S
O275 Co272 1.970 . S
O275 C274 1.258 . S
O276 Co273 1.966 . S
O276 C274 1.263 . S
C277 O278 1.235 . S
C277 O304 1.294 . S
O278 C277 1.235 . S
C279 C281 1.400 . S
C279 N282 1.351 . S
C279 C284 1.501 . S
C280 C281 1.387 . S
C280 N283 1.341 . S
C281 C279 1.400 . S
C281 C280 1.387 . S
N282 Co273 2.022 . S
N282 C279 1.351 . S
N282 N283 1.365 . S
N283 C280 1.341 . S
N283 N282 1.365 . S
N283 H303 0.862 . S
C284 C279 1.501 . S
C284 H285 0.961 . S
C284 H286 0.961 . S
C284 H287 0.960 . S
H285 C284 0.961 . S
H286 C284 0.961 . S
H287 C284 0.960 . S
C288 N289 1.342 . S
C288 C292 1.401 . S
C288 C293 1.499 . S
N289 Co272 1.989 . S
N289 C288 1.342 . S
N289 N290 1.388 . S
N290 Co273 1.993 . S
N290 N289 1.388 . S
N290 C291 1.346 . S
C291 N290 1.346 . S
C291 C292 1.396 . S
C291 C301 1.510 . S
C292 C288 1.401 . S
C292 C291 1.396 . S
C293 C288 1.499 . S
C293 H294 0.959 . S
C293 H295 0.960 . S
C293 H296 0.961 . S
H294 C293 0.959 . S
H295 C293 0.960 . S
H296 C293 0.961 . S
O297 Co272 1.967 . S
O297 C305 1.258 . S
O298 Co273 1.941 . S
O298 C305 1.266 . S
H299 C301 0.959 . S
H300 C301 0.961 . S
C301 C291 1.510 . S
C301 H299 0.959 . S
C301 H300 0.961 . S
C301 H302 0.960 . S
H302 C301 0.960 . S
H303 N283 0.862 . S
O304 Co272 1.910 1_556 S
O304 C277 1.294 . S
C305 O297 1.258 . S
C305 O298 1.266 . S
Co306 O309 1.970 . S
Co306 N323 1.989 . S
Co306 O331 1.967 . S
Co306 O338 1.920 . S
Co307 O310 1.966 . S
Co307 N316 2.022 . S
Co307 N324 1.993 . S
Co307 O332 1.941 . S
C308 O309 1.258 . S
C308 O310 1.263 . S
O309 Co306 1.970 . S
O309 C308 1.258 . S
O310 Co307 1.966 . S
O310 C308 1.263 . S
C311 O312 1.235 . S
C311 O338 1.289 . S
O312 C311 1.235 . S
C313 C315 1.400 . S
C313 N316 1.351 . S
C313 C318 1.501 . S
C314 C315 1.387 . S
C314 N317 1.341 . S
C315 C313 1.400 . S
C315 C314 1.387 . S
N316 Co307 2.022 . S
N316 C313 1.351 . S
N316 N317 1.365 . S
N317 C314 1.341 . S
N317 N316 1.365 . S
N317 H337 0.862 . S
C318 C313 1.501 . S
C318 H319 0.961 . S
C318 H320 0.961 . S
C318 H321 0.960 . S
H319 C318 0.961 . S
H320 C318 0.961 . S
H321 C318 0.960 . S
C322 N323 1.342 . S
C322 C326 1.401 . S
C322 C327 1.499 . S
N323 Co306 1.989 . S
N323 C322 1.342 . S
N323 N324 1.388 . S
N324 Co307 1.993 . S
N324 N323 1.388 . S
N324 C325 1.346 . S
C325 N324 1.346 . S
C325 C326 1.396 . S
C325 C335 1.510 . S
C326 C322 1.401 . S
C326 C325 1.396 . S
C327 C322 1.499 . S
C327 H328 0.959 . S
C327 H329 0.960 . S
C327 H330 0.961 . S
H328 C327 0.959 . S
H329 C327 0.960 . S
H330 C327 0.961 . S
O331 Co306 1.967 . S
O331 C339 1.258 . S
O332 Co307 1.941 . S
O332 C339 1.266 . S
H333 C335 0.959 . S
H334 C335 0.961 . S
C335 C325 1.510 . S
C335 H333 0.959 . S
C335 H334 0.961 . S
C335 H336 0.960 . S
H336 C335 0.960 . S
H337 N317 0.862 . S
O338 Co306 1.920 . S
O338 C311 1.289 . S
C339 O331 1.258 . S
C339 O332 1.266 . S
Co340 O343 1.970 . S
Co340 N357 1.989 . S
Co340 O365 1.967 . S
Co340 O372 1.920 . S
Co341 O344 1.966 . S
Co341 N350 2.022 1_556 S
Co341 N358 1.993 . S
Co341 O366 1.941 . S
C342 O343 1.258 . S
C342 O344 1.263 . S
O343 Co340 1.970 . S
O343 C342 1.258 . S
O344 Co341 1.966 . S
O344 C342 1.263 . S
C345 O346 1.235 . S
C345 O372 1.289 . S
O346 C345 1.235 . S
C347 C349 1.400 . S
C347 N350 1.351 . S
C347 C352 1.501 . S
C348 C349 1.387 . S
C348 N351 1.341 . S
C349 C347 1.400 . S
C349 C348 1.387 . S
N350 Co341 2.022 1_554 S
N350 C347 1.351 . S
N350 N351 1.365 . S
N351 C348 1.341 . S
N351 N350 1.365 . S
N351 H371 0.862 . S
C352 C347 1.501 . S
C352 H353 0.961 . S
C352 H354 0.961 . S
C352 H355 0.960 . S
H353 C352 0.961 . S
H354 C352 0.961 . S
H355 C352 0.960 . S
C356 N357 1.342 . S
C356 C360 1.401 . S
C356 C361 1.499 . S
N357 Co340 1.989 . S
N357 C356 1.342 . S
N357 N358 1.388 . S
N358 Co341 1.993 . S
N358 N357 1.388 . S
N358 C359 1.346 . S
C359 N358 1.346 . S
C359 C360 1.396 . S
C359 C369 1.510 1_556 S
C360 C356 1.401 . S
C360 C359 1.396 . S
C361 C356 1.499 . S
C361 H362 0.959 . S
C361 H363 0.960 . S
C361 H364 0.961 . S
H362 C361 0.959 . S
H363 C361 0.960 . S
H364 C361 0.961 . S
O365 Co340 1.967 . S
O365 C373 1.258 . S
O366 Co341 1.941 . S
O366 C373 1.266 . S
H367 C369 0.959 . S
H368 C369 0.961 . S
C369 C359 1.510 1_554 S
C369 H367 0.959 . S
C369 H368 0.961 . S
C369 H370 0.960 . S
H370 C369 0.960 . S
H371 N351 0.862 . S
O372 Co340 1.920 . S
O372 C345 1.289 . S
C373 O365 1.258 . S
C373 O366 1.266 . S
Co374 O377 1.970 . S
Co374 N391 1.989 . S
Co374 O399 1.967 . S
Co374 O406 1.910 1_554 S
Co375 O378 1.966 . S
Co375 N384 2.022 . S
Co375 N392 1.993 . S
Co375 O400 1.941 . S
C376 O377 1.258 . S
C376 O378 1.263 . S
O377 Co374 1.970 . S
O377 C376 1.258 . S
O378 Co375 1.966 . S
O378 C376 1.263 . S
C379 O380 1.235 . S
C379 O406 1.294 . S
O380 C379 1.235 . S
C381 C383 1.400 . S
C381 N384 1.351 . S
C381 C386 1.501 . S
C382 C383 1.387 . S
C382 N385 1.341 . S
C383 C381 1.400 . S
C383 C382 1.387 . S
N384 Co375 2.022 . S
N384 C381 1.351 . S
N384 N385 1.365 . S
N385 C382 1.341 . S
N385 N384 1.365 . S
N385 H405 0.862 . S
C386 C381 1.501 . S
C386 H387 0.961 . S
C386 H388 0.961 . S
C386 H389 0.960 . S
H387 C386 0.961 . S
H388 C386 0.961 . S
H389 C386 0.960 . S
C390 N391 1.342 . S
C390 C394 1.401 . S
C390 C395 1.499 . S
N391 Co374 1.989 . S
N391 C390 1.342 . S
N391 N392 1.388 . S
N392 Co375 1.993 . S
N392 N391 1.388 . S
N392 C393 1.346 . S
C393 N392 1.346 . S
C393 C394 1.396 . S
C393 C403 1.510 . S
C394 C390 1.401 . S
C394 C393 1.396 . S
C395 C390 1.499 . S
C395 H396 0.959 . S
C395 H397 0.960 . S
C395 H398 0.961 . S
H396 C395 0.959 . S
H397 C395 0.960 . S
H398 C395 0.961 . S
O399 Co374 1.967 . S
O399 C407 1.258 . S
O400 Co375 1.941 . S
O400 C407 1.266 . S
H401 C403 0.959 . S
H402 C403 0.961 . S
C403 C393 1.510 . S
C403 H401 0.959 . S
C403 H402 0.961 . S
C403 H404 0.960 . S
H404 C403 0.960 . S
H405 N385 0.862 . S
O406 Co374 1.910 1_556 S
O406 C379 1.294 . S
C407 O399 1.258 . S
C407 O400 1.266 . S
C408 C409 1.387 . S
C408 H412 0.950 . S
C408 C417 1.390 1_455 S
C409 C408 1.387 . S
C409 C411 1.387 . S
H410 C417 0.950 . S
C411 C409 1.387 . S
C411 C413 1.390 1_455 S
C411 H415 0.950 . S
H412 C408 0.950 . S
C413 C411 1.390 1_655 S
C413 C414 1.387 . S
C413 H416 0.950 . S
C414 C413 1.387 . S
C414 C417 1.387 . S
H415 C411 0.950 . S
H416 C413 0.950 . S
C417 C408 1.390 1_655 S
C417 H410 0.950 . S
C417 C414 1.387 . S
C418 C419 1.387 . S
C418 H422 0.950 . S
C418 C427 1.390 1_545 S
C419 C418 1.387 . S
C419 C421 1.387 . S
H420 C427 0.950 . S
C421 C419 1.387 . S
C421 C423 1.390 1_545 S
C421 H425 0.950 . S
H422 C418 0.950 . S
C423 C421 1.390 1_565 S
C423 C424 1.387 . S
C423 H426 0.950 . S
C424 C423 1.387 . S
C424 C427 1.387 . S
H425 C421 0.950 . S
H426 C423 0.950 . S
C427 C418 1.390 1_565 S
C427 H420 0.950 . S
C427 C424 1.387 . S
C428 C429 1.387 . S
C428 H432 0.950 . S
C428 C437 1.390 . S
C429 C428 1.387 . S
C429 C431 1.387 . S
H430 C437 0.950 . S
C431 C429 1.387 . S
C431 C433 1.390 . S
C431 H435 0.950 . S
H432 C428 0.950 . S
C433 C431 1.390 . S
C433 C434 1.387 . S
C433 H436 0.950 . S
C434 C433 1.387 . S
C434 C437 1.387 . S
H435 C431 0.950 . S
H436 C433 0.950 . S
C437 C428 1.390 . S
C437 H430 0.950 . S
C437 C434 1.387 . S
C438 C439 1.387 . S
C438 H442 0.950 . S
C438 C447 1.390 1_455 S
C439 C438 1.387 . S
C439 C441 1.387 . S
H440 C447 0.950 . S
C441 C439 1.387 . S
C441 C443 1.390 1_455 S
C441 H445 0.950 . S
H442 C438 0.950 . S
C443 C441 1.390 1_655 S
C443 C444 1.387 . S
C443 H446 0.950 . S
C444 C443 1.387 . S
C444 C447 1.387 . S
H445 C441 0.950 . S
H446 C443 0.950 . S
C447 C438 1.390 1_655 S
C447 H440 0.950 . S
C447 C444 1.387 . S
C448 C449 1.387 . S
C448 H452 0.950 . S
C448 C457 1.390 1_545 S
C449 C448 1.387 . S
C449 C451 1.387 . S
H450 C457 0.950 . S
C451 C449 1.387 . S
C451 C453 1.390 1_545 S
C451 H455 0.950 . S
H452 C448 0.950 . S
C453 C451 1.390 1_565 S
C453 C454 1.387 . S
C453 H456 0.950 . S
C454 C453 1.387 . S
C454 C457 1.387 . S
H455 C451 0.950 . S
H456 C453 0.950 . S
C457 C448 1.390 1_565 S
C457 H450 0.950 . S
C457 C454 1.387 . S
C458 C459 1.387 . S
C458 H462 0.950 . S
C458 C467 1.390 . S
C459 C458 1.387 . S
C459 C461 1.387 . S
H460 C467 0.950 . S
C461 C459 1.387 . S
C461 C463 1.390 . S
C461 H465 0.950 . S
H462 C458 0.950 . S
C463 C461 1.390 . S
C463 C464 1.387 . S
C463 H466 0.950 . S
C464 C463 1.387 . S
C464 C467 1.387 . S
H465 C461 0.950 . S
H466 C463 0.950 . S
C467 C458 1.390 . S
C467 H460 0.950 . S
C467 C464 1.387 . S
C468 C469 1.387 . S
C468 H472 0.950 . S
C468 C477 1.390 . S
C469 C468 1.387 . S
C469 C471 1.387 . S
H470 C477 0.950 . S
C471 C469 1.387 . S
C471 C473 1.390 . S
C471 H475 0.950 . S
H472 C468 0.950 . S
C473 C471 1.390 . S
C473 C474 1.387 . S
C473 H476 0.950 . S
C474 C473 1.387 . S
C474 C477 1.387 . S
H475 C471 0.950 . S
H476 C473 0.950 . S
C477 C468 1.390 . S
C477 H470 0.950 . S
C477 C474 1.387 . S
C478 C479 1.387 . S
C478 H482 0.950 . S
C478 C487 1.390 . S
C479 C478 1.387 . S
C479 C481 1.387 . S
H480 C487 0.950 . S
C481 C479 1.387 . S
C481 C483 1.390 . S
C481 H485 0.950 . S
H482 C478 0.950 . S
C483 C481 1.390 . S
C483 C484 1.387 . S
C483 H486 0.944 1_556 S
C484 C483 1.387 . S
C484 C487 1.387 . S
H485 C481 0.950 . S
H486 C483 0.944 1_554 S
C487 C478 1.390 . S
C487 H480 0.950 . S
C487 C484 1.387 . S
C488 C489 1.387 . S
C488 H492 0.950 . S
C488 C497 1.390 . S
C489 C488 1.387 . S
C489 C491 1.387 . S
H490 C497 0.950 . S
C491 C489 1.387 . S
C491 C493 1.390 . S
C491 H495 0.950 . S
H492 C488 0.950 . S
C493 C491 1.390 . S
C493 C494 1.387 . S
C493 H496 0.950 . S
C494 C493 1.387 . S
C494 C497 1.387 . S
H495 C491 0.950 . S
H496 C493 0.950 . S
C497 C488 1.390 . S
C497 H490 0.950 . S
C497 C494 1.387 . S
C498 C499 1.387 . S
C498 H502 0.950 . S
C498 C507 1.390 . S
C499 C498 1.387 . S
C499 C501 1.387 . S
H500 C507 0.950 . S
C501 C499 1.387 . S
C501 C503 1.390 . S
C501 H505 0.950 . S
H502 C498 0.950 . S
C503 C501 1.390 . S
C503 C504 1.387 . S
C503 H506 0.950 . S
C504 C503 1.387 . S
C504 C507 1.387 . S
H505 C501 0.950 . S
H506 C503 0.950 . S
C507 C498 1.390 . S
C507 H500 0.950 . S
C507 C504 1.387 . S
C508 C509 1.387 . S
C508 H512 0.950 . S
C508 C517 1.390 . S
C509 C508 1.387 . S
C509 C511 1.387 . S
H510 C517 0.950 . S
C511 C509 1.387 . S
C511 C513 1.390 . S
C511 H515 0.950 . S
H512 C508 0.950 . S
C513 C511 1.390 . S
C513 C514 1.387 . S
C513 H516 0.950 . S
C514 C513 1.387 . S
C514 C517 1.387 . S
H515 C511 0.950 . S
H516 C513 0.950 . S
C517 C508 1.390 . S
C517 H510 0.950 . S
C517 C514 1.387 . S
C518 C519 1.387 . S
C518 H522 0.950 . S
C518 C527 1.390 . S
C519 C518 1.387 . S
C519 C521 1.387 . S
H520 C527 0.950 . S
C521 C519 1.387 . S
C521 C523 1.390 . S
C521 H525 0.950 . S
H522 C518 0.950 . S
C523 C521 1.390 . S
C523 C524 1.387 . S
C523 H526 0.950 . S
C524 C523 1.387 . S
C524 C527 1.387 . S
H525 C521 0.950 . S
H526 C523 0.950 . S
C527 C518 1.390 . S
C527 H520 0.950 . S
C527 C524 1.387 . S
C528 C529 1.387 . S
C528 H532 0.950 . S
C528 C537 1.390 . S
C529 C528 1.387 . S
C529 C531 1.387 . S
H530 C537 0.950 . S
C531 C529 1.387 . S
C531 C533 1.390 . S
C531 H535 0.950 . S
H532 C528 0.950 . S
C533 C531 1.390 . S
C533 C534 1.387 . S
C533 H536 0.950 . S
C534 C533 1.387 . S
C534 C537 1.387 . S
H535 C531 0.950 . S
H536 C533 0.950 . S
C537 C528 1.390 . S
C537 H530 0.950 . S
C537 C534 1.387 . S
C538 C539 1.387 . S
C538 H542 0.950 . S
C538 C547 1.390 . S
C539 C538 1.387 . S
C539 C541 1.387 . S
H540 C547 0.950 . S
C541 C539 1.387 . S
C541 C543 1.390 . S
C541 H545 0.950 . S
H542 C538 0.950 . S
C543 C541 1.390 . S
C543 C544 1.387 . S
C543 H546 0.950 . S
C544 C543 1.387 . S
C544 C547 1.387 . S
H545 C541 0.950 . S
H546 C543 0.950 . S
C547 C538 1.390 . S
C547 H540 0.950 . S
C547 C544 1.387 . S
C548 C549 1.387 . S
C548 H552 0.950 . S
C548 C557 1.390 . S
C549 C548 1.387 . S
C549 C551 1.387 . S
H550 C557 0.950 . S
C551 C549 1.387 . S
C551 C553 1.390 . S
C551 H555 0.950 . S
H552 C548 0.950 . S
C553 C551 1.390 . S
C553 C554 1.387 . S
C553 H556 0.950 . S
C554 C553 1.387 . S
C554 C557 1.387 . S
H555 C551 0.950 . S
H556 C553 0.950 . S
C557 C548 1.390 . S
C557 H550 0.950 . S
C557 C554 1.387 . S
C558 C559 1.387 . S
C558 H562 0.950 . S
C558 C567 1.390 . S
C559 C558 1.387 . S
C559 C561 1.387 . S
H560 C567 0.950 . S
C561 C559 1.387 . S
C561 C563 1.390 . S
C561 H565 0.950 . S
H562 C558 0.950 . S
C563 C561 1.390 . S
C563 C564 1.387 . S
C563 H566 0.950 . S
C564 C563 1.387 . S
C564 C567 1.387 . S
H565 C561 0.950 . S
H566 C563 0.950 . S
C567 C558 1.390 . S
C567 H560 0.950 . S
C567 C564 1.387 . S
C568 C569 1.387 . S
C568 H572 0.950 . S
C568 C577 1.390 . S
C569 C568 1.387 . S
C569 C571 1.387 . S
H570 C577 0.950 . S
C571 C569 1.387 . S
C571 C573 1.390 . S
C571 H575 0.950 . S
H572 C568 0.950 . S
C573 C571 1.390 . S
C573 C574 1.387 . S
C573 H576 0.950 . S
C574 C573 1.387 . S
C574 C577 1.387 . S
H575 C571 0.950 . S
H576 C573 0.950 . S
C577 C568 1.390 . S
C577 H570 0.950 . S
C577 C574 1.387 . S
C578 C579 1.387 . S
C578 H582 0.950 . S
C578 C587 1.390 . S
C579 C578 1.387 . S
C579 C581 1.387 . S
H580 C587 0.950 . S
C581 C579 1.387 . S
C581 C583 1.390 . S
C581 H585 0.950 . S
H582 C578 0.950 . S
C583 C581 1.390 . S
C583 C584 1.387 . S
C583 H586 0.950 . S
C584 C583 1.387 . S
C584 C587 1.387 . S
H585 C581 0.950 . S
H586 C583 0.950 . S
C587 C578 1.390 . S
C587 H580 0.950 . S
C587 C584 1.387 . S
C588 C589 1.387 . S
C588 H592 0.950 . S
C588 C597 1.390 . S
C589 C588 1.387 . S
C589 C591 1.387 . S
H590 C597 0.950 . S
C591 C589 1.387 . S
C591 C593 1.390 . S
C591 H595 0.950 . S
H592 C588 0.950 . S
C593 C591 1.390 . S
C593 C594 1.387 . S
C593 H596 0.950 . S
C594 C593 1.387 . S
C594 C597 1.387 . S
H595 C591 0.950 . S
H596 C593 0.950 . S
C597 C588 1.390 . S
C597 H590 0.950 . S
C597 C594 1.387 . S
C598 C599 1.387 . S
C598 H602 0.950 . S
C598 C607 1.390 . S
C599 C598 1.387 . S
C599 C601 1.387 . S
H600 C607 0.950 . S
C601 C599 1.387 . S
C601 C603 1.390 . S
C601 H605 0.950 . S
H602 C598 0.950 . S
C603 C601 1.390 . S
C603 C604 1.387 . S
C603 H606 0.950 . S
C604 C603 1.387 . S
C604 C607 1.387 . S
H605 C601 0.950 . S
H606 C603 0.950 . S
C607 C598 1.390 . S
C607 H600 0.950 . S
C607 C604 1.387 . S
C608 C609 1.387 . S
C608 H612 0.950 . S
C608 C617 1.390 . S
C609 C608 1.387 . S
C609 C611 1.387 . S
H610 C617 0.950 . S
C611 C609 1.387 . S
C611 C613 1.390 . S
C611 H615 0.950 . S
H612 C608 0.950 . S
C613 C611 1.390 . S
C613 C614 1.387 . S
C613 H616 0.950 . S
C614 C613 1.387 . S
C614 C617 1.387 . S
H615 C611 0.950 . S
H616 C613 0.950 . S
C617 C608 1.390 . S
C617 H610 0.950 . S
C617 C614 1.387 . S
C618 C619 1.387 . S
C618 H622 0.950 . S
C618 C627 1.390 . S
C619 C618 1.387 . S
C619 C621 1.387 . S
H620 C627 0.950 . S
C621 C619 1.387 . S
C621 C623 1.390 . S
C621 H625 0.950 . S
H622 C618 0.950 . S
C623 C621 1.390 . S
C623 C624 1.387 . S
C623 H626 0.950 . S
C624 C623 1.387 . S
C624 C627 1.387 . S
H625 C621 0.950 . S
H626 C623 0.950 . S
C627 C618 1.390 . S
C627 H620 0.950 . S
C627 C624 1.387 . S
C628 C629 1.387 . S
C628 H632 0.950 . S
C628 C637 1.390 . S
C629 C628 1.387 . S
C629 C631 1.387 . S
H630 C637 0.950 . S
C631 C629 1.387 . S
C631 C633 1.390 . S
C631 H635 0.950 . S
H632 C628 0.950 . S
C633 C631 1.390 . S
C633 C634 1.387 . S
C633 H636 0.950 . S
C634 C633 1.387 . S
C634 C637 1.387 . S
H635 C631 0.950 . S
H636 C633 0.950 . S
C637 C628 1.390 . S
C637 H630 0.950 . S
C637 C634 1.387 . S
C638 C639 1.387 . S
C638 H642 0.950 . S
C638 C647 1.390 . S
C639 C638 1.387 . S
C639 C641 1.387 . S
H640 C647 0.950 . S
C641 C639 1.387 . S
C641 C643 1.390 . S
C641 H645 0.950 . S
H642 C638 0.950 . S
C643 C641 1.390 . S
C643 C644 1.387 . S
C643 H646 0.950 . S
C644 C643 1.387 . S
C644 C647 1.387 . S
H645 C641 0.950 . S
H646 C643 0.950 . S
C647 C638 1.390 . S
C647 H640 0.950 . S
C647 C644 1.387 . S
C648 C649 1.387 . S
C648 H652 0.950 . S
C648 C657 1.390 1_556 S
C649 C648 1.387 . S
C649 C651 1.387 . S
H650 C657 0.950 . S
C651 C649 1.387 . S
C651 C653 1.390 1_556 S
C651 H655 0.950 . S
H652 C648 0.950 . S
C653 C651 1.390 1_554 S
C653 C654 1.387 . S
C653 H656 0.950 . S
C654 C653 1.387 . S
C654 C657 1.387 . S
H655 C651 0.950 . S
H656 C653 0.950 . S
C657 C648 1.390 1_554 S
C657 H650 0.950 . S
C657 C654 1.387 . S
C658 C659 1.387 . S
C658 H662 0.950 . S
C658 C667 1.390 . S
C659 C658 1.387 . S
C659 C661 1.387 . S
H660 C667 0.950 . S
C661 C659 1.387 . S
C661 C663 1.390 . S
C661 H665 0.950 . S
H662 C658 0.950 . S
C663 C661 1.390 . S
C663 C664 1.387 . S
C663 H666 0.950 . S
C664 C663 1.387 . S
C664 C667 1.387 . S
H665 C661 0.950 . S
H666 C663 0.950 . S
C667 C658 1.390 . S
C667 H660 0.950 . S
C667 C664 1.387 . S
C668 C669 1.387 . S
C668 H672 0.950 . S
C668 C677 1.390 . S
C669 C668 1.387 . S
C669 C671 1.387 . S
H670 C677 0.950 . S
C671 C669 1.387 . S
C671 C673 1.390 . S
C671 H675 0.950 . S
H672 C668 0.950 . S
C673 C671 1.390 . S
C673 C674 1.387 . S
C673 H676 0.950 . S
C674 C673 1.387 . S
C674 C677 1.387 . S
H675 C671 0.950 . S
H676 C673 0.950 . S
C677 C668 1.390 . S
C677 H670 0.950 . S
C677 C674 1.387 . S
C678 C679 1.387 . S
C678 H682 0.950 . S
C678 C687 1.390 1_554 S
C679 C678 1.387 . S
C679 C681 1.387 . S
H680 C687 0.950 . S
C681 C679 1.387 . S
C681 C683 1.390 1_554 S
C681 H685 0.950 . S
H682 C678 0.950 . S
C683 C681 1.390 1_556 S
C683 C684 1.387 . S
C683 H686 0.950 . S
C684 C683 1.387 . S
C684 C687 1.387 . S
H685 C681 0.950 . S
H686 C683 0.950 . S
C687 C678 1.390 1_556 S
C687 H680 0.950 . S
C687 C684 1.387 . S
C688 C689 1.387 . S
C688 H692 0.950 . S
C688 C697 1.390 . S
C689 C688 1.387 . S
C689 C691 1.387 . S
H690 C697 0.950 . S
C691 C689 1.387 . S
C691 C693 1.390 . S
C691 H695 0.950 . S
H692 C688 0.950 . S
C693 C691 1.390 . S
C693 C694 1.387 . S
C693 H696 0.950 . S
C694 C693 1.387 . S
C694 C697 1.387 . S
H695 C691 0.950 . S
H696 C693 0.950 . S
C697 C688 1.390 . S
C697 H690 0.950 . S
C697 C694 1.387 . S
C698 C699 1.387 . S
C698 H702 0.950 . S
C698 C707 1.390 . S
C699 C698 1.387 . S
C699 C701 1.387 . S
H700 C707 0.950 . S
C701 C699 1.387 . S
C701 C703 1.390 . S
C701 H705 0.950 . S
H702 C698 0.950 . S
C703 C701 1.390 . S
C703 C704 1.387 . S
C703 H706 0.950 . S
C704 C703 1.387 . S
C704 C707 1.387 . S
H705 C701 0.950 . S
H706 C703 0.950 . S
C707 C698 1.390 . S
C707 H700 0.950 . S
C707 C704 1.387 . S
C409 C2 1.483 . S
C414 C376 1.483 . S
C419 C36 1.482 . S
C424 C206 1.482 . S
C429 C240 1.483 . S
C434 C70 1.482 . S
C439 C274 1.484 . S
C444 C104 1.483 . S
C449 C308 1.482 . S
C454 C138 1.482 . S
C459 C342 1.483 . S
C464 C172 1.482 . S
C469 C9 1.340 . S
C474 C5 1.418 . S
C479 C39 1.418 . S
C484 C43 1.342 1_556 S
C489 C77 1.342 . S
C494 C73 1.419 . S
C499 C111 1.341 . S
C504 C107 1.419 . S
C509 C145 1.340 1_556 S
C514 C141 1.417 . S
C519 C175 1.417 . S
C524 C179 1.340 . S
C529 C213 1.340 1_554 S
C534 C209 1.417 . S
C539 C243 1.417 . S
C544 C247 1.339 . S
C549 C281 1.338 . S
C554 C277 1.417 . S
C559 C311 1.417 . S
C564 C315 1.338 1_554 S
C569 C345 1.419 . S
C574 C349 1.341 . S
C579 C383 1.342 . S
C584 C379 1.419 . S
C589 C33 1.476 . S
C594 C305 1.475 . S
C599 C67 1.476 . S
C604 C339 1.476 . S
C609 C101 1.475 . S
C614 C373 1.476 . S
C619 C407 1.475 . S
C624 C135 1.475 . S
C629 C237 1.475 . S
C634 C169 1.475 . S
C639 C271 1.475 . S
C644 C203 1.476 . S
C649 C360 1.534 . S
C654 C20 1.534 . S
C659 C394 1.535 . S
C664 C54 1.535 . S
C669 C224 1.535 . S
C674 C88 1.535 . S
C679 C122 1.534 . S
C684 C258 1.534 . S
C689 C156 1.535 . S
C694 C292 1.535 . S
C699 C190 1.535 . S
C704 C326 1.535 . S
