# Generated by pormake.
# Topology rob, (6)-cn, num edge types: 1
# Building blocks:
#     Node 0, Type 0, BuildingBlock: HISSIN_clean_sbu_0, # of connection points: 6
#     Node 1, Type 0, BuildingBlock: HISSIN_clean_sbu_0, # of connection points: 6
#     Node 2, Type 0, BuildingBlock: HISSIN_clean_sbu_0, # of connection points: 6
#     Node 3, Type 0, BuildingBlock: HISSIN_clean_sbu_0, # of connection points: 6
#     Edge 4, Type (0, 0), BuildingBlock: XUDNAN_clean_linker_2, # of connection points: 2
#     Edge 5, Type (0, 0), BuildingBlock: XUDNAN_clean_linker_2, # of connection points: 2
#     Edge 6, Type (0, 0), BuildingBlock: XUDNAN_clean_linker_2, # of connection points: 2
#     Edge 7, Type (0, 0), BuildingBlock: XUDNAN_clean_linker_2, # of connection points: 2
#     Edge 8, Type (0, 0), BuildingBlock: XUDNAN_clean_linker_2, # of connection points: 2
#     Edge 9, Type (0, 0), BuildingBlock: XUDNAN_clean_linker_2, # of connection points: 2
#     Edge 10, Type (0, 0), BuildingBlock: XUDNAN_clean_linker_2, # of connection points: 2
#     Edge 11, Type (0, 0), BuildingBlock: XUDNAN_clean_linker_2, # of connection points: 2
#     Edge 12, Type (0, 0), BuildingBlock: XUDNAN_clean_linker_2, # of connection points: 2
#     Edge 13, Type (0, 0), BuildingBlock: XUDNAN_clean_linker_2, # of connection points: 2
#     Edge 14, Type (0, 0), BuildingBlock: XUDNAN_clean_linker_2, # of connection points: 2
#     Edge 15, Type (0, 0), BuildingBlock: XUDNAN_clean_linker_2, # of connection points: 2
# Relax obj value: 0.033
# Max RMSD: 0.135
# Mean RMSD: 0.135
data_MOF--net-rob--node1-HISSIN_clean_sbu_0--edge1-XUDNAN_clean_linker_2
_symmetry_space_group_name_H-M    P1
_symmetry_Int_Tables_number       1
_symmetry_cell_setting            triclinic
loop_
_symmetry_equiv_pos_as_xyz
'x, y, z'
_cell_length_a     16.305239
_cell_length_b     25.609718
_cell_length_c     36.553551
_cell_angle_alpha  95.710685
_cell_angle_beta   90.118471
_cell_angle_gamma 90.034282
loop_
_atom_site_label
_atom_site_type_symbol
_atom_site_fract_x
_atom_site_fract_y
_atom_site_fract_z
_atom_type_partial_charge
Eu0 Eu 0.17355 0.28133 0.04887 0.0
Eu1 Eu 0.29119 0.20362 0.99149 0.0
C2 C 0.13431 0.15774 0.03024 0.0
C3 C 0.06458 0.33443 0.13718 0.0
C4 C 0.05436 0.28528 0.15062 0.0
C5 C 0.03903 0.3769 0.19856 0.0
C6 C 0.03627 0.28206 0.18783 0.0
C7 C 0.05633 0.3801 0.16139 0.0
C8 C 0.0293 0.32788 0.2123 0.0
C9 C 0.08969 0.33895 0.09885 0.0
O10 O 0.1824 0.22778 0.95939 0.0
O11 O 0.14226 0.30456 0.99252 0.0
C12 C 0.1442 0.27313 0.96178 0.0
O13 O 0.29023 0.32539 0.03959 0.0
O14 O 0.3041 0.13924 0.94789 0.0
O15 O 0.41112 0.18364 0.96751 0.0
O16 O 0.32316 0.28642 0.98246 0.0
C17 C 0.33079 0.32492 1.0086 0.0
O18 O 0.24141 0.22735 0.0829 0.0
O19 O 0.3551 0.21088 0.04686 0.0
O20 O 0.21012 0.1483 1.01927 0.0
O21 O 0.16821 0.34401 0.0938 0.0
O22 O 0.05587 0.30691 0.07314 0.0
O23 O 0.10466 0.20556 0.03613 0.0
C24 C 0.40312 0.1567 0.9031 0.0
C25 C 0.45445 0.19789 0.8943 0.0
C26 C 0.38842 0.12916 0.83763 0.0
C27 C 0.47238 0.20461 0.85757 0.0
C28 C 0.37098 0.12221 0.87432 0.0
C29 C 0.43907 0.17057 0.82875 0.0
C30 C 0.38083 0.15 0.9418 0.0
C31 C 0.31873 0.21402 0.07911 0.0
H32 H 0.06175 0.24945 0.13251 0.0
H33 H 0.03328 0.41291 0.21661 0.0
H34 H 0.02998 0.24374 0.19768 0.0
H35 H 0.06461 0.41834 0.15164 0.0
H36 H 0.48019 0.22537 0.91571 0.0
H37 H 0.36264 0.10176 0.81617 0.0
H38 H 0.51098 0.23718 0.85172 0.0
H39 H 0.33166 0.08997 0.88019 0.0
Eu40 Eu 0.66113 0.76018 0.04952 0.0
Eu41 Eu 0.81447 0.71575 0.99592 0.0
C42 C 0.66696 0.64293 1.01419 0.0
C43 C 0.5347 0.79446 0.13637 0.0
C44 C 0.47846 0.7616 0.15189 0.0
C45 C 0.5722 0.83202 0.19803 0.0
C46 C 0.46949 0.76354 0.18997 0.0
C47 C 0.58173 0.82971 0.1598 0.0
C48 C 0.51575 0.79901 0.21361 0.0
C49 C 0.54447 0.7899 0.09592 0.0
O50 O 0.71206 0.73286 0.9572 0.0
O51 O 0.63235 0.78981 0.99472 0.0
C52 C 0.6535 0.76823 0.96186 0.0
O53 O 0.76313 0.81943 0.05734 0.0
O54 O 0.86311 0.65109 0.959 0.0
O55 O 0.93497 0.72188 0.97057 0.0
O56 O 0.82343 0.80388 1.0008 0.0
C57 C 0.81024 0.8344 0.03124 0.0
O58 O 0.74461 0.7169 0.08538 0.0
O59 O 0.86575 0.72022 0.05368 0.0
O60 O 0.74697 0.64687 1.01489 0.0
O61 O 0.59381 0.82268 0.0818 0.0
O62 O 0.55181 0.74228 0.08006 0.0
O63 O 0.62079 0.68485 1.01803 0.0
C64 C 0.94439 0.67625 0.91087 0.0
C65 C 0.92296 0.71873 0.89127 0.0
C66 C 0.99046 0.62813 0.85399 0.0
C67 C 0.9361 0.71608 0.8533 0.0
C68 C 0.97805 0.631 0.89196 0.0
C69 C 0.96979 0.67066 0.83427 0.0
C70 C 0.92788 0.67702 0.9505 0.0
C71 C 0.82502 0.71411 0.08404 0.0
H72 H 0.4418 0.73385 0.1345 0.0
H73 H 0.60827 0.86019 0.2153 0.0
H74 H 0.42673 0.73666 0.20083 0.0
H75 H 0.6259 0.85547 0.1487 0.0
H76 H 0.8955 0.75372 0.90523 0.0
H77 H 0.01717 0.59284 0.84012 0.0
H78 H 0.91878 0.74921 0.83872 0.0
H79 H -0.00577 0.59766 0.90657 0.0
Eu80 Eu 0.17908 0.70637 0.4961 0.0
Eu81 Eu 0.2952 0.78472 0.55317 0.0
C82 C 0.13383 0.82774 0.51732 0.0
C83 C 0.06438 0.66152 0.40847 0.0
C84 C 0.09264 0.70601 0.39279 0.0
C85 C -0.00675 0.63331 0.35127 0.0
C86 C 0.0732 0.71345 0.3564 0.0
C87 C 0.01366 0.62556 0.38765 0.0
C88 C 0.02424 0.67682 0.33505 0.0
C89 C 0.09129 0.65162 0.44572 0.0
O90 O 0.18726 0.75918 0.5852 0.0
O91 O 0.15109 0.68134 0.55231 0.0
C92 C 0.15073 0.71321 0.5829 0.0
O93 O 0.29584 0.66213 0.50513 0.0
O94 O 0.306 0.85033 0.59604 0.0
O95 O 0.41398 0.80588 0.57807 0.0
O96 O 0.32884 0.70187 0.56209 0.0
C97 C 0.33648 0.66289 0.53622 0.0
O98 O 0.24476 0.76208 0.46248 0.0
O99 O 0.35911 0.77938 0.49803 0.0
O100 O 0.21119 0.83843 0.52508 0.0
O101 O 0.17012 0.64598 0.44976 0.0
O102 O 0.05956 0.68158 0.47298 0.0
O103 O 0.1067 0.77924 0.5134 0.0
C104 C 0.40522 0.83688 0.64134 0.0
C105 C 0.41645 0.88263 0.66524 0.0
C106 C 0.43242 0.78467 0.69227 0.0
C107 C 0.43518 0.87954 0.70237 0.0
C108 C 0.41301 0.78781 0.65516 0.0
C109 C 0.44342 0.83054 0.71637 0.0
C110 C 0.38304 0.84105 0.60249 0.0
C111 C 0.32187 0.77636 0.46596 0.0
H112 H 0.13098 0.73453 0.40855 0.0
H113 H 0.95567 0.60436 0.33541 0.0
H114 H 0.09704 0.74769 0.3448 0.0
H115 H -0.00879 0.59098 0.39927 0.0
H116 H 0.41038 0.92086 0.65521 0.0
H117 H 0.4373 0.74637 0.70226 0.0
H118 H 0.44396 0.9156 0.72008 0.0
H119 H 0.40357 0.7519 0.63734 0.0
Eu120 Eu 0.6695 0.22822 0.49542 0.0
Eu121 Eu 0.82436 0.27021 0.54867 0.0
C122 C 0.67736 0.34571 0.53258 0.0
C123 C 0.54412 0.19745 0.40811 0.0
C124 C 0.59923 0.17171 0.38282 0.0
C125 C 0.46684 0.22681 0.35696 0.0
C126 C 0.58772 0.17304 0.34502 0.0
C127 C 0.47796 0.22505 0.39478 0.0
C128 C 0.52123 0.20049 0.33152 0.0
C129 C 0.55519 0.1961 0.44823 0.0
O130 O 0.73729 0.23234 0.58632 0.0
O131 O 0.61728 0.23049 0.55268 0.0
C132 C 0.65707 0.22676 0.58372 0.0
O133 O 0.73103 0.1579 0.51566 0.0
O134 O 0.90057 0.33281 0.57585 0.0
O135 O 0.92951 0.25151 0.58174 0.0
O136 O 0.85962 0.19248 0.51883 0.0
C137 C 0.8108 0.15167 0.51588 0.0
O138 O 0.77484 0.23831 0.45714 0.0
O139 O 0.85202 0.29826 0.49317 0.0
O140 O 0.72307 0.32923 0.55862 0.0
O141 O 0.6134 0.16603 0.45874 0.0
O142 O 0.55209 0.24099 0.46846 0.0
O143 O 0.66696 0.31672 0.50124 0.0
C144 C 0.95672 0.3123 0.63243 0.0
C145 C 0.88884 0.31868 0.65602 0.0
C146 C 0.04741 0.31868 0.68535 0.0
C147 C 0.90029 0.32475 0.69417 0.0
C148 C 0.03595 0.313 0.64729 0.0
C149 C 0.9797 0.32383 0.70922 0.0
C150 C 0.94576 0.30044 0.5926 0.0
C151 C 0.83249 0.27423 0.46079 0.0
H152 H 0.65119 0.15021 0.39211 0.0
H153 H 0.41586 0.24923 0.34774 0.0
H154 H 0.63032 0.1517 0.32642 0.0
H155 H 0.43489 0.24547 0.41367 0.0
H156 H 0.82708 0.31761 0.64496 0.0
H157 H 0.10932 0.31841 0.69614 0.0
H158 H 0.84702 0.32822 0.71188 0.0
H159 H 0.08893 0.30784 0.62945 0.0
H160 H 0.52171 0.61267 0.04246 0.0
H161 H 0.72603 0.5559 0.97387 0.0
H162 H 0.65975 0.46871 0.96335 0.0
H163 H 0.49706 0.49368 0.08626 0.0
H164 H 0.38695 0.49888 0.08887 0.0
H165 H 0.44876 0.55727 0.08953 0.0
H166 H 0.36762 0.58549 0.03373 0.0
H167 H 0.30573 0.52708 0.0328 0.0
H168 H 0.36079 0.5413 0.99224 0.0
H169 H 0.5686 0.38922 0.95847 0.0
H170 H 0.46651 0.31946 0.96498 0.0
H171 H 0.32715 0.42614 0.04083 0.0
C172 C 0.55214 0.58187 0.02509 0.0
C173 C 0.62842 0.5908 1.00865 0.0
C174 C 0.66747 0.54956 0.98667 0.0
C175 C 0.63018 0.50012 0.98042 0.0
C176 C 0.55472 0.49254 0.99695 0.0
C177 C 0.51674 0.532 1.0193 0.0
C178 C 0.43795 0.51285 0.0353 0.0
C179 C 0.44303 0.51584 0.07749 0.0
C180 C 0.36364 0.54351 0.02275 0.0
C181 C 0.43717 0.45656 1.01819 0.0
C182 C 0.50449 0.44587 0.99577 0.0
C183 C 0.51598 0.39696 0.97617 0.0
C184 C 0.45754 0.35772 0.97992 0.0
C185 C 0.38937 0.36745 1.00356 0.0
C186 C 0.37915 0.41755 0.02285 0.0
H187 H 0.3708 0.57508 0.48902 0.0
H188 H 0.42931 0.65155 0.59742 0.0
H189 H 0.5242 0.57956 0.60764 0.0
H190 H 0.37419 0.44281 0.51407 0.0
H191 H 0.41995 0.41588 0.47146 0.0
H192 H 0.35671 0.47364 0.4725 0.0
H193 H 0.47557 0.52376 0.44451 0.0
H194 H 0.53927 0.46619 0.44351 0.0
H195 H 0.57418 0.5274 0.46703 0.0
H196 H 0.61254 0.49955 0.60634 0.0
H197 H 0.68676 0.41586 0.59401 0.0
H198 H 0.57123 0.39118 0.48645 0.0
C199 C 0.40344 0.57673 0.51494 0.0
C200 C 0.39246 0.61908 0.5424 0.0
C201 C 0.43652 0.61961 0.57592 0.0
C202 C 0.49071 0.5789 0.58201 0.0
C203 C 0.50028 0.53792 0.55434 0.0
C204 C 0.45784 0.53641 0.5215 0.0
C205 C 0.47911 0.48764 0.49638 0.0
C206 C 0.40295 0.45294 0.48813 0.0
C207 C 0.51944 0.50214 0.46075 0.0
C208 C 0.53996 0.46193 0.52031 0.0
C209 C 0.55137 0.49167 0.55359 0.0
C210 C 0.60419 0.47591 0.58037 0.0
C211 C 0.64613 0.42828 0.57306 0.0
C212 C 0.635 0.39688 0.53923 0.0
C213 C 0.58138 0.41428 0.51252 0.0
H214 H 0.1359 0.05761 0.99538 0.0
H215 H 0.00904 0.15872 0.07925 0.0
H216 H 0.91435 0.08635 0.08939 0.0
H217 H 0.9546 0.99481 0.9567 0.0
H218 H 0.00196 0.93139 0.94692 0.0
H219 H 0.06311 0.99007 0.9476 0.0
H220 H 0.15981 0.95549 0.99609 0.0
H221 H 0.0991 0.89661 0.99547 0.0
H222 H 0.11737 0.93629 0.03825 0.0
H223 H 0.83399 0.00361 0.09068 0.0
H224 H 0.76832 0.91653 0.08105 0.0
H225 H 0.94208 0.87002 0.99397 0.0
C226 C 0.08869 0.06421 1.01613 0.0
C227 C 0.07989 0.11356 0.0367 0.0
C228 C 0.01657 0.12118 0.06315 0.0
C229 C 0.96271 0.08031 0.06918 0.0
C230 C 0.97238 0.03228 0.04822 0.0
C231 C 0.03332 0.02405 0.02204 0.0
C232 C 0.02772 0.96933 1.00213 0.0
C233 C 0.01083 0.97156 0.9609 0.0
C234 C 0.10563 0.93756 1.00838 0.0
C235 C 0.95435 0.94812 0.02133 0.0
C236 C 0.92388 0.98498 0.04802 0.0
C237 C 0.85708 0.97443 0.06979 0.0
C238 C 0.82028 0.92482 0.06414 0.0
C239 C 0.84981 0.88657 0.03666 0.0
C240 C 0.91767 0.89859 1.01497 0.0
H241 H 0.97104 0.1236 0.52664 0.0
H242 H 0.73002 0.0588 0.49884 0.0
H243 H 0.78794 0.96946 0.49465 0.0
H244 H 0.08809 0.02983 0.46725 0.0
H245 H 0.17099 0.02669 0.49965 0.0
H246 H 0.11131 0.08585 0.49947 0.0
H247 H 0.07805 0.08261 0.5685 0.0
H248 H 0.13762 0.02348 0.5689 0.0
H249 H 0.03204 0.02436 0.58347 0.0
H250 H 0.87056 0.88767 0.49417 0.0
H251 H 0.97199 0.81767 0.49872 0.0
H252 H 0.16028 0.93482 0.52771 0.0
C253 C 0.93049 0.09065 0.51944 0.0
C254 C 0.84595 0.0982 0.51296 0.0
C255 C 0.79489 0.05401 0.50397 0.0
C256 C 0.82725 0.00311 0.50143 0.0
C257 C 0.91068 -0.00294 0.50809 0.0
C258 C 0.96167 0.03951 0.517 0.0
C259 C 0.04874 0.02194 0.52378 0.0
C260 C 0.10828 0.04228 0.49586 0.0
C261 C 0.07566 0.03912 0.56352 0.0
C262 C 0.0386 0.96292 0.51734 0.0
C263 C 0.95848 0.94957 0.50819 0.0
C264 C 0.93351 0.8976 0.50129 0.0
C265 C -0.00819 0.85809 0.504 0.0
C266 C 0.07433 0.87061 0.51366 0.0
C267 C 0.09786 0.92389 0.52021 0.0
H268 H 0.37438 0.19852 0.29399 0.0
H269 H 0.63787 0.2036 0.27722 0.0
H270 H 0.61544 0.20213 0.21039 0.0
H271 H 0.32364 0.1145 0.21296 0.0
H272 H 0.23074 0.14925 0.20404 0.0
H273 H 0.26755 0.14866 0.25049 0.0
H274 H 0.26778 0.25041 0.25853 0.0
H275 H 0.23025 0.25119 0.21225 0.0
H276 H 0.32324 0.28577 0.22621 0.0
H277 H 0.5635 0.20083 0.14479 0.0
H278 H 0.48604 0.20562 0.08689 0.0
H279 H 0.25767 0.20486 0.14776 0.0
C280 C 0.4276 0.19991 0.27646 0.0
C281 C 0.50801 0.20092 0.29114 0.0
C282 C 0.57564 0.20185 0.26682 0.0
C283 C 0.56356 0.20128 0.22874 0.0
C284 C 0.48349 0.20006 0.2153 0.0
C285 C 0.41669 0.19986 0.23851 0.0
C286 C 0.33681 0.20016 0.21736 0.0
C287 C 0.28677 0.15015 0.22146 0.0
C288 C 0.28661 0.24984 0.22929 0.0
C289 C 0.36911 0.20079 0.17864 0.0
C290 C 0.45379 0.20028 0.17788 0.0
C291 C 0.49713 0.2012 0.14507 0.0
C292 C 0.45264 0.20368 0.1123 0.0
C293 C 0.36582 0.2056 0.11271 0.0
C294 C 0.324 0.20343 0.14638 0.0
H295 H 0.37176 0.78863 0.25097 0.0
H296 H 0.63269 0.81476 0.26844 0.0
H297 H 0.61158 0.81718 0.33559 0.0
H298 H 0.29641 0.86745 0.32986 0.0
H299 H 0.21686 0.82153 0.33886 0.0
H300 H 0.2523 0.82512 0.29256 0.0
H301 H 0.28531 0.72576 0.28666 0.0
H302 H 0.25016 0.72153 0.33297 0.0
H303 H 0.35193 0.69995 0.31989 0.0
H304 H 0.56058 0.81341 0.40167 0.0
H305 H 0.48562 0.80144 0.45918 0.0
H306 H 0.26071 0.77515 0.39628 0.0
C307 C 0.42485 0.79464 0.26873 0.0
C308 C 0.50391 0.80169 0.25421 0.0
C309 C 0.5712 0.81016 0.27879 0.0
C310 C 0.5599 0.81131 0.31701 0.0
C311 C 0.48103 0.80375 0.33025 0.0
C312 C 0.41486 0.79536 0.3067 0.0
C313 C 0.33704 0.78553 0.32733 0.0
C314 C 0.27184 0.82743 0.32182 0.0
C315 C 0.30416 0.72991 0.31604 0.0
C316 C 0.3692 0.79054 0.3663 0.0
C317 C 0.45234 0.80092 0.36764 0.0
C318 C 0.49536 0.80552 0.40088 0.0
C319 C 0.45225 0.79876 0.43342 0.0
C320 C 0.36711 0.78745 0.4324 0.0
C321 C 0.32555 0.78391 0.39829 0.0
H322 H 0.67701 0.73038 0.8894 0.0
H323 H 0.53206 0.84218 0.95919 0.0
H324 H 0.46174 0.86924 0.90425 0.0
H325 H 0.70428 0.81017 0.81531 0.0
H326 H 0.69601 0.75616 0.77991 0.0
H327 H 0.73414 0.74507 0.82475 0.0
H328 H 0.62237 0.67438 0.83011 0.0
H329 H 0.58373 0.68524 0.78529 0.0
H330 H 0.516 0.69104 0.82439 0.0
H331 H 0.40873 0.8854 0.84147 0.0
H332 H 0.37576 0.88854 0.77572 0.0
H333 H 0.55429 0.76585 0.74677 0.0
C334 C 0.63034 0.76048 0.89327 0.0
C335 C 0.6102 0.78409 0.92882 0.0
C336 C 0.54871 0.82338 0.93239 0.0
C337 C 0.50835 0.83906 0.90129 0.0
C338 C 0.52985 0.81504 0.86673 0.0
C339 C 0.58926 0.77649 0.86255 0.0
C340 C 0.60114 0.75703 0.82233 0.0
C341 C 0.6891 0.76777 0.80985 0.0
C342 C 0.5795 0.69845 0.81512 0.0
C343 C 0.53931 0.79083 0.80449 0.0
C344 C 0.49893 0.82406 0.83061 0.0
C345 C 0.43995 0.85953 0.8208 0.0
C346 C 0.42192 0.86121 0.78336 0.0
C347 C 0.46246 0.82755 0.75603 0.0
C348 C 0.52162 0.79173 0.76697 0.0
H349 H 0.71339 0.22704 0.65502 0.0
H350 H 0.49318 0.20391 0.58826 0.0
H351 H 0.4139 0.18821 0.64351 0.0
H352 H 0.67074 0.12787 0.71543 0.0
H353 H 0.71155 0.1655 0.75568 0.0
H354 H 0.75114 0.17516 0.71089 0.0
H355 H 0.71827 0.2743 0.72208 0.0
H356 H 0.67863 0.26503 0.76694 0.0
H357 H 0.61546 0.29502 0.73433 0.0
H358 H 0.35814 0.17454 0.70603 0.0
H359 H 0.33027 0.16374 0.77123 0.0
H360 H 0.58634 0.19544 0.79756 0.0
C361 C 0.64855 0.2185 0.65191 0.0
C362 C 0.60975 0.21659 0.61707 0.0
C363 C 0.52456 0.20562 0.61448 0.0
C364 C 0.47887 0.19664 0.64577 0.0
C365 C 0.51896 0.1989 0.6796 0.0
C366 C 0.60186 0.2096 0.6829 0.0
C367 C 0.62999 0.20985 0.72252 0.0
C368 C 0.69467 0.16703 0.72634 0.0
C369 C 0.66249 0.2643 0.73734 0.0
C370 C 0.55004 0.19729 0.74095 0.0
C371 C 0.48675 0.19118 0.71568 0.0
C372 C 0.40729 0.17907 0.72604 0.0
C373 C 0.39216 0.1727 0.76312 0.0
C374 C 0.4561 0.17841 0.78958 0.0
C375 C 0.53595 0.19122 0.77815 0.0
H376 H 0.76191 0.69264 0.15079 0.0
H377 H -0.00856 0.71891 0.09531 0.0
H378 H 0.06651 0.71168 0.15329 0.0
H379 H 0.8113 0.76597 0.23608 0.0
H380 H 0.7611 0.72143 0.26401 0.0
H381 H 0.72524 0.72736 0.21798 0.0
H382 H 0.74299 0.62721 0.20176 0.0
H383 H 0.77863 0.62089 0.24779 0.0
H384 H 0.84097 0.59724 0.20897 0.0
H385 H 0.11624 0.7057 0.21782 0.0
H386 H 0.13806 0.69593 0.28366 0.0
H387 H 0.8773 0.67109 0.29722 0.0
C388 C 0.82805 0.6965 0.15067 0.0
C389 C 0.8707 0.70631 0.11831 0.0
C390 C 0.95727 0.71116 0.11956 0.0
C391 C 0.0005 0.70727 0.15244 0.0
C392 C 0.95647 0.69819 0.18384 0.0
C393 C 0.87224 0.69241 0.1832 0.0
C394 C 0.83967 0.68289 0.22085 0.0
C395 C 0.78088 0.72704 0.23559 0.0
C396 C 0.79812 0.62884 0.21976 0.0
C397 C 0.91883 0.68444 0.24283 0.0
C398 C 0.98534 0.69367 0.22095 0.0
C399 C 0.06467 0.69818 0.23514 0.0
C400 C 0.07646 0.69288 0.2726 0.0
C401 C 0.00953 0.68278 0.29551 0.0
C402 C 0.9297 0.67833 0.28028 0.0
H403 H 0.80093 0.23692 0.38898 0.0
H404 H 0.96107 0.34287 0.4563 0.0
H405 H 0.03048 0.36646 0.40019 0.0
H406 H 0.95175 0.19037 0.32141 0.0
H407 H 0.88056 0.1879 0.28347 0.0
H408 H 0.84428 0.17871 0.3289 0.0
H409 H 0.74042 0.25445 0.32554 0.0
H410 H 0.77598 0.26376 0.28003 0.0
H411 H 0.77657 0.31798 0.31547 0.0
H412 H 0.08058 0.37992 0.33658 0.0
H413 H 0.10802 0.38212 0.27031 0.0
H414 H 0.91557 0.26722 0.24444 0.0
C415 C 0.8509 0.2649 0.39208 0.0
C416 C 0.8756 0.28793 0.42724 0.0
C417 C 0.94096 0.32462 0.4298 0.0
C418 C 0.98083 0.33825 0.39805 0.0
C419 C 0.95472 0.31489 0.3639 0.0
C420 C 0.89127 0.27897 0.36073 0.0
C421 C 0.87408 0.26018 0.32076 0.0
C422 C 0.88857 0.20076 0.31321 0.0
C423 C 0.78658 0.27499 0.30982 0.0
C424 C 0.93795 0.29113 0.30188 0.0
C425 C 0.98369 0.32252 0.32729 0.0
C426 C 0.04519 0.35548 0.31648 0.0
C427 C 0.06008 0.35664 0.27877 0.0
C428 C 0.01389 0.32494 0.25219 0.0
C429 C 0.95245 0.29149 0.26409 0.0
H430 H 0.08008 0.2611 0.74556 0.0
H431 H 0.9064 0.3892 0.76386 0.0
H432 H 0.92802 0.39066 0.83111 0.0
H433 H 0.02054 0.19417 0.82264 0.0
H434 H 0.12352 0.17402 0.83248 0.0
H435 H 0.09471 0.18397 0.78612 0.0
H436 H 0.21428 0.25013 0.78287 0.0
H437 H 0.2435 0.24005 0.82915 0.0
H438 H 0.22213 0.30538 0.81734 0.0
H439 H 0.97282 0.37888 0.89689 0.0
H440 H 0.03216 0.35239 0.95481 0.0
H441 H 0.17253 0.23088 0.89166 0.0
C442 C 0.04719 0.28986 0.76367 0.0
C443 C -0.00789 0.32537 0.74954 0.0
C444 C 0.94876 0.36157 0.77419 0.0
C445 C 0.96089 0.3628 0.81235 0.0
C446 C 0.01603 0.32728 0.82535 0.0
C447 C 0.05811 0.29134 0.80165 0.0
C448 C 0.1127 0.25661 0.82231 0.0
C449 C 0.08623 0.19878 0.81548 0.0
C450 C 0.2035 0.2635 0.81233 0.0
C451 C 0.09521 0.27877 0.86138 0.0
C452 C 0.0397 0.31964 0.86276 0.0
C453 C 0.01596 0.34669 0.89611 0.0
C454 C 0.04995 0.33145 0.92884 0.0
C455 C 0.10628 0.28927 0.92785 0.0
C456 C 0.12872 0.26281 0.89355 0.0
H457 H 0.14578 0.7691 0.65046 0.0
H458 H 0.0671 0.62155 0.59201 0.0
H459 H 0.00764 0.59523 0.64977 0.0
H460 H 0.20595 0.71727 0.73249 0.0
H461 H 0.17177 0.77354 0.76206 0.0
H462 H 0.20415 0.78119 0.71585 0.0
H463 H 0.06436 0.82382 0.70263 0.0
H464 H 0.03148 0.81635 0.74883 0.0
H465 H 0.97067 0.78915 0.71031 0.0
H466 H 0.9622 0.58412 0.71523 0.0
H467 H 0.93273 0.58972 0.78194 0.0
H468 H 0.04186 0.74491 0.79607 0.0
C469 C 0.11541 0.73137 0.64947 0.0
C470 C 0.11087 0.69745 0.61653 0.0
C471 C 0.07111 0.64829 0.61683 0.0
C472 C 0.03722 0.63303 0.64951 0.0
C473 C 0.04362 0.6674 0.68153 0.0
C474 C 0.08161 0.71562 0.68162 0.0
C475 C 0.0828 0.745 0.71964 0.0
C476 C 0.17141 0.7548 0.7333 0.0
C477 C 0.03442 0.79663 0.72038 0.0
C478 C 0.03945 0.7058 0.74115 0.0
C479 C 0.0174 0.66121 0.71879 0.0
C480 C 0.97883 0.61897 0.73289 0.0
C481 C 0.96267 0.6224 0.77079 0.0
C482 C 0.9847 0.66785 0.79408 0.0
C483 C 0.02315 0.71005 0.77885 0.0
loop_
_geom_bond_atom_site_label_1
_geom_bond_atom_site_label_2
_geom_bond_distance
_geom_bond_site_symmetry_2
_ccdc_geom_bond_type
Eu0 C9 2.828 . S
Eu0 O11 2.392 1_554 S
Eu0 O13 2.418 . S
Eu0 O18 2.373 . S
Eu0 O21 2.488 . S
Eu0 O22 2.471 . S
Eu0 O23 2.349 . S
Eu1 O10 2.373 . S
Eu1 O14 2.488 . S
Eu1 O15 2.471 . S
Eu1 O16 2.349 . S
Eu1 O19 2.392 1_556 S
Eu1 O20 2.418 . S
Eu1 C30 2.828 . S
C2 O20 1.244 . S
C2 O23 1.265 1_556 S
C3 C4 1.379 . S
C3 C7 1.373 . S
C3 C9 1.505 . S
C4 C3 1.379 . S
C4 C6 1.369 . S
C4 H32 0.930 . S
C5 C7 1.383 . S
C5 C8 1.382 . S
C5 H33 0.930 . S
C6 C4 1.369 . S
C6 C8 1.392 . S
C6 H34 0.930 . S
C7 C3 1.373 . S
C7 C5 1.383 . S
C7 H35 0.931 . S
C8 C5 1.382 . S
C8 C6 1.392 . S
C9 Eu0 2.828 . S
C9 C3 1.505 . S
C9 O21 1.249 . S
C9 O22 1.244 . S
O10 Eu1 2.373 . S
O10 C12 1.258 . S
O11 Eu0 2.392 1_556 S
O11 C12 1.242 . S
C12 O10 1.258 . S
C12 O11 1.242 . S
O13 Eu0 2.418 . S
O13 C17 1.244 . S
O14 Eu1 2.488 . S
O14 C30 1.249 . S
O15 Eu1 2.471 . S
O15 C30 1.244 . S
O16 Eu1 2.349 . S
O16 C17 1.265 1_556 S
C17 O13 1.244 . S
C17 O16 1.265 1_554 S
O18 Eu0 2.373 . S
O18 C31 1.258 . S
O19 Eu1 2.392 1_554 S
O19 C31 1.242 . S
O20 Eu1 2.418 . S
O20 C2 1.244 . S
O21 Eu0 2.488 . S
O21 C9 1.249 . S
O22 Eu0 2.471 . S
O22 C9 1.244 . S
O23 Eu0 2.349 . S
O23 C2 1.265 1_554 S
C24 C25 1.379 . S
C24 C28 1.373 . S
C24 C30 1.505 . S
C25 C24 1.379 . S
C25 C27 1.369 . S
C25 H36 0.930 . S
C26 C28 1.383 . S
C26 C29 1.382 . S
C26 H37 0.930 . S
C27 C25 1.369 . S
C27 C29 1.392 . S
C27 H38 0.930 . S
C28 C24 1.373 . S
C28 C26 1.383 . S
C28 H39 0.931 . S
C29 C26 1.382 . S
C29 C27 1.392 . S
C30 Eu1 2.828 . S
C30 O14 1.249 . S
C30 O15 1.244 . S
C30 C24 1.505 . S
C31 O18 1.258 . S
C31 O19 1.242 . S
H32 C4 0.930 . S
H33 C5 0.930 . S
H34 C6 0.930 . S
H35 C7 0.931 . S
H36 C25 0.930 . S
H37 C26 0.930 . S
H38 C27 0.930 . S
H39 C28 0.931 . S
Eu40 C49 2.828 . S
Eu40 O51 2.392 1_554 S
Eu40 O53 2.418 . S
Eu40 O58 2.373 . S
Eu40 O61 2.488 . S
Eu40 O62 2.471 . S
Eu40 O63 2.349 . S
Eu41 O50 2.373 . S
Eu41 O54 2.488 . S
Eu41 O55 2.471 . S
Eu41 O56 2.349 . S
Eu41 O59 2.392 1_556 S
Eu41 O60 2.418 . S
Eu41 C70 2.828 . S
C42 O60 1.244 . S
C42 O63 1.265 1_556 S
C43 C44 1.379 . S
C43 C47 1.373 . S
C43 C49 1.505 . S
C44 C43 1.379 . S
C44 C46 1.369 . S
C44 H72 0.930 . S
C45 C47 1.383 . S
C45 C48 1.382 . S
C45 H73 0.930 . S
C46 C44 1.369 . S
C46 C48 1.392 . S
C46 H74 0.930 . S
C47 C43 1.373 . S
C47 C45 1.383 . S
C47 H75 0.931 . S
C48 C45 1.382 . S
C48 C46 1.392 . S
C49 Eu40 2.828 . S
C49 C43 1.505 . S
C49 O61 1.249 . S
C49 O62 1.244 . S
O50 Eu41 2.373 . S
O50 C52 1.258 . S
O51 Eu40 2.392 1_556 S
O51 C52 1.242 . S
C52 O50 1.258 . S
C52 O51 1.242 . S
O53 Eu40 2.418 . S
O53 C57 1.244 . S
O54 Eu41 2.488 . S
O54 C70 1.249 . S
O55 Eu41 2.471 . S
O55 C70 1.244 . S
O56 Eu41 2.349 . S
O56 C57 1.265 1_556 S
C57 O53 1.244 . S
C57 O56 1.265 1_554 S
O58 Eu40 2.373 . S
O58 C71 1.258 . S
O59 Eu41 2.392 1_554 S
O59 C71 1.242 . S
O60 Eu41 2.418 . S
O60 C42 1.244 . S
O61 Eu40 2.488 . S
O61 C49 1.249 . S
O62 Eu40 2.471 . S
O62 C49 1.244 . S
O63 Eu40 2.349 . S
O63 C42 1.265 1_554 S
C64 C65 1.379 . S
C64 C68 1.373 . S
C64 C70 1.505 . S
C65 C64 1.379 . S
C65 C67 1.369 . S
C65 H76 0.930 . S
C66 C68 1.383 . S
C66 C69 1.382 . S
C66 H77 0.930 . S
C67 C65 1.369 . S
C67 C69 1.392 . S
C67 H78 0.930 . S
C68 C64 1.373 . S
C68 C66 1.383 . S
C68 H79 0.931 . S
C69 C66 1.382 . S
C69 C67 1.392 . S
C70 Eu41 2.828 . S
C70 O54 1.249 . S
C70 O55 1.244 . S
C70 C64 1.505 . S
C71 O58 1.258 . S
C71 O59 1.242 . S
H72 C44 0.930 . S
H73 C45 0.930 . S
H74 C46 0.930 . S
H75 C47 0.931 . S
H76 C65 0.930 . S
H77 C66 0.930 . S
H78 C67 0.930 . S
H79 C68 0.931 . S
Eu80 C89 2.828 . S
Eu80 O91 2.392 . S
Eu80 O93 2.418 . S
Eu80 O98 2.373 . S
Eu80 O101 2.488 . S
Eu80 O102 2.471 . S
Eu80 O103 2.349 . S
Eu81 O90 2.373 . S
Eu81 O94 2.488 . S
Eu81 O95 2.471 . S
Eu81 O96 2.349 . S
Eu81 O99 2.392 . S
Eu81 O100 2.418 . S
Eu81 C110 2.828 . S
C82 O100 1.244 . S
C82 O103 1.265 . S
C83 C84 1.379 . S
C83 C87 1.373 . S
C83 C89 1.505 . S
C84 C83 1.379 . S
C84 C86 1.369 . S
C84 H112 0.930 . S
C85 C87 1.383 . S
C85 C88 1.382 . S
C85 H113 0.930 . S
C86 C84 1.369 . S
C86 C88 1.392 . S
C86 H114 0.930 . S
C87 C83 1.373 . S
C87 C85 1.383 . S
C87 H115 0.931 . S
C88 C85 1.382 . S
C88 C86 1.392 . S
C89 Eu80 2.828 . S
C89 C83 1.505 . S
C89 O101 1.249 . S
C89 O102 1.244 . S
O90 Eu81 2.373 . S
O90 C92 1.258 . S
O91 Eu80 2.392 . S
O91 C92 1.242 . S
C92 O90 1.258 . S
C92 O91 1.242 . S
O93 Eu80 2.418 . S
O93 C97 1.244 . S
O94 Eu81 2.488 . S
O94 C110 1.249 . S
O95 Eu81 2.471 . S
O95 C110 1.244 . S
O96 Eu81 2.349 . S
O96 C97 1.265 . S
C97 O93 1.244 . S
C97 O96 1.265 . S
O98 Eu80 2.373 . S
O98 C111 1.258 . S
O99 Eu81 2.392 . S
O99 C111 1.242 . S
O100 Eu81 2.418 . S
O100 C82 1.244 . S
O101 Eu80 2.488 . S
O101 C89 1.249 . S
O102 Eu80 2.471 . S
O102 C89 1.244 . S
O103 Eu80 2.349 . S
O103 C82 1.265 . S
C104 C105 1.379 . S
C104 C108 1.373 . S
C104 C110 1.505 . S
C105 C104 1.379 . S
C105 C107 1.369 . S
C105 H116 0.930 . S
C106 C108 1.383 . S
C106 C109 1.382 . S
C106 H117 0.930 . S
C107 C105 1.369 . S
C107 C109 1.392 . S
C107 H118 0.930 . S
C108 C104 1.373 . S
C108 C106 1.383 . S
C108 H119 0.931 . S
C109 C106 1.382 . S
C109 C107 1.392 . S
C110 Eu81 2.828 . S
C110 O94 1.249 . S
C110 O95 1.244 . S
C110 C104 1.505 . S
C111 O98 1.258 . S
C111 O99 1.242 . S
H112 C84 0.930 . S
H113 C85 0.930 . S
H114 C86 0.930 . S
H115 C87 0.931 . S
H116 C105 0.930 . S
H117 C106 0.930 . S
H118 C107 0.930 . S
H119 C108 0.931 . S
Eu120 C129 2.828 . S
Eu120 O131 2.392 . S
Eu120 O133 2.418 . S
Eu120 O138 2.373 . S
Eu120 O141 2.488 . S
Eu120 O142 2.471 . S
Eu120 O143 2.349 . S
Eu121 O130 2.373 . S
Eu121 O134 2.488 . S
Eu121 O135 2.471 . S
Eu121 O136 2.349 . S
Eu121 O139 2.392 . S
Eu121 O140 2.418 . S
Eu121 C150 2.828 . S
C122 O140 1.244 . S
C122 O143 1.265 . S
C123 C124 1.379 . S
C123 C127 1.373 . S
C123 C129 1.505 . S
C124 C123 1.379 . S
C124 C126 1.369 . S
C124 H152 0.930 . S
C125 C127 1.383 . S
C125 C128 1.382 . S
C125 H153 0.930 . S
C126 C124 1.369 . S
C126 C128 1.392 . S
C126 H154 0.930 . S
C127 C123 1.373 . S
C127 C125 1.383 . S
C127 H155 0.931 . S
C128 C125 1.382 . S
C128 C126 1.392 . S
C129 Eu120 2.828 . S
C129 C123 1.505 . S
C129 O141 1.249 . S
C129 O142 1.244 . S
O130 Eu121 2.373 . S
O130 C132 1.258 . S
O131 Eu120 2.392 . S
O131 C132 1.242 . S
C132 O130 1.258 . S
C132 O131 1.242 . S
O133 Eu120 2.418 . S
O133 C137 1.244 . S
O134 Eu121 2.488 . S
O134 C150 1.249 . S
O135 Eu121 2.471 . S
O135 C150 1.244 . S
O136 Eu121 2.349 . S
O136 C137 1.265 . S
C137 O133 1.244 . S
C137 O136 1.265 . S
O138 Eu120 2.373 . S
O138 C151 1.258 . S
O139 Eu121 2.392 . S
O139 C151 1.242 . S
O140 Eu121 2.418 . S
O140 C122 1.244 . S
O141 Eu120 2.488 . S
O141 C129 1.249 . S
O142 Eu120 2.471 . S
O142 C129 1.244 . S
O143 Eu120 2.349 . S
O143 C122 1.265 . S
C144 C145 1.379 . S
C144 C148 1.373 . S
C144 C150 1.505 . S
C145 C144 1.379 . S
C145 C147 1.369 . S
C145 H156 0.930 . S
C146 C148 1.383 . S
C146 C149 1.382 . S
C146 H157 0.930 . S
C147 C145 1.369 . S
C147 C149 1.392 . S
C147 H158 0.930 . S
C148 C144 1.373 . S
C148 C146 1.383 . S
C148 H159 0.931 . S
C149 C146 1.382 . S
C149 C147 1.392 . S
C150 Eu121 2.828 . S
C150 O134 1.249 . S
C150 O135 1.244 . S
C150 C144 1.505 . S
C151 O138 1.258 . S
C151 O139 1.242 . S
H152 C124 0.930 . S
H153 C125 0.930 . S
H154 C126 0.930 . S
H155 C127 0.931 . S
H156 C145 0.930 . S
H157 C146 0.930 . S
H158 C147 0.930 . S
H159 C148 0.931 . S
H160 C172 0.930 . S
H161 C174 0.930 . S
H162 C175 0.930 . S
H163 C179 0.959 . S
H164 C179 0.959 . S
H165 C179 0.961 . S
H166 C180 0.960 . S
H167 C180 0.961 . S
H168 C180 0.959 . S
H169 C183 0.929 . S
H170 C184 0.931 . S
H171 C186 0.930 . S
C172 H160 0.930 . S
C172 C173 1.399 1_554 S
C172 C177 1.399 . S
C173 C172 1.399 1_556 S
C173 C174 1.376 . S
C174 H161 0.930 . S
C174 C173 1.376 . S
C174 C175 1.388 . S
C175 H162 0.930 . S
C175 C174 1.388 . S
C175 C176 1.390 . S
C176 C175 1.390 . S
C176 C177 1.394 1_556 S
C176 C182 1.465 . S
C177 C172 1.399 . S
C177 C176 1.394 1_554 S
C177 C178 1.516 . S
C178 C177 1.516 . S
C178 C179 1.502 . S
C178 C180 1.561 . S
C178 C181 1.526 . S
C179 H163 0.959 . S
C179 H164 0.959 . S
C179 H165 0.961 . S
C179 C178 1.502 . S
C180 H166 0.960 . S
C180 H167 0.961 . S
C180 H168 0.959 . S
C180 C178 1.561 . S
C181 C178 1.526 . S
C181 C182 1.396 1_554 S
C181 C186 1.390 . S
C182 C176 1.465 . S
C182 C181 1.396 1_556 S
C182 C183 1.399 . S
C183 H169 0.929 . S
C183 C182 1.399 . S
C183 C184 1.385 . S
C184 H170 0.931 . S
C184 C183 1.385 . S
C184 C185 1.389 . S
C185 C184 1.389 . S
C185 C186 1.387 1_556 S
C186 H171 0.930 . S
C186 C181 1.390 . S
C186 C185 1.387 1_554 S
H187 C199 0.930 . S
H188 C201 0.930 . S
H189 C202 0.930 . S
H190 C206 0.959 . S
H191 C206 0.959 . S
H192 C206 0.961 . S
H193 C207 0.960 . S
H194 C207 0.961 . S
H195 C207 0.959 . S
H196 C210 0.929 . S
H197 C211 0.931 . S
H198 C213 0.930 . S
C199 H187 0.930 . S
C199 C200 1.399 . S
C199 C204 1.399 . S
C200 C199 1.399 . S
C200 C201 1.376 . S
C201 H188 0.930 . S
C201 C200 1.376 . S
C201 C202 1.388 . S
C202 H189 0.930 . S
C202 C201 1.388 . S
C202 C203 1.390 . S
C203 C202 1.390 . S
C203 C204 1.394 . S
C203 C209 1.465 . S
C204 C199 1.399 . S
C204 C203 1.394 . S
C204 C205 1.516 . S
C205 C204 1.516 . S
C205 C206 1.502 . S
C205 C207 1.561 . S
C205 C208 1.526 . S
C206 H190 0.959 . S
C206 H191 0.959 . S
C206 H192 0.961 . S
C206 C205 1.502 . S
C207 H193 0.960 . S
C207 H194 0.961 . S
C207 H195 0.959 . S
C207 C205 1.561 . S
C208 C205 1.526 . S
C208 C209 1.396 . S
C208 C213 1.390 . S
C209 C203 1.465 . S
C209 C208 1.396 . S
C209 C210 1.399 . S
C210 H196 0.929 . S
C210 C209 1.399 . S
C210 C211 1.385 . S
C211 H197 0.931 . S
C211 C210 1.385 . S
C211 C212 1.389 . S
C212 C211 1.389 . S
C212 C213 1.387 . S
C213 H198 0.930 . S
C213 C208 1.390 . S
C213 C212 1.387 . S
H214 C226 0.930 . S
H215 C228 0.930 . S
H216 C229 0.930 . S
H217 C233 0.959 . S
H218 C233 0.959 1_565 S
H219 C233 0.961 . S
H220 C234 0.960 . S
H221 C234 0.961 . S
H222 C234 0.959 . S
H223 C237 0.929 . S
H224 C238 0.931 . S
H225 C240 0.930 . S
C226 H214 0.930 . S
C226 C227 1.399 1_556 S
C226 C231 1.399 . S
C227 C226 1.399 1_554 S
C227 C228 1.376 . S
C228 H215 0.930 . S
C228 C227 1.376 . S
C228 C229 1.388 . S
C229 H216 0.930 . S
C229 C228 1.388 . S
C229 C230 1.390 . S
C230 C229 1.390 . S
C230 C231 1.394 1_554 S
C230 C236 1.465 1_445 S
C231 C226 1.399 . S
C231 C230 1.394 1_556 S
C231 C232 1.516 1_545 S
C232 C231 1.516 1_565 S
C232 C233 1.502 1_465 S
C232 C234 1.561 . S
C232 C235 1.526 1_455 S
C233 H217 0.959 . S
C233 H218 0.959 1_545 S
C233 H219 0.961 . S
C233 C232 1.502 1_645 S
C234 H220 0.960 . S
C234 H221 0.961 . S
C234 H222 0.959 . S
C234 C232 1.561 . S
C235 C232 1.526 1_655 S
C235 C236 1.396 1_556 S
C235 C240 1.390 . S
C236 C230 1.465 1_665 S
C236 C235 1.396 1_554 S
C236 C237 1.399 . S
C237 H223 0.929 . S
C237 C236 1.399 . S
C237 C238 1.385 . S
C238 H224 0.931 . S
C238 C237 1.385 . S
C238 C239 1.389 . S
C239 C238 1.389 . S
C239 C240 1.387 1_554 S
C240 H225 0.930 . S
C240 C235 1.390 . S
C240 C239 1.387 1_556 S
H241 C253 0.930 . S
H242 C255 0.930 . S
H243 C256 0.930 . S
H244 C260 0.959 . S
H245 C260 0.959 . S
H246 C260 0.961 . S
H247 C261 0.960 1_545 S
H248 C261 0.961 . S
H249 C261 0.959 . S
H250 C264 0.929 . S
H251 C265 0.931 . S
H252 C267 0.930 . S
C253 H241 0.930 . S
C253 C254 1.399 . S
C253 C258 1.399 . S
C254 C253 1.399 . S
C254 C255 1.376 . S
C255 H242 0.930 . S
C255 C254 1.376 . S
C255 C256 1.388 . S
C256 H243 0.930 . S
C256 C255 1.388 . S
C256 C257 1.390 . S
C257 C256 1.390 . S
C257 C258 1.394 . S
C257 C263 1.465 1_645 S
C258 C253 1.399 . S
C258 C257 1.394 . S
C258 C259 1.516 1_655 S
C259 C258 1.516 1_455 S
C259 C260 1.502 . S
C259 C261 1.561 1_445 S
C259 C262 1.526 1_545 S
C260 H244 0.959 . S
C260 H245 0.959 . S
C260 H246 0.961 . S
C260 C259 1.502 . S
C261 H247 0.960 1_565 S
C261 H248 0.961 . S
C261 H249 0.959 . S
C261 C259 1.561 1_665 S
C262 C259 1.526 1_565 S
C262 C263 1.396 . S
C262 C267 1.390 . S
C263 C257 1.465 1_465 S
C263 C262 1.396 . S
C263 C264 1.399 . S
C264 H250 0.929 . S
C264 C263 1.399 . S
C264 C265 1.385 . S
C265 H251 0.931 . S
C265 C264 1.385 . S
C265 C266 1.389 . S
C266 C265 1.389 . S
C266 C267 1.387 . S
C267 H252 0.930 . S
C267 C262 1.390 . S
C267 C266 1.387 . S
H268 C280 0.930 . S
H269 C282 0.930 . S
H270 C283 0.930 . S
H271 C287 0.959 . S
H272 C287 0.959 . S
H273 C287 0.961 . S
H274 C288 0.960 . S
H275 C288 0.961 . S
H276 C288 0.959 . S
H277 C291 0.929 . S
H278 C292 0.931 . S
H279 C294 0.930 . S
C280 H268 0.930 . S
C280 C281 1.399 . S
C280 C285 1.399 . S
C281 C280 1.399 . S
C281 C282 1.376 . S
C282 H269 0.930 . S
C282 C281 1.376 . S
C282 C283 1.388 . S
C283 H270 0.930 . S
C283 C282 1.388 . S
C283 C284 1.390 . S
C284 C283 1.390 . S
C284 C285 1.394 . S
C284 C290 1.465 . S
C285 C280 1.399 . S
C285 C284 1.394 . S
C285 C286 1.516 . S
C286 C285 1.516 . S
C286 C287 1.502 . S
C286 C288 1.561 . S
C286 C289 1.526 . S
C287 H271 0.959 . S
C287 H272 0.959 . S
C287 H273 0.961 . S
C287 C286 1.502 . S
C288 H274 0.960 . S
C288 H275 0.961 . S
C288 H276 0.959 . S
C288 C286 1.561 . S
C289 C286 1.526 . S
C289 C290 1.396 . S
C289 C294 1.390 . S
C290 C284 1.465 . S
C290 C289 1.396 . S
C290 C291 1.399 . S
C291 H277 0.929 . S
C291 C290 1.399 . S
C291 C292 1.385 . S
C292 H278 0.931 . S
C292 C291 1.385 . S
C292 C293 1.389 . S
C293 C292 1.389 . S
C293 C294 1.387 . S
C294 H279 0.930 . S
C294 C289 1.390 . S
C294 C293 1.387 . S
H295 C307 0.930 . S
H296 C309 0.930 . S
H297 C310 0.930 . S
H298 C314 0.959 . S
H299 C314 0.959 . S
H300 C314 0.961 . S
H301 C315 0.960 . S
H302 C315 0.961 . S
H303 C315 0.959 . S
H304 C318 0.929 . S
H305 C319 0.931 . S
H306 C321 0.930 . S
C307 H295 0.930 . S
C307 C308 1.399 . S
C307 C312 1.399 . S
C308 C307 1.399 . S
C308 C309 1.376 . S
C309 H296 0.930 . S
C309 C308 1.376 . S
C309 C310 1.388 . S
C310 H297 0.930 . S
C310 C309 1.388 . S
C310 C311 1.390 . S
C311 C310 1.390 . S
C311 C312 1.394 . S
C311 C317 1.465 . S
C312 C307 1.399 . S
C312 C311 1.394 . S
C312 C313 1.516 . S
C313 C312 1.516 . S
C313 C314 1.502 . S
C313 C315 1.561 . S
C313 C316 1.526 . S
C314 H298 0.959 . S
C314 H299 0.959 . S
C314 H300 0.961 . S
C314 C313 1.502 . S
C315 H301 0.960 . S
C315 H302 0.961 . S
C315 H303 0.959 . S
C315 C313 1.561 . S
C316 C313 1.526 . S
C316 C317 1.396 . S
C316 C321 1.390 . S
C317 C311 1.465 . S
C317 C316 1.396 . S
C317 C318 1.399 . S
C318 H304 0.929 . S
C318 C317 1.399 . S
C318 C319 1.385 . S
C319 H305 0.931 . S
C319 C318 1.385 . S
C319 C320 1.389 . S
C320 C319 1.389 . S
C320 C321 1.387 . S
C321 H306 0.930 . S
C321 C316 1.390 . S
C321 C320 1.387 . S
H322 C334 0.930 . S
H323 C336 0.930 . S
H324 C337 0.930 . S
H325 C341 0.959 . S
H326 C341 0.959 . S
H327 C341 0.961 . S
H328 C342 0.960 . S
H329 C342 0.961 . S
H330 C342 0.959 . S
H331 C345 0.929 . S
H332 C346 0.931 . S
H333 C348 0.930 . S
C334 H322 0.930 . S
C334 C335 1.399 . S
C334 C339 1.399 . S
C335 C334 1.399 . S
C335 C336 1.376 . S
C336 H323 0.930 . S
C336 C335 1.376 . S
C336 C337 1.388 . S
C337 H324 0.930 . S
C337 C336 1.388 . S
C337 C338 1.390 . S
C338 C337 1.390 . S
C338 C339 1.394 . S
C338 C344 1.465 . S
C339 C334 1.399 . S
C339 C338 1.394 . S
C339 C340 1.516 . S
C340 C339 1.516 . S
C340 C341 1.502 . S
C340 C342 1.561 . S
C340 C343 1.526 . S
C341 H325 0.959 . S
C341 H326 0.959 . S
C341 H327 0.961 . S
C341 C340 1.502 . S
C342 H328 0.960 . S
C342 H329 0.961 . S
C342 H330 0.959 . S
C342 C340 1.561 . S
C343 C340 1.526 . S
C343 C344 1.396 . S
C343 C348 1.390 . S
C344 C338 1.465 . S
C344 C343 1.396 . S
C344 C345 1.399 . S
C345 H331 0.929 . S
C345 C344 1.399 . S
C345 C346 1.385 . S
C346 H332 0.931 . S
C346 C345 1.385 . S
C346 C347 1.389 . S
C347 C346 1.389 . S
C347 C348 1.387 . S
C348 H333 0.930 . S
C348 C343 1.390 . S
C348 C347 1.387 . S
H349 C361 0.930 . S
H350 C363 0.930 . S
H351 C364 0.930 . S
H352 C368 0.959 . S
H353 C368 0.959 . S
H354 C368 0.961 . S
H355 C369 0.960 . S
H356 C369 0.961 . S
H357 C369 0.959 . S
H358 C372 0.929 . S
H359 C373 0.931 . S
H360 C375 0.930 . S
C361 H349 0.930 . S
C361 C362 1.399 . S
C361 C366 1.399 . S
C362 C361 1.399 . S
C362 C363 1.376 . S
C363 H350 0.930 . S
C363 C362 1.376 . S
C363 C364 1.388 . S
C364 H351 0.930 . S
C364 C363 1.388 . S
C364 C365 1.390 . S
C365 C364 1.390 . S
C365 C366 1.394 . S
C365 C371 1.465 . S
C366 C361 1.399 . S
C366 C365 1.394 . S
C366 C367 1.516 . S
C367 C366 1.516 . S
C367 C368 1.502 . S
C367 C369 1.561 . S
C367 C370 1.526 . S
C368 H352 0.959 . S
C368 H353 0.959 . S
C368 H354 0.961 . S
C368 C367 1.502 . S
C369 H355 0.960 . S
C369 H356 0.961 . S
C369 H357 0.959 . S
C369 C367 1.561 . S
C370 C367 1.526 . S
C370 C371 1.396 . S
C370 C375 1.390 . S
C371 C365 1.465 . S
C371 C370 1.396 . S
C371 C372 1.399 . S
C372 H358 0.929 . S
C372 C371 1.399 . S
C372 C373 1.385 . S
C373 H359 0.931 . S
C373 C372 1.385 . S
C373 C374 1.389 . S
C374 C373 1.389 . S
C374 C375 1.387 . S
C375 H360 0.930 . S
C375 C370 1.390 . S
C375 C374 1.387 . S
H376 C388 0.930 . S
H377 C390 0.930 . S
H378 C391 0.930 1_455 S
H379 C395 0.959 . S
H380 C395 0.959 . S
H381 C395 0.961 . S
H382 C396 0.960 . S
H383 C396 0.961 . S
H384 C396 0.959 . S
H385 C399 0.929 . S
H386 C400 0.931 . S
H387 C402 0.930 . S
C388 H376 0.930 . S
C388 C389 1.399 . S
C388 C393 1.399 . S
C389 C388 1.399 . S
C389 C390 1.376 . S
C390 H377 0.930 . S
C390 C389 1.376 . S
C390 C391 1.388 . S
C391 H378 0.930 1_655 S
C391 C390 1.388 . S
C391 C392 1.390 . S
C392 C391 1.390 . S
C392 C393 1.394 . S
C392 C398 1.465 . S
C393 C388 1.399 . S
C393 C392 1.394 . S
C393 C394 1.516 . S
C394 C393 1.516 . S
C394 C395 1.502 . S
C394 C396 1.561 . S
C394 C397 1.526 . S
C395 H379 0.959 . S
C395 H380 0.959 . S
C395 H381 0.961 . S
C395 C394 1.502 . S
C396 H382 0.960 . S
C396 H383 0.961 . S
C396 H384 0.959 . S
C396 C394 1.561 . S
C397 C394 1.526 . S
C397 C398 1.396 . S
C397 C402 1.390 . S
C398 C392 1.465 . S
C398 C397 1.396 . S
C398 C399 1.399 1_655 S
C399 H385 0.929 . S
C399 C398 1.399 1_455 S
C399 C400 1.385 . S
C400 H386 0.931 . S
C400 C399 1.385 . S
C400 C401 1.389 1_455 S
C401 C400 1.389 1_655 S
C401 C402 1.387 . S
C402 H387 0.930 . S
C402 C397 1.390 . S
C402 C401 1.387 . S
H403 C415 0.930 . S
H404 C417 0.930 . S
H405 C418 0.930 . S
H406 C422 0.959 1_455 S
H407 C422 0.959 . S
H408 C422 0.961 . S
H409 C423 0.960 . S
H410 C423 0.961 . S
H411 C423 0.959 . S
H412 C426 0.929 . S
H413 C427 0.931 . S
H414 C429 0.930 . S
C415 H403 0.930 . S
C415 C416 1.399 . S
C415 C420 1.399 . S
C416 C415 1.399 . S
C416 C417 1.376 . S
C417 H404 0.930 . S
C417 C416 1.376 . S
C417 C418 1.388 . S
C418 H405 0.930 . S
C418 C417 1.388 . S
C418 C419 1.390 . S
C419 C418 1.390 . S
C419 C420 1.394 . S
C419 C425 1.465 . S
C420 C415 1.399 . S
C420 C419 1.394 . S
C420 C421 1.516 . S
C421 C420 1.516 . S
C421 C422 1.502 . S
C421 C423 1.561 . S
C421 C424 1.526 . S
C422 H406 0.959 1_655 S
C422 H407 0.959 . S
C422 H408 0.961 . S
C422 C421 1.502 . S
C423 H409 0.960 . S
C423 H410 0.961 . S
C423 H411 0.959 . S
C423 C421 1.561 . S
C424 C421 1.526 . S
C424 C425 1.396 . S
C424 C429 1.390 . S
C425 C419 1.465 . S
C425 C424 1.396 . S
C425 C426 1.399 . S
C426 H412 0.929 . S
C426 C425 1.399 . S
C426 C427 1.385 . S
C427 H413 0.931 . S
C427 C426 1.385 . S
C427 C428 1.389 . S
C428 C427 1.389 . S
C428 C429 1.387 . S
C429 H414 0.930 . S
C429 C424 1.390 . S
C429 C428 1.387 . S
H430 C442 0.930 . S
H431 C444 0.930 . S
H432 C445 0.931 . S
H433 C449 0.959 . S
H434 C449 0.959 . S
H435 C449 0.961 . S
H436 C450 0.960 . S
H437 C450 0.961 . S
H438 C450 0.959 . S
H439 C453 0.929 . S
H440 C454 0.931 . S
H441 C456 0.930 . S
C442 H430 0.930 . S
C442 C443 1.399 . S
C442 C447 1.399 . S
C443 C442 1.399 . S
C443 C444 1.376 1_455 S
C444 H431 0.930 . S
C444 C443 1.376 1_655 S
C444 C445 1.389 . S
C445 H432 0.931 . S
C445 C444 1.389 . S
C445 C446 1.388 1_655 S
C446 C445 1.388 1_455 S
C446 C447 1.394 . S
C446 C452 1.465 . S
C447 C442 1.399 . S
C447 C446 1.394 . S
C447 C448 1.516 . S
C448 C447 1.516 . S
C448 C449 1.502 . S
C448 C450 1.561 . S
C448 C451 1.526 . S
C449 H433 0.959 . S
C449 H434 0.959 . S
C449 H435 0.961 . S
C449 C448 1.502 . S
C450 H436 0.960 . S
C450 H437 0.961 . S
C450 H438 0.959 . S
C450 C448 1.561 . S
C451 C448 1.526 . S
C451 C452 1.396 . S
C451 C456 1.390 . S
C452 C446 1.465 . S
C452 C451 1.396 . S
C452 C453 1.399 . S
C453 H439 0.929 . S
C453 C452 1.399 . S
C453 C454 1.385 . S
C454 H440 0.931 . S
C454 C453 1.385 . S
C454 C455 1.389 . S
C455 C454 1.389 . S
C455 C456 1.387 . S
C456 H441 0.930 . S
C456 C451 1.390 . S
C456 C455 1.387 . S
H457 C469 0.930 . S
H458 C471 0.930 . S
H459 C472 0.930 . S
H460 C476 0.959 . S
H461 C476 0.959 . S
H462 C476 0.961 . S
H463 C477 0.960 . S
H464 C477 0.961 . S
H465 C477 0.959 1_655 S
H466 C480 0.930 1_655 S
H467 C481 0.931 . S
H468 C483 0.930 . S
C469 H457 0.930 . S
C469 C470 1.399 . S
C469 C474 1.399 . S
C470 C469 1.399 . S
C470 C471 1.376 . S
C471 H458 0.930 . S
C471 C470 1.376 . S
C471 C472 1.388 . S
C472 H459 0.930 . S
C472 C471 1.388 . S
C472 C473 1.390 . S
C473 C472 1.390 . S
C473 C474 1.394 . S
C473 C479 1.465 . S
C474 C469 1.399 . S
C474 C473 1.394 . S
C474 C475 1.516 . S
C475 C474 1.516 . S
C475 C476 1.502 . S
C475 C477 1.561 . S
C475 C478 1.526 . S
C476 H460 0.959 . S
C476 H461 0.959 . S
C476 H462 0.961 . S
C476 C475 1.502 . S
C477 H463 0.960 . S
C477 H464 0.961 . S
C477 H465 0.959 1_455 S
C477 C475 1.561 . S
C478 C475 1.526 . S
C478 C479 1.396 . S
C478 C483 1.390 . S
C479 C473 1.465 . S
C479 C478 1.396 . S
C479 C480 1.399 . S
C480 H466 0.930 1_455 S
C480 C479 1.399 . S
C480 C481 1.385 1_455 S
C481 H467 0.931 . S
C481 C480 1.385 1_655 S
C481 C482 1.389 1_655 S
C482 C481 1.389 1_455 S
C482 C483 1.387 . S
C483 H468 0.930 . S
C483 C478 1.390 . S
C483 C482 1.387 . S
C173 C42 1.500 . S
C185 C17 1.522 1_556 S
C200 C97 1.529 . S
C212 C122 1.489 . S
C227 C2 1.517 1_554 S
C239 C57 1.495 . S
C254 C137 1.488 . S
C266 C82 1.528 . S
C281 C128 1.290 . S
C293 C31 1.289 . S
C308 C48 1.300 . S
C320 C111 1.303 . S
C335 C52 1.285 . S
C347 C109 1.297 . S
C362 C132 1.305 . S
C374 C29 1.302 . S
C389 C71 1.306 . S
C401 C88 1.292 1_655 S
C416 C151 1.292 . S
C428 C8 1.305 1_655 S
C443 C149 1.288 1_455 S
C455 C12 1.299 . S
C470 C92 1.304 . S
C482 C69 1.303 1_455 S
