# Generated by pormake.
# Topology qtz-x, (6)-cn, num edge types: 1
# Building blocks:
#     Node 0, Type 0, BuildingBlock: BETFEN_clean_sbu_0, # of connection points: 6
#     Node 1, Type 0, BuildingBlock: BETFEN_clean_sbu_0, # of connection points: 6
#     Node 2, Type 0, BuildingBlock: BETFEN_clean_sbu_0, # of connection points: 6
#     Edge 3, Type (0, 0), BuildingBlock: MIFKUJ_clean_linker_0, # of connection points: 2
#     Edge 4, Type (0, 0), BuildingBlock: MIFKUJ_clean_linker_0, # of connection points: 2
#     Edge 5, Type (0, 0), BuildingBlock: MIFKUJ_clean_linker_0, # of connection points: 2
#     Edge 6, Type (0, 0), BuildingBlock: MIFKUJ_clean_linker_0, # of connection points: 2
#     Edge 7, Type (0, 0), BuildingBlock: MIFKUJ_clean_linker_0, # of connection points: 2
#     Edge 8, Type (0, 0), BuildingBlock: MIFKUJ_clean_linker_0, # of connection points: 2
#     Edge 9, Type (0, 0), BuildingBlock: MIFKUJ_clean_linker_0, # of connection points: 2
#     Edge 10, Type (0, 0), BuildingBlock: MIFKUJ_clean_linker_0, # of connection points: 2
#     Edge 11, Type (0, 0), BuildingBlock: MIFKUJ_clean_linker_0, # of connection points: 2
# Relax obj value: 0.177
# Max RMSD: 0.236
# Mean RMSD: 0.219
data_MOF--net-qtz-x--node1-BETFEN_clean_sbu_0--edge1-MIFKUJ_clean_linker_0
_symmetry_space_group_name_H-M    P1
_symmetry_Int_Tables_number       1
_symmetry_cell_setting            triclinic
loop_
_symmetry_equiv_pos_as_xyz
'x, y, z'
_cell_length_a     19.297084
_cell_length_b     19.214299
_cell_length_c     66.477881
_cell_angle_alpha  73.401905
_cell_angle_beta   109.63544
_cell_angle_gamma 121.06491
loop_
_atom_site_label
_atom_site_type_symbol
_atom_site_fract_x
_atom_site_fract_y
_atom_site_fract_z
_atom_type_partial_charge
Pr0 Pr 0.96385 0.57859 0.18486 0.0
Pr1 Pr 0.1323 0.69818 0.17633 0.0
C2 C 0.84242 0.4556 0.20393 0.0
C3 C 0.83264 0.43091 0.22659 0.0
C4 C 0.78869 0.4561 0.2335 0.0
C5 C 0.78284 0.4364 0.25505 0.0
C6 C 0.82033 0.39046 0.27028 0.0
C7 C 0.86353 0.3645 0.26329 0.0
C8 C 0.8695 0.38432 0.24176 0.0
C9 C 0.99486 0.74149 0.17737 0.0
C10 C 0.12583 0.65296 0.22623 0.0
C11 C 0.26063 0.81853 0.15925 0.0
C12 C 0.29048 0.83141 0.14003 0.0
C13 C 0.3117 0.77566 0.13711 0.0
C14 C 0.33689 0.78697 0.11851 0.0
C15 C 0.34088 0.85385 0.10236 0.0
C16 C 0.31933 0.90939 0.10522 0.0
C17 C 0.29479 0.89847 0.12394 0.0
C18 C 0.09912 0.53458 0.18283 0.0
C19 C 0.96914 0.62931 0.13446 0.0
O20 O 0.89905 0.44651 0.19994 0.0
O21 O 0.84004 0.52378 0.19368 0.0
O22 O 0.04649 0.71603 0.18896 0.0
O23 O 0.92392 0.68194 0.16969 0.0
O24 O 0.16596 0.71331 0.21239 0.0
O25 O 0.05448 0.58995 0.21942 0.0
O26 O 0.19042 0.82014 0.15553 0.0
O27 O 0.26741 0.7613 0.17492 0.0
O28 O 0.04862 0.56162 0.17159 0.0
O29 O 0.17042 0.59305 0.19062 0.0
O30 O 0.92538 0.56962 0.14789 0.0
O31 O 0.04309 0.68856 0.1418 0.0
H32 H 0.7595 0.49199 0.22229 0.0
H33 H 0.74991 0.45838 0.25983 0.0
H34 H 0.89203 0.32789 0.27441 0.0
H35 H 0.9035 0.36336 0.23706 0.0
H36 H 0.30809 0.72271 0.14905 0.0
H37 H 0.35184 0.74242 0.1166 0.0
H38 H 0.32222 0.96169 0.09308 0.0
H39 H 0.2785 0.94214 0.12577 0.0
Pr40 Pr 0.7503 0.13316 0.5385 0.0
Pr41 Pr 0.67405 0.96234 0.53082 0.0
C42 C 0.79642 0.27296 0.55235 0.0
C43 C 0.81759 0.29989 0.57331 0.0
C44 C 0.90103 0.33915 0.58449 0.0
C45 C 0.92126 0.36272 0.60456 0.0
C46 C 0.85852 0.34824 0.6138 0.0
C47 C 0.77517 0.31019 0.60243 0.0
C48 C 0.75491 0.28627 0.58243 0.0
C49 C 0.86481 0.09338 0.53474 0.0
C50 C 0.72585 -0.01576 0.58106 0.0
C51 C 0.61377 0.82316 0.51437 0.0
C52 C 0.57457 0.79941 0.4924 0.0
C53 C 0.49799 0.72842 0.4887 0.0
C54 C 0.45596 0.70915 0.46772 0.0
C55 C 0.48974 0.76045 0.44995 0.0
C56 C 0.56733 0.83076 0.45377 0.0
C57 C 0.60914 0.85004 0.47473 0.0
C58 C 0.56127 0.00455 0.53453 0.0
C59 C 0.71298 0.11598 0.48914 0.0
O60 O 0.71878 0.22155 0.54507 0.0
O61 O 0.84894 0.25617 0.54904 0.0
O62 O 0.81014 0.04716 0.54565 0.0
O63 O 0.86178 0.16152 0.52578 0.0
O64 O 0.7117 0.9339 0.56847 0.0
O65 O 0.73465 0.0589 0.57306 0.0
O66 O 0.69288 0.87583 0.51853 0.0
O67 O 0.57021 0.8373 0.52253 0.0
O68 O 0.61503 0.04871 0.52331 0.0
O69 O 0.56527 0.93749 0.54418 0.0
O70 O 0.71932 0.16345 0.5012 0.0
O71 O 0.70298 0.04097 0.49728 0.0
H72 H 0.95084 0.3515 0.57775 0.0
H73 H 0.98614 0.39333 0.6127 0.0
H74 H 0.72527 0.29803 0.60907 0.0
H75 H 0.69002 0.25671 0.5742 0.0
H76 H 0.46984 0.68858 0.50204 0.0
H77 H 0.3969 0.65408 0.46543 0.0
H78 H 0.59486 0.87231 0.4405 0.0
H79 H 0.66772 0.90547 0.47704 0.0
Pr80 Pr 0.71964 0.78737 0.85539 0.0
Pr81 Pr 0.85191 0.74265 0.85908 0.0
C82 C 0.59419 0.79823 0.86144 0.0
C83 C 0.57604 0.81183 0.8795 0.0
C84 C 0.63788 0.87056 0.89303 0.0
C85 C 0.61998 0.88179 0.91025 0.0
C86 C 0.54006 0.834 0.91449 0.0
C87 C 0.47852 0.77491 0.90093 0.0
C88 C 0.49633 0.76416 0.88361 0.0
C89 C 0.87719 0.92157 0.85605 0.0
C90 C 0.82001 0.73295 0.90403 0.0
C91 C 0.97836 0.72903 0.855 0.0
C92 C 0.99331 0.70585 0.8381 0.0
C93 C 1.00251 0.63479 0.84236 0.0
C94 C 1.00675 0.6065 0.82584 0.0
C95 C 1.00228 0.64908 0.80475 0.0
C96 C 0.99714 0.72241 0.80079 0.0
C97 C 0.99241 0.75036 0.81725 0.0
C98 C 0.69364 0.6092 0.85828 0.0
C99 C 0.75103 0.79287 0.80972 0.0
O100 O 0.59371 0.72829 0.86345 0.0
O101 O 0.65445 0.86012 0.85303 0.0
O102 O 0.86235 0.85425 0.86832 0.0
O103 O 0.80962 0.92216 0.84337 0.0
O104 O 0.88087 0.75372 0.89522 0.0
O105 O 0.74861 0.72994 0.89198 0.0
O106 O 0.9763 0.79893 0.85075 0.0
O107 O 0.92082 0.67013 0.86485 0.0
O108 O 0.7093 0.67649 0.84599 0.0
O109 O 0.76075 0.60809 0.87115 0.0
O110 O 0.69402 0.78342 0.81852 0.0
O111 O 0.81933 0.78888 0.82189 0.0
H112 H 0.7002 0.90778 0.89035 0.0
H113 H 0.6688 0.92838 0.92016 0.0
H114 H 0.41679 0.73577 0.9039 0.0
H115 H 0.44789 0.71797 0.87352 0.0
H116 H 1.00344 0.59949 0.85831 0.0
H117 H 1.00999 0.54947 0.82943 0.0
H118 H 0.99521 0.75758 0.78484 0.0
H119 H 0.98578 0.80563 0.81344 0.0
H120 H 0.1352 0.87167 0.19469 0.0
H121 H 0.1521 0.00701 0.19497 0.0
H122 H 0.89943 0.93472 0.15827 0.0
H123 H 0.88209 0.79946 0.15804 0.0
H124 H 0.13831 0.12911 0.16256 0.0
H125 H 0.81522 0.01749 0.17651 0.0
H126 H 0.70736 0.89422 0.19289 0.0
H127 H 0.89298 0.82705 0.23583 0.0
H128 H 1.00202 0.95045 0.21992 0.0
H129 H 0.95733 0.40709 0.16489 0.0
H130 H 0.93827 0.27234 0.1631 0.0
H131 H 0.19151 0.34032 0.1988 0.0
H132 H 0.21096 0.47494 0.20055 0.0
H133 H 0.95031 0.14815 0.19416 0.0
H134 H 0.27309 0.26063 0.1787 0.0
H135 H 0.37836 0.38397 0.16153 0.0
H136 H 0.18957 0.44973 0.12031 0.0
H137 H 0.08308 0.32625 0.13699 0.0
C138 C 0.08343 0.88485 0.18661 0.0
C139 C 1.0071 0.82482 0.1765 0.0
C140 C 0.09322 0.96222 0.18673 0.0
C141 C 0.02671 0.98066 0.17689 0.0
C142 C 0.95121 0.92147 0.16625 0.0
C143 C 0.94147 0.84429 0.16608 0.0
C144 C 0.03562 0.06107 0.17811 0.0
C145 C 0.09793 0.13334 0.16972 0.0
C146 C 0.98146 0.06655 0.18693 0.0
C147 C 0.91659 -0.00724 0.19685 0.0
C148 C 0.83301 0.97656 0.1895 0.0
C149 C 0.77168 0.90665 0.1987 0.0
C150 C 0.79327 0.85269 0.21533 0.0
C151 C 0.8763 0.86871 0.22288 0.0
C152 C 0.93787 0.93858 0.21376 0.0
C153 C 1.00877 0.39307 0.17242 0.0
C154 C 0.0858 0.45165 0.18274 0.0
C155 C 0.99777 0.31608 0.17142 0.0
C156 C 0.06377 0.29662 0.18056 0.0
C157 C 0.1401 0.35443 0.19133 0.0
C158 C 0.15103 0.4312 0.1924 0.0
C159 C 0.0533 0.21623 0.17872 0.0
C160 C 0.99067 0.14397 0.18698 0.0
C161 C 0.10681 0.21076 0.16965 0.0
C162 C 0.17029 0.28459 0.15928 0.0
C163 C 0.25402 0.30124 0.16591 0.0
C164 C 0.3139 0.37121 0.15627 0.0
C165 C 0.29072 0.4248 0.1399 0.0
C166 C 0.20752 0.40836 0.13306 0.0
C167 C 0.1474 0.33844 0.14262 0.0
H168 H 0.33719 0.47896 0.13248 0.0
H169 H 0.74568 0.79856 0.22241 0.0
H170 H 0.45877 0.92526 0.56203 0.0
H171 H 0.34181 0.94202 0.56194 0.0
H172 H 0.3935 0.13407 0.50772 0.0
H173 H 0.51307 0.11888 0.50816 0.0
H174 H 0.35215 0.17257 0.5361 0.0
H175 H 0.23547 0.93589 0.50132 0.0
H176 H 0.21263 0.80075 0.49786 0.0
H177 H 0.11308 0.6932 0.55446 0.0
H178 H 0.13639 0.82798 0.55843 0.0
H179 H 0.96755 0.17487 0.50729 0.0
H180 H 0.08482 0.15916 0.50706 0.0
H181 H 0.03343 0.96493 0.56082 0.0
H182 H 0.91357 0.97899 0.56066 0.0
H183 H 0.07465 0.92784 0.53243 0.0
H184 H 0.1919 0.16428 0.56739 0.0
H185 H 0.21494 0.29935 0.57098 0.0
H186 H 0.3136 0.40726 0.51423 0.0
H187 H 0.29008 0.27256 0.51013 0.0
C188 C 0.44551 0.97134 0.55011 0.0
C189 C 0.49438 0.02016 0.53492 0.0
C190 C 0.37829 0.98056 0.55002 0.0
C191 C 0.3574 0.03784 0.53449 0.0
C192 C 0.40799 0.08893 0.51975 0.0
C193 C 0.47615 0.08025 0.51998 0.0
C194 C 0.28233 0.04342 0.53366 0.0
C195 C 0.29126 0.11932 0.53497 0.0
C196 C 0.20309 0.97348 0.53274 0.0
C197 C 0.18833 0.8922 0.53027 0.0
C198 C 0.2092 0.88353 0.5131 0.0
C199 C 0.19611 0.80698 0.51104 0.0
C200 C 0.16159 0.73847 0.52595 0.0
C201 C 0.13987 0.74634 0.54293 0.0
C202 C 0.15293 0.82277 0.54508 0.0
C203 C 0.98103 0.12858 0.51904 0.0
C204 C 0.9321 0.07874 0.53417 0.0
C205 C 0.04841 0.11996 0.51896 0.0
C206 C 0.06944 0.06231 0.53427 0.0
C207 C 0.01885 0.01035 0.54896 0.0
C208 C 0.9505 0.01837 0.54888 0.0
C209 C 0.14445 0.05698 0.53491 0.0
C210 C 0.13553 0.98111 0.53356 0.0
C211 C 0.2237 0.12695 0.5358 0.0
C212 C 0.23856 0.20817 0.53835 0.0
C213 C 0.21801 0.21671 0.5556 0.0
C214 C 0.23122 0.29321 0.55774 0.0
C215 C 0.26554 0.3618 0.54282 0.0
C216 C 0.28695 0.35407 0.52577 0.0
C217 C 0.27377 0.27767 0.52354 0.0
H218 H 0.27569 0.42097 0.5445 0.0
H219 H 0.15153 0.67927 0.52433 0.0
H220 H 0.02328 0.93939 0.88481 0.0
H221 H 0.16114 0.05839 0.88543 0.0
H222 H 0.05727 0.18111 0.82835 0.0
H223 H 0.91937 0.06366 0.82812 0.0
H224 H 0.25678 0.12552 0.85796 0.0
H225 H 0.16722 0.38793 0.82713 0.0
H226 H 0.0589 0.41952 0.82746 0.0
H227 H 1.01642 0.25261 0.88609 0.0
H228 H 0.12518 0.22079 0.88625 0.0
H229 H 0.54863 0.59466 0.82955 0.0
H230 H 0.40948 0.4777 0.8287 0.0
H231 H 0.50949 0.35118 0.88562 0.0
H232 H 0.64871 0.4668 0.88614 0.0
H233 H 0.31131 0.40956 0.85555 0.0
H234 H 0.40162 0.14599 0.88521 0.0
H235 H 0.50899 0.11549 0.88358 0.0
H236 H 0.54813 0.28604 0.82539 0.0
H237 H 0.44021 0.31667 0.8265 0.0
C238 C 0.02996 -0.00794 0.87251 0.0
C239 C 0.96065 -0.00733 0.85652 0.0
C240 C 0.10871 0.05993 0.87283 0.0
C241 C 0.11958 0.12944 0.85714 0.0
C242 C 0.05038 0.12927 0.84095 0.0
C243 C 0.97161 0.06186 0.84076 0.0
C244 C 0.20361 0.20106 0.85738 0.0
C245 C 0.26893 0.18746 0.85778 0.0
C246 C 0.21905 0.28242 0.85637 0.0
C247 C 0.15381 0.30137 0.85657 0.0
C248 C 0.13495 0.35816 0.84013 0.0
C249 C 0.07345 0.3761 0.84022 0.0
C250 C 0.03065 0.33792 0.85675 0.0
C251 C 0.04942 0.2819 0.87325 0.0
C252 C 0.1109 0.2638 0.87324 0.0
C253 C 0.54082 0.54163 0.8418 0.0
C254 C 0.60947 0.53934 0.85779 0.0
C255 C 0.46131 0.47498 0.84135 0.0
C256 C 0.44902 0.40497 0.8569 0.0
C257 C 0.51751 0.40356 0.87315 0.0
C258 C 0.59704 0.46982 0.87349 0.0
C259 C 0.36454 0.33386 0.8563 0.0
C260 C 0.29915 0.34758 0.85578 0.0
C261 C 0.34881 0.25267 0.85701 0.0
C262 C 0.41344 0.23425 0.85609 0.0
C263 C 0.43296 0.17678 0.87203 0.0
C264 C 0.49394 0.15949 0.8712 0.0
C265 C 0.53556 0.19903 0.85444 0.0
C266 C 0.51608 0.25572 0.83842 0.0
C267 C 0.45509 0.27314 0.83916 0.0
H268 H 0.58278 0.1856 0.85383 0.0
H269 H 0.98307 0.35188 0.8568 0.0
H270 H 0.64187 0.86771 0.95479 0.0
H271 H 0.60748 0.87528 0.98591 0.0
H272 H 0.36366 0.83672 0.94785 0.0
H273 H 0.39644 0.82668 0.91659 0.0
H274 H 0.4563 0.97198 0.97463 0.0
H275 H 0.36712 0.68247 0.97952 0.0
H276 H 0.37881 0.55785 0.98244 0.0
H277 H 0.57753 0.62503 0.03886 0.0
H278 H 0.56767 0.75055 0.03615 0.0
H279 H 0.26716 0.8884 0.06037 0.0
H280 H 0.30385 0.8949 0.02781 0.0
H281 H 0.51113 0.85224 0.06718 0.0
H282 H 0.47284 0.84303 0.09967 0.0
H283 H 0.43523 0.7586 0.03872 0.0
H284 H 0.53113 0.04442 0.03565 0.0
H285 H 0.52379 0.16916 0.03528 0.0
H286 H 0.32918 0.11897 0.97759 0.0
H287 H 0.33457 -0.00675 0.97777 0.0
C288 C 0.58062 0.86015 0.95292 0.0
C289 C 0.52123 0.8443 0.93318 0.0
C290 C 0.56121 0.86471 0.9708 0.0
C291 C 0.48278 0.85565 0.96922 0.0
C292 C 0.42436 0.8432 0.94941 0.0
C293 C 0.4431 0.83689 0.93162 0.0
C294 C 0.46187 0.85863 0.98837 0.0
C295 C 0.45065 0.92496 0.98859 0.0
C296 C 0.45739 0.7987 1.00679 0.0
C297 C 0.46702 0.72619 1.00753 0.0
C298 C 0.41413 0.67133 0.99235 0.0
C299 C 0.42008 0.60026 0.99406 0.0
C300 C 0.4784 0.58328 1.01094 0.0
C301 C 0.53204 0.63806 0.02589 0.0
C302 C 0.5263 0.70913 1.02427 0.0
C303 C 0.32131 0.88172 0.06203 0.0
C304 C 0.36688 0.86474 0.08256 0.0
C305 C 0.3425 0.88575 0.0434 0.0
C306 C 0.41081 0.87471 0.04493 0.0
C307 C 0.45781 0.86036 0.06549 0.0
C308 C 0.43588 0.85505 0.08407 0.0
C309 C 0.43049 0.87274 0.02531 0.0
C310 C 0.44126 0.80627 1.0249 0.0
C311 C 0.43646 0.93364 1.00696 0.0
C312 C 0.43266 0.00892 1.00686 0.0
C313 C 0.48625 0.05957 1.02299 0.0
C314 C 0.48255 0.13054 1.02279 0.0
C315 C 0.42589 0.15185 1.00646 0.0
C316 C 0.37294 0.10231 0.99025 0.0
C317 C 0.37633 0.03122 0.99038 0.0
H318 H 0.42317 0.20685 1.00632 0.0
H319 H 0.48199 0.52757 1.01247 0.0
H320 H 0.72078 0.26137 0.46491 0.0
H321 H 0.74708 0.3171 0.42856 0.0
H322 H 0.76755 0.10531 0.42737 0.0
H323 H 0.74022 0.04894 0.46329 0.0
H324 H 0.87865 0.35704 0.41019 0.0
H325 H 0.67511 0.04939 0.37832 0.0
H326 H 0.56338 0.91431 0.38843 0.0
H327 H 0.47449 0.02791 0.41376 0.0
H328 H 0.58476 0.16431 0.40321 0.0
H329 H 0.93898 0.38428 0.30705 0.0
H330 H 0.92543 0.34424 0.34446 0.0
H331 H 0.67448 0.3114 0.32316 0.0
H332 H 0.686 0.34704 0.28574 0.0
H333 H 0.6782 0.18821 0.35195 0.0
H334 H 0.84905 0.48341 0.3472 0.0
H335 H 0.97196 0.61375 0.33985 0.0
H336 H 0.13189 0.52601 0.38875 0.0
H337 H 1.01009 0.39453 0.39612 0.0
C338 C 0.73051 0.22651 0.45686 0.0
C339 C 0.72656 0.14973 0.46689 0.0
C340 C 0.7464 0.25888 0.43617 0.0
C341 C 0.75874 0.2152 0.42514 0.0
C342 C 0.75721 0.13976 0.43541 0.0
C343 C 0.74077 0.10718 0.45594 0.0
C344 C 0.76733 0.24509 0.40237 0.0
C345 C 0.83482 0.32047 0.3974 0.0
C346 C 0.7101 0.19746 0.38568 0.0
C347 C 0.63854 0.11688 0.39012 0.0
C348 C 0.63116 0.04561 0.38582 0.0
C349 C 0.56837 0.96871 0.39179 0.0
C350 C 0.51243 0.96228 0.40204 0.0
C351 C 0.51839 0.03293 0.40602 0.0
C352 C 0.58073 0.11008 0.39994 0.0
C353 C 0.88059 0.36778 0.31029 0.0
C354 C 0.81356 0.3689 0.29326 0.0
C355 C 0.87331 0.3459 0.33176 0.0
C356 C 0.79926 0.32572 0.33676 0.0
C357 C 0.73243 0.32698 0.3198 0.0
C358 C 0.73942 0.34822 0.29835 0.0
C359 C 0.78988 0.30071 0.35952 0.0
C360 C 0.72201 0.22568 0.36457 0.0
C361 C 0.84719 0.34885 0.37622 0.0
C362 C 0.92033 0.42878 0.3721 0.0
C363 C 0.91043 0.49172 0.35632 0.0
C364 C 0.97994 0.56582 0.35214 0.0
C365 C 0.0597 0.57813 0.36381 0.0
C366 C 0.07008 0.51648 0.37975 0.0
C367 C 1.00082 0.44211 0.38391 0.0
H368 H 0.11344 0.6354 0.36049 0.0
H369 H 0.46353 0.90281 0.40655 0.0
H370 H 0.63479 0.83146 0.77834 0.0
H371 H 0.61895 0.85655 0.73907 0.0
H372 H 0.82479 0.81141 0.74775 0.0
H373 H 0.84089 0.78637 0.78672 0.0
H374 H 0.71919 0.96891 0.71343 0.0
H375 H 0.785 0.71082 0.70615 0.0
H376 H 0.75602 0.56964 0.72358 0.0
H377 H 0.55806 0.54529 0.74535 0.0
H378 H 0.58298 0.68459 0.72731 0.0
H379 H 0.82538 0.07545 0.61383 0.0
H380 H 0.82201 0.03684 0.65193 0.0
H381 H 0.62187 0.79606 0.63907 0.0
H382 H 0.63005 0.83317 0.60114 0.0
H383 H 0.7021 0.77245 0.67489 0.0
H384 H 0.60293 0.96871 0.64654 0.0
H385 H 0.5967 0.09775 0.62901 0.0
H386 H 0.80977 0.22802 0.67685 0.0
H387 H 0.81923 0.10058 0.69423 0.0
C388 C 0.67647 0.8266 0.77188 0.0
C389 C 0.73914 0.80689 0.78579 0.0
C390 C 0.66758 0.84132 0.7494 0.0
C391 C 0.72031 0.83544 0.74033 0.0
C392 C 0.78265 0.81554 0.75423 0.0
C393 C 0.79201 0.80157 0.77661 0.0
C394 C 0.71157 0.85103 0.71643 0.0
C395 C 0.7156 0.92615 0.70495 0.0
C396 C 0.7031 0.79372 0.70513 0.0
C397 C 0.68698 0.70901 0.71567 0.0
C398 C 0.73505 0.6753 0.71457 0.0
C399 C 0.71935 0.59555 0.72458 0.0
C400 C 0.65617 0.54907 0.73583 0.0
C401 C 0.6075 0.58163 0.7368 0.0
C402 C 0.62226 0.66091 0.72664 0.0
C403 C 0.78145 0.01386 0.61922 0.0
C404 C 0.72815 0.95725 0.60449 0.0
C405 C 0.77865 -0.00798 0.64103 0.0
C406 C 0.71985 0.91405 0.64861 0.0
C407 C 0.66783 0.85672 0.6339 0.0
C408 C 0.67251 0.87783 0.61215 0.0
C409 C 0.71312 0.89249 0.67175 0.0
C410 C 0.70596 0.81584 0.68318 0.0
C411 C 0.71483 0.94712 0.68277 0.0
C412 C 0.71214 0.02494 0.67161 0.0
C413 C 0.64931 0.02508 0.65312 0.0
C414 C 0.64523 0.09802 0.64321 0.0
C415 C 0.70293 0.17104 0.6518 0.0
C416 C 0.76545 0.17154 0.67014 0.0
C417 C 0.77029 0.09899 0.68001 0.0
H418 H 0.6988 0.22712 0.64436 0.0
H419 H 0.6446 0.48771 0.74373 0.0
H420 H 0.70781 0.60439 0.92558 0.0
H421 H 0.72424 0.56391 0.96464 0.0
H422 H 0.97017 0.77017 0.97466 0.0
H423 H 0.95608 0.80632 0.93552 0.0
H424 H 0.97119 0.64674 1.0035 0.0
H425 H 0.77946 0.76503 0.97584 0.0
H426 H 0.65276 0.76089 0.94941 0.0
H427 H 0.50695 0.51772 0.97837 0.0
H428 H 0.63353 0.51863 1.00441 0.0
H429 H 0.04621 0.74577 0.10365 0.0
H430 H 1.00787 0.74387 0.06505 0.0
H431 H 0.7882 0.51309 0.07187 0.0
H432 H 0.82651 0.51415 0.11112 0.0
H433 H 0.75965 0.62295 0.03528 0.0
H434 H 0.94397 0.50919 0.06621 0.0
H435 H 0.06829 0.49687 0.08924 0.0
H436 H 0.2229 0.71484 0.05308 0.0
H437 H 0.10006 0.73116 0.03042 0.0
C438 C 0.7654 0.64077 0.93618 0.0
C439 C 0.83024 0.70919 0.92762 0.0
C440 C 0.77476 0.6178 0.95852 0.0
C441 C 0.84754 0.66533 0.97278 0.0
C442 C 0.91316 0.7326 0.96412 0.0
C443 C 0.90497 0.75368 0.94176 0.0
C444 C 0.85449 0.64785 0.99661 0.0
C445 C 0.92541 0.64249 1.01042 0.0
C446 C 0.79291 0.63844 1.00579 0.0
C447 C 0.71594 0.64198 0.99209 0.0
C448 C 0.7202 0.71112 0.97679 0.0
C449 C 0.6484 0.70931 0.96186 0.0
C450 C 0.57149 0.64 0.96254 0.0
C451 C 0.56643 0.57182 0.97804 0.0
C452 C 0.6382 0.57282 0.99287 0.0
C453 C 0.98926 0.6945 0.09711 0.0
C454 C 0.93978 0.62962 0.11066 0.0
C455 C 0.96754 0.6936 0.07492 0.0
C456 C 0.89584 0.62786 0.06555 0.0
C457 C 0.84405 0.56436 0.07878 0.0
C458 C 0.86607 0.56499 0.1012 0.0
C459 C 0.87823 0.62552 0.04207 0.0
C460 C 0.80533 0.62693 0.02837 0.0
C461 C 0.9377 0.63048 0.03298 0.0
C462 C 1.01248 0.6219 0.04672 0.0
C463 C 1.00456 0.55543 0.06336 0.0
C464 C 0.07488 0.54786 0.07639 0.0
C465 C 0.15356 0.60563 0.07275 0.0
C466 C 0.16202 0.67096 0.05604 0.0
C467 C 0.09203 0.67946 0.04311 0.0
H468 H 0.20792 0.59951 0.0828 0.0
H469 H 0.51601 0.63883 0.95094 0.0
H470 H 0.28227 0.75352 0.24718 0.0
H471 H 0.33431 0.76285 0.28577 0.0
H472 H 0.09368 0.57437 0.29684 0.0
H473 H 0.04237 0.56249 0.25839 0.0
H474 H 0.29296 0.80867 0.3107 0.0
H475 H 0.11088 0.47513 0.34816 0.0
H476 H 0.0479 0.3342 0.34017 0.0
H477 H 0.22343 0.41443 0.30202 0.0
H478 H 0.28856 0.55549 0.31016 0.0
H479 H 0.32223 0.70416 0.43217 0.0
H480 H 0.24844 0.68069 0.39473 0.0
H481 H 0.47875 0.7548 0.37924 0.0
H482 H 0.55264 0.77553 0.41671 0.0
H483 H 0.27026 0.5738 0.36875 0.0
H484 H 0.45193 0.90751 0.33121 0.0
H485 H 0.50236 0.05077 0.33541 0.0
H486 H 0.32088 0.96954 0.37178 0.0
H487 H 0.26948 0.8259 0.36778 0.0
C488 C 0.24067 0.71355 0.25785 0.0
C489 C 0.15835 0.65713 0.24971 0.0
C490 C 0.2704 0.71902 0.27994 0.0
C491 C 0.21834 0.6688 0.29436 0.0
C492 C 0.13585 0.61255 0.28622 0.0
C493 C 0.10643 0.60615 0.26416 0.0
C494 C 0.25003 0.67818 0.31771 0.0
C495 C 0.28889 0.75724 0.32332 0.0
C496 C 0.24185 0.61083 0.33435 0.0
C497 C 0.20409 0.526 0.32964 0.0
C498 C 0.13634 0.46261 0.33818 0.0
C499 C 0.10023 0.38272 0.33361 0.0
C500 C 0.13138 0.36546 0.32051 0.0
C501 C 0.19912 0.42795 0.31209 0.0
C502 C 0.23569 0.50788 0.31669 0.0
C503 C 0.35708 0.71426 0.4209 0.0
C504 C 0.44364 0.74214 0.42749 0.0
C505 C 0.31483 0.70146 0.39948 0.0
C506 C 0.35845 0.71718 0.38421 0.0
C507 C 0.44424 0.74338 0.39076 0.0
C508 C 0.48636 0.75532 0.41218 0.0
C509 C 0.31498 0.70445 0.36147 0.0
C510 C 0.27404 0.62488 0.35603 0.0
C511 C 0.32114 0.7712 0.34492 0.0
C512 C 0.35776 0.85596 0.34947 0.0
C513 C 0.42343 0.92024 0.34029 0.0
C514 C 0.45174 0.00151 0.34249 0.0
C515 C 0.41443 0.01927 0.35372 0.0
C516 C 0.34953 0.95568 0.36303 0.0
C517 C 0.32132 0.87425 0.36098 0.0
H518 H 0.43629 0.08223 0.35536 0.0
H519 H 0.10315 0.30362 0.31694 0.0
H520 H 0.90394 0.64758 0.76409 0.0
H521 H 0.89197 0.58759 0.73461 0.0
H522 H 0.07242 0.50777 0.77492 0.0
H523 H 0.08836 0.57142 0.80446 0.0
H524 H 0.09393 0.57697 0.73215 0.0
H525 H 0.88106 0.37214 0.76797 0.0
H526 H 0.7626 0.31339 0.78473 0.0
H527 H 0.61362 0.36614 0.72408 0.0
H528 H 0.73186 0.4275 0.70708 0.0
H529 H 0.97514 0.33421 0.64989 0.0
H530 H 1.00963 0.37634 0.68491 0.0
H531 H 0.82409 0.46027 0.66083 0.0
H532 H 0.79011 0.41946 0.62583 0.0
H533 H 0.8132 0.3696 0.69985 0.0
H534 H 0.03159 0.59389 0.66593 0.0
H535 H 0.14977 0.65555 0.64882 0.0
H536 H 0.28641 0.56575 0.70552 0.0
H537 H 0.16848 0.50255 0.72286 0.0
C538 C 0.94233 0.61862 0.76668 0.0
C539 C 0.99731 0.61449 0.78668 0.0
C540 C 0.93434 0.58331 0.74989 0.0
C541 C 0.97985 0.54191 0.75277 0.0
C542 C 0.03627 0.53901 0.77247 0.0
C543 C 0.04476 0.57481 0.78935 0.0
C544 C 0.96689 0.50142 0.73501 0.0
C545 C 0.03301 0.53035 0.72532 0.0
C546 C 0.88705 0.44134 0.72603 0.0
C547 C 0.81578 0.40509 0.73627 0.0
C548 C 0.8234 0.37216 0.75825 0.0
C549 C 0.7562 0.3383 0.7678 0.0
C550 C 0.68067 0.33617 0.75549 0.0
C551 C 0.67216 0.36781 0.7336 0.0
C552 C 0.73932 0.40229 0.72401 0.0
C553 C 0.9424 0.36253 0.652 0.0
C554 C 0.87992 0.3736 0.63507 0.0
C555 C 0.96205 0.38635 0.67203 0.0
C556 C 0.91972 0.42183 0.67542 0.0
C557 C 0.85721 0.4326 0.65858 0.0
C558 C 0.83767 0.409 0.6386 0.0
C559 C 0.93936 0.44749 0.69648 0.0
C560 C 0.87443 0.41533 0.70686 0.0
C561 C 0.02009 0.50475 0.70601 0.0
C562 C 0.09085 0.54262 0.69558 0.0
C563 C 0.08654 0.58665 0.67467 0.0
C564 C 0.15353 0.622 0.66494 0.0
C565 C 0.22544 0.61433 0.67605 0.0
C566 C 0.23059 0.57147 0.69692 0.0
C567 C 0.16372 0.5359 0.70671 0.0
H568 H 0.27726 0.64179 0.6685 0.0
H569 H 0.6287 0.3099 0.76291 0.0
loop_
_geom_bond_atom_site_label_1
_geom_bond_atom_site_label_2
_geom_bond_distance
_geom_bond_site_symmetry_2
_ccdc_geom_bond_type
Pr0 C2 2.880 . S
Pr0 O20 2.562 . S
Pr0 O21 2.490 . S
Pr0 O22 2.695 1_655 S
Pr0 O23 2.512 . S
Pr0 O25 2.437 1_655 S
Pr0 O28 2.436 . S
Pr0 O30 2.438 . S
Pr1 C11 2.880 . S
Pr1 O22 2.436 . S
Pr1 O24 2.438 . S
Pr1 O26 2.562 . S
Pr1 O27 2.490 . S
Pr1 O28 2.695 1_455 S
Pr1 O29 2.512 . S
Pr1 O31 2.437 1_455 S
C2 Pr0 2.880 . S
C2 C3 1.491 . S
C2 O20 1.254 . S
C2 O21 1.225 . S
C3 C2 1.491 . S
C3 C4 1.392 . S
C3 C8 1.356 . S
C4 C3 1.392 . S
C4 C5 1.368 . S
C4 H32 0.929 . S
C5 C4 1.368 . S
C5 C6 1.386 . S
C5 H33 0.929 . S
C6 C5 1.386 . S
C6 C7 1.373 . S
C7 C6 1.373 . S
C7 C8 1.409 . S
C7 H34 0.931 . S
C8 C3 1.356 . S
C8 C7 1.409 . S
C8 H35 0.930 . S
C9 O22 1.270 1_655 S
C9 O23 1.248 . S
C10 O24 1.267 . S
C10 O25 1.278 . S
C11 Pr1 2.880 . S
C11 C12 1.491 . S
C11 O26 1.254 . S
C11 O27 1.225 . S
C12 C11 1.491 . S
C12 C13 1.392 . S
C12 C17 1.356 . S
C13 C12 1.392 . S
C13 C14 1.368 . S
C13 H36 0.929 . S
C14 C13 1.368 . S
C14 C15 1.386 . S
C14 H37 0.929 . S
C15 C14 1.386 . S
C15 C16 1.373 . S
C16 C15 1.373 . S
C16 C17 1.409 . S
C16 H38 0.931 . S
C17 C12 1.356 . S
C17 C16 1.409 . S
C17 H39 0.930 . S
C18 O28 1.270 1_455 S
C18 O29 1.248 . S
C19 O30 1.267 . S
C19 O31 1.278 . S
O20 Pr0 2.562 . S
O20 C2 1.254 . S
O21 Pr0 2.490 . S
O21 C2 1.225 . S
O22 Pr0 2.695 1_455 S
O22 Pr1 2.436 . S
O22 C9 1.270 1_455 S
O23 Pr0 2.512 . S
O23 C9 1.248 . S
O24 Pr1 2.438 . S
O24 C10 1.267 . S
O25 Pr0 2.437 1_455 S
O25 C10 1.278 . S
O26 Pr1 2.562 . S
O26 C11 1.254 . S
O27 Pr1 2.490 . S
O27 C11 1.225 . S
O28 Pr0 2.436 . S
O28 Pr1 2.695 1_655 S
O28 C18 1.270 1_655 S
O29 Pr1 2.512 . S
O29 C18 1.248 . S
O30 Pr0 2.438 . S
O30 C19 1.267 . S
O31 Pr1 2.437 1_655 S
O31 C19 1.278 . S
H32 C4 0.929 . S
H33 C5 0.929 . S
H34 C7 0.931 . S
H35 C8 0.930 . S
H36 C13 0.929 . S
H37 C14 0.929 . S
H38 C16 0.931 . S
H39 C17 0.930 . S
Pr40 C42 2.880 . S
Pr40 O60 2.562 . S
Pr40 O61 2.490 . S
Pr40 O62 2.695 1_545 S
Pr40 O63 2.512 . S
Pr40 O65 2.437 . S
Pr40 O68 2.436 . S
Pr40 O70 2.438 . S
Pr41 C51 2.880 . S
Pr41 O62 2.436 . S
Pr41 O64 2.438 . S
Pr41 O66 2.562 . S
Pr41 O67 2.490 . S
Pr41 O68 2.695 1_565 S
Pr41 O69 2.512 . S
Pr41 O71 2.437 1_565 S
C42 Pr40 2.880 . S
C42 C43 1.491 . S
C42 O60 1.254 . S
C42 O61 1.225 . S
C43 C42 1.491 . S
C43 C44 1.392 . S
C43 C48 1.356 . S
C44 C43 1.392 . S
C44 C45 1.368 . S
C44 H72 0.929 . S
C45 C44 1.368 . S
C45 C46 1.386 . S
C45 H73 0.929 . S
C46 C45 1.386 . S
C46 C47 1.373 . S
C47 C46 1.373 . S
C47 C48 1.409 . S
C47 H74 0.931 . S
C48 C43 1.356 . S
C48 C47 1.409 . S
C48 H75 0.930 . S
C49 O62 1.270 1_545 S
C49 O63 1.248 . S
C50 O64 1.267 . S
C50 O65 1.278 1_565 S
C51 Pr41 2.880 . S
C51 C52 1.491 . S
C51 O66 1.254 . S
C51 O67 1.225 . S
C52 C51 1.491 . S
C52 C53 1.392 . S
C52 C57 1.356 . S
C53 C52 1.392 . S
C53 C54 1.368 . S
C53 H76 0.929 . S
C54 C53 1.368 . S
C54 C55 1.386 . S
C54 H77 0.929 . S
C55 C54 1.386 . S
C55 C56 1.373 . S
C56 C55 1.373 . S
C56 C57 1.409 . S
C56 H78 0.931 . S
C57 C52 1.356 . S
C57 C56 1.409 . S
C57 H79 0.930 . S
C58 O68 1.270 1_565 S
C58 O69 1.248 . S
C59 O70 1.267 . S
C59 O71 1.278 . S
O60 Pr40 2.562 . S
O60 C42 1.254 . S
O61 Pr40 2.490 . S
O61 C42 1.225 . S
O62 Pr40 2.695 1_565 S
O62 Pr41 2.436 . S
O62 C49 1.270 1_565 S
O63 Pr40 2.512 . S
O63 C49 1.248 . S
O64 Pr41 2.438 . S
O64 C50 1.267 . S
O65 Pr40 2.437 . S
O65 C50 1.278 1_545 S
O66 Pr41 2.562 . S
O66 C51 1.254 . S
O67 Pr41 2.490 . S
O67 C51 1.225 . S
O68 Pr40 2.436 . S
O68 Pr41 2.695 1_545 S
O68 C58 1.270 1_545 S
O69 Pr41 2.512 . S
O69 C58 1.248 . S
O70 Pr40 2.438 . S
O70 C59 1.267 . S
O71 Pr41 2.437 1_545 S
O71 C59 1.278 . S
H72 C44 0.929 . S
H73 C45 0.929 . S
H74 C47 0.931 . S
H75 C48 0.930 . S
H76 C53 0.929 . S
H77 C54 0.929 . S
H78 C56 0.931 . S
H79 C57 0.930 . S
Pr80 C82 2.880 . S
Pr80 O100 2.562 . S
Pr80 O101 2.490 . S
Pr80 O102 2.695 . S
Pr80 O103 2.512 1_565 S
Pr80 O105 2.437 . S
Pr80 O108 2.436 . S
Pr80 O110 2.438 . S
Pr81 C91 2.880 . S
Pr81 O102 2.436 . S
Pr81 O104 2.438 . S
Pr81 O106 2.562 . S
Pr81 O107 2.490 . S
Pr81 O108 2.695 . S
Pr81 O109 2.512 . S
Pr81 O111 2.437 . S
C82 Pr80 2.880 . S
C82 C83 1.491 . S
C82 O100 1.254 . S
C82 O101 1.225 . S
C83 C82 1.491 . S
C83 C84 1.392 1_565 S
C83 C88 1.356 . S
C84 C83 1.392 1_545 S
C84 C85 1.368 . S
C84 H112 0.929 . S
C85 C84 1.368 . S
C85 C86 1.386 1_545 S
C85 H113 0.929 . S
C86 C85 1.386 1_565 S
C86 C87 1.373 . S
C87 C86 1.373 . S
C87 C88 1.409 . S
C87 H114 0.931 . S
C88 C83 1.356 . S
C88 C87 1.409 . S
C88 H115 0.930 . S
C89 O102 1.270 . S
C89 O103 1.248 1_565 S
C90 O104 1.267 . S
C90 O105 1.278 . S
C91 Pr81 2.880 . S
C91 C92 1.491 . S
C91 O106 1.254 . S
C91 O107 1.225 . S
C92 C91 1.491 . S
C92 C93 1.392 . S
C92 C97 1.356 . S
C93 C92 1.392 . S
C93 C94 1.368 . S
C93 H116 0.929 . S
C94 C93 1.368 . S
C94 C95 1.386 . S
C94 H117 0.929 . S
C95 C94 1.386 . S
C95 C96 1.373 . S
C96 C95 1.373 . S
C96 C97 1.409 . S
C96 H118 0.931 1_655 S
C97 C92 1.356 . S
C97 C96 1.409 . S
C97 H119 0.930 . S
C98 O108 1.270 . S
C98 O109 1.248 . S
C99 O110 1.267 . S
C99 O111 1.278 . S
O100 Pr80 2.562 . S
O100 C82 1.254 . S
O101 Pr80 2.490 . S
O101 C82 1.225 . S
O102 Pr80 2.695 . S
O102 Pr81 2.436 . S
O102 C89 1.270 . S
O103 Pr80 2.512 1_545 S
O103 C89 1.248 1_545 S
O104 Pr81 2.438 . S
O104 C90 1.267 . S
O105 Pr80 2.437 . S
O105 C90 1.278 . S
O106 Pr81 2.562 . S
O106 C91 1.254 . S
O107 Pr81 2.490 . S
O107 C91 1.225 . S
O108 Pr80 2.436 . S
O108 Pr81 2.695 . S
O108 C98 1.270 . S
O109 Pr81 2.512 . S
O109 C98 1.248 . S
O110 Pr80 2.438 . S
O110 C99 1.267 . S
O111 Pr81 2.437 . S
O111 C99 1.278 . S
H112 C84 0.929 . S
H113 C85 0.929 . S
H114 C87 0.931 . S
H115 C88 0.930 . S
H116 C93 0.929 . S
H117 C94 0.929 . S
H118 C96 0.931 1_455 S
H119 C97 0.930 . S
H120 C138 0.951 . S
H121 C140 0.951 . S
H122 C142 0.950 1_545 S
H123 C143 0.950 . S
H124 C145 0.950 . S
H125 C148 0.950 . S
H126 C149 0.950 . S
H127 C151 0.950 . S
H128 C152 0.950 1_545 S
H129 C153 0.951 . S
H130 C155 0.951 . S
H131 C157 0.950 . S
H132 C158 0.950 . S
H133 C160 0.950 . S
H134 C163 0.950 . S
H135 C164 0.950 . S
H136 C166 0.950 . S
H137 C167 0.950 . S
C138 H120 0.951 . S
C138 C139 1.366 1_655 S
C138 C140 1.388 . S
C139 C138 1.366 1_455 S
C139 C143 1.385 . S
C140 H121 0.951 . S
C140 C138 1.388 . S
C140 C141 1.366 . S
C141 C140 1.366 . S
C141 C142 1.414 1_655 S
C141 C144 1.499 1_565 S
C142 H122 0.950 1_565 S
C142 C141 1.414 1_455 S
C142 C143 1.374 . S
C143 H123 0.950 . S
C143 C139 1.385 . S
C143 C142 1.374 . S
C144 C141 1.499 1_545 S
C144 C145 1.373 1_655 S
C144 C146 1.389 . S
C145 H124 0.950 . S
C145 C144 1.373 1_455 S
C145 C161 1.377 . S
C146 C144 1.389 . S
C146 C147 1.524 1_545 S
C146 C160 1.377 . S
C147 C146 1.524 1_565 S
C147 C148 1.397 . S
C147 C152 1.363 . S
C148 H125 0.950 . S
C148 C147 1.397 . S
C148 C149 1.334 . S
C149 H126 0.950 . S
C149 C148 1.334 . S
C149 C150 1.287 . S
C150 C149 1.287 . S
C150 C151 1.524 . S
C150 H169 0.913 . S
C151 H127 0.950 . S
C151 C150 1.524 . S
C151 C152 1.415 . S
C152 H128 0.950 1_565 S
C152 C147 1.363 . S
C152 C151 1.415 . S
C153 H129 0.951 . S
C153 C154 1.366 1_455 S
C153 C155 1.388 . S
C154 C153 1.366 1_655 S
C154 C158 1.385 . S
C155 H130 0.951 . S
C155 C153 1.388 . S
C155 C156 1.366 . S
C156 C155 1.366 . S
C156 C157 1.414 1_455 S
C156 C159 1.499 . S
C157 H131 0.950 . S
C157 C156 1.414 1_655 S
C157 C158 1.374 . S
C158 H132 0.950 . S
C158 C154 1.385 . S
C158 C157 1.374 . S
C159 C156 1.499 . S
C159 C160 1.373 1_455 S
C159 C161 1.389 . S
C160 H133 0.950 . S
C160 C146 1.377 . S
C160 C159 1.373 1_655 S
C161 C145 1.377 . S
C161 C159 1.389 . S
C161 C162 1.524 . S
C162 C161 1.524 . S
C162 C163 1.397 . S
C162 C167 1.363 . S
C163 H134 0.950 . S
C163 C162 1.397 . S
C163 C164 1.334 . S
C164 H135 0.950 . S
C164 C163 1.334 . S
C164 C165 1.287 . S
C165 C164 1.287 . S
C165 C166 1.524 . S
C165 H168 0.999 . S
C166 H136 0.950 . S
C166 C165 1.524 . S
C166 C167 1.415 . S
C167 H137 0.950 . S
C167 C162 1.363 . S
C167 C166 1.415 . S
H168 C165 0.999 . S
H169 C150 0.913 . S
H170 C188 0.951 . S
H171 C190 0.951 . S
H172 C192 0.950 . S
H173 C193 0.950 . S
H174 C195 0.950 . S
H175 C198 0.950 . S
H176 C199 0.950 . S
H177 C201 0.950 . S
H178 C202 0.950 . S
H179 C203 0.951 . S
H180 C205 0.951 . S
H181 C207 0.950 . S
H182 C208 0.950 . S
H183 C210 0.950 . S
H184 C213 0.950 . S
H185 C214 0.950 . S
H186 C216 0.950 . S
H187 C217 0.950 . S
C188 H170 0.951 . S
C188 C189 1.366 1_565 S
C188 C190 1.388 . S
C189 C188 1.366 1_545 S
C189 C193 1.385 . S
C190 H171 0.951 . S
C190 C188 1.388 . S
C190 C191 1.365 . S
C191 C190 1.365 . S
C191 C192 1.414 1_565 S
C191 C194 1.500 1_565 S
C192 H172 0.950 . S
C192 C191 1.414 1_545 S
C192 C193 1.374 . S
C193 H173 0.950 . S
C193 C189 1.385 . S
C193 C192 1.374 . S
C194 C191 1.500 1_545 S
C194 C195 1.372 . S
C194 C196 1.390 1_545 S
C195 H174 0.950 . S
C195 C194 1.372 . S
C195 C211 1.377 . S
C196 C194 1.390 1_565 S
C196 C197 1.524 . S
C196 C210 1.377 . S
C197 C196 1.524 . S
C197 C198 1.397 . S
C197 C202 1.363 . S
C198 H175 0.950 . S
C198 C197 1.397 . S
C198 C199 1.334 . S
C199 H176 0.950 . S
C199 C198 1.334 . S
C199 C200 1.287 . S
C200 C199 1.287 . S
C200 C201 1.524 . S
C200 H219 0.913 . S
C201 H177 0.950 . S
C201 C200 1.524 . S
C201 C202 1.415 . S
C202 H178 0.950 . S
C202 C197 1.363 . S
C202 C201 1.415 . S
C203 H179 0.951 . S
C203 C204 1.366 . S
C203 C205 1.388 . S
C204 C203 1.366 . S
C204 C208 1.385 1_545 S
C205 H180 0.951 . S
C205 C203 1.388 . S
C205 C206 1.366 1_655 S
C206 C205 1.366 1_455 S
C206 C207 1.414 1_545 S
C206 C209 1.499 . S
C207 H181 0.950 . S
C207 C206 1.414 1_565 S
C207 C208 1.374 1_455 S
C208 H182 0.950 . S
C208 C204 1.385 1_565 S
C208 C207 1.374 1_655 S
C209 C206 1.499 . S
C209 C210 1.373 1_545 S
C209 C211 1.389 . S
C210 H183 0.950 . S
C210 C196 1.377 . S
C210 C209 1.373 1_565 S
C211 C195 1.377 . S
C211 C209 1.389 . S
C211 C212 1.524 . S
C212 C211 1.524 . S
C212 C213 1.397 . S
C212 C217 1.363 . S
C213 H184 0.950 . S
C213 C212 1.397 . S
C213 C214 1.334 . S
C214 H185 0.950 . S
C214 C213 1.334 . S
C214 C215 1.287 . S
C215 C214 1.287 . S
C215 C216 1.524 . S
C215 H218 0.999 . S
C216 H186 0.950 . S
C216 C215 1.524 . S
C216 C217 1.415 . S
C217 H187 0.950 . S
C217 C212 1.363 . S
C217 C216 1.415 . S
H218 C215 0.999 . S
H219 C200 0.913 . S
H220 C238 0.951 1_655 S
H221 C240 0.951 . S
H222 C242 0.950 . S
H223 C243 0.950 . S
H224 C245 0.950 . S
H225 C248 0.950 . S
H226 C249 0.950 1_655 S
H227 C251 0.950 . S
H228 C252 0.950 . S
H229 C253 0.951 . S
H230 C255 0.951 . S
H231 C257 0.950 . S
H232 C258 0.950 . S
H233 C260 0.950 . S
H234 C263 0.950 . S
H235 C264 0.950 . S
H236 C266 0.950 . S
H237 C267 0.950 . S
C238 H220 0.951 1_455 S
C238 C239 1.366 1_455 S
C238 C240 1.388 . S
C239 C238 1.366 1_655 S
C239 C243 1.385 1_655 S
C240 H221 0.951 . S
C240 C238 1.388 . S
C240 C241 1.366 . S
C241 C240 1.366 . S
C241 C242 1.414 . S
C241 C244 1.499 . S
C242 H222 0.950 . S
C242 C241 1.414 . S
C242 C243 1.374 . S
C243 H223 0.950 . S
C243 C239 1.385 1_455 S
C243 C242 1.374 . S
C244 C241 1.499 . S
C244 C245 1.373 . S
C244 C246 1.389 . S
C245 H224 0.950 . S
C245 C244 1.373 . S
C245 C261 1.377 . S
C246 C244 1.389 . S
C246 C247 1.524 . S
C246 C260 1.377 . S
C247 C246 1.524 . S
C247 C248 1.397 . S
C247 C252 1.363 . S
C248 H225 0.950 . S
C248 C247 1.397 . S
C248 C249 1.334 . S
C249 H226 0.950 1_455 S
C249 C248 1.334 . S
C249 C250 1.287 . S
C250 C249 1.287 . S
C250 C251 1.524 . S
C250 H269 0.913 1_455 S
C251 H227 0.950 . S
C251 C250 1.524 . S
C251 C252 1.415 . S
C252 H228 0.950 . S
C252 C247 1.363 . S
C252 C251 1.415 . S
C253 H229 0.951 . S
C253 C254 1.366 . S
C253 C255 1.388 . S
C254 C253 1.366 . S
C254 C258 1.385 . S
C255 H230 0.951 . S
C255 C253 1.388 . S
C255 C256 1.366 . S
C256 C255 1.366 . S
C256 C257 1.414 . S
C256 C259 1.499 . S
C257 H231 0.950 . S
C257 C256 1.414 . S
C257 C258 1.374 . S
C258 H232 0.950 . S
C258 C254 1.385 . S
C258 C257 1.374 . S
C259 C256 1.499 . S
C259 C260 1.373 . S
C259 C261 1.389 . S
C260 H233 0.950 . S
C260 C246 1.377 . S
C260 C259 1.373 . S
C261 C245 1.377 . S
C261 C259 1.389 . S
C261 C262 1.524 . S
C262 C261 1.524 . S
C262 C263 1.397 . S
C262 C267 1.363 . S
C263 H234 0.950 . S
C263 C262 1.397 . S
C263 C264 1.334 . S
C264 H235 0.950 . S
C264 C263 1.334 . S
C264 C265 1.287 . S
C265 C264 1.287 . S
C265 C266 1.524 . S
C265 H268 0.999 . S
C266 H236 0.950 . S
C266 C265 1.524 . S
C266 C267 1.415 . S
C267 H237 0.950 . S
C267 C262 1.363 . S
C267 C266 1.415 . S
H268 C265 0.999 . S
H269 C250 0.913 1_655 S
H270 C288 0.951 . S
H271 C290 0.951 . S
H272 C292 0.950 . S
H273 C293 0.950 . S
H274 C295 0.950 1_545 S
H275 C298 0.950 . S
H276 C299 0.950 . S
H277 C301 0.950 . S
H278 C302 0.950 . S
H279 C303 0.951 . S
H280 C305 0.951 1_556 S
H281 C307 0.950 . S
H282 C308 0.950 . S
H283 C310 0.942 1_554 S
H284 C313 0.950 . S
H285 C314 0.950 . S
H286 C316 0.950 . S
H287 C317 0.950 . S
C288 H270 0.951 . S
C288 C289 1.366 . S
C288 C290 1.388 . S
C289 C288 1.366 . S
C289 C293 1.385 . S
C290 H271 0.951 . S
C290 C288 1.388 . S
C290 C291 1.366 . S
C291 C290 1.366 . S
C291 C292 1.414 . S
C291 C294 1.499 . S
C292 H272 0.950 . S
C292 C291 1.414 . S
C292 C293 1.374 . S
C293 H273 0.950 . S
C293 C289 1.385 . S
C293 C292 1.374 . S
C294 C291 1.499 . S
C294 C295 1.373 . S
C294 C296 1.389 . S
C295 H274 0.950 1_565 S
C295 C294 1.373 . S
C295 C311 1.377 . S
C296 C294 1.389 . S
C296 C297 1.524 . S
C296 C310 1.390 . S
C297 C296 1.524 . S
C297 C298 1.397 . S
C297 C302 1.363 1_556 S
C298 H275 0.950 . S
C298 C297 1.397 . S
C298 C299 1.334 . S
C299 H276 0.950 . S
C299 C298 1.334 . S
C299 C300 1.287 . S
C300 C299 1.287 . S
C300 C301 1.524 1_556 S
C300 H319 0.913 . S
C301 H277 0.950 . S
C301 C300 1.524 1_554 S
C301 C302 1.415 . S
C302 H278 0.950 . S
C302 C297 1.363 1_554 S
C302 C301 1.415 . S
C303 H279 0.951 . S
C303 C304 1.366 . S
C303 C305 1.388 . S
C304 C303 1.366 . S
C304 C308 1.385 . S
C305 H280 0.951 1_554 S
C305 C303 1.388 . S
C305 C306 1.366 . S
C306 C305 1.366 . S
C306 C307 1.414 . S
C306 C309 1.502 . S
C307 H281 0.950 . S
C307 C306 1.414 . S
C307 C308 1.374 . S
C308 H282 0.950 . S
C308 C304 1.385 . S
C308 C307 1.374 . S
C309 C306 1.502 . S
C309 C310 1.367 1_554 S
C309 C311 1.387 1_554 S
C310 H283 0.942 1_556 S
C310 C296 1.390 . S
C310 C309 1.367 1_556 S
C311 C295 1.377 . S
C311 C309 1.387 1_556 S
C311 C312 1.524 1_565 S
C312 C311 1.524 1_545 S
C312 C313 1.397 1_556 S
C312 C317 1.363 . S
C313 H284 0.950 . S
C313 C312 1.397 1_554 S
C313 C314 1.334 . S
C314 H285 0.950 . S
C314 C313 1.334 . S
C314 C315 1.287 1_554 S
C315 C314 1.287 1_556 S
C315 C316 1.524 . S
C315 H318 0.999 . S
C316 H286 0.950 . S
C316 C315 1.524 . S
C316 C317 1.415 . S
C317 H287 0.950 . S
C317 C312 1.363 . S
C317 C316 1.415 . S
H318 C315 0.999 . S
H319 C300 0.913 . S
H320 C338 0.951 . S
H321 C340 0.951 . S
H322 C342 0.950 . S
H323 C343 0.950 . S
H324 C345 0.950 . S
H325 C348 0.950 . S
H326 C349 0.950 . S
H327 C351 0.950 1_565 S
H328 C352 0.950 . S
H329 C353 0.951 . S
H330 C355 0.951 . S
H331 C357 0.950 . S
H332 C358 0.950 . S
H333 C360 0.950 . S
H334 C363 0.950 . S
H335 C364 0.950 . S
H336 C366 0.950 . S
H337 C367 0.950 . S
C338 H320 0.951 . S
C338 C339 1.366 . S
C338 C340 1.388 . S
C339 C338 1.366 . S
C339 C343 1.385 . S
C340 H321 0.951 . S
C340 C338 1.388 . S
C340 C341 1.366 . S
C341 C340 1.366 . S
C341 C342 1.414 . S
C341 C344 1.499 . S
C342 H322 0.950 . S
C342 C341 1.414 . S
C342 C343 1.374 . S
C343 H323 0.950 . S
C343 C339 1.385 . S
C343 C342 1.374 . S
C344 C341 1.499 . S
C344 C345 1.373 . S
C344 C346 1.389 . S
C345 H324 0.950 . S
C345 C344 1.373 . S
C345 C361 1.377 . S
C346 C344 1.389 . S
C346 C347 1.524 . S
C346 C360 1.377 . S
C347 C346 1.524 . S
C347 C348 1.397 . S
C347 C352 1.363 . S
C348 H325 0.950 . S
C348 C347 1.397 . S
C348 C349 1.334 1_545 S
C349 H326 0.950 . S
C349 C348 1.334 1_565 S
C349 C350 1.287 . S
C350 C349 1.287 . S
C350 C351 1.524 1_565 S
C350 H369 0.913 . S
C351 H327 0.950 1_545 S
C351 C350 1.524 1_545 S
C351 C352 1.415 . S
C352 H328 0.950 . S
C352 C347 1.363 . S
C352 C351 1.415 . S
C353 H329 0.951 . S
C353 C354 1.366 . S
C353 C355 1.388 . S
C354 C353 1.366 . S
C354 C358 1.385 . S
C355 H330 0.951 . S
C355 C353 1.388 . S
C355 C356 1.366 . S
C356 C355 1.366 . S
C356 C357 1.414 . S
C356 C359 1.499 . S
C357 H331 0.950 . S
C357 C356 1.414 . S
C357 C358 1.374 . S
C358 H332 0.950 . S
C358 C354 1.385 . S
C358 C357 1.374 . S
C359 C356 1.499 . S
C359 C360 1.373 . S
C359 C361 1.389 . S
C360 H333 0.950 . S
C360 C346 1.377 . S
C360 C359 1.373 . S
C361 C345 1.377 . S
C361 C359 1.389 . S
C361 C362 1.524 . S
C362 C361 1.524 . S
C362 C363 1.397 . S
C362 C367 1.363 . S
C363 H334 0.950 . S
C363 C362 1.397 . S
C363 C364 1.334 . S
C364 H335 0.950 . S
C364 C363 1.334 . S
C364 C365 1.287 . S
C365 C364 1.287 . S
C365 C366 1.524 1_655 S
C365 H368 0.999 1_655 S
C366 H336 0.950 . S
C366 C365 1.524 1_455 S
C366 C367 1.415 1_455 S
C367 H337 0.950 . S
C367 C362 1.363 . S
C367 C366 1.415 1_655 S
H368 C365 0.999 1_455 S
H369 C350 0.913 . S
H370 C388 0.951 . S
H371 C390 0.951 . S
H372 C392 0.950 . S
H373 C393 0.950 . S
H374 C395 0.950 1_545 S
H375 C398 0.950 . S
H376 C399 0.950 . S
H377 C401 0.950 . S
H378 C402 0.950 . S
H379 C403 0.951 1_545 S
H380 C405 0.954 . S
H381 C407 0.950 . S
H382 C408 0.950 . S
H383 C410 0.950 . S
H384 C413 0.950 . S
H385 C414 0.950 . S
H386 C416 0.950 . S
H387 C417 0.950 . S
C388 H370 0.951 . S
C388 C389 1.366 . S
C388 C390 1.388 . S
C389 C388 1.366 . S
C389 C393 1.385 . S
C390 H371 0.951 . S
C390 C388 1.388 . S
C390 C391 1.366 . S
C391 C390 1.366 . S
C391 C392 1.414 . S
C391 C394 1.499 . S
C392 H372 0.950 . S
C392 C391 1.414 . S
C392 C393 1.374 . S
C393 H373 0.950 . S
C393 C389 1.385 . S
C393 C392 1.374 . S
C394 C391 1.499 . S
C394 C395 1.373 . S
C394 C396 1.389 . S
C395 H374 0.950 1_565 S
C395 C394 1.373 . S
C395 C411 1.377 . S
C396 C394 1.389 . S
C396 C397 1.524 . S
C396 C410 1.377 . S
C397 C396 1.524 . S
C397 C398 1.397 . S
C397 C402 1.363 . S
C398 H375 0.950 . S
C398 C397 1.397 . S
C398 C399 1.334 . S
C399 H376 0.950 . S
C399 C398 1.334 . S
C399 C400 1.287 . S
C400 C399 1.287 . S
C400 C401 1.524 . S
C400 H419 0.913 . S
C401 H377 0.950 . S
C401 C400 1.524 . S
C401 C402 1.415 . S
C402 H378 0.950 . S
C402 C397 1.363 . S
C402 C401 1.415 . S
C403 H379 0.951 1_565 S
C403 C404 1.366 . S
C403 C405 1.388 . S
C404 C403 1.366 . S
C404 C408 1.385 . S
C405 H380 0.954 . S
C405 C403 1.388 . S
C405 C406 1.366 . S
C406 C405 1.366 . S
C406 C407 1.414 . S
C406 C409 1.499 . S
C407 H381 0.950 . S
C407 C406 1.414 . S
C407 C408 1.374 . S
C408 H382 0.950 . S
C408 C404 1.385 . S
C408 C407 1.374 . S
C409 C406 1.499 . S
C409 C410 1.373 . S
C409 C411 1.389 . S
C410 H383 0.950 . S
C410 C396 1.377 . S
C410 C409 1.373 . S
C411 C395 1.377 . S
C411 C409 1.389 . S
C411 C412 1.524 1_565 S
C412 C411 1.524 1_545 S
C412 C413 1.397 . S
C412 C417 1.363 . S
C413 H384 0.950 . S
C413 C412 1.397 . S
C413 C414 1.334 . S
C414 H385 0.950 . S
C414 C413 1.334 . S
C414 C415 1.287 . S
C415 C414 1.287 . S
C415 C416 1.524 . S
C415 H418 0.999 . S
C416 H386 0.950 . S
C416 C415 1.524 . S
C416 C417 1.415 . S
C417 H387 0.950 . S
C417 C412 1.363 . S
C417 C416 1.415 . S
H418 C415 0.999 . S
H419 C400 0.913 . S
H420 C438 0.951 . S
H421 C440 0.951 . S
H422 C442 0.950 . S
H423 C443 0.950 . S
H424 C445 0.950 . S
H425 C448 0.950 . S
H426 C449 0.950 . S
H427 C451 0.950 . S
H428 C452 0.950 . S
H429 C453 0.951 . S
H430 C455 0.951 . S
H431 C457 0.950 . S
H432 C458 0.950 . S
H433 C460 0.950 . S
H434 C463 0.950 1_655 S
H435 C464 0.950 . S
H436 C466 0.950 . S
H437 C467 0.950 . S
C438 H420 0.951 . S
C438 C439 1.366 . S
C438 C440 1.388 . S
C439 C438 1.366 . S
C439 C443 1.385 . S
C440 H421 0.951 . S
C440 C438 1.388 . S
C440 C441 1.366 . S
C441 C440 1.366 . S
C441 C442 1.414 . S
C441 C444 1.499 . S
C442 H422 0.950 . S
C442 C441 1.414 . S
C442 C443 1.374 . S
C443 H423 0.950 . S
C443 C439 1.385 . S
C443 C442 1.374 . S
C444 C441 1.499 . S
C444 C445 1.373 . S
C444 C446 1.389 . S
C445 H424 0.950 . S
C445 C444 1.373 . S
C445 C461 1.377 1_556 S
C446 C444 1.389 . S
C446 C447 1.524 . S
C446 C460 1.377 1_556 S
C447 C446 1.524 . S
C447 C448 1.397 . S
C447 C452 1.363 . S
C448 H425 0.950 . S
C448 C447 1.397 . S
C448 C449 1.334 . S
C449 H426 0.950 . S
C449 C448 1.334 . S
C449 C450 1.287 . S
C450 C449 1.287 . S
C450 C451 1.524 . S
C450 H469 0.913 . S
C451 H427 0.950 . S
C451 C450 1.524 . S
C451 C452 1.415 . S
C452 H428 0.950 . S
C452 C447 1.363 . S
C452 C451 1.415 . S
C453 H429 0.951 . S
C453 C454 1.366 . S
C453 C455 1.388 . S
C454 C453 1.366 . S
C454 C458 1.385 . S
C455 H430 0.951 . S
C455 C453 1.388 . S
C455 C456 1.366 . S
C456 C455 1.366 . S
C456 C457 1.414 . S
C456 C459 1.499 . S
C457 H431 0.950 . S
C457 C456 1.414 . S
C457 C458 1.374 . S
C458 H432 0.950 . S
C458 C454 1.385 . S
C458 C457 1.374 . S
C459 C456 1.499 . S
C459 C460 1.373 . S
C459 C461 1.389 . S
C460 H433 0.950 . S
C460 C446 1.377 1_554 S
C460 C459 1.373 . S
C461 C445 1.377 1_554 S
C461 C459 1.389 . S
C461 C462 1.524 1_655 S
C462 C461 1.524 1_455 S
C462 C463 1.397 . S
C462 C467 1.363 . S
C463 H434 0.950 1_455 S
C463 C462 1.397 . S
C463 C464 1.334 . S
C464 H435 0.950 . S
C464 C463 1.334 . S
C464 C465 1.287 . S
C465 C464 1.287 . S
C465 C466 1.524 . S
C465 H468 0.999 . S
C466 H436 0.950 . S
C466 C465 1.524 . S
C466 C467 1.415 . S
C467 H437 0.950 . S
C467 C462 1.363 . S
C467 C466 1.415 . S
H468 C465 0.999 . S
H469 C450 0.913 . S
H470 C488 0.951 . S
H471 C490 0.951 . S
H472 C492 0.950 . S
H473 C493 0.950 . S
H474 C495 0.950 . S
H475 C498 0.950 . S
H476 C499 0.950 . S
H477 C501 0.950 . S
H478 C502 0.950 . S
H479 C503 0.951 . S
H480 C505 0.951 . S
H481 C507 0.950 . S
H482 C508 0.950 . S
H483 C510 0.950 . S
H484 C513 0.950 . S
H485 C514 0.950 . S
H486 C516 0.950 1_545 S
H487 C517 0.950 . S
C488 H470 0.951 . S
C488 C489 1.366 . S
C488 C490 1.388 . S
C489 C488 1.366 . S
C489 C493 1.385 . S
C490 H471 0.951 . S
C490 C488 1.388 . S
C490 C491 1.366 . S
C491 C490 1.366 . S
C491 C492 1.414 . S
C491 C494 1.499 . S
C492 H472 0.950 . S
C492 C491 1.414 . S
C492 C493 1.374 . S
C493 H473 0.950 . S
C493 C489 1.385 . S
C493 C492 1.374 . S
C494 C491 1.499 . S
C494 C495 1.373 . S
C494 C496 1.389 . S
C495 H474 0.950 . S
C495 C494 1.373 . S
C495 C511 1.377 . S
C496 C494 1.389 . S
C496 C497 1.524 . S
C496 C510 1.377 . S
C497 C496 1.524 . S
C497 C498 1.397 . S
C497 C502 1.363 . S
C498 H475 0.950 . S
C498 C497 1.397 . S
C498 C499 1.334 . S
C499 H476 0.950 . S
C499 C498 1.334 . S
C499 C500 1.287 . S
C500 C499 1.287 . S
C500 C501 1.524 . S
C500 H519 0.913 . S
C501 H477 0.950 . S
C501 C500 1.524 . S
C501 C502 1.415 . S
C502 H478 0.950 . S
C502 C497 1.363 . S
C502 C501 1.415 . S
C503 H479 0.951 . S
C503 C504 1.366 . S
C503 C505 1.388 . S
C504 C503 1.366 . S
C504 C508 1.385 . S
C505 H480 0.951 . S
C505 C503 1.388 . S
C505 C506 1.366 . S
C506 C505 1.366 . S
C506 C507 1.414 . S
C506 C509 1.499 . S
C507 H481 0.950 . S
C507 C506 1.414 . S
C507 C508 1.374 . S
C508 H482 0.950 . S
C508 C504 1.385 . S
C508 C507 1.374 . S
C509 C506 1.499 . S
C509 C510 1.373 . S
C509 C511 1.389 . S
C510 H483 0.950 . S
C510 C496 1.377 . S
C510 C509 1.373 . S
C511 C495 1.377 . S
C511 C509 1.389 . S
C511 C512 1.524 . S
C512 C511 1.524 . S
C512 C513 1.397 . S
C512 C517 1.363 . S
C513 H484 0.950 . S
C513 C512 1.397 . S
C513 C514 1.334 . S
C514 H485 0.950 . S
C514 C513 1.334 . S
C514 C515 1.287 1_565 S
C515 C514 1.287 1_545 S
C515 C516 1.524 1_545 S
C515 H518 0.999 . S
C516 H486 0.950 1_565 S
C516 C515 1.524 1_565 S
C516 C517 1.415 . S
C517 H487 0.950 . S
C517 C512 1.363 . S
C517 C516 1.415 . S
H518 C515 0.999 . S
H519 C500 0.913 . S
H520 C538 0.951 . S
H521 C540 0.951 . S
H522 C542 0.950 1_455 S
H523 C543 0.950 1_455 S
H524 C545 0.950 1_455 S
H525 C548 0.950 . S
H526 C549 0.950 . S
H527 C551 0.950 . S
H528 C552 0.950 . S
H529 C553 0.951 . S
H530 C555 0.951 . S
H531 C557 0.950 . S
H532 C558 0.950 . S
H533 C560 0.950 . S
H534 C563 0.950 . S
H535 C564 0.950 . S
H536 C566 0.950 . S
H537 C567 0.950 . S
C538 H520 0.951 . S
C538 C539 1.366 . S
C538 C540 1.388 . S
C539 C538 1.366 . S
C539 C543 1.385 . S
C540 H521 0.951 . S
C540 C538 1.388 . S
C540 C541 1.366 . S
C541 C540 1.366 . S
C541 C542 1.414 . S
C541 C544 1.499 . S
C542 H522 0.950 1_655 S
C542 C541 1.414 . S
C542 C543 1.374 . S
C543 H523 0.950 1_655 S
C543 C539 1.385 . S
C543 C542 1.374 . S
C544 C541 1.499 . S
C544 C545 1.373 . S
C544 C546 1.389 . S
C545 H524 0.950 1_655 S
C545 C544 1.373 . S
C545 C561 1.377 . S
C546 C544 1.389 . S
C546 C547 1.524 . S
C546 C560 1.377 . S
C547 C546 1.524 . S
C547 C548 1.397 . S
C547 C552 1.363 . S
C548 H525 0.950 . S
C548 C547 1.397 . S
C548 C549 1.334 . S
C549 H526 0.950 . S
C549 C548 1.334 . S
C549 C550 1.287 . S
C550 C549 1.287 . S
C550 C551 1.524 . S
C550 H569 0.913 . S
C551 H527 0.950 . S
C551 C550 1.524 . S
C551 C552 1.415 . S
C552 H528 0.950 . S
C552 C547 1.363 . S
C552 C551 1.415 . S
C553 H529 0.951 . S
C553 C554 1.366 . S
C553 C555 1.388 . S
C554 C553 1.366 . S
C554 C558 1.385 . S
C555 H530 0.951 . S
C555 C553 1.388 . S
C555 C556 1.366 . S
C556 C555 1.366 . S
C556 C557 1.414 . S
C556 C559 1.499 . S
C557 H531 0.950 . S
C557 C556 1.414 . S
C557 C558 1.374 . S
C558 H532 0.950 . S
C558 C554 1.385 . S
C558 C557 1.374 . S
C559 C556 1.499 . S
C559 C560 1.373 . S
C559 C561 1.389 . S
C560 H533 0.950 . S
C560 C546 1.377 . S
C560 C559 1.373 . S
C561 C545 1.377 . S
C561 C559 1.389 . S
C561 C562 1.524 1_655 S
C562 C561 1.524 1_455 S
C562 C563 1.397 . S
C562 C567 1.363 . S
C563 H534 0.950 . S
C563 C562 1.397 . S
C563 C564 1.334 . S
C564 H535 0.950 . S
C564 C563 1.334 . S
C564 C565 1.287 . S
C565 C564 1.287 . S
C565 C566 1.524 . S
C565 H568 0.999 . S
C566 H536 0.950 . S
C566 C565 1.524 . S
C566 C567 1.415 . S
C567 H537 0.950 . S
C567 C562 1.363 . S
C567 C566 1.415 . S
H568 C565 0.999 . S
H569 C550 0.913 . S
C139 C9 1.323 1_455 S
C154 C18 1.323 1_655 S
C189 C58 1.400 1_545 S
C204 C49 1.400 . S
C239 C89 1.181 1_545 S
C254 C98 1.181 . S
C289 C86 0.898 . S
C304 C15 0.896 . S
C339 C59 1.799 . S
C354 C6 1.770 . S
C389 C99 2.260 . S
C404 C50 2.256 . S
C439 C90 2.188 . S
C454 C19 2.168 . S
C489 C10 1.495 . S
C504 C55 1.448 . S
C539 C95 0.889 . S
C554 C46 0.894 . S
