# Generated by pormake.
# Topology wjb, (6)-cn, num edge types: 1
# Building blocks:
#     Node 0, Type 0, BuildingBlock: IZENUY_clean_sbu_0, # of connection points: 6
#     Node 1, Type 0, BuildingBlock: IZENUY_clean_sbu_0, # of connection points: 6
#     Node 2, Type 0, BuildingBlock: IZENUY_clean_sbu_0, # of connection points: 6
#     Node 3, Type 0, BuildingBlock: IZENUY_clean_sbu_0, # of connection points: 6
#     Node 4, Type 0, BuildingBlock: IZENUY_clean_sbu_0, # of connection points: 6
#     Node 5, Type 0, BuildingBlock: IZENUY_clean_sbu_0, # of connection points: 6
#     Node 6, Type 0, BuildingBlock: IZENUY_clean_sbu_0, # of connection points: 6
#     Node 7, Type 0, BuildingBlock: IZENUY_clean_sbu_0, # of connection points: 6
#     Node 8, Type 0, BuildingBlock: IZENUY_clean_sbu_0, # of connection points: 6
#     Node 9, Type 0, BuildingBlock: IZENUY_clean_sbu_0, # of connection points: 6
#     Node 10, Type 0, BuildingBlock: IZENUY_clean_sbu_0, # of connection points: 6
#     Node 11, Type 0, BuildingBlock: IZENUY_clean_sbu_0, # of connection points: 6
#     Node 12, Type 0, BuildingBlock: IZENUY_clean_sbu_0, # of connection points: 6
#     Node 13, Type 0, BuildingBlock: IZENUY_clean_sbu_0, # of connection points: 6
#     Node 14, Type 0, BuildingBlock: IZENUY_clean_sbu_0, # of connection points: 6
#     Node 15, Type 0, BuildingBlock: IZENUY_clean_sbu_0, # of connection points: 6
#     Node 16, Type 0, BuildingBlock: IZENUY_clean_sbu_0, # of connection points: 6
#     Node 17, Type 0, BuildingBlock: IZENUY_clean_sbu_0, # of connection points: 6
#     Node 18, Type 0, BuildingBlock: IZENUY_clean_sbu_0, # of connection points: 6
#     Node 19, Type 0, BuildingBlock: IZENUY_clean_sbu_0, # of connection points: 6
#     Node 20, Type 0, BuildingBlock: IZENUY_clean_sbu_0, # of connection points: 6
#     Node 21, Type 0, BuildingBlock: IZENUY_clean_sbu_0, # of connection points: 6
#     Node 22, Type 0, BuildingBlock: IZENUY_clean_sbu_0, # of connection points: 6
#     Node 23, Type 0, BuildingBlock: IZENUY_clean_sbu_0, # of connection points: 6
#     Edge 24, Type (0, 0), BuildingBlock: UVAHIK_clean_linker_0, # of connection points: 2
#     Edge 25, Type (0, 0), BuildingBlock: UVAHIK_clean_linker_0, # of connection points: 2
#     Edge 26, Type (0, 0), BuildingBlock: UVAHIK_clean_linker_0, # of connection points: 2
#     Edge 27, Type (0, 0), BuildingBlock: UVAHIK_clean_linker_0, # of connection points: 2
#     Edge 28, Type (0, 0), BuildingBlock: UVAHIK_clean_linker_0, # of connection points: 2
#     Edge 29, Type (0, 0), BuildingBlock: UVAHIK_clean_linker_0, # of connection points: 2
#     Edge 30, Type (0, 0), BuildingBlock: UVAHIK_clean_linker_0, # of connection points: 2
#     Edge 31, Type (0, 0), BuildingBlock: UVAHIK_clean_linker_0, # of connection points: 2
#     Edge 32, Type (0, 0), BuildingBlock: UVAHIK_clean_linker_0, # of connection points: 2
#     Edge 33, Type (0, 0), BuildingBlock: UVAHIK_clean_linker_0, # of connection points: 2
#     Edge 34, Type (0, 0), BuildingBlock: UVAHIK_clean_linker_0, # of connection points: 2
#     Edge 35, Type (0, 0), BuildingBlock: UVAHIK_clean_linker_0, # of connection points: 2
#     Edge 36, Type (0, 0), BuildingBlock: UVAHIK_clean_linker_0, # of connection points: 2
#     Edge 37, Type (0, 0), BuildingBlock: UVAHIK_clean_linker_0, # of connection points: 2
#     Edge 38, Type (0, 0), BuildingBlock: UVAHIK_clean_linker_0, # of connection points: 2
#     Edge 39, Type (0, 0), BuildingBlock: UVAHIK_clean_linker_0, # of connection points: 2
#     Edge 40, Type (0, 0), BuildingBlock: UVAHIK_clean_linker_0, # of connection points: 2
#     Edge 41, Type (0, 0), BuildingBlock: UVAHIK_clean_linker_0, # of connection points: 2
#     Edge 42, Type (0, 0), BuildingBlock: UVAHIK_clean_linker_0, # of connection points: 2
#     Edge 43, Type (0, 0), BuildingBlock: UVAHIK_clean_linker_0, # of connection points: 2
#     Edge 44, Type (0, 0), BuildingBlock: UVAHIK_clean_linker_0, # of connection points: 2
#     Edge 45, Type (0, 0), BuildingBlock: UVAHIK_clean_linker_0, # of connection points: 2
#     Edge 46, Type (0, 0), BuildingBlock: UVAHIK_clean_linker_0, # of connection points: 2
#     Edge 47, Type (0, 0), BuildingBlock: UVAHIK_clean_linker_0, # of connection points: 2
#     Edge 48, Type (0, 0), BuildingBlock: UVAHIK_clean_linker_0, # of connection points: 2
#     Edge 49, Type (0, 0), BuildingBlock: UVAHIK_clean_linker_0, # of connection points: 2
#     Edge 50, Type (0, 0), BuildingBlock: UVAHIK_clean_linker_0, # of connection points: 2
#     Edge 51, Type (0, 0), BuildingBlock: UVAHIK_clean_linker_0, # of connection points: 2
#     Edge 52, Type (0, 0), BuildingBlock: UVAHIK_clean_linker_0, # of connection points: 2
#     Edge 53, Type (0, 0), BuildingBlock: UVAHIK_clean_linker_0, # of connection points: 2
#     Edge 54, Type (0, 0), BuildingBlock: UVAHIK_clean_linker_0, # of connection points: 2
#     Edge 55, Type (0, 0), BuildingBlock: UVAHIK_clean_linker_0, # of connection points: 2
#     Edge 56, Type (0, 0), BuildingBlock: UVAHIK_clean_linker_0, # of connection points: 2
#     Edge 57, Type (0, 0), BuildingBlock: UVAHIK_clean_linker_0, # of connection points: 2
#     Edge 58, Type (0, 0), BuildingBlock: UVAHIK_clean_linker_0, # of connection points: 2
#     Edge 59, Type (0, 0), BuildingBlock: UVAHIK_clean_linker_0, # of connection points: 2
#     Edge 60, Type (0, 0), BuildingBlock: UVAHIK_clean_linker_0, # of connection points: 2
#     Edge 61, Type (0, 0), BuildingBlock: UVAHIK_clean_linker_0, # of connection points: 2
#     Edge 62, Type (0, 0), BuildingBlock: UVAHIK_clean_linker_0, # of connection points: 2
#     Edge 63, Type (0, 0), BuildingBlock: UVAHIK_clean_linker_0, # of connection points: 2
#     Edge 64, Type (0, 0), BuildingBlock: UVAHIK_clean_linker_0, # of connection points: 2
#     Edge 65, Type (0, 0), BuildingBlock: UVAHIK_clean_linker_0, # of connection points: 2
#     Edge 66, Type (0, 0), BuildingBlock: UVAHIK_clean_linker_0, # of connection points: 2
#     Edge 67, Type (0, 0), BuildingBlock: UVAHIK_clean_linker_0, # of connection points: 2
#     Edge 68, Type (0, 0), BuildingBlock: UVAHIK_clean_linker_0, # of connection points: 2
#     Edge 69, Type (0, 0), BuildingBlock: UVAHIK_clean_linker_0, # of connection points: 2
#     Edge 70, Type (0, 0), BuildingBlock: UVAHIK_clean_linker_0, # of connection points: 2
#     Edge 71, Type (0, 0), BuildingBlock: UVAHIK_clean_linker_0, # of connection points: 2
#     Edge 72, Type (0, 0), BuildingBlock: UVAHIK_clean_linker_0, # of connection points: 2
#     Edge 73, Type (0, 0), BuildingBlock: UVAHIK_clean_linker_0, # of connection points: 2
#     Edge 74, Type (0, 0), BuildingBlock: UVAHIK_clean_linker_0, # of connection points: 2
#     Edge 75, Type (0, 0), BuildingBlock: UVAHIK_clean_linker_0, # of connection points: 2
#     Edge 76, Type (0, 0), BuildingBlock: UVAHIK_clean_linker_0, # of connection points: 2
#     Edge 77, Type (0, 0), BuildingBlock: UVAHIK_clean_linker_0, # of connection points: 2
#     Edge 78, Type (0, 0), BuildingBlock: UVAHIK_clean_linker_0, # of connection points: 2
#     Edge 79, Type (0, 0), BuildingBlock: UVAHIK_clean_linker_0, # of connection points: 2
#     Edge 80, Type (0, 0), BuildingBlock: UVAHIK_clean_linker_0, # of connection points: 2
#     Edge 81, Type (0, 0), BuildingBlock: UVAHIK_clean_linker_0, # of connection points: 2
#     Edge 82, Type (0, 0), BuildingBlock: UVAHIK_clean_linker_0, # of connection points: 2
#     Edge 83, Type (0, 0), BuildingBlock: UVAHIK_clean_linker_0, # of connection points: 2
#     Edge 84, Type (0, 0), BuildingBlock: UVAHIK_clean_linker_0, # of connection points: 2
#     Edge 85, Type (0, 0), BuildingBlock: UVAHIK_clean_linker_0, # of connection points: 2
#     Edge 86, Type (0, 0), BuildingBlock: UVAHIK_clean_linker_0, # of connection points: 2
#     Edge 87, Type (0, 0), BuildingBlock: UVAHIK_clean_linker_0, # of connection points: 2
#     Edge 88, Type (0, 0), BuildingBlock: UVAHIK_clean_linker_0, # of connection points: 2
#     Edge 89, Type (0, 0), BuildingBlock: UVAHIK_clean_linker_0, # of connection points: 2
#     Edge 90, Type (0, 0), BuildingBlock: UVAHIK_clean_linker_0, # of connection points: 2
#     Edge 91, Type (0, 0), BuildingBlock: UVAHIK_clean_linker_0, # of connection points: 2
#     Edge 92, Type (0, 0), BuildingBlock: UVAHIK_clean_linker_0, # of connection points: 2
#     Edge 93, Type (0, 0), BuildingBlock: UVAHIK_clean_linker_0, # of connection points: 2
#     Edge 94, Type (0, 0), BuildingBlock: UVAHIK_clean_linker_0, # of connection points: 2
#     Edge 95, Type (0, 0), BuildingBlock: UVAHIK_clean_linker_0, # of connection points: 2
# Relax obj value: 0.470
# Max RMSD: 0.193
# Mean RMSD: 0.193
data_MOF--net-wjb--node1-IZENUY_clean_sbu_0--edge1-UVAHIK_clean_linker_0
_symmetry_space_group_name_H-M    P1
_symmetry_Int_Tables_number       1
_symmetry_cell_setting            triclinic
loop_
_symmetry_equiv_pos_as_xyz
'x, y, z'
_cell_length_a     65.996698
_cell_length_b     65.997827
_cell_length_c     71.0146
_cell_angle_alpha  89.986264
_cell_angle_beta   89.996442
_cell_angle_gamma 120.00671
loop_
_atom_site_label
_atom_site_type_symbol
_atom_site_fract_x
_atom_site_fract_y
_atom_site_fract_z
_atom_type_partial_charge
Fe0 Fe 0.17296 0.47194 0.11495 0.0
Fe1 Fe 0.15059 0.50315 0.11483 0.0
O2 O 0.17312 0.49773 0.1077 0.0
Fe3 Fe 0.19578 0.51817 0.09315 0.0
O4 O 0.21733 0.52319 0.11092 0.0
O5 O 0.20523 0.48602 0.11639 0.0
O6 O 0.17354 0.47945 0.13945 0.0
C7 C 0.15879 0.48349 0.14725 0.0
C8 C 0.18786 0.47472 0.07887 0.0
O9 O 0.14566 0.48834 0.1376 0.0
C10 C 0.15838 0.51798 0.07693 0.0
O11 O 0.14075 0.45349 0.11491 0.0
O12 O 0.12891 0.47676 0.10331 0.0
O13 O 0.20083 0.49654 0.08112 0.0
O14 O 0.17238 0.46259 0.09081 0.0
C15 C 0.18825 0.54695 0.11835 0.0
O16 O 0.15132 0.51878 0.09333 0.0
O17 O 0.17522 0.51428 0.07457 0.0
C18 C 0.12556 0.45652 0.10642 0.0
O19 O 0.17112 0.53025 0.12666 0.0
O20 O 0.19528 0.54372 0.10265 0.0
C21 C 0.22063 0.50752 0.11793 0.0
Fe22 Fe 0.66261 0.17678 0.58932 0.0
Fe23 Fe 0.69086 0.16336 0.61544 0.0
O24 O 0.66348 0.1577 0.60629 0.0
Fe25 Fe 0.63707 0.13314 0.61419 0.0
O26 O 0.61932 0.14742 0.61211 0.0
O27 O 0.64493 0.18367 0.60451 0.0
O28 O 0.68795 0.203 0.59866 0.0
C29 C 0.69675 0.20736 0.615 0.0
C30 C 0.62801 0.13212 0.57649 0.0
O31 O 0.69717 0.1916 0.62477 0.0
C32 C 0.66862 0.11604 0.61086 0.0
O33 O 0.68039 0.17115 0.57307 0.0
O34 O 0.70745 0.17685 0.59373 0.0
O35 O 0.62911 0.12099 0.59054 0.0
O36 O 0.63706 0.15411 0.57694 0.0
C37 C 0.66115 0.14802 0.64737 0.0
O38 O 0.68615 0.1355 0.60663 0.0
O39 O 0.65027 0.11467 0.61776 0.0
C40 C 0.7008 0.17534 0.5768 0.0
O41 O 0.67939 0.15114 0.63889 0.0
O42 O 0.64293 0.14347 0.6383 0.0
C43 C 0.62559 0.16895 0.61161 0.0
Fe44 Fe 0.48947 0.6763 0.0955 0.0
Fe45 Fe 0.53487 0.70107 0.11801 0.0
O46 O 0.51067 0.67484 0.10956 0.0
Fe47 Fe 0.50754 0.6473 0.11499 0.0
O48 O 0.47916 0.63699 0.12608 0.0
O49 O 0.46508 0.6479 0.10277 0.0
O50 O 0.4819 0.68923 0.11468 0.0
C51 C 0.49633 0.70839 0.12222 0.0
C52 C 0.49439 0.64337 0.07641 0.0
O53 O 0.51822 0.71669 0.12025 0.0
C54 C 0.5546 0.67316 0.10822 0.0
O55 O 0.50969 0.705 0.08533 0.0
O56 O 0.54441 0.71195 0.0942 0.0
O57 O 0.49417 0.63399 0.09211 0.0
O58 O 0.49613 0.6633 0.07582 0.0
C59 C 0.52335 0.6729 0.14911 0.0
O60 O 0.55561 0.69 0.11752 0.0
O61 O 0.53528 0.65549 0.10417 0.0
C62 C 0.53157 0.71505 0.08281 0.0
O63 O 0.52679 0.69189 0.14207 0.0
O64 O 0.52047 0.65601 0.13871 0.0
C65 C 0.46193 0.63572 0.11737 0.0
Fe66 Fe 0.81304 0.4852 0.58489 0.0
Fe67 Fe 0.83192 0.52814 0.61046 0.0
O68 O 0.83294 0.50328 0.60234 0.0
Fe69 Fe 0.8537 0.49649 0.61178 0.0
O70 O 0.83478 0.46466 0.60974 0.0
O71 O 0.80097 0.45999 0.60037 0.0
O72 O 0.78912 0.48989 0.59257 0.0
C73 C 0.78529 0.4961 0.60843 0.0
C74 C 0.8554 0.48716 0.57447 0.0
O75 O 0.80203 0.51003 0.6188 0.0
C76 C 0.87902 0.5458 0.60803 0.0
O77 O 0.82391 0.50924 0.56836 0.0
O78 O 0.82212 0.53403 0.5879 0.0
O79 O 0.86675 0.49843 0.5888 0.0
O80 O 0.8333 0.47731 0.574 0.0
C81 C 0.84024 0.50982 0.64362 0.0
O82 O 0.86173 0.54753 0.60263 0.0
O83 O 0.87624 0.52718 0.61558 0.0
C84 C 0.82387 0.52805 0.5713 0.0
O85 O 0.84147 0.52688 0.63449 0.0
O86 O 0.84199 0.4939 0.6353 0.0
C87 C 0.81274 0.45223 0.60843 0.0
Fe88 Fe 0.35805 0.86015 0.11249 0.0
Fe89 Fe 0.32953 0.81934 0.08557 0.0
O90 O 0.33066 0.83859 0.10334 0.0
Fe91 Fe 0.30425 0.83607 0.11205 0.0
O92 O 0.31533 0.84556 0.13606 0.0
O93 O 0.34983 0.84814 0.13601 0.0
O94 O 0.37223 0.84244 0.10994 0.0
C95 C 0.36352 0.82054 0.1083 0.0
C96 C 0.33187 0.88353 0.11012 0.0
O97 O 0.34399 0.80816 0.10043 0.0
C98 C 0.29579 0.82824 0.07288 0.0
O99 O 0.36839 0.87364 0.08947 0.0
O100 O 0.357 0.84054 0.07443 0.0
O101 O 0.31315 0.8658 0.10475 0.0
O102 O 0.34859 0.88155 0.11683 0.0
C103 C 0.29252 0.79005 0.10969 0.0
O104 O 0.31507 0.82933 0.06958 0.0
O105 O 0.28826 0.82603 0.0896 0.0
C106 C 0.3685 0.86264 0.07497 0.0
O107 O 0.3018 0.79453 0.09352 0.0
O108 O 0.29387 0.80623 0.12002 0.0
C109 C 0.332 0.84538 0.14476 0.0
Fe110 Fe 0.51341 0.32424 0.59398 0.0
Fe111 Fe 0.4671 0.29994 0.61547 0.0
O112 O 0.49263 0.32597 0.60845 0.0
Fe113 Fe 0.49749 0.35372 0.61569 0.0
O114 O 0.52488 0.361 0.62728 0.0
O115 O 0.5387 0.3507 0.60329 0.0
O116 O 0.5189 0.30817 0.61183 0.0
C117 C 0.50343 0.28893 0.6186 0.0
C118 C 0.51185 0.36066 0.57765 0.0
O119 O 0.48184 0.28238 0.61691 0.0
C120 C 0.45066 0.33136 0.60754 0.0
O121 O 0.49231 0.29726 0.58203 0.0
O122 O 0.45803 0.29122 0.59124 0.0
O123 O 0.51268 0.36877 0.59397 0.0
O124 O 0.50882 0.34036 0.57542 0.0
C125 C 0.4784 0.32536 0.64804 0.0
O126 O 0.44806 0.31298 0.61547 0.0
O127 O 0.47077 0.34854 0.60451 0.0
C128 C 0.47049 0.28799 0.57957 0.0
O129 O 0.47436 0.30672 0.63998 0.0
O130 O 0.48308 0.34351 0.63864 0.0
C131 C 0.54176 0.36104 0.61891 0.0
Fe132 Fe 0.5273 0.83517 0.8819 0.0
Fe133 Fe 0.5007 0.8627 0.88278 0.0
O134 O 0.50361 0.83857 0.88993 0.0
Fe135 Fe 0.48251 0.81747 0.90527 0.0
O136 O 0.48534 0.79306 0.89639 0.0
O137 O 0.50748 0.80681 0.87137 0.0
O138 O 0.52906 0.84801 0.85855 0.0
C139 C 0.51479 0.85202 0.84962 0.0
C140 C 0.5227 0.82272 0.9206 0.0
O141 O 0.49996 0.85532 0.85818 0.0
C142 C 0.48653 0.85948 0.91919 0.0
O143 O 0.54884 0.86319 0.89161 0.0
O144 O 0.53217 0.88326 0.88213 0.0
O145 O 0.50456 0.82425 0.92309 0.0
O146 O 0.52968 0.82187 0.90408 0.0
C147 C 0.45431 0.82415 0.88114 0.0
O148 O 0.50125 0.87219 0.90698 0.0
O149 O 0.47518 0.83754 0.9172 0.0
C150 C 0.54937 0.88235 0.88903 0.0
O151 O 0.46845 0.84602 0.88213 0.0
O152 O 0.45954 0.80975 0.88811 0.0
C153 C 0.49135 0.78993 0.88028 0.0
Fe154 Fe 0.69613 0.52868 0.37971 0.0
Fe155 Fe 0.6424 0.49922 0.38088 0.0
O156 O 0.67016 0.504 0.38796 0.0
Fe157 Fe 0.67187 0.48401 0.40339 0.0
O158 O 0.68733 0.47703 0.38596 0.0
O159 O 0.71322 0.5135 0.37905 0.0
O160 O 0.68833 0.51957 0.35561 0.0
C161 C 0.66957 0.51555 0.3478 0.0
C162 C 0.70899 0.52767 0.41584 0.0
O163 O 0.65211 0.51238 0.35747 0.0
C164 C 0.63592 0.48674 0.41938 0.0
O165 O 0.68351 0.54802 0.37877 0.0
O166 O 0.64852 0.5267 0.39127 0.0
O167 O 0.69924 0.50566 0.41455 0.0
O168 O 0.70581 0.53945 0.40346 0.0
C169 C 0.63476 0.45468 0.37917 0.0
O170 O 0.62774 0.4853 0.403 0.0
O171 O 0.65629 0.48992 0.42165 0.0
C172 C 0.66601 0.54635 0.38749 0.0
O173 O 0.63454 0.47111 0.37022 0.0
O174 O 0.64505 0.4585 0.3949 0.0
C175 C 0.7063 0.49178 0.37834 0.0
Fe176 Fe 0.13786 0.64624 0.88211 0.0
Fe177 Fe 0.18359 0.67432 0.90377 0.0
O178 O 0.16194 0.67352 0.88881 0.0
Fe179 Fe 0.16439 0.70002 0.88065 0.0
O180 O 0.16495 0.69184 0.85655 0.0
O181 O 0.13466 0.65628 0.8587 0.0
O182 O 0.15668 0.6369 0.87112 0.0
C183 C 0.17314 0.63628 0.87962 0.0
C184 C 0.1162 0.67154 0.88863 0.0
O185 O 0.18083 0.64686 0.89512 0.0
C186 C 0.17901 0.71246 0.91667 0.0
O187 O 0.1369 0.63136 0.90423 0.0
O188 O 0.1624 0.65963 0.92234 0.0
O189 O 0.13256 0.68862 0.87988 0.0
O190 O 0.11763 0.65376 0.89282 0.0
C191 C 0.21081 0.70821 0.87865 0.0
O192 O 0.19069 0.70212 0.915 0.0
O193 O 0.16408 0.70994 0.90446 0.0
C194 C 0.14462 0.63963 0.92043 0.0
O195 O 0.20572 0.68887 0.886 0.0
O196 O 0.19675 0.71605 0.87971 0.0
C197 C 0.14948 0.67332 0.84888 0.0
Fe198 Fe 0.51642 0.182 0.4106 0.0
Fe199 Fe 0.4738 0.16423 0.38465 0.0
O200 O 0.4982 0.16243 0.39305 0.0
Fe201 Fe 0.50443 0.1412 0.38376 0.0
O202 O 0.53636 0.15933 0.38609 0.0
O203 O 0.54184 0.19342 0.39541 0.0
O204 O 0.51292 0.20646 0.40262 0.0
C205 C 0.50733 0.21057 0.38661 0.0
C206 C 0.513 0.13901 0.42119 0.0
O207 O 0.49253 0.1941 0.37647 0.0
C208 C 0.45491 0.11691 0.38677 0.0
O209 O 0.49222 0.17189 0.42692 0.0
O210 O 0.46797 0.17425 0.40711 0.0
O211 O 0.50178 0.1279 0.40675 0.0
O212 O 0.52325 0.16112 0.42173 0.0
C213 C 0.49215 0.15536 0.35171 0.0
O214 O 0.45362 0.13444 0.39223 0.0
O215 O 0.47363 0.11932 0.37968 0.0
C216 C 0.47376 0.17254 0.42378 0.0
O217 O 0.47522 0.15469 0.36064 0.0
O218 O 0.50766 0.15307 0.36023 0.0
C219 C 0.54928 0.1813 0.38753 0.0
Fe220 Fe 0.301 0.47404 0.87945 0.0
Fe221 Fe 0.35481 0.50232 0.8815 0.0
O222 O 0.32714 0.49813 0.88829 0.0
Fe223 Fe 0.32568 0.51806 0.90392 0.0
O224 O 0.3105 0.52563 0.88677 0.0
O225 O 0.2842 0.48965 0.87914 0.0
O226 O 0.30953 0.48407 0.85557 0.0
C227 C 0.32831 0.48771 0.84799 0.0
C228 C 0.28907 0.47422 0.91618 0.0
O229 O 0.3452 0.48973 0.85786 0.0
C230 C 0.36112 0.5146 0.92017 0.0
O231 O 0.31319 0.45419 0.87819 0.0
O232 O 0.3478 0.47445 0.8915 0.0
O233 O 0.29846 0.49625 0.91516 0.0
O234 O 0.29077 0.46255 0.90287 0.0
C235 C 0.36339 0.54722 0.87994 0.0
O236 O 0.36952 0.5157 0.90391 0.0
O237 O 0.34088 0.51171 0.92204 0.0
C238 C 0.33042 0.45509 0.88692 0.0
O239 O 0.3635 0.53068 0.87113 0.0
O240 O 0.35267 0.54355 0.89548 0.0
C241 C 0.29142 0.51146 0.87905 0.0
Fe242 Fe 0.86768 0.36505 0.3792 0.0
Fe243 Fe 0.82391 0.33981 0.40367 0.0
O244 O 0.84382 0.33866 0.38775 0.0
Fe245 Fe 0.83965 0.31111 0.38049 0.0
O246 O 0.85151 0.32093 0.35659 0.0
O247 O 0.85818 0.35707 0.35511 0.0
O248 O 0.85161 0.38124 0.37907 0.0
C249 C 0.82975 0.37365 0.37871 0.0
C250 C 0.88708 0.3358 0.38525 0.0
O251 O 0.81563 0.35453 0.38649 0.0
C252 C 0.82847 0.30482 0.41947 0.0
O253 O 0.87903 0.37514 0.4029 0.0
O254 O 0.84515 0.36755 0.41446 0.0
O255 O 0.86803 0.31797 0.38979 0.0
O256 O 0.88763 0.35335 0.37753 0.0
C257 C 0.79465 0.30248 0.37998 0.0
O258 O 0.83119 0.32501 0.42165 0.0
O259 O 0.82696 0.29645 0.40309 0.0
C260 C 0.86717 0.37782 0.41557 0.0
O261 O 0.7987 0.3125 0.3958 0.0
O262 O 0.81091 0.30242 0.37069 0.0
C263 C 0.85454 0.33851 0.34708 0.0
Fe264 Fe 0.81117 0.48706 0.90497 0.0
Fe265 Fe 0.82832 0.52985 0.87946 0.0
O266 O 0.83043 0.50553 0.88739 0.0
Fe267 Fe 0.85164 0.49955 0.87784 0.0
O268 O 0.8332 0.46758 0.87988 0.0
O269 O 0.79902 0.46219 0.88911 0.0
O270 O 0.78693 0.49165 0.89841 0.0
C271 C 0.78208 0.49745 0.88282 0.0
C272 C 0.85371 0.48903 0.91453 0.0
O273 O 0.79815 0.51109 0.87182 0.0
C274 C 0.87578 0.54889 0.88119 0.0
O275 O 0.82243 0.51099 0.92162 0.0
O276 O 0.81927 0.5355 0.90251 0.0
O277 O 0.865 0.50189 0.90083 0.0
O278 O 0.83163 0.47884 0.91489 0.0
C279 C 0.83701 0.51191 0.84608 0.0
O280 O 0.85819 0.55003 0.88659 0.0
O281 O 0.87361 0.53039 0.87391 0.0
C282 C 0.82205 0.52971 0.91895 0.0
O283 O 0.83714 0.52855 0.8551 0.0
O284 O 0.83976 0.49663 0.85446 0.0
C285 C 0.81115 0.45473 0.88117 0.0
Fe286 Fe 0.29747 0.83016 0.37952 0.0
Fe287 Fe 0.35092 0.85134 0.38058 0.0
O288 O 0.32263 0.83041 0.38857 0.0
Fe289 Fe 0.31949 0.80953 0.40556 0.0
O290 O 0.29106 0.7864 0.39702 0.0
O291 O 0.28563 0.80041 0.37068 0.0
O292 O 0.30982 0.84022 0.35587 0.0
C293 C 0.32645 0.83956 0.34749 0.0
C294 C 0.28757 0.82088 0.41846 0.0
O295 O 0.34346 0.84088 0.35662 0.0
C296 C 0.35939 0.8508 0.41812 0.0
O297 O 0.30779 0.85992 0.38763 0.0
O298 O 0.34354 0.87431 0.37657 0.0
O299 O 0.30596 0.82019 0.42183 0.0
O300 O 0.2806 0.81998 0.40166 0.0
C301 C 0.35339 0.80988 0.3834 0.0
O302 O 0.36045 0.86319 0.40418 0.0
O303 O 0.34712 0.82874 0.41741 0.0
C304 C 0.32728 0.87719 0.38304 0.0
O305 O 0.36324 0.83199 0.38299 0.0
O306 O 0.33309 0.79776 0.39018 0.0
C307 C 0.28189 0.78325 0.38089 0.0
Fe308 Fe 0.49152 0.35257 0.88214 0.0
Fe309 Fe 0.50751 0.32383 0.90486 0.0
O310 O 0.48684 0.32504 0.88989 0.0
Fe311 Fe 0.46162 0.29879 0.88274 0.0
O312 O 0.46947 0.30538 0.85825 0.0
O313 O 0.47723 0.34184 0.85925 0.0
O314 O 0.51901 0.35973 0.87074 0.0
C315 C 0.53575 0.35964 0.87922 0.0
C316 C 0.44466 0.33005 0.88972 0.0
O317 O 0.53273 0.34996 0.89515 0.0
C318 C 0.46437 0.28768 0.91913 0.0
O319 O 0.50666 0.36825 0.90363 0.0
O320 O 0.5029 0.34056 0.92292 0.0
O321 O 0.44243 0.3117 0.882 0.0
O322 O 0.46462 0.3473 0.89311 0.0
C323 C 0.49823 0.28806 0.88079 0.0
O324 O 0.48628 0.29718 0.91713 0.0
O325 O 0.45203 0.29029 0.90692 0.0
C326 C 0.50649 0.36099 0.92017 0.0
O327 O 0.51332 0.30737 0.88766 0.0
O328 O 0.47655 0.28133 0.88199 0.0
C329 C 0.47331 0.32385 0.84999 0.0
Fe330 Fe 0.17233 0.46733 0.37961 0.0
Fe331 Fe 0.14786 0.49648 0.38139 0.0
O332 O 0.17145 0.49229 0.38763 0.0
Fe333 Fe 0.19406 0.51296 0.40206 0.0
O334 O 0.21545 0.51908 0.38391 0.0
O335 O 0.20463 0.48237 0.37798 0.0
O336 O 0.17244 0.47559 0.35542 0.0
C337 C 0.15696 0.4789 0.3481 0.0
C338 C 0.18749 0.4697 0.4155 0.0
O339 O 0.14317 0.48235 0.35825 0.0
C340 C 0.15633 0.51084 0.41938 0.0
O341 O 0.1403 0.44796 0.37963 0.0
O342 O 0.12727 0.46939 0.39282 0.0
O343 O 0.20018 0.49162 0.41346 0.0
O344 O 0.17222 0.45752 0.40346 0.0
C345 C 0.18413 0.54112 0.37787 0.0
O346 O 0.14838 0.5114 0.4033 0.0
O347 O 0.17374 0.50796 0.42107 0.0
C348 C 0.12483 0.44968 0.38889 0.0
O349 O 0.16714 0.52407 0.36977 0.0
O350 O 0.19231 0.53819 0.39313 0.0
C351 C 0.21945 0.50405 0.3766 0.0
Fe352 Fe 0.68516 0.16245 0.88336 0.0
Fe353 Fe 0.63119 0.13337 0.88304 0.0
O354 O 0.65753 0.15781 0.8911 0.0
Fe355 Fe 0.65607 0.1775 0.90707 0.0
O356 O 0.67075 0.20133 0.89069 0.0
O357 O 0.69937 0.19472 0.88355 0.0
O358 O 0.67781 0.16367 0.85901 0.0
C359 C 0.66003 0.14809 0.85057 0.0
C360 C 0.69471 0.17432 0.92052 0.0
O361 O 0.64277 0.13244 0.85968 0.0
C362 C 0.62198 0.13634 0.92155 0.0
O363 O 0.67559 0.131 0.88182 0.0
O364 O 0.63964 0.11358 0.89303 0.0
O365 O 0.68334 0.185 0.91925 0.0
O366 O 0.69473 0.16168 0.90723 0.0
C367 C 0.61909 0.16716 0.88177 0.0
O368 O 0.61466 0.1298 0.90493 0.0
O369 O 0.64129 0.15463 0.92444 0.0
C370 C 0.6584 0.11359 0.88963 0.0
O371 O 0.62108 0.15186 0.87266 0.0
O372 O 0.62855 0.17393 0.89778 0.0
C373 C 0.69051 0.20794 0.88347 0.0
Fe374 Fe 0.50552 0.63841 0.38428 0.0
Fe375 Fe 0.4833 0.66106 0.40752 0.0
O376 O 0.50533 0.66386 0.39195 0.0
Fe377 Fe 0.52723 0.69198 0.38411 0.0
O378 O 0.51887 0.68394 0.35981 0.0
O379 O 0.51844 0.65049 0.36113 0.0
O380 O 0.47702 0.62668 0.37327 0.0
C381 C 0.45906 0.62388 0.38185 0.0
C382 C 0.55177 0.66806 0.3915 0.0
O383 O 0.46065 0.63306 0.39784 0.0
C384 C 0.5239 0.70095 0.42124 0.0
O385 O 0.49261 0.62149 0.40595 0.0
O386 O 0.49193 0.64709 0.42517 0.0
O387 O 0.55045 0.68416 0.38282 0.0
O388 O 0.53376 0.64872 0.395 0.0
C389 C 0.48565 0.69474 0.38385 0.0
O390 O 0.50188 0.68861 0.41987 0.0
O391 O 0.53705 0.70195 0.40796 0.0
C392 C 0.49211 0.62832 0.42252 0.0
O393 O 0.47329 0.67475 0.39094 0.0
O394 O 0.50782 0.70466 0.38406 0.0
C395 C 0.51837 0.66673 0.35167 0.0
Fe396 Fe 0.51041 0.18349 0.08933 0.0
Fe397 Fe 0.46943 0.16857 0.11665 0.0
O398 O 0.49255 0.16503 0.10755 0.0
Fe399 Fe 0.49786 0.14319 0.11684 0.0
O400 O 0.52969 0.15981 0.11332 0.0
O401 O 0.53652 0.19427 0.10367 0.0
O402 O 0.5088 0.20905 0.09721 0.0
C403 C 0.50451 0.21412 0.11336 0.0
C404 C 0.50412 0.13916 0.07934 0.0
O405 O 0.48972 0.19841 0.12406 0.0
C406 C 0.44843 0.12099 0.11526 0.0
O407 O 0.48554 0.17394 0.07385 0.0
O408 O 0.4632 0.17852 0.09427 0.0
O409 O 0.49335 0.12887 0.09415 0.0
O410 O 0.51521 0.16125 0.07819 0.0
C411 C 0.48841 0.15934 0.1491 0.0
O412 O 0.44784 0.1389 0.1098 0.0
O413 O 0.46697 0.12266 0.12204 0.0
C414 C 0.46787 0.17583 0.07746 0.0
O415 O 0.47148 0.15939 0.14071 0.0
O416 O 0.50296 0.15607 0.14007 0.0
C417 C 0.54345 0.18155 0.11126 0.0
Fe418 Fe 0.30251 0.46852 0.61437 0.0
Fe419 Fe 0.35635 0.49841 0.61319 0.0
O420 O 0.32853 0.49261 0.60523 0.0
Fe421 Fe 0.32663 0.51103 0.58818 0.0
O422 O 0.29909 0.50756 0.5971 0.0
O423 O 0.29249 0.48788 0.62346 0.0
O424 O 0.31474 0.46964 0.63783 0.0
C425 C 0.33191 0.48631 0.64623 0.0
C426 C 0.29284 0.46837 0.5756 0.0
O427 O 0.34922 0.50162 0.63716 0.0
C428 C 0.36528 0.50729 0.57568 0.0
O429 O 0.31102 0.44785 0.60596 0.0
O430 O 0.34727 0.46752 0.61653 0.0
O431 O 0.31182 0.48682 0.57207 0.0
O432 O 0.28564 0.46298 0.59241 0.0
C433 C 0.36138 0.54349 0.61054 0.0
O434 O 0.36555 0.49573 0.58969 0.0
O435 O 0.35379 0.51791 0.57608 0.0
C436 C 0.33044 0.44923 0.60941 0.0
O437 O 0.37026 0.53037 0.61114 0.0
O438 O 0.34144 0.53634 0.6034 0.0
C439 C 0.29067 0.50278 0.61355 0.0
Fe440 Fe 0.86381 0.36236 0.1112 0.0
Fe441 Fe 0.8168 0.33609 0.09103 0.0
O442 O 0.8388 0.33561 0.10475 0.0
Fe443 Fe 0.83574 0.30841 0.11185 0.0
O444 O 0.83711 0.31607 0.13642 0.0
O445 O 0.8676 0.35155 0.13415 0.0
O446 O 0.84644 0.37244 0.12353 0.0
C447 C 0.82987 0.37381 0.11606 0.0
C448 C 0.8837 0.33588 0.10235 0.0
O449 O 0.82116 0.36378 0.10057 0.0
C450 C 0.81852 0.29704 0.07625 0.0
O451 O 0.86446 0.37795 0.08942 0.0
O452 O 0.83701 0.35059 0.07185 0.0
O453 O 0.86742 0.31864 0.11106 0.0
O454 O 0.88268 0.35412 0.09923 0.0
C455 C 0.78995 0.3019 0.11603 0.0
O456 O 0.80795 0.30832 0.07905 0.0
O457 O 0.83401 0.29874 0.08757 0.0
C458 C 0.85555 0.37009 0.07335 0.0
O459 O 0.79556 0.32174 0.10944 0.0
O460 O 0.80345 0.29347 0.11411 0.0
C461 C 0.85325 0.33425 0.14403 0.0
Fe462 Fe 0.52759 0.83454 0.61578 0.0
Fe463 Fe 0.50341 0.86408 0.61277 0.0
O464 O 0.50467 0.83859 0.60707 0.0
Fe465 Fe 0.48301 0.81711 0.59247 0.0
O466 O 0.47399 0.79551 0.61089 0.0
O467 O 0.50936 0.80233 0.61759 0.0
O468 O 0.51944 0.83583 0.6398 0.0
C469 C 0.51772 0.8524 0.6469 0.0
C470 C 0.52424 0.81792 0.58022 0.0
O471 O 0.51604 0.86718 0.63653 0.0
C472 C 0.49037 0.85648 0.5742 0.0
O473 O 0.54967 0.8659 0.61572 0.0
O474 O 0.53171 0.88251 0.60208 0.0
O475 O 0.50223 0.80763 0.58196 0.0
O476 O 0.53734 0.83296 0.59212 0.0
C477 C 0.45731 0.8309 0.61557 0.0
O478 O 0.49045 0.86539 0.59006 0.0
O479 O 0.49092 0.83769 0.57325 0.0
C480 C 0.55023 0.88253 0.60641 0.0
O481 O 0.47485 0.84719 0.62374 0.0
O482 O 0.45956 0.82226 0.60036 0.0
C483 C 0.48727 0.78932 0.6185 0.0
Fe484 Fe 0.7025 0.53246 0.11491 0.0
Fe485 Fe 0.64888 0.50258 0.11266 0.0
O486 O 0.67694 0.50758 0.10635 0.0
Fe487 Fe 0.67935 0.48759 0.09141 0.0
O488 O 0.69439 0.48099 0.10942 0.0
O489 O 0.71988 0.51754 0.11642 0.0
O490 O 0.69397 0.52344 0.13894 0.0
C491 C 0.67487 0.51925 0.14623 0.0
C492 C 0.71644 0.53136 0.07914 0.0
O493 O 0.65775 0.51598 0.13606 0.0
C494 C 0.64366 0.48963 0.07427 0.0
O495 O 0.6895 0.55156 0.11508 0.0
O496 O 0.65501 0.52985 0.1019 0.0
O497 O 0.70697 0.50938 0.08061 0.0
O498 O 0.71284 0.54312 0.09126 0.0
C499 C 0.64153 0.45823 0.11512 0.0
O500 O 0.63494 0.4883 0.09041 0.0
O501 O 0.6642 0.49313 0.07254 0.0
C502 C 0.67207 0.54964 0.10602 0.0
O503 O 0.64103 0.47472 0.1237 0.0
O504 O 0.65238 0.46195 0.09965 0.0
C505 C 0.71307 0.49583 0.11733 0.0
Fe506 Fe 0.16877 0.69811 0.615 0.0
Fe507 Fe 0.14502 0.64446 0.61427 0.0
O508 O 0.16794 0.67223 0.60713 0.0
Fe509 Fe 0.18998 0.67404 0.59205 0.0
O510 O 0.21216 0.69012 0.60947 0.0
O511 O 0.20111 0.71576 0.61577 0.0
O512 O 0.17003 0.69069 0.63928 0.0
C513 C 0.15518 0.67195 0.6471 0.0
C514 C 0.18246 0.71019 0.57866 0.0
O515 O 0.14108 0.65442 0.63741 0.0
C516 C 0.15189 0.63735 0.57609 0.0
O517 O 0.13667 0.68499 0.61579 0.0
O518 O 0.12356 0.65008 0.60335 0.0
O519 O 0.19521 0.70099 0.58032 0.0
O520 O 0.1676 0.70723 0.59108 0.0
C521 C 0.18214 0.63727 0.6169 0.0
O522 O 0.14481 0.62949 0.59249 0.0
O523 O 0.16884 0.65781 0.57373 0.0
C524 C 0.12095 0.66728 0.60715 0.0
O525 O 0.16528 0.63708 0.62547 0.0
O526 O 0.1891 0.64761 0.60121 0.0
C527 C 0.2162 0.70921 0.61669 0.0
C528 C 0.13012 0.60041 0.93472 0.0
C529 C 0.13636 0.62396 0.93681 0.0
C530 C 0.12628 0.58641 0.95053 0.0
C531 C 0.1427 0.59365 0.00091 0.0
H532 H 0.10727 0.52578 0.00036 0.0
C533 C 0.13715 0.5374 0.06434 0.0
C534 C 0.14945 0.52546 0.06092 0.0
C535 C 0.13065 0.54669 0.04947 0.0
C536 C 0.11711 0.54473 0.00063 0.0
H537 H 0.14141 0.6509 0.95672 0.0
H538 H 0.13317 0.62609 0.98439 0.0
H539 H 0.10289 0.54773 0.97442 0.0
H540 H 0.16325 0.51257 0.03921 0.0
H541 H 0.15137 0.52863 0.01302 0.0
H542 H 0.15644 0.59047 0.02734 0.0
C543 C 0.13241 0.61864 0.97065 0.0
C544 C 0.11476 0.55734 0.98579 0.0
C545 C 0.13692 0.63283 0.95484 0.0
C546 C 0.15396 0.52186 0.04224 0.0
C547 C 0.14705 0.53084 0.02731 0.0
C548 C 0.14458 0.58107 0.01587 0.0
C549 C 0.12807 0.59555 0.96875 0.0
C550 C 0.12794 0.58199 0.98555 0.0
C551 C 0.13588 0.54378 0.03092 0.0
C552 C 0.13216 0.55658 0.01565 0.0
H553 H 0.12972 0.59321 0.92092 0.0
H554 H 0.1233 0.56889 0.94839 0.0
H555 H 0.15362 0.6125 0.00113 0.0
H556 H 0.13335 0.54045 0.07856 0.0
H557 H 0.1221 0.55672 0.05247 0.0
C558 C 0.62162 0.12975 0.54201 0.0
C559 C 0.61378 0.11979 0.55987 0.0
C560 C 0.60675 0.12145 0.52648 0.0
C561 C 0.57324 0.09768 0.4941 0.0
H562 H 0.51706 0.10053 0.50453 0.0
C563 C 0.51859 0.10675 0.43442 0.0
C564 C 0.51653 0.12674 0.43715 0.0
C565 C 0.52536 0.09753 0.44938 0.0
C566 C 0.53248 0.09931 0.5014 0.0
H567 H 0.5847 0.09255 0.57544 0.0
H568 H 0.55824 0.07818 0.54815 0.0
H569 H 0.54015 0.09863 0.5306 0.0
H570 H 0.51831 0.15175 0.4578 0.0
H571 H 0.52966 0.13556 0.4838 0.0
H572 H 0.56638 0.09994 0.46492 0.0
C573 C 0.57605 0.0923 0.54619 0.0
C574 C 0.54561 0.09801 0.51632 0.0
C575 C 0.59118 0.10039 0.56175 0.0
C576 C 0.51992 0.13642 0.45527 0.0
C577 C 0.52623 0.12701 0.47021 0.0
C578 C 0.56001 0.0988 0.47916 0.0
C579 C 0.58351 0.10322 0.52851 0.0
C580 C 0.56671 0.09828 0.51285 0.0
C581 C 0.52963 0.10785 0.46736 0.0
C582 C 0.54009 0.10072 0.4827 0.0
H583 H 0.639 0.14475 0.54023 0.0
H584 H 0.613 0.13045 0.51315 0.0
H585 H 0.58932 0.09769 0.49099 0.0
H586 H 0.51613 0.09899 0.42057 0.0
H587 H 0.52783 0.08274 0.44681 0.0
C588 C 0.36734 0.52154 0.95479 0.0
C589 C 0.37645 0.5213 0.93694 0.0
C590 C 0.38224 0.53168 0.97011 0.0
C591 C 0.41899 0.57397 0.99105 0.0
H592 H 0.46972 0.56532 0.00892 0.0
C593 C 0.48639 0.63912 0.04183 0.0
C594 C 0.48775 0.6292 0.05898 0.0
C595 C 0.47615 0.62505 0.02609 0.0
C596 C 0.45562 0.56787 0.00398 0.0
H597 H 0.40814 0.52959 0.92161 0.0
H598 H 0.43422 0.54734 0.94861 0.0
H599 H 0.44376 0.54002 0.98369 0.0
H600 H 0.48139 0.59703 0.0725 0.0
H601 H 0.46347 0.57242 0.04481 0.0
H602 H 0.43069 0.60179 0.011 0.0
C603 C 0.41553 0.53975 0.95057 0.0
C604 C 0.44088 0.5535 0.98961 0.0
C605 C 0.4006 0.52969 0.93514 0.0
C606 C 0.48042 0.60518 0.05956 0.0
C607 C 0.47026 0.59109 0.04371 0.0
C608 C 0.43384 0.58847 0.0051 0.0
C609 C 0.40652 0.54164 0.96798 0.0
C610 C 0.42232 0.55635 0.98318 0.0
C611 C 0.46722 0.6008 0.0271 0.0
C612 C 0.45228 0.58558 0.01172 0.0
H613 H 0.3488 0.5149 0.95678 0.0
H614 H 0.37486 0.53264 0.9835 0.0
H615 H 0.40499 0.57672 0.98617 0.0
H616 H 0.49219 0.65761 0.04078 0.0
H617 H 0.4743 0.63298 0.01333 0.0
C618 C 0.88667 0.4803 0.56077 0.0
C619 C 0.86742 0.48368 0.55831 0.0
C620 C 0.89596 0.47432 0.54535 0.0
C621 C 0.89827 0.47501 0.49341 0.0
H622 H 0.89423 0.41446 0.49687 0.0
C623 C 0.87002 0.41203 0.43213 0.0
C624 C 0.87851 0.39651 0.42973 0.0
C625 C 0.87743 0.42756 0.4472 0.0
C626 C 0.89615 0.4317 0.49573 0.0
H627 H 0.84363 0.48474 0.53784 0.0
H628 H 0.86015 0.47502 0.51102 0.0
H629 H 0.89134 0.43356 0.52544 0.0
H630 H 0.90204 0.38549 0.44074 0.0
H631 H 0.91497 0.41274 0.46766 0.0
H632 H 0.90197 0.47276 0.46368 0.0
C633 C 0.86797 0.47672 0.52476 0.0
C634 C 0.89444 0.44261 0.5121 0.0
C635 C 0.8584 0.48212 0.54013 0.0
C636 C 0.89542 0.39747 0.44226 0.0
C637 C 0.90265 0.41291 0.45768 0.0
C638 C 0.90015 0.46423 0.47711 0.0
C639 C 0.88654 0.47232 0.52722 0.0
C640 C 0.89435 0.46383 0.51095 0.0
C641 C 0.89337 0.42783 0.46047 0.0
C642 C 0.8979 0.44189 0.47796 0.0
H643 H 0.89385 0.48129 0.57467 0.0
H644 H 0.91025 0.47096 0.5476 0.0
H645 H 0.89859 0.49153 0.49217 0.0
H646 H 0.85693 0.41157 0.42263 0.0
H647 H 0.86959 0.43846 0.44902 0.0
C648 C 0.45541 0.85857 0.93938 0.0
C649 C 0.47907 0.87 0.93407 0.0
C650 C 0.44776 0.86752 0.95369 0.0
C651 C 0.46378 0.89674 0.99765 0.0
H652 H 0.40692 0.89953 0.99074 0.0
C653 C 0.40668 0.89334 0.06093 0.0
C654 C 0.38359 0.8749 0.05869 0.0
C655 C 0.42187 0.90164 0.04539 0.0
C656 C 0.42295 0.8991 0.99292 0.0
H657 H 0.51334 0.89988 0.93949 0.0
H658 H 0.49992 0.91521 0.96544 0.0
H659 H 0.42807 0.89743 0.96331 0.0
H660 H 0.35777 0.85177 0.03851 0.0
H661 H 0.38382 0.86629 0.01159 0.0
H662 H 0.45759 0.89641 0.02731 0.0
C663 C 0.48737 0.89951 0.95811 0.0
C664 C 0.43508 0.898 0.97722 0.0
C665 C 0.49499 0.89079 0.94332 0.0
C666 C 0.37551 0.86598 0.04061 0.0
C667 C 0.39045 0.87446 0.02515 0.0
C668 C 0.45151 0.89766 0.01343 0.0
C669 C 0.46363 0.88792 0.96334 0.0
C670 C 0.45497 0.8957 0.97945 0.0
C671 C 0.41398 0.89192 0.02738 0.0
C672 C 0.4303 0.89764 0.0112 0.0
H673 H 0.44269 0.84261 0.93241 0.0
H674 H 0.42943 0.85808 0.9576 0.0
H675 H 0.47902 0.89485 -0.00028 0.0
H676 H 0.41333 0.90037 0.07479 0.0
H677 H 0.43991 0.91514 0.04752 0.0
C678 C 0.59556 0.46782 0.43265 0.0
C679 C 0.6199 0.47996 0.43563 0.0
C680 C 0.58021 0.45829 0.44779 0.0
C681 C 0.57124 0.45839 0.49789 0.0
H682 H 0.5408 0.39076 0.49492 0.0
C683 C 0.5362 0.39997 0.56336 0.0
C684 C 0.51875 0.37646 0.56139 0.0
C685 C 0.54476 0.41443 0.5476 0.0
C686 C 0.54847 0.40955 0.4959 0.0
H687 H 0.64718 0.4933 0.45686 0.0
H688 H 0.62008 0.47686 0.48348 0.0
H689 H 0.56279 0.41429 0.46817 0.0
H690 H 0.4952 0.34994 0.54187 0.0
H691 H 0.509 0.37553 0.51441 0.0
H692 H 0.55669 0.45381 0.52549 0.0
C693 C 0.61308 0.47463 0.46935 0.0
C694 C 0.56125 0.42301 0.48057 0.0
C695 C 0.62852 0.48384 0.45415 0.0
C696 C 0.50895 0.36797 0.54363 0.0
C697 C 0.51702 0.38263 0.52791 0.0
C698 C 0.55791 0.44489 0.51313 0.0
C699 C 0.5889 0.46117 0.46617 0.0
C700 C 0.57316 0.44747 0.48162 0.0
C701 C 0.53561 0.40584 0.52958 0.0
C702 C 0.54689 0.42027 0.51254 0.0
H703 H 0.58834 0.46458 0.41855 0.0
H704 H 0.56159 0.4479 0.44511 0.0
H705 H 0.58026 0.4773 0.49887 0.0
H706 H 0.54411 0.40686 0.57696 0.0
H707 H 0.55932 0.43199 0.54954 0.0
C708 C 0.85604 0.45703 0.93047 0.0
C709 C 0.86521 0.48114 0.92803 0.0
C710 C 0.86398 0.44864 0.94501 0.0
C711 C 0.88527 0.46316 0.99267 0.0
H712 H 0.88891 0.40649 0.98821 0.0
C713 C 0.88165 0.40906 0.05804 0.0
C714 C 0.865 0.38512 0.05643 0.0
C715 C 0.88883 0.42354 0.04212 0.0
C716 C 0.88803 0.42237 0.98971 0.0
H717 H 0.89034 0.51557 0.93832 0.0
H718 H 0.9041 0.50079 0.96435 0.0
H719 H 0.8897 0.42784 0.9599 0.0
H720 H 0.84376 0.35745 0.03668 0.0
H721 H 0.85613 0.38257 0.00909 0.0
H722 H 0.8823 0.457 0.02241 0.0
C723 C 0.89092 0.48844 0.9548 0.0
C724 C 0.88858 0.43463 0.9735 0.0
C725 C 0.8832 0.49689 0.93992 0.0
C726 C 0.8565 0.37582 0.03846 0.0
C727 C 0.86378 0.39022 0.02259 0.0
C728 C 0.88469 0.45086 0.00891 0.0
C729 C 0.88105 0.46418 0.95766 0.0
C730 C 0.88623 0.45462 0.97476 0.0
C731 C 0.87971 0.41433 0.02424 0.0
C732 C 0.88509 0.4298 0.00754 0.0
H733 H 0.8421 0.44459 0.92145 0.0
H734 H 0.85576 0.42989 0.94696 0.0
H735 H 0.88324 0.47839 0.99409 0.0
H736 H 0.88862 0.41678 0.07166 0.0
H737 H 0.90127 0.44201 0.04383 0.0
C738 C 0.48828 0.85778 0.53914 0.0
C739 C 0.48523 0.86545 0.55681 0.0
C740 C 0.47982 0.86283 0.52285 0.0
C741 C 0.44085 0.85559 0.49701 0.0
H742 H 0.43786 0.91138 0.48487 0.0
C743 C 0.36796 0.84908 0.45179 0.0
C744 C 0.37495 0.86103 0.43454 0.0
C745 C 0.38387 0.85486 0.46646 0.0
C746 C 0.43878 0.89581 0.48807 0.0
H747 H 0.47262 0.8861 0.57106 0.0
H748 H 0.45737 0.89451 0.54257 0.0
H749 H 0.46377 0.91255 0.51036 0.0
H750 H 0.40353 0.88979 0.41964 0.0
H751 H 0.4317 0.90002 0.44567 0.0
H752 H 0.41551 0.83864 0.47528 0.0
C753 C 0.4665 0.88476 0.54132 0.0
C754 C 0.45345 0.89641 0.50265 0.0
C755 C 0.47514 0.87983 0.55766 0.0
C756 C 0.39771 0.88032 0.43281 0.0
C757 C 0.41379 0.88614 0.44764 0.0
C758 C 0.42615 0.85495 0.4827 0.0
C759 C 0.46794 0.8755 0.52386 0.0
C760 C 0.45442 0.87618 0.50737 0.0
C761 C 0.40716 0.87274 0.46425 0.0
C762 C 0.42464 0.87487 0.47831 0.0
H763 H 0.49637 0.84704 0.53796 0.0
H764 H 0.48164 0.85588 0.50954 0.0
H765 H 0.44085 0.8396 0.50044 0.0
H766 H 0.35042 0.83436 0.45361 0.0
H767 H 0.37829 0.8445 0.47925 0.0
C768 C 0.6041 0.46698 0.05995 0.0
C769 C 0.62817 0.48246 0.05771 0.0
C770 C 0.58954 0.4581 0.04428 0.0
C771 C 0.59288 0.44848 0.99326 0.0
H772 H 0.52602 0.4249 0.99615 0.0
C773 C 0.5299 0.40206 0.93167 0.0
C774 C 0.51568 0.37809 0.93571 0.0
C775 C 0.54166 0.41802 0.94609 0.0
C776 C 0.54469 0.43159 0.99519 0.0
H777 H 0.65574 0.50204 0.03751 0.0
H778 H 0.63013 0.48755 0.01005 0.0
H779 H 0.55144 0.44905 0.02171 0.0
H780 H 0.50129 0.35229 0.95806 0.0
H781 H 0.52153 0.38055 0.98343 0.0
H782 H 0.58594 0.4313 0.96651 0.0
C783 C 0.62257 0.48142 0.02386 0.0
C784 C 0.55927 0.44524 0.00983 0.0
C785 C 0.63726 0.48988 0.03956 0.0
C786 C 0.51223 0.37063 0.95456 0.0
C787 C 0.52366 0.38673 0.96903 0.0
C788 C 0.57838 0.43536 0.97846 0.0
C789 C 0.59861 0.4649 0.02598 0.0
C790 C 0.5835 0.45331 0.00931 0.0
C791 C 0.53896 0.41037 0.96479 0.0
C792 C 0.55417 0.42639 0.97953 0.0
H793 H 0.59662 0.46083 0.07379 0.0
H794 H 0.57138 0.44511 0.04661 0.0
H795 H 0.61127 0.45388 0.99239 0.0
H796 H 0.53297 0.40836 0.91728 0.0
H797 H 0.55348 0.43621 0.94259 0.0
C798 C 0.14889 0.50974 0.45392 0.0
C799 C 0.14801 0.51796 0.43591 0.0
C800 C 0.14274 0.51811 0.4697 0.0
C801 C 0.1179 0.55608 0.48433 0.0
H802 H 0.1575 0.56693 0.52787 0.0
C803 C 0.14806 0.62911 0.54146 0.0
C804 C 0.14351 0.6209 0.5601 0.0
C805 C 0.14271 0.61343 0.52654 0.0
C806 C 0.14616 0.56374 0.51586 0.0
H807 H 0.13958 0.54086 0.42008 0.0
H808 H 0.1303 0.55653 0.4475 0.0
H809 H 0.15948 0.54457 0.50152 0.0
H810 H 0.12873 0.58978 0.5777 0.0
H811 H 0.12021 0.56265 0.55162 0.0
H812 H 0.10613 0.5771 0.49849 0.0
C813 C 0.13474 0.54297 0.44962 0.0
C814 C 0.14708 0.55074 0.50078 0.0
C815 C 0.14026 0.53413 0.43385 0.0
C816 C 0.13247 0.59668 0.56349 0.0
C817 C 0.12756 0.58111 0.54863 0.0
C818 C 0.11744 0.56962 0.49928 0.0
C819 C 0.13629 0.5354 0.46781 0.0
C820 C 0.13321 0.54698 0.48467 0.0
C821 C 0.13309 0.58945 0.53014 0.0
C822 C 0.13175 0.57367 0.51501 0.0
H823 H 0.15452 0.49701 0.45579 0.0
H824 H 0.14353 0.51134 0.4834 0.0
H825 H 0.10656 0.55314 0.47239 0.0
H826 H 0.15642 0.64767 0.53845 0.0
H827 H 0.14725 0.62014 0.51231 0.0
C828 C 0.58247 0.11893 0.93625 0.0
C829 C 0.60614 0.12542 0.93767 0.0
C830 C 0.56828 0.11212 0.95228 0.0
C831 C 0.53854 0.0942 0.98721 0.0
H832 H 0.57034 0.12747 0.03264 0.0
C833 C 0.5172 0.11183 0.06797 0.0
C834 C 0.50742 0.126 0.06414 0.0
C835 C 0.52561 0.10399 0.05322 0.0
C836 C 0.56126 0.11768 0.02016 0.0
H837 H 0.6332 0.12811 0.95643 0.0
H838 H 0.60815 0.11456 0.98417 0.0
H839 H 0.59317 0.12909 0.00538 0.0
H840 H 0.49714 0.14179 0.04219 0.0
H841 H 0.51088 0.12718 0.01633 0.0
H842 H 0.50656 0.08492 0.00186 0.0
C843 C 0.60065 0.11589 0.971 0.0
C844 C 0.57433 0.11847 0.00446 0.0
C845 C 0.61501 0.12343 0.95507 0.0
C846 C 0.50447 0.1307 0.04539 0.0
C847 C 0.51225 0.12233 0.03066 0.0
C848 C 0.52547 0.09398 0.00281 0.0
C849 C 0.57729 0.11103 0.97002 0.0
C850 C 0.56322 0.10721 0.98754 0.0
C851 C 0.52369 0.1097 0.0345 0.0
C852 C 0.53678 0.10608 0.01927 0.0
H853 H 0.57529 0.12051 0.92297 0.0
H854 H 0.55061 0.10895 0.95079 0.0
H855 H 0.52922 0.08475 0.97472 0.0
H856 H 0.51994 0.10832 0.08237 0.0
H857 H 0.53458 0.09444 0.05645 0.0
C858 C 0.37452 0.51618 0.54177 0.0
C859 C 0.38057 0.51106 0.55936 0.0
C860 C 0.38998 0.5227 0.52666 0.0
C861 C 0.45188 0.55417 0.51749 0.0
H862 H 0.43096 0.53851 0.46577 0.0
C863 C 0.48713 0.61994 0.45709 0.0
C864 C 0.48739 0.61234 0.43865 0.0
C865 C 0.4793 0.60408 0.47203 0.0
C866 C 0.43737 0.54279 0.48009 0.0
H867 H 0.40705 0.50765 0.57478 0.0
H868 H 0.43455 0.51969 0.54824 0.0
H869 H 0.40574 0.51446 0.49129 0.0
H870 H 0.48136 0.58248 0.42168 0.0
H871 H 0.4676 0.55477 0.44785 0.0
H872 H 0.48306 0.58319 0.50631 0.0
C873 C 0.41771 0.51846 0.54622 0.0
C874 C 0.42282 0.5291 0.49471 0.0
C875 C 0.40198 0.51151 0.56134 0.0
C876 C 0.48117 0.58886 0.43569 0.0
C877 C 0.47322 0.57296 0.45066 0.0
C878 C 0.46643 0.56794 0.50286 0.0
C879 C 0.41198 0.52452 0.52884 0.0
C880 C 0.4295 0.53525 0.51356 0.0
C881 C 0.47152 0.58027 0.46889 0.0
C882 C 0.45889 0.56296 0.48404 0.0
H883 H 0.35803 0.51578 0.53982 0.0
H884 H 0.38517 0.52754 0.51352 0.0
H885 H 0.45746 0.55937 0.53189 0.0
H886 H 0.49204 0.63796 0.45989 0.0
H887 H 0.47801 0.61028 0.48586 0.0
C888 C 0.25888 0.53791 0.13114 0.0
C889 C 0.24412 0.51461 0.12553 0.0
C890 C 0.28214 0.54581 0.13593 0.0
C891 C 0.32878 0.53474 0.12308 0.0
H892 H 0.36427 0.5848 0.15869 0.0
C893 C 0.42055 0.60919 0.10803 0.0
C894 C 0.43781 0.61737 0.12212 0.0
C895 C 0.39761 0.59212 0.11203 0.0
C896 C 0.35461 0.57051 0.14895 0.0
H897 H 0.24179 0.48093 0.12161 0.0
H898 H 0.28275 0.49488 0.12981 0.0
H899 H 0.32155 0.56235 0.16089 0.0
H900 H 0.44456 0.61394 0.15148 0.0
H901 H 0.40378 0.58425 0.15867 0.0
H902 H 0.36172 0.5437 0.11055 0.0
C903 C 0.27621 0.507 0.13046 0.0
C904 C 0.33017 0.55779 0.1501 0.0
C905 C 0.25277 0.499 0.12584 0.0
C906 C 0.4316 0.60793 0.14036 0.0
C907 C 0.40835 0.59102 0.14447 0.0
C908 C 0.35315 0.54754 0.12187 0.0
C909 C 0.29129 0.53064 0.1351 0.0
C910 C 0.31696 0.54039 0.13671 0.0
C911 C 0.39118 0.58295 0.13028 0.0
C912 C 0.36623 0.56616 0.13431 0.0
H913 H 0.25267 0.55032 0.13121 0.0
H914 H 0.2933 0.56417 0.13922 0.0
H915 H 0.31916 0.52157 0.11249 0.0
H916 H 0.42476 0.61595 0.0938 0.0
H917 H 0.3847 0.58654 0.10089 0.0
C918 C 0.77704 0.41254 0.61144 0.0
C919 C 0.80098 0.42761 0.61491 0.0
C920 C 0.76622 0.38906 0.61682 0.0
C921 C 0.77984 0.34246 0.62671 0.0
H922 H 0.71459 0.30847 0.64163 0.0
C923 C 0.72798 0.24143 0.63311 0.0
C924 C 0.70791 0.23172 0.62171 0.0
C925 C 0.73967 0.26538 0.63739 0.0
C926 C 0.73288 0.31777 0.63763 0.0
H927 H 0.8321 0.43 0.62746 0.0
H928 H 0.81312 0.38907 0.63701 0.0
H929 H 0.73487 0.35107 0.63949 0.0
H930 H 0.68343 0.23884 0.60688 0.0
H931 H 0.70347 0.28026 0.61453 0.0
H932 H 0.77757 0.30903 0.62434 0.0
C933 C 0.80283 0.39533 0.62982 0.0
C934 C 0.74446 0.34213 0.63629 0.0
C935 C 0.81368 0.41881 0.62438 0.0
C936 C 0.69901 0.24595 0.61556 0.0
C937 C 0.71036 0.26963 0.62009 0.0
C938 C 0.76828 0.31808 0.62817 0.0
C939 C 0.77903 0.38011 0.62591 0.0
C940 C 0.76784 0.3547 0.63017 0.0
C941 C 0.73108 0.27972 0.63069 0.0
C942 C 0.74448 0.30547 0.63302 0.0
H943 H 0.76672 0.41873 0.60421 0.0
H944 H 0.74796 0.37777 0.6133 0.0
H945 H 0.79779 0.35155 0.62183 0.0
H946 H 0.73517 0.23078 0.63801 0.0
H947 H 0.75561 0.27278 0.64562 0.0
C948 C 0.46674 0.71334 0.13998 0.0
C949 C 0.48721 0.72324 0.12913 0.0
C950 C 0.45504 0.72571 0.14322 0.0
C951 C 0.42364 0.7447 0.13342 0.0
H952 H 0.45215 0.81213 0.13076 0.0
C953 C 0.37218 0.78777 0.10707 0.0
C954 C 0.37736 0.80967 0.11422 0.0
C955 C 0.38577 0.77787 0.11213 0.0
C956 C 0.44381 0.79328 0.13184 0.0
H957 H 0.51229 0.75406 0.11387 0.0
H958 H 0.49136 0.7753 0.11863 0.0
H959 H 0.47662 0.79479 0.13608 0.0
H960 H 0.40032 0.83803 0.13279 0.0
H961 H 0.42356 0.82037 0.14217 0.0
H962 H 0.39081 0.74314 0.12977 0.0
C963 C 0.48459 0.75838 0.12528 0.0
C964 C 0.45793 0.7833 0.13463 0.0
C965 C 0.49663 0.74621 0.12249 0.0
C966 C 0.39608 0.82123 0.12688 0.0
C967 C 0.40947 0.81115 0.13219 0.0
C968 C 0.40953 0.75467 0.13098 0.0
C969 C 0.46315 0.74792 0.1351 0.0
C970 C 0.4481 0.75884 0.13495 0.0
C971 C 0.40461 0.78942 0.12475 0.0
C972 C 0.41946 0.77905 0.12958 0.0
H973 H 0.45929 0.69565 0.14532 0.0
H974 H 0.43905 0.71737 0.15139 0.0
H975 H 0.41529 0.72581 0.13331 0.0
H976 H 0.35795 0.77849 0.0972 0.0
H977 H 0.38176 0.76137 0.10577 0.0
C978 C 0.74344 0.48159 0.60047 0.0
C979 C 0.76083 0.48759 0.61422 0.0
C980 C 0.71995 0.47152 0.60561 0.0
C981 C 0.67253 0.46022 0.62204 0.0
H982 H 0.64827 0.40162 0.6492 0.0
C983 C 0.57328 0.39812 0.63352 0.0
C984 C 0.566 0.37602 0.62558 0.0
C985 C 0.5971 0.41365 0.63683 0.0
C986 C 0.65484 0.41812 0.64186 0.0
H987 H 0.76736 0.48815 0.64417 0.0
H988 H 0.72591 0.46973 0.65317 0.0
H989 H 0.69063 0.42717 0.64575 0.0
H990 H 0.57748 0.35222 0.61604 0.0
H991 H 0.61886 0.379 0.62233 0.0
H992 H 0.63676 0.45081 0.61757 0.0
C993 C 0.73065 0.47322 0.63844 0.0
C994 C 0.67904 0.43277 0.63997 0.0
C995 C 0.7543 0.48382 0.6333 0.0
C996 C 0.58267 0.36919 0.62213 0.0
C997 C 0.60632 0.38446 0.62582 0.0
C998 C 0.64836 0.44578 0.62421 0.0
C999 C 0.71327 0.46681 0.6246 0.0
C1000 C 0.68806 0.45358 0.62951 0.0
C1001 C 0.61386 0.40707 0.6327 0.0
C1002 C 0.63927 0.42424 0.63362 0.0
H1003 H 0.74796 0.48435 0.58566 0.0
H1004 H 0.70689 0.46653 0.59465 0.0
H1005 H 0.67907 0.47622 0.61396 0.0
H1006 H 0.56077 0.40385 0.63618 0.0
H1007 H 0.6025 0.43101 0.64216 0.0
C1008 C 0.22116 0.58798 0.11928 0.0
C1009 C 0.19866 0.57124 0.12537 0.0
C1010 C 0.2305 0.61152 0.12379 0.0
C1011 C 0.21273 0.65454 0.13394 0.0
H1012 H 0.27967 0.69473 0.14038 0.0
C1013 C 0.26303 0.75744 0.13038 0.0
C1014 C 0.28022 0.76544 0.11619 0.0
C1015 C 0.25192 0.73398 0.13625 0.0
C1016 C 0.2609 0.68372 0.13882 0.0
H1017 H 0.16859 0.56594 0.14162 0.0
H1018 H 0.18501 0.60752 0.1495 0.0
H1019 H 0.26234 0.65244 0.14334 0.0
H1020 H 0.29962 0.75532 0.09744 0.0
H1021 H 0.28069 0.7149 0.10791 0.0
H1022 H 0.21163 0.68607 0.12878 0.0
C1023 C 0.19533 0.60224 0.14116 0.0
C1024 C 0.25098 0.65953 0.14044 0.0
C1025 C 0.18601 0.57847 0.13676 0.0
C1026 C 0.28629 0.7497 0.10826 0.0
C1027 C 0.27562 0.72657 0.11436 0.0
C1028 C 0.22269 0.67888 0.13249 0.0
C1029 C 0.21759 0.61906 0.13448 0.0
C1030 C 0.22695 0.64458 0.13715 0.0
C1031 C 0.25834 0.71845 0.12838 0.0
C1032 C 0.247 0.69356 0.13413 0.0
H1033 H 0.23141 0.58295 0.11057 0.0
H1034 H 0.24751 0.62395 0.11815 0.0
H1035 H 0.19418 0.64353 0.13125 0.0
H1036 H 0.25804 0.76921 0.13676 0.0
H1037 H 0.23857 0.72804 0.14706 0.0
C1038 C 0.61802 0.20074 0.62175 0.0
C1039 C 0.60943 0.17691 0.61805 0.0
C1040 C 0.60285 0.20864 0.62716 0.0
C1041 C 0.54312 0.19561 0.62121 0.0
H1042 H 0.56098 0.2446 0.65848 0.0
C1043 C 0.49534 0.24835 0.62617 0.0
C1044 C 0.51088 0.27263 0.62569 0.0
C1045 C 0.50359 0.23299 0.63026 0.0
C1046 C 0.55567 0.23086 0.64808 0.0
H1047 H 0.57827 0.14256 0.61751 0.0
H1048 H 0.55159 0.15657 0.62664 0.0
H1049 H 0.58309 0.22414 0.65595 0.0
H1050 H 0.54682 0.2999 0.63042 0.0
H1051 H 0.56114 0.27332 0.63734 0.0
H1052 H 0.51662 0.20325 0.61254 0.0
C1053 C 0.57012 0.16903 0.62542 0.0
C1054 C 0.56831 0.21915 0.64666 0.0
C1055 C 0.58538 0.16104 0.62024 0.0
C1056 C 0.53444 0.28127 0.63052 0.0
C1057 C 0.54261 0.266 0.63468 0.0
C1058 C 0.53056 0.20744 0.62254 0.0
C1059 C 0.57873 0.19293 0.62883 0.0
C1060 C 0.56269 0.20202 0.63275 0.0
C1061 C 0.52745 0.24166 0.63411 0.0
C1062 C 0.53729 0.22581 0.63551 0.0
H1063 H 0.63648 0.21338 0.62032 0.0
H1064 H 0.60994 0.22721 0.62943 0.0
H1065 H 0.53849 0.18255 0.61029 0.0
H1066 H 0.47707 0.24119 0.62255 0.0
H1067 H 0.49146 0.21432 0.62987 0.0
C1068 C 0.37114 0.58816 0.87892 0.0
C1069 C 0.37716 0.57155 0.87302 0.0
C1070 C 0.38435 0.61142 0.87326 0.0
C1071 C 0.44305 0.65579 0.86059 0.0
H1072 H 0.41216 0.69099 0.84838 0.0
C1073 C 0.49107 0.75785 0.86071 0.0
C1074 C 0.47961 0.76589 0.87266 0.0
C1075 C 0.47979 0.73428 0.85509 0.0
C1076 C 0.4211 0.6814 0.85158 0.0
H1077 H 0.40159 0.56621 0.8563 0.0
H1078 H 0.42523 0.6074 0.8467 0.0
H1079 H 0.38964 0.64834 0.84887 0.0
H1080 H 0.44713 0.75608 0.88729 0.0
H1081 H 0.42757 0.7155 0.8774 0.0
H1082 H 0.47426 0.68902 0.86437 0.0
C1083 C 0.41008 0.60217 0.85561 0.0
C1084 C 0.40821 0.65701 0.85188 0.0
C1085 C 0.39655 0.57866 0.86105 0.0
C1086 C 0.45649 0.75034 0.87821 0.0
C1087 C 0.44518 0.72711 0.87238 0.0
C1088 C 0.456 0.68029 0.86033 0.0
C1089 C 0.40409 0.61876 0.86171 0.0
C1090 C 0.41882 0.64399 0.8572 0.0
C1091 C 0.45674 0.71869 0.86098 0.0
C1092 C 0.44486 0.69331 0.85665 0.0
H1093 H 0.35621 0.5832 0.88803 0.0
H1094 H 0.37948 0.62385 0.87841 0.0
H1095 H 0.45166 0.64618 0.86478 0.0
H1096 H 0.50892 0.76952 0.85625 0.0
H1097 H 0.48908 0.7282 0.8463 0.0
C1098 C 0.74567 0.49921 0.36758 0.0
C1099 C 0.72176 0.48357 0.37073 0.0
C1100 C 0.76055 0.49081 0.36227 0.0
C1101 C 0.76103 0.43788 0.34494 0.0
H1102 H 0.81487 0.45893 0.37771 0.0
C1103 C 0.79662 0.37907 0.36847 0.0
C1104 C 0.82075 0.38857 0.37133 0.0
C1105 C 0.78769 0.39337 0.36303 0.0
C1106 C 0.80026 0.45321 0.3681 0.0
H1107 H 0.69443 0.44709 0.36966 0.0
H1108 H 0.72028 0.43253 0.36062 0.0
H1109 H 0.79322 0.47987 0.37745 0.0
H1110 H 0.85459 0.42033 0.36994 0.0
H1111 H 0.83886 0.44542 0.36056 0.0
H1112 H 0.76738 0.41046 0.33635 0.0
C1113 C 0.72761 0.45124 0.36212 0.0
C1114 C 0.78785 0.46523 0.36795 0.0
C1115 C 0.71282 0.45958 0.36751 0.0
C1116 C 0.83589 0.41252 0.36791 0.0
C1117 C 0.82691 0.42689 0.3626 0.0
C1118 C 0.77341 0.42585 0.34512 0.0
C1119 C 0.75171 0.46668 0.35985 0.0
C1120 C 0.76757 0.45712 0.35692 0.0
C1121 C 0.80267 0.4175 0.36041 0.0
C1122 C 0.7926 0.43286 0.35725 0.0
H1123 H 0.75305 0.51781 0.36986 0.0
H1124 H 0.77904 0.50311 0.36049 0.0
H1125 H 0.74572 0.43151 0.33603 0.0
H1126 H 0.78451 0.36064 0.37084 0.0
H1127 H 0.76891 0.38565 0.36171 0.0
C1128 C 0.24875 0.71285 0.86769 0.0
C1129 C 0.23481 0.72298 0.87134 0.0
C1130 C 0.2723 0.72677 0.86306 0.0
C1131 C 0.32099 0.78559 0.87142 0.0
H1132 H 0.35408 0.76374 0.83978 0.0
C1133 C 0.42173 0.83095 0.87119 0.0
C1134 C 0.43022 0.81546 0.8742 0.0
C1135 C 0.39832 0.82243 0.8663 0.0
C1136 C 0.34507 0.77011 0.84861 0.0
H1137 H 0.23433 0.75558 0.87192 0.0
H1138 H 0.27574 0.78007 0.86375 0.0
H1139 H 0.31143 0.74398 0.83862 0.0
H1140 H 0.42112 0.77899 0.87348 0.0
H1141 H 0.38036 0.76417 0.865 0.0
H1142 H 0.35459 0.8112 0.88188 0.0
C1143 C 0.26837 0.7613 0.86469 0.0
C1144 C 0.32067 0.75882 0.84795 0.0
C1145 C 0.24466 0.74729 0.86926 0.0
C1146 C 0.4151 0.79138 0.87139 0.0
C1147 C 0.39178 0.7829 0.86637 0.0
C1148 C 0.34541 0.79695 0.87201 0.0
C1149 C 0.28255 0.75121 0.86195 0.0
C1150 C 0.30832 0.76591 0.85984 0.0
C1151 C 0.38303 0.79828 0.86412 0.0
C1152 C 0.35763 0.78882 0.86108 0.0
H1153 H 0.24165 0.69414 0.869 0.0
H1154 H 0.28272 0.71841 0.86129 0.0
H1155 H 0.31204 0.79136 0.88091 0.0
H1156 H 0.43295 0.84961 0.87317 0.0
H1157 H 0.39209 0.83469 0.86452 0.0
C1158 C 0.62799 0.41416 0.37873 0.0
C1159 C 0.62134 0.4302 0.37251 0.0
C1160 C 0.6147 0.39055 0.37416 0.0
C1161 C 0.55508 0.34521 0.36376 0.0
H1162 H 0.58557 0.30863 0.35588 0.0
C1163 C 0.50788 0.2425 0.36661 0.0
C1164 C 0.51841 0.23516 0.38015 0.0
C1165 C 0.51892 0.26603 0.36091 0.0
C1166 C 0.57676 0.31861 0.35786 0.0
H1167 H 0.59585 0.43417 0.35612 0.0
H1168 H 0.57215 0.39235 0.34823 0.0
H1169 H 0.60827 0.35116 0.35343 0.0
H1170 H 0.54897 0.2465 0.39792 0.0
H1171 H 0.56822 0.28708 0.38778 0.0
H1172 H 0.52371 0.31244 0.36891 0.0
C1173 C 0.5878 0.39829 0.35666 0.0
C1174 C 0.58974 0.34294 0.35651 0.0
C1175 C 0.60139 0.42217 0.36107 0.0
C1176 C 0.54027 0.25161 0.3876 0.0
C1177 C 0.55142 0.27483 0.38167 0.0
C1178 C 0.542 0.32074 0.36499 0.0
C1179 C 0.59427 0.38221 0.3633 0.0
C1180 C 0.57932 0.35658 0.36031 0.0
C1181 C 0.5409 0.28232 0.36832 0.0
C1182 C 0.553 0.30734 0.36285 0.0
H1183 H 0.64336 0.41982 0.38746 0.0
H1184 H 0.62001 0.37866 0.37977 0.0
H1185 H 0.54657 0.35524 0.36683 0.0
H1186 H 0.49105 0.23017 0.36062 0.0
H1187 H 0.51046 0.27144 0.35062 0.0
C1188 C 0.16776 0.59975 0.86401 0.0
C1189 C 0.18239 0.62148 0.87259 0.0
C1190 C 0.17654 0.585 0.85915 0.0
C1191 C 0.23038 0.58437 0.84837 0.0
H1192 H 0.20432 0.52571 0.87566 0.0
C1193 C 0.28619 0.54501 0.86991 0.0
C1194 C 0.27655 0.5207 0.87184 0.0
C1195 C 0.27222 0.55443 0.8649 0.0
C1196 C 0.2115 0.54169 0.8675 0.0
H1197 H 0.21772 0.64535 0.88201 0.0
H1198 H 0.23318 0.62003 0.87297 0.0
H1199 H 0.18379 0.54794 0.87572 0.0
H1200 H 0.24474 0.48714 0.86911 0.0
H1201 H 0.22014 0.50373 0.86016 0.0
H1202 H 0.25832 0.5786 0.84045 0.0
C1203 C 0.21493 0.61423 0.87022 0.0
C1204 C 0.19973 0.55442 0.86758 0.0
C1205 C 0.20607 0.62864 0.87549 0.0
C1206 C 0.25268 0.50594 0.86782 0.0
C1207 C 0.23858 0.51545 0.86279 0.0
C1208 C 0.24194 0.57153 0.84805 0.0
C1209 C 0.2002 0.59214 0.8623 0.0
C1210 C 0.20961 0.57632 0.85867 0.0
C1211 C 0.24816 0.53987 0.86155 0.0
C1212 C 0.23323 0.55058 0.85835 0.0
H1213 H 0.14939 0.59381 0.86174 0.0
H1214 H 0.16487 0.56798 0.85311 0.0
H1215 H 0.23818 0.60111 0.84123 0.0
H1216 H 0.30455 0.55694 0.87276 0.0
H1217 H 0.28021 0.5733 0.86444 0.0
C1218 C 0.58884 0.21688 0.38349 0.0
C1219 C 0.57402 0.19263 0.38134 0.0
C1220 C 0.61234 0.22749 0.37822 0.0
C1221 C 0.65988 0.2145 0.37125 0.0
H1222 H 0.6921 0.27776 0.35149 0.0
C1223 C 0.76097 0.2684 0.36368 0.0
C1224 C 0.77021 0.28975 0.37339 0.0
C1225 C 0.73692 0.25545 0.35973 0.0
C1226 C 0.6833 0.26001 0.35686 0.0
H1227 H 0.57219 0.16064 0.37142 0.0
H1228 H 0.61324 0.17927 0.36213 0.0
H1229 H 0.64953 0.25673 0.354 0.0
H1230 H 0.76212 0.31501 0.38553 0.0
H1231 H 0.7206 0.2928 0.37841 0.0
H1232 H 0.69383 0.21816 0.37464 0.0
C1233 C 0.6067 0.18999 0.36812 0.0
C1234 C 0.65895 0.24802 0.35841 0.0
C1235 C 0.58316 0.17934 0.3734 0.0
C1236 C 0.75539 0.2985 0.37815 0.0
C1237 C 0.73164 0.28587 0.37393 0.0
C1238 C 0.68427 0.22649 0.36962 0.0
C1239 C 0.62162 0.21417 0.3706 0.0
C1240 C 0.64702 0.22544 0.36624 0.0
C1241 C 0.72202 0.264 0.36504 0.0
C1242 C 0.69626 0.24966 0.36302 0.0
H1243 H 0.5824 0.22767 0.3895 0.0
H1244 H 0.6234 0.2461 0.38062 0.0
H1245 H 0.65127 0.19719 0.37745 0.0
H1246 H 0.77207 0.26129 0.35991 0.0
H1247 H 0.72991 0.23862 0.35284 0.0
C1248 C 0.56881 0.396 0.86496 0.0
C1249 C 0.5599 0.37326 0.8721 0.0
C1250 C 0.59297 0.41036 0.86209 0.0
C1251 C 0.64698 0.41624 0.8819 0.0
H1252 H 0.67908 0.46445 0.84419 0.0
C1253 C 0.7417 0.48493 0.89341 0.0
C1254 C 0.75726 0.48907 0.8785 0.0
C1255 C 0.71767 0.47334 0.89029 0.0
C1256 C 0.67032 0.45097 0.85474 0.0
H1257 H 0.56854 0.34682 0.88006 0.0
H1258 H 0.6103 0.37132 0.87434 0.0
H1259 H 0.63669 0.43754 0.84151 0.0
H1260 H 0.76007 0.48571 0.84842 0.0
H1261 H 0.71759 0.46471 0.84294 0.0
H1262 H 0.68018 0.42911 0.89506 0.0
C1263 C 0.59901 0.37853 0.87163 0.0
C1264 C 0.64607 0.43568 0.85328 0.0
C1265 C 0.57509 0.36443 0.87479 0.0
C1266 C 0.74839 0.48273 0.86014 0.0
C1267 C 0.72412 0.47075 0.85702 0.0
C1268 C 0.67097 0.43138 0.88336 0.0
C1269 C 0.60841 0.40202 0.86614 0.0
C1270 C 0.63416 0.41811 0.86687 0.0
C1271 C 0.70852 0.46519 0.87223 0.0
C1272 C 0.68294 0.44908 0.86995 0.0
H1273 H 0.55739 0.40318 0.86286 0.0
H1274 H 0.59965 0.42837 0.85786 0.0
H1275 H 0.6384 0.40325 0.89285 0.0
H1276 H 0.7481 0.48999 0.90767 0.0
H1277 H 0.70616 0.46994 0.90221 0.0
C1278 C 0.26654 0.7521 0.35604 0.0
C1279 C 0.26604 0.75901 0.37466 0.0
C1280 C 0.25449 0.72832 0.35118 0.0
C1281 C 0.24524 0.67751 0.35328 0.0
H1282 H 0.18278 0.63375 0.37126 0.0
C1283 C 0.21521 0.58312 0.37601 0.0
C1284 C 0.19262 0.56527 0.37115 0.0
C1285 C 0.2227 0.60639 0.37141 0.0
C1286 C 0.20008 0.64573 0.36586 0.0
H1287 H 0.25152 0.74685 0.40248 0.0
H1288 H 0.22999 0.70557 0.39391 0.0
H1289 H 0.19701 0.67581 0.37236 0.0
H1290 H 0.16038 0.55768 0.35714 0.0
H1291 H 0.17336 0.59863 0.34949 0.0
H1292 H 0.24882 0.64749 0.34783 0.0
C1293 C 0.23979 0.71836 0.38309 0.0
C1294 C 0.20825 0.66978 0.36657 0.0
C1295 C 0.2522 0.74197 0.38802 0.0
C1296 C 0.17791 0.57107 0.36103 0.0
C1297 C 0.18528 0.59447 0.35672 0.0
C1298 C 0.2372 0.65347 0.35283 0.0
C1299 C 0.24132 0.71121 0.36478 0.0
C1300 C 0.23112 0.68591 0.36075 0.0
C1301 C 0.20765 0.61238 0.36209 0.0
C1302 C 0.21476 0.63739 0.35957 0.0
H1303 H 0.27727 0.76493 0.34554 0.0
H1304 H 0.25594 0.72323 0.33697 0.0
H1305 H 0.26301 0.68956 0.34886 0.0
H1306 H 0.22697 0.57916 0.38373 0.0
H1307 H 0.23994 0.61983 0.3759 0.0
C1308 C 0.53038 0.28138 0.87019 0.0
C1309 C 0.50636 0.27237 0.87337 0.0
C1310 C 0.53892 0.26671 0.86503 0.0
C1311 C 0.52503 0.20581 0.86958 0.0
H1312 H 0.58284 0.22998 0.84127 0.0
C1313 C 0.58291 0.16158 0.86545 0.0
C1314 C 0.60418 0.1762 0.87467 0.0
C1315 C 0.56804 0.17015 0.86039 0.0
C1316 C 0.56648 0.22283 0.84893 0.0
H1317 H 0.47228 0.24091 0.87269 0.0
H1318 H 0.4873 0.21507 0.86345 0.0
H1319 H 0.56074 0.25054 0.84025 0.0
H1320 H 0.62714 0.21127 0.88509 0.0
H1321 H 0.60165 0.22641 0.87561 0.0
H1322 H 0.53131 0.17836 0.87854 0.0
C1323 C 0.49951 0.23357 0.86522 0.0
C1324 C 0.55391 0.23466 0.8485 0.0
C1325 C 0.4909 0.24837 0.87042 0.0
C1326 C 0.61079 0.19965 0.87805 0.0
C1327 C 0.5963 0.20832 0.87256 0.0
C1328 C 0.53745 0.19375 0.86975 0.0
C1329 C 0.52371 0.24255 0.86277 0.0
C1330 C 0.53367 0.22697 0.85958 0.0
C1331 C 0.57467 0.19359 0.86397 0.0
C1332 C 0.55878 0.20276 0.86007 0.0
H1333 H 0.54281 0.2998 0.87218 0.0
H1334 H 0.55767 0.27428 0.86364 0.0
H1335 H 0.50961 0.19943 0.87836 0.0
H1336 H 0.57742 0.14339 0.8628 0.0
H1337 H 0.55135 0.1585 0.85385 0.0
C1338 C 0.25128 0.49647 0.36534 0.0
C1339 C 0.24305 0.51211 0.36874 0.0
C1340 C 0.27459 0.5049 0.35997 0.0
C1341 C 0.32849 0.55923 0.34403 0.0
H1342 H 0.36105 0.53568 0.37445 0.0
C1343 C 0.41841 0.61519 0.37657 0.0
C1344 C 0.4356 0.6089 0.37386 0.0
C1345 C 0.3957 0.6008 0.37007 0.0
C1346 C 0.35215 0.54207 0.36551 0.0
H1347 H 0.25244 0.54867 0.36805 0.0
H1348 H 0.29272 0.56324 0.35916 0.0
H1349 H 0.31833 0.51416 0.3734 0.0
H1350 H 0.4428 0.58287 0.36209 0.0
H1351 H 0.4023 0.55686 0.35137 0.0
H1352 H 0.36237 0.58826 0.33761 0.0
C1353 C 0.28135 0.54449 0.36036 0.0
C1354 C 0.32768 0.52976 0.36485 0.0
C1355 C 0.25821 0.53612 0.36571 0.0
C1356 C 0.42979 0.58807 0.36426 0.0
C1357 C 0.40676 0.57326 0.35818 0.0
C1358 C 0.35288 0.57168 0.34494 0.0
C1359 C 0.29002 0.52909 0.35779 0.0
C1360 C 0.31555 0.53879 0.3548 0.0
C1361 C 0.38959 0.57957 0.36109 0.0
C1362 C 0.36481 0.56365 0.35626 0.0
H1363 H 0.23998 0.47785 0.36747 0.0
H1364 H 0.28067 0.49255 0.35794 0.0
H1365 H 0.31973 0.56636 0.33576 0.0
H1366 H 0.42251 0.63122 0.38385 0.0
H1367 H 0.38266 0.60588 0.37264 0.0
C1368 C 0.77564 0.4153 0.87631 0.0
C1369 C 0.80008 0.42977 0.8758 0.0
C1370 C 0.76536 0.3914 0.87252 0.0
C1371 C 0.77807 0.3437 0.87545 0.0
H1372 H 0.71989 0.3091 0.84786 0.0
C1373 C 0.72833 0.2428 0.87299 0.0
C1374 C 0.70432 0.23248 0.87699 0.0
C1375 C 0.74152 0.26667 0.86868 0.0
C1376 C 0.73613 0.31851 0.85563 0.0
H1377 H 0.83285 0.43059 0.87027 0.0
H1378 H 0.81485 0.38884 0.86377 0.0
H1379 H 0.74013 0.35179 0.84824 0.0
H1380 H 0.6751 0.23886 0.87855 0.0
H1381 H 0.698 0.28019 0.8714 0.0
H1382 H 0.77363 0.31051 0.88355 0.0
C1383 C 0.80369 0.39601 0.86721 0.0
C1384 C 0.7477 0.34293 0.85583 0.0
C1385 C 0.81396 0.41993 0.87086 0.0
C1386 C 0.69361 0.24625 0.87572 0.0
C1387 C 0.70672 0.26998 0.8714 0.0
C1388 C 0.76644 0.31927 0.87535 0.0
C1389 C 0.77931 0.38144 0.86825 0.0
C1390 C 0.7685 0.35575 0.86611 0.0
C1391 C 0.73091 0.28059 0.86817 0.0
C1392 C 0.74502 0.30639 0.86584 0.0
H1393 H 0.76444 0.42234 0.87997 0.0
H1394 H 0.74653 0.38056 0.87361 0.0
H1395 H 0.79397 0.35311 0.88365 0.0
H1396 H 0.73708 0.23263 0.87375 0.0
H1397 H 0.76009 0.27429 0.86604 0.0
C1398 C 0.39079 0.81248 0.37288 0.0
C1399 C 0.36719 0.79863 0.37823 0.0
C1400 C 0.4045 0.80228 0.36931 0.0
C1401 C 0.40223 0.74649 0.35879 0.0
H1402 H 0.46173 0.77462 0.38502 0.0
C1403 C 0.44919 0.6958 0.37665 0.0
C1404 C 0.47377 0.70754 0.37755 0.0
C1405 C 0.43749 0.70798 0.37277 0.0
C1406 C 0.44544 0.7668 0.37723 0.0
H1407 H 0.33926 0.76305 0.38321 0.0
H1408 H 0.36332 0.74523 0.37702 0.0
H1409 H 0.43837 0.79374 0.38569 0.0
H1410 H 0.50537 0.74112 0.37396 0.0
H1411 H 0.48483 0.76247 0.36691 0.0
H1412 H 0.40913 0.71934 0.35056 0.0
C1413 C 0.37112 0.764 0.37555 0.0
C1414 C 0.432 0.77773 0.37768 0.0
C1415 C 0.35739 0.77423 0.37922 0.0
C1416 C 0.48643 0.7316 0.37351 0.0
C1417 C 0.47466 0.74384 0.36958 0.0
C1418 C 0.41575 0.73563 0.35822 0.0
C1419 C 0.39492 0.77799 0.37089 0.0
C1420 C 0.41004 0.76744 0.36881 0.0
C1421 C 0.45003 0.73222 0.36957 0.0
C1422 C 0.43727 0.74537 0.36782 0.0
H1423 H 0.39889 0.83132 0.37181 0.0
H1424 H 0.4227 0.81345 0.36551 0.0
H1425 H 0.38553 0.73836 0.35157 0.0
H1426 H 0.43885 0.67722 0.37953 0.0
H1427 H 0.41855 0.69849 0.37312 0.0
C1428 C 0.50818 0.24758 0.13313 0.0
C1429 C 0.51713 0.23891 0.11929 0.0
C1430 C 0.52062 0.27131 0.13824 0.0
C1431 C 0.57992 0.32225 0.13841 0.0
H1432 H 0.55157 0.36081 0.13078 0.0
C1433 C 0.63283 0.41697 0.11515 0.0
C1434 C 0.62754 0.43381 0.12184 0.0
C1435 C 0.61906 0.39354 0.12016 0.0
C1436 C 0.55963 0.35027 0.13344 0.0
H1437 H 0.54635 0.24806 0.10044 0.0
H1438 H 0.56799 0.28897 0.10954 0.0
H1439 H 0.52712 0.31809 0.13004 0.0
H1440 H 0.60395 0.43937 0.1395 0.0
H1441 H 0.57948 0.39796 0.14816 0.0
H1442 H 0.61251 0.35418 0.14107 0.0
C1443 C 0.55137 0.27762 0.11634 0.0
C1444 C 0.54563 0.32583 0.133 0.0
C1445 C 0.53885 0.25422 0.111 0.0
C1446 C 0.60844 0.42676 0.13412 0.0
C1447 C 0.5944 0.40309 0.13901 0.0
C1448 C 0.59384 0.34655 0.13895 0.0
C1449 C 0.54242 0.28646 0.12995 0.0
C1450 C 0.55586 0.31168 0.13467 0.0
C1451 C 0.59952 0.38623 0.13195 0.0
C1452 C 0.58403 0.36084 0.13563 0.0
H1453 H 0.49149 0.23615 0.13976 0.0
H1454 H 0.51335 0.27777 0.14875 0.0
H1455 H 0.58817 0.31168 0.14002 0.0
H1456 H 0.64751 0.42184 0.10577 0.0
H1457 H 0.6233 0.38099 0.11423 0.0
C1458 C 0.26049 0.50504 0.63401 0.0
C1459 C 0.27864 0.51507 0.62066 0.0
C1460 C 0.24897 0.51707 0.63972 0.0
C1461 C 0.25666 0.57629 0.642 0.0
H1462 H 0.19016 0.54768 0.63214 0.0
C1463 C 0.21503 0.62906 0.61778 0.0
C1464 C 0.19261 0.62344 0.62396 0.0
C1465 C 0.2247 0.61536 0.62301 0.0
C1466 C 0.20861 0.55578 0.63543 0.0
H1467 H 0.29959 0.5458 0.60347 0.0
H1468 H 0.27998 0.56668 0.6136 0.0
H1469 H 0.20888 0.52365 0.63148 0.0
H1470 H 0.1629 0.59932 0.64089 0.0
H1471 H 0.17983 0.57493 0.64987 0.0
H1472 H 0.25676 0.60857 0.64506 0.0
C1473 C 0.27442 0.54958 0.61957 0.0
C1474 C 0.21931 0.54202 0.63506 0.0
C1475 C 0.28551 0.53748 0.61363 0.0
C1476 C 0.18025 0.60408 0.63594 0.0
C1477 C 0.18987 0.59009 0.641 0.0
C1478 C 0.24601 0.58998 0.64243 0.0
C1479 C 0.25594 0.5395 0.63254 0.0
C1480 C 0.24362 0.55239 0.63751 0.0
C1481 C 0.21216 0.59554 0.63447 0.0
C1482 C 0.22209 0.5801 0.6383 0.0
H1483 H 0.25488 0.48778 0.63965 0.0
H1484 H 0.2347 0.50892 0.64972 0.0
H1485 H 0.27539 0.58465 0.64421 0.0
H1486 H 0.22506 0.64394 0.60863 0.0
H1487 H 0.24175 0.61986 0.61749 0.0
C1488 C 0.75182 0.29745 0.12632 0.0
C1489 C 0.76564 0.28714 0.1228 0.0
C1490 C 0.72792 0.28363 0.12975 0.0
C1491 C 0.67915 0.22509 0.11888 0.0
H1492 H 0.64428 0.24656 0.14867 0.0
C1493 C 0.57793 0.17718 0.11975 0.0
C1494 C 0.56844 0.19174 0.11625 0.0
C1495 C 0.60173 0.18681 0.12376 0.0
C1496 C 0.6538 0.24035 0.14032 0.0
H1497 H 0.76544 0.25423 0.12142 0.0
H1498 H 0.72353 0.22995 0.12776 0.0
H1499 H 0.68681 0.26639 0.15138 0.0
H1500 H 0.57636 0.22781 0.11477 0.0
H1501 H 0.61788 0.24459 0.12192 0.0
H1502 H 0.64608 0.19923 0.10766 0.0
C1503 C 0.73122 0.24879 0.12747 0.0
C1504 C 0.67815 0.25169 0.14184 0.0
C1505 C 0.75526 0.26269 0.124 0.0
C1506 C 0.58315 0.21612 0.1173 0.0
C1507 C 0.60688 0.22573 0.12154 0.0
C1508 C 0.65477 0.2136 0.11751 0.0
C1509 C 0.71716 0.2591 0.12987 0.0
C1510 C 0.6912 0.24465 0.13071 0.0
C1511 C 0.61645 0.21118 0.12462 0.0
C1512 C 0.64193 0.22153 0.12782 0.0
H1513 H 0.75929 0.31626 0.12566 0.0
H1514 H 0.71771 0.29224 0.13131 0.0
H1515 H 0.68859 0.21936 0.10991 0.0
H1516 H 0.56707 0.15832 0.11906 0.0
H1517 H 0.60864 0.1752 0.12617 0.0
C1518 C 0.45228 0.75121 0.62716 0.0
C1519 C 0.47671 0.76492 0.62531 0.0
C1520 C 0.44171 0.72729 0.63072 0.0
C1521 C 0.45223 0.67861 0.62253 0.0
H1522 H 0.39328 0.64343 0.6491 0.0
C1523 C 0.39928 0.57772 0.62118 0.0
C1524 C 0.3755 0.5682 0.61655 0.0
C1525 C 0.41291 0.60133 0.62599 0.0
C1526 C 0.40975 0.65303 0.64164 0.0
H1527 H 0.50933 0.76454 0.6271 0.0
H1528 H 0.49079 0.72262 0.63357 0.0
H1529 H 0.41567 0.68597 0.65209 0.0
H1530 H 0.34721 0.57582 0.61405 0.0
H1531 H 0.37106 0.61702 0.62239 0.0
H1532 H 0.44604 0.64572 0.61176 0.0
C1533 C 0.47982 0.73039 0.6319 0.0
C1534 C 0.42257 0.67738 0.64334 0.0
C1535 C 0.49045 0.75443 0.62832 0.0
C1536 C 0.3655 0.58263 0.61741 0.0
C1537 C 0.37911 0.60619 0.62235 0.0
C1538 C 0.43948 0.65426 0.62093 0.0
C1539 C 0.45529 0.71645 0.6326 0.0
C1540 C 0.44364 0.6905 0.63338 0.0
C1541 C 0.40303 0.61585 0.62645 0.0
C1542 C 0.41781 0.64129 0.63007 0.0
H1543 H 0.44117 0.75877 0.62509 0.0
H1544 H 0.42278 0.71712 0.63097 0.0
H1545 H 0.4682 0.68815 0.61445 0.0
H1546 H 0.40751 0.56707 0.62076 0.0
H1547 H 0.43125 0.60826 0.62924 0.0
C1548 C 0.7977 0.38174 0.123 0.0
C1549 C 0.8215 0.38869 0.12442 0.0
C1550 C 0.78957 0.39632 0.12943 0.0
C1551 C 0.80592 0.45612 0.13179 0.0
H1552 H 0.74867 0.4331 0.16064 0.0
C1553 C 0.75194 0.50301 0.12959 0.0
C1554 C 0.72818 0.48755 0.12567 0.0
C1555 C 0.76642 0.49435 0.13558 0.0
C1556 C 0.76473 0.43988 0.15263 0.0
H1557 H 0.85548 0.41601 0.13395 0.0
H1558 H 0.84124 0.44221 0.14456 0.0
H1559 H 0.7689 0.41065 0.15988 0.0
H1560 H 0.70069 0.4511 0.12608 0.0
H1561 H 0.72572 0.43615 0.1361 0.0
H1562 H 0.80076 0.48426 0.12316 0.0
C1563 C 0.82893 0.42522 0.13881 0.0
C1564 C 0.77636 0.4271 0.15232 0.0
C1565 C 0.83701 0.41028 0.1328 0.0
C1566 C 0.71897 0.4635 0.1288 0.0
C1567 C 0.73332 0.45492 0.1348 0.0
C1568 C 0.79411 0.46877 0.13189 0.0
C1569 C 0.80515 0.41836 0.13703 0.0
C1570 C 0.79649 0.43462 0.14128 0.0
C1571 C 0.75732 0.47014 0.13791 0.0
C1572 C 0.77278 0.46019 0.1416 0.0
H1573 H 0.7854 0.36511 0.11667 0.0
H1574 H 0.7712 0.39076 0.12769 0.0
H1575 H 0.82136 0.46217 0.12307 0.0
H1576 H 0.75952 0.52165 0.1274 0.0
H1577 H 0.7848 0.50655 0.138 0.0
C1578 C 0.417 0.7984 0.62121 0.0
C1579 C 0.43354 0.82226 0.62299 0.0
C1580 C 0.39395 0.78987 0.62694 0.0
C1581 C 0.34925 0.80456 0.62828 0.0
H1582 H 0.31602 0.74781 0.65789 0.0
C1583 C 0.24812 0.74889 0.62741 0.0
C1584 C 0.23996 0.72501 0.62417 0.0
C1585 C 0.27145 0.76389 0.63271 0.0
C1586 C 0.32501 0.7637 0.64964 0.0
H1587 H 0.43922 0.85595 0.63234 0.0
H1588 H 0.39817 0.84099 0.64171 0.0
H1589 H 0.35871 0.76889 0.6572 0.0
H1590 H 0.24952 0.69796 0.62494 0.0
H1591 H 0.2898 0.72388 0.63379 0.0
H1592 H 0.31562 0.79839 0.61944 0.0
C1593 C 0.40337 0.82896 0.63622 0.0
C1594 C 0.34942 0.77582 0.64937 0.0
C1595 C 0.42673 0.83746 0.63092 0.0
C1596 C 0.25524 0.71629 0.62717 0.0
C1597 C 0.27837 0.73117 0.63249 0.0
C1598 C 0.32475 0.79224 0.62834 0.0
C1599 C 0.38682 0.80508 0.63419 0.0
C1600 C 0.36171 0.79582 0.63812 0.0
C1601 C 0.28693 0.75523 0.63503 0.0
C1602 C 0.31237 0.7711 0.63837 0.0
H1603 H 0.42186 0.78633 0.61522 0.0
H1604 H 0.38146 0.77144 0.62503 0.0
H1605 H 0.35839 0.81988 0.61939 0.0
H1606 H 0.23675 0.75612 0.62527 0.0
H1607 H 0.27746 0.78232 0.63468 0.0
C1608 C 0.13857 0.4843 0.17677 0.0
C1609 C 0.15558 0.48079 0.16782 0.0
C1610 C 0.1357 0.48197 0.19625 0.0
C1611 C 0.14817 0.45622 0.23751 0.0
H1612 H 0.14435 0.50479 0.26531 0.0
C1613 C 0.16807 0.47161 0.31631 0.0
C1614 C 0.1538 0.47693 0.32751 0.0
C1615 C 0.16545 0.47007 0.29683 0.0
C1616 C 0.145 0.4909 0.25772 0.0
H1617 H 0.18287 0.47206 0.17227 0.0
H1618 H 0.17799 0.46823 0.20627 0.0
H1619 H 0.14498 0.50579 0.23098 0.0
H1620 H 0.12547 0.48467 0.32707 0.0
H1621 H 0.1209 0.48194 0.29289 0.0
H1622 H 0.14871 0.44162 0.26426 0.0
C1623 C 0.16666 0.47244 0.19818 0.0
C1624 C 0.14537 0.49147 0.23809 0.0
C1625 C 0.16956 0.47479 0.17873 0.0
C1626 C 0.13674 0.48055 0.31881 0.0
C1627 C 0.13416 0.47908 0.29927 0.0
C1628 C 0.14781 0.45566 0.25712 0.0
C1629 C 0.14975 0.47606 0.20713 0.0
C1630 C 0.14737 0.47436 0.22783 0.0
C1631 C 0.14854 0.47387 0.28812 0.0
C1632 C 0.14665 0.47322 0.2674 0.0
H1633 H 0.12749 0.48891 0.16876 0.0
H1634 H 0.12242 0.48467 0.2028 0.0
H1635 H 0.1493 0.44259 0.22992 0.0
H1636 H 0.18144 0.46879 0.32255 0.0
H1637 H 0.17703 0.46641 0.28854 0.0
C1638 C 0.6389 0.13405 0.81977 0.0
C1639 C 0.65989 0.14745 0.82971 0.0
C1640 C 0.63871 0.13405 0.80006 0.0
C1641 C 0.67447 0.16792 0.75875 0.0
H1642 H 0.63264 0.1113 0.73142 0.0
C1643 C 0.68162 0.15747 0.67857 0.0
C1644 C 0.66067 0.14794 0.66824 0.0
C1645 C 0.68125 0.15753 0.69826 0.0
C1646 C 0.64428 0.12728 0.73888 0.0
H1647 H 0.69724 0.17103 0.82672 0.0
H1648 H 0.69706 0.17041 0.79248 0.0
H1649 H 0.63272 0.11086 0.76577 0.0
H1650 H 0.62286 0.13092 0.67052 0.0
H1651 H 0.62225 0.13073 0.70493 0.0
H1652 H 0.68639 0.18409 0.73176 0.0
C1653 C 0.68058 0.1604 0.79983 0.0
C1654 C 0.64429 0.12709 0.75858 0.0
C1655 C 0.68072 0.16063 0.8195 0.0
C1656 C 0.63932 0.1384 0.67804 0.0
C1657 C 0.63894 0.13818 0.69774 0.0
C1658 C 0.67465 0.16801 0.73907 0.0
C1659 C 0.65955 0.14725 0.78981 0.0
C1660 C 0.6594 0.14741 0.7688 0.0
C1661 C 0.65991 0.1478 0.70804 0.0
C1662 C 0.65956 0.1477 0.72894 0.0
H1663 H 0.62251 0.12387 0.8272 0.0
H1664 H 0.62211 0.124 0.7929 0.0
H1665 H 0.686 0.18405 0.76607 0.0
H1666 H 0.69836 0.16504 0.67146 0.0
H1667 H 0.69766 0.16492 0.70584 0.0
C1668 C 0.52093 0.65063 0.17863 0.0
C1669 C 0.52334 0.67084 0.16989 0.0
C1670 C 0.52007 0.6487 0.1983 0.0
C1671 C 0.50621 0.67216 0.24034 0.0
H1672 H 0.54256 0.65032 0.26759 0.0
C1673 C 0.52016 0.68469 0.32019 0.0
C1674 C 0.5191 0.66623 0.33083 0.0
C1675 C 0.52027 0.68401 0.30055 0.0
C1676 C 0.53207 0.65616 0.26017 0.0
H1677 H 0.52699 0.70497 0.17503 0.0
H1678 H 0.5256 0.7016 0.20907 0.0
H1679 H 0.54329 0.65096 0.23315 0.0
H1680 H 0.51739 0.63256 0.32912 0.0
H1681 H 0.51737 0.63132 0.29478 0.0
H1682 H 0.495 0.67743 0.2672 0.0
C1683 C 0.52412 0.68714 0.20078 0.0
C1684 C 0.53249 0.65652 0.24046 0.0
C1685 C 0.52509 0.68912 0.18123 0.0
C1686 C 0.51831 0.64713 0.32136 0.0
C1687 C 0.5184 0.64645 0.30167 0.0
C1688 C 0.50574 0.67174 0.25997 0.0
C1689 C 0.52141 0.66686 0.20955 0.0
C1690 C 0.51984 0.66487 0.23037 0.0
C1691 C 0.51924 0.66482 0.29105 0.0
C1692 C 0.51892 0.66407 0.27014 0.0
H1693 H 0.5195 0.63622 0.17031 0.0
H1694 H 0.51787 0.63281 0.20469 0.0
H1695 H 0.4959 0.67824 0.23294 0.0
H1696 H 0.52085 0.6997 0.32701 0.0
H1697 H 0.52134 0.69864 0.29279 0.0
C1698 C 0.83731 0.52766 0.67386 0.0
C1699 C 0.83861 0.50962 0.6644 0.0
C1700 C 0.83595 0.52767 0.69346 0.0
C1701 C 0.82071 0.48923 0.73503 0.0
H1702 H 0.85858 0.54749 0.76184 0.0
C1703 C 0.83558 0.49302 0.81518 0.0
C1704 C 0.83557 0.51134 0.82528 0.0
C1705 C 0.83473 0.49263 0.79555 0.0
C1706 C 0.84765 0.53115 0.75455 0.0
H1707 H 0.83921 0.47729 0.66816 0.0
H1708 H 0.83708 0.47746 0.70242 0.0
H1709 H 0.85952 0.54708 0.72754 0.0
H1710 H 0.83423 0.54342 0.82263 0.0
H1711 H 0.83262 0.54262 0.7883 0.0
H1712 H 0.80899 0.47327 0.76207 0.0
C1713 C 0.8369 0.49148 0.69463 0.0
C1714 C 0.84821 0.5309 0.7349 0.0
C1715 C 0.83827 0.49147 0.67499 0.0
C1716 C 0.83439 0.52911 0.81529 0.0
C1717 C 0.83358 0.52873 0.79562 0.0
C1718 C 0.82016 0.48947 0.75468 0.0
C1719 C 0.83581 0.50963 0.70407 0.0
C1720 C 0.83483 0.50992 0.72493 0.0
C1721 C 0.83385 0.51053 0.78554 0.0
C1722 C 0.83372 0.51041 0.76466 0.0
H1723 H 0.83736 0.54184 0.66613 0.0
H1724 H 0.83479 0.54171 0.70031 0.0
H1725 H 0.80992 0.47286 0.72774 0.0
H1726 H 0.83643 0.47902 0.82241 0.0
H1727 H 0.83525 0.47852 0.78819 0.0
C1728 C 0.34569 0.83946 0.31706 0.0
C1729 C 0.32686 0.8391 0.32665 0.0
C1730 C 0.34619 0.83929 0.29739 0.0
C1731 C 0.30829 0.82452 0.25549 0.0
H1732 H 0.36631 0.86619 0.22971 0.0
C1733 C 0.31228 0.84215 0.17566 0.0
C1734 C 0.33137 0.84378 0.16557 0.0
C1735 C 0.31172 0.84082 0.1953 0.0
C1736 C 0.35005 0.85424 0.23669 0.0
H1737 H 0.29368 0.83802 0.32303 0.0
H1738 H 0.29469 0.83791 0.28875 0.0
H1739 H 0.36532 0.86519 0.26403 0.0
H1740 H 0.3647 0.84493 0.16824 0.0
H1741 H 0.36359 0.84243 0.2025 0.0
H1742 H 0.293 0.81363 0.22815 0.0
C1743 C 0.30895 0.83812 0.29645 0.0
C1744 C 0.34948 0.85367 0.25635 0.0
C1745 C 0.30846 0.83833 0.31611 0.0
C1746 C 0.3498 0.84386 0.17557 0.0
C1747 C 0.34922 0.84252 0.19522 0.0
C1748 C 0.30887 0.82508 0.23583 0.0
C1749 C 0.32786 0.83868 0.28687 0.0
C1750 C 0.32857 0.83888 0.26597 0.0
C1751 C 0.3302 0.84105 0.2053 0.0
C1752 C 0.32973 0.84002 0.2262 0.0
H1753 H 0.3601 0.83991 0.32472 0.0
H1754 H 0.36086 0.83942 0.29043 0.0
H1755 H 0.292 0.81267 0.26249 0.0
H1756 H 0.29779 0.84205 0.16842 0.0
H1757 H 0.29695 0.84 0.20265 0.0
C1758 C 0.48069 0.34594 0.6783 0.0
C1759 C 0.47664 0.32559 0.66875 0.0
C1760 C 0.47973 0.34619 0.69794 0.0
C1761 C 0.48515 0.31612 0.73945 0.0
H1762 H 0.45381 0.34426 0.7657 0.0
C1763 C 0.46763 0.30418 0.81882 0.0
C1764 C 0.47227 0.32415 0.82925 0.0
C1765 C 0.46762 0.3047 0.79921 0.0
C1766 C 0.46282 0.33655 0.75854 0.0
H1767 H 0.46806 0.28946 0.67231 0.0
H1768 H 0.4662 0.28991 0.70646 0.0
H1769 H 0.45495 0.34474 0.73129 0.0
H1770 H 0.48023 0.36023 0.82725 0.0
H1771 H 0.48038 0.36113 0.79293 0.0
H1772 H 0.49307 0.30794 0.76659 0.0
C1773 C 0.47041 0.30573 0.69879 0.0
C1774 C 0.46348 0.33684 0.73888 0.0
C1775 C 0.47134 0.30546 0.67921 0.0
C1776 C 0.47654 0.34453 0.81963 0.0
C1777 C 0.47653 0.34504 0.79998 0.0
C1778 C 0.48451 0.31584 0.75905 0.0
C1779 C 0.47477 0.32614 0.70836 0.0
C1780 C 0.47451 0.32647 0.72917 0.0
C1781 C 0.47228 0.32519 0.7896 0.0
C1782 C 0.4732 0.32591 0.76879 0.0
H1783 H 0.48486 0.36176 0.67064 0.0
H1784 H 0.48334 0.36221 0.70498 0.0
H1785 H 0.49416 0.30839 0.73233 0.0
H1786 H 0.4642 0.28817 0.82578 0.0
H1787 H 0.46394 0.28902 0.79156 0.0
C1788 C 0.50475 0.86391 0.81904 0.0
C1789 C 0.51624 0.85402 0.82882 0.0
C1790 C 0.50596 0.86569 0.79941 0.0
C1791 C 0.53962 0.86322 0.7582 0.0
H1792 H 0.48461 0.85261 0.73034 0.0
C1793 C 0.52782 0.84349 0.67862 0.0
C1794 C 0.51915 0.85522 0.66763 0.0
C1795 C 0.52857 0.84538 0.69821 0.0
C1796 C 0.50019 0.85589 0.73795 0.0
H1797 H 0.53782 0.83802 0.82557 0.0
H1798 H 0.53936 0.84045 0.79134 0.0
H1799 H 0.48351 0.8514 0.76466 0.0
H1800 H 0.50448 0.87816 0.66864 0.0
H1801 H 0.50546 0.88115 0.70307 0.0
H1802 H 0.55595 0.86689 0.73136 0.0
C1803 C 0.52992 0.84745 0.79884 0.0
C1804 C 0.49962 0.85525 0.75764 0.0
C1805 C 0.52893 0.84591 0.81849 0.0
C1806 C 0.51134 0.869 0.67671 0.0
C1807 C 0.51178 0.8706 0.69639 0.0
C1808 C 0.54008 0.86359 0.73852 0.0
C1809 C 0.51845 0.85737 0.78902 0.0
C1810 C 0.51928 0.85876 0.76804 0.0
C1811 C 0.52039 0.85878 0.70732 0.0
C1812 C 0.52033 0.85978 0.7282 0.0
H1813 H 0.49494 0.87048 0.82656 0.0
H1814 H 0.49724 0.8738 0.79242 0.0
H1815 H 0.55527 0.8665 0.76569 0.0
H1816 H 0.53402 0.83276 0.67209 0.0
H1817 H 0.53508 0.83589 0.70628 0.0
C1818 C 0.65209 0.51532 0.17555 0.0
C1819 C 0.67287 0.51909 0.16691 0.0
C1820 C 0.65004 0.51426 0.19514 0.0
C1821 C 0.67475 0.50234 0.23712 0.0
H1822 H 0.64953 0.53596 0.26406 0.0
C1823 C 0.6877 0.51887 0.31631 0.0
C1824 C 0.66847 0.51574 0.32707 0.0
C1825 C 0.68661 0.51843 0.29674 0.0
C1826 C 0.65631 0.52624 0.25669 0.0
H1827 H 0.70787 0.52499 0.17205 0.0
H1828 H 0.70428 0.52332 0.20614 0.0
H1829 H 0.65056 0.53683 0.22964 0.0
H1830 H 0.63304 0.50983 0.32571 0.0
H1831 H 0.63119 0.50901 0.29134 0.0
H1832 H 0.68073 0.49193 0.26408 0.0
C1833 C 0.68951 0.5209 0.19777 0.0
C1834 C 0.6569 0.52674 0.23704 0.0
C1835 C 0.6916 0.52202 0.17824 0.0
C1836 C 0.64818 0.51235 0.3178 0.0
C1837 C 0.64712 0.51196 0.29816 0.0
C1838 C 0.67414 0.50183 0.25672 0.0
C1839 C 0.66866 0.51682 0.2064 0.0
C1840 C 0.66649 0.51511 0.22711 0.0
C1841 C 0.66629 0.51483 0.28747 0.0
C1842 C 0.66528 0.51409 0.26669 0.0
H1843 H 0.63733 0.51295 0.1672 0.0
H1844 H 0.63372 0.51096 0.20147 0.0
H1845 H 0.68178 0.49282 0.2298 0.0
H1846 H 0.70361 0.52155 0.32299 0.0
H1847 H 0.70179 0.52107 0.28883 0.0
C1848 C 0.16461 0.69107 0.81733 0.0
C1849 C 0.14824 0.67204 0.82814 0.0
C1850 C 0.16432 0.68971 0.79777 0.0
C1851 C 0.12729 0.6587 0.75731 0.0
H1852 H 0.18698 0.68295 0.73179 0.0
C1853 C 0.13594 0.65076 0.6769 0.0
C1854 C 0.1533 0.67096 0.66782 0.0
C1855 C 0.13456 0.64973 0.69652 0.0
C1856 C 0.17021 0.67629 0.73872 0.0
H1857 H 0.11848 0.63677 0.82685 0.0
H1858 H 0.11807 0.63441 0.79249 0.0
H1859 H 0.18575 0.68308 0.76606 0.0
H1860 H 0.18271 0.70596 0.67221 0.0
H1861 H 0.18014 0.70417 0.70638 0.0
H1862 H 0.11181 0.65208 0.72987 0.0
C1863 C 0.13101 0.6504 0.79927 0.0
C1864 C 0.1695 0.67635 0.75831 0.0
C1865 C 0.1313 0.65174 0.81891 0.0
C1866 C 0.16915 0.69013 0.67875 0.0
C1867 C 0.16778 0.68906 0.69833 0.0
C1868 C 0.12801 0.65863 0.73766 0.0
C1869 C 0.14769 0.6693 0.78855 0.0
C1870 C 0.14808 0.66787 0.7678 0.0
C1871 C 0.15056 0.66882 0.70741 0.0
C1872 C 0.14952 0.66772 0.7282 0.0
H1873 H 0.17786 0.70701 0.82396 0.0
H1874 H 0.17713 0.7047 0.78985 0.0
H1875 H 0.11057 0.65221 0.76428 0.0
H1876 H 0.12349 0.63567 0.66887 0.0
H1877 H 0.12123 0.63384 0.70317 0.0
C1878 C 0.47507 0.15885 0.32125 0.0
C1879 C 0.49259 0.15686 0.3309 0.0
C1880 C 0.47519 0.16 0.30163 0.0
C1881 C 0.51342 0.17329 0.26011 0.0
H1882 H 0.45462 0.13746 0.23352 0.0
C1883 C 0.50792 0.15969 0.17948 0.0
C1884 C 0.48977 0.16066 0.16991 0.0
C1885 C 0.50878 0.16015 0.19913 0.0
C1886 C 0.47114 0.1478 0.24074 0.0
H1887 H 0.52419 0.15481 0.32745 0.0
H1888 H 0.52425 0.15655 0.29313 0.0
H1889 H 0.45519 0.13636 0.26778 0.0
H1890 H 0.45859 0.16343 0.17352 0.0
H1891 H 0.46021 0.1644 0.2078 0.0
H1892 H 0.52936 0.18463 0.233 0.0
C1893 C 0.51053 0.15744 0.3008 0.0
C1894 C 0.47147 0.14716 0.26037 0.0
C1895 C 0.51041 0.15629 0.32046 0.0
C1896 C 0.47273 0.1625 0.18044 0.0
C1897 C 0.47358 0.16293 0.20009 0.0
C1898 C 0.51309 0.17392 0.24044 0.0
C1899 C 0.49285 0.15919 0.29117 0.0
C1900 C 0.49261 0.1599 0.27029 0.0
C1901 C 0.49151 0.16158 0.20966 0.0
C1902 C 0.49193 0.16119 0.23055 0.0
H1903 H 0.46117 0.15952 0.32884 0.0
H1904 H 0.46154 0.16171 0.29465 0.0
H1905 H 0.52994 0.18355 0.26735 0.0
H1906 H 0.52137 0.15831 0.17181 0.0
H1907 H 0.5227 0.15885 0.20609 0.0
C1908 C 0.34855 0.50735 0.67653 0.0
C1909 C 0.33259 0.48684 0.66698 0.0
C1910 C 0.34914 0.50792 0.69617 0.0
C1911 C 0.33509 0.47072 0.73767 0.0
H1912 H 0.33285 0.52119 0.76381 0.0
C1913 C 0.34721 0.48513 0.81821 0.0
C1914 C 0.3299 0.48805 0.82727 0.0
C1915 C 0.34851 0.48538 0.79858 0.0
C1916 C 0.3335 0.50703 0.75666 0.0
H1917 H 0.30486 0.45082 0.67049 0.0
H1918 H 0.30613 0.45181 0.70486 0.0
H1919 H 0.33326 0.52071 0.72937 0.0
H1920 H 0.30067 0.49391 0.82293 0.0
H1921 H 0.30318 0.49461 0.78865 0.0
H1922 H 0.33525 0.457 0.76499 0.0
C1923 C 0.31814 0.46739 0.69709 0.0
C1924 C 0.33389 0.50683 0.73702 0.0
C1925 C 0.31732 0.46689 0.67745 0.0
C1926 C 0.31411 0.49148 0.81635 0.0
C1927 C 0.31563 0.49204 0.79676 0.0
C1928 C 0.33502 0.47108 0.75732 0.0
C1929 C 0.33399 0.48793 0.7066 0.0
C1930 C 0.33446 0.48856 0.72737 0.0
C1931 C 0.33277 0.48891 0.78771 0.0
C1932 C 0.33399 0.48911 0.76696 0.0
H1933 H 0.36047 0.52303 0.66884 0.0
H1934 H 0.36159 0.52393 0.70322 0.0
H1935 H 0.3357 0.45654 0.73052 0.0
H1936 H 0.35961 0.48245 0.82627 0.0
H1937 H 0.36196 0.48305 0.79188 0.0
C1938 C 0.86907 0.35626 0.17431 0.0
C1939 C 0.85577 0.3349 0.1648 0.0
C1940 C 0.87015 0.35689 0.19401 0.0
C1941 C 0.86232 0.32092 0.23592 0.0
H1942 H 0.85003 0.36541 0.26172 0.0
C1943 C 0.84718 0.31682 0.31646 0.0
C1944 C 0.85555 0.33804 0.32623 0.0
C1945 C 0.84785 0.31652 0.29676 0.0
C1946 C 0.85389 0.35311 0.25481 0.0
H1947 H 0.83368 0.2974 0.16853 0.0
H1948 H 0.83589 0.29854 0.20282 0.0
H1949 H 0.85113 0.36522 0.22745 0.0
H1950 H 0.87162 0.37566 0.32292 0.0
H1951 H 0.87347 0.37522 0.28879 0.0
H1952 H 0.86547 0.309 0.2632 0.0
C1953 C 0.84541 0.31477 0.19505 0.0
C1954 C 0.85446 0.35299 0.23513 0.0
C1955 C 0.84406 0.31416 0.1754 0.0
C1956 C 0.86483 0.35896 0.31586 0.0
C1957 C 0.86575 0.35869 0.29622 0.0
C1958 C 0.86203 0.32121 0.25562 0.0
C1959 C 0.85824 0.33616 0.20457 0.0
C1960 C 0.85856 0.33682 0.22548 0.0
C1961 C 0.85714 0.33746 0.28636 0.0
C1962 C 0.85771 0.33725 0.26535 0.0
H1963 H 0.87821 0.37255 0.16657 0.0
H1964 H 0.88031 0.37362 0.20099 0.0
H1965 H 0.86574 0.30839 0.22884 0.0
H1966 H 0.83977 0.30038 0.32402 0.0
H1967 H 0.8407 0.29979 0.2897 0.0
C1968 C 0.91722 0.33053 0.11187 0.0
C1969 C 0.906 0.33684 0.09821 0.0
C1970 C 0.94092 0.33737 0.10977 0.0
C1971 C 0.99179 0.38638 0.08806 0.0
H1972 H 0.02611 0.35629 0.10507 0.0
C1973 C 0.09074 0.4373 0.08572 0.0
C1974 C 0.10234 0.43652 0.10199 0.0
C1975 C 0.06738 0.42057 0.0827 0.0
C1976 C 0.01673 0.3649 0.10032 0.0
H1977 H 0.90957 0.35274 0.07085 0.0
H1978 H 0.95047 0.36381 0.06681 0.0
H1979 H 0.98315 0.33399 0.10418 0.0
H1980 H 0.09927 0.41699 0.12736 0.0
H1981 H 0.05787 0.3881 0.12254 0.0
H1982 H 0.02475 0.41741 0.08491 0.0
C1983 C 0.94141 0.35436 0.07941 0.0
C1984 C 0.99218 0.35213 0.09978 0.0
C1985 C 0.91798 0.34791 0.08164 0.0
C1986 C 0.09063 0.41788 0.11468 0.0
C1987 C 0.06697 0.40133 0.11186 0.0
C1988 C 0.01609 0.39906 0.08868 0.0
C1989 C 0.95351 0.35037 0.09391 0.0
C1990 C 0.97949 0.36279 0.0936 0.0
C1991 C 0.05487 0.40304 0.09617 0.0
C1992 C 0.02895 0.38856 0.09478 0.0
H1993 H 0.9083 0.32209 0.12481 0.0
H1994 H 0.94976 0.33405 0.12118 0.0
H1995 H 0.9826 0.39539 0.08381 0.0
H1996 H 0.09957 0.45133 0.07558 0.0
H1997 H 0.05883 0.42199 0.07016 0.0
C1998 C 0.57795 0.9145 0.58541 0.0
C1999 C 0.57256 0.9041 0.60326 0.0
C2000 C 0.5973 0.93682 0.58295 0.0
C2001 C 0.6472 0.9865 0.60931 0.0
H2002 H 0.63185 0.0236 0.5762 0.0
C2003 C 0.66099 0.0778 0.62339 0.0
C2004 C 0.6696 0.09442 0.60886 0.0
C2005 C 0.65805 0.05559 0.62055 0.0
C2006 C 0.63674 0.01346 0.58518 0.0
H2007 H 0.5833 0.90801 0.63241 0.0
H2008 H 0.616 0.94754 0.62862 0.0
H2009 H 0.60901 0.98141 0.57468 0.0
H2010 H 0.68287 0.10153 0.58031 0.0
H2011 H 0.67655 0.06195 0.57497 0.0
H2012 H 0.67338 0.01917 0.62112 0.0
C2013 C 0.60622 0.93841 0.61619 0.0
C2014 C 0.62367 0.98911 0.58431 0.0
C2015 C 0.58733 0.91575 0.61848 0.0
C2016 C 0.67637 0.08896 0.59173 0.0
C2017 C 0.67278 0.06644 0.58869 0.0
C2018 C 0.65988 0.01092 0.61051 0.0
C2019 C 0.61106 0.94961 0.59849 0.0
C2020 C 0.6281 0.97521 0.59685 0.0
C2021 C 0.66308 0.04946 0.60296 0.0
C2022 C 0.65422 0.02451 0.59883 0.0
H2023 H 0.56682 0.90559 0.57345 0.0
H2024 H 0.60083 0.94437 0.56897 0.0
H2025 H 0.65171 0.97653 0.6188 0.0
H2026 H 0.65568 0.08172 0.63671 0.0
H2027 H 0.65024 0.04268 0.63166 0.0
C2028 C 0.67638 0.58802 0.11584 0.0
C2029 C 0.66977 0.57032 0.1023 0.0
C2030 C 0.67003 0.60521 0.1136 0.0
C2031 C 0.62336 0.6104 0.08998 0.0
H2032 H 0.65525 0.67377 0.10948 0.0
C2033 C 0.5773 0.66265 0.08669 0.0
C2034 C 0.57584 0.67212 0.10396 0.0
C2035 C 0.59428 0.65632 0.08385 0.0
C2036 C 0.64621 0.65611 0.10395 0.0
H2037 H 0.65364 0.55788 0.07503 0.0
H2038 H 0.64358 0.58837 0.07063 0.0
H2039 H 0.67546 0.65104 0.10904 0.0
H2040 H 0.59189 0.68418 0.1313 0.0
H2041 H 0.62132 0.67231 0.12662 0.0
H2042 H 0.59402 0.61491 0.08533 0.0
C2043 C 0.6527 0.58855 0.08337 0.0
C2044 C 0.65773 0.6431 0.10373 0.0
C2045 C 0.65856 0.57116 0.0858 0.0
C2046 C 0.59281 0.67696 0.11784 0.0
C2047 C 0.60964 0.67021 0.11512 0.0
C2048 C 0.612 0.62333 0.09012 0.0
C2049 C 0.65731 0.60508 0.09764 0.0
C2050 C 0.64634 0.62001 0.0968 0.0
C2051 C 0.60977 0.65879 0.09842 0.0
C2052 C 0.62318 0.64628 0.09716 0.0
H2053 H 0.68503 0.58767 0.1287 0.0
H2054 H 0.6738 0.61762 0.12489 0.0
H2055 H 0.61369 0.59246 0.08512 0.0
H2056 H 0.56451 0.65902 0.07571 0.0
H2057 H 0.59433 0.64813 0.07065 0.0
C2058 C 0.08558 0.66732 0.61921 0.0
C2059 C 0.09776 0.66467 0.60416 0.0
C2060 C 0.06201 0.66077 0.61719 0.0
C2061 C 0.0112 0.62195 0.58684 0.0
H2062 H 0.97897 0.64252 0.62069 0.0
C2063 C 0.91 0.58069 0.59087 0.0
C2064 C 0.90281 0.56613 0.60681 0.0
C2065 C 0.93348 0.59805 0.58878 0.0
C2066 C 0.98785 0.63695 0.61095 0.0
H2067 H 0.09592 0.65508 0.57484 0.0
H2068 H 0.05538 0.64536 0.57075 0.0
H2069 H 0.0217 0.66456 0.619 0.0
H2070 H 0.91392 0.55907 0.63354 0.0
H2071 H 0.95477 0.58997 0.63014 0.0
H2072 H 0.97715 0.59442 0.57883 0.0
C2073 C 0.06335 0.65121 0.58446 0.0
C2074 C 0.01232 0.64931 0.61012 0.0
C2075 C 0.08667 0.65703 0.58668 0.0
C2076 C 0.91909 0.57003 0.62109 0.0
C2077 C 0.94234 0.58774 0.61922 0.0
C2078 C 0.98681 0.61002 0.58734 0.0
C2079 C 0.05034 0.65201 0.59989 0.0
C2080 C 0.0244 0.6415 0.59854 0.0
C2081 C 0.94979 0.60146 0.60288 0.0
C2082 C 0.97503 0.61701 0.59978 0.0
H2083 H 0.09383 0.67301 0.63287 0.0
H2084 H 0.05273 0.6614 0.62954 0.0
H2085 H 0.01956 0.61491 0.57801 0.0
H2086 H 0.89774 0.57787 0.57964 0.0
H2087 H 0.93906 0.60836 0.57598 0.0
C2088 C 0.42442 0.08118 0.12875 0.0
C2089 C 0.42696 0.09784 0.11527 0.0
C2090 C 0.40549 0.05847 0.12798 0.0
C2091 C 0.36819 0.01503 0.09443 0.0
H2092 H 0.34016 0.97935 0.13992 0.0
C2093 C 0.32259 0.91349 0.09724 0.0
C2094 C 0.33367 0.90672 0.11072 0.0
C2095 C 0.32631 0.93637 0.09723 0.0
C2096 C 0.34753 0.98909 0.12703 0.0
H2097 H 0.41137 0.1041 0.09071 0.0
H2098 H 0.37825 0.06378 0.08905 0.0
H2099 H 0.36081 0.02203 0.14103 0.0
H2100 H 0.35627 0.91804 0.13524 0.0
H2101 H 0.36239 0.95748 0.13541 0.0
H2102 H 0.3562 0.982 0.08073 0.0
C2103 C 0.39089 0.06855 0.10033 0.0
C2104 C 0.35935 0.01348 0.12767 0.0
C2105 C 0.40973 0.09156 0.10131 0.0
C2106 C 0.34763 0.9228 0.1246 0.0
C2107 C 0.35094 0.94534 0.12481 0.0
C2108 C 0.35631 0.99055 0.09379 0.0
C2109 C 0.38877 0.05174 0.11357 0.0
C2110 C 0.37086 0.02667 0.11162 0.0
C2111 C 0.34065 0.95251 0.11099 0.0
C2112 C 0.34697 0.97743 0.11033 0.0
H2113 H 0.43736 0.08556 0.13972 0.0
H2114 H 0.40458 0.04585 0.13821 0.0
H2115 H 0.37696 0.02476 0.08185 0.0
H2116 H 0.31178 0.9014 0.08636 0.0
H2117 H 0.31826 0.94154 0.08638 0.0
C2118 C 0.43286 0.35248 0.59183 0.0
C2119 C 0.43016 0.33406 0.60344 0.0
C2120 C 0.41446 0.3568 0.58921 0.0
C2121 C 0.36329 0.35067 0.61378 0.0
H2122 H 0.35861 0.38048 0.5682 0.0
C2123 C 0.31672 0.40617 0.60909 0.0
C2124 C 0.33405 0.4294 0.60537 0.0
C2125 C 0.32151 0.38791 0.60639 0.0
C2126 C 0.35933 0.37175 0.5809 0.0
H2127 H 0.40556 0.30496 0.62069 0.0
H2128 H 0.37319 0.31264 0.61614 0.0
H2129 H 0.37955 0.35872 0.56755 0.0
H2130 H 0.36933 0.45179 0.5951 0.0
H2131 H 0.37736 0.42001 0.58981 0.0
H2132 H 0.34389 0.36475 0.62725 0.0
C2133 C 0.38972 0.32379 0.60917 0.0
C2134 C 0.37144 0.35946 0.58059 0.0
C2135 C 0.40821 0.31935 0.61171 0.0
C2136 C 0.35575 0.43403 0.59819 0.0
C2137 C 0.36027 0.41586 0.59503 0.0
C2138 C 0.3509 0.36277 0.61402 0.0
C2139 C 0.39279 0.34283 0.59812 0.0
C2140 C 0.3747 0.34994 0.59727 0.0
C2141 C 0.34338 0.39271 0.59935 0.0
C2142 C 0.34989 0.37439 0.59781 0.0
H2143 H 0.44947 0.36404 0.58511 0.0
H2144 H 0.41764 0.37186 0.58087 0.0
H2145 H 0.36551 0.34362 0.62688 0.0
H2146 H 0.29988 0.40226 0.61469 0.0
H2147 H 0.30832 0.37016 0.60993 0.0
C2148 C 0.5925 0.91005 0.88659 0.0
C2149 C 0.57047 0.9045 0.89372 0.0
C2150 C 0.6117 0.93261 0.88903 0.0
C2151 C 0.63341 0.98684 0.91652 0.0
H2152 H 0.65205 0.01996 0.8689 0.0
C2153 C 0.64359 0.07597 0.90675 0.0
C2154 C 0.6591 0.09196 0.89347 0.0
C2155 C 0.64211 0.05437 0.9093 0.0
C2156 C 0.64776 0.01105 0.88236 0.0
H2157 H 0.55125 0.91717 0.90985 0.0
H2158 H 0.58478 0.95616 0.9147 0.0
H2159 H 0.63202 0.97731 0.86924 0.0
H2160 H 0.68617 0.09841 0.87313 0.0
H2161 H 0.6833 0.06013 0.87741 0.0
H2162 H 0.64782 0.02042 0.9296 0.0
C2163 C 0.58732 0.94335 0.90711 0.0
C2164 C 0.63627 0.9866 0.88254 0.0
C2165 C 0.56813 0.92116 0.90423 0.0
C2166 C 0.67399 0.08635 0.88342 0.0
C2167 C 0.67232 0.06448 0.88584 0.0
C2168 C 0.64508 0.01125 0.91636 0.0
C2169 C 0.60913 0.9495 0.89914 0.0
C2170 C 0.62778 0.97433 0.89953 0.0
C2171 C 0.65602 0.0481 0.89858 0.0
C2172 C 0.651 0.02352 0.8992 0.0
H2173 H 0.59455 0.89739 0.87832 0.0
H2174 H 0.62833 0.93707 0.88265 0.0
H2175 H 0.6272 0.97771 0.92981 0.0
H2176 H 0.63207 0.07989 0.91487 0.0
H2177 H 0.62908 0.04209 0.919 0.0
C2178 C 0.57845 0.66375 0.41326 0.0
C2179 C 0.57445 0.66998 0.39536 0.0
C2180 C 0.59658 0.65906 0.41604 0.0
C2181 C 0.64602 0.65612 0.3935 0.0
H2182 H 0.61491 0.59441 0.41616 0.0
C2183 C 0.67056 0.58494 0.37834 0.0
C2184 C 0.66476 0.56741 0.39188 0.0
C2185 C 0.66574 0.60299 0.38171 0.0
C2186 C 0.62433 0.61186 0.41026 0.0
H2187 H 0.58711 0.67822 0.36671 0.0
H2188 H 0.61848 0.66911 0.37134 0.0
H2189 H 0.59648 0.61791 0.41724 0.0
H2190 H 0.65177 0.55598 0.42013 0.0
H2191 H 0.64464 0.58813 0.42652 0.0
H2192 H 0.67366 0.64945 0.38603 0.0
C2193 C 0.60803 0.6684 0.38335 0.0
C2194 C 0.61365 0.62541 0.41086 0.0
C2195 C 0.59008 0.67357 0.38066 0.0
C2196 C 0.65595 0.56915 0.40937 0.0
C2197 C 0.65177 0.58749 0.41294 0.0
C2198 C 0.65691 0.64253 0.39303 0.0
C2199 C 0.61057 0.65983 0.40082 0.0
C2200 C 0.62412 0.64752 0.40224 0.0
C2201 C 0.6555 0.60399 0.39883 0.0
C2202 C 0.64594 0.62003 0.40113 0.0
H2203 H 0.56659 0.66104 0.42479 0.0
H2204 H 0.59847 0.65302 0.42977 0.0
H2205 H 0.65449 0.67311 0.38675 0.0
H2206 H 0.67741 0.58385 0.36474 0.0
H2207 H 0.66872 0.61527 0.37046 0.0
C2208 C 0.90555 0.58436 0.89844 0.0
C2209 C 0.8993 0.56959 0.88266 0.0
C2210 C 0.92875 0.60219 0.90093 0.0
C2211 C 0.98385 0.64131 0.87931 0.0
H2212 H 0.01455 0.62227 0.91598 0.0
C2213 C 0.08175 0.6718 0.87488 0.0
C2214 C 0.09335 0.66997 0.89073 0.0
C2215 C 0.0582 0.66559 0.87606 0.0
C2216 C 0.00645 0.62853 0.90608 0.0
H2217 H 0.91177 0.56264 0.85658 0.0
H2218 H 0.95215 0.59437 0.86064 0.0
H2219 H 0.97223 0.60108 0.9138 0.0
H2220 H 0.09055 0.66228 0.92051 0.0
H2221 H 0.05004 0.65324 0.92308 0.0
H2222 H 0.01786 0.66885 0.87154 0.0
C2223 C 0.9392 0.59193 0.87114 0.0
C2224 C 0.9821 0.61617 0.90481 0.0
C2225 C 0.91622 0.57375 0.8689 0.0
C2226 C 0.08176 0.66363 0.90809 0.0
C2227 C 0.05846 0.65818 0.90944 0.0
C2228 C 0.00824 0.65413 0.8809 0.0
C2229 C 0.94573 0.60588 0.88737 0.0
C2230 C 0.97072 0.622 0.89103 0.0
C2231 C 0.04597 0.65798 0.89327 0.0
C2232 C 0.01998 0.64736 0.89383 0.0
H2233 H 0.8928 0.58136 0.90929 0.0
H2234 H 0.9336 0.61266 0.91364 0.0
H2235 H 0.97528 0.64602 0.86857 0.0
H2236 H 0.09039 0.67643 0.86129 0.0
H2237 H 0.04937 0.66542 0.86318 0.0
C2238 C 0.34619 0.91752 0.37012 0.0
C2239 C 0.33082 0.90111 0.38323 0.0
C2240 C 0.35135 0.94068 0.37081 0.0
C2241 C 0.35845 0.98522 0.40358 0.0
H2242 H 0.36838 0.02067 0.35756 0.0
C2243 C 0.4157 0.08692 0.39975 0.0
C2244 C 0.4338 0.09344 0.38654 0.0
C2245 C 0.39661 0.06399 0.39997 0.0
C2246 C 0.36542 0.01101 0.37058 0.0
H2247 H 0.30832 0.8959 0.40714 0.0
H2248 H 0.31795 0.93707 0.40869 0.0
H2249 H 0.34527 0.97803 0.35675 0.0
H2250 H 0.44567 0.08148 0.36277 0.0
H2251 H 0.41247 0.04195 0.36296 0.0
H2252 H 0.3799 0.01829 0.41715 0.0
C2253 C 0.32572 0.93171 0.39775 0.0
C2254 C 0.35221 0.98665 0.37012 0.0
C2255 C 0.32018 0.90823 0.39683 0.0
C2256 C 0.43208 0.07696 0.3732 0.0
C2257 C 0.41293 0.05436 0.37319 0.0
C2258 C 0.37168 0.0097 0.40405 0.0
C2259 C 0.3415 0.94816 0.38478 0.0
C2260 C 0.34961 0.97348 0.38641 0.0
C2261 C 0.39513 0.04752 0.38667 0.0
C2262 C 0.37625 0.0227 0.38734 0.0
H2263 H 0.35456 0.91252 0.35941 0.0
H2264 H 0.36385 0.95299 0.36081 0.0
H2265 H 0.35678 0.9755 0.41634 0.0
H2266 H 0.41665 0.0993 0.41023 0.0
H2267 H 0.38313 0.05909 0.41055 0.0
C2268 C 0.31963 0.41384 0.87851 0.0
C2269 C 0.33193 0.43372 0.88996 0.0
C2270 C 0.32364 0.39495 0.88015 0.0
C2271 C 0.35126 0.36984 0.91098 0.0
H2272 H 0.36958 0.35345 0.86409 0.0
C2273 C 0.42526 0.34952 0.90555 0.0
C2274 C 0.42405 0.33292 0.89256 0.0
C2275 C 0.40717 0.35458 0.90682 0.0
C2276 C 0.364 0.35731 0.87729 0.0
H2277 H 0.35684 0.44879 0.91287 0.0
H2278 H 0.36375 0.41612 0.91573 0.0
H2279 H 0.3492 0.37571 0.86342 0.0
H2280 H 0.40249 0.30783 0.87125 0.0
H2281 H 0.37086 0.31705 0.87326 0.0
H2282 H 0.36734 0.35266 0.92486 0.0
C2283 C 0.35102 0.41493 0.9055 0.0
C2284 C 0.3523 0.37007 0.8769 0.0
C2285 C 0.34724 0.4338 0.90373 0.0
C2286 C 0.40387 0.3207 0.88142 0.0
C2287 C 0.38584 0.32603 0.8825 0.0
C2288 C 0.363 0.35716 0.91136 0.0
C2289 C 0.3397 0.39551 0.89347 0.0
C2290 C 0.34676 0.37737 0.89377 0.0
C2291 C 0.38753 0.34333 0.895 0.0
C2292 C 0.37039 0.35166 0.89454 0.0
H2293 H 0.30771 0.41329 0.86777 0.0
H2294 H 0.3146 0.38016 0.87074 0.0
H2295 H 0.34679 0.37481 0.92421 0.0
H2296 H 0.44053 0.35913 0.91441 0.0
H2297 H 0.40916 0.36821 0.91643 0.0
C2298 C 0.92559 0.34391 0.373 0.0
C2299 C 0.90926 0.33599 0.38774 0.0
C2300 C 0.94806 0.34756 0.37596 0.0
C2301 C 0.99265 0.34555 0.38686 0.0
H2302 H 0.02418 0.39954 0.41954 0.0
C2303 C 0.09119 0.42567 0.41001 0.0
C2304 C 0.10195 0.42886 0.3924 0.0
C2305 C 0.06812 0.4078 0.41269 0.0
C2306 C 0.01588 0.38404 0.41082 0.0
H2307 H 0.90299 0.32487 0.41687 0.0
H2308 H 0.94303 0.33246 0.42236 0.0
H2309 H 0.98186 0.37786 0.41843 0.0
H2310 H 0.09772 0.41571 0.36395 0.0
H2311 H 0.05701 0.38561 0.36803 0.0
H2312 H 0.02651 0.35157 0.37914 0.0
C2313 C 0.93812 0.33513 0.40842 0.0
C2314 C 0.99149 0.37166 0.41017 0.0
C2315 C 0.91534 0.33081 0.4053 0.0
C2316 C 0.08973 0.41339 0.3777 0.0
C2317 C 0.06638 0.39599 0.38016 0.0
C2318 C 0.01709 0.35754 0.38786 0.0
C2319 C 0.95472 0.34394 0.39384 0.0
C2320 C 0.97975 0.35291 0.39768 0.0
C2321 C 0.05499 0.39335 0.39757 0.0
C2322 C 0.02912 0.37763 0.39924 0.0
H2323 H 0.9212 0.348 0.35935 0.0
H2324 H 0.96069 0.35465 0.36459 0.0
H2325 H 0.98385 0.33107 0.37712 0.0
H2326 H 0.1005 0.43735 0.42159 0.0
H2327 H 0.06038 0.40592 0.42647 0.0
C2328 C 0.25434 0.44094 0.93206 0.0
C2329 C 0.27541 0.4624 0.93311 0.0
C2330 C 0.24074 0.43123 0.94828 0.0
C2331 C 0.24346 0.43342 1e-05 0.0
H2332 H 0.18495 0.43392 -0.00091 0.0
C2333 C 0.2168 0.47352 0.05735 0.0
C2334 C 0.1936 0.46322 0.06369 0.0
C2335 C 0.22271 0.46354 0.04266 0.0
C2336 C 0.20083 0.43291 -0.00045 0.0
H2337 H 0.29953 0.48986 0.95178 0.0
H2338 H 0.27629 0.47272 0.98 0.0
H2339 H 0.20369 0.43356 0.96944 0.0
H2340 H 0.15836 0.43419 0.05987 0.0
H2341 H 0.1687 0.41701 0.03332 0.0
H2342 H 0.24165 0.43473 0.03002 0.0
C2343 C 0.27007 0.46346 0.96677 0.0
C2344 C 0.21154 0.4327 0.9826 0.0
C2345 C 0.28325 0.47338 0.95061 0.0
C2346 C 0.17639 0.44242 0.05521 0.0
C2347 C 0.18226 0.43263 0.04011 0.0
C2348 C 0.23276 0.43357 0.01689 0.0
C2349 C 0.24851 0.44253 0.96575 0.0
C2350 C 0.23364 0.43443 0.98275 0.0
C2351 C 0.20552 0.44317 0.03374 0.0
C2352 C 0.21214 0.43483 0.01677 0.0
H2353 H 0.24797 0.43222 0.91865 0.0
H2354 H 0.22408 0.41517 0.94718 0.0
H2355 H 0.26039 0.43452 0.00044 0.0
H2356 H 0.23048 0.48943 0.06372 0.0
H2357 H 0.24069 0.4723 0.03782 0.0
C2358 C 0.83062 0.29845 0.45393 0.0
C2359 C 0.82204 0.28925 0.436 0.0
C2360 C 0.82226 0.28417 0.46989 0.0
C2361 C 0.78322 0.22172 0.48542 0.0
H2362 H 0.77458 0.25203 0.52895 0.0
C2363 C 0.71113 0.17784 0.54261 0.0
C2364 C 0.71828 0.18345 0.56145 0.0
C2365 C 0.72724 0.18831 0.52795 0.0
C2366 C 0.77717 0.24338 0.51699 0.0
H2367 H 0.79855 0.25783 0.42055 0.0
H2368 H 0.783 0.23327 0.44826 0.0
H2369 H 0.79667 0.27552 0.50217 0.0
H2370 H 0.7481 0.20359 0.57974 0.0
H2371 H 0.77604 0.22235 0.55406 0.0
H2372 H 0.76197 0.18933 0.50006 0.0
C2373 C 0.79679 0.25121 0.45019 0.0
C2374 C 0.79 0.25685 0.50161 0.0
C2375 C 0.80561 0.26535 0.43422 0.0
C2376 C 0.74206 0.19886 0.56537 0.0
C2377 C 0.75804 0.20966 0.55071 0.0
C2378 C 0.76989 0.20819 0.50068 0.0
C2379 C 0.80459 0.26052 0.46832 0.0
C2380 C 0.79298 0.24623 0.48545 0.0
C2381 C 0.75066 0.20485 0.5319 0.0
C2382 C 0.76658 0.21893 0.5165 0.0
H2383 H 0.84351 0.31679 0.45565 0.0
H2384 H 0.82929 0.29191 0.48348 0.0
H2385 H 0.7855 0.21286 0.47348 0.0
H2386 H 0.69294 0.16596 0.53918 0.0
H2387 H 0.72113 0.18445 0.51353 0.0
C2388 C 0.56006 0.73511 0.05646 0.0
C2389 C 0.54194 0.73311 0.06809 0.0
C2390 C 0.56728 0.75021 0.04087 0.0
C2391 C 0.56443 0.80006 0.01983 0.0
H2392 H 0.55478 0.76765 0.97227 0.0
C2393 C 0.52741 0.82152 0.95543 0.0
C2394 C 0.53391 0.81877 0.93718 0.0
C2395 C 0.53632 0.81598 0.97117 0.0
C2396 C 0.55818 0.77725 0.98535 0.0
H2397 H 0.51821 0.74619 0.07346 0.0
H2398 H 0.53108 0.77277 0.04673 0.0
H2399 H 0.55729 0.74925 0.0013 0.0
H2400 H 0.55578 0.80904 0.92121 0.0
H2401 H 0.57134 0.79926 0.94885 0.0
H2402 H 0.56426 0.82759 0.00406 0.0
C2403 C 0.53965 0.7627 0.04941 0.0
C2404 C 0.55963 0.76669 0.00198 0.0
C2405 C 0.53214 0.74734 0.06462 0.0
C2406 C 0.55031 0.81123 0.93508 0.0
C2407 C 0.55917 0.80556 0.95089 0.0
C2408 C 0.56312 0.81067 0.00322 0.0
C2409 C 0.55687 0.7639 0.0371 0.0
C2410 C 0.56167 0.77754 0.01945 0.0
C2411 C 0.55198 0.80753 0.96911 0.0
C2412 C 0.55884 0.79889 0.9859 0.0
H2413 H 0.56776 0.72419 0.05886 0.0
H2414 H 0.58055 0.75081 0.03155 0.0
H2415 H 0.56633 0.80892 0.0331 0.0
H2416 H 0.51495 0.82744 0.95759 0.0
H2417 H 0.53009 0.81738 0.98495 0.0
C2418 C 0.81544 0.55815 0.55763 0.0
C2419 C 0.82179 0.54092 0.55505 0.0
C2420 C 0.81024 0.56783 0.54213 0.0
C2421 C 0.81216 0.57053 0.48959 0.0
H2422 H 0.75045 0.56355 0.49452 0.0
C2423 C 0.74224 0.53035 0.43395 0.0
C2424 C 0.72763 0.53956 0.42991 0.0
C2425 C 0.75917 0.54027 0.44794 0.0
C2426 C 0.76798 0.56629 0.49297 0.0
H2427 H 0.82943 0.5217 0.53414 0.0
H2428 H 0.8201 0.53821 0.50728 0.0
H2429 H 0.77164 0.56362 0.52263 0.0
H2430 H 0.71951 0.56666 0.43683 0.0
H2431 H 0.74882 0.5836 0.46224 0.0
H2432 H 0.80748 0.57113 0.45979 0.0
C2433 C 0.81925 0.54446 0.5212 0.0
C2434 C 0.78016 0.56633 0.50908 0.0
C2435 C 0.82437 0.53475 0.53664 0.0
C2436 C 0.73064 0.55932 0.43977 0.0
C2437 C 0.74733 0.56896 0.4542 0.0
C2438 C 0.7999 0.57032 0.4735 0.0
C2439 C 0.81145 0.56058 0.52376 0.0
C2440 C 0.80182 0.56716 0.50747 0.0
C2441 C 0.76161 0.55936 0.45845 0.0
C2442 C 0.77721 0.56697 0.47504 0.0
H2443 H 0.81348 0.56343 0.57164 0.0
H2444 H 0.80451 0.58039 0.54454 0.0
H2445 H 0.82905 0.57177 0.48792 0.0
H2446 H 0.7404 0.51525 0.4264 0.0
H2447 H 0.76967 0.53228 0.45111 0.0
C2448 C 0.21005 0.74469 0.93535 0.0
C2449 C 0.18619 0.73074 0.93113 0.0
C2450 C 0.21737 0.76127 0.94966 0.0
C2451 C 0.20092 0.76993 0.99496 0.0
H2452 H 0.2557 0.83158 0.98983 0.0
C2453 C 0.25654 0.81807 0.05957 0.0
C2454 C 0.28036 0.82554 0.0568 0.0
C2455 C 0.24141 0.81232 0.04415 0.0
C2456 C 0.2403 0.81449 0.99153 0.0
H2457 H 0.15121 0.72333 0.93816 0.0
H2458 H 0.1641 0.75197 0.96411 0.0
H2459 H 0.23483 0.80985 0.96174 0.0
H2460 H 0.30731 0.83457 0.03567 0.0
H2461 H 0.28111 0.82424 0.00902 0.0
H2462 H 0.2075 0.77353 0.02458 0.0
C2463 C 0.17704 0.75027 0.95596 0.0
C2464 C 0.22829 0.80216 0.97546 0.0
C2465 C 0.16972 0.73398 0.94121 0.0
C2466 C 0.28902 0.82864 0.03833 0.0
C2467 C 0.27397 0.82294 0.02298 0.0
C2468 C 0.2131 0.78215 0.01105 0.0
C2469 C 0.20096 0.76396 0.96031 0.0
C2470 C 0.20918 0.77935 0.97702 0.0
C2471 C 0.24987 0.81407 0.02569 0.0
C2472 C 0.23363 0.80408 0.00943 0.0
H2473 H 0.22311 0.74264 0.92766 0.0
H2474 H 0.23587 0.77135 0.95291 0.0
H2475 H 0.18631 0.75229 0.99649 0.0
H2476 H 0.24934 0.81567 0.07364 0.0
H2477 H 0.22299 0.80579 0.0467 0.0
C2478 C 0.46871 0.25505 0.56158 0.0
C2479 C 0.45944 0.26972 0.56508 0.0
C2480 C 0.45964 0.23848 0.54727 0.0
C2481 C 0.43597 0.23049 0.50118 0.0
H2482 H 0.42971 0.16912 0.5066 0.0
C2483 C 0.44428 0.18215 0.43702 0.0
C2484 C 0.46108 0.17528 0.43988 0.0
C2485 C 0.43478 0.18788 0.45235 0.0
C2486 C 0.43121 0.18612 0.50483 0.0
H2487 H 0.43304 0.27831 0.55682 0.0
H2488 H 0.41759 0.24961 0.5309 0.0
H2489 H 0.4296 0.1906 0.53455 0.0
H2490 H 0.47975 0.16736 0.46111 0.0
H2491 H 0.46351 0.17756 0.48766 0.0
H2492 H 0.43951 0.22694 0.47162 0.0
C2493 C 0.43164 0.2508 0.53958 0.0
C2494 C 0.431 0.19832 0.5208 0.0
C2495 C 0.44043 0.26714 0.55432 0.0
C2496 C 0.46701 0.17279 0.45839 0.0
C2497 C 0.45748 0.17842 0.47366 0.0
C2498 C 0.43633 0.21835 0.48517 0.0
C2499 C 0.44132 0.23645 0.5359 0.0
C2500 C 0.43455 0.22108 0.51917 0.0
C2501 C 0.44176 0.18667 0.47082 0.0
C2502 C 0.43517 0.19654 0.48693 0.0
H2503 H 0.48322 0.25655 0.56982 0.0
H2504 H 0.46768 0.22792 0.54457 0.0
H2505 H 0.43888 0.24807 0.49955 0.0
H2506 H 0.43919 0.18408 0.42294 0.0
H2507 H 0.42252 0.19395 0.44972 0.0
C2508 C 0.7492 0.53418 0.06015 0.0
C2509 C 0.73466 0.5433 0.06476 0.0
C2510 C 0.76545 0.54398 0.04565 0.0
C2511 C 0.77144 0.5693 0.00052 0.0
H2512 H 0.8326 0.5745 0.00263 0.0
C2513 C 0.81445 0.55996 0.93347 0.0
C2514 C 0.8209 0.54273 0.93548 0.0
C2515 C 0.81032 0.56991 0.94936 0.0
C2516 C 0.81566 0.57333 0.00178 0.0
H2517 H 0.72603 0.57018 0.05834 0.0
H2518 H 0.75411 0.58691 0.0321 0.0
H2519 H 0.8129 0.57432 0.03178 0.0
H2520 H 0.82983 0.52378 0.95569 0.0
H2521 H 0.82232 0.54071 0.98322 0.0
H2522 H 0.77318 0.56624 0.97069 0.0
C2523 C 0.75311 0.57244 0.04007 0.0
C2524 C 0.80448 0.57338 0.01845 0.0
C2525 C 0.73713 0.56291 0.05499 0.0
C2526 C 0.82464 0.53681 0.95364 0.0
C2527 C 0.82058 0.54677 0.96946 0.0
C2528 C 0.78255 0.56907 0.98383 0.0
C2529 C 0.76723 0.56286 0.0352 0.0
C2530 C 0.78177 0.57013 0.01798 0.0
C2531 C 0.81271 0.56292 0.96753 0.0
C2532 C 0.80422 0.5698 0.98438 0.0
H2533 H 0.74777 0.51918 0.0676 0.0
H2534 H 0.77583 0.53601 0.04202 0.0
H2535 H 0.75388 0.56664 -0.00021 0.0
H2536 H 0.81163 0.56507 0.91966 0.0
H2537 H 0.80451 0.58249 0.94742 0.0
C2538 C 0.17 0.7291 0.5541 0.0
C2539 C 0.18781 0.7274 0.56354 0.0
C2540 C 0.17551 0.74446 0.53882 0.0
C2541 C 0.22324 0.79685 0.51688 0.0
H2542 H 0.20186 0.76551 0.46878 0.0
C2543 C 0.28161 0.82324 0.45283 0.0
C2544 C 0.27234 0.81867 0.43453 0.0
C2545 C 0.26696 0.81774 0.46841 0.0
C2546 C 0.20752 0.77484 0.48201 0.0
H2547 H 0.22522 0.74105 0.56522 0.0
H2548 H 0.23483 0.76821 0.53905 0.0
H2549 H 0.1829 0.74474 0.49771 0.0
H2550 H 0.24059 0.80634 0.41813 0.0
H2551 H 0.21483 0.79667 0.44553 0.0
H2552 H 0.24856 0.82658 0.5014 0.0
C2553 C 0.21668 0.7576 0.54323 0.0
C2554 C 0.19664 0.76289 0.49859 0.0
C2555 C 0.21117 0.74192 0.55807 0.0
C2556 C 0.24823 0.80995 0.43209 0.0
C2557 C 0.23347 0.80431 0.44776 0.0
C2558 C 0.23391 0.8089 0.50034 0.0
C2559 C 0.19893 0.75877 0.53328 0.0
C2560 C 0.20528 0.77339 0.51616 0.0
C2561 C 0.24262 0.80752 0.46612 0.0
C2562 C 0.22709 0.79756 0.4828 0.0
H2563 H 0.15186 0.718 0.55809 0.0
H2564 H 0.16156 0.74499 0.53121 0.0
H2565 H 0.23003 0.80534 0.53031 0.0
H2566 H 0.30015 0.83017 0.45519 0.0
H2567 H 0.27467 0.82019 0.48228 0.0
C2568 C 0.45945 0.17471 0.04307 0.0
C2569 C 0.455 0.1788 0.06161 0.0
C2570 C 0.44996 0.18048 0.02785 0.0
C2571 C 0.43188 0.22275 0.01563 0.0
H2572 H 0.42135 0.19207 0.96714 0.0
C2573 C 0.43481 0.26865 0.94502 0.0
C2574 C 0.45317 0.27003 0.93405 0.0
C2575 C 0.42614 0.25314 0.96032 0.0
C2576 C 0.42382 0.20063 0.98065 0.0
H2577 H 0.43575 0.1907 0.07875 0.0
H2578 H 0.41909 0.20077 0.05205 0.0
H2579 H 0.42134 0.17137 0.99564 0.0
H2580 H 0.47591 0.25559 0.92955 0.0
H2581 H 0.46046 0.22825 0.95575 0.0
H2582 H 0.43546 0.25242 0.00041 0.0
C2583 C 0.43018 0.19334 0.04933 0.0
C2584 C 0.42397 0.18888 0.99694 0.0
C2585 C 0.43966 0.18748 0.06462 0.0
C2586 C 0.46187 0.25495 0.93792 0.0
C2587 C 0.45287 0.23916 0.95279 0.0
C2588 C 0.43151 0.23443 -0.00069 0.0
C2589 C 0.43574 0.19048 0.03077 0.0
C2590 C 0.42929 0.20028 0.01449 0.0
C2591 C 0.43527 0.23839 0.96437 0.0
C2592 C 0.42868 0.22389 0.98161 0.0
H2593 H 0.47103 0.16786 0.04024 0.0
H2594 H 0.45491 0.17831 0.01378 0.0
H2595 H 0.43613 0.23211 0.02888 0.0
H2596 H 0.42791 0.28019 0.94225 0.0
H2597 H 0.41265 0.25291 0.96916 0.0
C2598 C 0.17521 0.4383 0.43991 0.0
C2599 C 0.19297 0.45811 0.43072 0.0
C2600 C 0.18068 0.42846 0.45519 0.0
C2601 C 0.22838 0.4245 0.47771 0.0
H2602 H 0.20643 0.43477 0.52542 0.0
C2603 C 0.2867 0.45949 0.54131 0.0
C2604 C 0.27755 0.4551 0.55966 0.0
C2605 C 0.27201 0.44951 0.52587 0.0
C2606 C 0.21224 0.43099 0.51231 0.0
H2607 H 0.23029 0.48246 0.4295 0.0
H2608 H 0.23986 0.46494 0.45572 0.0
H2609 H 0.1874 0.43574 0.4963 0.0
H2610 H 0.24605 0.43539 0.57631 0.0
H2611 H 0.22023 0.41789 0.54915 0.0
H2612 H 0.25397 0.4209 0.49351 0.0
C2613 C 0.22177 0.45715 0.45131 0.0
C2614 C 0.20132 0.43159 0.49563 0.0
C2615 C 0.21627 0.46731 0.43646 0.0
C2616 C 0.25358 0.43926 0.56231 0.0
C2617 C 0.23879 0.42929 0.54678 0.0
C2618 C 0.23909 0.42359 0.49437 0.0
C2619 C 0.20402 0.43789 0.46098 0.0
C2620 C 0.21022 0.4297 0.47819 0.0
C2621 C 0.24778 0.43483 0.52836 0.0
C2622 C 0.23209 0.42832 0.51175 0.0
H2623 H 0.1571 0.43098 0.43571 0.0
H2624 H 0.16674 0.41374 0.46261 0.0
H2625 H 0.23536 0.4228 0.46437 0.0
H2626 H 0.30514 0.47139 0.53879 0.0
H2627 H 0.27957 0.45449 0.51193 0.0
C2628 C 0.7858 0.26849 0.05625 0.0
C2629 C 0.80944 0.27883 0.06147 0.0
C2630 C 0.77664 0.25154 0.04222 0.0
C2631 C 0.79049 0.23378 -0.00106 0.0
H2632 H 0.72902 0.17931 0.00614 0.0
C2633 C 0.73117 0.17956 0.93638 0.0
C2634 C 0.7094 0.17855 0.93737 0.0
C2635 C 0.74594 0.18643 0.95217 0.0
C2636 C 0.74631 0.19426 0.00392 0.0
H2637 H 0.84207 0.27944 0.05613 0.0
H2638 H 0.82599 0.24997 0.03077 0.0
H2639 H 0.75134 0.20208 0.03337 0.0
H2640 H 0.68543 0.18254 0.95575 0.0
H2641 H 0.71078 0.19406 0.98315 0.0
H2642 H 0.78468 0.22687 0.96932 0.0
C2643 C 0.81463 0.25493 0.03792 0.0
C2644 C 0.75908 0.20725 0.01949 0.0
C2645 C 0.82377 0.2717 0.05237 0.0
C2646 C 0.70217 0.18331 0.95456 0.0
C2647 C 0.71663 0.18971 0.97031 0.0
C2648 C 0.77763 0.22078 0.98328 0.0
C2649 C 0.79092 0.24466 0.03281 0.0
C2650 C 0.78076 0.22775 0.01708 0.0
C2651 C 0.73886 0.1918 0.96925 0.0
C2652 C 0.75492 0.20158 0.9856 0.0
H2653 H 0.77424 0.27345 0.06309 0.0
H2654 H 0.7584 0.24418 0.03839 0.0
H2655 H 0.80714 0.24958 0.99671 0.0
H2656 H 0.73717 0.17604 0.92324 0.0
H2657 H 0.763 0.18793 0.95097 0.0
C2658 C 0.52141 0.70761 0.45534 0.0
C2659 C 0.53385 0.71523 0.43835 0.0
C2660 C 0.52961 0.7213 0.4715 0.0
C2661 C 0.561 0.78122 0.48664 0.0
H2662 H 0.55333 0.75212 0.53557 0.0
C2663 C 0.5556 0.82409 0.55693 0.0
C2664 C 0.53417 0.80924 0.56585 0.0
C2665 C 0.56364 0.81553 0.54235 0.0
C2666 C 0.55593 0.76064 0.52202 0.0
H2667 H 0.56493 0.74293 0.42499 0.0
H2668 H 0.57905 0.76744 0.45343 0.0
H2669 H 0.55311 0.73109 0.50723 0.0
H2670 H 0.50494 0.77371 0.56726 0.0
H2671 H 0.51904 0.75883 0.54232 0.0
H2672 H 0.56221 0.81015 0.50146 0.0
C2673 C 0.56306 0.75067 0.45414 0.0
C2674 C 0.55578 0.74861 0.50583 0.0
C2675 C 0.55503 0.73666 0.43794 0.0
C2676 C 0.52143 0.78562 0.56053 0.0
C2677 C 0.52963 0.77702 0.54637 0.0
C2678 C 0.56115 0.7933 0.50291 0.0
C2679 C 0.55032 0.7431 0.47104 0.0
C2680 C 0.55707 0.75828 0.48794 0.0
C2681 C 0.55063 0.79189 0.53695 0.0
C2682 C 0.55738 0.78255 0.52064 0.0
H2683 H 0.50513 0.69109 0.45612 0.0
H2684 H 0.51922 0.71516 0.48423 0.0
H2685 H 0.56197 0.78905 0.47301 0.0
H2686 H 0.56569 0.84239 0.56079 0.0
H2687 H 0.57983 0.82733 0.53521 0.0
loop_
_geom_bond_atom_site_label_1
_geom_bond_atom_site_label_2
_geom_bond_distance
_geom_bond_site_symmetry_2
_ccdc_geom_bond_type
Fe0 O2 1.918 . S
Fe0 O5 1.997 . S
Fe0 O6 2.002 . S
Fe0 O11 1.976 . S
Fe0 O14 1.996 . S
Fe1 O2 1.918 . S
Fe1 O9 1.997 . S
Fe1 O12 1.996 . S
Fe1 O16 1.976 . S
Fe1 O19 2.002 . S
O2 Fe0 1.918 . S
O2 Fe1 1.918 . S
O2 Fe3 1.918 . S
Fe3 O2 1.918 . S
Fe3 O4 2.002 . S
Fe3 O13 1.976 . S
Fe3 O17 1.996 . S
Fe3 O20 1.997 . S
O4 Fe3 2.002 . S
O4 C21 1.295 . S
O5 Fe0 1.997 . S
O5 C21 1.235 . S
O6 Fe0 2.002 . S
O6 C7 1.295 . S
C7 O6 1.295 . S
C7 O9 1.235 . S
C8 O13 1.287 . S
C8 O14 1.255 . S
O9 Fe1 1.997 . S
O9 C7 1.235 . S
C10 O16 1.287 . S
C10 O17 1.255 . S
O11 Fe0 1.976 . S
O11 C18 1.287 . S
O12 Fe1 1.996 . S
O12 C18 1.255 . S
O13 Fe3 1.976 . S
O13 C8 1.287 . S
O14 Fe0 1.996 . S
O14 C8 1.255 . S
C15 O19 1.295 . S
C15 O20 1.235 . S
O16 Fe1 1.976 . S
O16 C10 1.287 . S
O17 Fe3 1.996 . S
O17 C10 1.255 . S
C18 O11 1.287 . S
C18 O12 1.255 . S
O19 Fe1 2.002 . S
O19 C15 1.295 . S
O20 Fe3 1.997 . S
O20 C15 1.235 . S
C21 O4 1.295 . S
C21 O5 1.235 . S
Fe22 O24 1.918 . S
Fe22 O27 1.997 . S
Fe22 O28 2.002 . S
Fe22 O33 1.976 . S
Fe22 O36 1.996 . S
Fe23 O24 1.918 . S
Fe23 O31 1.997 . S
Fe23 O34 1.996 . S
Fe23 O38 1.976 . S
Fe23 O41 2.002 . S
O24 Fe22 1.918 . S
O24 Fe23 1.918 . S
O24 Fe25 1.918 . S
Fe25 O24 1.918 . S
Fe25 O26 2.002 . S
Fe25 O35 1.976 . S
Fe25 O39 1.996 . S
Fe25 O42 1.997 . S
O26 Fe25 2.002 . S
O26 C43 1.295 . S
O27 Fe22 1.997 . S
O27 C43 1.235 . S
O28 Fe22 2.002 . S
O28 C29 1.295 . S
C29 O28 1.295 . S
C29 O31 1.235 . S
C30 O35 1.287 . S
C30 O36 1.255 . S
O31 Fe23 1.997 . S
O31 C29 1.235 . S
C32 O38 1.287 . S
C32 O39 1.255 . S
O33 Fe22 1.976 . S
O33 C40 1.287 . S
O34 Fe23 1.996 . S
O34 C40 1.255 . S
O35 Fe25 1.976 . S
O35 C30 1.287 . S
O36 Fe22 1.996 . S
O36 C30 1.255 . S
C37 O41 1.295 . S
C37 O42 1.235 . S
O38 Fe23 1.976 . S
O38 C32 1.287 . S
O39 Fe25 1.996 . S
O39 C32 1.255 . S
C40 O33 1.287 . S
C40 O34 1.255 . S
O41 Fe23 2.002 . S
O41 C37 1.295 . S
O42 Fe25 1.997 . S
O42 C37 1.235 . S
C43 O26 1.295 . S
C43 O27 1.235 . S
Fe44 O46 1.918 . S
Fe44 O49 1.997 . S
Fe44 O50 2.002 . S
Fe44 O55 1.976 . S
Fe44 O58 1.996 . S
Fe45 O46 1.918 . S
Fe45 O53 1.997 . S
Fe45 O56 1.996 . S
Fe45 O60 1.976 . S
Fe45 O63 2.002 . S
O46 Fe44 1.918 . S
O46 Fe45 1.918 . S
O46 Fe47 1.918 . S
Fe47 O46 1.918 . S
Fe47 O48 2.002 . S
Fe47 O57 1.976 . S
Fe47 O61 1.996 . S
Fe47 O64 1.997 . S
O48 Fe47 2.002 . S
O48 C65 1.295 . S
O49 Fe44 1.997 . S
O49 C65 1.235 . S
O50 Fe44 2.002 . S
O50 C51 1.295 . S
C51 O50 1.295 . S
C51 O53 1.235 . S
C52 O57 1.287 . S
C52 O58 1.255 . S
O53 Fe45 1.997 . S
O53 C51 1.235 . S
C54 O60 1.287 . S
C54 O61 1.255 . S
O55 Fe44 1.976 . S
O55 C62 1.287 . S
O56 Fe45 1.996 . S
O56 C62 1.255 . S
O57 Fe47 1.976 . S
O57 C52 1.287 . S
O58 Fe44 1.996 . S
O58 C52 1.255 . S
C59 O63 1.295 . S
C59 O64 1.235 . S
O60 Fe45 1.976 . S
O60 C54 1.287 . S
O61 Fe47 1.996 . S
O61 C54 1.255 . S
C62 O55 1.287 . S
C62 O56 1.255 . S
O63 Fe45 2.002 . S
O63 C59 1.295 . S
O64 Fe47 1.997 . S
O64 C59 1.235 . S
C65 O48 1.295 . S
C65 O49 1.235 . S
Fe66 O68 1.918 . S
Fe66 O71 1.997 . S
Fe66 O72 2.002 . S
Fe66 O77 1.976 . S
Fe66 O80 1.996 . S
Fe67 O68 1.918 . S
Fe67 O75 1.997 . S
Fe67 O78 1.996 . S
Fe67 O82 1.976 . S
Fe67 O85 2.002 . S
O68 Fe66 1.918 . S
O68 Fe67 1.918 . S
O68 Fe69 1.918 . S
Fe69 O68 1.918 . S
Fe69 O70 2.002 . S
Fe69 O79 1.976 . S
Fe69 O83 1.996 . S
Fe69 O86 1.997 . S
O70 Fe69 2.002 . S
O70 C87 1.295 . S
O71 Fe66 1.997 . S
O71 C87 1.235 . S
O72 Fe66 2.002 . S
O72 C73 1.295 . S
C73 O72 1.295 . S
C73 O75 1.235 . S
C74 O79 1.287 . S
C74 O80 1.255 . S
O75 Fe67 1.997 . S
O75 C73 1.235 . S
C76 O82 1.287 . S
C76 O83 1.255 . S
O77 Fe66 1.976 . S
O77 C84 1.287 . S
O78 Fe67 1.996 . S
O78 C84 1.255 . S
O79 Fe69 1.976 . S
O79 C74 1.287 . S
O80 Fe66 1.996 . S
O80 C74 1.255 . S
C81 O85 1.295 . S
C81 O86 1.235 . S
O82 Fe67 1.976 . S
O82 C76 1.287 . S
O83 Fe69 1.996 . S
O83 C76 1.255 . S
C84 O77 1.287 . S
C84 O78 1.255 . S
O85 Fe67 2.002 . S
O85 C81 1.295 . S
O86 Fe69 1.997 . S
O86 C81 1.235 . S
C87 O70 1.295 . S
C87 O71 1.235 . S
Fe88 O90 1.918 . S
Fe88 O93 1.997 . S
Fe88 O94 2.002 . S
Fe88 O99 1.976 . S
Fe88 O102 1.996 . S
Fe89 O90 1.918 . S
Fe89 O97 1.997 . S
Fe89 O100 1.996 . S
Fe89 O104 1.976 . S
Fe89 O107 2.002 . S
O90 Fe88 1.918 . S
O90 Fe89 1.918 . S
O90 Fe91 1.918 . S
Fe91 O90 1.918 . S
Fe91 O92 2.002 . S
Fe91 O101 1.976 . S
Fe91 O105 1.996 . S
Fe91 O108 1.997 . S
O92 Fe91 2.002 . S
O92 C109 1.295 . S
O93 Fe88 1.997 . S
O93 C109 1.235 . S
O94 Fe88 2.002 . S
O94 C95 1.295 . S
C95 O94 1.295 . S
C95 O97 1.235 . S
C96 O101 1.287 . S
C96 O102 1.255 . S
O97 Fe89 1.997 . S
O97 C95 1.235 . S
C98 O104 1.287 . S
C98 O105 1.255 . S
O99 Fe88 1.976 . S
O99 C106 1.287 . S
O100 Fe89 1.996 . S
O100 C106 1.255 . S
O101 Fe91 1.976 . S
O101 C96 1.287 . S
O102 Fe88 1.996 . S
O102 C96 1.255 . S
C103 O107 1.295 . S
C103 O108 1.235 . S
O104 Fe89 1.976 . S
O104 C98 1.287 . S
O105 Fe91 1.996 . S
O105 C98 1.255 . S
C106 O99 1.287 . S
C106 O100 1.255 . S
O107 Fe89 2.002 . S
O107 C103 1.295 . S
O108 Fe91 1.997 . S
O108 C103 1.235 . S
C109 O92 1.295 . S
C109 O93 1.235 . S
Fe110 O112 1.918 . S
Fe110 O115 1.997 . S
Fe110 O116 2.002 . S
Fe110 O121 1.976 . S
Fe110 O124 1.996 . S
Fe111 O112 1.918 . S
Fe111 O119 1.997 . S
Fe111 O122 1.996 . S
Fe111 O126 1.976 . S
Fe111 O129 2.002 . S
O112 Fe110 1.918 . S
O112 Fe111 1.918 . S
O112 Fe113 1.918 . S
Fe113 O112 1.918 . S
Fe113 O114 2.002 . S
Fe113 O123 1.976 . S
Fe113 O127 1.996 . S
Fe113 O130 1.997 . S
O114 Fe113 2.002 . S
O114 C131 1.295 . S
O115 Fe110 1.997 . S
O115 C131 1.235 . S
O116 Fe110 2.002 . S
O116 C117 1.295 . S
C117 O116 1.295 . S
C117 O119 1.235 . S
C118 O123 1.287 . S
C118 O124 1.255 . S
O119 Fe111 1.997 . S
O119 C117 1.235 . S
C120 O126 1.287 . S
C120 O127 1.255 . S
O121 Fe110 1.976 . S
O121 C128 1.287 . S
O122 Fe111 1.996 . S
O122 C128 1.255 . S
O123 Fe113 1.976 . S
O123 C118 1.287 . S
O124 Fe110 1.996 . S
O124 C118 1.255 . S
C125 O129 1.295 . S
C125 O130 1.235 . S
O126 Fe111 1.976 . S
O126 C120 1.287 . S
O127 Fe113 1.996 . S
O127 C120 1.255 . S
C128 O121 1.287 . S
C128 O122 1.255 . S
O129 Fe111 2.002 . S
O129 C125 1.295 . S
O130 Fe113 1.997 . S
O130 C125 1.235 . S
C131 O114 1.295 . S
C131 O115 1.235 . S
Fe132 O134 1.918 . S
Fe132 O137 1.997 . S
Fe132 O138 2.002 . S
Fe132 O143 1.976 . S
Fe132 O146 1.996 . S
Fe133 O134 1.918 . S
Fe133 O141 1.997 . S
Fe133 O144 1.996 . S
Fe133 O148 1.976 . S
Fe133 O151 2.002 . S
O134 Fe132 1.918 . S
O134 Fe133 1.918 . S
O134 Fe135 1.918 . S
Fe135 O134 1.918 . S
Fe135 O136 2.002 . S
Fe135 O145 1.976 . S
Fe135 O149 1.996 . S
Fe135 O152 1.997 . S
O136 Fe135 2.002 . S
O136 C153 1.295 . S
O137 Fe132 1.997 . S
O137 C153 1.235 . S
O138 Fe132 2.002 . S
O138 C139 1.295 . S
C139 O138 1.295 . S
C139 O141 1.235 . S
C140 O145 1.287 . S
C140 O146 1.255 . S
O141 Fe133 1.997 . S
O141 C139 1.235 . S
C142 O148 1.287 . S
C142 O149 1.255 . S
O143 Fe132 1.976 . S
O143 C150 1.287 . S
O144 Fe133 1.996 . S
O144 C150 1.255 . S
O145 Fe135 1.976 . S
O145 C140 1.287 . S
O146 Fe132 1.996 . S
O146 C140 1.255 . S
C147 O151 1.295 . S
C147 O152 1.235 . S
O148 Fe133 1.976 . S
O148 C142 1.287 . S
O149 Fe135 1.996 . S
O149 C142 1.255 . S
C150 O143 1.287 . S
C150 O144 1.255 . S
O151 Fe133 2.002 . S
O151 C147 1.295 . S
O152 Fe135 1.997 . S
O152 C147 1.235 . S
C153 O136 1.295 . S
C153 O137 1.235 . S
Fe154 O156 1.918 . S
Fe154 O159 1.997 . S
Fe154 O160 2.002 . S
Fe154 O165 1.976 . S
Fe154 O168 1.996 . S
Fe155 O156 1.918 . S
Fe155 O163 1.997 . S
Fe155 O166 1.996 . S
Fe155 O170 1.976 . S
Fe155 O173 2.002 . S
O156 Fe154 1.918 . S
O156 Fe155 1.918 . S
O156 Fe157 1.918 . S
Fe157 O156 1.918 . S
Fe157 O158 2.002 . S
Fe157 O167 1.976 . S
Fe157 O171 1.996 . S
Fe157 O174 1.997 . S
O158 Fe157 2.002 . S
O158 C175 1.295 . S
O159 Fe154 1.997 . S
O159 C175 1.235 . S
O160 Fe154 2.002 . S
O160 C161 1.295 . S
C161 O160 1.295 . S
C161 O163 1.235 . S
C162 O167 1.287 . S
C162 O168 1.255 . S
O163 Fe155 1.997 . S
O163 C161 1.235 . S
C164 O170 1.287 . S
C164 O171 1.255 . S
O165 Fe154 1.976 . S
O165 C172 1.287 . S
O166 Fe155 1.996 . S
O166 C172 1.255 . S
O167 Fe157 1.976 . S
O167 C162 1.287 . S
O168 Fe154 1.996 . S
O168 C162 1.255 . S
C169 O173 1.295 . S
C169 O174 1.235 . S
O170 Fe155 1.976 . S
O170 C164 1.287 . S
O171 Fe157 1.996 . S
O171 C164 1.255 . S
C172 O165 1.287 . S
C172 O166 1.255 . S
O173 Fe155 2.002 . S
O173 C169 1.295 . S
O174 Fe157 1.997 . S
O174 C169 1.235 . S
C175 O158 1.295 . S
C175 O159 1.235 . S
Fe176 O178 1.918 . S
Fe176 O181 1.997 . S
Fe176 O182 2.002 . S
Fe176 O187 1.976 . S
Fe176 O190 1.996 . S
Fe177 O178 1.918 . S
Fe177 O185 1.997 . S
Fe177 O188 1.996 . S
Fe177 O192 1.976 . S
Fe177 O195 2.002 . S
O178 Fe176 1.918 . S
O178 Fe177 1.918 . S
O178 Fe179 1.918 . S
Fe179 O178 1.918 . S
Fe179 O180 2.002 . S
Fe179 O189 1.976 . S
Fe179 O193 1.996 . S
Fe179 O196 1.997 . S
O180 Fe179 2.002 . S
O180 C197 1.295 . S
O181 Fe176 1.997 . S
O181 C197 1.235 . S
O182 Fe176 2.002 . S
O182 C183 1.295 . S
C183 O182 1.295 . S
C183 O185 1.235 . S
C184 O189 1.287 . S
C184 O190 1.255 . S
O185 Fe177 1.997 . S
O185 C183 1.235 . S
C186 O192 1.287 . S
C186 O193 1.255 . S
O187 Fe176 1.976 . S
O187 C194 1.287 . S
O188 Fe177 1.996 . S
O188 C194 1.255 . S
O189 Fe179 1.976 . S
O189 C184 1.287 . S
O190 Fe176 1.996 . S
O190 C184 1.255 . S
C191 O195 1.295 . S
C191 O196 1.235 . S
O192 Fe177 1.976 . S
O192 C186 1.287 . S
O193 Fe179 1.996 . S
O193 C186 1.255 . S
C194 O187 1.287 . S
C194 O188 1.255 . S
O195 Fe177 2.002 . S
O195 C191 1.295 . S
O196 Fe179 1.997 . S
O196 C191 1.235 . S
C197 O180 1.295 . S
C197 O181 1.235 . S
Fe198 O200 1.918 . S
Fe198 O203 1.997 . S
Fe198 O204 2.002 . S
Fe198 O209 1.976 . S
Fe198 O212 1.996 . S
Fe199 O200 1.918 . S
Fe199 O207 1.997 . S
Fe199 O210 1.996 . S
Fe199 O214 1.976 . S
Fe199 O217 2.002 . S
O200 Fe198 1.918 . S
O200 Fe199 1.918 . S
O200 Fe201 1.918 . S
Fe201 O200 1.918 . S
Fe201 O202 2.002 . S
Fe201 O211 1.976 . S
Fe201 O215 1.996 . S
Fe201 O218 1.997 . S
O202 Fe201 2.002 . S
O202 C219 1.295 . S
O203 Fe198 1.997 . S
O203 C219 1.235 . S
O204 Fe198 2.002 . S
O204 C205 1.295 . S
C205 O204 1.295 . S
C205 O207 1.235 . S
C206 O211 1.287 . S
C206 O212 1.255 . S
O207 Fe199 1.997 . S
O207 C205 1.235 . S
C208 O214 1.287 . S
C208 O215 1.255 . S
O209 Fe198 1.976 . S
O209 C216 1.287 . S
O210 Fe199 1.996 . S
O210 C216 1.255 . S
O211 Fe201 1.976 . S
O211 C206 1.287 . S
O212 Fe198 1.996 . S
O212 C206 1.255 . S
C213 O217 1.295 . S
C213 O218 1.235 . S
O214 Fe199 1.976 . S
O214 C208 1.287 . S
O215 Fe201 1.996 . S
O215 C208 1.255 . S
C216 O209 1.287 . S
C216 O210 1.255 . S
O217 Fe199 2.002 . S
O217 C213 1.295 . S
O218 Fe201 1.997 . S
O218 C213 1.235 . S
C219 O202 1.295 . S
C219 O203 1.235 . S
Fe220 O222 1.918 . S
Fe220 O225 1.997 . S
Fe220 O226 2.002 . S
Fe220 O231 1.976 . S
Fe220 O234 1.996 . S
Fe221 O222 1.918 . S
Fe221 O229 1.997 . S
Fe221 O232 1.996 . S
Fe221 O236 1.976 . S
Fe221 O239 2.002 . S
O222 Fe220 1.918 . S
O222 Fe221 1.918 . S
O222 Fe223 1.918 . S
Fe223 O222 1.918 . S
Fe223 O224 2.002 . S
Fe223 O233 1.976 . S
Fe223 O237 1.996 . S
Fe223 O240 1.997 . S
O224 Fe223 2.002 . S
O224 C241 1.295 . S
O225 Fe220 1.997 . S
O225 C241 1.235 . S
O226 Fe220 2.002 . S
O226 C227 1.295 . S
C227 O226 1.295 . S
C227 O229 1.235 . S
C228 O233 1.287 . S
C228 O234 1.255 . S
O229 Fe221 1.997 . S
O229 C227 1.235 . S
C230 O236 1.287 . S
C230 O237 1.255 . S
O231 Fe220 1.976 . S
O231 C238 1.287 . S
O232 Fe221 1.996 . S
O232 C238 1.255 . S
O233 Fe223 1.976 . S
O233 C228 1.287 . S
O234 Fe220 1.996 . S
O234 C228 1.255 . S
C235 O239 1.295 . S
C235 O240 1.235 . S
O236 Fe221 1.976 . S
O236 C230 1.287 . S
O237 Fe223 1.996 . S
O237 C230 1.255 . S
C238 O231 1.287 . S
C238 O232 1.255 . S
O239 Fe221 2.002 . S
O239 C235 1.295 . S
O240 Fe223 1.997 . S
O240 C235 1.235 . S
C241 O224 1.295 . S
C241 O225 1.235 . S
Fe242 O244 1.918 . S
Fe242 O247 1.997 . S
Fe242 O248 2.002 . S
Fe242 O253 1.976 . S
Fe242 O256 1.996 . S
Fe243 O244 1.918 . S
Fe243 O251 1.997 . S
Fe243 O254 1.996 . S
Fe243 O258 1.976 . S
Fe243 O261 2.002 . S
O244 Fe242 1.918 . S
O244 Fe243 1.918 . S
O244 Fe245 1.918 . S
Fe245 O244 1.918 . S
Fe245 O246 2.002 . S
Fe245 O255 1.976 . S
Fe245 O259 1.996 . S
Fe245 O262 1.997 . S
O246 Fe245 2.002 . S
O246 C263 1.295 . S
O247 Fe242 1.997 . S
O247 C263 1.235 . S
O248 Fe242 2.002 . S
O248 C249 1.295 . S
C249 O248 1.295 . S
C249 O251 1.235 . S
C250 O255 1.287 . S
C250 O256 1.255 . S
O251 Fe243 1.997 . S
O251 C249 1.235 . S
C252 O258 1.287 . S
C252 O259 1.255 . S
O253 Fe242 1.976 . S
O253 C260 1.287 . S
O254 Fe243 1.996 . S
O254 C260 1.255 . S
O255 Fe245 1.976 . S
O255 C250 1.287 . S
O256 Fe242 1.996 . S
O256 C250 1.255 . S
C257 O261 1.295 . S
C257 O262 1.235 . S
O258 Fe243 1.976 . S
O258 C252 1.287 . S
O259 Fe245 1.996 . S
O259 C252 1.255 . S
C260 O253 1.287 . S
C260 O254 1.255 . S
O261 Fe243 2.002 . S
O261 C257 1.295 . S
O262 Fe245 1.997 . S
O262 C257 1.235 . S
C263 O246 1.295 . S
C263 O247 1.235 . S
Fe264 O266 1.918 . S
Fe264 O269 1.997 . S
Fe264 O270 2.002 . S
Fe264 O275 1.976 . S
Fe264 O278 1.996 . S
Fe265 O266 1.918 . S
Fe265 O273 1.997 . S
Fe265 O276 1.996 . S
Fe265 O280 1.976 . S
Fe265 O283 2.002 . S
O266 Fe264 1.918 . S
O266 Fe265 1.918 . S
O266 Fe267 1.918 . S
Fe267 O266 1.918 . S
Fe267 O268 2.002 . S
Fe267 O277 1.976 . S
Fe267 O281 1.996 . S
Fe267 O284 1.997 . S
O268 Fe267 2.002 . S
O268 C285 1.295 . S
O269 Fe264 1.997 . S
O269 C285 1.235 . S
O270 Fe264 2.002 . S
O270 C271 1.295 . S
C271 O270 1.295 . S
C271 O273 1.235 . S
C272 O277 1.287 . S
C272 O278 1.255 . S
O273 Fe265 1.997 . S
O273 C271 1.235 . S
C274 O280 1.287 . S
C274 O281 1.255 . S
O275 Fe264 1.976 . S
O275 C282 1.287 . S
O276 Fe265 1.996 . S
O276 C282 1.255 . S
O277 Fe267 1.976 . S
O277 C272 1.287 . S
O278 Fe264 1.996 . S
O278 C272 1.255 . S
C279 O283 1.295 . S
C279 O284 1.235 . S
O280 Fe265 1.976 . S
O280 C274 1.287 . S
O281 Fe267 1.996 . S
O281 C274 1.255 . S
C282 O275 1.287 . S
C282 O276 1.255 . S
O283 Fe265 2.002 . S
O283 C279 1.295 . S
O284 Fe267 1.997 . S
O284 C279 1.235 . S
C285 O268 1.295 . S
C285 O269 1.235 . S
Fe286 O288 1.918 . S
Fe286 O291 1.997 . S
Fe286 O292 2.002 . S
Fe286 O297 1.976 . S
Fe286 O300 1.996 . S
Fe287 O288 1.918 . S
Fe287 O295 1.997 . S
Fe287 O298 1.996 . S
Fe287 O302 1.976 . S
Fe287 O305 2.002 . S
O288 Fe286 1.918 . S
O288 Fe287 1.918 . S
O288 Fe289 1.918 . S
Fe289 O288 1.918 . S
Fe289 O290 2.002 . S
Fe289 O299 1.976 . S
Fe289 O303 1.996 . S
Fe289 O306 1.997 . S
O290 Fe289 2.002 . S
O290 C307 1.295 . S
O291 Fe286 1.997 . S
O291 C307 1.235 . S
O292 Fe286 2.002 . S
O292 C293 1.295 . S
C293 O292 1.295 . S
C293 O295 1.235 . S
C294 O299 1.287 . S
C294 O300 1.255 . S
O295 Fe287 1.997 . S
O295 C293 1.235 . S
C296 O302 1.287 . S
C296 O303 1.255 . S
O297 Fe286 1.976 . S
O297 C304 1.287 . S
O298 Fe287 1.996 . S
O298 C304 1.255 . S
O299 Fe289 1.976 . S
O299 C294 1.287 . S
O300 Fe286 1.996 . S
O300 C294 1.255 . S
C301 O305 1.295 . S
C301 O306 1.235 . S
O302 Fe287 1.976 . S
O302 C296 1.287 . S
O303 Fe289 1.996 . S
O303 C296 1.255 . S
C304 O297 1.287 . S
C304 O298 1.255 . S
O305 Fe287 2.002 . S
O305 C301 1.295 . S
O306 Fe289 1.997 . S
O306 C301 1.235 . S
C307 O290 1.295 . S
C307 O291 1.235 . S
Fe308 O310 1.918 . S
Fe308 O313 1.997 . S
Fe308 O314 2.002 . S
Fe308 O319 1.976 . S
Fe308 O322 1.996 . S
Fe309 O310 1.918 . S
Fe309 O317 1.997 . S
Fe309 O320 1.996 . S
Fe309 O324 1.976 . S
Fe309 O327 2.002 . S
O310 Fe308 1.918 . S
O310 Fe309 1.918 . S
O310 Fe311 1.918 . S
Fe311 O310 1.918 . S
Fe311 O312 2.002 . S
Fe311 O321 1.976 . S
Fe311 O325 1.996 . S
Fe311 O328 1.997 . S
O312 Fe311 2.002 . S
O312 C329 1.295 . S
O313 Fe308 1.997 . S
O313 C329 1.235 . S
O314 Fe308 2.002 . S
O314 C315 1.295 . S
C315 O314 1.295 . S
C315 O317 1.235 . S
C316 O321 1.287 . S
C316 O322 1.255 . S
O317 Fe309 1.997 . S
O317 C315 1.235 . S
C318 O324 1.287 . S
C318 O325 1.255 . S
O319 Fe308 1.976 . S
O319 C326 1.287 . S
O320 Fe309 1.996 . S
O320 C326 1.255 . S
O321 Fe311 1.976 . S
O321 C316 1.287 . S
O322 Fe308 1.996 . S
O322 C316 1.255 . S
C323 O327 1.295 . S
C323 O328 1.235 . S
O324 Fe309 1.976 . S
O324 C318 1.287 . S
O325 Fe311 1.996 . S
O325 C318 1.255 . S
C326 O319 1.287 . S
C326 O320 1.255 . S
O327 Fe309 2.002 . S
O327 C323 1.295 . S
O328 Fe311 1.997 . S
O328 C323 1.235 . S
C329 O312 1.295 . S
C329 O313 1.235 . S
Fe330 O332 1.918 . S
Fe330 O335 1.997 . S
Fe330 O336 2.002 . S
Fe330 O341 1.976 . S
Fe330 O344 1.996 . S
Fe331 O332 1.918 . S
Fe331 O339 1.997 . S
Fe331 O342 1.996 . S
Fe331 O346 1.976 . S
Fe331 O349 2.002 . S
O332 Fe330 1.918 . S
O332 Fe331 1.918 . S
O332 Fe333 1.918 . S
Fe333 O332 1.918 . S
Fe333 O334 2.002 . S
Fe333 O343 1.976 . S
Fe333 O347 1.996 . S
Fe333 O350 1.997 . S
O334 Fe333 2.002 . S
O334 C351 1.295 . S
O335 Fe330 1.997 . S
O335 C351 1.235 . S
O336 Fe330 2.002 . S
O336 C337 1.295 . S
C337 O336 1.295 . S
C337 O339 1.235 . S
C338 O343 1.287 . S
C338 O344 1.255 . S
O339 Fe331 1.997 . S
O339 C337 1.235 . S
C340 O346 1.287 . S
C340 O347 1.255 . S
O341 Fe330 1.976 . S
O341 C348 1.287 . S
O342 Fe331 1.996 . S
O342 C348 1.255 . S
O343 Fe333 1.976 . S
O343 C338 1.287 . S
O344 Fe330 1.996 . S
O344 C338 1.255 . S
C345 O349 1.295 . S
C345 O350 1.235 . S
O346 Fe331 1.976 . S
O346 C340 1.287 . S
O347 Fe333 1.996 . S
O347 C340 1.255 . S
C348 O341 1.287 . S
C348 O342 1.255 . S
O349 Fe331 2.002 . S
O349 C345 1.295 . S
O350 Fe333 1.997 . S
O350 C345 1.235 . S
C351 O334 1.295 . S
C351 O335 1.235 . S
Fe352 O354 1.918 . S
Fe352 O357 1.997 . S
Fe352 O358 2.002 . S
Fe352 O363 1.976 . S
Fe352 O366 1.996 . S
Fe353 O354 1.918 . S
Fe353 O361 1.997 . S
Fe353 O364 1.996 . S
Fe353 O368 1.976 . S
Fe353 O371 2.002 . S
O354 Fe352 1.918 . S
O354 Fe353 1.918 . S
O354 Fe355 1.918 . S
Fe355 O354 1.918 . S
Fe355 O356 2.002 . S
Fe355 O365 1.976 . S
Fe355 O369 1.996 . S
Fe355 O372 1.997 . S
O356 Fe355 2.002 . S
O356 C373 1.295 . S
O357 Fe352 1.997 . S
O357 C373 1.235 . S
O358 Fe352 2.002 . S
O358 C359 1.295 . S
C359 O358 1.295 . S
C359 O361 1.235 . S
C360 O365 1.287 . S
C360 O366 1.255 . S
O361 Fe353 1.997 . S
O361 C359 1.235 . S
C362 O368 1.287 . S
C362 O369 1.255 . S
O363 Fe352 1.976 . S
O363 C370 1.287 . S
O364 Fe353 1.996 . S
O364 C370 1.255 . S
O365 Fe355 1.976 . S
O365 C360 1.287 . S
O366 Fe352 1.996 . S
O366 C360 1.255 . S
C367 O371 1.295 . S
C367 O372 1.235 . S
O368 Fe353 1.976 . S
O368 C362 1.287 . S
O369 Fe355 1.996 . S
O369 C362 1.255 . S
C370 O363 1.287 . S
C370 O364 1.255 . S
O371 Fe353 2.002 . S
O371 C367 1.295 . S
O372 Fe355 1.997 . S
O372 C367 1.235 . S
C373 O356 1.295 . S
C373 O357 1.235 . S
Fe374 O376 1.918 . S
Fe374 O379 1.997 . S
Fe374 O380 2.002 . S
Fe374 O385 1.976 . S
Fe374 O388 1.996 . S
Fe375 O376 1.918 . S
Fe375 O383 1.997 . S
Fe375 O386 1.996 . S
Fe375 O390 1.976 . S
Fe375 O393 2.002 . S
O376 Fe374 1.918 . S
O376 Fe375 1.918 . S
O376 Fe377 1.918 . S
Fe377 O376 1.918 . S
Fe377 O378 2.002 . S
Fe377 O387 1.976 . S
Fe377 O391 1.996 . S
Fe377 O394 1.997 . S
O378 Fe377 2.002 . S
O378 C395 1.295 . S
O379 Fe374 1.997 . S
O379 C395 1.235 . S
O380 Fe374 2.002 . S
O380 C381 1.295 . S
C381 O380 1.295 . S
C381 O383 1.235 . S
C382 O387 1.287 . S
C382 O388 1.255 . S
O383 Fe375 1.997 . S
O383 C381 1.235 . S
C384 O390 1.287 . S
C384 O391 1.255 . S
O385 Fe374 1.976 . S
O385 C392 1.287 . S
O386 Fe375 1.996 . S
O386 C392 1.255 . S
O387 Fe377 1.976 . S
O387 C382 1.287 . S
O388 Fe374 1.996 . S
O388 C382 1.255 . S
C389 O393 1.295 . S
C389 O394 1.235 . S
O390 Fe375 1.976 . S
O390 C384 1.287 . S
O391 Fe377 1.996 . S
O391 C384 1.255 . S
C392 O385 1.287 . S
C392 O386 1.255 . S
O393 Fe375 2.002 . S
O393 C389 1.295 . S
O394 Fe377 1.997 . S
O394 C389 1.235 . S
C395 O378 1.295 . S
C395 O379 1.235 . S
Fe396 O398 1.918 . S
Fe396 O401 1.997 . S
Fe396 O402 2.002 . S
Fe396 O407 1.976 . S
Fe396 O410 1.996 . S
Fe397 O398 1.918 . S
Fe397 O405 1.997 . S
Fe397 O408 1.996 . S
Fe397 O412 1.976 . S
Fe397 O415 2.002 . S
O398 Fe396 1.918 . S
O398 Fe397 1.918 . S
O398 Fe399 1.918 . S
Fe399 O398 1.918 . S
Fe399 O400 2.002 . S
Fe399 O409 1.976 . S
Fe399 O413 1.996 . S
Fe399 O416 1.997 . S
O400 Fe399 2.002 . S
O400 C417 1.295 . S
O401 Fe396 1.997 . S
O401 C417 1.235 . S
O402 Fe396 2.002 . S
O402 C403 1.295 . S
C403 O402 1.295 . S
C403 O405 1.235 . S
C404 O409 1.287 . S
C404 O410 1.255 . S
O405 Fe397 1.997 . S
O405 C403 1.235 . S
C406 O412 1.287 . S
C406 O413 1.255 . S
O407 Fe396 1.976 . S
O407 C414 1.287 . S
O408 Fe397 1.996 . S
O408 C414 1.255 . S
O409 Fe399 1.976 . S
O409 C404 1.287 . S
O410 Fe396 1.996 . S
O410 C404 1.255 . S
C411 O415 1.295 . S
C411 O416 1.235 . S
O412 Fe397 1.976 . S
O412 C406 1.287 . S
O413 Fe399 1.996 . S
O413 C406 1.255 . S
C414 O407 1.287 . S
C414 O408 1.255 . S
O415 Fe397 2.002 . S
O415 C411 1.295 . S
O416 Fe399 1.997 . S
O416 C411 1.235 . S
C417 O400 1.295 . S
C417 O401 1.235 . S
Fe418 O420 1.918 . S
Fe418 O423 1.997 . S
Fe418 O424 2.002 . S
Fe418 O429 1.976 . S
Fe418 O432 1.996 . S
Fe419 O420 1.918 . S
Fe419 O427 1.997 . S
Fe419 O430 1.996 . S
Fe419 O434 1.976 . S
Fe419 O437 2.002 . S
O420 Fe418 1.918 . S
O420 Fe419 1.918 . S
O420 Fe421 1.918 . S
Fe421 O420 1.918 . S
Fe421 O422 2.002 . S
Fe421 O431 1.976 . S
Fe421 O435 1.996 . S
Fe421 O438 1.997 . S
O422 Fe421 2.002 . S
O422 C439 1.295 . S
O423 Fe418 1.997 . S
O423 C439 1.235 . S
O424 Fe418 2.002 . S
O424 C425 1.295 . S
C425 O424 1.295 . S
C425 O427 1.235 . S
C426 O431 1.287 . S
C426 O432 1.255 . S
O427 Fe419 1.997 . S
O427 C425 1.235 . S
C428 O434 1.287 . S
C428 O435 1.255 . S
O429 Fe418 1.976 . S
O429 C436 1.287 . S
O430 Fe419 1.996 . S
O430 C436 1.255 . S
O431 Fe421 1.976 . S
O431 C426 1.287 . S
O432 Fe418 1.996 . S
O432 C426 1.255 . S
C433 O437 1.295 . S
C433 O438 1.235 . S
O434 Fe419 1.976 . S
O434 C428 1.287 . S
O435 Fe421 1.996 . S
O435 C428 1.255 . S
C436 O429 1.287 . S
C436 O430 1.255 . S
O437 Fe419 2.002 . S
O437 C433 1.295 . S
O438 Fe421 1.997 . S
O438 C433 1.235 . S
C439 O422 1.295 . S
C439 O423 1.235 . S
Fe440 O442 1.918 . S
Fe440 O445 1.997 . S
Fe440 O446 2.002 . S
Fe440 O451 1.976 . S
Fe440 O454 1.996 . S
Fe441 O442 1.918 . S
Fe441 O449 1.997 . S
Fe441 O452 1.996 . S
Fe441 O456 1.976 . S
Fe441 O459 2.002 . S
O442 Fe440 1.918 . S
O442 Fe441 1.918 . S
O442 Fe443 1.918 . S
Fe443 O442 1.918 . S
Fe443 O444 2.002 . S
Fe443 O453 1.976 . S
Fe443 O457 1.996 . S
Fe443 O460 1.997 . S
O444 Fe443 2.002 . S
O444 C461 1.295 . S
O445 Fe440 1.997 . S
O445 C461 1.235 . S
O446 Fe440 2.002 . S
O446 C447 1.295 . S
C447 O446 1.295 . S
C447 O449 1.235 . S
C448 O453 1.287 . S
C448 O454 1.255 . S
O449 Fe441 1.997 . S
O449 C447 1.235 . S
C450 O456 1.287 . S
C450 O457 1.255 . S
O451 Fe440 1.976 . S
O451 C458 1.287 . S
O452 Fe441 1.996 . S
O452 C458 1.255 . S
O453 Fe443 1.976 . S
O453 C448 1.287 . S
O454 Fe440 1.996 . S
O454 C448 1.255 . S
C455 O459 1.295 . S
C455 O460 1.235 . S
O456 Fe441 1.976 . S
O456 C450 1.287 . S
O457 Fe443 1.996 . S
O457 C450 1.255 . S
C458 O451 1.287 . S
C458 O452 1.255 . S
O459 Fe441 2.002 . S
O459 C455 1.295 . S
O460 Fe443 1.997 . S
O460 C455 1.235 . S
C461 O444 1.295 . S
C461 O445 1.235 . S
Fe462 O464 1.918 . S
Fe462 O467 1.997 . S
Fe462 O468 2.002 . S
Fe462 O473 1.976 . S
Fe462 O476 1.996 . S
Fe463 O464 1.918 . S
Fe463 O471 1.997 . S
Fe463 O474 1.996 . S
Fe463 O478 1.976 . S
Fe463 O481 2.002 . S
O464 Fe462 1.918 . S
O464 Fe463 1.918 . S
O464 Fe465 1.918 . S
Fe465 O464 1.918 . S
Fe465 O466 2.002 . S
Fe465 O475 1.976 . S
Fe465 O479 1.996 . S
Fe465 O482 1.997 . S
O466 Fe465 2.002 . S
O466 C483 1.295 . S
O467 Fe462 1.997 . S
O467 C483 1.235 . S
O468 Fe462 2.002 . S
O468 C469 1.295 . S
C469 O468 1.295 . S
C469 O471 1.235 . S
C470 O475 1.287 . S
C470 O476 1.255 . S
O471 Fe463 1.997 . S
O471 C469 1.235 . S
C472 O478 1.287 . S
C472 O479 1.255 . S
O473 Fe462 1.976 . S
O473 C480 1.287 . S
O474 Fe463 1.996 . S
O474 C480 1.255 . S
O475 Fe465 1.976 . S
O475 C470 1.287 . S
O476 Fe462 1.996 . S
O476 C470 1.255 . S
C477 O481 1.295 . S
C477 O482 1.235 . S
O478 Fe463 1.976 . S
O478 C472 1.287 . S
O479 Fe465 1.996 . S
O479 C472 1.255 . S
C480 O473 1.287 . S
C480 O474 1.255 . S
O481 Fe463 2.002 . S
O481 C477 1.295 . S
O482 Fe465 1.997 . S
O482 C477 1.235 . S
C483 O466 1.295 . S
C483 O467 1.235 . S
Fe484 O486 1.918 . S
Fe484 O489 1.997 . S
Fe484 O490 2.002 . S
Fe484 O495 1.976 . S
Fe484 O498 1.996 . S
Fe485 O486 1.918 . S
Fe485 O493 1.997 . S
Fe485 O496 1.996 . S
Fe485 O500 1.976 . S
Fe485 O503 2.002 . S
O486 Fe484 1.918 . S
O486 Fe485 1.918 . S
O486 Fe487 1.918 . S
Fe487 O486 1.918 . S
Fe487 O488 2.002 . S
Fe487 O497 1.976 . S
Fe487 O501 1.996 . S
Fe487 O504 1.997 . S
O488 Fe487 2.002 . S
O488 C505 1.295 . S
O489 Fe484 1.997 . S
O489 C505 1.235 . S
O490 Fe484 2.002 . S
O490 C491 1.295 . S
C491 O490 1.295 . S
C491 O493 1.235 . S
C492 O497 1.287 . S
C492 O498 1.255 . S
O493 Fe485 1.997 . S
O493 C491 1.235 . S
C494 O500 1.287 . S
C494 O501 1.255 . S
O495 Fe484 1.976 . S
O495 C502 1.287 . S
O496 Fe485 1.996 . S
O496 C502 1.255 . S
O497 Fe487 1.976 . S
O497 C492 1.287 . S
O498 Fe484 1.996 . S
O498 C492 1.255 . S
C499 O503 1.295 . S
C499 O504 1.235 . S
O500 Fe485 1.976 . S
O500 C494 1.287 . S
O501 Fe487 1.996 . S
O501 C494 1.255 . S
C502 O495 1.287 . S
C502 O496 1.255 . S
O503 Fe485 2.002 . S
O503 C499 1.295 . S
O504 Fe487 1.997 . S
O504 C499 1.235 . S
C505 O488 1.295 . S
C505 O489 1.235 . S
Fe506 O508 1.918 . S
Fe506 O511 1.997 . S
Fe506 O512 2.002 . S
Fe506 O517 1.976 . S
Fe506 O520 1.996 . S
Fe507 O508 1.918 . S
Fe507 O515 1.997 . S
Fe507 O518 1.996 . S
Fe507 O522 1.976 . S
Fe507 O525 2.002 . S
O508 Fe506 1.918 . S
O508 Fe507 1.918 . S
O508 Fe509 1.918 . S
Fe509 O508 1.918 . S
Fe509 O510 2.002 . S
Fe509 O519 1.976 . S
Fe509 O523 1.996 . S
Fe509 O526 1.997 . S
O510 Fe509 2.002 . S
O510 C527 1.295 . S
O511 Fe506 1.997 . S
O511 C527 1.235 . S
O512 Fe506 2.002 . S
O512 C513 1.295 . S
C513 O512 1.295 . S
C513 O515 1.235 . S
C514 O519 1.287 . S
C514 O520 1.255 . S
O515 Fe507 1.997 . S
O515 C513 1.235 . S
C516 O522 1.287 . S
C516 O523 1.255 . S
O517 Fe506 1.976 . S
O517 C524 1.287 . S
O518 Fe507 1.996 . S
O518 C524 1.255 . S
O519 Fe509 1.976 . S
O519 C514 1.287 . S
O520 Fe506 1.996 . S
O520 C514 1.255 . S
C521 O525 1.295 . S
C521 O526 1.235 . S
O522 Fe507 1.976 . S
O522 C516 1.287 . S
O523 Fe509 1.996 . S
O523 C516 1.255 . S
C524 O517 1.287 . S
C524 O518 1.255 . S
O525 Fe507 2.002 . S
O525 C521 1.295 . S
O526 Fe509 1.997 . S
O526 C521 1.235 . S
C527 O510 1.295 . S
C527 O511 1.235 . S
C528 C529 1.349 . S
C528 C530 1.327 . S
C528 H553 0.950 . S
C529 C528 1.349 . S
C529 C545 1.349 . S
C530 C528 1.327 . S
C530 C549 1.429 . S
C530 H554 0.950 . S
C531 C548 1.572 . S
C531 C550 1.370 1_554 S
C531 H555 0.949 1_554 S
H532 C536 0.949 1_554 S
C533 C534 1.349 . S
C533 C535 1.327 . S
C533 H556 0.950 . S
C534 C533 1.349 . S
C534 C546 1.349 . S
C535 C533 1.327 . S
C535 C551 1.429 . S
C535 H557 0.950 . S
C536 H532 0.949 1_556 S
C536 C544 1.572 . S
C536 C552 1.370 1_556 S
H537 C545 0.950 . S
H538 C543 0.950 . S
H539 C544 0.949 . S
H540 C546 0.950 . S
H541 C547 0.950 . S
H542 C548 0.949 . S
C543 H538 0.950 . S
C543 C545 1.327 . S
C543 C549 1.429 . S
C544 C536 1.572 . S
C544 H539 0.949 . S
C544 C550 1.368 . S
C545 C529 1.349 . S
C545 H537 0.950 . S
C545 C543 1.327 . S
C546 C534 1.349 . S
C546 H540 0.950 . S
C546 C547 1.327 . S
C547 H541 0.950 . S
C547 C546 1.327 . S
C547 C551 1.429 . S
C548 C531 1.572 . S
C548 H542 0.949 . S
C548 C552 1.368 . S
C549 C530 1.429 . S
C549 C543 1.429 . S
C549 C550 1.523 . S
C550 C531 1.370 1_556 S
C550 C544 1.368 . S
C550 C549 1.523 . S
C551 C535 1.429 . S
C551 C547 1.429 . S
C551 C552 1.523 . S
C552 C536 1.370 1_554 S
C552 C548 1.368 . S
C552 C551 1.523 . S
H553 C528 0.950 . S
H554 C530 0.950 . S
H555 C531 0.949 1_556 S
H556 C533 0.950 . S
H557 C535 0.950 . S
C558 C559 1.349 . S
C558 C560 1.327 . S
C558 H583 0.950 . S
C559 C558 1.349 . S
C559 C575 1.349 . S
C560 C558 1.327 . S
C560 C579 1.429 . S
C560 H584 0.950 . S
C561 C578 1.574 . S
C561 C580 1.368 . S
C561 H585 0.949 . S
H562 C566 0.949 . S
C563 C564 1.349 . S
C563 C565 1.327 . S
C563 H586 0.950 . S
C564 C563 1.349 . S
C564 C576 1.349 . S
C565 C563 1.327 . S
C565 C581 1.429 . S
C565 H587 0.950 . S
C566 H562 0.949 . S
C566 C574 1.574 . S
C566 C582 1.368 . S
H567 C575 0.950 . S
H568 C573 0.950 . S
H569 C574 0.949 . S
H570 C576 0.950 . S
H571 C577 0.950 . S
H572 C578 0.949 . S
C573 H568 0.950 . S
C573 C575 1.327 . S
C573 C579 1.429 . S
C574 C566 1.574 . S
C574 H569 0.949 . S
C574 C580 1.368 . S
C575 C559 1.349 . S
C575 H567 0.950 . S
C575 C573 1.327 . S
C576 C564 1.349 . S
C576 H570 0.950 . S
C576 C577 1.327 . S
C577 H571 0.950 . S
C577 C576 1.327 . S
C577 C581 1.429 . S
C578 C561 1.574 . S
C578 H572 0.949 . S
C578 C582 1.368 . S
C579 C560 1.429 . S
C579 C573 1.429 . S
C579 C580 1.523 . S
C580 C561 1.368 . S
C580 C574 1.368 . S
C580 C579 1.523 . S
C581 C565 1.429 . S
C581 C577 1.429 . S
C581 C582 1.523 . S
C582 C566 1.368 . S
C582 C578 1.368 . S
C582 C581 1.523 . S
H583 C558 0.950 . S
H584 C560 0.950 . S
H585 C561 0.949 . S
H586 C563 0.950 . S
H587 C565 0.950 . S
C588 C589 1.349 . S
C588 C590 1.327 . S
C588 H613 0.950 . S
C589 C588 1.349 . S
C589 C605 1.349 . S
C590 C588 1.327 . S
C590 C609 1.429 . S
C590 H614 0.950 . S
C591 C608 1.574 1_556 S
C591 C610 1.368 . S
C591 H615 0.949 . S
H592 C596 0.949 . S
C593 C594 1.349 . S
C593 C595 1.327 . S
C593 H616 0.950 . S
C594 C593 1.349 . S
C594 C606 1.349 . S
C595 C593 1.327 . S
C595 C611 1.429 . S
C595 H617 0.950 . S
C596 H592 0.949 . S
C596 C604 1.574 1_554 S
C596 C612 1.368 . S
H597 C605 0.950 . S
H598 C603 0.950 . S
H599 C604 0.949 . S
H600 C606 0.950 . S
H601 C607 0.950 . S
H602 C608 0.949 . S
C603 H598 0.950 . S
C603 C605 1.327 . S
C603 C609 1.429 . S
C604 C596 1.574 1_556 S
C604 H599 0.949 . S
C604 C610 1.368 . S
C605 C589 1.349 . S
C605 H597 0.950 . S
C605 C603 1.327 . S
C606 C594 1.349 . S
C606 H600 0.950 . S
C606 C607 1.327 . S
C607 H601 0.950 . S
C607 C606 1.327 . S
C607 C611 1.429 . S
C608 C591 1.574 1_554 S
C608 H602 0.949 . S
C608 C612 1.368 . S
C609 C590 1.429 . S
C609 C603 1.429 . S
C609 C610 1.523 . S
C610 C591 1.368 . S
C610 C604 1.368 . S
C610 C609 1.523 . S
C611 C595 1.429 . S
C611 C607 1.429 . S
C611 C612 1.523 . S
C612 C596 1.368 . S
C612 C608 1.368 . S
C612 C611 1.523 . S
H613 C588 0.950 . S
H614 C590 0.950 . S
H615 C591 0.949 . S
H616 C593 0.950 . S
H617 C595 0.950 . S
C618 C619 1.349 . S
C618 C620 1.327 . S
C618 H643 0.950 . S
C619 C618 1.349 . S
C619 C635 1.349 . S
C620 C618 1.327 . S
C620 C639 1.429 . S
C620 H644 0.950 . S
C621 C638 1.574 . S
C621 C640 1.368 . S
C621 H645 0.949 . S
H622 C626 0.949 . S
C623 C624 1.349 . S
C623 C625 1.327 . S
C623 H646 0.950 . S
C624 C623 1.349 . S
C624 C636 1.349 . S
C625 C623 1.327 . S
C625 C641 1.429 . S
C625 H647 0.950 . S
C626 H622 0.949 . S
C626 C634 1.574 . S
C626 C642 1.368 . S
H627 C635 0.950 . S
H628 C633 0.950 . S
H629 C634 0.949 . S
H630 C636 0.950 . S
H631 C637 0.950 . S
H632 C638 0.949 . S
C633 H628 0.950 . S
C633 C635 1.327 . S
C633 C639 1.429 . S
C634 C626 1.574 . S
C634 H629 0.949 . S
C634 C640 1.368 . S
C635 C619 1.349 . S
C635 H627 0.950 . S
C635 C633 1.327 . S
C636 C624 1.349 . S
C636 H630 0.950 . S
C636 C637 1.327 . S
C637 H631 0.950 . S
C637 C636 1.327 . S
C637 C641 1.429 . S
C638 C621 1.574 . S
C638 H632 0.949 . S
C638 C642 1.368 . S
C639 C620 1.429 . S
C639 C633 1.429 . S
C639 C640 1.523 . S
C640 C621 1.368 . S
C640 C634 1.368 . S
C640 C639 1.523 . S
C641 C625 1.429 . S
C641 C637 1.429 . S
C641 C642 1.523 . S
C642 C626 1.368 . S
C642 C638 1.368 . S
C642 C641 1.523 . S
H643 C618 0.950 . S
H644 C620 0.950 . S
H645 C621 0.949 . S
H646 C623 0.950 . S
H647 C625 0.950 . S
C648 C649 1.349 . S
C648 C650 1.327 . S
C648 H673 0.950 . S
C649 C648 1.349 . S
C649 C665 1.349 . S
C650 C648 1.327 . S
C650 C669 1.429 . S
C650 H674 0.950 . S
C651 C668 1.574 1_556 S
C651 C670 1.368 . S
C651 H675 0.949 . S
H652 C656 0.949 . S
C653 C654 1.349 . S
C653 C655 1.327 . S
C653 H676 0.950 . S
C654 C653 1.349 . S
C654 C666 1.349 . S
C655 C653 1.327 . S
C655 C671 1.429 . S
C655 H677 0.950 . S
C656 H652 0.949 . S
C656 C664 1.574 1_554 S
C656 C672 1.368 . S
H657 C665 0.950 . S
H658 C663 0.950 . S
H659 C664 0.949 . S
H660 C666 0.950 . S
H661 C667 0.950 . S
H662 C668 0.949 . S
C663 H658 0.950 . S
C663 C665 1.327 . S
C663 C669 1.429 . S
C664 C656 1.574 1_556 S
C664 H659 0.949 . S
C664 C670 1.368 . S
C665 C649 1.349 . S
C665 H657 0.950 . S
C665 C663 1.327 . S
C666 C654 1.349 . S
C666 H660 0.950 . S
C666 C667 1.327 . S
C667 H661 0.950 . S
C667 C666 1.327 . S
C667 C671 1.429 . S
C668 C651 1.574 1_554 S
C668 H662 0.949 . S
C668 C672 1.368 . S
C669 C650 1.429 . S
C669 C663 1.429 . S
C669 C670 1.523 . S
C670 C651 1.368 . S
C670 C664 1.368 . S
C670 C669 1.523 . S
C671 C655 1.429 . S
C671 C667 1.429 . S
C671 C672 1.523 . S
C672 C656 1.368 . S
C672 C668 1.368 . S
C672 C671 1.523 . S
H673 C648 0.950 . S
H674 C650 0.950 . S
H675 C651 0.949 . S
H676 C653 0.950 . S
H677 C655 0.950 . S
C678 C679 1.349 . S
C678 C680 1.327 . S
C678 H703 0.950 . S
C679 C678 1.349 . S
C679 C695 1.349 . S
C680 C678 1.327 . S
C680 C699 1.429 . S
C680 H704 0.950 . S
C681 C698 1.574 . S
C681 C700 1.368 . S
C681 H705 0.949 . S
H682 C686 0.949 . S
C683 C684 1.349 . S
C683 C685 1.327 . S
C683 H706 0.950 . S
C684 C683 1.349 . S
C684 C696 1.349 . S
C685 C683 1.327 . S
C685 C701 1.429 . S
C685 H707 0.950 . S
C686 H682 0.949 . S
C686 C694 1.574 . S
C686 C702 1.368 . S
H687 C695 0.950 . S
H688 C693 0.950 . S
H689 C694 0.949 . S
H690 C696 0.950 . S
H691 C697 0.950 . S
H692 C698 0.949 . S
C693 H688 0.950 . S
C693 C695 1.327 . S
C693 C699 1.429 . S
C694 C686 1.574 . S
C694 H689 0.949 . S
C694 C700 1.368 . S
C695 C679 1.349 . S
C695 H687 0.950 . S
C695 C693 1.327 . S
C696 C684 1.349 . S
C696 H690 0.950 . S
C696 C697 1.327 . S
C697 H691 0.950 . S
C697 C696 1.327 . S
C697 C701 1.429 . S
C698 C681 1.574 . S
C698 H692 0.949 . S
C698 C702 1.368 . S
C699 C680 1.429 . S
C699 C693 1.429 . S
C699 C700 1.523 . S
C700 C681 1.368 . S
C700 C694 1.368 . S
C700 C699 1.523 . S
C701 C685 1.429 . S
C701 C697 1.429 . S
C701 C702 1.523 . S
C702 C686 1.368 . S
C702 C698 1.368 . S
C702 C701 1.523 . S
H703 C678 0.950 . S
H704 C680 0.950 . S
H705 C681 0.949 . S
H706 C683 0.950 . S
H707 C685 0.950 . S
C708 C709 1.349 . S
C708 C710 1.327 . S
C708 H733 0.950 . S
C709 C708 1.349 . S
C709 C725 1.349 . S
C710 C708 1.327 . S
C710 C729 1.429 . S
C710 H734 0.950 . S
C711 C728 1.550 1_556 S
C711 C730 1.390 . S
C711 H735 0.951 . S
H712 C716 0.951 . S
C713 C714 1.349 . S
C713 C715 1.327 . S
C713 H736 0.950 . S
C714 C713 1.349 . S
C714 C726 1.349 . S
C715 C713 1.327 . S
C715 C731 1.429 . S
C715 H737 0.950 . S
C716 H712 0.951 . S
C716 C724 1.550 1_554 S
C716 C732 1.390 . S
H717 C725 0.950 . S
H718 C723 0.950 . S
H719 C724 0.949 . S
H720 C726 0.950 . S
H721 C727 0.950 . S
H722 C728 0.949 . S
C723 H718 0.950 . S
C723 C725 1.327 . S
C723 C729 1.429 . S
C724 C716 1.550 1_556 S
C724 H719 0.949 . S
C724 C730 1.368 . S
C725 C709 1.349 . S
C725 H717 0.950 . S
C725 C723 1.327 . S
C726 C714 1.349 . S
C726 H720 0.950 . S
C726 C727 1.327 . S
C727 H721 0.950 . S
C727 C726 1.327 . S
C727 C731 1.429 . S
C728 C711 1.550 1_554 S
C728 H722 0.949 . S
C728 C732 1.368 . S
C729 C710 1.429 . S
C729 C723 1.429 . S
C729 C730 1.523 . S
C730 C711 1.390 . S
C730 C724 1.368 . S
C730 C729 1.523 . S
C731 C715 1.429 . S
C731 C727 1.429 . S
C731 C732 1.523 . S
C732 C716 1.390 . S
C732 C728 1.368 . S
C732 C731 1.523 . S
H733 C708 0.950 . S
H734 C710 0.950 . S
H735 C711 0.951 . S
H736 C713 0.950 . S
H737 C715 0.950 . S
C738 C739 1.349 . S
C738 C740 1.327 . S
C738 H763 0.950 . S
C739 C738 1.349 . S
C739 C755 1.349 . S
C740 C738 1.327 . S
C740 C759 1.429 . S
C740 H764 0.950 . S
C741 C758 1.574 . S
C741 C760 1.368 . S
C741 H765 0.949 . S
H742 C746 0.949 . S
C743 C744 1.349 . S
C743 C745 1.327 . S
C743 H766 0.950 . S
C744 C743 1.349 . S
C744 C756 1.349 . S
C745 C743 1.327 . S
C745 C761 1.429 . S
C745 H767 0.950 . S
C746 H742 0.949 . S
C746 C754 1.574 . S
C746 C762 1.368 . S
H747 C755 0.950 . S
H748 C753 0.950 . S
H749 C754 0.949 . S
H750 C756 0.950 . S
H751 C757 0.950 . S
H752 C758 0.949 . S
C753 H748 0.950 . S
C753 C755 1.327 . S
C753 C759 1.429 . S
C754 C746 1.574 . S
C754 H749 0.949 . S
C754 C760 1.368 . S
C755 C739 1.349 . S
C755 H747 0.950 . S
C755 C753 1.327 . S
C756 C744 1.349 . S
C756 H750 0.950 . S
C756 C757 1.327 . S
C757 H751 0.950 . S
C757 C756 1.327 . S
C757 C761 1.429 . S
C758 C741 1.574 . S
C758 H752 0.949 . S
C758 C762 1.368 . S
C759 C740 1.429 . S
C759 C753 1.429 . S
C759 C760 1.523 . S
C760 C741 1.368 . S
C760 C754 1.368 . S
C760 C759 1.523 . S
C761 C745 1.429 . S
C761 C757 1.429 . S
C761 C762 1.523 . S
C762 C746 1.368 . S
C762 C758 1.368 . S
C762 C761 1.523 . S
H763 C738 0.950 . S
H764 C740 0.950 . S
H765 C741 0.949 . S
H766 C743 0.950 . S
H767 C745 0.950 . S
C768 C769 1.349 . S
C768 C770 1.327 . S
C768 H793 0.950 . S
C769 C768 1.349 . S
C769 C785 1.349 . S
C770 C768 1.327 . S
C770 C789 1.429 . S
C770 H794 0.950 . S
C771 C788 1.615 . S
C771 C790 1.327 1_556 S
C771 H795 0.949 . S
H772 C776 0.949 . S
C773 C774 1.349 . S
C773 C775 1.327 . S
C773 H796 0.950 . S
C774 C773 1.349 . S
C774 C786 1.349 . S
C775 C773 1.327 . S
C775 C791 1.429 . S
C775 H797 0.950 . S
C776 H772 0.949 . S
C776 C784 1.615 . S
C776 C792 1.327 1_554 S
H777 C785 0.950 . S
H778 C783 0.950 . S
H779 C784 0.949 . S
H780 C786 0.950 . S
H781 C787 0.950 . S
H782 C788 0.949 . S
C783 H778 0.950 . S
C783 C785 1.327 . S
C783 C789 1.429 . S
C784 C776 1.615 . S
C784 H779 0.949 . S
C784 C790 1.368 . S
C785 C769 1.349 . S
C785 H777 0.950 . S
C785 C783 1.327 . S
C786 C774 1.349 . S
C786 H780 0.950 . S
C786 C787 1.327 . S
C787 H781 0.950 . S
C787 C786 1.327 . S
C787 C791 1.429 . S
C788 C771 1.615 . S
C788 H782 0.949 . S
C788 C792 1.368 . S
C789 C770 1.429 . S
C789 C783 1.429 . S
C789 C790 1.523 . S
C790 C771 1.327 1_554 S
C790 C784 1.368 . S
C790 C789 1.523 . S
C791 C775 1.429 . S
C791 C787 1.429 . S
C791 C792 1.523 . S
C792 C776 1.327 1_556 S
C792 C788 1.368 . S
C792 C791 1.523 . S
H793 C768 0.950 . S
H794 C770 0.950 . S
H795 C771 0.949 . S
H796 C773 0.950 . S
H797 C775 0.950 . S
C798 C799 1.349 . S
C798 C800 1.327 . S
C798 H823 0.950 . S
C799 C798 1.349 . S
C799 C815 1.349 . S
C800 C798 1.327 . S
C800 C819 1.429 . S
C800 H824 0.950 . S
C801 C818 1.574 . S
C801 C820 1.368 . S
C801 H825 0.949 . S
H802 C806 0.949 . S
C803 C804 1.349 . S
C803 C805 1.327 . S
C803 H826 0.950 . S
C804 C803 1.349 . S
C804 C816 1.349 . S
C805 C803 1.327 . S
C805 C821 1.429 . S
C805 H827 0.950 . S
C806 H802 0.949 . S
C806 C814 1.574 . S
C806 C822 1.368 . S
H807 C815 0.950 . S
H808 C813 0.950 . S
H809 C814 0.949 . S
H810 C816 0.950 . S
H811 C817 0.950 . S
H812 C818 0.949 . S
C813 H808 0.950 . S
C813 C815 1.327 . S
C813 C819 1.429 . S
C814 C806 1.574 . S
C814 H809 0.949 . S
C814 C820 1.368 . S
C815 C799 1.349 . S
C815 H807 0.950 . S
C815 C813 1.327 . S
C816 C804 1.349 . S
C816 H810 0.950 . S
C816 C817 1.327 . S
C817 H811 0.950 . S
C817 C816 1.327 . S
C817 C821 1.429 . S
C818 C801 1.574 . S
C818 H812 0.949 . S
C818 C822 1.368 . S
C819 C800 1.429 . S
C819 C813 1.429 . S
C819 C820 1.523 . S
C820 C801 1.368 . S
C820 C814 1.368 . S
C820 C819 1.523 . S
C821 C805 1.429 . S
C821 C817 1.429 . S
C821 C822 1.523 . S
C822 C806 1.368 . S
C822 C818 1.368 . S
C822 C821 1.523 . S
H823 C798 0.950 . S
H824 C800 0.950 . S
H825 C801 0.949 . S
H826 C803 0.950 . S
H827 C805 0.950 . S
C828 C829 1.349 . S
C828 C830 1.327 . S
C828 H853 0.950 . S
C829 C828 1.349 . S
C829 C845 1.349 . S
C830 C828 1.327 . S
C830 C849 1.429 . S
C830 H854 0.950 . S
C831 C848 1.574 1_556 S
C831 C850 1.368 . S
C831 H855 0.949 . S
H832 C836 0.949 . S
C833 C834 1.349 . S
C833 C835 1.327 . S
C833 H856 0.950 . S
C834 C833 1.349 . S
C834 C846 1.349 . S
C835 C833 1.327 . S
C835 C851 1.429 . S
C835 H857 0.950 . S
C836 H832 0.949 . S
C836 C844 1.574 1_554 S
C836 C852 1.368 . S
H837 C845 0.950 . S
H838 C843 0.950 . S
H839 C844 0.949 . S
H840 C846 0.950 . S
H841 C847 0.950 . S
H842 C848 0.949 . S
C843 H838 0.950 . S
C843 C845 1.327 . S
C843 C849 1.429 . S
C844 C836 1.574 1_556 S
C844 H839 0.949 . S
C844 C850 1.368 . S
C845 C829 1.349 . S
C845 H837 0.950 . S
C845 C843 1.327 . S
C846 C834 1.349 . S
C846 H840 0.950 . S
C846 C847 1.327 . S
C847 H841 0.950 . S
C847 C846 1.327 . S
C847 C851 1.429 . S
C848 C831 1.574 1_554 S
C848 H842 0.949 . S
C848 C852 1.368 . S
C849 C830 1.429 . S
C849 C843 1.429 . S
C849 C850 1.523 . S
C850 C831 1.368 . S
C850 C844 1.368 . S
C850 C849 1.523 . S
C851 C835 1.429 . S
C851 C847 1.429 . S
C851 C852 1.523 . S
C852 C836 1.368 . S
C852 C848 1.368 . S
C852 C851 1.523 . S
H853 C828 0.950 . S
H854 C830 0.950 . S
H855 C831 0.949 . S
H856 C833 0.950 . S
H857 C835 0.950 . S
C858 C859 1.349 . S
C858 C860 1.327 . S
C858 H883 0.950 . S
C859 C858 1.349 . S
C859 C875 1.349 . S
C860 C858 1.327 . S
C860 C879 1.429 . S
C860 H884 0.950 . S
C861 C878 1.574 . S
C861 C880 1.368 . S
C861 H885 0.949 . S
H862 C866 0.949 . S
C863 C864 1.349 . S
C863 C865 1.327 . S
C863 H886 0.950 . S
C864 C863 1.349 . S
C864 C876 1.349 . S
C865 C863 1.327 . S
C865 C881 1.429 . S
C865 H887 0.950 . S
C866 H862 0.949 . S
C866 C874 1.574 . S
C866 C882 1.368 . S
H867 C875 0.950 . S
H868 C873 0.950 . S
H869 C874 0.949 . S
H870 C876 0.950 . S
H871 C877 0.950 . S
H872 C878 0.949 . S
C873 H868 0.950 . S
C873 C875 1.327 . S
C873 C879 1.429 . S
C874 C866 1.574 . S
C874 H869 0.949 . S
C874 C880 1.368 . S
C875 C859 1.349 . S
C875 H867 0.950 . S
C875 C873 1.327 . S
C876 C864 1.349 . S
C876 H870 0.950 . S
C876 C877 1.327 . S
C877 H871 0.950 . S
C877 C876 1.327 . S
C877 C881 1.429 . S
C878 C861 1.574 . S
C878 H872 0.949 . S
C878 C882 1.368 . S
C879 C860 1.429 . S
C879 C873 1.429 . S
C879 C880 1.523 . S
C880 C861 1.368 . S
C880 C874 1.368 . S
C880 C879 1.523 . S
C881 C865 1.429 . S
C881 C877 1.429 . S
C881 C882 1.523 . S
C882 C866 1.368 . S
C882 C878 1.368 . S
C882 C881 1.523 . S
H883 C858 0.950 . S
H884 C860 0.950 . S
H885 C861 0.949 . S
H886 C863 0.950 . S
H887 C865 0.950 . S
C888 C889 1.349 . S
C888 C890 1.327 . S
C888 H913 0.950 . S
C889 C888 1.349 . S
C889 C905 1.349 . S
C890 C888 1.327 . S
C890 C909 1.429 . S
C890 H914 0.950 . S
C891 C908 1.574 . S
C891 C910 1.368 . S
C891 H915 0.949 . S
H892 C896 0.949 . S
C893 C894 1.349 . S
C893 C895 1.327 . S
C893 H916 0.950 . S
C894 C893 1.349 . S
C894 C906 1.349 . S
C895 C893 1.327 . S
C895 C911 1.429 . S
C895 H917 0.950 . S
C896 H892 0.949 . S
C896 C904 1.574 . S
C896 C912 1.368 . S
H897 C905 0.950 . S
H898 C903 0.950 . S
H899 C904 0.949 . S
H900 C906 0.950 . S
H901 C907 0.950 . S
H902 C908 0.949 . S
C903 H898 0.950 . S
C903 C905 1.327 . S
C903 C909 1.429 . S
C904 C896 1.574 . S
C904 H899 0.949 . S
C904 C910 1.368 . S
C905 C889 1.349 . S
C905 H897 0.950 . S
C905 C903 1.327 . S
C906 C894 1.349 . S
C906 H900 0.950 . S
C906 C907 1.327 . S
C907 H901 0.950 . S
C907 C906 1.327 . S
C907 C911 1.429 . S
C908 C891 1.574 . S
C908 H902 0.949 . S
C908 C912 1.368 . S
C909 C890 1.429 . S
C909 C903 1.429 . S
C909 C910 1.523 . S
C910 C891 1.368 . S
C910 C904 1.368 . S
C910 C909 1.523 . S
C911 C895 1.429 . S
C911 C907 1.429 . S
C911 C912 1.523 . S
C912 C896 1.368 . S
C912 C908 1.368 . S
C912 C911 1.523 . S
H913 C888 0.950 . S
H914 C890 0.950 . S
H915 C891 0.949 . S
H916 C893 0.950 . S
H917 C895 0.950 . S
C918 C919 1.349 . S
C918 C920 1.327 . S
C918 H943 0.950 . S
C919 C918 1.349 . S
C919 C935 1.349 . S
C920 C918 1.327 . S
C920 C939 1.429 . S
C920 H944 0.950 . S
C921 C938 1.574 . S
C921 C940 1.368 . S
C921 H945 0.949 . S
H922 C926 0.949 . S
C923 C924 1.349 . S
C923 C925 1.327 . S
C923 H946 0.950 . S
C924 C923 1.349 . S
C924 C936 1.349 . S
C925 C923 1.327 . S
C925 C941 1.429 . S
C925 H947 0.950 . S
C926 H922 0.949 . S
C926 C934 1.574 . S
C926 C942 1.368 . S
H927 C935 0.950 . S
H928 C933 0.950 . S
H929 C934 0.949 . S
H930 C936 0.950 . S
H931 C937 0.950 . S
H932 C938 0.949 . S
C933 H928 0.950 . S
C933 C935 1.327 . S
C933 C939 1.429 . S
C934 C926 1.574 . S
C934 H929 0.949 . S
C934 C940 1.368 . S
C935 C919 1.349 . S
C935 H927 0.950 . S
C935 C933 1.327 . S
C936 C924 1.349 . S
C936 H930 0.950 . S
C936 C937 1.327 . S
C937 H931 0.950 . S
C937 C936 1.327 . S
C937 C941 1.429 . S
C938 C921 1.574 . S
C938 H932 0.949 . S
C938 C942 1.368 . S
C939 C920 1.429 . S
C939 C933 1.429 . S
C939 C940 1.523 . S
C940 C921 1.368 . S
C940 C934 1.368 . S
C940 C939 1.523 . S
C941 C925 1.429 . S
C941 C937 1.429 . S
C941 C942 1.523 . S
C942 C926 1.368 . S
C942 C938 1.368 . S
C942 C941 1.523 . S
H943 C918 0.950 . S
H944 C920 0.950 . S
H945 C921 0.949 . S
H946 C923 0.950 . S
H947 C925 0.950 . S
C948 C949 1.349 . S
C948 C950 1.327 . S
C948 H973 0.950 . S
C949 C948 1.349 . S
C949 C965 1.349 . S
C950 C948 1.327 . S
C950 C969 1.429 . S
C950 H974 0.950 . S
C951 C968 1.574 . S
C951 C970 1.368 . S
C951 H975 0.949 . S
H952 C956 0.949 . S
C953 C954 1.349 . S
C953 C955 1.327 . S
C953 H976 0.950 . S
C954 C953 1.349 . S
C954 C966 1.349 . S
C955 C953 1.327 . S
C955 C971 1.429 . S
C955 H977 0.950 . S
C956 H952 0.949 . S
C956 C964 1.574 . S
C956 C972 1.368 . S
H957 C965 0.950 . S
H958 C963 0.950 . S
H959 C964 0.949 . S
H960 C966 0.950 . S
H961 C967 0.950 . S
H962 C968 0.949 . S
C963 H958 0.950 . S
C963 C965 1.327 . S
C963 C969 1.429 . S
C964 C956 1.574 . S
C964 H959 0.949 . S
C964 C970 1.368 . S
C965 C949 1.349 . S
C965 H957 0.950 . S
C965 C963 1.327 . S
C966 C954 1.349 . S
C966 H960 0.950 . S
C966 C967 1.327 . S
C967 H961 0.950 . S
C967 C966 1.327 . S
C967 C971 1.429 . S
C968 C951 1.574 . S
C968 H962 0.949 . S
C968 C972 1.368 . S
C969 C950 1.429 . S
C969 C963 1.429 . S
C969 C970 1.523 . S
C970 C951 1.368 . S
C970 C964 1.368 . S
C970 C969 1.523 . S
C971 C955 1.429 . S
C971 C967 1.429 . S
C971 C972 1.523 . S
C972 C956 1.368 . S
C972 C968 1.368 . S
C972 C971 1.523 . S
H973 C948 0.950 . S
H974 C950 0.950 . S
H975 C951 0.949 . S
H976 C953 0.950 . S
H977 C955 0.950 . S
C978 C979 1.349 . S
C978 C980 1.327 . S
C978 H1003 0.950 . S
C979 C978 1.349 . S
C979 C995 1.349 . S
C980 C978 1.327 . S
C980 C999 1.429 . S
C980 H1004 0.950 . S
C981 C998 1.574 . S
C981 C1000 1.368 . S
C981 H1005 0.949 . S
H982 C986 0.949 . S
C983 C984 1.349 . S
C983 C985 1.327 . S
C983 H1006 0.950 . S
C984 C983 1.349 . S
C984 C996 1.349 . S
C985 C983 1.327 . S
C985 C1001 1.429 . S
C985 H1007 0.950 . S
C986 H982 0.949 . S
C986 C994 1.574 . S
C986 C1002 1.368 . S
H987 C995 0.950 . S
H988 C993 0.950 . S
H989 C994 0.949 . S
H990 C996 0.950 . S
H991 C997 0.950 . S
H992 C998 0.949 . S
C993 H988 0.950 . S
C993 C995 1.327 . S
C993 C999 1.429 . S
C994 C986 1.574 . S
C994 H989 0.949 . S
C994 C1000 1.368 . S
C995 C979 1.349 . S
C995 H987 0.950 . S
C995 C993 1.327 . S
C996 C984 1.349 . S
C996 H990 0.950 . S
C996 C997 1.327 . S
C997 H991 0.950 . S
C997 C996 1.327 . S
C997 C1001 1.429 . S
C998 C981 1.574 . S
C998 H992 0.949 . S
C998 C1002 1.368 . S
C999 C980 1.429 . S
C999 C993 1.429 . S
C999 C1000 1.523 . S
C1000 C981 1.368 . S
C1000 C994 1.368 . S
C1000 C999 1.523 . S
C1001 C985 1.429 . S
C1001 C997 1.429 . S
C1001 C1002 1.523 . S
C1002 C986 1.368 . S
C1002 C998 1.368 . S
C1002 C1001 1.523 . S
H1003 C978 0.950 . S
H1004 C980 0.950 . S
H1005 C981 0.949 . S
H1006 C983 0.950 . S
H1007 C985 0.950 . S
C1008 C1009 1.349 . S
C1008 C1010 1.327 . S
C1008 H1033 0.950 . S
C1009 C1008 1.349 . S
C1009 C1025 1.349 . S
C1010 C1008 1.327 . S
C1010 C1029 1.429 . S
C1010 H1034 0.950 . S
C1011 C1028 1.574 . S
C1011 C1030 1.368 . S
C1011 H1035 0.949 . S
H1012 C1016 0.949 . S
C1013 C1014 1.349 . S
C1013 C1015 1.327 . S
C1013 H1036 0.950 . S
C1014 C1013 1.349 . S
C1014 C1026 1.349 . S
C1015 C1013 1.327 . S
C1015 C1031 1.429 . S
C1015 H1037 0.950 . S
C1016 H1012 0.949 . S
C1016 C1024 1.574 . S
C1016 C1032 1.368 . S
H1017 C1025 0.950 . S
H1018 C1023 0.950 . S
H1019 C1024 0.949 . S
H1020 C1026 0.950 . S
H1021 C1027 0.950 . S
H1022 C1028 0.949 . S
C1023 H1018 0.950 . S
C1023 C1025 1.327 . S
C1023 C1029 1.429 . S
C1024 C1016 1.574 . S
C1024 H1019 0.949 . S
C1024 C1030 1.368 . S
C1025 C1009 1.349 . S
C1025 H1017 0.950 . S
C1025 C1023 1.327 . S
C1026 C1014 1.349 . S
C1026 H1020 0.950 . S
C1026 C1027 1.327 . S
C1027 H1021 0.950 . S
C1027 C1026 1.327 . S
C1027 C1031 1.429 . S
C1028 C1011 1.574 . S
C1028 H1022 0.949 . S
C1028 C1032 1.368 . S
C1029 C1010 1.429 . S
C1029 C1023 1.429 . S
C1029 C1030 1.523 . S
C1030 C1011 1.368 . S
C1030 C1024 1.368 . S
C1030 C1029 1.523 . S
C1031 C1015 1.429 . S
C1031 C1027 1.429 . S
C1031 C1032 1.523 . S
C1032 C1016 1.368 . S
C1032 C1028 1.368 . S
C1032 C1031 1.523 . S
H1033 C1008 0.950 . S
H1034 C1010 0.950 . S
H1035 C1011 0.949 . S
H1036 C1013 0.950 . S
H1037 C1015 0.950 . S
C1038 C1039 1.349 . S
C1038 C1040 1.327 . S
C1038 H1063 0.950 . S
C1039 C1038 1.349 . S
C1039 C1055 1.349 . S
C1040 C1038 1.327 . S
C1040 C1059 1.429 . S
C1040 H1064 0.950 . S
C1041 C1058 1.574 . S
C1041 C1060 1.368 . S
C1041 H1065 0.949 . S
H1042 C1046 0.949 . S
C1043 C1044 1.349 . S
C1043 C1045 1.327 . S
C1043 H1066 0.950 . S
C1044 C1043 1.349 . S
C1044 C1056 1.349 . S
C1045 C1043 1.327 . S
C1045 C1061 1.429 . S
C1045 H1067 0.950 . S
C1046 H1042 0.949 . S
C1046 C1054 1.574 . S
C1046 C1062 1.368 . S
H1047 C1055 0.950 . S
H1048 C1053 0.950 . S
H1049 C1054 0.949 . S
H1050 C1056 0.950 . S
H1051 C1057 0.950 . S
H1052 C1058 0.949 . S
C1053 H1048 0.950 . S
C1053 C1055 1.327 . S
C1053 C1059 1.429 . S
C1054 C1046 1.574 . S
C1054 H1049 0.949 . S
C1054 C1060 1.368 . S
C1055 C1039 1.349 . S
C1055 H1047 0.950 . S
C1055 C1053 1.327 . S
C1056 C1044 1.349 . S
C1056 H1050 0.950 . S
C1056 C1057 1.327 . S
C1057 H1051 0.950 . S
C1057 C1056 1.327 . S
C1057 C1061 1.429 . S
C1058 C1041 1.574 . S
C1058 H1052 0.949 . S
C1058 C1062 1.368 . S
C1059 C1040 1.429 . S
C1059 C1053 1.429 . S
C1059 C1060 1.523 . S
C1060 C1041 1.368 . S
C1060 C1054 1.368 . S
C1060 C1059 1.523 . S
C1061 C1045 1.429 . S
C1061 C1057 1.429 . S
C1061 C1062 1.523 . S
C1062 C1046 1.368 . S
C1062 C1058 1.368 . S
C1062 C1061 1.523 . S
H1063 C1038 0.950 . S
H1064 C1040 0.950 . S
H1065 C1041 0.949 . S
H1066 C1043 0.950 . S
H1067 C1045 0.950 . S
C1068 C1069 1.349 . S
C1068 C1070 1.327 . S
C1068 H1093 0.950 . S
C1069 C1068 1.349 . S
C1069 C1085 1.349 . S
C1070 C1068 1.327 . S
C1070 C1089 1.429 . S
C1070 H1094 0.950 . S
C1071 C1088 1.574 . S
C1071 C1090 1.368 . S
C1071 H1095 0.949 . S
H1072 C1076 0.949 . S
C1073 C1074 1.349 . S
C1073 C1075 1.327 . S
C1073 H1096 0.950 . S
C1074 C1073 1.349 . S
C1074 C1086 1.349 . S
C1075 C1073 1.327 . S
C1075 C1091 1.429 . S
C1075 H1097 0.950 . S
C1076 H1072 0.949 . S
C1076 C1084 1.574 . S
C1076 C1092 1.368 . S
H1077 C1085 0.950 . S
H1078 C1083 0.950 . S
H1079 C1084 0.949 . S
H1080 C1086 0.950 . S
H1081 C1087 0.950 . S
H1082 C1088 0.949 . S
C1083 H1078 0.950 . S
C1083 C1085 1.327 . S
C1083 C1089 1.429 . S
C1084 C1076 1.574 . S
C1084 H1079 0.949 . S
C1084 C1090 1.368 . S
C1085 C1069 1.349 . S
C1085 H1077 0.950 . S
C1085 C1083 1.327 . S
C1086 C1074 1.349 . S
C1086 H1080 0.950 . S
C1086 C1087 1.327 . S
C1087 H1081 0.950 . S
C1087 C1086 1.327 . S
C1087 C1091 1.429 . S
C1088 C1071 1.574 . S
C1088 H1082 0.949 . S
C1088 C1092 1.368 . S
C1089 C1070 1.429 . S
C1089 C1083 1.429 . S
C1089 C1090 1.523 . S
C1090 C1071 1.368 . S
C1090 C1084 1.368 . S
C1090 C1089 1.523 . S
C1091 C1075 1.429 . S
C1091 C1087 1.429 . S
C1091 C1092 1.523 . S
C1092 C1076 1.368 . S
C1092 C1088 1.368 . S
C1092 C1091 1.523 . S
H1093 C1068 0.950 . S
H1094 C1070 0.950 . S
H1095 C1071 0.949 . S
H1096 C1073 0.950 . S
H1097 C1075 0.950 . S
C1098 C1099 1.349 . S
C1098 C1100 1.327 . S
C1098 H1123 0.950 . S
C1099 C1098 1.349 . S
C1099 C1115 1.349 . S
C1100 C1098 1.327 . S
C1100 C1119 1.429 . S
C1100 H1124 0.950 . S
C1101 C1118 1.574 . S
C1101 C1120 1.368 . S
C1101 H1125 0.949 . S
H1102 C1106 0.949 . S
C1103 C1104 1.349 . S
C1103 C1105 1.327 . S
C1103 H1126 0.950 . S
C1104 C1103 1.349 . S
C1104 C1116 1.349 . S
C1105 C1103 1.327 . S
C1105 C1121 1.429 . S
C1105 H1127 0.950 . S
C1106 H1102 0.949 . S
C1106 C1114 1.574 . S
C1106 C1122 1.368 . S
H1107 C1115 0.950 . S
H1108 C1113 0.950 . S
H1109 C1114 0.949 . S
H1110 C1116 0.950 . S
H1111 C1117 0.950 . S
H1112 C1118 0.949 . S
C1113 H1108 0.950 . S
C1113 C1115 1.327 . S
C1113 C1119 1.429 . S
C1114 C1106 1.574 . S
C1114 H1109 0.949 . S
C1114 C1120 1.368 . S
C1115 C1099 1.349 . S
C1115 H1107 0.950 . S
C1115 C1113 1.327 . S
C1116 C1104 1.349 . S
C1116 H1110 0.950 . S
C1116 C1117 1.327 . S
C1117 H1111 0.950 . S
C1117 C1116 1.327 . S
C1117 C1121 1.429 . S
C1118 C1101 1.574 . S
C1118 H1112 0.949 . S
C1118 C1122 1.368 . S
C1119 C1100 1.429 . S
C1119 C1113 1.429 . S
C1119 C1120 1.523 . S
C1120 C1101 1.368 . S
C1120 C1114 1.368 . S
C1120 C1119 1.523 . S
C1121 C1105 1.429 . S
C1121 C1117 1.429 . S
C1121 C1122 1.523 . S
C1122 C1106 1.368 . S
C1122 C1118 1.368 . S
C1122 C1121 1.523 . S
H1123 C1098 0.950 . S
H1124 C1100 0.950 . S
H1125 C1101 0.949 . S
H1126 C1103 0.950 . S
H1127 C1105 0.950 . S
C1128 C1129 1.349 . S
C1128 C1130 1.327 . S
C1128 H1153 0.950 . S
C1129 C1128 1.349 . S
C1129 C1145 1.349 . S
C1130 C1128 1.327 . S
C1130 C1149 1.429 . S
C1130 H1154 0.950 . S
C1131 C1148 1.574 . S
C1131 C1150 1.368 . S
C1131 H1155 0.949 . S
H1132 C1136 0.949 . S
C1133 C1134 1.349 . S
C1133 C1135 1.327 . S
C1133 H1156 0.950 . S
C1134 C1133 1.349 . S
C1134 C1146 1.349 . S
C1135 C1133 1.327 . S
C1135 C1151 1.429 . S
C1135 H1157 0.950 . S
C1136 H1132 0.949 . S
C1136 C1144 1.574 . S
C1136 C1152 1.368 . S
H1137 C1145 0.950 . S
H1138 C1143 0.950 . S
H1139 C1144 0.949 . S
H1140 C1146 0.950 . S
H1141 C1147 0.950 . S
H1142 C1148 0.949 . S
C1143 H1138 0.950 . S
C1143 C1145 1.327 . S
C1143 C1149 1.429 . S
C1144 C1136 1.574 . S
C1144 H1139 0.949 . S
C1144 C1150 1.368 . S
C1145 C1129 1.349 . S
C1145 H1137 0.950 . S
C1145 C1143 1.327 . S
C1146 C1134 1.349 . S
C1146 H1140 0.950 . S
C1146 C1147 1.327 . S
C1147 H1141 0.950 . S
C1147 C1146 1.327 . S
C1147 C1151 1.429 . S
C1148 C1131 1.574 . S
C1148 H1142 0.949 . S
C1148 C1152 1.368 . S
C1149 C1130 1.429 . S
C1149 C1143 1.429 . S
C1149 C1150 1.523 . S
C1150 C1131 1.368 . S
C1150 C1144 1.368 . S
C1150 C1149 1.523 . S
C1151 C1135 1.429 . S
C1151 C1147 1.429 . S
C1151 C1152 1.523 . S
C1152 C1136 1.368 . S
C1152 C1148 1.368 . S
C1152 C1151 1.523 . S
H1153 C1128 0.950 . S
H1154 C1130 0.950 . S
H1155 C1131 0.949 . S
H1156 C1133 0.950 . S
H1157 C1135 0.950 . S
C1158 C1159 1.349 . S
C1158 C1160 1.327 . S
C1158 H1183 0.950 . S
C1159 C1158 1.349 . S
C1159 C1175 1.349 . S
C1160 C1158 1.327 . S
C1160 C1179 1.429 . S
C1160 H1184 0.950 . S
C1161 C1178 1.574 . S
C1161 C1180 1.368 . S
C1161 H1185 0.949 . S
H1162 C1166 0.949 . S
C1163 C1164 1.349 . S
C1163 C1165 1.327 . S
C1163 H1186 0.950 . S
C1164 C1163 1.349 . S
C1164 C1176 1.349 . S
C1165 C1163 1.327 . S
C1165 C1181 1.429 . S
C1165 H1187 0.950 . S
C1166 H1162 0.949 . S
C1166 C1174 1.574 . S
C1166 C1182 1.368 . S
H1167 C1175 0.950 . S
H1168 C1173 0.950 . S
H1169 C1174 0.949 . S
H1170 C1176 0.950 . S
H1171 C1177 0.950 . S
H1172 C1178 0.949 . S
C1173 H1168 0.950 . S
C1173 C1175 1.327 . S
C1173 C1179 1.429 . S
C1174 C1166 1.574 . S
C1174 H1169 0.949 . S
C1174 C1180 1.368 . S
C1175 C1159 1.349 . S
C1175 H1167 0.950 . S
C1175 C1173 1.327 . S
C1176 C1164 1.349 . S
C1176 H1170 0.950 . S
C1176 C1177 1.327 . S
C1177 H1171 0.950 . S
C1177 C1176 1.327 . S
C1177 C1181 1.429 . S
C1178 C1161 1.574 . S
C1178 H1172 0.949 . S
C1178 C1182 1.368 . S
C1179 C1160 1.429 . S
C1179 C1173 1.429 . S
C1179 C1180 1.523 . S
C1180 C1161 1.368 . S
C1180 C1174 1.368 . S
C1180 C1179 1.523 . S
C1181 C1165 1.429 . S
C1181 C1177 1.429 . S
C1181 C1182 1.523 . S
C1182 C1166 1.368 . S
C1182 C1178 1.368 . S
C1182 C1181 1.523 . S
H1183 C1158 0.950 . S
H1184 C1160 0.950 . S
H1185 C1161 0.949 . S
H1186 C1163 0.950 . S
H1187 C1165 0.950 . S
C1188 C1189 1.349 . S
C1188 C1190 1.327 . S
C1188 H1213 0.950 . S
C1189 C1188 1.349 . S
C1189 C1205 1.349 . S
C1190 C1188 1.327 . S
C1190 C1209 1.429 . S
C1190 H1214 0.950 . S
C1191 C1208 1.574 . S
C1191 C1210 1.368 . S
C1191 H1215 0.949 . S
H1192 C1196 0.949 . S
C1193 C1194 1.349 . S
C1193 C1195 1.327 . S
C1193 H1216 0.950 . S
C1194 C1193 1.349 . S
C1194 C1206 1.349 . S
C1195 C1193 1.327 . S
C1195 C1211 1.429 . S
C1195 H1217 0.950 . S
C1196 H1192 0.949 . S
C1196 C1204 1.574 . S
C1196 C1212 1.368 . S
H1197 C1205 0.950 . S
H1198 C1203 0.950 . S
H1199 C1204 0.949 . S
H1200 C1206 0.950 . S
H1201 C1207 0.950 . S
H1202 C1208 0.949 . S
C1203 H1198 0.950 . S
C1203 C1205 1.327 . S
C1203 C1209 1.429 . S
C1204 C1196 1.574 . S
C1204 H1199 0.949 . S
C1204 C1210 1.368 . S
C1205 C1189 1.349 . S
C1205 H1197 0.950 . S
C1205 C1203 1.327 . S
C1206 C1194 1.349 . S
C1206 H1200 0.950 . S
C1206 C1207 1.327 . S
C1207 H1201 0.950 . S
C1207 C1206 1.327 . S
C1207 C1211 1.429 . S
C1208 C1191 1.574 . S
C1208 H1202 0.949 . S
C1208 C1212 1.368 . S
C1209 C1190 1.429 . S
C1209 C1203 1.429 . S
C1209 C1210 1.523 . S
C1210 C1191 1.368 . S
C1210 C1204 1.368 . S
C1210 C1209 1.523 . S
C1211 C1195 1.429 . S
C1211 C1207 1.429 . S
C1211 C1212 1.523 . S
C1212 C1196 1.368 . S
C1212 C1208 1.368 . S
C1212 C1211 1.523 . S
H1213 C1188 0.950 . S
H1214 C1190 0.950 . S
H1215 C1191 0.949 . S
H1216 C1193 0.950 . S
H1217 C1195 0.950 . S
C1218 C1219 1.349 . S
C1218 C1220 1.327 . S
C1218 H1243 0.950 . S
C1219 C1218 1.349 . S
C1219 C1235 1.349 . S
C1220 C1218 1.327 . S
C1220 C1239 1.429 . S
C1220 H1244 0.950 . S
C1221 C1238 1.574 . S
C1221 C1240 1.368 . S
C1221 H1245 0.949 . S
H1222 C1226 0.949 . S
C1223 C1224 1.349 . S
C1223 C1225 1.327 . S
C1223 H1246 0.950 . S
C1224 C1223 1.349 . S
C1224 C1236 1.349 . S
C1225 C1223 1.327 . S
C1225 C1241 1.429 . S
C1225 H1247 0.950 . S
C1226 H1222 0.949 . S
C1226 C1234 1.574 . S
C1226 C1242 1.368 . S
H1227 C1235 0.950 . S
H1228 C1233 0.950 . S
H1229 C1234 0.949 . S
H1230 C1236 0.950 . S
H1231 C1237 0.950 . S
H1232 C1238 0.949 . S
C1233 H1228 0.950 . S
C1233 C1235 1.327 . S
C1233 C1239 1.429 . S
C1234 C1226 1.574 . S
C1234 H1229 0.949 . S
C1234 C1240 1.368 . S
C1235 C1219 1.349 . S
C1235 H1227 0.950 . S
C1235 C1233 1.327 . S
C1236 C1224 1.349 . S
C1236 H1230 0.950 . S
C1236 C1237 1.327 . S
C1237 H1231 0.950 . S
C1237 C1236 1.327 . S
C1237 C1241 1.429 . S
C1238 C1221 1.574 . S
C1238 H1232 0.949 . S
C1238 C1242 1.368 . S
C1239 C1220 1.429 . S
C1239 C1233 1.429 . S
C1239 C1240 1.523 . S
C1240 C1221 1.368 . S
C1240 C1234 1.368 . S
C1240 C1239 1.523 . S
C1241 C1225 1.429 . S
C1241 C1237 1.429 . S
C1241 C1242 1.523 . S
C1242 C1226 1.368 . S
C1242 C1238 1.368 . S
C1242 C1241 1.523 . S
H1243 C1218 0.950 . S
H1244 C1220 0.950 . S
H1245 C1221 0.949 . S
H1246 C1223 0.950 . S
H1247 C1225 0.950 . S
C1248 C1249 1.349 . S
C1248 C1250 1.327 . S
C1248 H1273 0.950 . S
C1249 C1248 1.349 . S
C1249 C1265 1.349 . S
C1250 C1248 1.327 . S
C1250 C1269 1.429 . S
C1250 H1274 0.950 . S
C1251 C1268 1.574 . S
C1251 C1270 1.368 . S
C1251 H1275 0.949 . S
H1252 C1256 0.949 . S
C1253 C1254 1.349 . S
C1253 C1255 1.327 . S
C1253 H1276 0.950 . S
C1254 C1253 1.349 . S
C1254 C1266 1.349 . S
C1255 C1253 1.327 . S
C1255 C1271 1.429 . S
C1255 H1277 0.950 . S
C1256 H1252 0.949 . S
C1256 C1264 1.574 . S
C1256 C1272 1.368 . S
H1257 C1265 0.950 . S
H1258 C1263 0.950 . S
H1259 C1264 0.949 . S
H1260 C1266 0.950 . S
H1261 C1267 0.950 . S
H1262 C1268 0.949 . S
C1263 H1258 0.950 . S
C1263 C1265 1.327 . S
C1263 C1269 1.429 . S
C1264 C1256 1.574 . S
C1264 H1259 0.949 . S
C1264 C1270 1.368 . S
C1265 C1249 1.349 . S
C1265 H1257 0.950 . S
C1265 C1263 1.327 . S
C1266 C1254 1.349 . S
C1266 H1260 0.950 . S
C1266 C1267 1.327 . S
C1267 H1261 0.950 . S
C1267 C1266 1.327 . S
C1267 C1271 1.429 . S
C1268 C1251 1.574 . S
C1268 H1262 0.949 . S
C1268 C1272 1.368 . S
C1269 C1250 1.429 . S
C1269 C1263 1.429 . S
C1269 C1270 1.523 . S
C1270 C1251 1.368 . S
C1270 C1264 1.368 . S
C1270 C1269 1.523 . S
C1271 C1255 1.429 . S
C1271 C1267 1.429 . S
C1271 C1272 1.523 . S
C1272 C1256 1.368 . S
C1272 C1268 1.368 . S
C1272 C1271 1.523 . S
H1273 C1248 0.950 . S
H1274 C1250 0.950 . S
H1275 C1251 0.949 . S
H1276 C1253 0.950 . S
H1277 C1255 0.950 . S
C1278 C1279 1.349 . S
C1278 C1280 1.327 . S
C1278 H1303 0.950 . S
C1279 C1278 1.349 . S
C1279 C1295 1.349 . S
C1280 C1278 1.327 . S
C1280 C1299 1.429 . S
C1280 H1304 0.950 . S
C1281 C1298 1.574 . S
C1281 C1300 1.368 . S
C1281 H1305 0.949 . S
H1282 C1286 0.949 . S
C1283 C1284 1.349 . S
C1283 C1285 1.327 . S
C1283 H1306 0.950 . S
C1284 C1283 1.349 . S
C1284 C1296 1.349 . S
C1285 C1283 1.327 . S
C1285 C1301 1.429 . S
C1285 H1307 0.950 . S
C1286 H1282 0.949 . S
C1286 C1294 1.574 . S
C1286 C1302 1.368 . S
H1287 C1295 0.950 . S
H1288 C1293 0.950 . S
H1289 C1294 0.949 . S
H1290 C1296 0.950 . S
H1291 C1297 0.950 . S
H1292 C1298 0.949 . S
C1293 H1288 0.950 . S
C1293 C1295 1.327 . S
C1293 C1299 1.429 . S
C1294 C1286 1.574 . S
C1294 H1289 0.949 . S
C1294 C1300 1.368 . S
C1295 C1279 1.349 . S
C1295 H1287 0.950 . S
C1295 C1293 1.327 . S
C1296 C1284 1.349 . S
C1296 H1290 0.950 . S
C1296 C1297 1.327 . S
C1297 H1291 0.950 . S
C1297 C1296 1.327 . S
C1297 C1301 1.429 . S
C1298 C1281 1.574 . S
C1298 H1292 0.949 . S
C1298 C1302 1.368 . S
C1299 C1280 1.429 . S
C1299 C1293 1.429 . S
C1299 C1300 1.523 . S
C1300 C1281 1.368 . S
C1300 C1294 1.368 . S
C1300 C1299 1.523 . S
C1301 C1285 1.429 . S
C1301 C1297 1.429 . S
C1301 C1302 1.523 . S
C1302 C1286 1.368 . S
C1302 C1298 1.368 . S
C1302 C1301 1.523 . S
H1303 C1278 0.950 . S
H1304 C1280 0.950 . S
H1305 C1281 0.949 . S
H1306 C1283 0.950 . S
H1307 C1285 0.950 . S
C1308 C1309 1.349 . S
C1308 C1310 1.327 . S
C1308 H1333 0.950 . S
C1309 C1308 1.349 . S
C1309 C1325 1.349 . S
C1310 C1308 1.327 . S
C1310 C1329 1.429 . S
C1310 H1334 0.950 . S
C1311 C1328 1.574 . S
C1311 C1330 1.368 . S
C1311 H1335 0.949 . S
H1312 C1316 0.949 . S
C1313 C1314 1.349 . S
C1313 C1315 1.327 . S
C1313 H1336 0.950 . S
C1314 C1313 1.349 . S
C1314 C1326 1.349 . S
C1315 C1313 1.327 . S
C1315 C1331 1.429 . S
C1315 H1337 0.950 . S
C1316 H1312 0.949 . S
C1316 C1324 1.574 . S
C1316 C1332 1.368 . S
H1317 C1325 0.950 . S
H1318 C1323 0.950 . S
H1319 C1324 0.949 . S
H1320 C1326 0.950 . S
H1321 C1327 0.950 . S
H1322 C1328 0.949 . S
C1323 H1318 0.950 . S
C1323 C1325 1.327 . S
C1323 C1329 1.429 . S
C1324 C1316 1.574 . S
C1324 H1319 0.949 . S
C1324 C1330 1.368 . S
C1325 C1309 1.349 . S
C1325 H1317 0.950 . S
C1325 C1323 1.327 . S
C1326 C1314 1.349 . S
C1326 H1320 0.950 . S
C1326 C1327 1.327 . S
C1327 H1321 0.950 . S
C1327 C1326 1.327 . S
C1327 C1331 1.429 . S
C1328 C1311 1.574 . S
C1328 H1322 0.949 . S
C1328 C1332 1.368 . S
C1329 C1310 1.429 . S
C1329 C1323 1.429 . S
C1329 C1330 1.523 . S
C1330 C1311 1.368 . S
C1330 C1324 1.368 . S
C1330 C1329 1.523 . S
C1331 C1315 1.429 . S
C1331 C1327 1.429 . S
C1331 C1332 1.523 . S
C1332 C1316 1.368 . S
C1332 C1328 1.368 . S
C1332 C1331 1.523 . S
H1333 C1308 0.950 . S
H1334 C1310 0.950 . S
H1335 C1311 0.949 . S
H1336 C1313 0.950 . S
H1337 C1315 0.950 . S
C1338 C1339 1.349 . S
C1338 C1340 1.327 . S
C1338 H1363 0.950 . S
C1339 C1338 1.349 . S
C1339 C1355 1.349 . S
C1340 C1338 1.327 . S
C1340 C1359 1.429 . S
C1340 H1364 0.950 . S
C1341 C1358 1.574 . S
C1341 C1360 1.368 . S
C1341 H1365 0.949 . S
H1342 C1346 0.949 . S
C1343 C1344 1.349 . S
C1343 C1345 1.327 . S
C1343 H1366 0.950 . S
C1344 C1343 1.349 . S
C1344 C1356 1.349 . S
C1345 C1343 1.327 . S
C1345 C1361 1.429 . S
C1345 H1367 0.950 . S
C1346 H1342 0.949 . S
C1346 C1354 1.574 . S
C1346 C1362 1.368 . S
H1347 C1355 0.950 . S
H1348 C1353 0.950 . S
H1349 C1354 0.949 . S
H1350 C1356 0.950 . S
H1351 C1357 0.950 . S
H1352 C1358 0.949 . S
C1353 H1348 0.950 . S
C1353 C1355 1.327 . S
C1353 C1359 1.429 . S
C1354 C1346 1.574 . S
C1354 H1349 0.949 . S
C1354 C1360 1.368 . S
C1355 C1339 1.349 . S
C1355 H1347 0.950 . S
C1355 C1353 1.327 . S
C1356 C1344 1.349 . S
C1356 H1350 0.950 . S
C1356 C1357 1.327 . S
C1357 H1351 0.950 . S
C1357 C1356 1.327 . S
C1357 C1361 1.429 . S
C1358 C1341 1.574 . S
C1358 H1352 0.949 . S
C1358 C1362 1.368 . S
C1359 C1340 1.429 . S
C1359 C1353 1.429 . S
C1359 C1360 1.523 . S
C1360 C1341 1.368 . S
C1360 C1354 1.368 . S
C1360 C1359 1.523 . S
C1361 C1345 1.429 . S
C1361 C1357 1.429 . S
C1361 C1362 1.523 . S
C1362 C1346 1.368 . S
C1362 C1358 1.368 . S
C1362 C1361 1.523 . S
H1363 C1338 0.950 . S
H1364 C1340 0.950 . S
H1365 C1341 0.949 . S
H1366 C1343 0.950 . S
H1367 C1345 0.950 . S
C1368 C1369 1.349 . S
C1368 C1370 1.327 . S
C1368 H1393 0.950 . S
C1369 C1368 1.349 . S
C1369 C1385 1.349 . S
C1370 C1368 1.327 . S
C1370 C1389 1.429 . S
C1370 H1394 0.950 . S
C1371 C1388 1.574 . S
C1371 C1390 1.368 . S
C1371 H1395 0.949 . S
H1372 C1376 0.949 . S
C1373 C1374 1.349 . S
C1373 C1375 1.327 . S
C1373 H1396 0.950 . S
C1374 C1373 1.349 . S
C1374 C1386 1.349 . S
C1375 C1373 1.327 . S
C1375 C1391 1.429 . S
C1375 H1397 0.950 . S
C1376 H1372 0.949 . S
C1376 C1384 1.574 . S
C1376 C1392 1.368 . S
H1377 C1385 0.950 . S
H1378 C1383 0.950 . S
H1379 C1384 0.949 . S
H1380 C1386 0.950 . S
H1381 C1387 0.950 . S
H1382 C1388 0.949 . S
C1383 H1378 0.950 . S
C1383 C1385 1.327 . S
C1383 C1389 1.429 . S
C1384 C1376 1.574 . S
C1384 H1379 0.949 . S
C1384 C1390 1.368 . S
C1385 C1369 1.349 . S
C1385 H1377 0.950 . S
C1385 C1383 1.327 . S
C1386 C1374 1.349 . S
C1386 H1380 0.950 . S
C1386 C1387 1.327 . S
C1387 H1381 0.950 . S
C1387 C1386 1.327 . S
C1387 C1391 1.429 . S
C1388 C1371 1.574 . S
C1388 H1382 0.949 . S
C1388 C1392 1.368 . S
C1389 C1370 1.429 . S
C1389 C1383 1.429 . S
C1389 C1390 1.523 . S
C1390 C1371 1.368 . S
C1390 C1384 1.368 . S
C1390 C1389 1.523 . S
C1391 C1375 1.429 . S
C1391 C1387 1.429 . S
C1391 C1392 1.523 . S
C1392 C1376 1.368 . S
C1392 C1388 1.368 . S
C1392 C1391 1.523 . S
H1393 C1368 0.950 . S
H1394 C1370 0.950 . S
H1395 C1371 0.949 . S
H1396 C1373 0.950 . S
H1397 C1375 0.950 . S
C1398 C1399 1.349 . S
C1398 C1400 1.327 . S
C1398 H1423 0.950 . S
C1399 C1398 1.349 . S
C1399 C1415 1.349 . S
C1400 C1398 1.327 . S
C1400 C1419 1.429 . S
C1400 H1424 0.950 . S
C1401 C1418 1.574 . S
C1401 C1420 1.368 . S
C1401 H1425 0.949 . S
H1402 C1406 0.949 . S
C1403 C1404 1.349 . S
C1403 C1405 1.327 . S
C1403 H1426 0.950 . S
C1404 C1403 1.349 . S
C1404 C1416 1.349 . S
C1405 C1403 1.327 . S
C1405 C1421 1.429 . S
C1405 H1427 0.950 . S
C1406 H1402 0.949 . S
C1406 C1414 1.574 . S
C1406 C1422 1.368 . S
H1407 C1415 0.950 . S
H1408 C1413 0.950 . S
H1409 C1414 0.949 . S
H1410 C1416 0.950 . S
H1411 C1417 0.950 . S
H1412 C1418 0.949 . S
C1413 H1408 0.950 . S
C1413 C1415 1.327 . S
C1413 C1419 1.429 . S
C1414 C1406 1.574 . S
C1414 H1409 0.949 . S
C1414 C1420 1.368 . S
C1415 C1399 1.349 . S
C1415 H1407 0.950 . S
C1415 C1413 1.327 . S
C1416 C1404 1.349 . S
C1416 H1410 0.950 . S
C1416 C1417 1.327 . S
C1417 H1411 0.950 . S
C1417 C1416 1.327 . S
C1417 C1421 1.429 . S
C1418 C1401 1.574 . S
C1418 H1412 0.949 . S
C1418 C1422 1.368 . S
C1419 C1400 1.429 . S
C1419 C1413 1.429 . S
C1419 C1420 1.523 . S
C1420 C1401 1.368 . S
C1420 C1414 1.368 . S
C1420 C1419 1.523 . S
C1421 C1405 1.429 . S
C1421 C1417 1.429 . S
C1421 C1422 1.523 . S
C1422 C1406 1.368 . S
C1422 C1418 1.368 . S
C1422 C1421 1.523 . S
H1423 C1398 0.950 . S
H1424 C1400 0.950 . S
H1425 C1401 0.949 . S
H1426 C1403 0.950 . S
H1427 C1405 0.950 . S
C1428 C1429 1.349 . S
C1428 C1430 1.327 . S
C1428 H1453 0.950 . S
C1429 C1428 1.349 . S
C1429 C1445 1.349 . S
C1430 C1428 1.327 . S
C1430 C1449 1.429 . S
C1430 H1454 0.950 . S
C1431 C1448 1.574 . S
C1431 C1450 1.368 . S
C1431 H1455 0.949 . S
H1432 C1436 0.949 . S
C1433 C1434 1.349 . S
C1433 C1435 1.327 . S
C1433 H1456 0.950 . S
C1434 C1433 1.349 . S
C1434 C1446 1.349 . S
C1435 C1433 1.327 . S
C1435 C1451 1.429 . S
C1435 H1457 0.950 . S
C1436 H1432 0.949 . S
C1436 C1444 1.574 . S
C1436 C1452 1.368 . S
H1437 C1445 0.950 . S
H1438 C1443 0.950 . S
H1439 C1444 0.949 . S
H1440 C1446 0.950 . S
H1441 C1447 0.950 . S
H1442 C1448 0.949 . S
C1443 H1438 0.950 . S
C1443 C1445 1.327 . S
C1443 C1449 1.429 . S
C1444 C1436 1.574 . S
C1444 H1439 0.949 . S
C1444 C1450 1.368 . S
C1445 C1429 1.349 . S
C1445 H1437 0.950 . S
C1445 C1443 1.327 . S
C1446 C1434 1.349 . S
C1446 H1440 0.950 . S
C1446 C1447 1.327 . S
C1447 H1441 0.950 . S
C1447 C1446 1.327 . S
C1447 C1451 1.429 . S
C1448 C1431 1.574 . S
C1448 H1442 0.949 . S
C1448 C1452 1.368 . S
C1449 C1430 1.429 . S
C1449 C1443 1.429 . S
C1449 C1450 1.523 . S
C1450 C1431 1.368 . S
C1450 C1444 1.368 . S
C1450 C1449 1.523 . S
C1451 C1435 1.429 . S
C1451 C1447 1.429 . S
C1451 C1452 1.523 . S
C1452 C1436 1.368 . S
C1452 C1448 1.368 . S
C1452 C1451 1.523 . S
H1453 C1428 0.950 . S
H1454 C1430 0.950 . S
H1455 C1431 0.949 . S
H1456 C1433 0.950 . S
H1457 C1435 0.950 . S
C1458 C1459 1.349 . S
C1458 C1460 1.327 . S
C1458 H1483 0.950 . S
C1459 C1458 1.349 . S
C1459 C1475 1.349 . S
C1460 C1458 1.327 . S
C1460 C1479 1.429 . S
C1460 H1484 0.950 . S
C1461 C1478 1.574 . S
C1461 C1480 1.368 . S
C1461 H1485 0.949 . S
H1462 C1466 0.949 . S
C1463 C1464 1.349 . S
C1463 C1465 1.327 . S
C1463 H1486 0.950 . S
C1464 C1463 1.349 . S
C1464 C1476 1.349 . S
C1465 C1463 1.327 . S
C1465 C1481 1.429 . S
C1465 H1487 0.950 . S
C1466 H1462 0.949 . S
C1466 C1474 1.574 . S
C1466 C1482 1.368 . S
H1467 C1475 0.950 . S
H1468 C1473 0.950 . S
H1469 C1474 0.949 . S
H1470 C1476 0.950 . S
H1471 C1477 0.950 . S
H1472 C1478 0.949 . S
C1473 H1468 0.950 . S
C1473 C1475 1.327 . S
C1473 C1479 1.429 . S
C1474 C1466 1.574 . S
C1474 H1469 0.949 . S
C1474 C1480 1.368 . S
C1475 C1459 1.349 . S
C1475 H1467 0.950 . S
C1475 C1473 1.327 . S
C1476 C1464 1.349 . S
C1476 H1470 0.950 . S
C1476 C1477 1.327 . S
C1477 H1471 0.950 . S
C1477 C1476 1.327 . S
C1477 C1481 1.429 . S
C1478 C1461 1.574 . S
C1478 H1472 0.949 . S
C1478 C1482 1.368 . S
C1479 C1460 1.429 . S
C1479 C1473 1.429 . S
C1479 C1480 1.523 . S
C1480 C1461 1.368 . S
C1480 C1474 1.368 . S
C1480 C1479 1.523 . S
C1481 C1465 1.429 . S
C1481 C1477 1.429 . S
C1481 C1482 1.523 . S
C1482 C1466 1.368 . S
C1482 C1478 1.368 . S
C1482 C1481 1.523 . S
H1483 C1458 0.950 . S
H1484 C1460 0.950 . S
H1485 C1461 0.949 . S
H1486 C1463 0.950 . S
H1487 C1465 0.950 . S
C1488 C1489 1.349 . S
C1488 C1490 1.327 . S
C1488 H1513 0.950 . S
C1489 C1488 1.349 . S
C1489 C1505 1.349 . S
C1490 C1488 1.327 . S
C1490 C1509 1.429 . S
C1490 H1514 0.950 . S
C1491 C1508 1.574 . S
C1491 C1510 1.368 . S
C1491 H1515 0.949 . S
H1492 C1496 0.949 . S
C1493 C1494 1.349 . S
C1493 C1495 1.327 . S
C1493 H1516 0.950 . S
C1494 C1493 1.349 . S
C1494 C1506 1.349 . S
C1495 C1493 1.327 . S
C1495 C1511 1.429 . S
C1495 H1517 0.950 . S
C1496 H1492 0.949 . S
C1496 C1504 1.574 . S
C1496 C1512 1.368 . S
H1497 C1505 0.950 . S
H1498 C1503 0.950 . S
H1499 C1504 0.949 . S
H1500 C1506 0.950 . S
H1501 C1507 0.950 . S
H1502 C1508 0.949 . S
C1503 H1498 0.950 . S
C1503 C1505 1.327 . S
C1503 C1509 1.429 . S
C1504 C1496 1.574 . S
C1504 H1499 0.949 . S
C1504 C1510 1.368 . S
C1505 C1489 1.349 . S
C1505 H1497 0.950 . S
C1505 C1503 1.327 . S
C1506 C1494 1.349 . S
C1506 H1500 0.950 . S
C1506 C1507 1.327 . S
C1507 H1501 0.950 . S
C1507 C1506 1.327 . S
C1507 C1511 1.429 . S
C1508 C1491 1.574 . S
C1508 H1502 0.949 . S
C1508 C1512 1.368 . S
C1509 C1490 1.429 . S
C1509 C1503 1.429 . S
C1509 C1510 1.523 . S
C1510 C1491 1.368 . S
C1510 C1504 1.368 . S
C1510 C1509 1.523 . S
C1511 C1495 1.429 . S
C1511 C1507 1.429 . S
C1511 C1512 1.523 . S
C1512 C1496 1.368 . S
C1512 C1508 1.368 . S
C1512 C1511 1.523 . S
H1513 C1488 0.950 . S
H1514 C1490 0.950 . S
H1515 C1491 0.949 . S
H1516 C1493 0.950 . S
H1517 C1495 0.950 . S
C1518 C1519 1.349 . S
C1518 C1520 1.327 . S
C1518 H1543 0.950 . S
C1519 C1518 1.349 . S
C1519 C1535 1.349 . S
C1520 C1518 1.327 . S
C1520 C1539 1.429 . S
C1520 H1544 0.950 . S
C1521 C1538 1.574 . S
C1521 C1540 1.368 . S
C1521 H1545 0.949 . S
H1522 C1526 0.949 . S
C1523 C1524 1.349 . S
C1523 C1525 1.327 . S
C1523 H1546 0.950 . S
C1524 C1523 1.349 . S
C1524 C1536 1.349 . S
C1525 C1523 1.327 . S
C1525 C1541 1.429 . S
C1525 H1547 0.950 . S
C1526 H1522 0.949 . S
C1526 C1534 1.574 . S
C1526 C1542 1.368 . S
H1527 C1535 0.950 . S
H1528 C1533 0.950 . S
H1529 C1534 0.949 . S
H1530 C1536 0.950 . S
H1531 C1537 0.950 . S
H1532 C1538 0.949 . S
C1533 H1528 0.950 . S
C1533 C1535 1.327 . S
C1533 C1539 1.429 . S
C1534 C1526 1.574 . S
C1534 H1529 0.949 . S
C1534 C1540 1.368 . S
C1535 C1519 1.349 . S
C1535 H1527 0.950 . S
C1535 C1533 1.327 . S
C1536 C1524 1.349 . S
C1536 H1530 0.950 . S
C1536 C1537 1.327 . S
C1537 H1531 0.950 . S
C1537 C1536 1.327 . S
C1537 C1541 1.429 . S
C1538 C1521 1.574 . S
C1538 H1532 0.949 . S
C1538 C1542 1.368 . S
C1539 C1520 1.429 . S
C1539 C1533 1.429 . S
C1539 C1540 1.523 . S
C1540 C1521 1.368 . S
C1540 C1534 1.368 . S
C1540 C1539 1.523 . S
C1541 C1525 1.429 . S
C1541 C1537 1.429 . S
C1541 C1542 1.523 . S
C1542 C1526 1.368 . S
C1542 C1538 1.368 . S
C1542 C1541 1.523 . S
H1543 C1518 0.950 . S
H1544 C1520 0.950 . S
H1545 C1521 0.949 . S
H1546 C1523 0.950 . S
H1547 C1525 0.950 . S
C1548 C1549 1.349 . S
C1548 C1550 1.327 . S
C1548 H1573 0.950 . S
C1549 C1548 1.349 . S
C1549 C1565 1.349 . S
C1550 C1548 1.327 . S
C1550 C1569 1.429 . S
C1550 H1574 0.950 . S
C1551 C1568 1.574 . S
C1551 C1570 1.368 . S
C1551 H1575 0.949 . S
H1552 C1556 0.949 . S
C1553 C1554 1.349 . S
C1553 C1555 1.327 . S
C1553 H1576 0.950 . S
C1554 C1553 1.349 . S
C1554 C1566 1.349 . S
C1555 C1553 1.327 . S
C1555 C1571 1.429 . S
C1555 H1577 0.950 . S
C1556 H1552 0.949 . S
C1556 C1564 1.574 . S
C1556 C1572 1.368 . S
H1557 C1565 0.950 . S
H1558 C1563 0.950 . S
H1559 C1564 0.949 . S
H1560 C1566 0.950 . S
H1561 C1567 0.950 . S
H1562 C1568 0.949 . S
C1563 H1558 0.950 . S
C1563 C1565 1.327 . S
C1563 C1569 1.429 . S
C1564 C1556 1.574 . S
C1564 H1559 0.949 . S
C1564 C1570 1.368 . S
C1565 C1549 1.349 . S
C1565 H1557 0.950 . S
C1565 C1563 1.327 . S
C1566 C1554 1.349 . S
C1566 H1560 0.950 . S
C1566 C1567 1.327 . S
C1567 H1561 0.950 . S
C1567 C1566 1.327 . S
C1567 C1571 1.429 . S
C1568 C1551 1.574 . S
C1568 H1562 0.949 . S
C1568 C1572 1.368 . S
C1569 C1550 1.429 . S
C1569 C1563 1.429 . S
C1569 C1570 1.523 . S
C1570 C1551 1.368 . S
C1570 C1564 1.368 . S
C1570 C1569 1.523 . S
C1571 C1555 1.429 . S
C1571 C1567 1.429 . S
C1571 C1572 1.523 . S
C1572 C1556 1.368 . S
C1572 C1568 1.368 . S
C1572 C1571 1.523 . S
H1573 C1548 0.950 . S
H1574 C1550 0.950 . S
H1575 C1551 0.949 . S
H1576 C1553 0.950 . S
H1577 C1555 0.950 . S
C1578 C1579 1.349 . S
C1578 C1580 1.327 . S
C1578 H1603 0.950 . S
C1579 C1578 1.349 . S
C1579 C1595 1.349 . S
C1580 C1578 1.327 . S
C1580 C1599 1.429 . S
C1580 H1604 0.950 . S
C1581 C1598 1.574 . S
C1581 C1600 1.368 . S
C1581 H1605 0.949 . S
H1582 C1586 0.949 . S
C1583 C1584 1.349 . S
C1583 C1585 1.327 . S
C1583 H1606 0.950 . S
C1584 C1583 1.349 . S
C1584 C1596 1.349 . S
C1585 C1583 1.327 . S
C1585 C1601 1.429 . S
C1585 H1607 0.950 . S
C1586 H1582 0.949 . S
C1586 C1594 1.574 . S
C1586 C1602 1.368 . S
H1587 C1595 0.950 . S
H1588 C1593 0.950 . S
H1589 C1594 0.949 . S
H1590 C1596 0.950 . S
H1591 C1597 0.950 . S
H1592 C1598 0.949 . S
C1593 H1588 0.950 . S
C1593 C1595 1.327 . S
C1593 C1599 1.429 . S
C1594 C1586 1.574 . S
C1594 H1589 0.949 . S
C1594 C1600 1.368 . S
C1595 C1579 1.349 . S
C1595 H1587 0.950 . S
C1595 C1593 1.327 . S
C1596 C1584 1.349 . S
C1596 H1590 0.950 . S
C1596 C1597 1.327 . S
C1597 H1591 0.950 . S
C1597 C1596 1.327 . S
C1597 C1601 1.429 . S
C1598 C1581 1.574 . S
C1598 H1592 0.949 . S
C1598 C1602 1.368 . S
C1599 C1580 1.429 . S
C1599 C1593 1.429 . S
C1599 C1600 1.523 . S
C1600 C1581 1.368 . S
C1600 C1594 1.368 . S
C1600 C1599 1.523 . S
C1601 C1585 1.429 . S
C1601 C1597 1.429 . S
C1601 C1602 1.523 . S
C1602 C1586 1.368 . S
C1602 C1598 1.368 . S
C1602 C1601 1.523 . S
H1603 C1578 0.950 . S
H1604 C1580 0.950 . S
H1605 C1581 0.949 . S
H1606 C1583 0.950 . S
H1607 C1585 0.950 . S
C1608 C1609 1.349 . S
C1608 C1610 1.327 . S
C1608 H1633 0.950 . S
C1609 C1608 1.349 . S
C1609 C1625 1.349 . S
C1610 C1608 1.327 . S
C1610 C1629 1.429 . S
C1610 H1634 0.950 . S
C1611 C1628 1.574 . S
C1611 C1630 1.368 . S
C1611 H1635 0.949 . S
H1612 C1616 0.949 . S
C1613 C1614 1.349 . S
C1613 C1615 1.327 . S
C1613 H1636 0.950 . S
C1614 C1613 1.349 . S
C1614 C1626 1.349 . S
C1615 C1613 1.327 . S
C1615 C1631 1.429 . S
C1615 H1637 0.950 . S
C1616 H1612 0.949 . S
C1616 C1624 1.574 . S
C1616 C1632 1.368 . S
H1617 C1625 0.950 . S
H1618 C1623 0.950 . S
H1619 C1624 0.949 . S
H1620 C1626 0.950 . S
H1621 C1627 0.950 . S
H1622 C1628 0.949 . S
C1623 H1618 0.950 . S
C1623 C1625 1.327 . S
C1623 C1629 1.429 . S
C1624 C1616 1.574 . S
C1624 H1619 0.949 . S
C1624 C1630 1.368 . S
C1625 C1609 1.349 . S
C1625 H1617 0.950 . S
C1625 C1623 1.327 . S
C1626 C1614 1.349 . S
C1626 H1620 0.950 . S
C1626 C1627 1.327 . S
C1627 H1621 0.950 . S
C1627 C1626 1.327 . S
C1627 C1631 1.429 . S
C1628 C1611 1.574 . S
C1628 H1622 0.949 . S
C1628 C1632 1.368 . S
C1629 C1610 1.429 . S
C1629 C1623 1.429 . S
C1629 C1630 1.523 . S
C1630 C1611 1.368 . S
C1630 C1624 1.368 . S
C1630 C1629 1.523 . S
C1631 C1615 1.429 . S
C1631 C1627 1.429 . S
C1631 C1632 1.523 . S
C1632 C1616 1.368 . S
C1632 C1628 1.368 . S
C1632 C1631 1.523 . S
H1633 C1608 0.950 . S
H1634 C1610 0.950 . S
H1635 C1611 0.949 . S
H1636 C1613 0.950 . S
H1637 C1615 0.950 . S
C1638 C1639 1.349 . S
C1638 C1640 1.327 . S
C1638 H1663 0.950 . S
C1639 C1638 1.349 . S
C1639 C1655 1.349 . S
C1640 C1638 1.327 . S
C1640 C1659 1.429 . S
C1640 H1664 0.950 . S
C1641 C1658 1.574 . S
C1641 C1660 1.368 . S
C1641 H1665 0.949 . S
H1642 C1646 0.949 . S
C1643 C1644 1.349 . S
C1643 C1645 1.327 . S
C1643 H1666 0.950 . S
C1644 C1643 1.349 . S
C1644 C1656 1.349 . S
C1645 C1643 1.327 . S
C1645 C1661 1.429 . S
C1645 H1667 0.950 . S
C1646 H1642 0.949 . S
C1646 C1654 1.574 . S
C1646 C1662 1.368 . S
H1647 C1655 0.950 . S
H1648 C1653 0.950 . S
H1649 C1654 0.949 . S
H1650 C1656 0.950 . S
H1651 C1657 0.950 . S
H1652 C1658 0.949 . S
C1653 H1648 0.950 . S
C1653 C1655 1.327 . S
C1653 C1659 1.429 . S
C1654 C1646 1.574 . S
C1654 H1649 0.949 . S
C1654 C1660 1.368 . S
C1655 C1639 1.349 . S
C1655 H1647 0.950 . S
C1655 C1653 1.327 . S
C1656 C1644 1.349 . S
C1656 H1650 0.950 . S
C1656 C1657 1.327 . S
C1657 H1651 0.950 . S
C1657 C1656 1.327 . S
C1657 C1661 1.429 . S
C1658 C1641 1.574 . S
C1658 H1652 0.949 . S
C1658 C1662 1.368 . S
C1659 C1640 1.429 . S
C1659 C1653 1.429 . S
C1659 C1660 1.523 . S
C1660 C1641 1.368 . S
C1660 C1654 1.368 . S
C1660 C1659 1.523 . S
C1661 C1645 1.429 . S
C1661 C1657 1.429 . S
C1661 C1662 1.523 . S
C1662 C1646 1.368 . S
C1662 C1658 1.368 . S
C1662 C1661 1.523 . S
H1663 C1638 0.950 . S
H1664 C1640 0.950 . S
H1665 C1641 0.949 . S
H1666 C1643 0.950 . S
H1667 C1645 0.950 . S
C1668 C1669 1.349 . S
C1668 C1670 1.327 . S
C1668 H1693 0.950 . S
C1669 C1668 1.349 . S
C1669 C1685 1.349 . S
C1670 C1668 1.327 . S
C1670 C1689 1.429 . S
C1670 H1694 0.950 . S
C1671 C1688 1.574 . S
C1671 C1690 1.368 . S
C1671 H1695 0.949 . S
H1672 C1676 0.949 . S
C1673 C1674 1.349 . S
C1673 C1675 1.327 . S
C1673 H1696 0.950 . S
C1674 C1673 1.349 . S
C1674 C1686 1.349 . S
C1675 C1673 1.327 . S
C1675 C1691 1.429 . S
C1675 H1697 0.950 . S
C1676 H1672 0.949 . S
C1676 C1684 1.574 . S
C1676 C1692 1.368 . S
H1677 C1685 0.950 . S
H1678 C1683 0.950 . S
H1679 C1684 0.949 . S
H1680 C1686 0.950 . S
H1681 C1687 0.950 . S
H1682 C1688 0.949 . S
C1683 H1678 0.950 . S
C1683 C1685 1.327 . S
C1683 C1689 1.429 . S
C1684 C1676 1.574 . S
C1684 H1679 0.949 . S
C1684 C1690 1.368 . S
C1685 C1669 1.349 . S
C1685 H1677 0.950 . S
C1685 C1683 1.327 . S
C1686 C1674 1.349 . S
C1686 H1680 0.950 . S
C1686 C1687 1.327 . S
C1687 H1681 0.950 . S
C1687 C1686 1.327 . S
C1687 C1691 1.429 . S
C1688 C1671 1.574 . S
C1688 H1682 0.949 . S
C1688 C1692 1.368 . S
C1689 C1670 1.429 . S
C1689 C1683 1.429 . S
C1689 C1690 1.523 . S
C1690 C1671 1.368 . S
C1690 C1684 1.368 . S
C1690 C1689 1.523 . S
C1691 C1675 1.429 . S
C1691 C1687 1.429 . S
C1691 C1692 1.523 . S
C1692 C1676 1.368 . S
C1692 C1688 1.368 . S
C1692 C1691 1.523 . S
H1693 C1668 0.950 . S
H1694 C1670 0.950 . S
H1695 C1671 0.949 . S
H1696 C1673 0.950 . S
H1697 C1675 0.950 . S
C1698 C1699 1.349 . S
C1698 C1700 1.327 . S
C1698 H1723 0.950 . S
C1699 C1698 1.349 . S
C1699 C1715 1.349 . S
C1700 C1698 1.327 . S
C1700 C1719 1.429 . S
C1700 H1724 0.950 . S
C1701 C1718 1.574 . S
C1701 C1720 1.368 . S
C1701 H1725 0.949 . S
H1702 C1706 0.949 . S
C1703 C1704 1.349 . S
C1703 C1705 1.327 . S
C1703 H1726 0.950 . S
C1704 C1703 1.349 . S
C1704 C1716 1.349 . S
C1705 C1703 1.327 . S
C1705 C1721 1.429 . S
C1705 H1727 0.950 . S
C1706 H1702 0.949 . S
C1706 C1714 1.574 . S
C1706 C1722 1.368 . S
H1707 C1715 0.950 . S
H1708 C1713 0.950 . S
H1709 C1714 0.949 . S
H1710 C1716 0.950 . S
H1711 C1717 0.950 . S
H1712 C1718 0.949 . S
C1713 H1708 0.950 . S
C1713 C1715 1.327 . S
C1713 C1719 1.429 . S
C1714 C1706 1.574 . S
C1714 H1709 0.949 . S
C1714 C1720 1.368 . S
C1715 C1699 1.349 . S
C1715 H1707 0.950 . S
C1715 C1713 1.327 . S
C1716 C1704 1.349 . S
C1716 H1710 0.950 . S
C1716 C1717 1.327 . S
C1717 H1711 0.950 . S
C1717 C1716 1.327 . S
C1717 C1721 1.429 . S
C1718 C1701 1.574 . S
C1718 H1712 0.949 . S
C1718 C1722 1.368 . S
C1719 C1700 1.429 . S
C1719 C1713 1.429 . S
C1719 C1720 1.523 . S
C1720 C1701 1.368 . S
C1720 C1714 1.368 . S
C1720 C1719 1.523 . S
C1721 C1705 1.429 . S
C1721 C1717 1.429 . S
C1721 C1722 1.523 . S
C1722 C1706 1.368 . S
C1722 C1718 1.368 . S
C1722 C1721 1.523 . S
H1723 C1698 0.950 . S
H1724 C1700 0.950 . S
H1725 C1701 0.949 . S
H1726 C1703 0.950 . S
H1727 C1705 0.950 . S
C1728 C1729 1.349 . S
C1728 C1730 1.327 . S
C1728 H1753 0.950 . S
C1729 C1728 1.349 . S
C1729 C1745 1.349 . S
C1730 C1728 1.327 . S
C1730 C1749 1.429 . S
C1730 H1754 0.950 . S
C1731 C1748 1.574 . S
C1731 C1750 1.368 . S
C1731 H1755 0.949 . S
H1732 C1736 0.949 . S
C1733 C1734 1.349 . S
C1733 C1735 1.327 . S
C1733 H1756 0.950 . S
C1734 C1733 1.349 . S
C1734 C1746 1.349 . S
C1735 C1733 1.327 . S
C1735 C1751 1.429 . S
C1735 H1757 0.950 . S
C1736 H1732 0.949 . S
C1736 C1744 1.574 . S
C1736 C1752 1.368 . S
H1737 C1745 0.950 . S
H1738 C1743 0.950 . S
H1739 C1744 0.949 . S
H1740 C1746 0.950 . S
H1741 C1747 0.950 . S
H1742 C1748 0.949 . S
C1743 H1738 0.950 . S
C1743 C1745 1.327 . S
C1743 C1749 1.429 . S
C1744 C1736 1.574 . S
C1744 H1739 0.949 . S
C1744 C1750 1.368 . S
C1745 C1729 1.349 . S
C1745 H1737 0.950 . S
C1745 C1743 1.327 . S
C1746 C1734 1.349 . S
C1746 H1740 0.950 . S
C1746 C1747 1.327 . S
C1747 H1741 0.950 . S
C1747 C1746 1.327 . S
C1747 C1751 1.429 . S
C1748 C1731 1.574 . S
C1748 H1742 0.949 . S
C1748 C1752 1.368 . S
C1749 C1730 1.429 . S
C1749 C1743 1.429 . S
C1749 C1750 1.523 . S
C1750 C1731 1.368 . S
C1750 C1744 1.368 . S
C1750 C1749 1.523 . S
C1751 C1735 1.429 . S
C1751 C1747 1.429 . S
C1751 C1752 1.523 . S
C1752 C1736 1.368 . S
C1752 C1748 1.368 . S
C1752 C1751 1.523 . S
H1753 C1728 0.950 . S
H1754 C1730 0.950 . S
H1755 C1731 0.949 . S
H1756 C1733 0.950 . S
H1757 C1735 0.950 . S
C1758 C1759 1.349 . S
C1758 C1760 1.327 . S
C1758 H1783 0.950 . S
C1759 C1758 1.349 . S
C1759 C1775 1.349 . S
C1760 C1758 1.327 . S
C1760 C1779 1.429 . S
C1760 H1784 0.950 . S
C1761 C1778 1.574 . S
C1761 C1780 1.368 . S
C1761 H1785 0.949 . S
H1762 C1766 0.949 . S
C1763 C1764 1.349 . S
C1763 C1765 1.327 . S
C1763 H1786 0.950 . S
C1764 C1763 1.349 . S
C1764 C1776 1.349 . S
C1765 C1763 1.327 . S
C1765 C1781 1.429 . S
C1765 H1787 0.950 . S
C1766 H1762 0.949 . S
C1766 C1774 1.574 . S
C1766 C1782 1.368 . S
H1767 C1775 0.950 . S
H1768 C1773 0.950 . S
H1769 C1774 0.949 . S
H1770 C1776 0.950 . S
H1771 C1777 0.950 . S
H1772 C1778 0.949 . S
C1773 H1768 0.950 . S
C1773 C1775 1.327 . S
C1773 C1779 1.429 . S
C1774 C1766 1.574 . S
C1774 H1769 0.949 . S
C1774 C1780 1.368 . S
C1775 C1759 1.349 . S
C1775 H1767 0.950 . S
C1775 C1773 1.327 . S
C1776 C1764 1.349 . S
C1776 H1770 0.950 . S
C1776 C1777 1.327 . S
C1777 H1771 0.950 . S
C1777 C1776 1.327 . S
C1777 C1781 1.429 . S
C1778 C1761 1.574 . S
C1778 H1772 0.949 . S
C1778 C1782 1.368 . S
C1779 C1760 1.429 . S
C1779 C1773 1.429 . S
C1779 C1780 1.523 . S
C1780 C1761 1.368 . S
C1780 C1774 1.368 . S
C1780 C1779 1.523 . S
C1781 C1765 1.429 . S
C1781 C1777 1.429 . S
C1781 C1782 1.523 . S
C1782 C1766 1.368 . S
C1782 C1778 1.368 . S
C1782 C1781 1.523 . S
H1783 C1758 0.950 . S
H1784 C1760 0.950 . S
H1785 C1761 0.949 . S
H1786 C1763 0.950 . S
H1787 C1765 0.950 . S
C1788 C1789 1.349 . S
C1788 C1790 1.327 . S
C1788 H1813 0.950 . S
C1789 C1788 1.349 . S
C1789 C1805 1.349 . S
C1790 C1788 1.327 . S
C1790 C1809 1.429 . S
C1790 H1814 0.950 . S
C1791 C1808 1.574 . S
C1791 C1810 1.368 . S
C1791 H1815 0.949 . S
H1792 C1796 0.949 . S
C1793 C1794 1.349 . S
C1793 C1795 1.327 . S
C1793 H1816 0.950 . S
C1794 C1793 1.349 . S
C1794 C1806 1.349 . S
C1795 C1793 1.327 . S
C1795 C1811 1.429 . S
C1795 H1817 0.950 . S
C1796 H1792 0.949 . S
C1796 C1804 1.574 . S
C1796 C1812 1.368 . S
H1797 C1805 0.950 . S
H1798 C1803 0.950 . S
H1799 C1804 0.949 . S
H1800 C1806 0.950 . S
H1801 C1807 0.950 . S
H1802 C1808 0.949 . S
C1803 H1798 0.950 . S
C1803 C1805 1.327 . S
C1803 C1809 1.429 . S
C1804 C1796 1.574 . S
C1804 H1799 0.949 . S
C1804 C1810 1.368 . S
C1805 C1789 1.349 . S
C1805 H1797 0.950 . S
C1805 C1803 1.327 . S
C1806 C1794 1.349 . S
C1806 H1800 0.950 . S
C1806 C1807 1.327 . S
C1807 H1801 0.950 . S
C1807 C1806 1.327 . S
C1807 C1811 1.429 . S
C1808 C1791 1.574 . S
C1808 H1802 0.949 . S
C1808 C1812 1.368 . S
C1809 C1790 1.429 . S
C1809 C1803 1.429 . S
C1809 C1810 1.523 . S
C1810 C1791 1.368 . S
C1810 C1804 1.368 . S
C1810 C1809 1.523 . S
C1811 C1795 1.429 . S
C1811 C1807 1.429 . S
C1811 C1812 1.523 . S
C1812 C1796 1.368 . S
C1812 C1808 1.368 . S
C1812 C1811 1.523 . S
H1813 C1788 0.950 . S
H1814 C1790 0.950 . S
H1815 C1791 0.949 . S
H1816 C1793 0.950 . S
H1817 C1795 0.950 . S
C1818 C1819 1.349 . S
C1818 C1820 1.327 . S
C1818 H1843 0.950 . S
C1819 C1818 1.349 . S
C1819 C1835 1.349 . S
C1820 C1818 1.327 . S
C1820 C1839 1.429 . S
C1820 H1844 0.950 . S
C1821 C1838 1.574 . S
C1821 C1840 1.368 . S
C1821 H1845 0.949 . S
H1822 C1826 0.949 . S
C1823 C1824 1.349 . S
C1823 C1825 1.327 . S
C1823 H1846 0.950 . S
C1824 C1823 1.349 . S
C1824 C1836 1.349 . S
C1825 C1823 1.327 . S
C1825 C1841 1.429 . S
C1825 H1847 0.950 . S
C1826 H1822 0.949 . S
C1826 C1834 1.574 . S
C1826 C1842 1.368 . S
H1827 C1835 0.950 . S
H1828 C1833 0.950 . S
H1829 C1834 0.949 . S
H1830 C1836 0.950 . S
H1831 C1837 0.950 . S
H1832 C1838 0.949 . S
C1833 H1828 0.950 . S
C1833 C1835 1.327 . S
C1833 C1839 1.429 . S
C1834 C1826 1.574 . S
C1834 H1829 0.949 . S
C1834 C1840 1.368 . S
C1835 C1819 1.349 . S
C1835 H1827 0.950 . S
C1835 C1833 1.327 . S
C1836 C1824 1.349 . S
C1836 H1830 0.950 . S
C1836 C1837 1.327 . S
C1837 H1831 0.950 . S
C1837 C1836 1.327 . S
C1837 C1841 1.429 . S
C1838 C1821 1.574 . S
C1838 H1832 0.949 . S
C1838 C1842 1.368 . S
C1839 C1820 1.429 . S
C1839 C1833 1.429 . S
C1839 C1840 1.523 . S
C1840 C1821 1.368 . S
C1840 C1834 1.368 . S
C1840 C1839 1.523 . S
C1841 C1825 1.429 . S
C1841 C1837 1.429 . S
C1841 C1842 1.523 . S
C1842 C1826 1.368 . S
C1842 C1838 1.368 . S
C1842 C1841 1.523 . S
H1843 C1818 0.950 . S
H1844 C1820 0.950 . S
H1845 C1821 0.949 . S
H1846 C1823 0.950 . S
H1847 C1825 0.950 . S
C1848 C1849 1.349 . S
C1848 C1850 1.327 . S
C1848 H1873 0.950 . S
C1849 C1848 1.349 . S
C1849 C1865 1.349 . S
C1850 C1848 1.327 . S
C1850 C1869 1.429 . S
C1850 H1874 0.950 . S
C1851 C1868 1.574 . S
C1851 C1870 1.368 . S
C1851 H1875 0.949 . S
H1852 C1856 0.949 . S
C1853 C1854 1.349 . S
C1853 C1855 1.327 . S
C1853 H1876 0.950 . S
C1854 C1853 1.349 . S
C1854 C1866 1.349 . S
C1855 C1853 1.327 . S
C1855 C1871 1.429 . S
C1855 H1877 0.950 . S
C1856 H1852 0.949 . S
C1856 C1864 1.574 . S
C1856 C1872 1.368 . S
H1857 C1865 0.950 . S
H1858 C1863 0.950 . S
H1859 C1864 0.949 . S
H1860 C1866 0.950 . S
H1861 C1867 0.950 . S
H1862 C1868 0.949 . S
C1863 H1858 0.950 . S
C1863 C1865 1.327 . S
C1863 C1869 1.429 . S
C1864 C1856 1.574 . S
C1864 H1859 0.949 . S
C1864 C1870 1.368 . S
C1865 C1849 1.349 . S
C1865 H1857 0.950 . S
C1865 C1863 1.327 . S
C1866 C1854 1.349 . S
C1866 H1860 0.950 . S
C1866 C1867 1.327 . S
C1867 H1861 0.950 . S
C1867 C1866 1.327 . S
C1867 C1871 1.429 . S
C1868 C1851 1.574 . S
C1868 H1862 0.949 . S
C1868 C1872 1.368 . S
C1869 C1850 1.429 . S
C1869 C1863 1.429 . S
C1869 C1870 1.523 . S
C1870 C1851 1.368 . S
C1870 C1864 1.368 . S
C1870 C1869 1.523 . S
C1871 C1855 1.429 . S
C1871 C1867 1.429 . S
C1871 C1872 1.523 . S
C1872 C1856 1.368 . S
C1872 C1868 1.368 . S
C1872 C1871 1.523 . S
H1873 C1848 0.950 . S
H1874 C1850 0.950 . S
H1875 C1851 0.949 . S
H1876 C1853 0.950 . S
H1877 C1855 0.950 . S
C1878 C1879 1.349 . S
C1878 C1880 1.327 . S
C1878 H1903 0.950 . S
C1879 C1878 1.349 . S
C1879 C1895 1.349 . S
C1880 C1878 1.327 . S
C1880 C1899 1.429 . S
C1880 H1904 0.950 . S
C1881 C1898 1.574 . S
C1881 C1900 1.368 . S
C1881 H1905 0.949 . S
H1882 C1886 0.949 . S
C1883 C1884 1.349 . S
C1883 C1885 1.327 . S
C1883 H1906 0.950 . S
C1884 C1883 1.349 . S
C1884 C1896 1.349 . S
C1885 C1883 1.327 . S
C1885 C1901 1.429 . S
C1885 H1907 0.950 . S
C1886 H1882 0.949 . S
C1886 C1894 1.574 . S
C1886 C1902 1.368 . S
H1887 C1895 0.950 . S
H1888 C1893 0.950 . S
H1889 C1894 0.949 . S
H1890 C1896 0.950 . S
H1891 C1897 0.950 . S
H1892 C1898 0.949 . S
C1893 H1888 0.950 . S
C1893 C1895 1.327 . S
C1893 C1899 1.429 . S
C1894 C1886 1.574 . S
C1894 H1889 0.949 . S
C1894 C1900 1.368 . S
C1895 C1879 1.349 . S
C1895 H1887 0.950 . S
C1895 C1893 1.327 . S
C1896 C1884 1.349 . S
C1896 H1890 0.950 . S
C1896 C1897 1.327 . S
C1897 H1891 0.950 . S
C1897 C1896 1.327 . S
C1897 C1901 1.429 . S
C1898 C1881 1.574 . S
C1898 H1892 0.949 . S
C1898 C1902 1.368 . S
C1899 C1880 1.429 . S
C1899 C1893 1.429 . S
C1899 C1900 1.523 . S
C1900 C1881 1.368 . S
C1900 C1894 1.368 . S
C1900 C1899 1.523 . S
C1901 C1885 1.429 . S
C1901 C1897 1.429 . S
C1901 C1902 1.523 . S
C1902 C1886 1.368 . S
C1902 C1898 1.368 . S
C1902 C1901 1.523 . S
H1903 C1878 0.950 . S
H1904 C1880 0.950 . S
H1905 C1881 0.949 . S
H1906 C1883 0.950 . S
H1907 C1885 0.950 . S
C1908 C1909 1.349 . S
C1908 C1910 1.327 . S
C1908 H1933 0.950 . S
C1909 C1908 1.349 . S
C1909 C1925 1.349 . S
C1910 C1908 1.327 . S
C1910 C1929 1.429 . S
C1910 H1934 0.950 . S
C1911 C1928 1.574 . S
C1911 C1930 1.368 . S
C1911 H1935 0.949 . S
H1912 C1916 0.949 . S
C1913 C1914 1.349 . S
C1913 C1915 1.327 . S
C1913 H1936 0.950 . S
C1914 C1913 1.349 . S
C1914 C1926 1.349 . S
C1915 C1913 1.327 . S
C1915 C1931 1.429 . S
C1915 H1937 0.950 . S
C1916 H1912 0.949 . S
C1916 C1924 1.574 . S
C1916 C1932 1.368 . S
H1917 C1925 0.950 . S
H1918 C1923 0.950 . S
H1919 C1924 0.949 . S
H1920 C1926 0.950 . S
H1921 C1927 0.950 . S
H1922 C1928 0.949 . S
C1923 H1918 0.950 . S
C1923 C1925 1.327 . S
C1923 C1929 1.429 . S
C1924 C1916 1.574 . S
C1924 H1919 0.949 . S
C1924 C1930 1.368 . S
C1925 C1909 1.349 . S
C1925 H1917 0.950 . S
C1925 C1923 1.327 . S
C1926 C1914 1.349 . S
C1926 H1920 0.950 . S
C1926 C1927 1.327 . S
C1927 H1921 0.950 . S
C1927 C1926 1.327 . S
C1927 C1931 1.429 . S
C1928 C1911 1.574 . S
C1928 H1922 0.949 . S
C1928 C1932 1.368 . S
C1929 C1910 1.429 . S
C1929 C1923 1.429 . S
C1929 C1930 1.523 . S
C1930 C1911 1.368 . S
C1930 C1924 1.368 . S
C1930 C1929 1.523 . S
C1931 C1915 1.429 . S
C1931 C1927 1.429 . S
C1931 C1932 1.523 . S
C1932 C1916 1.368 . S
C1932 C1928 1.368 . S
C1932 C1931 1.523 . S
H1933 C1908 0.950 . S
H1934 C1910 0.950 . S
H1935 C1911 0.949 . S
H1936 C1913 0.950 . S
H1937 C1915 0.950 . S
C1938 C1939 1.349 . S
C1938 C1940 1.327 . S
C1938 H1963 0.950 . S
C1939 C1938 1.349 . S
C1939 C1955 1.349 . S
C1940 C1938 1.327 . S
C1940 C1959 1.429 . S
C1940 H1964 0.950 . S
C1941 C1958 1.574 . S
C1941 C1960 1.368 . S
C1941 H1965 0.949 . S
H1942 C1946 0.949 . S
C1943 C1944 1.349 . S
C1943 C1945 1.327 . S
C1943 H1966 0.950 . S
C1944 C1943 1.349 . S
C1944 C1956 1.349 . S
C1945 C1943 1.327 . S
C1945 C1961 1.429 . S
C1945 H1967 0.950 . S
C1946 H1942 0.949 . S
C1946 C1954 1.574 . S
C1946 C1962 1.368 . S
H1947 C1955 0.950 . S
H1948 C1953 0.950 . S
H1949 C1954 0.949 . S
H1950 C1956 0.950 . S
H1951 C1957 0.950 . S
H1952 C1958 0.949 . S
C1953 H1948 0.950 . S
C1953 C1955 1.327 . S
C1953 C1959 1.429 . S
C1954 C1946 1.574 . S
C1954 H1949 0.949 . S
C1954 C1960 1.368 . S
C1955 C1939 1.349 . S
C1955 H1947 0.950 . S
C1955 C1953 1.327 . S
C1956 C1944 1.349 . S
C1956 H1950 0.950 . S
C1956 C1957 1.327 . S
C1957 H1951 0.950 . S
C1957 C1956 1.327 . S
C1957 C1961 1.429 . S
C1958 C1941 1.574 . S
C1958 H1952 0.949 . S
C1958 C1962 1.368 . S
C1959 C1940 1.429 . S
C1959 C1953 1.429 . S
C1959 C1960 1.523 . S
C1960 C1941 1.368 . S
C1960 C1954 1.368 . S
C1960 C1959 1.523 . S
C1961 C1945 1.429 . S
C1961 C1957 1.429 . S
C1961 C1962 1.523 . S
C1962 C1946 1.368 . S
C1962 C1958 1.368 . S
C1962 C1961 1.523 . S
H1963 C1938 0.950 . S
H1964 C1940 0.950 . S
H1965 C1941 0.949 . S
H1966 C1943 0.950 . S
H1967 C1945 0.950 . S
C1968 C1969 1.349 . S
C1968 C1970 1.327 . S
C1968 H1993 0.950 . S
C1969 C1968 1.349 . S
C1969 C1985 1.349 . S
C1970 C1968 1.327 . S
C1970 C1989 1.429 . S
C1970 H1994 0.950 . S
C1971 C1988 1.574 1_655 S
C1971 C1990 1.368 . S
C1971 H1995 0.949 . S
H1972 C1976 0.949 . S
C1973 C1974 1.349 . S
C1973 C1975 1.327 . S
C1973 H1996 0.950 . S
C1974 C1973 1.349 . S
C1974 C1986 1.349 . S
C1975 C1973 1.327 . S
C1975 C1991 1.429 . S
C1975 H1997 0.950 . S
C1976 H1972 0.949 . S
C1976 C1984 1.574 1_455 S
C1976 C1992 1.368 . S
H1977 C1985 0.950 . S
H1978 C1983 0.950 . S
H1979 C1984 0.949 . S
H1980 C1986 0.950 . S
H1981 C1987 0.950 . S
H1982 C1988 0.949 . S
C1983 H1978 0.950 . S
C1983 C1985 1.327 . S
C1983 C1989 1.429 . S
C1984 C1976 1.574 1_655 S
C1984 H1979 0.949 . S
C1984 C1990 1.368 . S
C1985 C1969 1.349 . S
C1985 H1977 0.950 . S
C1985 C1983 1.327 . S
C1986 C1974 1.349 . S
C1986 H1980 0.950 . S
C1986 C1987 1.327 . S
C1987 H1981 0.950 . S
C1987 C1986 1.327 . S
C1987 C1991 1.429 . S
C1988 C1971 1.574 1_455 S
C1988 H1982 0.949 . S
C1988 C1992 1.368 . S
C1989 C1970 1.429 . S
C1989 C1983 1.429 . S
C1989 C1990 1.523 . S
C1990 C1971 1.368 . S
C1990 C1984 1.368 . S
C1990 C1989 1.523 . S
C1991 C1975 1.429 . S
C1991 C1987 1.429 . S
C1991 C1992 1.523 . S
C1992 C1976 1.368 . S
C1992 C1988 1.368 . S
C1992 C1991 1.523 . S
H1993 C1968 0.950 . S
H1994 C1970 0.950 . S
H1995 C1971 0.949 . S
H1996 C1973 0.950 . S
H1997 C1975 0.950 . S
C1998 C1999 1.349 . S
C1998 C2000 1.327 . S
C1998 H2023 0.950 . S
C1999 C1998 1.349 . S
C1999 C2015 1.349 . S
C2000 C1998 1.327 . S
C2000 C2019 1.429 . S
C2000 H2024 0.950 . S
C2001 C2018 1.574 1_565 S
C2001 C2020 1.368 . S
C2001 H2025 0.949 . S
H2002 C2006 0.949 . S
C2003 C2004 1.349 . S
C2003 C2005 1.327 . S
C2003 H2026 0.950 . S
C2004 C2003 1.349 . S
C2004 C2016 1.349 . S
C2005 C2003 1.327 . S
C2005 C2021 1.429 . S
C2005 H2027 0.950 . S
C2006 H2002 0.949 . S
C2006 C2014 1.574 1_545 S
C2006 C2022 1.368 . S
H2007 C2015 0.950 . S
H2008 C2013 0.950 . S
H2009 C2014 0.949 . S
H2010 C2016 0.950 . S
H2011 C2017 0.950 . S
H2012 C2018 0.949 . S
C2013 H2008 0.950 . S
C2013 C2015 1.327 . S
C2013 C2019 1.429 . S
C2014 C2006 1.574 1_565 S
C2014 H2009 0.949 . S
C2014 C2020 1.368 . S
C2015 C1999 1.349 . S
C2015 H2007 0.950 . S
C2015 C2013 1.327 . S
C2016 C2004 1.349 . S
C2016 H2010 0.950 . S
C2016 C2017 1.327 . S
C2017 H2011 0.950 . S
C2017 C2016 1.327 . S
C2017 C2021 1.429 . S
C2018 C2001 1.574 1_545 S
C2018 H2012 0.949 . S
C2018 C2022 1.368 . S
C2019 C2000 1.429 . S
C2019 C2013 1.429 . S
C2019 C2020 1.523 . S
C2020 C2001 1.368 . S
C2020 C2014 1.368 . S
C2020 C2019 1.523 . S
C2021 C2005 1.429 . S
C2021 C2017 1.429 . S
C2021 C2022 1.523 . S
C2022 C2006 1.368 . S
C2022 C2018 1.368 . S
C2022 C2021 1.523 . S
H2023 C1998 0.950 . S
H2024 C2000 0.950 . S
H2025 C2001 0.949 . S
H2026 C2003 0.950 . S
H2027 C2005 0.950 . S
C2028 C2029 1.349 . S
C2028 C2030 1.327 . S
C2028 H2053 0.950 . S
C2029 C2028 1.349 . S
C2029 C2045 1.349 . S
C2030 C2028 1.327 . S
C2030 C2049 1.429 . S
C2030 H2054 0.950 . S
C2031 C2048 1.574 . S
C2031 C2050 1.368 . S
C2031 H2055 0.949 . S
H2032 C2036 0.949 . S
C2033 C2034 1.349 . S
C2033 C2035 1.327 . S
C2033 H2056 0.950 . S
C2034 C2033 1.349 . S
C2034 C2046 1.349 . S
C2035 C2033 1.327 . S
C2035 C2051 1.429 . S
C2035 H2057 0.950 . S
C2036 H2032 0.949 . S
C2036 C2044 1.574 . S
C2036 C2052 1.368 . S
H2037 C2045 0.950 . S
H2038 C2043 0.950 . S
H2039 C2044 0.949 . S
H2040 C2046 0.950 . S
H2041 C2047 0.950 . S
H2042 C2048 0.949 . S
C2043 H2038 0.950 . S
C2043 C2045 1.327 . S
C2043 C2049 1.429 . S
C2044 C2036 1.574 . S
C2044 H2039 0.949 . S
C2044 C2050 1.368 . S
C2045 C2029 1.349 . S
C2045 H2037 0.950 . S
C2045 C2043 1.327 . S
C2046 C2034 1.349 . S
C2046 H2040 0.950 . S
C2046 C2047 1.327 . S
C2047 H2041 0.950 . S
C2047 C2046 1.327 . S
C2047 C2051 1.429 . S
C2048 C2031 1.574 . S
C2048 H2042 0.949 . S
C2048 C2052 1.368 . S
C2049 C2030 1.429 . S
C2049 C2043 1.429 . S
C2049 C2050 1.523 . S
C2050 C2031 1.368 . S
C2050 C2044 1.368 . S
C2050 C2049 1.523 . S
C2051 C2035 1.429 . S
C2051 C2047 1.429 . S
C2051 C2052 1.523 . S
C2052 C2036 1.368 . S
C2052 C2048 1.368 . S
C2052 C2051 1.523 . S
H2053 C2028 0.950 . S
H2054 C2030 0.950 . S
H2055 C2031 0.949 . S
H2056 C2033 0.950 . S
H2057 C2035 0.950 . S
C2058 C2059 1.349 . S
C2058 C2060 1.327 . S
C2058 H2083 0.950 . S
C2059 C2058 1.349 . S
C2059 C2075 1.349 . S
C2060 C2058 1.327 . S
C2060 C2079 1.429 . S
C2060 H2084 0.950 . S
C2061 C2078 1.574 1_455 S
C2061 C2080 1.368 . S
C2061 H2085 0.949 . S
H2062 C2066 0.949 . S
C2063 C2064 1.349 . S
C2063 C2065 1.327 . S
C2063 H2086 0.950 . S
C2064 C2063 1.349 . S
C2064 C2076 1.349 . S
C2065 C2063 1.327 . S
C2065 C2081 1.429 . S
C2065 H2087 0.950 . S
C2066 H2062 0.949 . S
C2066 C2074 1.574 1_655 S
C2066 C2082 1.368 . S
H2067 C2075 0.950 . S
H2068 C2073 0.950 . S
H2069 C2074 0.949 . S
H2070 C2076 0.950 . S
H2071 C2077 0.950 . S
H2072 C2078 0.949 . S
C2073 H2068 0.950 . S
C2073 C2075 1.327 . S
C2073 C2079 1.429 . S
C2074 C2066 1.574 1_455 S
C2074 H2069 0.949 . S
C2074 C2080 1.368 . S
C2075 C2059 1.349 . S
C2075 H2067 0.950 . S
C2075 C2073 1.327 . S
C2076 C2064 1.349 . S
C2076 H2070 0.950 . S
C2076 C2077 1.327 . S
C2077 H2071 0.950 . S
C2077 C2076 1.327 . S
C2077 C2081 1.429 . S
C2078 C2061 1.574 1_655 S
C2078 H2072 0.949 . S
C2078 C2082 1.368 . S
C2079 C2060 1.429 . S
C2079 C2073 1.429 . S
C2079 C2080 1.523 . S
C2080 C2061 1.368 . S
C2080 C2074 1.368 . S
C2080 C2079 1.523 . S
C2081 C2065 1.429 . S
C2081 C2077 1.429 . S
C2081 C2082 1.523 . S
C2082 C2066 1.368 . S
C2082 C2078 1.368 . S
C2082 C2081 1.523 . S
H2083 C2058 0.950 . S
H2084 C2060 0.950 . S
H2085 C2061 0.949 . S
H2086 C2063 0.950 . S
H2087 C2065 0.950 . S
C2088 C2089 1.349 . S
C2088 C2090 1.327 . S
C2088 H2113 0.950 . S
C2089 C2088 1.349 . S
C2089 C2105 1.349 . S
C2090 C2088 1.327 . S
C2090 C2109 1.429 . S
C2090 H2114 0.950 . S
C2091 C2108 1.574 1_545 S
C2091 C2110 1.368 . S
C2091 H2115 0.949 . S
H2092 C2096 0.949 . S
C2093 C2094 1.349 . S
C2093 C2095 1.327 . S
C2093 H2116 0.950 . S
C2094 C2093 1.349 . S
C2094 C2106 1.349 . S
C2095 C2093 1.327 . S
C2095 C2111 1.429 . S
C2095 H2117 0.950 . S
C2096 H2092 0.949 . S
C2096 C2104 1.574 1_565 S
C2096 C2112 1.368 . S
H2097 C2105 0.950 . S
H2098 C2103 0.950 . S
H2099 C2104 0.949 . S
H2100 C2106 0.950 . S
H2101 C2107 0.950 . S
H2102 C2108 0.949 . S
C2103 H2098 0.950 . S
C2103 C2105 1.327 . S
C2103 C2109 1.429 . S
C2104 C2096 1.574 1_545 S
C2104 H2099 0.949 . S
C2104 C2110 1.368 . S
C2105 C2089 1.349 . S
C2105 H2097 0.950 . S
C2105 C2103 1.327 . S
C2106 C2094 1.349 . S
C2106 H2100 0.950 . S
C2106 C2107 1.327 . S
C2107 H2101 0.950 . S
C2107 C2106 1.327 . S
C2107 C2111 1.429 . S
C2108 C2091 1.574 1_565 S
C2108 H2102 0.949 . S
C2108 C2112 1.368 . S
C2109 C2090 1.429 . S
C2109 C2103 1.429 . S
C2109 C2110 1.523 . S
C2110 C2091 1.368 . S
C2110 C2104 1.368 . S
C2110 C2109 1.523 . S
C2111 C2095 1.429 . S
C2111 C2107 1.429 . S
C2111 C2112 1.523 . S
C2112 C2096 1.368 . S
C2112 C2108 1.368 . S
C2112 C2111 1.523 . S
H2113 C2088 0.950 . S
H2114 C2090 0.950 . S
H2115 C2091 0.949 . S
H2116 C2093 0.950 . S
H2117 C2095 0.950 . S
C2118 C2119 1.349 . S
C2118 C2120 1.327 . S
C2118 H2143 0.950 . S
C2119 C2118 1.349 . S
C2119 C2135 1.349 . S
C2120 C2118 1.327 . S
C2120 C2139 1.429 . S
C2120 H2144 0.950 . S
C2121 C2138 1.574 . S
C2121 C2140 1.368 . S
C2121 H2145 0.949 . S
H2122 C2126 0.949 . S
C2123 C2124 1.349 . S
C2123 C2125 1.327 . S
C2123 H2146 0.950 . S
C2124 C2123 1.349 . S
C2124 C2136 1.349 . S
C2125 C2123 1.327 . S
C2125 C2141 1.429 . S
C2125 H2147 0.950 . S
C2126 H2122 0.949 . S
C2126 C2134 1.574 . S
C2126 C2142 1.368 . S
H2127 C2135 0.950 . S
H2128 C2133 0.950 . S
H2129 C2134 0.949 . S
H2130 C2136 0.950 . S
H2131 C2137 0.950 . S
H2132 C2138 0.949 . S
C2133 H2128 0.950 . S
C2133 C2135 1.327 . S
C2133 C2139 1.429 . S
C2134 C2126 1.574 . S
C2134 H2129 0.949 . S
C2134 C2140 1.368 . S
C2135 C2119 1.349 . S
C2135 H2127 0.950 . S
C2135 C2133 1.327 . S
C2136 C2124 1.349 . S
C2136 H2130 0.950 . S
C2136 C2137 1.327 . S
C2137 H2131 0.950 . S
C2137 C2136 1.327 . S
C2137 C2141 1.429 . S
C2138 C2121 1.574 . S
C2138 H2132 0.949 . S
C2138 C2142 1.368 . S
C2139 C2120 1.429 . S
C2139 C2133 1.429 . S
C2139 C2140 1.523 . S
C2140 C2121 1.368 . S
C2140 C2134 1.368 . S
C2140 C2139 1.523 . S
C2141 C2125 1.429 . S
C2141 C2137 1.429 . S
C2141 C2142 1.523 . S
C2142 C2126 1.368 . S
C2142 C2138 1.368 . S
C2142 C2141 1.523 . S
H2143 C2118 0.950 . S
H2144 C2120 0.950 . S
H2145 C2121 0.949 . S
H2146 C2123 0.950 . S
H2147 C2125 0.950 . S
C2148 C2149 1.349 . S
C2148 C2150 1.327 . S
C2148 H2173 0.950 . S
C2149 C2148 1.349 . S
C2149 C2165 1.349 . S
C2150 C2148 1.327 . S
C2150 C2169 1.429 . S
C2150 H2174 0.950 . S
C2151 C2168 1.574 1_565 S
C2151 C2170 1.368 . S
C2151 H2175 0.949 . S
H2152 C2156 0.949 . S
C2153 C2154 1.349 . S
C2153 C2155 1.327 . S
C2153 H2176 0.950 . S
C2154 C2153 1.349 . S
C2154 C2166 1.349 . S
C2155 C2153 1.327 . S
C2155 C2171 1.429 . S
C2155 H2177 0.950 . S
C2156 H2152 0.949 . S
C2156 C2164 1.574 1_545 S
C2156 C2172 1.368 . S
H2157 C2165 0.950 . S
H2158 C2163 0.950 . S
H2159 C2164 0.949 . S
H2160 C2166 0.950 . S
H2161 C2167 0.950 . S
H2162 C2168 0.949 . S
C2163 H2158 0.950 . S
C2163 C2165 1.327 . S
C2163 C2169 1.429 . S
C2164 C2156 1.574 1_565 S
C2164 H2159 0.949 . S
C2164 C2170 1.368 . S
C2165 C2149 1.349 . S
C2165 H2157 0.950 . S
C2165 C2163 1.327 . S
C2166 C2154 1.349 . S
C2166 H2160 0.950 . S
C2166 C2167 1.327 . S
C2167 H2161 0.950 . S
C2167 C2166 1.327 . S
C2167 C2171 1.429 . S
C2168 C2151 1.574 1_545 S
C2168 H2162 0.949 . S
C2168 C2172 1.368 . S
C2169 C2150 1.429 . S
C2169 C2163 1.429 . S
C2169 C2170 1.523 . S
C2170 C2151 1.368 . S
C2170 C2164 1.368 . S
C2170 C2169 1.523 . S
C2171 C2155 1.429 . S
C2171 C2167 1.429 . S
C2171 C2172 1.523 . S
C2172 C2156 1.368 . S
C2172 C2168 1.368 . S
C2172 C2171 1.523 . S
H2173 C2148 0.950 . S
H2174 C2150 0.950 . S
H2175 C2151 0.949 . S
H2176 C2153 0.950 . S
H2177 C2155 0.950 . S
C2178 C2179 1.349 . S
C2178 C2180 1.327 . S
C2178 H2203 0.950 . S
C2179 C2178 1.349 . S
C2179 C2195 1.349 . S
C2180 C2178 1.327 . S
C2180 C2199 1.429 . S
C2180 H2204 0.950 . S
C2181 C2198 1.574 . S
C2181 C2200 1.368 . S
C2181 H2205 0.949 . S
H2182 C2186 0.949 . S
C2183 C2184 1.349 . S
C2183 C2185 1.327 . S
C2183 H2206 0.950 . S
C2184 C2183 1.349 . S
C2184 C2196 1.349 . S
C2185 C2183 1.327 . S
C2185 C2201 1.429 . S
C2185 H2207 0.950 . S
C2186 H2182 0.949 . S
C2186 C2194 1.574 . S
C2186 C2202 1.368 . S
H2187 C2195 0.950 . S
H2188 C2193 0.950 . S
H2189 C2194 0.949 . S
H2190 C2196 0.950 . S
H2191 C2197 0.950 . S
H2192 C2198 0.949 . S
C2193 H2188 0.950 . S
C2193 C2195 1.327 . S
C2193 C2199 1.429 . S
C2194 C2186 1.574 . S
C2194 H2189 0.949 . S
C2194 C2200 1.368 . S
C2195 C2179 1.349 . S
C2195 H2187 0.950 . S
C2195 C2193 1.327 . S
C2196 C2184 1.349 . S
C2196 H2190 0.950 . S
C2196 C2197 1.327 . S
C2197 H2191 0.950 . S
C2197 C2196 1.327 . S
C2197 C2201 1.429 . S
C2198 C2181 1.574 . S
C2198 H2192 0.949 . S
C2198 C2202 1.368 . S
C2199 C2180 1.429 . S
C2199 C2193 1.429 . S
C2199 C2200 1.523 . S
C2200 C2181 1.368 . S
C2200 C2194 1.368 . S
C2200 C2199 1.523 . S
C2201 C2185 1.429 . S
C2201 C2197 1.429 . S
C2201 C2202 1.523 . S
C2202 C2186 1.368 . S
C2202 C2198 1.368 . S
C2202 C2201 1.523 . S
H2203 C2178 0.950 . S
H2204 C2180 0.950 . S
H2205 C2181 0.949 . S
H2206 C2183 0.950 . S
H2207 C2185 0.950 . S
C2208 C2209 1.349 . S
C2208 C2210 1.327 . S
C2208 H2233 0.950 . S
C2209 C2208 1.349 . S
C2209 C2225 1.349 . S
C2210 C2208 1.327 . S
C2210 C2229 1.429 . S
C2210 H2234 0.950 . S
C2211 C2228 1.574 1_655 S
C2211 C2230 1.368 . S
C2211 H2235 0.949 . S
H2212 C2216 0.949 . S
C2213 C2214 1.349 . S
C2213 C2215 1.327 . S
C2213 H2236 0.950 . S
C2214 C2213 1.349 . S
C2214 C2226 1.349 . S
C2215 C2213 1.327 . S
C2215 C2231 1.429 . S
C2215 H2237 0.950 . S
C2216 H2212 0.949 . S
C2216 C2224 1.574 1_455 S
C2216 C2232 1.368 . S
H2217 C2225 0.950 . S
H2218 C2223 0.950 . S
H2219 C2224 0.949 . S
H2220 C2226 0.950 . S
H2221 C2227 0.950 . S
H2222 C2228 0.949 . S
C2223 H2218 0.950 . S
C2223 C2225 1.327 . S
C2223 C2229 1.429 . S
C2224 C2216 1.574 1_655 S
C2224 H2219 0.949 . S
C2224 C2230 1.368 . S
C2225 C2209 1.349 . S
C2225 H2217 0.950 . S
C2225 C2223 1.327 . S
C2226 C2214 1.349 . S
C2226 H2220 0.950 . S
C2226 C2227 1.327 . S
C2227 H2221 0.950 . S
C2227 C2226 1.327 . S
C2227 C2231 1.429 . S
C2228 C2211 1.574 1_455 S
C2228 H2222 0.949 . S
C2228 C2232 1.368 . S
C2229 C2210 1.429 . S
C2229 C2223 1.429 . S
C2229 C2230 1.523 . S
C2230 C2211 1.368 . S
C2230 C2224 1.368 . S
C2230 C2229 1.523 . S
C2231 C2215 1.429 . S
C2231 C2227 1.429 . S
C2231 C2232 1.523 . S
C2232 C2216 1.368 . S
C2232 C2228 1.368 . S
C2232 C2231 1.523 . S
H2233 C2208 0.950 . S
H2234 C2210 0.950 . S
H2235 C2211 0.949 . S
H2236 C2213 0.950 . S
H2237 C2215 0.950 . S
C2238 C2239 1.349 . S
C2238 C2240 1.327 . S
C2238 H2263 0.950 . S
C2239 C2238 1.349 . S
C2239 C2255 1.349 . S
C2240 C2238 1.327 . S
C2240 C2259 1.429 . S
C2240 H2264 0.950 . S
C2241 C2258 1.574 1_565 S
C2241 C2260 1.368 . S
C2241 H2265 0.949 . S
H2242 C2246 0.949 . S
C2243 C2244 1.349 . S
C2243 C2245 1.327 . S
C2243 H2266 0.950 . S
C2244 C2243 1.349 . S
C2244 C2256 1.349 . S
C2245 C2243 1.327 . S
C2245 C2261 1.429 . S
C2245 H2267 0.950 . S
C2246 H2242 0.949 . S
C2246 C2254 1.574 1_545 S
C2246 C2262 1.368 . S
H2247 C2255 0.950 . S
H2248 C2253 0.950 . S
H2249 C2254 0.949 . S
H2250 C2256 0.950 . S
H2251 C2257 0.950 . S
H2252 C2258 0.949 . S
C2253 H2248 0.950 . S
C2253 C2255 1.327 . S
C2253 C2259 1.429 . S
C2254 C2246 1.574 1_565 S
C2254 H2249 0.949 . S
C2254 C2260 1.368 . S
C2255 C2239 1.349 . S
C2255 H2247 0.950 . S
C2255 C2253 1.327 . S
C2256 C2244 1.349 . S
C2256 H2250 0.950 . S
C2256 C2257 1.327 . S
C2257 H2251 0.950 . S
C2257 C2256 1.327 . S
C2257 C2261 1.429 . S
C2258 C2241 1.574 1_545 S
C2258 H2252 0.949 . S
C2258 C2262 1.368 . S
C2259 C2240 1.429 . S
C2259 C2253 1.429 . S
C2259 C2260 1.523 . S
C2260 C2241 1.368 . S
C2260 C2254 1.368 . S
C2260 C2259 1.523 . S
C2261 C2245 1.429 . S
C2261 C2257 1.429 . S
C2261 C2262 1.523 . S
C2262 C2246 1.368 . S
C2262 C2258 1.368 . S
C2262 C2261 1.523 . S
H2263 C2238 0.950 . S
H2264 C2240 0.950 . S
H2265 C2241 0.949 . S
H2266 C2243 0.950 . S
H2267 C2245 0.950 . S
C2268 C2269 1.349 . S
C2268 C2270 1.327 . S
C2268 H2293 0.950 . S
C2269 C2268 1.349 . S
C2269 C2285 1.349 . S
C2270 C2268 1.327 . S
C2270 C2289 1.429 . S
C2270 H2294 0.950 . S
C2271 C2288 1.574 . S
C2271 C2290 1.368 . S
C2271 H2295 0.949 . S
H2272 C2276 0.949 . S
C2273 C2274 1.349 . S
C2273 C2275 1.327 . S
C2273 H2296 0.950 . S
C2274 C2273 1.349 . S
C2274 C2286 1.349 . S
C2275 C2273 1.327 . S
C2275 C2291 1.429 . S
C2275 H2297 0.950 . S
C2276 H2272 0.949 . S
C2276 C2284 1.574 . S
C2276 C2292 1.368 . S
H2277 C2285 0.950 . S
H2278 C2283 0.950 . S
H2279 C2284 0.949 . S
H2280 C2286 0.950 . S
H2281 C2287 0.950 . S
H2282 C2288 0.949 . S
C2283 H2278 0.950 . S
C2283 C2285 1.327 . S
C2283 C2289 1.429 . S
C2284 C2276 1.574 . S
C2284 H2279 0.949 . S
C2284 C2290 1.368 . S
C2285 C2269 1.349 . S
C2285 H2277 0.950 . S
C2285 C2283 1.327 . S
C2286 C2274 1.349 . S
C2286 H2280 0.950 . S
C2286 C2287 1.327 . S
C2287 H2281 0.950 . S
C2287 C2286 1.327 . S
C2287 C2291 1.429 . S
C2288 C2271 1.574 . S
C2288 H2282 0.949 . S
C2288 C2292 1.368 . S
C2289 C2270 1.429 . S
C2289 C2283 1.429 . S
C2289 C2290 1.523 . S
C2290 C2271 1.368 . S
C2290 C2284 1.368 . S
C2290 C2289 1.523 . S
C2291 C2275 1.429 . S
C2291 C2287 1.429 . S
C2291 C2292 1.523 . S
C2292 C2276 1.368 . S
C2292 C2288 1.368 . S
C2292 C2291 1.523 . S
H2293 C2268 0.950 . S
H2294 C2270 0.950 . S
H2295 C2271 0.949 . S
H2296 C2273 0.950 . S
H2297 C2275 0.950 . S
C2298 C2299 1.349 . S
C2298 C2300 1.327 . S
C2298 H2323 0.950 . S
C2299 C2298 1.349 . S
C2299 C2315 1.349 . S
C2300 C2298 1.327 . S
C2300 C2319 1.429 . S
C2300 H2324 0.950 . S
C2301 C2318 1.574 1_655 S
C2301 C2320 1.368 . S
C2301 H2325 0.949 . S
H2302 C2306 0.949 . S
C2303 C2304 1.349 . S
C2303 C2305 1.327 . S
C2303 H2326 0.950 . S
C2304 C2303 1.349 . S
C2304 C2316 1.349 . S
C2305 C2303 1.327 . S
C2305 C2321 1.429 . S
C2305 H2327 0.950 . S
C2306 H2302 0.949 . S
C2306 C2314 1.574 1_455 S
C2306 C2322 1.368 . S
H2307 C2315 0.950 . S
H2308 C2313 0.950 . S
H2309 C2314 0.949 . S
H2310 C2316 0.950 . S
H2311 C2317 0.950 . S
H2312 C2318 0.949 . S
C2313 H2308 0.950 . S
C2313 C2315 1.327 . S
C2313 C2319 1.429 . S
C2314 C2306 1.574 1_655 S
C2314 H2309 0.949 . S
C2314 C2320 1.368 . S
C2315 C2299 1.349 . S
C2315 H2307 0.950 . S
C2315 C2313 1.327 . S
C2316 C2304 1.349 . S
C2316 H2310 0.950 . S
C2316 C2317 1.327 . S
C2317 H2311 0.950 . S
C2317 C2316 1.327 . S
C2317 C2321 1.429 . S
C2318 C2301 1.574 1_455 S
C2318 H2312 0.949 . S
C2318 C2322 1.368 . S
C2319 C2300 1.429 . S
C2319 C2313 1.429 . S
C2319 C2320 1.523 . S
C2320 C2301 1.368 . S
C2320 C2314 1.368 . S
C2320 C2319 1.523 . S
C2321 C2305 1.429 . S
C2321 C2317 1.429 . S
C2321 C2322 1.523 . S
C2322 C2306 1.368 . S
C2322 C2318 1.368 . S
C2322 C2321 1.523 . S
H2323 C2298 0.950 . S
H2324 C2300 0.950 . S
H2325 C2301 0.949 . S
H2326 C2303 0.950 . S
H2327 C2305 0.950 . S
C2328 C2329 1.349 . S
C2328 C2330 1.327 . S
C2328 H2353 0.950 . S
C2329 C2328 1.349 . S
C2329 C2345 1.349 . S
C2330 C2328 1.327 . S
C2330 C2349 1.429 . S
C2330 H2354 0.950 . S
C2331 C2348 1.574 1_556 S
C2331 C2350 1.368 . S
C2331 H2355 0.949 . S
H2332 C2336 0.949 . S
C2333 C2334 1.349 . S
C2333 C2335 1.327 . S
C2333 H2356 0.950 . S
C2334 C2333 1.349 . S
C2334 C2346 1.349 . S
C2335 C2333 1.327 . S
C2335 C2351 1.429 . S
C2335 H2357 0.950 . S
C2336 H2332 0.949 . S
C2336 C2344 1.574 1_554 S
C2336 C2352 1.368 . S
H2337 C2345 0.950 . S
H2338 C2343 0.950 . S
H2339 C2344 0.949 . S
H2340 C2346 0.950 . S
H2341 C2347 0.950 . S
H2342 C2348 0.949 . S
C2343 H2338 0.950 . S
C2343 C2345 1.327 . S
C2343 C2349 1.429 . S
C2344 C2336 1.574 1_556 S
C2344 H2339 0.949 . S
C2344 C2350 1.368 . S
C2345 C2329 1.349 . S
C2345 H2337 0.950 . S
C2345 C2343 1.327 . S
C2346 C2334 1.349 . S
C2346 H2340 0.950 . S
C2346 C2347 1.327 . S
C2347 H2341 0.950 . S
C2347 C2346 1.327 . S
C2347 C2351 1.429 . S
C2348 C2331 1.574 1_554 S
C2348 H2342 0.949 . S
C2348 C2352 1.368 . S
C2349 C2330 1.429 . S
C2349 C2343 1.429 . S
C2349 C2350 1.523 . S
C2350 C2331 1.368 . S
C2350 C2344 1.368 . S
C2350 C2349 1.523 . S
C2351 C2335 1.429 . S
C2351 C2347 1.429 . S
C2351 C2352 1.523 . S
C2352 C2336 1.368 . S
C2352 C2348 1.368 . S
C2352 C2351 1.523 . S
H2353 C2328 0.950 . S
H2354 C2330 0.950 . S
H2355 C2331 0.949 . S
H2356 C2333 0.950 . S
H2357 C2335 0.950 . S
C2358 C2359 1.349 . S
C2358 C2360 1.327 . S
C2358 H2383 0.950 . S
C2359 C2358 1.349 . S
C2359 C2375 1.349 . S
C2360 C2358 1.327 . S
C2360 C2379 1.429 . S
C2360 H2384 0.950 . S
C2361 C2378 1.574 . S
C2361 C2380 1.368 . S
C2361 H2385 0.949 . S
H2362 C2366 0.949 . S
C2363 C2364 1.349 . S
C2363 C2365 1.327 . S
C2363 H2386 0.950 . S
C2364 C2363 1.349 . S
C2364 C2376 1.349 . S
C2365 C2363 1.327 . S
C2365 C2381 1.429 . S
C2365 H2387 0.950 . S
C2366 H2362 0.949 . S
C2366 C2374 1.574 . S
C2366 C2382 1.368 . S
H2367 C2375 0.950 . S
H2368 C2373 0.950 . S
H2369 C2374 0.949 . S
H2370 C2376 0.950 . S
H2371 C2377 0.950 . S
H2372 C2378 0.949 . S
C2373 H2368 0.950 . S
C2373 C2375 1.327 . S
C2373 C2379 1.429 . S
C2374 C2366 1.574 . S
C2374 H2369 0.949 . S
C2374 C2380 1.368 . S
C2375 C2359 1.349 . S
C2375 H2367 0.950 . S
C2375 C2373 1.327 . S
C2376 C2364 1.349 . S
C2376 H2370 0.950 . S
C2376 C2377 1.327 . S
C2377 H2371 0.950 . S
C2377 C2376 1.327 . S
C2377 C2381 1.429 . S
C2378 C2361 1.574 . S
C2378 H2372 0.949 . S
C2378 C2382 1.368 . S
C2379 C2360 1.429 . S
C2379 C2373 1.429 . S
C2379 C2380 1.523 . S
C2380 C2361 1.368 . S
C2380 C2374 1.368 . S
C2380 C2379 1.523 . S
C2381 C2365 1.429 . S
C2381 C2377 1.429 . S
C2381 C2382 1.523 . S
C2382 C2366 1.368 . S
C2382 C2378 1.368 . S
C2382 C2381 1.523 . S
H2383 C2358 0.950 . S
H2384 C2360 0.950 . S
H2385 C2361 0.949 . S
H2386 C2363 0.950 . S
H2387 C2365 0.950 . S
C2388 C2389 1.349 . S
C2388 C2390 1.327 . S
C2388 H2413 0.950 . S
C2389 C2388 1.349 . S
C2389 C2405 1.349 . S
C2390 C2388 1.327 . S
C2390 C2409 1.429 . S
C2390 H2414 0.950 . S
C2391 C2408 1.574 1_554 S
C2391 C2410 1.368 . S
C2391 H2415 0.949 . S
H2392 C2396 0.949 . S
C2393 C2394 1.349 . S
C2393 C2395 1.327 . S
C2393 H2416 0.950 . S
C2394 C2393 1.349 . S
C2394 C2406 1.349 . S
C2395 C2393 1.327 . S
C2395 C2411 1.429 . S
C2395 H2417 0.950 . S
C2396 H2392 0.949 . S
C2396 C2404 1.574 1_556 S
C2396 C2412 1.368 . S
H2397 C2405 0.950 . S
H2398 C2403 0.950 . S
H2399 C2404 0.949 . S
H2400 C2406 0.950 . S
H2401 C2407 0.950 . S
H2402 C2408 0.949 . S
C2403 H2398 0.950 . S
C2403 C2405 1.327 . S
C2403 C2409 1.429 . S
C2404 C2396 1.574 1_554 S
C2404 H2399 0.949 . S
C2404 C2410 1.368 . S
C2405 C2389 1.349 . S
C2405 H2397 0.950 . S
C2405 C2403 1.327 . S
C2406 C2394 1.349 . S
C2406 H2400 0.950 . S
C2406 C2407 1.327 . S
C2407 H2401 0.950 . S
C2407 C2406 1.327 . S
C2407 C2411 1.429 . S
C2408 C2391 1.574 1_556 S
C2408 H2402 0.949 . S
C2408 C2412 1.368 . S
C2409 C2390 1.429 . S
C2409 C2403 1.429 . S
C2409 C2410 1.523 . S
C2410 C2391 1.368 . S
C2410 C2404 1.368 . S
C2410 C2409 1.523 . S
C2411 C2395 1.429 . S
C2411 C2407 1.429 . S
C2411 C2412 1.523 . S
C2412 C2396 1.368 . S
C2412 C2408 1.368 . S
C2412 C2411 1.523 . S
H2413 C2388 0.950 . S
H2414 C2390 0.950 . S
H2415 C2391 0.949 . S
H2416 C2393 0.950 . S
H2417 C2395 0.950 . S
C2418 C2419 1.349 . S
C2418 C2420 1.327 . S
C2418 H2443 0.950 . S
C2419 C2418 1.349 . S
C2419 C2435 1.349 . S
C2420 C2418 1.327 . S
C2420 C2439 1.429 . S
C2420 H2444 0.950 . S
C2421 C2438 1.574 . S
C2421 C2440 1.368 . S
C2421 H2445 0.949 . S
H2422 C2426 0.949 . S
C2423 C2424 1.349 . S
C2423 C2425 1.327 . S
C2423 H2446 0.950 . S
C2424 C2423 1.349 . S
C2424 C2436 1.349 . S
C2425 C2423 1.327 . S
C2425 C2441 1.429 . S
C2425 H2447 0.950 . S
C2426 H2422 0.949 . S
C2426 C2434 1.574 . S
C2426 C2442 1.368 . S
H2427 C2435 0.950 . S
H2428 C2433 0.950 . S
H2429 C2434 0.949 . S
H2430 C2436 0.950 . S
H2431 C2437 0.950 . S
H2432 C2438 0.949 . S
C2433 H2428 0.950 . S
C2433 C2435 1.327 . S
C2433 C2439 1.429 . S
C2434 C2426 1.574 . S
C2434 H2429 0.949 . S
C2434 C2440 1.368 . S
C2435 C2419 1.349 . S
C2435 H2427 0.950 . S
C2435 C2433 1.327 . S
C2436 C2424 1.349 . S
C2436 H2430 0.950 . S
C2436 C2437 1.327 . S
C2437 H2431 0.950 . S
C2437 C2436 1.327 . S
C2437 C2441 1.429 . S
C2438 C2421 1.574 . S
C2438 H2432 0.949 . S
C2438 C2442 1.368 . S
C2439 C2420 1.429 . S
C2439 C2433 1.429 . S
C2439 C2440 1.523 . S
C2440 C2421 1.368 . S
C2440 C2434 1.368 . S
C2440 C2439 1.523 . S
C2441 C2425 1.429 . S
C2441 C2437 1.429 . S
C2441 C2442 1.523 . S
C2442 C2426 1.368 . S
C2442 C2438 1.368 . S
C2442 C2441 1.523 . S
H2443 C2418 0.950 . S
H2444 C2420 0.950 . S
H2445 C2421 0.949 . S
H2446 C2423 0.950 . S
H2447 C2425 0.950 . S
C2448 C2449 1.349 . S
C2448 C2450 1.327 . S
C2448 H2473 0.950 . S
C2449 C2448 1.349 . S
C2449 C2465 1.349 . S
C2450 C2448 1.327 . S
C2450 C2469 1.429 . S
C2450 H2474 0.950 . S
C2451 C2468 1.574 1_556 S
C2451 C2470 1.368 . S
C2451 H2475 0.949 . S
H2452 C2456 0.949 . S
C2453 C2454 1.349 . S
C2453 C2455 1.327 . S
C2453 H2476 0.950 . S
C2454 C2453 1.349 . S
C2454 C2466 1.349 . S
C2455 C2453 1.327 . S
C2455 C2471 1.429 . S
C2455 H2477 0.950 . S
C2456 H2452 0.949 . S
C2456 C2464 1.574 1_554 S
C2456 C2472 1.368 . S
H2457 C2465 0.950 . S
H2458 C2463 0.950 . S
H2459 C2464 0.949 . S
H2460 C2466 0.950 . S
H2461 C2467 0.950 . S
H2462 C2468 0.949 . S
C2463 H2458 0.950 . S
C2463 C2465 1.327 . S
C2463 C2469 1.429 . S
C2464 C2456 1.574 1_556 S
C2464 H2459 0.949 . S
C2464 C2470 1.368 . S
C2465 C2449 1.349 . S
C2465 H2457 0.950 . S
C2465 C2463 1.327 . S
C2466 C2454 1.349 . S
C2466 H2460 0.950 . S
C2466 C2467 1.327 . S
C2467 H2461 0.950 . S
C2467 C2466 1.327 . S
C2467 C2471 1.429 . S
C2468 C2451 1.574 1_554 S
C2468 H2462 0.949 . S
C2468 C2472 1.368 . S
C2469 C2450 1.429 . S
C2469 C2463 1.429 . S
C2469 C2470 1.523 . S
C2470 C2451 1.368 . S
C2470 C2464 1.368 . S
C2470 C2469 1.523 . S
C2471 C2455 1.429 . S
C2471 C2467 1.429 . S
C2471 C2472 1.523 . S
C2472 C2456 1.368 . S
C2472 C2468 1.368 . S
C2472 C2471 1.523 . S
H2473 C2448 0.950 . S
H2474 C2450 0.950 . S
H2475 C2451 0.949 . S
H2476 C2453 0.950 . S
H2477 C2455 0.950 . S
C2478 C2479 1.349 . S
C2478 C2480 1.327 . S
C2478 H2503 0.950 . S
C2479 C2478 1.349 . S
C2479 C2495 1.349 . S
C2480 C2478 1.327 . S
C2480 C2499 1.429 . S
C2480 H2504 0.950 . S
C2481 C2498 1.574 . S
C2481 C2500 1.368 . S
C2481 H2505 0.949 . S
H2482 C2486 0.949 . S
C2483 C2484 1.349 . S
C2483 C2485 1.327 . S
C2483 H2506 0.950 . S
C2484 C2483 1.349 . S
C2484 C2496 1.349 . S
C2485 C2483 1.327 . S
C2485 C2501 1.429 . S
C2485 H2507 0.950 . S
C2486 H2482 0.949 . S
C2486 C2494 1.574 . S
C2486 C2502 1.368 . S
H2487 C2495 0.950 . S
H2488 C2493 0.950 . S
H2489 C2494 0.949 . S
H2490 C2496 0.950 . S
H2491 C2497 0.950 . S
H2492 C2498 0.949 . S
C2493 H2488 0.950 . S
C2493 C2495 1.327 . S
C2493 C2499 1.429 . S
C2494 C2486 1.574 . S
C2494 H2489 0.949 . S
C2494 C2500 1.368 . S
C2495 C2479 1.349 . S
C2495 H2487 0.950 . S
C2495 C2493 1.327 . S
C2496 C2484 1.349 . S
C2496 H2490 0.950 . S
C2496 C2497 1.327 . S
C2497 H2491 0.950 . S
C2497 C2496 1.327 . S
C2497 C2501 1.429 . S
C2498 C2481 1.574 . S
C2498 H2492 0.949 . S
C2498 C2502 1.368 . S
C2499 C2480 1.429 . S
C2499 C2493 1.429 . S
C2499 C2500 1.523 . S
C2500 C2481 1.368 . S
C2500 C2494 1.368 . S
C2500 C2499 1.523 . S
C2501 C2485 1.429 . S
C2501 C2497 1.429 . S
C2501 C2502 1.523 . S
C2502 C2486 1.368 . S
C2502 C2498 1.368 . S
C2502 C2501 1.523 . S
H2503 C2478 0.950 . S
H2504 C2480 0.950 . S
H2505 C2481 0.949 . S
H2506 C2483 0.950 . S
H2507 C2485 0.950 . S
C2508 C2509 1.349 . S
C2508 C2510 1.327 . S
C2508 H2533 0.950 . S
C2509 C2508 1.349 . S
C2509 C2525 1.349 . S
C2510 C2508 1.327 . S
C2510 C2529 1.429 . S
C2510 H2534 0.950 . S
C2511 C2528 1.574 1_554 S
C2511 C2530 1.368 . S
C2511 H2535 0.949 . S
H2512 C2516 0.949 . S
C2513 C2514 1.349 . S
C2513 C2515 1.327 . S
C2513 H2536 0.950 . S
C2514 C2513 1.349 . S
C2514 C2526 1.349 . S
C2515 C2513 1.327 . S
C2515 C2531 1.429 . S
C2515 H2537 0.950 . S
C2516 H2512 0.949 . S
C2516 C2524 1.574 1_556 S
C2516 C2532 1.368 . S
H2517 C2525 0.950 . S
H2518 C2523 0.950 . S
H2519 C2524 0.949 . S
H2520 C2526 0.950 . S
H2521 C2527 0.950 . S
H2522 C2528 0.949 . S
C2523 H2518 0.950 . S
C2523 C2525 1.327 . S
C2523 C2529 1.429 . S
C2524 C2516 1.574 1_554 S
C2524 H2519 0.949 . S
C2524 C2530 1.368 . S
C2525 C2509 1.349 . S
C2525 H2517 0.950 . S
C2525 C2523 1.327 . S
C2526 C2514 1.349 . S
C2526 H2520 0.950 . S
C2526 C2527 1.327 . S
C2527 H2521 0.950 . S
C2527 C2526 1.327 . S
C2527 C2531 1.429 . S
C2528 C2511 1.574 1_556 S
C2528 H2522 0.949 . S
C2528 C2532 1.368 . S
C2529 C2510 1.429 . S
C2529 C2523 1.429 . S
C2529 C2530 1.523 . S
C2530 C2511 1.368 . S
C2530 C2524 1.368 . S
C2530 C2529 1.523 . S
C2531 C2515 1.429 . S
C2531 C2527 1.429 . S
C2531 C2532 1.523 . S
C2532 C2516 1.368 . S
C2532 C2528 1.368 . S
C2532 C2531 1.523 . S
H2533 C2508 0.950 . S
H2534 C2510 0.950 . S
H2535 C2511 0.949 . S
H2536 C2513 0.950 . S
H2537 C2515 0.950 . S
C2538 C2539 1.349 . S
C2538 C2540 1.327 . S
C2538 H2563 0.950 . S
C2539 C2538 1.349 . S
C2539 C2555 1.349 . S
C2540 C2538 1.327 . S
C2540 C2559 1.429 . S
C2540 H2564 0.950 . S
C2541 C2558 1.574 . S
C2541 C2560 1.368 . S
C2541 H2565 0.949 . S
H2542 C2546 0.949 . S
C2543 C2544 1.349 . S
C2543 C2545 1.327 . S
C2543 H2566 0.950 . S
C2544 C2543 1.349 . S
C2544 C2556 1.349 . S
C2545 C2543 1.327 . S
C2545 C2561 1.429 . S
C2545 H2567 0.950 . S
C2546 H2542 0.949 . S
C2546 C2554 1.574 . S
C2546 C2562 1.368 . S
H2547 C2555 0.950 . S
H2548 C2553 0.950 . S
H2549 C2554 0.949 . S
H2550 C2556 0.950 . S
H2551 C2557 0.950 . S
H2552 C2558 0.949 . S
C2553 H2548 0.950 . S
C2553 C2555 1.327 . S
C2553 C2559 1.429 . S
C2554 C2546 1.574 . S
C2554 H2549 0.949 . S
C2554 C2560 1.368 . S
C2555 C2539 1.349 . S
C2555 H2547 0.950 . S
C2555 C2553 1.327 . S
C2556 C2544 1.349 . S
C2556 H2550 0.950 . S
C2556 C2557 1.327 . S
C2557 H2551 0.950 . S
C2557 C2556 1.327 . S
C2557 C2561 1.429 . S
C2558 C2541 1.574 . S
C2558 H2552 0.949 . S
C2558 C2562 1.368 . S
C2559 C2540 1.429 . S
C2559 C2553 1.429 . S
C2559 C2560 1.523 . S
C2560 C2541 1.368 . S
C2560 C2554 1.368 . S
C2560 C2559 1.523 . S
C2561 C2545 1.429 . S
C2561 C2557 1.429 . S
C2561 C2562 1.523 . S
C2562 C2546 1.368 . S
C2562 C2558 1.368 . S
C2562 C2561 1.523 . S
H2563 C2538 0.950 . S
H2564 C2540 0.950 . S
H2565 C2541 0.949 . S
H2566 C2543 0.950 . S
H2567 C2545 0.950 . S
C2568 C2569 1.349 . S
C2568 C2570 1.327 . S
C2568 H2593 0.950 . S
C2569 C2568 1.349 . S
C2569 C2585 1.349 . S
C2570 C2568 1.327 . S
C2570 C2589 1.429 . S
C2570 H2594 0.950 . S
C2571 C2588 1.574 1_554 S
C2571 C2590 1.368 . S
C2571 H2595 0.949 . S
H2572 C2576 0.949 . S
C2573 C2574 1.349 . S
C2573 C2575 1.327 . S
C2573 H2596 0.950 . S
C2574 C2573 1.349 . S
C2574 C2586 1.349 . S
C2575 C2573 1.327 . S
C2575 C2591 1.429 . S
C2575 H2597 0.950 . S
C2576 H2572 0.949 . S
C2576 C2584 1.574 1_556 S
C2576 C2592 1.368 . S
H2577 C2585 0.950 . S
H2578 C2583 0.950 . S
H2579 C2584 0.949 . S
H2580 C2586 0.950 . S
H2581 C2587 0.950 . S
H2582 C2588 0.949 . S
C2583 H2578 0.950 . S
C2583 C2585 1.327 . S
C2583 C2589 1.429 . S
C2584 C2576 1.574 1_554 S
C2584 H2579 0.949 . S
C2584 C2590 1.368 . S
C2585 C2569 1.349 . S
C2585 H2577 0.950 . S
C2585 C2583 1.327 . S
C2586 C2574 1.349 . S
C2586 H2580 0.950 . S
C2586 C2587 1.327 . S
C2587 H2581 0.950 . S
C2587 C2586 1.327 . S
C2587 C2591 1.429 . S
C2588 C2571 1.574 1_556 S
C2588 H2582 0.949 . S
C2588 C2592 1.368 . S
C2589 C2570 1.429 . S
C2589 C2583 1.429 . S
C2589 C2590 1.523 . S
C2590 C2571 1.368 . S
C2590 C2584 1.368 . S
C2590 C2589 1.523 . S
C2591 C2575 1.429 . S
C2591 C2587 1.429 . S
C2591 C2592 1.523 . S
C2592 C2576 1.368 . S
C2592 C2588 1.368 . S
C2592 C2591 1.523 . S
H2593 C2568 0.950 . S
H2594 C2570 0.950 . S
H2595 C2571 0.949 . S
H2596 C2573 0.950 . S
H2597 C2575 0.950 . S
C2598 C2599 1.349 . S
C2598 C2600 1.327 . S
C2598 H2623 0.950 . S
C2599 C2598 1.349 . S
C2599 C2615 1.349 . S
C2600 C2598 1.327 . S
C2600 C2619 1.429 . S
C2600 H2624 0.950 . S
C2601 C2618 1.574 . S
C2601 C2620 1.368 . S
C2601 H2625 0.949 . S
H2602 C2606 0.949 . S
C2603 C2604 1.349 . S
C2603 C2605 1.327 . S
C2603 H2626 0.950 . S
C2604 C2603 1.349 . S
C2604 C2616 1.349 . S
C2605 C2603 1.327 . S
C2605 C2621 1.429 . S
C2605 H2627 0.950 . S
C2606 H2602 0.949 . S
C2606 C2614 1.574 . S
C2606 C2622 1.368 . S
H2607 C2615 0.950 . S
H2608 C2613 0.950 . S
H2609 C2614 0.949 . S
H2610 C2616 0.950 . S
H2611 C2617 0.950 . S
H2612 C2618 0.949 . S
C2613 H2608 0.950 . S
C2613 C2615 1.327 . S
C2613 C2619 1.429 . S
C2614 C2606 1.574 . S
C2614 H2609 0.949 . S
C2614 C2620 1.368 . S
C2615 C2599 1.349 . S
C2615 H2607 0.950 . S
C2615 C2613 1.327 . S
C2616 C2604 1.349 . S
C2616 H2610 0.950 . S
C2616 C2617 1.327 . S
C2617 H2611 0.950 . S
C2617 C2616 1.327 . S
C2617 C2621 1.429 . S
C2618 C2601 1.574 . S
C2618 H2612 0.949 . S
C2618 C2622 1.368 . S
C2619 C2600 1.429 . S
C2619 C2613 1.429 . S
C2619 C2620 1.523 . S
C2620 C2601 1.368 . S
C2620 C2614 1.368 . S
C2620 C2619 1.523 . S
C2621 C2605 1.429 . S
C2621 C2617 1.429 . S
C2621 C2622 1.523 . S
C2622 C2606 1.368 . S
C2622 C2618 1.368 . S
C2622 C2621 1.523 . S
H2623 C2598 0.950 . S
H2624 C2600 0.950 . S
H2625 C2601 0.949 . S
H2626 C2603 0.950 . S
H2627 C2605 0.950 . S
C2628 C2629 1.349 . S
C2628 C2630 1.327 . S
C2628 H2653 0.950 . S
C2629 C2628 1.349 . S
C2629 C2645 1.349 . S
C2630 C2628 1.327 . S
C2630 C2649 1.429 . S
C2630 H2654 0.950 . S
C2631 C2648 1.574 1_554 S
C2631 C2650 1.368 . S
C2631 H2655 0.949 . S
H2632 C2636 0.949 . S
C2633 C2634 1.349 . S
C2633 C2635 1.327 . S
C2633 H2656 0.950 . S
C2634 C2633 1.349 . S
C2634 C2646 1.349 . S
C2635 C2633 1.327 . S
C2635 C2651 1.429 . S
C2635 H2657 0.950 . S
C2636 H2632 0.949 . S
C2636 C2644 1.574 1_556 S
C2636 C2652 1.368 . S
H2637 C2645 0.950 . S
H2638 C2643 0.950 . S
H2639 C2644 0.949 . S
H2640 C2646 0.950 . S
H2641 C2647 0.950 . S
H2642 C2648 0.949 . S
C2643 H2638 0.950 . S
C2643 C2645 1.327 . S
C2643 C2649 1.429 . S
C2644 C2636 1.574 1_554 S
C2644 H2639 0.949 . S
C2644 C2650 1.368 . S
C2645 C2629 1.349 . S
C2645 H2637 0.950 . S
C2645 C2643 1.327 . S
C2646 C2634 1.349 . S
C2646 H2640 0.950 . S
C2646 C2647 1.327 . S
C2647 H2641 0.950 . S
C2647 C2646 1.327 . S
C2647 C2651 1.429 . S
C2648 C2631 1.574 1_556 S
C2648 H2642 0.949 . S
C2648 C2652 1.368 . S
C2649 C2630 1.429 . S
C2649 C2643 1.429 . S
C2649 C2650 1.523 . S
C2650 C2631 1.368 . S
C2650 C2644 1.368 . S
C2650 C2649 1.523 . S
C2651 C2635 1.429 . S
C2651 C2647 1.429 . S
C2651 C2652 1.523 . S
C2652 C2636 1.368 . S
C2652 C2648 1.368 . S
C2652 C2651 1.523 . S
H2653 C2628 0.950 . S
H2654 C2630 0.950 . S
H2655 C2631 0.949 . S
H2656 C2633 0.950 . S
H2657 C2635 0.950 . S
C2658 C2659 1.349 . S
C2658 C2660 1.327 . S
C2658 H2683 0.950 . S
C2659 C2658 1.349 . S
C2659 C2675 1.349 . S
C2660 C2658 1.327 . S
C2660 C2679 1.429 . S
C2660 H2684 0.950 . S
C2661 C2678 1.574 . S
C2661 C2680 1.368 . S
C2661 H2685 0.949 . S
H2662 C2666 0.949 . S
C2663 C2664 1.349 . S
C2663 C2665 1.327 . S
C2663 H2686 0.950 . S
C2664 C2663 1.349 . S
C2664 C2676 1.349 . S
C2665 C2663 1.327 . S
C2665 C2681 1.429 . S
C2665 H2687 0.950 . S
C2666 H2662 0.949 . S
C2666 C2674 1.574 . S
C2666 C2682 1.368 . S
H2667 C2675 0.950 . S
H2668 C2673 0.950 . S
H2669 C2674 0.949 . S
H2670 C2676 0.950 . S
H2671 C2677 0.950 . S
H2672 C2678 0.949 . S
C2673 H2668 0.950 . S
C2673 C2675 1.327 . S
C2673 C2679 1.429 . S
C2674 C2666 1.574 . S
C2674 H2669 0.949 . S
C2674 C2680 1.368 . S
C2675 C2659 1.349 . S
C2675 H2667 0.950 . S
C2675 C2673 1.327 . S
C2676 C2664 1.349 . S
C2676 H2670 0.950 . S
C2676 C2677 1.327 . S
C2677 H2671 0.950 . S
C2677 C2676 1.327 . S
C2677 C2681 1.429 . S
C2678 C2661 1.574 . S
C2678 H2672 0.949 . S
C2678 C2682 1.368 . S
C2679 C2660 1.429 . S
C2679 C2673 1.429 . S
C2679 C2680 1.523 . S
C2680 C2661 1.368 . S
C2680 C2674 1.368 . S
C2680 C2679 1.523 . S
C2681 C2665 1.429 . S
C2681 C2677 1.429 . S
C2681 C2682 1.523 . S
C2682 C2666 1.368 . S
C2682 C2678 1.368 . S
C2682 C2681 1.523 . S
H2683 C2658 0.950 . S
H2684 C2660 0.950 . S
H2685 C2661 0.949 . S
H2686 C2663 0.950 . S
H2687 C2665 0.950 . S
C529 C194 0.803 . S
C534 C10 0.803 . S
C559 C30 0.803 . S
C564 C206 0.803 . S
C589 C230 0.803 . S
C594 C52 0.803 . S
C619 C74 0.803 . S
C624 C260 0.803 . S
C649 C142 0.803 . S
C654 C106 0.803 . S
C679 C164 0.803 . S
C684 C118 0.803 . S
C709 C272 0.803 . S
C714 C458 0.803 . S
C739 C472 0.803 . S
C744 C296 0.803 . S
C769 C494 0.803 . S
C774 C326 0.803 . S
C799 C340 0.803 . S
C804 C516 0.803 . S
C829 C362 0.803 . S
C834 C404 0.803 . S
C859 C428 0.803 . S
C864 C392 0.803 . S
C889 C21 0.964 . S
C894 C65 0.977 . S
C919 C87 0.977 . S
C924 C29 0.964 . S
C949 C51 0.964 . S
C954 C95 0.977 . S
C979 C73 0.964 . S
C984 C131 0.977 . S
C1009 C15 0.977 . S
C1014 C103 0.964 . S
C1039 C43 0.977 . S
C1044 C117 0.964 . S
C1069 C235 0.977 . S
C1074 C153 0.964 . S
C1099 C175 0.964 . S
C1104 C249 0.977 . S
C1129 C191 0.964 . S
C1134 C147 0.977 . S
C1159 C169 0.977 . S
C1164 C205 0.964 . S
C1189 C183 0.977 . S
C1194 C241 0.964 . S
C1219 C219 0.977 . S
C1224 C257 0.964 . S
C1249 C315 0.977 . S
C1254 C271 0.964 . S
C1279 C307 0.964 . S
C1284 C345 0.977 . S
C1309 C323 0.964 . S
C1314 C367 0.977 . S
C1339 C351 0.964 . S
C1344 C381 0.977 . S
C1369 C285 0.977 . S
C1374 C373 0.964 . S
C1399 C301 0.977 . S
C1404 C389 0.964 . S
C1429 C403 0.964 . S
C1434 C499 0.977 . S
C1459 C439 0.964 . S
C1464 C521 0.977 . S
C1489 C455 0.964 . S
C1494 C417 0.977 . S
C1519 C483 0.964 . S
C1524 C433 0.977 . S
C1549 C447 0.977 . S
C1554 C505 0.964 . S
C1579 C477 0.977 . S
C1584 C527 0.964 . S
C1609 C7 1.458 . S
C1614 C337 1.458 . S
C1639 C359 1.457 . S
C1644 C37 1.457 . S
C1669 C59 1.457 . S
C1674 C395 1.457 . S
C1699 C81 1.458 . S
C1704 C279 1.458 . S
C1729 C293 1.457 . S
C1734 C109 1.457 . S
C1759 C125 1.457 . S
C1764 C329 1.457 . S
C1789 C139 1.457 . S
C1794 C469 1.457 . S
C1819 C491 1.458 . S
C1824 C161 1.458 . S
C1849 C197 1.457 . S
C1854 C513 1.457 . S
C1879 C213 1.457 . S
C1884 C411 1.457 . S
C1909 C425 1.458 . S
C1914 C227 1.458 . S
C1939 C461 1.457 . S
C1944 C263 1.457 . S
C1969 C448 1.105 . S
C1974 C18 1.105 . S
C1999 C480 1.105 . S
C2004 C32 1.105 . S
C2029 C502 1.105 . S
C2034 C54 1.105 . S
C2059 C524 1.105 . S
C2064 C76 1.105 . S
C2089 C406 1.105 . S
C2094 C96 1.105 . S
C2119 C120 1.105 . S
C2124 C436 1.105 . S
C2149 C150 1.105 . S
C2154 C370 1.105 . S
C2179 C382 1.105 . S
C2184 C172 1.105 . S
C2209 C274 1.105 . S
C2214 C184 1.105 . S
C2239 C304 1.105 . S
C2244 C208 1.105 . S
C2269 C238 1.105 . S
C2274 C316 1.105 . S
C2299 C250 1.105 . S
C2304 C348 1.105 . S
C2329 C228 0.822 . S
C2334 C8 0.822 . S
C2359 C252 0.822 . S
C2364 C40 0.822 . S
C2389 C62 0.822 . S
C2394 C140 0.822 . S
C2419 C84 0.822 . S
C2424 C162 0.822 . S
C2449 C186 0.822 . S
C2454 C98 0.822 . S
C2479 C128 0.822 . S
C2484 C216 0.822 . S
C2509 C492 0.822 . S
C2514 C282 0.822 . S
C2539 C514 0.822 . S
C2544 C294 0.822 . S
C2569 C414 0.822 . S
C2574 C318 0.822 . S
C2599 C338 0.822 . S
C2604 C426 0.822 . S
C2629 C450 0.822 . S
C2634 C360 0.822 . S
C2659 C384 0.822 . S
C2664 C470 0.822 . S
