# Generated by pormake.
# Topology ukk, (4)-cn, num edge types: 1
# Building blocks:
#     Node 0, Type 0, BuildingBlock: ESEHIV_clean_sbu_0, # of connection points: 4
#     Node 1, Type 0, BuildingBlock: ESEHIV_clean_sbu_0, # of connection points: 4
#     Node 2, Type 0, BuildingBlock: ESEHIV_clean_sbu_0, # of connection points: 4
#     Node 3, Type 0, BuildingBlock: ESEHIV_clean_sbu_0, # of connection points: 4
#     Node 4, Type 0, BuildingBlock: ESEHIV_clean_sbu_0, # of connection points: 4
#     Node 5, Type 0, BuildingBlock: ESEHIV_clean_sbu_0, # of connection points: 4
#     Node 6, Type 0, BuildingBlock: ESEHIV_clean_sbu_0, # of connection points: 4
#     Node 7, Type 0, BuildingBlock: ESEHIV_clean_sbu_0, # of connection points: 4
#     Node 8, Type 0, BuildingBlock: ESEHIV_clean_sbu_0, # of connection points: 4
#     Node 9, Type 0, BuildingBlock: ESEHIV_clean_sbu_0, # of connection points: 4
#     Node 10, Type 0, BuildingBlock: ESEHIV_clean_sbu_0, # of connection points: 4
#     Node 11, Type 0, BuildingBlock: ESEHIV_clean_sbu_0, # of connection points: 4
#     Node 12, Type 0, BuildingBlock: ESEHIV_clean_sbu_0, # of connection points: 4
#     Node 13, Type 0, BuildingBlock: ESEHIV_clean_sbu_0, # of connection points: 4
#     Node 14, Type 0, BuildingBlock: ESEHIV_clean_sbu_0, # of connection points: 4
#     Node 15, Type 0, BuildingBlock: ESEHIV_clean_sbu_0, # of connection points: 4
#     Edge 16, Type (0, 0), BuildingBlock: AJUNOK_clean_linker_0, # of connection points: 2
#     Edge 17, Type (0, 0), BuildingBlock: AJUNOK_clean_linker_0, # of connection points: 2
#     Edge 18, Type (0, 0), BuildingBlock: AJUNOK_clean_linker_0, # of connection points: 2
#     Edge 19, Type (0, 0), BuildingBlock: AJUNOK_clean_linker_0, # of connection points: 2
#     Edge 20, Type (0, 0), BuildingBlock: AJUNOK_clean_linker_0, # of connection points: 2
#     Edge 21, Type (0, 0), BuildingBlock: AJUNOK_clean_linker_0, # of connection points: 2
#     Edge 22, Type (0, 0), BuildingBlock: AJUNOK_clean_linker_0, # of connection points: 2
#     Edge 23, Type (0, 0), BuildingBlock: AJUNOK_clean_linker_0, # of connection points: 2
#     Edge 24, Type (0, 0), BuildingBlock: AJUNOK_clean_linker_0, # of connection points: 2
#     Edge 25, Type (0, 0), BuildingBlock: AJUNOK_clean_linker_0, # of connection points: 2
#     Edge 26, Type (0, 0), BuildingBlock: AJUNOK_clean_linker_0, # of connection points: 2
#     Edge 27, Type (0, 0), BuildingBlock: AJUNOK_clean_linker_0, # of connection points: 2
#     Edge 28, Type (0, 0), BuildingBlock: AJUNOK_clean_linker_0, # of connection points: 2
#     Edge 29, Type (0, 0), BuildingBlock: AJUNOK_clean_linker_0, # of connection points: 2
#     Edge 30, Type (0, 0), BuildingBlock: AJUNOK_clean_linker_0, # of connection points: 2
#     Edge 31, Type (0, 0), BuildingBlock: AJUNOK_clean_linker_0, # of connection points: 2
#     Edge 32, Type (0, 0), BuildingBlock: AJUNOK_clean_linker_0, # of connection points: 2
#     Edge 33, Type (0, 0), BuildingBlock: AJUNOK_clean_linker_0, # of connection points: 2
#     Edge 34, Type (0, 0), BuildingBlock: AJUNOK_clean_linker_0, # of connection points: 2
#     Edge 35, Type (0, 0), BuildingBlock: AJUNOK_clean_linker_0, # of connection points: 2
#     Edge 36, Type (0, 0), BuildingBlock: AJUNOK_clean_linker_0, # of connection points: 2
#     Edge 37, Type (0, 0), BuildingBlock: AJUNOK_clean_linker_0, # of connection points: 2
#     Edge 38, Type (0, 0), BuildingBlock: AJUNOK_clean_linker_0, # of connection points: 2
#     Edge 39, Type (0, 0), BuildingBlock: AJUNOK_clean_linker_0, # of connection points: 2
#     Edge 40, Type (0, 0), BuildingBlock: AJUNOK_clean_linker_0, # of connection points: 2
#     Edge 41, Type (0, 0), BuildingBlock: AJUNOK_clean_linker_0, # of connection points: 2
#     Edge 42, Type (0, 0), BuildingBlock: AJUNOK_clean_linker_0, # of connection points: 2
#     Edge 43, Type (0, 0), BuildingBlock: AJUNOK_clean_linker_0, # of connection points: 2
#     Edge 44, Type (0, 0), BuildingBlock: AJUNOK_clean_linker_0, # of connection points: 2
#     Edge 45, Type (0, 0), BuildingBlock: AJUNOK_clean_linker_0, # of connection points: 2
#     Edge 46, Type (0, 0), BuildingBlock: AJUNOK_clean_linker_0, # of connection points: 2
#     Edge 47, Type (0, 0), BuildingBlock: AJUNOK_clean_linker_0, # of connection points: 2
# Relax obj value: 0.037
# Max RMSD: 0.121
# Mean RMSD: 0.121
data_MOF--net-ukk--node1-ESEHIV_clean_sbu_0--edge1-AJUNOK_clean_linker_0
_symmetry_space_group_name_H-M    P1
_symmetry_Int_Tables_number       1
_symmetry_cell_setting            triclinic
loop_
_symmetry_equiv_pos_as_xyz
'x, y, z'
_cell_length_a     42.562133
_cell_length_b     42.576228
_cell_length_c     18.317529
_cell_angle_alpha  89.702993
_cell_angle_beta   89.41484
_cell_angle_gamma 90.201942
loop_
_atom_site_label
_atom_site_type_symbol
_atom_site_fract_x
_atom_site_fract_y
_atom_site_fract_z
_atom_type_partial_charge
Cu0 Cu 0.4061 0.17422 0.13321 0.0
N1 N 0.44961 0.17733 0.12239 0.0
N2 N 0.49993 0.17501 0.15516 0.0
C3 C 0.46976 0.17141 0.17665 0.0
C4 C 0.49878 0.18376 0.08429 0.0
C5 C 0.46757 0.18526 0.06421 0.0
O6 O 0.39942 0.1415 0.20791 0.0
C7 C 0.39349 0.23798 0.11153 0.0
O8 O 0.40219 0.23044 0.04491 0.0
H9 H 0.46234 0.1646 0.23119 0.0
H10 H 0.45866 0.19138 1.01093 0.0
N11 N 0.38752 0.16125 0.04613 0.0
N12 N 0.35137 0.14965 0.96245 0.0
C13 C 0.357 0.16324 0.02766 0.0
C14 C 0.40161 0.14574 0.99112 0.0
C15 C 0.37943 0.13842 0.93975 0.0
C16 C 0.41227 0.11515 0.19341 0.0
O17 O 0.42611 0.11201 0.1295 0.0
H18 H 0.33925 0.17412 0.06178 0.0
H19 H 0.42614 0.13923 0.98964 0.0
O20 O 0.39178 0.21624 0.15977 0.0
H21 H 0.51893 0.18797 0.04904 0.0
H22 H 0.38352 0.12465 0.89113 0.0
Cu23 Cu 0.16243 0.65232 0.88569 0.0
N24 N 0.16239 0.60884 0.9013 0.0
N25 N 0.15719 0.55757 0.87807 0.0
C26 C 0.15016 0.58709 0.85661 0.0
C27 C 0.17463 0.56088 0.93867 0.0
C28 C 0.17768 0.59256 0.95307 0.0
O29 O 0.12692 0.66241 0.82381 0.0
C30 C 0.22223 0.64607 0.81308 0.0
O31 O 0.21397 0.61668 0.80321 0.0
H32 H 0.13805 0.59284 0.80675 0.0
H33 H 0.19118 0.60305 0.99637 0.0
N34 N 0.15632 0.67298 0.97504 0.0
N35 N 0.15352 0.71018 0.0613 0.0
C36 C 0.16312 0.70304 0.99257 0.0
C37 C 0.14168 0.66087 0.0342 0.0
C38 C 0.13983 0.68365 0.08718 0.0
C39 C 0.12526 0.65598 0.7562 0.0
O40 O 0.14987 0.64382 0.7231 0.0
H41 H 0.17448 0.71943 0.95534 0.0
H42 H 0.13212 0.63733 0.03768 0.0
O43 O 0.20299 0.66493 0.84378 0.0
H44 H 0.18514 0.54184 0.96912 0.0
H45 H 0.12796 0.68116 0.13942 0.0
Cu46 Cu 0.65774 0.90346 0.11691 0.0
N47 N 0.61415 0.90217 0.10212 0.0
N48 N 0.56256 0.90185 0.12871 0.0
C49 C 0.59201 0.90414 0.1552 0.0
C50 C 0.56643 0.89789 0.05601 0.0
C51 C 0.59823 0.89813 0.03982 0.0
O52 O 0.665 0.93287 0.19605 0.0
C53 C 0.67166 0.84109 0.08856 0.0
O54 O 0.66456 0.85046 0.02233 0.0
H55 H 0.59747 0.90745 0.21224 0.0
H56 H 0.609 0.89515 0.98657 0.0
N57 N 0.68067 0.91745 0.03457 0.0
N58 N 0.72138 0.92606 0.95845 0.0
C59 C 0.71058 0.90976 0.01709 0.0
C60 C 0.67233 0.93934 0.98524 0.0
C61 C 0.69745 0.94483 0.93852 0.0
C62 C 0.65215 0.95969 0.18918 0.0
O63 O 0.63595 0.96546 0.12995 0.0
H64 H 0.72455 0.89346 0.0485 0.0
H65 H 0.64987 0.95112 0.98452 0.0
O66 O 0.67073 0.86097 0.14029 0.0
H67 H 0.54773 0.89425 0.01735 0.0
H68 H 0.69825 0.96161 0.89391 0.0
Cu69 Cu 0.905 0.40154 0.91094 0.0
N70 N 0.90312 0.44513 0.91856 0.0
N71 N 0.90175 0.49457 0.8767 0.0
C72 C 0.90957 0.46454 0.86223 0.0
C73 C 0.88999 0.49403 0.94552 0.0
C74 C 0.89084 0.46342 0.9712 0.0
O75 O 0.93951 0.39352 0.84364 0.0
C76 C 0.84166 0.38828 0.92737 0.0
O77 O 0.84868 0.39616 0.99451 0.0
H78 H 0.91871 0.45645 0.81031 0.0
H79 H 0.88158 0.45488 0.02284 0.0
N80 N 0.91506 0.38171 0.99877 0.0
N81 N 0.92434 0.34224 0.0767 0.0
C82 C 0.91157 0.35079 1.01235 0.0
C83 C 0.93023 0.39338 0.05671 0.0
C84 C 0.93582 0.3691 0.10513 0.0
C85 C 0.93893 0.38985 0.77484 0.0
O86 O 0.91191 0.38763 0.74123 0.0
H87 H 0.90004 0.33497 0.97508 0.0
H88 H 0.93763 0.41758 0.06216 0.0
O89 O 0.86366 0.38772 0.87958 0.0
H90 H 0.87971 0.51382 0.97368 0.0
H91 H 0.94844 0.37087 0.15596 0.0
Cu92 Cu 0.40923 0.43318 0.20236 0.0
N93 N 0.45297 0.43047 0.21174 0.0
N94 N 0.50315 0.42377 0.17728 0.0
C95 C 0.47336 0.42869 0.15514 0.0
C96 C 0.50144 0.42277 0.25086 0.0
C97 C 0.47043 0.4266 0.27195 0.0
O98 O 0.39927 0.47189 0.14853 0.0
C99 C 0.39944 0.3693 0.19985 0.0
O100 O 0.40995 0.37358 0.26628 0.0
H101 H 0.46631 0.43078 0.09873 0.0
H102 H 0.46123 0.42561 0.32712 0.0
N103 N 0.38781 0.43607 0.2919 0.0
N104 N 0.3468 0.43493 0.36946 0.0
C105 C 0.35765 0.42733 0.30232 0.0
C106 C 0.39643 0.44987 0.35453 0.0
C107 C 0.37119 0.44925 0.40243 0.0
C108 C 0.40892 0.49727 0.17794 0.0
O109 O 0.42582 0.495 0.23733 0.0
H110 H 0.34373 0.4162 0.26056 0.0
H111 H 0.41895 0.46091 0.36369 0.0
O112 O 0.39629 0.39336 0.15852 0.0
H113 H 0.52105 0.41852 0.28673 0.0
H114 H 0.37047 0.46004 0.45574 0.0
Cu115 Cu 0.40477 0.68637 0.91672 0.0
N116 N 0.38973 0.66624 1.00142 0.0
N117 N 0.38383 0.62396 0.07397 0.0
C118 C 0.39041 0.63463 1.00608 0.0
C119 C 0.37878 0.65011 0.11395 0.0
C120 C 0.38235 0.6762 0.06901 0.0
O121 O 0.44901 0.67386 0.91733 0.0
C122 C 0.34868 0.68444 0.85251 0.0
O123 O 0.34541 0.70462 0.90591 0.0
H124 H 0.39819 0.61991 0.96146 0.0
H125 H 0.38157 0.70049 0.08564 0.0
N126 N 0.4035 0.73075 0.91153 0.0
N127 N 0.40541 0.77801 0.85693 0.0
C128 C 0.41222 0.74716 0.85139 0.0
C129 C 0.39104 0.75215 0.95733 0.0
C130 C 0.39217 0.78132 0.9237 0.0
C131 C 0.46236 0.68599 0.97278 0.0
O132 O 0.4465 0.70679 1.01083 0.0
H133 H 0.42226 0.7364 0.80311 0.0
H134 H 0.38082 0.74684 1.01021 0.0
O135 O 0.37546 0.67146 0.84292 0.0
H136 H 0.37424 0.65044 0.17219 0.0
H137 H 0.38379 0.8032 0.94645 0.0
Cu138 Cu 0.67265 0.64325 0.12333 0.0
N139 N 0.62889 0.64088 0.13415 0.0
N140 N 0.57787 0.6449 0.1073 0.0
C141 C 0.60767 0.6486 0.08285 0.0
C142 C 0.58044 0.63481 0.17695 0.0
C143 C 0.61187 0.63227 0.19328 0.0
O144 O 0.68389 0.61341 0.04826 0.0
C145 C 0.67724 0.70694 0.14765 0.0
O146 O 0.6664 0.69741 0.21148 0.0
H147 H 0.61389 0.65817 0.02986 0.0
H148 H 0.62153 0.62542 0.24528 0.0
N149 N 0.69357 0.63147 0.20881 0.0
N150 N 0.73093 0.62769 0.29365 0.0
C151 C 0.72084 0.64331 0.23387 0.0
C152 C 0.68649 0.60722 0.25347 0.0
C153 C 0.70936 0.60491 0.30594 0.0
C154 C 0.67596 0.61618 0.98183 0.0
O155 O 0.66361 0.6427 0.9594 0.0
H156 H 0.73344 0.6625 0.20771 0.0
H157 H 0.66682 0.59141 0.24646 0.0
O158 O 0.68293 0.68644 0.09893 0.0
H159 H 0.56094 0.63023 0.21395 0.0
H160 H 0.71088 0.58678 0.34739 0.0
Cu161 Cu 0.64655 0.40524 0.85588 0.0
N162 N 0.65096 0.44701 0.82586 0.0
N163 N 0.66034 0.49859 0.83203 0.0
C164 C 0.65675 0.47151 0.86984 0.0
C165 C 0.6569 0.49081 0.76124 0.0
C166 C 0.6512 0.45891 0.7576 0.0
O167 O 0.61329 0.4028 0.92972 0.0
C168 C 0.71014 0.39193 0.84355 0.0
O169 O 0.70414 0.39956 0.7755 0.0
H170 H 0.65841 0.46954 0.92855 0.0
H171 H 0.64816 0.44527 0.70854 0.0
N172 N 0.63408 0.3804 0.77766 0.0
N173 N 0.62879 0.33975 0.70205 0.0
C174 C 0.64431 0.35149 0.75987 0.0
C175 C 0.61105 0.38698 0.73031 0.0
C176 C 0.60773 0.36198 0.68358 0.0
C177 C 0.61501 0.41257 0.99512 0.0
O178 O 0.64185 0.42379 0.01858 0.0
H179 H 0.66256 0.33922 0.78913 0.0
H180 H 0.59713 0.40818 0.73102 0.0
O181 O 0.68752 0.39173 0.88973 0.0
H182 H 0.65921 0.50679 0.71535 0.0
H183 H 0.59032 0.35987 0.64123 0.0
Cu184 Cu 0.91169 0.65415 0.59792 0.0
N185 N 0.95501 0.65696 0.58069 0.0
N186 N 1.00644 0.66014 0.60395 0.0
C187 C 0.97745 0.65423 0.63168 0.0
C188 C 1.00204 0.66651 0.53255 0.0
C189 C 0.97028 0.66482 0.51851 0.0
O190 O 0.90469 0.62334 0.67515 0.0
C191 C 0.89734 0.7178 0.5831 0.0
O192 O 0.90476 0.71207 0.51465 0.0
H193 H 0.97249 0.64815 0.68808 0.0
H194 H 0.95906 0.6698 0.46706 0.0
N195 N 0.88986 0.64249 0.51376 0.0
N196 N 0.85081 0.63549 0.4344 0.0
C197 C 0.85905 0.64677 0.50045 0.0
C198 C 0.90148 0.62805 0.45421 0.0
C199 C 0.87753 0.62385 0.40512 0.0
C200 C 0.90828 0.59435 0.66098 0.0
O201 O 0.91554 0.58612 0.5939 0.0
H202 H 0.84319 0.65838 0.53805 0.0
H203 H 0.92565 0.62081 0.44723 0.0
O204 O 0.89786 0.69526 0.62896 0.0
H205 H 1.02039 0.67288 0.49382 0.0
H206 H 0.87947 0.61257 0.35243 0.0
Cu207 Cu 0.66087 0.15587 0.41847 0.0
N208 N 0.66223 0.11228 0.42889 0.0
N209 N 0.66205 0.06204 0.39415 0.0
C210 C 0.65836 0.09221 0.3733 0.0
C211 C 0.66857 0.06313 0.46609 0.0
C212 C 0.66879 0.09426 0.48736 0.0
O213 O 0.63031 0.16566 0.34409 0.0
C214 C 0.72434 0.16866 0.43549 0.0
O215 O 0.71752 0.16017 0.5029 0.0
H216 H 0.65347 0.09974 0.31803 0.0
H217 H 0.67363 0.10312 0.54133 0.0
N218 N 0.64904 0.17637 0.50406 0.0
N219 N 0.63953 0.21614 0.58011 0.0
C220 C 0.65224 0.20738 0.51557 0.0
C221 C 0.63396 0.16494 0.56343 0.0
C222 C 0.62824 0.18944 0.61077 0.0
C223 C 0.60306 0.15369 0.35178 0.0
O224 O 0.59724 0.13597 0.40935 0.0
H225 H 0.6637 0.22313 0.47706 0.0
H226 H 0.62695 0.14069 0.57096 0.0
O227 O 0.70239 0.16952 0.38897 0.0
H228 H 0.67247 0.04297 0.50101 0.0
H229 H 0.6159 0.18793 0.66264 0.0
Cu230 Cu 0.15159 0.39565 0.61516 0.0
N231 N 0.10884 0.39257 0.59362 0.0
N232 N 0.05702 0.39139 0.61505 0.0
C233 C 0.08592 0.39216 0.64468 0.0
C234 C 0.06201 0.39053 0.54218 0.0
C235 C 0.09408 0.39137 0.52906 0.0
O236 O 0.15578 0.42555 0.69464 0.0
C237 C 0.16772 0.33328 0.5912 0.0
O238 O 0.1609 0.34151 0.52401 0.0
H239 H 0.09053 0.39241 0.70266 0.0
H240 H 0.10575 0.3915 0.47634 0.0
N241 N 0.17579 0.41084 0.537 0.0
N242 N 0.21885 0.42325 0.47177 0.0
C243 C 0.20684 0.40611 0.52782 0.0
C244 C 0.16768 0.4315 0.48479 0.0
C245 C 0.19415 0.43903 0.44414 0.0
C246 C 0.14061 0.45119 0.68883 0.0
O247 O 0.12378 0.45602 0.63015 0.0
H248 H 0.22026 0.39053 0.56225 0.0
H249 H 0.14443 0.44123 0.4784 0.0
O250 O 0.1659 0.35391 0.64119 0.0
H251 H 0.0438 0.39009 0.50137 0.0
H252 H 0.19534 0.45575 0.39946 0.0
Cu253 Cu 0.41704 0.91795 0.44227 0.0
N254 N 0.41689 0.96203 0.4437 0.0
N255 N 0.41547 1.01146 0.40105 0.0
C256 C 0.41674 0.98066 0.38401 0.0
C257 C 0.41425 1.01229 0.47466 0.0
C258 C 0.41523 0.98174 0.50086 0.0
O259 O 0.45006 0.90588 0.37264 0.0
C260 C 0.36001 0.8802 0.42057 0.0
O261 O 0.37407 0.85579 0.44945 0.0
H262 H 0.41675 0.97176 0.32892 0.0
H263 H 0.41451 0.97441 0.55748 0.0
N264 N 0.4279 0.90155 0.53449 0.0
N265 N 0.4303 0.87222 0.63658 0.0
C266 C 0.41192 0.88253 0.58145 0.0
C267 C 0.45705 0.90362 0.5618 0.0
C268 C 0.45864 0.88559 0.62423 0.0
C269 C 0.44787 0.90855 0.30356 0.0
O270 O 0.42072 0.91644 0.27551 0.0
H271 H 0.38786 0.87521 0.57383 0.0
H272 H 0.47625 0.91634 0.53606 0.0
O273 O 0.37487 0.90598 0.41191 0.0
H274 H 0.41306 0.03344 0.50712 0.0
H275 H 0.47935 0.88185 0.65695 0.0
Cu276 Cu 0.90545 0.91155 0.66219 0.0
N277 N 0.94943 0.91028 0.6695 0.0
N278 N 0.99961 0.90874 0.63102 0.0
C279 C 0.96926 0.91215 0.61183 0.0
C280 C 0.99888 0.90399 0.70393 0.0
C281 C 0.96786 0.90505 0.7276 0.0
O282 O 0.89564 0.9451 0.59402 0.0
C283 C 0.89373 0.848 0.67538 0.0
O284 O 0.90261 0.85424 0.74224 0.0
H285 H 0.96148 0.91489 0.55627 0.0
H286 H 0.95934 0.90168 0.78293 0.0
N287 N 0.88489 0.921 0.75054 0.0
N288 N 0.84558 0.92693 0.83155 0.0
C289 C 0.85542 0.91231 0.77016 0.0
C290 C 0.89393 0.94185 0.80119 0.0
C291 C 0.86969 0.94565 0.85105 0.0
C292 C 0.89937 0.94399 0.5251 0.0
O293 O 0.90798 0.91748 0.49457 0.0
H294 H 0.84081 0.89703 0.73768 0.0
H295 H 0.91599 0.95453 0.7999 0.0
O296 O 0.89225 0.87044 0.62937 0.0
H297 H 1.01925 0.90008 0.73764 0.0
H298 H 0.86941 0.96163 0.89683 0.0
Cu299 Cu 0.91858 0.15518 0.36526 0.0
N300 N 0.91519 0.11248 0.34422 0.0
N301 N 0.90767 0.06122 0.3651 0.0
C302 C 0.91244 0.08971 0.39509 0.0
C303 C 0.90788 0.06623 0.29227 0.0
C304 C 0.91225 0.09798 0.27954 0.0
O305 O 0.94872 0.15935 0.44358 0.0
C306 C 0.85573 0.16931 0.34831 0.0
O307 O 0.86298 0.16229 0.28045 0.0
H308 H 0.91394 0.0941 0.45309 0.0
H309 H 0.91253 0.10971 0.22703 0.0
N310 N 0.93133 0.17887 0.2836 0.0
N311 N 0.93615 0.21894 0.20453 0.0
C312 C 0.92287 0.2086 0.26762 0.0
C313 C 0.95077 0.17015 0.22908 0.0
C314 C 0.95397 0.19483 0.1806 0.0
C315 C 0.97719 0.15251 0.42945 0.0
O316 O 0.98497 0.14432 0.36269 0.0
H317 H 0.90699 0.22223 0.30129 0.0
H318 H 0.96209 0.14752 0.22519 0.0
O319 O 0.87723 0.16859 0.39602 0.0
H320 H 0.9043 0.04835 0.25134 0.0
H321 H 0.96896 0.19513 0.13256 0.0
Cu322 Cu 0.17027 0.13704 0.66075 0.0
N323 N 0.1268 0.13722 0.67516 0.0
N324 N 0.07699 0.14272 0.63948 0.0
C325 C 0.10638 0.1341 0.62023 0.0
C326 C 0.07888 0.15118 0.71026 0.0
C327 C 0.10972 0.14781 0.73212 0.0
O328 O 0.17983 0.10376 0.59144 0.0
C329 C 0.17793 0.20128 0.67137 0.0
O330 O 0.17023 0.19431 0.7392 0.0
H331 H 0.11334 0.12741 0.56563 0.0
H332 H 0.11939 0.15488 0.78391 0.0
N333 N 0.19215 0.12919 0.74672 0.0
N334 N 0.23176 0.12911 0.82613 0.0
C335 C 0.22099 0.1403 0.76193 0.0
C336 C 0.18411 0.11053 0.80336 0.0
C337 C 0.20846 0.11054 0.85264 0.0
C338 C 0.17533 0.10586 0.52299 0.0
O339 O 0.16673 0.13296 0.49517 0.0
H340 H 0.23355 0.15652 0.72654 0.0
H341 H 0.16233 0.09745 0.80783 0.0
O342 O 0.1809 0.17896 0.62574 0.0
H343 H 0.06004 0.1614 0.74224 0.0
H344 H 0.20927 0.09727 0.90316 0.0
Cu345 Cu 0.16341 0.89458 0.36419 0.0
N346 N 0.16694 0.93751 0.34198 0.0
N347 N 0.17144 0.9893 0.36046 0.0
C348 C 0.16756 0.96071 0.39172 0.0
C349 C 0.17358 0.98376 0.28802 0.0
C350 C 0.17074 0.95182 0.27681 0.0
O351 O 0.1305 0.89097 0.43977 0.0
C352 C 0.22709 0.88567 0.3485 0.0
O353 O 0.2197 0.89634 0.28349 0.0
H354 H 0.16513 0.95663 0.44988 0.0
H355 H 0.17202 0.93983 0.22496 0.0
N356 N 0.15218 0.87089 0.28191 0.0
N357 N 0.14846 0.8309 0.20289 0.0
C358 C 0.16161 0.8415 0.26525 0.0
C359 C 0.13262 0.87929 0.22807 0.0
C360 C 0.13033 0.85481 0.1794 0.0
C361 C 0.1048 0.90514 0.42627 0.0
O362 O 0.10194 0.91893 0.3624 0.0
H363 H 0.17815 0.82848 0.29792 0.0
H364 H 0.12066 0.90161 0.22466 0.0
O365 O 0.20512 0.88154 0.39548 0.0
H366 H 0.17784 1.00134 0.24618 0.0
H367 H 0.11587 0.85442 0.13114 0.0
C368 C 0.39662 0.06426 0.36319 0.0
C369 C 0.41556 0.03771 0.35055 0.0
C370 C 0.39562 0.08932 0.31259 0.0
C371 C 0.41361 0.0888 0.24755 0.0
H372 H 0.382 0.06536 0.41181 0.0
H373 H 0.3804 0.10904 0.32421 0.0
S374 S 0.46969 1.02595 0.19317 0.0
N375 N 0.4545 1.01357 0.27138 0.0
N376 N 0.45266 0.05995 0.17645 0.0
C377 C 0.4333 0.06262 0.23561 0.0
C378 C 0.43426 0.03729 0.28696 0.0
C379 C 0.09211 0.64795 0.64499 0.0
C380 C 0.09484 0.65902 0.71707 0.0
C381 C 0.0633 0.64868 0.60831 0.0
C382 C 0.03595 0.66027 0.64224 0.0
H383 H 0.11228 0.63817 0.61677 0.0
H384 H 0.06227 0.63946 0.55341 0.0
S385 S 1.03057 0.69453 0.82773 0.0
N386 N 0.06761 0.68364 0.81937 0.0
N387 N 1.01375 0.68504 0.75007 0.0
C388 C 0.03838 0.67209 0.7135 0.0
C389 C 0.06772 0.67149 0.75089 0.0
C390 C 0.63449 1.01056 0.24193 0.0
C391 C 0.65446 0.98432 0.24605 0.0
C392 C 0.63668 0.03526 0.2916 0.0
C393 C 0.65893 0.03496 0.34771 0.0
H394 H 0.61701 1.01228 0.19953 0.0
H395 H 0.62083 0.05494 0.28577 0.0
S396 S 0.71677 0.97185 0.38339 0.0
N397 N 0.69703 0.9593 0.31197 0.0
N398 N 0.70136 1.00615 0.40506 0.0
C399 C 0.67869 1.00865 0.35376 0.0
C400 C 0.67642 0.98327 0.30299 0.0
C401 C 1.00135 0.37473 0.62851 0.0
C402 C 1.02725 0.39216 0.65357 0.0
C403 C 0.97263 0.37428 0.66734 0.0
C404 C 0.96894 0.39102 0.73289 0.0
H405 H 1.00351 0.36086 0.57937 0.0
H406 H 0.95344 0.36021 0.64673 0.0
S407 S 1.02801 0.44405 0.81579 0.0
N408 N 0.04603 0.42938 0.7435 0.0
N409 N 0.9927 0.42791 0.81722 0.0
C410 C 0.99435 0.40935 0.7571 0.0
C411 C 1.02333 0.41007 0.7173 0.0
C412 C 0.40873 0.55582 0.19155 0.0
C413 C 0.40089 0.52923 0.14959 0.0
C414 C 0.40224 0.58645 0.16758 0.0
C415 C 0.38781 0.59207 0.10018 0.0
H416 H 0.42024 0.55312 0.24365 0.0
H417 H 0.40945 0.60594 0.20129 0.0
S418 S 0.36076 0.53111 0.97067 0.0
N419 N 0.37659 0.51085 0.03801 0.0
N420 N 0.36446 0.56848 0.99295 0.0
C421 C 0.37927 0.56583 0.05799 0.0
C422 C 0.38572 0.53447 0.08268 0.0
C423 C 0.49842 0.6801 0.07777 0.0
C424 C 0.49248 0.67443 1.00333 0.0
C425 C 0.52607 0.67009 0.11092 0.0
C426 C 0.54937 0.65423 0.07122 0.0
H427 H 0.48143 0.69229 0.1116 0.0
H428 H 0.52946 0.67533 0.16808 0.0
S429 S 0.54572 0.63264 0.87546 0.0
N430 N 0.51225 0.65113 0.89109 0.0
N431 N 0.56477 0.63258 0.95366 0.0
C432 C 0.544 0.6482 0.99678 0.0
C433 C 0.5154 0.65812 0.96288 0.0
C434 C 0.68659 0.53162 0.92326 0.0
C435 C 0.6669 0.52905 0.86243 0.0
C436 C 0.69077 0.56033 0.95886 0.0
C437 C 0.67533 0.58771 0.93526 0.0
H438 H 0.69841 0.51107 0.94441 0.0
H439 H 0.70548 0.56077 1.00677 0.0
S440 S 0.62203 0.59368 0.77646 0.0
N441 N 0.63258 0.55641 0.77841 0.0
N442 N 0.64049 0.61055 0.8448 0.0
C443 C 0.65661 0.58576 0.87239 0.0
C444 C 0.65237 0.5564 0.83612 0.0
C445 C 0.55993 0.43233 0.15392 0.0
C446 C 0.53091 0.41972 0.13219 0.0
C447 C 0.58703 0.42941 0.11002 0.0
C448 C 0.58631 0.4136 0.0426 0.0
H449 H 0.56153 0.44517 0.20461 0.0
H450 H 0.60858 0.44014 0.12873 0.0
S451 S 0.51671 0.37339 0.96461 0.0
N452 N 0.50358 0.38871 0.04163 0.0
N453 N 0.55417 0.38337 0.95881 0.0
C454 C 0.55754 0.40006 0.02131 0.0
C455 C 0.52997 0.40311 0.06606 0.0
C456 C 0.89762 0.51447 0.75031 0.0
C457 C 0.90222 0.52036 0.82503 0.0
C458 C 0.89919 0.53864 0.69831 0.0
C459 C 0.90511 0.56988 0.71863 0.0
H460 H 0.89264 0.49093 0.73157 0.0
H461 H 0.8957 0.53269 0.64152 0.0
S462 S 0.91934 0.59803 0.90691 0.0
N463 N 0.91345 0.55986 0.91659 0.0
N464 N 0.91571 0.60553 0.81884 0.0
C465 C 0.90924 0.57634 0.79325 0.0
C466 C 0.90792 0.55156 0.8464 0.0
C467 C 0.55098 0.13989 0.29969 0.0
C468 C 0.57803 0.15897 0.29733 0.0
C469 C 0.52609 0.14484 0.25183 0.0
C470 C 0.52707 0.16913 0.19957 0.0
H471 H 0.54881 0.12096 0.33918 0.0
H472 H 0.50576 0.12953 0.25599 0.0
S473 S 0.59241 0.22579 0.17013 0.0
N474 N 0.60452 0.20297 0.23733 0.0
N475 N 0.55731 0.21249 0.14784 0.0
C476 C 0.55416 0.18807 0.19537 0.0
C477 C 0.57971 0.18297 0.24417 0.0
C478 C 0.17436 0.5057 0.83215 0.0
C479 C 0.15119 0.52913 0.83797 0.0
C480 C 0.1703 0.47968 0.78621 0.0
C481 C 0.143 0.4763 0.74426 0.0
H482 H 0.19633 0.50819 0.86081 0.0
H483 H 0.18924 0.46288 0.78114 0.0
S484 S 0.07323 0.52839 0.7494 0.0
N485 N 0.09848 0.54514 0.80502 0.0
N486 N 0.09097 0.49671 0.71803 0.0
C487 C 0.11897 0.49866 0.75283 0.0
C488 C 0.12304 0.52495 0.79978 0.0
C489 C 0.50398 0.89175 0.28355 0.0
C490 C 0.47649 0.90567 0.25611 0.0
C491 C 0.53178 0.89036 0.24153 0.0
C492 C 0.5334 0.90286 0.17023 0.0
H493 H 0.50412 0.88191 0.33819 0.0
H494 H 0.55218 0.87925 0.26505 0.0
S495 S 0.46883 0.94374 0.07413 0.0
N496 N 0.45316 0.93321 0.15338 0.0
N497 N 0.50537 0.93092 0.07534 0.0
C498 C 0.50617 0.91695 0.14213 0.0
C499 C 0.47779 0.91829 0.18478 0.0
C500 C 0.91423 0.97544 0.41362 0.0
C501 C 0.89842 0.97351 0.48147 0.0
C502 C 0.91658 1.00399 0.37513 0.0
C503 C 0.90326 1.03169 0.403 0.0
H504 H 0.92583 0.95501 0.39109 0.0
H505 H 0.92979 1.00461 0.32433 0.0
S506 S 0.85579 0.03849 0.57322 0.0
N507 N 0.86687 1.00138 0.57158 0.0
N508 N 0.87098 0.05473 0.49877 0.0
C509 C 0.88622 1.02981 0.46908 0.0
C510 C 0.88386 1.00081 0.50836 0.0
C511 C 1.03298 0.15778 0.46605 0.0
C512 C 1.00151 0.15256 0.48661 0.0
C513 C 0.0572 0.15532 0.51668 0.0
C514 C 0.05111 0.14704 0.59003 0.0
H515 H 0.03906 0.16366 0.41002 0.0
H516 H 0.08096 0.15987 0.49784 0.0
S517 S 0.97258 0.1308 0.67182 0.0
N518 N 0.96526 0.13929 0.58555 0.0
N519 N 1.01106 0.13382 0.68077 0.0
C520 C 1.01963 0.14235 0.61186 0.0
C521 C 0.99479 0.14527 0.56015 0.0
C522 C 0.18772 1.02075 0.46687 0.0
C523 C 0.17367 1.01908 0.39777 0.0
C524 C 0.18895 0.04904 0.50577 0.0
C525 C 0.1762 0.07697 0.4773 0.0
H526 H 0.19785 0.99996 0.49126 0.0
H527 H 0.19972 0.04885 0.55911 0.0
S528 S 0.13605 0.08511 0.29902 0.0
N529 N 0.14624 0.04777 0.30292 0.0
N530 N 0.14887 0.10099 0.3752 0.0
C531 C 0.16247 0.07575 0.40763 0.0
C532 C 0.16114 0.04684 0.36811 0.0
C533 C 0.05196 0.8884 0.59272 0.0
C534 C 1.02668 0.90923 0.58251 0.0
C535 C 0.0774 0.88736 0.54282 0.0
C536 C 0.07853 0.90713 0.48084 0.0
H537 H 0.05164 0.87224 0.63853 0.0
H538 H 0.09598 0.87054 0.55217 0.0
S539 S 1.01995 0.96864 0.43465 0.0
N540 N 1.00588 0.952 0.50969 0.0
N541 N 0.05297 0.95 0.41598 0.0
C542 C 0.05383 0.92881 0.47174 0.0
C543 C 1.02813 0.92986 0.52245 0.0
C544 C 0.39194 0.31205 0.22674 0.0
C545 C 0.39363 0.33656 0.17466 0.0
C546 C 0.39028 0.28042 0.20593 0.0
C547 C 0.39047 0.27175 0.13197 0.0
H548 H 0.3927 0.31722 0.28453 0.0
H549 H 0.3901 0.26263 0.2484 0.0
S550 S 0.39149 0.32686 0.97368 0.0
N551 N 0.39303 0.34998 0.04565 0.0
N552 N 0.38996 0.29063 1.00615 0.0
C553 C 0.39059 0.29608 0.07916 0.0
C554 C 0.39212 0.3284 0.10053 0.0
C555 C 0.27973 0.63315 0.80721 0.0
C556 C 0.25553 0.65564 0.80191 0.0
C557 C 0.31134 0.64235 0.8145 0.0
C558 C 0.31965 0.67428 0.81596 0.0
H559 H 0.27404 0.6084 0.81186 0.0
H560 H 0.32876 0.62455 0.82597 0.0
S561 S 0.26638 0.74188 0.78716 0.0
N562 N 0.24296 0.71088 0.78628 0.0
N563 N 0.30216 0.72805 0.79925 0.0
C564 C 0.29618 0.69668 0.80233 0.0
C565 C 0.26413 0.68741 0.7956 0.0
C566 C 0.67289 0.79522 0.17445 0.0
C567 C 0.67712 0.80726 0.10342 0.0
C568 C 0.67408 0.76285 0.18833 0.0
C569 C 0.67976 0.74115 0.13189 0.0
H570 H 0.66742 0.81078 0.2194 0.0
H571 H 0.66968 0.7548 0.24369 0.0
S572 S 0.6963 0.76098 0.9376 0.0
N573 N 0.69004 0.79522 0.97692 0.0
N574 N 0.69234 0.73441 1.00303 0.0
C575 C 0.68571 0.75301 0.06122 0.0
C576 C 0.68435 0.78603 0.04701 0.0
C577 C 0.7676 0.38847 0.81328 0.0
C578 C 0.74327 0.38687 0.86608 0.0
C579 C 0.79934 0.38732 0.83308 0.0
C580 C 0.80815 0.38465 0.90661 0.0
H581 H 0.76221 0.39158 0.75605 0.0
H582 H 0.81705 0.38983 0.79055 0.0
S583 S 0.75376 0.37571 0.06549 0.0
N584 N 0.73036 0.37962 0.99474 0.0
N585 N 0.78987 0.37744 0.032 0.0
C586 C 0.7841 0.38133 0.95967 0.0
C587 C 0.75174 0.38243 0.93945 0.0
C588 C 0.89439 0.77544 0.55615 0.0
C589 C 0.89205 0.75066 0.60726 0.0
C590 C 0.89328 0.80691 0.57814 0.0
C591 C 0.88995 0.81489 0.65219 0.0
H592 H 0.89815 0.77061 0.49874 0.0
H593 H 0.89645 0.82506 0.53701 0.0
S594 S 0.87839 0.75915 0.80681 0.0
N595 N 0.88296 0.73647 0.73471 0.0
N596 N 0.88098 0.79556 0.77589 0.0
C597 C 0.88575 0.79044 0.70343 0.0
C598 C 0.88676 0.75836 0.68103 0.0
C599 C 0.81334 0.16994 0.44376 0.0
C600 C 0.82243 0.1737 0.3702 0.0
C601 C 0.78159 0.16966 0.4646 0.0
C602 C 0.75762 0.17327 0.4128 0.0
H603 H 0.83078 0.16585 0.48538 0.0
H604 H 0.77587 0.16553 0.5216 0.0
S605 S 0.76921 0.18837 0.2144 0.0
N606 N 0.80509 0.18435 0.24638 0.0
N607 N 0.74542 0.18393 0.28547 0.0
C608 C 0.76647 0.17898 0.33963 0.0
C609 C 0.79885 0.17914 0.31837 0.0
C610 C 0.17504 0.29019 0.68295 0.0
C611 C 0.17416 0.29984 0.60947 0.0
C612 C 0.17756 0.2584 0.702 0.0
C613 C 0.17944 0.23481 0.64848 0.0
H614 H 0.17272 0.30719 0.72645 0.0
H615 H 0.17717 0.2523 0.75949 0.0
S616 S 0.18156 0.24775 0.44795 0.0
N617 N 0.17797 0.2833 0.48256 0.0
N618 N 0.18265 0.22357 0.51859 0.0
C619 C 0.18022 0.24419 0.57474 0.0
C620 C 0.17756 0.27666 0.55522 0.0
C621 C 0.2835 0.89886 0.32605 0.0
C622 C 0.26081 0.88208 0.36715 0.0
C623 C 0.31547 0.89755 0.34307 0.0
C624 C 0.3263 0.87886 0.40093 0.0
H625 H 0.27652 0.91389 0.2812 0.0
H626 H 0.33184 0.91149 0.31071 0.0
S627 S 0.27692 0.8294 0.52421 0.0
N628 N 0.25157 0.84569 0.46787 0.0
N629 N 0.31193 0.84261 0.49885 0.0
C630 C 0.30408 0.86124 0.44148 0.0
C631 C 0.27128 0.86306 0.42497 0.0
C632 C 0.26466 0.13601 0.93564 0.0
C633 C 0.26192 0.13508 0.85913 0.0
C634 C 0.29376 0.14133 0.96896 0.0
C635 C 0.32138 0.14577 0.92714 0.0
H636 H 0.2441 0.13272 0.97013 0.0
H637 H 0.29473 0.14131 0.02798 0.0
S638 S 0.32705 0.146 0.72475 0.0
N639 N 0.28963 0.13878 0.74254 0.0
N640 N 0.34386 0.15006 0.80494 0.0
C641 C 0.31891 0.14533 0.85058 0.0
C642 C 0.28933 0.13972 0.81666 0.0
C643 C 0.14977 0.79776 0.09179 0.0
C644 C 0.15199 0.8005 0.16829 0.0
C645 C 0.15122 0.7684 0.05707 0.0
C646 C 0.15475 0.74041 0.09732 0.0
H647 H 0.14671 0.81852 0.05831 0.0
H648 H 0.1486 0.76757 0.9984 0.0
S649 S 0.16338 0.73444 0.29849 0.0
N650 N 0.15866 0.77233 0.28291 0.0
N651 N 0.16243 0.71752 0.21767 0.0
C652 C 0.15793 0.74284 0.17361 0.0
C653 C 0.15636 0.77273 0.20902 0.0
C654 C 0.76853 0.95405 0.91195 0.0
C655 C 0.75267 0.92568 0.92723 0.0
C656 C 0.79902 0.95425 0.88173 0.0
C657 C 0.8145 0.92611 0.86391 0.0
H658 H 0.75738 0.97623 0.92436 0.0
H659 H 0.81042 0.97661 0.87102 0.0
S660 S 0.78303 0.84562 0.89202 0.0
N661 N 0.75471 0.86874 0.9224 0.0
N662 N 0.81168 0.86916 0.86376 0.0
C663 C 0.7988 0.89761 0.87828 0.0
C664 C 0.76801 0.89738 0.91053 0.0
C665 C 0.92862 0.27642 0.21483 0.0
C666 C 0.93259 0.24958 0.17115 0.0
C667 C 0.92588 0.30648 0.18363 0.0
C668 C 0.92677 0.31097 0.10743 0.0
H669 H 0.92816 0.27427 0.27374 0.0
H670 H 0.92283 0.32638 0.21952 0.0
S671 S 0.9363 0.24832 0.96858 0.0
N672 N 0.93627 0.22941 0.04744 0.0
N673 N 0.93244 0.28581 0.98905 0.0
C674 C 0.93062 0.28429 0.06307 0.0
C675 C 0.93325 0.25367 0.09484 0.0
C676 C 0.25834 0.43041 0.37316 0.0
C677 C 0.25124 0.42546 0.44753 0.0
C678 C 0.28949 0.43321 0.34818 0.0
C679 C 0.31494 0.4313 0.39652 0.0
H680 H 0.23962 0.43198 0.33375 0.0
H681 H 0.29359 0.43745 0.29056 0.0
S682 S 0.30928 0.41855 0.59682 0.0
N683 N 0.27243 0.41934 0.56966 0.0
N684 N 0.33091 0.42342 0.52229 0.0
C685 C 0.30824 0.42616 0.47102 0.0
C686 C 0.27646 0.42344 0.49658 0.0
C687 C 0.44565 0.82572 0.70941 0.0
C688 C 0.42313 0.84863 0.69154 0.0
C689 C 0.43958 0.8027 0.76298 0.0
C690 C 0.41097 0.80196 0.80199 0.0
H691 H 0.46809 0.82534 0.68103 0.0
H692 H 0.45758 0.78555 0.77473 0.0
S693 S 0.3439 0.85612 0.77558 0.0
N694 N 0.37082 0.86873 0.71665 0.0
N695 N 0.35952 0.82564 0.81784 0.0
C696 C 0.38818 0.82463 0.78474 0.0
C697 C 0.3942 0.84784 0.7293 0.0
C698 C 0.78806 0.63858 0.29095 0.0
C699 C 0.76043 0.63174 0.33084 0.0
C700 C 0.81735 0.64017 0.32533 0.0
C701 C 0.82016 0.63542 0.40113 0.0
H702 H 0.78716 0.64177 0.23234 0.0
H703 H 0.83804 0.64505 0.29227 0.0
S704 S 0.75471 0.61834 0.53084 0.0
N705 N 0.73754 0.6215 0.4507 0.0
N706 N 0.79257 0.6242 0.51517 0.0
C707 C 0.79261 0.62937 0.44195 0.0
C708 C 0.76279 0.62753 0.40683 0.0
C709 C 0.64061 0.25249 0.68482 0.0
C710 C 0.63741 0.24748 0.60939 0.0
C711 C 0.63834 0.28273 0.71456 0.0
C712 C 0.63239 0.30906 0.67009 0.0
H713 H 0.6451 0.23288 0.72105 0.0
H714 H 0.64061 0.28545 0.773 0.0
S715 S 0.6222 0.30868 0.46919 0.0
N716 N 0.62771 0.27145 0.49098 0.0
N717 N 0.62414 0.32823 0.54662 0.0
C718 C 0.62933 0.3044 0.59455 0.0
C719 C 0.63172 0.27365 0.56425 0.0
loop_
_geom_bond_atom_site_label_1
_geom_bond_atom_site_label_2
_geom_bond_distance
_geom_bond_site_symmetry_2
_ccdc_geom_bond_type
Cu0 N1 1.999 . S
Cu0 O6 1.974 . S
Cu0 N11 1.985 . S
Cu0 O20 1.959 . S
N1 Cu0 1.999 . S
N1 C3 1.263 . S
N1 C5 1.389 . S
N2 C3 1.358 . S
N2 C4 1.400 . S
C3 N1 1.263 . S
C3 N2 1.358 . S
C3 H9 0.930 . S
C4 N2 1.400 . S
C4 C5 1.351 . S
C4 H21 0.930 . S
C5 N1 1.389 . S
C5 C4 1.351 . S
C5 H10 0.930 . S
O6 Cu0 1.974 . S
O6 C16 1.282 . S
C7 O8 1.261 . S
C7 O20 1.251 . S
O8 C7 1.261 . S
H9 C3 0.930 . S
H10 C5 0.930 . S
N11 Cu0 1.985 . S
N11 C13 1.335 . S
N11 C14 1.390 . S
N12 C13 1.345 . S
N12 C15 1.336 . S
C13 N11 1.335 . S
C13 N12 1.345 . S
C13 H18 0.930 . S
C14 N11 1.390 . S
C14 C15 1.346 . S
C14 H19 0.930 . S
C15 N12 1.336 . S
C15 C14 1.346 . S
C15 H22 0.929 . S
C16 O6 1.282 . S
C16 O17 1.216 . S
O17 C16 1.216 . S
H18 C13 0.930 . S
H19 C14 0.930 . S
O20 Cu0 1.959 . S
O20 C7 1.251 . S
H21 C4 0.930 . S
H22 C15 0.929 . S
Cu23 N24 1.999 . S
Cu23 O29 1.974 . S
Cu23 N34 1.985 . S
Cu23 O43 1.959 . S
N24 Cu23 1.999 . S
N24 C26 1.263 . S
N24 C28 1.389 . S
N25 C26 1.358 . S
N25 C27 1.400 . S
C26 N24 1.263 . S
C26 N25 1.358 . S
C26 H32 0.930 . S
C27 N25 1.400 . S
C27 C28 1.351 . S
C27 H44 0.930 . S
C28 N24 1.389 . S
C28 C27 1.351 . S
C28 H33 0.930 . S
O29 Cu23 1.974 . S
O29 C39 1.282 . S
C30 O31 1.261 . S
C30 O43 1.251 . S
O31 C30 1.261 . S
H32 C26 0.930 . S
H33 C28 0.930 . S
N34 Cu23 1.985 . S
N34 C36 1.335 . S
N34 C37 1.390 . S
N35 C36 1.345 . S
N35 C38 1.336 . S
C36 N34 1.335 . S
C36 N35 1.345 . S
C36 H41 0.930 . S
C37 N34 1.390 . S
C37 C38 1.346 . S
C37 H42 0.930 . S
C38 N35 1.336 . S
C38 C37 1.346 . S
C38 H45 0.929 . S
C39 O29 1.282 . S
C39 O40 1.216 . S
O40 C39 1.216 . S
H41 C36 0.930 . S
H42 C37 0.930 . S
O43 Cu23 1.959 . S
O43 C30 1.251 . S
H44 C27 0.930 . S
H45 C38 0.929 . S
Cu46 N47 1.999 . S
Cu46 O52 1.974 . S
Cu46 N57 1.985 . S
Cu46 O66 1.959 . S
N47 Cu46 1.999 . S
N47 C49 1.263 . S
N47 C51 1.389 . S
N48 C49 1.358 . S
N48 C50 1.400 . S
C49 N47 1.263 . S
C49 N48 1.358 . S
C49 H55 0.930 . S
C50 N48 1.400 . S
C50 C51 1.351 . S
C50 H67 0.930 . S
C51 N47 1.389 . S
C51 C50 1.351 . S
C51 H56 0.930 . S
O52 Cu46 1.974 . S
O52 C62 1.282 . S
C53 O54 1.261 . S
C53 O66 1.251 . S
O54 C53 1.261 . S
H55 C49 0.930 . S
H56 C51 0.930 . S
N57 Cu46 1.985 . S
N57 C59 1.335 . S
N57 C60 1.390 . S
N58 C59 1.345 . S
N58 C61 1.336 . S
C59 N57 1.335 . S
C59 N58 1.345 . S
C59 H64 0.930 . S
C60 N57 1.390 . S
C60 C61 1.346 . S
C60 H65 0.930 . S
C61 N58 1.336 . S
C61 C60 1.346 . S
C61 H68 0.929 . S
C62 O52 1.282 . S
C62 O63 1.216 . S
O63 C62 1.216 . S
H64 C59 0.930 . S
H65 C60 0.930 . S
O66 Cu46 1.959 . S
O66 C53 1.251 . S
H67 C50 0.930 . S
H68 C61 0.929 . S
Cu69 N70 1.999 . S
Cu69 O75 1.974 . S
Cu69 N80 1.985 . S
Cu69 O89 1.959 . S
N70 Cu69 1.999 . S
N70 C72 1.263 . S
N70 C74 1.389 . S
N71 C72 1.358 . S
N71 C73 1.400 . S
C72 N70 1.263 . S
C72 N71 1.358 . S
C72 H78 0.930 . S
C73 N71 1.400 . S
C73 C74 1.351 . S
C73 H90 0.930 . S
C74 N70 1.389 . S
C74 C73 1.351 . S
C74 H79 0.930 . S
O75 Cu69 1.974 . S
O75 C85 1.282 . S
C76 O77 1.261 . S
C76 O89 1.251 . S
O77 C76 1.261 . S
H78 C72 0.930 . S
H79 C74 0.930 . S
N80 Cu69 1.985 . S
N80 C82 1.335 . S
N80 C83 1.390 . S
N81 C82 1.345 . S
N81 C84 1.336 . S
C82 N80 1.335 . S
C82 N81 1.345 . S
C82 H87 0.930 . S
C83 N80 1.390 . S
C83 C84 1.346 . S
C83 H88 0.930 . S
C84 N81 1.336 . S
C84 C83 1.346 . S
C84 H91 0.929 . S
C85 O75 1.282 . S
C85 O86 1.216 . S
O86 C85 1.216 . S
H87 C82 0.930 . S
H88 C83 0.930 . S
O89 Cu69 1.959 . S
O89 C76 1.251 . S
H90 C73 0.930 . S
H91 C84 0.929 . S
Cu92 N93 1.999 . S
Cu92 O98 1.974 . S
Cu92 N103 1.985 . S
Cu92 O112 1.959 . S
N93 Cu92 1.999 . S
N93 C95 1.263 . S
N93 C97 1.389 . S
N94 C95 1.358 . S
N94 C96 1.400 . S
C95 N93 1.263 . S
C95 N94 1.358 . S
C95 H101 0.930 . S
C96 N94 1.400 . S
C96 C97 1.351 . S
C96 H113 0.930 . S
C97 N93 1.389 . S
C97 C96 1.351 . S
C97 H102 0.930 . S
O98 Cu92 1.974 . S
O98 C108 1.282 . S
C99 O100 1.261 . S
C99 O112 1.251 . S
O100 C99 1.261 . S
H101 C95 0.930 . S
H102 C97 0.930 . S
N103 Cu92 1.985 . S
N103 C105 1.335 . S
N103 C106 1.390 . S
N104 C105 1.345 . S
N104 C107 1.336 . S
C105 N103 1.335 . S
C105 N104 1.345 . S
C105 H110 0.930 . S
C106 N103 1.390 . S
C106 C107 1.346 . S
C106 H111 0.930 . S
C107 N104 1.336 . S
C107 C106 1.346 . S
C107 H114 0.929 . S
C108 O98 1.282 . S
C108 O109 1.216 . S
O109 C108 1.216 . S
H110 C105 0.930 . S
H111 C106 0.930 . S
O112 Cu92 1.959 . S
O112 C99 1.251 . S
H113 C96 0.930 . S
H114 C107 0.929 . S
Cu115 N116 1.999 . S
Cu115 O121 1.974 . S
Cu115 N126 1.985 . S
Cu115 O135 1.959 . S
N116 Cu115 1.999 . S
N116 C118 1.263 . S
N116 C120 1.389 . S
N117 C118 1.358 . S
N117 C119 1.400 . S
C118 N116 1.263 . S
C118 N117 1.358 . S
C118 H124 0.930 . S
C119 N117 1.400 . S
C119 C120 1.351 . S
C119 H136 0.930 . S
C120 N116 1.389 . S
C120 C119 1.351 . S
C120 H125 0.930 . S
O121 Cu115 1.974 . S
O121 C131 1.282 . S
C122 O123 1.261 . S
C122 O135 1.251 . S
O123 C122 1.261 . S
H124 C118 0.930 . S
H125 C120 0.930 . S
N126 Cu115 1.985 . S
N126 C128 1.335 . S
N126 C129 1.390 . S
N127 C128 1.345 . S
N127 C130 1.336 . S
C128 N126 1.335 . S
C128 N127 1.345 . S
C128 H133 0.930 . S
C129 N126 1.390 . S
C129 C130 1.346 . S
C129 H134 0.930 . S
C130 N127 1.336 . S
C130 C129 1.346 . S
C130 H137 0.929 . S
C131 O121 1.282 . S
C131 O132 1.216 . S
O132 C131 1.216 . S
H133 C128 0.930 . S
H134 C129 0.930 . S
O135 Cu115 1.959 . S
O135 C122 1.251 . S
H136 C119 0.930 . S
H137 C130 0.929 . S
Cu138 N139 1.999 . S
Cu138 O144 1.974 . S
Cu138 N149 1.985 . S
Cu138 O158 1.959 . S
N139 Cu138 1.999 . S
N139 C141 1.263 . S
N139 C143 1.389 . S
N140 C141 1.358 . S
N140 C142 1.400 . S
C141 N139 1.263 . S
C141 N140 1.358 . S
C141 H147 0.930 . S
C142 N140 1.400 . S
C142 C143 1.351 . S
C142 H159 0.930 . S
C143 N139 1.389 . S
C143 C142 1.351 . S
C143 H148 0.930 . S
O144 Cu138 1.974 . S
O144 C154 1.282 . S
C145 O146 1.261 . S
C145 O158 1.251 . S
O146 C145 1.261 . S
H147 C141 0.930 . S
H148 C143 0.930 . S
N149 Cu138 1.985 . S
N149 C151 1.335 . S
N149 C152 1.390 . S
N150 C151 1.345 . S
N150 C153 1.336 . S
C151 N149 1.335 . S
C151 N150 1.345 . S
C151 H156 0.930 . S
C152 N149 1.390 . S
C152 C153 1.346 . S
C152 H157 0.930 . S
C153 N150 1.336 . S
C153 C152 1.346 . S
C153 H160 0.929 . S
C154 O144 1.282 . S
C154 O155 1.216 . S
O155 C154 1.216 . S
H156 C151 0.930 . S
H157 C152 0.930 . S
O158 Cu138 1.959 . S
O158 C145 1.251 . S
H159 C142 0.930 . S
H160 C153 0.929 . S
Cu161 N162 1.999 . S
Cu161 O167 1.974 . S
Cu161 N172 1.985 . S
Cu161 O181 1.959 . S
N162 Cu161 1.999 . S
N162 C164 1.263 . S
N162 C166 1.389 . S
N163 C164 1.358 . S
N163 C165 1.400 . S
C164 N162 1.263 . S
C164 N163 1.358 . S
C164 H170 0.930 . S
C165 N163 1.400 . S
C165 C166 1.351 . S
C165 H182 0.930 . S
C166 N162 1.389 . S
C166 C165 1.351 . S
C166 H171 0.930 . S
O167 Cu161 1.974 . S
O167 C177 1.282 . S
C168 O169 1.261 . S
C168 O181 1.251 . S
O169 C168 1.261 . S
H170 C164 0.930 . S
H171 C166 0.930 . S
N172 Cu161 1.985 . S
N172 C174 1.335 . S
N172 C175 1.390 . S
N173 C174 1.345 . S
N173 C176 1.336 . S
C174 N172 1.335 . S
C174 N173 1.345 . S
C174 H179 0.930 . S
C175 N172 1.390 . S
C175 C176 1.346 . S
C175 H180 0.930 . S
C176 N173 1.336 . S
C176 C175 1.346 . S
C176 H183 0.929 . S
C177 O167 1.282 . S
C177 O178 1.216 . S
O178 C177 1.216 . S
H179 C174 0.930 . S
H180 C175 0.930 . S
O181 Cu161 1.959 . S
O181 C168 1.251 . S
H182 C165 0.930 . S
H183 C176 0.929 . S
Cu184 N185 1.999 . S
Cu184 O190 1.974 . S
Cu184 N195 1.985 . S
Cu184 O204 1.959 . S
N185 Cu184 1.999 . S
N185 C187 1.263 . S
N185 C189 1.389 . S
N186 C187 1.358 . S
N186 C188 1.400 . S
C187 N185 1.263 . S
C187 N186 1.358 . S
C187 H193 0.930 . S
C188 N186 1.400 . S
C188 C189 1.351 . S
C188 H205 0.930 . S
C189 N185 1.389 . S
C189 C188 1.351 . S
C189 H194 0.930 . S
O190 Cu184 1.974 . S
O190 C200 1.282 . S
C191 O192 1.261 . S
C191 O204 1.251 . S
O192 C191 1.261 . S
H193 C187 0.930 . S
H194 C189 0.930 . S
N195 Cu184 1.985 . S
N195 C197 1.335 . S
N195 C198 1.390 . S
N196 C197 1.345 . S
N196 C199 1.336 . S
C197 N195 1.335 . S
C197 N196 1.345 . S
C197 H202 0.930 . S
C198 N195 1.390 . S
C198 C199 1.346 . S
C198 H203 0.930 . S
C199 N196 1.336 . S
C199 C198 1.346 . S
C199 H206 0.929 . S
C200 O190 1.282 . S
C200 O201 1.216 . S
O201 C200 1.216 . S
H202 C197 0.930 . S
H203 C198 0.930 . S
O204 Cu184 1.959 . S
O204 C191 1.251 . S
H205 C188 0.930 . S
H206 C199 0.929 . S
Cu207 N208 1.999 . S
Cu207 O213 1.974 . S
Cu207 N218 1.985 . S
Cu207 O227 1.959 . S
N208 Cu207 1.999 . S
N208 C210 1.263 . S
N208 C212 1.389 . S
N209 C210 1.358 . S
N209 C211 1.400 . S
C210 N208 1.263 . S
C210 N209 1.358 . S
C210 H216 0.930 . S
C211 N209 1.400 . S
C211 C212 1.351 . S
C211 H228 0.930 . S
C212 N208 1.389 . S
C212 C211 1.351 . S
C212 H217 0.930 . S
O213 Cu207 1.974 . S
O213 C223 1.282 . S
C214 O215 1.261 . S
C214 O227 1.251 . S
O215 C214 1.261 . S
H216 C210 0.930 . S
H217 C212 0.930 . S
N218 Cu207 1.985 . S
N218 C220 1.335 . S
N218 C221 1.390 . S
N219 C220 1.345 . S
N219 C222 1.336 . S
C220 N218 1.335 . S
C220 N219 1.345 . S
C220 H225 0.930 . S
C221 N218 1.390 . S
C221 C222 1.346 . S
C221 H226 0.930 . S
C222 N219 1.336 . S
C222 C221 1.346 . S
C222 H229 0.929 . S
C223 O213 1.282 . S
C223 O224 1.216 . S
O224 C223 1.216 . S
H225 C220 0.930 . S
H226 C221 0.930 . S
O227 Cu207 1.959 . S
O227 C214 1.251 . S
H228 C211 0.930 . S
H229 C222 0.929 . S
Cu230 N231 1.999 . S
Cu230 O236 1.974 . S
Cu230 N241 1.985 . S
Cu230 O250 1.959 . S
N231 Cu230 1.999 . S
N231 C233 1.263 . S
N231 C235 1.389 . S
N232 C233 1.358 . S
N232 C234 1.400 . S
C233 N231 1.263 . S
C233 N232 1.358 . S
C233 H239 0.930 . S
C234 N232 1.400 . S
C234 C235 1.351 . S
C234 H251 0.930 . S
C235 N231 1.389 . S
C235 C234 1.351 . S
C235 H240 0.930 . S
O236 Cu230 1.974 . S
O236 C246 1.282 . S
C237 O238 1.261 . S
C237 O250 1.251 . S
O238 C237 1.261 . S
H239 C233 0.930 . S
H240 C235 0.930 . S
N241 Cu230 1.985 . S
N241 C243 1.335 . S
N241 C244 1.390 . S
N242 C243 1.345 . S
N242 C245 1.336 . S
C243 N241 1.335 . S
C243 N242 1.345 . S
C243 H248 0.930 . S
C244 N241 1.390 . S
C244 C245 1.346 . S
C244 H249 0.930 . S
C245 N242 1.336 . S
C245 C244 1.346 . S
C245 H252 0.929 . S
C246 O236 1.282 . S
C246 O247 1.216 . S
O247 C246 1.216 . S
H248 C243 0.930 . S
H249 C244 0.930 . S
O250 Cu230 1.959 . S
O250 C237 1.251 . S
H251 C234 0.930 . S
H252 C245 0.929 . S
Cu253 N254 1.999 . S
Cu253 O259 1.974 . S
Cu253 N264 1.985 . S
Cu253 O273 1.959 . S
N254 Cu253 1.999 . S
N254 C256 1.263 . S
N254 C258 1.389 . S
N255 C256 1.358 . S
N255 C257 1.400 . S
C256 N254 1.263 . S
C256 N255 1.358 . S
C256 H262 0.930 . S
C257 N255 1.400 . S
C257 C258 1.351 . S
C257 H274 0.930 . S
C258 N254 1.389 . S
C258 C257 1.351 . S
C258 H263 0.930 . S
O259 Cu253 1.974 . S
O259 C269 1.282 . S
C260 O261 1.261 . S
C260 O273 1.251 . S
O261 C260 1.261 . S
H262 C256 0.930 . S
H263 C258 0.930 . S
N264 Cu253 1.985 . S
N264 C266 1.335 . S
N264 C267 1.390 . S
N265 C266 1.345 . S
N265 C268 1.336 . S
C266 N264 1.335 . S
C266 N265 1.345 . S
C266 H271 0.930 . S
C267 N264 1.390 . S
C267 C268 1.346 . S
C267 H272 0.930 . S
C268 N265 1.336 . S
C268 C267 1.346 . S
C268 H275 0.929 . S
C269 O259 1.282 . S
C269 O270 1.216 . S
O270 C269 1.216 . S
H271 C266 0.930 . S
H272 C267 0.930 . S
O273 Cu253 1.959 . S
O273 C260 1.251 . S
H274 C257 0.930 . S
H275 C268 0.929 . S
Cu276 N277 1.999 . S
Cu276 O282 1.974 . S
Cu276 N287 1.985 . S
Cu276 O296 1.959 . S
N277 Cu276 1.999 . S
N277 C279 1.263 . S
N277 C281 1.389 . S
N278 C279 1.358 . S
N278 C280 1.400 . S
C279 N277 1.263 . S
C279 N278 1.358 . S
C279 H285 0.930 . S
C280 N278 1.400 . S
C280 C281 1.351 . S
C280 H297 0.930 . S
C281 N277 1.389 . S
C281 C280 1.351 . S
C281 H286 0.930 . S
O282 Cu276 1.974 . S
O282 C292 1.282 . S
C283 O284 1.261 . S
C283 O296 1.251 . S
O284 C283 1.261 . S
H285 C279 0.930 . S
H286 C281 0.930 . S
N287 Cu276 1.985 . S
N287 C289 1.335 . S
N287 C290 1.390 . S
N288 C289 1.345 . S
N288 C291 1.336 . S
C289 N287 1.335 . S
C289 N288 1.345 . S
C289 H294 0.930 . S
C290 N287 1.390 . S
C290 C291 1.346 . S
C290 H295 0.930 . S
C291 N288 1.336 . S
C291 C290 1.346 . S
C291 H298 0.929 . S
C292 O282 1.282 . S
C292 O293 1.216 . S
O293 C292 1.216 . S
H294 C289 0.930 . S
H295 C290 0.930 . S
O296 Cu276 1.959 . S
O296 C283 1.251 . S
H297 C280 0.930 . S
H298 C291 0.929 . S
Cu299 N300 1.999 . S
Cu299 O305 1.974 . S
Cu299 N310 1.985 . S
Cu299 O319 1.959 . S
N300 Cu299 1.999 . S
N300 C302 1.263 . S
N300 C304 1.389 . S
N301 C302 1.358 . S
N301 C303 1.400 . S
C302 N300 1.263 . S
C302 N301 1.358 . S
C302 H308 0.930 . S
C303 N301 1.400 . S
C303 C304 1.351 . S
C303 H320 0.930 . S
C304 N300 1.389 . S
C304 C303 1.351 . S
C304 H309 0.930 . S
O305 Cu299 1.974 . S
O305 C315 1.282 . S
C306 O307 1.261 . S
C306 O319 1.251 . S
O307 C306 1.261 . S
H308 C302 0.930 . S
H309 C304 0.930 . S
N310 Cu299 1.985 . S
N310 C312 1.335 . S
N310 C313 1.390 . S
N311 C312 1.345 . S
N311 C314 1.336 . S
C312 N310 1.335 . S
C312 N311 1.345 . S
C312 H317 0.930 . S
C313 N310 1.390 . S
C313 C314 1.346 . S
C313 H318 0.930 . S
C314 N311 1.336 . S
C314 C313 1.346 . S
C314 H321 0.929 . S
C315 O305 1.282 . S
C315 O316 1.216 . S
O316 C315 1.216 . S
H317 C312 0.930 . S
H318 C313 0.930 . S
O319 Cu299 1.959 . S
O319 C306 1.251 . S
H320 C303 0.930 . S
H321 C314 0.929 . S
Cu322 N323 1.999 . S
Cu322 O328 1.974 . S
Cu322 N333 1.985 . S
Cu322 O342 1.959 . S
N323 Cu322 1.999 . S
N323 C325 1.263 . S
N323 C327 1.389 . S
N324 C325 1.358 . S
N324 C326 1.400 . S
C325 N323 1.263 . S
C325 N324 1.358 . S
C325 H331 0.930 . S
C326 N324 1.400 . S
C326 C327 1.351 . S
C326 H343 0.930 . S
C327 N323 1.389 . S
C327 C326 1.351 . S
C327 H332 0.930 . S
O328 Cu322 1.974 . S
O328 C338 1.282 . S
C329 O330 1.261 . S
C329 O342 1.251 . S
O330 C329 1.261 . S
H331 C325 0.930 . S
H332 C327 0.930 . S
N333 Cu322 1.985 . S
N333 C335 1.335 . S
N333 C336 1.390 . S
N334 C335 1.345 . S
N334 C337 1.336 . S
C335 N333 1.335 . S
C335 N334 1.345 . S
C335 H340 0.930 . S
C336 N333 1.390 . S
C336 C337 1.346 . S
C336 H341 0.930 . S
C337 N334 1.336 . S
C337 C336 1.346 . S
C337 H344 0.929 . S
C338 O328 1.282 . S
C338 O339 1.216 . S
O339 C338 1.216 . S
H340 C335 0.930 . S
H341 C336 0.930 . S
O342 Cu322 1.959 . S
O342 C329 1.251 . S
H343 C326 0.930 . S
H344 C337 0.929 . S
Cu345 N346 1.999 . S
Cu345 O351 1.974 . S
Cu345 N356 1.985 . S
Cu345 O365 1.959 . S
N346 Cu345 1.999 . S
N346 C348 1.263 . S
N346 C350 1.389 . S
N347 C348 1.358 . S
N347 C349 1.400 . S
C348 N346 1.263 . S
C348 N347 1.358 . S
C348 H354 0.930 . S
C349 N347 1.400 . S
C349 C350 1.351 . S
C349 H366 0.930 . S
C350 N346 1.389 . S
C350 C349 1.351 . S
C350 H355 0.930 . S
O351 Cu345 1.974 . S
O351 C361 1.282 . S
C352 O353 1.261 . S
C352 O365 1.251 . S
O353 C352 1.261 . S
H354 C348 0.930 . S
H355 C350 0.930 . S
N356 Cu345 1.985 . S
N356 C358 1.335 . S
N356 C359 1.390 . S
N357 C358 1.345 . S
N357 C360 1.336 . S
C358 N356 1.335 . S
C358 N357 1.345 . S
C358 H363 0.930 . S
C359 N356 1.390 . S
C359 C360 1.346 . S
C359 H364 0.930 . S
C360 N357 1.336 . S
C360 C359 1.346 . S
C360 H367 0.929 . S
C361 O351 1.282 . S
C361 O362 1.216 . S
O362 C361 1.216 . S
H363 C358 0.930 . S
H364 C359 0.930 . S
O365 Cu345 1.959 . S
O365 C352 1.251 . S
H366 C349 0.930 . S
H367 C360 0.929 . S
C368 C369 1.369 . S
C368 C370 1.419 1_565 S
C368 H372 0.930 . S
C369 C368 1.369 . S
C369 C378 1.429 . S
C370 C368 1.419 1_545 S
C370 C371 1.363 . S
C370 H373 0.929 . S
C371 C370 1.363 . S
C371 C377 1.428 . S
H372 C368 0.930 . S
H373 C370 0.929 . S
S374 N375 1.613 1_545 S
S374 N376 1.610 . S
N375 S374 1.613 1_565 S
N375 C378 1.350 . S
N376 S374 1.610 . S
N376 C377 1.351 . S
C377 C371 1.428 . S
C377 N376 1.351 . S
C377 C378 1.434 1_545 S
C378 C369 1.429 . S
C378 N375 1.350 . S
C378 C377 1.434 1_565 S
C379 C380 1.369 . S
C379 C381 1.419 1_455 S
C379 H383 0.930 . S
C380 C379 1.369 . S
C380 C389 1.429 . S
C381 C379 1.419 1_655 S
C381 C382 1.363 . S
C381 H384 0.929 . S
C382 C381 1.363 . S
C382 C388 1.428 . S
H383 C379 0.930 . S
H384 C381 0.929 . S
S385 N386 1.613 1_655 S
S385 N387 1.610 . S
N386 S385 1.613 1_455 S
N386 C389 1.350 . S
N387 S385 1.610 . S
N387 C388 1.351 . S
C388 C382 1.428 . S
C388 N387 1.351 . S
C388 C389 1.434 1_655 S
C389 C380 1.429 . S
C389 N386 1.350 . S
C389 C388 1.434 1_455 S
C390 C391 1.369 . S
C390 C392 1.419 1_565 S
C390 H394 0.930 . S
C391 C390 1.369 . S
C391 C400 1.429 . S
C392 C390 1.419 1_545 S
C392 C393 1.363 . S
C392 H395 0.929 . S
C393 C392 1.363 . S
C393 C399 1.428 . S
H394 C390 0.930 . S
H395 C392 0.929 . S
S396 N397 1.613 . S
S396 N398 1.610 1_565 S
N397 S396 1.613 . S
N397 C400 1.350 . S
N398 S396 1.610 1_545 S
N398 C399 1.351 . S
C399 C393 1.428 . S
C399 N398 1.351 . S
C399 C400 1.434 1_545 S
C400 C391 1.429 . S
C400 N397 1.350 . S
C400 C399 1.434 1_565 S
C401 C402 1.369 . S
C401 C403 1.419 1_455 S
C401 H405 0.930 . S
C402 C401 1.369 . S
C402 C411 1.429 . S
C403 C401 1.419 1_655 S
C403 C404 1.363 . S
C403 H406 0.929 . S
C404 C403 1.363 . S
C404 C410 1.428 . S
H405 C401 0.930 . S
H406 C403 0.929 . S
S407 N408 1.613 . S
S407 N409 1.610 1_455 S
N408 S407 1.613 . S
N408 C411 1.350 . S
N409 S407 1.610 1_655 S
N409 C410 1.351 . S
C410 C404 1.428 . S
C410 N409 1.351 . S
C410 C411 1.434 1_655 S
C411 C402 1.429 . S
C411 N408 1.350 . S
C411 C410 1.434 1_455 S
C412 C413 1.369 . S
C412 C414 1.419 . S
C412 H416 0.930 . S
C413 C412 1.369 . S
C413 C422 1.429 1_554 S
C414 C412 1.419 . S
C414 C415 1.363 . S
C414 H417 0.929 . S
C415 C414 1.363 . S
C415 C421 1.428 1_554 S
H416 C412 0.930 . S
H417 C414 0.929 . S
S418 N419 1.613 . S
S418 N420 1.610 . S
N419 S418 1.613 . S
N419 C422 1.350 . S
N420 S418 1.610 . S
N420 C421 1.351 . S
C421 C415 1.428 1_556 S
C421 N420 1.351 . S
C421 C422 1.434 . S
C422 C413 1.429 1_556 S
C422 N419 1.350 . S
C422 C421 1.434 . S
C423 C424 1.369 . S
C423 C425 1.419 1_556 S
C423 H427 0.930 1_556 S
C424 C423 1.369 . S
C424 C433 1.429 . S
C425 C423 1.419 1_554 S
C425 C426 1.363 1_554 S
C425 H428 0.929 . S
C426 C425 1.363 1_556 S
C426 C432 1.428 . S
H427 C423 0.930 1_554 S
H428 C425 0.929 . S
S429 N430 1.613 . S
S429 N431 1.610 . S
N430 S429 1.613 . S
N430 C433 1.350 . S
N431 S429 1.610 . S
N431 C432 1.351 . S
C432 C426 1.428 . S
C432 N431 1.351 . S
C432 C433 1.434 . S
C433 C424 1.429 . S
C433 N430 1.350 . S
C433 C432 1.434 . S
C434 C435 1.369 . S
C434 C436 1.419 . S
C434 H438 0.930 . S
C435 C434 1.369 . S
C435 C444 1.429 1_554 S
C436 C434 1.419 . S
C436 C437 1.363 . S
C436 H439 0.929 . S
C437 C436 1.363 . S
C437 C443 1.428 1_554 S
H438 C434 0.930 . S
H439 C436 0.929 . S
S440 N441 1.613 . S
S440 N442 1.610 . S
N441 S440 1.613 . S
N441 C444 1.350 . S
N442 S440 1.610 . S
N442 C443 1.351 . S
C443 C437 1.428 1_556 S
C443 N442 1.351 . S
C443 C444 1.434 . S
C444 C435 1.429 1_556 S
C444 N441 1.350 . S
C444 C443 1.434 . S
C445 C446 1.369 1_554 S
C445 C447 1.419 . S
C445 H449 0.930 . S
C446 C445 1.369 1_556 S
C446 C455 1.429 . S
C447 C445 1.419 . S
C447 C448 1.363 1_554 S
C447 H450 0.929 . S
C448 C447 1.363 1_556 S
C448 C454 1.428 . S
H449 C445 0.930 . S
H450 C447 0.929 . S
S451 N452 1.613 . S
S451 N453 1.610 . S
N452 S451 1.613 . S
N452 C455 1.350 . S
N453 S451 1.610 . S
N453 C454 1.351 . S
C454 C448 1.428 . S
C454 N453 1.351 . S
C454 C455 1.434 . S
C455 C446 1.429 . S
C455 N452 1.350 . S
C455 C454 1.434 . S
C456 C457 1.369 . S
C456 C458 1.419 . S
C456 H460 0.930 . S
C457 C456 1.369 . S
C457 C466 1.429 . S
C458 C456 1.419 . S
C458 C459 1.363 . S
C458 H461 0.929 . S
C459 C458 1.363 . S
C459 C465 1.428 . S
H460 C456 0.930 . S
H461 C458 0.929 . S
S462 N463 1.613 . S
S462 N464 1.610 . S
N463 S462 1.613 . S
N463 C466 1.350 . S
N464 S462 1.610 . S
N464 C465 1.351 . S
C465 C459 1.428 . S
C465 N464 1.351 . S
C465 C466 1.434 . S
C466 C457 1.429 . S
C466 N463 1.350 . S
C466 C465 1.434 . S
C467 C468 1.369 . S
C467 C469 1.419 . S
C467 H471 0.930 . S
C468 C467 1.369 . S
C468 C477 1.429 . S
C469 C467 1.419 . S
C469 C470 1.363 . S
C469 H472 0.929 . S
C470 C469 1.363 . S
C470 C476 1.428 . S
H471 C467 0.930 . S
H472 C469 0.929 . S
S473 N474 1.613 . S
S473 N475 1.610 . S
N474 S473 1.613 . S
N474 C477 1.350 . S
N475 S473 1.610 . S
N475 C476 1.351 . S
C476 C470 1.428 . S
C476 N475 1.351 . S
C476 C477 1.434 . S
C477 C468 1.429 . S
C477 N474 1.350 . S
C477 C476 1.434 . S
C478 C479 1.369 . S
C478 C480 1.419 . S
C478 H482 0.930 . S
C479 C478 1.369 . S
C479 C488 1.429 . S
C480 C478 1.419 . S
C480 C481 1.363 . S
C480 H483 0.929 . S
C481 C480 1.363 . S
C481 C487 1.428 . S
H482 C478 0.930 . S
H483 C480 0.929 . S
S484 N485 1.613 . S
S484 N486 1.610 . S
N485 S484 1.613 . S
N485 C488 1.350 . S
N486 S484 1.610 . S
N486 C487 1.351 . S
C487 C481 1.428 . S
C487 N486 1.351 . S
C487 C488 1.434 . S
C488 C479 1.429 . S
C488 N485 1.350 . S
C488 C487 1.434 . S
C489 C490 1.369 . S
C489 C491 1.419 . S
C489 H493 0.930 . S
C490 C489 1.369 . S
C490 C499 1.429 . S
C491 C489 1.419 . S
C491 C492 1.363 . S
C491 H494 0.929 . S
C492 C491 1.363 . S
C492 C498 1.428 . S
H493 C489 0.930 . S
H494 C491 0.929 . S
S495 N496 1.613 . S
S495 N497 1.610 . S
N496 S495 1.613 . S
N496 C499 1.350 . S
N497 S495 1.610 . S
N497 C498 1.351 . S
C498 C492 1.428 . S
C498 N497 1.351 . S
C498 C499 1.434 . S
C499 C490 1.429 . S
C499 N496 1.350 . S
C499 C498 1.434 . S
C500 C501 1.369 . S
C500 C502 1.419 1_565 S
C500 H504 0.930 . S
C501 C500 1.369 . S
C501 C510 1.429 . S
C502 C500 1.419 1_545 S
C502 C503 1.363 . S
C502 H505 0.929 . S
C503 C502 1.363 . S
C503 C509 1.428 . S
H504 C500 0.930 . S
H505 C502 0.929 . S
S506 N507 1.613 1_545 S
S506 N508 1.610 . S
N507 S506 1.613 1_565 S
N507 C510 1.350 . S
N508 S506 1.610 . S
N508 C509 1.351 . S
C509 C503 1.428 . S
C509 N508 1.351 . S
C509 C510 1.434 1_545 S
C510 C501 1.429 . S
C510 N507 1.350 . S
C510 C509 1.434 1_565 S
C511 C512 1.369 . S
C511 C513 1.419 1_655 S
C511 H515 0.930 . S
C512 C511 1.369 . S
C512 C521 1.429 . S
C513 C511 1.419 1_455 S
C513 C514 1.363 . S
C513 H516 0.929 . S
C514 C513 1.363 . S
C514 C520 1.428 . S
H515 C511 0.930 . S
H516 C513 0.929 . S
S517 N518 1.613 . S
S517 N519 1.610 1_655 S
N518 S517 1.613 . S
N518 C521 1.350 . S
N519 S517 1.610 1_455 S
N519 C520 1.351 . S
C520 C514 1.428 . S
C520 N519 1.351 . S
C520 C521 1.434 1_455 S
C521 C512 1.429 . S
C521 N518 1.350 . S
C521 C520 1.434 1_655 S
C522 C523 1.369 . S
C522 C524 1.419 1_565 S
C522 H526 0.930 . S
C523 C522 1.369 . S
C523 C532 1.429 . S
C524 C522 1.419 1_545 S
C524 C525 1.363 . S
C524 H527 0.929 . S
C525 C524 1.363 . S
C525 C531 1.428 . S
H526 C522 0.930 . S
H527 C524 0.929 . S
S528 N529 1.613 1_545 S
S528 N530 1.610 . S
N529 S528 1.613 1_565 S
N529 C532 1.350 . S
N530 S528 1.610 . S
N530 C531 1.351 . S
C531 C525 1.428 . S
C531 N530 1.351 . S
C531 C532 1.434 1_545 S
C532 C523 1.429 . S
C532 N529 1.350 . S
C532 C531 1.434 1_565 S
C533 C534 1.369 . S
C533 C535 1.419 1_655 S
C533 H537 0.930 . S
C534 C533 1.369 . S
C534 C543 1.429 . S
C535 C533 1.419 1_455 S
C535 C536 1.363 . S
C535 H538 0.929 . S
C536 C535 1.363 . S
C536 C542 1.428 . S
H537 C533 0.930 . S
H538 C535 0.929 . S
S539 N540 1.613 1_455 S
S539 N541 1.610 . S
N540 S539 1.613 1_655 S
N540 C543 1.350 . S
N541 S539 1.610 . S
N541 C542 1.351 . S
C542 C536 1.428 . S
C542 N541 1.351 . S
C542 C543 1.434 1_455 S
C543 C534 1.429 . S
C543 N540 1.350 . S
C543 C542 1.434 1_655 S
C544 C545 1.369 . S
C544 C546 1.419 . S
C544 H548 0.930 . S
C545 C544 1.369 . S
C545 C554 1.429 . S
C546 C544 1.419 . S
C546 C547 1.363 . S
C546 H549 0.929 . S
C547 C546 1.363 . S
C547 C553 1.428 . S
H548 C544 0.930 . S
H549 C546 0.929 . S
S550 N551 1.613 . S
S550 N552 1.610 . S
N551 S550 1.613 . S
N551 C554 1.350 1_556 S
N552 S550 1.610 . S
N552 C553 1.351 1_556 S
C553 C547 1.428 . S
C553 N552 1.351 1_554 S
C553 C554 1.434 . S
C554 C545 1.429 . S
C554 N551 1.350 1_554 S
C554 C553 1.434 . S
C555 C556 1.369 . S
C555 C557 1.419 . S
C555 H559 0.930 . S
C556 C555 1.369 . S
C556 C565 1.429 . S
C557 C555 1.419 . S
C557 C558 1.363 . S
C557 H560 0.929 . S
C558 C557 1.363 . S
C558 C564 1.428 . S
H559 C555 0.930 . S
H560 C557 0.929 . S
S561 N562 1.613 . S
S561 N563 1.610 . S
N562 S561 1.613 . S
N562 C565 1.350 . S
N563 S561 1.610 . S
N563 C564 1.351 . S
C564 C558 1.428 . S
C564 N563 1.351 . S
C564 C565 1.434 . S
C565 C556 1.429 . S
C565 N562 1.350 . S
C565 C564 1.434 . S
C566 C567 1.369 . S
C566 C568 1.419 . S
C566 H570 0.930 . S
C567 C566 1.369 . S
C567 C576 1.429 . S
C568 C566 1.419 . S
C568 C569 1.363 . S
C568 H571 0.929 . S
C569 C568 1.363 . S
C569 C575 1.428 . S
H570 C566 0.930 . S
H571 C568 0.929 . S
S572 N573 1.613 . S
S572 N574 1.610 . S
N573 S572 1.613 . S
N573 C576 1.350 . S
N574 S572 1.610 . S
N574 C575 1.351 . S
C575 C569 1.428 . S
C575 N574 1.351 . S
C575 C576 1.434 . S
C576 C567 1.429 . S
C576 N573 1.350 . S
C576 C575 1.434 . S
C577 C578 1.369 . S
C577 C579 1.419 . S
C577 H581 0.930 . S
C578 C577 1.369 . S
C578 C587 1.429 . S
C579 C577 1.419 . S
C579 C580 1.363 . S
C579 H582 0.929 . S
C580 C579 1.363 . S
C580 C586 1.428 . S
H581 C577 0.930 . S
H582 C579 0.929 . S
S583 N584 1.613 . S
S583 N585 1.610 . S
N584 S583 1.613 . S
N584 C587 1.350 1_554 S
N585 S583 1.610 . S
N585 C586 1.351 1_554 S
C586 C580 1.428 . S
C586 N585 1.351 1_556 S
C586 C587 1.434 . S
C587 C578 1.429 . S
C587 N584 1.350 1_556 S
C587 C586 1.434 . S
C588 C589 1.369 . S
C588 C590 1.419 . S
C588 H592 0.930 . S
C589 C588 1.369 . S
C589 C598 1.429 . S
C590 C588 1.419 . S
C590 C591 1.363 . S
C590 H593 0.929 . S
C591 C590 1.363 . S
C591 C597 1.428 . S
H592 C588 0.930 . S
H593 C590 0.929 . S
S594 N595 1.613 . S
S594 N596 1.610 . S
N595 S594 1.613 . S
N595 C598 1.350 . S
N596 S594 1.610 . S
N596 C597 1.351 . S
C597 C591 1.428 . S
C597 N596 1.351 . S
C597 C598 1.434 . S
C598 C589 1.429 . S
C598 N595 1.350 . S
C598 C597 1.434 . S
C599 C600 1.369 . S
C599 C601 1.419 . S
C599 H603 0.930 . S
C600 C599 1.369 . S
C600 C609 1.429 . S
C601 C599 1.419 . S
C601 C602 1.363 . S
C601 H604 0.929 . S
C602 C601 1.363 . S
C602 C608 1.428 . S
H603 C599 0.930 . S
H604 C601 0.929 . S
S605 N606 1.613 . S
S605 N607 1.610 . S
N606 S605 1.613 . S
N606 C609 1.350 . S
N607 S605 1.610 . S
N607 C608 1.351 . S
C608 C602 1.428 . S
C608 N607 1.351 . S
C608 C609 1.434 . S
C609 C600 1.429 . S
C609 N606 1.350 . S
C609 C608 1.434 . S
C610 C611 1.369 . S
C610 C612 1.419 . S
C610 H614 0.930 . S
C611 C610 1.369 . S
C611 C620 1.429 . S
C612 C610 1.419 . S
C612 C613 1.363 . S
C612 H615 0.929 . S
C613 C612 1.363 . S
C613 C619 1.428 . S
H614 C610 0.930 . S
H615 C612 0.929 . S
S616 N617 1.613 . S
S616 N618 1.610 . S
N617 S616 1.613 . S
N617 C620 1.350 . S
N618 S616 1.610 . S
N618 C619 1.351 . S
C619 C613 1.428 . S
C619 N618 1.351 . S
C619 C620 1.434 . S
C620 C611 1.429 . S
C620 N617 1.350 . S
C620 C619 1.434 . S
C621 C622 1.369 . S
C621 C623 1.419 . S
C621 H625 0.930 . S
C622 C621 1.369 . S
C622 C631 1.429 . S
C623 C621 1.419 . S
C623 C624 1.363 . S
C623 H626 0.929 . S
C624 C623 1.363 . S
C624 C630 1.428 . S
H625 C621 0.930 . S
H626 C623 0.929 . S
S627 N628 1.613 . S
S627 N629 1.610 . S
N628 S627 1.613 . S
N628 C631 1.350 . S
N629 S627 1.610 . S
N629 C630 1.351 . S
C630 C624 1.428 . S
C630 N629 1.351 . S
C630 C631 1.434 . S
C631 C622 1.429 . S
C631 N628 1.350 . S
C631 C630 1.434 . S
C632 C633 1.369 . S
C632 C634 1.419 . S
C632 H636 0.930 . S
C633 C632 1.369 . S
C633 C642 1.429 . S
C634 C632 1.419 . S
C634 C635 1.363 . S
C634 H637 0.929 . S
C635 C634 1.363 . S
C635 C641 1.428 . S
H636 C632 0.930 . S
H637 C634 0.929 . S
S638 N639 1.613 . S
S638 N640 1.610 . S
N639 S638 1.613 . S
N639 C642 1.350 . S
N640 S638 1.610 . S
N640 C641 1.351 . S
C641 C635 1.428 . S
C641 N640 1.351 . S
C641 C642 1.434 . S
C642 C633 1.429 . S
C642 N639 1.350 . S
C642 C641 1.434 . S
C643 C644 1.369 . S
C643 C645 1.419 . S
C643 H647 0.930 . S
C644 C643 1.369 . S
C644 C653 1.429 . S
C645 C643 1.419 . S
C645 C646 1.363 . S
C645 H648 0.929 . S
C646 C645 1.363 . S
C646 C652 1.428 . S
H647 C643 0.930 . S
H648 C645 0.929 . S
S649 N650 1.613 . S
S649 N651 1.610 . S
N650 S649 1.613 . S
N650 C653 1.350 . S
N651 S649 1.610 . S
N651 C652 1.351 . S
C652 C646 1.428 . S
C652 N651 1.351 . S
C652 C653 1.434 . S
C653 C644 1.429 . S
C653 N650 1.350 . S
C653 C652 1.434 . S
C654 C655 1.369 . S
C654 C656 1.419 . S
C654 H658 0.930 . S
C655 C654 1.369 . S
C655 C664 1.429 . S
C656 C654 1.419 . S
C656 C657 1.363 . S
C656 H659 0.929 . S
C657 C656 1.363 . S
C657 C663 1.428 . S
H658 C654 0.930 . S
H659 C656 0.929 . S
S660 N661 1.613 . S
S660 N662 1.610 . S
N661 S660 1.613 . S
N661 C664 1.350 . S
N662 S660 1.610 . S
N662 C663 1.351 . S
C663 C657 1.428 . S
C663 N662 1.351 . S
C663 C664 1.434 . S
C664 C655 1.429 . S
C664 N661 1.350 . S
C664 C663 1.434 . S
C665 C666 1.369 . S
C665 C667 1.419 . S
C665 H669 0.930 . S
C666 C665 1.369 . S
C666 C675 1.429 . S
C667 C665 1.419 . S
C667 C668 1.363 . S
C667 H670 0.929 . S
C668 C667 1.363 . S
C668 C674 1.428 . S
H669 C665 0.930 . S
H670 C667 0.929 . S
S671 N672 1.613 . S
S671 N673 1.610 . S
N672 S671 1.613 . S
N672 C675 1.350 . S
N673 S671 1.610 . S
N673 C674 1.351 . S
C674 C668 1.428 . S
C674 N673 1.351 . S
C674 C675 1.434 . S
C675 C666 1.429 . S
C675 N672 1.350 . S
C675 C674 1.434 . S
C676 C677 1.369 . S
C676 C678 1.419 . S
C676 H680 0.930 . S
C677 C676 1.369 . S
C677 C686 1.429 . S
C678 C676 1.419 . S
C678 C679 1.363 . S
C678 H681 0.929 . S
C679 C678 1.363 . S
C679 C685 1.428 . S
H680 C676 0.930 . S
H681 C678 0.929 . S
S682 N683 1.613 . S
S682 N684 1.610 . S
N683 S682 1.613 . S
N683 C686 1.350 . S
N684 S682 1.610 . S
N684 C685 1.351 . S
C685 C679 1.428 . S
C685 N684 1.351 . S
C685 C686 1.434 . S
C686 C677 1.429 . S
C686 N683 1.350 . S
C686 C685 1.434 . S
C687 C688 1.369 . S
C687 C689 1.419 . S
C687 H691 0.930 . S
C688 C687 1.369 . S
C688 C697 1.429 . S
C689 C687 1.419 . S
C689 C690 1.363 . S
C689 H692 0.929 . S
C690 C689 1.363 . S
C690 C696 1.428 . S
H691 C687 0.930 . S
H692 C689 0.929 . S
S693 N694 1.613 . S
S693 N695 1.610 . S
N694 S693 1.613 . S
N694 C697 1.350 . S
N695 S693 1.610 . S
N695 C696 1.351 . S
C696 C690 1.428 . S
C696 N695 1.351 . S
C696 C697 1.434 . S
C697 C688 1.429 . S
C697 N694 1.350 . S
C697 C696 1.434 . S
C698 C699 1.369 . S
C698 C700 1.419 . S
C698 H702 0.930 . S
C699 C698 1.369 . S
C699 C708 1.429 . S
C700 C698 1.419 . S
C700 C701 1.363 . S
C700 H703 0.929 . S
C701 C700 1.363 . S
C701 C707 1.428 . S
H702 C698 0.930 . S
H703 C700 0.929 . S
S704 N705 1.613 . S
S704 N706 1.610 . S
N705 S704 1.613 . S
N705 C708 1.350 . S
N706 S704 1.610 . S
N706 C707 1.351 . S
C707 C701 1.428 . S
C707 N706 1.351 . S
C707 C708 1.434 . S
C708 C699 1.429 . S
C708 N705 1.350 . S
C708 C707 1.434 . S
C709 C710 1.369 . S
C709 C711 1.419 . S
C709 H713 0.930 . S
C710 C709 1.369 . S
C710 C719 1.429 . S
C711 C709 1.419 . S
C711 C712 1.363 . S
C711 H714 0.929 . S
C712 C711 1.363 . S
C712 C718 1.428 . S
H713 C709 0.930 . S
H714 C711 0.929 . S
S715 N716 1.613 . S
S715 N717 1.610 . S
N716 S715 1.613 . S
N716 C719 1.350 . S
N717 S715 1.610 . S
N717 C718 1.351 . S
C718 C712 1.428 . S
C718 N717 1.351 . S
C718 C719 1.434 . S
C719 C710 1.429 . S
C719 N716 1.350 . S
C719 C718 1.434 . S
C369 N255 1.473 . S
C371 C16 1.618 . S
C380 C39 1.617 . S
C382 N186 1.477 . S
C391 C62 1.616 . S
C393 N209 1.472 . S
C402 N232 1.480 . S
C404 C85 1.617 . S
C413 C108 1.617 . S
C415 N117 1.472 1_554 S
C424 C131 1.619 . S
C426 N140 1.480 1_556 S
C435 N163 1.471 1_554 S
C437 C154 1.617 . S
C446 N94 1.480 1_556 S
C448 C177 1.617 . S
C457 N71 1.470 . S
C459 C200 1.617 . S
C468 C223 1.616 . S
C470 N2 1.473 . S
C479 N25 1.472 . S
C481 C246 1.618 . S
C490 C269 1.618 . S
C492 N48 1.473 . S
C501 C292 1.617 . S
C503 N301 1.480 . S
C512 C315 1.616 . S
C514 N324 1.472 . S
C523 N347 1.471 . S
C525 C338 1.617 . S
C534 N278 1.479 . S
C536 C361 1.619 . S
C545 C99 1.408 . S
C547 C7 1.412 . S
C556 C30 1.408 . S
C558 C122 1.412 . S
C567 C53 1.410 . S
C569 C145 1.412 . S
C578 C168 1.407 . S
C580 C76 1.412 . S
C589 C191 1.413 . S
C591 C283 1.409 . S
C600 C306 1.409 . S
C602 C214 1.412 . S
C611 C237 1.412 . S
C613 C329 1.410 . S
C622 C352 1.411 . S
C624 C260 1.411 . S
C633 N334 1.786 . S
C635 N12 1.784 1_556 S
C644 N357 1.788 . S
C646 N35 1.785 1_554 S
C655 N58 1.790 1_556 S
C657 N288 1.789 . S
C666 N311 1.783 . S
C668 N81 1.785 1_554 S
C677 N242 1.788 . S
C679 N104 1.786 . S
C688 N265 1.786 . S
C690 N127 1.789 . S
C699 N150 1.787 . S
C701 N196 1.789 . S
C710 N219 1.790 . S
C712 N173 1.787 . S
