# Generated by pormake.
# Topology wka, (5)-cn, num edge types: 1
# Building blocks:
#     Node 0, Type 0, BuildingBlock: XOMCOT_clean_sbu_1, # of connection points: 5
#     Node 1, Type 0, BuildingBlock: XOMCOT_clean_sbu_1, # of connection points: 5
#     Node 2, Type 0, BuildingBlock: XOMCOT_clean_sbu_1, # of connection points: 5
#     Node 3, Type 0, BuildingBlock: XOMCOT_clean_sbu_1, # of connection points: 5
#     Node 4, Type 0, BuildingBlock: XOMCOT_clean_sbu_1, # of connection points: 5
#     Node 5, Type 0, BuildingBlock: XOMCOT_clean_sbu_1, # of connection points: 5
#     Node 6, Type 0, BuildingBlock: XOMCOT_clean_sbu_1, # of connection points: 5
#     Node 7, Type 0, BuildingBlock: XOMCOT_clean_sbu_1, # of connection points: 5
#     Node 8, Type 0, BuildingBlock: XOMCOT_clean_sbu_1, # of connection points: 5
#     Node 9, Type 0, BuildingBlock: XOMCOT_clean_sbu_1, # of connection points: 5
#     Node 10, Type 0, BuildingBlock: XOMCOT_clean_sbu_1, # of connection points: 5
#     Node 11, Type 0, BuildingBlock: XOMCOT_clean_sbu_1, # of connection points: 5
#     Edge 12, Type (0, 0), BuildingBlock: TEMPAE_clean_linker_10, # of connection points: 2
#     Edge 13, Type (0, 0), BuildingBlock: TEMPAE_clean_linker_10, # of connection points: 2
#     Edge 14, Type (0, 0), BuildingBlock: TEMPAE_clean_linker_10, # of connection points: 2
#     Edge 15, Type (0, 0), BuildingBlock: TEMPAE_clean_linker_10, # of connection points: 2
#     Edge 16, Type (0, 0), BuildingBlock: TEMPAE_clean_linker_10, # of connection points: 2
#     Edge 17, Type (0, 0), BuildingBlock: TEMPAE_clean_linker_10, # of connection points: 2
#     Edge 18, Type (0, 0), BuildingBlock: TEMPAE_clean_linker_10, # of connection points: 2
#     Edge 19, Type (0, 0), BuildingBlock: TEMPAE_clean_linker_10, # of connection points: 2
#     Edge 20, Type (0, 0), BuildingBlock: TEMPAE_clean_linker_10, # of connection points: 2
#     Edge 21, Type (0, 0), BuildingBlock: TEMPAE_clean_linker_10, # of connection points: 2
#     Edge 22, Type (0, 0), BuildingBlock: TEMPAE_clean_linker_10, # of connection points: 2
#     Edge 23, Type (0, 0), BuildingBlock: TEMPAE_clean_linker_10, # of connection points: 2
#     Edge 24, Type (0, 0), BuildingBlock: TEMPAE_clean_linker_10, # of connection points: 2
#     Edge 25, Type (0, 0), BuildingBlock: TEMPAE_clean_linker_10, # of connection points: 2
#     Edge 26, Type (0, 0), BuildingBlock: TEMPAE_clean_linker_10, # of connection points: 2
#     Edge 27, Type (0, 0), BuildingBlock: TEMPAE_clean_linker_10, # of connection points: 2
#     Edge 28, Type (0, 0), BuildingBlock: TEMPAE_clean_linker_10, # of connection points: 2
#     Edge 29, Type (0, 0), BuildingBlock: TEMPAE_clean_linker_10, # of connection points: 2
#     Edge 30, Type (0, 0), BuildingBlock: TEMPAE_clean_linker_10, # of connection points: 2
#     Edge 31, Type (0, 0), BuildingBlock: TEMPAE_clean_linker_10, # of connection points: 2
#     Edge 32, Type (0, 0), BuildingBlock: TEMPAE_clean_linker_10, # of connection points: 2
#     Edge 33, Type (0, 0), BuildingBlock: TEMPAE_clean_linker_10, # of connection points: 2
#     Edge 34, Type (0, 0), BuildingBlock: TEMPAE_clean_linker_10, # of connection points: 2
#     Edge 35, Type (0, 0), BuildingBlock: TEMPAE_clean_linker_10, # of connection points: 2
#     Edge 36, Type (0, 0), BuildingBlock: TEMPAE_clean_linker_10, # of connection points: 2
#     Edge 37, Type (0, 0), BuildingBlock: TEMPAE_clean_linker_10, # of connection points: 2
#     Edge 38, Type (0, 0), BuildingBlock: TEMPAE_clean_linker_10, # of connection points: 2
#     Edge 39, Type (0, 0), BuildingBlock: TEMPAE_clean_linker_10, # of connection points: 2
#     Edge 40, Type (0, 0), BuildingBlock: TEMPAE_clean_linker_10, # of connection points: 2
#     Edge 41, Type (0, 0), BuildingBlock: TEMPAE_clean_linker_10, # of connection points: 2
# Relax obj value: 0.231
# Max RMSD: 0.181
# Mean RMSD: 0.181
data_MOF--net-wka--node1-XOMCOT_clean_sbu_1--edge1-TEMPAE_clean_linker_10
_symmetry_space_group_name_H-M    P1
_symmetry_Int_Tables_number       1
_symmetry_cell_setting            triclinic
loop_
_symmetry_equiv_pos_as_xyz
'x, y, z'
_cell_length_a     68.130866
_cell_length_b     68.099781
_cell_length_c     17.27893
_cell_angle_alpha  89.981878
_cell_angle_beta   89.976103
_cell_angle_gamma 120.00403
loop_
_atom_site_label
_atom_site_type_symbol
_atom_site_fract_x
_atom_site_fract_y
_atom_site_fract_z
_atom_type_partial_charge
C0 C 0.14468 0.44856 0.97557 0.0
C1 C 0.14998 0.45043 0.89805 0.0
N2 N 0.13587 0.43047 0.86366 0.0
N3 N 0.12731 0.42754 0.98991 0.0
C4 C 0.12248 0.41691 0.92093 0.0
H5 H 0.15262 0.4618 0.01855 0.0
Co6 Co 0.11279 0.41686 0.0843 0.0
C7 C 0.07547 0.37392 0.01255 0.0
O8 O 0.08493 0.36187 0.03127 0.0
N9 N 0.09859 0.40643 0.17842 0.0
C10 C 0.07426 0.39256 0.27601 0.0
C11 C 0.07642 0.39605 0.19723 0.0
C12 C 0.10953 0.40912 0.2458 0.0
N13 N 0.09517 0.40081 0.30631 0.0
O14 O 0.12468 0.39635 0.09219 0.0
H15 H 0.06276 0.39178 0.15681 0.0
H16 H 0.12781 0.4179 0.25057 0.0
O17 O 0.0851 0.39486 0.031 0.0
C18 C 0.14559 0.40743 0.11134 0.0
O19 O 0.15544 0.42958 0.11744 0.0
N20 N 0.10343 0.43843 0.08161 0.0
C21 C 0.09644 0.47548 0.08326 0.0
C22 C 0.08537 0.45803 0.0287 0.0
C23 C 0.08933 0.4397 0.02818 0.0
C24 C 0.11409 0.4551 0.13534 0.0
C25 C 0.11079 0.4737 0.13741 0.0
H26 H 0.08173 0.42708 0.98325 0.0
H27 H 0.12572 0.45419 0.17581 0.0
H28 H 0.10878 0.39983 0.91208 0.0
H29 H 0.16295 0.46547 0.86931 0.0
H30 H 0.05856 0.38479 0.30842 0.0
H31 H 0.07449 0.459 0.98502 0.0
H32 H 0.11961 0.48673 0.18061 0.0
C33 C 0.69712 0.13749 0.17818 0.0
C34 C 0.69978 0.14279 0.10061 0.0
N35 N 0.70696 0.12985 0.06549 0.0
N36 N 0.7023 0.12109 0.19128 0.0
C37 C 0.70857 0.11705 0.12184 0.0
H38 H 0.69093 0.14445 0.2218 0.0
Co39 Co 0.69894 0.10619 0.28423 0.0
C40 C 0.67823 0.05815 0.23118 0.0
O41 O 0.663 0.05239 0.28631 0.0
N42 N 0.69664 0.09213 0.37959 0.0
C43 C 0.70068 0.07293 0.47695 0.0
C44 C 0.69899 0.07408 0.39802 0.0
C45 C 0.69849 0.10242 0.44813 0.0
N46 N 0.70052 0.0909 0.50799 0.0
O47 O 0.73133 0.11864 0.29057 0.0
H48 H 0.70132 0.0634 0.35734 0.0
H49 H 0.69975 0.11882 0.45382 0.0
O50 O 0.69431 0.07884 0.2262 0.0
C51 C 0.74032 0.13902 0.31522 0.0
O52 O 0.72726 0.14787 0.32597 0.0
N53 N 0.66731 0.09625 0.28138 0.0
C54 C 0.6235 0.09001 0.27322 0.0
C55 C 0.63168 0.0819 0.21436 0.0
C56 C 0.65387 0.08578 0.2184 0.0
C57 C 0.65953 0.10449 0.33837 0.0
C58 C 0.63769 0.10144 0.33571 0.0
H59 H 0.6605 0.08123 0.16907 0.0
H60 H 0.67063 0.11476 0.38401 0.0
H61 H 0.71309 0.10412 0.11183 0.0
H62 H 0.69614 0.15474 0.07196 0.0
H63 H 0.70347 0.06081 0.50858 0.0
H64 H 0.62145 0.07372 0.16373 0.0
H65 H 0.63216 0.10855 0.38112 0.0
C66 C 0.56099 0.69203 0.32035 0.0
C67 C 0.55813 0.69451 0.24274 0.0
N68 N 0.57855 0.7036 0.20798 0.0
N69 N 0.58304 0.69919 0.33387 0.0
C70 C 0.59334 0.70654 0.26475 0.0
H71 H 0.54778 0.68474 0.36371 0.0
Co72 Co 0.59605 0.6978 0.42689 0.0
C73 C 0.62436 0.67848 0.37071 0.0
O74 O 0.61523 0.66276 0.42446 0.0
N75 N 0.60934 0.69774 0.52196 0.0
C76 C 0.63233 0.70156 0.61972 0.0
C77 C 0.62911 0.69879 0.541 0.0
C78 C 0.60179 0.70149 0.58955 0.0
N79 N 0.61509 0.7033 0.64991 0.0
O80 O 0.61451 0.73053 0.42799 0.0
H81 H 0.64134 0.69901 0.50088 0.0
H82 H 0.58676 0.70302 0.59421 0.0
O83 O 0.61915 0.69416 0.36756 0.0
C84 C 0.60247 0.73914 0.44925 0.0
O85 O 0.58066 0.72548 0.46031 0.0
N86 N 0.57587 0.66554 0.4296 0.0
C87 C 0.54 0.62023 0.43095 0.0
C88 C 0.55319 0.6298 0.3641 0.0
C89 C 0.57103 0.65234 0.36475 0.0
C90 C 0.56325 0.65639 0.49491 0.0
C91 C 0.5459 0.63381 0.49755 0.0
H92 H 0.58027 0.65949 0.31163 0.0
H93 H 0.56564 0.66665 0.54501 0.0
H94 H 0.61124 0.71307 0.25554 0.0
H95 H 0.54222 0.68957 0.21395 0.0
H96 H 0.6467 0.70316 0.65183 0.0
H97 H 0.54925 0.62044 0.31036 0.0
H98 H 0.53677 0.6274 0.55138 0.0
C99 C 0.8677 0.56072 0.47941 0.0
C100 C 0.86387 0.55564 0.40181 0.0
N101 N 0.88139 0.57215 0.3625 0.0
N102 N 0.88738 0.58043 0.48819 0.0
C103 C 0.89523 0.58699 0.41581 0.0
H104 H 0.85715 0.55036 0.52652 0.0
Co105 Co 0.9008 0.59333 0.58147 0.0
C106 C 0.94915 0.62868 0.54323 0.0
O107 O 0.95645 0.62484 0.60868 0.0
N108 N 0.91324 0.60594 0.67683 0.0
C109 C 0.92566 0.62996 0.77587 0.0
C110 C 0.92341 0.62805 0.69683 0.0
C111 C 0.90869 0.59479 0.74468 0.0
N112 N 0.9162 0.60891 0.80589 0.0
O113 O 0.88606 0.61138 0.58157 0.0
H114 H 0.92777 0.64186 0.65683 0.0
H115 H 0.89812 0.57669 0.74992 0.0
O116 O 0.92795 0.61748 0.5266 0.0
C117 C 0.86655 0.59984 0.61296 0.0
O118 O 0.85996 0.57896 0.63476 0.0
N119 N 0.91284 0.57358 0.58448 0.0
C120 C 0.92199 0.53777 0.58881 0.0
C121 C 0.93528 0.55712 0.5436 0.0
C122 C 0.93024 0.57472 0.54135 0.0
C123 C 0.89914 0.55435 0.62525 0.0
C124 C 0.90367 0.53655 0.62974 0.0
H125 H 0.93972 0.58853 0.50195 0.0
H126 H 0.88394 0.5524 0.65215 0.0
H127 H 0.9108 0.60229 0.40174 0.0
H128 H 0.84978 0.54071 0.37644 0.0
H129 H 0.93276 0.6456 0.80845 0.0
H130 H 0.94917 0.55846 0.50911 0.0
H131 H 0.89227 0.52151 0.66235 0.0
C132 C 0.31705 0.86991 0.6678 0.0
C133 C 0.31423 0.86446 0.59037 0.0
N134 N 0.30682 0.8772 0.55522 0.0
N135 N 0.31175 0.88623 0.68081 0.0
C136 C 0.3052 0.89003 0.61146 0.0
H137 H 0.32346 0.86315 0.71134 0.0
Co138 Co 0.31512 0.90129 0.77377 0.0
C139 C 0.33616 0.94899 0.71931 0.0
O140 O 0.35165 0.95437 0.77322 0.0
N141 N 0.31718 0.9153 0.86905 0.0
C142 C 0.3137 0.93468 0.96689 0.0
C143 C 0.31581 0.93387 0.888 0.0
C144 C 0.31434 0.90444 0.93708 0.0
N145 N 0.31265 0.91604 -0.00264 0.0
O146 O 0.28261 0.88845 0.78023 0.0
H147 H 0.31458 0.9453 0.84768 0.0
H148 H 0.3127 0.88784 0.94193 0.0
O149 O 0.31955 0.92853 0.71543 0.0
C150 C 0.27356 0.86785 0.80269 0.0
O151 O 0.28665 0.85897 0.81213 0.0
N152 N 0.34707 0.91187 0.77054 0.0
C153 C 0.39168 0.92022 0.76134 0.0
C154 C 0.38146 0.92409 0.69743 0.0
C155 C 0.3592 0.91988 0.70322 0.0
C156 C 0.35687 0.90776 0.83278 0.0
C157 C 0.37927 0.91231 0.82997 0.0
H158 H 0.35146 0.92232 0.65233 0.0
H159 H 0.34722 0.89989 0.8841 0.0
H160 H 0.30054 0.90285 0.6014 0.0
H161 H 0.31797 0.85256 0.56178 0.0
H162 H 0.31166 0.94722 -0.00113 0.0
H163 H 0.39046 0.9299 0.64301 0.0
H164 H 0.38644 0.90852 0.87986 0.0
C165 C 0.45091 0.31063 0.80297 0.0
C166 C 0.45292 0.30723 0.72555 0.0
N167 N 0.43303 0.30138 0.69071 0.0
N168 N 0.42988 0.30696 0.81684 0.0
C169 C 0.41938 0.30122 0.74764 0.0
H170 H 0.46407 0.31591 0.84623 0.0
Co171 Co 0.41913 0.3107 0.91117 0.0
C172 C 0.37593 0.30425 0.83827 0.0
O173 O 0.36427 0.2825 0.85432 0.0
N174 N 0.40871 0.31438 0.00527 0.0
C175 C 0.39497 0.32483 0.10322 0.0
C176 C 0.39826 0.32609 0.02433 0.0
C177 C 0.41163 0.30624 0.07255 0.0
N178 N 0.4034 0.3123 0.13324 0.0
O179 O 0.39904 0.27821 0.91987 0.0
H180 H 0.39384 0.3354 0.98399 0.0
H181 H 0.42052 0.29685 0.07712 0.0
O182 O 0.3967 0.31582 0.85825 0.0
C183 C 0.41018 0.2684 0.93869 0.0
O184 O 0.43234 0.28071 0.94384 0.0
N185 N 0.44023 0.34179 0.90764 0.0
C186 C 0.47588 0.38669 0.91045 0.0
C187 C 0.45851 0.37949 0.85499 0.0
C188 C 0.4409 0.35687 0.85408 0.0
C189 C 0.45695 0.34839 0.9614 0.0
C190 C 0.47485 0.37069 0.96403 0.0
H191 H 0.42822 0.35144 0.8092 0.0
H192 H 0.45663 0.33606 0.00164 0.0
H193 H 0.40233 0.29786 0.73838 0.0
H194 H 0.468 0.30928 0.69724 0.0
H195 H 0.38724 0.33275 0.13592 0.0
H196 H 0.45858 0.39116 0.81227 0.0
H197 H 0.48813 0.37513 0.00639 0.0
C198 C 0.56454 0.87064 0.8327 0.0
C199 C 0.56202 0.86527 0.91025 0.0
N200 N 0.5822 0.87811 0.94509 0.0
N201 N 0.58612 0.88701 0.8193 0.0
C202 C 0.59655 0.89089 0.88851 0.0
H203 H 0.55132 0.86381 0.78938 0.0
Co204 Co 0.59779 0.90217 0.72635 0.0
C205 C 0.62416 0.94979 0.78228 0.0
O206 O 0.61417 0.95537 0.72849 0.0
N207 N 0.60977 0.91634 0.63118 0.0
C208 C 0.63252 0.93606 0.53347 0.0
C209 C 0.62952 0.93516 0.61236 0.0
C210 C 0.60196 0.90546 0.56309 0.0
N211 N 0.61518 0.91725 0.50289 0.0
O212 O 0.6176 0.88951 0.71994 0.0
H213 H 0.64201 0.94674 0.65274 0.0
H214 H 0.58717 0.88874 0.55811 0.0
O215 O 0.62041 0.92935 0.78513 0.0
C216 C 0.6062 0.86893 0.69717 0.0
O217 O 0.58424 0.85991 0.6874 0.0
N218 N 0.5763 0.91259 0.72946 0.0
C219 C 0.53989 0.92073 0.73803 0.0
C220 C 0.55388 0.92457 0.8022 0.0
C221 C 0.572 0.92046 0.79673 0.0
C222 C 0.5625 0.90852 0.66696 0.0
C223 C 0.54457 0.91295 0.66946 0.0
H224 H 0.5821 0.92287 0.84782 0.0
H225 H 0.56443 0.90075 0.61563 0.0
H226 H 0.61402 0.90374 0.89824 0.0
H227 H 0.54644 0.85336 0.93909 0.0
H228 H 0.64698 0.94881 0.50157 0.0
H229 H 0.55057 0.9303 0.85657 0.0
H230 H 0.5337 0.90918 0.61935 0.0
C231 C 0.70145 0.56203 0.01026 0.0
C232 C 0.70493 0.56021 0.08774 0.0
N233 N 0.70989 0.57988 0.12257 0.0
N234 N 0.7042 0.58273 0.99634 0.0
C235 C 0.70948 0.59322 0.06559 0.0
H236 H 0.69666 0.54893 0.96705 0.0
Co237 Co 0.69966 0.59294 0.90212 0.0
C238 C 0.70522 0.63602 0.97297 0.0
O239 O 0.72665 0.64818 0.95314 0.0
N240 N 0.69518 0.60283 0.80815 0.0
C241 C 0.68394 0.61597 0.71058 0.0
C242 C 0.68292 0.61273 0.78949 0.0
C243 C 0.70337 0.60016 0.74061 0.0
N244 N 0.69687 0.60805 0.68016 0.0
O245 O 0.73195 0.61367 0.89172 0.0
H246 H 0.67347 0.61687 0.83016 0.0
H247 H 0.71319 0.59172 0.73569 0.0
O248 O 0.69401 0.61502 0.95528 0.0
C249 C 0.74192 0.60279 0.87158 0.0
O250 O 0.72987 0.5806 0.86631 0.0
N251 N 0.66883 0.57117 0.90724 0.0
C252 C 0.6249 0.534 0.90871 0.0
C253 C 0.63145 0.5517 0.96231 0.0
C254 C 0.65368 0.57008 0.96132 0.0
C255 C 0.66268 0.55423 0.8545 0.0
C256 C 0.64082 0.53554 0.85404 0.0
H257 H 0.65885 0.58292 0.00554 0.0
H258 H 0.67505 0.55501 0.8135 0.0
H259 H 0.712 0.60998 0.07493 0.0
H260 H 0.70347 0.54538 0.11617 0.0
H261 H 0.67564 0.62337 0.67818 0.0
H262 H 0.61976 0.55092 0.00636 0.0
H263 H 0.63646 0.52228 0.81161 0.0
C264 C 0.1437 0.69401 0.20865 0.0
C265 C 0.14758 0.69666 0.28713 0.0
N266 N 0.13689 0.70721 0.31641 0.0
N267 N 0.13045 0.70266 0.18859 0.0
C268 C 0.12715 0.7111 0.25469 0.0
H269 H 0.14893 0.68505 0.16973 0.0
Co270 Co 0.11565 0.69934 0.09511 0.0
C271 C 0.077 0.7044 0.15728 0.0
O272 O 0.08081 0.72119 0.11068 0.0
N273 N 0.10084 0.69589 0.00241 0.0
C274 C 0.0759 0.68249 0.90648 0.0
C275 C 0.07879 0.68196 0.98514 0.0
C276 C 0.11097 0.70477 0.93419 0.0
N277 N 0.09619 0.69688 0.87486 0.0
O278 O 0.12859 0.73191 0.08738 0.0
H279 H 0.06591 0.67124 0.02639 0.0
H280 H 0.12909 0.71565 0.92751 0.0
O281 O 0.08931 0.69522 0.15283 0.0
C282 C 0.14956 0.74123 0.06928 0.0
O283 O 0.15887 0.72838 0.06508 0.0
N284 N 0.10501 0.66807 0.09737 0.0
C285 C 0.09521 0.62302 0.09076 0.0
C286 C 0.08454 0.62988 0.14547 0.0
C287 C 0.08976 0.65256 0.14812 0.0
C288 C 0.11547 0.66174 0.04392 0.0
C289 C 0.11083 0.63938 0.0395 0.0
H290 H 0.08188 0.65762 0.19185 0.0
H291 H 0.1279 0.67435 0.00537 0.0
H292 H 0.1169 0.71908 0.25755 0.0
H293 H 0.15628 0.68985 0.32029 0.0
H294 H 0.06029 0.67251 0.87469 0.0
H295 H 0.07235 0.61788 0.18616 0.0
H296 H 0.11996 0.63516 -0.00237 0.0
C297 C 0.45167 0.13896 0.33645 0.0
C298 C 0.45454 0.14418 0.41403 0.0
N299 N 0.4343 0.13196 0.44918 0.0
N300 N 0.42981 0.12332 0.32343 0.0
C301 C 0.41958 0.11965 0.39291 0.0
H302 H 0.4648 0.14548 0.29272 0.0
Co303 Co 0.4177 0.1089 0.23041 0.0
C304 C 0.38921 0.06078 0.28023 0.0
O305 O 0.39806 0.05509 0.22287 0.0
N306 N 0.4054 0.09535 0.13497 0.0
C307 C 0.38146 0.07719 0.03816 0.0
C308 C 0.38437 0.0783 0.11705 0.0
C309 C 0.41422 0.10525 0.06621 0.0
N310 N 0.40026 0.0943 0.00668 0.0
O311 O 0.3986 0.12242 0.22617 0.0
H312 H 0.37113 0.06835 0.15815 0.0
H313 H 0.42997 0.12108 0.06006 0.0
O314 O 0.39453 0.08163 0.288 0.0
C315 C 0.41065 0.14287 0.20267 0.0
O316 O 0.43243 0.15084 0.19152 0.0
N317 N 0.4386 0.09791 0.23141 0.0
C318 C 0.47516 0.08969 0.23769 0.0
C319 C 0.45869 0.0819 0.29646 0.0
C320 C 0.44103 0.08676 0.2934 0.0
C321 C 0.45469 0.10596 0.17472 0.0
C322 C 0.47287 0.10191 0.1763 0.0
H323 H 0.42985 0.08228 0.34271 0.0
H324 H 0.45449 0.11691 0.13036 0.0
H325 H 0.40193 0.10734 0.40292 0.0
H326 H 0.47034 0.15559 0.44268 0.0
H327 H 0.36617 0.06579 0.00684 0.0
H328 H 0.45964 0.07259 0.3457 0.0
H329 H 0.48562 0.10938 0.13145 0.0
C330 C 0.31631 0.4487 0.5026 0.0
C331 C 0.3136 0.45091 0.58068 0.0
N332 N 0.30661 0.43062 0.61405 0.0
N333 N 0.31115 0.42717 0.48803 0.0
C334 C 0.30492 0.41654 0.5568 0.0
H335 H 0.32255 0.46208 0.45979 0.0
Co336 Co 0.31343 0.4149 0.39525 0.0
C337 C 0.33265 0.38626 0.44711 0.0
O338 O 0.3478 0.39534 0.39159 0.0
N339 N 0.3143 0.40224 0.30051 0.0
C340 C 0.3072 0.37796 0.20362 0.0
C341 C 0.3099 0.38107 0.28244 0.0
C342 C 0.3128 0.41099 0.23231 0.0
N343 N 0.30922 0.39696 0.17263 0.0
O344 O 0.28077 0.39608 0.39139 0.0
H345 H 0.30708 0.36797 0.32356 0.0
H346 H 0.3126 0.42673 0.22689 0.0
O347 O 0.31714 0.39163 0.4531 0.0
C348 C 0.27217 0.40801 0.36857 0.0
O349 O 0.28579 0.42981 0.35722 0.0
N350 N 0.34565 0.43546 0.39595 0.0
C351 C 0.39079 0.47164 0.40124 0.0
C352 C 0.38085 0.4573 0.46543 0.0
C353 C 0.35839 0.43935 0.46153 0.0
C354 C 0.35515 0.44931 0.33345 0.0
C355 C 0.37766 0.4668 0.33392 0.0
H356 H 0.35092 0.42926 0.51288 0.0
H357 H 0.34527 0.44792 0.28351 0.0
H358 H 0.29988 0.39895 0.56577 0.0
H359 H 0.31773 0.46639 0.61115 0.0
H360 H 0.30339 0.36275 0.17191 0.0
H361 H 0.38988 0.46042 0.51964 0.0
H362 H 0.38435 0.47687 0.28198 0.0
C363 C 0.86922 0.31507 0.6923 0.0
C364 C 0.86613 0.31567 0.77095 0.0
N365 N 0.8813 0.31168 0.80683 0.0
N366 N 0.88621 0.31069 0.67965 0.0
C367 C 0.89286 0.30829 0.75049 0.0
H368 H 0.86044 0.3187 0.64735 0.0
Co369 Co 0.89979 0.31161 0.58623 0.0
C370 C 0.94834 0.32779 0.62618 0.0
O371 O 0.95451 0.34055 0.56377 0.0
N372 N 0.91286 0.31181 0.49128 0.0
C373 C 0.92735 0.30067 0.39691 0.0
C374 C 0.9239 0.3004 0.47528 0.0
C375 C 0.90929 0.31829 0.42149 0.0
N376 N 0.91807 0.31193 0.36337 0.0
O377 O 0.88554 0.27887 0.58581 0.0
H378 H 0.92808 0.29135 0.51753 0.0
H379 H 0.89874 0.32568 0.41188 0.0
O380 O 0.92716 0.3152 0.64119 0.0
C381 C 0.86531 0.2706 0.56044 0.0
O382 O 0.85785 0.28462 0.54498 0.0
N383 N 0.91122 0.34336 0.58373 0.0
C384 C 0.91841 0.38772 0.58347 0.0
C385 C 0.93067 0.38154 0.63351 0.0
C386 C 0.92646 0.35915 0.63402 0.0
C387 C 0.89855 0.34893 0.53745 0.0
C388 C 0.90226 0.37099 0.5347 0.0
H389 H 0.9345 0.35442 0.67816 0.0
H390 H 0.88445 0.33583 0.50559 0.0
H391 H 0.90639 0.30477 0.76132 0.0
H392 H 0.85462 0.31997 0.79942 0.0
H393 H 0.93512 0.29237 0.36678 0.0
H394 H 0.94255 0.39355 0.67482 0.0
H395 H 0.89201 0.37469 0.49606 0.0
C396 C 0.08911 0.58756 0.15784 0.0
C397 C 0.09111 0.59934 0.08888 0.0
C398 C 0.08764 0.56621 0.15688 0.0
C399 C 0.08841 0.55646 0.08533 0.0
C400 C 0.08946 0.5678 0.01545 0.0
C401 C 0.09066 0.58899 0.01806 0.0
C402 C 0.08631 0.55457 0.23268 0.0
C403 C 0.09037 0.55805 0.93793 0.0
C404 C 0.11346 0.5176 0.08704 0.0
C405 C 0.09409 0.49604 0.08195 0.0
C406 C 0.11178 0.53731 0.0877 0.0
C407 C 0.09017 0.53549 0.08383 0.0
C408 C 0.07051 0.51377 0.0783 0.0
C409 C 0.07272 0.49429 0.07687 0.0
C410 C 0.1332 0.56012 0.09248 0.0
C411 C 0.04718 0.51112 0.07487 0.0
H412 H 0.08964 0.5954 0.21292 0.0
H413 H 0.09169 0.59768 0.96436 0.0
H414 H 0.07243 0.53664 0.23095 0.0
H415 H 0.10236 0.5545 0.2425 0.0
H416 H 0.08342 0.56312 0.28253 0.0
H417 H 0.08948 0.56812 0.88883 0.0
H418 H 0.10639 0.55761 0.93314 0.0
H419 H 0.07621 0.54034 0.93257 0.0
H420 H 0.13004 0.51907 0.08981 0.0
H421 H 0.05771 0.47764 0.07342 0.0
H422 H 0.13285 0.56923 0.14519 0.0
H423 H 0.13433 0.57068 0.0419 0.0
H424 H 0.1487 0.55862 0.09408 0.0
H425 H 0.04414 0.51854 0.12753 0.0
H426 H 0.03361 0.49308 0.07033 0.0
H427 H 0.04592 0.52052 0.02444 0.0
C428 C 0.50526 0.08707 0.31479 0.0
C429 C 0.49546 0.08668 0.24278 0.0
C430 C 0.52518 0.08578 0.31997 0.0
C431 C 0.53602 0.08469 0.25153 0.0
C432 C 0.52608 0.08387 0.17881 0.0
C433 C 0.50582 0.08455 0.17538 0.0
C434 C 0.53498 0.08626 0.3988 0.0
C435 C 0.53727 0.08306 0.10435 0.0
C436 C 0.59964 0.10821 0.26456 0.0
C437 C 0.60106 0.0884 0.26651 0.0
C438 C 0.57862 0.10721 0.25829 0.0
C439 C 0.55845 0.08583 0.2559 0.0
C440 C 0.55981 0.06573 0.25833 0.0
C441 C 0.58117 0.06727 0.26252 0.0
C442 C 0.57801 0.12904 0.25398 0.0
C443 C 0.53872 0.04265 0.25782 0.0
H444 H 0.49783 0.0891 0.36742 0.0
H445 H 0.49826 0.0837 0.11945 0.0
H446 H 0.53871 0.07222 0.40421 0.0
H447 H 0.55121 0.10238 0.40616 0.0
H448 H 0.52336 0.0848 0.44642 0.0
H449 H 0.52706 0.08183 0.05257 0.0
H450 H 0.55415 0.09858 0.0991 0.0
H451 H 0.54007 0.06836 0.10469 0.0
H452 H 0.61509 0.12454 0.26697 0.0
H453 H 0.58233 0.05196 0.26437 0.0
H454 H 0.56857 0.13032 0.30423 0.0
H455 H 0.56892 0.12921 0.20093 0.0
H456 H 0.59525 0.14423 0.25343 0.0
H457 H 0.52784 0.04107 0.30798 0.0
H458 H 0.54266 0.02868 0.26048 0.0
H459 H 0.5287 0.04055 0.20474 0.0
C460 C 0.431 0.49307 0.45318 0.0
C461 C 0.41394 0.49235 0.40537 0.0
C462 C 0.45237 0.51287 0.45941 0.0
C463 C 0.45712 0.53228 0.4152 0.0
C464 C 0.44029 0.53152 0.36541 0.0
C465 C 0.41889 0.51186 0.36233 0.0
C466 C 0.46966 0.5132 0.51478 0.0
C467 C 0.44469 0.55168 0.31622 0.0
C468 C 0.50054 0.59206 0.47715 0.0
C469 C 0.51935 0.59697 0.4302 0.0
C470 C 0.48075 0.57072 0.47571 0.0
C471 C 0.47914 0.55392 0.42383 0.0
C472 C 0.49795 0.55854 0.37646 0.0
C473 C 0.5179 0.57983 0.38103 0.0
C474 C 0.46128 0.56642 0.52836 0.0
C475 C 0.49672 0.54128 0.31895 0.0
H476 H 0.4277 0.47819 0.4861 0.0
H477 H 0.4059 0.5121 0.32701 0.0
H478 H 0.48561 0.51775 0.48363 0.0
H479 H 0.4738 0.52637 0.55962 0.0
H480 H 0.46355 0.49661 0.544 0.0
H481 H 0.43065 0.54763 0.27507 0.0
H482 H 0.44686 0.56582 0.35386 0.0
H483 H 0.46061 0.55779 0.28277 0.0
H484 H 0.50086 0.60507 0.51396 0.0
H485 H 0.53227 0.58303 0.34534 0.0
H486 H 0.45503 0.55013 0.55967 0.0
H487 H 0.447 0.56505 0.49345 0.0
H488 H 0.46614 0.58018 0.57153 0.0
H489 H 0.49181 0.52501 0.34849 0.0
H490 H 0.51308 0.54708 0.28847 0.0
H491 H 0.48346 0.53785 0.27523 0.0
C492 C 0.94259 0.4303 0.59362 0.0
C493 C 0.92112 0.41088 0.58566 0.0
C494 C 0.94513 0.45215 0.59491 0.0
C495 C 0.92578 0.45465 0.58787 0.0
C496 C 0.90409 0.43512 0.58025 0.0
C497 C 0.90203 0.41356 0.57971 0.0
C498 C 0.96852 0.47254 0.6036 0.0
C499 C 0.88298 0.43697 0.5728 0.0
C500 C 0.92441 0.50679 0.65899 0.0
C501 C 0.92589 0.51811 0.58945 0.0
C502 C 0.92548 0.48671 0.65974 0.0
C503 C 0.92791 0.47757 0.58914 0.0
C504 C 0.93035 0.48942 0.51908 0.0
C505 C 0.92939 0.50958 0.5201 0.0
C506 C 0.92306 0.47478 0.73581 0.0
C507 C 0.93282 0.4802 0.44251 0.0
H508 H 0.95745 0.42846 0.5978 0.0
H509 H 0.8853 0.39871 0.57548 0.0
H510 H 0.97255 0.48384 0.55265 0.0
H511 H 0.9691 0.48246 0.65533 0.0
H512 H 0.98182 0.46774 0.60937 0.0
H513 H 0.86742 0.42017 0.56585 0.0
H514 H 0.88097 0.44533 0.62486 0.0
H515 H 0.8845 0.44766 0.52214 0.0
H516 H 0.92199 0.51345 0.71289 0.0
H517 H 0.93033 0.5181 0.46606 0.0
H518 H 0.93681 0.47069 0.74254 0.0
H519 H 0.90674 0.45852 0.73681 0.0
H520 H 0.92347 0.48515 0.7861 0.0
H521 H 0.94657 0.476 0.44565 0.0
H522 H 0.93656 0.49238 0.39432 0.0
H523 H 0.91689 0.46429 0.42895 0.0
C524 C 0.41815 0.90913 0.7024 0.0
C525 C 0.41444 0.92258 0.755 0.0
C526 C 0.43905 0.90973 0.69969 0.0
C527 C 0.45687 0.92461 0.7494 0.0
C528 C 0.45338 0.93877 0.80096 0.0
C529 C 0.43206 0.93732 0.804 0.0
C530 C 0.44183 0.89393 0.64531 0.0
C531 C 0.47209 0.95528 0.85341 0.0
C532 C 0.50255 0.91 0.7983 0.0
C533 C 0.5194 0.92297 0.74403 0.0
C534 C 0.48217 0.91046 0.80089 0.0
C535 C 0.47883 0.9247 0.74926 0.0
C536 C 0.49615 0.93838 0.69592 0.0
C537 C 0.5161 0.93708 0.69313 0.0
C538 C 0.46395 0.89517 0.85727 0.0
C539 C 0.49351 0.95421 0.64132 0.0
H540 H 0.40439 0.89755 0.66516 0.0
H541 H 0.42913 0.94773 0.84458 0.0
H542 H 0.45625 0.90377 0.60544 0.0
H543 H 0.44579 0.88245 0.67893 0.0
H544 H 0.42636 0.88345 0.61031 0.0
H545 H 0.46715 0.96619 0.88608 0.0
H546 H 0.47664 0.94589 0.89543 0.0
H547 H 0.48751 0.96628 0.81896 0.0
H548 H 0.50503 0.89889 0.83701 0.0
H549 H 0.52919 0.94713 0.65127 0.0
H550 H 0.44838 0.88324 0.82515 0.0
H551 H 0.45945 0.90535 0.89578 0.0
H552 H 0.46924 0.88518 0.89366 0.0
H553 H 0.47939 0.94429 0.60052 0.0
H554 H 0.50916 0.96486 0.60727 0.0
H555 H 0.48914 0.9655 0.67427 0.0
C556 C 0.58242 0.51526 0.91567 0.0
C557 C 0.60201 0.51346 0.91145 0.0
C558 C 0.56074 0.49578 0.91537 0.0
C559 C 0.55867 0.47403 0.91202 0.0
C560 C 0.57845 0.47217 0.90913 0.0
C561 C 0.59983 0.49187 0.90846 0.0
C562 C 0.54006 0.49847 0.91758 0.0
C563 C 0.57705 0.44933 0.90677 0.0
C564 C 0.50554 0.42114 0.98088 0.0
C565 C 0.49562 0.4103 0.9107 0.0
C566 C 0.52561 0.44227 0.9822 0.0
C567 C 0.53593 0.45307 0.91164 0.0
C568 C 0.52541 0.44282 0.84064 0.0
C569 C 0.50548 0.42153 0.84098 0.0
C570 C 0.5363 0.45254 0.05918 0.0
C571 C 0.53573 0.4539 0.76413 0.0
H572 H 0.58406 0.53193 0.91748 0.0
H573 H 0.61495 0.4904 0.90629 0.0
H574 H 0.52958 0.49069 0.86521 0.0
H575 H 0.52941 0.48942 0.96845 0.0
H576 H 0.54453 0.51654 0.92046 0.0
H577 H 0.59405 0.45081 0.90601 0.0
H578 H 0.56758 0.43912 0.95792 0.0
H579 H 0.56762 0.43986 0.85452 0.0
H580 H 0.49783 0.4129 0.03513 0.0
H581 H 0.49815 0.41331 0.78639 0.0
H582 H 0.53984 0.47028 0.06291 0.0
H583 H 0.55276 0.45302 0.06461 0.0
H584 H 0.52538 0.44281 0.10881 0.0
H585 H 0.53981 0.47184 0.76409 0.0
H586 H 0.52429 0.44501 0.71462 0.0
H587 H 0.55184 0.45388 0.75519 0.0
C588 C 0.04832 0.34429 0.91954 0.0
C589 C 0.05488 0.36411 0.96262 0.0
C590 C 0.03007 0.33608 0.86702 0.0
C591 C 0.01798 0.34786 0.85753 0.0
C592 C 0.02402 0.36737 0.90305 0.0
C593 C 0.04235 0.37524 0.95479 0.0
C594 C 0.02426 0.31525 0.81966 0.0
C595 C 0.01146 0.38032 0.89567 0.0
C596 C 0.98904 0.34531 0.66626 0.0
C597 C 0.96602 0.33086 0.68363 0.0
C598 C 1.00606 0.35035 0.72146 0.0
C599 C 1.00006 0.34084 0.79658 0.0
C600 C 0.97694 0.32567 0.81397 0.0
C601 C 0.96023 0.32074 0.75719 0.0
C602 C 0.03046 0.36649 0.69992 0.0
C603 C 0.96979 0.31482 0.89281 0.0
H604 H 0.05787 0.33556 0.92501 0.0
H605 H 0.04699 0.39032 0.98872 0.0
H606 H 1.00592 0.30273 0.82465 0.0
H607 H 0.02784 0.31997 0.75767 0.0
H608 H 0.03408 0.30704 0.83786 0.0
H609 H 0.01738 0.39439 0.93819 0.0
H610 H 0.01383 0.38753 0.83654 0.0
H611 H 0.99302 0.36872 0.90414 0.0
H612 H 0.99384 0.35315 0.60962 0.0
H613 H 0.94261 0.30933 0.77119 0.0
H614 H 0.04119 0.35897 0.71398 0.0
H615 H 0.03695 0.38234 0.73404 0.0
H616 H 0.03246 0.37092 0.63744 0.0
H617 H 0.97605 0.30275 0.90132 0.0
H618 H 0.95107 0.30548 0.90005 0.0
H619 H 0.97742 0.32783 0.93895 0.0
C620 C 0.63663 0.98695 0.84761 0.0
C621 C 0.63695 0.96649 0.84461 0.0
C622 C 0.64604 1.00196 0.91015 0.0
C623 C 0.65654 0.99674 0.97116 0.0
C624 C 0.65799 0.97669 0.96682 0.0
C625 C 0.648 0.96169 0.90395 0.0
C626 C 0.64344 0.02273 0.91304 0.0
C627 C 0.66941 0.97072 0.02991 0.0
C628 C 0.69015 0.04627 0.10944 0.0
C629 C 0.67432 0.04143 0.16893 0.0
C630 C 0.68519 0.03124 0.04668 0.0
C631 C 0.66373 0.01114 0.0425 0.0
C632 C 0.64802 0.0059 0.10361 0.0
C633 C 0.65359 0.02092 0.16613 0.0
C634 C 0.70257 0.03727 0.98348 0.0
C635 C 0.62468 0.98511 0.10079 0.0
H636 H 0.62814 0.99092 0.8024 0.0
H637 H 0.64845 0.94601 0.90217 0.0
H638 H 0.6317 0.02086 0.96071 0.0
H639 H 0.65993 0.03811 0.92537 0.0
H640 H 0.63663 0.02542 0.85814 0.0
H641 H 0.67105 0.95575 0.01465 0.0
H642 H 0.68652 0.98534 0.04171 0.0
H643 H 0.65949 0.96693 0.08427 0.0
H644 H 0.70623 0.06199 0.11108 0.0
H645 H 0.64114 0.01695 0.21141 0.0
H646 H 0.69664 0.04158 0.92973 0.0
H647 H 0.70477 0.02254 0.97026 0.0
H648 H 0.71928 0.05196 -0.00056 0.0
H649 H 0.61473 0.98708 0.05367 0.0
H650 H 0.61527 0.9823 0.15599 0.0
H651 H 0.6258 0.96977 0.08764 0.0
C652 C 0.64859 0.66266 0.32629 0.0
C653 C 0.63934 0.67667 0.31174 0.0
C654 C 0.66071 0.65846 0.26917 0.0
C655 C 0.66349 0.66823 0.19475 0.0
C656 C 0.65489 0.68304 0.1803 0.0
C657 C 0.64303 0.68719 0.2391 0.0
C658 C 0.66973 0.64277 0.28784 0.0
C659 C 0.65755 0.6939 0.10198 0.0
C660 C 0.70783 0.6657 0.06615 0.0
C661 C 0.69453 0.64577 0.02369 0.0
C662 C 0.69793 0.67375 0.11991 0.0
C663 C 0.67413 0.66167 0.13139 0.0
C664 C 0.66057 0.64208 0.08633 0.0
C665 C 0.67091 0.63441 0.03321 0.0
C666 C 0.71304 0.69463 0.16684 0.0
C667 C 0.63515 0.62871 0.0961 0.0
H668 H 0.646 0.65456 0.38233 0.0
H669 H 0.63593 0.69798 0.22709 0.0
H670 H 0.65994 0.62667 0.25532 0.0
H671 H 0.68772 0.65041 0.26987 0.0
H672 H 0.66851 0.63875 0.35057 0.0
H673 H 0.65041 0.70542 0.10045 0.0
H674 H 0.67574 0.70369 0.08596 0.0
H675 H 0.64891 0.68056 0.05739 0.0
H676 H 0.72609 0.67463 0.05939 0.0
H677 H 0.66042 0.61925 -0.00025 0.0
H678 H 0.7129 0.68979 0.22824 0.0
H679 H 0.70662 0.70672 0.16516 0.0
H680 H 0.73084 0.7034 0.14577 0.0
H681 H 0.6309 0.62131 0.15513 0.0
H682 H 0.62689 0.61472 0.05333 0.0
H683 H 0.6279 0.64003 0.08989 0.0
C684 C 0.98525 0.66337 0.50485 0.0
C685 C 0.96618 0.64274 0.484 0.0
C686 C 1.00307 0.67554 0.45207 0.0
C687 C 1.00227 0.66637 0.37774 0.0
C688 C 0.98292 0.64559 0.35643 0.0
C689 C 0.96493 0.63428 0.40921 0.0
C690 C 0.02306 0.69785 0.47682 0.0
C691 C 0.98151 0.63478 0.27895 0.0
C692 C 0.04135 0.70162 0.2122 0.0
C693 C 0.05844 0.69584 0.21582 0.0
C694 C 0.0233 0.69268 0.26575 0.0
C695 C 0.02222 0.67755 0.3242 0.0
C696 C 0.03978 0.6722 0.32934 0.0
C697 C 0.05765 0.68148 0.27559 0.0
C698 C 1.00519 0.69918 0.25911 0.0
C699 C 0.03938 0.6561 0.39033 0.0
H700 H 0.98632 0.66987 0.56292 0.0
H701 H 0.95051 0.6181 0.39341 0.0
H702 H 0.0381 0.69583 0.48471 0.0
H703 H 0.02733 0.71091 0.43141 0.0
H704 H 0.0198 0.70408 0.53202 0.0
H705 H 0.96732 0.61703 0.27704 0.0
H706 H 0.97894 0.6446 0.23284 0.0
H707 H 0.99747 0.63479 0.2659 0.0
H708 H 0.04187 0.71283 0.16672 0.0
H709 H 0.07102 0.67735 0.28038 0.0
H710 H 1.00264 0.70524 0.31581 0.0
H711 H 0.98886 0.68409 0.24282 0.0
H712 H 0.00947 0.71263 0.21512 0.0
H713 H 0.03904 0.66258 0.44889 0.0
H714 H 0.05431 0.65367 0.38648 0.0
H715 H 0.02376 0.63935 0.38408 0.0
C716 C 0.36615 0.04838 0.40373 0.0
C717 C 0.37647 0.04369 0.34167 0.0
C718 C 0.35619 0.03288 0.46543 0.0
C719 C 0.35706 0.01249 0.46599 0.0
C720 C 0.36685 0.00742 0.40231 0.0
C721 C 0.37614 0.02289 0.34086 0.0
C722 C 0.34536 0.03865 0.53115 0.0
C723 C 0.36883 0.98629 0.40108 0.0
C724 C 0.36078 0.98652 0.65607 0.0
C725 C 0.33992 0.96613 0.65875 0.0
C726 C 0.36614 1.00208 0.59537 0.0
C727 C 0.3501 0.99753 0.53602 0.0
C728 C 0.32852 0.97757 0.54032 0.0
C729 C 0.32378 0.96196 0.60112 0.0
C730 C 0.38956 0.02279 0.59259 0.0
C731 C 0.31073 0.97229 0.47931 0.0
H732 H 0.3662 0.06432 0.40483 0.0
H733 H 0.38408 0.01901 0.29352 0.0
H734 H 0.32832 0.02402 0.54397 0.0
H735 H 0.35573 0.0422 0.58427 0.0
H736 H 0.34368 0.05371 0.51804 0.0
H737 H 0.37552 0.98406 0.34514 0.0
H738 H 0.38037 0.98722 0.44805 0.0
H739 H 0.35211 0.97102 0.4119 0.0
H740 H 0.37346 0.99 0.7 0.0
H741 H 0.3076 0.94634 0.60272 0.0
H742 H 0.38844 0.03839 0.58601 0.0
H743 H 0.39886 0.02171 0.54152 0.0
H744 H 0.39962 0.02453 0.64535 0.0
H745 H 0.30954 0.9876 0.46585 0.0
H746 H 0.29378 0.95843 0.49765 0.0
H747 H 0.31551 0.96698 0.42515 0.0
C748 C 0.34702 0.30182 0.74206 0.0
C749 C 0.36604 0.31502 0.78865 0.0
C750 C 0.33903 0.31199 0.68918 0.0
C751 C 0.35021 0.33594 0.68296 0.0
C752 C 0.36879 0.34933 0.73233 0.0
C753 C 0.37648 0.33874 0.78428 0.0
C754 C 0.31923 0.29706 0.63762 0.0
C755 C 0.38106 0.3749 0.7285 0.0
C756 C 0.35043 0.36375 0.49154 0.0
C757 C 0.33508 0.37145 0.50535 0.0
C758 C 0.35488 0.35161 0.54787 0.0
C759 C 0.34388 0.34707 0.62064 0.0
C760 C 0.32788 0.35423 0.63444 0.0
C761 C 0.32356 0.36619 0.57649 0.0
C762 C 0.37196 0.34426 0.53013 0.0
C763 C 0.31558 0.34955 0.71081 0.0
H764 H 0.33884 0.2835 0.74483 0.0
H765 H 0.39093 0.34911 0.82089 0.0
H766 H 0.30638 0.30251 0.63936 0.0
H767 H 0.32513 0.29872 0.57684 0.0
H768 H 0.31101 0.27891 0.65454 0.0
H769 H 0.39422 0.38288 0.77415 0.0
H770 H 0.38935 0.38065 0.67118 0.0
H771 H 0.36884 0.38107 0.73471 0.0
H772 H 0.35934 0.36754 0.43675 0.0
H773 H 0.31164 0.37194 0.58788 0.0
H774 H 0.36453 0.32584 0.54122 0.0
H775 H 0.38689 0.35333 0.56865 0.0
H776 H 0.37785 0.34777 0.46913 0.0
H777 H 0.30434 0.331 0.71815 0.0
H778 H 0.30513 0.35785 0.71499 0.0
H779 H 0.32785 0.35551 0.75943 0.0
C780 C 0.18125 0.40626 0.11184 0.0
C781 C 0.1587 0.39658 0.13631 0.0
C782 C 0.19674 0.40193 0.15094 0.0
C783 C 0.18962 0.38777 0.21729 0.0
C784 C 0.16633 0.37634 0.23815 0.0
C785 C 0.15108 0.3809 0.19729 0.0
C786 C 0.22126 0.41438 0.12566 0.0
C787 C 0.15787 0.36096 0.30778 0.0
C788 C 0.23713 0.37943 0.29803 0.0
C789 C 0.24802 0.39831 0.34701 0.0
C790 C 0.21681 0.37441 0.25975 0.0
C791 C 0.20729 0.38858 0.27104 0.0
C792 C 0.21722 0.40632 0.32618 0.0
C793 C 0.23748 0.41103 0.36286 0.0
C794 C 0.20663 0.3551 0.20267 0.0
C795 C 0.20768 0.42178 0.3413 0.0
H796 H 0.18718 0.41852 0.06501 0.0
H797 H 0.13375 0.3737 0.21732 0.0
H798 H 0.23148 0.42784 0.16839 0.0
H799 H 0.22812 0.40267 0.1233 0.0
H800 H 0.2235 0.42244 0.06795 0.0
H801 H 0.13927 0.34919 0.3048 0.0
H802 H 0.16654 0.3509 0.31324 0.0
H803 H 0.16152 0.37138 0.36087 0.0
H804 H 0.24536 0.36971 0.2849 0.0
H805 H 0.24587 0.42562 0.4008 0.0
H806 H 0.21149 0.36194 0.1431 0.0
H807 H 0.18784 0.3459 0.20606 0.0
H808 H 0.21271 0.34292 0.21266 0.0
H809 H 0.21081 0.43284 0.29018 0.0
H810 H 0.21553 0.43275 0.39271 0.0
H811 H 0.18909 0.41177 0.35036 0.0
C812 C 0.77743 0.1743 0.30913 0.0
C813 C 0.7642 0.15253 0.34002 0.0
C814 C 0.797 0.19076 0.3472 0.0
C815 C 0.80329 0.18548 0.41912 0.0
C816 C 0.79099 0.16289 0.44733 0.0
C817 C 0.77153 0.14664 0.40735 0.0
C818 C 0.80955 0.21446 0.31418 0.0
C819 C 0.79699 0.15637 0.5234 0.0
C820 C 0.85862 0.23409 0.49987 0.0
C821 C 0.85045 0.24631 0.5409 0.0
C822 C 0.84347 0.21324 0.46404 0.0
C823 C 0.81973 0.20449 0.46986 0.0
C824 C 0.8116 0.21595 0.5169 0.0
C825 C 0.82701 0.2367 0.55117 0.0
C826 C 0.85289 0.20147 0.41552 0.0
C827 C 0.78651 0.20723 0.52622 0.0
H828 H 0.77153 0.17896 0.25778 0.0
H829 H 0.761 0.12997 0.43246 0.0
H830 H 0.80583 0.22581 0.34957 0.0
H831 H 0.82812 0.22126 0.31615 0.0
H832 H 0.80456 0.21505 0.25339 0.0
H833 H 0.78992 0.13775 0.5276 0.0
H834 H 0.81562 0.16503 0.53153 0.0
H835 H 0.7898 0.16161 0.57145 0.0
H836 H 0.87672 0.24156 0.49107 0.0
H837 H 0.82064 0.24608 0.58308 0.0
H838 H 0.85126 0.2045 0.35336 0.0
H839 H 0.84319 0.18288 0.42531 0.0
H840 H 0.87107 0.20782 0.42822 0.0
H841 H 0.77937 0.20877 0.47032 0.0
H842 H 0.78296 0.21678 0.57089 0.0
H843 H 0.77751 0.18903 0.54244 0.0
C844 C 0.63149 0.86193 0.6106 0.0
C845 C 0.61659 0.8553 0.67372 0.0
C846 C 0.63536 0.84601 0.57117 0.0
C847 C 0.62404 0.82303 0.5957 0.0
C848 C 0.61072 0.81693 0.66402 0.0
C849 C 0.60699 0.83306 0.70153 0.0
C850 C 0.64982 0.8534 0.49922 0.0
C851 C 0.5985 0.79278 0.69328 0.0
C852 C 0.59905 0.77364 0.45574 0.0
C853 C 0.61207 0.76335 0.47022 0.0
C854 C 0.60403 0.79414 0.49132 0.0
C855 C 0.6224 0.8046 0.5439 0.0
C856 C 0.63674 0.79522 0.55404 0.0
C857 C 0.63142 0.77465 0.5169 0.0
C858 C 0.58839 0.80353 0.47744 0.0
C859 C 0.65667 0.80594 0.60851 0.0
H860 H 0.63855 0.879 0.58794 0.0
H861 H 0.59526 0.82787 0.74983 0.0
H862 H 0.65981 0.84465 0.49418 0.0
H863 H 0.63872 0.8489 0.44757 0.0
H864 H 0.66159 0.87202 0.49858 0.0
H865 H 0.59137 0.79144 0.75217 0.0
H866 H 0.58437 0.78208 0.65339 0.0
H867 H 0.61008 0.78576 0.69475 0.0
H868 H 0.5841 0.76495 0.41956 0.0
H869 H 0.64139 0.76662 0.52902 0.0
H870 H 0.59829 0.82194 0.46457 0.0
H871 H 0.57831 0.80136 0.53049 0.0
H872 H 0.57649 0.79488 0.42879 0.0
H873 H 0.66588 0.82468 0.6028 0.0
H874 H 0.66868 0.79967 0.59793 0.0
H875 H 0.65049 0.80174 0.66902 0.0
C876 C 0.77955 0.60574 0.87169 0.0
C877 C 0.76562 0.61385 0.84394 0.0
C878 C 0.799 0.60956 0.83106 0.0
C879 C 0.8045 0.62147 0.75976 0.0
C880 C 0.79155 0.63139 0.73487 0.0
C881 C 0.77221 0.62747 0.77743 0.0
C882 C 0.81229 0.5988 0.86069 0.0
C883 C 0.79693 0.64441 0.65989 0.0
C884 C 0.85974 0.62947 0.67368 0.0
C885 C 0.85164 0.6092 0.63206 0.0
C886 C 0.84455 0.63484 0.71104 0.0
C887 C 0.82084 0.6196 0.70622 0.0
C888 C 0.81275 0.60019 0.65829 0.0
C889 C 0.82822 0.59518 0.62252 0.0
C890 C 0.85398 0.65582 0.76068 0.0
C891 C 0.7877 0.58351 0.65022 0.0
H892 H 0.7743 0.59497 0.92262 0.0
H893 H 0.7612 0.63336 0.75494 0.0
H894 H 0.80879 0.58409 0.82365 0.0
H895 H 0.83075 0.61101 0.85788 0.0
H896 H 0.80774 0.59276 0.92131 0.0
H897 H 0.78747 0.65371 0.65407 0.0
H898 H 0.81537 0.65667 0.65566 0.0
H899 H 0.79235 0.6325 0.61052 0.0
H900 H 0.87785 0.6402 0.68213 0.0
H901 H 0.82193 0.57948 0.59044 0.0
H902 H 0.85382 0.65103 0.82215 0.0
H903 H 0.84346 0.66401 0.75602 0.0
H904 H 0.87172 0.66831 0.74451 0.0
H905 H 0.78106 0.57429 0.70566 0.0
H906 H 0.78413 0.57087 0.60382 0.0
H907 H 0.77826 0.59248 0.63725 0.0
C908 C 0.23766 0.83117 0.80444 0.0
C909 C 0.24954 0.85403 0.82633 0.0
C910 C 0.21783 0.81545 0.84314 0.0
C911 C 0.2098 0.82267 0.90654 0.0
C912 C 0.22059 0.84615 0.92432 0.0
C913 C 0.24041 0.86162 0.8839 0.0
C914 C 0.20683 0.79073 0.8209 0.0
C915 C 0.21245 0.85469 0.99041 0.0
C916 C 0.1547 0.77445 0.9898 0.0
C917 C 0.16325 0.76509 0.04317 0.0
C918 C 0.16946 0.79443 0.94866 0.0
C919 C 0.1932 0.80517 0.96144 0.0
C920 C 0.20151 0.79676 0.02035 0.0
C921 C 0.18648 0.77682 0.05995 0.0
C922 C 0.15976 0.80291 0.88739 0.0
C923 C 0.22658 0.80761 0.037 0.0
H924 H 0.24477 0.82527 0.76013 0.0
H925 H 0.24974 0.87923 0.90183 0.0
H926 H 0.21024 0.78132 0.86644 0.0
H927 H 0.18819 0.78314 0.81639 0.0
H928 H 0.21335 0.78828 0.76492 0.0
H929 H 0.21891 0.8732 0.98554 0.0
H930 H 0.19366 0.84562 0.99278 0.0
H931 H 0.21863 0.85153 0.04582 0.0
H932 H 0.13679 0.76528 0.97586 0.0
H933 H 0.19313 0.76962 0.10123 0.0
H934 H 0.1614 0.79657 0.83 0.0
H935 H 0.16907 0.82171 0.88503 0.0
H936 H 0.1415 0.79678 0.89781 0.0
H937 H 0.23516 0.80467 0.98742 0.0
H938 H 0.23003 0.80061 0.09003 0.0
H939 H 0.23425 0.8262 0.04412 0.0
C940 C 0.3821 0.14945 0.1323 0.0
C941 C 0.4012 0.15749 0.18019 0.0
C942 C 0.37718 0.16472 0.09319 0.0
C943 C 0.3917 0.18845 0.10244 0.0
C944 C 0.40975 0.19638 0.15633 0.0
C945 C 0.41431 0.18084 0.19398 0.0
C946 C 0.35754 0.15549 0.03747 0.0
C947 C 0.42564 0.22142 0.16914 0.0
C948 C 0.40872 0.23139 0.94063 0.0
C949 C 0.39939 0.24458 0.9652 0.0
C950 C 0.40444 0.21169 0.98064 0.0
C951 C 0.39075 0.20515 0.04812 0.0
C952 C 0.3797 0.21734 0.06935 0.0
C953 C 0.38414 0.23697 0.02747 0.0
C954 C 0.41644 0.19922 0.95489 0.0
C955 C 0.36485 0.21096 0.14027 0.0
H956 H 0.37206 0.13142 0.12071 0.0
H957 H 0.42909 0.1871 0.23105 0.0
H958 H 0.34865 0.16537 0.0405 0.0
H959 H 0.36398 0.1569 0.97755 0.0
H960 H 0.34519 0.13735 0.04919 0.0
H961 H 0.43691 0.22473 0.21979 0.0
H962 H 0.43638 0.22885 0.11701 0.0
H963 H 0.41597 0.23036 0.17815 0.0
H964 H 0.42065 0.23737 0.89284 0.0
H965 H 0.37724 0.24737 0.04758 0.0
H966 H 0.40456 0.18066 0.95407 0.0
H967 H 0.43017 0.20254 -0.00351 0.0
H968 H 0.42406 0.20462 0.8964 0.0
H969 H 0.35433 0.19226 0.14598 0.0
H970 H 0.35357 0.21836 0.13883 0.0
H971 H 0.37569 0.21745 0.19256 0.0
C972 C 0.08767 0.40439 0.44359 0.0
C973 C 0.10131 0.4025 0.38672 0.0
C974 C 0.09435 0.40786 0.52137 0.0
C975 C 0.11519 0.40954 0.54271 0.0
C976 C 0.12871 0.40694 0.48606 0.0
C977 C 0.12158 0.40342 0.40867 0.0
C978 C 0.07946 0.41055 0.58026 0.0
C979 C 0.15099 0.40851 0.50675 0.0
C980 C 0.14038 0.44273 0.72703 0.0
C981 C 0.13329 0.42532 0.78204 0.0
C982 C 0.13553 0.4378 0.64824 0.0
C983 C 0.1231 0.41492 0.62396 0.0
C984 C 0.11676 0.39727 0.67847 0.0
C985 C 0.12212 0.40269 0.75672 0.0
C986 C 0.14277 0.45709 0.5915 0.0
C987 C 0.10334 0.37265 0.65479 0.0
H988 H 0.07214 0.40396 0.42699 0.0
H989 H 0.13198 0.40156 0.36514 0.0
H990 H 0.07661 0.39945 0.63099 0.0
H991 H 0.08806 0.42829 0.6015 0.0
H992 H 0.06276 0.40645 0.55581 0.0
H993 H 0.1585 0.40418 0.45715 0.0
H994 H 0.1632 0.42601 0.5259 0.0
H995 H 0.14868 0.39699 0.55565 0.0
H996 H 0.14888 0.46024 0.74564 0.0
H997 H 0.11706 0.3891 0.79827 0.0
H998 H 0.12758 0.45709 0.56836 0.0
H999 H 0.15176 0.45488 0.54168 0.0
H1000 H 0.15404 0.47386 0.61846 0.0
H1001 H 0.08612 0.3686 0.6362 0.0
H1002 H 0.10159 0.36102 0.70276 0.0
H1003 H 0.11149 0.36934 0.60479 0.0
C1004 C 0.69394 0.12879 0.93206 0.0
C1005 C 0.70896 0.12731 0.98382 0.0
C1006 C 0.69401 0.12389 0.85338 0.0
C1007 C 0.70971 0.11766 0.82583 0.0
C1008 C 0.72552 0.117 0.87728 0.0
C1009 C 0.72483 0.12168 0.95592 0.0
C1010 C 0.67667 0.12445 0.80039 0.0
C1011 C 0.74271 0.11073 0.84973 0.0
C1012 C 0.69271 0.08123 0.6455 0.0
C1013 C 0.70382 0.09751 0.5878 0.0
C1014 C 0.69477 0.08753 0.72355 0.0
C1015 C 0.70864 0.11062 0.74405 0.0
C1016 C 0.7206 0.12703 0.68605 0.0
C1017 C 0.71785 0.12028 0.60832 0.0
C1018 C 0.68157 0.06958 0.78371 0.0
C1019 C 0.73601 0.1517 0.70595 0.0
H1020 H 0.68144 0.13281 0.95375 0.0
H1021 H 0.73656 0.12072 0.99595 0.0
H1022 H 0.68519 0.13573 0.75027 0.0
H1023 H 0.66525 0.10721 0.77718 0.0
H1024 H 0.66621 0.13044 0.83039 0.0
H1025 H 0.75525 0.11326 0.89536 0.0
H1026 H 0.73391 0.09266 0.83195 0.0
H1027 H 0.75191 0.12099 0.79832 0.0
H1028 H 0.68183 0.06366 0.62909 0.0
H1029 H 0.72677 0.13275 0.56346 0.0
H1030 H 0.66916 0.07323 0.81231 0.0
H1031 H 0.69313 0.06979 0.8293 0.0
H1032 H 0.67227 0.05228 0.75842 0.0
H1033 H 0.74544 0.16194 0.65468 0.0
H1034 H 0.74841 0.15338 0.75081 0.0
H1035 H 0.72589 0.15887 0.73042 0.0
C1036 C 0.6018 0.71939 0.75113 0.0
C1037 C 0.61131 0.70607 0.72998 0.0
C1038 C 0.5969 0.72119 0.82883 0.0
C1039 C 0.60129 0.70905 0.88628 0.0
C1040 C 0.61127 0.6959 0.86525 0.0
C1041 C 0.61632 0.69472 0.78734 0.0
C1042 C 0.58674 0.73579 0.84926 0.0
C1043 C 0.61599 0.68253 0.9247 0.0
C1044 C 0.60473 0.72335 0.09983 0.0
C1045 C 0.58338 0.70657 0.12631 0.0
C1046 C 0.61052 0.72495 0.02124 0.0
C1047 C 0.59464 0.70926 0.96806 0.0
C1048 C 0.57281 0.69274 0.99403 0.0
C1049 C 0.56742 0.69166 0.07283 0.0
C1050 C 0.6339 0.74293 0.99564 0.0
C1051 C 0.55549 0.67556 0.93917 0.0
H1052 H 0.59824 0.72843 0.70676 0.0
H1053 H 0.62348 0.68426 0.77076 0.0
H1054 H 0.56939 0.72502 0.8726 0.0
H1055 H 0.59693 0.74808 0.89517 0.0
H1056 H 0.5858 0.74531 0.79852 0.0
H1057 H 0.62497 0.67417 0.89957 0.0
H1058 H 0.62641 0.6938 0.9724 0.0
H1059 H 0.5998 0.6693 0.95042 0.0
H1060 H 0.61701 0.73507 0.14088 0.0
H1061 H 0.55102 0.67848 0.09307 0.0
H1062 H 0.63275 0.7523 0.94491 0.0
H1063 H 0.64378 0.7348 0.97748 0.0
H1064 H 0.64335 0.75526 0.04247 0.0
H1065 H 0.55282 0.68426 0.88941 0.0
H1066 H 0.5389 0.6646 0.96778 0.0
H1067 H 0.56182 0.66459 0.91562 0.0
C1068 C 0.90651 0.58046 0.90891 0.0
C1069 C 0.91162 0.6023 0.88594 0.0
C1070 C 0.90031 0.57309 0.98522 0.0
C1071 C 0.89982 0.58814 0.0403 0.0
C1072 C 0.90553 0.61039 0.01836 0.0
C1073 C 0.91116 0.61714 0.94122 0.0
C1074 C 0.89466 0.54936 0.00724 0.0
C1075 C 0.9058 0.62708 0.0765 0.0
C1076 C 0.86763 0.56812 0.22891 0.0
C1077 C 0.88537 0.57359 0.28083 0.0
C1078 C 0.87192 0.57192 0.14939 0.0
C1079 C 0.89442 0.58112 0.12199 0.0
C1080 C 0.9121 0.5852 0.17382 0.0
C1081 C 0.90739 0.58164 0.25292 0.0
C1082 C 0.85263 0.56701 0.0952 0.0
C1083 C 0.93625 0.59444 0.147 0.0
H1084 H 0.90739 0.56905 0.86728 0.0
H1085 H 0.91483 0.63394 0.92428 0.0
H1086 H 0.90724 0.55016 0.04976 0.0
H1087 H 0.87778 0.5403 0.03547 0.0
H1088 H 0.8946 0.53933 0.95646 0.0
H1089 H 0.91038 0.64368 0.0498 0.0
H1090 H 0.88891 0.62007 0.10416 0.0
H1091 H 0.91821 0.62998 0.12299 0.0
H1092 H 0.85063 0.56185 0.25095 0.0
H1093 H 0.92101 0.58543 0.29328 0.0
H1094 H 0.85249 0.55653 0.04582 0.0
H1095 H 0.855 0.58316 0.071 0.0
H1096 H 0.8359 0.55805 0.12469 0.0
H1097 H 0.93728 0.58912 0.08724 0.0
H1098 H 0.94544 0.58876 0.18574 0.0
H1099 H 0.94508 0.61324 0.14814 0.0
C1100 C 0.3198 0.87829 0.42163 0.0
C1101 C 0.3047 0.87961 0.47351 0.0
C1102 C 0.31961 0.8831 0.34288 0.0
C1103 C 0.30371 0.88905 0.31534 0.0
C1104 C 0.28779 0.88949 0.3669 0.0
C1105 C 0.28861 0.88494 0.44563 0.0
C1106 C 0.33706 0.88276 0.2898 0.0
C1107 C 0.27037 0.89544 0.3394 0.0
C1108 C 0.32037 0.9256 0.1351 0.0
C1109 C 0.30936 0.90935 0.07723 0.0
C1110 C 0.31837 0.91925 0.21312 0.0
C1111 C 0.30471 0.89611 0.23353 0.0
C1112 C 0.29292 0.87971 0.17543 0.0
C1113 C 0.29555 0.88653 0.09773 0.0
C1114 C 0.3314 0.9372 0.27336 0.0
C1115 C 0.27777 0.85498 0.19527 0.0
H1116 H 0.33246 0.87451 0.44327 0.0
H1117 H 0.27681 0.88576 0.48575 0.0
H1118 H 0.32863 0.87149 0.23963 0.0
H1119 H 0.34837 0.90005 0.26667 0.0
H1120 H 0.34763 0.87689 0.31972 0.0
H1121 H 0.25779 0.89276 0.38511 0.0
H1122 H 0.27895 0.91349 0.32139 0.0
H1123 H 0.26123 0.88508 0.28813 0.0
H1124 H 0.33113 0.94321 0.11889 0.0
H1125 H 0.2867 0.87405 0.05288 0.0
H1126 H 0.34379 0.9336 0.30244 0.0
H1127 H 0.31972 0.93695 0.31858 0.0
H1128 H 0.34072 0.95451 0.24805 0.0
H1129 H 0.26915 0.84454 0.1435 0.0
H1130 H 0.2647 0.85307 0.23772 0.0
H1131 H 0.28787 0.84821 0.22279 0.0
C1132 C 0.44551 0.3088 0.55419 0.0
C1133 C 0.428 0.29877 0.60899 0.0
C1134 C 0.44074 0.30871 0.47524 0.0
C1135 C 0.41792 0.29858 0.4506 0.0
C1136 C 0.40016 0.28755 0.50489 0.0
C1137 C 0.40542 0.28758 0.58327 0.0
C1138 C 0.46014 0.32043 0.41871 0.0
C1139 C 0.37561 0.27677 0.48085 0.0
C1140 C 0.40776 0.32376 0.27014 0.0
C1141 C 0.40536 0.30798 0.21354 0.0
C1142 C 0.41142 0.32063 0.34779 0.0
C1143 C 0.41273 0.30125 0.36926 0.0
C1144 C 0.40973 0.28494 0.31283 0.0
C1145 C 0.40606 0.2885 0.23554 0.0
C1146 C 0.41466 0.33846 0.40637 0.0
C1147 C 0.41095 0.26404 0.33369 0.0
H1148 H 0.46299 0.3176 0.57303 0.0
H1149 H 0.39174 0.27924 0.6246 0.0
H1150 H 0.4577 0.30918 0.36882 0.0
H1151 H 0.4606 0.33586 0.39565 0.0
H1152 H 0.47678 0.3255 0.44588 0.0
H1153 H 0.37192 0.29017 0.46187 0.0
H1154 H 0.37214 0.26522 0.43104 0.0
H1155 H 0.36384 0.26707 0.52876 0.0
H1156 H 0.40754 0.33897 0.25336 0.0
H1157 H 0.40386 0.27609 0.19211 0.0
H1158 H 0.43249 0.34742 0.42666 0.0
H1159 H 0.40376 0.33047 0.45773 0.0
H1160 H 0.41072 0.3512 0.382 0.0
H1161 H 0.42828 0.26908 0.35406 0.0
H1162 H 0.40678 0.2523 0.28388 0.0
H1163 H 0.39911 0.25479 0.38184 0.0
C1164 C 0.57036 0.87895 0.07905 0.0
C1165 C 0.58686 0.88065 0.02677 0.0
C1166 C 0.57543 0.88386 0.15773 0.0
C1167 C 0.59745 0.89035 0.1848 0.0
C1168 C 0.61394 0.89123 0.13282 0.0
C1169 C 0.60847 0.88652 0.05422 0.0
C1170 C 0.55749 0.88303 0.21123 0.0
C1171 C 0.63752 0.89782 0.15974 0.0
C1172 C 0.61674 0.92683 0.3652 0.0
C1173 C 0.61193 0.91063 0.42297 0.0
C1174 C 0.61246 0.92049 0.28717 0.0
C1175 C 0.60351 0.89744 0.2666 0.0
C1176 C 0.59941 0.88112 0.32459 0.0
C1177 C 0.60348 0.8879 0.40233 0.0
C1178 C 0.61685 0.93836 0.22711 0.0
C1179 C 0.59043 0.8565 0.30464 0.0
H1180 H 0.55376 0.87476 0.05783 0.0
H1181 H 0.62118 0.88765 0.01388 0.0
H1182 H 0.55499 0.87182 0.26133 0.0
H1183 H 0.56311 0.90024 0.23442 0.0
H1184 H 0.54094 0.8768 0.18165 0.0
H1185 H 0.64755 0.89542 0.11383 0.0
H1186 H 0.64663 0.91591 0.17733 0.0
H1187 H 0.63671 0.88767 0.21114 0.0
H1188 H 0.62316 0.94436 0.38152 0.0
H1189 H 0.60017 0.87548 0.44711 0.0
H1190 H 0.60063 0.93458 0.19947 0.0
H1191 H 0.62803 0.93819 0.18079 0.0
H1192 H 0.62486 0.95568 0.25226 0.0
H1193 H 0.58968 0.84629 0.35591 0.0
H1194 H 0.60128 0.85498 0.2599 0.0
H1195 H 0.57314 0.84916 0.27999 0.0
C1196 C 0.72258 0.60738 0.23023 0.0
C1197 C 0.71205 0.58483 0.20431 0.0
C1198 C 0.72218 0.61248 0.30855 0.0
C1199 C 0.71137 0.59459 0.36254 0.0
C1200 C 0.70185 0.57183 0.33768 0.0
C1201 C 0.7022 0.56722 0.25881 0.0
C1202 C 0.73226 0.63695 0.33283 0.0
C1203 C 0.69035 0.55231 0.39389 0.0
C1204 C 0.72111 0.60627 0.57771 0.0
C1205 C 0.70134 0.60639 0.59978 0.0
C1206 C 0.72483 0.60281 0.5004 0.0
C1207 C 0.70846 0.59954 0.44392 0.0
C1208 C 0.6888 0.60031 0.46542 0.0
C1209 C 0.68547 0.6037 0.54318 0.0
C1210 C 0.74604 0.60218 0.47947 0.0
C1211 C 0.67083 0.59668 0.40689 0.0
H1212 H 0.73073 0.62114 0.18906 0.0
H1213 H 0.69389 0.54976 0.23973 0.0
H1214 H 0.71852 0.64007 0.35217 0.0
H1215 H 0.74393 0.64072 0.38249 0.0
H1216 H 0.74167 0.64891 0.28498 0.0
H1217 H 0.68565 0.53577 0.36654 0.0
H1218 H 0.7016 0.55492 0.44394 0.0
H1219 H 0.67474 0.55149 0.41678 0.0
H1220 H 0.73362 0.60875 0.6211 0.0
H1221 H 0.67004 0.60347 0.56 0.0
H1222 H 0.75594 0.61544 0.43575 0.0
H1223 H 0.74145 0.58558 0.45309 0.0
H1224 H 0.75702 0.60488 0.5305 0.0
H1225 H 0.67862 0.60697 0.35417 0.0
H1226 H 0.65833 0.60106 0.43054 0.0
H1227 H 0.66161 0.57862 0.38902 0.0
C1228 C 0.11506 0.71312 0.41965 0.0
C1229 C 0.13304 0.70978 0.39722 0.0
C1230 C 0.1097 0.71336 0.49782 0.0
C1231 C 0.12228 0.70969 0.55529 0.0
C1232 C 0.14085 0.70704 0.5337 0.0
C1233 C 0.14619 0.70742 0.45508 0.0
C1234 C 0.08998 0.71662 0.51866 0.0
C1235 C 0.15443 0.7027 0.59341 0.0
C1236 C 0.11802 0.72196 0.76714 0.0
C1237 C 0.10177 0.70048 0.79407 0.0
C1238 C 0.12451 0.72542 0.68899 0.0
C1239 C 0.11488 0.70678 0.63737 0.0
C1240 C 0.09837 0.68507 0.6644 0.0
C1241 C 0.09184 0.68225 0.74234 0.0
C1242 C 0.14168 0.74894 0.66181 0.0
C1243 C 0.08804 0.66467 0.6115 0.0
H1244 H 0.1045 0.71477 0.37654 0.0
H1245 H 0.16036 0.70529 0.43912 0.0
H1246 H 0.09501 0.72971 0.56438 0.0
H1247 H 0.08353 0.72173 0.46796 0.0
H1248 H 0.0759 0.70057 0.54217 0.0
H1249 H 0.169 0.702 0.56746 0.0
H1250 H 0.16095 0.71613 0.63827 0.0
H1251 H 0.14333 0.68634 0.62304 0.0
H1252 H 0.12555 0.73604 0.80739 0.0
H1253 H 0.07953 0.66558 0.76362 0.0
H1254 H 0.1346 0.75405 0.61306 0.0
H1255 H 0.15705 0.74906 0.63992 0.0
H1256 H 0.1468 0.76176 0.70866 0.0
H1257 H 0.07932 0.66757 0.56238 0.0
H1258 H 0.07563 0.64893 0.64198 0.0
H1259 H 0.10158 0.66203 0.58676 0.0
C1260 C 0.44574 0.12993 0.5824 0.0
C1261 C 0.42976 0.12962 0.53078 0.0
C1262 C 0.44061 0.12518 0.66107 0.0
C1263 C 0.41908 0.12034 0.68865 0.0
C1264 C 0.40319 0.12089 0.63733 0.0
C1265 C 0.40867 0.12535 0.55869 0.0
C1266 C 0.45787 0.12444 0.714 0.0
C1267 C 0.3802 0.11616 0.66502 0.0
C1268 C 0.39772 0.08424 0.86939 0.0
C1269 C 0.40389 0.10078 0.92678 0.0
C1270 C 0.40229 0.09036 0.79126 0.0
C1271 C 0.41286 0.11357 0.77045 0.0
C1272 C 0.41836 0.13028 0.82812 0.0
C1273 C 0.414 0.12367 0.9059 0.0
C1274 C 0.39643 0.07209 0.73135 0.0
C1275 C 0.42911 0.15512 0.80781 0.0
H1276 H 0.46191 0.13289 0.5606 0.0
H1277 H 0.39641 0.12532 0.51868 0.0
H1278 H 0.46139 0.13595 0.76399 0.0
H1279 H 0.45099 0.10704 0.73742 0.0
H1280 H 0.4741 0.12939 0.68389 0.0
H1281 H 0.37068 0.11935 0.61926 0.0
H1282 H 0.37002 0.0982 0.68359 0.0
H1283 H 0.38203 0.12686 0.71598 0.0
H1284 H 0.38998 0.06657 0.88612 0.0
H1285 H 0.41835 0.13636 0.95054 0.0
H1286 H 0.41213 0.07478 0.70234 0.0
H1287 H 0.38539 0.07298 0.68601 0.0
H1288 H 0.38765 0.0548 0.75694 0.0
H1289 H 0.43097 0.16576 0.85907 0.0
H1290 H 0.41875 0.15765 0.7637 0.0
H1291 H 0.44611 0.16115 0.78222 0.0
C1292 C 0.2933 0.43109 0.74573 0.0
C1293 C 0.30597 0.42586 0.69486 0.0
C1294 C 0.29221 0.42581 0.82469 0.0
C1295 C 0.30471 0.41578 0.85279 0.0
C1296 C 0.31781 0.41083 0.80136 0.0
C1297 C 0.318 0.41565 0.7227 0.0
C1298 C 0.27771 0.43086 0.87789 0.0
C1299 C 0.3319 0.40077 0.82946 0.0
C1300 C 0.32207 0.42326 0.0631 0.0
C1301 C 0.3075 0.40161 0.09287 0.0
C1302 C 0.3211 0.42821 0.98514 0.0
C1303 C 0.30485 0.41115 0.93638 0.0
C1304 C 0.2897 0.38937 0.96658 0.0
C1305 C 0.29139 0.38477 0.04463 0.0
C1306 C 0.33793 0.45144 0.95449 0.0
C1307 C 0.27191 0.37094 0.91632 0.0
H1308 H 0.28395 0.43887 0.72325 0.0
H1309 H 0.32794 0.41187 0.68274 0.0
H1310 H 0.2654 0.4152 0.9089 0.0
H1311 H 0.28847 0.44338 0.92234 0.0
H1312 H 0.26823 0.43768 0.84617 0.0
H1313 H 0.34196 0.39899 0.78219 0.0
H1314 H 0.3437 0.41159 0.8755 0.0
H1315 H 0.32074 0.3838 0.85509 0.0
H1316 H 0.33464 0.43615 0.10069 0.0
H1317 H 0.27997 0.36813 0.06831 0.0
H1318 H 0.32891 0.4594 0.9271 0.0
H1319 H 0.34863 0.44988 0.90919 0.0
H1320 H 0.34917 0.4629 0.00062 0.0
H1321 H 0.26162 0.3772 0.88688 0.0
H1322 H 0.2604 0.3555 0.95005 0.0
H1323 H 0.28019 0.36618 0.87059 0.0
C1324 C 0.91139 0.29624 0.2316 0.0
C1325 C 0.91456 0.31362 0.28234 0.0
C1326 C 0.90601 0.29679 0.15377 0.0
C1327 C 0.90382 0.31518 0.12641 0.0
C1328 C 0.90748 0.33302 0.17689 0.0
C1329 C 0.91283 0.33202 0.25442 0.0
C1330 C 0.9023 0.27751 0.10115 0.0
C1331 C 0.90555 0.35303 0.14919 0.0
C1332 C 0.9095 0.32436 0.91052 0.0
C1333 C 0.88675 0.31385 0.88749 0.0
C1334 C 0.91532 0.32559 0.98854 0.0
C1335 C 0.89791 0.31577 0.04454 0.0
C1336 C 0.87489 0.30567 0.02189 0.0
C1337 C 0.86957 0.30499 0.94321 0.0
C1338 C 0.94005 0.33689 0.01074 0.0
C1339 C 0.85593 0.295 0.08044 0.0
H1340 H 0.91239 0.28184 0.25325 0.0
H1341 H 0.91557 0.34559 0.29354 0.0
H1342 H 0.88488 0.26923 0.07703 0.0
H1343 H 0.91425 0.28413 0.05159 0.0
H1344 H 0.9047 0.2645 0.13162 0.0
H1345 H 0.90926 0.36566 0.19578 0.0
H1346 H 0.91745 0.36157 0.1005 0.0
H1347 H 0.88819 0.34712 0.1271 0.0
H1348 H 0.92277 0.33162 0.86718 0.0
H1349 H 0.85203 0.29689 0.92485 0.0
H1350 H 0.94393 0.32402 0.03404 0.0
H1351 H 0.9439 0.34959 0.05703 0.0
H1352 H 0.95143 0.34549 0.9608 0.0
H1353 H 0.85617 0.28052 0.10902 0.0
H1354 H 0.83901 0.28876 0.05364 0.0
H1355 H 0.85838 0.30743 0.12626 0.0
loop_
_geom_bond_atom_site_label_1
_geom_bond_atom_site_label_2
_geom_bond_distance
_geom_bond_site_symmetry_2
_ccdc_geom_bond_type
C0 C1 1.351 . S
C0 N3 1.368 . S
C0 H5 0.931 . S
C1 C0 1.351 . S
C1 N2 1.373 . S
C1 H29 0.930 . S
N2 C1 1.373 . S
N2 C4 1.340 . S
N3 C0 1.368 . S
N3 C4 1.321 . S
N3 Co6 2.135 1_556 S
C4 N2 1.340 . S
C4 N3 1.321 . S
C4 H28 0.930 . S
H5 C0 0.931 . S
Co6 N3 2.135 1_554 S
Co6 N9 2.121 . S
Co6 O14 2.055 . S
Co6 O17 2.039 . S
Co6 N20 2.140 . S
C7 O8 1.230 . S
C7 O17 1.261 1_556 S
O8 C7 1.230 . S
N9 Co6 2.121 . S
N9 C11 1.375 . S
N9 C12 1.313 . S
C10 C11 1.338 . S
C10 N13 1.377 . S
C10 H30 0.930 . S
C11 N9 1.375 . S
C11 C10 1.338 . S
C11 H15 0.931 . S
C12 N9 1.313 . S
C12 N13 1.344 . S
C12 H16 0.930 . S
N13 C10 1.377 . S
N13 C12 1.344 . S
O14 Co6 2.055 . S
O14 C18 1.253 . S
H15 C11 0.931 . S
H16 C12 0.930 . S
O17 Co6 2.039 . S
O17 C7 1.261 1_554 S
C18 O14 1.253 . S
C18 O19 1.227 . S
O19 C18 1.227 . S
N20 Co6 2.140 . S
N20 C23 1.346 1_554 S
N20 C24 1.345 . S
C21 C22 1.387 1_554 S
C21 C25 1.391 . S
C22 C21 1.387 1_556 S
C22 C23 1.369 . S
C22 H31 0.929 . S
C23 N20 1.346 1_556 S
C23 C22 1.369 . S
C23 H26 0.928 . S
C24 N20 1.345 . S
C24 C25 1.371 . S
C24 H27 0.931 . S
C25 C21 1.391 . S
C25 C24 1.371 . S
C25 H32 0.930 . S
H26 C23 0.928 . S
H27 C24 0.931 . S
H28 C4 0.930 . S
H29 C1 0.930 . S
H30 C10 0.930 . S
H31 C22 0.929 . S
H32 C25 0.930 . S
C33 C34 1.351 . S
C33 N36 1.368 . S
C33 H38 0.931 . S
C34 C33 1.351 . S
C34 N35 1.373 1_554 S
C34 H62 0.930 1_554 S
N35 C34 1.373 1_556 S
N35 C37 1.340 1_556 S
N36 C33 1.368 . S
N36 C37 1.321 . S
N36 Co39 2.135 . S
C37 N35 1.340 1_554 S
C37 N36 1.321 . S
C37 H61 0.930 . S
H38 C33 0.931 . S
Co39 N36 2.135 . S
Co39 N42 2.121 . S
Co39 O47 2.055 . S
Co39 O50 2.039 . S
Co39 N53 2.140 . S
C40 O41 1.227 . S
C40 O50 1.265 . S
O41 C40 1.227 . S
N42 Co39 2.121 . S
N42 C44 1.375 . S
N42 C45 1.313 . S
C43 C44 1.338 . S
C43 N46 1.377 . S
C43 H63 0.930 . S
C44 N42 1.375 . S
C44 C43 1.338 . S
C44 H48 0.931 . S
C45 N42 1.313 . S
C45 N46 1.344 . S
C45 H49 0.930 . S
N46 C43 1.377 . S
N46 C45 1.344 . S
O47 Co39 2.055 . S
O47 C51 1.253 . S
H48 C44 0.931 . S
H49 C45 0.930 . S
O50 Co39 2.039 . S
O50 C40 1.265 . S
C51 O47 1.253 . S
C51 O52 1.227 . S
O52 C51 1.227 . S
N53 Co39 2.140 . S
N53 C56 1.346 . S
N53 C57 1.345 . S
C54 C55 1.387 . S
C54 C58 1.391 . S
C55 C54 1.387 . S
C55 C56 1.369 . S
C55 H64 0.929 . S
C56 N53 1.346 . S
C56 C55 1.369 . S
C56 H59 0.928 . S
C57 N53 1.345 . S
C57 C58 1.371 . S
C57 H60 0.931 . S
C58 C54 1.391 . S
C58 C57 1.371 . S
C58 H65 0.930 . S
H59 C56 0.928 . S
H60 C57 0.931 . S
H61 C37 0.930 . S
H62 C34 0.930 1_556 S
H63 C43 0.930 . S
H64 C55 0.929 . S
H65 C58 0.930 . S
C66 C67 1.351 . S
C66 N69 1.368 . S
C66 H71 0.931 . S
C67 C66 1.351 . S
C67 N68 1.373 . S
C67 H95 0.930 . S
N68 C67 1.373 . S
N68 C70 1.340 . S
N69 C66 1.368 . S
N69 C70 1.321 . S
N69 Co72 2.135 . S
C70 N68 1.340 . S
C70 N69 1.321 . S
C70 H94 0.930 . S
H71 C66 0.931 . S
Co72 N69 2.135 . S
Co72 N75 2.121 . S
Co72 O80 2.055 . S
Co72 O83 2.039 . S
Co72 N86 2.140 . S
C73 O74 1.227 . S
C73 O83 1.265 . S
O74 C73 1.227 . S
N75 Co72 2.121 . S
N75 C77 1.375 . S
N75 C78 1.313 . S
C76 C77 1.338 . S
C76 N79 1.377 . S
C76 H96 0.930 . S
C77 N75 1.375 . S
C77 C76 1.338 . S
C77 H81 0.931 . S
C78 N75 1.313 . S
C78 N79 1.344 . S
C78 H82 0.930 . S
N79 C76 1.377 . S
N79 C78 1.344 . S
O80 Co72 2.055 . S
O80 C84 1.253 . S
H81 C77 0.931 . S
H82 C78 0.930 . S
O83 Co72 2.039 . S
O83 C73 1.265 . S
C84 O80 1.253 . S
C84 O85 1.227 . S
O85 C84 1.227 . S
N86 Co72 2.140 . S
N86 C89 1.346 . S
N86 C90 1.345 . S
C87 C88 1.387 . S
C87 C91 1.391 . S
C88 C87 1.387 . S
C88 C89 1.369 . S
C88 H97 0.929 . S
C89 N86 1.346 . S
C89 C88 1.369 . S
C89 H92 0.928 . S
C90 N86 1.345 . S
C90 C91 1.371 . S
C90 H93 0.931 . S
C91 C87 1.391 . S
C91 C90 1.371 . S
C91 H98 0.930 . S
H92 C89 0.928 . S
H93 C90 0.931 . S
H94 C70 0.930 . S
H95 C67 0.930 . S
H96 C76 0.930 . S
H97 C88 0.929 . S
H98 C91 0.930 . S
C99 C100 1.351 . S
C99 N102 1.368 . S
C99 H104 0.931 . S
C100 C99 1.351 . S
C100 N101 1.373 . S
C100 H128 0.930 . S
N101 C100 1.373 . S
N101 C103 1.340 . S
N102 C99 1.368 . S
N102 C103 1.321 . S
N102 Co105 2.135 . S
C103 N101 1.340 . S
C103 N102 1.321 . S
C103 H127 0.930 . S
H104 C99 0.931 . S
Co105 N102 2.135 . S
Co105 N108 2.121 . S
Co105 O113 2.055 . S
Co105 O116 2.039 . S
Co105 N119 2.140 . S
C106 O107 1.227 . S
C106 O116 1.265 . S
O107 C106 1.227 . S
N108 Co105 2.121 . S
N108 C110 1.375 . S
N108 C111 1.313 . S
C109 C110 1.338 . S
C109 N112 1.377 . S
C109 H129 0.930 . S
C110 N108 1.375 . S
C110 C109 1.338 . S
C110 H114 0.931 . S
C111 N108 1.313 . S
C111 N112 1.344 . S
C111 H115 0.930 . S
N112 C109 1.377 . S
N112 C111 1.344 . S
O113 Co105 2.055 . S
O113 C117 1.253 . S
H114 C110 0.931 . S
H115 C111 0.930 . S
O116 Co105 2.039 . S
O116 C106 1.265 . S
C117 O113 1.253 . S
C117 O118 1.227 . S
O118 C117 1.227 . S
N119 Co105 2.140 . S
N119 C122 1.346 . S
N119 C123 1.345 . S
C120 C121 1.387 . S
C120 C124 1.391 . S
C121 C120 1.387 . S
C121 C122 1.369 . S
C121 H130 0.929 . S
C122 N119 1.346 . S
C122 C121 1.369 . S
C122 H125 0.928 . S
C123 N119 1.345 . S
C123 C124 1.371 . S
C123 H126 0.931 . S
C124 C120 1.391 . S
C124 C123 1.371 . S
C124 H131 0.930 . S
H125 C122 0.928 . S
H126 C123 0.931 . S
H127 C103 0.930 . S
H128 C100 0.930 . S
H129 C109 0.930 . S
H130 C121 0.929 . S
H131 C124 0.930 . S
C132 C133 1.351 . S
C132 N135 1.368 . S
C132 H137 0.931 . S
C133 C132 1.351 . S
C133 N134 1.373 . S
C133 H161 0.930 . S
N134 C133 1.373 . S
N134 C136 1.340 . S
N135 C132 1.368 . S
N135 C136 1.321 . S
N135 Co138 2.135 . S
C136 N134 1.340 . S
C136 N135 1.321 . S
C136 H160 0.930 . S
H137 C132 0.931 . S
Co138 N135 2.135 . S
Co138 N141 2.121 . S
Co138 O146 2.055 . S
Co138 O149 2.039 . S
Co138 N152 2.140 . S
C139 O140 1.227 . S
C139 O149 1.265 . S
O140 C139 1.227 . S
N141 Co138 2.121 . S
N141 C143 1.375 . S
N141 C144 1.313 . S
C142 C143 1.338 . S
C142 N145 1.377 . S
C142 H162 0.930 . S
C143 N141 1.375 . S
C143 C142 1.338 . S
C143 H147 0.931 . S
C144 N141 1.313 . S
C144 N145 1.344 . S
C144 H148 0.930 . S
N145 C142 1.377 . S
N145 C144 1.344 . S
O146 Co138 2.055 . S
O146 C150 1.253 . S
H147 C143 0.931 . S
H148 C144 0.930 . S
O149 Co138 2.039 . S
O149 C139 1.265 . S
C150 O146 1.253 . S
C150 O151 1.227 . S
O151 C150 1.227 . S
N152 Co138 2.140 . S
N152 C155 1.346 . S
N152 C156 1.345 . S
C153 C154 1.387 . S
C153 C157 1.391 . S
C154 C153 1.387 . S
C154 C155 1.369 . S
C154 H163 0.929 . S
C155 N152 1.346 . S
C155 C154 1.369 . S
C155 H158 0.928 . S
C156 N152 1.345 . S
C156 C157 1.371 . S
C156 H159 0.931 . S
C157 C153 1.391 . S
C157 C156 1.371 . S
C157 H164 0.930 . S
H158 C155 0.928 . S
H159 C156 0.931 . S
H160 C136 0.930 . S
H161 C133 0.930 . S
H162 C142 0.930 . S
H163 C154 0.929 . S
H164 C157 0.930 . S
C165 C166 1.351 . S
C165 N168 1.368 . S
C165 H170 0.931 . S
C166 C165 1.351 . S
C166 N167 1.373 . S
C166 H194 0.930 . S
N167 C166 1.373 . S
N167 C169 1.340 . S
N168 C165 1.368 . S
N168 C169 1.321 . S
N168 Co171 2.135 . S
C169 N167 1.340 . S
C169 N168 1.321 . S
C169 H193 0.930 . S
H170 C165 0.931 . S
Co171 N168 2.135 . S
Co171 N174 2.121 1_556 S
Co171 O179 2.055 . S
Co171 O182 2.039 . S
Co171 N185 2.140 . S
C172 O173 1.227 . S
C172 O182 1.265 . S
O173 C172 1.227 . S
N174 Co171 2.121 1_554 S
N174 C176 1.375 . S
N174 C177 1.313 . S
C175 C176 1.338 . S
C175 N178 1.377 . S
C175 H195 0.930 . S
C176 N174 1.375 . S
C176 C175 1.338 . S
C176 H180 0.931 1_554 S
C177 N174 1.313 . S
C177 N178 1.344 . S
C177 H181 0.930 . S
N178 C175 1.377 . S
N178 C177 1.344 . S
O179 Co171 2.055 . S
O179 C183 1.253 . S
H180 C176 0.931 1_556 S
H181 C177 0.930 . S
O182 Co171 2.039 . S
O182 C172 1.265 . S
C183 O179 1.253 . S
C183 O184 1.227 . S
O184 C183 1.227 . S
N185 Co171 2.140 . S
N185 C188 1.346 . S
N185 C189 1.345 . S
C186 C187 1.387 . S
C186 C190 1.391 . S
C187 C186 1.387 . S
C187 C188 1.369 . S
C187 H196 0.929 . S
C188 N185 1.346 . S
C188 C187 1.369 . S
C188 H191 0.928 . S
C189 N185 1.345 . S
C189 C190 1.371 . S
C189 H192 0.931 . S
C190 C186 1.391 . S
C190 C189 1.371 . S
C190 H197 0.931 1_556 S
H191 C188 0.928 . S
H192 C189 0.931 . S
H193 C169 0.930 . S
H194 C166 0.930 . S
H195 C175 0.930 . S
H196 C187 0.929 . S
H197 C190 0.931 1_554 S
C198 C199 1.351 . S
C198 N201 1.368 . S
C198 H203 0.931 . S
C199 C198 1.351 . S
C199 N200 1.373 1_556 S
C199 H227 0.930 1_556 S
N200 C199 1.373 1_554 S
N200 C202 1.340 1_554 S
N201 C198 1.368 . S
N201 C202 1.321 . S
N201 Co204 2.135 . S
C202 N200 1.340 1_556 S
C202 N201 1.321 . S
C202 H226 0.930 . S
H203 C198 0.931 . S
Co204 N201 2.135 . S
Co204 N207 2.121 . S
Co204 O212 2.055 . S
Co204 O215 2.039 . S
Co204 N218 2.140 . S
C205 O206 1.227 . S
C205 O215 1.265 . S
O206 C205 1.227 . S
N207 Co204 2.121 . S
N207 C209 1.375 . S
N207 C210 1.313 . S
C208 C209 1.338 . S
C208 N211 1.377 . S
C208 H228 0.930 . S
C209 N207 1.375 . S
C209 C208 1.338 . S
C209 H213 0.931 . S
C210 N207 1.313 . S
C210 N211 1.344 . S
C210 H214 0.930 . S
N211 C208 1.377 . S
N211 C210 1.344 . S
O212 Co204 2.055 . S
O212 C216 1.253 . S
H213 C209 0.931 . S
H214 C210 0.930 . S
O215 Co204 2.039 . S
O215 C205 1.265 . S
C216 O212 1.253 . S
C216 O217 1.227 . S
O217 C216 1.227 . S
N218 Co204 2.140 . S
N218 C221 1.346 . S
N218 C222 1.345 . S
C219 C220 1.387 . S
C219 C223 1.391 . S
C220 C219 1.387 . S
C220 C221 1.369 . S
C220 H229 0.929 . S
C221 N218 1.346 . S
C221 C220 1.369 . S
C221 H224 0.928 . S
C222 N218 1.345 . S
C222 C223 1.371 . S
C222 H225 0.931 . S
C223 C219 1.391 . S
C223 C222 1.371 . S
C223 H230 0.930 . S
H224 C221 0.928 . S
H225 C222 0.931 . S
H226 C202 0.930 . S
H227 C199 0.930 1_554 S
H228 C208 0.930 . S
H229 C220 0.929 . S
H230 C223 0.930 . S
C231 C232 1.351 . S
C231 N234 1.368 . S
C231 H236 0.931 . S
C232 C231 1.351 . S
C232 N233 1.373 . S
C232 H260 0.930 . S
N233 C232 1.373 . S
N233 C235 1.340 . S
N234 C231 1.368 . S
N234 C235 1.321 . S
N234 Co237 2.135 1_554 S
C235 N233 1.340 . S
C235 N234 1.321 . S
C235 H259 0.930 . S
H236 C231 0.931 . S
Co237 N234 2.135 1_556 S
Co237 N240 2.121 . S
Co237 O245 2.055 . S
Co237 O248 2.039 . S
Co237 N251 2.140 . S
C238 O239 1.227 . S
C238 O248 1.265 1_554 S
O239 C238 1.227 . S
N240 Co237 2.121 . S
N240 C242 1.375 . S
N240 C243 1.313 . S
C241 C242 1.338 . S
C241 N244 1.377 . S
C241 H261 0.930 . S
C242 N240 1.375 . S
C242 C241 1.338 . S
C242 H246 0.931 . S
C243 N240 1.313 . S
C243 N244 1.344 . S
C243 H247 0.930 . S
N244 C241 1.377 . S
N244 C243 1.344 . S
O245 Co237 2.055 . S
O245 C249 1.253 . S
H246 C242 0.931 . S
H247 C243 0.930 . S
O248 Co237 2.039 . S
O248 C238 1.265 1_556 S
C249 O245 1.253 . S
C249 O250 1.227 . S
O250 C249 1.227 . S
N251 Co237 2.140 . S
N251 C254 1.346 1_556 S
N251 C255 1.345 . S
C252 C253 1.387 1_556 S
C252 C256 1.391 . S
C253 C252 1.387 1_554 S
C253 C254 1.369 . S
C253 H262 0.929 . S
C254 N251 1.346 1_554 S
C254 C253 1.369 . S
C254 H257 0.928 . S
C255 N251 1.345 . S
C255 C256 1.371 . S
C255 H258 0.931 . S
C256 C252 1.391 . S
C256 C255 1.371 . S
C256 H263 0.930 . S
H257 C254 0.928 . S
H258 C255 0.931 . S
H259 C235 0.930 . S
H260 C232 0.930 . S
H261 C241 0.930 . S
H262 C253 0.929 . S
H263 C256 0.930 . S
C264 C265 1.351 . S
C264 N267 1.368 . S
C264 H269 0.931 . S
C265 C264 1.351 . S
C265 N266 1.373 . S
C265 H293 0.930 . S
N266 C265 1.373 . S
N266 C268 1.340 . S
N267 C264 1.368 . S
N267 C268 1.321 . S
N267 Co270 2.135 . S
C268 N266 1.340 . S
C268 N267 1.321 . S
C268 H292 0.930 . S
H269 C264 0.931 . S
Co270 N267 2.135 . S
Co270 N273 2.121 . S
Co270 O278 2.055 . S
Co270 O281 2.039 . S
Co270 N284 2.140 . S
C271 O272 1.227 . S
C271 O281 1.265 . S
O272 C271 1.227 . S
N273 Co270 2.121 . S
N273 C275 1.375 1_554 S
N273 C276 1.313 1_554 S
C274 C275 1.338 . S
C274 N277 1.377 . S
C274 H294 0.930 . S
C275 N273 1.375 1_556 S
C275 C274 1.338 . S
C275 H279 0.931 1_556 S
C276 N273 1.313 1_556 S
C276 N277 1.344 . S
C276 H280 0.930 . S
N277 C274 1.377 . S
N277 C276 1.344 . S
O278 Co270 2.055 . S
O278 C282 1.253 . S
H279 C275 0.931 1_554 S
H280 C276 0.930 . S
O281 Co270 2.039 . S
O281 C271 1.265 . S
C282 O278 1.253 . S
C282 O283 1.227 . S
O283 C282 1.227 . S
N284 Co270 2.140 . S
N284 C287 1.346 . S
N284 C288 1.345 . S
C285 C286 1.387 . S
C285 C289 1.391 . S
C286 C285 1.387 . S
C286 C287 1.369 . S
C286 H295 0.929 . S
C287 N284 1.346 . S
C287 C286 1.369 . S
C287 H290 0.928 . S
C288 N284 1.345 . S
C288 C289 1.371 . S
C288 H291 0.931 . S
C289 C285 1.391 . S
C289 C288 1.371 . S
C289 H296 0.930 . S
H290 C287 0.928 . S
H291 C288 0.931 . S
H292 C268 0.930 . S
H293 C265 0.930 . S
H294 C274 0.930 . S
H295 C286 0.929 . S
H296 C289 0.930 . S
C297 C298 1.351 . S
C297 N300 1.368 . S
C297 H302 0.931 . S
C298 C297 1.351 . S
C298 N299 1.373 . S
C298 H326 0.930 . S
N299 C298 1.373 . S
N299 C301 1.340 . S
N300 C297 1.368 . S
N300 C301 1.321 . S
N300 Co303 2.135 . S
C301 N299 1.340 . S
C301 N300 1.321 . S
C301 H325 0.930 . S
H302 C297 0.931 . S
Co303 N300 2.135 . S
Co303 N306 2.121 . S
Co303 O311 2.055 . S
Co303 O314 2.039 . S
Co303 N317 2.140 . S
C304 O305 1.227 . S
C304 O314 1.265 . S
O305 C304 1.227 . S
N306 Co303 2.121 . S
N306 C308 1.375 . S
N306 C309 1.313 . S
C307 C308 1.338 . S
C307 N310 1.377 . S
C307 H327 0.930 . S
C308 N306 1.375 . S
C308 C307 1.338 . S
C308 H312 0.931 . S
C309 N306 1.313 . S
C309 N310 1.344 . S
C309 H313 0.930 . S
N310 C307 1.377 . S
N310 C309 1.344 . S
O311 Co303 2.055 . S
O311 C315 1.253 . S
H312 C308 0.931 . S
H313 C309 0.930 . S
O314 Co303 2.039 . S
O314 C304 1.265 . S
C315 O311 1.253 . S
C315 O316 1.227 . S
O316 C315 1.227 . S
N317 Co303 2.140 . S
N317 C320 1.346 . S
N317 C321 1.345 . S
C318 C319 1.387 . S
C318 C322 1.391 . S
C319 C318 1.387 . S
C319 C320 1.369 . S
C319 H328 0.929 . S
C320 N317 1.346 . S
C320 C319 1.369 . S
C320 H323 0.928 . S
C321 N317 1.345 . S
C321 C322 1.371 . S
C321 H324 0.931 . S
C322 C318 1.391 . S
C322 C321 1.371 . S
C322 H329 0.930 . S
H323 C320 0.928 . S
H324 C321 0.931 . S
H325 C301 0.930 . S
H326 C298 0.930 . S
H327 C307 0.930 . S
H328 C319 0.929 . S
H329 C322 0.930 . S
C330 C331 1.351 . S
C330 N333 1.368 . S
C330 H335 0.931 . S
C331 C330 1.351 . S
C331 N332 1.373 . S
C331 H359 0.930 . S
N332 C331 1.373 . S
N332 C334 1.340 . S
N333 C330 1.368 . S
N333 C334 1.321 . S
N333 Co336 2.135 . S
C334 N332 1.340 . S
C334 N333 1.321 . S
C334 H358 0.930 . S
H335 C330 0.931 . S
Co336 N333 2.135 . S
Co336 N339 2.121 . S
Co336 O344 2.055 . S
Co336 O347 2.039 . S
Co336 N350 2.140 . S
C337 O338 1.227 . S
C337 O347 1.265 . S
O338 C337 1.227 . S
N339 Co336 2.121 . S
N339 C341 1.375 . S
N339 C342 1.313 . S
C340 C341 1.338 . S
C340 N343 1.377 . S
C340 H360 0.930 . S
C341 N339 1.375 . S
C341 C340 1.338 . S
C341 H345 0.931 . S
C342 N339 1.313 . S
C342 N343 1.344 . S
C342 H346 0.930 . S
N343 C340 1.377 . S
N343 C342 1.344 . S
O344 Co336 2.055 . S
O344 C348 1.253 . S
H345 C341 0.931 . S
H346 C342 0.930 . S
O347 Co336 2.039 . S
O347 C337 1.265 . S
C348 O344 1.253 . S
C348 O349 1.227 . S
O349 C348 1.227 . S
N350 Co336 2.140 . S
N350 C353 1.346 . S
N350 C354 1.345 . S
C351 C352 1.387 . S
C351 C355 1.391 . S
C352 C351 1.387 . S
C352 C353 1.369 . S
C352 H361 0.929 . S
C353 N350 1.346 . S
C353 C352 1.369 . S
C353 H356 0.928 . S
C354 N350 1.345 . S
C354 C355 1.371 . S
C354 H357 0.931 . S
C355 C351 1.391 . S
C355 C354 1.371 . S
C355 H362 0.930 . S
H356 C353 0.928 . S
H357 C354 0.931 . S
H358 C334 0.930 . S
H359 C331 0.930 . S
H360 C340 0.930 . S
H361 C352 0.929 . S
H362 C355 0.930 . S
C363 C364 1.351 . S
C363 N366 1.368 . S
C363 H368 0.931 . S
C364 C363 1.351 . S
C364 N365 1.373 . S
C364 H392 0.930 . S
N365 C364 1.373 . S
N365 C367 1.340 . S
N366 C363 1.368 . S
N366 C367 1.321 . S
N366 Co369 2.135 . S
C367 N365 1.340 . S
C367 N366 1.321 . S
C367 H391 0.930 . S
H368 C363 0.931 . S
Co369 N366 2.135 . S
Co369 N372 2.121 . S
Co369 O377 2.055 . S
Co369 O380 2.039 . S
Co369 N383 2.140 . S
C370 O371 1.227 . S
C370 O380 1.265 . S
O371 C370 1.227 . S
N372 Co369 2.121 . S
N372 C374 1.375 . S
N372 C375 1.313 . S
C373 C374 1.338 . S
C373 N376 1.377 . S
C373 H393 0.930 . S
C374 N372 1.375 . S
C374 C373 1.338 . S
C374 H378 0.931 . S
C375 N372 1.313 . S
C375 N376 1.344 . S
C375 H379 0.930 . S
N376 C373 1.377 . S
N376 C375 1.344 . S
O377 Co369 2.055 . S
O377 C381 1.253 . S
H378 C374 0.931 . S
H379 C375 0.930 . S
O380 Co369 2.039 . S
O380 C370 1.265 . S
C381 O377 1.253 . S
C381 O382 1.227 . S
O382 C381 1.227 . S
N383 Co369 2.140 . S
N383 C386 1.346 . S
N383 C387 1.345 . S
C384 C385 1.387 . S
C384 C388 1.391 . S
C385 C384 1.387 . S
C385 C386 1.369 . S
C385 H394 0.929 . S
C386 N383 1.346 . S
C386 C385 1.369 . S
C386 H389 0.928 . S
C387 N383 1.345 . S
C387 C388 1.371 . S
C387 H390 0.931 . S
C388 C384 1.391 . S
C388 C387 1.371 . S
C388 H395 0.930 . S
H389 C386 0.928 . S
H390 C387 0.931 . S
H391 C367 0.930 . S
H392 C364 0.930 . S
H393 C373 0.930 . S
H394 C385 0.929 . S
H395 C388 0.930 . S
C396 C397 1.391 . S
C396 C398 1.394 . S
C396 H412 0.931 . S
C397 C396 1.391 . S
C397 C401 1.376 . S
C398 C396 1.394 . S
C398 C399 1.369 . S
C398 C402 1.531 . S
C399 C398 1.369 . S
C399 C400 1.410 . S
C399 C407 1.503 . S
C400 C399 1.410 . S
C400 C401 1.392 . S
C400 C403 1.511 1_554 S
C401 C397 1.376 . S
C401 C400 1.392 . S
C401 H413 0.929 1_554 S
C402 C398 1.531 . S
C402 H414 0.960 . S
C402 H415 0.962 . S
C402 H416 0.960 . S
C403 C400 1.511 1_556 S
C403 H417 0.961 . S
C403 H418 0.961 . S
C403 H419 0.961 . S
C404 C405 1.370 . S
C404 C406 1.363 . S
C404 H420 0.931 . S
C405 C404 1.370 . S
C405 C409 1.408 . S
C406 C404 1.363 . S
C406 C407 1.370 . S
C406 C410 1.524 . S
C407 C399 1.503 . S
C407 C406 1.370 . S
C407 C408 1.403 . S
C408 C407 1.403 . S
C408 C409 1.404 . S
C408 C411 1.539 . S
C409 C405 1.408 . S
C409 C408 1.404 . S
C409 H421 0.930 . S
C410 C406 1.524 . S
C410 H422 0.956 . S
C410 H423 0.961 . S
C410 H424 0.961 . S
C411 C408 1.539 . S
C411 H425 0.958 . S
C411 H426 0.961 . S
C411 H427 0.960 . S
H412 C396 0.931 . S
H413 C401 0.929 1_556 S
H414 C402 0.960 . S
H415 C402 0.962 . S
H416 C402 0.960 . S
H417 C403 0.961 . S
H418 C403 0.961 . S
H419 C403 0.961 . S
H420 C404 0.931 . S
H421 C409 0.930 . S
H422 C410 0.956 . S
H423 C410 0.961 . S
H424 C410 0.961 . S
H425 C411 0.958 . S
H426 C411 0.961 . S
H427 C411 0.960 . S
C428 C429 1.391 . S
C428 C430 1.394 . S
C428 H444 0.931 . S
C429 C428 1.391 . S
C429 C433 1.376 . S
C430 C428 1.394 . S
C430 C431 1.369 . S
C430 C434 1.531 . S
C431 C430 1.369 . S
C431 C432 1.410 . S
C431 C439 1.503 . S
C432 C431 1.410 . S
C432 C433 1.392 . S
C432 C435 1.511 . S
C433 C429 1.376 . S
C433 C432 1.392 . S
C433 H445 0.929 . S
C434 C430 1.531 . S
C434 H446 0.960 . S
C434 H447 0.962 . S
C434 H448 0.960 . S
C435 C432 1.511 . S
C435 H449 0.961 . S
C435 H450 0.961 . S
C435 H451 0.961 . S
C436 C437 1.370 . S
C436 C438 1.363 . S
C436 H452 0.931 . S
C437 C436 1.370 . S
C437 C441 1.408 . S
C438 C436 1.363 . S
C438 C439 1.370 . S
C438 C442 1.524 . S
C439 C431 1.503 . S
C439 C438 1.370 . S
C439 C440 1.403 . S
C440 C439 1.403 . S
C440 C441 1.404 . S
C440 C443 1.539 . S
C441 C437 1.408 . S
C441 C440 1.404 . S
C441 H453 0.930 . S
C442 C438 1.524 . S
C442 H454 0.956 . S
C442 H455 0.961 . S
C442 H456 0.961 . S
C443 C440 1.539 . S
C443 H457 0.958 . S
C443 H458 0.961 . S
C443 H459 0.960 . S
H444 C428 0.931 . S
H445 C433 0.929 . S
H446 C434 0.960 . S
H447 C434 0.962 . S
H448 C434 0.960 . S
H449 C435 0.961 . S
H450 C435 0.961 . S
H451 C435 0.961 . S
H452 C436 0.931 . S
H453 C441 0.930 . S
H454 C442 0.956 . S
H455 C442 0.961 . S
H456 C442 0.961 . S
H457 C443 0.958 . S
H458 C443 0.961 . S
H459 C443 0.960 . S
C460 C461 1.391 . S
C460 C462 1.394 . S
C460 H476 0.931 . S
C461 C460 1.391 . S
C461 C465 1.376 . S
C462 C460 1.394 . S
C462 C463 1.369 . S
C462 C466 1.531 . S
C463 C462 1.369 . S
C463 C464 1.410 . S
C463 C471 1.503 . S
C464 C463 1.410 . S
C464 C465 1.392 . S
C464 C467 1.511 . S
C465 C461 1.376 . S
C465 C464 1.392 . S
C465 H477 0.929 . S
C466 C462 1.531 . S
C466 H478 0.960 . S
C466 H479 0.962 . S
C466 H480 0.960 . S
C467 C464 1.511 . S
C467 H481 0.961 . S
C467 H482 0.961 . S
C467 H483 0.961 . S
C468 C469 1.370 . S
C468 C470 1.363 . S
C468 H484 0.931 . S
C469 C468 1.370 . S
C469 C473 1.408 . S
C470 C468 1.363 . S
C470 C471 1.370 . S
C470 C474 1.524 . S
C471 C463 1.503 . S
C471 C470 1.370 . S
C471 C472 1.403 . S
C472 C471 1.403 . S
C472 C473 1.404 . S
C472 C475 1.539 . S
C473 C469 1.408 . S
C473 C472 1.404 . S
C473 H485 0.930 . S
C474 C470 1.524 . S
C474 H486 0.956 . S
C474 H487 0.961 . S
C474 H488 0.961 . S
C475 C472 1.539 . S
C475 H489 0.958 . S
C475 H490 0.961 . S
C475 H491 0.960 . S
H476 C460 0.931 . S
H477 C465 0.929 . S
H478 C466 0.960 . S
H479 C466 0.962 . S
H480 C466 0.960 . S
H481 C467 0.961 . S
H482 C467 0.961 . S
H483 C467 0.961 . S
H484 C468 0.931 . S
H485 C473 0.930 . S
H486 C474 0.956 . S
H487 C474 0.961 . S
H488 C474 0.961 . S
H489 C475 0.958 . S
H490 C475 0.961 . S
H491 C475 0.960 . S
C492 C493 1.391 . S
C492 C494 1.394 . S
C492 H508 0.931 . S
C493 C492 1.391 . S
C493 C497 1.376 . S
C494 C492 1.394 . S
C494 C495 1.369 . S
C494 C498 1.531 . S
C495 C494 1.369 . S
C495 C496 1.410 . S
C495 C503 1.503 . S
C496 C495 1.410 . S
C496 C497 1.392 . S
C496 C499 1.511 . S
C497 C493 1.376 . S
C497 C496 1.392 . S
C497 H509 0.929 . S
C498 C494 1.531 . S
C498 H510 0.960 . S
C498 H511 0.962 . S
C498 H512 0.960 . S
C499 C496 1.511 . S
C499 H513 0.961 . S
C499 H514 0.961 . S
C499 H515 0.961 . S
C500 C501 1.370 . S
C500 C502 1.363 . S
C500 H516 0.931 . S
C501 C500 1.370 . S
C501 C505 1.408 . S
C502 C500 1.363 . S
C502 C503 1.370 . S
C502 C506 1.524 . S
C503 C495 1.503 . S
C503 C502 1.370 . S
C503 C504 1.403 . S
C504 C503 1.403 . S
C504 C505 1.404 . S
C504 C507 1.539 . S
C505 C501 1.408 . S
C505 C504 1.404 . S
C505 H517 0.930 . S
C506 C502 1.524 . S
C506 H518 0.956 . S
C506 H519 0.961 . S
C506 H520 0.961 . S
C507 C504 1.539 . S
C507 H521 0.958 . S
C507 H522 0.961 . S
C507 H523 0.960 . S
H508 C492 0.931 . S
H509 C497 0.929 . S
H510 C498 0.960 . S
H511 C498 0.962 . S
H512 C498 0.960 . S
H513 C499 0.961 . S
H514 C499 0.961 . S
H515 C499 0.961 . S
H516 C500 0.931 . S
H517 C505 0.930 . S
H518 C506 0.956 . S
H519 C506 0.961 . S
H520 C506 0.961 . S
H521 C507 0.958 . S
H522 C507 0.961 . S
H523 C507 0.960 . S
C524 C525 1.391 . S
C524 C526 1.394 . S
C524 H540 0.931 . S
C525 C524 1.391 . S
C525 C529 1.376 . S
C526 C524 1.394 . S
C526 C527 1.369 . S
C526 C530 1.531 . S
C527 C526 1.369 . S
C527 C528 1.410 . S
C527 C535 1.503 . S
C528 C527 1.410 . S
C528 C529 1.392 . S
C528 C531 1.511 . S
C529 C525 1.376 . S
C529 C528 1.392 . S
C529 H541 0.929 . S
C530 C526 1.531 . S
C530 H542 0.960 . S
C530 H543 0.962 . S
C530 H544 0.960 . S
C531 C528 1.511 . S
C531 H545 0.961 . S
C531 H546 0.961 . S
C531 H547 0.961 . S
C532 C533 1.370 . S
C532 C534 1.363 . S
C532 H548 0.931 . S
C533 C532 1.370 . S
C533 C537 1.408 . S
C534 C532 1.363 . S
C534 C535 1.370 . S
C534 C538 1.524 . S
C535 C527 1.503 . S
C535 C534 1.370 . S
C535 C536 1.403 . S
C536 C535 1.403 . S
C536 C537 1.404 . S
C536 C539 1.539 . S
C537 C533 1.408 . S
C537 C536 1.404 . S
C537 H549 0.930 . S
C538 C534 1.524 . S
C538 H550 0.956 . S
C538 H551 0.961 . S
C538 H552 0.961 . S
C539 C536 1.539 . S
C539 H553 0.958 . S
C539 H554 0.961 . S
C539 H555 0.960 . S
H540 C524 0.931 . S
H541 C529 0.929 . S
H542 C530 0.960 . S
H543 C530 0.962 . S
H544 C530 0.960 . S
H545 C531 0.961 . S
H546 C531 0.961 . S
H547 C531 0.961 . S
H548 C532 0.931 . S
H549 C537 0.930 . S
H550 C538 0.956 . S
H551 C538 0.961 . S
H552 C538 0.961 . S
H553 C539 0.958 . S
H554 C539 0.961 . S
H555 C539 0.960 . S
C556 C557 1.391 . S
C556 C558 1.394 . S
C556 H572 0.931 . S
C557 C556 1.391 . S
C557 C561 1.376 . S
C558 C556 1.394 . S
C558 C559 1.369 . S
C558 C562 1.531 . S
C559 C558 1.369 . S
C559 C560 1.410 . S
C559 C567 1.503 . S
C560 C559 1.410 . S
C560 C561 1.392 . S
C560 C563 1.511 . S
C561 C557 1.376 . S
C561 C560 1.392 . S
C561 H573 0.929 . S
C562 C558 1.531 . S
C562 H574 0.960 . S
C562 H575 0.962 1_556 S
C562 H576 0.960 . S
C563 C560 1.511 . S
C563 H577 0.961 . S
C563 H578 0.961 . S
C563 H579 0.961 . S
C564 C565 1.370 . S
C564 C566 1.363 . S
C564 H580 0.931 1_556 S
C565 C564 1.370 . S
C565 C569 1.408 . S
C566 C564 1.363 . S
C566 C567 1.370 . S
C566 C570 1.524 1_556 S
C567 C559 1.503 . S
C567 C566 1.370 . S
C567 C568 1.403 . S
C568 C567 1.403 . S
C568 C569 1.404 . S
C568 C571 1.539 . S
C569 C565 1.408 . S
C569 C568 1.404 . S
C569 H581 0.930 . S
C570 C566 1.524 1_554 S
C570 H582 0.956 . S
C570 H583 0.961 . S
C570 H584 0.961 . S
C571 C568 1.539 . S
C571 H585 0.958 . S
C571 H586 0.961 . S
C571 H587 0.960 . S
H572 C556 0.931 . S
H573 C561 0.929 . S
H574 C562 0.960 . S
H575 C562 0.962 1_554 S
H576 C562 0.960 . S
H577 C563 0.961 . S
H578 C563 0.961 . S
H579 C563 0.961 . S
H580 C564 0.931 1_554 S
H581 C569 0.930 . S
H582 C570 0.956 . S
H583 C570 0.961 . S
H584 C570 0.961 . S
H585 C571 0.958 . S
H586 C571 0.961 . S
H587 C571 0.960 . S
C588 C589 1.391 . S
C588 C590 1.394 . S
C588 H604 0.931 . S
C589 C588 1.391 . S
C589 C593 1.376 . S
C590 C588 1.394 . S
C590 C591 1.369 . S
C590 C594 1.531 . S
C591 C590 1.369 . S
C591 C592 1.410 . S
C591 C599 1.503 1_455 S
C592 C591 1.410 . S
C592 C593 1.392 . S
C592 C595 1.511 1_455 S
C593 C589 1.376 . S
C593 C592 1.392 . S
C593 H605 0.929 1_556 S
C594 C590 1.531 . S
C594 H606 0.960 . S
C594 H607 0.962 . S
C594 H608 0.960 . S
C595 C592 1.511 1_655 S
C595 H609 0.961 . S
C595 H610 0.961 . S
C595 H611 0.961 . S
C596 C597 1.370 . S
C596 C598 1.363 . S
C596 H612 0.931 . S
C597 C596 1.370 . S
C597 C601 1.408 . S
C598 C596 1.363 . S
C598 C599 1.370 . S
C598 C602 1.524 1_655 S
C599 C591 1.503 1_655 S
C599 C598 1.370 . S
C599 C600 1.403 . S
C600 C599 1.403 . S
C600 C601 1.404 . S
C600 C603 1.539 . S
C601 C597 1.408 . S
C601 C600 1.404 . S
C601 H613 0.930 . S
C602 C598 1.524 1_455 S
C602 H614 0.956 . S
C602 H615 0.961 . S
C602 H616 0.961 . S
C603 C600 1.539 . S
C603 H617 0.958 . S
C603 H618 0.961 . S
C603 H619 0.960 . S
H604 C588 0.931 . S
H605 C593 0.929 1_554 S
H606 C594 0.960 . S
H607 C594 0.962 . S
H608 C594 0.960 . S
H609 C595 0.961 . S
H610 C595 0.961 . S
H611 C595 0.961 . S
H612 C596 0.931 . S
H613 C601 0.930 . S
H614 C602 0.956 . S
H615 C602 0.961 . S
H616 C602 0.961 . S
H617 C603 0.958 . S
H618 C603 0.961 . S
H619 C603 0.960 . S
C620 C621 1.391 . S
C620 C622 1.394 . S
C620 H636 0.931 . S
C621 C620 1.391 . S
C621 C625 1.376 . S
C622 C620 1.394 . S
C622 C623 1.369 . S
C622 C626 1.531 . S
C623 C622 1.369 . S
C623 C624 1.410 . S
C623 C631 1.503 1_566 S
C624 C623 1.410 . S
C624 C625 1.392 . S
C624 C627 1.511 1_556 S
C625 C621 1.376 . S
C625 C624 1.392 . S
C625 H637 0.929 . S
C626 C622 1.531 . S
C626 H638 0.960 1_556 S
C626 H639 0.962 1_565 S
C626 H640 0.960 . S
C627 C624 1.511 1_554 S
C627 H641 0.961 1_554 S
C627 H642 0.961 . S
C627 H643 0.961 . S
C628 C629 1.370 . S
C628 C630 1.363 . S
C628 H644 0.931 . S
C629 C628 1.370 . S
C629 C633 1.408 . S
C630 C628 1.363 . S
C630 C631 1.370 . S
C630 C634 1.524 1_554 S
C631 C623 1.503 1_544 S
C631 C630 1.370 . S
C631 C632 1.403 . S
C632 C631 1.403 . S
C632 C633 1.404 . S
C632 C635 1.539 1_545 S
C633 C629 1.408 . S
C633 C632 1.404 . S
C633 H645 0.930 . S
C634 C630 1.524 1_556 S
C634 H646 0.956 . S
C634 H647 0.961 . S
C634 H648 0.961 . S
C635 C632 1.539 1_565 S
C635 H649 0.958 . S
C635 H650 0.961 . S
C635 H651 0.960 . S
H636 C620 0.931 . S
H637 C625 0.929 . S
H638 C626 0.960 1_554 S
H639 C626 0.962 1_545 S
H640 C626 0.960 . S
H641 C627 0.961 1_556 S
H642 C627 0.961 . S
H643 C627 0.961 . S
H644 C628 0.931 . S
H645 C633 0.930 . S
H646 C634 0.956 . S
H647 C634 0.961 . S
H648 C634 0.961 . S
H649 C635 0.958 . S
H650 C635 0.961 . S
H651 C635 0.960 . S
C652 C653 1.391 . S
C652 C654 1.394 . S
C652 H668 0.931 . S
C653 C652 1.391 . S
C653 C657 1.376 . S
C654 C652 1.394 . S
C654 C655 1.369 . S
C654 C658 1.531 . S
C655 C654 1.369 . S
C655 C656 1.410 . S
C655 C663 1.503 . S
C656 C655 1.410 . S
C656 C657 1.392 . S
C656 C659 1.511 . S
C657 C653 1.376 . S
C657 C656 1.392 . S
C657 H669 0.929 . S
C658 C654 1.531 . S
C658 H670 0.960 . S
C658 H671 0.962 . S
C658 H672 0.960 . S
C659 C656 1.511 . S
C659 H673 0.961 . S
C659 H674 0.961 . S
C659 H675 0.961 . S
C660 C661 1.370 . S
C660 C662 1.363 . S
C660 H676 0.931 . S
C661 C660 1.370 . S
C661 C665 1.408 . S
C662 C660 1.363 . S
C662 C663 1.370 . S
C662 C666 1.524 . S
C663 C655 1.503 . S
C663 C662 1.370 . S
C663 C664 1.403 . S
C664 C663 1.403 . S
C664 C665 1.404 . S
C664 C667 1.539 . S
C665 C661 1.408 . S
C665 C664 1.404 . S
C665 H677 0.930 1_554 S
C666 C662 1.524 . S
C666 H678 0.956 . S
C666 H679 0.961 . S
C666 H680 0.961 . S
C667 C664 1.539 . S
C667 H681 0.958 . S
C667 H682 0.961 1_554 S
C667 H683 0.960 . S
H668 C652 0.931 . S
H669 C657 0.929 . S
H670 C658 0.960 . S
H671 C658 0.962 . S
H672 C658 0.960 . S
H673 C659 0.961 . S
H674 C659 0.961 . S
H675 C659 0.961 . S
H676 C660 0.931 . S
H677 C665 0.930 1_556 S
H678 C666 0.956 . S
H679 C666 0.961 . S
H680 C666 0.961 . S
H681 C667 0.958 . S
H682 C667 0.961 1_556 S
H683 C667 0.960 . S
C684 C685 1.391 . S
C684 C686 1.394 . S
C684 H700 0.931 . S
C685 C684 1.391 . S
C685 C689 1.376 . S
C686 C684 1.394 . S
C686 C687 1.369 . S
C686 C690 1.531 1_655 S
C687 C686 1.369 . S
C687 C688 1.410 . S
C687 C695 1.503 1_655 S
C688 C687 1.410 . S
C688 C689 1.392 . S
C688 C691 1.511 . S
C689 C685 1.376 . S
C689 C688 1.392 . S
C689 H701 0.929 . S
C690 C686 1.531 1_455 S
C690 H702 0.960 . S
C690 H703 0.962 . S
C690 H704 0.960 . S
C691 C688 1.511 . S
C691 H705 0.961 . S
C691 H706 0.961 . S
C691 H707 0.961 . S
C692 C693 1.370 . S
C692 C694 1.363 . S
C692 H708 0.931 . S
C693 C692 1.370 . S
C693 C697 1.408 . S
C694 C692 1.363 . S
C694 C695 1.370 . S
C694 C698 1.524 1_455 S
C695 C687 1.503 1_455 S
C695 C694 1.370 . S
C695 C696 1.403 . S
C696 C695 1.403 . S
C696 C697 1.404 . S
C696 C699 1.539 . S
C697 C693 1.408 . S
C697 C696 1.404 . S
C697 H709 0.930 . S
C698 C694 1.524 1_655 S
C698 H710 0.956 . S
C698 H711 0.961 . S
C698 H712 0.961 . S
C699 C696 1.539 . S
C699 H713 0.958 . S
C699 H714 0.961 . S
C699 H715 0.960 . S
H700 C684 0.931 . S
H701 C689 0.929 . S
H702 C690 0.960 . S
H703 C690 0.962 . S
H704 C690 0.960 . S
H705 C691 0.961 . S
H706 C691 0.961 . S
H707 C691 0.961 . S
H708 C692 0.931 . S
H709 C697 0.930 . S
H710 C698 0.956 . S
H711 C698 0.961 . S
H712 C698 0.961 . S
H713 C699 0.958 . S
H714 C699 0.961 . S
H715 C699 0.960 . S
C716 C717 1.391 . S
C716 C718 1.394 . S
C716 H732 0.931 . S
C717 C716 1.391 . S
C717 C721 1.376 . S
C718 C716 1.394 . S
C718 C719 1.369 . S
C718 C722 1.531 . S
C719 C718 1.369 . S
C719 C720 1.410 . S
C719 C727 1.503 1_545 S
C720 C719 1.410 . S
C720 C721 1.392 . S
C720 C723 1.511 1_545 S
C721 C717 1.376 . S
C721 C720 1.392 . S
C721 H733 0.929 . S
C722 C718 1.531 . S
C722 H734 0.960 . S
C722 H735 0.962 . S
C722 H736 0.960 . S
C723 C720 1.511 1_565 S
C723 H737 0.961 . S
C723 H738 0.961 . S
C723 H739 0.961 . S
C724 C725 1.370 . S
C724 C726 1.363 . S
C724 H740 0.931 . S
C725 C724 1.370 . S
C725 C729 1.408 . S
C726 C724 1.363 . S
C726 C727 1.370 . S
C726 C730 1.524 . S
C727 C719 1.503 1_565 S
C727 C726 1.370 . S
C727 C728 1.403 . S
C728 C727 1.403 . S
C728 C729 1.404 . S
C728 C731 1.539 1_565 S
C729 C725 1.408 . S
C729 C728 1.404 . S
C729 H741 0.930 . S
C730 C726 1.524 . S
C730 H742 0.956 . S
C730 H743 0.961 . S
C730 H744 0.961 . S
C731 C728 1.539 1_545 S
C731 H745 0.958 . S
C731 H746 0.961 . S
C731 H747 0.960 . S
H732 C716 0.931 . S
H733 C721 0.929 . S
H734 C722 0.960 . S
H735 C722 0.962 . S
H736 C722 0.960 . S
H737 C723 0.961 . S
H738 C723 0.961 . S
H739 C723 0.961 . S
H740 C724 0.931 . S
H741 C729 0.930 . S
H742 C730 0.956 . S
H743 C730 0.961 . S
H744 C730 0.961 . S
H745 C731 0.958 . S
H746 C731 0.961 . S
H747 C731 0.960 . S
C748 C749 1.391 . S
C748 C750 1.394 . S
C748 H764 0.931 . S
C749 C748 1.391 . S
C749 C753 1.376 . S
C750 C748 1.394 . S
C750 C751 1.369 . S
C750 C754 1.531 . S
C751 C750 1.369 . S
C751 C752 1.410 . S
C751 C759 1.503 . S
C752 C751 1.410 . S
C752 C753 1.392 . S
C752 C755 1.511 . S
C753 C749 1.376 . S
C753 C752 1.392 . S
C753 H765 0.929 . S
C754 C750 1.531 . S
C754 H766 0.960 . S
C754 H767 0.962 . S
C754 H768 0.960 . S
C755 C752 1.511 . S
C755 H769 0.961 . S
C755 H770 0.961 . S
C755 H771 0.961 . S
C756 C757 1.370 . S
C756 C758 1.363 . S
C756 H772 0.931 . S
C757 C756 1.370 . S
C757 C761 1.408 . S
C758 C756 1.363 . S
C758 C759 1.370 . S
C758 C762 1.524 . S
C759 C751 1.503 . S
C759 C758 1.370 . S
C759 C760 1.403 . S
C760 C759 1.403 . S
C760 C761 1.404 . S
C760 C763 1.539 . S
C761 C757 1.408 . S
C761 C760 1.404 . S
C761 H773 0.930 . S
C762 C758 1.524 . S
C762 H774 0.956 . S
C762 H775 0.961 . S
C762 H776 0.961 . S
C763 C760 1.539 . S
C763 H777 0.958 . S
C763 H778 0.961 . S
C763 H779 0.960 . S
H764 C748 0.931 . S
H765 C753 0.929 . S
H766 C754 0.960 . S
H767 C754 0.962 . S
H768 C754 0.960 . S
H769 C755 0.961 . S
H770 C755 0.961 . S
H771 C755 0.961 . S
H772 C756 0.931 . S
H773 C761 0.930 . S
H774 C762 0.956 . S
H775 C762 0.961 . S
H776 C762 0.961 . S
H777 C763 0.958 . S
H778 C763 0.961 . S
H779 C763 0.960 . S
C780 C781 1.391 . S
C780 C782 1.394 . S
C780 H796 0.931 . S
C781 C780 1.391 . S
C781 C785 1.376 . S
C782 C780 1.394 . S
C782 C783 1.369 . S
C782 C786 1.531 . S
C783 C782 1.369 . S
C783 C784 1.410 . S
C783 C791 1.503 . S
C784 C783 1.410 . S
C784 C785 1.392 . S
C784 C787 1.511 . S
C785 C781 1.376 . S
C785 C784 1.392 . S
C785 H797 0.929 . S
C786 C782 1.531 . S
C786 H798 0.960 . S
C786 H799 0.962 . S
C786 H800 0.960 . S
C787 C784 1.511 . S
C787 H801 0.961 . S
C787 H802 0.961 . S
C787 H803 0.961 . S
C788 C789 1.370 . S
C788 C790 1.363 . S
C788 H804 0.931 . S
C789 C788 1.370 . S
C789 C793 1.408 . S
C790 C788 1.363 . S
C790 C791 1.370 . S
C790 C794 1.524 . S
C791 C783 1.503 . S
C791 C790 1.370 . S
C791 C792 1.403 . S
C792 C791 1.403 . S
C792 C793 1.404 . S
C792 C795 1.539 . S
C793 C789 1.408 . S
C793 C792 1.404 . S
C793 H805 0.930 . S
C794 C790 1.524 . S
C794 H806 0.956 . S
C794 H807 0.961 . S
C794 H808 0.961 . S
C795 C792 1.539 . S
C795 H809 0.958 . S
C795 H810 0.961 . S
C795 H811 0.960 . S
H796 C780 0.931 . S
H797 C785 0.929 . S
H798 C786 0.960 . S
H799 C786 0.962 . S
H800 C786 0.960 . S
H801 C787 0.961 . S
H802 C787 0.961 . S
H803 C787 0.961 . S
H804 C788 0.931 . S
H805 C793 0.930 . S
H806 C794 0.956 . S
H807 C794 0.961 . S
H808 C794 0.961 . S
H809 C795 0.958 . S
H810 C795 0.961 . S
H811 C795 0.960 . S
C812 C813 1.391 . S
C812 C814 1.394 . S
C812 H828 0.931 . S
C813 C812 1.391 . S
C813 C817 1.376 . S
C814 C812 1.394 . S
C814 C815 1.369 . S
C814 C818 1.531 . S
C815 C814 1.369 . S
C815 C816 1.410 . S
C815 C823 1.503 . S
C816 C815 1.410 . S
C816 C817 1.392 . S
C816 C819 1.511 . S
C817 C813 1.376 . S
C817 C816 1.392 . S
C817 H829 0.929 . S
C818 C814 1.531 . S
C818 H830 0.960 . S
C818 H831 0.962 . S
C818 H832 0.960 . S
C819 C816 1.511 . S
C819 H833 0.961 . S
C819 H834 0.961 . S
C819 H835 0.961 . S
C820 C821 1.370 . S
C820 C822 1.363 . S
C820 H836 0.931 . S
C821 C820 1.370 . S
C821 C825 1.408 . S
C822 C820 1.363 . S
C822 C823 1.370 . S
C822 C826 1.524 . S
C823 C815 1.503 . S
C823 C822 1.370 . S
C823 C824 1.403 . S
C824 C823 1.403 . S
C824 C825 1.404 . S
C824 C827 1.539 . S
C825 C821 1.408 . S
C825 C824 1.404 . S
C825 H837 0.930 . S
C826 C822 1.524 . S
C826 H838 0.956 . S
C826 H839 0.961 . S
C826 H840 0.961 . S
C827 C824 1.539 . S
C827 H841 0.958 . S
C827 H842 0.961 . S
C827 H843 0.960 . S
H828 C812 0.931 . S
H829 C817 0.929 . S
H830 C818 0.960 . S
H831 C818 0.962 . S
H832 C818 0.960 . S
H833 C819 0.961 . S
H834 C819 0.961 . S
H835 C819 0.961 . S
H836 C820 0.931 . S
H837 C825 0.930 . S
H838 C826 0.956 . S
H839 C826 0.961 . S
H840 C826 0.961 . S
H841 C827 0.958 . S
H842 C827 0.961 . S
H843 C827 0.960 . S
C844 C845 1.391 . S
C844 C846 1.394 . S
C844 H860 0.931 . S
C845 C844 1.391 . S
C845 C849 1.376 . S
C846 C844 1.394 . S
C846 C847 1.369 . S
C846 C850 1.531 . S
C847 C846 1.369 . S
C847 C848 1.410 . S
C847 C855 1.503 . S
C848 C847 1.410 . S
C848 C849 1.392 . S
C848 C851 1.511 . S
C849 C845 1.376 . S
C849 C848 1.392 . S
C849 H861 0.929 . S
C850 C846 1.531 . S
C850 H862 0.960 . S
C850 H863 0.962 . S
C850 H864 0.960 . S
C851 C848 1.511 . S
C851 H865 0.961 . S
C851 H866 0.961 . S
C851 H867 0.961 . S
C852 C853 1.370 . S
C852 C854 1.363 . S
C852 H868 0.931 . S
C853 C852 1.370 . S
C853 C857 1.408 . S
C854 C852 1.363 . S
C854 C855 1.370 . S
C854 C858 1.524 . S
C855 C847 1.503 . S
C855 C854 1.370 . S
C855 C856 1.403 . S
C856 C855 1.403 . S
C856 C857 1.404 . S
C856 C859 1.539 . S
C857 C853 1.408 . S
C857 C856 1.404 . S
C857 H869 0.930 . S
C858 C854 1.524 . S
C858 H870 0.956 . S
C858 H871 0.961 . S
C858 H872 0.961 . S
C859 C856 1.539 . S
C859 H873 0.958 . S
C859 H874 0.961 . S
C859 H875 0.960 . S
H860 C844 0.931 . S
H861 C849 0.929 . S
H862 C850 0.960 . S
H863 C850 0.962 . S
H864 C850 0.960 . S
H865 C851 0.961 . S
H866 C851 0.961 . S
H867 C851 0.961 . S
H868 C852 0.931 . S
H869 C857 0.930 . S
H870 C858 0.956 . S
H871 C858 0.961 . S
H872 C858 0.961 . S
H873 C859 0.958 . S
H874 C859 0.961 . S
H875 C859 0.960 . S
C876 C877 1.391 . S
C876 C878 1.394 . S
C876 H892 0.931 . S
C877 C876 1.391 . S
C877 C881 1.376 . S
C878 C876 1.394 . S
C878 C879 1.369 . S
C878 C882 1.531 . S
C879 C878 1.369 . S
C879 C880 1.410 . S
C879 C887 1.503 . S
C880 C879 1.410 . S
C880 C881 1.392 . S
C880 C883 1.511 . S
C881 C877 1.376 . S
C881 C880 1.392 . S
C881 H893 0.929 . S
C882 C878 1.531 . S
C882 H894 0.960 . S
C882 H895 0.962 . S
C882 H896 0.960 . S
C883 C880 1.511 . S
C883 H897 0.961 . S
C883 H898 0.961 . S
C883 H899 0.961 . S
C884 C885 1.370 . S
C884 C886 1.363 . S
C884 H900 0.931 . S
C885 C884 1.370 . S
C885 C889 1.408 . S
C886 C884 1.363 . S
C886 C887 1.370 . S
C886 C890 1.524 . S
C887 C879 1.503 . S
C887 C886 1.370 . S
C887 C888 1.403 . S
C888 C887 1.403 . S
C888 C889 1.404 . S
C888 C891 1.539 . S
C889 C885 1.408 . S
C889 C888 1.404 . S
C889 H901 0.930 . S
C890 C886 1.524 . S
C890 H902 0.956 . S
C890 H903 0.961 . S
C890 H904 0.961 . S
C891 C888 1.539 . S
C891 H905 0.958 . S
C891 H906 0.961 . S
C891 H907 0.960 . S
H892 C876 0.931 . S
H893 C881 0.929 . S
H894 C882 0.960 . S
H895 C882 0.962 . S
H896 C882 0.960 . S
H897 C883 0.961 . S
H898 C883 0.961 . S
H899 C883 0.961 . S
H900 C884 0.931 . S
H901 C889 0.930 . S
H902 C890 0.956 . S
H903 C890 0.961 . S
H904 C890 0.961 . S
H905 C891 0.958 . S
H906 C891 0.961 . S
H907 C891 0.960 . S
C908 C909 1.391 . S
C908 C910 1.394 . S
C908 H924 0.931 . S
C909 C908 1.391 . S
C909 C913 1.376 . S
C910 C908 1.394 . S
C910 C911 1.369 . S
C910 C914 1.531 . S
C911 C910 1.369 . S
C911 C912 1.410 . S
C911 C919 1.503 . S
C912 C911 1.410 . S
C912 C913 1.392 . S
C912 C915 1.511 1_556 S
C913 C909 1.376 . S
C913 C912 1.392 . S
C913 H925 0.929 . S
C914 C910 1.531 . S
C914 H926 0.960 . S
C914 H927 0.962 . S
C914 H928 0.960 . S
C915 C912 1.511 1_554 S
C915 H929 0.961 . S
C915 H930 0.961 . S
C915 H931 0.961 . S
C916 C917 1.370 1_556 S
C916 C918 1.363 . S
C916 H932 0.931 1_556 S
C917 C916 1.370 1_554 S
C917 C921 1.408 . S
C918 C916 1.363 . S
C918 C919 1.370 . S
C918 C922 1.524 . S
C919 C911 1.503 . S
C919 C918 1.370 . S
C919 C920 1.403 . S
C920 C919 1.403 . S
C920 C921 1.404 1_556 S
C920 C923 1.539 . S
C921 C917 1.408 . S
C921 C920 1.404 1_554 S
C921 H933 0.930 . S
C922 C918 1.524 . S
C922 H934 0.956 . S
C922 H935 0.961 . S
C922 H936 0.961 . S
C923 C920 1.539 . S
C923 H937 0.958 . S
C923 H938 0.961 1_556 S
C923 H939 0.960 . S
H924 C908 0.931 . S
H925 C913 0.929 . S
H926 C914 0.960 . S
H927 C914 0.962 . S
H928 C914 0.960 . S
H929 C915 0.961 . S
H930 C915 0.961 . S
H931 C915 0.961 . S
H932 C916 0.931 1_554 S
H933 C921 0.930 . S
H934 C922 0.956 . S
H935 C922 0.961 . S
H936 C922 0.961 . S
H937 C923 0.958 . S
H938 C923 0.961 1_554 S
H939 C923 0.960 . S
C940 C941 1.391 . S
C940 C942 1.394 . S
C940 H956 0.931 . S
C941 C940 1.391 . S
C941 C945 1.376 . S
C942 C940 1.394 . S
C942 C943 1.369 . S
C942 C946 1.531 1_554 S
C943 C942 1.369 . S
C943 C944 1.410 . S
C943 C951 1.503 . S
C944 C943 1.410 . S
C944 C945 1.392 . S
C944 C947 1.511 . S
C945 C941 1.376 . S
C945 C944 1.392 . S
C945 H957 0.929 . S
C946 C942 1.531 1_556 S
C946 H958 0.960 . S
C946 H959 0.962 . S
C946 H960 0.960 . S
C947 C944 1.511 . S
C947 H961 0.961 . S
C947 H962 0.961 . S
C947 H963 0.961 . S
C948 C949 1.370 . S
C948 C950 1.363 1_556 S
C948 H964 0.931 . S
C949 C948 1.370 . S
C949 C953 1.408 1_556 S
C950 C948 1.363 1_554 S
C950 C951 1.370 . S
C950 C954 1.524 . S
C951 C943 1.503 . S
C951 C950 1.370 . S
C951 C952 1.403 . S
C952 C951 1.403 . S
C952 C953 1.404 . S
C952 C955 1.539 . S
C953 C949 1.408 1_554 S
C953 C952 1.404 . S
C953 H965 0.930 1_554 S
C954 C950 1.524 . S
C954 H966 0.956 . S
C954 H967 0.961 . S
C954 H968 0.961 . S
C955 C952 1.539 . S
C955 H969 0.958 . S
C955 H970 0.961 . S
C955 H971 0.960 . S
H956 C940 0.931 . S
H957 C945 0.929 . S
H958 C946 0.960 . S
H959 C946 0.962 . S
H960 C946 0.960 . S
H961 C947 0.961 . S
H962 C947 0.961 . S
H963 C947 0.961 . S
H964 C948 0.931 . S
H965 C953 0.930 1_556 S
H966 C954 0.956 . S
H967 C954 0.961 . S
H968 C954 0.961 . S
H969 C955 0.958 . S
H970 C955 0.961 . S
H971 C955 0.960 . S
C972 C973 1.391 . S
C972 C974 1.394 . S
C972 H988 0.931 . S
C973 C972 1.391 . S
C973 C977 1.376 . S
C974 C972 1.394 . S
C974 C975 1.369 . S
C974 C978 1.531 . S
C975 C974 1.369 . S
C975 C976 1.410 . S
C975 C983 1.503 . S
C976 C975 1.410 . S
C976 C977 1.392 . S
C976 C979 1.511 . S
C977 C973 1.376 . S
C977 C976 1.392 . S
C977 H989 0.929 . S
C978 C974 1.531 . S
C978 H990 0.960 . S
C978 H991 0.962 . S
C978 H992 0.960 . S
C979 C976 1.511 . S
C979 H993 0.961 . S
C979 H994 0.961 . S
C979 H995 0.961 . S
C980 C981 1.370 . S
C980 C982 1.363 . S
C980 H996 0.931 . S
C981 C980 1.370 . S
C981 C985 1.408 . S
C982 C980 1.363 . S
C982 C983 1.370 . S
C982 C986 1.524 . S
C983 C975 1.503 . S
C983 C982 1.370 . S
C983 C984 1.403 . S
C984 C983 1.403 . S
C984 C985 1.404 . S
C984 C987 1.539 . S
C985 C981 1.408 . S
C985 C984 1.404 . S
C985 H997 0.930 . S
C986 C982 1.524 . S
C986 H998 0.956 . S
C986 H999 0.961 . S
C986 H1000 0.961 . S
C987 C984 1.539 . S
C987 H1001 0.958 . S
C987 H1002 0.961 . S
C987 H1003 0.960 . S
H988 C972 0.931 . S
H989 C977 0.929 . S
H990 C978 0.960 . S
H991 C978 0.962 . S
H992 C978 0.960 . S
H993 C979 0.961 . S
H994 C979 0.961 . S
H995 C979 0.961 . S
H996 C980 0.931 . S
H997 C985 0.930 . S
H998 C986 0.956 . S
H999 C986 0.961 . S
H1000 C986 0.961 . S
H1001 C987 0.958 . S
H1002 C987 0.961 . S
H1003 C987 0.960 . S
C1004 C1005 1.391 . S
C1004 C1006 1.394 . S
C1004 H1020 0.931 . S
C1005 C1004 1.391 . S
C1005 C1009 1.376 . S
C1006 C1004 1.394 . S
C1006 C1007 1.369 . S
C1006 C1010 1.531 . S
C1007 C1006 1.369 . S
C1007 C1008 1.410 . S
C1007 C1015 1.503 . S
C1008 C1007 1.410 . S
C1008 C1009 1.392 . S
C1008 C1011 1.511 . S
C1009 C1005 1.376 . S
C1009 C1008 1.392 . S
C1009 H1021 0.929 . S
C1010 C1006 1.531 . S
C1010 H1022 0.960 . S
C1010 H1023 0.962 . S
C1010 H1024 0.960 . S
C1011 C1008 1.511 . S
C1011 H1025 0.961 . S
C1011 H1026 0.961 . S
C1011 H1027 0.961 . S
C1012 C1013 1.370 . S
C1012 C1014 1.363 . S
C1012 H1028 0.931 . S
C1013 C1012 1.370 . S
C1013 C1017 1.408 . S
C1014 C1012 1.363 . S
C1014 C1015 1.370 . S
C1014 C1018 1.524 . S
C1015 C1007 1.503 . S
C1015 C1014 1.370 . S
C1015 C1016 1.403 . S
C1016 C1015 1.403 . S
C1016 C1017 1.404 . S
C1016 C1019 1.539 . S
C1017 C1013 1.408 . S
C1017 C1016 1.404 . S
C1017 H1029 0.930 . S
C1018 C1014 1.524 . S
C1018 H1030 0.956 . S
C1018 H1031 0.961 . S
C1018 H1032 0.961 . S
C1019 C1016 1.539 . S
C1019 H1033 0.958 . S
C1019 H1034 0.961 . S
C1019 H1035 0.960 . S
H1020 C1004 0.931 . S
H1021 C1009 0.929 . S
H1022 C1010 0.960 . S
H1023 C1010 0.962 . S
H1024 C1010 0.960 . S
H1025 C1011 0.961 . S
H1026 C1011 0.961 . S
H1027 C1011 0.961 . S
H1028 C1012 0.931 . S
H1029 C1017 0.930 . S
H1030 C1018 0.956 . S
H1031 C1018 0.961 . S
H1032 C1018 0.961 . S
H1033 C1019 0.958 . S
H1034 C1019 0.961 . S
H1035 C1019 0.960 . S
C1036 C1037 1.391 . S
C1036 C1038 1.394 . S
C1036 H1052 0.931 . S
C1037 C1036 1.391 . S
C1037 C1041 1.376 . S
C1038 C1036 1.394 . S
C1038 C1039 1.369 . S
C1038 C1042 1.531 . S
C1039 C1038 1.369 . S
C1039 C1040 1.410 . S
C1039 C1047 1.503 . S
C1040 C1039 1.410 . S
C1040 C1041 1.392 . S
C1040 C1043 1.511 . S
C1041 C1037 1.376 . S
C1041 C1040 1.392 . S
C1041 H1053 0.929 . S
C1042 C1038 1.531 . S
C1042 H1054 0.960 . S
C1042 H1055 0.962 . S
C1042 H1056 0.960 . S
C1043 C1040 1.511 . S
C1043 H1057 0.961 . S
C1043 H1058 0.961 . S
C1043 H1059 0.961 . S
C1044 C1045 1.370 . S
C1044 C1046 1.363 1_554 S
C1044 H1060 0.931 . S
C1045 C1044 1.370 . S
C1045 C1049 1.408 . S
C1046 C1044 1.363 1_556 S
C1046 C1047 1.370 . S
C1046 C1050 1.524 . S
C1047 C1039 1.503 . S
C1047 C1046 1.370 . S
C1047 C1048 1.403 . S
C1048 C1047 1.403 . S
C1048 C1049 1.404 1_556 S
C1048 C1051 1.539 . S
C1049 C1045 1.408 . S
C1049 C1048 1.404 1_554 S
C1049 H1061 0.930 . S
C1050 C1046 1.524 . S
C1050 H1062 0.956 . S
C1050 H1063 0.961 . S
C1050 H1064 0.961 . S
C1051 C1048 1.539 . S
C1051 H1065 0.958 . S
C1051 H1066 0.961 . S
C1051 H1067 0.960 . S
H1052 C1036 0.931 . S
H1053 C1041 0.929 . S
H1054 C1042 0.960 . S
H1055 C1042 0.962 . S
H1056 C1042 0.960 . S
H1057 C1043 0.961 . S
H1058 C1043 0.961 . S
H1059 C1043 0.961 . S
H1060 C1044 0.931 . S
H1061 C1049 0.930 . S
H1062 C1050 0.956 . S
H1063 C1050 0.961 . S
H1064 C1050 0.961 . S
H1065 C1051 0.958 . S
H1066 C1051 0.961 . S
H1067 C1051 0.960 . S
C1068 C1069 1.391 . S
C1068 C1070 1.394 . S
C1068 H1084 0.931 . S
C1069 C1068 1.391 . S
C1069 C1073 1.376 . S
C1070 C1068 1.394 . S
C1070 C1071 1.369 1_556 S
C1070 C1074 1.531 . S
C1071 C1070 1.369 1_554 S
C1071 C1072 1.410 1_554 S
C1071 C1079 1.503 . S
C1072 C1071 1.410 1_556 S
C1072 C1073 1.392 . S
C1072 C1075 1.511 1_556 S
C1073 C1069 1.376 . S
C1073 C1072 1.392 . S
C1073 H1085 0.929 . S
C1074 C1070 1.531 . S
C1074 H1086 0.960 1_556 S
C1074 H1087 0.962 . S
C1074 H1088 0.960 . S
C1075 C1072 1.511 1_554 S
C1075 H1089 0.961 . S
C1075 H1090 0.961 . S
C1075 H1091 0.961 . S
C1076 C1077 1.370 . S
C1076 C1078 1.363 . S
C1076 H1092 0.931 . S
C1077 C1076 1.370 . S
C1077 C1081 1.408 . S
C1078 C1076 1.363 . S
C1078 C1079 1.370 . S
C1078 C1082 1.524 . S
C1079 C1071 1.503 . S
C1079 C1078 1.370 . S
C1079 C1080 1.403 . S
C1080 C1079 1.403 . S
C1080 C1081 1.404 . S
C1080 C1083 1.539 . S
C1081 C1077 1.408 . S
C1081 C1080 1.404 . S
C1081 H1093 0.930 . S
C1082 C1078 1.524 . S
C1082 H1094 0.956 . S
C1082 H1095 0.961 . S
C1082 H1096 0.961 . S
C1083 C1080 1.539 . S
C1083 H1097 0.958 . S
C1083 H1098 0.961 . S
C1083 H1099 0.960 . S
H1084 C1068 0.931 . S
H1085 C1073 0.929 . S
H1086 C1074 0.960 1_554 S
H1087 C1074 0.962 . S
H1088 C1074 0.960 . S
H1089 C1075 0.961 . S
H1090 C1075 0.961 . S
H1091 C1075 0.961 . S
H1092 C1076 0.931 . S
H1093 C1081 0.930 . S
H1094 C1082 0.956 . S
H1095 C1082 0.961 . S
H1096 C1082 0.961 . S
H1097 C1083 0.958 . S
H1098 C1083 0.961 . S
H1099 C1083 0.960 . S
C1100 C1101 1.391 . S
C1100 C1102 1.394 . S
C1100 H1116 0.931 . S
C1101 C1100 1.391 . S
C1101 C1105 1.376 . S
C1102 C1100 1.394 . S
C1102 C1103 1.369 . S
C1102 C1106 1.531 . S
C1103 C1102 1.369 . S
C1103 C1104 1.410 . S
C1103 C1111 1.503 . S
C1104 C1103 1.410 . S
C1104 C1105 1.392 . S
C1104 C1107 1.511 . S
C1105 C1101 1.376 . S
C1105 C1104 1.392 . S
C1105 H1117 0.929 . S
C1106 C1102 1.531 . S
C1106 H1118 0.960 . S
C1106 H1119 0.962 . S
C1106 H1120 0.960 . S
C1107 C1104 1.511 . S
C1107 H1121 0.961 . S
C1107 H1122 0.961 . S
C1107 H1123 0.961 . S
C1108 C1109 1.370 . S
C1108 C1110 1.363 . S
C1108 H1124 0.931 . S
C1109 C1108 1.370 . S
C1109 C1113 1.408 . S
C1110 C1108 1.363 . S
C1110 C1111 1.370 . S
C1110 C1114 1.524 . S
C1111 C1103 1.503 . S
C1111 C1110 1.370 . S
C1111 C1112 1.403 . S
C1112 C1111 1.403 . S
C1112 C1113 1.404 . S
C1112 C1115 1.539 . S
C1113 C1109 1.408 . S
C1113 C1112 1.404 . S
C1113 H1125 0.930 . S
C1114 C1110 1.524 . S
C1114 H1126 0.956 . S
C1114 H1127 0.961 . S
C1114 H1128 0.961 . S
C1115 C1112 1.539 . S
C1115 H1129 0.958 . S
C1115 H1130 0.961 . S
C1115 H1131 0.960 . S
H1116 C1100 0.931 . S
H1117 C1105 0.929 . S
H1118 C1106 0.960 . S
H1119 C1106 0.962 . S
H1120 C1106 0.960 . S
H1121 C1107 0.961 . S
H1122 C1107 0.961 . S
H1123 C1107 0.961 . S
H1124 C1108 0.931 . S
H1125 C1113 0.930 . S
H1126 C1114 0.956 . S
H1127 C1114 0.961 . S
H1128 C1114 0.961 . S
H1129 C1115 0.958 . S
H1130 C1115 0.961 . S
H1131 C1115 0.960 . S
C1132 C1133 1.391 . S
C1132 C1134 1.394 . S
C1132 H1148 0.931 . S
C1133 C1132 1.391 . S
C1133 C1137 1.376 . S
C1134 C1132 1.394 . S
C1134 C1135 1.369 . S
C1134 C1138 1.531 . S
C1135 C1134 1.369 . S
C1135 C1136 1.410 . S
C1135 C1143 1.503 . S
C1136 C1135 1.410 . S
C1136 C1137 1.392 . S
C1136 C1139 1.511 . S
C1137 C1133 1.376 . S
C1137 C1136 1.392 . S
C1137 H1149 0.929 . S
C1138 C1134 1.531 . S
C1138 H1150 0.960 . S
C1138 H1151 0.962 . S
C1138 H1152 0.960 . S
C1139 C1136 1.511 . S
C1139 H1153 0.961 . S
C1139 H1154 0.961 . S
C1139 H1155 0.961 . S
C1140 C1141 1.370 . S
C1140 C1142 1.363 . S
C1140 H1156 0.931 . S
C1141 C1140 1.370 . S
C1141 C1145 1.408 . S
C1142 C1140 1.363 . S
C1142 C1143 1.370 . S
C1142 C1146 1.524 . S
C1143 C1135 1.503 . S
C1143 C1142 1.370 . S
C1143 C1144 1.403 . S
C1144 C1143 1.403 . S
C1144 C1145 1.404 . S
C1144 C1147 1.539 . S
C1145 C1141 1.408 . S
C1145 C1144 1.404 . S
C1145 H1157 0.930 . S
C1146 C1142 1.524 . S
C1146 H1158 0.956 . S
C1146 H1159 0.961 . S
C1146 H1160 0.961 . S
C1147 C1144 1.539 . S
C1147 H1161 0.958 . S
C1147 H1162 0.961 . S
C1147 H1163 0.960 . S
H1148 C1132 0.931 . S
H1149 C1137 0.929 . S
H1150 C1138 0.960 . S
H1151 C1138 0.962 . S
H1152 C1138 0.960 . S
H1153 C1139 0.961 . S
H1154 C1139 0.961 . S
H1155 C1139 0.961 . S
H1156 C1140 0.931 . S
H1157 C1145 0.930 . S
H1158 C1146 0.956 . S
H1159 C1146 0.961 . S
H1160 C1146 0.961 . S
H1161 C1147 0.958 . S
H1162 C1147 0.961 . S
H1163 C1147 0.960 . S
C1164 C1165 1.391 . S
C1164 C1166 1.394 . S
C1164 H1180 0.931 . S
C1165 C1164 1.391 . S
C1165 C1169 1.376 . S
C1166 C1164 1.394 . S
C1166 C1167 1.369 . S
C1166 C1170 1.531 . S
C1167 C1166 1.369 . S
C1167 C1168 1.410 . S
C1167 C1175 1.503 . S
C1168 C1167 1.410 . S
C1168 C1169 1.392 . S
C1168 C1171 1.511 . S
C1169 C1165 1.376 . S
C1169 C1168 1.392 . S
C1169 H1181 0.929 . S
C1170 C1166 1.531 . S
C1170 H1182 0.960 . S
C1170 H1183 0.962 . S
C1170 H1184 0.960 . S
C1171 C1168 1.511 . S
C1171 H1185 0.961 . S
C1171 H1186 0.961 . S
C1171 H1187 0.961 . S
C1172 C1173 1.370 . S
C1172 C1174 1.363 . S
C1172 H1188 0.931 . S
C1173 C1172 1.370 . S
C1173 C1177 1.408 . S
C1174 C1172 1.363 . S
C1174 C1175 1.370 . S
C1174 C1178 1.524 . S
C1175 C1167 1.503 . S
C1175 C1174 1.370 . S
C1175 C1176 1.403 . S
C1176 C1175 1.403 . S
C1176 C1177 1.404 . S
C1176 C1179 1.539 . S
C1177 C1173 1.408 . S
C1177 C1176 1.404 . S
C1177 H1189 0.930 . S
C1178 C1174 1.524 . S
C1178 H1190 0.956 . S
C1178 H1191 0.961 . S
C1178 H1192 0.961 . S
C1179 C1176 1.539 . S
C1179 H1193 0.958 . S
C1179 H1194 0.961 . S
C1179 H1195 0.960 . S
H1180 C1164 0.931 . S
H1181 C1169 0.929 . S
H1182 C1170 0.960 . S
H1183 C1170 0.962 . S
H1184 C1170 0.960 . S
H1185 C1171 0.961 . S
H1186 C1171 0.961 . S
H1187 C1171 0.961 . S
H1188 C1172 0.931 . S
H1189 C1177 0.930 . S
H1190 C1178 0.956 . S
H1191 C1178 0.961 . S
H1192 C1178 0.961 . S
H1193 C1179 0.958 . S
H1194 C1179 0.961 . S
H1195 C1179 0.960 . S
C1196 C1197 1.391 . S
C1196 C1198 1.394 . S
C1196 H1212 0.931 . S
C1197 C1196 1.391 . S
C1197 C1201 1.376 . S
C1198 C1196 1.394 . S
C1198 C1199 1.369 . S
C1198 C1202 1.531 . S
C1199 C1198 1.369 . S
C1199 C1200 1.410 . S
C1199 C1207 1.503 . S
C1200 C1199 1.410 . S
C1200 C1201 1.392 . S
C1200 C1203 1.511 . S
C1201 C1197 1.376 . S
C1201 C1200 1.392 . S
C1201 H1213 0.929 . S
C1202 C1198 1.531 . S
C1202 H1214 0.960 . S
C1202 H1215 0.962 . S
C1202 H1216 0.960 . S
C1203 C1200 1.511 . S
C1203 H1217 0.961 . S
C1203 H1218 0.961 . S
C1203 H1219 0.961 . S
C1204 C1205 1.370 . S
C1204 C1206 1.363 . S
C1204 H1220 0.931 . S
C1205 C1204 1.370 . S
C1205 C1209 1.408 . S
C1206 C1204 1.363 . S
C1206 C1207 1.370 . S
C1206 C1210 1.524 . S
C1207 C1199 1.503 . S
C1207 C1206 1.370 . S
C1207 C1208 1.403 . S
C1208 C1207 1.403 . S
C1208 C1209 1.404 . S
C1208 C1211 1.539 . S
C1209 C1205 1.408 . S
C1209 C1208 1.404 . S
C1209 H1221 0.930 . S
C1210 C1206 1.524 . S
C1210 H1222 0.956 . S
C1210 H1223 0.961 . S
C1210 H1224 0.961 . S
C1211 C1208 1.539 . S
C1211 H1225 0.958 . S
C1211 H1226 0.961 . S
C1211 H1227 0.960 . S
H1212 C1196 0.931 . S
H1213 C1201 0.929 . S
H1214 C1202 0.960 . S
H1215 C1202 0.962 . S
H1216 C1202 0.960 . S
H1217 C1203 0.961 . S
H1218 C1203 0.961 . S
H1219 C1203 0.961 . S
H1220 C1204 0.931 . S
H1221 C1209 0.930 . S
H1222 C1210 0.956 . S
H1223 C1210 0.961 . S
H1224 C1210 0.961 . S
H1225 C1211 0.958 . S
H1226 C1211 0.961 . S
H1227 C1211 0.960 . S
C1228 C1229 1.391 . S
C1228 C1230 1.394 . S
C1228 H1244 0.931 . S
C1229 C1228 1.391 . S
C1229 C1233 1.376 . S
C1230 C1228 1.394 . S
C1230 C1231 1.369 . S
C1230 C1234 1.531 . S
C1231 C1230 1.369 . S
C1231 C1232 1.410 . S
C1231 C1239 1.503 . S
C1232 C1231 1.410 . S
C1232 C1233 1.392 . S
C1232 C1235 1.511 . S
C1233 C1229 1.376 . S
C1233 C1232 1.392 . S
C1233 H1245 0.929 . S
C1234 C1230 1.531 . S
C1234 H1246 0.960 . S
C1234 H1247 0.962 . S
C1234 H1248 0.960 . S
C1235 C1232 1.511 . S
C1235 H1249 0.961 . S
C1235 H1250 0.961 . S
C1235 H1251 0.961 . S
C1236 C1237 1.370 . S
C1236 C1238 1.363 . S
C1236 H1252 0.931 . S
C1237 C1236 1.370 . S
C1237 C1241 1.408 . S
C1238 C1236 1.363 . S
C1238 C1239 1.370 . S
C1238 C1242 1.524 . S
C1239 C1231 1.503 . S
C1239 C1238 1.370 . S
C1239 C1240 1.403 . S
C1240 C1239 1.403 . S
C1240 C1241 1.404 . S
C1240 C1243 1.539 . S
C1241 C1237 1.408 . S
C1241 C1240 1.404 . S
C1241 H1253 0.930 . S
C1242 C1238 1.524 . S
C1242 H1254 0.956 . S
C1242 H1255 0.961 . S
C1242 H1256 0.961 . S
C1243 C1240 1.539 . S
C1243 H1257 0.958 . S
C1243 H1258 0.961 . S
C1243 H1259 0.960 . S
H1244 C1228 0.931 . S
H1245 C1233 0.929 . S
H1246 C1234 0.960 . S
H1247 C1234 0.962 . S
H1248 C1234 0.960 . S
H1249 C1235 0.961 . S
H1250 C1235 0.961 . S
H1251 C1235 0.961 . S
H1252 C1236 0.931 . S
H1253 C1241 0.930 . S
H1254 C1242 0.956 . S
H1255 C1242 0.961 . S
H1256 C1242 0.961 . S
H1257 C1243 0.958 . S
H1258 C1243 0.961 . S
H1259 C1243 0.960 . S
C1260 C1261 1.391 . S
C1260 C1262 1.394 . S
C1260 H1276 0.931 . S
C1261 C1260 1.391 . S
C1261 C1265 1.376 . S
C1262 C1260 1.394 . S
C1262 C1263 1.369 . S
C1262 C1266 1.531 . S
C1263 C1262 1.369 . S
C1263 C1264 1.410 . S
C1263 C1271 1.503 . S
C1264 C1263 1.410 . S
C1264 C1265 1.392 . S
C1264 C1267 1.511 . S
C1265 C1261 1.376 . S
C1265 C1264 1.392 . S
C1265 H1277 0.929 . S
C1266 C1262 1.531 . S
C1266 H1278 0.960 . S
C1266 H1279 0.962 . S
C1266 H1280 0.960 . S
C1267 C1264 1.511 . S
C1267 H1281 0.961 . S
C1267 H1282 0.961 . S
C1267 H1283 0.961 . S
C1268 C1269 1.370 . S
C1268 C1270 1.363 . S
C1268 H1284 0.931 . S
C1269 C1268 1.370 . S
C1269 C1273 1.408 . S
C1270 C1268 1.363 . S
C1270 C1271 1.370 . S
C1270 C1274 1.524 . S
C1271 C1263 1.503 . S
C1271 C1270 1.370 . S
C1271 C1272 1.403 . S
C1272 C1271 1.403 . S
C1272 C1273 1.404 . S
C1272 C1275 1.539 . S
C1273 C1269 1.408 . S
C1273 C1272 1.404 . S
C1273 H1285 0.927 1_556 S
C1274 C1270 1.524 . S
C1274 H1286 0.956 . S
C1274 H1287 0.961 . S
C1274 H1288 0.961 . S
C1275 C1272 1.539 . S
C1275 H1289 0.958 . S
C1275 H1290 0.961 . S
C1275 H1291 0.960 . S
H1276 C1260 0.931 . S
H1277 C1265 0.929 . S
H1278 C1266 0.960 . S
H1279 C1266 0.962 . S
H1280 C1266 0.960 . S
H1281 C1267 0.961 . S
H1282 C1267 0.961 . S
H1283 C1267 0.961 . S
H1284 C1268 0.931 . S
H1285 C1273 0.927 1_554 S
H1286 C1274 0.956 . S
H1287 C1274 0.961 . S
H1288 C1274 0.961 . S
H1289 C1275 0.958 . S
H1290 C1275 0.961 . S
H1291 C1275 0.960 . S
C1292 C1293 1.391 . S
C1292 C1294 1.394 . S
C1292 H1308 0.931 . S
C1293 C1292 1.391 . S
C1293 C1297 1.376 . S
C1294 C1292 1.394 . S
C1294 C1295 1.369 . S
C1294 C1298 1.531 . S
C1295 C1294 1.369 . S
C1295 C1296 1.410 . S
C1295 C1303 1.503 . S
C1296 C1295 1.410 . S
C1296 C1297 1.392 . S
C1296 C1299 1.511 . S
C1297 C1293 1.376 . S
C1297 C1296 1.392 . S
C1297 H1309 0.929 . S
C1298 C1294 1.531 . S
C1298 H1310 0.960 . S
C1298 H1311 0.962 . S
C1298 H1312 0.960 . S
C1299 C1296 1.511 . S
C1299 H1313 0.961 . S
C1299 H1314 0.961 . S
C1299 H1315 0.961 . S
C1300 C1301 1.370 . S
C1300 C1302 1.363 . S
C1300 H1316 0.931 . S
C1301 C1300 1.370 . S
C1301 C1305 1.408 . S
C1302 C1300 1.363 . S
C1302 C1303 1.370 1_554 S
C1302 C1306 1.524 . S
C1303 C1295 1.503 . S
C1303 C1302 1.370 1_556 S
C1303 C1304 1.403 1_556 S
C1304 C1303 1.403 1_554 S
C1304 C1305 1.404 . S
C1304 C1307 1.539 1_554 S
C1305 C1301 1.408 . S
C1305 C1304 1.404 . S
C1305 H1317 0.930 . S
C1306 C1302 1.524 . S
C1306 H1318 0.956 1_554 S
C1306 H1319 0.961 1_554 S
C1306 H1320 0.961 . S
C1307 C1304 1.539 1_556 S
C1307 H1321 0.958 . S
C1307 H1322 0.964 . S
C1307 H1323 0.960 . S
H1308 C1292 0.931 . S
H1309 C1297 0.929 . S
H1310 C1298 0.960 . S
H1311 C1298 0.962 . S
H1312 C1298 0.960 . S
H1313 C1299 0.961 . S
H1314 C1299 0.961 . S
H1315 C1299 0.961 . S
H1316 C1300 0.931 . S
H1317 C1305 0.930 . S
H1318 C1306 0.956 1_556 S
H1319 C1306 0.961 1_556 S
H1320 C1306 0.961 . S
H1321 C1307 0.958 . S
H1322 C1307 0.964 . S
H1323 C1307 0.960 . S
C1324 C1325 1.391 . S
C1324 C1326 1.394 . S
C1324 H1340 0.931 . S
C1325 C1324 1.391 . S
C1325 C1329 1.376 . S
C1326 C1324 1.394 . S
C1326 C1327 1.369 . S
C1326 C1330 1.531 . S
C1327 C1326 1.369 . S
C1327 C1328 1.410 . S
C1327 C1335 1.503 . S
C1328 C1327 1.410 . S
C1328 C1329 1.392 . S
C1328 C1331 1.511 . S
C1329 C1325 1.376 . S
C1329 C1328 1.392 . S
C1329 H1341 0.929 . S
C1330 C1326 1.531 . S
C1330 H1342 0.960 . S
C1330 H1343 0.962 . S
C1330 H1344 0.960 . S
C1331 C1328 1.511 . S
C1331 H1345 0.961 . S
C1331 H1346 0.961 . S
C1331 H1347 0.961 . S
C1332 C1333 1.370 . S
C1332 C1334 1.363 1_556 S
C1332 H1348 0.931 . S
C1333 C1332 1.370 . S
C1333 C1337 1.408 . S
C1334 C1332 1.363 1_554 S
C1334 C1335 1.370 . S
C1334 C1338 1.524 . S
C1335 C1327 1.503 . S
C1335 C1334 1.370 . S
C1335 C1336 1.403 . S
C1336 C1335 1.403 . S
C1336 C1337 1.404 1_554 S
C1336 C1339 1.539 . S
C1337 C1333 1.408 . S
C1337 C1336 1.404 1_556 S
C1337 H1349 0.930 . S
C1338 C1334 1.524 . S
C1338 H1350 0.956 . S
C1338 H1351 0.961 . S
C1338 H1352 0.961 . S
C1339 C1336 1.539 . S
C1339 H1353 0.958 . S
C1339 H1354 0.961 . S
C1339 H1355 0.960 . S
H1340 C1324 0.931 . S
H1341 C1329 0.929 . S
H1342 C1330 0.960 . S
H1343 C1330 0.962 . S
H1344 C1330 0.960 . S
H1345 C1331 0.961 . S
H1346 C1331 0.961 . S
H1347 C1331 0.961 . S
H1348 C1332 0.931 . S
H1349 C1337 0.930 . S
H1350 C1338 0.956 . S
H1351 C1338 0.961 . S
H1352 C1338 0.961 . S
H1353 C1339 0.958 . S
H1354 C1339 0.961 . S
H1355 C1339 0.960 . S
C397 C285 1.608 . S
C405 C21 1.614 . S
C429 C318 1.609 . S
C437 C54 1.615 . S
C461 C351 1.606 . S
C469 C87 1.617 . S
C493 C384 1.612 . S
C501 C120 1.620 . S
C525 C153 1.614 . S
C533 C219 1.614 . S
C557 C252 1.607 . S
C565 C186 1.619 . S
C589 C7 1.298 . S
C597 C370 1.244 . S
C621 C205 1.210 . S
C629 C40 1.267 . S
C653 C73 1.204 . S
C661 C238 1.257 . S
C685 C106 1.262 . S
C693 C271 1.233 . S
C717 C304 1.246 . S
C725 C139 1.270 . S
C749 C172 1.291 . S
C757 C337 1.252 . S
C781 C18 1.343 . S
C789 C348 1.380 . S
C813 C51 1.347 . S
C821 C381 1.370 . S
C845 C216 1.379 . S
C853 C84 1.371 . S
C877 C249 1.340 . S
C885 C117 1.378 . S
C909 C150 1.350 . S
C917 C282 1.368 . S
C941 C315 1.381 . S
C949 C183 1.370 . S
C973 N13 1.022 . S
C981 N2 0.999 . S
C1005 N35 0.992 . S
C1013 N46 1.013 . S
C1037 N79 0.988 . S
C1045 N68 1.014 . S
C1069 N112 0.990 . S
C1077 N101 1.013 . S
C1101 N134 0.990 . S
C1109 N145 1.013 1_554 S
C1133 N167 0.986 . S
C1141 N178 1.014 . S
C1165 N200 0.990 . S
C1173 N211 1.013 . S
C1197 N233 1.012 . S
C1205 N244 1.004 . S
C1229 N266 1.022 . S
C1237 N277 1.001 . S
C1261 N299 0.992 . S
C1269 N310 1.013 1_556 S
C1293 N332 0.992 . S
C1301 N343 1.012 . S
C1325 N376 1.019 . S
C1333 N365 1.001 . S
