# Generated by pormake.
# Topology umc, (4)-cn, num edge types: 1
# Building blocks:
#     Node 0, Type 0, BuildingBlock: NAWXER_clean_sbu_0, # of connection points: 4
#     Node 1, Type 0, BuildingBlock: NAWXER_clean_sbu_0, # of connection points: 4
#     Node 2, Type 0, BuildingBlock: NAWXER_clean_sbu_0, # of connection points: 4
#     Node 3, Type 0, BuildingBlock: NAWXER_clean_sbu_0, # of connection points: 4
#     Node 4, Type 0, BuildingBlock: NAWXER_clean_sbu_0, # of connection points: 4
#     Node 5, Type 0, BuildingBlock: NAWXER_clean_sbu_0, # of connection points: 4
#     Node 6, Type 0, BuildingBlock: NAWXER_clean_sbu_0, # of connection points: 4
#     Node 7, Type 0, BuildingBlock: NAWXER_clean_sbu_0, # of connection points: 4
#     Node 8, Type 0, BuildingBlock: NAWXER_clean_sbu_0, # of connection points: 4
#     Node 9, Type 0, BuildingBlock: NAWXER_clean_sbu_0, # of connection points: 4
#     Node 10, Type 0, BuildingBlock: NAWXER_clean_sbu_0, # of connection points: 4
#     Node 11, Type 0, BuildingBlock: NAWXER_clean_sbu_0, # of connection points: 4
#     Node 12, Type 0, BuildingBlock: NAWXER_clean_sbu_0, # of connection points: 4
#     Node 13, Type 0, BuildingBlock: NAWXER_clean_sbu_0, # of connection points: 4
#     Node 14, Type 0, BuildingBlock: NAWXER_clean_sbu_0, # of connection points: 4
#     Node 15, Type 0, BuildingBlock: NAWXER_clean_sbu_0, # of connection points: 4
#     Edge 16, Type (0, 0), BuildingBlock: EZIPEK_clean_linker_0, # of connection points: 2
#     Edge 17, Type (0, 0), BuildingBlock: EZIPEK_clean_linker_0, # of connection points: 2
#     Edge 18, Type (0, 0), BuildingBlock: EZIPEK_clean_linker_0, # of connection points: 2
#     Edge 19, Type (0, 0), BuildingBlock: EZIPEK_clean_linker_0, # of connection points: 2
#     Edge 20, Type (0, 0), BuildingBlock: EZIPEK_clean_linker_0, # of connection points: 2
#     Edge 21, Type (0, 0), BuildingBlock: EZIPEK_clean_linker_0, # of connection points: 2
#     Edge 22, Type (0, 0), BuildingBlock: EZIPEK_clean_linker_0, # of connection points: 2
#     Edge 23, Type (0, 0), BuildingBlock: EZIPEK_clean_linker_0, # of connection points: 2
#     Edge 24, Type (0, 0), BuildingBlock: EZIPEK_clean_linker_0, # of connection points: 2
#     Edge 25, Type (0, 0), BuildingBlock: EZIPEK_clean_linker_0, # of connection points: 2
#     Edge 26, Type (0, 0), BuildingBlock: EZIPEK_clean_linker_0, # of connection points: 2
#     Edge 27, Type (0, 0), BuildingBlock: EZIPEK_clean_linker_0, # of connection points: 2
#     Edge 28, Type (0, 0), BuildingBlock: EZIPEK_clean_linker_0, # of connection points: 2
#     Edge 29, Type (0, 0), BuildingBlock: EZIPEK_clean_linker_0, # of connection points: 2
#     Edge 30, Type (0, 0), BuildingBlock: EZIPEK_clean_linker_0, # of connection points: 2
#     Edge 31, Type (0, 0), BuildingBlock: EZIPEK_clean_linker_0, # of connection points: 2
#     Edge 32, Type (0, 0), BuildingBlock: EZIPEK_clean_linker_0, # of connection points: 2
#     Edge 33, Type (0, 0), BuildingBlock: EZIPEK_clean_linker_0, # of connection points: 2
#     Edge 34, Type (0, 0), BuildingBlock: EZIPEK_clean_linker_0, # of connection points: 2
#     Edge 35, Type (0, 0), BuildingBlock: EZIPEK_clean_linker_0, # of connection points: 2
#     Edge 36, Type (0, 0), BuildingBlock: EZIPEK_clean_linker_0, # of connection points: 2
#     Edge 37, Type (0, 0), BuildingBlock: EZIPEK_clean_linker_0, # of connection points: 2
#     Edge 38, Type (0, 0), BuildingBlock: EZIPEK_clean_linker_0, # of connection points: 2
#     Edge 39, Type (0, 0), BuildingBlock: EZIPEK_clean_linker_0, # of connection points: 2
#     Edge 40, Type (0, 0), BuildingBlock: EZIPEK_clean_linker_0, # of connection points: 2
#     Edge 41, Type (0, 0), BuildingBlock: EZIPEK_clean_linker_0, # of connection points: 2
#     Edge 42, Type (0, 0), BuildingBlock: EZIPEK_clean_linker_0, # of connection points: 2
#     Edge 43, Type (0, 0), BuildingBlock: EZIPEK_clean_linker_0, # of connection points: 2
#     Edge 44, Type (0, 0), BuildingBlock: EZIPEK_clean_linker_0, # of connection points: 2
#     Edge 45, Type (0, 0), BuildingBlock: EZIPEK_clean_linker_0, # of connection points: 2
#     Edge 46, Type (0, 0), BuildingBlock: EZIPEK_clean_linker_0, # of connection points: 2
#     Edge 47, Type (0, 0), BuildingBlock: EZIPEK_clean_linker_0, # of connection points: 2
# Relax obj value: 0.015
# Max RMSD: 0.104
# Mean RMSD: 0.104
data_MOF--net-umc--node1-NAWXER_clean_sbu_0--edge1-EZIPEK_clean_linker_0
_symmetry_space_group_name_H-M    P1
_symmetry_Int_Tables_number       1
_symmetry_cell_setting            triclinic
loop_
_symmetry_equiv_pos_as_xyz
'x, y, z'
_cell_length_a     39.275362
_cell_length_b     16.150646
_cell_length_c     42.508511
_cell_angle_alpha  89.865394
_cell_angle_beta   90.026561
_cell_angle_gamma 90.051298
loop_
_atom_site_label
_atom_site_type_symbol
_atom_site_fract_x
_atom_site_fract_y
_atom_site_fract_z
_atom_type_partial_charge
C0 C 0.37645 0.9654 0.43378 0.0
C1 C 0.38113 0.98034 0.31886 0.0
O2 O 0.38965 0.03283 0.42354 0.0
Zn3 Zn 0.40314 0.08636 0.3791 0.0
O4 O 0.36701 0.9099 0.41447 0.0
Zn5 Zn 0.37853 0.96977 0.37637 0.0
O6 O 0.43334 0.96403 0.376 0.0
O7 O 0.45203 0.09189 0.38215 0.0
O8 O 0.36645 0.92585 0.33576 0.0
O9 O 0.39621 0.04115 0.33221 0.0
O10 O 0.37637 0.18682 0.37833 0.0
O11 O 0.34498 0.07334 0.37849 0.0
C12 C 0.45815 0.01498 0.37915 0.0
C13 C 0.34723 0.15238 0.37847 0.0
C14 C 0.71976 0.83262 0.38188 0.0
C15 C 0.60142 0.9276 0.37536 0.0
O16 O 0.71714 0.91049 0.37671 0.0
Zn17 Zn 0.67738 0.00089 0.37333 0.0
O18 O 0.69297 0.78897 0.38506 0.0
Zn19 Zn 0.6601 0.87634 0.37886 0.0
O20 O 0.66983 0.91078 0.33125 0.0
O21 O 0.68417 0.04258 0.33027 0.0
O22 O 0.61176 0.85307 0.3772 0.0
O23 O 0.62319 0.98668 0.37466 0.0
O24 O 0.68558 0.06719 0.41133 0.0
O25 O 0.66493 0.94319 0.42194 0.0
C26 C 0.6781 0.97543 0.31557 0.0
C27 C 0.67526 0.01407 0.43141 0.0
C28 C 0.39183 0.90419 0.06753 0.0
C29 C 0.38694 0.93903 0.18269 0.0
O30 O 0.40229 0.84204 0.08345 0.0
Zn31 Zn 0.40891 0.80642 0.13096 0.0
O32 O 0.38142 0.96932 0.08142 0.0
Zn33 Zn 0.3882 0.93032 0.12441 0.0
O34 O 0.4421 0.92366 0.12734 0.0
O35 O 0.45799 0.79277 0.13328 0.0
O36 O 0.37564 0.99109 0.16264 0.0
O37 O 0.40047 0.87217 0.17285 0.0
O38 O 0.37568 0.71631 0.13555 0.0
O39 O 0.35134 0.83705 0.12639 0.0
C40 C 0.4655 0.8693 0.13066 0.0
C41 C 0.34888 0.75945 0.13134 0.0
C42 C 0.68105 0.97286 0.17921 0.0
C43 C 0.66732 0.99179 0.06363 0.0
O44 O 0.66675 0.03901 0.16928 0.0
Zn45 Zn 0.65207 0.09504 0.12606 0.0
O46 O 0.69088 0.91793 0.15972 0.0
Zn47 Zn 0.67686 0.9761 0.12128 0.0
O48 O 0.71072 0.07829 0.12225 0.0
O49 O 0.68067 0.19335 0.12462 0.0
O50 O 0.68264 0.93352 0.07814 0.0
O51 O 0.65533 0.05276 0.07915 0.0
O52 O 0.60292 0.09889 0.13126 0.0
O53 O 0.62303 0.97159 0.12579 0.0
C54 C 0.70944 0.15734 0.12279 0.0
C55 C 0.59796 0.02106 0.12943 0.0
C56 C 0.66455 0.03908 0.56671 0.0
C57 C 0.6546 0.03564 0.6819 0.0
O58 O 0.66936 0.09986 0.58518 0.0
Zn59 Zn 0.66098 0.03932 0.62419 0.0
O60 O 0.65636 0.96807 0.57799 0.0
Zn61 Zn 0.64629 0.91311 0.62331 0.0
O62 O 0.59914 0.88115 0.61964 0.0
O63 O 0.60684 0.01675 0.62153 0.0
O64 O 0.64725 0.96593 0.66936 0.0
O65 O 0.66468 0.0953 0.66469 0.0
O66 O 0.70301 0.95252 0.62441 0.0
O67 O 0.68034 0.82786 0.62636 0.0
C68 C 0.58689 0.95396 0.62007 0.0
C69 C 0.70666 0.87365 0.62582 0.0
C70 C 0.36483 0.95611 0.56872 0.0
C71 C 0.37037 0.94325 0.68251 0.0
O72 O 0.35533 0.89729 0.58651 0.0
Zn73 Zn 0.36549 0.95199 0.62571 0.0
O74 O 0.37607 0.02372 0.5806 0.0
Zn75 Zn 0.38454 0.07386 0.62683 0.0
O76 O 0.4324 0.09818 0.62513 0.0
O77 O 0.42072 0.96413 0.624 0.0
O78 O 0.37987 0.01415 0.67204 0.0
O79 O 0.35931 0.88855 0.66371 0.0
O80 O 0.32659 0.04717 0.62848 0.0
O81 O 0.35388 0.16663 0.62938 0.0
C82 C 0.44246 0.02357 0.62381 0.0
C83 C 0.32609 0.12661 0.6297 0.0
C84 C 0.63777 0.02698 0.93068 0.0
C85 C 0.63284 0.05548 0.81671 0.0
O86 O 0.63956 0.9705 0.91004 0.0
Zn87 Zn 0.63122 0.04082 0.87392 0.0
O88 O 0.6308 0.10157 0.92225 0.0
Zn89 Zn 0.62069 0.16702 0.87835 0.0
O90 O 0.5741 0.20526 0.88142 0.0
O91 O 0.57736 0.06957 0.87721 0.0
O92 O 0.62682 0.12484 0.83029 0.0
O93 O 0.6358 0.99024 0.83319 0.0
O94 O 0.67557 0.12346 0.87528 0.0
O95 O 0.65527 0.25053 0.87985 0.0
C96 C 0.55939 0.13557 0.87985 0.0
C97 C 0.68058 0.2019 0.87765 0.0
C98 C 0.38662 0.87512 0.93338 0.0
C99 C 0.37612 0.9087 0.81838 0.0
O100 O 0.37244 0.94182 0.92396 0.0
Zn101 Zn 0.35839 0.00314 0.88214 0.0
O102 O 0.39662 0.82093 0.91363 0.0
Zn103 Zn 0.38245 0.88188 0.87596 0.0
O104 O 0.41669 0.98326 0.87824 0.0
O105 O 0.38855 0.1006 0.8851 0.0
O106 O 0.38701 0.84385 0.83231 0.0
O107 O 0.36648 0.97033 0.83485 0.0
O108 O 0.30772 0.00064 0.88527 0.0
O109 O 0.32944 0.87551 0.88121 0.0
C110 C 0.41666 0.06179 0.88187 0.0
C111 C 0.3035 0.9223 0.88415 0.0
C112 C 0.8778 0.46844 0.43769 0.0
C113 C 0.88497 0.49452 0.32327 0.0
O114 O 0.89108 0.53648 0.42818 0.0
Zn115 Zn 0.90532 0.59461 0.38507 0.0
O116 O 0.86886 0.4134 0.41797 0.0
Zn117 Zn 0.88201 0.47566 0.38069 0.0
O118 O 0.93679 0.47458 0.38309 0.0
O119 O 0.95391 0.60428 0.38916 0.0
O120 O 0.8715 0.43566 0.33888 0.0
O121 O 0.89949 0.55366 0.33802 0.0
O122 O 0.87688 0.69269 0.38443 0.0
O123 O 0.84724 0.57677 0.38256 0.0
C124 C 0.96079 0.52771 0.38655 0.0
C125 C 0.84825 0.65589 0.38298 0.0
C126 C 0.17724 0.49824 0.44583 0.0
C127 C 0.17568 0.49173 0.33059 0.0
O128 O 0.16635 0.42992 0.43445 0.0
Zn129 Zn 0.15975 0.37388 0.38972 0.0
O130 O 0.18715 0.55545 0.42735 0.0
Zn131 Zn 0.17762 0.49874 0.38784 0.0
O132 O 0.1232 0.48413 0.38853 0.0
O133 O 0.1116 0.34992 0.39016 0.0
O134 O 0.18438 0.55295 0.34763 0.0
O135 O 0.16619 0.42361 0.34334 0.0
O136 O 0.1928 0.28523 0.39084 0.0
O137 O 0.21688 0.40795 0.38595 0.0
C138 C 0.10153 0.42476 0.38932 0.0
C139 C 0.21951 0.32921 0.38797 0.0
C140 C 0.86548 0.54136 0.07272 0.0
C141 C 0.87512 0.50565 0.18663 0.0
O142 O 0.87807 0.47161 0.08109 0.0
Zn143 Zn 0.89176 0.40836 0.12326 0.0
O144 O 0.85707 0.59453 0.09333 0.0
Zn145 Zn 0.8697 0.52769 0.12961 0.0
O146 O 0.92457 0.52563 0.1269 0.0
O147 O 0.93999 0.39537 0.11911 0.0
O148 O 0.8612 0.5658 0.17213 0.0
O149 O 0.88785 0.44604 0.17083 0.0
O150 O 0.86278 0.31203 0.12274 0.0
O151 O 0.83376 0.42839 0.12701 0.0
C152 C 0.94786 0.47109 0.12278 0.0
C153 C 0.83442 0.34932 0.12522 0.0
C154 C 0.09078 0.55448 0.1336 0.0
C155 C 0.21062 0.63696 0.13142 0.0
O156 O 0.11163 0.49372 0.13386 0.0
Zn157 Zn 0.16496 0.47297 0.13644 0.0
O158 O 0.10214 0.62828 0.13449 0.0
Zn159 Zn 0.15048 0.60163 0.13409 0.0
O160 O 0.1563 0.54108 0.09007 0.0
O161 O 0.17176 0.41062 0.09758 0.0
O162 O 0.18515 0.68576 0.13078 0.0
O163 O 0.2062 0.55865 0.13362 0.0
O164 O 0.17071 0.42545 0.17859 0.0
O165 O 0.15901 0.55874 0.18035 0.0
C166 C 0.16451 0.47023 0.07903 0.0
C167 C 0.166 0.49111 0.19457 0.0
C168 C 0.16893 0.50102 0.58113 0.0
C169 C 0.16074 0.49072 0.69541 0.0
O170 O 0.17844 0.55614 0.60053 0.0
Zn171 Zn 0.16616 0.49517 0.63798 0.0
O172 O 0.15587 0.433 0.59108 0.0
Zn173 Zn 0.14274 0.37759 0.63566 0.0
O174 O 0.09393 0.36622 0.63174 0.0
O175 O 0.11095 0.49645 0.63536 0.0
O176 O 0.14732 0.42703 0.6824 0.0
O177 O 0.17551 0.5445 0.67835 0.0
O178 O 0.20142 0.39298 0.63663 0.0
O179 O 0.17085 0.27849 0.6367 0.0
C180 C 0.08688 0.44298 0.63293 0.0
C181 C 0.1998 0.31369 0.63643 0.0
C182 C 0.83455 0.69089 0.62371 0.0
C183 C 0.94703 0.55849 0.62867 0.0
O184 O 0.86362 0.72479 0.62095 0.0
Zn185 Zn 0.89168 0.62564 0.62561 0.0
O186 O 0.83289 0.61245 0.62762 0.0
Zn187 Zn 0.86707 0.50956 0.62922 0.0
O188 O 0.85422 0.46421 0.66929 0.0
O189 O 0.88169 0.58286 0.67301 0.0
O190 O 0.92249 0.50595 0.63032 0.0
O191 O 0.9406 0.63534 0.62589 0.0
O192 O 0.88374 0.56457 0.58171 0.0
O193 O 0.85563 0.44898 0.59126 0.0
C194 C 0.86677 0.52124 0.68631 0.0
C195 C 0.8693 0.49856 0.57176 0.0
C196 C 0.15709 0.51711 0.94543 0.0
C197 C 0.15448 0.53941 0.83105 0.0
O198 O 0.17015 0.46926 0.92512 0.0
Zn199 Zn 0.15693 0.53124 0.88838 0.0
O200 O 0.14125 0.58255 0.93639 0.0
Zn201 Zn 0.12751 0.639 0.89185 0.0
O202 O 0.07838 0.63368 0.89355 0.0
O203 O 0.10206 0.51152 0.88622 0.0
O204 O 0.13655 0.59596 0.8442 0.0
O205 O 0.17174 0.49053 0.84824 0.0
O206 O 0.18617 0.6437 0.8917 0.0
O207 O 0.14986 0.74733 0.89206 0.0
C208 C 0.07522 0.55621 0.889 0.0
C209 C 0.18045 0.72188 0.89203 0.0
C210 C 0.85762 0.52505 0.93825 0.0
C211 C 0.85989 0.51045 0.82323 0.0
O212 O 0.84687 0.57921 0.91891 0.0
Zn213 Zn 0.85719 0.51928 0.88045 0.0
O214 O 0.86949 0.45652 0.92793 0.0
Zn215 Zn 0.87615 0.39639 0.88372 0.0
O216 O 0.92442 0.37398 0.8845 0.0
O217 O 0.91226 0.5076 0.88159 0.0
O218 O 0.87081 0.44457 0.83679 0.0
O219 O 0.84899 0.56998 0.83998 0.0
O220 O 0.81847 0.42689 0.87958 0.0
O221 O 0.84303 0.30578 0.88584 0.0
C222 C 0.93432 0.44901 0.88309 0.0
C223 C 0.81604 0.3483 0.88242 0.0
C224 C 0.33996 0.94774 0.48211 0.0
C225 C 0.37288 0.95322 0.46823 0.0
C226 C 0.39915 0.93871 0.52026 0.0
C227 C 0.36665 0.9447 0.53431 0.0
N228 N 0.30586 0.95808 0.52972 0.0
N229 N 0.43395 0.96583 0.4747 0.0
C230 C 0.33687 0.94895 0.51555 0.0
C231 C 0.40253 0.95185 0.48746 0.0
N232 N 0.31169 0.94324 0.4634 0.0
N233 N 0.42677 0.91829 0.53827 0.0
H234 H 0.43799 0.97503 0.45079 0.0
H235 H 0.45577 0.97542 0.48816 0.0
H236 H 0.42506 0.90701 0.56239 0.0
H237 H 0.45058 0.90436 0.5289 0.0
H238 H 0.28744 0.92986 0.47188 0.0
H239 H 0.31258 0.94847 0.43898 0.0
H240 H 0.28351 0.97177 0.51763 0.0
H241 H 0.30273 0.95634 0.55408 0.0
C242 C 0.64994 0.09538 0.51266 0.0
C243 C 0.67106 0.04618 0.53234 0.0
C244 C 0.69582 0.9793 0.48607 0.0
C245 C 0.67589 0.03073 0.46597 0.0
N246 N 0.63745 0.1464 0.46008 0.0
N247 N 0.7207 0.96009 0.5377 0.0
C248 C 0.65437 0.09232 0.47928 0.0
C249 C 0.6961 0.99417 0.51894 0.0
N250 N 0.62432 0.14104 0.52573 0.0
N251 N 0.71363 0.91393 0.4741 0.0
H252 H 0.72212 0.97137 0.56182 0.0
H253 H 0.74169 0.92821 0.52894 0.0
H254 H 0.71453 0.90002 0.45028 0.0
H255 H 0.72511 0.86887 0.4881 0.0
H256 H 0.60538 0.17023 0.51265 0.0
H257 H 0.62058 0.1453 0.54995 0.0
H258 H 0.62444 0.19809 0.46835 0.0
H259 H 0.63816 0.1429 0.43562 0.0
C260 C 0.42036 0.91031 0.01499 0.0
C261 C 0.39049 0.89575 0.03297 0.0
C262 C 0.36004 0.85055 0.98566 0.0
C263 C 0.38999 0.86423 0.96773 0.0
N264 N 0.45003 0.89243 0.96523 0.0
N265 N 0.33409 0.83746 0.0372 0.0
C266 C 0.42069 0.88909 0.98248 0.0
C267 C 0.36095 0.86142 0.01882 0.0
N268 N 0.44799 0.94658 0.02893 0.0
N269 N 0.3304 0.82979 0.97071 0.0
H270 H 0.33323 0.84742 0.06143 0.0
H271 H 0.31357 0.80302 0.02889 0.0
H272 H 0.32936 0.81581 0.94676 0.0
H273 H 0.30665 0.82985 0.98159 0.0
H274 H 0.46953 0.96611 0.01675 0.0
H275 H 0.44848 0.96261 0.05269 0.0
H276 H 0.47399 0.90347 0.9748 0.0
H277 H 0.45076 0.87778 0.94135 0.0
C278 C 0.62922 0.95117 0.98245 0.0
C279 C 0.64745 0.00959 0.96392 0.0
C280 C 0.67887 0.05473 0.01052 0.0
C281 C 0.66281 0.99213 0.02883 0.0
N282 N 0.62566 0.8732 0.03134 0.0
N283 N 0.69682 0.09741 0.95866 0.0
C284 C 0.63919 0.93724 0.01439 0.0
C285 C 0.67448 0.05532 0.97746 0.0
N286 N 0.60124 0.91263 0.97016 0.0
N287 N 0.69728 0.11609 0.02461 0.0
H288 H 0.69539 0.0963 0.93418 0.0
H289 H 0.71892 0.12528 0.96716 0.0
H290 H 0.70041 0.12024 0.04881 0.0
H291 H 0.70639 0.16774 0.0125 0.0
H292 H 0.58458 0.87659 0.98345 0.0
H293 H 0.59302 0.92204 0.9471 0.0
H294 H 0.61101 0.82635 0.02136 0.0
H295 H 0.631 0.86358 0.05509 0.0
C296 C 0.85068 0.53862 0.5173 0.0
C297 C 0.86814 0.48237 0.53741 0.0
C298 C 0.88874 0.4062 0.49114 0.0
C299 C 0.86999 0.46072 0.47156 0.0
N300 N 0.82537 0.5616 0.46611 0.0
N301 N 0.90021 0.35578 0.54394 0.0
C302 C 0.84834 0.52109 0.48479 0.0
C303 C 0.88566 0.4132 0.52448 0.0
N304 N 0.8376 0.61091 0.52875 0.0
N305 N 0.91099 0.35135 0.47792 0.0
H306 H 0.90082 0.3618 0.56834 0.0
H307 H 0.91004 0.29971 0.53605 0.0
H308 H 0.91321 0.34363 0.45366 0.0
H309 H 0.92856 0.31692 0.49079 0.0
H310 H 0.82801 0.65778 0.5144 0.0
H311 H 0.83934 0.62837 0.55219 0.0
H312 H 0.80666 0.60097 0.47488 0.0
H313 H 0.82265 0.54864 0.4422 0.0
C314 C 0.19845 0.45864 0.5321 0.0
C315 C 0.17474 0.51142 0.54699 0.0
C316 C 0.15774 0.56819 0.49567 0.0
C317 C 0.17845 0.50786 0.48059 0.0
N318 N 0.21539 0.3882 0.48467 0.0
N319 N 0.12983 0.61242 0.54384 0.0
C320 C 0.19803 0.4512 0.49887 0.0
C321 C 0.15416 0.56613 0.52907 0.0
N322 N 0.22188 0.41665 0.54983 0.0
N323 N 0.14076 0.62593 0.4781 0.0
H324 H 0.1269 0.6133 0.56823 0.0
H325 H 0.11113 0.64594 0.53205 0.0
H326 H 0.14037 0.62571 0.45359 0.0
H327 H 0.12852 0.67707 0.48771 0.0
H328 H 0.24219 0.38383 0.54027 0.0
H329 H 0.22307 0.42126 0.57428 0.0
H330 H 0.22634 0.33911 0.49694 0.0
H331 H 0.21674 0.38084 0.46043 0.0
C332 C 0.83683 0.48382 0.99202 0.0
C333 C 0.8561 0.5389 0.97279 0.0
C334 C 0.87828 0.60714 0.0203 0.0
C335 C 0.85798 0.55374 0.03898 0.0
N336 N 0.81079 0.45945 0.04283 0.0
N337 N 0.89169 0.66071 0.96837 0.0
C338 C 0.83483 0.49829 0.02479 0.0
C339 C 0.87535 0.60387 0.98686 0.0
N340 N 0.82163 0.41526 0.97947 0.0
N341 N 0.90181 0.65714 0.03446 0.0
H342 H 0.89262 0.65689 0.94393 0.0
H343 H 0.90282 0.71443 0.97716 0.0
H344 H 0.90392 0.66229 0.05884 0.0
H345 H 0.92044 0.68989 0.02224 0.0
H346 H 0.81073 0.36856 0.99309 0.0
H347 H 0.82263 0.40026 0.95576 0.0
H348 H 0.79102 0.4242 0.03346 0.0
H349 H 0.8085 0.46986 0.06696 0.0
C350 C 0.19273 0.46083 0.02645 0.0
C351 C 0.16247 0.45985 0.04451 0.0
C352 C 0.12844 0.48505 0.997 0.0
C353 C 0.159 0.49587 0.97947 0.0
N354 N 0.22038 0.5031 0.97796 0.0
N355 N 0.10145 0.4679 0.04798 0.0
C356 C 0.19124 0.48484 0.99419 0.0
C357 C 0.13027 0.47004 0.02991 0.0
N358 N 0.2229 0.43982 0.04035 0.0
N359 N 0.09762 0.48763 0.98206 0.0
H360 H 0.10169 0.44956 0.07153 0.0
H361 H 0.07752 0.48645 0.0402 0.0
H362 H 0.09487 0.50357 0.95851 0.0
H363 H 0.07473 0.46988 0.99239 0.0
H364 H 0.24555 0.4317 0.02804 0.0
H365 H 0.22469 0.4235 0.06404 0.0
H366 H 0.24444 0.50508 0.98818 0.0
H367 H 0.22038 0.52351 0.95467 0.0
C368 C 0.55039 0.00143 0.35201 0.0
C369 C 0.56433 0.94706 0.37519 0.0
C370 C 0.50736 0.92665 0.3978 0.0
C371 C 0.49393 0.98572 0.37634 0.0
N372 N 0.5 0.06189 0.32795 0.0
N373 N 0.55729 0.87493 0.42463 0.0
C374 C 0.51482 0.0189 0.35216 0.0
C375 C 0.5431 0.91355 0.39911 0.0
N376 N 0.5712 0.03812 0.33024 0.0
N377 N 0.48609 0.88079 0.41638 0.0
H378 H 0.58345 0.86776 0.4277 0.0
H379 H 0.54348 0.85836 0.44459 0.0
H380 H 0.45974 0.88603 0.4158 0.0
H381 H 0.49427 0.83064 0.42984 0.0
H382 H 0.56384 0.08709 0.31585 0.0
H383 H 0.59672 0.02326 0.32736 0.0
H384 H 0.51267 0.08042 0.30765 0.0
H385 H 0.47386 0.07261 0.32652 0.0
C386 C 0.51399 0.93445 0.15953 0.0
C387 C 0.50106 0.89866 0.13148 0.0
C388 C 0.5495 0.95331 0.1017 0.0
C389 C 0.56338 0.98525 0.13004 0.0
N390 N 0.56236 0.99512 0.1866 0.0
N391 N 0.50809 0.86251 0.07698 0.0
C392 C 0.54659 0.97285 0.15919 0.0
C393 C 0.51942 0.90437 0.10289 0.0
N394 N 0.4947 0.93335 0.18631 0.0
N395 N 0.56456 0.97222 0.07356 0.0
H396 H 0.48589 0.82696 0.07708 0.0
H397 H 0.52185 0.85743 0.05616 0.0
H398 H 0.5864 0.00872 0.07184 0.0
H399 H 0.55408 0.9578 0.05176 0.0
H400 H 0.50069 0.96711 0.2064 0.0
H401 H 0.47155 0.90185 0.1879 0.0
H402 H 0.55333 0.97898 0.20881 0.0
H403 H 0.5859 0.02512 0.18717 0.0
C404 C 0.53371 0.00629 0.59404 0.0
C405 C 0.54956 0.9674 0.62023 0.0
C406 C 0.49555 0.97005 0.64935 0.0
C407 C 0.47934 0.00478 0.62257 0.0
N408 N 0.48117 0.04791 0.5683 0.0
N409 N 0.54572 0.90508 0.67179 0.0
C410 C 0.49796 0.021 0.59461 0.0
C411 C 0.53044 0.94663 0.64752 0.0
N412 N 0.55299 0.02979 0.56873 0.0
N413 N 0.47797 0.96353 0.67705 0.0
H414 H 0.57169 0.89185 0.67242 0.0
H415 H 0.53248 0.87923 0.6906 0.0
H416 H 0.45253 0.9809 0.67934 0.0
H417 H 0.489 0.94712 0.69842 0.0
H418 H 0.54411 0.06743 0.55061 0.0
H419 H 0.57871 0.0149 0.56645 0.0
H420 H 0.49225 0.05192 0.54612 0.0
H421 H 0.45519 0.06116 0.56806 0.0
C422 C 0.506 0.10122 0.9099 0.0
C423 C 0.52159 0.13014 0.88179 0.0
C424 C 0.46577 0.13325 0.8555 0.0
C425 C 0.45035 0.10341 0.88347 0.0
N426 N 0.45358 0.07739 0.93903 0.0
N427 N 0.51604 0.19008 0.83002 0.0
C428 C 0.46987 0.09361 0.91128 0.0
C429 C 0.5013 0.152 0.85534 0.0
N430 N 0.52584 0.07891 0.93498 0.0
N431 N 0.44671 0.13949 0.82868 0.0
H432 H 0.54206 0.20243 0.8287 0.0
H433 H 0.50229 0.21485 0.8113 0.0
H434 H 0.42044 0.12968 0.82848 0.0
H435 H 0.45696 0.1505 0.80649 0.0
H436 H 0.51657 0.04812 0.95475 0.0
H437 H 0.55218 0.08719 0.93539 0.0
H438 H 0.46565 0.07653 0.96082 0.0
H439 H 0.42714 0.07189 0.94052 0.0
C440 C 1.01189 0.46743 0.35981 0.0
C441 C 0.99654 0.49909 0.38752 0.0
C442 C 0.04995 0.48041 0.41659 0.0
C443 C 0.06482 0.445 0.38932 0.0
N444 N 0.05966 0.39549 0.33606 0.0
N445 N 0.99832 0.52271 0.44346 0.0
C446 C 0.0456 0.43524 0.36128 0.0
C447 C 1.01487 0.50218 0.41626 0.0
N448 N 0.99474 0.47168 0.33182 0.0
N449 N 0.06952 0.49421 0.4427 0.0
H450 H 0.97263 0.53897 0.44413 0.0
H451 H 1.00916 0.51734 0.46572 0.0
H452 H 0.09472 0.4745 0.4446 0.0
H453 H 0.0615 0.52923 0.46184 0.0
H454 H 1.00564 0.45821 0.31013 0.0
H455 H 0.97004 0.4948 0.32983 0.0
H456 H 0.04597 0.37815 0.31617 0.0
H457 H 0.08479 0.37466 0.33573 0.0
C458 C 0.03456 0.56693 0.1052 0.0
C459 C 0.05367 0.53687 0.13134 0.0
C460 C 1.0022 0.47157 0.15292 0.0
C461 C 0.98397 0.4954 0.12566 0.0
N462 N 0.98236 0.55883 0.07442 0.0
N463 N 0.05671 0.4477 0.1773 0.0
C464 C 0.99994 0.5419 0.10149 0.0
C465 C 0.03782 0.48541 0.15436 0.0
N466 N 0.04965 0.6178 0.08353 0.0
N467 N 0.98519 0.43847 0.17809 0.0
H468 H 0.08267 0.45693 0.18031 0.0
H469 H 0.04716 0.40142 0.19195 0.0
H470 H 0.95905 0.42701 0.17803 0.0
H471 H 0.9963 0.42955 0.20009 0.0
H472 H 0.03629 0.65009 0.06629 0.0
H473 H 0.07564 0.63074 0.0833 0.0
H474 H 0.99329 0.58443 0.05435 0.0
H475 H 0.95694 0.54209 0.07116 0.0
C476 C 1.00311 0.54461 0.65678 0.0
C477 C 0.98285 0.52899 0.62974 0.0
C478 C 0.03142 0.46081 0.6041 0.0
C479 C 0.05091 0.47136 0.63194 0.0
N480 N 0.05439 0.5124 0.68634 0.0
N481 N 0.97596 0.46477 0.57892 0.0
C482 C 0.03656 0.51073 0.65868 0.0
C483 C 0.99647 0.48449 0.60383 0.0
N484 N 0.99034 0.5919 0.68067 0.0
N485 N 0.04681 0.43203 0.57742 0.0
H486 H 0.95093 0.48548 0.57679 0.0
H487 H 0.98299 0.42383 0.5612 0.0
H488 H 0.07236 0.41456 0.57663 0.0
H489 H 0.03522 0.43164 0.5554 0.0
H490 H 1.005 0.61416 0.69923 0.0
H491 H 0.96532 0.61339 0.68112 0.0
H492 H 0.04419 0.53204 0.70764 0.0
H493 H 0.07879 0.48776 0.68873 0.0
C494 C 0.01856 0.55178 0.86107 0.0
C495 C 0.04061 0.51936 0.88463 0.0
C496 C 0.99307 0.43972 0.90685 0.0
C497 C 0.97127 0.46979 0.8828 0.0
N498 N 0.96542 0.53735 0.83241 0.0
N499 N 0.05086 0.40995 0.92251 0.0
C500 C 0.98461 0.52117 0.85857 0.0
C501 C 0.0286 0.45605 0.90513 0.0
N502 N 0.03021 0.61092 0.84066 0.0
N503 N 0.97979 0.39945 0.93238 0.0
H504 H 0.07713 0.41607 0.92085 0.0
H505 H 0.04341 0.3585 0.93566 0.0
H506 H 0.95382 0.38852 0.93529 0.0
H507 H 0.99417 0.38458 0.95221 0.0
H508 H 1.01431 0.64519 0.82597 0.0
H509 H 0.05577 0.62799 0.83913 0.0
H510 H 0.97477 0.5675 0.81253 0.0
H511 H 0.94101 0.51337 0.82913 0.0
C512 C 0.2805 0.30805 0.40501 0.0
C513 C 0.25332 0.28944 0.38405 0.0
C514 C 0.28959 0.18895 0.35656 0.0
C515 C 0.31557 0.20236 0.37941 0.0
N516 N 0.33282 0.2612 0.4291 0.0
N517 N 0.23438 0.22845 0.33541 0.0
C518 C 0.31042 0.25889 0.40444 0.0
C519 C 0.25843 0.23371 0.35869 0.0
N520 N 0.27842 0.37416 0.42493 0.0
N521 N 0.29453 0.13219 0.33315 0.0
H522 H 0.21192 0.26282 0.33545 0.0
H523 H 0.23744 0.19571 0.31459 0.0
H524 H 0.31774 0.10318 0.32907 0.0
H525 H 0.27548 0.11069 0.31828 0.0
H526 H 0.29901 0.396 0.43795 0.0
H527 H 0.2575 0.41328 0.42614 0.0
H528 H 0.32809 0.29313 0.4499 0.0
H529 H 0.35458 0.22447 0.43042 0.0
C530 C 0.76 0.73129 0.3574 0.0
C531 C 0.75373 0.79228 0.38068 0.0
C532 C 0.80926 0.76437 0.4049 0.0
C533 C 0.81586 0.70341 0.38173 0.0
N534 N 0.79681 0.62412 0.33669 0.0
N535 N 0.77723 0.8856 0.41954 0.0
C536 C 0.79103 0.6856 0.35813 0.0
C537 C 0.77978 0.81463 0.40228 0.0
N538 N 0.73737 0.72211 0.33311 0.0
N539 N 0.82978 0.77034 0.43082 0.0
H540 H 0.75706 0.92684 0.41751 0.0
H541 H 0.7971 0.90891 0.43314 0.0
H542 H 0.85079 0.73223 0.43467 0.0
H543 H 0.8238 0.80659 0.45029 0.0
H544 H 0.74148 0.68532 0.31345 0.0
H545 H 0.71523 0.75725 0.33094 0.0
H546 H 0.77823 0.59943 0.32201 0.0
H547 H 0.82003 0.59418 0.33407 0.0
C548 C 0.26829 0.6462 0.1065 0.0
C549 C 0.24578 0.66922 0.1311 0.0
C550 C 0.29051 0.75259 0.15531 0.0
C551 C 0.31421 0.72323 0.13251 0.0
N552 N 0.32646 0.63703 0.08759 0.0
N553 N 0.23735 0.72848 0.18253 0.0
C554 C 0.3034 0.66774 0.10862 0.0
C555 C 0.25739 0.71797 0.15651 0.0
N556 N 0.2557 0.6073 0.08041 0.0
N557 N 0.29905 0.81533 0.17536 0.0
H558 H 0.21292 0.70371 0.18456 0.0
H559 H 0.24617 0.755 0.20332 0.0
H560 H 0.32291 0.84301 0.17595 0.0
H561 H 0.28139 0.84534 0.18962 0.0
H562 H 0.26989 0.59618 0.06019 0.0
H563 H 0.22999 0.59249 0.07779 0.0
H564 H 0.32096 0.58939 0.07193 0.0
H565 H 0.35188 0.65546 0.08697 0.0
C566 C 0.76668 0.19577 0.09962 0.0
C567 C 0.74173 0.20564 0.12365 0.0
C568 C 0.77798 0.30968 0.1495 0.0
C569 C 0.80203 0.30198 0.12462 0.0
N570 N 0.8147 0.25538 0.07208 0.0
N571 N 0.72739 0.25596 0.17534 0.0
C572 C 0.7952 0.24965 0.09869 0.0
C573 C 0.74818 0.25915 0.14949 0.0
N574 N 0.76429 0.13264 0.07836 0.0
N575 N 0.78327 0.36622 0.17292 0.0
H576 H 0.70634 0.21684 0.17702 0.0
H577 H 0.73251 0.28568 0.19649 0.0
H578 H 0.8055 0.40068 0.17521 0.0
H579 H 0.76484 0.38333 0.18921 0.0
H580 H 0.78387 0.11701 0.06296 0.0
H581 H 0.74468 0.08962 0.07804 0.0
H582 H 0.80831 0.22688 0.05093 0.0
H583 H 0.83523 0.29598 0.06986 0.0
C584 C 0.76823 0.85728 0.64408 0.0
C585 C 0.74109 0.83465 0.62359 0.0
C586 C 0.77532 0.72023 0.60262 0.0
C587 C 0.80258 0.74141 0.6233 0.0
N588 N 0.82303 0.82261 0.66709 0.0
N589 N 0.72424 0.76551 0.57591 0.0
C590 C 0.79875 0.80898 0.64456 0.0
C591 C 0.74619 0.77197 0.60082 0.0
N592 N 0.76531 0.92597 0.66262 0.0
N593 N 0.77626 0.64894 0.58536 0.0
H594 H 0.70354 0.80504 0.57265 0.0
H595 H 0.72882 0.72809 0.55645 0.0
H596 H 0.79669 0.60835 0.58497 0.0
H597 H 0.75518 0.62553 0.57344 0.0
H598 H 0.78547 0.95253 0.67486 0.0
H599 H 0.74334 0.96138 0.66413 0.0
H600 H 0.82005 0.86275 0.68597 0.0
H601 H 0.8455 0.78882 0.66879 0.0
C602 C 0.25577 0.26823 0.66 0.0
C603 C 0.23177 0.26396 0.63497 0.0
C604 C 0.27053 0.17225 0.60567 0.0
C605 C 0.2932 0.17193 0.6317 0.0
N606 N 0.30537 0.20851 0.68545 0.0
N607 N 0.21503 0.20851 0.58456 0.0
C608 C 0.28528 0.21705 0.65934 0.0
C609 C 0.23868 0.21435 0.60808 0.0
N610 N 0.25071 0.32219 0.68429 0.0
N611 N 0.28032 0.13608 0.57804 0.0
H612 H 0.19289 0.24402 0.58385 0.0
H613 H 0.21642 0.16567 0.56636 0.0
H614 H 0.30349 0.10544 0.57535 0.0
H615 H 0.2669 0.1415 0.55703 0.0
H616 H 0.26914 0.33579 0.70111 0.0
H617 H 0.22894 0.35835 0.68654 0.0
H618 H 0.29885 0.23133 0.70752 0.0
H619 H 0.32738 0.17245 0.68582 0.0
C620 C 0.72492 0.28798 0.90459 0.0
C621 C 0.71579 0.2357 0.87926 0.0
C622 C 0.7739 0.24808 0.85816 0.0
C623 C 0.78167 0.30845 0.88149 0.0
N624 N 0.76048 0.39973 0.92244 0.0
N625 N 0.72956 0.17826 0.82854 0.0
C626 C 0.756 0.33271 0.90332 0.0
C627 C 0.73981 0.21838 0.85521 0.0
N628 N 0.70453 0.29282 0.9306 0.0
N629 N 0.79869 0.22039 0.83824 0.0
H630 H 0.70453 0.15906 0.82487 0.0
H631 H 0.74488 0.17136 0.80873 0.0
H632 H 0.82323 0.24475 0.8376 0.0
H633 H 0.79546 0.16947 0.82354 0.0
H634 H 0.71196 0.32253 0.95123 0.0
H635 H 0.6819 0.25957 0.93296 0.0
H636 H 0.74097 0.42447 0.9361 0.0
H637 H 0.78219 0.43638 0.92251 0.0
C638 C 0.23252 0.77131 0.86305 0.0
C639 C 0.20971 0.78086 0.88878 0.0
C640 C 0.24696 0.88995 0.91068 0.0
C641 C 0.26921 0.88162 0.88449 0.0
N642 N 0.28034 0.8229 0.83326 0.0
N643 N 0.1926 0.8567 0.935 0.0
C644 C 0.26106 0.82485 0.86002 0.0
C645 C 0.21594 0.84321 0.91173 0.0
N646 N 0.22754 0.70931 0.84163 0.0
N647 N 0.25665 0.93765 0.93567 0.0
H648 H 0.17113 0.81975 0.93827 0.0
H649 H 0.1934 0.90748 0.95001 0.0
H650 H 0.27912 0.97202 0.93598 0.0
H651 H 0.24389 0.93856 0.95711 0.0
H652 H 0.24602 0.68978 0.82575 0.0
H653 H 0.20556 0.67364 0.84049 0.0
H654 H 0.27279 0.79385 0.81256 0.0
H655 H 0.30312 0.85471 0.83076 0.0
C656 C 0.38017 0.04188 0.26371 0.0
C657 C 0.38247 0.97169 0.28398 0.0
C658 C 0.38119 0.8818 0.23797 0.0
C659 C 0.38416 0.95176 0.21747 0.0
N660 N 0.39709 0.09831 0.21348 0.0
N661 N 0.39788 0.82705 0.28833 0.0
C662 C 0.38659 0.03202 0.231 0.0
C663 C 0.38672 0.89226 0.27056 0.0
N664 N 0.37106 0.11767 0.27511 0.0
N665 N 0.37208 0.80535 0.22707 0.0
H666 H 0.40549 0.83297 0.31172 0.0
H667 H 0.40399 0.76978 0.27856 0.0
H668 H 0.3657 0.79276 0.20388 0.0
H669 H 0.36686 0.75589 0.24215 0.0
H670 H 0.366 0.16805 0.26045 0.0
H671 H 0.365 0.1284 0.29855 0.0
H672 H 0.40195 0.15618 0.22335 0.0
H673 H 0.40527 0.09351 0.19027 0.0
C674 C 0.70956 0.00386 0.2308 0.0
C675 C 0.68393 0.96126 0.21374 0.0
C676 C 0.65369 0.93121 0.26293 0.0
C677 C 0.68033 0.97008 0.28043 0.0
N678 N 0.73781 0.02355 0.28092 0.0
N679 N 0.6352 0.87106 0.21348 0.0
C680 C 0.70947 0.00096 0.26433 0.0
C681 C 0.6573 0.92023 0.22987 0.0
N682 N 0.73367 0.04855 0.21495 0.0
N683 N 0.62394 0.90903 0.2774 0.0
H684 H 0.63659 0.86334 0.18915 0.0
H685 H 0.61748 0.83216 0.22419 0.0
H686 H 0.61957 0.9155 0.30136 0.0
H687 H 0.6022 0.8908 0.26522 0.0
H688 H 0.75035 0.0894 0.22599 0.0
H689 H 0.73558 0.04863 0.19046 0.0
H690 H 0.76088 0.0388 0.2703 0.0
H691 H 0.7395 0.0187 0.30532 0.0
C692 C 0.61374 0.08405 0.76103 0.0
C693 C 0.63865 0.05255 0.78214 0.0
C694 C 0.67338 0.00731 0.73738 0.0
C695 C 0.65013 0.04566 0.71637 0.0
N696 N 0.59999 0.12893 0.70797 0.0
N697 N 0.69571 0.00067 0.79034 0.0
C698 C 0.62098 0.08724 0.72818 0.0
C699 C 0.66947 0.01868 0.7703 0.0
N700 N 0.58241 0.10638 0.77216 0.0
N701 N 0.69885 0.9583 0.72595 0.0
H702 H 0.69442 0.00957 0.81458 0.0
H703 H 0.72001 0.98477 0.78264 0.0
H704 H 0.70281 0.94914 0.70201 0.0
H705 H 0.71413 0.92117 0.7402 0.0
H706 H 0.56194 0.12171 0.75771 0.0
H707 H 0.57574 0.10198 0.79584 0.0
H708 H 0.5805 0.1679 0.71541 0.0
H709 H 0.60354 0.1294 0.68365 0.0
C710 C 0.40117 0.88485 0.76424 0.0
C711 C 0.37401 0.91475 0.78327 0.0
C712 C 0.34487 0.96507 0.73547 0.0
C713 C 0.37039 0.92813 0.7168 0.0
N714 N 0.41972 0.8405 0.71252 0.0
N715 N 0.31696 0.97436 0.78564 0.0
C716 C 0.39742 0.88356 0.73093 0.0
C717 C 0.34506 0.9526 0.76855 0.0
N718 N 0.43165 0.86397 0.77764 0.0
N719 N 0.32054 0.01366 0.7216 0.0
H720 H 0.3154 0.97291 0.80995 0.0
H721 H 0.29364 0.98912 0.7754 0.0
H722 H 0.31775 0.01918 0.69728 0.0
H723 H 0.30447 0.05279 0.73415 0.0
H724 H 0.45332 0.84986 0.76459 0.0
H725 H 0.4367 0.87023 0.80157 0.0
H726 H 0.4378 0.79978 0.72162 0.0
H727 H 0.41828 0.84012 0.68801 0.0
C728 C 0.87486 0.42655 0.23809 0.0
C729 C 0.87729 0.5033 0.22161 0.0
C730 C 0.87991 0.57504 0.27207 0.0
C731 C 0.88286 0.49772 0.28824 0.0
N732 N 0.89435 0.35093 0.28358 0.0
N733 N 0.89389 0.64762 0.22422 0.0
C734 C 0.88363 0.42361 0.27041 0.0
C735 C 0.88327 0.57682 0.2389 0.0
N736 N 0.86312 0.35672 0.2236 0.0
N737 N 0.87254 0.64675 0.28764 0.0
H738 H 0.89973 0.65048 0.20033 0.0
H739 H 0.90123 0.70036 0.23662 0.0
H740 H 0.86752 0.6501 0.31159 0.0
H741 H 0.8673 0.702 0.27585 0.0
H742 H 0.85839 0.30188 0.23585 0.0
H743 H 0.85424 0.3557 0.20056 0.0
H744 H 0.89778 0.29713 0.27044 0.0
H745 H 0.90414 0.34693 0.30632 0.0
C746 C 0.14736 0.53801 0.28102 0.0
C747 C 0.17511 0.49811 0.29589 0.0
C748 C 0.19871 0.46042 0.2444 0.0
C749 C 0.16897 0.49195 0.22954 0.0
N750 N 0.11285 0.55295 0.23432 0.0
N751 N 0.22562 0.41391 0.29267 0.0
C752 C 0.14282 0.52926 0.248 0.0
C753 C 0.20027 0.45687 0.27784 0.0
N754 N 0.12526 0.5845 0.29849 0.0
N755 N 0.22636 0.43869 0.22671 0.0
H756 H 0.22895 0.41445 0.31702 0.0
H757 H 0.24208 0.3738 0.28103 0.0
H758 H 0.22698 0.44375 0.20227 0.0
H759 H 0.24993 0.42357 0.23634 0.0
H760 H 0.107 0.62348 0.28867 0.0
H761 H 0.1268 0.58946 0.3229 0.0
H762 H 0.09127 0.56972 0.24701 0.0
H763 H 0.10829 0.55005 0.21029 0.0
C764 C 0.15449 0.44667 0.78353 0.0
C765 C 0.15384 0.52809 0.79615 0.0
C766 C 0.14974 0.58234 0.74228 0.0
C767 C 0.15773 0.50292 0.73006 0.0
N768 N 0.17402 0.36087 0.74096 0.0
N769 N 0.15629 0.67619 0.78579 0.0
C770 C 0.16191 0.43535 0.75119 0.0
C771 C 0.15294 0.5969 0.7751 0.0
N772 N 0.14613 0.38 0.80183 0.0
N773 N 0.13727 0.64297 0.72298 0.0
H774 H 0.15923 0.69172 0.80932 0.0
H775 H 0.15947 0.72657 0.77069 0.0
H776 H 0.13192 0.63338 0.69925 0.0
H777 H 0.12813 0.69926 0.73145 0.0
H778 H 0.14356 0.32038 0.79276 0.0
H779 H 0.13726 0.38561 0.82484 0.0
H780 H 0.18051 0.31303 0.75635 0.0
H781 H 0.18102 0.34951 0.71779 0.0
C782 C 0.86083 0.5931 0.73887 0.0
C783 C 0.8636 0.51843 0.72134 0.0
C784 C 0.85479 0.44157 0.77023 0.0
C785 C 0.85973 0.51492 0.78814 0.0
N786 N 0.87696 0.65938 0.78731 0.0
N787 N 0.87267 0.36977 0.72355 0.0
C788 C 0.86553 0.59065 0.77193 0.0
C789 C 0.86333 0.44185 0.73786 0.0
N790 N 0.85195 0.66569 0.72459 0.0
N791 N 0.84055 0.37263 0.78343 0.0
H792 H 0.88259 0.36735 0.70086 0.0
H793 H 0.87482 0.31409 0.73589 0.0
H794 H 0.83023 0.37242 0.80602 0.0
H795 H 0.83469 0.31995 0.77034 0.0
H796 H 0.84766 0.72004 0.73719 0.0
H797 H 0.84403 0.6686 0.70123 0.0
H798 H 0.88361 0.71361 0.77541 0.0
H799 H 0.88403 0.6592 0.81092 0.0
loop_
_geom_bond_atom_site_label_1
_geom_bond_atom_site_label_2
_geom_bond_distance
_geom_bond_site_symmetry_2
_ccdc_geom_bond_type
C0 O2 1.247 . S
C0 O4 1.258 . S
C1 O8 1.247 . S
C1 O9 1.258 . S
O2 C0 1.247 . S
O2 Zn3 2.028 . S
Zn3 O2 2.028 . S
Zn3 O7 2.035 . S
Zn3 O9 2.035 . S
Zn3 O10 2.028 . S
O4 C0 1.258 . S
O4 Zn5 2.035 . S
Zn5 O4 2.035 . S
Zn5 O6 2.028 . S
Zn5 O8 2.028 . S
Zn5 O11 2.035 . S
O6 Zn5 2.028 . S
O6 C12 1.247 . S
O7 Zn3 2.035 . S
O7 C12 1.258 . S
O8 C1 1.247 . S
O8 Zn5 2.028 . S
O9 C1 1.258 . S
O9 Zn3 2.035 . S
O10 Zn3 2.028 . S
O10 C13 1.247 . S
O11 Zn5 2.035 . S
O11 C13 1.258 . S
C12 O6 1.247 . S
C12 O7 1.258 . S
C13 O10 1.247 . S
C13 O11 1.258 . S
C14 O16 1.247 . S
C14 O18 1.258 . S
C15 O22 1.247 . S
C15 O23 1.258 . S
O16 C14 1.247 . S
O16 Zn17 2.028 . S
Zn17 O16 2.028 . S
Zn17 O21 2.035 . S
Zn17 O23 2.035 . S
Zn17 O24 2.028 . S
O18 C14 1.258 . S
O18 Zn19 2.035 . S
Zn19 O18 2.035 . S
Zn19 O20 2.028 . S
Zn19 O22 2.028 . S
Zn19 O25 2.035 . S
O20 Zn19 2.028 . S
O20 C26 1.247 . S
O21 Zn17 2.035 . S
O21 C26 1.258 . S
O22 C15 1.247 . S
O22 Zn19 2.028 . S
O23 C15 1.258 . S
O23 Zn17 2.035 . S
O24 Zn17 2.028 . S
O24 C27 1.247 . S
O25 Zn19 2.035 . S
O25 C27 1.258 . S
C26 O20 1.247 . S
C26 O21 1.258 . S
C27 O24 1.247 . S
C27 O25 1.258 . S
C28 O30 1.247 . S
C28 O32 1.258 . S
C29 O36 1.247 . S
C29 O37 1.258 . S
O30 C28 1.247 . S
O30 Zn31 2.028 . S
Zn31 O30 2.028 . S
Zn31 O35 2.035 . S
Zn31 O37 2.035 . S
Zn31 O38 2.028 . S
O32 C28 1.258 . S
O32 Zn33 2.035 . S
Zn33 O32 2.035 . S
Zn33 O34 2.028 . S
Zn33 O36 2.028 . S
Zn33 O39 2.035 . S
O34 Zn33 2.028 . S
O34 C40 1.247 . S
O35 Zn31 2.035 . S
O35 C40 1.258 . S
O36 C29 1.247 . S
O36 Zn33 2.028 . S
O37 C29 1.258 . S
O37 Zn31 2.035 . S
O38 Zn31 2.028 . S
O38 C41 1.247 . S
O39 Zn33 2.035 . S
O39 C41 1.258 . S
C40 O34 1.247 . S
C40 O35 1.258 . S
C41 O38 1.247 . S
C41 O39 1.258 . S
C42 O44 1.247 . S
C42 O46 1.258 . S
C43 O50 1.247 . S
C43 O51 1.258 . S
O44 C42 1.247 . S
O44 Zn45 2.028 . S
Zn45 O44 2.028 . S
Zn45 O49 2.035 . S
Zn45 O51 2.035 . S
Zn45 O52 2.028 . S
O46 C42 1.258 . S
O46 Zn47 2.035 . S
Zn47 O46 2.035 . S
Zn47 O48 2.028 . S
Zn47 O50 2.028 . S
Zn47 O53 2.035 . S
O48 Zn47 2.028 . S
O48 C54 1.247 . S
O49 Zn45 2.035 . S
O49 C54 1.258 . S
O50 C43 1.247 . S
O50 Zn47 2.028 . S
O51 C43 1.258 . S
O51 Zn45 2.035 . S
O52 Zn45 2.028 . S
O52 C55 1.247 . S
O53 Zn47 2.035 . S
O53 C55 1.258 . S
C54 O48 1.247 . S
C54 O49 1.258 . S
C55 O52 1.247 . S
C55 O53 1.258 . S
C56 O58 1.247 . S
C56 O60 1.258 . S
C57 O64 1.247 . S
C57 O65 1.258 . S
O58 C56 1.247 . S
O58 Zn59 2.028 . S
Zn59 O58 2.028 . S
Zn59 O63 2.035 . S
Zn59 O65 2.035 . S
Zn59 O66 2.028 . S
O60 C56 1.258 . S
O60 Zn61 2.035 . S
Zn61 O60 2.035 . S
Zn61 O62 2.028 . S
Zn61 O64 2.028 . S
Zn61 O67 2.035 . S
O62 Zn61 2.028 . S
O62 C68 1.247 . S
O63 Zn59 2.035 . S
O63 C68 1.258 . S
O64 C57 1.247 . S
O64 Zn61 2.028 . S
O65 C57 1.258 . S
O65 Zn59 2.035 . S
O66 Zn59 2.028 . S
O66 C69 1.247 . S
O67 Zn61 2.035 . S
O67 C69 1.258 . S
C68 O62 1.247 . S
C68 O63 1.258 . S
C69 O66 1.247 . S
C69 O67 1.258 . S
C70 O72 1.247 . S
C70 O74 1.258 . S
C71 O78 1.247 . S
C71 O79 1.258 . S
O72 C70 1.247 . S
O72 Zn73 2.028 . S
Zn73 O72 2.028 . S
Zn73 O77 2.035 . S
Zn73 O79 2.035 . S
Zn73 O80 2.028 . S
O74 C70 1.258 . S
O74 Zn75 2.035 . S
Zn75 O74 2.035 . S
Zn75 O76 2.028 . S
Zn75 O78 2.028 . S
Zn75 O81 2.035 . S
O76 Zn75 2.028 . S
O76 C82 1.247 . S
O77 Zn73 2.035 . S
O77 C82 1.258 . S
O78 C71 1.247 . S
O78 Zn75 2.028 . S
O79 C71 1.258 . S
O79 Zn73 2.035 . S
O80 Zn73 2.028 . S
O80 C83 1.247 . S
O81 Zn75 2.035 . S
O81 C83 1.258 . S
C82 O76 1.247 . S
C82 O77 1.258 . S
C83 O80 1.247 . S
C83 O81 1.258 . S
C84 O86 1.247 . S
C84 O88 1.258 . S
C85 O92 1.247 . S
C85 O93 1.258 . S
O86 C84 1.247 . S
O86 Zn87 2.028 . S
Zn87 O86 2.028 . S
Zn87 O91 2.035 . S
Zn87 O93 2.035 . S
Zn87 O94 2.028 . S
O88 C84 1.258 . S
O88 Zn89 2.035 . S
Zn89 O88 2.035 . S
Zn89 O90 2.028 . S
Zn89 O92 2.028 . S
Zn89 O95 2.035 . S
O90 Zn89 2.028 . S
O90 C96 1.247 . S
O91 Zn87 2.035 . S
O91 C96 1.258 . S
O92 C85 1.247 . S
O92 Zn89 2.028 . S
O93 C85 1.258 . S
O93 Zn87 2.035 . S
O94 Zn87 2.028 . S
O94 C97 1.247 . S
O95 Zn89 2.035 . S
O95 C97 1.258 . S
C96 O90 1.247 . S
C96 O91 1.258 . S
C97 O94 1.247 . S
C97 O95 1.258 . S
C98 O100 1.247 . S
C98 O102 1.258 . S
C99 O106 1.247 . S
C99 O107 1.258 . S
O100 C98 1.247 . S
O100 Zn101 2.028 . S
Zn101 O100 2.028 . S
Zn101 O105 2.035 . S
Zn101 O107 2.035 . S
Zn101 O108 2.028 . S
O102 C98 1.258 . S
O102 Zn103 2.035 . S
Zn103 O102 2.035 . S
Zn103 O104 2.028 . S
Zn103 O106 2.028 . S
Zn103 O109 2.035 . S
O104 Zn103 2.028 . S
O104 C110 1.247 . S
O105 Zn101 2.035 . S
O105 C110 1.258 . S
O106 C99 1.247 . S
O106 Zn103 2.028 . S
O107 C99 1.258 . S
O107 Zn101 2.035 . S
O108 Zn101 2.028 . S
O108 C111 1.247 . S
O109 Zn103 2.035 . S
O109 C111 1.258 . S
C110 O104 1.247 . S
C110 O105 1.258 . S
C111 O108 1.247 . S
C111 O109 1.258 . S
C112 O114 1.247 . S
C112 O116 1.258 . S
C113 O120 1.247 . S
C113 O121 1.258 . S
O114 C112 1.247 . S
O114 Zn115 2.028 . S
Zn115 O114 2.028 . S
Zn115 O119 2.035 . S
Zn115 O121 2.035 . S
Zn115 O122 2.028 . S
O116 C112 1.258 . S
O116 Zn117 2.035 . S
Zn117 O116 2.035 . S
Zn117 O118 2.028 . S
Zn117 O120 2.028 . S
Zn117 O123 2.035 . S
O118 Zn117 2.028 . S
O118 C124 1.247 . S
O119 Zn115 2.035 . S
O119 C124 1.258 . S
O120 C113 1.247 . S
O120 Zn117 2.028 . S
O121 C113 1.258 . S
O121 Zn115 2.035 . S
O122 Zn115 2.028 . S
O122 C125 1.247 . S
O123 Zn117 2.035 . S
O123 C125 1.258 . S
C124 O118 1.247 . S
C124 O119 1.258 . S
C125 O122 1.247 . S
C125 O123 1.258 . S
C126 O128 1.247 . S
C126 O130 1.258 . S
C127 O134 1.247 . S
C127 O135 1.258 . S
O128 C126 1.247 . S
O128 Zn129 2.028 . S
Zn129 O128 2.028 . S
Zn129 O133 2.035 . S
Zn129 O135 2.035 . S
Zn129 O136 2.028 . S
O130 C126 1.258 . S
O130 Zn131 2.035 . S
Zn131 O130 2.035 . S
Zn131 O132 2.028 . S
Zn131 O134 2.028 . S
Zn131 O137 2.035 . S
O132 Zn131 2.028 . S
O132 C138 1.247 . S
O133 Zn129 2.035 . S
O133 C138 1.258 . S
O134 C127 1.247 . S
O134 Zn131 2.028 . S
O135 C127 1.258 . S
O135 Zn129 2.035 . S
O136 Zn129 2.028 . S
O136 C139 1.247 . S
O137 Zn131 2.035 . S
O137 C139 1.258 . S
C138 O132 1.247 . S
C138 O133 1.258 . S
C139 O136 1.247 . S
C139 O137 1.258 . S
C140 O142 1.247 . S
C140 O144 1.258 . S
C141 O148 1.247 . S
C141 O149 1.258 . S
O142 C140 1.247 . S
O142 Zn143 2.028 . S
Zn143 O142 2.028 . S
Zn143 O147 2.035 . S
Zn143 O149 2.035 . S
Zn143 O150 2.028 . S
O144 C140 1.258 . S
O144 Zn145 2.035 . S
Zn145 O144 2.035 . S
Zn145 O146 2.028 . S
Zn145 O148 2.028 . S
Zn145 O151 2.035 . S
O146 Zn145 2.028 . S
O146 C152 1.247 . S
O147 Zn143 2.035 . S
O147 C152 1.258 . S
O148 C141 1.247 . S
O148 Zn145 2.028 . S
O149 C141 1.258 . S
O149 Zn143 2.035 . S
O150 Zn143 2.028 . S
O150 C153 1.247 . S
O151 Zn145 2.035 . S
O151 C153 1.258 . S
C152 O146 1.247 . S
C152 O147 1.258 . S
C153 O150 1.247 . S
C153 O151 1.258 . S
C154 O156 1.247 . S
C154 O158 1.258 . S
C155 O162 1.247 . S
C155 O163 1.258 . S
O156 C154 1.247 . S
O156 Zn157 2.028 . S
Zn157 O156 2.028 . S
Zn157 O161 2.035 . S
Zn157 O163 2.035 . S
Zn157 O164 2.028 . S
O158 C154 1.258 . S
O158 Zn159 2.035 . S
Zn159 O158 2.035 . S
Zn159 O160 2.028 . S
Zn159 O162 2.028 . S
Zn159 O165 2.035 . S
O160 Zn159 2.028 . S
O160 C166 1.247 . S
O161 Zn157 2.035 . S
O161 C166 1.258 . S
O162 C155 1.247 . S
O162 Zn159 2.028 . S
O163 C155 1.258 . S
O163 Zn157 2.035 . S
O164 Zn157 2.028 . S
O164 C167 1.247 . S
O165 Zn159 2.035 . S
O165 C167 1.258 . S
C166 O160 1.247 . S
C166 O161 1.258 . S
C167 O164 1.247 . S
C167 O165 1.258 . S
C168 O170 1.247 . S
C168 O172 1.258 . S
C169 O176 1.247 . S
C169 O177 1.258 . S
O170 C168 1.247 . S
O170 Zn171 2.028 . S
Zn171 O170 2.028 . S
Zn171 O175 2.035 . S
Zn171 O177 2.035 . S
Zn171 O178 2.028 . S
O172 C168 1.258 . S
O172 Zn173 2.035 . S
Zn173 O172 2.035 . S
Zn173 O174 2.028 . S
Zn173 O176 2.028 . S
Zn173 O179 2.035 . S
O174 Zn173 2.028 . S
O174 C180 1.247 . S
O175 Zn171 2.035 . S
O175 C180 1.258 . S
O176 C169 1.247 . S
O176 Zn173 2.028 . S
O177 C169 1.258 . S
O177 Zn171 2.035 . S
O178 Zn171 2.028 . S
O178 C181 1.247 . S
O179 Zn173 2.035 . S
O179 C181 1.258 . S
C180 O174 1.247 . S
C180 O175 1.258 . S
C181 O178 1.247 . S
C181 O179 1.258 . S
C182 O184 1.247 . S
C182 O186 1.258 . S
C183 O190 1.247 . S
C183 O191 1.258 . S
O184 C182 1.247 . S
O184 Zn185 2.028 . S
Zn185 O184 2.028 . S
Zn185 O189 2.035 . S
Zn185 O191 2.035 . S
Zn185 O192 2.028 . S
O186 C182 1.258 . S
O186 Zn187 2.035 . S
Zn187 O186 2.035 . S
Zn187 O188 2.028 . S
Zn187 O190 2.028 . S
Zn187 O193 2.035 . S
O188 Zn187 2.028 . S
O188 C194 1.247 . S
O189 Zn185 2.035 . S
O189 C194 1.258 . S
O190 C183 1.247 . S
O190 Zn187 2.028 . S
O191 C183 1.258 . S
O191 Zn185 2.035 . S
O192 Zn185 2.028 . S
O192 C195 1.247 . S
O193 Zn187 2.035 . S
O193 C195 1.258 . S
C194 O188 1.247 . S
C194 O189 1.258 . S
C195 O192 1.247 . S
C195 O193 1.258 . S
C196 O198 1.247 . S
C196 O200 1.258 . S
C197 O204 1.247 . S
C197 O205 1.258 . S
O198 C196 1.247 . S
O198 Zn199 2.028 . S
Zn199 O198 2.028 . S
Zn199 O203 2.035 . S
Zn199 O205 2.035 . S
Zn199 O206 2.028 . S
O200 C196 1.258 . S
O200 Zn201 2.035 . S
Zn201 O200 2.035 . S
Zn201 O202 2.028 . S
Zn201 O204 2.028 . S
Zn201 O207 2.035 . S
O202 Zn201 2.028 . S
O202 C208 1.247 . S
O203 Zn199 2.035 . S
O203 C208 1.258 . S
O204 C197 1.247 . S
O204 Zn201 2.028 . S
O205 C197 1.258 . S
O205 Zn199 2.035 . S
O206 Zn199 2.028 . S
O206 C209 1.247 . S
O207 Zn201 2.035 . S
O207 C209 1.258 . S
C208 O202 1.247 . S
C208 O203 1.258 . S
C209 O206 1.247 . S
C209 O207 1.258 . S
C210 O212 1.247 . S
C210 O214 1.258 . S
C211 O218 1.247 . S
C211 O219 1.258 . S
O212 C210 1.247 . S
O212 Zn213 2.028 . S
Zn213 O212 2.028 . S
Zn213 O217 2.035 . S
Zn213 O219 2.035 . S
Zn213 O220 2.028 . S
O214 C210 1.258 . S
O214 Zn215 2.035 . S
Zn215 O214 2.035 . S
Zn215 O216 2.028 . S
Zn215 O218 2.028 . S
Zn215 O221 2.035 . S
O216 Zn215 2.028 . S
O216 C222 1.247 . S
O217 Zn213 2.035 . S
O217 C222 1.258 . S
O218 C211 1.247 . S
O218 Zn215 2.028 . S
O219 C211 1.258 . S
O219 Zn213 2.035 . S
O220 Zn213 2.028 . S
O220 C223 1.247 . S
O221 Zn215 2.035 . S
O221 C223 1.258 . S
C222 O216 1.247 . S
C222 O217 1.258 . S
C223 O220 1.247 . S
C223 O221 1.258 . S
C224 C225 1.363 . S
C224 C230 1.379 . S
C224 N232 1.356 . S
C225 C224 1.363 . S
C225 C231 1.363 . S
C226 C227 1.363 . S
C226 C231 1.379 . S
C226 N233 1.356 . S
C227 C226 1.363 . S
C227 C230 1.363 . S
N228 C230 1.356 . S
N228 H240 0.984 1_545 S
N228 H241 0.985 . S
N229 C231 1.356 . S
N229 H234 0.984 . S
N229 H235 0.985 . S
C230 C224 1.379 . S
C230 C227 1.363 . S
C230 N228 1.356 . S
C231 C225 1.363 . S
C231 C226 1.379 . S
C231 N229 1.356 . S
N232 C224 1.356 . S
N232 H238 0.984 1_545 S
N232 H239 0.984 . S
N233 C226 1.356 . S
N233 H236 0.984 . S
N233 H237 0.985 . S
H234 N229 0.984 . S
H235 N229 0.985 . S
H236 N233 0.984 . S
H237 N233 0.985 . S
H238 N232 0.984 1_565 S
H239 N232 0.984 . S
H240 N228 0.984 1_565 S
H241 N228 0.985 . S
C242 C243 1.363 . S
C242 C248 1.379 . S
C242 N250 1.356 . S
C243 C242 1.363 . S
C243 C249 1.363 . S
C244 C245 1.363 . S
C244 C249 1.379 . S
C244 N251 1.356 . S
C245 C244 1.363 . S
C245 C248 1.363 . S
N246 C248 1.356 . S
N246 H258 0.984 1_565 S
N246 H259 0.985 . S
N247 C249 1.356 . S
N247 H252 0.984 . S
N247 H253 0.985 . S
C248 C242 1.379 . S
C248 C245 1.363 . S
C248 N246 1.356 . S
C249 C243 1.363 . S
C249 C244 1.379 . S
C249 N247 1.356 . S
N250 C242 1.356 . S
N250 H256 0.984 1_565 S
N250 H257 0.984 . S
N251 C244 1.356 . S
N251 H254 0.984 . S
N251 H255 0.985 . S
H252 N247 0.984 . S
H253 N247 0.985 . S
H254 N251 0.984 . S
H255 N251 0.985 . S
H256 N250 0.984 1_545 S
H257 N250 0.984 . S
H258 N246 0.984 1_545 S
H259 N246 0.985 . S
C260 C261 1.363 . S
C260 C266 1.379 1_554 S
C260 N268 1.356 . S
C261 C260 1.363 . S
C261 C267 1.363 . S
C262 C263 1.363 . S
C262 C267 1.379 1_556 S
C262 N269 1.356 . S
C263 C262 1.363 . S
C263 C266 1.363 . S
N264 C266 1.356 . S
N264 H276 0.984 . S
N264 H277 0.985 . S
N265 C267 1.356 . S
N265 H270 0.984 . S
N265 H271 0.985 1_565 S
C266 C260 1.379 1_556 S
C266 C263 1.363 . S
C266 N264 1.356 . S
C267 C261 1.363 . S
C267 C262 1.379 1_554 S
C267 N265 1.356 . S
N268 C260 1.356 . S
N268 H274 0.984 . S
N268 H275 0.984 . S
N269 C262 1.356 . S
N269 H272 0.984 . S
N269 H273 0.985 1_565 S
H270 N265 0.984 . S
H271 N265 0.985 1_545 S
H272 N269 0.984 . S
H273 N269 0.985 1_545 S
H274 N268 0.984 . S
H275 N268 0.984 . S
H276 N264 0.984 . S
H277 N264 0.985 . S
C278 C279 1.363 . S
C278 C284 1.379 1_556 S
C278 N286 1.356 . S
C279 C278 1.363 . S
C279 C285 1.363 . S
C280 C281 1.363 . S
C280 C285 1.379 1_554 S
C280 N287 1.356 . S
C281 C280 1.363 . S
C281 C284 1.363 . S
N282 C284 1.356 . S
N282 H294 0.984 1_545 S
N282 H295 0.985 . S
N283 C285 1.356 . S
N283 H288 0.984 . S
N283 H289 0.985 . S
C284 C278 1.379 1_554 S
C284 C281 1.363 . S
C284 N282 1.356 . S
C285 C279 1.363 . S
C285 C280 1.379 1_556 S
C285 N283 1.356 . S
N286 C278 1.356 . S
N286 H292 0.984 1_545 S
N286 H293 0.984 . S
N287 C280 1.356 . S
N287 H290 0.984 . S
N287 H291 0.985 . S
H288 N283 0.984 . S
H289 N283 0.985 . S
H290 N287 0.984 . S
H291 N287 0.985 . S
H292 N286 0.984 1_565 S
H293 N286 0.984 . S
H294 N282 0.984 1_565 S
H295 N282 0.985 . S
C296 C297 1.363 . S
C296 C302 1.379 . S
C296 N304 1.356 . S
C297 C296 1.363 . S
C297 C303 1.363 . S
C298 C299 1.363 . S
C298 C303 1.379 . S
C298 N305 1.356 . S
C299 C298 1.363 . S
C299 C302 1.363 . S
N300 C302 1.356 . S
N300 H312 0.984 . S
N300 H313 0.985 . S
N301 C303 1.356 . S
N301 H306 0.984 . S
N301 H307 0.985 . S
C302 C296 1.379 . S
C302 C299 1.363 . S
C302 N300 1.356 . S
C303 C297 1.363 . S
C303 C298 1.379 . S
C303 N301 1.356 . S
N304 C296 1.356 . S
N304 H310 0.984 . S
N304 H311 0.984 . S
N305 C298 1.356 . S
N305 H308 0.984 . S
N305 H309 0.985 . S
H306 N301 0.984 . S
H307 N301 0.985 . S
H308 N305 0.984 . S
H309 N305 0.985 . S
H310 N304 0.984 . S
H311 N304 0.984 . S
H312 N300 0.984 . S
H313 N300 0.985 . S
C314 C315 1.363 . S
C314 C320 1.379 . S
C314 N322 1.356 . S
C315 C314 1.363 . S
C315 C321 1.363 . S
C316 C317 1.363 . S
C316 C321 1.379 . S
C316 N323 1.356 . S
C317 C316 1.363 . S
C317 C320 1.363 . S
N318 C320 1.356 . S
N318 H330 0.984 . S
N318 H331 0.985 . S
N319 C321 1.356 . S
N319 H324 0.984 . S
N319 H325 0.985 . S
C320 C314 1.379 . S
C320 C317 1.363 . S
C320 N318 1.356 . S
C321 C315 1.363 . S
C321 C316 1.379 . S
C321 N319 1.356 . S
N322 C314 1.356 . S
N322 H328 0.984 . S
N322 H329 0.984 . S
N323 C316 1.356 . S
N323 H326 0.984 . S
N323 H327 0.985 . S
H324 N319 0.984 . S
H325 N319 0.985 . S
H326 N323 0.984 . S
H327 N323 0.985 . S
H328 N322 0.984 . S
H329 N322 0.984 . S
H330 N318 0.984 . S
H331 N318 0.985 . S
C332 C333 1.363 . S
C332 C338 1.379 1_556 S
C332 N340 1.356 . S
C333 C332 1.363 . S
C333 C339 1.363 . S
C334 C335 1.363 . S
C334 C339 1.379 1_554 S
C334 N341 1.356 . S
C335 C334 1.363 . S
C335 C338 1.363 . S
N336 C338 1.356 . S
N336 H348 0.984 . S
N336 H349 0.985 . S
N337 C339 1.356 . S
N337 H342 0.984 . S
N337 H343 0.985 . S
C338 C332 1.379 1_554 S
C338 C335 1.363 . S
C338 N336 1.356 . S
C339 C333 1.363 . S
C339 C334 1.379 1_556 S
C339 N337 1.356 . S
N340 C332 1.356 . S
N340 H346 0.984 . S
N340 H347 0.984 . S
N341 C334 1.356 . S
N341 H344 0.984 . S
N341 H345 0.985 . S
H342 N337 0.984 . S
H343 N337 0.985 . S
H344 N341 0.984 . S
H345 N341 0.985 . S
H346 N340 0.984 . S
H347 N340 0.984 . S
H348 N336 0.984 . S
H349 N336 0.985 . S
C350 C351 1.363 . S
C350 C356 1.379 1_554 S
C350 N358 1.356 . S
C351 C350 1.363 . S
C351 C357 1.363 . S
C352 C353 1.363 . S
C352 C357 1.379 1_556 S
C352 N359 1.356 . S
C353 C352 1.363 . S
C353 C356 1.363 . S
N354 C356 1.356 . S
N354 H366 0.984 . S
N354 H367 0.985 . S
N355 C357 1.356 . S
N355 H360 0.984 . S
N355 H361 0.985 . S
C356 C350 1.379 1_556 S
C356 C353 1.363 . S
C356 N354 1.356 . S
C357 C351 1.363 . S
C357 C352 1.379 1_554 S
C357 N355 1.356 . S
N358 C350 1.356 . S
N358 H364 0.984 . S
N358 H365 0.984 . S
N359 C352 1.356 . S
N359 H362 0.984 . S
N359 H363 0.985 . S
H360 N355 0.984 . S
H361 N355 0.985 . S
H362 N359 0.984 . S
H363 N359 0.985 . S
H364 N358 0.984 . S
H365 N358 0.984 . S
H366 N354 0.984 . S
H367 N354 0.985 . S
C368 C369 1.363 1_545 S
C368 C374 1.379 . S
C368 N376 1.356 . S
C369 C368 1.363 1_565 S
C369 C375 1.363 . S
C370 C371 1.363 1_565 S
C370 C375 1.379 . S
C370 N377 1.356 . S
C371 C370 1.363 1_545 S
C371 C374 1.363 . S
N372 C374 1.356 . S
N372 H384 0.984 . S
N372 H385 0.985 . S
N373 C375 1.356 . S
N373 H378 0.984 . S
N373 H379 0.985 . S
C374 C368 1.379 . S
C374 C371 1.363 . S
C374 N372 1.356 . S
C375 C369 1.363 . S
C375 C370 1.379 . S
C375 N373 1.356 . S
N376 C368 1.356 . S
N376 H382 0.984 . S
N376 H383 0.984 . S
N377 C370 1.356 . S
N377 H380 0.984 . S
N377 H381 0.985 . S
H378 N373 0.984 . S
H379 N373 0.985 . S
H380 N377 0.984 . S
H381 N377 0.985 . S
H382 N376 0.984 . S
H383 N376 0.984 . S
H384 N372 0.984 . S
H385 N372 0.985 . S
C386 C387 1.363 1_545 S
C386 C392 1.379 . S
C386 N394 1.356 . S
C387 C386 1.363 1_565 S
C387 C393 1.363 . S
C388 C389 1.363 1_565 S
C388 C393 1.379 . S
C388 N395 1.356 . S
C389 C388 1.363 1_545 S
C389 C392 1.363 . S
N390 C392 1.356 . S
N390 H402 0.984 . S
N390 H403 0.985 . S
N391 C393 1.356 . S
N391 H396 0.984 . S
N391 H397 0.985 . S
C392 C386 1.379 . S
C392 C389 1.363 . S
C392 N390 1.356 . S
C393 C387 1.363 . S
C393 C388 1.379 . S
C393 N391 1.356 . S
N394 C386 1.356 . S
N394 H400 0.984 . S
N394 H401 0.984 . S
N395 C388 1.356 . S
N395 H398 0.984 . S
N395 H399 0.985 . S
H396 N391 0.984 . S
H397 N391 0.985 . S
H398 N395 0.984 . S
H399 N395 0.985 . S
H400 N394 0.984 . S
H401 N394 0.984 . S
H402 N390 0.984 . S
H403 N390 0.985 . S
C404 C405 1.363 1_545 S
C404 C410 1.379 . S
C404 N412 1.356 . S
C405 C404 1.363 1_565 S
C405 C411 1.363 . S
C406 C407 1.363 1_565 S
C406 C411 1.379 . S
C406 N413 1.356 . S
C407 C406 1.363 1_545 S
C407 C410 1.363 . S
N408 C410 1.356 . S
N408 H420 0.984 . S
N408 H421 0.985 . S
N409 C411 1.356 . S
N409 H414 0.984 . S
N409 H415 0.985 . S
C410 C404 1.379 . S
C410 C407 1.363 . S
C410 N408 1.356 . S
C411 C405 1.363 . S
C411 C406 1.379 . S
C411 N409 1.356 . S
N412 C404 1.356 . S
N412 H418 0.984 . S
N412 H419 0.984 . S
N413 C406 1.356 . S
N413 H416 0.984 . S
N413 H417 0.985 . S
H414 N409 0.984 . S
H415 N409 0.985 . S
H416 N413 0.984 . S
H417 N413 0.985 . S
H418 N412 0.984 . S
H419 N412 0.984 . S
H420 N408 0.984 . S
H421 N408 0.985 . S
C422 C423 1.363 1_565 S
C422 C428 1.379 . S
C422 N430 1.356 . S
C423 C422 1.363 1_545 S
C423 C429 1.363 . S
C424 C425 1.363 1_545 S
C424 C429 1.379 . S
C424 N431 1.356 . S
C425 C424 1.363 1_565 S
C425 C428 1.363 . S
N426 C428 1.356 . S
N426 H438 0.984 . S
N426 H439 0.985 . S
N427 C429 1.356 . S
N427 H432 0.984 . S
N427 H433 0.985 . S
C428 C422 1.379 . S
C428 C425 1.363 . S
C428 N426 1.356 . S
C429 C423 1.363 . S
C429 C424 1.379 . S
C429 N427 1.356 . S
N430 C422 1.356 . S
N430 H436 0.984 . S
N430 H437 0.984 . S
N431 C424 1.356 . S
N431 H434 0.984 . S
N431 H435 0.985 . S
H432 N427 0.984 . S
H433 N427 0.985 . S
H434 N431 0.984 . S
H435 N431 0.985 . S
H436 N430 0.984 . S
H437 N430 0.984 . S
H438 N426 0.984 . S
H439 N426 0.985 . S
C440 C441 1.363 . S
C440 C446 1.379 1_655 S
C440 N448 1.356 . S
C441 C440 1.363 . S
C441 C447 1.363 . S
C442 C443 1.363 . S
C442 C447 1.379 1_455 S
C442 N449 1.356 . S
C443 C442 1.363 . S
C443 C446 1.363 . S
N444 C446 1.356 . S
N444 H456 0.984 . S
N444 H457 0.985 . S
N445 C447 1.356 . S
N445 H450 0.984 . S
N445 H451 0.985 . S
C446 C440 1.379 1_455 S
C446 C443 1.363 . S
C446 N444 1.356 . S
C447 C441 1.363 . S
C447 C442 1.379 1_655 S
C447 N445 1.356 . S
N448 C440 1.356 . S
N448 H454 0.984 . S
N448 H455 0.984 . S
N449 C442 1.356 . S
N449 H452 0.984 . S
N449 H453 0.985 . S
H450 N445 0.984 . S
H451 N445 0.985 . S
H452 N449 0.984 . S
H453 N449 0.985 . S
H454 N448 0.984 . S
H455 N448 0.984 . S
H456 N444 0.984 . S
H457 N444 0.985 . S
C458 C459 1.363 . S
C458 C464 1.379 1_455 S
C458 N466 1.356 . S
C459 C458 1.363 . S
C459 C465 1.363 . S
C460 C461 1.363 . S
C460 C465 1.379 1_655 S
C460 N467 1.356 . S
C461 C460 1.363 . S
C461 C464 1.363 . S
N462 C464 1.356 . S
N462 H474 0.984 . S
N462 H475 0.985 . S
N463 C465 1.356 . S
N463 H468 0.984 . S
N463 H469 0.985 . S
C464 C458 1.379 1_655 S
C464 C461 1.363 . S
C464 N462 1.356 . S
C465 C459 1.363 . S
C465 C460 1.379 1_455 S
C465 N463 1.356 . S
N466 C458 1.356 . S
N466 H472 0.984 . S
N466 H473 0.984 . S
N467 C460 1.356 . S
N467 H470 0.984 . S
N467 H471 0.985 . S
H468 N463 0.984 . S
H469 N463 0.985 . S
H470 N467 0.984 . S
H471 N467 0.985 . S
H472 N466 0.984 . S
H473 N466 0.984 . S
H474 N462 0.984 . S
H475 N462 0.985 . S
C476 C477 1.363 . S
C476 C482 1.379 1_655 S
C476 N484 1.356 . S
C477 C476 1.363 . S
C477 C483 1.363 . S
C478 C479 1.363 . S
C478 C483 1.379 1_455 S
C478 N485 1.356 . S
C479 C478 1.363 . S
C479 C482 1.363 . S
N480 C482 1.356 . S
N480 H492 0.984 . S
N480 H493 0.985 . S
N481 C483 1.356 . S
N481 H486 0.984 . S
N481 H487 0.985 . S
C482 C476 1.379 1_455 S
C482 C479 1.363 . S
C482 N480 1.356 . S
C483 C477 1.363 . S
C483 C478 1.379 1_655 S
C483 N481 1.356 . S
N484 C476 1.356 . S
N484 H490 0.984 . S
N484 H491 0.984 . S
N485 C478 1.356 . S
N485 H488 0.984 . S
N485 H489 0.985 . S
H486 N481 0.984 . S
H487 N481 0.985 . S
H488 N485 0.984 . S
H489 N485 0.985 . S
H490 N484 0.984 . S
H491 N484 0.984 . S
H492 N480 0.984 . S
H493 N480 0.985 . S
C494 C495 1.363 . S
C494 C500 1.379 1_455 S
C494 N502 1.356 . S
C495 C494 1.363 . S
C495 C501 1.363 . S
C496 C497 1.363 . S
C496 C501 1.379 1_655 S
C496 N503 1.356 . S
C497 C496 1.363 . S
C497 C500 1.363 . S
N498 C500 1.356 . S
N498 H510 0.984 . S
N498 H511 0.985 . S
N499 C501 1.356 . S
N499 H504 0.984 . S
N499 H505 0.985 . S
C500 C494 1.379 1_655 S
C500 C497 1.363 . S
C500 N498 1.356 . S
C501 C495 1.363 . S
C501 C496 1.379 1_455 S
C501 N499 1.356 . S
N502 C494 1.356 . S
N502 H508 0.984 . S
N502 H509 0.984 . S
N503 C496 1.356 . S
N503 H506 0.984 . S
N503 H507 0.985 . S
H504 N499 0.984 . S
H505 N499 0.985 . S
H506 N503 0.984 . S
H507 N503 0.985 . S
H508 N502 0.984 . S
H509 N502 0.984 . S
H510 N498 0.984 . S
H511 N498 0.985 . S
C512 C513 1.363 . S
C512 C518 1.379 . S
C512 N520 1.356 . S
C513 C512 1.363 . S
C513 C519 1.363 . S
C514 C515 1.363 . S
C514 C519 1.379 . S
C514 N521 1.356 . S
C515 C514 1.363 . S
C515 C518 1.363 . S
N516 C518 1.356 . S
N516 H528 0.984 . S
N516 H529 0.985 . S
N517 C519 1.356 . S
N517 H522 0.984 . S
N517 H523 0.985 . S
C518 C512 1.379 . S
C518 C515 1.363 . S
C518 N516 1.356 . S
C519 C513 1.363 . S
C519 C514 1.379 . S
C519 N517 1.356 . S
N520 C512 1.356 . S
N520 H526 0.984 . S
N520 H527 0.984 . S
N521 C514 1.356 . S
N521 H524 0.984 . S
N521 H525 0.985 . S
H522 N517 0.984 . S
H523 N517 0.985 . S
H524 N521 0.984 . S
H525 N521 0.985 . S
H526 N520 0.984 . S
H527 N520 0.984 . S
H528 N516 0.984 . S
H529 N516 0.985 . S
C530 C531 1.363 . S
C530 C536 1.379 . S
C530 N538 1.356 . S
C531 C530 1.363 . S
C531 C537 1.363 . S
C532 C533 1.363 . S
C532 C537 1.379 . S
C532 N539 1.356 . S
C533 C532 1.363 . S
C533 C536 1.363 . S
N534 C536 1.356 . S
N534 H546 0.984 . S
N534 H547 0.985 . S
N535 C537 1.356 . S
N535 H540 0.984 . S
N535 H541 0.985 . S
C536 C530 1.379 . S
C536 C533 1.363 . S
C536 N534 1.356 . S
C537 C531 1.363 . S
C537 C532 1.379 . S
C537 N535 1.356 . S
N538 C530 1.356 . S
N538 H544 0.984 . S
N538 H545 0.984 . S
N539 C532 1.356 . S
N539 H542 0.984 . S
N539 H543 0.985 . S
H540 N535 0.984 . S
H541 N535 0.985 . S
H542 N539 0.984 . S
H543 N539 0.985 . S
H544 N538 0.984 . S
H545 N538 0.984 . S
H546 N534 0.984 . S
H547 N534 0.985 . S
C548 C549 1.363 . S
C548 C554 1.379 . S
C548 N556 1.356 . S
C549 C548 1.363 . S
C549 C555 1.363 . S
C550 C551 1.363 . S
C550 C555 1.379 . S
C550 N557 1.356 . S
C551 C550 1.363 . S
C551 C554 1.363 . S
N552 C554 1.356 . S
N552 H564 0.984 . S
N552 H565 0.985 . S
N553 C555 1.356 . S
N553 H558 0.984 . S
N553 H559 0.985 . S
C554 C548 1.379 . S
C554 C551 1.363 . S
C554 N552 1.356 . S
C555 C549 1.363 . S
C555 C550 1.379 . S
C555 N553 1.356 . S
N556 C548 1.356 . S
N556 H562 0.984 . S
N556 H563 0.984 . S
N557 C550 1.356 . S
N557 H560 0.984 . S
N557 H561 0.985 . S
H558 N553 0.984 . S
H559 N553 0.985 . S
H560 N557 0.984 . S
H561 N557 0.985 . S
H562 N556 0.984 . S
H563 N556 0.984 . S
H564 N552 0.984 . S
H565 N552 0.985 . S
C566 C567 1.363 . S
C566 C572 1.379 . S
C566 N574 1.356 . S
C567 C566 1.363 . S
C567 C573 1.363 . S
C568 C569 1.363 . S
C568 C573 1.379 . S
C568 N575 1.356 . S
C569 C568 1.363 . S
C569 C572 1.363 . S
N570 C572 1.356 . S
N570 H582 0.984 . S
N570 H583 0.985 . S
N571 C573 1.356 . S
N571 H576 0.984 . S
N571 H577 0.985 . S
C572 C566 1.379 . S
C572 C569 1.363 . S
C572 N570 1.356 . S
C573 C567 1.363 . S
C573 C568 1.379 . S
C573 N571 1.356 . S
N574 C566 1.356 . S
N574 H580 0.984 . S
N574 H581 0.984 . S
N575 C568 1.356 . S
N575 H578 0.984 . S
N575 H579 0.985 . S
H576 N571 0.984 . S
H577 N571 0.985 . S
H578 N575 0.984 . S
H579 N575 0.985 . S
H580 N574 0.984 . S
H581 N574 0.984 . S
H582 N570 0.984 . S
H583 N570 0.985 . S
C584 C585 1.363 . S
C584 C590 1.379 . S
C584 N592 1.356 . S
C585 C584 1.363 . S
C585 C591 1.363 . S
C586 C587 1.363 . S
C586 C591 1.379 . S
C586 N593 1.356 . S
C587 C586 1.363 . S
C587 C590 1.363 . S
N588 C590 1.356 . S
N588 H600 0.984 . S
N588 H601 0.985 . S
N589 C591 1.356 . S
N589 H594 0.984 . S
N589 H595 0.985 . S
C590 C584 1.379 . S
C590 C587 1.363 . S
C590 N588 1.356 . S
C591 C585 1.363 . S
C591 C586 1.379 . S
C591 N589 1.356 . S
N592 C584 1.356 . S
N592 H598 0.984 . S
N592 H599 0.984 . S
N593 C586 1.356 . S
N593 H596 0.984 . S
N593 H597 0.985 . S
H594 N589 0.984 . S
H595 N589 0.985 . S
H596 N593 0.984 . S
H597 N593 0.985 . S
H598 N592 0.984 . S
H599 N592 0.984 . S
H600 N588 0.984 . S
H601 N588 0.985 . S
C602 C603 1.363 . S
C602 C608 1.379 . S
C602 N610 1.356 . S
C603 C602 1.363 . S
C603 C609 1.363 . S
C604 C605 1.363 . S
C604 C609 1.379 . S
C604 N611 1.356 . S
C605 C604 1.363 . S
C605 C608 1.363 . S
N606 C608 1.356 . S
N606 H618 0.984 . S
N606 H619 0.985 . S
N607 C609 1.356 . S
N607 H612 0.984 . S
N607 H613 0.985 . S
C608 C602 1.379 . S
C608 C605 1.363 . S
C608 N606 1.356 . S
C609 C603 1.363 . S
C609 C604 1.379 . S
C609 N607 1.356 . S
N610 C602 1.356 . S
N610 H616 0.984 . S
N610 H617 0.984 . S
N611 C604 1.356 . S
N611 H614 0.984 . S
N611 H615 0.985 . S
H612 N607 0.984 . S
H613 N607 0.985 . S
H614 N611 0.984 . S
H615 N611 0.985 . S
H616 N610 0.984 . S
H617 N610 0.984 . S
H618 N606 0.984 . S
H619 N606 0.985 . S
C620 C621 1.363 . S
C620 C626 1.379 . S
C620 N628 1.356 . S
C621 C620 1.363 . S
C621 C627 1.363 . S
C622 C623 1.363 . S
C622 C627 1.379 . S
C622 N629 1.356 . S
C623 C622 1.363 . S
C623 C626 1.363 . S
N624 C626 1.356 . S
N624 H636 0.984 . S
N624 H637 0.985 . S
N625 C627 1.356 . S
N625 H630 0.984 . S
N625 H631 0.985 . S
C626 C620 1.379 . S
C626 C623 1.363 . S
C626 N624 1.356 . S
C627 C621 1.363 . S
C627 C622 1.379 . S
C627 N625 1.356 . S
N628 C620 1.356 . S
N628 H634 0.984 . S
N628 H635 0.984 . S
N629 C622 1.356 . S
N629 H632 0.984 . S
N629 H633 0.985 . S
H630 N625 0.984 . S
H631 N625 0.985 . S
H632 N629 0.984 . S
H633 N629 0.985 . S
H634 N628 0.984 . S
H635 N628 0.984 . S
H636 N624 0.984 . S
H637 N624 0.985 . S
C638 C639 1.363 . S
C638 C644 1.379 . S
C638 N646 1.356 . S
C639 C638 1.363 . S
C639 C645 1.363 . S
C640 C641 1.363 . S
C640 C645 1.379 . S
C640 N647 1.356 . S
C641 C640 1.363 . S
C641 C644 1.363 . S
N642 C644 1.356 . S
N642 H654 0.984 . S
N642 H655 0.985 . S
N643 C645 1.356 . S
N643 H648 0.984 . S
N643 H649 0.985 . S
C644 C638 1.379 . S
C644 C641 1.363 . S
C644 N642 1.356 . S
C645 C639 1.363 . S
C645 C640 1.379 . S
C645 N643 1.356 . S
N646 C638 1.356 . S
N646 H652 0.984 . S
N646 H653 0.984 . S
N647 C640 1.356 . S
N647 H650 0.984 . S
N647 H651 0.985 . S
H648 N643 0.984 . S
H649 N643 0.985 . S
H650 N647 0.984 . S
H651 N647 0.985 . S
H652 N646 0.984 . S
H653 N646 0.984 . S
H654 N642 0.984 . S
H655 N642 0.985 . S
C656 C657 1.363 . S
C656 C662 1.379 . S
C656 N664 1.356 . S
C657 C656 1.363 . S
C657 C663 1.363 1_545 S
C658 C659 1.363 . S
C658 C663 1.379 . S
C658 N665 1.356 . S
C659 C658 1.363 . S
C659 C662 1.363 1_565 S
N660 C662 1.356 . S
N660 H672 0.984 . S
N660 H673 0.985 . S
N661 C663 1.356 . S
N661 H666 0.984 . S
N661 H667 0.985 . S
C662 C656 1.379 . S
C662 C659 1.363 1_545 S
C662 N660 1.356 . S
C663 C657 1.363 1_565 S
C663 C658 1.379 . S
C663 N661 1.356 . S
N664 C656 1.356 . S
N664 H670 0.984 . S
N664 H671 0.984 . S
N665 C658 1.356 . S
N665 H668 0.984 . S
N665 H669 0.985 . S
H666 N661 0.984 . S
H667 N661 0.985 . S
H668 N665 0.984 . S
H669 N665 0.985 . S
H670 N664 0.984 . S
H671 N664 0.984 . S
H672 N660 0.984 . S
H673 N660 0.985 . S
C674 C675 1.363 . S
C674 C680 1.379 . S
C674 N682 1.356 . S
C675 C674 1.363 . S
C675 C681 1.363 1_545 S
C676 C677 1.363 . S
C676 C681 1.379 . S
C676 N683 1.356 . S
C677 C676 1.363 . S
C677 C680 1.363 1_565 S
N678 C680 1.356 . S
N678 H690 0.984 . S
N678 H691 0.985 1_545 S
N679 C681 1.356 . S
N679 H684 0.984 1_565 S
N679 H685 0.985 . S
C680 C674 1.379 . S
C680 C677 1.363 1_545 S
C680 N678 1.356 . S
C681 C675 1.363 1_565 S
C681 C676 1.379 . S
C681 N679 1.356 . S
N682 C674 1.356 . S
N682 H688 0.984 . S
N682 H689 0.984 . S
N683 C676 1.356 . S
N683 H686 0.984 . S
N683 H687 0.985 . S
H684 N679 0.984 1_545 S
H685 N679 0.985 . S
H686 N683 0.984 . S
H687 N683 0.985 . S
H688 N682 0.984 . S
H689 N682 0.984 . S
H690 N678 0.984 . S
H691 N678 0.985 1_565 S
C692 C693 1.363 . S
C692 C698 1.379 . S
C692 N700 1.356 . S
C693 C692 1.363 . S
C693 C699 1.363 1_545 S
C694 C695 1.363 . S
C694 C699 1.379 . S
C694 N701 1.356 . S
C695 C694 1.363 . S
C695 C698 1.363 1_565 S
N696 C698 1.356 . S
N696 H708 0.984 . S
N696 H709 0.985 1_545 S
N697 C699 1.356 . S
N697 H702 0.984 1_565 S
N697 H703 0.985 . S
C698 C692 1.379 . S
C698 C695 1.363 1_545 S
C698 N696 1.356 . S
C699 C693 1.363 1_565 S
C699 C694 1.379 . S
C699 N697 1.356 . S
N700 C692 1.356 . S
N700 H706 0.984 . S
N700 H707 0.984 . S
N701 C694 1.356 . S
N701 H704 0.984 . S
N701 H705 0.985 . S
H702 N697 0.984 1_545 S
H703 N697 0.985 . S
H704 N701 0.984 . S
H705 N701 0.985 . S
H706 N700 0.984 . S
H707 N700 0.984 . S
H708 N696 0.984 . S
H709 N696 0.985 1_565 S
C710 C711 1.363 . S
C710 C716 1.379 . S
C710 N718 1.356 . S
C711 C710 1.363 . S
C711 C717 1.363 1_565 S
C712 C713 1.363 . S
C712 C717 1.379 . S
C712 N719 1.356 . S
C713 C712 1.363 . S
C713 C716 1.363 1_545 S
N714 C716 1.356 . S
N714 H726 0.984 . S
N714 H727 0.985 1_565 S
N715 C717 1.356 . S
N715 H720 0.984 1_545 S
N715 H721 0.985 . S
C716 C710 1.379 . S
C716 C713 1.363 1_565 S
C716 N714 1.356 . S
C717 C711 1.363 1_545 S
C717 C712 1.379 . S
C717 N715 1.356 . S
N718 C710 1.356 . S
N718 H724 0.984 . S
N718 H725 0.984 . S
N719 C712 1.356 . S
N719 H722 0.984 . S
N719 H723 0.985 . S
H720 N715 0.984 1_565 S
H721 N715 0.985 . S
H722 N719 0.984 . S
H723 N719 0.985 . S
H724 N718 0.984 . S
H725 N718 0.984 . S
H726 N714 0.984 . S
H727 N714 0.985 1_545 S
C728 C729 1.363 . S
C728 C734 1.379 . S
C728 N736 1.356 . S
C729 C728 1.363 . S
C729 C735 1.363 . S
C730 C731 1.363 . S
C730 C735 1.379 . S
C730 N737 1.356 . S
C731 C730 1.363 . S
C731 C734 1.363 . S
N732 C734 1.356 . S
N732 H744 0.984 . S
N732 H745 0.985 . S
N733 C735 1.356 . S
N733 H738 0.984 . S
N733 H739 0.985 . S
C734 C728 1.379 . S
C734 C731 1.363 . S
C734 N732 1.356 . S
C735 C729 1.363 . S
C735 C730 1.379 . S
C735 N733 1.356 . S
N736 C728 1.356 . S
N736 H742 0.984 . S
N736 H743 0.984 . S
N737 C730 1.356 . S
N737 H740 0.984 . S
N737 H741 0.985 . S
H738 N733 0.984 . S
H739 N733 0.985 . S
H740 N737 0.984 . S
H741 N737 0.985 . S
H742 N736 0.984 . S
H743 N736 0.984 . S
H744 N732 0.984 . S
H745 N732 0.985 . S
C746 C747 1.363 . S
C746 C752 1.379 . S
C746 N754 1.356 . S
C747 C746 1.363 . S
C747 C753 1.363 . S
C748 C749 1.363 . S
C748 C753 1.379 . S
C748 N755 1.356 . S
C749 C748 1.363 . S
C749 C752 1.363 . S
N750 C752 1.356 . S
N750 H762 0.984 . S
N750 H763 0.985 . S
N751 C753 1.356 . S
N751 H756 0.984 . S
N751 H757 0.985 . S
C752 C746 1.379 . S
C752 C749 1.363 . S
C752 N750 1.356 . S
C753 C747 1.363 . S
C753 C748 1.379 . S
C753 N751 1.356 . S
N754 C746 1.356 . S
N754 H760 0.984 . S
N754 H761 0.984 . S
N755 C748 1.356 . S
N755 H758 0.984 . S
N755 H759 0.985 . S
H756 N751 0.984 . S
H757 N751 0.985 . S
H758 N755 0.984 . S
H759 N755 0.985 . S
H760 N754 0.984 . S
H761 N754 0.984 . S
H762 N750 0.984 . S
H763 N750 0.985 . S
C764 C765 1.363 . S
C764 C770 1.379 . S
C764 N772 1.356 . S
C765 C764 1.363 . S
C765 C771 1.363 . S
C766 C767 1.363 . S
C766 C771 1.379 . S
C766 N773 1.356 . S
C767 C766 1.363 . S
C767 C770 1.363 . S
N768 C770 1.356 . S
N768 H780 0.984 . S
N768 H781 0.985 . S
N769 C771 1.356 . S
N769 H774 0.984 . S
N769 H775 0.985 . S
C770 C764 1.379 . S
C770 C767 1.363 . S
C770 N768 1.356 . S
C771 C765 1.363 . S
C771 C766 1.379 . S
C771 N769 1.356 . S
N772 C764 1.356 . S
N772 H778 0.984 . S
N772 H779 0.984 . S
N773 C766 1.356 . S
N773 H776 0.984 . S
N773 H777 0.985 . S
H774 N769 0.984 . S
H775 N769 0.985 . S
H776 N773 0.984 . S
H777 N773 0.985 . S
H778 N772 0.984 . S
H779 N772 0.984 . S
H780 N768 0.984 . S
H781 N768 0.985 . S
C782 C783 1.363 . S
C782 C788 1.379 . S
C782 N790 1.356 . S
C783 C782 1.363 . S
C783 C789 1.363 . S
C784 C785 1.363 . S
C784 C789 1.379 . S
C784 N791 1.356 . S
C785 C784 1.363 . S
C785 C788 1.363 . S
N786 C788 1.356 . S
N786 H798 0.984 . S
N786 H799 0.985 . S
N787 C789 1.356 . S
N787 H792 0.984 . S
N787 H793 0.985 . S
C788 C782 1.379 . S
C788 C785 1.363 . S
C788 N786 1.356 . S
C789 C783 1.363 . S
C789 C784 1.379 . S
C789 N787 1.356 . S
N790 C782 1.356 . S
N790 H796 0.984 . S
N790 H797 0.984 . S
N791 C784 1.356 . S
N791 H794 0.984 . S
N791 H795 0.985 . S
H792 N787 0.984 . S
H793 N787 0.985 . S
H794 N791 0.984 . S
H795 N791 0.985 . S
H796 N790 0.984 . S
H797 N790 0.984 . S
H798 N786 0.984 . S
H799 N786 0.985 . S
C225 C0 1.595 . S
C227 C70 1.594 . S
C243 C56 1.594 . S
C245 C27 1.594 . S
C261 C28 1.595 . S
C263 C98 1.594 . S
C279 C84 1.594 . S
C281 C43 1.594 . S
C297 C195 1.595 . S
C299 C112 1.595 . S
C315 C168 1.594 . S
C317 C126 1.594 . S
C333 C210 1.594 . S
C335 C140 1.595 . S
C351 C166 1.594 . S
C353 C196 1.594 . S
C369 C15 1.504 . S
C371 C12 1.504 . S
C387 C40 1.504 . S
C389 C55 1.504 . S
C405 C68 1.504 . S
C407 C82 1.504 . S
C423 C96 1.504 . S
C425 C110 1.504 . S
C441 C124 1.504 . S
C443 C138 1.504 . S
C459 C154 1.504 . S
C461 C152 1.504 . S
C477 C183 1.504 . S
C479 C180 1.504 . S
C495 C208 1.504 . S
C497 C222 1.504 . S
C513 C139 1.504 . S
C515 C13 1.504 . S
C531 C14 1.504 . S
C533 C125 1.504 . S
C549 C155 1.504 . S
C551 C41 1.504 . S
C567 C54 1.504 . S
C569 C153 1.504 . S
C585 C69 1.504 . S
C587 C182 1.504 . S
C603 C181 1.504 . S
C605 C83 1.504 . S
C621 C97 1.504 . S
C623 C223 1.504 . S
C639 C209 1.504 . S
C641 C111 1.504 . S
C657 C1 1.628 . S
C659 C29 1.628 . S
C675 C42 1.630 . S
C677 C26 1.630 . S
C693 C85 1.630 . S
C695 C57 1.630 . S
C711 C99 1.630 . S
C713 C71 1.630 . S
C729 C141 1.628 . S
C731 C113 1.628 . S
C747 C127 1.627 . S
C749 C167 1.627 . S
C765 C197 1.629 . S
C767 C169 1.629 . S
C783 C194 1.628 . S
C785 C211 1.630 . S
