# Generated by pormake.
# Topology upb, (4)-cn, num edge types: 1
# Building blocks:
#     Node 0, Type 0, BuildingBlock: GALJAG_clean_sbu_0, # of connection points: 4
#     Node 1, Type 0, BuildingBlock: GALJAG_clean_sbu_0, # of connection points: 4
#     Node 2, Type 0, BuildingBlock: GALJAG_clean_sbu_0, # of connection points: 4
#     Node 3, Type 0, BuildingBlock: GALJAG_clean_sbu_0, # of connection points: 4
#     Node 4, Type 0, BuildingBlock: GALJAG_clean_sbu_0, # of connection points: 4
#     Node 5, Type 0, BuildingBlock: GALJAG_clean_sbu_0, # of connection points: 4
#     Node 6, Type 0, BuildingBlock: GALJAG_clean_sbu_0, # of connection points: 4
#     Node 7, Type 0, BuildingBlock: GALJAG_clean_sbu_0, # of connection points: 4
#     Node 8, Type 0, BuildingBlock: GALJAG_clean_sbu_0, # of connection points: 4
#     Node 9, Type 0, BuildingBlock: GALJAG_clean_sbu_0, # of connection points: 4
#     Node 10, Type 0, BuildingBlock: GALJAG_clean_sbu_0, # of connection points: 4
#     Node 11, Type 0, BuildingBlock: GALJAG_clean_sbu_0, # of connection points: 4
#     Node 12, Type 0, BuildingBlock: GALJAG_clean_sbu_0, # of connection points: 4
#     Node 13, Type 0, BuildingBlock: GALJAG_clean_sbu_0, # of connection points: 4
#     Node 14, Type 0, BuildingBlock: GALJAG_clean_sbu_0, # of connection points: 4
#     Node 15, Type 0, BuildingBlock: GALJAG_clean_sbu_0, # of connection points: 4
#     Edge 16, Type (0, 0), BuildingBlock: EYOCIG_clean_linker_4, # of connection points: 2
#     Edge 17, Type (0, 0), BuildingBlock: EYOCIG_clean_linker_4, # of connection points: 2
#     Edge 18, Type (0, 0), BuildingBlock: EYOCIG_clean_linker_4, # of connection points: 2
#     Edge 19, Type (0, 0), BuildingBlock: EYOCIG_clean_linker_4, # of connection points: 2
#     Edge 20, Type (0, 0), BuildingBlock: EYOCIG_clean_linker_4, # of connection points: 2
#     Edge 21, Type (0, 0), BuildingBlock: EYOCIG_clean_linker_4, # of connection points: 2
#     Edge 22, Type (0, 0), BuildingBlock: EYOCIG_clean_linker_4, # of connection points: 2
#     Edge 23, Type (0, 0), BuildingBlock: EYOCIG_clean_linker_4, # of connection points: 2
#     Edge 24, Type (0, 0), BuildingBlock: EYOCIG_clean_linker_4, # of connection points: 2
#     Edge 25, Type (0, 0), BuildingBlock: EYOCIG_clean_linker_4, # of connection points: 2
#     Edge 26, Type (0, 0), BuildingBlock: EYOCIG_clean_linker_4, # of connection points: 2
#     Edge 27, Type (0, 0), BuildingBlock: EYOCIG_clean_linker_4, # of connection points: 2
#     Edge 28, Type (0, 0), BuildingBlock: EYOCIG_clean_linker_4, # of connection points: 2
#     Edge 29, Type (0, 0), BuildingBlock: EYOCIG_clean_linker_4, # of connection points: 2
#     Edge 30, Type (0, 0), BuildingBlock: EYOCIG_clean_linker_4, # of connection points: 2
#     Edge 31, Type (0, 0), BuildingBlock: EYOCIG_clean_linker_4, # of connection points: 2
#     Edge 32, Type (0, 0), BuildingBlock: EYOCIG_clean_linker_4, # of connection points: 2
#     Edge 33, Type (0, 0), BuildingBlock: EYOCIG_clean_linker_4, # of connection points: 2
#     Edge 34, Type (0, 0), BuildingBlock: EYOCIG_clean_linker_4, # of connection points: 2
#     Edge 35, Type (0, 0), BuildingBlock: EYOCIG_clean_linker_4, # of connection points: 2
#     Edge 36, Type (0, 0), BuildingBlock: EYOCIG_clean_linker_4, # of connection points: 2
#     Edge 37, Type (0, 0), BuildingBlock: EYOCIG_clean_linker_4, # of connection points: 2
#     Edge 38, Type (0, 0), BuildingBlock: EYOCIG_clean_linker_4, # of connection points: 2
#     Edge 39, Type (0, 0), BuildingBlock: EYOCIG_clean_linker_4, # of connection points: 2
#     Edge 40, Type (0, 0), BuildingBlock: EYOCIG_clean_linker_4, # of connection points: 2
#     Edge 41, Type (0, 0), BuildingBlock: EYOCIG_clean_linker_4, # of connection points: 2
#     Edge 42, Type (0, 0), BuildingBlock: EYOCIG_clean_linker_4, # of connection points: 2
#     Edge 43, Type (0, 0), BuildingBlock: EYOCIG_clean_linker_4, # of connection points: 2
#     Edge 44, Type (0, 0), BuildingBlock: EYOCIG_clean_linker_4, # of connection points: 2
#     Edge 45, Type (0, 0), BuildingBlock: EYOCIG_clean_linker_4, # of connection points: 2
#     Edge 46, Type (0, 0), BuildingBlock: EYOCIG_clean_linker_4, # of connection points: 2
#     Edge 47, Type (0, 0), BuildingBlock: EYOCIG_clean_linker_4, # of connection points: 2
# Relax obj value: 0.253
# Max RMSD: 0.089
# Mean RMSD: 0.089
data_MOF--net-upb--node1-GALJAG_clean_sbu_0--edge1-EYOCIG_clean_linker_4
_symmetry_space_group_name_H-M    P1
_symmetry_Int_Tables_number       1
_symmetry_cell_setting            triclinic
loop_
_symmetry_equiv_pos_as_xyz
'x, y, z'
_cell_length_a     35.042255
_cell_length_b     35.052659
_cell_length_c     29.372433
_cell_angle_alpha  90.008896
_cell_angle_beta   90.000232
_cell_angle_gamma 90.033136
loop_
_atom_site_label
_atom_site_type_symbol
_atom_site_fract_x
_atom_site_fract_y
_atom_site_fract_z
_atom_type_partial_charge
In0 In 0.04001 0.22973 0.29304 0.0
O1 O 0.08414 0.18401 0.30833 0.0
O2 O 0.07197 0.19535 0.23858 0.0
C3 C 0.02164 0.24721 0.3794 0.0
C4 C 0.07492 0.2942 0.26614 0.0
C5 C 0.97381 0.19814 0.2657 0.0
O6 O 0.04575 0.2219 0.36953 0.0
O7 O 0.00675 0.26417 0.34601 0.0
O8 O 0.98632 0.22845 0.24794 0.0
O9 O 0.99442 0.18396 0.29639 0.0
C10 C 0.09072 0.17623 0.26723 0.0
O11 O 0.04411 0.28319 0.2482 0.0
O12 O 0.08795 0.27303 0.29702 0.0
In13 In 0.76773 0.03995 0.29363 0.0
O14 O 0.81378 0.08385 0.3087 0.0
O15 O 0.80218 0.07167 0.23901 0.0
C16 C 0.75014 0.02195 0.38006 0.0
C17 C 0.7033 0.07493 0.26679 0.0
C18 C 0.79912 0.97366 0.26647 0.0
O19 O 0.77552 0.04599 0.3701 0.0
O20 O 0.73318 0.00694 0.34673 0.0
O21 O 0.76908 0.98641 0.24831 0.0
O22 O 0.81313 0.99406 0.29747 0.0
C23 C 0.82149 0.09034 0.26757 0.0
O24 O 0.71394 0.04383 0.2493 0.0
O25 O 0.72483 0.08822 0.29718 0.0
In26 In 0.95758 0.76782 0.29362 0.0
O27 O 0.95377 0.71396 0.24942 0.0
O28 O 0.90935 0.72482 0.29727 0.0
C29 C 0.02365 0.79947 0.26597 0.0
C30 C 0.90694 0.82145 0.26798 0.0
C31 C 0.97601 0.75024 0.37992 0.0
O32 O 0.01077 0.76951 0.24773 0.0
O33 O 0.00348 0.81326 0.29732 0.0
O34 O 0.95184 0.7755 0.37013 0.0
O35 O 0.99096 0.73338 0.34647 0.0
C36 C 0.92268 0.70327 0.26694 0.0
O37 O 0.91365 0.81372 0.30906 0.0
O38 O 0.9255 0.80221 0.23928 0.0
In39 In 0.22964 0.95776 0.2932 0.0
O40 O 0.28338 0.95357 0.24884 0.0
O41 O 0.27254 0.90951 0.29716 0.0
C42 C 0.19848 0.02409 0.2658 0.0
C43 C 0.17584 0.90738 0.26716 0.0
C44 C 0.24704 0.9759 0.37965 0.0
O45 O 0.22862 0.01132 0.24791 0.0
O46 O 0.18425 0.00367 0.29665 0.0
O47 O 0.22162 0.95192 0.36965 0.0
O48 O 0.26414 0.99079 0.34634 0.0
C49 C 0.29404 0.92259 0.26661 0.0
O50 O 0.18351 0.91394 0.30829 0.0
O51 O 0.19521 0.92598 0.23859 0.0
In52 In 0.03958 0.76778 0.68488 0.0
O53 O 0.08364 0.81366 0.6697 0.0
O54 O 0.07141 0.80223 0.73942 0.0
C55 C 0.0214 0.7502 0.5985 0.0
C56 C 0.07448 0.70333 0.71174 0.0
C57 C 0.97337 0.79938 0.71203 0.0
O58 O 0.04553 0.7755 0.6084 0.0
O59 O 0.00639 0.73329 0.63187 0.0
O60 O 0.98599 0.76927 0.73014 0.0
O61 O 0.99386 0.81334 0.68108 0.0
C62 C 0.09014 0.82143 0.71082 0.0
O63 O 0.04347 0.7141 0.72937 0.0
O64 O 0.08771 0.72474 0.68121 0.0
In65 In 0.22958 0.03975 0.68459 0.0
O66 O 0.18378 0.08379 0.6692 0.0
O67 O 0.19528 0.07189 0.73898 0.0
C68 C 0.24701 0.0212 0.59829 0.0
C69 C 0.2941 0.07476 0.7112 0.0
C70 C 0.19804 0.97363 0.71221 0.0
O71 O 0.22166 0.04529 0.6081 0.0
O72 O 0.26402 0.0064 0.63171 0.0
O73 O 0.22831 0.98625 0.72998 0.0
O74 O 0.18386 0.99409 0.68139 0.0
C75 C 0.17609 0.09053 0.71029 0.0
O76 O 0.28317 0.04398 0.72924 0.0
O77 O 0.27283 0.08772 0.68037 0.0
In78 In 0.9579 0.23009 0.68443 0.0
O79 O 0.95353 0.28355 0.72925 0.0
O80 O 0.90983 0.27318 0.6803 0.0
C81 C 0.02419 0.19875 0.71173 0.0
C82 C 0.90736 0.17645 0.71047 0.0
C83 C 0.9762 0.24744 0.59802 0.0
O84 O 0.01173 0.22914 0.72931 0.0
O85 O 0.00349 0.18437 0.68125 0.0
O86 O 0.95218 0.22204 0.60797 0.0
O87 O 0.99104 0.26455 0.63136 0.0
C88 C 0.92271 0.29442 0.71123 0.0
O89 O 0.91384 0.18419 0.66933 0.0
O90 O 0.92613 0.19566 0.73903 0.0
In91 In 0.76771 0.9582 0.68492 0.0
O92 O 0.81346 0.91413 0.66942 0.0
O93 O 0.80227 0.92625 0.73921 0.0
C94 C 0.75007 0.9767 0.59866 0.0
C95 C 0.7033 0.92313 0.71184 0.0
C96 C 0.79931 0.02435 0.71232 0.0
O97 O 0.77544 0.95262 0.6084 0.0
O98 O 0.73312 0.9915 0.63214 0.0
O99 O 0.76909 0.01175 0.73022 0.0
O100 O 0.8134 0.00386 0.68146 0.0
C101 C 0.82134 0.90754 0.71048 0.0
O102 O 0.71424 0.95396 0.72978 0.0
O103 O 0.72451 0.91016 0.68095 0.0
In104 In 0.53969 0.72993 0.79347 0.0
O105 O 0.54383 0.78365 0.74909 0.0
O106 O 0.58784 0.77299 0.79753 0.0
C107 C 0.47353 0.69846 0.76574 0.0
C108 C 0.59035 0.67635 0.7677 0.0
C109 C 0.52125 0.74735 0.87981 0.0
O110 O 0.48628 0.72862 0.74788 0.0
O111 O 0.49387 0.68437 0.79674 0.0
O112 O 0.54532 0.72201 0.86995 0.0
O113 O 0.5064 0.76436 0.84642 0.0
C114 C 0.57477 0.79442 0.76694 0.0
O115 O 0.5836 0.684 0.8088 0.0
O116 O 0.57179 0.69563 0.73904 0.0
In117 In 0.26776 0.53998 0.79286 0.0
O118 O 0.31375 0.58394 0.80792 0.0
O119 O 0.30206 0.57187 0.73822 0.0
C120 C 0.25051 0.52178 0.87932 0.0
C121 C 0.2032 0.57492 0.76638 0.0
C122 C 0.29906 0.47371 0.76546 0.0
O123 O 0.27582 0.54586 0.86929 0.0
O124 O 0.23343 0.50682 0.84603 0.0
O125 O 0.26887 0.48639 0.74759 0.0
O126 O 0.31327 0.49419 0.79626 0.0
C127 C 0.32139 0.59053 0.76679 0.0
O128 O 0.21399 0.54402 0.74851 0.0
O129 O 0.22465 0.58803 0.79695 0.0
In130 In 0.45747 0.26801 0.79305 0.0
O131 O 0.45342 0.21446 0.74835 0.0
O132 O 0.40951 0.22473 0.79705 0.0
C133 C 0.52364 0.29962 0.76567 0.0
C134 C 0.40679 0.32151 0.76718 0.0
C135 C 0.47587 0.2506 0.87941 0.0
O136 O 0.51111 0.26933 0.74788 0.0
O137 O 0.50307 0.31378 0.79642 0.0
O138 O 0.4517 0.27584 0.86955 0.0
O139 O 0.49081 0.23367 0.84602 0.0
C140 C 0.42258 0.20349 0.76626 0.0
O141 O 0.41337 0.31379 0.80829 0.0
O142 O 0.42551 0.30234 0.73856 0.0
In143 In 0.72962 0.45799 0.79338 0.0
O144 O 0.78317 0.45371 0.74869 0.0
O145 O 0.77267 0.40987 0.7974 0.0
C146 C 0.6983 0.52428 0.76612 0.0
C147 C 0.67589 0.40752 0.76738 0.0
C148 C 0.74705 0.47621 0.8798 0.0
O149 O 0.72859 0.51171 0.74837 0.0
O150 O 0.68401 0.50368 0.79675 0.0
O151 O 0.72167 0.45218 0.86985 0.0
O152 O 0.76411 0.49111 0.84646 0.0
C153 C 0.79399 0.42284 0.7666 0.0
O154 O 0.68363 0.41403 0.8085 0.0
O155 O 0.69515 0.42622 0.7388 0.0
In156 In 0.53968 0.26769 0.18446 0.0
O157 O 0.5838 0.31352 0.16935 0.0
O158 O 0.57148 0.30212 0.23905 0.0
C159 C 0.5214 0.25036 0.09803 0.0
C160 C 0.57469 0.20329 0.21132 0.0
C161 C 0.47342 0.29909 0.21174 0.0
O162 O 0.54549 0.27568 0.108 0.0
O163 O 0.50648 0.2333 0.13136 0.0
O164 O 0.48587 0.26871 0.22936 0.0
O165 O 0.49412 0.31344 0.18124 0.0
C166 C 0.59027 0.3213 0.21047 0.0
O167 O 0.54388 0.21424 0.22929 0.0
O168 O 0.58766 0.22449 0.18042 0.0
In169 In 0.72971 0.53971 0.18489 0.0
O170 O 0.68396 0.58384 0.16965 0.0
O171 O 0.69535 0.57166 0.23939 0.0
C172 C 0.74711 0.52141 0.09849 0.0
C173 C 0.79423 0.57461 0.21174 0.0
C174 C 0.69817 0.47351 0.21223 0.0
O175 O 0.72179 0.54549 0.10842 0.0
O176 O 0.76412 0.50651 0.13184 0.0
O177 O 0.72847 0.48605 0.23 0.0
O178 O 0.68396 0.4941 0.18154 0.0
C179 C 0.67621 0.59041 0.21076 0.0
O180 O 0.78325 0.54378 0.22964 0.0
O181 O 0.77301 0.58766 0.18092 0.0
In182 In 0.45794 0.72981 0.18489 0.0
O183 O 0.41397 0.68386 0.16968 0.0
O184 O 0.42607 0.69539 0.23941 0.0
C185 C 0.47614 0.7473 0.0985 0.0
C186 C 0.4228 0.79415 0.21171 0.0
C187 C 0.52422 0.69846 0.21222 0.0
O188 O 0.45214 0.72188 0.10843 0.0
O189 O 0.49103 0.76435 0.13185 0.0
O190 O 0.51164 0.72873 0.22999 0.0
O191 O 0.50365 0.68421 0.18153 0.0
C192 C 0.4074 0.67613 0.2108 0.0
O193 O 0.4537 0.78335 0.2296 0.0
O194 O 0.40981 0.77284 0.18093 0.0
In195 In 0.26794 0.45788 0.1843 0.0
O196 O 0.31378 0.41386 0.16901 0.0
O197 O 0.30221 0.42581 0.23876 0.0
C198 C 0.25062 0.47639 0.09796 0.0
C199 C 0.20343 0.42284 0.21088 0.0
C200 C 0.29943 0.52402 0.21196 0.0
O201 O 0.27594 0.45229 0.10782 0.0
O202 O 0.23358 0.49121 0.13135 0.0
O203 O 0.26908 0.51145 0.22959 0.0
O204 O 0.3137 0.5035 0.18124 0.0
C205 C 0.32144 0.40717 0.21012 0.0
O206 O 0.21436 0.45363 0.22894 0.0
O207 O 0.2247 0.40991 0.18003 0.0
C208 C 0.13901 0.12076 0.24878 0.0
C209 C 0.11666 0.14642 0.25454 0.0
C210 C 0.16328 0.08865 0.24823 0.0
C211 C 0.18153 0.05986 0.25349 0.0
C212 C 0.90929 0.16269 0.24828 0.0
C213 C 0.93805 0.18104 0.25352 0.0
C214 C 0.87715 0.13843 0.24889 0.0
C215 C 0.85139 0.11616 0.25474 0.0
C216 C 0.83447 0.90913 0.24906 0.0
C217 C 0.81618 0.93791 0.25425 0.0
C218 C 0.85872 0.87701 0.24963 0.0
C219 C 0.88103 0.8513 0.25537 0.0
C220 C 0.08802 0.83502 0.24812 0.0
C221 C 0.05929 0.81666 0.25349 0.0
C222 C 0.12016 0.8593 0.24859 0.0
C223 C 0.14593 0.88156 0.25436 0.0
C224 C 0.13833 0.87703 0.72936 0.0
C225 C 0.11602 0.85131 0.72358 0.0
C226 C 0.16262 0.90916 0.72987 0.0
C227 C 0.18096 0.9379 0.72454 0.0
C228 C 0.12073 0.13898 0.72865 0.0
C229 C 0.14635 0.11656 0.72292 0.0
C230 C 0.0887 0.16336 0.72918 0.0
C231 C 0.05996 0.18171 0.72393 0.0
C232 C 0.85915 0.12091 0.72914 0.0
C233 C 0.88148 0.1466 0.72328 0.0
C234 C 0.83482 0.08881 0.72978 0.0
C235 C 0.81644 0.06008 0.72455 0.0
C236 C 0.87686 0.85925 0.72879 0.0
C237 C 0.85119 0.8816 0.72306 0.0
C238 C 0.90893 0.83492 0.72938 0.0
C239 C 0.93765 0.81654 0.72421 0.0
C240 C 0.63866 0.62089 0.74927 0.0
C241 C 0.61631 0.64656 0.75502 0.0
C242 C 0.66297 0.58881 0.7487 0.0
C243 C 0.68128 0.56005 0.75392 0.0
C244 C 0.40909 0.66303 0.74784 0.0
C245 C 0.43783 0.68137 0.75326 0.0
C246 C 0.37696 0.63874 0.74826 0.0
C247 C 0.35124 0.61642 0.75399 0.0
C248 C 0.3343 0.40913 0.74801 0.0
C249 C 0.31603 0.43792 0.75323 0.0
C250 C 0.35856 0.37701 0.74863 0.0
C251 C 0.38088 0.35133 0.75444 0.0
C252 C 0.62025 0.3594 0.74877 0.0
C253 C 0.646 0.38168 0.75458 0.0
C254 C 0.58813 0.33511 0.74819 0.0
C255 C 0.55938 0.31675 0.75345 0.0
C256 C 0.66275 0.409 0.22967 0.0
C257 C 0.68108 0.43776 0.22443 0.0
C258 C 0.63846 0.37688 0.22908 0.0
C259 C 0.61614 0.35116 0.22326 0.0
C260 C 0.58872 0.66309 0.22975 0.0
C261 C 0.55997 0.68142 0.22448 0.0
C262 C 0.62078 0.63876 0.22922 0.0
C263 C 0.64643 0.61638 0.22347 0.0
C264 C 0.35916 0.62058 0.22927 0.0
C265 C 0.38149 0.64629 0.22353 0.0
C266 C 0.33485 0.58847 0.22972 0.0
C267 C 0.3165 0.55974 0.22434 0.0
C268 C 0.37685 0.35882 0.22859 0.0
C269 C 0.35121 0.38119 0.22282 0.0
C270 C 0.40891 0.33448 0.22916 0.0
C271 C 0.43765 0.31613 0.22392 0.0
C272 C 0.1152 0.35453 0.24301 0.0
C273 C 0.0951 0.3276 0.25158 0.0
C274 C 0.14311 0.38245 0.23379 0.0
C275 C 0.17004 0.40258 0.22529 0.0
C276 C 0.64297 0.11519 0.24375 0.0
C277 C 0.66987 0.09508 0.25232 0.0
C278 C 0.61506 0.14307 0.23447 0.0
C279 C 0.59494 0.16996 0.22587 0.0
C280 C 0.85457 0.61489 0.23483 0.0
C281 C 0.82764 0.59478 0.22628 0.0
C282 C 0.88247 0.64283 0.24405 0.0
C283 C 0.90256 0.66978 0.25255 0.0
C284 C 0.35438 0.88221 0.24385 0.0
C285 C 0.32746 0.90234 0.2523 0.0
C286 C 0.38233 0.85434 0.2347 0.0
C287 C 0.40252 0.82748 0.22619 0.0
C288 C 0.14273 0.61513 0.74374 0.0
C289 C 0.16971 0.59506 0.75211 0.0
C290 C 0.11476 0.643 0.73467 0.0
C291 C 0.09461 0.6699 0.7262 0.0
C292 C 0.38234 0.1431 0.74325 0.0
C293 C 0.40242 0.17006 0.75177 0.0
C294 C 0.35444 0.11515 0.73409 0.0
C295 C 0.32751 0.09501 0.72562 0.0
C296 C 0.88218 0.35456 0.73432 0.0
C297 C 0.90236 0.32771 0.72575 0.0
C298 C 0.85424 0.38242 0.74358 0.0
C299 C 0.82734 0.40256 0.75214 0.0
C300 C 0.64305 0.88272 0.73495 0.0
C301 C 0.66994 0.90288 0.72639 0.0
C302 C 0.61514 0.85478 0.74414 0.0
C303 C 0.59501 0.82784 0.7526 0.0
C304 C 0.00321 0.25851 0.46526 0.0
C305 C 0.0106 0.2545 0.42553 0.0
C306 C 0.99461 0.25857 0.51212 0.0
C307 C 0.98723 0.25465 0.55187 0.0
C308 C 0.73873 0.99524 0.51286 0.0
C309 C 0.74272 0.98783 0.55258 0.0
C310 C 0.73877 0.00379 0.46599 0.0
C311 C 0.74282 0.01106 0.42623 0.0
C312 C 0.00308 0.73888 0.51261 0.0
C313 C 0.01041 0.7429 0.55235 0.0
C314 C 0.9945 0.73889 0.46574 0.0
C315 C 0.9871 0.74291 0.42602 0.0
C316 C 0.25827 0.00269 0.51245 0.0
C317 C 0.2543 0.0101 0.55218 0.0
C318 C 0.25827 0.99413 0.46558 0.0
C319 C 0.2543 0.98682 0.42582 0.0
C320 C 0.50287 0.75862 0.96569 0.0
C321 C 0.51022 0.75465 0.92594 0.0
C322 C 0.49437 0.75861 0.01258 0.0
C323 C 0.48708 0.75462 0.05234 0.0
C324 C 0.23941 0.50348 0.96525 0.0
C325 C 0.24334 0.51082 0.9255 0.0
C326 C 0.23943 0.49489 0.01211 0.0
C327 C 0.24338 0.48747 0.05184 0.0
C328 C 0.50297 0.23928 0.01212 0.0
C329 C 0.51036 0.24318 0.05187 0.0
C330 C 0.49435 0.23934 0.96527 0.0
C331 C 0.48693 0.24334 0.92554 0.0
C332 C 0.75829 0.49452 0.96571 0.0
C333 C 0.75432 0.48719 0.92596 0.0
C334 C 0.75831 0.50306 0.01259 0.0
C335 C 0.75436 0.51041 0.05234 0.0
loop_
_geom_bond_atom_site_label_1
_geom_bond_atom_site_label_2
_geom_bond_distance
_geom_bond_site_symmetry_2
_ccdc_geom_bond_type
In0 O1 2.294 . S
In0 O2 2.326 . S
In0 O6 2.266 . S
In0 O7 2.326 . S
In0 O8 2.266 1_455 S
In0 O9 2.326 1_455 S
In0 O11 2.294 . S
In0 O12 2.326 . S
O1 In0 2.294 . S
O1 C10 1.240 . S
O2 In0 2.326 . S
O2 C10 1.252 . S
C3 O6 1.252 . S
C3 O7 1.260 . S
C4 O11 1.240 . S
C4 O12 1.252 . S
C5 O8 1.252 . S
C5 O9 1.260 . S
O6 In0 2.266 . S
O6 C3 1.252 . S
O7 In0 2.326 . S
O7 C3 1.260 . S
O8 In0 2.266 1_655 S
O8 C5 1.252 . S
O9 In0 2.326 1_655 S
O9 C5 1.260 . S
C10 O1 1.240 . S
C10 O2 1.252 . S
O11 In0 2.294 . S
O11 C4 1.240 . S
O12 In0 2.326 . S
O12 C4 1.252 . S
In13 O14 2.294 . S
In13 O15 2.326 . S
In13 O19 2.266 . S
In13 O20 2.326 . S
In13 O21 2.266 1_545 S
In13 O22 2.326 1_545 S
In13 O24 2.294 . S
In13 O25 2.326 . S
O14 In13 2.294 . S
O14 C23 1.240 . S
O15 In13 2.326 . S
O15 C23 1.252 . S
C16 O19 1.252 . S
C16 O20 1.260 . S
C17 O24 1.240 . S
C17 O25 1.252 . S
C18 O21 1.252 . S
C18 O22 1.260 . S
O19 In13 2.266 . S
O19 C16 1.252 . S
O20 In13 2.326 . S
O20 C16 1.260 . S
O21 In13 2.266 1_565 S
O21 C18 1.252 . S
O22 In13 2.326 1_565 S
O22 C18 1.260 . S
C23 O14 1.240 . S
C23 O15 1.252 . S
O24 In13 2.294 . S
O24 C17 1.240 . S
O25 In13 2.326 . S
O25 C17 1.252 . S
In26 O27 2.294 . S
In26 O28 2.326 . S
In26 O32 2.266 1_655 S
In26 O33 2.326 1_655 S
In26 O34 2.266 . S
In26 O35 2.326 . S
In26 O37 2.294 . S
In26 O38 2.326 . S
O27 In26 2.294 . S
O27 C36 1.240 . S
O28 In26 2.326 . S
O28 C36 1.252 . S
C29 O32 1.252 . S
C29 O33 1.260 . S
C30 O37 1.240 . S
C30 O38 1.252 . S
C31 O34 1.252 . S
C31 O35 1.260 . S
O32 In26 2.266 1_455 S
O32 C29 1.252 . S
O33 In26 2.326 1_455 S
O33 C29 1.260 . S
O34 In26 2.266 . S
O34 C31 1.252 . S
O35 In26 2.326 . S
O35 C31 1.260 . S
C36 O27 1.240 . S
C36 O28 1.252 . S
O37 In26 2.294 . S
O37 C30 1.240 . S
O38 In26 2.326 . S
O38 C30 1.252 . S
In39 O40 2.294 . S
In39 O41 2.326 . S
In39 O45 2.266 1_565 S
In39 O46 2.326 1_565 S
In39 O47 2.266 . S
In39 O48 2.326 . S
In39 O50 2.294 . S
In39 O51 2.326 . S
O40 In39 2.294 . S
O40 C49 1.240 . S
O41 In39 2.326 . S
O41 C49 1.252 . S
C42 O45 1.252 . S
C42 O46 1.260 . S
C43 O50 1.240 . S
C43 O51 1.252 . S
C44 O47 1.252 . S
C44 O48 1.260 . S
O45 In39 2.266 1_545 S
O45 C42 1.252 . S
O46 In39 2.326 1_545 S
O46 C42 1.260 . S
O47 In39 2.266 . S
O47 C44 1.252 . S
O48 In39 2.326 . S
O48 C44 1.260 . S
C49 O40 1.240 . S
C49 O41 1.252 . S
O50 In39 2.294 . S
O50 C43 1.240 . S
O51 In39 2.326 . S
O51 C43 1.252 . S
In52 O53 2.294 . S
In52 O54 2.326 . S
In52 O58 2.266 . S
In52 O59 2.326 . S
In52 O60 2.266 1_455 S
In52 O61 2.326 1_455 S
In52 O63 2.294 . S
In52 O64 2.326 . S
O53 In52 2.294 . S
O53 C62 1.240 . S
O54 In52 2.326 . S
O54 C62 1.252 . S
C55 O58 1.252 . S
C55 O59 1.260 . S
C56 O63 1.240 . S
C56 O64 1.252 . S
C57 O60 1.252 . S
C57 O61 1.260 . S
O58 In52 2.266 . S
O58 C55 1.252 . S
O59 In52 2.326 . S
O59 C55 1.260 . S
O60 In52 2.266 1_655 S
O60 C57 1.252 . S
O61 In52 2.326 1_655 S
O61 C57 1.260 . S
C62 O53 1.240 . S
C62 O54 1.252 . S
O63 In52 2.294 . S
O63 C56 1.240 . S
O64 In52 2.326 . S
O64 C56 1.252 . S
In65 O66 2.294 . S
In65 O67 2.326 . S
In65 O71 2.266 . S
In65 O72 2.326 . S
In65 O73 2.266 1_545 S
In65 O74 2.326 1_545 S
In65 O76 2.294 . S
In65 O77 2.326 . S
O66 In65 2.294 . S
O66 C75 1.240 . S
O67 In65 2.326 . S
O67 C75 1.252 . S
C68 O71 1.252 . S
C68 O72 1.260 . S
C69 O76 1.240 . S
C69 O77 1.252 . S
C70 O73 1.252 . S
C70 O74 1.260 . S
O71 In65 2.266 . S
O71 C68 1.252 . S
O72 In65 2.326 . S
O72 C68 1.260 . S
O73 In65 2.266 1_565 S
O73 C70 1.252 . S
O74 In65 2.326 1_565 S
O74 C70 1.260 . S
C75 O66 1.240 . S
C75 O67 1.252 . S
O76 In65 2.294 . S
O76 C69 1.240 . S
O77 In65 2.326 . S
O77 C69 1.252 . S
In78 O79 2.294 . S
In78 O80 2.326 . S
In78 O84 2.266 1_655 S
In78 O85 2.326 1_655 S
In78 O86 2.266 . S
In78 O87 2.326 . S
In78 O89 2.294 . S
In78 O90 2.326 . S
O79 In78 2.294 . S
O79 C88 1.240 . S
O80 In78 2.326 . S
O80 C88 1.252 . S
C81 O84 1.252 . S
C81 O85 1.260 . S
C82 O89 1.240 . S
C82 O90 1.252 . S
C83 O86 1.252 . S
C83 O87 1.260 . S
O84 In78 2.266 1_455 S
O84 C81 1.252 . S
O85 In78 2.326 1_455 S
O85 C81 1.260 . S
O86 In78 2.266 . S
O86 C83 1.252 . S
O87 In78 2.326 . S
O87 C83 1.260 . S
C88 O79 1.240 . S
C88 O80 1.252 . S
O89 In78 2.294 . S
O89 C82 1.240 . S
O90 In78 2.326 . S
O90 C82 1.252 . S
In91 O92 2.294 . S
In91 O93 2.326 . S
In91 O97 2.266 . S
In91 O98 2.326 . S
In91 O99 2.266 1_565 S
In91 O100 2.326 1_565 S
In91 O102 2.294 . S
In91 O103 2.326 . S
O92 In91 2.294 . S
O92 C101 1.240 . S
O93 In91 2.326 . S
O93 C101 1.252 . S
C94 O97 1.252 . S
C94 O98 1.260 . S
C95 O102 1.240 . S
C95 O103 1.252 . S
C96 O99 1.252 . S
C96 O100 1.260 . S
O97 In91 2.266 . S
O97 C94 1.252 . S
O98 In91 2.326 . S
O98 C94 1.260 . S
O99 In91 2.266 1_545 S
O99 C96 1.252 . S
O100 In91 2.326 1_545 S
O100 C96 1.260 . S
C101 O92 1.240 . S
C101 O93 1.252 . S
O102 In91 2.294 . S
O102 C95 1.240 . S
O103 In91 2.326 . S
O103 C95 1.252 . S
In104 O105 2.294 . S
In104 O106 2.326 . S
In104 O110 2.266 . S
In104 O111 2.326 . S
In104 O112 2.266 . S
In104 O113 2.326 . S
In104 O115 2.294 . S
In104 O116 2.326 . S
O105 In104 2.294 . S
O105 C114 1.240 . S
O106 In104 2.326 . S
O106 C114 1.252 . S
C107 O110 1.252 . S
C107 O111 1.260 . S
C108 O115 1.240 . S
C108 O116 1.252 . S
C109 O112 1.252 . S
C109 O113 1.260 . S
O110 In104 2.266 . S
O110 C107 1.252 . S
O111 In104 2.326 . S
O111 C107 1.260 . S
O112 In104 2.266 . S
O112 C109 1.252 . S
O113 In104 2.326 . S
O113 C109 1.260 . S
C114 O105 1.240 . S
C114 O106 1.252 . S
O115 In104 2.294 . S
O115 C108 1.240 . S
O116 In104 2.326 . S
O116 C108 1.252 . S
In117 O118 2.294 . S
In117 O119 2.326 . S
In117 O123 2.266 . S
In117 O124 2.326 . S
In117 O125 2.266 . S
In117 O126 2.326 . S
In117 O128 2.294 . S
In117 O129 2.326 . S
O118 In117 2.294 . S
O118 C127 1.240 . S
O119 In117 2.326 . S
O119 C127 1.252 . S
C120 O123 1.252 . S
C120 O124 1.260 . S
C121 O128 1.240 . S
C121 O129 1.252 . S
C122 O125 1.252 . S
C122 O126 1.260 . S
O123 In117 2.266 . S
O123 C120 1.252 . S
O124 In117 2.326 . S
O124 C120 1.260 . S
O125 In117 2.266 . S
O125 C122 1.252 . S
O126 In117 2.326 . S
O126 C122 1.260 . S
C127 O118 1.240 . S
C127 O119 1.252 . S
O128 In117 2.294 . S
O128 C121 1.240 . S
O129 In117 2.326 . S
O129 C121 1.252 . S
In130 O131 2.294 . S
In130 O132 2.326 . S
In130 O136 2.266 . S
In130 O137 2.326 . S
In130 O138 2.266 . S
In130 O139 2.326 . S
In130 O141 2.294 . S
In130 O142 2.326 . S
O131 In130 2.294 . S
O131 C140 1.240 . S
O132 In130 2.326 . S
O132 C140 1.252 . S
C133 O136 1.252 . S
C133 O137 1.260 . S
C134 O141 1.240 . S
C134 O142 1.252 . S
C135 O138 1.252 . S
C135 O139 1.260 . S
O136 In130 2.266 . S
O136 C133 1.252 . S
O137 In130 2.326 . S
O137 C133 1.260 . S
O138 In130 2.266 . S
O138 C135 1.252 . S
O139 In130 2.326 . S
O139 C135 1.260 . S
C140 O131 1.240 . S
C140 O132 1.252 . S
O141 In130 2.294 . S
O141 C134 1.240 . S
O142 In130 2.326 . S
O142 C134 1.252 . S
In143 O144 2.294 . S
In143 O145 2.326 . S
In143 O149 2.266 . S
In143 O150 2.326 . S
In143 O151 2.266 . S
In143 O152 2.326 . S
In143 O154 2.294 . S
In143 O155 2.326 . S
O144 In143 2.294 . S
O144 C153 1.240 . S
O145 In143 2.326 . S
O145 C153 1.252 . S
C146 O149 1.252 . S
C146 O150 1.260 . S
C147 O154 1.240 . S
C147 O155 1.252 . S
C148 O151 1.252 . S
C148 O152 1.260 . S
O149 In143 2.266 . S
O149 C146 1.252 . S
O150 In143 2.326 . S
O150 C146 1.260 . S
O151 In143 2.266 . S
O151 C148 1.252 . S
O152 In143 2.326 . S
O152 C148 1.260 . S
C153 O144 1.240 . S
C153 O145 1.252 . S
O154 In143 2.294 . S
O154 C147 1.240 . S
O155 In143 2.326 . S
O155 C147 1.252 . S
In156 O157 2.294 . S
In156 O158 2.326 . S
In156 O162 2.266 . S
In156 O163 2.326 . S
In156 O164 2.266 . S
In156 O165 2.326 . S
In156 O167 2.294 . S
In156 O168 2.326 . S
O157 In156 2.294 . S
O157 C166 1.240 . S
O158 In156 2.326 . S
O158 C166 1.252 . S
C159 O162 1.252 . S
C159 O163 1.260 . S
C160 O167 1.240 . S
C160 O168 1.252 . S
C161 O164 1.252 . S
C161 O165 1.260 . S
O162 In156 2.266 . S
O162 C159 1.252 . S
O163 In156 2.326 . S
O163 C159 1.260 . S
O164 In156 2.266 . S
O164 C161 1.252 . S
O165 In156 2.326 . S
O165 C161 1.260 . S
C166 O157 1.240 . S
C166 O158 1.252 . S
O167 In156 2.294 . S
O167 C160 1.240 . S
O168 In156 2.326 . S
O168 C160 1.252 . S
In169 O170 2.294 . S
In169 O171 2.326 . S
In169 O175 2.266 . S
In169 O176 2.326 . S
In169 O177 2.266 . S
In169 O178 2.326 . S
In169 O180 2.294 . S
In169 O181 2.326 . S
O170 In169 2.294 . S
O170 C179 1.240 . S
O171 In169 2.326 . S
O171 C179 1.252 . S
C172 O175 1.252 . S
C172 O176 1.260 . S
C173 O180 1.240 . S
C173 O181 1.252 . S
C174 O177 1.252 . S
C174 O178 1.260 . S
O175 In169 2.266 . S
O175 C172 1.252 . S
O176 In169 2.326 . S
O176 C172 1.260 . S
O177 In169 2.266 . S
O177 C174 1.252 . S
O178 In169 2.326 . S
O178 C174 1.260 . S
C179 O170 1.240 . S
C179 O171 1.252 . S
O180 In169 2.294 . S
O180 C173 1.240 . S
O181 In169 2.326 . S
O181 C173 1.252 . S
In182 O183 2.294 . S
In182 O184 2.326 . S
In182 O188 2.266 . S
In182 O189 2.326 . S
In182 O190 2.266 . S
In182 O191 2.326 . S
In182 O193 2.294 . S
In182 O194 2.326 . S
O183 In182 2.294 . S
O183 C192 1.240 . S
O184 In182 2.326 . S
O184 C192 1.252 . S
C185 O188 1.252 . S
C185 O189 1.260 . S
C186 O193 1.240 . S
C186 O194 1.252 . S
C187 O190 1.252 . S
C187 O191 1.260 . S
O188 In182 2.266 . S
O188 C185 1.252 . S
O189 In182 2.326 . S
O189 C185 1.260 . S
O190 In182 2.266 . S
O190 C187 1.252 . S
O191 In182 2.326 . S
O191 C187 1.260 . S
C192 O183 1.240 . S
C192 O184 1.252 . S
O193 In182 2.294 . S
O193 C186 1.240 . S
O194 In182 2.326 . S
O194 C186 1.252 . S
In195 O196 2.294 . S
In195 O197 2.326 . S
In195 O201 2.266 . S
In195 O202 2.326 . S
In195 O203 2.266 . S
In195 O204 2.326 . S
In195 O206 2.294 . S
In195 O207 2.326 . S
O196 In195 2.294 . S
O196 C205 1.240 . S
O197 In195 2.326 . S
O197 C205 1.252 . S
C198 O201 1.252 . S
C198 O202 1.260 . S
C199 O206 1.240 . S
C199 O207 1.252 . S
C200 O203 1.252 . S
C200 O204 1.260 . S
O201 In195 2.266 . S
O201 C198 1.252 . S
O202 In195 2.326 . S
O202 C198 1.260 . S
O203 In195 2.266 . S
O203 C200 1.252 . S
O204 In195 2.326 . S
O204 C200 1.260 . S
C205 O196 1.240 . S
C205 O197 1.252 . S
O206 In195 2.294 . S
O206 C199 1.240 . S
O207 In195 2.326 . S
O207 C199 1.252 . S
C208 C209 1.170 . S
C208 C210 1.380 . S
C209 C208 1.170 . S
C210 C208 1.380 . S
C210 C211 1.170 . S
C211 C210 1.170 . S
C212 C213 1.170 . S
C212 C214 1.380 . S
C213 C212 1.170 . S
C214 C212 1.380 . S
C214 C215 1.170 . S
C215 C214 1.170 . S
C216 C217 1.170 . S
C216 C218 1.380 . S
C217 C216 1.170 . S
C218 C216 1.380 . S
C218 C219 1.170 . S
C219 C218 1.170 . S
C220 C221 1.170 . S
C220 C222 1.380 . S
C221 C220 1.170 . S
C222 C220 1.380 . S
C222 C223 1.170 . S
C223 C222 1.170 . S
C224 C225 1.170 . S
C224 C226 1.380 . S
C225 C224 1.170 . S
C226 C224 1.380 . S
C226 C227 1.170 . S
C227 C226 1.170 . S
C228 C229 1.170 . S
C228 C230 1.380 . S
C229 C228 1.170 . S
C230 C228 1.380 . S
C230 C231 1.170 . S
C231 C230 1.170 . S
C232 C233 1.170 . S
C232 C234 1.380 . S
C233 C232 1.170 . S
C234 C232 1.380 . S
C234 C235 1.170 . S
C235 C234 1.170 . S
C236 C237 1.170 . S
C236 C238 1.380 . S
C237 C236 1.170 . S
C238 C236 1.380 . S
C238 C239 1.170 . S
C239 C238 1.170 . S
C240 C241 1.170 . S
C240 C242 1.380 . S
C241 C240 1.170 . S
C242 C240 1.380 . S
C242 C243 1.170 . S
C243 C242 1.170 . S
C244 C245 1.170 . S
C244 C246 1.380 . S
C245 C244 1.170 . S
C246 C244 1.380 . S
C246 C247 1.170 . S
C247 C246 1.170 . S
C248 C249 1.170 . S
C248 C250 1.380 . S
C249 C248 1.170 . S
C250 C248 1.380 . S
C250 C251 1.170 . S
C251 C250 1.170 . S
C252 C253 1.170 . S
C252 C254 1.380 . S
C253 C252 1.170 . S
C254 C252 1.380 . S
C254 C255 1.170 . S
C255 C254 1.170 . S
C256 C257 1.170 . S
C256 C258 1.380 . S
C257 C256 1.170 . S
C258 C256 1.380 . S
C258 C259 1.170 . S
C259 C258 1.170 . S
C260 C261 1.170 . S
C260 C262 1.380 . S
C261 C260 1.170 . S
C262 C260 1.380 . S
C262 C263 1.170 . S
C263 C262 1.170 . S
C264 C265 1.170 . S
C264 C266 1.380 . S
C265 C264 1.170 . S
C266 C264 1.380 . S
C266 C267 1.170 . S
C267 C266 1.170 . S
C268 C269 1.170 . S
C268 C270 1.380 . S
C269 C268 1.170 . S
C270 C268 1.380 . S
C270 C271 1.170 . S
C271 C270 1.170 . S
C272 C273 1.170 . S
C272 C274 1.380 . S
C273 C272 1.170 . S
C274 C272 1.380 . S
C274 C275 1.170 . S
C275 C274 1.170 . S
C276 C277 1.170 . S
C276 C278 1.380 . S
C277 C276 1.170 . S
C278 C276 1.380 . S
C278 C279 1.170 . S
C279 C278 1.170 . S
C280 C281 1.170 . S
C280 C282 1.380 . S
C281 C280 1.170 . S
C282 C280 1.380 . S
C282 C283 1.170 . S
C283 C282 1.170 . S
C284 C285 1.170 . S
C284 C286 1.380 . S
C285 C284 1.170 . S
C286 C284 1.380 . S
C286 C287 1.170 . S
C287 C286 1.170 . S
C288 C289 1.170 . S
C288 C290 1.380 . S
C289 C288 1.170 . S
C290 C288 1.380 . S
C290 C291 1.170 . S
C291 C290 1.170 . S
C292 C293 1.170 . S
C292 C294 1.380 . S
C293 C292 1.170 . S
C294 C292 1.380 . S
C294 C295 1.170 . S
C295 C294 1.170 . S
C296 C297 1.170 . S
C296 C298 1.380 . S
C297 C296 1.170 . S
C298 C296 1.380 . S
C298 C299 1.170 . S
C299 C298 1.170 . S
C300 C301 1.170 . S
C300 C302 1.380 . S
C301 C300 1.170 . S
C302 C300 1.380 . S
C302 C303 1.170 . S
C303 C302 1.170 . S
C304 C305 1.170 . S
C304 C306 1.380 . S
C305 C304 1.170 . S
C306 C304 1.380 . S
C306 C307 1.170 1_455 S
C307 C306 1.170 1_655 S
C308 C309 1.170 1_545 S
C308 C310 1.380 . S
C309 C308 1.170 1_565 S
C310 C308 1.380 . S
C310 C311 1.170 . S
C311 C310 1.170 . S
C312 C313 1.170 1_655 S
C312 C314 1.380 . S
C313 C312 1.170 1_455 S
C314 C312 1.380 . S
C314 C315 1.170 . S
C315 C314 1.170 . S
C316 C317 1.170 1_565 S
C316 C318 1.380 . S
C317 C316 1.170 1_545 S
C318 C316 1.380 . S
C318 C319 1.170 . S
C319 C318 1.170 . S
C320 C321 1.170 . S
C320 C322 1.380 1_556 S
C321 C320 1.170 . S
C322 C320 1.380 1_554 S
C322 C323 1.170 . S
C323 C322 1.170 . S
C324 C325 1.170 . S
C324 C326 1.380 1_556 S
C325 C324 1.170 . S
C326 C324 1.380 1_554 S
C326 C327 1.170 . S
C327 C326 1.170 . S
C328 C329 1.170 . S
C328 C330 1.380 1_554 S
C329 C328 1.170 . S
C330 C328 1.380 1_556 S
C330 C331 1.170 . S
C331 C330 1.170 . S
C332 C333 1.170 . S
C332 C334 1.380 1_556 S
C333 C332 1.170 . S
C334 C332 1.380 1_554 S
C334 C335 1.170 . S
C335 C334 1.170 . S
C209 C10 1.602 . S
C211 C42 1.623 . S
C213 C5 1.615 . S
C215 C23 1.614 . S
C217 C18 1.603 . S
C219 C30 1.591 . S
C221 C29 1.601 . S
C223 C43 1.600 . S
C225 C62 1.608 . S
C227 C70 1.604 . S
C229 C75 1.594 . S
C231 C81 1.620 . S
C233 C82 1.614 . S
C235 C96 1.615 . S
C237 C101 1.595 . S
C239 C57 1.602 . S
C241 C108 1.595 . S
C243 C146 1.620 . S
C245 C107 1.622 . S
C247 C127 1.609 . S
C249 C122 1.623 . S
C251 C134 1.602 . S
C253 C147 1.612 . S
C255 C133 1.608 . S
C257 C174 1.618 . S
C259 C166 1.613 . S
C261 C187 1.623 . S
C263 C179 1.605 . S
C265 C192 1.607 . S
C267 C200 1.622 . S
C269 C205 1.591 . S
C271 C161 1.617 . S
C273 C4 1.250 . S
C275 C199 1.221 . S
C277 C17 1.221 . S
C279 C160 1.252 . S
C281 C173 1.251 . S
C283 C36 1.226 . S
C285 C49 1.224 . S
C287 C186 1.245 . S
C289 C121 1.230 . S
C291 C56 1.249 . S
C293 C140 1.248 . S
C295 C69 1.222 . S
C297 C88 1.240 . S
C299 C153 1.228 . S
C301 C95 1.253 . S
C303 C114 1.221 . S
C305 C3 1.679 . S
C307 C83 1.690 . S
C309 C94 1.690 . S
C311 C16 1.680 . S
C313 C55 1.681 . S
C315 C31 1.671 . S
C317 C68 1.677 . S
C319 C44 1.669 . S
C321 C109 1.693 . S
C323 C185 1.694 . S
C325 C120 1.668 . S
C327 C198 1.672 . S
C329 C159 1.675 . S
C331 C135 1.668 . S
C333 C148 1.680 . S
C335 C172 1.670 . S
