# Generated by pormake.
# Topology zfj, (5)-cn, num edge types: 1
# Building blocks:
#     Node 0, Type 0, BuildingBlock: XOMCOT_clean_sbu_0, # of connection points: 5
#     Node 1, Type 0, BuildingBlock: XOMCOT_clean_sbu_0, # of connection points: 5
#     Node 2, Type 0, BuildingBlock: XOMCOT_clean_sbu_0, # of connection points: 5
#     Node 3, Type 0, BuildingBlock: XOMCOT_clean_sbu_0, # of connection points: 5
#     Node 4, Type 0, BuildingBlock: XOMCOT_clean_sbu_0, # of connection points: 5
#     Node 5, Type 0, BuildingBlock: XOMCOT_clean_sbu_0, # of connection points: 5
#     Node 6, Type 0, BuildingBlock: XOMCOT_clean_sbu_0, # of connection points: 5
#     Node 7, Type 0, BuildingBlock: XOMCOT_clean_sbu_0, # of connection points: 5
#     Node 8, Type 0, BuildingBlock: XOMCOT_clean_sbu_0, # of connection points: 5
#     Node 9, Type 0, BuildingBlock: XOMCOT_clean_sbu_0, # of connection points: 5
#     Node 10, Type 0, BuildingBlock: XOMCOT_clean_sbu_0, # of connection points: 5
#     Node 11, Type 0, BuildingBlock: XOMCOT_clean_sbu_0, # of connection points: 5
#     Node 12, Type 0, BuildingBlock: XOMCOT_clean_sbu_0, # of connection points: 5
#     Node 13, Type 0, BuildingBlock: XOMCOT_clean_sbu_0, # of connection points: 5
#     Node 14, Type 0, BuildingBlock: XOMCOT_clean_sbu_0, # of connection points: 5
#     Node 15, Type 0, BuildingBlock: XOMCOT_clean_sbu_0, # of connection points: 5
#     Edge 16, Type (0, 0), BuildingBlock: AJUNOK_clean_linker_0, # of connection points: 2
#     Edge 17, Type (0, 0), BuildingBlock: AJUNOK_clean_linker_0, # of connection points: 2
#     Edge 18, Type (0, 0), BuildingBlock: AJUNOK_clean_linker_0, # of connection points: 2
#     Edge 19, Type (0, 0), BuildingBlock: AJUNOK_clean_linker_0, # of connection points: 2
#     Edge 20, Type (0, 0), BuildingBlock: AJUNOK_clean_linker_0, # of connection points: 2
#     Edge 21, Type (0, 0), BuildingBlock: AJUNOK_clean_linker_0, # of connection points: 2
#     Edge 22, Type (0, 0), BuildingBlock: AJUNOK_clean_linker_0, # of connection points: 2
#     Edge 23, Type (0, 0), BuildingBlock: AJUNOK_clean_linker_0, # of connection points: 2
#     Edge 24, Type (0, 0), BuildingBlock: AJUNOK_clean_linker_0, # of connection points: 2
#     Edge 25, Type (0, 0), BuildingBlock: AJUNOK_clean_linker_0, # of connection points: 2
#     Edge 26, Type (0, 0), BuildingBlock: AJUNOK_clean_linker_0, # of connection points: 2
#     Edge 27, Type (0, 0), BuildingBlock: AJUNOK_clean_linker_0, # of connection points: 2
#     Edge 28, Type (0, 0), BuildingBlock: AJUNOK_clean_linker_0, # of connection points: 2
#     Edge 29, Type (0, 0), BuildingBlock: AJUNOK_clean_linker_0, # of connection points: 2
#     Edge 30, Type (0, 0), BuildingBlock: AJUNOK_clean_linker_0, # of connection points: 2
#     Edge 31, Type (0, 0), BuildingBlock: AJUNOK_clean_linker_0, # of connection points: 2
#     Edge 32, Type (0, 0), BuildingBlock: AJUNOK_clean_linker_0, # of connection points: 2
#     Edge 33, Type (0, 0), BuildingBlock: AJUNOK_clean_linker_0, # of connection points: 2
#     Edge 34, Type (0, 0), BuildingBlock: AJUNOK_clean_linker_0, # of connection points: 2
#     Edge 35, Type (0, 0), BuildingBlock: AJUNOK_clean_linker_0, # of connection points: 2
#     Edge 36, Type (0, 0), BuildingBlock: AJUNOK_clean_linker_0, # of connection points: 2
#     Edge 37, Type (0, 0), BuildingBlock: AJUNOK_clean_linker_0, # of connection points: 2
#     Edge 38, Type (0, 0), BuildingBlock: AJUNOK_clean_linker_0, # of connection points: 2
#     Edge 39, Type (0, 0), BuildingBlock: AJUNOK_clean_linker_0, # of connection points: 2
#     Edge 40, Type (0, 0), BuildingBlock: AJUNOK_clean_linker_0, # of connection points: 2
#     Edge 41, Type (0, 0), BuildingBlock: AJUNOK_clean_linker_0, # of connection points: 2
#     Edge 42, Type (0, 0), BuildingBlock: AJUNOK_clean_linker_0, # of connection points: 2
#     Edge 43, Type (0, 0), BuildingBlock: AJUNOK_clean_linker_0, # of connection points: 2
#     Edge 44, Type (0, 0), BuildingBlock: AJUNOK_clean_linker_0, # of connection points: 2
#     Edge 45, Type (0, 0), BuildingBlock: AJUNOK_clean_linker_0, # of connection points: 2
#     Edge 46, Type (0, 0), BuildingBlock: AJUNOK_clean_linker_0, # of connection points: 2
#     Edge 47, Type (0, 0), BuildingBlock: AJUNOK_clean_linker_0, # of connection points: 2
#     Edge 48, Type (0, 0), BuildingBlock: AJUNOK_clean_linker_0, # of connection points: 2
#     Edge 49, Type (0, 0), BuildingBlock: AJUNOK_clean_linker_0, # of connection points: 2
#     Edge 50, Type (0, 0), BuildingBlock: AJUNOK_clean_linker_0, # of connection points: 2
#     Edge 51, Type (0, 0), BuildingBlock: AJUNOK_clean_linker_0, # of connection points: 2
#     Edge 52, Type (0, 0), BuildingBlock: AJUNOK_clean_linker_0, # of connection points: 2
#     Edge 53, Type (0, 0), BuildingBlock: AJUNOK_clean_linker_0, # of connection points: 2
#     Edge 54, Type (0, 0), BuildingBlock: AJUNOK_clean_linker_0, # of connection points: 2
#     Edge 55, Type (0, 0), BuildingBlock: AJUNOK_clean_linker_0, # of connection points: 2
# Relax obj value: 0.191
# Max RMSD: 0.168
# Mean RMSD: 0.167
data_MOF--net-zfj--node1-XOMCOT_clean_sbu_0--edge1-AJUNOK_clean_linker_0
_symmetry_space_group_name_H-M    P1
_symmetry_Int_Tables_number       1
_symmetry_cell_setting            triclinic
loop_
_symmetry_equiv_pos_as_xyz
'x, y, z'
_cell_length_a     26.939072
_cell_length_b     27.032533
_cell_length_c     36.715778
_cell_angle_alpha  89.738199
_cell_angle_beta   90.043896
_cell_angle_gamma 90.193533
loop_
_atom_site_label
_atom_site_type_symbol
_atom_site_fract_x
_atom_site_fract_y
_atom_site_fract_z
_atom_type_partial_charge
Co0 Co 0.5062 0.23831 0.12909 0.0
C1 C 0.48514 0.34781 0.12862 0.0
C2 C 0.44125 0.31047 0.16869 0.0
C3 C 0.43146 0.36041 0.17046 0.0
N4 N 0.47607 0.30214 0.14299 0.0
N5 N 0.45909 0.38402 0.14518 0.0
H6 H 0.51021 0.35487 0.10627 0.0
H7 H 0.42315 0.28275 0.18514 0.0
C8 C 0.4668 0.20104 0.20192 0.0
O9 O 0.49621 0.23081 0.22014 0.0
N10 N 0.53577 0.17518 0.115 0.0
C11 C 0.57761 0.16977 0.09535 0.0
C12 C 0.59013 0.12043 0.09451 0.0
C13 C 0.52349 0.12861 0.12588 0.0
N14 N 0.55626 0.09436 0.11377 0.0
C15 C 0.5892 0.29289 0.15269 0.0
C16 C 0.63334 0.22176 0.1956 0.0
C17 C 0.66067 0.2647 0.18661 0.0
C18 C 0.63734 0.30017 0.16473 0.0
C19 C 0.58519 0.21499 0.1816 0.0
N20 N 0.56343 0.25068 0.16046 0.0
H21 H 0.57515 0.31943 0.13361 0.0
H22 H 0.56657 0.18007 0.18629 0.0
H23 H 0.59883 0.19982 0.08352 0.0
H24 H 0.49284 0.12018 0.14385 0.0
O25 O 0.53342 0.26882 0.08636 0.0
O26 O 0.4593 0.23336 0.08873 0.0
O27 O 0.46574 0.20179 0.16718 0.0
C28 C 0.49248 0.25757 0.0698 0.0
H29 H 0.40655 0.37784 0.18956 0.0
H30 H 0.62237 0.10504 0.08119 0.0
H31 H 0.64966 0.19249 0.21179 0.0
H32 H 0.65706 0.33187 0.15392 0.0
Co33 Co 0.30685 0.50127 0.62402 0.0
C34 C 0.19665 0.48545 0.62705 0.0
C35 C 0.23393 0.43372 0.66162 0.0
C36 C 0.18342 0.42505 0.6638 0.0
N37 N 0.24254 0.47287 0.63941 0.0
N38 N 0.16019 0.45752 0.64185 0.0
H39 H 0.18951 0.51376 0.60695 0.0
H40 H 0.26199 0.41118 0.67438 0.0
C41 C 0.34067 0.4592 0.69679 0.0
O42 O 0.30588 0.48364 0.7141 0.0
N43 N 0.37033 0.52946 0.60808 0.0
C44 C 0.37676 0.56353 0.58151 0.0
C45 C 0.42606 0.57677 0.57994 0.0
C46 C 0.41635 0.52276 0.62239 0.0
N47 N 0.45094 0.55171 0.60599 0.0
C48 C 0.25785 0.58822 0.64542 0.0
C49 C 0.32656 0.62339 0.6946 0.0
C50 C 0.28615 0.65366 0.68489 0.0
C51 C 0.2523 0.63526 0.6594 0.0
C52 C 0.33182 0.5765 0.67865 0.0
N53 N 0.29702 0.55903 0.65474 0.0
H54 H 0.23231 0.57743 0.62454 0.0
H55 H 0.36481 0.55537 0.68454 0.0
H56 H 0.34768 0.57867 0.56457 0.0
H57 H 0.42441 0.49878 0.64524 0.0
O58 O 0.27533 0.52712 0.58141 0.0
O59 O 0.30964 0.45295 0.58477 0.0
O60 O 0.34386 0.46215 0.6622 0.0
C61 C 0.28511 0.48555 0.56568 0.0
H62 H 0.16531 0.39588 0.67916 0.0
H63 H 0.44222 0.60286 0.56088 0.0
H64 H 0.35474 0.63632 0.71334 0.0
H65 H 0.22309 0.65794 0.64805 0.0
Co66 Co 0.02831 0.31141 0.12192 0.0
C67 C 0.04223 0.20168 0.12279 0.0
C68 C 0.09622 0.23716 0.1566 0.0
C69 C 0.10231 0.1866 0.15952 0.0
N70 N 0.05714 0.24688 0.13461 0.0
N71 N 0.06811 0.16451 0.13835 0.0
H72 H 1.01359 0.19552 0.10275 0.0
H73 H 0.11988 0.26449 0.16913 0.0
C74 C 0.07132 0.33926 0.19641 0.0
O75 O 0.04851 0.30276 0.21332 0.0
N76 N 0.99892 0.37484 0.10895 0.0
C77 C 0.95668 0.38066 0.08971 0.0
C78 C 0.94529 0.4302 0.08789 0.0
C79 C 1.01215 0.42113 0.11925 0.0
N80 N 0.98012 0.45559 0.10644 0.0
C81 C 0.93907 0.26043 0.13876 0.0
C82 C 0.90659 0.32034 0.19437 0.0
C83 C 0.87447 0.28353 0.18089 0.0
C84 C 0.89204 0.25295 0.15316 0.0
C85 C 0.95336 0.32754 0.17828 0.0
N86 N 0.96949 0.29712 0.15112 0.0
H87 H 0.94895 0.23883 0.11547 0.0
H88 H 0.97525 0.35907 0.1865 0.0
H89 H 0.93468 0.35075 0.07865 0.0
H90 H 0.04388 0.42964 0.13618 0.0
O91 O 1.0053 0.28481 0.07637 0.0
O92 O 0.07882 0.3203 0.08475 0.0
O93 O 0.06563 0.34554 0.16226 0.0
C94 C 0.04749 0.29906 0.06282 0.0
H95 H 0.13055 0.16755 0.17514 0.0
H96 H 0.91272 0.44618 0.07524 0.0
H97 H 0.89525 0.34463 0.21615 0.0
H98 H 0.86847 0.22523 0.14071 0.0
Co99 Co 0.2417 0.01714 0.62789 0.0
C100 C 0.35151 0.03135 0.63376 0.0
C101 C 0.31224 0.09392 0.65426 0.0
C102 C 0.36255 0.10335 0.65652 0.0
N103 N 0.30513 0.04803 0.64092 0.0
N104 N 0.3873 0.06372 0.64381 0.0
H105 H 0.3593 0.99816 0.61883 0.0
H106 H 0.28295 0.1196 0.66086 0.0
C107 C 0.21811 0.06149 0.70166 0.0
O108 O 0.25995 0.04486 0.71536 0.0
N109 N 0.17881 0.98618 0.61449 0.0
C110 C 0.17383 0.94531 0.59391 0.0
C111 C 0.12473 0.93092 0.5938 0.0
C112 C 0.13233 0.99605 0.62664 0.0
N113 N 0.09866 0.96248 0.61469 0.0
C114 C 0.29182 0.92721 0.64359 0.0
C115 C 0.23566 0.89735 0.70253 0.0
C116 C 0.27119 0.86482 0.68826 0.0
C117 C 0.30006 0.88101 0.65894 0.0
C118 C 0.22835 0.94375 0.68605 0.0
N119 N 0.25687 0.95859 0.65714 0.0
H120 H 0.3113 0.93552 0.61883 0.0
H121 H 0.19781 0.96608 0.6953 0.0
H122 H 0.20407 0.92624 0.58073 0.0
H123 H 0.12336 0.02581 0.64499 0.0
O124 O 0.27085 0.99616 0.58277 0.0
O125 O 0.23218 0.06751 0.59053 0.0
O126 O 0.20661 0.05222 0.66866 0.0
C127 C 0.25657 0.03805 0.56909 0.0
H128 H 0.37951 0.13725 0.66607 0.0
H129 H 0.10952 0.8993 0.57961 0.0
H130 H 0.21217 0.88626 0.72507 0.0
H131 H 0.32646 0.85667 0.64591 0.0
Co132 Co 0.51342 0.30788 0.85686 0.0
C133 C 0.49112 0.19804 0.85982 0.0
C134 C 0.4448 0.23541 0.82133 0.0
C135 C 0.43341 0.18578 0.82076 0.0
N136 N 0.48234 0.24352 0.84495 0.0
N137 N 0.46227 0.162 0.84518 0.0
H138 H 0.51685 0.19127 0.88188 0.0
H139 H 0.42539 0.26334 0.80597 0.0
C140 C 0.47779 0.33577 0.78081 0.0
O141 O 0.50338 0.29975 0.76608 0.0
N142 N 0.54394 0.37152 0.86916 0.0
C143 C 0.58604 0.37702 0.88856 0.0
C144 C 0.59884 0.42632 0.88933 0.0
C145 C 0.53186 0.41807 0.85816 0.0
N146 N 0.56532 0.4523 0.86976 0.0
C147 C 0.59786 0.25083 0.83897 0.0
C148 C 0.64178 0.31653 0.79101 0.0
C149 C 0.66866 0.27478 0.80255 0.0
C150 C 0.64534 0.24143 0.82629 0.0
C151 C 0.59386 0.32483 0.80476 0.0
N152 N 0.57234 0.29193 0.82846 0.0
H153 H 0.58365 0.22676 0.85977 0.0
H154 H 0.57518 0.35886 0.79773 0.0
H155 H 0.60672 0.34703 0.90082 0.0
H156 H 0.50037 0.42668 0.841 0.0
O157 O 0.53547 0.28118 0.90268 0.0
O158 O 0.46292 0.31821 0.8937 0.0
O159 O 0.47822 0.34182 0.81525 0.0
C160 C 0.49348 0.29613 0.91589 0.0
H161 H 0.40602 0.16874 0.80326 0.0
H162 H 0.63062 0.44172 0.90336 0.0
H163 H 0.65805 0.34336 0.77256 0.0
H164 H 0.66484 0.20966 0.83719 0.0
Co165 Co 0.23174 0.50597 0.35424 0.0
C166 C 0.34074 0.48834 0.35845 0.0
C167 C 0.30832 0.44295 0.3172 0.0
C168 C 0.35902 0.43554 0.31726 0.0
N169 N 0.29676 0.47753 0.34227 0.0
N170 N 0.37916 0.46409 0.34333 0.0
H171 H 0.34511 0.5137 0.38088 0.0
H172 H 0.28226 0.42321 0.30035 0.0
C173 C 0.20376 0.47003 0.27825 0.0
O174 O 0.23924 0.49621 0.26285 0.0
N175 N 0.16793 0.53464 0.36676 0.0
C176 C 0.16153 0.57647 0.38605 0.0
C177 C 0.11175 0.58753 0.38714 0.0
C178 C 0.12181 0.52118 0.35588 0.0
N179 N 0.08693 0.55307 0.36794 0.0
C180 C 0.28597 0.59303 0.33766 0.0
C181 C 0.22059 0.63349 0.28812 0.0
C182 C 0.26111 0.66219 0.30003 0.0
C183 C 0.29372 0.64096 0.32528 0.0
C184 C 0.21361 0.58547 0.30189 0.0
N185 N 0.24657 0.56549 0.32613 0.0
H186 H 0.30959 0.58013 0.35916 0.0
H187 H 0.18025 0.56556 0.29457 0.0
H188 H 0.19121 0.5983 0.3977 0.0
H189 H 0.11382 0.4893 0.33916 0.0
O190 O 0.25748 0.52795 0.40017 0.0
O191 O 0.22223 0.45465 0.39068 0.0
O192 O 0.19846 0.47038 0.31274 0.0
C193 C 0.24336 0.48541 0.41306 0.0
H194 H 0.37942 0.41044 0.29997 0.0
H195 H 0.09518 0.61953 0.39986 0.0
H196 H 0.19325 0.64862 0.26962 0.0
H197 H 0.32316 0.66218 0.33785 0.0
Co198 Co 0.03705 0.22037 0.85541 0.0
C199 C 0.0295 0.32899 0.84552 0.0
C200 C 0.08569 0.29868 0.81103 0.0
C201 C 0.08571 0.34936 0.80687 0.0
N202 N 0.05028 0.28586 0.83527 0.0
N203 N 0.0509 0.36853 0.82912 0.0
H204 H 1.00046 0.33159 0.86568 0.0
H205 H 0.1106 0.27334 0.79767 0.0
C206 C 0.07053 0.16911 0.78615 0.0
O207 O 0.02451 0.16496 0.77488 0.0
N208 N 0.02636 0.15431 0.87638 0.0
C209 C 1.01676 0.14269 0.91157 0.0
C210 C 1.0109 0.09236 0.91487 0.0
C211 C 0.02622 0.11026 0.859 0.0
N212 N 1.01731 0.07193 0.88183 0.0
C213 C 0.96676 0.24382 0.7968 0.0
C214 C 0.88695 0.20181 0.8328 0.0
C215 C 0.87795 0.23201 0.80263 0.0
C216 C 0.91847 0.25233 0.78389 0.0
C217 C 0.93522 0.19523 0.84523 0.0
N218 N 0.97487 0.21625 0.82771 0.0
H219 H 0.99733 0.26093 0.78247 0.0
H220 H 0.93961 0.17645 0.87092 0.0
H221 H 1.01248 0.16866 0.93357 0.0
H222 H 0.03179 0.10579 0.83023 0.0
O223 O 1.00804 0.25036 0.89722 0.0
O224 O 0.0881 0.2326 0.89197 0.0
O225 O 0.08038 0.18961 0.81662 0.0
C226 C 0.05231 0.25199 0.91113 0.0
H227 H 0.10982 0.37012 0.78887 0.0
H228 H 1.00064 0.07275 0.9395 0.0
H229 H 0.85648 0.18631 0.84844 0.0
H230 H 0.91279 0.27582 0.76028 0.0
Co231 Co 0.30745 0.02827 0.3577 0.0
C232 C 0.198 0.04485 0.35054 0.0
C233 C 0.23944 0.10779 0.33221 0.0
C234 C 0.1894 0.1185 0.32991 0.0
N235 N 0.24505 0.06094 0.34425 0.0
N236 N 0.16322 0.07868 0.34128 0.0
H237 H 0.189 1.01086 0.36432 0.0
H238 H 0.26963 0.13313 0.32651 0.0
C239 C 0.33272 0.07268 0.28358 0.0
O240 O 0.28881 0.06034 0.27088 0.0
N241 N 0.36863 0.9952 0.37204 0.0
C242 C 0.3709 0.95104 0.38904 0.0
C243 C 0.41972 0.93661 0.39139 0.0
C244 C 0.41645 1.0074 0.36482 0.0
N245 N 0.44851 0.97149 0.37543 0.0
C246 C 0.25531 0.93889 0.34337 0.0
C247 C 0.31137 0.90744 0.28515 0.0
C248 C 0.27628 0.87498 0.30055 0.0
C249 C 0.24728 0.892 0.32936 0.0
C250 C 0.31853 0.9545 0.3003 0.0
N251 N 0.29035 0.96998 0.32905 0.0
H252 H 0.23591 0.94786 0.36796 0.0
H253 H 0.34903 0.97665 0.29038 0.0
H254 H 0.33906 0.93008 0.39836 0.0
H255 H 0.42752 0.04141 0.35175 0.0
O256 O 0.27768 1.00821 0.40301 0.0
O257 O 0.31894 0.07849 0.39452 0.0
O258 O 0.34482 0.06172 0.31632 0.0
C259 C 0.29427 0.04934 0.41631 0.0
H260 H 0.17362 0.15341 0.32128 0.0
H261 H 0.43276 0.90275 0.40387 0.0
H262 H 0.33471 0.89585 0.26279 0.0
H263 H 0.22102 0.86787 0.34307 0.0
Co264 Co 0.51736 0.80809 0.85601 0.0
C265 C 0.53966 0.69857 0.85598 0.0
C266 C 0.59132 0.73913 0.82324 0.0
C267 C 0.6034 0.68968 0.82192 0.0
N268 N 0.55002 0.74505 0.8435 0.0
N269 N 0.57105 0.66393 0.84273 0.0
H270 H 0.51159 0.69004 0.876 0.0
H271 H 0.61267 0.76859 0.81091 0.0
C272 C 0.55616 0.83579 0.78043 0.0
O273 O 0.53612 0.79591 0.76621 0.0
N274 N 0.48515 0.87 0.86941 0.0
C275 C 0.44029 0.87362 0.88528 0.0
C276 C 0.42767 0.92278 0.88775 0.0
C277 C 0.49958 0.91738 0.86311 0.0
N278 N 0.46442 0.95054 0.87307 0.0
C279 C 0.43235 0.75084 0.83922 0.0
C280 C 0.38984 0.81315 0.78844 0.0
C281 C 0.36263 0.77188 0.80091 0.0
C282 C 0.38499 0.74073 0.82652 0.0
C283 C 0.43791 0.82217 0.80218 0.0
N284 N 0.45874 0.79085 0.82728 0.0
H285 H 0.4455 0.72848 0.86129 0.0
H286 H 0.45693 0.85582 0.79433 0.0
H287 H 0.41771 0.84248 0.89375 0.0
H288 H 0.5347 0.92737 0.85125 0.0
O289 O 0.49579 0.77985 0.90134 0.0
O290 O 0.56757 0.81898 0.89329 0.0
O291 O 0.55156 0.84448 0.81447 0.0
C292 C 0.53717 0.79572 0.91506 0.0
H293 H 0.63379 0.67421 0.80655 0.0
H294 H 0.39368 0.93679 0.89943 0.0
H295 H 0.37348 0.83912 0.76941 0.0
H296 H 0.36476 0.71038 0.83897 0.0
Co297 Co 0.73124 0.52988 0.35727 0.0
C298 C 0.84108 0.54533 0.35562 0.0
C299 C 0.80583 0.59261 0.31669 0.0
C300 C 0.85657 0.59891 0.31391 0.0
N301 N 0.7958 0.55749 0.34204 0.0
N302 N 0.87845 0.56889 0.33834 0.0
H303 H 0.84722 0.51941 0.37766 0.0
H304 H 0.77884 0.61379 0.3017 0.0
C305 C 0.6956 0.57302 0.28489 0.0
O306 O 0.72715 0.54539 0.26688 0.0
N307 N 0.66773 0.50223 0.37309 0.0
C308 C 0.66168 0.46348 0.39601 0.0
C309 C 0.61195 0.4522 0.39853 0.0
C310 C 0.62125 0.51353 0.36164 0.0
N311 N 0.58663 0.4836 0.37692 0.0
C312 C 0.78026 0.44433 0.3324 0.0
C313 C 0.70606 0.40749 0.28844 0.0
C314 C 0.7466 0.37675 0.29714 0.0
C315 C 0.78429 0.39675 0.31889 0.0
C316 C 0.7027 0.45494 0.30369 0.0
N317 N 0.73973 0.47292 0.32548 0.0
H318 H 0.80815 0.45595 0.35136 0.0
H319 H 0.66938 0.47619 0.29915 0.0
H320 H 0.6914 0.44337 0.40911 0.0
H321 H 0.61266 0.54211 0.34195 0.0
O322 O 0.76241 0.50156 0.39929 0.0
O323 O 0.72991 0.5765 0.39785 0.0
O324 O 0.6946 0.57133 0.3197 0.0
C325 C 0.7532 0.54234 0.41634 0.0
H326 H 0.87585 0.62449 0.29604 0.0
H327 H 0.59584 0.42175 0.41376 0.0
H328 H 0.67639 0.39504 0.27088 0.0
H329 H 0.8156 0.37483 0.32782 0.0
Co330 Co 0.99467 0.71845 0.86075 0.0
C331 C 1.00801 0.82674 0.85455 0.0
C332 C 0.9418 0.80211 0.82748 0.0
C333 C 0.94291 0.85303 0.8268 0.0
N334 N 0.98264 0.78573 0.84486 0.0
N335 N 0.98422 0.86846 0.84423 0.0
H336 H 0.04247 0.82586 0.86965 0.0
H337 H 0.9119 0.77891 0.81773 0.0
C338 C 0.9634 0.6682 0.79139 0.0
O339 O 1.01004 0.66419 0.78181 0.0
N340 N 1.00339 0.64989 0.87722 0.0
C341 C 0.98318 0.62888 0.90733 0.0
C342 C 0.98864 0.57839 0.90569 0.0
C343 C 0.02113 0.61117 0.85793 0.0
N344 N 1.0125 0.56748 0.87465 0.0
C345 C 0.06399 0.74673 0.80308 0.0
C346 C 0.14482 0.70449 0.83747 0.0
C347 C 0.15295 0.73473 0.80707 0.0
C348 C 0.11195 0.75672 0.79011 0.0
C349 C 0.09691 0.69762 0.85066 0.0
N350 N 0.05676 0.7175 0.83324 0.0
H351 H 0.03286 0.7641 0.78963 0.0
H352 H 0.09254 0.67843 0.87632 0.0
H353 H 0.96346 0.64805 0.92855 0.0
H354 H 0.03873 0.61427 0.83169 0.0
O355 O 0.02454 0.74289 0.90412 0.0
O356 O 0.94389 0.7283 0.89797 0.0
O357 O 0.95123 0.69194 0.82005 0.0
C358 C 0.98049 0.74449 0.91815 0.0
H359 H 0.91405 0.87689 0.81623 0.0
H360 H 0.97497 0.5516 0.92531 0.0
H361 H 0.17569 0.68857 0.85235 0.0
H362 H 0.11683 0.78223 0.76765 0.0
Co363 Co 0.80596 1.01466 0.35731 0.0
C364 C 0.69617 0.99228 0.36121 0.0
C365 C 0.73395 0.94184 0.32629 0.0
C366 C 0.68413 0.93047 0.32602 0.0
N367 N 0.74182 0.98191 0.34733 0.0
N368 N 0.66014 0.96199 0.34822 0.0
H369 H 0.68927 0.02014 0.38155 0.0
H370 H 0.76216 0.92092 0.31248 0.0
C371 C 0.83242 0.97287 0.28294 0.0
O372 O 0.79456 0.9952 0.26749 0.0
N373 N 0.86967 0.04675 0.36762 0.0
C374 C 0.87647 0.08715 0.38839 0.0
C375 C 0.92607 0.09963 0.38826 0.0
C376 C 0.91558 0.03559 0.35485 0.0
N377 N 0.95101 0.06738 0.36709 0.0
C378 C 0.74801 0.09756 0.33808 0.0
C379 C 0.80771 0.13632 0.28407 0.0
C380 C 0.76699 0.16427 0.29637 0.0
C381 C 0.73723 0.14375 0.32375 0.0
C382 C 0.81822 0.09019 0.30021 0.0
N383 N 0.78795 0.07099 0.32667 0.0
H384 H 0.72632 0.08562 0.36093 0.0
H385 H 0.85189 0.07126 0.29263 0.0
H386 H 0.84733 0.10676 0.40242 0.0
H387 H 0.92258 1.00592 0.33601 0.0
O388 O 0.7799 0.0397 0.40207 0.0
O389 O 0.81767 0.96739 0.39656 0.0
O390 O 0.83964 0.97693 0.31711 0.0
C391 C 0.79566 0.99945 0.41743 0.0
H392 H 0.6672 0.9014 0.31011 0.0
H393 H 0.94241 0.13032 0.40285 0.0
H394 H 0.83259 0.1509 0.26349 0.0
H395 H 0.7078 0.16456 0.3365 0.0
Co396 Co 0.52457 0.73734 0.12871 0.0
C397 C 0.54037 0.84736 0.12963 0.0
C398 C 0.59617 0.81043 0.16081 0.0
C399 C 0.60516 0.86076 0.16189 0.0
N400 N 0.55434 0.80175 0.14154 0.0
N401 N 0.56959 0.88406 0.14259 0.0
H402 H 0.51139 0.85383 0.10989 0.0
H403 H 0.61994 0.7824 0.17239 0.0
C404 C 0.56818 0.70866 0.20196 0.0
O405 O 0.54463 0.74562 0.21727 0.0
N406 N 0.49474 0.67398 0.11523 0.0
C407 C 0.45211 0.66891 0.09632 0.0
C408 C 0.43825 0.6199 0.09629 0.0
C409 C 0.50627 0.62743 0.12644 0.0
N410 N 0.4719 0.59382 0.11554 0.0
C411 C 0.43838 0.78816 0.15146 0.0
C412 C 0.40258 0.71779 0.19926 0.0
C413 C 0.37138 0.7571 0.18881 0.0
C414 C 0.39085 0.79303 0.16527 0.0
C415 C 0.45035 0.71397 0.18425 0.0
N416 N 0.46772 0.74895 0.16038 0.0
H417 H 0.44903 0.81381 0.13063 0.0
H418 H 0.47197 0.68134 0.19017 0.0
H419 H 0.43116 0.69908 0.08459 0.0
H420 H 0.53756 0.61847 0.1437 0.0
O421 O 0.49735 0.76686 0.08571 0.0
O422 O 0.57151 0.73214 0.08843 0.0
O423 O 0.56444 0.70189 0.16763 0.0
C424 C 0.5382 0.75555 0.06918 0.0
H425 H 0.63593 0.87874 0.1755 0.0
H426 H 0.40528 0.60474 0.08363 0.0
H427 H 0.39001 0.68921 0.21778 0.0
H428 H 0.36831 0.82312 0.155 0.0
Co429 Co 0.80526 0.51474 0.62943 0.0
C430 C 0.6951 0.53192 0.63081 0.0
C431 C 0.73598 0.59331 0.65208 0.0
C432 C 0.68631 0.60517 0.6519 0.0
N433 N 0.7417 0.54668 0.6399 0.0
N434 N 0.66052 0.5667 0.6381 0.0
H435 H 0.68642 0.49807 0.61684 0.0
H436 H 0.76602 0.6178 0.6597 0.0
C437 C 0.82243 0.55738 0.70457 0.0
O438 O 0.77774 0.54409 0.71509 0.0
N439 N 0.86854 0.48347 0.61818 0.0
C440 C 0.87468 0.44333 0.59699 0.0
C441 C 0.92453 0.4324 0.59497 0.0
C442 C 0.91495 0.49601 0.62921 0.0
N443 N 0.94975 0.46547 0.61521 0.0
C444 C 0.75202 0.42552 0.64307 0.0
C445 C 0.80552 0.39381 0.7028 0.0
C446 C 0.76908 0.36243 0.68811 0.0
C447 C 0.74222 0.37919 0.6579 0.0
C448 C 0.81437 0.44027 0.68688 0.0
N449 N 0.7871 0.4561 0.65765 0.0
H450 H 0.73374 0.43467 0.61795 0.0
H451 H 0.84523 0.4618 0.69673 0.0
H452 H 0.84491 0.42307 0.584 0.0
H453 H 0.92336 0.52696 0.64677 0.0
O454 O 0.77971 0.49397 0.58312 0.0
O455 O 0.81804 0.56548 0.59262 0.0
O456 O 0.83787 0.54808 0.67244 0.0
C457 C 0.79595 0.53555 0.57005 0.0
H458 H 0.67074 0.63979 0.66102 0.0
H459 H 0.94097 0.40188 0.58034 0.0
H460 H 0.82864 0.38166 0.72522 0.0
H461 H 0.71622 0.35531 0.64385 0.0
Co462 Co 1.00503 0.81015 0.12818 0.0
C463 C 0.9861 0.70146 0.12308 0.0
C464 C 0.94429 0.73238 0.16686 0.0
C465 C 0.93728 0.68177 0.1669 0.0
N466 N 0.97628 0.74494 0.13998 0.0
N467 N 0.9636 0.66253 0.1393 0.0
H468 H 1.01027 0.69773 0.09978 0.0
H469 H 0.92634 0.75754 0.1852 0.0
C470 C 0.96554 0.84109 0.20336 0.0
O471 O 0.99252 0.8088 0.2214 0.0
N472 N 0.03405 0.87429 0.11584 0.0
C473 C 0.07392 0.88149 0.09422 0.0
C474 C 0.08447 0.93128 0.09246 0.0
C475 C 0.02132 0.92011 0.1274 0.0
N476 N 0.05168 0.95547 0.11348 0.0
C477 C 0.09069 0.75543 0.146 0.0
C478 C 0.12992 0.8169 0.1984 0.0
C479 C 0.15814 0.77616 0.18661 0.0
C480 C 0.13754 0.74573 0.1598 0.0
C481 C 0.08335 0.82652 0.18257 0.0
N482 N 0.06374 0.79514 0.1572 0.0
H483 H 0.07807 0.73273 0.12395 0.0
H484 H 0.06412 0.86011 0.1897 0.0
H485 H 0.09464 0.85245 0.08103 0.0
H486 H 0.9907 0.9277 0.14553 0.0
O487 O 0.02874 0.78479 0.08271 0.0
O488 O 0.95471 0.81895 0.09077 0.0
O489 O 0.96734 0.84313 0.16871 0.0
C490 C 0.98648 0.79824 0.06898 0.0
H491 H 0.91429 0.66073 0.18559 0.0
H492 H 0.11481 0.94838 0.07768 0.0
H493 H 0.14447 0.84233 0.21847 0.0
H494 H 0.15853 0.71632 0.14729 0.0
Co495 Co 0.74267 0.99787 0.63276 0.0
C496 C 0.85258 0.97912 0.63276 0.0
C497 C 0.81512 0.92941 0.66899 0.0
C498 C 0.86522 0.91922 0.66993 0.0
N499 N 0.80684 0.96796 0.6463 0.0
N500 N 0.88888 0.95039 0.64697 0.0
H501 H 0.85946 1.0069 0.61209 0.0
H502 H 0.78713 0.90864 0.68343 0.0
C503 C 0.70565 0.95224 0.70342 0.0
O504 O 0.73767 0.9782 0.72247 0.0
N505 N 0.67926 0.02758 0.61863 0.0
C506 C 0.67353 0.06782 0.59722 0.0
C507 C 0.62411 0.08033 0.59611 0.0
C508 C 0.63277 0.01651 0.63045 0.0
N509 N 0.59826 0.04829 0.61713 0.0
C510 C 0.79382 0.08101 0.66033 0.0
C511 C 0.71895 0.11772 0.70349 0.0
C512 C 0.75869 0.1492 0.694 0.0
C513 C 0.79722 0.12907 0.67324 0.0
C514 C 0.71583 0.0702 0.68839 0.0
N515 N 0.75284 0.0525 0.66657 0.0
H516 H 0.82215 0.06918 0.64186 0.0
H517 H 0.68231 0.04899 0.69268 0.0
H518 H 0.70331 0.08791 0.58404 0.0
H519 H 0.62469 0.98758 0.64993 0.0
O520 O 0.77362 0.02871 0.59162 0.0
O521 O 0.73919 0.95422 0.5907 0.0
O522 O 0.70546 0.95447 0.66871 0.0
C523 C 0.76214 0.98957 0.57312 0.0
H524 H 0.88269 0.89109 0.68655 0.0
H525 H 0.60856 0.11127 0.58124 0.0
H526 H 0.6892 0.13005 0.72094 0.0
H527 H 0.82842 0.15127 0.66422 0.0
C528 C 0.4555 0.24439 0.00761 0.0
C529 C 0.48551 0.27237 0.03131 0.0
C530 C 0.45535 0.25411 0.96989 0.0
C531 C 0.48453 0.29249 0.95517 0.0
H532 H 0.43431 0.21324 0.01794 0.0
H533 H 0.43437 0.23005 0.95201 0.0
S534 S 0.56412 0.38034 0.00574 0.0
N535 N 0.54142 0.34296 0.03729 0.0
N536 N 0.54033 0.36098 0.96689 0.0
C537 C 0.51203 0.32242 0.97873 0.0
C538 C 0.51263 0.31249 0.01676 0.0
C539 C 0.28486 0.4462 0.46661 0.0
C540 C 0.2469 0.47598 0.45219 0.0
C541 C 0.29544 0.44667 0.50416 0.0
C542 C 0.26873 0.47754 0.52783 0.0
H543 H 0.30819 0.42478 0.4486 0.0
H544 H 0.3265 0.42525 0.51425 0.0
S545 S 0.16255 0.55841 0.50291 0.0
N546 N 0.18018 0.5334 0.46415 0.0
N547 N 0.19983 0.53511 0.53422 0.0
C548 C 0.22884 0.50514 0.51363 0.0
C549 C 0.21805 0.50423 0.47581 0.0
C550 C 0.09373 0.25099 0.97244 0.0
C551 C 0.05903 0.27182 0.94818 0.0
C552 C 0.09238 0.26239 0.00982 0.0
C553 C 0.05639 0.29487 0.02357 0.0
H554 H 0.11977 0.22345 0.96298 0.0
H555 H 0.11746 0.24352 0.02826 0.0
S556 S 0.96316 0.36521 0.97059 0.0
N557 N 0.99216 0.33124 0.94009 0.0
N558 N 0.98957 0.35185 0.00998 0.0
C559 C 0.02416 0.31846 -0.00076 0.0
C560 C 0.02557 0.3072 0.96153 0.0
C561 C 0.3234 0.03632 0.47903 0.0
C562 C 0.28925 0.05859 0.45534 0.0
C563 C 0.31338 0.03232 0.51629 0.0
C564 C 0.26895 0.05063 0.53107 0.0
H565 H 0.35668 0.01924 0.46836 0.0
H566 H 0.33979 1.01299 0.53345 0.0
S567 S 0.1686 0.11408 0.48022 0.0
N568 N 0.21025 0.10053 0.4488 0.0
N569 N 0.19167 0.09411 0.51934 0.0
C570 C 0.23572 0.07548 0.50791 0.0
C571 C 0.24575 0.079 0.46978 0.0
C572 C 0.50886 0.81134 0.97736 0.0
C573 C 0.54515 0.79154 0.95445 0.0
C574 C 0.50876 0.80098 0.01458 0.0
C575 C 0.54451 0.76958 0.0304 0.0
H576 H 0.47923 0.83383 0.96617 0.0
H577 H 0.47919 0.81661 0.03081 0.0
S578 S 0.64901 0.71007 0.98176 0.0
N579 N 0.61915 0.74106 0.94964 0.0
N580 N 0.61893 0.72071 0.02017 0.0
C581 C 0.58244 0.75108 0.00793 0.0
C582 C 0.58271 0.76221 0.96974 0.0
C583 C 0.79836 0.50956 0.47008 0.0
C584 C 0.76873 0.54729 0.45493 0.0
C585 C 0.80934 0.50818 0.50718 0.0
C586 C 0.79204 0.5449 0.53071 0.0
H587 H 0.81193 0.47952 0.45342 0.0
H588 H 0.83021 0.47706 0.5178 0.0
S589 S 0.71642 0.65382 0.50522 0.0
N590 N 0.72457 0.62408 0.46643 0.0
N591 N 0.74615 0.62154 0.5367 0.0
C592 C 0.76479 0.58444 0.51605 0.0
C593 C 0.75296 0.58566 0.47797 0.0
C594 C 1.01455 0.80724 0.0058 0.0
C595 C 0.97744 0.79167 0.02995 0.0
C596 C 1.01309 0.79386 0.96924 0.0
C597 C 0.97472 0.76386 0.95541 0.0
H598 H 0.04605 0.82847 0.01555 0.0
H599 H 0.04358 0.80564 0.952 0.0
S600 S 0.86743 0.71507 0.00768 0.0
N601 N 0.9 0.74667 0.03791 0.0
N602 N 0.89726 0.72087 0.96854 0.0
C603 C 0.93587 0.74999 0.97892 0.0
C604 C 0.93729 0.76402 0.01645 0.0
C605 C 0.79099 0.0361 0.47859 0.0
C606 C 0.79034 0.99332 0.45712 0.0
C607 C 0.78263 0.03374 0.51597 0.0
C608 C 0.77248 0.98853 0.53359 0.0
H609 H 0.79782 0.07206 0.46637 0.0
H610 H 0.78316 0.06815 0.53099 0.0
S611 S 0.7674 0.86531 0.48968 0.0
N612 N 0.78 0.90399 0.4559 0.0
N613 N 0.76321 0.89948 0.52678 0.0
C614 C 0.77219 0.94511 0.51259 0.0
C615 C 0.78156 0.9475 0.47421 0.0
C616 C 0.6079 0.96659 0.13218 0.0
C617 C 0.56518 0.93686 0.13585 0.0
C618 C 0.60455 0.01769 0.12523 0.0
C619 C 0.5583 0.0417 0.12191 0.0
H620 H 0.64437 0.9501 0.13415 0.0
H621 H 0.63868 0.03864 0.12272 0.0
S622 S 0.43496 0.98115 0.13087 0.0
N623 N 0.47495 0.93573 0.13711 0.0
N624 N 0.46866 0.03133 0.12342 0.0
C625 C 0.51521 1.01254 0.12608 0.0
C626 C 0.51864 0.96035 0.13307 0.0
C627 C 0.58208 0.5184 0.63339 0.0
C628 C 0.60766 0.56389 0.63059 0.0
C629 C 0.53086 0.51476 0.62598 0.0
C630 C 0.50315 0.55636 0.61506 0.0
H631 H 0.60178 0.48535 0.64163 0.0
H632 H 0.513 0.47893 0.62816 0.0
S633 S 0.55175 0.68436 0.60429 0.0
N634 N 0.60077 0.65146 0.61595 0.0
N635 N 0.50486 0.64496 0.60343 0.0
C636 C 0.5281 0.60216 0.61264 0.0
C637 C 0.58016 0.60585 0.62007 0.0
C638 C 0.98409 0.52523 0.14989 0.0
C639 C 0.97929 0.50795 0.11397 0.0
C640 C 0.97851 0.57575 0.15802 0.0
C641 C 0.9691 0.61086 0.13043 0.0
H642 H 0.99071 0.4993 0.17192 0.0
H643 H 0.98185 0.58761 0.18604 0.0
S644 S 0.95507 0.58477 0.03193 0.0
N645 N 0.9654 0.53 0.05059 0.0
N646 N 0.95605 0.62483 0.06578 0.0
C647 C 0.96538 0.59415 0.09436 0.0
C648 C 0.97012 0.54272 0.08617 0.0
C649 C 0.96522 0.99861 0.6323 0.0
C650 C 0.9417 0.95278 0.63915 0.0
C651 C 1.01656 1.00174 0.62505 0.0
C652 C 0.04637 0.95908 0.62378 0.0
H653 H 0.94384 0.03244 0.63293 0.0
H654 H 0.03293 0.03769 0.61974 0.0
S655 S 1.00371 0.83022 0.64047 0.0
N656 N 0.95291 0.86378 0.64424 0.0
N657 N 0.04886 0.86982 0.63141 0.0
C658 C 0.02346 0.91315 0.6309 0.0
C659 C 0.97137 0.90996 0.63841 0.0
C660 C 0.52488 0.5853 0.85484 0.0
C661 C 0.57022 0.61077 0.84957 0.0
C662 C 0.5233 0.53357 0.86064 0.0
C663 C 0.56701 0.5051 0.86186 0.0
H664 H 0.49023 0.60543 0.85405 0.0
H665 H 0.48765 0.51586 0.86484 0.0
S666 S 0.6953 0.55311 0.84908 0.0
N667 N 0.66 0.60274 0.84631 0.0
N668 N 0.65685 0.50632 0.85574 0.0
C669 C 0.61246 0.53003 0.85625 0.0
C670 C 0.61411 0.58251 0.85048 0.0
C671 C 0.94924 0.56736 0.381 0.0
C672 C 0.93078 0.56339 0.34532 0.0
C673 C 1.00027 0.56321 0.38823 0.0
C674 C 0.03445 0.55353 0.3602 0.0
H675 H 0.92409 0.57483 0.40329 0.0
H676 H 1.01325 0.56767 0.41595 0.0
S677 S 1.00445 0.53736 0.26242 0.0
N678 N 0.9502 0.54799 0.28183 0.0
N679 N 0.046 0.53897 0.29552 0.0
C680 C 1.01625 0.54812 0.32455 0.0
C681 C 0.96443 0.55345 0.31707 0.0
C682 C 0.99217 1.00713 0.83817 0.0
C683 C 1.01212 0.02042 0.87221 0.0
C684 C 0.98432 0.95744 0.82898 0.0
C685 C 0.99625 0.91898 0.85335 0.0
H686 H 0.98122 0.03536 0.8188 0.0
H687 H 0.96834 0.94902 0.80265 0.0
S688 S 0.05116 0.93377 0.9455 0.0
N689 N 0.04598 0.99079 0.92971 0.0
N690 N 0.02933 0.89767 0.91305 0.0
C691 C 1.01708 0.93165 0.88724 0.0
C692 C 0.02535 0.98227 0.89653 0.0
C693 C 0.53162 1.01144 0.36914 0.0
C694 C 0.50159 0.96866 0.36862 0.0
C695 C 0.58328 1.00895 0.36301 0.0
C696 C 0.60716 0.9636 0.35585 0.0
H697 H 0.51513 0.04709 0.37461 0.0
H698 H 0.60456 0.04298 0.36331 0.0
S699 S 0.54517 0.84074 0.3505 0.0
N700 N 0.49964 0.87974 0.35874 0.0
N701 N 0.59611 0.87473 0.34923 0.0
C702 C 0.57742 0.92058 0.35529 0.0
C703 C 0.52494 0.92318 0.36118 0.0
C704 C 0.50656 0.0842 0.86229 0.0
C705 C 0.46219 0.10923 0.85343 0.0
C706 C 0.50731 0.03249 0.86844 0.0
C707 C 0.46365 1.00367 0.86638 0.0
H708 H 0.54115 0.10458 0.86381 0.0
H709 H 0.54226 1.01501 0.87512 0.0
S710 S 0.33784 0.05081 0.84387 0.0
N711 N 0.37331 0.10065 0.84373 0.0
N712 N 0.37514 1.00433 0.85348 0.0
C713 C 0.4192 0.02832 0.85742 0.0
C714 C 0.41837 0.08073 0.85141 0.0
C715 C 0.46667 0.47526 0.32445 0.0
C716 C 0.43109 0.46942 0.35223 0.0
C717 C 0.51731 0.4816 0.33268 0.0
C718 C 0.53422 0.48123 0.36895 0.0
H719 H 0.4551 0.47543 0.2962 0.0
H720 H 0.54362 0.48553 0.31055 0.0
S721 S 0.45617 0.46716 0.45152 0.0
N722 N 0.41635 0.46404 0.41736 0.0
N723 N 0.51138 0.47513 0.43277 0.0
C724 C 0.49901 0.47546 0.3969 0.0
C725 C 0.44749 0.46982 0.38857 0.0
C726 C 0.99409 0.43403 0.85031 0.0
C727 C 0.04112 0.41998 0.83719 0.0
C728 C 0.98489 0.48234 0.8621 0.0
C729 C 0.02202 0.51885 0.86065 0.0
H730 H 0.96414 0.40733 0.85191 0.0
H731 H 0.94842 0.49131 0.8725 0.0
S732 S 0.15106 0.50291 0.8284 0.0
N733 N 0.12547 0.44771 0.82371 0.0
N734 N 0.10694 0.53886 0.84458 0.0
C735 C 0.06857 0.50622 0.84652 0.0
C736 C 0.07842 0.45675 0.83506 0.0
C737 C 0.03024 0.11428 0.36098 0.0
C738 C 1.00397 0.06907 0.35886 0.0
C739 C 0.08169 0.11714 0.35484 0.0
C740 C 0.10972 0.07498 0.34613 0.0
H741 H 1.01096 0.14816 0.36742 0.0
H742 H 0.09976 0.15273 0.35766 0.0
S743 S 0.05946 0.94781 0.33461 0.0
N744 N 1.01072 0.98097 0.34633 0.0
N745 N 0.10668 0.98685 0.33334 0.0
C746 C 0.08397 0.02967 0.34287 0.0
C747 C 0.03144 0.02661 0.34944 0.0
C748 C 0.50716 0.45949 0.12812 0.0
C749 C 0.46182 0.43691 0.13821 0.0
C750 C 0.51068 0.51089 0.12173 0.0
C751 C 0.46884 0.54166 0.1246 0.0
H752 H 0.54033 0.4373 0.1255 0.0
H753 H 0.54608 0.52657 0.11372 0.0
S754 S 0.34177 0.50184 0.15096 0.0
N755 N 0.37429 0.45018 0.15094 0.0
N756 N 0.38117 0.54617 0.13957 0.0
C757 C 0.42352 0.51974 0.13504 0.0
C758 C 0.41995 0.46762 0.1417 0.0
C759 C 0.07324 0.46163 0.66367 0.0
C760 C 0.10749 0.46059 0.63471 0.0
C761 C 0.02178 0.46464 0.65712 0.0
C762 C 1.00271 0.46593 0.62148 0.0
H763 H 0.08643 0.46029 0.69152 0.0
H764 H 0.9965 0.46429 0.67992 0.0
S765 S 0.07633 0.46144 0.53635 0.0
N766 N 0.1184 0.45969 0.5691 0.0
N767 N 0.02194 0.4647 0.55696 0.0
C768 C 0.0365 0.46433 0.59237 0.0
C769 C 0.08881 0.46197 0.59896 0.0
C770 C 0.05712 0.04165 0.09107 0.0
C771 C 0.05166 1.00805 0.12024 0.0
C772 C 0.06122 0.09284 0.09709 0.0
C773 C 0.06151 0.11214 0.13258 0.0
H774 H 0.05844 0.02808 0.06338 0.0
H775 H 0.06561 0.11745 0.07396 0.0
S776 S 0.04754 0.04023 0.21823 0.0
N777 N 0.04549 0.998 0.18584 0.0
N778 N 0.05466 0.09401 0.19721 0.0
C779 C 0.05569 0.07907 0.16196 0.0
C780 C 0.05033 0.02707 0.15578 0.0
C781 C 0.46974 0.10087 0.63079 0.0
C782 C 0.44048 0.05895 0.63864 0.0
C783 C 0.52095 0.09699 0.62432 0.0
C784 C 0.54555 0.05099 0.62534 0.0
H785 H 0.45281 0.13704 0.62891 0.0
H786 H 0.54142 0.13063 0.61857 0.0
S787 S 0.48647 0.92993 0.64685 0.0
N788 N 0.44056 0.97007 0.64928 0.0
N789 N 0.53621 0.96249 0.63574 0.0
C790 C 0.51689 1.00877 0.63385 0.0
C791 C 0.46462 1.01279 0.6407 0.0
C792 C 0.79777 0.23283 0.19261 0.0
C793 C 0.82107 0.27962 0.19153 0.0
C794 C 0.74598 0.22806 0.19357 0.0
C795 C 0.71503 0.26989 0.19464 0.0
H796 H 0.81965 0.19939 0.19074 0.0
H797 H 0.73045 0.19126 0.19123 0.0
S798 S 0.75768 0.4007 0.20088 0.0
N799 N 0.8091 0.36857 0.19581 0.0
N800 N 0.71242 0.35948 0.20213 0.0
C801 C 0.73816 0.3167 0.19793 0.0
C802 C 0.79088 0.32163 0.19539 0.0
C803 C 0.32439 0.73642 0.69892 0.0
C804 C 0.2818 0.70627 0.69682 0.0
C805 C 0.3205 0.78807 0.70037 0.0
C806 C 0.27397 0.81171 0.6989 0.0
H807 H 0.3611 0.72055 0.69672 0.0
H808 H 0.35435 0.80981 0.69985 0.0
S809 S 0.15108 0.74933 0.69927 0.0
N810 N 0.19152 0.70376 0.70063 0.0
N811 N 0.18437 0.80065 0.6989 0.0
C812 C 0.23113 0.78196 0.70014 0.0
C813 C 0.23506 0.72935 0.70011 0.0
C814 C 0.79051 0.20785 0.78943 0.0
C815 C 0.82599 0.24545 0.79401 0.0
C816 C 0.73975 0.21854 0.78875 0.0
C817 C 0.72218 0.2671 0.79385 0.0
H818 H 0.8021 0.16961 0.78737 0.0
H819 H 0.71391 0.18803 0.78578 0.0
S820 S 0.8007 0.37902 0.80617 0.0
N821 N 0.84082 0.33337 0.80187 0.0
N822 N 0.74518 0.3535 0.8023 0.0
C823 C 0.75754 0.30544 0.79674 0.0
C824 C 0.80947 0.29456 0.79661 0.0
C825 C 0.22709 0.79762 0.2899 0.0
C826 C 0.27358 0.82157 0.29115 0.0
C827 C 0.2233 0.74594 0.2901 0.0
C828 C 0.26591 0.71595 0.29101 0.0
H829 H 0.19319 0.81903 0.29072 0.0
H830 H 0.18659 0.72972 0.29188 0.0
S831 S 0.39665 0.76043 0.28826 0.0
N832 N 0.3632 0.81135 0.28998 0.0
N833 N 0.35624 0.71442 0.28732 0.0
C834 C 0.31266 0.73955 0.28868 0.0
C835 C 0.31648 0.79222 0.28943 0.0
C836 C 0.22357 0.79384 0.79614 0.0
C837 C 0.20475 0.74522 0.79562 0.0
C838 C 0.27501 0.80294 0.79446 0.0
C839 C 0.30915 0.76368 0.79201 0.0
H840 H 0.19877 0.82468 0.8006 0.0
H841 H 0.28811 0.84055 0.79788 0.0
S842 S 0.27719 0.63059 0.78207 0.0
N843 N 0.22317 0.6583 0.78714 0.0
N844 N 0.31933 0.67508 0.78301 0.0
C845 C 0.29005 0.71541 0.78773 0.0
C846 C 0.23802 0.70627 0.78982 0.0
C847 C 0.80116 0.24881 0.28286 0.0
C848 C 0.75975 0.21736 0.28608 0.0
C849 C 0.79583 0.3003 0.28283 0.0
C850 C 0.74907 0.32294 0.28746 0.0
H851 H 0.83841 0.23393 0.28254 0.0
H852 H 0.82926 0.32249 0.28083 0.0
S853 S 0.62777 0.2568 0.28869 0.0
N854 N 0.66948 0.21248 0.28568 0.0
N855 N 0.65968 0.30894 0.28996 0.0
C856 C 0.70691 0.29188 0.28733 0.0
C857 C 0.71227 0.23931 0.28572 0.0
C858 C 0.29422 0.80583 0.20167 0.0
C859 C 0.31733 0.75934 0.19801 0.0
C860 C 0.24255 0.81079 0.20063 0.0
C861 C 0.21135 0.76927 0.19719 0.0
H862 H 0.31633 0.83927 0.20344 0.0
H863 H 0.22744 0.84783 0.20034 0.0
S864 S 0.2522 0.63799 0.19551 0.0
N865 N 0.30427 0.67024 0.19542 0.0
N866 N 0.20723 0.67916 0.19766 0.0
C867 C 0.23372 0.72206 0.19815 0.0
C868 C 0.28655 0.71713 0.19769 0.0
C869 C 0.80434 0.22917 0.70511 0.0
C870 C 0.75871 0.20378 0.70125 0.0
C871 C 0.80712 0.28085 0.70385 0.0
C872 C 0.76427 0.30968 0.69945 0.0
H873 H 0.83878 0.20899 0.70794 0.0
H874 H 0.84351 0.29798 0.70415 0.0
S875 S 0.63451 0.26349 0.69622 0.0
N876 N 0.66872 0.213 0.69729 0.0
N877 N 0.67412 0.31008 0.69801 0.0
C878 C 0.71797 0.28541 0.69967 0.0
C879 C 0.71509 0.2326 0.69986 0.0
C880 C 0.34947 0.1363 0.23485 0.0
C881 C 0.36769 0.10225 0.26073 0.0
C882 C 0.38178 0.16788 0.21547 0.0
C883 C 0.4333 0.16698 0.22174 0.0
H884 H 0.3099 0.13951 0.23019 0.0
H885 H 0.36628 0.19401 0.19615 0.0
S886 S 0.50071 0.07922 0.28133 0.0
N887 N 0.44156 0.06509 0.28718 0.0
N888 N 0.50158 0.12613 0.25238 0.0
C889 C 0.45216 0.13202 0.24631 0.0
C890 C 0.41953 0.09922 0.26539 0.0
C891 C 0.40886 0.39758 0.77564 0.0
C892 C 0.44409 0.36716 0.75837 0.0
C893 C 0.37568 0.42688 0.75559 0.0
C894 C 0.3763 0.4274 0.71729 0.0
H895 H 0.40642 0.39861 0.80508 0.0
H896 H 0.34939 0.44937 0.77039 0.0
S897 S 0.46252 0.35589 0.65858 0.0
N898 N 0.47836 0.3404 0.70052 0.0
N899 N 0.4162 0.39525 0.66273 0.0
C900 C 0.41174 0.39754 0.69956 0.0
C901 C 0.44549 0.36752 0.72008 0.0
C902 C 0.1367 0.40557 0.27422 0.0
C903 C 0.17057 0.43743 0.25636 0.0
C904 C 0.10505 0.37396 0.25474 0.0
C905 C 0.10551 0.37296 0.21649 0.0
H906 H 0.13457 0.40471 0.30367 0.0
H907 H 0.0798 0.35037 0.26989 0.0
S908 S 0.18715 0.44885 0.15633 0.0
N909 N 0.20248 0.46582 0.19796 0.0
N910 N 0.14329 0.4066 0.1613 0.0
C911 C 0.13912 0.40471 0.19818 0.0
C912 C 0.17152 0.43681 0.21809 0.0
C913 C 0.10294 0.13376 0.72825 0.0
C914 C 0.1104 0.14426 0.76528 0.0
C915 C 0.13832 0.10783 0.7081 0.0
C916 C 0.18262 0.0905 0.72412 0.0
H917 H 0.06933 0.14561 0.71459 0.0
H918 H 0.13043 0.10118 0.67963 0.0
S919 S 0.22031 0.10881 0.82045 0.0
N920 N 0.16578 0.13611 0.8173 0.0
N921 N 0.2322 0.08675 0.77951 0.0
C922 C 0.19093 0.10131 0.76113 0.0
C923 C 0.15491 0.1283 0.78164 0.0
C924 C 0.65674 0.87386 0.71257 0.0
C925 C 0.66656 0.92327 0.7222 0.0
C926 C 0.61978 0.84609 0.73063 0.0
C927 C 0.59083 0.86708 0.75851 0.0
H928 H 0.67861 0.85623 0.69158 0.0
H929 H 0.61489 0.80757 0.72342 0.0
S930 S 0.59549 0.99825 0.78809 0.0
N931 N 0.6408 0.9937 0.75806 0.0
N932 N 0.57008 0.94268 0.79054 0.0
C933 C 0.59846 0.91744 0.76652 0.0
C934 C 0.63663 0.94524 0.74874 0.0
C935 C 0.62965 0.63906 0.20661 0.0
C936 C 0.60015 0.67481 0.22408 0.0
C937 C 0.6602 0.60663 0.22643 0.0
C938 C 0.66258 0.60811 0.26473 0.0
H939 H 0.62944 0.63605 0.1772 0.0
H940 H 0.68202 0.58002 0.21143 0.0
S941 S 0.59223 0.69425 0.32403 0.0
N942 N 0.57506 0.70933 0.28229 0.0
N943 N 0.63215 0.64851 0.31948 0.0
C944 C 0.63304 0.6435 0.28266 0.0
C945 C 0.60203 0.67674 0.26241 0.0
C946 C 0.84351 0.62962 0.74419 0.0
C947 C 0.85612 0.58313 0.72989 0.0
C948 C 0.87793 0.65703 0.76486 0.0
C949 C 0.92588 0.63864 0.77162 0.0
H950 H 0.80753 0.64558 0.7383 0.0
H951 H 0.86754 0.69331 0.77461 0.0
S952 S 0.97292 0.51466 0.74649 0.0
N953 N 0.91719 0.51741 0.72782 0.0
N954 N 0.98134 0.56824 0.76695 0.0
C955 C 0.93762 0.59098 0.75921 0.0
C956 C 0.90286 0.56338 0.73819 0.0
C957 C 0.93404 0.87979 0.26094 0.0
C958 C 0.931 0.87479 0.22292 0.0
C959 C 0.9023 0.91171 0.27986 0.0
C960 C 0.8658 0.93994 0.26167 0.0
H961 H 0.96139 0.85914 0.27634 0.0
H962 H 0.90645 0.914 0.30915 0.0
S963 S 0.84238 0.94071 0.16202 0.0
N964 N 0.8883 0.90115 0.16758 0.0
N965 N 0.82897 0.96093 0.20317 0.0
C966 C 0.86239 0.93542 0.22361 0.0
C967 C 0.89484 0.903 0.20427 0.0
loop_
_geom_bond_atom_site_label_1
_geom_bond_atom_site_label_2
_geom_bond_distance
_geom_bond_site_symmetry_2
_ccdc_geom_bond_type
Co0 N4 2.148 . S
Co0 N10 2.128 . S
Co0 N20 2.194 . S
Co0 O25 2.351 . S
Co0 O26 2.155 . S
Co0 O27 2.096 . S
C1 N4 1.301 . S
C1 N5 1.328 . S
C1 H6 0.930 . S
C2 C3 1.333 . S
C2 N4 1.317 . S
C2 H7 0.930 . S
C3 C2 1.333 . S
C3 N5 1.350 . S
C3 H29 0.931 . S
N4 Co0 2.148 . S
N4 C1 1.301 . S
N4 C2 1.317 . S
N5 C1 1.328 . S
N5 C3 1.350 . S
H6 C1 0.930 . S
H7 C2 0.930 . S
C8 O9 1.224 . S
C8 O27 1.247 . S
O9 C8 1.224 . S
N10 Co0 2.128 . S
N10 C11 1.355 . S
N10 C13 1.311 . S
C11 N10 1.355 . S
C11 C12 1.363 . S
C11 H23 0.929 . S
C12 C11 1.363 . S
C12 N14 1.375 . S
C12 H30 0.931 . S
C13 N10 1.311 . S
C13 N14 1.347 . S
C13 H24 0.929 . S
N14 C12 1.375 . S
N14 C13 1.347 . S
C15 C18 1.365 . S
C15 N20 1.328 . S
C15 H21 0.929 . S
C16 C17 1.362 . S
C16 C19 1.378 . S
C16 H31 0.929 . S
C17 C16 1.362 . S
C17 C18 1.366 . S
C18 C15 1.365 . S
C18 C17 1.366 . S
C18 H32 0.930 . S
C19 C16 1.378 . S
C19 N20 1.315 . S
C19 H22 0.930 . S
N20 Co0 2.194 . S
N20 C15 1.328 . S
N20 C19 1.315 . S
H21 C15 0.929 . S
H22 C19 0.930 . S
H23 C11 0.929 . S
H24 C13 0.929 . S
O25 Co0 2.351 . S
O25 C28 1.244 . S
O26 Co0 2.155 . S
O26 C28 1.240 . S
O27 Co0 2.096 . S
O27 C8 1.247 . S
C28 O25 1.244 . S
C28 O26 1.240 . S
H29 C3 0.931 . S
H30 C12 0.931 . S
H31 C16 0.929 . S
H32 C18 0.930 . S
Co33 N37 2.148 . S
Co33 N43 2.128 . S
Co33 N53 2.194 . S
Co33 O58 2.351 . S
Co33 O59 2.155 . S
Co33 O60 2.096 . S
C34 N37 1.301 . S
C34 N38 1.328 . S
C34 H39 0.930 . S
C35 C36 1.333 . S
C35 N37 1.317 . S
C35 H40 0.930 . S
C36 C35 1.333 . S
C36 N38 1.350 . S
C36 H62 0.931 . S
N37 Co33 2.148 . S
N37 C34 1.301 . S
N37 C35 1.317 . S
N38 C34 1.328 . S
N38 C36 1.350 . S
H39 C34 0.930 . S
H40 C35 0.930 . S
C41 O42 1.224 . S
C41 O60 1.247 . S
O42 C41 1.224 . S
N43 Co33 2.128 . S
N43 C44 1.355 . S
N43 C46 1.311 . S
C44 N43 1.355 . S
C44 C45 1.363 . S
C44 H56 0.929 . S
C45 C44 1.363 . S
C45 N47 1.375 . S
C45 H63 0.931 . S
C46 N43 1.311 . S
C46 N47 1.347 . S
C46 H57 0.929 . S
N47 C45 1.375 . S
N47 C46 1.347 . S
C48 C51 1.365 . S
C48 N53 1.328 . S
C48 H54 0.929 . S
C49 C50 1.362 . S
C49 C52 1.378 . S
C49 H64 0.929 . S
C50 C49 1.362 . S
C50 C51 1.366 . S
C51 C48 1.365 . S
C51 C50 1.366 . S
C51 H65 0.930 . S
C52 C49 1.378 . S
C52 N53 1.315 . S
C52 H55 0.930 . S
N53 Co33 2.194 . S
N53 C48 1.328 . S
N53 C52 1.315 . S
H54 C48 0.929 . S
H55 C52 0.930 . S
H56 C44 0.929 . S
H57 C46 0.929 . S
O58 Co33 2.351 . S
O58 C61 1.244 . S
O59 Co33 2.155 . S
O59 C61 1.240 . S
O60 Co33 2.096 . S
O60 C41 1.247 . S
C61 O58 1.244 . S
C61 O59 1.240 . S
H62 C36 0.931 . S
H63 C45 0.931 . S
H64 C49 0.929 . S
H65 C51 0.930 . S
Co66 N70 2.148 . S
Co66 N76 2.128 . S
Co66 N86 2.194 1_455 S
Co66 O91 2.351 1_455 S
Co66 O92 2.155 . S
Co66 O93 2.096 . S
C67 N70 1.301 . S
C67 N71 1.328 . S
C67 H72 0.930 1_455 S
C68 C69 1.333 . S
C68 N70 1.317 . S
C68 H73 0.930 . S
C69 C68 1.333 . S
C69 N71 1.350 . S
C69 H95 0.931 . S
N70 Co66 2.148 . S
N70 C67 1.301 . S
N70 C68 1.317 . S
N71 C67 1.328 . S
N71 C69 1.350 . S
H72 C67 0.930 1_655 S
H73 C68 0.930 . S
C74 O75 1.224 . S
C74 O93 1.247 . S
O75 C74 1.224 . S
N76 Co66 2.128 . S
N76 C77 1.355 1_455 S
N76 C79 1.311 . S
C77 N76 1.355 1_655 S
C77 C78 1.363 . S
C77 H89 0.929 . S
C78 C77 1.363 . S
C78 N80 1.372 1_655 S
C78 H96 0.931 . S
C79 N76 1.311 . S
C79 N80 1.349 . S
C79 H90 0.929 . S
N80 C78 1.372 1_455 S
N80 C79 1.349 . S
C81 C84 1.365 . S
C81 N86 1.328 . S
C81 H87 0.929 . S
C82 C83 1.362 . S
C82 C85 1.378 . S
C82 H97 0.929 . S
C83 C82 1.362 . S
C83 C84 1.366 . S
C84 C81 1.365 . S
C84 C83 1.366 . S
C84 H98 0.930 . S
C85 C82 1.378 . S
C85 N86 1.315 . S
C85 H88 0.930 . S
N86 Co66 2.194 1_655 S
N86 C81 1.328 . S
N86 C85 1.315 . S
H87 C81 0.929 . S
H88 C85 0.930 . S
H89 C77 0.929 . S
H90 C79 0.929 . S
O91 Co66 2.351 1_655 S
O91 C94 1.244 1_655 S
O92 Co66 2.155 . S
O92 C94 1.240 . S
O93 Co66 2.096 . S
O93 C74 1.247 . S
C94 O91 1.244 1_455 S
C94 O92 1.240 . S
H95 C69 0.931 . S
H96 C78 0.931 . S
H97 C82 0.929 . S
H98 C84 0.930 . S
Co99 N103 2.148 . S
Co99 N109 2.128 . S
Co99 N119 2.194 1_545 S
Co99 O124 2.351 1_545 S
Co99 O125 2.155 . S
Co99 O126 2.096 . S
C100 N103 1.301 . S
C100 N104 1.328 . S
C100 H105 0.930 1_545 S
C101 C102 1.333 . S
C101 N103 1.317 . S
C101 H106 0.930 . S
C102 C101 1.333 . S
C102 N104 1.350 . S
C102 H128 0.931 . S
N103 Co99 2.148 . S
N103 C100 1.301 . S
N103 C101 1.317 . S
N104 C100 1.328 . S
N104 C102 1.350 . S
H105 C100 0.930 1_565 S
H106 C101 0.930 . S
C107 O108 1.224 . S
C107 O126 1.247 . S
O108 C107 1.224 . S
N109 Co99 2.128 . S
N109 C110 1.355 1_545 S
N109 C112 1.311 . S
C110 N109 1.355 1_565 S
C110 C111 1.363 . S
C110 H122 0.929 . S
C111 C110 1.363 . S
C111 N113 1.375 1_565 S
C111 H129 0.931 . S
C112 N109 1.311 . S
C112 N113 1.348 . S
C112 H123 0.929 . S
N113 C111 1.375 1_545 S
N113 C112 1.348 . S
C114 C117 1.365 . S
C114 N119 1.328 . S
C114 H120 0.929 . S
C115 C116 1.362 . S
C115 C118 1.378 . S
C115 H130 0.929 . S
C116 C115 1.362 . S
C116 C117 1.366 . S
C117 C114 1.365 . S
C117 C116 1.366 . S
C117 H131 0.930 . S
C118 C115 1.378 . S
C118 N119 1.315 . S
C118 H121 0.930 . S
N119 Co99 2.194 1_565 S
N119 C114 1.328 . S
N119 C118 1.315 . S
H120 C114 0.929 . S
H121 C118 0.930 . S
H122 C110 0.929 . S
H123 C112 0.929 . S
O124 Co99 2.351 1_565 S
O124 C127 1.244 1_565 S
O125 Co99 2.155 . S
O125 C127 1.240 . S
O126 Co99 2.096 . S
O126 C107 1.247 . S
C127 O124 1.244 1_545 S
C127 O125 1.240 . S
H128 C102 0.931 . S
H129 C111 0.931 . S
H130 C115 0.929 . S
H131 C117 0.930 . S
Co132 N136 2.148 . S
Co132 N142 2.128 . S
Co132 N152 2.194 . S
Co132 O157 2.351 . S
Co132 O158 2.155 . S
Co132 O159 2.096 . S
C133 N136 1.301 . S
C133 N137 1.328 . S
C133 H138 0.930 . S
C134 C135 1.333 . S
C134 N136 1.317 . S
C134 H139 0.930 . S
C135 C134 1.333 . S
C135 N137 1.350 . S
C135 H161 0.931 . S
N136 Co132 2.148 . S
N136 C133 1.301 . S
N136 C134 1.317 . S
N137 C133 1.328 . S
N137 C135 1.350 . S
H138 C133 0.930 . S
H139 C134 0.930 . S
C140 O141 1.224 . S
C140 O159 1.247 . S
O141 C140 1.224 . S
N142 Co132 2.128 . S
N142 C143 1.355 . S
N142 C145 1.311 . S
C143 N142 1.355 . S
C143 C144 1.363 . S
C143 H155 0.929 . S
C144 C143 1.363 . S
C144 N146 1.375 . S
C144 H162 0.931 . S
C145 N142 1.311 . S
C145 N146 1.347 . S
C145 H156 0.929 . S
N146 C144 1.375 . S
N146 C145 1.347 . S
C147 C150 1.365 . S
C147 N152 1.328 . S
C147 H153 0.929 . S
C148 C149 1.362 . S
C148 C151 1.378 . S
C148 H163 0.929 . S
C149 C148 1.362 . S
C149 C150 1.366 . S
C150 C147 1.365 . S
C150 C149 1.366 . S
C150 H164 0.930 . S
C151 C148 1.378 . S
C151 N152 1.315 . S
C151 H154 0.930 . S
N152 Co132 2.194 . S
N152 C147 1.328 . S
N152 C151 1.315 . S
H153 C147 0.929 . S
H154 C151 0.930 . S
H155 C143 0.929 . S
H156 C145 0.929 . S
O157 Co132 2.351 . S
O157 C160 1.244 . S
O158 Co132 2.155 . S
O158 C160 1.240 . S
O159 Co132 2.096 . S
O159 C140 1.247 . S
C160 O157 1.244 . S
C160 O158 1.240 . S
H161 C135 0.931 . S
H162 C144 0.931 . S
H163 C148 0.929 . S
H164 C150 0.930 . S
Co165 N169 2.148 . S
Co165 N175 2.128 . S
Co165 N185 2.194 . S
Co165 O190 2.351 . S
Co165 O191 2.155 . S
Co165 O192 2.096 . S
C166 N169 1.301 . S
C166 N170 1.328 . S
C166 H171 0.930 . S
C167 C168 1.333 . S
C167 N169 1.317 . S
C167 H172 0.930 . S
C168 C167 1.333 . S
C168 N170 1.350 . S
C168 H194 0.931 . S
N169 Co165 2.148 . S
N169 C166 1.301 . S
N169 C167 1.317 . S
N170 C166 1.328 . S
N170 C168 1.350 . S
H171 C166 0.930 . S
H172 C167 0.930 . S
C173 O174 1.224 . S
C173 O192 1.247 . S
O174 C173 1.224 . S
N175 Co165 2.128 . S
N175 C176 1.355 . S
N175 C178 1.311 . S
C176 N175 1.355 . S
C176 C177 1.363 . S
C176 H188 0.929 . S
C177 C176 1.363 . S
C177 N179 1.375 . S
C177 H195 0.931 . S
C178 N175 1.311 . S
C178 N179 1.347 . S
C178 H189 0.929 . S
N179 C177 1.375 . S
N179 C178 1.347 . S
C180 C183 1.365 . S
C180 N185 1.328 . S
C180 H186 0.929 . S
C181 C182 1.362 . S
C181 C184 1.378 . S
C181 H196 0.929 . S
C182 C181 1.362 . S
C182 C183 1.366 . S
C183 C180 1.365 . S
C183 C182 1.366 . S
C183 H197 0.930 . S
C184 C181 1.378 . S
C184 N185 1.315 . S
C184 H187 0.930 . S
N185 Co165 2.194 . S
N185 C180 1.328 . S
N185 C184 1.315 . S
H186 C180 0.929 . S
H187 C184 0.930 . S
H188 C176 0.929 . S
H189 C178 0.929 . S
O190 Co165 2.351 . S
O190 C193 1.244 . S
O191 Co165 2.155 . S
O191 C193 1.240 . S
O192 Co165 2.096 . S
O192 C173 1.247 . S
C193 O190 1.244 . S
C193 O191 1.240 . S
H194 C168 0.931 . S
H195 C177 0.931 . S
H196 C181 0.929 . S
H197 C183 0.930 . S
Co198 N202 2.148 . S
Co198 N208 2.128 . S
Co198 N218 2.194 1_455 S
Co198 O223 2.351 1_455 S
Co198 O224 2.155 . S
Co198 O225 2.096 . S
C199 N202 1.301 . S
C199 N203 1.328 . S
C199 H204 0.930 1_455 S
C200 C201 1.333 . S
C200 N202 1.317 . S
C200 H205 0.930 . S
C201 C200 1.333 . S
C201 N203 1.350 . S
C201 H227 0.931 . S
N202 Co198 2.148 . S
N202 C199 1.301 . S
N202 C200 1.317 . S
N203 C199 1.328 . S
N203 C201 1.350 . S
H204 C199 0.930 1_655 S
H205 C200 0.930 . S
C206 O207 1.224 . S
C206 O225 1.247 . S
O207 C206 1.224 . S
N208 Co198 2.128 . S
N208 C209 1.355 1_455 S
N208 C211 1.311 . S
C209 N208 1.355 1_655 S
C209 C210 1.363 . S
C209 H221 0.929 . S
C210 C209 1.363 . S
C210 N212 1.375 1_655 S
C210 H228 0.931 . S
C211 N208 1.311 . S
C211 N212 1.348 . S
C211 H222 0.929 . S
N212 C210 1.375 1_455 S
N212 C211 1.348 . S
C213 C216 1.365 . S
C213 N218 1.328 . S
C213 H219 0.929 . S
C214 C215 1.362 . S
C214 C217 1.378 . S
C214 H229 0.929 . S
C215 C214 1.362 . S
C215 C216 1.366 . S
C216 C213 1.365 . S
C216 C215 1.366 . S
C216 H230 0.930 . S
C217 C214 1.378 . S
C217 N218 1.315 . S
C217 H220 0.930 . S
N218 Co198 2.194 1_655 S
N218 C213 1.328 . S
N218 C217 1.315 . S
H219 C213 0.929 . S
H220 C217 0.930 . S
H221 C209 0.929 . S
H222 C211 0.929 . S
O223 Co198 2.351 1_655 S
O223 C226 1.244 1_655 S
O224 Co198 2.155 . S
O224 C226 1.240 . S
O225 Co198 2.096 . S
O225 C206 1.247 . S
C226 O223 1.244 1_455 S
C226 O224 1.240 . S
H227 C201 0.931 . S
H228 C210 0.931 . S
H229 C214 0.929 . S
H230 C216 0.930 . S
Co231 N235 2.148 . S
Co231 N241 2.128 . S
Co231 N251 2.194 1_545 S
Co231 O256 2.351 1_545 S
Co231 O257 2.155 . S
Co231 O258 2.096 . S
C232 N235 1.301 . S
C232 N236 1.328 . S
C232 H237 0.930 1_545 S
C233 C234 1.333 . S
C233 N235 1.317 . S
C233 H238 0.930 . S
C234 C233 1.333 . S
C234 N236 1.350 . S
C234 H260 0.931 . S
N235 Co231 2.148 . S
N235 C232 1.301 . S
N235 C233 1.317 . S
N236 C232 1.328 . S
N236 C234 1.350 . S
H237 C232 0.930 1_565 S
H238 C233 0.930 . S
C239 O240 1.224 . S
C239 O258 1.247 . S
O240 C239 1.224 . S
N241 Co231 2.128 . S
N241 C242 1.355 1_545 S
N241 C244 1.311 . S
C242 N241 1.355 1_565 S
C242 C243 1.363 . S
C242 H254 0.929 . S
C243 C242 1.363 . S
C243 N245 1.372 1_565 S
C243 H261 0.931 . S
C244 N241 1.311 . S
C244 N245 1.349 . S
C244 H255 0.929 . S
N245 C243 1.372 1_545 S
N245 C244 1.349 . S
C246 C249 1.365 . S
C246 N251 1.328 . S
C246 H252 0.929 . S
C247 C248 1.362 . S
C247 C250 1.378 . S
C247 H262 0.929 . S
C248 C247 1.362 . S
C248 C249 1.366 . S
C249 C246 1.365 . S
C249 C248 1.366 . S
C249 H263 0.930 . S
C250 C247 1.378 . S
C250 N251 1.315 . S
C250 H253 0.930 . S
N251 Co231 2.194 1_565 S
N251 C246 1.328 . S
N251 C250 1.315 . S
H252 C246 0.929 . S
H253 C250 0.930 . S
H254 C242 0.929 . S
H255 C244 0.929 . S
O256 Co231 2.351 1_565 S
O256 C259 1.244 1_565 S
O257 Co231 2.155 . S
O257 C259 1.240 . S
O258 Co231 2.096 . S
O258 C239 1.247 . S
C259 O256 1.244 1_545 S
C259 O257 1.240 . S
H260 C234 0.931 . S
H261 C243 0.931 . S
H262 C247 0.929 . S
H263 C249 0.930 . S
Co264 N268 2.148 . S
Co264 N274 2.128 . S
Co264 N284 2.194 . S
Co264 O289 2.351 . S
Co264 O290 2.155 . S
Co264 O291 2.096 . S
C265 N268 1.301 . S
C265 N269 1.328 . S
C265 H270 0.930 . S
C266 C267 1.333 . S
C266 N268 1.317 . S
C266 H271 0.930 . S
C267 C266 1.333 . S
C267 N269 1.350 . S
C267 H293 0.931 . S
N268 Co264 2.148 . S
N268 C265 1.301 . S
N268 C266 1.317 . S
N269 C265 1.328 . S
N269 C267 1.350 . S
H270 C265 0.930 . S
H271 C266 0.930 . S
C272 O273 1.224 . S
C272 O291 1.247 . S
O273 C272 1.224 . S
N274 Co264 2.128 . S
N274 C275 1.355 . S
N274 C277 1.311 . S
C275 N274 1.355 . S
C275 C276 1.363 . S
C275 H287 0.929 . S
C276 C275 1.363 . S
C276 N278 1.375 . S
C276 H294 0.931 . S
C277 N274 1.311 . S
C277 N278 1.347 . S
C277 H288 0.929 . S
N278 C276 1.375 . S
N278 C277 1.347 . S
C279 C282 1.365 . S
C279 N284 1.328 . S
C279 H285 0.929 . S
C280 C281 1.362 . S
C280 C283 1.378 . S
C280 H295 0.929 . S
C281 C280 1.362 . S
C281 C282 1.366 . S
C282 C279 1.365 . S
C282 C281 1.366 . S
C282 H296 0.930 . S
C283 C280 1.378 . S
C283 N284 1.315 . S
C283 H286 0.930 . S
N284 Co264 2.194 . S
N284 C279 1.328 . S
N284 C283 1.315 . S
H285 C279 0.929 . S
H286 C283 0.930 . S
H287 C275 0.929 . S
H288 C277 0.929 . S
O289 Co264 2.351 . S
O289 C292 1.244 . S
O290 Co264 2.155 . S
O290 C292 1.240 . S
O291 Co264 2.096 . S
O291 C272 1.247 . S
C292 O289 1.244 . S
C292 O290 1.240 . S
H293 C267 0.931 . S
H294 C276 0.931 . S
H295 C280 0.929 . S
H296 C282 0.930 . S
Co297 N301 2.148 . S
Co297 N307 2.128 . S
Co297 N317 2.194 . S
Co297 O322 2.351 . S
Co297 O323 2.155 . S
Co297 O324 2.096 . S
C298 N301 1.301 . S
C298 N302 1.328 . S
C298 H303 0.930 . S
C299 C300 1.333 . S
C299 N301 1.317 . S
C299 H304 0.930 . S
C300 C299 1.333 . S
C300 N302 1.350 . S
C300 H326 0.931 . S
N301 Co297 2.148 . S
N301 C298 1.301 . S
N301 C299 1.317 . S
N302 C298 1.328 . S
N302 C300 1.350 . S
H303 C298 0.930 . S
H304 C299 0.930 . S
C305 O306 1.224 . S
C305 O324 1.247 . S
O306 C305 1.224 . S
N307 Co297 2.128 . S
N307 C308 1.355 . S
N307 C310 1.311 . S
C308 N307 1.355 . S
C308 C309 1.363 . S
C308 H320 0.929 . S
C309 C308 1.363 . S
C309 N311 1.375 . S
C309 H327 0.931 . S
C310 N307 1.311 . S
C310 N311 1.347 . S
C310 H321 0.929 . S
N311 C309 1.375 . S
N311 C310 1.347 . S
C312 C315 1.365 . S
C312 N317 1.328 . S
C312 H318 0.929 . S
C313 C314 1.362 . S
C313 C316 1.378 . S
C313 H328 0.929 . S
C314 C313 1.362 . S
C314 C315 1.366 . S
C315 C312 1.365 . S
C315 C314 1.366 . S
C315 H329 0.930 . S
C316 C313 1.378 . S
C316 N317 1.315 . S
C316 H319 0.930 . S
N317 Co297 2.194 . S
N317 C312 1.328 . S
N317 C316 1.315 . S
H318 C312 0.929 . S
H319 C316 0.930 . S
H320 C308 0.929 . S
H321 C310 0.929 . S
O322 Co297 2.351 . S
O322 C325 1.244 . S
O323 Co297 2.155 . S
O323 C325 1.240 . S
O324 Co297 2.096 . S
O324 C305 1.247 . S
C325 O322 1.244 . S
C325 O323 1.240 . S
H326 C300 0.931 . S
H327 C309 0.931 . S
H328 C313 0.929 . S
H329 C315 0.930 . S
Co330 N334 2.148 . S
Co330 N340 2.128 . S
Co330 N350 2.194 1_655 S
Co330 O355 2.351 1_655 S
Co330 O356 2.155 . S
Co330 O357 2.096 . S
C331 N334 1.301 . S
C331 N335 1.328 . S
C331 H336 0.930 1_655 S
C332 C333 1.333 . S
C332 N334 1.317 . S
C332 H337 0.930 . S
C333 C332 1.333 . S
C333 N335 1.350 . S
C333 H359 0.931 . S
N334 Co330 2.148 . S
N334 C331 1.301 . S
N334 C332 1.317 . S
N335 C331 1.328 . S
N335 C333 1.350 . S
H336 C331 0.930 1_455 S
H337 C332 0.930 . S
C338 O339 1.224 . S
C338 O357 1.247 . S
O339 C338 1.224 . S
N340 Co330 2.128 . S
N340 C341 1.355 1_655 S
N340 C343 1.311 . S
C341 N340 1.355 1_455 S
C341 C342 1.363 . S
C341 H353 0.929 . S
C342 C341 1.363 . S
C342 N344 1.372 1_455 S
C342 H360 0.931 . S
C343 N340 1.311 . S
C343 N344 1.349 . S
C343 H354 0.929 . S
N344 C342 1.372 1_655 S
N344 C343 1.349 . S
C345 C348 1.365 . S
C345 N350 1.328 . S
C345 H351 0.929 . S
C346 C347 1.362 . S
C346 C349 1.378 . S
C346 H361 0.929 . S
C347 C346 1.362 . S
C347 C348 1.366 . S
C348 C345 1.365 . S
C348 C347 1.366 . S
C348 H362 0.930 . S
C349 C346 1.378 . S
C349 N350 1.315 . S
C349 H352 0.930 . S
N350 Co330 2.194 1_455 S
N350 C345 1.328 . S
N350 C349 1.315 . S
H351 C345 0.929 . S
H352 C349 0.930 . S
H353 C341 0.929 . S
H354 C343 0.929 . S
O355 Co330 2.351 1_455 S
O355 C358 1.244 1_455 S
O356 Co330 2.155 . S
O356 C358 1.240 . S
O357 Co330 2.096 . S
O357 C338 1.247 . S
C358 O355 1.244 1_655 S
C358 O356 1.240 . S
H359 C333 0.931 . S
H360 C342 0.931 . S
H361 C346 0.929 . S
H362 C348 0.930 . S
Co363 N367 2.148 . S
Co363 N373 2.128 . S
Co363 N383 2.194 1_565 S
Co363 O388 2.351 1_565 S
Co363 O389 2.155 . S
Co363 O390 2.096 . S
C364 N367 1.301 . S
C364 N368 1.328 . S
C364 H369 0.930 1_565 S
C365 C366 1.333 . S
C365 N367 1.317 . S
C365 H370 0.930 . S
C366 C365 1.333 . S
C366 N368 1.350 . S
C366 H392 0.931 . S
N367 Co363 2.148 . S
N367 C364 1.301 . S
N367 C365 1.317 . S
N368 C364 1.328 . S
N368 C366 1.350 . S
H369 C364 0.930 1_545 S
H370 C365 0.930 . S
C371 O372 1.224 . S
C371 O390 1.247 . S
O372 C371 1.224 . S
N373 Co363 2.128 . S
N373 C374 1.355 1_565 S
N373 C376 1.311 . S
C374 N373 1.355 1_545 S
C374 C375 1.363 . S
C374 H386 0.929 . S
C375 C374 1.363 . S
C375 N377 1.375 1_545 S
C375 H393 0.931 . S
C376 N373 1.311 . S
C376 N377 1.348 . S
C376 H387 0.929 . S
N377 C375 1.375 1_565 S
N377 C376 1.348 . S
C378 C381 1.365 . S
C378 N383 1.328 . S
C378 H384 0.929 . S
C379 C380 1.362 . S
C379 C382 1.378 . S
C379 H394 0.929 . S
C380 C379 1.362 . S
C380 C381 1.366 . S
C381 C378 1.365 . S
C381 C380 1.366 . S
C381 H395 0.930 . S
C382 C379 1.378 . S
C382 N383 1.315 . S
C382 H385 0.930 . S
N383 Co363 2.194 1_545 S
N383 C378 1.328 . S
N383 C382 1.315 . S
H384 C378 0.929 . S
H385 C382 0.930 . S
H386 C374 0.929 . S
H387 C376 0.929 . S
O388 Co363 2.351 1_545 S
O388 C391 1.244 1_545 S
O389 Co363 2.155 . S
O389 C391 1.240 . S
O390 Co363 2.096 . S
O390 C371 1.247 . S
C391 O388 1.244 1_565 S
C391 O389 1.240 . S
H392 C366 0.931 . S
H393 C375 0.931 . S
H394 C379 0.929 . S
H395 C381 0.930 . S
Co396 N400 2.148 . S
Co396 N406 2.128 . S
Co396 N416 2.194 . S
Co396 O421 2.351 . S
Co396 O422 2.155 . S
Co396 O423 2.096 . S
C397 N400 1.301 . S
C397 N401 1.328 . S
C397 H402 0.930 . S
C398 C399 1.333 . S
C398 N400 1.317 . S
C398 H403 0.930 . S
C399 C398 1.333 . S
C399 N401 1.350 . S
C399 H425 0.931 . S
N400 Co396 2.148 . S
N400 C397 1.301 . S
N400 C398 1.317 . S
N401 C397 1.328 . S
N401 C399 1.350 . S
H402 C397 0.930 . S
H403 C398 0.930 . S
C404 O405 1.224 . S
C404 O423 1.247 . S
O405 C404 1.224 . S
N406 Co396 2.128 . S
N406 C407 1.355 . S
N406 C409 1.311 . S
C407 N406 1.355 . S
C407 C408 1.363 . S
C407 H419 0.929 . S
C408 C407 1.363 . S
C408 N410 1.375 . S
C408 H426 0.931 . S
C409 N406 1.311 . S
C409 N410 1.347 . S
C409 H420 0.929 . S
N410 C408 1.375 . S
N410 C409 1.347 . S
C411 C414 1.365 . S
C411 N416 1.328 . S
C411 H417 0.929 . S
C412 C413 1.362 . S
C412 C415 1.378 . S
C412 H427 0.929 . S
C413 C412 1.362 . S
C413 C414 1.366 . S
C414 C411 1.365 . S
C414 C413 1.366 . S
C414 H428 0.930 . S
C415 C412 1.378 . S
C415 N416 1.315 . S
C415 H418 0.930 . S
N416 Co396 2.194 . S
N416 C411 1.328 . S
N416 C415 1.315 . S
H417 C411 0.929 . S
H418 C415 0.930 . S
H419 C407 0.929 . S
H420 C409 0.929 . S
O421 Co396 2.351 . S
O421 C424 1.244 . S
O422 Co396 2.155 . S
O422 C424 1.240 . S
O423 Co396 2.096 . S
O423 C404 1.247 . S
C424 O421 1.244 . S
C424 O422 1.240 . S
H425 C399 0.931 . S
H426 C408 0.931 . S
H427 C412 0.929 . S
H428 C414 0.930 . S
Co429 N433 2.148 . S
Co429 N439 2.128 . S
Co429 N449 2.194 . S
Co429 O454 2.351 . S
Co429 O455 2.155 . S
Co429 O456 2.096 . S
C430 N433 1.301 . S
C430 N434 1.328 . S
C430 H435 0.930 . S
C431 C432 1.333 . S
C431 N433 1.317 . S
C431 H436 0.930 . S
C432 C431 1.333 . S
C432 N434 1.350 . S
C432 H458 0.931 . S
N433 Co429 2.148 . S
N433 C430 1.301 . S
N433 C431 1.317 . S
N434 C430 1.328 . S
N434 C432 1.350 . S
H435 C430 0.930 . S
H436 C431 0.930 . S
C437 O438 1.224 . S
C437 O456 1.247 . S
O438 C437 1.224 . S
N439 Co429 2.128 . S
N439 C440 1.355 . S
N439 C442 1.311 . S
C440 N439 1.355 . S
C440 C441 1.363 . S
C440 H452 0.929 . S
C441 C440 1.363 . S
C441 N443 1.375 . S
C441 H459 0.931 . S
C442 N439 1.311 . S
C442 N443 1.347 . S
C442 H453 0.929 . S
N443 C441 1.375 . S
N443 C442 1.347 . S
C444 C447 1.365 . S
C444 N449 1.328 . S
C444 H450 0.929 . S
C445 C446 1.362 . S
C445 C448 1.378 . S
C445 H460 0.929 . S
C446 C445 1.362 . S
C446 C447 1.366 . S
C447 C444 1.365 . S
C447 C446 1.366 . S
C447 H461 0.930 . S
C448 C445 1.378 . S
C448 N449 1.315 . S
C448 H451 0.930 . S
N449 Co429 2.194 . S
N449 C444 1.328 . S
N449 C448 1.315 . S
H450 C444 0.929 . S
H451 C448 0.930 . S
H452 C440 0.929 . S
H453 C442 0.929 . S
O454 Co429 2.351 . S
O454 C457 1.244 . S
O455 Co429 2.155 . S
O455 C457 1.240 . S
O456 Co429 2.096 . S
O456 C437 1.247 . S
C457 O454 1.244 . S
C457 O455 1.240 . S
H458 C432 0.931 . S
H459 C441 0.931 . S
H460 C445 0.929 . S
H461 C447 0.930 . S
Co462 N466 2.148 . S
Co462 N472 2.128 . S
Co462 N482 2.194 1_655 S
Co462 O487 2.351 1_655 S
Co462 O488 2.155 . S
Co462 O489 2.096 . S
C463 N466 1.301 . S
C463 N467 1.328 . S
C463 H468 0.930 1_655 S
C464 C465 1.333 . S
C464 N466 1.317 . S
C464 H469 0.930 . S
C465 C464 1.333 . S
C465 N467 1.350 . S
C465 H491 0.931 . S
N466 Co462 2.148 . S
N466 C463 1.301 . S
N466 C464 1.317 . S
N467 C463 1.328 . S
N467 C465 1.350 . S
H468 C463 0.930 1_455 S
H469 C464 0.930 . S
C470 O471 1.224 . S
C470 O489 1.247 . S
O471 C470 1.224 . S
N472 Co462 2.128 . S
N472 C473 1.355 1_655 S
N472 C475 1.311 . S
C473 N472 1.355 1_455 S
C473 C474 1.363 . S
C473 H485 0.929 . S
C474 C473 1.363 . S
C474 N476 1.375 1_455 S
C474 H492 0.931 . S
C475 N472 1.311 . S
C475 N476 1.348 . S
C475 H486 0.929 . S
N476 C474 1.375 1_655 S
N476 C475 1.348 . S
C477 C480 1.365 . S
C477 N482 1.328 . S
C477 H483 0.929 . S
C478 C479 1.362 . S
C478 C481 1.378 . S
C478 H493 0.929 . S
C479 C478 1.362 . S
C479 C480 1.366 . S
C480 C477 1.365 . S
C480 C479 1.366 . S
C480 H494 0.930 . S
C481 C478 1.378 . S
C481 N482 1.315 . S
C481 H484 0.930 . S
N482 Co462 2.194 1_455 S
N482 C477 1.328 . S
N482 C481 1.315 . S
H483 C477 0.929 . S
H484 C481 0.930 . S
H485 C473 0.929 . S
H486 C475 0.929 . S
O487 Co462 2.351 1_455 S
O487 C490 1.244 1_455 S
O488 Co462 2.155 . S
O488 C490 1.240 . S
O489 Co462 2.096 . S
O489 C470 1.247 . S
C490 O487 1.244 1_655 S
C490 O488 1.240 . S
H491 C465 0.931 . S
H492 C474 0.931 . S
H493 C478 0.929 . S
H494 C480 0.930 . S
Co495 N499 2.148 . S
Co495 N505 2.128 . S
Co495 N515 2.194 1_565 S
Co495 O520 2.351 1_565 S
Co495 O521 2.155 . S
Co495 O522 2.096 . S
C496 N499 1.301 . S
C496 N500 1.328 . S
C496 H501 0.930 1_565 S
C497 C498 1.333 . S
C497 N499 1.317 . S
C497 H502 0.930 . S
C498 C497 1.333 . S
C498 N500 1.350 . S
C498 H524 0.931 . S
N499 Co495 2.148 . S
N499 C496 1.301 . S
N499 C497 1.317 . S
N500 C496 1.328 . S
N500 C498 1.350 . S
H501 C496 0.930 1_545 S
H502 C497 0.930 . S
C503 O504 1.224 . S
C503 O522 1.247 . S
O504 C503 1.224 . S
N505 Co495 2.128 . S
N505 C506 1.355 1_565 S
N505 C508 1.311 . S
C506 N505 1.355 1_545 S
C506 C507 1.363 . S
C506 H518 0.929 . S
C507 C506 1.363 . S
C507 N509 1.372 1_545 S
C507 H525 0.931 . S
C508 N505 1.311 . S
C508 N509 1.349 . S
C508 H519 0.929 . S
N509 C507 1.372 1_565 S
N509 C508 1.349 . S
C510 C513 1.365 . S
C510 N515 1.328 . S
C510 H516 0.929 . S
C511 C512 1.362 . S
C511 C514 1.378 . S
C511 H526 0.929 . S
C512 C511 1.362 . S
C512 C513 1.366 . S
C513 C510 1.365 . S
C513 C512 1.366 . S
C513 H527 0.930 . S
C514 C511 1.378 . S
C514 N515 1.315 . S
C514 H517 0.930 . S
N515 Co495 2.194 1_545 S
N515 C510 1.328 . S
N515 C514 1.315 . S
H516 C510 0.929 . S
H517 C514 0.930 . S
H518 C506 0.929 . S
H519 C508 0.929 . S
O520 Co495 2.351 1_545 S
O520 C523 1.244 1_545 S
O521 Co495 2.155 . S
O521 C523 1.240 . S
O522 Co495 2.096 . S
O522 C503 1.247 . S
C523 O520 1.244 1_565 S
C523 O521 1.240 . S
H524 C498 0.931 . S
H525 C507 0.931 . S
H526 C511 0.929 . S
H527 C513 0.930 . S
C528 C529 1.369 . S
C528 C530 1.419 1_554 S
C528 H532 0.930 . S
C529 C528 1.369 . S
C529 C538 1.429 . S
C530 C528 1.419 1_556 S
C530 C531 1.363 . S
C530 H533 0.929 . S
C531 C530 1.363 . S
C531 C537 1.428 . S
H532 C528 0.930 . S
H533 C530 0.929 . S
S534 N535 1.633 . S
S534 N536 1.590 1_554 S
N535 S534 1.633 . S
N535 C538 1.350 . S
N536 S534 1.590 1_556 S
N536 C537 1.351 . S
C537 C531 1.428 . S
C537 N536 1.351 . S
C537 C538 1.434 1_556 S
C538 C529 1.429 . S
C538 N535 1.350 . S
C538 C537 1.434 1_554 S
C539 C540 1.369 . S
C539 C541 1.419 . S
C539 H543 0.930 . S
C540 C539 1.369 . S
C540 C549 1.429 . S
C541 C539 1.419 . S
C541 C542 1.363 . S
C541 H544 0.929 . S
C542 C541 1.363 . S
C542 C548 1.428 . S
H543 C539 0.930 . S
H544 C541 0.929 . S
S545 N546 1.613 . S
S545 N547 1.610 . S
N546 S545 1.613 . S
N546 C549 1.350 . S
N547 S545 1.610 . S
N547 C548 1.351 . S
C548 C542 1.428 . S
C548 N547 1.351 . S
C548 C549 1.434 . S
C549 C540 1.429 . S
C549 N546 1.350 . S
C549 C548 1.434 . S
C550 C551 1.369 . S
C550 C552 1.419 1_556 S
C550 H554 0.930 . S
C551 C550 1.369 . S
C551 C560 1.429 . S
C552 C550 1.419 1_554 S
C552 C553 1.363 . S
C552 H555 0.929 . S
C553 C552 1.363 . S
C553 C559 1.428 . S
H554 C550 0.930 . S
H555 C552 0.929 . S
S556 N557 1.604 1_554 S
S556 N558 1.620 . S
N557 S556 1.604 1_556 S
N557 C560 1.350 1_655 S
N558 S556 1.620 . S
N558 C559 1.351 1_655 S
C559 C553 1.428 . S
C559 N558 1.351 1_455 S
C559 C560 1.434 1_554 S
C560 C551 1.429 . S
C560 N557 1.350 1_455 S
C560 C559 1.434 1_556 S
C561 C562 1.369 . S
C561 C563 1.419 . S
C561 H565 0.930 . S
C562 C561 1.369 . S
C562 C571 1.429 . S
C563 C561 1.419 . S
C563 C564 1.363 . S
C563 H566 0.929 . S
C564 C563 1.363 . S
C564 C570 1.428 . S
H565 C561 0.930 . S
H566 C563 0.929 . S
S567 N568 1.613 . S
S567 N569 1.610 . S
N568 S567 1.613 . S
N568 C571 1.350 . S
N569 S567 1.610 . S
N569 C570 1.351 . S
C570 C564 1.428 . S
C570 N569 1.351 . S
C570 C571 1.434 . S
C571 C562 1.429 . S
C571 N568 1.350 . S
C571 C570 1.434 . S
C572 C573 1.369 . S
C572 C574 1.419 1_556 S
C572 H576 0.930 . S
C573 C572 1.369 . S
C573 C582 1.429 . S
C574 C572 1.419 1_554 S
C574 C575 1.363 . S
C574 H577 0.929 . S
C575 C574 1.363 . S
C575 C581 1.428 . S
H576 C572 0.930 . S
H577 C574 0.929 . S
S578 N579 1.623 . S
S578 N580 1.601 1_556 S
N579 S578 1.623 . S
N579 C582 1.350 . S
N580 S578 1.601 1_554 S
N580 C581 1.351 . S
C581 C575 1.428 . S
C581 N580 1.351 . S
C581 C582 1.434 1_554 S
C582 C573 1.429 . S
C582 N579 1.350 . S
C582 C581 1.434 1_556 S
C583 C584 1.369 . S
C583 C585 1.419 . S
C583 H587 0.930 . S
C584 C583 1.369 . S
C584 C593 1.429 . S
C585 C583 1.419 . S
C585 C586 1.363 . S
C585 H588 0.929 . S
C586 C585 1.363 . S
C586 C592 1.428 . S
H587 C583 0.930 . S
H588 C585 0.929 . S
S589 N590 1.613 . S
S589 N591 1.610 . S
N590 S589 1.613 . S
N590 C593 1.350 . S
N591 S589 1.610 . S
N591 C592 1.351 . S
C592 C586 1.428 . S
C592 N591 1.351 . S
C592 C593 1.434 . S
C593 C584 1.429 . S
C593 N590 1.350 . S
C593 C592 1.434 . S
C594 C595 1.369 . S
C594 C596 1.419 1_554 S
C594 H598 0.930 1_655 S
C595 C594 1.369 . S
C595 C604 1.429 . S
C596 C594 1.419 1_556 S
C596 C597 1.363 . S
C596 H599 0.929 1_655 S
C597 C596 1.363 . S
C597 C603 1.428 . S
H598 C594 0.930 1_455 S
H599 C596 0.929 1_455 S
S600 N601 1.628 . S
S600 N602 1.595 1_554 S
N601 S600 1.628 . S
N601 C604 1.350 . S
N602 S600 1.595 1_556 S
N602 C603 1.351 . S
C603 C597 1.428 . S
C603 N602 1.351 . S
C603 C604 1.434 1_556 S
C604 C595 1.429 . S
C604 N601 1.350 . S
C604 C603 1.434 1_554 S
C605 C606 1.369 . S
C605 C607 1.419 . S
C605 H609 0.930 . S
C606 C605 1.369 . S
C606 C615 1.429 . S
C607 C605 1.419 . S
C607 C608 1.363 . S
C607 H610 0.929 . S
C608 C607 1.363 . S
C608 C614 1.428 . S
H609 C605 0.930 . S
H610 C607 0.929 . S
S611 N612 1.613 . S
S611 N613 1.610 . S
N612 S611 1.613 . S
N612 C615 1.350 . S
N613 S611 1.610 . S
N613 C614 1.351 . S
C614 C608 1.428 . S
C614 N613 1.351 . S
C614 C615 1.434 . S
C615 C606 1.429 . S
C615 N612 1.350 . S
C615 C614 1.434 . S
C616 C617 1.369 . S
C616 C618 1.419 1_565 S
C616 H620 0.930 . S
C617 C616 1.369 . S
C617 C626 1.429 . S
C618 C616 1.419 1_545 S
C618 C619 1.363 . S
C618 H621 0.929 . S
C619 C618 1.363 . S
C619 C625 1.428 1_545 S
H620 C616 0.930 . S
H621 C618 0.929 . S
S622 N623 1.613 . S
S622 N624 1.610 1_565 S
N623 S622 1.613 . S
N623 C626 1.350 . S
N624 S622 1.610 1_545 S
N624 C625 1.351 1_545 S
C625 C619 1.428 1_565 S
C625 N624 1.351 1_565 S
C625 C626 1.434 . S
C626 C617 1.429 . S
C626 N623 1.350 . S
C626 C625 1.434 . S
C627 C628 1.369 . S
C627 C629 1.419 . S
C627 H631 0.930 . S
C628 C627 1.369 . S
C628 C637 1.429 . S
C629 C627 1.419 . S
C629 C630 1.363 . S
C629 H632 0.929 . S
C630 C629 1.363 . S
C630 C636 1.428 . S
H631 C627 0.930 . S
H632 C629 0.929 . S
S633 N634 1.613 . S
S633 N635 1.610 . S
N634 S633 1.613 . S
N634 C637 1.350 . S
N635 S633 1.610 . S
N635 C636 1.351 . S
C636 C630 1.428 . S
C636 N635 1.351 . S
C636 C637 1.434 . S
C637 C628 1.429 . S
C637 N634 1.350 . S
C637 C636 1.434 . S
C638 C639 1.369 . S
C638 C640 1.419 . S
C638 H642 0.930 . S
C639 C638 1.369 . S
C639 C648 1.429 1_455 S
C640 C638 1.419 . S
C640 C641 1.363 1_455 S
C640 H643 0.929 . S
C641 C640 1.363 1_655 S
C641 C647 1.428 . S
H642 C638 0.930 . S
H643 C640 0.929 . S
S644 N645 1.613 . S
S644 N646 1.610 . S
N645 S644 1.613 . S
N645 C648 1.350 . S
N646 S644 1.610 . S
N646 C647 1.351 . S
C647 C641 1.428 . S
C647 N646 1.351 . S
C647 C648 1.434 . S
C648 C639 1.429 1_655 S
C648 N645 1.350 . S
C648 C647 1.434 . S
C649 C650 1.369 1_545 S
C649 C651 1.419 . S
C649 H653 0.930 . S
C650 C649 1.369 1_565 S
C650 C659 1.429 . S
C651 C649 1.419 . S
C651 C652 1.364 1_645 S
C651 H654 0.929 . S
C652 C651 1.364 1_465 S
C652 C658 1.427 . S
H653 C649 0.930 . S
H654 C651 0.929 . S
S655 N656 1.613 1_455 S
S655 N657 1.610 . S
N656 S655 1.613 1_655 S
N656 C659 1.350 . S
N657 S655 1.610 . S
N657 C658 1.351 . S
C658 C652 1.427 . S
C658 N657 1.351 . S
C658 C659 1.434 1_455 S
C659 C650 1.429 . S
C659 N656 1.350 . S
C659 C658 1.434 1_655 S
C660 C661 1.369 . S
C660 C662 1.419 . S
C660 H664 0.930 . S
C661 C660 1.369 . S
C661 C670 1.429 . S
C662 C660 1.419 . S
C662 C663 1.363 . S
C662 H665 0.929 . S
C663 C662 1.363 . S
C663 C669 1.428 . S
H664 C660 0.930 . S
H665 C662 0.929 . S
S666 N667 1.613 . S
S666 N668 1.610 . S
N667 S666 1.613 . S
N667 C670 1.350 . S
N668 S666 1.610 . S
N668 C669 1.351 . S
C669 C663 1.428 . S
C669 N668 1.351 . S
C669 C670 1.434 . S
C670 C661 1.429 . S
C670 N667 1.350 . S
C670 C669 1.434 . S
C671 C672 1.369 . S
C671 C673 1.419 . S
C671 H675 0.930 . S
C672 C671 1.369 . S
C672 C681 1.429 . S
C673 C671 1.419 . S
C673 C674 1.363 1_655 S
C673 H676 0.929 . S
C674 C673 1.363 1_455 S
C674 C680 1.428 . S
H675 C671 0.930 . S
H676 C673 0.929 . S
S677 N678 1.613 1_455 S
S677 N679 1.610 . S
N678 S677 1.613 1_655 S
N678 C681 1.350 . S
N679 S677 1.610 . S
N679 C680 1.351 . S
C680 C674 1.428 . S
C680 N679 1.351 . S
C680 C681 1.434 1_455 S
C681 C672 1.429 . S
C681 N678 1.350 . S
C681 C680 1.434 1_655 S
C682 C683 1.369 1_565 S
C682 C684 1.419 1_455 S
C682 H686 0.930 1_565 S
C683 C682 1.369 1_545 S
C683 C692 1.420 1_445 S
C684 C682 1.419 1_655 S
C684 C685 1.363 . S
C684 H687 0.929 1_655 S
C685 C684 1.363 . S
C685 C691 1.428 . S
H686 C682 0.930 1_545 S
H687 C684 0.929 1_455 S
S688 N689 1.613 1_565 S
S688 N690 1.610 . S
N689 S688 1.613 1_545 S
N689 C692 1.344 1_545 S
N690 S688 1.610 . S
N690 C691 1.351 . S
C691 C685 1.428 . S
C691 N690 1.351 . S
C691 C692 1.449 . S
C692 C683 1.420 1_665 S
C692 N689 1.344 1_565 S
C692 C691 1.449 . S
C693 C694 1.364 1_545 S
C693 C695 1.419 . S
C693 H697 0.930 . S
C694 C693 1.364 1_565 S
C694 C703 1.436 . S
C695 C693 1.419 . S
C695 C696 1.363 1_545 S
C695 H698 0.929 . S
C696 C695 1.363 1_565 S
C696 C702 1.428 . S
H697 C693 0.930 . S
H698 C695 0.929 . S
S699 N700 1.613 . S
S699 N701 1.610 . S
N700 S699 1.613 . S
N700 C703 1.350 . S
N701 S699 1.610 . S
N701 C702 1.351 . S
C702 C696 1.428 . S
C702 N701 1.351 . S
C702 C703 1.434 . S
C703 C694 1.436 . S
C703 N700 1.350 . S
C703 C702 1.434 . S
C704 C705 1.369 . S
C704 C706 1.419 . S
C704 H708 0.930 . S
C705 C704 1.369 . S
C705 C714 1.429 . S
C706 C704 1.419 . S
C706 C707 1.363 1_545 S
C706 H709 0.929 . S
C707 C706 1.363 1_565 S
C707 C713 1.428 . S
H708 C704 0.930 . S
H709 C706 0.929 . S
S710 N711 1.613 1_565 S
S710 N712 1.610 . S
N711 S710 1.613 1_545 S
N711 C714 1.350 . S
N712 S710 1.610 . S
N712 C713 1.351 . S
C713 C707 1.428 . S
C713 N712 1.351 . S
C713 C714 1.434 1_565 S
C714 C705 1.429 . S
C714 N711 1.350 . S
C714 C713 1.434 1_545 S
C715 C716 1.369 . S
C715 C717 1.419 . S
C715 H719 0.930 . S
C716 C715 1.369 . S
C716 C725 1.429 . S
C717 C715 1.419 . S
C717 C718 1.363 . S
C717 H720 0.929 . S
C718 C717 1.363 . S
C718 C724 1.428 . S
H719 C715 0.930 . S
H720 C717 0.929 . S
S721 N722 1.613 . S
S721 N723 1.610 . S
N722 S721 1.613 . S
N722 C725 1.350 . S
N723 S721 1.610 . S
N723 C724 1.351 . S
C724 C718 1.428 . S
C724 N723 1.351 . S
C724 C725 1.434 . S
C725 C716 1.429 . S
C725 N722 1.350 . S
C725 C724 1.434 . S
C726 C727 1.369 1_655 S
C726 C728 1.419 . S
C726 H730 0.930 . S
C727 C726 1.369 1_455 S
C727 C736 1.429 . S
C728 C726 1.419 . S
C728 C729 1.364 1_655 S
C728 H731 0.929 . S
C729 C728 1.364 1_455 S
C729 C735 1.427 . S
H730 C726 0.930 . S
H731 C728 0.929 . S
S732 N733 1.613 . S
S732 N734 1.610 . S
N733 S732 1.613 . S
N733 C736 1.350 . S
N734 S732 1.610 . S
N734 C735 1.351 . S
C735 C729 1.427 . S
C735 N734 1.351 . S
C735 C736 1.434 . S
C736 C727 1.429 . S
C736 N733 1.350 . S
C736 C735 1.434 . S
C737 C738 1.359 1_545 S
C737 C739 1.419 1_655 S
C737 H741 0.930 . S
C738 C737 1.359 1_565 S
C738 C747 1.436 1_655 S
C739 C737 1.419 1_455 S
C739 C740 1.363 . S
C739 H742 0.929 . S
C740 C739 1.363 . S
C740 C746 1.428 1_545 S
H741 C737 0.930 . S
H742 C739 0.929 . S
S743 N744 1.613 . S
S743 N745 1.610 . S
N744 S743 1.613 . S
N744 C747 1.350 . S
N745 S743 1.610 . S
N745 C746 1.351 . S
C746 C740 1.428 1_565 S
C746 N745 1.351 . S
C746 C747 1.434 . S
C747 C738 1.436 1_455 S
C747 N744 1.350 . S
C747 C746 1.434 . S
C748 C749 1.369 . S
C748 C750 1.419 . S
C748 H752 0.930 . S
C749 C748 1.369 . S
C749 C758 1.429 . S
C750 C748 1.419 . S
C750 C751 1.363 . S
C750 H753 0.929 . S
C751 C750 1.363 . S
C751 C757 1.428 . S
H752 C748 0.930 . S
H753 C750 0.929 . S
S754 N755 1.613 . S
S754 N756 1.610 . S
N755 S754 1.613 . S
N755 C758 1.350 . S
N756 S754 1.610 . S
N756 C757 1.351 . S
C757 C751 1.428 . S
C757 N756 1.351 . S
C757 C758 1.434 . S
C758 C749 1.429 . S
C758 N755 1.350 . S
C758 C757 1.434 . S
C759 C760 1.369 . S
C759 C761 1.419 . S
C759 H763 0.930 . S
C760 C759 1.369 . S
C760 C769 1.429 . S
C761 C759 1.419 . S
C761 C762 1.363 1_455 S
C761 H764 0.929 1_455 S
C762 C761 1.363 1_655 S
C762 C768 1.428 . S
H763 C759 0.930 . S
H764 C761 0.929 1_655 S
S765 N766 1.613 . S
S765 N767 1.610 1_455 S
N766 S765 1.613 . S
N766 C769 1.350 . S
N767 S765 1.610 1_655 S
N767 C768 1.351 . S
C768 C762 1.428 . S
C768 N767 1.351 . S
C768 C769 1.434 1_655 S
C769 C760 1.429 . S
C769 N766 1.350 . S
C769 C768 1.434 1_455 S
C770 C771 1.369 1_645 S
C770 C772 1.419 . S
C770 H774 0.930 . S
C771 C770 1.369 1_465 S
C771 C780 1.428 . S
C772 C770 1.419 . S
C772 C773 1.363 1_655 S
C772 H775 0.929 . S
C773 C772 1.363 1_455 S
C773 C779 1.428 . S
H774 C770 0.930 . S
H775 C772 0.929 . S
S776 N777 1.613 . S
S776 N778 1.610 1_565 S
N777 S776 1.613 . S
N777 C780 1.350 . S
N778 S776 1.610 1_545 S
N778 C779 1.351 . S
C779 C773 1.428 . S
C779 N778 1.351 . S
C779 C780 1.434 1_545 S
C780 C771 1.428 . S
C780 N777 1.350 . S
C780 C779 1.434 1_565 S
C781 C782 1.369 . S
C781 C783 1.419 . S
C781 H785 0.930 . S
C782 C781 1.369 . S
C782 C791 1.429 1_545 S
C783 C781 1.419 . S
C783 C784 1.351 1_545 S
C783 H786 0.929 . S
C784 C783 1.351 1_565 S
C784 C790 1.436 . S
H785 C781 0.930 . S
H786 C783 0.929 . S
S787 N788 1.613 . S
S787 N789 1.610 . S
N788 S787 1.613 . S
N788 C791 1.350 . S
N789 S787 1.610 . S
N789 C790 1.351 . S
C790 C784 1.436 . S
C790 N789 1.351 . S
C790 C791 1.434 . S
C791 C782 1.429 1_565 S
C791 N788 1.350 . S
C791 C790 1.434 . S
C792 C793 1.369 . S
C792 C794 1.419 . S
C792 H796 0.930 . S
C793 C792 1.369 . S
C793 C802 1.429 . S
C794 C792 1.419 . S
C794 C795 1.363 . S
C794 H797 0.929 . S
C795 C794 1.363 . S
C795 C801 1.428 . S
H796 C792 0.930 . S
H797 C794 0.929 . S
S798 N799 1.613 . S
S798 N800 1.610 . S
N799 S798 1.613 . S
N799 C802 1.350 . S
N800 S798 1.610 . S
N800 C801 1.351 . S
C801 C795 1.428 . S
C801 N800 1.351 . S
C801 C802 1.434 . S
C802 C793 1.429 . S
C802 N799 1.350 . S
C802 C801 1.434 . S
C803 C804 1.369 . S
C803 C805 1.419 . S
C803 H807 0.930 . S
C804 C803 1.369 . S
C804 C813 1.429 . S
C805 C803 1.419 . S
C805 C806 1.363 . S
C805 H808 0.929 . S
C806 C805 1.363 . S
C806 C812 1.428 . S
H807 C803 0.930 . S
H808 C805 0.929 . S
S809 N810 1.613 . S
S809 N811 1.610 . S
N810 S809 1.613 . S
N810 C813 1.350 . S
N811 S809 1.610 . S
N811 C812 1.351 . S
C812 C806 1.428 . S
C812 N811 1.351 . S
C812 C813 1.434 . S
C813 C804 1.429 . S
C813 N810 1.350 . S
C813 C812 1.434 . S
C814 C815 1.369 . S
C814 C816 1.419 . S
C814 H818 0.930 . S
C815 C814 1.369 . S
C815 C824 1.429 . S
C816 C814 1.419 . S
C816 C817 1.363 . S
C816 H819 0.929 . S
C817 C816 1.363 . S
C817 C823 1.428 . S
H818 C814 0.930 . S
H819 C816 0.929 . S
S820 N821 1.613 . S
S820 N822 1.610 . S
N821 S820 1.613 . S
N821 C824 1.350 . S
N822 S820 1.610 . S
N822 C823 1.351 . S
C823 C817 1.428 . S
C823 N822 1.351 . S
C823 C824 1.434 . S
C824 C815 1.429 . S
C824 N821 1.350 . S
C824 C823 1.434 . S
C825 C826 1.369 . S
C825 C827 1.419 . S
C825 H829 0.930 . S
C826 C825 1.369 . S
C826 C835 1.429 . S
C827 C825 1.419 . S
C827 C828 1.363 . S
C827 H830 0.929 . S
C828 C827 1.363 . S
C828 C834 1.428 . S
H829 C825 0.930 . S
H830 C827 0.929 . S
S831 N832 1.613 . S
S831 N833 1.610 . S
N832 S831 1.613 . S
N832 C835 1.350 . S
N833 S831 1.610 . S
N833 C834 1.351 . S
C834 C828 1.428 . S
C834 N833 1.351 . S
C834 C835 1.434 . S
C835 C826 1.429 . S
C835 N832 1.350 . S
C835 C834 1.434 . S
C836 C837 1.369 . S
C836 C838 1.419 . S
C836 H840 0.930 . S
C837 C836 1.369 . S
C837 C846 1.429 . S
C838 C836 1.419 . S
C838 C839 1.363 . S
C838 H841 0.929 . S
C839 C838 1.363 . S
C839 C845 1.428 . S
H840 C836 0.930 . S
H841 C838 0.929 . S
S842 N843 1.613 . S
S842 N844 1.610 . S
N843 S842 1.613 . S
N843 C846 1.350 . S
N844 S842 1.610 . S
N844 C845 1.351 . S
C845 C839 1.428 . S
C845 N844 1.351 . S
C845 C846 1.434 . S
C846 C837 1.429 . S
C846 N843 1.350 . S
C846 C845 1.434 . S
C847 C848 1.369 . S
C847 C849 1.419 . S
C847 H851 0.930 . S
C848 C847 1.369 . S
C848 C857 1.429 . S
C849 C847 1.419 . S
C849 C850 1.363 . S
C849 H852 0.929 . S
C850 C849 1.363 . S
C850 C856 1.428 . S
H851 C847 0.930 . S
H852 C849 0.929 . S
S853 N854 1.613 . S
S853 N855 1.610 . S
N854 S853 1.613 . S
N854 C857 1.350 . S
N855 S853 1.610 . S
N855 C856 1.351 . S
C856 C850 1.428 . S
C856 N855 1.351 . S
C856 C857 1.434 . S
C857 C848 1.429 . S
C857 N854 1.350 . S
C857 C856 1.434 . S
C858 C859 1.369 . S
C858 C860 1.419 . S
C858 H862 0.930 . S
C859 C858 1.369 . S
C859 C868 1.429 . S
C860 C858 1.419 . S
C860 C861 1.363 . S
C860 H863 0.929 . S
C861 C860 1.363 . S
C861 C867 1.428 . S
H862 C858 0.930 . S
H863 C860 0.929 . S
S864 N865 1.613 . S
S864 N866 1.610 . S
N865 S864 1.613 . S
N865 C868 1.350 . S
N866 S864 1.610 . S
N866 C867 1.351 . S
C867 C861 1.428 . S
C867 N866 1.351 . S
C867 C868 1.434 . S
C868 C859 1.429 . S
C868 N865 1.350 . S
C868 C867 1.434 . S
C869 C870 1.369 . S
C869 C871 1.419 . S
C869 H873 0.930 . S
C870 C869 1.369 . S
C870 C879 1.429 . S
C871 C869 1.419 . S
C871 C872 1.363 . S
C871 H874 0.929 . S
C872 C871 1.363 . S
C872 C878 1.428 . S
H873 C869 0.930 . S
H874 C871 0.929 . S
S875 N876 1.613 . S
S875 N877 1.610 . S
N876 S875 1.613 . S
N876 C879 1.350 . S
N877 S875 1.610 . S
N877 C878 1.351 . S
C878 C872 1.428 . S
C878 N877 1.351 . S
C878 C879 1.434 . S
C879 C870 1.429 . S
C879 N876 1.350 . S
C879 C878 1.434 . S
C880 C881 1.369 . S
C880 C882 1.419 . S
C880 H884 0.930 . S
C881 C880 1.369 . S
C881 C890 1.429 . S
C882 C880 1.419 . S
C882 C883 1.363 . S
C882 H885 0.929 . S
C883 C882 1.363 . S
C883 C889 1.428 . S
H884 C880 0.930 . S
H885 C882 0.929 . S
S886 N887 1.613 . S
S886 N888 1.610 . S
N887 S886 1.613 . S
N887 C890 1.350 . S
N888 S886 1.610 . S
N888 C889 1.351 . S
C889 C883 1.428 . S
C889 N888 1.351 . S
C889 C890 1.434 . S
C890 C881 1.429 . S
C890 N887 1.350 . S
C890 C889 1.434 . S
C891 C892 1.369 . S
C891 C893 1.419 . S
C891 H895 0.930 . S
C892 C891 1.369 . S
C892 C901 1.429 . S
C893 C891 1.419 . S
C893 C894 1.363 . S
C893 H896 0.929 . S
C894 C893 1.363 . S
C894 C900 1.428 . S
H895 C891 0.930 . S
H896 C893 0.929 . S
S897 N898 1.613 . S
S897 N899 1.610 . S
N898 S897 1.613 . S
N898 C901 1.350 . S
N899 S897 1.610 . S
N899 C900 1.351 . S
C900 C894 1.428 . S
C900 N899 1.351 . S
C900 C901 1.434 . S
C901 C892 1.429 . S
C901 N898 1.350 . S
C901 C900 1.434 . S
C902 C903 1.369 . S
C902 C904 1.419 . S
C902 H906 0.930 . S
C903 C902 1.369 . S
C903 C912 1.429 . S
C904 C902 1.419 . S
C904 C905 1.363 . S
C904 H907 0.929 . S
C905 C904 1.363 . S
C905 C911 1.428 . S
H906 C902 0.930 . S
H907 C904 0.929 . S
S908 N909 1.613 . S
S908 N910 1.610 . S
N909 S908 1.613 . S
N909 C912 1.350 . S
N910 S908 1.610 . S
N910 C911 1.351 . S
C911 C905 1.428 . S
C911 N910 1.351 . S
C911 C912 1.434 . S
C912 C903 1.429 . S
C912 N909 1.350 . S
C912 C911 1.434 . S
C913 C914 1.369 . S
C913 C915 1.419 . S
C913 H917 0.930 . S
C914 C913 1.369 . S
C914 C923 1.429 . S
C915 C913 1.419 . S
C915 C916 1.363 . S
C915 H918 0.929 . S
C916 C915 1.363 . S
C916 C922 1.428 . S
H917 C913 0.930 . S
H918 C915 0.929 . S
S919 N920 1.613 . S
S919 N921 1.610 . S
N920 S919 1.613 . S
N920 C923 1.350 . S
N921 S919 1.610 . S
N921 C922 1.351 . S
C922 C916 1.428 . S
C922 N921 1.351 . S
C922 C923 1.434 . S
C923 C914 1.429 . S
C923 N920 1.350 . S
C923 C922 1.434 . S
C924 C925 1.369 . S
C924 C926 1.419 . S
C924 H928 0.930 . S
C925 C924 1.369 . S
C925 C934 1.429 . S
C926 C924 1.419 . S
C926 C927 1.363 . S
C926 H929 0.929 . S
C927 C926 1.363 . S
C927 C933 1.428 . S
H928 C924 0.930 . S
H929 C926 0.929 . S
S930 N931 1.613 . S
S930 N932 1.610 . S
N931 S930 1.613 . S
N931 C934 1.350 . S
N932 S930 1.610 . S
N932 C933 1.351 . S
C933 C927 1.428 . S
C933 N932 1.351 . S
C933 C934 1.434 . S
C934 C925 1.429 . S
C934 N931 1.350 . S
C934 C933 1.434 . S
C935 C936 1.369 . S
C935 C937 1.419 . S
C935 H939 0.930 . S
C936 C935 1.369 . S
C936 C945 1.429 . S
C937 C935 1.419 . S
C937 C938 1.363 . S
C937 H940 0.929 . S
C938 C937 1.363 . S
C938 C944 1.428 . S
H939 C935 0.930 . S
H940 C937 0.929 . S
S941 N942 1.613 . S
S941 N943 1.610 . S
N942 S941 1.613 . S
N942 C945 1.350 . S
N943 S941 1.610 . S
N943 C944 1.351 . S
C944 C938 1.428 . S
C944 N943 1.351 . S
C944 C945 1.434 . S
C945 C936 1.429 . S
C945 N942 1.350 . S
C945 C944 1.434 . S
C946 C947 1.369 . S
C946 C948 1.419 . S
C946 H950 0.930 . S
C947 C946 1.369 . S
C947 C956 1.429 . S
C948 C946 1.419 . S
C948 C949 1.363 . S
C948 H951 0.929 . S
C949 C948 1.363 . S
C949 C955 1.428 . S
H950 C946 0.930 . S
H951 C948 0.929 . S
S952 N953 1.613 . S
S952 N954 1.610 . S
N953 S952 1.613 . S
N953 C956 1.350 . S
N954 S952 1.610 . S
N954 C955 1.351 . S
C955 C949 1.428 . S
C955 N954 1.351 . S
C955 C956 1.434 . S
C956 C947 1.429 . S
C956 N953 1.350 . S
C956 C955 1.434 . S
C957 C958 1.369 . S
C957 C959 1.419 . S
C957 H961 0.930 . S
C958 C957 1.369 . S
C958 C967 1.429 . S
C959 C957 1.419 . S
C959 C960 1.363 . S
C959 H962 0.929 . S
C960 C959 1.363 . S
C960 C966 1.428 . S
H961 C957 0.930 . S
H962 C959 0.929 . S
S963 N964 1.613 . S
S963 N965 1.610 . S
N964 S963 1.613 . S
N964 C967 1.350 . S
N965 S963 1.610 . S
N965 C966 1.351 . S
C966 C960 1.428 . S
C966 N965 1.351 . S
C966 C967 1.434 . S
C967 C958 1.429 . S
C967 N964 1.350 . S
C967 C966 1.434 . S
C529 C28 1.588 . S
C531 C160 1.584 . S
C540 C193 1.583 . S
C542 C61 1.584 . S
C551 C226 1.581 . S
C553 C94 1.583 . S
C562 C259 1.586 . S
C564 C127 1.583 . S
C573 C292 1.588 . S
C575 C424 1.586 . S
C584 C325 1.588 . S
C586 C457 1.587 . S
C595 C490 1.587 . S
C597 C358 1.584 . S
C606 C391 1.584 . S
C608 C523 1.586 . S
C617 N401 1.414 . S
C619 N14 1.375 . S
C628 N434 1.420 . S
C630 N47 1.375 . S
C639 N80 1.364 . S
C641 N467 1.407 . S
C650 N500 1.401 . S
C652 N113 1.359 1_565 S
C661 N269 1.421 . S
C663 N146 1.373 . S
C672 N302 1.414 . S
C674 N179 1.371 . S
C683 N212 1.360 . S
C685 N335 1.401 . S
C694 N245 1.362 1_565 S
C696 N368 1.407 . S
C705 N137 1.417 . S
C707 N278 1.368 . S
C716 N170 1.421 . S
C718 N311 1.376 . S
C727 N203 1.408 . S
C729 N344 1.363 1_455 S
C738 N377 1.363 . S
C740 N236 1.400 . S
C749 N5 1.422 . S
C751 N410 1.373 . S
C760 N38 1.417 . S
C762 N443 1.369 . S
C771 N476 1.361 1_455 S
C773 N71 1.399 . S
C782 N104 1.407 . S
C784 N509 1.369 . S
C793 C83 1.441 . S
C795 C17 1.438 . S
C804 C50 1.436 . S
C806 C116 1.433 . S
C815 C215 1.435 . S
C817 C149 1.433 . S
C826 C248 1.441 . S
C828 C182 1.438 . S
C837 C347 1.441 . S
C839 C281 1.438 . S
C848 C380 1.438 . S
C850 C314 1.437 . S
C859 C413 1.439 . S
C861 C479 1.434 . S
C870 C512 1.436 . S
C872 C446 1.434 . S
C881 C239 1.269 . S
C883 C8 1.269 . S
C892 C140 1.263 . S
C894 C41 1.260 . S
C903 C173 1.273 . S
C905 C74 1.271 . S
C914 C206 1.282 . S
C916 C107 1.285 . S
C925 C503 1.274 . S
C927 C272 1.268 . S
C936 C404 1.267 . S
C938 C305 1.265 . S
C947 C437 1.269 . S
C949 C338 1.271 . S
C958 C470 1.278 . S
C960 C371 1.286 . S
