# Generated by pormake.
# Topology fcd, (5)-cn, num edge types: 1
# Building blocks:
#     Node 0, Type 0, BuildingBlock: XOMCOT_clean_sbu_1, # of connection points: 5
#     Node 1, Type 0, BuildingBlock: XOMCOT_clean_sbu_1, # of connection points: 5
#     Node 2, Type 0, BuildingBlock: XOMCOT_clean_sbu_1, # of connection points: 5
#     Node 3, Type 0, BuildingBlock: XOMCOT_clean_sbu_1, # of connection points: 5
#     Node 4, Type 0, BuildingBlock: XOMCOT_clean_sbu_1, # of connection points: 5
#     Node 5, Type 0, BuildingBlock: XOMCOT_clean_sbu_1, # of connection points: 5
#     Node 6, Type 0, BuildingBlock: XOMCOT_clean_sbu_1, # of connection points: 5
#     Node 7, Type 0, BuildingBlock: XOMCOT_clean_sbu_1, # of connection points: 5
#     Node 8, Type 0, BuildingBlock: XOMCOT_clean_sbu_1, # of connection points: 5
#     Node 9, Type 0, BuildingBlock: XOMCOT_clean_sbu_1, # of connection points: 5
#     Node 10, Type 0, BuildingBlock: XOMCOT_clean_sbu_1, # of connection points: 5
#     Node 11, Type 0, BuildingBlock: XOMCOT_clean_sbu_1, # of connection points: 5
#     Node 12, Type 0, BuildingBlock: XOMCOT_clean_sbu_1, # of connection points: 5
#     Node 13, Type 0, BuildingBlock: XOMCOT_clean_sbu_1, # of connection points: 5
#     Node 14, Type 0, BuildingBlock: XOMCOT_clean_sbu_1, # of connection points: 5
#     Node 15, Type 0, BuildingBlock: XOMCOT_clean_sbu_1, # of connection points: 5
#     Node 16, Type 0, BuildingBlock: XOMCOT_clean_sbu_1, # of connection points: 5
#     Node 17, Type 0, BuildingBlock: XOMCOT_clean_sbu_1, # of connection points: 5
#     Node 18, Type 0, BuildingBlock: XOMCOT_clean_sbu_1, # of connection points: 5
#     Node 19, Type 0, BuildingBlock: XOMCOT_clean_sbu_1, # of connection points: 5
#     Node 20, Type 0, BuildingBlock: XOMCOT_clean_sbu_1, # of connection points: 5
#     Node 21, Type 0, BuildingBlock: XOMCOT_clean_sbu_1, # of connection points: 5
#     Node 22, Type 0, BuildingBlock: XOMCOT_clean_sbu_1, # of connection points: 5
#     Node 23, Type 0, BuildingBlock: XOMCOT_clean_sbu_1, # of connection points: 5
#     Node 24, Type 0, BuildingBlock: XOMCOT_clean_sbu_1, # of connection points: 5
#     Node 25, Type 0, BuildingBlock: XOMCOT_clean_sbu_1, # of connection points: 5
#     Node 26, Type 0, BuildingBlock: XOMCOT_clean_sbu_1, # of connection points: 5
#     Node 27, Type 0, BuildingBlock: XOMCOT_clean_sbu_1, # of connection points: 5
#     Node 28, Type 0, BuildingBlock: XOMCOT_clean_sbu_1, # of connection points: 5
#     Node 29, Type 0, BuildingBlock: XOMCOT_clean_sbu_1, # of connection points: 5
#     Node 30, Type 0, BuildingBlock: XOMCOT_clean_sbu_1, # of connection points: 5
#     Node 31, Type 0, BuildingBlock: XOMCOT_clean_sbu_1, # of connection points: 5
#     Node 32, Type 0, BuildingBlock: XOMCOT_clean_sbu_1, # of connection points: 5
#     Node 33, Type 0, BuildingBlock: XOMCOT_clean_sbu_1, # of connection points: 5
#     Node 34, Type 0, BuildingBlock: XOMCOT_clean_sbu_1, # of connection points: 5
#     Node 35, Type 0, BuildingBlock: XOMCOT_clean_sbu_1, # of connection points: 5
#     Node 36, Type 0, BuildingBlock: XOMCOT_clean_sbu_1, # of connection points: 5
#     Node 37, Type 0, BuildingBlock: XOMCOT_clean_sbu_1, # of connection points: 5
#     Node 38, Type 0, BuildingBlock: XOMCOT_clean_sbu_1, # of connection points: 5
#     Node 39, Type 0, BuildingBlock: XOMCOT_clean_sbu_1, # of connection points: 5
#     Node 40, Type 0, BuildingBlock: XOMCOT_clean_sbu_1, # of connection points: 5
#     Node 41, Type 0, BuildingBlock: XOMCOT_clean_sbu_1, # of connection points: 5
#     Node 42, Type 0, BuildingBlock: XOMCOT_clean_sbu_1, # of connection points: 5
#     Node 43, Type 0, BuildingBlock: XOMCOT_clean_sbu_1, # of connection points: 5
#     Node 44, Type 0, BuildingBlock: XOMCOT_clean_sbu_1, # of connection points: 5
#     Node 45, Type 0, BuildingBlock: XOMCOT_clean_sbu_1, # of connection points: 5
#     Node 46, Type 0, BuildingBlock: XOMCOT_clean_sbu_1, # of connection points: 5
#     Node 47, Type 0, BuildingBlock: XOMCOT_clean_sbu_1, # of connection points: 5
#     Edge 48, Type (0, 0), BuildingBlock: KIFKEQ_clean_linker_1, # of connection points: 2
#     Edge 49, Type (0, 0), BuildingBlock: KIFKEQ_clean_linker_1, # of connection points: 2
#     Edge 50, Type (0, 0), BuildingBlock: KIFKEQ_clean_linker_1, # of connection points: 2
#     Edge 51, Type (0, 0), BuildingBlock: KIFKEQ_clean_linker_1, # of connection points: 2
#     Edge 52, Type (0, 0), BuildingBlock: KIFKEQ_clean_linker_1, # of connection points: 2
#     Edge 53, Type (0, 0), BuildingBlock: KIFKEQ_clean_linker_1, # of connection points: 2
#     Edge 54, Type (0, 0), BuildingBlock: KIFKEQ_clean_linker_1, # of connection points: 2
#     Edge 55, Type (0, 0), BuildingBlock: KIFKEQ_clean_linker_1, # of connection points: 2
#     Edge 56, Type (0, 0), BuildingBlock: KIFKEQ_clean_linker_1, # of connection points: 2
#     Edge 57, Type (0, 0), BuildingBlock: KIFKEQ_clean_linker_1, # of connection points: 2
#     Edge 58, Type (0, 0), BuildingBlock: KIFKEQ_clean_linker_1, # of connection points: 2
#     Edge 59, Type (0, 0), BuildingBlock: KIFKEQ_clean_linker_1, # of connection points: 2
#     Edge 60, Type (0, 0), BuildingBlock: KIFKEQ_clean_linker_1, # of connection points: 2
#     Edge 61, Type (0, 0), BuildingBlock: KIFKEQ_clean_linker_1, # of connection points: 2
#     Edge 62, Type (0, 0), BuildingBlock: KIFKEQ_clean_linker_1, # of connection points: 2
#     Edge 63, Type (0, 0), BuildingBlock: KIFKEQ_clean_linker_1, # of connection points: 2
#     Edge 64, Type (0, 0), BuildingBlock: KIFKEQ_clean_linker_1, # of connection points: 2
#     Edge 65, Type (0, 0), BuildingBlock: KIFKEQ_clean_linker_1, # of connection points: 2
#     Edge 66, Type (0, 0), BuildingBlock: KIFKEQ_clean_linker_1, # of connection points: 2
#     Edge 67, Type (0, 0), BuildingBlock: KIFKEQ_clean_linker_1, # of connection points: 2
#     Edge 68, Type (0, 0), BuildingBlock: KIFKEQ_clean_linker_1, # of connection points: 2
#     Edge 69, Type (0, 0), BuildingBlock: KIFKEQ_clean_linker_1, # of connection points: 2
#     Edge 70, Type (0, 0), BuildingBlock: KIFKEQ_clean_linker_1, # of connection points: 2
#     Edge 71, Type (0, 0), BuildingBlock: KIFKEQ_clean_linker_1, # of connection points: 2
#     Edge 72, Type (0, 0), BuildingBlock: KIFKEQ_clean_linker_1, # of connection points: 2
#     Edge 73, Type (0, 0), BuildingBlock: KIFKEQ_clean_linker_1, # of connection points: 2
#     Edge 74, Type (0, 0), BuildingBlock: KIFKEQ_clean_linker_1, # of connection points: 2
#     Edge 75, Type (0, 0), BuildingBlock: KIFKEQ_clean_linker_1, # of connection points: 2
#     Edge 76, Type (0, 0), BuildingBlock: KIFKEQ_clean_linker_1, # of connection points: 2
#     Edge 77, Type (0, 0), BuildingBlock: KIFKEQ_clean_linker_1, # of connection points: 2
#     Edge 78, Type (0, 0), BuildingBlock: KIFKEQ_clean_linker_1, # of connection points: 2
#     Edge 79, Type (0, 0), BuildingBlock: KIFKEQ_clean_linker_1, # of connection points: 2
#     Edge 80, Type (0, 0), BuildingBlock: KIFKEQ_clean_linker_1, # of connection points: 2
#     Edge 81, Type (0, 0), BuildingBlock: KIFKEQ_clean_linker_1, # of connection points: 2
#     Edge 82, Type (0, 0), BuildingBlock: KIFKEQ_clean_linker_1, # of connection points: 2
#     Edge 83, Type (0, 0), BuildingBlock: KIFKEQ_clean_linker_1, # of connection points: 2
#     Edge 84, Type (0, 0), BuildingBlock: KIFKEQ_clean_linker_1, # of connection points: 2
#     Edge 85, Type (0, 0), BuildingBlock: KIFKEQ_clean_linker_1, # of connection points: 2
#     Edge 86, Type (0, 0), BuildingBlock: KIFKEQ_clean_linker_1, # of connection points: 2
#     Edge 87, Type (0, 0), BuildingBlock: KIFKEQ_clean_linker_1, # of connection points: 2
#     Edge 88, Type (0, 0), BuildingBlock: KIFKEQ_clean_linker_1, # of connection points: 2
#     Edge 89, Type (0, 0), BuildingBlock: KIFKEQ_clean_linker_1, # of connection points: 2
#     Edge 90, Type (0, 0), BuildingBlock: KIFKEQ_clean_linker_1, # of connection points: 2
#     Edge 91, Type (0, 0), BuildingBlock: KIFKEQ_clean_linker_1, # of connection points: 2
#     Edge 92, Type (0, 0), BuildingBlock: KIFKEQ_clean_linker_1, # of connection points: 2
#     Edge 93, Type (0, 0), BuildingBlock: KIFKEQ_clean_linker_1, # of connection points: 2
#     Edge 94, Type (0, 0), BuildingBlock: KIFKEQ_clean_linker_1, # of connection points: 2
#     Edge 95, Type (0, 0), BuildingBlock: KIFKEQ_clean_linker_1, # of connection points: 2
#     Edge 96, Type (0, 0), BuildingBlock: KIFKEQ_clean_linker_1, # of connection points: 2
#     Edge 97, Type (0, 0), BuildingBlock: KIFKEQ_clean_linker_1, # of connection points: 2
#     Edge 98, Type (0, 0), BuildingBlock: KIFKEQ_clean_linker_1, # of connection points: 2
#     Edge 99, Type (0, 0), BuildingBlock: KIFKEQ_clean_linker_1, # of connection points: 2
#     Edge 100, Type (0, 0), BuildingBlock: KIFKEQ_clean_linker_1, # of connection points: 2
#     Edge 101, Type (0, 0), BuildingBlock: KIFKEQ_clean_linker_1, # of connection points: 2
#     Edge 102, Type (0, 0), BuildingBlock: KIFKEQ_clean_linker_1, # of connection points: 2
#     Edge 103, Type (0, 0), BuildingBlock: KIFKEQ_clean_linker_1, # of connection points: 2
#     Edge 104, Type (0, 0), BuildingBlock: KIFKEQ_clean_linker_1, # of connection points: 2
#     Edge 105, Type (0, 0), BuildingBlock: KIFKEQ_clean_linker_1, # of connection points: 2
#     Edge 106, Type (0, 0), BuildingBlock: KIFKEQ_clean_linker_1, # of connection points: 2
#     Edge 107, Type (0, 0), BuildingBlock: KIFKEQ_clean_linker_1, # of connection points: 2
#     Edge 108, Type (0, 0), BuildingBlock: KIFKEQ_clean_linker_1, # of connection points: 2
#     Edge 109, Type (0, 0), BuildingBlock: KIFKEQ_clean_linker_1, # of connection points: 2
#     Edge 110, Type (0, 0), BuildingBlock: KIFKEQ_clean_linker_1, # of connection points: 2
#     Edge 111, Type (0, 0), BuildingBlock: KIFKEQ_clean_linker_1, # of connection points: 2
#     Edge 112, Type (0, 0), BuildingBlock: KIFKEQ_clean_linker_1, # of connection points: 2
#     Edge 113, Type (0, 0), BuildingBlock: KIFKEQ_clean_linker_1, # of connection points: 2
#     Edge 114, Type (0, 0), BuildingBlock: KIFKEQ_clean_linker_1, # of connection points: 2
#     Edge 115, Type (0, 0), BuildingBlock: KIFKEQ_clean_linker_1, # of connection points: 2
#     Edge 116, Type (0, 0), BuildingBlock: KIFKEQ_clean_linker_1, # of connection points: 2
#     Edge 117, Type (0, 0), BuildingBlock: KIFKEQ_clean_linker_1, # of connection points: 2
#     Edge 118, Type (0, 0), BuildingBlock: KIFKEQ_clean_linker_1, # of connection points: 2
#     Edge 119, Type (0, 0), BuildingBlock: KIFKEQ_clean_linker_1, # of connection points: 2
#     Edge 120, Type (0, 0), BuildingBlock: KIFKEQ_clean_linker_1, # of connection points: 2
#     Edge 121, Type (0, 0), BuildingBlock: KIFKEQ_clean_linker_1, # of connection points: 2
#     Edge 122, Type (0, 0), BuildingBlock: KIFKEQ_clean_linker_1, # of connection points: 2
#     Edge 123, Type (0, 0), BuildingBlock: KIFKEQ_clean_linker_1, # of connection points: 2
#     Edge 124, Type (0, 0), BuildingBlock: KIFKEQ_clean_linker_1, # of connection points: 2
#     Edge 125, Type (0, 0), BuildingBlock: KIFKEQ_clean_linker_1, # of connection points: 2
#     Edge 126, Type (0, 0), BuildingBlock: KIFKEQ_clean_linker_1, # of connection points: 2
#     Edge 127, Type (0, 0), BuildingBlock: KIFKEQ_clean_linker_1, # of connection points: 2
#     Edge 128, Type (0, 0), BuildingBlock: KIFKEQ_clean_linker_1, # of connection points: 2
#     Edge 129, Type (0, 0), BuildingBlock: KIFKEQ_clean_linker_1, # of connection points: 2
#     Edge 130, Type (0, 0), BuildingBlock: KIFKEQ_clean_linker_1, # of connection points: 2
#     Edge 131, Type (0, 0), BuildingBlock: KIFKEQ_clean_linker_1, # of connection points: 2
#     Edge 132, Type (0, 0), BuildingBlock: KIFKEQ_clean_linker_1, # of connection points: 2
#     Edge 133, Type (0, 0), BuildingBlock: KIFKEQ_clean_linker_1, # of connection points: 2
#     Edge 134, Type (0, 0), BuildingBlock: KIFKEQ_clean_linker_1, # of connection points: 2
#     Edge 135, Type (0, 0), BuildingBlock: KIFKEQ_clean_linker_1, # of connection points: 2
#     Edge 136, Type (0, 0), BuildingBlock: KIFKEQ_clean_linker_1, # of connection points: 2
#     Edge 137, Type (0, 0), BuildingBlock: KIFKEQ_clean_linker_1, # of connection points: 2
#     Edge 138, Type (0, 0), BuildingBlock: KIFKEQ_clean_linker_1, # of connection points: 2
#     Edge 139, Type (0, 0), BuildingBlock: KIFKEQ_clean_linker_1, # of connection points: 2
#     Edge 140, Type (0, 0), BuildingBlock: KIFKEQ_clean_linker_1, # of connection points: 2
#     Edge 141, Type (0, 0), BuildingBlock: KIFKEQ_clean_linker_1, # of connection points: 2
#     Edge 142, Type (0, 0), BuildingBlock: KIFKEQ_clean_linker_1, # of connection points: 2
#     Edge 143, Type (0, 0), BuildingBlock: KIFKEQ_clean_linker_1, # of connection points: 2
#     Edge 144, Type (0, 0), BuildingBlock: KIFKEQ_clean_linker_1, # of connection points: 2
#     Edge 145, Type (0, 0), BuildingBlock: KIFKEQ_clean_linker_1, # of connection points: 2
#     Edge 146, Type (0, 0), BuildingBlock: KIFKEQ_clean_linker_1, # of connection points: 2
#     Edge 147, Type (0, 0), BuildingBlock: KIFKEQ_clean_linker_1, # of connection points: 2
#     Edge 148, Type (0, 0), BuildingBlock: KIFKEQ_clean_linker_1, # of connection points: 2
#     Edge 149, Type (0, 0), BuildingBlock: KIFKEQ_clean_linker_1, # of connection points: 2
#     Edge 150, Type (0, 0), BuildingBlock: KIFKEQ_clean_linker_1, # of connection points: 2
#     Edge 151, Type (0, 0), BuildingBlock: KIFKEQ_clean_linker_1, # of connection points: 2
#     Edge 152, Type (0, 0), BuildingBlock: KIFKEQ_clean_linker_1, # of connection points: 2
#     Edge 153, Type (0, 0), BuildingBlock: KIFKEQ_clean_linker_1, # of connection points: 2
#     Edge 154, Type (0, 0), BuildingBlock: KIFKEQ_clean_linker_1, # of connection points: 2
#     Edge 155, Type (0, 0), BuildingBlock: KIFKEQ_clean_linker_1, # of connection points: 2
#     Edge 156, Type (0, 0), BuildingBlock: KIFKEQ_clean_linker_1, # of connection points: 2
#     Edge 157, Type (0, 0), BuildingBlock: KIFKEQ_clean_linker_1, # of connection points: 2
#     Edge 158, Type (0, 0), BuildingBlock: KIFKEQ_clean_linker_1, # of connection points: 2
#     Edge 159, Type (0, 0), BuildingBlock: KIFKEQ_clean_linker_1, # of connection points: 2
#     Edge 160, Type (0, 0), BuildingBlock: KIFKEQ_clean_linker_1, # of connection points: 2
#     Edge 161, Type (0, 0), BuildingBlock: KIFKEQ_clean_linker_1, # of connection points: 2
#     Edge 162, Type (0, 0), BuildingBlock: KIFKEQ_clean_linker_1, # of connection points: 2
#     Edge 163, Type (0, 0), BuildingBlock: KIFKEQ_clean_linker_1, # of connection points: 2
#     Edge 164, Type (0, 0), BuildingBlock: KIFKEQ_clean_linker_1, # of connection points: 2
#     Edge 165, Type (0, 0), BuildingBlock: KIFKEQ_clean_linker_1, # of connection points: 2
#     Edge 166, Type (0, 0), BuildingBlock: KIFKEQ_clean_linker_1, # of connection points: 2
#     Edge 167, Type (0, 0), BuildingBlock: KIFKEQ_clean_linker_1, # of connection points: 2
# Relax obj value: 0.321
# Max RMSD: 0.263
# Mean RMSD: 0.263
data_MOF--net-fcd--node1-XOMCOT_clean_sbu_1--edge1-KIFKEQ_clean_linker_1
_symmetry_space_group_name_H-M    P1
_symmetry_Int_Tables_number       1
_symmetry_cell_setting            triclinic
loop_
_symmetry_equiv_pos_as_xyz
'x, y, z'
_cell_length_a     70.093116
_cell_length_b     70.087432
_cell_length_c     70.101439
_cell_angle_alpha  89.998713
_cell_angle_beta   90.016713
_cell_angle_gamma 90.003896
loop_
_atom_site_label
_atom_site_type_symbol
_atom_site_fract_x
_atom_site_fract_y
_atom_site_fract_z
_atom_type_partial_charge
C0 C 0.06816 0.17617 0.40766 0.0
C1 C 0.05225 0.18588 0.41371 0.0
N2 N 0.05097 0.20225 0.40369 0.0
N3 N 0.0769 0.18635 0.39392 0.0
C4 C 0.06621 0.20225 0.3919 0.0
H5 H 0.07275 0.16225 0.41249 0.0
Co6 Co 0.09732 0.17722 0.37998 0.0
C7 C 0.11277 0.20972 0.35784 0.0
O8 O 0.11673 0.19822 0.34357 0.0
N9 N 0.11827 0.16718 0.36629 0.0
C10 C 0.13753 0.14866 0.34912 0.0
C11 C 0.11883 0.15333 0.35289 0.0
C12 C 0.13683 0.17078 0.37018 0.0
N13 N 0.14884 0.15956 0.36016 0.0
O14 O 0.11284 0.17941 0.4023 0.0
H15 H 0.1066 0.1464 0.34664 0.0
H16 H 0.14144 0.18079 0.38098 0.0
O17 O 0.10455 0.20319 0.37276 0.0
C18 C 0.11671 0.16383 0.41076 0.0
O19 O 0.11087 0.14771 0.40314 0.0
N20 N 0.08079 0.17405 0.35914 0.0
C21 C 0.04732 0.1667 0.33887 0.0
C22 C 0.05609 0.18466 0.33787 0.0
C23 C 0.0728 0.18811 0.34821 0.0
C24 C 0.07287 0.1563 0.35955 0.0
C25 C 0.05633 0.15222 0.34929 0.0
H26 H 0.07798 0.20255 0.3487 0.0
H27 H 0.0787 0.14562 0.36904 0.0
H28 H 0.06898 0.21313 0.38131 0.0
H29 H 0.04223 0.18108 0.42443 0.0
H30 H 0.14233 0.13768 0.33939 0.0
H31 H 0.04942 0.19628 0.33017 0.0
H32 H 0.04981 0.1383 0.35087 0.0
C33 C 0.9262 0.32221 0.41316 0.0
C34 C 0.94194 0.31191 0.41873 0.0
N35 N 0.9437 0.29675 0.40703 0.0
N36 N 0.91806 0.31357 0.39806 0.0
C37 C 0.92892 0.29802 0.39472 0.0
H38 H 0.92134 0.3355 0.4193 0.0
Co39 Co 0.89814 0.32396 0.38425 0.0
C40 C 0.88259 0.29283 0.35996 0.0
O41 O 0.87828 0.30496 0.34634 0.0
N42 N 0.87776 0.33524 0.37067 0.0
C43 C 0.85983 0.35504 0.35345 0.0
C44 C 0.87817 0.34956 0.35775 0.0
C45 C 0.85893 0.33221 0.37376 0.0
N46 N 0.84773 0.34419 0.36366 0.0
O47 O 0.88194 0.32004 0.40578 0.0
H48 H 0.89085 0.3562 0.35212 0.0
H49 H 0.85353 0.32195 0.38394 0.0
O50 O 0.89096 0.29869 0.37507 0.0
C51 C 0.87741 0.33429 0.41605 0.0
O52 O 0.88287 0.35143 0.41077 0.0
N53 N 0.91532 0.32849 0.36419 0.0
C54 C 0.94851 0.33707 0.344 0.0
C55 C 0.93936 0.31946 0.34152 0.0
C56 C 0.92277 0.31539 0.35181 0.0
C57 C 0.92376 0.34587 0.3663 0.0
C58 C 0.94016 0.3506 0.35611 0.0
H59 H 0.91713 0.30115 0.35086 0.0
H60 H 0.91825 0.35575 0.3768 0.0
H61 H 0.92662 0.28837 0.38291 0.0
H62 H 0.95152 0.31552 0.43029 0.0
H63 H 0.85579 0.36644 0.34386 0.0
H64 H 0.94556 0.30855 0.3325 0.0
H65 H 0.94702 0.36418 0.35881 0.0
C66 C 0.06814 0.82652 0.0947 0.0
C67 C 0.0518 0.81691 0.08971 0.0
N68 N 0.05327 0.79888 0.09614 0.0
N69 N 0.07974 0.81466 0.10441 0.0
C70 C 0.07039 0.79779 0.1049 0.0
H71 H 0.07097 0.84151 0.0924 0.0
Co72 Co 0.10107 0.82352 0.11718 0.0
C73 C 0.11615 0.79152 0.14004 0.0
O74 O 0.1199 0.80337 0.15406 0.0
N75 N 0.12298 0.83338 0.12981 0.0
C76 C 0.14318 0.84965 0.1483 0.0
C77 C 0.12435 0.84506 0.14515 0.0
C78 C 0.1413 0.83107 0.1241 0.0
N79 N 0.15376 0.84097 0.13489 0.0
O80 O 0.11546 0.82015 0.09439 0.0
H81 H 0.11258 0.85025 0.15357 0.0
H82 H 0.14558 0.82235 0.11212 0.0
O83 O 0.10809 0.79767 0.12486 0.0
C84 C 0.11875 0.83489 0.08436 0.0
O85 O 0.11297 0.85161 0.09059 0.0
N86 N 0.08545 0.82759 0.13851 0.0
C87 C 0.052 0.836 0.15833 0.0
C88 C 0.05965 0.81752 0.15868 0.0
C89 C 0.07634 0.81354 0.14853 0.0
C90 C 0.07871 0.84583 0.13889 0.0
C91 C 0.0622 0.85043 0.14898 0.0
H92 H 0.0805 0.79882 0.14721 0.0
H93 H 0.08536 0.85655 0.13 0.0
H94 H 0.0753 0.7854 0.11269 0.0
H95 H 0.03949 0.82285 0.08252 0.0
H96 H 0.14858 0.85922 0.15916 0.0
H97 H 0.05205 0.80595 0.16553 0.0
H98 H 0.05655 0.86477 0.14793 0.0
C99 C 0.93282 0.67439 0.09109 0.0
C100 C 0.94939 0.68363 0.08606 0.0
N101 N 0.94845 0.70161 0.09272 0.0
N102 N 0.92164 0.68644 0.10106 0.0
C103 C 0.93145 0.70303 0.10163 0.0
H104 H 0.92961 0.65948 0.08872 0.0
Co105 Co 0.90033 0.67831 0.11442 0.0
C106 C 0.88825 0.71067 0.13858 0.0
O107 O 0.88454 0.69892 0.1527 0.0
N108 N 0.87839 0.66934 0.12778 0.0
C109 C 0.85847 0.6534 0.1468 0.0
C110 C 0.87723 0.65769 0.14314 0.0
C111 C 0.85993 0.67217 0.12273 0.0
N112 N 0.84757 0.6624 0.13383 0.0
O113 O 0.88531 0.68294 0.09224 0.0
H114 H 0.88909 0.65234 0.15134 0.0
H115 H 0.85555 0.6807 0.11065 0.0
O116 O 0.8951 0.70423 0.12296 0.0
C117 C 0.88147 0.6683 0.08222 0.0
O118 O 0.88689 0.65144 0.08838 0.0
N119 N 0.91653 0.67275 0.13493 0.0
C120 C 0.95081 0.66118 0.15146 0.0
C121 C 0.94462 0.68016 0.15312 0.0
C122 C 0.92742 0.68572 0.14462 0.0
C123 C 0.92174 0.65404 0.13438 0.0
C124 C 0.93854 0.64787 0.14295 0.0
H125 H 0.92422 0.70075 0.14402 0.0
H126 H 0.91356 0.64412 0.12583 0.0
H127 H 0.92701 0.71543 0.10969 0.0
H128 H 0.9615 0.67743 0.07875 0.0
H129 H 0.85329 0.64418 0.15805 0.0
H130 H 0.95381 0.69097 0.15924 0.0
H131 H 0.94263 0.63303 0.14152 0.0
C132 C 0.4026 0.06099 0.17419 0.0
C133 C 0.40672 0.04461 0.18409 0.0
N134 N 0.4034 0.04788 0.20271 0.0
N135 N 0.39666 0.07453 0.18647 0.0
C136 C 0.39742 0.06617 0.20384 0.0
H137 H 0.40281 0.06259 0.15885 0.0
Co138 Co 0.38588 0.09726 0.17821 0.0
C139 C 0.3804 0.11902 0.21298 0.0
O140 O 0.39023 0.13279 0.20491 0.0
N141 N 0.37488 0.12001 0.16937 0.0
C142 C 0.35431 0.14359 0.16403 0.0
C143 C 0.35635 0.12519 0.17053 0.0
C144 C 0.38377 0.13548 0.16206 0.0
N145 N 0.37162 0.15007 0.15888 0.0
O146 O 0.40961 0.10994 0.18288 0.0
H147 H 0.34512 0.11649 0.17654 0.0
H148 H 0.39899 0.13639 0.15974 0.0
O149 O 0.37737 0.1035 0.20391 0.0
C150 C 0.42324 0.10726 0.17124 0.0
O151 O 0.42036 0.09653 0.15615 0.0
N152 N 0.36357 0.08383 0.17281 0.0
C153 C 0.33991 0.05393 0.16161 0.0
C154 C 0.3406 0.05978 0.18077 0.0
C155 C 0.35268 0.07473 0.18614 0.0
C156 C 0.36177 0.07959 0.15397 0.0
C157 C 0.35002 0.06469 0.14803 0.0
H158 H 0.35442 0.07775 0.20114 0.0
H159 H 0.3709 0.08663 0.14371 0.0
H160 H 0.3924 0.0728 0.21684 0.0
H161 H 0.41111 0.0311 0.17802 0.0
H162 H 0.34131 0.15194 0.16418 0.0
H163 H 0.33287 0.0521 0.19171 0.0
H164 H 0.35026 0.06065 0.13313 0.0
C165 C 0.5998 0.43394 0.17156 0.0
C166 C 0.59414 0.45 0.18127 0.0
N167 N 0.60157 0.44934 0.19901 0.0
N168 N 0.61072 0.42315 0.18307 0.0
C169 C 0.61145 0.43277 0.19973 0.0
H170 H 0.59688 0.43071 0.15676 0.0
Co171 Co 0.6238 0.40184 0.17472 0.0
C172 C 0.64469 0.38626 0.20795 0.0
O173 O 0.65912 0.38176 0.19687 0.0
N174 N 0.6367 0.37999 0.16545 0.0
C175 C 0.65502 0.3595 0.14941 0.0
C176 C 0.65191 0.37844 0.15365 0.0
C177 C 0.63102 0.36175 0.16822 0.0
N178 N 0.64169 0.34909 0.15845 0.0
O179 O 0.60077 0.38754 0.17687 0.0
H180 H 0.66009 0.39017 0.148 0.0
H181 H 0.61907 0.3577 0.17709 0.0
O182 O 0.63015 0.39475 0.20092 0.0
C183 C 0.59157 0.38474 0.16149 0.0
O184 O 0.59889 0.39089 0.14536 0.0
N185 N 0.64542 0.41735 0.17173 0.0
C186 C 0.66553 0.45096 0.16463 0.0
C187 C 0.66564 0.44268 0.18284 0.0
C188 C 0.65535 0.42592 0.18617 0.0
C189 C 0.64619 0.42457 0.1537 0.0
C190 C 0.65637 0.4412 0.14976 0.0
H191 H 0.65387 0.4213 0.20073 0.0
H192 H 0.63743 0.41829 0.14264 0.0
H193 H 0.6196 0.42799 0.21191 0.0
H194 H 0.58597 0.46166 0.17531 0.0
H195 H 0.66569 0.3539 0.13975 0.0
H196 H 0.67241 0.44986 0.19474 0.0
H197 H 0.65552 0.44728 0.13558 0.0
C198 C 0.39998 0.9333 0.33271 0.0
C199 C 0.40624 0.94947 0.3235 0.0
N200 N 0.40112 0.94816 0.30503 0.0
N201 N 0.39081 0.92201 0.32014 0.0
C202 C 0.39191 0.93135 0.30333 0.0
H203 H 0.40114 0.93039 0.34782 0.0
Co204 Co 0.37688 0.90073 0.32734 0.0
C205 C 0.35366 0.88994 0.29387 0.0
O206 O 0.33899 0.88637 0.30498 0.0
N207 N 0.36298 0.87881 0.33531 0.0
C208 C 0.34348 0.85851 0.3502 0.0
C209 C 0.34728 0.87739 0.34648 0.0
C210 C 0.36806 0.86042 0.33214 0.0
N211 N 0.35668 0.84786 0.34126 0.0
O212 O 0.39905 0.88556 0.32319 0.0
H213 H 0.33899 0.88913 0.35193 0.0
H214 H 0.38038 0.85623 0.32389 0.0
O215 O 0.36922 0.89611 0.30107 0.0
C216 C 0.40882 0.8821 0.33807 0.0
O217 O 0.40229 0.88793 0.35466 0.0
N218 N 0.35636 0.91705 0.33241 0.0
C219 C 0.33961 0.95126 0.34385 0.0
C220 C 0.33902 0.94557 0.32467 0.0
C221 C 0.34763 0.92843 0.31917 0.0
C222 C 0.35589 0.92179 0.35124 0.0
C223 C 0.34717 0.93855 0.35733 0.0
H224 H 0.34917 0.9257 0.30413 0.0
H225 H 0.36377 0.91328 0.36142 0.0
H226 H 0.38497 0.92664 0.29037 0.0
H227 H 0.41345 0.9615 0.32996 0.0
H228 H 0.33204 0.8531 0.35903 0.0
H229 H 0.33374 0.95512 0.31373 0.0
H230 H 0.3478 0.94227 0.37232 0.0
C231 C 0.59368 0.56713 0.32532 0.0
C232 C 0.58909 0.5509 0.31536 0.0
N233 N 0.59632 0.5525 0.29765 0.0
N234 N 0.60376 0.57891 0.31396 0.0
C235 C 0.60502 0.56968 0.29709 0.0
H236 H 0.59084 0.56967 0.34026 0.0
Co237 Co 0.61604 0.60041 0.32323 0.0
C238 C 0.63954 0.61565 0.29158 0.0
O239 O 0.65328 0.61987 0.3036 0.0
N240 N 0.62815 0.62237 0.33345 0.0
C241 C 0.64678 0.64274 0.34936 0.0
C242 C 0.64388 0.62391 0.34459 0.0
C243 C 0.62188 0.64057 0.33173 0.0
N244 N 0.6328 0.65313 0.34136 0.0
O245 O 0.59325 0.61466 0.31909 0.0
H246 H 0.65286 0.61227 0.34911 0.0
H247 H 0.60954 0.64474 0.32347 0.0
O248 O 0.6244 0.60743 0.2976 0.0
C249 C 0.58126 0.61457 0.33268 0.0
O250 O 0.58573 0.60582 0.34865 0.0
N251 N 0.63736 0.58497 0.32799 0.0
C252 C 0.65684 0.55148 0.33697 0.0
C253 C 0.6578 0.55917 0.31854 0.0
C254 C 0.64785 0.5759 0.31427 0.0
C255 C 0.63726 0.57829 0.34625 0.0
C256 C 0.64715 0.56173 0.35113 0.0
H257 H 0.64702 0.58011 0.29952 0.0
H258 H 0.6281 0.58498 0.35671 0.0
H259 H 0.61333 0.57474 0.2851 0.0
H260 H 0.58163 0.53858 0.32093 0.0
H261 H 0.658 0.64829 0.35842 0.0
H262 H 0.66498 0.55155 0.30717 0.0
H263 H 0.64568 0.55608 0.36544 0.0
C264 C 0.17984 0.4082 0.0729 0.0
C265 C 0.1897 0.41428 0.05711 0.0
N266 N 0.20558 0.40357 0.05537 0.0
N267 N 0.18943 0.39375 0.08117 0.0
C268 C 0.20516 0.39134 0.07028 0.0
H269 H 0.16618 0.41351 0.07772 0.0
Co270 Co 0.17957 0.37967 0.10123 0.0
C271 C 0.21101 0.3561 0.11652 0.0
O272 O 0.19899 0.34206 0.11965 0.0
N273 N 0.16879 0.36583 0.12182 0.0
C274 C 0.14955 0.34846 0.1402 0.0
C275 C 0.15491 0.35243 0.12176 0.0
C276 C 0.17175 0.36946 0.14056 0.0
N277 N 0.16005 0.35934 0.15204 0.0
O278 O 0.18221 0.4016 0.11719 0.0
H279 H 0.14842 0.34628 0.10925 0.0
H280 H 0.18163 0.38014 0.1457 0.0
O281 O 0.20515 0.37152 0.10869 0.0
C282 C 0.16679 0.41043 0.12087 0.0
O283 O 0.1506 0.40329 0.11465 0.0
N284 N 0.17596 0.35928 0.08426 0.0
C285 C 0.16782 0.33906 0.05098 0.0
C286 C 0.18583 0.33767 0.05956 0.0
C287 C 0.18968 0.34798 0.0762 0.0
C288 C 0.15825 0.36031 0.07634 0.0
C289 C 0.15374 0.35006 0.05993 0.0
H290 H 0.20415 0.34806 0.08134 0.0
H291 H 0.14788 0.37012 0.08222 0.0
H292 H 0.21557 0.3802 0.07266 0.0
H293 H 0.1853 0.42551 0.04746 0.0
H294 H 0.13838 0.33871 0.14449 0.0
H295 H 0.19716 0.32959 0.05285 0.0
H296 H 0.13982 0.35197 0.05349 0.0
C297 C 0.17295 0.59571 0.43518 0.0
C298 C 0.18305 0.59004 0.45097 0.0
N299 N 0.20151 0.59493 0.44853 0.0
N300 N 0.18487 0.60416 0.42273 0.0
C301 C 0.2022 0.60338 0.43117 0.0
H302 H 0.15767 0.59466 0.43332 0.0
Co303 Co 0.17637 0.6166 0.40087 0.0
C304 C 0.20813 0.64174 0.38915 0.0
O305 O 0.19618 0.65586 0.38624 0.0
N306 N 0.16711 0.62899 0.37841 0.0
C307 C 0.15255 0.64838 0.35773 0.0
C308 C 0.15725 0.64552 0.37653 0.0
C309 C 0.16836 0.62234 0.36028 0.0
N310 N 0.1595 0.63373 0.34752 0.0
O311 O 0.18169 0.59407 0.38658 0.0
H312 H 0.15381 0.65531 0.38789 0.0
H313 H 0.1753 0.60915 0.35638 0.0
O314 O 0.20199 0.62577 0.39543 0.0
C315 C 0.16807 0.58209 0.38718 0.0
O316 O 0.15227 0.5869 0.39604 0.0
N317 N 0.17011 0.63743 0.41635 0.0
C318 C 0.15699 0.6549 0.44959 0.0
C319 C 0.17641 0.65559 0.44471 0.0
C320 C 0.18273 0.64667 0.42801 0.0
C321 C 0.15109 0.63774 0.42028 0.0
C322 C 0.14417 0.64689 0.43647 0.0
H323 H 0.19791 0.64531 0.42582 0.0
H324 H 0.14137 0.62951 0.41155 0.0
H325 H 0.21492 0.60951 0.42499 0.0
H326 H 0.17697 0.58375 0.46368 0.0
H327 H 0.14476 0.66043 0.35202 0.0
H328 H 0.18688 0.66125 0.45456 0.0
H329 H 0.12902 0.64625 0.43946 0.0
C330 C 0.82824 0.90044 0.43247 0.0
C331 C 0.81899 0.90583 0.44891 0.0
N332 N 0.80047 0.90108 0.44716 0.0
N333 N 0.81565 0.89214 0.42055 0.0
C334 C 0.79875 0.89293 0.42981 0.0
H335 H 0.8434 0.9015 0.42978 0.0
Co336 Co 0.82324 0.87927 0.3987 0.0
C337 C 0.79035 0.8562 0.38623 0.0
O338 O 0.80182 0.84187 0.38251 0.0
N339 N 0.83171 0.86641 0.37618 0.0
C340 C 0.84575 0.84682 0.35532 0.0
C341 C 0.84158 0.84988 0.37423 0.0
C342 C 0.82995 0.87285 0.35803 0.0
N343 N 0.83858 0.86141 0.34519 0.0
O344 O 0.81931 0.90217 0.38454 0.0
H345 H 0.84562 0.84038 0.38562 0.0
H346 H 0.8225 0.88576 0.35411 0.0
O347 O 0.79702 0.87162 0.39332 0.0
C348 C 0.83459 0.91158 0.3818 0.0
O349 O 0.85081 0.90432 0.38779 0.0
N350 N 0.82827 0.85806 0.41406 0.0
C351 C 0.84014 0.84055 0.4477 0.0
C352 C 0.82084 0.84022 0.44234 0.0
C353 C 0.81514 0.84916 0.42541 0.0
C354 C 0.84718 0.85721 0.4184 0.0
C355 C 0.85348 0.84805 0.43483 0.0
H356 H 0.80006 0.85086 0.42284 0.0
H357 H 0.85731 0.86516 0.40988 0.0
H358 H 0.78575 0.88643 0.42463 0.0
H359 H 0.82546 0.91215 0.46143 0.0
H360 H 0.85397 0.83508 0.34956 0.0
H361 H 0.81002 0.8349 0.45201 0.0
H362 H 0.86854 0.84841 0.43825 0.0
C363 C 0.32698 0.5901 0.56826 0.0
C364 C 0.31763 0.58456 0.55192 0.0
N365 N 0.30022 0.59269 0.5519 0.0
N366 N 0.31555 0.60171 0.57844 0.0
C367 C 0.29926 0.6029 0.5682 0.0
H368 H 0.34149 0.58655 0.57214 0.0
Co369 Co 0.32377 0.61494 0.59981 0.0
C370 C 0.29199 0.64 0.6116 0.0
O371 O 0.30411 0.65372 0.61562 0.0
N372 N 0.3328 0.6281 0.62186 0.0
C373 C 0.34791 0.64738 0.64225 0.0
C374 C 0.34421 0.64364 0.62335 0.0
C375 C 0.3297 0.6229 0.64022 0.0
N376 N 0.3389 0.63417 0.6528 0.0
O377 O 0.31824 0.59296 0.61481 0.0
H378 H 0.34969 0.65195 0.61163 0.0
H379 H 0.32086 0.61101 0.64448 0.0
O380 O 0.298 0.62427 0.60463 0.0
C381 C 0.33246 0.58248 0.61895 0.0
O382 O 0.3496 0.58798 0.61369 0.0
N383 N 0.33017 0.63524 0.58372 0.0
C384 C 0.34296 0.65212 0.55006 0.0
C385 C 0.32383 0.65396 0.55574 0.0
C386 C 0.31767 0.64532 0.57266 0.0
C387 C 0.349 0.63444 0.57903 0.0
C388 C 0.35579 0.64322 0.56258 0.0
H389 H 0.30256 0.64502 0.57552 0.0
H390 H 0.35856 0.62568 0.5874 0.0
H391 H 0.28738 0.61199 0.57197 0.0
H392 H 0.32336 0.5756 0.54072 0.0
H393 H 0.35704 0.65855 0.64778 0.0
H394 H 0.31335 0.66039 0.54639 0.0
H395 H 0.37073 0.64171 0.55897 0.0
C396 C 0.93184 0.82586 0.5923 0.0
C397 C 0.94807 0.81646 0.58656 0.0
N398 N 0.94753 0.7986 0.59367 0.0
N399 N 0.92115 0.81404 0.60304 0.0
C400 C 0.93098 0.79745 0.60346 0.0
H401 H 0.9284 0.84065 0.58956 0.0
Co402 Co 0.89971 0.82203 0.61633 0.0
C403 C 0.88881 0.78995 0.64118 0.0
O404 O 0.8862 0.80185 0.65541 0.0
N405 N 0.87752 0.83073 0.62959 0.0
C406 C 0.85686 0.84515 0.64914 0.0
C407 C 0.87579 0.84113 0.6458 0.0
C408 C 0.85926 0.82846 0.62365 0.0
N409 N 0.84654 0.83732 0.63501 0.0
O410 O 0.88488 0.81713 0.59408 0.0
H411 H 0.88737 0.8457 0.65484 0.0
H412 H 0.85513 0.82051 0.6111 0.0
O413 O 0.89475 0.79617 0.62511 0.0
C414 C 0.88183 0.83207 0.58424 0.0
O415 O 0.88799 0.84854 0.5908 0.0
N416 N 0.91573 0.82804 0.63683 0.0
C417 C 0.94959 0.84106 0.65316 0.0
C418 C 0.94453 0.82171 0.65428 0.0
C419 C 0.9275 0.81543 0.64593 0.0
C420 C 0.91982 0.84704 0.63683 0.0
C421 C 0.93637 0.85391 0.64537 0.0
H422 H 0.92512 0.80027 0.64491 0.0
H423 H 0.91093 0.85673 0.62875 0.0
H424 H 0.92674 0.78516 0.61178 0.0
H425 H 0.9596 0.82245 0.57823 0.0
H426 H 0.8512 0.85373 0.66066 0.0
H427 H 0.95442 0.81122 0.65983 0.0
H428 H 0.93949 0.86902 0.64444 0.0
C429 C 0.06536 0.67181 0.59672 0.0
C430 C 0.04939 0.68159 0.5909 0.0
N431 N 0.05103 0.69993 0.59655 0.0
N432 N 0.07708 0.68383 0.60602 0.0
C433 C 0.0681 0.70089 0.60554 0.0
H434 H 0.0679 0.65667 0.59508 0.0
Co435 Co 0.09884 0.67587 0.61886 0.0
C436 C 0.11034 0.70832 0.64303 0.0
O437 O 0.11296 0.69672 0.6575 0.0
N438 N 0.12133 0.66719 0.63168 0.0
C439 C 0.14232 0.6536 0.65149 0.0
C440 C 0.12339 0.65782 0.64849 0.0
C441 C 0.13943 0.66858 0.62501 0.0
N442 N 0.15232 0.66023 0.63657 0.0
O443 O 0.11308 0.68033 0.59616 0.0
H444 H 0.11206 0.65428 0.65827 0.0
H445 H 0.14333 0.67567 0.6119 0.0
O446 O 0.10421 0.70181 0.62715 0.0
C447 C 0.11518 0.66528 0.58624 0.0
O448 O 0.10861 0.64908 0.59305 0.0
N449 N 0.08334 0.67028 0.63984 0.0
C450 C 0.04982 0.65746 0.65696 0.0
C451 C 0.05463 0.67691 0.65731 0.0
C452 C 0.07151 0.68308 0.64859 0.0
C453 C 0.07953 0.65124 0.64065 0.0
C454 C 0.06318 0.64449 0.64963 0.0
H455 H 0.07368 0.69822 0.64692 0.0
H456 H 0.08844 0.64135 0.63283 0.0
H457 H 0.07368 0.71358 0.61227 0.0
H458 H 0.03713 0.67535 0.58391 0.0
H459 H 0.14819 0.64581 0.66347 0.0
H460 H 0.04462 0.68748 0.66249 0.0
H461 H 0.06024 0.62932 0.6493 0.0
C462 C 0.9356 0.17227 0.90495 0.0
C463 C 0.95183 0.18193 0.91023 0.0
N464 N 0.95016 0.2001 0.90425 0.0
N465 N 0.92388 0.18425 0.89554 0.0
C466 C 0.93306 0.20121 0.89546 0.0
H467 H 0.93287 0.15722 0.907 0.0
Co468 Co 0.9023 0.17562 0.88304 0.0
C469 C 0.88666 0.20793 0.86088 0.0
O470 O 0.88174 0.1962 0.84712 0.0
N471 N 0.88017 0.16595 0.87073 0.0
C472 C 0.85975 0.14904 0.85316 0.0
C473 C 0.87862 0.15347 0.85608 0.0
C474 C 0.86188 0.169 0.8762 0.0
N475 N 0.84922 0.15871 0.86594 0.0
O476 O 0.88825 0.17902 0.906 0.0
H477 H 0.89027 0.14759 0.84797 0.0
H478 H 0.85791 0.17813 0.88797 0.0
O479 O 0.89546 0.2016 0.87556 0.0
C480 C 0.88515 0.16428 0.9161 0.0
O481 O 0.89087 0.14758 0.90978 0.0
N482 N 0.91752 0.17154 0.86148 0.0
C483 C 0.95008 0.16283 0.84044 0.0
C484 C 0.94265 0.1814 0.84041 0.0
C485 C 0.92635 0.18552 0.85113 0.0
C486 C 0.92418 0.15328 0.861 0.0
C487 C 0.94019 0.14852 0.85025 0.0
H488 H 0.92227 0.20027 0.85254 0.0
H489 H 0.91783 0.14264 0.8702 0.0
H490 H 0.92798 0.21376 0.88807 0.0
H491 H 0.96413 0.17599 0.91743 0.0
H492 H 0.85428 0.13926 0.84253 0.0
H493 H 0.95016 0.19289 0.83331 0.0
H494 H 0.94577 0.13413 0.8511 0.0
C495 C 0.06768 0.32724 0.91087 0.0
C496 C 0.05138 0.31788 0.91654 0.0
N497 N 0.05261 0.29965 0.91062 0.0
N498 N 0.07895 0.31502 0.90122 0.0
C499 C 0.06951 0.29822 0.90153 0.0
H500 H 0.07058 0.34231 0.91252 0.0
Co501 Co 0.09979 0.32287 0.88696 0.0
C502 C 0.10893 0.2906 0.8616 0.0
O503 O 0.11038 0.30225 0.84699 0.0
N504 N 0.12132 0.33138 0.87259 0.0
C505 C 0.14083 0.3462 0.85224 0.0
C506 C 0.12214 0.34222 0.85661 0.0
C507 C 0.13991 0.32862 0.87721 0.0
N508 N 0.152 0.33774 0.86532 0.0
O509 O 0.11567 0.31759 0.90832 0.0
H510 H 0.11011 0.34712 0.84839 0.0
H511 H 0.14462 0.32058 0.88947 0.0
O512 O 0.1042 0.29703 0.87796 0.0
C513 C 0.12007 0.33185 0.91864 0.0
O514 O 0.11453 0.34895 0.9133 0.0
N515 N 0.08275 0.32905 0.8673 0.0
C516 C 0.04869 0.34223 0.85143 0.0
C517 C 0.05353 0.32281 0.8505 0.0
C518 C 0.07061 0.31646 0.85865 0.0
C519 C 0.07869 0.34805 0.86741 0.0
C520 C 0.06205 0.355 0.8591 0.0
H521 H 0.07284 0.30128 0.8598 0.0
H522 H 0.08781 0.35773 0.87525 0.0
H523 H 0.07405 0.2856 0.89388 0.0
H524 H 0.0392 0.32415 0.92366 0.0
H525 H 0.14577 0.3548 0.8404 0.0
H526 H 0.04348 0.31236 0.84516 0.0
H527 H 0.05907 0.37014 0.85995 0.0
C528 C 0.59808 0.93583 0.82717 0.0
C529 C 0.59264 0.95202 0.81754 0.0
N530 N 0.59914 0.95071 0.79953 0.0
N531 N 0.60813 0.92451 0.81532 0.0
C532 C 0.6084 0.93387 0.79848 0.0
H533 H 0.59575 0.93289 0.84213 0.0
Co534 Co 0.6212 0.90324 0.82375 0.0
C535 C 0.64424 0.88937 0.79126 0.0
O536 O 0.65836 0.88532 0.8029 0.0
N537 N 0.63418 0.88136 0.83309 0.0
C538 C 0.65183 0.86111 0.85011 0.0
C539 C 0.64864 0.87997 0.8458 0.0
C540 C 0.62916 0.86301 0.82971 0.0
N541 N 0.63942 0.85043 0.84009 0.0
O542 O 0.59857 0.88853 0.82021 0.0
H543 H 0.65631 0.89175 0.85205 0.0
H544 H 0.61756 0.85892 0.8204 0.0
O545 O 0.629 0.897 0.79777 0.0
C546 C 0.5892 0.88538 0.83543 0.0
O547 O 0.59622 0.89148 0.85171 0.0
N548 N 0.64225 0.91908 0.82829 0.0
C549 C 0.66336 0.95123 0.83878 0.0
C550 C 0.66385 0.94439 0.81996 0.0
C551 C 0.65298 0.9284 0.81491 0.0
C552 C 0.64201 0.9253 0.84668 0.0
C553 C 0.65264 0.9411 0.8523 0.0
H554 H 0.65203 0.92474 0.80002 0.0
H555 H 0.63248 0.9186 0.85681 0.0
H556 H 0.61629 0.92915 0.78608 0.0
H557 H 0.58501 0.96409 0.82343 0.0
H558 H 0.66227 0.85574 0.86014 0.0
H559 H 0.67169 0.95194 0.809 0.0
H560 H 0.65123 0.94614 0.86684 0.0
C561 C 0.40403 0.56926 0.82851 0.0
C562 C 0.40907 0.55291 0.81891 0.0
N563 N 0.40044 0.55302 0.80169 0.0
N564 N 0.39231 0.57969 0.81746 0.0
C565 C 0.3905 0.56956 0.80118 0.0
H566 H 0.4079 0.5729 0.843 0.0
Co567 Co 0.37932 0.6011 0.826 0.0
C568 C 0.35563 0.61476 0.79378 0.0
O569 O 0.34199 0.61981 0.80559 0.0
N570 N 0.36647 0.62305 0.83538 0.0
C571 C 0.34876 0.64336 0.85228 0.0
C572 C 0.35202 0.62448 0.84809 0.0
C573 C 0.37143 0.64141 0.83189 0.0
N574 N 0.36112 0.65401 0.84217 0.0
O575 O 0.40174 0.61585 0.82158 0.0
H576 H 0.34434 0.61271 0.85434 0.0
H577 H 0.38297 0.6455 0.82251 0.0
O578 O 0.37075 0.60679 0.80015 0.0
C579 C 0.41157 0.619 0.8365 0.0
O580 O 0.405 0.61298 0.853 0.0
N581 N 0.35855 0.58523 0.83139 0.0
C582 C 0.34218 0.55062 0.84204 0.0
C583 C 0.33975 0.55769 0.82346 0.0
C584 C 0.34814 0.5751 0.81835 0.0
C585 C 0.35964 0.57926 0.84984 0.0
C586 C 0.35118 0.56227 0.85558 0.0
H587 H 0.34811 0.57903 0.80349 0.0
H588 H 0.36866 0.5869 0.85977 0.0
H589 H 0.38144 0.57392 0.78953 0.0
H590 H 0.41767 0.54147 0.82466 0.0
H591 H 0.33829 0.64876 0.86224 0.0
H592 H 0.33316 0.54903 0.81249 0.0
H593 H 0.35316 0.5575 0.87014 0.0
C594 C 0.59626 0.06758 0.67197 0.0
C595 C 0.59085 0.05142 0.68167 0.0
N596 N 0.59715 0.05294 0.69974 0.0
N597 N 0.60611 0.07907 0.68383 0.0
C598 C 0.60625 0.06986 0.70076 0.0
H599 H 0.59422 0.0703 0.65692 0.0
Co600 Co 0.61966 0.09995 0.6752 0.0
C601 C 0.64213 0.11435 0.70779 0.0
O602 O 0.65651 0.11792 0.69631 0.0
N603 N 0.63311 0.12137 0.66562 0.0
C604 C 0.65131 0.14094 0.64841 0.0
C605 C 0.64756 0.12221 0.65287 0.0
C606 C 0.6286 0.13989 0.66883 0.0
N607 N 0.63925 0.15205 0.65837 0.0
O608 O 0.59717 0.11503 0.67789 0.0
H609 H 0.65483 0.11017 0.64668 0.0
H610 H 0.61711 0.14438 0.67808 0.0
O611 O 0.6269 0.10679 0.70119 0.0
C612 C 0.58782 0.11819 0.66267 0.0
O613 O 0.59479 0.11208 0.64638 0.0
N614 N 0.64067 0.08369 0.67171 0.0
C615 C 0.66077 0.05023 0.66381 0.0
C616 C 0.66084 0.05804 0.68222 0.0
C617 C 0.65054 0.07469 0.68595 0.0
C618 C 0.6411 0.07664 0.6536 0.0
C619 C 0.65133 0.06015 0.64925 0.0
H620 H 0.64907 0.07896 0.70062 0.0
H621 H 0.63223 0.0831 0.64274 0.0
H622 H 0.6141 0.07467 0.71316 0.0
H623 H 0.58356 0.03915 0.67576 0.0
H624 H 0.66187 0.14592 0.63831 0.0
H625 H 0.6677 0.05062 0.69392 0.0
H626 H 0.65041 0.05434 0.63496 0.0
C627 C 0.4042 0.43469 0.67565 0.0
C628 C 0.40883 0.45082 0.68575 0.0
N629 N 0.4014 0.4492 0.70338 0.0
N630 N 0.3939 0.42293 0.68683 0.0
C631 C 0.39253 0.43209 0.70375 0.0
H632 H 0.40726 0.43216 0.66076 0.0
Co633 Co 0.38179 0.40144 0.67728 0.0
C634 C 0.35927 0.38489 0.70887 0.0
O635 O 0.34547 0.3807 0.69691 0.0
N636 N 0.36987 0.37951 0.66678 0.0
C637 C 0.35154 0.35915 0.65055 0.0
C638 C 0.3544 0.37799 0.6553 0.0
C639 C 0.37606 0.36131 0.66871 0.0
N640 N 0.3653 0.34874 0.6589 0.0
O641 O 0.40494 0.38753 0.6804 0.0
H642 H 0.34557 0.38964 0.65051 0.0
H643 H 0.38821 0.35717 0.67727 0.0
O644 O 0.37414 0.39363 0.7029 0.0
C645 C 0.41599 0.38767 0.66603 0.0
O646 O 0.41026 0.39614 0.65032 0.0
N647 N 0.36007 0.41655 0.67339 0.0
C648 C 0.33896 0.4493 0.66536 0.0
C649 C 0.33856 0.44117 0.68364 0.0
C650 C 0.34936 0.42484 0.68744 0.0
C651 C 0.35979 0.42374 0.65534 0.0
C652 C 0.34909 0.4399 0.65092 0.0
H653 H 0.3505 0.4203 0.70206 0.0
H654 H 0.36915 0.41771 0.64464 0.0
H655 H 0.38412 0.42699 0.71564 0.0
H656 H 0.41653 0.46307 0.68035 0.0
H657 H 0.34051 0.35361 0.64126 0.0
H658 H 0.3311 0.44815 0.69523 0.0
H659 H 0.3502 0.44595 0.63674 0.0
C660 C 0.82183 0.58729 0.92906 0.0
C661 C 0.81183 0.58182 0.94501 0.0
N662 N 0.79617 0.59291 0.94643 0.0
N663 N 0.81254 0.60171 0.92043 0.0
C664 C 0.79689 0.60477 0.93124 0.0
H665 H 0.83532 0.58149 0.92432 0.0
Co666 Co 0.8223 0.61479 0.89971 0.0
C667 C 0.79107 0.63867 0.88402 0.0
O668 O 0.80337 0.65186 0.87891 0.0
N669 N 0.83298 0.62761 0.87844 0.0
C670 C 0.85081 0.64543 0.85898 0.0
C671 C 0.846 0.64186 0.8777 0.0
C672 C 0.83011 0.62293 0.85992 0.0
N673 N 0.84091 0.63332 0.8479 0.0
O674 O 0.81803 0.59261 0.88447 0.0
H675 H 0.85209 0.64907 0.88986 0.0
H676 H 0.82039 0.61192 0.8552 0.0
O677 O 0.79679 0.62378 0.89288 0.0
C678 C 0.83235 0.58227 0.88028 0.0
O679 O 0.84942 0.58777 0.88575 0.0
N680 N 0.82724 0.63548 0.91596 0.0
C681 C 0.83648 0.65625 0.94862 0.0
C682 C 0.81848 0.65816 0.9401 0.0
C683 C 0.81408 0.64757 0.92378 0.0
C684 C 0.84505 0.63412 0.92362 0.0
C685 C 0.85009 0.64459 0.93976 0.0
H686 H 0.79959 0.64798 0.91872 0.0
H687 H 0.85503 0.62387 0.91781 0.0
H688 H 0.7867 0.61604 0.92855 0.0
H689 H 0.81591 0.57069 0.95489 0.0
H690 H 0.86137 0.65552 0.85399 0.0
H691 H 0.80753 0.66686 0.94666 0.0
H692 H 0.864 0.64235 0.94611 0.0
C693 C 0.824 0.40529 0.57133 0.0
C694 C 0.81418 0.41121 0.55542 0.0
N695 N 0.79789 0.40106 0.55421 0.0
N696 N 0.81395 0.39152 0.58017 0.0
C697 C 0.79804 0.38933 0.56951 0.0
H698 H 0.83787 0.41028 0.57587 0.0
Co699 Co 0.82312 0.37778 0.60077 0.0
C700 C 0.79056 0.35574 0.61635 0.0
O701 O 0.80197 0.3416 0.62094 0.0
N702 N 0.83316 0.36423 0.62191 0.0
C703 C 0.85052 0.34571 0.64114 0.0
C704 C 0.8455 0.34938 0.62249 0.0
C705 C 0.83082 0.3691 0.64045 0.0
N706 N 0.84142 0.35833 0.65234 0.0
O707 O 0.82052 0.40016 0.61608 0.0
H708 H 0.8511 0.34192 0.61025 0.0
H709 H 0.82176 0.38062 0.64525 0.0
O710 O 0.79722 0.37044 0.60784 0.0
C711 C 0.8358 0.40924 0.61972 0.0
O712 O 0.85213 0.40218 0.61381 0.0
N713 N 0.82659 0.35692 0.5844 0.0
C714 C 0.83409 0.33739 0.55059 0.0
C715 C 0.81614 0.33606 0.55932 0.0
C716 C 0.81263 0.34599 0.57626 0.0
C717 C 0.8444 0.35745 0.57664 0.0
C718 C 0.84855 0.34757 0.5599 0.0
H719 H 0.7982 0.34627 0.58148 0.0
H720 H 0.85504 0.36684 0.58273 0.0
H721 H 0.78724 0.3787 0.5724 0.0
H722 H 0.81886 0.42197 0.54539 0.0
H723 H 0.86079 0.33524 0.64598 0.0
H724 H 0.80456 0.32849 0.55243 0.0
H725 H 0.86249 0.34932 0.55345 0.0
C726 C 0.1775 0.08399 0.57045 0.0
C727 C 0.18772 0.07812 0.55476 0.0
N728 N 0.20313 0.08949 0.55299 0.0
N729 N 0.18643 0.09894 0.57854 0.0
C730 C 0.20204 0.10191 0.56768 0.0
H731 H 0.16411 0.07809 0.57536 0.0
Co732 Co 0.17667 0.1129 0.5987 0.0
C733 C 0.20732 0.13916 0.61147 0.0
O734 O 0.19479 0.15238 0.61583 0.0
N735 N 0.16612 0.12673 0.61949 0.0
C736 C 0.1485 0.14569 0.638 0.0
C737 C 0.15351 0.14137 0.61954 0.0
C738 C 0.16864 0.12269 0.63822 0.0
N739 N 0.15789 0.13374 0.64968 0.0
O740 O 0.18237 0.09198 0.61508 0.0
H741 H 0.14786 0.14842 0.60708 0.0
H742 H 0.17799 0.11164 0.64353 0.0
O743 O 0.20185 0.12343 0.60405 0.0
C744 C 0.16831 0.08142 0.61958 0.0
O745 O 0.15113 0.08623 0.61378 0.0
N746 N 0.17015 0.13206 0.58136 0.0
C747 C 0.15812 0.14783 0.54691 0.0
C748 C 0.17647 0.15168 0.55401 0.0
C749 C 0.18228 0.14357 0.57133 0.0
C750 C 0.15192 0.12928 0.57527 0.0
C751 C 0.14548 0.13738 0.55835 0.0
H752 H 0.19701 0.14508 0.57549 0.0
H753 H 0.14273 0.1196 0.58302 0.0
H754 H 0.21193 0.11353 0.56993 0.0
H755 H 0.18392 0.06655 0.54527 0.0
H756 H 0.13805 0.15617 0.64243 0.0
H757 H 0.18678 0.15945 0.54553 0.0
H758 H 0.13108 0.13433 0.55365 0.0
C759 C 0.6764 0.41182 0.43091 0.0
C760 C 0.68662 0.4168 0.44689 0.0
N761 N 0.70221 0.40556 0.44786 0.0
N762 N 0.68549 0.39757 0.42181 0.0
C763 C 0.70124 0.39413 0.43236 0.0
H764 H 0.66285 0.41776 0.42652 0.0
Co765 Co 0.67531 0.3846 0.4012 0.0
C766 C 0.70678 0.3617 0.38444 0.0
O767 O 0.69483 0.34805 0.37973 0.0
N768 N 0.66425 0.37189 0.38015 0.0
C769 C 0.64486 0.35534 0.36118 0.0
C770 C 0.64994 0.35897 0.37978 0.0
C771 C 0.66763 0.37575 0.36153 0.0
N772 N 0.65594 0.36602 0.3497 0.0
O773 O 0.67852 0.40705 0.38613 0.0
H774 H 0.64309 0.35283 0.3921 0.0
H775 H 0.678 0.38612 0.35675 0.0
O776 O 0.70075 0.37638 0.39343 0.0
C777 C 0.6638 0.41698 0.38241 0.0
O778 O 0.64701 0.41081 0.38805 0.0
N779 N 0.67138 0.36353 0.41728 0.0
C780 C 0.66365 0.34201 0.44983 0.0
C781 C 0.68126 0.34036 0.44052 0.0
C782 C 0.68491 0.35132 0.42426 0.0
C783 C 0.65396 0.36472 0.42579 0.0
C784 C 0.64966 0.35386 0.44187 0.0
H785 H 0.69917 0.35108 0.41862 0.0
H786 H 0.64374 0.37512 0.42071 0.0
H787 H 0.71128 0.38283 0.4293 0.0
H788 H 0.68268 0.42763 0.45716 0.0
H789 H 0.63364 0.34581 0.35653 0.0
H790 H 0.69252 0.33157 0.44642 0.0
H791 H 0.63604 0.35594 0.44888 0.0
C792 C 0.56498 0.67351 0.90114 0.0
C793 C 0.54872 0.68296 0.90672 0.0
N794 N 0.55062 0.70146 0.90192 0.0
N795 N 0.57694 0.68594 0.89268 0.0
C796 C 0.56791 0.70296 0.89358 0.0
H797 H 0.56748 0.65831 0.90215 0.0
Co798 Co 0.59846 0.6781 0.87942 0.0
C799 C 0.60981 0.7107 0.85544 0.0
O800 O 0.61201 0.69911 0.84089 0.0
N801 N 0.6207 0.66946 0.86614 0.0
C802 C 0.64116 0.65553 0.84603 0.0
C803 C 0.62235 0.65998 0.84935 0.0
C804 C 0.63894 0.67073 0.87245 0.0
N805 N 0.65153 0.66215 0.86072 0.0
O806 O 0.61309 0.68212 0.90202 0.0
H807 H 0.6108 0.65645 0.83983 0.0
H808 H 0.64313 0.67783 0.88547 0.0
O809 O 0.60388 0.70419 0.87141 0.0
C810 C 0.61558 0.66682 0.91146 0.0
O811 O 0.60913 0.65072 0.90433 0.0
N812 N 0.58258 0.67291 0.85859 0.0
C813 C 0.54858 0.66063 0.84203 0.0
C814 C 0.55361 0.68002 0.84172 0.0
C815 C 0.57072 0.68592 0.85018 0.0
C816 C 0.57852 0.65393 0.85771 0.0
C817 C 0.56191 0.64744 0.84901 0.0
H818 H 0.57308 0.70103 0.85196 0.0
H819 H 0.58744 0.64387 0.8653 0.0
H820 H 0.57316 0.7159 0.88698 0.0
H821 H 0.53619 0.67664 0.91315 0.0
H822 H 0.64668 0.64754 0.83403 0.0
H823 H 0.54362 0.69073 0.83682 0.0
H824 H 0.55876 0.63231 0.84932 0.0
C825 C 0.43439 0.83002 0.90387 0.0
C826 C 0.45057 0.82038 0.9094 0.0
N827 N 0.44897 0.80216 0.90353 0.0
N828 N 0.42278 0.81798 0.89439 0.0
C829 C 0.43194 0.80101 0.8946 0.0
H830 H 0.43173 0.84512 0.90564 0.0
Co831 Co 0.40159 0.82629 0.88087 0.0
C832 C 0.38973 0.79405 0.85659 0.0
O833 O 0.38701 0.80579 0.84224 0.0
N834 N 0.37974 0.83538 0.86735 0.0
C835 C 0.35986 0.85113 0.84808 0.0
C836 C 0.3786 0.84667 0.8517 0.0
C837 C 0.36128 0.83291 0.87257 0.0
N838 N 0.34897 0.84258 0.86133 0.0
O839 O 0.38648 0.8221 0.90308 0.0
H840 H 0.39045 0.85158 0.84323 0.0
H841 H 0.35686 0.8247 0.88484 0.0
O842 O 0.39605 0.80042 0.87245 0.0
C843 C 0.38373 0.83724 0.9127 0.0
O844 O 0.39014 0.85349 0.90587 0.0
N845 N 0.41792 0.83158 0.86042 0.0
C846 C 0.45245 0.8433 0.84454 0.0
C847 C 0.44664 0.82417 0.84326 0.0
C848 C 0.42928 0.81853 0.85141 0.0
C849 C 0.42281 0.85038 0.86059 0.0
C850 C 0.43969 0.85663 0.85227 0.0
H851 H 0.4263 0.80347 0.85239 0.0
H852 H 0.41429 0.86038 0.8687 0.0
H853 H 0.42701 0.78843 0.88713 0.0
H854 H 0.46286 0.82642 0.91653 0.0
H855 H 0.3547 0.86012 0.83663 0.0
H856 H 0.4562 0.81335 0.83775 0.0
H857 H 0.44345 0.87158 0.85337 0.0
C858 C 0.57129 0.31935 0.58433 0.0
C859 C 0.55579 0.30868 0.57874 0.0
N860 N 0.55355 0.29424 0.59126 0.0
N861 N 0.57879 0.31167 0.60025 0.0
C862 C 0.56776 0.29635 0.60411 0.0
H863 H 0.5765 0.33217 0.57751 0.0
Co864 Co 0.59856 0.32237 0.61406 0.0
C865 C 0.61278 0.29192 0.63998 0.0
O866 O 0.61686 0.30437 0.65338 0.0
N867 N 0.61883 0.33381 0.62772 0.0
C868 C 0.6368 0.35385 0.64461 0.0
C869 C 0.61845 0.34865 0.64003 0.0
C870 C 0.63765 0.33018 0.62529 0.0
N871 N 0.64889 0.34229 0.63518 0.0
O872 O 0.61517 0.31745 0.59308 0.0
H873 H 0.60579 0.35582 0.64504 0.0
H874 H 0.64304 0.31938 0.61568 0.0
O875 O 0.60503 0.29745 0.62443 0.0
C876 C 0.62 0.33173 0.58299 0.0
O877 O 0.61444 0.34886 0.58823 0.0
N878 N 0.5811 0.32814 0.63339 0.0
C879 C 0.54885 0.34011 0.65343 0.0
C880 C 0.55712 0.32224 0.65715 0.0
C881 C 0.57323 0.31642 0.64684 0.0
C882 C 0.57333 0.34556 0.62979 0.0
C883 C 0.55742 0.35193 0.63975 0.0
H884 H 0.57835 0.30209 0.64891 0.0
H885 H 0.57919 0.35426 0.61846 0.0
H886 H 0.56962 0.28742 0.61655 0.0
H887 H 0.54679 0.31147 0.56651 0.0
H888 H 0.64087 0.36554 0.65384 0.0
H889 H 0.55079 0.31256 0.66739 0.0
H890 H 0.55124 0.36556 0.6359 0.0
C891 C 0.4305 0.17195 0.59319 0.0
C892 C 0.44673 0.18119 0.58718 0.0
N893 N 0.44745 0.19837 0.59579 0.0
N894 N 0.42103 0.18322 0.60551 0.0
C895 C 0.43162 0.19928 0.60673 0.0
H896 H 0.42615 0.15766 0.5893 0.0
Co897 Co 0.39965 0.17544 0.61897 0.0
C898 C 0.3876 0.20813 0.6427 0.0
O899 O 0.38309 0.1965 0.65668 0.0
N900 N 0.37757 0.16687 0.6323 0.0
C901 C 0.35689 0.15161 0.65114 0.0
C902 C 0.37586 0.15548 0.64782 0.0
C903 C 0.3593 0.16989 0.62676 0.0
N904 N 0.34656 0.16052 0.63768 0.0
O905 O 0.38474 0.18001 0.59667 0.0
H906 H 0.3875 0.14992 0.6562 0.0
H907 H 0.35523 0.17859 0.6147 0.0
O908 O 0.39483 0.20154 0.62732 0.0
C909 C 0.38106 0.165 0.58716 0.0
O910 O 0.38666 0.14845 0.59397 0.0
N911 N 0.41566 0.16977 0.63954 0.0
C912 C 0.4501 0.15777 0.65539 0.0
C913 C 0.4441 0.1768 0.65731 0.0
C914 C 0.42674 0.18256 0.64924 0.0
C915 C 0.42055 0.15098 0.63899 0.0
C916 C 0.43743 0.14459 0.64725 0.0
H917 H 0.42358 0.19761 0.64889 0.0
H918 H 0.4121 0.14117 0.63058 0.0
H919 H 0.42834 0.21099 0.61621 0.0
H920 H 0.4573 0.17555 0.57744 0.0
H921 H 0.35122 0.14226 0.66204 0.0
H922 H 0.4535 0.18751 0.66327 0.0
H923 H 0.44126 0.1297 0.64576 0.0
C924 C 0.90395 0.56446 0.6713 0.0
C925 C 0.90917 0.54812 0.68084 0.0
N926 N 0.90291 0.54953 0.69893 0.0
N927 N 0.89427 0.57596 0.68328 0.0
C928 C 0.89403 0.56656 0.70009 0.0
H929 H 0.90606 0.56731 0.65628 0.0
Co930 Co 0.88101 0.5973 0.67502 0.0
C931 C 0.85766 0.61075 0.70749 0.0
O932 O 0.84371 0.61529 0.69584 0.0
N933 N 0.86782 0.61919 0.66585 0.0
C934 C 0.84917 0.63927 0.64967 0.0
C935 C 0.8526 0.62046 0.65402 0.0
C936 C 0.87304 0.63758 0.66869 0.0
N937 N 0.86216 0.65003 0.65881 0.0
O938 O 0.90339 0.61215 0.67909 0.0
H939 H 0.84439 0.60866 0.64857 0.0
H940 H 0.88508 0.64183 0.67733 0.0
O941 O 0.87283 0.60298 0.70101 0.0
C942 C 0.91315 0.61497 0.66407 0.0
O943 O 0.90651 0.6086 0.64773 0.0
N944 N 0.86029 0.5813 0.66999 0.0
C945 C 0.84443 0.54648 0.65935 0.0
C946 C 0.84265 0.5531 0.67817 0.0
C947 C 0.85078 0.57064 0.68327 0.0
C948 C 0.86074 0.57573 0.65139 0.0
C949 C 0.85247 0.55864 0.64567 0.0
H950 H 0.85137 0.57426 0.6982 0.0
H951 H 0.86914 0.58378 0.64125 0.0
H952 H 0.88626 0.57131 0.71253 0.0
H953 H 0.91638 0.53586 0.67481 0.0
H954 H 0.83809 0.64455 0.64031 0.0
H955 H 0.83681 0.54403 0.68923 0.0
H956 H 0.85393 0.55422 0.63094 0.0
C957 C 0.09473 0.93295 0.67446 0.0
C958 C 0.08922 0.94877 0.68464 0.0
N959 N 0.09634 0.94722 0.70241 0.0
N960 N 0.10537 0.92158 0.68571 0.0
C961 C 0.10599 0.93056 0.70276 0.0
H962 H 0.09195 0.93029 0.65951 0.0
Co963 Co 0.11842 0.90071 0.67629 0.0
C964 C 0.1405 0.88436 0.70825 0.0
O965 O 0.15463 0.88055 0.69654 0.0
N966 N 0.13127 0.87936 0.66589 0.0
C967 C 0.14855 0.85974 0.64781 0.0
C968 C 0.14521 0.87848 0.65258 0.0
C969 C 0.1266 0.86088 0.66904 0.0
N970 N 0.1367 0.84868 0.65809 0.0
O971 O 0.09561 0.88608 0.67844 0.0
H972 H 0.15237 0.89051 0.64624 0.0
H973 H 0.11539 0.85648 0.67867 0.0
O974 O 0.12555 0.89278 0.70202 0.0
C975 C 0.08636 0.88357 0.66304 0.0
O976 O 0.09357 0.89015 0.64703 0.0
N977 N 0.13983 0.9165 0.67334 0.0
C978 C 0.16131 0.94928 0.66643 0.0
C979 C 0.16126 0.94079 0.68453 0.0
C980 C 0.15025 0.92449 0.68778 0.0
C981 C 0.14031 0.92422 0.65552 0.0
C982 C 0.15122 0.94038 0.65165 0.0
H983 H 0.14881 0.91969 0.70229 0.0
H984 H 0.13104 0.91856 0.64455 0.0
H985 H 0.11433 0.92567 0.7148 0.0
H986 H 0.08107 0.96075 0.67927 0.0
H987 H 0.1587 0.85474 0.63732 0.0
H988 H 0.1686 0.94744 0.6964 0.0
H989 H 0.15036 0.94676 0.6376 0.0
C990 C 0.90137 0.4341 0.82779 0.0
C991 C 0.90636 0.45028 0.81789 0.0
N992 N 0.90046 0.4482 0.79974 0.0
N993 N 0.89222 0.42201 0.81596 0.0
C994 C 0.89203 0.43092 0.79887 0.0
H995 H 0.9033 0.43171 0.84291 0.0
Co996 Co 0.87964 0.40059 0.82486 0.0
C997 C 0.85912 0.38336 0.79223 0.0
O998 O 0.84502 0.37853 0.80357 0.0
N999 N 0.86718 0.3787 0.83482 0.0
C1000 C 0.84849 0.35849 0.85081 0.0
C1001 C 0.85151 0.37729 0.84603 0.0
C1002 C 0.87329 0.36046 0.83303 0.0
N1003 N 0.86234 0.34798 0.84274 0.0
O1004 O 0.90297 0.38677 0.82312 0.0
H1005 H 0.84273 0.38901 0.85072 0.0
H1006 H 0.88561 0.35627 0.82474 0.0
O1007 O 0.87336 0.39269 0.79881 0.0
C1008 C 0.9121 0.38499 0.8387 0.0
O1009 O 0.90446 0.39173 0.85443 0.0
N1010 N 0.85774 0.41566 0.82746 0.0
C1011 C 0.83698 0.44893 0.83403 0.0
C1012 C 0.83732 0.44059 0.81584 0.0
C1013 C 0.84788 0.42393 0.8128 0.0
C1014 C 0.85666 0.42304 0.84541 0.0
C1015 C 0.8461 0.43946 0.84909 0.0
H1016 H 0.84964 0.41912 0.79831 0.0
H1017 H 0.8654 0.41701 0.85662 0.0
H1018 H 0.88465 0.42558 0.78641 0.0
H1019 H 0.91319 0.46286 0.82369 0.0
H1020 H 0.83736 0.35306 0.86004 0.0
H1021 H 0.83066 0.44763 0.80381 0.0
H1022 H 0.84663 0.44564 0.86324 0.0
C1023 C 0.09981 0.06281 0.83126 0.0
C1024 C 0.09468 0.04592 0.82269 0.0
N1025 N 0.0964 0.04809 0.80369 0.0
N1026 N 0.10492 0.07546 0.81772 0.0
C1027 C 0.10244 0.06618 0.80102 0.0
H1028 H 0.10094 0.06534 0.84644 0.0
Co1029 Co 0.11699 0.09833 0.82336 0.0
C1030 C 0.11981 0.11735 0.78677 0.0
O1031 O 0.11068 0.13172 0.79459 0.0
N1032 N 0.12925 0.12136 0.82953 0.0
C1033 C 0.15053 0.14491 0.83116 0.0
C1034 C 0.14752 0.12626 0.82576 0.0
C1035 C 0.12152 0.13724 0.83728 0.0
N1036 N 0.13407 0.15178 0.83823 0.0
O1037 O 0.09326 0.11114 0.81979 0.0
H1038 H 0.1578 0.11711 0.8188 0.0
H1039 H 0.10682 0.13846 0.84168 0.0
O1040 O 0.12356 0.10249 0.79666 0.0
C1041 C 0.08168 0.11162 0.83373 0.0
O1042 O 0.08684 0.10405 0.85009 0.0
N1043 N 0.1394 0.08469 0.82786 0.0
C1044 C 0.15953 0.05294 0.84043 0.0
C1045 C 0.15712 0.05633 0.82082 0.0
C1046 C 0.14707 0.07246 0.81478 0.0
C1047 C 0.1437 0.08297 0.8467 0.0
C1048 C 0.15405 0.06732 0.85329 0.0
H1049 H 0.14343 0.07368 0.79985 0.0
H1050 H 0.13729 0.09263 0.8569 0.0
H1051 H 0.10645 0.07195 0.78727 0.0
H1052 H 0.09078 0.03282 0.82988 0.0
H1053 H 0.16347 0.15308 0.82909 0.0
H1054 H 0.16105 0.04569 0.81034 0.0
H1055 H 0.15608 0.06559 0.86851 0.0
C1056 C 0.67346 0.90822 0.56495 0.0
C1057 C 0.68319 0.91313 0.54863 0.0
N1058 N 0.70093 0.90588 0.54986 0.0
N1059 N 0.68495 0.89776 0.57627 0.0
C1060 C 0.7017 0.89673 0.56678 0.0
H1061 H 0.6586 0.91114 0.56793 0.0
Co1062 Co 0.67605 0.88479 0.59756 0.0
C1063 C 0.70708 0.8591 0.61009 0.0
O1064 O 0.69463 0.84573 0.61424 0.0
N1065 N 0.66628 0.87189 0.61946 0.0
C1066 C 0.64934 0.85376 0.6394 0.0
C1067 C 0.6538 0.85719 0.62064 0.0
C1068 C 0.66941 0.87676 0.63793 0.0
N1069 N 0.65906 0.8662 0.65028 0.0
O1070 O 0.68175 0.90664 0.61265 0.0
H1071 H 0.64802 0.84927 0.60879 0.0
H1072 H 0.67863 0.88831 0.6423 0.0
O1073 O 0.70148 0.87486 0.60284 0.0
C1074 C 0.6675 0.9173 0.61621 0.0
O1075 O 0.65053 0.91199 0.61026 0.0
N1076 N 0.66946 0.86465 0.58137 0.0
C1077 C 0.65686 0.84884 0.54713 0.0
C1078 C 0.6758 0.84628 0.55315 0.0
C1079 C 0.68189 0.8544 0.57038 0.0
C1080 C 0.65077 0.86612 0.57629 0.0
C1081 C 0.64405 0.85787 0.55956 0.0
H1082 H 0.69694 0.85425 0.57356 0.0
H1083 H 0.64133 0.87511 0.58456 0.0
H1084 H 0.71375 0.88828 0.5714 0.0
H1085 H 0.67751 0.92086 0.53652 0.0
H1086 H 0.63955 0.843 0.64459 0.0
H1087 H 0.68625 0.83972 0.54386 0.0
H1088 H 0.62925 0.85995 0.55565 0.0
C1089 C 0.67168 0.09888 0.93689 0.0
C1090 C 0.68119 0.09389 0.95327 0.0
N1091 N 0.69981 0.09785 0.95081 0.0
N1092 N 0.68421 0.10609 0.9242 0.0
C1093 C 0.70134 0.10508 0.93303 0.0
H1094 H 0.6564 0.09845 0.9348 0.0
Co1095 Co 0.67635 0.11845 0.90207 0.0
C1096 C 0.70866 0.14356 0.89142 0.0
O1097 O 0.697 0.15792 0.88847 0.0
N1098 N 0.66764 0.13081 0.87939 0.0
C1099 C 0.65398 0.15067 0.85853 0.0
C1100 C 0.6589 0.14794 0.87729 0.0
C1101 C 0.66797 0.12363 0.86142 0.0
N1102 N 0.65966 0.13532 0.84857 0.0
O1103 O 0.68226 0.09593 0.88792 0.0
H1104 H 0.65639 0.1582 0.88847 0.0
H1105 H 0.6738 0.10986 0.8577 0.0
O1106 O 0.70214 0.1276 0.8973 0.0
C1107 C 0.66956 0.08299 0.88886 0.0
O1108 O 0.6537 0.08657 0.89817 0.0
N1109 N 0.66969 0.13935 0.91733 0.0
C1110 C 0.65589 0.1571 0.95013 0.0
C1111 C 0.67546 0.15739 0.94586 0.0
C1112 C 0.68211 0.14835 0.92937 0.0
C1113 C 0.65055 0.14014 0.92058 0.0
C1114 C 0.64331 0.1494 0.93659 0.0
H1115 H 0.69731 0.14668 0.92769 0.0
H1116 H 0.64094 0.13216 0.9115 0.0
H1117 H 0.71441 0.11089 0.92722 0.0
H1118 H 0.67483 0.08853 0.96628 0.0
H1119 H 0.64696 0.1631 0.85265 0.0
H1120 H 0.68576 0.16278 0.95603 0.0
H1121 H 0.62807 0.1491 0.93909 0.0
C1122 C 0.32387 0.41107 0.92867 0.0
C1123 C 0.31413 0.41683 0.9447 0.0
N1124 N 0.29831 0.40601 0.94639 0.0
N1125 N 0.31427 0.39671 0.92028 0.0
C1126 C 0.29867 0.39405 0.93127 0.0
H1127 H 0.3375 0.41647 0.92384 0.0
Co1128 Co 0.32374 0.38239 0.90017 0.0
C1129 C 0.29245 0.35675 0.88808 0.0
O1130 O 0.30464 0.34286 0.88498 0.0
N1131 N 0.33395 0.36813 0.8795 0.0
C1132 C 0.35225 0.34981 0.86104 0.0
C1133 C 0.34741 0.3543 0.8795 0.0
C1134 C 0.33063 0.37141 0.86074 0.0
N1135 N 0.34179 0.36075 0.84924 0.0
O1136 O 0.31905 0.40355 0.88365 0.0
H1137 H 0.35386 0.34801 0.89196 0.0
H1138 H 0.32084 0.38215 0.85556 0.0
O1139 O 0.29833 0.37273 0.89461 0.0
C1140 C 0.3339 0.41308 0.87938 0.0
O1141 O 0.35058 0.40687 0.8853 0.0
N1142 N 0.32949 0.36307 0.91765 0.0
C1143 C 0.34078 0.34786 0.95259 0.0
C1144 C 0.32244 0.34424 0.94539 0.0
C1145 C 0.31699 0.35209 0.92784 0.0
C1146 C 0.3477 0.3656 0.92391 0.0
C1147 C 0.35378 0.35775 0.94106 0.0
H1148 H 0.30224 0.35093 0.92369 0.0
H1149 H 0.35716 0.375 0.91614 0.0
H1150 H 0.28835 0.38283 0.9289 0.0
H1151 H 0.31859 0.42785 0.95455 0.0
H1152 H 0.36298 0.3396 0.85669 0.0
H1153 H 0.31187 0.33693 0.95398 0.0
H1154 H 0.36816 0.36066 0.94591 0.0
C1155 C 0.82734 0.09463 0.0681 0.0
C1156 C 0.81769 0.08923 0.05189 0.0
N1157 N 0.79983 0.09617 0.05299 0.0
N1158 N 0.81565 0.10508 0.07922 0.0
C1159 C 0.79887 0.1056 0.06974 0.0
H1160 H 0.84225 0.09205 0.07115 0.0
Co1161 Co 0.82435 0.1185 0.10019 0.0
C1162 C 0.79226 0.14215 0.11388 0.0
O1163 O 0.80409 0.15622 0.11752 0.0
N1164 N 0.83395 0.13181 0.12173 0.0
C1165 C 0.85124 0.14972 0.1415 0.0
C1166 C 0.84703 0.14596 0.12272 0.0
C1167 C 0.83028 0.12752 0.14022 0.0
N1168 N 0.8408 0.13797 0.15252 0.0
O1169 O 0.82047 0.0963 0.11534 0.0
H1170 H 0.85359 0.15302 0.11075 0.0
H1171 H 0.82063 0.11632 0.14461 0.0
O1172 O 0.79851 0.1267 0.10646 0.0
C1173 C 0.83507 0.08647 0.11972 0.0
O1174 O 0.85205 0.09265 0.1147 0.0
N1175 N 0.82892 0.13921 0.08386 0.0
C1176 C 0.83803 0.15799 0.05001 0.0
C1177 C 0.8195 0.15891 0.05746 0.0
C1178 C 0.81516 0.14928 0.07436 0.0
C1179 C 0.84718 0.13893 0.07721 0.0
C1180 C 0.85215 0.14852 0.06052 0.0
H1181 H 0.80038 0.1484 0.07841 0.0
H1182 H 0.85763 0.1299 0.08411 0.0
H1183 H 0.78665 0.11387 0.07427 0.0
H1184 H 0.82351 0.08138 0.03993 0.0
H1185 H 0.86149 0.16009 0.14659 0.0
H1186 H 0.80815 0.16582 0.04956 0.0
H1187 H 0.8665 0.14702 0.055 0.0
C1188 C 0.43518 0.33039 0.09537 0.0
C1189 C 0.45151 0.32147 0.08908 0.0
N1190 N 0.45022 0.30284 0.09355 0.0
N1191 N 0.42387 0.31747 0.10401 0.0
C1192 C 0.43329 0.30073 0.10242 0.0
H1193 H 0.43235 0.34556 0.09495 0.0
Co1194 Co 0.40311 0.32414 0.11897 0.0
C1195 C 0.39443 0.2901 0.14206 0.0
O1196 O 0.39264 0.30077 0.15736 0.0
N1197 N 0.38166 0.33148 0.13407 0.0
C1198 C 0.36213 0.34545 0.15498 0.0
C1199 C 0.38083 0.34178 0.1504 0.0
C1200 C 0.36309 0.32865 0.12948 0.0
N1201 N 0.35098 0.33729 0.14169 0.0
O1202 O 0.38708 0.32039 0.09738 0.0
H1203 H 0.39288 0.34666 0.15862 0.0
H1204 H 0.35839 0.32104 0.11692 0.0
O1205 O 0.39901 0.2977 0.12616 0.0
C1206 C 0.38267 0.33566 0.08863 0.0
O1207 O 0.38829 0.35208 0.09576 0.0
N1208 N 0.42027 0.32904 0.13887 0.0
C1209 C 0.45494 0.34129 0.15408 0.0
C1210 C 0.45005 0.32187 0.15426 0.0
C1211 C 0.43265 0.31598 0.14644 0.0
C1212 C 0.42434 0.34802 0.13972 0.0
C1213 C 0.44132 0.35449 0.14772 0.0
H1214 H 0.43037 0.30089 0.14451 0.0
H1215 H 0.41503 0.35812 0.13268 0.0
H1216 H 0.42875 0.28758 0.10912 0.0
H1217 H 0.46377 0.32827 0.08261 0.0
H1218 H 0.35715 0.35374 0.16702 0.0
H1219 H 0.46029 0.31116 0.15862 0.0
H1220 H 0.44438 0.36963 0.14747 0.0
C1221 C 0.56619 0.17452 0.09711 0.0
C1222 C 0.5502 0.18445 0.0916 0.0
N1223 N 0.5517 0.20237 0.09832 0.0
N1224 N 0.57761 0.1861 0.10737 0.0
C1225 C 0.56846 0.20307 0.10778 0.0
H1226 H 0.56899 0.15957 0.09451 0.0
Co1227 Co 0.59902 0.1772 0.11997 0.0
C1228 C 0.61451 0.20927 0.14266 0.0
O1229 O 0.61949 0.19748 0.15634 0.0
N1230 N 0.62098 0.16729 0.13245 0.0
C1231 C 0.64095 0.15024 0.15042 0.0
C1232 C 0.62221 0.15503 0.14733 0.0
C1233 C 0.63937 0.16986 0.12703 0.0
N1234 N 0.65174 0.15949 0.13754 0.0
O1235 O 0.6133 0.18081 0.09717 0.0
H1236 H 0.61042 0.14957 0.15554 0.0
H1237 H 0.64362 0.17871 0.11514 0.0
O1238 O 0.60574 0.20302 0.12794 0.0
C1239 C 0.61543 0.16569 0.08737 0.0
O1240 O 0.60895 0.14952 0.0943 0.0
N1241 N 0.5836 0.17263 0.14118 0.0
C1242 C 0.55252 0.16183 0.16353 0.0
C1243 C 0.55938 0.18066 0.16404 0.0
C1244 C 0.57493 0.18585 0.15259 0.0
C1245 C 0.57722 0.1543 0.14073 0.0
C1246 C 0.562 0.14851 0.15202 0.0
H1247 H 0.57883 0.20071 0.15188 0.0
H1248 H 0.58346 0.14434 0.13074 0.0
H1249 H 0.57334 0.21534 0.11576 0.0
H1250 H 0.5382 0.17885 0.08365 0.0
H1251 H 0.64619 0.14055 0.16125 0.0
H1252 H 0.5522 0.19146 0.17243 0.0
H1253 H 0.55683 0.13401 0.15061 0.0
C1254 C 0.43313 0.67525 0.40456 0.0
C1255 C 0.44905 0.68551 0.40967 0.0
N1256 N 0.44734 0.70319 0.40239 0.0
N1257 N 0.42157 0.68637 0.39397 0.0
C1258 C 0.43053 0.70342 0.39301 0.0
H1259 H 0.43056 0.66032 0.40751 0.0
Co1260 Co 0.40058 0.67685 0.38114 0.0
C1261 C 0.38544 0.70825 0.35755 0.0
O1262 O 0.3821 0.69621 0.34357 0.0
N1263 N 0.37904 0.66646 0.3684 0.0
C1264 C 0.35934 0.64866 0.3509 0.0
C1265 C 0.37807 0.65339 0.35423 0.0
C1266 C 0.36057 0.66957 0.37315 0.0
N1267 N 0.34832 0.65875 0.36295 0.0
O1268 O 0.38586 0.68012 0.40376 0.0
H1269 H 0.39004 0.64725 0.3468 0.0
H1270 H 0.35618 0.67909 0.38446 0.0
O1271 O 0.39327 0.70238 0.37293 0.0
C1272 C 0.38335 0.66479 0.41313 0.0
O1273 O 0.38993 0.64873 0.40603 0.0
N1274 N 0.41647 0.67256 0.36013 0.0
C1275 C 0.44874 0.66261 0.33902 0.0
C1276 C 0.44129 0.68119 0.33813 0.0
C1277 C 0.42524 0.68598 0.34901 0.0
C1278 C 0.42331 0.6544 0.36081 0.0
C1279 C 0.43917 0.64904 0.35018 0.0
H1280 H 0.42107 0.70076 0.34963 0.0
H1281 H 0.41704 0.6443 0.37065 0.0
H1282 H 0.42553 0.71535 0.38458 0.0
H1283 H 0.46122 0.68024 0.4176 0.0
H1284 H 0.35429 0.63835 0.34057 0.0
H1285 H 0.44842 0.69219 0.32995 0.0
H1286 H 0.44471 0.63472 0.35193 0.0
C1287 C 0.56266 0.83251 0.39952 0.0
C1288 C 0.54619 0.82334 0.40496 0.0
N1289 N 0.54803 0.80472 0.40067 0.0
N1290 N 0.57468 0.81974 0.39161 0.0
C1291 C 0.56545 0.80286 0.39273 0.0
H1292 H 0.56531 0.84769 0.40021 0.0
Co1293 Co 0.59655 0.82693 0.37859 0.0
C1294 C 0.60882 0.79362 0.356 0.0
O1295 O 0.61283 0.80488 0.34159 0.0
N1296 N 0.61908 0.83498 0.36562 0.0
C1297 C 0.64029 0.8487 0.34617 0.0
C1298 C 0.62124 0.8451 0.34928 0.0
C1299 C 0.63719 0.8325 0.37191 0.0
N1300 N 0.65023 0.84092 0.36058 0.0
O1301 O 0.61074 0.82311 0.40146 0.0
H1302 H 0.60989 0.84974 0.33999 0.0
H1303 H 0.64095 0.82469 0.38466 0.0
O1304 O 0.60167 0.80054 0.37127 0.0
C1305 C 0.61385 0.83834 0.41082 0.0
O1306 O 0.60801 0.85465 0.40365 0.0
N1307 N 0.58114 0.83179 0.35734 0.0
C1308 C 0.54673 0.84324 0.34109 0.0
C1309 C 0.55229 0.824 0.34059 0.0
C1310 C 0.56962 0.81851 0.34886 0.0
C1311 C 0.57669 0.85068 0.3564 0.0
C1312 C 0.55982 0.85676 0.3479 0.0
H1313 H 0.57234 0.80347 0.35058 0.0
H1314 H 0.58537 0.86093 0.36401 0.0
H1315 H 0.57068 0.78973 0.38655 0.0
H1316 H 0.53357 0.82993 0.41095 0.0
H1317 H 0.64628 0.85694 0.33457 0.0
H1318 H 0.54252 0.81305 0.33576 0.0
H1319 H 0.55626 0.87179 0.34833 0.0
C1320 C 0.0845 0.42954 0.31952 0.0
C1321 C 0.07893 0.44519 0.30909 0.0
N1322 N 0.09099 0.44719 0.29425 0.0
N1323 N 0.09996 0.42167 0.31129 0.0
C1324 C 0.10355 0.43264 0.29586 0.0
H1325 H 0.07803 0.4245 0.33258 0.0
Co1326 Co 0.11351 0.40166 0.32187 0.0
C1327 C 0.13879 0.38659 0.29142 0.0
O1328 O 0.15214 0.38264 0.30398 0.0
N1329 N 0.12686 0.38112 0.3333 0.0
C1330 C 0.14369 0.36294 0.35323 0.0
C1331 C 0.13957 0.38134 0.34782 0.0
C1332 C 0.12375 0.36232 0.33006 0.0
N1333 N 0.13358 0.35097 0.34214 0.0
O1334 O 0.09199 0.38551 0.3175 0.0
H1335 H 0.14521 0.39392 0.35463 0.0
H1336 H 0.11373 0.35705 0.31958 0.0
O1337 O 0.12335 0.39468 0.29678 0.0
C1338 C 0.08206 0.38111 0.33204 0.0
O1339 O 0.08779 0.38673 0.34899 0.0
N1340 N 0.1334 0.41872 0.3271 0.0
C1341 C 0.15475 0.45036 0.33847 0.0
C1342 C 0.1575 0.44218 0.3204 0.0
C1343 C 0.14656 0.42638 0.31489 0.0
C1344 C 0.13062 0.42652 0.34465 0.0
C1345 C 0.1413 0.4421 0.35074 0.0
H1346 H 0.14791 0.42132 0.30046 0.0
H1347 H 0.11947 0.42092 0.35374 0.0
H1348 H 0.11563 0.43053 0.2865 0.0
H1349 H 0.06705 0.45449 0.31235 0.0
H1350 H 0.15309 0.35877 0.36474 0.0
H1351 H 0.16749 0.44836 0.31037 0.0
H1352 H 0.13819 0.44828 0.36456 0.0
C1353 C 0.91093 0.07238 0.32474 0.0
C1354 C 0.91692 0.05653 0.31483 0.0
N1355 N 0.90633 0.05504 0.29884 0.0
N1356 N 0.89665 0.08083 0.31507 0.0
C1357 C 0.89426 0.07005 0.29928 0.0
H1358 H 0.91618 0.07711 0.33846 0.0
Co1359 Co 0.88236 0.10099 0.32441 0.0
C1360 C 0.8565 0.1127 0.29302 0.0
O1361 O 0.84262 0.1162 0.30511 0.0
N1362 N 0.86812 0.12177 0.33447 0.0
C1363 C 0.84947 0.1403 0.35237 0.0
C1364 C 0.85405 0.12182 0.34769 0.0
C1365 C 0.87145 0.14052 0.33114 0.0
N1366 N 0.86057 0.15207 0.34206 0.0
O1367 O 0.90329 0.11753 0.31904 0.0
H1368 H 0.84759 0.10938 0.35401 0.0
H1369 H 0.88228 0.1457 0.32147 0.0
O1370 O 0.87239 0.10613 0.29905 0.0
C1371 C 0.91361 0.12236 0.33316 0.0
O1372 O 0.9085 0.11697 0.35038 0.0
N1373 N 0.8632 0.08348 0.33064 0.0
C1374 C 0.84778 0.04878 0.34252 0.0
C1375 C 0.84431 0.05566 0.32402 0.0
C1376 C 0.85224 0.07309 0.31829 0.0
C1377 C 0.86567 0.07752 0.34895 0.0
C1378 C 0.8577 0.06052 0.35533 0.0
H1379 H 0.85114 0.077 0.30347 0.0
H1380 H 0.87504 0.08546 0.35832 0.0
H1381 H 0.88319 0.07254 0.28881 0.0
H1382 H 0.92799 0.04671 0.31923 0.0
H1383 H 0.83903 0.14468 0.36286 0.0
H1384 H 0.83701 0.04694 0.31356 0.0
H1385 H 0.86048 0.05598 0.36984 0.0
C1386 C 0.08962 0.57108 0.17287 0.0
C1387 C 0.08335 0.5552 0.18256 0.0
N1388 N 0.09306 0.554 0.19911 0.0
N1389 N 0.10321 0.57983 0.18324 0.0
C1390 C 0.10489 0.56921 0.19923 0.0
H1391 H 0.08512 0.57556 0.15881 0.0
Co1392 Co 0.11785 0.59997 0.17439 0.0
C1393 C 0.14227 0.61191 0.20668 0.0
O1394 O 0.1566 0.61499 0.19499 0.0
N1395 N 0.13244 0.6207 0.1648 0.0
C1396 C 0.15131 0.63935 0.14728 0.0
C1397 C 0.14675 0.62083 0.15186 0.0
C1398 C 0.12894 0.63941 0.1681 0.0
N1399 N 0.13995 0.65104 0.1574 0.0
O1400 O 0.09648 0.61643 0.17819 0.0
H1401 H 0.15333 0.60844 0.14558 0.0
H1402 H 0.11783 0.64449 0.17751 0.0
O1403 O 0.12647 0.60553 0.2002 0.0
C1404 C 0.08743 0.62043 0.16297 0.0
O1405 O 0.09422 0.61427 0.14662 0.0
N1406 N 0.13744 0.58251 0.16948 0.0
C1407 C 0.15329 0.54759 0.15895 0.0
C1408 C 0.15586 0.55473 0.17748 0.0
C1409 C 0.14769 0.57225 0.18254 0.0
C1410 C 0.13592 0.57629 0.15115 0.0
C1411 C 0.14411 0.55915 0.14546 0.0
H1412 H 0.14798 0.5763 0.19736 0.0
H1413 H 0.12703 0.58407 0.1412 0.0
H1414 H 0.11536 0.57192 0.21024 0.0
H1415 H 0.07276 0.54512 0.17759 0.0
H1416 H 0.16189 0.64382 0.13696 0.0
H1417 H 0.16255 0.54612 0.18843 0.0
H1418 H 0.142 0.55434 0.13093 0.0
C1419 C 0.91449 0.93169 0.17736 0.0
C1420 C 0.91981 0.94744 0.18776 0.0
N1421 N 0.90826 0.94878 0.20307 0.0
N1422 N 0.89969 0.92309 0.18607 0.0
C1423 C 0.89626 0.93373 0.20177 0.0
H1424 H 0.92061 0.92711 0.16397 0.0
Co1425 Co 0.88648 0.90285 0.17546 0.0
C1426 C 0.8623 0.8863 0.20605 0.0
O1427 O 0.84917 0.88153 0.19355 0.0
N1428 N 0.87356 0.88213 0.16391 0.0
C1429 C 0.8568 0.86371 0.14417 0.0
C1430 C 0.86061 0.88217 0.14961 0.0
C1431 C 0.87721 0.8634 0.16692 0.0
N1432 N 0.86738 0.85189 0.155 0.0
O1433 O 0.90844 0.88721 0.17927 0.0
H1434 H 0.85455 0.89469 0.14304 0.0
H1435 H 0.8875 0.8583 0.17722 0.0
O1436 O 0.87725 0.89527 0.20064 0.0
C1437 C 0.9186 0.88339 0.16474 0.0
O1438 O 0.91296 0.88938 0.14789 0.0
N1439 N 0.86598 0.91946 0.17096 0.0
C1440 C 0.84536 0.95241 0.16261 0.0
C1441 C 0.84305 0.94317 0.18019 0.0
C1442 C 0.85356 0.92668 0.18415 0.0
C1443 C 0.86784 0.92793 0.15357 0.0
C1444 C 0.85743 0.94422 0.14896 0.0
H1445 H 0.85278 0.921 0.19838 0.0
H1446 H 0.87839 0.92261 0.14364 0.0
H1447 H 0.88463 0.93106 0.21154 0.0
H1448 H 0.93114 0.95728 0.18414 0.0
H1449 H 0.84722 0.8594 0.13286 0.0
H1450 H 0.83406 0.94926 0.19119 0.0
H1451 H 0.85999 0.95117 0.1354 0.0
C1452 C 0.32487 0.09384 0.42962 0.0
C1453 C 0.31559 0.08702 0.44548 0.0
N1454 N 0.29834 0.09545 0.44649 0.0
N1455 N 0.31354 0.10648 0.42063 0.0
C1456 C 0.29741 0.10708 0.43114 0.0
H1457 H 0.3392 0.09024 0.42518 0.0
Co1458 Co 0.32137 0.12066 0.39978 0.0
C1459 C 0.2888 0.14486 0.38875 0.0
O1460 O 0.30042 0.15933 0.38618 0.0
N1461 N 0.32996 0.13476 0.37819 0.0
C1462 C 0.34483 0.15484 0.35844 0.0
C1463 C 0.3405 0.15094 0.37717 0.0
C1464 C 0.32789 0.12944 0.35973 0.0
N1465 N 0.33706 0.14113 0.34755 0.0
O1466 O 0.31705 0.09877 0.38425 0.0
H1467 H 0.34511 0.15946 0.38912 0.0
H1468 H 0.32004 0.117 0.35512 0.0
O1469 O 0.2953 0.12895 0.39485 0.0
C1470 C 0.33207 0.08923 0.38072 0.0
O1471 O 0.34858 0.096 0.3865 0.0
N1472 N 0.3268 0.14076 0.41644 0.0
C1473 C 0.3391 0.15699 0.45058 0.0
C1474 C 0.31991 0.15836 0.44501 0.0
C1475 C 0.31398 0.15004 0.42784 0.0
C1476 C 0.34567 0.14052 0.42105 0.0
C1477 C 0.3522 0.14898 0.43776 0.0
H1478 H 0.29888 0.14928 0.42499 0.0
H1479 H 0.3555 0.13237 0.41238 0.0
H1480 H 0.28561 0.11655 0.42813 0.0
H1481 H 0.32127 0.07684 0.45561 0.0
H1482 H 0.3538 0.16634 0.35334 0.0
H1483 H 0.30926 0.16412 0.45461 0.0
H1484 H 0.36719 0.14784 0.44133 0.0
C1485 C 0.32959 0.90626 0.0635 0.0
C1486 C 0.32009 0.91079 0.04699 0.0
N1487 N 0.30161 0.90616 0.04929 0.0
N1488 N 0.31719 0.89868 0.07611 0.0
C1489 C 0.30015 0.89896 0.06709 0.0
H1490 H 0.34482 0.90727 0.06574 0.0
Co1491 Co 0.32533 0.88679 0.09837 0.0
C1492 C 0.2936 0.86209 0.11133 0.0
O1493 O 0.30579 0.8487 0.11611 0.0
N1494 N 0.33448 0.87501 0.12111 0.0
C1495 C 0.34958 0.85648 0.14215 0.0
C1496 C 0.34526 0.8591 0.12324 0.0
C1497 C 0.33236 0.88158 0.13919 0.0
N1498 N 0.34153 0.87069 0.15218 0.0
O1499 O 0.31952 0.90953 0.11219 0.0
H1500 H 0.34964 0.84958 0.112 0.0
H1501 H 0.32459 0.89438 0.14285 0.0
O1502 O 0.29955 0.87751 0.10361 0.0
C1503 C 0.33219 0.92248 0.11114 0.0
O1504 O 0.34809 0.91884 0.10192 0.0
N1505 N 0.33186 0.86564 0.0834 0.0
C1506 C 0.3445 0.84809 0.05002 0.0
C1507 C 0.32529 0.84677 0.05557 0.0
C1508 C 0.31921 0.85573 0.07234 0.0
C1509 C 0.35077 0.86579 0.07893 0.0
C1510 C 0.35747 0.85667 0.06263 0.0
H1511 H 0.30408 0.85659 0.07497 0.0
H1512 H 0.36048 0.87448 0.08722 0.0
H1513 H 0.28726 0.8927 0.07277 0.0
H1514 H 0.32638 0.91631 0.03401 0.0
H1515 H 0.35789 0.84488 0.14806 0.0
H1516 H 0.31471 0.84061 0.04614 0.0
H1517 H 0.37247 0.85779 0.05911 0.0
C1518 C 0.67536 0.58854 0.07078 0.0
C1519 C 0.68519 0.58263 0.05486 0.0
N1520 N 0.70117 0.59322 0.05335 0.0
N1521 N 0.68508 0.60277 0.07926 0.0
C1522 C 0.70081 0.60523 0.06842 0.0
H1523 H 0.66167 0.58326 0.07555 0.0
Co1524 Co 0.67585 0.61687 0.0996 0.0
C1525 C 0.70707 0.64313 0.11086 0.0
O1526 O 0.69483 0.65685 0.11443 0.0
N1527 N 0.66587 0.63091 0.12059 0.0
C1528 C 0.64817 0.64959 0.13929 0.0
C1529 C 0.65297 0.64528 0.12079 0.0
C1530 C 0.66891 0.62715 0.13932 0.0
N1531 N 0.65809 0.63804 0.15095 0.0
O1532 O 0.68166 0.59588 0.11594 0.0
H1533 H 0.64698 0.65218 0.10842 0.0
H1534 H 0.67831 0.61604 0.14441 0.0
O1535 O 0.70119 0.6271 0.10448 0.0
C1536 C 0.66772 0.58518 0.12049 0.0
O1537 O 0.65045 0.59002 0.11502 0.0
N1538 N 0.6692 0.63606 0.08225 0.0
C1539 C 0.65661 0.65191 0.04797 0.0
C1540 C 0.67528 0.65522 0.05449 0.0
C1541 C 0.68136 0.64707 0.07169 0.0
C1542 C 0.65077 0.63367 0.07663 0.0
C1543 C 0.64404 0.64186 0.05986 0.0
H1544 H 0.69627 0.64809 0.07528 0.0
H1545 H 0.64154 0.62427 0.08468 0.0
H1546 H 0.71129 0.61627 0.07092 0.0
H1547 H 0.68074 0.5716 0.04502 0.0
H1548 H 0.63789 0.66021 0.14377 0.0
H1549 H 0.68558 0.66259 0.04564 0.0
H1550 H 0.62943 0.63919 0.05561 0.0
C1551 C 0.1745 0.90835 0.93189 0.0
C1552 C 0.18438 0.91384 0.94791 0.0
N1553 N 0.20212 0.90661 0.94673 0.0
N1554 N 0.18591 0.89758 0.9208 0.0
C1555 C 0.20277 0.89691 0.93011 0.0
H1556 H 0.15957 0.91103 0.92903 0.0
Co1557 Co 0.17661 0.88382 0.90034 0.0
C1558 C 0.20853 0.86054 0.8855 0.0
O1559 O 0.1967 0.84637 0.88223 0.0
N1560 N 0.16628 0.87018 0.8794 0.0
C1561 C 0.14844 0.85163 0.86072 0.0
C1562 C 0.15349 0.85571 0.87921 0.0
C1563 C 0.16887 0.87438 0.86072 0.0
N1564 N 0.15804 0.86349 0.8491 0.0
O1565 O 0.17948 0.90598 0.88481 0.0
H1566 H 0.14775 0.84858 0.89155 0.0
H1567 H 0.17802 0.88575 0.85572 0.0
O1568 O 0.20237 0.87592 0.89313 0.0
C1569 C 0.16451 0.91597 0.88259 0.0
O1570 O 0.14836 0.90961 0.88968 0.0
N1571 N 0.17299 0.86321 0.91703 0.0
C1572 C 0.16513 0.8437 0.95079 0.0
C1573 C 0.18341 0.84306 0.94272 0.0
C1574 C 0.18712 0.85304 0.92586 0.0
C1575 C 0.15502 0.86342 0.92442 0.0
C1576 C 0.15067 0.85346 0.94106 0.0
H1577 H 0.20173 0.85398 0.92122 0.0
H1578 H 0.14429 0.8725 0.91803 0.0
H1579 H 0.21479 0.88833 0.92562 0.0
H1580 H 0.17878 0.92187 0.95985 0.0
H1581 H 0.13826 0.84092 0.85623 0.0
H1582 H 0.19503 0.83596 0.95003 0.0
H1583 H 0.1365 0.85479 0.94709 0.0
H1584 H 0.12375 0.32539 0.31481 0.0
H1585 H 0.139 0.33013 0.37433 0.0
H1586 H 0.11874 0.29121 0.31885 0.0
H1587 H 0.13469 0.29589 0.37819 0.0
H1588 H 0.1033 0.23842 0.38267 0.0
H1589 H 0.10884 0.27258 0.37876 0.0
H1590 H 0.13641 0.26194 0.32469 0.0
H1591 H 0.13062 0.22791 0.32841 0.0
C1592 C 0.12611 0.31916 0.32873 0.0
C1593 C 0.13176 0.33056 0.34423 0.0
C1594 C 0.12341 0.29952 0.33102 0.0
C1595 C 0.12628 0.29082 0.34887 0.0
C1596 C 0.13214 0.30218 0.36431 0.0
C1597 C 0.13487 0.32179 0.36201 0.0
C1598 C 0.11059 0.24337 0.36998 0.0
C1599 C 0.11648 0.23043 0.35584 0.0
C1600 C 0.11384 0.26294 0.36777 0.0
C1601 C 0.12305 0.27 0.35139 0.0
C1602 C 0.12904 0.25701 0.33734 0.0
C1603 C 0.1258 0.23748 0.33954 0.0
H1604 H 0.87243 0.17738 0.31529 0.0
H1605 H 0.85311 0.17314 0.37363 0.0
H1606 H 0.87769 0.21155 0.31957 0.0
H1607 H 0.85779 0.2073 0.37771 0.0
H1608 H 0.89067 0.26354 0.3845 0.0
H1609 H 0.88473 0.22958 0.3798 0.0
H1610 H 0.86007 0.24147 0.32459 0.0
H1611 H 0.8662 0.2754 0.32914 0.0
C1612 C 0.86922 0.18373 0.32898 0.0
C1613 C 0.86237 0.17248 0.34411 0.0
C1614 C 0.87208 0.20334 0.33139 0.0
C1615 C 0.86823 0.21212 0.34901 0.0
C1616 C 0.86111 0.20093 0.36403 0.0
C1617 C 0.85818 0.18136 0.36161 0.0
C1618 C 0.88396 0.25893 0.37136 0.0
C1619 C 0.87891 0.2722 0.3572 0.0
C1620 C 0.88046 0.23947 0.36871 0.0
C1621 C 0.87188 0.23283 0.35183 0.0
C1622 C 0.86688 0.2461 0.33766 0.0
C1623 C 0.87032 0.26556 0.34033 0.0
H1624 H 0.12732 0.67617 0.18393 0.0
H1625 H 0.14772 0.6722 0.12594 0.0
H1626 H 0.12161 0.71022 0.17955 0.0
H1627 H 0.14261 0.70631 0.12176 0.0
H1628 H 0.10919 0.76246 0.11479 0.0
H1629 H 0.11563 0.72851 0.1192 0.0
H1630 H 0.13894 0.74015 0.17505 0.0
H1631 H 0.13229 0.77397 0.17081 0.0
C1632 C 0.13067 0.68257 0.17029 0.0
C1633 C 0.13795 0.67142 0.1553 0.0
C1634 C 0.12756 0.70211 0.16782 0.0
C1635 C 0.1316 0.71096 0.15028 0.0
C1636 C 0.13914 0.69988 0.13538 0.0
C1637 C 0.14232 0.68036 0.13787 0.0
C1638 C 0.11571 0.75778 0.128 0.0
C1639 C 0.12019 0.77093 0.14245 0.0
C1640 C 0.11949 0.73834 0.13049 0.0
C1641 C 0.12779 0.73164 0.14749 0.0
C1642 C 0.13231 0.74482 0.16189 0.0
C1643 C 0.12858 0.76423 0.1594 0.0
H1644 H 0.87265 0.72885 0.16931 0.0
H1645 H 0.89657 0.73945 0.11348 0.0
H1646 H 0.86694 0.76288 0.17334 0.0
H1647 H 0.89123 0.77356 0.11771 0.0
H1648 H 0.86089 0.83072 0.1232 0.0
H1649 H 0.86545 0.79653 0.11942 0.0
H1650 H 0.884 0.7925 0.17805 0.0
H1651 H 0.87866 0.8266 0.18208 0.0
C1652 C 0.87679 0.73844 0.15793 0.0
C1653 C 0.88506 0.73141 0.14106 0.0
C1654 C 0.8736 0.75798 0.16029 0.0
C1655 C 0.87862 0.77097 0.14586 0.0
C1656 C 0.88694 0.76393 0.129 0.0
C1657 C 0.89011 0.74437 0.12663 0.0
C1658 C 0.86566 0.82254 0.13539 0.0
C1659 C 0.8694 0.83149 0.15296 0.0
C1660 C 0.86853 0.80294 0.13313 0.0
C1661 C 0.87521 0.79177 0.14839 0.0
C1662 C 0.87871 0.80065 0.16604 0.0
C1663 C 0.87583 0.82026 0.1683 0.0
H1664 H 0.35441 0.097 0.23233 0.0
H1665 H 0.38918 0.14764 0.23763 0.0
H1666 H 0.34155 0.1026 0.26423 0.0
H1667 H 0.37699 0.15282 0.26955 0.0
H1668 H 0.34103 0.16779 0.32004 0.0
H1669 H 0.34963 0.16236 0.28673 0.0
H1670 H 0.35044 0.10152 0.29699 0.0
H1671 H 0.34129 0.10705 0.33001 0.0
C1672 C 0.35938 0.10925 0.24033 0.0
C1673 C 0.37277 0.1219 0.23243 0.0
C1674 C 0.35207 0.11243 0.25864 0.0
C1675 C 0.35812 0.12825 0.26946 0.0
C1676 C 0.37163 0.14076 0.26152 0.0
C1677 C 0.37877 0.13768 0.24322 0.0
C1678 C 0.3429 0.15329 0.31505 0.0
C1679 C 0.34051 0.13787 0.32758 0.0
C1680 C 0.34791 0.15014 0.29602 0.0
C1681 C 0.35094 0.13149 0.28918 0.0
C1682 C 0.34799 0.11605 0.30164 0.0
C1683 C 0.34275 0.11921 0.3206 0.0
H1684 H 0.6188 0.39572 0.23569 0.0
H1685 H 0.67374 0.36899 0.22731 0.0
H1686 H 0.6216 0.39053 0.27001 0.0
H1687 H 0.67635 0.36356 0.2615 0.0
H1688 H 0.68387 0.3766 0.32511 0.0
H1689 H 0.68089 0.38162 0.29083 0.0
H1690 H 0.62169 0.3647 0.29348 0.0
H1691 H 0.62449 0.36035 0.32783 0.0
C1692 C 0.63142 0.38866 0.24114 0.0
C1693 C 0.64605 0.38281 0.22875 0.0
C1694 C 0.63298 0.3856 0.2608 0.0
C1695 C 0.64922 0.37665 0.2685 0.0
C1696 C 0.66378 0.37073 0.25607 0.0
C1697 C 0.66222 0.37376 0.23644 0.0
C1698 C 0.67019 0.37406 0.31841 0.0
C1699 C 0.65443 0.36809 0.32927 0.0
C1700 C 0.66852 0.37675 0.29872 0.0
C1701 C 0.65103 0.37357 0.28941 0.0
C1702 C 0.6353 0.36748 0.30024 0.0
C1703 C 0.63698 0.36474 0.31992 0.0
H1704 H 0.32196 0.87948 0.2737 0.0
H1705 H 0.38109 0.89554 0.26667 0.0
H1706 H 0.31896 0.87543 0.23929 0.0
H1707 H 0.37798 0.89169 0.23222 0.0
H1708 H 0.31606 0.88863 0.17517 0.0
H1709 H 0.31904 0.89422 0.20945 0.0
H1710 H 0.37351 0.86541 0.20939 0.0
H1711 H 0.37078 0.8603 0.17515 0.0
C1712 C 0.3343 0.88222 0.26482 0.0
C1713 C 0.35179 0.88777 0.27295 0.0
C1714 C 0.33254 0.88001 0.24509 0.0
C1715 C 0.34823 0.88322 0.23304 0.0
C1716 C 0.36568 0.88889 0.24115 0.0
C1717 C 0.36743 0.89118 0.26089 0.0
C1718 C 0.32873 0.88364 0.18245 0.0
C1719 C 0.34316 0.87397 0.17242 0.0
C1720 C 0.33036 0.88669 0.20211 0.0
C1721 C 0.34652 0.88025 0.21213 0.0
C1722 C 0.36098 0.87071 0.20207 0.0
C1723 C 0.3593 0.86757 0.18247 0.0
H1724 H 0.61462 0.60823 0.26237 0.0
H1725 H 0.6706 0.63134 0.27406 0.0
H1726 H 0.61938 0.61409 0.22837 0.0
H1727 H 0.67521 0.63738 0.24016 0.0
H1728 H 0.6844 0.62517 0.17627 0.0
H1729 H 0.67981 0.61966 0.21033 0.0
H1730 H 0.62215 0.64094 0.206 0.0
H1731 H 0.62652 0.64587 0.1719 0.0
C1732 C 0.62791 0.61462 0.25771 0.0
C1733 C 0.64223 0.61931 0.27095 0.0
C1734 C 0.63059 0.61806 0.23824 0.0
C1735 C 0.64768 0.62622 0.23157 0.0
C1736 C 0.66198 0.63088 0.24481 0.0
C1737 C 0.65928 0.6275 0.26426 0.0
C1738 C 0.67073 0.62862 0.18257 0.0
C1739 C 0.65584 0.63595 0.17131 0.0
C1740 C 0.66815 0.62562 0.20212 0.0
C1741 C 0.65059 0.62981 0.21087 0.0
C1742 C 0.63578 0.63735 0.19966 0.0
C1743 C 0.63838 0.64042 0.18014 0.0
H1744 H 0.24005 0.382 0.11261 0.0
H1745 H 0.2284 0.32402 0.13013 0.0
H1746 H 0.27389 0.37716 0.11943 0.0
H1747 H 0.26212 0.3193 0.13703 0.0
H1748 H 0.32657 0.31231 0.12514 0.0
H1749 H 0.29256 0.317 0.11922 0.0
H1750 H 0.29524 0.37179 0.14729 0.0
H1751 H 0.3293 0.36729 0.15281 0.0
C1752 C 0.24468 0.36826 0.11796 0.0
C1753 C 0.23152 0.3534 0.12081 0.0
C1754 C 0.26404 0.36553 0.12196 0.0
C1755 C 0.27066 0.34784 0.12877 0.0
C1756 C 0.25749 0.33301 0.13161 0.0
C1757 C 0.23814 0.33577 0.12773 0.0
C1758 C 0.31989 0.32535 0.13003 0.0
C1759 C 0.33065 0.33942 0.13943 0.0
C1760 C 0.30039 0.32798 0.12677 0.0
C1761 C 0.29124 0.34481 0.13274 0.0
C1762 C 0.30194 0.35877 0.14235 0.0
C1763 C 0.3214 0.35608 0.14572 0.0
H1764 H 0.23712 0.61616 0.39472 0.0
H1765 H 0.22582 0.67355 0.37518 0.0
H1766 H 0.27099 0.62067 0.38826 0.0
H1767 H 0.25962 0.6779 0.36837 0.0
H1768 H 0.3241 0.68519 0.37759 0.0
H1769 H 0.29023 0.68113 0.38439 0.0
H1770 H 0.29243 0.62405 0.36125 0.0
H1771 H 0.32637 0.62781 0.35518 0.0
C1772 C 0.24184 0.62972 0.38901 0.0
C1773 C 0.22875 0.64449 0.38547 0.0
C1774 C 0.26125 0.63227 0.38519 0.0
C1775 C 0.26801 0.64963 0.37773 0.0
C1776 C 0.25492 0.66443 0.37431 0.0
C1777 C 0.23552 0.66189 0.37813 0.0
C1778 C 0.31739 0.67174 0.37405 0.0
C1779 C 0.32803 0.65683 0.36588 0.0
C1780 C 0.29792 0.66948 0.37778 0.0
C1781 C 0.28863 0.65223 0.37343 0.0
C1782 C 0.2992 0.63742 0.36502 0.0
C1783 C 0.31864 0.63969 0.36128 0.0
H1784 H 0.7729 0.82946 0.36409 0.0
H1785 H 0.76112 0.87841 0.39969 0.0
H1786 H 0.73886 0.82589 0.35771 0.0
H1787 H 0.72698 0.87463 0.39342 0.0
H1788 H 0.6673 0.84507 0.39486 0.0
H1789 H 0.70141 0.84912 0.40104 0.0
H1790 H 0.71276 0.84539 0.34063 0.0
H1791 H 0.67857 0.84137 0.33446 0.0
C1792 C 0.76305 0.83943 0.3706 0.0
C1793 C 0.7697 0.85419 0.38245 0.0
C1794 C 0.74359 0.83743 0.36685 0.0
C1795 C 0.73033 0.84997 0.37508 0.0
C1796 C 0.73692 0.86469 0.387 0.0
C1797 C 0.75644 0.86689 0.39053 0.0
C1798 C 0.67711 0.84496 0.38294 0.0
C1799 C 0.67035 0.84281 0.36418 0.0
C1800 C 0.69657 0.84747 0.38646 0.0
C1801 C 0.70967 0.84759 0.37131 0.0
C1802 C 0.70294 0.84525 0.35256 0.0
C1803 C 0.68344 0.84305 0.34902 0.0
H1804 H 0.18081 0.65977 0.66257 0.0
H1805 H 0.16914 0.65464 0.60234 0.0
H1806 H 0.21482 0.65471 0.6564 0.0
H1807 H 0.2031 0.64963 0.59615 0.0
H1808 H 0.26203 0.61892 0.59795 0.0
H1809 H 0.22802 0.62399 0.60395 0.0
H1810 H 0.24146 0.67271 0.63915 0.0
H1811 H 0.27538 0.66781 0.63309 0.0
C1812 C 0.18554 0.65755 0.64804 0.0
C1813 C 0.17237 0.65768 0.63294 0.0
C1814 C 0.20497 0.65477 0.64449 0.0
C1815 C 0.21156 0.65177 0.6258 0.0
C1816 C 0.19838 0.65179 0.6107 0.0
C1817 C 0.179 0.65485 0.61423 0.0
C1818 C 0.25772 0.63072 0.60694 0.0
C1819 C 0.27139 0.64299 0.61501 0.0
C1820 C 0.23827 0.63366 0.6103 0.0
C1821 C 0.23214 0.64872 0.62204 0.0
C1822 C 0.2458 0.6609 0.63018 0.0
C1823 C 0.26521 0.65814 0.6266 0.0
H1824 H 0.876 0.7722 0.67339 0.0
H1825 H 0.89334 0.76105 0.61528 0.0
H1826 H 0.86917 0.73843 0.67785 0.0
H1827 H 0.88677 0.72718 0.61988 0.0
H1828 H 0.85299 0.67213 0.62842 0.0
H1829 H 0.85935 0.70604 0.62442 0.0
H1830 H 0.88552 0.70773 0.68019 0.0
H1831 H 0.87853 0.67391 0.68448 0.0
C1832 C 0.87846 0.76254 0.66159 0.0
C1833 C 0.88518 0.76934 0.64396 0.0
C1834 C 0.87462 0.74316 0.66419 0.0
C1835 C 0.87739 0.73013 0.64922 0.0
C1836 C 0.88424 0.7369 0.63162 0.0
C1837 C 0.88811 0.7563 0.62901 0.0
C1838 C 0.85983 0.67977 0.63996 0.0
C1839 C 0.86522 0.67028 0.6568 0.0
C1840 C 0.86372 0.69916 0.63755 0.0
C1841 C 0.87305 0.70956 0.65193 0.0
C1842 C 0.8782 0.70015 0.66888 0.0
C1843 C 0.87435 0.68073 0.67128 0.0
H1844 H 0.10457 0.73691 0.617 0.0
H1845 H 0.12488 0.72645 0.67428 0.0
H1846 H 0.11119 0.77085 0.62091 0.0
H1847 H 0.13187 0.76026 0.67801 0.0
H1848 H 0.12261 0.82457 0.68489 0.0
H1849 H 0.11583 0.79069 0.68115 0.0
H1850 H 0.13806 0.79257 0.62371 0.0
H1851 H 0.14409 0.82658 0.62716 0.0
C1852 C 0.11049 0.74183 0.6304 0.0
C1853 C 0.11417 0.72896 0.64533 0.0
C1854 C 0.11441 0.76127 0.6326 0.0
C1855 C 0.1221 0.76827 0.64977 0.0
C1856 C 0.12572 0.75539 0.6647 0.0
C1857 C 0.12179 0.73597 0.66251 0.0
C1858 C 0.12595 0.8178 0.67142 0.0
C1859 C 0.13384 0.82837 0.65632 0.0
C1860 C 0.12224 0.79832 0.66934 0.0
C1861 C 0.12635 0.78892 0.6521 0.0
C1862 C 0.13449 0.79942 0.63709 0.0
C1863 C 0.1382 0.8189 0.63917 0.0
H1864 H 0.89651 0.3303 0.84523 0.0
H1865 H 0.83577 0.32028 0.84623 0.0
H1866 H 0.90226 0.29623 0.85016 0.0
H1867 H 0.8415 0.28616 0.85119 0.0
H1868 H 0.86234 0.22497 0.83582 0.0
H1869 H 0.85628 0.259 0.83169 0.0
H1870 H 0.89623 0.27168 0.87682 0.0
H1871 H 0.90221 0.23756 0.88114 0.0
C1872 C 0.88441 0.32077 0.84636 0.0
C1873 C 0.86569 0.32788 0.84526 0.0
C1874 C 0.88769 0.30134 0.84938 0.0
C1875 C 0.87232 0.2886 0.85108 0.0
C1876 C 0.8536 0.29568 0.84983 0.0
C1877 C 0.85032 0.31516 0.8471 0.0
C1878 C 0.86983 0.23499 0.84489 0.0
C1879 C 0.88282 0.22857 0.85876 0.0
C1880 C 0.86627 0.25446 0.84258 0.0
C1881 C 0.87581 0.26794 0.85391 0.0
C1882 C 0.8888 0.26156 0.8678 0.0
C1883 C 0.89215 0.24205 0.87031 0.0
H1884 H 0.10182 0.17114 0.83014 0.0
H1885 H 0.15705 0.17655 0.85678 0.0
H1886 H 0.09534 0.20483 0.83658 0.0
H1887 H 0.15044 0.21032 0.86351 0.0
H1888 H 0.11815 0.26414 0.88869 0.0
H1889 H 0.12417 0.23001 0.88392 0.0
H1890 H 0.11255 0.23636 0.8238 0.0
H1891 H 0.10696 0.27048 0.8284 0.0
C1892 C 0.11244 0.17949 0.83763 0.0
C1893 C 0.12992 0.17129 0.84302 0.0
C1894 C 0.10879 0.19875 0.84118 0.0
C1895 C 0.1224 0.21008 0.85051 0.0
C1896 C 0.13969 0.20181 0.85637 0.0
C1897 C 0.14351 0.1826 0.85246 0.0
C1898 C 0.11687 0.25822 0.87447 0.0
C1899 C 0.11212 0.26995 0.8589 0.0
C1900 C 0.12039 0.23876 0.87175 0.0
C1901 C 0.11879 0.23065 0.85351 0.0
C1902 C 0.11378 0.24231 0.83802 0.0
C1903 C 0.11066 0.26181 0.84065 0.0
H1904 H 0.61825 0.89618 0.76285 0.0
H1905 H 0.67532 0.87496 0.77269 0.0
H1906 H 0.62212 0.89057 0.72871 0.0
H1907 H 0.67904 0.86915 0.73864 0.0
H1908 H 0.68565 0.88074 0.67439 0.0
H1909 H 0.68202 0.88677 0.7085 0.0
H1910 H 0.62493 0.86365 0.70647 0.0
H1911 H 0.62834 0.85819 0.67235 0.0
C1912 C 0.6316 0.89028 0.75776 0.0
C1913 C 0.64647 0.88601 0.77052 0.0
C1914 C 0.63377 0.88698 0.7382 0.0
C1915 C 0.65089 0.87939 0.73096 0.0
C1916 C 0.66577 0.87521 0.74372 0.0
C1917 C 0.66358 0.87845 0.76327 0.0
C1918 C 0.6723 0.87704 0.68121 0.0
C1919 C 0.6573 0.86897 0.67061 0.0
C1920 C 0.67027 0.88033 0.70078 0.0
C1921 C 0.65316 0.87573 0.71019 0.0
C1922 C 0.63822 0.86756 0.69962 0.0
C1923 C 0.64027 0.86419 0.68008 0.0
H1924 H 0.3403 0.60057 0.67163 0.0
H1925 H 0.34124 0.66159 0.67979 0.0
H1926 H 0.34427 0.59587 0.70598 0.0
H1927 H 0.34516 0.6569 0.71422 0.0
H1928 H 0.32973 0.63778 0.77607 0.0
H1929 H 0.32531 0.64258 0.74183 0.0
H1930 H 0.3711 0.60306 0.73032 0.0
H1931 H 0.37576 0.59841 0.76456 0.0
C1932 C 0.34114 0.61296 0.68081 0.0
C1933 C 0.3404 0.63145 0.67309 0.0
C1934 C 0.3436 0.61027 0.70041 0.0
C1935 C 0.34506 0.62603 0.71271 0.0
C1936 C 0.34398 0.64452 0.70504 0.0
C1937 C 0.34184 0.64721 0.68539 0.0
C1938 C 0.33886 0.63011 0.76625 0.0
C1939 C 0.35307 0.61767 0.77303 0.0
C1940 C 0.33637 0.63294 0.74667 0.0
C1941 C 0.34783 0.62316 0.73347 0.0
C1942 C 0.36197 0.61065 0.74022 0.0
C1943 C 0.36468 0.60806 0.75981 0.0
H1944 H 0.63047 0.14781 0.82663 0.0
H1945 H 0.68258 0.11502 0.82502 0.0
H1946 H 0.62599 0.14246 0.7925 0.0
H1947 H 0.67796 0.10941 0.79092 0.0
H1948 H 0.67445 0.12463 0.72693 0.0
H1949 H 0.67844 0.12922 0.76114 0.0
H1950 H 0.61908 0.11535 0.77002 0.0
H1951 H 0.615 0.11074 0.73568 0.0
C1952 C 0.64099 0.13951 0.81897 0.0
C1953 C 0.65692 0.13191 0.82849 0.0
C1954 C 0.63832 0.13628 0.79948 0.0
C1955 C 0.65163 0.12553 0.78905 0.0
C1956 C 0.66754 0.11787 0.79857 0.0
C1957 C 0.67011 0.12095 0.81811 0.0
C1958 C 0.66221 0.12257 0.73614 0.0
C1959 C 0.64439 0.11735 0.72857 0.0
C1960 C 0.66456 0.12508 0.75576 0.0
C1961 C 0.64909 0.1226 0.76825 0.0
C1962 C 0.63122 0.11749 0.7607 0.0
C1963 C 0.62891 0.1148 0.74106 0.0
H1964 H 0.31496 0.37221 0.82385 0.0
H1965 H 0.37367 0.35407 0.82836 0.0
H1966 H 0.31936 0.37789 0.7898 0.0
H1967 H 0.3779 0.35915 0.79426 0.0
H1968 H 0.38399 0.3928 0.73813 0.0
H1969 H 0.37956 0.3862 0.77203 0.0
H1970 H 0.32482 0.3606 0.75994 0.0
H1971 H 0.32908 0.36739 0.72615 0.0
C1972 C 0.32877 0.36934 0.81757 0.0
C1973 C 0.34395 0.36271 0.82887 0.0
C1974 C 0.33125 0.37244 0.79803 0.0
C1975 C 0.34901 0.36903 0.78933 0.0
C1976 C 0.36411 0.36213 0.80056 0.0
C1977 C 0.3616 0.35897 0.82008 0.0
C1978 C 0.37103 0.38573 0.7427 0.0
C1979 C 0.35688 0.38065 0.72942 0.0
C1980 C 0.36853 0.38186 0.76211 0.0
C1981 C 0.35183 0.37288 0.76868 0.0
C1982 C 0.33774 0.36775 0.75538 0.0
C1983 C 0.34025 0.37156 0.73598 0.0
H1984 H 0.76076 0.61944 0.89954 0.0
H1985 H 0.77488 0.66505 0.86052 0.0
H1986 H 0.72681 0.62521 0.89385 0.0
H1987 H 0.74104 0.67076 0.8549 0.0
H1988 H 0.67943 0.65994 0.83417 0.0
H1989 H 0.71332 0.65379 0.83976 0.0
H1990 H 0.70289 0.65139 0.90042 0.0
H1991 H 0.669 0.65731 0.8948 0.0
C1992 C 0.75663 0.63065 0.88973 0.0
C1993 C 0.7705 0.6418 0.88049 0.0
C1994 C 0.73721 0.63402 0.88656 0.0
C1995 C 0.7313 0.64843 0.87392 0.0
C1996 C 0.74518 0.65944 0.86458 0.0
C1997 C 0.76455 0.65623 0.86789 0.0
C1998 C 0.6844 0.65806 0.84867 0.0
C1999 C 0.67159 0.65919 0.86403 0.0
C2000 C 0.70379 0.65466 0.85188 0.0
C2001 C 0.71073 0.65208 0.87052 0.0
C2002 C 0.69792 0.65317 0.88589 0.0
C2003 C 0.67857 0.65678 0.88269 0.0
H2004 H 0.77191 0.32689 0.63472 0.0
H2005 H 0.76221 0.3805 0.60582 0.0
H2006 H 0.73777 0.32367 0.64025 0.0
H2007 H 0.72798 0.37708 0.61108 0.0
H2008 H 0.6701 0.37428 0.64038 0.0
H2009 H 0.70446 0.37753 0.6367 0.0
H2010 H 0.70858 0.31771 0.62243 0.0
H2011 H 0.67425 0.31429 0.62684 0.0
C2012 C 0.7625 0.33798 0.6295 0.0
C2013 C 0.7698 0.35396 0.61982 0.0
C2014 C 0.7429 0.33607 0.63259 0.0
C2015 C 0.73014 0.3501 0.6261 0.0
C2016 C 0.73745 0.36614 0.6165 0.0
C2017 C 0.75707 0.36805 0.61339 0.0
C2018 C 0.67833 0.36173 0.63677 0.0
C2019 C 0.66936 0.344 0.63391 0.0
C2020 C 0.69803 0.36366 0.6344 0.0
C2021 C 0.70926 0.34791 0.62915 0.0
C2022 C 0.70036 0.33011 0.62662 0.0
C2023 C 0.68065 0.32818 0.62896 0.0
H2024 H 0.32947 0.15836 0.60323 0.0
H2025 H 0.31834 0.15727 0.66376 0.0
H2026 H 0.29557 0.15332 0.59681 0.0
H2027 H 0.28429 0.15226 0.65734 0.0
H2028 H 0.22305 0.16583 0.63501 0.0
H2029 H 0.25685 0.17129 0.64153 0.0
H2030 H 0.27173 0.12587 0.60271 0.0
H2031 H 0.23789 0.1202 0.59629 0.0
C2032 C 0.31972 0.15726 0.61515 0.0
C2033 C 0.32648 0.15831 0.63401 0.0
C2034 C 0.30038 0.15419 0.61148 0.0
C2035 C 0.28735 0.15238 0.62658 0.0
C2036 C 0.29404 0.15371 0.64544 0.0
C2037 C 0.31347 0.15647 0.64912 0.0
C2038 C 0.23352 0.15703 0.62782 0.0
C2039 C 0.22781 0.1426 0.61511 0.0
C2040 C 0.25285 0.16009 0.63166 0.0
C2041 C 0.26686 0.149 0.62263 0.0
C2042 C 0.26119 0.1347 0.60977 0.0
C2043 C 0.24184 0.13141 0.60617 0.0
H2044 H 0.73595 0.38578 0.39426 0.0
H2045 H 0.72438 0.33208 0.36622 0.0
H2046 H 0.77 0.38134 0.38859 0.0
H2047 H 0.75836 0.32782 0.36034 0.0
H2048 H 0.82189 0.31706 0.37332 0.0
H2049 H 0.78771 0.32142 0.37819 0.0
H2050 H 0.79302 0.38074 0.36232 0.0
H2051 H 0.82723 0.37654 0.35808 0.0
C2052 C 0.74064 0.37309 0.3868 0.0
C2053 C 0.72743 0.35928 0.38071 0.0
C2054 C 0.76015 0.37059 0.38347 0.0
C2055 C 0.76689 0.35422 0.37401 0.0
C2056 C 0.75366 0.34046 0.36787 0.0
C2057 C 0.73416 0.34297 0.37116 0.0
C2058 C 0.81578 0.33104 0.37093 0.0
C2059 C 0.82734 0.34644 0.36534 0.0
C2060 C 0.79616 0.3335 0.37355 0.0
C2061 C 0.78765 0.35145 0.37069 0.0
C2062 C 0.79916 0.36679 0.36485 0.0
C2063 C 0.81876 0.36431 0.36218 0.0
H2064 H 0.6055 0.7393 0.88177 0.0
H2065 H 0.62369 0.72867 0.82383 0.0
H2066 H 0.61285 0.77311 0.87779 0.0
H2067 H 0.63137 0.7623 0.82001 0.0
H2068 H 0.62374 0.82687 0.81367 0.0
H2069 H 0.61606 0.79318 0.81752 0.0
H2070 H 0.64025 0.79413 0.87419 0.0
H2071 H 0.64722 0.82795 0.87065 0.0
C2072 C 0.6111 0.74415 0.86821 0.0
C2073 C 0.61399 0.73127 0.85312 0.0
C2074 C 0.61543 0.76351 0.86596 0.0
C2075 C 0.62274 0.77041 0.84859 0.0
C2076 C 0.62553 0.75752 0.8335 0.0
C2077 C 0.62121 0.7382 0.83573 0.0
C2078 C 0.62733 0.81993 0.82699 0.0
C2079 C 0.63607 0.83019 0.84185 0.0
C2080 C 0.62309 0.80056 0.82913 0.0
C2081 C 0.62748 0.79096 0.84619 0.0
C2082 C 0.63645 0.80114 0.86096 0.0
C2083 C 0.6407 0.8205 0.85881 0.0
H2084 H 0.35334 0.6767 0.87255 0.0
H2085 H 0.37635 0.67747 0.8154 0.0
H2086 H 0.36001 0.71062 0.87572 0.0
H2087 H 0.3837 0.7113 0.81885 0.0
H2088 H 0.3756 0.77598 0.82506 0.0
H2089 H 0.36814 0.74224 0.82136 0.0
H2090 H 0.3875 0.73163 0.8789 0.0
H2091 H 0.39465 0.76546 0.88276 0.0
C2092 C 0.35969 0.6841 0.8606 0.0
C2093 C 0.36429 0.6743 0.8437 0.0
C2094 C 0.36377 0.70352 0.86252 0.0
C2095 C 0.37251 0.71366 0.8476 0.0
C2096 C 0.37685 0.70395 0.83058 0.0
C2097 C 0.3728 0.68451 0.82867 0.0
C2098 C 0.37831 0.76647 0.83693 0.0
C2099 C 0.38569 0.77345 0.85423 0.0
C2100 C 0.37411 0.74709 0.83476 0.0
C2101 C 0.37718 0.73424 0.84984 0.0
C2102 C 0.38469 0.7412 0.8671 0.0
C2103 C 0.38891 0.76058 0.86927 0.0
H2104 H 0.64675 0.1737 0.62723 0.0
H2105 H 0.62531 0.17651 0.68491 0.0
H2106 H 0.64068 0.20765 0.62326 0.0
H2107 H 0.61868 0.21047 0.68073 0.0
H2108 H 0.6283 0.27502 0.67157 0.0
H2109 H 0.63527 0.24126 0.67641 0.0
H2110 H 0.6127 0.22857 0.6205 0.0
H2111 H 0.60591 0.26231 0.61552 0.0
C2112 C 0.6409 0.18158 0.63914 0.0
C2113 C 0.63653 0.17236 0.65641 0.0
C2114 C 0.63718 0.20101 0.63677 0.0
C2115 C 0.62906 0.21173 0.65163 0.0
C2116 C 0.62503 0.20263 0.66904 0.0
C2117 C 0.62868 0.18314 0.67138 0.0
C2118 C 0.62479 0.26504 0.66031 0.0
C2119 C 0.6166 0.27138 0.64313 0.0
C2120 C 0.62871 0.24568 0.66314 0.0
C2121 C 0.62461 0.23226 0.64882 0.0
C2122 C 0.61629 0.2386 0.6317 0.0
C2123 C 0.6123 0.25793 0.62889 0.0
H2124 H 0.36465 0.22586 0.66854 0.0
H2125 H 0.40354 0.23726 0.62209 0.0
H2126 H 0.35925 0.26006 0.67241 0.0
H2127 H 0.39828 0.27155 0.6262 0.0
H2128 H 0.39939 0.33084 0.65701 0.0
H2129 H 0.40496 0.2966 0.65286 0.0
H2130 H 0.34416 0.28684 0.65186 0.0
H2131 H 0.3386 0.32111 0.65592 0.0
C2132 C 0.37211 0.23566 0.65921 0.0
C2133 C 0.38454 0.22887 0.64502 0.0
C2134 C 0.36892 0.25522 0.66137 0.0
C2135 C 0.37834 0.2684 0.64961 0.0
C2136 C 0.39093 0.26166 0.63553 0.0
C2137 C 0.39387 0.24206 0.63314 0.0
C2138 C 0.38724 0.32134 0.65603 0.0
C2139 C 0.36856 0.32858 0.65684 0.0
C2140 C 0.39043 0.30182 0.65349 0.0
C2141 C 0.37499 0.28913 0.65203 0.0
C2142 C 0.35631 0.29633 0.65304 0.0
C2143 C 0.35313 0.3159 0.65525 0.0
H2144 H 0.87786 0.59477 0.73688 0.0
H2145 H 0.8327 0.63498 0.72485 0.0
H2146 H 0.87374 0.60045 0.77105 0.0
H2147 H 0.82891 0.64089 0.759 0.0
H2148 H 0.84607 0.66034 0.82091 0.0
H2149 H 0.85039 0.65513 0.78653 0.0
H2150 H 0.84557 0.59435 0.79519 0.0
H2151 H 0.84105 0.59958 0.8294 0.0
C2152 C 0.86711 0.60484 0.7415 0.0
C2153 C 0.85552 0.61433 0.72817 0.0
C2154 C 0.86473 0.60805 0.76105 0.0
C2155 C 0.85101 0.6211 0.7676 0.0
C2156 C 0.83965 0.63083 0.75429 0.0
C2157 C 0.84177 0.62735 0.73477 0.0
C2158 C 0.84592 0.64591 0.81539 0.0
C2159 C 0.84312 0.63038 0.82772 0.0
C2160 C 0.8483 0.64294 0.79579 0.0
C2161 C 0.84834 0.62434 0.78829 0.0
C2162 C 0.84569 0.60881 0.80065 0.0
C2163 C 0.84294 0.61181 0.82015 0.0
H2164 H 0.18425 0.87639 0.82377 0.0
H2165 H 0.12648 0.85543 0.82826 0.0
H2166 H 0.17976 0.8813 0.7896 0.0
H2167 H 0.12218 0.85979 0.79405 0.0
H2168 H 0.11512 0.89181 0.73703 0.0
H2169 H 0.11951 0.88632 0.77114 0.0
H2170 H 0.17534 0.86265 0.7602 0.0
H2171 H 0.1711 0.86831 0.7262 0.0
C2172 C 0.17062 0.87279 0.81747 0.0
C2173 C 0.15574 0.86552 0.82876 0.0
C2174 C 0.1681 0.87543 0.79786 0.0
C2175 C 0.1506 0.87095 0.78913 0.0
C2176 C 0.13576 0.86356 0.80039 0.0
C2177 C 0.13832 0.86083 0.81996 0.0
C2178 C 0.1283 0.88538 0.74189 0.0
C2179 C 0.14277 0.88053 0.72889 0.0
C2180 C 0.13078 0.88216 0.76143 0.0
C2181 C 0.14779 0.87408 0.76836 0.0
C2182 C 0.16218 0.86913 0.75533 0.0
C2183 C 0.15969 0.87228 0.73582 0.0
H2184 H 0.83589 0.35729 0.77522 0.0
H2185 H 0.87921 0.39933 0.7627 0.0
H2186 H 0.83244 0.35068 0.74122 0.0
H2187 H 0.87554 0.39282 0.7286 0.0
H2188 H 0.84267 0.39228 0.6705 0.0
H2189 H 0.84811 0.39779 0.70448 0.0
H2190 H 0.85263 0.33704 0.71361 0.0
H2191 H 0.8472 0.33154 0.67947 0.0
C2192 C 0.84471 0.3651 0.76522 0.0
C2193 C 0.85776 0.37892 0.77164 0.0
C2194 C 0.8428 0.36122 0.74577 0.0
C2195 C 0.85369 0.37126 0.73231 0.0
C2196 C 0.86687 0.38497 0.7387 0.0
C2197 C 0.86902 0.38864 0.75821 0.0
C2198 C 0.84468 0.3801 0.67979 0.0
C2199 C 0.84436 0.36145 0.67242 0.0
C2200 C 0.84802 0.38327 0.69918 0.0
C2201 C 0.85083 0.36784 0.71164 0.0
C2202 C 0.85043 0.34918 0.7043 0.0
C2203 C 0.8474 0.34602 0.68482 0.0
H2204 H 0.14651 0.09576 0.76792 0.0
H2205 H 0.10723 0.14264 0.7603 0.0
H2206 H 0.15771 0.09993 0.73515 0.0
H2207 H 0.11772 0.14631 0.72757 0.0
H2208 H 0.15123 0.16143 0.67553 0.0
H2209 H 0.14351 0.15723 0.7092 0.0
H2210 H 0.14885 0.09609 0.70268 0.0
H2211 H 0.15724 0.10052 0.66923 0.0
C2212 C 0.14015 0.10681 0.75919 0.0
C2213 C 0.12608 0.11894 0.76671 0.0
C2214 C 0.14651 0.10919 0.7404 0.0
C2215 C 0.13877 0.1236 0.72871 0.0
C2216 C 0.12441 0.13541 0.73624 0.0
C2217 C 0.11825 0.13319 0.75501 0.0
C2218 C 0.15088 0.14715 0.68141 0.0
C2219 C 0.15481 0.13133 0.66982 0.0
C2220 C 0.14635 0.14468 0.70065 0.0
C2221 C 0.1453 0.12628 0.70867 0.0
C2222 C 0.14974 0.11048 0.69712 0.0
C2223 C 0.15454 0.113 0.67793 0.0
H2224 H 0.73753 0.87923 0.59615 0.0
H2225 H 0.72307 0.83143 0.63231 0.0
H2226 H 0.77139 0.8735 0.60223 0.0
H2227 H 0.75692 0.82592 0.63854 0.0
H2228 H 0.81838 0.83905 0.66131 0.0
H2229 H 0.7843 0.84422 0.65527 0.0
H2230 H 0.7954 0.84659 0.59475 0.0
H2231 H 0.82935 0.84139 0.60078 0.0
C2232 C 0.74155 0.86751 0.60537 0.0
C2233 C 0.72761 0.85573 0.61367 0.0
C2234 C 0.76093 0.86421 0.6088 0.0
C2235 C 0.76673 0.84927 0.62085 0.0
C2236 C 0.75281 0.83761 0.62929 0.0
C2237 C 0.73346 0.84071 0.62562 0.0
C2238 C 0.81347 0.84065 0.64675 0.0
C2239 C 0.82645 0.83973 0.63152 0.0
C2240 C 0.79402 0.8435 0.64328 0.0
C2241 C 0.78726 0.84583 0.62455 0.0
C2242 C 0.80026 0.84495 0.60933 0.0
C2243 C 0.81963 0.84179 0.61277 0.0
H2244 H 0.82573 0.18494 0.88212 0.0
H2245 H 0.82662 0.12845 0.85748 0.0
H2246 H 0.79183 0.18131 0.88906 0.0
H2247 H 0.79267 0.12514 0.86373 0.0
H2248 H 0.73707 0.11723 0.89655 0.0
H2249 H 0.77111 0.12126 0.89064 0.0
H2250 H 0.76118 0.17941 0.87275 0.0
H2251 H 0.72721 0.17553 0.87899 0.0
C2252 C 0.81872 0.17177 0.87815 0.0
C2253 C 0.82896 0.157 0.86924 0.0
C2254 C 0.79924 0.16976 0.88196 0.0
C2255 C 0.78954 0.15291 0.877 0.0
C2256 C 0.79974 0.13821 0.86797 0.0
C2257 C 0.81919 0.14023 0.86413 0.0
C2258 C 0.74214 0.1309 0.89142 0.0
C2259 C 0.7294 0.14605 0.88822 0.0
C2260 C 0.76165 0.13317 0.88792 0.0
C2261 C 0.76886 0.15064 0.88115 0.0
C2262 C 0.75613 0.16584 0.87816 0.0
C2263 C 0.73663 0.16357 0.88164 0.0
H2264 H 0.26333 0.38237 0.89251 0.0
H2265 H 0.27488 0.32411 0.87591 0.0
H2266 H 0.22943 0.3773 0.88655 0.0
H2267 H 0.24099 0.31914 0.86979 0.0
H2268 H 0.17642 0.31258 0.88172 0.0
H2269 H 0.21051 0.31706 0.88736 0.0
H2270 H 0.20793 0.37184 0.85927 0.0
H2271 H 0.17383 0.36762 0.85413 0.0
C2272 C 0.25866 0.36849 0.88756 0.0
C2273 C 0.27184 0.35365 0.88466 0.0
C2274 C 0.23924 0.36562 0.88405 0.0
C2275 C 0.23254 0.34783 0.87763 0.0
C2276 C 0.24569 0.33295 0.87488 0.0
C2277 C 0.26513 0.33584 0.87831 0.0
C2278 C 0.18312 0.32559 0.8768 0.0
C2279 C 0.17237 0.33975 0.86751 0.0
C2280 C 0.20268 0.32809 0.87988 0.0
C2281 C 0.2119 0.34485 0.87383 0.0
C2282 C 0.2012 0.35887 0.8643 0.0
C2283 C 0.18169 0.35634 0.86114 0.0
H2284 H 0.77419 0.17374 0.12781 0.0
H2285 H 0.76348 0.11649 0.10749 0.0
H2286 H 0.74019 0.17807 0.13356 0.0
H2287 H 0.72941 0.12096 0.11303 0.0
H2288 H 0.67338 0.12853 0.14574 0.0
H2289 H 0.7074 0.12453 0.14005 0.0
H2290 H 0.71003 0.18116 0.11589 0.0
H2291 H 0.67602 0.1854 0.12215 0.0
C2292 C 0.76459 0.16209 0.12451 0.0
C2293 C 0.77157 0.14475 0.11722 0.0
C2294 C 0.74508 0.16463 0.1277 0.0
C2295 C 0.73211 0.14987 0.12376 0.0
C2296 C 0.73907 0.13253 0.11644 0.0
C2297 C 0.75859 0.13 0.11318 0.0
C2298 C 0.68123 0.14023 0.13944 0.0
C2299 C 0.67197 0.15732 0.13447 0.0
C2300 C 0.70069 0.13783 0.13595 0.0
C2301 C 0.7114 0.15249 0.12745 0.0
C2302 C 0.7022 0.16964 0.12259 0.0
C2303 C 0.68268 0.17201 0.12602 0.0
H2304 H 0.39553 0.26827 0.17423 0.0
H2305 H 0.38819 0.26469 0.11313 0.0
H2306 H 0.39135 0.23377 0.17674 0.0
H2307 H 0.3837 0.23012 0.11576 0.0
H2308 H 0.35096 0.17458 0.13754 0.0
H2309 H 0.35765 0.20851 0.13217 0.0
H2310 H 0.40954 0.20341 0.16495 0.0
H2311 H 0.40292 0.16953 0.17017 0.0
C2312 C 0.39301 0.26012 0.16134 0.0
C2313 C 0.39214 0.26919 0.14349 0.0
C2314 C 0.39075 0.24038 0.16278 0.0
C2315 C 0.38725 0.22933 0.14643 0.0
C2316 C 0.38633 0.23836 0.12857 0.0
C2317 C 0.38895 0.25809 0.12708 0.0
C2318 C 0.36388 0.18072 0.14339 0.0
C2319 C 0.37643 0.16948 0.15423 0.0
C2320 C 0.36775 0.20004 0.14025 0.0
C2321 C 0.38406 0.20853 0.14822 0.0
C2322 C 0.39682 0.1972 0.15874 0.0
C2323 C 0.39312 0.17782 0.16158 0.0
H2324 H 0.63945 0.22609 0.16731 0.0
H2325 H 0.59921 0.23901 0.12241 0.0
H2326 H 0.64639 0.26004 0.17085 0.0
H2327 H 0.60604 0.27302 0.12618 0.0
H2328 H 0.60727 0.33186 0.15712 0.0
H2329 H 0.6009 0.29784 0.15289 0.0
H2330 H 0.66145 0.28682 0.15041 0.0
H2331 H 0.66781 0.32098 0.15462 0.0
C2332 C 0.63205 0.23616 0.15823 0.0
C2333 C 0.61871 0.22986 0.14463 0.0
C2334 C 0.63613 0.25558 0.16019 0.0
C2335 C 0.62674 0.26912 0.14881 0.0
C2336 C 0.61338 0.26286 0.13523 0.0
C2337 C 0.60952 0.2434 0.13304 0.0
C2338 C 0.61921 0.32214 0.15583 0.0
C2339 C 0.63805 0.329 0.15632 0.0
C2340 C 0.61556 0.30273 0.15322 0.0
C2341 C 0.63068 0.28974 0.1513 0.0
C2342 C 0.64954 0.29655 0.15195 0.0
C2343 C 0.65318 0.31604 0.15426 0.0
H2344 H 0.38964 0.73712 0.38352 0.0
H2345 H 0.371 0.72573 0.32585 0.0
H2346 H 0.3821 0.77085 0.37922 0.0
H2347 H 0.36332 0.75938 0.32167 0.0
H2348 H 0.373 0.82428 0.31534 0.0
H2349 H 0.37997 0.79037 0.31929 0.0
H2350 H 0.35376 0.79148 0.37503 0.0
H2351 H 0.34725 0.82543 0.37129 0.0
C2352 C 0.3839 0.74179 0.36995 0.0
C2353 C 0.38092 0.72873 0.35503 0.0
C2354 C 0.37948 0.76109 0.36753 0.0
C2355 C 0.37208 0.76776 0.35011 0.0
C2356 C 0.36918 0.75471 0.33519 0.0
C2357 C 0.3735 0.7354 0.33763 0.0
C2358 C 0.36876 0.81728 0.32844 0.0
C2359 C 0.35959 0.82757 0.343 0.0
C2360 C 0.37261 0.79783 0.33064 0.0
C2361 C 0.36748 0.78827 0.34751 0.0
C2362 C 0.35808 0.79849 0.36196 0.0
C2363 C 0.35413 0.8179 0.35971 0.0
H2364 H 0.59422 0.76471 0.37794 0.0
H2365 H 0.6316 0.77568 0.33016 0.0
H2366 H 0.60006 0.73044 0.37453 0.0
H2367 H 0.6376 0.74152 0.32702 0.0
H2368 H 0.65935 0.68097 0.34373 0.0
H2369 H 0.6536 0.71523 0.34773 0.0
H2370 H 0.59288 0.70494 0.34832 0.0
H2371 H 0.59865 0.67074 0.34421 0.0
C2372 C 0.60369 0.75983 0.36676 0.0
C2373 C 0.61238 0.77289 0.35427 0.0
C2374 C 0.60697 0.74024 0.36478 0.0
C2375 C 0.61929 0.73339 0.35053 0.0
C2376 C 0.62815 0.74645 0.33821 0.0
C2377 C 0.62461 0.76598 0.33996 0.0
C2378 C 0.64481 0.68607 0.34476 0.0
C2379 C 0.62945 0.67326 0.34359 0.0
C2380 C 0.64152 0.70562 0.34695 0.0
C2381 C 0.6228 0.71267 0.34835 0.0
C2382 C 0.60744 0.69984 0.34739 0.0
C2383 C 0.61074 0.68034 0.34487 0.0
H2384 H 0.18644 0.37113 0.17777 0.0
H2385 H 0.1276 0.35362 0.17237 0.0
H2386 H 0.18132 0.37783 0.21152 0.0
H2387 H 0.12268 0.35966 0.2062 0.0
H2388 H 0.1152 0.39426 0.26122 0.0
H2389 H 0.12065 0.38707 0.22762 0.0
H2390 H 0.17506 0.36183 0.24181 0.0
H2391 H 0.16978 0.36925 0.27534 0.0
C2392 C 0.17245 0.36861 0.18378 0.0
C2393 C 0.15744 0.36187 0.17231 0.0
C2394 C 0.16955 0.37229 0.20318 0.0
C2395 C 0.15156 0.36936 0.21155 0.0
C2396 C 0.13664 0.36231 0.20015 0.0
C2397 C 0.13955 0.35858 0.18078 0.0
C2398 C 0.12833 0.38718 0.25718 0.0
C2399 C 0.14205 0.38234 0.27098 0.0
C2400 C 0.13141 0.38296 0.23792 0.0
C2401 C 0.14828 0.37383 0.23203 0.0
C2402 C 0.16201 0.36906 0.24583 0.0
C2403 C 0.15893 0.37325 0.26508 0.0
H2404 H 0.82487 0.12713 0.27524 0.0
H2405 H 0.88171 0.10602 0.26401 0.0
H2406 H 0.82064 0.13376 0.24134 0.0
H2407 H 0.87734 0.11238 0.23013 0.0
H2408 H 0.87145 0.14566 0.17486 0.0
H2409 H 0.87469 0.13979 0.20888 0.0
H2410 H 0.81726 0.11751 0.21054 0.0
H2411 H 0.81376 0.12404 0.17651 0.0
C2412 C 0.83642 0.1238 0.26554 0.0
C2413 C 0.85366 0.11612 0.27236 0.0
C2414 C 0.83396 0.12752 0.24609 0.0
C2415 C 0.84868 0.12369 0.23304 0.0
C2416 C 0.86583 0.1158 0.23985 0.0
C2417 C 0.86829 0.11205 0.25927 0.0
C2418 C 0.85938 0.1398 0.18248 0.0
C2419 C 0.84233 0.13533 0.17289 0.0
C2420 C 0.86134 0.13618 0.20197 0.0
C2421 C 0.84629 0.12803 0.21241 0.0
C2422 C 0.8291 0.12389 0.20293 0.0
C2423 C 0.82715 0.12747 0.18339 0.0
H2424 H 0.11558 0.6079 0.2349 0.0
H2425 H 0.17479 0.62239 0.2255 0.0
H2426 H 0.11988 0.61282 0.2691 0.0
H2427 H 0.17899 0.62741 0.25965 0.0
H2428 H 0.18357 0.61474 0.32393 0.0
H2429 H 0.1793 0.60887 0.28984 0.0
H2430 H 0.12601 0.63977 0.29121 0.0
H2431 H 0.13007 0.64524 0.32532 0.0
C2432 C 0.1295 0.61216 0.24011 0.0
C2433 C 0.14483 0.6148 0.22745 0.0
C2434 C 0.13193 0.61505 0.25969 0.0
C2435 C 0.14977 0.62052 0.26707 0.0
C2436 C 0.16513 0.62301 0.25443 0.0
C2437 C 0.16267 0.62023 0.23484 0.0
C2438 C 0.17089 0.62016 0.31698 0.0
C2439 C 0.15717 0.63048 0.32734 0.0
C2440 C 0.16852 0.61694 0.29743 0.0
C2441 C 0.15231 0.62385 0.28784 0.0
C2442 C 0.13857 0.63411 0.29822 0.0
C2443 C 0.141 0.63744 0.31772 0.0
H2444 H 0.84262 0.89574 0.32802 0.0
H2445 H 0.84087 0.83517 0.31702 0.0
H2446 H 0.84842 0.90176 0.29418 0.0
H2447 H 0.84688 0.84115 0.28318 0.0
H2448 H 0.83593 0.86241 0.22168 0.0
H2449 H 0.82989 0.85642 0.25542 0.0
H2450 H 0.875 0.89557 0.27051 0.0
H2451 H 0.88111 0.90161 0.2367 0.0
C2452 C 0.84329 0.88373 0.31833 0.0
C2453 C 0.84121 0.86497 0.32514 0.0
C2454 C 0.84683 0.88716 0.29902 0.0
C2455 C 0.84816 0.87192 0.28607 0.0
C2456 C 0.84582 0.85318 0.29282 0.0
C2457 C 0.8425 0.84974 0.31218 0.0
C2458 C 0.84458 0.86974 0.23218 0.0
C2459 C 0.85899 0.88249 0.22653 0.0
C2460 C 0.84117 0.86623 0.25149 0.0
C2461 C 0.85196 0.87554 0.26558 0.0
C2462 C 0.86636 0.88832 0.25995 0.0
C2463 C 0.86993 0.89168 0.24061 0.0
H2464 H 0.17311 0.18686 0.37292 0.0
H2465 H 0.17085 0.12828 0.35387 0.0
H2466 H 0.20686 0.18318 0.38019 0.0
H2467 H 0.2048 0.12487 0.36033 0.0
H2468 H 0.26 0.11914 0.39493 0.0
H2469 H 0.2262 0.12292 0.38745 0.0
H2470 H 0.23745 0.17926 0.36509 0.0
H2471 H 0.27106 0.17568 0.37294 0.0
C2472 C 0.17982 0.17323 0.37018 0.0
C2473 C 0.16919 0.15786 0.36288 0.0
C2474 C 0.19924 0.17117 0.37417 0.0
C2475 C 0.20854 0.1537 0.37092 0.0
C2476 C 0.19802 0.13844 0.36327 0.0
C2477 C 0.17858 0.14049 0.35929 0.0
C2478 C 0.25524 0.13234 0.38845 0.0
C2479 C 0.26823 0.14712 0.38456 0.0
C2480 C 0.23589 0.13447 0.38405 0.0
C2481 C 0.22911 0.15139 0.37562 0.0
C2482 C 0.24213 0.16615 0.3718 0.0
C2483 C 0.26144 0.16405 0.37624 0.0
H2484 H 0.27711 0.83571 0.13463 0.0
H2485 H 0.26343 0.88158 0.09578 0.0
H2486 H 0.24316 0.8305 0.14041 0.0
H2487 H 0.22942 0.87611 0.10139 0.0
H2488 H 0.17143 0.84317 0.10071 0.0
H2489 H 0.20546 0.84847 0.09492 0.0
H2490 H 0.21557 0.84986 0.15565 0.0
H2491 H 0.18147 0.84466 0.16142 0.0
C2492 C 0.26687 0.84463 0.12726 0.0
C2493 C 0.27298 0.85903 0.11469 0.0
C2494 C 0.24745 0.8417 0.13066 0.0
C2495 C 0.2337 0.85288 0.12133 0.0
C2496 C 0.23975 0.8672 0.10866 0.0
C2497 C 0.25921 0.87037 0.10551 0.0
C2498 C 0.18097 0.84444 0.1128 0.0
C2499 C 0.17387 0.84342 0.13153 0.0
C2500 C 0.20037 0.84765 0.10949 0.0
C2501 C 0.2131 0.84959 0.12484 0.0
C2502 C 0.20606 0.84832 0.14357 0.0
C2503 C 0.18659 0.84544 0.14688 0.0
H2504 H 0.73632 0.61794 0.10507 0.0
H2505 H 0.72469 0.67573 0.12319 0.0
H2506 H 0.77028 0.6231 0.11052 0.0
H2507 H 0.75866 0.68079 0.12883 0.0
H2508 H 0.82327 0.68788 0.11766 0.0
H2509 H 0.78924 0.68345 0.1115 0.0
H2510 H 0.79178 0.62778 0.13777 0.0
H2511 H 0.82577 0.63195 0.1434 0.0
C2512 C 0.74099 0.63174 0.11023 0.0
C2513 C 0.72776 0.6464 0.11376 0.0
C2514 C 0.76045 0.63467 0.11345 0.0
C2515 C 0.76716 0.65233 0.1202 0.0
C2516 C 0.75397 0.66707 0.12346 0.0
C2517 C 0.73448 0.66413 0.12032 0.0
C2518 C 0.81657 0.67468 0.12204 0.0
C2519 C 0.82728 0.66028 0.13103 0.0
C2520 C 0.79704 0.6722 0.11866 0.0
C2521 C 0.78782 0.65523 0.12408 0.0
C2522 C 0.79849 0.64092 0.13321 0.0
C2523 C 0.81796 0.64343 0.13667 0.0
H2524 H 0.32733 0.87312 0.85165 0.0
H2525 H 0.3246 0.81729 0.87757 0.0
H2526 H 0.29328 0.87742 0.85721 0.0
H2527 H 0.29059 0.8218 0.8836 0.0
H2528 H 0.22647 0.82874 0.8719 0.0
H2529 H 0.26037 0.82432 0.86574 0.0
H2530 H 0.27134 0.882 0.88442 0.0
H2531 H 0.23733 0.88654 0.89046 0.0
C2532 C 0.31945 0.8617 0.85841 0.0
C2533 C 0.3287 0.84483 0.86411 0.0
C2534 C 0.29997 0.86427 0.86182 0.0
C2535 C 0.28925 0.84999 0.87091 0.0
C2536 C 0.29843 0.83303 0.87643 0.0
C2537 C 0.31795 0.8305 0.87313 0.0
C2538 C 0.23608 0.84051 0.8747 0.0
C2539 C 0.22916 0.85801 0.88167 0.0
C2540 C 0.25554 0.83792 0.87126 0.0
C2541 C 0.26855 0.85279 0.87461 0.0
C2542 C 0.26165 0.87033 0.88151 0.0
C2543 C 0.24217 0.8729 0.88505 0.0
H2544 H 0.05281 0.23985 0.39479 0.0
H2545 H 0.01417 0.19566 0.41356 0.0
H2546 H 0.02661 0.26281 0.3951 0.0
H2547 H 0.9882 0.21867 0.41446 0.0
H2548 H 0.94233 0.2604 0.39392 0.0
H2549 H 0.96857 0.23755 0.39257 0.0
H2550 H 0.0061 0.27915 0.41826 0.0
H2551 H 0.98007 0.30214 0.41904 0.0
C2552 C 0.03875 0.23503 0.39898 0.0
C2553 C 0.03562 0.21593 0.40422 0.0
C2554 C 0.02378 0.24822 0.39933 0.0
C2555 C 0.00533 0.24256 0.40483 0.0
C2556 C 0.0022 0.22345 0.40999 0.0
C2557 C 0.01716 0.2103 0.40971 0.0
C2558 C 0.9562 0.2647 0.39915 0.0
C2559 C 0.95907 0.28308 0.40664 0.0
C2560 C 0.9712 0.25156 0.39854 0.0
C2561 C 0.98941 0.25654 0.40533 0.0
C2562 C 0.99228 0.27493 0.41276 0.0
C2563 C 0.97729 0.28803 0.41343 0.0
H2564 H 0.94541 0.73926 0.08588 0.0
H2565 H 0.98551 0.69505 0.10042 0.0
H2566 H 0.97106 0.7628 0.08617 0.0
H2567 H 0.01111 0.71851 0.10205 0.0
H2568 H 0.0569 0.76177 0.08692 0.0
H2569 H 0.03145 0.73799 0.08533 0.0
H2570 H 0.9911 0.78039 0.10509 0.0
H2571 H 0.01644 0.80416 0.10531 0.0
C2572 C 0.95977 0.7347 0.08931 0.0
C2573 C 0.96359 0.71543 0.09295 0.0
C2574 C 0.97449 0.74816 0.08966 0.0
C2575 C 0.99333 0.7427 0.0942 0.0
C2576 C 0.99699 0.72332 0.09805 0.0
C2577 C 0.98232 0.70983 0.09723 0.0
C2578 C 0.04253 0.76584 0.09085 0.0
C2579 C 0.03849 0.78471 0.09602 0.0
C2580 C 0.02792 0.75224 0.09009 0.0
C2581 C 0.00902 0.75715 0.09499 0.0
C2582 C 0.00524 0.77607 0.10066 0.0
C2583 C 0.01976 0.78971 0.10095 0.0
H2584 H 0.39147 0.01149 0.20015 0.0
H2585 H 0.41521 0.05276 0.23905 0.0
H2586 H 0.39134 0.98757 0.22524 0.0
H2587 H 0.41609 0.02858 0.26421 0.0
H2588 H 0.39687 0.98612 0.30993 0.0
H2589 H 0.39759 0.01064 0.28528 0.0
H2590 H 0.41054 0.96746 0.2431 0.0
H2591 H 0.40878 0.94299 0.26777 0.0
C2592 C 0.39696 0.0153 0.21407 0.0
C2593 C 0.40348 0.03388 0.21769 0.0
C2594 C 0.397 0.00157 0.22848 0.0
C2595 C 0.40391 0.00597 0.24681 0.0
C2596 C 0.41042 0.02467 0.25039 0.0
C2597 C 0.41003 0.03852 0.23601 0.0
C2598 C 0.40002 0.98199 0.29538 0.0
C2599 C 0.40277 0.96271 0.29068 0.0
C2600 C 0.40051 0.99603 0.28123 0.0
C2601 C 0.40406 0.99113 0.26208 0.0
C2602 C 0.4073 0.97181 0.25756 0.0
C2603 C 0.40644 0.95775 0.27167 0.0
H2604 H 0.59483 0.55716 0.25941 0.0
H2605 H 0.59965 0.51461 0.30365 0.0
H2606 H 0.59609 0.53197 0.23514 0.0
H2607 H 0.60084 0.48952 0.27954 0.0
H2608 H 0.62523 0.45421 0.22952 0.0
H2609 H 0.62381 0.47935 0.25335 0.0
H2610 H 0.57493 0.50377 0.22499 0.0
H2611 H 0.57583 0.47831 0.20138 0.0
C2612 C 0.59617 0.54244 0.26389 0.0
C2613 C 0.59698 0.5378 0.28336 0.0
C2614 C 0.59677 0.52805 0.25007 0.0
C2615 C 0.59853 0.50882 0.2555 0.0
C2616 C 0.59956 0.50423 0.27496 0.0
C2617 C 0.59869 0.51856 0.28875 0.0
C2618 C 0.61396 0.46469 0.22841 0.0
C2619 C 0.60061 0.46406 0.21341 0.0
C2620 C 0.61324 0.47918 0.24207 0.0
C2621 C 0.59931 0.49352 0.24095 0.0
C2622 C 0.58599 0.49301 0.22602 0.0
C2623 C 0.58655 0.47839 0.21248 0.0
H2624 H 0.30503 0.41646 0.98305 0.0
H2625 H 0.26129 0.39491 0.94537 0.0
H2626 H 0.28256 0.41585 0.00955 0.0
H2627 H 0.23896 0.39373 0.97203 0.0
H2628 H 0.19896 0.41494 0.019 0.0
H2629 H 0.22158 0.41569 0.99273 0.0
H2630 H 0.26533 0.39296 0.02971 0.0
H2631 H 0.24276 0.39278 0.05627 0.0
C2632 C 0.2906 0.41169 0.98038 0.0
C2633 C 0.28494 0.40584 0.96203 0.0
C2634 C 0.27779 0.4111 0.99564 0.0
C2635 C 0.25897 0.40472 0.99292 0.0
C2636 C 0.2533 0.39889 0.97457 0.0
C2637 C 0.26614 0.39941 0.95932 0.0
C2638 C 0.21345 0.41031 0.02164 0.0
C2639 C 0.21906 0.40392 0.03982 0.0
C2640 C 0.22636 0.41051 0.00648 0.0
C2641 C 0.24526 0.40436 0.0091 0.0
C2642 C 0.25092 0.39796 0.02726 0.0
C2643 C 0.23795 0.39769 0.04244 0.0
H2644 H 0.20259 0.57149 0.47943 0.0
H2645 H 0.23497 0.61485 0.44977 0.0
H2646 H 0.22668 0.57066 0.50439 0.0
H2647 H 0.25928 0.61348 0.47453 0.0
H2648 H 0.30714 0.59046 0.51399 0.0
H2649 H 0.28357 0.59019 0.48827 0.0
H2650 H 0.23826 0.59388 0.52981 0.0
H2651 H 0.26186 0.59405 0.55554 0.0
C2652 C 0.21476 0.58088 0.47816 0.0
C2653 C 0.21659 0.59338 0.46254 0.0
C2654 C 0.2286 0.58034 0.49249 0.0
C2655 C 0.24478 0.59209 0.49146 0.0
C2656 C 0.247 0.60417 0.47562 0.0
C2657 C 0.23304 0.60488 0.46137 0.0
C2658 C 0.29214 0.59102 0.51762 0.0
C2659 C 0.28631 0.59218 0.53678 0.0
C2660 C 0.27868 0.59105 0.5029 0.0
C2661 C 0.2591 0.59198 0.50705 0.0
C2662 C 0.25326 0.59298 0.52621 0.0
C2663 C 0.26674 0.59322 0.54092 0.0
H2664 H 0.80482 0.89191 0.48418 0.0
H2665 H 0.76389 0.91214 0.44307 0.0
H2666 H 0.78059 0.89274 0.50903 0.0
H2667 H 0.73971 0.91434 0.46804 0.0
H2668 H 0.6952 0.89937 0.51244 0.0
H2669 H 0.71929 0.89782 0.48747 0.0
H2670 H 0.76288 0.9114 0.5291 0.0
H2671 H 0.73867 0.91158 0.55411 0.0
C2672 C 0.79063 0.89687 0.48061 0.0
C2673 C 0.78616 0.90205 0.46181 0.0
C2674 C 0.77671 0.89748 0.49486 0.0
C2675 C 0.75805 0.90374 0.49075 0.0
C2676 C 0.75372 0.90908 0.47182 0.0
C2677 C 0.76757 0.90799 0.45748 0.0
C2678 C 0.70996 0.90207 0.51612 0.0
C2679 C 0.71516 0.90565 0.53511 0.0
C2680 C 0.72382 0.9013 0.50181 0.0
C2681 C 0.7432 0.90454 0.50607 0.0
C2682 C 0.74826 0.90839 0.52517 0.0
C2683 C 0.73441 0.90867 0.53954 0.0
H2684 H 0.98556 0.80518 0.5926 0.0
H2685 H 0.94348 0.76022 0.5935 0.0
H2686 H 0.01103 0.78142 0.59239 0.0
H2687 H 0.96902 0.73637 0.59346 0.0
H2688 H 0.02046 0.70082 0.57257 0.0
H2689 H 0.99531 0.72473 0.5714 0.0
H2690 H 0.0237 0.7569 0.61554 0.0
H2691 H 0.0486 0.73286 0.61722 0.0
C2692 C 0.98175 0.79021 0.59256 0.0
C2693 C 0.96251 0.78455 0.59298 0.0
C2694 C 0.99634 0.77662 0.59263 0.0
C2695 C 0.99201 0.75706 0.59292 0.0
C2696 C 0.97277 0.75136 0.59308 0.0
C2697 C 0.95817 0.76498 0.59325 0.0
C2698 C 0.02136 0.71286 0.58217 0.0
C2699 C 0.03668 0.7147 0.59506 0.0
C2700 C 0.00691 0.7266 0.58145 0.0
C2701 C 0.00752 0.74265 0.5934 0.0
C2702 C 0.02296 0.74476 0.606 0.0
C2703 C 0.03731 0.73093 0.6069 0.0
H2704 H 0.98748 0.19581 0.8966 0.0
H2705 H 0.94528 0.237 0.91382 0.0
H2706 H 0.01218 0.22018 0.89808 0.0
H2707 H 0.97006 0.26136 0.91666 0.0
H2708 H 0.01549 0.30546 0.9026 0.0
H2709 H 0.99044 0.28145 0.90065 0.0
H2710 H 0.03105 0.23817 0.91784 0.0
H2711 H 0.05619 0.26225 0.91845 0.0
C2712 C 0.98363 0.21011 0.90099 0.0
C2713 C 0.96459 0.2146 0.90519 0.0
C2714 C 0.99778 0.2241 0.902 0.0
C2715 C 0.99331 0.24286 0.90769 0.0
C2716 C 0.97412 0.24725 0.91191 0.0
C2717 C 0.9599 0.23331 0.91043 0.0
C2718 C 0.01891 0.2908 0.90607 0.0
C2719 C 0.03767 0.28563 0.91074 0.0
C2720 C 0.00456 0.27699 0.90505 0.0
C2721 C 0.00856 0.2577 0.90908 0.0
C2722 C 0.02738 0.25271 0.91418 0.0
C2723 C 0.0418 0.26649 0.91474 0.0
H2724 H 0.58796 0.05695 0.73675 0.0
H2725 H 0.60633 0.01606 0.69477 0.0
H2726 H 0.58741 0.03197 0.76103 0.0
H2727 H 0.60719 0.99119 0.71904 0.0
H2728 H 0.59123 0.9461 0.76225 0.0
H2729 H 0.5897 0.97098 0.73792 0.0
H2730 H 0.60575 0.01297 0.78032 0.0
H2731 H 0.6059 0.98813 0.8046 0.0
C2732 C 0.59204 0.04257 0.73286 0.0
C2733 C 0.59699 0.03827 0.714 0.0
C2734 C 0.59191 0.02824 0.74674 0.0
C2735 C 0.59727 0.0094 0.74213 0.0
C2736 C 0.60249 0.00531 0.72316 0.0
C2737 C 0.60213 0.01955 0.70922 0.0
C2738 C 0.59431 0.96071 0.76622 0.0
C2739 C 0.59851 0.96532 0.7852 0.0
C2740 C 0.59361 0.975 0.75231 0.0
C2741 C 0.59761 0.99415 0.75702 0.0
C2742 C 0.60209 0.99857 0.77611 0.0
C2743 C 0.60231 0.98435 0.79005 0.0
H2744 H 0.42492 0.52284 0.79935 0.0
H2745 H 0.37589 0.54834 0.77176 0.0
H2746 H 0.42446 0.4971 0.77608 0.0
H2747 H 0.37598 0.52291 0.7483 0.0
H2748 H 0.3987 0.48717 0.69765 0.0
H2749 H 0.39832 0.51216 0.72187 0.0
H2750 H 0.40236 0.46942 0.76605 0.0
H2751 H 0.40278 0.44429 0.74163 0.0
C2752 C 0.41399 0.52303 0.78849 0.0
C2753 C 0.40047 0.5379 0.78761 0.0
C2754 C 0.41376 0.50822 0.77513 0.0
C2755 C 0.40019 0.50803 0.76041 0.0
C2756 C 0.38673 0.52281 0.75941 0.0
C2757 C 0.38678 0.53749 0.77289 0.0
C2758 C 0.39964 0.48312 0.71252 0.0
C2759 C 0.40094 0.46381 0.71779 0.0
C2760 C 0.39924 0.4974 0.72638 0.0
C2761 C 0.40033 0.49271 0.74582 0.0
C2762 C 0.40163 0.47341 0.75114 0.0
C2763 C 0.40175 0.45907 0.73724 0.0
H2764 H 0.80192 0.58186 0.98303 0.0
H2765 H 0.75922 0.6043 0.94467 0.0
H2766 H 0.77875 0.58173 0.00885 0.0
H2767 H 0.73614 0.60478 0.97075 0.0
H2768 H 0.69508 0.58245 0.01668 0.0
H2769 H 0.71816 0.58234 0.9907 0.0
H2770 H 0.76128 0.60419 0.02893 0.0
H2771 H 0.73835 0.6037 0.05508 0.0
C2772 C 0.78757 0.58669 0.98006 0.0
C2773 C 0.78241 0.59298 0.96172 0.0
C2774 C 0.77434 0.58685 0.99495 0.0
C2775 C 0.75561 0.59327 0.99187 0.0
C2776 C 0.75042 0.59958 0.97354 0.0
C2777 C 0.76369 0.59948 0.95864 0.0
C2778 C 0.70953 0.58701 0.01962 0.0
C2779 C 0.71488 0.593 0.03801 0.0
C2780 C 0.7227 0.58719 0.00466 0.0
C2781 C 0.74155 0.59328 0.00774 0.0
C2782 C 0.74692 0.59924 0.02613 0.0
C2783 C 0.73373 0.59913 0.04108 0.0
H2784 H 0.69678 0.41548 0.48486 0.0
H2785 H 0.73894 0.39361 0.44561 0.0
H2786 H 0.72004 0.41427 0.51059 0.0
H2787 H 0.76206 0.39174 0.47156 0.0
H2788 H 0.80385 0.41195 0.51755 0.0
H2789 H 0.78056 0.41297 0.49186 0.0
H2790 H 0.73736 0.39135 0.53011 0.0
H2791 H 0.76053 0.39103 0.55608 0.0
C2792 C 0.71103 0.41048 0.48168 0.0
C2793 C 0.71601 0.40476 0.46311 0.0
C2794 C 0.7243 0.40954 0.49652 0.0
C2795 C 0.74291 0.40289 0.49315 0.0
C2796 C 0.7479 0.39712 0.47459 0.0
C2797 C 0.7346 0.39801 0.45975 0.0
C2798 C 0.78935 0.40763 0.52059 0.0
C2799 C 0.78406 0.40153 0.53896 0.0
C2800 C 0.77605 0.40797 0.50576 0.0
C2801 C 0.7571 0.40222 0.50891 0.0
C2802 C 0.7518 0.39606 0.52725 0.0
C2803 C 0.76513 0.39569 0.5421 0.0
H2804 H 0.2602 0.10174 0.44431 0.0
H2805 H 0.30512 0.08542 0.48325 0.0
H2806 H 0.23715 0.1001 0.47029 0.0
H2807 H 0.28199 0.08302 0.50898 0.0
H2808 H 0.23949 0.10261 0.55448 0.0
H2809 H 0.26242 0.1039 0.52842 0.0
H2810 H 0.22142 0.07709 0.491 0.0
H2811 H 0.19823 0.0765 0.51684 0.0
C2812 C 0.26516 0.09776 0.45837 0.0
C2813 C 0.28454 0.09373 0.46165 0.0
C2814 C 0.25191 0.09661 0.47323 0.0
C2815 C 0.25773 0.09143 0.49172 0.0
C2816 C 0.27707 0.08726 0.49496 0.0
C2817 C 0.2903 0.08839 0.48012 0.0
C2818 C 0.23531 0.09711 0.54068 0.0
C2819 C 0.21699 0.08948 0.53778 0.0
C2820 C 0.24853 0.09765 0.52578 0.0
C2821 C 0.24375 0.09059 0.50762 0.0
C2822 C 0.22548 0.08284 0.50476 0.0
C2823 C 0.21227 0.08227 0.51966 0.0
H2824 H 0.44435 0.76481 0.91132 0.0
H2825 H 0.48643 0.8071 0.89658 0.0
H2826 H 0.46911 0.74032 0.91218 0.0
H2827 H 0.51112 0.78268 0.89615 0.0
H2828 H 0.55512 0.73829 0.91201 0.0
H2829 H 0.53039 0.76277 0.91367 0.0
H2830 H 0.48878 0.72162 0.89387 0.0
H2831 H 0.5134 0.69715 0.8935 0.0
C2832 C 0.45894 0.76875 0.90812 0.0
C2833 C 0.46357 0.78778 0.90405 0.0
C2834 C 0.47316 0.75474 0.90844 0.0
C2835 C 0.49228 0.75937 0.9042 0.0
C2836 C 0.49675 0.77851 0.89996 0.0
C2837 C 0.4826 0.79255 0.90009 0.0
C2838 C 0.54062 0.73461 0.90815 0.0
C2839 C 0.53607 0.71589 0.90281 0.0
C2840 C 0.52642 0.74862 0.90893 0.0
C2841 C 0.50741 0.74432 0.9039 0.0
C2842 C 0.50304 0.72551 0.89834 0.0
C2843 C 0.51716 0.71144 0.898 0.0
H2844 H 0.48476 0.19156 0.58809 0.0
H2845 H 0.4448 0.23654 0.60142 0.0
H2846 H 0.51051 0.21483 0.58663 0.0
H2847 H 0.47071 0.25976 0.60059 0.0
H2848 H 0.51787 0.29813 0.57681 0.0
H2849 H 0.49221 0.27473 0.57755 0.0
H2850 H 0.52881 0.23556 0.60796 0.0
H2851 H 0.55472 0.25876 0.60665 0.0
C2852 C 0.48143 0.20642 0.59062 0.0
C2853 C 0.46267 0.21218 0.59479 0.0
C2854 C 0.49625 0.21973 0.59002 0.0
C2855 C 0.49267 0.23914 0.59352 0.0
C2856 C 0.47391 0.24493 0.59764 0.0
C2857 C 0.45909 0.2316 0.5983 0.0
C2858 C 0.52054 0.28446 0.58346 0.0
C2859 C 0.5384 0.28032 0.59162 0.0
C2860 C 0.50574 0.27112 0.58409 0.0
C2861 C 0.50845 0.2533 0.59285 0.0
C2862 C 0.52632 0.2491 0.60095 0.0
C2863 C 0.54111 0.26247 0.60037 0.0
H2864 H 0.89126 0.48521 0.80371 0.0
H2865 H 0.9101 0.44336 0.76289 0.0
H2866 H 0.89148 0.50969 0.77907 0.0
H2867 H 0.91166 0.46796 0.73824 0.0
H2868 H 0.89569 0.51215 0.6937 0.0
H2869 H 0.89455 0.48739 0.71806 0.0
H2870 H 0.91041 0.52914 0.76075 0.0
H2871 H 0.91024 0.55394 0.73633 0.0
C2872 C 0.89575 0.48141 0.78943 0.0
C2873 C 0.90078 0.46253 0.78512 0.0
C2874 C 0.89602 0.49543 0.77528 0.0
C2875 C 0.90177 0.49099 0.75654 0.0
C2876 C 0.90683 0.47197 0.75234 0.0
C2877 C 0.9061 0.45786 0.76643 0.0
C2878 C 0.899 0.51589 0.70831 0.0
C2879 C 0.90312 0.53486 0.71322 0.0
C2880 C 0.89845 0.50171 0.72232 0.0
C2881 C 0.90242 0.50611 0.74153 0.0
C2882 C 0.90684 0.52516 0.74627 0.0
C2883 C 0.90693 0.53939 0.7323 0.0
H2884 H 0.10879 0.01185 0.80708 0.0
H2885 H 0.08188 0.05118 0.76824 0.0
H2886 H 0.10864 0.98725 0.78257 0.0
H2887 H 0.08064 0.02636 0.74384 0.0
H2888 H 0.09964 0.98521 0.69774 0.0
H2889 H 0.09935 0.00954 0.72249 0.0
H2890 H 0.09061 0.96573 0.76512 0.0
H2891 H 0.092 0.94141 0.74019 0.0
C2892 C 0.10247 0.01505 0.79335 0.0
C2893 C 0.09528 0.03334 0.7895 0.0
C2894 C 0.1023 0.00094 0.77927 0.0
C2895 C 0.09461 0.00468 0.7611 0.0
C2896 C 0.08706 0.02297 0.75746 0.0
C2897 C 0.08761 0.03719 0.77145 0.0
C2898 C 0.09756 0.98088 0.71242 0.0
C2899 C 0.09575 0.9615 0.71711 0.0
C2900 C 0.09729 0.99481 0.72664 0.0
C2901 C 0.09482 0.98974 0.74592 0.0
C2902 C 0.09287 0.97025 0.75053 0.0
C2903 C 0.09354 0.95628 0.73629 0.0
H2904 H 0.80549 0.10175 0.01541 0.0
H2905 H 0.76217 0.09017 0.05741 0.0
H2906 H 0.78134 0.10243 0.99041 0.0
H2907 H 0.73793 0.08961 0.03242 0.0
H2908 H 0.69605 0.10873 0.98741 0.0
H2909 H 0.72047 0.10851 0.01204 0.0
H2910 H 0.76071 0.08487 0.9716 0.0
H2911 H 0.73628 0.0863 0.94674 0.0
C2912 C 0.79076 0.099 0.01916 0.0
C2913 C 0.78561 0.09585 0.03824 0.0
C2914 C 0.77688 0.09929 0.00485 0.0
C2915 C 0.75755 0.09604 0.00925 0.0
C2916 C 0.75254 0.0926 0.02843 0.0
C2917 C 0.76639 0.09276 0.04278 0.0
C2918 C 0.71013 0.10343 0.98389 0.0
C2919 C 0.71432 0.09741 0.96528 0.0
C2920 C 0.72415 0.10318 0.99802 0.0
C2921 C 0.74266 0.0965 0.994 0.0
C2922 C 0.74678 0.09041 0.97526 0.0
C2923 C 0.7328 0.09108 0.96101 0.0
H2924 H 0.55739 0.23974 0.09123 0.0
H2925 H 0.51391 0.19799 0.10317 0.0
H2926 H 0.533 0.26449 0.08841 0.0
H2927 H 0.48953 0.22264 0.10169 0.0
H2928 H 0.44698 0.26634 0.08229 0.0
H2929 H 0.47201 0.24213 0.08214 0.0
H2930 H 0.51186 0.28365 0.10463 0.0
H2931 H 0.48698 0.30791 0.10341 0.0
C2932 C 0.54257 0.23599 0.09346 0.0
C2933 C 0.53743 0.21704 0.09724 0.0
C2934 C 0.52855 0.25014 0.09197 0.0
C2935 C 0.50912 0.24569 0.09473 0.0
C2936 C 0.50418 0.22665 0.0989 0.0
C2937 C 0.51814 0.21249 0.09991 0.0
C2938 C 0.46121 0.27018 0.08695 0.0
C2939 C 0.46519 0.2889 0.09269 0.0
C2940 C 0.47554 0.25632 0.0871 0.0
C2941 C 0.49409 0.26076 0.09353 0.0
C2942 C 0.49797 0.27966 0.0992 0.0
C2943 C 0.48372 0.29359 0.0986 0.0
H2944 H 0.5522 0.76837 0.41226 0.0
H2945 H 0.51109 0.80875 0.39094 0.0
H2946 H 0.52753 0.74385 0.41374 0.0
H2947 H 0.48654 0.78415 0.39109 0.0
H2948 H 0.44184 0.74078 0.40822 0.0
H2949 H 0.46622 0.76567 0.40899 0.0
H2950 H 0.50931 0.72339 0.39588 0.0
H2951 H 0.48497 0.69863 0.39646 0.0
C2952 C 0.53784 0.77186 0.40775 0.0
C2953 C 0.53343 0.79038 0.40165 0.0
C2954 C 0.52369 0.75782 0.40842 0.0
C2955 C 0.50489 0.76185 0.40247 0.0
C2956 C 0.50064 0.78048 0.39622 0.0
C2957 C 0.5147 0.79461 0.39602 0.0
C2958 C 0.45658 0.73696 0.40561 0.0
C2959 C 0.46163 0.71788 0.40247 0.0
C2960 C 0.47058 0.75119 0.40589 0.0
C2961 C 0.48991 0.74668 0.40253 0.0
C2962 C 0.49476 0.72748 0.39906 0.0
C2963 C 0.48082 0.71325 0.39925 0.0
H2964 H 0.10119 0.55614 0.23683 0.0
H2965 H 0.08378 0.51702 0.19253 0.0
H2966 H 0.10115 0.53004 0.25986 0.0
H2967 H 0.08319 0.49105 0.21564 0.0
H2968 H 0.10471 0.44592 0.2581 0.0
H2969 H 0.10549 0.472 0.23499 0.0
H2970 H 0.07822 0.50908 0.27596 0.0
H2971 H 0.07797 0.48326 0.29917 0.0
C2972 C 0.09734 0.54199 0.23201 0.0
C2973 C 0.09244 0.5387 0.21285 0.0
C2974 C 0.09715 0.52706 0.24523 0.0
C2975 C 0.09215 0.50847 0.23958 0.0
C2976 C 0.08727 0.50517 0.22041 0.0
C2977 C 0.08738 0.52011 0.20722 0.0
C2978 C 0.09901 0.45967 0.2622 0.0
C2979 C 0.09124 0.46246 0.28047 0.0
C2980 C 0.09929 0.47456 0.24891 0.0
C2981 C 0.09189 0.49261 0.25364 0.0
C2982 C 0.08419 0.4954 0.27192 0.0
C2983 C 0.08383 0.48051 0.28516 0.0
H2984 H 0.89602 0.94672 0.23971 0.0
H2985 H 0.91934 0.98544 0.19785 0.0
H2986 H 0.89504 0.97262 0.26302 0.0
H2987 H 0.9189 0.0111 0.22122 0.0
H2988 H 0.89614 0.05699 0.2616 0.0
H2989 H 0.89593 0.03099 0.23847 0.0
H2990 H 0.91735 0.99248 0.28155 0.0
H2991 H 0.91701 0.01833 0.3048 0.0
C2992 C 0.90092 0.96073 0.23548 0.0
C2993 C 0.90783 0.96397 0.21694 0.0
C2994 C 0.90053 0.97553 0.24888 0.0
C2995 C 0.90692 0.99392 0.24398 0.0
C2996 C 0.91372 0.99715 0.22541 0.0
C2997 C 0.91419 0.98236 0.21207 0.0
C2998 C 0.90068 0.04296 0.26617 0.0
C2999 C 0.90665 0.03978 0.28505 0.0
C3000 C 0.90072 0.02809 0.25287 0.0
C3001 C 0.90665 0.00967 0.25817 0.0
C3002 C 0.91254 0.00646 0.27706 0.0
C3003 C 0.91258 0.02135 0.29033 0.0
H3004 H 0.23979 0.91246 0.94233 0.0
H3005 H 0.19641 0.90067 0.9842 0.0
H3006 H 0.26398 0.91306 0.9674 0.0
H3007 H 0.22049 0.89999 0.00926 0.0
H3008 H 0.26497 0.91709 0.05303 0.0
H3009 H 0.24071 0.91796 0.02801 0.0
H3010 H 0.28156 0.89453 0.98805 0.0
H3011 H 0.30583 0.89493 0.01287 0.0
C3012 C 0.23556 0.90982 0.95695 0.0
C3013 C 0.21635 0.90671 0.96145 0.0
C3014 C 0.24937 0.91 0.97134 0.0
C3015 C 0.2443 0.90656 0.9905 0.0
C3016 C 0.22498 0.90317 0.99484 0.0
C3017 C 0.21115 0.90344 0.98049 0.0
C3018 C 0.26861 0.91222 0.03883 0.0
C3019 C 0.2872 0.90615 0.03474 0.0
C3020 C 0.25474 0.91256 0.02449 0.0
C3021 C 0.25908 0.90637 0.00584 0.0
C3022 C 0.27771 0.89991 0.00199 0.0
C3023 C 0.29163 0.90001 0.01622 0.0
H3024 H 0.11972 0.19288 0.43682 0.0
H3025 H 0.13552 0.13416 0.42689 0.0
H3026 H 0.13146 0.19042 0.46967 0.0
H3027 H 0.14772 0.13187 0.45926 0.0
H3028 H 0.13912 0.1247 0.5223 0.0
H3029 H 0.13124 0.13031 0.48925 0.0
H3030 H 0.1589 0.18535 0.49171 0.0
H3031 H 0.16616 0.18003 0.52557 0.0
C3032 C 0.12609 0.1796 0.44153 0.0
C3033 C 0.12641 0.1636 0.42945 0.0
C3034 C 0.13285 0.17821 0.4603 0.0
C3035 C 0.14016 0.16083 0.46719 0.0
C3036 C 0.14168 0.14531 0.45458 0.0
C3037 C 0.13477 0.14663 0.43599 0.0
C3038 C 0.14324 0.1382 0.51602 0.0
C3039 C 0.15305 0.15204 0.52673 0.0
C3040 C 0.13903 0.14127 0.49688 0.0
C3041 C 0.14467 0.15817 0.48773 0.0
C3042 C 0.15435 0.17218 0.49838 0.0
C3043 C 0.15859 0.1691 0.51771 0.0
H3044 H 0.8575 0.36084 0.43612 0.0
H3045 H 0.87514 0.3018 0.43757 0.0
H3046 H 0.84405 0.35761 0.46803 0.0
H3047 H 0.86178 0.29865 0.46972 0.0
H3048 H 0.86434 0.31781 0.53549 0.0
H3049 H 0.87193 0.31396 0.50163 0.0
H3050 H 0.81821 0.34007 0.48661 0.0
H3051 H 0.81066 0.344 0.52037 0.0
C3052 C 0.85828 0.34711 0.44317 0.0
C3053 C 0.86743 0.3316 0.43441 0.0
C3054 C 0.85047 0.34522 0.46139 0.0
C3055 C 0.85188 0.32787 0.47133 0.0
C3056 C 0.86055 0.31218 0.46237 0.0
C3057 C 0.8681 0.31398 0.44397 0.0
C3058 C 0.85398 0.32227 0.52493 0.0
C3059 C 0.83695 0.33122 0.53056 0.0
C3060 C 0.85827 0.32 0.50558 0.0
C3061 C 0.84571 0.32687 0.49153 0.0
C3062 C 0.82818 0.33477 0.49716 0.0
C3063 C 0.8238 0.33684 0.51648 0.0
H3064 H 0.13518 0.82264 0.96437 0.0
H3065 H 0.18705 0.85085 0.98199 0.0
H3066 H 0.12658 0.81765 0.99784 0.0
H3067 H 0.17851 0.84577 0.01536 0.0
H3068 H 0.13716 0.86312 0.06521 0.0
H3069 H 0.15125 0.86158 0.03347 0.0
H3070 H 0.13653 0.80188 0.02966 0.0
H3071 H 0.12251 0.80335 0.06168 0.0
C3072 C 0.14494 0.82733 0.9754 0.0
C3073 C 0.16175 0.83714 0.9706 0.0
C3074 C 0.14008 0.82441 0.99452 0.0
C3075 C 0.15183 0.83147 0.00915 0.0
C3076 C 0.16916 0.8403 0.00434 0.0
C3077 C 0.17412 0.84303 0.98525 0.0
C3078 C 0.13711 0.84961 0.0577 0.0
C3079 C 0.12865 0.83339 0.06584 0.0
C3080 C 0.14531 0.84869 0.0396 0.0
C3081 C 0.145 0.83159 0.02914 0.0
C3082 C 0.13691 0.81523 0.03743 0.0
C3083 C 0.12897 0.81607 0.05573 0.0
H3084 H 0.86828 0.67487 0.96169 0.0
H3085 H 0.81327 0.65368 0.97961 0.0
H3086 H 0.87661 0.68127 0.99502 0.0
H3087 H 0.82159 0.66012 0.0128 0.0
H3088 H 0.86059 0.64114 0.06426 0.0
H3089 H 0.84713 0.64238 0.03223 0.0
H3090 H 0.86725 0.70025 0.02584 0.0
H3091 H 0.88056 0.69912 0.05824 0.0
C3092 C 0.85783 0.67202 0.97271 0.0
C3093 C 0.84017 0.66374 0.96806 0.0
C3094 C 0.86254 0.67578 0.99174 0.0
C3095 C 0.84977 0.67106 0.00645 0.0
C3096 C 0.83171 0.6638 0.00171 0.0
C3097 C 0.82691 0.66027 0.9827 0.0
C3098 C 0.86191 0.65422 0.05614 0.0
C3099 C 0.87167 0.67 0.06368 0.0
C3100 C 0.8541 0.65498 0.03786 0.0
C3101 C 0.85614 0.67142 0.02659 0.0
C3102 C 0.86551 0.68741 0.03426 0.0
C3103 C 0.87303 0.68678 0.05277 0.0
H3104 H 0.43194 0.13946 0.19171 0.0
H3105 H 0.45716 0.09444 0.15802 0.0
H3106 H 0.46356 0.15422 0.19547 0.0
H3107 H 0.48848 0.1089 0.16202 0.0
H3108 H 0.54411 0.12906 0.18289 0.0
H3109 H 0.51229 0.11639 0.18921 0.0
H3110 H 0.48732 0.16941 0.17034 0.0
H3111 H 0.51911 0.18201 0.16364 0.0
C3112 C 0.44426 0.13262 0.18534 0.0
C3113 C 0.44216 0.11586 0.17451 0.0
C3114 C 0.46226 0.14106 0.18747 0.0
C3115 C 0.47843 0.13257 0.1792 0.0
C3116 C 0.4763 0.11558 0.1688 0.0
C3117 C 0.45835 0.10741 0.16636 0.0
C3118 C 0.53185 0.13818 0.18052 0.0
C3119 C 0.5341 0.1564 0.17245 0.0
C3120 C 0.51367 0.13093 0.18415 0.0
C3121 C 0.4974 0.14183 0.17996 0.0
C3122 C 0.49966 0.16074 0.17375 0.0
C3123 C 0.51788 0.16797 0.16997 0.0
H3124 H 0.48054 0.32887 0.18135 0.0
H3125 H 0.475 0.36722 0.13337 0.0
H3126 H 0.51439 0.33744 0.18405 0.0
H3127 H 0.50815 0.3762 0.13655 0.0
H3128 H 0.57112 0.3725 0.13092 0.0
H3129 H 0.53854 0.36068 0.1305 0.0
H3130 H 0.53597 0.36499 0.19191 0.0
H3131 H 0.56896 0.37653 0.1924 0.0
C3132 C 0.48645 0.33924 0.17155 0.0
C3133 C 0.47499 0.34747 0.15727 0.0
C3134 C 0.50578 0.34421 0.17315 0.0
C3135 C 0.51397 0.35734 0.16037 0.0
C3136 C 0.50237 0.36579 0.14641 0.0
C3137 C 0.48321 0.36088 0.14482 0.0
C3138 C 0.56371 0.37079 0.14437 0.0
C3139 C 0.57252 0.3757 0.16167 0.0
C3140 C 0.54499 0.36409 0.14412 0.0
C3141 C 0.53457 0.36225 0.16115 0.0
C3142 C 0.54366 0.36625 0.17857 0.0
C3143 C 0.5625 0.37291 0.17883 0.0
H3144 H 0.52136 0.83066 0.31359 0.0
H3145 H 0.52587 0.86766 0.36273 0.0
H3146 H 0.48708 0.83781 0.31163 0.0
H3147 H 0.49231 0.87516 0.36034 0.0
H3148 H 0.43002 0.86814 0.36731 0.0
H3149 H 0.46291 0.85726 0.36637 0.0
H3150 H 0.46403 0.86524 0.3053 0.0
H3151 H 0.43072 0.87588 0.30616 0.0
C3152 C 0.51513 0.84046 0.32379 0.0
C3153 C 0.52643 0.84873 0.33818 0.0
C3154 C 0.49557 0.84459 0.32262 0.0
C3155 C 0.48698 0.85686 0.33598 0.0
C3156 C 0.49841 0.8654 0.35003 0.0
C3157 C 0.5178 0.86134 0.35117 0.0
C3158 C 0.43716 0.86739 0.35363 0.0
C3159 C 0.42787 0.87315 0.33685 0.0
C3160 C 0.45605 0.86122 0.3531 0.0
C3161 C 0.46617 0.86077 0.33581 0.0
C3162 C 0.45658 0.86545 0.31883 0.0
C3163 C 0.43755 0.87158 0.31934 0.0
H3164 H 0.57012 0.64375 0.30907 0.0
H3165 H 0.54901 0.60352 0.35071 0.0
H3166 H 0.53773 0.65696 0.30561 0.0
H3167 H 0.51691 0.61628 0.34685 0.0
H3168 H 0.45973 0.62942 0.3216 0.0
H3169 H 0.49242 0.61852 0.31653 0.0
H3170 H 0.51363 0.67391 0.33289 0.0
H3171 H 0.48102 0.68472 0.33874 0.0
C3172 C 0.55856 0.63768 0.31733 0.0
C3173 C 0.56202 0.62268 0.33021 0.0
C3174 C 0.54013 0.64521 0.31535 0.0
C3175 C 0.52491 0.63744 0.3258 0.0
C3176 C 0.5284 0.62233 0.33845 0.0
C3177 C 0.54678 0.61515 0.34077 0.0
C3178 C 0.47132 0.63941 0.32379 0.0
C3179 C 0.46776 0.65782 0.33093 0.0
C3180 C 0.48999 0.63318 0.3208 0.0
C3181 C 0.50543 0.64536 0.32452 0.0
C3182 C 0.50189 0.66432 0.32983 0.0
C3183 C 0.48319 0.6705 0.3331 0.0
H3184 H 0.18434 0.52556 0.16923 0.0
H3185 H 0.13063 0.52334 0.13901 0.0
H3186 H 0.18904 0.49138 0.16297 0.0
H3187 H 0.13562 0.48992 0.13225 0.0
H3188 H 0.1371 0.42766 0.13861 0.0
H3189 H 0.13541 0.46033 0.15012 0.0
H3190 H 0.19476 0.46865 0.13575 0.0
H3191 H 0.19659 0.43555 0.12463 0.0
C3192 C 0.17365 0.51785 0.16117 0.0
C3193 C 0.15723 0.52724 0.15444 0.0
C3194 C 0.17638 0.49835 0.15752 0.0
C3195 C 0.1626 0.48791 0.1473 0.0
C3196 C 0.14635 0.49742 0.14046 0.0
C3197 C 0.14366 0.51674 0.14406 0.0
C3198 C 0.14987 0.43636 0.13815 0.0
C3199 C 0.16689 0.42917 0.13045 0.0
C3200 C 0.14889 0.4551 0.14468 0.0
C3201 C 0.16483 0.4672 0.14343 0.0
C3202 C 0.18224 0.45967 0.13689 0.0
C3203 C 0.18327 0.44075 0.13049 0.0
H3204 H 0.17007 0.45987 0.373 0.0
H3205 H 0.15972 0.48237 0.31656 0.0
H3206 H 0.17754 0.49193 0.38436 0.0
H3207 H 0.16761 0.51441 0.32794 0.0
H3208 H 0.19157 0.56959 0.35832 0.0
H3209 H 0.19357 0.53694 0.34541 0.0
H3210 H 0.15138 0.5184 0.38624 0.0
H3211 H 0.1491 0.55065 0.39875 0.0
C3212 C 0.16985 0.47159 0.36292 0.0
C3213 C 0.16395 0.46864 0.34398 0.0
C3214 C 0.17418 0.48989 0.36941 0.0
C3215 C 0.17289 0.50561 0.35706 0.0
C3216 C 0.16879 0.50249 0.33771 0.0
C3217 C 0.16431 0.48414 0.33121 0.0
C3218 C 0.18284 0.55845 0.36453 0.0
C3219 C 0.17012 0.56262 0.37946 0.0
C3220 C 0.18398 0.53986 0.35716 0.0
C3221 C 0.17278 0.52518 0.365 0.0
C3222 C 0.16037 0.52939 0.38013 0.0
C3223 C 0.15895 0.5479 0.38717 0.0
H3224 H 0.86417 0.92918 0.36433 0.0
H3225 H 0.80475 0.93678 0.37867 0.0
H3226 H 0.86571 0.96187 0.35294 0.0
H3227 H 0.80642 0.96999 0.36772 0.0
H3228 H 0.81633 0.02666 0.33356 0.0
H3229 H 0.81167 0.99264 0.34057 0.0
H3230 H 0.86574 0.99159 0.37014 0.0
H3231 H 0.87076 0.02479 0.36252 0.0
C3232 C 0.85139 0.93785 0.36496 0.0
C3233 C 0.83443 0.93055 0.37267 0.0
C3234 C 0.85228 0.95662 0.3585 0.0
C3235 C 0.83631 0.96867 0.35984 0.0
C3236 C 0.81897 0.96106 0.36651 0.0
C3237 C 0.81802 0.94209 0.37282 0.0
C3238 C 0.82719 0.01909 0.34152 0.0
C3239 C 0.84382 0.02855 0.34762 0.0
C3240 C 0.82447 0.99967 0.34563 0.0
C3241 C 0.83843 0.98937 0.35573 0.0
C3242 C 0.85485 0.99896 0.36202 0.0
C3243 C 0.85756 0.01819 0.35794 0.0
H3244 H 0.31862 0.46294 0.63485 0.0
H3245 H 0.34436 0.48032 0.68808 0.0
H3246 H 0.31363 0.49644 0.6264 0.0
H3247 H 0.33916 0.51368 0.67974 0.0
H3248 H 0.35908 0.5634 0.63956 0.0
H3249 H 0.35636 0.5318 0.65372 0.0
H3250 H 0.29768 0.52838 0.63525 0.0
H3251 H 0.30036 0.56031 0.62111 0.0
C3252 C 0.32273 0.47389 0.64494 0.0
C3253 C 0.33195 0.469 0.66207 0.0
C3254 C 0.31978 0.49305 0.64017 0.0
C3255 C 0.32618 0.50763 0.65236 0.0
C3256 C 0.33422 0.5027 0.67004 0.0
C3257 C 0.33702 0.48359 0.67488 0.0
C3258 C 0.34552 0.55603 0.63872 0.0
C3259 C 0.32997 0.56423 0.62914 0.0
C3260 C 0.34391 0.538 0.64697 0.0
C3261 C 0.32679 0.52766 0.6456 0.0
C3262 C 0.31104 0.53605 0.63646 0.0
C3263 C 0.31256 0.5543 0.62846 0.0
H3264 H 0.82818 0.81164 0.47178 0.0
H3265 H 0.86461 0.86136 0.46929 0.0
H3266 H 0.83595 0.80797 0.50582 0.0
H3267 H 0.87268 0.85731 0.50254 0.0
H3268 H 0.86608 0.86154 0.56488 0.0
H3269 H 0.85434 0.86166 0.53229 0.0
H3270 H 0.86452 0.80103 0.52815 0.0
H3271 H 0.87608 0.80083 0.56123 0.0
C3272 C 0.83797 0.8216 0.47839 0.0
C3273 C 0.84591 0.83667 0.46774 0.0
C3274 C 0.84246 0.81945 0.49779 0.0
C3275 C 0.85472 0.8325 0.50685 0.0
C3276 C 0.86294 0.84721 0.49605 0.0
C3277 C 0.85854 0.84932 0.47683 0.0
C3278 C 0.86564 0.84817 0.55714 0.0
C3279 C 0.87231 0.83124 0.56548 0.0
C3280 C 0.85895 0.84825 0.53845 0.0
C3281 C 0.85891 0.83143 0.52756 0.0
C3282 C 0.86443 0.8142 0.53623 0.0
C3283 C 0.87107 0.81411 0.55511 0.0
H3284 H 0.13141 0.63485 0.47078 0.0
H3285 H 0.16861 0.684 0.47362 0.0
H3286 H 0.12271 0.63937 0.50378 0.0
H3287 H 0.16035 0.68801 0.50744 0.0
H3288 H 0.12171 0.69626 0.56306 0.0
H3289 H 0.13264 0.69562 0.52979 0.0
H3290 H 0.14006 0.63456 0.53364 0.0
H3291 H 0.12889 0.63513 0.56639 0.0
C3292 C 0.13752 0.64688 0.47832 0.0
C3293 C 0.15061 0.65918 0.46939 0.0
C3294 C 0.13276 0.64924 0.49742 0.0
C3295 C 0.1411 0.66383 0.50831 0.0
C3296 C 0.15373 0.67661 0.49938 0.0
C3297 C 0.15853 0.67424 0.48008 0.0
C3298 C 0.12593 0.68277 0.55681 0.0
C3299 C 0.12413 0.66569 0.56719 0.0
C3300 C 0.13221 0.68242 0.53781 0.0
C3301 C 0.13682 0.66499 0.52901 0.0
C3302 C 0.13612 0.64815 0.53986 0.0
C3303 C 0.12978 0.64849 0.55867 0.0
H3304 H 0.8811 0.19606 0.93841 0.0
H3305 H 0.86796 0.13587 0.93611 0.0
H3306 H 0.86741 0.19775 0.97055 0.0
H3307 H 0.85417 0.13765 0.96798 0.0
H3308 H 0.817 0.14953 0.01858 0.0
H3309 H 0.8262 0.15361 0.98527 0.0
H3310 H 0.87761 0.18257 0.00294 0.0
H3311 H 0.86836 0.17853 0.03641 0.0
C3312 C 0.87508 0.18328 0.94467 0.0
C3313 C 0.87565 0.16581 0.93482 0.0
C3314 C 0.86733 0.18425 0.96304 0.0
C3315 C 0.85969 0.16785 0.97167 0.0
C3316 C 0.85976 0.15055 0.96156 0.0
C3317 C 0.86777 0.14951 0.94338 0.0
C3318 C 0.82997 0.15729 0.01536 0.0
C3319 C 0.84197 0.16376 0.03007 0.0
C3320 C 0.83531 0.15945 0.99631 0.0
C3321 C 0.85266 0.16828 0.99158 0.0
C3322 C 0.8641 0.17581 0.00622 0.0
C3323 C 0.85887 0.17344 0.02532 0.0
H3324 H 0.14113 0.35849 0.93723 0.0
H3325 H 0.12272 0.29978 0.94074 0.0
H3326 H 0.15587 0.3558 0.96859 0.0
H3327 H 0.13735 0.29717 0.97244 0.0
H3328 H 0.13695 0.31922 0.03767 0.0
H3329 H 0.1284 0.31388 0.00425 0.0
H3330 H 0.1822 0.33814 0.98664 0.0
H3331 H 0.19072 0.34354 0.01998 0.0
C3332 C 0.14044 0.34494 0.94463 0.0
C3333 C 0.13069 0.32939 0.93663 0.0
C3334 C 0.14901 0.34335 0.96252 0.0
C3335 C 0.14776 0.32627 0.97291 0.0
C3336 C 0.13849 0.3105 0.9647 0.0
C3337 C 0.13019 0.31199 0.94659 0.0
C3338 C 0.14713 0.32293 0.02665 0.0
C3339 C 0.16444 0.33185 0.0314 0.0
C3340 C 0.1423 0.31979 0.00756 0.0
C3341 C 0.15459 0.32576 0.9929 0.0
C3342 C 0.17243 0.33352 0.99769 0.0
C3343 C 0.17736 0.33645 0.01677 0.0
H3344 H 0.47428 0.86662 0.86645 0.0
H3345 H 0.47662 0.83202 0.81546 0.0
H3346 H 0.5075 0.87489 0.86257 0.0
H3347 H 0.51062 0.83987 0.81197 0.0
H3348 H 0.56563 0.87943 0.80465 0.0
H3349 H 0.53264 0.86777 0.80539 0.0
H3350 H 0.53764 0.85812 0.86604 0.0
H3351 H 0.57015 0.87008 0.86539 0.0
C3352 C 0.48181 0.86095 0.85421 0.0
C3353 C 0.47264 0.84885 0.8411 0.0
C3354 C 0.50103 0.86544 0.85219 0.0
C3355 C 0.51178 0.85783 0.83712 0.0
C3356 C 0.50267 0.84596 0.82373 0.0
C3357 C 0.48327 0.8414 0.82578 0.0
C3358 C 0.55971 0.87456 0.81806 0.0
C3359 C 0.57034 0.87598 0.83503 0.0
C3360 C 0.54087 0.86784 0.81847 0.0
C3361 C 0.53244 0.86238 0.83584 0.0
C3362 C 0.54356 0.86268 0.85252 0.0
C3363 C 0.56223 0.86949 0.85214 0.0
H3364 H 0.52342 0.67286 0.81416 0.0
H3365 H 0.52801 0.63519 0.8628 0.0
H3366 H 0.4894 0.6648 0.81143 0.0
H3367 H 0.49475 0.62679 0.85961 0.0
H3368 H 0.43229 0.63296 0.86603 0.0
H3369 H 0.46501 0.64432 0.86553 0.0
H3370 H 0.46695 0.63677 0.80442 0.0
H3371 H 0.43376 0.62562 0.80484 0.0
C3372 C 0.51728 0.66272 0.82408 0.0
C3373 C 0.52853 0.65457 0.83859 0.0
C3374 C 0.49787 0.65806 0.82246 0.0
C3375 C 0.48938 0.64536 0.83547 0.0
C3376 C 0.50078 0.63687 0.84957 0.0
C3377 C 0.52001 0.64146 0.85117 0.0
C3378 C 0.43957 0.63388 0.85243 0.0
C3379 C 0.43055 0.62811 0.83551 0.0
C3380 C 0.45836 0.64034 0.85216 0.0
C3381 C 0.46866 0.64105 0.83499 0.0
C3382 C 0.45935 0.63634 0.81786 0.0
C3383 C 0.4404 0.62992 0.81812 0.0
H3384 H 0.56798 0.13282 0.6328 0.0
H3385 H 0.56457 0.12389 0.69368 0.0
H3386 H 0.53518 0.14402 0.63254 0.0
H3387 H 0.53134 0.13472 0.69334 0.0
H3388 H 0.47446 0.16893 0.68439 0.0
H3389 H 0.50863 0.1617 0.68726 0.0
H3390 H 0.50537 0.12712 0.63637 0.0
H3391 H 0.47197 0.13486 0.63303 0.0
C3392 C 0.56024 0.13335 0.64617 0.0
C3393 C 0.56876 0.12721 0.66321 0.0
C3394 C 0.5414 0.13969 0.64601 0.0
C3395 C 0.53052 0.13987 0.66286 0.0
C3396 C 0.53935 0.13475 0.68013 0.0
C3397 C 0.55835 0.1285 0.68031 0.0
C3398 C 0.48111 0.15978 0.67386 0.0
C3399 C 0.47038 0.15234 0.6586 0.0
C3400 C 0.50062 0.15557 0.67556 0.0
C3401 C 0.50975 0.14403 0.66191 0.0
C3402 C 0.49889 0.13635 0.64694 0.0
C3403 C 0.47957 0.14052 0.64524 0.0
H3404 H 0.42974 0.36031 0.69049 0.0
H3405 H 0.44626 0.39753 0.64421 0.0
H3406 H 0.46255 0.34782 0.69197 0.0
H3407 H 0.47875 0.38543 0.64599 0.0
H3408 H 0.53823 0.37535 0.6663 0.0
H3409 H 0.50581 0.38636 0.67259 0.0
H3410 H 0.48482 0.32888 0.66601 0.0
H3411 H 0.51719 0.31783 0.65912 0.0
C3412 C 0.44038 0.36586 0.68075 0.0
C3413 C 0.43549 0.37984 0.66721 0.0
C3414 C 0.45905 0.35873 0.68159 0.0
C3415 C 0.47313 0.36586 0.66924 0.0
C3416 C 0.4682 0.3799 0.65585 0.0
C3417 C 0.44957 0.3867 0.65473 0.0
C3418 C 0.52676 0.36499 0.66648 0.0
C3419 C 0.53024 0.34578 0.66185 0.0
C3420 C 0.50825 0.37129 0.67015 0.0
C3421 C 0.49288 0.35848 0.66953 0.0
C3422 C 0.49649 0.339 0.66663 0.0
C3423 C 0.51504 0.33269 0.66275 0.0
H3424 H 0.81516 0.46331 0.86308 0.0
H3425 H 0.84494 0.47965 0.81168 0.0
H3426 H 0.81098 0.49696 0.87129 0.0
H3427 H 0.84055 0.51321 0.81976 0.0
H3428 H 0.85946 0.56247 0.86093 0.0
H3429 H 0.85655 0.53102 0.84648 0.0
H3430 H 0.79695 0.52922 0.86199 0.0
H3431 H 0.79985 0.56094 0.87646 0.0
C3432 C 0.82032 0.4741 0.85329 0.0
C3433 C 0.83042 0.46885 0.83679 0.0
C3434 C 0.81785 0.49335 0.85793 0.0
C3435 C 0.82562 0.50768 0.84625 0.0
C3436 C 0.83457 0.50244 0.8291 0.0
C3437 C 0.83689 0.48323 0.82438 0.0
C3438 C 0.84568 0.55548 0.86107 0.0
C3439 C 0.82993 0.56408 0.86994 0.0
C3440 C 0.84397 0.53753 0.85265 0.0
C3441 C 0.82651 0.52768 0.85309 0.0
C3442 C 0.81058 0.53649 0.8615 0.0
C3443 C 0.81223 0.55463 0.8697 0.0
H3444 H 0.80519 0.43314 0.62458 0.0
H3445 H 0.86543 0.42772 0.63641 0.0
H3446 H 0.80596 0.46613 0.63612 0.0
H3447 H 0.86609 0.46029 0.64831 0.0
H3448 H 0.86744 0.52371 0.6382 0.0
H3449 H 0.86383 0.49019 0.63103 0.0
H3450 H 0.8116 0.48852 0.66368 0.0
H3451 H 0.81489 0.5228 0.67042 0.0
C3452 C 0.81848 0.43886 0.63001 0.0
C3453 C 0.83534 0.42801 0.62928 0.0
C3454 C 0.8189 0.45771 0.63667 0.0
C3455 C 0.83616 0.46591 0.64277 0.0
C3456 C 0.85267 0.45453 0.64324 0.0
C3457 C 0.85229 0.43585 0.63648 0.0
C3458 C 0.85494 0.51639 0.64359 0.0
C3459 C 0.84127 0.52605 0.65463 0.0
C3460 C 0.85307 0.49703 0.63975 0.0
C3461 C 0.83756 0.48663 0.64698 0.0
C3462 C 0.8237 0.4962 0.6579 0.0
C3463 C 0.82561 0.51575 0.66181 0.0
H3464 H 0.15631 0.98001 0.68963 0.0
H3465 H 0.18238 0.96293 0.63648 0.0
H3466 H 0.16205 0.01339 0.68176 0.0
H3467 H 0.18787 0.99644 0.62849 0.0
H3468 H 0.20069 0.05982 0.62247 0.0
H3469 H 0.20367 0.02824 0.63729 0.0
H3470 H 0.14502 0.03163 0.65588 0.0
H3471 H 0.14203 0.0629 0.64105 0.0
C3472 C 0.16386 0.98334 0.67657 0.0
C3473 C 0.16881 0.96886 0.6636 0.0
C3474 C 0.16698 0.00247 0.672 0.0
C3475 C 0.1752 0.00749 0.65444 0.0
C3476 C 0.18159 0.99297 0.64217 0.0
C3477 C 0.17834 0.97382 0.64668 0.0
C3478 C 0.18859 0.05391 0.63004 0.0
C3479 C 0.17108 0.06367 0.6305 0.0
C3480 C 0.19027 0.03586 0.63843 0.0
C3481 C 0.17459 0.02752 0.64773 0.0
C3482 C 0.15742 0.03779 0.64901 0.0
C3483 C 0.15565 0.05562 0.64038 0.0
H3484 H 0.67682 0.53753 0.36759 0.0
H3485 H 0.64943 0.52028 0.31515 0.0
H3486 H 0.68116 0.50395 0.37627 0.0
H3487 H 0.65387 0.48687 0.32376 0.0
H3488 H 0.63585 0.43651 0.36396 0.0
H3489 H 0.63757 0.46856 0.35058 0.0
H3490 H 0.69704 0.47208 0.36624 0.0
H3491 H 0.6954 0.43976 0.37953 0.0
C3492 C 0.67214 0.52657 0.35775 0.0
C3493 C 0.66282 0.53152 0.3407 0.0
C3494 C 0.6747 0.50739 0.36266 0.0
C3495 C 0.66773 0.49285 0.35073 0.0
C3496 C 0.65927 0.49781 0.33326 0.0
C3497 C 0.65691 0.51694 0.32825 0.0
C3498 C 0.64936 0.44401 0.36435 0.0
C3499 C 0.66547 0.43567 0.37283 0.0
C3500 C 0.65037 0.46231 0.35659 0.0
C3501 C 0.66745 0.47278 0.35736 0.0
C3502 C 0.6837 0.46432 0.36551 0.0
C3503 C 0.68277 0.44583 0.37302 0.0
H3504 H 0.61939 0.69651 0.93677 0.0
H3505 H 0.63289 0.63695 0.92869 0.0
H3506 H 0.63063 0.69447 0.96988 0.0
H3507 H 0.64455 0.63504 0.96126 0.0
H3508 H 0.6357 0.62956 0.02413 0.0
H3509 H 0.62758 0.63506 0.99113 0.0
H3510 H 0.65797 0.68867 0.99224 0.0
H3511 H 0.66548 0.68355 0.02608 0.0
C3512 C 0.62513 0.68313 0.94195 0.0
C3513 C 0.62496 0.66679 0.93032 0.0
C3514 C 0.63159 0.68197 0.96086 0.0
C3515 C 0.63808 0.66449 0.96831 0.0
C3516 C 0.63912 0.64858 0.95614 0.0
C3517 C 0.63251 0.64968 0.93744 0.0
C3518 C 0.64035 0.64277 0.0176 0.0
C3519 C 0.65108 0.65622 0.02792 0.0
C3520 C 0.63597 0.64575 0.99848 0.0
C3521 C 0.64238 0.66216 0.98894 0.0
C3522 C 0.65283 0.67587 0.99922 0.0
C3523 C 0.65723 0.67289 0.01853 0.0
H3524 H 0.36834 0.86901 0.02772 0.0
H3525 H 0.3333 0.81824 0.02672 0.0
H3526 H 0.37613 0.86444 0.99449 0.0
H3527 H 0.34063 0.81412 0.99271 0.0
H3528 H 0.37844 0.80644 0.9364 0.0
H3529 H 0.36795 0.80727 0.9698 0.0
H3530 H 0.35803 0.8679 0.96495 0.0
H3531 H 0.3688 0.86716 0.93204 0.0
C3532 C 0.36252 0.85663 0.02053 0.0
C3533 C 0.35033 0.84387 0.03005 0.0
C3534 C 0.36674 0.85423 0.00129 0.0
C3535 C 0.35874 0.83911 0.99088 0.0
C3536 C 0.34697 0.82593 0.00039 0.0
C3537 C 0.34271 0.82835 0.01981 0.0
C3538 C 0.37373 0.81985 0.94245 0.0
C3539 C 0.37474 0.8368 0.93174 0.0
C3540 C 0.3677 0.82032 0.96153 0.0
C3541 C 0.36257 0.83772 0.97009 0.0
C3542 C 0.3624 0.85436 0.95891 0.0
C3543 C 0.36849 0.85392 0.94002 0.0
H3544 H 0.64214 0.35787 0.56502 0.0
H3545 H 0.62104 0.30019 0.56003 0.0
H3546 H 0.65592 0.35565 0.5332 0.0
H3547 H 0.63472 0.29805 0.52788 0.0
H3548 H 0.63258 0.32281 0.46363 0.0
H3549 H 0.62526 0.31634 0.49714 0.0
H3550 H 0.68069 0.33773 0.51339 0.0
H3551 H 0.68798 0.34426 0.47998 0.0
C3552 C 0.64071 0.34461 0.55721 0.0
C3553 C 0.63045 0.32925 0.56491 0.0
C3554 C 0.64872 0.34328 0.53905 0.0
C3555 C 0.64637 0.32667 0.52809 0.0
C3556 C 0.63669 0.31102 0.53605 0.0
C3557 C 0.62896 0.31222 0.55442 0.0
C3558 C 0.64336 0.32564 0.47434 0.0
C3559 C 0.66079 0.33411 0.46923 0.0
C3560 C 0.63923 0.32184 0.49348 0.0
C3561 C 0.65237 0.32668 0.50783 0.0
C3562 C 0.67028 0.33396 0.5026 0.0
C3563 C 0.6745 0.33755 0.48346 0.0
H3564 H 0.36446 0.13576 0.56811 0.0
H3565 H 0.37622 0.19612 0.5638 0.0
H3566 H 0.35269 0.13565 0.53551 0.0
H3567 H 0.36465 0.19591 0.53075 0.0
H3568 H 0.3283 0.18641 0.47455 0.0
H3569 H 0.33614 0.1899 0.50857 0.0
H3570 H 0.37067 0.13897 0.50561 0.0
H3571 H 0.36249 0.13512 0.47236 0.0
C3572 C 0.3644 0.14906 0.56022 0.0
C3573 C 0.37157 0.16588 0.56838 0.0
C3574 C 0.3577 0.14898 0.54153 0.0
C3575 C 0.35814 0.16569 0.53046 0.0
C3576 C 0.36418 0.18283 0.53896 0.0
C3577 C 0.37083 0.18293 0.55782 0.0
C3578 C 0.3376 0.17604 0.48123 0.0
C3579 C 0.34489 0.1606 0.47066 0.0
C3580 C 0.34214 0.17809 0.50063 0.0
C3581 C 0.35382 0.16457 0.50978 0.0
C3582 C 0.36138 0.14944 0.49907 0.0
C3583 C 0.35692 0.14744 0.47985 0.0
H3584 H 0.93554 0.62205 0.69549 0.0
H3585 H 0.93362 0.62859 0.63423 0.0
H3586 H 0.96869 0.63331 0.69556 0.0
H3587 H 0.9663 0.64007 0.63437 0.0
H3588 H 0.02929 0.63161 0.63661 0.0
H3589 H 0.99616 0.62292 0.64021 0.0
H3590 H 0.99098 0.66119 0.6882 0.0
H3591 H 0.02489 0.6695 0.6851 0.0
C3592 C 0.94207 0.6262 0.68212 0.0
C3593 C 0.93211 0.62413 0.66481 0.0
C3594 C 0.961 0.63268 0.68218 0.0
C3595 C 0.97018 0.6372 0.66493 0.0
C3596 C 0.95976 0.63622 0.64784 0.0
C3597 C 0.941 0.6297 0.64777 0.0
C3598 C 0.02137 0.63787 0.64831 0.0
C3599 C 0.0299 0.65114 0.66071 0.0
C3600 C 0.0022 0.63312 0.65013 0.0
C3601 C 0.99088 0.64161 0.66428 0.0
C3602 C 0.99939 0.65445 0.67714 0.0
C3603 C 0.01875 0.65926 0.6753 0.0
H3604 H 0.97415 0.82964 0.68185 0.0
H3605 H 0.97057 0.86616 0.63226 0.0
H3606 H 0.00798 0.83796 0.68527 0.0
H3607 H 0.00363 0.87499 0.63622 0.0
H3608 H 0.06654 0.87064 0.63239 0.0
H3609 H 0.03387 0.85913 0.63152 0.0
H3610 H 0.02994 0.86511 0.69273 0.0
H3611 H 0.06306 0.87626 0.69367 0.0
C3612 C 0.98047 0.83957 0.67185 0.0
C3613 C 0.96954 0.84732 0.65688 0.0
C3614 C 0.99979 0.84441 0.67387 0.0
C3615 C 0.00854 0.85695 0.66087 0.0
C3616 C 0.99745 0.86502 0.64627 0.0
C3617 C 0.97831 0.8602 0.64424 0.0
C3618 C 0.05881 0.86935 0.64571 0.0
C3619 C 0.06728 0.87461 0.66306 0.0
C3620 C 0.04003 0.86284 0.6452 0.0
C3621 C 0.02918 0.86159 0.66202 0.0
C3622 C 0.03794 0.86591 0.67954 0.0
C3623 C 0.05687 0.87235 0.68006 0.0
H3624 H 0.93175 0.37346 0.87001 0.0
H3625 H 0.93589 0.37701 0.80862 0.0
H3626 H 0.96445 0.36215 0.87164 0.0
H3627 H 0.96904 0.36607 0.8103 0.0
H3628 H 0.02433 0.33057 0.8227 0.0
H3629 H 0.99068 0.33922 0.81868 0.0
H3630 H 0.99491 0.3773 0.86695 0.0
H3631 H 0.0278 0.36809 0.87154 0.0
C3632 C 0.93965 0.37179 0.85683 0.0
C3633 C 0.93133 0.37636 0.83921 0.0
C3634 C 0.95844 0.36539 0.85777 0.0
C3635 C 0.96948 0.36358 0.84113 0.0
C3636 C 0.96091 0.36731 0.82337 0.0
C3637 C 0.94196 0.37362 0.82242 0.0
C3638 C 0.01803 0.34079 0.83242 0.0
C3639 C 0.02886 0.34869 0.84737 0.0
C3640 C 0.99881 0.34583 0.83004 0.0
C3641 C 0.99007 0.35877 0.84264 0.0
C3642 C 0.00108 0.36701 0.8572 0.0
C3643 C 0.02013 0.36197 0.85961 0.0
H3644 H 0.06048 0.1267 0.86238 0.0
H3645 H 0.06123 0.11881 0.80126 0.0
H3646 H 0.02937 0.14207 0.86003 0.0
H3647 H 0.02968 0.13393 0.799 0.0
H3648 H 0.96245 0.13331 0.81804 0.0
H3649 H 0.99562 0.12322 0.81341 0.0
H3650 H 0.01502 0.17299 0.84403 0.0
H3651 H 0.98202 0.18314 0.84856 0.0
C3652 C 0.054 0.12829 0.84844 0.0
C3653 C 0.0632 0.1215 0.83201 0.0
C3654 C 0.03628 0.13722 0.84709 0.0
C3655 C 0.02724 0.13924 0.82933 0.0
C3656 C 0.03643 0.13255 0.81284 0.0
C3657 C 0.05442 0.12395 0.81414 0.0
C3658 C 0.97386 0.14235 0.82325 0.0
C3659 C 0.9697 0.15898 0.83364 0.0
C3660 C 0.99278 0.13662 0.82056 0.0
C3661 C 0.00777 0.14728 0.82851 0.0
C3662 C 0.00366 0.16452 0.83783 0.0
C3663 C 0.9848 0.17039 0.84027 0.0
H3664 H 0.65392 0.01893 0.68574 0.0
H3665 H 0.68182 0.03672 0.63376 0.0
H3666 H 0.65901 0.98563 0.67712 0.0
H3667 H 0.68671 0.00326 0.62503 0.0
H3668 H 0.64021 0.93661 0.63563 0.0
H3669 H 0.64263 0.96808 0.65009 0.0
H3670 H 0.7021 0.97099 0.63428 0.0
H3671 H 0.69972 0.93915 0.61986 0.0
C3672 C 0.66169 0.01575 0.67277 0.0
C3673 C 0.66744 0.03044 0.66038 0.0
C3674 C 0.66444 0.99667 0.66776 0.0
C3675 C 0.67309 0.99189 0.65034 0.0
C3676 C 0.68009 0.00655 0.6386 0.0
C3677 C 0.67719 0.02567 0.64352 0.0
C3678 C 0.65387 0.94384 0.63544 0.0
C3679 C 0.66975 0.9355 0.62654 0.0
C3680 C 0.6553 0.9618 0.64386 0.0
C3681 C 0.67257 0.97195 0.64334 0.0
C3682 C 0.68862 0.96345 0.63484 0.0
C3683 C 0.68727 0.94526 0.62668 0.0
H3684 H 0.65462 0.04989 0.90169 0.0
H3685 H 0.69174 0.0728 0.85818 0.0
H3686 H 0.65868 0.01802 0.88854 0.0
H3687 H 0.69545 0.04057 0.84461 0.0
H3688 H 0.66293 0.98418 0.81768 0.0
H3689 H 0.6692 0.01646 0.82916 0.0
H3690 H 0.68717 0.99374 0.88345 0.0
H3691 H 0.68155 0.96137 0.87186 0.0
C3692 C 0.66369 0.04808 0.8893 0.0
C3693 C 0.67281 0.06379 0.88089 0.0
C3694 C 0.66614 0.02981 0.88189 0.0
C3695 C 0.6775 0.02686 0.86568 0.0
C3696 C 0.6867 0.04253 0.85719 0.0
C3697 C 0.6846 0.06087 0.86493 0.0
C3698 C 0.66897 0.98596 0.83178 0.0
C3699 C 0.67146 0.97017 0.84396 0.0
C3700 C 0.6725 0.00448 0.83836 0.0
C3701 C 0.67841 0.00753 0.85724 0.0
C3702 C 0.68241 0.99172 0.86888 0.0
C3703 C 0.67911 0.97323 0.86226 0.0
H3704 H 0.30301 0.43702 0.87658 0.0
H3705 H 0.36213 0.43119 0.86024 0.0
H3706 H 0.30329 0.47022 0.86549 0.0
H3707 H 0.36228 0.46395 0.84884 0.0
H3708 H 0.36551 0.5268 0.86162 0.0
H3709 H 0.3615 0.49316 0.86795 0.0
H3710 H 0.30777 0.49353 0.83779 0.0
H3711 H 0.31152 0.52793 0.83183 0.0
C3712 C 0.31589 0.44267 0.87018 0.0
C3713 C 0.33265 0.43167 0.86958 0.0
C3714 C 0.31603 0.46164 0.86381 0.0
C3715 C 0.33293 0.46979 0.85669 0.0
C3716 C 0.34919 0.45822 0.85472 0.0
C3717 C 0.34908 0.43943 0.86119 0.0
C3718 C 0.35261 0.51992 0.85661 0.0
C3719 C 0.33868 0.53017 0.84645 0.0
C3720 C 0.35048 0.50049 0.85997 0.0
C3721 C 0.33445 0.49062 0.85314 0.0
C3722 C 0.32029 0.50079 0.8432 0.0
C3723 C 0.32246 0.52042 0.83975 0.0
H3724 H 0.80392 0.063 0.12038 0.0
H3725 H 0.86187 0.068 0.14073 0.0
H3726 H 0.80217 0.03059 0.13348 0.0
H3727 H 0.86002 0.03589 0.15399 0.0
H3728 H 0.84788 0.9827 0.1867 0.0
H3729 H 0.84183 0.01617 0.17912 0.0
H3730 H 0.82076 0.99983 0.12361 0.0
H3731 H 0.82682 0.96627 0.13118 0.0
C3732 C 0.81613 0.05731 0.12795 0.0
C3733 C 0.83308 0.06792 0.12945 0.0
C3734 C 0.81514 0.03879 0.13537 0.0
C3735 C 0.83094 0.0308 0.14475 0.0
C3736 C 0.84755 0.04178 0.147 0.0
C3737 C 0.84867 0.0601 0.13929 0.0
C3738 C 0.84137 0.98619 0.17312 0.0
C3739 C 0.83785 0.97192 0.15949 0.0
C3740 C 0.83807 0.00535 0.16874 0.0
C3741 C 0.83097 0.01055 0.15075 0.0
C3742 C 0.82613 0.99618 0.13763 0.0
C3743 C 0.82968 0.97702 0.14191 0.0
H3744 H 0.35912 0.37178 0.97683 0.0
H3745 H 0.33254 0.31619 0.9746 0.0
H3746 H 0.36668 0.36704 0.0101 0.0
H3747 H 0.33957 0.31169 0.00867 0.0
H3748 H 0.37973 0.30594 0.06335 0.0
H3749 H 0.36741 0.30744 0.03067 0.0
H3750 H 0.34996 0.3658 0.04011 0.0
H3751 H 0.36274 0.36449 0.07233 0.0
C3752 C 0.35502 0.35842 0.98341 0.0
C3753 C 0.34549 0.34422 0.97294 0.0
C3754 C 0.35906 0.35584 0.00265 0.0
C3755 C 0.35351 0.33909 0.01212 0.0
C3756 C 0.34404 0.32475 0.00173 0.0
C3757 C 0.33994 0.32735 0.9823 0.0
C3758 C 0.37296 0.31896 0.05849 0.0
C3759 C 0.3725 0.33522 0.07021 0.0
C3760 C 0.36586 0.31979 0.03981 0.0
C3761 C 0.35809 0.33687 0.03269 0.0
C3762 C 0.35635 0.3526 0.045 0.0
C3763 C 0.3636 0.35184 0.06349 0.0
H3764 H 0.62692 0.13547 0.06616 0.0
H3765 H 0.62266 0.19697 0.06484 0.0
H3766 H 0.63718 0.13541 0.0331 0.0
H3767 H 0.63267 0.19685 0.03131 0.0
H3768 H 0.66788 0.1855 0.97477 0.0
H3769 H 0.65955 0.18892 0.00858 0.0
H3770 H 0.62015 0.14184 0.00347 0.0
H3771 H 0.62896 0.1378 0.97042 0.0
C3772 C 0.62825 0.14901 0.05882 0.0
C3773 C 0.62374 0.1662 0.06802 0.0
C3774 C 0.63404 0.14896 0.03982 0.0
C3775 C 0.63533 0.16609 0.02949 0.0
C3776 C 0.63177 0.18343 0.03892 0.0
C3777 C 0.62602 0.18348 0.05808 0.0
C3778 C 0.65738 0.17596 0.98089 0.0
C3779 C 0.64909 0.1614 0.96979 0.0
C3780 C 0.65254 0.17801 0.00019 0.0
C3781 C 0.63944 0.16545 0.00873 0.0
C3782 C 0.63059 0.1515 0.99741 0.0
C3783 C 0.63541 0.14943 0.97828 0.0
H3784 H 0.36851 0.63445 0.43188 0.0
H3785 H 0.37786 0.69512 0.43735 0.0
H3786 H 0.35737 0.63311 0.46464 0.0
H3787 H 0.36707 0.69369 0.47062 0.0
H3788 H 0.33227 0.68233 0.527 0.0
H3789 H 0.33988 0.68676 0.4931 0.0
H3790 H 0.37459 0.63586 0.49448 0.0
H3791 H 0.36644 0.63096 0.52757 0.0
C3792 C 0.36809 0.64754 0.44008 0.0
C3793 C 0.37432 0.66483 0.43216 0.0
C3794 C 0.36178 0.64677 0.4589 0.0
C3795 C 0.36176 0.66322 0.47036 0.0
C3796 C 0.36695 0.68077 0.46214 0.0
C3797 C 0.37316 0.68158 0.44314 0.0
C3798 C 0.34154 0.67214 0.52001 0.0
C3799 C 0.34883 0.65637 0.5301 0.0
C3800 C 0.34597 0.67473 0.50066 0.0
C3801 C 0.35763 0.66151 0.49106 0.0
C3802 C 0.36528 0.64611 0.50133 0.0
C3803 C 0.36086 0.64351 0.52049 0.0
H3804 H 0.61835 0.80796 0.43516 0.0
H3805 H 0.63082 0.86799 0.4289 0.0
H3806 H 0.63025 0.809 0.46806 0.0
H3807 H 0.6431 0.86891 0.46129 0.0
H3808 H 0.63516 0.87168 0.52459 0.0
H3809 H 0.62662 0.86739 0.49151 0.0
H3810 H 0.65824 0.81451 0.48989 0.0
H3811 H 0.66626 0.81843 0.5238 0.0
C3812 C 0.62396 0.82126 0.44069 0.0
C3813 C 0.62333 0.83798 0.42963 0.0
C3814 C 0.63082 0.82184 0.45947 0.0
C3815 C 0.63725 0.83913 0.46738 0.0
C3816 C 0.63776 0.85548 0.45579 0.0
C3817 C 0.63077 0.85495 0.4372 0.0
C3818 C 0.64001 0.85888 0.51743 0.0
C3819 C 0.65119 0.84525 0.527 0.0
C3820 C 0.63538 0.8566 0.49828 0.0
C3821 C 0.64197 0.84075 0.48798 0.0
C3822 C 0.65294 0.82688 0.49749 0.0
C3823 C 0.65761 0.82917 0.51683 0.0
H3824 H 0.06451 0.35922 0.35867 0.0
H3825 H 0.05817 0.38047 0.30119 0.0
H3826 H 0.03249 0.34571 0.35726 0.0
H3827 H 0.02582 0.36711 0.29989 0.0
H3828 H 0.96205 0.36883 0.32579 0.0
H3829 H 0.99546 0.37657 0.31919 0.0
H3830 H 0.01234 0.32088 0.33937 0.0
H3831 H 0.97901 0.31314 0.34597 0.0
C3832 C 0.05634 0.36076 0.34563 0.0
C3833 C 0.06375 0.37095 0.33007 0.0
C3834 C 0.03807 0.35292 0.34478 0.0
C3835 C 0.0267 0.35538 0.32846 0.0
C3836 C 0.03431 0.36505 0.31263 0.0
C3837 C 0.0528 0.3726 0.31336 0.0
C3838 C 0.97288 0.35811 0.32837 0.0
C3839 C 0.96796 0.34043 0.33643 0.0
C3840 C 0.99196 0.36248 0.3245 0.0
C3841 C 0.00645 0.34935 0.32889 0.0
C3842 C 0.00143 0.33127 0.33594 0.0
C3843 C 0.98235 0.32681 0.33957 0.0
H3844 H 0.03287 0.13624 0.31909 0.0
H3845 H 0.01692 0.19032 0.34394 0.0
H3846 H 0.99917 0.12861 0.31418 0.0
H3847 H 0.98332 0.18276 0.33886 0.0
H3848 H 0.93555 0.1242 0.30092 0.0
H3849 H 0.96759 0.138 0.298 0.0
H3850 H 0.96441 0.15744 0.35636 0.0
H3851 H 0.93267 0.1436 0.35933 0.0
C3852 C 0.02218 0.14668 0.32303 0.0
C3853 C 0.02752 0.16382 0.33197 0.0
C3854 C 0.00292 0.14237 0.32012 0.0
C3855 C 0.98865 0.15504 0.3263 0.0
C3856 C 0.99404 0.1727 0.33409 0.0
C3857 C 0.01328 0.17709 0.33682 0.0
C3858 C 0.9416 0.13174 0.31298 0.0
C3859 C 0.93171 0.13274 0.33039 0.0
C3860 C 0.95993 0.13954 0.31133 0.0
C3861 C 0.96846 0.14879 0.32694 0.0
C3862 C 0.95812 0.15059 0.34402 0.0
C3863 C 0.94 0.14254 0.34576 0.0
H3864 H 0.97369 0.67182 0.18179 0.0
H3865 H 0.97386 0.63924 0.12944 0.0
H3866 H 0.00777 0.66466 0.18612 0.0
H3867 H 0.00719 0.63171 0.13406 0.0
H3868 H 0.06961 0.63791 0.13347 0.0
H3869 H 0.03704 0.64972 0.1324 0.0
H3870 H 0.03012 0.6366 0.1922 0.0
H3871 H 0.06315 0.62505 0.19339 0.0
C3872 C 0.98092 0.66302 0.17134 0.0
C3873 C 0.97099 0.65594 0.15539 0.0
C3874 C 0.00035 0.65888 0.17386 0.0
C3875 C 0.01019 0.64781 0.16031 0.0
C3876 C 0.00013 0.64055 0.14459 0.0
C3877 C 0.98087 0.64461 0.14212 0.0
C3878 C 0.06127 0.63778 0.14648 0.0
C3879 C 0.06882 0.63028 0.16344 0.0
C3880 C 0.04257 0.64448 0.14585 0.0
C3881 C 0.03089 0.64368 0.16212 0.0
C3882 C 0.0388 0.63737 0.17944 0.0
C3883 C 0.05766 0.63074 0.18011 0.0
H3884 H 0.03829 0.86613 0.17914 0.0
H3885 H 0.0207 0.81439 0.15065 0.0
H3886 H 0.00479 0.87498 0.18357 0.0
H3887 H 0.98736 0.82315 0.15523 0.0
H3888 H 0.93799 0.86452 0.13703 0.0
H3889 H 0.96963 0.85031 0.13915 0.0
H3890 H 0.97262 0.86541 0.19879 0.0
H3891 H 0.94069 0.87957 0.19673 0.0
C3892 C 0.02727 0.85646 0.17427 0.0
C3893 C 0.03211 0.8396 0.16455 0.0
C3894 C 0.00812 0.86146 0.17688 0.0
C3895 C 0.99352 0.8498 0.16961 0.0
C3896 C 0.99835 0.83244 0.16086 0.0
C3897 C 0.01745 0.82735 0.15842 0.0
C3898 C 0.94528 0.86461 0.15066 0.0
C3899 C 0.93693 0.87321 0.16669 0.0
C3900 C 0.96334 0.85635 0.1519 0.0
C3901 C 0.97355 0.85674 0.16915 0.0
C3902 C 0.96505 0.86496 0.18533 0.0
C3903 C 0.94678 0.87297 0.18415 0.0
H3904 H 0.30074 0.0662 0.3758 0.0
H3905 H 0.36146 0.06916 0.36563 0.0
H3906 H 0.30077 0.03269 0.3657 0.0
H3907 H 0.36141 0.03605 0.35535 0.0
H3908 H 0.36064 0.97334 0.36774 0.0
H3909 H 0.35694 0.00693 0.37469 0.0
H3910 H 0.30737 0.00936 0.33817 0.0
H3911 H 0.3107 0.97508 0.33156 0.0
C3912 C 0.31399 0.05982 0.37105 0.0
C3913 C 0.33116 0.07017 0.37181 0.0
C3914 C 0.31399 0.04068 0.36525 0.0
C3915 C 0.33116 0.03169 0.36013 0.0
C3916 C 0.34804 0.04249 0.35968 0.0
C3917 C 0.34805 0.06148 0.3655 0.0
C3918 C 0.34862 0.9808 0.36151 0.0
C3919 C 0.33584 0.97142 0.34923 0.0
C3920 C 0.34672 0.00019 0.36525 0.0
C3921 C 0.33206 0.01083 0.35673 0.0
C3922 C 0.31883 0.00147 0.3449 0.0
C3923 C 0.32078 0.98192 0.34107 0.0
H3924 H 0.3401 0.02056 0.18205 0.0
H3925 H 0.32112 0.04453 0.12844 0.0
H3926 H 0.33315 0.98867 0.17023 0.0
H3927 H 0.31498 0.0124 0.11645 0.0
H3928 H 0.34669 0.95554 0.09766 0.0
H3929 H 0.34272 0.98753 0.11059 0.0
H3930 H 0.30663 0.96522 0.15521 0.0
H3931 H 0.31023 0.93291 0.14186 0.0
C3932 C 0.33384 0.01917 0.16799 0.0
C3933 C 0.33145 0.03521 0.1561 0.0
C3934 C 0.32993 0.00082 0.16122 0.0
C3935 C 0.32377 0.99811 0.14238 0.0
C3936 C 0.31993 0.01414 0.13099 0.0
C3937 C 0.32356 0.03251 0.13784 0.0
C3938 C 0.33776 0.95745 0.11013 0.0
C3939 C 0.32884 0.94177 0.11883 0.0
C3940 C 0.33534 0.97578 0.11741 0.0
C3941 C 0.32425 0.97883 0.13379 0.0
C3942 C 0.31517 0.9632 0.14249 0.0
C3943 C 0.31722 0.9448 0.13488 0.0
H3944 H 0.68581 0.46602 0.13471 0.0
H3945 H 0.65836 0.48139 0.1877 0.0
H3946 H 0.68958 0.49984 0.12696 0.0
H3947 H 0.66241 0.51505 0.18008 0.0
H3948 H 0.64162 0.56505 0.14077 0.0
H3949 H 0.64519 0.5333 0.1544 0.0
H3950 H 0.70411 0.53205 0.13645 0.0
H3951 H 0.70055 0.56411 0.12283 0.0
C3952 C 0.68104 0.47661 0.1449 0.0
C3953 C 0.67172 0.47102 0.16176 0.0
C3954 C 0.68331 0.49596 0.14053 0.0
C3955 C 0.67612 0.51005 0.15284 0.0
C3956 C 0.66794 0.50447 0.17026 0.0
C3957 C 0.66581 0.48517 0.1747 0.0
C3958 C 0.65542 0.55814 0.13997 0.0
C3959 C 0.67077 0.567 0.13067 0.0
C3960 C 0.65751 0.54001 0.1479 0.0
C3961 C 0.67495 0.53021 0.14649 0.0
C3962 C 0.69051 0.53928 0.13768 0.0
C3963 C 0.68849 0.55762 0.12999 0.0
H3964 H 0.13466 0.93914 0.87401 0.0
H3965 H 0.19622 0.93645 0.87186 0.0
H3966 H 0.13569 0.97213 0.86348 0.0
H3967 H 0.19722 0.96985 0.86144 0.0
H3968 H 0.18495 0.02646 0.82585 0.0
H3969 H 0.18744 0.99267 0.83466 0.0
H3970 H 0.14633 0.00152 0.87964 0.0
H3971 H 0.14325 0.03464 0.87057 0.0
C3972 C 0.14844 0.94555 0.87117 0.0
C3973 C 0.16537 0.93523 0.874 0.0
C3974 C 0.14902 0.96451 0.86523 0.0
C3975 C 0.16655 0.97369 0.86201 0.0
C3976 C 0.18351 0.96314 0.86387 0.0
C3977 C 0.18292 0.94406 0.86985 0.0
C3978 C 0.17659 0.0212 0.83772 0.0
C3979 C 0.16392 0.03337 0.84748 0.0
C3980 C 0.17809 0.00189 0.84281 0.0
C3981 C 0.16683 0.99441 0.85763 0.0
C3982 C 0.15493 0.00678 0.86792 0.0
C3983 C 0.15344 0.02593 0.8629 0.0
loop_
_geom_bond_atom_site_label_1
_geom_bond_atom_site_label_2
_geom_bond_distance
_geom_bond_site_symmetry_2
_ccdc_geom_bond_type
C0 C1 1.351 . S
C0 N3 1.368 . S
C0 H5 0.931 . S
C1 C0 1.351 . S
C1 N2 1.373 . S
C1 H29 0.930 . S
N2 C1 1.373 . S
N2 C4 1.340 . S
N3 C0 1.368 . S
N3 C4 1.321 . S
N3 Co6 2.135 . S
C4 N2 1.340 . S
C4 N3 1.321 . S
C4 H28 0.930 . S
H5 C0 0.931 . S
Co6 N3 2.135 . S
Co6 N9 2.121 . S
Co6 O14 2.055 . S
Co6 O17 2.039 . S
Co6 N20 2.140 . S
C7 O8 1.227 . S
C7 O17 1.265 . S
O8 C7 1.227 . S
N9 Co6 2.121 . S
N9 C11 1.375 . S
N9 C12 1.313 . S
C10 C11 1.338 . S
C10 N13 1.377 . S
C10 H30 0.930 . S
C11 N9 1.375 . S
C11 C10 1.338 . S
C11 H15 0.931 . S
C12 N9 1.313 . S
C12 N13 1.344 . S
C12 H16 0.930 . S
N13 C10 1.377 . S
N13 C12 1.344 . S
O14 Co6 2.055 . S
O14 C18 1.253 . S
H15 C11 0.931 . S
H16 C12 0.930 . S
O17 Co6 2.039 . S
O17 C7 1.265 . S
C18 O14 1.253 . S
C18 O19 1.227 . S
O19 C18 1.227 . S
N20 Co6 2.140 . S
N20 C23 1.346 . S
N20 C24 1.345 . S
C21 C22 1.387 . S
C21 C25 1.391 . S
C22 C21 1.387 . S
C22 C23 1.369 . S
C22 H31 0.929 . S
C23 N20 1.346 . S
C23 C22 1.369 . S
C23 H26 0.928 . S
C24 N20 1.345 . S
C24 C25 1.371 . S
C24 H27 0.931 . S
C25 C21 1.391 . S
C25 C24 1.371 . S
C25 H32 0.930 . S
H26 C23 0.928 . S
H27 C24 0.931 . S
H28 C4 0.930 . S
H29 C1 0.930 . S
H30 C10 0.930 . S
H31 C22 0.929 . S
H32 C25 0.930 . S
C33 C34 1.351 . S
C33 N36 1.368 . S
C33 H38 0.931 . S
C34 C33 1.351 . S
C34 N35 1.373 . S
C34 H62 0.930 . S
N35 C34 1.373 . S
N35 C37 1.340 . S
N36 C33 1.368 . S
N36 C37 1.321 . S
N36 Co39 2.135 . S
C37 N35 1.340 . S
C37 N36 1.321 . S
C37 H61 0.930 . S
H38 C33 0.931 . S
Co39 N36 2.135 . S
Co39 N42 2.121 . S
Co39 O47 2.055 . S
Co39 O50 2.039 . S
Co39 N53 2.140 . S
C40 O41 1.227 . S
C40 O50 1.265 . S
O41 C40 1.227 . S
N42 Co39 2.121 . S
N42 C44 1.375 . S
N42 C45 1.313 . S
C43 C44 1.338 . S
C43 N46 1.377 . S
C43 H63 0.930 . S
C44 N42 1.375 . S
C44 C43 1.338 . S
C44 H48 0.931 . S
C45 N42 1.313 . S
C45 N46 1.344 . S
C45 H49 0.930 . S
N46 C43 1.377 . S
N46 C45 1.344 . S
O47 Co39 2.055 . S
O47 C51 1.253 . S
H48 C44 0.931 . S
H49 C45 0.930 . S
O50 Co39 2.039 . S
O50 C40 1.265 . S
C51 O47 1.253 . S
C51 O52 1.227 . S
O52 C51 1.227 . S
N53 Co39 2.140 . S
N53 C56 1.346 . S
N53 C57 1.345 . S
C54 C55 1.387 . S
C54 C58 1.391 . S
C55 C54 1.387 . S
C55 C56 1.369 . S
C55 H64 0.929 . S
C56 N53 1.346 . S
C56 C55 1.369 . S
C56 H59 0.928 . S
C57 N53 1.345 . S
C57 C58 1.371 . S
C57 H60 0.931 . S
C58 C54 1.391 . S
C58 C57 1.371 . S
C58 H65 0.930 . S
H59 C56 0.928 . S
H60 C57 0.931 . S
H61 C37 0.930 . S
H62 C34 0.930 . S
H63 C43 0.930 . S
H64 C55 0.929 . S
H65 C58 0.930 . S
C66 C67 1.351 . S
C66 N69 1.368 . S
C66 H71 0.931 . S
C67 C66 1.351 . S
C67 N68 1.373 . S
C67 H95 0.930 . S
N68 C67 1.373 . S
N68 C70 1.340 . S
N69 C66 1.368 . S
N69 C70 1.321 . S
N69 Co72 2.135 . S
C70 N68 1.340 . S
C70 N69 1.321 . S
C70 H94 0.930 . S
H71 C66 0.931 . S
Co72 N69 2.135 . S
Co72 N75 2.121 . S
Co72 O80 2.055 . S
Co72 O83 2.039 . S
Co72 N86 2.140 . S
C73 O74 1.227 . S
C73 O83 1.265 . S
O74 C73 1.227 . S
N75 Co72 2.121 . S
N75 C77 1.375 . S
N75 C78 1.313 . S
C76 C77 1.338 . S
C76 N79 1.377 . S
C76 H96 0.930 . S
C77 N75 1.375 . S
C77 C76 1.338 . S
C77 H81 0.931 . S
C78 N75 1.313 . S
C78 N79 1.344 . S
C78 H82 0.930 . S
N79 C76 1.377 . S
N79 C78 1.344 . S
O80 Co72 2.055 . S
O80 C84 1.253 . S
H81 C77 0.931 . S
H82 C78 0.930 . S
O83 Co72 2.039 . S
O83 C73 1.265 . S
C84 O80 1.253 . S
C84 O85 1.227 . S
O85 C84 1.227 . S
N86 Co72 2.140 . S
N86 C89 1.346 . S
N86 C90 1.345 . S
C87 C88 1.387 . S
C87 C91 1.391 . S
C88 C87 1.387 . S
C88 C89 1.369 . S
C88 H97 0.929 . S
C89 N86 1.346 . S
C89 C88 1.369 . S
C89 H92 0.928 . S
C90 N86 1.345 . S
C90 C91 1.371 . S
C90 H93 0.931 . S
C91 C87 1.391 . S
C91 C90 1.371 . S
C91 H98 0.930 . S
H92 C89 0.928 . S
H93 C90 0.931 . S
H94 C70 0.930 . S
H95 C67 0.930 . S
H96 C76 0.930 . S
H97 C88 0.929 . S
H98 C91 0.930 . S
C99 C100 1.351 . S
C99 N102 1.368 . S
C99 H104 0.931 . S
C100 C99 1.351 . S
C100 N101 1.373 . S
C100 H128 0.930 . S
N101 C100 1.373 . S
N101 C103 1.340 . S
N102 C99 1.368 . S
N102 C103 1.321 . S
N102 Co105 2.135 . S
C103 N101 1.340 . S
C103 N102 1.321 . S
C103 H127 0.930 . S
H104 C99 0.931 . S
Co105 N102 2.135 . S
Co105 N108 2.121 . S
Co105 O113 2.055 . S
Co105 O116 2.039 . S
Co105 N119 2.140 . S
C106 O107 1.227 . S
C106 O116 1.265 . S
O107 C106 1.227 . S
N108 Co105 2.121 . S
N108 C110 1.375 . S
N108 C111 1.313 . S
C109 C110 1.338 . S
C109 N112 1.377 . S
C109 H129 0.930 . S
C110 N108 1.375 . S
C110 C109 1.338 . S
C110 H114 0.931 . S
C111 N108 1.313 . S
C111 N112 1.344 . S
C111 H115 0.930 . S
N112 C109 1.377 . S
N112 C111 1.344 . S
O113 Co105 2.055 . S
O113 C117 1.253 . S
H114 C110 0.931 . S
H115 C111 0.930 . S
O116 Co105 2.039 . S
O116 C106 1.265 . S
C117 O113 1.253 . S
C117 O118 1.227 . S
O118 C117 1.227 . S
N119 Co105 2.140 . S
N119 C122 1.346 . S
N119 C123 1.345 . S
C120 C121 1.387 . S
C120 C124 1.391 . S
C121 C120 1.387 . S
C121 C122 1.369 . S
C121 H130 0.929 . S
C122 N119 1.346 . S
C122 C121 1.369 . S
C122 H125 0.928 . S
C123 N119 1.345 . S
C123 C124 1.371 . S
C123 H126 0.931 . S
C124 C120 1.391 . S
C124 C123 1.371 . S
C124 H131 0.930 . S
H125 C122 0.928 . S
H126 C123 0.931 . S
H127 C103 0.930 . S
H128 C100 0.930 . S
H129 C109 0.930 . S
H130 C121 0.929 . S
H131 C124 0.930 . S
C132 C133 1.351 . S
C132 N135 1.368 . S
C132 H137 0.931 . S
C133 C132 1.351 . S
C133 N134 1.373 . S
C133 H161 0.930 . S
N134 C133 1.373 . S
N134 C136 1.340 . S
N135 C132 1.368 . S
N135 C136 1.321 . S
N135 Co138 2.135 . S
C136 N134 1.340 . S
C136 N135 1.321 . S
C136 H160 0.930 . S
H137 C132 0.931 . S
Co138 N135 2.135 . S
Co138 N141 2.121 . S
Co138 O146 2.055 . S
Co138 O149 2.039 . S
Co138 N152 2.140 . S
C139 O140 1.227 . S
C139 O149 1.265 . S
O140 C139 1.227 . S
N141 Co138 2.121 . S
N141 C143 1.375 . S
N141 C144 1.313 . S
C142 C143 1.338 . S
C142 N145 1.377 . S
C142 H162 0.930 . S
C143 N141 1.375 . S
C143 C142 1.338 . S
C143 H147 0.931 . S
C144 N141 1.313 . S
C144 N145 1.344 . S
C144 H148 0.930 . S
N145 C142 1.377 . S
N145 C144 1.344 . S
O146 Co138 2.055 . S
O146 C150 1.253 . S
H147 C143 0.931 . S
H148 C144 0.930 . S
O149 Co138 2.039 . S
O149 C139 1.265 . S
C150 O146 1.253 . S
C150 O151 1.227 . S
O151 C150 1.227 . S
N152 Co138 2.140 . S
N152 C155 1.346 . S
N152 C156 1.345 . S
C153 C154 1.387 . S
C153 C157 1.391 . S
C154 C153 1.387 . S
C154 C155 1.369 . S
C154 H163 0.929 . S
C155 N152 1.346 . S
C155 C154 1.369 . S
C155 H158 0.928 . S
C156 N152 1.345 . S
C156 C157 1.371 . S
C156 H159 0.931 . S
C157 C153 1.391 . S
C157 C156 1.371 . S
C157 H164 0.930 . S
H158 C155 0.928 . S
H159 C156 0.931 . S
H160 C136 0.930 . S
H161 C133 0.930 . S
H162 C142 0.930 . S
H163 C154 0.929 . S
H164 C157 0.930 . S
C165 C166 1.351 . S
C165 N168 1.368 . S
C165 H170 0.931 . S
C166 C165 1.351 . S
C166 N167 1.373 . S
C166 H194 0.930 . S
N167 C166 1.373 . S
N167 C169 1.340 . S
N168 C165 1.368 . S
N168 C169 1.321 . S
N168 Co171 2.135 . S
C169 N167 1.340 . S
C169 N168 1.321 . S
C169 H193 0.930 . S
H170 C165 0.931 . S
Co171 N168 2.135 . S
Co171 N174 2.121 . S
Co171 O179 2.055 . S
Co171 O182 2.039 . S
Co171 N185 2.140 . S
C172 O173 1.227 . S
C172 O182 1.265 . S
O173 C172 1.227 . S
N174 Co171 2.121 . S
N174 C176 1.375 . S
N174 C177 1.313 . S
C175 C176 1.338 . S
C175 N178 1.377 . S
C175 H195 0.930 . S
C176 N174 1.375 . S
C176 C175 1.338 . S
C176 H180 0.931 . S
C177 N174 1.313 . S
C177 N178 1.344 . S
C177 H181 0.930 . S
N178 C175 1.377 . S
N178 C177 1.344 . S
O179 Co171 2.055 . S
O179 C183 1.253 . S
H180 C176 0.931 . S
H181 C177 0.930 . S
O182 Co171 2.039 . S
O182 C172 1.265 . S
C183 O179 1.253 . S
C183 O184 1.227 . S
O184 C183 1.227 . S
N185 Co171 2.140 . S
N185 C188 1.346 . S
N185 C189 1.345 . S
C186 C187 1.387 . S
C186 C190 1.391 . S
C187 C186 1.387 . S
C187 C188 1.369 . S
C187 H196 0.929 . S
C188 N185 1.346 . S
C188 C187 1.369 . S
C188 H191 0.928 . S
C189 N185 1.345 . S
C189 C190 1.371 . S
C189 H192 0.931 . S
C190 C186 1.391 . S
C190 C189 1.371 . S
C190 H197 0.930 . S
H191 C188 0.928 . S
H192 C189 0.931 . S
H193 C169 0.930 . S
H194 C166 0.930 . S
H195 C175 0.930 . S
H196 C187 0.929 . S
H197 C190 0.930 . S
C198 C199 1.351 . S
C198 N201 1.368 . S
C198 H203 0.931 . S
C199 C198 1.351 . S
C199 N200 1.373 . S
C199 H227 0.930 . S
N200 C199 1.373 . S
N200 C202 1.340 . S
N201 C198 1.368 . S
N201 C202 1.321 . S
N201 Co204 2.135 . S
C202 N200 1.340 . S
C202 N201 1.321 . S
C202 H226 0.930 . S
H203 C198 0.931 . S
Co204 N201 2.135 . S
Co204 N207 2.121 . S
Co204 O212 2.055 . S
Co204 O215 2.039 . S
Co204 N218 2.140 . S
C205 O206 1.227 . S
C205 O215 1.265 . S
O206 C205 1.227 . S
N207 Co204 2.121 . S
N207 C209 1.375 . S
N207 C210 1.313 . S
C208 C209 1.338 . S
C208 N211 1.377 . S
C208 H228 0.930 . S
C209 N207 1.375 . S
C209 C208 1.338 . S
C209 H213 0.931 . S
C210 N207 1.313 . S
C210 N211 1.344 . S
C210 H214 0.930 . S
N211 C208 1.377 . S
N211 C210 1.344 . S
O212 Co204 2.055 . S
O212 C216 1.253 . S
H213 C209 0.931 . S
H214 C210 0.930 . S
O215 Co204 2.039 . S
O215 C205 1.265 . S
C216 O212 1.253 . S
C216 O217 1.227 . S
O217 C216 1.227 . S
N218 Co204 2.140 . S
N218 C221 1.346 . S
N218 C222 1.345 . S
C219 C220 1.387 . S
C219 C223 1.391 . S
C220 C219 1.387 . S
C220 C221 1.369 . S
C220 H229 0.929 . S
C221 N218 1.346 . S
C221 C220 1.369 . S
C221 H224 0.928 . S
C222 N218 1.345 . S
C222 C223 1.371 . S
C222 H225 0.931 . S
C223 C219 1.391 . S
C223 C222 1.371 . S
C223 H230 0.930 . S
H224 C221 0.928 . S
H225 C222 0.931 . S
H226 C202 0.930 . S
H227 C199 0.930 . S
H228 C208 0.930 . S
H229 C220 0.929 . S
H230 C223 0.930 . S
C231 C232 1.351 . S
C231 N234 1.368 . S
C231 H236 0.931 . S
C232 C231 1.351 . S
C232 N233 1.373 . S
C232 H260 0.930 . S
N233 C232 1.373 . S
N233 C235 1.340 . S
N234 C231 1.368 . S
N234 C235 1.321 . S
N234 Co237 2.135 . S
C235 N233 1.340 . S
C235 N234 1.321 . S
C235 H259 0.930 . S
H236 C231 0.931 . S
Co237 N234 2.135 . S
Co237 N240 2.121 . S
Co237 O245 2.055 . S
Co237 O248 2.039 . S
Co237 N251 2.140 . S
C238 O239 1.227 . S
C238 O248 1.265 . S
O239 C238 1.227 . S
N240 Co237 2.121 . S
N240 C242 1.375 . S
N240 C243 1.313 . S
C241 C242 1.338 . S
C241 N244 1.377 . S
C241 H261 0.930 . S
C242 N240 1.375 . S
C242 C241 1.338 . S
C242 H246 0.931 . S
C243 N240 1.313 . S
C243 N244 1.344 . S
C243 H247 0.930 . S
N244 C241 1.377 . S
N244 C243 1.344 . S
O245 Co237 2.055 . S
O245 C249 1.253 . S
H246 C242 0.931 . S
H247 C243 0.930 . S
O248 Co237 2.039 . S
O248 C238 1.265 . S
C249 O245 1.253 . S
C249 O250 1.227 . S
O250 C249 1.227 . S
N251 Co237 2.140 . S
N251 C254 1.346 . S
N251 C255 1.345 . S
C252 C253 1.387 . S
C252 C256 1.391 . S
C253 C252 1.387 . S
C253 C254 1.369 . S
C253 H262 0.929 . S
C254 N251 1.346 . S
C254 C253 1.369 . S
C254 H257 0.928 . S
C255 N251 1.345 . S
C255 C256 1.371 . S
C255 H258 0.931 . S
C256 C252 1.391 . S
C256 C255 1.371 . S
C256 H263 0.930 . S
H257 C254 0.928 . S
H258 C255 0.931 . S
H259 C235 0.930 . S
H260 C232 0.930 . S
H261 C241 0.930 . S
H262 C253 0.929 . S
H263 C256 0.930 . S
C264 C265 1.351 . S
C264 N267 1.368 . S
C264 H269 0.931 . S
C265 C264 1.351 . S
C265 N266 1.373 . S
C265 H293 0.930 . S
N266 C265 1.373 . S
N266 C268 1.340 . S
N267 C264 1.368 . S
N267 C268 1.321 . S
N267 Co270 2.135 . S
C268 N266 1.340 . S
C268 N267 1.321 . S
C268 H292 0.930 . S
H269 C264 0.931 . S
Co270 N267 2.135 . S
Co270 N273 2.121 . S
Co270 O278 2.055 . S
Co270 O281 2.039 . S
Co270 N284 2.140 . S
C271 O272 1.227 . S
C271 O281 1.265 . S
O272 C271 1.227 . S
N273 Co270 2.121 . S
N273 C275 1.375 . S
N273 C276 1.313 . S
C274 C275 1.338 . S
C274 N277 1.377 . S
C274 H294 0.930 . S
C275 N273 1.375 . S
C275 C274 1.338 . S
C275 H279 0.931 . S
C276 N273 1.313 . S
C276 N277 1.344 . S
C276 H280 0.930 . S
N277 C274 1.377 . S
N277 C276 1.344 . S
O278 Co270 2.055 . S
O278 C282 1.253 . S
H279 C275 0.931 . S
H280 C276 0.930 . S
O281 Co270 2.039 . S
O281 C271 1.265 . S
C282 O278 1.253 . S
C282 O283 1.227 . S
O283 C282 1.227 . S
N284 Co270 2.140 . S
N284 C287 1.346 . S
N284 C288 1.345 . S
C285 C286 1.387 . S
C285 C289 1.391 . S
C286 C285 1.387 . S
C286 C287 1.369 . S
C286 H295 0.929 . S
C287 N284 1.346 . S
C287 C286 1.369 . S
C287 H290 0.928 . S
C288 N284 1.345 . S
C288 C289 1.371 . S
C288 H291 0.931 . S
C289 C285 1.391 . S
C289 C288 1.371 . S
C289 H296 0.930 . S
H290 C287 0.928 . S
H291 C288 0.931 . S
H292 C268 0.930 . S
H293 C265 0.930 . S
H294 C274 0.930 . S
H295 C286 0.929 . S
H296 C289 0.930 . S
C297 C298 1.351 . S
C297 N300 1.368 . S
C297 H302 0.931 . S
C298 C297 1.351 . S
C298 N299 1.373 . S
C298 H326 0.930 . S
N299 C298 1.373 . S
N299 C301 1.340 . S
N300 C297 1.368 . S
N300 C301 1.321 . S
N300 Co303 2.135 . S
C301 N299 1.340 . S
C301 N300 1.321 . S
C301 H325 0.930 . S
H302 C297 0.931 . S
Co303 N300 2.135 . S
Co303 N306 2.121 . S
Co303 O311 2.055 . S
Co303 O314 2.039 . S
Co303 N317 2.140 . S
C304 O305 1.227 . S
C304 O314 1.265 . S
O305 C304 1.227 . S
N306 Co303 2.121 . S
N306 C308 1.375 . S
N306 C309 1.313 . S
C307 C308 1.338 . S
C307 N310 1.377 . S
C307 H327 0.930 . S
C308 N306 1.375 . S
C308 C307 1.338 . S
C308 H312 0.931 . S
C309 N306 1.313 . S
C309 N310 1.344 . S
C309 H313 0.930 . S
N310 C307 1.377 . S
N310 C309 1.344 . S
O311 Co303 2.055 . S
O311 C315 1.253 . S
H312 C308 0.931 . S
H313 C309 0.930 . S
O314 Co303 2.039 . S
O314 C304 1.265 . S
C315 O311 1.253 . S
C315 O316 1.227 . S
O316 C315 1.227 . S
N317 Co303 2.140 . S
N317 C320 1.346 . S
N317 C321 1.345 . S
C318 C319 1.387 . S
C318 C322 1.391 . S
C319 C318 1.387 . S
C319 C320 1.369 . S
C319 H328 0.929 . S
C320 N317 1.346 . S
C320 C319 1.369 . S
C320 H323 0.928 . S
C321 N317 1.345 . S
C321 C322 1.371 . S
C321 H324 0.931 . S
C322 C318 1.391 . S
C322 C321 1.371 . S
C322 H329 0.930 . S
H323 C320 0.928 . S
H324 C321 0.931 . S
H325 C301 0.930 . S
H326 C298 0.930 . S
H327 C307 0.930 . S
H328 C319 0.929 . S
H329 C322 0.930 . S
C330 C331 1.351 . S
C330 N333 1.368 . S
C330 H335 0.931 . S
C331 C330 1.351 . S
C331 N332 1.373 . S
C331 H359 0.930 . S
N332 C331 1.373 . S
N332 C334 1.340 . S
N333 C330 1.368 . S
N333 C334 1.321 . S
N333 Co336 2.135 . S
C334 N332 1.340 . S
C334 N333 1.321 . S
C334 H358 0.930 . S
H335 C330 0.931 . S
Co336 N333 2.135 . S
Co336 N339 2.121 . S
Co336 O344 2.055 . S
Co336 O347 2.039 . S
Co336 N350 2.140 . S
C337 O338 1.227 . S
C337 O347 1.265 . S
O338 C337 1.227 . S
N339 Co336 2.121 . S
N339 C341 1.375 . S
N339 C342 1.313 . S
C340 C341 1.338 . S
C340 N343 1.377 . S
C340 H360 0.930 . S
C341 N339 1.375 . S
C341 C340 1.338 . S
C341 H345 0.931 . S
C342 N339 1.313 . S
C342 N343 1.344 . S
C342 H346 0.930 . S
N343 C340 1.377 . S
N343 C342 1.344 . S
O344 Co336 2.055 . S
O344 C348 1.253 . S
H345 C341 0.931 . S
H346 C342 0.930 . S
O347 Co336 2.039 . S
O347 C337 1.265 . S
C348 O344 1.253 . S
C348 O349 1.227 . S
O349 C348 1.227 . S
N350 Co336 2.140 . S
N350 C353 1.346 . S
N350 C354 1.345 . S
C351 C352 1.387 . S
C351 C355 1.391 . S
C352 C351 1.387 . S
C352 C353 1.369 . S
C352 H361 0.929 . S
C353 N350 1.346 . S
C353 C352 1.369 . S
C353 H356 0.928 . S
C354 N350 1.345 . S
C354 C355 1.371 . S
C354 H357 0.931 . S
C355 C351 1.391 . S
C355 C354 1.371 . S
C355 H362 0.930 . S
H356 C353 0.928 . S
H357 C354 0.931 . S
H358 C334 0.930 . S
H359 C331 0.930 . S
H360 C340 0.930 . S
H361 C352 0.929 . S
H362 C355 0.930 . S
C363 C364 1.351 . S
C363 N366 1.368 . S
C363 H368 0.931 . S
C364 C363 1.351 . S
C364 N365 1.373 . S
C364 H392 0.930 . S
N365 C364 1.373 . S
N365 C367 1.340 . S
N366 C363 1.368 . S
N366 C367 1.321 . S
N366 Co369 2.135 . S
C367 N365 1.340 . S
C367 N366 1.321 . S
C367 H391 0.930 . S
H368 C363 0.931 . S
Co369 N366 2.135 . S
Co369 N372 2.121 . S
Co369 O377 2.055 . S
Co369 O380 2.039 . S
Co369 N383 2.140 . S
C370 O371 1.227 . S
C370 O380 1.265 . S
O371 C370 1.227 . S
N372 Co369 2.121 . S
N372 C374 1.375 . S
N372 C375 1.313 . S
C373 C374 1.338 . S
C373 N376 1.377 . S
C373 H393 0.930 . S
C374 N372 1.375 . S
C374 C373 1.338 . S
C374 H378 0.931 . S
C375 N372 1.313 . S
C375 N376 1.344 . S
C375 H379 0.930 . S
N376 C373 1.377 . S
N376 C375 1.344 . S
O377 Co369 2.055 . S
O377 C381 1.253 . S
H378 C374 0.931 . S
H379 C375 0.930 . S
O380 Co369 2.039 . S
O380 C370 1.265 . S
C381 O377 1.253 . S
C381 O382 1.227 . S
O382 C381 1.227 . S
N383 Co369 2.140 . S
N383 C386 1.346 . S
N383 C387 1.345 . S
C384 C385 1.387 . S
C384 C388 1.391 . S
C385 C384 1.387 . S
C385 C386 1.369 . S
C385 H394 0.929 . S
C386 N383 1.346 . S
C386 C385 1.369 . S
C386 H389 0.928 . S
C387 N383 1.345 . S
C387 C388 1.371 . S
C387 H390 0.931 . S
C388 C384 1.391 . S
C388 C387 1.371 . S
C388 H395 0.930 . S
H389 C386 0.928 . S
H390 C387 0.931 . S
H391 C367 0.930 . S
H392 C364 0.930 . S
H393 C373 0.930 . S
H394 C385 0.929 . S
H395 C388 0.930 . S
C396 C397 1.351 . S
C396 N399 1.368 . S
C396 H401 0.931 . S
C397 C396 1.351 . S
C397 N398 1.373 . S
C397 H425 0.930 . S
N398 C397 1.373 . S
N398 C400 1.340 . S
N399 C396 1.368 . S
N399 C400 1.321 . S
N399 Co402 2.135 . S
C400 N398 1.340 . S
C400 N399 1.321 . S
C400 H424 0.930 . S
H401 C396 0.931 . S
Co402 N399 2.135 . S
Co402 N405 2.121 . S
Co402 O410 2.055 . S
Co402 O413 2.039 . S
Co402 N416 2.140 . S
C403 O404 1.227 . S
C403 O413 1.265 . S
O404 C403 1.227 . S
N405 Co402 2.121 . S
N405 C407 1.375 . S
N405 C408 1.313 . S
C406 C407 1.338 . S
C406 N409 1.377 . S
C406 H426 0.930 . S
C407 N405 1.375 . S
C407 C406 1.338 . S
C407 H411 0.931 . S
C408 N405 1.313 . S
C408 N409 1.344 . S
C408 H412 0.930 . S
N409 C406 1.377 . S
N409 C408 1.344 . S
O410 Co402 2.055 . S
O410 C414 1.253 . S
H411 C407 0.931 . S
H412 C408 0.930 . S
O413 Co402 2.039 . S
O413 C403 1.265 . S
C414 O410 1.253 . S
C414 O415 1.227 . S
O415 C414 1.227 . S
N416 Co402 2.140 . S
N416 C419 1.346 . S
N416 C420 1.345 . S
C417 C418 1.387 . S
C417 C421 1.391 . S
C418 C417 1.387 . S
C418 C419 1.369 . S
C418 H427 0.929 . S
C419 N416 1.346 . S
C419 C418 1.369 . S
C419 H422 0.928 . S
C420 N416 1.345 . S
C420 C421 1.371 . S
C420 H423 0.931 . S
C421 C417 1.391 . S
C421 C420 1.371 . S
C421 H428 0.930 . S
H422 C419 0.928 . S
H423 C420 0.931 . S
H424 C400 0.930 . S
H425 C397 0.930 . S
H426 C406 0.930 . S
H427 C418 0.929 . S
H428 C421 0.930 . S
C429 C430 1.351 . S
C429 N432 1.368 . S
C429 H434 0.931 . S
C430 C429 1.351 . S
C430 N431 1.373 . S
C430 H458 0.930 . S
N431 C430 1.373 . S
N431 C433 1.340 . S
N432 C429 1.368 . S
N432 C433 1.321 . S
N432 Co435 2.135 . S
C433 N431 1.340 . S
C433 N432 1.321 . S
C433 H457 0.930 . S
H434 C429 0.931 . S
Co435 N432 2.135 . S
Co435 N438 2.121 . S
Co435 O443 2.055 . S
Co435 O446 2.039 . S
Co435 N449 2.140 . S
C436 O437 1.227 . S
C436 O446 1.265 . S
O437 C436 1.227 . S
N438 Co435 2.121 . S
N438 C440 1.375 . S
N438 C441 1.313 . S
C439 C440 1.338 . S
C439 N442 1.377 . S
C439 H459 0.930 . S
C440 N438 1.375 . S
C440 C439 1.338 . S
C440 H444 0.931 . S
C441 N438 1.313 . S
C441 N442 1.344 . S
C441 H445 0.930 . S
N442 C439 1.377 . S
N442 C441 1.344 . S
O443 Co435 2.055 . S
O443 C447 1.253 . S
H444 C440 0.931 . S
H445 C441 0.930 . S
O446 Co435 2.039 . S
O446 C436 1.265 . S
C447 O443 1.253 . S
C447 O448 1.227 . S
O448 C447 1.227 . S
N449 Co435 2.140 . S
N449 C452 1.346 . S
N449 C453 1.345 . S
C450 C451 1.387 . S
C450 C454 1.391 . S
C451 C450 1.387 . S
C451 C452 1.369 . S
C451 H460 0.929 . S
C452 N449 1.346 . S
C452 C451 1.369 . S
C452 H455 0.928 . S
C453 N449 1.345 . S
C453 C454 1.371 . S
C453 H456 0.931 . S
C454 C450 1.391 . S
C454 C453 1.371 . S
C454 H461 0.930 . S
H455 C452 0.928 . S
H456 C453 0.931 . S
H457 C433 0.930 . S
H458 C430 0.930 . S
H459 C439 0.930 . S
H460 C451 0.929 . S
H461 C454 0.930 . S
C462 C463 1.351 . S
C462 N465 1.368 . S
C462 H467 0.931 . S
C463 C462 1.351 . S
C463 N464 1.373 . S
C463 H491 0.930 . S
N464 C463 1.373 . S
N464 C466 1.340 . S
N465 C462 1.368 . S
N465 C466 1.321 . S
N465 Co468 2.135 . S
C466 N464 1.340 . S
C466 N465 1.321 . S
C466 H490 0.930 . S
H467 C462 0.931 . S
Co468 N465 2.135 . S
Co468 N471 2.121 . S
Co468 O476 2.055 . S
Co468 O479 2.039 . S
Co468 N482 2.140 . S
C469 O470 1.227 . S
C469 O479 1.265 . S
O470 C469 1.227 . S
N471 Co468 2.121 . S
N471 C473 1.375 . S
N471 C474 1.313 . S
C472 C473 1.338 . S
C472 N475 1.377 . S
C472 H492 0.930 . S
C473 N471 1.375 . S
C473 C472 1.338 . S
C473 H477 0.931 . S
C474 N471 1.313 . S
C474 N475 1.344 . S
C474 H478 0.930 . S
N475 C472 1.377 . S
N475 C474 1.344 . S
O476 Co468 2.055 . S
O476 C480 1.253 . S
H477 C473 0.931 . S
H478 C474 0.930 . S
O479 Co468 2.039 . S
O479 C469 1.265 . S
C480 O476 1.253 . S
C480 O481 1.227 . S
O481 C480 1.227 . S
N482 Co468 2.140 . S
N482 C485 1.346 . S
N482 C486 1.345 . S
C483 C484 1.387 . S
C483 C487 1.391 . S
C484 C483 1.387 . S
C484 C485 1.369 . S
C484 H493 0.929 . S
C485 N482 1.346 . S
C485 C484 1.369 . S
C485 H488 0.928 . S
C486 N482 1.345 . S
C486 C487 1.371 . S
C486 H489 0.931 . S
C487 C483 1.391 . S
C487 C486 1.371 . S
C487 H494 0.930 . S
H488 C485 0.928 . S
H489 C486 0.931 . S
H490 C466 0.930 . S
H491 C463 0.930 . S
H492 C472 0.930 . S
H493 C484 0.929 . S
H494 C487 0.930 . S
C495 C496 1.351 . S
C495 N498 1.368 . S
C495 H500 0.931 . S
C496 C495 1.351 . S
C496 N497 1.373 . S
C496 H524 0.930 . S
N497 C496 1.373 . S
N497 C499 1.340 . S
N498 C495 1.368 . S
N498 C499 1.321 . S
N498 Co501 2.135 . S
C499 N497 1.340 . S
C499 N498 1.321 . S
C499 H523 0.930 . S
H500 C495 0.931 . S
Co501 N498 2.135 . S
Co501 N504 2.121 . S
Co501 O509 2.055 . S
Co501 O512 2.039 . S
Co501 N515 2.140 . S
C502 O503 1.227 . S
C502 O512 1.265 . S
O503 C502 1.227 . S
N504 Co501 2.121 . S
N504 C506 1.375 . S
N504 C507 1.313 . S
C505 C506 1.338 . S
C505 N508 1.377 . S
C505 H525 0.930 . S
C506 N504 1.375 . S
C506 C505 1.338 . S
C506 H510 0.931 . S
C507 N504 1.313 . S
C507 N508 1.344 . S
C507 H511 0.930 . S
N508 C505 1.377 . S
N508 C507 1.344 . S
O509 Co501 2.055 . S
O509 C513 1.253 . S
H510 C506 0.931 . S
H511 C507 0.930 . S
O512 Co501 2.039 . S
O512 C502 1.265 . S
C513 O509 1.253 . S
C513 O514 1.227 . S
O514 C513 1.227 . S
N515 Co501 2.140 . S
N515 C518 1.346 . S
N515 C519 1.345 . S
C516 C517 1.387 . S
C516 C520 1.391 . S
C517 C516 1.387 . S
C517 C518 1.369 . S
C517 H526 0.929 . S
C518 N515 1.346 . S
C518 C517 1.369 . S
C518 H521 0.928 . S
C519 N515 1.345 . S
C519 C520 1.371 . S
C519 H522 0.931 . S
C520 C516 1.391 . S
C520 C519 1.371 . S
C520 H527 0.930 . S
H521 C518 0.928 . S
H522 C519 0.931 . S
H523 C499 0.930 . S
H524 C496 0.930 . S
H525 C505 0.930 . S
H526 C517 0.929 . S
H527 C520 0.930 . S
C528 C529 1.351 . S
C528 N531 1.368 . S
C528 H533 0.931 . S
C529 C528 1.351 . S
C529 N530 1.373 . S
C529 H557 0.930 . S
N530 C529 1.373 . S
N530 C532 1.340 . S
N531 C528 1.368 . S
N531 C532 1.321 . S
N531 Co534 2.135 . S
C532 N530 1.340 . S
C532 N531 1.321 . S
C532 H556 0.930 . S
H533 C528 0.931 . S
Co534 N531 2.135 . S
Co534 N537 2.121 . S
Co534 O542 2.055 . S
Co534 O545 2.039 . S
Co534 N548 2.140 . S
C535 O536 1.227 . S
C535 O545 1.265 . S
O536 C535 1.227 . S
N537 Co534 2.121 . S
N537 C539 1.375 . S
N537 C540 1.313 . S
C538 C539 1.338 . S
C538 N541 1.377 . S
C538 H558 0.930 . S
C539 N537 1.375 . S
C539 C538 1.338 . S
C539 H543 0.931 . S
C540 N537 1.313 . S
C540 N541 1.344 . S
C540 H544 0.930 . S
N541 C538 1.377 . S
N541 C540 1.344 . S
O542 Co534 2.055 . S
O542 C546 1.253 . S
H543 C539 0.931 . S
H544 C540 0.930 . S
O545 Co534 2.039 . S
O545 C535 1.265 . S
C546 O542 1.253 . S
C546 O547 1.227 . S
O547 C546 1.227 . S
N548 Co534 2.140 . S
N548 C551 1.346 . S
N548 C552 1.345 . S
C549 C550 1.387 . S
C549 C553 1.391 . S
C550 C549 1.387 . S
C550 C551 1.369 . S
C550 H559 0.929 . S
C551 N548 1.346 . S
C551 C550 1.369 . S
C551 H554 0.928 . S
C552 N548 1.345 . S
C552 C553 1.371 . S
C552 H555 0.931 . S
C553 C549 1.391 . S
C553 C552 1.371 . S
C553 H560 0.930 . S
H554 C551 0.928 . S
H555 C552 0.931 . S
H556 C532 0.930 . S
H557 C529 0.930 . S
H558 C538 0.930 . S
H559 C550 0.929 . S
H560 C553 0.930 . S
C561 C562 1.351 . S
C561 N564 1.368 . S
C561 H566 0.931 . S
C562 C561 1.351 . S
C562 N563 1.373 . S
C562 H590 0.930 . S
N563 C562 1.373 . S
N563 C565 1.340 . S
N564 C561 1.368 . S
N564 C565 1.321 . S
N564 Co567 2.135 . S
C565 N563 1.340 . S
C565 N564 1.321 . S
C565 H589 0.930 . S
H566 C561 0.931 . S
Co567 N564 2.135 . S
Co567 N570 2.121 . S
Co567 O575 2.055 . S
Co567 O578 2.039 . S
Co567 N581 2.140 . S
C568 O569 1.227 . S
C568 O578 1.265 . S
O569 C568 1.227 . S
N570 Co567 2.121 . S
N570 C572 1.375 . S
N570 C573 1.313 . S
C571 C572 1.338 . S
C571 N574 1.377 . S
C571 H591 0.930 . S
C572 N570 1.375 . S
C572 C571 1.338 . S
C572 H576 0.931 . S
C573 N570 1.313 . S
C573 N574 1.344 . S
C573 H577 0.930 . S
N574 C571 1.377 . S
N574 C573 1.344 . S
O575 Co567 2.055 . S
O575 C579 1.253 . S
H576 C572 0.931 . S
H577 C573 0.930 . S
O578 Co567 2.039 . S
O578 C568 1.265 . S
C579 O575 1.253 . S
C579 O580 1.227 . S
O580 C579 1.227 . S
N581 Co567 2.140 . S
N581 C584 1.346 . S
N581 C585 1.345 . S
C582 C583 1.387 . S
C582 C586 1.391 . S
C583 C582 1.387 . S
C583 C584 1.369 . S
C583 H592 0.929 . S
C584 N581 1.346 . S
C584 C583 1.369 . S
C584 H587 0.928 . S
C585 N581 1.345 . S
C585 C586 1.371 . S
C585 H588 0.931 . S
C586 C582 1.391 . S
C586 C585 1.371 . S
C586 H593 0.930 . S
H587 C584 0.928 . S
H588 C585 0.931 . S
H589 C565 0.930 . S
H590 C562 0.930 . S
H591 C571 0.930 . S
H592 C583 0.929 . S
H593 C586 0.930 . S
C594 C595 1.351 . S
C594 N597 1.368 . S
C594 H599 0.931 . S
C595 C594 1.351 . S
C595 N596 1.373 . S
C595 H623 0.930 . S
N596 C595 1.373 . S
N596 C598 1.340 . S
N597 C594 1.368 . S
N597 C598 1.321 . S
N597 Co600 2.135 . S
C598 N596 1.340 . S
C598 N597 1.321 . S
C598 H622 0.930 . S
H599 C594 0.931 . S
Co600 N597 2.135 . S
Co600 N603 2.121 . S
Co600 O608 2.055 . S
Co600 O611 2.039 . S
Co600 N614 2.140 . S
C601 O602 1.227 . S
C601 O611 1.265 . S
O602 C601 1.227 . S
N603 Co600 2.121 . S
N603 C605 1.375 . S
N603 C606 1.313 . S
C604 C605 1.338 . S
C604 N607 1.377 . S
C604 H624 0.930 . S
C605 N603 1.375 . S
C605 C604 1.338 . S
C605 H609 0.931 . S
C606 N603 1.313 . S
C606 N607 1.344 . S
C606 H610 0.930 . S
N607 C604 1.377 . S
N607 C606 1.344 . S
O608 Co600 2.055 . S
O608 C612 1.253 . S
H609 C605 0.931 . S
H610 C606 0.930 . S
O611 Co600 2.039 . S
O611 C601 1.265 . S
C612 O608 1.253 . S
C612 O613 1.227 . S
O613 C612 1.227 . S
N614 Co600 2.140 . S
N614 C617 1.346 . S
N614 C618 1.345 . S
C615 C616 1.387 . S
C615 C619 1.391 . S
C616 C615 1.387 . S
C616 C617 1.369 . S
C616 H625 0.929 . S
C617 N614 1.346 . S
C617 C616 1.369 . S
C617 H620 0.928 . S
C618 N614 1.345 . S
C618 C619 1.371 . S
C618 H621 0.931 . S
C619 C615 1.391 . S
C619 C618 1.371 . S
C619 H626 0.930 . S
H620 C617 0.928 . S
H621 C618 0.931 . S
H622 C598 0.930 . S
H623 C595 0.930 . S
H624 C604 0.930 . S
H625 C616 0.929 . S
H626 C619 0.930 . S
C627 C628 1.351 . S
C627 N630 1.368 . S
C627 H632 0.931 . S
C628 C627 1.351 . S
C628 N629 1.373 . S
C628 H656 0.930 . S
N629 C628 1.373 . S
N629 C631 1.340 . S
N630 C627 1.368 . S
N630 C631 1.321 . S
N630 Co633 2.135 . S
C631 N629 1.340 . S
C631 N630 1.321 . S
C631 H655 0.930 . S
H632 C627 0.931 . S
Co633 N630 2.135 . S
Co633 N636 2.121 . S
Co633 O641 2.055 . S
Co633 O644 2.039 . S
Co633 N647 2.140 . S
C634 O635 1.227 . S
C634 O644 1.265 . S
O635 C634 1.227 . S
N636 Co633 2.121 . S
N636 C638 1.375 . S
N636 C639 1.313 . S
C637 C638 1.338 . S
C637 N640 1.377 . S
C637 H657 0.930 . S
C638 N636 1.375 . S
C638 C637 1.338 . S
C638 H642 0.931 . S
C639 N636 1.313 . S
C639 N640 1.344 . S
C639 H643 0.930 . S
N640 C637 1.377 . S
N640 C639 1.344 . S
O641 Co633 2.055 . S
O641 C645 1.253 . S
H642 C638 0.931 . S
H643 C639 0.930 . S
O644 Co633 2.039 . S
O644 C634 1.265 . S
C645 O641 1.253 . S
C645 O646 1.227 . S
O646 C645 1.227 . S
N647 Co633 2.140 . S
N647 C650 1.346 . S
N647 C651 1.345 . S
C648 C649 1.387 . S
C648 C652 1.391 . S
C649 C648 1.387 . S
C649 C650 1.369 . S
C649 H658 0.929 . S
C650 N647 1.346 . S
C650 C649 1.369 . S
C650 H653 0.928 . S
C651 N647 1.345 . S
C651 C652 1.371 . S
C651 H654 0.931 . S
C652 C648 1.391 . S
C652 C651 1.371 . S
C652 H659 0.930 . S
H653 C650 0.928 . S
H654 C651 0.931 . S
H655 C631 0.930 . S
H656 C628 0.930 . S
H657 C637 0.930 . S
H658 C649 0.929 . S
H659 C652 0.930 . S
C660 C661 1.351 . S
C660 N663 1.368 . S
C660 H665 0.931 . S
C661 C660 1.351 . S
C661 N662 1.373 . S
C661 H689 0.930 . S
N662 C661 1.373 . S
N662 C664 1.340 . S
N663 C660 1.368 . S
N663 C664 1.321 . S
N663 Co666 2.135 . S
C664 N662 1.340 . S
C664 N663 1.321 . S
C664 H688 0.930 . S
H665 C660 0.931 . S
Co666 N663 2.135 . S
Co666 N669 2.121 . S
Co666 O674 2.055 . S
Co666 O677 2.039 . S
Co666 N680 2.140 . S
C667 O668 1.227 . S
C667 O677 1.265 . S
O668 C667 1.227 . S
N669 Co666 2.121 . S
N669 C671 1.375 . S
N669 C672 1.313 . S
C670 C671 1.338 . S
C670 N673 1.377 . S
C670 H690 0.930 . S
C671 N669 1.375 . S
C671 C670 1.338 . S
C671 H675 0.931 . S
C672 N669 1.313 . S
C672 N673 1.344 . S
C672 H676 0.930 . S
N673 C670 1.377 . S
N673 C672 1.344 . S
O674 Co666 2.055 . S
O674 C678 1.253 . S
H675 C671 0.931 . S
H676 C672 0.930 . S
O677 Co666 2.039 . S
O677 C667 1.265 . S
C678 O674 1.253 . S
C678 O679 1.227 . S
O679 C678 1.227 . S
N680 Co666 2.140 . S
N680 C683 1.346 . S
N680 C684 1.345 . S
C681 C682 1.387 . S
C681 C685 1.391 . S
C682 C681 1.387 . S
C682 C683 1.369 . S
C682 H691 0.929 . S
C683 N680 1.346 . S
C683 C682 1.369 . S
C683 H686 0.928 . S
C684 N680 1.345 . S
C684 C685 1.371 . S
C684 H687 0.931 . S
C685 C681 1.391 . S
C685 C684 1.371 . S
C685 H692 0.930 . S
H686 C683 0.928 . S
H687 C684 0.931 . S
H688 C664 0.930 . S
H689 C661 0.930 . S
H690 C670 0.930 . S
H691 C682 0.929 . S
H692 C685 0.930 . S
C693 C694 1.351 . S
C693 N696 1.368 . S
C693 H698 0.931 . S
C694 C693 1.351 . S
C694 N695 1.373 . S
C694 H722 0.930 . S
N695 C694 1.373 . S
N695 C697 1.340 . S
N696 C693 1.368 . S
N696 C697 1.321 . S
N696 Co699 2.135 . S
C697 N695 1.340 . S
C697 N696 1.321 . S
C697 H721 0.930 . S
H698 C693 0.931 . S
Co699 N696 2.135 . S
Co699 N702 2.121 . S
Co699 O707 2.055 . S
Co699 O710 2.039 . S
Co699 N713 2.140 . S
C700 O701 1.227 . S
C700 O710 1.265 . S
O701 C700 1.227 . S
N702 Co699 2.121 . S
N702 C704 1.375 . S
N702 C705 1.313 . S
C703 C704 1.338 . S
C703 N706 1.377 . S
C703 H723 0.930 . S
C704 N702 1.375 . S
C704 C703 1.338 . S
C704 H708 0.931 . S
C705 N702 1.313 . S
C705 N706 1.344 . S
C705 H709 0.930 . S
N706 C703 1.377 . S
N706 C705 1.344 . S
O707 Co699 2.055 . S
O707 C711 1.253 . S
H708 C704 0.931 . S
H709 C705 0.930 . S
O710 Co699 2.039 . S
O710 C700 1.265 . S
C711 O707 1.253 . S
C711 O712 1.227 . S
O712 C711 1.227 . S
N713 Co699 2.140 . S
N713 C716 1.346 . S
N713 C717 1.345 . S
C714 C715 1.387 . S
C714 C718 1.391 . S
C715 C714 1.387 . S
C715 C716 1.369 . S
C715 H724 0.929 . S
C716 N713 1.346 . S
C716 C715 1.369 . S
C716 H719 0.928 . S
C717 N713 1.345 . S
C717 C718 1.371 . S
C717 H720 0.931 . S
C718 C714 1.391 . S
C718 C717 1.371 . S
C718 H725 0.930 . S
H719 C716 0.928 . S
H720 C717 0.931 . S
H721 C697 0.930 . S
H722 C694 0.930 . S
H723 C703 0.930 . S
H724 C715 0.929 . S
H725 C718 0.930 . S
C726 C727 1.351 . S
C726 N729 1.368 . S
C726 H731 0.931 . S
C727 C726 1.351 . S
C727 N728 1.373 . S
C727 H755 0.930 . S
N728 C727 1.373 . S
N728 C730 1.340 . S
N729 C726 1.368 . S
N729 C730 1.321 . S
N729 Co732 2.135 . S
C730 N728 1.340 . S
C730 N729 1.321 . S
C730 H754 0.930 . S
H731 C726 0.931 . S
Co732 N729 2.135 . S
Co732 N735 2.121 . S
Co732 O740 2.055 . S
Co732 O743 2.039 . S
Co732 N746 2.140 . S
C733 O734 1.227 . S
C733 O743 1.265 . S
O734 C733 1.227 . S
N735 Co732 2.121 . S
N735 C737 1.375 . S
N735 C738 1.313 . S
C736 C737 1.338 . S
C736 N739 1.377 . S
C736 H756 0.930 . S
C737 N735 1.375 . S
C737 C736 1.338 . S
C737 H741 0.931 . S
C738 N735 1.313 . S
C738 N739 1.344 . S
C738 H742 0.930 . S
N739 C736 1.377 . S
N739 C738 1.344 . S
O740 Co732 2.055 . S
O740 C744 1.253 . S
H741 C737 0.931 . S
H742 C738 0.930 . S
O743 Co732 2.039 . S
O743 C733 1.265 . S
C744 O740 1.253 . S
C744 O745 1.227 . S
O745 C744 1.227 . S
N746 Co732 2.140 . S
N746 C749 1.346 . S
N746 C750 1.345 . S
C747 C748 1.387 . S
C747 C751 1.391 . S
C748 C747 1.387 . S
C748 C749 1.369 . S
C748 H757 0.929 . S
C749 N746 1.346 . S
C749 C748 1.369 . S
C749 H752 0.928 . S
C750 N746 1.345 . S
C750 C751 1.371 . S
C750 H753 0.931 . S
C751 C747 1.391 . S
C751 C750 1.371 . S
C751 H758 0.930 . S
H752 C749 0.928 . S
H753 C750 0.931 . S
H754 C730 0.930 . S
H755 C727 0.930 . S
H756 C736 0.930 . S
H757 C748 0.929 . S
H758 C751 0.930 . S
C759 C760 1.351 . S
C759 N762 1.368 . S
C759 H764 0.931 . S
C760 C759 1.351 . S
C760 N761 1.373 . S
C760 H788 0.930 . S
N761 C760 1.373 . S
N761 C763 1.340 . S
N762 C759 1.368 . S
N762 C763 1.321 . S
N762 Co765 2.135 . S
C763 N761 1.340 . S
C763 N762 1.321 . S
C763 H787 0.930 . S
H764 C759 0.931 . S
Co765 N762 2.135 . S
Co765 N768 2.121 . S
Co765 O773 2.055 . S
Co765 O776 2.039 . S
Co765 N779 2.140 . S
C766 O767 1.227 . S
C766 O776 1.265 . S
O767 C766 1.227 . S
N768 Co765 2.121 . S
N768 C770 1.375 . S
N768 C771 1.313 . S
C769 C770 1.338 . S
C769 N772 1.377 . S
C769 H789 0.930 . S
C770 N768 1.375 . S
C770 C769 1.338 . S
C770 H774 0.931 . S
C771 N768 1.313 . S
C771 N772 1.344 . S
C771 H775 0.930 . S
N772 C769 1.377 . S
N772 C771 1.344 . S
O773 Co765 2.055 . S
O773 C777 1.253 . S
H774 C770 0.931 . S
H775 C771 0.930 . S
O776 Co765 2.039 . S
O776 C766 1.265 . S
C777 O773 1.253 . S
C777 O778 1.227 . S
O778 C777 1.227 . S
N779 Co765 2.140 . S
N779 C782 1.346 . S
N779 C783 1.345 . S
C780 C781 1.387 . S
C780 C784 1.391 . S
C781 C780 1.387 . S
C781 C782 1.369 . S
C781 H790 0.929 . S
C782 N779 1.346 . S
C782 C781 1.369 . S
C782 H785 0.928 . S
C783 N779 1.345 . S
C783 C784 1.371 . S
C783 H786 0.931 . S
C784 C780 1.391 . S
C784 C783 1.371 . S
C784 H791 0.930 . S
H785 C782 0.928 . S
H786 C783 0.931 . S
H787 C763 0.930 . S
H788 C760 0.930 . S
H789 C769 0.930 . S
H790 C781 0.929 . S
H791 C784 0.930 . S
C792 C793 1.351 . S
C792 N795 1.368 . S
C792 H797 0.931 . S
C793 C792 1.351 . S
C793 N794 1.373 . S
C793 H821 0.930 . S
N794 C793 1.373 . S
N794 C796 1.340 . S
N795 C792 1.368 . S
N795 C796 1.321 . S
N795 Co798 2.135 . S
C796 N794 1.340 . S
C796 N795 1.321 . S
C796 H820 0.930 . S
H797 C792 0.931 . S
Co798 N795 2.135 . S
Co798 N801 2.121 . S
Co798 O806 2.055 . S
Co798 O809 2.039 . S
Co798 N812 2.140 . S
C799 O800 1.227 . S
C799 O809 1.265 . S
O800 C799 1.227 . S
N801 Co798 2.121 . S
N801 C803 1.375 . S
N801 C804 1.313 . S
C802 C803 1.338 . S
C802 N805 1.377 . S
C802 H822 0.930 . S
C803 N801 1.375 . S
C803 C802 1.338 . S
C803 H807 0.931 . S
C804 N801 1.313 . S
C804 N805 1.344 . S
C804 H808 0.930 . S
N805 C802 1.377 . S
N805 C804 1.344 . S
O806 Co798 2.055 . S
O806 C810 1.253 . S
H807 C803 0.931 . S
H808 C804 0.930 . S
O809 Co798 2.039 . S
O809 C799 1.265 . S
C810 O806 1.253 . S
C810 O811 1.227 . S
O811 C810 1.227 . S
N812 Co798 2.140 . S
N812 C815 1.346 . S
N812 C816 1.345 . S
C813 C814 1.387 . S
C813 C817 1.391 . S
C814 C813 1.387 . S
C814 C815 1.369 . S
C814 H823 0.929 . S
C815 N812 1.346 . S
C815 C814 1.369 . S
C815 H818 0.928 . S
C816 N812 1.345 . S
C816 C817 1.371 . S
C816 H819 0.931 . S
C817 C813 1.391 . S
C817 C816 1.371 . S
C817 H824 0.930 . S
H818 C815 0.928 . S
H819 C816 0.931 . S
H820 C796 0.930 . S
H821 C793 0.930 . S
H822 C802 0.930 . S
H823 C814 0.929 . S
H824 C817 0.930 . S
C825 C826 1.351 . S
C825 N828 1.368 . S
C825 H830 0.931 . S
C826 C825 1.351 . S
C826 N827 1.373 . S
C826 H854 0.930 . S
N827 C826 1.373 . S
N827 C829 1.340 . S
N828 C825 1.368 . S
N828 C829 1.321 . S
N828 Co831 2.135 . S
C829 N827 1.340 . S
C829 N828 1.321 . S
C829 H853 0.930 . S
H830 C825 0.931 . S
Co831 N828 2.135 . S
Co831 N834 2.121 . S
Co831 O839 2.055 . S
Co831 O842 2.039 . S
Co831 N845 2.140 . S
C832 O833 1.227 . S
C832 O842 1.265 . S
O833 C832 1.227 . S
N834 Co831 2.121 . S
N834 C836 1.375 . S
N834 C837 1.313 . S
C835 C836 1.338 . S
C835 N838 1.377 . S
C835 H855 0.930 . S
C836 N834 1.375 . S
C836 C835 1.338 . S
C836 H840 0.931 . S
C837 N834 1.313 . S
C837 N838 1.344 . S
C837 H841 0.930 . S
N838 C835 1.377 . S
N838 C837 1.344 . S
O839 Co831 2.055 . S
O839 C843 1.253 . S
H840 C836 0.931 . S
H841 C837 0.930 . S
O842 Co831 2.039 . S
O842 C832 1.265 . S
C843 O839 1.253 . S
C843 O844 1.227 . S
O844 C843 1.227 . S
N845 Co831 2.140 . S
N845 C848 1.346 . S
N845 C849 1.345 . S
C846 C847 1.387 . S
C846 C850 1.391 . S
C847 C846 1.387 . S
C847 C848 1.369 . S
C847 H856 0.929 . S
C848 N845 1.346 . S
C848 C847 1.369 . S
C848 H851 0.928 . S
C849 N845 1.345 . S
C849 C850 1.371 . S
C849 H852 0.931 . S
C850 C846 1.391 . S
C850 C849 1.371 . S
C850 H857 0.930 . S
H851 C848 0.928 . S
H852 C849 0.931 . S
H853 C829 0.930 . S
H854 C826 0.930 . S
H855 C835 0.930 . S
H856 C847 0.929 . S
H857 C850 0.930 . S
C858 C859 1.351 . S
C858 N861 1.368 . S
C858 H863 0.931 . S
C859 C858 1.351 . S
C859 N860 1.373 . S
C859 H887 0.930 . S
N860 C859 1.373 . S
N860 C862 1.340 . S
N861 C858 1.368 . S
N861 C862 1.321 . S
N861 Co864 2.135 . S
C862 N860 1.340 . S
C862 N861 1.321 . S
C862 H886 0.930 . S
H863 C858 0.931 . S
Co864 N861 2.135 . S
Co864 N867 2.121 . S
Co864 O872 2.055 . S
Co864 O875 2.039 . S
Co864 N878 2.140 . S
C865 O866 1.227 . S
C865 O875 1.265 . S
O866 C865 1.227 . S
N867 Co864 2.121 . S
N867 C869 1.375 . S
N867 C870 1.313 . S
C868 C869 1.338 . S
C868 N871 1.377 . S
C868 H888 0.930 . S
C869 N867 1.375 . S
C869 C868 1.338 . S
C869 H873 0.931 . S
C870 N867 1.313 . S
C870 N871 1.344 . S
C870 H874 0.930 . S
N871 C868 1.377 . S
N871 C870 1.344 . S
O872 Co864 2.055 . S
O872 C876 1.253 . S
H873 C869 0.931 . S
H874 C870 0.930 . S
O875 Co864 2.039 . S
O875 C865 1.265 . S
C876 O872 1.253 . S
C876 O877 1.227 . S
O877 C876 1.227 . S
N878 Co864 2.140 . S
N878 C881 1.346 . S
N878 C882 1.345 . S
C879 C880 1.387 . S
C879 C883 1.391 . S
C880 C879 1.387 . S
C880 C881 1.369 . S
C880 H889 0.929 . S
C881 N878 1.346 . S
C881 C880 1.369 . S
C881 H884 0.928 . S
C882 N878 1.345 . S
C882 C883 1.371 . S
C882 H885 0.931 . S
C883 C879 1.391 . S
C883 C882 1.371 . S
C883 H890 0.930 . S
H884 C881 0.928 . S
H885 C882 0.931 . S
H886 C862 0.930 . S
H887 C859 0.930 . S
H888 C868 0.930 . S
H889 C880 0.929 . S
H890 C883 0.930 . S
C891 C892 1.351 . S
C891 N894 1.368 . S
C891 H896 0.931 . S
C892 C891 1.351 . S
C892 N893 1.373 . S
C892 H920 0.930 . S
N893 C892 1.373 . S
N893 C895 1.340 . S
N894 C891 1.368 . S
N894 C895 1.321 . S
N894 Co897 2.135 . S
C895 N893 1.340 . S
C895 N894 1.321 . S
C895 H919 0.930 . S
H896 C891 0.931 . S
Co897 N894 2.135 . S
Co897 N900 2.121 . S
Co897 O905 2.055 . S
Co897 O908 2.039 . S
Co897 N911 2.140 . S
C898 O899 1.227 . S
C898 O908 1.265 . S
O899 C898 1.227 . S
N900 Co897 2.121 . S
N900 C902 1.375 . S
N900 C903 1.313 . S
C901 C902 1.338 . S
C901 N904 1.377 . S
C901 H921 0.930 . S
C902 N900 1.375 . S
C902 C901 1.338 . S
C902 H906 0.931 . S
C903 N900 1.313 . S
C903 N904 1.344 . S
C903 H907 0.930 . S
N904 C901 1.377 . S
N904 C903 1.344 . S
O905 Co897 2.055 . S
O905 C909 1.253 . S
H906 C902 0.931 . S
H907 C903 0.930 . S
O908 Co897 2.039 . S
O908 C898 1.265 . S
C909 O905 1.253 . S
C909 O910 1.227 . S
O910 C909 1.227 . S
N911 Co897 2.140 . S
N911 C914 1.346 . S
N911 C915 1.345 . S
C912 C913 1.387 . S
C912 C916 1.391 . S
C913 C912 1.387 . S
C913 C914 1.369 . S
C913 H922 0.929 . S
C914 N911 1.346 . S
C914 C913 1.369 . S
C914 H917 0.928 . S
C915 N911 1.345 . S
C915 C916 1.371 . S
C915 H918 0.931 . S
C916 C912 1.391 . S
C916 C915 1.371 . S
C916 H923 0.930 . S
H917 C914 0.928 . S
H918 C915 0.931 . S
H919 C895 0.930 . S
H920 C892 0.930 . S
H921 C901 0.930 . S
H922 C913 0.929 . S
H923 C916 0.930 . S
C924 C925 1.351 . S
C924 N927 1.368 . S
C924 H929 0.931 . S
C925 C924 1.351 . S
C925 N926 1.373 . S
C925 H953 0.930 . S
N926 C925 1.373 . S
N926 C928 1.340 . S
N927 C924 1.368 . S
N927 C928 1.321 . S
N927 Co930 2.135 . S
C928 N926 1.340 . S
C928 N927 1.321 . S
C928 H952 0.930 . S
H929 C924 0.931 . S
Co930 N927 2.135 . S
Co930 N933 2.121 . S
Co930 O938 2.055 . S
Co930 O941 2.039 . S
Co930 N944 2.140 . S
C931 O932 1.227 . S
C931 O941 1.265 . S
O932 C931 1.227 . S
N933 Co930 2.121 . S
N933 C935 1.375 . S
N933 C936 1.313 . S
C934 C935 1.338 . S
C934 N937 1.377 . S
C934 H954 0.930 . S
C935 N933 1.375 . S
C935 C934 1.338 . S
C935 H939 0.931 . S
C936 N933 1.313 . S
C936 N937 1.344 . S
C936 H940 0.930 . S
N937 C934 1.377 . S
N937 C936 1.344 . S
O938 Co930 2.055 . S
O938 C942 1.253 . S
H939 C935 0.931 . S
H940 C936 0.930 . S
O941 Co930 2.039 . S
O941 C931 1.265 . S
C942 O938 1.253 . S
C942 O943 1.227 . S
O943 C942 1.227 . S
N944 Co930 2.140 . S
N944 C947 1.346 . S
N944 C948 1.345 . S
C945 C946 1.387 . S
C945 C949 1.391 . S
C946 C945 1.387 . S
C946 C947 1.369 . S
C946 H955 0.929 . S
C947 N944 1.346 . S
C947 C946 1.369 . S
C947 H950 0.928 . S
C948 N944 1.345 . S
C948 C949 1.371 . S
C948 H951 0.931 . S
C949 C945 1.391 . S
C949 C948 1.371 . S
C949 H956 0.930 . S
H950 C947 0.928 . S
H951 C948 0.931 . S
H952 C928 0.930 . S
H953 C925 0.930 . S
H954 C934 0.930 . S
H955 C946 0.929 . S
H956 C949 0.930 . S
C957 C958 1.351 . S
C957 N960 1.368 . S
C957 H962 0.931 . S
C958 C957 1.351 . S
C958 N959 1.373 . S
C958 H986 0.930 . S
N959 C958 1.373 . S
N959 C961 1.340 . S
N960 C957 1.368 . S
N960 C961 1.321 . S
N960 Co963 2.135 . S
C961 N959 1.340 . S
C961 N960 1.321 . S
C961 H985 0.930 . S
H962 C957 0.931 . S
Co963 N960 2.135 . S
Co963 N966 2.121 . S
Co963 O971 2.055 . S
Co963 O974 2.039 . S
Co963 N977 2.140 . S
C964 O965 1.227 . S
C964 O974 1.265 . S
O965 C964 1.227 . S
N966 Co963 2.121 . S
N966 C968 1.375 . S
N966 C969 1.313 . S
C967 C968 1.338 . S
C967 N970 1.377 . S
C967 H987 0.930 . S
C968 N966 1.375 . S
C968 C967 1.338 . S
C968 H972 0.931 . S
C969 N966 1.313 . S
C969 N970 1.344 . S
C969 H973 0.930 . S
N970 C967 1.377 . S
N970 C969 1.344 . S
O971 Co963 2.055 . S
O971 C975 1.253 . S
H972 C968 0.931 . S
H973 C969 0.930 . S
O974 Co963 2.039 . S
O974 C964 1.265 . S
C975 O971 1.253 . S
C975 O976 1.227 . S
O976 C975 1.227 . S
N977 Co963 2.140 . S
N977 C980 1.346 . S
N977 C981 1.345 . S
C978 C979 1.387 . S
C978 C982 1.391 . S
C979 C978 1.387 . S
C979 C980 1.369 . S
C979 H988 0.929 . S
C980 N977 1.346 . S
C980 C979 1.369 . S
C980 H983 0.928 . S
C981 N977 1.345 . S
C981 C982 1.371 . S
C981 H984 0.931 . S
C982 C978 1.391 . S
C982 C981 1.371 . S
C982 H989 0.930 . S
H983 C980 0.928 . S
H984 C981 0.931 . S
H985 C961 0.930 . S
H986 C958 0.930 . S
H987 C967 0.930 . S
H988 C979 0.929 . S
H989 C982 0.930 . S
C990 C991 1.351 . S
C990 N993 1.368 . S
C990 H995 0.931 . S
C991 C990 1.351 . S
C991 N992 1.373 . S
C991 H1019 0.930 . S
N992 C991 1.373 . S
N992 C994 1.340 . S
N993 C990 1.368 . S
N993 C994 1.321 . S
N993 Co996 2.135 . S
C994 N992 1.340 . S
C994 N993 1.321 . S
C994 H1018 0.930 . S
H995 C990 0.931 . S
Co996 N993 2.135 . S
Co996 N999 2.121 . S
Co996 O1004 2.055 . S
Co996 O1007 2.039 . S
Co996 N1010 2.140 . S
C997 O998 1.227 . S
C997 O1007 1.265 . S
O998 C997 1.227 . S
N999 Co996 2.121 . S
N999 C1001 1.375 . S
N999 C1002 1.313 . S
C1000 C1001 1.338 . S
C1000 N1003 1.377 . S
C1000 H1020 0.930 . S
C1001 N999 1.375 . S
C1001 C1000 1.338 . S
C1001 H1005 0.931 . S
C1002 N999 1.313 . S
C1002 N1003 1.344 . S
C1002 H1006 0.930 . S
N1003 C1000 1.377 . S
N1003 C1002 1.344 . S
O1004 Co996 2.055 . S
O1004 C1008 1.253 . S
H1005 C1001 0.931 . S
H1006 C1002 0.930 . S
O1007 Co996 2.039 . S
O1007 C997 1.265 . S
C1008 O1004 1.253 . S
C1008 O1009 1.227 . S
O1009 C1008 1.227 . S
N1010 Co996 2.140 . S
N1010 C1013 1.346 . S
N1010 C1014 1.345 . S
C1011 C1012 1.387 . S
C1011 C1015 1.391 . S
C1012 C1011 1.387 . S
C1012 C1013 1.369 . S
C1012 H1021 0.929 . S
C1013 N1010 1.346 . S
C1013 C1012 1.369 . S
C1013 H1016 0.928 . S
C1014 N1010 1.345 . S
C1014 C1015 1.371 . S
C1014 H1017 0.931 . S
C1015 C1011 1.391 . S
C1015 C1014 1.371 . S
C1015 H1022 0.930 . S
H1016 C1013 0.928 . S
H1017 C1014 0.931 . S
H1018 C994 0.930 . S
H1019 C991 0.930 . S
H1020 C1000 0.930 . S
H1021 C1012 0.929 . S
H1022 C1015 0.930 . S
C1023 C1024 1.351 . S
C1023 N1026 1.368 . S
C1023 H1028 0.931 . S
C1024 C1023 1.351 . S
C1024 N1025 1.373 . S
C1024 H1052 0.930 . S
N1025 C1024 1.373 . S
N1025 C1027 1.340 . S
N1026 C1023 1.368 . S
N1026 C1027 1.321 . S
N1026 Co1029 2.135 . S
C1027 N1025 1.340 . S
C1027 N1026 1.321 . S
C1027 H1051 0.930 . S
H1028 C1023 0.931 . S
Co1029 N1026 2.135 . S
Co1029 N1032 2.121 . S
Co1029 O1037 2.055 . S
Co1029 O1040 2.039 . S
Co1029 N1043 2.140 . S
C1030 O1031 1.227 . S
C1030 O1040 1.265 . S
O1031 C1030 1.227 . S
N1032 Co1029 2.121 . S
N1032 C1034 1.375 . S
N1032 C1035 1.313 . S
C1033 C1034 1.338 . S
C1033 N1036 1.377 . S
C1033 H1053 0.930 . S
C1034 N1032 1.375 . S
C1034 C1033 1.338 . S
C1034 H1038 0.931 . S
C1035 N1032 1.313 . S
C1035 N1036 1.344 . S
C1035 H1039 0.930 . S
N1036 C1033 1.377 . S
N1036 C1035 1.344 . S
O1037 Co1029 2.055 . S
O1037 C1041 1.253 . S
H1038 C1034 0.931 . S
H1039 C1035 0.930 . S
O1040 Co1029 2.039 . S
O1040 C1030 1.265 . S
C1041 O1037 1.253 . S
C1041 O1042 1.227 . S
O1042 C1041 1.227 . S
N1043 Co1029 2.140 . S
N1043 C1046 1.346 . S
N1043 C1047 1.345 . S
C1044 C1045 1.387 . S
C1044 C1048 1.391 . S
C1045 C1044 1.387 . S
C1045 C1046 1.369 . S
C1045 H1054 0.929 . S
C1046 N1043 1.346 . S
C1046 C1045 1.369 . S
C1046 H1049 0.928 . S
C1047 N1043 1.345 . S
C1047 C1048 1.371 . S
C1047 H1050 0.931 . S
C1048 C1044 1.391 . S
C1048 C1047 1.371 . S
C1048 H1055 0.930 . S
H1049 C1046 0.928 . S
H1050 C1047 0.931 . S
H1051 C1027 0.930 . S
H1052 C1024 0.930 . S
H1053 C1033 0.930 . S
H1054 C1045 0.929 . S
H1055 C1048 0.930 . S
C1056 C1057 1.351 . S
C1056 N1059 1.368 . S
C1056 H1061 0.931 . S
C1057 C1056 1.351 . S
C1057 N1058 1.373 . S
C1057 H1085 0.930 . S
N1058 C1057 1.373 . S
N1058 C1060 1.340 . S
N1059 C1056 1.368 . S
N1059 C1060 1.321 . S
N1059 Co1062 2.135 . S
C1060 N1058 1.340 . S
C1060 N1059 1.321 . S
C1060 H1084 0.930 . S
H1061 C1056 0.931 . S
Co1062 N1059 2.135 . S
Co1062 N1065 2.121 . S
Co1062 O1070 2.055 . S
Co1062 O1073 2.039 . S
Co1062 N1076 2.140 . S
C1063 O1064 1.227 . S
C1063 O1073 1.265 . S
O1064 C1063 1.227 . S
N1065 Co1062 2.121 . S
N1065 C1067 1.375 . S
N1065 C1068 1.313 . S
C1066 C1067 1.338 . S
C1066 N1069 1.377 . S
C1066 H1086 0.930 . S
C1067 N1065 1.375 . S
C1067 C1066 1.338 . S
C1067 H1071 0.931 . S
C1068 N1065 1.313 . S
C1068 N1069 1.344 . S
C1068 H1072 0.930 . S
N1069 C1066 1.377 . S
N1069 C1068 1.344 . S
O1070 Co1062 2.055 . S
O1070 C1074 1.253 . S
H1071 C1067 0.931 . S
H1072 C1068 0.930 . S
O1073 Co1062 2.039 . S
O1073 C1063 1.265 . S
C1074 O1070 1.253 . S
C1074 O1075 1.227 . S
O1075 C1074 1.227 . S
N1076 Co1062 2.140 . S
N1076 C1079 1.346 . S
N1076 C1080 1.345 . S
C1077 C1078 1.387 . S
C1077 C1081 1.391 . S
C1078 C1077 1.387 . S
C1078 C1079 1.369 . S
C1078 H1087 0.929 . S
C1079 N1076 1.346 . S
C1079 C1078 1.369 . S
C1079 H1082 0.928 . S
C1080 N1076 1.345 . S
C1080 C1081 1.371 . S
C1080 H1083 0.931 . S
C1081 C1077 1.391 . S
C1081 C1080 1.371 . S
C1081 H1088 0.930 . S
H1082 C1079 0.928 . S
H1083 C1080 0.931 . S
H1084 C1060 0.930 . S
H1085 C1057 0.930 . S
H1086 C1066 0.930 . S
H1087 C1078 0.929 . S
H1088 C1081 0.930 . S
C1089 C1090 1.351 . S
C1089 N1092 1.368 . S
C1089 H1094 0.931 . S
C1090 C1089 1.351 . S
C1090 N1091 1.373 . S
C1090 H1118 0.930 . S
N1091 C1090 1.373 . S
N1091 C1093 1.340 . S
N1092 C1089 1.368 . S
N1092 C1093 1.321 . S
N1092 Co1095 2.135 . S
C1093 N1091 1.340 . S
C1093 N1092 1.321 . S
C1093 H1117 0.930 . S
H1094 C1089 0.931 . S
Co1095 N1092 2.135 . S
Co1095 N1098 2.121 . S
Co1095 O1103 2.055 . S
Co1095 O1106 2.039 . S
Co1095 N1109 2.140 . S
C1096 O1097 1.227 . S
C1096 O1106 1.265 . S
O1097 C1096 1.227 . S
N1098 Co1095 2.121 . S
N1098 C1100 1.375 . S
N1098 C1101 1.313 . S
C1099 C1100 1.338 . S
C1099 N1102 1.377 . S
C1099 H1119 0.930 . S
C1100 N1098 1.375 . S
C1100 C1099 1.338 . S
C1100 H1104 0.931 . S
C1101 N1098 1.313 . S
C1101 N1102 1.344 . S
C1101 H1105 0.930 . S
N1102 C1099 1.377 . S
N1102 C1101 1.344 . S
O1103 Co1095 2.055 . S
O1103 C1107 1.253 . S
H1104 C1100 0.931 . S
H1105 C1101 0.930 . S
O1106 Co1095 2.039 . S
O1106 C1096 1.265 . S
C1107 O1103 1.253 . S
C1107 O1108 1.227 . S
O1108 C1107 1.227 . S
N1109 Co1095 2.140 . S
N1109 C1112 1.346 . S
N1109 C1113 1.345 . S
C1110 C1111 1.387 . S
C1110 C1114 1.391 . S
C1111 C1110 1.387 . S
C1111 C1112 1.369 . S
C1111 H1120 0.929 . S
C1112 N1109 1.346 . S
C1112 C1111 1.369 . S
C1112 H1115 0.928 . S
C1113 N1109 1.345 . S
C1113 C1114 1.371 . S
C1113 H1116 0.931 . S
C1114 C1110 1.391 . S
C1114 C1113 1.371 . S
C1114 H1121 0.930 . S
H1115 C1112 0.928 . S
H1116 C1113 0.931 . S
H1117 C1093 0.930 . S
H1118 C1090 0.930 . S
H1119 C1099 0.930 . S
H1120 C1111 0.929 . S
H1121 C1114 0.930 . S
C1122 C1123 1.351 . S
C1122 N1125 1.368 . S
C1122 H1127 0.931 . S
C1123 C1122 1.351 . S
C1123 N1124 1.373 . S
C1123 H1151 0.930 . S
N1124 C1123 1.373 . S
N1124 C1126 1.340 . S
N1125 C1122 1.368 . S
N1125 C1126 1.321 . S
N1125 Co1128 2.135 . S
C1126 N1124 1.340 . S
C1126 N1125 1.321 . S
C1126 H1150 0.930 . S
H1127 C1122 0.931 . S
Co1128 N1125 2.135 . S
Co1128 N1131 2.121 . S
Co1128 O1136 2.055 . S
Co1128 O1139 2.039 . S
Co1128 N1142 2.140 . S
C1129 O1130 1.227 . S
C1129 O1139 1.265 . S
O1130 C1129 1.227 . S
N1131 Co1128 2.121 . S
N1131 C1133 1.375 . S
N1131 C1134 1.313 . S
C1132 C1133 1.338 . S
C1132 N1135 1.377 . S
C1132 H1152 0.930 . S
C1133 N1131 1.375 . S
C1133 C1132 1.338 . S
C1133 H1137 0.931 . S
C1134 N1131 1.313 . S
C1134 N1135 1.344 . S
C1134 H1138 0.930 . S
N1135 C1132 1.377 . S
N1135 C1134 1.344 . S
O1136 Co1128 2.055 . S
O1136 C1140 1.253 . S
H1137 C1133 0.931 . S
H1138 C1134 0.930 . S
O1139 Co1128 2.039 . S
O1139 C1129 1.265 . S
C1140 O1136 1.253 . S
C1140 O1141 1.227 . S
O1141 C1140 1.227 . S
N1142 Co1128 2.140 . S
N1142 C1145 1.346 . S
N1142 C1146 1.345 . S
C1143 C1144 1.387 . S
C1143 C1147 1.391 . S
C1144 C1143 1.387 . S
C1144 C1145 1.369 . S
C1144 H1153 0.929 . S
C1145 N1142 1.346 . S
C1145 C1144 1.369 . S
C1145 H1148 0.928 . S
C1146 N1142 1.345 . S
C1146 C1147 1.371 . S
C1146 H1149 0.931 . S
C1147 C1143 1.391 . S
C1147 C1146 1.371 . S
C1147 H1154 0.930 . S
H1148 C1145 0.928 . S
H1149 C1146 0.931 . S
H1150 C1126 0.930 . S
H1151 C1123 0.930 . S
H1152 C1132 0.930 . S
H1153 C1144 0.929 . S
H1154 C1147 0.930 . S
C1155 C1156 1.351 . S
C1155 N1158 1.368 . S
C1155 H1160 0.931 . S
C1156 C1155 1.351 . S
C1156 N1157 1.373 . S
C1156 H1184 0.930 . S
N1157 C1156 1.373 . S
N1157 C1159 1.340 . S
N1158 C1155 1.368 . S
N1158 C1159 1.321 . S
N1158 Co1161 2.135 . S
C1159 N1157 1.340 . S
C1159 N1158 1.321 . S
C1159 H1183 0.930 . S
H1160 C1155 0.931 . S
Co1161 N1158 2.135 . S
Co1161 N1164 2.121 . S
Co1161 O1169 2.055 . S
Co1161 O1172 2.039 . S
Co1161 N1175 2.140 . S
C1162 O1163 1.227 . S
C1162 O1172 1.265 . S
O1163 C1162 1.227 . S
N1164 Co1161 2.121 . S
N1164 C1166 1.375 . S
N1164 C1167 1.313 . S
C1165 C1166 1.338 . S
C1165 N1168 1.377 . S
C1165 H1185 0.930 . S
C1166 N1164 1.375 . S
C1166 C1165 1.338 . S
C1166 H1170 0.931 . S
C1167 N1164 1.313 . S
C1167 N1168 1.344 . S
C1167 H1171 0.930 . S
N1168 C1165 1.377 . S
N1168 C1167 1.344 . S
O1169 Co1161 2.055 . S
O1169 C1173 1.253 . S
H1170 C1166 0.931 . S
H1171 C1167 0.930 . S
O1172 Co1161 2.039 . S
O1172 C1162 1.265 . S
C1173 O1169 1.253 . S
C1173 O1174 1.227 . S
O1174 C1173 1.227 . S
N1175 Co1161 2.140 . S
N1175 C1178 1.346 . S
N1175 C1179 1.345 . S
C1176 C1177 1.387 . S
C1176 C1180 1.391 . S
C1177 C1176 1.387 . S
C1177 C1178 1.369 . S
C1177 H1186 0.929 . S
C1178 N1175 1.346 . S
C1178 C1177 1.369 . S
C1178 H1181 0.928 . S
C1179 N1175 1.345 . S
C1179 C1180 1.371 . S
C1179 H1182 0.931 . S
C1180 C1176 1.391 . S
C1180 C1179 1.371 . S
C1180 H1187 0.930 . S
H1181 C1178 0.928 . S
H1182 C1179 0.931 . S
H1183 C1159 0.930 . S
H1184 C1156 0.930 . S
H1185 C1165 0.930 . S
H1186 C1177 0.929 . S
H1187 C1180 0.930 . S
C1188 C1189 1.351 . S
C1188 N1191 1.368 . S
C1188 H1193 0.931 . S
C1189 C1188 1.351 . S
C1189 N1190 1.373 . S
C1189 H1217 0.930 . S
N1190 C1189 1.373 . S
N1190 C1192 1.340 . S
N1191 C1188 1.368 . S
N1191 C1192 1.321 . S
N1191 Co1194 2.135 . S
C1192 N1190 1.340 . S
C1192 N1191 1.321 . S
C1192 H1216 0.930 . S
H1193 C1188 0.931 . S
Co1194 N1191 2.135 . S
Co1194 N1197 2.121 . S
Co1194 O1202 2.055 . S
Co1194 O1205 2.039 . S
Co1194 N1208 2.140 . S
C1195 O1196 1.227 . S
C1195 O1205 1.265 . S
O1196 C1195 1.227 . S
N1197 Co1194 2.121 . S
N1197 C1199 1.375 . S
N1197 C1200 1.313 . S
C1198 C1199 1.338 . S
C1198 N1201 1.377 . S
C1198 H1218 0.930 . S
C1199 N1197 1.375 . S
C1199 C1198 1.338 . S
C1199 H1203 0.931 . S
C1200 N1197 1.313 . S
C1200 N1201 1.344 . S
C1200 H1204 0.930 . S
N1201 C1198 1.377 . S
N1201 C1200 1.344 . S
O1202 Co1194 2.055 . S
O1202 C1206 1.253 . S
H1203 C1199 0.931 . S
H1204 C1200 0.930 . S
O1205 Co1194 2.039 . S
O1205 C1195 1.265 . S
C1206 O1202 1.253 . S
C1206 O1207 1.227 . S
O1207 C1206 1.227 . S
N1208 Co1194 2.140 . S
N1208 C1211 1.346 . S
N1208 C1212 1.345 . S
C1209 C1210 1.387 . S
C1209 C1213 1.391 . S
C1210 C1209 1.387 . S
C1210 C1211 1.369 . S
C1210 H1219 0.929 . S
C1211 N1208 1.346 . S
C1211 C1210 1.369 . S
C1211 H1214 0.928 . S
C1212 N1208 1.345 . S
C1212 C1213 1.371 . S
C1212 H1215 0.931 . S
C1213 C1209 1.391 . S
C1213 C1212 1.371 . S
C1213 H1220 0.930 . S
H1214 C1211 0.928 . S
H1215 C1212 0.931 . S
H1216 C1192 0.930 . S
H1217 C1189 0.930 . S
H1218 C1198 0.930 . S
H1219 C1210 0.929 . S
H1220 C1213 0.930 . S
C1221 C1222 1.351 . S
C1221 N1224 1.368 . S
C1221 H1226 0.931 . S
C1222 C1221 1.351 . S
C1222 N1223 1.373 . S
C1222 H1250 0.930 . S
N1223 C1222 1.373 . S
N1223 C1225 1.340 . S
N1224 C1221 1.368 . S
N1224 C1225 1.321 . S
N1224 Co1227 2.135 . S
C1225 N1223 1.340 . S
C1225 N1224 1.321 . S
C1225 H1249 0.930 . S
H1226 C1221 0.931 . S
Co1227 N1224 2.135 . S
Co1227 N1230 2.121 . S
Co1227 O1235 2.055 . S
Co1227 O1238 2.039 . S
Co1227 N1241 2.140 . S
C1228 O1229 1.227 . S
C1228 O1238 1.265 . S
O1229 C1228 1.227 . S
N1230 Co1227 2.121 . S
N1230 C1232 1.375 . S
N1230 C1233 1.313 . S
C1231 C1232 1.338 . S
C1231 N1234 1.377 . S
C1231 H1251 0.930 . S
C1232 N1230 1.375 . S
C1232 C1231 1.338 . S
C1232 H1236 0.931 . S
C1233 N1230 1.313 . S
C1233 N1234 1.344 . S
C1233 H1237 0.930 . S
N1234 C1231 1.377 . S
N1234 C1233 1.344 . S
O1235 Co1227 2.055 . S
O1235 C1239 1.253 . S
H1236 C1232 0.931 . S
H1237 C1233 0.930 . S
O1238 Co1227 2.039 . S
O1238 C1228 1.265 . S
C1239 O1235 1.253 . S
C1239 O1240 1.227 . S
O1240 C1239 1.227 . S
N1241 Co1227 2.140 . S
N1241 C1244 1.346 . S
N1241 C1245 1.345 . S
C1242 C1243 1.387 . S
C1242 C1246 1.391 . S
C1243 C1242 1.387 . S
C1243 C1244 1.369 . S
C1243 H1252 0.929 . S
C1244 N1241 1.346 . S
C1244 C1243 1.369 . S
C1244 H1247 0.928 . S
C1245 N1241 1.345 . S
C1245 C1246 1.371 . S
C1245 H1248 0.931 . S
C1246 C1242 1.391 . S
C1246 C1245 1.371 . S
C1246 H1253 0.930 . S
H1247 C1244 0.928 . S
H1248 C1245 0.931 . S
H1249 C1225 0.930 . S
H1250 C1222 0.930 . S
H1251 C1231 0.930 . S
H1252 C1243 0.929 . S
H1253 C1246 0.930 . S
C1254 C1255 1.351 . S
C1254 N1257 1.368 . S
C1254 H1259 0.931 . S
C1255 C1254 1.351 . S
C1255 N1256 1.373 . S
C1255 H1283 0.930 . S
N1256 C1255 1.373 . S
N1256 C1258 1.340 . S
N1257 C1254 1.368 . S
N1257 C1258 1.321 . S
N1257 Co1260 2.135 . S
C1258 N1256 1.340 . S
C1258 N1257 1.321 . S
C1258 H1282 0.930 . S
H1259 C1254 0.931 . S
Co1260 N1257 2.135 . S
Co1260 N1263 2.121 . S
Co1260 O1268 2.055 . S
Co1260 O1271 2.039 . S
Co1260 N1274 2.140 . S
C1261 O1262 1.227 . S
C1261 O1271 1.265 . S
O1262 C1261 1.227 . S
N1263 Co1260 2.121 . S
N1263 C1265 1.375 . S
N1263 C1266 1.313 . S
C1264 C1265 1.338 . S
C1264 N1267 1.377 . S
C1264 H1284 0.930 . S
C1265 N1263 1.375 . S
C1265 C1264 1.338 . S
C1265 H1269 0.931 . S
C1266 N1263 1.313 . S
C1266 N1267 1.344 . S
C1266 H1270 0.930 . S
N1267 C1264 1.377 . S
N1267 C1266 1.344 . S
O1268 Co1260 2.055 . S
O1268 C1272 1.253 . S
H1269 C1265 0.931 . S
H1270 C1266 0.930 . S
O1271 Co1260 2.039 . S
O1271 C1261 1.265 . S
C1272 O1268 1.253 . S
C1272 O1273 1.227 . S
O1273 C1272 1.227 . S
N1274 Co1260 2.140 . S
N1274 C1277 1.346 . S
N1274 C1278 1.345 . S
C1275 C1276 1.387 . S
C1275 C1279 1.391 . S
C1276 C1275 1.387 . S
C1276 C1277 1.369 . S
C1276 H1285 0.929 . S
C1277 N1274 1.346 . S
C1277 C1276 1.369 . S
C1277 H1280 0.928 . S
C1278 N1274 1.345 . S
C1278 C1279 1.371 . S
C1278 H1281 0.931 . S
C1279 C1275 1.391 . S
C1279 C1278 1.371 . S
C1279 H1286 0.930 . S
H1280 C1277 0.928 . S
H1281 C1278 0.931 . S
H1282 C1258 0.930 . S
H1283 C1255 0.930 . S
H1284 C1264 0.930 . S
H1285 C1276 0.929 . S
H1286 C1279 0.930 . S
C1287 C1288 1.351 . S
C1287 N1290 1.368 . S
C1287 H1292 0.931 . S
C1288 C1287 1.351 . S
C1288 N1289 1.373 . S
C1288 H1316 0.930 . S
N1289 C1288 1.373 . S
N1289 C1291 1.340 . S
N1290 C1287 1.368 . S
N1290 C1291 1.321 . S
N1290 Co1293 2.135 . S
C1291 N1289 1.340 . S
C1291 N1290 1.321 . S
C1291 H1315 0.930 . S
H1292 C1287 0.931 . S
Co1293 N1290 2.135 . S
Co1293 N1296 2.121 . S
Co1293 O1301 2.055 . S
Co1293 O1304 2.039 . S
Co1293 N1307 2.140 . S
C1294 O1295 1.227 . S
C1294 O1304 1.265 . S
O1295 C1294 1.227 . S
N1296 Co1293 2.121 . S
N1296 C1298 1.375 . S
N1296 C1299 1.313 . S
C1297 C1298 1.338 . S
C1297 N1300 1.377 . S
C1297 H1317 0.930 . S
C1298 N1296 1.375 . S
C1298 C1297 1.338 . S
C1298 H1302 0.931 . S
C1299 N1296 1.313 . S
C1299 N1300 1.344 . S
C1299 H1303 0.930 . S
N1300 C1297 1.377 . S
N1300 C1299 1.344 . S
O1301 Co1293 2.055 . S
O1301 C1305 1.253 . S
H1302 C1298 0.931 . S
H1303 C1299 0.930 . S
O1304 Co1293 2.039 . S
O1304 C1294 1.265 . S
C1305 O1301 1.253 . S
C1305 O1306 1.227 . S
O1306 C1305 1.227 . S
N1307 Co1293 2.140 . S
N1307 C1310 1.346 . S
N1307 C1311 1.345 . S
C1308 C1309 1.387 . S
C1308 C1312 1.391 . S
C1309 C1308 1.387 . S
C1309 C1310 1.369 . S
C1309 H1318 0.929 . S
C1310 N1307 1.346 . S
C1310 C1309 1.369 . S
C1310 H1313 0.928 . S
C1311 N1307 1.345 . S
C1311 C1312 1.371 . S
C1311 H1314 0.931 . S
C1312 C1308 1.391 . S
C1312 C1311 1.371 . S
C1312 H1319 0.930 . S
H1313 C1310 0.928 . S
H1314 C1311 0.931 . S
H1315 C1291 0.930 . S
H1316 C1288 0.930 . S
H1317 C1297 0.930 . S
H1318 C1309 0.929 . S
H1319 C1312 0.930 . S
C1320 C1321 1.351 . S
C1320 N1323 1.368 . S
C1320 H1325 0.931 . S
C1321 C1320 1.351 . S
C1321 N1322 1.373 . S
C1321 H1349 0.930 . S
N1322 C1321 1.373 . S
N1322 C1324 1.340 . S
N1323 C1320 1.368 . S
N1323 C1324 1.321 . S
N1323 Co1326 2.135 . S
C1324 N1322 1.340 . S
C1324 N1323 1.321 . S
C1324 H1348 0.930 . S
H1325 C1320 0.931 . S
Co1326 N1323 2.135 . S
Co1326 N1329 2.121 . S
Co1326 O1334 2.055 . S
Co1326 O1337 2.039 . S
Co1326 N1340 2.140 . S
C1327 O1328 1.227 . S
C1327 O1337 1.265 . S
O1328 C1327 1.227 . S
N1329 Co1326 2.121 . S
N1329 C1331 1.375 . S
N1329 C1332 1.313 . S
C1330 C1331 1.338 . S
C1330 N1333 1.377 . S
C1330 H1350 0.930 . S
C1331 N1329 1.375 . S
C1331 C1330 1.338 . S
C1331 H1335 0.931 . S
C1332 N1329 1.313 . S
C1332 N1333 1.344 . S
C1332 H1336 0.930 . S
N1333 C1330 1.377 . S
N1333 C1332 1.344 . S
O1334 Co1326 2.055 . S
O1334 C1338 1.253 . S
H1335 C1331 0.931 . S
H1336 C1332 0.930 . S
O1337 Co1326 2.039 . S
O1337 C1327 1.265 . S
C1338 O1334 1.253 . S
C1338 O1339 1.227 . S
O1339 C1338 1.227 . S
N1340 Co1326 2.140 . S
N1340 C1343 1.346 . S
N1340 C1344 1.345 . S
C1341 C1342 1.387 . S
C1341 C1345 1.391 . S
C1342 C1341 1.387 . S
C1342 C1343 1.369 . S
C1342 H1351 0.929 . S
C1343 N1340 1.346 . S
C1343 C1342 1.369 . S
C1343 H1346 0.928 . S
C1344 N1340 1.345 . S
C1344 C1345 1.371 . S
C1344 H1347 0.931 . S
C1345 C1341 1.391 . S
C1345 C1344 1.371 . S
C1345 H1352 0.930 . S
H1346 C1343 0.928 . S
H1347 C1344 0.931 . S
H1348 C1324 0.930 . S
H1349 C1321 0.930 . S
H1350 C1330 0.930 . S
H1351 C1342 0.929 . S
H1352 C1345 0.930 . S
C1353 C1354 1.351 . S
C1353 N1356 1.368 . S
C1353 H1358 0.931 . S
C1354 C1353 1.351 . S
C1354 N1355 1.373 . S
C1354 H1382 0.930 . S
N1355 C1354 1.373 . S
N1355 C1357 1.340 . S
N1356 C1353 1.368 . S
N1356 C1357 1.321 . S
N1356 Co1359 2.135 . S
C1357 N1355 1.340 . S
C1357 N1356 1.321 . S
C1357 H1381 0.930 . S
H1358 C1353 0.931 . S
Co1359 N1356 2.135 . S
Co1359 N1362 2.121 . S
Co1359 O1367 2.055 . S
Co1359 O1370 2.039 . S
Co1359 N1373 2.140 . S
C1360 O1361 1.227 . S
C1360 O1370 1.265 . S
O1361 C1360 1.227 . S
N1362 Co1359 2.121 . S
N1362 C1364 1.375 . S
N1362 C1365 1.313 . S
C1363 C1364 1.338 . S
C1363 N1366 1.377 . S
C1363 H1383 0.930 . S
C1364 N1362 1.375 . S
C1364 C1363 1.338 . S
C1364 H1368 0.931 . S
C1365 N1362 1.313 . S
C1365 N1366 1.344 . S
C1365 H1369 0.930 . S
N1366 C1363 1.377 . S
N1366 C1365 1.344 . S
O1367 Co1359 2.055 . S
O1367 C1371 1.253 . S
H1368 C1364 0.931 . S
H1369 C1365 0.930 . S
O1370 Co1359 2.039 . S
O1370 C1360 1.265 . S
C1371 O1367 1.253 . S
C1371 O1372 1.227 . S
O1372 C1371 1.227 . S
N1373 Co1359 2.140 . S
N1373 C1376 1.346 . S
N1373 C1377 1.345 . S
C1374 C1375 1.387 . S
C1374 C1378 1.391 . S
C1375 C1374 1.387 . S
C1375 C1376 1.369 . S
C1375 H1384 0.929 . S
C1376 N1373 1.346 . S
C1376 C1375 1.369 . S
C1376 H1379 0.928 . S
C1377 N1373 1.345 . S
C1377 C1378 1.371 . S
C1377 H1380 0.931 . S
C1378 C1374 1.391 . S
C1378 C1377 1.371 . S
C1378 H1385 0.930 . S
H1379 C1376 0.928 . S
H1380 C1377 0.931 . S
H1381 C1357 0.930 . S
H1382 C1354 0.930 . S
H1383 C1363 0.930 . S
H1384 C1375 0.929 . S
H1385 C1378 0.930 . S
C1386 C1387 1.351 . S
C1386 N1389 1.368 . S
C1386 H1391 0.931 . S
C1387 C1386 1.351 . S
C1387 N1388 1.373 . S
C1387 H1415 0.930 . S
N1388 C1387 1.373 . S
N1388 C1390 1.340 . S
N1389 C1386 1.368 . S
N1389 C1390 1.321 . S
N1389 Co1392 2.135 . S
C1390 N1388 1.340 . S
C1390 N1389 1.321 . S
C1390 H1414 0.930 . S
H1391 C1386 0.931 . S
Co1392 N1389 2.135 . S
Co1392 N1395 2.121 . S
Co1392 O1400 2.055 . S
Co1392 O1403 2.039 . S
Co1392 N1406 2.140 . S
C1393 O1394 1.227 . S
C1393 O1403 1.265 . S
O1394 C1393 1.227 . S
N1395 Co1392 2.121 . S
N1395 C1397 1.375 . S
N1395 C1398 1.313 . S
C1396 C1397 1.338 . S
C1396 N1399 1.377 . S
C1396 H1416 0.930 . S
C1397 N1395 1.375 . S
C1397 C1396 1.338 . S
C1397 H1401 0.931 . S
C1398 N1395 1.313 . S
C1398 N1399 1.344 . S
C1398 H1402 0.930 . S
N1399 C1396 1.377 . S
N1399 C1398 1.344 . S
O1400 Co1392 2.055 . S
O1400 C1404 1.253 . S
H1401 C1397 0.931 . S
H1402 C1398 0.930 . S
O1403 Co1392 2.039 . S
O1403 C1393 1.265 . S
C1404 O1400 1.253 . S
C1404 O1405 1.227 . S
O1405 C1404 1.227 . S
N1406 Co1392 2.140 . S
N1406 C1409 1.346 . S
N1406 C1410 1.345 . S
C1407 C1408 1.387 . S
C1407 C1411 1.391 . S
C1408 C1407 1.387 . S
C1408 C1409 1.369 . S
C1408 H1417 0.929 . S
C1409 N1406 1.346 . S
C1409 C1408 1.369 . S
C1409 H1412 0.928 . S
C1410 N1406 1.345 . S
C1410 C1411 1.371 . S
C1410 H1413 0.931 . S
C1411 C1407 1.391 . S
C1411 C1410 1.371 . S
C1411 H1418 0.930 . S
H1412 C1409 0.928 . S
H1413 C1410 0.931 . S
H1414 C1390 0.930 . S
H1415 C1387 0.930 . S
H1416 C1396 0.930 . S
H1417 C1408 0.929 . S
H1418 C1411 0.930 . S
C1419 C1420 1.351 . S
C1419 N1422 1.368 . S
C1419 H1424 0.931 . S
C1420 C1419 1.351 . S
C1420 N1421 1.373 . S
C1420 H1448 0.930 . S
N1421 C1420 1.373 . S
N1421 C1423 1.340 . S
N1422 C1419 1.368 . S
N1422 C1423 1.321 . S
N1422 Co1425 2.135 . S
C1423 N1421 1.340 . S
C1423 N1422 1.321 . S
C1423 H1447 0.930 . S
H1424 C1419 0.931 . S
Co1425 N1422 2.135 . S
Co1425 N1428 2.121 . S
Co1425 O1433 2.055 . S
Co1425 O1436 2.039 . S
Co1425 N1439 2.140 . S
C1426 O1427 1.227 . S
C1426 O1436 1.265 . S
O1427 C1426 1.227 . S
N1428 Co1425 2.121 . S
N1428 C1430 1.375 . S
N1428 C1431 1.313 . S
C1429 C1430 1.338 . S
C1429 N1432 1.377 . S
C1429 H1449 0.930 . S
C1430 N1428 1.375 . S
C1430 C1429 1.338 . S
C1430 H1434 0.931 . S
C1431 N1428 1.313 . S
C1431 N1432 1.344 . S
C1431 H1435 0.930 . S
N1432 C1429 1.377 . S
N1432 C1431 1.344 . S
O1433 Co1425 2.055 . S
O1433 C1437 1.253 . S
H1434 C1430 0.931 . S
H1435 C1431 0.930 . S
O1436 Co1425 2.039 . S
O1436 C1426 1.265 . S
C1437 O1433 1.253 . S
C1437 O1438 1.227 . S
O1438 C1437 1.227 . S
N1439 Co1425 2.140 . S
N1439 C1442 1.346 . S
N1439 C1443 1.345 . S
C1440 C1441 1.387 . S
C1440 C1444 1.391 . S
C1441 C1440 1.387 . S
C1441 C1442 1.369 . S
C1441 H1450 0.929 . S
C1442 N1439 1.346 . S
C1442 C1441 1.369 . S
C1442 H1445 0.928 . S
C1443 N1439 1.345 . S
C1443 C1444 1.371 . S
C1443 H1446 0.931 . S
C1444 C1440 1.391 . S
C1444 C1443 1.371 . S
C1444 H1451 0.930 . S
H1445 C1442 0.928 . S
H1446 C1443 0.931 . S
H1447 C1423 0.930 . S
H1448 C1420 0.930 . S
H1449 C1429 0.930 . S
H1450 C1441 0.929 . S
H1451 C1444 0.930 . S
C1452 C1453 1.351 . S
C1452 N1455 1.368 . S
C1452 H1457 0.931 . S
C1453 C1452 1.351 . S
C1453 N1454 1.373 . S
C1453 H1481 0.930 . S
N1454 C1453 1.373 . S
N1454 C1456 1.340 . S
N1455 C1452 1.368 . S
N1455 C1456 1.321 . S
N1455 Co1458 2.135 . S
C1456 N1454 1.340 . S
C1456 N1455 1.321 . S
C1456 H1480 0.930 . S
H1457 C1452 0.931 . S
Co1458 N1455 2.135 . S
Co1458 N1461 2.121 . S
Co1458 O1466 2.055 . S
Co1458 O1469 2.039 . S
Co1458 N1472 2.140 . S
C1459 O1460 1.227 . S
C1459 O1469 1.265 . S
O1460 C1459 1.227 . S
N1461 Co1458 2.121 . S
N1461 C1463 1.375 . S
N1461 C1464 1.313 . S
C1462 C1463 1.338 . S
C1462 N1465 1.377 . S
C1462 H1482 0.930 . S
C1463 N1461 1.375 . S
C1463 C1462 1.338 . S
C1463 H1467 0.931 . S
C1464 N1461 1.313 . S
C1464 N1465 1.344 . S
C1464 H1468 0.930 . S
N1465 C1462 1.377 . S
N1465 C1464 1.344 . S
O1466 Co1458 2.055 . S
O1466 C1470 1.253 . S
H1467 C1463 0.931 . S
H1468 C1464 0.930 . S
O1469 Co1458 2.039 . S
O1469 C1459 1.265 . S
C1470 O1466 1.253 . S
C1470 O1471 1.227 . S
O1471 C1470 1.227 . S
N1472 Co1458 2.140 . S
N1472 C1475 1.346 . S
N1472 C1476 1.345 . S
C1473 C1474 1.387 . S
C1473 C1477 1.391 . S
C1474 C1473 1.387 . S
C1474 C1475 1.369 . S
C1474 H1483 0.929 . S
C1475 N1472 1.346 . S
C1475 C1474 1.369 . S
C1475 H1478 0.928 . S
C1476 N1472 1.345 . S
C1476 C1477 1.371 . S
C1476 H1479 0.931 . S
C1477 C1473 1.391 . S
C1477 C1476 1.371 . S
C1477 H1484 0.930 . S
H1478 C1475 0.928 . S
H1479 C1476 0.931 . S
H1480 C1456 0.930 . S
H1481 C1453 0.930 . S
H1482 C1462 0.930 . S
H1483 C1474 0.929 . S
H1484 C1477 0.930 . S
C1485 C1486 1.351 . S
C1485 N1488 1.368 . S
C1485 H1490 0.931 . S
C1486 C1485 1.351 . S
C1486 N1487 1.373 . S
C1486 H1514 0.930 . S
N1487 C1486 1.373 . S
N1487 C1489 1.340 . S
N1488 C1485 1.368 . S
N1488 C1489 1.321 . S
N1488 Co1491 2.135 . S
C1489 N1487 1.340 . S
C1489 N1488 1.321 . S
C1489 H1513 0.930 . S
H1490 C1485 0.931 . S
Co1491 N1488 2.135 . S
Co1491 N1494 2.121 . S
Co1491 O1499 2.055 . S
Co1491 O1502 2.039 . S
Co1491 N1505 2.140 . S
C1492 O1493 1.227 . S
C1492 O1502 1.265 . S
O1493 C1492 1.227 . S
N1494 Co1491 2.121 . S
N1494 C1496 1.375 . S
N1494 C1497 1.313 . S
C1495 C1496 1.338 . S
C1495 N1498 1.377 . S
C1495 H1515 0.930 . S
C1496 N1494 1.375 . S
C1496 C1495 1.338 . S
C1496 H1500 0.931 . S
C1497 N1494 1.313 . S
C1497 N1498 1.344 . S
C1497 H1501 0.930 . S
N1498 C1495 1.377 . S
N1498 C1497 1.344 . S
O1499 Co1491 2.055 . S
O1499 C1503 1.253 . S
H1500 C1496 0.931 . S
H1501 C1497 0.930 . S
O1502 Co1491 2.039 . S
O1502 C1492 1.265 . S
C1503 O1499 1.253 . S
C1503 O1504 1.227 . S
O1504 C1503 1.227 . S
N1505 Co1491 2.140 . S
N1505 C1508 1.346 . S
N1505 C1509 1.345 . S
C1506 C1507 1.387 . S
C1506 C1510 1.391 . S
C1507 C1506 1.387 . S
C1507 C1508 1.369 . S
C1507 H1516 0.929 . S
C1508 N1505 1.346 . S
C1508 C1507 1.369 . S
C1508 H1511 0.928 . S
C1509 N1505 1.345 . S
C1509 C1510 1.371 . S
C1509 H1512 0.931 . S
C1510 C1506 1.391 . S
C1510 C1509 1.371 . S
C1510 H1517 0.930 . S
H1511 C1508 0.928 . S
H1512 C1509 0.931 . S
H1513 C1489 0.930 . S
H1514 C1486 0.930 . S
H1515 C1495 0.930 . S
H1516 C1507 0.929 . S
H1517 C1510 0.930 . S
C1518 C1519 1.351 . S
C1518 N1521 1.368 . S
C1518 H1523 0.931 . S
C1519 C1518 1.351 . S
C1519 N1520 1.373 . S
C1519 H1547 0.930 . S
N1520 C1519 1.373 . S
N1520 C1522 1.340 . S
N1521 C1518 1.368 . S
N1521 C1522 1.321 . S
N1521 Co1524 2.135 . S
C1522 N1520 1.340 . S
C1522 N1521 1.321 . S
C1522 H1546 0.930 . S
H1523 C1518 0.931 . S
Co1524 N1521 2.135 . S
Co1524 N1527 2.121 . S
Co1524 O1532 2.055 . S
Co1524 O1535 2.039 . S
Co1524 N1538 2.140 . S
C1525 O1526 1.227 . S
C1525 O1535 1.265 . S
O1526 C1525 1.227 . S
N1527 Co1524 2.121 . S
N1527 C1529 1.375 . S
N1527 C1530 1.313 . S
C1528 C1529 1.338 . S
C1528 N1531 1.377 . S
C1528 H1548 0.930 . S
C1529 N1527 1.375 . S
C1529 C1528 1.338 . S
C1529 H1533 0.931 . S
C1530 N1527 1.313 . S
C1530 N1531 1.344 . S
C1530 H1534 0.930 . S
N1531 C1528 1.377 . S
N1531 C1530 1.344 . S
O1532 Co1524 2.055 . S
O1532 C1536 1.253 . S
H1533 C1529 0.931 . S
H1534 C1530 0.930 . S
O1535 Co1524 2.039 . S
O1535 C1525 1.265 . S
C1536 O1532 1.253 . S
C1536 O1537 1.227 . S
O1537 C1536 1.227 . S
N1538 Co1524 2.140 . S
N1538 C1541 1.346 . S
N1538 C1542 1.345 . S
C1539 C1540 1.387 . S
C1539 C1543 1.391 . S
C1540 C1539 1.387 . S
C1540 C1541 1.369 . S
C1540 H1549 0.929 . S
C1541 N1538 1.346 . S
C1541 C1540 1.369 . S
C1541 H1544 0.928 . S
C1542 N1538 1.345 . S
C1542 C1543 1.371 . S
C1542 H1545 0.931 . S
C1543 C1539 1.391 . S
C1543 C1542 1.371 . S
C1543 H1550 0.930 . S
H1544 C1541 0.928 . S
H1545 C1542 0.931 . S
H1546 C1522 0.930 . S
H1547 C1519 0.930 . S
H1548 C1528 0.930 . S
H1549 C1540 0.929 . S
H1550 C1543 0.930 . S
C1551 C1552 1.351 . S
C1551 N1554 1.368 . S
C1551 H1556 0.931 . S
C1552 C1551 1.351 . S
C1552 N1553 1.373 . S
C1552 H1580 0.930 . S
N1553 C1552 1.373 . S
N1553 C1555 1.340 . S
N1554 C1551 1.368 . S
N1554 C1555 1.321 . S
N1554 Co1557 2.135 . S
C1555 N1553 1.340 . S
C1555 N1554 1.321 . S
C1555 H1579 0.930 . S
H1556 C1551 0.931 . S
Co1557 N1554 2.135 . S
Co1557 N1560 2.121 . S
Co1557 O1565 2.055 . S
Co1557 O1568 2.039 . S
Co1557 N1571 2.140 . S
C1558 O1559 1.227 . S
C1558 O1568 1.265 . S
O1559 C1558 1.227 . S
N1560 Co1557 2.121 . S
N1560 C1562 1.375 . S
N1560 C1563 1.313 . S
C1561 C1562 1.338 . S
C1561 N1564 1.377 . S
C1561 H1581 0.930 . S
C1562 N1560 1.375 . S
C1562 C1561 1.338 . S
C1562 H1566 0.931 . S
C1563 N1560 1.313 . S
C1563 N1564 1.344 . S
C1563 H1567 0.930 . S
N1564 C1561 1.377 . S
N1564 C1563 1.344 . S
O1565 Co1557 2.055 . S
O1565 C1569 1.253 . S
H1566 C1562 0.931 . S
H1567 C1563 0.930 . S
O1568 Co1557 2.039 . S
O1568 C1558 1.265 . S
C1569 O1565 1.253 . S
C1569 O1570 1.227 . S
O1570 C1569 1.227 . S
N1571 Co1557 2.140 . S
N1571 C1574 1.346 . S
N1571 C1575 1.345 . S
C1572 C1573 1.387 . S
C1572 C1576 1.391 . S
C1573 C1572 1.387 . S
C1573 C1574 1.369 . S
C1573 H1582 0.929 . S
C1574 N1571 1.346 . S
C1574 C1573 1.369 . S
C1574 H1577 0.928 . S
C1575 N1571 1.345 . S
C1575 C1576 1.371 . S
C1575 H1578 0.931 . S
C1576 C1572 1.391 . S
C1576 C1575 1.371 . S
C1576 H1583 0.930 . S
H1577 C1574 0.928 . S
H1578 C1575 0.931 . S
H1579 C1555 0.930 . S
H1580 C1552 0.930 . S
H1581 C1561 0.930 . S
H1582 C1573 0.929 . S
H1583 C1576 0.930 . S
H1584 C1592 0.950 . S
H1585 C1597 0.950 . S
H1586 C1594 0.950 . S
H1587 C1596 0.950 . S
H1588 C1598 0.950 . S
H1589 C1600 0.950 . S
H1590 C1602 0.950 . S
H1591 C1603 0.950 . S
C1592 H1584 0.950 . S
C1592 C1593 1.386 . S
C1592 C1594 1.391 . S
C1593 C1592 1.386 . S
C1593 C1597 1.393 . S
C1594 H1586 0.950 . S
C1594 C1592 1.391 . S
C1594 C1595 1.400 . S
C1595 C1594 1.400 . S
C1595 C1596 1.398 . S
C1595 C1601 1.491 . S
C1596 H1587 0.950 . S
C1596 C1595 1.398 . S
C1596 C1597 1.391 . S
C1597 H1585 0.950 . S
C1597 C1593 1.393 . S
C1597 C1596 1.391 . S
C1598 H1588 0.950 . S
C1598 C1599 1.386 . S
C1598 C1600 1.391 . S
C1599 C1598 1.386 . S
C1599 C1603 1.393 . S
C1600 H1589 0.950 . S
C1600 C1598 1.391 . S
C1600 C1601 1.400 . S
C1601 C1595 1.491 . S
C1601 C1600 1.400 . S
C1601 C1602 1.398 . S
C1602 H1590 0.950 . S
C1602 C1601 1.398 . S
C1602 C1603 1.391 . S
C1603 H1591 0.950 . S
C1603 C1599 1.393 . S
C1603 C1602 1.391 . S
H1604 C1612 0.950 . S
H1605 C1617 0.950 . S
H1606 C1614 0.950 . S
H1607 C1616 0.950 . S
H1608 C1618 0.950 . S
H1609 C1620 0.950 . S
H1610 C1622 0.950 . S
H1611 C1623 0.950 . S
C1612 H1604 0.950 . S
C1612 C1613 1.386 . S
C1612 C1614 1.391 . S
C1613 C1612 1.386 . S
C1613 C1617 1.393 . S
C1614 H1606 0.950 . S
C1614 C1612 1.391 . S
C1614 C1615 1.400 . S
C1615 C1614 1.400 . S
C1615 C1616 1.398 . S
C1615 C1621 1.491 . S
C1616 H1607 0.950 . S
C1616 C1615 1.398 . S
C1616 C1617 1.391 . S
C1617 H1605 0.950 . S
C1617 C1613 1.393 . S
C1617 C1616 1.391 . S
C1618 H1608 0.950 . S
C1618 C1619 1.386 . S
C1618 C1620 1.391 . S
C1619 C1618 1.386 . S
C1619 C1623 1.393 . S
C1620 H1609 0.950 . S
C1620 C1618 1.391 . S
C1620 C1621 1.400 . S
C1621 C1615 1.491 . S
C1621 C1620 1.400 . S
C1621 C1622 1.398 . S
C1622 H1610 0.950 . S
C1622 C1621 1.398 . S
C1622 C1623 1.391 . S
C1623 H1611 0.950 . S
C1623 C1619 1.393 . S
C1623 C1622 1.391 . S
H1624 C1632 0.950 . S
H1625 C1637 0.950 . S
H1626 C1634 0.950 . S
H1627 C1636 0.950 . S
H1628 C1638 0.950 . S
H1629 C1640 0.950 . S
H1630 C1642 0.950 . S
H1631 C1643 0.950 . S
C1632 H1624 0.950 . S
C1632 C1633 1.386 . S
C1632 C1634 1.391 . S
C1633 C1632 1.386 . S
C1633 C1637 1.393 . S
C1634 H1626 0.950 . S
C1634 C1632 1.391 . S
C1634 C1635 1.400 . S
C1635 C1634 1.400 . S
C1635 C1636 1.398 . S
C1635 C1641 1.491 . S
C1636 H1627 0.950 . S
C1636 C1635 1.398 . S
C1636 C1637 1.391 . S
C1637 H1625 0.950 . S
C1637 C1633 1.393 . S
C1637 C1636 1.391 . S
C1638 H1628 0.950 . S
C1638 C1639 1.386 . S
C1638 C1640 1.391 . S
C1639 C1638 1.386 . S
C1639 C1643 1.393 . S
C1640 H1629 0.950 . S
C1640 C1638 1.391 . S
C1640 C1641 1.400 . S
C1641 C1635 1.491 . S
C1641 C1640 1.400 . S
C1641 C1642 1.398 . S
C1642 H1630 0.950 . S
C1642 C1641 1.398 . S
C1642 C1643 1.391 . S
C1643 H1631 0.950 . S
C1643 C1639 1.393 . S
C1643 C1642 1.391 . S
H1644 C1652 0.950 . S
H1645 C1657 0.950 . S
H1646 C1654 0.950 . S
H1647 C1656 0.950 . S
H1648 C1658 0.950 . S
H1649 C1660 0.950 . S
H1650 C1662 0.950 . S
H1651 C1663 0.950 . S
C1652 H1644 0.950 . S
C1652 C1653 1.386 . S
C1652 C1654 1.391 . S
C1653 C1652 1.386 . S
C1653 C1657 1.393 . S
C1654 H1646 0.950 . S
C1654 C1652 1.391 . S
C1654 C1655 1.400 . S
C1655 C1654 1.400 . S
C1655 C1656 1.398 . S
C1655 C1661 1.491 . S
C1656 H1647 0.950 . S
C1656 C1655 1.398 . S
C1656 C1657 1.391 . S
C1657 H1645 0.950 . S
C1657 C1653 1.393 . S
C1657 C1656 1.391 . S
C1658 H1648 0.950 . S
C1658 C1659 1.386 . S
C1658 C1660 1.391 . S
C1659 C1658 1.386 . S
C1659 C1663 1.393 . S
C1660 H1649 0.950 . S
C1660 C1658 1.391 . S
C1660 C1661 1.400 . S
C1661 C1655 1.491 . S
C1661 C1660 1.400 . S
C1661 C1662 1.398 . S
C1662 H1650 0.950 . S
C1662 C1661 1.398 . S
C1662 C1663 1.391 . S
C1663 H1651 0.950 . S
C1663 C1659 1.393 . S
C1663 C1662 1.391 . S
H1664 C1672 0.950 . S
H1665 C1677 0.950 . S
H1666 C1674 0.950 . S
H1667 C1676 0.950 . S
H1668 C1678 0.950 . S
H1669 C1680 0.950 . S
H1670 C1682 0.950 . S
H1671 C1683 0.950 . S
C1672 H1664 0.950 . S
C1672 C1673 1.386 . S
C1672 C1674 1.391 . S
C1673 C1672 1.386 . S
C1673 C1677 1.393 . S
C1674 H1666 0.950 . S
C1674 C1672 1.391 . S
C1674 C1675 1.400 . S
C1675 C1674 1.400 . S
C1675 C1676 1.398 . S
C1675 C1681 1.491 . S
C1676 H1667 0.950 . S
C1676 C1675 1.398 . S
C1676 C1677 1.391 . S
C1677 H1665 0.950 . S
C1677 C1673 1.393 . S
C1677 C1676 1.391 . S
C1678 H1668 0.950 . S
C1678 C1679 1.386 . S
C1678 C1680 1.391 . S
C1679 C1678 1.386 . S
C1679 C1683 1.393 . S
C1680 H1669 0.950 . S
C1680 C1678 1.391 . S
C1680 C1681 1.400 . S
C1681 C1675 1.491 . S
C1681 C1680 1.400 . S
C1681 C1682 1.398 . S
C1682 H1670 0.950 . S
C1682 C1681 1.398 . S
C1682 C1683 1.391 . S
C1683 H1671 0.950 . S
C1683 C1679 1.393 . S
C1683 C1682 1.391 . S
H1684 C1692 0.950 . S
H1685 C1697 0.950 . S
H1686 C1694 0.950 . S
H1687 C1696 0.950 . S
H1688 C1698 0.950 . S
H1689 C1700 0.950 . S
H1690 C1702 0.950 . S
H1691 C1703 0.950 . S
C1692 H1684 0.950 . S
C1692 C1693 1.386 . S
C1692 C1694 1.391 . S
C1693 C1692 1.386 . S
C1693 C1697 1.393 . S
C1694 H1686 0.950 . S
C1694 C1692 1.391 . S
C1694 C1695 1.400 . S
C1695 C1694 1.400 . S
C1695 C1696 1.398 . S
C1695 C1701 1.491 . S
C1696 H1687 0.950 . S
C1696 C1695 1.398 . S
C1696 C1697 1.391 . S
C1697 H1685 0.950 . S
C1697 C1693 1.393 . S
C1697 C1696 1.391 . S
C1698 H1688 0.950 . S
C1698 C1699 1.386 . S
C1698 C1700 1.391 . S
C1699 C1698 1.386 . S
C1699 C1703 1.393 . S
C1700 H1689 0.950 . S
C1700 C1698 1.391 . S
C1700 C1701 1.400 . S
C1701 C1695 1.491 . S
C1701 C1700 1.400 . S
C1701 C1702 1.398 . S
C1702 H1690 0.950 . S
C1702 C1701 1.398 . S
C1702 C1703 1.391 . S
C1703 H1691 0.950 . S
C1703 C1699 1.393 . S
C1703 C1702 1.391 . S
H1704 C1712 0.950 . S
H1705 C1717 0.950 . S
H1706 C1714 0.950 . S
H1707 C1716 0.950 . S
H1708 C1718 0.950 . S
H1709 C1720 0.950 . S
H1710 C1722 0.950 . S
H1711 C1723 0.950 . S
C1712 H1704 0.950 . S
C1712 C1713 1.386 . S
C1712 C1714 1.391 . S
C1713 C1712 1.386 . S
C1713 C1717 1.393 . S
C1714 H1706 0.950 . S
C1714 C1712 1.391 . S
C1714 C1715 1.400 . S
C1715 C1714 1.400 . S
C1715 C1716 1.398 . S
C1715 C1721 1.491 . S
C1716 H1707 0.950 . S
C1716 C1715 1.398 . S
C1716 C1717 1.391 . S
C1717 H1705 0.950 . S
C1717 C1713 1.393 . S
C1717 C1716 1.391 . S
C1718 H1708 0.950 . S
C1718 C1719 1.386 . S
C1718 C1720 1.391 . S
C1719 C1718 1.386 . S
C1719 C1723 1.393 . S
C1720 H1709 0.950 . S
C1720 C1718 1.391 . S
C1720 C1721 1.400 . S
C1721 C1715 1.491 . S
C1721 C1720 1.400 . S
C1721 C1722 1.398 . S
C1722 H1710 0.950 . S
C1722 C1721 1.398 . S
C1722 C1723 1.391 . S
C1723 H1711 0.950 . S
C1723 C1719 1.393 . S
C1723 C1722 1.391 . S
H1724 C1732 0.950 . S
H1725 C1737 0.950 . S
H1726 C1734 0.950 . S
H1727 C1736 0.950 . S
H1728 C1738 0.950 . S
H1729 C1740 0.950 . S
H1730 C1742 0.950 . S
H1731 C1743 0.950 . S
C1732 H1724 0.950 . S
C1732 C1733 1.386 . S
C1732 C1734 1.391 . S
C1733 C1732 1.386 . S
C1733 C1737 1.393 . S
C1734 H1726 0.950 . S
C1734 C1732 1.391 . S
C1734 C1735 1.400 . S
C1735 C1734 1.400 . S
C1735 C1736 1.398 . S
C1735 C1741 1.491 . S
C1736 H1727 0.950 . S
C1736 C1735 1.398 . S
C1736 C1737 1.391 . S
C1737 H1725 0.950 . S
C1737 C1733 1.393 . S
C1737 C1736 1.391 . S
C1738 H1728 0.950 . S
C1738 C1739 1.386 . S
C1738 C1740 1.391 . S
C1739 C1738 1.386 . S
C1739 C1743 1.393 . S
C1740 H1729 0.950 . S
C1740 C1738 1.391 . S
C1740 C1741 1.400 . S
C1741 C1735 1.491 . S
C1741 C1740 1.400 . S
C1741 C1742 1.398 . S
C1742 H1730 0.950 . S
C1742 C1741 1.398 . S
C1742 C1743 1.391 . S
C1743 H1731 0.950 . S
C1743 C1739 1.393 . S
C1743 C1742 1.391 . S
H1744 C1752 0.950 . S
H1745 C1757 0.950 . S
H1746 C1754 0.950 . S
H1747 C1756 0.950 . S
H1748 C1758 0.950 . S
H1749 C1760 0.950 . S
H1750 C1762 0.950 . S
H1751 C1763 0.950 . S
C1752 H1744 0.950 . S
C1752 C1753 1.386 . S
C1752 C1754 1.391 . S
C1753 C1752 1.386 . S
C1753 C1757 1.393 . S
C1754 H1746 0.950 . S
C1754 C1752 1.391 . S
C1754 C1755 1.400 . S
C1755 C1754 1.400 . S
C1755 C1756 1.398 . S
C1755 C1761 1.491 . S
C1756 H1747 0.950 . S
C1756 C1755 1.398 . S
C1756 C1757 1.391 . S
C1757 H1745 0.950 . S
C1757 C1753 1.393 . S
C1757 C1756 1.391 . S
C1758 H1748 0.950 . S
C1758 C1759 1.386 . S
C1758 C1760 1.391 . S
C1759 C1758 1.386 . S
C1759 C1763 1.393 . S
C1760 H1749 0.950 . S
C1760 C1758 1.391 . S
C1760 C1761 1.400 . S
C1761 C1755 1.491 . S
C1761 C1760 1.400 . S
C1761 C1762 1.398 . S
C1762 H1750 0.950 . S
C1762 C1761 1.398 . S
C1762 C1763 1.391 . S
C1763 H1751 0.950 . S
C1763 C1759 1.393 . S
C1763 C1762 1.391 . S
H1764 C1772 0.950 . S
H1765 C1777 0.950 . S
H1766 C1774 0.950 . S
H1767 C1776 0.950 . S
H1768 C1778 0.950 . S
H1769 C1780 0.950 . S
H1770 C1782 0.950 . S
H1771 C1783 0.950 . S
C1772 H1764 0.950 . S
C1772 C1773 1.386 . S
C1772 C1774 1.391 . S
C1773 C1772 1.386 . S
C1773 C1777 1.393 . S
C1774 H1766 0.950 . S
C1774 C1772 1.391 . S
C1774 C1775 1.400 . S
C1775 C1774 1.400 . S
C1775 C1776 1.398 . S
C1775 C1781 1.491 . S
C1776 H1767 0.950 . S
C1776 C1775 1.398 . S
C1776 C1777 1.391 . S
C1777 H1765 0.950 . S
C1777 C1773 1.393 . S
C1777 C1776 1.391 . S
C1778 H1768 0.950 . S
C1778 C1779 1.386 . S
C1778 C1780 1.391 . S
C1779 C1778 1.386 . S
C1779 C1783 1.393 . S
C1780 H1769 0.950 . S
C1780 C1778 1.391 . S
C1780 C1781 1.400 . S
C1781 C1775 1.491 . S
C1781 C1780 1.400 . S
C1781 C1782 1.398 . S
C1782 H1770 0.950 . S
C1782 C1781 1.398 . S
C1782 C1783 1.391 . S
C1783 H1771 0.950 . S
C1783 C1779 1.393 . S
C1783 C1782 1.391 . S
H1784 C1792 0.950 . S
H1785 C1797 0.950 . S
H1786 C1794 0.950 . S
H1787 C1796 0.950 . S
H1788 C1798 0.950 . S
H1789 C1800 0.950 . S
H1790 C1802 0.950 . S
H1791 C1803 0.950 . S
C1792 H1784 0.950 . S
C1792 C1793 1.386 . S
C1792 C1794 1.391 . S
C1793 C1792 1.386 . S
C1793 C1797 1.393 . S
C1794 H1786 0.950 . S
C1794 C1792 1.391 . S
C1794 C1795 1.400 . S
C1795 C1794 1.400 . S
C1795 C1796 1.398 . S
C1795 C1801 1.491 . S
C1796 H1787 0.950 . S
C1796 C1795 1.398 . S
C1796 C1797 1.391 . S
C1797 H1785 0.950 . S
C1797 C1793 1.393 . S
C1797 C1796 1.391 . S
C1798 H1788 0.950 . S
C1798 C1799 1.386 . S
C1798 C1800 1.391 . S
C1799 C1798 1.386 . S
C1799 C1803 1.393 . S
C1800 H1789 0.950 . S
C1800 C1798 1.391 . S
C1800 C1801 1.400 . S
C1801 C1795 1.491 . S
C1801 C1800 1.400 . S
C1801 C1802 1.398 . S
C1802 H1790 0.950 . S
C1802 C1801 1.398 . S
C1802 C1803 1.391 . S
C1803 H1791 0.950 . S
C1803 C1799 1.393 . S
C1803 C1802 1.391 . S
H1804 C1812 0.950 . S
H1805 C1817 0.950 . S
H1806 C1814 0.950 . S
H1807 C1816 0.950 . S
H1808 C1818 0.950 . S
H1809 C1820 0.950 . S
H1810 C1822 0.950 . S
H1811 C1823 0.950 . S
C1812 H1804 0.950 . S
C1812 C1813 1.386 . S
C1812 C1814 1.391 . S
C1813 C1812 1.386 . S
C1813 C1817 1.393 . S
C1814 H1806 0.950 . S
C1814 C1812 1.391 . S
C1814 C1815 1.400 . S
C1815 C1814 1.400 . S
C1815 C1816 1.398 . S
C1815 C1821 1.491 . S
C1816 H1807 0.950 . S
C1816 C1815 1.398 . S
C1816 C1817 1.391 . S
C1817 H1805 0.950 . S
C1817 C1813 1.393 . S
C1817 C1816 1.391 . S
C1818 H1808 0.950 . S
C1818 C1819 1.386 . S
C1818 C1820 1.391 . S
C1819 C1818 1.386 . S
C1819 C1823 1.393 . S
C1820 H1809 0.950 . S
C1820 C1818 1.391 . S
C1820 C1821 1.400 . S
C1821 C1815 1.491 . S
C1821 C1820 1.400 . S
C1821 C1822 1.398 . S
C1822 H1810 0.950 . S
C1822 C1821 1.398 . S
C1822 C1823 1.391 . S
C1823 H1811 0.950 . S
C1823 C1819 1.393 . S
C1823 C1822 1.391 . S
H1824 C1832 0.950 . S
H1825 C1837 0.950 . S
H1826 C1834 0.950 . S
H1827 C1836 0.950 . S
H1828 C1838 0.950 . S
H1829 C1840 0.950 . S
H1830 C1842 0.950 . S
H1831 C1843 0.950 . S
C1832 H1824 0.950 . S
C1832 C1833 1.386 . S
C1832 C1834 1.391 . S
C1833 C1832 1.386 . S
C1833 C1837 1.393 . S
C1834 H1826 0.950 . S
C1834 C1832 1.391 . S
C1834 C1835 1.400 . S
C1835 C1834 1.400 . S
C1835 C1836 1.398 . S
C1835 C1841 1.491 . S
C1836 H1827 0.950 . S
C1836 C1835 1.398 . S
C1836 C1837 1.391 . S
C1837 H1825 0.950 . S
C1837 C1833 1.393 . S
C1837 C1836 1.391 . S
C1838 H1828 0.950 . S
C1838 C1839 1.386 . S
C1838 C1840 1.391 . S
C1839 C1838 1.386 . S
C1839 C1843 1.393 . S
C1840 H1829 0.950 . S
C1840 C1838 1.391 . S
C1840 C1841 1.400 . S
C1841 C1835 1.491 . S
C1841 C1840 1.400 . S
C1841 C1842 1.398 . S
C1842 H1830 0.950 . S
C1842 C1841 1.398 . S
C1842 C1843 1.391 . S
C1843 H1831 0.950 . S
C1843 C1839 1.393 . S
C1843 C1842 1.391 . S
H1844 C1852 0.950 . S
H1845 C1857 0.950 . S
H1846 C1854 0.950 . S
H1847 C1856 0.950 . S
H1848 C1858 0.950 . S
H1849 C1860 0.950 . S
H1850 C1862 0.950 . S
H1851 C1863 0.950 . S
C1852 H1844 0.950 . S
C1852 C1853 1.386 . S
C1852 C1854 1.391 . S
C1853 C1852 1.386 . S
C1853 C1857 1.393 . S
C1854 H1846 0.950 . S
C1854 C1852 1.391 . S
C1854 C1855 1.400 . S
C1855 C1854 1.400 . S
C1855 C1856 1.398 . S
C1855 C1861 1.491 . S
C1856 H1847 0.950 . S
C1856 C1855 1.398 . S
C1856 C1857 1.391 . S
C1857 H1845 0.950 . S
C1857 C1853 1.393 . S
C1857 C1856 1.391 . S
C1858 H1848 0.950 . S
C1858 C1859 1.386 . S
C1858 C1860 1.391 . S
C1859 C1858 1.386 . S
C1859 C1863 1.393 . S
C1860 H1849 0.950 . S
C1860 C1858 1.391 . S
C1860 C1861 1.400 . S
C1861 C1855 1.491 . S
C1861 C1860 1.400 . S
C1861 C1862 1.398 . S
C1862 H1850 0.950 . S
C1862 C1861 1.398 . S
C1862 C1863 1.391 . S
C1863 H1851 0.950 . S
C1863 C1859 1.393 . S
C1863 C1862 1.391 . S
H1864 C1872 0.950 . S
H1865 C1877 0.950 . S
H1866 C1874 0.950 . S
H1867 C1876 0.950 . S
H1868 C1878 0.950 . S
H1869 C1880 0.950 . S
H1870 C1882 0.950 . S
H1871 C1883 0.950 . S
C1872 H1864 0.950 . S
C1872 C1873 1.386 . S
C1872 C1874 1.391 . S
C1873 C1872 1.386 . S
C1873 C1877 1.393 . S
C1874 H1866 0.950 . S
C1874 C1872 1.391 . S
C1874 C1875 1.400 . S
C1875 C1874 1.400 . S
C1875 C1876 1.398 . S
C1875 C1881 1.491 . S
C1876 H1867 0.950 . S
C1876 C1875 1.398 . S
C1876 C1877 1.391 . S
C1877 H1865 0.950 . S
C1877 C1873 1.393 . S
C1877 C1876 1.391 . S
C1878 H1868 0.950 . S
C1878 C1879 1.386 . S
C1878 C1880 1.391 . S
C1879 C1878 1.386 . S
C1879 C1883 1.393 . S
C1880 H1869 0.950 . S
C1880 C1878 1.391 . S
C1880 C1881 1.400 . S
C1881 C1875 1.491 . S
C1881 C1880 1.400 . S
C1881 C1882 1.398 . S
C1882 H1870 0.950 . S
C1882 C1881 1.398 . S
C1882 C1883 1.391 . S
C1883 H1871 0.950 . S
C1883 C1879 1.393 . S
C1883 C1882 1.391 . S
H1884 C1892 0.950 . S
H1885 C1897 0.950 . S
H1886 C1894 0.950 . S
H1887 C1896 0.950 . S
H1888 C1898 0.950 . S
H1889 C1900 0.950 . S
H1890 C1902 0.950 . S
H1891 C1903 0.950 . S
C1892 H1884 0.950 . S
C1892 C1893 1.386 . S
C1892 C1894 1.391 . S
C1893 C1892 1.386 . S
C1893 C1897 1.393 . S
C1894 H1886 0.950 . S
C1894 C1892 1.391 . S
C1894 C1895 1.400 . S
C1895 C1894 1.400 . S
C1895 C1896 1.398 . S
C1895 C1901 1.491 . S
C1896 H1887 0.950 . S
C1896 C1895 1.398 . S
C1896 C1897 1.391 . S
C1897 H1885 0.950 . S
C1897 C1893 1.393 . S
C1897 C1896 1.391 . S
C1898 H1888 0.950 . S
C1898 C1899 1.386 . S
C1898 C1900 1.391 . S
C1899 C1898 1.386 . S
C1899 C1903 1.393 . S
C1900 H1889 0.950 . S
C1900 C1898 1.391 . S
C1900 C1901 1.400 . S
C1901 C1895 1.491 . S
C1901 C1900 1.400 . S
C1901 C1902 1.398 . S
C1902 H1890 0.950 . S
C1902 C1901 1.398 . S
C1902 C1903 1.391 . S
C1903 H1891 0.950 . S
C1903 C1899 1.393 . S
C1903 C1902 1.391 . S
H1904 C1912 0.950 . S
H1905 C1917 0.950 . S
H1906 C1914 0.950 . S
H1907 C1916 0.950 . S
H1908 C1918 0.950 . S
H1909 C1920 0.950 . S
H1910 C1922 0.950 . S
H1911 C1923 0.950 . S
C1912 H1904 0.950 . S
C1912 C1913 1.386 . S
C1912 C1914 1.391 . S
C1913 C1912 1.386 . S
C1913 C1917 1.393 . S
C1914 H1906 0.950 . S
C1914 C1912 1.391 . S
C1914 C1915 1.400 . S
C1915 C1914 1.400 . S
C1915 C1916 1.398 . S
C1915 C1921 1.491 . S
C1916 H1907 0.950 . S
C1916 C1915 1.398 . S
C1916 C1917 1.391 . S
C1917 H1905 0.950 . S
C1917 C1913 1.393 . S
C1917 C1916 1.391 . S
C1918 H1908 0.950 . S
C1918 C1919 1.386 . S
C1918 C1920 1.391 . S
C1919 C1918 1.386 . S
C1919 C1923 1.393 . S
C1920 H1909 0.950 . S
C1920 C1918 1.391 . S
C1920 C1921 1.400 . S
C1921 C1915 1.491 . S
C1921 C1920 1.400 . S
C1921 C1922 1.398 . S
C1922 H1910 0.950 . S
C1922 C1921 1.398 . S
C1922 C1923 1.391 . S
C1923 H1911 0.950 . S
C1923 C1919 1.393 . S
C1923 C1922 1.391 . S
H1924 C1932 0.950 . S
H1925 C1937 0.950 . S
H1926 C1934 0.950 . S
H1927 C1936 0.950 . S
H1928 C1938 0.950 . S
H1929 C1940 0.950 . S
H1930 C1942 0.950 . S
H1931 C1943 0.950 . S
C1932 H1924 0.950 . S
C1932 C1933 1.386 . S
C1932 C1934 1.391 . S
C1933 C1932 1.386 . S
C1933 C1937 1.393 . S
C1934 H1926 0.950 . S
C1934 C1932 1.391 . S
C1934 C1935 1.400 . S
C1935 C1934 1.400 . S
C1935 C1936 1.398 . S
C1935 C1941 1.491 . S
C1936 H1927 0.950 . S
C1936 C1935 1.398 . S
C1936 C1937 1.391 . S
C1937 H1925 0.950 . S
C1937 C1933 1.393 . S
C1937 C1936 1.391 . S
C1938 H1928 0.950 . S
C1938 C1939 1.386 . S
C1938 C1940 1.391 . S
C1939 C1938 1.386 . S
C1939 C1943 1.393 . S
C1940 H1929 0.950 . S
C1940 C1938 1.391 . S
C1940 C1941 1.400 . S
C1941 C1935 1.491 . S
C1941 C1940 1.400 . S
C1941 C1942 1.398 . S
C1942 H1930 0.950 . S
C1942 C1941 1.398 . S
C1942 C1943 1.391 . S
C1943 H1931 0.950 . S
C1943 C1939 1.393 . S
C1943 C1942 1.391 . S
H1944 C1952 0.950 . S
H1945 C1957 0.950 . S
H1946 C1954 0.950 . S
H1947 C1956 0.950 . S
H1948 C1958 0.950 . S
H1949 C1960 0.950 . S
H1950 C1962 0.950 . S
H1951 C1963 0.950 . S
C1952 H1944 0.950 . S
C1952 C1953 1.386 . S
C1952 C1954 1.391 . S
C1953 C1952 1.386 . S
C1953 C1957 1.393 . S
C1954 H1946 0.950 . S
C1954 C1952 1.391 . S
C1954 C1955 1.400 . S
C1955 C1954 1.400 . S
C1955 C1956 1.398 . S
C1955 C1961 1.491 . S
C1956 H1947 0.950 . S
C1956 C1955 1.398 . S
C1956 C1957 1.391 . S
C1957 H1945 0.950 . S
C1957 C1953 1.393 . S
C1957 C1956 1.391 . S
C1958 H1948 0.950 . S
C1958 C1959 1.386 . S
C1958 C1960 1.391 . S
C1959 C1958 1.386 . S
C1959 C1963 1.393 . S
C1960 H1949 0.950 . S
C1960 C1958 1.391 . S
C1960 C1961 1.400 . S
C1961 C1955 1.491 . S
C1961 C1960 1.400 . S
C1961 C1962 1.398 . S
C1962 H1950 0.950 . S
C1962 C1961 1.398 . S
C1962 C1963 1.391 . S
C1963 H1951 0.950 . S
C1963 C1959 1.393 . S
C1963 C1962 1.391 . S
H1964 C1972 0.950 . S
H1965 C1977 0.950 . S
H1966 C1974 0.950 . S
H1967 C1976 0.950 . S
H1968 C1978 0.950 . S
H1969 C1980 0.950 . S
H1970 C1982 0.950 . S
H1971 C1983 0.950 . S
C1972 H1964 0.950 . S
C1972 C1973 1.386 . S
C1972 C1974 1.391 . S
C1973 C1972 1.386 . S
C1973 C1977 1.393 . S
C1974 H1966 0.950 . S
C1974 C1972 1.391 . S
C1974 C1975 1.400 . S
C1975 C1974 1.400 . S
C1975 C1976 1.398 . S
C1975 C1981 1.491 . S
C1976 H1967 0.950 . S
C1976 C1975 1.398 . S
C1976 C1977 1.391 . S
C1977 H1965 0.950 . S
C1977 C1973 1.393 . S
C1977 C1976 1.391 . S
C1978 H1968 0.950 . S
C1978 C1979 1.386 . S
C1978 C1980 1.391 . S
C1979 C1978 1.386 . S
C1979 C1983 1.393 . S
C1980 H1969 0.950 . S
C1980 C1978 1.391 . S
C1980 C1981 1.400 . S
C1981 C1975 1.491 . S
C1981 C1980 1.400 . S
C1981 C1982 1.398 . S
C1982 H1970 0.950 . S
C1982 C1981 1.398 . S
C1982 C1983 1.391 . S
C1983 H1971 0.950 . S
C1983 C1979 1.393 . S
C1983 C1982 1.391 . S
H1984 C1992 0.950 . S
H1985 C1997 0.950 . S
H1986 C1994 0.950 . S
H1987 C1996 0.950 . S
H1988 C1998 0.950 . S
H1989 C2000 0.950 . S
H1990 C2002 0.950 . S
H1991 C2003 0.950 . S
C1992 H1984 0.950 . S
C1992 C1993 1.386 . S
C1992 C1994 1.391 . S
C1993 C1992 1.386 . S
C1993 C1997 1.393 . S
C1994 H1986 0.950 . S
C1994 C1992 1.391 . S
C1994 C1995 1.400 . S
C1995 C1994 1.400 . S
C1995 C1996 1.398 . S
C1995 C2001 1.491 . S
C1996 H1987 0.950 . S
C1996 C1995 1.398 . S
C1996 C1997 1.391 . S
C1997 H1985 0.950 . S
C1997 C1993 1.393 . S
C1997 C1996 1.391 . S
C1998 H1988 0.950 . S
C1998 C1999 1.386 . S
C1998 C2000 1.391 . S
C1999 C1998 1.386 . S
C1999 C2003 1.393 . S
C2000 H1989 0.950 . S
C2000 C1998 1.391 . S
C2000 C2001 1.400 . S
C2001 C1995 1.491 . S
C2001 C2000 1.400 . S
C2001 C2002 1.398 . S
C2002 H1990 0.950 . S
C2002 C2001 1.398 . S
C2002 C2003 1.391 . S
C2003 H1991 0.950 . S
C2003 C1999 1.393 . S
C2003 C2002 1.391 . S
H2004 C2012 0.950 . S
H2005 C2017 0.950 . S
H2006 C2014 0.950 . S
H2007 C2016 0.950 . S
H2008 C2018 0.950 . S
H2009 C2020 0.950 . S
H2010 C2022 0.950 . S
H2011 C2023 0.950 . S
C2012 H2004 0.950 . S
C2012 C2013 1.386 . S
C2012 C2014 1.391 . S
C2013 C2012 1.386 . S
C2013 C2017 1.393 . S
C2014 H2006 0.950 . S
C2014 C2012 1.391 . S
C2014 C2015 1.400 . S
C2015 C2014 1.400 . S
C2015 C2016 1.398 . S
C2015 C2021 1.491 . S
C2016 H2007 0.950 . S
C2016 C2015 1.398 . S
C2016 C2017 1.391 . S
C2017 H2005 0.950 . S
C2017 C2013 1.393 . S
C2017 C2016 1.391 . S
C2018 H2008 0.950 . S
C2018 C2019 1.386 . S
C2018 C2020 1.391 . S
C2019 C2018 1.386 . S
C2019 C2023 1.393 . S
C2020 H2009 0.950 . S
C2020 C2018 1.391 . S
C2020 C2021 1.400 . S
C2021 C2015 1.491 . S
C2021 C2020 1.400 . S
C2021 C2022 1.398 . S
C2022 H2010 0.950 . S
C2022 C2021 1.398 . S
C2022 C2023 1.391 . S
C2023 H2011 0.950 . S
C2023 C2019 1.393 . S
C2023 C2022 1.391 . S
H2024 C2032 0.950 . S
H2025 C2037 0.950 . S
H2026 C2034 0.950 . S
H2027 C2036 0.950 . S
H2028 C2038 0.950 . S
H2029 C2040 0.950 . S
H2030 C2042 0.950 . S
H2031 C2043 0.950 . S
C2032 H2024 0.950 . S
C2032 C2033 1.386 . S
C2032 C2034 1.391 . S
C2033 C2032 1.386 . S
C2033 C2037 1.393 . S
C2034 H2026 0.950 . S
C2034 C2032 1.391 . S
C2034 C2035 1.400 . S
C2035 C2034 1.400 . S
C2035 C2036 1.398 . S
C2035 C2041 1.491 . S
C2036 H2027 0.950 . S
C2036 C2035 1.398 . S
C2036 C2037 1.391 . S
C2037 H2025 0.950 . S
C2037 C2033 1.393 . S
C2037 C2036 1.391 . S
C2038 H2028 0.950 . S
C2038 C2039 1.386 . S
C2038 C2040 1.391 . S
C2039 C2038 1.386 . S
C2039 C2043 1.393 . S
C2040 H2029 0.950 . S
C2040 C2038 1.391 . S
C2040 C2041 1.400 . S
C2041 C2035 1.491 . S
C2041 C2040 1.400 . S
C2041 C2042 1.398 . S
C2042 H2030 0.950 . S
C2042 C2041 1.398 . S
C2042 C2043 1.391 . S
C2043 H2031 0.950 . S
C2043 C2039 1.393 . S
C2043 C2042 1.391 . S
H2044 C2052 0.950 . S
H2045 C2057 0.950 . S
H2046 C2054 0.950 . S
H2047 C2056 0.950 . S
H2048 C2058 0.950 . S
H2049 C2060 0.950 . S
H2050 C2062 0.950 . S
H2051 C2063 0.950 . S
C2052 H2044 0.950 . S
C2052 C2053 1.386 . S
C2052 C2054 1.391 . S
C2053 C2052 1.386 . S
C2053 C2057 1.393 . S
C2054 H2046 0.950 . S
C2054 C2052 1.391 . S
C2054 C2055 1.400 . S
C2055 C2054 1.400 . S
C2055 C2056 1.398 . S
C2055 C2061 1.491 . S
C2056 H2047 0.950 . S
C2056 C2055 1.398 . S
C2056 C2057 1.391 . S
C2057 H2045 0.950 . S
C2057 C2053 1.393 . S
C2057 C2056 1.391 . S
C2058 H2048 0.950 . S
C2058 C2059 1.386 . S
C2058 C2060 1.391 . S
C2059 C2058 1.386 . S
C2059 C2063 1.393 . S
C2060 H2049 0.950 . S
C2060 C2058 1.391 . S
C2060 C2061 1.400 . S
C2061 C2055 1.491 . S
C2061 C2060 1.400 . S
C2061 C2062 1.398 . S
C2062 H2050 0.950 . S
C2062 C2061 1.398 . S
C2062 C2063 1.391 . S
C2063 H2051 0.950 . S
C2063 C2059 1.393 . S
C2063 C2062 1.391 . S
H2064 C2072 0.950 . S
H2065 C2077 0.950 . S
H2066 C2074 0.950 . S
H2067 C2076 0.950 . S
H2068 C2078 0.950 . S
H2069 C2080 0.950 . S
H2070 C2082 0.950 . S
H2071 C2083 0.950 . S
C2072 H2064 0.950 . S
C2072 C2073 1.386 . S
C2072 C2074 1.391 . S
C2073 C2072 1.386 . S
C2073 C2077 1.393 . S
C2074 H2066 0.950 . S
C2074 C2072 1.391 . S
C2074 C2075 1.400 . S
C2075 C2074 1.400 . S
C2075 C2076 1.398 . S
C2075 C2081 1.491 . S
C2076 H2067 0.950 . S
C2076 C2075 1.398 . S
C2076 C2077 1.391 . S
C2077 H2065 0.950 . S
C2077 C2073 1.393 . S
C2077 C2076 1.391 . S
C2078 H2068 0.950 . S
C2078 C2079 1.386 . S
C2078 C2080 1.391 . S
C2079 C2078 1.386 . S
C2079 C2083 1.393 . S
C2080 H2069 0.950 . S
C2080 C2078 1.391 . S
C2080 C2081 1.400 . S
C2081 C2075 1.491 . S
C2081 C2080 1.400 . S
C2081 C2082 1.398 . S
C2082 H2070 0.950 . S
C2082 C2081 1.398 . S
C2082 C2083 1.391 . S
C2083 H2071 0.950 . S
C2083 C2079 1.393 . S
C2083 C2082 1.391 . S
H2084 C2092 0.950 . S
H2085 C2097 0.950 . S
H2086 C2094 0.950 . S
H2087 C2096 0.950 . S
H2088 C2098 0.950 . S
H2089 C2100 0.950 . S
H2090 C2102 0.950 . S
H2091 C2103 0.950 . S
C2092 H2084 0.950 . S
C2092 C2093 1.386 . S
C2092 C2094 1.391 . S
C2093 C2092 1.386 . S
C2093 C2097 1.393 . S
C2094 H2086 0.950 . S
C2094 C2092 1.391 . S
C2094 C2095 1.400 . S
C2095 C2094 1.400 . S
C2095 C2096 1.398 . S
C2095 C2101 1.491 . S
C2096 H2087 0.950 . S
C2096 C2095 1.398 . S
C2096 C2097 1.391 . S
C2097 H2085 0.950 . S
C2097 C2093 1.393 . S
C2097 C2096 1.391 . S
C2098 H2088 0.950 . S
C2098 C2099 1.386 . S
C2098 C2100 1.391 . S
C2099 C2098 1.386 . S
C2099 C2103 1.393 . S
C2100 H2089 0.950 . S
C2100 C2098 1.391 . S
C2100 C2101 1.400 . S
C2101 C2095 1.491 . S
C2101 C2100 1.400 . S
C2101 C2102 1.398 . S
C2102 H2090 0.950 . S
C2102 C2101 1.398 . S
C2102 C2103 1.391 . S
C2103 H2091 0.950 . S
C2103 C2099 1.393 . S
C2103 C2102 1.391 . S
H2104 C2112 0.950 . S
H2105 C2117 0.950 . S
H2106 C2114 0.950 . S
H2107 C2116 0.950 . S
H2108 C2118 0.950 . S
H2109 C2120 0.950 . S
H2110 C2122 0.950 . S
H2111 C2123 0.950 . S
C2112 H2104 0.950 . S
C2112 C2113 1.386 . S
C2112 C2114 1.391 . S
C2113 C2112 1.386 . S
C2113 C2117 1.393 . S
C2114 H2106 0.950 . S
C2114 C2112 1.391 . S
C2114 C2115 1.400 . S
C2115 C2114 1.400 . S
C2115 C2116 1.398 . S
C2115 C2121 1.491 . S
C2116 H2107 0.950 . S
C2116 C2115 1.398 . S
C2116 C2117 1.391 . S
C2117 H2105 0.950 . S
C2117 C2113 1.393 . S
C2117 C2116 1.391 . S
C2118 H2108 0.950 . S
C2118 C2119 1.386 . S
C2118 C2120 1.391 . S
C2119 C2118 1.386 . S
C2119 C2123 1.393 . S
C2120 H2109 0.950 . S
C2120 C2118 1.391 . S
C2120 C2121 1.400 . S
C2121 C2115 1.491 . S
C2121 C2120 1.400 . S
C2121 C2122 1.398 . S
C2122 H2110 0.950 . S
C2122 C2121 1.398 . S
C2122 C2123 1.391 . S
C2123 H2111 0.950 . S
C2123 C2119 1.393 . S
C2123 C2122 1.391 . S
H2124 C2132 0.950 . S
H2125 C2137 0.950 . S
H2126 C2134 0.950 . S
H2127 C2136 0.950 . S
H2128 C2138 0.950 . S
H2129 C2140 0.950 . S
H2130 C2142 0.950 . S
H2131 C2143 0.950 . S
C2132 H2124 0.950 . S
C2132 C2133 1.386 . S
C2132 C2134 1.391 . S
C2133 C2132 1.386 . S
C2133 C2137 1.393 . S
C2134 H2126 0.950 . S
C2134 C2132 1.391 . S
C2134 C2135 1.400 . S
C2135 C2134 1.400 . S
C2135 C2136 1.398 . S
C2135 C2141 1.491 . S
C2136 H2127 0.950 . S
C2136 C2135 1.398 . S
C2136 C2137 1.391 . S
C2137 H2125 0.950 . S
C2137 C2133 1.393 . S
C2137 C2136 1.391 . S
C2138 H2128 0.950 . S
C2138 C2139 1.386 . S
C2138 C2140 1.391 . S
C2139 C2138 1.386 . S
C2139 C2143 1.393 . S
C2140 H2129 0.950 . S
C2140 C2138 1.391 . S
C2140 C2141 1.400 . S
C2141 C2135 1.491 . S
C2141 C2140 1.400 . S
C2141 C2142 1.398 . S
C2142 H2130 0.950 . S
C2142 C2141 1.398 . S
C2142 C2143 1.391 . S
C2143 H2131 0.950 . S
C2143 C2139 1.393 . S
C2143 C2142 1.391 . S
H2144 C2152 0.950 . S
H2145 C2157 0.950 . S
H2146 C2154 0.950 . S
H2147 C2156 0.950 . S
H2148 C2158 0.950 . S
H2149 C2160 0.950 . S
H2150 C2162 0.950 . S
H2151 C2163 0.950 . S
C2152 H2144 0.950 . S
C2152 C2153 1.386 . S
C2152 C2154 1.391 . S
C2153 C2152 1.386 . S
C2153 C2157 1.393 . S
C2154 H2146 0.950 . S
C2154 C2152 1.391 . S
C2154 C2155 1.400 . S
C2155 C2154 1.400 . S
C2155 C2156 1.398 . S
C2155 C2161 1.491 . S
C2156 H2147 0.950 . S
C2156 C2155 1.398 . S
C2156 C2157 1.391 . S
C2157 H2145 0.950 . S
C2157 C2153 1.393 . S
C2157 C2156 1.391 . S
C2158 H2148 0.950 . S
C2158 C2159 1.386 . S
C2158 C2160 1.391 . S
C2159 C2158 1.386 . S
C2159 C2163 1.393 . S
C2160 H2149 0.950 . S
C2160 C2158 1.391 . S
C2160 C2161 1.400 . S
C2161 C2155 1.491 . S
C2161 C2160 1.400 . S
C2161 C2162 1.398 . S
C2162 H2150 0.950 . S
C2162 C2161 1.398 . S
C2162 C2163 1.391 . S
C2163 H2151 0.950 . S
C2163 C2159 1.393 . S
C2163 C2162 1.391 . S
H2164 C2172 0.950 . S
H2165 C2177 0.950 . S
H2166 C2174 0.950 . S
H2167 C2176 0.950 . S
H2168 C2178 0.950 . S
H2169 C2180 0.950 . S
H2170 C2182 0.950 . S
H2171 C2183 0.950 . S
C2172 H2164 0.950 . S
C2172 C2173 1.386 . S
C2172 C2174 1.391 . S
C2173 C2172 1.386 . S
C2173 C2177 1.393 . S
C2174 H2166 0.950 . S
C2174 C2172 1.391 . S
C2174 C2175 1.400 . S
C2175 C2174 1.400 . S
C2175 C2176 1.398 . S
C2175 C2181 1.491 . S
C2176 H2167 0.950 . S
C2176 C2175 1.398 . S
C2176 C2177 1.391 . S
C2177 H2165 0.950 . S
C2177 C2173 1.393 . S
C2177 C2176 1.391 . S
C2178 H2168 0.950 . S
C2178 C2179 1.386 . S
C2178 C2180 1.391 . S
C2179 C2178 1.386 . S
C2179 C2183 1.393 . S
C2180 H2169 0.950 . S
C2180 C2178 1.391 . S
C2180 C2181 1.400 . S
C2181 C2175 1.491 . S
C2181 C2180 1.400 . S
C2181 C2182 1.398 . S
C2182 H2170 0.950 . S
C2182 C2181 1.398 . S
C2182 C2183 1.391 . S
C2183 H2171 0.950 . S
C2183 C2179 1.393 . S
C2183 C2182 1.391 . S
H2184 C2192 0.950 . S
H2185 C2197 0.950 . S
H2186 C2194 0.950 . S
H2187 C2196 0.950 . S
H2188 C2198 0.950 . S
H2189 C2200 0.950 . S
H2190 C2202 0.950 . S
H2191 C2203 0.950 . S
C2192 H2184 0.950 . S
C2192 C2193 1.386 . S
C2192 C2194 1.391 . S
C2193 C2192 1.386 . S
C2193 C2197 1.393 . S
C2194 H2186 0.950 . S
C2194 C2192 1.391 . S
C2194 C2195 1.400 . S
C2195 C2194 1.400 . S
C2195 C2196 1.398 . S
C2195 C2201 1.491 . S
C2196 H2187 0.950 . S
C2196 C2195 1.398 . S
C2196 C2197 1.391 . S
C2197 H2185 0.950 . S
C2197 C2193 1.393 . S
C2197 C2196 1.391 . S
C2198 H2188 0.950 . S
C2198 C2199 1.386 . S
C2198 C2200 1.391 . S
C2199 C2198 1.386 . S
C2199 C2203 1.393 . S
C2200 H2189 0.950 . S
C2200 C2198 1.391 . S
C2200 C2201 1.400 . S
C2201 C2195 1.491 . S
C2201 C2200 1.400 . S
C2201 C2202 1.398 . S
C2202 H2190 0.950 . S
C2202 C2201 1.398 . S
C2202 C2203 1.391 . S
C2203 H2191 0.950 . S
C2203 C2199 1.393 . S
C2203 C2202 1.391 . S
H2204 C2212 0.950 . S
H2205 C2217 0.950 . S
H2206 C2214 0.950 . S
H2207 C2216 0.950 . S
H2208 C2218 0.950 . S
H2209 C2220 0.950 . S
H2210 C2222 0.950 . S
H2211 C2223 0.950 . S
C2212 H2204 0.950 . S
C2212 C2213 1.386 . S
C2212 C2214 1.391 . S
C2213 C2212 1.386 . S
C2213 C2217 1.393 . S
C2214 H2206 0.950 . S
C2214 C2212 1.391 . S
C2214 C2215 1.400 . S
C2215 C2214 1.400 . S
C2215 C2216 1.398 . S
C2215 C2221 1.491 . S
C2216 H2207 0.950 . S
C2216 C2215 1.398 . S
C2216 C2217 1.391 . S
C2217 H2205 0.950 . S
C2217 C2213 1.393 . S
C2217 C2216 1.391 . S
C2218 H2208 0.950 . S
C2218 C2219 1.386 . S
C2218 C2220 1.391 . S
C2219 C2218 1.386 . S
C2219 C2223 1.393 . S
C2220 H2209 0.950 . S
C2220 C2218 1.391 . S
C2220 C2221 1.400 . S
C2221 C2215 1.491 . S
C2221 C2220 1.400 . S
C2221 C2222 1.398 . S
C2222 H2210 0.950 . S
C2222 C2221 1.398 . S
C2222 C2223 1.391 . S
C2223 H2211 0.950 . S
C2223 C2219 1.393 . S
C2223 C2222 1.391 . S
H2224 C2232 0.950 . S
H2225 C2237 0.950 . S
H2226 C2234 0.950 . S
H2227 C2236 0.950 . S
H2228 C2238 0.950 . S
H2229 C2240 0.950 . S
H2230 C2242 0.950 . S
H2231 C2243 0.950 . S
C2232 H2224 0.950 . S
C2232 C2233 1.386 . S
C2232 C2234 1.391 . S
C2233 C2232 1.386 . S
C2233 C2237 1.393 . S
C2234 H2226 0.950 . S
C2234 C2232 1.391 . S
C2234 C2235 1.400 . S
C2235 C2234 1.400 . S
C2235 C2236 1.398 . S
C2235 C2241 1.491 . S
C2236 H2227 0.950 . S
C2236 C2235 1.398 . S
C2236 C2237 1.391 . S
C2237 H2225 0.950 . S
C2237 C2233 1.393 . S
C2237 C2236 1.391 . S
C2238 H2228 0.950 . S
C2238 C2239 1.386 . S
C2238 C2240 1.391 . S
C2239 C2238 1.386 . S
C2239 C2243 1.393 . S
C2240 H2229 0.950 . S
C2240 C2238 1.391 . S
C2240 C2241 1.400 . S
C2241 C2235 1.491 . S
C2241 C2240 1.400 . S
C2241 C2242 1.398 . S
C2242 H2230 0.950 . S
C2242 C2241 1.398 . S
C2242 C2243 1.391 . S
C2243 H2231 0.950 . S
C2243 C2239 1.393 . S
C2243 C2242 1.391 . S
H2244 C2252 0.950 . S
H2245 C2257 0.950 . S
H2246 C2254 0.950 . S
H2247 C2256 0.950 . S
H2248 C2258 0.950 . S
H2249 C2260 0.950 . S
H2250 C2262 0.950 . S
H2251 C2263 0.950 . S
C2252 H2244 0.950 . S
C2252 C2253 1.386 . S
C2252 C2254 1.391 . S
C2253 C2252 1.386 . S
C2253 C2257 1.393 . S
C2254 H2246 0.950 . S
C2254 C2252 1.391 . S
C2254 C2255 1.400 . S
C2255 C2254 1.400 . S
C2255 C2256 1.398 . S
C2255 C2261 1.491 . S
C2256 H2247 0.950 . S
C2256 C2255 1.398 . S
C2256 C2257 1.391 . S
C2257 H2245 0.950 . S
C2257 C2253 1.393 . S
C2257 C2256 1.391 . S
C2258 H2248 0.950 . S
C2258 C2259 1.386 . S
C2258 C2260 1.391 . S
C2259 C2258 1.386 . S
C2259 C2263 1.393 . S
C2260 H2249 0.950 . S
C2260 C2258 1.391 . S
C2260 C2261 1.400 . S
C2261 C2255 1.491 . S
C2261 C2260 1.400 . S
C2261 C2262 1.398 . S
C2262 H2250 0.950 . S
C2262 C2261 1.398 . S
C2262 C2263 1.391 . S
C2263 H2251 0.950 . S
C2263 C2259 1.393 . S
C2263 C2262 1.391 . S
H2264 C2272 0.950 . S
H2265 C2277 0.950 . S
H2266 C2274 0.950 . S
H2267 C2276 0.950 . S
H2268 C2278 0.950 . S
H2269 C2280 0.950 . S
H2270 C2282 0.950 . S
H2271 C2283 0.950 . S
C2272 H2264 0.950 . S
C2272 C2273 1.386 . S
C2272 C2274 1.391 . S
C2273 C2272 1.386 . S
C2273 C2277 1.393 . S
C2274 H2266 0.950 . S
C2274 C2272 1.391 . S
C2274 C2275 1.400 . S
C2275 C2274 1.400 . S
C2275 C2276 1.398 . S
C2275 C2281 1.491 . S
C2276 H2267 0.950 . S
C2276 C2275 1.398 . S
C2276 C2277 1.391 . S
C2277 H2265 0.950 . S
C2277 C2273 1.393 . S
C2277 C2276 1.391 . S
C2278 H2268 0.950 . S
C2278 C2279 1.386 . S
C2278 C2280 1.391 . S
C2279 C2278 1.386 . S
C2279 C2283 1.393 . S
C2280 H2269 0.950 . S
C2280 C2278 1.391 . S
C2280 C2281 1.400 . S
C2281 C2275 1.491 . S
C2281 C2280 1.400 . S
C2281 C2282 1.398 . S
C2282 H2270 0.950 . S
C2282 C2281 1.398 . S
C2282 C2283 1.391 . S
C2283 H2271 0.950 . S
C2283 C2279 1.393 . S
C2283 C2282 1.391 . S
H2284 C2292 0.950 . S
H2285 C2297 0.950 . S
H2286 C2294 0.950 . S
H2287 C2296 0.950 . S
H2288 C2298 0.950 . S
H2289 C2300 0.950 . S
H2290 C2302 0.950 . S
H2291 C2303 0.950 . S
C2292 H2284 0.950 . S
C2292 C2293 1.386 . S
C2292 C2294 1.391 . S
C2293 C2292 1.386 . S
C2293 C2297 1.393 . S
C2294 H2286 0.950 . S
C2294 C2292 1.391 . S
C2294 C2295 1.400 . S
C2295 C2294 1.400 . S
C2295 C2296 1.398 . S
C2295 C2301 1.491 . S
C2296 H2287 0.950 . S
C2296 C2295 1.398 . S
C2296 C2297 1.391 . S
C2297 H2285 0.950 . S
C2297 C2293 1.393 . S
C2297 C2296 1.391 . S
C2298 H2288 0.950 . S
C2298 C2299 1.386 . S
C2298 C2300 1.391 . S
C2299 C2298 1.386 . S
C2299 C2303 1.393 . S
C2300 H2289 0.950 . S
C2300 C2298 1.391 . S
C2300 C2301 1.400 . S
C2301 C2295 1.491 . S
C2301 C2300 1.400 . S
C2301 C2302 1.398 . S
C2302 H2290 0.950 . S
C2302 C2301 1.398 . S
C2302 C2303 1.391 . S
C2303 H2291 0.950 . S
C2303 C2299 1.393 . S
C2303 C2302 1.391 . S
H2304 C2312 0.950 . S
H2305 C2317 0.950 . S
H2306 C2314 0.950 . S
H2307 C2316 0.950 . S
H2308 C2318 0.950 . S
H2309 C2320 0.950 . S
H2310 C2322 0.950 . S
H2311 C2323 0.950 . S
C2312 H2304 0.950 . S
C2312 C2313 1.386 . S
C2312 C2314 1.391 . S
C2313 C2312 1.386 . S
C2313 C2317 1.393 . S
C2314 H2306 0.950 . S
C2314 C2312 1.391 . S
C2314 C2315 1.400 . S
C2315 C2314 1.400 . S
C2315 C2316 1.398 . S
C2315 C2321 1.491 . S
C2316 H2307 0.950 . S
C2316 C2315 1.398 . S
C2316 C2317 1.391 . S
C2317 H2305 0.950 . S
C2317 C2313 1.393 . S
C2317 C2316 1.391 . S
C2318 H2308 0.950 . S
C2318 C2319 1.386 . S
C2318 C2320 1.391 . S
C2319 C2318 1.386 . S
C2319 C2323 1.393 . S
C2320 H2309 0.950 . S
C2320 C2318 1.391 . S
C2320 C2321 1.400 . S
C2321 C2315 1.491 . S
C2321 C2320 1.400 . S
C2321 C2322 1.398 . S
C2322 H2310 0.950 . S
C2322 C2321 1.398 . S
C2322 C2323 1.391 . S
C2323 H2311 0.950 . S
C2323 C2319 1.393 . S
C2323 C2322 1.391 . S
H2324 C2332 0.950 . S
H2325 C2337 0.950 . S
H2326 C2334 0.950 . S
H2327 C2336 0.950 . S
H2328 C2338 0.950 . S
H2329 C2340 0.950 . S
H2330 C2342 0.950 . S
H2331 C2343 0.950 . S
C2332 H2324 0.950 . S
C2332 C2333 1.386 . S
C2332 C2334 1.391 . S
C2333 C2332 1.386 . S
C2333 C2337 1.393 . S
C2334 H2326 0.950 . S
C2334 C2332 1.391 . S
C2334 C2335 1.400 . S
C2335 C2334 1.400 . S
C2335 C2336 1.398 . S
C2335 C2341 1.491 . S
C2336 H2327 0.950 . S
C2336 C2335 1.398 . S
C2336 C2337 1.391 . S
C2337 H2325 0.950 . S
C2337 C2333 1.393 . S
C2337 C2336 1.391 . S
C2338 H2328 0.950 . S
C2338 C2339 1.386 . S
C2338 C2340 1.391 . S
C2339 C2338 1.386 . S
C2339 C2343 1.393 . S
C2340 H2329 0.950 . S
C2340 C2338 1.391 . S
C2340 C2341 1.400 . S
C2341 C2335 1.491 . S
C2341 C2340 1.400 . S
C2341 C2342 1.398 . S
C2342 H2330 0.950 . S
C2342 C2341 1.398 . S
C2342 C2343 1.391 . S
C2343 H2331 0.950 . S
C2343 C2339 1.393 . S
C2343 C2342 1.391 . S
H2344 C2352 0.950 . S
H2345 C2357 0.950 . S
H2346 C2354 0.950 . S
H2347 C2356 0.950 . S
H2348 C2358 0.950 . S
H2349 C2360 0.950 . S
H2350 C2362 0.950 . S
H2351 C2363 0.950 . S
C2352 H2344 0.950 . S
C2352 C2353 1.386 . S
C2352 C2354 1.391 . S
C2353 C2352 1.386 . S
C2353 C2357 1.393 . S
C2354 H2346 0.950 . S
C2354 C2352 1.391 . S
C2354 C2355 1.400 . S
C2355 C2354 1.400 . S
C2355 C2356 1.398 . S
C2355 C2361 1.491 . S
C2356 H2347 0.950 . S
C2356 C2355 1.398 . S
C2356 C2357 1.391 . S
C2357 H2345 0.950 . S
C2357 C2353 1.393 . S
C2357 C2356 1.391 . S
C2358 H2348 0.950 . S
C2358 C2359 1.386 . S
C2358 C2360 1.391 . S
C2359 C2358 1.386 . S
C2359 C2363 1.393 . S
C2360 H2349 0.950 . S
C2360 C2358 1.391 . S
C2360 C2361 1.400 . S
C2361 C2355 1.491 . S
C2361 C2360 1.400 . S
C2361 C2362 1.398 . S
C2362 H2350 0.950 . S
C2362 C2361 1.398 . S
C2362 C2363 1.391 . S
C2363 H2351 0.950 . S
C2363 C2359 1.393 . S
C2363 C2362 1.391 . S
H2364 C2372 0.950 . S
H2365 C2377 0.950 . S
H2366 C2374 0.950 . S
H2367 C2376 0.950 . S
H2368 C2378 0.950 . S
H2369 C2380 0.950 . S
H2370 C2382 0.950 . S
H2371 C2383 0.950 . S
C2372 H2364 0.950 . S
C2372 C2373 1.386 . S
C2372 C2374 1.391 . S
C2373 C2372 1.386 . S
C2373 C2377 1.393 . S
C2374 H2366 0.950 . S
C2374 C2372 1.391 . S
C2374 C2375 1.400 . S
C2375 C2374 1.400 . S
C2375 C2376 1.398 . S
C2375 C2381 1.491 . S
C2376 H2367 0.950 . S
C2376 C2375 1.398 . S
C2376 C2377 1.391 . S
C2377 H2365 0.950 . S
C2377 C2373 1.393 . S
C2377 C2376 1.391 . S
C2378 H2368 0.950 . S
C2378 C2379 1.386 . S
C2378 C2380 1.391 . S
C2379 C2378 1.386 . S
C2379 C2383 1.393 . S
C2380 H2369 0.950 . S
C2380 C2378 1.391 . S
C2380 C2381 1.400 . S
C2381 C2375 1.491 . S
C2381 C2380 1.400 . S
C2381 C2382 1.398 . S
C2382 H2370 0.950 . S
C2382 C2381 1.398 . S
C2382 C2383 1.391 . S
C2383 H2371 0.950 . S
C2383 C2379 1.393 . S
C2383 C2382 1.391 . S
H2384 C2392 0.950 . S
H2385 C2397 0.950 . S
H2386 C2394 0.950 . S
H2387 C2396 0.950 . S
H2388 C2398 0.950 . S
H2389 C2400 0.950 . S
H2390 C2402 0.950 . S
H2391 C2403 0.950 . S
C2392 H2384 0.950 . S
C2392 C2393 1.386 . S
C2392 C2394 1.391 . S
C2393 C2392 1.386 . S
C2393 C2397 1.393 . S
C2394 H2386 0.950 . S
C2394 C2392 1.391 . S
C2394 C2395 1.400 . S
C2395 C2394 1.400 . S
C2395 C2396 1.398 . S
C2395 C2401 1.491 . S
C2396 H2387 0.950 . S
C2396 C2395 1.398 . S
C2396 C2397 1.391 . S
C2397 H2385 0.950 . S
C2397 C2393 1.393 . S
C2397 C2396 1.391 . S
C2398 H2388 0.950 . S
C2398 C2399 1.386 . S
C2398 C2400 1.391 . S
C2399 C2398 1.386 . S
C2399 C2403 1.393 . S
C2400 H2389 0.950 . S
C2400 C2398 1.391 . S
C2400 C2401 1.400 . S
C2401 C2395 1.491 . S
C2401 C2400 1.400 . S
C2401 C2402 1.398 . S
C2402 H2390 0.950 . S
C2402 C2401 1.398 . S
C2402 C2403 1.391 . S
C2403 H2391 0.950 . S
C2403 C2399 1.393 . S
C2403 C2402 1.391 . S
H2404 C2412 0.950 . S
H2405 C2417 0.950 . S
H2406 C2414 0.950 . S
H2407 C2416 0.950 . S
H2408 C2418 0.950 . S
H2409 C2420 0.950 . S
H2410 C2422 0.950 . S
H2411 C2423 0.950 . S
C2412 H2404 0.950 . S
C2412 C2413 1.386 . S
C2412 C2414 1.391 . S
C2413 C2412 1.386 . S
C2413 C2417 1.393 . S
C2414 H2406 0.950 . S
C2414 C2412 1.391 . S
C2414 C2415 1.400 . S
C2415 C2414 1.400 . S
C2415 C2416 1.398 . S
C2415 C2421 1.491 . S
C2416 H2407 0.950 . S
C2416 C2415 1.398 . S
C2416 C2417 1.391 . S
C2417 H2405 0.950 . S
C2417 C2413 1.393 . S
C2417 C2416 1.391 . S
C2418 H2408 0.950 . S
C2418 C2419 1.386 . S
C2418 C2420 1.391 . S
C2419 C2418 1.386 . S
C2419 C2423 1.393 . S
C2420 H2409 0.950 . S
C2420 C2418 1.391 . S
C2420 C2421 1.400 . S
C2421 C2415 1.491 . S
C2421 C2420 1.400 . S
C2421 C2422 1.398 . S
C2422 H2410 0.950 . S
C2422 C2421 1.398 . S
C2422 C2423 1.391 . S
C2423 H2411 0.950 . S
C2423 C2419 1.393 . S
C2423 C2422 1.391 . S
H2424 C2432 0.950 . S
H2425 C2437 0.950 . S
H2426 C2434 0.950 . S
H2427 C2436 0.950 . S
H2428 C2438 0.950 . S
H2429 C2440 0.950 . S
H2430 C2442 0.950 . S
H2431 C2443 0.950 . S
C2432 H2424 0.950 . S
C2432 C2433 1.386 . S
C2432 C2434 1.391 . S
C2433 C2432 1.386 . S
C2433 C2437 1.393 . S
C2434 H2426 0.950 . S
C2434 C2432 1.391 . S
C2434 C2435 1.400 . S
C2435 C2434 1.400 . S
C2435 C2436 1.398 . S
C2435 C2441 1.491 . S
C2436 H2427 0.950 . S
C2436 C2435 1.398 . S
C2436 C2437 1.391 . S
C2437 H2425 0.950 . S
C2437 C2433 1.393 . S
C2437 C2436 1.391 . S
C2438 H2428 0.950 . S
C2438 C2439 1.386 . S
C2438 C2440 1.391 . S
C2439 C2438 1.386 . S
C2439 C2443 1.393 . S
C2440 H2429 0.950 . S
C2440 C2438 1.391 . S
C2440 C2441 1.400 . S
C2441 C2435 1.491 . S
C2441 C2440 1.400 . S
C2441 C2442 1.398 . S
C2442 H2430 0.950 . S
C2442 C2441 1.398 . S
C2442 C2443 1.391 . S
C2443 H2431 0.950 . S
C2443 C2439 1.393 . S
C2443 C2442 1.391 . S
H2444 C2452 0.950 . S
H2445 C2457 0.950 . S
H2446 C2454 0.950 . S
H2447 C2456 0.950 . S
H2448 C2458 0.950 . S
H2449 C2460 0.950 . S
H2450 C2462 0.950 . S
H2451 C2463 0.950 . S
C2452 H2444 0.950 . S
C2452 C2453 1.386 . S
C2452 C2454 1.391 . S
C2453 C2452 1.386 . S
C2453 C2457 1.393 . S
C2454 H2446 0.950 . S
C2454 C2452 1.391 . S
C2454 C2455 1.400 . S
C2455 C2454 1.400 . S
C2455 C2456 1.398 . S
C2455 C2461 1.491 . S
C2456 H2447 0.950 . S
C2456 C2455 1.398 . S
C2456 C2457 1.391 . S
C2457 H2445 0.950 . S
C2457 C2453 1.393 . S
C2457 C2456 1.391 . S
C2458 H2448 0.950 . S
C2458 C2459 1.386 . S
C2458 C2460 1.391 . S
C2459 C2458 1.386 . S
C2459 C2463 1.393 . S
C2460 H2449 0.950 . S
C2460 C2458 1.391 . S
C2460 C2461 1.400 . S
C2461 C2455 1.491 . S
C2461 C2460 1.400 . S
C2461 C2462 1.398 . S
C2462 H2450 0.950 . S
C2462 C2461 1.398 . S
C2462 C2463 1.391 . S
C2463 H2451 0.950 . S
C2463 C2459 1.393 . S
C2463 C2462 1.391 . S
H2464 C2472 0.950 . S
H2465 C2477 0.950 . S
H2466 C2474 0.950 . S
H2467 C2476 0.950 . S
H2468 C2478 0.950 . S
H2469 C2480 0.950 . S
H2470 C2482 0.950 . S
H2471 C2483 0.950 . S
C2472 H2464 0.950 . S
C2472 C2473 1.386 . S
C2472 C2474 1.391 . S
C2473 C2472 1.386 . S
C2473 C2477 1.393 . S
C2474 H2466 0.950 . S
C2474 C2472 1.391 . S
C2474 C2475 1.400 . S
C2475 C2474 1.400 . S
C2475 C2476 1.398 . S
C2475 C2481 1.491 . S
C2476 H2467 0.950 . S
C2476 C2475 1.398 . S
C2476 C2477 1.391 . S
C2477 H2465 0.950 . S
C2477 C2473 1.393 . S
C2477 C2476 1.391 . S
C2478 H2468 0.950 . S
C2478 C2479 1.386 . S
C2478 C2480 1.391 . S
C2479 C2478 1.386 . S
C2479 C2483 1.393 . S
C2480 H2469 0.950 . S
C2480 C2478 1.391 . S
C2480 C2481 1.400 . S
C2481 C2475 1.491 . S
C2481 C2480 1.400 . S
C2481 C2482 1.398 . S
C2482 H2470 0.950 . S
C2482 C2481 1.398 . S
C2482 C2483 1.391 . S
C2483 H2471 0.950 . S
C2483 C2479 1.393 . S
C2483 C2482 1.391 . S
H2484 C2492 0.950 . S
H2485 C2497 0.950 . S
H2486 C2494 0.950 . S
H2487 C2496 0.950 . S
H2488 C2498 0.950 . S
H2489 C2500 0.950 . S
H2490 C2502 0.950 . S
H2491 C2503 0.950 . S
C2492 H2484 0.950 . S
C2492 C2493 1.386 . S
C2492 C2494 1.391 . S
C2493 C2492 1.386 . S
C2493 C2497 1.393 . S
C2494 H2486 0.950 . S
C2494 C2492 1.391 . S
C2494 C2495 1.400 . S
C2495 C2494 1.400 . S
C2495 C2496 1.398 . S
C2495 C2501 1.491 . S
C2496 H2487 0.950 . S
C2496 C2495 1.398 . S
C2496 C2497 1.391 . S
C2497 H2485 0.950 . S
C2497 C2493 1.393 . S
C2497 C2496 1.391 . S
C2498 H2488 0.950 . S
C2498 C2499 1.386 . S
C2498 C2500 1.391 . S
C2499 C2498 1.386 . S
C2499 C2503 1.393 . S
C2500 H2489 0.950 . S
C2500 C2498 1.391 . S
C2500 C2501 1.400 . S
C2501 C2495 1.491 . S
C2501 C2500 1.400 . S
C2501 C2502 1.398 . S
C2502 H2490 0.950 . S
C2502 C2501 1.398 . S
C2502 C2503 1.391 . S
C2503 H2491 0.950 . S
C2503 C2499 1.393 . S
C2503 C2502 1.391 . S
H2504 C2512 0.950 . S
H2505 C2517 0.950 . S
H2506 C2514 0.950 . S
H2507 C2516 0.950 . S
H2508 C2518 0.950 . S
H2509 C2520 0.950 . S
H2510 C2522 0.950 . S
H2511 C2523 0.950 . S
C2512 H2504 0.950 . S
C2512 C2513 1.386 . S
C2512 C2514 1.391 . S
C2513 C2512 1.386 . S
C2513 C2517 1.393 . S
C2514 H2506 0.950 . S
C2514 C2512 1.391 . S
C2514 C2515 1.400 . S
C2515 C2514 1.400 . S
C2515 C2516 1.398 . S
C2515 C2521 1.491 . S
C2516 H2507 0.950 . S
C2516 C2515 1.398 . S
C2516 C2517 1.391 . S
C2517 H2505 0.950 . S
C2517 C2513 1.393 . S
C2517 C2516 1.391 . S
C2518 H2508 0.950 . S
C2518 C2519 1.386 . S
C2518 C2520 1.391 . S
C2519 C2518 1.386 . S
C2519 C2523 1.393 . S
C2520 H2509 0.950 . S
C2520 C2518 1.391 . S
C2520 C2521 1.400 . S
C2521 C2515 1.491 . S
C2521 C2520 1.400 . S
C2521 C2522 1.398 . S
C2522 H2510 0.950 . S
C2522 C2521 1.398 . S
C2522 C2523 1.391 . S
C2523 H2511 0.950 . S
C2523 C2519 1.393 . S
C2523 C2522 1.391 . S
H2524 C2532 0.950 . S
H2525 C2537 0.950 . S
H2526 C2534 0.950 . S
H2527 C2536 0.950 . S
H2528 C2538 0.950 . S
H2529 C2540 0.950 . S
H2530 C2542 0.950 . S
H2531 C2543 0.950 . S
C2532 H2524 0.950 . S
C2532 C2533 1.386 . S
C2532 C2534 1.391 . S
C2533 C2532 1.386 . S
C2533 C2537 1.393 . S
C2534 H2526 0.950 . S
C2534 C2532 1.391 . S
C2534 C2535 1.400 . S
C2535 C2534 1.400 . S
C2535 C2536 1.398 . S
C2535 C2541 1.491 . S
C2536 H2527 0.950 . S
C2536 C2535 1.398 . S
C2536 C2537 1.391 . S
C2537 H2525 0.950 . S
C2537 C2533 1.393 . S
C2537 C2536 1.391 . S
C2538 H2528 0.950 . S
C2538 C2539 1.386 . S
C2538 C2540 1.391 . S
C2539 C2538 1.386 . S
C2539 C2543 1.393 . S
C2540 H2529 0.950 . S
C2540 C2538 1.391 . S
C2540 C2541 1.400 . S
C2541 C2535 1.491 . S
C2541 C2540 1.400 . S
C2541 C2542 1.398 . S
C2542 H2530 0.950 . S
C2542 C2541 1.398 . S
C2542 C2543 1.391 . S
C2543 H2531 0.950 . S
C2543 C2539 1.393 . S
C2543 C2542 1.391 . S
H2544 C2552 0.950 . S
H2545 C2557 0.950 . S
H2546 C2554 0.950 . S
H2547 C2556 0.961 . S
H2548 C2558 0.950 . S
H2549 C2560 0.950 . S
H2550 C2562 0.961 . S
H2551 C2563 0.950 . S
C2552 H2544 0.950 . S
C2552 C2553 1.386 . S
C2552 C2554 1.391 . S
C2553 C2552 1.386 . S
C2553 C2557 1.393 . S
C2554 H2546 0.950 . S
C2554 C2552 1.391 . S
C2554 C2555 1.400 . S
C2555 C2554 1.400 . S
C2555 C2556 1.398 . S
C2555 C2561 1.491 1_455 S
C2556 H2547 0.961 . S
C2556 C2555 1.398 . S
C2556 C2557 1.391 . S
C2557 H2545 0.950 . S
C2557 C2553 1.393 . S
C2557 C2556 1.391 . S
C2558 H2548 0.950 . S
C2558 C2559 1.386 . S
C2558 C2560 1.391 . S
C2559 C2558 1.386 . S
C2559 C2563 1.393 . S
C2560 H2549 0.950 . S
C2560 C2558 1.391 . S
C2560 C2561 1.400 . S
C2561 C2555 1.491 1_655 S
C2561 C2560 1.400 . S
C2561 C2562 1.398 . S
C2562 H2550 0.961 . S
C2562 C2561 1.398 . S
C2562 C2563 1.391 . S
C2563 H2551 0.950 . S
C2563 C2559 1.393 . S
C2563 C2562 1.391 . S
H2564 C2572 0.950 . S
H2565 C2577 0.950 . S
H2566 C2574 0.950 . S
H2567 C2576 0.950 1_455 S
H2568 C2578 0.950 . S
H2569 C2580 0.950 . S
H2570 C2582 0.950 1_655 S
H2571 C2583 0.950 . S
C2572 H2564 0.950 . S
C2572 C2573 1.386 . S
C2572 C2574 1.391 . S
C2573 C2572 1.386 . S
C2573 C2577 1.393 . S
C2574 H2566 0.950 . S
C2574 C2572 1.391 . S
C2574 C2575 1.400 . S
C2575 C2574 1.400 . S
C2575 C2576 1.398 . S
C2575 C2581 1.491 1_655 S
C2576 H2567 0.950 1_655 S
C2576 C2575 1.398 . S
C2576 C2577 1.391 . S
C2577 H2565 0.950 . S
C2577 C2573 1.393 . S
C2577 C2576 1.391 . S
C2578 H2568 0.950 . S
C2578 C2579 1.386 . S
C2578 C2580 1.391 . S
C2579 C2578 1.386 . S
C2579 C2583 1.393 . S
C2580 H2569 0.950 . S
C2580 C2578 1.391 . S
C2580 C2581 1.400 . S
C2581 C2575 1.491 1_455 S
C2581 C2580 1.400 . S
C2581 C2582 1.398 . S
C2582 H2570 0.950 1_455 S
C2582 C2581 1.398 . S
C2582 C2583 1.391 . S
C2583 H2571 0.950 . S
C2583 C2579 1.393 . S
C2583 C2582 1.391 . S
H2584 C2592 0.950 . S
H2585 C2597 0.950 . S
H2586 C2594 0.950 1_565 S
H2587 C2596 0.950 . S
H2588 C2598 0.950 . S
H2589 C2600 0.950 1_545 S
H2590 C2602 0.950 . S
H2591 C2603 0.950 . S
C2592 H2584 0.950 . S
C2592 C2593 1.386 . S
C2592 C2594 1.391 . S
C2593 C2592 1.386 . S
C2593 C2597 1.393 . S
C2594 H2586 0.950 1_545 S
C2594 C2592 1.391 . S
C2594 C2595 1.400 . S
C2595 C2594 1.400 . S
C2595 C2596 1.398 . S
C2595 C2601 1.491 1_545 S
C2596 H2587 0.950 . S
C2596 C2595 1.398 . S
C2596 C2597 1.391 . S
C2597 H2585 0.950 . S
C2597 C2593 1.393 . S
C2597 C2596 1.391 . S
C2598 H2588 0.950 . S
C2598 C2599 1.386 . S
C2598 C2600 1.391 . S
C2599 C2598 1.386 . S
C2599 C2603 1.393 . S
C2600 H2589 0.950 1_565 S
C2600 C2598 1.391 . S
C2600 C2601 1.400 . S
C2601 C2595 1.491 1_565 S
C2601 C2600 1.400 . S
C2601 C2602 1.398 . S
C2602 H2590 0.950 . S
C2602 C2601 1.398 . S
C2602 C2603 1.391 . S
C2603 H2591 0.950 . S
C2603 C2599 1.393 . S
C2603 C2602 1.391 . S
H2604 C2612 0.950 . S
H2605 C2617 0.950 . S
H2606 C2614 0.950 . S
H2607 C2616 0.950 . S
H2608 C2618 0.950 . S
H2609 C2620 0.950 . S
H2610 C2622 0.950 . S
H2611 C2623 0.950 . S
C2612 H2604 0.950 . S
C2612 C2613 1.386 . S
C2612 C2614 1.391 . S
C2613 C2612 1.386 . S
C2613 C2617 1.393 . S
C2614 H2606 0.950 . S
C2614 C2612 1.391 . S
C2614 C2615 1.400 . S
C2615 C2614 1.400 . S
C2615 C2616 1.398 . S
C2615 C2621 1.491 . S
C2616 H2607 0.950 . S
C2616 C2615 1.398 . S
C2616 C2617 1.391 . S
C2617 H2605 0.950 . S
C2617 C2613 1.393 . S
C2617 C2616 1.391 . S
C2618 H2608 0.950 . S
C2618 C2619 1.386 . S
C2618 C2620 1.391 . S
C2619 C2618 1.386 . S
C2619 C2623 1.393 . S
C2620 H2609 0.950 . S
C2620 C2618 1.391 . S
C2620 C2621 1.400 . S
C2621 C2615 1.491 . S
C2621 C2620 1.400 . S
C2621 C2622 1.398 . S
C2622 H2610 0.950 . S
C2622 C2621 1.398 . S
C2622 C2623 1.391 . S
C2623 H2611 0.950 . S
C2623 C2619 1.393 . S
C2623 C2622 1.391 . S
H2624 C2632 0.950 . S
H2625 C2637 0.950 . S
H2626 C2634 0.950 . S
H2627 C2636 0.950 . S
H2628 C2638 0.950 . S
H2629 C2640 0.950 . S
H2630 C2642 0.950 . S
H2631 C2643 0.950 . S
C2632 H2624 0.950 . S
C2632 C2633 1.386 . S
C2632 C2634 1.391 . S
C2633 C2632 1.386 . S
C2633 C2637 1.393 . S
C2634 H2626 0.950 . S
C2634 C2632 1.391 . S
C2634 C2635 1.400 . S
C2635 C2634 1.400 . S
C2635 C2636 1.398 . S
C2635 C2641 1.491 1_556 S
C2636 H2627 0.950 . S
C2636 C2635 1.398 . S
C2636 C2637 1.391 . S
C2637 H2625 0.950 . S
C2637 C2633 1.393 . S
C2637 C2636 1.391 . S
C2638 H2628 0.950 . S
C2638 C2639 1.386 . S
C2638 C2640 1.391 . S
C2639 C2638 1.386 . S
C2639 C2643 1.393 . S
C2640 H2629 0.950 . S
C2640 C2638 1.391 . S
C2640 C2641 1.400 . S
C2641 C2635 1.491 1_554 S
C2641 C2640 1.400 . S
C2641 C2642 1.398 . S
C2642 H2630 0.950 . S
C2642 C2641 1.398 . S
C2642 C2643 1.391 . S
C2643 H2631 0.950 . S
C2643 C2639 1.393 . S
C2643 C2642 1.391 . S
H2644 C2652 0.950 . S
H2645 C2657 0.950 . S
H2646 C2654 0.950 . S
H2647 C2656 0.950 . S
H2648 C2658 0.950 . S
H2649 C2660 0.950 . S
H2650 C2662 0.950 . S
H2651 C2663 0.950 . S
C2652 H2644 0.950 . S
C2652 C2653 1.386 . S
C2652 C2654 1.391 . S
C2653 C2652 1.386 . S
C2653 C2657 1.393 . S
C2654 H2646 0.950 . S
C2654 C2652 1.391 . S
C2654 C2655 1.400 . S
C2655 C2654 1.400 . S
C2655 C2656 1.398 . S
C2655 C2661 1.491 . S
C2656 H2647 0.950 . S
C2656 C2655 1.398 . S
C2656 C2657 1.391 . S
C2657 H2645 0.950 . S
C2657 C2653 1.393 . S
C2657 C2656 1.391 . S
C2658 H2648 0.950 . S
C2658 C2659 1.386 . S
C2658 C2660 1.391 . S
C2659 C2658 1.386 . S
C2659 C2663 1.393 . S
C2660 H2649 0.950 . S
C2660 C2658 1.391 . S
C2660 C2661 1.400 . S
C2661 C2655 1.491 . S
C2661 C2660 1.400 . S
C2661 C2662 1.398 . S
C2662 H2650 0.950 . S
C2662 C2661 1.398 . S
C2662 C2663 1.391 . S
C2663 H2651 0.950 . S
C2663 C2659 1.393 . S
C2663 C2662 1.391 . S
H2664 C2672 0.950 . S
H2665 C2677 0.950 . S
H2666 C2674 0.950 . S
H2667 C2676 0.950 . S
H2668 C2678 0.950 . S
H2669 C2680 0.950 . S
H2670 C2682 0.950 . S
H2671 C2683 0.950 . S
C2672 H2664 0.950 . S
C2672 C2673 1.386 . S
C2672 C2674 1.391 . S
C2673 C2672 1.386 . S
C2673 C2677 1.393 . S
C2674 H2666 0.950 . S
C2674 C2672 1.391 . S
C2674 C2675 1.400 . S
C2675 C2674 1.400 . S
C2675 C2676 1.398 . S
C2675 C2681 1.491 . S
C2676 H2667 0.950 . S
C2676 C2675 1.398 . S
C2676 C2677 1.391 . S
C2677 H2665 0.950 . S
C2677 C2673 1.393 . S
C2677 C2676 1.391 . S
C2678 H2668 0.950 . S
C2678 C2679 1.386 . S
C2678 C2680 1.391 . S
C2679 C2678 1.386 . S
C2679 C2683 1.393 . S
C2680 H2669 0.950 . S
C2680 C2678 1.391 . S
C2680 C2681 1.400 . S
C2681 C2675 1.491 . S
C2681 C2680 1.400 . S
C2681 C2682 1.398 . S
C2682 H2670 0.950 . S
C2682 C2681 1.398 . S
C2682 C2683 1.391 . S
C2683 H2671 0.950 . S
C2683 C2679 1.393 . S
C2683 C2682 1.391 . S
H2684 C2692 0.950 . S
H2685 C2697 0.950 . S
H2686 C2694 0.950 . S
H2687 C2696 0.950 . S
H2688 C2698 0.950 . S
H2689 C2700 0.950 . S
H2690 C2702 0.950 . S
H2691 C2703 0.950 . S
C2692 H2684 0.950 . S
C2692 C2693 1.386 . S
C2692 C2694 1.391 . S
C2693 C2692 1.386 . S
C2693 C2697 1.393 . S
C2694 H2686 0.950 . S
C2694 C2692 1.391 . S
C2694 C2695 1.400 . S
C2695 C2694 1.400 . S
C2695 C2696 1.398 . S
C2695 C2701 1.491 1_655 S
C2696 H2687 0.950 . S
C2696 C2695 1.398 . S
C2696 C2697 1.391 . S
C2697 H2685 0.950 . S
C2697 C2693 1.393 . S
C2697 C2696 1.391 . S
C2698 H2688 0.950 . S
C2698 C2699 1.386 . S
C2698 C2700 1.391 . S
C2699 C2698 1.386 . S
C2699 C2703 1.393 . S
C2700 H2689 0.950 . S
C2700 C2698 1.391 . S
C2700 C2701 1.400 . S
C2701 C2695 1.491 1_455 S
C2701 C2700 1.400 . S
C2701 C2702 1.398 . S
C2702 H2690 0.950 . S
C2702 C2701 1.398 . S
C2702 C2703 1.391 . S
C2703 H2691 0.950 . S
C2703 C2699 1.393 . S
C2703 C2702 1.391 . S
H2704 C2712 0.950 . S
H2705 C2717 0.950 . S
H2706 C2714 0.950 1_455 S
H2707 C2716 0.950 . S
H2708 C2718 0.950 . S
H2709 C2720 0.950 1_655 S
H2710 C2722 0.950 . S
H2711 C2723 0.950 . S
C2712 H2704 0.950 . S
C2712 C2713 1.386 . S
C2712 C2714 1.391 . S
C2713 C2712 1.386 . S
C2713 C2717 1.393 . S
C2714 H2706 0.950 1_655 S
C2714 C2712 1.391 . S
C2714 C2715 1.400 . S
C2715 C2714 1.400 . S
C2715 C2716 1.398 . S
C2715 C2721 1.491 1_655 S
C2716 H2707 0.950 . S
C2716 C2715 1.398 . S
C2716 C2717 1.391 . S
C2717 H2705 0.950 . S
C2717 C2713 1.393 . S
C2717 C2716 1.391 . S
C2718 H2708 0.950 . S
C2718 C2719 1.386 . S
C2718 C2720 1.391 . S
C2719 C2718 1.386 . S
C2719 C2723 1.393 . S
C2720 H2709 0.950 1_455 S
C2720 C2718 1.391 . S
C2720 C2721 1.400 . S
C2721 C2715 1.491 1_455 S
C2721 C2720 1.400 . S
C2721 C2722 1.398 . S
C2722 H2710 0.950 . S
C2722 C2721 1.398 . S
C2722 C2723 1.391 . S
C2723 H2711 0.950 . S
C2723 C2719 1.393 . S
C2723 C2722 1.391 . S
H2724 C2732 0.950 . S
H2725 C2737 0.950 . S
H2726 C2734 0.950 . S
H2727 C2736 0.950 1_565 S
H2728 C2738 0.950 . S
H2729 C2740 0.950 . S
H2730 C2742 0.950 1_545 S
H2731 C2743 0.950 . S
C2732 H2724 0.950 . S
C2732 C2733 1.386 . S
C2732 C2734 1.391 . S
C2733 C2732 1.386 . S
C2733 C2737 1.393 . S
C2734 H2726 0.950 . S
C2734 C2732 1.391 . S
C2734 C2735 1.400 . S
C2735 C2734 1.400 . S
C2735 C2736 1.398 . S
C2735 C2741 1.491 1_545 S
C2736 H2727 0.950 1_545 S
C2736 C2735 1.398 . S
C2736 C2737 1.391 . S
C2737 H2725 0.950 . S
C2737 C2733 1.393 . S
C2737 C2736 1.391 . S
C2738 H2728 0.950 . S
C2738 C2739 1.386 . S
C2738 C2740 1.391 . S
C2739 C2738 1.386 . S
C2739 C2743 1.393 . S
C2740 H2729 0.950 . S
C2740 C2738 1.391 . S
C2740 C2741 1.400 . S
C2741 C2735 1.491 1_565 S
C2741 C2740 1.400 . S
C2741 C2742 1.398 . S
C2742 H2730 0.950 1_565 S
C2742 C2741 1.398 . S
C2742 C2743 1.391 . S
C2743 H2731 0.950 . S
C2743 C2739 1.393 . S
C2743 C2742 1.391 . S
H2744 C2752 0.950 . S
H2745 C2757 0.950 . S
H2746 C2754 0.950 . S
H2747 C2756 0.950 . S
H2748 C2758 0.950 . S
H2749 C2760 0.950 . S
H2750 C2762 0.950 . S
H2751 C2763 0.950 . S
C2752 H2744 0.950 . S
C2752 C2753 1.386 . S
C2752 C2754 1.391 . S
C2753 C2752 1.386 . S
C2753 C2757 1.393 . S
C2754 H2746 0.950 . S
C2754 C2752 1.391 . S
C2754 C2755 1.400 . S
C2755 C2754 1.400 . S
C2755 C2756 1.398 . S
C2755 C2761 1.491 . S
C2756 H2747 0.950 . S
C2756 C2755 1.398 . S
C2756 C2757 1.391 . S
C2757 H2745 0.950 . S
C2757 C2753 1.393 . S
C2757 C2756 1.391 . S
C2758 H2748 0.950 . S
C2758 C2759 1.386 . S
C2758 C2760 1.391 . S
C2759 C2758 1.386 . S
C2759 C2763 1.393 . S
C2760 H2749 0.950 . S
C2760 C2758 1.391 . S
C2760 C2761 1.400 . S
C2761 C2755 1.491 . S
C2761 C2760 1.400 . S
C2761 C2762 1.398 . S
C2762 H2750 0.950 . S
C2762 C2761 1.398 . S
C2762 C2763 1.391 . S
C2763 H2751 0.950 . S
C2763 C2759 1.393 . S
C2763 C2762 1.391 . S
H2764 C2772 0.950 . S
H2765 C2777 0.950 . S
H2766 C2774 0.950 . S
H2767 C2776 0.950 . S
H2768 C2778 0.950 . S
H2769 C2780 0.950 . S
H2770 C2782 0.950 . S
H2771 C2783 0.950 . S
C2772 H2764 0.950 . S
C2772 C2773 1.386 . S
C2772 C2774 1.391 . S
C2773 C2772 1.386 . S
C2773 C2777 1.393 . S
C2774 H2766 0.950 . S
C2774 C2772 1.391 . S
C2774 C2775 1.400 . S
C2775 C2774 1.400 . S
C2775 C2776 1.398 . S
C2775 C2781 1.491 1_556 S
C2776 H2767 0.950 . S
C2776 C2775 1.398 . S
C2776 C2777 1.391 . S
C2777 H2765 0.950 . S
C2777 C2773 1.393 . S
C2777 C2776 1.391 . S
C2778 H2768 0.950 . S
C2778 C2779 1.386 . S
C2778 C2780 1.391 . S
C2779 C2778 1.386 . S
C2779 C2783 1.393 . S
C2780 H2769 0.950 . S
C2780 C2778 1.391 . S
C2780 C2781 1.400 . S
C2781 C2775 1.491 1_554 S
C2781 C2780 1.400 . S
C2781 C2782 1.398 . S
C2782 H2770 0.950 . S
C2782 C2781 1.398 . S
C2782 C2783 1.391 . S
C2783 H2771 0.950 . S
C2783 C2779 1.393 . S
C2783 C2782 1.391 . S
H2784 C2792 0.950 . S
H2785 C2797 0.950 . S
H2786 C2794 0.950 . S
H2787 C2796 0.950 . S
H2788 C2798 0.950 . S
H2789 C2800 0.950 . S
H2790 C2802 0.950 . S
H2791 C2803 0.950 . S
C2792 H2784 0.950 . S
C2792 C2793 1.386 . S
C2792 C2794 1.391 . S
C2793 C2792 1.386 . S
C2793 C2797 1.393 . S
C2794 H2786 0.950 . S
C2794 C2792 1.391 . S
C2794 C2795 1.400 . S
C2795 C2794 1.400 . S
C2795 C2796 1.398 . S
C2795 C2801 1.491 . S
C2796 H2787 0.950 . S
C2796 C2795 1.398 . S
C2796 C2797 1.391 . S
C2797 H2785 0.950 . S
C2797 C2793 1.393 . S
C2797 C2796 1.391 . S
C2798 H2788 0.950 . S
C2798 C2799 1.386 . S
C2798 C2800 1.391 . S
C2799 C2798 1.386 . S
C2799 C2803 1.393 . S
C2800 H2789 0.950 . S
C2800 C2798 1.391 . S
C2800 C2801 1.400 . S
C2801 C2795 1.491 . S
C2801 C2800 1.400 . S
C2801 C2802 1.398 . S
C2802 H2790 0.950 . S
C2802 C2801 1.398 . S
C2802 C2803 1.391 . S
C2803 H2791 0.950 . S
C2803 C2799 1.393 . S
C2803 C2802 1.391 . S
H2804 C2812 0.950 . S
H2805 C2817 0.950 . S
H2806 C2814 0.950 . S
H2807 C2816 0.950 . S
H2808 C2818 0.950 . S
H2809 C2820 0.950 . S
H2810 C2822 0.950 . S
H2811 C2823 0.950 . S
C2812 H2804 0.950 . S
C2812 C2813 1.386 . S
C2812 C2814 1.391 . S
C2813 C2812 1.386 . S
C2813 C2817 1.393 . S
C2814 H2806 0.950 . S
C2814 C2812 1.391 . S
C2814 C2815 1.400 . S
C2815 C2814 1.400 . S
C2815 C2816 1.398 . S
C2815 C2821 1.491 . S
C2816 H2807 0.950 . S
C2816 C2815 1.398 . S
C2816 C2817 1.391 . S
C2817 H2805 0.950 . S
C2817 C2813 1.393 . S
C2817 C2816 1.391 . S
C2818 H2808 0.950 . S
C2818 C2819 1.386 . S
C2818 C2820 1.391 . S
C2819 C2818 1.386 . S
C2819 C2823 1.393 . S
C2820 H2809 0.950 . S
C2820 C2818 1.391 . S
C2820 C2821 1.400 . S
C2821 C2815 1.491 . S
C2821 C2820 1.400 . S
C2821 C2822 1.398 . S
C2822 H2810 0.950 . S
C2822 C2821 1.398 . S
C2822 C2823 1.391 . S
C2823 H2811 0.950 . S
C2823 C2819 1.393 . S
C2823 C2822 1.391 . S
H2824 C2832 0.950 . S
H2825 C2837 0.950 . S
H2826 C2834 0.950 . S
H2827 C2836 0.950 . S
H2828 C2838 0.950 . S
H2829 C2840 0.950 . S
H2830 C2842 0.950 . S
H2831 C2843 0.950 . S
C2832 H2824 0.950 . S
C2832 C2833 1.386 . S
C2832 C2834 1.391 . S
C2833 C2832 1.386 . S
C2833 C2837 1.393 . S
C2834 H2826 0.950 . S
C2834 C2832 1.391 . S
C2834 C2835 1.400 . S
C2835 C2834 1.400 . S
C2835 C2836 1.398 . S
C2835 C2841 1.491 . S
C2836 H2827 0.950 . S
C2836 C2835 1.398 . S
C2836 C2837 1.391 . S
C2837 H2825 0.950 . S
C2837 C2833 1.393 . S
C2837 C2836 1.391 . S
C2838 H2828 0.950 . S
C2838 C2839 1.386 . S
C2838 C2840 1.391 . S
C2839 C2838 1.386 . S
C2839 C2843 1.393 . S
C2840 H2829 0.950 . S
C2840 C2838 1.391 . S
C2840 C2841 1.400 . S
C2841 C2835 1.491 . S
C2841 C2840 1.400 . S
C2841 C2842 1.398 . S
C2842 H2830 0.950 . S
C2842 C2841 1.398 . S
C2842 C2843 1.391 . S
C2843 H2831 0.950 . S
C2843 C2839 1.393 . S
C2843 C2842 1.391 . S
H2844 C2852 0.950 . S
H2845 C2857 0.950 . S
H2846 C2854 0.950 . S
H2847 C2856 0.950 . S
H2848 C2858 0.950 . S
H2849 C2860 0.950 . S
H2850 C2862 0.950 . S
H2851 C2863 0.950 . S
C2852 H2844 0.950 . S
C2852 C2853 1.386 . S
C2852 C2854 1.391 . S
C2853 C2852 1.386 . S
C2853 C2857 1.393 . S
C2854 H2846 0.950 . S
C2854 C2852 1.391 . S
C2854 C2855 1.400 . S
C2855 C2854 1.400 . S
C2855 C2856 1.398 . S
C2855 C2861 1.491 . S
C2856 H2847 0.950 . S
C2856 C2855 1.398 . S
C2856 C2857 1.391 . S
C2857 H2845 0.950 . S
C2857 C2853 1.393 . S
C2857 C2856 1.391 . S
C2858 H2848 0.950 . S
C2858 C2859 1.386 . S
C2858 C2860 1.391 . S
C2859 C2858 1.386 . S
C2859 C2863 1.393 . S
C2860 H2849 0.950 . S
C2860 C2858 1.391 . S
C2860 C2861 1.400 . S
C2861 C2855 1.491 . S
C2861 C2860 1.400 . S
C2861 C2862 1.398 . S
C2862 H2850 0.950 . S
C2862 C2861 1.398 . S
C2862 C2863 1.391 . S
C2863 H2851 0.950 . S
C2863 C2859 1.393 . S
C2863 C2862 1.391 . S
H2864 C2872 0.950 . S
H2865 C2877 0.950 . S
H2866 C2874 0.950 . S
H2867 C2876 0.950 . S
H2868 C2878 0.950 . S
H2869 C2880 0.950 . S
H2870 C2882 0.950 . S
H2871 C2883 0.950 . S
C2872 H2864 0.950 . S
C2872 C2873 1.386 . S
C2872 C2874 1.391 . S
C2873 C2872 1.386 . S
C2873 C2877 1.393 . S
C2874 H2866 0.950 . S
C2874 C2872 1.391 . S
C2874 C2875 1.400 . S
C2875 C2874 1.400 . S
C2875 C2876 1.398 . S
C2875 C2881 1.491 . S
C2876 H2867 0.950 . S
C2876 C2875 1.398 . S
C2876 C2877 1.391 . S
C2877 H2865 0.950 . S
C2877 C2873 1.393 . S
C2877 C2876 1.391 . S
C2878 H2868 0.950 . S
C2878 C2879 1.386 . S
C2878 C2880 1.391 . S
C2879 C2878 1.386 . S
C2879 C2883 1.393 . S
C2880 H2869 0.950 . S
C2880 C2878 1.391 . S
C2880 C2881 1.400 . S
C2881 C2875 1.491 . S
C2881 C2880 1.400 . S
C2881 C2882 1.398 . S
C2882 H2870 0.950 . S
C2882 C2881 1.398 . S
C2882 C2883 1.391 . S
C2883 H2871 0.950 . S
C2883 C2879 1.393 . S
C2883 C2882 1.391 . S
H2884 C2892 0.950 . S
H2885 C2897 0.950 . S
H2886 C2894 0.950 1_565 S
H2887 C2896 0.950 . S
H2888 C2898 0.950 . S
H2889 C2900 0.950 1_545 S
H2890 C2902 0.950 . S
H2891 C2903 0.950 . S
C2892 H2884 0.950 . S
C2892 C2893 1.386 . S
C2892 C2894 1.391 . S
C2893 C2892 1.386 . S
C2893 C2897 1.393 . S
C2894 H2886 0.950 1_545 S
C2894 C2892 1.391 . S
C2894 C2895 1.400 . S
C2895 C2894 1.400 . S
C2895 C2896 1.398 . S
C2895 C2901 1.491 1_545 S
C2896 H2887 0.950 . S
C2896 C2895 1.398 . S
C2896 C2897 1.391 . S
C2897 H2885 0.950 . S
C2897 C2893 1.393 . S
C2897 C2896 1.391 . S
C2898 H2888 0.950 . S
C2898 C2899 1.386 . S
C2898 C2900 1.391 . S
C2899 C2898 1.386 . S
C2899 C2903 1.393 . S
C2900 H2889 0.950 1_565 S
C2900 C2898 1.391 . S
C2900 C2901 1.400 . S
C2901 C2895 1.491 1_565 S
C2901 C2900 1.400 . S
C2901 C2902 1.398 . S
C2902 H2890 0.950 . S
C2902 C2901 1.398 . S
C2902 C2903 1.391 . S
C2903 H2891 0.950 . S
C2903 C2899 1.393 . S
C2903 C2902 1.391 . S
H2904 C2912 0.950 . S
H2905 C2917 0.950 . S
H2906 C2914 0.919 1_556 S
H2907 C2916 0.950 . S
H2908 C2918 0.950 . S
H2909 C2920 0.919 1_554 S
H2910 C2922 0.950 . S
H2911 C2923 0.950 . S
C2912 H2904 0.950 . S
C2912 C2913 1.386 . S
C2912 C2914 1.391 . S
C2913 C2912 1.386 . S
C2913 C2917 1.393 . S
C2914 H2906 0.919 1_554 S
C2914 C2912 1.391 . S
C2914 C2915 1.400 . S
C2915 C2914 1.400 . S
C2915 C2916 1.398 . S
C2915 C2921 1.491 1_554 S
C2916 H2907 0.950 . S
C2916 C2915 1.398 . S
C2916 C2917 1.391 . S
C2917 H2905 0.950 . S
C2917 C2913 1.393 . S
C2917 C2916 1.391 . S
C2918 H2908 0.950 . S
C2918 C2919 1.386 . S
C2918 C2920 1.391 . S
C2919 C2918 1.386 . S
C2919 C2923 1.393 . S
C2920 H2909 0.919 1_556 S
C2920 C2918 1.391 . S
C2920 C2921 1.400 . S
C2921 C2915 1.491 1_556 S
C2921 C2920 1.400 . S
C2921 C2922 1.398 . S
C2922 H2910 0.950 . S
C2922 C2921 1.398 . S
C2922 C2923 1.391 . S
C2923 H2911 0.950 . S
C2923 C2919 1.393 . S
C2923 C2922 1.391 . S
H2924 C2932 0.950 . S
H2925 C2937 0.950 . S
H2926 C2934 0.950 . S
H2927 C2936 0.950 . S
H2928 C2938 0.950 . S
H2929 C2940 0.950 . S
H2930 C2942 0.950 . S
H2931 C2943 0.950 . S
C2932 H2924 0.950 . S
C2932 C2933 1.386 . S
C2932 C2934 1.391 . S
C2933 C2932 1.386 . S
C2933 C2937 1.393 . S
C2934 H2926 0.950 . S
C2934 C2932 1.391 . S
C2934 C2935 1.400 . S
C2935 C2934 1.400 . S
C2935 C2936 1.398 . S
C2935 C2941 1.491 . S
C2936 H2927 0.950 . S
C2936 C2935 1.398 . S
C2936 C2937 1.391 . S
C2937 H2925 0.950 . S
C2937 C2933 1.393 . S
C2937 C2936 1.391 . S
C2938 H2928 0.950 . S
C2938 C2939 1.386 . S
C2938 C2940 1.391 . S
C2939 C2938 1.386 . S
C2939 C2943 1.393 . S
C2940 H2929 0.950 . S
C2940 C2938 1.391 . S
C2940 C2941 1.400 . S
C2941 C2935 1.491 . S
C2941 C2940 1.400 . S
C2941 C2942 1.398 . S
C2942 H2930 0.950 . S
C2942 C2941 1.398 . S
C2942 C2943 1.391 . S
C2943 H2931 0.950 . S
C2943 C2939 1.393 . S
C2943 C2942 1.391 . S
H2944 C2952 0.950 . S
H2945 C2957 0.950 . S
H2946 C2954 0.950 . S
H2947 C2956 0.950 . S
H2948 C2958 0.950 . S
H2949 C2960 0.950 . S
H2950 C2962 0.950 . S
H2951 C2963 0.950 . S
C2952 H2944 0.950 . S
C2952 C2953 1.386 . S
C2952 C2954 1.391 . S
C2953 C2952 1.386 . S
C2953 C2957 1.393 . S
C2954 H2946 0.950 . S
C2954 C2952 1.391 . S
C2954 C2955 1.400 . S
C2955 C2954 1.400 . S
C2955 C2956 1.398 . S
C2955 C2961 1.491 . S
C2956 H2947 0.950 . S
C2956 C2955 1.398 . S
C2956 C2957 1.391 . S
C2957 H2945 0.950 . S
C2957 C2953 1.393 . S
C2957 C2956 1.391 . S
C2958 H2948 0.950 . S
C2958 C2959 1.386 . S
C2958 C2960 1.391 . S
C2959 C2958 1.386 . S
C2959 C2963 1.393 . S
C2960 H2949 0.950 . S
C2960 C2958 1.391 . S
C2960 C2961 1.400 . S
C2961 C2955 1.491 . S
C2961 C2960 1.400 . S
C2961 C2962 1.398 . S
C2962 H2950 0.950 . S
C2962 C2961 1.398 . S
C2962 C2963 1.391 . S
C2963 H2951 0.950 . S
C2963 C2959 1.393 . S
C2963 C2962 1.391 . S
H2964 C2972 0.950 . S
H2965 C2977 0.950 . S
H2966 C2974 0.950 . S
H2967 C2976 0.950 . S
H2968 C2978 0.950 . S
H2969 C2980 0.950 . S
H2970 C2982 0.950 . S
H2971 C2983 0.950 . S
C2972 H2964 0.950 . S
C2972 C2973 1.386 . S
C2972 C2974 1.391 . S
C2973 C2972 1.386 . S
C2973 C2977 1.393 . S
C2974 H2966 0.950 . S
C2974 C2972 1.391 . S
C2974 C2975 1.400 . S
C2975 C2974 1.400 . S
C2975 C2976 1.398 . S
C2975 C2981 1.491 . S
C2976 H2967 0.950 . S
C2976 C2975 1.398 . S
C2976 C2977 1.391 . S
C2977 H2965 0.950 . S
C2977 C2973 1.393 . S
C2977 C2976 1.391 . S
C2978 H2968 0.950 . S
C2978 C2979 1.386 . S
C2978 C2980 1.391 . S
C2979 C2978 1.386 . S
C2979 C2983 1.393 . S
C2980 H2969 0.950 . S
C2980 C2978 1.391 . S
C2980 C2981 1.400 . S
C2981 C2975 1.491 . S
C2981 C2980 1.400 . S
C2981 C2982 1.398 . S
C2982 H2970 0.950 . S
C2982 C2981 1.398 . S
C2982 C2983 1.391 . S
C2983 H2971 0.950 . S
C2983 C2979 1.393 . S
C2983 C2982 1.391 . S
H2984 C2992 0.950 . S
H2985 C2997 0.950 . S
H2986 C2994 0.950 . S
H2987 C2996 0.950 . S
H2988 C2998 0.950 . S
H2989 C3000 0.950 . S
H2990 C3002 0.950 . S
H2991 C3003 0.950 . S
C2992 H2984 0.950 . S
C2992 C2993 1.386 . S
C2992 C2994 1.391 . S
C2993 C2992 1.386 . S
C2993 C2997 1.393 . S
C2994 H2986 0.950 . S
C2994 C2992 1.391 . S
C2994 C2995 1.400 . S
C2995 C2994 1.400 . S
C2995 C2996 1.398 . S
C2995 C3001 1.491 1_565 S
C2996 H2987 0.950 . S
C2996 C2995 1.398 . S
C2996 C2997 1.391 . S
C2997 H2985 0.950 . S
C2997 C2993 1.393 . S
C2997 C2996 1.391 . S
C2998 H2988 0.950 . S
C2998 C2999 1.386 . S
C2998 C3000 1.391 . S
C2999 C2998 1.386 . S
C2999 C3003 1.393 . S
C3000 H2989 0.950 . S
C3000 C2998 1.391 . S
C3000 C3001 1.400 . S
C3001 C2995 1.491 1_545 S
C3001 C3000 1.400 . S
C3001 C3002 1.398 . S
C3002 H2990 0.950 . S
C3002 C3001 1.398 . S
C3002 C3003 1.391 . S
C3003 H2991 0.950 . S
C3003 C2999 1.393 . S
C3003 C3002 1.391 . S
H3004 C3012 0.950 . S
H3005 C3017 0.950 . S
H3006 C3014 0.950 . S
H3007 C3016 0.950 1_554 S
H3008 C3018 0.950 . S
H3009 C3020 0.950 . S
H3010 C3022 0.950 1_556 S
H3011 C3023 0.950 . S
C3012 H3004 0.950 . S
C3012 C3013 1.386 . S
C3012 C3014 1.391 . S
C3013 C3012 1.386 . S
C3013 C3017 1.393 . S
C3014 H3006 0.950 . S
C3014 C3012 1.391 . S
C3014 C3015 1.400 . S
C3015 C3014 1.400 . S
C3015 C3016 1.398 . S
C3015 C3021 1.491 1_556 S
C3016 H3007 0.950 1_556 S
C3016 C3015 1.398 . S
C3016 C3017 1.391 . S
C3017 H3005 0.950 . S
C3017 C3013 1.393 . S
C3017 C3016 1.391 . S
C3018 H3008 0.950 . S
C3018 C3019 1.386 . S
C3018 C3020 1.391 . S
C3019 C3018 1.386 . S
C3019 C3023 1.393 . S
C3020 H3009 0.950 . S
C3020 C3018 1.391 . S
C3020 C3021 1.400 . S
C3021 C3015 1.491 1_554 S
C3021 C3020 1.400 . S
C3021 C3022 1.398 . S
C3022 H3010 0.950 1_554 S
C3022 C3021 1.398 . S
C3022 C3023 1.391 . S
C3023 H3011 0.950 . S
C3023 C3019 1.393 . S
C3023 C3022 1.391 . S
H3024 C3032 0.950 . S
H3025 C3037 0.950 . S
H3026 C3034 0.950 . S
H3027 C3036 0.950 . S
H3028 C3038 0.950 . S
H3029 C3040 0.950 . S
H3030 C3042 0.950 . S
H3031 C3043 0.950 . S
C3032 H3024 0.950 . S
C3032 C3033 1.386 . S
C3032 C3034 1.391 . S
C3033 C3032 1.386 . S
C3033 C3037 1.393 . S
C3034 H3026 0.950 . S
C3034 C3032 1.391 . S
C3034 C3035 1.400 . S
C3035 C3034 1.400 . S
C3035 C3036 1.398 . S
C3035 C3041 1.491 . S
C3036 H3027 0.950 . S
C3036 C3035 1.398 . S
C3036 C3037 1.391 . S
C3037 H3025 0.950 . S
C3037 C3033 1.393 . S
C3037 C3036 1.391 . S
C3038 H3028 0.950 . S
C3038 C3039 1.386 . S
C3038 C3040 1.391 . S
C3039 C3038 1.386 . S
C3039 C3043 1.393 . S
C3040 H3029 0.950 . S
C3040 C3038 1.391 . S
C3040 C3041 1.400 . S
C3041 C3035 1.491 . S
C3041 C3040 1.400 . S
C3041 C3042 1.398 . S
C3042 H3030 0.950 . S
C3042 C3041 1.398 . S
C3042 C3043 1.391 . S
C3043 H3031 0.950 . S
C3043 C3039 1.393 . S
C3043 C3042 1.391 . S
H3044 C3052 0.950 . S
H3045 C3057 0.950 . S
H3046 C3054 0.950 . S
H3047 C3056 0.950 . S
H3048 C3058 0.950 . S
H3049 C3060 0.950 . S
H3050 C3062 0.950 . S
H3051 C3063 0.950 . S
C3052 H3044 0.950 . S
C3052 C3053 1.386 . S
C3052 C3054 1.391 . S
C3053 C3052 1.386 . S
C3053 C3057 1.393 . S
C3054 H3046 0.950 . S
C3054 C3052 1.391 . S
C3054 C3055 1.400 . S
C3055 C3054 1.400 . S
C3055 C3056 1.398 . S
C3055 C3061 1.491 . S
C3056 H3047 0.950 . S
C3056 C3055 1.398 . S
C3056 C3057 1.391 . S
C3057 H3045 0.950 . S
C3057 C3053 1.393 . S
C3057 C3056 1.391 . S
C3058 H3048 0.950 . S
C3058 C3059 1.386 . S
C3058 C3060 1.391 . S
C3059 C3058 1.386 . S
C3059 C3063 1.393 . S
C3060 H3049 0.950 . S
C3060 C3058 1.391 . S
C3060 C3061 1.400 . S
C3061 C3055 1.491 . S
C3061 C3060 1.400 . S
C3061 C3062 1.398 . S
C3062 H3050 0.950 . S
C3062 C3061 1.398 . S
C3062 C3063 1.391 . S
C3063 H3051 0.950 . S
C3063 C3059 1.393 . S
C3063 C3062 1.391 . S
H3064 C3072 0.950 . S
H3065 C3077 0.950 . S
H3066 C3074 0.950 . S
H3067 C3076 0.950 . S
H3068 C3078 0.950 . S
H3069 C3080 0.950 . S
H3070 C3082 0.950 . S
H3071 C3083 0.950 . S
C3072 H3064 0.950 . S
C3072 C3073 1.386 . S
C3072 C3074 1.391 . S
C3073 C3072 1.386 . S
C3073 C3077 1.393 . S
C3074 H3066 0.950 . S
C3074 C3072 1.391 . S
C3074 C3075 1.400 . S
C3075 C3074 1.400 . S
C3075 C3076 1.398 . S
C3075 C3081 1.491 1_556 S
C3076 H3067 0.950 . S
C3076 C3075 1.398 . S
C3076 C3077 1.391 . S
C3077 H3065 0.950 . S
C3077 C3073 1.393 . S
C3077 C3076 1.391 . S
C3078 H3068 0.950 . S
C3078 C3079 1.386 . S
C3078 C3080 1.391 . S
C3079 C3078 1.386 . S
C3079 C3083 1.393 . S
C3080 H3069 0.950 . S
C3080 C3078 1.391 . S
C3080 C3081 1.400 . S
C3081 C3075 1.491 1_554 S
C3081 C3080 1.400 . S
C3081 C3082 1.398 . S
C3082 H3070 0.950 . S
C3082 C3081 1.398 . S
C3082 C3083 1.391 . S
C3083 H3071 0.950 . S
C3083 C3079 1.393 . S
C3083 C3082 1.391 . S
H3084 C3092 0.950 . S
H3085 C3097 0.950 . S
H3086 C3094 0.950 . S
H3087 C3096 0.950 . S
H3088 C3098 0.950 . S
H3089 C3100 0.950 . S
H3090 C3102 0.950 . S
H3091 C3103 0.950 . S
C3092 H3084 0.950 . S
C3092 C3093 1.386 . S
C3092 C3094 1.391 . S
C3093 C3092 1.386 . S
C3093 C3097 1.393 . S
C3094 H3086 0.950 . S
C3094 C3092 1.391 . S
C3094 C3095 1.400 . S
C3095 C3094 1.400 . S
C3095 C3096 1.398 . S
C3095 C3101 1.491 1_556 S
C3096 H3087 0.950 . S
C3096 C3095 1.398 . S
C3096 C3097 1.391 . S
C3097 H3085 0.950 . S
C3097 C3093 1.393 . S
C3097 C3096 1.391 . S
C3098 H3088 0.950 . S
C3098 C3099 1.386 . S
C3098 C3100 1.391 . S
C3099 C3098 1.386 . S
C3099 C3103 1.393 . S
C3100 H3089 0.950 . S
C3100 C3098 1.391 . S
C3100 C3101 1.400 . S
C3101 C3095 1.491 1_554 S
C3101 C3100 1.400 . S
C3101 C3102 1.398 . S
C3102 H3090 0.950 . S
C3102 C3101 1.398 . S
C3102 C3103 1.391 . S
C3103 H3091 0.950 . S
C3103 C3099 1.393 . S
C3103 C3102 1.391 . S
H3104 C3112 0.950 . S
H3105 C3117 0.950 . S
H3106 C3114 0.950 . S
H3107 C3116 0.950 . S
H3108 C3118 0.950 . S
H3109 C3120 0.950 . S
H3110 C3122 0.950 . S
H3111 C3123 0.950 . S
C3112 H3104 0.950 . S
C3112 C3113 1.386 . S
C3112 C3114 1.391 . S
C3113 C3112 1.386 . S
C3113 C3117 1.393 . S
C3114 H3106 0.950 . S
C3114 C3112 1.391 . S
C3114 C3115 1.400 . S
C3115 C3114 1.400 . S
C3115 C3116 1.398 . S
C3115 C3121 1.491 . S
C3116 H3107 0.950 . S
C3116 C3115 1.398 . S
C3116 C3117 1.391 . S
C3117 H3105 0.950 . S
C3117 C3113 1.393 . S
C3117 C3116 1.391 . S
C3118 H3108 0.950 . S
C3118 C3119 1.386 . S
C3118 C3120 1.391 . S
C3119 C3118 1.386 . S
C3119 C3123 1.393 . S
C3120 H3109 0.950 . S
C3120 C3118 1.391 . S
C3120 C3121 1.400 . S
C3121 C3115 1.491 . S
C3121 C3120 1.400 . S
C3121 C3122 1.398 . S
C3122 H3110 0.950 . S
C3122 C3121 1.398 . S
C3122 C3123 1.391 . S
C3123 H3111 0.950 . S
C3123 C3119 1.393 . S
C3123 C3122 1.391 . S
H3124 C3132 0.950 . S
H3125 C3137 0.950 . S
H3126 C3134 0.950 . S
H3127 C3136 0.950 . S
H3128 C3138 0.950 . S
H3129 C3140 0.950 . S
H3130 C3142 0.950 . S
H3131 C3143 0.950 . S
C3132 H3124 0.950 . S
C3132 C3133 1.386 . S
C3132 C3134 1.391 . S
C3133 C3132 1.386 . S
C3133 C3137 1.393 . S
C3134 H3126 0.950 . S
C3134 C3132 1.391 . S
C3134 C3135 1.400 . S
C3135 C3134 1.400 . S
C3135 C3136 1.398 . S
C3135 C3141 1.491 . S
C3136 H3127 0.950 . S
C3136 C3135 1.398 . S
C3136 C3137 1.391 . S
C3137 H3125 0.950 . S
C3137 C3133 1.393 . S
C3137 C3136 1.391 . S
C3138 H3128 0.950 . S
C3138 C3139 1.386 . S
C3138 C3140 1.391 . S
C3139 C3138 1.386 . S
C3139 C3143 1.393 . S
C3140 H3129 0.950 . S
C3140 C3138 1.391 . S
C3140 C3141 1.400 . S
C3141 C3135 1.491 . S
C3141 C3140 1.400 . S
C3141 C3142 1.398 . S
C3142 H3130 0.950 . S
C3142 C3141 1.398 . S
C3142 C3143 1.391 . S
C3143 H3131 0.950 . S
C3143 C3139 1.393 . S
C3143 C3142 1.391 . S
H3144 C3152 0.950 . S
H3145 C3157 0.950 . S
H3146 C3154 0.950 . S
H3147 C3156 0.950 . S
H3148 C3158 0.950 . S
H3149 C3160 0.950 . S
H3150 C3162 0.950 . S
H3151 C3163 0.950 . S
C3152 H3144 0.950 . S
C3152 C3153 1.386 . S
C3152 C3154 1.391 . S
C3153 C3152 1.386 . S
C3153 C3157 1.393 . S
C3154 H3146 0.950 . S
C3154 C3152 1.391 . S
C3154 C3155 1.400 . S
C3155 C3154 1.400 . S
C3155 C3156 1.398 . S
C3155 C3161 1.491 . S
C3156 H3147 0.950 . S
C3156 C3155 1.398 . S
C3156 C3157 1.391 . S
C3157 H3145 0.950 . S
C3157 C3153 1.393 . S
C3157 C3156 1.391 . S
C3158 H3148 0.950 . S
C3158 C3159 1.386 . S
C3158 C3160 1.391 . S
C3159 C3158 1.386 . S
C3159 C3163 1.393 . S
C3160 H3149 0.950 . S
C3160 C3158 1.391 . S
C3160 C3161 1.400 . S
C3161 C3155 1.491 . S
C3161 C3160 1.400 . S
C3161 C3162 1.398 . S
C3162 H3150 0.950 . S
C3162 C3161 1.398 . S
C3162 C3163 1.391 . S
C3163 H3151 0.950 . S
C3163 C3159 1.393 . S
C3163 C3162 1.391 . S
H3164 C3172 0.950 . S
H3165 C3177 0.950 . S
H3166 C3174 0.950 . S
H3167 C3176 0.950 . S
H3168 C3178 0.950 . S
H3169 C3180 0.950 . S
H3170 C3182 0.950 . S
H3171 C3183 0.950 . S
C3172 H3164 0.950 . S
C3172 C3173 1.386 . S
C3172 C3174 1.391 . S
C3173 C3172 1.386 . S
C3173 C3177 1.393 . S
C3174 H3166 0.950 . S
C3174 C3172 1.391 . S
C3174 C3175 1.400 . S
C3175 C3174 1.400 . S
C3175 C3176 1.398 . S
C3175 C3181 1.491 . S
C3176 H3167 0.950 . S
C3176 C3175 1.398 . S
C3176 C3177 1.391 . S
C3177 H3165 0.950 . S
C3177 C3173 1.393 . S
C3177 C3176 1.391 . S
C3178 H3168 0.950 . S
C3178 C3179 1.386 . S
C3178 C3180 1.391 . S
C3179 C3178 1.386 . S
C3179 C3183 1.393 . S
C3180 H3169 0.950 . S
C3180 C3178 1.391 . S
C3180 C3181 1.400 . S
C3181 C3175 1.491 . S
C3181 C3180 1.400 . S
C3181 C3182 1.398 . S
C3182 H3170 0.950 . S
C3182 C3181 1.398 . S
C3182 C3183 1.391 . S
C3183 H3171 0.950 . S
C3183 C3179 1.393 . S
C3183 C3182 1.391 . S
H3184 C3192 0.950 . S
H3185 C3197 0.950 . S
H3186 C3194 0.950 . S
H3187 C3196 0.950 . S
H3188 C3198 0.950 . S
H3189 C3200 0.950 . S
H3190 C3202 0.950 . S
H3191 C3203 0.950 . S
C3192 H3184 0.950 . S
C3192 C3193 1.386 . S
C3192 C3194 1.391 . S
C3193 C3192 1.386 . S
C3193 C3197 1.393 . S
C3194 H3186 0.950 . S
C3194 C3192 1.391 . S
C3194 C3195 1.400 . S
C3195 C3194 1.400 . S
C3195 C3196 1.398 . S
C3195 C3201 1.491 . S
C3196 H3187 0.950 . S
C3196 C3195 1.398 . S
C3196 C3197 1.391 . S
C3197 H3185 0.950 . S
C3197 C3193 1.393 . S
C3197 C3196 1.391 . S
C3198 H3188 0.950 . S
C3198 C3199 1.386 . S
C3198 C3200 1.391 . S
C3199 C3198 1.386 . S
C3199 C3203 1.393 . S
C3200 H3189 0.950 . S
C3200 C3198 1.391 . S
C3200 C3201 1.400 . S
C3201 C3195 1.491 . S
C3201 C3200 1.400 . S
C3201 C3202 1.398 . S
C3202 H3190 0.950 . S
C3202 C3201 1.398 . S
C3202 C3203 1.391 . S
C3203 H3191 0.950 . S
C3203 C3199 1.393 . S
C3203 C3202 1.391 . S
H3204 C3212 0.950 . S
H3205 C3217 0.950 . S
H3206 C3214 0.950 . S
H3207 C3216 0.950 . S
H3208 C3218 0.950 . S
H3209 C3220 0.950 . S
H3210 C3222 0.950 . S
H3211 C3223 0.950 . S
C3212 H3204 0.950 . S
C3212 C3213 1.386 . S
C3212 C3214 1.391 . S
C3213 C3212 1.386 . S
C3213 C3217 1.393 . S
C3214 H3206 0.950 . S
C3214 C3212 1.391 . S
C3214 C3215 1.400 . S
C3215 C3214 1.400 . S
C3215 C3216 1.398 . S
C3215 C3221 1.491 . S
C3216 H3207 0.950 . S
C3216 C3215 1.398 . S
C3216 C3217 1.391 . S
C3217 H3205 0.950 . S
C3217 C3213 1.393 . S
C3217 C3216 1.391 . S
C3218 H3208 0.950 . S
C3218 C3219 1.386 . S
C3218 C3220 1.391 . S
C3219 C3218 1.386 . S
C3219 C3223 1.393 . S
C3220 H3209 0.950 . S
C3220 C3218 1.391 . S
C3220 C3221 1.400 . S
C3221 C3215 1.491 . S
C3221 C3220 1.400 . S
C3221 C3222 1.398 . S
C3222 H3210 0.950 . S
C3222 C3221 1.398 . S
C3222 C3223 1.391 . S
C3223 H3211 0.950 . S
C3223 C3219 1.393 . S
C3223 C3222 1.391 . S
H3224 C3232 0.950 . S
H3225 C3237 0.950 . S
H3226 C3234 0.950 . S
H3227 C3236 0.950 . S
H3228 C3238 0.950 . S
H3229 C3240 0.950 . S
H3230 C3242 0.950 . S
H3231 C3243 0.950 . S
C3232 H3224 0.950 . S
C3232 C3233 1.386 . S
C3232 C3234 1.391 . S
C3233 C3232 1.386 . S
C3233 C3237 1.393 . S
C3234 H3226 0.950 . S
C3234 C3232 1.391 . S
C3234 C3235 1.400 . S
C3235 C3234 1.400 . S
C3235 C3236 1.398 . S
C3235 C3241 1.491 1_565 S
C3236 H3227 0.950 . S
C3236 C3235 1.398 . S
C3236 C3237 1.391 . S
C3237 H3225 0.950 . S
C3237 C3233 1.393 . S
C3237 C3236 1.391 . S
C3238 H3228 0.950 . S
C3238 C3239 1.386 . S
C3238 C3240 1.391 . S
C3239 C3238 1.386 . S
C3239 C3243 1.393 . S
C3240 H3229 0.950 . S
C3240 C3238 1.391 . S
C3240 C3241 1.400 . S
C3241 C3235 1.491 1_545 S
C3241 C3240 1.400 . S
C3241 C3242 1.398 . S
C3242 H3230 0.950 . S
C3242 C3241 1.398 . S
C3242 C3243 1.391 . S
C3243 H3231 0.950 . S
C3243 C3239 1.393 . S
C3243 C3242 1.391 . S
H3244 C3252 0.950 . S
H3245 C3257 0.950 . S
H3246 C3254 0.950 . S
H3247 C3256 0.950 . S
H3248 C3258 0.950 . S
H3249 C3260 0.950 . S
H3250 C3262 0.950 . S
H3251 C3263 0.950 . S
C3252 H3244 0.950 . S
C3252 C3253 1.386 . S
C3252 C3254 1.391 . S
C3253 C3252 1.386 . S
C3253 C3257 1.393 . S
C3254 H3246 0.950 . S
C3254 C3252 1.391 . S
C3254 C3255 1.400 . S
C3255 C3254 1.400 . S
C3255 C3256 1.398 . S
C3255 C3261 1.491 . S
C3256 H3247 0.950 . S
C3256 C3255 1.398 . S
C3256 C3257 1.391 . S
C3257 H3245 0.950 . S
C3257 C3253 1.393 . S
C3257 C3256 1.391 . S
C3258 H3248 0.950 . S
C3258 C3259 1.386 . S
C3258 C3260 1.391 . S
C3259 C3258 1.386 . S
C3259 C3263 1.393 . S
C3260 H3249 0.950 . S
C3260 C3258 1.391 . S
C3260 C3261 1.400 . S
C3261 C3255 1.491 . S
C3261 C3260 1.400 . S
C3261 C3262 1.398 . S
C3262 H3250 0.950 . S
C3262 C3261 1.398 . S
C3262 C3263 1.391 . S
C3263 H3251 0.950 . S
C3263 C3259 1.393 . S
C3263 C3262 1.391 . S
H3264 C3272 0.950 . S
H3265 C3277 0.950 . S
H3266 C3274 0.950 . S
H3267 C3276 0.950 . S
H3268 C3278 0.950 . S
H3269 C3280 0.950 . S
H3270 C3282 0.950 . S
H3271 C3283 0.950 . S
C3272 H3264 0.950 . S
C3272 C3273 1.386 . S
C3272 C3274 1.391 . S
C3273 C3272 1.386 . S
C3273 C3277 1.393 . S
C3274 H3266 0.950 . S
C3274 C3272 1.391 . S
C3274 C3275 1.400 . S
C3275 C3274 1.400 . S
C3275 C3276 1.398 . S
C3275 C3281 1.491 . S
C3276 H3267 0.950 . S
C3276 C3275 1.398 . S
C3276 C3277 1.391 . S
C3277 H3265 0.950 . S
C3277 C3273 1.393 . S
C3277 C3276 1.391 . S
C3278 H3268 0.950 . S
C3278 C3279 1.386 . S
C3278 C3280 1.391 . S
C3279 C3278 1.386 . S
C3279 C3283 1.393 . S
C3280 H3269 0.950 . S
C3280 C3278 1.391 . S
C3280 C3281 1.400 . S
C3281 C3275 1.491 . S
C3281 C3280 1.400 . S
C3281 C3282 1.398 . S
C3282 H3270 0.950 . S
C3282 C3281 1.398 . S
C3282 C3283 1.391 . S
C3283 H3271 0.950 . S
C3283 C3279 1.393 . S
C3283 C3282 1.391 . S
H3284 C3292 0.950 . S
H3285 C3297 0.950 . S
H3286 C3294 0.950 . S
H3287 C3296 0.950 . S
H3288 C3298 0.950 . S
H3289 C3300 0.950 . S
H3290 C3302 0.950 . S
H3291 C3303 0.950 . S
C3292 H3284 0.950 . S
C3292 C3293 1.386 . S
C3292 C3294 1.391 . S
C3293 C3292 1.386 . S
C3293 C3297 1.393 . S
C3294 H3286 0.950 . S
C3294 C3292 1.391 . S
C3294 C3295 1.400 . S
C3295 C3294 1.400 . S
C3295 C3296 1.398 . S
C3295 C3301 1.491 . S
C3296 H3287 0.950 . S
C3296 C3295 1.398 . S
C3296 C3297 1.391 . S
C3297 H3285 0.950 . S
C3297 C3293 1.393 . S
C3297 C3296 1.391 . S
C3298 H3288 0.950 . S
C3298 C3299 1.386 . S
C3298 C3300 1.391 . S
C3299 C3298 1.386 . S
C3299 C3303 1.393 . S
C3300 H3289 0.950 . S
C3300 C3298 1.391 . S
C3300 C3301 1.400 . S
C3301 C3295 1.491 . S
C3301 C3300 1.400 . S
C3301 C3302 1.398 . S
C3302 H3290 0.950 . S
C3302 C3301 1.398 . S
C3302 C3303 1.391 . S
C3303 H3291 0.950 . S
C3303 C3299 1.393 . S
C3303 C3302 1.391 . S
H3304 C3312 0.950 . S
H3305 C3317 0.950 . S
H3306 C3314 0.950 . S
H3307 C3316 0.950 . S
H3308 C3318 0.950 . S
H3309 C3320 0.950 . S
H3310 C3322 0.950 . S
H3311 C3323 0.950 . S
C3312 H3304 0.950 . S
C3312 C3313 1.386 . S
C3312 C3314 1.391 . S
C3313 C3312 1.386 . S
C3313 C3317 1.393 . S
C3314 H3306 0.950 . S
C3314 C3312 1.391 . S
C3314 C3315 1.400 . S
C3315 C3314 1.400 . S
C3315 C3316 1.398 . S
C3315 C3321 1.491 1_556 S
C3316 H3307 0.950 . S
C3316 C3315 1.398 . S
C3316 C3317 1.391 . S
C3317 H3305 0.950 . S
C3317 C3313 1.393 . S
C3317 C3316 1.391 . S
C3318 H3308 0.950 . S
C3318 C3319 1.386 . S
C3318 C3320 1.391 . S
C3319 C3318 1.386 . S
C3319 C3323 1.393 . S
C3320 H3309 0.950 . S
C3320 C3318 1.391 . S
C3320 C3321 1.400 . S
C3321 C3315 1.491 1_554 S
C3321 C3320 1.400 . S
C3321 C3322 1.398 . S
C3322 H3310 0.950 . S
C3322 C3321 1.398 . S
C3322 C3323 1.391 . S
C3323 H3311 0.950 . S
C3323 C3319 1.393 . S
C3323 C3322 1.391 . S
H3324 C3332 0.950 . S
H3325 C3337 0.950 . S
H3326 C3334 0.950 . S
H3327 C3336 0.950 . S
H3328 C3338 0.950 . S
H3329 C3340 0.950 . S
H3330 C3342 0.950 . S
H3331 C3343 0.950 . S
C3332 H3324 0.950 . S
C3332 C3333 1.386 . S
C3332 C3334 1.391 . S
C3333 C3332 1.386 . S
C3333 C3337 1.393 . S
C3334 H3326 0.950 . S
C3334 C3332 1.391 . S
C3334 C3335 1.400 . S
C3335 C3334 1.400 . S
C3335 C3336 1.398 . S
C3335 C3341 1.491 1_556 S
C3336 H3327 0.950 . S
C3336 C3335 1.398 . S
C3336 C3337 1.391 . S
C3337 H3325 0.950 . S
C3337 C3333 1.393 . S
C3337 C3336 1.391 . S
C3338 H3328 0.950 . S
C3338 C3339 1.386 . S
C3338 C3340 1.391 . S
C3339 C3338 1.386 . S
C3339 C3343 1.393 . S
C3340 H3329 0.950 . S
C3340 C3338 1.391 . S
C3340 C3341 1.400 . S
C3341 C3335 1.491 1_554 S
C3341 C3340 1.400 . S
C3341 C3342 1.398 . S
C3342 H3330 0.950 . S
C3342 C3341 1.398 . S
C3342 C3343 1.391 . S
C3343 H3331 0.950 . S
C3343 C3339 1.393 . S
C3343 C3342 1.391 . S
H3344 C3352 0.950 . S
H3345 C3357 0.950 . S
H3346 C3354 0.950 . S
H3347 C3356 0.950 . S
H3348 C3358 0.950 . S
H3349 C3360 0.950 . S
H3350 C3362 0.950 . S
H3351 C3363 0.950 . S
C3352 H3344 0.950 . S
C3352 C3353 1.386 . S
C3352 C3354 1.391 . S
C3353 C3352 1.386 . S
C3353 C3357 1.393 . S
C3354 H3346 0.950 . S
C3354 C3352 1.391 . S
C3354 C3355 1.400 . S
C3355 C3354 1.400 . S
C3355 C3356 1.398 . S
C3355 C3361 1.491 . S
C3356 H3347 0.950 . S
C3356 C3355 1.398 . S
C3356 C3357 1.391 . S
C3357 H3345 0.950 . S
C3357 C3353 1.393 . S
C3357 C3356 1.391 . S
C3358 H3348 0.950 . S
C3358 C3359 1.386 . S
C3358 C3360 1.391 . S
C3359 C3358 1.386 . S
C3359 C3363 1.393 . S
C3360 H3349 0.950 . S
C3360 C3358 1.391 . S
C3360 C3361 1.400 . S
C3361 C3355 1.491 . S
C3361 C3360 1.400 . S
C3361 C3362 1.398 . S
C3362 H3350 0.950 . S
C3362 C3361 1.398 . S
C3362 C3363 1.391 . S
C3363 H3351 0.950 . S
C3363 C3359 1.393 . S
C3363 C3362 1.391 . S
H3364 C3372 0.950 . S
H3365 C3377 0.950 . S
H3366 C3374 0.950 . S
H3367 C3376 0.950 . S
H3368 C3378 0.950 . S
H3369 C3380 0.950 . S
H3370 C3382 0.950 . S
H3371 C3383 0.950 . S
C3372 H3364 0.950 . S
C3372 C3373 1.386 . S
C3372 C3374 1.391 . S
C3373 C3372 1.386 . S
C3373 C3377 1.393 . S
C3374 H3366 0.950 . S
C3374 C3372 1.391 . S
C3374 C3375 1.400 . S
C3375 C3374 1.400 . S
C3375 C3376 1.398 . S
C3375 C3381 1.491 . S
C3376 H3367 0.950 . S
C3376 C3375 1.398 . S
C3376 C3377 1.391 . S
C3377 H3365 0.950 . S
C3377 C3373 1.393 . S
C3377 C3376 1.391 . S
C3378 H3368 0.950 . S
C3378 C3379 1.386 . S
C3378 C3380 1.391 . S
C3379 C3378 1.386 . S
C3379 C3383 1.393 . S
C3380 H3369 0.950 . S
C3380 C3378 1.391 . S
C3380 C3381 1.400 . S
C3381 C3375 1.491 . S
C3381 C3380 1.400 . S
C3381 C3382 1.398 . S
C3382 H3370 0.950 . S
C3382 C3381 1.398 . S
C3382 C3383 1.391 . S
C3383 H3371 0.950 . S
C3383 C3379 1.393 . S
C3383 C3382 1.391 . S
H3384 C3392 0.950 . S
H3385 C3397 0.950 . S
H3386 C3394 0.950 . S
H3387 C3396 0.950 . S
H3388 C3398 0.950 . S
H3389 C3400 0.950 . S
H3390 C3402 0.950 . S
H3391 C3403 0.950 . S
C3392 H3384 0.950 . S
C3392 C3393 1.386 . S
C3392 C3394 1.391 . S
C3393 C3392 1.386 . S
C3393 C3397 1.393 . S
C3394 H3386 0.950 . S
C3394 C3392 1.391 . S
C3394 C3395 1.400 . S
C3395 C3394 1.400 . S
C3395 C3396 1.398 . S
C3395 C3401 1.491 . S
C3396 H3387 0.950 . S
C3396 C3395 1.398 . S
C3396 C3397 1.391 . S
C3397 H3385 0.950 . S
C3397 C3393 1.393 . S
C3397 C3396 1.391 . S
C3398 H3388 0.950 . S
C3398 C3399 1.386 . S
C3398 C3400 1.391 . S
C3399 C3398 1.386 . S
C3399 C3403 1.393 . S
C3400 H3389 0.950 . S
C3400 C3398 1.391 . S
C3400 C3401 1.400 . S
C3401 C3395 1.491 . S
C3401 C3400 1.400 . S
C3401 C3402 1.398 . S
C3402 H3390 0.950 . S
C3402 C3401 1.398 . S
C3402 C3403 1.391 . S
C3403 H3391 0.950 . S
C3403 C3399 1.393 . S
C3403 C3402 1.391 . S
H3404 C3412 0.950 . S
H3405 C3417 0.950 . S
H3406 C3414 0.950 . S
H3407 C3416 0.950 . S
H3408 C3418 0.950 . S
H3409 C3420 0.950 . S
H3410 C3422 0.950 . S
H3411 C3423 0.950 . S
C3412 H3404 0.950 . S
C3412 C3413 1.386 . S
C3412 C3414 1.391 . S
C3413 C3412 1.386 . S
C3413 C3417 1.393 . S
C3414 H3406 0.950 . S
C3414 C3412 1.391 . S
C3414 C3415 1.400 . S
C3415 C3414 1.400 . S
C3415 C3416 1.398 . S
C3415 C3421 1.491 . S
C3416 H3407 0.950 . S
C3416 C3415 1.398 . S
C3416 C3417 1.391 . S
C3417 H3405 0.950 . S
C3417 C3413 1.393 . S
C3417 C3416 1.391 . S
C3418 H3408 0.950 . S
C3418 C3419 1.386 . S
C3418 C3420 1.391 . S
C3419 C3418 1.386 . S
C3419 C3423 1.393 . S
C3420 H3409 0.950 . S
C3420 C3418 1.391 . S
C3420 C3421 1.400 . S
C3421 C3415 1.491 . S
C3421 C3420 1.400 . S
C3421 C3422 1.398 . S
C3422 H3410 0.950 . S
C3422 C3421 1.398 . S
C3422 C3423 1.391 . S
C3423 H3411 0.950 . S
C3423 C3419 1.393 . S
C3423 C3422 1.391 . S
H3424 C3432 0.950 . S
H3425 C3437 0.950 . S
H3426 C3434 0.950 . S
H3427 C3436 0.950 . S
H3428 C3438 0.950 . S
H3429 C3440 0.950 . S
H3430 C3442 0.950 . S
H3431 C3443 0.950 . S
C3432 H3424 0.950 . S
C3432 C3433 1.386 . S
C3432 C3434 1.391 . S
C3433 C3432 1.386 . S
C3433 C3437 1.393 . S
C3434 H3426 0.950 . S
C3434 C3432 1.391 . S
C3434 C3435 1.400 . S
C3435 C3434 1.400 . S
C3435 C3436 1.398 . S
C3435 C3441 1.491 . S
C3436 H3427 0.950 . S
C3436 C3435 1.398 . S
C3436 C3437 1.391 . S
C3437 H3425 0.950 . S
C3437 C3433 1.393 . S
C3437 C3436 1.391 . S
C3438 H3428 0.950 . S
C3438 C3439 1.386 . S
C3438 C3440 1.391 . S
C3439 C3438 1.386 . S
C3439 C3443 1.393 . S
C3440 H3429 0.950 . S
C3440 C3438 1.391 . S
C3440 C3441 1.400 . S
C3441 C3435 1.491 . S
C3441 C3440 1.400 . S
C3441 C3442 1.398 . S
C3442 H3430 0.950 . S
C3442 C3441 1.398 . S
C3442 C3443 1.391 . S
C3443 H3431 0.950 . S
C3443 C3439 1.393 . S
C3443 C3442 1.391 . S
H3444 C3452 0.950 . S
H3445 C3457 0.950 . S
H3446 C3454 0.950 . S
H3447 C3456 0.950 . S
H3448 C3458 0.950 . S
H3449 C3460 0.950 . S
H3450 C3462 0.950 . S
H3451 C3463 0.950 . S
C3452 H3444 0.950 . S
C3452 C3453 1.386 . S
C3452 C3454 1.391 . S
C3453 C3452 1.386 . S
C3453 C3457 1.393 . S
C3454 H3446 0.950 . S
C3454 C3452 1.391 . S
C3454 C3455 1.400 . S
C3455 C3454 1.400 . S
C3455 C3456 1.398 . S
C3455 C3461 1.491 . S
C3456 H3447 0.950 . S
C3456 C3455 1.398 . S
C3456 C3457 1.391 . S
C3457 H3445 0.950 . S
C3457 C3453 1.393 . S
C3457 C3456 1.391 . S
C3458 H3448 0.950 . S
C3458 C3459 1.386 . S
C3458 C3460 1.391 . S
C3459 C3458 1.386 . S
C3459 C3463 1.393 . S
C3460 H3449 0.950 . S
C3460 C3458 1.391 . S
C3460 C3461 1.400 . S
C3461 C3455 1.491 . S
C3461 C3460 1.400 . S
C3461 C3462 1.398 . S
C3462 H3450 0.950 . S
C3462 C3461 1.398 . S
C3462 C3463 1.391 . S
C3463 H3451 0.950 . S
C3463 C3459 1.393 . S
C3463 C3462 1.391 . S
H3464 C3472 0.950 . S
H3465 C3477 0.950 . S
H3466 C3474 0.950 . S
H3467 C3476 0.950 . S
H3468 C3478 0.950 . S
H3469 C3480 0.950 . S
H3470 C3482 0.950 . S
H3471 C3483 0.950 . S
C3472 H3464 0.950 . S
C3472 C3473 1.386 . S
C3472 C3474 1.391 . S
C3473 C3472 1.386 . S
C3473 C3477 1.393 . S
C3474 H3466 0.950 . S
C3474 C3472 1.391 . S
C3474 C3475 1.400 . S
C3475 C3474 1.400 . S
C3475 C3476 1.398 . S
C3475 C3481 1.491 1_565 S
C3476 H3467 0.950 . S
C3476 C3475 1.398 . S
C3476 C3477 1.391 . S
C3477 H3465 0.950 . S
C3477 C3473 1.393 . S
C3477 C3476 1.391 . S
C3478 H3468 0.950 . S
C3478 C3479 1.386 . S
C3478 C3480 1.391 . S
C3479 C3478 1.386 . S
C3479 C3483 1.393 . S
C3480 H3469 0.950 . S
C3480 C3478 1.391 . S
C3480 C3481 1.400 . S
C3481 C3475 1.491 1_545 S
C3481 C3480 1.400 . S
C3481 C3482 1.398 . S
C3482 H3470 0.950 . S
C3482 C3481 1.398 . S
C3482 C3483 1.391 . S
C3483 H3471 0.950 . S
C3483 C3479 1.393 . S
C3483 C3482 1.391 . S
H3484 C3492 0.950 . S
H3485 C3497 0.950 . S
H3486 C3494 0.950 . S
H3487 C3496 0.950 . S
H3488 C3498 0.950 . S
H3489 C3500 0.950 . S
H3490 C3502 0.950 . S
H3491 C3503 0.950 . S
C3492 H3484 0.950 . S
C3492 C3493 1.386 . S
C3492 C3494 1.391 . S
C3493 C3492 1.386 . S
C3493 C3497 1.393 . S
C3494 H3486 0.950 . S
C3494 C3492 1.391 . S
C3494 C3495 1.400 . S
C3495 C3494 1.400 . S
C3495 C3496 1.398 . S
C3495 C3501 1.491 . S
C3496 H3487 0.950 . S
C3496 C3495 1.398 . S
C3496 C3497 1.391 . S
C3497 H3485 0.950 . S
C3497 C3493 1.393 . S
C3497 C3496 1.391 . S
C3498 H3488 0.950 . S
C3498 C3499 1.386 . S
C3498 C3500 1.391 . S
C3499 C3498 1.386 . S
C3499 C3503 1.393 . S
C3500 H3489 0.950 . S
C3500 C3498 1.391 . S
C3500 C3501 1.400 . S
C3501 C3495 1.491 . S
C3501 C3500 1.400 . S
C3501 C3502 1.398 . S
C3502 H3490 0.950 . S
C3502 C3501 1.398 . S
C3502 C3503 1.391 . S
C3503 H3491 0.950 . S
C3503 C3499 1.393 . S
C3503 C3502 1.391 . S
H3504 C3512 0.950 . S
H3505 C3517 0.950 . S
H3506 C3514 0.950 . S
H3507 C3516 0.950 . S
H3508 C3518 0.950 . S
H3509 C3520 0.979 . S
H3510 C3522 0.950 . S
H3511 C3523 0.950 . S
C3512 H3504 0.950 . S
C3512 C3513 1.386 . S
C3512 C3514 1.391 . S
C3513 C3512 1.386 . S
C3513 C3517 1.393 . S
C3514 H3506 0.950 . S
C3514 C3512 1.391 . S
C3514 C3515 1.400 . S
C3515 C3514 1.400 . S
C3515 C3516 1.398 . S
C3515 C3521 1.491 1_556 S
C3516 H3507 0.950 . S
C3516 C3515 1.398 . S
C3516 C3517 1.391 . S
C3517 H3505 0.950 . S
C3517 C3513 1.393 . S
C3517 C3516 1.391 . S
C3518 H3508 0.950 . S
C3518 C3519 1.386 . S
C3518 C3520 1.391 . S
C3519 C3518 1.386 . S
C3519 C3523 1.393 . S
C3520 H3509 0.979 . S
C3520 C3518 1.391 . S
C3520 C3521 1.400 . S
C3521 C3515 1.491 1_554 S
C3521 C3520 1.400 . S
C3521 C3522 1.398 . S
C3522 H3510 0.950 . S
C3522 C3521 1.398 . S
C3522 C3523 1.391 . S
C3523 H3511 0.950 . S
C3523 C3519 1.393 . S
C3523 C3522 1.391 . S
H3524 C3532 0.950 . S
H3525 C3537 0.950 . S
H3526 C3534 0.950 . S
H3527 C3536 0.950 . S
H3528 C3538 0.950 . S
H3529 C3540 0.950 . S
H3530 C3542 0.950 . S
H3531 C3543 0.950 . S
C3532 H3524 0.950 . S
C3532 C3533 1.386 . S
C3532 C3534 1.391 . S
C3533 C3532 1.386 . S
C3533 C3537 1.393 . S
C3534 H3526 0.950 . S
C3534 C3532 1.391 . S
C3534 C3535 1.400 . S
C3535 C3534 1.400 . S
C3535 C3536 1.398 . S
C3535 C3541 1.491 1_554 S
C3536 H3527 0.950 . S
C3536 C3535 1.398 . S
C3536 C3537 1.391 . S
C3537 H3525 0.950 . S
C3537 C3533 1.393 . S
C3537 C3536 1.391 . S
C3538 H3528 0.950 . S
C3538 C3539 1.386 . S
C3538 C3540 1.391 . S
C3539 C3538 1.386 . S
C3539 C3543 1.393 . S
C3540 H3529 0.950 . S
C3540 C3538 1.391 . S
C3540 C3541 1.400 . S
C3541 C3535 1.491 1_556 S
C3541 C3540 1.400 . S
C3541 C3542 1.398 . S
C3542 H3530 0.950 . S
C3542 C3541 1.398 . S
C3542 C3543 1.391 . S
C3543 H3531 0.950 . S
C3543 C3539 1.393 . S
C3543 C3542 1.391 . S
H3544 C3552 0.950 . S
H3545 C3557 0.950 . S
H3546 C3554 0.950 . S
H3547 C3556 0.950 . S
H3548 C3558 0.950 . S
H3549 C3560 0.950 . S
H3550 C3562 0.950 . S
H3551 C3563 0.950 . S
C3552 H3544 0.950 . S
C3552 C3553 1.386 . S
C3552 C3554 1.391 . S
C3553 C3552 1.386 . S
C3553 C3557 1.393 . S
C3554 H3546 0.950 . S
C3554 C3552 1.391 . S
C3554 C3555 1.400 . S
C3555 C3554 1.400 . S
C3555 C3556 1.398 . S
C3555 C3561 1.491 . S
C3556 H3547 0.950 . S
C3556 C3555 1.398 . S
C3556 C3557 1.391 . S
C3557 H3545 0.950 . S
C3557 C3553 1.393 . S
C3557 C3556 1.391 . S
C3558 H3548 0.950 . S
C3558 C3559 1.386 . S
C3558 C3560 1.391 . S
C3559 C3558 1.386 . S
C3559 C3563 1.393 . S
C3560 H3549 0.950 . S
C3560 C3558 1.391 . S
C3560 C3561 1.400 . S
C3561 C3555 1.491 . S
C3561 C3560 1.400 . S
C3561 C3562 1.398 . S
C3562 H3550 0.950 . S
C3562 C3561 1.398 . S
C3562 C3563 1.391 . S
C3563 H3551 0.950 . S
C3563 C3559 1.393 . S
C3563 C3562 1.391 . S
H3564 C3572 0.950 . S
H3565 C3577 0.950 . S
H3566 C3574 0.950 . S
H3567 C3576 0.950 . S
H3568 C3578 0.950 . S
H3569 C3580 0.950 . S
H3570 C3582 0.950 . S
H3571 C3583 0.950 . S
C3572 H3564 0.950 . S
C3572 C3573 1.386 . S
C3572 C3574 1.391 . S
C3573 C3572 1.386 . S
C3573 C3577 1.393 . S
C3574 H3566 0.950 . S
C3574 C3572 1.391 . S
C3574 C3575 1.400 . S
C3575 C3574 1.400 . S
C3575 C3576 1.398 . S
C3575 C3581 1.491 . S
C3576 H3567 0.950 . S
C3576 C3575 1.398 . S
C3576 C3577 1.391 . S
C3577 H3565 0.950 . S
C3577 C3573 1.393 . S
C3577 C3576 1.391 . S
C3578 H3568 0.950 . S
C3578 C3579 1.386 . S
C3578 C3580 1.391 . S
C3579 C3578 1.386 . S
C3579 C3583 1.393 . S
C3580 H3569 0.950 . S
C3580 C3578 1.391 . S
C3580 C3581 1.400 . S
C3581 C3575 1.491 . S
C3581 C3580 1.400 . S
C3581 C3582 1.398 . S
C3582 H3570 0.950 . S
C3582 C3581 1.398 . S
C3582 C3583 1.391 . S
C3583 H3571 0.950 . S
C3583 C3579 1.393 . S
C3583 C3582 1.391 . S
H3584 C3592 0.950 . S
H3585 C3597 0.950 . S
H3586 C3594 0.950 . S
H3587 C3596 0.950 . S
H3588 C3598 0.950 . S
H3589 C3600 0.950 . S
H3590 C3602 0.950 . S
H3591 C3603 0.950 . S
C3592 H3584 0.950 . S
C3592 C3593 1.386 . S
C3592 C3594 1.391 . S
C3593 C3592 1.386 . S
C3593 C3597 1.393 . S
C3594 H3586 0.950 . S
C3594 C3592 1.391 . S
C3594 C3595 1.400 . S
C3595 C3594 1.400 . S
C3595 C3596 1.398 . S
C3595 C3601 1.491 1_655 S
C3596 H3587 0.950 . S
C3596 C3595 1.398 . S
C3596 C3597 1.391 . S
C3597 H3585 0.950 . S
C3597 C3593 1.393 . S
C3597 C3596 1.391 . S
C3598 H3588 0.950 . S
C3598 C3599 1.386 . S
C3598 C3600 1.391 . S
C3599 C3598 1.386 . S
C3599 C3603 1.393 . S
C3600 H3589 0.950 . S
C3600 C3598 1.391 . S
C3600 C3601 1.400 . S
C3601 C3595 1.491 1_455 S
C3601 C3600 1.400 . S
C3601 C3602 1.398 . S
C3602 H3590 0.950 . S
C3602 C3601 1.398 . S
C3602 C3603 1.391 . S
C3603 H3591 0.950 . S
C3603 C3599 1.393 . S
C3603 C3602 1.391 . S
H3604 C3612 0.950 . S
H3605 C3617 0.950 . S
H3606 C3614 0.950 . S
H3607 C3616 0.950 . S
H3608 C3618 0.950 . S
H3609 C3620 0.950 . S
H3610 C3622 0.950 . S
H3611 C3623 0.950 . S
C3612 H3604 0.950 . S
C3612 C3613 1.386 . S
C3612 C3614 1.391 . S
C3613 C3612 1.386 . S
C3613 C3617 1.393 . S
C3614 H3606 0.950 . S
C3614 C3612 1.391 . S
C3614 C3615 1.400 . S
C3615 C3614 1.400 . S
C3615 C3616 1.398 . S
C3615 C3621 1.491 1_655 S
C3616 H3607 0.950 . S
C3616 C3615 1.398 . S
C3616 C3617 1.391 . S
C3617 H3605 0.950 . S
C3617 C3613 1.393 . S
C3617 C3616 1.391 . S
C3618 H3608 0.950 . S
C3618 C3619 1.386 . S
C3618 C3620 1.391 . S
C3619 C3618 1.386 . S
C3619 C3623 1.393 . S
C3620 H3609 0.950 . S
C3620 C3618 1.391 . S
C3620 C3621 1.400 . S
C3621 C3615 1.491 1_455 S
C3621 C3620 1.400 . S
C3621 C3622 1.398 . S
C3622 H3610 0.950 . S
C3622 C3621 1.398 . S
C3622 C3623 1.391 . S
C3623 H3611 0.950 . S
C3623 C3619 1.393 . S
C3623 C3622 1.391 . S
H3624 C3632 0.950 . S
H3625 C3637 0.950 . S
H3626 C3634 0.950 . S
H3627 C3636 0.950 . S
H3628 C3638 0.950 . S
H3629 C3640 0.950 . S
H3630 C3642 0.950 . S
H3631 C3643 0.950 . S
C3632 H3624 0.950 . S
C3632 C3633 1.386 . S
C3632 C3634 1.391 . S
C3633 C3632 1.386 . S
C3633 C3637 1.393 . S
C3634 H3626 0.950 . S
C3634 C3632 1.391 . S
C3634 C3635 1.400 . S
C3635 C3634 1.400 . S
C3635 C3636 1.398 . S
C3635 C3641 1.491 1_655 S
C3636 H3627 0.950 . S
C3636 C3635 1.398 . S
C3636 C3637 1.391 . S
C3637 H3625 0.950 . S
C3637 C3633 1.393 . S
C3637 C3636 1.391 . S
C3638 H3628 0.950 . S
C3638 C3639 1.386 . S
C3638 C3640 1.391 . S
C3639 C3638 1.386 . S
C3639 C3643 1.393 . S
C3640 H3629 0.950 . S
C3640 C3638 1.391 . S
C3640 C3641 1.400 . S
C3641 C3635 1.491 1_455 S
C3641 C3640 1.400 . S
C3641 C3642 1.398 . S
C3642 H3630 0.950 . S
C3642 C3641 1.398 . S
C3642 C3643 1.391 . S
C3643 H3631 0.950 . S
C3643 C3639 1.393 . S
C3643 C3642 1.391 . S
H3644 C3652 0.950 . S
H3645 C3657 0.950 . S
H3646 C3654 0.950 . S
H3647 C3656 0.950 . S
H3648 C3658 0.950 . S
H3649 C3660 0.950 . S
H3650 C3662 0.950 . S
H3651 C3663 0.950 . S
C3652 H3644 0.950 . S
C3652 C3653 1.386 . S
C3652 C3654 1.391 . S
C3653 C3652 1.386 . S
C3653 C3657 1.393 . S
C3654 H3646 0.950 . S
C3654 C3652 1.391 . S
C3654 C3655 1.400 . S
C3655 C3654 1.400 . S
C3655 C3656 1.398 . S
C3655 C3661 1.491 1_455 S
C3656 H3647 0.950 . S
C3656 C3655 1.398 . S
C3656 C3657 1.391 . S
C3657 H3645 0.950 . S
C3657 C3653 1.393 . S
C3657 C3656 1.391 . S
C3658 H3648 0.950 . S
C3658 C3659 1.386 . S
C3658 C3660 1.391 . S
C3659 C3658 1.386 . S
C3659 C3663 1.393 . S
C3660 H3649 0.950 . S
C3660 C3658 1.391 . S
C3660 C3661 1.400 . S
C3661 C3655 1.491 1_655 S
C3661 C3660 1.400 . S
C3661 C3662 1.398 . S
C3662 H3650 0.950 . S
C3662 C3661 1.398 . S
C3662 C3663 1.391 . S
C3663 H3651 0.950 . S
C3663 C3659 1.393 . S
C3663 C3662 1.391 . S
H3664 C3672 0.950 . S
H3665 C3677 0.950 . S
H3666 C3674 0.977 . S
H3667 C3676 0.950 . S
H3668 C3678 0.950 . S
H3669 C3680 0.950 . S
H3670 C3682 0.950 . S
H3671 C3683 0.950 . S
C3672 H3664 0.950 . S
C3672 C3673 1.386 . S
C3672 C3674 1.391 . S
C3673 C3672 1.386 . S
C3673 C3677 1.393 . S
C3674 H3666 0.977 . S
C3674 C3672 1.391 . S
C3674 C3675 1.400 . S
C3675 C3674 1.400 . S
C3675 C3676 1.398 . S
C3675 C3681 1.491 1_545 S
C3676 H3667 0.950 . S
C3676 C3675 1.398 . S
C3676 C3677 1.391 . S
C3677 H3665 0.950 . S
C3677 C3673 1.393 . S
C3677 C3676 1.391 . S
C3678 H3668 0.950 . S
C3678 C3679 1.386 . S
C3678 C3680 1.391 . S
C3679 C3678 1.386 . S
C3679 C3683 1.393 . S
C3680 H3669 0.950 . S
C3680 C3678 1.391 . S
C3680 C3681 1.400 . S
C3681 C3675 1.491 1_565 S
C3681 C3680 1.400 . S
C3681 C3682 1.398 . S
C3682 H3670 0.950 . S
C3682 C3681 1.398 . S
C3682 C3683 1.391 . S
C3683 H3671 0.950 . S
C3683 C3679 1.393 . S
C3683 C3682 1.391 . S
H3684 C3692 0.950 . S
H3685 C3697 0.950 . S
H3686 C3694 0.950 . S
H3687 C3696 0.950 . S
H3688 C3698 0.950 . S
H3689 C3700 0.950 . S
H3690 C3702 0.950 . S
H3691 C3703 0.950 . S
C3692 H3684 0.950 . S
C3692 C3693 1.386 . S
C3692 C3694 1.391 . S
C3693 C3692 1.386 . S
C3693 C3697 1.393 . S
C3694 H3686 0.950 . S
C3694 C3692 1.391 . S
C3694 C3695 1.400 . S
C3695 C3694 1.400 . S
C3695 C3696 1.398 . S
C3695 C3701 1.491 1_545 S
C3696 H3687 0.950 . S
C3696 C3695 1.398 . S
C3696 C3697 1.391 . S
C3697 H3685 0.950 . S
C3697 C3693 1.393 . S
C3697 C3696 1.391 . S
C3698 H3688 0.950 . S
C3698 C3699 1.386 . S
C3698 C3700 1.391 . S
C3699 C3698 1.386 . S
C3699 C3703 1.393 . S
C3700 H3689 0.950 . S
C3700 C3698 1.391 . S
C3700 C3701 1.400 . S
C3701 C3695 1.491 1_565 S
C3701 C3700 1.400 . S
C3701 C3702 1.398 . S
C3702 H3690 0.950 . S
C3702 C3701 1.398 . S
C3702 C3703 1.391 . S
C3703 H3691 0.950 . S
C3703 C3699 1.393 . S
C3703 C3702 1.391 . S
H3704 C3712 0.950 . S
H3705 C3717 0.950 . S
H3706 C3714 0.950 . S
H3707 C3716 0.950 . S
H3708 C3718 0.950 . S
H3709 C3720 0.950 . S
H3710 C3722 0.950 . S
H3711 C3723 0.950 . S
C3712 H3704 0.950 . S
C3712 C3713 1.386 . S
C3712 C3714 1.391 . S
C3713 C3712 1.386 . S
C3713 C3717 1.393 . S
C3714 H3706 0.950 . S
C3714 C3712 1.391 . S
C3714 C3715 1.400 . S
C3715 C3714 1.400 . S
C3715 C3716 1.398 . S
C3715 C3721 1.491 . S
C3716 H3707 0.950 . S
C3716 C3715 1.398 . S
C3716 C3717 1.391 . S
C3717 H3705 0.950 . S
C3717 C3713 1.393 . S
C3717 C3716 1.391 . S
C3718 H3708 0.950 . S
C3718 C3719 1.386 . S
C3718 C3720 1.391 . S
C3719 C3718 1.386 . S
C3719 C3723 1.393 . S
C3720 H3709 0.950 . S
C3720 C3718 1.391 . S
C3720 C3721 1.400 . S
C3721 C3715 1.491 . S
C3721 C3720 1.400 . S
C3721 C3722 1.398 . S
C3722 H3710 0.950 . S
C3722 C3721 1.398 . S
C3722 C3723 1.391 . S
C3723 H3711 0.950 . S
C3723 C3719 1.393 . S
C3723 C3722 1.391 . S
H3724 C3732 0.950 . S
H3725 C3737 0.950 . S
H3726 C3734 0.950 . S
H3727 C3736 0.950 . S
H3728 C3738 0.950 . S
H3729 C3740 0.950 . S
H3730 C3742 0.950 . S
H3731 C3743 0.950 . S
C3732 H3724 0.950 . S
C3732 C3733 1.386 . S
C3732 C3734 1.391 . S
C3733 C3732 1.386 . S
C3733 C3737 1.393 . S
C3734 H3726 0.950 . S
C3734 C3732 1.391 . S
C3734 C3735 1.400 . S
C3735 C3734 1.400 . S
C3735 C3736 1.398 . S
C3735 C3741 1.491 1_545 S
C3736 H3727 0.950 . S
C3736 C3735 1.398 . S
C3736 C3737 1.391 . S
C3737 H3725 0.950 . S
C3737 C3733 1.393 . S
C3737 C3736 1.391 . S
C3738 H3728 0.950 . S
C3738 C3739 1.386 . S
C3738 C3740 1.391 . S
C3739 C3738 1.386 . S
C3739 C3743 1.393 . S
C3740 H3729 0.950 . S
C3740 C3738 1.391 . S
C3740 C3741 1.400 . S
C3741 C3735 1.491 1_565 S
C3741 C3740 1.400 . S
C3741 C3742 1.398 . S
C3742 H3730 0.950 . S
C3742 C3741 1.398 . S
C3742 C3743 1.391 . S
C3743 H3731 0.950 . S
C3743 C3739 1.393 . S
C3743 C3742 1.391 . S
H3744 C3752 0.950 . S
H3745 C3757 0.950 . S
H3746 C3754 0.978 . S
H3747 C3756 0.950 . S
H3748 C3758 0.950 . S
H3749 C3760 0.950 . S
H3750 C3762 0.950 . S
H3751 C3763 0.950 . S
C3752 H3744 0.950 . S
C3752 C3753 1.386 . S
C3752 C3754 1.391 . S
C3753 C3752 1.386 . S
C3753 C3757 1.393 . S
C3754 H3746 0.978 . S
C3754 C3752 1.391 . S
C3754 C3755 1.400 . S
C3755 C3754 1.400 . S
C3755 C3756 1.398 . S
C3755 C3761 1.491 1_556 S
C3756 H3747 0.950 . S
C3756 C3755 1.398 . S
C3756 C3757 1.391 . S
C3757 H3745 0.950 . S
C3757 C3753 1.393 . S
C3757 C3756 1.391 . S
C3758 H3748 0.950 . S
C3758 C3759 1.386 . S
C3758 C3760 1.391 . S
C3759 C3758 1.386 . S
C3759 C3763 1.393 . S
C3760 H3749 0.950 . S
C3760 C3758 1.391 . S
C3760 C3761 1.400 . S
C3761 C3755 1.491 1_554 S
C3761 C3760 1.400 . S
C3761 C3762 1.398 . S
C3762 H3750 0.950 . S
C3762 C3761 1.398 . S
C3762 C3763 1.391 . S
C3763 H3751 0.950 . S
C3763 C3759 1.393 . S
C3763 C3762 1.391 . S
H3764 C3772 0.950 . S
H3765 C3777 0.950 . S
H3766 C3774 0.950 . S
H3767 C3776 0.950 . S
H3768 C3778 0.950 . S
H3769 C3780 0.950 . S
H3770 C3782 0.975 . S
H3771 C3783 0.950 . S
C3772 H3764 0.950 . S
C3772 C3773 1.386 . S
C3772 C3774 1.391 . S
C3773 C3772 1.386 . S
C3773 C3777 1.393 . S
C3774 H3766 0.950 . S
C3774 C3772 1.391 . S
C3774 C3775 1.400 . S
C3775 C3774 1.400 . S
C3775 C3776 1.398 . S
C3775 C3781 1.491 1_554 S
C3776 H3767 0.950 . S
C3776 C3775 1.398 . S
C3776 C3777 1.391 . S
C3777 H3765 0.950 . S
C3777 C3773 1.393 . S
C3777 C3776 1.391 . S
C3778 H3768 0.950 . S
C3778 C3779 1.386 . S
C3778 C3780 1.391 . S
C3779 C3778 1.386 . S
C3779 C3783 1.393 . S
C3780 H3769 0.950 . S
C3780 C3778 1.391 . S
C3780 C3781 1.400 . S
C3781 C3775 1.491 1_556 S
C3781 C3780 1.400 . S
C3781 C3782 1.398 . S
C3782 H3770 0.975 . S
C3782 C3781 1.398 . S
C3782 C3783 1.391 . S
C3783 H3771 0.950 . S
C3783 C3779 1.393 . S
C3783 C3782 1.391 . S
H3784 C3792 0.950 . S
H3785 C3797 0.950 . S
H3786 C3794 0.950 . S
H3787 C3796 0.950 . S
H3788 C3798 0.950 . S
H3789 C3800 0.950 . S
H3790 C3802 0.950 . S
H3791 C3803 0.950 . S
C3792 H3784 0.950 . S
C3792 C3793 1.386 . S
C3792 C3794 1.391 . S
C3793 C3792 1.386 . S
C3793 C3797 1.393 . S
C3794 H3786 0.950 . S
C3794 C3792 1.391 . S
C3794 C3795 1.400 . S
C3795 C3794 1.400 . S
C3795 C3796 1.398 . S
C3795 C3801 1.491 . S
C3796 H3787 0.950 . S
C3796 C3795 1.398 . S
C3796 C3797 1.391 . S
C3797 H3785 0.950 . S
C3797 C3793 1.393 . S
C3797 C3796 1.391 . S
C3798 H3788 0.950 . S
C3798 C3799 1.386 . S
C3798 C3800 1.391 . S
C3799 C3798 1.386 . S
C3799 C3803 1.393 . S
C3800 H3789 0.950 . S
C3800 C3798 1.391 . S
C3800 C3801 1.400 . S
C3801 C3795 1.491 . S
C3801 C3800 1.400 . S
C3801 C3802 1.398 . S
C3802 H3790 0.950 . S
C3802 C3801 1.398 . S
C3802 C3803 1.391 . S
C3803 H3791 0.950 . S
C3803 C3799 1.393 . S
C3803 C3802 1.391 . S
H3804 C3812 0.950 . S
H3805 C3817 0.950 . S
H3806 C3814 0.950 . S
H3807 C3816 0.950 . S
H3808 C3818 0.950 . S
H3809 C3820 0.950 . S
H3810 C3822 0.950 . S
H3811 C3823 0.950 . S
C3812 H3804 0.950 . S
C3812 C3813 1.386 . S
C3812 C3814 1.391 . S
C3813 C3812 1.386 . S
C3813 C3817 1.393 . S
C3814 H3806 0.950 . S
C3814 C3812 1.391 . S
C3814 C3815 1.400 . S
C3815 C3814 1.400 . S
C3815 C3816 1.398 . S
C3815 C3821 1.491 . S
C3816 H3807 0.950 . S
C3816 C3815 1.398 . S
C3816 C3817 1.391 . S
C3817 H3805 0.950 . S
C3817 C3813 1.393 . S
C3817 C3816 1.391 . S
C3818 H3808 0.950 . S
C3818 C3819 1.386 . S
C3818 C3820 1.391 . S
C3819 C3818 1.386 . S
C3819 C3823 1.393 . S
C3820 H3809 0.950 . S
C3820 C3818 1.391 . S
C3820 C3821 1.400 . S
C3821 C3815 1.491 . S
C3821 C3820 1.400 . S
C3821 C3822 1.398 . S
C3822 H3810 0.950 . S
C3822 C3821 1.398 . S
C3822 C3823 1.391 . S
C3823 H3811 0.950 . S
C3823 C3819 1.393 . S
C3823 C3822 1.391 . S
H3824 C3832 0.950 . S
H3825 C3837 0.950 . S
H3826 C3834 0.950 . S
H3827 C3836 0.950 . S
H3828 C3838 0.950 . S
H3829 C3840 0.950 . S
H3830 C3842 0.950 . S
H3831 C3843 0.950 . S
C3832 H3824 0.950 . S
C3832 C3833 1.386 . S
C3832 C3834 1.391 . S
C3833 C3832 1.386 . S
C3833 C3837 1.393 . S
C3834 H3826 0.950 . S
C3834 C3832 1.391 . S
C3834 C3835 1.400 . S
C3835 C3834 1.400 . S
C3835 C3836 1.398 . S
C3835 C3841 1.491 1_455 S
C3836 H3827 0.950 . S
C3836 C3835 1.398 . S
C3836 C3837 1.391 . S
C3837 H3825 0.950 . S
C3837 C3833 1.393 . S
C3837 C3836 1.391 . S
C3838 H3828 0.950 . S
C3838 C3839 1.386 . S
C3838 C3840 1.391 . S
C3839 C3838 1.386 . S
C3839 C3843 1.393 . S
C3840 H3829 0.950 . S
C3840 C3838 1.391 . S
C3840 C3841 1.400 . S
C3841 C3835 1.491 1_655 S
C3841 C3840 1.400 . S
C3841 C3842 1.398 . S
C3842 H3830 0.950 . S
C3842 C3841 1.398 . S
C3842 C3843 1.391 . S
C3843 H3831 0.950 . S
C3843 C3839 1.393 . S
C3843 C3842 1.391 . S
H3844 C3852 0.950 . S
H3845 C3857 0.950 . S
H3846 C3854 0.950 . S
H3847 C3856 0.967 . S
H3848 C3858 0.950 . S
H3849 C3860 0.950 . S
H3850 C3862 0.950 . S
H3851 C3863 0.950 . S
C3852 H3844 0.950 . S
C3852 C3853 1.386 . S
C3852 C3854 1.391 . S
C3853 C3852 1.386 . S
C3853 C3857 1.393 . S
C3854 H3846 0.950 . S
C3854 C3852 1.391 . S
C3854 C3855 1.400 . S
C3855 C3854 1.400 . S
C3855 C3856 1.398 . S
C3855 C3861 1.491 1_455 S
C3856 H3847 0.967 . S
C3856 C3855 1.398 . S
C3856 C3857 1.391 . S
C3857 H3845 0.950 . S
C3857 C3853 1.393 . S
C3857 C3856 1.391 . S
C3858 H3848 0.950 . S
C3858 C3859 1.386 . S
C3858 C3860 1.391 . S
C3859 C3858 1.386 . S
C3859 C3863 1.393 . S
C3860 H3849 0.950 . S
C3860 C3858 1.391 . S
C3860 C3861 1.400 . S
C3861 C3855 1.491 1_655 S
C3861 C3860 1.400 . S
C3861 C3862 1.398 . S
C3862 H3850 0.950 . S
C3862 C3861 1.398 . S
C3862 C3863 1.391 . S
C3863 H3851 0.950 . S
C3863 C3859 1.393 . S
C3863 C3862 1.391 . S
H3864 C3872 0.950 . S
H3865 C3877 0.950 . S
H3866 C3874 0.950 . S
H3867 C3876 0.972 . S
H3868 C3878 0.950 . S
H3869 C3880 0.950 . S
H3870 C3882 0.950 . S
H3871 C3883 0.950 . S
C3872 H3864 0.950 . S
C3872 C3873 1.386 . S
C3872 C3874 1.391 . S
C3873 C3872 1.386 . S
C3873 C3877 1.393 . S
C3874 H3866 0.950 . S
C3874 C3872 1.391 . S
C3874 C3875 1.400 . S
C3875 C3874 1.400 . S
C3875 C3876 1.398 . S
C3875 C3881 1.491 1_655 S
C3876 H3867 0.972 . S
C3876 C3875 1.398 . S
C3876 C3877 1.391 . S
C3877 H3865 0.950 . S
C3877 C3873 1.393 . S
C3877 C3876 1.391 . S
C3878 H3868 0.950 . S
C3878 C3879 1.386 . S
C3878 C3880 1.391 . S
C3879 C3878 1.386 . S
C3879 C3883 1.393 . S
C3880 H3869 0.950 . S
C3880 C3878 1.391 . S
C3880 C3881 1.400 . S
C3881 C3875 1.491 1_455 S
C3881 C3880 1.400 . S
C3881 C3882 1.398 . S
C3882 H3870 0.950 . S
C3882 C3881 1.398 . S
C3882 C3883 1.391 . S
C3883 H3871 0.950 . S
C3883 C3879 1.393 . S
C3883 C3882 1.391 . S
H3884 C3892 0.950 . S
H3885 C3897 0.950 . S
H3886 C3894 0.950 . S
H3887 C3896 0.950 . S
H3888 C3898 0.950 . S
H3889 C3900 0.950 . S
H3890 C3902 0.950 . S
H3891 C3903 0.950 . S
C3892 H3884 0.950 . S
C3892 C3893 1.386 . S
C3892 C3894 1.391 . S
C3893 C3892 1.386 . S
C3893 C3897 1.393 . S
C3894 H3886 0.950 . S
C3894 C3892 1.391 . S
C3894 C3895 1.400 . S
C3895 C3894 1.400 . S
C3895 C3896 1.398 . S
C3895 C3901 1.491 1_455 S
C3896 H3887 0.950 . S
C3896 C3895 1.398 . S
C3896 C3897 1.391 . S
C3897 H3885 0.950 . S
C3897 C3893 1.393 . S
C3897 C3896 1.391 . S
C3898 H3888 0.950 . S
C3898 C3899 1.386 . S
C3898 C3900 1.391 . S
C3899 C3898 1.386 . S
C3899 C3903 1.393 . S
C3900 H3889 0.950 . S
C3900 C3898 1.391 . S
C3900 C3901 1.400 . S
C3901 C3895 1.491 1_655 S
C3901 C3900 1.400 . S
C3901 C3902 1.398 . S
C3902 H3890 0.950 . S
C3902 C3901 1.398 . S
C3902 C3903 1.391 . S
C3903 H3891 0.950 . S
C3903 C3899 1.393 . S
C3903 C3902 1.391 . S
H3904 C3912 0.950 . S
H3905 C3917 0.950 . S
H3906 C3914 0.950 . S
H3907 C3916 0.950 . S
H3908 C3918 0.950 . S
H3909 C3920 0.950 . S
H3910 C3922 0.950 . S
H3911 C3923 0.950 . S
C3912 H3904 0.950 . S
C3912 C3913 1.386 . S
C3912 C3914 1.391 . S
C3913 C3912 1.386 . S
C3913 C3917 1.393 . S
C3914 H3906 0.950 . S
C3914 C3912 1.391 . S
C3914 C3915 1.400 . S
C3915 C3914 1.400 . S
C3915 C3916 1.398 . S
C3915 C3921 1.491 1_545 S
C3916 H3907 0.950 . S
C3916 C3915 1.398 . S
C3916 C3917 1.391 . S
C3917 H3905 0.950 . S
C3917 C3913 1.393 . S
C3917 C3916 1.391 . S
C3918 H3908 0.950 . S
C3918 C3919 1.386 . S
C3918 C3920 1.391 . S
C3919 C3918 1.386 . S
C3919 C3923 1.393 . S
C3920 H3909 0.950 . S
C3920 C3918 1.391 . S
C3920 C3921 1.400 . S
C3921 C3915 1.491 1_565 S
C3921 C3920 1.400 . S
C3921 C3922 1.398 . S
C3922 H3910 0.950 . S
C3922 C3921 1.398 . S
C3922 C3923 1.391 . S
C3923 H3911 0.950 . S
C3923 C3919 1.393 . S
C3923 C3922 1.391 . S
H3924 C3932 0.950 . S
H3925 C3937 0.950 . S
H3926 C3934 0.950 . S
H3927 C3936 0.950 . S
H3928 C3938 0.950 . S
H3929 C3940 0.950 . S
H3930 C3942 0.950 . S
H3931 C3943 0.950 . S
C3932 H3924 0.950 . S
C3932 C3933 1.386 . S
C3932 C3934 1.391 . S
C3933 C3932 1.386 . S
C3933 C3937 1.393 . S
C3934 H3926 0.950 . S
C3934 C3932 1.391 . S
C3934 C3935 1.400 . S
C3935 C3934 1.400 . S
C3935 C3936 1.398 . S
C3935 C3941 1.491 1_545 S
C3936 H3927 0.950 . S
C3936 C3935 1.398 . S
C3936 C3937 1.391 . S
C3937 H3925 0.950 . S
C3937 C3933 1.393 . S
C3937 C3936 1.391 . S
C3938 H3928 0.950 . S
C3938 C3939 1.386 . S
C3938 C3940 1.391 . S
C3939 C3938 1.386 . S
C3939 C3943 1.393 . S
C3940 H3929 0.950 . S
C3940 C3938 1.391 . S
C3940 C3941 1.400 . S
C3941 C3935 1.491 1_565 S
C3941 C3940 1.400 . S
C3941 C3942 1.398 . S
C3942 H3930 0.950 . S
C3942 C3941 1.398 . S
C3942 C3943 1.391 . S
C3943 H3931 0.950 . S
C3943 C3939 1.393 . S
C3943 C3942 1.391 . S
H3944 C3952 0.950 . S
H3945 C3957 0.950 . S
H3946 C3954 0.950 . S
H3947 C3956 0.950 . S
H3948 C3958 0.950 . S
H3949 C3960 0.950 . S
H3950 C3962 0.950 . S
H3951 C3963 0.950 . S
C3952 H3944 0.950 . S
C3952 C3953 1.386 . S
C3952 C3954 1.391 . S
C3953 C3952 1.386 . S
C3953 C3957 1.393 . S
C3954 H3946 0.950 . S
C3954 C3952 1.391 . S
C3954 C3955 1.400 . S
C3955 C3954 1.400 . S
C3955 C3956 1.398 . S
C3955 C3961 1.491 . S
C3956 H3947 0.950 . S
C3956 C3955 1.398 . S
C3956 C3957 1.391 . S
C3957 H3945 0.950 . S
C3957 C3953 1.393 . S
C3957 C3956 1.391 . S
C3958 H3948 0.950 . S
C3958 C3959 1.386 . S
C3958 C3960 1.391 . S
C3959 C3958 1.386 . S
C3959 C3963 1.393 . S
C3960 H3949 0.950 . S
C3960 C3958 1.391 . S
C3960 C3961 1.400 . S
C3961 C3955 1.491 . S
C3961 C3960 1.400 . S
C3961 C3962 1.398 . S
C3962 H3950 0.950 . S
C3962 C3961 1.398 . S
C3962 C3963 1.391 . S
C3963 H3951 0.950 . S
C3963 C3959 1.393 . S
C3963 C3962 1.391 . S
H3964 C3972 0.950 . S
H3965 C3977 0.950 . S
H3966 C3974 0.950 . S
H3967 C3976 0.950 . S
H3968 C3978 0.950 . S
H3969 C3980 0.950 . S
H3970 C3982 0.968 . S
H3971 C3983 0.950 . S
C3972 H3964 0.950 . S
C3972 C3973 1.386 . S
C3972 C3974 1.391 . S
C3973 C3972 1.386 . S
C3973 C3977 1.393 . S
C3974 H3966 0.950 . S
C3974 C3972 1.391 . S
C3974 C3975 1.400 . S
C3975 C3974 1.400 . S
C3975 C3976 1.398 . S
C3975 C3981 1.491 1_565 S
C3976 H3967 0.950 . S
C3976 C3975 1.398 . S
C3976 C3977 1.391 . S
C3977 H3965 0.950 . S
C3977 C3973 1.393 . S
C3977 C3976 1.391 . S
C3978 H3968 0.950 . S
C3978 C3979 1.386 . S
C3978 C3980 1.391 . S
C3979 C3978 1.386 . S
C3979 C3983 1.393 . S
C3980 H3969 0.950 . S
C3980 C3978 1.391 . S
C3980 C3981 1.400 . S
C3981 C3975 1.491 1_545 S
C3981 C3980 1.400 . S
C3981 C3982 1.398 . S
C3982 H3970 0.968 . S
C3982 C3981 1.398 . S
C3982 C3983 1.391 . S
C3983 H3971 0.950 . S
C3983 C3979 1.393 . S
C3983 C3982 1.391 . S
C1593 N1333 1.367 . S
C1599 C7 1.379 . S
C1613 N1366 1.370 . S
C1619 C40 1.378 . S
C1633 N1399 1.366 . S
C1639 C73 1.380 . S
C1653 C106 1.380 . S
C1659 N1432 1.366 . S
C1673 C139 1.390 . S
C1679 N1465 1.371 . S
C1693 C172 1.399 . S
C1699 N772 1.387 . S
C1713 C205 1.392 . S
C1719 N1498 1.389 . S
C1733 C238 1.399 . S
C1739 N1531 1.388 . S
C1753 C271 1.396 . S
C1759 N1201 1.390 . S
C1773 C304 1.396 . S
C1779 N1267 1.378 . S
C1793 C337 1.384 . S
C1799 N1300 1.383 . S
C1813 N442 1.380 . S
C1819 C370 1.382 . S
C1833 C403 1.397 . S
C1839 N937 1.390 . S
C1853 C436 1.384 . S
C1859 N970 1.367 . S
C1873 N1003 1.383 . S
C1879 C469 1.384 . S
C1893 N1036 1.383 . S
C1899 C502 1.398 . S
C1913 C535 1.380 . S
C1919 N1069 1.377 . S
C1933 N376 1.387 . S
C1939 C568 1.389 . S
C1953 N1102 1.366 . S
C1959 C601 1.382 . S
C1973 N1135 1.389 . S
C1979 C634 1.399 . S
C1993 C667 1.381 . S
C1999 N805 1.379 . S
C2013 C700 1.399 . S
C2019 N871 1.389 . S
C2033 N904 1.389 . S
C2039 C733 1.391 . S
C2053 C766 1.384 . S
C2059 N46 1.367 . S
C2073 C799 1.399 . S
C2079 N541 1.388 . S
C2093 N574 1.378 . S
C2099 C832 1.396 . S
C2113 N607 1.389 . S
C2119 C865 1.398 . S
C2133 C898 1.392 . S
C2139 N640 1.389 . S
C2153 C931 1.386 . S
C2159 N673 1.367 . S
C2173 N1564 1.372 . S
C2179 C964 1.378 . S
C2193 C997 1.392 . S
C2199 N706 1.390 . S
C2213 C1030 1.390 . S
C2219 N739 1.371 . S
C2233 C1063 1.394 . S
C2239 N409 1.375 . S
C2253 N475 1.375 . S
C2259 C1096 1.379 . S
C2273 C1129 1.399 . S
C2279 N508 1.385 . S
C2293 C1162 1.378 . S
C2299 N1234 1.367 . S
C2313 C1195 1.391 . S
C2319 N145 1.372 . S
C2333 C1228 1.382 . S
C2339 N178 1.366 . S
C2353 C1261 1.378 . S
C2359 N211 1.368 . S
C2373 C1294 1.396 . S
C2379 N244 1.390 . S
C2393 N277 1.376 . S
C2399 C1327 1.395 . S
C2413 C1360 1.393 . S
C2419 N1168 1.374 . S
C2433 C1393 1.378 . S
C2439 N310 1.373 . S
C2453 N343 1.386 . S
C2459 C1426 1.387 . S
C2473 N13 1.380 . S
C2479 C1459 1.397 . S
C2493 C1492 1.390 . S
C2499 N79 1.370 . S
C2513 C1525 1.381 . S
C2519 N112 1.379 . S
C2533 N838 1.367 . S
C2539 C1558 1.378 . S
C2553 N2 0.286 . S
C2559 N35 0.262 . S
C2573 N101 0.295 . S
C2579 N68 0.258 . S
C2593 N134 0.260 . S
C2599 N200 0.304 . S
C2613 N233 0.310 . S
C2619 N167 0.272 . S
C2633 N1124 0.263 . S
C2639 N266 0.284 . S
C2653 N299 0.282 . S
C2659 N365 0.307 . S
C2673 N332 0.260 . S
C2679 N1058 0.304 . S
C2693 N398 0.297 . S
C2699 N431 0.298 . S
C2713 N464 0.309 . S
C2719 N497 0.273 . S
C2733 N596 0.259 . S
C2739 N530 0.293 . S
C2753 N563 0.278 . S
C2759 N629 0.267 . S
C2773 N662 0.277 . S
C2779 N1520 0.267 . S
C2793 N761 0.304 . S
C2799 N695 0.290 . S
C2813 N1454 0.267 . S
C2819 N728 0.278 . S
C2833 N827 0.297 . S
C2839 N794 0.258 . S
C2853 N893 0.295 . S
C2859 N860 0.300 . S
C2873 N992 0.258 . S
C2879 N926 0.297 . S
C2893 N1025 0.259 . S
C2899 N959 0.301 . S
C2913 N1157 0.258 . S
C2919 N1091 0.296 . S
C2933 N1223 0.260 . S
C2939 N1190 0.291 . S
C2953 N1289 0.258 . S
C2959 N1256 0.295 . S
C2973 N1388 0.263 . S
C2979 N1322 0.284 . S
C2993 N1421 0.268 . S
C2999 N1355 0.277 . S
C3013 N1553 0.259 . S
C3019 N1487 0.300 . S
C3033 C18 1.080 . S
C3039 C747 1.033 . S
C3053 C51 1.077 . S
C3059 C714 1.063 . S
C3073 C1572 1.026 . S
C3079 C84 1.082 . S
C3093 C681 1.026 . S
C3099 C117 1.082 . S
C3113 C150 1.082 . S
C3119 C1242 1.033 . S
C3133 C1209 1.034 . S
C3139 C183 1.080 . S
C3153 C1308 1.035 . S
C3159 C216 1.080 . S
C3173 C249 1.081 . S
C3179 C1275 1.038 . S
C3193 C1407 1.028 . S
C3199 C282 1.081 . S
C3213 C1341 1.046 . S
C3219 C315 1.078 . S
C3233 C348 1.078 . S
C3239 C1374 1.061 . S
C3253 C648 1.026 . S
C3259 C381 1.082 . S
C3273 C351 1.060 . S
C3279 C414 1.078 . S
C3293 C318 1.032 . S
C3299 C447 1.080 . S
C3313 C480 1.077 . S
C3319 C1176 1.058 . S
C3333 C513 1.082 . S
C3339 C285 1.029 . S
C3353 C846 1.041 . S
C3359 C546 1.079 . S
C3373 C813 1.047 . S
C3379 C579 1.080 . S
C3393 C612 1.081 . S
C3399 C912 1.030 . S
C3413 C645 1.078 . S
C3419 C879 1.051 . S
C3433 C1011 1.063 . S
C3439 C678 1.077 . S
C3453 C711 1.079 . S
C3459 C945 1.053 . S
C3473 C978 1.026 . S
C3479 C744 1.082 . S
C3493 C252 1.057 . S
C3499 C777 1.077 . S
C3513 C810 1.078 . S
C3519 C1539 1.048 . S
C3533 C1506 1.059 . S
C3539 C843 1.078 . S
C3553 C876 1.077 . S
C3559 C780 1.063 . S
C3573 C909 1.078 . S
C3579 C1473 1.059 . S
C3593 C942 1.080 . S
C3599 C450 1.034 . S
C3613 C417 1.032 . S
C3619 C975 1.080 . S
C3633 C1008 1.078 . S
C3639 C516 1.060 . S
C3653 C1041 1.077 . S
C3659 C483 1.063 . S
C3673 C615 1.047 . S
C3679 C1074 1.080 . S
C3693 C1107 1.077 . S
C3699 C549 1.055 . S
C3713 C1140 1.079 . S
C3719 C582 1.042 . S
C3733 C1173 1.081 . S
C3739 C1440 1.029 . S
C3753 C1143 1.044 . S
C3759 C1206 1.078 . S
C3773 C1239 1.078 . S
C3779 C1110 1.044 . S
C3793 C1272 1.080 . S
C3799 C384 1.032 . S
C3813 C1305 1.078 . S
C3819 C1077 1.060 . S
C3833 C1338 1.082 . S
C3839 C54 1.034 . S
C3853 C21 1.042 . S
C3859 C1371 1.081 . S
C3873 C120 1.045 . S
C3879 C1404 1.080 . S
C3893 C87 1.063 . S
C3899 C1437 1.077 . S
C3913 C1470 1.078 . S
C3919 C219 1.063 . S
C3933 C153 1.053 . S
C3939 C1503 1.077 . S
C3953 C186 1.061 . S
C3959 C1536 1.077 . S
C3973 C1569 1.079 . S
C3979 C1044 1.042 . S
