# Generated by pormake.
# Topology unh, (4)-cn, num edge types: 1
# Building blocks:
#     Node 0, Type 0, BuildingBlock: QUQFOY_clean_sbu_3, # of connection points: 4
#     Node 1, Type 0, BuildingBlock: QUQFOY_clean_sbu_3, # of connection points: 4
#     Node 2, Type 0, BuildingBlock: QUQFOY_clean_sbu_3, # of connection points: 4
#     Node 3, Type 0, BuildingBlock: QUQFOY_clean_sbu_3, # of connection points: 4
#     Node 4, Type 0, BuildingBlock: QUQFOY_clean_sbu_3, # of connection points: 4
#     Node 5, Type 0, BuildingBlock: QUQFOY_clean_sbu_3, # of connection points: 4
#     Edge 6, Type (0, 0), BuildingBlock: KIFKEQ_clean_linker_1, # of connection points: 2
#     Edge 7, Type (0, 0), BuildingBlock: KIFKEQ_clean_linker_1, # of connection points: 2
#     Edge 8, Type (0, 0), BuildingBlock: KIFKEQ_clean_linker_1, # of connection points: 2
#     Edge 9, Type (0, 0), BuildingBlock: KIFKEQ_clean_linker_1, # of connection points: 2
#     Edge 10, Type (0, 0), BuildingBlock: KIFKEQ_clean_linker_1, # of connection points: 2
#     Edge 11, Type (0, 0), BuildingBlock: KIFKEQ_clean_linker_1, # of connection points: 2
#     Edge 12, Type (0, 0), BuildingBlock: KIFKEQ_clean_linker_1, # of connection points: 2
#     Edge 13, Type (0, 0), BuildingBlock: KIFKEQ_clean_linker_1, # of connection points: 2
#     Edge 14, Type (0, 0), BuildingBlock: KIFKEQ_clean_linker_1, # of connection points: 2
#     Edge 15, Type (0, 0), BuildingBlock: KIFKEQ_clean_linker_1, # of connection points: 2
#     Edge 16, Type (0, 0), BuildingBlock: KIFKEQ_clean_linker_1, # of connection points: 2
#     Edge 17, Type (0, 0), BuildingBlock: KIFKEQ_clean_linker_1, # of connection points: 2
# Relax obj value: 0.079
# Max RMSD: 0.192
# Mean RMSD: 0.192
data_MOF--net-unh--node1-QUQFOY_clean_sbu_3--edge1-KIFKEQ_clean_linker_1
_symmetry_space_group_name_H-M    P1
_symmetry_Int_Tables_number       1
_symmetry_cell_setting            triclinic
loop_
_symmetry_equiv_pos_as_xyz
'x, y, z'
_cell_length_a     45.118728
_cell_length_b     44.708779
_cell_length_c     23.945671
_cell_angle_alpha  90.253152
_cell_angle_beta   90.202415
_cell_angle_gamma 119.7806
loop_
_atom_site_label
_atom_site_type_symbol
_atom_site_fract_x
_atom_site_fract_y
_atom_site_fract_z
_atom_type_partial_charge
C0 C 0.14405 0.50335 0.08673 0.0
O1 O 0.13637 0.48885 0.03903 0.0
Cd2 Cd 0.09949 0.4971 0.97523 0.0
O3 O 0.13048 0.52083 0.10336 0.0
Cd4 Cd 0.08731 0.53638 0.07386 0.0
C5 C 0.13965 0.58624 0.9723 0.0
O6 O 0.04697 0.48479 0.01874 0.0
O7 O 0.04288 0.53076 0.01157 0.0
O8 O 0.06752 0.517 0.16727 0.0
C9 C 0.03122 0.49934 -0.00126 0.0
O10 O 0.13049 0.5575 0.94803 0.0
C11 C 0.06129 0.54083 0.18032 0.0
O12 O 0.13 0.58722 0.02203 0.0
O13 O 0.06786 0.56391 0.14391 0.0
C14 C 0.61936 0.15908 0.25887 0.0
O15 O 0.62677 0.15088 0.21228 0.0
Cd16 Cd 0.58257 0.11626 0.146 0.0
O17 O 0.58829 0.14596 0.27351 0.0
Cd18 Cd 0.53001 0.10223 0.24233 0.0
C19 C 0.53661 0.15967 0.14649 0.0
O20 O 0.54097 0.06239 0.18534 0.0
O21 O 0.49189 0.05945 0.17674 0.0
O22 O 0.52893 0.08015 0.33441 0.0
C23 C 0.51118 0.04745 0.16386 0.0
O24 O 0.55724 0.15186 0.12325 0.0
C25 C 0.49922 0.074 0.34741 0.0
O26 O 0.52262 0.14634 0.19296 0.0
O27 O 0.48317 0.08159 0.31156 0.0
C28 C 0.43192 0.6313 0.41014 0.0
O29 O 0.44223 0.63754 0.36004 0.0
Cd30 Cd 0.43783 0.59317 0.29696 0.0
O31 O 0.41906 0.60093 0.42936 0.0
Cd32 Cd 0.40612 0.54287 0.39871 0.0
C33 C 0.35076 0.53924 0.29989 0.0
O34 O 0.45615 0.55677 0.33986 0.0
O35 O 0.41313 0.50496 0.33514 0.0
O36 O 0.43217 0.54222 0.48588 0.0
C37 C 0.44346 0.52622 0.32083 0.0
O38 O 0.37772 0.55922 0.27304 0.0
C39 C 0.40818 0.51386 0.50373 0.0
O40 O 0.35255 0.53069 0.35009 0.0
O41 O 0.38171 0.49837 0.47283 0.0
C42 C 0.78148 0.453 0.57971 0.0
O43 O 0.78785 0.46575 0.53103 0.0
Cd44 Cd 0.82601 0.45819 0.46954 0.0
O45 O 0.79674 0.43756 0.59817 0.0
Cd46 Cd 0.84112 0.42343 0.57065 0.0
C47 C 0.78863 0.36948 0.47149 0.0
O48 O 0.87965 0.47446 0.51413 0.0
O49 O 0.8858 0.42961 0.50883 0.0
O50 O 0.86135 0.44432 0.66408 0.0
C51 C 0.89636 0.46064 0.49529 0.0
O52 O 0.79681 0.39711 0.44489 0.0
C53 C 0.86805 0.4209 0.67757 0.0
O54 O 0.79887 0.37063 0.52161 0.0
O55 O 0.8617 0.39756 0.64133 0.0
C56 C 0.30716 0.79058 0.74926 0.0
O57 O 0.30068 0.79598 0.69988 0.0
Cd58 Cd 0.34574 0.83495 0.63804 0.0
O59 O 0.33759 0.80684 0.76797 0.0
Cd60 Cd 0.39492 0.85157 0.73884 0.0
C61 C 0.39776 0.79928 0.64095 0.0
O62 O 0.38254 0.88999 0.6804 0.0
O63 O 0.4328 0.89543 0.6755 0.0
O64 O 0.39488 0.87373 0.83081 0.0
C65 C 0.41278 0.90637 0.66146 0.0
O66 O 0.37934 0.80794 0.61257 0.0
C67 C 0.42469 0.88043 0.84492 0.0
O68 O 0.40509 0.8083 0.692 0.0
O69 O 0.44126 0.87321 0.80968 0.0
C70 C 0.50046 0.32638 0.91633 0.0
O71 O 0.48446 0.31642 0.87016 0.0
Cd72 Cd 0.48798 0.35869 0.80321 0.0
O73 O 0.51564 0.35814 0.92973 0.0
Cd74 Cd 0.52429 0.4142 0.89842 0.0
C75 C 0.57531 0.41388 0.7964 0.0
O76 O 0.47052 0.39619 0.84534 0.0
O77 O 0.51082 0.44945 0.84027 0.0
O78 O 0.50652 0.41402 -0.00683 0.0
C79 C 0.48076 0.42645 0.8272 0.0
O80 O 0.54744 0.39147 0.77352 0.0
C81 C 0.5283 0.44507 0.00463 0.0
O82 O 0.57541 0.42581 0.84495 0.0
O83 O 0.54947 0.46239 0.96661 0.0
H84 H -0.00306 0.52722 0.94796 0.0
H85 H 0.00167 0.43316 0.95644 0.0
H86 H 0.95353 0.50215 0.87617 0.0
H87 H 0.95671 0.4072 0.88486 0.0
H88 H 0.91244 0.39774 0.70241 0.0
H89 H 0.9484 0.41175 0.78601 0.0
H90 H 0.89605 0.46131 0.85851 0.0
H91 H 0.86167 0.4489 0.77408 0.0
C92 C -0.01169 0.50089 0.93506 0.0
C93 C 0.00286 0.48223 0.9579 0.0
C94 C 0.96304 0.48631 0.89405 0.0
C95 C 0.95123 0.45244 0.87492 0.0
C96 C -0.03466 0.43342 0.89839 0.0
C97 C -0.00906 0.44819 0.93957 0.0
C98 C 0.90829 0.41105 0.73678 0.0
C99 C 0.88474 0.42277 0.73157 0.0
C100 C 0.9288 0.419 0.78478 0.0
C101 C 0.92568 0.43837 0.82858 0.0
C102 C 0.89995 0.44735 0.82493 0.0
C103 C 0.88004 0.44003 0.77673 0.0
H104 H 0.49203 0.92428 0.87028 0.0
H105 H 0.39074 0.87657 0.93997 0.0
H106 H 0.51446 0.96163 0.95281 0.0
H107 H 0.4131 0.9124 0.02323 0.0
H108 H 0.45043 0.01542 0.10917 0.0
H109 H 0.43162 0.97139 0.03763 0.0
H110 H 0.52661 0.97032 0.05257 0.0
H111 H 0.54612 0.01586 0.12398 0.0
C112 C 0.47479 0.92112 0.90399 0.0
C113 C 0.43961 0.89801 0.89849 0.0
C114 C 0.48761 0.94242 0.95134 0.0
C115 C 0.46545 0.94057 -0.00584 0.0
C116 C 0.43073 0.9153 -0.00967 0.0
C117 C 0.41791 0.89458 0.9428 0.0
C118 C 0.46735 0.00575 0.09765 0.0
C119 C 0.4998 0.01918 0.12234 0.0
C120 C 0.45639 -0.01985 0.05679 0.0
C121 C 0.47739 0.96689 0.03966 0.0
C122 C 0.50985 -0.01994 0.06464 0.0
C123 C 0.52096 0.006 0.10568 0.0
H124 H 0.41983 0.46355 0.27202 0.0
H125 H 0.50787 0.56589 0.27766 0.0
H126 H 0.44708 0.44668 0.20168 0.0
H127 H 0.53598 0.54853 0.20754 0.0
H128 H 0.54629 0.51214 0.02624 0.0
H129 H 0.53093 0.53378 0.10882 0.0
H130 H 0.49162 0.43418 0.18656 0.0
H131 H 0.50546 0.41237 0.10324 0.0
C132 C 0.44529 0.48238 0.25874 0.0
C133 C 0.46164 0.5161 0.28036 0.0
C134 C 0.46113 0.47258 0.21864 0.0
C135 C 0.49395 0.49612 0.19923 0.0
C136 C 0.51063 0.52982 0.22139 0.0
C137 C 0.49461 0.53972 0.26166 0.0
C138 C 0.53507 0.49521 0.06159 0.0
C139 C 0.52652 0.46047 0.05817 0.0
C140 C 0.52632 0.50759 0.10896 0.0
C141 C 0.5093 0.48548 0.15384 0.0
C142 C 0.50372 0.45162 0.15208 0.0
C143 C 0.51187 0.43915 0.10455 0.0
H144 H 0.92446 0.52646 0.45335 0.0
H145 H 0.93214 0.43398 0.44581 0.0
H146 H -0.03022 0.55318 0.38353 0.0
H147 H -0.02405 0.45979 0.37573 0.0
H148 H 0.06835 0.51457 0.2778 0.0
H149 H 0.03326 0.50181 0.36078 0.0
H150 H -0.02067 0.54877 0.28506 0.0
H151 H 0.01598 0.56314 0.20293 0.0
C152 C 0.93589 0.51193 0.43702 0.0
C153 C 0.92472 0.47812 0.45517 0.0
C154 C 0.96171 0.52714 0.39687 0.0
C155 C -0.02319 0.5088 0.37422 0.0
C156 C -0.03432 0.47514 0.39305 0.0
C157 C 0.94018 0.46012 0.43305 0.0
C158 C 0.04952 0.52288 0.2795 0.0
C159 C 0.04457 0.53947 0.23382 0.0
C160 C 0.02919 0.51532 0.32684 0.0
C161 C 0.00277 0.52337 0.32907 0.0
C162 C -0.00057 0.54222 0.28489 0.0
C163 C 0.02036 0.55041 0.23776 0.0
H164 H 0.53218 0.07911 0.4446 0.0
H165 H 0.43182 0.02899 0.36914 0.0
H166 H 0.50951 0.04311 0.52672 0.0
H167 H 0.40914 -0.0086 0.45049 0.0
H168 H 0.37643 0.93597 0.61936 0.0
H169 H 0.39555 -0.01836 0.54922 0.0
H170 H 0.49273 -0.01526 0.54042 0.0
H171 H 0.47427 0.94063 0.61074 0.0
C172 C 0.50512 0.06055 0.44595 0.0
C173 C 0.48382 0.05651 0.40037 0.0
C174 C 0.49213 0.0397 0.49281 0.0
C175 C 0.45766 0.01365 0.49467 0.0
C176 C 0.43579 0.01119 0.45057 0.0
C177 C 0.44876 0.03265 0.40391 0.0
C178 C 0.40198 0.94679 0.60269 0.0
C179 C 0.42385 0.93474 0.62075 0.0
C180 C 0.41288 0.9728 0.56236 0.0
C181 C 0.44583 -0.0128 0.53946 0.0
C182 C 0.46753 0.97505 0.55798 0.0
C183 C 0.45678 0.94939 0.59815 0.0
H184 H 0.4363 0.38629 0.74472 0.0
H185 H 0.47946 0.48608 0.82443 0.0
H186 H 0.41249 0.40591 0.67054 0.0
H187 H 0.45442 0.50515 0.75266 0.0
H188 H 0.46132 0.54435 0.57622 0.0
H189 H 0.47177 0.52054 0.65926 0.0
H190 H 0.37493 0.427 0.63664 0.0
H191 H 0.36479 0.45089 0.55121 0.0
C192 C 0.4397 0.41201 0.74725 0.0
C193 C 0.46012 0.43492 0.78956 0.0
C194 C 0.42602 0.42325 0.70493 0.0
C195 C 0.43223 0.4574 0.70492 0.0
C196 C 0.45004 0.47906 0.75035 0.0
C197 C 0.46421 0.4681 0.79171 0.0
C198 C 0.44199 0.51881 0.58897 0.0
C199 C 0.41223 0.49951 0.55697 0.0
C200 C 0.44786 0.50519 0.63713 0.0
C201 C 0.42404 0.47192 0.65518 0.0
C202 C 0.39386 0.45266 0.62377 0.0
C203 C 0.38796 0.46639 0.57509 0.0
H204 H 0.16421 0.52879 0.19271 0.0
H205 H 0.18281 0.47355 0.06148 0.0
H206 H 0.211 0.53108 0.24725 0.0
H207 H 0.22935 0.47552 0.11654 0.0
H208 H 0.33916 0.53821 0.18845 0.0
H209 H 0.28613 0.52354 0.14074 0.0
H210 H 0.23324 0.49761 0.29845 0.0
H211 H 0.28697 0.51269 0.34689 0.0
C212 C 0.17795 0.51671 0.17577 0.0
C213 C 0.17002 0.50139 0.12231 0.0
C214 C 0.20461 0.51778 0.20733 0.0
C215 C 0.22404 0.50369 0.18607 0.0
C216 C 0.21512 0.487 0.13374 0.0
C217 C 0.18838 0.4858 0.10225 0.0
C218 C 0.31623 0.52911 0.21313 0.0
C219 C 0.31737 0.52691 0.27159 0.0
C220 C 0.2857 0.52038 0.18561 0.0
C221 C 0.25544 0.50938 0.21575 0.0
C222 C 0.25623 0.50623 0.27415 0.0
C223 C 0.28691 0.51468 0.30182 0.0
H224 H 0.61334 0.17939 0.36428 0.0
H225 H 0.68725 0.19916 0.23478 0.0
H226 H 0.65682 0.22764 0.41869 0.0
H227 H 0.73068 0.24722 0.2895 0.0
H228 H 0.77552 0.35814 0.36017 0.0
H229 H 0.7371 0.3044 0.3127 0.0
H230 H 0.71309 0.25091 0.47017 0.0
H231 H 0.75186 0.30518 0.5183 0.0
C232 C 0.63895 0.19369 0.34774 0.0
C233 C 0.64669 0.18563 0.29483 0.0
C234 C 0.66392 0.2212 0.37914 0.0
C235 C 0.69708 0.24137 0.35816 0.0
C236 C 0.70521 0.23238 0.30642 0.0
C237 C 0.68034 0.20475 0.27519 0.0
C238 C 0.76227 0.33495 0.38484 0.0
C239 C 0.76663 0.33601 0.44313 0.0
C240 C 0.74044 0.30406 0.35747 0.0
C241 C 0.72216 0.27341 0.38765 0.0
C242 C 0.72678 0.27421 0.44589 0.0
C243 C 0.74904 0.3052 0.47336 0.0
H244 H 0.43315 0.81354 0.54483 0.0
H245 H 0.3892 0.73734 0.67419 0.0
H246 H 0.44796 0.7762 0.49218 0.0
H247 H 0.40111 0.69829 0.6198 0.0
H248 H 0.43841 0.6374 0.52351 0.0
H249 H 0.43683 0.68101 0.58278 0.0
H250 H 0.42309 0.72906 0.43584 0.0
H251 H 0.42737 0.68703 0.37715 0.0
C252 C 0.42678 0.78866 0.5619 0.0
C253 C 0.41015 0.77818 0.61334 0.0
C254 C 0.4348 0.76696 0.53145 0.0
C255 C 0.42519 0.73365 0.55076 0.0
C256 C 0.40945 0.72377 0.6035 0.0
C257 C 0.40241 0.74603 0.63478 0.0
C258 C 0.43554 0.65767 0.50411 0.0
C259 C 0.43306 0.65891 0.44578 0.0
C260 C 0.43431 0.68256 0.53809 0.0
C261 C 0.4296 0.70876 0.51461 0.0
C262 C 0.42756 0.71001 0.45593 0.0
C263 C 0.42974 0.68569 0.42199 0.0
H264 H 0.64107 0.44882 0.83742 0.0
H265 H 0.58275 0.40472 0.68596 0.0
H266 H 0.69375 0.46411 0.78668 0.0
H267 H 0.635 0.41981 0.63586 0.0
H268 H 0.73616 0.47395 0.54854 0.0
H269 H 0.68865 0.47008 0.60272 0.0
H270 H 0.71873 0.4305 0.74287 0.0
H271 H 0.76634 0.43454 0.68909 0.0
C272 C 0.6395 0.44268 0.79331 0.0
C273 C 0.60768 0.42536 0.76585 0.0
C274 C 0.66962 0.4513 0.76436 0.0
C275 C 0.66851 0.4432 0.70726 0.0
C276 C 0.63679 0.4268 0.67961 0.0
C277 C 0.60677 0.41788 0.70854 0.0
C278 C 0.73294 0.46486 0.59116 0.0
C279 C 0.75487 0.45422 0.61424 0.0
C280 C 0.70564 0.46252 0.62209 0.0
C281 C 0.69982 0.44976 0.67692 0.0
C282 C 0.72268 0.44068 0.7009 0.0
C283 C 0.74983 0.44277 0.66987 0.0
H284 H 0.31167 0.77621 0.85882 0.0
H285 H 0.24081 0.74491 0.7199 0.0
H286 H 0.26882 0.72915 0.91433 0.0
H287 H 0.19779 0.69803 0.7759 0.0
H288 H 0.155 0.59238 0.86166 0.0
H289 H 0.19275 0.64401 0.81026 0.0
H290 H 0.21221 0.70517 0.96024 0.0
H291 H 0.17428 0.65297 0.01246 0.0
C292 C 0.28682 0.75957 0.84029 0.0
C293 C 0.27983 0.76413 0.78461 0.0
C294 C 0.26216 0.73273 0.87235 0.0
C295 C 0.22999 0.70971 0.84943 0.0
C296 C 0.22253 0.71508 0.7945 0.0
C297 C 0.24714 0.74203 0.76249 0.0
C298 C 0.16715 0.61677 0.8839 0.0
C299 C 0.16172 0.61844 0.94139 0.0
C300 C 0.18859 0.64649 0.85416 0.0
C301 C 0.20539 0.67873 0.88105 0.0
C302 C 0.19974 0.68062 0.93843 0.0
C303 C 0.17795 0.65078 0.96827 0.0
H304 H 0.4608 0.25572 0.91691 0.0
H305 H 0.54525 0.34102 0.00238 0.0
H306 H 0.46705 0.21533 0.9784 0.0
H307 H 0.55166 0.30072 0.06246 0.0
H308 H 0.58003 0.21295 0.08196 0.0
H309 H 0.56859 0.25308 0.03038 0.0
H310 H 0.46566 0.20298 0.09347 0.0
H311 H 0.47738 0.16295 0.14682 0.0
C312 C 0.48051 0.26583 0.94886 0.0
C313 C 0.50264 0.30156 0.95454 0.0
C314 C 0.48389 0.24277 -0.01581 0.0
C315 C 0.50982 0.25506 0.02498 0.0
C316 C 0.53149 0.29069 0.03126 0.0
C317 C 0.52777 0.31369 -0.00321 0.0
C318 C 0.55501 0.2106 0.08524 0.0
C319 C 0.52958 0.18488 0.11842 0.0
C320 C 0.54854 0.2336 0.05584 0.0
C321 C 0.51627 0.23097 0.05799 0.0
C322 C 0.49071 0.20534 0.09115 0.0
C323 C 0.49747 0.1827 0.12182 0.0
loop_
_geom_bond_atom_site_label_1
_geom_bond_atom_site_label_2
_geom_bond_distance
_geom_bond_site_symmetry_2
_ccdc_geom_bond_type
C0 O1 1.306 . S
C0 O3 1.160 . S
O1 C0 1.306 . S
O1 Cd2 2.228 1_554 S
Cd2 O1 2.228 1_556 S
Cd2 O6 2.273 1_556 S
Cd2 O10 2.277 1_556 S
O3 C0 1.160 . S
O3 Cd4 2.203 . S
Cd4 O3 2.203 . S
Cd4 O6 2.411 . S
Cd4 O7 2.333 . S
Cd4 O8 2.352 . S
Cd4 O12 2.277 . S
Cd4 O13 2.356 . S
C5 O10 1.209 . S
C5 O12 1.226 . S
O6 Cd2 2.273 1_554 S
O6 Cd4 2.411 . S
O6 C9 1.320 1_554 S
O7 Cd4 2.333 . S
O7 C9 1.214 1_554 S
O8 Cd4 2.352 . S
O8 C11 1.258 . S
C9 O6 1.320 1_556 S
C9 O7 1.214 1_556 S
O10 Cd2 2.277 1_554 S
O10 C5 1.209 . S
C11 O8 1.258 . S
C11 O13 1.282 . S
O12 Cd4 2.277 . S
O12 C5 1.226 . S
O13 Cd4 2.356 . S
O13 C11 1.282 . S
C14 O15 1.306 . S
C14 O17 1.160 . S
O15 C14 1.306 . S
O15 Cd16 2.228 . S
Cd16 O15 2.228 . S
Cd16 O20 2.273 . S
Cd16 O24 2.277 . S
O17 C14 1.160 . S
O17 Cd18 2.203 . S
Cd18 O17 2.203 . S
Cd18 O20 2.411 . S
Cd18 O21 2.333 . S
Cd18 O22 2.352 . S
Cd18 O26 2.277 . S
Cd18 O27 2.356 . S
C19 O24 1.209 . S
C19 O26 1.226 . S
O20 Cd16 2.273 . S
O20 Cd18 2.411 . S
O20 C23 1.320 . S
O21 Cd18 2.333 . S
O21 C23 1.214 . S
O22 Cd18 2.352 . S
O22 C25 1.258 . S
C23 O20 1.320 . S
C23 O21 1.214 . S
O24 Cd16 2.277 . S
O24 C19 1.209 . S
C25 O22 1.258 . S
C25 O27 1.282 . S
O26 Cd18 2.277 . S
O26 C19 1.226 . S
O27 Cd18 2.356 . S
O27 C25 1.282 . S
C28 O29 1.306 . S
C28 O31 1.160 . S
O29 C28 1.306 . S
O29 Cd30 2.228 . S
Cd30 O29 2.228 . S
Cd30 O34 2.273 . S
Cd30 O38 2.277 . S
O31 C28 1.160 . S
O31 Cd32 2.203 . S
Cd32 O31 2.203 . S
Cd32 O34 2.411 . S
Cd32 O35 2.333 . S
Cd32 O36 2.352 . S
Cd32 O40 2.277 . S
Cd32 O41 2.356 . S
C33 O38 1.209 . S
C33 O40 1.226 . S
O34 Cd30 2.273 . S
O34 Cd32 2.411 . S
O34 C37 1.320 . S
O35 Cd32 2.333 . S
O35 C37 1.214 . S
O36 Cd32 2.352 . S
O36 C39 1.258 . S
C37 O34 1.320 . S
C37 O35 1.214 . S
O38 Cd30 2.277 . S
O38 C33 1.209 . S
C39 O36 1.258 . S
C39 O41 1.282 . S
O40 Cd32 2.277 . S
O40 C33 1.226 . S
O41 Cd32 2.356 . S
O41 C39 1.282 . S
C42 O43 1.306 . S
C42 O45 1.160 . S
O43 C42 1.306 . S
O43 Cd44 2.228 . S
Cd44 O43 2.228 . S
Cd44 O48 2.273 . S
Cd44 O52 2.277 . S
O45 C42 1.160 . S
O45 Cd46 2.203 . S
Cd46 O45 2.203 . S
Cd46 O48 2.411 . S
Cd46 O49 2.333 . S
Cd46 O50 2.352 . S
Cd46 O54 2.277 . S
Cd46 O55 2.356 . S
C47 O52 1.209 . S
C47 O54 1.226 . S
O48 Cd44 2.273 . S
O48 Cd46 2.411 . S
O48 C51 1.320 . S
O49 Cd46 2.333 . S
O49 C51 1.214 . S
O50 Cd46 2.352 . S
O50 C53 1.258 . S
C51 O48 1.320 . S
C51 O49 1.214 . S
O52 Cd44 2.277 . S
O52 C47 1.209 . S
C53 O50 1.258 . S
C53 O55 1.282 . S
O54 Cd46 2.277 . S
O54 C47 1.226 . S
O55 Cd46 2.356 . S
O55 C53 1.282 . S
C56 O57 1.306 . S
C56 O59 1.160 . S
O57 C56 1.306 . S
O57 Cd58 2.228 . S
Cd58 O57 2.228 . S
Cd58 O62 2.273 . S
Cd58 O66 2.277 . S
O59 C56 1.160 . S
O59 Cd60 2.203 . S
Cd60 O59 2.203 . S
Cd60 O62 2.411 . S
Cd60 O63 2.333 . S
Cd60 O64 2.352 . S
Cd60 O68 2.277 . S
Cd60 O69 2.356 . S
C61 O66 1.209 . S
C61 O68 1.226 . S
O62 Cd58 2.273 . S
O62 Cd60 2.411 . S
O62 C65 1.320 . S
O63 Cd60 2.333 . S
O63 C65 1.214 . S
O64 Cd60 2.352 . S
O64 C67 1.258 . S
C65 O62 1.320 . S
C65 O63 1.214 . S
O66 Cd58 2.277 . S
O66 C61 1.209 . S
C67 O64 1.258 . S
C67 O69 1.282 . S
O68 Cd60 2.277 . S
O68 C61 1.226 . S
O69 Cd60 2.356 . S
O69 C67 1.282 . S
C70 O71 1.306 . S
C70 O73 1.160 . S
O71 C70 1.306 . S
O71 Cd72 2.228 . S
Cd72 O71 2.228 . S
Cd72 O76 2.273 . S
Cd72 O80 2.277 . S
O73 C70 1.160 . S
O73 Cd74 2.203 . S
Cd74 O73 2.203 . S
Cd74 O76 2.411 . S
Cd74 O77 2.333 . S
Cd74 O78 2.352 . S
Cd74 O82 2.277 . S
Cd74 O83 2.356 . S
C75 O80 1.209 . S
C75 O82 1.226 . S
O76 Cd72 2.273 . S
O76 Cd74 2.411 . S
O76 C79 1.320 . S
O77 Cd74 2.333 . S
O77 C79 1.214 . S
O78 Cd74 2.352 . S
O78 C81 1.258 1_556 S
C79 O76 1.320 . S
C79 O77 1.214 . S
O80 Cd72 2.277 . S
O80 C75 1.209 . S
C81 O78 1.258 1_554 S
C81 O83 1.282 1_554 S
O82 Cd74 2.277 . S
O82 C75 1.226 . S
O83 Cd74 2.356 . S
O83 C81 1.282 1_556 S
H84 C92 0.950 . S
H85 C97 0.950 . S
H86 C94 0.950 . S
H87 C96 0.950 . S
H88 C98 0.950 . S
H89 C100 0.950 1_455 S
H90 C102 0.950 . S
H91 C103 0.950 . S
C92 H84 0.950 . S
C92 C93 1.386 . S
C92 C94 1.391 . S
C93 C92 1.386 . S
C93 C97 1.393 . S
C94 H86 0.950 . S
C94 C92 1.391 . S
C94 C95 1.400 . S
C95 C94 1.400 . S
C95 C96 1.398 . S
C95 C101 1.491 1_455 S
C96 H87 0.950 . S
C96 C95 1.398 . S
C96 C97 1.391 . S
C97 H85 0.950 . S
C97 C93 1.393 . S
C97 C96 1.391 . S
C98 H88 0.950 . S
C98 C99 1.386 . S
C98 C100 1.391 . S
C99 C98 1.386 . S
C99 C103 1.393 . S
C100 H89 0.950 1_655 S
C100 C98 1.391 . S
C100 C101 1.400 . S
C101 C95 1.491 1_655 S
C101 C100 1.400 . S
C101 C102 1.398 . S
C102 H90 0.950 . S
C102 C101 1.398 . S
C102 C103 1.391 . S
C103 H91 0.950 . S
C103 C99 1.393 . S
C103 C102 1.391 . S
H104 C112 0.950 . S
H105 C117 0.950 . S
H106 C114 0.950 . S
H107 C116 0.950 1_545 S
H108 C118 0.950 . S
H109 C120 0.950 . S
H110 C122 0.984 . S
H111 C123 0.950 . S
C112 H104 0.950 . S
C112 C113 1.386 . S
C112 C114 1.391 . S
C113 C112 1.386 . S
C113 C117 1.393 . S
C114 H106 0.950 . S
C114 C112 1.391 . S
C114 C115 1.400 . S
C115 C114 1.400 . S
C115 C116 1.398 . S
C115 C121 1.491 1_566 S
C116 H107 0.950 1_565 S
C116 C115 1.398 . S
C116 C117 1.391 . S
C117 H105 0.950 . S
C117 C113 1.393 . S
C117 C116 1.391 . S
C118 H108 0.950 . S
C118 C119 1.386 . S
C118 C120 1.391 . S
C119 C118 1.386 . S
C119 C123 1.393 . S
C120 H109 0.950 . S
C120 C118 1.391 . S
C120 C121 1.400 . S
C121 C115 1.491 1_544 S
C121 C120 1.400 . S
C121 C122 1.398 . S
C122 H110 0.984 . S
C122 C121 1.398 . S
C122 C123 1.391 . S
C123 H111 0.950 . S
C123 C119 1.393 . S
C123 C122 1.391 . S
H124 C132 0.950 . S
H125 C137 0.950 . S
H126 C134 0.950 . S
H127 C136 0.950 . S
H128 C138 0.950 . S
H129 C140 0.950 . S
H130 C142 0.950 . S
H131 C143 0.950 . S
C132 H124 0.950 . S
C132 C133 1.386 . S
C132 C134 1.391 . S
C133 C132 1.386 . S
C133 C137 1.393 . S
C134 H126 0.950 . S
C134 C132 1.391 . S
C134 C135 1.400 . S
C135 C134 1.400 . S
C135 C136 1.398 . S
C135 C141 1.491 . S
C136 H127 0.950 . S
C136 C135 1.398 . S
C136 C137 1.391 . S
C137 H125 0.950 . S
C137 C133 1.393 . S
C137 C136 1.391 . S
C138 H128 0.950 . S
C138 C139 1.386 . S
C138 C140 1.391 . S
C139 C138 1.386 . S
C139 C143 1.393 . S
C140 H129 0.950 . S
C140 C138 1.391 . S
C140 C141 1.400 . S
C141 C135 1.491 . S
C141 C140 1.400 . S
C141 C142 1.398 . S
C142 H130 0.950 . S
C142 C141 1.398 . S
C142 C143 1.391 . S
C143 H131 0.950 . S
C143 C139 1.393 . S
C143 C142 1.391 . S
H144 C152 0.950 . S
H145 C157 0.950 . S
H146 C154 0.950 1_455 S
H147 C156 0.950 . S
H148 C158 0.950 . S
H149 C160 0.937 1_655 S
H150 C162 0.950 . S
H151 C163 0.950 . S
C152 H144 0.950 . S
C152 C153 1.386 . S
C152 C154 1.391 . S
C153 C152 1.386 . S
C153 C157 1.393 . S
C154 H146 0.950 1_655 S
C154 C152 1.391 . S
C154 C155 1.400 . S
C155 C154 1.400 . S
C155 C156 1.398 . S
C155 C161 1.491 1_655 S
C156 H147 0.950 . S
C156 C155 1.398 . S
C156 C157 1.391 . S
C157 H145 0.950 . S
C157 C153 1.393 . S
C157 C156 1.391 . S
C158 H148 0.950 . S
C158 C159 1.386 . S
C158 C160 1.406 . S
C159 C158 1.386 . S
C159 C163 1.393 . S
C160 H149 0.937 1_455 S
C160 C158 1.406 . S
C160 C161 1.399 . S
C161 C155 1.491 1_455 S
C161 C160 1.399 . S
C161 C162 1.398 . S
C162 H150 0.950 . S
C162 C161 1.398 . S
C162 C163 1.391 . S
C163 H151 0.950 . S
C163 C159 1.393 . S
C163 C162 1.391 . S
H164 C172 0.950 . S
H165 C177 0.950 . S
H166 C174 0.950 1_565 S
H167 C176 0.950 . S
H168 C178 0.950 . S
H169 C180 0.950 1_545 S
H170 C182 0.950 . S
H171 C183 0.950 . S
C172 H164 0.950 . S
C172 C173 1.386 . S
C172 C174 1.391 . S
C173 C172 1.386 . S
C173 C177 1.393 . S
C174 H166 0.950 1_545 S
C174 C172 1.391 . S
C174 C175 1.400 . S
C175 C174 1.400 . S
C175 C176 1.398 . S
C175 C181 1.491 1_545 S
C176 H167 0.950 . S
C176 C175 1.398 . S
C176 C177 1.391 . S
C177 H165 0.950 . S
C177 C173 1.393 . S
C177 C176 1.391 . S
C178 H168 0.950 . S
C178 C179 1.386 . S
C178 C180 1.391 . S
C179 C178 1.386 . S
C179 C183 1.393 . S
C180 H169 0.950 1_565 S
C180 C178 1.391 . S
C180 C181 1.400 . S
C181 C175 1.491 1_565 S
C181 C180 1.400 . S
C181 C182 1.398 . S
C182 H170 0.950 . S
C182 C181 1.398 . S
C182 C183 1.391 . S
C183 H171 0.950 . S
C183 C179 1.393 . S
C183 C182 1.391 . S
H184 C192 0.950 . S
H185 C197 0.950 . S
H186 C194 0.950 . S
H187 C196 0.950 . S
H188 C198 0.950 . S
H189 C200 0.950 . S
H190 C202 0.950 . S
H191 C203 0.950 . S
C192 H184 0.950 . S
C192 C193 1.386 . S
C192 C194 1.391 . S
C193 C192 1.386 . S
C193 C197 1.393 . S
C194 H186 0.950 . S
C194 C192 1.391 . S
C194 C195 1.400 . S
C195 C194 1.400 . S
C195 C196 1.398 . S
C195 C201 1.491 . S
C196 H187 0.950 . S
C196 C195 1.398 . S
C196 C197 1.391 . S
C197 H185 0.950 . S
C197 C193 1.393 . S
C197 C196 1.391 . S
C198 H188 0.950 . S
C198 C199 1.386 . S
C198 C200 1.391 . S
C199 C198 1.386 . S
C199 C203 1.393 . S
C200 H189 0.950 . S
C200 C198 1.391 . S
C200 C201 1.400 . S
C201 C195 1.491 . S
C201 C200 1.400 . S
C201 C202 1.398 . S
C202 H190 0.950 . S
C202 C201 1.398 . S
C202 C203 1.391 . S
C203 H191 0.950 . S
C203 C199 1.393 . S
C203 C202 1.391 . S
H204 C212 0.950 . S
H205 C217 0.950 . S
H206 C214 0.950 . S
H207 C216 0.950 . S
H208 C218 0.950 . S
H209 C220 0.950 . S
H210 C222 0.950 . S
H211 C223 0.950 . S
C212 H204 0.950 . S
C212 C213 1.386 . S
C212 C214 1.391 . S
C213 C212 1.386 . S
C213 C217 1.393 . S
C214 H206 0.950 . S
C214 C212 1.391 . S
C214 C215 1.400 . S
C215 C214 1.400 . S
C215 C216 1.398 . S
C215 C221 1.491 . S
C216 H207 0.950 . S
C216 C215 1.398 . S
C216 C217 1.391 . S
C217 H205 0.950 . S
C217 C213 1.393 . S
C217 C216 1.391 . S
C218 H208 0.950 . S
C218 C219 1.386 . S
C218 C220 1.391 . S
C219 C218 1.386 . S
C219 C223 1.393 . S
C220 H209 0.950 . S
C220 C218 1.391 . S
C220 C221 1.400 . S
C221 C215 1.491 . S
C221 C220 1.400 . S
C221 C222 1.398 . S
C222 H210 0.950 . S
C222 C221 1.398 . S
C222 C223 1.391 . S
C223 H211 0.950 . S
C223 C219 1.393 . S
C223 C222 1.391 . S
H224 C232 0.950 . S
H225 C237 0.950 . S
H226 C234 0.950 . S
H227 C236 0.950 . S
H228 C238 0.950 . S
H229 C240 0.950 . S
H230 C242 0.950 . S
H231 C243 0.950 . S
C232 H224 0.950 . S
C232 C233 1.386 . S
C232 C234 1.391 . S
C233 C232 1.386 . S
C233 C237 1.393 . S
C234 H226 0.950 . S
C234 C232 1.391 . S
C234 C235 1.400 . S
C235 C234 1.400 . S
C235 C236 1.398 . S
C235 C241 1.491 . S
C236 H227 0.950 . S
C236 C235 1.398 . S
C236 C237 1.391 . S
C237 H225 0.950 . S
C237 C233 1.393 . S
C237 C236 1.391 . S
C238 H228 0.950 . S
C238 C239 1.386 . S
C238 C240 1.391 . S
C239 C238 1.386 . S
C239 C243 1.393 . S
C240 H229 0.950 . S
C240 C238 1.391 . S
C240 C241 1.400 . S
C241 C235 1.491 . S
C241 C240 1.400 . S
C241 C242 1.398 . S
C242 H230 0.950 . S
C242 C241 1.398 . S
C242 C243 1.391 . S
C243 H231 0.950 . S
C243 C239 1.393 . S
C243 C242 1.391 . S
H244 C252 0.950 . S
H245 C257 0.950 . S
H246 C254 0.950 . S
H247 C256 0.950 . S
H248 C258 0.950 . S
H249 C260 0.950 . S
H250 C262 0.950 . S
H251 C263 0.950 . S
C252 H244 0.950 . S
C252 C253 1.386 . S
C252 C254 1.391 . S
C253 C252 1.386 . S
C253 C257 1.393 . S
C254 H246 0.950 . S
C254 C252 1.391 . S
C254 C255 1.400 . S
C255 C254 1.400 . S
C255 C256 1.398 . S
C255 C261 1.491 . S
C256 H247 0.950 . S
C256 C255 1.398 . S
C256 C257 1.391 . S
C257 H245 0.950 . S
C257 C253 1.393 . S
C257 C256 1.391 . S
C258 H248 0.950 . S
C258 C259 1.386 . S
C258 C260 1.391 . S
C259 C258 1.386 . S
C259 C263 1.393 . S
C260 H249 0.950 . S
C260 C258 1.391 . S
C260 C261 1.400 . S
C261 C255 1.491 . S
C261 C260 1.400 . S
C261 C262 1.398 . S
C262 H250 0.950 . S
C262 C261 1.398 . S
C262 C263 1.391 . S
C263 H251 0.950 . S
C263 C259 1.393 . S
C263 C262 1.391 . S
H264 C272 0.950 . S
H265 C277 0.950 . S
H266 C274 0.950 . S
H267 C276 0.950 . S
H268 C278 0.950 . S
H269 C280 0.950 . S
H270 C282 0.950 . S
H271 C283 0.950 . S
C272 H264 0.950 . S
C272 C273 1.386 . S
C272 C274 1.391 . S
C273 C272 1.386 . S
C273 C277 1.393 . S
C274 H266 0.950 . S
C274 C272 1.391 . S
C274 C275 1.400 . S
C275 C274 1.400 . S
C275 C276 1.398 . S
C275 C281 1.491 . S
C276 H267 0.950 . S
C276 C275 1.398 . S
C276 C277 1.391 . S
C277 H265 0.950 . S
C277 C273 1.393 . S
C277 C276 1.391 . S
C278 H268 0.950 . S
C278 C279 1.386 . S
C278 C280 1.391 . S
C279 C278 1.386 . S
C279 C283 1.393 . S
C280 H269 0.950 . S
C280 C278 1.391 . S
C280 C281 1.400 . S
C281 C275 1.491 . S
C281 C280 1.400 . S
C281 C282 1.398 . S
C282 H270 0.950 . S
C282 C281 1.398 . S
C282 C283 1.391 . S
C283 H271 0.950 . S
C283 C279 1.393 . S
C283 C282 1.391 . S
H284 C292 0.950 . S
H285 C297 0.950 . S
H286 C294 0.950 . S
H287 C296 0.950 . S
H288 C298 0.950 . S
H289 C300 0.950 . S
H290 C302 0.950 1_554 S
H291 C303 0.950 . S
C292 H284 0.950 . S
C292 C293 1.386 . S
C292 C294 1.391 . S
C293 C292 1.386 . S
C293 C297 1.393 . S
C294 H286 0.950 . S
C294 C292 1.391 . S
C294 C295 1.400 . S
C295 C294 1.400 . S
C295 C296 1.398 . S
C295 C301 1.491 . S
C296 H287 0.950 . S
C296 C295 1.398 . S
C296 C297 1.391 . S
C297 H285 0.950 . S
C297 C293 1.393 . S
C297 C296 1.391 . S
C298 H288 0.950 . S
C298 C299 1.396 . S
C298 C300 1.391 . S
C299 C298 1.396 . S
C299 C303 1.388 1_556 S
C300 H289 0.950 . S
C300 C298 1.391 . S
C300 C301 1.400 . S
C301 C295 1.491 . S
C301 C300 1.400 . S
C301 C302 1.398 . S
C302 H290 0.950 1_556 S
C302 C301 1.398 . S
C302 C303 1.391 1_556 S
C303 H291 0.950 . S
C303 C299 1.388 1_554 S
C303 C302 1.391 1_554 S
H304 C312 0.950 . S
H305 C317 0.950 . S
H306 C314 0.950 1_556 S
H307 C316 0.950 . S
H308 C318 0.950 . S
H309 C320 0.950 . S
H310 C322 0.950 . S
H311 C323 0.950 . S
C312 H304 0.950 . S
C312 C313 1.386 . S
C312 C314 1.391 1_556 S
C313 C312 1.386 . S
C313 C317 1.393 1_556 S
C314 H306 0.950 1_554 S
C314 C312 1.391 1_554 S
C314 C315 1.400 . S
C315 C314 1.400 . S
C315 C316 1.398 . S
C315 C321 1.491 . S
C316 H307 0.950 . S
C316 C315 1.398 . S
C316 C317 1.391 . S
C317 H305 0.950 . S
C317 C313 1.393 1_554 S
C317 C316 1.391 . S
C318 H308 0.950 . S
C318 C319 1.386 . S
C318 C320 1.391 . S
C319 C318 1.386 . S
C319 C323 1.393 . S
C320 H309 0.950 . S
C320 C318 1.391 . S
C320 C321 1.400 . S
C321 C315 1.491 . S
C321 C320 1.400 . S
C321 C322 1.398 . S
C322 H310 0.950 . S
C322 C321 1.398 . S
C322 C323 1.391 . S
C323 H311 0.950 . S
C323 C319 1.393 . S
C323 C322 1.391 . S
C93 C9 1.284 . S
C99 C53 1.302 . S
C113 C67 1.300 . S
C119 C23 1.275 . S
C133 C37 1.290 . S
C139 C81 1.301 . S
C153 C51 1.273 . S
C159 C11 1.301 . S
C173 C25 1.300 . S
C179 C65 1.291 . S
C193 C79 1.284 . S
C199 C39 1.299 . S
C213 C0 1.264 . S
C219 C33 1.251 . S
C233 C14 1.261 . S
C239 C47 1.255 . S
C253 C61 1.261 . S
C259 C28 1.250 . S
C273 C75 1.250 . S
C279 C42 1.262 . S
C293 C56 1.263 . S
C299 C5 1.245 1_556 S
C313 C70 1.250 . S
C319 C19 1.264 . S
