# Generated by pormake.
# Topology fno, (5)-cn, num edge types: 1
# Building blocks:
#     Node 0, Type 0, BuildingBlock: XOMCOT_clean_sbu_1, # of connection points: 5
#     Node 1, Type 0, BuildingBlock: XOMCOT_clean_sbu_1, # of connection points: 5
#     Node 2, Type 0, BuildingBlock: XOMCOT_clean_sbu_1, # of connection points: 5
#     Node 3, Type 0, BuildingBlock: XOMCOT_clean_sbu_1, # of connection points: 5
#     Node 4, Type 0, BuildingBlock: XOMCOT_clean_sbu_1, # of connection points: 5
#     Node 5, Type 0, BuildingBlock: XOMCOT_clean_sbu_1, # of connection points: 5
#     Node 6, Type 0, BuildingBlock: XOMCOT_clean_sbu_1, # of connection points: 5
#     Node 7, Type 0, BuildingBlock: XOMCOT_clean_sbu_1, # of connection points: 5
#     Node 8, Type 0, BuildingBlock: XOMCOT_clean_sbu_1, # of connection points: 5
#     Node 9, Type 0, BuildingBlock: XOMCOT_clean_sbu_1, # of connection points: 5
#     Node 10, Type 0, BuildingBlock: XOMCOT_clean_sbu_1, # of connection points: 5
#     Node 11, Type 0, BuildingBlock: XOMCOT_clean_sbu_1, # of connection points: 5
#     Node 12, Type 0, BuildingBlock: XOMCOT_clean_sbu_1, # of connection points: 5
#     Node 13, Type 0, BuildingBlock: XOMCOT_clean_sbu_1, # of connection points: 5
#     Node 14, Type 0, BuildingBlock: XOMCOT_clean_sbu_1, # of connection points: 5
#     Node 15, Type 0, BuildingBlock: XOMCOT_clean_sbu_1, # of connection points: 5
#     Node 16, Type 0, BuildingBlock: XOMCOT_clean_sbu_1, # of connection points: 5
#     Node 17, Type 0, BuildingBlock: XOMCOT_clean_sbu_1, # of connection points: 5
#     Node 18, Type 0, BuildingBlock: XOMCOT_clean_sbu_1, # of connection points: 5
#     Node 19, Type 0, BuildingBlock: XOMCOT_clean_sbu_1, # of connection points: 5
#     Node 20, Type 0, BuildingBlock: XOMCOT_clean_sbu_1, # of connection points: 5
#     Node 21, Type 0, BuildingBlock: XOMCOT_clean_sbu_1, # of connection points: 5
#     Node 22, Type 0, BuildingBlock: XOMCOT_clean_sbu_1, # of connection points: 5
#     Node 23, Type 0, BuildingBlock: XOMCOT_clean_sbu_1, # of connection points: 5
#     Node 24, Type 0, BuildingBlock: XOMCOT_clean_sbu_1, # of connection points: 5
#     Node 25, Type 0, BuildingBlock: XOMCOT_clean_sbu_1, # of connection points: 5
#     Node 26, Type 0, BuildingBlock: XOMCOT_clean_sbu_1, # of connection points: 5
#     Node 27, Type 0, BuildingBlock: XOMCOT_clean_sbu_1, # of connection points: 5
#     Node 28, Type 0, BuildingBlock: XOMCOT_clean_sbu_1, # of connection points: 5
#     Node 29, Type 0, BuildingBlock: XOMCOT_clean_sbu_1, # of connection points: 5
#     Node 30, Type 0, BuildingBlock: XOMCOT_clean_sbu_1, # of connection points: 5
#     Node 31, Type 0, BuildingBlock: XOMCOT_clean_sbu_1, # of connection points: 5
#     Node 32, Type 0, BuildingBlock: XOMCOT_clean_sbu_1, # of connection points: 5
#     Node 33, Type 0, BuildingBlock: XOMCOT_clean_sbu_1, # of connection points: 5
#     Node 34, Type 0, BuildingBlock: XOMCOT_clean_sbu_1, # of connection points: 5
#     Node 35, Type 0, BuildingBlock: XOMCOT_clean_sbu_1, # of connection points: 5
#     Node 36, Type 0, BuildingBlock: XOMCOT_clean_sbu_1, # of connection points: 5
#     Node 37, Type 0, BuildingBlock: XOMCOT_clean_sbu_1, # of connection points: 5
#     Node 38, Type 0, BuildingBlock: XOMCOT_clean_sbu_1, # of connection points: 5
#     Node 39, Type 0, BuildingBlock: XOMCOT_clean_sbu_1, # of connection points: 5
#     Node 40, Type 0, BuildingBlock: XOMCOT_clean_sbu_1, # of connection points: 5
#     Node 41, Type 0, BuildingBlock: XOMCOT_clean_sbu_1, # of connection points: 5
#     Node 42, Type 0, BuildingBlock: XOMCOT_clean_sbu_1, # of connection points: 5
#     Node 43, Type 0, BuildingBlock: XOMCOT_clean_sbu_1, # of connection points: 5
#     Node 44, Type 0, BuildingBlock: XOMCOT_clean_sbu_1, # of connection points: 5
#     Node 45, Type 0, BuildingBlock: XOMCOT_clean_sbu_1, # of connection points: 5
#     Node 46, Type 0, BuildingBlock: XOMCOT_clean_sbu_1, # of connection points: 5
#     Node 47, Type 0, BuildingBlock: XOMCOT_clean_sbu_1, # of connection points: 5
#     Edge 48, Type (0, 0), BuildingBlock: CIFDUS_clean_linker_0, # of connection points: 2
#     Edge 49, Type (0, 0), BuildingBlock: CIFDUS_clean_linker_0, # of connection points: 2
#     Edge 50, Type (0, 0), BuildingBlock: CIFDUS_clean_linker_0, # of connection points: 2
#     Edge 51, Type (0, 0), BuildingBlock: CIFDUS_clean_linker_0, # of connection points: 2
#     Edge 52, Type (0, 0), BuildingBlock: CIFDUS_clean_linker_0, # of connection points: 2
#     Edge 53, Type (0, 0), BuildingBlock: CIFDUS_clean_linker_0, # of connection points: 2
#     Edge 54, Type (0, 0), BuildingBlock: CIFDUS_clean_linker_0, # of connection points: 2
#     Edge 55, Type (0, 0), BuildingBlock: CIFDUS_clean_linker_0, # of connection points: 2
#     Edge 56, Type (0, 0), BuildingBlock: CIFDUS_clean_linker_0, # of connection points: 2
#     Edge 57, Type (0, 0), BuildingBlock: CIFDUS_clean_linker_0, # of connection points: 2
#     Edge 58, Type (0, 0), BuildingBlock: CIFDUS_clean_linker_0, # of connection points: 2
#     Edge 59, Type (0, 0), BuildingBlock: CIFDUS_clean_linker_0, # of connection points: 2
#     Edge 60, Type (0, 0), BuildingBlock: CIFDUS_clean_linker_0, # of connection points: 2
#     Edge 61, Type (0, 0), BuildingBlock: CIFDUS_clean_linker_0, # of connection points: 2
#     Edge 62, Type (0, 0), BuildingBlock: CIFDUS_clean_linker_0, # of connection points: 2
#     Edge 63, Type (0, 0), BuildingBlock: CIFDUS_clean_linker_0, # of connection points: 2
#     Edge 64, Type (0, 0), BuildingBlock: CIFDUS_clean_linker_0, # of connection points: 2
#     Edge 65, Type (0, 0), BuildingBlock: CIFDUS_clean_linker_0, # of connection points: 2
#     Edge 66, Type (0, 0), BuildingBlock: CIFDUS_clean_linker_0, # of connection points: 2
#     Edge 67, Type (0, 0), BuildingBlock: CIFDUS_clean_linker_0, # of connection points: 2
#     Edge 68, Type (0, 0), BuildingBlock: CIFDUS_clean_linker_0, # of connection points: 2
#     Edge 69, Type (0, 0), BuildingBlock: CIFDUS_clean_linker_0, # of connection points: 2
#     Edge 70, Type (0, 0), BuildingBlock: CIFDUS_clean_linker_0, # of connection points: 2
#     Edge 71, Type (0, 0), BuildingBlock: CIFDUS_clean_linker_0, # of connection points: 2
#     Edge 72, Type (0, 0), BuildingBlock: CIFDUS_clean_linker_0, # of connection points: 2
#     Edge 73, Type (0, 0), BuildingBlock: CIFDUS_clean_linker_0, # of connection points: 2
#     Edge 74, Type (0, 0), BuildingBlock: CIFDUS_clean_linker_0, # of connection points: 2
#     Edge 75, Type (0, 0), BuildingBlock: CIFDUS_clean_linker_0, # of connection points: 2
#     Edge 76, Type (0, 0), BuildingBlock: CIFDUS_clean_linker_0, # of connection points: 2
#     Edge 77, Type (0, 0), BuildingBlock: CIFDUS_clean_linker_0, # of connection points: 2
#     Edge 78, Type (0, 0), BuildingBlock: CIFDUS_clean_linker_0, # of connection points: 2
#     Edge 79, Type (0, 0), BuildingBlock: CIFDUS_clean_linker_0, # of connection points: 2
#     Edge 80, Type (0, 0), BuildingBlock: CIFDUS_clean_linker_0, # of connection points: 2
#     Edge 81, Type (0, 0), BuildingBlock: CIFDUS_clean_linker_0, # of connection points: 2
#     Edge 82, Type (0, 0), BuildingBlock: CIFDUS_clean_linker_0, # of connection points: 2
#     Edge 83, Type (0, 0), BuildingBlock: CIFDUS_clean_linker_0, # of connection points: 2
#     Edge 84, Type (0, 0), BuildingBlock: CIFDUS_clean_linker_0, # of connection points: 2
#     Edge 85, Type (0, 0), BuildingBlock: CIFDUS_clean_linker_0, # of connection points: 2
#     Edge 86, Type (0, 0), BuildingBlock: CIFDUS_clean_linker_0, # of connection points: 2
#     Edge 87, Type (0, 0), BuildingBlock: CIFDUS_clean_linker_0, # of connection points: 2
#     Edge 88, Type (0, 0), BuildingBlock: CIFDUS_clean_linker_0, # of connection points: 2
#     Edge 89, Type (0, 0), BuildingBlock: CIFDUS_clean_linker_0, # of connection points: 2
#     Edge 90, Type (0, 0), BuildingBlock: CIFDUS_clean_linker_0, # of connection points: 2
#     Edge 91, Type (0, 0), BuildingBlock: CIFDUS_clean_linker_0, # of connection points: 2
#     Edge 92, Type (0, 0), BuildingBlock: CIFDUS_clean_linker_0, # of connection points: 2
#     Edge 93, Type (0, 0), BuildingBlock: CIFDUS_clean_linker_0, # of connection points: 2
#     Edge 94, Type (0, 0), BuildingBlock: CIFDUS_clean_linker_0, # of connection points: 2
#     Edge 95, Type (0, 0), BuildingBlock: CIFDUS_clean_linker_0, # of connection points: 2
#     Edge 96, Type (0, 0), BuildingBlock: CIFDUS_clean_linker_0, # of connection points: 2
#     Edge 97, Type (0, 0), BuildingBlock: CIFDUS_clean_linker_0, # of connection points: 2
#     Edge 98, Type (0, 0), BuildingBlock: CIFDUS_clean_linker_0, # of connection points: 2
#     Edge 99, Type (0, 0), BuildingBlock: CIFDUS_clean_linker_0, # of connection points: 2
#     Edge 100, Type (0, 0), BuildingBlock: CIFDUS_clean_linker_0, # of connection points: 2
#     Edge 101, Type (0, 0), BuildingBlock: CIFDUS_clean_linker_0, # of connection points: 2
#     Edge 102, Type (0, 0), BuildingBlock: CIFDUS_clean_linker_0, # of connection points: 2
#     Edge 103, Type (0, 0), BuildingBlock: CIFDUS_clean_linker_0, # of connection points: 2
#     Edge 104, Type (0, 0), BuildingBlock: CIFDUS_clean_linker_0, # of connection points: 2
#     Edge 105, Type (0, 0), BuildingBlock: CIFDUS_clean_linker_0, # of connection points: 2
#     Edge 106, Type (0, 0), BuildingBlock: CIFDUS_clean_linker_0, # of connection points: 2
#     Edge 107, Type (0, 0), BuildingBlock: CIFDUS_clean_linker_0, # of connection points: 2
#     Edge 108, Type (0, 0), BuildingBlock: CIFDUS_clean_linker_0, # of connection points: 2
#     Edge 109, Type (0, 0), BuildingBlock: CIFDUS_clean_linker_0, # of connection points: 2
#     Edge 110, Type (0, 0), BuildingBlock: CIFDUS_clean_linker_0, # of connection points: 2
#     Edge 111, Type (0, 0), BuildingBlock: CIFDUS_clean_linker_0, # of connection points: 2
#     Edge 112, Type (0, 0), BuildingBlock: CIFDUS_clean_linker_0, # of connection points: 2
#     Edge 113, Type (0, 0), BuildingBlock: CIFDUS_clean_linker_0, # of connection points: 2
#     Edge 114, Type (0, 0), BuildingBlock: CIFDUS_clean_linker_0, # of connection points: 2
#     Edge 115, Type (0, 0), BuildingBlock: CIFDUS_clean_linker_0, # of connection points: 2
#     Edge 116, Type (0, 0), BuildingBlock: CIFDUS_clean_linker_0, # of connection points: 2
#     Edge 117, Type (0, 0), BuildingBlock: CIFDUS_clean_linker_0, # of connection points: 2
#     Edge 118, Type (0, 0), BuildingBlock: CIFDUS_clean_linker_0, # of connection points: 2
#     Edge 119, Type (0, 0), BuildingBlock: CIFDUS_clean_linker_0, # of connection points: 2
#     Edge 120, Type (0, 0), BuildingBlock: CIFDUS_clean_linker_0, # of connection points: 2
#     Edge 121, Type (0, 0), BuildingBlock: CIFDUS_clean_linker_0, # of connection points: 2
#     Edge 122, Type (0, 0), BuildingBlock: CIFDUS_clean_linker_0, # of connection points: 2
#     Edge 123, Type (0, 0), BuildingBlock: CIFDUS_clean_linker_0, # of connection points: 2
#     Edge 124, Type (0, 0), BuildingBlock: CIFDUS_clean_linker_0, # of connection points: 2
#     Edge 125, Type (0, 0), BuildingBlock: CIFDUS_clean_linker_0, # of connection points: 2
#     Edge 126, Type (0, 0), BuildingBlock: CIFDUS_clean_linker_0, # of connection points: 2
#     Edge 127, Type (0, 0), BuildingBlock: CIFDUS_clean_linker_0, # of connection points: 2
#     Edge 128, Type (0, 0), BuildingBlock: CIFDUS_clean_linker_0, # of connection points: 2
#     Edge 129, Type (0, 0), BuildingBlock: CIFDUS_clean_linker_0, # of connection points: 2
#     Edge 130, Type (0, 0), BuildingBlock: CIFDUS_clean_linker_0, # of connection points: 2
#     Edge 131, Type (0, 0), BuildingBlock: CIFDUS_clean_linker_0, # of connection points: 2
#     Edge 132, Type (0, 0), BuildingBlock: CIFDUS_clean_linker_0, # of connection points: 2
#     Edge 133, Type (0, 0), BuildingBlock: CIFDUS_clean_linker_0, # of connection points: 2
#     Edge 134, Type (0, 0), BuildingBlock: CIFDUS_clean_linker_0, # of connection points: 2
#     Edge 135, Type (0, 0), BuildingBlock: CIFDUS_clean_linker_0, # of connection points: 2
#     Edge 136, Type (0, 0), BuildingBlock: CIFDUS_clean_linker_0, # of connection points: 2
#     Edge 137, Type (0, 0), BuildingBlock: CIFDUS_clean_linker_0, # of connection points: 2
#     Edge 138, Type (0, 0), BuildingBlock: CIFDUS_clean_linker_0, # of connection points: 2
#     Edge 139, Type (0, 0), BuildingBlock: CIFDUS_clean_linker_0, # of connection points: 2
#     Edge 140, Type (0, 0), BuildingBlock: CIFDUS_clean_linker_0, # of connection points: 2
#     Edge 141, Type (0, 0), BuildingBlock: CIFDUS_clean_linker_0, # of connection points: 2
#     Edge 142, Type (0, 0), BuildingBlock: CIFDUS_clean_linker_0, # of connection points: 2
#     Edge 143, Type (0, 0), BuildingBlock: CIFDUS_clean_linker_0, # of connection points: 2
#     Edge 144, Type (0, 0), BuildingBlock: CIFDUS_clean_linker_0, # of connection points: 2
#     Edge 145, Type (0, 0), BuildingBlock: CIFDUS_clean_linker_0, # of connection points: 2
#     Edge 146, Type (0, 0), BuildingBlock: CIFDUS_clean_linker_0, # of connection points: 2
#     Edge 147, Type (0, 0), BuildingBlock: CIFDUS_clean_linker_0, # of connection points: 2
#     Edge 148, Type (0, 0), BuildingBlock: CIFDUS_clean_linker_0, # of connection points: 2
#     Edge 149, Type (0, 0), BuildingBlock: CIFDUS_clean_linker_0, # of connection points: 2
#     Edge 150, Type (0, 0), BuildingBlock: CIFDUS_clean_linker_0, # of connection points: 2
#     Edge 151, Type (0, 0), BuildingBlock: CIFDUS_clean_linker_0, # of connection points: 2
#     Edge 152, Type (0, 0), BuildingBlock: CIFDUS_clean_linker_0, # of connection points: 2
#     Edge 153, Type (0, 0), BuildingBlock: CIFDUS_clean_linker_0, # of connection points: 2
#     Edge 154, Type (0, 0), BuildingBlock: CIFDUS_clean_linker_0, # of connection points: 2
#     Edge 155, Type (0, 0), BuildingBlock: CIFDUS_clean_linker_0, # of connection points: 2
#     Edge 156, Type (0, 0), BuildingBlock: CIFDUS_clean_linker_0, # of connection points: 2
#     Edge 157, Type (0, 0), BuildingBlock: CIFDUS_clean_linker_0, # of connection points: 2
#     Edge 158, Type (0, 0), BuildingBlock: CIFDUS_clean_linker_0, # of connection points: 2
#     Edge 159, Type (0, 0), BuildingBlock: CIFDUS_clean_linker_0, # of connection points: 2
#     Edge 160, Type (0, 0), BuildingBlock: CIFDUS_clean_linker_0, # of connection points: 2
#     Edge 161, Type (0, 0), BuildingBlock: CIFDUS_clean_linker_0, # of connection points: 2
#     Edge 162, Type (0, 0), BuildingBlock: CIFDUS_clean_linker_0, # of connection points: 2
#     Edge 163, Type (0, 0), BuildingBlock: CIFDUS_clean_linker_0, # of connection points: 2
#     Edge 164, Type (0, 0), BuildingBlock: CIFDUS_clean_linker_0, # of connection points: 2
#     Edge 165, Type (0, 0), BuildingBlock: CIFDUS_clean_linker_0, # of connection points: 2
#     Edge 166, Type (0, 0), BuildingBlock: CIFDUS_clean_linker_0, # of connection points: 2
#     Edge 167, Type (0, 0), BuildingBlock: CIFDUS_clean_linker_0, # of connection points: 2
# Relax obj value: 0.392
# Max RMSD: 0.272
# Mean RMSD: 0.181
data_MOF--net-fno--node1-XOMCOT_clean_sbu_1--edge1-CIFDUS_clean_linker_0
_symmetry_space_group_name_H-M    P1
_symmetry_Int_Tables_number       1
_symmetry_cell_setting            triclinic
loop_
_symmetry_equiv_pos_as_xyz
'x, y, z'
_cell_length_a     51.965453
_cell_length_b     50.786203
_cell_length_c     51.408855
_cell_angle_alpha  91.907854
_cell_angle_beta   90.765208
_cell_angle_gamma 93.473235
loop_
_atom_site_label
_atom_site_type_symbol
_atom_site_fract_x
_atom_site_fract_y
_atom_site_fract_z
_atom_type_partial_charge
C0 C 0.12361 0.32152 0.07175 0.0
C1 C 0.13169 0.32297 0.04647 0.0
N2 N 0.12614 0.34672 0.03772 0.0
N3 N 0.1134 0.34438 0.07878 0.0
C4 C 0.11424 0.3589 0.05737 0.0
H5 H 0.12749 0.30609 0.085 0.0
Co6 Co 0.10901 0.35502 0.11277 0.0
C7 C 0.11665 0.41409 0.11548 0.0
O8 O 0.12935 0.4113 0.13738 0.0
N9 N 0.10348 0.36473 0.14729 0.0
C10 C 0.08512 0.38295 0.18165 0.0
C11 C 0.08494 0.38068 0.15504 0.0
C12 C 0.11362 0.35642 0.1696 0.0
N13 N 0.10329 0.3677 0.19071 0.0
O14 O 0.07211 0.34669 0.10907 0.0
H15 H 0.07222 0.3903 0.14207 0.0
H16 H 0.1275 0.34169 0.17076 0.0
O17 O 0.10649 0.39342 0.10302 0.0
C18 C 0.06753 0.32319 0.11673 0.0
O19 O 0.08721 0.30983 0.12372 0.0
N20 N 0.14585 0.36049 0.11637 0.0
C21 C 0.19919 0.37056 0.12254 0.0
C22 C 0.18527 0.38353 0.10391 0.0
C23 C 0.15892 0.37769 0.1007 0.0
C24 C 0.15974 0.34462 0.13146 0.0
C25 C 0.18639 0.34986 0.13556 0.0
H26 H 0.14908 0.38702 0.0854 0.0
H27 H 0.15037 0.32756 0.14005 0.0
H28 H 0.10967 0.37939 0.05722 0.0
H29 H 0.14296 0.3088 0.03623 0.0
H30 H 0.07316 0.39532 0.19329 0.0
H31 H 0.19469 0.39813 0.09177 0.0
H32 H 0.19669 0.33808 0.14893 0.0
C33 C 0.9447 0.84799 0.31919 0.0
C34 C 0.93823 0.8474 0.29305 0.0
N35 N 0.91285 0.8405 0.29023 0.0
N36 N 0.92358 0.84143 0.33301 0.0
C37 C 0.90454 0.83657 0.31473 0.0
H38 H 0.96342 0.85381 0.3277 0.0
Co39 Co 0.9225 0.84314 0.36985 0.0
C40 C 0.86689 0.84582 0.38242 0.0
O41 O 0.87435 0.8604 0.40302 0.0
N42 N 0.9214 0.84435 0.40789 0.0
C43 C 0.91131 0.8295 0.44715 0.0
C44 C 0.91158 0.82347 0.42092 0.0
C45 C 0.92715 0.86293 0.42738 0.0
N46 N 0.92094 0.85455 0.4515 0.0
O47 O 0.93009 0.80546 0.36993 0.0
H48 H 0.90403 0.80507 0.4118 0.0
H49 H 0.93489 0.8826 0.42429 0.0
O50 O 0.88398 0.83566 0.36792 0.0
C51 C 0.95149 0.79947 0.38034 0.0
O52 O 0.96587 0.81812 0.39277 0.0
N53 N 0.91808 0.87973 0.36818 0.0
C54 C 0.90981 0.93313 0.36881 0.0
C55 C 0.89357 0.91525 0.35426 0.0
C56 C 0.89827 0.88872 0.35394 0.0
C57 C 0.93661 0.89742 0.37842 0.0
C58 C 0.93219 0.92435 0.38029 0.0
H59 H 0.88558 0.87546 0.34254 0.0
H60 H 0.95418 0.89046 0.3865 0.0
H61 H 0.8848 0.83081 0.31919 0.0
H62 H 0.95105 0.85276 0.2774 0.0
H63 H 0.90389 0.81625 0.46164 0.0
H64 H 0.87646 0.92145 0.34448 0.0
H65 H 0.9456 0.93794 0.39102 0.0
C66 C 0.45677 0.66368 0.68368 0.0
C67 C 0.45189 0.66432 0.70994 0.0
N68 N 0.43033 0.67742 0.71421 0.0
N69 N 0.43825 0.67604 0.67129 0.0
C70 C 0.42425 0.68645 0.69054 0.0
H71 H 0.47071 0.65193 0.67402 0.0
Co72 Co 0.42884 0.67044 0.63602 0.0
C73 C 0.37222 0.66839 0.65816 0.0
O74 O 0.37721 0.66046 0.68157 0.0
N75 N 0.41902 0.66511 0.60051 0.0
C76 C 0.39469 0.64829 0.56739 0.0
C77 C 0.39765 0.64975 0.59368 0.0
C78 C 0.429 0.67261 0.57742 0.0
N79 N 0.4142 0.66274 0.55706 0.0
O80 O 0.43478 0.70782 0.63168 0.0
H81 H 0.38544 0.63898 0.60704 0.0
H82 H 0.44653 0.68494 0.57548 0.0
O83 O 0.39066 0.67337 0.64224 0.0
C84 C 0.45831 0.71257 0.62553 0.0
O85 O 0.47251 0.69243 0.62103 0.0
N86 N 0.42559 0.63322 0.64029 0.0
C87 C 0.40505 0.58196 0.63604 0.0
C88 C 0.40266 0.59673 0.6592 0.0
C89 C 0.41348 0.62232 0.66106 0.0
C90 C 0.43372 0.61691 0.62074 0.0
C91 C 0.42273 0.59117 0.6176 0.0
H92 H 0.41098 0.63346 0.67876 0.0
H93 H 0.44592 0.62479 0.60561 0.0
H94 H 0.40782 0.69782 0.68673 0.0
H95 H 0.4619 0.65331 0.72414 0.0
H96 H 0.37966 0.6368 0.55654 0.0
H97 H 0.39091 0.58931 0.67494 0.0
H98 H 0.42616 0.57976 0.59995 0.0
C99 C 0.60644 0.18708 0.92427 0.0
C100 C 0.61327 0.18387 0.94987 0.0
N101 N 0.60876 0.15828 0.95533 0.0
N102 N 0.598 0.16354 0.91347 0.0
C103 C 0.59937 0.14641 0.93305 0.0
H104 H 0.60967 0.20495 0.91362 0.0
Co105 Co 0.59356 0.15678 0.87763 0.0
C106 C 0.59661 0.09849 0.8709 0.0
O107 O 0.6088 0.10353 0.84923 0.0
N108 N 0.58851 0.15001 0.84115 0.0
C109 C 0.5688 0.13323 0.80498 0.0
C110 C 0.56716 0.13638 0.83152 0.0
C111 C 0.60265 0.15532 0.81967 0.0
N112 N 0.59121 0.14509 0.79745 0.0
O113 O 0.55702 0.16515 0.88012 0.0
H114 H 0.55158 0.12845 0.84323 0.0
H115 H 0.6209 0.16652 0.8199 0.0
O116 O 0.58709 0.11773 0.88382 0.0
C117 C 0.5561 0.19007 0.87685 0.0
O118 O 0.57789 0.20365 0.87265 0.0
N119 N 0.62956 0.15306 0.87565 0.0
C120 C 0.68308 0.15278 0.8718 0.0
C121 C 0.66932 0.13381 0.88617 0.0
C122 C 0.64268 0.13464 0.88834 0.0
C123 C 0.64304 0.17342 0.86435 0.0
C124 C 0.66974 0.17322 0.86133 0.0
H125 H 0.63287 0.1205 0.90049 0.0
H126 H 0.63291 0.18978 0.85722 0.0
H127 H 0.59623 0.12524 0.93051 0.0
H128 H 0.62293 0.19867 0.96283 0.0
H129 H 0.55476 0.1224 0.79236 0.0
H130 H 0.67896 0.11812 0.8953 0.0
H131 H 0.67983 0.18893 0.8511 0.0
C132 C 0.11398 0.69435 0.42661 0.0
C133 C 0.11917 0.69293 0.45284 0.0
N134 N 0.11 0.66918 0.46107 0.0
N135 N 0.10163 0.67164 0.41801 0.0
C136 C 0.09885 0.65706 0.4395 0.0
H137 H 0.12034 0.7102 0.41422 0.0
Co138 Co 0.09666 0.66161 0.38282 0.0
C139 C 0.09771 0.60199 0.38196 0.0
O140 O 0.10787 0.60293 0.35872 0.0
N141 N 0.0916 0.65151 0.34637 0.0
C142 C 0.07383 0.63065 0.31098 0.0
C143 C 0.07081 0.63668 0.33706 0.0
C144 C 0.10648 0.65503 0.32489 0.0
N145 N 0.09628 0.64227 0.30332 0.0
O146 O 0.06004 0.66939 0.38572 0.0
H147 H 0.05501 0.62945 0.34887 0.0
H148 H 0.12503 0.66557 0.3247 0.0
O149 O 0.09061 0.62348 0.39299 0.0
C150 C 0.05209 0.68835 0.37238 0.0
O151 O 0.06755 0.69901 0.3551 0.0
N152 N 0.13227 0.65764 0.38078 0.0
C153 C 0.18308 0.65037 0.36897 0.0
C154 C 0.17037 0.63448 0.38712 0.0
C155 C 0.14505 0.63902 0.3934 0.0
C156 C 0.14599 0.67655 0.36768 0.0
C157 C 0.17142 0.67285 0.36069 0.0
H158 H 0.13569 0.62702 0.40779 0.0
H159 H 0.1364 0.69328 0.36057 0.0
H160 H 0.08969 0.63749 0.43904 0.0
H161 H 0.13015 0.70794 0.46438 0.0
H162 H 0.06097 0.61781 0.2988 0.0
H163 H 0.17953 0.61806 0.3955 0.0
H164 H 0.18106 0.68632 0.34754 0.0
C165 C 0.6211 0.82527 0.57356 0.0
C166 C 0.62934 0.8253 0.54829 0.0
N167 N 0.62528 0.84909 0.53871 0.0
N168 N 0.61226 0.84902 0.57977 0.0
C169 C 0.61414 0.86276 0.55791 0.0
H170 H 0.6238 0.81 0.58735 0.0
Co171 Co 0.60827 0.86036 0.6135 0.0
C172 C 0.61077 0.9189 0.61502 0.0
O173 O 0.62521 0.91732 0.63602 0.0
N174 N 0.60352 0.87066 0.64832 0.0
C175 C 0.5839 0.88565 0.68359 0.0
C176 C 0.58256 0.88269 0.65696 0.0
C177 C 0.6171 0.86628 0.67016 0.0
N178 N 0.60577 0.87548 0.69158 0.0
O179 O 0.5721 0.84838 0.61091 0.0
H180 H 0.56707 0.88862 0.64462 0.0
H181 H 0.63423 0.85552 0.67109 0.0
O182 O 0.60129 0.89755 0.60321 0.0
C183 C 0.56693 0.82702 0.62279 0.0
O184 O 0.58554 0.81674 0.63587 0.0
N185 N 0.64444 0.8695 0.61523 0.0
C186 C 0.69622 0.88563 0.62219 0.0
C187 C 0.68116 0.89707 0.60344 0.0
C188 C 0.65556 0.88834 0.59986 0.0
C189 C 0.66007 0.85467 0.62956 0.0
C190 C 0.68599 0.86301 0.63424 0.0
H191 H 0.64465 0.89772 0.58527 0.0
H192 H 0.65226 0.83678 0.63807 0.0
H193 H 0.61061 0.88349 0.55703 0.0
H194 H 0.63958 0.80998 0.53853 0.0
H195 H 0.56991 0.89435 0.69613 0.0
H196 H 0.68892 0.91315 0.592 0.0
H197 H 0.69751 0.85243 0.6476 0.0
C198 C 0.44178 0.35224 0.80879 0.0
C199 C 0.43201 0.35158 0.78361 0.0
N200 N 0.40886 0.33803 0.78304 0.0
N201 N 0.42491 0.33932 0.82428 0.0
C202 C 0.4054 0.3303 0.80784 0.0
H203 H 0.45904 0.36339 0.81577 0.0
Co204 Co 0.42515 0.34336 0.8612 0.0
C205 C 0.36472 0.32501 0.86314 0.0
O206 O 0.35445 0.30078 0.86349 0.0
N207 N 0.42479 0.3474 0.8992 0.0
C208 C 0.42349 0.3354 0.9409 0.0
C209 C 0.42375 0.32667 0.91521 0.0
C210 C 0.42409 0.36856 0.91628 0.0
N211 N 0.42395 0.36183 0.94149 0.0
O212 O 0.43901 0.30795 0.86423 0.0
H213 H 0.42234 0.30616 0.90877 0.0
H214 H 0.42272 0.38872 0.91105 0.0
O215 O 0.38939 0.32838 0.86263 0.0
C216 C 0.46332 0.30963 0.86907 0.0
O217 O 0.47496 0.33336 0.87008 0.0
N218 N 0.41486 0.3778 0.85731 0.0
C219 C 0.39915 0.42896 0.85885 0.0
C220 C 0.38524 0.40905 0.844 0.0
C221 C 0.39347 0.38352 0.84356 0.0
C222 C 0.43185 0.39792 0.86564 0.0
C223 C 0.42386 0.42369 0.86795 0.0
H224 H 0.3824 0.36841 0.83249 0.0
H225 H 0.45049 0.3935 0.87343 0.0
H226 H 0.38771 0.32059 0.81435 0.0
H227 H 0.44076 0.36149 0.76733 0.0
H228 H 0.42173 0.32324 0.95776 0.0
H229 H 0.36735 0.41268 0.83409 0.0
H230 H 0.43612 0.43851 0.87847 0.0
C231 C 0.95152 0.17107 0.18121 0.0
C232 C 0.94464 0.16993 0.20692 0.0
N233 N 0.921 0.17931 0.20947 0.0
N234 N 0.93221 0.18089 0.16759 0.0
C235 C 0.91467 0.18717 0.18553 0.0
H236 H 0.96769 0.16182 0.17251 0.0
Co237 Co 0.92579 0.17386 0.1322 0.0
C238 C 0.86756 0.18491 0.13541 0.0
O239 O 0.8678 0.20968 0.12881 0.0
N240 N 0.91834 0.16666 0.09694 0.0
C241 C 0.89665 0.14915 0.06241 0.0
C242 C 0.89946 0.14863 0.08872 0.0
C243 C 0.92681 0.17801 0.07495 0.0
N244 N 0.91369 0.16761 0.05386 0.0
O245 O 0.92988 0.2113 0.12594 0.0
H246 H 0.88802 0.136 0.10115 0.0
H247 H 0.94152 0.19398 0.07443 0.0
O248 O 0.88862 0.17341 0.13693 0.0
C249 C 0.9541 0.21758 0.12576 0.0
O250 O 0.97021 0.19905 0.12942 0.0
N251 N 0.92405 0.13731 0.1383 0.0
C252 C 0.91117 0.08355 0.13738 0.0
C253 C 0.9015 0.10016 0.15668 0.0
C254 C 0.90795 0.12703 0.15664 0.0
C255 C 0.93727 0.12091 0.12248 0.0
C256 C 0.93059 0.09378 0.12119 0.0
H257 H 0.89806 0.13961 0.16994 0.0
H258 H 0.95096 0.12916 0.10884 0.0
H259 H 0.89612 0.19421 0.18061 0.0
H260 H 0.95477 0.1597 0.22167 0.0
H261 H 0.88282 0.13728 0.05038 0.0
H262 H 0.88735 0.09281 0.17039 0.0
H263 H 0.93902 0.08146 0.10639 0.0
C264 C 0.14289 0.06524 0.39502 0.0
C265 C 0.16922 0.06469 0.39682 0.0
N266 N 0.17992 0.08303 0.38122 0.0
N267 N 0.13664 0.08413 0.37871 0.0
C268 C 0.15958 0.09352 0.36942 0.0
H269 H 0.12914 0.05398 0.40651 0.0
Co270 Co 0.10254 0.09488 0.37597 0.0
C271 C 0.13219 0.15197 0.37603 0.0
O272 O 0.15481 0.14545 0.38416 0.0
N273 N 0.0676 0.10563 0.37405 0.0
C274 C 0.03559 0.12982 0.38773 0.0
C275 C 0.06163 0.12908 0.385 0.0
C276 C 0.04415 0.09232 0.37032 0.0
N277 N 0.02448 0.10675 0.37877 0.0
O278 O 0.10226 0.0846 0.33917 0.0
H279 H 0.07533 0.14369 0.39367 0.0
H280 H 0.04169 0.07181 0.3639 0.0
O281 O 0.11399 0.13387 0.37133 0.0
C282 C 0.09499 0.05998 0.33994 0.0
O283 O 0.08861 0.05054 0.36263 0.0
N284 N 0.10161 0.10009 0.41188 0.0
C285 C 0.09028 0.11047 0.46304 0.0
C286 C 0.11281 0.12179 0.45258 0.0
C287 C 0.11837 0.11597 0.42678 0.0
C288 C 0.08185 0.08586 0.42312 0.0
C289 C 0.07526 0.09138 0.44871 0.0
H290 H 0.13581 0.12441 0.419 0.0
H291 H 0.07006 0.07144 0.41163 0.0
H292 H 0.16142 0.10868 0.35519 0.0
H293 H 0.17958 0.0534 0.41054 0.0
H294 H 0.02561 0.1455 0.39724 0.0
H295 H 0.12527 0.1359 0.46385 0.0
H296 H 0.0581 0.08181 0.45679 0.0
C297 C 0.20262 0.97508 0.61798 0.0
C298 C 0.1922 0.99852 0.62556 0.0
N299 N 0.16928 1.0001 0.61322 0.0
N300 N 0.18652 0.96157 0.60085 0.0
C301 C 0.16675 0.97771 0.59787 0.0
H302 H 0.21978 0.96737 0.62617 0.0
Co303 Co 0.18719 0.92446 0.59308 0.0
C304 C 0.1321 0.90605 0.5868 0.0
O305 O 0.13779 0.88414 0.59782 0.0
N306 N 0.18726 0.88739 0.58481 0.0
C307 C 0.17843 0.85114 0.55974 0.0
C308 C 0.17871 0.87808 0.56108 0.0
C309 C 0.19219 0.8651 0.59756 0.0
N310 N 0.18681 0.84286 0.58271 0.0
O311 O 0.19972 0.93029 0.557 0.0
H312 H 0.17171 0.89011 0.54585 0.0
H313 H 0.19898 0.86466 0.6174 0.0
O314 O 0.1501 0.92373 0.58236 0.0
C315 C 0.22412 0.93298 0.55293 0.0
O316 O 0.23965 0.93785 0.57309 0.0
N317 N 0.17773 0.91853 0.62828 0.0
C318 C 0.16454 0.90735 0.6793 0.0
C319 C 0.14843 0.92156 0.66386 0.0
C320 C 0.15565 0.92743 0.63864 0.0
C321 C 0.19505 0.90751 0.6442 0.0
C322 C 0.18851 0.9009 0.66967 0.0
H323 H 0.14343 0.93931 0.62762 0.0
H324 H 0.21385 0.9033 0.63694 0.0
H325 H 0.14973 0.97215 0.58626 0.0
H326 H 0.20045 1.01263 0.64004 0.0
H327 H 0.17126 0.83857 0.54349 0.0
H328 H 0.13035 0.92806 0.67125 0.0
H329 H 0.20196 0.89101 0.68166 0.0
C330 C 0.41449 0.91391 0.84473 0.0
C331 C 0.44045 0.91034 0.8463 0.0
N332 N 0.44921 0.91848 0.87019 0.0
N333 N 0.40666 0.92417 0.86757 0.0
C334 C 0.4285 0.9276 0.88236 0.0
H335 H 0.40171 0.90658 0.82902 0.0
Co336 Co 0.37171 0.92354 0.87694 0.0
C337 C 0.38785 0.94566 0.9361 0.0
O338 O 0.39093 0.97139 0.93964 0.0
N339 N 0.33602 0.9224 0.88614 0.0
C340 C 0.30073 0.91373 0.9095 0.0
C341 C 0.32679 0.92026 0.91051 0.0
C342 C 0.31471 0.91758 0.87061 0.0
N343 N 0.29312 0.91196 0.88443 0.0
O344 O 0.36967 0.95852 0.86275 0.0
H345 H 0.33824 0.92182 0.92815 0.0
H346 H 0.31526 0.91621 0.84959 0.0
O347 O 0.38155 0.93641 0.91313 0.0
C348 C 0.36507 0.95528 0.83817 0.0
O349 O 0.35974 0.93108 0.82899 0.0
N350 N 0.37364 0.88921 0.88718 0.0
C351 C 0.37056 0.8382 0.90425 0.0
C352 C 0.38957 0.8565 0.91431 0.0
C353 C 0.39106 0.88183 0.90516 0.0
C354 C 0.35712 0.87089 0.8749 0.0
C355 C 0.355 0.84517 0.88336 0.0
H356 H 0.40527 0.89571 0.91388 0.0
H357 H 0.34497 0.87646 0.85903 0.0
H358 H 0.42876 0.93317 0.90284 0.0
H359 H 0.45131 0.89942 0.83221 0.0
H360 H 0.2884 0.90984 0.92592 0.0
H361 H 0.40231 0.85192 0.93015 0.0
H362 H 0.34106 0.83109 0.87399 0.0
C363 C 0.34273 0.07968 0.11262 0.0
C364 C 0.34327 0.05352 0.11853 0.0
N365 N 0.3678 0.04634 0.11699 0.0
N366 N 0.36673 0.08913 0.10717 0.0
C367 C 0.38158 0.06832 0.1098 0.0
H368 H 0.32591 0.09121 0.11266 0.0
Co369 Co 0.37518 0.12434 0.09998 0.0
C370 C 0.43204 0.12962 0.09426 0.0
O371 O 0.43116 0.15286 0.10609 0.0
N372 N 0.38302 0.15961 0.09178 0.0
C373 C 0.39487 0.19297 0.0667 0.0
C374 C 0.39274 0.16612 0.06839 0.0
C375 C 0.37906 0.18305 0.10381 0.0
N376 N 0.38623 0.20354 0.08898 0.0
O377 O 0.36059 0.11889 0.06416 0.0
H378 H 0.39806 0.1521 0.05341 0.0
H379 H 0.37048 0.18543 0.12263 0.0
O380 O 0.41101 0.11534 0.08977 0.0
C381 C 0.33788 0.12761 0.06389 0.0
O382 O 0.32871 0.13579 0.08625 0.0
N383 N 0.38589 0.13033 0.13576 0.0
C384 C 0.3957 0.13783 0.18961 0.0
C385 C 0.41143 0.12258 0.17399 0.0
C386 C 0.406 0.11877 0.14734 0.0
C387 C 0.36943 0.14378 0.15103 0.0
C388 C 0.37438 0.14848 0.17777 0.0
H389 H 0.4175 0.10561 0.13646 0.0
H390 H 0.35195 0.15047 0.14253 0.0
H391 H 0.40221 0.06943 0.10722 0.0
H392 H 0.32672 0.04082 0.12349 0.0
H393 H 0.40246 0.20388 0.05047 0.0
H394 H 0.42757 0.11315 0.18243 0.0
H395 H 0.36099 0.15932 0.18928 0.0
C396 C 0.15605 0.94435 0.1724 0.0
C397 C 0.18239 0.94564 0.16984 0.0
N398 N 0.19187 0.92679 0.18433 0.0
N399 N 0.14913 0.9243 0.18786 0.0
C400 C 0.17141 0.91425 0.19515 0.0
H401 H 0.14264 0.95598 0.16221 0.0
Co402 Co 0.11574 0.91181 0.19336 0.0
C403 C 0.13574 0.85666 0.21256 0.0
O404 O 0.14318 0.86052 0.23698 0.0
N405 N 0.08173 0.89944 0.19929 0.0
C406 C 0.04756 0.87572 0.2133 0.0
C407 C 0.07392 0.87988 0.21511 0.0
C408 C 0.05964 0.90748 0.1889 0.0
N409 N 0.03876 0.89298 0.19658 0.0
O410 O 0.11875 0.92541 0.22905 0.0
H411 H 0.08648 0.86902 0.2271 0.0
H412 H 0.05847 0.92378 0.17615 0.0
O413 O 0.12697 0.87585 0.20032 0.0
C414 C 0.11311 0.94963 0.22838 0.0
O415 O 0.10607 0.95886 0.20599 0.0
N416 N 0.11272 0.90167 0.15795 0.0
C417 C 0.10368 0.88558 0.10633 0.0
C418 C 0.12241 0.87401 0.12127 0.0
C419 C 0.12707 0.88279 0.14686 0.0
C420 C 0.09738 0.91573 0.14262 0.0
C421 C 0.09185 0.9075 0.11689 0.0
H422 H 0.14235 0.87436 0.15758 0.0
H423 H 0.08942 0.93345 0.1503 0.0
H424 H 0.17265 0.89675 0.20636 0.0
H425 H 0.19353 0.95802 0.15682 0.0
H426 H 0.03587 0.8606 0.22278 0.0
H427 H 0.13353 0.85839 0.11322 0.0
H428 H 0.07828 0.91799 0.1056 0.0
C429 C 0.36904 0.83501 0.44278 0.0
C430 C 0.36926 0.80863 0.43592 0.0
N431 N 0.36331 0.80534 0.41036 0.0
N432 N 0.36298 0.84854 0.4217 0.0
C433 C 0.35855 0.82971 0.40255 0.0
H434 H 0.37682 0.84403 0.46079 0.0
Co435 Co 0.37379 0.88428 0.41826 0.0
C436 C 0.37874 0.88674 0.35928 0.0
O437 O 0.40115 0.89971 0.362 0.0
N438 N 0.38546 0.92081 0.41493 0.0
C439 C 0.4103 0.95762 0.40888 0.0
C440 C 0.40858 0.93084 0.4064 0.0
C441 C 0.37334 0.9428 0.42204 0.0
N442 N 0.38824 0.96521 0.41887 0.0
O443 O 0.33803 0.89528 0.42701 0.0
H444 H 0.42381 0.91992 0.3983 0.0
H445 H 0.35407 0.94258 0.42945 0.0
O446 O 0.36547 0.88077 0.37948 0.0
C447 C 0.32965 0.89252 0.45038 0.0
O448 O 0.3441 0.88106 0.4672 0.0
N449 N 0.40835 0.87357 0.41337 0.0
C450 C 0.45975 0.87444 0.39908 0.0
C451 C 0.44117 0.85749 0.38592 0.0
C452 C 0.41548 0.85737 0.39337 0.0
C453 C 0.42693 0.88389 0.43058 0.0
C454 C 0.45296 0.88559 0.42325 0.0
H455 H 0.40133 0.84646 0.38116 0.0
H456 H 0.42128 0.89474 0.44784 0.0
H457 H 0.35652 0.83402 0.38221 0.0
H458 H 0.37724 0.79375 0.44773 0.0
H459 H 0.4263 0.97064 0.403 0.0
H460 H 0.44588 0.84655 0.36835 0.0
H461 H 0.46675 0.89795 0.43485 0.0
C462 C 0.42079 0.11126 0.71181 0.0
C463 C 0.44713 0.11334 0.70929 0.0
N464 N 0.4535 0.09622 0.69022 0.0
N465 N 0.41087 0.09354 0.69374 0.0
C466 C 0.43124 0.08418 0.68152 0.0
H467 H 0.4095 0.1236 0.72419 0.0
Co468 Co 0.37717 0.08712 0.68355 0.0
C469 C 0.39413 0.07277 0.62418 0.0
O470 O 0.39959 0.04785 0.62393 0.0
N471 N 0.34311 0.07976 0.6729 0.0
C472 C 0.30955 0.06497 0.64809 0.0
C473 C 0.33534 0.06283 0.65307 0.0
C474 C 0.3214 0.09067 0.68065 0.0
N475 N 0.30107 0.08239 0.66562 0.0
O476 O 0.37904 0.05055 0.69322 0.0
H477 H 0.34778 0.05046 0.64212 0.0
H478 H 0.32025 0.10534 0.69613 0.0
O479 O 0.38692 0.08354 0.64562 0.0
C480 C 0.37409 0.05266 0.71769 0.0
O481 O 0.36876 0.07606 0.72714 0.0
N482 N 0.37492 0.12322 0.67877 0.0
C483 C 0.36516 0.17525 0.67202 0.0
C484 C 0.38262 0.16302 0.65592 0.0
C485 C 0.38784 0.13699 0.66012 0.0
C486 C 0.36146 0.13636 0.69715 0.0
C487 C 0.35541 0.16234 0.69362 0.0
H488 H 0.40197 0.128 0.64813 0.0
H489 H 0.35453 0.12627 0.71411 0.0
H490 H 0.42974 0.07095 0.6646 0.0
H491 H 0.46023 0.12825 0.71863 0.0
H492 H 0.29823 0.05564 0.63211 0.0
H493 H 0.39125 0.17311 0.63964 0.0
H494 H 0.3426 0.17184 0.70694 0.0
C495 C 0.18823 0.22595 0.94128 0.0
C496 C 0.18768 0.25128 0.93231 0.0
N497 N 0.19888 0.25199 0.90878 0.0
N498 N 0.19971 0.21062 0.92356 0.0
C499 C 0.20648 0.22723 0.90437 0.0
H500 H 0.17891 0.21868 0.95854 0.0
Co501 Co 0.19697 0.17339 0.92154 0.0
C502 C 0.21496 0.17002 0.86266 0.0
O503 O 0.23707 0.17546 0.85137 0.0
N504 N 0.19482 0.13599 0.91869 0.0
C505 C 0.20838 0.09631 0.90819 0.0
C506 C 0.21488 0.12282 0.90967 0.0
C507 C 0.1765 0.11657 0.9233 0.0
N508 N 0.18415 0.09231 0.91671 0.0
O509 O 0.2306 0.17134 0.94003 0.0
H510 H 0.23317 0.13199 0.90396 0.0
H511 H 0.15793 0.11969 0.93143 0.0
O512 O 0.21405 0.17325 0.88749 0.0
C513 C 0.22591 0.16575 0.96367 0.0
O514 O 0.20168 0.16575 0.97074 0.0
N515 N 0.16342 0.17524 0.90695 0.0
C516 C 0.11287 0.17086 0.88819 0.0
C517 C 0.13205 0.18477 0.87446 0.0
C518 C 0.15716 0.18759 0.88476 0.0
C519 C 0.14405 0.16611 0.92256 0.0
C520 C 0.11864 0.16271 0.91318 0.0
H521 H 0.17155 0.19908 0.87451 0.0
H522 H 0.14854 0.1604 0.9421 0.0
H523 H 0.2144 0.22074 0.88615 0.0
H524 H 0.17845 0.26744 0.94182 0.0
H525 H 0.22039 0.0813 0.90051 0.0
H526 H 0.12785 0.19261 0.85563 0.0
H527 H 0.10395 0.15305 0.92489 0.0
C528 C 0.88241 0.33793 0.94172 0.0
C529 C 0.88205 0.31144 0.9345 0.0
N530 N 0.86715 0.30734 0.91297 0.0
N531 N 0.86806 0.35059 0.92461 0.0
C532 C 0.85866 0.33116 0.90762 0.0
H533 H 0.89441 0.34775 0.95691 0.0
Co534 Co 0.87016 0.38763 0.92043 0.0
C535 C 0.8481 0.37723 0.86274 0.0
O536 O 0.8231 0.3716 0.86309 0.0
N537 N 0.87225 0.42433 0.91559 0.0
C538 C 0.8768 0.46285 0.89623 0.0
C539 C 0.87261 0.43624 0.8924 0.0
C540 C 0.87582 0.44457 0.93341 0.0
N541 N 0.87898 0.46804 0.92188 0.0
O542 O 0.834 0.3905 0.93191 0.0
H543 H 0.8704 0.42665 0.87351 0.0
H544 H 0.877 0.44206 0.95421 0.0
O545 O 0.86053 0.38194 0.88408 0.0
C546 C 0.82966 0.38976 0.95643 0.0
O547 O 0.8486 0.38378 0.97188 0.0
N548 N 0.90561 0.38617 0.91093 0.0
C549 C 0.95571 0.39192 0.89112 0.0
C550 C 0.93811 0.37153 0.88184 0.0
C551 C 0.91327 0.369 0.89195 0.0
C552 C 0.92342 0.40397 0.92242 0.0
C553 C 0.9484 0.40752 0.91253 0.0
H554 H 0.89978 0.35415 0.88328 0.0
H555 H 0.91797 0.41651 0.93854 0.0
H556 H 0.84761 0.33445 0.89028 0.0
H557 H 0.89356 0.29682 0.94308 0.0
H558 H 0.8783 0.47741 0.88131 0.0
H559 H 0.94308 0.35818 0.86609 0.0
H560 H 0.96133 0.42321 0.9208 0.0
C561 C 0.90893 0.59684 0.21058 0.0
C562 C 0.93544 0.59803 0.21112 0.0
N563 N 0.94332 0.58545 0.18946 0.0
N564 N 0.90047 0.58372 0.18859 0.0
C565 C 0.92178 0.57653 0.17648 0.0
H566 H 0.89665 0.6062 0.22447 0.0
Co567 Co 0.86696 0.57933 0.17689 0.0
C568 C 0.88554 0.56626 0.1192 0.0
O569 O 0.88984 0.54104 0.11941 0.0
N570 N 0.833 0.57409 0.16557 0.0
C571 C 0.79706 0.56436 0.14249 0.0
C572 C 0.82345 0.56472 0.14225 0.0
C573 C 0.81203 0.57796 0.17995 0.0
N574 N 0.79003 0.57298 0.16617 0.0
O575 O 0.8672 0.54206 0.18254 0.0
H576 H 0.83464 0.55909 0.12569 0.0
H577 H 0.81265 0.58503 0.20001 0.0
O578 O 0.87778 0.57772 0.13993 0.0
C579 C 0.86293 0.54018 0.20692 0.0
O580 O 0.85992 0.56185 0.22092 0.0
N581 N 0.86633 0.61619 0.17417 0.0
C582 C 0.86258 0.66995 0.16808 0.0
C583 C 0.88186 0.6566 0.15544 0.0
C584 C 0.88368 0.62978 0.1591 0.0
C585 C 0.84979 0.62967 0.18923 0.0
C586 C 0.84702 0.6565 0.18594 0.0
H587 H 0.89884 0.61995 0.14931 0.0
H588 H 0.83862 0.61978 0.20385 0.0
H589 H 0.92172 0.5662 0.15779 0.0
H590 H 0.9479 0.60915 0.22512 0.0
H591 H 0.78414 0.56016 0.12597 0.0
H592 H 0.89465 0.66645 0.14187 0.0
H593 H 0.83264 0.66652 0.19691 0.0
C594 C 0.69546 0.7235 0.44683 0.0
C595 C 0.69338 0.74922 0.43996 0.0
N596 N 0.69899 0.75121 0.41454 0.0
N597 N 0.70206 0.70907 0.42582 0.0
C598 C 0.70527 0.72677 0.40673 0.0
H599 H 0.68973 0.71528 0.46516 0.0
Co600 Co 0.69806 0.67195 0.42497 0.0
C601 C 0.69361 0.6533 0.36885 0.0
O602 O 0.68917 0.62884 0.37557 0.0
N603 N 0.69509 0.63386 0.42543 0.0
C604 C 0.70831 0.59291 0.42044 0.0
C605 C 0.71568 0.61927 0.42092 0.0
C606 C 0.67546 0.6152 0.42826 0.0
N607 N 0.68288 0.59025 0.4249 0.0
O608 O 0.73475 0.67083 0.435 0.0
H609 H 0.73474 0.6271 0.41607 0.0
H610 H 0.65581 0.61923 0.43158 0.0
O611 O 0.70342 0.67064 0.38575 0.0
C612 C 0.73628 0.66817 0.45968 0.0
O613 O 0.71473 0.6674 0.4728 0.0
N614 N 0.66194 0.67462 0.41772 0.0
C615 C 0.61083 0.67358 0.40072 0.0
C616 C 0.62964 0.68996 0.38923 0.0
C617 C 0.655 0.68917 0.39714 0.0
C618 C 0.64292 0.66493 0.43354 0.0
C619 C 0.61712 0.66246 0.4245 0.0
H620 H 0.66887 0.69942 0.38538 0.0
H621 H 0.64793 0.6569 0.45203 0.0
H622 H 0.70846 0.72124 0.38657 0.0
H623 H 0.68528 0.76454 0.45188 0.0
H624 H 0.72057 0.57713 0.4153 0.0
H625 H 0.62539 0.70124 0.37234 0.0
H626 H 0.60287 0.65091 0.43515 0.0
C627 C 0.91151 0.42203 0.34482 0.0
C628 C 0.93779 0.42471 0.34869 0.0
N629 N 0.94265 0.43608 0.3724 0.0
N630 N 0.89971 0.43053 0.36653 0.0
C631 C 0.91926 0.44087 0.38212 0.0
H632 H 0.90169 0.41193 0.32832 0.0
Co633 Co 0.86467 0.42297 0.375 0.0
C634 C 0.89384 0.40077 0.42292 0.0
O635 O 0.91673 0.39957 0.4127 0.0
N636 N 0.82902 0.41538 0.38426 0.0
C637 C 0.79725 0.38987 0.40102 0.0
C638 C 0.82324 0.39395 0.39854 0.0
C639 C 0.80534 0.42403 0.37827 0.0
N640 N 0.78575 0.40854 0.38818 0.0
O641 O 0.85578 0.43824 0.34148 0.0
H642 H 0.83685 0.37998 0.4042 0.0
H643 H 0.80236 0.44036 0.36588 0.0
O644 O 0.87479 0.40892 0.40981 0.0
C645 C 0.84099 0.44229 0.32206 0.0
O646 O 0.81728 0.43177 0.32099 0.0
N647 N 0.86467 0.38842 0.35875 0.0
C648 C 0.85425 0.33448 0.35355 0.0
C649 C 0.87831 0.34461 0.36291 0.0
C650 C 0.88324 0.37177 0.36511 0.0
C651 C 0.8433 0.37857 0.34493 0.0
C652 C 0.83742 0.35145 0.34252 0.0
H653 H 0.90121 0.37911 0.37376 0.0
H654 H 0.82867 0.39127 0.33915 0.0
H655 H 0.91645 0.44845 0.40175 0.0
H656 H 0.95217 0.41689 0.336 0.0
H657 H 0.78739 0.37284 0.40941 0.0
H658 H 0.89208 0.33178 0.37097 0.0
H659 H 0.81866 0.34413 0.33499 0.0
C660 C 0.64145 0.56923 0.88827 0.0
C661 C 0.66775 0.57357 0.89087 0.0
N662 N 0.67429 0.59841 0.88386 0.0
N663 N 0.63134 0.59116 0.87961 0.0
C664 C 0.65185 0.60856 0.8769 0.0
H665 H 0.63028 0.55149 0.89321 0.0
Co666 Co 0.59603 0.5949 0.87542 0.0
C667 C 0.5899 0.65352 0.87361 0.0
O668 O 0.56865 0.6491 0.8867 0.0
N669 N 0.55972 0.59821 0.8706 0.0
C670 C 0.52312 0.60567 0.84957 0.0
C671 C 0.54958 0.60645 0.84813 0.0
C672 C 0.53869 0.59251 0.88539 0.0
N673 N 0.51641 0.59717 0.87313 0.0
O674 O 0.59804 0.57995 0.84005 0.0
H675 H 0.56078 0.61238 0.83151 0.0
H676 H 0.53904 0.58421 0.90436 0.0
O677 O 0.60285 0.63373 0.86606 0.0
C678 C 0.5917 0.55544 0.84345 0.0
O679 O 0.58415 0.54885 0.86679 0.0
N680 N 0.59472 0.60434 0.91056 0.0
C681 C 0.59221 0.61536 0.96347 0.0
C682 C 0.60719 0.63186 0.94755 0.0
C683 C 0.60886 0.62542 0.92132 0.0
C684 C 0.58316 0.58616 0.92625 0.0
C685 C 0.58074 0.59173 0.95282 0.0
H686 H 0.62185 0.63707 0.90978 0.0
H687 H 0.5754 0.56744 0.918 0.0
H688 H 0.65036 0.62851 0.87058 0.0
H689 H 0.68087 0.55987 0.8985 0.0
H690 H 0.50977 0.61049 0.83435 0.0
H691 H 0.61718 0.64992 0.95507 0.0
H692 H 0.57009 0.57786 0.96481 0.0
C693 C 0.89714 0.69773 0.9714 0.0
C694 C 0.89324 0.69182 0.99712 0.0
N695 N 0.8989 0.66653 1.00077 0.0
N696 N 0.90534 0.67646 0.95848 0.0
C697 C 0.90662 0.65794 0.97697 0.0
H698 H 0.89322 0.71607 0.96243 0.0
Co699 Co 0.90893 0.67329 0.92179 0.0
C700 C 0.91114 0.61621 0.91135 0.0
O701 O 0.89589 0.61884 0.89114 0.0
N702 N 0.91345 0.6694 0.88467 0.0
C703 C 0.93468 0.65787 0.84899 0.0
C704 C 0.93598 0.66115 0.8755 0.0
C705 C 0.89876 0.67117 0.86269 0.0
N706 N 0.91121 0.66408 0.84076 0.0
O707 O 0.94499 0.68813 0.92478 0.0
H708 H 0.95221 0.65648 0.88751 0.0
H709 H 0.87919 0.67698 0.86239 0.0
O710 O 0.91894 0.63655 0.92538 0.0
C711 C 0.94746 0.71121 0.91528 0.0
O712 O 0.92641 0.72187 0.90741 0.0
N713 N 0.87324 0.66207 0.91905 0.0
C714 C 0.8215 0.64545 0.91018 0.0
C715 C 0.83718 0.63163 0.92665 0.0
C716 C 0.86274 0.64066 0.93136 0.0
C717 C 0.85727 0.67797 0.90643 0.0
C718 C 0.83142 0.66969 0.90107 0.0
H719 H 0.8742 0.62994 0.94443 0.0
H720 H 0.8649 0.69669 0.89946 0.0
H721 H 0.91182 0.63802 0.97271 0.0
H722 H 0.88603 0.70523 0.01166 0.0
H723 H 0.94957 0.65015 0.83692 0.0
H724 H 0.82985 0.6137 0.93556 0.0
H725 H 0.81971 0.68165 0.88917 0.0
C726 C 0.097 0.1965 0.63561 0.0
C727 C 0.09544 0.19359 0.60891 0.0
N728 N 0.07932 0.17248 0.60289 0.0
N729 N 0.08226 0.17693 0.64605 0.0
C730 C 0.0711 0.16324 0.62563 0.0
H731 H 0.11001 0.2102 0.64664 0.0
Co732 Co 0.08297 0.16711 0.68032 0.0
C733 C 0.06874 0.10525 0.66218 0.0
O734 O 0.04542 0.09447 0.65773 0.0
N735 N 0.08377 0.15742 0.71565 0.0
C736 C 0.09201 0.13328 0.74977 0.0
C737 C 0.08098 0.13304 0.72529 0.0
C738 C 0.09485 0.17239 0.7355 0.0
N739 N 0.10161 0.15798 0.756 0.0
O740 O 0.04815 0.1786 0.6835 0.0
H741 H 0.0737 0.11547 0.71462 0.0
H742 H 0.10005 0.19317 0.73376 0.0
O743 O 0.0709 0.12989 0.66948 0.0
C744 C 0.04929 0.20392 0.68459 0.0
O745 O 0.07212 0.21633 0.68771 0.0
N746 N 0.11726 0.1591 0.67657 0.0
C747 C 0.1674 0.14487 0.67516 0.0
C748 C 0.14981 0.13486 0.6561 0.0
C749 C 0.1247 0.14265 0.65696 0.0
C750 C 0.13545 0.17243 0.69215 0.0
C751 C 0.16067 0.1648 0.69257 0.0
H752 H 0.1111 0.13486 0.64233 0.0
H753 H 0.13053 0.18879 0.70453 0.0
H754 H 0.05944 0.14502 0.62708 0.0
H755 H 0.10748 0.20413 0.59518 0.0
H756 H 0.09502 0.11591 0.76076 0.0
H757 H 0.15502 0.12016 0.64166 0.0
H758 H 0.17452 0.17387 0.7066 0.0
C759 C 0.56509 0.38272 0.3384 0.0
C760 C 0.56617 0.38435 0.31184 0.0
N761 N 0.57946 0.36429 0.30238 0.0
N762 N 0.57845 0.36224 0.34582 0.0
C763 C 0.58539 0.35044 0.32332 0.0
H764 H 0.55757 0.39728 0.3516 0.0
Co765 Co 0.58974 0.35797 0.38 0.0
C766 C 0.64438 0.34608 0.35422 0.0
O767 O 0.6385 0.33269 0.33252 0.0
N768 N 0.60004 0.35379 0.41403 0.0
C769 C 0.6223 0.34896 0.45051 0.0
C770 C 0.62297 0.34722 0.42384 0.0
C771 C 0.58558 0.3586 0.43501 0.0
N772 N 0.59883 0.3562 0.45728 0.0
O773 O 0.57799 0.31987 0.37818 0.0
H774 H 0.6396 0.34252 0.41262 0.0
H775 H 0.56606 0.36481 0.43402 0.0
O776 O 0.62635 0.3534 0.36914 0.0
C777 C 0.5534 0.31594 0.38038 0.0
O778 O 0.53943 0.33665 0.38053 0.0
N779 N 0.59923 0.39497 0.38317 0.0
C780 C 0.61917 0.44636 0.39431 0.0
C781 C 0.62813 0.43179 0.37309 0.0
C782 C 0.61747 0.40638 0.36746 0.0
C783 C 0.58804 0.41019 0.40176 0.0
C784 C 0.59798 0.43593 0.40794 0.0
H785 H 0.62456 0.3957 0.35081 0.0
H786 H 0.57179 0.4023 0.41242 0.0
H787 H 0.59571 0.33278 0.3222 0.0
H788 H 0.56051 0.40085 0.30072 0.0
H789 H 0.63826 0.34678 0.46387 0.0
H790 H 0.64381 0.4397 0.36142 0.0
H791 H 0.59001 0.44702 0.42396 0.0
C792 C 0.3829 0.82409 0.08707 0.0
C793 C 0.37988 0.82676 0.06072 0.0
N794 N 0.39903 0.84324 0.0521 0.0
N795 N 0.40356 0.83923 0.09592 0.0
C796 C 0.41412 0.84892 0.07375 0.0
H797 H 0.36916 0.81393 0.09944 0.0
Co798 Co 0.40681 0.84901 0.1326 0.0
C799 C 0.41908 0.90501 0.10838 0.0
O800 O 0.41115 0.90004 0.08441 0.0
N801 N 0.4091 0.85881 0.16932 0.0
C802 C 0.40448 0.88468 0.2048 0.0
C803 C 0.40883 0.88408 0.17865 0.0
C804 C 0.4053 0.84434 0.19103 0.0
N805 N 0.40198 0.85981 0.21271 0.0
O806 O 0.44199 0.83702 0.13398 0.0
H807 H 0.40997 0.90152 0.16733 0.0
H808 H 0.40304 0.82301 0.19061 0.0
O809 O 0.41786 0.8868 0.12522 0.0
C810 C 0.4415 0.81198 0.13734 0.0
O811 O 0.41887 0.79891 0.13703 0.0
N812 N 0.37208 0.85712 0.13292 0.0
C813 C 0.32054 0.86644 0.13973 0.0
C814 C 0.33506 0.88028 0.12136 0.0
C815 C 0.36089 0.87524 0.11817 0.0
C816 C 0.35748 0.84198 0.14928 0.0
C817 C 0.33177 0.84679 0.15356 0.0
H818 H 0.37147 0.88568 0.10366 0.0
H819 H 0.36594 0.82623 0.15936 0.0
H820 H 0.43173 0.86139 0.07373 0.0
H821 H 0.36316 0.81915 0.04947 0.0
H822 H 0.40241 0.90217 0.21705 0.0
H823 H 0.32667 0.89527 0.11 0.0
H824 H 0.32078 0.83531 0.16744 0.0
C825 C 0.8963 0.3176 0.59564 0.0
C826 C 0.89462 0.32067 0.56917 0.0
N827 N 0.90872 0.34279 0.56334 0.0
N828 N 0.91122 0.33778 0.60643 0.0
C829 C 0.91902 0.35241 0.5862 0.0
H830 H 0.8859 0.30265 0.60656 0.0
Co831 Co 0.91346 0.34619 0.64186 0.0
C832 C 0.91793 0.40531 0.64563 0.0
O833 O 0.90498 0.40344 0.66732 0.0
N834 N 0.91623 0.35412 0.67841 0.0
C835 C 0.93183 0.37082 0.71651 0.0
C836 C 0.93664 0.36739 0.69037 0.0
C837 C 0.90008 0.34841 0.6982 0.0
N838 N 0.90853 0.35901 0.72147 0.0
O839 O 0.94799 0.33373 0.64326 0.0
H840 H 0.95361 0.37501 0.68048 0.0
H841 H 0.88258 0.33635 0.69594 0.0
O842 O 0.925 0.38402 0.63412 0.0
C843 C 0.94581 0.30942 0.64939 0.0
O844 O 0.92244 0.29869 0.65251 0.0
N845 N 0.87881 0.35512 0.64022 0.0
C846 C 0.82911 0.37095 0.64582 0.0
C847 C 0.84583 0.38344 0.62827 0.0
C848 C 0.87047 0.37472 0.62529 0.0
C849 C 0.86104 0.33908 0.65216 0.0
C850 C 0.8363 0.34732 0.65649 0.0
H851 H 0.88295 0.3842 0.61145 0.0
H852 H 0.86651 0.32053 0.65958 0.0
H853 H 0.93049 0.37082 0.58833 0.0
H854 H 0.88304 0.3082 0.55548 0.0
H855 H 0.94447 0.3817 0.73046 0.0
H856 H 0.84026 0.40023 0.61752 0.0
H857 H 0.82364 0.33592 0.66897 0.0
C858 C 0.39962 0.20363 0.47476 0.0
C859 C 0.39869 0.19742 0.50071 0.0
N860 N 0.40147 0.17131 0.50291 0.0
N861 N 0.40313 0.18172 0.46006 0.0
C862 C 0.4047 0.16243 0.47795 0.0
H863 H 0.39603 0.22263 0.46703 0.0
Co864 Co 0.39782 0.1785 0.42272 0.0
C865 C 0.38334 0.12006 0.42171 0.0
O866 O 0.35961 0.12453 0.41553 0.0
N867 N 0.39235 0.17313 0.38482 0.0
C868 C 0.37468 0.15577 0.3475 0.0
C869 C 0.37168 0.15927 0.37356 0.0
C870 C 0.40771 0.17817 0.36389 0.0
N871 N 0.39723 0.16759 0.34117 0.0
O872 O 0.43551 0.18536 0.41662 0.0
H873 H 0.35438 0.15247 0.38292 0.0
H874 H 0.42647 0.18854 0.36524 0.0
O875 O 0.40042 0.13936 0.42484 0.0
C876 C 0.4406 0.21054 0.41647 0.0
O877 O 0.42183 0.22563 0.42272 0.0
N878 N 0.36119 0.17757 0.42817 0.0
C879 C 0.30824 0.16895 0.42124 0.0
C880 C 0.32079 0.15857 0.44268 0.0
C881 C 0.34743 0.16375 0.44627 0.0
C882 C 0.34826 0.19351 0.41226 0.0
C883 C 0.3218 0.18861 0.40748 0.0
H884 H 0.35708 0.15335 0.46111 0.0
H885 H 0.35898 0.2073 0.40027 0.0
H886 H 0.40578 0.14175 0.4727 0.0
H887 H 0.39509 0.21113 0.51662 0.0
H888 H 0.361 0.14561 0.33397 0.0
H889 H 0.31064 0.14478 0.45513 0.0
H890 H 0.31286 0.19825 0.39152 0.0
C891 C 0.6022 0.71922 0.13044 0.0
C892 C 0.60277 0.72046 0.10379 0.0
N893 N 0.58871 0.69936 0.09355 0.0
N894 N 0.58821 0.69721 0.13671 0.0
C895 C 0.57922 0.68634 0.11396 0.0
H896 H 0.61373 0.73167 0.14417 0.0
Co897 Co 0.58958 0.68134 0.16837 0.0
C898 C 0.57558 0.6223 0.13925 0.0
O899 O 0.55381 0.62003 0.12587 0.0
N900 N 0.59222 0.6655 0.20121 0.0
C901 C 0.60939 0.63654 0.22691 0.0
C902 C 0.60171 0.64141 0.20227 0.0
C903 C 0.59555 0.67555 0.22607 0.0
N904 N 0.6059 0.65798 0.24201 0.0
O905 O 0.55298 0.68799 0.17229 0.0
H906 H 0.60757 0.63021 0.18567 0.0
H907 H 0.59262 0.69584 0.23176 0.0
O908 O 0.58224 0.64465 0.15099 0.0
C909 C 0.55078 0.71282 0.17677 0.0
O910 O 0.57174 0.72716 0.18392 0.0
N911 N 0.62453 0.67792 0.16411 0.0
C912 C 0.67499 0.66466 0.1658 0.0
C913 C 0.6592 0.65666 0.14433 0.0
C914 C 0.63385 0.66358 0.14383 0.0
C915 C 0.64073 0.68953 0.18275 0.0
C916 C 0.6662 0.68269 0.18432 0.0
H917 H 0.62146 0.65623 0.12784 0.0
H918 H 0.63331 0.7024 0.19767 0.0
H919 H 0.56897 0.66728 0.11207 0.0
H920 H 0.61508 0.7339 0.09286 0.0
H921 H 0.61944 0.61958 0.23279 0.0
H922 H 0.66587 0.64366 0.12903 0.0
H923 H 0.67813 0.68974 0.20085 0.0
C924 C 0.07083 0.88186 0.83774 0.0
C925 C 0.07125 0.88327 0.81115 0.0
N926 N 0.08512 0.86369 0.80155 0.0
N927 N 0.08508 0.86198 0.84498 0.0
C928 C 0.09184 0.85011 0.82245 0.0
H929 H 0.06296 0.89609 0.85107 0.0
Co930 Co 0.09582 0.85747 0.87915 0.0
C931 C 0.15017 0.85223 0.85187 0.0
O932 O 0.14418 0.8574 0.8278 0.0
N933 N 0.10546 0.85279 0.9136 0.0
C934 C 0.12728 0.84829 0.95046 0.0
C935 C 0.12858 0.84733 0.92383 0.0
C936 C 0.09036 0.85638 0.93439 0.0
N937 N 0.10329 0.85408 0.95688 0.0
O938 O 0.0827 0.82037 0.87661 0.0
H939 H 0.14583 0.84409 0.91304 0.0
H940 H 0.07063 0.86199 0.93317 0.0
O941 O 0.13261 0.85071 0.86932 0.0
C942 C 0.05893 0.8196 0.88321 0.0
O943 O 0.04872 0.8421 0.88884 0.0
N944 N 0.10611 0.89421 0.88279 0.0
C945 C 0.1258 0.94575 0.8934 0.0
C946 C 0.13365 0.93158 0.87144 0.0
C947 C 0.12307 0.90612 0.86615 0.0
C948 C 0.0959 0.90904 0.90234 0.0
C949 C 0.10578 0.93482 0.90828 0.0
H950 H 0.12847 0.89626 0.84852 0.0
H951 H 0.08031 0.90093 0.91374 0.0
H952 H 0.10373 0.83337 0.82145 0.0
H953 H 0.06466 0.89937 0.80003 0.0
H954 H 0.14315 0.84671 0.96409 0.0
H955 H 0.1481 0.94001 0.85862 0.0
H956 H 0.09853 0.94565 0.92486 0.0
C957 C 0.96573 0.93312 0.66659 0.0
C958 C 0.99223 0.9339 0.66497 0.0
N959 N 0.99868 0.94249 0.64134 0.0
N960 N 0.95575 0.94078 0.6439 0.0
C961 C 0.97637 0.94637 0.62893 0.0
H962 H 0.95436 0.92638 0.68282 0.0
Co963 Co 0.92092 0.9408 0.63607 0.0
C964 C 0.93383 0.95339 0.57769 0.0
O965 O 0.94092 0.97866 0.57944 0.0
N966 N 0.88566 0.94113 0.62813 0.0
C967 C 0.84903 0.95034 0.60844 0.0
C968 C 0.87531 0.95533 0.60928 0.0
C969 C 0.86514 0.92825 0.6389 0.0
N970 N 0.84288 0.93317 0.627 0.0
O971 O 0.92235 0.97925 0.64184 0.0
H972 H 0.88616 0.96844 0.59677 0.0
H973 H 0.86596 0.91579 0.65539 0.0
O974 O 0.92726 0.9413 0.59822 0.0
C975 C 0.91235 0.9846 0.66398 0.0
O976 O 0.9029 0.96479 0.67745 0.0
N977 N 0.9193 0.90358 0.63366 0.0
C978 C 0.90827 0.849 0.63102 0.0
C979 C 0.92365 0.86144 0.61216 0.0
C980 C 0.92921 0.88873 0.61402 0.0
C981 C 0.90784 0.89142 0.65404 0.0
C982 C 0.90103 0.86442 0.65263 0.0
H983 H 0.94153 0.89771 0.59966 0.0
H984 H 0.90279 0.90302 0.67102 0.0
H985 H 0.97531 0.95219 0.60898 0.0
H986 H 1.00561 0.92747 0.67943 0.0
H987 H 0.83557 0.95807 0.59482 0.0
H988 H 0.93147 0.8503 0.59611 0.0
H989 H 0.88969 0.85609 0.66817 0.0
C990 C 0.79567 0.07298 0.40276 0.0
C991 C 0.79961 0.04642 0.40107 0.0
N992 N 0.82018 0.04197 0.41617 0.0
N993 N 0.81423 0.08504 0.41824 0.0
C994 C 0.82819 0.06557 0.42687 0.0
H995 H 0.78221 0.08319 0.39111 0.0
Co996 Co 0.82358 0.12057 0.42009 0.0
C997 C 0.88057 0.12397 0.4137 0.0
O998 O 0.87679 0.14332 0.39799 0.0
N999 N 0.83265 0.15687 0.42345 0.0
C1000 C 0.85103 0.19384 0.44168 0.0
C1001 C 0.84952 0.16687 0.44204 0.0
C1002 C 0.82322 0.17844 0.41296 0.0
N1003 N 0.8345 0.20101 0.42331 0.0
O1004 O 0.81532 0.12175 0.45706 0.0
H1005 H 0.86001 0.15522 0.45531 0.0
H1006 H 0.80761 0.17817 0.399 0.0
O1007 O 0.86129 0.1132 0.4259 0.0
C1008 C 0.79189 0.12806 0.45832 0.0
O1009 O 0.77911 0.12994 0.43628 0.0
N1010 N 0.82907 0.11929 0.38321 0.0
C1011 C 0.84676 0.12661 0.33324 0.0
C1012 C 0.85461 0.10537 0.3474 0.0
C1013 C 0.8451 0.10171 0.3723 0.0
C1014 C 0.8165 0.13532 0.3672 0.0
C1015 C 0.82579 0.14021 0.34225 0.0
H1016 H 0.85275 0.08638 0.38365 0.0
H1017 H 0.79993 0.14508 0.37396 0.0
H1018 H 0.84603 0.06893 0.43789 0.0
H1019 H 0.79007 0.0321 0.38752 0.0
H1020 H 0.86365 0.20713 0.45365 0.0
H1021 H 0.8696 0.09322 0.34025 0.0
H1022 H 0.81792 0.15563 0.33107 0.0
C1023 C 0.59893 0.11219 0.17126 0.0
C1024 C 0.57257 0.10957 0.16775 0.0
N1025 N 0.56745 0.09753 0.14441 0.0
N1026 N 0.61041 0.10177 0.15026 0.0
C1027 C 0.59062 0.09293 0.1342 0.0
H1028 H 0.60917 0.12185 0.18774 0.0
Co1029 Co 0.64622 0.10288 0.1458 0.0
C1030 C 0.65385 0.10224 0.08842 0.0
O1031 O 0.67564 0.11627 0.09271 0.0
N1032 N 0.68292 0.1035 0.14196 0.0
C1033 C 0.72145 0.09049 0.12978 0.0
C1034 C 0.69552 0.08331 0.13134 0.0
C1035 C 0.7021 0.12229 0.14758 0.0
N1036 N 0.7255 0.11523 0.13982 0.0
O1037 O 0.64673 0.06582 0.15463 0.0
H1038 H 0.68626 0.06485 0.12398 0.0
H1039 H 0.69953 0.14092 0.15727 0.0
O1040 O 0.64084 0.09386 0.10791 0.0
C1041 C 0.64519 0.06176 0.17899 0.0
O1042 O 0.64201 0.08194 0.195 0.0
N1043 N 0.64535 0.13955 0.13928 0.0
C1044 C 0.65323 0.19256 0.12747 0.0
C1045 C 0.63757 0.1752 0.11138 0.0
C1046 C 0.63331 0.14892 0.11801 0.0
C1047 C 0.65577 0.15715 0.15768 0.0
C1048 C 0.66096 0.18368 0.15179 0.0
H1049 H 0.62087 0.13608 0.10558 0.0
H1050 H 0.66211 0.15015 0.17622 0.0
H1051 H 0.59297 0.08354 0.11535 0.0
H1052 H 0.55827 0.11698 0.18078 0.0
H1053 H 0.73592 0.07877 0.12095 0.0
H1054 H 0.62921 0.18166 0.09344 0.0
H1055 H 0.67204 0.19656 0.16553 0.0
C1056 C 0.66888 0.92881 0.93167 0.0
C1057 C 0.66931 0.95512 0.92586 0.0
N1058 N 0.64507 0.96142 0.92027 0.0
N1059 N 0.64454 0.91819 0.92956 0.0
C1060 C 0.63037 0.9387 0.92281 0.0
H1061 H 0.68548 0.91776 0.93602 0.0
Co1062 Co 0.63651 0.88145 0.93207 0.0
C1063 C 0.5791 0.87477 0.9329 0.0
O1064 O 0.58067 0.85065 0.92334 0.0
N1065 N 0.62896 0.84347 0.9346 0.0
C1066 C 0.61751 0.80489 0.95238 0.0
C1067 C 0.62041 0.83187 0.95647 0.0
C1068 C 0.63075 0.82254 0.91733 0.0
N1069 N 0.62381 0.79901 0.92769 0.0
O1070 O 0.64552 0.88466 0.96905 0.0
H1071 H 0.61629 0.84238 0.97442 0.0
H1072 H 0.63732 0.82403 0.89763 0.0
O1073 O 0.59992 0.88873 0.9388 0.0
C1074 C 0.66532 0.87316 0.97687 0.0
O1075 O 0.67705 0.85781 0.96038 0.0
N1076 N 0.63062 0.87932 0.89613 0.0
C1077 C 0.62496 0.87187 0.84272 0.0
C1078 C 0.60659 0.88489 0.857 0.0
C1079 C 0.61 0.88886 0.88361 0.0
C1080 C 0.65028 0.86969 0.8821 0.0
C1081 C 0.64766 0.86522 0.85521 0.0
H1082 H 0.59599 0.89984 0.89372 0.0
H1083 H 0.66748 0.86411 0.8921 0.0
H1084 H 0.61001 0.93681 0.91823 0.0
H1085 H 0.68635 0.96838 0.92472 0.0
H1086 H 0.61119 0.79062 0.96649 0.0
H1087 H 0.58962 0.89193 0.84765 0.0
H1088 H 0.66271 0.85595 0.84453 0.0
C1089 C 0.85355 0.09364 0.82458 0.0
C1090 C 0.82732 0.09393 0.82776 0.0
N1091 N 0.81992 0.11778 0.82117 0.0
N1092 N 0.86257 0.1174 0.81655 0.0
C1093 C 0.84153 0.1316 0.81425 0.0
H1094 H 0.86556 0.07778 0.8294 0.0
Co1095 Co 0.89725 0.12773 0.81491 0.0
C1096 C 0.90157 0.18646 0.82468 0.0
O1097 O 0.92298 0.18265 0.83743 0.0
N1098 N 0.93307 0.13802 0.81265 0.0
C1099 C 0.96871 0.15913 0.798 0.0
C1100 C 0.94316 0.15188 0.79275 0.0
C1101 C 0.95331 0.13666 0.82945 0.0
N1102 N 0.97486 0.14944 0.82106 0.0
O1103 O 0.89545 0.12051 0.7772 0.0
H1104 H 0.93219 0.15781 0.77615 0.0
H1105 H 0.95256 0.12797 0.8482 0.0
O1106 O 0.88894 0.16659 0.81306 0.0
C1107 C 0.90688 0.09965 0.77053 0.0
O1108 O 0.92009 0.08814 0.78841 0.0
N1109 N 0.89809 0.13066 0.85153 0.0
C1110 C 0.90503 0.13811 0.90502 0.0
C1111 C 0.88816 0.15333 0.89119 0.0
C1112 C 0.88386 0.14809 0.86481 0.0
C1113 C 0.91037 0.11241 0.86505 0.0
C1114 C 0.9146 0.11604 0.89188 0.0
H1115 H 0.8696 0.1585 0.85489 0.0
H1116 H 0.91847 0.09602 0.85471 0.0
H1117 H 0.84215 0.15225 0.80965 0.0
H1118 H 0.81483 0.0784 0.83561 0.0
H1119 H 0.98137 0.1717 0.78654 0.0
H1120 H 0.87883 0.16977 0.89999 0.0
H1121 H 0.92575 0.10207 0.90189 0.0
C1122 C 0.64361 0.19999 0.58355 0.0
C1123 C 0.64283 0.22628 0.59069 0.0
N1124 N 0.6597 0.23194 0.61045 0.0
N1125 N 0.66013 0.1884 0.59942 0.0
C1126 C 0.67105 0.20892 0.61423 0.0
H1127 H 0.63043 0.18936 0.56991 0.0
Co1128 Co 0.65708 0.15087 0.60456 0.0
C1129 C 0.65968 0.17096 0.66388 0.0
O1130 O 0.65571 0.19604 0.66199 0.0
N1131 N 0.65288 0.11342 0.61006 0.0
C1132 C 0.63455 0.07791 0.62855 0.0
C1133 C 0.63983 0.10452 0.63101 0.0
C1134 C 0.65539 0.09107 0.59503 0.0
N1135 N 0.64405 0.06927 0.60594 0.0
O1136 O 0.69388 0.14836 0.59936 0.0
H1137 H 0.63254 0.11676 0.64645 0.0
H1138 H 0.66376 0.09101 0.57587 0.0
O1139 O 0.66032 0.15571 0.64347 0.0
C1140 C 0.69688 0.14845 0.57464 0.0
O1141 O 0.67643 0.15094 0.55981 0.0
N1142 N 0.62142 0.15215 0.60581 0.0
C1143 C 0.56841 0.14556 0.60702 0.0
C1144 C 0.58154 0.16447 0.62351 0.0
C1145 C 0.60825 0.1675 0.62257 0.0
C1146 C 0.60858 0.13604 0.58753 0.0
C1147 C 0.58193 0.13181 0.58826 0.0
H1148 H 0.61819 0.18179 0.63552 0.0
H1149 H 0.61927 0.1252 0.57328 0.0
H1150 H 0.68536 0.20657 0.62929 0.0
H1151 H 0.62886 0.23952 0.58378 0.0
H1152 H 0.62375 0.0658 0.64208 0.0
H1153 H 0.57143 0.17544 0.63819 0.0
H1154 H 0.57217 0.1171 0.57525 0.0
C1155 C 0.7258 0.95099 0.33611 0.0
C1156 C 0.75069 0.94321 0.33806 0.0
N1157 N 0.75142 0.91894 0.32689 0.0
N1158 N 0.71078 0.93143 0.32427 0.0
C1159 C 0.72714 0.9124 0.31842 0.0
H1160 H 0.71861 0.96863 0.34502 0.0
Co1161 Co 0.67465 0.92883 0.32535 0.0
C1162 C 0.66016 0.87064 0.32957 0.0
O1163 O 0.63727 0.87599 0.3379 0.0
N1164 N 0.63739 0.92642 0.32637 0.0
C1165 C 0.59702 0.91656 0.31233 0.0
C1166 C 0.62229 0.91997 0.30522 0.0
C1167 C 0.6202 0.92704 0.34619 0.0
N1168 N 0.59552 0.92077 0.33827 0.0
O1169 O 0.67266 0.93457 0.28823 0.0
H1170 H 0.62912 0.91602 0.28582 0.0
H1171 H 0.62557 0.93002 0.36635 0.0
O1172 O 0.6752 0.88936 0.32101 0.0
C1173 C 0.67258 0.95949 0.28538 0.0
O1174 O 0.67666 0.975 0.30617 0.0
N1175 N 0.6774 0.92657 0.36143 0.0
C1176 C 0.67328 0.92287 0.41475 0.0
C1177 C 0.68518 0.90339 0.40003 0.0
C1178 C 0.68775 0.90606 0.37343 0.0
C1179 C 0.6705 0.94795 0.37585 0.0
C1180 C 0.66765 0.9463 0.40272 0.0
H1181 H 0.69727 0.89112 0.36254 0.0
H1182 H 0.66471 0.96528 0.36615 0.0
H1183 H 0.72116 0.89325 0.31001 0.0
H1184 H 0.76651 0.95361 0.34874 0.0
H1185 H 0.58136 0.90964 0.29933 0.0
H1186 H 0.69082 0.88529 0.40839 0.0
H1187 H 0.65961 0.96241 0.41358 0.0
C1188 C 0.82722 0.82912 0.07656 0.0
C1189 C 0.82716 0.80205 0.07728 0.0
N1190 N 0.81552 0.79446 0.09927 0.0
N1191 N 0.81642 0.83828 0.09848 0.0
C1192 C 0.80893 0.81672 0.11158 0.0
H1193 H 0.83656 0.84145 0.06229 0.0
Co1194 Co 0.81678 0.8728 0.11019 0.0
C1195 C 0.83078 0.87339 0.16685 0.0
O1196 O 0.84515 0.89483 0.16219 0.0
N1197 N 0.81574 0.9083 0.1218 0.0
C1198 C 0.80276 0.94342 0.14404 0.0
C1199 C 0.79899 0.9166 0.1398 0.0
C1200 C 0.82867 0.93072 0.11468 0.0
N1201 N 0.82165 0.95208 0.12831 0.0
O1202 O 0.77946 0.87073 0.10637 0.0
H1203 H 0.78519 0.90378 0.14966 0.0
H1204 H 0.84257 0.93208 0.0995 0.0
O1205 O 0.81678 0.86198 0.14822 0.0
C1206 C 0.77179 0.88325 0.08677 0.0
O1207 O 0.78885 0.89795 0.07423 0.0
N1208 N 0.85358 0.87382 0.11087 0.0
C1209 C 0.90665 0.87863 0.11828 0.0
C1210 C 0.89211 0.85765 0.12881 0.0
C1211 C 0.86562 0.85537 0.12454 0.0
C1212 C 0.86817 0.89005 0.09548 0.0
C1213 C 0.89487 0.89383 0.09979 0.0
H1214 H 0.85469 0.83931 0.13324 0.0
H1215 H 0.85918 0.90038 0.08014 0.0
H1216 H 0.80132 0.81735 0.13106 0.0
H1217 H 0.837 0.78921 0.06401 0.0
H1218 H 0.79303 0.95544 0.15814 0.0
H1219 H 0.90097 0.84388 0.14129 0.0
H1220 H 0.90584 0.90895 0.08957 0.0
C1221 C 0.1489 0.69971 0.08427 0.0
C1222 C 0.14499 0.72559 0.09102 0.0
N1223 N 0.14781 0.72912 0.11706 0.0
N1224 N 0.15439 0.68652 0.10576 0.0
C1225 C 0.15388 0.70512 0.12546 0.0
H1226 H 0.14648 0.69075 0.06496 0.0
Co1227 Co 0.15551 0.64908 0.10522 0.0
C1228 C 0.15332 0.63333 0.16067 0.0
O1229 O 0.14088 0.61156 0.15179 0.0
N1230 N 0.15696 0.61079 0.10404 0.0
C1231 C 0.17477 0.57207 0.10849 0.0
C1232 C 0.17891 0.59905 0.11002 0.0
C1233 C 0.1396 0.58982 0.09916 0.0
N1234 N 0.14997 0.56621 0.10181 0.0
O1235 O 0.19196 0.6516 0.0956 0.0
H1236 H 0.19685 0.60938 0.1162 0.0
H1237 H 0.1195 0.59126 0.09454 0.0
O1238 O 0.16241 0.65011 0.14427 0.0
C1239 C 0.19269 0.64862 0.07072 0.0
O1240 O 0.17067 0.64783 0.05778 0.0
N1241 N 0.12007 0.64697 0.11068 0.0
C1242 C 0.06837 0.63483 0.11824 0.0
C1243 C 0.08283 0.65045 0.13679 0.0
C1244 C 0.10872 0.65662 0.13247 0.0
C1245 C 0.10515 0.63686 0.09029 0.0
C1246 C 0.07914 0.62961 0.09393 0.0
H1247 H 0.11969 0.66812 0.14722 0.0
H1248 H 0.11406 0.63188 0.07202 0.0
H1249 H 0.15622 0.70084 0.14573 0.0
H1250 H 0.13968 0.74047 0.0777 0.0
H1251 H 0.18867 0.55785 0.11319 0.0
H1252 H 0.07458 0.65659 0.15509 0.0
H1253 H 0.06827 0.61851 0.07867 0.0
C1254 C 0.22721 0.45382 0.84253 0.0
C1255 C 0.25167 0.44509 0.84605 0.0
N1256 N 0.25289 0.42157 0.83331 0.0
N1257 N 0.21284 0.43581 0.82783 0.0
C1258 C 0.22932 0.41679 0.822 0.0
H1259 H 0.21974 0.471 0.85206 0.0
Co1260 Co 0.1763 0.43273 0.8263 0.0
C1261 C 0.17791 0.37056 0.81351 0.0
O1262 O 0.18279 0.36504 0.789 0.0
N1263 N 0.13935 0.42784 0.825 0.0
C1264 C 0.10137 0.40927 0.81124 0.0
C1265 C 0.12707 0.41312 0.80573 0.0
C1266 C 0.12017 0.43296 0.84193 0.0
N1267 N 0.09691 0.42161 0.83418 0.0
O1268 O 0.17681 0.4395 0.78873 0.0
H1269 H 0.1365 0.40449 0.78917 0.0
H1270 H 0.12294 0.44423 0.85993 0.0
O1271 O 0.17689 0.39459 0.82125 0.0
C1272 C 0.16515 0.45969 0.78149 0.0
O1273 O 0.15264 0.4732 0.79893 0.0
N1274 N 0.17654 0.42929 0.86228 0.0
C1275 C 0.1703 0.42442 0.91531 0.0
C1276 C 0.1826 0.40519 0.90066 0.0
C1277 C 0.18614 0.40838 0.87424 0.0
C1278 C 0.16862 0.45015 0.8768 0.0
C1279 C 0.16457 0.44786 0.90343 0.0
H1280 H 0.1961 0.39369 0.86346 0.0
H1281 H 0.16357 0.46785 0.86728 0.0
H1282 H 0.22367 0.39858 0.81149 0.0
H1283 H 0.2669 0.45474 0.85808 0.0
H1284 H 0.08742 0.397 0.79979 0.0
H1285 H 0.18811 0.38703 0.90901 0.0
H1286 H 0.15604 0.46368 0.91429 0.0
C1287 C 0.32321 0.32315 0.57168 0.0
C1288 C 0.32192 0.29601 0.57219 0.0
N1289 N 0.30967 0.28877 0.59397 0.0
N1290 N 0.31234 0.33267 0.59338 0.0
C1291 C 0.30363 0.31132 0.60609 0.0
H1292 H 0.33355 0.33517 0.55779 0.0
Co1293 Co 0.31412 0.36706 0.60529 0.0
C1294 C 0.30712 0.34962 0.66556 0.0
O1295 O 0.28451 0.33951 0.67255 0.0
N1296 N 0.31555 0.40209 0.61691 0.0
C1297 C 0.31442 0.43909 0.64101 0.0
C1298 C 0.30696 0.41266 0.6394 0.0
C1299 C 0.327 0.42265 0.60475 0.0
N1300 N 0.32727 0.4451 0.61926 0.0
O1301 O 0.27699 0.36746 0.59942 0.0
H1302 H 0.29669 0.40185 0.65418 0.0
H1303 H 0.33524 0.42144 0.58566 0.0
O1304 O 0.30991 0.35648 0.6419 0.0
C1305 C 0.26829 0.38149 0.58143 0.0
O1306 O 0.28435 0.39792 0.56964 0.0
N1307 N 0.35047 0.36597 0.60914 0.0
C1308 C 0.40318 0.37126 0.61967 0.0
C1309 C 0.38735 0.35307 0.63291 0.0
C1310 C 0.36114 0.35023 0.62685 0.0
C1311 C 0.36628 0.38014 0.59303 0.0
C1312 C 0.39276 0.38373 0.5984 0.0
H1313 H 0.34947 0.33572 0.63693 0.0
H1314 H 0.3584 0.38911 0.57623 0.0
H1315 H 0.29561 0.31206 0.62536 0.0
H1316 H 0.3319 0.28289 0.55933 0.0
H1317 H 0.31199 0.45246 0.65752 0.0
H1318 H 0.39504 0.34168 0.64835 0.0
H1319 H 0.40466 0.39687 0.58674 0.0
C1320 C 0.10359 0.62767 0.66869 0.0
C1321 C 0.07719 0.62623 0.66516 0.0
N1322 N 0.07089 0.60654 0.64768 0.0
N1323 N 0.11389 0.60932 0.65304 0.0
C1324 C 0.09333 0.59632 0.64101 0.0
H1325 H 0.11465 0.64224 0.68073 0.0
Co1326 Co 0.14872 0.60755 0.64472 0.0
C1327 C 0.13167 0.58675 0.58907 0.0
O1328 O 0.12774 0.56145 0.59324 0.0
N1329 N 0.18388 0.60602 0.63571 0.0
C1330 C 0.22009 0.60183 0.61349 0.0
C1331 C 0.19388 0.59582 0.61369 0.0
C1332 C 0.20464 0.61728 0.64888 0.0
N1333 N 0.22678 0.61553 0.63564 0.0
O1334 O 0.14651 0.56955 0.65154 0.0
H1335 H 0.18298 0.58503 0.59836 0.0
H1336 H 0.20359 0.62707 0.66772 0.0
O1337 O 0.13918 0.60269 0.60775 0.0
C1338 C 0.15965 0.56299 0.67139 0.0
O1339 O 0.1745 0.58126 0.68379 0.0
N1340 N 0.15111 0.64465 0.64083 0.0
C1341 C 0.16015 0.699 0.63582 0.0
C1342 C 0.14432 0.68404 0.61782 0.0
C1343 C 0.13951 0.65703 0.62106 0.0
C1344 C 0.16402 0.65939 0.66009 0.0
C1345 C 0.16921 0.68656 0.65778 0.0
H1346 H 0.12611 0.64634 0.60782 0.0
H1347 H 0.17042 0.65003 0.67737 0.0
H1348 H 0.09475 0.58062 0.62652 0.0
H1349 H 0.06373 0.63905 0.6742 0.0
H1350 H 0.23315 0.59653 0.59822 0.0
H1351 H 0.13561 0.69319 0.60141 0.0
H1352 H 0.18067 0.69754 0.67269 0.0
C1353 C 0.4635 0.43213 0.16778 0.0
C1354 C 0.48983 0.43135 0.1652 0.0
N1355 N 0.49599 0.43972 0.14141 0.0
N1356 N 0.45328 0.44045 0.14548 0.0
C1357 C 0.47363 0.4451 0.12983 0.0
H1358 H 0.45237 0.42604 0.18441 0.0
Co1359 Co 0.4184 0.44243 0.13814 0.0
C1360 C 0.4114 0.42951 0.08112 0.0
O1361 O 0.38909 0.41775 0.0868 0.0
N1362 N 0.38263 0.44536 0.13078 0.0
C1363 C 0.34795 0.46271 0.114 0.0
C1364 C 0.37433 0.4648 0.11602 0.0
C1365 C 0.36055 0.43179 0.13765 0.0
N1366 N 0.33928 0.44191 0.12759 0.0
O1367 O 0.42308 0.48059 0.14193 0.0
H1368 H 0.38681 0.47944 0.10684 0.0
H1369 H 0.35956 0.41507 0.14998 0.0
O1370 O 0.42536 0.4414 0.09941 0.0
C1371 C 0.4126 0.48905 0.16276 0.0
O1372 O 0.39913 0.47214 0.17674 0.0
N1373 N 0.41479 0.40548 0.13806 0.0
C1374 C 0.40792 0.35103 0.13928 0.0
C1375 C 0.42442 0.36286 0.1212 0.0
C1376 C 0.42807 0.39012 0.12134 0.0
C1377 C 0.40211 0.3942 0.15834 0.0
C1378 C 0.3977 0.36679 0.15895 0.0
H1379 H 0.44171 0.39877 0.10808 0.0
H1380 H 0.39476 0.40658 0.17371 0.0
H1381 H 0.47213 0.45126 0.10996 0.0
H1382 H 0.50328 0.42432 0.17926 0.0
H1383 H 0.33609 0.47525 0.10294 0.0
H1384 H 0.43408 0.35112 0.10677 0.0
H1385 H 0.3858 0.35818 0.17398 0.0
C1386 C 0.69751 0.47601 0.11876 0.0
C1387 C 0.68738 0.50017 0.12363 0.0
N1388 N 0.6658 0.50146 0.10905 0.0
N1389 N 0.68236 0.46163 0.10137 0.0
C1390 C 0.66332 0.47795 0.09549 0.0
H1391 H 0.71392 0.46863 0.12872 0.0
Co1392 Co 0.68482 0.42434 0.09618 0.0
C1393 C 0.63073 0.40243 0.08984 0.0
O1394 O 0.63767 0.38145 0.10173 0.0
N1395 N 0.68714 0.38692 0.09069 0.0
C1396 C 0.68008 0.34809 0.06932 0.0
C1397 C 0.68023 0.37495 0.06754 0.0
C1398 C 0.69165 0.36635 0.10613 0.0
N1399 N 0.68698 0.34253 0.09375 0.0
O1400 O 0.69739 0.42828 0.06001 0.0
H1401 H 0.67331 0.385 0.05086 0.0
H1402 H 0.69706 0.3683 0.12636 0.0
O1403 O 0.64779 0.42094 0.08492 0.0
C1404 C 0.72184 0.43163 0.05665 0.0
O1405 O 0.7366 0.438 0.0771 0.0
N1406 N 0.67517 0.42043 0.1316 0.0
C1407 C 0.66126 0.4092 0.18234 0.0
C1408 C 0.64425 0.42119 0.16586 0.0
C1409 C 0.65192 0.42745 0.14084 0.0
C1410 C 0.6932 0.41233 0.14866 0.0
C1411 C 0.68644 0.40581 0.17408 0.0
H1412 H 0.63901 0.4378 0.12894 0.0
H1413 H 0.71258 0.4096 0.1421 0.0
H1414 H 0.64698 0.47211 0.08291 0.0
H1415 H 0.69487 0.51535 0.13749 0.0
H1416 H 0.67324 0.33385 0.05429 0.0
H1417 H 0.62517 0.42564 0.17227 0.0
H1418 H 0.70048 0.3978 0.1869 0.0
C1419 C 0.84021 0.57421 0.61708 0.0
C1420 C 0.84035 0.54745 0.62011 0.0
N1421 N 0.85908 0.53771 0.60533 0.0
N1422 N 0.85892 0.58173 0.60058 0.0
C1423 C 0.8683 0.55873 0.59196 0.0
H1424 H 0.8295 0.58772 0.62877 0.0
Co1425 Co 0.87233 0.61721 0.6 0.0
C1426 C 0.92575 0.58952 0.5983 0.0
O1427 O 0.91818 0.56605 0.60615 0.0
N1428 N 0.88562 0.65261 0.59986 0.0
C1429 C 0.91188 0.6873 0.61157 0.0
C1430 C 0.90799 0.66054 0.61227 0.0
C1431 C 0.87596 0.67536 0.59208 0.0
N1432 N 0.8918 0.69664 0.59892 0.0
O1433 O 0.86481 0.61795 0.56244 0.0
H1434 H 0.91984 0.64789 0.62314 0.0
H1435 H 0.85708 0.67659 0.58328 0.0
O1436 O 0.90931 0.60725 0.59534 0.0
C1437 C 0.84203 0.62621 0.56018 0.0
O1438 O 0.82924 0.63039 0.58167 0.0
N1439 N 0.87628 0.61838 0.63699 0.0
C1440 C 0.88435 0.62985 0.69016 0.0
C1441 C 0.89616 0.60884 0.67776 0.0
C1442 C 0.89149 0.60313 0.65128 0.0
C1443 C 0.86275 0.63728 0.64932 0.0
C1444 C 0.86661 0.64348 0.6759 0.0
H1445 H 0.90041 0.58672 0.64251 0.0
H1446 H 0.84983 0.64861 0.63814 0.0
H1447 H 0.88349 0.55768 0.57791 0.0
H1448 H 0.83029 0.53679 0.63521 0.0
H1449 H 0.92736 0.69926 0.62123 0.0
H1450 H 0.90936 0.59727 0.68836 0.0
H1451 H 0.85687 0.65966 0.68484 0.0
C1452 C 0.65895 0.4415 0.6784 0.0
C1453 C 0.68504 0.4395 0.67578 0.0
N1454 N 0.69135 0.4163 0.68539 0.0
N1455 N 0.64891 0.41967 0.68955 0.0
C1456 C 0.66912 0.405 0.69412 0.0
H1457 H 0.64781 0.45719 0.6714 0.0
Co1458 Co 0.61428 0.41137 0.69404 0.0
C1459 C 0.60791 0.35206 0.69198 0.0
O1460 O 0.58513 0.35523 0.6816 0.0
N1461 N 0.57872 0.40361 0.69964 0.0
C1462 C 0.5434 0.38906 0.72023 0.0
C1463 C 0.56979 0.39286 0.72175 0.0
C1464 C 0.55711 0.40672 0.68532 0.0
N1465 N 0.53554 0.39766 0.69716 0.0
O1466 O 0.61777 0.42476 0.72996 0.0
H1467 H 0.58186 0.38734 0.73773 0.0
H1468 H 0.5566 0.41547 0.66661 0.0
O1469 O 0.62161 0.37271 0.7007 0.0
C1470 C 0.61366 0.44929 0.7277 0.0
O1471 O 0.60777 0.45741 0.70448 0.0
N1472 N 0.61135 0.40281 0.65827 0.0
C1473 C 0.60257 0.38956 0.60616 0.0
C1474 C 0.62012 0.37604 0.62075 0.0
C1475 C 0.62487 0.38362 0.64658 0.0
C1476 C 0.59836 0.41928 0.64317 0.0
C1477 C 0.59276 0.41245 0.6171 0.0
H1478 H 0.63932 0.37393 0.65712 0.0
H1479 H 0.59134 0.43717 0.65171 0.0
H1480 H 0.66744 0.38588 0.70273 0.0
H1481 H 0.69791 0.45327 0.6659 0.0
H1482 H 0.53108 0.37986 0.73457 0.0
H1483 H 0.63004 0.35973 0.61231 0.0
H1484 H 0.58039 0.42446 0.60599 0.0
C1485 C 0.28255 0.5717 0.89986 0.0
C1486 C 0.28462 0.54486 0.8972 0.0
N1487 N 0.30732 0.53896 0.90794 0.0
N1488 N 0.30399 0.58248 0.91197 0.0
C1489 C 0.3179 0.56197 0.91797 0.0
H1490 H 0.26807 0.58288 0.89073 0.0
Co1491 Co 0.31608 0.61739 0.91159 0.0
C1492 C 0.37236 0.60454 0.9017 0.0
O1493 O 0.37029 0.60912 0.87693 0.0
N1494 N 0.32855 0.65237 0.91207 0.0
C1495 C 0.35376 0.6883 0.90624 0.0
C1496 C 0.34942 0.6624 0.89947 0.0
C1497 C 0.32025 0.67297 0.92622 0.0
N1498 N 0.33573 0.69481 0.92333 0.0
O1499 O 0.31089 0.62064 0.94944 0.0
H1500 H 0.36031 0.65231 0.88518 0.0
H1501 H 0.30352 0.67198 0.93851 0.0
O1502 O 0.35325 0.60748 0.91707 0.0
C1503 C 0.28723 0.62035 0.95632 0.0
O1504 O 0.26916 0.61664 0.93824 0.0
N1505 N 0.31798 0.61497 0.87379 0.0
C1506 C 0.33533 0.62081 0.8232 0.0
C1507 C 0.33363 0.59574 0.83415 0.0
C1508 C 0.32462 0.59315 0.85957 0.0
C1509 C 0.31222 0.6368 0.86051 0.0
C1510 C 0.32188 0.64073 0.83559 0.0
H1511 H 0.32716 0.57468 0.86873 0.0
H1512 H 0.30302 0.65281 0.8703 0.0
H1513 H 0.33678 0.56407 0.92708 0.0
H1514 H 0.27201 0.53143 0.88538 0.0
H1515 H 0.36862 0.70168 0.8986 0.0
H1516 H 0.34183 0.57898 0.82454 0.0
H1517 H 0.32092 0.66006 0.82755 0.0
C1518 C 0.16993 0.43126 0.42509 0.0
C1519 C 0.16997 0.45823 0.42279 0.0
N1520 N 0.1478 0.46686 0.43228 0.0
N1521 N 0.14745 0.42234 0.43531 0.0
C1522 C 0.13541 0.44478 0.44136 0.0
H1523 H 0.18379 0.41862 0.41652 0.0
Co1524 Co 0.13483 0.38594 0.43157 0.0
C1525 C 0.08215 0.41326 0.42286 0.0
O1526 O 0.09206 0.4339 0.41119 0.0
N1527 N 0.12221 0.34899 0.42767 0.0
C1528 C 0.09827 0.31591 0.40803 0.0
C1529 C 0.10046 0.34241 0.4137 0.0
C1530 C 0.13307 0.32526 0.43004 0.0
N1531 N 0.11889 0.30467 0.41792 0.0
O1532 O 0.13654 0.38403 0.46914 0.0
H1533 H 0.08874 0.35633 0.40465 0.0
H1534 H 0.15206 0.32351 0.43837 0.0
O1535 O 0.09675 0.39559 0.43146 0.0
C1536 C 0.15805 0.37502 0.47593 0.0
O1537 O 0.17314 0.36655 0.45759 0.0
N1538 N 0.13678 0.38725 0.3947 0.0
C1539 C 0.13112 0.38269 0.34125 0.0
C1540 C 0.12684 0.40648 0.3543 0.0
C1541 C 0.13052 0.4085 0.38101 0.0
C1542 C 0.14615 0.36611 0.38152 0.0
C1543 C 0.14268 0.36294 0.35464 0.0
H1544 H 0.12871 0.42722 0.39034 0.0
H1545 H 0.15513 0.35087 0.39181 0.0
H1546 H 0.11655 0.44483 0.4499 0.0
H1547 H 0.1836 0.46999 0.41157 0.0
H1548 H 0.08368 0.3064 0.39516 0.0
H1549 H 0.11999 0.42307 0.34405 0.0
H1550 H 0.14765 0.34479 0.3448 0.0
C1551 C 0.35345 0.59465 0.31851 0.0
C1552 C 0.32723 0.59568 0.32048 0.0
N1553 N 0.32099 0.6207 0.31662 0.0
N1554 N 0.3637 0.61887 0.31361 0.0
C1555 C 0.34351 0.63417 0.31185 0.0
H1556 H 0.36459 0.57783 0.32228 0.0
Co1557 Co 0.39842 0.6272 0.31545 0.0
C1558 C 0.40619 0.68557 0.32289 0.0
O1559 O 0.42718 0.68081 0.33593 0.0
N1560 N 0.43443 0.63444 0.31664 0.0
C1561 C 0.4731 0.65181 0.30622 0.0
C1562 C 0.44789 0.64734 0.2981 0.0
C1563 C 0.45229 0.63023 0.33515 0.0
N1564 N 0.47563 0.64128 0.32974 0.0
O1565 O 0.40012 0.61969 0.27818 0.0
H1566 H 0.43953 0.65458 0.28055 0.0
H1567 H 0.44879 0.61977 0.35262 0.0
O1568 O 0.39315 0.66611 0.31112 0.0
C1569 C 0.4116 0.59893 0.27167 0.0
O1570 O 0.42274 0.58594 0.28994 0.0
N1571 N 0.39533 0.63217 0.35226 0.0
C1572 C 0.3942 0.64105 0.406 0.0
C1573 C 0.38114 0.65702 0.38932 0.0
C1574 C 0.38116 0.65164 0.3627 0.0
C1575 C 0.40445 0.61394 0.36838 0.0
C1576 C 0.40523 0.61863 0.39542 0.0
H1577 H 0.36966 0.66343 0.35069 0.0
H1578 H 0.41221 0.59625 0.36019 0.0
H1579 H 0.34545 0.65506 0.30874 0.0
H1580 H 0.31419 0.57968 0.32647 0.0
H1581 H 0.48797 0.66325 0.29627 0.0
H1582 H 0.37113 0.67375 0.39671 0.0
H1583 H 0.41407 0.60483 0.40788 0.0
H1584 H 0.10505 0.38209 1.00802 0.0
H1585 H 0.17491 0.34273 0.0217 0.0
H1586 H 0.19662 0.36789 0.9879 0.0
H1587 H 0.19488 0.39888 0.95288 0.0
H1588 H 0.12379 0.43517 0.93605 0.0
H1589 H 0.1039 0.41487 0.97379 0.0
C1590 C 0.12498 0.37905 1.00339 0.0
C1591 C 0.13819 0.36017 0.01666 0.0
C1592 C 0.13726 0.39351 0.9839 0.0
C1593 C 0.16412 0.35651 0.011 0.0
C1594 C 0.17663 0.37117 0.99201 0.0
C1595 C 0.17507 0.40246 0.95755 0.0
C1596 C 0.16075 0.41811 0.94146 0.0
C1597 C 0.16326 0.3894 0.97811 0.0
C1598 C 0.13536 0.42332 0.94822 0.0
C1599 C 0.1238 0.41134 0.96952 0.0
H1600 H 0.8638 0.85546 0.28282 0.0
H1601 H 0.92845 0.82445 0.24293 0.0
H1602 H 0.90607 0.82736 0.2012 0.0
H1603 H 0.8704 0.8427 0.17583 0.0
H1604 H 0.80707 0.87766 0.21392 0.0
H1605 H 0.82586 0.86832 0.25643 0.0
C1606 C 0.8727 0.84884 0.26503 0.0
C1607 C 0.89792 0.83976 0.2661 0.0
C1608 C 0.85977 0.85108 0.24077 0.0
C1609 C 0.90928 0.83169 0.24273 0.0
C1610 C 0.89642 0.83327 0.21883 0.0
C1611 C 0.86019 0.84753 0.19328 0.0
C1612 C 0.83688 0.86021 0.19145 0.0
C1613 C 0.87192 0.84341 0.21755 0.0
C1614 C 0.82453 0.86707 0.21463 0.0
C1615 C 0.8356 0.86213 0.23901 0.0
H1616 H 0.37727 0.67185 0.52343 0.0
H1617 H 0.45795 0.65812 0.52925 0.0
H1618 H 0.45942 0.65066 0.48168 0.0
H1619 H 0.43588 0.64324 0.43918 0.0
H1620 H 0.35407 0.65373 0.43594 0.0
H1621 H 0.35461 0.66658 0.48193 0.0
C1622 C 0.39526 0.66765 0.51414 0.0
C1623 C 0.41737 0.6653 0.52957 0.0
C1624 C 0.39549 0.66209 0.48741 0.0
C1625 C 0.44074 0.66019 0.51757 0.0
C1626 C 0.44142 0.6555 0.49052 0.0
C1627 C 0.41823 0.64819 0.4487 0.0
C1628 C 0.39494 0.64747 0.43426 0.0
C1629 C 0.41863 0.65544 0.47538 0.0
C1630 C 0.37222 0.6543 0.44661 0.0
C1631 C 0.37251 0.66169 0.47288 0.0
H1632 H 0.61306 0.15211 0.6779 0.0
H1633 H 0.69082 0.16767 0.70663 0.0
H1634 H 0.67656 0.15976 0.75125 0.0
H1635 H 0.64106 0.15228 0.78227 0.0
H1636 H 0.56283 0.14074 0.75276 0.0
H1637 H 0.57811 0.1431 0.70839 0.0
C1638 C 0.62697 0.1529 0.69388 0.0
C1639 C 0.65303 0.15966 0.68907 0.0
C1640 C 0.6184 0.14956 0.71941 0.0
C1641 C 0.67078 0.16172 0.70992 0.0
C1642 C 0.66254 0.15757 0.73541 0.0
C1643 C 0.62732 0.15038 0.76619 0.0
C1644 C 0.60072 0.14634 0.77112 0.0
C1645 C 0.63624 0.15221 0.74048 0.0
C1646 C 0.58336 0.14353 0.7498 0.0
C1647 C 0.59208 0.14497 0.7243 0.0
H1648 H 0.09526 0.61945 0.47703 0.0
H1649 H 0.13563 0.69279 0.50331 0.0
H1650 H 0.14698 0.67311 0.54369 0.0
H1651 H 0.14744 0.63487 0.57115 0.0
H1652 H 0.10445 0.56257 0.54758 0.0
H1653 H 0.09365 0.58164 0.50591 0.0
C1654 C 0.10657 0.63134 0.49134 0.0
C1655 C 0.11482 0.65776 0.48622 0.0
C1656 C 0.11309 0.61988 0.51503 0.0
C1657 C 0.12911 0.67247 0.50586 0.0
C1658 C 0.13575 0.66117 0.52924 0.0
C1659 C 0.13502 0.62345 0.55736 0.0
C1660 C 0.1262 0.59751 0.56301 0.0
C1661 C 0.12807 0.63487 0.53394 0.0
C1662 C 0.11143 0.58262 0.54397 0.0
C1663 C 0.10508 0.59361 0.52017 0.0
H1664 H 0.65702 0.88115 0.80221 0.0
H1665 H 0.58126 0.84863 0.82138 0.0
H1666 H 0.56885 0.84572 0.77546 0.0
H1667 H 0.57797 0.85695 0.73053 0.0
H1668 H 0.65359 0.88813 0.71036 0.0
H1669 H 0.66795 0.88698 0.75602 0.0
C1670 C 0.63804 0.8729 0.79618 0.0
C1671 C 0.61984 0.86565 0.81495 0.0
C1672 C 0.63096 0.87147 0.76975 0.0
C1673 C 0.59532 0.85486 0.80711 0.0
C1674 C 0.58821 0.85321 0.78095 0.0
C1675 C 0.59755 0.86339 0.73632 0.0
C1676 C 0.61461 0.87319 0.71773 0.0
C1677 C 0.60555 0.86234 0.76225 0.0
C1678 C 0.64021 0.88083 0.72481 0.0
C1679 C 0.64834 0.88015 0.75076 0.0
H1680 H 0.45502 0.36853 0.98421 0.0
H1681 H 0.38531 0.3937 0.94928 0.0
H1682 H 0.37665 0.41984 0.98881 0.0
H1683 H 0.38672 0.43184 0.03484 0.0
H1684 H 0.45859 0.41086 0.06874 0.0
H1685 H 0.46886 0.38712 0.02829 0.0
C1686 C 0.43812 0.38 0.98531 0.0
C1687 C 0.42054 0.37893 0.96407 0.0
C1688 C 0.4337 0.39568 1.00792 0.0
C1689 C 0.39893 0.39416 0.96545 0.0
C1690 C 0.39401 0.40906 0.98804 0.0
C1691 C 0.40502 0.42279 0.03309 0.0
C1692 C 0.42169 0.42296 0.05494 0.0
C1693 C 0.41098 0.40957 1.00958 0.0
C1694 C 0.44532 0.41107 0.05236 0.0
C1695 C 0.45112 0.39726 0.02921 0.0
H1696 H 0.93307 0.17193 0.25952 0.0
H1697 H 0.86849 0.17141 0.20575 0.0
H1698 H 0.8395 0.15583 0.23936 0.0
H1699 H 0.83255 0.13984 0.28394 0.0
H1700 H 0.89798 0.1378 0.33618 0.0
H1701 H 0.9264 0.15607 0.30327 0.0
C1702 C 0.91266 0.16848 0.25514 0.0
C1703 C 0.90324 0.17312 0.23011 0.0
C1704 C 0.89613 0.15852 0.27427 0.0
C1705 C 0.87654 0.16871 0.22491 0.0
C1706 C 0.85983 0.15939 0.2441 0.0
C1707 C 0.85303 0.1434 0.28796 0.0
C1708 C 0.86325 0.13705 0.31224 0.0
C1709 C 0.86944 0.15386 0.26878 0.0
C1710 C 0.88978 0.14188 0.31738 0.0
C1711 C 0.90603 0.15259 0.29867 0.0
H1712 H 0.90534 0.10765 0.37086 0.0
H1713 H 0.91377 0.11586 0.45418 0.0
H1714 H 0.95966 0.10711 0.45083 0.0
H1715 H 0.99845 0.10395 0.42337 0.0
H1716 H 0.98964 0.09563 0.34016 0.0
H1717 H 0.94265 0.09707 0.34403 0.0
C1718 C 0.91706 0.10684 0.38833 0.0
C1719 C 0.9062 0.11249 0.41277 0.0
C1720 C 0.94335 0.1019 0.38612 0.0
C1721 C 0.92161 0.11137 0.43524 0.0
C1722 C 0.94788 0.10659 0.43324 0.0
C1723 C 0.98605 0.10148 0.40622 0.0
C1724 C 0.99739 0.0995 0.38147 0.0
C1725 C 0.95913 0.10272 0.40872 0.0
C1726 C 0.98129 0.0967 0.35932 0.0
C1727 C 0.9545 0.09789 0.36159 0.0
H1728 H 0.17855 0.82314 0.63058 0.0
H1729 H 0.19502 0.80104 0.55103 0.0
H1730 H 0.1889 0.75455 0.56081 0.0
H1731 H 0.17625 0.72017 0.59098 0.0
H1732 H 0.1602 0.74115 0.6708 0.0
H1733 H 0.16935 0.78795 0.66212 0.0
C1734 C 0.1813 0.80814 0.61555 0.0
C1735 C 0.18687 0.81564 0.58997 0.0
C1736 C 0.17769 0.78122 0.62132 0.0
C1737 C 0.19023 0.79587 0.57072 0.0
C1738 C 0.1868 0.76924 0.5763 0.0
C1739 C 0.1747 0.735 0.60647 0.0
C1740 C 0.16714 0.72727 0.63135 0.0
C1741 C 0.17994 0.76172 0.60133 0.0
C1742 C 0.1659 0.74663 0.65143 0.0
C1743 C 0.17105 0.77339 0.64644 0.0
H1744 H 0.48916 0.94464 0.89632 0.0
H1745 H 0.45608 0.86722 0.87414 0.0
H1746 H 0.4919 0.84685 0.89508 0.0
H1747 H 0.53364 0.85085 0.91677 0.0
H1748 H 0.5691 0.9277 0.93801 0.0
H1749 H 0.53128 0.94851 0.92097 0.0
C1750 C 0.48997 0.92336 0.89624 0.0
C1751 C 0.47042 0.90736 0.8833 0.0
C1752 C 0.51094 0.91173 0.9082 0.0
C1753 C 0.4713 0.8798 0.88349 0.0
C1754 C 0.49165 0.86819 0.8956 0.0
C1755 C 0.53311 0.87218 0.91808 0.0
C1756 C 0.55448 0.88762 0.92836 0.0
C1757 C 0.51174 0.88393 0.90763 0.0
C1758 C 0.55309 0.91523 0.93004 0.0
C1759 C 0.53148 0.92717 0.92013 0.0
H1760 H 0.39055 0.32616 0.09552 0.0
H1761 H 0.40856 0.31279 0.17589 0.0
H1762 H 0.4009 0.26494 0.16783 0.0
H1763 H 0.39344 0.22711 0.13642 0.0
H1764 H 0.37693 0.24179 0.05591 0.0
H1765 H 0.37996 0.28919 0.06539 0.0
C1766 C 0.39272 0.31272 0.11128 0.0
C1767 C 0.40055 0.32266 0.13607 0.0
C1768 C 0.38882 0.28563 0.10637 0.0
C1769 C 0.40267 0.30535 0.15659 0.0
C1770 C 0.39844 0.27811 0.15194 0.0
C1771 C 0.39006 0.24075 0.12114 0.0
C1772 C 0.3853 0.23112 0.09544 0.0
C1773 C 0.39212 0.26802 0.12671 0.0
C1774 C 0.38112 0.24886 0.07569 0.0
C1775 C 0.38273 0.2759 0.08112 0.0
H1776 H 0.02492 0.89911 0.14675 0.0
H1777 H 0.995 0.88725 0.22354 0.0
H1778 H 0.95093 0.88383 0.20581 0.0
H1779 H 0.92152 0.88154 0.16845 0.0
H1780 H 0.95083 0.89082 0.09098 0.0
H1781 H 0.9948 0.89847 0.10897 0.0
C1782 C 0.00865 0.89622 0.15955 0.0
C1783 C 0.01298 0.89342 0.18638 0.0
C1784 C 0.9835 0.89368 0.14909 0.0
C1785 C 0.99194 0.88926 0.20284 0.0
C1786 C 0.96687 0.88734 0.19272 0.0
C1787 C 0.93756 0.88515 0.15546 0.0
C1788 C 0.93312 0.88518 0.12843 0.0
C1789 C 0.96252 0.889 0.16586 0.0
C1790 C 0.95388 0.89063 0.11186 0.0
C1791 C 0.97894 0.89488 0.12214 0.0
H1792 H 0.33857 0.77213 0.37446 0.0
H1793 H 0.41314 0.79603 0.40788 0.0
H1794 H 0.43342 0.76413 0.37958 0.0
H1795 H 0.42987 0.7278 0.34798 0.0
H1796 H 0.35561 0.69995 0.31609 0.0
H1797 H 0.33538 0.73552 0.3402 0.0
C1798 C 0.3592 0.77012 0.37543 0.0
C1799 C 0.37435 0.78588 0.39359 0.0
C1800 C 0.37077 0.7513 0.35918 0.0
C1801 C 0.40113 0.78359 0.3945 0.0
C1802 C 0.41273 0.76556 0.37817 0.0
C1803 C 0.40925 0.72953 0.3459 0.0
C1804 C 0.39429 0.71068 0.33055 0.0
C1805 C 0.39772 0.74909 0.36075 0.0
C1806 C 0.36768 0.71387 0.32786 0.0
C1807 C 0.35605 0.73411 0.34193 0.0
H1808 H 0.55379 0.09887 0.62558 0.0
H1809 H 0.52546 0.17338 0.60449 0.0
H1810 H 0.4854 0.16325 0.62779 0.0
H1811 H 0.46199 0.13622 0.65953 0.0
H1812 H 0.49137 0.06323 0.68306 0.0
H1813 H 0.52811 0.0696 0.65369 0.0
C1814 C 0.53838 0.11239 0.62544 0.0
C1815 C 0.54211 0.1367 0.61349 0.0
C1816 C 0.51633 0.10708 0.64002 0.0
C1817 C 0.52256 0.15449 0.61356 0.0
C1818 C 0.49997 0.14885 0.6271 0.0
C1819 C 0.4767 0.12197 0.65818 0.0
C1820 C 0.47511 0.09993 0.67383 0.0
C1821 C 0.49731 0.12585 0.64141 0.0
C1822 C 0.49317 0.08071 0.67158 0.0
C1823 C 0.51381 0.08427 0.65472 0.0
H1824 H 0.16792 0.29355 0.90784 0.0
H1825 H 0.22949 0.25773 0.86662 0.0
H1826 H 0.2271 0.28991 0.83286 0.0
H1827 H 0.20792 0.3286 0.81471 0.0
H1828 H 0.14769 0.36573 0.85634 0.0
H1829 H 0.14945 0.33307 0.89026 0.0
C1830 C 0.18109 0.29287 0.89172 0.0
C1831 C 0.19872 0.27277 0.88997 0.0
C1832 C 0.17983 0.31177 0.87225 0.0
C1833 C 0.21536 0.27243 0.86854 0.0
C1834 C 0.2141 0.29099 0.84913 0.0
C1835 C 0.19496 0.32931 0.83105 0.0
C1836 C 0.17765 0.34951 0.83296 0.0
C1837 C 0.19632 0.31063 0.85065 0.0
C1838 C 0.16122 0.35039 0.85445 0.0
C1839 C 0.16226 0.33173 0.87387 0.0
H1840 H 0.38514 0.92809 0.13949 0.0
H1841 H 0.45164 0.94461 0.09237 0.0
H1842 H 0.44266 0.9914 0.09243 0.0
H1843 H 0.41209 0.02591 0.10029 0.0
H1844 H 0.34463 1.00848 0.14628 0.0
H1845 H 0.35761 0.96383 0.152 0.0
C1846 C 0.39842 0.94218 0.13043 0.0
C1847 C 0.41953 0.9331 0.11667 0.0
C1848 C 0.39236 0.96877 0.12949 0.0
C1849 C 0.43575 0.95134 0.10375 0.0
C1850 C 0.43033 0.978 0.10341 0.0
C1851 C 0.40044 1.0126 0.11199 0.0
C1852 C 0.37705 0.02066 0.12233 0.0
C1853 C 0.40808 0.98673 0.11532 0.0
C1854 C 0.36229 1.00283 0.13737 0.0
C1855 C 0.36984 0.97724 0.14092 0.0
H1856 H 0.87195 0.58686 0.93103 0.0
H1857 H 0.95236 0.5854 0.91222 0.0
H1858 H 0.95078 0.53769 0.91939 0.0
H1859 H 0.924 0.49591 0.9234 0.0
H1860 H 0.84384 0.49854 0.94214 0.0
H1861 H 0.84785 0.54688 0.94393 0.0
C1862 C 0.88946 0.57647 0.92969 0.0
C1863 C 0.91235 0.58958 0.92145 0.0
C1864 C 0.8883 0.54936 0.93391 0.0
C1865 C 0.93466 0.57562 0.91886 0.0
C1866 C 0.93367 0.54841 0.92283 0.0
C1867 C 0.90789 0.50726 0.92922 0.0
C1868 C 0.88375 0.49403 0.93302 0.0
C1869 C 0.91032 0.53496 0.92943 0.0
C1870 C 0.86263 0.50854 0.93978 0.0
C1871 C 0.86488 0.53608 0.94033 0.0
H1872 H 0.78452 0.6223 0.18297 0.0
H1873 H 0.74271 0.54941 0.1594 0.0
H1874 H 0.70212 0.5717 0.15959 0.0
H1875 H 0.67999 0.6126 0.16197 0.0
H1876 H 0.72243 0.6865 0.18132 0.0
H1877 H 0.76181 0.66309 0.18768 0.0
C1878 C 0.76635 0.61125 0.17868 0.0
C1879 C 0.76618 0.58435 0.17145 0.0
C1880 C 0.74362 0.62445 0.17762 0.0
C1881 C 0.74288 0.57013 0.16519 0.0
C1882 C 0.71991 0.58288 0.16512 0.0
C1883 C 0.69794 0.6236 0.16737 0.0
C1884 C 0.6987 0.65119 0.17053 0.0
C1885 C 0.72028 0.61017 0.17042 0.0
C1886 C 0.72167 0.66523 0.17851 0.0
C1887 C 0.74405 0.65189 0.18215 0.0
H1888 H 0.60105 0.49561 0.40051 0.0
H1889 H 0.66929 0.45226 0.4081 0.0
H1890 H 0.6947 0.49275 0.42081 0.0
H1891 H 0.69794 0.54046 0.42767 0.0
H1892 H 0.63063 0.58496 0.41643 0.0
H1893 H 0.60439 0.54419 0.4082 0.0
C1894 C 0.62143 0.49517 0.40515 0.0
C1895 C 0.63346 0.47115 0.40321 0.0
C1896 C 0.63606 0.51872 0.41192 0.0
C1897 C 0.65984 0.47065 0.40919 0.0
C1898 C 0.67431 0.49375 0.41653 0.0
C1899 C 0.6776 0.54143 0.42326 0.0
C1900 C 0.66663 0.56606 0.42246 0.0
C1901 C 0.66272 0.51795 0.41754 0.0
C1902 C 0.63991 0.56653 0.41743 0.0
C1903 C 0.62478 0.54311 0.41245 0.0
H1904 H 0.3021 0.88394 0.18542 0.0
H1905 H 0.2804 0.86469 0.10551 0.0
H1906 H 0.23769 0.88122 0.11276 0.0
H1907 H 0.20791 0.90406 0.14104 0.0
H1908 H 0.22919 0.92403 0.22064 0.0
H1909 H 0.27109 0.90462 0.21456 0.0
C1910 C 0.28778 0.8831 0.1698 0.0
C1911 C 0.29407 0.87334 0.14498 0.0
C1912 C 0.26364 0.8932 0.17399 0.0
C1913 C 0.27573 0.87235 0.12468 0.0
C1914 C 0.25148 0.88184 0.1288 0.0
C1915 C 0.22195 0.90419 0.15686 0.0
C1916 C 0.21625 0.91581 0.18098 0.0
C1917 C 0.24552 0.89289 0.15316 0.0
C1918 C 0.23379 0.91544 0.20184 0.0
C1919 C 0.2575 0.9043 0.19835 0.0
H1920 H 0.16564 0.03406 0.65557 0.0
H1921 H 0.12852 1.01037 0.5821 0.0
H1922 H 0.09504 0.04096 0.59062 0.0
H1923 H 0.07539 0.07412 0.61911 0.0
H1924 H 0.11174 0.09763 0.69272 0.0
H1925 H 0.14635 0.06795 0.6838 0.0
C1926 C 0.15049 0.03568 0.64117 0.0
C1927 C 0.14998 0.01947 0.61807 0.0
C1928 C 0.13099 0.05352 0.64623 0.0
C1929 C 0.12962 0.02203 0.60011 0.0
C1930 C 0.11037 0.03973 0.60494 0.0
C1931 C 0.09098 0.07288 0.63316 0.0
C1932 C 0.09108 0.0886 0.6564 0.0
C1933 C 0.11073 0.05548 0.62797 0.0
C1934 C 0.11126 0.08626 0.67452 0.0
C1935 C 0.13107 0.06914 0.66942 0.0
H1936 H 0.66527 0.38813 0.38593 0.0
H1937 H 0.68626 0.32606 0.33225 0.0
H1938 H 0.73114 0.34229 0.33528 0.0
H1939 H 0.76516 0.37308 0.35373 0.0
H1940 H 0.74617 0.4347 0.40801 0.0
H1941 H 0.70013 0.42035 0.40376 0.0
C1942 C 0.67962 0.37816 0.37489 0.0
C1943 C 0.67202 0.35577 0.35875 0.0
C1944 C 0.70584 0.38796 0.37635 0.0
C1945 C 0.69121 0.34326 0.34474 0.0
C1946 C 0.71702 0.35263 0.34633 0.0
C1947 C 0.75073 0.38392 0.36384 0.0
C1948 C 0.7589 0.40543 0.38047 0.0
C1949 C 0.72456 0.37499 0.36187 0.0
C1950 C 0.74023 0.41869 0.39439 0.0
C1951 C 0.71394 0.41018 0.39222 0.0
H1952 H 0.7758 0.6699 0.90713 0.0
H1953 H 0.80896 0.59471 0.89464 0.0
H1954 H 0.76654 0.57391 0.88382 0.0
H1955 H 0.71986 0.57636 0.87992 0.0
H1956 H 0.68582 0.65087 0.89321 0.0
H1957 H 0.72862 0.6727 0.90098 0.0
C1958 C 0.77372 0.64903 0.90179 0.0
C1959 C 0.79551 0.63381 0.90213 0.0
C1960 C 0.74909 0.63704 0.89567 0.0
C1961 C 0.79247 0.60677 0.89513 0.0
C1962 C 0.76822 0.59486 0.88879 0.0
C1963 C 0.72177 0.59736 0.88456 0.0
C1964 C 0.69959 0.61183 0.88618 0.0
C1965 C 0.74636 0.60967 0.88943 0.0
C1966 C 0.70252 0.6392 0.89164 0.0
C1967 C 0.72702 0.65169 0.89629 0.0
H1968 H 0.87159 0.61646 0.10896 0.0
H1969 H 0.90759 0.55023 0.0735 0.0
H1970 H 0.91474 0.57494 0.03395 0.0
H1971 H 0.91175 0.61577 1.00961 0.0
H1972 H 0.87711 0.68249 0.04647 0.0
H1973 H 0.86969 0.65759 0.08527 0.0
C1974 C 0.88159 0.60754 0.09294 0.0
C1975 C 0.88953 0.58152 0.0948 0.0
C1976 C 0.88615 0.62213 0.0703 0.0
C1977 C 0.90138 0.57018 0.07301 0.0
C1978 C 0.90556 0.5844 0.05028 0.0
C1979 C 0.90253 0.62508 0.02593 0.0
C1980 C 0.8951 0.65142 0.02437 0.0
C1981 C 0.89817 0.61049 0.0487 0.0
C1982 C 0.8833 0.66257 0.0464 0.0
C1983 C 0.87887 0.6482 0.06889 0.0
H1984 H 0.19947 0.19796 0.82274 0.0
H1985 H 0.17924 0.12766 0.86435 0.0
H1986 H 0.14159 0.11818 0.83545 0.0
H1987 H 0.11373 0.13089 0.79908 0.0
H1988 H 0.13551 0.20129 0.75749 0.0
H1989 H 0.17199 0.21051 0.78671 0.0
C1990 C 0.18672 0.18059 0.8255 0.0
C1991 C 0.19196 0.16363 0.84573 0.0
C1992 C 0.16479 0.17577 0.80937 0.0
C1993 C 0.17541 0.14117 0.84914 0.0
C1994 C 0.15378 0.13589 0.83271 0.0
C1995 C 0.12639 0.14823 0.79624 0.0
C1996 C 0.12146 0.16516 0.77564 0.0
C1997 C 0.1481 0.15323 0.81289 0.0
C1998 C 0.13813 0.18784 0.773 0.0
C1999 C 0.1594 0.19309 0.78965 0.0
H2000 H 0.59765 0.4182 0.56274 0.0
H2001 H 0.59095 0.33875 0.59033 0.0
H2002 H 0.58581 0.32114 0.54578 0.0
H2003 H 0.58935 0.32817 0.49891 0.0
H2004 H 0.59533 0.40707 0.47101 0.0
H2005 H 0.5941 0.42538 0.51577 0.0
C2006 C 0.59443 0.39711 0.55901 0.0
C2007 C 0.59535 0.37974 0.57961 0.0
C2008 C 0.5915 0.3871 0.53336 0.0
C2009 C 0.59109 0.35242 0.57459 0.0
C2010 C 0.58803 0.34234 0.5492 0.0
C2011 C 0.58963 0.3493 0.50287 0.0
C2012 C 0.59244 0.36642 0.48231 0.0
C2013 C 0.58916 0.35944 0.52844 0.0
C2014 C 0.59296 0.3938 0.48699 0.0
C2015 C 0.59247 0.40415 0.51244 0.0
H2016 H 0.36081 0.87454 0.23918 0.0
H2017 H 0.42932 0.83161 0.24563 0.0
H2018 H 0.42536 0.8322 0.29323 0.0
H2019 H 0.40687 0.8523 0.33272 0.0
H2020 H 0.3387 0.89596 0.32635 0.0
H2021 H 0.33755 0.88738 0.27903 0.0
C2022 C 0.3743 0.86451 0.25105 0.0
C2023 C 0.39537 0.85302 0.23897 0.0
C2024 C 0.37205 0.86542 0.27838 0.0
C2025 C 0.41286 0.84025 0.25445 0.0
C2026 C 0.41071 0.84091 0.28167 0.0
C2027 C 0.39118 0.85907 0.32107 0.0
C2028 C 0.37276 0.87466 0.33303 0.0
C2029 C 0.39103 0.85444 0.29386 0.0
C2030 C 0.3528 0.88364 0.31769 0.0
C2031 C 0.35239 0.87898 0.29059 0.0
H2032 H 0.9285 0.40663 0.46234 0.0
H2033 H 0.85244 0.37235 0.44312 0.0
H2034 H 0.85052 0.3511 0.4849 0.0
H2035 H 0.87131 0.34069 0.52624 0.0
H2036 H 0.94729 0.37527 0.54568 0.0
H2037 H 0.94828 0.39825 0.50469 0.0
C2038 C 0.91137 0.39474 0.46745 0.0
C2039 C 0.89062 0.39111 0.44957 0.0
C2040 C 0.91048 0.38251 0.49153 0.0
C2041 C 0.86852 0.37582 0.45649 0.0
C2042 C 0.86753 0.36341 0.48037 0.0
C2043 C 0.88821 0.35299 0.52139 0.0
C2044 C 0.90938 0.35588 0.53886 0.0
C2045 C 0.88858 0.36627 0.49785 0.0
C2046 C 0.93079 0.37261 0.53258 0.0
C2047 C 0.93137 0.38574 0.50913 0.0
H2048 H 0.40734 0.12593 0.3112 0.0
H2049 H 0.40322 0.21013 0.31127 0.0
H2050 H 0.40277 0.20883 0.26338 0.0
H2051 H 0.39858 0.18261 0.22143 0.0
H2052 H 0.4025 0.09806 0.22247 0.0
H2053 H 0.40778 0.10042 0.26975 0.0
C2054 C 0.40743 0.14406 0.30062 0.0
C2055 C 0.40592 0.16816 0.31468 0.0
C2056 C 0.4064 0.14292 0.27324 0.0
C2057 C 0.4052 0.19149 0.30087 0.0
C2058 C 0.40442 0.19062 0.27349 0.0
C2059 C 0.40079 0.16478 0.23207 0.0
C2060 C 0.40008 0.14015 0.21839 0.0
C2061 C 0.40415 0.16631 0.25945 0.0
C2062 C 0.40314 0.11724 0.23243 0.0
C2063 C 0.40615 0.11857 0.2595 0.0
H2064 H 0.6278 0.63663 0.99767 0.0
H2065 H 0.54669 0.61401 0.98941 0.0
H2066 H 0.5381 0.63889 0.02966 0.0
H2067 H 0.55344 0.67103 0.06448 0.0
H2068 H 0.63413 0.69612 0.06967 0.0
H2069 H 0.64304 0.66749 0.03235 0.0
C2070 C 0.60826 0.63707 1.00479 0.0
C2071 C 0.58786 0.62407 0.99051 0.0
C2072 C 0.60331 0.6527 0.02669 0.0
C2073 C 0.56272 0.62392 1.00022 0.0
C2074 C 0.55775 0.6385 0.02291 0.0
C2075 C 0.57281 0.67047 0.05698 0.0
C2076 C 0.59295 0.68619 0.06911 0.0
C2077 C 0.57779 0.6538 0.03567 0.0
C2078 C 0.61818 0.68498 0.05991 0.0
C2079 C 0.62336 0.66823 0.03897 0.0
H2080 H 0.14037 0.86155 0.69372 0.0
H2081 H 0.1686 0.93858 0.72284 0.0
H2082 H 0.14715 0.93109 0.76431 0.0
H2083 H 0.11721 0.90431 0.79051 0.0
H2084 H 0.088 0.82755 0.76203 0.0
H2085 H 0.11308 0.83285 0.72196 0.0
C2086 C 0.14224 0.87631 0.70947 0.0
C2087 C 0.15613 0.90046 0.70559 0.0
C2088 C 0.12935 0.87204 0.733 0.0
C2089 C 0.15822 0.91978 0.72574 0.0
C2090 C 0.14581 0.91557 0.74927 0.0
C2091 C 0.11635 0.88885 0.77539 0.0
C2092 C 0.10035 0.86592 0.77856 0.0
C2093 C 0.13076 0.89212 0.75279 0.0
C2094 C 0.09988 0.84551 0.75951 0.0
C2095 C 0.11422 0.84858 0.73678 0.0
H2096 H 0.11183 0.95268 0.60177 0.0
H2097 H 0.0908 0.87299 0.57443 0.0
H2098 H 0.0463 0.87811 0.58746 0.0
H2099 H 0.01488 0.90304 0.61207 0.0
H2100 H 0.0372 0.98025 0.64447 0.0
H2101 H 0.0801 0.97826 0.62496 0.0
C2102 C 0.09752 0.93659 0.5982 0.0
C2103 C 0.10471 0.9124 0.58721 0.0
C2104 C 0.07242 0.93904 0.60747 0.0
C2105 C 0.0857 0.89183 0.58272 0.0
C2106 C 0.06035 0.89462 0.59049 0.0
C2107 C 0.02924 0.91937 0.61456 0.0
C2108 C 0.02339 0.94167 0.62956 0.0
C2109 C 0.05377 0.91771 0.60381 0.0
C2110 C 0.04173 0.96291 0.63299 0.0
C2111 C 0.06605 0.96176 0.62179 0.0
H2112 H 0.84754 0.32036 0.40223 0.0
H2113 H 0.83884 0.29098 0.32286 0.0
H2114 H 0.82765 0.24632 0.33808 0.0
H2115 H 0.82654 0.21531 0.37416 0.0
H2116 H 0.83693 0.24551 0.45324 0.0
H2117 H 0.84113 0.29058 0.43806 0.0
C2118 C 0.84304 0.3041 0.38834 0.0
C2119 C 0.84468 0.30833 0.3616 0.0
C2120 C 0.83709 0.27887 0.39721 0.0
C2121 C 0.8381 0.28769 0.34355 0.0
C2122 C 0.83176 0.26234 0.35227 0.0
C2123 C 0.82904 0.23184 0.38803 0.0
C2124 C 0.83187 0.22726 0.41472 0.0
C2125 C 0.83205 0.25759 0.37906 0.0
C2126 C 0.83521 0.24872 0.43259 0.0
C2127 C 0.8376 0.27438 0.42393 0.0
H2128 H 0.55104 0.12506 0.10468 0.0
H2129 H 0.52789 0.0642 0.15712 0.0
H2130 H 0.48323 0.06399 0.14076 0.0
H2131 H 0.45002 0.08582 0.11617 0.0
H2132 H 0.47264 0.15163 0.06906 0.0
H2133 H 0.5181 0.14466 0.07749 0.0
C2134 C 0.53621 0.11135 0.11191 0.0
C2135 C 0.54253 0.09448 0.13181 0.0
C2136 C 0.51045 0.1123 0.10322 0.0
C2137 C 0.52328 0.07715 0.14164 0.0
C2138 C 0.49781 0.07714 0.13234 0.0
C2139 C 0.46487 0.09815 0.10717 0.0
C2140 C 0.45792 0.11914 0.09183 0.0
C2141 C 0.49099 0.09524 0.11372 0.0
C2142 C 0.47751 0.13509 0.08056 0.0
C2143 C 0.50352 0.13135 0.08572 0.0
H2144 H 0.59702 0.77787 0.88541 0.0
H2145 H 0.65184 0.76041 0.94488 0.0
H2146 H 0.65037 0.71415 0.92953 0.0
H2147 H 0.63039 0.67796 0.90222 0.0
H2148 H 0.57076 0.69342 0.84682 0.0
H2149 H 0.57793 0.74094 0.85646 0.0
C2150 C 0.60898 0.76396 0.89457 0.0
C2151 C 0.62475 0.77262 0.91616 0.0
C2152 C 0.60725 0.73695 0.88615 0.0
C2153 C 0.63972 0.75425 0.92822 0.0
C2154 C 0.63883 0.72778 0.91942 0.0
C2155 C 0.61925 0.6915 0.89174 0.0
C2156 C 0.60028 0.68172 0.87332 0.0
C2157 C 0.62226 0.71872 0.89876 0.0
C2158 C 0.58596 0.7002 0.86051 0.0
C2159 C 0.58978 0.72745 0.86637 0.0
H2160 H 0.01832 0.12427 0.81969 0.0
H2161 H 0.9819 0.18909 0.85657 0.0
H2162 H 0.02143 0.20142 0.88211 0.0
H2163 H 0.0673 0.19446 0.89238 0.0
H2164 H 0.10293 0.12866 0.85602 0.0
H2165 H 0.06312 0.11579 0.83175 0.0
C2166 C 0.01928 0.14104 0.83336 0.0
C2167 C 0.99776 0.15608 0.83622 0.0
C2168 C 0.04194 0.14779 0.84788 0.0
C2169 C 0.99862 0.17758 0.85411 0.0
C2170 C 0.02111 0.18453 0.86863 0.0
C2171 C 0.06612 0.17728 0.87921 0.0
C2172 C 0.08795 0.16273 0.87543 0.0
C2173 C 0.04303 0.16994 0.86547 0.0
C2174 C 0.0864 0.14035 0.85863 0.0
C2175 C 0.06364 0.13295 0.8449 0.0
H2176 H 0.61953 0.23933 0.64142 0.0
H2177 H 0.69407 0.27341 0.62149 0.0
H2178 H 0.68701 0.31278 0.64929 0.0
H2179 H 0.65721 0.33942 0.6758 0.0
H2180 H 0.58197 0.30469 0.69357 0.0
H2181 H 0.59204 0.26361 0.67133 0.0
C2182 C 0.63437 0.25524 0.64355 0.0
C2183 C 0.65729 0.2535 0.62938 0.0
C2184 C 0.63003 0.27777 0.65942 0.0
C2185 C 0.67636 0.27424 0.63226 0.0
C2186 C 0.67222 0.29678 0.64812 0.0
C2187 C 0.64322 0.32276 0.67533 0.0
C2188 C 0.6186 0.32559 0.68631 0.0
C2189 C 0.64883 0.2991 0.66141 0.0
C2190 C 0.60101 0.30334 0.68546 0.0
C2191 C 0.60664 0.2798 0.6724 0.0
H2192 H 0.5459 0.91315 0.3216 0.0
H2193 H 0.59318 0.91676 0.39156 0.0
H2194 H 0.55553 0.90374 0.41693 0.0
H2195 H 0.50914 0.88797 0.41887 0.0
H2196 H 0.46365 0.88394 0.34764 0.0
H2197 H 0.50083 0.89921 0.32343 0.0
C2198 C 0.54839 0.91082 0.3423 0.0
C2199 C 0.57291 0.91545 0.35415 0.0
C2200 C 0.52683 0.90255 0.35675 0.0
C2201 C 0.57489 0.91324 0.38142 0.0
C2202 C 0.55324 0.90557 0.3961 0.0
C2203 C 0.50739 0.8904 0.39807 0.0
C2204 C 0.48357 0.88379 0.38516 0.0
C2205 C 0.52913 0.89959 0.38389 0.0
C2206 C 0.48177 0.88762 0.35817 0.0
C2207 C 0.50303 0.89678 0.3442 0.0
H2208 H 0.85997 0.78091 0.11866 0.0
H2209 H 0.77957 0.75648 0.11027 0.0
H2210 H 0.78652 0.71632 0.1343 0.0
H2211 H 0.81637 0.68731 0.15496 0.0
H2212 H 0.89703 0.71211 0.16323 0.0
H2213 H 0.88922 0.75356 0.1424 0.0
C2214 C 0.84419 0.7665 0.12201 0.0
C2215 C 0.81954 0.77071 0.11229 0.0
C2216 C 0.84838 0.74399 0.13598 0.0
C2217 C 0.79876 0.75286 0.11723 0.0
C2218 C 0.80274 0.7302 0.13104 0.0
C2219 C 0.83209 0.70209 0.15274 0.0
C2220 C 0.85723 0.69678 0.16041 0.0
C2221 C 0.82755 0.72546 0.14024 0.0
C2222 C 0.87756 0.71584 0.15722 0.0
C2223 C 0.87313 0.73939 0.14524 0.0
H2224 H 0.63296 0.06449 0.85838 0.0
H2225 H 0.57035 0.07426 0.91134 0.0
H2226 H 0.57894 0.03193 0.93083 0.0
H2227 H 0.60513 0.99183 0.93288 0.0
H2228 H 0.66935 0.98569 0.88131 0.0
H2229 H 0.65925 0.02673 0.86123 0.0
C2230 C 0.62085 0.05738 0.874 0.0
C2231 C 0.60059 0.07249 0.88294 0.0
C2232 C 0.62636 0.03353 0.88546 0.0
C2233 C 0.58582 0.06301 0.90377 0.0
C2234 C 0.5908 0.03878 0.91495 0.0
C2235 C 0.61672 0.99951 0.91715 0.0
C2236 C 0.63797 0.98558 0.90851 0.0
C2237 C 0.61108 0.02378 0.90595 0.0
C2238 C 0.65304 0.99599 0.88836 0.0
C2239 C 0.64722 0.01946 0.87683 0.0
H2240 H 0.08886 0.45797 0.12142 0.0
H2241 H 0.15637 0.42954 0.0846 0.0
H2242 H 0.17178 0.47403 0.07581 0.0
H2243 H 0.16913 0.52169 0.08295 0.0
H2244 H 0.10199 0.55177 0.11875 0.0
H2245 H 0.08322 0.50657 0.12292 0.0
C2246 C 0.10637 0.46152 0.1105 0.0
C2247 C 0.12094 0.44001 0.10312 0.0
C2248 C 0.1155 0.48775 0.10564 0.0
C2249 C 0.14412 0.44516 0.08985 0.0
C2250 C 0.15328 0.47091 0.08508 0.0
C2251 C 0.15024 0.51834 0.09137 0.0
C2252 C 0.13716 0.54005 0.10083 0.0
C2253 C 0.13958 0.49237 0.09359 0.0
C2254 C 0.11249 0.53543 0.11132 0.0
C2255 C 0.10182 0.50954 0.11384 0.0
H2256 H 0.33248 0.33286 0.82293 0.0
H2257 H 0.35694 0.36537 0.89829 0.0
H2258 H 0.32382 0.39789 0.89614 0.0
H2259 H 0.286 0.41513 0.87353 0.0
H2260 H 0.265 0.38548 0.79627 0.0
H2261 H 0.29796 0.35324 0.79862 0.0
C2262 C 0.33071 0.34732 0.83872 0.0
C2263 C 0.34705 0.34677 0.86075 0.0
C2264 C 0.31207 0.36629 0.83702 0.0
C2265 C 0.34462 0.36551 0.88113 0.0
C2266 C 0.32562 0.38399 0.87991 0.0
C2267 C 0.28947 0.40253 0.85677 0.0
C2268 C 0.2734 0.4034 0.83446 0.0
C2269 C 0.30911 0.3845 0.85798 0.0
C2270 C 0.27698 0.38539 0.81364 0.0
C2271 C 0.29595 0.36699 0.81494 0.0
H2272 H 0.41497 0.53386 0.61433 0.0
H2273 H 0.35371 0.57972 0.64377 0.0
H2274 H 0.32319 0.54165 0.63848 0.0
H2275 H 0.31489 0.49427 0.62994 0.0
H2276 H 0.3754 0.44804 0.60013 0.0
H2277 H 0.40509 0.48731 0.60043 0.0
C2278 C 0.39489 0.53549 0.61928 0.0
C2279 C 0.38676 0.55914 0.63031 0.0
C2280 C 0.37732 0.51351 0.61612 0.0
C2281 C 0.3606 0.56129 0.63623 0.0
C2282 C 0.34307 0.53966 0.63302 0.0
C2283 C 0.33448 0.49304 0.6232 0.0
C2284 C 0.34312 0.46858 0.61532 0.0
C2285 C 0.35139 0.5155 0.62376 0.0
C2286 C 0.36839 0.4669 0.60619 0.0
C2287 C 0.3854 0.48924 0.60658 0.0
H2288 H 0.79844 0.12215 0.86761 0.0
H2289 H 0.78734 0.13716 0.78657 0.0
H2290 H 0.74406 0.15219 0.79541 0.0
H2291 H 0.70831 0.15731 0.82604 0.0
H2292 H 0.72027 0.14281 0.90741 0.0
H2293 H 0.76454 0.13177 0.89887 0.0
C2294 C 0.78643 0.12886 0.85204 0.0
C2295 C 0.79548 0.12823 0.82649 0.0
C2296 C 0.76192 0.13757 0.8574 0.0
C2297 C 0.78036 0.13739 0.80632 0.0
C2298 C 0.75576 0.14592 0.81141 0.0
C2299 C 0.7208 0.15225 0.84195 0.0
C2300 C 0.71096 0.15046 0.86725 0.0
C2301 C 0.74616 0.14564 0.83684 0.0
C2302 C 0.7273 0.14382 0.8877 0.0
C2303 C 0.75258 0.13751 0.88284 0.0
H2304 H 0.89705 0.95218 0.41572 0.0
H2305 H 0.89979 0.97092 0.33464 0.0
H2306 H 0.87126 1.00691 0.34242 0.0
H2307 H 0.84186 0.02948 0.37142 0.0
H2308 H 0.83824 1.01056 0.45223 0.0
H2309 H 0.87055 0.97761 0.44563 0.0
C2310 C 0.89212 0.96485 0.40005 0.0
C2311 C 0.90057 0.95934 0.37475 0.0
C2312 C 0.87485 0.98458 0.40448 0.0
C2313 C 0.89369 0.97527 0.35431 0.0
C2314 C 0.8771 0.99546 0.35868 0.0
C2315 C 0.84797 0.01773 0.38736 0.0
C2316 C 0.83723 0.02131 0.41199 0.0
C2317 C 0.86678 0.99953 0.38344 0.0
C2318 C 0.84588 1.00719 0.43299 0.0
C2319 C 0.86446 0.98873 0.42925 0.0
H2320 H 0.33027 0.66071 0.68793 0.0
H2321 H 0.352 0.66898 0.6078 0.0
H2322 H 0.30882 0.65214 0.59351 0.0
H2323 H 0.26549 0.63232 0.60412 0.0
H2324 H 0.24479 0.62512 0.68474 0.0
H2325 H 0.28685 0.64469 0.69841 0.0
C2326 C 0.32563 0.65914 0.66728 0.0
C2327 C 0.34487 0.66507 0.64898 0.0
C2328 C 0.30084 0.64953 0.65928 0.0
C2329 C 0.33804 0.66364 0.62237 0.0
C2330 C 0.31324 0.65405 0.61418 0.0
C2331 C 0.27026 0.63487 0.62466 0.0
C2332 C 0.25194 0.62702 0.64336 0.0
C2333 C 0.29469 0.64621 0.63249 0.0
C2334 C 0.25831 0.63106 0.66991 0.0
C2335 C 0.28244 0.64221 0.67778 0.0
H2336 H 0.3205 0.39126 0.13179 0.0
H2337 H 0.2982 0.4716 0.12938 0.0
H2338 H 0.25286 0.45636 0.12967 0.0
H2339 H 0.21962 0.42049 0.12793 0.0
H2340 H 0.24064 0.3397 0.12889 0.0
H2341 H 0.28638 0.35478 0.1327 0.0
C2342 C 0.30568 0.40538 0.13172 0.0
C2343 C 0.31272 0.43255 0.13024 0.0
C2344 C 0.27947 0.3964 0.13165 0.0
C2345 C 0.2933 0.45062 0.13001 0.0
C2346 C 0.26737 0.44192 0.1303 0.0
C2347 C 0.2342 0.40613 0.12894 0.0
C2348 C 0.22676 0.37902 0.12769 0.0
C2349 C 0.26025 0.4149 0.13058 0.0
C2350 C 0.24584 0.36069 0.12977 0.0
C2351 C 0.27199 0.36932 0.13178 0.0
H2352 H 0.69606 0.89492 0.45203 0.0
H2353 H 0.62757 0.93606 0.43574 0.0
H2354 H 0.60677 0.91713 0.47352 0.0
H2355 H 0.6062 0.88495 0.50824 0.0
H2356 H 0.67298 0.8406 0.52153 0.0
H2357 H 0.69576 0.86351 0.48688 0.0
C2358 C 0.67659 0.8998 0.45673 0.0
C2359 C 0.66337 0.91665 0.44085 0.0
C2360 C 0.66408 0.88751 0.47738 0.0
C2361 C 0.63843 0.92342 0.44775 0.0
C2362 C 0.62628 0.91221 0.46909 0.0
C2363 C 0.62569 0.88032 0.50335 0.0
C2364 C 0.63774 0.86085 0.5169 0.0
C2365 C 0.6386 0.89354 0.48345 0.0
C2366 C 0.66307 0.85499 0.51075 0.0
C2367 C 0.67622 0.86836 0.49126 0.0
H2368 H 0.31496 0.31609 0.70458 0.0
H2369 H 0.34875 0.38604 0.67023 0.0
H2370 H 0.38389 0.38809 0.70278 0.0
H2371 H 0.40435 0.37062 0.74207 0.0
H2372 H 0.36993 0.30048 0.77591 0.0
H2373 H 0.33593 0.29799 0.74265 0.0
C2374 C 0.33003 0.33181 0.70415 0.0
C2375 C 0.32917 0.35081 0.68479 0.0
C2376 C 0.35017 0.33283 0.72295 0.0
C2377 C 0.34898 0.37096 0.68462 0.0
C2378 C 0.36909 0.37216 0.70332 0.0
C2379 C 0.38964 0.35457 0.74205 0.0
C2380 C 0.38984 0.33582 0.76187 0.0
C2381 C 0.36987 0.35323 0.72269 0.0
C2382 C 0.37025 0.31541 0.76136 0.0
C2383 C 0.35076 0.31391 0.74221 0.0
H2384 H 0.94904 0.15362 0.02007 0.0
H2385 H 0.87972 0.19483 0.02872 0.0
H2386 H 0.87079 0.18982 0.98195 0.0
H2387 H 0.87844 0.16614 0.94149 0.0
H2388 H 0.9498 0.12751 0.93103 0.0
H2389 H 0.96154 0.13779 0.97628 0.0
C2390 C 0.93279 0.16262 0.0113 0.0
C2391 C 0.91508 0.17469 0.02736 0.0
C2392 C 0.92743 0.15881 0.98459 0.0
C2393 C 0.89368 0.18586 0.01631 0.0
C2394 C 0.88835 0.18248 0.98978 0.0
C2395 C 0.89703 0.16061 0.94841 0.0
C2396 C 0.91279 0.14544 0.9325 0.0
C2397 C 0.90441 0.16776 0.97405 0.0
C2398 C 0.93653 0.13816 0.94281 0.0
C2399 C 0.94361 0.14449 0.96866 0.0
H2400 H 0.14089 0.59957 0.19854 0.0
H2401 H 0.15664 0.68255 0.18656 0.0
H2402 H 0.14127 0.69287 0.23046 0.0
H2403 H 0.11961 0.67803 0.27143 0.0
H2404 H 0.10198 0.5949 0.28056 0.0
H2405 H 0.12173 0.58493 0.23884 0.0
C2406 C 0.14138 0.61999 0.20554 0.0
C2407 C 0.14988 0.64022 0.18894 0.0
C2408 C 0.13176 0.62574 0.2304 0.0
C2409 C 0.15039 0.66648 0.1987 0.0
C2410 C 0.14133 0.6724 0.22383 0.0
C2411 C 0.1203 0.65779 0.26423 0.0
C2412 C 0.10904 0.63717 0.27895 0.0
C2413 C 0.13136 0.6522 0.23969 0.0
C2414 C 0.11007 0.61104 0.26942 0.0
C2415 C 0.12149 0.60535 0.24562 0.0
H2416 H 0.58443 0.13149 0.99315 0.0
H2417 H 0.65918 0.15578 0.9643 0.0
H2418 H 0.6801 0.13624 1.00135 0.0
H2419 H 0.67698 0.11633 0.04379 0.0
H2420 H 0.60235 0.09357 0.07436 0.0
H2421 H 0.58152 0.10782 0.03487 0.0
C2422 C 0.60526 0.1322 0.99507 0.0
C2423 C 0.6204 0.14528 0.97646 0.0
C2424 C 0.61711 0.12122 0.01671 0.0
C2425 C 0.64735 0.14611 0.97878 0.0
C2426 C 0.65923 0.13488 0.99985 0.0
C2427 C 0.65616 0.11399 0.0417 0.0
C2428 C 0.64133 0.10415 0.06235 0.0
C2429 C 0.6443 0.12293 0.01922 0.0
C2430 C 0.61438 0.10105 0.059 0.0
C2431 C 0.60238 0.10947 0.0364 0.0
H2432 H 0.07496 0.37599 0.23294 0.0
H2433 H 0.15008 0.35421 0.20827 0.0
H2434 H 0.16493 0.35453 0.25341 0.0
H2435 H 0.15764 0.36508 0.29975 0.0
H2436 H 0.08335 0.39008 0.3234 0.0
H2437 H 0.06724 0.38509 0.27866 0.0
C2438 C 0.0946 0.37145 0.23738 0.0
C2439 C 0.11138 0.3654 0.21727 0.0
C2440 C 0.10327 0.3726 0.26318 0.0
C2441 C 0.13662 0.35877 0.2234 0.0
C2442 C 0.14525 0.35918 0.2492 0.0
C2443 C 0.1379 0.36916 0.29497 0.0
C2444 C 0.12172 0.37821 0.31444 0.0
C2445 C 0.1289 0.36665 0.26919 0.0
C2446 C 0.09617 0.38351 0.30838 0.0
C2447 C 0.08694 0.38055 0.28294 0.0
H2448 H 0.91255 0.90373 0.5654 0.0
H2449 H 0.95397 0.96972 0.5312 0.0
H2450 H 0.95386 0.94531 0.48928 0.0
H2451 H 0.94225 0.90487 0.4623 0.0
H2452 H 0.9027 0.83846 0.4985 0.0
H2453 H 0.90316 0.86294 0.53951 0.0
C2454 C 0.92221 0.91265 0.54908 0.0
C2455 C 0.9337 0.93851 0.55191 0.0
C2456 C 0.9226 0.89826 0.52513 0.0
C2457 C 0.94502 0.9499 0.52987 0.0
C2458 C 0.94504 0.93585 0.50581 0.0
C2459 C 0.93363 0.89556 0.47896 0.0
C2460 C 0.92226 0.86945 0.47644 0.0
C2461 C 0.93389 0.90993 0.50315 0.0
C2462 C 0.9116 0.85823 0.49898 0.0
C2463 C 0.91173 0.87236 0.52281 0.0
H2464 H 0.43174 0.64046 0.75142 0.0
H2465 H 0.38629 0.70278 0.7241 0.0
H2466 H 0.35161 0.68883 0.7529 0.0
H2467 H 0.33366 0.65837 0.78536 0.0
H2468 H 0.38147 0.59888 0.81486 0.0
H2469 H 0.41518 0.61205 0.78511 0.0
C2470 C 0.41463 0.65153 0.75184 0.0
C2471 C 0.41198 0.67261 0.73495 0.0
C2472 C 0.39468 0.64352 0.76859 0.0
C2473 C 0.38914 0.68628 0.73635 0.0
C2474 C 0.36911 0.67825 0.75285 0.0
C2475 C 0.35143 0.64826 0.78544 0.0
C2476 C 0.35445 0.62726 0.80237 0.0
C2477 C 0.37153 0.65667 0.76888 0.0
C2478 C 0.37779 0.61444 0.80167 0.0
C2479 C 0.39748 0.6223 0.7849 0.0
H2480 H 0.49093 0.62158 0.91148 0.0
H2481 H 0.48417 0.55862 0.85325 0.0
H2482 H 0.43846 0.55037 0.86309 0.0
H2483 H 0.3995 0.566 0.88266 0.0
H2484 H 0.40423 0.63219 0.93727 0.0
H2485 H 0.45155 0.6339 0.93544 0.0
C2486 C 0.47939 0.60577 0.90146 0.0
C2487 C 0.49061 0.59069 0.8816 0.0
C2488 C 0.45284 0.60177 0.90673 0.0
C2489 C 0.4757 0.57041 0.86845 0.0
C2490 C 0.44967 0.56573 0.87412 0.0
C2491 C 0.411 0.57993 0.89516 0.0
C2492 C 0.39848 0.59861 0.91043 0.0
C2493 C 0.43788 0.58184 0.89257 0.0
C2494 C 0.41344 0.61714 0.92594 0.0
C2495 C 0.44049 0.61848 0.92438 0.0
H2496 H 0.68848 0.29528 0.06839 0.0
H2497 H 0.67977 0.33112 0.14484 0.0
H2498 H 0.67008 0.28774 0.16248 0.0
H2499 H 0.65993 0.23981 0.15542 0.0
H2500 H 0.66758 0.20479 0.0784 0.0
H2501 H 0.68077 0.24769 0.06178 0.0
C2502 C 0.68439 0.29375 0.08891 0.0
C2503 C 0.68456 0.31673 0.10502 0.0
C2504 C 0.67802 0.2688 0.09882 0.0
C2505 C 0.67994 0.314 0.13179 0.0
C2506 C 0.6741 0.2891 0.14192 0.0
C2507 C 0.66471 0.2415 0.13507 0.0
C2508 C 0.66217 0.21904 0.11815 0.0
C2509 C 0.67245 0.2664 0.1255 0.0
C2510 C 0.66854 0.22175 0.09179 0.0
C2511 C 0.67637 0.24629 0.08225 0.0
H2512 H 0.96944 0.39321 0.37985 0.0
H2513 H 0.9685 0.47633 0.39871 0.0
H2514 H 0.01062 0.47539 0.4209 0.0
H2515 H 0.04962 0.45193 0.42996 0.0
H2516 H 0.04988 0.36829 0.41282 0.0
H2517 H 1.00591 0.36813 0.39555 0.0
C2518 C 0.97852 0.41104 0.38895 0.0
C2519 C 0.96638 0.43504 0.38711 0.0
C2520 C 1.00246 0.41015 0.40202 0.0
C2521 C 0.97778 0.45785 0.3996 0.0
C2522 C 1.00175 0.45723 0.41228 0.0
C2523 C 0.03979 0.43346 0.42317 0.0
C2524 C 0.05347 0.41027 0.42214 0.0
C2525 C 0.01453 0.43363 0.41303 0.0
C2526 C 0.0403 0.38652 0.41356 0.0
C2527 C 0.01506 0.38648 0.40344 0.0
H2528 H 0.89921 0.81804 0.58642 0.0
H2529 H 0.89996 0.8143 0.67045 0.0
H2530 H 0.8888 0.76741 0.66707 0.0
H2531 H 0.88472 0.7264 0.64093 0.0
H2532 H 0.88947 0.72797 0.55765 0.0
H2533 H 0.8928 0.7766 0.5599 0.0
C2534 C 0.8972 0.80704 0.60406 0.0
C2535 C 0.90063 0.82014 0.62868 0.0
C2536 C 0.89181 0.77954 0.60208 0.0
C2537 C 0.89711 0.80531 0.65118 0.0
C2538 C 0.89091 0.77825 0.64933 0.0
C2539 C 0.88571 0.73758 0.62331 0.0
C2540 C 0.88662 0.72401 0.59921 0.0
C2541 C 0.88886 0.76512 0.62498 0.0
C2542 C 0.88828 0.73827 0.57635 0.0
C2543 C 0.89056 0.76595 0.57773 0.0
H2544 H 0.52177 0.39097 0.64644 0.0
H2545 H 0.49122 0.39967 0.72369 0.0
H2546 H 0.44735 0.39325 0.70602 0.0
H2547 H 0.41796 0.38338 0.66905 0.0
H2548 H 0.44787 0.37463 0.59165 0.0
H2549 H 0.49195 0.38351 0.60885 0.0
C2550 C 0.50552 0.39189 0.65936 0.0
C2551 C 0.50974 0.39564 0.68641 0.0
C2552 C 0.48037 0.38813 0.64905 0.0
C2553 C 0.48847 0.3964 0.70291 0.0
C2554 C 0.46342 0.39286 0.6928 0.0
C2555 C 0.43416 0.38333 0.65597 0.0
C2556 C 0.42982 0.37795 0.62924 0.0
C2557 C 0.4592 0.3883 0.666 0.0
C2558 C 0.45083 0.37863 0.61233 0.0
C2559 C 0.47597 0.38361 0.62218 0.0
H2560 H 0.89666 0.30097 0.87109 0.0
H2561 H 0.83688 0.26267 0.9158 0.0
H2562 H 0.83758 0.22282 0.88732 0.0
H2563 H 0.85788 0.19792 0.85211 0.0
H2564 H 0.92233 0.2341 0.81185 0.0
H2565 H 0.916 0.27623 0.83459 0.0
C2566 C 0.88365 0.28391 0.87427 0.0
C2567 C 0.86671 0.28456 0.8954 0.0
C2568 C 0.88469 0.26092 0.85818 0.0
C2569 C 0.85002 0.26244 0.89963 0.0
C2570 C 0.85042 0.23976 0.8833 0.0
C2571 C 0.87042 0.21491 0.84793 0.0
C2572 C 0.89066 0.21256 0.83005 0.0
C2573 C 0.86801 0.23858 0.86276 0.0
C2574 C 0.90628 0.23535 0.82499 0.0
C2575 C 0.903 0.25936 0.83843 0.0
H2576 H 0.05793 0.61164 0.16328 0.0
H2577 H 0.02334 0.62874 0.0894 0.0
H2578 H 0.98143 0.61071 0.10418 0.0
H2579 H 0.95425 0.59566 0.14 0.0
H2580 H 0.98845 0.58244 0.21495 0.0
H2581 H 0.03137 0.59387 0.19794 0.0
C2582 C 0.04116 0.61162 0.15046 0.0
C2583 C 0.0434 0.62221 0.12563 0.0
C2584 C 0.01729 0.60211 0.15933 0.0
C2585 C 0.0219 0.62099 0.10874 0.0
C2586 C 0.99802 0.6108 0.11721 0.0
C2587 C 0.97119 0.59462 0.15239 0.0
C2588 C 0.96848 0.58822 0.17865 0.0
C2589 C 0.99542 0.60205 0.14272 0.0
C2590 C 0.99036 0.58745 0.19473 0.0
C2591 C 0.01472 0.59399 0.18503 0.0
H2592 H 0.72393 0.7813 0.37895 0.0
H2593 H 0.64966 0.76298 0.4123 0.0
H2594 H 0.63047 0.79605 0.38608 0.0
H2595 H 0.63519 0.83209 0.35641 0.0
H2596 H 0.7093 0.8527 0.32345 0.0
H2597 H 0.72803 0.81679 0.34626 0.0
C2598 C 0.70357 0.78462 0.38025 0.0
C2599 C 0.68827 0.77016 0.39787 0.0
C2600 C 0.69264 0.80405 0.36518 0.0
C2601 C 0.66184 0.77433 0.39929 0.0
C2602 C 0.65086 0.7931 0.38419 0.0
C2603 C 0.65539 0.82865 0.35376 0.0
C2604 C 0.67079 0.84561 0.33836 0.0
C2605 C 0.66613 0.80838 0.36743 0.0
C2606 C 0.6969 0.84036 0.33526 0.0
C2607 C 0.70769 0.81978 0.34846 0.0
H2608 H 0.91572 0.45403 0.6674 0.0
H2609 H 0.91457 0.41355 0.59239 0.0
H2610 H 0.89696 0.45184 0.57239 0.0
H2611 H 0.87601 0.49521 0.57763 0.0
H2612 H 0.87872 0.53454 0.65331 0.0
H2613 H 0.9015 0.49875 0.6714 0.0
C2614 C 0.91228 0.45376 0.64652 0.0
C2615 C 0.91603 0.43056 0.63166 0.0
C2616 C 0.90176 0.47567 0.63527 0.0
C2617 C 0.91177 0.43089 0.60454 0.0
C2618 C 0.90136 0.4528 0.59307 0.0
C2619 C 0.88182 0.49589 0.59798 0.0
C2620 C 0.87481 0.5171 0.61433 0.0
C2621 C 0.89523 0.47497 0.60845 0.0
C2622 C 0.88306 0.51804 0.64055 0.0
C2623 C 0.89628 0.49765 0.65089 0.0
H2624 H 0.41987 1.00518 0.43755 0.0
H2625 H 0.34296 0.98552 0.40766 0.0
H2626 H 0.33497 0.03245 0.40636 0.0
H2627 H 0.35085 0.07802 0.41052 0.0
H2628 H 0.42779 0.09917 0.44026 0.0
H2629 H 0.43508 0.05208 0.44459 0.0
C2630 C 0.40128 1.01132 0.43109 0.0
C2631 C 0.38198 0.99214 0.42261 0.0
C2632 C 0.39709 0.03825 0.43002 0.0
C2633 C 0.35787 1.00001 0.41453 0.0
C2634 C 0.35348 0.02675 0.41351 0.0
C2635 C 0.3693 0.07261 0.41813 0.0
C2636 C 0.38892 0.09216 0.42483 0.0
C2637 C 0.37314 0.04591 0.42069 0.0
C2638 C 0.41255 0.08451 0.43464 0.0
C2639 C 0.41661 0.05766 0.43723 0.0
H2640 H 0.25962 0.07406 0.69425 0.0
H2641 H 0.29266 0.12162 0.63416 0.0
H2642 H 0.25417 0.14736 0.63285 0.0
H2643 H 0.21045 0.15487 0.64811 0.0
H2644 H 0.17741 0.10714 0.7083 0.0
H2645 H 0.21645 0.08251 0.71054 0.0
C2646 C 0.25796 0.08989 0.68078 0.0
C2647 C 0.27803 0.09584 0.66384 0.0
C2648 C 0.23601 0.10441 0.68035 0.0
C2649 C 0.27666 0.11663 0.64675 0.0
C2650 C 0.25493 0.13132 0.64619 0.0
C2651 C 0.21217 0.13928 0.66185 0.0
C2652 C 0.19173 0.13264 0.67817 0.0
C2653 C 0.23442 0.12524 0.66278 0.0
C2654 C 0.19346 0.11244 0.69587 0.0
C2655 C 0.21555 0.09836 0.69701 0.0
H2656 H 0.10559 0.99353 0.90254 0.0
H2657 H 0.17697 0.95443 0.90132 0.0
H2658 H 0.20121 0.9963 0.91116 0.0
H2659 H 0.20238 0.04393 0.9176 0.0
H2660 H 0.13175 0.08439 0.91509 0.0
H2661 H 0.10689 0.04211 0.91014 0.0
C2662 C 0.12641 0.9943 0.90472 0.0
C2663 C 0.13959 0.97112 0.90109 0.0
C2664 C 0.14032 0.01861 0.90978 0.0
C2665 C 0.16655 0.97217 0.90381 0.0
C2666 C 0.18038 0.99604 0.90947 0.0
C2667 C 0.18158 0.04364 0.91581 0.0
C2668 C 0.16911 0.06744 0.91641 0.0
C2669 C 0.16751 0.01941 0.91202 0.0
C2670 C 0.14199 0.06646 0.91487 0.0
C2671 C 0.12772 0.04225 0.91179 0.0
H2672 H 0.78274 0.34641 0.65809 0.0
H2673 H 0.82186 0.42352 0.65218 0.0
H2674 H 0.78303 0.4443 0.6655 0.0
H2675 H 0.73799 0.44075 0.67835 0.0
H2676 H 0.69909 0.36368 0.68469 0.0
H2677 H 0.73841 0.34287 0.67346 0.0
C2678 C 0.78297 0.36773 0.66003 0.0
C2679 C 0.80517 0.38327 0.65374 0.0
C2680 C 0.76077 0.37966 0.66832 0.0
C2681 C 0.80486 0.41096 0.65612 0.0
C2682 C 0.78276 0.42294 0.66409 0.0
C2683 C 0.73803 0.41942 0.6772 0.0
C2684 C 0.71538 0.40398 0.68201 0.0
C2685 C 0.76058 0.40748 0.67008 0.0
C2686 C 0.7161 0.37627 0.6812 0.0
C2687 C 0.73859 0.36424 0.67448 0.0
H2688 H 0.59692 0.5994 0.09601 0.0
H2689 H 0.58981 0.59045 0.17859 0.0
H2690 H 0.61864 0.55432 0.17697 0.0
H2691 H 0.64565 0.52409 0.15192 0.0
H2692 H 0.64647 0.52705 0.06843 0.0
H2693 H 0.61994 0.56561 0.07022 0.0
C2694 C 0.60196 0.58973 0.1137 0.0
C2695 C 0.59303 0.59957 0.13788 0.0
C2696 C 0.61709 0.56728 0.11226 0.0
C2697 C 0.59848 0.5855 0.16021 0.0
C2698 C 0.61442 0.56412 0.15914 0.0
C2699 C 0.63993 0.53316 0.13413 0.0
C2700 C 0.64827 0.52278 0.11004 0.0
C2701 C 0.62401 0.55489 0.13532 0.0
C2702 C 0.64031 0.53454 0.08716 0.0
C2703 C 0.62523 0.55672 0.08824 0.0
H2704 H 0.26511 0.86777 0.89645 0.0
H2705 H 0.26332 0.93804 0.85214 0.0
H2706 H 0.21851 0.92589 0.83864 0.0
H2707 H 0.18001 0.89514 0.83933 0.0
H2708 H 0.18128 0.82462 0.88355 0.0
H2709 H 0.22626 0.83654 0.89688 0.0
C2710 C 0.25487 0.8802 0.88364 0.0
C2711 C 0.2675 0.90364 0.87498 0.0
C2712 C 0.22917 0.87289 0.87585 0.0
C2713 C 0.25411 0.91973 0.85854 0.0
C2714 C 0.2285 0.91282 0.851 0.0
C2715 C 0.1902 0.88226 0.85176 0.0
C2716 C 0.17739 0.85886 0.8603 0.0
C2717 C 0.21588 0.88941 0.85944 0.0
C2718 C 0.19067 0.84269 0.87679 0.0
C2719 C 0.21639 0.84953 0.88434 0.0
H2720 H 0.2923 0.11699 0.419 0.0
H2721 H 0.26753 0.19366 0.39973 0.0
H2722 H 0.22714 0.17313 0.38152 0.0
H2723 H 0.19812 0.13361 0.37311 0.0
H2724 H 0.22207 0.05745 0.39482 0.0
H2725 H 0.26392 0.07752 0.40916 0.0
C2726 C 0.27792 0.12935 0.41125 0.0
C2727 C 0.28284 0.15697 0.41135 0.0
C2728 C 0.25471 0.11743 0.40089 0.0
C2729 C 0.2643 0.17242 0.40018 0.0
C2730 C 0.24118 0.16066 0.38968 0.0
C2731 C 0.21229 0.12131 0.38101 0.0
C2732 C 0.2063 0.09406 0.38375 0.0
C2733 C 0.23607 0.13319 0.39016 0.0
C2734 C 0.22573 0.07851 0.39307 0.0
C2735 C 0.24968 0.09001 0.4014 0.0
H2736 H 0.37351 0.12019 0.61105 0.0
H2737 H 0.42049 0.05974 0.58027 0.0
H2738 H 0.42638 0.08386 0.54026 0.0
H2739 H 0.41947 0.12309 0.51381 0.0
H2740 H 0.37421 0.18444 0.54592 0.0
H2741 H 0.36757 0.15987 0.58534 0.0
C2742 C 0.38571 0.11258 0.59604 0.0
C2743 C 0.39711 0.08825 0.5995 0.0
C2744 C 0.38959 0.12699 0.57297 0.0
C2745 C 0.41157 0.07836 0.5787 0.0
C2746 C 0.41506 0.09227 0.55564 0.0
C2747 C 0.40811 0.13112 0.52935 0.0
C2748 C 0.39766 0.15602 0.52646 0.0
C2749 C 0.40433 0.11675 0.5525 0.0
C2750 C 0.38303 0.16578 0.54725 0.0
C2751 C 0.37899 0.15153 0.56998 0.0
H2752 H 0.6506 0.62861 0.34819 0.0
H2753 H 0.70315 0.696 0.3365 0.0
H2754 H 0.67857 0.70592 0.29689 0.0
H2755 H 0.64334 0.69257 0.26355 0.0
H2756 H 0.59089 0.62625 0.27914 0.0
H2757 H 0.61449 0.61845 0.31905 0.0
C2758 C 0.65711 0.64539 0.33696 0.0
C2759 C 0.67932 0.66105 0.34502 0.0
C2760 C 0.64277 0.65108 0.31477 0.0
C2761 C 0.68644 0.68332 0.3306 0.0
C2762 C 0.6723 0.689 0.30798 0.0
C2763 C 0.63654 0.67722 0.27638 0.0
C2764 C 0.61503 0.66017 0.26864 0.0
C2765 C 0.65043 0.67285 0.29971 0.0
C2766 C 0.60702 0.63978 0.28496 0.0
C2767 C 0.62081 0.63504 0.3075 0.0
H2768 H 0.09558 0.9137 0.06304 0.0
H2769 H 0.09796 0.83416 0.08976 0.0
H2770 H 0.0949 0.81681 0.04502 0.0
H2771 H 0.09741 0.82479 0.99824 0.0
H2772 H 0.09397 0.90368 0.97125 0.0
H2773 H 0.09094 0.92097 0.01622 0.0
C2774 C 0.09477 0.89255 0.05913 0.0
C2775 C 0.09767 0.87527 0.0796 0.0
C2776 C 0.0929 0.88268 0.03336 0.0
C2777 C 0.09658 0.8479 0.07422 0.0
C2778 C 0.09468 0.83793 0.04869 0.0
C2779 C 0.09526 0.84561 1.00243 0.0
C2780 C 0.09588 0.86308 0.98204 0.0
C2781 C 0.09376 0.8552 0.02812 0.0
C2782 C 0.09325 0.89008 0.98706 0.0
C2783 C 0.09176 0.89989 0.01263 0.0
H2784 H 0.92476 0.38091 0.76844 0.0
H2785 H 0.8596 0.33784 0.73028 0.0
H2786 H 0.83563 0.33982 0.77005 0.0
H2787 H 0.83223 0.35416 0.81599 0.0
H2788 H 0.89674 0.39844 0.85341 0.0
H2789 H 0.92135 0.39554 0.81384 0.0
C2790 C 0.90539 0.37187 0.76854 0.0
C2791 C 0.8945 0.35922 0.74577 0.0
C2792 C 0.89123 0.37328 0.79163 0.0
C2793 C 0.86912 0.34767 0.74701 0.0
C2794 C 0.85507 0.34884 0.76996 0.0
C2795 C 0.85162 0.36329 0.81547 0.0
C2796 C 0.86253 0.37628 0.83794 0.0
C2797 C 0.86583 0.36172 0.79237 0.0
C2798 C 0.88778 0.38789 0.83676 0.0
C2799 C 0.90198 0.38635 0.81398 0.0
H2800 H 0.36686 0.89556 0.94782 0.0
H2801 H 0.42132 0.95731 0.97674 0.0
H2802 H 0.43126 0.93098 0.01409 0.0
H2803 H 0.42449 0.89022 0.03895 0.0
H2804 H 0.37239 0.82724 1.00768 0.0
H2805 H 0.36345 0.85319 0.97014 0.0
C2806 C 0.38164 0.90299 0.9616 0.0
C2807 C 0.39383 0.92833 0.95855 0.0
C2808 C 0.38802 0.88724 0.98279 0.0
C2809 C 0.41171 0.93788 0.97805 0.0
C2810 C 0.41757 0.9227 0.99949 0.0
C2811 C 0.41108 0.88204 0.02415 0.0
C2812 C 0.39827 0.85692 0.02739 0.0
C2813 C 0.40586 0.89726 1.00216 0.0
C2814 C 0.3819 0.84672 1.0068 0.0
C2815 C 0.3767 0.86164 0.98506 0.0
H2816 H 0.93897 0.66471 0.79688 0.0
H2817 H 0.86097 0.65612 0.82445 0.0
H2818 H 0.84523 0.64642 0.77986 0.0
H2819 H 0.85416 0.63723 0.73299 0.0
H2820 H 0.93288 0.64279 0.70723 0.0
H2821 H 0.94781 0.65631 0.75112 0.0
C2822 C 0.91852 0.66055 0.79332 0.0
C2823 C 0.90132 0.66089 0.81426 0.0
C2824 C 0.90972 0.65415 0.76783 0.0
C2825 C 0.87476 0.65619 0.80887 0.0
C2826 C 0.86573 0.65039 0.78332 0.0
C2827 C 0.87453 0.64153 0.73709 0.0
C2828 C 0.89246 0.63875 0.717 0.0
C2829 C 0.8831 0.64885 0.76266 0.0
C2830 C 0.9188 0.6444 0.72248 0.0
C2831 C 0.92733 0.65224 0.74753 0.0
H2832 H 0.10388 0.09606 0.51071 0.0
H2833 H 0.05757 0.14885 0.46933 0.0
H2834 H 0.04862 0.1728 0.51006 0.0
H2835 H 0.05791 0.18116 0.5569 0.0
H2836 H 0.10372 0.12782 0.59801 0.0
H2837 H 0.10903 0.10133 0.55817 0.0
C2838 C 0.09138 0.11244 0.51095 0.0
C2839 C 0.08129 0.12097 0.48765 0.0
C2840 C 0.08661 0.12609 0.53422 0.0
C2841 C 0.06527 0.14218 0.48751 0.0
C2842 C 0.06035 0.15589 0.51061 0.0
C2843 C 0.06879 0.16359 0.55688 0.0
C2844 C 0.08065 0.15637 0.57983 0.0
C2845 C 0.07155 0.14848 0.53397 0.0
C2846 C 0.09459 0.13355 0.58023 0.0
C2847 C 0.09761 0.11849 0.55756 0.0
H2848 H 0.63284 0.36487 0.19379 0.0
H2849 H 0.66909 0.43653 0.22808 0.0
H2850 H 0.64789 0.4277 0.26946 0.0
H2851 H 0.61579 0.40189 0.29424 0.0
H2852 H 0.57897 0.33038 0.26065 0.0
H2853 H 0.60393 0.33629 0.22058 0.0
C2854 C 0.63642 0.37815 0.21059 0.0
C2855 C 0.65244 0.40125 0.2082 0.0
C2856 C 0.62388 0.37305 0.23414 0.0
C2857 C 0.65698 0.41856 0.22978 0.0
C2858 C 0.64474 0.41359 0.25328 0.0
C2859 C 0.61338 0.38766 0.27805 0.0
C2860 C 0.59521 0.36619 0.27975 0.0
C2861 C 0.62763 0.39133 0.2554 0.0
C2862 C 0.59256 0.34728 0.25928 0.0
C2863 C 0.60679 0.35071 0.23653 0.0
H2864 H 0.60807 0.44928 0.09824 0.0
H2865 H 0.59098 0.36581 0.08417 0.0
H2866 H 0.54668 0.3703 0.09794 0.0
H2867 H 0.51435 0.39687 0.11928 0.0
H2868 H 0.53185 0.47947 0.13619 0.0
H2869 H 0.57467 0.47654 0.11675 0.0
C2870 C 0.59452 0.43221 0.09755 0.0
C2871 C 0.60291 0.4072 0.09029 0.0
C2872 C 0.56936 0.43471 0.10678 0.0
C2873 C 0.585 0.38528 0.08962 0.0
C2874 C 0.55974 0.38776 0.0978 0.0
C2875 C 0.52762 0.41414 0.1184 0.0
C2876 C 0.52044 0.43828 0.12911 0.0
C2877 C 0.55201 0.41215 0.10734 0.0
C2878 C 0.53736 0.46075 0.12802 0.0
C2879 C 0.56167 0.45903 0.11688 0.0
H2880 H 0.37348 0.72448 0.94516 0.0
H2881 H 0.29352 0.7233 0.92272 0.0
H2882 H 0.29667 0.77147 0.91925 0.0
H2883 H 0.32497 0.81098 0.91196 0.0
H2884 H 0.40732 0.80757 0.9233 0.0
H2885 H 0.40094 0.76416 0.94126 0.0
C2886 C 0.3566 0.73515 0.94062 0.0
C2887 C 0.33358 0.72088 0.93363 0.0
C2888 C 0.35949 0.76181 0.9355 0.0
C2889 C 0.31146 0.73423 0.92806 0.0
C2890 C 0.31349 0.76156 0.92544 0.0
C2891 C 0.34151 0.80069 0.9183 0.0
C2892 C 0.36658 0.81234 0.91603 0.0
C2893 C 0.33788 0.77508 0.92715 0.0
C2894 C 0.3878 0.79916 0.92502 0.0
C2895 C 0.3842 0.77431 0.93528 0.0
H2896 H 0.96407 0.55701 0.60774 0.0
H2897 H 0.95165 0.63851 0.5933 0.0
H2898 H 0.99561 0.65127 0.60843 0.0
H2899 H 0.03663 0.63935 0.62929 0.0
H2900 H 0.04937 0.55747 0.64044 0.0
H2901 H 1.00613 0.54466 0.62303 0.0
C2902 C 0.97091 0.5776 0.60757 0.0
C2903 C 0.95393 0.59694 0.6006 0.0
C2904 C 0.99625 0.58469 0.61599 0.0
C2905 C 0.9637 0.62333 0.59971 0.0
C2906 C 0.98896 0.63062 0.60827 0.0
C2907 C 0.02979 0.61875 0.62786 0.0
C2908 C 0.0458 0.59931 0.63655 0.0
C2909 C 1.00512 0.61155 0.61728 0.0
C2910 C 0.0372 0.57264 0.63402 0.0
C2911 C 0.01256 0.56538 0.62407 0.0
H2912 H 0.08774 0.26408 0.39627 0.0
H2913 H 0.16504 0.28245 0.42644 0.0
H2914 H 0.17612 0.23753 0.41488 0.0
H2915 H 0.16392 0.1929 0.3964 0.0
H2916 H 0.08759 0.17609 0.36341 0.0
H2917 H 0.0765 0.22096 0.3753 0.0
C2918 C 0.10722 0.2588 0.40012 0.0
C2919 C 0.12548 0.27745 0.41224 0.0
C2920 C 0.11374 0.23304 0.39275 0.0
C2921 C 0.15035 0.26906 0.41738 0.0
C2922 C 0.1568 0.24323 0.41056 0.0
C2923 C 0.14486 0.19898 0.39148 0.0
C2924 C 0.12642 0.18054 0.3794 0.0
C2925 C 0.13867 0.22507 0.39817 0.0
C2926 C 0.10202 0.1893 0.37317 0.0
C2927 C 0.09568 0.2151 0.37995 0.0
H2928 H 0.56081 0.66199 0.41747 0.0
H2929 H 0.6073 0.66679 0.34863 0.0
H2930 H 0.57013 0.65622 0.32121 0.0
H2931 H 0.52465 0.64642 0.31575 0.0
H2932 H 0.47594 0.64275 0.38285 0.0
H2933 H 0.5136 0.65076 0.4117 0.0
C2934 C 0.5628 0.66043 0.39652 0.0
C2935 C 0.58702 0.66571 0.38526 0.0
C2936 C 0.54095 0.65411 0.38039 0.0
C2937 C 0.58906 0.66341 0.35799 0.0
C2938 C 0.56779 0.65712 0.34212 0.0
C2939 C 0.52225 0.64748 0.33667 0.0
C2940 C 0.49766 0.64414 0.34701 0.0
C2941 C 0.54369 0.65269 0.35301 0.0
C2942 C 0.49482 0.64498 0.37428 0.0
C2943 C 0.51633 0.6498 0.39084 0.0
H2944 H 0.11228 0.83606 0.16731 0.0
H2945 H 0.16675 0.81753 0.2269 0.0
H2946 H 0.17463 0.77612 0.20349 0.0
H2947 H 0.16766 0.74571 0.1647 0.0
H2948 H 0.1149 0.7663 0.10421 0.0
H2949 H 0.10581 0.80644 0.1286 0.0
C2950 C 0.12641 0.8234 0.17491 0.0
C2951 C 0.13941 0.83062 0.19862 0.0
C2952 C 0.13144 0.79983 0.16091 0.0
C2953 C 0.15653 0.81287 0.20868 0.0
C2954 C 0.16117 0.78912 0.19518 0.0
C2955 C 0.1541 0.7589 0.1569 0.0
C2956 C 0.14226 0.75276 0.13235 0.0
C2957 C 0.14898 0.78245 0.17108 0.0
C2958 C 0.12478 0.77041 0.12268 0.0
C2959 C 0.11938 0.79346 0.13676 0.0
H2960 H 0.0489 0.41023 0.81449 0.0
H2961 H 0.09041 0.42919 0.88662 0.0
H2962 H 0.05045 0.42273 0.9107 0.0
H2963 H 1.00376 0.40883 0.91156 0.0
H2964 H 0.96341 0.38924 0.83881 0.0
H2965 H 1.00291 0.39787 0.81509 0.0
C2966 C 0.04942 0.41279 0.83549 0.0
C2967 C 0.07297 0.41995 0.84851 0.0
C2968 C 0.02646 0.40845 0.84932 0.0
C2969 C 0.07276 0.42386 0.8758 0.0
C2970 C 0.04984 0.41992 0.88971 0.0
C2971 C 1.00355 0.4066 0.89052 0.0
C2972 C 0.98047 0.39783 0.87718 0.0
C2973 C 0.02658 0.4118 0.87671 0.0
C2974 C 0.98081 0.39515 0.84983 0.0
C2975 C 1.00344 0.40036 0.83612 0.0
H2976 H 0.32383 0.17931 0.6418 0.0
H2977 H 0.38453 0.22513 0.68349 0.0
H2978 H 0.37108 0.26549 0.66359 0.0
H2979 H 0.34466 0.28636 0.63125 0.0
H2980 H 0.28571 0.24048 0.58744 0.0
H2981 H 0.29569 0.20088 0.61115 0.0
C2982 C 0.33365 0.19832 0.64679 0.0
C2983 C 0.35486 0.19979 0.664 0.0
C2984 C 0.32637 0.22096 0.63464 0.0
C2985 C 0.36797 0.22405 0.67038 0.0
C2986 C 0.36042 0.24688 0.6589 0.0
C2987 C 0.33399 0.26763 0.6272 0.0
C2988 C 0.31471 0.26578 0.6078 0.0
C2989 C 0.34012 0.24537 0.64054 0.0
C2990 C 0.30078 0.2418 0.60225 0.0
C2991 C 0.30644 0.21943 0.61581 0.0
H2992 H 0.13472 0.51301 0.45632 0.0
H2993 H 0.13296 0.47023 0.38251 0.0
H2994 H 0.11372 0.50655 0.36154 0.0
H2995 H 0.10104 0.55205 0.36273 0.0
H2996 H 0.10495 0.59722 0.43514 0.0
H2997 H 0.11938 0.55913 0.45784 0.0
C2998 C 0.12981 0.51166 0.43575 0.0
C2999 C 0.13501 0.48859 0.42111 0.0
C3000 C 0.11924 0.53334 0.4234 0.0
C3001 C 0.12879 0.48734 0.39437 0.0
C3002 C 0.11792 0.5083 0.38226 0.0
C3003 C 0.10454 0.55349 0.38359 0.0
C3004 C 0.10149 0.57768 0.39709 0.0
C3005 C 0.11349 0.53158 0.3964 0.0
C3006 C 0.10639 0.57895 0.42415 0.0
C3007 C 0.11507 0.55709 0.43716 0.0
H3008 H 0.65204 0.94787 0.59811 0.0
H3009 H 0.57005 0.94966 0.6083 0.0
H3010 H 0.57277 0.99749 0.60217 0.0
H3011 H 0.59974 0.03941 0.60135 0.0
H3012 H 0.68172 0.0376 0.59171 0.0
H3013 H 0.67789 0.98909 0.58945 0.0
C3014 C 0.63462 0.95859 0.59794 0.0
C3015 C 0.61076 0.9452 0.60332 0.0
C3016 C 0.6365 0.98611 0.59477 0.0
C3017 C 0.58846 0.95939 0.60366 0.0
C3018 C 0.59013 0.9868 0.60047 0.0
C3019 C 0.6166 0.02831 0.59784 0.0
C3020 C 0.64103 0.04204 0.59667 0.0
C3021 C 0.61418 1.00048 0.59703 0.0
C3022 C 0.66277 0.02752 0.59231 0.0
C3023 C 0.66055 0.9998 0.59137 0.0
H3024 H 0.84905 0.85286 0.33237 0.0
H3025 H 0.82414 0.84681 0.41171 0.0
H3026 H 0.78413 0.86698 0.40062 0.0
H3027 H 0.75979 0.89339 0.37037 0.0
H3028 H 0.78729 0.90458 0.29282 0.0
H3029 H 0.82356 0.87695 0.30152 0.0
C3030 C 0.83489 0.85566 0.34723 0.0
C3031 C 0.84002 0.84878 0.37305 0.0
C3032 C 0.81276 0.86917 0.34117 0.0
C3033 C 0.8208 0.85197 0.39171 0.0
C3034 C 0.79805 0.86388 0.38548 0.0
C3035 C 0.77362 0.88932 0.35536 0.0
C3036 C 0.7712 0.9009 0.33108 0.0
C3037 C 0.79443 0.87374 0.36063 0.0
C3038 C 0.78897 0.89573 0.31159 0.0
C3039 C 0.80954 0.87989 0.31655 0.0
H3040 H 0.87192 0.96422 0.12098 0.0
H3041 H 0.79912 0.99815 0.1353 0.0
H3042 H 0.82068 0.04238 0.13756 0.0
H3043 H 0.86015 0.07073 0.1373 0.0
H3044 H 0.93354 0.037 0.1254 0.0
H3045 H 0.91161 0.99305 0.11934 0.0
C3046 C 0.86075 0.98136 0.12419 0.0
C3047 C 0.834 0.97809 0.12801 0.0
C3048 C 0.87334 1.00653 0.12589 0.0
C3049 C 0.81976 1.00031 0.13259 0.0
C3050 C 0.83205 0.0255 0.1338 0.0
C3051 C 0.87145 0.05373 0.13375 0.0
C3052 C 0.89849 0.05695 0.1325 0.0
C3053 C 0.85885 0.02872 0.13093 0.0
C3054 C 0.91273 0.03494 0.1267 0.0
C3055 C 0.90022 1.00987 0.12334 0.0
H3056 H 0.27465 0.59433 0.3171 0.0
H3057 H 0.31231 0.67193 0.32992 0.0
H3058 H 0.27234 0.68855 0.3458 0.0
H3059 H 0.22749 0.68004 0.36007 0.0
H3060 H 0.19143 0.60149 0.35005 0.0
H3061 H 0.2302 0.5861 0.33002 0.0
C3062 C 0.27423 0.61485 0.32344 0.0
C3063 C 0.29668 0.63158 0.32256 0.0
C3064 C 0.25153 0.62406 0.33364 0.0
C3065 C 0.29544 0.65841 0.33014 0.0
C3066 C 0.27258 0.66796 0.33956 0.0
C3067 C 0.2282 0.65962 0.35337 0.0
C3068 C 0.2069 0.64181 0.35691 0.0
C3069 C 0.25068 0.65079 0.34204 0.0
C3070 C 0.20788 0.6154 0.3481 0.0
C3071 C 0.22992 0.60663 0.33643 0.0
H3072 H 0.35904 0.53682 0.90188 0.0
H3073 H 0.28692 0.48965 0.89801 0.0
H3074 H 0.30948 0.45218 0.88141 0.0
H3075 H 0.34841 0.43295 0.86787 0.0
H3076 H 0.42097 0.4793 0.87095 0.0
H3077 H 0.39915 0.51691 0.88904 0.0
C3078 C 0.34818 0.5182 0.89805 0.0
C3079 C 0.32117 0.51603 0.90142 0.0
C3080 C 0.36117 0.49667 0.88829 0.0
C3081 C 0.30759 0.49185 0.89559 0.0
C3082 C 0.32043 0.47044 0.88601 0.0
C3083 C 0.35962 0.4513 0.87183 0.0
C3084 C 0.38635 0.4531 0.86758 0.0
C3085 C 0.34704 0.47273 0.88201 0.0
C3086 C 0.40039 0.4771 0.87393 0.0
C3087 C 0.3879 0.4987 0.88423 0.0
H3088 H 0.77416 0.09914 0.13998 0.0
H3089 H 0.73068 0.16888 0.14021 0.0
H3090 H 0.77053 0.19672 0.14 0.0
H3091 H 0.81815 0.2015 0.13833 0.0
H3092 H 0.86081 0.13122 0.13698 0.0
H3093 H 0.82129 0.10381 0.13883 0.0
C3094 C 0.77334 0.12041 0.13987 0.0
C3095 C 0.74928 0.1317 0.14024 0.0
C3096 C 0.79639 0.13644 0.13951 0.0
C3097 C 0.74879 0.15944 0.1404 0.0
C3098 C 0.77165 0.17549 0.14007 0.0
C3099 C 0.81881 0.18022 0.13859 0.0
C3100 C 0.84279 0.16869 0.13777 0.0
C3101 C 0.79563 0.16424 0.13949 0.0
C3102 C 0.84302 0.14096 0.13806 0.0
C3103 C 0.82023 0.12507 0.13892 0.0
H3104 H 0.74127 0.86139 0.62992 0.0
H3105 H 0.70904 0.93778 0.62965 0.0
H3106 H 0.75201 0.95952 0.63289 0.0
H3107 H 0.7988 0.95687 0.6308 0.0
H3108 H 0.83174 0.88129 0.63301 0.0
H3109 H 0.78854 0.85907 0.6345 0.0
C3110 C 0.74368 0.88276 0.63112 0.0
C3111 C 0.72211 0.89795 0.62872 0.0
C3112 C 0.76854 0.89525 0.63311 0.0
C3113 C 0.72547 0.92566 0.63059 0.0
C3114 C 0.74999 0.93814 0.63254 0.0
C3115 C 0.79634 0.93558 0.63191 0.0
C3116 C 0.81802 0.9206 0.63137 0.0
C3117 C 0.77165 0.92314 0.63289 0.0
C3118 C 0.81505 0.89306 0.63332 0.0
C3119 C 0.79043 0.88042 0.63405 0.0
H3120 H 0.98008 0.24938 0.16087 0.0
H3121 H 0.95551 0.24436 0.08055 0.0
H3122 H 0.98679 0.28071 0.07059 0.0
H3123 H 0.02662 0.30834 0.08371 0.0
H3124 H 0.05106 0.31157 0.16423 0.0
H3125 H 0.01431 0.28212 0.17529 0.0
C3126 C 0.98083 0.25708 0.14143 0.0
C3127 C 0.96527 0.24456 0.12156 0.0
C3128 C 0.99925 0.27749 0.13584 0.0
C3129 C 0.96687 0.25412 0.09628 0.0
C3130 C 0.98505 0.27468 0.09054 0.0
C3131 C 0.02322 0.30338 0.10378 0.0
C3132 C 0.04142 0.31225 0.1232 0.0
C3133 C 1.00213 0.2858 0.10997 0.0
C3134 C 0.03719 0.30515 0.14904 0.0
C3135 C 0.01627 0.28814 0.15535 0.0
H3136 H 0.01649 0.70646 0.33899 0.0
H3137 H 0.03569 0.7033 0.42056 0.0
H3138 H 1.00426 0.73611 0.43075 0.0
H3139 H 0.97552 0.77007 0.41566 0.0
H3140 H 0.95402 0.77106 0.3345 0.0
H3141 H 0.98168 0.73459 0.32495 0.0
C3142 C 0.01318 0.71235 0.35908 0.0
C3143 C 0.02842 0.7023 0.37901 0.0
C3144 C 0.9948 0.73109 0.36481 0.0
C3145 C 0.02402 0.71032 0.40491 0.0
C3146 C 1.00621 0.72936 0.41069 0.0
C3147 C 0.97631 0.76176 0.396 0.0
C3148 C 0.96264 0.77331 0.3758 0.0
C3149 C 0.99207 0.74049 0.39073 0.0
C3150 C 0.96399 0.76238 0.35043 0.0
C3151 C 0.98006 0.74167 0.34494 0.0
H3152 H 0.5444 0.7975 0.65976 0.0
H3153 H 0.53234 0.82317 0.58174 0.0
H3154 H 0.4945 0.79192 0.57648 0.0
H3155 H 0.4687 0.75273 0.59233 0.0
H3156 H 0.48093 0.72852 0.67081 0.0
H3157 H 0.51466 0.76377 0.67779 0.0
C3158 C 0.53317 0.79663 0.64177 0.0
C3159 C 0.54129 0.81242 0.62106 0.0
C3160 C 0.51151 0.77874 0.63898 0.0
C3161 C 0.52645 0.81127 0.59797 0.0
C3162 C 0.50492 0.79325 0.59492 0.0
C3163 C 0.47807 0.75597 0.61123 0.0
C3164 C 0.47206 0.73843 0.63124 0.0
C3165 C 0.49771 0.7763 0.61504 0.0
C3166 C 0.48484 0.74221 0.65541 0.0
C3167 C 0.50434 0.76216 0.65929 0.0
H3168 H 0.45883 0.25611 0.85225 0.0
H3169 H 0.50309 0.31175 0.90301 0.0
H3170 H 0.53339 0.27872 0.91226 0.0
H3171 H 0.55058 0.23599 0.90267 0.0
H3172 H 0.5086 0.17895 0.85208 0.0
H3173 H 0.47434 0.20996 0.84639 0.0
C3174 C 0.47485 0.26079 0.86566 0.0
C3175 C 0.47869 0.28679 0.87657 0.0
C3176 C 0.49286 0.24137 0.87087 0.0
C3177 C 0.4997 0.29228 0.8939 0.0
C3178 C 0.51715 0.2733 0.89932 0.0
C3179 C 0.53361 0.23002 0.89088 0.0
C3180 C 0.53215 0.20505 0.87801 0.0
C3181 C 0.51438 0.24808 0.88741 0.0
C3182 C 0.51008 0.19781 0.86263 0.0
C3183 C 0.49062 0.21576 0.85913 0.0
H3184 H 0.07794 0.95891 0.26544 0.0
H3185 H 0.15305 0.98518 0.23909 0.0
H3186 H 0.15348 0.02392 0.269 0.0
H3187 H 0.13187 0.05093 0.30283 0.0
H3188 H 0.05637 0.02403 0.32824 0.0
H3189 H 0.05652 0.98553 0.29868 0.0
C3190 C 0.0947 0.97271 0.26692 0.0
C3191 C 0.11589 0.96861 0.25092 0.0
C3192 C 0.09441 0.99538 0.28358 0.0
C3193 C 0.13698 0.98735 0.25205 0.0
C3194 C 0.13702 1.00976 0.26883 0.0
C3195 C 0.11519 0.03704 0.30127 0.0
C3196 C 0.09382 0.04083 0.3173 0.0
C3197 C 0.11566 0.01426 0.28451 0.0
C3198 C 0.0728 0.02198 0.31572 0.0
C3199 C 0.07298 0.9997 0.29904 0.0
H3200 H 0.28522 0.86849 0.46899 0.0
H3201 H 0.323 0.9452 0.45897 0.0
H3202 H 0.29235 0.96514 0.48795 0.0
H3203 H 0.25824 0.96002 0.52139 0.0
H3204 H 0.21898 0.88376 0.52961 0.0
H3205 H 0.24607 0.86476 0.49643 0.0
C3206 C 0.28613 0.88973 0.47229 0.0
C3207 C 0.30635 0.90525 0.461 0.0
C3208 C 0.26816 0.90124 0.48924 0.0
C3209 C 0.30746 0.93267 0.46637 0.0
C3210 C 0.29001 0.94413 0.48346 0.0
C3211 C 0.25499 0.93945 0.51526 0.0
C3212 C 0.23598 0.92358 0.52794 0.0
C3213 C 0.27074 0.92854 0.4957 0.0
C3214 C 0.23266 0.89678 0.51996 0.0
C3215 C 0.24854 0.88574 0.50106 0.0
H3216 H 0.37743 0.05735 0.77029 0.0
H3217 H 0.37071 0.99858 0.70759 0.0
H3218 H 0.36713 0.96367 0.7396 0.0
H3219 H 0.36463 0.95018 0.78523 0.0
H3220 H 0.37208 1.00913 0.8478 0.0
H3221 H 0.3765 0.04384 0.81578 0.0
C3222 C 0.37524 0.03689 0.76346 0.0
C3223 C 0.3742 0.03067 0.73635 0.0
C3224 C 0.37315 0.01706 0.78198 0.0
C3225 C 0.37168 1.004 0.72814 0.0
C3226 C 0.36949 0.98408 0.74651 0.0
C3227 C 0.36715 0.97062 0.79203 0.0
C3228 C 0.36774 0.97695 0.81914 0.0
C3229 C 0.36994 0.99042 0.77346 0.0
C3230 C 0.37137 1.0036 0.82726 0.0
C3231 C 0.37394 0.02344 0.8089 0.0
H3232 H 0.28006 0.16108 0.95995 0.0
H3233 H 0.21585 0.14966 0.01197 0.0
H3234 H 0.24403 0.13467 0.04506 0.0
H3235 H 0.28639 0.1263 0.0612 0.0
H3236 H 0.35273 0.13785 0.01276 0.0
H3237 H 0.32457 0.15063 0.97675 0.0
C3238 C 0.2723 0.15536 0.97853 0.0
C3239 C 0.24548 0.15696 0.98309 0.0
C3240 C 0.28906 0.14652 0.99835 0.0
C3241 C 0.2361 0.14912 1.00744 0.0
C3242 C 0.25229 0.14032 0.02666 0.0
C3243 C 0.29484 0.13132 0.04269 0.0
C3244 C 0.32173 0.13094 0.03986 0.0
C3245 C 0.2787 0.13913 0.02251 0.0
C3246 C 0.3321 0.13751 0.01554 0.0
C3247 C 0.31593 0.14515 0.995 0.0
H3248 H 0.7633 0.45606 0.03339 0.0
H3249 H 0.71089 0.38728 0.02497 0.0
H3250 H 0.73824 0.36854 0.99164 0.0
H3251 H 0.7803 0.36955 0.96801 0.0
H3252 H 0.83087 0.4399 0.97493 0.0
H3253 H 0.80114 0.46017 1.00485 0.0
C3254 C 0.75743 0.4373 0.02374 0.0
C3255 C 0.7348 0.42327 0.0319 0.0
C3256 C 0.77321 0.42675 1.00414 0.0
C3257 C 0.72782 0.39884 0.01916 0.0
C3258 C 0.74372 0.38794 1.0001 0.0
C3259 C 0.78434 0.38964 0.97538 0.0
C3260 C 0.80781 0.4033 0.96882 0.0
C3261 C 0.76687 0.4014 0.9928 0.0
C3262 C 0.81291 0.42908 0.97921 0.0
C3263 C 0.79595 0.44063 0.99659 0.0
H3264 H 0.89299 0.52381 0.24524 0.0
H3265 H 0.82383 0.50242 0.20054 0.0
H3266 H 0.81096 0.46928 0.23231 0.0
H3267 H 0.81732 0.44997 0.27524 0.0
H3268 H 0.88687 0.47162 0.3198 0.0
H3269 H 0.90178 0.50081 0.28561 0.0
C3270 C 0.87562 0.51108 0.24198 0.0
C3271 C 0.85968 0.51497 0.22028 0.0
C3272 C 0.86818 0.49253 0.26062 0.0
C3273 C 0.8368 0.49909 0.21661 0.0
C3274 C 0.82926 0.48049 0.23505 0.0
C3275 C 0.83583 0.46092 0.27744 0.0
C3276 C 0.85071 0.45882 0.30039 0.0
C3277 C 0.84443 0.47761 0.25754 0.0
C3278 C 0.87482 0.47297 0.3026 0.0
C3279 C 0.88342 0.48967 0.28298 0.0
H3280 H 0.7757 0.63338 0.45599 0.0
H3281 H 0.75076 0.70111 0.49937 0.0
H3282 H 0.78332 0.69555 0.53287 0.0
H3283 H 0.81474 0.66854 0.55285 0.0
H3284 H 0.84089 0.60034 0.51148 0.0
H3285 H 0.81268 0.60914 0.47417 0.0
C3286 C 0.77812 0.64744 0.4723 0.0
C3287 C 0.7609 0.66793 0.47494 0.0
C3288 C 0.79689 0.64377 0.49212 0.0
C3289 C 0.76386 0.68546 0.49664 0.0
C3290 C 0.78238 0.68215 0.51598 0.0
C3291 C 0.81471 0.65582 0.53547 0.0
C3292 C 0.82985 0.63369 0.53511 0.0
C3293 C 0.79837 0.66092 0.51438 0.0
C3294 C 0.8296 0.61758 0.51231 0.0
C3295 C 0.81325 0.62253 0.49104 0.0
H3296 H 0.61783 0.55515 0.79653 0.0
H3297 H 0.57058 0.5056 0.84585 0.0
H3298 H 0.57577 0.46769 0.81692 0.0
H3299 H 0.5924 0.44798 0.7764 0.0
H3300 H 0.6383 0.49729 0.72606 0.0
H3301 H 0.63529 0.53509 0.75626 0.0
C3302 C 0.6085 0.53614 0.80079 0.0
C3303 C 0.59375 0.53358 0.82344 0.0
C3304 C 0.6116 0.51391 0.7839 0.0
C3305 C 0.58207 0.5085 0.82864 0.0
C3306 C 0.58507 0.48654 0.81209 0.0
C3307 C 0.60232 0.46681 0.77248 0.0
C3308 C 0.61596 0.46963 0.74924 0.0
C3309 C 0.59983 0.48888 0.78965 0.0
C3310 C 0.62798 0.49447 0.74404 0.0
C3311 C 0.62606 0.51624 0.76119 0.0
H3312 H 0.95787 0.74621 0.87794 0.0
H3313 H 0.9946 0.70857 0.94117 0.0
H3314 H 0.03434 0.7365 0.93485 0.0
H3315 H 0.05704 0.77548 0.91383 0.0
H3316 H 0.01876 0.81146 0.85046 0.0
H3317 H 0.98154 0.78035 0.85417 0.0
C3318 C 0.9746 0.74387 0.89032 0.0
C3319 C 0.97297 0.72551 0.91034 0.0
C3320 C 0.99728 0.75981 0.8864 0.0
C3321 C 0.99513 0.72257 0.92573 0.0
C3322 C 0.01788 0.73865 0.92211 0.0
C3323 C 0.04096 0.77575 0.90022 0.0
C3324 C 0.04101 0.79552 0.88141 0.0
C3325 C 0.01907 0.75779 0.90279 0.0
C3326 C 0.01954 0.79617 0.86461 0.0
C3327 C 0.99806 0.77853 0.86694 0.0
H3328 H 0.94453 0.25796 0.6628 0.0
H3329 H 0.99774 0.32382 0.64677 0.0
H3330 H 0.03405 0.29678 0.65622 0.0
H3331 H 0.05053 0.25487 0.66989 0.0
H3332 H 0.9974 0.18873 0.6851 0.0
H3333 H 0.96105 0.21563 0.6752 0.0
C3334 C 0.96405 0.26652 0.6613 0.0
C3335 C 0.9683 0.29311 0.65415 0.0
C3336 C 0.98479 0.25083 0.6668 0.0
C3337 C 0.99381 0.30359 0.65226 0.0
C3338 C 0.01458 0.28809 0.65771 0.0
C3339 C 0.031 0.24626 0.67122 0.0
C3340 C 0.02676 0.21976 0.67863 0.0
C3341 C 0.01028 0.26178 0.66521 0.0
C3342 C 1.00129 0.20898 0.67965 0.0
C3343 C 0.98051 0.2244 0.67396 0.0
H3344 H 0.49352 0.21668 0.42969 0.0
H3345 H 0.43699 0.23702 0.37277 0.0
H3346 H 0.46763 0.2694 0.35497 0.0
H3347 H 0.50829 0.29632 0.3587 0.0
H3348 H 0.56641 0.2771 0.41409 0.0
H3349 H 0.53801 0.24009 0.42884 0.0
C3350 C 0.48829 0.22745 0.41275 0.0
C3351 C 0.46281 0.22377 0.40234 0.0
C3352 C 0.50633 0.24672 0.40246 0.0
C3353 C 0.4564 0.23877 0.3809 0.0
C3354 C 0.47391 0.25765 0.37081 0.0
C3355 C 0.51511 0.28358 0.37351 0.0
C3356 C 0.53967 0.28956 0.38504 0.0
C3357 C 0.49862 0.2624 0.38187 0.0
C3358 C 0.5479 0.27287 0.40445 0.0
C3359 C 0.53142 0.25179 0.41311 0.0
H3360 H 0.5464 0.76599 0.17493 0.0
H3361 H 0.50231 0.69204 0.16058 0.0
H3362 H 0.46532 0.71621 0.14644 0.0
H3363 H 0.44545 0.75846 0.13834 0.0
H3364 H 0.49038 0.8321 0.15147 0.0
H3365 H 0.52719 0.80783 0.16557 0.0
C3366 C 0.52869 0.75496 0.16891 0.0
C3367 C 0.52726 0.72698 0.16927 0.0
C3368 C 0.50767 0.76902 0.16032 0.0
C3369 C 0.50408 0.71341 0.1609 0.0
C3370 C 0.48292 0.7273 0.15267 0.0
C3371 C 0.46333 0.76932 0.14415 0.0
C3372 C 0.46496 0.79733 0.14376 0.0
C3373 C 0.48449 0.75512 0.15228 0.0
C3374 C 0.48844 0.81074 0.15132 0.0
C3375 C 0.50948 0.7968 0.15956 0.0
H3376 H 0.93672 0.09228 0.72761 0.0
H3377 H 0.86363 0.06893 0.76101 0.0
H3378 H 0.85791 0.03199 0.72931 0.0
H3379 H 0.87613 1.00322 0.69579 0.0
H3380 H 0.94843 0.02657 0.6607 0.0
H3381 H 0.95172 0.06696 0.68862 0.0
C3382 C 0.91905 0.07976 0.72714 0.0
C3383 C 0.90027 0.0838 0.74627 0.0
C3384 C 0.91592 0.05837 0.70869 0.0
C3385 C 0.87791 0.06683 0.74601 0.0
C3386 C 0.87483 0.04544 0.72809 0.0
C3387 C 0.89238 0.01743 0.6938 0.0
C3388 C 0.91212 1.01172 0.67621 0.0
C3389 C 0.89404 0.04057 0.70985 0.0
C3390 C 0.93292 0.03045 0.67389 0.0
C3391 C 0.93488 0.05347 0.69006 0.0
H3392 H 0.78695 0.10563 0.50694 0.0
H3393 H 0.76874 0.17335 0.4633 0.0
H3394 H 0.74044 0.18767 0.49755 0.0
H3395 H 0.71617 0.17807 0.53668 0.0
H3396 H 0.73228 0.11066 0.58129 0.0
H3397 H 0.76622 0.09939 0.55054 0.0
C3398 C 0.77735 0.12389 0.5054 0.0
C3399 C 0.77993 0.13836 0.48246 0.0
C3400 C 0.76048 0.13197 0.52531 0.0
C3401 C 0.76704 0.16179 0.48062 0.0
C3402 C 0.75075 0.17 0.5002 0.0
C3403 C 0.72767 0.16135 0.54014 0.0
C3404 C 0.72186 0.14538 0.56136 0.0
C3405 C 0.74665 0.15483 0.52217 0.0
C3406 C 0.73669 0.12359 0.5654 0.0
C3407 C 0.75587 0.11696 0.54756 0.0
H3408 H 0.61779 0.03865 0.2169 0.0
H3409 H 0.68279 0.02756 0.16757 0.0
H3410 H 0.69578 0.99129 0.19443 0.0
H3411 H 0.69208 0.96761 0.23637 0.0
H3412 H 0.62622 0.97934 0.28452 0.0
H3413 H 0.60991 1.00998 0.25368 0.0
C3414 C 0.63439 0.02777 0.2116 0.0
C3415 C 0.64935 0.0358 0.19035 0.0
C3416 C 0.6417 1.00711 0.22716 0.0
C3417 C 0.67082 0.02159 0.18369 0.0
C3418 C 0.67838 1.00101 0.19924 0.0
C3419 C 0.67369 0.97613 0.23949 0.0
C3420 C 0.66024 0.97107 0.26262 0.0
C3421 C 0.66448 0.9942 0.22162 0.0
C3422 C 0.63673 0.98272 0.26674 0.0
C3423 C 0.6275 1.00044 0.24922 0.0
H3424 H 0.68176 0.83932 0.01247 0.0
H3425 H 0.6788 0.92202 0.99743 0.0
H3426 H 0.70977 0.93302 0.03308 0.0
H3427 H 0.74243 0.91841 0.06392 0.0
H3428 H 0.74408 0.83594 0.08057 0.0
H3429 H 0.70841 0.8255 0.0495 0.0
C3430 C 0.68731 0.85978 0.01761 0.0
C3431 C 0.67804 0.87987 1.0024 0.0
C3432 C 0.70499 0.86593 0.03832 0.0
C3433 C 0.68541 0.90629 1.00909 0.0
C3434 C 0.70332 0.91254 0.02931 0.0
C3435 C 0.73439 0.89825 0.06135 0.0
C3436 C 0.74592 0.87795 0.07447 0.0
C3437 C 0.7139 0.89246 0.04344 0.0
C3438 C 0.73539 0.85193 0.07094 0.0
C3439 C 0.71518 0.84594 0.05292 0.0
H3440 H 0.25435 0.59083 0.9851 0.0
H3441 H 0.29989 0.66451 0.98721 0.0
H3442 H 0.27664 0.67946 0.02578 0.0
H3443 H 0.23854 0.67368 0.05506 0.0
H3444 H 0.19461 0.59888 0.05272 0.0
H3445 H 0.22212 0.58214 0.01873 0.0
C3446 C 0.2598 0.6098 0.99457 0.0
C3447 C 0.27897 0.62642 0.98339 0.0
C3448 C 0.24637 0.61816 0.01674 0.0
C3449 C 0.28553 0.65113 0.99564 0.0
C3450 C 0.27199 0.65979 0.01758 0.0
C3451 C 0.23576 0.65338 0.04786 0.0
C3452 C 0.21471 0.63741 0.05681 0.0
C3453 C 0.25175 0.64379 0.02788 0.0
C3454 C 0.2109 0.6114 0.04661 0.0
C3455 C 0.22649 0.60188 0.0269 0.0
H3456 H 0.19655 0.53236 0.68946 0.0
H3457 H 0.11417 0.53652 0.68326 0.0
H3458 H 0.10826 0.50199 0.7153 0.0
H3459 H 0.12706 0.47594 0.75015 0.0
H3460 H 0.20933 0.47006 0.75463 0.0
H3461 H 0.21483 0.49953 0.71802 0.0
C3462 C 0.17727 0.52502 0.69445 0.0
C3463 C 0.1558 0.537 0.6839 0.0
C3464 C 0.17407 0.50507 0.71287 0.0
C3465 C 0.13097 0.52743 0.69073 0.0
C3466 C 0.12763 0.50789 0.70934 0.0
C3467 C 0.14612 0.48042 0.7425 0.0
C3468 C 0.16779 0.47075 0.75511 0.0
C3469 C 0.14908 0.49729 0.72126 0.0
C3470 C 0.19236 0.47688 0.74511 0.0
C3471 C 0.1955 0.494 0.72433 0.0
H3472 H 0.23497 0.4165 0.56408 0.0
H3473 H 0.2441 0.33321 0.57054 0.0
H3474 H 0.2075 0.32328 0.54055 0.0
H3475 H 0.17766 0.33878 0.50703 0.0
H3476 H 0.16695 0.42191 0.50235 0.0
H3477 H 0.19894 0.43148 0.53736 0.0
C3478 C 0.22838 0.39617 0.55955 0.0
C3479 C 0.24229 0.37561 0.56947 0.0
C3480 C 0.20712 0.39062 0.54244 0.0
C3481 C 0.2336 0.34936 0.56341 0.0
C3482 C 0.2128 0.3437 0.54603 0.0
C3483 C 0.18154 0.35888 0.5145 0.0
C3484 C 0.1697 0.3796 0.50233 0.0
C3485 C 0.20001 0.36419 0.53469 0.0
C3486 C 0.17531 0.4056 0.51178 0.0
C3487 C 0.19392 0.41109 0.53156 0.0
H3488 H 0.44922 0.57548 0.24535 0.0
H3489 H 0.36969 0.59424 0.2389 0.0
H3490 H 0.3637 0.56406 0.20077 0.0
H3491 H 0.37941 0.52661 0.17445 0.0
H3492 H 0.45933 0.50923 0.17996 0.0
H3493 H 0.46709 0.54482 0.21297 0.0
C3494 C 0.4308 0.57354 0.23507 0.0
C3495 C 0.40985 0.58689 0.24499 0.0
C3496 C 0.42758 0.55623 0.21314 0.0
C3497 C 0.38611 0.58431 0.23153 0.0
C3498 C 0.38264 0.56685 0.20987 0.0
C3499 C 0.39875 0.53147 0.18208 0.0
C3500 C 0.41888 0.51559 0.1746 0.0
C3501 C 0.40298 0.55193 0.20116 0.0
C3502 C 0.44373 0.52159 0.18498 0.0
C3503 C 0.44805 0.54169 0.20415 0.0
loop_
_geom_bond_atom_site_label_1
_geom_bond_atom_site_label_2
_geom_bond_distance
_geom_bond_site_symmetry_2
_ccdc_geom_bond_type
C0 C1 1.351 . S
C0 N3 1.368 . S
C0 H5 0.931 . S
C1 C0 1.351 . S
C1 N2 1.373 . S
C1 H29 0.930 . S
N2 C1 1.373 . S
N2 C4 1.340 . S
N3 C0 1.368 . S
N3 C4 1.321 . S
N3 Co6 2.135 . S
C4 N2 1.340 . S
C4 N3 1.321 . S
C4 H28 0.930 . S
H5 C0 0.931 . S
Co6 N3 2.135 . S
Co6 N9 2.121 . S
Co6 O14 2.055 . S
Co6 O17 2.039 . S
Co6 N20 2.140 . S
C7 O8 1.227 . S
C7 O17 1.265 . S
O8 C7 1.227 . S
N9 Co6 2.121 . S
N9 C11 1.375 . S
N9 C12 1.313 . S
C10 C11 1.338 . S
C10 N13 1.377 . S
C10 H30 0.930 . S
C11 N9 1.375 . S
C11 C10 1.338 . S
C11 H15 0.931 . S
C12 N9 1.313 . S
C12 N13 1.344 . S
C12 H16 0.930 . S
N13 C10 1.377 . S
N13 C12 1.344 . S
O14 Co6 2.055 . S
O14 C18 1.253 . S
H15 C11 0.931 . S
H16 C12 0.930 . S
O17 Co6 2.039 . S
O17 C7 1.265 . S
C18 O14 1.253 . S
C18 O19 1.227 . S
O19 C18 1.227 . S
N20 Co6 2.140 . S
N20 C23 1.346 . S
N20 C24 1.345 . S
C21 C22 1.387 . S
C21 C25 1.391 . S
C22 C21 1.387 . S
C22 C23 1.369 . S
C22 H31 0.929 . S
C23 N20 1.346 . S
C23 C22 1.369 . S
C23 H26 0.928 . S
C24 N20 1.345 . S
C24 C25 1.371 . S
C24 H27 0.931 . S
C25 C21 1.391 . S
C25 C24 1.371 . S
C25 H32 0.930 . S
H26 C23 0.928 . S
H27 C24 0.931 . S
H28 C4 0.930 . S
H29 C1 0.930 . S
H30 C10 0.930 . S
H31 C22 0.929 . S
H32 C25 0.930 . S
C33 C34 1.351 . S
C33 N36 1.368 . S
C33 H38 0.931 . S
C34 C33 1.351 . S
C34 N35 1.373 . S
C34 H62 0.930 . S
N35 C34 1.373 . S
N35 C37 1.340 . S
N36 C33 1.368 . S
N36 C37 1.321 . S
N36 Co39 2.135 . S
C37 N35 1.340 . S
C37 N36 1.321 . S
C37 H61 0.930 . S
H38 C33 0.931 . S
Co39 N36 2.135 . S
Co39 N42 2.121 . S
Co39 O47 2.055 . S
Co39 O50 2.039 . S
Co39 N53 2.140 . S
C40 O41 1.227 . S
C40 O50 1.265 . S
O41 C40 1.227 . S
N42 Co39 2.121 . S
N42 C44 1.375 . S
N42 C45 1.313 . S
C43 C44 1.338 . S
C43 N46 1.377 . S
C43 H63 0.930 . S
C44 N42 1.375 . S
C44 C43 1.338 . S
C44 H48 0.931 . S
C45 N42 1.313 . S
C45 N46 1.344 . S
C45 H49 0.930 . S
N46 C43 1.377 . S
N46 C45 1.344 . S
O47 Co39 2.055 . S
O47 C51 1.253 . S
H48 C44 0.931 . S
H49 C45 0.930 . S
O50 Co39 2.039 . S
O50 C40 1.265 . S
C51 O47 1.253 . S
C51 O52 1.227 . S
O52 C51 1.227 . S
N53 Co39 2.140 . S
N53 C56 1.346 . S
N53 C57 1.345 . S
C54 C55 1.387 . S
C54 C58 1.391 . S
C55 C54 1.387 . S
C55 C56 1.369 . S
C55 H64 0.929 . S
C56 N53 1.346 . S
C56 C55 1.369 . S
C56 H59 0.928 . S
C57 N53 1.345 . S
C57 C58 1.371 . S
C57 H60 0.931 . S
C58 C54 1.391 . S
C58 C57 1.371 . S
C58 H65 0.930 . S
H59 C56 0.928 . S
H60 C57 0.931 . S
H61 C37 0.930 . S
H62 C34 0.930 . S
H63 C43 0.930 . S
H64 C55 0.929 . S
H65 C58 0.930 . S
C66 C67 1.351 . S
C66 N69 1.368 . S
C66 H71 0.931 . S
C67 C66 1.351 . S
C67 N68 1.373 . S
C67 H95 0.930 . S
N68 C67 1.373 . S
N68 C70 1.340 . S
N69 C66 1.368 . S
N69 C70 1.321 . S
N69 Co72 2.135 . S
C70 N68 1.340 . S
C70 N69 1.321 . S
C70 H94 0.930 . S
H71 C66 0.931 . S
Co72 N69 2.135 . S
Co72 N75 2.121 . S
Co72 O80 2.055 . S
Co72 O83 2.039 . S
Co72 N86 2.140 . S
C73 O74 1.227 . S
C73 O83 1.265 . S
O74 C73 1.227 . S
N75 Co72 2.121 . S
N75 C77 1.375 . S
N75 C78 1.313 . S
C76 C77 1.338 . S
C76 N79 1.377 . S
C76 H96 0.930 . S
C77 N75 1.375 . S
C77 C76 1.338 . S
C77 H81 0.931 . S
C78 N75 1.313 . S
C78 N79 1.344 . S
C78 H82 0.930 . S
N79 C76 1.377 . S
N79 C78 1.344 . S
O80 Co72 2.055 . S
O80 C84 1.253 . S
H81 C77 0.931 . S
H82 C78 0.930 . S
O83 Co72 2.039 . S
O83 C73 1.265 . S
C84 O80 1.253 . S
C84 O85 1.227 . S
O85 C84 1.227 . S
N86 Co72 2.140 . S
N86 C89 1.346 . S
N86 C90 1.345 . S
C87 C88 1.387 . S
C87 C91 1.391 . S
C88 C87 1.387 . S
C88 C89 1.369 . S
C88 H97 0.929 . S
C89 N86 1.346 . S
C89 C88 1.369 . S
C89 H92 0.928 . S
C90 N86 1.345 . S
C90 C91 1.371 . S
C90 H93 0.931 . S
C91 C87 1.391 . S
C91 C90 1.371 . S
C91 H98 0.930 . S
H92 C89 0.928 . S
H93 C90 0.931 . S
H94 C70 0.930 . S
H95 C67 0.930 . S
H96 C76 0.930 . S
H97 C88 0.929 . S
H98 C91 0.930 . S
C99 C100 1.351 . S
C99 N102 1.368 . S
C99 H104 0.931 . S
C100 C99 1.351 . S
C100 N101 1.373 . S
C100 H128 0.930 . S
N101 C100 1.373 . S
N101 C103 1.340 . S
N102 C99 1.368 . S
N102 C103 1.321 . S
N102 Co105 2.135 . S
C103 N101 1.340 . S
C103 N102 1.321 . S
C103 H127 0.930 . S
H104 C99 0.931 . S
Co105 N102 2.135 . S
Co105 N108 2.121 . S
Co105 O113 2.055 . S
Co105 O116 2.039 . S
Co105 N119 2.140 . S
C106 O107 1.227 . S
C106 O116 1.265 . S
O107 C106 1.227 . S
N108 Co105 2.121 . S
N108 C110 1.375 . S
N108 C111 1.313 . S
C109 C110 1.338 . S
C109 N112 1.377 . S
C109 H129 0.930 . S
C110 N108 1.375 . S
C110 C109 1.338 . S
C110 H114 0.931 . S
C111 N108 1.313 . S
C111 N112 1.344 . S
C111 H115 0.930 . S
N112 C109 1.377 . S
N112 C111 1.344 . S
O113 Co105 2.055 . S
O113 C117 1.253 . S
H114 C110 0.931 . S
H115 C111 0.930 . S
O116 Co105 2.039 . S
O116 C106 1.265 . S
C117 O113 1.253 . S
C117 O118 1.227 . S
O118 C117 1.227 . S
N119 Co105 2.140 . S
N119 C122 1.346 . S
N119 C123 1.345 . S
C120 C121 1.387 . S
C120 C124 1.391 . S
C121 C120 1.387 . S
C121 C122 1.369 . S
C121 H130 0.929 . S
C122 N119 1.346 . S
C122 C121 1.369 . S
C122 H125 0.928 . S
C123 N119 1.345 . S
C123 C124 1.371 . S
C123 H126 0.931 . S
C124 C120 1.391 . S
C124 C123 1.371 . S
C124 H131 0.930 . S
H125 C122 0.928 . S
H126 C123 0.931 . S
H127 C103 0.930 . S
H128 C100 0.930 . S
H129 C109 0.930 . S
H130 C121 0.929 . S
H131 C124 0.930 . S
C132 C133 1.351 . S
C132 N135 1.368 . S
C132 H137 0.931 . S
C133 C132 1.351 . S
C133 N134 1.373 . S
C133 H161 0.930 . S
N134 C133 1.373 . S
N134 C136 1.340 . S
N135 C132 1.368 . S
N135 C136 1.321 . S
N135 Co138 2.135 . S
C136 N134 1.340 . S
C136 N135 1.321 . S
C136 H160 0.930 . S
H137 C132 0.931 . S
Co138 N135 2.135 . S
Co138 N141 2.121 . S
Co138 O146 2.055 . S
Co138 O149 2.039 . S
Co138 N152 2.140 . S
C139 O140 1.227 . S
C139 O149 1.265 . S
O140 C139 1.227 . S
N141 Co138 2.121 . S
N141 C143 1.375 . S
N141 C144 1.313 . S
C142 C143 1.338 . S
C142 N145 1.377 . S
C142 H162 0.930 . S
C143 N141 1.375 . S
C143 C142 1.338 . S
C143 H147 0.931 . S
C144 N141 1.313 . S
C144 N145 1.344 . S
C144 H148 0.930 . S
N145 C142 1.377 . S
N145 C144 1.344 . S
O146 Co138 2.055 . S
O146 C150 1.253 . S
H147 C143 0.931 . S
H148 C144 0.930 . S
O149 Co138 2.039 . S
O149 C139 1.265 . S
C150 O146 1.253 . S
C150 O151 1.227 . S
O151 C150 1.227 . S
N152 Co138 2.140 . S
N152 C155 1.346 . S
N152 C156 1.345 . S
C153 C154 1.387 . S
C153 C157 1.391 . S
C154 C153 1.387 . S
C154 C155 1.369 . S
C154 H163 0.929 . S
C155 N152 1.346 . S
C155 C154 1.369 . S
C155 H158 0.928 . S
C156 N152 1.345 . S
C156 C157 1.371 . S
C156 H159 0.931 . S
C157 C153 1.391 . S
C157 C156 1.371 . S
C157 H164 0.930 . S
H158 C155 0.928 . S
H159 C156 0.931 . S
H160 C136 0.930 . S
H161 C133 0.930 . S
H162 C142 0.930 . S
H163 C154 0.929 . S
H164 C157 0.930 . S
C165 C166 1.351 . S
C165 N168 1.368 . S
C165 H170 0.931 . S
C166 C165 1.351 . S
C166 N167 1.373 . S
C166 H194 0.930 . S
N167 C166 1.373 . S
N167 C169 1.340 . S
N168 C165 1.368 . S
N168 C169 1.321 . S
N168 Co171 2.135 . S
C169 N167 1.340 . S
C169 N168 1.321 . S
C169 H193 0.930 . S
H170 C165 0.931 . S
Co171 N168 2.135 . S
Co171 N174 2.121 . S
Co171 O179 2.055 . S
Co171 O182 2.039 . S
Co171 N185 2.140 . S
C172 O173 1.227 . S
C172 O182 1.265 . S
O173 C172 1.227 . S
N174 Co171 2.121 . S
N174 C176 1.375 . S
N174 C177 1.313 . S
C175 C176 1.338 . S
C175 N178 1.377 . S
C175 H195 0.930 . S
C176 N174 1.375 . S
C176 C175 1.338 . S
C176 H180 0.931 . S
C177 N174 1.313 . S
C177 N178 1.344 . S
C177 H181 0.930 . S
N178 C175 1.377 . S
N178 C177 1.344 . S
O179 Co171 2.055 . S
O179 C183 1.253 . S
H180 C176 0.931 . S
H181 C177 0.930 . S
O182 Co171 2.039 . S
O182 C172 1.265 . S
C183 O179 1.253 . S
C183 O184 1.227 . S
O184 C183 1.227 . S
N185 Co171 2.140 . S
N185 C188 1.346 . S
N185 C189 1.345 . S
C186 C187 1.387 . S
C186 C190 1.391 . S
C187 C186 1.387 . S
C187 C188 1.369 . S
C187 H196 0.929 . S
C188 N185 1.346 . S
C188 C187 1.369 . S
C188 H191 0.928 . S
C189 N185 1.345 . S
C189 C190 1.371 . S
C189 H192 0.931 . S
C190 C186 1.391 . S
C190 C189 1.371 . S
C190 H197 0.930 . S
H191 C188 0.928 . S
H192 C189 0.931 . S
H193 C169 0.930 . S
H194 C166 0.930 . S
H195 C175 0.930 . S
H196 C187 0.929 . S
H197 C190 0.930 . S
C198 C199 1.351 . S
C198 N201 1.368 . S
C198 H203 0.931 . S
C199 C198 1.351 . S
C199 N200 1.373 . S
C199 H227 0.930 . S
N200 C199 1.373 . S
N200 C202 1.340 . S
N201 C198 1.368 . S
N201 C202 1.321 . S
N201 Co204 2.135 . S
C202 N200 1.340 . S
C202 N201 1.321 . S
C202 H226 0.930 . S
H203 C198 0.931 . S
Co204 N201 2.135 . S
Co204 N207 2.121 . S
Co204 O212 2.055 . S
Co204 O215 2.039 . S
Co204 N218 2.140 . S
C205 O206 1.227 . S
C205 O215 1.265 . S
O206 C205 1.227 . S
N207 Co204 2.121 . S
N207 C209 1.375 . S
N207 C210 1.313 . S
C208 C209 1.338 . S
C208 N211 1.377 . S
C208 H228 0.930 . S
C209 N207 1.375 . S
C209 C208 1.338 . S
C209 H213 0.931 . S
C210 N207 1.313 . S
C210 N211 1.344 . S
C210 H214 0.930 . S
N211 C208 1.377 . S
N211 C210 1.344 . S
O212 Co204 2.055 . S
O212 C216 1.253 . S
H213 C209 0.931 . S
H214 C210 0.930 . S
O215 Co204 2.039 . S
O215 C205 1.265 . S
C216 O212 1.253 . S
C216 O217 1.227 . S
O217 C216 1.227 . S
N218 Co204 2.140 . S
N218 C221 1.346 . S
N218 C222 1.345 . S
C219 C220 1.387 . S
C219 C223 1.391 . S
C220 C219 1.387 . S
C220 C221 1.369 . S
C220 H229 0.929 . S
C221 N218 1.346 . S
C221 C220 1.369 . S
C221 H224 0.928 . S
C222 N218 1.345 . S
C222 C223 1.371 . S
C222 H225 0.931 . S
C223 C219 1.391 . S
C223 C222 1.371 . S
C223 H230 0.930 . S
H224 C221 0.928 . S
H225 C222 0.931 . S
H226 C202 0.930 . S
H227 C199 0.930 . S
H228 C208 0.930 . S
H229 C220 0.929 . S
H230 C223 0.930 . S
C231 C232 1.351 . S
C231 N234 1.368 . S
C231 H236 0.931 . S
C232 C231 1.351 . S
C232 N233 1.373 . S
C232 H260 0.930 . S
N233 C232 1.373 . S
N233 C235 1.340 . S
N234 C231 1.368 . S
N234 C235 1.321 . S
N234 Co237 2.135 . S
C235 N233 1.340 . S
C235 N234 1.321 . S
C235 H259 0.930 . S
H236 C231 0.931 . S
Co237 N234 2.135 . S
Co237 N240 2.121 . S
Co237 O245 2.055 . S
Co237 O248 2.039 . S
Co237 N251 2.140 . S
C238 O239 1.227 . S
C238 O248 1.265 . S
O239 C238 1.227 . S
N240 Co237 2.121 . S
N240 C242 1.375 . S
N240 C243 1.313 . S
C241 C242 1.338 . S
C241 N244 1.377 . S
C241 H261 0.930 . S
C242 N240 1.375 . S
C242 C241 1.338 . S
C242 H246 0.931 . S
C243 N240 1.313 . S
C243 N244 1.344 . S
C243 H247 0.930 . S
N244 C241 1.377 . S
N244 C243 1.344 . S
O245 Co237 2.055 . S
O245 C249 1.253 . S
H246 C242 0.931 . S
H247 C243 0.930 . S
O248 Co237 2.039 . S
O248 C238 1.265 . S
C249 O245 1.253 . S
C249 O250 1.227 . S
O250 C249 1.227 . S
N251 Co237 2.140 . S
N251 C254 1.346 . S
N251 C255 1.345 . S
C252 C253 1.387 . S
C252 C256 1.391 . S
C253 C252 1.387 . S
C253 C254 1.369 . S
C253 H262 0.929 . S
C254 N251 1.346 . S
C254 C253 1.369 . S
C254 H257 0.928 . S
C255 N251 1.345 . S
C255 C256 1.371 . S
C255 H258 0.931 . S
C256 C252 1.391 . S
C256 C255 1.371 . S
C256 H263 0.930 . S
H257 C254 0.928 . S
H258 C255 0.931 . S
H259 C235 0.930 . S
H260 C232 0.930 . S
H261 C241 0.930 . S
H262 C253 0.929 . S
H263 C256 0.930 . S
C264 C265 1.351 . S
C264 N267 1.368 . S
C264 H269 0.931 . S
C265 C264 1.351 . S
C265 N266 1.373 . S
C265 H293 0.930 . S
N266 C265 1.373 . S
N266 C268 1.340 . S
N267 C264 1.368 . S
N267 C268 1.321 . S
N267 Co270 2.135 . S
C268 N266 1.340 . S
C268 N267 1.321 . S
C268 H292 0.930 . S
H269 C264 0.931 . S
Co270 N267 2.135 . S
Co270 N273 2.121 . S
Co270 O278 2.055 . S
Co270 O281 2.039 . S
Co270 N284 2.140 . S
C271 O272 1.227 . S
C271 O281 1.265 . S
O272 C271 1.227 . S
N273 Co270 2.121 . S
N273 C275 1.375 . S
N273 C276 1.313 . S
C274 C275 1.338 . S
C274 N277 1.377 . S
C274 H294 0.930 . S
C275 N273 1.375 . S
C275 C274 1.338 . S
C275 H279 0.931 . S
C276 N273 1.313 . S
C276 N277 1.344 . S
C276 H280 0.930 . S
N277 C274 1.377 . S
N277 C276 1.344 . S
O278 Co270 2.055 . S
O278 C282 1.253 . S
H279 C275 0.931 . S
H280 C276 0.930 . S
O281 Co270 2.039 . S
O281 C271 1.265 . S
C282 O278 1.253 . S
C282 O283 1.227 . S
O283 C282 1.227 . S
N284 Co270 2.140 . S
N284 C287 1.346 . S
N284 C288 1.345 . S
C285 C286 1.387 . S
C285 C289 1.391 . S
C286 C285 1.387 . S
C286 C287 1.369 . S
C286 H295 0.929 . S
C287 N284 1.346 . S
C287 C286 1.369 . S
C287 H290 0.928 . S
C288 N284 1.345 . S
C288 C289 1.371 . S
C288 H291 0.931 . S
C289 C285 1.391 . S
C289 C288 1.371 . S
C289 H296 0.930 . S
H290 C287 0.928 . S
H291 C288 0.931 . S
H292 C268 0.930 . S
H293 C265 0.930 . S
H294 C274 0.930 . S
H295 C286 0.929 . S
H296 C289 0.930 . S
C297 C298 1.351 . S
C297 N300 1.368 . S
C297 H302 0.931 . S
C298 C297 1.351 . S
C298 N299 1.373 . S
C298 H326 0.930 . S
N299 C298 1.373 . S
N299 C301 1.340 . S
N300 C297 1.368 . S
N300 C301 1.321 . S
N300 Co303 2.135 . S
C301 N299 1.340 . S
C301 N300 1.321 . S
C301 H325 0.930 . S
H302 C297 0.931 . S
Co303 N300 2.135 . S
Co303 N306 2.121 . S
Co303 O311 2.055 . S
Co303 O314 2.039 . S
Co303 N317 2.140 . S
C304 O305 1.227 . S
C304 O314 1.265 . S
O305 C304 1.227 . S
N306 Co303 2.121 . S
N306 C308 1.375 . S
N306 C309 1.313 . S
C307 C308 1.338 . S
C307 N310 1.377 . S
C307 H327 0.930 . S
C308 N306 1.375 . S
C308 C307 1.338 . S
C308 H312 0.931 . S
C309 N306 1.313 . S
C309 N310 1.344 . S
C309 H313 0.930 . S
N310 C307 1.377 . S
N310 C309 1.344 . S
O311 Co303 2.055 . S
O311 C315 1.253 . S
H312 C308 0.931 . S
H313 C309 0.930 . S
O314 Co303 2.039 . S
O314 C304 1.265 . S
C315 O311 1.253 . S
C315 O316 1.227 . S
O316 C315 1.227 . S
N317 Co303 2.140 . S
N317 C320 1.346 . S
N317 C321 1.345 . S
C318 C319 1.387 . S
C318 C322 1.391 . S
C319 C318 1.387 . S
C319 C320 1.369 . S
C319 H328 0.929 . S
C320 N317 1.346 . S
C320 C319 1.369 . S
C320 H323 0.928 . S
C321 N317 1.345 . S
C321 C322 1.371 . S
C321 H324 0.931 . S
C322 C318 1.391 . S
C322 C321 1.371 . S
C322 H329 0.930 . S
H323 C320 0.928 . S
H324 C321 0.931 . S
H325 C301 0.930 . S
H326 C298 0.930 . S
H327 C307 0.930 . S
H328 C319 0.929 . S
H329 C322 0.930 . S
C330 C331 1.351 . S
C330 N333 1.368 . S
C330 H335 0.931 . S
C331 C330 1.351 . S
C331 N332 1.373 . S
C331 H359 0.930 . S
N332 C331 1.373 . S
N332 C334 1.340 . S
N333 C330 1.368 . S
N333 C334 1.321 . S
N333 Co336 2.135 . S
C334 N332 1.340 . S
C334 N333 1.321 . S
C334 H358 0.930 . S
H335 C330 0.931 . S
Co336 N333 2.135 . S
Co336 N339 2.121 . S
Co336 O344 2.055 . S
Co336 O347 2.039 . S
Co336 N350 2.140 . S
C337 O338 1.227 . S
C337 O347 1.265 . S
O338 C337 1.227 . S
N339 Co336 2.121 . S
N339 C341 1.375 . S
N339 C342 1.313 . S
C340 C341 1.338 . S
C340 N343 1.377 . S
C340 H360 0.930 . S
C341 N339 1.375 . S
C341 C340 1.338 . S
C341 H345 0.931 . S
C342 N339 1.313 . S
C342 N343 1.344 . S
C342 H346 0.930 . S
N343 C340 1.377 . S
N343 C342 1.344 . S
O344 Co336 2.055 . S
O344 C348 1.253 . S
H345 C341 0.931 . S
H346 C342 0.930 . S
O347 Co336 2.039 . S
O347 C337 1.265 . S
C348 O344 1.253 . S
C348 O349 1.227 . S
O349 C348 1.227 . S
N350 Co336 2.140 . S
N350 C353 1.346 . S
N350 C354 1.345 . S
C351 C352 1.387 . S
C351 C355 1.391 . S
C352 C351 1.387 . S
C352 C353 1.369 . S
C352 H361 0.929 . S
C353 N350 1.346 . S
C353 C352 1.369 . S
C353 H356 0.928 . S
C354 N350 1.345 . S
C354 C355 1.371 . S
C354 H357 0.931 . S
C355 C351 1.391 . S
C355 C354 1.371 . S
C355 H362 0.930 . S
H356 C353 0.928 . S
H357 C354 0.931 . S
H358 C334 0.930 . S
H359 C331 0.930 . S
H360 C340 0.930 . S
H361 C352 0.929 . S
H362 C355 0.930 . S
C363 C364 1.351 . S
C363 N366 1.368 . S
C363 H368 0.931 . S
C364 C363 1.351 . S
C364 N365 1.373 . S
C364 H392 0.930 . S
N365 C364 1.373 . S
N365 C367 1.340 . S
N366 C363 1.368 . S
N366 C367 1.321 . S
N366 Co369 2.135 . S
C367 N365 1.340 . S
C367 N366 1.321 . S
C367 H391 0.930 . S
H368 C363 0.931 . S
Co369 N366 2.135 . S
Co369 N372 2.121 . S
Co369 O377 2.055 . S
Co369 O380 2.039 . S
Co369 N383 2.140 . S
C370 O371 1.227 . S
C370 O380 1.265 . S
O371 C370 1.227 . S
N372 Co369 2.121 . S
N372 C374 1.375 . S
N372 C375 1.313 . S
C373 C374 1.338 . S
C373 N376 1.377 . S
C373 H393 0.930 . S
C374 N372 1.375 . S
C374 C373 1.338 . S
C374 H378 0.931 . S
C375 N372 1.313 . S
C375 N376 1.344 . S
C375 H379 0.930 . S
N376 C373 1.377 . S
N376 C375 1.344 . S
O377 Co369 2.055 . S
O377 C381 1.253 . S
H378 C374 0.931 . S
H379 C375 0.930 . S
O380 Co369 2.039 . S
O380 C370 1.265 . S
C381 O377 1.253 . S
C381 O382 1.227 . S
O382 C381 1.227 . S
N383 Co369 2.140 . S
N383 C386 1.346 . S
N383 C387 1.345 . S
C384 C385 1.387 . S
C384 C388 1.391 . S
C385 C384 1.387 . S
C385 C386 1.369 . S
C385 H394 0.929 . S
C386 N383 1.346 . S
C386 C385 1.369 . S
C386 H389 0.928 . S
C387 N383 1.345 . S
C387 C388 1.371 . S
C387 H390 0.931 . S
C388 C384 1.391 . S
C388 C387 1.371 . S
C388 H395 0.930 . S
H389 C386 0.928 . S
H390 C387 0.931 . S
H391 C367 0.930 . S
H392 C364 0.930 . S
H393 C373 0.930 . S
H394 C385 0.929 . S
H395 C388 0.930 . S
C396 C397 1.351 . S
C396 N399 1.368 . S
C396 H401 0.931 . S
C397 C396 1.351 . S
C397 N398 1.373 . S
C397 H425 0.930 . S
N398 C397 1.373 . S
N398 C400 1.340 . S
N399 C396 1.368 . S
N399 C400 1.321 . S
N399 Co402 2.135 . S
C400 N398 1.340 . S
C400 N399 1.321 . S
C400 H424 0.930 . S
H401 C396 0.931 . S
Co402 N399 2.135 . S
Co402 N405 2.121 . S
Co402 O410 2.055 . S
Co402 O413 2.039 . S
Co402 N416 2.140 . S
C403 O404 1.227 . S
C403 O413 1.265 . S
O404 C403 1.227 . S
N405 Co402 2.121 . S
N405 C407 1.375 . S
N405 C408 1.313 . S
C406 C407 1.338 . S
C406 N409 1.377 . S
C406 H426 0.930 . S
C407 N405 1.375 . S
C407 C406 1.338 . S
C407 H411 0.931 . S
C408 N405 1.313 . S
C408 N409 1.344 . S
C408 H412 0.930 . S
N409 C406 1.377 . S
N409 C408 1.344 . S
O410 Co402 2.055 . S
O410 C414 1.253 . S
H411 C407 0.931 . S
H412 C408 0.930 . S
O413 Co402 2.039 . S
O413 C403 1.265 . S
C414 O410 1.253 . S
C414 O415 1.227 . S
O415 C414 1.227 . S
N416 Co402 2.140 . S
N416 C419 1.346 . S
N416 C420 1.345 . S
C417 C418 1.387 . S
C417 C421 1.391 . S
C418 C417 1.387 . S
C418 C419 1.369 . S
C418 H427 0.929 . S
C419 N416 1.346 . S
C419 C418 1.369 . S
C419 H422 0.928 . S
C420 N416 1.345 . S
C420 C421 1.371 . S
C420 H423 0.931 . S
C421 C417 1.391 . S
C421 C420 1.371 . S
C421 H428 0.930 . S
H422 C419 0.928 . S
H423 C420 0.931 . S
H424 C400 0.930 . S
H425 C397 0.930 . S
H426 C406 0.930 . S
H427 C418 0.929 . S
H428 C421 0.930 . S
C429 C430 1.351 . S
C429 N432 1.368 . S
C429 H434 0.931 . S
C430 C429 1.351 . S
C430 N431 1.373 . S
C430 H458 0.930 . S
N431 C430 1.373 . S
N431 C433 1.340 . S
N432 C429 1.368 . S
N432 C433 1.321 . S
N432 Co435 2.135 . S
C433 N431 1.340 . S
C433 N432 1.321 . S
C433 H457 0.930 . S
H434 C429 0.931 . S
Co435 N432 2.135 . S
Co435 N438 2.121 . S
Co435 O443 2.055 . S
Co435 O446 2.039 . S
Co435 N449 2.140 . S
C436 O437 1.227 . S
C436 O446 1.265 . S
O437 C436 1.227 . S
N438 Co435 2.121 . S
N438 C440 1.375 . S
N438 C441 1.313 . S
C439 C440 1.338 . S
C439 N442 1.377 . S
C439 H459 0.930 . S
C440 N438 1.375 . S
C440 C439 1.338 . S
C440 H444 0.931 . S
C441 N438 1.313 . S
C441 N442 1.344 . S
C441 H445 0.930 . S
N442 C439 1.377 . S
N442 C441 1.344 . S
O443 Co435 2.055 . S
O443 C447 1.253 . S
H444 C440 0.931 . S
H445 C441 0.930 . S
O446 Co435 2.039 . S
O446 C436 1.265 . S
C447 O443 1.253 . S
C447 O448 1.227 . S
O448 C447 1.227 . S
N449 Co435 2.140 . S
N449 C452 1.346 . S
N449 C453 1.345 . S
C450 C451 1.387 . S
C450 C454 1.391 . S
C451 C450 1.387 . S
C451 C452 1.369 . S
C451 H460 0.929 . S
C452 N449 1.346 . S
C452 C451 1.369 . S
C452 H455 0.928 . S
C453 N449 1.345 . S
C453 C454 1.371 . S
C453 H456 0.931 . S
C454 C450 1.391 . S
C454 C453 1.371 . S
C454 H461 0.930 . S
H455 C452 0.928 . S
H456 C453 0.931 . S
H457 C433 0.930 . S
H458 C430 0.930 . S
H459 C439 0.930 . S
H460 C451 0.929 . S
H461 C454 0.930 . S
C462 C463 1.351 . S
C462 N465 1.368 . S
C462 H467 0.931 . S
C463 C462 1.351 . S
C463 N464 1.373 . S
C463 H491 0.930 . S
N464 C463 1.373 . S
N464 C466 1.340 . S
N465 C462 1.368 . S
N465 C466 1.321 . S
N465 Co468 2.135 . S
C466 N464 1.340 . S
C466 N465 1.321 . S
C466 H490 0.930 . S
H467 C462 0.931 . S
Co468 N465 2.135 . S
Co468 N471 2.121 . S
Co468 O476 2.055 . S
Co468 O479 2.039 . S
Co468 N482 2.140 . S
C469 O470 1.227 . S
C469 O479 1.265 . S
O470 C469 1.227 . S
N471 Co468 2.121 . S
N471 C473 1.375 . S
N471 C474 1.313 . S
C472 C473 1.338 . S
C472 N475 1.377 . S
C472 H492 0.930 . S
C473 N471 1.375 . S
C473 C472 1.338 . S
C473 H477 0.931 . S
C474 N471 1.313 . S
C474 N475 1.344 . S
C474 H478 0.930 . S
N475 C472 1.377 . S
N475 C474 1.344 . S
O476 Co468 2.055 . S
O476 C480 1.253 . S
H477 C473 0.931 . S
H478 C474 0.930 . S
O479 Co468 2.039 . S
O479 C469 1.265 . S
C480 O476 1.253 . S
C480 O481 1.227 . S
O481 C480 1.227 . S
N482 Co468 2.140 . S
N482 C485 1.346 . S
N482 C486 1.345 . S
C483 C484 1.387 . S
C483 C487 1.391 . S
C484 C483 1.387 . S
C484 C485 1.369 . S
C484 H493 0.929 . S
C485 N482 1.346 . S
C485 C484 1.369 . S
C485 H488 0.928 . S
C486 N482 1.345 . S
C486 C487 1.371 . S
C486 H489 0.931 . S
C487 C483 1.391 . S
C487 C486 1.371 . S
C487 H494 0.930 . S
H488 C485 0.928 . S
H489 C486 0.931 . S
H490 C466 0.930 . S
H491 C463 0.930 . S
H492 C472 0.930 . S
H493 C484 0.929 . S
H494 C487 0.930 . S
C495 C496 1.351 . S
C495 N498 1.368 . S
C495 H500 0.931 . S
C496 C495 1.351 . S
C496 N497 1.373 . S
C496 H524 0.930 . S
N497 C496 1.373 . S
N497 C499 1.340 . S
N498 C495 1.368 . S
N498 C499 1.321 . S
N498 Co501 2.135 . S
C499 N497 1.340 . S
C499 N498 1.321 . S
C499 H523 0.930 . S
H500 C495 0.931 . S
Co501 N498 2.135 . S
Co501 N504 2.121 . S
Co501 O509 2.055 . S
Co501 O512 2.039 . S
Co501 N515 2.140 . S
C502 O503 1.227 . S
C502 O512 1.265 . S
O503 C502 1.227 . S
N504 Co501 2.121 . S
N504 C506 1.375 . S
N504 C507 1.313 . S
C505 C506 1.338 . S
C505 N508 1.377 . S
C505 H525 0.930 . S
C506 N504 1.375 . S
C506 C505 1.338 . S
C506 H510 0.931 . S
C507 N504 1.313 . S
C507 N508 1.344 . S
C507 H511 0.930 . S
N508 C505 1.377 . S
N508 C507 1.344 . S
O509 Co501 2.055 . S
O509 C513 1.253 . S
H510 C506 0.931 . S
H511 C507 0.930 . S
O512 Co501 2.039 . S
O512 C502 1.265 . S
C513 O509 1.253 . S
C513 O514 1.227 . S
O514 C513 1.227 . S
N515 Co501 2.140 . S
N515 C518 1.346 . S
N515 C519 1.345 . S
C516 C517 1.387 . S
C516 C520 1.391 . S
C517 C516 1.387 . S
C517 C518 1.369 . S
C517 H526 0.929 . S
C518 N515 1.346 . S
C518 C517 1.369 . S
C518 H521 0.928 . S
C519 N515 1.345 . S
C519 C520 1.371 . S
C519 H522 0.931 . S
C520 C516 1.391 . S
C520 C519 1.371 . S
C520 H527 0.930 . S
H521 C518 0.928 . S
H522 C519 0.931 . S
H523 C499 0.930 . S
H524 C496 0.930 . S
H525 C505 0.930 . S
H526 C517 0.929 . S
H527 C520 0.930 . S
C528 C529 1.351 . S
C528 N531 1.368 . S
C528 H533 0.931 . S
C529 C528 1.351 . S
C529 N530 1.373 . S
C529 H557 0.930 . S
N530 C529 1.373 . S
N530 C532 1.340 . S
N531 C528 1.368 . S
N531 C532 1.321 . S
N531 Co534 2.135 . S
C532 N530 1.340 . S
C532 N531 1.321 . S
C532 H556 0.930 . S
H533 C528 0.931 . S
Co534 N531 2.135 . S
Co534 N537 2.121 . S
Co534 O542 2.055 . S
Co534 O545 2.039 . S
Co534 N548 2.140 . S
C535 O536 1.227 . S
C535 O545 1.265 . S
O536 C535 1.227 . S
N537 Co534 2.121 . S
N537 C539 1.375 . S
N537 C540 1.313 . S
C538 C539 1.338 . S
C538 N541 1.377 . S
C538 H558 0.930 . S
C539 N537 1.375 . S
C539 C538 1.338 . S
C539 H543 0.931 . S
C540 N537 1.313 . S
C540 N541 1.344 . S
C540 H544 0.930 . S
N541 C538 1.377 . S
N541 C540 1.344 . S
O542 Co534 2.055 . S
O542 C546 1.253 . S
H543 C539 0.931 . S
H544 C540 0.930 . S
O545 Co534 2.039 . S
O545 C535 1.265 . S
C546 O542 1.253 . S
C546 O547 1.227 . S
O547 C546 1.227 . S
N548 Co534 2.140 . S
N548 C551 1.346 . S
N548 C552 1.345 . S
C549 C550 1.387 . S
C549 C553 1.391 . S
C550 C549 1.387 . S
C550 C551 1.369 . S
C550 H559 0.929 . S
C551 N548 1.346 . S
C551 C550 1.369 . S
C551 H554 0.928 . S
C552 N548 1.345 . S
C552 C553 1.371 . S
C552 H555 0.931 . S
C553 C549 1.391 . S
C553 C552 1.371 . S
C553 H560 0.930 . S
H554 C551 0.928 . S
H555 C552 0.931 . S
H556 C532 0.930 . S
H557 C529 0.930 . S
H558 C538 0.930 . S
H559 C550 0.929 . S
H560 C553 0.930 . S
C561 C562 1.351 . S
C561 N564 1.368 . S
C561 H566 0.931 . S
C562 C561 1.351 . S
C562 N563 1.373 . S
C562 H590 0.930 . S
N563 C562 1.373 . S
N563 C565 1.340 . S
N564 C561 1.368 . S
N564 C565 1.321 . S
N564 Co567 2.135 . S
C565 N563 1.340 . S
C565 N564 1.321 . S
C565 H589 0.930 . S
H566 C561 0.931 . S
Co567 N564 2.135 . S
Co567 N570 2.121 . S
Co567 O575 2.055 . S
Co567 O578 2.039 . S
Co567 N581 2.140 . S
C568 O569 1.227 . S
C568 O578 1.265 . S
O569 C568 1.227 . S
N570 Co567 2.121 . S
N570 C572 1.375 . S
N570 C573 1.313 . S
C571 C572 1.338 . S
C571 N574 1.377 . S
C571 H591 0.930 . S
C572 N570 1.375 . S
C572 C571 1.338 . S
C572 H576 0.931 . S
C573 N570 1.313 . S
C573 N574 1.344 . S
C573 H577 0.930 . S
N574 C571 1.377 . S
N574 C573 1.344 . S
O575 Co567 2.055 . S
O575 C579 1.253 . S
H576 C572 0.931 . S
H577 C573 0.930 . S
O578 Co567 2.039 . S
O578 C568 1.265 . S
C579 O575 1.253 . S
C579 O580 1.227 . S
O580 C579 1.227 . S
N581 Co567 2.140 . S
N581 C584 1.346 . S
N581 C585 1.345 . S
C582 C583 1.387 . S
C582 C586 1.391 . S
C583 C582 1.387 . S
C583 C584 1.369 . S
C583 H592 0.929 . S
C584 N581 1.346 . S
C584 C583 1.369 . S
C584 H587 0.928 . S
C585 N581 1.345 . S
C585 C586 1.371 . S
C585 H588 0.931 . S
C586 C582 1.391 . S
C586 C585 1.371 . S
C586 H593 0.930 . S
H587 C584 0.928 . S
H588 C585 0.931 . S
H589 C565 0.930 . S
H590 C562 0.930 . S
H591 C571 0.930 . S
H592 C583 0.929 . S
H593 C586 0.930 . S
C594 C595 1.351 . S
C594 N597 1.368 . S
C594 H599 0.931 . S
C595 C594 1.351 . S
C595 N596 1.373 . S
C595 H623 0.930 . S
N596 C595 1.373 . S
N596 C598 1.340 . S
N597 C594 1.368 . S
N597 C598 1.321 . S
N597 Co600 2.135 . S
C598 N596 1.340 . S
C598 N597 1.321 . S
C598 H622 0.930 . S
H599 C594 0.931 . S
Co600 N597 2.135 . S
Co600 N603 2.121 . S
Co600 O608 2.055 . S
Co600 O611 2.039 . S
Co600 N614 2.140 . S
C601 O602 1.227 . S
C601 O611 1.265 . S
O602 C601 1.227 . S
N603 Co600 2.121 . S
N603 C605 1.375 . S
N603 C606 1.313 . S
C604 C605 1.338 . S
C604 N607 1.377 . S
C604 H624 0.930 . S
C605 N603 1.375 . S
C605 C604 1.338 . S
C605 H609 0.931 . S
C606 N603 1.313 . S
C606 N607 1.344 . S
C606 H610 0.930 . S
N607 C604 1.377 . S
N607 C606 1.344 . S
O608 Co600 2.055 . S
O608 C612 1.253 . S
H609 C605 0.931 . S
H610 C606 0.930 . S
O611 Co600 2.039 . S
O611 C601 1.265 . S
C612 O608 1.253 . S
C612 O613 1.227 . S
O613 C612 1.227 . S
N614 Co600 2.140 . S
N614 C617 1.346 . S
N614 C618 1.345 . S
C615 C616 1.387 . S
C615 C619 1.391 . S
C616 C615 1.387 . S
C616 C617 1.369 . S
C616 H625 0.929 . S
C617 N614 1.346 . S
C617 C616 1.369 . S
C617 H620 0.928 . S
C618 N614 1.345 . S
C618 C619 1.371 . S
C618 H621 0.931 . S
C619 C615 1.391 . S
C619 C618 1.371 . S
C619 H626 0.930 . S
H620 C617 0.928 . S
H621 C618 0.931 . S
H622 C598 0.930 . S
H623 C595 0.930 . S
H624 C604 0.930 . S
H625 C616 0.929 . S
H626 C619 0.930 . S
C627 C628 1.351 . S
C627 N630 1.368 . S
C627 H632 0.931 . S
C628 C627 1.351 . S
C628 N629 1.373 . S
C628 H656 0.930 . S
N629 C628 1.373 . S
N629 C631 1.340 . S
N630 C627 1.368 . S
N630 C631 1.321 . S
N630 Co633 2.135 . S
C631 N629 1.340 . S
C631 N630 1.321 . S
C631 H655 0.930 . S
H632 C627 0.931 . S
Co633 N630 2.135 . S
Co633 N636 2.121 . S
Co633 O641 2.055 . S
Co633 O644 2.039 . S
Co633 N647 2.140 . S
C634 O635 1.227 . S
C634 O644 1.265 . S
O635 C634 1.227 . S
N636 Co633 2.121 . S
N636 C638 1.375 . S
N636 C639 1.313 . S
C637 C638 1.338 . S
C637 N640 1.377 . S
C637 H657 0.930 . S
C638 N636 1.375 . S
C638 C637 1.338 . S
C638 H642 0.931 . S
C639 N636 1.313 . S
C639 N640 1.344 . S
C639 H643 0.930 . S
N640 C637 1.377 . S
N640 C639 1.344 . S
O641 Co633 2.055 . S
O641 C645 1.253 . S
H642 C638 0.931 . S
H643 C639 0.930 . S
O644 Co633 2.039 . S
O644 C634 1.265 . S
C645 O641 1.253 . S
C645 O646 1.227 . S
O646 C645 1.227 . S
N647 Co633 2.140 . S
N647 C650 1.346 . S
N647 C651 1.345 . S
C648 C649 1.387 . S
C648 C652 1.391 . S
C649 C648 1.387 . S
C649 C650 1.369 . S
C649 H658 0.929 . S
C650 N647 1.346 . S
C650 C649 1.369 . S
C650 H653 0.928 . S
C651 N647 1.345 . S
C651 C652 1.371 . S
C651 H654 0.931 . S
C652 C648 1.391 . S
C652 C651 1.371 . S
C652 H659 0.930 . S
H653 C650 0.928 . S
H654 C651 0.931 . S
H655 C631 0.930 . S
H656 C628 0.930 . S
H657 C637 0.930 . S
H658 C649 0.929 . S
H659 C652 0.930 . S
C660 C661 1.351 . S
C660 N663 1.368 . S
C660 H665 0.931 . S
C661 C660 1.351 . S
C661 N662 1.373 . S
C661 H689 0.930 . S
N662 C661 1.373 . S
N662 C664 1.340 . S
N663 C660 1.368 . S
N663 C664 1.321 . S
N663 Co666 2.135 . S
C664 N662 1.340 . S
C664 N663 1.321 . S
C664 H688 0.930 . S
H665 C660 0.931 . S
Co666 N663 2.135 . S
Co666 N669 2.121 . S
Co666 O674 2.055 . S
Co666 O677 2.039 . S
Co666 N680 2.140 . S
C667 O668 1.227 . S
C667 O677 1.265 . S
O668 C667 1.227 . S
N669 Co666 2.121 . S
N669 C671 1.375 . S
N669 C672 1.313 . S
C670 C671 1.338 . S
C670 N673 1.377 . S
C670 H690 0.930 . S
C671 N669 1.375 . S
C671 C670 1.338 . S
C671 H675 0.931 . S
C672 N669 1.313 . S
C672 N673 1.344 . S
C672 H676 0.930 . S
N673 C670 1.377 . S
N673 C672 1.344 . S
O674 Co666 2.055 . S
O674 C678 1.253 . S
H675 C671 0.931 . S
H676 C672 0.930 . S
O677 Co666 2.039 . S
O677 C667 1.265 . S
C678 O674 1.253 . S
C678 O679 1.227 . S
O679 C678 1.227 . S
N680 Co666 2.140 . S
N680 C683 1.346 . S
N680 C684 1.345 . S
C681 C682 1.387 . S
C681 C685 1.391 . S
C682 C681 1.387 . S
C682 C683 1.369 . S
C682 H691 0.929 . S
C683 N680 1.346 . S
C683 C682 1.369 . S
C683 H686 0.928 . S
C684 N680 1.345 . S
C684 C685 1.371 . S
C684 H687 0.931 . S
C685 C681 1.391 . S
C685 C684 1.371 . S
C685 H692 0.930 . S
H686 C683 0.928 . S
H687 C684 0.931 . S
H688 C664 0.930 . S
H689 C661 0.930 . S
H690 C670 0.930 . S
H691 C682 0.929 . S
H692 C685 0.930 . S
C693 C694 1.351 . S
C693 N696 1.368 . S
C693 H698 0.931 . S
C694 C693 1.351 . S
C694 N695 1.373 . S
C694 H722 0.930 . S
N695 C694 1.373 . S
N695 C697 1.340 . S
N696 C693 1.368 . S
N696 C697 1.321 . S
N696 Co699 2.135 . S
C697 N695 1.340 . S
C697 N696 1.321 . S
C697 H721 0.930 . S
H698 C693 0.931 . S
Co699 N696 2.135 . S
Co699 N702 2.121 . S
Co699 O707 2.055 . S
Co699 O710 2.039 . S
Co699 N713 2.140 . S
C700 O701 1.227 . S
C700 O710 1.265 . S
O701 C700 1.227 . S
N702 Co699 2.121 . S
N702 C704 1.375 . S
N702 C705 1.313 . S
C703 C704 1.338 . S
C703 N706 1.377 . S
C703 H723 0.930 . S
C704 N702 1.375 . S
C704 C703 1.338 . S
C704 H708 0.931 . S
C705 N702 1.313 . S
C705 N706 1.344 . S
C705 H709 0.930 . S
N706 C703 1.377 . S
N706 C705 1.344 . S
O707 Co699 2.055 . S
O707 C711 1.253 . S
H708 C704 0.931 . S
H709 C705 0.930 . S
O710 Co699 2.039 . S
O710 C700 1.265 . S
C711 O707 1.253 . S
C711 O712 1.227 . S
O712 C711 1.227 . S
N713 Co699 2.140 . S
N713 C716 1.346 . S
N713 C717 1.345 . S
C714 C715 1.387 . S
C714 C718 1.391 . S
C715 C714 1.387 . S
C715 C716 1.369 . S
C715 H724 0.929 . S
C716 N713 1.346 . S
C716 C715 1.369 . S
C716 H719 0.928 . S
C717 N713 1.345 . S
C717 C718 1.371 . S
C717 H720 0.931 . S
C718 C714 1.391 . S
C718 C717 1.371 . S
C718 H725 0.930 . S
H719 C716 0.928 . S
H720 C717 0.931 . S
H721 C697 0.930 . S
H722 C694 0.930 . S
H723 C703 0.930 . S
H724 C715 0.929 . S
H725 C718 0.930 . S
C726 C727 1.351 . S
C726 N729 1.368 . S
C726 H731 0.931 . S
C727 C726 1.351 . S
C727 N728 1.373 . S
C727 H755 0.930 . S
N728 C727 1.373 . S
N728 C730 1.340 . S
N729 C726 1.368 . S
N729 C730 1.321 . S
N729 Co732 2.135 . S
C730 N728 1.340 . S
C730 N729 1.321 . S
C730 H754 0.930 . S
H731 C726 0.931 . S
Co732 N729 2.135 . S
Co732 N735 2.121 . S
Co732 O740 2.055 . S
Co732 O743 2.039 . S
Co732 N746 2.140 . S
C733 O734 1.227 . S
C733 O743 1.265 . S
O734 C733 1.227 . S
N735 Co732 2.121 . S
N735 C737 1.375 . S
N735 C738 1.313 . S
C736 C737 1.338 . S
C736 N739 1.377 . S
C736 H756 0.930 . S
C737 N735 1.375 . S
C737 C736 1.338 . S
C737 H741 0.931 . S
C738 N735 1.313 . S
C738 N739 1.344 . S
C738 H742 0.930 . S
N739 C736 1.377 . S
N739 C738 1.344 . S
O740 Co732 2.055 . S
O740 C744 1.253 . S
H741 C737 0.931 . S
H742 C738 0.930 . S
O743 Co732 2.039 . S
O743 C733 1.265 . S
C744 O740 1.253 . S
C744 O745 1.227 . S
O745 C744 1.227 . S
N746 Co732 2.140 . S
N746 C749 1.346 . S
N746 C750 1.345 . S
C747 C748 1.387 . S
C747 C751 1.391 . S
C748 C747 1.387 . S
C748 C749 1.369 . S
C748 H757 0.929 . S
C749 N746 1.346 . S
C749 C748 1.369 . S
C749 H752 0.928 . S
C750 N746 1.345 . S
C750 C751 1.371 . S
C750 H753 0.931 . S
C751 C747 1.391 . S
C751 C750 1.371 . S
C751 H758 0.930 . S
H752 C749 0.928 . S
H753 C750 0.931 . S
H754 C730 0.930 . S
H755 C727 0.930 . S
H756 C736 0.930 . S
H757 C748 0.929 . S
H758 C751 0.930 . S
C759 C760 1.351 . S
C759 N762 1.368 . S
C759 H764 0.931 . S
C760 C759 1.351 . S
C760 N761 1.373 . S
C760 H788 0.930 . S
N761 C760 1.373 . S
N761 C763 1.340 . S
N762 C759 1.368 . S
N762 C763 1.321 . S
N762 Co765 2.135 . S
C763 N761 1.340 . S
C763 N762 1.321 . S
C763 H787 0.930 . S
H764 C759 0.931 . S
Co765 N762 2.135 . S
Co765 N768 2.121 . S
Co765 O773 2.055 . S
Co765 O776 2.039 . S
Co765 N779 2.140 . S
C766 O767 1.227 . S
C766 O776 1.265 . S
O767 C766 1.227 . S
N768 Co765 2.121 . S
N768 C770 1.375 . S
N768 C771 1.313 . S
C769 C770 1.338 . S
C769 N772 1.377 . S
C769 H789 0.930 . S
C770 N768 1.375 . S
C770 C769 1.338 . S
C770 H774 0.931 . S
C771 N768 1.313 . S
C771 N772 1.344 . S
C771 H775 0.930 . S
N772 C769 1.377 . S
N772 C771 1.344 . S
O773 Co765 2.055 . S
O773 C777 1.253 . S
H774 C770 0.931 . S
H775 C771 0.930 . S
O776 Co765 2.039 . S
O776 C766 1.265 . S
C777 O773 1.253 . S
C777 O778 1.227 . S
O778 C777 1.227 . S
N779 Co765 2.140 . S
N779 C782 1.346 . S
N779 C783 1.345 . S
C780 C781 1.387 . S
C780 C784 1.391 . S
C781 C780 1.387 . S
C781 C782 1.369 . S
C781 H790 0.929 . S
C782 N779 1.346 . S
C782 C781 1.369 . S
C782 H785 0.928 . S
C783 N779 1.345 . S
C783 C784 1.371 . S
C783 H786 0.931 . S
C784 C780 1.391 . S
C784 C783 1.371 . S
C784 H791 0.930 . S
H785 C782 0.928 . S
H786 C783 0.931 . S
H787 C763 0.930 . S
H788 C760 0.930 . S
H789 C769 0.930 . S
H790 C781 0.929 . S
H791 C784 0.930 . S
C792 C793 1.351 . S
C792 N795 1.368 . S
C792 H797 0.931 . S
C793 C792 1.351 . S
C793 N794 1.373 . S
C793 H821 0.930 . S
N794 C793 1.373 . S
N794 C796 1.340 . S
N795 C792 1.368 . S
N795 C796 1.321 . S
N795 Co798 2.135 . S
C796 N794 1.340 . S
C796 N795 1.321 . S
C796 H820 0.930 . S
H797 C792 0.931 . S
Co798 N795 2.135 . S
Co798 N801 2.121 . S
Co798 O806 2.055 . S
Co798 O809 2.039 . S
Co798 N812 2.140 . S
C799 O800 1.227 . S
C799 O809 1.265 . S
O800 C799 1.227 . S
N801 Co798 2.121 . S
N801 C803 1.375 . S
N801 C804 1.313 . S
C802 C803 1.338 . S
C802 N805 1.377 . S
C802 H822 0.930 . S
C803 N801 1.375 . S
C803 C802 1.338 . S
C803 H807 0.931 . S
C804 N801 1.313 . S
C804 N805 1.344 . S
C804 H808 0.930 . S
N805 C802 1.377 . S
N805 C804 1.344 . S
O806 Co798 2.055 . S
O806 C810 1.253 . S
H807 C803 0.931 . S
H808 C804 0.930 . S
O809 Co798 2.039 . S
O809 C799 1.265 . S
C810 O806 1.253 . S
C810 O811 1.227 . S
O811 C810 1.227 . S
N812 Co798 2.140 . S
N812 C815 1.346 . S
N812 C816 1.345 . S
C813 C814 1.387 . S
C813 C817 1.391 . S
C814 C813 1.387 . S
C814 C815 1.369 . S
C814 H823 0.929 . S
C815 N812 1.346 . S
C815 C814 1.369 . S
C815 H818 0.928 . S
C816 N812 1.345 . S
C816 C817 1.371 . S
C816 H819 0.931 . S
C817 C813 1.391 . S
C817 C816 1.371 . S
C817 H824 0.930 . S
H818 C815 0.928 . S
H819 C816 0.931 . S
H820 C796 0.930 . S
H821 C793 0.930 . S
H822 C802 0.930 . S
H823 C814 0.929 . S
H824 C817 0.930 . S
C825 C826 1.351 . S
C825 N828 1.368 . S
C825 H830 0.931 . S
C826 C825 1.351 . S
C826 N827 1.373 . S
C826 H854 0.930 . S
N827 C826 1.373 . S
N827 C829 1.340 . S
N828 C825 1.368 . S
N828 C829 1.321 . S
N828 Co831 2.135 . S
C829 N827 1.340 . S
C829 N828 1.321 . S
C829 H853 0.930 . S
H830 C825 0.931 . S
Co831 N828 2.135 . S
Co831 N834 2.121 . S
Co831 O839 2.055 . S
Co831 O842 2.039 . S
Co831 N845 2.140 . S
C832 O833 1.227 . S
C832 O842 1.265 . S
O833 C832 1.227 . S
N834 Co831 2.121 . S
N834 C836 1.375 . S
N834 C837 1.313 . S
C835 C836 1.338 . S
C835 N838 1.377 . S
C835 H855 0.930 . S
C836 N834 1.375 . S
C836 C835 1.338 . S
C836 H840 0.931 . S
C837 N834 1.313 . S
C837 N838 1.344 . S
C837 H841 0.930 . S
N838 C835 1.377 . S
N838 C837 1.344 . S
O839 Co831 2.055 . S
O839 C843 1.253 . S
H840 C836 0.931 . S
H841 C837 0.930 . S
O842 Co831 2.039 . S
O842 C832 1.265 . S
C843 O839 1.253 . S
C843 O844 1.227 . S
O844 C843 1.227 . S
N845 Co831 2.140 . S
N845 C848 1.346 . S
N845 C849 1.345 . S
C846 C847 1.387 . S
C846 C850 1.391 . S
C847 C846 1.387 . S
C847 C848 1.369 . S
C847 H856 0.929 . S
C848 N845 1.346 . S
C848 C847 1.369 . S
C848 H851 0.928 . S
C849 N845 1.345 . S
C849 C850 1.371 . S
C849 H852 0.931 . S
C850 C846 1.391 . S
C850 C849 1.371 . S
C850 H857 0.930 . S
H851 C848 0.928 . S
H852 C849 0.931 . S
H853 C829 0.930 . S
H854 C826 0.930 . S
H855 C835 0.930 . S
H856 C847 0.929 . S
H857 C850 0.930 . S
C858 C859 1.351 . S
C858 N861 1.368 . S
C858 H863 0.931 . S
C859 C858 1.351 . S
C859 N860 1.373 . S
C859 H887 0.930 . S
N860 C859 1.373 . S
N860 C862 1.340 . S
N861 C858 1.368 . S
N861 C862 1.321 . S
N861 Co864 2.135 . S
C862 N860 1.340 . S
C862 N861 1.321 . S
C862 H886 0.930 . S
H863 C858 0.931 . S
Co864 N861 2.135 . S
Co864 N867 2.121 . S
Co864 O872 2.055 . S
Co864 O875 2.039 . S
Co864 N878 2.140 . S
C865 O866 1.227 . S
C865 O875 1.265 . S
O866 C865 1.227 . S
N867 Co864 2.121 . S
N867 C869 1.375 . S
N867 C870 1.313 . S
C868 C869 1.338 . S
C868 N871 1.377 . S
C868 H888 0.930 . S
C869 N867 1.375 . S
C869 C868 1.338 . S
C869 H873 0.931 . S
C870 N867 1.313 . S
C870 N871 1.344 . S
C870 H874 0.930 . S
N871 C868 1.377 . S
N871 C870 1.344 . S
O872 Co864 2.055 . S
O872 C876 1.253 . S
H873 C869 0.931 . S
H874 C870 0.930 . S
O875 Co864 2.039 . S
O875 C865 1.265 . S
C876 O872 1.253 . S
C876 O877 1.227 . S
O877 C876 1.227 . S
N878 Co864 2.140 . S
N878 C881 1.346 . S
N878 C882 1.345 . S
C879 C880 1.387 . S
C879 C883 1.391 . S
C880 C879 1.387 . S
C880 C881 1.369 . S
C880 H889 0.929 . S
C881 N878 1.346 . S
C881 C880 1.369 . S
C881 H884 0.928 . S
C882 N878 1.345 . S
C882 C883 1.371 . S
C882 H885 0.931 . S
C883 C879 1.391 . S
C883 C882 1.371 . S
C883 H890 0.930 . S
H884 C881 0.928 . S
H885 C882 0.931 . S
H886 C862 0.930 . S
H887 C859 0.930 . S
H888 C868 0.930 . S
H889 C880 0.929 . S
H890 C883 0.930 . S
C891 C892 1.351 . S
C891 N894 1.368 . S
C891 H896 0.931 . S
C892 C891 1.351 . S
C892 N893 1.373 . S
C892 H920 0.930 . S
N893 C892 1.373 . S
N893 C895 1.340 . S
N894 C891 1.368 . S
N894 C895 1.321 . S
N894 Co897 2.135 . S
C895 N893 1.340 . S
C895 N894 1.321 . S
C895 H919 0.930 . S
H896 C891 0.931 . S
Co897 N894 2.135 . S
Co897 N900 2.121 . S
Co897 O905 2.055 . S
Co897 O908 2.039 . S
Co897 N911 2.140 . S
C898 O899 1.227 . S
C898 O908 1.265 . S
O899 C898 1.227 . S
N900 Co897 2.121 . S
N900 C902 1.375 . S
N900 C903 1.313 . S
C901 C902 1.338 . S
C901 N904 1.377 . S
C901 H921 0.930 . S
C902 N900 1.375 . S
C902 C901 1.338 . S
C902 H906 0.931 . S
C903 N900 1.313 . S
C903 N904 1.344 . S
C903 H907 0.930 . S
N904 C901 1.377 . S
N904 C903 1.344 . S
O905 Co897 2.055 . S
O905 C909 1.253 . S
H906 C902 0.931 . S
H907 C903 0.930 . S
O908 Co897 2.039 . S
O908 C898 1.265 . S
C909 O905 1.253 . S
C909 O910 1.227 . S
O910 C909 1.227 . S
N911 Co897 2.140 . S
N911 C914 1.346 . S
N911 C915 1.345 . S
C912 C913 1.387 . S
C912 C916 1.391 . S
C913 C912 1.387 . S
C913 C914 1.369 . S
C913 H922 0.929 . S
C914 N911 1.346 . S
C914 C913 1.369 . S
C914 H917 0.928 . S
C915 N911 1.345 . S
C915 C916 1.371 . S
C915 H918 0.931 . S
C916 C912 1.391 . S
C916 C915 1.371 . S
C916 H923 0.930 . S
H917 C914 0.928 . S
H918 C915 0.931 . S
H919 C895 0.930 . S
H920 C892 0.930 . S
H921 C901 0.930 . S
H922 C913 0.929 . S
H923 C916 0.930 . S
C924 C925 1.351 . S
C924 N927 1.368 . S
C924 H929 0.931 . S
C925 C924 1.351 . S
C925 N926 1.373 . S
C925 H953 0.930 . S
N926 C925 1.373 . S
N926 C928 1.340 . S
N927 C924 1.368 . S
N927 C928 1.321 . S
N927 Co930 2.135 . S
C928 N926 1.340 . S
C928 N927 1.321 . S
C928 H952 0.930 . S
H929 C924 0.931 . S
Co930 N927 2.135 . S
Co930 N933 2.121 . S
Co930 O938 2.055 . S
Co930 O941 2.039 . S
Co930 N944 2.140 . S
C931 O932 1.227 . S
C931 O941 1.265 . S
O932 C931 1.227 . S
N933 Co930 2.121 . S
N933 C935 1.375 . S
N933 C936 1.313 . S
C934 C935 1.338 . S
C934 N937 1.377 . S
C934 H954 0.930 . S
C935 N933 1.375 . S
C935 C934 1.338 . S
C935 H939 0.931 . S
C936 N933 1.313 . S
C936 N937 1.344 . S
C936 H940 0.930 . S
N937 C934 1.377 . S
N937 C936 1.344 . S
O938 Co930 2.055 . S
O938 C942 1.253 . S
H939 C935 0.931 . S
H940 C936 0.930 . S
O941 Co930 2.039 . S
O941 C931 1.265 . S
C942 O938 1.253 . S
C942 O943 1.227 . S
O943 C942 1.227 . S
N944 Co930 2.140 . S
N944 C947 1.346 . S
N944 C948 1.345 . S
C945 C946 1.387 . S
C945 C949 1.391 . S
C946 C945 1.387 . S
C946 C947 1.369 . S
C946 H955 0.929 . S
C947 N944 1.346 . S
C947 C946 1.369 . S
C947 H950 0.928 . S
C948 N944 1.345 . S
C948 C949 1.371 . S
C948 H951 0.931 . S
C949 C945 1.391 . S
C949 C948 1.371 . S
C949 H956 0.930 . S
H950 C947 0.928 . S
H951 C948 0.931 . S
H952 C928 0.930 . S
H953 C925 0.930 . S
H954 C934 0.930 . S
H955 C946 0.929 . S
H956 C949 0.930 . S
C957 C958 1.351 . S
C957 N960 1.368 . S
C957 H962 0.931 . S
C958 C957 1.351 . S
C958 N959 1.373 . S
C958 H986 0.904 1_655 S
N959 C958 1.373 . S
N959 C961 1.340 . S
N960 C957 1.368 . S
N960 C961 1.321 . S
N960 Co963 2.135 . S
C961 N959 1.340 . S
C961 N960 1.321 . S
C961 H985 0.930 . S
H962 C957 0.931 . S
Co963 N960 2.135 . S
Co963 N966 2.121 . S
Co963 O971 2.055 . S
Co963 O974 2.039 . S
Co963 N977 2.140 . S
C964 O965 1.227 . S
C964 O974 1.265 . S
O965 C964 1.227 . S
N966 Co963 2.121 . S
N966 C968 1.375 . S
N966 C969 1.313 . S
C967 C968 1.338 . S
C967 N970 1.377 . S
C967 H987 0.930 . S
C968 N966 1.375 . S
C968 C967 1.338 . S
C968 H972 0.931 . S
C969 N966 1.313 . S
C969 N970 1.344 . S
C969 H973 0.930 . S
N970 C967 1.377 . S
N970 C969 1.344 . S
O971 Co963 2.055 . S
O971 C975 1.253 . S
H972 C968 0.931 . S
H973 C969 0.930 . S
O974 Co963 2.039 . S
O974 C964 1.265 . S
C975 O971 1.253 . S
C975 O976 1.227 . S
O976 C975 1.227 . S
N977 Co963 2.140 . S
N977 C980 1.346 . S
N977 C981 1.345 . S
C978 C979 1.387 . S
C978 C982 1.391 . S
C979 C978 1.387 . S
C979 C980 1.369 . S
C979 H988 0.929 . S
C980 N977 1.346 . S
C980 C979 1.369 . S
C980 H983 0.928 . S
C981 N977 1.345 . S
C981 C982 1.371 . S
C981 H984 0.931 . S
C982 C978 1.391 . S
C982 C981 1.371 . S
C982 H989 0.930 . S
H983 C980 0.928 . S
H984 C981 0.931 . S
H985 C961 0.930 . S
H986 C958 0.904 1_455 S
H987 C967 0.930 . S
H988 C979 0.929 . S
H989 C982 0.930 . S
C990 C991 1.351 . S
C990 N993 1.368 . S
C990 H995 0.931 . S
C991 C990 1.351 . S
C991 N992 1.373 . S
C991 H1019 0.930 . S
N992 C991 1.373 . S
N992 C994 1.340 . S
N993 C990 1.368 . S
N993 C994 1.321 . S
N993 Co996 2.135 . S
C994 N992 1.340 . S
C994 N993 1.321 . S
C994 H1018 0.930 . S
H995 C990 0.931 . S
Co996 N993 2.135 . S
Co996 N999 2.121 . S
Co996 O1004 2.055 . S
Co996 O1007 2.039 . S
Co996 N1010 2.140 . S
C997 O998 1.227 . S
C997 O1007 1.265 . S
O998 C997 1.227 . S
N999 Co996 2.121 . S
N999 C1001 1.375 . S
N999 C1002 1.313 . S
C1000 C1001 1.338 . S
C1000 N1003 1.377 . S
C1000 H1020 0.930 . S
C1001 N999 1.375 . S
C1001 C1000 1.338 . S
C1001 H1005 0.931 . S
C1002 N999 1.313 . S
C1002 N1003 1.344 . S
C1002 H1006 0.930 . S
N1003 C1000 1.377 . S
N1003 C1002 1.344 . S
O1004 Co996 2.055 . S
O1004 C1008 1.253 . S
H1005 C1001 0.931 . S
H1006 C1002 0.930 . S
O1007 Co996 2.039 . S
O1007 C997 1.265 . S
C1008 O1004 1.253 . S
C1008 O1009 1.227 . S
O1009 C1008 1.227 . S
N1010 Co996 2.140 . S
N1010 C1013 1.346 . S
N1010 C1014 1.345 . S
C1011 C1012 1.387 . S
C1011 C1015 1.391 . S
C1012 C1011 1.387 . S
C1012 C1013 1.369 . S
C1012 H1021 0.929 . S
C1013 N1010 1.346 . S
C1013 C1012 1.369 . S
C1013 H1016 0.928 . S
C1014 N1010 1.345 . S
C1014 C1015 1.371 . S
C1014 H1017 0.931 . S
C1015 C1011 1.391 . S
C1015 C1014 1.371 . S
C1015 H1022 0.930 . S
H1016 C1013 0.928 . S
H1017 C1014 0.931 . S
H1018 C994 0.930 . S
H1019 C991 0.930 . S
H1020 C1000 0.930 . S
H1021 C1012 0.929 . S
H1022 C1015 0.930 . S
C1023 C1024 1.351 . S
C1023 N1026 1.368 . S
C1023 H1028 0.931 . S
C1024 C1023 1.351 . S
C1024 N1025 1.373 . S
C1024 H1052 0.930 . S
N1025 C1024 1.373 . S
N1025 C1027 1.340 . S
N1026 C1023 1.368 . S
N1026 C1027 1.321 . S
N1026 Co1029 2.135 . S
C1027 N1025 1.340 . S
C1027 N1026 1.321 . S
C1027 H1051 0.930 . S
H1028 C1023 0.931 . S
Co1029 N1026 2.135 . S
Co1029 N1032 2.121 . S
Co1029 O1037 2.055 . S
Co1029 O1040 2.039 . S
Co1029 N1043 2.140 . S
C1030 O1031 1.227 . S
C1030 O1040 1.265 . S
O1031 C1030 1.227 . S
N1032 Co1029 2.121 . S
N1032 C1034 1.375 . S
N1032 C1035 1.313 . S
C1033 C1034 1.338 . S
C1033 N1036 1.377 . S
C1033 H1053 0.930 . S
C1034 N1032 1.375 . S
C1034 C1033 1.338 . S
C1034 H1038 0.931 . S
C1035 N1032 1.313 . S
C1035 N1036 1.344 . S
C1035 H1039 0.930 . S
N1036 C1033 1.377 . S
N1036 C1035 1.344 . S
O1037 Co1029 2.055 . S
O1037 C1041 1.253 . S
H1038 C1034 0.931 . S
H1039 C1035 0.930 . S
O1040 Co1029 2.039 . S
O1040 C1030 1.265 . S
C1041 O1037 1.253 . S
C1041 O1042 1.227 . S
O1042 C1041 1.227 . S
N1043 Co1029 2.140 . S
N1043 C1046 1.346 . S
N1043 C1047 1.345 . S
C1044 C1045 1.387 . S
C1044 C1048 1.391 . S
C1045 C1044 1.387 . S
C1045 C1046 1.369 . S
C1045 H1054 0.929 . S
C1046 N1043 1.346 . S
C1046 C1045 1.369 . S
C1046 H1049 0.928 . S
C1047 N1043 1.345 . S
C1047 C1048 1.371 . S
C1047 H1050 0.931 . S
C1048 C1044 1.391 . S
C1048 C1047 1.371 . S
C1048 H1055 0.930 . S
H1049 C1046 0.928 . S
H1050 C1047 0.931 . S
H1051 C1027 0.930 . S
H1052 C1024 0.930 . S
H1053 C1033 0.930 . S
H1054 C1045 0.929 . S
H1055 C1048 0.930 . S
C1056 C1057 1.351 . S
C1056 N1059 1.368 . S
C1056 H1061 0.931 . S
C1057 C1056 1.351 . S
C1057 N1058 1.373 . S
C1057 H1085 0.930 . S
N1058 C1057 1.373 . S
N1058 C1060 1.340 . S
N1059 C1056 1.368 . S
N1059 C1060 1.321 . S
N1059 Co1062 2.135 . S
C1060 N1058 1.340 . S
C1060 N1059 1.321 . S
C1060 H1084 0.930 . S
H1061 C1056 0.931 . S
Co1062 N1059 2.135 . S
Co1062 N1065 2.121 . S
Co1062 O1070 2.055 . S
Co1062 O1073 2.039 . S
Co1062 N1076 2.140 . S
C1063 O1064 1.227 . S
C1063 O1073 1.265 . S
O1064 C1063 1.227 . S
N1065 Co1062 2.121 . S
N1065 C1067 1.375 . S
N1065 C1068 1.313 . S
C1066 C1067 1.338 . S
C1066 N1069 1.377 . S
C1066 H1086 0.930 . S
C1067 N1065 1.375 . S
C1067 C1066 1.338 . S
C1067 H1071 0.931 . S
C1068 N1065 1.313 . S
C1068 N1069 1.344 . S
C1068 H1072 0.930 . S
N1069 C1066 1.377 . S
N1069 C1068 1.344 . S
O1070 Co1062 2.055 . S
O1070 C1074 1.253 . S
H1071 C1067 0.931 . S
H1072 C1068 0.930 . S
O1073 Co1062 2.039 . S
O1073 C1063 1.265 . S
C1074 O1070 1.253 . S
C1074 O1075 1.227 . S
O1075 C1074 1.227 . S
N1076 Co1062 2.140 . S
N1076 C1079 1.346 . S
N1076 C1080 1.345 . S
C1077 C1078 1.387 . S
C1077 C1081 1.391 . S
C1078 C1077 1.387 . S
C1078 C1079 1.369 . S
C1078 H1087 0.929 . S
C1079 N1076 1.346 . S
C1079 C1078 1.369 . S
C1079 H1082 0.928 . S
C1080 N1076 1.345 . S
C1080 C1081 1.371 . S
C1080 H1083 0.931 . S
C1081 C1077 1.391 . S
C1081 C1080 1.371 . S
C1081 H1088 0.930 . S
H1082 C1079 0.928 . S
H1083 C1080 0.931 . S
H1084 C1060 0.930 . S
H1085 C1057 0.930 . S
H1086 C1066 0.930 . S
H1087 C1078 0.929 . S
H1088 C1081 0.930 . S
C1089 C1090 1.351 . S
C1089 N1092 1.368 . S
C1089 H1094 0.931 . S
C1090 C1089 1.351 . S
C1090 N1091 1.373 . S
C1090 H1118 0.930 . S
N1091 C1090 1.373 . S
N1091 C1093 1.340 . S
N1092 C1089 1.368 . S
N1092 C1093 1.321 . S
N1092 Co1095 2.135 . S
C1093 N1091 1.340 . S
C1093 N1092 1.321 . S
C1093 H1117 0.930 . S
H1094 C1089 0.931 . S
Co1095 N1092 2.135 . S
Co1095 N1098 2.121 . S
Co1095 O1103 2.055 . S
Co1095 O1106 2.039 . S
Co1095 N1109 2.140 . S
C1096 O1097 1.227 . S
C1096 O1106 1.265 . S
O1097 C1096 1.227 . S
N1098 Co1095 2.121 . S
N1098 C1100 1.375 . S
N1098 C1101 1.313 . S
C1099 C1100 1.338 . S
C1099 N1102 1.377 . S
C1099 H1119 0.930 . S
C1100 N1098 1.375 . S
C1100 C1099 1.338 . S
C1100 H1104 0.931 . S
C1101 N1098 1.313 . S
C1101 N1102 1.344 . S
C1101 H1105 0.930 . S
N1102 C1099 1.377 . S
N1102 C1101 1.344 . S
O1103 Co1095 2.055 . S
O1103 C1107 1.253 . S
H1104 C1100 0.931 . S
H1105 C1101 0.930 . S
O1106 Co1095 2.039 . S
O1106 C1096 1.265 . S
C1107 O1103 1.253 . S
C1107 O1108 1.227 . S
O1108 C1107 1.227 . S
N1109 Co1095 2.140 . S
N1109 C1112 1.346 . S
N1109 C1113 1.345 . S
C1110 C1111 1.387 . S
C1110 C1114 1.391 . S
C1111 C1110 1.387 . S
C1111 C1112 1.369 . S
C1111 H1120 0.929 . S
C1112 N1109 1.346 . S
C1112 C1111 1.369 . S
C1112 H1115 0.928 . S
C1113 N1109 1.345 . S
C1113 C1114 1.371 . S
C1113 H1116 0.931 . S
C1114 C1110 1.391 . S
C1114 C1113 1.371 . S
C1114 H1121 0.930 . S
H1115 C1112 0.928 . S
H1116 C1113 0.931 . S
H1117 C1093 0.930 . S
H1118 C1090 0.930 . S
H1119 C1099 0.930 . S
H1120 C1111 0.929 . S
H1121 C1114 0.930 . S
C1122 C1123 1.351 . S
C1122 N1125 1.368 . S
C1122 H1127 0.931 . S
C1123 C1122 1.351 . S
C1123 N1124 1.373 . S
C1123 H1151 0.930 . S
N1124 C1123 1.373 . S
N1124 C1126 1.340 . S
N1125 C1122 1.368 . S
N1125 C1126 1.321 . S
N1125 Co1128 2.135 . S
C1126 N1124 1.340 . S
C1126 N1125 1.321 . S
C1126 H1150 0.930 . S
H1127 C1122 0.931 . S
Co1128 N1125 2.135 . S
Co1128 N1131 2.121 . S
Co1128 O1136 2.055 . S
Co1128 O1139 2.039 . S
Co1128 N1142 2.140 . S
C1129 O1130 1.227 . S
C1129 O1139 1.265 . S
O1130 C1129 1.227 . S
N1131 Co1128 2.121 . S
N1131 C1133 1.375 . S
N1131 C1134 1.313 . S
C1132 C1133 1.338 . S
C1132 N1135 1.377 . S
C1132 H1152 0.930 . S
C1133 N1131 1.375 . S
C1133 C1132 1.338 . S
C1133 H1137 0.931 . S
C1134 N1131 1.313 . S
C1134 N1135 1.344 . S
C1134 H1138 0.930 . S
N1135 C1132 1.377 . S
N1135 C1134 1.344 . S
O1136 Co1128 2.055 . S
O1136 C1140 1.253 . S
H1137 C1133 0.931 . S
H1138 C1134 0.930 . S
O1139 Co1128 2.039 . S
O1139 C1129 1.265 . S
C1140 O1136 1.253 . S
C1140 O1141 1.227 . S
O1141 C1140 1.227 . S
N1142 Co1128 2.140 . S
N1142 C1145 1.346 . S
N1142 C1146 1.345 . S
C1143 C1144 1.387 . S
C1143 C1147 1.391 . S
C1144 C1143 1.387 . S
C1144 C1145 1.369 . S
C1144 H1153 0.929 . S
C1145 N1142 1.346 . S
C1145 C1144 1.369 . S
C1145 H1148 0.928 . S
C1146 N1142 1.345 . S
C1146 C1147 1.371 . S
C1146 H1149 0.931 . S
C1147 C1143 1.391 . S
C1147 C1146 1.371 . S
C1147 H1154 0.930 . S
H1148 C1145 0.928 . S
H1149 C1146 0.931 . S
H1150 C1126 0.930 . S
H1151 C1123 0.930 . S
H1152 C1132 0.930 . S
H1153 C1144 0.929 . S
H1154 C1147 0.930 . S
C1155 C1156 1.351 . S
C1155 N1158 1.368 . S
C1155 H1160 0.931 . S
C1156 C1155 1.351 . S
C1156 N1157 1.373 . S
C1156 H1184 0.930 . S
N1157 C1156 1.373 . S
N1157 C1159 1.340 . S
N1158 C1155 1.368 . S
N1158 C1159 1.321 . S
N1158 Co1161 2.135 . S
C1159 N1157 1.340 . S
C1159 N1158 1.321 . S
C1159 H1183 0.930 . S
H1160 C1155 0.931 . S
Co1161 N1158 2.135 . S
Co1161 N1164 2.121 . S
Co1161 O1169 2.055 . S
Co1161 O1172 2.039 . S
Co1161 N1175 2.140 . S
C1162 O1163 1.227 . S
C1162 O1172 1.265 . S
O1163 C1162 1.227 . S
N1164 Co1161 2.121 . S
N1164 C1166 1.375 . S
N1164 C1167 1.313 . S
C1165 C1166 1.338 . S
C1165 N1168 1.377 . S
C1165 H1185 0.930 . S
C1166 N1164 1.375 . S
C1166 C1165 1.338 . S
C1166 H1170 0.931 . S
C1167 N1164 1.313 . S
C1167 N1168 1.344 . S
C1167 H1171 0.930 . S
N1168 C1165 1.377 . S
N1168 C1167 1.344 . S
O1169 Co1161 2.055 . S
O1169 C1173 1.253 . S
H1170 C1166 0.931 . S
H1171 C1167 0.930 . S
O1172 Co1161 2.039 . S
O1172 C1162 1.265 . S
C1173 O1169 1.253 . S
C1173 O1174 1.227 . S
O1174 C1173 1.227 . S
N1175 Co1161 2.140 . S
N1175 C1178 1.346 . S
N1175 C1179 1.345 . S
C1176 C1177 1.387 . S
C1176 C1180 1.391 . S
C1177 C1176 1.387 . S
C1177 C1178 1.369 . S
C1177 H1186 0.929 . S
C1178 N1175 1.346 . S
C1178 C1177 1.369 . S
C1178 H1181 0.928 . S
C1179 N1175 1.345 . S
C1179 C1180 1.371 . S
C1179 H1182 0.931 . S
C1180 C1176 1.391 . S
C1180 C1179 1.371 . S
C1180 H1187 0.930 . S
H1181 C1178 0.928 . S
H1182 C1179 0.931 . S
H1183 C1159 0.930 . S
H1184 C1156 0.930 . S
H1185 C1165 0.930 . S
H1186 C1177 0.929 . S
H1187 C1180 0.930 . S
C1188 C1189 1.351 . S
C1188 N1191 1.368 . S
C1188 H1193 0.931 . S
C1189 C1188 1.351 . S
C1189 N1190 1.373 . S
C1189 H1217 0.930 . S
N1190 C1189 1.373 . S
N1190 C1192 1.340 . S
N1191 C1188 1.368 . S
N1191 C1192 1.321 . S
N1191 Co1194 2.135 . S
C1192 N1190 1.340 . S
C1192 N1191 1.321 . S
C1192 H1216 0.930 . S
H1193 C1188 0.931 . S
Co1194 N1191 2.135 . S
Co1194 N1197 2.121 . S
Co1194 O1202 2.055 . S
Co1194 O1205 2.039 . S
Co1194 N1208 2.140 . S
C1195 O1196 1.227 . S
C1195 O1205 1.265 . S
O1196 C1195 1.227 . S
N1197 Co1194 2.121 . S
N1197 C1199 1.375 . S
N1197 C1200 1.313 . S
C1198 C1199 1.338 . S
C1198 N1201 1.377 . S
C1198 H1218 0.930 . S
C1199 N1197 1.375 . S
C1199 C1198 1.338 . S
C1199 H1203 0.931 . S
C1200 N1197 1.313 . S
C1200 N1201 1.344 . S
C1200 H1204 0.930 . S
N1201 C1198 1.377 . S
N1201 C1200 1.344 . S
O1202 Co1194 2.055 . S
O1202 C1206 1.253 . S
H1203 C1199 0.931 . S
H1204 C1200 0.930 . S
O1205 Co1194 2.039 . S
O1205 C1195 1.265 . S
C1206 O1202 1.253 . S
C1206 O1207 1.227 . S
O1207 C1206 1.227 . S
N1208 Co1194 2.140 . S
N1208 C1211 1.346 . S
N1208 C1212 1.345 . S
C1209 C1210 1.387 . S
C1209 C1213 1.391 . S
C1210 C1209 1.387 . S
C1210 C1211 1.369 . S
C1210 H1219 0.929 . S
C1211 N1208 1.346 . S
C1211 C1210 1.369 . S
C1211 H1214 0.928 . S
C1212 N1208 1.345 . S
C1212 C1213 1.371 . S
C1212 H1215 0.931 . S
C1213 C1209 1.391 . S
C1213 C1212 1.371 . S
C1213 H1220 0.930 . S
H1214 C1211 0.928 . S
H1215 C1212 0.931 . S
H1216 C1192 0.930 . S
H1217 C1189 0.930 . S
H1218 C1198 0.930 . S
H1219 C1210 0.929 . S
H1220 C1213 0.930 . S
C1221 C1222 1.351 . S
C1221 N1224 1.368 . S
C1221 H1226 0.931 . S
C1222 C1221 1.351 . S
C1222 N1223 1.373 . S
C1222 H1250 0.930 . S
N1223 C1222 1.373 . S
N1223 C1225 1.340 . S
N1224 C1221 1.368 . S
N1224 C1225 1.321 . S
N1224 Co1227 2.135 . S
C1225 N1223 1.340 . S
C1225 N1224 1.321 . S
C1225 H1249 0.930 . S
H1226 C1221 0.931 . S
Co1227 N1224 2.135 . S
Co1227 N1230 2.121 . S
Co1227 O1235 2.055 . S
Co1227 O1238 2.039 . S
Co1227 N1241 2.140 . S
C1228 O1229 1.227 . S
C1228 O1238 1.265 . S
O1229 C1228 1.227 . S
N1230 Co1227 2.121 . S
N1230 C1232 1.375 . S
N1230 C1233 1.313 . S
C1231 C1232 1.338 . S
C1231 N1234 1.377 . S
C1231 H1251 0.930 . S
C1232 N1230 1.375 . S
C1232 C1231 1.338 . S
C1232 H1236 0.931 . S
C1233 N1230 1.313 . S
C1233 N1234 1.344 . S
C1233 H1237 0.930 . S
N1234 C1231 1.377 . S
N1234 C1233 1.344 . S
O1235 Co1227 2.055 . S
O1235 C1239 1.253 . S
H1236 C1232 0.931 . S
H1237 C1233 0.930 . S
O1238 Co1227 2.039 . S
O1238 C1228 1.265 . S
C1239 O1235 1.253 . S
C1239 O1240 1.227 . S
O1240 C1239 1.227 . S
N1241 Co1227 2.140 . S
N1241 C1244 1.346 . S
N1241 C1245 1.345 . S
C1242 C1243 1.387 . S
C1242 C1246 1.391 . S
C1243 C1242 1.387 . S
C1243 C1244 1.369 . S
C1243 H1252 0.929 . S
C1244 N1241 1.346 . S
C1244 C1243 1.369 . S
C1244 H1247 0.928 . S
C1245 N1241 1.345 . S
C1245 C1246 1.371 . S
C1245 H1248 0.931 . S
C1246 C1242 1.391 . S
C1246 C1245 1.371 . S
C1246 H1253 0.930 . S
H1247 C1244 0.928 . S
H1248 C1245 0.931 . S
H1249 C1225 0.930 . S
H1250 C1222 0.930 . S
H1251 C1231 0.930 . S
H1252 C1243 0.929 . S
H1253 C1246 0.930 . S
C1254 C1255 1.351 . S
C1254 N1257 1.368 . S
C1254 H1259 0.931 . S
C1255 C1254 1.351 . S
C1255 N1256 1.373 . S
C1255 H1283 0.930 . S
N1256 C1255 1.373 . S
N1256 C1258 1.340 . S
N1257 C1254 1.368 . S
N1257 C1258 1.321 . S
N1257 Co1260 2.135 . S
C1258 N1256 1.340 . S
C1258 N1257 1.321 . S
C1258 H1282 0.930 . S
H1259 C1254 0.931 . S
Co1260 N1257 2.135 . S
Co1260 N1263 2.121 . S
Co1260 O1268 2.055 . S
Co1260 O1271 2.039 . S
Co1260 N1274 2.140 . S
C1261 O1262 1.227 . S
C1261 O1271 1.265 . S
O1262 C1261 1.227 . S
N1263 Co1260 2.121 . S
N1263 C1265 1.375 . S
N1263 C1266 1.313 . S
C1264 C1265 1.338 . S
C1264 N1267 1.377 . S
C1264 H1284 0.930 . S
C1265 N1263 1.375 . S
C1265 C1264 1.338 . S
C1265 H1269 0.931 . S
C1266 N1263 1.313 . S
C1266 N1267 1.344 . S
C1266 H1270 0.930 . S
N1267 C1264 1.377 . S
N1267 C1266 1.344 . S
O1268 Co1260 2.055 . S
O1268 C1272 1.253 . S
H1269 C1265 0.931 . S
H1270 C1266 0.930 . S
O1271 Co1260 2.039 . S
O1271 C1261 1.265 . S
C1272 O1268 1.253 . S
C1272 O1273 1.227 . S
O1273 C1272 1.227 . S
N1274 Co1260 2.140 . S
N1274 C1277 1.346 . S
N1274 C1278 1.345 . S
C1275 C1276 1.387 . S
C1275 C1279 1.391 . S
C1276 C1275 1.387 . S
C1276 C1277 1.369 . S
C1276 H1285 0.929 . S
C1277 N1274 1.346 . S
C1277 C1276 1.369 . S
C1277 H1280 0.928 . S
C1278 N1274 1.345 . S
C1278 C1279 1.371 . S
C1278 H1281 0.931 . S
C1279 C1275 1.391 . S
C1279 C1278 1.371 . S
C1279 H1286 0.930 . S
H1280 C1277 0.928 . S
H1281 C1278 0.931 . S
H1282 C1258 0.930 . S
H1283 C1255 0.930 . S
H1284 C1264 0.930 . S
H1285 C1276 0.929 . S
H1286 C1279 0.930 . S
C1287 C1288 1.351 . S
C1287 N1290 1.368 . S
C1287 H1292 0.931 . S
C1288 C1287 1.351 . S
C1288 N1289 1.373 . S
C1288 H1316 0.930 . S
N1289 C1288 1.373 . S
N1289 C1291 1.340 . S
N1290 C1287 1.368 . S
N1290 C1291 1.321 . S
N1290 Co1293 2.135 . S
C1291 N1289 1.340 . S
C1291 N1290 1.321 . S
C1291 H1315 0.930 . S
H1292 C1287 0.931 . S
Co1293 N1290 2.135 . S
Co1293 N1296 2.121 . S
Co1293 O1301 2.055 . S
Co1293 O1304 2.039 . S
Co1293 N1307 2.140 . S
C1294 O1295 1.227 . S
C1294 O1304 1.265 . S
O1295 C1294 1.227 . S
N1296 Co1293 2.121 . S
N1296 C1298 1.375 . S
N1296 C1299 1.313 . S
C1297 C1298 1.338 . S
C1297 N1300 1.377 . S
C1297 H1317 0.930 . S
C1298 N1296 1.375 . S
C1298 C1297 1.338 . S
C1298 H1302 0.931 . S
C1299 N1296 1.313 . S
C1299 N1300 1.344 . S
C1299 H1303 0.930 . S
N1300 C1297 1.377 . S
N1300 C1299 1.344 . S
O1301 Co1293 2.055 . S
O1301 C1305 1.253 . S
H1302 C1298 0.931 . S
H1303 C1299 0.930 . S
O1304 Co1293 2.039 . S
O1304 C1294 1.265 . S
C1305 O1301 1.253 . S
C1305 O1306 1.227 . S
O1306 C1305 1.227 . S
N1307 Co1293 2.140 . S
N1307 C1310 1.346 . S
N1307 C1311 1.345 . S
C1308 C1309 1.387 . S
C1308 C1312 1.391 . S
C1309 C1308 1.387 . S
C1309 C1310 1.369 . S
C1309 H1318 0.929 . S
C1310 N1307 1.346 . S
C1310 C1309 1.369 . S
C1310 H1313 0.928 . S
C1311 N1307 1.345 . S
C1311 C1312 1.371 . S
C1311 H1314 0.931 . S
C1312 C1308 1.391 . S
C1312 C1311 1.371 . S
C1312 H1319 0.930 . S
H1313 C1310 0.928 . S
H1314 C1311 0.931 . S
H1315 C1291 0.930 . S
H1316 C1288 0.930 . S
H1317 C1297 0.930 . S
H1318 C1309 0.929 . S
H1319 C1312 0.930 . S
C1320 C1321 1.351 . S
C1320 N1323 1.368 . S
C1320 H1325 0.931 . S
C1321 C1320 1.351 . S
C1321 N1322 1.373 . S
C1321 H1349 0.930 . S
N1322 C1321 1.373 . S
N1322 C1324 1.340 . S
N1323 C1320 1.368 . S
N1323 C1324 1.321 . S
N1323 Co1326 2.135 . S
C1324 N1322 1.340 . S
C1324 N1323 1.321 . S
C1324 H1348 0.930 . S
H1325 C1320 0.931 . S
Co1326 N1323 2.135 . S
Co1326 N1329 2.121 . S
Co1326 O1334 2.055 . S
Co1326 O1337 2.039 . S
Co1326 N1340 2.140 . S
C1327 O1328 1.227 . S
C1327 O1337 1.265 . S
O1328 C1327 1.227 . S
N1329 Co1326 2.121 . S
N1329 C1331 1.375 . S
N1329 C1332 1.313 . S
C1330 C1331 1.338 . S
C1330 N1333 1.377 . S
C1330 H1350 0.930 . S
C1331 N1329 1.375 . S
C1331 C1330 1.338 . S
C1331 H1335 0.931 . S
C1332 N1329 1.313 . S
C1332 N1333 1.344 . S
C1332 H1336 0.930 . S
N1333 C1330 1.377 . S
N1333 C1332 1.344 . S
O1334 Co1326 2.055 . S
O1334 C1338 1.253 . S
H1335 C1331 0.931 . S
H1336 C1332 0.930 . S
O1337 Co1326 2.039 . S
O1337 C1327 1.265 . S
C1338 O1334 1.253 . S
C1338 O1339 1.227 . S
O1339 C1338 1.227 . S
N1340 Co1326 2.140 . S
N1340 C1343 1.346 . S
N1340 C1344 1.345 . S
C1341 C1342 1.387 . S
C1341 C1345 1.391 . S
C1342 C1341 1.387 . S
C1342 C1343 1.369 . S
C1342 H1351 0.929 . S
C1343 N1340 1.346 . S
C1343 C1342 1.369 . S
C1343 H1346 0.928 . S
C1344 N1340 1.345 . S
C1344 C1345 1.371 . S
C1344 H1347 0.931 . S
C1345 C1341 1.391 . S
C1345 C1344 1.371 . S
C1345 H1352 0.930 . S
H1346 C1343 0.928 . S
H1347 C1344 0.931 . S
H1348 C1324 0.930 . S
H1349 C1321 0.930 . S
H1350 C1330 0.930 . S
H1351 C1342 0.929 . S
H1352 C1345 0.930 . S
C1353 C1354 1.351 . S
C1353 N1356 1.368 . S
C1353 H1358 0.931 . S
C1354 C1353 1.351 . S
C1354 N1355 1.373 . S
C1354 H1382 0.930 . S
N1355 C1354 1.373 . S
N1355 C1357 1.340 . S
N1356 C1353 1.368 . S
N1356 C1357 1.321 . S
N1356 Co1359 2.135 . S
C1357 N1355 1.340 . S
C1357 N1356 1.321 . S
C1357 H1381 0.930 . S
H1358 C1353 0.931 . S
Co1359 N1356 2.135 . S
Co1359 N1362 2.121 . S
Co1359 O1367 2.055 . S
Co1359 O1370 2.039 . S
Co1359 N1373 2.140 . S
C1360 O1361 1.227 . S
C1360 O1370 1.265 . S
O1361 C1360 1.227 . S
N1362 Co1359 2.121 . S
N1362 C1364 1.375 . S
N1362 C1365 1.313 . S
C1363 C1364 1.338 . S
C1363 N1366 1.377 . S
C1363 H1383 0.930 . S
C1364 N1362 1.375 . S
C1364 C1363 1.338 . S
C1364 H1368 0.931 . S
C1365 N1362 1.313 . S
C1365 N1366 1.344 . S
C1365 H1369 0.930 . S
N1366 C1363 1.377 . S
N1366 C1365 1.344 . S
O1367 Co1359 2.055 . S
O1367 C1371 1.253 . S
H1368 C1364 0.931 . S
H1369 C1365 0.930 . S
O1370 Co1359 2.039 . S
O1370 C1360 1.265 . S
C1371 O1367 1.253 . S
C1371 O1372 1.227 . S
O1372 C1371 1.227 . S
N1373 Co1359 2.140 . S
N1373 C1376 1.346 . S
N1373 C1377 1.345 . S
C1374 C1375 1.387 . S
C1374 C1378 1.391 . S
C1375 C1374 1.387 . S
C1375 C1376 1.369 . S
C1375 H1384 0.929 . S
C1376 N1373 1.346 . S
C1376 C1375 1.369 . S
C1376 H1379 0.928 . S
C1377 N1373 1.345 . S
C1377 C1378 1.371 . S
C1377 H1380 0.931 . S
C1378 C1374 1.391 . S
C1378 C1377 1.371 . S
C1378 H1385 0.930 . S
H1379 C1376 0.928 . S
H1380 C1377 0.931 . S
H1381 C1357 0.930 . S
H1382 C1354 0.930 . S
H1383 C1363 0.930 . S
H1384 C1375 0.929 . S
H1385 C1378 0.930 . S
C1386 C1387 1.351 . S
C1386 N1389 1.368 . S
C1386 H1391 0.931 . S
C1387 C1386 1.351 . S
C1387 N1388 1.373 . S
C1387 H1415 0.930 . S
N1388 C1387 1.373 . S
N1388 C1390 1.340 . S
N1389 C1386 1.368 . S
N1389 C1390 1.321 . S
N1389 Co1392 2.135 . S
C1390 N1388 1.340 . S
C1390 N1389 1.321 . S
C1390 H1414 0.930 . S
H1391 C1386 0.931 . S
Co1392 N1389 2.135 . S
Co1392 N1395 2.121 . S
Co1392 O1400 2.055 . S
Co1392 O1403 2.039 . S
Co1392 N1406 2.140 . S
C1393 O1394 1.227 . S
C1393 O1403 1.265 . S
O1394 C1393 1.227 . S
N1395 Co1392 2.121 . S
N1395 C1397 1.375 . S
N1395 C1398 1.313 . S
C1396 C1397 1.338 . S
C1396 N1399 1.377 . S
C1396 H1416 0.930 . S
C1397 N1395 1.375 . S
C1397 C1396 1.338 . S
C1397 H1401 0.931 . S
C1398 N1395 1.313 . S
C1398 N1399 1.344 . S
C1398 H1402 0.930 . S
N1399 C1396 1.377 . S
N1399 C1398 1.344 . S
O1400 Co1392 2.055 . S
O1400 C1404 1.253 . S
H1401 C1397 0.931 . S
H1402 C1398 0.930 . S
O1403 Co1392 2.039 . S
O1403 C1393 1.265 . S
C1404 O1400 1.253 . S
C1404 O1405 1.227 . S
O1405 C1404 1.227 . S
N1406 Co1392 2.140 . S
N1406 C1409 1.346 . S
N1406 C1410 1.345 . S
C1407 C1408 1.387 . S
C1407 C1411 1.391 . S
C1408 C1407 1.387 . S
C1408 C1409 1.369 . S
C1408 H1417 0.929 . S
C1409 N1406 1.346 . S
C1409 C1408 1.369 . S
C1409 H1412 0.928 . S
C1410 N1406 1.345 . S
C1410 C1411 1.371 . S
C1410 H1413 0.931 . S
C1411 C1407 1.391 . S
C1411 C1410 1.371 . S
C1411 H1418 0.930 . S
H1412 C1409 0.928 . S
H1413 C1410 0.931 . S
H1414 C1390 0.930 . S
H1415 C1387 0.930 . S
H1416 C1396 0.930 . S
H1417 C1408 0.929 . S
H1418 C1411 0.930 . S
C1419 C1420 1.351 . S
C1419 N1422 1.368 . S
C1419 H1424 0.931 . S
C1420 C1419 1.351 . S
C1420 N1421 1.373 . S
C1420 H1448 0.930 . S
N1421 C1420 1.373 . S
N1421 C1423 1.340 . S
N1422 C1419 1.368 . S
N1422 C1423 1.321 . S
N1422 Co1425 2.135 . S
C1423 N1421 1.340 . S
C1423 N1422 1.321 . S
C1423 H1447 0.930 . S
H1424 C1419 0.931 . S
Co1425 N1422 2.135 . S
Co1425 N1428 2.121 . S
Co1425 O1433 2.055 . S
Co1425 O1436 2.039 . S
Co1425 N1439 2.140 . S
C1426 O1427 1.227 . S
C1426 O1436 1.265 . S
O1427 C1426 1.227 . S
N1428 Co1425 2.121 . S
N1428 C1430 1.375 . S
N1428 C1431 1.313 . S
C1429 C1430 1.338 . S
C1429 N1432 1.377 . S
C1429 H1449 0.930 . S
C1430 N1428 1.375 . S
C1430 C1429 1.338 . S
C1430 H1434 0.931 . S
C1431 N1428 1.313 . S
C1431 N1432 1.344 . S
C1431 H1435 0.930 . S
N1432 C1429 1.377 . S
N1432 C1431 1.344 . S
O1433 Co1425 2.055 . S
O1433 C1437 1.253 . S
H1434 C1430 0.931 . S
H1435 C1431 0.930 . S
O1436 Co1425 2.039 . S
O1436 C1426 1.265 . S
C1437 O1433 1.253 . S
C1437 O1438 1.227 . S
O1438 C1437 1.227 . S
N1439 Co1425 2.140 . S
N1439 C1442 1.346 . S
N1439 C1443 1.345 . S
C1440 C1441 1.387 . S
C1440 C1444 1.391 . S
C1441 C1440 1.387 . S
C1441 C1442 1.369 . S
C1441 H1450 0.929 . S
C1442 N1439 1.346 . S
C1442 C1441 1.369 . S
C1442 H1445 0.928 . S
C1443 N1439 1.345 . S
C1443 C1444 1.371 . S
C1443 H1446 0.931 . S
C1444 C1440 1.391 . S
C1444 C1443 1.371 . S
C1444 H1451 0.930 . S
H1445 C1442 0.928 . S
H1446 C1443 0.931 . S
H1447 C1423 0.930 . S
H1448 C1420 0.930 . S
H1449 C1429 0.930 . S
H1450 C1441 0.929 . S
H1451 C1444 0.930 . S
C1452 C1453 1.351 . S
C1452 N1455 1.368 . S
C1452 H1457 0.931 . S
C1453 C1452 1.351 . S
C1453 N1454 1.373 . S
C1453 H1481 0.930 . S
N1454 C1453 1.373 . S
N1454 C1456 1.340 . S
N1455 C1452 1.368 . S
N1455 C1456 1.321 . S
N1455 Co1458 2.135 . S
C1456 N1454 1.340 . S
C1456 N1455 1.321 . S
C1456 H1480 0.930 . S
H1457 C1452 0.931 . S
Co1458 N1455 2.135 . S
Co1458 N1461 2.121 . S
Co1458 O1466 2.055 . S
Co1458 O1469 2.039 . S
Co1458 N1472 2.140 . S
C1459 O1460 1.227 . S
C1459 O1469 1.265 . S
O1460 C1459 1.227 . S
N1461 Co1458 2.121 . S
N1461 C1463 1.375 . S
N1461 C1464 1.313 . S
C1462 C1463 1.338 . S
C1462 N1465 1.377 . S
C1462 H1482 0.930 . S
C1463 N1461 1.375 . S
C1463 C1462 1.338 . S
C1463 H1467 0.931 . S
C1464 N1461 1.313 . S
C1464 N1465 1.344 . S
C1464 H1468 0.930 . S
N1465 C1462 1.377 . S
N1465 C1464 1.344 . S
O1466 Co1458 2.055 . S
O1466 C1470 1.253 . S
H1467 C1463 0.931 . S
H1468 C1464 0.930 . S
O1469 Co1458 2.039 . S
O1469 C1459 1.265 . S
C1470 O1466 1.253 . S
C1470 O1471 1.227 . S
O1471 C1470 1.227 . S
N1472 Co1458 2.140 . S
N1472 C1475 1.346 . S
N1472 C1476 1.345 . S
C1473 C1474 1.387 . S
C1473 C1477 1.391 . S
C1474 C1473 1.387 . S
C1474 C1475 1.369 . S
C1474 H1483 0.929 . S
C1475 N1472 1.346 . S
C1475 C1474 1.369 . S
C1475 H1478 0.928 . S
C1476 N1472 1.345 . S
C1476 C1477 1.371 . S
C1476 H1479 0.931 . S
C1477 C1473 1.391 . S
C1477 C1476 1.371 . S
C1477 H1484 0.930 . S
H1478 C1475 0.928 . S
H1479 C1476 0.931 . S
H1480 C1456 0.930 . S
H1481 C1453 0.930 . S
H1482 C1462 0.930 . S
H1483 C1474 0.929 . S
H1484 C1477 0.930 . S
C1485 C1486 1.351 . S
C1485 N1488 1.368 . S
C1485 H1490 0.931 . S
C1486 C1485 1.351 . S
C1486 N1487 1.373 . S
C1486 H1514 0.930 . S
N1487 C1486 1.373 . S
N1487 C1489 1.340 . S
N1488 C1485 1.368 . S
N1488 C1489 1.321 . S
N1488 Co1491 2.135 . S
C1489 N1487 1.340 . S
C1489 N1488 1.321 . S
C1489 H1513 0.930 . S
H1490 C1485 0.931 . S
Co1491 N1488 2.135 . S
Co1491 N1494 2.121 . S
Co1491 O1499 2.055 . S
Co1491 O1502 2.039 . S
Co1491 N1505 2.140 . S
C1492 O1493 1.227 . S
C1492 O1502 1.265 . S
O1493 C1492 1.227 . S
N1494 Co1491 2.121 . S
N1494 C1496 1.375 . S
N1494 C1497 1.313 . S
C1495 C1496 1.338 . S
C1495 N1498 1.377 . S
C1495 H1515 0.930 . S
C1496 N1494 1.375 . S
C1496 C1495 1.338 . S
C1496 H1500 0.931 . S
C1497 N1494 1.313 . S
C1497 N1498 1.344 . S
C1497 H1501 0.930 . S
N1498 C1495 1.377 . S
N1498 C1497 1.344 . S
O1499 Co1491 2.055 . S
O1499 C1503 1.253 . S
H1500 C1496 0.931 . S
H1501 C1497 0.930 . S
O1502 Co1491 2.039 . S
O1502 C1492 1.265 . S
C1503 O1499 1.253 . S
C1503 O1504 1.227 . S
O1504 C1503 1.227 . S
N1505 Co1491 2.140 . S
N1505 C1508 1.346 . S
N1505 C1509 1.345 . S
C1506 C1507 1.387 . S
C1506 C1510 1.391 . S
C1507 C1506 1.387 . S
C1507 C1508 1.369 . S
C1507 H1516 0.929 . S
C1508 N1505 1.346 . S
C1508 C1507 1.369 . S
C1508 H1511 0.928 . S
C1509 N1505 1.345 . S
C1509 C1510 1.371 . S
C1509 H1512 0.931 . S
C1510 C1506 1.391 . S
C1510 C1509 1.371 . S
C1510 H1517 0.930 . S
H1511 C1508 0.928 . S
H1512 C1509 0.931 . S
H1513 C1489 0.930 . S
H1514 C1486 0.930 . S
H1515 C1495 0.930 . S
H1516 C1507 0.929 . S
H1517 C1510 0.930 . S
C1518 C1519 1.351 . S
C1518 N1521 1.368 . S
C1518 H1523 0.931 . S
C1519 C1518 1.351 . S
C1519 N1520 1.373 . S
C1519 H1547 0.930 . S
N1520 C1519 1.373 . S
N1520 C1522 1.340 . S
N1521 C1518 1.368 . S
N1521 C1522 1.321 . S
N1521 Co1524 2.135 . S
C1522 N1520 1.340 . S
C1522 N1521 1.321 . S
C1522 H1546 0.930 . S
H1523 C1518 0.931 . S
Co1524 N1521 2.135 . S
Co1524 N1527 2.121 . S
Co1524 O1532 2.055 . S
Co1524 O1535 2.039 . S
Co1524 N1538 2.140 . S
C1525 O1526 1.227 . S
C1525 O1535 1.265 . S
O1526 C1525 1.227 . S
N1527 Co1524 2.121 . S
N1527 C1529 1.375 . S
N1527 C1530 1.313 . S
C1528 C1529 1.338 . S
C1528 N1531 1.377 . S
C1528 H1548 0.930 . S
C1529 N1527 1.375 . S
C1529 C1528 1.338 . S
C1529 H1533 0.931 . S
C1530 N1527 1.313 . S
C1530 N1531 1.344 . S
C1530 H1534 0.930 . S
N1531 C1528 1.377 . S
N1531 C1530 1.344 . S
O1532 Co1524 2.055 . S
O1532 C1536 1.253 . S
H1533 C1529 0.931 . S
H1534 C1530 0.930 . S
O1535 Co1524 2.039 . S
O1535 C1525 1.265 . S
C1536 O1532 1.253 . S
C1536 O1537 1.227 . S
O1537 C1536 1.227 . S
N1538 Co1524 2.140 . S
N1538 C1541 1.346 . S
N1538 C1542 1.345 . S
C1539 C1540 1.387 . S
C1539 C1543 1.391 . S
C1540 C1539 1.387 . S
C1540 C1541 1.369 . S
C1540 H1549 0.929 . S
C1541 N1538 1.346 . S
C1541 C1540 1.369 . S
C1541 H1544 0.928 . S
C1542 N1538 1.345 . S
C1542 C1543 1.371 . S
C1542 H1545 0.931 . S
C1543 C1539 1.391 . S
C1543 C1542 1.371 . S
C1543 H1550 0.930 . S
H1544 C1541 0.928 . S
H1545 C1542 0.931 . S
H1546 C1522 0.930 . S
H1547 C1519 0.930 . S
H1548 C1528 0.930 . S
H1549 C1540 0.929 . S
H1550 C1543 0.930 . S
C1551 C1552 1.351 . S
C1551 N1554 1.368 . S
C1551 H1556 0.931 . S
C1552 C1551 1.351 . S
C1552 N1553 1.373 . S
C1552 H1580 0.930 . S
N1553 C1552 1.373 . S
N1553 C1555 1.340 . S
N1554 C1551 1.368 . S
N1554 C1555 1.321 . S
N1554 Co1557 2.135 . S
C1555 N1553 1.340 . S
C1555 N1554 1.321 . S
C1555 H1579 0.930 . S
H1556 C1551 0.931 . S
Co1557 N1554 2.135 . S
Co1557 N1560 2.121 . S
Co1557 O1565 2.055 . S
Co1557 O1568 2.039 . S
Co1557 N1571 2.140 . S
C1558 O1559 1.227 . S
C1558 O1568 1.265 . S
O1559 C1558 1.227 . S
N1560 Co1557 2.121 . S
N1560 C1562 1.375 . S
N1560 C1563 1.313 . S
C1561 C1562 1.338 . S
C1561 N1564 1.377 . S
C1561 H1581 0.930 . S
C1562 N1560 1.375 . S
C1562 C1561 1.338 . S
C1562 H1566 0.931 . S
C1563 N1560 1.313 . S
C1563 N1564 1.344 . S
C1563 H1567 0.930 . S
N1564 C1561 1.377 . S
N1564 C1563 1.344 . S
O1565 Co1557 2.055 . S
O1565 C1569 1.253 . S
H1566 C1562 0.931 . S
H1567 C1563 0.930 . S
O1568 Co1557 2.039 . S
O1568 C1558 1.265 . S
C1569 O1565 1.253 . S
C1569 O1570 1.227 . S
O1570 C1569 1.227 . S
N1571 Co1557 2.140 . S
N1571 C1574 1.346 . S
N1571 C1575 1.345 . S
C1572 C1573 1.387 . S
C1572 C1576 1.391 . S
C1573 C1572 1.387 . S
C1573 C1574 1.369 . S
C1573 H1582 0.929 . S
C1574 N1571 1.346 . S
C1574 C1573 1.369 . S
C1574 H1577 0.928 . S
C1575 N1571 1.345 . S
C1575 C1576 1.371 . S
C1575 H1578 0.931 . S
C1576 C1572 1.391 . S
C1576 C1575 1.371 . S
C1576 H1583 0.930 . S
H1577 C1574 0.928 . S
H1578 C1575 0.931 . S
H1579 C1555 0.930 . S
H1580 C1552 0.930 . S
H1581 C1561 0.930 . S
H1582 C1573 0.929 . S
H1583 C1576 0.930 . S
H1584 C1590 0.930 . S
H1585 C1593 0.930 . S
H1586 C1594 0.930 . S
H1587 C1595 0.930 . S
H1588 C1598 0.930 . S
H1589 C1599 0.930 . S
C1590 H1584 0.930 . S
C1590 C1591 1.355 1_556 S
C1590 C1592 1.415 . S
C1591 C1590 1.355 1_554 S
C1591 C1593 1.419 . S
C1592 C1590 1.415 . S
C1592 C1597 1.425 . S
C1592 C1599 1.409 . S
C1593 H1585 0.930 . S
C1593 C1591 1.419 . S
C1593 C1594 1.362 1_554 S
C1594 H1586 0.930 . S
C1594 C1593 1.362 1_556 S
C1594 C1597 1.409 . S
C1595 H1587 0.930 . S
C1595 C1596 1.355 . S
C1595 C1597 1.415 . S
C1596 C1595 1.355 . S
C1596 C1598 1.419 . S
C1597 C1592 1.425 . S
C1597 C1594 1.409 . S
C1597 C1595 1.415 . S
C1598 H1588 0.930 . S
C1598 C1596 1.419 . S
C1598 C1599 1.362 . S
C1599 H1589 0.930 . S
C1599 C1592 1.409 . S
C1599 C1598 1.362 . S
H1600 C1606 0.930 . S
H1601 C1609 0.930 . S
H1602 C1610 0.930 . S
H1603 C1611 0.930 . S
H1604 C1614 0.930 . S
H1605 C1615 0.930 . S
C1606 H1600 0.930 . S
C1606 C1607 1.355 . S
C1606 C1608 1.415 . S
C1607 C1606 1.355 . S
C1607 C1609 1.419 . S
C1608 C1606 1.415 . S
C1608 C1613 1.425 . S
C1608 C1615 1.409 . S
C1609 H1601 0.930 . S
C1609 C1607 1.419 . S
C1609 C1610 1.362 . S
C1610 H1602 0.930 . S
C1610 C1609 1.362 . S
C1610 C1613 1.409 . S
C1611 H1603 0.930 . S
C1611 C1612 1.355 . S
C1611 C1613 1.415 . S
C1612 C1611 1.355 . S
C1612 C1614 1.419 . S
C1613 C1608 1.425 . S
C1613 C1610 1.409 . S
C1613 C1611 1.415 . S
C1614 H1604 0.930 . S
C1614 C1612 1.419 . S
C1614 C1615 1.362 . S
C1615 H1605 0.930 . S
C1615 C1608 1.409 . S
C1615 C1614 1.362 . S
H1616 C1622 0.930 . S
H1617 C1625 0.930 . S
H1618 C1626 0.930 . S
H1619 C1627 0.930 . S
H1620 C1630 0.930 . S
H1621 C1631 0.930 . S
C1622 H1616 0.930 . S
C1622 C1623 1.355 . S
C1622 C1624 1.415 . S
C1623 C1622 1.355 . S
C1623 C1625 1.419 . S
C1624 C1622 1.415 . S
C1624 C1629 1.425 . S
C1624 C1631 1.409 . S
C1625 H1617 0.930 . S
C1625 C1623 1.419 . S
C1625 C1626 1.362 . S
C1626 H1618 0.930 . S
C1626 C1625 1.362 . S
C1626 C1629 1.409 . S
C1627 H1619 0.930 . S
C1627 C1628 1.355 . S
C1627 C1629 1.415 . S
C1628 C1627 1.355 . S
C1628 C1630 1.419 . S
C1629 C1624 1.425 . S
C1629 C1626 1.409 . S
C1629 C1627 1.415 . S
C1630 H1620 0.930 . S
C1630 C1628 1.419 . S
C1630 C1631 1.362 . S
C1631 H1621 0.930 . S
C1631 C1624 1.409 . S
C1631 C1630 1.362 . S
H1632 C1638 0.930 . S
H1633 C1641 0.930 . S
H1634 C1642 0.930 . S
H1635 C1643 0.930 . S
H1636 C1646 0.930 . S
H1637 C1647 0.930 . S
C1638 H1632 0.930 . S
C1638 C1639 1.355 . S
C1638 C1640 1.415 . S
C1639 C1638 1.355 . S
C1639 C1641 1.419 . S
C1640 C1638 1.415 . S
C1640 C1645 1.425 . S
C1640 C1647 1.409 . S
C1641 H1633 0.930 . S
C1641 C1639 1.419 . S
C1641 C1642 1.362 . S
C1642 H1634 0.930 . S
C1642 C1641 1.362 . S
C1642 C1645 1.409 . S
C1643 H1635 0.930 . S
C1643 C1644 1.355 . S
C1643 C1645 1.415 . S
C1644 C1643 1.355 . S
C1644 C1646 1.419 . S
C1645 C1640 1.425 . S
C1645 C1642 1.409 . S
C1645 C1643 1.415 . S
C1646 H1636 0.930 . S
C1646 C1644 1.419 . S
C1646 C1647 1.362 . S
C1647 H1637 0.930 . S
C1647 C1640 1.409 . S
C1647 C1646 1.362 . S
H1648 C1654 0.930 . S
H1649 C1657 0.930 . S
H1650 C1658 0.930 . S
H1651 C1659 0.930 . S
H1652 C1662 0.930 . S
H1653 C1663 0.930 . S
C1654 H1648 0.930 . S
C1654 C1655 1.355 . S
C1654 C1656 1.415 . S
C1655 C1654 1.355 . S
C1655 C1657 1.419 . S
C1656 C1654 1.415 . S
C1656 C1661 1.425 . S
C1656 C1663 1.409 . S
C1657 H1649 0.930 . S
C1657 C1655 1.419 . S
C1657 C1658 1.362 . S
C1658 H1650 0.930 . S
C1658 C1657 1.362 . S
C1658 C1661 1.409 . S
C1659 H1651 0.930 . S
C1659 C1660 1.355 . S
C1659 C1661 1.415 . S
C1660 C1659 1.355 . S
C1660 C1662 1.419 . S
C1661 C1656 1.425 . S
C1661 C1658 1.409 . S
C1661 C1659 1.415 . S
C1662 H1652 0.930 . S
C1662 C1660 1.419 . S
C1662 C1663 1.362 . S
C1663 H1653 0.930 . S
C1663 C1656 1.409 . S
C1663 C1662 1.362 . S
H1664 C1670 0.930 . S
H1665 C1673 0.930 . S
H1666 C1674 0.930 . S
H1667 C1675 0.930 . S
H1668 C1678 0.930 . S
H1669 C1679 0.930 . S
C1670 H1664 0.930 . S
C1670 C1671 1.355 . S
C1670 C1672 1.415 . S
C1671 C1670 1.355 . S
C1671 C1673 1.419 . S
C1672 C1670 1.415 . S
C1672 C1677 1.425 . S
C1672 C1679 1.409 . S
C1673 H1665 0.930 . S
C1673 C1671 1.419 . S
C1673 C1674 1.362 . S
C1674 H1666 0.930 . S
C1674 C1673 1.362 . S
C1674 C1677 1.409 . S
C1675 H1667 0.930 . S
C1675 C1676 1.355 . S
C1675 C1677 1.415 . S
C1676 C1675 1.355 . S
C1676 C1678 1.419 . S
C1677 C1672 1.425 . S
C1677 C1674 1.409 . S
C1677 C1675 1.415 . S
C1678 H1668 0.930 . S
C1678 C1676 1.419 . S
C1678 C1679 1.362 . S
C1679 H1669 0.930 . S
C1679 C1672 1.409 . S
C1679 C1678 1.362 . S
H1680 C1686 0.930 . S
H1681 C1689 0.930 . S
H1682 C1690 0.930 . S
H1683 C1691 0.930 . S
H1684 C1694 0.930 . S
H1685 C1695 0.930 . S
C1686 H1680 0.930 . S
C1686 C1687 1.355 . S
C1686 C1688 1.415 1_556 S
C1687 C1686 1.355 . S
C1687 C1689 1.419 . S
C1688 C1686 1.415 1_554 S
C1688 C1693 1.424 . S
C1688 C1695 1.409 . S
C1689 H1681 0.930 . S
C1689 C1687 1.419 . S
C1689 C1690 1.362 . S
C1690 H1682 0.930 . S
C1690 C1689 1.362 . S
C1690 C1693 1.413 1_556 S
C1691 H1683 0.930 . S
C1691 C1692 1.355 . S
C1691 C1693 1.411 . S
C1692 C1691 1.355 . S
C1692 C1694 1.419 . S
C1693 C1688 1.424 . S
C1693 C1690 1.413 1_554 S
C1693 C1691 1.411 . S
C1694 H1684 0.930 . S
C1694 C1692 1.419 . S
C1694 C1695 1.362 . S
C1695 H1685 0.930 . S
C1695 C1688 1.409 . S
C1695 C1694 1.362 . S
H1696 C1702 0.930 . S
H1697 C1705 0.930 . S
H1698 C1706 0.930 . S
H1699 C1707 0.930 . S
H1700 C1710 0.930 . S
H1701 C1711 0.930 . S
C1702 H1696 0.930 . S
C1702 C1703 1.355 . S
C1702 C1704 1.415 . S
C1703 C1702 1.355 . S
C1703 C1705 1.419 . S
C1704 C1702 1.415 . S
C1704 C1709 1.425 . S
C1704 C1711 1.409 . S
C1705 H1697 0.930 . S
C1705 C1703 1.419 . S
C1705 C1706 1.362 . S
C1706 H1698 0.930 . S
C1706 C1705 1.362 . S
C1706 C1709 1.409 . S
C1707 H1699 0.930 . S
C1707 C1708 1.355 . S
C1707 C1709 1.415 . S
C1708 C1707 1.355 . S
C1708 C1710 1.419 . S
C1709 C1704 1.425 . S
C1709 C1706 1.409 . S
C1709 C1707 1.415 . S
C1710 H1700 0.930 . S
C1710 C1708 1.419 . S
C1710 C1711 1.362 . S
C1711 H1701 0.930 . S
C1711 C1704 1.409 . S
C1711 C1710 1.362 . S
H1712 C1718 0.930 . S
H1713 C1721 0.930 . S
H1714 C1722 0.930 . S
H1715 C1723 0.930 . S
H1716 C1726 0.930 . S
H1717 C1727 0.930 . S
C1718 H1712 0.930 . S
C1718 C1719 1.355 . S
C1718 C1720 1.415 . S
C1719 C1718 1.355 . S
C1719 C1721 1.419 . S
C1720 C1718 1.415 . S
C1720 C1725 1.425 . S
C1720 C1727 1.409 . S
C1721 H1713 0.930 . S
C1721 C1719 1.419 . S
C1721 C1722 1.362 . S
C1722 H1714 0.930 . S
C1722 C1721 1.362 . S
C1722 C1725 1.409 . S
C1723 H1715 0.930 . S
C1723 C1724 1.355 . S
C1723 C1725 1.415 . S
C1724 C1723 1.355 . S
C1724 C1726 1.419 . S
C1725 C1720 1.425 . S
C1725 C1722 1.409 . S
C1725 C1723 1.415 . S
C1726 H1716 0.930 . S
C1726 C1724 1.419 . S
C1726 C1727 1.362 . S
C1727 H1717 0.930 . S
C1727 C1720 1.409 . S
C1727 C1726 1.362 . S
H1728 C1734 0.930 . S
H1729 C1737 0.930 . S
H1730 C1738 0.930 . S
H1731 C1739 0.930 . S
H1732 C1742 0.930 . S
H1733 C1743 0.930 . S
C1734 H1728 0.930 . S
C1734 C1735 1.355 . S
C1734 C1736 1.415 . S
C1735 C1734 1.355 . S
C1735 C1737 1.419 . S
C1736 C1734 1.415 . S
C1736 C1741 1.425 . S
C1736 C1743 1.409 . S
C1737 H1729 0.930 . S
C1737 C1735 1.419 . S
C1737 C1738 1.362 . S
C1738 H1730 0.930 . S
C1738 C1737 1.362 . S
C1738 C1741 1.409 . S
C1739 H1731 0.930 . S
C1739 C1740 1.355 . S
C1739 C1741 1.415 . S
C1740 C1739 1.355 . S
C1740 C1742 1.419 . S
C1741 C1736 1.425 . S
C1741 C1738 1.409 . S
C1741 C1739 1.415 . S
C1742 H1732 0.930 . S
C1742 C1740 1.419 . S
C1742 C1743 1.362 . S
C1743 H1733 0.930 . S
C1743 C1736 1.409 . S
C1743 C1742 1.362 . S
H1744 C1750 0.930 . S
H1745 C1753 0.930 . S
H1746 C1754 0.930 . S
H1747 C1755 0.930 . S
H1748 C1758 0.930 . S
H1749 C1759 0.930 . S
C1750 H1744 0.930 . S
C1750 C1751 1.355 . S
C1750 C1752 1.415 . S
C1751 C1750 1.355 . S
C1751 C1753 1.419 . S
C1752 C1750 1.415 . S
C1752 C1757 1.425 . S
C1752 C1759 1.409 . S
C1753 H1745 0.930 . S
C1753 C1751 1.419 . S
C1753 C1754 1.362 . S
C1754 H1746 0.930 . S
C1754 C1753 1.362 . S
C1754 C1757 1.409 . S
C1755 H1747 0.930 . S
C1755 C1756 1.355 . S
C1755 C1757 1.415 . S
C1756 C1755 1.355 . S
C1756 C1758 1.419 . S
C1757 C1752 1.425 . S
C1757 C1754 1.409 . S
C1757 C1755 1.415 . S
C1758 H1748 0.930 . S
C1758 C1756 1.419 . S
C1758 C1759 1.362 . S
C1759 H1749 0.930 . S
C1759 C1752 1.409 . S
C1759 C1758 1.362 . S
H1760 C1766 0.930 . S
H1761 C1769 0.930 . S
H1762 C1770 0.930 . S
H1763 C1771 0.930 . S
H1764 C1774 0.930 . S
H1765 C1775 0.930 . S
C1766 H1760 0.930 . S
C1766 C1767 1.355 . S
C1766 C1768 1.415 . S
C1767 C1766 1.355 . S
C1767 C1769 1.419 . S
C1768 C1766 1.415 . S
C1768 C1773 1.425 . S
C1768 C1775 1.409 . S
C1769 H1761 0.930 . S
C1769 C1767 1.419 . S
C1769 C1770 1.362 . S
C1770 H1762 0.930 . S
C1770 C1769 1.362 . S
C1770 C1773 1.409 . S
C1771 H1763 0.930 . S
C1771 C1772 1.355 . S
C1771 C1773 1.415 . S
C1772 C1771 1.355 . S
C1772 C1774 1.419 . S
C1773 C1768 1.425 . S
C1773 C1770 1.409 . S
C1773 C1771 1.415 . S
C1774 H1764 0.930 . S
C1774 C1772 1.419 . S
C1774 C1775 1.362 . S
C1775 H1765 0.930 . S
C1775 C1768 1.409 . S
C1775 C1774 1.362 . S
H1776 C1782 0.930 . S
H1777 C1785 0.930 . S
H1778 C1786 0.930 . S
H1779 C1787 0.930 . S
H1780 C1790 0.930 . S
H1781 C1791 0.930 . S
C1782 H1776 0.930 . S
C1782 C1783 1.355 . S
C1782 C1784 1.415 1_455 S
C1783 C1782 1.355 . S
C1783 C1785 1.419 1_455 S
C1784 C1782 1.415 1_655 S
C1784 C1789 1.425 . S
C1784 C1791 1.409 . S
C1785 H1777 0.930 . S
C1785 C1783 1.419 1_655 S
C1785 C1786 1.362 . S
C1786 H1778 0.930 . S
C1786 C1785 1.362 . S
C1786 C1789 1.409 . S
C1787 H1779 0.930 . S
C1787 C1788 1.355 . S
C1787 C1789 1.415 . S
C1788 C1787 1.355 . S
C1788 C1790 1.419 . S
C1789 C1784 1.425 . S
C1789 C1786 1.409 . S
C1789 C1787 1.415 . S
C1790 H1780 0.930 . S
C1790 C1788 1.419 . S
C1790 C1791 1.362 . S
C1791 H1781 0.930 . S
C1791 C1784 1.409 . S
C1791 C1790 1.362 . S
H1792 C1798 0.930 . S
H1793 C1801 0.930 . S
H1794 C1802 0.930 . S
H1795 C1803 0.930 . S
H1796 C1806 0.930 . S
H1797 C1807 0.930 . S
C1798 H1792 0.930 . S
C1798 C1799 1.355 . S
C1798 C1800 1.415 . S
C1799 C1798 1.355 . S
C1799 C1801 1.419 . S
C1800 C1798 1.415 . S
C1800 C1805 1.425 . S
C1800 C1807 1.409 . S
C1801 H1793 0.930 . S
C1801 C1799 1.419 . S
C1801 C1802 1.362 . S
C1802 H1794 0.930 . S
C1802 C1801 1.362 . S
C1802 C1805 1.409 . S
C1803 H1795 0.930 . S
C1803 C1804 1.355 . S
C1803 C1805 1.415 . S
C1804 C1803 1.355 . S
C1804 C1806 1.419 . S
C1805 C1800 1.425 . S
C1805 C1802 1.409 . S
C1805 C1803 1.415 . S
C1806 H1796 0.930 . S
C1806 C1804 1.419 . S
C1806 C1807 1.362 . S
C1807 H1797 0.930 . S
C1807 C1800 1.409 . S
C1807 C1806 1.362 . S
H1808 C1814 0.930 . S
H1809 C1817 0.930 . S
H1810 C1818 0.930 . S
H1811 C1819 0.930 . S
H1812 C1822 0.930 . S
H1813 C1823 0.930 . S
C1814 H1808 0.930 . S
C1814 C1815 1.355 . S
C1814 C1816 1.415 . S
C1815 C1814 1.355 . S
C1815 C1817 1.419 . S
C1816 C1814 1.415 . S
C1816 C1821 1.425 . S
C1816 C1823 1.409 . S
C1817 H1809 0.930 . S
C1817 C1815 1.419 . S
C1817 C1818 1.362 . S
C1818 H1810 0.930 . S
C1818 C1817 1.362 . S
C1818 C1821 1.409 . S
C1819 H1811 0.930 . S
C1819 C1820 1.355 . S
C1819 C1821 1.415 . S
C1820 C1819 1.355 . S
C1820 C1822 1.419 . S
C1821 C1816 1.425 . S
C1821 C1818 1.409 . S
C1821 C1819 1.415 . S
C1822 H1812 0.930 . S
C1822 C1820 1.419 . S
C1822 C1823 1.362 . S
C1823 H1813 0.930 . S
C1823 C1816 1.409 . S
C1823 C1822 1.362 . S
H1824 C1830 0.930 . S
H1825 C1833 0.930 . S
H1826 C1834 0.930 . S
H1827 C1835 0.930 . S
H1828 C1838 0.930 . S
H1829 C1839 0.930 . S
C1830 H1824 0.930 . S
C1830 C1831 1.355 . S
C1830 C1832 1.415 . S
C1831 C1830 1.355 . S
C1831 C1833 1.419 . S
C1832 C1830 1.415 . S
C1832 C1837 1.425 . S
C1832 C1839 1.409 . S
C1833 H1825 0.930 . S
C1833 C1831 1.419 . S
C1833 C1834 1.362 . S
C1834 H1826 0.930 . S
C1834 C1833 1.362 . S
C1834 C1837 1.409 . S
C1835 H1827 0.930 . S
C1835 C1836 1.355 . S
C1835 C1837 1.415 . S
C1836 C1835 1.355 . S
C1836 C1838 1.419 . S
C1837 C1832 1.425 . S
C1837 C1834 1.409 . S
C1837 C1835 1.415 . S
C1838 H1828 0.930 . S
C1838 C1836 1.419 . S
C1838 C1839 1.362 . S
C1839 H1829 0.930 . S
C1839 C1832 1.409 . S
C1839 C1838 1.362 . S
H1840 C1846 0.930 . S
H1841 C1849 0.930 . S
H1842 C1850 0.930 . S
H1843 C1851 0.930 . S
H1844 C1854 0.949 . S
H1845 C1855 0.930 . S
C1846 H1840 0.930 . S
C1846 C1847 1.355 . S
C1846 C1848 1.415 . S
C1847 C1846 1.355 . S
C1847 C1849 1.419 . S
C1848 C1846 1.415 . S
C1848 C1853 1.425 . S
C1848 C1855 1.409 . S
C1849 H1841 0.930 . S
C1849 C1847 1.419 . S
C1849 C1850 1.362 . S
C1850 H1842 0.930 . S
C1850 C1849 1.362 . S
C1850 C1853 1.409 . S
C1851 H1843 0.930 . S
C1851 C1852 1.355 . S
C1851 C1853 1.415 1_545 S
C1852 C1851 1.355 . S
C1852 C1854 1.440 . S
C1853 C1848 1.425 . S
C1853 C1850 1.409 . S
C1853 C1851 1.415 1_565 S
C1854 H1844 0.949 . S
C1854 C1852 1.440 . S
C1854 C1855 1.324 1_545 S
C1855 H1845 0.930 . S
C1855 C1848 1.409 . S
C1855 C1854 1.324 1_565 S
H1856 C1862 0.930 . S
H1857 C1865 0.930 . S
H1858 C1866 0.930 . S
H1859 C1867 0.930 . S
H1860 C1870 0.930 . S
H1861 C1871 0.930 . S
C1862 H1856 0.930 . S
C1862 C1863 1.355 . S
C1862 C1864 1.415 . S
C1863 C1862 1.355 . S
C1863 C1865 1.419 . S
C1864 C1862 1.415 . S
C1864 C1869 1.425 . S
C1864 C1871 1.409 . S
C1865 H1857 0.930 . S
C1865 C1863 1.419 . S
C1865 C1866 1.362 . S
C1866 H1858 0.930 . S
C1866 C1865 1.362 . S
C1866 C1869 1.409 . S
C1867 H1859 0.930 . S
C1867 C1868 1.355 . S
C1867 C1869 1.415 . S
C1868 C1867 1.355 . S
C1868 C1870 1.419 . S
C1869 C1864 1.425 . S
C1869 C1866 1.409 . S
C1869 C1867 1.415 . S
C1870 H1860 0.930 . S
C1870 C1868 1.419 . S
C1870 C1871 1.362 . S
C1871 H1861 0.930 . S
C1871 C1864 1.409 . S
C1871 C1870 1.362 . S
H1872 C1878 0.930 . S
H1873 C1881 0.930 . S
H1874 C1882 0.930 . S
H1875 C1883 0.930 . S
H1876 C1886 0.930 . S
H1877 C1887 0.930 . S
C1878 H1872 0.930 . S
C1878 C1879 1.355 . S
C1878 C1880 1.415 . S
C1879 C1878 1.355 . S
C1879 C1881 1.419 . S
C1880 C1878 1.415 . S
C1880 C1885 1.425 . S
C1880 C1887 1.409 . S
C1881 H1873 0.930 . S
C1881 C1879 1.419 . S
C1881 C1882 1.362 . S
C1882 H1874 0.930 . S
C1882 C1881 1.362 . S
C1882 C1885 1.409 . S
C1883 H1875 0.930 . S
C1883 C1884 1.355 . S
C1883 C1885 1.415 . S
C1884 C1883 1.355 . S
C1884 C1886 1.419 . S
C1885 C1880 1.425 . S
C1885 C1882 1.409 . S
C1885 C1883 1.415 . S
C1886 H1876 0.930 . S
C1886 C1884 1.419 . S
C1886 C1887 1.362 . S
C1887 H1877 0.930 . S
C1887 C1880 1.409 . S
C1887 C1886 1.362 . S
H1888 C1894 0.930 . S
H1889 C1897 0.930 . S
H1890 C1898 0.930 . S
H1891 C1899 0.930 . S
H1892 C1902 0.930 . S
H1893 C1903 0.930 . S
C1894 H1888 0.930 . S
C1894 C1895 1.355 . S
C1894 C1896 1.415 . S
C1895 C1894 1.355 . S
C1895 C1897 1.419 . S
C1896 C1894 1.415 . S
C1896 C1901 1.425 . S
C1896 C1903 1.409 . S
C1897 H1889 0.930 . S
C1897 C1895 1.419 . S
C1897 C1898 1.362 . S
C1898 H1890 0.930 . S
C1898 C1897 1.362 . S
C1898 C1901 1.409 . S
C1899 H1891 0.930 . S
C1899 C1900 1.355 . S
C1899 C1901 1.415 . S
C1900 C1899 1.355 . S
C1900 C1902 1.419 . S
C1901 C1896 1.425 . S
C1901 C1898 1.409 . S
C1901 C1899 1.415 . S
C1902 H1892 0.930 . S
C1902 C1900 1.419 . S
C1902 C1903 1.362 . S
C1903 H1893 0.930 . S
C1903 C1896 1.409 . S
C1903 C1902 1.362 . S
H1904 C1910 0.930 . S
H1905 C1913 0.930 . S
H1906 C1914 0.930 . S
H1907 C1915 0.930 . S
H1908 C1918 0.930 . S
H1909 C1919 0.930 . S
C1910 H1904 0.930 . S
C1910 C1911 1.355 . S
C1910 C1912 1.415 . S
C1911 C1910 1.355 . S
C1911 C1913 1.419 . S
C1912 C1910 1.415 . S
C1912 C1917 1.425 . S
C1912 C1919 1.409 . S
C1913 H1905 0.930 . S
C1913 C1911 1.419 . S
C1913 C1914 1.362 . S
C1914 H1906 0.930 . S
C1914 C1913 1.362 . S
C1914 C1917 1.409 . S
C1915 H1907 0.930 . S
C1915 C1916 1.355 . S
C1915 C1917 1.415 . S
C1916 C1915 1.355 . S
C1916 C1918 1.419 . S
C1917 C1912 1.425 . S
C1917 C1914 1.409 . S
C1917 C1915 1.415 . S
C1918 H1908 0.930 . S
C1918 C1916 1.419 . S
C1918 C1919 1.362 . S
C1919 H1909 0.930 . S
C1919 C1912 1.409 . S
C1919 C1918 1.362 . S
H1920 C1926 0.930 . S
H1921 C1929 0.930 . S
H1922 C1930 0.930 . S
H1923 C1931 0.930 . S
H1924 C1934 0.930 . S
H1925 C1935 0.930 . S
C1926 H1920 0.930 . S
C1926 C1927 1.355 1_545 S
C1926 C1928 1.415 . S
C1927 C1926 1.355 1_565 S
C1927 C1929 1.419 . S
C1928 C1926 1.415 . S
C1928 C1933 1.425 . S
C1928 C1935 1.409 . S
C1929 H1921 0.930 . S
C1929 C1927 1.419 . S
C1929 C1930 1.362 . S
C1930 H1922 0.930 . S
C1930 C1929 1.362 . S
C1930 C1933 1.409 1_565 S
C1931 H1923 0.930 . S
C1931 C1932 1.355 . S
C1931 C1933 1.415 . S
C1932 C1931 1.355 . S
C1932 C1934 1.419 . S
C1933 C1928 1.425 . S
C1933 C1930 1.409 1_545 S
C1933 C1931 1.415 . S
C1934 H1924 0.930 . S
C1934 C1932 1.419 . S
C1934 C1935 1.362 . S
C1935 H1925 0.930 . S
C1935 C1928 1.409 . S
C1935 C1934 1.362 . S
H1936 C1942 0.930 . S
H1937 C1945 0.930 . S
H1938 C1946 0.930 . S
H1939 C1947 0.930 . S
H1940 C1950 0.930 . S
H1941 C1951 0.930 . S
C1942 H1936 0.930 . S
C1942 C1943 1.355 . S
C1942 C1944 1.415 . S
C1943 C1942 1.355 . S
C1943 C1945 1.419 . S
C1944 C1942 1.415 . S
C1944 C1949 1.425 . S
C1944 C1951 1.409 . S
C1945 H1937 0.930 . S
C1945 C1943 1.419 . S
C1945 C1946 1.362 . S
C1946 H1938 0.930 . S
C1946 C1945 1.362 . S
C1946 C1949 1.409 . S
C1947 H1939 0.930 . S
C1947 C1948 1.355 . S
C1947 C1949 1.415 . S
C1948 C1947 1.355 . S
C1948 C1950 1.419 . S
C1949 C1944 1.425 . S
C1949 C1946 1.409 . S
C1949 C1947 1.415 . S
C1950 H1940 0.930 . S
C1950 C1948 1.419 . S
C1950 C1951 1.362 . S
C1951 H1941 0.930 . S
C1951 C1944 1.409 . S
C1951 C1950 1.362 . S
H1952 C1958 0.930 . S
H1953 C1961 0.930 . S
H1954 C1962 0.930 . S
H1955 C1963 0.930 . S
H1956 C1966 0.930 . S
H1957 C1967 0.930 . S
C1958 H1952 0.930 . S
C1958 C1959 1.355 . S
C1958 C1960 1.415 . S
C1959 C1958 1.355 . S
C1959 C1961 1.419 . S
C1960 C1958 1.415 . S
C1960 C1965 1.425 . S
C1960 C1967 1.409 . S
C1961 H1953 0.930 . S
C1961 C1959 1.419 . S
C1961 C1962 1.362 . S
C1962 H1954 0.930 . S
C1962 C1961 1.362 . S
C1962 C1965 1.409 . S
C1963 H1955 0.930 . S
C1963 C1964 1.355 . S
C1963 C1965 1.415 . S
C1964 C1963 1.355 . S
C1964 C1966 1.419 . S
C1965 C1960 1.425 . S
C1965 C1962 1.409 . S
C1965 C1963 1.415 . S
C1966 H1956 0.930 . S
C1966 C1964 1.419 . S
C1966 C1967 1.362 . S
C1967 H1957 0.930 . S
C1967 C1960 1.409 . S
C1967 C1966 1.362 . S
H1968 C1974 0.930 . S
H1969 C1977 0.930 . S
H1970 C1978 0.930 . S
H1971 C1979 0.930 1_556 S
H1972 C1982 0.930 . S
H1973 C1983 0.930 . S
C1974 H1968 0.930 . S
C1974 C1975 1.355 . S
C1974 C1976 1.415 . S
C1975 C1974 1.355 . S
C1975 C1977 1.419 . S
C1976 C1974 1.415 . S
C1976 C1981 1.425 . S
C1976 C1983 1.409 . S
C1977 H1969 0.930 . S
C1977 C1975 1.419 . S
C1977 C1978 1.362 . S
C1978 H1970 0.930 . S
C1978 C1977 1.362 . S
C1978 C1981 1.409 . S
C1979 H1971 0.930 1_554 S
C1979 C1980 1.350 1_554 S
C1979 C1981 1.415 . S
C1980 C1979 1.350 1_556 S
C1980 C1982 1.393 1_556 S
C1981 C1976 1.425 . S
C1981 C1978 1.409 . S
C1981 C1979 1.415 . S
C1982 H1972 0.930 . S
C1982 C1980 1.393 1_554 S
C1982 C1983 1.362 . S
C1983 H1973 0.930 . S
C1983 C1976 1.409 . S
C1983 C1982 1.362 . S
H1984 C1990 0.930 . S
H1985 C1993 0.930 . S
H1986 C1994 0.930 . S
H1987 C1995 0.930 . S
H1988 C1998 0.930 . S
H1989 C1999 0.930 . S
C1990 H1984 0.930 . S
C1990 C1991 1.355 . S
C1990 C1992 1.415 . S
C1991 C1990 1.355 . S
C1991 C1993 1.419 . S
C1992 C1990 1.415 . S
C1992 C1997 1.425 . S
C1992 C1999 1.409 . S
C1993 H1985 0.930 . S
C1993 C1991 1.419 . S
C1993 C1994 1.362 . S
C1994 H1986 0.930 . S
C1994 C1993 1.362 . S
C1994 C1997 1.409 . S
C1995 H1987 0.930 . S
C1995 C1996 1.355 . S
C1995 C1997 1.415 . S
C1996 C1995 1.355 . S
C1996 C1998 1.419 . S
C1997 C1992 1.425 . S
C1997 C1994 1.409 . S
C1997 C1995 1.415 . S
C1998 H1988 0.930 . S
C1998 C1996 1.419 . S
C1998 C1999 1.362 . S
C1999 H1989 0.930 . S
C1999 C1992 1.409 . S
C1999 C1998 1.362 . S
H2000 C2006 0.930 . S
H2001 C2009 0.930 . S
H2002 C2010 0.930 . S
H2003 C2011 0.930 . S
H2004 C2014 0.930 . S
H2005 C2015 0.930 . S
C2006 H2000 0.930 . S
C2006 C2007 1.355 . S
C2006 C2008 1.415 . S
C2007 C2006 1.355 . S
C2007 C2009 1.419 . S
C2008 C2006 1.415 . S
C2008 C2013 1.425 . S
C2008 C2015 1.409 . S
C2009 H2001 0.930 . S
C2009 C2007 1.419 . S
C2009 C2010 1.362 . S
C2010 H2002 0.930 . S
C2010 C2009 1.362 . S
C2010 C2013 1.409 . S
C2011 H2003 0.930 . S
C2011 C2012 1.355 . S
C2011 C2013 1.415 . S
C2012 C2011 1.355 . S
C2012 C2014 1.419 . S
C2013 C2008 1.425 . S
C2013 C2010 1.409 . S
C2013 C2011 1.415 . S
C2014 H2004 0.930 . S
C2014 C2012 1.419 . S
C2014 C2015 1.362 . S
C2015 H2005 0.930 . S
C2015 C2008 1.409 . S
C2015 C2014 1.362 . S
H2016 C2022 0.930 . S
H2017 C2025 0.930 . S
H2018 C2026 0.930 . S
H2019 C2027 0.930 . S
H2020 C2030 0.930 . S
H2021 C2031 0.930 . S
C2022 H2016 0.930 . S
C2022 C2023 1.355 . S
C2022 C2024 1.415 . S
C2023 C2022 1.355 . S
C2023 C2025 1.419 . S
C2024 C2022 1.415 . S
C2024 C2029 1.425 . S
C2024 C2031 1.409 . S
C2025 H2017 0.930 . S
C2025 C2023 1.419 . S
C2025 C2026 1.362 . S
C2026 H2018 0.930 . S
C2026 C2025 1.362 . S
C2026 C2029 1.409 . S
C2027 H2019 0.930 . S
C2027 C2028 1.355 . S
C2027 C2029 1.415 . S
C2028 C2027 1.355 . S
C2028 C2030 1.419 . S
C2029 C2024 1.425 . S
C2029 C2026 1.409 . S
C2029 C2027 1.415 . S
C2030 H2020 0.930 . S
C2030 C2028 1.419 . S
C2030 C2031 1.362 . S
C2031 H2021 0.930 . S
C2031 C2024 1.409 . S
C2031 C2030 1.362 . S
H2032 C2038 0.930 . S
H2033 C2041 0.930 . S
H2034 C2042 0.930 . S
H2035 C2043 0.930 . S
H2036 C2046 0.930 . S
H2037 C2047 0.930 . S
C2038 H2032 0.930 . S
C2038 C2039 1.355 . S
C2038 C2040 1.415 . S
C2039 C2038 1.355 . S
C2039 C2041 1.419 . S
C2040 C2038 1.415 . S
C2040 C2045 1.425 . S
C2040 C2047 1.409 . S
C2041 H2033 0.930 . S
C2041 C2039 1.419 . S
C2041 C2042 1.362 . S
C2042 H2034 0.930 . S
C2042 C2041 1.362 . S
C2042 C2045 1.409 . S
C2043 H2035 0.930 . S
C2043 C2044 1.355 . S
C2043 C2045 1.415 . S
C2044 C2043 1.355 . S
C2044 C2046 1.419 . S
C2045 C2040 1.425 . S
C2045 C2042 1.409 . S
C2045 C2043 1.415 . S
C2046 H2036 0.930 . S
C2046 C2044 1.419 . S
C2046 C2047 1.362 . S
C2047 H2037 0.930 . S
C2047 C2040 1.409 . S
C2047 C2046 1.362 . S
H2048 C2054 0.930 . S
H2049 C2057 0.930 . S
H2050 C2058 0.930 . S
H2051 C2059 0.930 . S
H2052 C2062 0.930 . S
H2053 C2063 0.930 . S
C2054 H2048 0.930 . S
C2054 C2055 1.355 . S
C2054 C2056 1.415 . S
C2055 C2054 1.355 . S
C2055 C2057 1.419 . S
C2056 C2054 1.415 . S
C2056 C2061 1.425 . S
C2056 C2063 1.409 . S
C2057 H2049 0.930 . S
C2057 C2055 1.419 . S
C2057 C2058 1.362 . S
C2058 H2050 0.930 . S
C2058 C2057 1.362 . S
C2058 C2061 1.409 . S
C2059 H2051 0.930 . S
C2059 C2060 1.355 . S
C2059 C2061 1.415 . S
C2060 C2059 1.355 . S
C2060 C2062 1.419 . S
C2061 C2056 1.425 . S
C2061 C2058 1.409 . S
C2061 C2059 1.415 . S
C2062 H2052 0.930 . S
C2062 C2060 1.419 . S
C2062 C2063 1.362 . S
C2063 H2053 0.930 . S
C2063 C2056 1.409 . S
C2063 C2062 1.362 . S
H2064 C2070 0.930 . S
H2065 C2073 0.930 . S
H2066 C2074 0.942 . S
H2067 C2075 0.930 . S
H2068 C2078 0.930 . S
H2069 C2079 0.930 . S
C2070 H2064 0.930 . S
C2070 C2071 1.355 . S
C2070 C2072 1.415 1_556 S
C2071 C2070 1.355 . S
C2071 C2073 1.419 . S
C2072 C2070 1.415 1_554 S
C2072 C2077 1.425 . S
C2072 C2079 1.409 . S
C2073 H2065 0.930 . S
C2073 C2071 1.419 . S
C2073 C2074 1.322 1_556 S
C2074 H2066 0.942 . S
C2074 C2073 1.322 1_554 S
C2074 C2077 1.439 . S
C2075 H2067 0.930 . S
C2075 C2076 1.355 . S
C2075 C2077 1.415 . S
C2076 C2075 1.355 . S
C2076 C2078 1.419 . S
C2077 C2072 1.425 . S
C2077 C2074 1.439 . S
C2077 C2075 1.415 . S
C2078 H2068 0.930 . S
C2078 C2076 1.419 . S
C2078 C2079 1.362 . S
C2079 H2069 0.930 . S
C2079 C2072 1.409 . S
C2079 C2078 1.362 . S
H2080 C2086 0.930 . S
H2081 C2089 0.930 . S
H2082 C2090 0.930 . S
H2083 C2091 0.930 . S
H2084 C2094 0.930 . S
H2085 C2095 0.930 . S
C2086 H2080 0.930 . S
C2086 C2087 1.355 . S
C2086 C2088 1.415 . S
C2087 C2086 1.355 . S
C2087 C2089 1.419 . S
C2088 C2086 1.415 . S
C2088 C2093 1.425 . S
C2088 C2095 1.409 . S
C2089 H2081 0.930 . S
C2089 C2087 1.419 . S
C2089 C2090 1.362 . S
C2090 H2082 0.930 . S
C2090 C2089 1.362 . S
C2090 C2093 1.409 . S
C2091 H2083 0.930 . S
C2091 C2092 1.355 . S
C2091 C2093 1.415 . S
C2092 C2091 1.355 . S
C2092 C2094 1.419 . S
C2093 C2088 1.425 . S
C2093 C2090 1.409 . S
C2093 C2091 1.415 . S
C2094 H2084 0.930 . S
C2094 C2092 1.419 . S
C2094 C2095 1.362 . S
C2095 H2085 0.930 . S
C2095 C2088 1.409 . S
C2095 C2094 1.362 . S
H2096 C2102 0.930 . S
H2097 C2105 0.930 . S
H2098 C2106 0.930 . S
H2099 C2107 0.930 . S
H2100 C2110 0.930 . S
H2101 C2111 0.930 . S
C2102 H2096 0.930 . S
C2102 C2103 1.355 . S
C2102 C2104 1.415 . S
C2103 C2102 1.355 . S
C2103 C2105 1.419 . S
C2104 C2102 1.415 . S
C2104 C2109 1.425 . S
C2104 C2111 1.409 . S
C2105 H2097 0.930 . S
C2105 C2103 1.419 . S
C2105 C2106 1.362 . S
C2106 H2098 0.930 . S
C2106 C2105 1.362 . S
C2106 C2109 1.409 . S
C2107 H2099 0.930 . S
C2107 C2108 1.355 . S
C2107 C2109 1.415 . S
C2108 C2107 1.355 . S
C2108 C2110 1.419 . S
C2109 C2104 1.425 . S
C2109 C2106 1.409 . S
C2109 C2107 1.415 . S
C2110 H2100 0.930 . S
C2110 C2108 1.419 . S
C2110 C2111 1.362 . S
C2111 H2101 0.930 . S
C2111 C2104 1.409 . S
C2111 C2110 1.362 . S
H2112 C2118 0.930 . S
H2113 C2121 0.930 . S
H2114 C2122 0.930 . S
H2115 C2123 0.930 . S
H2116 C2126 0.930 . S
H2117 C2127 0.930 . S
C2118 H2112 0.930 . S
C2118 C2119 1.355 . S
C2118 C2120 1.415 . S
C2119 C2118 1.355 . S
C2119 C2121 1.419 . S
C2120 C2118 1.415 . S
C2120 C2125 1.425 . S
C2120 C2127 1.409 . S
C2121 H2113 0.930 . S
C2121 C2119 1.419 . S
C2121 C2122 1.362 . S
C2122 H2114 0.930 . S
C2122 C2121 1.362 . S
C2122 C2125 1.409 . S
C2123 H2115 0.930 . S
C2123 C2124 1.355 . S
C2123 C2125 1.415 . S
C2124 C2123 1.355 . S
C2124 C2126 1.419 . S
C2125 C2120 1.425 . S
C2125 C2122 1.409 . S
C2125 C2123 1.415 . S
C2126 H2116 0.930 . S
C2126 C2124 1.419 . S
C2126 C2127 1.362 . S
C2127 H2117 0.930 . S
C2127 C2120 1.409 . S
C2127 C2126 1.362 . S
H2128 C2134 0.930 . S
H2129 C2137 0.930 . S
H2130 C2138 0.930 . S
H2131 C2139 0.930 . S
H2132 C2142 0.930 . S
H2133 C2143 0.930 . S
C2134 H2128 0.930 . S
C2134 C2135 1.355 . S
C2134 C2136 1.415 . S
C2135 C2134 1.355 . S
C2135 C2137 1.419 . S
C2136 C2134 1.415 . S
C2136 C2141 1.425 . S
C2136 C2143 1.409 . S
C2137 H2129 0.930 . S
C2137 C2135 1.419 . S
C2137 C2138 1.362 . S
C2138 H2130 0.930 . S
C2138 C2137 1.362 . S
C2138 C2141 1.409 . S
C2139 H2131 0.930 . S
C2139 C2140 1.355 . S
C2139 C2141 1.415 . S
C2140 C2139 1.355 . S
C2140 C2142 1.419 . S
C2141 C2136 1.425 . S
C2141 C2138 1.409 . S
C2141 C2139 1.415 . S
C2142 H2132 0.930 . S
C2142 C2140 1.419 . S
C2142 C2143 1.362 . S
C2143 H2133 0.930 . S
C2143 C2136 1.409 . S
C2143 C2142 1.362 . S
H2144 C2150 0.930 . S
H2145 C2153 0.930 . S
H2146 C2154 0.930 . S
H2147 C2155 0.930 . S
H2148 C2158 0.930 . S
H2149 C2159 0.930 . S
C2150 H2144 0.930 . S
C2150 C2151 1.355 . S
C2150 C2152 1.415 . S
C2151 C2150 1.355 . S
C2151 C2153 1.419 . S
C2152 C2150 1.415 . S
C2152 C2157 1.425 . S
C2152 C2159 1.409 . S
C2153 H2145 0.930 . S
C2153 C2151 1.419 . S
C2153 C2154 1.362 . S
C2154 H2146 0.930 . S
C2154 C2153 1.362 . S
C2154 C2157 1.409 . S
C2155 H2147 0.930 . S
C2155 C2156 1.355 . S
C2155 C2157 1.415 . S
C2156 C2155 1.355 . S
C2156 C2158 1.419 . S
C2157 C2152 1.425 . S
C2157 C2154 1.409 . S
C2157 C2155 1.415 . S
C2158 H2148 0.930 . S
C2158 C2156 1.419 . S
C2158 C2159 1.362 . S
C2159 H2149 0.930 . S
C2159 C2152 1.409 . S
C2159 C2158 1.362 . S
H2160 C2166 0.930 . S
H2161 C2169 0.930 . S
H2162 C2170 0.930 . S
H2163 C2171 0.930 . S
H2164 C2174 0.930 . S
H2165 C2175 0.930 . S
C2166 H2160 0.930 . S
C2166 C2167 1.355 1_455 S
C2166 C2168 1.415 . S
C2167 C2166 1.355 1_655 S
C2167 C2169 1.419 . S
C2168 C2166 1.415 . S
C2168 C2173 1.425 . S
C2168 C2175 1.409 . S
C2169 H2161 0.930 . S
C2169 C2167 1.419 . S
C2169 C2170 1.362 . S
C2170 H2162 0.930 . S
C2170 C2169 1.362 . S
C2170 C2173 1.409 1_655 S
C2171 H2163 0.930 . S
C2171 C2172 1.355 . S
C2171 C2173 1.415 . S
C2172 C2171 1.355 . S
C2172 C2174 1.419 . S
C2173 C2168 1.425 . S
C2173 C2170 1.409 1_455 S
C2173 C2171 1.415 . S
C2174 H2164 0.930 . S
C2174 C2172 1.419 . S
C2174 C2175 1.362 . S
C2175 H2165 0.930 . S
C2175 C2168 1.409 . S
C2175 C2174 1.362 . S
H2176 C2182 0.930 . S
H2177 C2185 0.930 . S
H2178 C2186 0.930 . S
H2179 C2187 0.930 . S
H2180 C2190 0.930 . S
H2181 C2191 0.930 . S
C2182 H2176 0.930 . S
C2182 C2183 1.355 . S
C2182 C2184 1.415 . S
C2183 C2182 1.355 . S
C2183 C2185 1.419 . S
C2184 C2182 1.415 . S
C2184 C2189 1.425 . S
C2184 C2191 1.409 . S
C2185 H2177 0.930 . S
C2185 C2183 1.419 . S
C2185 C2186 1.362 . S
C2186 H2178 0.930 . S
C2186 C2185 1.362 . S
C2186 C2189 1.409 . S
C2187 H2179 0.930 . S
C2187 C2188 1.355 . S
C2187 C2189 1.415 . S
C2188 C2187 1.355 . S
C2188 C2190 1.419 . S
C2189 C2184 1.425 . S
C2189 C2186 1.409 . S
C2189 C2187 1.415 . S
C2190 H2180 0.930 . S
C2190 C2188 1.419 . S
C2190 C2191 1.362 . S
C2191 H2181 0.930 . S
C2191 C2184 1.409 . S
C2191 C2190 1.362 . S
H2192 C2198 0.930 . S
H2193 C2201 0.930 . S
H2194 C2202 0.930 . S
H2195 C2203 0.930 . S
H2196 C2206 0.930 . S
H2197 C2207 0.930 . S
C2198 H2192 0.930 . S
C2198 C2199 1.355 . S
C2198 C2200 1.415 . S
C2199 C2198 1.355 . S
C2199 C2201 1.419 . S
C2200 C2198 1.415 . S
C2200 C2205 1.425 . S
C2200 C2207 1.409 . S
C2201 H2193 0.930 . S
C2201 C2199 1.419 . S
C2201 C2202 1.362 . S
C2202 H2194 0.930 . S
C2202 C2201 1.362 . S
C2202 C2205 1.409 . S
C2203 H2195 0.930 . S
C2203 C2204 1.355 . S
C2203 C2205 1.415 . S
C2204 C2203 1.355 . S
C2204 C2206 1.419 . S
C2205 C2200 1.425 . S
C2205 C2202 1.409 . S
C2205 C2203 1.415 . S
C2206 H2196 0.930 . S
C2206 C2204 1.419 . S
C2206 C2207 1.362 . S
C2207 H2197 0.930 . S
C2207 C2200 1.409 . S
C2207 C2206 1.362 . S
H2208 C2214 0.930 . S
H2209 C2217 0.930 . S
H2210 C2218 0.930 . S
H2211 C2219 0.930 . S
H2212 C2222 0.930 . S
H2213 C2223 0.930 . S
C2214 H2208 0.930 . S
C2214 C2215 1.355 . S
C2214 C2216 1.415 . S
C2215 C2214 1.355 . S
C2215 C2217 1.419 . S
C2216 C2214 1.415 . S
C2216 C2221 1.425 . S
C2216 C2223 1.409 . S
C2217 H2209 0.930 . S
C2217 C2215 1.419 . S
C2217 C2218 1.362 . S
C2218 H2210 0.930 . S
C2218 C2217 1.362 . S
C2218 C2221 1.409 . S
C2219 H2211 0.930 . S
C2219 C2220 1.355 . S
C2219 C2221 1.415 . S
C2220 C2219 1.355 . S
C2220 C2222 1.419 . S
C2221 C2216 1.425 . S
C2221 C2218 1.409 . S
C2221 C2219 1.415 . S
C2222 H2212 0.930 . S
C2222 C2220 1.419 . S
C2222 C2223 1.362 . S
C2223 H2213 0.930 . S
C2223 C2216 1.409 . S
C2223 C2222 1.362 . S
H2224 C2230 0.930 . S
H2225 C2233 0.930 . S
H2226 C2234 0.930 . S
H2227 C2235 0.930 . S
H2228 C2238 0.930 . S
H2229 C2239 0.930 . S
C2230 H2224 0.930 . S
C2230 C2231 1.355 . S
C2230 C2232 1.415 . S
C2231 C2230 1.355 . S
C2231 C2233 1.419 . S
C2232 C2230 1.415 . S
C2232 C2237 1.425 . S
C2232 C2239 1.409 . S
C2233 H2225 0.930 . S
C2233 C2231 1.419 . S
C2233 C2234 1.362 . S
C2234 H2226 0.930 . S
C2234 C2233 1.362 . S
C2234 C2237 1.409 . S
C2235 H2227 0.930 . S
C2235 C2236 1.355 . S
C2235 C2237 1.415 1_565 S
C2236 C2235 1.355 . S
C2236 C2238 1.419 . S
C2237 C2232 1.425 . S
C2237 C2234 1.409 . S
C2237 C2235 1.415 1_545 S
C2238 H2228 0.930 . S
C2238 C2236 1.419 . S
C2238 C2239 1.362 1_565 S
C2239 H2229 0.930 . S
C2239 C2232 1.409 . S
C2239 C2238 1.362 1_545 S
H2240 C2246 0.930 . S
H2241 C2249 0.930 . S
H2242 C2250 0.930 . S
H2243 C2251 0.930 . S
H2244 C2254 0.930 . S
H2245 C2255 0.930 . S
C2246 H2240 0.930 . S
C2246 C2247 1.355 . S
C2246 C2248 1.415 . S
C2247 C2246 1.355 . S
C2247 C2249 1.419 . S
C2248 C2246 1.415 . S
C2248 C2253 1.425 . S
C2248 C2255 1.409 . S
C2249 H2241 0.930 . S
C2249 C2247 1.419 . S
C2249 C2250 1.362 . S
C2250 H2242 0.930 . S
C2250 C2249 1.362 . S
C2250 C2253 1.409 . S
C2251 H2243 0.930 . S
C2251 C2252 1.355 . S
C2251 C2253 1.415 . S
C2252 C2251 1.355 . S
C2252 C2254 1.419 . S
C2253 C2248 1.425 . S
C2253 C2250 1.409 . S
C2253 C2251 1.415 . S
C2254 H2244 0.930 . S
C2254 C2252 1.419 . S
C2254 C2255 1.362 . S
C2255 H2245 0.930 . S
C2255 C2248 1.409 . S
C2255 C2254 1.362 . S
H2256 C2262 0.930 . S
H2257 C2265 0.930 . S
H2258 C2266 0.930 . S
H2259 C2267 0.930 . S
H2260 C2270 0.930 . S
H2261 C2271 0.930 . S
C2262 H2256 0.930 . S
C2262 C2263 1.355 . S
C2262 C2264 1.415 . S
C2263 C2262 1.355 . S
C2263 C2265 1.419 . S
C2264 C2262 1.415 . S
C2264 C2269 1.425 . S
C2264 C2271 1.409 . S
C2265 H2257 0.930 . S
C2265 C2263 1.419 . S
C2265 C2266 1.362 . S
C2266 H2258 0.930 . S
C2266 C2265 1.362 . S
C2266 C2269 1.409 . S
C2267 H2259 0.930 . S
C2267 C2268 1.355 . S
C2267 C2269 1.415 . S
C2268 C2267 1.355 . S
C2268 C2270 1.419 . S
C2269 C2264 1.425 . S
C2269 C2266 1.409 . S
C2269 C2267 1.415 . S
C2270 H2260 0.930 . S
C2270 C2268 1.419 . S
C2270 C2271 1.362 . S
C2271 H2261 0.930 . S
C2271 C2264 1.409 . S
C2271 C2270 1.362 . S
H2272 C2278 0.930 . S
H2273 C2281 0.930 . S
H2274 C2282 0.930 . S
H2275 C2283 0.930 . S
H2276 C2286 0.930 . S
H2277 C2287 0.930 . S
C2278 H2272 0.930 . S
C2278 C2279 1.355 . S
C2278 C2280 1.415 . S
C2279 C2278 1.355 . S
C2279 C2281 1.419 . S
C2280 C2278 1.415 . S
C2280 C2285 1.425 . S
C2280 C2287 1.409 . S
C2281 H2273 0.930 . S
C2281 C2279 1.419 . S
C2281 C2282 1.362 . S
C2282 H2274 0.930 . S
C2282 C2281 1.362 . S
C2282 C2285 1.409 . S
C2283 H2275 0.930 . S
C2283 C2284 1.355 . S
C2283 C2285 1.415 . S
C2284 C2283 1.355 . S
C2284 C2286 1.419 . S
C2285 C2280 1.425 . S
C2285 C2282 1.409 . S
C2285 C2283 1.415 . S
C2286 H2276 0.930 . S
C2286 C2284 1.419 . S
C2286 C2287 1.362 . S
C2287 H2277 0.930 . S
C2287 C2280 1.409 . S
C2287 C2286 1.362 . S
H2288 C2294 0.930 . S
H2289 C2297 0.930 . S
H2290 C2298 0.930 . S
H2291 C2299 0.930 . S
H2292 C2302 0.930 . S
H2293 C2303 0.930 . S
C2294 H2288 0.930 . S
C2294 C2295 1.355 . S
C2294 C2296 1.415 . S
C2295 C2294 1.355 . S
C2295 C2297 1.419 . S
C2296 C2294 1.415 . S
C2296 C2301 1.425 . S
C2296 C2303 1.409 . S
C2297 H2289 0.930 . S
C2297 C2295 1.419 . S
C2297 C2298 1.362 . S
C2298 H2290 0.930 . S
C2298 C2297 1.362 . S
C2298 C2301 1.409 . S
C2299 H2291 0.930 . S
C2299 C2300 1.355 . S
C2299 C2301 1.415 . S
C2300 C2299 1.355 . S
C2300 C2302 1.419 . S
C2301 C2296 1.425 . S
C2301 C2298 1.409 . S
C2301 C2299 1.415 . S
C2302 H2292 0.930 . S
C2302 C2300 1.419 . S
C2302 C2303 1.362 . S
C2303 H2293 0.930 . S
C2303 C2296 1.409 . S
C2303 C2302 1.362 . S
H2304 C2310 0.930 . S
H2305 C2313 0.930 . S
H2306 C2314 0.930 . S
H2307 C2315 0.930 . S
H2308 C2318 0.930 . S
H2309 C2319 0.930 . S
C2310 H2304 0.930 . S
C2310 C2311 1.355 . S
C2310 C2312 1.415 . S
C2311 C2310 1.355 . S
C2311 C2313 1.419 . S
C2312 C2310 1.415 . S
C2312 C2317 1.425 . S
C2312 C2319 1.409 1_565 S
C2313 H2305 0.930 . S
C2313 C2311 1.419 . S
C2313 C2314 1.362 . S
C2314 H2306 0.930 . S
C2314 C2313 1.362 . S
C2314 C2317 1.409 . S
C2315 H2307 0.930 . S
C2315 C2316 1.355 1_565 S
C2315 C2317 1.415 . S
C2316 C2315 1.355 1_545 S
C2316 C2318 1.419 . S
C2317 C2312 1.425 . S
C2317 C2314 1.409 . S
C2317 C2315 1.415 . S
C2318 H2308 0.930 . S
C2318 C2316 1.419 . S
C2318 C2319 1.362 . S
C2319 H2309 0.930 . S
C2319 C2312 1.409 1_545 S
C2319 C2318 1.362 . S
H2320 C2326 0.930 . S
H2321 C2329 0.930 . S
H2322 C2330 0.930 . S
H2323 C2331 0.930 . S
H2324 C2334 0.930 . S
H2325 C2335 0.930 . S
C2326 H2320 0.930 . S
C2326 C2327 1.355 . S
C2326 C2328 1.415 . S
C2327 C2326 1.355 . S
C2327 C2329 1.419 . S
C2328 C2326 1.415 . S
C2328 C2333 1.425 . S
C2328 C2335 1.409 . S
C2329 H2321 0.930 . S
C2329 C2327 1.419 . S
C2329 C2330 1.362 . S
C2330 H2322 0.930 . S
C2330 C2329 1.362 . S
C2330 C2333 1.409 . S
C2331 H2323 0.930 . S
C2331 C2332 1.355 . S
C2331 C2333 1.415 . S
C2332 C2331 1.355 . S
C2332 C2334 1.419 . S
C2333 C2328 1.425 . S
C2333 C2330 1.409 . S
C2333 C2331 1.415 . S
C2334 H2324 0.930 . S
C2334 C2332 1.419 . S
C2334 C2335 1.362 . S
C2335 H2325 0.930 . S
C2335 C2328 1.409 . S
C2335 C2334 1.362 . S
H2336 C2342 0.930 . S
H2337 C2345 0.930 . S
H2338 C2346 0.930 . S
H2339 C2347 0.930 . S
H2340 C2350 0.930 . S
H2341 C2351 0.930 . S
C2342 H2336 0.930 . S
C2342 C2343 1.355 . S
C2342 C2344 1.415 . S
C2343 C2342 1.355 . S
C2343 C2345 1.419 . S
C2344 C2342 1.415 . S
C2344 C2349 1.425 . S
C2344 C2351 1.409 . S
C2345 H2337 0.930 . S
C2345 C2343 1.419 . S
C2345 C2346 1.362 . S
C2346 H2338 0.930 . S
C2346 C2345 1.362 . S
C2346 C2349 1.409 . S
C2347 H2339 0.930 . S
C2347 C2348 1.355 . S
C2347 C2349 1.415 . S
C2348 C2347 1.355 . S
C2348 C2350 1.419 . S
C2349 C2344 1.425 . S
C2349 C2346 1.409 . S
C2349 C2347 1.415 . S
C2350 H2340 0.930 . S
C2350 C2348 1.419 . S
C2350 C2351 1.362 . S
C2351 H2341 0.930 . S
C2351 C2344 1.409 . S
C2351 C2350 1.362 . S
H2352 C2358 0.930 . S
H2353 C2361 0.930 . S
H2354 C2362 0.930 . S
H2355 C2363 0.930 . S
H2356 C2366 0.930 . S
H2357 C2367 0.930 . S
C2358 H2352 0.930 . S
C2358 C2359 1.355 . S
C2358 C2360 1.415 . S
C2359 C2358 1.355 . S
C2359 C2361 1.419 . S
C2360 C2358 1.415 . S
C2360 C2365 1.425 . S
C2360 C2367 1.409 . S
C2361 H2353 0.930 . S
C2361 C2359 1.419 . S
C2361 C2362 1.362 . S
C2362 H2354 0.930 . S
C2362 C2361 1.362 . S
C2362 C2365 1.409 . S
C2363 H2355 0.930 . S
C2363 C2364 1.355 . S
C2363 C2365 1.415 . S
C2364 C2363 1.355 . S
C2364 C2366 1.419 . S
C2365 C2360 1.425 . S
C2365 C2362 1.409 . S
C2365 C2363 1.415 . S
C2366 H2356 0.930 . S
C2366 C2364 1.419 . S
C2366 C2367 1.362 . S
C2367 H2357 0.930 . S
C2367 C2360 1.409 . S
C2367 C2366 1.362 . S
H2368 C2374 0.930 . S
H2369 C2377 0.930 . S
H2370 C2378 0.930 . S
H2371 C2379 0.930 . S
H2372 C2382 0.930 . S
H2373 C2383 0.930 . S
C2374 H2368 0.930 . S
C2374 C2375 1.355 . S
C2374 C2376 1.415 . S
C2375 C2374 1.355 . S
C2375 C2377 1.419 . S
C2376 C2374 1.415 . S
C2376 C2381 1.425 . S
C2376 C2383 1.409 . S
C2377 H2369 0.930 . S
C2377 C2375 1.419 . S
C2377 C2378 1.362 . S
C2378 H2370 0.930 . S
C2378 C2377 1.362 . S
C2378 C2381 1.409 . S
C2379 H2371 0.930 . S
C2379 C2380 1.355 . S
C2379 C2381 1.415 . S
C2380 C2379 1.355 . S
C2380 C2382 1.419 . S
C2381 C2376 1.425 . S
C2381 C2378 1.409 . S
C2381 C2379 1.415 . S
C2382 H2372 0.930 . S
C2382 C2380 1.419 . S
C2382 C2383 1.362 . S
C2383 H2373 0.930 . S
C2383 C2376 1.409 . S
C2383 C2382 1.362 . S
H2384 C2390 0.930 . S
H2385 C2393 0.930 . S
H2386 C2394 0.930 . S
H2387 C2395 0.930 . S
H2388 C2398 0.930 . S
H2389 C2399 0.930 . S
C2390 H2384 0.930 . S
C2390 C2391 1.355 . S
C2390 C2392 1.415 1_554 S
C2391 C2390 1.355 . S
C2391 C2393 1.419 . S
C2392 C2390 1.415 1_556 S
C2392 C2397 1.425 . S
C2392 C2399 1.409 . S
C2393 H2385 0.930 . S
C2393 C2391 1.419 . S
C2393 C2394 1.362 1_554 S
C2394 H2386 0.930 . S
C2394 C2393 1.362 1_556 S
C2394 C2397 1.409 . S
C2395 H2387 0.930 . S
C2395 C2396 1.355 . S
C2395 C2397 1.415 . S
C2396 C2395 1.355 . S
C2396 C2398 1.419 . S
C2397 C2392 1.425 . S
C2397 C2394 1.409 . S
C2397 C2395 1.415 . S
C2398 H2388 0.930 . S
C2398 C2396 1.419 . S
C2398 C2399 1.362 . S
C2399 H2389 0.930 . S
C2399 C2392 1.409 . S
C2399 C2398 1.362 . S
H2400 C2406 0.930 . S
H2401 C2409 0.930 . S
H2402 C2410 0.930 . S
H2403 C2411 0.930 . S
H2404 C2414 0.930 . S
H2405 C2415 0.930 . S
C2406 H2400 0.930 . S
C2406 C2407 1.355 . S
C2406 C2408 1.415 . S
C2407 C2406 1.355 . S
C2407 C2409 1.419 . S
C2408 C2406 1.415 . S
C2408 C2413 1.425 . S
C2408 C2415 1.409 . S
C2409 H2401 0.930 . S
C2409 C2407 1.419 . S
C2409 C2410 1.362 . S
C2410 H2402 0.930 . S
C2410 C2409 1.362 . S
C2410 C2413 1.409 . S
C2411 H2403 0.930 . S
C2411 C2412 1.355 . S
C2411 C2413 1.415 . S
C2412 C2411 1.355 . S
C2412 C2414 1.419 . S
C2413 C2408 1.425 . S
C2413 C2410 1.409 . S
C2413 C2411 1.415 . S
C2414 H2404 0.930 . S
C2414 C2412 1.419 . S
C2414 C2415 1.362 . S
C2415 H2405 0.930 . S
C2415 C2408 1.409 . S
C2415 C2414 1.362 . S
H2416 C2422 0.930 . S
H2417 C2425 0.930 . S
H2418 C2426 0.930 . S
H2419 C2427 0.930 . S
H2420 C2430 0.930 . S
H2421 C2431 0.930 . S
C2422 H2416 0.930 . S
C2422 C2423 1.355 . S
C2422 C2424 1.415 1_556 S
C2423 C2422 1.355 . S
C2423 C2425 1.419 . S
C2424 C2422 1.415 1_554 S
C2424 C2429 1.425 . S
C2424 C2431 1.409 . S
C2425 H2417 0.930 . S
C2425 C2423 1.419 . S
C2425 C2426 1.362 . S
C2426 H2418 0.930 . S
C2426 C2425 1.362 . S
C2426 C2429 1.409 1_556 S
C2427 H2419 0.930 . S
C2427 C2428 1.355 . S
C2427 C2429 1.415 . S
C2428 C2427 1.355 . S
C2428 C2430 1.419 . S
C2429 C2424 1.425 . S
C2429 C2426 1.409 1_554 S
C2429 C2427 1.415 . S
C2430 H2420 0.930 . S
C2430 C2428 1.419 . S
C2430 C2431 1.362 . S
C2431 H2421 0.930 . S
C2431 C2424 1.409 . S
C2431 C2430 1.362 . S
H2432 C2438 0.930 . S
H2433 C2441 0.930 . S
H2434 C2442 0.930 . S
H2435 C2443 0.930 . S
H2436 C2446 0.930 . S
H2437 C2447 0.930 . S
C2438 H2432 0.930 . S
C2438 C2439 1.355 . S
C2438 C2440 1.415 . S
C2439 C2438 1.355 . S
C2439 C2441 1.419 . S
C2440 C2438 1.415 . S
C2440 C2445 1.425 . S
C2440 C2447 1.409 . S
C2441 H2433 0.930 . S
C2441 C2439 1.419 . S
C2441 C2442 1.362 . S
C2442 H2434 0.930 . S
C2442 C2441 1.362 . S
C2442 C2445 1.409 . S
C2443 H2435 0.930 . S
C2443 C2444 1.355 . S
C2443 C2445 1.415 . S
C2444 C2443 1.355 . S
C2444 C2446 1.419 . S
C2445 C2440 1.425 . S
C2445 C2442 1.409 . S
C2445 C2443 1.415 . S
C2446 H2436 0.930 . S
C2446 C2444 1.419 . S
C2446 C2447 1.362 . S
C2447 H2437 0.930 . S
C2447 C2440 1.409 . S
C2447 C2446 1.362 . S
H2448 C2454 0.930 . S
H2449 C2457 0.930 . S
H2450 C2458 0.930 . S
H2451 C2459 0.930 . S
H2452 C2462 0.930 . S
H2453 C2463 0.930 . S
C2454 H2448 0.930 . S
C2454 C2455 1.355 . S
C2454 C2456 1.415 . S
C2455 C2454 1.355 . S
C2455 C2457 1.419 . S
C2456 C2454 1.415 . S
C2456 C2461 1.425 . S
C2456 C2463 1.409 . S
C2457 H2449 0.930 . S
C2457 C2455 1.419 . S
C2457 C2458 1.362 . S
C2458 H2450 0.930 . S
C2458 C2457 1.362 . S
C2458 C2461 1.409 . S
C2459 H2451 0.930 . S
C2459 C2460 1.355 . S
C2459 C2461 1.415 . S
C2460 C2459 1.355 . S
C2460 C2462 1.419 . S
C2461 C2456 1.425 . S
C2461 C2458 1.409 . S
C2461 C2459 1.415 . S
C2462 H2452 0.930 . S
C2462 C2460 1.419 . S
C2462 C2463 1.362 . S
C2463 H2453 0.930 . S
C2463 C2456 1.409 . S
C2463 C2462 1.362 . S
H2464 C2470 0.930 . S
H2465 C2473 0.930 . S
H2466 C2474 0.930 . S
H2467 C2475 0.930 . S
H2468 C2478 0.930 . S
H2469 C2479 0.930 . S
C2470 H2464 0.930 . S
C2470 C2471 1.355 . S
C2470 C2472 1.415 . S
C2471 C2470 1.355 . S
C2471 C2473 1.419 . S
C2472 C2470 1.415 . S
C2472 C2477 1.425 . S
C2472 C2479 1.409 . S
C2473 H2465 0.930 . S
C2473 C2471 1.419 . S
C2473 C2474 1.362 . S
C2474 H2466 0.930 . S
C2474 C2473 1.362 . S
C2474 C2477 1.409 . S
C2475 H2467 0.930 . S
C2475 C2476 1.355 . S
C2475 C2477 1.415 . S
C2476 C2475 1.355 . S
C2476 C2478 1.419 . S
C2477 C2472 1.425 . S
C2477 C2474 1.409 . S
C2477 C2475 1.415 . S
C2478 H2468 0.930 . S
C2478 C2476 1.419 . S
C2478 C2479 1.362 . S
C2479 H2469 0.930 . S
C2479 C2472 1.409 . S
C2479 C2478 1.362 . S
H2480 C2486 0.930 . S
H2481 C2489 0.930 . S
H2482 C2490 0.930 . S
H2483 C2491 0.930 . S
H2484 C2494 0.930 . S
H2485 C2495 0.930 . S
C2486 H2480 0.930 . S
C2486 C2487 1.355 . S
C2486 C2488 1.415 . S
C2487 C2486 1.355 . S
C2487 C2489 1.419 . S
C2488 C2486 1.415 . S
C2488 C2493 1.425 . S
C2488 C2495 1.409 . S
C2489 H2481 0.930 . S
C2489 C2487 1.419 . S
C2489 C2490 1.362 . S
C2490 H2482 0.930 . S
C2490 C2489 1.362 . S
C2490 C2493 1.409 . S
C2491 H2483 0.930 . S
C2491 C2492 1.355 . S
C2491 C2493 1.415 . S
C2492 C2491 1.355 . S
C2492 C2494 1.419 . S
C2493 C2488 1.425 . S
C2493 C2490 1.409 . S
C2493 C2491 1.415 . S
C2494 H2484 0.930 . S
C2494 C2492 1.419 . S
C2494 C2495 1.362 . S
C2495 H2485 0.930 . S
C2495 C2488 1.409 . S
C2495 C2494 1.362 . S
H2496 C2502 0.930 . S
H2497 C2505 0.930 . S
H2498 C2506 0.930 . S
H2499 C2507 0.930 . S
H2500 C2510 0.930 . S
H2501 C2511 0.930 . S
C2502 H2496 0.930 . S
C2502 C2503 1.355 . S
C2502 C2504 1.415 . S
C2503 C2502 1.355 . S
C2503 C2505 1.419 . S
C2504 C2502 1.415 . S
C2504 C2509 1.425 . S
C2504 C2511 1.409 . S
C2505 H2497 0.930 . S
C2505 C2503 1.419 . S
C2505 C2506 1.362 . S
C2506 H2498 0.930 . S
C2506 C2505 1.362 . S
C2506 C2509 1.409 . S
C2507 H2499 0.930 . S
C2507 C2508 1.355 . S
C2507 C2509 1.415 . S
C2508 C2507 1.355 . S
C2508 C2510 1.419 . S
C2509 C2504 1.425 . S
C2509 C2506 1.409 . S
C2509 C2507 1.415 . S
C2510 H2500 0.930 . S
C2510 C2508 1.419 . S
C2510 C2511 1.362 . S
C2511 H2501 0.930 . S
C2511 C2504 1.409 . S
C2511 C2510 1.362 . S
H2512 C2518 0.930 . S
H2513 C2521 0.930 . S
H2514 C2522 0.930 . S
H2515 C2523 0.930 . S
H2516 C2526 0.930 . S
H2517 C2527 0.930 . S
C2518 H2512 0.930 . S
C2518 C2519 1.355 . S
C2518 C2520 1.415 1_655 S
C2519 C2518 1.355 . S
C2519 C2521 1.419 . S
C2520 C2518 1.415 1_455 S
C2520 C2525 1.425 . S
C2520 C2527 1.409 . S
C2521 H2513 0.930 . S
C2521 C2519 1.419 . S
C2521 C2522 1.362 . S
C2522 H2514 0.930 . S
C2522 C2521 1.362 . S
C2522 C2525 1.409 1_655 S
C2523 H2515 0.930 . S
C2523 C2524 1.355 . S
C2523 C2525 1.415 . S
C2524 C2523 1.355 . S
C2524 C2526 1.419 . S
C2525 C2520 1.425 . S
C2525 C2522 1.409 1_455 S
C2525 C2523 1.415 . S
C2526 H2516 0.930 . S
C2526 C2524 1.419 . S
C2526 C2527 1.362 . S
C2527 H2517 0.930 . S
C2527 C2520 1.409 . S
C2527 C2526 1.362 . S
H2528 C2534 0.930 . S
H2529 C2537 0.930 . S
H2530 C2538 0.930 . S
H2531 C2539 0.930 . S
H2532 C2542 0.930 . S
H2533 C2543 0.930 . S
C2534 H2528 0.930 . S
C2534 C2535 1.355 . S
C2534 C2536 1.415 . S
C2535 C2534 1.355 . S
C2535 C2537 1.419 . S
C2536 C2534 1.415 . S
C2536 C2541 1.425 . S
C2536 C2543 1.409 . S
C2537 H2529 0.930 . S
C2537 C2535 1.419 . S
C2537 C2538 1.362 . S
C2538 H2530 0.930 . S
C2538 C2537 1.362 . S
C2538 C2541 1.409 . S
C2539 H2531 0.930 . S
C2539 C2540 1.355 . S
C2539 C2541 1.415 . S
C2540 C2539 1.355 . S
C2540 C2542 1.419 . S
C2541 C2536 1.425 . S
C2541 C2538 1.409 . S
C2541 C2539 1.415 . S
C2542 H2532 0.930 . S
C2542 C2540 1.419 . S
C2542 C2543 1.362 . S
C2543 H2533 0.930 . S
C2543 C2536 1.409 . S
C2543 C2542 1.362 . S
H2544 C2550 0.930 . S
H2545 C2553 0.930 . S
H2546 C2554 0.930 . S
H2547 C2555 0.930 . S
H2548 C2558 0.930 . S
H2549 C2559 0.930 . S
C2550 H2544 0.930 . S
C2550 C2551 1.355 . S
C2550 C2552 1.415 . S
C2551 C2550 1.355 . S
C2551 C2553 1.419 . S
C2552 C2550 1.415 . S
C2552 C2557 1.425 . S
C2552 C2559 1.409 . S
C2553 H2545 0.930 . S
C2553 C2551 1.419 . S
C2553 C2554 1.362 . S
C2554 H2546 0.930 . S
C2554 C2553 1.362 . S
C2554 C2557 1.409 . S
C2555 H2547 0.930 . S
C2555 C2556 1.355 . S
C2555 C2557 1.415 . S
C2556 C2555 1.355 . S
C2556 C2558 1.419 . S
C2557 C2552 1.425 . S
C2557 C2554 1.409 . S
C2557 C2555 1.415 . S
C2558 H2548 0.930 . S
C2558 C2556 1.419 . S
C2558 C2559 1.362 . S
C2559 H2549 0.930 . S
C2559 C2552 1.409 . S
C2559 C2558 1.362 . S
H2560 C2566 0.930 . S
H2561 C2569 0.930 . S
H2562 C2570 0.930 . S
H2563 C2571 0.930 . S
H2564 C2574 0.930 . S
H2565 C2575 0.930 . S
C2566 H2560 0.930 . S
C2566 C2567 1.355 . S
C2566 C2568 1.415 . S
C2567 C2566 1.355 . S
C2567 C2569 1.419 . S
C2568 C2566 1.415 . S
C2568 C2573 1.425 . S
C2568 C2575 1.409 . S
C2569 H2561 0.930 . S
C2569 C2567 1.419 . S
C2569 C2570 1.362 . S
C2570 H2562 0.930 . S
C2570 C2569 1.362 . S
C2570 C2573 1.409 . S
C2571 H2563 0.930 . S
C2571 C2572 1.355 . S
C2571 C2573 1.415 . S
C2572 C2571 1.355 . S
C2572 C2574 1.419 . S
C2573 C2568 1.425 . S
C2573 C2570 1.409 . S
C2573 C2571 1.415 . S
C2574 H2564 0.930 . S
C2574 C2572 1.419 . S
C2574 C2575 1.362 . S
C2575 H2565 0.930 . S
C2575 C2568 1.409 . S
C2575 C2574 1.362 . S
H2576 C2582 0.930 . S
H2577 C2585 0.930 . S
H2578 C2586 0.930 . S
H2579 C2587 0.930 . S
H2580 C2590 0.930 . S
H2581 C2591 0.930 1_455 S
C2582 H2576 0.930 . S
C2582 C2583 1.355 . S
C2582 C2584 1.415 1_455 S
C2583 C2582 1.355 . S
C2583 C2585 1.419 . S
C2584 C2582 1.415 1_655 S
C2584 C2589 1.425 . S
C2584 C2591 1.409 . S
C2585 H2577 0.930 . S
C2585 C2583 1.419 . S
C2585 C2586 1.362 1_455 S
C2586 H2578 0.930 . S
C2586 C2585 1.362 1_655 S
C2586 C2589 1.409 . S
C2587 H2579 0.930 . S
C2587 C2588 1.355 . S
C2587 C2589 1.415 . S
C2588 C2587 1.355 . S
C2588 C2590 1.419 . S
C2589 C2584 1.425 . S
C2589 C2586 1.409 . S
C2589 C2587 1.415 . S
C2590 H2580 0.930 . S
C2590 C2588 1.419 . S
C2590 C2591 1.362 . S
C2591 H2581 0.930 1_655 S
C2591 C2584 1.409 . S
C2591 C2590 1.362 . S
H2592 C2598 0.930 . S
H2593 C2601 0.930 . S
H2594 C2602 0.930 . S
H2595 C2603 0.930 . S
H2596 C2606 0.930 . S
H2597 C2607 0.930 . S
C2598 H2592 0.930 . S
C2598 C2599 1.355 . S
C2598 C2600 1.415 . S
C2599 C2598 1.355 . S
C2599 C2601 1.419 . S
C2600 C2598 1.415 . S
C2600 C2605 1.425 . S
C2600 C2607 1.409 . S
C2601 H2593 0.930 . S
C2601 C2599 1.419 . S
C2601 C2602 1.362 . S
C2602 H2594 0.930 . S
C2602 C2601 1.362 . S
C2602 C2605 1.409 . S
C2603 H2595 0.930 . S
C2603 C2604 1.355 . S
C2603 C2605 1.415 . S
C2604 C2603 1.355 . S
C2604 C2606 1.419 . S
C2605 C2600 1.425 . S
C2605 C2602 1.409 . S
C2605 C2603 1.415 . S
C2606 H2596 0.930 . S
C2606 C2604 1.419 . S
C2606 C2607 1.362 . S
C2607 H2597 0.930 . S
C2607 C2600 1.409 . S
C2607 C2606 1.362 . S
H2608 C2614 0.930 . S
H2609 C2617 0.930 . S
H2610 C2618 0.930 . S
H2611 C2619 0.930 . S
H2612 C2622 0.930 . S
H2613 C2623 0.930 . S
C2614 H2608 0.930 . S
C2614 C2615 1.355 . S
C2614 C2616 1.415 . S
C2615 C2614 1.355 . S
C2615 C2617 1.419 . S
C2616 C2614 1.415 . S
C2616 C2621 1.425 . S
C2616 C2623 1.409 . S
C2617 H2609 0.930 . S
C2617 C2615 1.419 . S
C2617 C2618 1.362 . S
C2618 H2610 0.930 . S
C2618 C2617 1.362 . S
C2618 C2621 1.409 . S
C2619 H2611 0.930 . S
C2619 C2620 1.355 . S
C2619 C2621 1.415 . S
C2620 C2619 1.355 . S
C2620 C2622 1.419 . S
C2621 C2616 1.425 . S
C2621 C2618 1.409 . S
C2621 C2619 1.415 . S
C2622 H2612 0.930 . S
C2622 C2620 1.419 . S
C2622 C2623 1.362 . S
C2623 H2613 0.930 . S
C2623 C2616 1.409 . S
C2623 C2622 1.362 . S
H2624 C2630 0.928 1_565 S
H2625 C2633 0.930 . S
H2626 C2634 0.930 . S
H2627 C2635 0.930 . S
H2628 C2638 0.930 . S
H2629 C2639 0.930 . S
C2630 H2624 0.928 1_545 S
C2630 C2631 1.352 1_545 S
C2630 C2632 1.419 . S
C2631 C2630 1.352 1_565 S
C2631 C2633 1.419 . S
C2632 C2630 1.419 . S
C2632 C2637 1.425 . S
C2632 C2639 1.409 . S
C2633 H2625 0.930 . S
C2633 C2631 1.419 . S
C2633 C2634 1.362 1_565 S
C2634 H2626 0.930 . S
C2634 C2633 1.362 1_545 S
C2634 C2637 1.409 . S
C2635 H2627 0.930 . S
C2635 C2636 1.355 . S
C2635 C2637 1.415 . S
C2636 C2635 1.355 . S
C2636 C2638 1.419 . S
C2637 C2632 1.425 . S
C2637 C2634 1.409 . S
C2637 C2635 1.415 . S
C2638 H2628 0.930 . S
C2638 C2636 1.419 . S
C2638 C2639 1.362 . S
C2639 H2629 0.930 . S
C2639 C2632 1.409 . S
C2639 C2638 1.362 . S
H2640 C2646 0.930 . S
H2641 C2649 0.930 . S
H2642 C2650 0.930 . S
H2643 C2651 0.930 . S
H2644 C2654 0.930 . S
H2645 C2655 0.930 . S
C2646 H2640 0.930 . S
C2646 C2647 1.355 . S
C2646 C2648 1.415 . S
C2647 C2646 1.355 . S
C2647 C2649 1.419 . S
C2648 C2646 1.415 . S
C2648 C2653 1.425 . S
C2648 C2655 1.409 . S
C2649 H2641 0.930 . S
C2649 C2647 1.419 . S
C2649 C2650 1.362 . S
C2650 H2642 0.930 . S
C2650 C2649 1.362 . S
C2650 C2653 1.409 . S
C2651 H2643 0.930 . S
C2651 C2652 1.355 . S
C2651 C2653 1.415 . S
C2652 C2651 1.355 . S
C2652 C2654 1.419 . S
C2653 C2648 1.425 . S
C2653 C2650 1.409 . S
C2653 C2651 1.415 . S
C2654 H2644 0.930 . S
C2654 C2652 1.419 . S
C2654 C2655 1.362 . S
C2655 H2645 0.930 . S
C2655 C2648 1.409 . S
C2655 C2654 1.362 . S
H2656 C2662 0.930 1_545 S
H2657 C2665 0.930 . S
H2658 C2666 0.930 . S
H2659 C2667 0.930 . S
H2660 C2670 0.930 . S
H2661 C2671 0.930 . S
C2662 H2656 0.930 1_565 S
C2662 C2663 1.355 . S
C2662 C2664 1.415 1_565 S
C2663 C2662 1.355 . S
C2663 C2665 1.419 . S
C2664 C2662 1.415 1_545 S
C2664 C2669 1.425 . S
C2664 C2671 1.409 . S
C2665 H2657 0.930 . S
C2665 C2663 1.419 . S
C2665 C2666 1.362 . S
C2666 H2658 0.930 . S
C2666 C2665 1.362 . S
C2666 C2669 1.409 1_565 S
C2667 H2659 0.930 . S
C2667 C2668 1.355 . S
C2667 C2669 1.415 . S
C2668 C2667 1.355 . S
C2668 C2670 1.419 . S
C2669 C2664 1.425 . S
C2669 C2666 1.409 1_545 S
C2669 C2667 1.415 . S
C2670 H2660 0.930 . S
C2670 C2668 1.419 . S
C2670 C2671 1.362 . S
C2671 H2661 0.930 . S
C2671 C2664 1.409 . S
C2671 C2670 1.362 . S
H2672 C2678 0.930 . S
H2673 C2681 0.930 . S
H2674 C2682 0.930 . S
H2675 C2683 0.930 . S
H2676 C2686 0.930 . S
H2677 C2687 0.930 . S
C2678 H2672 0.930 . S
C2678 C2679 1.355 . S
C2678 C2680 1.415 . S
C2679 C2678 1.355 . S
C2679 C2681 1.419 . S
C2680 C2678 1.415 . S
C2680 C2685 1.425 . S
C2680 C2687 1.409 . S
C2681 H2673 0.930 . S
C2681 C2679 1.419 . S
C2681 C2682 1.362 . S
C2682 H2674 0.930 . S
C2682 C2681 1.362 . S
C2682 C2685 1.409 . S
C2683 H2675 0.930 . S
C2683 C2684 1.355 . S
C2683 C2685 1.415 . S
C2684 C2683 1.355 . S
C2684 C2686 1.419 . S
C2685 C2680 1.425 . S
C2685 C2682 1.409 . S
C2685 C2683 1.415 . S
C2686 H2676 0.930 . S
C2686 C2684 1.419 . S
C2686 C2687 1.362 . S
C2687 H2677 0.930 . S
C2687 C2680 1.409 . S
C2687 C2686 1.362 . S
H2688 C2694 0.930 . S
H2689 C2697 0.930 . S
H2690 C2698 0.930 . S
H2691 C2699 0.930 . S
H2692 C2702 0.930 . S
H2693 C2703 0.930 . S
C2694 H2688 0.930 . S
C2694 C2695 1.355 . S
C2694 C2696 1.415 . S
C2695 C2694 1.355 . S
C2695 C2697 1.419 . S
C2696 C2694 1.415 . S
C2696 C2701 1.425 . S
C2696 C2703 1.409 . S
C2697 H2689 0.930 . S
C2697 C2695 1.419 . S
C2697 C2698 1.362 . S
C2698 H2690 0.930 . S
C2698 C2697 1.362 . S
C2698 C2701 1.409 . S
C2699 H2691 0.930 . S
C2699 C2700 1.355 . S
C2699 C2701 1.415 . S
C2700 C2699 1.355 . S
C2700 C2702 1.419 . S
C2701 C2696 1.425 . S
C2701 C2698 1.409 . S
C2701 C2699 1.415 . S
C2702 H2692 0.930 . S
C2702 C2700 1.419 . S
C2702 C2703 1.362 . S
C2703 H2693 0.930 . S
C2703 C2696 1.409 . S
C2703 C2702 1.362 . S
H2704 C2710 0.930 . S
H2705 C2713 0.930 . S
H2706 C2714 0.930 . S
H2707 C2715 0.930 . S
H2708 C2718 0.930 . S
H2709 C2719 0.930 . S
C2710 H2704 0.930 . S
C2710 C2711 1.355 . S
C2710 C2712 1.415 . S
C2711 C2710 1.355 . S
C2711 C2713 1.419 . S
C2712 C2710 1.415 . S
C2712 C2717 1.425 . S
C2712 C2719 1.409 . S
C2713 H2705 0.930 . S
C2713 C2711 1.419 . S
C2713 C2714 1.362 . S
C2714 H2706 0.930 . S
C2714 C2713 1.362 . S
C2714 C2717 1.409 . S
C2715 H2707 0.930 . S
C2715 C2716 1.355 . S
C2715 C2717 1.415 . S
C2716 C2715 1.355 . S
C2716 C2718 1.419 . S
C2717 C2712 1.425 . S
C2717 C2714 1.409 . S
C2717 C2715 1.415 . S
C2718 H2708 0.930 . S
C2718 C2716 1.419 . S
C2718 C2719 1.362 . S
C2719 H2709 0.930 . S
C2719 C2712 1.409 . S
C2719 C2718 1.362 . S
H2720 C2726 0.930 . S
H2721 C2729 0.930 . S
H2722 C2730 0.930 . S
H2723 C2731 0.930 . S
H2724 C2734 0.930 . S
H2725 C2735 0.930 . S
C2726 H2720 0.930 . S
C2726 C2727 1.355 . S
C2726 C2728 1.415 . S
C2727 C2726 1.355 . S
C2727 C2729 1.419 . S
C2728 C2726 1.415 . S
C2728 C2733 1.425 . S
C2728 C2735 1.409 . S
C2729 H2721 0.930 . S
C2729 C2727 1.419 . S
C2729 C2730 1.362 . S
C2730 H2722 0.930 . S
C2730 C2729 1.362 . S
C2730 C2733 1.409 . S
C2731 H2723 0.930 . S
C2731 C2732 1.355 . S
C2731 C2733 1.415 . S
C2732 C2731 1.355 . S
C2732 C2734 1.419 . S
C2733 C2728 1.425 . S
C2733 C2730 1.409 . S
C2733 C2731 1.415 . S
C2734 H2724 0.930 . S
C2734 C2732 1.419 . S
C2734 C2735 1.362 . S
C2735 H2725 0.930 . S
C2735 C2728 1.409 . S
C2735 C2734 1.362 . S
H2736 C2742 0.930 . S
H2737 C2745 0.930 . S
H2738 C2746 0.930 . S
H2739 C2747 0.930 . S
H2740 C2750 0.930 . S
H2741 C2751 0.930 . S
C2742 H2736 0.930 . S
C2742 C2743 1.355 . S
C2742 C2744 1.415 . S
C2743 C2742 1.355 . S
C2743 C2745 1.419 . S
C2744 C2742 1.415 . S
C2744 C2749 1.425 . S
C2744 C2751 1.409 . S
C2745 H2737 0.930 . S
C2745 C2743 1.419 . S
C2745 C2746 1.362 . S
C2746 H2738 0.930 . S
C2746 C2745 1.362 . S
C2746 C2749 1.409 . S
C2747 H2739 0.930 . S
C2747 C2748 1.355 . S
C2747 C2749 1.415 . S
C2748 C2747 1.355 . S
C2748 C2750 1.419 . S
C2749 C2744 1.425 . S
C2749 C2746 1.409 . S
C2749 C2747 1.415 . S
C2750 H2740 0.930 . S
C2750 C2748 1.419 . S
C2750 C2751 1.362 . S
C2751 H2741 0.930 . S
C2751 C2744 1.409 . S
C2751 C2750 1.362 . S
H2752 C2758 0.930 . S
H2753 C2761 0.930 . S
H2754 C2762 0.930 . S
H2755 C2763 0.930 . S
H2756 C2766 0.930 . S
H2757 C2767 0.930 . S
C2758 H2752 0.930 . S
C2758 C2759 1.355 . S
C2758 C2760 1.415 . S
C2759 C2758 1.355 . S
C2759 C2761 1.419 . S
C2760 C2758 1.415 . S
C2760 C2765 1.425 . S
C2760 C2767 1.409 . S
C2761 H2753 0.930 . S
C2761 C2759 1.419 . S
C2761 C2762 1.362 . S
C2762 H2754 0.930 . S
C2762 C2761 1.362 . S
C2762 C2765 1.409 . S
C2763 H2755 0.930 . S
C2763 C2764 1.355 . S
C2763 C2765 1.415 . S
C2764 C2763 1.355 . S
C2764 C2766 1.419 . S
C2765 C2760 1.425 . S
C2765 C2762 1.409 . S
C2765 C2763 1.415 . S
C2766 H2756 0.930 . S
C2766 C2764 1.419 . S
C2766 C2767 1.362 . S
C2767 H2757 0.930 . S
C2767 C2760 1.409 . S
C2767 C2766 1.362 . S
H2768 C2774 0.930 . S
H2769 C2777 0.930 . S
H2770 C2778 0.930 . S
H2771 C2779 0.929 1_554 S
H2772 C2782 0.930 . S
H2773 C2783 0.930 . S
C2774 H2768 0.930 . S
C2774 C2775 1.355 . S
C2774 C2776 1.415 . S
C2775 C2774 1.355 . S
C2775 C2777 1.419 . S
C2776 C2774 1.415 . S
C2776 C2781 1.425 . S
C2776 C2783 1.409 1_554 S
C2777 H2769 0.930 . S
C2777 C2775 1.419 . S
C2777 C2778 1.362 . S
C2778 H2770 0.930 . S
C2778 C2777 1.362 . S
C2778 C2781 1.409 . S
C2779 H2771 0.929 1_556 S
C2779 C2780 1.368 . S
C2779 C2781 1.402 1_556 S
C2780 C2779 1.368 . S
C2780 C2782 1.419 . S
C2781 C2776 1.425 . S
C2781 C2778 1.409 . S
C2781 C2779 1.402 1_554 S
C2782 H2772 0.930 . S
C2782 C2780 1.419 . S
C2782 C2783 1.362 . S
C2783 H2773 0.930 . S
C2783 C2776 1.409 1_556 S
C2783 C2782 1.362 . S
H2784 C2790 0.930 . S
H2785 C2793 0.930 . S
H2786 C2794 0.930 . S
H2787 C2795 0.930 . S
H2788 C2798 0.930 . S
H2789 C2799 0.930 . S
C2790 H2784 0.930 . S
C2790 C2791 1.355 . S
C2790 C2792 1.415 . S
C2791 C2790 1.355 . S
C2791 C2793 1.419 . S
C2792 C2790 1.415 . S
C2792 C2797 1.425 . S
C2792 C2799 1.409 . S
C2793 H2785 0.930 . S
C2793 C2791 1.419 . S
C2793 C2794 1.362 . S
C2794 H2786 0.930 . S
C2794 C2793 1.362 . S
C2794 C2797 1.409 . S
C2795 H2787 0.930 . S
C2795 C2796 1.355 . S
C2795 C2797 1.415 . S
C2796 C2795 1.355 . S
C2796 C2798 1.419 . S
C2797 C2792 1.425 . S
C2797 C2794 1.409 . S
C2797 C2795 1.415 . S
C2798 H2788 0.930 . S
C2798 C2796 1.419 . S
C2798 C2799 1.362 . S
C2799 H2789 0.930 . S
C2799 C2792 1.409 . S
C2799 C2798 1.362 . S
H2800 C2806 0.930 . S
H2801 C2809 0.930 . S
H2802 C2810 0.960 . S
H2803 C2811 0.930 . S
H2804 C2814 0.930 . S
H2805 C2815 0.930 . S
C2806 H2800 0.930 . S
C2806 C2807 1.355 . S
C2806 C2808 1.415 . S
C2807 C2806 1.355 . S
C2807 C2809 1.419 . S
C2808 C2806 1.415 . S
C2808 C2813 1.425 1_556 S
C2808 C2815 1.409 . S
C2809 H2801 0.930 . S
C2809 C2807 1.419 . S
C2809 C2810 1.324 1_556 S
C2810 H2802 0.960 . S
C2810 C2809 1.324 1_554 S
C2810 C2813 1.419 . S
C2811 H2803 0.930 . S
C2811 C2812 1.355 . S
C2811 C2813 1.415 . S
C2812 C2811 1.355 . S
C2812 C2814 1.419 . S
C2813 C2808 1.425 1_554 S
C2813 C2810 1.419 . S
C2813 C2811 1.415 . S
C2814 H2804 0.930 . S
C2814 C2812 1.419 . S
C2814 C2815 1.362 1_554 S
C2815 H2805 0.930 . S
C2815 C2808 1.409 . S
C2815 C2814 1.362 1_556 S
H2816 C2822 0.930 . S
H2817 C2825 0.930 . S
H2818 C2826 0.930 . S
H2819 C2827 0.930 . S
H2820 C2830 0.930 . S
H2821 C2831 0.930 . S
C2822 H2816 0.930 . S
C2822 C2823 1.355 . S
C2822 C2824 1.415 . S
C2823 C2822 1.355 . S
C2823 C2825 1.419 . S
C2824 C2822 1.415 . S
C2824 C2829 1.425 . S
C2824 C2831 1.409 . S
C2825 H2817 0.930 . S
C2825 C2823 1.419 . S
C2825 C2826 1.362 . S
C2826 H2818 0.930 . S
C2826 C2825 1.362 . S
C2826 C2829 1.409 . S
C2827 H2819 0.930 . S
C2827 C2828 1.355 . S
C2827 C2829 1.415 . S
C2828 C2827 1.355 . S
C2828 C2830 1.419 . S
C2829 C2824 1.425 . S
C2829 C2826 1.409 . S
C2829 C2827 1.415 . S
C2830 H2820 0.930 . S
C2830 C2828 1.419 . S
C2830 C2831 1.362 . S
C2831 H2821 0.930 . S
C2831 C2824 1.409 . S
C2831 C2830 1.362 . S
H2832 C2838 0.930 . S
H2833 C2841 0.930 . S
H2834 C2842 0.930 . S
H2835 C2843 0.930 . S
H2836 C2846 0.930 . S
H2837 C2847 0.930 . S
C2838 H2832 0.930 . S
C2838 C2839 1.355 . S
C2838 C2840 1.415 . S
C2839 C2838 1.355 . S
C2839 C2841 1.419 . S
C2840 C2838 1.415 . S
C2840 C2845 1.425 . S
C2840 C2847 1.409 . S
C2841 H2833 0.930 . S
C2841 C2839 1.419 . S
C2841 C2842 1.362 . S
C2842 H2834 0.930 . S
C2842 C2841 1.362 . S
C2842 C2845 1.409 . S
C2843 H2835 0.930 . S
C2843 C2844 1.355 . S
C2843 C2845 1.415 . S
C2844 C2843 1.355 . S
C2844 C2846 1.419 . S
C2845 C2840 1.425 . S
C2845 C2842 1.409 . S
C2845 C2843 1.415 . S
C2846 H2836 0.930 . S
C2846 C2844 1.419 . S
C2846 C2847 1.362 . S
C2847 H2837 0.930 . S
C2847 C2840 1.409 . S
C2847 C2846 1.362 . S
H2848 C2854 0.930 . S
H2849 C2857 0.930 . S
H2850 C2858 0.930 . S
H2851 C2859 0.930 . S
H2852 C2862 0.930 . S
H2853 C2863 0.930 . S
C2854 H2848 0.930 . S
C2854 C2855 1.355 . S
C2854 C2856 1.415 . S
C2855 C2854 1.355 . S
C2855 C2857 1.419 . S
C2856 C2854 1.415 . S
C2856 C2861 1.425 . S
C2856 C2863 1.409 . S
C2857 H2849 0.930 . S
C2857 C2855 1.419 . S
C2857 C2858 1.362 . S
C2858 H2850 0.930 . S
C2858 C2857 1.362 . S
C2858 C2861 1.409 . S
C2859 H2851 0.930 . S
C2859 C2860 1.355 . S
C2859 C2861 1.415 . S
C2860 C2859 1.355 . S
C2860 C2862 1.419 . S
C2861 C2856 1.425 . S
C2861 C2858 1.409 . S
C2861 C2859 1.415 . S
C2862 H2852 0.930 . S
C2862 C2860 1.419 . S
C2862 C2863 1.362 . S
C2863 H2853 0.930 . S
C2863 C2856 1.409 . S
C2863 C2862 1.362 . S
H2864 C2870 0.930 . S
H2865 C2873 0.930 . S
H2866 C2874 0.930 . S
H2867 C2875 0.930 . S
H2868 C2878 0.930 . S
H2869 C2879 0.930 . S
C2870 H2864 0.930 . S
C2870 C2871 1.355 . S
C2870 C2872 1.415 . S
C2871 C2870 1.355 . S
C2871 C2873 1.419 . S
C2872 C2870 1.415 . S
C2872 C2877 1.425 . S
C2872 C2879 1.409 . S
C2873 H2865 0.930 . S
C2873 C2871 1.419 . S
C2873 C2874 1.362 . S
C2874 H2866 0.930 . S
C2874 C2873 1.362 . S
C2874 C2877 1.409 . S
C2875 H2867 0.930 . S
C2875 C2876 1.355 . S
C2875 C2877 1.415 . S
C2876 C2875 1.355 . S
C2876 C2878 1.419 . S
C2877 C2872 1.425 . S
C2877 C2874 1.409 . S
C2877 C2875 1.415 . S
C2878 H2868 0.930 . S
C2878 C2876 1.419 . S
C2878 C2879 1.362 . S
C2879 H2869 0.930 . S
C2879 C2872 1.409 . S
C2879 C2878 1.362 . S
H2880 C2886 0.930 . S
H2881 C2889 0.930 . S
H2882 C2890 0.930 . S
H2883 C2891 0.930 . S
H2884 C2894 0.930 . S
H2885 C2895 0.930 . S
C2886 H2880 0.930 . S
C2886 C2887 1.355 . S
C2886 C2888 1.415 . S
C2887 C2886 1.355 . S
C2887 C2889 1.419 . S
C2888 C2886 1.415 . S
C2888 C2893 1.425 . S
C2888 C2895 1.409 . S
C2889 H2881 0.930 . S
C2889 C2887 1.419 . S
C2889 C2890 1.362 . S
C2890 H2882 0.930 . S
C2890 C2889 1.362 . S
C2890 C2893 1.409 . S
C2891 H2883 0.930 . S
C2891 C2892 1.355 . S
C2891 C2893 1.415 . S
C2892 C2891 1.355 . S
C2892 C2894 1.419 . S
C2893 C2888 1.425 . S
C2893 C2890 1.409 . S
C2893 C2891 1.415 . S
C2894 H2884 0.930 . S
C2894 C2892 1.419 . S
C2894 C2895 1.362 . S
C2895 H2885 0.930 . S
C2895 C2888 1.409 . S
C2895 C2894 1.362 . S
H2896 C2902 0.930 . S
H2897 C2905 0.930 . S
H2898 C2906 0.930 . S
H2899 C2907 0.930 . S
H2900 C2910 0.930 . S
H2901 C2911 0.930 1_655 S
C2902 H2896 0.930 . S
C2902 C2903 1.355 . S
C2902 C2904 1.415 . S
C2903 C2902 1.355 . S
C2903 C2905 1.419 . S
C2904 C2902 1.415 . S
C2904 C2909 1.425 1_655 S
C2904 C2911 1.409 1_655 S
C2905 H2897 0.930 . S
C2905 C2903 1.419 . S
C2905 C2906 1.362 . S
C2906 H2898 0.930 . S
C2906 C2905 1.362 . S
C2906 C2909 1.409 1_655 S
C2907 H2899 0.930 . S
C2907 C2908 1.355 . S
C2907 C2909 1.415 . S
C2908 C2907 1.355 . S
C2908 C2910 1.419 . S
C2909 C2904 1.425 1_455 S
C2909 C2906 1.409 1_455 S
C2909 C2907 1.415 . S
C2910 H2900 0.930 . S
C2910 C2908 1.419 . S
C2910 C2911 1.362 . S
C2911 H2901 0.930 1_455 S
C2911 C2904 1.409 1_455 S
C2911 C2910 1.362 . S
H2912 C2918 0.930 . S
H2913 C2921 0.930 . S
H2914 C2922 0.930 . S
H2915 C2923 0.930 . S
H2916 C2926 0.930 . S
H2917 C2927 0.930 . S
C2918 H2912 0.930 . S
C2918 C2919 1.355 . S
C2918 C2920 1.415 . S
C2919 C2918 1.355 . S
C2919 C2921 1.419 . S
C2920 C2918 1.415 . S
C2920 C2925 1.425 . S
C2920 C2927 1.409 . S
C2921 H2913 0.930 . S
C2921 C2919 1.419 . S
C2921 C2922 1.362 . S
C2922 H2914 0.930 . S
C2922 C2921 1.362 . S
C2922 C2925 1.409 . S
C2923 H2915 0.930 . S
C2923 C2924 1.355 . S
C2923 C2925 1.415 . S
C2924 C2923 1.355 . S
C2924 C2926 1.419 . S
C2925 C2920 1.425 . S
C2925 C2922 1.409 . S
C2925 C2923 1.415 . S
C2926 H2916 0.930 . S
C2926 C2924 1.419 . S
C2926 C2927 1.362 . S
C2927 H2917 0.930 . S
C2927 C2920 1.409 . S
C2927 C2926 1.362 . S
H2928 C2934 0.930 . S
H2929 C2937 0.930 . S
H2930 C2938 0.930 . S
H2931 C2939 0.930 . S
H2932 C2942 0.930 . S
H2933 C2943 0.930 . S
C2934 H2928 0.930 . S
C2934 C2935 1.355 . S
C2934 C2936 1.415 . S
C2935 C2934 1.355 . S
C2935 C2937 1.419 . S
C2936 C2934 1.415 . S
C2936 C2941 1.425 . S
C2936 C2943 1.409 . S
C2937 H2929 0.930 . S
C2937 C2935 1.419 . S
C2937 C2938 1.362 . S
C2938 H2930 0.930 . S
C2938 C2937 1.362 . S
C2938 C2941 1.409 . S
C2939 H2931 0.930 . S
C2939 C2940 1.355 . S
C2939 C2941 1.415 . S
C2940 C2939 1.355 . S
C2940 C2942 1.419 . S
C2941 C2936 1.425 . S
C2941 C2938 1.409 . S
C2941 C2939 1.415 . S
C2942 H2932 0.930 . S
C2942 C2940 1.419 . S
C2942 C2943 1.362 . S
C2943 H2933 0.930 . S
C2943 C2936 1.409 . S
C2943 C2942 1.362 . S
H2944 C2950 0.930 . S
H2945 C2953 0.930 . S
H2946 C2954 0.930 . S
H2947 C2955 0.930 . S
H2948 C2958 0.930 . S
H2949 C2959 0.930 . S
C2950 H2944 0.930 . S
C2950 C2951 1.355 . S
C2950 C2952 1.415 . S
C2951 C2950 1.355 . S
C2951 C2953 1.419 . S
C2952 C2950 1.415 . S
C2952 C2957 1.425 . S
C2952 C2959 1.409 . S
C2953 H2945 0.930 . S
C2953 C2951 1.419 . S
C2953 C2954 1.362 . S
C2954 H2946 0.930 . S
C2954 C2953 1.362 . S
C2954 C2957 1.409 . S
C2955 H2947 0.930 . S
C2955 C2956 1.355 . S
C2955 C2957 1.415 . S
C2956 C2955 1.355 . S
C2956 C2958 1.419 . S
C2957 C2952 1.425 . S
C2957 C2954 1.409 . S
C2957 C2955 1.415 . S
C2958 H2948 0.930 . S
C2958 C2956 1.419 . S
C2958 C2959 1.362 . S
C2959 H2949 0.930 . S
C2959 C2952 1.409 . S
C2959 C2958 1.362 . S
H2960 C2966 0.930 . S
H2961 C2969 0.930 . S
H2962 C2970 0.930 . S
H2963 C2971 0.930 . S
H2964 C2974 0.930 . S
H2965 C2975 0.930 . S
C2966 H2960 0.930 . S
C2966 C2967 1.355 . S
C2966 C2968 1.415 . S
C2967 C2966 1.355 . S
C2967 C2969 1.419 . S
C2968 C2966 1.415 . S
C2968 C2973 1.425 . S
C2968 C2975 1.409 1_455 S
C2969 H2961 0.930 . S
C2969 C2967 1.419 . S
C2969 C2970 1.362 . S
C2970 H2962 0.930 . S
C2970 C2969 1.362 . S
C2970 C2973 1.409 . S
C2971 H2963 0.930 . S
C2971 C2972 1.355 1_455 S
C2971 C2973 1.415 . S
C2972 C2971 1.355 1_655 S
C2972 C2974 1.419 . S
C2973 C2968 1.425 . S
C2973 C2970 1.409 . S
C2973 C2971 1.415 . S
C2974 H2964 0.930 . S
C2974 C2972 1.419 . S
C2974 C2975 1.362 . S
C2975 H2965 0.930 . S
C2975 C2968 1.409 1_655 S
C2975 C2974 1.362 . S
H2976 C2982 0.930 . S
H2977 C2985 0.930 . S
H2978 C2986 0.930 . S
H2979 C2987 0.930 . S
H2980 C2990 0.930 . S
H2981 C2991 0.930 . S
C2982 H2976 0.930 . S
C2982 C2983 1.355 . S
C2982 C2984 1.415 . S
C2983 C2982 1.355 . S
C2983 C2985 1.419 . S
C2984 C2982 1.415 . S
C2984 C2989 1.425 . S
C2984 C2991 1.409 . S
C2985 H2977 0.930 . S
C2985 C2983 1.419 . S
C2985 C2986 1.362 . S
C2986 H2978 0.930 . S
C2986 C2985 1.362 . S
C2986 C2989 1.409 . S
C2987 H2979 0.930 . S
C2987 C2988 1.355 . S
C2987 C2989 1.415 . S
C2988 C2987 1.355 . S
C2988 C2990 1.419 . S
C2989 C2984 1.425 . S
C2989 C2986 1.409 . S
C2989 C2987 1.415 . S
C2990 H2980 0.930 . S
C2990 C2988 1.419 . S
C2990 C2991 1.362 . S
C2991 H2981 0.930 . S
C2991 C2984 1.409 . S
C2991 C2990 1.362 . S
H2992 C2998 0.930 . S
H2993 C3001 0.930 . S
H2994 C3002 0.930 . S
H2995 C3003 0.930 . S
H2996 C3006 0.930 . S
H2997 C3007 0.930 . S
C2998 H2992 0.930 . S
C2998 C2999 1.355 . S
C2998 C3000 1.415 . S
C2999 C2998 1.355 . S
C2999 C3001 1.419 . S
C3000 C2998 1.415 . S
C3000 C3005 1.425 . S
C3000 C3007 1.409 . S
C3001 H2993 0.930 . S
C3001 C2999 1.419 . S
C3001 C3002 1.362 . S
C3002 H2994 0.930 . S
C3002 C3001 1.362 . S
C3002 C3005 1.409 . S
C3003 H2995 0.930 . S
C3003 C3004 1.355 . S
C3003 C3005 1.415 . S
C3004 C3003 1.355 . S
C3004 C3006 1.419 . S
C3005 C3000 1.425 . S
C3005 C3002 1.409 . S
C3005 C3003 1.415 . S
C3006 H2996 0.930 . S
C3006 C3004 1.419 . S
C3006 C3007 1.362 . S
C3007 H2997 0.930 . S
C3007 C3000 1.409 . S
C3007 C3006 1.362 . S
H3008 C3014 0.930 . S
H3009 C3017 0.930 . S
H3010 C3018 0.930 . S
H3011 C3019 0.930 . S
H3012 C3022 0.930 . S
H3013 C3023 0.930 . S
C3014 H3008 0.930 . S
C3014 C3015 1.355 . S
C3014 C3016 1.415 . S
C3015 C3014 1.355 . S
C3015 C3017 1.419 . S
C3016 C3014 1.415 . S
C3016 C3021 1.425 . S
C3016 C3023 1.409 . S
C3017 H3009 0.930 . S
C3017 C3015 1.419 . S
C3017 C3018 1.362 . S
C3018 H3010 0.930 . S
C3018 C3017 1.362 . S
C3018 C3021 1.409 . S
C3019 H3011 0.930 . S
C3019 C3020 1.355 . S
C3019 C3021 1.415 1_545 S
C3020 C3019 1.355 . S
C3020 C3022 1.419 . S
C3021 C3016 1.425 . S
C3021 C3018 1.409 . S
C3021 C3019 1.415 1_565 S
C3022 H3012 0.930 . S
C3022 C3020 1.419 . S
C3022 C3023 1.362 1_545 S
C3023 H3013 0.930 . S
C3023 C3016 1.409 . S
C3023 C3022 1.362 1_565 S
H3024 C3030 0.930 . S
H3025 C3033 0.930 . S
H3026 C3034 0.930 . S
H3027 C3035 0.930 . S
H3028 C3038 0.930 . S
H3029 C3039 0.930 . S
C3030 H3024 0.930 . S
C3030 C3031 1.355 . S
C3030 C3032 1.415 . S
C3031 C3030 1.355 . S
C3031 C3033 1.419 . S
C3032 C3030 1.415 . S
C3032 C3037 1.425 . S
C3032 C3039 1.409 . S
C3033 H3025 0.930 . S
C3033 C3031 1.419 . S
C3033 C3034 1.362 . S
C3034 H3026 0.930 . S
C3034 C3033 1.362 . S
C3034 C3037 1.409 . S
C3035 H3027 0.930 . S
C3035 C3036 1.355 . S
C3035 C3037 1.415 . S
C3036 C3035 1.355 . S
C3036 C3038 1.419 . S
C3037 C3032 1.425 . S
C3037 C3034 1.409 . S
C3037 C3035 1.415 . S
C3038 H3028 0.930 . S
C3038 C3036 1.419 . S
C3038 C3039 1.362 . S
C3039 H3029 0.930 . S
C3039 C3032 1.409 . S
C3039 C3038 1.362 . S
H3040 C3046 0.930 . S
H3041 C3049 0.930 . S
H3042 C3050 0.938 . S
H3043 C3051 0.930 . S
H3044 C3054 0.930 . S
H3045 C3055 0.930 . S
C3046 H3040 0.930 . S
C3046 C3047 1.355 . S
C3046 C3048 1.415 . S
C3047 C3046 1.355 . S
C3047 C3049 1.419 . S
C3048 C3046 1.415 . S
C3048 C3053 1.425 1_565 S
C3048 C3055 1.409 . S
C3049 H3041 0.930 . S
C3049 C3047 1.419 . S
C3049 C3050 1.352 1_565 S
C3050 H3042 0.938 . S
C3050 C3049 1.352 1_545 S
C3050 C3053 1.412 . S
C3051 H3043 0.930 . S
C3051 C3052 1.355 . S
C3051 C3053 1.415 . S
C3052 C3051 1.355 . S
C3052 C3054 1.419 . S
C3053 C3048 1.425 1_545 S
C3053 C3050 1.412 . S
C3053 C3051 1.415 . S
C3054 H3044 0.930 . S
C3054 C3052 1.419 . S
C3054 C3055 1.362 1_545 S
C3055 H3045 0.930 . S
C3055 C3048 1.409 . S
C3055 C3054 1.362 1_565 S
H3056 C3062 0.930 . S
H3057 C3065 0.930 . S
H3058 C3066 0.930 . S
H3059 C3067 0.930 . S
H3060 C3070 0.930 . S
H3061 C3071 0.930 . S
C3062 H3056 0.930 . S
C3062 C3063 1.355 . S
C3062 C3064 1.415 . S
C3063 C3062 1.355 . S
C3063 C3065 1.419 . S
C3064 C3062 1.415 . S
C3064 C3069 1.425 . S
C3064 C3071 1.409 . S
C3065 H3057 0.930 . S
C3065 C3063 1.419 . S
C3065 C3066 1.362 . S
C3066 H3058 0.930 . S
C3066 C3065 1.362 . S
C3066 C3069 1.409 . S
C3067 H3059 0.930 . S
C3067 C3068 1.355 . S
C3067 C3069 1.415 . S
C3068 C3067 1.355 . S
C3068 C3070 1.419 . S
C3069 C3064 1.425 . S
C3069 C3066 1.409 . S
C3069 C3067 1.415 . S
C3070 H3060 0.930 . S
C3070 C3068 1.419 . S
C3070 C3071 1.362 . S
C3071 H3061 0.930 . S
C3071 C3064 1.409 . S
C3071 C3070 1.362 . S
H3072 C3078 0.930 . S
H3073 C3081 0.930 . S
H3074 C3082 0.930 . S
H3075 C3083 0.930 . S
H3076 C3086 0.930 . S
H3077 C3087 0.930 . S
C3078 H3072 0.930 . S
C3078 C3079 1.355 . S
C3078 C3080 1.415 . S
C3079 C3078 1.355 . S
C3079 C3081 1.419 . S
C3080 C3078 1.415 . S
C3080 C3085 1.425 . S
C3080 C3087 1.409 . S
C3081 H3073 0.930 . S
C3081 C3079 1.419 . S
C3081 C3082 1.362 . S
C3082 H3074 0.930 . S
C3082 C3081 1.362 . S
C3082 C3085 1.409 . S
C3083 H3075 0.930 . S
C3083 C3084 1.355 . S
C3083 C3085 1.415 . S
C3084 C3083 1.355 . S
C3084 C3086 1.419 . S
C3085 C3080 1.425 . S
C3085 C3082 1.409 . S
C3085 C3083 1.415 . S
C3086 H3076 0.930 . S
C3086 C3084 1.419 . S
C3086 C3087 1.362 . S
C3087 H3077 0.930 . S
C3087 C3080 1.409 . S
C3087 C3086 1.362 . S
H3088 C3094 0.930 . S
H3089 C3097 0.930 . S
H3090 C3098 0.930 . S
H3091 C3099 0.930 . S
H3092 C3102 0.930 . S
H3093 C3103 0.930 . S
C3094 H3088 0.930 . S
C3094 C3095 1.355 . S
C3094 C3096 1.415 . S
C3095 C3094 1.355 . S
C3095 C3097 1.419 . S
C3096 C3094 1.415 . S
C3096 C3101 1.425 . S
C3096 C3103 1.409 . S
C3097 H3089 0.930 . S
C3097 C3095 1.419 . S
C3097 C3098 1.362 . S
C3098 H3090 0.930 . S
C3098 C3097 1.362 . S
C3098 C3101 1.409 . S
C3099 H3091 0.930 . S
C3099 C3100 1.355 . S
C3099 C3101 1.415 . S
C3100 C3099 1.355 . S
C3100 C3102 1.419 . S
C3101 C3096 1.425 . S
C3101 C3098 1.409 . S
C3101 C3099 1.415 . S
C3102 H3092 0.930 . S
C3102 C3100 1.419 . S
C3102 C3103 1.362 . S
C3103 H3093 0.930 . S
C3103 C3096 1.409 . S
C3103 C3102 1.362 . S
H3104 C3110 0.930 . S
H3105 C3113 0.930 . S
H3106 C3114 0.930 . S
H3107 C3115 0.930 . S
H3108 C3118 0.930 . S
H3109 C3119 0.930 . S
C3110 H3104 0.930 . S
C3110 C3111 1.355 . S
C3110 C3112 1.415 . S
C3111 C3110 1.355 . S
C3111 C3113 1.419 . S
C3112 C3110 1.415 . S
C3112 C3117 1.425 . S
C3112 C3119 1.409 . S
C3113 H3105 0.930 . S
C3113 C3111 1.419 . S
C3113 C3114 1.362 . S
C3114 H3106 0.930 . S
C3114 C3113 1.362 . S
C3114 C3117 1.409 . S
C3115 H3107 0.930 . S
C3115 C3116 1.355 . S
C3115 C3117 1.415 . S
C3116 C3115 1.355 . S
C3116 C3118 1.419 . S
C3117 C3112 1.425 . S
C3117 C3114 1.409 . S
C3117 C3115 1.415 . S
C3118 H3108 0.930 . S
C3118 C3116 1.419 . S
C3118 C3119 1.362 . S
C3119 H3109 0.930 . S
C3119 C3112 1.409 . S
C3119 C3118 1.362 . S
H3120 C3126 0.930 . S
H3121 C3129 0.930 . S
H3122 C3130 0.928 1_455 S
H3123 C3131 0.930 . S
H3124 C3134 0.930 . S
H3125 C3135 0.930 . S
C3126 H3120 0.930 . S
C3126 C3127 1.355 . S
C3126 C3128 1.415 1_655 S
C3127 C3126 1.355 . S
C3127 C3129 1.419 . S
C3128 C3126 1.415 1_455 S
C3128 C3133 1.425 . S
C3128 C3135 1.409 . S
C3129 H3121 0.930 . S
C3129 C3127 1.419 . S
C3129 C3130 1.362 . S
C3130 H3122 0.928 1_655 S
C3130 C3129 1.362 . S
C3130 C3133 1.409 1_655 S
C3131 H3123 0.930 . S
C3131 C3132 1.355 . S
C3131 C3133 1.415 . S
C3132 C3131 1.355 . S
C3132 C3134 1.419 . S
C3133 C3128 1.425 . S
C3133 C3130 1.409 1_455 S
C3133 C3131 1.415 . S
C3134 H3124 0.930 . S
C3134 C3132 1.419 . S
C3134 C3135 1.362 . S
C3135 H3125 0.930 . S
C3135 C3128 1.409 . S
C3135 C3134 1.362 . S
H3136 C3142 0.930 . S
H3137 C3145 0.930 . S
H3138 C3146 0.930 . S
H3139 C3147 0.930 . S
H3140 C3150 0.930 . S
H3141 C3151 0.930 . S
C3142 H3136 0.930 . S
C3142 C3143 1.355 . S
C3142 C3144 1.415 . S
C3143 C3142 1.355 . S
C3143 C3145 1.419 . S
C3144 C3142 1.415 . S
C3144 C3149 1.425 . S
C3144 C3151 1.409 1_455 S
C3145 H3137 0.930 . S
C3145 C3143 1.419 . S
C3145 C3146 1.362 . S
C3146 H3138 0.930 . S
C3146 C3145 1.362 . S
C3146 C3149 1.409 . S
C3147 H3139 0.930 . S
C3147 C3148 1.355 . S
C3147 C3149 1.415 1_655 S
C3148 C3147 1.355 . S
C3148 C3150 1.419 . S
C3149 C3144 1.425 . S
C3149 C3146 1.409 . S
C3149 C3147 1.415 1_455 S
C3150 H3140 0.930 . S
C3150 C3148 1.419 . S
C3150 C3151 1.362 . S
C3151 H3141 0.930 . S
C3151 C3144 1.409 1_655 S
C3151 C3150 1.362 . S
H3152 C3158 0.930 . S
H3153 C3161 0.930 . S
H3154 C3162 0.930 . S
H3155 C3163 0.930 . S
H3156 C3166 0.930 . S
H3157 C3167 0.930 . S
C3158 H3152 0.930 . S
C3158 C3159 1.355 . S
C3158 C3160 1.415 . S
C3159 C3158 1.355 . S
C3159 C3161 1.419 . S
C3160 C3158 1.415 . S
C3160 C3165 1.425 . S
C3160 C3167 1.409 . S
C3161 H3153 0.930 . S
C3161 C3159 1.419 . S
C3161 C3162 1.362 . S
C3162 H3154 0.930 . S
C3162 C3161 1.362 . S
C3162 C3165 1.409 . S
C3163 H3155 0.930 . S
C3163 C3164 1.355 . S
C3163 C3165 1.415 . S
C3164 C3163 1.355 . S
C3164 C3166 1.419 . S
C3165 C3160 1.425 . S
C3165 C3162 1.409 . S
C3165 C3163 1.415 . S
C3166 H3156 0.930 . S
C3166 C3164 1.419 . S
C3166 C3167 1.362 . S
C3167 H3157 0.930 . S
C3167 C3160 1.409 . S
C3167 C3166 1.362 . S
H3168 C3174 0.930 . S
H3169 C3177 0.930 . S
H3170 C3178 0.930 . S
H3171 C3179 0.930 . S
H3172 C3182 0.930 . S
H3173 C3183 0.930 . S
C3174 H3168 0.930 . S
C3174 C3175 1.355 . S
C3174 C3176 1.415 . S
C3175 C3174 1.355 . S
C3175 C3177 1.419 . S
C3176 C3174 1.415 . S
C3176 C3181 1.425 . S
C3176 C3183 1.409 . S
C3177 H3169 0.930 . S
C3177 C3175 1.419 . S
C3177 C3178 1.362 . S
C3178 H3170 0.930 . S
C3178 C3177 1.362 . S
C3178 C3181 1.409 . S
C3179 H3171 0.930 . S
C3179 C3180 1.355 . S
C3179 C3181 1.415 . S
C3180 C3179 1.355 . S
C3180 C3182 1.419 . S
C3181 C3176 1.425 . S
C3181 C3178 1.409 . S
C3181 C3179 1.415 . S
C3182 H3172 0.930 . S
C3182 C3180 1.419 . S
C3182 C3183 1.362 . S
C3183 H3173 0.930 . S
C3183 C3176 1.409 . S
C3183 C3182 1.362 . S
H3184 C3190 0.930 . S
H3185 C3193 0.930 . S
H3186 C3194 0.930 1_545 S
H3187 C3195 0.930 . S
H3188 C3198 0.930 . S
H3189 C3199 0.930 . S
C3190 H3184 0.930 . S
C3190 C3191 1.355 . S
C3190 C3192 1.415 . S
C3191 C3190 1.355 . S
C3191 C3193 1.419 . S
C3192 C3190 1.415 . S
C3192 C3197 1.425 . S
C3192 C3199 1.409 . S
C3193 H3185 0.930 . S
C3193 C3191 1.419 . S
C3193 C3194 1.362 . S
C3194 H3186 0.930 1_565 S
C3194 C3193 1.362 . S
C3194 C3197 1.409 . S
C3195 H3187 0.930 . S
C3195 C3196 1.355 . S
C3195 C3197 1.415 1_545 S
C3196 C3195 1.355 . S
C3196 C3198 1.419 1_545 S
C3197 C3192 1.425 . S
C3197 C3194 1.409 . S
C3197 C3195 1.415 1_565 S
C3198 H3188 0.930 . S
C3198 C3196 1.419 1_565 S
C3198 C3199 1.362 . S
C3199 H3189 0.930 . S
C3199 C3192 1.409 . S
C3199 C3198 1.362 . S
H3200 C3206 0.930 . S
H3201 C3209 0.930 . S
H3202 C3210 0.930 . S
H3203 C3211 0.930 . S
H3204 C3214 0.930 . S
H3205 C3215 0.930 . S
C3206 H3200 0.930 . S
C3206 C3207 1.355 . S
C3206 C3208 1.415 . S
C3207 C3206 1.355 . S
C3207 C3209 1.419 . S
C3208 C3206 1.415 . S
C3208 C3213 1.425 . S
C3208 C3215 1.409 . S
C3209 H3201 0.930 . S
C3209 C3207 1.419 . S
C3209 C3210 1.362 . S
C3210 H3202 0.930 . S
C3210 C3209 1.362 . S
C3210 C3213 1.409 . S
C3211 H3203 0.930 . S
C3211 C3212 1.355 . S
C3211 C3213 1.415 . S
C3212 C3211 1.355 . S
C3212 C3214 1.419 . S
C3213 C3208 1.425 . S
C3213 C3210 1.409 . S
C3213 C3211 1.415 . S
C3214 H3204 0.930 . S
C3214 C3212 1.419 . S
C3214 C3215 1.362 . S
C3215 H3205 0.930 . S
C3215 C3208 1.409 . S
C3215 C3214 1.362 . S
H3216 C3222 0.930 . S
H3217 C3225 0.930 . S
H3218 C3226 0.930 . S
H3219 C3227 0.930 . S
H3220 C3230 0.930 . S
H3221 C3231 0.930 . S
C3222 H3216 0.930 . S
C3222 C3223 1.355 . S
C3222 C3224 1.415 . S
C3223 C3222 1.355 . S
C3223 C3225 1.419 1_545 S
C3224 C3222 1.415 . S
C3224 C3229 1.425 1_545 S
C3224 C3231 1.409 . S
C3225 H3217 0.930 . S
C3225 C3223 1.419 1_565 S
C3225 C3226 1.362 . S
C3226 H3218 0.930 . S
C3226 C3225 1.362 . S
C3226 C3229 1.409 . S
C3227 H3219 0.930 . S
C3227 C3228 1.355 . S
C3227 C3229 1.415 . S
C3228 C3227 1.355 . S
C3228 C3230 1.419 . S
C3229 C3224 1.425 1_565 S
C3229 C3226 1.409 . S
C3229 C3227 1.415 . S
C3230 H3220 0.930 . S
C3230 C3228 1.419 . S
C3230 C3231 1.362 1_565 S
C3231 H3221 0.930 . S
C3231 C3224 1.409 . S
C3231 C3230 1.362 1_545 S
H3232 C3238 0.930 . S
H3233 C3241 0.930 . S
H3234 C3242 0.930 . S
H3235 C3243 0.930 . S
H3236 C3246 0.930 . S
H3237 C3247 0.930 . S
C3238 H3232 0.930 . S
C3238 C3239 1.355 . S
C3238 C3240 1.415 . S
C3239 C3238 1.355 . S
C3239 C3241 1.419 . S
C3240 C3238 1.415 . S
C3240 C3245 1.425 1_556 S
C3240 C3247 1.409 . S
C3241 H3233 0.930 . S
C3241 C3239 1.419 . S
C3241 C3242 1.362 1_556 S
C3242 H3234 0.930 . S
C3242 C3241 1.362 1_554 S
C3242 C3245 1.409 . S
C3243 H3235 0.930 . S
C3243 C3244 1.355 . S
C3243 C3245 1.415 . S
C3244 C3243 1.355 . S
C3244 C3246 1.419 . S
C3245 C3240 1.425 1_554 S
C3245 C3242 1.409 . S
C3245 C3243 1.415 . S
C3246 H3236 0.930 . S
C3246 C3244 1.419 . S
C3246 C3247 1.362 1_554 S
C3247 H3237 0.930 . S
C3247 C3240 1.409 . S
C3247 C3246 1.362 1_556 S
H3248 C3254 0.930 . S
H3249 C3257 0.930 . S
H3250 C3258 0.930 1_556 S
H3251 C3259 0.930 . S
H3252 C3262 0.930 . S
H3253 C3263 0.930 . S
C3254 H3248 0.930 . S
C3254 C3255 1.355 . S
C3254 C3256 1.415 . S
C3255 C3254 1.355 . S
C3255 C3257 1.419 . S
C3256 C3254 1.415 . S
C3256 C3261 1.425 1_554 S
C3256 C3263 1.409 . S
C3257 H3249 0.930 . S
C3257 C3255 1.419 . S
C3257 C3258 1.362 . S
C3258 H3250 0.930 1_554 S
C3258 C3257 1.362 . S
C3258 C3261 1.409 1_554 S
C3259 H3251 0.930 . S
C3259 C3260 1.355 . S
C3259 C3261 1.415 . S
C3260 C3259 1.355 . S
C3260 C3262 1.419 . S
C3261 C3256 1.425 1_556 S
C3261 C3258 1.409 1_556 S
C3261 C3259 1.415 . S
C3262 H3252 0.930 . S
C3262 C3260 1.419 . S
C3262 C3263 1.362 1_556 S
C3263 H3253 0.930 . S
C3263 C3256 1.409 . S
C3263 C3262 1.362 1_554 S
H3264 C3270 0.930 . S
H3265 C3273 0.930 . S
H3266 C3274 0.930 . S
H3267 C3275 0.930 . S
H3268 C3278 0.930 . S
H3269 C3279 0.930 . S
C3270 H3264 0.930 . S
C3270 C3271 1.355 . S
C3270 C3272 1.415 . S
C3271 C3270 1.355 . S
C3271 C3273 1.419 . S
C3272 C3270 1.415 . S
C3272 C3277 1.425 . S
C3272 C3279 1.409 . S
C3273 H3265 0.930 . S
C3273 C3271 1.419 . S
C3273 C3274 1.362 . S
C3274 H3266 0.930 . S
C3274 C3273 1.362 . S
C3274 C3277 1.409 . S
C3275 H3267 0.930 . S
C3275 C3276 1.355 . S
C3275 C3277 1.415 . S
C3276 C3275 1.355 . S
C3276 C3278 1.419 . S
C3277 C3272 1.425 . S
C3277 C3274 1.409 . S
C3277 C3275 1.415 . S
C3278 H3268 0.930 . S
C3278 C3276 1.419 . S
C3278 C3279 1.362 . S
C3279 H3269 0.930 . S
C3279 C3272 1.409 . S
C3279 C3278 1.362 . S
H3280 C3286 0.930 . S
H3281 C3289 0.930 . S
H3282 C3290 0.930 . S
H3283 C3291 0.930 . S
H3284 C3294 0.930 . S
H3285 C3295 0.930 . S
C3286 H3280 0.930 . S
C3286 C3287 1.355 . S
C3286 C3288 1.415 . S
C3287 C3286 1.355 . S
C3287 C3289 1.419 . S
C3288 C3286 1.415 . S
C3288 C3293 1.425 . S
C3288 C3295 1.409 . S
C3289 H3281 0.930 . S
C3289 C3287 1.419 . S
C3289 C3290 1.362 . S
C3290 H3282 0.930 . S
C3290 C3289 1.362 . S
C3290 C3293 1.409 . S
C3291 H3283 0.930 . S
C3291 C3292 1.355 . S
C3291 C3293 1.415 . S
C3292 C3291 1.355 . S
C3292 C3294 1.419 . S
C3293 C3288 1.425 . S
C3293 C3290 1.409 . S
C3293 C3291 1.415 . S
C3294 H3284 0.930 . S
C3294 C3292 1.419 . S
C3294 C3295 1.362 . S
C3295 H3285 0.930 . S
C3295 C3288 1.409 . S
C3295 C3294 1.362 . S
H3296 C3302 0.930 . S
H3297 C3305 0.930 . S
H3298 C3306 0.930 . S
H3299 C3307 0.930 . S
H3300 C3310 0.930 . S
H3301 C3311 0.930 . S
C3302 H3296 0.930 . S
C3302 C3303 1.355 . S
C3302 C3304 1.415 . S
C3303 C3302 1.355 . S
C3303 C3305 1.419 . S
C3304 C3302 1.415 . S
C3304 C3309 1.425 . S
C3304 C3311 1.409 . S
C3305 H3297 0.930 . S
C3305 C3303 1.419 . S
C3305 C3306 1.362 . S
C3306 H3298 0.930 . S
C3306 C3305 1.362 . S
C3306 C3309 1.409 . S
C3307 H3299 0.930 . S
C3307 C3308 1.355 . S
C3307 C3309 1.415 . S
C3308 C3307 1.355 . S
C3308 C3310 1.419 . S
C3309 C3304 1.425 . S
C3309 C3306 1.409 . S
C3309 C3307 1.415 . S
C3310 H3300 0.930 . S
C3310 C3308 1.419 . S
C3310 C3311 1.362 . S
C3311 H3301 0.930 . S
C3311 C3304 1.409 . S
C3311 C3310 1.362 . S
H3312 C3318 0.930 . S
H3313 C3321 0.930 . S
H3314 C3322 0.944 . S
H3315 C3323 0.930 . S
H3316 C3326 0.930 . S
H3317 C3327 0.930 . S
C3318 H3312 0.930 . S
C3318 C3319 1.355 . S
C3318 C3320 1.415 . S
C3319 C3318 1.355 . S
C3319 C3321 1.419 . S
C3320 C3318 1.415 . S
C3320 C3325 1.388 1_655 S
C3320 C3327 1.409 . S
C3321 H3313 0.930 . S
C3321 C3319 1.419 . S
C3321 C3322 1.350 1_655 S
C3322 H3314 0.944 . S
C3322 C3321 1.350 1_455 S
C3322 C3325 1.411 . S
C3323 H3315 0.930 . S
C3323 C3324 1.355 . S
C3323 C3325 1.448 . S
C3324 C3323 1.355 . S
C3324 C3326 1.427 . S
C3325 C3320 1.388 1_455 S
C3325 C3322 1.411 . S
C3325 C3323 1.448 . S
C3326 H3316 0.930 . S
C3326 C3324 1.427 . S
C3326 C3327 1.355 1_455 S
C3327 H3317 0.930 . S
C3327 C3320 1.409 . S
C3327 C3326 1.355 1_655 S
H3328 C3334 0.930 . S
H3329 C3337 0.930 . S
H3330 C3338 0.930 1_455 S
H3331 C3339 0.930 . S
H3332 C3342 0.929 . S
H3333 C3343 0.930 . S
C3334 H3328 0.930 . S
C3334 C3335 1.355 . S
C3334 C3336 1.415 . S
C3335 C3334 1.355 . S
C3335 C3337 1.419 . S
C3336 C3334 1.415 . S
C3336 C3341 1.425 . S
C3336 C3343 1.409 . S
C3337 H3329 0.930 . S
C3337 C3335 1.419 . S
C3337 C3338 1.362 . S
C3338 H3330 0.930 1_655 S
C3338 C3337 1.362 . S
C3338 C3341 1.409 . S
C3339 H3331 0.930 . S
C3339 C3340 1.355 . S
C3339 C3341 1.415 1_455 S
C3340 C3339 1.355 . S
C3340 C3342 1.416 . S
C3341 C3336 1.425 . S
C3341 C3338 1.409 . S
C3341 C3339 1.415 1_655 S
C3342 H3332 0.929 . S
C3342 C3340 1.416 . S
C3342 C3343 1.366 1_455 S
C3343 H3333 0.930 . S
C3343 C3336 1.409 . S
C3343 C3342 1.366 1_655 S
H3344 C3350 0.930 . S
H3345 C3353 0.930 . S
H3346 C3354 0.930 . S
H3347 C3355 0.930 . S
H3348 C3358 0.930 . S
H3349 C3359 0.930 . S
C3350 H3344 0.930 . S
C3350 C3351 1.355 . S
C3350 C3352 1.415 . S
C3351 C3350 1.355 . S
C3351 C3353 1.419 . S
C3352 C3350 1.415 . S
C3352 C3357 1.425 . S
C3352 C3359 1.409 . S
C3353 H3345 0.930 . S
C3353 C3351 1.419 . S
C3353 C3354 1.362 . S
C3354 H3346 0.930 . S
C3354 C3353 1.362 . S
C3354 C3357 1.409 . S
C3355 H3347 0.930 . S
C3355 C3356 1.355 . S
C3355 C3357 1.415 . S
C3356 C3355 1.355 . S
C3356 C3358 1.419 . S
C3357 C3352 1.425 . S
C3357 C3354 1.409 . S
C3357 C3355 1.415 . S
C3358 H3348 0.930 . S
C3358 C3356 1.419 . S
C3358 C3359 1.362 . S
C3359 H3349 0.930 . S
C3359 C3352 1.409 . S
C3359 C3358 1.362 . S
H3360 C3366 0.930 . S
H3361 C3369 0.930 . S
H3362 C3370 0.930 . S
H3363 C3371 0.930 . S
H3364 C3374 0.930 . S
H3365 C3375 0.930 . S
C3366 H3360 0.930 . S
C3366 C3367 1.355 . S
C3366 C3368 1.415 . S
C3367 C3366 1.355 . S
C3367 C3369 1.419 . S
C3368 C3366 1.415 . S
C3368 C3373 1.425 . S
C3368 C3375 1.409 . S
C3369 H3361 0.930 . S
C3369 C3367 1.419 . S
C3369 C3370 1.362 . S
C3370 H3362 0.930 . S
C3370 C3369 1.362 . S
C3370 C3373 1.409 . S
C3371 H3363 0.930 . S
C3371 C3372 1.355 . S
C3371 C3373 1.415 . S
C3372 C3371 1.355 . S
C3372 C3374 1.419 . S
C3373 C3368 1.425 . S
C3373 C3370 1.409 . S
C3373 C3371 1.415 . S
C3374 H3364 0.930 . S
C3374 C3372 1.419 . S
C3374 C3375 1.362 . S
C3375 H3365 0.930 . S
C3375 C3368 1.409 . S
C3375 C3374 1.362 . S
H3376 C3382 0.930 . S
H3377 C3385 0.930 . S
H3378 C3386 0.930 1_565 S
H3379 C3387 0.930 . S
H3380 C3390 0.930 . S
H3381 C3391 0.930 . S
C3382 H3376 0.930 . S
C3382 C3383 1.355 . S
C3382 C3384 1.415 . S
C3383 C3382 1.355 . S
C3383 C3385 1.419 . S
C3384 C3382 1.415 . S
C3384 C3389 1.425 . S
C3384 C3391 1.409 . S
C3385 H3377 0.930 . S
C3385 C3383 1.419 . S
C3385 C3386 1.362 . S
C3386 H3378 0.930 1_545 S
C3386 C3385 1.362 . S
C3386 C3389 1.409 . S
C3387 H3379 0.930 . S
C3387 C3388 1.355 . S
C3387 C3389 1.415 1_565 S
C3388 C3387 1.355 . S
C3388 C3390 1.419 1_565 S
C3389 C3384 1.425 . S
C3389 C3386 1.409 . S
C3389 C3387 1.415 1_545 S
C3390 H3380 0.930 . S
C3390 C3388 1.419 1_545 S
C3390 C3391 1.362 . S
C3391 H3381 0.930 . S
C3391 C3384 1.409 . S
C3391 C3390 1.362 . S
H3392 C3398 0.930 . S
H3393 C3401 0.930 . S
H3394 C3402 0.930 . S
H3395 C3403 0.930 . S
H3396 C3406 0.930 . S
H3397 C3407 0.930 . S
C3398 H3392 0.930 . S
C3398 C3399 1.355 . S
C3398 C3400 1.415 . S
C3399 C3398 1.355 . S
C3399 C3401 1.419 . S
C3400 C3398 1.415 . S
C3400 C3405 1.425 . S
C3400 C3407 1.409 . S
C3401 H3393 0.930 . S
C3401 C3399 1.419 . S
C3401 C3402 1.362 . S
C3402 H3394 0.930 . S
C3402 C3401 1.362 . S
C3402 C3405 1.409 . S
C3403 H3395 0.930 . S
C3403 C3404 1.355 . S
C3403 C3405 1.415 . S
C3404 C3403 1.355 . S
C3404 C3406 1.419 . S
C3405 C3400 1.425 . S
C3405 C3402 1.409 . S
C3405 C3403 1.415 . S
C3406 H3396 0.930 . S
C3406 C3404 1.419 . S
C3406 C3407 1.362 . S
C3407 H3397 0.930 . S
C3407 C3400 1.409 . S
C3407 C3406 1.362 . S
H3408 C3414 0.930 . S
H3409 C3417 0.930 . S
H3410 C3418 0.930 . S
H3411 C3419 0.930 . S
H3412 C3422 0.930 . S
H3413 C3423 0.930 . S
C3414 H3408 0.930 . S
C3414 C3415 1.355 . S
C3414 C3416 1.415 . S
C3415 C3414 1.355 . S
C3415 C3417 1.419 . S
C3416 C3414 1.415 . S
C3416 C3421 1.425 1_545 S
C3416 C3423 1.409 . S
C3417 H3409 0.930 . S
C3417 C3415 1.419 . S
C3417 C3418 1.362 1_545 S
C3418 H3410 0.930 . S
C3418 C3417 1.362 1_565 S
C3418 C3421 1.409 . S
C3419 H3411 0.930 . S
C3419 C3420 1.355 . S
C3419 C3421 1.415 . S
C3420 C3419 1.355 . S
C3420 C3422 1.419 . S
C3421 C3416 1.425 1_565 S
C3421 C3418 1.409 . S
C3421 C3419 1.415 . S
C3422 H3412 0.930 . S
C3422 C3420 1.419 . S
C3422 C3423 1.362 1_565 S
C3423 H3413 0.930 . S
C3423 C3416 1.409 . S
C3423 C3422 1.362 1_545 S
H3424 C3430 0.930 . S
H3425 C3433 0.930 . S
H3426 C3434 0.930 . S
H3427 C3435 0.930 . S
H3428 C3438 0.930 . S
H3429 C3439 0.930 . S
C3430 H3424 0.930 . S
C3430 C3431 1.355 . S
C3430 C3432 1.415 1_556 S
C3431 C3430 1.355 . S
C3431 C3433 1.419 . S
C3432 C3430 1.415 1_554 S
C3432 C3437 1.425 . S
C3432 C3439 1.409 . S
C3433 H3425 0.930 . S
C3433 C3431 1.419 . S
C3433 C3434 1.362 . S
C3434 H3426 0.930 . S
C3434 C3433 1.362 . S
C3434 C3437 1.409 1_556 S
C3435 H3427 0.930 . S
C3435 C3436 1.355 . S
C3435 C3437 1.415 . S
C3436 C3435 1.355 . S
C3436 C3438 1.419 . S
C3437 C3432 1.425 . S
C3437 C3434 1.409 1_554 S
C3437 C3435 1.415 . S
C3438 H3428 0.930 . S
C3438 C3436 1.419 . S
C3438 C3439 1.362 . S
C3439 H3429 0.930 . S
C3439 C3432 1.409 . S
C3439 C3438 1.362 . S
H3440 C3446 0.930 . S
H3441 C3449 0.930 . S
H3442 C3450 0.932 1_554 S
H3443 C3451 0.930 . S
H3444 C3454 0.925 1_554 S
H3445 C3455 0.930 . S
C3446 H3440 0.930 . S
C3446 C3447 1.355 . S
C3446 C3448 1.415 . S
C3447 C3446 1.355 . S
C3447 C3449 1.419 . S
C3448 C3446 1.415 . S
C3448 C3453 1.425 . S
C3448 C3455 1.409 . S
C3449 H3441 0.930 . S
C3449 C3447 1.419 . S
C3449 C3450 1.362 . S
C3450 H3442 0.932 1_556 S
C3450 C3449 1.362 . S
C3450 C3453 1.409 . S
C3451 H3443 0.930 . S
C3451 C3452 1.355 . S
C3451 C3453 1.415 1_554 S
C3452 C3451 1.355 . S
C3452 C3454 1.394 1_554 S
C3453 C3448 1.425 . S
C3453 C3450 1.409 . S
C3453 C3451 1.415 1_556 S
C3454 H3444 0.925 1_556 S
C3454 C3452 1.394 1_556 S
C3454 C3455 1.394 . S
C3455 H3445 0.930 . S
C3455 C3448 1.409 . S
C3455 C3454 1.394 . S
H3456 C3462 0.930 . S
H3457 C3465 0.930 . S
H3458 C3466 0.930 . S
H3459 C3467 0.930 . S
H3460 C3470 0.930 . S
H3461 C3471 0.930 . S
C3462 H3456 0.930 . S
C3462 C3463 1.355 . S
C3462 C3464 1.415 . S
C3463 C3462 1.355 . S
C3463 C3465 1.419 . S
C3464 C3462 1.415 . S
C3464 C3469 1.425 . S
C3464 C3471 1.409 . S
C3465 H3457 0.930 . S
C3465 C3463 1.419 . S
C3465 C3466 1.362 . S
C3466 H3458 0.930 . S
C3466 C3465 1.362 . S
C3466 C3469 1.409 . S
C3467 H3459 0.930 . S
C3467 C3468 1.355 . S
C3467 C3469 1.415 . S
C3468 C3467 1.355 . S
C3468 C3470 1.419 . S
C3469 C3464 1.425 . S
C3469 C3466 1.409 . S
C3469 C3467 1.415 . S
C3470 H3460 0.930 . S
C3470 C3468 1.419 . S
C3470 C3471 1.362 . S
C3471 H3461 0.930 . S
C3471 C3464 1.409 . S
C3471 C3470 1.362 . S
H3472 C3478 0.930 . S
H3473 C3481 0.930 . S
H3474 C3482 0.930 . S
H3475 C3483 0.930 . S
H3476 C3486 0.930 . S
H3477 C3487 0.930 . S
C3478 H3472 0.930 . S
C3478 C3479 1.355 . S
C3478 C3480 1.415 . S
C3479 C3478 1.355 . S
C3479 C3481 1.419 . S
C3480 C3478 1.415 . S
C3480 C3485 1.425 . S
C3480 C3487 1.409 . S
C3481 H3473 0.930 . S
C3481 C3479 1.419 . S
C3481 C3482 1.362 . S
C3482 H3474 0.930 . S
C3482 C3481 1.362 . S
C3482 C3485 1.409 . S
C3483 H3475 0.930 . S
C3483 C3484 1.355 . S
C3483 C3485 1.415 . S
C3484 C3483 1.355 . S
C3484 C3486 1.419 . S
C3485 C3480 1.425 . S
C3485 C3482 1.409 . S
C3485 C3483 1.415 . S
C3486 H3476 0.930 . S
C3486 C3484 1.419 . S
C3486 C3487 1.362 . S
C3487 H3477 0.930 . S
C3487 C3480 1.409 . S
C3487 C3486 1.362 . S
H3488 C3494 0.930 . S
H3489 C3497 0.930 . S
H3490 C3498 0.930 . S
H3491 C3499 0.930 . S
H3492 C3502 0.930 . S
H3493 C3503 0.930 . S
C3494 H3488 0.930 . S
C3494 C3495 1.355 . S
C3494 C3496 1.415 . S
C3495 C3494 1.355 . S
C3495 C3497 1.419 . S
C3496 C3494 1.415 . S
C3496 C3501 1.425 . S
C3496 C3503 1.409 . S
C3497 H3489 0.930 . S
C3497 C3495 1.419 . S
C3497 C3498 1.362 . S
C3498 H3490 0.930 . S
C3498 C3497 1.362 . S
C3498 C3501 1.409 . S
C3499 H3491 0.930 . S
C3499 C3500 1.355 . S
C3499 C3501 1.415 . S
C3500 C3499 1.355 . S
C3500 C3502 1.419 . S
C3501 C3496 1.425 . S
C3501 C3498 1.409 . S
C3501 C3499 1.415 . S
C3502 H3492 0.930 . S
C3502 C3500 1.419 . S
C3502 C3503 1.362 . S
C3503 H3493 0.930 . S
C3503 C3496 1.409 . S
C3503 C3502 1.362 . S
C1591 N2 1.023 . S
C1596 C1275 0.958 . S
C1607 N35 0.943 . S
C1612 C1195 0.949 . S
C1623 N79 0.833 . S
C1628 C1572 0.792 . S
C1639 C1129 1.288 . S
C1644 N112 1.250 . S
C1655 N134 1.088 . S
C1660 C1327 1.079 . S
C1671 C1077 0.986 . S
C1676 N178 0.948 . S
C1687 N211 1.093 . S
C1692 C1360 1.124 . S
C1703 N233 0.902 . S
C1708 C1011 0.792 . S
C1719 C997 1.052 . S
C1724 N277 1.000 1_655 S
C1735 N310 1.195 . S
C1740 C1341 1.242 . S
C1751 N332 1.121 . S
C1756 C1063 1.068 . S
C1767 C1374 1.052 . S
C1772 N376 1.024 . S
C1783 N409 1.037 . S
C1788 C1209 1.037 . S
C1799 N431 0.973 . S
C1804 C1558 0.936 . S
C1815 C1143 0.979 . S
C1820 N464 0.973 . S
C1831 N497 0.912 . S
C1836 C1261 0.779 . S
C1847 C799 1.139 . S
C1852 N365 1.162 . S
C1863 C700 0.982 . S
C1868 N541 0.964 . S
C1879 N574 1.130 . S
C1884 C912 1.156 . S
C1895 C780 0.880 . S
C1900 N607 0.860 . S
C1911 C813 1.119 . S
C1916 N398 1.109 . S
C1927 N299 1.335 . S
C1932 C733 1.057 . S
C1943 C766 0.851 . S
C1948 N640 0.811 . S
C1959 C714 0.924 . S
C1964 N662 1.017 . S
C1975 C568 1.163 . S
C1980 N695 1.265 . S
C1991 C502 0.949 . S
C1996 N739 0.963 . S
C2007 C1473 0.760 . S
C2012 N772 0.723 . S
C2023 N805 0.998 . S
C2028 C436 1.027 . S
C2039 C634 1.096 . S
C2044 N827 1.261 . S
C2055 N871 1.186 . S
C2060 C384 1.224 . S
C2071 C681 0.759 . S
C2076 N893 0.717 . S
C2087 C318 1.042 . S
C2092 N926 1.072 . S
C2103 C304 0.795 . S
C2108 N959 0.689 1_455 S
C2119 C648 1.074 . S
C2124 N1003 1.019 . S
C2135 N1025 0.926 . S
C2140 C370 0.953 . S
C2151 N1069 1.353 . S
C2156 C667 1.363 . S
C2167 N1102 1.044 . S
C2172 C516 1.059 . S
C2183 N1124 0.980 . S
C2188 C1459 0.951 . S
C2199 N1168 1.241 . S
C2204 C450 1.257 . S
C2215 N1190 0.801 . S
C2220 C582 0.814 . S
C2231 C106 1.233 . S
C2236 N1058 1.254 . S
C2247 C7 0.868 . S
C2252 N1234 0.837 . S
C2263 C205 0.889 . S
C2268 N1256 1.086 . S
C2279 C87 0.921 . S
C2284 N1300 0.912 . S
C2295 N1091 1.045 . S
C2300 C120 1.041 . S
C2311 C54 0.982 . S
C2316 N992 1.175 . S
C2327 C73 0.832 . S
C2332 N1333 0.843 . S
C2343 N1366 1.020 . S
C2348 C21 1.085 . S
C2359 C1176 0.882 . S
C2364 N167 1.013 . S
C2375 C1294 0.855 . S
C2380 N200 0.926 . S
C2391 N244 0.779 . S
C2396 C1110 0.845 . S
C2407 C1228 1.197 . S
C2412 N145 1.175 . S
C2423 N101 1.083 . S
C2428 C1030 0.940 . S
C2439 N13 0.970 . S
C2444 C1539 0.986 . S
C2455 C964 1.219 . S
C2460 N46 1.175 . S
C2471 N68 0.903 . S
C2476 C1506 0.782 . S
C2487 N673 1.063 . S
C2492 C1492 1.072 . S
C2503 N1399 1.075 . S
C2508 C1044 1.123 . S
C2519 N629 1.139 . S
C2524 C1525 1.034 . S
C2535 C978 0.966 . S
C2540 N1432 0.905 . S
C2551 N1465 1.032 . S
C2556 C1308 1.022 . S
C2567 N530 0.964 . S
C2572 C1096 0.975 . S
C2583 C1242 0.989 . S
C2588 N563 0.977 . S
C2599 N596 0.909 . S
C2604 C1162 0.883 . S
C2615 C832 1.043 . S
C2620 N1421 1.174 . S
C2631 N442 0.875 . S
C2636 C865 0.927 . S
C2647 N475 0.959 . S
C2652 C747 1.014 . S
C2663 C945 0.883 . S
C2668 N508 0.881 . S
C2679 C846 1.034 . S
C2684 N1454 1.120 . S
C2695 C898 1.182 . S
C2700 N1388 1.372 . S
C2711 N343 0.921 . S
C2716 C931 0.932 . S
C2727 C879 1.023 . S
C2732 N266 1.020 . S
C2743 C469 1.164 . S
C2748 N860 1.234 . S
C2759 C601 1.009 . S
C2764 N904 0.998 . S
C2775 C417 0.753 . S
C2780 N937 0.724 . S
C2791 N838 0.894 . S
C2796 C535 0.883 . S
C2807 C337 1.226 . S
C2812 N794 1.271 . S
C2823 N706 1.061 . S
C2828 C1440 1.135 . S
C2839 C285 0.658 . S
C2844 N728 0.731 . S
C2855 C1407 1.049 . S
C2860 N761 1.072 . S
C2871 C1393 0.708 . S
C2876 N1355 0.717 . S
C2887 N1498 1.053 . S
C2892 C351 1.042 . S
C2903 C1426 0.883 . S
C2908 N1322 0.948 . S
C2919 N1531 1.341 . S
C2924 C271 1.338 . S
C2935 C615 1.066 . S
C2940 N1564 1.066 . S
C2951 C403 0.998 . S
C2956 N1223 0.990 . S
C2967 N1267 1.268 . S
C2972 C549 1.276 . S
C2983 C483 0.845 . S
C2988 N1289 0.799 . S
C2999 N1520 1.270 . S
C3004 C139 1.134 . S
C3015 C172 0.983 . S
C3020 N1135 0.989 . S
C3031 C40 1.027 . S
C3036 N1157 1.105 . S
C3047 N1201 0.971 . S
C3052 C252 1.028 . S
C3063 N1553 1.049 . S
C3068 C153 0.957 . S
C3079 N1487 1.224 . S
C3084 C219 1.092 . S
C3095 N1036 0.861 . S
C3100 C238 0.839 . S
C3111 C186 0.986 . S
C3116 N970 0.942 . S
C3127 C249 2.723 . S
C3132 C18 2.723 . S
C3143 C150 2.555 . S
C3148 C51 2.554 . S
C3159 C183 2.717 . S
C3164 C84 2.722 . S
C3175 C216 2.559 . S
C3180 C117 2.559 . S
C3191 C414 2.582 . S
C3196 C282 2.584 . S
C3207 C447 2.627 . S
C3212 C315 2.627 . S
C3223 C480 2.637 . S
C3228 C348 2.638 . S
C3239 C513 2.732 . S
C3244 C381 2.733 . S
C3255 C1404 2.626 . S
C3260 C546 2.629 . S
C3271 C579 2.633 . S
C3276 C645 2.631 . S
C3287 C612 2.733 . S
C3292 C1437 2.734 . S
C3303 C678 2.586 . S
C3308 C1470 2.583 . S
C3319 C711 2.586 . S
C3324 C942 2.592 . S
C3335 C843 2.756 . S
C3340 C744 2.752 . S
C3351 C876 2.593 . S
C3356 C777 2.592 . S
C3367 C909 2.746 . S
C3372 C810 2.754 . S
C3383 C1107 2.699 . S
C3388 C975 2.705 . S
C3399 C1008 2.633 . S
C3404 C1140 2.631 . S
C3415 C1041 2.605 . S
C3420 C1173 2.605 . S
C3431 C1074 2.583 . S
C3436 C1206 2.583 . S
C3447 C1503 2.626 . S
C3452 C1239 2.630 . S
C3463 C1338 2.605 . S
C3468 C1272 2.606 . S
C3479 C1305 2.584 . S
C3484 C1536 2.583 . S
C3495 C1569 2.706 . S
C3500 C1371 2.707 . S
