# Generated by pormake.
# Topology wjf, (4)-cn, num edge types: 1
# Building blocks:
#     Node 0, Type 0, BuildingBlock: UXUYUI_clean_sbu_0, # of connection points: 4
#     Node 1, Type 0, BuildingBlock: UXUYUI_clean_sbu_0, # of connection points: 4
#     Node 2, Type 0, BuildingBlock: UXUYUI_clean_sbu_0, # of connection points: 4
#     Node 3, Type 0, BuildingBlock: UXUYUI_clean_sbu_0, # of connection points: 4
#     Node 4, Type 0, BuildingBlock: UXUYUI_clean_sbu_0, # of connection points: 4
#     Node 5, Type 0, BuildingBlock: UXUYUI_clean_sbu_0, # of connection points: 4
#     Node 6, Type 0, BuildingBlock: UXUYUI_clean_sbu_0, # of connection points: 4
#     Node 7, Type 0, BuildingBlock: UXUYUI_clean_sbu_0, # of connection points: 4
#     Node 8, Type 0, BuildingBlock: UXUYUI_clean_sbu_0, # of connection points: 4
#     Node 9, Type 0, BuildingBlock: UXUYUI_clean_sbu_0, # of connection points: 4
#     Node 10, Type 0, BuildingBlock: UXUYUI_clean_sbu_0, # of connection points: 4
#     Node 11, Type 0, BuildingBlock: UXUYUI_clean_sbu_0, # of connection points: 4
#     Edge 12, Type (0, 0), BuildingBlock: EZIPEK_clean_linker_0, # of connection points: 2
#     Edge 13, Type (0, 0), BuildingBlock: EZIPEK_clean_linker_0, # of connection points: 2
#     Edge 14, Type (0, 0), BuildingBlock: EZIPEK_clean_linker_0, # of connection points: 2
#     Edge 15, Type (0, 0), BuildingBlock: EZIPEK_clean_linker_0, # of connection points: 2
#     Edge 16, Type (0, 0), BuildingBlock: EZIPEK_clean_linker_0, # of connection points: 2
#     Edge 17, Type (0, 0), BuildingBlock: EZIPEK_clean_linker_0, # of connection points: 2
#     Edge 18, Type (0, 0), BuildingBlock: EZIPEK_clean_linker_0, # of connection points: 2
#     Edge 19, Type (0, 0), BuildingBlock: EZIPEK_clean_linker_0, # of connection points: 2
#     Edge 20, Type (0, 0), BuildingBlock: EZIPEK_clean_linker_0, # of connection points: 2
#     Edge 21, Type (0, 0), BuildingBlock: EZIPEK_clean_linker_0, # of connection points: 2
#     Edge 22, Type (0, 0), BuildingBlock: EZIPEK_clean_linker_0, # of connection points: 2
#     Edge 23, Type (0, 0), BuildingBlock: EZIPEK_clean_linker_0, # of connection points: 2
#     Edge 24, Type (0, 0), BuildingBlock: EZIPEK_clean_linker_0, # of connection points: 2
#     Edge 25, Type (0, 0), BuildingBlock: EZIPEK_clean_linker_0, # of connection points: 2
#     Edge 26, Type (0, 0), BuildingBlock: EZIPEK_clean_linker_0, # of connection points: 2
#     Edge 27, Type (0, 0), BuildingBlock: EZIPEK_clean_linker_0, # of connection points: 2
#     Edge 28, Type (0, 0), BuildingBlock: EZIPEK_clean_linker_0, # of connection points: 2
#     Edge 29, Type (0, 0), BuildingBlock: EZIPEK_clean_linker_0, # of connection points: 2
#     Edge 30, Type (0, 0), BuildingBlock: EZIPEK_clean_linker_0, # of connection points: 2
#     Edge 31, Type (0, 0), BuildingBlock: EZIPEK_clean_linker_0, # of connection points: 2
#     Edge 32, Type (0, 0), BuildingBlock: EZIPEK_clean_linker_0, # of connection points: 2
#     Edge 33, Type (0, 0), BuildingBlock: EZIPEK_clean_linker_0, # of connection points: 2
#     Edge 34, Type (0, 0), BuildingBlock: EZIPEK_clean_linker_0, # of connection points: 2
#     Edge 35, Type (0, 0), BuildingBlock: EZIPEK_clean_linker_0, # of connection points: 2
# Relax obj value: 0.355
# Max RMSD: 0.304
# Mean RMSD: 0.304
data_MOF--net-wjf--node1-UXUYUI_clean_sbu_0--edge1-EZIPEK_clean_linker_0
_symmetry_space_group_name_H-M    P1
_symmetry_Int_Tables_number       1
_symmetry_cell_setting            triclinic
loop_
_symmetry_equiv_pos_as_xyz
'x, y, z'
_cell_length_a     60.080916
_cell_length_b     60.058612
_cell_length_c     31.908086
_cell_angle_alpha  90.005532
_cell_angle_beta   90.000441
_cell_angle_gamma 119.98512
loop_
_atom_site_label
_atom_site_type_symbol
_atom_site_fract_x
_atom_site_fract_y
_atom_site_fract_z
_atom_type_partial_charge
Li0 Li 0.30818 0.3982 0.07939 0.0
Li1 Li 0.31808 0.36987 0.12731 0.0
Li2 Li 0.35155 0.40489 0.08706 0.0
Li3 Li 0.31967 0.36773 0.05216 0.0
C4 C 0.34645 0.43201 0.1453 0.0
N5 N 0.38254 0.4811 0.17019 0.0
C6 C 0.36315 0.43562 0.17843 0.0
C7 C 0.34801 0.45336 0.12497 0.0
C8 C 0.38131 0.46059 0.19047 0.0
C9 C 0.36638 0.47802 0.13804 0.0
C10 C 0.27066 0.33844 0.06713 0.0
C11 C 0.2507 0.29315 0.05169 0.0
N12 N 0.23471 0.29547 0.0241 0.0
C13 C 0.25386 0.34031 0.03897 0.0
C14 C 0.26892 0.31463 0.07387 0.0
C15 C 0.23588 0.31839 0.0174 0.0
C16 C 0.28182 0.4119 0.02544 0.0
N17 N 0.28746 0.41268 0.06683 0.0
C18 C 0.25965 0.42908 0.08383 0.0
C19 C 0.27728 0.42152 0.09602 0.0
C20 C 0.25237 0.42687 0.04152 0.0
C21 C 0.26407 0.41879 0.01203 0.0
H22 H 0.29023 0.40472 0.00308 0.0
H23 H 0.28217 0.42188 0.12874 0.0
C24 C 0.33419 0.36083 0.20187 0.0
N25 N 0.31244 0.35281 0.17902 0.0
C26 C 0.33318 0.34986 0.24068 0.0
C27 C 0.28741 0.32175 0.23122 0.0
C28 C 0.28926 0.33359 0.19255 0.0
C29 C 0.3096 0.33021 0.25578 0.0
H30 H 0.35239 0.37567 0.18961 0.0
H31 H 0.27236 0.32741 0.1733 0.0
C32 C 0.34948 0.41395 0.00253 0.0
N33 N 0.38325 0.43496 0.9362 0.0
C34 C 0.36525 0.40401 0.99126 0.0
C35 C 0.35077 0.43451 0.97998 0.0
C36 C 0.38227 0.41494 0.95772 0.0
C37 C 0.36797 0.44486 0.94652 0.0
C38 C 0.35258 0.35189 0.0898 0.0
C39 C 0.37525 0.35781 0.06854 0.0
C40 C 0.33805 0.3277 0.10833 0.0
C41 C 0.38263 0.33921 0.06529 0.0
C42 C 0.34611 0.30964 0.10445 0.0
N43 N 0.36802 0.3157 0.08312 0.0
C44 C 0.40238 0.42294 0.11025 0.0
C45 C 0.3967 0.45296 0.06995 0.0
C46 C 0.42884 0.43962 0.11177 0.0
N47 N 0.38702 0.42971 0.0891 0.0
C48 C 0.42307 0.47032 0.0709 0.0
C49 C 0.43932 0.46346 0.09166 0.0
H50 H 0.39405 0.40446 0.12567 0.0
H51 H 0.38398 0.45796 0.05384 0.0
C52 C 0.30286 0.35514 0.97158 0.0
N53 N 0.31281 0.34737 0.00283 0.0
C54 C 0.30123 0.34607 0.93095 0.0
C55 C 0.31831 0.31956 0.95579 0.0
C56 C 0.31959 0.32916 0.99616 0.0
C57 C 0.30992 0.32884 0.92265 0.0
H58 H 0.29759 0.36959 0.9778 0.0
H59 H 0.32721 0.32303 0.02136 0.0
O60 O 0.32921 0.40775 0.13185 0.0
O61 O 0.28885 0.35982 0.08773 0.0
O62 O 0.33305 0.40395 0.03584 0.0
O63 O 0.34523 0.37 0.09369 0.0
H64 H 0.36228 0.41935 0.19443 0.0
H65 H 0.33547 0.45093 0.09892 0.0
H66 H 0.39448 0.46368 0.21587 0.0
H67 H 0.36791 0.49472 0.12242 0.0
H68 H 0.24927 0.27464 0.05639 0.0
H69 H 0.25474 0.3585 0.03362 0.0
H70 H 0.28157 0.31276 0.09581 0.0
H71 H 0.22287 0.31961 0.99531 0.0
H72 H 0.25078 0.43521 0.10721 0.0
H73 H 0.25875 0.41689 0.97923 0.0
H74 H 0.35065 0.35656 0.25876 0.0
H75 H 0.269 0.30641 0.24203 0.0
H76 H 0.36433 0.38802 0.00819 0.0
H77 H 0.33874 0.44249 0.98844 0.0
H78 H 0.39464 0.40746 0.94874 0.0
H79 H 0.36922 0.46081 0.92882 0.0
H80 H 0.38712 0.37661 0.05484 0.0
H81 H 0.32079 0.32288 0.12564 0.0
H82 H 0.40004 0.3435 0.04873 0.0
H83 H 0.33497 0.29081 0.11848 0.0
H84 H 0.44103 0.43396 0.12813 0.0
H85 H 0.43078 0.48871 0.05523 0.0
H86 H 0.29486 0.35369 0.90581 0.0
H87 H 0.32532 0.30636 0.95 0.0
Li88 Li 0.95176 0.32288 0.45527 0.0
Li89 Li 0.91539 0.31453 0.40863 0.0
Li90 Li 0.95658 0.32444 0.37967 0.0
Li91 Li 0.95107 0.35754 0.41326 0.0
C92 C 0.93174 0.27378 0.3945 0.0
N93 N 0.92919 0.2329 0.35047 0.0
C94 C 0.9119 0.26018 0.36577 0.0
C95 C 0.95012 0.26637 0.40113 0.0
C96 C 0.91097 0.23963 0.34376 0.0
C97 C 0.94856 0.24573 0.37847 0.0
C98 C 0.9051 0.32868 0.47996 0.0
C99 C 0.8644 0.32713 0.48716 0.0
N100 N 0.85851 0.31078 0.52015 0.0
C101 C 0.89871 0.31195 0.51402 0.0
C102 C 0.8879 0.33645 0.46649 0.0
C103 C 0.87504 0.30309 0.53391 0.0
C104 C 0.9744 0.33829 0.532 0.0
N105 N 0.96253 0.31703 0.50747 0.0
C106 C 0.96906 0.29193 0.55886 0.0
C107 C 0.95956 0.29403 0.51991 0.0
C108 C 0.98136 0.31369 0.58471 0.0
C109 C 0.984 0.33704 0.57103 0.0
H110 H 0.97649 0.35627 0.52096 0.0
H111 H 0.95005 0.27749 0.49952 0.0
C112 C 0.87112 0.29598 0.35995 0.0
N113 N 0.87973 0.29333 0.39801 0.0
C114 C 0.84724 0.27708 0.34517 0.0
C115 C 0.84072 0.25393 0.41025 0.0
C116 C 0.86493 0.27315 0.4236 0.0
C117 C 0.83221 0.2554 0.36992 0.0
H118 H 0.88355 0.31173 0.33969 0.0
H119 H 0.87263 0.27105 0.453 0.0
C120 C 0.00411 0.35432 0.42172 0.0
N121 N 0.05366 0.36252 0.42403 0.0
C122 C 0.0247 0.37774 0.40827 0.0
C123 C 0.00878 0.33515 0.43662 0.0
C124 C 0.04959 0.38149 0.40955 0.0
C125 C 0.03394 0.33964 0.43753 0.0
C126 C 0.93604 0.35679 0.33649 0.0
C127 C 0.95528 0.36709 0.30597 0.0
C128 C 0.91937 0.36654 0.34107 0.0
C129 C 0.95755 0.38704 0.2805 0.0
C130 C 0.92234 0.38659 0.31512 0.0
N131 N 0.9412 0.39632 0.28561 0.0
C132 C 0.9521 0.30603 0.3004 0.0
C133 C 0.99522 0.3247 0.32396 0.0
C134 C 0.95932 0.3038 0.25991 0.0
N135 N 0.97005 0.317 0.33113 0.0
C136 C 0.00335 0.323 0.28365 0.0
C137 C 0.98531 0.31329 0.25104 0.0
H138 H 0.93236 0.30067 0.3067 0.0
H139 H 0.00925 0.33359 0.34853 0.0
C140 C 0.9511 0.40263 0.44009 0.0
N141 N 0.96204 0.39321 0.41339 0.0
C142 C 0.95975 0.42898 0.44109 0.0
C143 C 0.99054 0.43528 0.3869 0.0
C144 C 0.98145 0.4089 0.38717 0.0
C145 C 0.97971 0.44547 0.41426 0.0
H146 H 0.93588 0.38974 0.46088 0.0
H147 H 0.98991 0.4009 0.36652 0.0
O148 O 0.93311 0.29416 0.41607 0.0
O149 O 0.92802 0.33731 0.45977 0.0
O150 O 0.97965 0.35045 0.42091 0.0
O151 O 0.93374 0.3375 0.36216 0.0
H152 H 0.89755 0.26561 0.35998 0.0
H153 H 0.96543 0.27636 0.42353 0.0
H154 H 0.89581 0.22907 0.32126 0.0
H155 H 0.96274 0.23988 0.38319 0.0
H156 H 0.85083 0.33287 0.47694 0.0
H157 H 0.9118 0.30572 0.52481 0.0
H158 H 0.89257 0.34938 0.44014 0.0
H159 H 0.86978 0.29006 0.56022 0.0
H160 H 0.96687 0.27369 0.56875 0.0
H161 H 0.99348 0.35412 0.59038 0.0
H162 H 0.84125 0.27857 0.31376 0.0
H163 H 0.82959 0.23722 0.42981 0.0
H164 H 0.02154 0.3929 0.39694 0.0
H165 H 0.99319 0.31699 0.44725 0.0
H166 H 0.06568 0.39949 0.39909 0.0
H167 H 0.03778 0.32493 0.44893 0.0
H168 H 0.96861 0.36009 0.30247 0.0
H169 H 0.90446 0.35888 0.3647 0.0
H170 H 0.97243 0.39526 0.25686 0.0
H171 H 0.90968 0.39443 0.31849 0.0
H172 H 0.94508 0.29661 0.23512 0.0
H173 H 0.02362 0.33078 0.27738 0.0
H174 H 0.95114 0.43645 0.46262 0.0
H175 H 0.00603 0.44765 0.36597 0.0
Li176 Li 0.62647 0.94431 0.78795 0.0
Li177 Li 0.60095 0.90839 0.74522 0.0
Li178 Li 0.62805 0.94845 0.71283 0.0
Li179 Li 0.5895 0.9411 0.75201 0.0
C180 C 0.66523 0.94065 0.74798 0.0
N181 N 0.71829 0.96556 0.75025 0.0
C182 C 0.67796 0.92657 0.74557 0.0
C183 C 0.6795 0.96743 0.75148 0.0
C184 C 0.70479 0.93951 0.74679 0.0
C185 C 0.7063 0.97966 0.75259 0.0
C186 C 0.5875 0.90254 0.8294 0.0
C187 C 0.56738 0.88084 0.89387 0.0
N188 N 0.58381 0.87149 0.89603 0.0
C189 C 0.60419 0.89271 0.83226 0.0
C190 C 0.56894 0.89658 0.86043 0.0
C191 C 0.60202 0.87705 0.86618 0.0
C192 C 0.63942 0.97355 0.85912 0.0
N193 N 0.64469 0.95688 0.83874 0.0
C194 C 0.67243 0.95893 0.89415 0.0
C195 C 0.66088 0.94946 0.85518 0.0
C196 C 0.66683 0.9758 0.91606 0.0
C197 C 0.65037 0.98333 0.89806 0.0
H198 H 0.62629 0.97888 0.8453 0.0
H199 H 0.66447 0.93591 0.83846 0.0
C200 C 0.60295 0.86923 0.70568 0.0
N201 N 0.58849 0.8731 0.73426 0.0
C202 C 0.59522 0.84461 0.69112 0.0
C203 C 0.55781 0.82816 0.73603 0.0
C204 C 0.56632 0.85328 0.74984 0.0
C205 C 0.5724 0.82385 0.70617 0.0
H206 H 0.62027 0.88547 0.69352 0.0
H207 H 0.55502 0.85704 0.7721 0.0
C208 C 0.62526 0.99225 0.73737 0.0
N209 N 0.62485 0.03432 0.7032 0.0
C210 C 0.61271 0.98996 0.69932 0.0
C211 C 0.63752 0.01591 0.75806 0.0
C212 C 0.61275 0.01146 0.68256 0.0
C213 C 0.63714 0.03697 0.74025 0.0
C214 C 0.57103 0.90411 0.68157 0.0
C215 C 0.57341 0.89588 0.6417 0.0
C216 C 0.54776 0.89065 0.70319 0.0
C217 C 0.55247 0.8742 0.62421 0.0
C218 C 0.52726 0.86909 0.6846 0.0
N219 N 0.53003 0.86137 0.64584 0.0
C220 C 0.6457 0.94522 0.63519 0.0
C221 C 0.66165 0.98856 0.65578 0.0
C222 C 0.65504 0.95288 0.59467 0.0
N223 N 0.64807 0.96292 0.66403 0.0
C224 C 0.67122 0.9971 0.61553 0.0
C225 C 0.66698 0.97898 0.58429 0.0
H226 H 0.63532 0.92503 0.64314 0.0
H227 H 0.6639 0.0023 0.67962 0.0
C228 C 0.5642 0.96361 0.79108 0.0
N229 N 0.56423 0.95106 0.75563 0.0
C230 C 0.54848 0.97452 0.79392 0.0
C231 C 0.53267 0.95878 0.72411 0.0
C232 C 0.54892 0.94845 0.72241 0.0
C233 C 0.53267 0.97223 0.76 0.0
H234 H 0.57705 0.96584 0.81655 0.0
H235 H 0.54996 0.93914 0.6941 0.0
O236 O 0.63895 0.92801 0.74694 0.0
O237 O 0.58931 0.9182 0.79684 0.0
O238 O 0.62488 0.97134 0.75521 0.0
O239 O 0.59146 0.92492 0.69979 0.0
H240 H 0.66718 0.90583 0.74286 0.0
H241 H 0.67012 0.97874 0.75345 0.0
H242 H 0.71489 0.92884 0.74499 0.0
H243 H 0.71757 0.00035 0.75535 0.0
H244 H 0.55311 0.87608 0.91812 0.0
H245 H 0.61871 0.89708 0.80868 0.0
H246 H 0.55593 0.90411 0.85871 0.0
H247 H 0.61482 0.86933 0.86879 0.0
H248 H 0.68507 0.9528 0.90748 0.0
H249 H 0.64572 0.99631 0.91437 0.0
H250 H 0.6068 0.84177 0.66805 0.0
H251 H 0.54006 0.81238 0.74806 0.0
H252 H 0.60306 0.97182 0.68283 0.0
H253 H 0.64716 0.01795 0.78767 0.0
H254 H 0.60312 0.00996 0.65317 0.0
H255 H 0.64655 0.0554 0.75594 0.0
H256 H 0.59118 0.90609 0.62437 0.0
H257 H 0.54567 0.89659 0.73428 0.0
H258 H 0.55407 0.86756 0.59344 0.0
H259 H 0.50919 0.85842 0.70108 0.0
H260 H 0.65151 0.93853 0.57104 0.0
H261 H 0.68041 0.01739 0.60817 0.0
H262 H 0.54895 0.98499 0.82185 0.0
H263 H 0.52082 0.95702 0.69732 0.0
Li264 Li 0.6741 0.62578 0.1135 0.0
Li265 Li 0.67838 0.59432 0.06711 0.0
Li266 Li 0.66907 0.62526 0.03779 0.0
Li267 Li 0.63702 0.58995 0.07601 0.0
C268 C 0.71917 0.65048 0.04638 0.0
N269 N 0.75635 0.68705 0.99471 0.0
C270 C 0.72804 0.64294 0.01171 0.0
C271 C 0.72921 0.67661 0.05483 0.0
C272 C 0.74684 0.66172 0.98595 0.0
C273 C 0.74801 0.69481 0.02831 0.0
C274 C 0.66871 0.57445 0.14119 0.0
C275 C 0.67133 0.53604 0.15153 0.0
N276 N 0.68995 0.54854 0.18084 0.0
C277 C 0.68784 0.58691 0.17146 0.0
C278 C 0.66032 0.54879 0.13119 0.0
C279 C 0.69834 0.57347 0.19115 0.0
C280 C 0.66158 0.63466 0.19079 0.0
N281 N 0.68221 0.64378 0.16486 0.0
C282 C 0.70857 0.67571 0.21508 0.0
C283 C 0.70553 0.66381 0.17606 0.0
C284 C 0.68744 0.66654 0.24231 0.0
C285 C 0.66378 0.64581 0.22988 0.0
H286 H 0.64334 0.61871 0.18082 0.0
H287 H 0.72163 0.67054 0.15481 0.0
C288 C 0.69291 0.5635 0.02169 0.0
N289 N 0.69877 0.57906 0.05576 0.0
C290 C 0.71103 0.5579 0.00511 0.0
C291 C 0.74045 0.58348 0.06018 0.0
C292 C 0.7217 0.58849 0.07583 0.0
C293 C 0.7354 0.56884 0.02355 0.0
H294 H 0.67504 0.55716 0.00527 0.0
H295 H 0.72615 0.60155 0.10191 0.0
C296 C 0.64364 0.64708 0.06963 0.0
N297 N 0.63841 0.68856 0.04622 0.0
C298 C 0.62879 0.64535 0.03469 0.0
C299 C 0.65578 0.66992 0.09269 0.0
C300 C 0.62642 0.66653 0.02334 0.0
C301 C 0.65289 0.69067 0.08036 0.0
C302 C 0.63154 0.56971 0.00445 0.0
C303 C 0.6174 0.57612 0.97714 0.0
C304 C 0.6227 0.54386 0.01376 0.0
C305 C 0.59473 0.55657 0.95948 0.0
C306 C 0.59992 0.52488 0.99552 0.0
N307 N 0.58653 0.53158 0.96897 0.0
C308 C 0.67455 0.6331 0.95221 0.0
C309 C 0.68356 0.67135 0.98785 0.0
C310 C 0.67683 0.64476 0.91361 0.0
N311 N 0.67663 0.64601 0.98832 0.0
C312 C 0.68634 0.68395 0.94968 0.0
C313 C 0.68194 0.67015 0.91223 0.0
H314 H 0.67038 0.61342 0.95328 0.0
H315 H 0.68623 0.68159 0.01693 0.0
C316 C 0.59279 0.54496 0.10593 0.0
N317 N 0.60115 0.56657 0.08237 0.0
C318 C 0.56651 0.52751 0.10962 0.0
C319 C 0.55803 0.55508 0.0652 0.0
C320 C 0.58439 0.57203 0.06265 0.0
C321 C 0.54897 0.53256 0.08878 0.0
H322 H 0.60653 0.54119 0.12156 0.0
H323 H 0.5915 0.58935 0.04438 0.0
O324 O 0.70036 0.63237 0.07138 0.0
O325 O 0.65855 0.58742 0.12095 0.0
O326 O 0.64601 0.62646 0.08159 0.0
O327 O 0.65352 0.58862 0.02283 0.0
H328 H 0.72021 0.6228 0.00443 0.0
H329 H 0.72228 0.68276 0.08117 0.0
H330 H 0.75379 0.65616 0.95891 0.0
H331 H 0.75587 0.71511 0.03431 0.0
H332 H 0.66511 0.51623 0.14395 0.0
H333 H 0.69469 0.60678 0.17946 0.0
H334 H 0.64566 0.5389 0.10768 0.0
H335 H 0.71321 0.5829 0.21454 0.0
H336 H 0.72705 0.69176 0.22398 0.0
H337 H 0.64715 0.6384 0.25025 0.0
H338 H 0.70684 0.54688 0.97642 0.0
H339 H 0.75927 0.59243 0.07464 0.0
H340 H 0.6197 0.62811 0.01586 0.0
H341 H 0.66734 0.67171 0.11979 0.0
H342 H 0.61517 0.66552 0.99617 0.0
H343 H 0.66221 0.70845 0.09791 0.0
H344 H 0.62357 0.59598 0.97012 0.0
H345 H 0.63309 0.5385 0.03534 0.0
H346 H 0.58357 0.56129 0.93845 0.0
H347 H 0.5928 0.50484 0.00265 0.0
H348 H 0.67377 0.63381 0.88509 0.0
H349 H 0.69062 0.70374 0.94937 0.0
H350 H 0.55991 0.5102 0.12807 0.0
H351 H 0.54484 0.5594 0.04884 0.0
Li352 Li 0.08816 0.68805 0.40474 0.0
Li353 Li 0.05291 0.67905 0.45348 0.0
Li354 Li 0.05215 0.64394 0.41108 0.0
Li355 Li 0.04555 0.67715 0.37867 0.0
C356 C 0.09618 0.66106 0.46866 0.0
N357 N 0.13532 0.65296 0.49511 0.0
C358 C 0.1058 0.6677 0.5094 0.0
C359 C 0.10646 0.65037 0.44134 0.0
C360 C 0.1256 0.66343 0.52219 0.0
C361 C 0.12624 0.64639 0.45531 0.0
C362 C 0.06044 0.72431 0.41664 0.0
C363 C 0.02535 0.73217 0.42886 0.0
N364 N 0.04188 0.75787 0.42529 0.0
C365 C 0.07708 0.75078 0.41304 0.0
C366 C 0.03436 0.71489 0.42457 0.0
C367 C 0.06733 0.76745 0.41753 0.0
C368 C 0.12623 0.71803 0.35055 0.0
N369 N 0.12306 0.70948 0.39072 0.0
C370 C 0.16777 0.73688 0.40479 0.0
C371 C 0.14318 0.71816 0.41783 0.0
C372 C 0.17116 0.7467 0.36392 0.0
C373 C 0.15028 0.73673 0.33637 0.0
H374 H 0.10978 0.71101 0.33001 0.0
H375 H 0.14001 0.71142 0.44987 0.0
C376 C 0.02367 0.66489 0.52491 0.0
N377 N 0.04358 0.6856 0.5063 0.0
C378 C 0.01584 0.66698 0.56501 0.0
C379 C 0.04899 0.71186 0.56599 0.0
C380 C 0.05622 0.70889 0.52562 0.0
C381 C 0.02873 0.69059 0.58597 0.0
H382 H 0.01424 0.6466 0.50881 0.0
H383 H 0.07214 0.72494 0.51003 0.0
C384 C 0.0697 0.65182 0.32526 0.0
N385 N 0.07335 0.62767 0.25401 0.0
C386 C 0.04874 0.63942 0.29808 0.0
C387 C 0.09265 0.65227 0.31584 0.0
C388 C 0.05094 0.62726 0.2623 0.0
C389 C 0.09406 0.63982 0.2798 0.0
C390 C 0.99911 0.63639 0.40898 0.0
C391 C 0.99312 0.6184 0.37696 0.0
C392 C 0.97947 0.63872 0.42824 0.0
C393 C 0.96759 0.6033 0.36421 0.0
C394 C 0.95416 0.62325 0.41461 0.0
N395 N 0.9488 0.60603 0.38311 0.0
C396 C 0.02137 0.59361 0.43871 0.0
C397 C 0.05173 0.59744 0.38754 0.0
C398 C 0.01092 0.567 0.44017 0.0
N399 N 0.04117 0.60818 0.4123 0.0
C400 C 0.04203 0.57091 0.38828 0.0
C401 C 0.02128 0.55551 0.41458 0.0
H402 H 0.01343 0.60267 0.45821 0.0
H403 H 0.06756 0.60932 0.36708 0.0
C404 C 0.0469 0.69485 0.29987 0.0
N405 N 0.03047 0.68443 0.33268 0.0
C406 C 0.03774 0.69662 0.26074 0.0
C407 C 0.99528 0.67931 0.29087 0.0
C408 C 0.0053 0.67773 0.32956 0.0
C409 C 0.01152 0.68785 0.25581 0.0
H410 H 0.06684 0.70019 0.30352 0.0
H411 H 0.99274 0.66999 0.3563 0.0
O412 O 0.07722 0.66567 0.45545 0.0
O413 O 0.06979 0.70782 0.41243 0.0
O414 O 0.06812 0.66419 0.3602 0.0
O415 O 0.02401 0.65154 0.42181 0.0
H416 H 0.09811 0.67615 0.5308 0.0
H417 H 0.09945 0.64549 0.40959 0.0
H418 H 0.13328 0.6685 0.55362 0.0
H419 H 0.13443 0.63818 0.43447 0.0
H420 H 0.00521 0.72514 0.43504 0.0
H421 H 0.09733 0.75835 0.40689 0.0
H422 H 0.02122 0.69449 0.42745 0.0
H423 H 0.07999 0.78799 0.41486 0.0
H424 H 0.18361 0.74455 0.42679 0.0
H425 H 0.15238 0.74416 0.30479 0.0
H426 H 0.0003 0.65023 0.57999 0.0
H427 H 0.0594 0.73022 0.58181 0.0
H428 H 0.03105 0.63941 0.30417 0.0
H429 H 0.10917 0.66202 0.33625 0.0
H430 H 0.03486 0.6176 0.24102 0.0
H431 H 0.11164 0.63987 0.27228 0.0
H432 H 0.00797 0.61599 0.3623 0.0
H433 H 0.98374 0.65244 0.45327 0.0
H434 H 0.9627 0.58935 0.33936 0.0
H435 H 0.93879 0.62495 0.42906 0.0
H436 H 0.99493 0.5555 0.46086 0.0
H437 H 0.05041 0.56245 0.36831 0.0
H438 H 0.05062 0.7032 0.23406 0.0
H439 H 0.9749 0.67236 0.28769 0.0
Li440 Li 0.40919 0.08977 0.74133 0.0
Li441 Li 0.37734 0.05295 0.78464 0.0
Li442 Li 0.41334 0.05223 0.74547 0.0
Li443 Li 0.37787 0.0509 0.70876 0.0
C444 C 0.42976 0.09736 0.81406 0.0
N445 N 0.45792 0.14384 0.85482 0.0
C446 C 0.41795 0.10521 0.84368 0.0
C447 C 0.45588 0.11306 0.80524 0.0
C448 C 0.43253 0.12879 0.86395 0.0
C449 C 0.46979 0.13652 0.82616 0.0
C450 C 0.35159 0.07375 0.72303 0.0
C451 C 0.30668 0.05298 0.70476 0.0
N452 N 0.31201 0.07177 0.67612 0.0
C453 C 0.35664 0.09289 0.6935 0.0
C454 C 0.32643 0.05364 0.72882 0.0
C455 C 0.33636 0.09155 0.67007 0.0
C456 C 0.44313 0.1369 0.70268 0.0
N457 N 0.4253 0.12579 0.73356 0.0
C458 C 0.42012 0.1626 0.7378 0.0
C459 C 0.41448 0.13841 0.75229 0.0
C460 C 0.43694 0.17357 0.70384 0.0
C461 C 0.44947 0.16113 0.68742 0.0
H462 H 0.45084 0.12616 0.68751 0.0
H463 H 0.39983 0.12877 0.77594 0.0
C464 C 0.36618 0.02889 0.86055 0.0
N465 N 0.35858 0.04192 0.835 0.0
C466 C 0.35396 0.01938 0.89878 0.0
C467 C 0.3261 0.03673 0.88369 0.0
C468 C 0.33903 0.0461 0.8456 0.0
C469 C 0.33377 0.02335 0.91065 0.0
H470 H 0.38178 0.02592 0.85103 0.0
H471 H 0.33353 0.05665 0.82462 0.0
C472 C 0.43198 0.06887 0.67129 0.0
N473 N 0.46712 0.06234 0.62476 0.0
C474 C 0.42368 0.05136 0.63801 0.0
C475 C 0.45817 0.08301 0.68089 0.0
C476 C 0.44175 0.0484 0.61481 0.0
C477 C 0.47562 0.0794 0.65705 0.0
C478 C 0.35679 0.00167 0.73825 0.0
C479 C 0.35993 0.98807 0.70541 0.0
C480 C 0.33343 0.99078 0.75988 0.0
C481 C 0.33962 0.96381 0.69468 0.0
C482 C 0.31359 0.96646 0.74823 0.0
N483 N 0.31707 0.95359 0.71615 0.0
C484 C 0.45347 0.04681 0.78153 0.0
C485 C 0.43482 0.02159 0.72065 0.0
C486 C 0.47005 0.03691 0.78564 0.0
N487 N 0.43635 0.03906 0.74934 0.0
C488 C 0.45121 0.01149 0.72323 0.0
C489 C 0.46894 0.01911 0.75611 0.0
H490 H 0.45409 0.06048 0.8042 0.0
H491 H 0.42094 0.01552 0.69566 0.0
C492 C 0.36924 0.05728 0.62661 0.0
N493 N 0.35782 0.04028 0.65851 0.0
C494 C 0.3594 0.05105 0.58618 0.0
C495 C 0.3247 0.01089 0.61264 0.0
C496 C 0.33512 0.01807 0.65283 0.0
C497 C 0.33756 0.02715 0.57878 0.0
H498 H 0.38681 0.07519 0.63225 0.0
H499 H 0.32554 0.00549 0.67892 0.0
O500 O 0.41567 0.07467 0.7931 0.0
O501 O 0.37127 0.07434 0.74542 0.0
O502 O 0.41458 0.07194 0.69467 0.0
O503 O 0.37658 0.02525 0.74975 0.0
H504 H 0.39771 0.09333 0.85066 0.0
H505 H 0.46525 0.10728 0.78227 0.0
H506 H 0.42364 0.13517 0.88684 0.0
H507 H 0.49 0.14894 0.81954 0.0
H508 H 0.28713 0.03745 0.70869 0.0
H509 H 0.37604 0.10843 0.68831 0.0
H510 H 0.32227 0.03849 0.75116 0.0
H511 H 0.34 0.10616 0.64695 0.0
H512 H 0.41001 0.17174 0.75074 0.0
H513 H 0.46232 0.1691 0.66088 0.0
H514 H 0.36021 0.00907 0.91902 0.0
H515 H 0.31052 0.04001 0.89219 0.0
H516 H 0.4035 0.0398 0.63058 0.0
H517 H 0.46493 0.09635 0.70689 0.0
H518 H 0.43557 0.03486 0.5891 0.0
H519 H 0.49592 0.0901 0.66433 0.0
H520 H 0.37764 0.9963 0.68785 0.0
H521 H 0.33057 0.00097 0.78532 0.0
H522 H 0.34174 0.95315 0.66916 0.0
H523 H 0.29542 0.95783 0.76468 0.0
H524 H 0.48354 0.04301 0.81146 0.0
H525 H 0.4499 0.99767 0.70013 0.0
H526 H 0.36965 0.06397 0.56053 0.0
H527 H 0.30765 0.99236 0.6077 0.0
Li528 Li 0.62592 0.67287 0.61115 0.0
Li529 Li 0.58813 0.64058 0.57175 0.0
Li530 Li 0.62638 0.67732 0.5351 0.0
Li531 Li 0.59878 0.6855 0.57872 0.0
C532 C 0.63157 0.63049 0.57537 0.0
N533 N 0.64557 0.59359 0.58765 0.0
C534 C 0.61705 0.60957 0.6018 0.0
C535 C 0.65311 0.63254 0.55498 0.0
C536 C 0.62445 0.59113 0.60763 0.0
C537 C 0.65992 0.61374 0.56171 0.0
C538 C 0.58495 0.65827 0.66438 0.0
C539 C 0.58173 0.67779 0.72844 0.0
N540 N 0.57376 0.65517 0.74888 0.0
C541 C 0.57726 0.63538 0.6862 0.0
C542 C 0.58761 0.67978 0.68578 0.0
C543 C 0.57162 0.63418 0.72889 0.0
C544 C 0.65202 0.70084 0.68193 0.0
N545 N 0.64528 0.67846 0.66145 0.0
C546 C 0.65998 0.66365 0.71877 0.0
C547 C 0.64963 0.66025 0.67856 0.0
C548 C 0.66578 0.68593 0.74129 0.0
C549 C 0.66247 0.70506 0.72218 0.0
H550 H 0.648 0.71484 0.66783 0.0
H551 H 0.644 0.6426 0.66209 0.0
C552 C 0.56627 0.59089 0.53845 0.0
N553 N 0.56276 0.60546 0.56743 0.0
C554 C 0.54979 0.56433 0.5374 0.0
C555 C 0.52593 0.56846 0.59508 0.0
C556 C 0.54278 0.59497 0.59485 0.0
C557 C 0.5297 0.55289 0.56654 0.0
H558 H 0.5824 0.59985 0.51713 0.0
H559 H 0.54038 0.60711 0.61726 0.0
C560 C 0.66328 0.71922 0.57753 0.0
N561 N 0.71636 0.74801 0.57649 0.0
C562 C 0.67567 0.74607 0.5772 0.0
C563 C 0.67796 0.70705 0.57751 0.0
C564 C 0.7025 0.76028 0.57662 0.0
C565 C 0.70474 0.72193 0.57694 0.0
C566 C 0.57367 0.67234 0.50959 0.0
C567 C 0.58462 0.69555 0.4876 0.0
C568 C 0.54709 0.65822 0.51548 0.0
C569 C 0.5687 0.70439 0.47202 0.0
C570 C 0.53183 0.66771 0.49938 0.0
N571 N 0.54286 0.69041 0.47821 0.0
C572 C 0.63848 0.66187 0.46237 0.0
C573 C 0.66292 0.7072 0.47017 0.0
C574 C 0.64972 0.66332 0.42357 0.0
N575 N 0.6451 0.68358 0.48462 0.0
C576 C 0.67488 0.70953 0.43146 0.0
C577 C 0.66792 0.68736 0.40762 0.0
H578 H 0.62415 0.64341 0.47468 0.0
H579 H 0.6676 0.7242 0.48827 0.0
C580 C 0.59991 0.73221 0.58653 0.0
N581 N 0.58395 0.70639 0.5886 0.0
C582 C 0.59245 0.74877 0.60382 0.0
C583 C 0.55145 0.71189 0.62212 0.0
C584 C 0.55981 0.69597 0.60472 0.0
C585 C 0.56839 0.73851 0.62316 0.0
H586 H 0.61901 0.73984 0.57382 0.0
H587 H 0.54778 0.67531 0.60669 0.0
O588 O 0.62423 0.64835 0.56808 0.0
O589 O 0.58874 0.65924 0.62198 0.0
O590 O 0.63697 0.70517 0.57801 0.0
O591 O 0.589 0.66377 0.52611 0.0
H592 H 0.60039 0.60771 0.61796 0.0
H593 H 0.66441 0.64847 0.53408 0.0
H594 H 0.61342 0.57488 0.62807 0.0
H595 H 0.67657 0.61511 0.54619 0.0
H596 H 0.58347 0.69421 0.74531 0.0
H597 H 0.57538 0.61863 0.67027 0.0
H598 H 0.594 0.6978 0.66963 0.0
H599 H 0.56542 0.61652 0.7461 0.0
H600 H 0.66212 0.64846 0.73304 0.0
H601 H 0.66648 0.7223 0.73913 0.0
H602 H 0.55309 0.55273 0.515 0.0
H603 H 0.51048 0.5601 0.61781 0.0
H604 H 0.6647 0.75588 0.57733 0.0
H605 H 0.6689 0.68639 0.5781 0.0
H606 H 0.7123 0.78106 0.57628 0.0
H607 H 0.71629 0.71272 0.57691 0.0
H608 H 0.60522 0.70672 0.48303 0.0
H609 H 0.53841 0.64027 0.53265 0.0
H610 H 0.57688 0.72239 0.45512 0.0
H611 H 0.51122 0.65708 0.50384 0.0
H612 H 0.644 0.6459 0.40584 0.0
H613 H 0.6889 0.72834 0.4198 0.0
H614 H 0.60584 0.76927 0.60417 0.0
H615 H 0.53279 0.70353 0.63702 0.0
Li616 Li 0.94856 0.59893 0.91459 0.0
Li617 Li 0.95325 0.63655 0.95248 0.0
Li618 Li 0.9124 0.60703 0.91716 0.0
Li619 Li 0.95087 0.63524 0.87695 0.0
C620 C 0.92068 0.58556 -0.00084 0.0
N621 N 0.90279 0.55674 0.07176 0.0
C622 C 0.9367 0.59155 0.03417 0.0
C623 C 0.89545 0.56495 0.00132 0.0
C624 C 0.92732 0.57676 0.07051 0.0
C625 C 0.88681 0.5506 0.03822 0.0
C626 C 0.99959 0.6381 0.9317 0.0
C627 C 0.04578 0.65942 0.9375 0.0
N628 N 0.04338 0.64421 0.97076 0.0
C629 C 0.99763 0.62262 0.96578 0.0
C630 C 0.02388 0.65657 0.91726 0.0
C631 C 0.01996 0.626 0.98515 0.0
C632 C 0.97677 0.57732 0.88359 0.0
N633 N 0.95901 0.57384 0.91314 0.0
C634 C 0.95967 0.53714 0.9404 0.0
C635 C 0.95031 0.55424 0.9413 0.0
C636 C 0.97824 0.54058 0.91058 0.0
C637 C 0.98682 0.56083 0.88183 0.0
H638 H 0.98343 0.59322 0.86189 0.0
H639 H 0.93636 0.55204 0.96469 0.0
C640 C 0.94653 0.65086 0.03114 0.0
N641 N 0.96523 0.65586 0.00255 0.0
C642 C 0.95302 0.65946 0.07225 0.0
C643 C 0.99793 0.68033 0.05265 0.0
C644 C 0.99054 0.67119 0.01188 0.0
C645 C 0.97898 0.67353 0.08345 0.0
H646 H 0.92659 0.63863 0.0227 0.0
H647 H 0.00503 0.67521 0.98844 0.0
C648 C 0.90964 0.57296 0.85477 0.0
N649 N 0.87656 0.52281 0.83032 0.0
C650 C 0.90242 0.56726 0.81275 0.0
C651 C 0.90012 0.55311 0.88425 0.0
C652 C 0.88564 0.5418 0.80103 0.0
C653 C 0.88342 0.52791 0.87133 0.0
C654 C 0.9408 0.67113 0.91389 0.0
C655 C 0.9238 0.68018 0.90636 0.0
C656 C 0.96697 0.68861 0.9192 0.0
C657 C 0.9333 0.70666 0.90414 0.0
C658 C 0.97573 0.71493 0.91675 0.0
N659 N 0.95885 0.72334 0.90933 0.0
C660 C 0.87306 0.60578 0.95925 0.0
C661 C 0.85689 0.57483 0.90458 0.0
C662 C 0.84829 0.59866 0.97216 0.0
N663 N 0.87691 0.59389 0.92614 0.0
C664 C 0.83161 0.56694 0.91668 0.0
C665 C 0.82733 0.57908 0.95078 0.0
H666 H 0.88939 0.62085 0.97565 0.0
H667 H 0.86042 0.56579 0.87814 0.0
C668 C 0.98812 0.67529 0.82719 0.0
N669 N 0.96392 0.65465 0.82739 0.0
C670 C 6e-05 0.68653 0.78933 0.0
C671 C 0.96148 0.65575 0.75288 0.0
C672 C 0.95019 0.6453 0.79148 0.0
C673 C 0.98698 0.67596 0.75169 0.0
H674 H 0.99867 0.68212 0.85618 0.0
H675 H 0.93102 0.62884 0.79271 0.0
O676 O 0.92936 0.60013 0.9634 0.0
O677 O 0.97799 0.6351 0.9121 0.0
O678 O 0.92626 0.59779 0.86659 0.0
O679 O 0.93172 0.64527 0.91615 0.0
H680 H 0.95609 0.60762 0.03367 0.0
H681 H 0.88258 0.56002 0.97491 0.0
H682 H 0.93954 0.58126 0.09778 0.0
H683 H 0.86736 0.53461 0.04022 0.0
H684 H 0.06468 0.6737 0.92672 0.0
H685 H 0.9791 0.60797 0.97685 0.0
H686 H 0.02582 0.66862 0.89072 0.0
H687 H 0.01865 0.6141 0.01154 0.0
H688 H 0.95281 0.52165 0.96302 0.0
H689 H 0.0012 0.5639 0.85856 0.0
H690 H 0.93806 0.65379 0.09561 0.0
H691 H 0.01813 0.69108 0.06072 0.0
H692 H 0.90972 0.58231 0.78938 0.0
H693 H 0.90556 0.5571 0.91671 0.0
H694 H 0.87988 0.53714 0.76863 0.0
H695 H 0.87591 0.5124 0.89391 0.0
H696 H 0.90346 0.66686 0.90228 0.0
H697 H 0.98039 0.68194 0.925 0.0
H698 H 0.92036 0.71395 0.89831 0.0
H699 H 0.99594 0.72868 0.92072 0.0
H700 H 0.84548 0.60841 -0.00154 0.0
H701 H 0.81564 0.55186 0.89949 0.0
H702 H 0.01982 0.70209 0.7892 0.0
H703 H 0.95099 0.64723 0.72421 0.0
Li704 Li 0.32444 0.96055 0.27967 0.0
Li705 Li 0.35722 0.95504 0.24499 0.0
Li706 Li 0.32162 0.95418 0.20418 0.0
Li707 Li 0.31489 0.91904 0.25218 0.0
C708 C 0.352 0.00691 0.23284 0.0
N709 N 0.35755 0.0552 0.22392 0.0
C710 C 0.37582 0.02887 0.24005 0.0
C711 C 0.33106 0.00953 0.22086 0.0
C712 C 0.37821 0.05311 0.23552 0.0
C713 C 0.33424 0.0341 0.2165 0.0
C714 C 0.35872 0.94213 0.32193 0.0
C715 C 0.39036 0.93054 0.34176 0.0
N716 N 0.40032 0.95009 0.37008 0.0
C717 C 0.3693 0.96212 0.35119 0.0
C718 C 0.36931 0.92617 0.31719 0.0
C719 C 0.39028 0.9658 0.37529 0.0
C720 C 0.30814 0.95803 0.36017 0.0
N721 N 0.31787 0.97503 0.32789 0.0
C722 C 0.3248 0.0096 0.3732 0.0
C723 C 0.32546 0.00033 0.3333 0.0
C724 C 0.31633 0.99259 0.40725 0.0
C725 C 0.30704 0.96641 0.40033 0.0
H726 H 0.30302 0.93822 0.35531 0.0
H727 H 0.33357 0.01365 0.30761 0.0
C728 C 0.40225 0.95476 0.21902 0.0
N729 N 0.39294 0.96677 0.24355 0.0
C730 C 0.42859 0.96356 0.21805 0.0
C731 C 0.43515 0.99684 0.26756 0.0
C732 C 0.40874 0.98753 0.26734 0.0
C733 C 0.44519 0.98478 0.24263 0.0
H734 H 0.38923 0.93844 0.20017 0.0
H735 H 0.40077 0.99675 0.28634 0.0
C736 C 0.27322 0.93366 0.26747 0.0
N737 N 0.23205 0.92913 0.3132 0.0
C738 C 0.26203 0.915 0.2988 0.0
C739 C 0.26322 0.94981 0.25909 0.0
C740 C 0.2413 0.91306 0.32165 0.0
C741 C 0.24248 0.94728 0.28264 0.0
C742 C 0.32766 0.90762 0.18095 0.0
C743 C 0.30998 0.9003 0.14812 0.0
C744 C 0.336 0.89088 0.19456 0.0
C745 C 0.30078 0.87619 0.12956 0.0
C746 C 0.32631 0.86692 0.17524 0.0
N747 N 0.30904 0.86014 0.14342 0.0
C748 C 0.33586 0.976 0.12686 0.0
C749 C 0.29151 0.9603 0.13949 0.0
C750 C 0.33411 0.98507 0.08763 0.0
N751 N 0.3148 0.96397 0.15178 0.0
C752 C 0.2889 0.96925 0.10031 0.0
C753 C 0.31047 0.98174 0.07411 0.0
H754 H 0.35408 0.97865 0.13777 0.0
H755 H 0.27513 0.95066 0.16014 0.0
C756 C 0.29954 0.87495 0.30068 0.0
N757 N 0.2947 0.88341 0.26414 0.0
C758 C 0.28191 0.85079 0.31636 0.0
C759 C 0.25532 0.84389 0.25531 0.0
C760 C 0.27342 0.8683 0.24089 0.0
C761 C 0.25921 0.83542 0.29413 0.0
H762 H 0.31613 0.88762 0.3192 0.0
H763 H 0.26966 0.87586 0.2127 0.0
O764 O 0.34943 0.98305 0.23685 0.0
O765 O 0.33843 0.93849 0.29751 0.0
O766 O 0.29372 0.93601 0.245 0.0
O767 O 0.33662 0.93097 0.1999 0.0
H768 H 0.3923 0.02724 0.24904 0.0
H769 H 0.31257 0.99281 0.21515 0.0
H770 H 0.39651 0.07027 0.24113 0.0
H771 H 0.31816 0.03638 0.20729 0.0
H772 H 0.39885 0.91845 0.33821 0.0
H773 H 0.3617 0.97495 0.35478 0.0
H774 H 0.36155 0.91078 0.29439 0.0
H775 H 0.3987 0.98125 0.39795 0.0
H776 H 0.33247 0.03001 0.37794 0.0
H777 H 0.30085 0.95297 0.42625 0.0
H778 H 0.43597 0.95397 0.19846 0.0
H779 H 0.44762 0.0133 0.28676 0.0
H780 H 0.26951 0.90242 0.30601 0.0
H781 H 0.27127 0.96411 0.23462 0.0
H782 H 0.23263 0.89884 0.34621 0.0
H783 H 0.23464 0.95973 0.27657 0.0
H784 H 0.30329 0.913 0.13727 0.0
H785 H 0.34961 0.89624 0.22005 0.0
H786 H 0.28701 0.87022 0.10421 0.0
H787 H 0.33247 0.85371 0.1856 0.0
H788 H 0.35106 0.99472 0.06802 0.0
H789 H 0.27044 0.96653 0.09056 0.0
H790 H 0.28513 0.84484 0.34674 0.0
H791 H 0.23768 0.83251 0.23794 0.0
Li792 Li 0.36949 0.32315 0.62361 0.0
Li793 Li 0.40719 0.35441 0.58651 0.0
Li794 Li 0.37181 0.32061 0.54909 0.0
Li795 Li 0.398 0.31089 0.59272 0.0
C796 C 0.37056 0.36853 0.60041 0.0
N797 N 0.36858 0.40912 0.63735 0.0
C798 C 0.38013 0.37646 0.64093 0.0
C799 C 0.36005 0.38129 0.57866 0.0
C800 C 0.37891 0.39698 0.65909 0.0
C801 C 0.35922 0.40177 0.59787 0.0
C802 C 0.42994 0.34405 0.65366 0.0
C803 C 0.4751 0.35974 0.64267 0.0
N804 N 0.47857 0.36021 0.68485 0.0
C805 C 0.43395 0.34471 0.69688 0.0
C806 C 0.45067 0.35163 0.62628 0.0
C807 C 0.45868 0.35294 0.71204 0.0
C808 C 0.35654 0.30728 0.70435 0.0
N809 N 0.34926 0.31696 0.67209 0.0
C810 C 0.32024 0.32231 0.71632 0.0
C811 C 0.33083 0.32363 0.67677 0.0
C812 C 0.32881 0.314 0.75059 0.0
C813 C 0.34651 0.30565 0.74424 0.0
H814 H 0.37116 0.30206 0.69941 0.0
H815 H 0.32541 0.33125 0.65045 0.0
C816 C 0.43897 0.40066 0.54485 0.0
N817 N 0.43248 0.3898 0.58355 0.0
C818 C 0.45561 0.42708 0.54067 0.0
C819 C 0.45874 0.43055 0.61625 0.0
C820 C 0.44216 0.40406 0.61898 0.0
C821 C 0.46536 0.44227 0.57674 0.0
H822 H 0.43073 0.38883 0.51731 0.0
H823 H 0.4365 0.39499 0.64938 0.0
C824 C 0.33369 0.27714 0.58867 0.0
N825 N 0.2808 0.24688 0.58602 0.0
C826 C 0.32207 0.25049 0.59293 0.0
C827 C 0.31841 0.28842 0.58309 0.0
C828 C 0.2953 0.23551 0.59149 0.0
C829 C 0.29171 0.27279 0.58183 0.0
C830 C 0.41195 0.31925 0.50916 0.0
C831 C 0.3957 0.29267 0.5057 0.0
C832 C 0.43109 0.33226 0.47916 0.0
C833 C 0.39891 0.27956 0.47219 0.0
C834 C 0.43368 0.31846 0.44612 0.0
N835 N 0.41767 0.29262 0.44334 0.0
C836 C 0.35969 0.33603 0.4762 0.0
C837 C 0.33753 0.29054 0.48206 0.0
C838 C 0.34868 0.33444 0.43714 0.0
N839 N 0.35402 0.31431 0.49766 0.0
C840 C 0.32581 0.28806 0.44313 0.0
C841 C 0.33168 0.31026 0.42021 0.0
H842 H 0.37303 0.35461 0.48939 0.0
H843 H 0.33365 0.27356 0.49955 0.0
C844 C 0.39655 0.27013 0.63201 0.0
N845 N 0.41122 0.28892 0.6042 0.0
C846 C 0.40407 0.25289 0.64554 0.0
C847 C 0.44198 0.27478 0.60188 0.0
C848 C 0.43362 0.29167 0.58898 0.0
C849 C 0.42699 0.25519 0.63048 0.0
H850 H 0.37903 0.26874 0.64391 0.0
H851 H 0.44503 0.30702 0.56722 0.0
O852 O 0.37169 0.34863 0.58159 0.0
O853 O 0.40575 0.33584 0.63854 0.0
O854 O 0.35991 0.2919 0.59002 0.0
O855 O 0.4092 0.33271 0.54142 0.0
H856 H 0.38841 0.36692 0.65829 0.0
H857 H 0.35264 0.37543 0.54721 0.0
H858 H 0.3862 0.40328 0.69044 0.0
H859 H 0.35115 0.41183 0.58137 0.0
H860 H 0.49131 0.36564 0.62184 0.0
H861 H 0.41811 0.33893 0.71849 0.0
H862 H 0.448 0.35128 0.59274 0.0
H863 H 0.46206 0.35354 0.74543 0.0
H864 H 0.30675 0.32911 0.72063 0.0
H865 H 0.35356 0.29935 0.7703 0.0
H866 H 0.46042 0.43568 0.50977 0.0
H867 H 0.46597 0.44186 0.6446 0.0
H868 H 0.33364 0.24147 0.59725 0.0
H869 H 0.32696 0.30897 0.57957 0.0
H870 H 0.28605 0.21484 0.59472 0.0
H871 H 0.27966 0.28126 0.57748 0.0
H872 H 0.38077 0.28219 0.5285 0.0
H873 H 0.4438 0.35284 0.4814 0.0
H874 H 0.38647 0.25901 0.46912 0.0
H875 H 0.44842 0.3283 0.42266 0.0
H876 H 0.35353 0.35189 0.4201 0.0
H877 H 0.31271 0.26915 0.4307 0.0
H878 H 0.39216 0.2379 0.6676 0.0
H879 H 0.45975 0.27685 0.58974 0.0
Li880 Li 0.04865 0.41289 0.918 0.0
Li881 Li 0.04564 0.37597 0.95206 0.0
Li882 Li 0.08579 0.40814 0.9244 0.0
Li883 Li 0.05036 0.37822 0.87662 0.0
C884 C 0.06226 0.4284 0.99423 0.0
N885 N 0.05368 0.46158 0.04254 0.0
C886 C 0.04243 0.41869 0.02383 0.0
C887 C 0.07775 0.45498 0.9893 0.0
C888 C 0.03844 0.43579 0.04799 0.0
C889 C 0.07305 0.47143 0.01393 0.0
C890 C 0.99777 0.35589 0.9189 0.0
C891 C 0.9635 0.3128 0.9044 0.0
N892 N 0.94949 0.31485 0.9361 0.0
C893 C 0.98301 0.35755 0.95133 0.0
C894 C 0.98794 0.33332 0.89523 0.0
C895 C 0.95866 0.33659 0.95955 0.0
C896 C 0.04742 0.45662 0.88772 0.0
N897 N 0.03648 0.43674 0.91536 0.0
C898 C 0.00787 0.45072 0.93978 0.0
C899 C 0.01693 0.43342 0.94089 0.0
C900 C 0.01884 0.47134 0.91167 0.0
C901 C 0.03877 0.47428 0.88525 0.0
H902 H 0.06279 0.4587 0.86752 0.0
H903 H 0.00847 0.41748 0.96238 0.0
C904 C 0.04985 0.36531 0.03361 0.0
N905 N 0.03362 0.35449 0.00061 0.0
C906 C 0.04273 0.3547 0.0734 0.0
C907 C 0.00331 0.32039 0.04408 0.0
C908 C 0.01138 0.33161 0.00454 0.0
C909 C 0.01874 0.33268 0.07904 0.0
H910 H 0.06785 0.383 0.02938 0.0
H911 H 0.99942 0.32255 0.97757 0.0
C912 C 0.09602 0.43141 0.85305 0.0
N913 N 0.14341 0.4607 0.81554 0.0
C914 C 0.10366 0.4211 0.82056 0.0
C915 C 0.11239 0.45663 0.86634 0.0
C916 C 0.12772 0.43623 0.802 0.0
C917 C 0.13631 0.47112 0.84703 0.0
C918 C 0.06864 0.34986 0.93742 0.0
C919 C 0.08666 0.35376 0.96839 0.0
C920 C 0.04877 0.32499 0.9287 0.0
C921 C 0.08449 0.33263 0.99029 0.0
C922 C 0.04724 0.30434 0.9513 0.0
N923 N 0.06498 0.30856 0.98138 0.0
C924 C 0.12957 0.43644 0.97354 0.0
C925 C 0.13621 0.41677 0.91399 0.0
C926 C 0.15313 0.44174 0.99041 0.0
N927 N 0.12133 0.42354 0.93662 0.0
C928 C 0.16002 0.42185 0.9296 0.0
C929 C 0.1681 0.43357 0.96897 0.0
H930 H 0.11703 0.44078 0.99158 0.0
H931 H 0.12875 0.4057 0.88555 0.0
C932 C 0.02807 0.36892 0.79922 0.0
N933 N 0.04093 0.36109 0.82472 0.0
C934 C 0.01913 0.35727 0.76044 0.0
C935 C 0.03689 0.32966 0.77472 0.0
C936 C 0.04565 0.342 0.81339 0.0
C937 C 0.02349 0.33742 0.74798 0.0
H938 H 0.02461 0.38411 0.80937 0.0
H939 H 0.05601 0.33627 0.83439 0.0
O940 O 0.06629 0.412 0.96978 0.0
O941 O 0.02143 0.3764 0.90974 0.0
O942 O 0.07276 0.41677 0.87211 0.0
O943 O 0.07014 0.37041 0.91649 0.0
H944 H 0.02992 0.39822 0.02763 0.0
H945 H 0.09304 0.46282 0.96633 0.0
H946 H 0.02311 0.42854 0.07086 0.0
H947 H 0.08477 0.49204 0.01023 0.0
H948 H 0.95569 0.29524 0.88634 0.0
H949 H 0.99041 0.37457 0.97054 0.0
H950 H 0.99901 0.33158 0.87008 0.0
H951 H 0.94712 0.33757 0.98472 0.0
H952 H 0.99241 0.44801 0.96046 0.0
H953 H 0.0475 0.49006 0.86316 0.0
H954 H 0.05501 0.36452 0.09993 0.0
H955 H 0.9847 0.30325 0.0477 0.0
H956 H 0.09125 0.40158 0.80998 0.0
H957 H 0.10678 0.46485 0.89156 0.0
H958 H 0.13394 0.42848 0.77691 0.0
H959 H 0.14924 0.49063 0.85713 0.0
H960 H 0.10188 0.37296 0.97581 0.0
H961 H 0.03446 0.3217 0.90518 0.0
H962 H 0.09825 0.33538 0.0145 0.0
H963 H 0.03188 0.28499 0.94508 0.0
H964 H 0.15876 0.45043 0.02117 0.0
H965 H 0.17105 0.41495 0.9128 0.0
H966 H 0.00879 0.36357 0.74037 0.0
H967 H 0.04045 0.31432 0.76575 0.0
Li968 Li 0.64178 0.05047 0.24781 0.0
Li969 Li 0.67358 0.04406 0.2834 0.0
Li970 Li 0.68564 0.08452 0.25549 0.0
Li971 Li 0.67753 0.04903 0.20814 0.0
C972 C 0.64262 0.05608 0.33237 0.0
N973 N 0.60716 0.03397 0.39649 0.0
C974 C 0.62537 0.0296 0.33267 0.0
C975 C 0.64185 0.07126 0.36496 0.0
C976 C 0.60755 0.01881 0.36519 0.0
C977 C 0.62382 0.05974 0.39706 0.0
C978 C 0.64329 0.99658 0.23934 0.0
C979 C 0.65586 0.96507 0.22395 0.0
N980 N 0.63222 0.94605 0.23601 0.0
C981 C 0.61904 0.97668 0.25133 0.0
C982 C 0.66181 0.99071 0.22538 0.0
C983 C 0.61386 0.95128 0.24956 0.0
C984 C 0.5909 0.01901 0.22266 0.0
N985 N 0.60673 0.04082 0.2442 0.0
C986 C 0.57141 0.04638 0.26343 0.0
C987 C 0.59766 0.0547 0.26409 0.0
C988 C 0.55466 0.02363 0.24219 0.0
C989 C 0.56454 0.00992 0.22137 0.0
H990 H 0.59877 0.00851 0.20695 0.0
H991 H 0.61076 0.07198 0.28098 0.0
C992 C 0.6887 0.0461 0.36489 0.0
N993 N 0.67893 0.02913 0.33254 0.0
C994 C 0.69015 0.03773 0.4049 0.0
C995 C 0.67255 0.99462 0.37751 0.0
C996 C 0.67151 0.00387 0.3378 0.0
C997 C 0.6813 0.01163 0.41157 0.0
H998 H 0.69415 0.066 0.36 0.0
H999 H 0.66366 0.99062 0.31198 0.0
C1000 C 0.67136 0.0971 0.18668 0.0
N1001 N 0.68674 0.14541 0.1549 0.0
C1002 C 0.6894 0.10702 0.15432 0.0
C1003 C 0.661 0.11162 0.20276 0.0
C1004 C 0.69696 0.13152 0.13868 0.0
C1005 C 0.66908 0.13604 0.18631 0.0
C1006 C 0.72392 0.0662 0.27393 0.0
C1007 C 0.7369 0.08546 0.30385 0.0
C1008 C 0.73014 0.0468 0.26918 0.0
C1009 C 0.75564 0.08481 0.32887 0.0
C1010 C 0.74897 0.04679 0.29487 0.0
N1011 N 0.76122 0.06563 0.32394 0.0
C1012 C 0.70302 0.13031 0.3001 0.0
C1013 C 0.72933 0.13343 0.24237 0.0
C1014 C 0.72185 0.1542 0.31507 0.0
N1015 N 0.70747 0.12012 0.26525 0.0
C1016 C 0.74852 0.15761 0.25581 0.0
C1017 C 0.74521 0.16763 0.29353 0.0
H1018 H 0.68559 0.11916 0.31776 0.0
H1019 H 0.73257 0.12454 0.21535 0.0
C1020 C 0.66368 0.02918 0.12942 0.0
N1021 N 0.68396 0.0385 0.15613 0.0
C1022 C 0.665 0.01926 0.09071 0.0
C1023 C 0.70819 0.0288 0.10754 0.0
C1024 C 0.70609 0.03875 0.14607 0.0
C1025 C 0.68736 0.0189 0.07961 0.0
H1026 H 0.64633 0.02914 0.13864 0.0
H1027 H 0.72182 0.04618 0.1682 0.0
O1028 O 0.66007 0.06725 0.30043 0.0
O1029 O 0.64856 0.02155 0.24033 0.0
O1030 O 0.66408 0.0734 0.20292 0.0
O1031 O 0.70526 0.06633 0.24948 0.0
H1032 H 0.62563 0.01745 0.30815 0.0
H1033 H 0.655 0.09175 0.36557 0.0
H1034 H 0.59409 0.99836 0.36563 0.0
H1035 H 0.62305 0.0713 0.4224 0.0
H1036 H 0.67007 0.9603 0.21329 0.0
H1037 H 0.60434 0.98076 0.26192 0.0
H1038 H 0.68061 0.00574 0.21599 0.0
H1039 H 0.59521 0.93573 0.25888 0.0
H1040 H 0.56417 0.05728 0.27975 0.0
H1041 H 0.55196 0.99232 0.20468 0.0
H1042 H 0.69668 0.05119 0.43082 0.0
H1043 H 0.66532 0.97427 0.38207 0.0
H1044 H 0.6976 0.09598 0.14165 0.0
H1045 H 0.64708 0.10418 0.22794 0.0
H1046 H 0.71098 0.13952 0.11373 0.0
H1047 H 0.66135 0.14758 0.19858 0.0
H1048 H 0.7323 0.10054 0.30828 0.0
H1049 H 0.72053 0.03187 0.24602 0.0
H1050 H 0.76569 0.09951 0.35231 0.0
H1051 H 0.75385 0.03181 0.29166 0.0
H1052 H 0.71883 0.16143 0.34436 0.0
H1053 H 0.76647 0.16753 0.23872 0.0
H1054 H 0.64862 0.01163 0.06977 0.0
H1055 H 0.72562 0.02859 0.09972 0.0
C1056 C 0.29914 0.32529 0.33277 0.0
C1057 C 0.30895 0.31878 0.29728 0.0
C1058 C 0.32999 0.30198 0.34267 0.0
C1059 C 0.3205 0.30884 0.37818 0.0
N1060 N 0.29024 0.31974 0.40739 0.0
N1061 N 0.32687 0.29431 0.26768 0.0
C1062 C 0.303 0.31798 0.37324 0.0
C1063 C 0.322 0.30476 0.30209 0.0
N1064 N 0.28764 0.33986 0.32817 0.0
N1065 N 0.34785 0.29442 0.34747 0.0
H1066 H 0.32106 0.29602 0.23759 0.0
H1067 H 0.3343 0.28196 0.26944 0.0
H1068 H 0.35422 0.29207 0.37665 0.0
H1069 H 0.35771 0.29216 0.32249 0.0
H1070 H 0.28294 0.34779 0.3533 0.0
H1071 H 0.28431 0.34553 0.29908 0.0
H1072 H 0.27551 0.32406 0.40537 0.0
H1073 H 0.29271 0.31437 0.43739 0.0
C1074 C 0.97556 0.3039 0.66169 0.0
C1075 C 0.99193 0.3128 0.6262 0.0
C1076 C 0.0299 0.33288 0.67141 0.0
C1077 C 0.01348 0.32496 0.70686 0.0
N1078 N 0.97189 0.29715 0.737 0.0
N1079 N 0.03402 0.32896 0.59642 0.0
C1080 C 0.98665 0.30837 0.70231 0.0
C1081 C 0.01896 0.32492 0.63089 0.0
N1082 N 0.94954 0.29262 0.65666 0.0
N1083 N 0.05569 0.34921 0.67629 0.0
H1084 H 0.02633 0.32326 0.5664 0.0
H1085 H 0.05368 0.33571 0.59795 0.0
H1086 H 0.06444 0.35497 0.70557 0.0
H1087 H 0.06825 0.35818 0.65141 0.0
H1088 H 0.93678 0.28857 0.6814 0.0
H1089 H 0.94072 0.28853 0.62733 0.0
H1090 H 0.95255 0.28312 0.73568 0.0
H1091 H 0.97968 0.30022 0.76711 0.0
C1092 C 0.69626 0.01151 0.96356 0.0
C1093 C 0.67729 0.98531 0.9585 0.0
C1094 C 0.67292 0.98016 0.03466 0.0
C1095 C 0.68798 0.0072 0.03907 0.0
N1096 N 0.71405 0.04914 0.00838 0.0
N1097 N 0.6467 0.9444 0.98866 0.0
C1098 C 0.70011 0.02303 0.00378 0.0
C1099 C 0.66571 0.96937 0.99393 0.0
N1100 N 0.71044 0.02526 0.92976 0.0
N1101 N 0.66544 0.96493 0.06956 0.0
H1102 H 0.64105 0.93565 0.95936 0.0
H1103 H 0.63537 0.93277 0.0131 0.0
H1104 H 0.67052 0.97244 0.0998 0.0
H1105 H 0.65639 0.94495 0.06847 0.0
H1106 H 0.72612 0.0438 0.9319 0.0
H1107 H 0.70794 0.01715 0.89998 0.0
H1108 H 0.72077 0.06191 0.98328 0.0
H1109 H 0.71771 0.0582 0.03748 0.0
C1110 C 0.69903 0.67148 0.31877 0.0
C1111 C 0.6892 0.67841 0.28383 0.0
C1112 C 0.66964 0.69627 0.33032 0.0
C1113 C 0.67885 0.68869 0.36536 0.0
N1114 N 0.70796 0.67594 0.39347 0.0
N1115 N 0.67196 0.7037 0.25526 0.0
C1116 C 0.69556 0.67865 0.35965 0.0
C1117 C 0.67689 0.69308 0.28936 0.0
N1118 N 0.7103 0.65678 0.31309 0.0
N1119 N 0.65267 0.7049 0.33596 0.0
H1120 H 0.67711 0.70157 0.2249 0.0
H1121 H 0.66512 0.71653 0.25738 0.0
H1122 H 0.64698 0.70769 0.36543 0.0
H1123 H 0.6429 0.70773 0.31146 0.0
H1124 H 0.71501 0.64846 0.33761 0.0
H1125 H 0.71366 0.65164 0.28353 0.0
H1126 H 0.72213 0.67085 0.3911 0.0
H1127 H 0.70574 0.68116 0.42373 0.0
C1128 C 0.99511 0.69776 0.68173 0.0
C1129 C 0.00081 0.68361 0.71114 0.0
C1130 C 0.0307 0.68145 0.66143 0.0
C1131 C 0.02193 0.69191 0.63009 0.0
N1132 N 0.99528 0.70937 0.60879 0.0
N1133 N 0.02178 0.65926 0.72783 0.0
C1134 C 0.00419 0.70019 0.63986 0.0
C1135 C 0.01826 0.67498 0.70093 0.0
N1136 N 0.98125 0.70902 0.69406 0.0
N1137 N 0.05093 0.67769 0.65329 0.0
H1138 H 0.01284 0.65365 0.75698 0.0
H1139 H 0.03188 0.64995 0.71986 0.0
H1140 H 0.06036 0.68211 0.62444 0.0
H1141 H 0.0599 0.67257 0.67618 0.0
H1142 H 0.97841 0.72156 0.67529 0.0
H1143 H 0.97436 0.70749 0.72457 0.0
H1144 H 0.98013 0.71291 0.61276 0.0
H1145 H 0.00217 0.71212 0.57811 0.0
C1146 C 0.32062 0.01889 0.02752 0.0
C1147 C 0.30913 0.99193 0.03249 0.0
C1148 C 0.30506 0.98635 0.95639 0.0
C1149 C 0.32113 0.01326 0.95165 0.0
N1150 N 0.34443 0.05565 0.982 0.0
N1151 N 0.28992 0.94947 0.00245 0.0
C1152 C 0.32854 0.02978 0.98698 0.0
C1153 C 0.30068 0.97542 0.99713 0.0
N1154 N 0.32413 0.03395 0.0618 0.0
N1155 N 0.29425 0.97138 0.92175 0.0
H1156 H 0.28587 0.94077 0.03189 0.0
H1157 H 0.28623 0.93667 0.9779 0.0
H1158 H 0.29725 0.97907 0.89157 0.0
H1159 H 0.2806 0.95191 0.92313 0.0
H1160 H 0.33037 0.05352 0.06003 0.0
H1161 H 0.31846 0.0263 0.09185 0.0
H1162 H 0.35305 0.06834 0.00686 0.0
H1163 H 0.35021 0.06438 0.9527 0.0
C1164 C 0.21472 0.45483 0.98924 0.0
C1165 C 0.18964 0.43313 0.99085 0.0
C1166 C 0.20522 0.40954 0.03302 0.0
C1167 C 0.23069 0.43031 0.02798 0.0
N1168 N 0.26046 0.47236 0.00111 0.0
N1169 N 0.16042 0.38956 0.01272 0.0
C1170 C 0.23565 0.45297 0.00627 0.0
C1171 C 0.18469 0.41049 0.01268 0.0
N1172 N 0.21836 0.47721 0.97179 0.0
N1173 N 0.2007 0.3889 0.05731 0.0
H1174 H 0.14456 0.38991 0.00034 0.0
H1175 H 0.15596 0.37136 0.02303 0.0
H1176 H 0.21527 0.38666 0.07077 0.0
H1177 H 0.1825 0.37459 0.06653 0.0
H1178 H 0.2356 0.49456 0.973 0.0
H1179 H 0.20349 0.47888 0.95811 0.0
H1180 H 0.26588 0.48817 0.98172 0.0
H1181 H 0.27604 0.47214 0.01512 0.0
C1182 C 0.81078 0.21042 0.34206 0.0
C1183 C 0.8095 0.23287 0.35128 0.0
C1184 C 0.76695 0.21359 0.31847 0.0
C1185 C 0.76726 0.19028 0.31332 0.0
N1186 N 0.78691 0.16466 0.32963 0.0
N1187 N 0.78496 0.25461 0.35442 0.0
C1188 C 0.78844 0.18814 0.32785 0.0
C1189 C 0.78715 0.23413 0.34125 0.0
N1190 N 0.83359 0.21063 0.34517 0.0
N1191 N 0.74783 0.21638 0.30052 0.0
H1192 H 0.79936 0.26989 0.37134 0.0
H1193 H 0.7681 0.2554 0.35177 0.0
H1194 H 0.73286 0.20178 0.28339 0.0
H1195 H 0.74798 0.23378 0.29955 0.0
H1196 H 0.83608 0.19563 0.33443 0.0
H1197 H 0.85069 0.22673 0.3545 0.0
H1198 H 0.80081 0.16175 0.34406 0.0
H1199 H 0.77062 0.14761 0.32065 0.0
C1200 C 0.55268 0.7907 0.64996 0.0
C1201 C 0.56439 0.7978 0.69 0.0
C1202 C 0.57005 0.76018 0.69081 0.0
C1203 C 0.56254 0.75578 0.64805 0.0
N1204 N 0.54566 0.76546 0.58671 0.0
N1205 N 0.58383 0.7897 0.7497 0.0
C1206 C 0.55312 0.7704 0.62773 0.0
C1207 C 0.57247 0.78232 0.71117 0.0
N1208 N 0.54134 0.80358 0.63339 0.0
N1209 N 0.57518 0.74333 0.7116 0.0
H1210 H 0.58503 0.80528 0.76612 0.0
H1211 H 0.59313 0.78124 0.76469 0.0
H1212 H 0.57425 0.72729 0.69728 0.0
H1213 H 0.57836 0.74397 0.74375 0.0
H1214 H 0.53071 0.79829 0.60577 0.0
H1215 H 0.5408 0.81848 0.64929 0.0
H1216 H 0.54136 0.77713 0.56835 0.0
H1217 H 0.54471 0.74996 0.57035 0.0
C1218 C 0.76546 0.55159 0.01381 0.0
C1219 C 0.75682 0.56858 0.00099 0.0
C1220 C 0.79038 0.58688 0.9472 0.0
C1221 C 0.8011 0.57246 0.96385 0.0
N1222 N 0.79996 0.54159 0.01326 0.0
N1223 N 0.76194 0.60401 0.9581 0.0
C1224 C 0.78879 0.55471 0.99699 0.0
C1225 C 0.76932 0.58648 0.96802 0.0
N1226 N 0.75119 0.53239 0.0417 0.0
N1227 N 0.80043 0.60098 0.91148 0.0
H1228 H 0.74642 0.60429 0.97217 0.0
H1229 H 0.77227 0.61953 0.93809 0.0
H1230 H 0.8162 0.60207 0.89587 0.0
H1231 H 0.79187 0.60977 0.89522 0.0
H1232 H 0.75504 0.51783 0.04948 0.0
H1233 H 0.73416 0.52988 0.05479 0.0
H1234 H 0.79372 0.53066 0.04054 0.0
H1235 H 0.81643 0.54263 0.00043 0.0
C1236 C 0.21365 0.76614 0.3268 0.0
C1237 C 0.19559 0.76942 0.35075 0.0
C1238 C 0.21955 0.81585 0.33819 0.0
C1239 C 0.23784 0.81266 0.31467 0.0
N1240 N 0.25509 0.78617 0.29159 0.0
N1241 N 0.18304 0.79715 0.38538 0.0
C1242 C 0.23576 0.78818 0.31058 0.0
C1243 C 0.19915 0.79426 0.35844 0.0
N1244 N 0.20918 0.74189 0.31865 0.0
N1245 N 0.22128 0.83945 0.33999 0.0
H1246 H 0.16729 0.78173 0.39971 0.0
H1247 H 0.18622 0.81486 0.39614 0.0
H1248 H 0.23654 0.85604 0.32723 0.0
H1249 H 0.20691 0.84251 0.35188 0.0
H1250 H 0.21988 0.73782 0.29759 0.0
H1251 H 0.19377 0.72547 0.33166 0.0
H1252 H 0.25614 0.7694 0.29115 0.0
H1253 H 0.27116 0.80189 0.27843 0.0
C1254 C 0.42272 0.191 0.64484 0.0
C1255 C 0.43797 0.19565 0.68137 0.0
C1256 C 0.44942 0.24094 0.68098 0.0
C1257 C 0.43434 0.23623 0.64432 0.0
N1258 N 0.41188 0.20906 0.58561 0.0
N1259 N 0.46978 0.22539 0.72953 0.0
C1260 C 0.42281 0.21197 0.62429 0.0
C1261 C 0.45266 0.22082 0.69792 0.0
N1262 N 0.40702 0.16637 0.63115 0.0
N1263 N 0.45973 0.2643 0.70042 0.0
H1264 H 0.47234 0.21091 0.74266 0.0
H1265 H 0.48282 0.24369 0.7405 0.0
H1266 H 0.45852 0.27972 0.68791 0.0
H1267 H 0.46834 0.2681 0.72984 0.0
H1268 H 0.39318 0.16154 0.60792 0.0
H1269 H 0.40631 0.15034 0.64509 0.0
H1270 H 0.40545 0.19257 0.56741 0.0
H1271 H 0.41141 0.22407 0.56994 0.0
C1272 C 0.34025 0.34082 0.81502 0.0
C1273 C 0.32273 0.31786 0.79393 0.0
C1274 C 0.29573 0.30233 0.85676 0.0
C1275 C 0.31439 0.32431 0.8787 0.0
N1276 N 0.3562 0.36259 0.88135 0.0
N1277 N 0.28527 0.27559 0.79452 0.0
C1278 C 0.33716 0.34305 0.85854 0.0
C1279 C 0.30081 0.29825 0.81472 0.0
N1280 N 0.35957 0.36072 0.79319 0.0
N1281 N 0.27302 0.28574 0.87591 0.0
H1282 H 0.28809 0.27239 0.76332 0.0
H1283 H 0.27057 0.25946 0.80918 0.0
H1284 H 0.26908 0.28791 0.90701 0.0
H1285 H 0.25749 0.2708 0.86043 0.0
H1286 H 0.37107 0.379 0.8057 0.0
H1287 H 0.36286 0.35973 0.76133 0.0
H1288 H 0.37442 0.37513 0.86953 0.0
H1289 H 0.35464 0.36508 0.91334 0.0
C1290 C 0.99475 0.33863 0.18518 0.0
C1291 C 0.99388 0.31758 0.20686 0.0
C1292 C 0.00924 0.30578 0.14419 0.0
C1293 C 0.00831 0.32573 0.12196 0.0
N1294 N 0.99519 0.35769 0.11824 0.0
N1295 N 0.99688 0.27907 0.20667 0.0
C1296 C 0.99949 0.34108 0.14156 0.0
C1297 C 0.00014 0.3005 0.18626 0.0
N1298 N 0.992 0.35684 0.20661 0.0
N1299 N 0.01947 0.29245 0.12544 0.0
H1300 H 0.99073 0.27502 0.23774 0.0
H1301 H 0.99859 0.26447 0.19215 0.0
H1302 H 0.02565 0.29548 0.09432 0.0
H1303 H 0.02325 0.27955 0.14125 0.0
H1304 H 0.99533 0.37408 0.19331 0.0
H1305 H 0.98872 0.35597 0.23879 0.0
H1306 H 0.98611 0.36729 0.13 0.0
H1307 H 0.99847 0.36014 0.08603 0.0
C1308 C 0.65055 0.98683 0.51766 0.0
C1309 C 0.67097 0.98673 0.53972 0.0
C1310 C 0.69779 0.00088 0.4764 0.0
C1311 C 0.67757 0.00185 0.455 0.0
N1312 N 0.63418 0.99529 0.45565 0.0
N1313 N 0.71444 0.9949 0.54254 0.0
C1314 C 0.65398 0.99471 0.47551 0.0
C1315 C 0.69474 0.99401 0.51971 0.0
N1316 N 0.62762 0.97964 0.53705 0.0
N1317 N 0.71958 0.0061 0.45493 0.0
H1318 H 0.71247 0.98947 0.57399 0.0
H1319 H 0.73303 0.00205 0.53136 0.0
H1320 H 0.72234 0.01146 0.42341 0.0
H1321 H 0.73438 0.00389 0.46724 0.0
H1322 H 0.61222 0.97954 0.52169 0.0
H1323 H 0.62385 0.97373 0.56825 0.0
H1324 H 0.63459 0.00078 0.42451 0.0
H1325 H 0.63459 0.00078 0.42451 0.0
C1326 C 0.65123 0.6791 0.81598 0.0
C1327 C 0.67161 0.68723 0.78667 0.0
C1328 C 0.70077 0.68956 0.84237 0.0
C1329 C 0.68017 0.6808 0.87134 0.0
N1330 N 0.63779 0.67298 0.88869 0.0
N1331 N 0.71669 0.70541 0.77224 0.0
C1332 C 0.6561 0.67768 0.8591 0.0
C1333 C 0.69677 0.69424 0.80006 0.0
N1334 N 0.62684 0.67119 0.80221 0.0
N1335 N 0.72377 0.69243 0.85517 0.0
H1336 H 0.71413 0.70888 0.74105 0.0
H1337 H 0.73589 0.71301 0.78055 0.0
H1338 H 0.72756 0.69038 0.88643 0.0
H1339 H 0.73872 0.69586 0.8349 0.0
H1340 H 0.61056 0.66191 0.82103 0.0
H1341 H 0.62255 0.67235 0.77096 0.0
H1342 H 0.62093 0.67326 0.88244 0.0
H1343 H 0.6403 0.67088 0.92047 0.0
C1344 C 0.99386 0.66005 0.19283 0.0
C1345 C 0.00082 0.6837 0.21301 0.0
C1346 C 0.99083 0.69984 0.14938 0.0
C1347 C 0.98618 0.67715 0.12824 0.0
N1348 N 0.98565 0.63667 0.12754 0.0
N1349 N 0.00791 0.72684 0.21119 0.0
C1350 C 0.98823 0.65746 0.14939 0.0
C1351 C -0.00025 0.70381 0.19153 0.0
N1352 N 0.99243 0.63998 0.21538 0.0
N1353 N 0.98634 0.71732 0.12925 0.0
H1354 H 0.01363 0.72995 0.24253 0.0
H1355 H 0.01035 0.74327 0.19609 0.0
H1356 H 0.98041 0.71519 0.09805 0.0
H1357 H 0.98684 0.73302 0.14397 0.0
H1358 H 0.98458 0.62135 0.2038 0.0
H1359 H 0.99729 0.64129 0.24701 0.0
H1360 H 0.99004 0.62328 0.13983 0.0
H1361 H 0.98082 0.6336 0.09587 0.0
C1362 C 0.34377 0.0048 0.47101 0.0
C1363 C 0.3217 0.00246 0.4507 0.0
C1364 C 0.31024 0.01754 0.51408 0.0
C1365 C 0.33107 0.01767 0.53523 0.0
N1366 N 0.36461 0.00664 0.53675 0.0
N1367 N 0.28223 0.00361 0.45312 0.0
C1368 C 0.34696 0.00991 0.51452 0.0
C1369 C 0.30441 0.00801 0.47228 0.0
N1370 N 0.36206 0.00281 0.44843 0.0
N1371 N 0.29654 0.0271 0.53361 0.0
H1372 H 0.27779 0.99723 0.4222 0.0
H1373 H 0.26751 0.00467 0.46852 0.0
H1374 H 0.3001 0.03376 0.56446 0.0
H1375 H 0.28284 0.03001 0.51855 0.0
H1376 H 0.37987 0.00716 0.46064 0.0
H1377 H 0.36054 0.99914 0.41633 0.0
H1378 H 0.37471 0.99828 0.52421 0.0
H1379 H 0.36753 0.01003 0.56889 0.0
C1380 C 0.48239 0.47885 0.05888 0.0
C1381 C 0.46746 0.48096 0.09144 0.0
C1382 C 0.50595 0.51711 0.12217 0.0
C1383 C 0.52104 0.51414 0.09084 0.0
N1384 N 0.5248 0.49054 0.0328 0.0
N1385 N 0.46456 0.49938 0.15688 0.0
C1386 C 0.50958 0.49449 0.06017 0.0
C1387 C 0.47912 0.49933 0.12396 0.0
N1388 N 0.47046 0.46234 0.02622 0.0
N1389 N 0.51725 0.53732 0.14951 0.0
H1390 H 0.44471 0.48717 0.15853 0.0
H1391 H 0.47221 0.51029 0.1839 0.0
H1392 H 0.537 0.55016 0.1501 0.0
H1393 H 0.50703 0.54239 0.16996 0.0
H1394 H 0.47988 0.46194 -0.00089 0.0
H1395 H 0.45062 0.45003 0.0248 0.0
H1396 H 0.51798 0.47485 0.01266 0.0
H1397 H 0.54476 0.50203 0.03218 0.0
C1398 C 0.0195 0.51607 0.4445 0.0
C1399 C 0.01023 0.52724 0.41511 0.0
C1400 C 0.97921 0.48454 0.38802 0.0
C1401 C 0.98976 0.47357 0.41532 0.0
N1402 N 0.0214 0.47836 0.46646 0.0
N1403 N 0.98325 0.52315 0.35629 0.0
C1404 C 0.01028 0.48919 0.44282 0.0
C1405 C 0.99059 0.51175 0.38614 0.0
N1406 N 0.03676 0.53115 0.47447 0.0
N1407 N 0.95801 0.46885 0.36453 0.0
H1408 H 0.9905 0.54295 0.35491 0.0
H1409 H 0.9712 0.51332 0.33128 0.0
H1410 H 0.94961 0.44888 0.36431 0.0
H1411 H 0.94762 0.47532 0.34738 0.0
H1412 H 0.04211 0.52391 0.49976 0.0
H1413 H 0.04461 0.55104 0.47576 0.0
H1414 H 0.03829 0.48893 0.48344 0.0
H1415 H 0.01464 0.45863 0.4671 0.0
C1416 C 0.52633 0.00929 0.74183 0.0
C1417 C 0.51691 0.98491 0.76119 0.0
C1418 C 0.47637 0.98333 0.77838 0.0
C1419 C 0.48596 0.00792 0.75975 0.0
N1420 N 0.52058 0.04591 0.72814 0.0
N1421 N 0.48489 0.94993 0.80242 0.0
C1422 C 0.51115 0.02141 0.74283 0.0
C1423 C 0.49248 0.9723 0.78089 0.0
N1424 N 0.54957 0.02052 0.72174 0.0
N1425 N 0.45159 0.97031 0.79271 0.0
H1426 H 0.49573 0.94075 0.80346 0.0
H1427 H 0.46867 0.94113 0.82142 0.0
H1428 H 0.43965 0.97829 0.79337 0.0
H1429 H 0.44224 0.95115 0.80203 0.0
H1430 H 0.55639 0.03674 0.70284 0.0
H1431 H 0.5618 0.01288 0.72219 0.0
H1432 H 0.53961 0.05797 0.71945 0.0
H1433 H 0.50965 0.05499 0.72686 0.0
C1434 C 0.52364 0.50947 0.58413 0.0
C1435 C 0.51328 0.5245 0.5684 0.0
C1436 C 0.47101 0.4858 0.56128 0.0
C1437 C 0.48195 0.47057 0.57326 0.0
N1438 N 0.51944 0.46727 0.58914 0.0
N1439 N 0.47846 0.52688 0.53523 0.0
C1440 C 0.50852 0.48223 0.5827 0.0
C1441 C 0.48732 0.51263 0.55501 0.0
N1442 N 0.54756 0.52121 0.60187 0.0
N1443 N 0.44495 0.47478 0.55738 0.0
H1444 H 0.48988 0.5466 0.53003 0.0
H1445 H 0.46056 0.51883 0.52076 0.0
H1446 H 0.43231 0.4552 0.56195 0.0
H1447 H 0.43567 0.48535 0.55321 0.0
H1448 H 0.55499 0.51127 0.61793 0.0
H1449 H 0.55921 0.54113 0.60385 0.0
H1450 H 0.53919 0.47469 0.59167 0.0
H1451 H 0.50897 0.44723 0.58829 0.0
C1452 C 0.01018 0.5285 0.93642 0.0
C1453 C 0.98911 0.52321 0.90994 0.0
C1454 C 0.98747 0.48386 0.88468 0.0
C1455 C 0.00918 0.48969 0.9099 0.0
N1456 N 0.04326 0.51846 0.95603 0.0
N1457 N 0.95942 0.49812 0.85527 0.0
C1458 C 0.02116 0.51232 0.93469 0.0
C1459 C 0.97825 0.50153 0.88297 0.0
N1460 N 0.01927 0.5487 0.96385 0.0
N1461 N 0.97533 0.4611 0.86322 0.0
H1462 H 0.9515 0.51011 0.85426 0.0
H1463 H 0.95265 0.48445 0.83147 0.0
H1464 H 0.98216 0.4482 0.86229 0.0
H1465 H 0.9577 0.45417 0.84824 0.0
H1466 H 0.03256 0.55201 0.98736 0.0
H1467 H 0.01241 0.56159 0.96481 0.0
H1468 H 0.05459 0.53595 0.97104 0.0
H1469 H 0.05134 0.50661 0.95663 0.0
C1470 C 0.51557 0.02167 0.21053 0.0
C1471 C 0.52663 0.0138 0.24238 0.0
C1472 C 0.48405 0.98539 0.27239 0.0
C1473 C 0.47321 0.99455 0.24221 0.0
N1474 N 0.47826 0.02339 0.18576 0.0
N1475 N 0.52257 0.99078 0.30644 0.0
C1476 C 0.48887 0.01325 0.21211 0.0
C1477 C 0.51118 0.99636 0.27414 0.0
N1478 N 0.53053 0.03672 0.17829 0.0
N1479 N 0.4683 0.9658 0.29871 0.0
H1480 H 0.54234 0.99792 0.30817 0.0
H1481 H 0.51279 0.98053 0.33303 0.0
H1482 H 0.44837 0.95776 0.29903 0.0
H1483 H 0.47464 0.95625 0.31828 0.0
H1484 H 0.52323 0.04075 0.15159 0.0
H1485 H 0.55031 0.04388 0.17678 0.0
H1486 H 0.48898 0.03913 0.16638 0.0
H1487 H 0.45864 0.01715 0.18521 0.0
loop_
_geom_bond_atom_site_label_1
_geom_bond_atom_site_label_2
_geom_bond_distance
_geom_bond_site_symmetry_2
_ccdc_geom_bond_type
Li0 N17 1.990 . S
Li0 O60 1.956 . S
Li0 O61 1.970 . S
Li0 O62 1.961 . S
Li1 N25 1.990 . S
Li1 O60 1.970 . S
Li1 O61 1.956 . S
Li1 O63 1.961 . S
Li2 N47 1.990 . S
Li2 O60 1.961 . S
Li2 O62 1.956 . S
Li2 O63 1.970 . S
Li3 N53 1.990 1_554 S
Li3 O61 1.961 . S
Li3 O62 1.970 . S
Li3 O63 1.956 . S
C4 C6 1.348 . S
C4 C7 1.356 . S
C4 O60 1.325 . S
N5 C8 1.314 . S
N5 C9 1.279 . S
C6 C4 1.348 . S
C6 C8 1.353 . S
C6 H64 0.929 . S
C7 C4 1.356 . S
C7 C9 1.358 . S
C7 H65 0.930 . S
C8 N5 1.314 . S
C8 C6 1.353 . S
C8 H66 0.930 . S
C9 N5 1.279 . S
C9 C7 1.358 . S
C9 H67 0.930 . S
C10 C13 1.348 . S
C10 C14 1.356 . S
C10 O61 1.325 . S
C11 N12 1.279 . S
C11 C14 1.358 . S
C11 H68 0.930 . S
N12 C11 1.279 . S
N12 C15 1.314 . S
C13 C10 1.348 . S
C13 C15 1.353 . S
C13 H69 0.929 . S
C14 C10 1.356 . S
C14 C11 1.358 . S
C14 H70 0.930 . S
C15 N12 1.314 . S
C15 C13 1.353 . S
C15 H71 0.930 . S
C16 N17 1.314 . S
C16 C21 1.353 . S
C16 H22 0.930 1_554 S
N17 Li0 1.990 . S
N17 C16 1.314 . S
N17 C19 1.279 . S
C18 C19 1.358 . S
C18 C20 1.356 . S
C18 H72 0.930 . S
C19 N17 1.279 . S
C19 C18 1.358 . S
C19 H23 0.930 . S
C20 C18 1.356 . S
C20 C21 1.348 . S
C21 C16 1.353 . S
C21 C20 1.348 . S
C21 H73 0.929 1_554 S
H22 C16 0.930 1_556 S
H23 C19 0.930 . S
C24 N25 1.314 . S
C24 C26 1.353 . S
C24 H30 0.930 . S
N25 Li1 1.990 . S
N25 C24 1.314 . S
N25 C28 1.279 . S
C26 C24 1.353 . S
C26 C29 1.348 . S
C26 H74 0.929 . S
C27 C28 1.358 . S
C27 C29 1.356 . S
C27 H75 0.930 . S
C28 N25 1.279 . S
C28 C27 1.358 . S
C28 H31 0.930 . S
C29 C26 1.348 . S
C29 C27 1.356 . S
H30 C24 0.930 . S
H31 C28 0.930 . S
C32 C34 1.348 . S
C32 C35 1.356 . S
C32 O62 1.325 1_556 S
N33 C36 1.314 . S
N33 C37 1.279 . S
C34 C32 1.348 . S
C34 C36 1.353 . S
C34 H76 0.929 . S
C35 C32 1.356 . S
C35 C37 1.358 . S
C35 H77 0.930 1_556 S
C36 N33 1.314 . S
C36 C34 1.353 . S
C36 H78 0.930 . S
C37 N33 1.279 . S
C37 C35 1.358 . S
C37 H79 0.930 . S
C38 C39 1.348 . S
C38 C40 1.356 . S
C38 O63 1.325 . S
C39 C38 1.348 . S
C39 C41 1.353 . S
C39 H80 0.929 . S
C40 C38 1.356 . S
C40 C42 1.358 . S
C40 H81 0.930 . S
C41 C39 1.353 . S
C41 N43 1.314 . S
C41 H82 0.930 . S
C42 C40 1.358 . S
C42 N43 1.279 . S
C42 H83 0.930 . S
N43 C41 1.314 . S
N43 C42 1.279 . S
C44 C46 1.353 . S
C44 N47 1.314 . S
C44 H50 0.930 . S
C45 N47 1.279 . S
C45 C48 1.358 . S
C45 H51 0.930 . S
C46 C44 1.353 . S
C46 C49 1.348 . S
C46 H84 0.929 . S
N47 Li2 1.990 . S
N47 C44 1.314 . S
N47 C45 1.279 . S
C48 C45 1.358 . S
C48 C49 1.356 . S
C48 H85 0.930 . S
C49 C46 1.348 . S
C49 C48 1.356 . S
H50 C44 0.930 . S
H51 C45 0.930 . S
C52 N53 1.314 . S
C52 C54 1.353 . S
C52 H58 0.930 . S
N53 Li3 1.990 1_556 S
N53 C52 1.314 . S
N53 C56 1.279 . S
C54 C52 1.353 . S
C54 C57 1.348 . S
C54 H86 0.929 . S
C55 C56 1.358 . S
C55 C57 1.356 . S
C55 H87 0.930 . S
C56 N53 1.279 . S
C56 C55 1.358 . S
C56 H59 0.930 . S
C57 C54 1.348 . S
C57 C55 1.356 . S
H58 C52 0.930 . S
H59 C56 0.930 . S
O60 Li0 1.956 . S
O60 Li1 1.970 . S
O60 Li2 1.961 . S
O60 C4 1.325 . S
O61 Li0 1.970 . S
O61 Li1 1.956 . S
O61 Li3 1.961 . S
O61 C10 1.325 . S
O62 Li0 1.961 . S
O62 Li2 1.956 . S
O62 Li3 1.970 . S
O62 C32 1.325 1_554 S
O63 Li1 1.961 . S
O63 Li2 1.970 . S
O63 Li3 1.956 . S
O63 C38 1.325 . S
H64 C6 0.929 . S
H65 C7 0.930 . S
H66 C8 0.930 . S
H67 C9 0.930 . S
H68 C11 0.930 . S
H69 C13 0.929 . S
H70 C14 0.930 . S
H71 C15 0.930 . S
H72 C18 0.930 . S
H73 C21 0.929 1_556 S
H74 C26 0.929 . S
H75 C27 0.930 . S
H76 C34 0.929 . S
H77 C35 0.930 1_554 S
H78 C36 0.930 . S
H79 C37 0.930 . S
H80 C39 0.929 . S
H81 C40 0.930 . S
H82 C41 0.930 . S
H83 C42 0.930 . S
H84 C46 0.929 . S
H85 C48 0.930 . S
H86 C54 0.929 . S
H87 C55 0.930 . S
Li88 N105 1.990 . S
Li88 O148 1.956 . S
Li88 O149 1.970 . S
Li88 O150 1.961 . S
Li89 N113 1.990 . S
Li89 O148 1.970 . S
Li89 O149 1.956 . S
Li89 O151 1.961 . S
Li90 N135 1.990 . S
Li90 O148 1.961 . S
Li90 O150 1.956 . S
Li90 O151 1.970 . S
Li91 N141 1.990 . S
Li91 O149 1.961 . S
Li91 O150 1.970 . S
Li91 O151 1.956 . S
C92 C94 1.348 . S
C92 C95 1.356 . S
C92 O148 1.325 . S
N93 C96 1.314 . S
N93 C97 1.279 . S
C94 C92 1.348 . S
C94 C96 1.353 . S
C94 H152 0.929 . S
C95 C92 1.356 . S
C95 C97 1.358 . S
C95 H153 0.930 . S
C96 N93 1.314 . S
C96 C94 1.353 . S
C96 H154 0.930 . S
C97 N93 1.279 . S
C97 C95 1.358 . S
C97 H155 0.930 . S
C98 C101 1.348 . S
C98 C102 1.356 . S
C98 O149 1.325 . S
C99 N100 1.279 . S
C99 C102 1.358 . S
C99 H156 0.930 . S
N100 C99 1.279 . S
N100 C103 1.314 . S
C101 C98 1.348 . S
C101 C103 1.353 . S
C101 H157 0.929 . S
C102 C98 1.356 . S
C102 C99 1.358 . S
C102 H158 0.930 . S
C103 N100 1.314 . S
C103 C101 1.353 . S
C103 H159 0.930 . S
C104 N105 1.310 1_455 S
C104 C109 1.370 . S
C104 H110 0.917 . S
N105 Li88 1.990 . S
N105 C104 1.310 1_655 S
N105 C107 1.279 . S
C106 C107 1.358 . S
C106 C108 1.356 1_655 S
C106 H160 0.930 . S
C107 N105 1.279 . S
C107 C106 1.358 . S
C107 H111 0.930 . S
C108 C106 1.356 1_455 S
C108 C109 1.348 . S
C109 C104 1.370 . S
C109 C108 1.348 . S
C109 H161 0.929 . S
H110 C104 0.917 . S
H111 C107 0.930 . S
C112 N113 1.314 . S
C112 C114 1.353 . S
C112 H118 0.930 . S
N113 Li89 1.990 . S
N113 C112 1.314 . S
N113 C116 1.279 . S
C114 C112 1.353 . S
C114 C117 1.348 . S
C114 H162 0.929 . S
C115 C116 1.358 . S
C115 C117 1.356 . S
C115 H163 0.930 . S
C116 N113 1.279 . S
C116 C115 1.358 . S
C116 H119 0.930 . S
C117 C114 1.348 . S
C117 C115 1.356 . S
H118 C112 0.930 . S
H119 C116 0.930 . S
C120 C122 1.348 . S
C120 C123 1.356 . S
C120 O150 1.325 1_455 S
N121 C124 1.314 . S
N121 C125 1.279 . S
C122 C120 1.348 . S
C122 C124 1.353 . S
C122 H164 0.929 . S
C123 C120 1.356 . S
C123 C125 1.358 . S
C123 H165 0.930 . S
C124 N121 1.314 . S
C124 C122 1.353 . S
C124 H166 0.930 . S
C125 N121 1.279 . S
C125 C123 1.358 . S
C125 H167 0.930 . S
C126 C127 1.348 . S
C126 C128 1.356 . S
C126 O151 1.325 . S
C127 C126 1.348 . S
C127 C129 1.353 . S
C127 H168 0.929 . S
C128 C126 1.356 . S
C128 C130 1.358 . S
C128 H169 0.930 . S
C129 C127 1.353 . S
C129 N131 1.314 . S
C129 H170 0.930 . S
C130 C128 1.358 . S
C130 N131 1.279 . S
C130 H171 0.930 . S
N131 C129 1.314 . S
N131 C130 1.279 . S
C132 C134 1.353 1_655 S
C132 N135 1.314 . S
C132 H138 0.930 . S
C133 N135 1.279 1_455 S
C133 C136 1.358 . S
C133 H139 0.930 . S
C134 C132 1.353 1_455 S
C134 C137 1.348 . S
C134 H172 0.929 1_455 S
N135 Li90 1.990 . S
N135 C132 1.314 . S
N135 C133 1.279 1_655 S
C136 C133 1.358 . S
C136 C137 1.356 . S
C136 H173 0.930 . S
C137 C134 1.348 . S
C137 C136 1.356 . S
H138 C132 0.930 . S
H139 C133 0.930 . S
C140 N141 1.314 . S
C140 C142 1.353 . S
C140 H146 0.930 . S
N141 Li91 1.990 . S
N141 C140 1.314 . S
N141 C144 1.279 . S
C142 C140 1.353 . S
C142 C145 1.348 . S
C142 H174 0.929 . S
C143 C144 1.358 . S
C143 C145 1.356 . S
C143 H175 0.930 . S
C144 N141 1.279 . S
C144 C143 1.358 . S
C144 H147 0.930 . S
C145 C142 1.348 . S
C145 C143 1.356 . S
H146 C140 0.930 . S
H147 C144 0.930 . S
O148 Li88 1.956 . S
O148 Li89 1.970 . S
O148 Li90 1.961 . S
O148 C92 1.325 . S
O149 Li88 1.970 . S
O149 Li89 1.956 . S
O149 Li91 1.961 . S
O149 C98 1.325 . S
O150 Li88 1.961 . S
O150 Li90 1.956 . S
O150 Li91 1.970 . S
O150 C120 1.325 1_655 S
O151 Li89 1.961 . S
O151 Li90 1.970 . S
O151 Li91 1.956 . S
O151 C126 1.325 . S
H152 C94 0.929 . S
H153 C95 0.930 . S
H154 C96 0.930 . S
H155 C97 0.930 . S
H156 C99 0.930 . S
H157 C101 0.929 . S
H158 C102 0.930 . S
H159 C103 0.930 . S
H160 C106 0.930 . S
H161 C109 0.929 . S
H162 C114 0.929 . S
H163 C115 0.930 . S
H164 C122 0.929 . S
H165 C123 0.930 . S
H166 C124 0.930 . S
H167 C125 0.930 . S
H168 C127 0.929 . S
H169 C128 0.930 . S
H170 C129 0.930 . S
H171 C130 0.930 . S
H172 C134 0.929 1_655 S
H173 C136 0.930 . S
H174 C142 0.929 . S
H175 C143 0.930 . S
Li176 N193 1.990 . S
Li176 O236 1.956 . S
Li176 O237 1.970 . S
Li176 O238 1.961 . S
Li177 N201 1.990 . S
Li177 O236 1.970 . S
Li177 O237 1.956 . S
Li177 O239 1.961 . S
Li178 N223 1.990 . S
Li178 O236 1.961 . S
Li178 O238 1.956 . S
Li178 O239 1.970 . S
Li179 N229 1.990 . S
Li179 O237 1.961 . S
Li179 O238 1.970 . S
Li179 O239 1.956 . S
C180 C182 1.348 . S
C180 C183 1.356 . S
C180 O236 1.325 . S
N181 C184 1.314 . S
N181 C185 1.279 . S
C182 C180 1.348 . S
C182 C184 1.353 . S
C182 H240 0.929 . S
C183 C180 1.356 . S
C183 C185 1.358 . S
C183 H241 0.930 . S
C184 N181 1.314 . S
C184 C182 1.353 . S
C184 H242 0.930 . S
C185 N181 1.279 . S
C185 C183 1.358 . S
C185 H243 0.930 . S
C186 C189 1.348 . S
C186 C190 1.356 . S
C186 O237 1.325 . S
C187 N188 1.279 . S
C187 C190 1.358 . S
C187 H244 0.930 . S
N188 C187 1.279 . S
N188 C191 1.314 . S
C189 C186 1.348 . S
C189 C191 1.353 . S
C189 H245 0.929 . S
C190 C186 1.356 . S
C190 C187 1.358 . S
C190 H246 0.930 . S
C191 N188 1.314 . S
C191 C189 1.353 . S
C191 H247 0.930 . S
C192 N193 1.289 1_545 S
C192 C197 1.361 . S
C192 H198 0.950 . S
N193 Li176 1.990 . S
N193 C192 1.289 1_565 S
N193 C195 1.279 . S
C194 C195 1.358 . S
C194 C196 1.356 1_565 S
C194 H248 0.930 . S
C195 N193 1.279 . S
C195 C194 1.358 . S
C195 H199 0.930 . S
C196 C194 1.356 1_545 S
C196 C197 1.348 . S
C197 C192 1.361 . S
C197 C196 1.348 . S
C197 H249 0.929 . S
H198 C192 0.950 . S
H199 C195 0.930 . S
C200 N201 1.314 . S
C200 C202 1.353 . S
C200 H206 0.930 . S
N201 Li177 1.990 . S
N201 C200 1.314 . S
N201 C204 1.279 . S
C202 C200 1.353 . S
C202 C205 1.348 . S
C202 H250 0.929 . S
C203 C204 1.358 . S
C203 C205 1.356 . S
C203 H251 0.930 . S
C204 N201 1.279 . S
C204 C203 1.358 . S
C204 H207 0.930 . S
C205 C202 1.348 . S
C205 C203 1.356 . S
H206 C200 0.930 . S
H207 C204 0.930 . S
C208 C210 1.348 . S
C208 C211 1.356 . S
C208 O238 1.325 1_545 S
N209 C212 1.314 . S
N209 C213 1.279 . S
C210 C208 1.348 . S
C210 C212 1.353 . S
C210 H252 0.929 . S
C211 C208 1.356 . S
C211 C213 1.358 . S
C211 H253 0.930 . S
C212 N209 1.314 . S
C212 C210 1.353 . S
C212 H254 0.930 . S
C213 N209 1.279 . S
C213 C211 1.358 . S
C213 H255 0.930 . S
C214 C215 1.348 . S
C214 C216 1.356 . S
C214 O239 1.325 . S
C215 C214 1.348 . S
C215 C217 1.353 . S
C215 H256 0.929 . S
C216 C214 1.356 . S
C216 C218 1.358 . S
C216 H257 0.930 . S
C217 C215 1.353 . S
C217 N219 1.314 . S
C217 H258 0.930 . S
C218 C216 1.358 . S
C218 N219 1.279 . S
C218 H259 0.930 . S
N219 C217 1.314 . S
N219 C218 1.279 . S
C220 C222 1.353 1_565 S
C220 N223 1.314 . S
C220 H226 0.930 . S
C221 N223 1.279 1_545 S
C221 C224 1.358 . S
C221 H227 0.930 . S
C222 C220 1.353 1_545 S
C222 C225 1.348 . S
C222 H260 0.929 1_545 S
N223 Li178 1.990 . S
N223 C220 1.314 . S
N223 C221 1.279 1_565 S
C224 C221 1.358 . S
C224 C225 1.356 . S
C224 H261 0.930 . S
C225 C222 1.348 . S
C225 C224 1.356 . S
H226 C220 0.930 . S
H227 C221 0.930 . S
C228 N229 1.314 . S
C228 C230 1.353 . S
C228 H234 0.930 . S
N229 Li179 1.990 . S
N229 C228 1.314 . S
N229 C232 1.279 . S
C230 C228 1.353 . S
C230 C233 1.348 . S
C230 H262 0.929 . S
C231 C232 1.358 . S
C231 C233 1.356 . S
C231 H263 0.930 . S
C232 N229 1.279 . S
C232 C231 1.358 . S
C232 H235 0.930 . S
C233 C230 1.348 . S
C233 C231 1.356 . S
H234 C228 0.930 . S
H235 C232 0.930 . S
O236 Li176 1.956 . S
O236 Li177 1.970 . S
O236 Li178 1.961 . S
O236 C180 1.325 . S
O237 Li176 1.970 . S
O237 Li177 1.956 . S
O237 Li179 1.961 . S
O237 C186 1.325 . S
O238 Li176 1.961 . S
O238 Li178 1.956 . S
O238 Li179 1.970 . S
O238 C208 1.325 1_565 S
O239 Li177 1.961 . S
O239 Li178 1.970 . S
O239 Li179 1.956 . S
O239 C214 1.325 . S
H240 C182 0.929 . S
H241 C183 0.930 . S
H242 C184 0.930 . S
H243 C185 0.930 . S
H244 C187 0.930 . S
H245 C189 0.929 . S
H246 C190 0.930 . S
H247 C191 0.930 . S
H248 C194 0.930 . S
H249 C197 0.929 . S
H250 C202 0.929 . S
H251 C203 0.930 . S
H252 C210 0.929 . S
H253 C211 0.930 . S
H254 C212 0.930 . S
H255 C213 0.930 . S
H256 C215 0.929 . S
H257 C216 0.930 . S
H258 C217 0.930 . S
H259 C218 0.930 . S
H260 C222 0.929 1_565 S
H261 C224 0.930 . S
H262 C230 0.929 . S
H263 C231 0.930 . S
Li264 N281 1.990 . S
Li264 O324 1.956 . S
Li264 O325 1.970 . S
Li264 O326 1.961 . S
Li265 N289 1.990 . S
Li265 O324 1.970 . S
Li265 O325 1.956 . S
Li265 O327 1.961 . S
Li266 N311 1.990 1_554 S
Li266 O324 1.961 . S
Li266 O326 1.956 . S
Li266 O327 1.970 . S
Li267 N317 1.990 . S
Li267 O325 1.961 . S
Li267 O326 1.970 . S
Li267 O327 1.956 . S
C268 C270 1.348 . S
C268 C271 1.356 . S
C268 O324 1.325 . S
N269 C272 1.314 . S
N269 C273 1.279 . S
C270 C268 1.348 . S
C270 C272 1.353 . S
C270 H328 0.929 . S
C271 C268 1.356 . S
C271 C273 1.358 . S
C271 H329 0.930 . S
C272 N269 1.314 . S
C272 C270 1.353 . S
C272 H330 0.930 . S
C273 N269 1.279 . S
C273 C271 1.358 . S
C273 H331 0.930 . S
C274 C277 1.348 . S
C274 C278 1.356 . S
C274 O325 1.325 . S
C275 N276 1.279 . S
C275 C278 1.358 . S
C275 H332 0.930 . S
N276 C275 1.279 . S
N276 C279 1.314 . S
C277 C274 1.348 . S
C277 C279 1.353 . S
C277 H333 0.929 . S
C278 C274 1.356 . S
C278 C275 1.358 . S
C278 H334 0.930 . S
C279 N276 1.314 . S
C279 C277 1.353 . S
C279 H335 0.930 . S
C280 N281 1.314 . S
C280 C285 1.353 . S
C280 H286 0.930 . S
N281 Li264 1.990 . S
N281 C280 1.314 . S
N281 C283 1.279 . S
C282 C283 1.358 . S
C282 C284 1.356 . S
C282 H336 0.930 . S
C283 N281 1.279 . S
C283 C282 1.358 . S
C283 H287 0.930 . S
C284 C282 1.356 . S
C284 C285 1.348 . S
C285 C280 1.353 . S
C285 C284 1.348 . S
C285 H337 0.929 . S
H286 C280 0.930 . S
H287 C283 0.930 . S
C288 N289 1.314 . S
C288 C290 1.353 . S
C288 H294 0.930 1_554 S
N289 Li265 1.990 . S
N289 C288 1.314 . S
N289 C292 1.279 . S
C290 C288 1.353 . S
C290 C293 1.348 . S
C290 H338 0.929 1_554 S
C291 C292 1.358 . S
C291 C293 1.356 . S
C291 H339 0.930 . S
C292 N289 1.279 . S
C292 C291 1.358 . S
C292 H295 0.930 . S
C293 C290 1.348 . S
C293 C291 1.356 . S
H294 C288 0.930 1_556 S
H295 C292 0.930 . S
C296 C298 1.348 . S
C296 C299 1.356 . S
C296 O326 1.325 . S
N297 C300 1.314 . S
N297 C301 1.279 . S
C298 C296 1.348 . S
C298 C300 1.353 . S
C298 H340 0.929 . S
C299 C296 1.356 . S
C299 C301 1.358 . S
C299 H341 0.930 . S
C300 N297 1.314 . S
C300 C298 1.353 . S
C300 H342 0.930 . S
C301 N297 1.279 . S
C301 C299 1.358 . S
C301 H343 0.930 . S
C302 C303 1.348 . S
C302 C304 1.356 . S
C302 O327 1.325 1_556 S
C303 C302 1.348 . S
C303 C305 1.353 . S
C303 H344 0.929 . S
C304 C302 1.356 . S
C304 C306 1.358 . S
C304 H345 0.930 1_556 S
C305 C303 1.353 . S
C305 N307 1.314 . S
C305 H346 0.930 . S
C306 C304 1.358 . S
C306 N307 1.279 . S
C306 H347 0.930 . S
N307 C305 1.314 . S
N307 C306 1.279 . S
C308 C310 1.353 . S
C308 N311 1.314 . S
C308 H314 0.930 . S
C309 N311 1.279 . S
C309 C312 1.358 . S
C309 H315 0.930 . S
C310 C308 1.353 . S
C310 C313 1.348 . S
C310 H348 0.929 . S
N311 Li266 1.990 1_556 S
N311 C308 1.314 . S
N311 C309 1.279 . S
C312 C309 1.358 . S
C312 C313 1.356 . S
C312 H349 0.930 . S
C313 C310 1.348 . S
C313 C312 1.356 . S
H314 C308 0.930 . S
H315 C309 0.930 . S
C316 N317 1.314 . S
C316 C318 1.353 . S
C316 H322 0.930 . S
N317 Li267 1.990 . S
N317 C316 1.314 . S
N317 C320 1.279 . S
C318 C316 1.353 . S
C318 C321 1.348 . S
C318 H350 0.929 . S
C319 C320 1.358 . S
C319 C321 1.356 . S
C319 H351 0.930 . S
C320 N317 1.279 . S
C320 C319 1.358 . S
C320 H323 0.930 . S
C321 C318 1.348 . S
C321 C319 1.356 . S
H322 C316 0.930 . S
H323 C320 0.930 . S
O324 Li264 1.956 . S
O324 Li265 1.970 . S
O324 Li266 1.961 . S
O324 C268 1.325 . S
O325 Li264 1.970 . S
O325 Li265 1.956 . S
O325 Li267 1.961 . S
O325 C274 1.325 . S
O326 Li264 1.961 . S
O326 Li266 1.956 . S
O326 Li267 1.970 . S
O326 C296 1.325 . S
O327 Li265 1.961 . S
O327 Li266 1.970 . S
O327 Li267 1.956 . S
O327 C302 1.325 1_554 S
H328 C270 0.929 . S
H329 C271 0.930 . S
H330 C272 0.930 . S
H331 C273 0.930 . S
H332 C275 0.930 . S
H333 C277 0.929 . S
H334 C278 0.930 . S
H335 C279 0.930 . S
H336 C282 0.930 . S
H337 C285 0.929 . S
H338 C290 0.929 1_556 S
H339 C291 0.930 . S
H340 C298 0.929 . S
H341 C299 0.930 . S
H342 C300 0.930 . S
H343 C301 0.930 . S
H344 C303 0.929 . S
H345 C304 0.930 1_554 S
H346 C305 0.930 . S
H347 C306 0.930 . S
H348 C310 0.929 . S
H349 C312 0.930 . S
H350 C318 0.929 . S
H351 C319 0.930 . S
Li352 N369 1.990 . S
Li352 O412 1.956 . S
Li352 O413 1.970 . S
Li352 O414 1.961 . S
Li353 N377 1.990 . S
Li353 O412 1.970 . S
Li353 O413 1.956 . S
Li353 O415 1.961 . S
Li354 N399 1.990 . S
Li354 O412 1.961 . S
Li354 O414 1.956 . S
Li354 O415 1.970 . S
Li355 N405 1.990 . S
Li355 O413 1.961 . S
Li355 O414 1.970 . S
Li355 O415 1.956 . S
C356 C358 1.348 . S
C356 C359 1.356 . S
C356 O412 1.325 . S
N357 C360 1.314 . S
N357 C361 1.279 . S
C358 C356 1.348 . S
C358 C360 1.353 . S
C358 H416 0.929 . S
C359 C356 1.356 . S
C359 C361 1.358 . S
C359 H417 0.930 . S
C360 N357 1.314 . S
C360 C358 1.353 . S
C360 H418 0.930 . S
C361 N357 1.279 . S
C361 C359 1.358 . S
C361 H419 0.930 . S
C362 C365 1.348 . S
C362 C366 1.356 . S
C362 O413 1.325 . S
C363 N364 1.279 . S
C363 C366 1.358 . S
C363 H420 0.930 . S
N364 C363 1.279 . S
N364 C367 1.314 . S
C365 C362 1.348 . S
C365 C367 1.353 . S
C365 H421 0.929 . S
C366 C362 1.356 . S
C366 C363 1.358 . S
C366 H422 0.930 . S
C367 N364 1.314 . S
C367 C365 1.353 . S
C367 H423 0.930 . S
C368 N369 1.314 . S
C368 C373 1.353 . S
C368 H374 0.930 . S
N369 Li352 1.990 . S
N369 C368 1.314 . S
N369 C371 1.279 . S
C370 C371 1.358 . S
C370 C372 1.356 . S
C370 H424 0.930 . S
C371 N369 1.279 . S
C371 C370 1.358 . S
C371 H375 0.930 . S
C372 C370 1.356 . S
C372 C373 1.348 . S
C373 C368 1.353 . S
C373 C372 1.348 . S
C373 H425 0.929 . S
H374 C368 0.930 . S
H375 C371 0.930 . S
C376 N377 1.310 1_655 S
C376 C378 1.370 . S
C376 H382 0.917 . S
N377 Li353 1.990 . S
N377 C376 1.310 1_455 S
N377 C380 1.279 . S
C378 C376 1.370 . S
C378 C381 1.348 . S
C378 H426 0.929 . S
C379 C380 1.358 . S
C379 C381 1.356 1_455 S
C379 H427 0.930 . S
C380 N377 1.279 . S
C380 C379 1.358 . S
C380 H383 0.930 . S
C381 C378 1.348 . S
C381 C379 1.356 1_655 S
H382 C376 0.917 . S
H383 C380 0.930 . S
C384 C386 1.348 . S
C384 C387 1.356 . S
C384 O414 1.325 . S
N385 C388 1.314 . S
N385 C389 1.279 . S
C386 C384 1.348 . S
C386 C388 1.353 . S
C386 H428 0.929 . S
C387 C384 1.356 . S
C387 C389 1.358 . S
C387 H429 0.930 . S
C388 N385 1.314 . S
C388 C386 1.353 . S
C388 H430 0.930 . S
C389 N385 1.279 . S
C389 C387 1.358 . S
C389 H431 0.930 . S
C390 C391 1.348 . S
C390 C392 1.356 . S
C390 O415 1.325 1_655 S
C391 C390 1.348 . S
C391 C393 1.353 . S
C391 H432 0.929 . S
C392 C390 1.356 . S
C392 C394 1.358 . S
C392 H433 0.930 . S
C393 C391 1.353 . S
C393 N395 1.314 . S
C393 H434 0.930 . S
C394 C392 1.358 . S
C394 N395 1.279 . S
C394 H435 0.930 . S
N395 C393 1.314 . S
N395 C394 1.279 . S
C396 C398 1.353 . S
C396 N399 1.314 . S
C396 H402 0.930 . S
C397 N399 1.279 . S
C397 C400 1.358 . S
C397 H403 0.930 . S
C398 C396 1.353 . S
C398 C401 1.348 . S
C398 H436 0.929 . S
N399 Li354 1.990 . S
N399 C396 1.314 . S
N399 C397 1.279 . S
C400 C397 1.358 . S
C400 C401 1.356 . S
C400 H437 0.930 . S
C401 C398 1.348 . S
C401 C400 1.356 . S
H402 C396 0.930 . S
H403 C397 0.930 . S
C404 N405 1.314 . S
C404 C406 1.353 1_455 S
C404 H410 0.930 . S
N405 Li355 1.990 . S
N405 C404 1.314 . S
N405 C408 1.279 1_455 S
C406 C404 1.353 1_655 S
C406 C409 1.348 . S
C406 H438 0.929 1_655 S
C407 C408 1.358 . S
C407 C409 1.356 . S
C407 H439 0.930 . S
C408 N405 1.279 1_655 S
C408 C407 1.358 . S
C408 H411 0.930 . S
C409 C406 1.348 . S
C409 C407 1.356 . S
H410 C404 0.930 . S
H411 C408 0.930 . S
O412 Li352 1.956 . S
O412 Li353 1.970 . S
O412 Li354 1.961 . S
O412 C356 1.325 . S
O413 Li352 1.970 . S
O413 Li353 1.956 . S
O413 Li355 1.961 . S
O413 C362 1.325 . S
O414 Li352 1.961 . S
O414 Li354 1.956 . S
O414 Li355 1.970 . S
O414 C384 1.325 . S
O415 Li353 1.961 . S
O415 Li354 1.970 . S
O415 Li355 1.956 . S
O415 C390 1.325 1_455 S
H416 C358 0.929 . S
H417 C359 0.930 . S
H418 C360 0.930 . S
H419 C361 0.930 . S
H420 C363 0.930 . S
H421 C365 0.929 . S
H422 C366 0.930 . S
H423 C367 0.930 . S
H424 C370 0.930 . S
H425 C373 0.929 . S
H426 C378 0.929 . S
H427 C379 0.930 . S
H428 C386 0.929 . S
H429 C387 0.930 . S
H430 C388 0.930 . S
H431 C389 0.930 . S
H432 C391 0.929 . S
H433 C392 0.930 . S
H434 C393 0.930 . S
H435 C394 0.930 . S
H436 C398 0.929 . S
H437 C400 0.930 . S
H438 C406 0.929 1_455 S
H439 C407 0.930 . S
Li440 N457 1.990 . S
Li440 O500 1.956 . S
Li440 O501 1.970 . S
Li440 O502 1.961 . S
Li441 N465 1.990 . S
Li441 O500 1.970 . S
Li441 O501 1.956 . S
Li441 O503 1.961 . S
Li442 N487 1.990 . S
Li442 O500 1.961 . S
Li442 O502 1.956 . S
Li442 O503 1.970 . S
Li443 N493 1.990 . S
Li443 O501 1.961 . S
Li443 O502 1.970 . S
Li443 O503 1.956 . S
C444 C446 1.348 . S
C444 C447 1.356 . S
C444 O500 1.325 . S
N445 C448 1.314 . S
N445 C449 1.279 . S
C446 C444 1.348 . S
C446 C448 1.353 . S
C446 H504 0.929 . S
C447 C444 1.356 . S
C447 C449 1.358 . S
C447 H505 0.930 . S
C448 N445 1.314 . S
C448 C446 1.353 . S
C448 H506 0.930 . S
C449 N445 1.279 . S
C449 C447 1.358 . S
C449 H507 0.930 . S
C450 C453 1.348 . S
C450 C454 1.356 . S
C450 O501 1.325 . S
C451 N452 1.279 . S
C451 C454 1.358 . S
C451 H508 0.930 . S
N452 C451 1.279 . S
N452 C455 1.314 . S
C453 C450 1.348 . S
C453 C455 1.353 . S
C453 H509 0.929 . S
C454 C450 1.356 . S
C454 C451 1.358 . S
C454 H510 0.930 . S
C455 N452 1.314 . S
C455 C453 1.353 . S
C455 H511 0.930 . S
C456 N457 1.314 . S
C456 C461 1.353 . S
C456 H462 0.930 . S
N457 Li440 1.990 . S
N457 C456 1.314 . S
N457 C459 1.279 . S
C458 C459 1.358 . S
C458 C460 1.356 . S
C458 H512 0.930 . S
C459 N457 1.279 . S
C459 C458 1.358 . S
C459 H463 0.930 . S
C460 C458 1.356 . S
C460 C461 1.348 . S
C461 C456 1.353 . S
C461 C460 1.348 . S
C461 H513 0.929 . S
H462 C456 0.930 . S
H463 C459 0.930 . S
C464 N465 1.289 1_565 S
C464 C466 1.361 . S
C464 H470 0.950 . S
N465 Li441 1.990 . S
N465 C464 1.289 1_545 S
N465 C468 1.279 . S
C466 C464 1.361 . S
C466 C469 1.348 . S
C466 H514 0.929 . S
C467 C468 1.358 . S
C467 C469 1.356 1_545 S
C467 H515 0.930 . S
C468 N465 1.279 . S
C468 C467 1.358 . S
C468 H471 0.930 . S
C469 C466 1.348 . S
C469 C467 1.356 1_565 S
H470 C464 0.950 . S
H471 C468 0.930 . S
C472 C474 1.348 . S
C472 C475 1.356 . S
C472 O502 1.325 . S
N473 C476 1.314 . S
N473 C477 1.279 . S
C474 C472 1.348 . S
C474 C476 1.353 . S
C474 H516 0.929 . S
C475 C472 1.356 . S
C475 C477 1.358 . S
C475 H517 0.930 . S
C476 N473 1.314 . S
C476 C474 1.353 . S
C476 H518 0.930 . S
C477 N473 1.279 . S
C477 C475 1.358 . S
C477 H519 0.930 . S
C478 C479 1.348 . S
C478 C480 1.356 . S
C478 O503 1.325 1_565 S
C479 C478 1.348 . S
C479 C481 1.353 . S
C479 H520 0.929 . S
C480 C478 1.356 . S
C480 C482 1.358 . S
C480 H521 0.930 . S
C481 C479 1.353 . S
C481 N483 1.314 . S
C481 H522 0.930 . S
C482 C480 1.358 . S
C482 N483 1.279 . S
C482 H523 0.930 . S
N483 C481 1.314 . S
N483 C482 1.279 . S
C484 C486 1.353 . S
C484 N487 1.314 . S
C484 H490 0.930 . S
C485 N487 1.279 . S
C485 C488 1.358 . S
C485 H491 0.930 . S
C486 C484 1.353 . S
C486 C489 1.348 . S
C486 H524 0.929 . S
N487 Li442 1.990 . S
N487 C484 1.314 . S
N487 C485 1.279 . S
C488 C485 1.358 . S
C488 C489 1.356 . S
C488 H525 0.930 . S
C489 C486 1.348 . S
C489 C488 1.356 . S
H490 C484 0.930 . S
H491 C485 0.930 . S
C492 N493 1.314 . S
C492 C494 1.353 1_545 S
C492 H498 0.930 . S
N493 Li443 1.990 . S
N493 C492 1.314 . S
N493 C496 1.279 1_545 S
C494 C492 1.353 1_565 S
C494 C497 1.348 . S
C494 H526 0.929 1_565 S
C495 C496 1.358 . S
C495 C497 1.356 . S
C495 H527 0.930 . S
C496 N493 1.279 1_565 S
C496 C495 1.358 . S
C496 H499 0.930 . S
C497 C494 1.348 . S
C497 C495 1.356 . S
H498 C492 0.930 . S
H499 C496 0.930 . S
O500 Li440 1.956 . S
O500 Li441 1.970 . S
O500 Li442 1.961 . S
O500 C444 1.325 . S
O501 Li440 1.970 . S
O501 Li441 1.956 . S
O501 Li443 1.961 . S
O501 C450 1.325 . S
O502 Li440 1.961 . S
O502 Li442 1.956 . S
O502 Li443 1.970 . S
O502 C472 1.325 . S
O503 Li441 1.961 . S
O503 Li442 1.970 . S
O503 Li443 1.956 . S
O503 C478 1.325 1_545 S
H504 C446 0.929 . S
H505 C447 0.930 . S
H506 C448 0.930 . S
H507 C449 0.930 . S
H508 C451 0.930 . S
H509 C453 0.929 . S
H510 C454 0.930 . S
H511 C455 0.930 . S
H512 C458 0.930 . S
H513 C461 0.929 . S
H514 C466 0.929 . S
H515 C467 0.930 . S
H516 C474 0.929 . S
H517 C475 0.930 . S
H518 C476 0.930 . S
H519 C477 0.930 . S
H520 C479 0.929 . S
H521 C480 0.930 . S
H522 C481 0.930 . S
H523 C482 0.930 . S
H524 C486 0.929 . S
H525 C488 0.930 . S
H526 C494 0.929 1_545 S
H527 C495 0.930 . S
Li528 N545 1.990 . S
Li528 O588 1.956 . S
Li528 O589 1.970 . S
Li528 O590 1.961 . S
Li529 N553 1.990 . S
Li529 O588 1.970 . S
Li529 O589 1.956 . S
Li529 O591 1.961 . S
Li530 N575 1.990 . S
Li530 O588 1.961 . S
Li530 O590 1.956 . S
Li530 O591 1.970 . S
Li531 N581 1.990 . S
Li531 O589 1.961 . S
Li531 O590 1.970 . S
Li531 O591 1.956 . S
C532 C534 1.348 . S
C532 C535 1.356 . S
C532 O588 1.325 . S
N533 C536 1.314 . S
N533 C537 1.279 . S
C534 C532 1.348 . S
C534 C536 1.353 . S
C534 H592 0.929 . S
C535 C532 1.356 . S
C535 C537 1.358 . S
C535 H593 0.930 . S
C536 N533 1.314 . S
C536 C534 1.353 . S
C536 H594 0.930 . S
C537 N533 1.279 . S
C537 C535 1.358 . S
C537 H595 0.930 . S
C538 C541 1.348 . S
C538 C542 1.356 . S
C538 O589 1.325 . S
C539 N540 1.279 . S
C539 C542 1.358 . S
C539 H596 0.930 . S
N540 C539 1.279 . S
N540 C543 1.314 . S
C541 C538 1.348 . S
C541 C543 1.353 . S
C541 H597 0.929 . S
C542 C538 1.356 . S
C542 C539 1.358 . S
C542 H598 0.930 . S
C543 N540 1.314 . S
C543 C541 1.353 . S
C543 H599 0.930 . S
C544 N545 1.314 . S
C544 C549 1.353 . S
C544 H550 0.930 . S
N545 Li528 1.990 . S
N545 C544 1.314 . S
N545 C547 1.279 . S
C546 C547 1.358 . S
C546 C548 1.356 . S
C546 H600 0.930 . S
C547 N545 1.279 . S
C547 C546 1.358 . S
C547 H551 0.930 . S
C548 C546 1.356 . S
C548 C549 1.348 . S
C549 C544 1.353 . S
C549 C548 1.348 . S
C549 H601 0.929 . S
H550 C544 0.930 . S
H551 C547 0.930 . S
C552 N553 1.314 . S
C552 C554 1.353 . S
C552 H558 0.930 . S
N553 Li529 1.990 . S
N553 C552 1.314 . S
N553 C556 1.279 . S
C554 C552 1.353 . S
C554 C557 1.348 . S
C554 H602 0.929 . S
C555 C556 1.358 . S
C555 C557 1.356 . S
C555 H603 0.930 . S
C556 N553 1.279 . S
C556 C555 1.358 . S
C556 H559 0.930 . S
C557 C554 1.348 . S
C557 C555 1.356 . S
H558 C552 0.930 . S
H559 C556 0.930 . S
C560 C562 1.348 . S
C560 C563 1.356 . S
C560 O590 1.325 . S
N561 C564 1.314 . S
N561 C565 1.279 . S
C562 C560 1.348 . S
C562 C564 1.353 . S
C562 H604 0.929 . S
C563 C560 1.356 . S
C563 C565 1.358 . S
C563 H605 0.930 . S
C564 N561 1.314 . S
C564 C562 1.353 . S
C564 H606 0.930 . S
C565 N561 1.279 . S
C565 C563 1.358 . S
C565 H607 0.930 . S
C566 C567 1.348 . S
C566 C568 1.356 . S
C566 O591 1.325 . S
C567 C566 1.348 . S
C567 C569 1.353 . S
C567 H608 0.929 . S
C568 C566 1.356 . S
C568 C570 1.358 . S
C568 H609 0.930 . S
C569 C567 1.353 . S
C569 N571 1.314 . S
C569 H610 0.930 . S
C570 C568 1.358 . S
C570 N571 1.279 . S
C570 H611 0.930 . S
N571 C569 1.314 . S
N571 C570 1.279 . S
C572 C574 1.353 . S
C572 N575 1.314 . S
C572 H578 0.930 . S
C573 N575 1.279 . S
C573 C576 1.358 . S
C573 H579 0.930 . S
C574 C572 1.353 . S
C574 C577 1.348 . S
C574 H612 0.929 . S
N575 Li530 1.990 . S
N575 C572 1.314 . S
N575 C573 1.279 . S
C576 C573 1.358 . S
C576 C577 1.356 . S
C576 H613 0.930 . S
C577 C574 1.348 . S
C577 C576 1.356 . S
H578 C572 0.930 . S
H579 C573 0.930 . S
C580 N581 1.314 . S
C580 C582 1.353 . S
C580 H586 0.930 . S
N581 Li531 1.990 . S
N581 C580 1.314 . S
N581 C584 1.279 . S
C582 C580 1.353 . S
C582 C585 1.348 . S
C582 H614 0.929 . S
C583 C584 1.358 . S
C583 C585 1.356 . S
C583 H615 0.930 . S
C584 N581 1.279 . S
C584 C583 1.358 . S
C584 H587 0.930 . S
C585 C582 1.348 . S
C585 C583 1.356 . S
H586 C580 0.930 . S
H587 C584 0.930 . S
O588 Li528 1.956 . S
O588 Li529 1.970 . S
O588 Li530 1.961 . S
O588 C532 1.325 . S
O589 Li528 1.970 . S
O589 Li529 1.956 . S
O589 Li531 1.961 . S
O589 C538 1.325 . S
O590 Li528 1.961 . S
O590 Li530 1.956 . S
O590 Li531 1.970 . S
O590 C560 1.325 . S
O591 Li529 1.961 . S
O591 Li530 1.970 . S
O591 Li531 1.956 . S
O591 C566 1.325 . S
H592 C534 0.929 . S
H593 C535 0.930 . S
H594 C536 0.930 . S
H595 C537 0.930 . S
H596 C539 0.930 . S
H597 C541 0.929 . S
H598 C542 0.930 . S
H599 C543 0.930 . S
H600 C546 0.930 . S
H601 C549 0.929 . S
H602 C554 0.929 . S
H603 C555 0.930 . S
H604 C562 0.929 . S
H605 C563 0.930 . S
H606 C564 0.930 . S
H607 C565 0.930 . S
H608 C567 0.929 . S
H609 C568 0.930 . S
H610 C569 0.930 . S
H611 C570 0.930 . S
H612 C574 0.929 . S
H613 C576 0.930 . S
H614 C582 0.929 . S
H615 C583 0.930 . S
Li616 N633 1.990 . S
Li616 O676 1.956 . S
Li616 O677 1.970 . S
Li616 O678 1.961 . S
Li617 N641 1.990 1_556 S
Li617 O676 1.970 . S
Li617 O677 1.956 . S
Li617 O679 1.961 . S
Li618 N663 1.990 . S
Li618 O676 1.961 . S
Li618 O678 1.956 . S
Li618 O679 1.970 . S
Li619 N669 1.990 . S
Li619 O677 1.961 . S
Li619 O678 1.970 . S
Li619 O679 1.956 . S
C620 C622 1.348 . S
C620 C623 1.356 . S
C620 O676 1.325 1_554 S
N621 C624 1.314 . S
N621 C625 1.279 . S
C622 C620 1.348 . S
C622 C624 1.353 . S
C622 H680 0.929 . S
C623 C620 1.356 . S
C623 C625 1.358 . S
C623 H681 0.930 1_554 S
C624 N621 1.314 . S
C624 C622 1.353 . S
C624 H682 0.930 . S
C625 N621 1.279 . S
C625 C623 1.358 . S
C625 H683 0.930 . S
C626 C629 1.348 . S
C626 C630 1.356 . S
C626 O677 1.325 1_455 S
C627 N628 1.279 . S
C627 C630 1.358 . S
C627 H684 0.930 . S
N628 C627 1.279 . S
N628 C631 1.314 . S
C629 C626 1.348 . S
C629 C631 1.353 . S
C629 H685 0.929 . S
C630 C626 1.356 . S
C630 C627 1.358 . S
C630 H686 0.930 . S
C631 N628 1.314 . S
C631 C629 1.353 . S
C631 H687 0.930 . S
C632 N633 1.314 . S
C632 C637 1.353 . S
C632 H638 0.930 . S
N633 Li616 1.990 . S
N633 C632 1.314 . S
N633 C635 1.279 . S
C634 C635 1.358 . S
C634 C636 1.356 . S
C634 H688 0.930 . S
C635 N633 1.279 . S
C635 C634 1.358 . S
C635 H639 0.930 . S
C636 C634 1.356 . S
C636 C637 1.348 . S
C637 C632 1.353 . S
C637 C636 1.348 . S
C637 H689 0.929 . S
H638 C632 0.930 . S
H639 C635 0.930 . S
C640 N641 1.314 . S
C640 C642 1.353 1_655 S
C640 H646 0.930 . S
N641 Li617 1.990 1_554 S
N641 C640 1.314 . S
N641 C644 1.279 1_655 S
C642 C640 1.353 1_455 S
C642 C645 1.348 . S
C642 H690 0.929 1_455 S
C643 C644 1.358 . S
C643 C645 1.356 . S
C643 H691 0.930 . S
C644 N641 1.279 1_455 S
C644 C643 1.358 . S
C644 H647 0.930 . S
C645 C642 1.348 . S
C645 C643 1.356 . S
H646 C640 0.930 . S
H647 C644 0.930 . S
C648 C650 1.348 . S
C648 C651 1.356 . S
C648 O678 1.325 . S
N649 C652 1.314 . S
N649 C653 1.279 . S
C650 C648 1.348 . S
C650 C652 1.353 . S
C650 H692 0.929 . S
C651 C648 1.356 . S
C651 C653 1.358 . S
C651 H693 0.930 . S
C652 N649 1.314 . S
C652 C650 1.353 . S
C652 H694 0.930 . S
C653 N649 1.279 . S
C653 C651 1.358 . S
C653 H695 0.930 . S
C654 C655 1.348 . S
C654 C656 1.356 . S
C654 O679 1.325 . S
C655 C654 1.348 . S
C655 C657 1.353 . S
C655 H696 0.929 . S
C656 C654 1.356 . S
C656 C658 1.358 . S
C656 H697 0.930 . S
C657 C655 1.353 . S
C657 N659 1.314 . S
C657 H698 0.930 . S
C658 C656 1.358 . S
C658 N659 1.279 . S
C658 H699 0.930 . S
N659 C657 1.314 . S
N659 C658 1.279 . S
C660 C662 1.353 . S
C660 N663 1.314 . S
C660 H666 0.930 1_556 S
C661 N663 1.279 . S
C661 C664 1.358 . S
C661 H667 0.930 . S
C662 C660 1.353 . S
C662 C665 1.348 . S
C662 H700 0.929 1_556 S
N663 Li618 1.990 . S
N663 C660 1.314 . S
N663 C661 1.279 . S
C664 C661 1.358 . S
C664 C665 1.356 . S
C664 H701 0.930 . S
C665 C662 1.348 . S
C665 C664 1.356 . S
H666 C660 0.930 1_554 S
H667 C661 0.930 . S
C668 N669 1.289 1_455 S
C668 C670 1.361 . S
C668 H674 0.950 . S
N669 Li619 1.990 . S
N669 C668 1.289 1_655 S
N669 C672 1.279 . S
C670 C668 1.361 . S
C670 C673 1.348 . S
C670 H702 0.929 . S
C671 C672 1.358 . S
C671 C673 1.356 1_655 S
C671 H703 0.930 . S
C672 N669 1.279 . S
C672 C671 1.358 . S
C672 H675 0.930 . S
C673 C670 1.348 . S
C673 C671 1.356 1_455 S
H674 C668 0.950 . S
H675 C672 0.930 . S
O676 Li616 1.956 . S
O676 Li617 1.970 . S
O676 Li618 1.961 . S
O676 C620 1.325 1_556 S
O677 Li616 1.970 . S
O677 Li617 1.956 . S
O677 Li619 1.961 . S
O677 C626 1.325 1_655 S
O678 Li616 1.961 . S
O678 Li618 1.956 . S
O678 Li619 1.970 . S
O678 C648 1.325 . S
O679 Li617 1.961 . S
O679 Li618 1.970 . S
O679 Li619 1.956 . S
O679 C654 1.325 . S
H680 C622 0.929 . S
H681 C623 0.930 1_556 S
H682 C624 0.930 . S
H683 C625 0.930 . S
H684 C627 0.930 . S
H685 C629 0.929 . S
H686 C630 0.930 . S
H687 C631 0.930 . S
H688 C634 0.930 . S
H689 C637 0.929 . S
H690 C642 0.929 1_655 S
H691 C643 0.930 . S
H692 C650 0.929 . S
H693 C651 0.930 . S
H694 C652 0.930 . S
H695 C653 0.930 . S
H696 C655 0.929 . S
H697 C656 0.930 . S
H698 C657 0.930 . S
H699 C658 0.930 . S
H700 C662 0.929 1_554 S
H701 C664 0.930 . S
H702 C670 0.929 . S
H703 C671 0.930 . S
Li704 N721 1.990 . S
Li704 O764 1.956 . S
Li704 O765 1.970 . S
Li704 O766 1.961 . S
Li705 N729 1.990 . S
Li705 O764 1.970 . S
Li705 O765 1.956 . S
Li705 O767 1.961 . S
Li706 N751 1.990 . S
Li706 O764 1.961 . S
Li706 O766 1.956 . S
Li706 O767 1.970 . S
Li707 N757 1.990 . S
Li707 O765 1.961 . S
Li707 O766 1.970 . S
Li707 O767 1.956 . S
C708 C710 1.348 . S
C708 C711 1.356 . S
C708 O764 1.325 1_545 S
N709 C712 1.314 . S
N709 C713 1.279 . S
C710 C708 1.348 . S
C710 C712 1.353 . S
C710 H768 0.929 . S
C711 C708 1.356 . S
C711 C713 1.358 . S
C711 H769 0.930 . S
C712 N709 1.314 . S
C712 C710 1.353 . S
C712 H770 0.930 . S
C713 N709 1.279 . S
C713 C711 1.358 . S
C713 H771 0.930 . S
C714 C717 1.348 . S
C714 C718 1.356 . S
C714 O765 1.325 . S
C715 N716 1.279 . S
C715 C718 1.358 . S
C715 H772 0.930 . S
N716 C715 1.279 . S
N716 C719 1.314 . S
C717 C714 1.348 . S
C717 C719 1.353 . S
C717 H773 0.929 . S
C718 C714 1.356 . S
C718 C715 1.358 . S
C718 H774 0.930 . S
C719 N716 1.314 . S
C719 C717 1.353 . S
C719 H775 0.930 . S
C720 N721 1.314 . S
C720 C725 1.353 1_565 S
C720 H726 0.930 . S
N721 Li704 1.990 . S
N721 C720 1.314 . S
N721 C723 1.279 1_565 S
C722 C723 1.358 . S
C722 C724 1.356 . S
C722 H776 0.930 . S
C723 N721 1.279 1_545 S
C723 C722 1.358 . S
C723 H727 0.930 . S
C724 C722 1.356 . S
C724 C725 1.348 . S
C725 C720 1.353 1_545 S
C725 C724 1.348 . S
C725 H777 0.929 1_545 S
H726 C720 0.930 . S
H727 C723 0.930 . S
C728 N729 1.314 . S
C728 C730 1.353 . S
C728 H734 0.930 . S
N729 Li705 1.990 . S
N729 C728 1.314 . S
N729 C732 1.279 . S
C730 C728 1.353 . S
C730 C733 1.348 . S
C730 H778 0.929 . S
C731 C732 1.358 . S
C731 C733 1.356 . S
C731 H779 0.930 . S
C732 N729 1.279 . S
C732 C731 1.358 . S
C732 H735 0.930 . S
C733 C730 1.348 . S
C733 C731 1.356 . S
H734 C728 0.930 . S
H735 C732 0.930 . S
C736 C738 1.348 . S
C736 C739 1.356 . S
C736 O766 1.325 . S
N737 C740 1.314 . S
N737 C741 1.279 . S
C738 C736 1.348 . S
C738 C740 1.353 . S
C738 H780 0.929 . S
C739 C736 1.356 . S
C739 C741 1.358 . S
C739 H781 0.930 . S
C740 N737 1.314 . S
C740 C738 1.353 . S
C740 H782 0.930 . S
C741 N737 1.279 . S
C741 C739 1.358 . S
C741 H783 0.930 . S
C742 C743 1.348 . S
C742 C744 1.356 . S
C742 O767 1.325 . S
C743 C742 1.348 . S
C743 C745 1.353 . S
C743 H784 0.929 . S
C744 C742 1.356 . S
C744 C746 1.358 . S
C744 H785 0.930 . S
C745 C743 1.353 . S
C745 N747 1.314 . S
C745 H786 0.930 . S
C746 C744 1.358 . S
C746 N747 1.279 . S
C746 H787 0.930 . S
N747 C745 1.314 . S
N747 C746 1.279 . S
C748 C750 1.370 . S
C748 N751 1.310 1_545 S
C748 H754 0.917 . S
C749 N751 1.279 . S
C749 C752 1.358 . S
C749 H755 0.930 . S
C750 C748 1.370 . S
C750 C753 1.348 . S
C750 H788 0.929 . S
N751 Li706 1.990 . S
N751 C748 1.310 1_565 S
N751 C749 1.279 . S
C752 C749 1.358 . S
C752 C753 1.356 1_565 S
C752 H789 0.930 . S
C753 C750 1.348 . S
C753 C752 1.356 1_545 S
H754 C748 0.917 . S
H755 C749 0.930 . S
C756 N757 1.314 . S
C756 C758 1.353 . S
C756 H762 0.930 . S
N757 Li707 1.990 . S
N757 C756 1.314 . S
N757 C760 1.279 . S
C758 C756 1.353 . S
C758 C761 1.348 . S
C758 H790 0.929 . S
C759 C760 1.358 . S
C759 C761 1.356 . S
C759 H791 0.930 . S
C760 N757 1.279 . S
C760 C759 1.358 . S
C760 H763 0.930 . S
C761 C758 1.348 . S
C761 C759 1.356 . S
H762 C756 0.930 . S
H763 C760 0.930 . S
O764 Li704 1.956 . S
O764 Li705 1.970 . S
O764 Li706 1.961 . S
O764 C708 1.325 1_565 S
O765 Li704 1.970 . S
O765 Li705 1.956 . S
O765 Li707 1.961 . S
O765 C714 1.325 . S
O766 Li704 1.961 . S
O766 Li706 1.956 . S
O766 Li707 1.970 . S
O766 C736 1.325 . S
O767 Li705 1.961 . S
O767 Li706 1.970 . S
O767 Li707 1.956 . S
O767 C742 1.325 . S
H768 C710 0.929 . S
H769 C711 0.930 . S
H770 C712 0.930 . S
H771 C713 0.930 . S
H772 C715 0.930 . S
H773 C717 0.929 . S
H774 C718 0.930 . S
H775 C719 0.930 . S
H776 C722 0.930 . S
H777 C725 0.929 1_565 S
H778 C730 0.929 . S
H779 C731 0.930 . S
H780 C738 0.929 . S
H781 C739 0.930 . S
H782 C740 0.930 . S
H783 C741 0.930 . S
H784 C743 0.929 . S
H785 C744 0.930 . S
H786 C745 0.930 . S
H787 C746 0.930 . S
H788 C750 0.929 . S
H789 C752 0.930 . S
H790 C758 0.929 . S
H791 C759 0.930 . S
Li792 N809 1.990 . S
Li792 O852 1.956 . S
Li792 O853 1.970 . S
Li792 O854 1.961 . S
Li793 N817 1.990 . S
Li793 O852 1.970 . S
Li793 O853 1.956 . S
Li793 O855 1.961 . S
Li794 N839 1.990 . S
Li794 O852 1.961 . S
Li794 O854 1.956 . S
Li794 O855 1.970 . S
Li795 N845 1.990 . S
Li795 O853 1.961 . S
Li795 O854 1.970 . S
Li795 O855 1.956 . S
C796 C798 1.348 . S
C796 C799 1.356 . S
C796 O852 1.325 . S
N797 C800 1.314 . S
N797 C801 1.279 . S
C798 C796 1.348 . S
C798 C800 1.353 . S
C798 H856 0.929 . S
C799 C796 1.356 . S
C799 C801 1.358 . S
C799 H857 0.930 . S
C800 N797 1.314 . S
C800 C798 1.353 . S
C800 H858 0.930 . S
C801 N797 1.279 . S
C801 C799 1.358 . S
C801 H859 0.930 . S
C802 C805 1.348 . S
C802 C806 1.356 . S
C802 O853 1.325 . S
C803 N804 1.279 . S
C803 C806 1.358 . S
C803 H860 0.930 . S
N804 C803 1.279 . S
N804 C807 1.314 . S
C805 C802 1.348 . S
C805 C807 1.353 . S
C805 H861 0.929 . S
C806 C802 1.356 . S
C806 C803 1.358 . S
C806 H862 0.930 . S
C807 N804 1.314 . S
C807 C805 1.353 . S
C807 H863 0.930 . S
C808 N809 1.314 . S
C808 C813 1.353 . S
C808 H814 0.930 . S
N809 Li792 1.990 . S
N809 C808 1.314 . S
N809 C811 1.279 . S
C810 C811 1.358 . S
C810 C812 1.356 . S
C810 H864 0.930 . S
C811 N809 1.279 . S
C811 C810 1.358 . S
C811 H815 0.930 . S
C812 C810 1.356 . S
C812 C813 1.348 . S
C813 C808 1.353 . S
C813 C812 1.348 . S
C813 H865 0.929 . S
H814 C808 0.930 . S
H815 C811 0.930 . S
C816 N817 1.314 . S
C816 C818 1.353 . S
C816 H822 0.930 . S
N817 Li793 1.990 . S
N817 C816 1.314 . S
N817 C820 1.279 . S
C818 C816 1.353 . S
C818 C821 1.348 . S
C818 H866 0.929 . S
C819 C820 1.358 . S
C819 C821 1.356 . S
C819 H867 0.930 . S
C820 N817 1.279 . S
C820 C819 1.358 . S
C820 H823 0.930 . S
C821 C818 1.348 . S
C821 C819 1.356 . S
H822 C816 0.930 . S
H823 C820 0.930 . S
C824 C826 1.348 . S
C824 C827 1.356 . S
C824 O854 1.325 . S
N825 C828 1.314 . S
N825 C829 1.279 . S
C826 C824 1.348 . S
C826 C828 1.353 . S
C826 H868 0.929 . S
C827 C824 1.356 . S
C827 C829 1.358 . S
C827 H869 0.930 . S
C828 N825 1.314 . S
C828 C826 1.353 . S
C828 H870 0.930 . S
C829 N825 1.279 . S
C829 C827 1.358 . S
C829 H871 0.930 . S
C830 C831 1.348 . S
C830 C832 1.356 . S
C830 O855 1.325 . S
C831 C830 1.348 . S
C831 C833 1.353 . S
C831 H872 0.929 . S
C832 C830 1.356 . S
C832 C834 1.358 . S
C832 H873 0.930 . S
C833 C831 1.353 . S
C833 N835 1.314 . S
C833 H874 0.930 . S
C834 C832 1.358 . S
C834 N835 1.279 . S
C834 H875 0.930 . S
N835 C833 1.314 . S
N835 C834 1.279 . S
C836 C838 1.353 . S
C836 N839 1.314 . S
C836 H842 0.930 . S
C837 N839 1.279 . S
C837 C840 1.358 . S
C837 H843 0.930 . S
C838 C836 1.353 . S
C838 C841 1.348 . S
C838 H876 0.929 . S
N839 Li794 1.990 . S
N839 C836 1.314 . S
N839 C837 1.279 . S
C840 C837 1.358 . S
C840 C841 1.356 . S
C840 H877 0.930 . S
C841 C838 1.348 . S
C841 C840 1.356 . S
H842 C836 0.930 . S
H843 C837 0.930 . S
C844 N845 1.314 . S
C844 C846 1.353 . S
C844 H850 0.930 . S
N845 Li795 1.990 . S
N845 C844 1.314 . S
N845 C848 1.279 . S
C846 C844 1.353 . S
C846 C849 1.348 . S
C846 H878 0.929 . S
C847 C848 1.358 . S
C847 C849 1.356 . S
C847 H879 0.930 . S
C848 N845 1.279 . S
C848 C847 1.358 . S
C848 H851 0.930 . S
C849 C846 1.348 . S
C849 C847 1.356 . S
H850 C844 0.930 . S
H851 C848 0.930 . S
O852 Li792 1.956 . S
O852 Li793 1.970 . S
O852 Li794 1.961 . S
O852 C796 1.325 . S
O853 Li792 1.970 . S
O853 Li793 1.956 . S
O853 Li795 1.961 . S
O853 C802 1.325 . S
O854 Li792 1.961 . S
O854 Li794 1.956 . S
O854 Li795 1.970 . S
O854 C824 1.325 . S
O855 Li793 1.961 . S
O855 Li794 1.970 . S
O855 Li795 1.956 . S
O855 C830 1.325 . S
H856 C798 0.929 . S
H857 C799 0.930 . S
H858 C800 0.930 . S
H859 C801 0.930 . S
H860 C803 0.930 . S
H861 C805 0.929 . S
H862 C806 0.930 . S
H863 C807 0.930 . S
H864 C810 0.930 . S
H865 C813 0.929 . S
H866 C818 0.929 . S
H867 C819 0.930 . S
H868 C826 0.929 . S
H869 C827 0.930 . S
H870 C828 0.930 . S
H871 C829 0.930 . S
H872 C831 0.929 . S
H873 C832 0.930 . S
H874 C833 0.930 . S
H875 C834 0.930 . S
H876 C838 0.929 . S
H877 C840 0.930 . S
H878 C846 0.929 . S
H879 C847 0.930 . S
Li880 N897 1.990 . S
Li880 O940 1.956 . S
Li880 O941 1.970 . S
Li880 O942 1.961 . S
Li881 N905 1.990 1_556 S
Li881 O940 1.970 . S
Li881 O941 1.956 . S
Li881 O943 1.961 . S
Li882 N927 1.990 . S
Li882 O940 1.961 . S
Li882 O942 1.956 . S
Li882 O943 1.970 . S
Li883 N933 1.990 . S
Li883 O941 1.961 . S
Li883 O942 1.970 . S
Li883 O943 1.956 . S
C884 C886 1.348 . S
C884 C887 1.356 . S
C884 O940 1.325 1_554 S
N885 C888 1.314 . S
N885 C889 1.279 . S
C886 C884 1.348 . S
C886 C888 1.353 . S
C886 H944 0.929 . S
C887 C884 1.356 . S
C887 C889 1.358 . S
C887 H945 0.930 1_554 S
C888 N885 1.314 . S
C888 C886 1.353 . S
C888 H946 0.930 . S
C889 N885 1.279 . S
C889 C887 1.358 . S
C889 H947 0.930 . S
C890 C893 1.348 . S
C890 C894 1.356 . S
C890 O941 1.325 1_655 S
C891 N892 1.279 . S
C891 C894 1.358 . S
C891 H948 0.930 . S
N892 C891 1.279 . S
N892 C895 1.314 . S
C893 C890 1.348 . S
C893 C895 1.353 . S
C893 H949 0.929 . S
C894 C890 1.356 . S
C894 C891 1.358 . S
C894 H950 0.930 . S
C895 N892 1.314 . S
C895 C893 1.353 . S
C895 H951 0.930 . S
C896 N897 1.314 . S
C896 C901 1.353 . S
C896 H902 0.930 . S
N897 Li880 1.990 . S
N897 C896 1.314 . S
N897 C899 1.279 . S
C898 C899 1.358 . S
C898 C900 1.356 . S
C898 H952 0.930 . S
C899 N897 1.279 . S
C899 C898 1.358 . S
C899 H903 0.930 . S
C900 C898 1.356 . S
C900 C901 1.348 . S
C901 C896 1.353 . S
C901 C900 1.348 . S
C901 H953 0.929 . S
H902 C896 0.930 . S
H903 C899 0.930 . S
C904 N905 1.314 . S
C904 C906 1.353 1_455 S
C904 H910 0.930 . S
N905 Li881 1.990 1_554 S
N905 C904 1.314 . S
N905 C908 1.279 1_455 S
C906 C904 1.353 1_655 S
C906 C909 1.348 . S
C906 H954 0.929 1_655 S
C907 C908 1.358 . S
C907 C909 1.356 . S
C907 H955 0.930 . S
C908 N905 1.279 1_655 S
C908 C907 1.358 . S
C908 H911 0.930 . S
C909 C906 1.348 . S
C909 C907 1.356 . S
H910 C904 0.930 . S
H911 C908 0.930 . S
C912 C914 1.348 . S
C912 C915 1.356 . S
C912 O942 1.325 . S
N913 C916 1.314 . S
N913 C917 1.279 . S
C914 C912 1.348 . S
C914 C916 1.353 . S
C914 H956 0.929 . S
C915 C912 1.356 . S
C915 C917 1.358 . S
C915 H957 0.930 . S
C916 N913 1.314 . S
C916 C914 1.353 . S
C916 H958 0.930 . S
C917 N913 1.279 . S
C917 C915 1.358 . S
C917 H959 0.930 . S
C918 C919 1.348 . S
C918 C920 1.356 . S
C918 O943 1.325 . S
C919 C918 1.348 . S
C919 C921 1.353 . S
C919 H960 0.929 . S
C920 C918 1.356 . S
C920 C922 1.358 . S
C920 H961 0.930 . S
C921 C919 1.353 . S
C921 N923 1.314 . S
C921 H962 0.930 . S
C922 C920 1.358 . S
C922 N923 1.279 . S
C922 H963 0.930 . S
N923 C921 1.314 . S
N923 C922 1.279 . S
C924 C926 1.353 . S
C924 N927 1.314 . S
C924 H930 0.930 1_556 S
C925 N927 1.279 . S
C925 C928 1.358 . S
C925 H931 0.930 . S
C926 C924 1.353 . S
C926 C929 1.348 . S
C926 H964 0.929 1_556 S
N927 Li882 1.990 . S
N927 C924 1.314 . S
N927 C925 1.279 . S
C928 C925 1.358 . S
C928 C929 1.356 . S
C928 H965 0.930 . S
C929 C926 1.348 . S
C929 C928 1.356 . S
H930 C924 0.930 1_554 S
H931 C925 0.930 . S
C932 N933 1.289 1_655 S
C932 C934 1.361 . S
C932 H938 0.950 . S
N933 Li883 1.990 . S
N933 C932 1.289 1_455 S
N933 C936 1.279 . S
C934 C932 1.361 . S
C934 C937 1.348 . S
C934 H966 0.929 . S
C935 C936 1.358 . S
C935 C937 1.356 1_455 S
C935 H967 0.930 . S
C936 N933 1.279 . S
C936 C935 1.358 . S
C936 H939 0.930 . S
C937 C934 1.348 . S
C937 C935 1.356 1_655 S
H938 C932 0.950 . S
H939 C936 0.930 . S
O940 Li880 1.956 . S
O940 Li881 1.970 . S
O940 Li882 1.961 . S
O940 C884 1.325 1_556 S
O941 Li880 1.970 . S
O941 Li881 1.956 . S
O941 Li883 1.961 . S
O941 C890 1.325 1_455 S
O942 Li880 1.961 . S
O942 Li882 1.956 . S
O942 Li883 1.970 . S
O942 C912 1.325 . S
O943 Li881 1.961 . S
O943 Li882 1.970 . S
O943 Li883 1.956 . S
O943 C918 1.325 . S
H944 C886 0.929 . S
H945 C887 0.930 1_556 S
H946 C888 0.930 . S
H947 C889 0.930 . S
H948 C891 0.930 . S
H949 C893 0.929 . S
H950 C894 0.930 . S
H951 C895 0.930 . S
H952 C898 0.930 . S
H953 C901 0.929 . S
H954 C906 0.929 1_455 S
H955 C907 0.930 . S
H956 C914 0.929 . S
H957 C915 0.930 . S
H958 C916 0.930 . S
H959 C917 0.930 . S
H960 C919 0.929 . S
H961 C920 0.930 . S
H962 C921 0.930 . S
H963 C922 0.930 . S
H964 C926 0.929 1_554 S
H965 C928 0.930 . S
H966 C934 0.929 . S
H967 C935 0.930 . S
Li968 N985 1.990 . S
Li968 O1028 1.956 . S
Li968 O1029 1.970 . S
Li968 O1030 1.961 . S
Li969 N993 1.990 . S
Li969 O1028 1.970 . S
Li969 O1029 1.956 . S
Li969 O1031 1.961 . S
Li970 N1015 1.990 . S
Li970 O1028 1.961 . S
Li970 O1030 1.956 . S
Li970 O1031 1.970 . S
Li971 N1021 1.990 . S
Li971 O1029 1.961 . S
Li971 O1030 1.970 . S
Li971 O1031 1.956 . S
C972 C974 1.348 . S
C972 C975 1.356 . S
C972 O1028 1.325 . S
N973 C976 1.314 . S
N973 C977 1.279 . S
C974 C972 1.348 . S
C974 C976 1.353 . S
C974 H1032 0.929 . S
C975 C972 1.356 . S
C975 C977 1.358 . S
C975 H1033 0.930 . S
C976 N973 1.314 . S
C976 C974 1.353 . S
C976 H1034 0.930 . S
C977 N973 1.279 . S
C977 C975 1.358 . S
C977 H1035 0.930 . S
C978 C981 1.348 . S
C978 C982 1.356 . S
C978 O1029 1.325 1_565 S
C979 N980 1.279 . S
C979 C982 1.358 . S
C979 H1036 0.930 . S
N980 C979 1.279 . S
N980 C983 1.314 . S
C981 C978 1.348 . S
C981 C983 1.353 . S
C981 H1037 0.929 . S
C982 C978 1.356 . S
C982 C979 1.358 . S
C982 H1038 0.930 . S
C983 N980 1.314 . S
C983 C981 1.353 . S
C983 H1039 0.930 . S
C984 N985 1.314 . S
C984 C989 1.353 . S
C984 H990 0.930 . S
N985 Li968 1.990 . S
N985 C984 1.314 . S
N985 C987 1.279 . S
C986 C987 1.358 . S
C986 C988 1.356 . S
C986 H1040 0.930 . S
C987 N985 1.279 . S
C987 C986 1.358 . S
C987 H991 0.930 . S
C988 C986 1.356 . S
C988 C989 1.348 . S
C989 C984 1.353 . S
C989 C988 1.348 . S
C989 H1041 0.929 . S
H990 C984 0.930 . S
H991 C987 0.930 . S
C992 N993 1.314 . S
C992 C994 1.353 1_545 S
C992 H998 0.930 . S
N993 Li969 1.990 . S
N993 C992 1.314 . S
N993 C996 1.279 1_545 S
C994 C992 1.353 1_565 S
C994 C997 1.348 . S
C994 H1042 0.929 1_565 S
C995 C996 1.358 . S
C995 C997 1.356 . S
C995 H1043 0.930 . S
C996 N993 1.279 1_565 S
C996 C995 1.358 . S
C996 H999 0.930 . S
C997 C994 1.348 . S
C997 C995 1.356 . S
H998 C992 0.930 . S
H999 C996 0.930 . S
C1000 C1002 1.348 . S
C1000 C1003 1.356 . S
C1000 O1030 1.325 . S
N1001 C1004 1.314 . S
N1001 C1005 1.279 . S
C1002 C1000 1.348 . S
C1002 C1004 1.353 . S
C1002 H1044 0.929 . S
C1003 C1000 1.356 . S
C1003 C1005 1.358 . S
C1003 H1045 0.930 . S
C1004 N1001 1.314 . S
C1004 C1002 1.353 . S
C1004 H1046 0.930 . S
C1005 N1001 1.279 . S
C1005 C1003 1.358 . S
C1005 H1047 0.930 . S
C1006 C1007 1.348 . S
C1006 C1008 1.356 . S
C1006 O1031 1.325 . S
C1007 C1006 1.348 . S
C1007 C1009 1.353 . S
C1007 H1048 0.929 . S
C1008 C1006 1.356 . S
C1008 C1010 1.358 . S
C1008 H1049 0.930 . S
C1009 C1007 1.353 . S
C1009 N1011 1.314 . S
C1009 H1050 0.930 . S
C1010 C1008 1.358 . S
C1010 N1011 1.279 . S
C1010 H1051 0.930 . S
N1011 C1009 1.314 . S
N1011 C1010 1.279 . S
C1012 C1014 1.353 . S
C1012 N1015 1.314 . S
C1012 H1018 0.930 . S
C1013 N1015 1.279 . S
C1013 C1016 1.358 . S
C1013 H1019 0.930 . S
C1014 C1012 1.353 . S
C1014 C1017 1.348 . S
C1014 H1052 0.929 . S
N1015 Li970 1.990 . S
N1015 C1012 1.314 . S
N1015 C1013 1.279 . S
C1016 C1013 1.358 . S
C1016 C1017 1.356 . S
C1016 H1053 0.930 . S
C1017 C1014 1.348 . S
C1017 C1016 1.356 . S
H1018 C1012 0.930 . S
H1019 C1013 0.930 . S
C1020 N1021 1.310 1_565 S
C1020 C1022 1.370 . S
C1020 H1026 0.917 . S
N1021 Li971 1.990 . S
N1021 C1020 1.310 1_545 S
N1021 C1024 1.279 . S
C1022 C1020 1.370 . S
C1022 C1025 1.348 . S
C1022 H1054 0.929 . S
C1023 C1024 1.358 . S
C1023 C1025 1.356 1_545 S
C1023 H1055 0.930 . S
C1024 N1021 1.279 . S
C1024 C1023 1.358 . S
C1024 H1027 0.930 . S
C1025 C1022 1.348 . S
C1025 C1023 1.356 1_565 S
H1026 C1020 0.917 . S
H1027 C1024 0.930 . S
O1028 Li968 1.956 . S
O1028 Li969 1.970 . S
O1028 Li970 1.961 . S
O1028 C972 1.325 . S
O1029 Li968 1.970 . S
O1029 Li969 1.956 . S
O1029 Li971 1.961 . S
O1029 C978 1.325 1_545 S
O1030 Li968 1.961 . S
O1030 Li970 1.956 . S
O1030 Li971 1.970 . S
O1030 C1000 1.325 . S
O1031 Li969 1.961 . S
O1031 Li970 1.970 . S
O1031 Li971 1.956 . S
O1031 C1006 1.325 . S
H1032 C974 0.929 . S
H1033 C975 0.930 . S
H1034 C976 0.930 . S
H1035 C977 0.930 . S
H1036 C979 0.930 . S
H1037 C981 0.929 . S
H1038 C982 0.930 . S
H1039 C983 0.930 . S
H1040 C986 0.930 . S
H1041 C989 0.929 . S
H1042 C994 0.929 1_545 S
H1043 C995 0.930 . S
H1044 C1002 0.929 . S
H1045 C1003 0.930 . S
H1046 C1004 0.930 . S
H1047 C1005 0.930 . S
H1048 C1007 0.929 . S
H1049 C1008 0.930 . S
H1050 C1009 0.930 . S
H1051 C1010 0.930 . S
H1052 C1014 0.929 . S
H1053 C1016 0.930 . S
H1054 C1022 0.929 . S
H1055 C1023 0.930 . S
C1056 C1057 1.363 . S
C1056 C1062 1.379 . S
C1056 N1064 1.356 . S
C1057 C1056 1.363 . S
C1057 C1063 1.363 . S
C1058 C1059 1.363 . S
C1058 C1063 1.379 . S
C1058 N1065 1.356 . S
C1059 C1058 1.363 . S
C1059 C1062 1.363 . S
N1060 C1062 1.356 . S
N1060 H1072 0.984 . S
N1060 H1073 0.985 . S
N1061 C1063 1.356 . S
N1061 H1066 0.984 . S
N1061 H1067 0.985 . S
C1062 C1056 1.379 . S
C1062 C1059 1.363 . S
C1062 N1060 1.356 . S
C1063 C1057 1.363 . S
C1063 C1058 1.379 . S
C1063 N1061 1.356 . S
N1064 C1056 1.356 . S
N1064 H1070 0.984 . S
N1064 H1071 0.984 . S
N1065 C1058 1.356 . S
N1065 H1068 0.984 . S
N1065 H1069 0.985 . S
H1066 N1061 0.984 . S
H1067 N1061 0.985 . S
H1068 N1065 0.984 . S
H1069 N1065 0.985 . S
H1070 N1064 0.984 . S
H1071 N1064 0.984 . S
H1072 N1060 0.984 . S
H1073 N1060 0.985 . S
C1074 C1075 1.363 1_655 S
C1074 C1080 1.379 . S
C1074 N1082 1.356 . S
C1075 C1074 1.363 1_455 S
C1075 C1081 1.363 . S
C1076 C1077 1.363 1_455 S
C1076 C1081 1.379 . S
C1076 N1083 1.356 . S
C1077 C1076 1.363 1_655 S
C1077 C1080 1.363 . S
N1078 C1080 1.356 . S
N1078 H1090 0.984 . S
N1078 H1091 0.985 . S
N1079 C1081 1.356 . S
N1079 H1084 0.984 . S
N1079 H1085 0.985 . S
C1080 C1074 1.379 . S
C1080 C1077 1.363 . S
C1080 N1078 1.356 . S
C1081 C1075 1.363 . S
C1081 C1076 1.379 . S
C1081 N1079 1.356 . S
N1082 C1074 1.356 . S
N1082 H1088 0.984 . S
N1082 H1089 0.984 . S
N1083 C1076 1.356 . S
N1083 H1086 0.984 . S
N1083 H1087 0.985 . S
H1084 N1079 0.984 . S
H1085 N1079 0.985 . S
H1086 N1083 0.984 . S
H1087 N1083 0.985 . S
H1088 N1082 0.984 . S
H1089 N1082 0.984 . S
H1090 N1078 0.984 . S
H1091 N1078 0.985 . S
C1092 C1093 1.363 . S
C1092 C1098 1.379 1_556 S
C1092 N1100 1.356 . S
C1093 C1092 1.363 . S
C1093 C1099 1.363 1_545 S
C1094 C1095 1.363 . S
C1094 C1099 1.379 1_554 S
C1094 N1101 1.356 . S
C1095 C1094 1.363 . S
C1095 C1098 1.363 1_565 S
N1096 C1098 1.356 . S
N1096 H1108 0.984 . S
N1096 H1109 0.985 . S
N1097 C1099 1.356 . S
N1097 H1102 0.984 . S
N1097 H1103 0.985 . S
C1098 C1092 1.379 1_554 S
C1098 C1095 1.363 1_545 S
C1098 N1096 1.356 . S
C1099 C1093 1.363 1_565 S
C1099 C1094 1.379 1_556 S
C1099 N1097 1.356 . S
N1100 C1092 1.356 . S
N1100 H1106 0.984 . S
N1100 H1107 0.984 . S
N1101 C1094 1.356 . S
N1101 H1104 0.984 . S
N1101 H1105 0.985 . S
H1102 N1097 0.984 . S
H1103 N1097 0.985 . S
H1104 N1101 0.984 . S
H1105 N1101 0.985 . S
H1106 N1100 0.984 . S
H1107 N1100 0.984 . S
H1108 N1096 0.984 . S
H1109 N1096 0.985 . S
C1110 C1111 1.363 . S
C1110 C1116 1.379 . S
C1110 N1118 1.356 . S
C1111 C1110 1.363 . S
C1111 C1117 1.363 . S
C1112 C1113 1.363 . S
C1112 C1117 1.379 . S
C1112 N1119 1.356 . S
C1113 C1112 1.363 . S
C1113 C1116 1.363 . S
N1114 C1116 1.356 . S
N1114 H1126 0.984 . S
N1114 H1127 0.985 . S
N1115 C1117 1.356 . S
N1115 H1120 0.984 . S
N1115 H1121 0.985 . S
C1116 C1110 1.379 . S
C1116 C1113 1.363 . S
C1116 N1114 1.356 . S
C1117 C1111 1.363 . S
C1117 C1112 1.379 . S
C1117 N1115 1.356 . S
N1118 C1110 1.356 . S
N1118 H1124 0.984 . S
N1118 H1125 0.984 . S
N1119 C1112 1.356 . S
N1119 H1122 0.984 . S
N1119 H1123 0.985 . S
H1120 N1115 0.984 . S
H1121 N1115 0.985 . S
H1122 N1119 0.984 . S
H1123 N1119 0.985 . S
H1124 N1118 0.984 . S
H1125 N1118 0.984 . S
H1126 N1114 0.984 . S
H1127 N1114 0.985 . S
C1128 C1129 1.363 . S
C1128 C1134 1.379 1_455 S
C1128 N1136 1.356 . S
C1129 C1128 1.363 . S
C1129 C1135 1.363 . S
C1130 C1131 1.363 . S
C1130 C1135 1.379 1_655 S
C1130 N1137 1.356 . S
C1131 C1130 1.363 . S
C1131 C1134 1.363 . S
N1132 C1134 1.356 . S
N1132 H1144 0.984 . S
N1132 H1145 0.985 . S
N1133 C1135 1.356 . S
N1133 H1138 0.984 . S
N1133 H1139 0.985 . S
C1134 C1128 1.379 1_655 S
C1134 C1131 1.363 . S
C1134 N1132 1.356 . S
C1135 C1129 1.363 . S
C1135 C1130 1.379 1_455 S
C1135 N1133 1.356 . S
N1136 C1128 1.356 . S
N1136 H1142 0.984 . S
N1136 H1143 0.984 . S
N1137 C1130 1.356 . S
N1137 H1140 0.984 . S
N1137 H1141 0.985 . S
H1138 N1133 0.984 . S
H1139 N1133 0.985 . S
H1140 N1137 0.984 . S
H1141 N1137 0.985 . S
H1142 N1136 0.984 . S
H1143 N1136 0.984 . S
H1144 N1132 0.984 . S
H1145 N1132 0.985 . S
C1146 C1147 1.363 . S
C1146 C1152 1.379 1_554 S
C1146 N1154 1.356 . S
C1147 C1146 1.363 . S
C1147 C1153 1.363 1_545 S
C1148 C1149 1.363 . S
C1148 C1153 1.379 1_556 S
C1148 N1155 1.356 . S
C1149 C1148 1.363 . S
C1149 C1152 1.363 1_565 S
N1150 C1152 1.356 . S
N1150 H1162 0.984 . S
N1150 H1163 0.975 1_545 S
N1151 C1153 1.356 . S
N1151 H1156 0.975 1_565 S
N1151 H1157 0.985 . S
C1152 C1146 1.379 1_556 S
C1152 C1149 1.363 1_545 S
C1152 N1150 1.356 . S
C1153 C1147 1.363 1_565 S
C1153 C1148 1.379 1_554 S
C1153 N1151 1.356 . S
N1154 C1146 1.356 . S
N1154 H1160 0.984 . S
N1154 H1161 0.984 . S
N1155 C1148 1.356 . S
N1155 H1158 0.984 . S
N1155 H1159 0.985 . S
H1156 N1151 0.975 1_545 S
H1157 N1151 0.985 . S
H1158 N1155 0.984 . S
H1159 N1155 0.985 . S
H1160 N1154 0.984 . S
H1161 N1154 0.984 . S
H1162 N1150 0.984 . S
H1163 N1150 0.975 1_565 S
C1164 C1165 1.363 . S
C1164 C1170 1.379 . S
C1164 N1172 1.356 . S
C1165 C1164 1.363 . S
C1165 C1171 1.363 1_556 S
C1166 C1167 1.363 . S
C1166 C1171 1.379 . S
C1166 N1173 1.356 . S
C1167 C1166 1.363 . S
C1167 C1170 1.363 1_554 S
N1168 C1170 1.356 1_554 S
N1168 H1180 0.984 1_554 S
N1168 H1181 0.985 . S
N1169 C1171 1.356 1_556 S
N1169 H1174 0.984 . S
N1169 H1175 0.985 1_556 S
C1170 C1164 1.379 . S
C1170 C1167 1.363 1_556 S
C1170 N1168 1.356 1_556 S
C1171 C1165 1.363 1_554 S
C1171 C1166 1.379 . S
C1171 N1169 1.356 1_554 S
N1172 C1164 1.356 . S
N1172 H1178 0.984 . S
N1172 H1179 0.984 . S
N1173 C1166 1.356 . S
N1173 H1176 0.984 . S
N1173 H1177 0.985 . S
H1174 N1169 0.984 . S
H1175 N1169 0.985 1_554 S
H1176 N1173 0.984 . S
H1177 N1173 0.985 . S
H1178 N1172 0.984 . S
H1179 N1172 0.984 . S
H1180 N1168 0.984 1_556 S
H1181 N1168 0.985 . S
C1182 C1183 1.363 . S
C1182 C1188 1.379 . S
C1182 N1190 1.356 . S
C1183 C1182 1.363 . S
C1183 C1189 1.363 . S
C1184 C1185 1.363 . S
C1184 C1189 1.379 . S
C1184 N1191 1.356 . S
C1185 C1184 1.363 . S
C1185 C1188 1.363 . S
N1186 C1188 1.356 . S
N1186 H1198 0.984 . S
N1186 H1199 0.985 . S
N1187 C1189 1.356 . S
N1187 H1192 0.984 . S
N1187 H1193 0.985 . S
C1188 C1182 1.379 . S
C1188 C1185 1.363 . S
C1188 N1186 1.356 . S
C1189 C1183 1.363 . S
C1189 C1184 1.379 . S
C1189 N1187 1.356 . S
N1190 C1182 1.356 . S
N1190 H1196 0.984 . S
N1190 H1197 0.984 . S
N1191 C1184 1.356 . S
N1191 H1194 0.984 . S
N1191 H1195 0.985 . S
H1192 N1187 0.984 . S
H1193 N1187 0.985 . S
H1194 N1191 0.984 . S
H1195 N1191 0.985 . S
H1196 N1190 0.984 . S
H1197 N1190 0.984 . S
H1198 N1186 0.984 . S
H1199 N1186 0.985 . S
C1200 C1201 1.363 . S
C1200 C1206 1.379 . S
C1200 N1208 1.356 . S
C1201 C1200 1.363 . S
C1201 C1207 1.363 . S
C1202 C1203 1.363 . S
C1202 C1207 1.379 . S
C1202 N1209 1.356 . S
C1203 C1202 1.363 . S
C1203 C1206 1.363 . S
N1204 C1206 1.356 . S
N1204 H1216 0.984 . S
N1204 H1217 0.985 . S
N1205 C1207 1.356 . S
N1205 H1210 0.984 . S
N1205 H1211 0.985 . S
C1206 C1200 1.379 . S
C1206 C1203 1.363 . S
C1206 N1204 1.356 . S
C1207 C1201 1.363 . S
C1207 C1202 1.379 . S
C1207 N1205 1.356 . S
N1208 C1200 1.356 . S
N1208 H1214 0.984 . S
N1208 H1215 0.984 . S
N1209 C1202 1.356 . S
N1209 H1212 0.984 . S
N1209 H1213 0.985 . S
H1210 N1205 0.984 . S
H1211 N1205 0.985 . S
H1212 N1209 0.984 . S
H1213 N1209 0.985 . S
H1214 N1208 0.984 . S
H1215 N1208 0.984 . S
H1216 N1204 0.984 . S
H1217 N1204 0.985 . S
C1218 C1219 1.363 . S
C1218 C1224 1.379 . S
C1218 N1226 1.356 . S
C1219 C1218 1.363 . S
C1219 C1225 1.363 1_554 S
C1220 C1221 1.363 . S
C1220 C1225 1.379 . S
C1220 N1227 1.356 . S
C1221 C1220 1.363 . S
C1221 C1224 1.363 1_556 S
N1222 C1224 1.356 1_556 S
N1222 H1234 0.984 1_556 S
N1222 H1235 0.985 . S
N1223 C1225 1.356 1_554 S
N1223 H1228 0.984 . S
N1223 H1229 0.985 1_554 S
C1224 C1218 1.379 . S
C1224 C1221 1.363 1_554 S
C1224 N1222 1.356 1_554 S
C1225 C1219 1.363 1_556 S
C1225 C1220 1.379 . S
C1225 N1223 1.356 1_556 S
N1226 C1218 1.356 . S
N1226 H1232 0.984 . S
N1226 H1233 0.984 . S
N1227 C1220 1.356 . S
N1227 H1230 0.984 . S
N1227 H1231 0.985 . S
H1228 N1223 0.984 . S
H1229 N1223 0.985 1_556 S
H1230 N1227 0.984 . S
H1231 N1227 0.985 . S
H1232 N1226 0.984 . S
H1233 N1226 0.984 . S
H1234 N1222 0.984 1_554 S
H1235 N1222 0.985 . S
C1236 C1237 1.363 . S
C1236 C1242 1.379 . S
C1236 N1244 1.356 . S
C1237 C1236 1.363 . S
C1237 C1243 1.363 . S
C1238 C1239 1.363 . S
C1238 C1243 1.379 . S
C1238 N1245 1.356 . S
C1239 C1238 1.363 . S
C1239 C1242 1.363 . S
N1240 C1242 1.356 . S
N1240 H1252 0.984 . S
N1240 H1253 0.985 . S
N1241 C1243 1.356 . S
N1241 H1246 0.984 . S
N1241 H1247 0.985 . S
C1242 C1236 1.379 . S
C1242 C1239 1.363 . S
C1242 N1240 1.356 . S
C1243 C1237 1.363 . S
C1243 C1238 1.379 . S
C1243 N1241 1.356 . S
N1244 C1236 1.356 . S
N1244 H1250 0.984 . S
N1244 H1251 0.984 . S
N1245 C1238 1.356 . S
N1245 H1248 0.984 . S
N1245 H1249 0.985 . S
H1246 N1241 0.984 . S
H1247 N1241 0.985 . S
H1248 N1245 0.984 . S
H1249 N1245 0.985 . S
H1250 N1244 0.984 . S
H1251 N1244 0.984 . S
H1252 N1240 0.984 . S
H1253 N1240 0.985 . S
C1254 C1255 1.363 . S
C1254 C1260 1.379 . S
C1254 N1262 1.356 . S
C1255 C1254 1.363 . S
C1255 C1261 1.363 . S
C1256 C1257 1.363 . S
C1256 C1261 1.379 . S
C1256 N1263 1.356 . S
C1257 C1256 1.363 . S
C1257 C1260 1.363 . S
N1258 C1260 1.356 . S
N1258 H1270 0.984 . S
N1258 H1271 0.985 . S
N1259 C1261 1.356 . S
N1259 H1264 0.984 . S
N1259 H1265 0.985 . S
C1260 C1254 1.379 . S
C1260 C1257 1.363 . S
C1260 N1258 1.356 . S
C1261 C1255 1.363 . S
C1261 C1256 1.379 . S
C1261 N1259 1.356 . S
N1262 C1254 1.356 . S
N1262 H1268 0.984 . S
N1262 H1269 0.984 . S
N1263 C1256 1.356 . S
N1263 H1266 0.984 . S
N1263 H1267 0.985 . S
H1264 N1259 0.984 . S
H1265 N1259 0.985 . S
H1266 N1263 0.984 . S
H1267 N1263 0.985 . S
H1268 N1262 0.984 . S
H1269 N1262 0.984 . S
H1270 N1258 0.984 . S
H1271 N1258 0.985 . S
C1272 C1273 1.363 . S
C1272 C1278 1.379 . S
C1272 N1280 1.356 . S
C1273 C1272 1.363 . S
C1273 C1279 1.363 . S
C1274 C1275 1.363 . S
C1274 C1279 1.379 . S
C1274 N1281 1.356 . S
C1275 C1274 1.363 . S
C1275 C1278 1.363 . S
N1276 C1278 1.356 . S
N1276 H1288 0.984 . S
N1276 H1289 0.985 . S
N1277 C1279 1.356 . S
N1277 H1282 0.984 . S
N1277 H1283 0.985 . S
C1278 C1272 1.379 . S
C1278 C1275 1.363 . S
C1278 N1276 1.356 . S
C1279 C1273 1.363 . S
C1279 C1274 1.379 . S
C1279 N1277 1.356 . S
N1280 C1272 1.356 . S
N1280 H1286 0.984 . S
N1280 H1287 0.984 . S
N1281 C1274 1.356 . S
N1281 H1284 0.984 . S
N1281 H1285 0.985 . S
H1282 N1277 0.984 . S
H1283 N1277 0.985 . S
H1284 N1281 0.984 . S
H1285 N1281 0.985 . S
H1286 N1280 0.984 . S
H1287 N1280 0.984 . S
H1288 N1276 0.984 . S
H1289 N1276 0.985 . S
C1290 C1291 1.363 . S
C1290 C1296 1.379 1_455 S
C1290 N1298 1.356 . S
C1291 C1290 1.363 . S
C1291 C1297 1.363 . S
C1292 C1293 1.363 . S
C1292 C1297 1.379 1_655 S
C1292 N1299 1.356 . S
C1293 C1292 1.363 . S
C1293 C1296 1.363 . S
N1294 C1296 1.356 . S
N1294 H1306 0.984 . S
N1294 H1307 0.985 . S
N1295 C1297 1.356 . S
N1295 H1300 0.984 . S
N1295 H1301 0.985 . S
C1296 C1290 1.379 1_655 S
C1296 C1293 1.363 . S
C1296 N1294 1.356 . S
C1297 C1291 1.363 . S
C1297 C1292 1.379 1_455 S
C1297 N1295 1.356 . S
N1298 C1290 1.356 . S
N1298 H1304 0.984 . S
N1298 H1305 0.984 . S
N1299 C1292 1.356 . S
N1299 H1302 0.984 . S
N1299 H1303 0.985 . S
H1300 N1295 0.984 . S
H1301 N1295 0.985 . S
H1302 N1299 0.984 . S
H1303 N1299 0.985 . S
H1304 N1298 0.984 . S
H1305 N1298 0.984 . S
H1306 N1294 0.984 . S
H1307 N1294 0.985 . S
C1308 C1309 1.363 . S
C1308 C1314 1.379 . S
C1308 N1316 1.356 . S
C1309 C1308 1.363 . S
C1309 C1315 1.363 1_545 S
C1310 C1311 1.363 . S
C1310 C1315 1.379 . S
C1310 N1317 1.356 . S
C1311 C1310 1.363 . S
C1311 C1314 1.363 1_565 S
N1312 C1314 1.358 1_565 S
N1312 H1324 0.965 1_565 S
N1312 H1325 1.002 . S
N1313 C1315 1.358 1_545 S
N1313 H1318 1.002 . S
N1313 H1319 0.966 1_545 S
C1314 C1308 1.379 . S
C1314 C1311 1.363 1_545 S
C1314 N1312 1.358 1_545 S
C1315 C1309 1.363 1_565 S
C1315 C1310 1.379 . S
C1315 N1313 1.358 1_565 S
N1316 C1308 1.356 . S
N1316 H1322 0.984 . S
N1316 H1323 0.984 . S
N1317 C1310 1.356 . S
N1317 H1320 0.984 . S
N1317 H1321 0.985 . S
H1318 N1313 1.002 . S
H1319 N1313 0.966 1_565 S
H1320 N1317 0.984 . S
H1321 N1317 0.985 . S
H1322 N1316 0.984 . S
H1323 N1316 0.984 . S
H1324 N1312 0.965 1_545 S
H1325 N1312 1.002 . S
C1326 C1327 1.363 . S
C1326 C1332 1.379 . S
C1326 N1334 1.356 . S
C1327 C1326 1.363 . S
C1327 C1333 1.363 . S
C1328 C1329 1.363 . S
C1328 C1333 1.379 . S
C1328 N1335 1.356 . S
C1329 C1328 1.363 . S
C1329 C1332 1.363 . S
N1330 C1332 1.356 . S
N1330 H1342 0.984 . S
N1330 H1343 0.985 . S
N1331 C1333 1.356 . S
N1331 H1336 0.984 . S
N1331 H1337 0.985 . S
C1332 C1326 1.379 . S
C1332 C1329 1.363 . S
C1332 N1330 1.356 . S
C1333 C1327 1.363 . S
C1333 C1328 1.379 . S
C1333 N1331 1.356 . S
N1334 C1326 1.356 . S
N1334 H1340 0.984 . S
N1334 H1341 0.984 . S
N1335 C1328 1.356 . S
N1335 H1338 0.984 . S
N1335 H1339 0.985 . S
H1336 N1331 0.984 . S
H1337 N1331 0.985 . S
H1338 N1335 0.984 . S
H1339 N1335 0.985 . S
H1340 N1334 0.984 . S
H1341 N1334 0.984 . S
H1342 N1330 0.984 . S
H1343 N1330 0.985 . S
C1344 C1345 1.363 . S
C1344 C1350 1.379 1_655 S
C1344 N1352 1.356 . S
C1345 C1344 1.363 . S
C1345 C1351 1.363 . S
C1346 C1347 1.363 . S
C1346 C1351 1.379 1_455 S
C1346 N1353 1.356 . S
C1347 C1346 1.363 . S
C1347 C1350 1.363 . S
N1348 C1350 1.356 . S
N1348 H1360 0.984 . S
N1348 H1361 0.985 . S
N1349 C1351 1.356 . S
N1349 H1354 0.984 . S
N1349 H1355 0.985 . S
C1350 C1344 1.379 1_455 S
C1350 C1347 1.363 . S
C1350 N1348 1.356 . S
C1351 C1345 1.363 . S
C1351 C1346 1.379 1_655 S
C1351 N1349 1.356 . S
N1352 C1344 1.356 . S
N1352 H1358 0.984 . S
N1352 H1359 0.984 . S
N1353 C1346 1.356 . S
N1353 H1356 0.984 . S
N1353 H1357 0.985 . S
H1354 N1349 0.984 . S
H1355 N1349 0.985 . S
H1356 N1353 0.984 . S
H1357 N1353 0.985 . S
H1358 N1352 0.984 . S
H1359 N1352 0.984 . S
H1360 N1348 0.984 . S
H1361 N1348 0.985 . S
C1362 C1363 1.363 . S
C1362 C1368 1.379 1_545 S
C1362 N1370 1.356 . S
C1363 C1362 1.363 . S
C1363 C1369 1.363 . S
C1364 C1365 1.363 . S
C1364 C1369 1.379 1_565 S
C1364 N1371 1.356 . S
C1365 C1364 1.363 . S
C1365 C1368 1.363 . S
N1366 C1368 1.356 . S
N1366 H1378 0.985 . S
N1366 H1379 0.985 . S
N1367 C1369 1.356 . S
N1367 H1372 0.984 . S
N1367 H1373 0.985 . S
C1368 C1362 1.379 1_565 S
C1368 C1365 1.363 . S
C1368 N1366 1.356 . S
C1369 C1363 1.363 . S
C1369 C1364 1.379 1_545 S
C1369 N1367 1.356 . S
N1370 C1362 1.356 . S
N1370 H1376 0.984 . S
N1370 H1377 0.984 . S
N1371 C1364 1.356 . S
N1371 H1374 0.984 . S
N1371 H1375 0.985 . S
H1372 N1367 0.984 . S
H1373 N1367 0.985 . S
H1374 N1371 0.984 . S
H1375 N1371 0.985 . S
H1376 N1370 0.984 . S
H1377 N1370 0.984 . S
H1378 N1366 0.985 . S
H1379 N1366 0.985 . S
C1380 C1381 1.363 . S
C1380 C1386 1.379 . S
C1380 N1388 1.356 . S
C1381 C1380 1.363 . S
C1381 C1387 1.363 . S
C1382 C1383 1.363 . S
C1382 C1387 1.379 . S
C1382 N1389 1.356 . S
C1383 C1382 1.363 . S
C1383 C1386 1.363 . S
N1384 C1386 1.356 . S
N1384 H1396 0.984 1_554 S
N1384 H1397 0.985 . S
N1385 C1387 1.356 . S
N1385 H1390 0.984 . S
N1385 H1391 0.985 . S
C1386 C1380 1.379 . S
C1386 C1383 1.363 . S
C1386 N1384 1.356 . S
C1387 C1381 1.363 . S
C1387 C1382 1.379 . S
C1387 N1385 1.356 . S
N1388 C1380 1.356 . S
N1388 H1394 0.984 1_554 S
N1388 H1395 0.984 . S
N1389 C1382 1.356 . S
N1389 H1392 0.984 . S
N1389 H1393 0.985 . S
H1390 N1385 0.984 . S
H1391 N1385 0.985 . S
H1392 N1389 0.984 . S
H1393 N1389 0.985 . S
H1394 N1388 0.984 1_556 S
H1395 N1388 0.984 . S
H1396 N1384 0.984 1_556 S
H1397 N1384 0.985 . S
C1398 C1399 1.363 . S
C1398 C1404 1.379 1_455 S
C1398 N1406 1.356 . S
C1399 C1398 1.363 . S
C1399 C1405 1.363 . S
C1400 C1401 1.363 . S
C1400 C1405 1.379 1_655 S
C1400 N1407 1.356 . S
C1401 C1400 1.363 . S
C1401 C1404 1.363 . S
N1402 C1404 1.356 . S
N1402 H1414 0.984 . S
N1402 H1415 0.985 . S
N1403 C1405 1.356 . S
N1403 H1408 0.984 . S
N1403 H1409 0.985 . S
C1404 C1398 1.379 1_655 S
C1404 C1401 1.363 . S
C1404 N1402 1.356 . S
C1405 C1399 1.363 . S
C1405 C1400 1.379 1_455 S
C1405 N1403 1.356 . S
N1406 C1398 1.356 . S
N1406 H1412 0.984 . S
N1406 H1413 0.984 . S
N1407 C1400 1.356 . S
N1407 H1410 0.984 . S
N1407 H1411 0.985 . S
H1408 N1403 0.984 . S
H1409 N1403 0.985 . S
H1410 N1407 0.984 . S
H1411 N1407 0.985 . S
H1412 N1406 0.984 . S
H1413 N1406 0.984 . S
H1414 N1402 0.984 . S
H1415 N1402 0.985 . S
C1416 C1417 1.363 . S
C1416 C1422 1.379 1_565 S
C1416 N1424 1.356 . S
C1417 C1416 1.363 . S
C1417 C1423 1.363 . S
C1418 C1419 1.363 . S
C1418 C1423 1.379 1_545 S
C1418 N1425 1.356 . S
C1419 C1418 1.363 . S
C1419 C1422 1.363 . S
N1420 C1422 1.356 . S
N1420 H1432 0.984 . S
N1420 H1433 0.985 . S
N1421 C1423 1.356 . S
N1421 H1426 0.984 . S
N1421 H1427 0.985 . S
C1422 C1416 1.379 1_545 S
C1422 C1419 1.363 . S
C1422 N1420 1.356 . S
C1423 C1417 1.363 . S
C1423 C1418 1.379 1_565 S
C1423 N1421 1.356 . S
N1424 C1416 1.356 . S
N1424 H1430 0.984 . S
N1424 H1431 0.984 . S
N1425 C1418 1.356 . S
N1425 H1428 0.984 . S
N1425 H1429 0.985 . S
H1426 N1421 0.984 . S
H1427 N1421 0.985 . S
H1428 N1425 0.984 . S
H1429 N1425 0.985 . S
H1430 N1424 0.984 . S
H1431 N1424 0.984 . S
H1432 N1420 0.984 . S
H1433 N1420 0.985 . S
C1434 C1435 1.363 . S
C1434 C1440 1.379 . S
C1434 N1442 1.356 . S
C1435 C1434 1.363 . S
C1435 C1441 1.363 . S
C1436 C1437 1.363 . S
C1436 C1441 1.379 . S
C1436 N1443 1.356 . S
C1437 C1436 1.363 . S
C1437 C1440 1.363 . S
N1438 C1440 1.356 . S
N1438 H1450 0.984 . S
N1438 H1451 0.985 . S
N1439 C1441 1.356 . S
N1439 H1444 0.984 . S
N1439 H1445 0.985 . S
C1440 C1434 1.379 . S
C1440 C1437 1.363 . S
C1440 N1438 1.356 . S
C1441 C1435 1.363 . S
C1441 C1436 1.379 . S
C1441 N1439 1.356 . S
N1442 C1434 1.356 . S
N1442 H1448 0.984 . S
N1442 H1449 0.984 . S
N1443 C1436 1.356 . S
N1443 H1446 0.984 . S
N1443 H1447 0.985 . S
H1444 N1439 0.984 . S
H1445 N1439 0.985 . S
H1446 N1443 0.984 . S
H1447 N1443 0.985 . S
H1448 N1442 0.984 . S
H1449 N1442 0.984 . S
H1450 N1438 0.984 . S
H1451 N1438 0.985 . S
C1452 C1453 1.363 . S
C1452 C1458 1.379 1_655 S
C1452 N1460 1.356 . S
C1453 C1452 1.363 . S
C1453 C1459 1.363 . S
C1454 C1455 1.363 . S
C1454 C1459 1.379 1_455 S
C1454 N1461 1.356 . S
C1455 C1454 1.363 . S
C1455 C1458 1.363 . S
N1456 C1458 1.356 . S
N1456 H1468 0.984 1_556 S
N1456 H1469 0.985 . S
N1457 C1459 1.356 . S
N1457 H1462 0.984 . S
N1457 H1463 0.985 . S
C1458 C1452 1.379 1_455 S
C1458 C1455 1.363 . S
C1458 N1456 1.356 . S
C1459 C1453 1.363 . S
C1459 C1454 1.379 1_655 S
C1459 N1457 1.356 . S
N1460 C1452 1.356 . S
N1460 H1466 0.984 1_556 S
N1460 H1467 0.984 . S
N1461 C1454 1.356 . S
N1461 H1464 0.984 . S
N1461 H1465 0.985 . S
H1462 N1457 0.984 . S
H1463 N1457 0.985 . S
H1464 N1461 0.984 . S
H1465 N1461 0.985 . S
H1466 N1460 0.984 1_554 S
H1467 N1460 0.984 . S
H1468 N1456 0.984 1_554 S
H1469 N1456 0.985 . S
C1470 C1471 1.363 . S
C1470 C1476 1.379 1_545 S
C1470 N1478 1.356 . S
C1471 C1470 1.363 . S
C1471 C1477 1.363 . S
C1472 C1473 1.363 . S
C1472 C1477 1.379 1_565 S
C1472 N1479 1.356 . S
C1473 C1472 1.363 . S
C1473 C1476 1.363 . S
N1474 C1476 1.356 . S
N1474 H1486 0.984 . S
N1474 H1487 0.985 . S
N1475 C1477 1.356 . S
N1475 H1480 0.984 . S
N1475 H1481 0.985 . S
C1476 C1470 1.379 1_565 S
C1476 C1473 1.363 . S
C1476 N1474 1.356 . S
C1477 C1471 1.363 . S
C1477 C1472 1.379 1_545 S
C1477 N1475 1.356 . S
N1478 C1470 1.356 . S
N1478 H1484 0.984 . S
N1478 H1485 0.984 . S
N1479 C1472 1.356 . S
N1479 H1482 0.984 . S
N1479 H1483 0.985 . S
H1480 N1475 0.984 . S
H1481 N1475 0.985 . S
H1482 N1479 0.984 . S
H1483 N1479 0.985 . S
H1484 N1478 0.984 . S
H1485 N1478 0.984 . S
H1486 N1474 0.984 . S
H1487 N1474 0.985 . S
C1057 C29 1.781 . S
C1059 C841 1.781 . S
C1075 C108 1.781 . S
C1077 C937 1.781 . S
C1093 C196 1.781 . S
C1095 C1025 1.781 . S
C1111 C284 1.781 . S
C1113 C577 1.781 . S
C1129 C673 1.781 . S
C1131 C381 1.781 . S
C1147 C753 1.781 . S
C1149 C469 1.781 . S
C1165 C929 1.438 . S
C1167 C20 1.437 . S
C1183 C117 1.438 . S
C1185 C1017 1.438 . S
C1201 C205 1.437 . S
C1203 C585 1.437 . S
C1219 C293 1.437 . S
C1221 C665 1.438 . S
C1237 C372 1.438 . S
C1239 C761 1.438 . S
C1255 C460 1.437 . S
C1257 C849 1.437 . S
C1273 C812 1.389 . S
C1275 C57 1.389 . S
C1291 C137 1.389 . S
C1293 C909 1.389 . S
C1309 C225 1.389 . S
C1311 C997 1.389 . S
C1327 C548 1.389 . S
C1329 C313 1.389 . S
C1345 C409 1.389 . S
C1347 C645 1.389 . S
C1363 C724 1.389 . S
C1365 C497 1.389 . S
C1381 C49 1.912 . S
C1383 C321 1.912 . S
C1399 C401 1.913 . S
C1401 C145 1.913 . S
C1417 C233 1.912 . S
C1419 C489 1.912 . S
C1435 C557 1.912 . S
C1437 C821 1.912 . S
C1453 C636 1.912 . S
C1455 C900 1.912 . S
C1471 C988 1.913 . S
C1473 C733 1.913 . S
