# Generated by pormake.
# Topology unf, (4)-cn, num edge types: 1
# Building blocks:
#     Node 0, Type 0, BuildingBlock: UXUYUI_clean_sbu_0, # of connection points: 4
#     Node 1, Type 0, BuildingBlock: UXUYUI_clean_sbu_0, # of connection points: 4
#     Node 2, Type 0, BuildingBlock: UXUYUI_clean_sbu_0, # of connection points: 4
#     Node 3, Type 0, BuildingBlock: UXUYUI_clean_sbu_0, # of connection points: 4
#     Node 4, Type 0, BuildingBlock: UXUYUI_clean_sbu_0, # of connection points: 4
#     Node 5, Type 0, BuildingBlock: UXUYUI_clean_sbu_0, # of connection points: 4
#     Node 6, Type 0, BuildingBlock: UXUYUI_clean_sbu_0, # of connection points: 4
#     Node 7, Type 0, BuildingBlock: UXUYUI_clean_sbu_0, # of connection points: 4
#     Node 8, Type 0, BuildingBlock: UXUYUI_clean_sbu_0, # of connection points: 4
#     Node 9, Type 0, BuildingBlock: UXUYUI_clean_sbu_0, # of connection points: 4
#     Node 10, Type 0, BuildingBlock: UXUYUI_clean_sbu_0, # of connection points: 4
#     Node 11, Type 0, BuildingBlock: UXUYUI_clean_sbu_0, # of connection points: 4
#     Edge 12, Type (0, 0), BuildingBlock: EZIPEK_clean_linker_0, # of connection points: 2
#     Edge 13, Type (0, 0), BuildingBlock: EZIPEK_clean_linker_0, # of connection points: 2
#     Edge 14, Type (0, 0), BuildingBlock: EZIPEK_clean_linker_0, # of connection points: 2
#     Edge 15, Type (0, 0), BuildingBlock: EZIPEK_clean_linker_0, # of connection points: 2
#     Edge 16, Type (0, 0), BuildingBlock: EZIPEK_clean_linker_0, # of connection points: 2
#     Edge 17, Type (0, 0), BuildingBlock: EZIPEK_clean_linker_0, # of connection points: 2
#     Edge 18, Type (0, 0), BuildingBlock: EZIPEK_clean_linker_0, # of connection points: 2
#     Edge 19, Type (0, 0), BuildingBlock: EZIPEK_clean_linker_0, # of connection points: 2
#     Edge 20, Type (0, 0), BuildingBlock: EZIPEK_clean_linker_0, # of connection points: 2
#     Edge 21, Type (0, 0), BuildingBlock: EZIPEK_clean_linker_0, # of connection points: 2
#     Edge 22, Type (0, 0), BuildingBlock: EZIPEK_clean_linker_0, # of connection points: 2
#     Edge 23, Type (0, 0), BuildingBlock: EZIPEK_clean_linker_0, # of connection points: 2
#     Edge 24, Type (0, 0), BuildingBlock: EZIPEK_clean_linker_0, # of connection points: 2
#     Edge 25, Type (0, 0), BuildingBlock: EZIPEK_clean_linker_0, # of connection points: 2
#     Edge 26, Type (0, 0), BuildingBlock: EZIPEK_clean_linker_0, # of connection points: 2
#     Edge 27, Type (0, 0), BuildingBlock: EZIPEK_clean_linker_0, # of connection points: 2
#     Edge 28, Type (0, 0), BuildingBlock: EZIPEK_clean_linker_0, # of connection points: 2
#     Edge 29, Type (0, 0), BuildingBlock: EZIPEK_clean_linker_0, # of connection points: 2
#     Edge 30, Type (0, 0), BuildingBlock: EZIPEK_clean_linker_0, # of connection points: 2
#     Edge 31, Type (0, 0), BuildingBlock: EZIPEK_clean_linker_0, # of connection points: 2
#     Edge 32, Type (0, 0), BuildingBlock: EZIPEK_clean_linker_0, # of connection points: 2
#     Edge 33, Type (0, 0), BuildingBlock: EZIPEK_clean_linker_0, # of connection points: 2
#     Edge 34, Type (0, 0), BuildingBlock: EZIPEK_clean_linker_0, # of connection points: 2
#     Edge 35, Type (0, 0), BuildingBlock: EZIPEK_clean_linker_0, # of connection points: 2
# Relax obj value: 0.347
# Max RMSD: 0.227
# Mean RMSD: 0.226
data_MOF--net-unf--node1-UXUYUI_clean_sbu_0--edge1-EZIPEK_clean_linker_0
_symmetry_space_group_name_H-M    P1
_symmetry_Int_Tables_number       1
_symmetry_cell_setting            triclinic
loop_
_symmetry_equiv_pos_as_xyz
'x, y, z'
_cell_length_a     45.358841
_cell_length_b     45.347076
_cell_length_c     43.389373
_cell_angle_alpha  90.044212
_cell_angle_beta   89.864141
_cell_angle_gamma 120.02862
loop_
_atom_site_label
_atom_site_type_symbol
_atom_site_fract_x
_atom_site_fract_y
_atom_site_fract_z
_atom_type_partial_charge
Li0 Li 0.04906 0.38471 0.08455 0.0
Li1 Li 0.08083 0.36775 0.12299 0.0
Li2 Li 0.07844 0.35488 0.06816 0.0
Li3 Li 0.02885 0.32626 0.09912 0.0
C4 C 0.12472 0.41863 0.06694 0.0
N5 N 0.17591 0.45112 0.02374 0.0
C6 C 0.15723 0.42365 0.07262 0.0
C7 C 0.11828 0.43029 0.03935 0.0
C8 C 0.18275 0.44006 0.05046 0.0
C9 C 0.1445 0.44665 0.0178 0.0
C10 C 0.0048 0.34837 0.14245 0.0
C11 C 0.96841 0.30871 0.18128 0.0
N12 N 0.94289 0.31446 0.17272 0.0
C13 C 0.97835 0.35419 0.13428 0.0
C14 C -6e-05 0.32573 0.16636 0.0
C15 C 0.9472 0.33669 0.14977 0.0
C16 C 0.00476 0.40083 0.05645 0.0
N17 N 0.03545 0.41549 0.07083 0.0
C18 C 0.04689 0.47097 0.05613 0.0
C19 C 0.05634 0.44985 0.07146 0.0
C20 C 0.01585 0.45623 0.04021 0.0
C21 C 0.99433 0.42089 0.04092 0.0
H22 H 0.98891 0.3734 0.05617 0.0
H23 H 0.08086 0.46067 0.08265 0.0
C24 C 0.13758 0.37732 0.1553 0.0
N25 N 0.1086 0.37892 0.15839 0.0
C26 C 0.15722 0.38044 0.18106 0.0
C27 C 0.11688 0.387 0.21276 0.0
C28 C 0.09814 0.3841 0.18625 0.0
C29 C 0.14649 0.3847 0.21018 0.0
H30 H 0.14456 0.37204 0.13299 0.0
H31 H 0.07458 0.38455 0.18802 0.0
C32 C 0.01899 0.32169 0.03433 0.0
N33 N 0.99147 0.27402 0.98765 0.0
C34 C 0.02091 0.2919 0.03562 0.0
C35 C 0.00309 0.32724 0.00925 0.0
C36 C 0.0069 0.26814 0.01179 0.0
C37 C 0.98928 0.30281 0.98591 0.0
C38 C 0.06987 0.29734 0.11725 0.0
C39 C 0.07206 0.27265 0.09965 0.0
C40 C 0.06683 0.29377 0.1493 0.0
C41 C 0.07059 0.24455 0.11436 0.0
C42 C 0.06556 0.26536 0.16315 0.0
N43 N 0.0674 0.24151 0.14553 0.0
C44 C 0.12625 0.34052 0.04239 0.0
C45 C 0.09822 0.35666 0.00562 0.0
C46 C 0.14488 0.33606 0.01914 0.0
N47 N 0.10336 0.35041 0.03523 0.0
C48 C 0.11639 0.35256 0.9816 0.0
C49 C 0.13978 0.34194 0.98845 0.0
H50 H 0.12998 0.33612 0.06619 0.0
H51 H 0.08015 0.36494 0.00068 0.0
C52 C 0.96105 0.28695 0.08756 0.0
N53 N 0.98634 0.28472 0.10215 0.0
C54 C 0.93049 0.25771 0.08076 0.0
C55 C 0.95099 0.22434 0.10683 0.0
C56 C 0.98152 0.2544 0.11288 0.0
C57 C 0.92591 0.22595 0.08928 0.0
H58 H 0.96558 0.31135 0.07926 0.0
H59 H 0.00178 0.25308 0.12452 0.0
O60 O 0.09903 0.40151 0.08783 0.0
O61 O 0.03521 0.36467 0.12702 0.0
O62 O 0.03275 0.3455 0.0573 0.0
O63 O 0.07185 0.32529 0.10317 0.0
H64 H 0.16266 0.41476 0.09379 0.0
H65 H 0.09313 0.42611 0.03432 0.0
H66 H 0.20798 0.44394 0.05447 0.0
H67 H 0.13981 0.45556 0.99626 0.0
H68 H 0.96423 0.29092 0.19967 0.0
H69 H 0.98174 0.37185 0.11605 0.0
H70 H 0.02017 0.32116 0.17321 0.0
H71 H 0.92643 0.34077 0.14352 0.0
H72 H 0.064 0.49826 0.05576 0.0
H73 H 0.97028 0.40893 0.02874 0.0
H74 H 0.17973 0.3781 0.17854 0.0
H75 H 0.10789 0.38991 0.23508 0.0
H76 H 0.033 0.28716 0.05484 0.0
H77 H 0.00154 0.35025 0.00776 0.0
H78 H 0.00826 0.24501 0.01251 0.0
H79 H 0.97689 0.30678 0.96638 0.0
H80 H 0.07497 0.27516 0.07487 0.0
H81 H 0.06544 0.31263 0.1634 0.0
H82 H 0.07212 0.22521 0.10098 0.0
H83 H 0.06315 0.2623 0.18791 0.0
H84 H 0.16306 0.3281 0.02498 0.0
H85 H 0.11228 0.35755 0.95806 0.0
H86 H 0.91146 0.25968 0.06729 0.0
H87 H 0.94793 0.20003 0.1138 0.0
Li88 Li 0.62903 0.71306 0.11067 0.0
Li89 Li 0.60804 0.66304 0.07208 0.0
Li90 Li 0.66785 0.69872 0.08569 0.0
Li91 Li 0.64145 0.72195 0.05535 0.0
C92 C 0.64676 0.65917 0.13318 0.0
N93 N 0.6845 0.64056 0.16984 0.0
C94 C 0.64649 0.62868 0.1276 0.0
C95 C 0.66602 0.68008 0.15754 0.0
C96 C 0.66583 0.61977 0.14633 0.0
C97 C 0.68493 0.67022 0.17582 0.0
C98 C 0.57914 0.71109 0.05702 0.0
C99 C 0.54777 0.70688 0.01083 0.0
N100 N 0.54836 0.73623 0.01859 0.0
C101 C 0.57934 0.74115 0.06458 0.0
C102 C 0.56321 0.69377 0.02994 0.0
C103 C 0.5637 0.75349 0.04482 0.0
C104 C 0.62781 0.76461 0.14388 0.0
N105 N 0.61993 0.73155 0.14611 0.0
C106 C 0.60558 0.72994 0.19935 0.0
C107 C 0.60855 0.71387 0.17295 0.0
C108 C 0.61405 0.76419 0.19765 0.0
C109 C 0.62479 0.78147 0.1695 0.0
H110 H 0.63749 0.77816 0.12238 0.0
H111 H 0.60275 0.68767 0.17406 0.0
C112 C 0.58975 0.59905 0.05159 0.0
N113 N 0.57593 0.61855 0.05959 0.0
C114 C 0.57007 0.56803 0.0367 0.0
C115 C 0.522 0.57734 0.03916 0.0
C116 C 0.54256 0.60808 0.05445 0.0
C117 C 0.53613 0.55747 0.02966 0.0
H118 H 0.61659 0.60856 0.05527 0.0
H119 H 0.53238 0.62428 0.06089 0.0
C120 C 0.70485 0.76608 0.09888 0.0
N121 N 0.77117 0.81082 0.11622 0.0
C122 C 0.73078 0.77951 0.07679 0.0
C123 C 0.71253 0.77577 0.12973 0.0
C124 C 0.76419 0.80194 0.08604 0.0
C125 C 0.74624 0.79837 0.13804 0.0
C126 C 0.65582 0.68472 0.01477 0.0
C127 C 0.68894 0.70753 0.00491 0.0
C128 C 0.6316 0.66291 0.99347 0.0
C129 C 0.69717 0.70852 0.97374 0.0
C130 C 0.64085 0.66464 0.96251 0.0
N131 N 0.67316 0.68725 0.95337 0.0
C132 C 0.70702 0.67134 0.06843 0.0
C133 C 0.73394 0.71109 0.10886 0.0
C134 C 0.73489 0.66669 0.06551 0.0
N135 N 0.70744 0.69415 0.089 0.0
C136 C 0.7624 0.70683 0.10702 0.0
C137 C 0.76327 0.68519 0.08437 0.0
H138 H 0.68516 0.657 0.05384 0.0
H139 H 0.73324 0.72805 0.1259 0.0
C140 C 0.66553 0.78653 0.03032 0.0
N141 N 0.6479 0.75295 0.02278 0.0
C142 C 0.6706 0.81118 0.00854 0.0
C143 C 0.63936 0.76637 0.97145 0.0
C144 C 0.63481 0.74252 0.99402 0.0
C145 C 0.65728 0.80104 0.97887 0.0
H146 H 0.67518 0.79414 0.05345 0.0
H147 H 0.62009 0.71575 0.98872 0.0
O148 O 0.62897 0.66897 0.11444 0.0
O149 O 0.5949 0.69895 0.07577 0.0
O150 O 0.67197 0.74426 0.09023 0.0
O151 O 0.64735 0.68316 0.04525 0.0
H152 H 0.63172 0.61218 0.10888 0.0
H153 H 0.66678 0.70391 0.16201 0.0
H154 H 0.66605 0.59637 0.14215 0.0
H155 H 0.70013 0.68628 0.19462 0.0
H156 H 0.53557 0.69387 0.98969 0.0
H157 H 0.59156 0.7549 0.08539 0.0
H158 H 0.56343 0.67089 0.02335 0.0
H159 H 0.56381 0.77681 0.05032 0.0
H160 H 0.59744 0.71612 0.22092 0.0
H161 H 0.63183 0.80803 0.16768 0.0
H162 H 0.58158 0.55321 0.02945 0.0
H163 H 0.49578 0.56963 0.03394 0.0
H164 H 0.72516 0.77276 0.05275 0.0
H165 H 0.69277 0.76582 0.14713 0.0
H166 H 0.78456 0.81237 0.06921 0.0
H167 H 0.7526 0.80595 0.16185 0.0
H168 H 0.7081 0.72417 0.02117 0.0
H169 H 0.60581 0.64515 0.00065 0.0
H170 H 0.72268 0.72614 0.96577 0.0
H171 H 0.62231 0.64806 0.94575 0.0
H172 H 0.73462 0.64932 0.0482 0.0
H173 H 0.78383 0.72096 0.12228 0.0
H174 H 0.68428 0.83787 0.01488 0.0
H175 H 0.62847 0.75793 0.94875 0.0
Li176 Li 0.29072 0.92242 0.11124 0.0
Li177 Li 0.33329 0.94797 0.06978 0.0
Li178 Li 0.30233 0.97524 0.08796 0.0
Li179 Li 0.27402 0.92256 0.0579 0.0
C180 C 0.35288 0.99667 0.12613 0.0
N181 N 0.38925 0.06008 0.15326 0.0
C182 C 0.38603 0.01949 0.11631 0.0
C183 C 0.33828 0.00602 0.14984 0.0
C184 C 0.40399 0.05144 0.13031 0.0
C185 C 0.35706 0.03823 0.16321 0.0
C186 C 0.31664 0.8846 0.07041 0.0
C187 C 0.3473 0.86711 0.03654 0.0
N188 N 0.35897 0.85788 0.06147 0.0
C189 C 0.32888 0.87491 0.0957 0.0
C190 C 0.32579 0.88058 0.04057 0.0
C191 C 0.35024 0.86142 0.09069 0.0
C192 C 0.25207 0.86157 0.14322 0.0
N193 N 0.27514 0.89511 0.14749 0.0
C194 C 0.26798 0.88868 0.20213 0.0
C195 C 0.2838 0.90882 0.1762 0.0
C196 C 0.24313 0.85434 0.19819 0.0
C197 C 0.23561 0.84058 0.16843 0.0
H198 H 0.24551 0.85149 0.12008 0.0
H199 H 0.3021 0.93556 0.17894 0.0
C200 C 0.38436 0.97312 0.02531 0.0
N201 N 0.37666 0.95856 0.05373 0.0
C202 C 0.4162 0.98399 0.01228 0.0
C203 C 0.43217 0.96508 0.05813 0.0
C204 C 0.39972 0.95431 0.07028 0.0
C205 C 0.44052 0.98027 0.02885 0.0
H206 H 0.36612 0.97717 0.01298 0.0
H207 H 0.39319 0.94332 0.09312 0.0
C208 C 0.22945 0.91848 0.11298 0.0
N209 N 0.17172 0.88435 0.14905 0.0
C210 C 0.20321 0.88632 0.10415 0.0
C211 C 0.2265 0.93311 0.14032 0.0
C212 C 0.17425 0.86945 0.12273 0.0
C213 C 0.19701 0.91556 0.15812 0.0
C214 C 0.2994 0.97074 0.01702 0.0
C215 C 0.28491 0.99149 0.0138 0.0
C216 C 0.30035 0.95217 0.99165 0.0
C217 C 0.27173 0.99339 0.98528 0.0
C218 C 0.28678 0.95465 0.96354 0.0
N219 N 0.27289 0.97506 0.96096 0.0
C220 C 0.33454 0.0437 0.07678 0.0
C221 C 0.28142 0.02394 0.10206 0.0
C222 C 0.33679 0.07481 0.07048 0.0
N223 N 0.30666 0.01874 0.09136 0.0
C224 C 0.28288 0.05503 0.09661 0.0
C225 C 0.31007 0.08006 0.0793 0.0
H226 H 0.35371 0.03842 0.06788 0.0
H227 H 0.25915 0.00333 0.11283 0.0
C228 C 0.23552 0.86936 0.01572 0.0
N229 N 0.2392 0.89826 0.02878 0.0
C230 C 0.20856 0.85048 0.99561 0.0
C231 C 0.19047 0.89211 0.00215 0.0
C232 C 0.21752 0.90995 0.02238 0.0
C233 C 0.18553 0.86171 0.98908 0.0
H234 H 0.253 0.86057 0.02153 0.0
H235 H 0.22089 0.93276 0.03354 0.0
O236 O 0.33467 0.9655 0.11234 0.0
O237 O 0.29636 0.89858 0.07485 0.0
O238 O 0.25768 0.93577 0.09477 0.0
O239 O 0.31196 0.96803 0.04493 0.0
H240 H 0.39767 0.01275 0.0979 0.0
H241 H 0.31248 0.98885 0.15741 0.0
H242 H 0.42962 0.06941 0.12287 0.0
H243 H 0.34598 0.0459 0.18142 0.0
H244 H 0.35482 0.8641 0.0136 0.0
H245 H 0.32222 0.87807 0.11894 0.0
H246 H 0.31678 0.88826 0.02077 0.0
H247 H 0.36001 0.85392 0.11004 0.0
H248 H 0.27414 0.89997 0.22489 0.0
H249 H 0.21638 0.8142 0.16473 0.0
H250 H 0.4221 0.99592 0.98975 0.0
H251 H 0.45068 0.96218 0.07152 0.0
H252 H 0.20519 0.87439 0.08327 0.0
H253 H 0.24679 0.95773 0.14776 0.0
H254 H 0.15375 0.84455 0.11619 0.0
H255 H 0.19431 0.92664 0.17928 0.0
H256 H 0.28332 0.00564 0.03313 0.0
H257 H 0.3109 0.9355 0.99377 0.0
H258 H 0.26038 0.00929 0.98254 0.0
H259 H 0.28714 0.94022 0.94383 0.0
H260 H 0.35802 0.09368 0.05701 0.0
H261 H 0.26187 0.05849 0.10357 0.0
H262 H 0.20506 0.82689 0.986 0.0
H263 H 0.17282 0.90111 0.99769 0.0
Li264 Li 0.64195 0.92141 0.43921 0.0
Li265 Li 0.67062 0.97085 0.40785 0.0
Li266 Li 0.61174 0.94749 0.41716 0.0
Li267 Li 0.63274 0.91803 0.38365 0.0
C268 C 0.63596 0.96763 0.47616 0.0
N269 N 0.61177 0.96876 0.5344 0.0
C270 C 0.65276 0.99682 0.49442 0.0
C271 C 0.60675 0.93905 0.48748 0.0
C272 C 0.64013 0.9969 0.5238 0.0
C273 C 0.59494 0.94012 0.51698 0.0
C274 C 0.70427 0.93309 0.41825 0.0
C275 C 0.74715 0.91655 0.42041 0.0
N276 N 0.76219 0.93831 0.4444 0.0
C277 C 0.72009 0.9552 0.44301 0.0
C278 C 0.71783 0.91353 0.4069 0.0
C279 C 0.74938 0.95753 0.45586 0.0
C280 C 0.63259 0.86374 0.47067 0.0
N281 N 0.64642 0.89798 0.47338 0.0
C282 C 0.671 0.89791 0.52201 0.0
C283 C 0.66496 0.9152 0.49854 0.0
C284 C 0.65798 0.8628 0.51919 0.0
C285 C 0.63807 0.84546 0.49355 0.0
H286 H 0.61827 0.85088 0.45024 0.0
H287 H 0.67611 0.94252 0.49993 0.0
C288 C 0.70892 0.03886 0.41995 0.0
N289 N 0.71148 0.01349 0.40588 0.0
C290 C 0.73814 0.06888 0.42809 0.0
C291 C 0.77211 0.04732 0.40465 0.0
C292 C 0.74205 0.01764 0.39672 0.0
C293 C 0.77005 0.07251 0.4217 0.0
H294 H 0.68419 0.03467 0.4269 0.0
H295 H 0.74325 0.99696 0.38551 0.0
C296 C 0.56637 0.87795 0.40472 0.0
N297 N 0.50299 0.83726 0.37885 0.0
C298 C 0.55615 0.88947 0.37925 0.0
C299 C 0.54441 0.84573 0.41698 0.0
C300 C 0.52399 0.86852 0.36652 0.0
C301 C 0.51245 0.82554 0.40359 0.0
C302 C 0.65548 0.98852 0.35722 0.0
C303 C 0.65169 0.01716 0.35463 0.0
C304 C 0.6811 0.98702 0.34053 0.0
C305 C 0.67387 0.04403 0.33555 0.0
C306 C 0.70275 0.0144 0.3217 0.0
N307 N 0.69874 0.04212 0.31965 0.0
C308 C 0.59036 0.99384 0.42861 0.0
C309 C 0.54781 0.93683 0.43948 0.0
C310 C 0.57116 0.00617 0.44299 0.0
N311 N 0.57867 0.95978 0.42751 0.0
C312 C 0.52787 0.94807 0.45424 0.0
C313 C 0.54002 0.98311 0.45666 0.0
H314 H 0.61565 0.01149 0.42023 0.0
H315 H 0.53971 0.91002 0.43958 0.0
C316 C 0.61947 0.85727 0.35612 0.0
N317 N 0.62419 0.88868 0.34964 0.0
C318 C 0.61538 0.83486 0.33229 0.0
C319 C 0.62069 0.87744 0.2956 0.0
C320 C 0.62421 0.89888 0.32018 0.0
C321 C 0.61664 0.84525 0.30168 0.0
H322 H 0.61955 0.84996 0.37984 0.0
H323 H 0.62761 0.92384 0.31573 0.0
O324 O 0.64876 0.96701 0.4477 0.0
O325 O 0.67508 0.92967 0.40567 0.0
O326 O 0.59785 0.8977 0.41749 0.0
O327 O 0.6345 0.96222 0.37623 0.0
H328 H 0.6755 0.0191 0.48607 0.0
H329 H 0.59346 0.91614 0.47381 0.0
H330 H 0.65294 0.01929 0.53821 0.0
H331 H 0.57242 0.91817 0.52604 0.0
H332 H 0.75792 0.90156 0.41185 0.0
H333 H 0.70988 0.9704 0.45226 0.0
H334 H 0.70572 0.89611 0.38789 0.0
H335 H 0.76188 0.97456 0.47499 0.0
H336 H 0.68671 0.91187 0.54148 0.0
H337 H 0.62796 0.81832 0.4908 0.0
H338 H 0.73592 0.08793 0.44138 0.0
H339 H 0.79653 0.04949 0.39966 0.0
H340 H 0.57274 0.91428 0.36938 0.0
H341 H 0.55203 0.83642 0.43663 0.0
H342 H 0.51573 0.8771 0.34683 0.0
H343 H 0.49518 0.80055 0.41286 0.0
H344 H 0.63184 0.01863 0.36715 0.0
H345 H 0.68457 0.96515 0.34251 0.0
H346 H 0.6713 0.06641 0.33339 0.0
H347 H 0.72284 0.01369 0.30884 0.0
H348 H 0.58131 0.03338 0.44501 0.0
H349 H 0.50408 0.9298 0.46503 0.0
H350 H 0.61229 0.81012 0.33758 0.0
H351 H 0.62164 0.886 0.27213 0.0
Li352 Li 0.08705 0.72239 0.44043 0.0
Li353 Li 0.03727 0.7022 0.40787 0.0
Li354 Li 0.05941 0.66457 0.41844 0.0
Li355 Li 0.08962 0.71492 0.38267 0.0
C356 C 0.03566 0.6805 0.4785 0.0
N357 N 0.02503 0.67363 0.54143 0.0
C358 C 0.01436 0.6906 0.49254 0.0
C359 C 0.05148 0.66682 0.49643 0.0
C360 C 0.00935 0.68695 0.5244 0.0
C361 C 0.04578 0.66356 0.52821 0.0
C362 C 0.07368 0.77206 0.39718 0.0
C363 C 0.06859 0.80645 0.35749 0.0
N364 N 0.06156 0.82353 0.37942 0.0
C365 C 0.06665 0.79009 0.41934 0.0
C366 C 0.07485 0.78038 0.36601 0.0
C367 C 0.06047 0.81596 0.40988 0.0
C368 C 0.14285 0.75435 0.48046 0.0
N369 N 0.11084 0.74831 0.47551 0.0
C370 C 0.11286 0.77777 0.5218 0.0
C371 C 0.09601 0.76036 0.4951 0.0
C372 C 0.14518 0.78219 0.52936 0.0
C373 C 0.16061 0.77161 0.50683 0.0
H374 H 0.15485 0.74612 0.46366 0.0
H375 H 0.07111 0.75669 0.4899 0.0
C376 C 0.96989 0.67049 0.42123 0.0
N377 N 0.99379 0.69937 0.40701 0.0
C378 C 0.93837 0.66649 0.42901 0.0
C379 C 0.95523 0.72082 0.40505 0.0
C380 C 0.98659 0.7237 0.39754 0.0
C381 C 0.93145 0.6925 0.42202 0.0
H382 H 0.97615 0.65144 0.42826 0.0
H383 H 0.0055 0.74605 0.38559 0.0
C384 C 0.12872 0.6858 0.41892 0.0
N385 N 0.16884 0.65592 0.42168 0.0
C386 C 0.14139 0.67948 0.39185 0.0
C387 C 0.13655 0.67706 0.44741 0.0
C388 C 0.16163 0.66434 0.39373 0.0
C389 C 0.15682 0.6619 0.44831 0.0
C390 C 0.01496 0.66078 0.36164 0.0
C391 C 0.98819 0.62766 0.3667 0.0
C392 C 0.01077 0.68203 0.34098 0.0
C393 C 0.95742 0.61644 0.3512 0.0
C394 C 0.97961 0.66986 0.32595 0.0
N395 N 0.95379 0.6376 0.33134 0.0
C396 C 0.01465 0.60302 0.4444 0.0
C397 C 0.06438 0.60345 0.42673 0.0
C398 C 0.0033 0.57183 0.45897 0.0
N399 N 0.04524 0.61874 0.42962 0.0
C400 C 0.05405 0.57221 0.44116 0.0
C401 C 0.02363 0.55673 0.45811 0.0
H402 H -0.0003 0.61548 0.44603 0.0
H403 H 0.08812 0.61584 0.41422 0.0
C404 C 0.15061 0.76054 0.35427 0.0
N405 N 0.11869 0.7345 0.34828 0.0
C406 C 0.17251 0.77882 0.33009 0.0
C407 C 0.12847 0.74261 0.29405 0.0
C408 C 0.10745 0.72487 0.31896 0.0
C409 C 0.16116 0.77017 0.29967 0.0
H410 H 0.15862 0.76769 0.37788 0.0
H411 H 0.08187 0.70415 0.31496 0.0
O412 O 0.04113 0.68419 0.44737 0.0
O413 O 0.08031 0.74705 0.40602 0.0
O414 O 0.10911 0.70084 0.41754 0.0
O415 O 0.04493 0.67254 0.37725 0.0
H416 H 0.00216 0.70152 0.47904 0.0
H417 H 0.06802 0.65887 0.48592 0.0
H418 H 0.99305 0.69481 0.53559 0.0
H419 H 0.05788 0.65304 0.54238 0.0
H420 H 0.06933 0.81311 0.33346 0.0
H421 H 0.06578 0.78405 0.44354 0.0
H422 H 0.08049 0.76688 0.34856 0.0
H423 H 0.05482 0.83001 0.42676 0.0
H424 H 0.10052 0.78838 0.53541 0.0
H425 H 0.18663 0.77727 0.50836 0.0
H426 H 0.92047 0.64441 0.44219 0.0
H427 H 0.95042 0.7413 0.39942 0.0
H428 H 0.13554 0.68605 0.36961 0.0
H429 H 0.12696 0.68177 0.46859 0.0
H430 H 0.17157 0.65923 0.37298 0.0
H431 H 0.16297 0.65488 0.47018 0.0
H432 H 0.99105 0.61091 0.38261 0.0
H433 H 0.0312 0.70779 0.33695 0.0
H434 H 0.9364 0.59093 0.35501 0.0
H435 H 0.9759 0.6861 0.31007 0.0
H436 H 0.9796 0.56026 0.4718 0.0
H437 H 0.07006 0.5608 0.43997 0.0
H438 H 0.19755 0.80016 0.33501 0.0
H439 H 0.11907 0.73559 0.27072 0.0
Li440 Li 0.30325 0.3271 0.41312 0.0
Li441 Li 0.28172 0.35317 0.44694 0.0
Li442 Li 0.28499 0.36403 0.3917 0.0
Li443 Li 0.3369 0.38602 0.42338 0.0
C444 C 0.23111 0.29146 0.4259 0.0
N445 N 0.17858 0.23366 0.45265 0.0
C446 C 0.23798 0.27403 0.44877 0.0
C447 C 0.1975 0.27964 0.41681 0.0
C448 C 0.2111 0.24482 0.46195 0.0
C449 C 0.17129 0.25032 0.43058 0.0
C450 C 0.33594 0.36061 0.48129 0.0
C451 C 0.34963 0.40059 0.52298 0.0
N452 N 0.36343 0.38461 0.53887 0.0
C453 C 0.35034 0.34465 0.49799 0.0
C454 C 0.33568 0.38891 0.4938 0.0
C455 C 0.36414 0.35718 0.52706 0.0
C456 C 0.33676 0.29141 0.41968 0.0
N457 N 0.3071 0.28762 0.4086 0.0
C458 C 0.28227 0.22721 0.40697 0.0
C459 C 0.28071 0.25658 0.40054 0.0
C460 C 0.3115 0.23042 0.42111 0.0
C461 C 0.33967 0.2629 0.42589 0.0
H462 H 0.35718 0.31646 0.42593 0.0
H463 H 0.25748 0.25443 0.39159 0.0
C464 C 0.23244 0.35847 0.48074 0.0
N465 N 0.25408 0.346 0.48207 0.0
C466 C 0.20794 0.35015 0.50364 0.0
C467 C 0.2292 0.31719 0.52938 0.0
C468 C 0.25342 0.32627 0.50601 0.0
C469 C 0.20581 0.32872 0.52785 0.0
H470 H 0.23336 0.3737 0.46119 0.0
H471 H 0.27059 0.31623 0.50623 0.0
C472 C 0.33438 0.34539 0.36147 0.0
N473 N 0.34639 0.30537 0.32115 0.0
C474 C 0.36729 0.35064 0.35789 0.0
C475 C 0.3076 0.31995 0.34441 0.0
C476 C 0.37283 0.3301 0.33742 0.0
C477 C 0.31419 0.29994 0.32419 0.0
C478 C 0.30974 0.4295 0.41472 0.0
C479 C 0.32955 0.44077 0.38794 0.0
C480 C 0.29975 0.45057 0.42934 0.0
C481 C 0.33912 0.47305 0.37628 0.0
C482 C 0.30987 0.4827 0.41698 0.0
N483 N 0.32917 0.49317 0.39092 0.0
C484 C 0.23349 0.37286 0.3666 0.0
C485 C 0.2735 0.37576 0.32959 0.0
C486 C 0.21429 0.3768 0.34358 0.0
N487 N 0.26222 0.37205 0.35917 0.0
C488 C 0.25487 0.37937 0.3058 0.0
C489 C 0.22477 0.37956 0.3128 0.0
H490 H 0.22528 0.36989 0.39039 0.0
H491 H 0.29664 0.37538 0.32444 0.0
C492 C 0.40446 0.40784 0.43341 0.0
N493 N 0.38237 0.41985 0.43241 0.0
C494 C 0.43664 0.42743 0.44638 0.0
C495 C 0.42331 0.47205 0.45599 0.0
C496 C 0.39122 0.45146 0.44299 0.0
C497 C 0.44591 0.45955 0.4584 0.0
H498 H 0.3962 0.38211 0.42596 0.0
H499 H 0.37281 0.45993 0.44317 0.0
O500 O 0.25692 0.32059 0.41313 0.0
O501 O 0.32192 0.34815 0.453 0.0
O502 O 0.32823 0.36466 0.38191 0.0
O503 O 0.29953 0.39783 0.42646 0.0
H504 H 0.26379 0.28308 0.45643 0.0
H505 H 0.19174 0.29304 0.39934 0.0
H506 H 0.21608 0.23111 0.47966 0.0
H507 H 0.14515 0.24086 0.42375 0.0
H508 H 0.34953 0.42241 0.53296 0.0
H509 H 0.35071 0.32269 0.48863 0.0
H510 H 0.32469 0.40165 0.48127 0.0
H511 H 0.37533 0.34504 0.54026 0.0
H512 H 0.2601 0.20237 0.40322 0.0
H513 H 0.36247 0.26604 0.43694 0.0
H514 H 0.18986 0.35905 0.50181 0.0
H515 H 0.22775 0.30026 0.54767 0.0
H516 H 0.38831 0.37034 0.37079 0.0
H517 H 0.28191 0.31535 0.34715 0.0
H518 H 0.39815 0.3338 0.33447 0.0
H519 H 0.29368 0.28 0.311 0.0
H520 H 0.33751 0.42487 0.37622 0.0
H521 H 0.28431 0.44214 0.45003 0.0
H522 H 0.35445 0.4821 0.35559 0.0
H523 H 0.30233 0.49929 0.42807 0.0
H524 H 0.19112 0.37685 0.34956 0.0
H525 H 0.26353 0.38156 0.28218 0.0
H526 H 0.45347 0.41703 0.44839 0.0
H527 H 0.42975 0.49661 0.46557 0.0
Li528 Li 0.9115 0.63689 0.94429 0.0
Li529 Li 0.94118 0.60607 0.9224 0.0
Li530 Li 0.96224 0.66558 0.9118 0.0
Li531 Li 0.91062 0.62615 0.88861 0.0
C532 C 0.97657 0.66545 0.97525 0.0
N533 N 0.01451 0.70883 0.02237 0.0
C534 C 0.99853 0.65877 0.99255 0.0
C535 C 0.97409 0.6943 0.98178 0.0
C536 C 0.01761 0.6811 0.01619 0.0
C537 C 0.99321 0.71573 0.00588 0.0
C538 C 0.86288 0.56626 0.91039 0.0
C539 C 0.836 0.5211 0.87305 0.0
N540 N 0.80504 0.51617 0.88185 0.0
C541 C 0.83083 0.56066 0.9192 0.0
C542 C 0.86556 0.54625 0.88727 0.0
C543 C 0.80188 0.53522 0.90444 0.0
C544 C 0.86218 0.64761 0.97035 0.0
N545 N 0.88748 0.6412 0.97782 0.0
C546 C 0.88021 0.64779 0.03148 0.0
C547 C 0.89631 0.64043 0.00765 0.0
C548 C 0.85454 0.65522 0.02422 0.0
C549 C 0.84521 0.65468 0.99337 0.0
H550 H 0.85586 0.64808 0.94639 0.0
H551 H 0.91642 0.63502 0.01288 0.0
C552 C 0.9877 0.58677 0.94 0.0
N553 N 0.954 0.57426 0.93457 0.0
C554 C 0.99865 0.56682 0.95501 0.0
C555 C 0.94002 0.52121 0.95798 0.0
C556 C 0.93017 0.54204 0.94279 0.0
C557 C 0.97453 0.53401 0.96472 0.0
H558 H 0.00583 0.61294 0.93428 0.0
H559 H 0.90347 0.5332 0.939 0.0
C560 C 0.92019 0.69653 0.90033 0.0
N561 N 0.91947 0.75427 0.88109 0.0
C562 C 0.92028 0.70332 0.86889 0.0
C563 C 0.91924 0.71892 0.92197 0.0
C564 C 0.92001 0.73268 0.85963 0.0
C565 C 0.91907 0.74804 0.91179 0.0
C566 C 0.98386 0.64676 0.86402 0.0
C567 C 0.98712 0.673 0.84486 0.0
C568 C 0.01015 0.6392 0.86526 0.0
C569 C 0.01702 0.69182 0.82783 0.0
C570 C 0.03965 0.65857 0.84785 0.0
N571 N 0.04247 0.68431 0.8297 0.0
C572 C 0.03115 0.70343 0.92078 0.0
C573 C 0.00914 0.73816 0.90335 0.0
C574 C 0.06215 0.73201 0.92802 0.0
N575 N 0.00497 0.70697 0.91004 0.0
C576 C 0.04004 0.76759 0.9099 0.0
C577 C 0.06621 0.7644 0.92373 0.0
H578 H 0.0271 0.67832 0.92581 0.0
H579 H 0.98814 0.74046 0.89466 0.0
C580 C 0.85198 0.61692 0.85953 0.0
N581 N 0.8817 0.61726 0.85421 0.0
C582 C 0.83111 0.61455 0.83502 0.0
C583 C 0.872 0.61322 0.79992 0.0
C584 C 0.89183 0.61498 0.82522 0.0
C585 C 0.84154 0.61346 0.80483 0.0
H586 H 0.84513 0.61972 0.8828 0.0
H587 H 0.91586 0.61585 0.82172 0.0
O588 O 0.95737 0.64363 0.95225 0.0
O589 O 0.89156 0.59157 0.92398 0.0
O590 O 0.91992 0.66766 0.90996 0.0
O591 O 0.95502 0.62848 0.88132 0.0
H592 H 0.00073 0.63651 0.98788 0.0
H593 H 0.95737 0.69989 0.96851 0.0
H594 H 0.03475 0.67627 0.02974 0.0
H595 H 0.99125 0.73796 0.01137 0.0
H596 H 0.83767 0.50555 0.85497 0.0
H597 H 0.82841 0.57602 0.93704 0.0
H598 H 0.89026 0.55042 0.88017 0.0
H599 H 0.7769 0.5307 0.91089 0.0
H600 H 0.88795 0.64818 0.05514 0.0
H601 H 0.82553 0.66047 0.98717 0.0
H602 H 0.02541 0.57738 0.96027 0.0
H603 H 0.9209 0.49599 0.96553 0.0
H604 H 0.92037 0.68611 0.85174 0.0
H605 H 0.91853 0.71386 0.94639 0.0
H606 H 0.92012 0.73823 0.83537 0.0
H607 H 0.91848 0.76563 0.9283 0.0
H608 H 0.96695 0.67901 0.84341 0.0
H609 H 0.0078 0.61854 0.87942 0.0
H610 H 0.01999 0.71241 0.81315 0.0
H611 H 0.06028 0.65312 0.84874 0.0
H612 H 0.08197 0.72887 0.9387 0.0
H613 H 0.04261 0.79242 0.90644 0.0
H614 H 0.80788 0.6151 0.83941 0.0
H615 H 0.8807 0.61263 0.77678 0.0
Li616 Li 0.32089 0.29919 0.90288 0.0
Li617 Li 0.38059 0.332 0.91493 0.0
Li618 Li 0.35844 0.28325 0.87689 0.0
Li619 Li 0.34782 0.27395 0.93324 0.0
C620 C 0.34792 0.33762 0.84877 0.0
N621 N 0.32615 0.35808 0.7979 0.0
C622 C 0.35447 0.37113 0.84656 0.0
C623 C 0.33055 0.31461 0.82499 0.0
C624 C 0.34317 0.38095 0.8207 0.0
C625 C 0.3197 0.32542 0.79949 0.0
C626 C 0.34759 0.33624 0.9656 0.0
C627 C 0.37306 0.36459 0.01346 0.0
N628 N 0.35895 0.38469 0.00985 0.0
C629 C 0.33329 0.35718 0.9624 0.0
C630 C 0.36778 0.3401 0.99127 0.0
C631 C 0.3394 0.38155 0.98498 0.0
C632 C 0.26306 0.28949 0.93018 0.0
N633 N 0.27992 0.30115 0.903 0.0
C634 C 0.2431 0.32229 0.88842 0.0
C635 C 0.26986 0.31634 0.88169 0.0
C636 C 0.22707 0.3125 0.91727 0.0
C637 C 0.2364 0.2949 0.93782 0.0
H638 H 0.27187 0.27795 0.94686 0.0
H639 H 0.28344 0.32539 0.86023 0.0
C640 C 0.44592 0.38117 0.93727 0.0
N641 N 0.41563 0.3761 0.92642 0.0
C642 C 0.46852 0.41186 0.95169 0.0
C643 C 0.42876 0.43173 0.94241 0.0
C644 C 0.40736 0.40105 0.9276 0.0
C645 C 0.45924 0.43688 0.95532 0.0
H646 H 0.45184 0.3609 0.93598 0.0
H647 H 0.38314 0.3963 0.91871 0.0
C648 C 0.28128 0.23199 0.89672 0.0
N649 N 0.21141 0.19085 0.89311 0.0
C650 C 0.26243 0.21502 0.92293 0.0
C651 C 0.26465 0.2277 0.86861 0.0
C652 C 0.22712 0.19442 0.92065 0.0
C653 C 0.22929 0.20689 0.86727 0.0
C654 C 0.40951 0.2814 0.92474 0.0
C655 C 0.41533 0.25803 0.90873 0.0
C656 C 0.42052 0.28966 0.95522 0.0
C657 C 0.43169 0.24293 0.92367 0.0
C658 C 0.43672 0.27395 0.96937 0.0
N659 N 0.44191 0.25109 0.95343 0.0
C660 C 0.38736 0.2816 0.81829 0.0
C661 C 0.34884 0.22865 0.84159 0.0
C662 C 0.39176 0.26481 0.79315 0.0
N663 N 0.36606 0.26326 0.84171 0.0
C664 C 0.35256 0.21091 0.81709 0.0
C665 C 0.37413 0.22907 0.79257 0.0
H666 H 0.40078 0.30913 0.81913 0.0
H667 H 0.3323 0.21481 0.86068 0.0
C668 C 0.33042 0.24662 0.99381 0.0
N669 N 0.34053 0.24276 0.96527 0.0
C670 C 0.32348 0.22233 0.01669 0.0
C671 C 0.33727 0.19064 0.98017 0.0
C672 C 0.34352 0.21524 0.95798 0.0
C673 C 0.32712 0.19412 0.00983 0.0
H674 H 0.32692 0.26805 0.99859 0.0
H675 H 0.35031 0.21221 0.93477 0.0
O676 O 0.35906 0.3277 0.87381 0.0
O677 O 0.34155 0.31188 0.94392 0.0
O678 O 0.31582 0.25278 0.89861 0.0
O679 O 0.39303 0.29602 0.91066 0.0
H680 H 0.36809 0.38935 0.86462 0.0
H681 H 0.32545 0.2887 0.82617 0.0
H682 H 0.34795 0.40676 0.81874 0.0
H683 H 0.30616 0.30785 0.78096 0.0
H684 H 0.38844 0.36767 0.03353 0.0
H685 H 0.31809 0.35508 0.94249 0.0
H686 H 0.37922 0.32431 0.99408 0.0
H687 H 0.32863 0.398 0.98269 0.0
H688 H 0.23626 0.33596 0.87216 0.0
H689 H 0.22445 0.28715 0.96028 0.0
H690 H 0.49205 0.41534 0.96136 0.0
H691 H 0.4211 0.45073 0.94476 0.0
H692 H 0.27484 0.21801 0.94489 0.0
H693 H 0.27884 0.24037 0.84805 0.0
H694 H 0.21219 0.18133 0.94079 0.0
H695 H 0.21607 0.2035 0.84569 0.0
H696 H 0.40714 0.25148 0.88508 0.0
H697 H 0.41621 0.30769 0.96793 0.0
H698 H 0.43622 0.22467 0.91161 0.0
H699 H 0.44511 0.27988 0.99303 0.0
H700 H 0.40857 0.27938 0.77441 0.0
H701 H 0.33867 0.18332 0.81717 0.0
H702 H 0.31498 0.2252 0.03926 0.0
H703 H 0.33967 0.16874 0.97413 0.0
Li704 Li 0.72034 0.08527 0.88453 0.0
Li705 Li 0.73352 0.08272 0.93917 0.0
Li706 Li 0.70315 0.03212 0.90772 0.0
Li707 Li 0.67358 0.06171 0.92203 0.0
C708 C 0.76864 0.05397 0.89908 0.0
N709 N 0.80357 0.0189 0.89249 0.0
C710 C 0.78647 0.05096 0.92399 0.0
C711 C 0.76906 0.0396 0.87069 0.0
C712 C 0.80386 0.03303 0.92022 0.0
C713 C 0.78672 0.02182 0.86786 0.0
C714 C 0.71325 0.13563 0.90622 0.0
C715 C 0.684 0.1592 0.87809 0.0
N716 N 0.71412 0.18851 0.8738 0.0
C717 C 0.74391 0.16603 0.90158 0.0
C718 C 0.68304 0.13216 0.89437 0.0
C719 C 0.74382 0.19244 0.8851 0.0
C720 C 0.72114 0.119 0.82798 0.0
N721 N 0.73986 0.11376 0.84946 0.0
C722 C 0.79149 0.15107 0.82293 0.0
C723 C 0.77435 0.12935 0.84747 0.0
C724 C 0.7729 0.15673 0.80034 0.0
C725 C 0.73733 0.14066 0.80296 0.0
H726 H 0.69373 0.10635 0.83029 0.0
H727 H 0.78854 0.12492 0.86505 0.0
C728 C 0.7625 0.08499 0.99719 0.0
N729 N 0.7647 0.1034 0.97165 0.0
C730 C 0.78653 0.09973 0.02071 0.0
C731 C 0.81434 0.15198 0.99111 0.0
C732 C 0.7899 0.13624 0.96819 0.0
C733 C 0.81274 0.13358 0.0176 0.0
H734 H 0.74259 0.05866 0.9989 0.0
H735 H 0.79133 0.14993 0.94739 0.0
C736 C 0.66413 0.02408 0.85468 0.0
N737 N 0.64231 0.98433 0.80213 0.0
C738 C 0.63028 0.99788 0.85211 0.0
C739 C 0.6868 0.03013 0.83041 0.0
C740 C 0.61977 0.97803 0.8254 0.0
C741 C 0.6753 0.00976 0.80407 0.0
C742 C 0.66483 0.01175 0.96273 0.0
C743 C 0.63872 0.98772 0.94409 0.0
C744 C 0.66287 0.00713 0.99467 0.0
C745 C 0.6113 0.95928 0.95767 0.0
C746 C 0.63497 0.97838 0.00739 0.0
N747 N 0.61 0.95523 0.98879 0.0
C748 C 0.70944 0.98047 0.93235 0.0
C749 C 0.68258 0.96383 0.88354 0.0
C750 C 0.70322 0.94771 0.93798 0.0
N751 N 0.69827 0.98773 0.90594 0.0
C752 C 0.67579 0.93048 0.88826 0.0
C753 C 0.68537 0.92221 0.91619 0.0
H754 H 0.72177 -0.00012 0.94979 0.0
H755 H 0.67409 0.96999 0.86264 0.0
C756 C 0.60251 0.03964 0.92105 0.0
N757 N 0.63182 0.05535 0.93761 0.0
C758 C 0.57127 0.02904 0.93562 0.0
C759 C 0.60131 0.05209 0.98356 0.0
C760 C 0.63189 0.06241 0.96806 0.0
C761 C 0.5706 0.03461 0.96737 0.0
H762 H 0.60329 0.03414 0.89693 0.0
H763 H 0.65565 0.07445 0.98064 0.0
O764 O 0.75088 0.07085 0.90251 0.0
O765 O 0.71294 0.10895 0.92125 0.0
O766 O 0.67468 0.04393 0.8806 0.0
O767 O 0.69191 0.03996 0.94991 0.0
H768 H 0.78662 0.06203 0.94608 0.0
H769 H 0.75577 0.04194 0.85108 0.0
H770 H 0.81753 0.03029 0.93937 0.0
H771 H 0.78702 0.01035 0.84608 0.0
H772 H 0.66083 0.1568 0.86871 0.0
H773 H 0.76761 0.16903 0.91012 0.0
H774 H 0.65915 0.10869 0.89734 0.0
H775 H 0.7674 0.21601 0.88117 0.0
H776 H 0.81897 0.1632 0.82145 0.0
H777 H 0.72241 0.14466 0.78578 0.0
H778 H 0.78506 0.08486 0.04078 0.0
H779 H 0.83462 0.17807 0.98803 0.0
H780 H 0.6123 0.99273 0.87059 0.0
H781 H 0.71298 0.05026 0.83182 0.0
H782 H 0.59369 0.95761 0.82318 0.0
H783 H 0.69263 0.01416 0.78516 0.0
H784 H 0.63959 0.99096 0.9194 0.0
H785 H 0.68255 0.02565 0.00953 0.0
H786 H 0.591 0.94048 0.94348 0.0
H787 H 0.63314 0.9745 0.03208 0.0
H788 H 0.71086 0.94193 0.95975 0.0
H789 H 0.6619 0.91108 0.87107 0.0
H790 H 0.54785 0.01559 0.92261 0.0
H791 H 0.60148 0.05662 0.0081 0.0
Li792 Li 0.34556 0.06617 0.55976 0.0
Li793 Li 0.3581 0.06982 0.61253 0.0
Li794 Li 0.38328 0.04613 0.5775 0.0
Li795 Li 0.32019 0.01394 0.592 0.0
C796 C 0.40506 0.12448 0.56557 0.0
N797 N 0.43139 0.18751 0.53768 0.0
C798 C 0.39087 0.14505 0.5716 0.0
C799 C 0.43288 0.13613 0.54553 0.0
C800 C 0.40445 0.17677 0.55721 0.0
C801 C 0.44579 0.16804 0.53164 0.0
C802 C 0.29267 0.05889 0.61336 0.0
C803 C 0.24979 0.04027 0.65315 0.0
N804 N 0.25297 0.07173 0.65342 0.0
C805 C 0.29506 0.09084 0.61365 0.0
C806 C 0.26953 0.03322 0.63297 0.0
C807 C 0.27497 0.09692 0.63424 0.0
C808 C 0.30395 0.08397 0.52709 0.0
N809 N 0.33501 0.0863 0.52618 0.0
C810 C 0.3517 0.12405 0.48309 0.0
C811 C 0.35813 0.1045 0.50383 0.0
C812 C 0.32088 0.12403 0.48508 0.0
C813 C 0.29617 0.10258 0.50642 0.0
H814 H 0.28582 0.0689 0.54478 0.0
H815 H 0.38231 0.10536 0.50304 0.0
C816 C 0.39494 0.12948 0.64879 0.0
N817 N 0.36682 0.09785 0.64852 0.0
C818 C 0.39973 0.15234 0.67245 0.0
C819 C 0.34786 0.10891 0.69632 0.0
C820 C 0.34415 0.08688 0.67229 0.0
C821 C 0.37548 0.14224 0.69604 0.0
H822 H 0.41325 0.13732 0.63025 0.0
H823 H 0.32272 0.0613 0.67228 0.0
C824 C 0.3451 0.01967 0.51946 0.0
N825 N 0.35006 0.01445 0.45641 0.0
C826 C 0.31689 0.99601 0.5026 0.0
C827 C 0.37584 0.04064 0.50424 0.0
C828 C 0.3199 0.99378 0.47074 0.0
C829 C 0.37784 0.03762 0.47237 0.0
C830 C 0.37446 0.03328 0.64709 0.0
C831 C 0.40936 0.05533 0.65106 0.0
C832 C 0.35354 0.01861 0.6728 0.0
C833 C 0.42276 0.06258 0.68086 0.0
C834 C 0.36793 0.02648 0.70222 0.0
N835 N 0.40194 0.04814 0.7056 0.0
C836 C 0.45139 0.06222 0.56258 0.0
C837 C 0.40671 0.0054 0.55464 0.0
C838 C 0.4743 0.05535 0.547 0.0
N839 N 0.41815 0.03754 0.56521 0.0
C840 C 0.42863 0.99745 0.53898 0.0
C841 C 0.46253 0.02286 0.53438 0.0
H842 H 0.4597 0.0875 0.57134 0.0
H843 H 0.38004 0.98647 0.55693 0.0
C844 C 0.25813 0.9602 0.57375 0.0
N845 N 0.28284 0.96951 0.59535 0.0
C846 C 0.23314 0.92611 0.57056 0.0
C847 C 0.25779 0.91236 0.61376 0.0
C848 C 0.28285 0.94669 0.61565 0.0
C849 C 0.23353 0.90173 0.59012 0.0
H850 H 0.25893 0.97908 0.55802 0.0
H851 H 0.30317 0.95484 0.63228 0.0
O852 O 0.39177 0.09311 0.57916 0.0
O853 O 0.31221 0.05244 0.59347 0.0
O854 O 0.34266 0.02216 0.55071 0.0
O855 O 0.36081 0.02671 0.61815 0.0
H856 H 0.36953 0.13655 0.58716 0.0
H857 H 0.44404 0.1205 0.54031 0.0
H858 H 0.39355 0.19283 0.56156 0.0
H859 H 0.46714 0.17726 0.51592 0.0
H860 H 0.23202 0.02076 0.66867 0.0
H861 H 0.31215 0.11073 0.59812 0.0
H862 H 0.26716 0.00828 0.63295 0.0
H863 H 0.27681 0.12163 0.63491 0.0
H864 H 0.37121 0.14036 0.46678 0.0
H865 H 0.27211 0.10208 0.50839 0.0
H866 H 0.42151 0.17789 0.6719 0.0
H867 H 0.32895 0.10036 0.71452 0.0
H868 H 0.29294 0.97945 0.51396 0.0
H869 H 0.39784 0.05941 0.51679 0.0
H870 H 0.29826 0.97558 0.45741 0.0
H871 H 0.40146 0.05377 0.46031 0.0
H872 H 0.42583 0.06702 0.63134 0.0
H873 H 0.32641 0.00179 0.67011 0.0
H874 H 0.4497 0.07975 0.68432 0.0
H875 H 0.35203 0.01551 0.72236 0.0
H876 H 0.50046 0.07536 0.54376 0.0
H877 H 0.41898 0.97218 0.52945 0.0
H878 H 0.21453 0.91861 0.55226 0.0
H879 H 0.25852 0.89403 0.62926 0.0
Li880 Li 0.98082 0.2968 0.59291 0.0
Li881 Li 0.95428 0.3325 0.57694 0.0
Li882 Li 0.92873 0.28799 0.61613 0.0
Li883 Li 0.9275 0.27226 0.56444 0.0
C884 C 0.97434 0.33796 0.64765 0.0
N885 N 0.97084 0.35021 0.7095 0.0
C886 C 0.95786 0.35546 0.65716 0.0
C887 C 0.98924 0.32686 0.66948 0.0
C888 C 0.9563 0.36135 0.68858 0.0
C889 C 0.98716 0.33328 0.70068 0.0
C890 C 0.97516 0.2994 0.522 0.0
C891 C 0.96458 0.29821 0.46744 0.0
N892 N 0.97857 0.27808 0.46309 0.0
C893 C 0.9896 0.27885 0.51698 0.0
C894 C 0.96271 0.30933 0.49703 0.0
C895 C 0.99105 0.26831 0.48703 0.0
C896 C 0.0294 0.27743 0.61202 0.0
N897 N 0.02333 0.29937 0.59558 0.0
C898 C 0.07846 0.32508 0.57276 0.0
C899 C 0.04736 0.32355 0.57699 0.0
C900 C 0.08492 0.3018 0.58815 0.0
C901 C 0.06066 0.27851 0.60891 0.0
H902 H 0.00963 0.25843 0.62658 0.0
H903 H 0.04167 0.34062 0.56431 0.0
C904 C 0.94995 0.3931 0.56821 0.0
N905 N 0.96703 0.37631 0.56163 0.0
C906 C 0.95878 0.42371 0.55318 0.0
C907 C 0.00308 0.41939 0.52588 0.0
C908 C 0.99355 0.3891 0.54145 0.0
C909 C 0.98528 0.43665 0.53143 0.0
H910 H 0.92887 0.38216 0.5843 0.0
H911 H 0.00676 0.37527 0.53684 0.0
C912 C 0.91341 0.22107 0.60731 0.0
N913 N 0.86117 0.15637 0.62144 0.0
C914 C 0.87952 0.21258 0.60307 0.0
C915 C 0.92073 0.19665 0.61872 0.0
C916 C 0.85348 0.17974 0.61033 0.0
C917 C 0.89397 0.16408 0.62575 0.0
C918 C 0.88008 0.29696 0.56552 0.0
C919 C 0.84626 0.27604 0.57479 0.0
C920 C 0.88717 0.31752 0.5394 0.0
C921 C 0.82014 0.27591 0.55769 0.0
C922 C 0.86034 0.31674 0.52297 0.0
N923 N 0.82766 0.29611 0.53237 0.0
C924 C 0.87604 0.27851 0.65767 0.0
C925 C 0.91023 0.25528 0.67358 0.0
C926 C 0.85362 0.26261 0.68226 0.0
N927 N 0.90315 0.27385 0.65344 0.0
C928 C 0.88856 0.23898 0.69841 0.0
C929 C 0.85952 0.24198 0.70242 0.0
H930 H 0.87109 0.29344 0.64127 0.0
H931 H 0.93188 0.25189 0.66952 0.0
C932 C 0.9131 0.2143 0.53038 0.0
N933 N 0.90363 0.2383 0.53341 0.0
C934 C 0.89633 0.18745 0.50964 0.0
C935 C 0.86076 0.21078 0.49496 0.0
C936 C 0.8785 0.23739 0.51565 0.0
C937 C 0.86927 0.18519 0.49232 0.0
H938 H 0.93339 0.21573 0.5445 0.0
H939 H 0.87161 0.25674 0.51771 0.0
O940 O 0.97515 0.33095 0.61714 0.0
O941 O 0.97274 0.30928 0.55126 0.0
O942 O 0.93944 0.25314 0.60055 0.0
O943 O 0.90596 0.29783 0.58243 0.0
H944 H 0.94605 0.36402 0.64047 0.0
H945 H 0.00193 0.31311 0.66241 0.0
H946 H 0.94344 0.37467 0.69633 0.0
H947 H 0.9984 0.32469 0.71789 0.0
H948 H 0.95488 0.30555 0.44793 0.0
H949 H -0.00095 0.27061 0.53604 0.0
H950 H 0.95156 0.3253 0.50046 0.0
H951 H 0.00193 0.2522 0.48284 0.0
H952 H 0.09686 0.34346 0.55678 0.0
H953 H 0.06521 0.2604 0.62121 0.0
H954 H 0.94466 0.43669 0.55781 0.0
H955 H 0.0237 0.42896 0.50927 0.0
H956 H 0.87338 0.23109 0.59425 0.0
H957 H 0.94684 0.20284 0.62216 0.0
H958 H 0.82715 0.17286 0.60716 0.0
H959 H 0.89926 0.14493 0.63463 0.0
H960 H 0.84017 0.26001 0.59497 0.0
H961 H 0.91297 0.33345 0.53148 0.0
H962 H 0.79388 0.25979 0.56459 0.0
H963 H 0.86551 0.33241 0.50266 0.0
H964 H 0.83131 0.26526 0.68485 0.0
H965 H 0.89362 0.22311 0.71363 0.0
H966 H 0.90344 0.16798 0.50799 0.0
H967 H 0.83998 0.20965 0.48174 0.0
Li968 Li 0.71599 0.64001 0.61501 0.0
Li969 Li 0.6994 0.67532 0.58934 0.0
Li970 Li 0.66927 0.61527 0.57622 0.0
Li971 Li 0.7297 0.65392 0.5609 0.0
C972 C 0.65883 0.65137 0.63689 0.0
N973 N 0.63614 0.68447 0.6754 0.0
C974 C 0.67876 0.67052 0.66177 0.0
C975 C 0.62728 0.64892 0.6317 0.0
C976 C 0.66684 0.68705 0.68099 0.0
C977 C 0.61631 0.66592 0.65138 0.0
C978 C 0.76341 0.71723 0.60775 0.0
C979 C 0.78902 0.77788 0.60007 0.0
N980 N 0.79789 0.78305 0.63034 0.0
C981 C 0.77285 0.72318 0.63878 0.0
C982 C 0.77161 0.74482 0.58821 0.0
C983 C 0.79024 0.75662 0.64976 0.0
C984 C 0.76739 0.63929 0.6485 0.0
N985 N 0.73428 0.63115 0.65083 0.0
C986 C 0.7317 0.61323 0.70301 0.0
C987 C 0.71608 0.61786 0.67718 0.0
C988 C 0.76597 0.62179 0.70118 0.0
C989 C 0.78378 0.63452 0.67348 0.0
H990 H 0.78111 0.64976 0.62718 0.0
H991 H 0.68966 0.61131 0.67823 0.0
C992 C 0.67139 0.71231 0.56682 0.0
N993 N 0.69029 0.71222 0.59103 0.0
C994 C 0.66636 0.73974 0.56203 0.0
C995 C 0.69746 0.76535 0.60893 0.0
C996 C 0.70209 0.73729 0.61274 0.0
C997 C 0.68044 0.76704 0.58266 0.0
H998 H 0.66107 0.69156 0.55053 0.0
H999 H 0.71626 0.73632 0.63228 0.0
C1000 C 0.71131 0.58297 0.59463 0.0
N1001 N 0.71802 0.53481 0.62799 0.0
C1002 C 0.74139 0.58164 0.5928 0.0
C1003 C 0.6846 0.55976 0.61331 0.0
C1004 C 0.74429 0.5571 0.60987 0.0
C1005 C 0.6885 0.53561 0.63002 0.0
C1006 C 0.6927 0.65781 0.51719 0.0
C1007 C 0.68127 0.62876 0.49886 0.0
C1008 C 0.70956 0.69005 0.50354 0.0
C1009 C 0.68691 0.63248 0.46707 0.0
C1010 C 0.71474 0.6927 0.47168 0.0
N1011 N 0.7034 0.6641 0.45426 0.0
C1012 C 0.60404 0.59034 0.5556 0.0
C1013 C 0.62194 0.54938 0.55231 0.0
C1014 C 0.57395 0.56874 0.54015 0.0
N1015 N 0.62721 0.58039 0.56131 0.0
C1016 C 0.59222 0.52701 0.53643 0.0
C1017 C 0.56817 0.53699 0.53002 0.0
H1018 H 0.60973 0.61573 0.56182 0.0
H1019 H 0.64139 0.54268 0.55622 0.0
C1020 C 0.78436 0.69476 0.52095 0.0
N1021 N 0.76214 0.66217 0.52955 0.0
C1022 C 0.8103 0.70158 0.49995 0.0
C1023 C 0.78933 0.64103 0.49626 0.0
C1024 C 0.76358 0.63537 0.51717 0.0
C1025 C 0.81338 0.67453 0.48809 0.0
H1026 H 0.7825 0.71552 0.53094 0.0
H1027 H 0.74536 0.6097 0.52428 0.0
O1028 O 0.67039 0.63549 0.61754 0.0
O1029 O 0.74689 0.68466 0.5965 0.0
O1030 O 0.70845 0.60763 0.5791 0.0
O1031 O 0.68817 0.65477 0.54844 0.0
H1032 H 0.70339 0.67304 0.66596 0.0
H1033 H 0.61145 0.63415 0.61267 0.0
H1034 H 0.6821 0.70211 0.70021 0.0
H1035 H 0.59201 0.66436 0.64754 0.0
H1036 H 0.79522 0.79941 0.58527 0.0
H1037 H 0.76685 0.70227 0.65429 0.0
H1038 H 0.76376 0.74078 0.56437 0.0
H1039 H 0.79764 0.76156 0.67372 0.0
H1040 H 0.71741 0.60336 0.72419 0.0
H1041 H 0.81029 0.64142 0.6715 0.0
H1042 H 0.65268 0.74024 0.54179 0.0
H1043 H 0.70831 0.78609 0.62536 0.0
H1044 H 0.76244 0.59968 0.5787 0.0
H1045 H 0.6613 0.56075 0.61522 0.0
H1046 H 0.76748 0.55588 0.60884 0.0
H1047 H 0.66812 0.51762 0.64472 0.0
H1048 H 0.66853 0.60363 0.50906 0.0
H1049 H 0.71885 0.7128 0.51746 0.0
H1050 H 0.67829 0.61023 0.45261 0.0
H1051 H 0.72786 0.71749 0.46081 0.0
H1052 H 0.55595 0.57717 0.53511 0.0
H1053 H 0.5884 0.50268 0.52854 0.0
H1054 H 0.82867 0.7277 0.49409 0.0
H1055 H 0.79128 0.6197 0.48749 0.0
C1056 C 0.19376 0.36365 0.95856 0.0
C1057 C 0.15978 0.33742 0.96388 0.0
C1058 C 0.168 0.29915 0.92977 0.0
C1059 C 0.20312 0.32349 0.92805 0.0
N1060 N 0.25045 0.37874 0.94117 0.0
N1061 N 0.1133 0.28081 0.95166 0.0
C1062 C 0.21622 0.35605 0.94199 0.0
C1063 C 0.14644 0.30573 0.94843 0.0
N1064 N 0.20434 0.39576 0.96937 0.0
N1065 N 0.15525 0.26888 0.91448 0.0
H1066 H 0.09543 0.28324 0.96497 0.0
H1067 H 0.09543 0.28324 0.96497 0.0
H1068 H 0.17018 0.26318 0.90006 0.0
H1069 H 0.1296 0.25006 0.91567 0.0
H1070 H 0.22775 0.41689 0.96389 0.0
H1071 H 0.18842 0.40189 0.9818 0.0
H1072 H 0.26225 0.40102 0.95413 0.0
H1073 H 0.26765 0.37446 0.92872 0.0
C1074 C 0.69113 0.84477 0.93859 0.0
C1075 C 0.66088 0.82711 0.95637 0.0
C1076 C 0.64284 0.86724 0.94052 0.0
C1077 C 0.67421 0.8866 0.92471 0.0
N1078 N 0.72507 0.89115 0.90291 0.0
N1079 N 0.6059 0.81872 0.97156 0.0
C1080 C 0.69733 0.87432 0.92176 0.0
C1081 C 0.63595 0.83716 0.95599 0.0
N1082 N 0.71438 0.83394 0.939 0.0
N1083 N 0.61928 0.87746 0.94215 0.0
H1084 H 0.59948 0.79624 0.98334 0.0
H1085 H 0.58721 0.82572 0.97216 0.0
H1086 H 0.62194 0.89932 0.93155 0.0
H1087 H 0.62194 0.89932 0.93155 0.0
H1088 H 0.73848 0.84717 0.92912 0.0
H1089 H 0.7098 0.81167 0.95019 0.0
H1090 H 0.74212 0.88279 0.89793 0.0
H1091 H 0.72985 0.91276 0.89039 0.0
C1092 C 0.12271 0.82178 0.98668 0.0
C1093 C 0.15439 0.83983 0.97108 0.0
C1094 C 0.12749 0.81102 0.92273 0.0
C1095 C 0.09571 0.79395 0.93822 0.0
N1096 N 0.06138 0.78915 0.98255 0.0
N1097 N 0.18629 0.85707 0.92358 0.0
C1098 C 0.0928 0.80146 0.96941 0.0
C1099 C 0.15659 0.83615 0.93881 0.0
N1100 N 0.12141 0.82244 0.01817 0.0
N1101 N 0.12992 0.80248 0.893 0.0
H1102 H 0.20799 0.87572 0.93479 0.0
H1103 H 0.18867 0.85788 0.89969 0.0
H1104 H 0.10872 0.78528 0.88026 0.0
H1105 H 0.15296 0.81104 0.8815 0.0
H1106 H 0.09965 0.80658 0.03091 0.0
H1107 H 0.14278 0.83658 0.03193 0.0
H1108 H 0.05758 0.79664 0.0042 0.0
H1109 H 0.0388 0.77398 0.97066 0.0
C1110 C 0.64891 0.79908 0.57994 0.0
C1111 C 0.67919 0.79804 0.57452 0.0
C1112 C 0.69866 0.84448 0.53718 0.0
C1113 C 0.66756 0.84435 0.5414 0.0
N1114 N 0.61707 0.82836 0.57137 0.0
N1115 N 0.73654 0.82475 0.55485 0.0
C1116 C 0.64401 0.82392 0.56448 0.0
C1117 C 0.70543 0.8227 0.55558 0.0
N1118 N 0.62435 0.77528 0.59879 0.0
N1119 N 0.72069 0.86386 0.51431 0.0
H1120 H 0.742 0.80861 0.56763 0.0
H1121 H 0.7578 0.84416 0.54382 0.0
H1122 H 0.71702 0.88071 0.50073 0.0
H1123 H 0.74166 0.86193 0.50746 0.0
H1124 H 0.59999 0.77186 0.60106 0.0
H1125 H 0.62812 0.75792 0.61152 0.0
H1126 H 0.60037 0.81631 0.58962 0.0
H1127 H 0.61296 0.84636 0.56019 0.0
C1128 C 0.15177 0.81762 0.57774 0.0
C1129 C 0.16466 0.80208 0.55771 0.0
C1130 C 0.22253 0.84445 0.57172 0.0
C1131 C 0.20994 0.86508 0.58409 0.0
N1132 N 0.16232 0.86929 0.60378 0.0
N1133 N 0.20792 0.78645 0.56084 0.0
C1134 C 0.1744 0.85085 0.58907 0.0
C1135 C 0.19892 0.81092 0.56226 0.0
N1136 N 0.11946 0.79894 0.58895 0.0
N1137 N 0.25655 0.85716 0.56701 0.0
H1138 H 0.18964 0.76087 0.55745 0.0
H1139 H 0.23216 0.79102 0.56663 0.0
H1140 H 0.27503 0.88196 0.57269 0.0
H1141 H 0.266 0.84358 0.55522 0.0
H1142 H 0.10938 0.80782 0.60576 0.0
H1143 H 0.10453 0.773 0.58394 0.0
H1144 H 0.13651 0.86161 0.60484 0.0
H1145 H 0.17837 0.89292 0.61387 0.0
C1146 C 0.14816 0.32815 0.59103 0.0
C1147 C 0.1165 0.30135 0.58031 0.0
C1148 C 0.14524 0.2868 0.54037 0.0
C1149 C 0.1765 0.31558 0.54927 0.0
N1150 N 0.20997 0.35848 0.58669 0.0
N1151 N 0.08492 0.24995 0.55059 0.0
C1152 C 0.1787 0.33444 0.57604 0.0
C1153 C 0.11514 0.2787 0.55706 0.0
N1154 N 0.14857 0.34836 0.61462 0.0
N1155 N 0.14419 0.26852 0.51486 0.0
H1156 H 0.0622 0.24382 0.56175 0.0
H1157 H 0.08257 0.23073 0.53593 0.0
H1158 H 0.16599 0.27289 0.5029 0.0
H1159 H 0.12185 0.2499 0.50463 0.0
H1160 H 0.17011 0.37066 0.62162 0.0
H1161 H 0.12665 0.343 0.62694 0.0
H1162 H 0.21387 0.37172 0.60725 0.0
H1163 H 0.23258 0.36354 0.57583 0.0
C1164 C 0.79123 0.65002 0.08431 0.0
C1165 C 0.79376 0.68197 0.07875 0.0
C1166 C 0.84555 0.69975 0.04858 0.0
C1167 C 0.83819 0.66551 0.04821 0.0
N1168 N 0.8048 0.6076 0.06621 0.0
N1169 N 0.82339 0.73798 0.05572 0.0
C1170 C 0.81173 0.64059 0.06683 0.0
C1171 C 0.82147 0.70745 0.06158 0.0
N1172 N 0.76864 0.62863 0.10585 0.0
N1173 N 0.87532 0.72465 0.036 0.0
H1174 H 0.80655 0.74488 0.06513 0.0
H1175 H 0.84051 0.75576 0.04009 0.0
H1176 H 0.89333 0.71945 0.02631 0.0
H1177 H 0.8836 0.75054 0.03785 0.0
H1178 H 0.76726 0.60601 0.11283 0.0
H1179 H 0.75346 0.63533 0.11883 0.0
H1180 H 0.78336 0.58752 0.07643 0.0
H1181 H 0.81963 0.59992 0.05399 0.0
C1182 C 0.28929 0.1345 0.02733 0.0
C1183 C 0.31838 0.16674 0.0327 0.0
C1184 C 0.33426 0.14305 0.076 0.0
C1185 C 0.30915 0.10991 0.06664 0.0
N1186 N 0.2648 0.07356 0.03084 0.0
N1187 N 0.36983 0.20221 0.06125 0.0
C1188 C 0.28675 0.10541 0.04194 0.0
C1189 C 0.341 0.17137 0.05715 0.0
N1190 N 0.26425 0.13177 0.00806 0.0
N1191 N 0.35166 0.14724 0.10282 0.0
H1192 H 0.37551 0.2236 0.04802 0.0
H1193 H 0.38922 0.20605 0.07638 0.0
H1194 H 0.34702 0.12677 0.11702 0.0
H1195 H 0.36821 0.17097 0.11234 0.0
H1196 H 0.24096 0.1094 0.00549 0.0
H1197 H 0.26542 0.15281 0.99708 0.0
H1198 H 0.25101 0.06932 0.01055 0.0
H1199 H 0.26232 0.05131 0.04027 0.0
C1200 C 0.86333 0.18546 0.0868 0.0
C1201 C 0.89653 0.195 0.07633 0.0
C1202 C 0.87242 0.15413 0.03395 0.0
C1203 C 0.83999 0.14978 0.04093 0.0
N1204 N 0.80355 0.16062 0.0738 0.0
N1205 N 0.9334 0.18987 0.03899 0.0
C1206 C 0.83497 0.16474 0.06767 0.0
C1207 C 0.90133 0.17922 0.05 0.0
N1208 N 0.8592 0.19653 0.11491 0.0
N1209 N 0.87547 0.13437 0.01178 0.0
H1210 H 0.95544 0.20791 0.05011 0.0
H1211 H 0.93819 0.18251 0.01769 0.0
H1212 H 0.85459 0.11583 0.99956 0.0
H1213 H 0.89792 0.13404 0.00761 0.0
H1214 H 0.83557 0.18832 0.12515 0.0
H1215 H 0.87977 0.21171 0.12924 0.0
H1216 H 0.79904 0.17404 0.09086 0.0
H1217 H 0.7821 0.14497 0.06063 0.0
C1218 C 0.31317 0.14826 0.4355 0.0
C1219 C 0.3165 0.14988 0.46808 0.0
C1220 C 0.3092 0.19967 0.46925 0.0
C1221 C 0.31057 0.20091 0.4366 0.0
N1222 N 0.31697 0.17861 0.38821 0.0
N1223 N 0.32511 0.18147 0.51538 0.0
C1224 C 0.31325 0.17571 0.4195 0.0
C1225 C 0.31647 0.17673 0.48485 0.0
N1226 N 0.3092 0.12025 0.42004 0.0
N1227 N 0.30031 0.22 0.48537 0.0
H1228 H 0.33188 0.16602 0.5277 0.0
H1229 H 0.329 0.20286 0.5277 0.0
H1230 H 0.29411 0.23682 0.47475 0.0
H1231 H 0.29565 0.21761 0.50902 0.0
H1232 H 0.30337 0.11607 0.39668 0.0
H1233 H 0.30894 0.09973 0.43116 0.0
H1234 H 0.32271 0.1631 0.37478 0.0
H1235 H 0.31662 0.19816 0.37585 0.0
C1236 C 0.82512 0.1235 0.48803 0.0
C1237 C 0.84781 0.15475 0.4733 0.0
C1238 C 0.82227 0.13072 0.42315 0.0
C1239 C 0.80012 0.09944 0.43794 0.0
N1240 N 0.78637 0.06295 0.48242 0.0
N1241 N 0.87346 0.1862 0.42672 0.0
C1242 C 0.80366 0.09482 0.46974 0.0
C1243 C 0.84816 0.15773 0.44072 0.0
N1244 N 0.82243 0.12171 0.51948 0.0
N1245 N 0.81769 0.13493 0.3927 0.0
H1246 H 0.89285 0.20628 0.43907 0.0
H1247 H 0.87695 0.1887 0.40294 0.0
H1248 H 0.79961 0.11521 0.37908 0.0
H1249 H 0.83042 0.15829 0.38138 0.0
H1250 H 0.80347 0.1007 0.53121 0.0
H1251 H 0.83717 0.14222 0.53398 0.0
H1252 H 0.79059 0.05751 0.50475 0.0
H1253 H 0.77016 0.04129 0.46969 0.0
C1254 C 0.87044 0.67888 0.42161 0.0
C1255 C 0.90202 0.69215 0.43714 0.0
C1256 C 0.87535 0.69335 0.4858 0.0
C1257 C 0.844 0.68153 0.47012 0.0
N1258 N 0.81242 0.66843 0.42266 0.0
N1259 N 0.93657 0.71904 0.48195 0.0
C1260 C 0.84175 0.67594 0.43781 0.0
C1261 C 0.90509 0.70171 0.4686 0.0
N1262 N 0.86772 0.66814 0.39178 0.0
N1263 N 0.87639 0.69498 0.5173 0.0
H1264 H 0.95905 0.72542 0.47014 0.0
H1265 H 0.94076 0.72985 0.50383 0.0
H1266 H 0.85514 0.68887 0.53096 0.0
H1267 H 0.89763 0.69954 0.53014 0.0
H1268 H 0.84465 0.65471 0.38018 0.0
H1269 H 0.88856 0.671 0.37908 0.0
H1270 H 0.81015 0.66729 0.39876 0.0
H1271 H 0.79092 0.66587 0.43397 0.0
C1272 C 0.17576 0.35045 0.27626 0.0
C1273 C 0.20348 0.38116 0.28769 0.0
C1274 C 0.19071 0.4145 0.25109 0.0
C1275 C 0.16483 0.38368 0.23804 0.0
N1276 N 0.13339 0.32228 0.23625 0.0
N1277 N 0.23918 0.4422 0.28565 0.0
C1278 C 0.15741 0.35162 0.25021 0.0
C1279 C 0.21139 0.41319 0.27508 0.0
N1280 N 0.16679 0.32023 0.2906 0.0
N1281 N 0.19511 0.44493 0.24073 0.0
H1282 H 0.254 0.44232 0.30405 0.0
H1283 H 0.24881 0.46597 0.27532 0.0
H1284 H 0.18101 0.44676 0.22264 0.0
H1285 H 0.21105 0.46826 0.25117 0.0
H1286 H 0.14458 0.29748 0.28587 0.0
H1287 H 0.18056 0.31808 0.30882 0.0
H1288 H 0.12959 0.29821 0.24134 0.0
H1289 H 0.11814 0.32199 0.21816 0.0
C1290 C 0.58336 0.78124 0.23558 0.0
C1291 C 0.61402 0.78295 0.22568 0.0
C1292 C 0.6456 0.82293 0.2674 0.0
C1293 C 0.61544 0.82311 0.27594 0.0
N1294 N 0.55614 0.80458 0.26791 0.0
N1295 N 0.67463 0.80609 0.23035 0.0
C1296 C 0.58439 0.80273 0.26001 0.0
C1297 C 0.64522 0.80387 0.24121 0.0
N1298 N 0.55327 0.75873 0.22177 0.0
N1299 N 0.6745 0.84076 0.28463 0.0
H1300 H 0.67514 0.79106 0.21238 0.0
H1301 H 0.69886 0.8239 0.23795 0.0
H1302 H 0.6764 0.85652 0.30293 0.0
H1303 H 0.69618 0.83865 0.2821 0.0
H1304 H 0.52947 0.75346 0.22972 0.0
H1305 H 0.5518 0.74348 0.20317 0.0
H1306 H 0.53368 0.79351 0.25526 0.0
H1307 H 0.55559 0.81884 0.28655 0.0
C1308 C 0.19608 0.83757 0.23675 0.0
C1309 C 0.22296 0.83338 0.22488 0.0
C1310 C 0.20785 0.78603 0.26071 0.0
C1311 C 0.18251 0.79179 0.27386 0.0
N1312 N 0.15556 0.82595 0.27799 0.0
N1313 N 0.25786 0.80727 0.22787 0.0
C1314 C 0.17751 0.81843 0.2629 0.0
C1315 C 0.22981 0.80858 0.23751 0.0
N1316 N 0.18752 0.85902 0.2223 0.0
N1317 N 0.21033 0.75853 0.26993 0.0
H1318 H 0.27429 0.82329 0.21079 0.0
H1319 H 0.26638 0.79225 0.23829 0.0
H1320 H 0.19509 0.74195 0.28729 0.0
H1321 H 0.22569 0.75067 0.25903 0.0
H1322 H 0.16567 0.86015 0.2274 0.0
H1323 H 0.20095 0.87399 0.20348 0.0
H1324 H 0.15376 0.84753 0.27343 0.0
H1325 H 0.1408 0.812 0.2968 0.0
C1326 C 0.79974 0.58528 0.76171 0.0
C1327 C 0.82181 0.6153 0.77839 0.0
C1328 C 0.80639 0.64925 0.74509 0.0
C1329 C 0.78404 0.61916 0.7286 0.0
N1330 N 0.75723 0.55848 0.72134 0.0
N1331 N 0.84573 0.67545 0.78775 0.0
C1332 C 0.78005 0.5871 0.73699 0.0
C1333 C 0.82501 0.64721 0.77055 0.0
N1334 N 0.7981 0.55522 0.76942 0.0
N1335 N 0.81009 0.67983 0.73591 0.0
H1336 H 0.86154 0.67552 0.80519 0.0
H1337 H 0.84681 0.6988 0.78574 0.0
H1338 H 0.79528 0.68202 0.71872 0.0
H1339 H 0.8284 0.70339 0.74441 0.0
H1340 H 0.78503 0.53277 0.7569 0.0
H1341 H 0.81106 0.55277 0.78818 0.0
H1342 H 0.7506 0.53378 0.72751 0.0
H1343 H 0.7435 0.55913 0.70236 0.0
C1344 C 0.35691 0.20375 0.73976 0.0
C1345 C 0.37756 0.21015 0.76623 0.0
C1346 C 0.39763 0.17257 0.74643 0.0
C1347 C 0.37778 0.16701 0.71956 0.0
N1348 N 0.34341 0.18149 0.68766 0.0
N1349 N 0.42194 0.20605 0.7928 0.0
C1350 C 0.35894 0.18397 0.7153 0.0
C1351 C 0.39933 0.19622 0.76892 0.0
N1352 N 0.33439 0.21545 0.73858 0.0
N1353 N 0.41385 0.15436 0.75088 0.0
H1354 H 0.42359 0.22312 0.80979 0.0
H1355 H 0.44088 0.19957 0.79454 0.0
H1356 H 0.41379 0.13743 0.73453 0.0
H1357 H 0.42554 0.15425 0.77145 0.0
H1358 H 0.31572 0.20825 0.72174 0.0
H1359 H 0.3328 0.2308 0.75567 0.0
H1360 H 0.33238 0.19608 0.68184 0.0
H1361 H 0.34378 0.1667 0.6694 0.0
C1362 C 0.79242 0.16432 0.74527 0.0
C1363 C 0.79117 0.17906 0.77375 0.0
C1364 C 0.8334 0.23578 0.75492 0.0
C1365 C 0.83405 0.22111 0.72623 0.0
N1366 N 0.80921 0.17324 0.69145 0.0
N1367 N 0.80455 0.22884 0.80387 0.0
C1368 C 0.8119 0.1859 0.72057 0.0
C1369 C 0.80981 0.21489 0.77797 0.0
N1370 N 0.77628 0.12967 0.74229 0.0
N1371 N 0.85624 0.26932 0.76052 0.0
H1372 H 0.78744 0.21414 0.82115 0.0
H1373 H 0.81482 0.25492 0.80708 0.0
H1374 H 0.8734 0.2855 0.74393 0.0
H1375 H 0.85976 0.28064 0.78209 0.0
H1376 H 0.77962 0.11738 0.72347 0.0
H1377 H 0.76127 0.11295 0.75966 0.0
H1378 H 0.79102 0.14859 0.6851 0.0
H1379 H 0.82325 0.18831 0.67282 0.0
C1380 C 0.99104 0.49451 0.03512 0.0
C1381 C 0.00652 0.47736 0.02115 0.0
C1382 C -0.00125 0.49527 0.96996 0.0
C1383 C 0.98528 0.51421 0.98407 0.0
N1384 N 0.97333 0.53661 0.02991 0.0
N1385 N 0.03019 0.46538 0.97623 0.0
C1386 C 0.98276 0.51519 0.01665 0.0
C1387 C 0.01185 0.47889 0.98879 0.0
N1388 N 0.98335 0.49017 0.06587 0.0
N1389 N 0.99817 0.49227 0.93857 0.0
H1390 H 0.03996 0.45294 0.9893 0.0
H1391 H 0.03809 0.46879 0.95333 0.0
H1392 H 0.98924 0.50442 0.92406 0.0
H1393 H 0.00409 0.4758 0.92695 0.0
H1394 H 0.96854 0.49873 0.07675 0.0
H1395 H 0.98973 0.47579 0.08025 0.0
H1396 H 0.97471 0.54139 0.05348 0.0
H1397 H 0.96648 0.55173 0.01715 0.0
C1398 C 0.52062 0.52888 0.97808 0.0
C1399 C 0.51621 0.52663 0.0106 0.0
C1400 C 0.4772 0.46508 0.00698 0.0
C1401 C 0.48012 0.4676 0.97433 0.0
N1402 N 0.50209 0.50133 0.92822 0.0
N1403 N 0.48848 0.49427 0.05622 0.0
C1404 C 0.50119 0.49938 0.95971 0.0
C1405 C 0.49398 0.49516 0.02512 0.0
N1406 N 0.54385 0.55918 0.96491 0.0
N1407 N 0.45876 0.43381 0.0206 0.0
H1408 H 0.50135 0.51555 0.0704 0.0
H1409 H 0.46973 0.47312 0.0679 0.0
H1410 H 0.44508 0.41131 0.00815 0.0
H1411 H 0.45857 0.42957 0.04417 0.0
H1412 H 0.5514 0.56186 0.94195 0.0
H1413 H 0.55718 0.58178 0.97735 0.0
H1414 H 0.51355 0.52409 0.91593 0.0
H1415 H 0.4898 0.47996 0.91404 0.0
C1416 C 0.48503 0.97138 0.00283 0.0
C1417 C 0.4751 0.99388 0.01563 0.0
C1418 C 0.52681 0.04298 0.99527 0.0
C1419 C 0.53776 0.02063 0.98412 0.0
N1420 N 0.53103 0.96436 0.98272 0.0
N1421 N 0.48929 0.05091 0.02982 0.0
C1422 C 0.51796 0.98501 0.98951 0.0
C1423 C 0.49689 0.02968 0.01361 0.0
N1424 N 0.46257 0.9371 0.00235 0.0
N1425 N 0.54431 0.07669 0.98737 0.0
H1426 H 0.46768 0.04199 0.04373 0.0
H1427 H 0.50587 0.07702 0.0318 0.0
H1428 H 0.5663 0.08735 0.97385 0.0
H1429 H 0.53551 0.0935 0.99198 0.0
H1430 H 0.46692 0.91984 0.99019 0.0
H1431 H 0.43834 0.92609 0.0122 0.0
H1432 H 0.51934 0.93884 0.98918 0.0
H1433 H 0.55508 0.9734 0.97299 0.0
C1434 C 0.52824 -0.00073 0.50846 0.0
C1435 C 0.52185 0.99565 0.47626 0.0
C1436 C 0.48111 0.01576 0.48195 0.0
C1437 C 0.48473 0.01571 0.51444 0.0
N1438 N 0.50891 0.00455 0.55925 0.0
N1439 N 0.49067 0.9975 0.43216 0.0
C1440 C 0.50769 0.00687 0.52791 0.0
C1441 C 0.49794 0.00322 0.46289 0.0
N1442 N 0.5544 0.99604 0.5203 0.0
N1443 N 0.46208 0.02843 0.46938 0.0
H1444 H 0.50323 0.98921 0.41739 0.0
H1445 H 0.47075 0.99877 0.42161 0.0
H1446 H 0.44928 0.03768 0.48268 0.0
H1447 H 0.46113 0.0324 0.44587 0.0
H1448 H 0.56275 0.00191 0.54298 0.0
H1449 H 0.5697 0.99006 0.50676 0.0
H1450 H 0.5221 0.99437 0.57042 0.0
H1451 H 0.49478 0.01071 0.57424 0.0
C1452 C 0.01903 0.49995 0.52456 0.0
C1453 C 0.99392 0.46764 0.5134 0.0
C1454 C 0.99036 0.49339 0.46491 0.0
C1455 C 0.01395 0.52591 0.47681 0.0
N1456 N 0.04724 0.56138 0.51918 0.0
N1457 N 0.95215 0.43335 0.47523 0.0
C1458 C 0.02734 0.52956 0.50701 0.0
C1459 C 0.97851 0.46429 0.4842 0.0
N1460 N 0.03552 0.50218 0.55156 0.0
N1461 N 0.98004 0.49033 0.4349 0.0
H1462 H 0.94326 0.41133 0.4885 0.0
H1463 H 0.93737 0.42983 0.45577 0.0
H1464 H 0.98785 0.51123 0.4203 0.0
H1465 H 0.96578 0.4671 0.42371 0.0
H1466 H 0.05686 0.52435 0.55916 0.0
H1467 H 0.02924 0.48116 0.5656 0.0
H1468 H 0.05457 0.56582 0.5422 0.0
H1469 H 0.05458 0.58372 0.5068 0.0
C1470 C 0.50852 0.50137 0.46124 0.0
C1471 C 0.47773 0.47844 0.4764 0.0
C1472 C 0.50752 0.49018 0.52594 0.0
C1473 C 0.53764 0.51524 0.51122 0.0
N1474 N 0.56729 0.54683 0.46575 0.0
N1475 N 0.44644 0.45212 0.52298 0.0
C1476 C 0.53833 0.52134 0.47905 0.0
C1477 C 0.47685 0.47303 0.50872 0.0
N1478 N 0.50929 0.50354 0.42977 0.0
N1479 N 0.50848 0.48254 0.55629 0.0
H1480 H 0.42367 0.43813 0.51099 0.0
H1481 H 0.44315 0.45001 0.54677 0.0
H1482 H 0.53031 0.49529 0.5698 0.0
H1483 H 0.48851 0.46209 0.56767 0.0
H1484 H 0.53154 0.5169 0.41692 0.0
H1485 H 0.48767 0.49002 0.41613 0.0
H1486 H 0.56847 0.55543 0.44331 0.0
H1487 H 0.5901 0.56087 0.47772 0.0
loop_
_geom_bond_atom_site_label_1
_geom_bond_atom_site_label_2
_geom_bond_distance
_geom_bond_site_symmetry_2
_ccdc_geom_bond_type
Li0 N17 1.990 . S
Li0 O60 1.956 . S
Li0 O61 1.970 . S
Li0 O62 1.961 . S
Li1 N25 1.990 . S
Li1 O60 1.970 . S
Li1 O61 1.956 . S
Li1 O63 1.961 . S
Li2 N47 1.990 . S
Li2 O60 1.961 . S
Li2 O62 1.956 . S
Li2 O63 1.970 . S
Li3 N53 1.990 1_455 S
Li3 O61 1.961 . S
Li3 O62 1.970 . S
Li3 O63 1.956 . S
C4 C6 1.348 . S
C4 C7 1.356 . S
C4 O60 1.325 . S
N5 C8 1.314 . S
N5 C9 1.279 . S
C6 C4 1.348 . S
C6 C8 1.353 . S
C6 H64 0.929 . S
C7 C4 1.356 . S
C7 C9 1.358 . S
C7 H65 0.930 . S
C8 N5 1.314 . S
C8 C6 1.353 . S
C8 H66 0.930 . S
C9 N5 1.279 . S
C9 C7 1.358 . S
C9 H67 0.930 . S
C10 C13 1.348 . S
C10 C14 1.356 . S
C10 O61 1.325 1_655 S
C11 N12 1.279 . S
C11 C14 1.358 . S
C11 H68 0.930 . S
N12 C11 1.279 . S
N12 C15 1.314 . S
C13 C10 1.348 . S
C13 C15 1.353 . S
C13 H69 0.920 1_655 S
C14 C10 1.356 . S
C14 C11 1.358 . S
C14 H70 0.930 . S
C15 N12 1.314 . S
C15 C13 1.353 . S
C15 H71 0.930 . S
C16 N17 1.314 . S
C16 C21 1.353 . S
C16 H22 0.930 1_455 S
N17 Li0 1.990 . S
N17 C16 1.314 . S
N17 C19 1.279 . S
C18 C19 1.358 . S
C18 C20 1.356 . S
C18 H72 0.930 . S
C19 N17 1.279 . S
C19 C18 1.358 . S
C19 H23 0.930 . S
C20 C18 1.356 . S
C20 C21 1.348 . S
C21 C16 1.353 . S
C21 C20 1.348 . S
C21 H73 0.929 1_455 S
H22 C16 0.930 1_655 S
H23 C19 0.930 . S
C24 N25 1.314 . S
C24 C26 1.353 . S
C24 H30 0.930 . S
N25 Li1 1.990 . S
N25 C24 1.314 . S
N25 C28 1.279 . S
C26 C24 1.353 . S
C26 C29 1.348 . S
C26 H74 0.929 . S
C27 C28 1.358 . S
C27 C29 1.356 . S
C27 H75 0.930 . S
C28 N25 1.279 . S
C28 C27 1.358 . S
C28 H31 0.930 . S
C29 C26 1.348 . S
C29 C27 1.356 . S
H30 C24 0.930 . S
H31 C28 0.930 . S
C32 C34 1.341 1_554 S
C32 C35 1.356 1_554 S
C32 O62 1.325 . S
N33 C36 1.314 1_455 S
N33 C37 1.279 . S
C34 C32 1.341 1_556 S
C34 C36 1.377 1_455 S
C34 H76 0.914 1_456 S
C35 C32 1.356 1_556 S
C35 C37 1.358 . S
C35 H77 0.930 1_556 S
C36 N33 1.314 1_655 S
C36 C34 1.377 1_655 S
C36 H78 0.930 . S
C37 N33 1.279 . S
C37 C35 1.358 . S
C37 H79 0.930 . S
C38 C39 1.348 . S
C38 C40 1.356 . S
C38 O63 1.325 . S
C39 C38 1.348 . S
C39 C41 1.353 . S
C39 H80 0.929 . S
C40 C38 1.356 . S
C40 C42 1.358 . S
C40 H81 0.930 . S
C41 C39 1.353 . S
C41 N43 1.314 . S
C41 H82 0.930 . S
C42 C40 1.358 . S
C42 N43 1.279 . S
C42 H83 0.930 . S
N43 C41 1.314 . S
N43 C42 1.279 . S
C44 C46 1.353 . S
C44 N47 1.314 . S
C44 H50 0.930 . S
C45 N47 1.279 . S
C45 C48 1.358 1_554 S
C45 H51 0.930 1_554 S
C46 C44 1.353 . S
C46 C49 1.348 1_554 S
C46 H84 0.929 . S
N47 Li2 1.990 . S
N47 C44 1.314 . S
N47 C45 1.279 . S
C48 C45 1.358 1_556 S
C48 C49 1.356 . S
C48 H85 0.930 . S
C49 C46 1.348 1_556 S
C49 C48 1.356 . S
H50 C44 0.930 . S
H51 C45 0.930 1_556 S
C52 N53 1.314 . S
C52 C54 1.353 . S
C52 H58 0.930 . S
N53 Li3 1.990 1_655 S
N53 C52 1.314 . S
N53 C56 1.279 . S
C54 C52 1.353 . S
C54 C57 1.348 . S
C54 H86 0.929 . S
C55 C56 1.358 . S
C55 C57 1.356 . S
C55 H87 0.930 . S
C56 N53 1.279 . S
C56 C55 1.358 . S
C56 H59 0.930 . S
C57 C54 1.348 . S
C57 C55 1.356 . S
H58 C52 0.930 . S
H59 C56 0.930 . S
O60 Li0 1.956 . S
O60 Li1 1.970 . S
O60 Li2 1.961 . S
O60 C4 1.325 . S
O61 Li0 1.970 . S
O61 Li1 1.956 . S
O61 Li3 1.961 . S
O61 C10 1.325 1_455 S
O62 Li0 1.961 . S
O62 Li2 1.956 . S
O62 Li3 1.970 . S
O62 C32 1.325 . S
O63 Li1 1.961 . S
O63 Li2 1.970 . S
O63 Li3 1.956 . S
O63 C38 1.325 . S
H64 C6 0.929 . S
H65 C7 0.930 . S
H66 C8 0.930 . S
H67 C9 0.930 . S
H68 C11 0.930 . S
H69 C13 0.920 1_455 S
H70 C14 0.930 . S
H71 C15 0.930 . S
H72 C18 0.930 . S
H73 C21 0.929 1_655 S
H74 C26 0.929 . S
H75 C27 0.930 . S
H76 C34 0.914 1_654 S
H77 C35 0.930 1_554 S
H78 C36 0.930 . S
H79 C37 0.930 . S
H80 C39 0.929 . S
H81 C40 0.930 . S
H82 C41 0.930 . S
H83 C42 0.930 . S
H84 C46 0.929 . S
H85 C48 0.930 . S
H86 C54 0.929 . S
H87 C55 0.930 . S
Li88 N105 1.990 . S
Li88 O148 1.956 . S
Li88 O149 1.970 . S
Li88 O150 1.961 . S
Li89 N113 1.990 . S
Li89 O148 1.970 . S
Li89 O149 1.956 . S
Li89 O151 1.961 . S
Li90 N135 1.990 . S
Li90 O148 1.961 . S
Li90 O150 1.956 . S
Li90 O151 1.970 . S
Li91 N141 1.990 . S
Li91 O149 1.961 . S
Li91 O150 1.970 . S
Li91 O151 1.956 . S
C92 C94 1.348 . S
C92 C95 1.356 . S
C92 O148 1.325 . S
N93 C96 1.314 . S
N93 C97 1.279 . S
C94 C92 1.348 . S
C94 C96 1.353 . S
C94 H152 0.929 . S
C95 C92 1.356 . S
C95 C97 1.358 . S
C95 H153 0.930 . S
C96 N93 1.314 . S
C96 C94 1.353 . S
C96 H154 0.930 . S
C97 N93 1.279 . S
C97 C95 1.358 . S
C97 H155 0.930 . S
C98 C101 1.348 . S
C98 C102 1.356 . S
C98 O149 1.325 . S
C99 N100 1.279 . S
C99 C102 1.358 . S
C99 H156 0.930 . S
N100 C99 1.279 . S
N100 C103 1.314 . S
C101 C98 1.348 . S
C101 C103 1.353 . S
C101 H157 0.929 . S
C102 C98 1.356 . S
C102 C99 1.358 . S
C102 H158 0.930 . S
C103 N100 1.314 . S
C103 C101 1.353 . S
C103 H159 0.930 . S
C104 N105 1.314 . S
C104 C109 1.353 . S
C104 H110 0.930 . S
N105 Li88 1.990 . S
N105 C104 1.314 . S
N105 C107 1.279 . S
C106 C107 1.358 . S
C106 C108 1.356 . S
C106 H160 0.930 . S
C107 N105 1.279 . S
C107 C106 1.358 . S
C107 H111 0.930 . S
C108 C106 1.356 . S
C108 C109 1.348 . S
C109 C104 1.353 . S
C109 C108 1.348 . S
C109 H161 0.929 . S
H110 C104 0.930 . S
H111 C107 0.930 . S
C112 N113 1.314 . S
C112 C114 1.353 . S
C112 H118 0.930 . S
N113 Li89 1.990 . S
N113 C112 1.314 . S
N113 C116 1.279 . S
C114 C112 1.353 . S
C114 C117 1.348 . S
C114 H162 0.929 . S
C115 C116 1.358 . S
C115 C117 1.356 . S
C115 H163 0.930 . S
C116 N113 1.279 . S
C116 C115 1.358 . S
C116 H119 0.930 . S
C117 C114 1.348 . S
C117 C115 1.356 . S
H118 C112 0.930 . S
H119 C116 0.930 . S
C120 C122 1.348 . S
C120 C123 1.356 . S
C120 O150 1.325 . S
N121 C124 1.314 . S
N121 C125 1.279 . S
C122 C120 1.348 . S
C122 C124 1.353 . S
C122 H164 0.929 . S
C123 C120 1.356 . S
C123 C125 1.358 . S
C123 H165 0.930 . S
C124 N121 1.314 . S
C124 C122 1.353 . S
C124 H166 0.930 . S
C125 N121 1.279 . S
C125 C123 1.358 . S
C125 H167 0.930 . S
C126 C127 1.348 1_554 S
C126 C128 1.356 1_554 S
C126 O151 1.325 . S
C127 C126 1.348 1_556 S
C127 C129 1.353 . S
C127 H168 0.929 1_556 S
C128 C126 1.356 1_556 S
C128 C130 1.358 . S
C128 H169 0.930 1_556 S
C129 C127 1.353 . S
C129 N131 1.314 . S
C129 H170 0.930 . S
C130 C128 1.358 . S
C130 N131 1.279 . S
C130 H171 0.930 . S
N131 C129 1.314 . S
N131 C130 1.279 . S
C132 C134 1.353 . S
C132 N135 1.314 . S
C132 H138 0.930 . S
C133 N135 1.279 . S
C133 C136 1.358 . S
C133 H139 0.930 . S
C134 C132 1.353 . S
C134 C137 1.348 . S
C134 H172 0.929 . S
N135 Li90 1.990 . S
N135 C132 1.314 . S
N135 C133 1.279 . S
C136 C133 1.358 . S
C136 C137 1.356 . S
C136 H173 0.930 . S
C137 C134 1.348 . S
C137 C136 1.356 . S
H138 C132 0.930 . S
H139 C133 0.930 . S
C140 N141 1.314 . S
C140 C142 1.353 . S
C140 H146 0.930 . S
N141 Li91 1.990 . S
N141 C140 1.314 . S
N141 C144 1.279 . S
C142 C140 1.353 . S
C142 C145 1.348 1_554 S
C142 H174 0.929 . S
C143 C144 1.358 1_556 S
C143 C145 1.356 . S
C143 H175 0.930 . S
C144 N141 1.279 . S
C144 C143 1.358 1_554 S
C144 H147 0.930 1_554 S
C145 C142 1.348 1_556 S
C145 C143 1.356 . S
H146 C140 0.930 . S
H147 C144 0.930 1_556 S
O148 Li88 1.956 . S
O148 Li89 1.970 . S
O148 Li90 1.961 . S
O148 C92 1.325 . S
O149 Li88 1.970 . S
O149 Li89 1.956 . S
O149 Li91 1.961 . S
O149 C98 1.325 . S
O150 Li88 1.961 . S
O150 Li90 1.956 . S
O150 Li91 1.970 . S
O150 C120 1.325 . S
O151 Li89 1.961 . S
O151 Li90 1.970 . S
O151 Li91 1.956 . S
O151 C126 1.325 . S
H152 C94 0.929 . S
H153 C95 0.930 . S
H154 C96 0.930 . S
H155 C97 0.930 . S
H156 C99 0.930 . S
H157 C101 0.929 . S
H158 C102 0.930 . S
H159 C103 0.930 . S
H160 C106 0.930 . S
H161 C109 0.929 . S
H162 C114 0.929 . S
H163 C115 0.930 . S
H164 C122 0.929 . S
H165 C123 0.930 . S
H166 C124 0.930 . S
H167 C125 0.930 . S
H168 C127 0.929 1_554 S
H169 C128 0.930 1_554 S
H170 C129 0.930 . S
H171 C130 0.930 . S
H172 C134 0.929 . S
H173 C136 0.930 . S
H174 C142 0.929 . S
H175 C143 0.930 . S
Li176 N193 1.990 . S
Li176 O236 1.956 . S
Li176 O237 1.970 . S
Li176 O238 1.961 . S
Li177 N201 1.990 . S
Li177 O236 1.970 . S
Li177 O237 1.956 . S
Li177 O239 1.961 . S
Li178 N223 1.990 1_565 S
Li178 O236 1.961 . S
Li178 O238 1.956 . S
Li178 O239 1.970 . S
Li179 N229 1.990 . S
Li179 O237 1.961 . S
Li179 O238 1.970 . S
Li179 O239 1.956 . S
C180 C182 1.348 . S
C180 C183 1.356 . S
C180 O236 1.325 1_545 S
N181 C184 1.314 . S
N181 C185 1.279 . S
C182 C180 1.348 . S
C182 C184 1.353 . S
C182 H240 0.929 1_545 S
C183 C180 1.356 . S
C183 C185 1.358 . S
C183 H241 0.930 . S
C184 N181 1.314 . S
C184 C182 1.353 . S
C184 H242 0.930 . S
C185 N181 1.279 . S
C185 C183 1.358 . S
C185 H243 0.930 . S
C186 C189 1.348 . S
C186 C190 1.356 . S
C186 O237 1.325 . S
C187 N188 1.279 . S
C187 C190 1.358 . S
C187 H244 0.930 . S
N188 C187 1.279 . S
N188 C191 1.314 . S
C189 C186 1.348 . S
C189 C191 1.353 . S
C189 H245 0.929 . S
C190 C186 1.356 . S
C190 C187 1.358 . S
C190 H246 0.930 . S
C191 N188 1.314 . S
C191 C189 1.353 . S
C191 H247 0.930 . S
C192 N193 1.314 . S
C192 C197 1.353 . S
C192 H198 0.930 . S
N193 Li176 1.990 . S
N193 C192 1.314 . S
N193 C195 1.279 . S
C194 C195 1.358 . S
C194 C196 1.356 . S
C194 H248 0.930 . S
C195 N193 1.279 . S
C195 C194 1.358 . S
C195 H199 0.930 . S
C196 C194 1.356 . S
C196 C197 1.348 . S
C197 C192 1.353 . S
C197 C196 1.348 . S
C197 H249 0.929 . S
H198 C192 0.930 . S
H199 C195 0.930 . S
C200 N201 1.314 . S
C200 C202 1.353 . S
C200 H206 0.931 . S
N201 Li177 1.990 . S
N201 C200 1.314 . S
N201 C204 1.279 . S
C202 C200 1.353 . S
C202 C205 1.348 . S
C202 H250 0.929 1_565 S
C203 C204 1.358 . S
C203 C205 1.356 . S
C203 H251 0.930 . S
C204 N201 1.279 . S
C204 C203 1.358 . S
C204 H207 0.930 . S
C205 C202 1.348 . S
C205 C203 1.356 . S
H206 C200 0.931 . S
H207 C204 0.930 . S
C208 C210 1.348 . S
C208 C211 1.356 . S
C208 O238 1.325 . S
N209 C212 1.314 . S
N209 C213 1.279 . S
C210 C208 1.348 . S
C210 C212 1.353 . S
C210 H252 0.929 . S
C211 C208 1.356 . S
C211 C213 1.358 . S
C211 H253 0.930 . S
C212 N209 1.314 . S
C212 C210 1.353 . S
C212 H254 0.930 . S
C213 N209 1.279 . S
C213 C211 1.358 . S
C213 H255 0.930 . S
C214 C215 1.377 1_554 S
C214 C216 1.356 1_554 S
C214 O239 1.325 . S
C215 C214 1.377 1_556 S
C215 C217 1.351 1_565 S
C215 H256 0.902 1_566 S
C216 C214 1.356 1_556 S
C216 C218 1.358 . S
C216 H257 0.930 1_556 S
C217 C215 1.351 1_545 S
C217 N219 1.314 1_545 S
C217 H258 0.930 . S
C218 C216 1.358 . S
C218 N219 1.279 . S
C218 H259 0.930 . S
N219 C217 1.314 1_565 S
N219 C218 1.279 . S
C220 C222 1.353 . S
C220 N223 1.314 . S
C220 H226 0.930 . S
C221 N223 1.279 . S
C221 C224 1.358 . S
C221 H227 0.930 . S
C222 C220 1.353 . S
C222 C225 1.348 . S
C222 H260 0.929 . S
N223 Li178 1.990 1_545 S
N223 C220 1.314 . S
N223 C221 1.279 . S
C224 C221 1.358 . S
C224 C225 1.356 . S
C224 H261 0.930 . S
C225 C222 1.348 . S
C225 C224 1.356 . S
H226 C220 0.930 . S
H227 C221 0.930 . S
C228 N229 1.314 . S
C228 C230 1.353 . S
C228 H234 0.930 . S
N229 Li179 1.990 . S
N229 C228 1.314 . S
N229 C232 1.279 . S
C230 C228 1.353 . S
C230 C233 1.348 1_554 S
C230 H262 0.929 . S
C231 C232 1.358 1_556 S
C231 C233 1.356 . S
C231 H263 0.930 . S
C232 N229 1.279 . S
C232 C231 1.358 1_554 S
C232 H235 0.930 1_554 S
C233 C230 1.348 1_556 S
C233 C231 1.356 . S
H234 C228 0.930 . S
H235 C232 0.930 1_556 S
O236 Li176 1.956 . S
O236 Li177 1.970 . S
O236 Li178 1.961 . S
O236 C180 1.325 1_565 S
O237 Li176 1.970 . S
O237 Li177 1.956 . S
O237 Li179 1.961 . S
O237 C186 1.325 . S
O238 Li176 1.961 . S
O238 Li178 1.956 . S
O238 Li179 1.970 . S
O238 C208 1.325 . S
O239 Li177 1.961 . S
O239 Li178 1.970 . S
O239 Li179 1.956 . S
O239 C214 1.325 . S
H240 C182 0.929 1_565 S
H241 C183 0.930 . S
H242 C184 0.930 . S
H243 C185 0.930 . S
H244 C187 0.930 . S
H245 C189 0.929 . S
H246 C190 0.930 . S
H247 C191 0.930 . S
H248 C194 0.930 . S
H249 C197 0.929 . S
H250 C202 0.929 1_545 S
H251 C203 0.930 . S
H252 C210 0.929 . S
H253 C211 0.930 . S
H254 C212 0.930 . S
H255 C213 0.930 . S
H256 C215 0.902 1_544 S
H257 C216 0.930 1_554 S
H258 C217 0.930 . S
H259 C218 0.930 . S
H260 C222 0.929 . S
H261 C224 0.930 . S
H262 C230 0.929 . S
H263 C231 0.930 . S
Li264 N281 1.990 . S
Li264 O324 1.956 . S
Li264 O325 1.970 . S
Li264 O326 1.961 . S
Li265 N289 1.990 1_565 S
Li265 O324 1.970 . S
Li265 O325 1.956 . S
Li265 O327 1.961 . S
Li266 N311 1.990 . S
Li266 O324 1.961 . S
Li266 O326 1.956 . S
Li266 O327 1.970 . S
Li267 N317 1.990 . S
Li267 O325 1.961 . S
Li267 O326 1.970 . S
Li267 O327 1.956 . S
C268 C270 1.358 . S
C268 C271 1.356 . S
C268 O324 1.325 . S
N269 C272 1.314 1_565 S
N269 C273 1.279 . S
C270 C268 1.358 . S
C270 C272 1.346 1_565 S
C270 H328 0.928 1_565 S
C271 C268 1.356 . S
C271 C273 1.358 . S
C271 H329 0.930 . S
C272 N269 1.314 1_545 S
C272 C270 1.346 1_545 S
C272 H330 0.930 . S
C273 N269 1.279 . S
C273 C271 1.358 . S
C273 H331 0.930 . S
C274 C277 1.348 . S
C274 C278 1.356 . S
C274 O325 1.325 . S
C275 N276 1.279 . S
C275 C278 1.358 . S
C275 H332 0.930 . S
N276 C275 1.279 . S
N276 C279 1.314 . S
C277 C274 1.348 . S
C277 C279 1.353 . S
C277 H333 0.929 . S
C278 C274 1.356 . S
C278 C275 1.358 . S
C278 H334 0.930 . S
C279 N276 1.314 . S
C279 C277 1.353 . S
C279 H335 0.930 . S
C280 N281 1.314 . S
C280 C285 1.353 . S
C280 H286 0.930 . S
N281 Li264 1.990 . S
N281 C280 1.314 . S
N281 C283 1.279 . S
C282 C283 1.358 . S
C282 C284 1.356 . S
C282 H336 0.930 . S
C283 N281 1.279 . S
C283 C282 1.358 . S
C283 H287 0.930 . S
C284 C282 1.356 . S
C284 C285 1.348 . S
C285 C280 1.353 . S
C285 C284 1.348 . S
C285 H337 0.929 . S
H286 C280 0.930 . S
H287 C283 0.930 . S
C288 N289 1.314 . S
C288 C290 1.353 . S
C288 H294 0.930 . S
N289 Li265 1.990 1_545 S
N289 C288 1.314 . S
N289 C292 1.279 . S
C290 C288 1.353 . S
C290 C293 1.348 . S
C290 H338 0.929 . S
C291 C292 1.358 . S
C291 C293 1.356 . S
C291 H339 0.930 . S
C292 N289 1.279 . S
C292 C291 1.358 . S
C292 H295 0.930 . S
C293 C290 1.348 . S
C293 C291 1.356 . S
H294 C288 0.930 . S
H295 C292 0.930 . S
C296 C298 1.348 . S
C296 C299 1.356 . S
C296 O326 1.325 . S
N297 C300 1.314 . S
N297 C301 1.279 . S
C298 C296 1.348 . S
C298 C300 1.353 . S
C298 H340 0.929 . S
C299 C296 1.356 . S
C299 C301 1.358 . S
C299 H341 0.930 . S
C300 N297 1.314 . S
C300 C298 1.353 . S
C300 H342 0.930 . S
C301 N297 1.279 . S
C301 C299 1.358 . S
C301 H343 0.930 . S
C302 C303 1.348 . S
C302 C304 1.356 . S
C302 O327 1.325 1_545 S
C303 C302 1.348 . S
C303 C305 1.353 . S
C303 H344 0.929 1_545 S
C304 C302 1.356 . S
C304 C306 1.358 . S
C304 H345 0.930 . S
C305 C303 1.353 . S
C305 N307 1.314 . S
C305 H346 0.930 . S
C306 C304 1.358 . S
C306 N307 1.279 . S
C306 H347 0.930 . S
N307 C305 1.314 . S
N307 C306 1.279 . S
C308 C310 1.353 . S
C308 N311 1.314 . S
C308 H314 0.930 . S
C309 N311 1.279 . S
C309 C312 1.358 . S
C309 H315 0.930 . S
C310 C308 1.353 . S
C310 C313 1.348 . S
C310 H348 0.929 1_565 S
N311 Li266 1.990 . S
N311 C308 1.314 . S
N311 C309 1.279 . S
C312 C309 1.358 . S
C312 C313 1.356 . S
C312 H349 0.930 . S
C313 C310 1.348 . S
C313 C312 1.356 . S
H314 C308 0.930 . S
H315 C309 0.930 . S
C316 N317 1.314 . S
C316 C318 1.353 . S
C316 H322 0.930 . S
N317 Li267 1.990 . S
N317 C316 1.314 . S
N317 C320 1.279 . S
C318 C316 1.353 . S
C318 C321 1.348 . S
C318 H350 0.929 . S
C319 C320 1.358 . S
C319 C321 1.356 . S
C319 H351 0.930 . S
C320 N317 1.279 . S
C320 C319 1.358 . S
C320 H323 0.930 . S
C321 C318 1.348 . S
C321 C319 1.356 . S
H322 C316 0.930 . S
H323 C320 0.930 . S
O324 Li264 1.956 . S
O324 Li265 1.970 . S
O324 Li266 1.961 . S
O324 C268 1.325 . S
O325 Li264 1.970 . S
O325 Li265 1.956 . S
O325 Li267 1.961 . S
O325 C274 1.325 . S
O326 Li264 1.961 . S
O326 Li266 1.956 . S
O326 Li267 1.970 . S
O326 C296 1.325 . S
O327 Li265 1.961 . S
O327 Li266 1.970 . S
O327 Li267 1.956 . S
O327 C302 1.325 1_565 S
H328 C270 0.928 1_545 S
H329 C271 0.930 . S
H330 C272 0.930 . S
H331 C273 0.930 . S
H332 C275 0.930 . S
H333 C277 0.929 . S
H334 C278 0.930 . S
H335 C279 0.930 . S
H336 C282 0.930 . S
H337 C285 0.929 . S
H338 C290 0.929 . S
H339 C291 0.930 . S
H340 C298 0.929 . S
H341 C299 0.930 . S
H342 C300 0.930 . S
H343 C301 0.930 . S
H344 C303 0.929 1_565 S
H345 C304 0.930 . S
H346 C305 0.930 . S
H347 C306 0.930 . S
H348 C310 0.929 1_545 S
H349 C312 0.930 . S
H350 C318 0.929 . S
H351 C319 0.930 . S
Li352 N369 1.990 . S
Li352 O412 1.956 . S
Li352 O413 1.970 . S
Li352 O414 1.961 . S
Li353 N377 1.990 1_455 S
Li353 O412 1.970 . S
Li353 O413 1.956 . S
Li353 O415 1.961 . S
Li354 N399 1.990 . S
Li354 O412 1.961 . S
Li354 O414 1.956 . S
Li354 O415 1.970 . S
Li355 N405 1.990 . S
Li355 O413 1.961 . S
Li355 O414 1.970 . S
Li355 O415 1.956 . S
C356 C358 1.351 . S
C356 C359 1.356 . S
C356 O412 1.325 . S
N357 C360 1.314 1_455 S
N357 C361 1.279 . S
C358 C356 1.351 . S
C358 C360 1.353 1_455 S
C358 H416 0.926 1_455 S
C359 C356 1.356 . S
C359 C361 1.358 . S
C359 H417 0.930 . S
C360 N357 1.314 1_655 S
C360 C358 1.353 1_655 S
C360 H418 0.930 . S
C361 N357 1.279 . S
C361 C359 1.358 . S
C361 H419 0.930 . S
C362 C365 1.348 . S
C362 C366 1.356 . S
C362 O413 1.325 . S
C363 N364 1.279 . S
C363 C366 1.358 . S
C363 H420 0.930 . S
N364 C363 1.279 . S
N364 C367 1.314 . S
C365 C362 1.348 . S
C365 C367 1.353 . S
C365 H421 0.929 . S
C366 C362 1.356 . S
C366 C363 1.358 . S
C366 H422 0.930 . S
C367 N364 1.314 . S
C367 C365 1.353 . S
C367 H423 0.930 . S
C368 N369 1.314 . S
C368 C373 1.353 . S
C368 H374 0.930 . S
N369 Li352 1.990 . S
N369 C368 1.314 . S
N369 C371 1.279 . S
C370 C371 1.358 . S
C370 C372 1.356 . S
C370 H424 0.930 . S
C371 N369 1.279 . S
C371 C370 1.358 . S
C371 H375 0.930 . S
C372 C370 1.356 . S
C372 C373 1.348 . S
C373 C368 1.353 . S
C373 C372 1.348 . S
C373 H425 0.929 . S
H374 C368 0.930 . S
H375 C371 0.930 . S
C376 N377 1.314 . S
C376 C378 1.353 . S
C376 H382 0.930 . S
N377 Li353 1.990 1_655 S
N377 C376 1.314 . S
N377 C380 1.279 . S
C378 C376 1.353 . S
C378 C381 1.348 . S
C378 H426 0.929 . S
C379 C380 1.358 . S
C379 C381 1.356 . S
C379 H427 0.930 . S
C380 N377 1.279 . S
C380 C379 1.358 . S
C380 H383 0.930 . S
C381 C378 1.348 . S
C381 C379 1.356 . S
H382 C376 0.930 . S
H383 C380 0.930 . S
C384 C386 1.348 . S
C384 C387 1.356 . S
C384 O414 1.325 . S
N385 C388 1.314 . S
N385 C389 1.279 . S
C386 C384 1.348 . S
C386 C388 1.353 . S
C386 H428 0.929 . S
C387 C384 1.356 . S
C387 C389 1.358 . S
C387 H429 0.930 . S
C388 N385 1.314 . S
C388 C386 1.353 . S
C388 H430 0.930 . S
C389 N385 1.279 . S
C389 C387 1.358 . S
C389 H431 0.930 . S
C390 C391 1.348 . S
C390 C392 1.356 . S
C390 O415 1.325 1_655 S
C391 C390 1.348 . S
C391 C393 1.353 . S
C391 H432 0.917 1_655 S
C392 C390 1.356 . S
C392 C394 1.358 . S
C392 H433 0.930 . S
C393 C391 1.353 . S
C393 N395 1.314 . S
C393 H434 0.930 . S
C394 C392 1.358 . S
C394 N395 1.279 . S
C394 H435 0.930 . S
N395 C393 1.314 . S
N395 C394 1.279 . S
C396 C398 1.353 . S
C396 N399 1.314 . S
C396 H402 0.910 1_455 S
C397 N399 1.279 . S
C397 C400 1.358 . S
C397 H403 0.930 . S
C398 C396 1.353 . S
C398 C401 1.348 . S
C398 H436 0.929 1_455 S
N399 Li354 1.990 . S
N399 C396 1.314 . S
N399 C397 1.279 . S
C400 C397 1.358 . S
C400 C401 1.356 . S
C400 H437 0.930 . S
C401 C398 1.348 . S
C401 C400 1.356 . S
H402 C396 0.910 1_655 S
H403 C397 0.930 . S
C404 N405 1.314 . S
C404 C406 1.353 . S
C404 H410 0.930 . S
N405 Li355 1.990 . S
N405 C404 1.314 . S
N405 C408 1.279 . S
C406 C404 1.353 . S
C406 C409 1.348 . S
C406 H438 0.929 . S
C407 C408 1.358 . S
C407 C409 1.356 . S
C407 H439 0.930 . S
C408 N405 1.279 . S
C408 C407 1.358 . S
C408 H411 0.930 . S
C409 C406 1.348 . S
C409 C407 1.356 . S
H410 C404 0.930 . S
H411 C408 0.930 . S
O412 Li352 1.956 . S
O412 Li353 1.970 . S
O412 Li354 1.961 . S
O412 C356 1.325 . S
O413 Li352 1.970 . S
O413 Li353 1.956 . S
O413 Li355 1.961 . S
O413 C362 1.325 . S
O414 Li352 1.961 . S
O414 Li354 1.956 . S
O414 Li355 1.970 . S
O414 C384 1.325 . S
O415 Li353 1.961 . S
O415 Li354 1.970 . S
O415 Li355 1.956 . S
O415 C390 1.325 1_455 S
H416 C358 0.926 1_655 S
H417 C359 0.930 . S
H418 C360 0.930 . S
H419 C361 0.930 . S
H420 C363 0.930 . S
H421 C365 0.929 . S
H422 C366 0.930 . S
H423 C367 0.930 . S
H424 C370 0.930 . S
H425 C373 0.929 . S
H426 C378 0.929 . S
H427 C379 0.930 . S
H428 C386 0.929 . S
H429 C387 0.930 . S
H430 C388 0.930 . S
H431 C389 0.930 . S
H432 C391 0.917 1_455 S
H433 C392 0.930 . S
H434 C393 0.930 . S
H435 C394 0.930 . S
H436 C398 0.929 1_655 S
H437 C400 0.930 . S
H438 C406 0.929 . S
H439 C407 0.930 . S
Li440 N457 1.990 . S
Li440 O500 1.956 . S
Li440 O501 1.970 . S
Li440 O502 1.961 . S
Li441 N465 1.990 . S
Li441 O500 1.970 . S
Li441 O501 1.956 . S
Li441 O503 1.961 . S
Li442 N487 1.990 . S
Li442 O500 1.961 . S
Li442 O502 1.956 . S
Li442 O503 1.970 . S
Li443 N493 1.990 . S
Li443 O501 1.961 . S
Li443 O502 1.970 . S
Li443 O503 1.956 . S
C444 C446 1.348 . S
C444 C447 1.356 . S
C444 O500 1.325 . S
N445 C448 1.314 . S
N445 C449 1.279 . S
C446 C444 1.348 . S
C446 C448 1.353 . S
C446 H504 0.929 . S
C447 C444 1.356 . S
C447 C449 1.358 . S
C447 H505 0.930 . S
C448 N445 1.314 . S
C448 C446 1.353 . S
C448 H506 0.930 . S
C449 N445 1.279 . S
C449 C447 1.358 . S
C449 H507 0.930 . S
C450 C453 1.348 . S
C450 C454 1.356 . S
C450 O501 1.325 . S
C451 N452 1.279 . S
C451 C454 1.358 . S
C451 H508 0.930 . S
N452 C451 1.279 . S
N452 C455 1.314 . S
C453 C450 1.348 . S
C453 C455 1.353 . S
C453 H509 0.929 . S
C454 C450 1.356 . S
C454 C451 1.358 . S
C454 H510 0.930 . S
C455 N452 1.314 . S
C455 C453 1.353 . S
C455 H511 0.930 . S
C456 N457 1.314 . S
C456 C461 1.353 . S
C456 H462 0.930 . S
N457 Li440 1.990 . S
N457 C456 1.314 . S
N457 C459 1.279 . S
C458 C459 1.358 . S
C458 C460 1.356 . S
C458 H512 0.930 . S
C459 N457 1.279 . S
C459 C458 1.358 . S
C459 H463 0.930 . S
C460 C458 1.356 . S
C460 C461 1.348 . S
C461 C456 1.353 . S
C461 C460 1.348 . S
C461 H513 0.929 . S
H462 C456 0.930 . S
H463 C459 0.930 . S
C464 N465 1.314 . S
C464 C466 1.353 . S
C464 H470 0.930 . S
N465 Li441 1.990 . S
N465 C464 1.314 . S
N465 C468 1.279 . S
C466 C464 1.353 . S
C466 C469 1.348 . S
C466 H514 0.929 . S
C467 C468 1.358 . S
C467 C469 1.356 . S
C467 H515 0.930 . S
C468 N465 1.279 . S
C468 C467 1.358 . S
C468 H471 0.930 . S
C469 C466 1.348 . S
C469 C467 1.356 . S
H470 C464 0.930 . S
H471 C468 0.930 . S
C472 C474 1.348 . S
C472 C475 1.356 . S
C472 O502 1.325 . S
N473 C476 1.314 . S
N473 C477 1.279 . S
C474 C472 1.348 . S
C474 C476 1.353 . S
C474 H516 0.929 . S
C475 C472 1.356 . S
C475 C477 1.358 . S
C475 H517 0.930 . S
C476 N473 1.314 . S
C476 C474 1.353 . S
C476 H518 0.930 . S
C477 N473 1.279 . S
C477 C475 1.358 . S
C477 H519 0.930 . S
C478 C479 1.348 . S
C478 C480 1.356 . S
C478 O503 1.325 . S
C479 C478 1.348 . S
C479 C481 1.353 . S
C479 H520 0.929 . S
C480 C478 1.356 . S
C480 C482 1.358 . S
C480 H521 0.930 . S
C481 C479 1.353 . S
C481 N483 1.314 . S
C481 H522 0.930 . S
C482 C480 1.358 . S
C482 N483 1.279 . S
C482 H523 0.930 . S
N483 C481 1.314 . S
N483 C482 1.279 . S
C484 C486 1.353 . S
C484 N487 1.314 . S
C484 H490 0.930 . S
C485 N487 1.279 . S
C485 C488 1.358 . S
C485 H491 0.930 . S
C486 C484 1.353 . S
C486 C489 1.348 . S
C486 H524 0.929 . S
N487 Li442 1.990 . S
N487 C484 1.314 . S
N487 C485 1.279 . S
C488 C485 1.358 . S
C488 C489 1.356 . S
C488 H525 0.930 . S
C489 C486 1.348 . S
C489 C488 1.356 . S
H490 C484 0.930 . S
H491 C485 0.930 . S
C492 N493 1.314 . S
C492 C494 1.353 . S
C492 H498 0.930 . S
N493 Li443 1.990 . S
N493 C492 1.314 . S
N493 C496 1.279 . S
C494 C492 1.353 . S
C494 C497 1.348 . S
C494 H526 0.929 . S
C495 C496 1.358 . S
C495 C497 1.356 . S
C495 H527 0.930 . S
C496 N493 1.279 . S
C496 C495 1.358 . S
C496 H499 0.930 . S
C497 C494 1.348 . S
C497 C495 1.356 . S
H498 C492 0.930 . S
H499 C496 0.930 . S
O500 Li440 1.956 . S
O500 Li441 1.970 . S
O500 Li442 1.961 . S
O500 C444 1.325 . S
O501 Li440 1.970 . S
O501 Li441 1.956 . S
O501 Li443 1.961 . S
O501 C450 1.325 . S
O502 Li440 1.961 . S
O502 Li442 1.956 . S
O502 Li443 1.970 . S
O502 C472 1.325 . S
O503 Li441 1.961 . S
O503 Li442 1.970 . S
O503 Li443 1.956 . S
O503 C478 1.325 . S
H504 C446 0.929 . S
H505 C447 0.930 . S
H506 C448 0.930 . S
H507 C449 0.930 . S
H508 C451 0.930 . S
H509 C453 0.929 . S
H510 C454 0.930 . S
H511 C455 0.930 . S
H512 C458 0.930 . S
H513 C461 0.929 . S
H514 C466 0.929 . S
H515 C467 0.930 . S
H516 C474 0.929 . S
H517 C475 0.930 . S
H518 C476 0.930 . S
H519 C477 0.930 . S
H520 C479 0.929 . S
H521 C480 0.930 . S
H522 C481 0.930 . S
H523 C482 0.930 . S
H524 C486 0.929 . S
H525 C488 0.930 . S
H526 C494 0.929 . S
H527 C495 0.930 . S
Li528 N545 1.990 . S
Li528 O588 1.956 . S
Li528 O589 1.970 . S
Li528 O590 1.961 . S
Li529 N553 1.990 . S
Li529 O588 1.970 . S
Li529 O589 1.956 . S
Li529 O591 1.961 . S
Li530 N575 1.990 1_655 S
Li530 O588 1.961 . S
Li530 O590 1.956 . S
Li530 O591 1.970 . S
Li531 N581 1.990 . S
Li531 O589 1.961 . S
Li531 O590 1.970 . S
Li531 O591 1.956 . S
C532 C534 1.348 1_556 S
C532 C535 1.356 1_556 S
C532 O588 1.325 . S
N533 C536 1.314 . S
N533 C537 1.279 . S
C534 C532 1.348 1_554 S
C534 C536 1.353 . S
C534 H592 0.929 1_554 S
C535 C532 1.356 1_554 S
C535 C537 1.358 . S
C535 H593 0.930 1_554 S
C536 N533 1.314 . S
C536 C534 1.353 . S
C536 H594 0.930 . S
C537 N533 1.279 . S
C537 C535 1.358 . S
C537 H595 0.930 1_655 S
C538 C541 1.348 . S
C538 C542 1.356 . S
C538 O589 1.325 . S
C539 N540 1.279 . S
C539 C542 1.358 . S
C539 H596 0.930 . S
N540 C539 1.279 . S
N540 C543 1.314 . S
C541 C538 1.348 . S
C541 C543 1.353 . S
C541 H597 0.929 . S
C542 C538 1.356 . S
C542 C539 1.358 . S
C542 H598 0.930 . S
C543 N540 1.314 . S
C543 C541 1.353 . S
C543 H599 0.930 . S
C544 N545 1.314 . S
C544 C549 1.353 . S
C544 H550 0.930 . S
N545 Li528 1.990 . S
N545 C544 1.314 . S
N545 C547 1.279 . S
C546 C547 1.358 1_554 S
C546 C548 1.356 . S
C546 H600 0.930 . S
C547 N545 1.279 . S
C547 C546 1.358 1_556 S
C547 H551 0.930 1_556 S
C548 C546 1.356 . S
C548 C549 1.348 1_554 S
C549 C544 1.353 . S
C549 C548 1.348 1_556 S
C549 H601 0.929 . S
H550 C544 0.930 . S
H551 C547 0.930 1_554 S
C552 N553 1.314 . S
C552 C554 1.353 . S
C552 H558 0.930 1_655 S
N553 Li529 1.990 . S
N553 C552 1.314 . S
N553 C556 1.279 . S
C554 C552 1.353 . S
C554 C557 1.348 . S
C554 H602 0.929 1_655 S
C555 C556 1.358 . S
C555 C557 1.356 . S
C555 H603 0.930 . S
C556 N553 1.279 . S
C556 C555 1.358 . S
C556 H559 0.930 . S
C557 C554 1.348 . S
C557 C555 1.356 . S
H558 C552 0.930 1_455 S
H559 C556 0.930 . S
C560 C562 1.348 . S
C560 C563 1.356 . S
C560 O590 1.325 . S
N561 C564 1.314 . S
N561 C565 1.279 . S
C562 C560 1.348 . S
C562 C564 1.353 . S
C562 H604 0.929 . S
C563 C560 1.356 . S
C563 C565 1.358 . S
C563 H605 0.930 . S
C564 N561 1.314 . S
C564 C562 1.353 . S
C564 H606 0.930 . S
C565 N561 1.279 . S
C565 C563 1.358 . S
C565 H607 0.930 . S
C566 C567 1.348 . S
C566 C568 1.356 . S
C566 O591 1.325 1_455 S
C567 C566 1.348 . S
C567 C569 1.353 . S
C567 H608 0.929 . S
C568 C566 1.356 . S
C568 C570 1.358 . S
C568 H609 0.930 1_455 S
C569 C567 1.353 . S
C569 N571 1.314 . S
C569 H610 0.930 . S
C570 C568 1.358 . S
C570 N571 1.279 . S
C570 H611 0.930 . S
N571 C569 1.314 . S
N571 C570 1.279 . S
C572 C574 1.353 . S
C572 N575 1.314 . S
C572 H578 0.930 . S
C573 N575 1.279 . S
C573 C576 1.358 . S
C573 H579 0.930 . S
C574 C572 1.353 . S
C574 C577 1.348 . S
C574 H612 0.929 . S
N575 Li530 1.990 1_455 S
N575 C572 1.314 . S
N575 C573 1.279 . S
C576 C573 1.358 . S
C576 C577 1.356 . S
C576 H613 0.930 . S
C577 C574 1.348 . S
C577 C576 1.356 . S
H578 C572 0.930 . S
H579 C573 0.930 . S
C580 N581 1.314 . S
C580 C582 1.353 . S
C580 H586 0.930 . S
N581 Li531 1.990 . S
N581 C580 1.314 . S
N581 C584 1.279 . S
C582 C580 1.353 . S
C582 C585 1.348 . S
C582 H614 0.929 . S
C583 C584 1.358 . S
C583 C585 1.356 . S
C583 H615 0.930 . S
C584 N581 1.279 . S
C584 C583 1.358 . S
C584 H587 0.930 . S
C585 C582 1.348 . S
C585 C583 1.356 . S
H586 C580 0.930 . S
H587 C584 0.930 . S
O588 Li528 1.956 . S
O588 Li529 1.970 . S
O588 Li530 1.961 . S
O588 C532 1.325 . S
O589 Li528 1.970 . S
O589 Li529 1.956 . S
O589 Li531 1.961 . S
O589 C538 1.325 . S
O590 Li528 1.961 . S
O590 Li530 1.956 . S
O590 Li531 1.970 . S
O590 C560 1.325 . S
O591 Li529 1.961 . S
O591 Li530 1.970 . S
O591 Li531 1.956 . S
O591 C566 1.325 1_655 S
H592 C534 0.929 1_556 S
H593 C535 0.930 1_556 S
H594 C536 0.930 . S
H595 C537 0.930 1_455 S
H596 C539 0.930 . S
H597 C541 0.929 . S
H598 C542 0.930 . S
H599 C543 0.930 . S
H600 C546 0.930 . S
H601 C549 0.929 . S
H602 C554 0.929 1_455 S
H603 C555 0.930 . S
H604 C562 0.929 . S
H605 C563 0.930 . S
H606 C564 0.930 . S
H607 C565 0.930 . S
H608 C567 0.929 . S
H609 C568 0.930 1_655 S
H610 C569 0.930 . S
H611 C570 0.930 . S
H612 C574 0.929 . S
H613 C576 0.930 . S
H614 C582 0.929 . S
H615 C583 0.930 . S
Li616 N633 1.990 . S
Li616 O676 1.956 . S
Li616 O677 1.970 . S
Li616 O678 1.961 . S
Li617 N641 1.990 . S
Li617 O676 1.970 . S
Li617 O677 1.956 . S
Li617 O679 1.961 . S
Li618 N663 1.990 . S
Li618 O676 1.961 . S
Li618 O678 1.956 . S
Li618 O679 1.970 . S
Li619 N669 1.990 . S
Li619 O677 1.961 . S
Li619 O678 1.970 . S
Li619 O679 1.956 . S
C620 C622 1.348 . S
C620 C623 1.356 . S
C620 O676 1.325 . S
N621 C624 1.314 . S
N621 C625 1.279 . S
C622 C620 1.348 . S
C622 C624 1.353 . S
C622 H680 0.929 . S
C623 C620 1.356 . S
C623 C625 1.358 . S
C623 H681 0.930 . S
C624 N621 1.314 . S
C624 C622 1.353 . S
C624 H682 0.930 . S
C625 N621 1.279 . S
C625 C623 1.358 . S
C625 H683 0.930 . S
C626 C629 1.348 . S
C626 C630 1.356 1_556 S
C626 O677 1.325 . S
C627 N628 1.279 . S
C627 C630 1.358 . S
C627 H684 0.930 . S
N628 C627 1.279 . S
N628 C631 1.314 . S
C629 C626 1.348 . S
C629 C631 1.353 1_556 S
C629 H685 0.929 . S
C630 C626 1.356 1_554 S
C630 C627 1.358 . S
C630 H686 0.941 . S
C631 N628 1.314 . S
C631 C629 1.353 1_554 S
C631 H687 0.930 . S
C632 N633 1.314 . S
C632 C637 1.353 . S
C632 H638 0.930 . S
N633 Li616 1.990 . S
N633 C632 1.314 . S
N633 C635 1.279 . S
C634 C635 1.358 . S
C634 C636 1.356 . S
C634 H688 0.930 . S
C635 N633 1.279 . S
C635 C634 1.358 . S
C635 H639 0.930 . S
C636 C634 1.356 . S
C636 C637 1.348 . S
C637 C632 1.353 . S
C637 C636 1.348 . S
C637 H689 0.929 . S
H638 C632 0.930 . S
H639 C635 0.930 . S
C640 N641 1.314 . S
C640 C642 1.353 . S
C640 H646 0.930 . S
N641 Li617 1.990 . S
N641 C640 1.314 . S
N641 C644 1.279 . S
C642 C640 1.353 . S
C642 C645 1.348 . S
C642 H690 0.929 . S
C643 C644 1.358 . S
C643 C645 1.356 . S
C643 H691 0.930 . S
C644 N641 1.279 . S
C644 C643 1.358 . S
C644 H647 0.930 . S
C645 C642 1.348 . S
C645 C643 1.356 . S
H646 C640 0.930 . S
H647 C644 0.930 . S
C648 C650 1.348 . S
C648 C651 1.356 . S
C648 O678 1.325 . S
N649 C652 1.314 . S
N649 C653 1.279 . S
C650 C648 1.348 . S
C650 C652 1.353 . S
C650 H692 0.929 . S
C651 C648 1.356 . S
C651 C653 1.358 . S
C651 H693 0.930 . S
C652 N649 1.314 . S
C652 C650 1.353 . S
C652 H694 0.930 . S
C653 N649 1.279 . S
C653 C651 1.358 . S
C653 H695 0.930 . S
C654 C655 1.348 . S
C654 C656 1.356 . S
C654 O679 1.325 . S
C655 C654 1.348 . S
C655 C657 1.353 . S
C655 H696 0.929 . S
C656 C654 1.356 . S
C656 C658 1.358 . S
C656 H697 0.930 . S
C657 C655 1.353 . S
C657 N659 1.314 . S
C657 H698 0.930 . S
C658 C656 1.358 . S
C658 N659 1.279 . S
C658 H699 0.930 . S
N659 C657 1.314 . S
N659 C658 1.279 . S
C660 C662 1.353 . S
C660 N663 1.314 . S
C660 H666 0.930 . S
C661 N663 1.279 . S
C661 C664 1.358 . S
C661 H667 0.930 . S
C662 C660 1.353 . S
C662 C665 1.348 . S
C662 H700 0.929 . S
N663 Li618 1.990 . S
N663 C660 1.314 . S
N663 C661 1.279 . S
C664 C661 1.358 . S
C664 C665 1.356 . S
C664 H701 0.930 . S
C665 C662 1.348 . S
C665 C664 1.356 . S
H666 C660 0.930 . S
H667 C661 0.930 . S
C668 N669 1.314 . S
C668 C670 1.353 1_556 S
C668 H674 0.930 . S
N669 Li619 1.990 . S
N669 C668 1.314 . S
N669 C672 1.279 . S
C670 C668 1.353 1_554 S
C670 C673 1.348 . S
C670 H702 0.929 . S
C671 C672 1.358 . S
C671 C673 1.356 1_556 S
C671 H703 0.930 . S
C672 N669 1.279 . S
C672 C671 1.358 . S
C672 H675 0.930 . S
C673 C670 1.348 . S
C673 C671 1.356 1_554 S
H674 C668 0.930 . S
H675 C672 0.930 . S
O676 Li616 1.956 . S
O676 Li617 1.970 . S
O676 Li618 1.961 . S
O676 C620 1.325 . S
O677 Li616 1.970 . S
O677 Li617 1.956 . S
O677 Li619 1.961 . S
O677 C626 1.325 . S
O678 Li616 1.961 . S
O678 Li618 1.956 . S
O678 Li619 1.970 . S
O678 C648 1.325 . S
O679 Li617 1.961 . S
O679 Li618 1.970 . S
O679 Li619 1.956 . S
O679 C654 1.325 . S
H680 C622 0.929 . S
H681 C623 0.930 . S
H682 C624 0.930 . S
H683 C625 0.930 . S
H684 C627 0.930 . S
H685 C629 0.929 . S
H686 C630 0.941 . S
H687 C631 0.930 . S
H688 C634 0.930 . S
H689 C637 0.929 . S
H690 C642 0.929 . S
H691 C643 0.930 . S
H692 C650 0.929 . S
H693 C651 0.930 . S
H694 C652 0.930 . S
H695 C653 0.930 . S
H696 C655 0.929 . S
H697 C656 0.930 . S
H698 C657 0.930 . S
H699 C658 0.930 . S
H700 C662 0.929 . S
H701 C664 0.930 . S
H702 C670 0.929 . S
H703 C671 0.930 . S
Li704 N721 1.990 . S
Li704 O764 1.956 . S
Li704 O765 1.970 . S
Li704 O766 1.961 . S
Li705 N729 1.990 . S
Li705 O764 1.970 . S
Li705 O765 1.956 . S
Li705 O767 1.961 . S
Li706 N751 1.990 1_545 S
Li706 O764 1.961 . S
Li706 O766 1.956 . S
Li706 O767 1.970 . S
Li707 N757 1.990 . S
Li707 O765 1.961 . S
Li707 O766 1.970 . S
Li707 O767 1.956 . S
C708 C710 1.348 . S
C708 C711 1.356 . S
C708 O764 1.325 . S
N709 C712 1.314 . S
N709 C713 1.279 . S
C710 C708 1.348 . S
C710 C712 1.353 . S
C710 H768 0.929 . S
C711 C708 1.356 . S
C711 C713 1.358 . S
C711 H769 0.930 . S
C712 N709 1.314 . S
C712 C710 1.353 . S
C712 H770 0.930 . S
C713 N709 1.279 . S
C713 C711 1.358 . S
C713 H771 0.930 . S
C714 C717 1.348 . S
C714 C718 1.356 . S
C714 O765 1.325 . S
C715 N716 1.279 . S
C715 C718 1.358 . S
C715 H772 0.930 . S
N716 C715 1.279 . S
N716 C719 1.314 . S
C717 C714 1.348 . S
C717 C719 1.353 . S
C717 H773 0.929 . S
C718 C714 1.356 . S
C718 C715 1.358 . S
C718 H774 0.930 . S
C719 N716 1.314 . S
C719 C717 1.353 . S
C719 H775 0.930 . S
C720 N721 1.314 . S
C720 C725 1.353 . S
C720 H726 0.930 . S
N721 Li704 1.990 . S
N721 C720 1.314 . S
N721 C723 1.279 . S
C722 C723 1.358 . S
C722 C724 1.356 . S
C722 H776 0.930 . S
C723 N721 1.279 . S
C723 C722 1.358 . S
C723 H727 0.930 . S
C724 C722 1.356 . S
C724 C725 1.348 . S
C725 C720 1.353 . S
C725 C724 1.348 . S
C725 H777 0.929 . S
H726 C720 0.930 . S
H727 C723 0.930 . S
C728 N729 1.314 . S
C728 C730 1.353 1_556 S
C728 H734 0.930 . S
N729 Li705 1.990 . S
N729 C728 1.314 . S
N729 C732 1.279 . S
C730 C728 1.353 1_554 S
C730 C733 1.348 . S
C730 H778 0.929 . S
C731 C732 1.358 . S
C731 C733 1.356 1_556 S
C731 H779 0.930 . S
C732 N729 1.279 . S
C732 C731 1.358 . S
C732 H735 0.930 . S
C733 C730 1.348 . S
C733 C731 1.356 1_554 S
H734 C728 0.930 . S
H735 C732 0.930 . S
C736 C738 1.348 . S
C736 C739 1.356 . S
C736 O766 1.325 1_565 S
N737 C740 1.314 . S
N737 C741 1.279 . S
C738 C736 1.348 . S
C738 C740 1.353 . S
C738 H780 0.929 . S
C739 C736 1.356 . S
C739 C741 1.358 . S
C739 H781 0.930 . S
C740 N737 1.314 . S
C740 C738 1.353 . S
C740 H782 0.930 . S
C741 N737 1.279 . S
C741 C739 1.358 . S
C741 H783 0.930 . S
C742 C743 1.348 1_545 S
C742 C744 1.356 1_556 S
C742 O767 1.325 . S
C743 C742 1.348 1_565 S
C743 C745 1.353 1_556 S
C743 H784 0.929 . S
C744 C742 1.356 1_554 S
C744 C746 1.358 . S
C744 H785 0.930 . S
C745 C743 1.353 1_554 S
C745 N747 1.314 1_565 S
C745 H786 0.930 . S
C746 C744 1.358 . S
C746 N747 1.279 . S
C746 H787 0.930 . S
N747 C745 1.314 1_545 S
N747 C746 1.279 . S
C748 C750 1.353 . S
C748 N751 1.314 . S
C748 H754 0.930 . S
C749 N751 1.279 . S
C749 C752 1.358 . S
C749 H755 0.930 . S
C750 C748 1.353 . S
C750 C753 1.348 . S
C750 H788 0.929 . S
N751 Li706 1.990 1_565 S
N751 C748 1.314 . S
N751 C749 1.279 . S
C752 C749 1.358 . S
C752 C753 1.356 . S
C752 H789 0.930 . S
C753 C750 1.348 . S
C753 C752 1.356 . S
H754 C748 0.930 . S
H755 C749 0.930 . S
C756 N757 1.314 . S
C756 C758 1.353 . S
C756 H762 0.930 . S
N757 Li707 1.990 . S
N757 C756 1.314 . S
N757 C760 1.279 . S
C758 C756 1.353 . S
C758 C761 1.348 . S
C758 H790 0.929 . S
C759 C760 1.358 . S
C759 C761 1.356 . S
C759 H791 0.930 . S
C760 N757 1.279 . S
C760 C759 1.358 . S
C760 H763 0.930 . S
C761 C758 1.348 . S
C761 C759 1.356 . S
H762 C756 0.930 . S
H763 C760 0.930 . S
O764 Li704 1.956 . S
O764 Li705 1.970 . S
O764 Li706 1.961 . S
O764 C708 1.325 . S
O765 Li704 1.970 . S
O765 Li705 1.956 . S
O765 Li707 1.961 . S
O765 C714 1.325 . S
O766 Li704 1.961 . S
O766 Li706 1.956 . S
O766 Li707 1.970 . S
O766 C736 1.325 1_545 S
O767 Li705 1.961 . S
O767 Li706 1.970 . S
O767 Li707 1.956 . S
O767 C742 1.325 . S
H768 C710 0.929 . S
H769 C711 0.930 . S
H770 C712 0.930 . S
H771 C713 0.930 . S
H772 C715 0.930 . S
H773 C717 0.929 . S
H774 C718 0.930 . S
H775 C719 0.930 . S
H776 C722 0.930 . S
H777 C725 0.929 . S
H778 C730 0.929 . S
H779 C731 0.930 . S
H780 C738 0.929 . S
H781 C739 0.930 . S
H782 C740 0.930 . S
H783 C741 0.930 . S
H784 C743 0.929 . S
H785 C744 0.930 . S
H786 C745 0.930 . S
H787 C746 0.930 . S
H788 C750 0.929 . S
H789 C752 0.930 . S
H790 C758 0.929 . S
H791 C759 0.930 . S
Li792 N809 1.990 . S
Li792 O852 1.956 . S
Li792 O853 1.970 . S
Li792 O854 1.961 . S
Li793 N817 1.990 . S
Li793 O852 1.970 . S
Li793 O853 1.956 . S
Li793 O855 1.961 . S
Li794 N839 1.990 . S
Li794 O852 1.961 . S
Li794 O854 1.956 . S
Li794 O855 1.970 . S
Li795 N845 1.990 1_545 S
Li795 O853 1.961 . S
Li795 O854 1.970 . S
Li795 O855 1.956 . S
C796 C798 1.348 . S
C796 C799 1.356 . S
C796 O852 1.325 . S
N797 C800 1.314 . S
N797 C801 1.279 . S
C798 C796 1.348 . S
C798 C800 1.353 . S
C798 H856 0.929 . S
C799 C796 1.356 . S
C799 C801 1.358 . S
C799 H857 0.930 . S
C800 N797 1.314 . S
C800 C798 1.353 . S
C800 H858 0.930 . S
C801 N797 1.279 . S
C801 C799 1.358 . S
C801 H859 0.930 . S
C802 C805 1.348 . S
C802 C806 1.356 . S
C802 O853 1.325 . S
C803 N804 1.279 . S
C803 C806 1.358 . S
C803 H860 0.930 . S
N804 C803 1.279 . S
N804 C807 1.314 . S
C805 C802 1.348 . S
C805 C807 1.353 . S
C805 H861 0.929 . S
C806 C802 1.356 . S
C806 C803 1.358 . S
C806 H862 0.930 . S
C807 N804 1.314 . S
C807 C805 1.353 . S
C807 H863 0.930 . S
C808 N809 1.314 . S
C808 C813 1.353 . S
C808 H814 0.930 . S
N809 Li792 1.990 . S
N809 C808 1.314 . S
N809 C811 1.279 . S
C810 C811 1.358 . S
C810 C812 1.356 . S
C810 H864 0.930 . S
C811 N809 1.279 . S
C811 C810 1.358 . S
C811 H815 0.930 . S
C812 C810 1.356 . S
C812 C813 1.348 . S
C813 C808 1.353 . S
C813 C812 1.348 . S
C813 H865 0.929 . S
H814 C808 0.930 . S
H815 C811 0.930 . S
C816 N817 1.314 . S
C816 C818 1.353 . S
C816 H822 0.930 . S
N817 Li793 1.990 . S
N817 C816 1.314 . S
N817 C820 1.279 . S
C818 C816 1.353 . S
C818 C821 1.348 . S
C818 H866 0.929 . S
C819 C820 1.358 . S
C819 C821 1.356 . S
C819 H867 0.930 . S
C820 N817 1.279 . S
C820 C819 1.358 . S
C820 H823 0.930 . S
C821 C818 1.348 . S
C821 C819 1.356 . S
H822 C816 0.930 . S
H823 C820 0.930 . S
C824 C826 1.348 1_545 S
C824 C827 1.356 . S
C824 O854 1.325 . S
N825 C828 1.314 1_545 S
N825 C829 1.279 . S
C826 C824 1.348 1_565 S
C826 C828 1.353 . S
C826 H868 0.929 . S
C827 C824 1.356 . S
C827 C829 1.358 . S
C827 H869 0.930 . S
C828 N825 1.314 1_565 S
C828 C826 1.353 . S
C828 H870 0.930 . S
C829 N825 1.279 . S
C829 C827 1.358 . S
C829 H871 0.930 . S
C830 C831 1.348 . S
C830 C832 1.356 . S
C830 O855 1.325 1_565 S
C831 C830 1.348 . S
C831 C833 1.353 . S
C831 H872 0.929 . S
C832 C830 1.356 . S
C832 C834 1.358 . S
C832 H873 0.930 . S
C833 C831 1.353 . S
C833 N835 1.314 . S
C833 H874 0.930 . S
C834 C832 1.358 . S
C834 N835 1.279 . S
C834 H875 0.930 . S
N835 C833 1.314 . S
N835 C834 1.279 . S
C836 C838 1.353 . S
C836 N839 1.314 . S
C836 H842 0.930 . S
C837 N839 1.279 . S
C837 C840 1.358 . S
C837 H843 0.930 . S
C838 C836 1.353 . S
C838 C841 1.348 . S
C838 H876 0.929 . S
N839 Li794 1.990 . S
N839 C836 1.314 . S
N839 C837 1.279 . S
C840 C837 1.358 . S
C840 C841 1.356 . S
C840 H877 0.930 . S
C841 C838 1.348 . S
C841 C840 1.356 . S
H842 C836 0.930 . S
H843 C837 0.930 . S
C844 N845 1.314 . S
C844 C846 1.353 . S
C844 H850 0.930 . S
N845 Li795 1.990 1_565 S
N845 C844 1.314 . S
N845 C848 1.279 . S
C846 C844 1.353 . S
C846 C849 1.348 . S
C846 H878 0.929 . S
C847 C848 1.358 . S
C847 C849 1.356 . S
C847 H879 0.930 . S
C848 N845 1.279 . S
C848 C847 1.358 . S
C848 H851 0.930 . S
C849 C846 1.348 . S
C849 C847 1.356 . S
H850 C844 0.930 . S
H851 C848 0.930 . S
O852 Li792 1.956 . S
O852 Li793 1.970 . S
O852 Li794 1.961 . S
O852 C796 1.325 . S
O853 Li792 1.970 . S
O853 Li793 1.956 . S
O853 Li795 1.961 . S
O853 C802 1.325 . S
O854 Li792 1.961 . S
O854 Li794 1.956 . S
O854 Li795 1.970 . S
O854 C824 1.325 . S
O855 Li793 1.961 . S
O855 Li794 1.970 . S
O855 Li795 1.956 . S
O855 C830 1.325 1_545 S
H856 C798 0.929 . S
H857 C799 0.930 . S
H858 C800 0.930 . S
H859 C801 0.930 . S
H860 C803 0.930 . S
H861 C805 0.929 . S
H862 C806 0.930 . S
H863 C807 0.930 . S
H864 C810 0.930 . S
H865 C813 0.929 . S
H866 C818 0.929 . S
H867 C819 0.930 . S
H868 C826 0.929 . S
H869 C827 0.930 . S
H870 C828 0.930 . S
H871 C829 0.930 . S
H872 C831 0.929 . S
H873 C832 0.930 . S
H874 C833 0.930 . S
H875 C834 0.930 . S
H876 C838 0.929 . S
H877 C840 0.930 . S
H878 C846 0.929 . S
H879 C847 0.930 . S
Li880 N897 1.990 1_655 S
Li880 O940 1.956 . S
Li880 O941 1.970 . S
Li880 O942 1.961 . S
Li881 N905 1.990 . S
Li881 O940 1.970 . S
Li881 O941 1.956 . S
Li881 O943 1.961 . S
Li882 N927 1.990 . S
Li882 O940 1.961 . S
Li882 O942 1.956 . S
Li882 O943 1.970 . S
Li883 N933 1.990 . S
Li883 O941 1.961 . S
Li883 O942 1.970 . S
Li883 O943 1.956 . S
C884 C886 1.348 . S
C884 C887 1.356 . S
C884 O940 1.325 1_455 S
N885 C888 1.314 . S
N885 C889 1.279 . S
C886 C884 1.348 . S
C886 C888 1.353 . S
C886 H944 0.929 . S
C887 C884 1.356 . S
C887 C889 1.358 . S
C887 H945 0.930 . S
C888 N885 1.314 . S
C888 C886 1.353 . S
C888 H946 0.930 . S
C889 N885 1.279 . S
C889 C887 1.358 . S
C889 H947 0.930 . S
C890 C893 1.348 1_655 S
C890 C894 1.356 . S
C890 O941 1.325 . S
C891 N892 1.279 . S
C891 C894 1.358 . S
C891 H948 0.930 . S
N892 C891 1.279 . S
N892 C895 1.314 1_655 S
C893 C890 1.348 1_455 S
C893 C895 1.353 . S
C893 H949 0.929 . S
C894 C890 1.356 . S
C894 C891 1.358 . S
C894 H950 0.930 . S
C895 N892 1.314 1_455 S
C895 C893 1.353 . S
C895 H951 0.930 . S
C896 N897 1.314 . S
C896 C901 1.353 . S
C896 H902 0.930 . S
N897 Li880 1.990 1_455 S
N897 C896 1.314 . S
N897 C899 1.279 . S
C898 C899 1.358 . S
C898 C900 1.356 . S
C898 H952 0.930 . S
C899 N897 1.279 . S
C899 C898 1.358 . S
C899 H903 0.930 . S
C900 C898 1.356 . S
C900 C901 1.348 . S
C901 C896 1.353 . S
C901 C900 1.348 . S
C901 H953 0.929 . S
H902 C896 0.930 . S
H903 C899 0.930 . S
C904 N905 1.314 . S
C904 C906 1.353 . S
C904 H910 0.930 . S
N905 Li881 1.990 . S
N905 C904 1.314 . S
N905 C908 1.279 . S
C906 C904 1.353 . S
C906 C909 1.348 . S
C906 H954 0.929 . S
C907 C908 1.358 . S
C907 C909 1.356 . S
C907 H955 0.930 . S
C908 N905 1.279 . S
C908 C907 1.358 . S
C908 H911 0.930 . S
C909 C906 1.348 . S
C909 C907 1.356 . S
H910 C904 0.930 . S
H911 C908 0.930 . S
C912 C914 1.348 . S
C912 C915 1.356 . S
C912 O942 1.325 . S
N913 C916 1.314 . S
N913 C917 1.279 . S
C914 C912 1.348 . S
C914 C916 1.353 . S
C914 H956 0.929 . S
C915 C912 1.356 . S
C915 C917 1.358 . S
C915 H957 0.930 . S
C916 N913 1.314 . S
C916 C914 1.353 . S
C916 H958 0.930 . S
C917 N913 1.279 . S
C917 C915 1.358 . S
C917 H959 0.930 . S
C918 C919 1.348 . S
C918 C920 1.356 . S
C918 O943 1.325 . S
C919 C918 1.348 . S
C919 C921 1.353 . S
C919 H960 0.929 . S
C920 C918 1.356 . S
C920 C922 1.358 . S
C920 H961 0.930 . S
C921 C919 1.353 . S
C921 N923 1.314 . S
C921 H962 0.930 . S
C922 C920 1.358 . S
C922 N923 1.279 . S
C922 H963 0.930 . S
N923 C921 1.314 . S
N923 C922 1.279 . S
C924 C926 1.353 . S
C924 N927 1.314 . S
C924 H930 0.930 . S
C925 N927 1.279 . S
C925 C928 1.358 . S
C925 H931 0.930 . S
C926 C924 1.353 . S
C926 C929 1.348 . S
C926 H964 0.929 . S
N927 Li882 1.990 . S
N927 C924 1.314 . S
N927 C925 1.279 . S
C928 C925 1.358 . S
C928 C929 1.356 . S
C928 H965 0.930 . S
C929 C926 1.348 . S
C929 C928 1.356 . S
H930 C924 0.930 . S
H931 C925 0.930 . S
C932 N933 1.314 . S
C932 C934 1.353 . S
C932 H938 0.930 . S
N933 Li883 1.990 . S
N933 C932 1.314 . S
N933 C936 1.279 . S
C934 C932 1.353 . S
C934 C937 1.348 . S
C934 H966 0.929 . S
C935 C936 1.358 . S
C935 C937 1.356 . S
C935 H967 0.930 . S
C936 N933 1.279 . S
C936 C935 1.358 . S
C936 H939 0.930 . S
C937 C934 1.348 . S
C937 C935 1.356 . S
H938 C932 0.930 . S
H939 C936 0.930 . S
O940 Li880 1.956 . S
O940 Li881 1.970 . S
O940 Li882 1.961 . S
O940 C884 1.325 1_655 S
O941 Li880 1.970 . S
O941 Li881 1.956 . S
O941 Li883 1.961 . S
O941 C890 1.325 . S
O942 Li880 1.961 . S
O942 Li882 1.956 . S
O942 Li883 1.970 . S
O942 C912 1.325 . S
O943 Li881 1.961 . S
O943 Li882 1.970 . S
O943 Li883 1.956 . S
O943 C918 1.325 . S
H944 C886 0.929 . S
H945 C887 0.930 . S
H946 C888 0.930 . S
H947 C889 0.930 . S
H948 C891 0.930 . S
H949 C893 0.929 . S
H950 C894 0.930 . S
H951 C895 0.930 . S
H952 C898 0.930 . S
H953 C901 0.929 . S
H954 C906 0.929 . S
H955 C907 0.930 . S
H956 C914 0.929 . S
H957 C915 0.930 . S
H958 C916 0.930 . S
H959 C917 0.930 . S
H960 C919 0.929 . S
H961 C920 0.930 . S
H962 C921 0.930 . S
H963 C922 0.930 . S
H964 C926 0.929 . S
H965 C928 0.930 . S
H966 C934 0.929 . S
H967 C935 0.930 . S
Li968 N985 1.990 . S
Li968 O1028 1.956 . S
Li968 O1029 1.970 . S
Li968 O1030 1.961 . S
Li969 N993 1.990 . S
Li969 O1028 1.970 . S
Li969 O1029 1.956 . S
Li969 O1031 1.961 . S
Li970 N1015 1.990 . S
Li970 O1028 1.961 . S
Li970 O1030 1.956 . S
Li970 O1031 1.970 . S
Li971 N1021 1.990 . S
Li971 O1029 1.961 . S
Li971 O1030 1.970 . S
Li971 O1031 1.956 . S
C972 C974 1.348 . S
C972 C975 1.356 . S
C972 O1028 1.325 . S
N973 C976 1.314 . S
N973 C977 1.279 . S
C974 C972 1.348 . S
C974 C976 1.353 . S
C974 H1032 0.929 . S
C975 C972 1.356 . S
C975 C977 1.358 . S
C975 H1033 0.930 . S
C976 N973 1.314 . S
C976 C974 1.353 . S
C976 H1034 0.930 . S
C977 N973 1.279 . S
C977 C975 1.358 . S
C977 H1035 0.930 . S
C978 C981 1.348 . S
C978 C982 1.356 . S
C978 O1029 1.325 . S
C979 N980 1.279 . S
C979 C982 1.358 . S
C979 H1036 0.930 . S
N980 C979 1.279 . S
N980 C983 1.314 . S
C981 C978 1.348 . S
C981 C983 1.353 . S
C981 H1037 0.929 . S
C982 C978 1.356 . S
C982 C979 1.358 . S
C982 H1038 0.930 . S
C983 N980 1.314 . S
C983 C981 1.353 . S
C983 H1039 0.930 . S
C984 N985 1.314 . S
C984 C989 1.353 . S
C984 H990 0.930 . S
N985 Li968 1.990 . S
N985 C984 1.314 . S
N985 C987 1.279 . S
C986 C987 1.358 . S
C986 C988 1.356 . S
C986 H1040 0.930 . S
C987 N985 1.279 . S
C987 C986 1.358 . S
C987 H991 0.930 . S
C988 C986 1.356 . S
C988 C989 1.348 . S
C989 C984 1.353 . S
C989 C988 1.348 . S
C989 H1041 0.929 . S
H990 C984 0.930 . S
H991 C987 0.930 . S
C992 N993 1.314 . S
C992 C994 1.353 . S
C992 H998 0.930 . S
N993 Li969 1.990 . S
N993 C992 1.314 . S
N993 C996 1.279 . S
C994 C992 1.353 . S
C994 C997 1.348 . S
C994 H1042 0.929 . S
C995 C996 1.358 . S
C995 C997 1.356 . S
C995 H1043 0.930 . S
C996 N993 1.279 . S
C996 C995 1.358 . S
C996 H999 0.930 . S
C997 C994 1.348 . S
C997 C995 1.356 . S
H998 C992 0.930 . S
H999 C996 0.930 . S
C1000 C1002 1.348 . S
C1000 C1003 1.356 . S
C1000 O1030 1.325 . S
N1001 C1004 1.314 . S
N1001 C1005 1.279 . S
C1002 C1000 1.348 . S
C1002 C1004 1.353 . S
C1002 H1044 0.929 . S
C1003 C1000 1.356 . S
C1003 C1005 1.358 . S
C1003 H1045 0.930 . S
C1004 N1001 1.314 . S
C1004 C1002 1.353 . S
C1004 H1046 0.930 . S
C1005 N1001 1.279 . S
C1005 C1003 1.358 . S
C1005 H1047 0.930 . S
C1006 C1007 1.348 . S
C1006 C1008 1.356 . S
C1006 O1031 1.325 . S
C1007 C1006 1.348 . S
C1007 C1009 1.353 . S
C1007 H1048 0.929 . S
C1008 C1006 1.356 . S
C1008 C1010 1.358 . S
C1008 H1049 0.930 . S
C1009 C1007 1.353 . S
C1009 N1011 1.314 . S
C1009 H1050 0.930 . S
C1010 C1008 1.358 . S
C1010 N1011 1.279 . S
C1010 H1051 0.930 . S
N1011 C1009 1.314 . S
N1011 C1010 1.279 . S
C1012 C1014 1.353 . S
C1012 N1015 1.314 . S
C1012 H1018 0.930 . S
C1013 N1015 1.279 . S
C1013 C1016 1.358 . S
C1013 H1019 0.930 . S
C1014 C1012 1.353 . S
C1014 C1017 1.348 . S
C1014 H1052 0.929 . S
N1015 Li970 1.990 . S
N1015 C1012 1.314 . S
N1015 C1013 1.279 . S
C1016 C1013 1.358 . S
C1016 C1017 1.356 . S
C1016 H1053 0.930 . S
C1017 C1014 1.348 . S
C1017 C1016 1.356 . S
H1018 C1012 0.930 . S
H1019 C1013 0.930 . S
C1020 N1021 1.314 . S
C1020 C1022 1.353 . S
C1020 H1026 0.930 . S
N1021 Li971 1.990 . S
N1021 C1020 1.314 . S
N1021 C1024 1.279 . S
C1022 C1020 1.353 . S
C1022 C1025 1.348 . S
C1022 H1054 0.929 . S
C1023 C1024 1.358 . S
C1023 C1025 1.356 . S
C1023 H1055 0.930 . S
C1024 N1021 1.279 . S
C1024 C1023 1.358 . S
C1024 H1027 0.930 . S
C1025 C1022 1.348 . S
C1025 C1023 1.356 . S
H1026 C1020 0.930 . S
H1027 C1024 0.930 . S
O1028 Li968 1.956 . S
O1028 Li969 1.970 . S
O1028 Li970 1.961 . S
O1028 C972 1.325 . S
O1029 Li968 1.970 . S
O1029 Li969 1.956 . S
O1029 Li971 1.961 . S
O1029 C978 1.325 . S
O1030 Li968 1.961 . S
O1030 Li970 1.956 . S
O1030 Li971 1.970 . S
O1030 C1000 1.325 . S
O1031 Li969 1.961 . S
O1031 Li970 1.970 . S
O1031 Li971 1.956 . S
O1031 C1006 1.325 . S
H1032 C974 0.929 . S
H1033 C975 0.930 . S
H1034 C976 0.930 . S
H1035 C977 0.930 . S
H1036 C979 0.930 . S
H1037 C981 0.929 . S
H1038 C982 0.930 . S
H1039 C983 0.930 . S
H1040 C986 0.930 . S
H1041 C989 0.929 . S
H1042 C994 0.929 . S
H1043 C995 0.930 . S
H1044 C1002 0.929 . S
H1045 C1003 0.930 . S
H1046 C1004 0.930 . S
H1047 C1005 0.930 . S
H1048 C1007 0.929 . S
H1049 C1008 0.930 . S
H1050 C1009 0.930 . S
H1051 C1010 0.930 . S
H1052 C1014 0.929 . S
H1053 C1016 0.930 . S
H1054 C1022 0.929 . S
H1055 C1023 0.930 . S
C1056 C1057 1.363 . S
C1056 C1062 1.379 . S
C1056 N1064 1.356 1_556 S
C1057 C1056 1.363 . S
C1057 C1063 1.363 . S
C1058 C1059 1.363 . S
C1058 C1063 1.379 . S
C1058 N1065 1.356 . S
C1059 C1058 1.363 . S
C1059 C1062 1.363 . S
N1060 C1062 1.356 . S
N1060 H1072 0.984 . S
N1060 H1073 0.985 . S
N1061 C1063 1.356 . S
N1061 H1066 0.984 . S
N1061 H1067 0.985 . S
C1062 C1056 1.379 . S
C1062 C1059 1.363 . S
C1062 N1060 1.356 . S
C1063 C1057 1.363 . S
C1063 C1058 1.379 . S
C1063 N1061 1.356 . S
N1064 C1056 1.356 1_554 S
N1064 H1070 0.984 . S
N1064 H1071 0.984 . S
N1065 C1058 1.356 . S
N1065 H1068 0.984 . S
N1065 H1069 0.985 . S
H1066 N1061 0.984 . S
H1067 N1061 0.985 . S
H1068 N1065 0.984 . S
H1069 N1065 0.985 . S
H1070 N1064 0.984 . S
H1071 N1064 0.984 . S
H1072 N1060 0.984 . S
H1073 N1060 0.985 . S
C1074 C1075 1.363 . S
C1074 C1080 1.379 . S
C1074 N1082 1.356 . S
C1075 C1074 1.363 . S
C1075 C1081 1.363 . S
C1076 C1077 1.363 . S
C1076 C1081 1.379 . S
C1076 N1083 1.356 . S
C1077 C1076 1.363 . S
C1077 C1080 1.363 . S
N1078 C1080 1.356 . S
N1078 H1090 0.984 . S
N1078 H1091 0.985 . S
N1079 C1081 1.356 1_554 S
N1079 H1084 0.984 . S
N1079 H1085 0.985 . S
C1080 C1074 1.379 . S
C1080 C1077 1.363 . S
C1080 N1078 1.356 . S
C1081 C1075 1.363 . S
C1081 C1076 1.379 . S
C1081 N1079 1.356 1_556 S
N1082 C1074 1.356 . S
N1082 H1088 0.984 . S
N1082 H1089 0.984 . S
N1083 C1076 1.356 . S
N1083 H1086 0.984 . S
N1083 H1087 0.985 . S
H1084 N1079 0.984 . S
H1085 N1079 0.985 . S
H1086 N1083 0.984 . S
H1087 N1083 0.985 . S
H1088 N1082 0.984 . S
H1089 N1082 0.984 . S
H1090 N1078 0.984 . S
H1091 N1078 0.985 . S
C1092 C1093 1.363 . S
C1092 C1098 1.379 . S
C1092 N1100 1.356 1_556 S
C1093 C1092 1.363 . S
C1093 C1099 1.363 . S
C1094 C1095 1.363 . S
C1094 C1099 1.379 . S
C1094 N1101 1.356 . S
C1095 C1094 1.363 . S
C1095 C1098 1.363 . S
N1096 C1098 1.356 . S
N1096 H1108 0.984 . S
N1096 H1109 0.985 . S
N1097 C1099 1.356 . S
N1097 H1102 0.984 . S
N1097 H1103 0.985 . S
C1098 C1092 1.379 . S
C1098 C1095 1.363 . S
C1098 N1096 1.356 . S
C1099 C1093 1.363 . S
C1099 C1094 1.379 . S
C1099 N1097 1.356 . S
N1100 C1092 1.356 1_554 S
N1100 H1106 0.984 . S
N1100 H1107 0.984 . S
N1101 C1094 1.356 . S
N1101 H1104 0.984 . S
N1101 H1105 0.985 . S
H1102 N1097 0.984 . S
H1103 N1097 0.985 . S
H1104 N1101 0.984 . S
H1105 N1101 0.985 . S
H1106 N1100 0.984 . S
H1107 N1100 0.984 . S
H1108 N1096 0.984 . S
H1109 N1096 0.985 . S
C1110 C1111 1.363 . S
C1110 C1116 1.379 . S
C1110 N1118 1.356 . S
C1111 C1110 1.363 . S
C1111 C1117 1.363 . S
C1112 C1113 1.363 . S
C1112 C1117 1.379 . S
C1112 N1119 1.356 . S
C1113 C1112 1.363 . S
C1113 C1116 1.363 . S
N1114 C1116 1.356 . S
N1114 H1126 0.984 . S
N1114 H1127 0.985 . S
N1115 C1117 1.356 . S
N1115 H1120 0.984 . S
N1115 H1121 0.985 . S
C1116 C1110 1.379 . S
C1116 C1113 1.363 . S
C1116 N1114 1.356 . S
C1117 C1111 1.363 . S
C1117 C1112 1.379 . S
C1117 N1115 1.356 . S
N1118 C1110 1.356 . S
N1118 H1124 0.984 . S
N1118 H1125 0.984 . S
N1119 C1112 1.356 . S
N1119 H1122 0.984 . S
N1119 H1123 0.985 . S
H1120 N1115 0.984 . S
H1121 N1115 0.985 . S
H1122 N1119 0.984 . S
H1123 N1119 0.985 . S
H1124 N1118 0.984 . S
H1125 N1118 0.984 . S
H1126 N1114 0.984 . S
H1127 N1114 0.985 . S
C1128 C1129 1.363 . S
C1128 C1134 1.379 . S
C1128 N1136 1.356 . S
C1129 C1128 1.363 . S
C1129 C1135 1.363 . S
C1130 C1131 1.363 . S
C1130 C1135 1.379 . S
C1130 N1137 1.356 . S
C1131 C1130 1.363 . S
C1131 C1134 1.363 . S
N1132 C1134 1.356 . S
N1132 H1144 0.984 . S
N1132 H1145 0.985 . S
N1133 C1135 1.356 . S
N1133 H1138 0.984 . S
N1133 H1139 0.985 . S
C1134 C1128 1.379 . S
C1134 C1131 1.363 . S
C1134 N1132 1.356 . S
C1135 C1129 1.363 . S
C1135 C1130 1.379 . S
C1135 N1133 1.356 . S
N1136 C1128 1.356 . S
N1136 H1142 0.984 . S
N1136 H1143 0.984 . S
N1137 C1130 1.356 . S
N1137 H1140 0.984 . S
N1137 H1141 0.985 . S
H1138 N1133 0.984 . S
H1139 N1133 0.985 . S
H1140 N1137 0.984 . S
H1141 N1137 0.985 . S
H1142 N1136 0.984 . S
H1143 N1136 0.984 . S
H1144 N1132 0.984 . S
H1145 N1132 0.985 . S
C1146 C1147 1.363 . S
C1146 C1152 1.379 . S
C1146 N1154 1.356 . S
C1147 C1146 1.363 . S
C1147 C1153 1.363 . S
C1148 C1149 1.363 . S
C1148 C1153 1.379 . S
C1148 N1155 1.356 . S
C1149 C1148 1.363 . S
C1149 C1152 1.363 . S
N1150 C1152 1.356 . S
N1150 H1162 0.984 . S
N1150 H1163 0.985 . S
N1151 C1153 1.356 . S
N1151 H1156 0.984 . S
N1151 H1157 0.985 . S
C1152 C1146 1.379 . S
C1152 C1149 1.363 . S
C1152 N1150 1.356 . S
C1153 C1147 1.363 . S
C1153 C1148 1.379 . S
C1153 N1151 1.356 . S
N1154 C1146 1.356 . S
N1154 H1160 0.984 . S
N1154 H1161 0.984 . S
N1155 C1148 1.356 . S
N1155 H1158 0.984 . S
N1155 H1159 0.985 . S
H1156 N1151 0.984 . S
H1157 N1151 0.985 . S
H1158 N1155 0.984 . S
H1159 N1155 0.985 . S
H1160 N1154 0.984 . S
H1161 N1154 0.984 . S
H1162 N1150 0.984 . S
H1163 N1150 0.985 . S
C1164 C1165 1.363 . S
C1164 C1170 1.379 . S
C1164 N1172 1.356 . S
C1165 C1164 1.363 . S
C1165 C1171 1.363 . S
C1166 C1167 1.363 . S
C1166 C1171 1.379 . S
C1166 N1173 1.356 1_554 S
C1167 C1166 1.363 . S
C1167 C1170 1.363 . S
N1168 C1170 1.356 . S
N1168 H1180 0.984 . S
N1168 H1181 0.985 1_554 S
N1169 C1171 1.356 . S
N1169 H1174 0.984 . S
N1169 H1175 0.985 . S
C1170 C1164 1.379 . S
C1170 C1167 1.363 . S
C1170 N1168 1.356 . S
C1171 C1165 1.363 . S
C1171 C1166 1.379 . S
C1171 N1169 1.356 . S
N1172 C1164 1.356 . S
N1172 H1178 0.984 . S
N1172 H1179 0.984 . S
N1173 C1166 1.356 1_556 S
N1173 H1176 0.984 . S
N1173 H1177 0.985 . S
H1174 N1169 0.984 . S
H1175 N1169 0.985 . S
H1176 N1173 0.984 . S
H1177 N1173 0.985 . S
H1178 N1172 0.984 . S
H1179 N1172 0.984 . S
H1180 N1168 0.984 . S
H1181 N1168 0.985 1_556 S
C1182 C1183 1.363 . S
C1182 C1188 1.379 . S
C1182 N1190 1.356 1_554 S
C1183 C1182 1.363 . S
C1183 C1189 1.363 . S
C1184 C1185 1.363 . S
C1184 C1189 1.379 . S
C1184 N1191 1.356 . S
C1185 C1184 1.363 . S
C1185 C1188 1.363 . S
N1186 C1188 1.356 . S
N1186 H1198 0.984 . S
N1186 H1199 0.985 . S
N1187 C1189 1.356 . S
N1187 H1192 0.984 . S
N1187 H1193 0.985 . S
C1188 C1182 1.379 . S
C1188 C1185 1.363 . S
C1188 N1186 1.356 . S
C1189 C1183 1.363 . S
C1189 C1184 1.379 . S
C1189 N1187 1.356 . S
N1190 C1182 1.356 1_556 S
N1190 H1196 0.984 . S
N1190 H1197 0.984 . S
N1191 C1184 1.356 . S
N1191 H1194 0.984 . S
N1191 H1195 0.985 . S
H1192 N1187 0.984 . S
H1193 N1187 0.985 . S
H1194 N1191 0.984 . S
H1195 N1191 0.985 . S
H1196 N1190 0.984 . S
H1197 N1190 0.984 . S
H1198 N1186 0.984 . S
H1199 N1186 0.985 . S
C1200 C1201 1.363 . S
C1200 C1206 1.379 . S
C1200 N1208 1.356 . S
C1201 C1200 1.363 . S
C1201 C1207 1.363 . S
C1202 C1203 1.363 . S
C1202 C1207 1.379 . S
C1202 N1209 1.356 1_554 S
C1203 C1202 1.363 . S
C1203 C1206 1.363 . S
N1204 C1206 1.356 . S
N1204 H1216 0.984 . S
N1204 H1217 0.985 . S
N1205 C1207 1.356 . S
N1205 H1210 0.984 . S
N1205 H1211 0.985 . S
C1206 C1200 1.379 . S
C1206 C1203 1.363 . S
C1206 N1204 1.356 . S
C1207 C1201 1.363 . S
C1207 C1202 1.379 . S
C1207 N1205 1.356 . S
N1208 C1200 1.356 . S
N1208 H1214 0.984 . S
N1208 H1215 0.984 . S
N1209 C1202 1.356 1_556 S
N1209 H1212 0.984 . S
N1209 H1213 0.985 . S
H1210 N1205 0.984 . S
H1211 N1205 0.985 . S
H1212 N1209 0.984 . S
H1213 N1209 0.985 . S
H1214 N1208 0.984 . S
H1215 N1208 0.984 . S
H1216 N1204 0.984 . S
H1217 N1204 0.985 . S
C1218 C1219 1.363 . S
C1218 C1224 1.379 . S
C1218 N1226 1.356 . S
C1219 C1218 1.363 . S
C1219 C1225 1.363 . S
C1220 C1221 1.363 . S
C1220 C1225 1.379 . S
C1220 N1227 1.356 . S
C1221 C1220 1.363 . S
C1221 C1224 1.363 . S
N1222 C1224 1.356 . S
N1222 H1234 0.984 . S
N1222 H1235 0.985 . S
N1223 C1225 1.356 . S
N1223 H1228 0.984 . S
N1223 H1229 0.985 . S
C1224 C1218 1.379 . S
C1224 C1221 1.363 . S
C1224 N1222 1.356 . S
C1225 C1219 1.363 . S
C1225 C1220 1.379 . S
C1225 N1223 1.356 . S
N1226 C1218 1.356 . S
N1226 H1232 0.984 . S
N1226 H1233 0.984 . S
N1227 C1220 1.356 . S
N1227 H1230 0.984 . S
N1227 H1231 0.985 . S
H1228 N1223 0.984 . S
H1229 N1223 0.985 . S
H1230 N1227 0.984 . S
H1231 N1227 0.985 . S
H1232 N1226 0.984 . S
H1233 N1226 0.984 . S
H1234 N1222 0.984 . S
H1235 N1222 0.985 . S
C1236 C1237 1.363 . S
C1236 C1242 1.379 . S
C1236 N1244 1.356 . S
C1237 C1236 1.363 . S
C1237 C1243 1.363 . S
C1238 C1239 1.363 . S
C1238 C1243 1.379 . S
C1238 N1245 1.356 . S
C1239 C1238 1.363 . S
C1239 C1242 1.363 . S
N1240 C1242 1.356 . S
N1240 H1252 0.984 . S
N1240 H1253 0.985 . S
N1241 C1243 1.356 . S
N1241 H1246 0.984 . S
N1241 H1247 0.985 . S
C1242 C1236 1.379 . S
C1242 C1239 1.363 . S
C1242 N1240 1.356 . S
C1243 C1237 1.363 . S
C1243 C1238 1.379 . S
C1243 N1241 1.356 . S
N1244 C1236 1.356 . S
N1244 H1250 0.984 . S
N1244 H1251 0.984 . S
N1245 C1238 1.356 . S
N1245 H1248 0.984 . S
N1245 H1249 0.985 . S
H1246 N1241 0.984 . S
H1247 N1241 0.985 . S
H1248 N1245 0.984 . S
H1249 N1245 0.985 . S
H1250 N1244 0.984 . S
H1251 N1244 0.984 . S
H1252 N1240 0.984 . S
H1253 N1240 0.985 . S
C1254 C1255 1.363 . S
C1254 C1260 1.379 . S
C1254 N1262 1.356 . S
C1255 C1254 1.363 . S
C1255 C1261 1.363 . S
C1256 C1257 1.363 . S
C1256 C1261 1.379 . S
C1256 N1263 1.356 . S
C1257 C1256 1.363 . S
C1257 C1260 1.363 . S
N1258 C1260 1.356 . S
N1258 H1270 0.984 . S
N1258 H1271 0.985 . S
N1259 C1261 1.356 . S
N1259 H1264 0.984 . S
N1259 H1265 0.985 . S
C1260 C1254 1.379 . S
C1260 C1257 1.363 . S
C1260 N1258 1.356 . S
C1261 C1255 1.363 . S
C1261 C1256 1.379 . S
C1261 N1259 1.356 . S
N1262 C1254 1.356 . S
N1262 H1268 0.984 . S
N1262 H1269 0.984 . S
N1263 C1256 1.356 . S
N1263 H1266 0.984 . S
N1263 H1267 0.985 . S
H1264 N1259 0.984 . S
H1265 N1259 0.985 . S
H1266 N1263 0.984 . S
H1267 N1263 0.985 . S
H1268 N1262 0.984 . S
H1269 N1262 0.984 . S
H1270 N1258 0.984 . S
H1271 N1258 0.985 . S
C1272 C1273 1.363 . S
C1272 C1278 1.379 . S
C1272 N1280 1.356 . S
C1273 C1272 1.363 . S
C1273 C1279 1.363 . S
C1274 C1275 1.363 . S
C1274 C1279 1.379 . S
C1274 N1281 1.356 . S
C1275 C1274 1.363 . S
C1275 C1278 1.363 . S
N1276 C1278 1.356 . S
N1276 H1288 0.984 . S
N1276 H1289 0.985 . S
N1277 C1279 1.356 . S
N1277 H1282 0.984 . S
N1277 H1283 0.985 . S
C1278 C1272 1.379 . S
C1278 C1275 1.363 . S
C1278 N1276 1.356 . S
C1279 C1273 1.363 . S
C1279 C1274 1.379 . S
C1279 N1277 1.356 . S
N1280 C1272 1.356 . S
N1280 H1286 0.984 . S
N1280 H1287 0.984 . S
N1281 C1274 1.356 . S
N1281 H1284 0.984 . S
N1281 H1285 0.985 . S
H1282 N1277 0.984 . S
H1283 N1277 0.985 . S
H1284 N1281 0.984 . S
H1285 N1281 0.985 . S
H1286 N1280 0.984 . S
H1287 N1280 0.984 . S
H1288 N1276 0.984 . S
H1289 N1276 0.985 . S
C1290 C1291 1.363 . S
C1290 C1296 1.379 . S
C1290 N1298 1.356 . S
C1291 C1290 1.363 . S
C1291 C1297 1.363 . S
C1292 C1293 1.363 . S
C1292 C1297 1.379 . S
C1292 N1299 1.356 . S
C1293 C1292 1.363 . S
C1293 C1296 1.363 . S
N1294 C1296 1.356 . S
N1294 H1306 0.984 . S
N1294 H1307 0.985 . S
N1295 C1297 1.356 . S
N1295 H1300 0.984 . S
N1295 H1301 0.985 . S
C1296 C1290 1.379 . S
C1296 C1293 1.363 . S
C1296 N1294 1.356 . S
C1297 C1291 1.363 . S
C1297 C1292 1.379 . S
C1297 N1295 1.356 . S
N1298 C1290 1.356 . S
N1298 H1304 0.984 . S
N1298 H1305 0.984 . S
N1299 C1292 1.356 . S
N1299 H1302 0.984 . S
N1299 H1303 0.985 . S
H1300 N1295 0.984 . S
H1301 N1295 0.985 . S
H1302 N1299 0.984 . S
H1303 N1299 0.985 . S
H1304 N1298 0.984 . S
H1305 N1298 0.984 . S
H1306 N1294 0.984 . S
H1307 N1294 0.985 . S
C1308 C1309 1.363 . S
C1308 C1314 1.379 . S
C1308 N1316 1.356 . S
C1309 C1308 1.363 . S
C1309 C1315 1.363 . S
C1310 C1311 1.363 . S
C1310 C1315 1.379 . S
C1310 N1317 1.356 . S
C1311 C1310 1.363 . S
C1311 C1314 1.363 . S
N1312 C1314 1.356 . S
N1312 H1324 0.984 . S
N1312 H1325 0.985 . S
N1313 C1315 1.356 . S
N1313 H1318 0.984 . S
N1313 H1319 0.985 . S
C1314 C1308 1.379 . S
C1314 C1311 1.363 . S
C1314 N1312 1.356 . S
C1315 C1309 1.363 . S
C1315 C1310 1.379 . S
C1315 N1313 1.356 . S
N1316 C1308 1.356 . S
N1316 H1322 0.984 . S
N1316 H1323 0.984 . S
N1317 C1310 1.356 . S
N1317 H1320 0.984 . S
N1317 H1321 0.985 . S
H1318 N1313 0.984 . S
H1319 N1313 0.985 . S
H1320 N1317 0.984 . S
H1321 N1317 0.985 . S
H1322 N1316 0.984 . S
H1323 N1316 0.984 . S
H1324 N1312 0.984 . S
H1325 N1312 0.985 . S
C1326 C1327 1.363 . S
C1326 C1332 1.379 . S
C1326 N1334 1.356 . S
C1327 C1326 1.363 . S
C1327 C1333 1.363 . S
C1328 C1329 1.363 . S
C1328 C1333 1.379 . S
C1328 N1335 1.356 . S
C1329 C1328 1.363 . S
C1329 C1332 1.363 . S
N1330 C1332 1.356 . S
N1330 H1342 0.984 . S
N1330 H1343 0.985 . S
N1331 C1333 1.356 . S
N1331 H1336 0.984 . S
N1331 H1337 0.985 . S
C1332 C1326 1.379 . S
C1332 C1329 1.363 . S
C1332 N1330 1.356 . S
C1333 C1327 1.363 . S
C1333 C1328 1.379 . S
C1333 N1331 1.356 . S
N1334 C1326 1.356 . S
N1334 H1340 0.984 . S
N1334 H1341 0.984 . S
N1335 C1328 1.356 . S
N1335 H1338 0.984 . S
N1335 H1339 0.985 . S
H1336 N1331 0.984 . S
H1337 N1331 0.985 . S
H1338 N1335 0.984 . S
H1339 N1335 0.985 . S
H1340 N1334 0.984 . S
H1341 N1334 0.984 . S
H1342 N1330 0.984 . S
H1343 N1330 0.985 . S
C1344 C1345 1.363 . S
C1344 C1350 1.379 . S
C1344 N1352 1.356 . S
C1345 C1344 1.363 . S
C1345 C1351 1.363 . S
C1346 C1347 1.363 . S
C1346 C1351 1.379 . S
C1346 N1353 1.356 . S
C1347 C1346 1.363 . S
C1347 C1350 1.363 . S
N1348 C1350 1.356 . S
N1348 H1360 0.984 . S
N1348 H1361 0.985 . S
N1349 C1351 1.356 . S
N1349 H1354 0.984 . S
N1349 H1355 0.985 . S
C1350 C1344 1.379 . S
C1350 C1347 1.363 . S
C1350 N1348 1.356 . S
C1351 C1345 1.363 . S
C1351 C1346 1.379 . S
C1351 N1349 1.356 . S
N1352 C1344 1.356 . S
N1352 H1358 0.984 . S
N1352 H1359 0.984 . S
N1353 C1346 1.356 . S
N1353 H1356 0.984 . S
N1353 H1357 0.985 . S
H1354 N1349 0.984 . S
H1355 N1349 0.985 . S
H1356 N1353 0.984 . S
H1357 N1353 0.985 . S
H1358 N1352 0.984 . S
H1359 N1352 0.984 . S
H1360 N1348 0.984 . S
H1361 N1348 0.985 . S
C1362 C1363 1.363 . S
C1362 C1368 1.379 . S
C1362 N1370 1.356 . S
C1363 C1362 1.363 . S
C1363 C1369 1.363 . S
C1364 C1365 1.363 . S
C1364 C1369 1.379 . S
C1364 N1371 1.356 . S
C1365 C1364 1.363 . S
C1365 C1368 1.363 . S
N1366 C1368 1.356 . S
N1366 H1378 0.984 . S
N1366 H1379 0.985 . S
N1367 C1369 1.356 . S
N1367 H1372 0.984 . S
N1367 H1373 0.985 . S
C1368 C1362 1.379 . S
C1368 C1365 1.363 . S
C1368 N1366 1.356 . S
C1369 C1363 1.363 . S
C1369 C1364 1.379 . S
C1369 N1367 1.356 . S
N1370 C1362 1.356 . S
N1370 H1376 0.984 . S
N1370 H1377 0.984 . S
N1371 C1364 1.356 . S
N1371 H1374 0.984 . S
N1371 H1375 0.985 . S
H1372 N1367 0.984 . S
H1373 N1367 0.985 . S
H1374 N1371 0.984 . S
H1375 N1371 0.985 . S
H1376 N1370 0.984 . S
H1377 N1370 0.984 . S
H1378 N1366 0.984 . S
H1379 N1366 0.985 . S
C1380 C1381 1.363 . S
C1380 C1386 1.379 1_455 S
C1380 N1388 1.356 . S
C1381 C1380 1.363 . S
C1381 C1387 1.363 1_554 S
C1382 C1383 1.363 . S
C1382 C1387 1.379 1_655 S
C1382 N1389 1.356 . S
C1383 C1382 1.363 . S
C1383 C1386 1.363 1_556 S
N1384 C1386 1.356 . S
N1384 H1396 0.984 . S
N1384 H1397 0.985 1_554 S
N1385 C1387 1.356 1_554 S
N1385 H1390 0.983 . S
N1385 H1391 0.986 1_554 S
C1386 C1380 1.379 1_655 S
C1386 C1383 1.363 1_554 S
C1386 N1384 1.356 . S
C1387 C1381 1.363 1_556 S
C1387 C1382 1.379 1_455 S
C1387 N1385 1.356 1_556 S
N1388 C1380 1.356 . S
N1388 H1394 0.984 . S
N1388 H1395 0.984 . S
N1389 C1382 1.356 . S
N1389 H1392 0.984 . S
N1389 H1393 0.985 . S
H1390 N1385 0.983 . S
H1391 N1385 0.986 1_556 S
H1392 N1389 0.984 . S
H1393 N1389 0.985 . S
H1394 N1388 0.984 . S
H1395 N1388 0.984 . S
H1396 N1384 0.984 . S
H1397 N1384 0.985 1_556 S
C1398 C1399 1.363 1_556 S
C1398 C1404 1.379 . S
C1398 N1406 1.356 . S
C1399 C1398 1.363 1_554 S
C1399 C1405 1.363 . S
C1400 C1401 1.363 1_554 S
C1400 C1405 1.379 . S
C1400 N1407 1.356 . S
C1401 C1400 1.363 1_556 S
C1401 C1404 1.363 . S
N1402 C1404 1.356 . S
N1402 H1414 0.984 . S
N1402 H1415 0.985 . S
N1403 C1405 1.356 . S
N1403 H1408 0.984 . S
N1403 H1409 0.985 . S
C1404 C1398 1.379 . S
C1404 C1401 1.363 . S
C1404 N1402 1.356 . S
C1405 C1399 1.363 . S
C1405 C1400 1.379 . S
C1405 N1403 1.356 . S
N1406 C1398 1.356 . S
N1406 H1412 0.984 . S
N1406 H1413 0.984 1_556 S
N1407 C1400 1.356 . S
N1407 H1410 0.984 1_554 S
N1407 H1411 0.985 . S
H1408 N1403 0.984 . S
H1409 N1403 0.985 . S
H1410 N1407 0.984 1_556 S
H1411 N1407 0.985 . S
H1412 N1406 0.984 . S
H1413 N1406 0.984 1_554 S
H1414 N1402 0.984 . S
H1415 N1402 0.985 . S
C1416 C1417 1.363 . S
C1416 C1422 1.379 1_554 S
C1416 N1424 1.356 . S
C1417 C1416 1.363 . S
C1417 C1423 1.363 1_565 S
C1418 C1419 1.363 . S
C1418 C1423 1.379 1_556 S
C1418 N1425 1.356 . S
C1419 C1418 1.363 . S
C1419 C1422 1.363 1_545 S
N1420 C1422 1.356 . S
N1420 H1432 0.984 . S
N1420 H1433 0.985 1_565 S
N1421 C1423 1.356 . S
N1421 H1426 0.984 1_545 S
N1421 H1427 0.985 . S
C1422 C1416 1.379 1_556 S
C1422 C1419 1.363 1_565 S
C1422 N1420 1.356 . S
C1423 C1417 1.363 1_545 S
C1423 C1418 1.379 1_554 S
C1423 N1421 1.356 . S
N1424 C1416 1.356 . S
N1424 H1430 0.984 . S
N1424 H1431 0.984 . S
N1425 C1418 1.356 . S
N1425 H1428 0.984 . S
N1425 H1429 0.985 . S
H1426 N1421 0.984 1_565 S
H1427 N1421 0.985 . S
H1428 N1425 0.984 . S
H1429 N1425 0.985 . S
H1430 N1424 0.984 . S
H1431 N1424 0.984 . S
H1432 N1420 0.984 . S
H1433 N1420 0.985 1_545 S
C1434 C1435 1.363 . S
C1434 C1440 1.379 . S
C1434 N1442 1.356 . S
C1435 C1434 1.363 . S
C1435 C1441 1.363 1_565 S
C1436 C1437 1.363 . S
C1436 C1441 1.379 . S
C1436 N1443 1.356 . S
C1437 C1436 1.363 . S
C1437 C1440 1.363 1_545 S
N1438 C1440 1.356 . S
N1438 H1450 0.984 . S
N1438 H1451 0.985 . S
N1439 C1441 1.356 . S
N1439 H1444 0.984 . S
N1439 H1445 0.985 . S
C1440 C1434 1.379 . S
C1440 C1437 1.363 1_565 S
C1440 N1438 1.356 . S
C1441 C1435 1.363 1_545 S
C1441 C1436 1.379 . S
C1441 N1439 1.356 . S
N1442 C1434 1.356 . S
N1442 H1448 0.984 . S
N1442 H1449 0.984 . S
N1443 C1436 1.356 . S
N1443 H1446 0.984 . S
N1443 H1447 0.985 . S
H1444 N1439 0.984 . S
H1445 N1439 0.985 . S
H1446 N1443 0.984 . S
H1447 N1443 0.985 . S
H1448 N1442 0.984 . S
H1449 N1442 0.984 . S
H1450 N1438 0.984 . S
H1451 N1438 0.985 . S
C1452 C1453 1.363 1_455 S
C1452 C1458 1.379 . S
C1452 N1460 1.356 . S
C1453 C1452 1.363 1_655 S
C1453 C1459 1.363 . S
C1454 C1455 1.363 1_655 S
C1454 C1459 1.379 . S
C1454 N1461 1.356 . S
C1455 C1454 1.363 1_455 S
C1455 C1458 1.363 . S
N1456 C1458 1.356 . S
N1456 H1468 0.984 . S
N1456 H1469 0.985 . S
N1457 C1459 1.356 . S
N1457 H1462 0.984 . S
N1457 H1463 0.985 . S
C1458 C1452 1.379 . S
C1458 C1455 1.363 . S
C1458 N1456 1.356 . S
C1459 C1453 1.363 . S
C1459 C1454 1.379 . S
C1459 N1457 1.356 . S
N1460 C1452 1.356 . S
N1460 H1466 0.984 . S
N1460 H1467 1.000 . S
N1461 C1454 1.356 . S
N1461 H1464 0.995 . S
N1461 H1465 0.985 . S
H1462 N1457 0.984 . S
H1463 N1457 0.985 . S
H1464 N1461 0.995 . S
H1465 N1461 0.985 . S
H1466 N1460 0.984 . S
H1467 N1460 1.000 . S
H1468 N1456 0.984 . S
H1469 N1456 0.985 . S
C1470 C1471 1.363 . S
C1470 C1476 1.379 . S
C1470 N1478 1.356 . S
C1471 C1470 1.363 . S
C1471 C1477 1.363 . S
C1472 C1473 1.363 . S
C1472 C1477 1.379 . S
C1472 N1479 1.356 . S
C1473 C1472 1.363 . S
C1473 C1476 1.363 . S
N1474 C1476 1.356 . S
N1474 H1486 0.984 . S
N1474 H1487 0.985 . S
N1475 C1477 1.356 . S
N1475 H1480 0.984 . S
N1475 H1481 0.985 . S
C1476 C1470 1.379 . S
C1476 C1473 1.363 . S
C1476 N1474 1.356 . S
C1477 C1471 1.363 . S
C1477 C1472 1.379 . S
C1477 N1475 1.356 . S
N1478 C1470 1.356 . S
N1478 H1484 0.984 . S
N1478 H1485 0.984 . S
N1479 C1472 1.356 . S
N1479 H1482 0.984 . S
N1479 H1483 0.985 . S
H1480 N1475 0.984 . S
H1481 N1475 0.985 . S
H1482 N1479 0.984 . S
H1483 N1479 0.985 . S
H1484 N1478 0.984 . S
H1485 N1478 0.984 . S
H1486 N1474 0.984 . S
H1487 N1474 0.985 . S
C1057 C49 0.538 . S
C1059 C636 0.590 . S
C1075 C145 0.538 . S
C1077 C753 0.589 . S
C1093 C233 0.539 . S
C1095 C577 0.601 . S
C1111 C997 0.601 . S
C1113 C284 0.539 . S
C1129 C372 0.538 . S
C1131 C849 0.589 . S
C1147 C900 0.590 . S
C1149 C469 0.538 . S
C1165 C137 0.588 . S
C1167 C548 0.544 . S
C1183 C673 0.519 . S
C1185 C225 0.578 . S
C1201 C57 0.588 . S
C1203 C733 0.531 . S
C1219 C812 0.531 . S
C1221 C460 0.588 . S
C1237 C937 0.519 . S
C1239 C293 0.578 . S
C1255 C381 0.588 . S
C1257 C1025 0.544 . S
C1273 C489 2.803 . S
C1275 C29 2.803 . S
C1291 C108 2.792 . S
C1293 C321 2.794 . S
C1309 C196 2.793 . S
C1311 C409 2.792 . S
C1327 C585 2.806 . S
C1329 C988 2.806 . S
C1345 C665 2.778 . S
C1347 C821 2.780 . S
C1363 C724 2.780 . S
C1365 C929 2.778 . S
C1381 C20 1.978 . S
C1383 C557 1.991 . S
C1399 C117 1.973 . S
C1401 C645 1.963 . S
C1417 C205 1.971 . S
C1419 C761 1.961 . S
C1435 C313 1.971 . S
C1437 C841 1.961 . S
C1453 C909 1.962 . S
C1455 C401 1.973 . S
C1471 C497 1.978 . S
C1473 C1017 1.991 . S
