# Generated by pormake.
# Topology qtz-h, (3)-cn, num edge types: 1
# Building blocks:
#     Node 0, Type 0, BuildingBlock: OLANEW_clean_sbu_2, # of connection points: 3
#     Node 1, Type 0, BuildingBlock: OLANEW_clean_sbu_2, # of connection points: 3
#     Node 2, Type 0, BuildingBlock: OLANEW_clean_sbu_2, # of connection points: 3
#     Node 3, Type 0, BuildingBlock: OLANEW_clean_sbu_2, # of connection points: 3
#     Node 4, Type 0, BuildingBlock: OLANEW_clean_sbu_2, # of connection points: 3
#     Node 5, Type 0, BuildingBlock: OLANEW_clean_sbu_2, # of connection points: 3
#     Node 6, Type 0, BuildingBlock: OLANEW_clean_sbu_2, # of connection points: 3
#     Node 7, Type 0, BuildingBlock: OLANEW_clean_sbu_2, # of connection points: 3
#     Node 8, Type 0, BuildingBlock: OLANEW_clean_sbu_2, # of connection points: 3
#     Node 9, Type 0, BuildingBlock: OLANEW_clean_sbu_2, # of connection points: 3
#     Node 10, Type 0, BuildingBlock: OLANEW_clean_sbu_2, # of connection points: 3
#     Node 11, Type 0, BuildingBlock: OLANEW_clean_sbu_2, # of connection points: 3
#     Edge 12, Type (0, 0), BuildingBlock: ZUJKAS_clean_linker_0, # of connection points: 2
#     Edge 13, Type (0, 0), BuildingBlock: ZUJKAS_clean_linker_0, # of connection points: 2
#     Edge 14, Type (0, 0), BuildingBlock: ZUJKAS_clean_linker_0, # of connection points: 2
#     Edge 15, Type (0, 0), BuildingBlock: ZUJKAS_clean_linker_0, # of connection points: 2
#     Edge 16, Type (0, 0), BuildingBlock: ZUJKAS_clean_linker_0, # of connection points: 2
#     Edge 17, Type (0, 0), BuildingBlock: ZUJKAS_clean_linker_0, # of connection points: 2
#     Edge 18, Type (0, 0), BuildingBlock: ZUJKAS_clean_linker_0, # of connection points: 2
#     Edge 19, Type (0, 0), BuildingBlock: ZUJKAS_clean_linker_0, # of connection points: 2
#     Edge 20, Type (0, 0), BuildingBlock: ZUJKAS_clean_linker_0, # of connection points: 2
#     Edge 21, Type (0, 0), BuildingBlock: ZUJKAS_clean_linker_0, # of connection points: 2
#     Edge 22, Type (0, 0), BuildingBlock: ZUJKAS_clean_linker_0, # of connection points: 2
#     Edge 23, Type (0, 0), BuildingBlock: ZUJKAS_clean_linker_0, # of connection points: 2
#     Edge 24, Type (0, 0), BuildingBlock: ZUJKAS_clean_linker_0, # of connection points: 2
#     Edge 25, Type (0, 0), BuildingBlock: ZUJKAS_clean_linker_0, # of connection points: 2
#     Edge 26, Type (0, 0), BuildingBlock: ZUJKAS_clean_linker_0, # of connection points: 2
#     Edge 27, Type (0, 0), BuildingBlock: ZUJKAS_clean_linker_0, # of connection points: 2
#     Edge 28, Type (0, 0), BuildingBlock: ZUJKAS_clean_linker_0, # of connection points: 2
#     Edge 29, Type (0, 0), BuildingBlock: ZUJKAS_clean_linker_0, # of connection points: 2
# Relax obj value: 0.007
# Max RMSD: 0.036
# Mean RMSD: 0.036
data_MOF--net-qtz-h--node1-OLANEW_clean_sbu_2--edge1-ZUJKAS_clean_linker_0
_symmetry_space_group_name_H-M    P1
_symmetry_Int_Tables_number       1
_symmetry_cell_setting            triclinic
loop_
_symmetry_equiv_pos_as_xyz
'x, y, z'
_cell_length_a     75.252132
_cell_length_b     75.250788
_cell_length_c     88.650597
_cell_angle_alpha  90.007934
_cell_angle_beta   89.997906
_cell_angle_gamma 119.9972
loop_
_atom_site_label
_atom_site_type_symbol
_atom_site_fract_x
_atom_site_fract_y
_atom_site_fract_z
_atom_type_partial_charge
O0 O 0.64574 0.21691 0.08004 0.0
Cd1 Cd 0.65998 0.22164 0.10545 0.0
O2 O 0.62656 0.18407 0.08469 0.0
Cd3 Cd 0.60235 0.15254 0.0801 0.0
O4 O 0.5784 0.12045 0.07779 0.0
C5 C 0.58258 0.10643 0.08081 0.0
O6 O 0.60132 0.11168 0.08503 0.0
C7 C 0.63241 0.19908 0.07563 0.0
C8 C 0.65631 0.25142 0.12164 0.0
O9 O 0.67208 0.25624 0.1134 0.0
O10 O 0.64224 0.2325 0.12219 0.0
O11 O 0.42563 0.63981 0.41254 0.0
Cd12 Cd 0.43586 0.65177 0.43843 0.0
O13 O 0.43419 0.61632 0.41642 0.0
Cd14 Cd 0.44038 0.59185 0.41003 0.0
O15 O 0.4496 0.56879 0.4069 0.0
C16 C 0.4607 0.56722 0.41702 0.0
O17 O 0.46608 0.57943 0.42879 0.0
C18 C 0.42722 0.62479 0.40766 0.0
C19 C 0.40465 0.65275 0.45473 0.0
O20 O 0.41753 0.66828 0.44699 0.0
O21 O 0.4065 0.63672 0.45472 0.0
O22 O 0.78628 0.43596 0.74895 0.0
Cd23 Cd 0.78148 0.44592 0.77419 0.0
O24 O 0.81879 0.44799 0.75406 0.0
Cd25 Cd 0.84976 0.45337 0.74991 0.0
O26 O 0.88132 0.45979 0.74773 0.0
C27 C 0.8941 0.4747 0.73967 0.0
O28 O 0.88795 0.48595 0.73251 0.0
C29 C 0.8039 0.43944 0.74483 0.0
C30 C 0.75223 0.41231 0.79055 0.0
O31 O 0.74705 0.42289 0.7822 0.0
O32 O 0.77128 0.41766 0.79117 0.0
O33 O 0.35494 0.78597 0.07951 0.0
Cd34 Cd 0.34349 0.78458 0.10551 0.0
O35 O 0.37937 0.81762 0.08342 0.0
Cd36 Cd 0.40455 0.84797 0.07715 0.0
O37 O 0.42815 0.88013 0.07444 0.0
C38 C 0.42593 0.89355 0.08156 0.0
O39 O 0.40958 0.88753 0.09004 0.0
C40 C 0.3703 0.80229 0.07461 0.0
C41 C 0.34379 0.75322 0.12209 0.0
O42 O 0.32797 0.74998 0.11446 0.0
O43 O 0.35952 0.77131 0.12183 0.0
O44 O 0.57176 0.35374 0.41485 0.0
Cd45 Cd 0.56204 0.3395 0.44025 0.0
O46 O 0.55773 0.37262 0.41942 0.0
Cd47 Cd 0.55012 0.39661 0.41479 0.0
O48 O 0.54157 0.42029 0.41277 0.0
C49 C 0.52291 0.41516 0.4106 0.0
O50 O 0.50917 0.3956 0.40933 0.0
C51 C 0.56709 0.36694 0.4104 0.0
C52 C 0.59535 0.34329 0.45673 0.0
O53 O 0.5845 0.32748 0.44849 0.0
O54 O 0.59047 0.35735 0.45713 0.0
O55 O 0.21445 0.56593 0.74143 0.0
Cd56 Cd 0.21704 0.55488 0.76686 0.0
O57 O 0.18276 0.55799 0.7462 0.0
Cd58 Cd 0.1522 0.55284 0.74067 0.0
O59 O 0.12035 0.54516 0.73757 0.0
C60 C 0.10631 0.52915 0.74394 0.0
O61 O 0.11147 0.5178 0.75204 0.0
C62 C 0.19787 0.56493 0.73713 0.0
C63 C 0.24625 0.58722 0.78426 0.0
O64 O 0.25122 0.57637 0.77604 0.0
O65 O 0.22744 0.58279 0.78423 0.0
O66 O 0.79112 0.36196 0.58849 0.0
Cd67 Cd 0.78804 0.34796 0.56313 0.0
O68 O 0.82456 0.37779 0.58617 0.0
Cd69 Cd 0.85628 0.39917 0.59279 0.0
O70 O 0.88868 0.421 0.59688 0.0
C71 C 0.90203 0.42065 0.5883 0.0
O72 O 0.89588 0.40703 0.57738 0.0
C73 C 0.8088 0.37355 0.59405 0.0
C74 C 0.75734 0.34923 0.54635 0.0
O75 O 0.75335 0.3337 0.55462 0.0
O76 O 0.77588 0.36419 0.54604 0.0
O77 O 0.42826 0.78044 0.91684 0.0
Cd78 Cd 0.43661 0.77722 0.8907 0.0
O79 O 0.43193 0.81046 0.91128 0.0
Cd80 Cd 0.43479 0.8402 0.91647 0.0
O81 O 0.44127 0.87171 0.91933 0.0
C82 C 0.45639 0.88415 0.92738 0.0
O83 O 0.46755 0.87757 0.93415 0.0
C84 C 0.42796 0.79647 0.92095 0.0
C85 C 0.40328 0.74671 0.87483 0.0
O86 O 0.41535 0.74259 0.88232 0.0
O87 O 0.4069 0.76526 0.87495 0.0
O88 O 0.63829 0.42954 0.25228 0.0
Cd89 Cd 0.65092 0.44024 0.2266 0.0
O90 O 0.62045 0.44516 0.25017 0.0
Cd91 Cd 0.59791 0.45385 0.2571 0.0
O92 O 0.5754 0.46349 0.2614 0.0
C93 C 0.57545 0.47717 0.25296 0.0
O94 O 0.58911 0.48507 0.24209 0.0
C95 C 0.62606 0.43468 0.25804 0.0
C96 C 0.65006 0.40845 0.20983 0.0
O97 O 0.66581 0.42053 0.21772 0.0
O98 O 0.63469 0.4114 0.20988 0.0
O99 O 0.2166 0.65562 0.58375 0.0
Cd100 Cd 0.22036 0.66902 0.55813 0.0
O101 O 0.18715 0.62915 0.57725 0.0
Cd102 Cd 0.15777 0.60131 0.58145 0.0
O103 O 0.1266 0.57544 0.58363 0.0
C104 C 0.11523 0.57474 0.59447 0.0
O105 O 0.12267 0.58956 0.60453 0.0
C106 C 0.20078 0.63874 0.58724 0.0
C107 C 0.24983 0.6652 0.54161 0.0
O108 O 0.25475 0.68116 0.54966 0.0
O109 O 0.23094 0.651 0.54141 0.0
O110 O 0.57324 0.20937 0.91692 0.0
Cd111 Cd 0.56356 0.21194 0.89105 0.0
O112 O 0.5566 0.17589 0.91478 0.0
Cd113 Cd 0.54677 0.14441 0.92179 0.0
O114 O 0.5366 0.11217 0.92623 0.0
C115 C 0.51993 0.09842 0.92037 0.0
O116 O 0.5092 0.10406 0.912 0.0
C117 C 0.56735 0.19185 0.92271 0.0
C118 C 0.59568 0.24406 0.87535 0.0
O119 O 0.58289 0.24695 0.883 0.0
O120 O 0.59328 0.22595 0.87513 0.0
O121 O 0.34503 0.5632 0.25092 0.0
Cd122 Cd 0.33303 0.5548 0.22488 0.0
O123 O 0.37155 0.56 0.245 0.0
Cd124 Cd 0.39883 0.55768 0.2498 0.0
O125 O 0.42429 0.55173 0.25197 0.0
C126 C 0.42397 0.53957 0.26206 0.0
O127 O 0.40835 0.53105 0.27141 0.0
C128 C 0.36156 0.56377 0.25482 0.0
C129 C 0.33654 0.58843 0.20903 0.0
O130 O 0.32035 0.5767 0.21664 0.0
O131 O 0.35113 0.58431 0.20898 0.0
H132 H 0.6196 0.38131 0.19115 0.0
H133 H 0.61915 0.35365 0.1763 0.0
H134 H 0.67917 0.37008 0.19322 0.0
H135 H 0.67972 0.39766 0.20818 0.0
H136 H 0.64733 0.35695 0.15381 0.0
H137 H 0.6446 0.30792 0.20156 0.0
H138 H 0.6387 0.32829 0.20374 0.0
H139 H 0.66494 0.33415 0.20276 0.0
C140 C 0.63267 0.37899 0.19177 0.0
C141 C 0.64967 0.39164 0.20089 0.0
C142 C 0.63239 0.3632 0.18327 0.0
C143 C 0.649 0.35968 0.18383 0.0
C144 C 0.66603 0.37233 0.19285 0.0
H145 H 0.68303 0.29279 0.12214 0.0
H146 H 0.6803 0.31876 0.13692 0.0
C147 C 0.66636 0.38815 0.20132 0.0
C148 C 0.64877 0.3431 0.17468 0.0
H149 H 0.65097 0.29897 0.17724 0.0
C150 C 0.64802 0.34421 0.15891 0.0
C151 C 0.64942 0.32639 0.1814 0.0
C152 C 0.64927 0.32393 0.1983 0.0
C153 C 0.64842 0.32928 0.14965 0.0
C154 C 0.64984 0.31299 0.15636 0.0
C155 C 0.65007 0.3116 0.17213 0.0
C156 C 0.65128 0.29729 0.1472 0.0
C157 C 0.64716 0.33098 0.13277 0.0
C158 C 0.63605 0.27657 0.1483 0.0
C159 C 0.63758 0.26167 0.13991 0.0
C160 C 0.65449 0.26722 0.13036 0.0
C161 C 0.66977 0.28801 0.12934 0.0
C162 C 0.66819 0.30289 0.13772 0.0
H163 H 0.64093 0.34111 0.12966 0.0
H164 H 0.66278 0.33763 0.12788 0.0
H165 H 0.63737 0.31565 0.12761 0.0
H166 H 0.62293 0.27194 0.15563 0.0
H167 H 0.62558 0.24579 0.14098 0.0
H168 H 0.39603 0.68396 0.45614 0.0
H169 H 0.36934 0.68526 0.47105 0.0
H170 H 0.34941 0.62444 0.488 0.0
H171 H 0.37614 0.62302 0.4732 0.0
H172 H 0.32605 0.65805 0.47011 0.0
H173 H 0.35935 0.65959 0.52641 0.0
H174 H 0.37396 0.66508 0.50917 0.0
H175 H 0.3559 0.63903 0.5142 0.0
C176 C 0.386 0.67086 0.46305 0.0
C177 C 0.38827 0.65342 0.46354 0.0
C178 C 0.37075 0.67163 0.47154 0.0
C179 C 0.3576 0.65506 0.48075 0.0
C180 C 0.35964 0.63752 0.48114 0.0
H181 H 0.24391 0.63414 0.52249 0.0
H182 H 0.26982 0.63135 0.50763 0.0
C183 C 0.37485 0.63671 0.47262 0.0
C184 C 0.34166 0.65611 0.48985 0.0
H185 H 0.32663 0.6569 0.52607 0.0
C186 C 0.32614 0.65778 0.48235 0.0
C187 C 0.34198 0.65597 0.5058 0.0
C188 C 0.35876 0.655 0.51443 0.0
C189 C 0.31079 0.65914 0.49039 0.0
C190 C 0.31091 0.65862 0.50633 0.0
C191 C 0.32652 0.65713 0.51384 0.0
C192 C 0.29521 0.66012 0.51544 0.0
C193 C 0.2948 0.66152 0.48178 0.0
C194 C 0.301 0.67701 0.52499 0.0
C195 C 0.28626 0.67864 0.53351 0.0
C196 C 0.26547 0.66331 0.53273 0.0
C197 C 0.25978 0.64625 0.52331 0.0
C198 C 0.27453 0.64467 0.51475 0.0
H199 H 0.29946 0.66618 0.46989 0.0
H200 H 0.2802 0.64664 0.48172 0.0
H201 H 0.29187 0.67309 0.48725 0.0
H202 H 0.31691 0.68904 0.52572 0.0
H203 H 0.29117 0.69194 0.54069 0.0
H204 H 0.62429 0.24243 0.85725 0.0
H205 H 0.6521 0.27063 0.84321 0.0
H206 H 0.63311 0.31226 0.86019 0.0
H207 H 0.60537 0.28423 0.87435 0.0
H208 H 0.64867 0.2955 0.82089 0.0
H209 H 0.69501 0.34152 0.86972 0.0
H210 H 0.67521 0.31494 0.8714 0.0
H211 H 0.66849 0.33473 0.87044 0.0
C212 C 0.62608 0.2576 0.85807 0.0
C213 C 0.61265 0.26111 0.86696 0.0
C214 C 0.64197 0.27368 0.85003 0.0
C215 C 0.64481 0.29356 0.85083 0.0
C216 C 0.6314 0.2971 0.85964 0.0
H217 H 0.71068 0.39652 0.79074 0.0
H218 H 0.68502 0.36716 0.80516 0.0
C219 C 0.61549 0.28103 0.86766 0.0
C220 C 0.6614 0.31048 0.84208 0.0
H221 H 0.70433 0.3576 0.84564 0.0
C222 C 0.66091 0.30904 0.82628 0.0
C223 C 0.67746 0.32798 0.84918 0.0
C224 C 0.67927 0.32988 0.86612 0.0
C225 C 0.67581 0.32491 0.81736 0.0
C226 C 0.69141 0.34276 0.82445 0.0
C227 C 0.69221 0.34397 0.84025 0.0
C228 C 0.70697 0.36044 0.81564 0.0
C229 C 0.67481 0.3224 0.80045 0.0
C230 C 0.72784 0.36663 0.817 0.0
C231 C 0.74257 0.38344 0.80881 0.0
C232 C 0.73666 0.39447 0.7992 0.0
C233 C 0.71573 0.38831 0.79798 0.0
C234 C 0.70103 0.37147 0.80615 0.0
H235 H 0.66529 0.30606 0.79707 0.0
H236 H 0.66781 0.33102 0.7955 0.0
H237 H 0.6904 0.32862 0.79558 0.0
H238 H 0.73272 0.35836 0.82434 0.0
H239 H 0.75856 0.38782 0.81003 0.0
H240 H 0.30894 0.60196 0.20795 0.0
H241 H 0.31128 0.63049 0.19313 0.0
H242 H 0.37008 0.64331 0.17584 0.0
H243 H 0.36787 0.61474 0.19056 0.0
H244 H 0.34267 0.67293 0.19383 0.0
H245 H 0.33534 0.63694 0.13767 0.0
H246 H 0.32845 0.62239 0.15501 0.0
H247 H 0.35494 0.63783 0.14977 0.0
C248 C 0.32238 0.61084 0.201 0.0
C249 C 0.33817 0.60601 0.20037 0.0
C250 C 0.3237 0.62714 0.19256 0.0
C251 C 0.34073 0.63881 0.18327 0.0
C252 C 0.35666 0.63426 0.18278 0.0
H253 H 0.37413 0.75579 0.14057 0.0
H254 H 0.37384 0.7283 0.15553 0.0
C255 C 0.3554 0.61799 0.19125 0.0
C256 C 0.34177 0.65577 0.17413 0.0
H257 H 0.34203 0.67118 0.13787 0.0
C258 C 0.34256 0.6726 0.18159 0.0
C259 C 0.34143 0.65514 0.15819 0.0
C260 C 0.33983 0.63706 0.14963 0.0
C261 C 0.34316 0.68893 0.17351 0.0
C262 C 0.34313 0.68843 0.15756 0.0
C263 C 0.3422 0.67154 0.1501 0.0
C264 C 0.34348 0.70506 0.1484 0.0
C265 C 0.34339 0.70637 0.18207 0.0
C266 C 0.32668 0.70097 0.13922 0.0
C267 C 0.32679 0.71661 0.13065 0.0
C268 C 0.34381 0.73661 0.13102 0.0
C269 C 0.36075 0.74058 0.14008 0.0
C270 C 0.36059 0.72493 0.14869 0.0
H271 H 0.33895 0.70236 0.19407 0.0
H272 H 0.3591 0.7199 0.18176 0.0
H273 H 0.33281 0.71085 0.1768 0.0
H274 H 0.31337 0.6857 0.13882 0.0
H275 H 0.31353 0.71302 0.12376 0.0
H276 H 0.76127 0.37937 0.52706 0.0
H277 H 0.73432 0.38005 0.51203 0.0
H278 H 0.68985 0.32107 0.53001 0.0
H279 H 0.7166 0.3203 0.54517 0.0
H280 H 0.70909 0.35163 0.49002 0.0
H281 H 0.66333 0.35675 0.53717 0.0
H282 H 0.68937 0.36207 0.53954 0.0
H283 H 0.66856 0.33601 0.53887 0.0
C284 C 0.74574 0.36658 0.52788 0.0
C285 C 0.74106 0.34981 0.53735 0.0
C286 C 0.73038 0.367 0.51927 0.0
C287 C 0.71007 0.35074 0.52007 0.0
C288 C 0.70536 0.33394 0.52945 0.0
H289 H 0.60971 0.31636 0.45784 0.0
H290 H 0.63822 0.31916 0.47291 0.0
C291 C 0.7207 0.33349 0.53804 0.0
C292 C 0.69389 0.35105 0.51075 0.0
H293 H 0.64792 0.34968 0.51283 0.0
C294 C 0.69576 0.35132 0.49499 0.0
C295 C 0.67668 0.3509 0.51728 0.0
C296 C 0.67438 0.35161 0.53414 0.0
C297 C 0.68058 0.35091 0.48556 0.0
C298 C 0.66297 0.34995 0.4921 0.0
C299 C 0.66136 0.35022 0.50786 0.0
C300 C 0.64594 0.34846 0.48278 0.0
C301 C 0.68357 0.35167 0.4687 0.0
C302 C 0.64059 0.36381 0.48357 0.0
C303 C 0.62424 0.36223 0.47502 0.0
C304 C 0.61286 0.34516 0.46561 0.0
C305 C 0.61822 0.32975 0.46491 0.0
C306 C 0.63458 0.33137 0.47345 0.0
H307 H 0.69993 0.35774 0.46565 0.0
H308 H 0.67456 0.33593 0.46403 0.0
H309 H 0.67813 0.36138 0.46325 0.0
H310 H 0.64911 0.37706 0.49077 0.0
H311 H 0.62048 0.37433 0.47584 0.0
H312 H 0.24015 0.61177 0.80387 0.0
H313 H 0.2659 0.63988 0.81928 0.0
H314 H 0.31301 0.62929 0.80123 0.0
H315 H 0.28746 0.60126 0.78573 0.0
H316 H 0.29227 0.63798 0.84132 0.0
H317 H 0.33581 0.69133 0.79466 0.0
H318 H 0.31031 0.66965 0.79218 0.0
H319 H 0.33212 0.66595 0.79254 0.0
C320 C 0.25601 0.61547 0.80312 0.0
C321 C 0.26177 0.60432 0.79353 0.0
C322 C 0.27067 0.63152 0.81195 0.0
C323 C 0.29137 0.63681 0.81124 0.0
C324 C 0.29717 0.62567 0.80174 0.0
H325 H 0.39106 0.7059 0.87314 0.0
H326 H 0.36299 0.67951 0.85814 0.0
C327 C 0.28252 0.60959 0.79295 0.0
C328 C 0.30685 0.65364 0.82072 0.0
H329 H 0.35114 0.69993 0.81901 0.0
C330 C 0.30508 0.65159 0.83646 0.0
C331 C 0.32339 0.67147 0.81433 0.0
C332 C 0.3255 0.6749 0.79751 0.0
C333 C 0.31976 0.66667 0.84601 0.0
C334 C 0.33673 0.68411 0.83961 0.0
C335 C 0.33819 0.68644 0.82387 0.0
C336 C 0.35333 0.7 0.84903 0.0
C337 C 0.31694 0.66388 0.86286 0.0
C338 C 0.3574 0.72034 0.84868 0.0
C339 C 0.37347 0.73549 0.85721 0.0
C340 C 0.38588 0.73058 0.86613 0.0
C341 C 0.38175 0.71018 0.86643 0.0
C342 C 0.36564 0.69504 0.85794 0.0
H343 H 0.30079 0.65268 0.8659 0.0
H344 H 0.32682 0.658 0.86727 0.0
H345 H 0.32146 0.6787 0.86854 0.0
H346 H 0.34812 0.72448 0.8418 0.0
H347 H 0.37628 0.75106 0.85669 0.0
H348 H 0.42587 0.92571 0.09581 0.0
H349 H 0.45212 0.96199 0.09468 0.0
H350 H 0.48798 0.94759 0.06437 0.0
H351 H 0.46169 0.91125 0.06529 0.0
H352 H 0.49329 0.97962 0.10297 0.0
H353 H 0.48527 0.99449 0.04271 0.0
H354 H 0.4661 0.97209 0.0526 0.0
H355 H 0.48912 0.97308 0.04592 0.0
C356 C 0.43927 0.93024 0.08882 0.0
C357 C 0.44166 0.91558 0.08061 0.0
C358 C 0.45425 0.95098 0.0882 0.0
C359 C 0.47185 0.95749 0.0793 0.0
C360 C 0.47432 0.94293 0.07109 0.0
H361 H 0.58636 0.07292 0.08715 0.0
H362 H 0.55949 0.03682 0.08661 0.0
C363 C 0.45933 0.92215 0.0717 0.0
C364 C 0.48795 0.97943 0.0791 0.0
H365 H 0.51356 0.02097 0.05598 0.0
C366 C 0.49771 0.98869 0.09271 0.0
C367 C 0.49349 0.99125 0.06572 0.0
C368 C 0.48285 0.98232 0.05092 0.0
C369 C 0.51309 0.0094 0.09327 0.0
C370 C 0.51905 0.02106 0.07982 0.0
C371 C 0.50908 0.01191 0.06624 0.0
C372 C 0.53546 0.04288 0.07967 0.0
C373 C 0.52261 0.01872 0.1083 0.0
C374 C 0.53095 0.05819 0.07555 0.0
C375 C 0.54629 0.07885 0.07578 0.0
C376 C 0.56645 0.08453 0.08007 0.0
C377 C 0.57098 0.06909 0.08389 0.0
C378 C 0.55563 0.04845 0.08366 0.0
H379 H 0.51297 0.00932 0.11788 0.0
H380 H 0.53778 0.0197 0.10922 0.0
H381 H 0.52501 0.03448 0.10937 0.0
H382 H 0.51548 0.05417 0.07237 0.0
H383 H 0.54229 0.09035 0.07272 0.0
H384 H 0.5474 0.45682 0.41304 0.0
H385 H 0.53669 0.48263 0.41344 0.0
H386 H 0.4737 0.43515 0.4074 0.0
H387 H 0.48418 0.40919 0.40712 0.0
H388 H 0.51497 0.49183 0.39151 0.0
H389 H 0.47251 0.46574 0.44571 0.0
H390 H 0.4904 0.45788 0.43951 0.0
H391 H 0.46501 0.44606 0.43164 0.0
C392 C 0.53126 0.45185 0.41177 0.0
C393 C 0.51662 0.43092 0.41016 0.0
C394 C 0.52519 0.46663 0.41198 0.0
C395 C 0.50439 0.46075 0.41067 0.0
C396 C 0.48979 0.43995 0.4087 0.0
H397 H 0.45269 0.53983 0.39404 0.0
H398 H 0.46355 0.5142 0.39213 0.0
C399 C 0.49584 0.42515 0.40848 0.0
C400 C 0.49797 0.47639 0.41148 0.0
H401 H 0.46971 0.49149 0.43236 0.0
C402 C 0.50508 0.49179 0.40043 0.0
C403 C 0.48528 0.4764 0.42325 0.0
C404 C 0.47797 0.46076 0.43579 0.0
C405 C 0.49961 0.50711 0.40073 0.0
C406 C 0.48652 0.50682 0.4123 0.0
C407 C 0.47961 0.49155 0.42343 0.0
C408 C 0.48015 0.52249 0.41327 0.0
C409 C 0.5082 0.52369 0.38886 0.0
C410 C 0.48556 0.53536 0.42592 0.0
C411 C 0.47932 0.54995 0.42708 0.0
C412 C 0.46741 0.55184 0.41565 0.0
C413 C 0.46192 0.53883 0.40301 0.0
C414 C 0.4682 0.52426 0.40185 0.0
H415 H 0.52166 0.52451 0.38303 0.0
H416 H 0.49621 0.52036 0.38027 0.0
H417 H 0.51284 0.53891 0.3939 0.0
H418 H 0.4947 0.53417 0.43488 0.0
H419 H 0.48379 0.55968 0.43698 0.0
H420 H 0.92564 0.5064 0.72443 0.0
H421 H 0.96166 0.51526 0.72371 0.0
H422 H 0.94776 0.46366 0.75242 0.0
H423 H 0.91171 0.45454 0.75311 0.0
H424 H 0.98822 0.52487 0.7485 0.0
H425 H 0.97981 0.45698 0.71753 0.0
H426 H 0.95992 0.46374 0.71787 0.0
H427 H 0.96337 0.45083 0.7337 0.0
C428 C 0.9302 0.49682 0.73049 0.0
C429 C 0.91578 0.47973 0.7388 0.0
C430 C 0.95079 0.50193 0.73008 0.0
C431 C 0.95731 0.48996 0.73784 0.0
C432 C 0.94297 0.47287 0.7461 0.0
H433 H 0.07289 0.49634 0.75658 0.0
H434 H 0.03696 0.48743 0.75469 0.0
C435 C 0.92239 0.46775 0.74655 0.0
C436 C 0.97927 0.49587 0.73787 0.0
H437 H 0.01226 0.47876 0.72888 0.0
C438 C 0.99353 0.51489 0.7441 0.0
C439 C 0.98609 0.48276 0.73216 0.0
C440 C 0.97155 0.46251 0.72481 0.0
C441 C 0.01442 0.52094 0.74513 0.0
C442 C 0.02122 0.50776 0.73953 0.0
C443 C 0.00698 0.48881 0.73318 0.0
C444 C 0.04302 0.51317 0.74042 0.0
C445 C 0.02891 0.54111 0.75261 0.0
C446 C 0.05829 0.53045 0.73284 0.0
C447 C 0.07887 0.53563 0.73391 0.0
C448 C 0.0845 0.52352 0.74252 0.0
C449 C 0.06909 0.50603 0.74989 0.0
C450 C 0.04854 0.50089 0.74881 0.0
H451 H 0.02058 0.54697 0.75949 0.0
H452 H 0.04 0.53958 0.75998 0.0
H453 H 0.03773 0.5527 0.74381 0.0
H454 H 0.05429 0.53991 0.72606 0.0
H455 H 0.09033 0.54913 0.72802 0.0
H456 H 0.09518 0.54189 0.5755 0.0
H457 H 0.05897 0.51529 0.57615 0.0
H458 H 0.05006 0.54294 0.61591 0.0
H459 H 0.08623 0.56974 0.6153 0.0
H460 H 0.03607 0.48703 0.59961 0.0
H461 H 0.00641 0.5396 0.58595 0.0
H462 H 0.03291 0.54668 0.58318 0.0
H463 H 0.02361 0.54707 0.60177 0.0
C464 C 0.08555 0.54232 0.58441 0.0
C465 C 0.09357 0.55804 0.59529 0.0
C466 C 0.06488 0.52709 0.58477 0.0
C467 C 0.05182 0.52735 0.59594 0.0
C468 C 0.05984 0.54269 0.60704 0.0
H469 H 0.91991 0.451 0.60955 0.0
H470 H 0.9564 0.47625 0.61235 0.0
C471 C 0.08053 0.55793 0.60671 0.0
C472 C 0.02976 0.5116 0.59587 0.0
H473 H 0.98184 0.50513 0.59125 0.0
C474 C 0.02419 0.49095 0.5978 0.0
C475 C 0.01434 0.51683 0.59352 0.0
C476 C 0.01953 0.53871 0.59086 0.0
C477 C 0.00353 0.47534 0.59753 0.0
C478 C 0.98812 0.48053 0.59498 0.0
C479 C 0.99369 0.50121 0.59323 0.0
C480 C 0.96616 0.46472 0.59364 0.0
C481 C 0.99838 0.45346 0.60017 0.0
C482 C 0.95956 0.44998 0.58211 0.0
C483 C 0.93875 0.43554 0.58049 0.0
C484 C 0.92412 0.43565 0.5903 0.0
C485 C 0.93079 0.45046 0.60183 0.0
C486 C 0.95162 0.4649 0.60345 0.0
H487 H 0.011 0.45272 0.6061 0.0
H488 H 0.9841 0.44494 0.6069 0.0
H489 H 0.99596 0.44561 0.58913 0.0
H490 H 0.97047 0.44986 0.57421 0.0
H491 H 0.93414 0.42443 0.57144 0.0
H492 H 0.48883 0.91505 0.94249 0.0
H493 H 0.49898 0.95142 0.94319 0.0
H494 H 0.4472 0.93914 0.9152 0.0
H495 H 0.4368 0.90274 0.91454 0.0
H496 H 0.50899 0.97751 0.9182 0.0
H497 H 0.44331 0.97321 0.94982 0.0
H498 H 0.44881 0.95244 0.94957 0.0
H499 H 0.43602 0.9563 0.93385 0.0
C500 C 0.47947 0.92003 0.9366 0.0
C501 C 0.46198 0.90598 0.92846 0.0
C502 C 0.48531 0.94083 0.93701 0.0
C503 C 0.4737 0.94791 0.92941 0.0
C504 C 0.45615 0.93392 0.92139 0.0
H505 H 0.48563 0.06542 0.9088 0.0
H506 H 0.4749 0.0291 0.9116 0.0
C507 C 0.4503 0.91313 0.92096 0.0
C508 C 0.48058 0.97011 0.92916 0.0
H509 H 0.46583 0.00505 0.9379 0.0
C510 C 0.49966 0.98359 0.92263 0.0
C511 C 0.46831 0.97793 0.93489 0.0
C512 C 0.44805 0.96427 0.94256 0.0
C513 C 0.50659 0.00464 0.92131 0.0
C514 C 0.49424 0.01244 0.92693 0.0
C515 C 0.47525 0.999 0.93359 0.0
C516 C 0.50059 0.03446 0.92568 0.0
C517 C 0.52676 0.01824 0.9135 0.0
C518 C 0.51841 0.04948 0.93289 0.0
C519 C 0.52463 0.07027 0.93129 0.0
C520 C 0.51304 0.07639 0.92252 0.0
C521 C 0.49494 0.06125 0.91559 0.0
C522 C 0.48876 0.04048 0.91719 0.0
H523 H 0.53189 0.00921 0.90671 0.0
H524 H 0.52563 0.02943 0.90598 0.0
H525 H 0.53871 0.02698 0.9221 0.0
H526 H 0.52754 0.04512 0.93973 0.0
H527 H 0.53857 0.08152 0.93686 0.0
H528 H 0.42712 0.51291 0.28139 0.0
H529 H 0.45362 0.50311 0.28168 0.0
H530 H 0.48423 0.54398 0.24442 0.0
H531 H 0.458 0.55405 0.24413 0.0
H532 H 0.46359 0.48503 0.25802 0.0
H533 H 0.53085 0.55936 0.27465 0.0
H534 H 0.50476 0.55395 0.27695 0.0
H535 H 0.51698 0.56115 0.25879 0.0
C536 C 0.4396 0.51998 0.27335 0.0
C537 C 0.44046 0.5343 0.26275 0.0
C538 C 0.45471 0.51433 0.27353 0.0
C539 C 0.47102 0.52302 0.26321 0.0
C540 C 0.472 0.53741 0.25269 0.0
H541 H 0.57139 0.50575 0.23667 0.0
H542 H 0.54576 0.51634 0.23988 0.0
C543 C 0.45691 0.54305 0.25248 0.0
C544 C 0.48646 0.51629 0.26291 0.0
H545 H 0.53786 0.53375 0.26538 0.0
C546 C 0.47981 0.49562 0.25978 0.0
C547 C 0.50759 0.53017 0.26518 0.0
C548 C 0.5155 0.55236 0.26922 0.0
C549 C 0.49383 0.48856 0.25839 0.0
C550 C 0.515 0.50251 0.26044 0.0
C551 C 0.52162 0.52312 0.26379 0.0
C552 C 0.5306 0.49613 0.25876 0.0
C553 C 0.48594 0.4664 0.25424 0.0
C554 C 0.53072 0.48144 0.26844 0.0
C555 C 0.54534 0.47531 0.26662 0.0
C556 C 0.56017 0.48387 0.25513 0.0
C557 C 0.56017 0.49881 0.2456 0.0
C558 C 0.54555 0.50491 0.24743 0.0
H559 H 0.47008 0.459 0.24967 0.0
H560 H 0.49606 0.46506 0.24574 0.0
H561 H 0.48576 0.4578 0.26446 0.0
H562 H 0.51954 0.47475 0.27743 0.0
H563 H 0.54499 0.46386 0.2742 0.0
H564 H 0.60246 0.21879 0.93719 0.0
H565 H 0.61216 0.21715 0.96329 0.0
H566 H 0.55534 0.16037 0.96971 0.0
H567 H 0.5453 0.16222 0.94374 0.0
H568 H 0.56454 0.18971 0.99269 0.0
H569 H 0.63056 0.1782 0.98106 0.0
H570 H 0.63154 0.19954 0.97122 0.0
H571 H 0.61143 0.17391 0.96701 0.0
C572 C 0.59211 0.20588 0.94414 0.0
C573 C 0.57336 0.19035 0.93831 0.0
C574 C 0.59773 0.2049 0.959 0.0
C575 C 0.58465 0.18842 0.96832 0.0
C576 C 0.56578 0.17303 0.96261 0.0
H577 H 0.62041 0.16606 0.05691 0.0
H578 H 0.60688 0.16182 0.03123 0.0
C579 C 0.56019 0.17397 0.94771 0.0
C580 C 0.59034 0.18778 0.98421 0.0
H581 H 0.62712 0.18703 0.00629 0.0
C582 C 0.57812 0.18895 0.99569 0.0
C583 C 0.60793 0.18655 0.98807 0.0
C584 C 0.62104 0.18428 0.97621 0.0
C585 C 0.58342 0.18961 0.01094 0.0
C586 C 0.60151 0.18931 0.01476 0.0
C587 C 0.61335 0.18744 0.00331 0.0
C588 C 0.60872 0.19144 0.03055 0.0
C589 C 0.56961 0.19061 0.02285 0.0
C590 C 0.61438 0.20955 0.03861 0.0
C591 C 0.62191 0.21191 0.05332 0.0
C592 C 0.62382 0.19615 0.06025 0.0
C593 C 0.61833 0.17811 0.05211 0.0
C594 C 0.61086 0.17578 0.03737 0.0
H595 H 0.55393 0.18529 0.01843 0.0
H596 H 0.56848 0.18114 0.0328 0.0
H597 H 0.57611 0.20673 0.02664 0.0
H598 H 0.61328 0.222 0.03343 0.0
H599 H 0.62624 0.22607 0.05928 0.0
H600 H 0.401 0.58543 0.26522 0.0
H601 H 0.41231 0.59398 0.29141 0.0
H602 H 0.34926 0.56155 0.30623 0.0
H603 H 0.33789 0.55322 0.28001 0.0
H604 H 0.36964 0.59809 0.31914 0.0
H605 H 0.41546 0.55936 0.32474 0.0
H606 H 0.42368 0.57705 0.30926 0.0
H607 H 0.39844 0.55473 0.30903 0.0
C608 C 0.38959 0.57968 0.27409 0.0
C609 C 0.36859 0.5683 0.27063 0.0
C610 C 0.39607 0.5846 0.28907 0.0
C611 C 0.38166 0.57802 0.30084 0.0
C612 C 0.36066 0.56666 0.29736 0.0
H613 H 0.40953 0.58551 0.39686 0.0
H614 H 0.3986 0.57393 0.37095 0.0
C615 C 0.35419 0.56193 0.28239 0.0
C616 C 0.38834 0.58402 0.31669 0.0
H617 H 0.41946 0.58295 0.3443 0.0
C618 C 0.38043 0.59466 0.32466 0.0
C619 C 0.40222 0.5793 0.32397 0.0
C620 C 0.41028 0.5668 0.31637 0.0
C621 C 0.38626 0.60101 0.33961 0.0
C622 C 0.40086 0.59714 0.34666 0.0
C623 C 0.40848 0.58615 0.33881 0.0
C624 C 0.4083 0.60429 0.3622 0.0
C625 C 0.3764 0.61149 0.34777 0.0
C626 C 0.41772 0.62522 0.36583 0.0
C627 C 0.42396 0.63184 0.38061 0.0
C628 C 0.42131 0.61771 0.39197 0.0
C629 C 0.41228 0.59681 0.38827 0.0
C630 C 0.40587 0.59016 0.3735 0.0
H631 H 0.36152 0.60781 0.34256 0.0
H632 H 0.37373 0.60696 0.35984 0.0
H633 H 0.3867 0.62836 0.34714 0.0
H634 H 0.42018 0.63645 0.35724 0.0
H635 H 0.43095 0.64805 0.38315 0.0
H636 H 0.77607 0.40662 0.72862 0.0
H637 H 0.77998 0.39657 0.70312 0.0
H638 H 0.8415 0.44828 0.70099 0.0
H639 H 0.83749 0.45873 0.72636 0.0
H640 H 0.81667 0.44357 0.67544 0.0
H641 H 0.81515 0.37106 0.68989 0.0
H642 H 0.79431 0.37326 0.69772 0.0
H643 H 0.82014 0.39066 0.70371 0.0
C644 C 0.79048 0.41576 0.72276 0.0
C645 C 0.80667 0.43316 0.72962 0.0
C646 C 0.79274 0.40993 0.70824 0.0
C647 C 0.81117 0.42145 0.70031 0.0
C648 C 0.82727 0.43901 0.70704 0.0
H649 H 0.83834 0.38136 0.6152 0.0
H650 H 0.84086 0.39485 0.64074 0.0
C651 C 0.82505 0.44481 0.7216 0.0
C652 C 0.81323 0.41559 0.68475 0.0
H653 H 0.81129 0.37652 0.66389 0.0
C654 C 0.81568 0.42899 0.6729 0.0
C655 C 0.81217 0.39668 0.68152 0.0
C656 C 0.81049 0.38213 0.69388 0.0
C657 C 0.81637 0.42366 0.65783 0.0
C658 C 0.81437 0.40434 0.65456 0.0
C659 C 0.81265 0.39125 0.66644 0.0
C660 C 0.81342 0.39717 0.63887 0.0
C661 C 0.81922 0.4387 0.64552 0.0
C662 C 0.79707 0.39385 0.62944 0.0
C663 C 0.79571 0.38633 0.61482 0.0
C664 C 0.81073 0.38209 0.60936 0.0
C665 C 0.82699 0.38525 0.61888 0.0
C666 C 0.82831 0.3927 0.63353 0.0
H667 H 0.8258 0.45456 0.64996 0.0
H668 H 0.82942 0.43864 0.63649 0.0
H669 H 0.8041 0.43423 0.64041 0.0
H670 H 0.78519 0.39678 0.63347 0.0
H671 H 0.78289 0.38382 0.60778 0.0
H672 H 0.34638 0.78331 0.05024 0.0
H673 H 0.35738 0.7838 0.0242 0.0
H674 H 0.42043 0.82321 0.03742 0.0
H675 H 0.40947 0.8229 0.06347 0.0
H676 H 0.41144 0.83565 0.01097 0.0
H677 H 0.38431 0.75235 0.00891 0.0
H678 H 0.36435 0.75773 0.01384 0.0
H679 H 0.38591 0.76555 0.02629 0.0
C680 C 0.36258 0.79212 0.04757 0.0
C681 C 0.37705 0.80328 0.05883 0.0
C682 C 0.36885 0.79231 0.03271 0.0
C683 C 0.38975 0.80329 0.02891 0.0
C684 C 0.40422 0.81467 0.0401 0.0
H685 H 0.43827 0.78263 0.94588 0.0
H686 H 0.43043 0.78568 0.97223 0.0
C687 C 0.39793 0.81463 0.05496 0.0
C688 C 0.39649 0.80279 0.01326 0.0
H689 H 0.39405 0.77021 0.98551 0.0
C690 C 0.40774 0.82136 0.00541 0.0
C691 C 0.39197 0.78417 0.00613 0.0
C692 C 0.38116 0.76384 0.01427 0.0
C693 C 0.41421 0.82177 0.99048 0.0
C694 C 0.40886 0.80305 0.98312 0.0
C695 C 0.39797 0.78454 0.9911 0.0
C696 C 0.41445 0.80221 0.96718 0.0
C697 C 0.427 0.84227 0.98286 0.0
C698 C 0.40795 0.81034 0.95557 0.0
C699 C 0.41258 0.80876 0.94053 0.0
C700 C 0.42361 0.79884 0.93683 0.0
C701 C 0.42985 0.79046 0.94843 0.0
C702 C 0.42539 0.79221 0.96347 0.0
H703 H 0.43483 0.85484 0.99122 0.0
H704 H 0.43878 0.84214 0.97538 0.0
H705 H 0.41688 0.84575 0.97588 0.0
H706 H 0.39889 0.8175 0.9581 0.0
H707 H 0.40692 0.81468 0.93178 0.0
H708 H 0.60056 0.37363 0.39423 0.0
H709 H 0.60961 0.38681 0.36844 0.0
H710 H 0.55532 0.39229 0.36595 0.0
H711 H 0.5459 0.37859 0.39158 0.0
H712 H 0.5612 0.37232 0.34094 0.0
H713 H 0.63137 0.44638 0.35381 0.0
H714 H 0.63088 0.42433 0.36207 0.0
H715 H 0.61245 0.43147 0.36796 0.0
C716 C 0.59065 0.3778 0.38821 0.0
C717 C 0.57281 0.37559 0.39505 0.0
C718 C 0.5959 0.38544 0.37354 0.0
C719 C 0.58334 0.39091 0.36542 0.0
C720 C 0.56537 0.38845 0.37213 0.0
H721 H 0.61709 0.45557 0.27917 0.0
H722 H 0.60498 0.44481 0.30502 0.0
C723 C 0.56015 0.38089 0.38684 0.0
C724 C 0.58855 0.39831 0.34969 0.0
H725 H 0.62566 0.43617 0.32801 0.0
C726 C 0.57521 0.38636 0.3381 0.0
C727 C 0.60672 0.41673 0.34606 0.0
C728 C 0.62112 0.4306 0.35812 0.0
C729 C 0.57988 0.39204 0.32291 0.0
C730 C 0.59847 0.41002 0.31925 0.0
C731 C 0.6115 0.4223 0.33086 0.0
C732 C 0.60491 0.41609 0.30342 0.0
C733 C 0.56489 0.37879 0.31089 0.0
C734 C 0.60905 0.40359 0.29403 0.0
C735 C 0.61578 0.40961 0.27924 0.0
C736 C 0.61838 0.4282 0.27356 0.0
C737 C 0.61444 0.4408 0.28303 0.0
C738 C 0.60778 0.43481 0.29786 0.0
H739 H 0.54931 0.36876 0.3156 0.0
H740 H 0.56386 0.38835 0.30177 0.0
H741 H 0.57025 0.3688 0.30582 0.0
H742 H 0.60735 0.38929 0.29822 0.0
H743 H 0.61892 0.3997 0.27223 0.0
H744 H 0.21636 0.56172 0.71178 0.0
H745 H 0.21514 0.5738 0.68638 0.0
H746 H 0.17555 0.59589 0.70241 0.0
H747 H 0.17668 0.58376 0.72783 0.0
H748 H 0.16277 0.57589 0.67513 0.0
H749 H 0.24572 0.63349 0.67345 0.0
H750 H 0.24078 0.60799 0.67723 0.0
H751 H 0.23279 0.6206 0.6906 0.0
C752 C 0.20734 0.56909 0.70986 0.0
C753 C 0.19637 0.57154 0.72173 0.0
C754 C 0.20673 0.57607 0.69537 0.0
C755 C 0.19548 0.58599 0.69255 0.0
C756 C 0.18428 0.58821 0.70434 0.0
H757 H 0.2137 0.66093 0.61314 0.0
H758 H 0.21087 0.64807 0.6389 0.0
C759 C 0.18477 0.58111 0.71882 0.0
C760 C 0.1956 0.59425 0.67734 0.0
H761 H 0.22749 0.62694 0.65032 0.0
C762 C 0.17689 0.58713 0.66971 0.0
C763 C 0.21401 0.60917 0.67041 0.0
C764 C 0.23444 0.61843 0.67839 0.0
C765 C 0.17615 0.5942 0.65519 0.0
C766 C 0.19467 0.60846 0.64801 0.0
C767 C 0.21331 0.61586 0.65577 0.0
C768 C 0.19519 0.61603 0.63247 0.0
C769 C 0.15552 0.58658 0.6478 0.0
C770 C 0.18742 0.60231 0.62027 0.0
C771 C 0.18889 0.60963 0.60556 0.0
C772 C 0.19831 0.63081 0.60279 0.0
C773 C 0.20625 0.64452 0.61498 0.0
C774 C 0.20463 0.63719 0.62968 0.0
H775 H 0.14297 0.58081 0.65627 0.0
H776 H 0.15522 0.59888 0.64108 0.0
H777 H 0.15237 0.5737 0.6401 0.0
H778 H 0.1807 0.58596 0.62208 0.0
H779 H 0.18335 0.59875 0.59634 0.0
loop_
_geom_bond_atom_site_label_1
_geom_bond_atom_site_label_2
_geom_bond_distance
_geom_bond_site_symmetry_2
_ccdc_geom_bond_type
O0 Cd1 2.300 . S
O0 C7 1.275 . S
Cd1 O0 2.300 . S
Cd1 O9 2.381 . S
Cd1 O10 2.378 . S
O2 Cd3 2.385 . S
O2 C7 1.255 . S
Cd3 O2 2.385 . S
Cd3 O4 2.317 . S
O4 Cd3 2.317 . S
O4 C5 1.232 . S
C5 O4 1.232 . S
C5 O6 1.218 . S
O6 C5 1.218 . S
C7 O0 1.275 . S
C7 O2 1.255 . S
C8 O9 1.258 . S
C8 O10 1.256 . S
O9 Cd1 2.381 . S
O9 C8 1.258 . S
O10 Cd1 2.378 . S
O10 C8 1.256 . S
O11 Cd12 2.300 . S
O11 C18 1.275 . S
Cd12 O11 2.300 . S
Cd12 O20 2.381 . S
Cd12 O21 2.378 . S
O13 Cd14 2.385 . S
O13 C18 1.255 . S
Cd14 O13 2.385 . S
Cd14 O15 2.317 . S
O15 Cd14 2.317 . S
O15 C16 1.232 . S
C16 O15 1.232 . S
C16 O17 1.218 . S
O17 C16 1.218 . S
C18 O11 1.275 . S
C18 O13 1.255 . S
C19 O20 1.258 . S
C19 O21 1.256 . S
O20 Cd12 2.381 . S
O20 C19 1.258 . S
O21 Cd12 2.378 . S
O21 C19 1.256 . S
O22 Cd23 2.300 . S
O22 C29 1.275 . S
Cd23 O22 2.300 . S
Cd23 O31 2.381 . S
Cd23 O32 2.378 . S
O24 Cd25 2.385 . S
O24 C29 1.255 . S
Cd25 O24 2.385 . S
Cd25 O26 2.317 . S
O26 Cd25 2.317 . S
O26 C27 1.232 . S
C27 O26 1.232 . S
C27 O28 1.218 . S
O28 C27 1.218 . S
C29 O22 1.275 . S
C29 O24 1.255 . S
C30 O31 1.258 . S
C30 O32 1.256 . S
O31 Cd23 2.381 . S
O31 C30 1.258 . S
O32 Cd23 2.378 . S
O32 C30 1.256 . S
O33 Cd34 2.300 . S
O33 C40 1.275 . S
Cd34 O33 2.300 . S
Cd34 O42 2.381 . S
Cd34 O43 2.378 . S
O35 Cd36 2.385 . S
O35 C40 1.255 . S
Cd36 O35 2.385 . S
Cd36 O37 2.317 . S
O37 Cd36 2.317 . S
O37 C38 1.232 . S
C38 O37 1.232 . S
C38 O39 1.218 . S
O39 C38 1.218 . S
C40 O33 1.275 . S
C40 O35 1.255 . S
C41 O42 1.258 . S
C41 O43 1.256 . S
O42 Cd34 2.381 . S
O42 C41 1.258 . S
O43 Cd34 2.378 . S
O43 C41 1.256 . S
O44 Cd45 2.300 . S
O44 C51 1.275 . S
Cd45 O44 2.300 . S
Cd45 O53 2.381 . S
Cd45 O54 2.378 . S
O46 Cd47 2.385 . S
O46 C51 1.255 . S
Cd47 O46 2.385 . S
Cd47 O48 2.317 . S
O48 Cd47 2.317 . S
O48 C49 1.232 . S
C49 O48 1.232 . S
C49 O50 1.218 . S
O50 C49 1.218 . S
C51 O44 1.275 . S
C51 O46 1.255 . S
C52 O53 1.258 . S
C52 O54 1.256 . S
O53 Cd45 2.381 . S
O53 C52 1.258 . S
O54 Cd45 2.378 . S
O54 C52 1.256 . S
O55 Cd56 2.300 . S
O55 C62 1.275 . S
Cd56 O55 2.300 . S
Cd56 O64 2.381 . S
Cd56 O65 2.378 . S
O57 Cd58 2.385 . S
O57 C62 1.255 . S
Cd58 O57 2.385 . S
Cd58 O59 2.317 . S
O59 Cd58 2.317 . S
O59 C60 1.232 . S
C60 O59 1.232 . S
C60 O61 1.218 . S
O61 C60 1.218 . S
C62 O55 1.275 . S
C62 O57 1.255 . S
C63 O64 1.258 . S
C63 O65 1.256 . S
O64 Cd56 2.381 . S
O64 C63 1.258 . S
O65 Cd56 2.378 . S
O65 C63 1.256 . S
O66 Cd67 2.300 . S
O66 C73 1.275 . S
Cd67 O66 2.300 . S
Cd67 O75 2.381 . S
Cd67 O76 2.378 . S
O68 Cd69 2.385 . S
O68 C73 1.255 . S
Cd69 O68 2.385 . S
Cd69 O70 2.317 . S
O70 Cd69 2.317 . S
O70 C71 1.232 . S
C71 O70 1.232 . S
C71 O72 1.218 . S
O72 C71 1.218 . S
C73 O66 1.275 . S
C73 O68 1.255 . S
C74 O75 1.258 . S
C74 O76 1.256 . S
O75 Cd67 2.381 . S
O75 C74 1.258 . S
O76 Cd67 2.378 . S
O76 C74 1.256 . S
O77 Cd78 2.300 . S
O77 C84 1.275 . S
Cd78 O77 2.300 . S
Cd78 O86 2.381 . S
Cd78 O87 2.378 . S
O79 Cd80 2.385 . S
O79 C84 1.255 . S
Cd80 O79 2.385 . S
Cd80 O81 2.317 . S
O81 Cd80 2.317 . S
O81 C82 1.232 . S
C82 O81 1.232 . S
C82 O83 1.218 . S
O83 C82 1.218 . S
C84 O77 1.275 . S
C84 O79 1.255 . S
C85 O86 1.258 . S
C85 O87 1.256 . S
O86 Cd78 2.381 . S
O86 C85 1.258 . S
O87 Cd78 2.378 . S
O87 C85 1.256 . S
O88 Cd89 2.300 . S
O88 C95 1.275 . S
Cd89 O88 2.300 . S
Cd89 O97 2.381 . S
Cd89 O98 2.378 . S
O90 Cd91 2.385 . S
O90 C95 1.255 . S
Cd91 O90 2.385 . S
Cd91 O92 2.317 . S
O92 Cd91 2.317 . S
O92 C93 1.232 . S
C93 O92 1.232 . S
C93 O94 1.218 . S
O94 C93 1.218 . S
C95 O88 1.275 . S
C95 O90 1.255 . S
C96 O97 1.258 . S
C96 O98 1.256 . S
O97 Cd89 2.381 . S
O97 C96 1.258 . S
O98 Cd89 2.378 . S
O98 C96 1.256 . S
O99 Cd100 2.300 . S
O99 C106 1.275 . S
Cd100 O99 2.300 . S
Cd100 O108 2.381 . S
Cd100 O109 2.378 . S
O101 Cd102 2.385 . S
O101 C106 1.255 . S
Cd102 O101 2.385 . S
Cd102 O103 2.317 . S
O103 Cd102 2.317 . S
O103 C104 1.232 . S
C104 O103 1.232 . S
C104 O105 1.218 . S
O105 C104 1.218 . S
C106 O99 1.275 . S
C106 O101 1.255 . S
C107 O108 1.258 . S
C107 O109 1.256 . S
O108 Cd100 2.381 . S
O108 C107 1.258 . S
O109 Cd100 2.378 . S
O109 C107 1.256 . S
O110 Cd111 2.300 . S
O110 C117 1.275 . S
Cd111 O110 2.300 . S
Cd111 O119 2.381 . S
Cd111 O120 2.378 . S
O112 Cd113 2.385 . S
O112 C117 1.255 . S
Cd113 O112 2.385 . S
Cd113 O114 2.317 . S
O114 Cd113 2.317 . S
O114 C115 1.232 . S
C115 O114 1.232 . S
C115 O116 1.218 . S
O116 C115 1.218 . S
C117 O110 1.275 . S
C117 O112 1.255 . S
C118 O119 1.258 . S
C118 O120 1.256 . S
O119 Cd111 2.381 . S
O119 C118 1.258 . S
O120 Cd111 2.378 . S
O120 C118 1.256 . S
O121 Cd122 2.300 . S
O121 C128 1.275 . S
Cd122 O121 2.300 . S
Cd122 O130 2.381 . S
Cd122 O131 2.378 . S
O123 Cd124 2.385 . S
O123 C128 1.255 . S
Cd124 O123 2.385 . S
Cd124 O125 2.317 . S
O125 Cd124 2.317 . S
O125 C126 1.232 . S
C126 O125 1.232 . S
C126 O127 1.218 . S
O127 C126 1.218 . S
C128 O121 1.275 . S
C128 O123 1.255 . S
C129 O130 1.258 . S
C129 O131 1.256 . S
O130 Cd122 2.381 . S
O130 C129 1.258 . S
O131 Cd122 2.378 . S
O131 C129 1.256 . S
H132 C140 0.929 . S
H133 C142 0.930 . S
H134 C144 0.930 . S
H135 C147 0.929 . S
H136 C150 0.930 . S
H137 C152 0.960 . S
H138 C152 0.960 . S
H139 C152 0.960 . S
C140 H132 0.929 . S
C140 C141 1.377 . S
C140 C142 1.384 . S
C141 C140 1.377 . S
C141 C147 1.390 . S
C142 H133 0.930 . S
C142 C140 1.384 . S
C142 C143 1.372 . S
C143 C142 1.372 . S
C143 C144 1.400 . S
C143 C148 1.490 . S
C144 H134 0.930 . S
C144 C143 1.400 . S
C144 C147 1.386 . S
H145 C161 0.930 . S
H146 C162 0.931 . S
C147 H135 0.929 . S
C147 C141 1.390 . S
C147 C144 1.386 . S
C148 C143 1.490 . S
C148 C150 1.395 . S
C148 C151 1.403 . S
H149 C155 0.930 . S
C150 H136 0.930 . S
C150 C148 1.395 . S
C150 C153 1.403 . S
C151 C148 1.403 . S
C151 C152 1.524 . S
C151 C155 1.400 . S
C152 H137 0.960 . S
C152 H138 0.960 . S
C152 H139 0.960 . S
C152 C151 1.524 . S
C153 C150 1.403 . S
C153 C154 1.392 . S
C153 C157 1.495 . S
C154 C153 1.392 . S
C154 C155 1.385 . S
C154 C156 1.478 . S
C155 H149 0.930 . S
C155 C151 1.400 . S
C155 C154 1.385 . S
C156 C154 1.478 . S
C156 C158 1.381 . S
C156 C162 1.383 . S
C157 C153 1.495 . S
C157 H163 0.959 . S
C157 H164 0.961 . S
C157 H165 0.960 . S
C158 C156 1.381 . S
C158 C159 1.394 . S
C158 H166 0.930 . S
C159 C158 1.394 . S
C159 C160 1.383 . S
C159 H167 0.929 . S
C160 C159 1.383 . S
C160 C161 1.377 . S
C161 H145 0.930 . S
C161 C160 1.377 . S
C161 C162 1.379 . S
C162 H146 0.931 . S
C162 C156 1.383 . S
C162 C161 1.379 . S
H163 C157 0.959 . S
H164 C157 0.961 . S
H165 C157 0.960 . S
H166 C158 0.930 . S
H167 C159 0.929 . S
H168 C176 0.929 . S
H169 C178 0.930 . S
H170 C180 0.930 . S
H171 C183 0.929 . S
H172 C186 0.930 . S
H173 C188 0.960 . S
H174 C188 0.960 . S
H175 C188 0.960 . S
C176 H168 0.929 . S
C176 C177 1.377 . S
C176 C178 1.384 . S
C177 C176 1.377 . S
C177 C183 1.390 . S
C178 H169 0.930 . S
C178 C176 1.384 . S
C178 C179 1.372 . S
C179 C178 1.372 . S
C179 C180 1.400 . S
C179 C184 1.490 . S
C180 H170 0.930 . S
C180 C179 1.400 . S
C180 C183 1.386 . S
H181 C197 0.930 . S
H182 C198 0.931 . S
C183 H171 0.929 . S
C183 C177 1.390 . S
C183 C180 1.386 . S
C184 C179 1.490 . S
C184 C186 1.395 . S
C184 C187 1.403 . S
H185 C191 0.930 . S
C186 H172 0.930 . S
C186 C184 1.395 . S
C186 C189 1.403 . S
C187 C184 1.403 . S
C187 C188 1.524 . S
C187 C191 1.400 . S
C188 H173 0.960 . S
C188 H174 0.960 . S
C188 H175 0.960 . S
C188 C187 1.524 . S
C189 C186 1.403 . S
C189 C190 1.392 . S
C189 C193 1.495 . S
C190 C189 1.392 . S
C190 C191 1.385 . S
C190 C192 1.478 . S
C191 H185 0.930 . S
C191 C187 1.400 . S
C191 C190 1.385 . S
C192 C190 1.478 . S
C192 C194 1.381 . S
C192 C198 1.383 . S
C193 C189 1.495 . S
C193 H199 0.959 . S
C193 H200 0.961 . S
C193 H201 0.960 . S
C194 C192 1.381 . S
C194 C195 1.394 . S
C194 H202 0.930 . S
C195 C194 1.394 . S
C195 C196 1.383 . S
C195 H203 0.929 . S
C196 C195 1.383 . S
C196 C197 1.377 . S
C197 H181 0.930 . S
C197 C196 1.377 . S
C197 C198 1.379 . S
C198 H182 0.931 . S
C198 C192 1.383 . S
C198 C197 1.379 . S
H199 C193 0.959 . S
H200 C193 0.961 . S
H201 C193 0.960 . S
H202 C194 0.930 . S
H203 C195 0.929 . S
H204 C212 0.929 . S
H205 C214 0.930 . S
H206 C216 0.930 . S
H207 C219 0.929 . S
H208 C222 0.930 . S
H209 C224 0.960 . S
H210 C224 0.960 . S
H211 C224 0.960 . S
C212 H204 0.929 . S
C212 C213 1.377 . S
C212 C214 1.384 . S
C213 C212 1.377 . S
C213 C219 1.390 . S
C214 H205 0.930 . S
C214 C212 1.384 . S
C214 C215 1.372 . S
C215 C214 1.372 . S
C215 C216 1.400 . S
C215 C220 1.490 . S
C216 H206 0.930 . S
C216 C215 1.400 . S
C216 C219 1.386 . S
H217 C233 0.930 . S
H218 C234 0.931 . S
C219 H207 0.929 . S
C219 C213 1.390 . S
C219 C216 1.386 . S
C220 C215 1.490 . S
C220 C222 1.395 . S
C220 C223 1.403 . S
H221 C227 0.930 . S
C222 H208 0.930 . S
C222 C220 1.395 . S
C222 C225 1.403 . S
C223 C220 1.403 . S
C223 C224 1.524 . S
C223 C227 1.400 . S
C224 H209 0.960 . S
C224 H210 0.960 . S
C224 H211 0.960 . S
C224 C223 1.524 . S
C225 C222 1.403 . S
C225 C226 1.392 . S
C225 C229 1.495 . S
C226 C225 1.392 . S
C226 C227 1.385 . S
C226 C228 1.478 . S
C227 H221 0.930 . S
C227 C223 1.400 . S
C227 C226 1.385 . S
C228 C226 1.478 . S
C228 C230 1.381 . S
C228 C234 1.383 . S
C229 C225 1.495 . S
C229 H235 0.959 . S
C229 H236 0.961 . S
C229 H237 0.960 . S
C230 C228 1.381 . S
C230 C231 1.394 . S
C230 H238 0.930 . S
C231 C230 1.394 . S
C231 C232 1.383 . S
C231 H239 0.929 . S
C232 C231 1.383 . S
C232 C233 1.377 . S
C233 H217 0.930 . S
C233 C232 1.377 . S
C233 C234 1.379 . S
C234 H218 0.931 . S
C234 C228 1.383 . S
C234 C233 1.379 . S
H235 C229 0.959 . S
H236 C229 0.961 . S
H237 C229 0.960 . S
H238 C230 0.930 . S
H239 C231 0.929 . S
H240 C248 0.929 . S
H241 C250 0.930 . S
H242 C252 0.930 . S
H243 C255 0.929 . S
H244 C258 0.930 . S
H245 C260 0.960 . S
H246 C260 0.960 . S
H247 C260 0.960 . S
C248 H240 0.929 . S
C248 C249 1.377 . S
C248 C250 1.384 . S
C249 C248 1.377 . S
C249 C255 1.390 . S
C250 H241 0.930 . S
C250 C248 1.384 . S
C250 C251 1.372 . S
C251 C250 1.372 . S
C251 C252 1.400 . S
C251 C256 1.490 . S
C252 H242 0.930 . S
C252 C251 1.400 . S
C252 C255 1.386 . S
H253 C269 0.930 . S
H254 C270 0.931 . S
C255 H243 0.929 . S
C255 C249 1.390 . S
C255 C252 1.386 . S
C256 C251 1.490 . S
C256 C258 1.395 . S
C256 C259 1.403 . S
H257 C263 0.930 . S
C258 H244 0.930 . S
C258 C256 1.395 . S
C258 C261 1.403 . S
C259 C256 1.403 . S
C259 C260 1.524 . S
C259 C263 1.400 . S
C260 H245 0.960 . S
C260 H246 0.960 . S
C260 H247 0.960 . S
C260 C259 1.524 . S
C261 C258 1.403 . S
C261 C262 1.392 . S
C261 C265 1.495 . S
C262 C261 1.392 . S
C262 C263 1.385 . S
C262 C264 1.478 . S
C263 H257 0.930 . S
C263 C259 1.400 . S
C263 C262 1.385 . S
C264 C262 1.478 . S
C264 C266 1.381 . S
C264 C270 1.383 . S
C265 C261 1.495 . S
C265 H271 0.959 . S
C265 H272 0.961 . S
C265 H273 0.960 . S
C266 C264 1.381 . S
C266 C267 1.394 . S
C266 H274 0.930 . S
C267 C266 1.394 . S
C267 C268 1.383 . S
C267 H275 0.929 . S
C268 C267 1.383 . S
C268 C269 1.377 . S
C269 H253 0.930 . S
C269 C268 1.377 . S
C269 C270 1.379 . S
C270 H254 0.931 . S
C270 C264 1.383 . S
C270 C269 1.379 . S
H271 C265 0.959 . S
H272 C265 0.961 . S
H273 C265 0.960 . S
H274 C266 0.930 . S
H275 C267 0.929 . S
H276 C284 0.929 . S
H277 C286 0.930 . S
H278 C288 0.930 . S
H279 C291 0.929 . S
H280 C294 0.930 . S
H281 C296 0.960 . S
H282 C296 0.960 . S
H283 C296 0.960 . S
C284 H276 0.929 . S
C284 C285 1.377 . S
C284 C286 1.384 . S
C285 C284 1.377 . S
C285 C291 1.390 . S
C286 H277 0.930 . S
C286 C284 1.384 . S
C286 C287 1.372 . S
C287 C286 1.372 . S
C287 C288 1.400 . S
C287 C292 1.490 . S
C288 H278 0.930 . S
C288 C287 1.400 . S
C288 C291 1.386 . S
H289 C305 0.930 . S
H290 C306 0.931 . S
C291 H279 0.929 . S
C291 C285 1.390 . S
C291 C288 1.386 . S
C292 C287 1.490 . S
C292 C294 1.395 . S
C292 C295 1.403 . S
H293 C299 0.930 . S
C294 H280 0.930 . S
C294 C292 1.395 . S
C294 C297 1.403 . S
C295 C292 1.403 . S
C295 C296 1.524 . S
C295 C299 1.400 . S
C296 H281 0.960 . S
C296 H282 0.960 . S
C296 H283 0.960 . S
C296 C295 1.524 . S
C297 C294 1.403 . S
C297 C298 1.392 . S
C297 C301 1.495 . S
C298 C297 1.392 . S
C298 C299 1.385 . S
C298 C300 1.478 . S
C299 H293 0.930 . S
C299 C295 1.400 . S
C299 C298 1.385 . S
C300 C298 1.478 . S
C300 C302 1.381 . S
C300 C306 1.383 . S
C301 C297 1.495 . S
C301 H307 0.959 . S
C301 H308 0.961 . S
C301 H309 0.960 . S
C302 C300 1.381 . S
C302 C303 1.394 . S
C302 H310 0.930 . S
C303 C302 1.394 . S
C303 C304 1.383 . S
C303 H311 0.929 . S
C304 C303 1.383 . S
C304 C305 1.377 . S
C305 H289 0.930 . S
C305 C304 1.377 . S
C305 C306 1.379 . S
C306 H290 0.931 . S
C306 C300 1.383 . S
C306 C305 1.379 . S
H307 C301 0.959 . S
H308 C301 0.961 . S
H309 C301 0.960 . S
H310 C302 0.930 . S
H311 C303 0.929 . S
H312 C320 0.929 . S
H313 C322 0.930 . S
H314 C324 0.930 . S
H315 C327 0.929 . S
H316 C330 0.930 . S
H317 C332 0.960 . S
H318 C332 0.960 . S
H319 C332 0.960 . S
C320 H312 0.929 . S
C320 C321 1.377 . S
C320 C322 1.384 . S
C321 C320 1.377 . S
C321 C327 1.390 . S
C322 H313 0.930 . S
C322 C320 1.384 . S
C322 C323 1.372 . S
C323 C322 1.372 . S
C323 C324 1.400 . S
C323 C328 1.490 . S
C324 H314 0.930 . S
C324 C323 1.400 . S
C324 C327 1.386 . S
H325 C341 0.930 . S
H326 C342 0.931 . S
C327 H315 0.929 . S
C327 C321 1.390 . S
C327 C324 1.386 . S
C328 C323 1.490 . S
C328 C330 1.395 . S
C328 C331 1.403 . S
H329 C335 0.930 . S
C330 H316 0.930 . S
C330 C328 1.395 . S
C330 C333 1.403 . S
C331 C328 1.403 . S
C331 C332 1.524 . S
C331 C335 1.400 . S
C332 H317 0.960 . S
C332 H318 0.960 . S
C332 H319 0.960 . S
C332 C331 1.524 . S
C333 C330 1.403 . S
C333 C334 1.392 . S
C333 C337 1.495 . S
C334 C333 1.392 . S
C334 C335 1.385 . S
C334 C336 1.478 . S
C335 H329 0.930 . S
C335 C331 1.400 . S
C335 C334 1.385 . S
C336 C334 1.478 . S
C336 C338 1.381 . S
C336 C342 1.383 . S
C337 C333 1.495 . S
C337 H343 0.959 . S
C337 H344 0.961 . S
C337 H345 0.960 . S
C338 C336 1.381 . S
C338 C339 1.394 . S
C338 H346 0.930 . S
C339 C338 1.394 . S
C339 C340 1.383 . S
C339 H347 0.929 . S
C340 C339 1.383 . S
C340 C341 1.377 . S
C341 H325 0.930 . S
C341 C340 1.377 . S
C341 C342 1.379 . S
C342 H326 0.931 . S
C342 C336 1.383 . S
C342 C341 1.379 . S
H343 C337 0.959 . S
H344 C337 0.961 . S
H345 C337 0.960 . S
H346 C338 0.930 . S
H347 C339 0.929 . S
H348 C356 0.929 . S
H349 C358 0.930 . S
H350 C360 0.930 . S
H351 C363 0.929 . S
H352 C366 0.930 . S
H353 C368 0.960 . S
H354 C368 0.960 . S
H355 C368 0.960 . S
C356 H348 0.929 . S
C356 C357 1.377 . S
C356 C358 1.384 . S
C357 C356 1.377 . S
C357 C363 1.390 . S
C358 H349 0.930 . S
C358 C356 1.384 . S
C358 C359 1.372 . S
C359 C358 1.372 . S
C359 C360 1.400 . S
C359 C364 1.490 . S
C360 H350 0.930 . S
C360 C359 1.400 . S
C360 C363 1.386 . S
H361 C377 0.930 . S
H362 C378 0.931 . S
C363 H351 0.929 . S
C363 C357 1.390 . S
C363 C360 1.386 . S
C364 C359 1.490 . S
C364 C366 1.395 . S
C364 C367 1.403 . S
H365 C371 0.930 . S
C366 H352 0.930 . S
C366 C364 1.395 . S
C366 C369 1.403 1_565 S
C367 C364 1.403 . S
C367 C368 1.524 . S
C367 C371 1.400 1_565 S
C368 H353 0.960 . S
C368 H354 0.960 . S
C368 H355 0.960 . S
C368 C367 1.524 . S
C369 C366 1.403 1_545 S
C369 C370 1.392 . S
C369 C373 1.495 . S
C370 C369 1.392 . S
C370 C371 1.385 . S
C370 C372 1.478 . S
C371 H365 0.930 . S
C371 C367 1.400 1_545 S
C371 C370 1.385 . S
C372 C370 1.478 . S
C372 C374 1.381 . S
C372 C378 1.383 . S
C373 C369 1.495 . S
C373 H379 0.959 . S
C373 H380 0.961 . S
C373 H381 0.960 . S
C374 C372 1.381 . S
C374 C375 1.394 . S
C374 H382 0.930 . S
C375 C374 1.394 . S
C375 C376 1.383 . S
C375 H383 0.929 . S
C376 C375 1.383 . S
C376 C377 1.377 . S
C377 H361 0.930 . S
C377 C376 1.377 . S
C377 C378 1.379 . S
C378 H362 0.931 . S
C378 C372 1.383 . S
C378 C377 1.379 . S
H379 C373 0.959 . S
H380 C373 0.961 . S
H381 C373 0.960 . S
H382 C374 0.930 . S
H383 C375 0.929 . S
H384 C392 0.929 . S
H385 C394 0.930 . S
H386 C396 0.930 . S
H387 C399 0.929 . S
H388 C402 0.930 . S
H389 C404 0.960 . S
H390 C404 0.960 . S
H391 C404 0.960 . S
C392 H384 0.929 . S
C392 C393 1.377 . S
C392 C394 1.384 . S
C393 C392 1.377 . S
C393 C399 1.390 . S
C394 H385 0.930 . S
C394 C392 1.384 . S
C394 C395 1.372 . S
C395 C394 1.372 . S
C395 C396 1.400 . S
C395 C400 1.490 . S
C396 H386 0.930 . S
C396 C395 1.400 . S
C396 C399 1.386 . S
H397 C413 0.930 . S
H398 C414 0.931 . S
C399 H387 0.929 . S
C399 C393 1.390 . S
C399 C396 1.386 . S
C400 C395 1.490 . S
C400 C402 1.395 . S
C400 C403 1.403 . S
H401 C407 0.930 . S
C402 H388 0.930 . S
C402 C400 1.395 . S
C402 C405 1.403 . S
C403 C400 1.403 . S
C403 C404 1.524 . S
C403 C407 1.400 . S
C404 H389 0.960 . S
C404 H390 0.960 . S
C404 H391 0.960 . S
C404 C403 1.524 . S
C405 C402 1.403 . S
C405 C406 1.392 . S
C405 C409 1.495 . S
C406 C405 1.392 . S
C406 C407 1.385 . S
C406 C408 1.478 . S
C407 H401 0.930 . S
C407 C403 1.400 . S
C407 C406 1.385 . S
C408 C406 1.478 . S
C408 C410 1.381 . S
C408 C414 1.383 . S
C409 C405 1.495 . S
C409 H415 0.959 . S
C409 H416 0.961 . S
C409 H417 0.960 . S
C410 C408 1.381 . S
C410 C411 1.394 . S
C410 H418 0.930 . S
C411 C410 1.394 . S
C411 C412 1.383 . S
C411 H419 0.929 . S
C412 C411 1.383 . S
C412 C413 1.377 . S
C413 H397 0.930 . S
C413 C412 1.377 . S
C413 C414 1.379 . S
C414 H398 0.931 . S
C414 C408 1.383 . S
C414 C413 1.379 . S
H415 C409 0.959 . S
H416 C409 0.961 . S
H417 C409 0.960 . S
H418 C410 0.930 . S
H419 C411 0.929 . S
H420 C428 0.929 . S
H421 C430 0.930 . S
H422 C432 0.930 . S
H423 C435 0.929 . S
H424 C438 0.930 . S
H425 C440 0.960 . S
H426 C440 0.960 . S
H427 C440 0.960 . S
C428 H420 0.929 . S
C428 C429 1.377 . S
C428 C430 1.384 . S
C429 C428 1.377 . S
C429 C435 1.390 . S
C430 H421 0.930 . S
C430 C428 1.384 . S
C430 C431 1.372 . S
C431 C430 1.372 . S
C431 C432 1.400 . S
C431 C436 1.490 . S
C432 H422 0.930 . S
C432 C431 1.400 . S
C432 C435 1.386 . S
H433 C449 0.930 . S
H434 C450 0.931 . S
C435 H423 0.929 . S
C435 C429 1.390 . S
C435 C432 1.386 . S
C436 C431 1.490 . S
C436 C438 1.395 . S
C436 C439 1.403 . S
H437 C443 0.930 . S
C438 H424 0.930 . S
C438 C436 1.395 . S
C438 C441 1.403 1_655 S
C439 C436 1.403 . S
C439 C440 1.524 . S
C439 C443 1.400 1_655 S
C440 H425 0.960 . S
C440 H426 0.960 . S
C440 H427 0.960 . S
C440 C439 1.524 . S
C441 C438 1.403 1_455 S
C441 C442 1.392 . S
C441 C445 1.495 . S
C442 C441 1.392 . S
C442 C443 1.385 . S
C442 C444 1.478 . S
C443 H437 0.930 . S
C443 C439 1.400 1_455 S
C443 C442 1.385 . S
C444 C442 1.478 . S
C444 C446 1.381 . S
C444 C450 1.383 . S
C445 C441 1.495 . S
C445 H451 0.959 . S
C445 H452 0.961 . S
C445 H453 0.960 . S
C446 C444 1.381 . S
C446 C447 1.394 . S
C446 H454 0.930 . S
C447 C446 1.394 . S
C447 C448 1.383 . S
C447 H455 0.929 . S
C448 C447 1.383 . S
C448 C449 1.377 . S
C449 H433 0.930 . S
C449 C448 1.377 . S
C449 C450 1.379 . S
C450 H434 0.931 . S
C450 C444 1.383 . S
C450 C449 1.379 . S
H451 C445 0.959 . S
H452 C445 0.961 . S
H453 C445 0.960 . S
H454 C446 0.930 . S
H455 C447 0.929 . S
H456 C464 0.929 . S
H457 C466 0.930 . S
H458 C468 0.930 . S
H459 C471 0.929 . S
H460 C474 0.930 . S
H461 C476 0.960 . S
H462 C476 0.960 . S
H463 C476 0.960 . S
C464 H456 0.929 . S
C464 C465 1.377 . S
C464 C466 1.384 . S
C465 C464 1.377 . S
C465 C471 1.390 . S
C466 H457 0.930 . S
C466 C464 1.384 . S
C466 C467 1.372 . S
C467 C466 1.372 . S
C467 C468 1.400 . S
C467 C472 1.490 . S
C468 H458 0.930 . S
C468 C467 1.400 . S
C468 C471 1.386 . S
H469 C485 0.930 . S
H470 C486 0.931 . S
C471 H459 0.929 . S
C471 C465 1.390 . S
C471 C468 1.386 . S
C472 C467 1.490 . S
C472 C474 1.395 . S
C472 C475 1.403 . S
H473 C479 0.930 . S
C474 H460 0.930 . S
C474 C472 1.395 . S
C474 C477 1.403 1_455 S
C475 C472 1.403 . S
C475 C476 1.524 . S
C475 C479 1.400 1_455 S
C476 H461 0.960 . S
C476 H462 0.960 . S
C476 H463 0.960 . S
C476 C475 1.524 . S
C477 C474 1.403 1_655 S
C477 C478 1.392 . S
C477 C481 1.495 . S
C478 C477 1.392 . S
C478 C479 1.385 . S
C478 C480 1.478 . S
C479 H473 0.930 . S
C479 C475 1.400 1_655 S
C479 C478 1.385 . S
C480 C478 1.478 . S
C480 C482 1.381 . S
C480 C486 1.383 . S
C481 C477 1.495 . S
C481 H487 0.959 . S
C481 H488 0.961 . S
C481 H489 0.960 . S
C482 C480 1.381 . S
C482 C483 1.394 . S
C482 H490 0.930 . S
C483 C482 1.394 . S
C483 C484 1.383 . S
C483 H491 0.929 . S
C484 C483 1.383 . S
C484 C485 1.377 . S
C485 H469 0.930 . S
C485 C484 1.377 . S
C485 C486 1.379 . S
C486 H470 0.931 . S
C486 C480 1.383 . S
C486 C485 1.379 . S
H487 C481 0.959 . S
H488 C481 0.961 . S
H489 C481 0.960 . S
H490 C482 0.930 . S
H491 C483 0.929 . S
H492 C500 0.929 . S
H493 C502 0.930 . S
H494 C504 0.930 . S
H495 C507 0.929 . S
H496 C510 0.930 . S
H497 C512 0.960 . S
H498 C512 0.960 . S
H499 C512 0.960 . S
C500 H492 0.929 . S
C500 C501 1.377 . S
C500 C502 1.384 . S
C501 C500 1.377 . S
C501 C507 1.390 . S
C502 H493 0.930 . S
C502 C500 1.384 . S
C502 C503 1.372 . S
C503 C502 1.372 . S
C503 C504 1.400 . S
C503 C508 1.490 . S
C504 H494 0.930 . S
C504 C503 1.400 . S
C504 C507 1.386 . S
H505 C521 0.930 . S
H506 C522 0.931 . S
C507 H495 0.929 . S
C507 C501 1.390 . S
C507 C504 1.386 . S
C508 C503 1.490 . S
C508 C510 1.395 . S
C508 C511 1.403 . S
H509 C515 0.930 . S
C510 H496 0.930 . S
C510 C508 1.395 . S
C510 C513 1.403 1_565 S
C511 C508 1.403 . S
C511 C512 1.524 . S
C511 C515 1.400 1_565 S
C512 H497 0.960 . S
C512 H498 0.960 . S
C512 H499 0.960 . S
C512 C511 1.524 . S
C513 C510 1.403 1_545 S
C513 C514 1.392 . S
C513 C517 1.495 . S
C514 C513 1.392 . S
C514 C515 1.385 . S
C514 C516 1.478 . S
C515 H509 0.930 . S
C515 C511 1.400 1_545 S
C515 C514 1.385 . S
C516 C514 1.478 . S
C516 C518 1.381 . S
C516 C522 1.383 . S
C517 C513 1.495 . S
C517 H523 0.959 . S
C517 H524 0.961 . S
C517 H525 0.960 . S
C518 C516 1.381 . S
C518 C519 1.394 . S
C518 H526 0.930 . S
C519 C518 1.394 . S
C519 C520 1.383 . S
C519 H527 0.929 . S
C520 C519 1.383 . S
C520 C521 1.377 . S
C521 H505 0.930 . S
C521 C520 1.377 . S
C521 C522 1.379 . S
C522 H506 0.931 . S
C522 C516 1.383 . S
C522 C521 1.379 . S
H523 C517 0.959 . S
H524 C517 0.961 . S
H525 C517 0.960 . S
H526 C518 0.930 . S
H527 C519 0.929 . S
H528 C536 0.929 . S
H529 C538 0.930 . S
H530 C540 0.930 . S
H531 C543 0.929 . S
H532 C546 0.930 . S
H533 C548 0.960 . S
H534 C548 0.960 . S
H535 C548 0.960 . S
C536 H528 0.929 . S
C536 C537 1.377 . S
C536 C538 1.384 . S
C537 C536 1.377 . S
C537 C543 1.390 . S
C538 H529 0.930 . S
C538 C536 1.384 . S
C538 C539 1.372 . S
C539 C538 1.372 . S
C539 C540 1.400 . S
C539 C544 1.490 . S
C540 H530 0.930 . S
C540 C539 1.400 . S
C540 C543 1.386 . S
H541 C557 0.930 . S
H542 C558 0.931 . S
C543 H531 0.929 . S
C543 C537 1.390 . S
C543 C540 1.386 . S
C544 C539 1.490 . S
C544 C546 1.395 . S
C544 C547 1.403 . S
H545 C551 0.930 . S
C546 H532 0.930 . S
C546 C544 1.395 . S
C546 C549 1.403 . S
C547 C544 1.403 . S
C547 C548 1.524 . S
C547 C551 1.400 . S
C548 H533 0.960 . S
C548 H534 0.960 . S
C548 H535 0.960 . S
C548 C547 1.524 . S
C549 C546 1.403 . S
C549 C550 1.392 . S
C549 C553 1.495 . S
C550 C549 1.392 . S
C550 C551 1.385 . S
C550 C552 1.478 . S
C551 H545 0.930 . S
C551 C547 1.400 . S
C551 C550 1.385 . S
C552 C550 1.478 . S
C552 C554 1.381 . S
C552 C558 1.383 . S
C553 C549 1.495 . S
C553 H559 0.959 . S
C553 H560 0.961 . S
C553 H561 0.960 . S
C554 C552 1.381 . S
C554 C555 1.394 . S
C554 H562 0.930 . S
C555 C554 1.394 . S
C555 C556 1.383 . S
C555 H563 0.929 . S
C556 C555 1.383 . S
C556 C557 1.377 . S
C557 H541 0.930 . S
C557 C556 1.377 . S
C557 C558 1.379 . S
C558 H542 0.931 . S
C558 C552 1.383 . S
C558 C557 1.379 . S
H559 C553 0.959 . S
H560 C553 0.961 . S
H561 C553 0.960 . S
H562 C554 0.930 . S
H563 C555 0.929 . S
H564 C572 0.929 . S
H565 C574 0.930 . S
H566 C576 0.930 . S
H567 C579 0.929 . S
H568 C582 0.930 . S
H569 C584 0.960 . S
H570 C584 0.960 . S
H571 C584 0.960 . S
C572 H564 0.929 . S
C572 C573 1.377 . S
C572 C574 1.384 . S
C573 C572 1.377 . S
C573 C579 1.390 . S
C574 H565 0.930 . S
C574 C572 1.384 . S
C574 C575 1.372 . S
C575 C574 1.372 . S
C575 C576 1.400 . S
C575 C580 1.490 . S
C576 H566 0.930 . S
C576 C575 1.400 . S
C576 C579 1.386 . S
H577 C593 0.930 . S
H578 C594 0.931 . S
C579 H567 0.929 . S
C579 C573 1.390 . S
C579 C576 1.386 . S
C580 C575 1.490 . S
C580 C582 1.395 . S
C580 C583 1.403 . S
H581 C587 0.930 . S
C582 H568 0.930 . S
C582 C580 1.395 . S
C582 C585 1.403 1_556 S
C583 C580 1.403 . S
C583 C584 1.524 . S
C583 C587 1.400 1_556 S
C584 H569 0.960 . S
C584 H570 0.960 . S
C584 H571 0.960 . S
C584 C583 1.524 . S
C585 C582 1.403 1_554 S
C585 C586 1.392 . S
C585 C589 1.495 . S
C586 C585 1.392 . S
C586 C587 1.385 . S
C586 C588 1.478 . S
C587 H581 0.930 . S
C587 C583 1.400 1_554 S
C587 C586 1.385 . S
C588 C586 1.478 . S
C588 C590 1.381 . S
C588 C594 1.383 . S
C589 C585 1.495 . S
C589 H595 0.959 . S
C589 H596 0.961 . S
C589 H597 0.960 . S
C590 C588 1.381 . S
C590 C591 1.394 . S
C590 H598 0.930 . S
C591 C590 1.394 . S
C591 C592 1.383 . S
C591 H599 0.929 . S
C592 C591 1.383 . S
C592 C593 1.377 . S
C593 H577 0.930 . S
C593 C592 1.377 . S
C593 C594 1.379 . S
C594 H578 0.931 . S
C594 C588 1.383 . S
C594 C593 1.379 . S
H595 C589 0.959 . S
H596 C589 0.961 . S
H597 C589 0.960 . S
H598 C590 0.930 . S
H599 C591 0.929 . S
H600 C608 0.929 . S
H601 C610 0.930 . S
H602 C612 0.930 . S
H603 C615 0.929 . S
H604 C618 0.930 . S
H605 C620 0.960 . S
H606 C620 0.960 . S
H607 C620 0.960 . S
C608 H600 0.929 . S
C608 C609 1.377 . S
C608 C610 1.384 . S
C609 C608 1.377 . S
C609 C615 1.390 . S
C610 H601 0.930 . S
C610 C608 1.384 . S
C610 C611 1.372 . S
C611 C610 1.372 . S
C611 C612 1.400 . S
C611 C616 1.490 . S
C612 H602 0.930 . S
C612 C611 1.400 . S
C612 C615 1.386 . S
H613 C629 0.930 . S
H614 C630 0.931 . S
C615 H603 0.929 . S
C615 C609 1.390 . S
C615 C612 1.386 . S
C616 C611 1.490 . S
C616 C618 1.395 . S
C616 C619 1.403 . S
H617 C623 0.930 . S
C618 H604 0.930 . S
C618 C616 1.395 . S
C618 C621 1.403 . S
C619 C616 1.403 . S
C619 C620 1.524 . S
C619 C623 1.400 . S
C620 H605 0.960 . S
C620 H606 0.960 . S
C620 H607 0.960 . S
C620 C619 1.524 . S
C621 C618 1.403 . S
C621 C622 1.392 . S
C621 C625 1.495 . S
C622 C621 1.392 . S
C622 C623 1.385 . S
C622 C624 1.478 . S
C623 H617 0.930 . S
C623 C619 1.400 . S
C623 C622 1.385 . S
C624 C622 1.478 . S
C624 C626 1.381 . S
C624 C630 1.383 . S
C625 C621 1.495 . S
C625 H631 0.959 . S
C625 H632 0.961 . S
C625 H633 0.960 . S
C626 C624 1.381 . S
C626 C627 1.394 . S
C626 H634 0.930 . S
C627 C626 1.394 . S
C627 C628 1.383 . S
C627 H635 0.929 . S
C628 C627 1.383 . S
C628 C629 1.377 . S
C629 H613 0.930 . S
C629 C628 1.377 . S
C629 C630 1.379 . S
C630 H614 0.931 . S
C630 C624 1.383 . S
C630 C629 1.379 . S
H631 C625 0.959 . S
H632 C625 0.961 . S
H633 C625 0.960 . S
H634 C626 0.930 . S
H635 C627 0.929 . S
H636 C644 0.929 . S
H637 C646 0.930 . S
H638 C648 0.930 . S
H639 C651 0.929 . S
H640 C654 0.930 . S
H641 C656 0.960 . S
H642 C656 0.960 . S
H643 C656 0.960 . S
C644 H636 0.929 . S
C644 C645 1.377 . S
C644 C646 1.384 . S
C645 C644 1.377 . S
C645 C651 1.390 . S
C646 H637 0.930 . S
C646 C644 1.384 . S
C646 C647 1.372 . S
C647 C646 1.372 . S
C647 C648 1.400 . S
C647 C652 1.490 . S
C648 H638 0.930 . S
C648 C647 1.400 . S
C648 C651 1.386 . S
H649 C665 0.930 . S
H650 C666 0.931 . S
C651 H639 0.929 . S
C651 C645 1.390 . S
C651 C648 1.386 . S
C652 C647 1.490 . S
C652 C654 1.395 . S
C652 C655 1.403 . S
H653 C659 0.930 . S
C654 H640 0.930 . S
C654 C652 1.395 . S
C654 C657 1.403 . S
C655 C652 1.403 . S
C655 C656 1.524 . S
C655 C659 1.400 . S
C656 H641 0.960 . S
C656 H642 0.960 . S
C656 H643 0.960 . S
C656 C655 1.524 . S
C657 C654 1.403 . S
C657 C658 1.392 . S
C657 C661 1.495 . S
C658 C657 1.392 . S
C658 C659 1.385 . S
C658 C660 1.478 . S
C659 H653 0.930 . S
C659 C655 1.400 . S
C659 C658 1.385 . S
C660 C658 1.478 . S
C660 C662 1.381 . S
C660 C666 1.383 . S
C661 C657 1.495 . S
C661 H667 0.959 . S
C661 H668 0.961 . S
C661 H669 0.960 . S
C662 C660 1.381 . S
C662 C663 1.394 . S
C662 H670 0.930 . S
C663 C662 1.394 . S
C663 C664 1.383 . S
C663 H671 0.929 . S
C664 C663 1.383 . S
C664 C665 1.377 . S
C665 H649 0.930 . S
C665 C664 1.377 . S
C665 C666 1.379 . S
C666 H650 0.931 . S
C666 C660 1.383 . S
C666 C665 1.379 . S
H667 C661 0.959 . S
H668 C661 0.961 . S
H669 C661 0.960 . S
H670 C662 0.930 . S
H671 C663 0.929 . S
H672 C680 0.929 . S
H673 C682 0.930 . S
H674 C684 0.930 . S
H675 C687 0.929 . S
H676 C690 0.930 . S
H677 C692 0.960 . S
H678 C692 0.960 . S
H679 C692 0.960 . S
C680 H672 0.929 . S
C680 C681 1.377 . S
C680 C682 1.384 . S
C681 C680 1.377 . S
C681 C687 1.390 . S
C682 H673 0.930 . S
C682 C680 1.384 . S
C682 C683 1.372 . S
C683 C682 1.372 . S
C683 C684 1.400 . S
C683 C688 1.490 . S
C684 H674 0.930 . S
C684 C683 1.400 . S
C684 C687 1.386 . S
H685 C701 0.930 . S
H686 C702 0.931 . S
C687 H675 0.929 . S
C687 C681 1.390 . S
C687 C684 1.386 . S
C688 C683 1.490 . S
C688 C690 1.395 . S
C688 C691 1.403 . S
H689 C695 0.930 . S
C690 H676 0.930 . S
C690 C688 1.395 . S
C690 C693 1.403 1_554 S
C691 C688 1.403 . S
C691 C692 1.524 . S
C691 C695 1.400 1_554 S
C692 H677 0.960 . S
C692 H678 0.960 . S
C692 H679 0.960 . S
C692 C691 1.524 . S
C693 C690 1.403 1_556 S
C693 C694 1.392 . S
C693 C697 1.495 . S
C694 C693 1.392 . S
C694 C695 1.385 . S
C694 C696 1.478 . S
C695 H689 0.930 . S
C695 C691 1.400 1_556 S
C695 C694 1.385 . S
C696 C694 1.478 . S
C696 C698 1.381 . S
C696 C702 1.383 . S
C697 C693 1.495 . S
C697 H703 0.959 . S
C697 H704 0.961 . S
C697 H705 0.960 . S
C698 C696 1.381 . S
C698 C699 1.394 . S
C698 H706 0.930 . S
C699 C698 1.394 . S
C699 C700 1.383 . S
C699 H707 0.929 . S
C700 C699 1.383 . S
C700 C701 1.377 . S
C701 H685 0.930 . S
C701 C700 1.377 . S
C701 C702 1.379 . S
C702 H686 0.931 . S
C702 C696 1.383 . S
C702 C701 1.379 . S
H703 C697 0.959 . S
H704 C697 0.961 . S
H705 C697 0.960 . S
H706 C698 0.930 . S
H707 C699 0.929 . S
H708 C716 0.929 . S
H709 C718 0.930 . S
H710 C720 0.930 . S
H711 C723 0.929 . S
H712 C726 0.930 . S
H713 C728 0.960 . S
H714 C728 0.960 . S
H715 C728 0.960 . S
C716 H708 0.929 . S
C716 C717 1.377 . S
C716 C718 1.384 . S
C717 C716 1.377 . S
C717 C723 1.390 . S
C718 H709 0.930 . S
C718 C716 1.384 . S
C718 C719 1.372 . S
C719 C718 1.372 . S
C719 C720 1.400 . S
C719 C724 1.490 . S
C720 H710 0.930 . S
C720 C719 1.400 . S
C720 C723 1.386 . S
H721 C737 0.930 . S
H722 C738 0.931 . S
C723 H711 0.929 . S
C723 C717 1.390 . S
C723 C720 1.386 . S
C724 C719 1.490 . S
C724 C726 1.395 . S
C724 C727 1.403 . S
H725 C731 0.930 . S
C726 H712 0.930 . S
C726 C724 1.395 . S
C726 C729 1.403 . S
C727 C724 1.403 . S
C727 C728 1.524 . S
C727 C731 1.400 . S
C728 H713 0.960 . S
C728 H714 0.960 . S
C728 H715 0.960 . S
C728 C727 1.524 . S
C729 C726 1.403 . S
C729 C730 1.392 . S
C729 C733 1.495 . S
C730 C729 1.392 . S
C730 C731 1.385 . S
C730 C732 1.478 . S
C731 H725 0.930 . S
C731 C727 1.400 . S
C731 C730 1.385 . S
C732 C730 1.478 . S
C732 C734 1.381 . S
C732 C738 1.383 . S
C733 C729 1.495 . S
C733 H739 0.959 . S
C733 H740 0.961 . S
C733 H741 0.960 . S
C734 C732 1.381 . S
C734 C735 1.394 . S
C734 H742 0.930 . S
C735 C734 1.394 . S
C735 C736 1.383 . S
C735 H743 0.929 . S
C736 C735 1.383 . S
C736 C737 1.377 . S
C737 H721 0.930 . S
C737 C736 1.377 . S
C737 C738 1.379 . S
C738 H722 0.931 . S
C738 C732 1.383 . S
C738 C737 1.379 . S
H739 C733 0.959 . S
H740 C733 0.961 . S
H741 C733 0.960 . S
H742 C734 0.930 . S
H743 C735 0.929 . S
H744 C752 0.929 . S
H745 C754 0.930 . S
H746 C756 0.930 . S
H747 C759 0.929 . S
H748 C762 0.930 . S
H749 C764 0.960 . S
H750 C764 0.960 . S
H751 C764 0.960 . S
C752 H744 0.929 . S
C752 C753 1.377 . S
C752 C754 1.384 . S
C753 C752 1.377 . S
C753 C759 1.390 . S
C754 H745 0.930 . S
C754 C752 1.384 . S
C754 C755 1.372 . S
C755 C754 1.372 . S
C755 C756 1.400 . S
C755 C760 1.490 . S
C756 H746 0.930 . S
C756 C755 1.400 . S
C756 C759 1.386 . S
H757 C773 0.930 . S
H758 C774 0.931 . S
C759 H747 0.929 . S
C759 C753 1.390 . S
C759 C756 1.386 . S
C760 C755 1.490 . S
C760 C762 1.395 . S
C760 C763 1.403 . S
H761 C767 0.930 . S
C762 H748 0.930 . S
C762 C760 1.395 . S
C762 C765 1.403 . S
C763 C760 1.403 . S
C763 C764 1.524 . S
C763 C767 1.400 . S
C764 H749 0.960 . S
C764 H750 0.960 . S
C764 H751 0.960 . S
C764 C763 1.524 . S
C765 C762 1.403 . S
C765 C766 1.392 . S
C765 C769 1.495 . S
C766 C765 1.392 . S
C766 C767 1.385 . S
C766 C768 1.478 . S
C767 H761 0.930 . S
C767 C763 1.400 . S
C767 C766 1.385 . S
C768 C766 1.478 . S
C768 C770 1.381 . S
C768 C774 1.383 . S
C769 C765 1.495 . S
C769 H775 0.959 . S
C769 H776 0.961 . S
C769 H777 0.960 . S
C770 C768 1.381 . S
C770 C771 1.394 . S
C770 H778 0.930 . S
C771 C770 1.394 . S
C771 C772 1.383 . S
C771 H779 0.929 . S
C772 C771 1.383 . S
C772 C773 1.377 . S
C773 H757 0.930 . S
C773 C772 1.377 . S
C773 C774 1.379 . S
C774 H758 0.931 . S
C774 C768 1.383 . S
C774 C773 1.379 . S
H775 C769 0.959 . S
H776 C769 0.961 . S
H777 C769 0.960 . S
H778 C770 0.930 . S
H779 C771 0.929 . S
C141 C96 1.553 . S
C160 C8 1.541 . S
C177 C19 1.559 . S
C196 C107 1.572 . S
C213 C118 1.554 . S
C232 C30 1.534 . S
C249 C129 1.560 . S
C268 C41 1.558 . S
C285 C74 1.553 . S
C304 C52 1.537 . S
C321 C63 1.555 . S
C340 C85 1.557 . S
C357 C38 1.292 . S
C376 C5 1.325 . S
C393 C49 1.291 . S
C412 C16 1.313 . S
C429 C27 1.281 . S
C448 C60 1.273 . S
C465 C104 1.292 . S
C484 C71 1.317 . S
C501 C82 1.282 . S
C520 C115 1.278 . S
C537 C126 1.274 . S
C556 C93 1.235 . S
C573 C117 1.490 . S
C592 C7 1.468 . S
C609 C128 1.491 . S
C628 C18 1.480 . S
C645 C29 1.491 . S
C664 C73 1.462 . S
C681 C40 1.500 . S
C700 C84 1.492 . S
C717 C51 1.490 . S
C736 C95 1.468 . S
C753 C62 1.496 . S
C772 C106 1.476 . S
