# Generated by pormake.
# Topology uof, (4)-cn, num edge types: 1
# Building blocks:
#     Node 0, Type 0, BuildingBlock: CEKHIL_clean_sbu_0, # of connection points: 4
#     Node 1, Type 0, BuildingBlock: CEKHIL_clean_sbu_0, # of connection points: 4
#     Node 2, Type 0, BuildingBlock: CEKHIL_clean_sbu_0, # of connection points: 4
#     Node 3, Type 0, BuildingBlock: CEKHIL_clean_sbu_0, # of connection points: 4
#     Node 4, Type 0, BuildingBlock: CEKHIL_clean_sbu_0, # of connection points: 4
#     Node 5, Type 0, BuildingBlock: CEKHIL_clean_sbu_0, # of connection points: 4
#     Node 6, Type 0, BuildingBlock: CEKHIL_clean_sbu_0, # of connection points: 4
#     Node 7, Type 0, BuildingBlock: CEKHIL_clean_sbu_0, # of connection points: 4
#     Node 8, Type 0, BuildingBlock: CEKHIL_clean_sbu_0, # of connection points: 4
#     Node 9, Type 0, BuildingBlock: CEKHIL_clean_sbu_0, # of connection points: 4
#     Node 10, Type 0, BuildingBlock: CEKHIL_clean_sbu_0, # of connection points: 4
#     Node 11, Type 0, BuildingBlock: CEKHIL_clean_sbu_0, # of connection points: 4
#     Edge 12, Type (0, 0), BuildingBlock: XUDNAN_clean_linker_2, # of connection points: 2
#     Edge 13, Type (0, 0), BuildingBlock: XUDNAN_clean_linker_2, # of connection points: 2
#     Edge 14, Type (0, 0), BuildingBlock: XUDNAN_clean_linker_2, # of connection points: 2
#     Edge 15, Type (0, 0), BuildingBlock: XUDNAN_clean_linker_2, # of connection points: 2
#     Edge 16, Type (0, 0), BuildingBlock: XUDNAN_clean_linker_2, # of connection points: 2
#     Edge 17, Type (0, 0), BuildingBlock: XUDNAN_clean_linker_2, # of connection points: 2
#     Edge 18, Type (0, 0), BuildingBlock: XUDNAN_clean_linker_2, # of connection points: 2
#     Edge 19, Type (0, 0), BuildingBlock: XUDNAN_clean_linker_2, # of connection points: 2
#     Edge 20, Type (0, 0), BuildingBlock: XUDNAN_clean_linker_2, # of connection points: 2
#     Edge 21, Type (0, 0), BuildingBlock: XUDNAN_clean_linker_2, # of connection points: 2
#     Edge 22, Type (0, 0), BuildingBlock: XUDNAN_clean_linker_2, # of connection points: 2
#     Edge 23, Type (0, 0), BuildingBlock: XUDNAN_clean_linker_2, # of connection points: 2
#     Edge 24, Type (0, 0), BuildingBlock: XUDNAN_clean_linker_2, # of connection points: 2
#     Edge 25, Type (0, 0), BuildingBlock: XUDNAN_clean_linker_2, # of connection points: 2
#     Edge 26, Type (0, 0), BuildingBlock: XUDNAN_clean_linker_2, # of connection points: 2
#     Edge 27, Type (0, 0), BuildingBlock: XUDNAN_clean_linker_2, # of connection points: 2
#     Edge 28, Type (0, 0), BuildingBlock: XUDNAN_clean_linker_2, # of connection points: 2
#     Edge 29, Type (0, 0), BuildingBlock: XUDNAN_clean_linker_2, # of connection points: 2
#     Edge 30, Type (0, 0), BuildingBlock: XUDNAN_clean_linker_2, # of connection points: 2
#     Edge 31, Type (0, 0), BuildingBlock: XUDNAN_clean_linker_2, # of connection points: 2
#     Edge 32, Type (0, 0), BuildingBlock: XUDNAN_clean_linker_2, # of connection points: 2
#     Edge 33, Type (0, 0), BuildingBlock: XUDNAN_clean_linker_2, # of connection points: 2
#     Edge 34, Type (0, 0), BuildingBlock: XUDNAN_clean_linker_2, # of connection points: 2
#     Edge 35, Type (0, 0), BuildingBlock: XUDNAN_clean_linker_2, # of connection points: 2
# Relax obj value: 0.198
# Max RMSD: 0.142
# Mean RMSD: 0.142
data_MOF--net-uof--node1-CEKHIL_clean_sbu_0--edge1-XUDNAN_clean_linker_2
_symmetry_space_group_name_H-M    P1
_symmetry_Int_Tables_number       1
_symmetry_cell_setting            triclinic
loop_
_symmetry_equiv_pos_as_xyz
'x, y, z'
_cell_length_a     31.708267
_cell_length_b     31.792315
_cell_length_c     62.277706
_cell_angle_alpha  90.044214
_cell_angle_beta   89.882707
_cell_angle_gamma 119.91763
loop_
_atom_site_label
_atom_site_type_symbol
_atom_site_fract_x
_atom_site_fract_y
_atom_site_fract_z
_atom_type_partial_charge
Co0 Co 0.22996 0.31838 0.23154 0.0
O1 O 0.15948 0.27342 0.23146 0.0
O2 O 0.19544 0.34136 0.21304 0.0
C3 C 0.2431 0.31659 0.26733 0.0
O4 O 0.30175 0.37406 0.22731 0.0
Co5 Co 0.3031 0.28488 0.24652 0.0
O6 O 0.35285 0.35435 0.24392 0.0
C7 C 0.23609 0.2404 0.21001 0.0
C8 C 0.15533 0.30123 0.21737 0.0
C9 C 0.34479 0.38457 0.23392 0.0
O10 O 0.23449 0.27963 0.20736 0.0
O11 O 0.25811 0.23414 0.22582 0.0
O12 O 0.22847 0.34572 0.26012 0.0
O13 O 0.24553 0.2885 0.25332 0.0
Co14 Co 0.9232 0.22712 0.5566 0.0
O15 O 0.9062 0.15919 0.55336 0.0
O16 O 0.8578 0.18716 0.54441 0.0
C17 C 0.95772 0.23963 0.59 0.0
O18 O 0.92929 0.29585 0.55706 0.0
Co19 Co 0.03166 0.31 0.56271 0.0
O20 O 1.00261 0.34994 0.57068 0.0
C21 C 0.99635 0.25775 0.52137 0.0
C22 C 0.86573 0.15067 0.54445 0.0
C23 C 0.96028 0.33888 0.56426 0.0
O24 O 0.9516 0.23861 0.52699 0.0
O25 O 0.03223 0.28362 0.53378 0.0
O26 O 0.9106 0.21963 0.58819 0.0
O27 O 0.98039 0.24751 0.57209 0.0
Co28 Co 0.74182 0.92904 0.90745 0.0
O29 O 0.77514 0.8916 0.9093 0.0
O30 O 0.72406 0.88279 0.88352 0.0
C31 C 0.72275 0.92688 0.94289 0.0
O32 O 0.69917 0.9603 0.9007 0.0
Co33 Co 0.78275 0.02802 0.93171 0.0
O34 O 0.71913 0.02174 0.92411 0.0
C35 C 0.83727 0.01545 0.89694 0.0
C36 C 0.75476 0.87085 0.89131 0.0
C37 C 0.69164 0.99304 0.90954 0.0
O38 O 0.7977 0.979 0.89001 0.0
O39 O 0.84004 0.03643 0.91482 0.0
O40 O 0.6954 0.88975 0.93067 0.0
O41 O 0.76147 0.95981 0.93383 0.0
Co42 Co 0.79145 0.70892 0.23563 0.0
O43 O 0.86175 0.73578 0.23595 0.0
O44 O 0.81576 0.69901 0.208 0.0
C45 C 0.77578 0.67566 0.26892 0.0
O46 O 0.7168 0.67352 0.22972 0.0
Co47 Co 0.74022 0.7424 0.26914 0.0
O48 O 0.67988 0.68611 0.258 0.0
C49 C 0.80893 0.81005 0.23743 0.0
C50 C 0.85944 0.7227 0.21605 0.0
C51 C 0.678 0.66387 0.24066 0.0
O52 O 0.80249 0.77399 0.22558 0.0
O53 O 0.79163 0.80464 0.25643 0.0
O54 O 0.78032 0.65149 0.25298 0.0
O55 O 0.78453 0.71839 0.26437 0.0
Co56 Co 0.09271 0.78858 0.56499 0.0
O57 O 0.13096 0.85948 0.56477 0.0
O58 O 0.14308 0.8127 0.54255 0.0
C59 C 0.08908 0.77687 0.60108 0.0
O60 O 0.06044 0.71394 0.56029 0.0
Co61 Co 0.99039 0.73432 0.58741 0.0
O62 O 0.99645 0.67578 0.58288 0.0
C63 C 1.01098 0.80049 0.5508 0.0
C64 C 0.15402 0.85651 0.54811 0.0
C65 C 0.02642 0.67498 0.56945 0.0
O66 O 0.04647 0.79428 0.54503 0.0
O67 O 0.98718 0.78317 0.56826 0.0
O68 O 0.12724 0.78261 0.59053 0.0
O69 O 0.05835 0.78229 0.58993 0.0
Co70 Co 0.34175 0.08602 0.88483 0.0
O71 O 0.28954 0.10046 0.87904 0.0
O72 O 0.3667 0.15112 0.87243 0.0
C73 C 0.31565 0.05222 0.9181 0.0
O74 O 0.40574 0.08288 0.88821 0.0
Co75 Co 0.31977 0.97941 0.89268 0.0
O76 O 0.38689 0.01146 0.90366 0.0
C77 C 0.31719 0.01429 0.84875 0.0
C78 C 0.32184 0.14184 0.87105 0.0
C79 C 0.41811 0.05351 0.89703 0.0
O80 O 0.33229 0.05785 0.85522 0.0
O81 O 0.30798 0.97871 0.86121 0.0
O82 O 0.34115 0.09922 0.91599 0.0
O83 O 0.30405 0.02863 0.90034 0.0
Co84 Co 0.71012 0.78102 0.43998 0.0
O85 O 0.74258 0.85181 0.43879 0.0
O86 O 0.68211 0.80681 0.46072 0.0
C87 C 0.70464 0.76405 0.40425 0.0
O88 O 0.66763 0.70693 0.44574 0.0
Co89 Co 0.76383 0.72775 0.4224 0.0
O90 O 0.70362 0.66774 0.43089 0.0
C91 C 0.80448 0.80257 0.4555 0.0
C92 C 0.71581 0.85013 0.45496 0.0
C93 C 0.66834 0.66756 0.44085 0.0
O94 O 0.76085 0.78973 0.46137 0.0
O95 O 0.81364 0.78549 0.43866 0.0
O96 O 0.67166 0.77158 0.41322 0.0
O97 O 0.74027 0.77213 0.41642 0.0
Co98 Co 0.94966 0.70996 0.77452 0.0
O99 O 0.91104 0.74171 0.77924 0.0
O100 O 0.9141 0.69017 0.80179 0.0
C101 C 0.9335 0.69151 0.73928 0.0
O102 O 0.98489 0.66965 0.7748 0.0
Co103 Co 0.03703 0.75617 0.74145 0.0
O104 O 0.04745 0.70222 0.75107 0.0
C105 C 0.03502 0.80532 0.77878 0.0
C106 C 0.8982 0.72009 0.79774 0.0
C107 C 0.02159 0.67036 0.76514 0.0
O108 O 1.00703 0.76561 0.78872 0.0
O109 O 0.0325 0.80754 0.75847 0.0
O110 O 0.90225 0.66267 0.75358 0.0
O111 O 0.96845 0.73095 0.74667 0.0
Co112 Co 0.21596 0.92776 0.10148 0.0
O113 O 0.14502 0.88556 0.10312 0.0
O114 O 0.19682 0.88343 0.12587 0.0
C115 C 0.22718 0.92547 0.06544 0.0
O116 O 0.2914 0.96465 0.10533 0.0
Co117 Co 0.26099 0.02592 0.07661 0.0
O118 O 0.32425 0.03305 0.08545 0.0
C119 C 0.19523 1.00551 0.11253 0.0
C120 C 0.15157 0.86813 0.1209 0.0
C121 C 0.32875 1.00393 0.09807 0.0
O122 O 0.20823 0.9757 0.1196 0.0
O123 O 0.20743 0.02486 0.09393 0.0
O124 O 0.22246 0.88976 0.07751 0.0
O125 O 0.21925 0.95641 0.0751 0.0
Co126 Co 0.32448 0.2213 0.43649 0.0
O127 O 0.28235 0.15084 0.43915 0.0
O128 O 0.34496 0.19457 0.46009 0.0
C129 C 0.33194 0.22427 0.40004 0.0
O130 O 0.37695 0.29465 0.439 0.0
Co131 Co 0.29486 0.28633 0.40946 0.0
O132 O 0.36073 0.3398 0.41619 0.0
C133 C 0.24489 0.23921 0.45003 0.0
C134 C 0.30794 0.15215 0.45565 0.0
C135 C 0.38795 0.33593 0.43013 0.0
O136 O 0.27806 0.22945 0.45577 0.0
O137 O 0.24332 0.25649 0.43171 0.0
O138 O 0.36051 0.21487 0.41161 0.0
O139 O 0.29966 0.22847 0.41054 0.0
Co140 Co 0.11791 0.31983 0.77052 0.0
O141 O 0.14165 0.27371 0.7728 0.0
O142 O 0.17423 0.34345 0.78982 0.0
C143 C 0.10614 0.31573 0.73437 0.0
O144 O 0.10286 0.37677 0.77216 0.0
Co145 Co 1.01177 0.28389 0.75421 0.0
O146 O 0.02849 0.35216 0.75811 0.0
C147 C 0.03217 0.24521 0.79307 0.0
C148 C 0.17349 0.30255 0.78666 0.0
C149 C 0.06787 0.38479 0.76663 0.0
O150 O 0.07297 0.28481 0.7949 0.0
O151 O 1.00457 0.23581 0.77671 0.0
O152 O 0.14953 0.34361 0.74222 0.0
O153 O 0.07395 0.28891 0.74823 0.0
Co154 Co 0.76694 0.0803 0.12317 0.0
O155 O 0.83632 0.10073 0.12461 0.0
O156 O 0.80525 0.14441 0.13666 0.0
C157 C 0.75108 0.04983 0.08919 0.0
O158 O 0.69646 0.07039 0.1243 0.0
Co159 Co 0.69029 0.9696 0.11817 0.0
O160 O 0.64199 0.99134 0.11815 0.0
C161 C 0.76178 1.00885 0.15277 0.0
C162 C 0.84338 0.13921 0.13491 0.0
C163 C 0.652 0.0349 0.12154 0.0
O164 O 0.76005 0.0482 0.15159 0.0
O165 O 0.73916 0.97394 0.13952 0.0
O166 O 0.77075 0.09655 0.09217 0.0
O167 O 0.74721 0.02545 0.1062 0.0
H168 H 0.9079 0.11569 0.15403 0.0
H169 H 0.88571 0.23747 0.142 0.0
H170 H 0.96244 0.29177 0.16122 0.0
H171 H 0.9529 0.15184 0.20805 0.0
H172 H 0.99603 0.13069 0.2065 0.0
H173 H 0.94144 0.10208 0.19054 0.0
H174 H 0.99312 0.11862 0.15613 0.0
H175 H 0.04791 0.14717 0.17196 0.0
H176 H 0.04023 0.17971 0.15005 0.0
H177 H 0.04505 0.33413 0.18079 0.0
H178 H 0.12031 0.35871 0.20168 0.0
H179 H 0.08522 0.20853 0.20468 0.0
C180 C 0.91956 0.15396 0.15519 0.0
C181 C 0.8909 0.17239 0.14601 0.0
C182 C 0.90694 0.22243 0.14858 0.0
C183 C 0.95066 0.2536 0.15952 0.0
C184 C 0.97795 0.23435 0.1684 0.0
C185 C 0.96261 0.18544 0.16661 0.0
C186 C 0.99714 0.17341 0.17871 0.0
C187 C 0.97027 0.13737 0.19704 0.0
C188 C 0.021 0.15355 0.16329 0.0
C189 C 0.03455 0.22316 0.18743 0.0
C190 C 0.02318 0.25795 0.18101 0.0
C191 C 0.0537 0.30692 0.18612 0.0
C192 C 0.09656 0.32067 0.19803 0.0
C193 C 0.10857 0.28573 0.20532 0.0
C194 C 0.07669 0.23618 0.19989 0.0
H195 H 0.89165 0.08868 0.52471 0.0
H196 H 0.76726 0.1073 0.53658 0.0
H197 H 0.71513 0.03241 0.51579 0.0
H198 H 0.86067 0.05018 0.46993 0.0
H199 H 0.88276 1.0078 0.47068 0.0
H200 H 0.90919 0.0602 0.48798 0.0
H201 H 0.89025 1.00441 0.52111 0.0
H202 H 0.86385 0.95191 0.50387 0.0
H203 H 0.82881 0.95614 0.52572 0.0
H204 H 0.67535 0.9519 0.49427 0.0
H205 H 0.65426 0.88003 0.47139 0.0
H206 H 0.80606 0.91918 0.46974 0.0
C207 C 0.85328 0.07668 0.52319 0.0
C208 C 0.83352 0.10382 0.53273 0.0
C209 C 0.78333 0.08721 0.52973 0.0
C210 C 0.75338 0.04454 0.5179 0.0
C211 C 0.77405 0.0189 0.50859 0.0
C212 C 0.82311 0.03479 0.5109 0.0
C213 C 0.83706 1.00253 0.49813 0.0
C214 C 0.87465 0.03194 0.48064 0.0
C215 C 0.85611 0.97726 0.5131 0.0
C216 C 0.7883 0.96597 0.4883 0.0
C217 C 0.75216 0.97542 0.49487 0.0
C218 C 0.70366 0.94484 0.48882 0.0
C219 C 0.69189 0.90399 0.47577 0.0
C220 C 0.72845 0.89442 0.46825 0.0
C221 C 0.77734 0.92616 0.47468 0.0
H222 H 0.77085 0.86554 0.84763 0.0
H223 H 0.77497 0.80484 0.90933 0.0
H224 H 0.80653 0.75618 0.89184 0.0
H225 H 0.7395 0.75775 0.81436 0.0
H226 H 0.77935 0.79258 0.79265 0.0
H227 H 0.75242 0.81897 0.80955 0.0
H228 H 0.83799 0.89088 0.81818 0.0
H229 H 0.86517 0.8647 0.80135 0.0
H230 H 0.88367 0.8789 0.82899 0.0
H231 H 0.84012 0.71519 0.86772 0.0
H232 H 0.87792 0.68975 0.83965 0.0
H233 H 0.85803 0.7803 0.79339 0.0
C234 C 0.77728 0.84107 0.85735 0.0
C235 C 0.76919 0.83823 0.87991 0.0
C236 C 0.78005 0.80719 0.89207 0.0
C237 C 0.79808 0.77936 0.88223 0.0
C238 C 0.8062 0.78331 0.86009 0.0
C239 C 0.79654 0.81371 0.84777 0.0
C240 C 0.81219 0.81398 0.82454 0.0
C241 C 0.76824 0.79467 0.80938 0.0
C242 C 0.85212 0.86515 0.81788 0.0
C243 C 0.83205 0.77904 0.82572 0.0
C244 C 0.82767 0.76138 0.84636 0.0
C245 C 0.84362 0.72884 0.85152 0.0
C246 C 0.86503 0.7144 0.83537 0.0
C247 C 0.87108 0.73261 0.81413 0.0
C248 C 0.85388 0.76528 0.80936 0.0
H249 H 0.88101 0.75194 0.17314 0.0
H250 H 0.94257 0.72782 0.23072 0.0
H251 H 0.02088 0.75658 0.21188 0.0
H252 H 0.94739 0.72036 0.13352 0.0
H253 H 0.95727 0.76838 0.11524 0.0
H254 H 0.90444 0.7418 0.13245 0.0
H255 H 0.92879 0.82677 0.14757 0.0
H256 H 0.98161 0.85357 0.1304 0.0
H257 H 0.98846 0.8635 0.15898 0.0
H258 H 0.09396 0.79019 0.18723 0.0
H259 H 0.15757 0.831 0.15966 0.0
H260 H 0.0525 0.83894 0.11782 0.0
C261 C 0.9107 0.75172 0.18159 0.0
C262 C 0.90503 0.73646 0.20341 0.0
C263 C 0.94554 0.73858 0.21403 0.0
C264 C 0.99032 0.75493 0.20341 0.0
C265 C 0.99496 0.77011 0.18208 0.0
C266 C 0.95641 0.76912 0.17128 0.0
C267 C 0.97259 0.79097 0.14886 0.0
C268 C 0.94369 0.75311 0.13149 0.0
C269 C 0.96756 0.83639 0.14631 0.0
C270 C 0.02603 0.80419 0.14876 0.0
C271 C 0.03786 0.79132 0.16806 0.0
C272 C 0.08494 0.80026 0.17205 0.0
C273 C 0.12101 0.82346 0.15617 0.0
C274 C 0.11057 0.83816 0.13632 0.0
C275 C 0.06195 0.82781 0.13262 0.0
H276 H 0.21877 0.09015 0.47421 0.0
H277 H 0.36566 0.11518 0.46866 0.0
H278 H 0.34271 0.04202 0.49089 0.0
H279 H 0.20447 0.05378 0.53031 0.0
H280 H 0.14071 1.0097 0.52781 0.0
H281 H 0.16794 0.06194 0.51041 0.0
H282 H 0.13798 1.00559 0.47719 0.0
H283 H 0.11082 0.95334 0.49457 0.0
H284 H 0.154 0.95882 0.47434 0.0
H285 H 0.30071 0.96112 0.51227 0.0
H286 H 0.24801 0.88866 0.53455 0.0
H287 H 0.132 0.92271 0.53053 0.0
C288 C 0.24599 0.07998 0.47758 0.0
C289 C 0.29398 0.10812 0.46932 0.0
C290 C 0.32872 0.09417 0.4746 0.0
C291 C 0.31587 0.05249 0.48721 0.0
C292 C 0.26828 0.02545 0.49508 0.0
C293 C 0.23416 0.03933 0.4908 0.0
C294 C 0.18644 1.00598 0.50233 0.0
C295 C 0.17418 0.03456 0.51869 0.0
C296 C 0.14486 0.97936 0.48613 0.0
C297 C 0.19867 0.97079 0.51355 0.0
C298 C 0.24578 0.98201 0.50883 0.0
C299 C 0.26412 0.95274 0.51631 0.0
C300 C 0.23391 0.9115 0.52896 0.0
C301 C 0.18616 0.9003 0.53467 0.0
C302 C 0.16864 0.93072 0.52682 0.0
H303 H 0.23489 0.11779 0.85065 0.0
H304 H 0.377 0.24055 0.86479 0.0
H305 H 0.35473 0.29476 0.84541 0.0
H306 H 0.22801 0.15527 0.79682 0.0
H307 H 0.16354 0.13349 0.79778 0.0
H308 H 0.18917 0.10483 0.81393 0.0
H309 H 0.15214 0.11976 0.84807 0.0
H310 H 0.12613 0.14836 0.83211 0.0
H311 H 0.16524 0.18045 0.8544 0.0
H312 H 0.31481 0.33682 0.82524 0.0
H313 H 0.26463 0.36094 0.80367 0.0
H314 H 0.15129 0.21021 0.79946 0.0
C315 C 0.26119 0.1562 0.84987 0.0
C316 C 0.3077 0.17486 0.85965 0.0
C317 C 0.34119 0.22522 0.85768 0.0
C318 C 0.32874 0.25638 0.84667 0.0
C319 C 0.28276 0.23686 0.8372 0.0
C320 C 0.24968 0.18772 0.83849 0.0
C321 C 0.20357 0.17552 0.826 0.0
C322 C 0.19563 0.14019 0.80753 0.0
C323 C 0.15915 0.15479 0.84104 0.0
C324 C 0.21574 0.22535 0.8175 0.0
C325 C 0.2613 0.2604 0.82445 0.0
C326 C 0.27941 0.30942 0.81954 0.0
C327 C 0.25058 0.32291 0.80724 0.0
C328 C 0.20429 0.28765 0.79942 0.0
C329 C 0.18695 0.23812 0.8047 0.0
H330 H 0.59795 0.61361 0.26626 0.0
H331 H 0.64547 0.62249 0.20025 0.0
H332 H 0.56227 0.55714 0.19038 0.0
H333 H 0.52495 0.48532 0.26807 0.0
H334 H 0.47966 0.48588 0.28542 0.0
H335 H 0.54153 0.53505 0.28641 0.0
H336 H 0.51166 0.59614 0.27917 0.0
H337 H 0.44967 0.54701 0.27786 0.0
H338 H 0.47539 0.58873 0.2557 0.0
H339 H 0.47102 0.48896 0.18822 0.0
H340 H 0.38768 0.41996 0.19481 0.0
H341 H 0.40351 0.45409 0.26261 0.0
C342 C 0.59102 0.6024 0.24961 0.0
C343 C 0.62852 0.62406 0.23396 0.0
C344 C 0.6176 0.60695 0.21253 0.0
C345 C 0.57024 0.56993 0.20678 0.0
C346 C 0.53411 0.54982 0.22267 0.0
C347 C 0.54446 0.56524 0.24372 0.0
C348 C 0.50078 0.53614 0.25821 0.0
C349 C 0.51243 0.50898 0.27554 0.0
C350 C 0.48336 0.56897 0.26833 0.0
C351 C 0.46398 0.50133 0.24216 0.0
C352 C 0.48333 0.51025 0.22162 0.0
C353 C 0.45575 0.48209 0.20425 0.0
C354 C 0.40814 0.44326 0.20807 0.0
C355 C 0.38858 0.43239 0.22912 0.0
C356 C 0.41697 0.46229 0.24626 0.0
H357 H 0.01932 0.60494 0.59703 0.0
H358 H 1.01335 0.63352 0.52947 0.0
H359 H 0.98584 0.54712 0.52119 0.0
H360 H 0.0673 0.52274 0.58886 0.0
H361 H 0.03432 0.48521 0.61145 0.0
H362 H 0.05261 0.54867 0.61143 0.0
H363 H 0.96296 0.5258 0.61799 0.0
H364 H 0.94423 0.46219 0.61739 0.0
H365 H 0.91665 0.48589 0.59941 0.0
H366 H 0.95377 0.45454 0.52097 0.0
H367 H 0.9383 0.37104 0.52755 0.0
H368 H 0.97145 0.40529 0.59486 0.0
C369 C 1.01292 0.59311 0.58045 0.0
C370 C 0.01874 0.62603 0.56385 0.0
C371 C 1.00985 0.60916 0.54238 0.0
C372 C 0.99359 0.55996 0.5376 0.0
C373 C 0.98704 0.52809 0.55444 0.0
C374 C 0.99786 0.54451 0.57537 0.0
C375 C 0.99072 0.50392 0.59044 0.0
C376 C 0.03911 0.51584 0.60117 0.0
C377 C 0.95129 0.49387 0.6073 0.0
C378 C 0.97384 0.46185 0.57483 0.0
C379 C 0.97088 0.47612 0.55418 0.0
C380 C 0.95608 0.44321 0.5371 0.0
C381 C 0.94649 0.39547 0.54102 0.0
C382 C 0.95243 0.3811 0.5618 0.0
C383 C 0.96528 0.4147 0.57892 0.0
H384 H 0.46855 0.03911 0.92889 0.0
H385 H 0.4791 0.08149 0.86219 0.0
H386 H 0.54959 0.06864 0.85744 0.0
H387 H 0.60259 0.0948 0.9381 0.0
H388 H 0.59357 0.04629 0.95589 0.0
H389 H 0.54792 0.06407 0.95404 0.0
H390 H 0.48372 0.97523 0.94504 0.0
H391 H 0.52939 0.95743 0.94615 0.0
H392 H 0.49326 0.94593 0.92225 0.0
H393 H 0.61205 0.03853 0.85912 0.0
H394 H 0.67076 0.01138 0.86888 0.0
H395 H 0.62207 0.99402 0.93495 0.0
C396 C 0.48707 0.04776 0.91353 0.0
C397 C 0.46887 0.06237 0.89602 0.0
C398 C 0.49319 0.07177 0.87599 0.0
C399 C 0.53282 0.06373 0.87308 0.0
C400 C 0.54833 0.04702 0.89045 0.0
C401 C 0.52709 0.04075 0.91049 0.0
C402 C 0.54981 0.02203 0.92655 0.0
C403 C 0.57498 0.05901 0.94472 0.0
C404 C 0.51177 0.97221 0.93552 0.0
C405 C 0.58656 0.01779 0.91243 0.0
C406 C 0.58483 0.03163 0.89156 0.0
C407 C 0.61403 0.02834 0.87551 0.0
C408 C 0.64685 0.01225 0.8811 0.0
C409 C 0.65071 1.0002 0.90261 0.0
C410 C 0.61974 1.00273 0.91833 0.0
H411 H 0.57434 0.62334 0.42574 0.0
H412 H 0.67114 0.60013 0.46657 0.0
H413 H 0.60884 0.51329 0.47014 0.0
H414 H 0.45782 0.53413 0.452 0.0
H415 H 0.42631 0.51514 0.42669 0.0
H416 H 0.47585 0.57636 0.42994 0.0
H417 H 0.51909 0.56496 0.39697 0.0
H418 H 0.47007 0.50356 0.39381 0.0
H419 H 0.53164 0.51554 0.3967 0.0
H420 H 0.53714 0.4262 0.46678 0.0
H421 H 0.46327 0.34875 0.45711 0.0
H422 H 0.41528 0.42893 0.41732 0.0
C423 C 0.58149 0.60031 0.43612 0.0
C424 C 0.62697 0.61885 0.44651 0.0
C425 C 0.63603 0.58696 0.459 0.0
C426 C 0.60092 0.53747 0.461 0.0
C427 C 0.55683 0.51989 0.45015 0.0
C428 C 0.54696 0.55049 0.43803 0.0
C429 C 0.4985 0.52189 0.42659 0.0
C430 C 0.46249 0.53783 0.43427 0.0
C431 C 0.50526 0.52679 0.40207 0.0
C432 C 0.48292 0.4706 0.43397 0.0
C433 C 0.51674 0.47003 0.44768 0.0
C434 C 0.51029 0.4264 0.45615 0.0
C435 C 0.46819 0.38242 0.45054 0.0
C436 C 0.43303 0.3821 0.43641 0.0
C437 C 0.44105 0.42723 0.42815 0.0
H438 H 0.9643 0.57003 0.76647 0.0
H439 H 0.11271 0.68733 0.77366 0.0
H440 H 0.14091 0.62784 0.77736 0.0
H441 H 0.97221 0.4821 0.80285 0.0
H442 H 0.93523 0.43119 0.78567 0.0
H443 H 0.9262 0.48283 0.78616 0.0
H444 H 0.93892 0.49194 0.74497 0.0
H445 H 0.94825 0.44055 0.74438 0.0
H446 H 0.99393 0.49796 0.7335 0.0
H447 H 0.15379 0.55419 0.77838 0.0
H448 H 0.14965 0.47432 0.7752 0.0
H449 H 0.9936 0.40575 0.76567 0.0
C450 C 1.00247 0.58303 0.76946 0.0
C451 C 0.03616 0.63344 0.77026 0.0
C452 C 0.08614 0.64895 0.77331 0.0
C453 C 0.10255 0.61535 0.77541 0.0
C454 C 0.0687 0.56592 0.77415 0.0
C455 C 0.01966 0.54981 0.7712 0.0
C456 C 0.99137 0.49498 0.7687 0.0
C457 C 0.95405 0.47139 0.78693 0.0
C458 C 0.96667 0.48052 0.74657 0.0
C459 C 0.03202 0.48288 0.77055 0.0
C460 C 0.07635 0.52412 0.77392 0.0
C461 C 0.11911 0.52166 0.77581 0.0
C462 C 0.11648 0.47605 0.77402 0.0
C463 C 0.07149 0.43333 0.7701 0.0
C464 C 0.02885 0.43737 0.76857 0.0
H465 H 0.36656 0.94589 0.11273 0.0
H466 H 0.40821 0.0947 0.09713 0.0
H467 H 0.4939 0.12015 0.10405 0.0
H468 H 0.45888 0.97601 0.15541 0.0
H469 H 0.47005 0.92767 0.14789 0.0
H470 H 0.41095 0.92129 0.14352 0.0
H471 H 0.41599 0.90403 0.10322 0.0
H472 H 0.47498 0.9103 0.1075 0.0
H473 H 0.46739 0.94704 0.08755 0.0
H474 H 0.57754 0.1298 0.11075 0.0
H475 H 0.65032 0.12068 0.11548 0.0
H476 H 0.55545 0.96647 0.12646 0.0
C477 C 0.39357 0.98392 0.11116 0.0
C478 C 0.37995 0.01808 0.10439 0.0
C479 C 0.41709 0.06746 0.10221 0.0
C480 C 0.46621 0.08253 0.10619 0.0
C481 C 0.47856 0.04806 0.11244 0.0
C482 C 0.44331 0.99974 0.11497 0.0
C483 C 0.46692 0.96977 0.12076 0.0
C484 C 0.45073 0.94736 0.14323 0.0
C485 C 0.45565 0.93047 0.10374 0.0
C486 C 0.5206 1.00847 0.12058 0.0
C487 C 0.52665 0.05357 0.11604 0.0
C488 C 0.57314 0.09459 0.11449 0.0
C489 C 0.61444 0.08921 0.11729 0.0
C490 C 0.60919 0.04303 0.12138 0.0
C491 C 0.56127 1.00249 0.12335 0.0
H492 H 0.19543 1.00498 0.15609 0.0
H493 H 0.14353 0.04932 0.10112 0.0
H494 H 0.12666 0.10175 0.12425 0.0
H495 H 0.11597 0.02651 0.19948 0.0
H496 H 0.16655 0.04844 0.21779 0.0
H497 H 0.15424 0.9995 0.19957 0.0
H498 H 0.24275 0.04845 0.18554 0.0
H499 H 0.25507 0.09778 0.20306 0.0
H500 H 0.26439 0.1083 0.17456 0.0
H501 H 0.14264 0.16772 0.14892 0.0
H502 H 0.18355 0.2364 0.17412 0.0
H503 H 0.2266 0.15105 0.21314 0.0
C504 C 0.17796 0.02368 0.14924 0.0
C505 C 0.17146 0.02391 0.12695 0.0
C506 C 0.14933 0.04927 0.11825 0.0
C507 C 0.13914 0.07881 0.13131 0.0
C508 C 0.15071 0.08195 0.15301 0.0
C509 C 0.16836 0.05392 0.1621 0.0
C510 C 0.18755 0.07114 0.18447 0.0
C511 C 0.15406 0.03421 0.20132 0.0
C512 C 0.24054 0.08211 0.187 0.0
C513 C 0.18402 0.11674 0.18527 0.0
C514 C 0.16067 0.1213 0.16748 0.0
C515 C 0.1596 0.1639 0.16327 0.0
C516 C 0.18359 0.203 0.17746 0.0
C517 C 0.20895 0.19928 0.19535 0.0
C518 C 0.20769 0.15509 0.19954 0.0
H519 H 0.06146 0.315 0.49211 0.0
H520 H 0.96385 0.16501 0.50889 0.0
H521 H 0.01864 0.14136 0.49117 0.0
H522 H 0.11483 0.29219 0.44042 0.0
H523 H 0.17328 0.34307 0.44733 0.0
H524 H 0.11841 0.34377 0.45419 0.0
H525 H 0.1484 0.36106 0.49357 0.0
H526 H 0.20128 0.35648 0.48738 0.0
H527 H 0.15924 0.31784 0.5077 0.0
H528 H 0.09423 0.13819 0.47998 0.0
H529 H 0.1754 0.15351 0.46764 0.0
H530 H 0.22409 0.30681 0.46229 0.0
C531 C 0.05001 0.27682 0.49054 0.0
C532 C 1.00889 0.24177 0.50165 0.0
C533 C 0.99506 0.19216 0.50005 0.0
C534 C 0.02647 0.17859 0.49038 0.0
C535 C 0.07051 0.21518 0.48215 0.0
C536 C 0.08135 0.26314 0.48138 0.0
C537 C 0.13327 0.29667 0.47462 0.0
C538 C 0.13505 0.32029 0.45284 0.0
C539 C 0.16217 0.33523 0.49185 0.0
C540 C 0.1507 0.26064 0.47276 0.0
C541 C 0.11422 0.21373 0.47691 0.0
C542 C 0.12287 0.17473 0.47641 0.0
C543 C 0.16919 0.18377 0.46996 0.0
C544 C 0.20564 0.23139 0.46452 0.0
C545 C 0.1968 0.27025 0.46684 0.0
H546 H 0.95196 0.1554 0.79276 0.0
H547 H 0.07865 0.25033 0.83103 0.0
H548 H 0.05006 0.18808 0.85949 0.0
H549 H 0.87022 0.1193 0.83178 0.0
H550 H 0.83286 0.0574 0.823 0.0
H551 H 0.8692 0.10353 0.80389 0.0
H552 H 0.91049 0.05416 0.79241 0.0
H553 H 0.87433 1.00783 0.8118 0.0
H554 H 0.93973 0.0363 0.81232 0.0
H555 H 1.00025 0.12564 0.88605 0.0
H556 H 0.93185 0.07036 0.90917 0.0
H557 H 0.83847 0.01431 0.85337 0.0
C558 C 0.97433 0.16283 0.80693 0.0
C559 C 1.01718 0.20787 0.80983 0.0
C560 C 0.04539 0.21617 0.82858 0.0
C561 C 0.0298 0.18077 0.84468 0.0
C562 C 0.98657 0.13715 0.84152 0.0
C563 C 0.95944 0.12794 0.82299 0.0
C564 C 0.91095 0.08169 0.82468 0.0
C565 C 0.86836 0.0911 0.82063 0.0
C566 C 0.90878 0.04269 0.8094 0.0
C567 C 0.91306 0.06862 0.84779 0.0
C568 C 0.95768 0.10006 0.85699 0.0
C569 C 0.96573 0.09993 0.87893 0.0
C570 C 0.9266 0.06868 0.89194 0.0
C571 C 0.8801 0.03837 0.88291 0.0
C572 C 0.87398 0.03647 0.86052 0.0
H573 H 0.81077 0.96221 0.14489 0.0
H574 H 0.78903 0.04695 0.19346 0.0
H575 H 0.83163 0.02333 0.21987 0.0
H576 H 0.7726 0.8666 0.17034 0.0
H577 H 0.81436 0.84669 0.162 0.0
H578 H 0.80534 0.887 0.14528 0.0
H579 H 0.8977 0.94871 0.1459 0.0
H580 H 0.90714 0.90793 0.1627 0.0
H581 H 0.92889 0.96959 0.17118 0.0
H582 H 0.84765 0.97053 0.24234 0.0
H583 H 0.83111 0.89385 0.25867 0.0
H584 H 0.83865 0.83815 0.19609 0.0
C585 C 0.81664 0.97709 0.16096 0.0
C586 C 0.79586 1.00521 0.16749 0.0
C587 C 0.80454 0.02499 0.18833 0.0
C588 C 0.82916 0.0121 0.2033 0.0
C589 C 0.84544 0.98036 0.19689 0.0
C590 C 0.84044 0.96396 0.17594 0.0
C591 C 0.84981 0.92184 0.17396 0.0
C592 C 0.808 0.87801 0.16226 0.0
C593 C 0.89881 0.938 0.16278 0.0
C594 C 0.8525 0.9117 0.19743 0.0
C595 C 0.85354 0.9479 0.21029 0.0
C596 C 0.84816 0.94276 0.23246 0.0
C597 C 0.83812 0.8986 0.24157 0.0
C598 C 0.83236 0.8596 0.22845 0.0
C599 C 0.84287 0.86744 0.20639 0.0
H600 H 0.80558 0.81695 0.49857 0.0
H601 H 0.89692 0.8616 0.44193 0.0
H602 H 0.96972 0.89528 0.46442 0.0
H603 H 0.91037 0.91944 0.53733 0.0
H604 H 0.88744 0.87547 0.55876 0.0
H605 H 0.84586 0.8787 0.53999 0.0
H606 H 0.80956 0.78736 0.53189 0.0
H607 H 0.85107 0.78387 0.55007 0.0
H608 H 0.84909 0.76549 0.52251 0.0
H609 H 0.02332 0.88709 0.48867 0.0
H610 H 0.05505 0.84999 0.51377 0.0
H611 H 0.93326 0.8133 0.55646 0.0
C612 C 0.84117 0.83645 0.49116 0.0
C613 C 0.84604 0.8357 0.46877 0.0
C614 C 0.89266 0.86096 0.45922 0.0
C615 C 0.93432 0.88083 0.4719 0.0
C616 C 0.92866 0.87565 0.49407 0.0
C617 C 0.8832 0.85588 0.50379 0.0
C618 C 0.88582 0.84457 0.52717 0.0
C619 C 0.88219 0.88178 0.54167 0.0
C620 C 0.84666 0.79223 0.5332 0.0
C621 C 0.93667 0.8517 0.5277 0.0
C622 C 0.96182 0.87234 0.5089 0.0
C623 C 1.00518 0.87313 0.50389 0.0
C624 C 0.02252 0.85115 0.51806 0.0
C625 C 0.99626 0.82836 0.53692 0.0
C626 C 0.95421 0.83076 0.54218 0.0
H627 H 0.25652 0.03653 0.82817 0.0
H628 H 0.33465 0.95794 0.82192 0.0
H629 H 0.27237 0.90064 0.79714 0.0
H630 H 0.15434 0.94968 0.83657 0.0
H631 H 0.11443 0.96335 0.82129 0.0
H632 H 0.17266 0.01163 0.82969 0.0
H633 H 0.19858 0.04122 0.79074 0.0
H634 H 0.13874 0.99541 0.78216 0.0
H635 H 0.192 0.99843 0.77019 0.0
H636 H 0.1918 0.83717 0.78769 0.0
H637 H 0.10421 0.78137 0.78205 0.0
H638 H 0.07516 0.8993 0.79263 0.0
C639 C 0.26234 1.00968 0.82006 0.0
C640 C 0.29987 1.00118 0.82675 0.0
C641 C 0.30612 0.96489 0.81668 0.0
C642 C 0.27064 0.93198 0.80274 0.0
C643 C 0.23008 0.93688 0.79883 0.0
C644 C 0.22666 0.97621 0.80623 0.0
C645 C 0.1758 0.96836 0.80282 0.0
C646 C 0.15305 0.97355 0.82385 0.0
C647 C 0.17631 1.00288 0.78543 0.0
C648 C 0.1501 0.91643 0.79498 0.0
C649 C 0.18232 0.89936 0.79253 0.0
C650 C 0.16651 0.85062 0.78859 0.0
C651 C 0.11675 0.819 0.78599 0.0
C652 C 0.08358 0.83633 0.78728 0.0
C653 C 0.10022 0.88551 0.7918 0.0
H654 H 0.27046 0.17913 0.36747 0.0
H655 H 0.40532 0.30888 0.38327 0.0
H656 H 0.3961 0.35009 0.35127 0.0
H657 H 0.28306 0.1919 0.30738 0.0
H658 H 0.21847 0.16781 0.30452 0.0
H659 H 0.24143 0.14801 0.32639 0.0
H660 H 0.19458 0.17278 0.35293 0.0
H661 H 0.17345 0.19492 0.33129 0.0
H662 H 0.20695 0.23463 0.35319 0.0
H663 H 0.36437 0.38014 0.31958 0.0
H664 H 0.32178 0.3903 0.28819 0.0
H665 H 0.20823 0.24028 0.29417 0.0
C666 C 0.29956 0.21522 0.36343 0.0
C667 C 0.33952 0.24021 0.37741 0.0
C668 C 0.37549 0.28839 0.3723 0.0
C669 C 0.36994 0.31236 0.35436 0.0
C670 C 0.32834 0.28746 0.34163 0.0
C671 C 0.29455 0.23936 0.34565 0.0
C672 C 0.25175 0.221 0.33045 0.0
C673 C 0.24851 0.17976 0.31634 0.0
C674 C 0.20388 0.2049 0.34271 0.0
C675 C 0.26604 0.26632 0.3174 0.0
C676 C 0.31012 0.30458 0.32407 0.0
C677 C 0.32992 0.35023 0.31429 0.0
C678 C 0.30508 0.35606 0.29674 0.0
C679 C 0.26098 0.3165 0.28923 0.0
C680 C 0.24118 0.27151 0.29998 0.0
H681 H 0.92552 0.22523 0.63285 0.0
H682 H 0.05581 0.29439 0.59329 0.0
H683 H 0.10626 0.32558 0.6253 0.0
H684 H 0.96884 0.3186 0.67508 0.0
H685 H 0.94236 0.27536 0.69667 0.0
H686 H 0.91462 0.26103 0.67046 0.0
H687 H 0.92033 0.18256 0.66956 0.0
H688 H 0.94792 0.19661 0.69576 0.0
H689 H 0.97848 0.18649 0.67362 0.0
H690 H 0.14464 0.34876 0.66142 0.0
H691 H 0.16738 0.35688 0.69985 0.0
H692 H 1.01465 0.26997 0.71683 0.0
C693 C 0.96455 0.24739 0.63097 0.0
C694 C 0.98617 0.25794 0.6103 0.0
C695 C 0.03769 0.2863 0.6087 0.0
C696 C 0.0671 0.30433 0.6269 0.0
C697 C 0.04497 0.29345 0.64693 0.0
C698 C 0.99497 0.26532 0.6492 0.0
C699 C 0.98133 0.25683 0.67284 0.0
C700 C 0.94992 0.2793 0.67913 0.0
C701 C 0.9555 0.20239 0.67826 0.0
C702 C 0.03137 0.28401 0.68323 0.0
C703 C 0.06751 0.30543 0.66797 0.0
C704 C 0.11666 0.33219 0.67359 0.0
C705 C 0.12931 0.33673 0.69544 0.0
C706 C 0.09302 0.31414 0.71137 0.0
C707 C 0.04341 0.28779 0.70508 0.0
H708 H 0.77651 0.08735 0.04812 0.0
H709 H 0.68525 0.95416 0.08304 0.0
H710 H 0.66016 0.90868 0.04912 0.0
H711 H 0.69718 0.05696 0.99971 0.0
H712 H 0.74867 0.08418 0.98177 0.0
H713 H 0.75392 0.10766 0.00859 0.0
H714 H 0.82777 0.09556 0.01566 0.0
H715 H 0.82275 0.07224 0.98891 0.0
H716 H 0.82133 0.03646 0.01163 0.0
H717 H 0.6499 0.87558 0.01091 0.0
H718 H 0.65988 0.85951 0.97263 0.0
H719 H 0.76 0.0133 0.9638 0.0
C720 C 0.75029 0.0489 0.04855 0.0
C721 C 0.73261 0.02461 0.0683 0.0
C722 C 0.69928 0.97388 0.06818 0.0
C723 C 0.68454 0.94754 0.04892 0.0
C724 C 0.70343 0.97222 0.02972 0.0
C725 C 0.73558 0.02183 0.02941 0.0
C726 C 0.75403 0.0389 0.00687 0.0
C727 C 0.73745 0.07401 0.99876 0.0
C728 C 0.80975 0.06212 0.00571 0.0
C729 C 0.72859 0.99112 0.99483 0.0
C730 C 0.69869 0.95305 0.00806 0.0
C731 C 0.67294 0.90532 1.00034 0.0
C732 C 0.67868 0.89641 0.9786 0.0
C733 C 0.71061 0.93497 0.96505 0.0
C734 C 0.73505 0.98277 0.97342 0.0
H735 H 0.82368 0.70519 0.30589 0.0
H736 H 0.68081 0.61129 0.27962 0.0
H737 H 0.64326 0.62125 0.31279 0.0
H738 H 0.79183 0.6719 0.36485 0.0
H739 H 0.83285 0.73404 0.37232 0.0
H740 H 0.84597 0.70835 0.3492 0.0
H741 H 0.8524 0.77925 0.32627 0.0
H742 H 0.83678 0.80386 0.34889 0.0
H743 H 0.80094 0.78871 0.32472 0.0
H744 H 0.62279 0.6566 0.34697 0.0
H745 H 0.62282 0.70177 0.3798 0.0
H746 H 0.78027 0.77393 0.38104 0.0
C747 C 0.78453 0.68382 0.30778 0.0
C748 C 0.75524 0.65679 0.29036 0.0
C749 C 0.70402 0.63131 0.29297 0.0
C750 C 0.68239 0.6375 0.31168 0.0
C751 C 0.71263 0.66855 0.32777 0.0
C752 C 0.76277 0.68998 0.32618 0.0
C753 C 0.78804 0.72576 0.34416 0.0
C754 C 0.81632 0.70899 0.35849 0.0
C755 C 0.82147 0.7774 0.33547 0.0
C756 C 0.74471 0.72244 0.35584 0.0
C757 C 0.70125 0.68923 0.34646 0.0
C758 C 0.65678 0.68217 0.35451 0.0
C759 C 0.65704 0.70847 0.37295 0.0
C760 C 0.70152 0.74159 0.38293 0.0
C761 C 0.74554 0.74882 0.37387 0.0
H762 H 0.0431 0.80429 0.62877 0.0
H763 H 0.09833 0.70484 0.62244 0.0
H764 H 0.05402 0.66265 0.6559 0.0
H765 H 0.04646 0.81311 0.68676 0.0
H766 H 0.99161 0.81687 0.68744 0.0
H767 H 0.03111 0.83898 0.66443 0.0
H768 H 0.9576 0.78285 0.64027 0.0
H769 H 0.91849 0.75889 0.66339 0.0
H770 H 0.92503 0.71837 0.6452 0.0
H771 H 1.00034 0.63146 0.69095 0.0
H772 H 0.95468 0.62271 0.72468 0.0
H773 H 0.93153 0.73974 0.70467 0.0
C774 C 0.04696 0.77434 0.6347 0.0
C775 C 0.07492 0.75841 0.62329 0.0
C776 C 0.07829 0.71853 0.6313 0.0
C777 C 0.05247 0.6939 0.65007 0.0
C778 C 0.02332 0.70951 0.6604 0.0
C779 C 0.02127 0.7494 0.65299 0.0
C780 C 0.98764 0.75962 0.6664 0.0
C781 C 1.01589 0.8101 0.67689 0.0
C782 C 0.94466 0.75462 0.65301 0.0
C783 C 0.97088 0.71949 0.68282 0.0
C784 C 0.99143 0.69057 0.67923 0.0
C785 C 0.98355 0.65348 0.69358 0.0
C786 C 0.95661 0.64796 0.71252 0.0
C787 C 0.93784 0.67927 0.71686 0.0
C788 C 0.94345 0.71384 0.7013 0.0
H789 H 0.27219 0.01236 0.04452 0.0
H790 H 0.22024 0.85921 0.03465 0.0
H791 H 0.24099 0.87578 0.99587 0.0
H792 H 0.22724 0.03445 0.99769 0.0
H793 H 0.27868 0.09408 0.99314 0.0
H794 H 0.26328 0.0705 0.02002 0.0
H795 H 0.35014 0.08396 0.0254 0.0
H796 H 0.36609 0.10815 0.99857 0.0
H797 H 0.37393 0.05797 0.00653 0.0
H798 H 0.25951 0.90911 0.95764 0.0
H799 H 0.27998 0.95524 0.92395 0.0
H800 H 0.32418 0.08817 0.95956 0.0
C801 C 0.2656 0.9821 0.03445 0.0
C802 C 0.24434 0.93427 0.04275 0.0
C803 C 0.23672 0.8961 0.02874 0.0
C804 C 0.24826 0.90527 0.0067 0.0
C805 C 0.26818 0.95292 0.99908 0.0
C806 C 0.2775 0.99076 0.01269 0.0
C807 C 0.29816 0.03861 1.00069 0.0
C808 C 0.26484 0.06068 0.00303 0.0
C809 C 0.35017 0.07428 0.00825 0.0
C810 C 0.29796 0.02187 0.97791 0.0
C811 C 0.28048 0.9723 0.97735 0.0
C812 C 0.27409 0.94798 0.95802 0.0
C813 C 0.28592 0.97478 0.93888 0.0
C814 C 0.30459 0.02576 0.93898 0.0
C815 C 0.31082 0.04952 0.95888 0.0
loop_
_geom_bond_atom_site_label_1
_geom_bond_atom_site_label_2
_geom_bond_distance
_geom_bond_site_symmetry_2
_ccdc_geom_bond_type
Co0 O1 2.216 . S
Co0 O2 2.091 . S
Co0 O4 2.004 . S
Co0 O10 2.021 . S
Co0 O12 2.137 . S
Co0 O13 2.244 . S
O1 Co0 2.216 . S
O1 C8 1.247 . S
O2 Co0 2.091 . S
O2 C8 1.261 . S
C3 O12 1.247 . S
C3 O13 1.272 . S
O4 Co0 2.004 . S
O4 C9 1.259 . S
Co5 O6 2.061 . S
Co5 O11 2.052 . S
Co5 O13 2.135 . S
O6 Co5 2.061 . S
O6 C9 1.235 . S
C7 O10 1.238 . S
C7 O11 1.241 . S
C8 O1 1.247 . S
C8 O2 1.261 . S
C9 O4 1.259 . S
C9 O6 1.235 . S
O10 Co0 2.021 . S
O10 C7 1.238 . S
O11 Co5 2.052 . S
O11 C7 1.241 . S
O12 Co0 2.137 . S
O12 C3 1.247 . S
O13 Co0 2.244 . S
O13 C3 1.272 . S
O13 Co5 2.135 . S
Co14 O15 2.216 . S
Co14 O16 2.091 . S
Co14 O18 2.004 . S
Co14 O24 2.021 . S
Co14 O26 2.137 . S
Co14 O27 2.244 . S
O15 Co14 2.216 . S
O15 C22 1.247 . S
O16 Co14 2.091 . S
O16 C22 1.261 . S
C17 O26 1.247 . S
C17 O27 1.272 . S
O18 Co14 2.004 . S
O18 C23 1.259 . S
Co19 O20 2.061 . S
Co19 O25 2.052 . S
Co19 O27 2.135 1_455 S
O20 Co19 2.061 . S
O20 C23 1.235 1_455 S
C21 O24 1.238 1_455 S
C21 O25 1.241 . S
C22 O15 1.247 . S
C22 O16 1.261 . S
C23 O18 1.259 . S
C23 O20 1.235 1_655 S
O24 Co14 2.021 . S
O24 C21 1.238 1_655 S
O25 Co19 2.052 . S
O25 C21 1.241 . S
O26 Co14 2.137 . S
O26 C17 1.247 . S
O27 Co14 2.244 . S
O27 C17 1.272 . S
O27 Co19 2.135 1_655 S
Co28 O29 2.216 . S
Co28 O30 2.091 . S
Co28 O32 2.004 . S
Co28 O38 2.021 . S
Co28 O40 2.137 . S
Co28 O41 2.244 . S
O29 Co28 2.216 . S
O29 C36 1.247 . S
O30 Co28 2.091 . S
O30 C36 1.261 . S
C31 O40 1.247 . S
C31 O41 1.272 . S
O32 Co28 2.004 . S
O32 C37 1.259 . S
Co33 O34 2.061 . S
Co33 O39 2.052 . S
Co33 O41 2.135 1_545 S
O34 Co33 2.061 . S
O34 C37 1.235 1_545 S
C35 O38 1.238 1_545 S
C35 O39 1.241 . S
C36 O29 1.247 . S
C36 O30 1.261 . S
C37 O32 1.259 . S
C37 O34 1.235 1_565 S
O38 Co28 2.021 . S
O38 C35 1.238 1_565 S
O39 Co33 2.052 . S
O39 C35 1.241 . S
O40 Co28 2.137 . S
O40 C31 1.247 . S
O41 Co28 2.244 . S
O41 C31 1.272 . S
O41 Co33 2.135 1_565 S
Co42 O43 2.216 . S
Co42 O44 2.091 . S
Co42 O46 2.004 . S
Co42 O52 2.021 . S
Co42 O54 2.137 . S
Co42 O55 2.244 . S
O43 Co42 2.216 . S
O43 C50 1.247 . S
O44 Co42 2.091 . S
O44 C50 1.261 . S
C45 O54 1.247 . S
C45 O55 1.272 . S
O46 Co42 2.004 . S
O46 C51 1.259 . S
Co47 O48 2.061 . S
Co47 O53 2.052 . S
Co47 O55 2.135 . S
O48 Co47 2.061 . S
O48 C51 1.235 . S
C49 O52 1.238 . S
C49 O53 1.241 . S
C50 O43 1.247 . S
C50 O44 1.261 . S
C51 O46 1.259 . S
C51 O48 1.235 . S
O52 Co42 2.021 . S
O52 C49 1.238 . S
O53 Co47 2.052 . S
O53 C49 1.241 . S
O54 Co42 2.137 . S
O54 C45 1.247 . S
O55 Co42 2.244 . S
O55 C45 1.272 . S
O55 Co47 2.135 . S
Co56 O57 2.216 . S
Co56 O58 2.091 . S
Co56 O60 2.004 . S
Co56 O66 2.021 . S
Co56 O68 2.137 . S
Co56 O69 2.244 . S
O57 Co56 2.216 . S
O57 C64 1.247 . S
O58 Co56 2.091 . S
O58 C64 1.261 . S
C59 O68 1.247 . S
C59 O69 1.272 . S
O60 Co56 2.004 . S
O60 C65 1.259 . S
Co61 O62 2.061 . S
Co61 O67 2.052 . S
Co61 O69 2.135 1_655 S
O62 Co61 2.061 . S
O62 C65 1.235 1_655 S
C63 O66 1.238 1_655 S
C63 O67 1.241 . S
C64 O57 1.247 . S
C64 O58 1.261 . S
C65 O60 1.259 . S
C65 O62 1.235 1_455 S
O66 Co56 2.021 . S
O66 C63 1.238 1_455 S
O67 Co61 2.052 . S
O67 C63 1.241 . S
O68 Co56 2.137 . S
O68 C59 1.247 . S
O69 Co56 2.244 . S
O69 C59 1.272 . S
O69 Co61 2.135 1_455 S
Co70 O71 2.216 . S
Co70 O72 2.091 . S
Co70 O74 2.004 . S
Co70 O80 2.021 . S
Co70 O82 2.137 . S
Co70 O83 2.244 . S
O71 Co70 2.216 . S
O71 C78 1.247 . S
O72 Co70 2.091 . S
O72 C78 1.261 . S
C73 O82 1.247 . S
C73 O83 1.272 . S
O74 Co70 2.004 . S
O74 C79 1.259 . S
Co75 O76 2.061 . S
Co75 O81 2.052 . S
Co75 O83 2.135 1_565 S
O76 Co75 2.061 . S
O76 C79 1.235 1_565 S
C77 O80 1.238 1_565 S
C77 O81 1.241 . S
C78 O71 1.247 . S
C78 O72 1.261 . S
C79 O74 1.259 . S
C79 O76 1.235 1_545 S
O80 Co70 2.021 . S
O80 C77 1.238 1_545 S
O81 Co75 2.052 . S
O81 C77 1.241 . S
O82 Co70 2.137 . S
O82 C73 1.247 . S
O83 Co70 2.244 . S
O83 C73 1.272 . S
O83 Co75 2.135 1_545 S
Co84 O85 2.216 . S
Co84 O86 2.091 . S
Co84 O88 2.004 . S
Co84 O94 2.021 . S
Co84 O96 2.137 . S
Co84 O97 2.244 . S
O85 Co84 2.216 . S
O85 C92 1.247 . S
O86 Co84 2.091 . S
O86 C92 1.261 . S
C87 O96 1.247 . S
C87 O97 1.272 . S
O88 Co84 2.004 . S
O88 C93 1.259 . S
Co89 O90 2.061 . S
Co89 O95 2.052 . S
Co89 O97 2.135 . S
O90 Co89 2.061 . S
O90 C93 1.235 . S
C91 O94 1.238 . S
C91 O95 1.241 . S
C92 O85 1.247 . S
C92 O86 1.261 . S
C93 O88 1.259 . S
C93 O90 1.235 . S
O94 Co84 2.021 . S
O94 C91 1.238 . S
O95 Co89 2.052 . S
O95 C91 1.241 . S
O96 Co84 2.137 . S
O96 C87 1.247 . S
O97 Co84 2.244 . S
O97 C87 1.272 . S
O97 Co89 2.135 . S
Co98 O99 2.216 . S
Co98 O100 2.091 . S
Co98 O102 2.004 . S
Co98 O108 2.021 . S
Co98 O110 2.137 . S
Co98 O111 2.244 . S
O99 Co98 2.216 . S
O99 C106 1.247 . S
O100 Co98 2.091 . S
O100 C106 1.261 . S
C101 O110 1.247 . S
C101 O111 1.272 . S
O102 Co98 2.004 . S
O102 C107 1.259 . S
Co103 O104 2.061 . S
Co103 O109 2.052 . S
Co103 O111 2.135 1_455 S
O104 Co103 2.061 . S
O104 C107 1.235 1_455 S
C105 O108 1.238 1_455 S
C105 O109 1.241 . S
C106 O99 1.247 . S
C106 O100 1.261 . S
C107 O102 1.259 . S
C107 O104 1.235 1_655 S
O108 Co98 2.021 . S
O108 C105 1.238 1_655 S
O109 Co103 2.052 . S
O109 C105 1.241 . S
O110 Co98 2.137 . S
O110 C101 1.247 . S
O111 Co98 2.244 . S
O111 C101 1.272 . S
O111 Co103 2.135 1_655 S
Co112 O113 2.216 . S
Co112 O114 2.091 . S
Co112 O116 2.004 . S
Co112 O122 2.021 . S
Co112 O124 2.137 . S
Co112 O125 2.244 . S
O113 Co112 2.216 . S
O113 C120 1.247 . S
O114 Co112 2.091 . S
O114 C120 1.261 . S
C115 O124 1.247 . S
C115 O125 1.272 . S
O116 Co112 2.004 . S
O116 C121 1.259 . S
Co117 O118 2.061 . S
Co117 O123 2.052 . S
Co117 O125 2.135 1_545 S
O118 Co117 2.061 . S
O118 C121 1.235 1_545 S
C119 O122 1.238 1_545 S
C119 O123 1.241 . S
C120 O113 1.247 . S
C120 O114 1.261 . S
C121 O116 1.259 . S
C121 O118 1.235 1_565 S
O122 Co112 2.021 . S
O122 C119 1.238 1_565 S
O123 Co117 2.052 . S
O123 C119 1.241 . S
O124 Co112 2.137 . S
O124 C115 1.247 . S
O125 Co112 2.244 . S
O125 C115 1.272 . S
O125 Co117 2.135 1_565 S
Co126 O127 2.216 . S
Co126 O128 2.091 . S
Co126 O130 2.004 . S
Co126 O136 2.021 . S
Co126 O138 2.137 . S
Co126 O139 2.244 . S
O127 Co126 2.216 . S
O127 C134 1.247 . S
O128 Co126 2.091 . S
O128 C134 1.261 . S
C129 O138 1.247 . S
C129 O139 1.272 . S
O130 Co126 2.004 . S
O130 C135 1.259 . S
Co131 O132 2.061 . S
Co131 O137 2.052 . S
Co131 O139 2.135 . S
O132 Co131 2.061 . S
O132 C135 1.235 . S
C133 O136 1.238 . S
C133 O137 1.241 . S
C134 O127 1.247 . S
C134 O128 1.261 . S
C135 O130 1.259 . S
C135 O132 1.235 . S
O136 Co126 2.021 . S
O136 C133 1.238 . S
O137 Co131 2.052 . S
O137 C133 1.241 . S
O138 Co126 2.137 . S
O138 C129 1.247 . S
O139 Co126 2.244 . S
O139 C129 1.272 . S
O139 Co131 2.135 . S
Co140 O141 2.216 . S
Co140 O142 2.091 . S
Co140 O144 2.004 . S
Co140 O150 2.021 . S
Co140 O152 2.137 . S
Co140 O153 2.244 . S
O141 Co140 2.216 . S
O141 C148 1.247 . S
O142 Co140 2.091 . S
O142 C148 1.261 . S
C143 O152 1.247 . S
C143 O153 1.272 . S
O144 Co140 2.004 . S
O144 C149 1.259 . S
Co145 O146 2.061 . S
Co145 O151 2.052 . S
Co145 O153 2.135 1_655 S
O146 Co145 2.061 . S
O146 C149 1.235 1_655 S
C147 O150 1.238 1_655 S
C147 O151 1.241 . S
C148 O141 1.247 . S
C148 O142 1.261 . S
C149 O144 1.259 . S
C149 O146 1.235 1_455 S
O150 Co140 2.021 . S
O150 C147 1.238 1_455 S
O151 Co145 2.052 . S
O151 C147 1.241 . S
O152 Co140 2.137 . S
O152 C143 1.247 . S
O153 Co140 2.244 . S
O153 C143 1.272 . S
O153 Co145 2.135 1_455 S
Co154 O155 2.216 . S
Co154 O156 2.091 . S
Co154 O158 2.004 . S
Co154 O164 2.021 . S
Co154 O166 2.137 . S
Co154 O167 2.244 . S
O155 Co154 2.216 . S
O155 C162 1.247 . S
O156 Co154 2.091 . S
O156 C162 1.261 . S
C157 O166 1.247 . S
C157 O167 1.272 . S
O158 Co154 2.004 . S
O158 C163 1.259 . S
Co159 O160 2.061 . S
Co159 O165 2.052 . S
Co159 O167 2.135 1_565 S
O160 Co159 2.061 . S
O160 C163 1.235 1_565 S
C161 O164 1.238 1_565 S
C161 O165 1.241 . S
C162 O155 1.247 . S
C162 O156 1.261 . S
C163 O158 1.259 . S
C163 O160 1.235 1_545 S
O164 Co154 2.021 . S
O164 C161 1.238 1_545 S
O165 Co159 2.052 . S
O165 C161 1.241 . S
O166 Co154 2.137 . S
O166 C157 1.247 . S
O167 Co154 2.244 . S
O167 C157 1.272 . S
O167 Co159 2.135 1_545 S
H168 C180 0.930 . S
H169 C182 0.930 . S
H170 C183 0.930 . S
H171 C187 0.959 . S
H172 C187 0.959 . S
H173 C187 0.961 . S
H174 C188 0.960 . S
H175 C188 0.961 . S
H176 C188 0.959 . S
H177 C191 0.929 . S
H178 C192 0.931 . S
H179 C194 0.930 . S
C180 H168 0.930 . S
C180 C181 1.399 . S
C180 C185 1.399 . S
C181 C180 1.399 . S
C181 C182 1.376 . S
C182 H169 0.930 . S
C182 C181 1.376 . S
C182 C183 1.388 . S
C183 H170 0.930 . S
C183 C182 1.388 . S
C183 C184 1.390 . S
C184 C183 1.390 . S
C184 C185 1.394 . S
C184 C190 1.465 1_655 S
C185 C180 1.399 . S
C185 C184 1.394 . S
C185 C186 1.516 . S
C186 C185 1.516 . S
C186 C187 1.502 . S
C186 C188 1.561 . S
C186 C189 1.526 1_655 S
C187 H171 0.959 . S
C187 H172 0.959 . S
C187 H173 0.961 . S
C187 C186 1.502 . S
C188 H174 0.960 . S
C188 H175 0.961 . S
C188 H176 0.959 . S
C188 C186 1.561 . S
C189 C186 1.526 1_455 S
C189 C190 1.396 . S
C189 C194 1.390 . S
C190 C184 1.465 1_455 S
C190 C189 1.396 . S
C190 C191 1.399 . S
C191 H177 0.929 . S
C191 C190 1.399 . S
C191 C192 1.385 . S
C192 H178 0.931 . S
C192 C191 1.385 . S
C192 C193 1.389 . S
C193 C192 1.389 . S
C193 C194 1.387 . S
C194 H179 0.930 . S
C194 C189 1.390 . S
C194 C193 1.387 . S
H195 C207 0.930 . S
H196 C209 0.930 . S
H197 C210 0.930 . S
H198 C214 0.959 . S
H199 C214 0.959 . S
H200 C214 0.961 . S
H201 C215 0.960 . S
H202 C215 0.961 . S
H203 C215 0.959 . S
H204 C218 0.929 . S
H205 C219 0.931 . S
H206 C221 0.930 . S
C207 H195 0.930 . S
C207 C208 1.399 . S
C207 C212 1.399 . S
C208 C207 1.399 . S
C208 C209 1.376 . S
C209 H196 0.930 . S
C209 C208 1.376 . S
C209 C210 1.388 . S
C210 H197 0.930 . S
C210 C209 1.388 . S
C210 C211 1.390 . S
C211 C210 1.390 . S
C211 C212 1.394 . S
C211 C217 1.465 1_545 S
C212 C207 1.399 . S
C212 C211 1.394 . S
C212 C213 1.516 1_545 S
C213 C212 1.516 1_565 S
C213 C214 1.502 . S
C213 C215 1.561 . S
C213 C216 1.526 . S
C214 H198 0.959 . S
C214 H199 0.959 . S
C214 H200 0.961 . S
C214 C213 1.502 . S
C215 H201 0.960 . S
C215 H202 0.961 . S
C215 H203 0.959 . S
C215 C213 1.561 . S
C216 C213 1.526 . S
C216 C217 1.396 . S
C216 C221 1.390 . S
C217 C211 1.465 1_565 S
C217 C216 1.396 . S
C217 C218 1.399 . S
C218 H204 0.929 . S
C218 C217 1.399 . S
C218 C219 1.385 . S
C219 H205 0.931 . S
C219 C218 1.385 . S
C219 C220 1.389 . S
C220 C219 1.389 . S
C220 C221 1.387 . S
C221 H206 0.930 . S
C221 C216 1.390 . S
C221 C220 1.387 . S
H222 C234 0.930 . S
H223 C236 0.930 . S
H224 C237 0.930 . S
H225 C241 0.959 . S
H226 C241 0.959 . S
H227 C241 0.961 . S
H228 C242 0.960 . S
H229 C242 0.961 . S
H230 C242 0.959 . S
H231 C245 0.929 . S
H232 C246 0.931 . S
H233 C248 0.930 . S
C234 H222 0.930 . S
C234 C235 1.399 . S
C234 C239 1.399 . S
C235 C234 1.399 . S
C235 C236 1.376 . S
C236 H223 0.930 . S
C236 C235 1.376 . S
C236 C237 1.388 . S
C237 H224 0.930 . S
C237 C236 1.388 . S
C237 C238 1.390 . S
C238 C237 1.390 . S
C238 C239 1.394 . S
C238 C244 1.465 . S
C239 C234 1.399 . S
C239 C238 1.394 . S
C239 C240 1.516 . S
C240 C239 1.516 . S
C240 C241 1.502 . S
C240 C242 1.561 . S
C240 C243 1.526 . S
C241 H225 0.959 . S
C241 H226 0.959 . S
C241 H227 0.961 . S
C241 C240 1.502 . S
C242 H228 0.960 . S
C242 H229 0.961 . S
C242 H230 0.959 . S
C242 C240 1.561 . S
C243 C240 1.526 . S
C243 C244 1.396 . S
C243 C248 1.390 . S
C244 C238 1.465 . S
C244 C243 1.396 . S
C244 C245 1.399 . S
C245 H231 0.929 . S
C245 C244 1.399 . S
C245 C246 1.385 . S
C246 H232 0.931 . S
C246 C245 1.385 . S
C246 C247 1.389 . S
C247 C246 1.389 . S
C247 C248 1.387 . S
C248 H233 0.930 . S
C248 C243 1.390 . S
C248 C247 1.387 . S
H249 C261 0.930 . S
H250 C263 0.930 . S
H251 C264 0.930 . S
H252 C268 0.959 . S
H253 C268 0.959 . S
H254 C268 0.961 1_655 S
H255 C269 0.960 . S
H256 C269 0.961 . S
H257 C269 0.959 . S
H258 C272 0.929 . S
H259 C273 0.931 . S
H260 C275 0.930 . S
C261 H249 0.930 . S
C261 C262 1.399 . S
C261 C266 1.399 . S
C262 C261 1.399 . S
C262 C263 1.376 . S
C263 H250 0.930 . S
C263 C262 1.376 . S
C263 C264 1.388 . S
C264 H251 0.930 . S
C264 C263 1.388 . S
C264 C265 1.390 . S
C265 C264 1.390 . S
C265 C266 1.394 . S
C265 C271 1.465 1_655 S
C266 C261 1.399 . S
C266 C265 1.394 . S
C266 C267 1.516 . S
C267 C266 1.516 . S
C267 C268 1.502 1_655 S
C267 C269 1.561 . S
C267 C270 1.526 1_655 S
C268 H252 0.959 . S
C268 H253 0.959 . S
C268 H254 0.961 1_455 S
C268 C267 1.502 1_455 S
C269 H255 0.960 . S
C269 H256 0.961 . S
C269 H257 0.959 . S
C269 C267 1.561 . S
C270 C267 1.526 1_455 S
C270 C271 1.396 . S
C270 C275 1.390 . S
C271 C265 1.465 1_455 S
C271 C270 1.396 . S
C271 C272 1.399 . S
C272 H258 0.929 . S
C272 C271 1.399 . S
C272 C273 1.385 . S
C273 H259 0.931 . S
C273 C272 1.385 . S
C273 C274 1.389 . S
C274 C273 1.389 . S
C274 C275 1.387 . S
C275 H260 0.930 . S
C275 C270 1.390 . S
C275 C274 1.387 . S
H276 C288 0.930 . S
H277 C290 0.930 . S
H278 C291 0.930 . S
H279 C295 0.959 . S
H280 C295 0.959 . S
H281 C295 0.961 . S
H282 C296 0.960 . S
H283 C296 0.961 . S
H284 C296 0.959 . S
H285 C299 0.929 . S
H286 C300 0.931 . S
H287 C302 0.930 . S
C288 H276 0.930 . S
C288 C289 1.399 . S
C288 C293 1.399 . S
C289 C288 1.399 . S
C289 C290 1.376 . S
C290 H277 0.930 . S
C290 C289 1.376 . S
C290 C291 1.388 . S
C291 H278 0.930 . S
C291 C290 1.388 . S
C291 C292 1.390 . S
C292 C291 1.390 . S
C292 C293 1.394 . S
C292 C298 1.465 1_545 S
C293 C288 1.399 . S
C293 C292 1.394 . S
C293 C294 1.516 1_545 S
C294 C293 1.516 1_565 S
C294 C295 1.502 . S
C294 C296 1.561 . S
C294 C297 1.526 . S
C295 H279 0.959 . S
C295 H280 0.959 . S
C295 H281 0.961 . S
C295 C294 1.502 . S
C296 H282 0.960 . S
C296 H283 0.961 . S
C296 H284 0.959 . S
C296 C294 1.561 . S
C297 C294 1.526 . S
C297 C298 1.396 . S
C297 C302 1.390 . S
C298 C292 1.465 1_565 S
C298 C297 1.396 . S
C298 C299 1.399 . S
C299 H285 0.929 . S
C299 C298 1.399 . S
C299 C300 1.385 . S
C300 H286 0.931 . S
C300 C299 1.385 . S
C300 C301 1.389 . S
C301 C300 1.389 . S
C301 C302 1.387 . S
C302 H287 0.930 . S
C302 C297 1.390 . S
C302 C301 1.387 . S
H303 C315 0.930 . S
H304 C317 0.930 . S
H305 C318 0.930 . S
H306 C322 0.959 . S
H307 C322 0.959 . S
H308 C322 0.961 . S
H309 C323 0.960 . S
H310 C323 0.961 . S
H311 C323 0.959 . S
H312 C326 0.929 . S
H313 C327 0.931 . S
H314 C329 0.930 . S
C315 H303 0.930 . S
C315 C316 1.399 . S
C315 C320 1.399 . S
C316 C315 1.399 . S
C316 C317 1.376 . S
C317 H304 0.930 . S
C317 C316 1.376 . S
C317 C318 1.388 . S
C318 H305 0.930 . S
C318 C317 1.388 . S
C318 C319 1.390 . S
C319 C318 1.390 . S
C319 C320 1.394 . S
C319 C325 1.465 . S
C320 C315 1.399 . S
C320 C319 1.394 . S
C320 C321 1.516 . S
C321 C320 1.516 . S
C321 C322 1.502 . S
C321 C323 1.561 . S
C321 C324 1.526 . S
C322 H306 0.959 . S
C322 H307 0.959 . S
C322 H308 0.961 . S
C322 C321 1.502 . S
C323 H309 0.960 . S
C323 H310 0.961 . S
C323 H311 0.959 . S
C323 C321 1.561 . S
C324 C321 1.526 . S
C324 C325 1.396 . S
C324 C329 1.390 . S
C325 C319 1.465 . S
C325 C324 1.396 . S
C325 C326 1.399 . S
C326 H312 0.929 . S
C326 C325 1.399 . S
C326 C327 1.385 . S
C327 H313 0.931 . S
C327 C326 1.385 . S
C327 C328 1.389 . S
C328 C327 1.389 . S
C328 C329 1.387 . S
C329 H314 0.930 . S
C329 C324 1.390 . S
C329 C328 1.387 . S
H330 C342 0.930 . S
H331 C344 0.930 . S
H332 C345 0.930 . S
H333 C349 0.959 . S
H334 C349 0.959 . S
H335 C349 0.961 . S
H336 C350 0.960 . S
H337 C350 0.961 . S
H338 C350 0.959 . S
H339 C353 0.929 . S
H340 C354 0.931 . S
H341 C356 0.930 . S
C342 H330 0.930 . S
C342 C343 1.399 . S
C342 C347 1.399 . S
C343 C342 1.399 . S
C343 C344 1.376 . S
C344 H331 0.930 . S
C344 C343 1.376 . S
C344 C345 1.388 . S
C345 H332 0.930 . S
C345 C344 1.388 . S
C345 C346 1.390 . S
C346 C345 1.390 . S
C346 C347 1.394 . S
C346 C352 1.465 . S
C347 C342 1.399 . S
C347 C346 1.394 . S
C347 C348 1.516 . S
C348 C347 1.516 . S
C348 C349 1.502 . S
C348 C350 1.561 . S
C348 C351 1.526 . S
C349 H333 0.959 . S
C349 H334 0.959 . S
C349 H335 0.961 . S
C349 C348 1.502 . S
C350 H336 0.960 . S
C350 H337 0.961 . S
C350 H338 0.959 . S
C350 C348 1.561 . S
C351 C348 1.526 . S
C351 C352 1.396 . S
C351 C356 1.390 . S
C352 C346 1.465 . S
C352 C351 1.396 . S
C352 C353 1.399 . S
C353 H339 0.929 . S
C353 C352 1.399 . S
C353 C354 1.385 . S
C354 H340 0.931 . S
C354 C353 1.385 . S
C354 C355 1.389 . S
C355 C354 1.389 . S
C355 C356 1.387 . S
C356 H341 0.930 . S
C356 C351 1.390 . S
C356 C355 1.387 . S
H357 C369 0.930 . S
H358 C371 0.930 . S
H359 C372 0.930 . S
H360 C376 0.959 . S
H361 C376 0.959 . S
H362 C376 0.961 . S
H363 C377 0.960 . S
H364 C377 0.961 . S
H365 C377 0.959 1_655 S
H366 C380 0.929 . S
H367 C381 0.931 . S
H368 C383 0.930 1_455 S
C369 H357 0.930 . S
C369 C370 1.399 . S
C369 C374 1.399 . S
C370 C369 1.399 . S
C370 C371 1.376 1_455 S
C371 H358 0.930 . S
C371 C370 1.376 1_655 S
C371 C372 1.388 . S
C372 H359 0.930 . S
C372 C371 1.388 . S
C372 C373 1.390 . S
C373 C372 1.390 . S
C373 C374 1.394 1_655 S
C373 C379 1.465 . S
C374 C369 1.399 . S
C374 C373 1.394 1_455 S
C374 C375 1.516 . S
C375 C374 1.516 . S
C375 C376 1.502 . S
C375 C377 1.561 . S
C375 C378 1.528 . S
C376 H360 0.959 . S
C376 H361 0.959 . S
C376 H362 0.961 . S
C376 C375 1.502 . S
C377 H363 0.960 . S
C377 H364 0.961 . S
C377 H365 0.959 1_455 S
C377 C375 1.561 . S
C378 C375 1.528 . S
C378 C379 1.386 1_455 S
C378 C383 1.396 1_455 S
C379 C373 1.465 . S
C379 C378 1.386 1_655 S
C379 C380 1.399 . S
C380 H366 0.929 . S
C380 C379 1.399 . S
C380 C381 1.385 . S
C381 H367 0.931 . S
C381 C380 1.385 . S
C381 C382 1.389 . S
C382 C381 1.389 . S
C382 C383 1.387 . S
C383 H368 0.930 1_655 S
C383 C378 1.396 1_655 S
C383 C382 1.387 . S
H384 C396 0.930 . S
H385 C398 0.930 . S
H386 C399 0.930 . S
H387 C403 0.959 . S
H388 C403 0.959 . S
H389 C403 0.961 . S
H390 C404 0.960 . S
H391 C404 0.961 . S
H392 C404 0.959 . S
H393 C407 0.929 . S
H394 C408 0.931 . S
H395 C410 0.930 . S
C396 H384 0.930 . S
C396 C397 1.399 1_565 S
C396 C401 1.399 . S
C397 C396 1.399 1_545 S
C397 C398 1.376 . S
C398 H385 0.930 . S
C398 C397 1.376 . S
C398 C399 1.388 . S
C399 H386 0.930 . S
C399 C398 1.388 . S
C399 C400 1.390 . S
C400 C399 1.390 . S
C400 C401 1.394 1_545 S
C400 C406 1.465 . S
C401 C396 1.399 . S
C401 C400 1.394 1_565 S
C401 C402 1.516 . S
C402 C401 1.516 . S
C402 C403 1.502 . S
C402 C404 1.561 . S
C402 C405 1.526 . S
C403 H387 0.959 . S
C403 H388 0.959 . S
C403 H389 0.961 . S
C403 C402 1.502 . S
C404 H390 0.960 . S
C404 H391 0.961 . S
C404 H392 0.959 . S
C404 C402 1.561 . S
C405 C402 1.526 . S
C405 C406 1.396 1_565 S
C405 C410 1.390 . S
C406 C400 1.465 . S
C406 C405 1.396 1_545 S
C406 C407 1.399 . S
C407 H393 0.929 . S
C407 C406 1.399 . S
C407 C408 1.385 . S
C408 H394 0.931 . S
C408 C407 1.385 . S
C408 C409 1.389 1_545 S
C409 C408 1.389 1_565 S
C409 C410 1.387 . S
C410 H395 0.930 . S
C410 C405 1.390 . S
C410 C409 1.387 . S
H411 C423 0.930 . S
H412 C425 0.930 . S
H413 C426 0.930 . S
H414 C430 0.959 . S
H415 C430 0.959 . S
H416 C430 0.961 . S
H417 C431 0.960 . S
H418 C431 0.961 . S
H419 C431 0.959 . S
H420 C434 0.929 . S
H421 C435 0.931 . S
H422 C437 0.930 . S
C423 H411 0.930 . S
C423 C424 1.399 . S
C423 C428 1.399 . S
C424 C423 1.399 . S
C424 C425 1.376 . S
C425 H412 0.930 . S
C425 C424 1.376 . S
C425 C426 1.388 . S
C426 H413 0.930 . S
C426 C425 1.388 . S
C426 C427 1.390 . S
C427 C426 1.390 . S
C427 C428 1.394 . S
C427 C433 1.465 . S
C428 C423 1.399 . S
C428 C427 1.394 . S
C428 C429 1.516 . S
C429 C428 1.516 . S
C429 C430 1.502 . S
C429 C431 1.561 . S
C429 C432 1.526 . S
C430 H414 0.959 . S
C430 H415 0.959 . S
C430 H416 0.961 . S
C430 C429 1.502 . S
C431 H417 0.960 . S
C431 H418 0.961 . S
C431 H419 0.959 . S
C431 C429 1.561 . S
C432 C429 1.526 . S
C432 C433 1.396 . S
C432 C437 1.390 . S
C433 C427 1.465 . S
C433 C432 1.396 . S
C433 C434 1.399 . S
C434 H420 0.929 . S
C434 C433 1.399 . S
C434 C435 1.385 . S
C435 H421 0.931 . S
C435 C434 1.385 . S
C435 C436 1.389 . S
C436 C435 1.389 . S
C436 C437 1.387 . S
C437 H422 0.930 . S
C437 C432 1.390 . S
C437 C436 1.387 . S
H438 C450 0.930 . S
H439 C452 0.930 . S
H440 C453 0.930 . S
H441 C457 0.959 . S
H442 C457 0.959 . S
H443 C457 0.961 . S
H444 C458 0.960 . S
H445 C458 0.961 . S
H446 C458 0.959 . S
H447 C461 0.929 . S
H448 C462 0.931 . S
H449 C464 0.930 . S
C450 H438 0.930 . S
C450 C451 1.399 . S
C450 C455 1.399 . S
C451 C450 1.399 . S
C451 C452 1.376 . S
C452 H439 0.930 . S
C452 C451 1.376 . S
C452 C453 1.388 . S
C453 H440 0.930 . S
C453 C452 1.388 . S
C453 C454 1.390 . S
C454 C453 1.390 . S
C454 C455 1.394 . S
C454 C460 1.465 . S
C455 C450 1.399 . S
C455 C454 1.394 . S
C455 C456 1.516 1_655 S
C456 C455 1.516 1_455 S
C456 C457 1.502 . S
C456 C458 1.561 1_455 S
C456 C459 1.526 . S
C457 H441 0.959 . S
C457 H442 0.959 . S
C457 H443 0.961 . S
C457 C456 1.502 . S
C458 H444 0.960 . S
C458 H445 0.961 . S
C458 H446 0.959 . S
C458 C456 1.561 1_655 S
C459 C456 1.526 . S
C459 C460 1.396 1_455 S
C459 C464 1.390 . S
C460 C454 1.465 . S
C460 C459 1.396 1_655 S
C460 C461 1.399 . S
C461 H447 0.929 . S
C461 C460 1.399 . S
C461 C462 1.385 1_655 S
C462 H448 0.931 . S
C462 C461 1.385 1_455 S
C462 C463 1.389 . S
C463 C462 1.389 . S
C463 C464 1.387 . S
C464 H449 0.930 . S
C464 C459 1.390 . S
C464 C463 1.387 . S
H465 C477 0.934 . S
H466 C479 0.930 . S
H467 C480 0.930 . S
H468 C484 0.959 . S
H469 C484 0.959 . S
H470 C484 0.961 . S
H471 C485 0.960 . S
H472 C485 0.961 . S
H473 C485 0.959 . S
H474 C488 0.929 . S
H475 C489 0.931 . S
H476 C491 0.930 . S
C477 H465 0.934 . S
C477 C478 1.399 . S
C477 C482 1.399 . S
C478 C477 1.399 . S
C478 C479 1.376 . S
C479 H466 0.930 . S
C479 C478 1.376 . S
C479 C480 1.388 . S
C480 H467 0.930 . S
C480 C479 1.388 . S
C480 C481 1.390 . S
C481 C480 1.390 . S
C481 C482 1.394 . S
C481 C487 1.465 . S
C482 C477 1.399 . S
C482 C481 1.394 . S
C482 C483 1.516 1_565 S
C483 C482 1.516 1_545 S
C483 C484 1.502 . S
C483 C485 1.561 1_545 S
C483 C486 1.526 . S
C484 H468 0.959 . S
C484 H469 0.959 . S
C484 H470 0.961 . S
C484 C483 1.502 . S
C485 H471 0.960 . S
C485 H472 0.961 . S
C485 H473 0.959 . S
C485 C483 1.561 1_565 S
C486 C483 1.526 . S
C486 C487 1.396 1_545 S
C486 C491 1.390 . S
C487 C481 1.465 . S
C487 C486 1.396 1_565 S
C487 C488 1.399 . S
C488 H474 0.929 . S
C488 C487 1.399 . S
C488 C489 1.385 1_565 S
C489 H475 0.931 . S
C489 C488 1.385 1_545 S
C489 C490 1.389 . S
C490 C489 1.389 . S
C490 C491 1.387 . S
C491 H476 0.930 . S
C491 C486 1.390 . S
C491 C490 1.387 . S
H492 C504 0.930 . S
H493 C506 0.930 . S
H494 C507 0.930 . S
H495 C511 0.959 . S
H496 C511 0.959 . S
H497 C511 0.961 . S
H498 C512 0.960 . S
H499 C512 0.961 . S
H500 C512 0.959 . S
H501 C515 0.929 . S
H502 C516 0.931 . S
H503 C518 0.930 . S
C504 H492 0.930 . S
C504 C505 1.399 . S
C504 C509 1.399 . S
C505 C504 1.399 . S
C505 C506 1.376 . S
C506 H493 0.930 . S
C506 C505 1.376 . S
C506 C507 1.388 . S
C507 H494 0.930 . S
C507 C506 1.388 . S
C507 C508 1.390 . S
C508 C507 1.390 . S
C508 C509 1.394 . S
C508 C514 1.465 . S
C509 C504 1.399 . S
C509 C508 1.394 . S
C509 C510 1.516 . S
C510 C509 1.516 . S
C510 C511 1.502 . S
C510 C512 1.561 . S
C510 C513 1.526 . S
C511 H495 0.959 . S
C511 H496 0.959 . S
C511 H497 0.961 . S
C511 C510 1.502 . S
C512 H498 0.960 . S
C512 H499 0.961 . S
C512 H500 0.959 . S
C512 C510 1.561 . S
C513 C510 1.526 . S
C513 C514 1.396 . S
C513 C518 1.390 . S
C514 C508 1.465 . S
C514 C513 1.396 . S
C514 C515 1.399 . S
C515 H501 0.929 . S
C515 C514 1.399 . S
C515 C516 1.385 . S
C516 H502 0.931 . S
C516 C515 1.385 . S
C516 C517 1.389 . S
C517 C516 1.389 . S
C517 C518 1.387 . S
C518 H503 0.930 . S
C518 C513 1.390 . S
C518 C517 1.387 . S
H519 C531 0.930 . S
H520 C533 0.930 . S
H521 C534 0.930 . S
H522 C538 0.959 . S
H523 C538 0.959 . S
H524 C538 0.961 . S
H525 C539 0.960 . S
H526 C539 0.961 . S
H527 C539 0.959 . S
H528 C542 0.929 . S
H529 C543 0.931 . S
H530 C545 0.930 . S
C531 H519 0.930 . S
C531 C532 1.399 . S
C531 C536 1.399 . S
C532 C531 1.399 . S
C532 C533 1.376 . S
C533 H520 0.930 . S
C533 C532 1.376 . S
C533 C534 1.388 . S
C534 H521 0.930 . S
C534 C533 1.388 . S
C534 C535 1.390 . S
C535 C534 1.390 . S
C535 C536 1.394 . S
C535 C541 1.465 . S
C536 C531 1.399 . S
C536 C535 1.394 . S
C536 C537 1.516 . S
C537 C536 1.516 . S
C537 C538 1.502 . S
C537 C539 1.561 . S
C537 C540 1.526 . S
C538 H522 0.959 . S
C538 H523 0.959 . S
C538 H524 0.961 . S
C538 C537 1.502 . S
C539 H525 0.960 . S
C539 H526 0.961 . S
C539 H527 0.959 . S
C539 C537 1.561 . S
C540 C537 1.526 . S
C540 C541 1.396 . S
C540 C545 1.390 . S
C541 C535 1.465 . S
C541 C540 1.396 . S
C541 C542 1.399 . S
C542 H528 0.929 . S
C542 C541 1.399 . S
C542 C543 1.385 . S
C543 H529 0.931 . S
C543 C542 1.385 . S
C543 C544 1.389 . S
C544 C543 1.389 . S
C544 C545 1.387 . S
C545 H530 0.930 . S
C545 C540 1.390 . S
C545 C544 1.387 . S
H546 C558 0.930 . S
H547 C560 0.930 1_455 S
H548 C561 0.930 . S
H549 C565 0.959 . S
H550 C565 0.959 . S
H551 C565 0.961 . S
H552 C566 0.960 . S
H553 C566 0.961 . S
H554 C566 0.959 . S
H555 C569 0.929 . S
H556 C570 0.931 . S
H557 C572 0.930 . S
C558 H546 0.930 . S
C558 C559 1.399 . S
C558 C563 1.399 . S
C559 C558 1.399 . S
C559 C560 1.376 . S
C560 H547 0.930 1_655 S
C560 C559 1.376 . S
C560 C561 1.388 . S
C561 H548 0.930 . S
C561 C560 1.388 . S
C561 C562 1.390 . S
C562 C561 1.390 . S
C562 C563 1.394 . S
C562 C568 1.465 . S
C563 C558 1.399 . S
C563 C562 1.394 . S
C563 C564 1.516 . S
C564 C563 1.516 . S
C564 C565 1.502 . S
C564 C566 1.561 . S
C564 C567 1.526 . S
C565 H549 0.959 . S
C565 H550 0.959 . S
C565 H551 0.961 . S
C565 C564 1.502 . S
C566 H552 0.960 . S
C566 H553 0.961 . S
C566 H554 0.959 . S
C566 C564 1.561 . S
C567 C564 1.526 . S
C567 C568 1.396 . S
C567 C572 1.390 . S
C568 C562 1.465 . S
C568 C567 1.396 . S
C568 C569 1.399 . S
C569 H555 0.929 . S
C569 C568 1.399 . S
C569 C570 1.385 . S
C570 H556 0.931 . S
C570 C569 1.385 . S
C570 C571 1.389 . S
C571 C570 1.389 . S
C571 C572 1.387 . S
C572 H557 0.930 . S
C572 C567 1.390 . S
C572 C571 1.387 . S
H573 C585 0.930 . S
H574 C587 0.930 . S
H575 C588 0.930 . S
H576 C592 0.959 . S
H577 C592 0.959 . S
H578 C592 0.961 . S
H579 C593 0.960 . S
H580 C593 0.961 . S
H581 C593 0.959 . S
H582 C596 0.929 . S
H583 C597 0.931 . S
H584 C599 0.930 . S
C585 H573 0.930 . S
C585 C586 1.399 . S
C585 C590 1.399 . S
C586 C585 1.399 . S
C586 C587 1.376 . S
C587 H574 0.930 . S
C587 C586 1.376 . S
C587 C588 1.388 . S
C588 H575 0.930 . S
C588 C587 1.388 . S
C588 C589 1.390 . S
C589 C588 1.390 . S
C589 C590 1.394 . S
C589 C595 1.465 . S
C590 C585 1.399 . S
C590 C589 1.394 . S
C590 C591 1.516 . S
C591 C590 1.516 . S
C591 C592 1.502 . S
C591 C593 1.561 . S
C591 C594 1.526 . S
C592 H576 0.959 . S
C592 H577 0.959 . S
C592 H578 0.961 . S
C592 C591 1.502 . S
C593 H579 0.960 . S
C593 H580 0.961 . S
C593 H581 0.959 . S
C593 C591 1.561 . S
C594 C591 1.526 . S
C594 C595 1.396 . S
C594 C599 1.390 . S
C595 C589 1.465 . S
C595 C594 1.396 . S
C595 C596 1.399 . S
C596 H582 0.929 . S
C596 C595 1.399 . S
C596 C597 1.385 . S
C597 H583 0.931 . S
C597 C596 1.385 . S
C597 C598 1.389 . S
C598 C597 1.389 . S
C598 C599 1.387 . S
C599 H584 0.930 . S
C599 C594 1.390 . S
C599 C598 1.387 . S
H600 C612 0.930 . S
H601 C614 0.930 . S
H602 C615 0.930 . S
H603 C619 0.959 . S
H604 C619 0.959 . S
H605 C619 0.961 . S
H606 C620 0.960 . S
H607 C620 0.961 . S
H608 C620 0.959 . S
H609 C623 0.929 . S
H610 C624 0.931 1_455 S
H611 C626 0.930 . S
C612 H600 0.930 . S
C612 C613 1.399 . S
C612 C617 1.399 . S
C613 C612 1.399 . S
C613 C614 1.376 . S
C614 H601 0.930 . S
C614 C613 1.376 . S
C614 C615 1.388 . S
C615 H602 0.930 . S
C615 C614 1.388 . S
C615 C616 1.390 . S
C616 C615 1.390 . S
C616 C617 1.394 . S
C616 C622 1.465 . S
C617 C612 1.399 . S
C617 C616 1.394 . S
C617 C618 1.516 . S
C618 C617 1.516 . S
C618 C619 1.502 . S
C618 C620 1.561 . S
C618 C621 1.526 . S
C619 H603 0.959 . S
C619 H604 0.959 . S
C619 H605 0.961 . S
C619 C618 1.502 . S
C620 H606 0.960 . S
C620 H607 0.961 . S
C620 H608 0.959 . S
C620 C618 1.561 . S
C621 C618 1.526 . S
C621 C622 1.396 . S
C621 C626 1.390 . S
C622 C616 1.465 . S
C622 C621 1.396 . S
C622 C623 1.399 . S
C623 H609 0.929 . S
C623 C622 1.399 . S
C623 C624 1.385 . S
C624 H610 0.931 1_655 S
C624 C623 1.385 . S
C624 C625 1.389 . S
C625 C624 1.389 . S
C625 C626 1.387 . S
C626 H611 0.930 . S
C626 C621 1.390 . S
C626 C625 1.387 . S
H627 C639 0.930 . S
H628 C641 0.930 . S
H629 C642 0.930 . S
H630 C646 0.959 . S
H631 C646 0.959 . S
H632 C646 0.961 . S
H633 C647 0.960 . S
H634 C647 0.961 . S
H635 C647 0.959 . S
H636 C650 0.929 . S
H637 C651 0.931 . S
H638 C653 0.930 . S
C639 H627 0.930 . S
C639 C640 1.399 . S
C639 C644 1.399 . S
C640 C639 1.399 . S
C640 C641 1.376 . S
C641 H628 0.930 . S
C641 C640 1.376 . S
C641 C642 1.388 . S
C642 H629 0.930 . S
C642 C641 1.388 . S
C642 C643 1.390 . S
C643 C642 1.390 . S
C643 C644 1.394 . S
C643 C649 1.465 . S
C644 C639 1.399 . S
C644 C643 1.394 . S
C644 C645 1.516 . S
C645 C644 1.516 . S
C645 C646 1.502 . S
C645 C647 1.561 . S
C645 C648 1.526 . S
C646 H630 0.959 . S
C646 H631 0.959 . S
C646 H632 0.961 . S
C646 C645 1.502 . S
C647 H633 0.960 . S
C647 H634 0.961 . S
C647 H635 0.959 . S
C647 C645 1.561 . S
C648 C645 1.526 . S
C648 C649 1.396 . S
C648 C653 1.390 . S
C649 C643 1.465 . S
C649 C648 1.396 . S
C649 C650 1.399 . S
C650 H636 0.929 . S
C650 C649 1.399 . S
C650 C651 1.385 . S
C651 H637 0.931 . S
C651 C650 1.385 . S
C651 C652 1.389 . S
C652 C651 1.389 . S
C652 C653 1.387 . S
C653 H638 0.930 . S
C653 C648 1.390 . S
C653 C652 1.387 . S
H654 C666 0.930 . S
H655 C668 0.930 . S
H656 C669 0.930 . S
H657 C673 0.959 . S
H658 C673 0.959 . S
H659 C673 0.961 . S
H660 C674 0.960 . S
H661 C674 0.961 . S
H662 C674 0.959 . S
H663 C677 0.929 . S
H664 C678 0.931 . S
H665 C680 0.930 . S
C666 H654 0.930 . S
C666 C667 1.399 . S
C666 C671 1.399 . S
C667 C666 1.399 . S
C667 C668 1.376 . S
C668 H655 0.930 . S
C668 C667 1.376 . S
C668 C669 1.388 . S
C669 H656 0.930 . S
C669 C668 1.388 . S
C669 C670 1.390 . S
C670 C669 1.390 . S
C670 C671 1.394 . S
C670 C676 1.465 . S
C671 C666 1.399 . S
C671 C670 1.394 . S
C671 C672 1.516 . S
C672 C671 1.516 . S
C672 C673 1.502 . S
C672 C674 1.561 . S
C672 C675 1.526 . S
C673 H657 0.959 . S
C673 H658 0.959 . S
C673 H659 0.961 . S
C673 C672 1.502 . S
C674 H660 0.960 . S
C674 H661 0.961 . S
C674 H662 0.959 . S
C674 C672 1.561 . S
C675 C672 1.526 . S
C675 C676 1.396 . S
C675 C680 1.390 . S
C676 C670 1.465 . S
C676 C675 1.396 . S
C676 C677 1.399 . S
C677 H663 0.929 . S
C677 C676 1.399 . S
C677 C678 1.385 . S
C678 H664 0.931 . S
C678 C677 1.385 . S
C678 C679 1.389 . S
C679 C678 1.389 . S
C679 C680 1.387 . S
C680 H665 0.930 . S
C680 C675 1.390 . S
C680 C679 1.387 . S
H681 C693 0.930 . S
H682 C695 0.930 . S
H683 C696 0.930 . S
H684 C700 0.959 . S
H685 C700 0.959 . S
H686 C700 0.961 . S
H687 C701 0.960 . S
H688 C701 0.961 . S
H689 C701 0.959 . S
H690 C704 0.929 . S
H691 C705 0.931 . S
H692 C707 0.939 . S
C693 H681 0.930 . S
C693 C694 1.399 . S
C693 C698 1.399 . S
C694 C693 1.399 . S
C694 C695 1.376 1_655 S
C695 H682 0.930 . S
C695 C694 1.376 1_455 S
C695 C696 1.388 . S
C696 H683 0.930 . S
C696 C695 1.388 . S
C696 C697 1.390 . S
C697 C696 1.390 . S
C697 C698 1.394 1_455 S
C697 C703 1.465 . S
C698 C693 1.399 . S
C698 C697 1.394 1_655 S
C698 C699 1.516 . S
C699 C698 1.516 . S
C699 C700 1.502 . S
C699 C701 1.561 . S
C699 C702 1.526 . S
C700 H684 0.959 . S
C700 H685 0.959 . S
C700 H686 0.961 . S
C700 C699 1.502 . S
C701 H687 0.960 . S
C701 H688 0.961 . S
C701 H689 0.959 . S
C701 C699 1.561 . S
C702 C699 1.526 . S
C702 C703 1.396 1_655 S
C702 C707 1.390 . S
C703 C697 1.465 . S
C703 C702 1.396 1_455 S
C703 C704 1.399 . S
C704 H690 0.929 . S
C704 C703 1.399 . S
C704 C705 1.385 . S
C705 H691 0.931 . S
C705 C704 1.385 . S
C705 C706 1.389 . S
C706 C705 1.389 . S
C706 C707 1.376 1_455 S
C707 H692 0.939 . S
C707 C702 1.390 . S
C707 C706 1.376 1_655 S
H708 C720 0.930 . S
H709 C722 0.930 . S
H710 C723 0.930 . S
H711 C727 0.959 . S
H712 C727 0.959 . S
H713 C727 0.961 . S
H714 C728 0.960 . S
H715 C728 0.961 . S
H716 C728 0.959 . S
H717 C731 0.929 . S
H718 C732 0.931 . S
H719 C734 0.930 . S
C720 H708 0.930 . S
C720 C721 1.399 . S
C720 C725 1.399 . S
C721 C720 1.399 . S
C721 C722 1.376 1_545 S
C722 H709 0.930 . S
C722 C721 1.376 1_565 S
C722 C723 1.388 . S
C723 H710 0.930 . S
C723 C722 1.388 . S
C723 C724 1.390 . S
C724 C723 1.390 . S
C724 C725 1.394 1_565 S
C724 C730 1.465 1_554 S
C725 C720 1.399 . S
C725 C724 1.394 1_545 S
C725 C726 1.516 1_554 S
C726 C725 1.516 1_556 S
C726 C727 1.502 . S
C726 C728 1.561 . S
C726 C729 1.526 . S
C727 H711 0.959 . S
C727 H712 0.959 . S
C727 H713 0.961 . S
C727 C726 1.502 . S
C728 H714 0.960 . S
C728 H715 0.961 . S
C728 H716 0.959 . S
C728 C726 1.561 . S
C729 C726 1.526 . S
C729 C730 1.396 1_545 S
C729 C734 1.390 . S
C730 C724 1.465 1_556 S
C730 C729 1.396 1_565 S
C730 C731 1.399 . S
C731 H717 0.929 . S
C731 C730 1.399 . S
C731 C732 1.385 . S
C732 H718 0.931 . S
C732 C731 1.385 . S
C732 C733 1.389 . S
C733 C732 1.389 . S
C733 C734 1.387 1_565 S
C734 H719 0.930 . S
C734 C729 1.390 . S
C734 C733 1.387 1_545 S
H735 C747 0.930 . S
H736 C749 0.930 . S
H737 C750 0.930 . S
H738 C754 0.959 . S
H739 C754 0.959 . S
H740 C754 0.961 . S
H741 C755 0.960 . S
H742 C755 0.961 . S
H743 C755 0.959 . S
H744 C758 0.929 . S
H745 C759 0.931 . S
H746 C761 0.930 . S
C747 H735 0.930 . S
C747 C748 1.399 . S
C747 C752 1.399 . S
C748 C747 1.399 . S
C748 C749 1.376 . S
C749 H736 0.930 . S
C749 C748 1.376 . S
C749 C750 1.388 . S
C750 H737 0.930 . S
C750 C749 1.388 . S
C750 C751 1.390 . S
C751 C750 1.390 . S
C751 C752 1.394 . S
C751 C757 1.465 . S
C752 C747 1.399 . S
C752 C751 1.394 . S
C752 C753 1.516 . S
C753 C752 1.516 . S
C753 C754 1.502 . S
C753 C755 1.561 . S
C753 C756 1.526 . S
C754 H738 0.959 . S
C754 H739 0.959 . S
C754 H740 0.961 . S
C754 C753 1.502 . S
C755 H741 0.960 . S
C755 H742 0.961 . S
C755 H743 0.959 . S
C755 C753 1.561 . S
C756 C753 1.526 . S
C756 C757 1.396 . S
C756 C761 1.390 . S
C757 C751 1.465 . S
C757 C756 1.396 . S
C757 C758 1.399 . S
C758 H744 0.929 . S
C758 C757 1.399 . S
C758 C759 1.385 . S
C759 H745 0.931 . S
C759 C758 1.385 . S
C759 C760 1.389 . S
C760 C759 1.389 . S
C760 C761 1.387 . S
C761 H746 0.930 . S
C761 C756 1.390 . S
C761 C760 1.387 . S
H762 C774 0.930 . S
H763 C776 0.930 . S
H764 C777 0.930 . S
H765 C781 0.959 . S
H766 C781 0.959 . S
H767 C781 0.961 . S
H768 C782 0.960 . S
H769 C782 0.961 . S
H770 C782 0.959 1_655 S
H771 C785 0.929 . S
H772 C786 0.931 . S
H773 C788 0.930 1_455 S
C774 H762 0.930 . S
C774 C775 1.399 . S
C774 C779 1.399 . S
C775 C774 1.399 . S
C775 C776 1.376 1_455 S
C776 H763 0.930 . S
C776 C775 1.376 1_655 S
C776 C777 1.388 . S
C777 H764 0.930 . S
C777 C776 1.388 . S
C777 C778 1.390 . S
C778 C777 1.390 . S
C778 C779 1.394 1_655 S
C778 C784 1.465 . S
C779 C774 1.399 . S
C779 C778 1.394 1_455 S
C779 C780 1.516 . S
C780 C779 1.516 . S
C780 C781 1.502 . S
C780 C782 1.561 . S
C780 C783 1.522 1_455 S
C781 H765 0.959 . S
C781 H766 0.959 . S
C781 H767 0.961 . S
C781 C780 1.502 . S
C782 H768 0.960 . S
C782 H769 0.961 . S
C782 H770 0.959 1_455 S
C782 C780 1.561 . S
C783 C780 1.522 1_655 S
C783 C784 1.398 . S
C783 C788 1.392 . S
C784 C778 1.465 . S
C784 C783 1.398 . S
C784 C785 1.399 . S
C785 H771 0.929 . S
C785 C784 1.399 . S
C785 C786 1.385 . S
C786 H772 0.931 . S
C786 C785 1.385 . S
C786 C787 1.389 . S
C787 C786 1.389 . S
C787 C788 1.387 . S
C788 H773 0.930 1_655 S
C788 C783 1.392 . S
C788 C787 1.387 . S
H789 C801 0.930 . S
H790 C803 0.930 . S
H791 C804 0.930 . S
H792 C808 0.959 . S
H793 C808 0.959 . S
H794 C808 0.961 . S
H795 C809 0.960 . S
H796 C809 0.961 . S
H797 C809 0.959 . S
H798 C812 0.929 . S
H799 C813 0.931 . S
H800 C815 0.930 . S
C801 H789 0.930 . S
C801 C802 1.399 1_545 S
C801 C806 1.399 . S
C802 C801 1.399 1_565 S
C802 C803 1.376 . S
C803 H790 0.930 . S
C803 C802 1.376 . S
C803 C804 1.388 . S
C804 H791 0.930 . S
C804 C803 1.388 . S
C804 C805 1.390 . S
C805 C804 1.390 . S
C805 C806 1.394 1_565 S
C805 C811 1.465 1_554 S
C806 C801 1.399 . S
C806 C805 1.394 1_545 S
C806 C807 1.516 . S
C807 C806 1.516 . S
C807 C808 1.502 . S
C807 C809 1.561 . S
C807 C810 1.526 1_554 S
C808 H792 0.959 . S
C808 H793 0.959 . S
C808 H794 0.961 . S
C808 C807 1.502 . S
C809 H795 0.960 . S
C809 H796 0.961 . S
C809 H797 0.959 . S
C809 C807 1.561 . S
C810 C807 1.526 1_556 S
C810 C811 1.396 1_545 S
C810 C815 1.390 . S
C811 C805 1.465 1_556 S
C811 C810 1.396 1_565 S
C811 C812 1.399 . S
C812 H798 0.929 . S
C812 C811 1.399 . S
C812 C813 1.385 . S
C813 H799 0.931 . S
C813 C812 1.385 . S
C813 C814 1.389 1_565 S
C814 C813 1.389 1_545 S
C814 C815 1.387 . S
C815 H800 0.930 . S
C815 C810 1.390 . S
C815 C814 1.387 . S
C181 C162 1.697 . S
C193 C8 1.678 . S
C208 C22 1.690 . S
C220 C92 1.700 . S
C235 C36 1.692 . S
C247 C106 1.673 . S
C262 C50 1.672 . S
C274 C120 1.672 . S
C289 C134 1.688 . S
C301 C64 1.701 . S
C316 C78 1.685 . S
C328 C148 1.700 . S
C343 C51 1.226 . S
C355 C9 1.168 . S
C370 C65 1.186 . S
C382 C23 1.253 . S
C397 C79 1.252 . S
C409 C37 1.172 . S
C424 C93 1.217 . S
C436 C135 1.172 . S
C451 C107 1.220 . S
C463 C149 1.171 . S
C478 C121 1.222 . S
C490 C163 1.170 . S
C505 C119 0.429 . S
C517 C7 0.630 . S
C532 C21 0.492 . S
C544 C133 0.617 . S
C559 C147 0.604 . S
C571 C35 0.515 . S
C586 C161 0.470 . S
C598 C49 0.576 . S
C613 C91 0.482 . S
C625 C63 0.622 . S
C640 C77 0.459 . S
C652 C105 0.588 . S
C667 C129 1.636 . S
C679 C3 1.667 . S
C694 C17 1.644 . S
C706 C143 1.669 . S
C721 C157 1.643 . S
C733 C31 1.669 . S
C748 C45 1.645 . S
C760 C87 1.651 . S
C775 C59 1.636 . S
C787 C101 1.665 . S
C802 C115 1.668 . S
C814 C73 1.636 . S
