# Generated by pormake.
# Topology umd, (4)-cn, num edge types: 1
# Building blocks:
#     Node 0, Type 0, BuildingBlock: ICAMEG_clean_sbu_1, # of connection points: 4
#     Node 1, Type 0, BuildingBlock: ICAMEG_clean_sbu_1, # of connection points: 4
#     Node 2, Type 0, BuildingBlock: ICAMEG_clean_sbu_1, # of connection points: 4
#     Node 3, Type 0, BuildingBlock: ICAMEG_clean_sbu_1, # of connection points: 4
#     Node 4, Type 0, BuildingBlock: ICAMEG_clean_sbu_1, # of connection points: 4
#     Node 5, Type 0, BuildingBlock: ICAMEG_clean_sbu_1, # of connection points: 4
#     Node 6, Type 0, BuildingBlock: ICAMEG_clean_sbu_1, # of connection points: 4
#     Node 7, Type 0, BuildingBlock: ICAMEG_clean_sbu_1, # of connection points: 4
#     Node 8, Type 0, BuildingBlock: ICAMEG_clean_sbu_1, # of connection points: 4
#     Node 9, Type 0, BuildingBlock: ICAMEG_clean_sbu_1, # of connection points: 4
#     Node 10, Type 0, BuildingBlock: ICAMEG_clean_sbu_1, # of connection points: 4
#     Node 11, Type 0, BuildingBlock: ICAMEG_clean_sbu_1, # of connection points: 4
#     Node 12, Type 0, BuildingBlock: ICAMEG_clean_sbu_1, # of connection points: 4
#     Node 13, Type 0, BuildingBlock: ICAMEG_clean_sbu_1, # of connection points: 4
#     Node 14, Type 0, BuildingBlock: ICAMEG_clean_sbu_1, # of connection points: 4
#     Node 15, Type 0, BuildingBlock: ICAMEG_clean_sbu_1, # of connection points: 4
#     Edge 16, Type (0, 0), BuildingBlock: CIFDUS_clean_linker_0, # of connection points: 2
#     Edge 17, Type (0, 0), BuildingBlock: CIFDUS_clean_linker_0, # of connection points: 2
#     Edge 18, Type (0, 0), BuildingBlock: CIFDUS_clean_linker_0, # of connection points: 2
#     Edge 19, Type (0, 0), BuildingBlock: CIFDUS_clean_linker_0, # of connection points: 2
#     Edge 20, Type (0, 0), BuildingBlock: CIFDUS_clean_linker_0, # of connection points: 2
#     Edge 21, Type (0, 0), BuildingBlock: CIFDUS_clean_linker_0, # of connection points: 2
#     Edge 22, Type (0, 0), BuildingBlock: CIFDUS_clean_linker_0, # of connection points: 2
#     Edge 23, Type (0, 0), BuildingBlock: CIFDUS_clean_linker_0, # of connection points: 2
#     Edge 24, Type (0, 0), BuildingBlock: CIFDUS_clean_linker_0, # of connection points: 2
#     Edge 25, Type (0, 0), BuildingBlock: CIFDUS_clean_linker_0, # of connection points: 2
#     Edge 26, Type (0, 0), BuildingBlock: CIFDUS_clean_linker_0, # of connection points: 2
#     Edge 27, Type (0, 0), BuildingBlock: CIFDUS_clean_linker_0, # of connection points: 2
#     Edge 28, Type (0, 0), BuildingBlock: CIFDUS_clean_linker_0, # of connection points: 2
#     Edge 29, Type (0, 0), BuildingBlock: CIFDUS_clean_linker_0, # of connection points: 2
#     Edge 30, Type (0, 0), BuildingBlock: CIFDUS_clean_linker_0, # of connection points: 2
#     Edge 31, Type (0, 0), BuildingBlock: CIFDUS_clean_linker_0, # of connection points: 2
#     Edge 32, Type (0, 0), BuildingBlock: CIFDUS_clean_linker_0, # of connection points: 2
#     Edge 33, Type (0, 0), BuildingBlock: CIFDUS_clean_linker_0, # of connection points: 2
#     Edge 34, Type (0, 0), BuildingBlock: CIFDUS_clean_linker_0, # of connection points: 2
#     Edge 35, Type (0, 0), BuildingBlock: CIFDUS_clean_linker_0, # of connection points: 2
#     Edge 36, Type (0, 0), BuildingBlock: CIFDUS_clean_linker_0, # of connection points: 2
#     Edge 37, Type (0, 0), BuildingBlock: CIFDUS_clean_linker_0, # of connection points: 2
#     Edge 38, Type (0, 0), BuildingBlock: CIFDUS_clean_linker_0, # of connection points: 2
#     Edge 39, Type (0, 0), BuildingBlock: CIFDUS_clean_linker_0, # of connection points: 2
#     Edge 40, Type (0, 0), BuildingBlock: CIFDUS_clean_linker_0, # of connection points: 2
#     Edge 41, Type (0, 0), BuildingBlock: CIFDUS_clean_linker_0, # of connection points: 2
#     Edge 42, Type (0, 0), BuildingBlock: CIFDUS_clean_linker_0, # of connection points: 2
#     Edge 43, Type (0, 0), BuildingBlock: CIFDUS_clean_linker_0, # of connection points: 2
#     Edge 44, Type (0, 0), BuildingBlock: CIFDUS_clean_linker_0, # of connection points: 2
#     Edge 45, Type (0, 0), BuildingBlock: CIFDUS_clean_linker_0, # of connection points: 2
#     Edge 46, Type (0, 0), BuildingBlock: CIFDUS_clean_linker_0, # of connection points: 2
#     Edge 47, Type (0, 0), BuildingBlock: CIFDUS_clean_linker_0, # of connection points: 2
# Relax obj value: 0.056
# Max RMSD: 0.156
# Mean RMSD: 0.156
data_MOF--net-umd--node1-ICAMEG_clean_sbu_1--edge1-CIFDUS_clean_linker_0
_symmetry_space_group_name_H-M    P1
_symmetry_Int_Tables_number       1
_symmetry_cell_setting            triclinic
loop_
_symmetry_equiv_pos_as_xyz
'x, y, z'
_cell_length_a     36.956399
_cell_length_b     36.938075
_cell_length_c     53.399597
_cell_angle_alpha  90.014355
_cell_angle_beta   90.048059
_cell_angle_gamma 90.020105
loop_
_atom_site_label
_atom_site_type_symbol
_atom_site_fract_x
_atom_site_fract_y
_atom_site_fract_z
_atom_type_partial_charge
Co0 Co 0.17518 0.47899 0.12994 0.0
Co1 Co 0.15645 0.39428 0.15416 0.0
O2 O 0.18009 0.42649 0.13049 0.0
C3 C 0.14808 0.45356 0.08135 0.0
O4 O 0.12918 0.43043 0.0946 0.0
C5 C 0.23448 0.37994 0.16003 0.0
O6 O 0.2392 0.41515 0.1608 0.0
O7 O 0.17067 0.42574 0.18268 0.0
O8 O 0.18111 0.48162 0.16734 0.0
H9 H 0.07715 0.36327 0.22746 0.0
H10 H 0.22851 0.4431 0.09665 0.0
O11 O 0.16848 0.47644 0.09245 0.0
H12 H 0.30001 0.52463 0.15057 0.0
H13 H 0.19657 0.60277 0.09352 0.0
H14 H 0.13744 0.53371 0.1611 0.0
H15 H 0.23359 0.52154 0.15472 0.0
H16 H 0.20258 0.53629 0.09566 0.0
O17 O 0.20277 0.36677 0.15774 0.0
H18 H 0.10618 0.40402 0.19687 0.0
H19 H 0.1585 0.31454 0.16251 0.0
H20 H 0.13094 0.60014 0.15982 0.0
H21 H 0.29483 0.44551 0.09177 0.0
H22 H 0.16064 0.63513 0.12583 0.0
H23 H 0.33104 0.48642 0.11891 0.0
O24 O 0.12192 0.47607 0.13449 0.0
H25 H 0.17758 0.32724 0.07361 0.0
H26 H 0.08771 0.3587 0.13824 0.0
H27 H 0.06902 0.32183 0.10194 0.0
H28 H 0.11414 0.30589 0.06929 0.0
H29 H 0.19499 0.36431 0.1101 0.0
H30 H 0.13027 0.27283 0.19285 0.0
H31 H 0.08915 0.29716 0.22555 0.0
O32 O 0.10981 0.42132 0.15094 0.0
C33 C 0.1787 0.45911 0.18548 0.0
C34 C 0.09491 0.35233 0.21324 0.0
C35 C 0.12476 0.30157 0.19383 0.0
N36 N 0.13372 0.36162 0.17781 0.0
C37 C 0.11132 0.37525 0.19583 0.0
C38 C 0.14072 0.32532 0.17674 0.0
C39 C 0.10168 0.31524 0.21218 0.0
C40 C 0.24405 0.46124 0.10835 0.0
N41 N 0.2272 0.48232 0.12584 0.0
C42 C 0.28161 0.46237 0.10558 0.0
C43 C 0.30192 0.4853 0.12084 0.0
C44 C 0.28452 0.50673 0.13862 0.0
C45 C 0.24692 0.50483 0.1409 0.0
C46 C 0.18357 0.58784 0.10846 0.0
C47 C 0.15067 0.54878 0.14638 0.0
C48 C 0.18683 0.55021 0.10973 0.0
N49 N 0.17066 0.53123 0.12862 0.0
C50 C 0.14679 0.58638 0.14569 0.0
C51 C 0.16342 0.60598 0.1266 0.0
C52 C 0.10007 0.45256 0.14327 0.0
C53 C 0.15769 0.33395 0.08773 0.0
C54 C 0.10745 0.35194 0.12408 0.0
C55 C 0.09675 0.33098 0.1036 0.0
C56 C 0.12208 0.32202 0.0853 0.0
N57 N 0.1424 0.3636 0.1263 0.0
C58 C 0.16743 0.3548 0.10849 0.0
Co59 Co 0.508 0.17603 0.63067 0.0
Co60 Co 0.5973 0.15757 0.6449 0.0
O61 O 0.55982 0.1816 0.62537 0.0
C62 C 0.5193 0.14884 0.57956 0.0
O63 O 0.54507 0.1286 0.58898 0.0
C64 C 0.61118 0.23563 0.65205 0.0
O65 O 0.5763 0.23994 0.65553 0.0
O66 O 0.57225 0.16893 0.67691 0.0
O67 O 0.51417 0.18123 0.66763 0.0
H68 H 0.64562 0.07451 0.7115 0.0
H69 H 0.53481 0.23052 0.59434 0.0
O70 O 0.50136 0.1703 0.59353 0.0
H71 H 0.46628 0.29983 0.65739 0.0
H72 H 0.37691 0.19656 0.60939 0.0
H73 H 0.46208 0.13661 0.66716 0.0
H74 H 0.47125 0.23339 0.66054 0.0
H75 H 0.44284 0.20352 0.60387 0.0
O76 O 0.6241 0.20435 0.6474 0.0
H77 H 0.59807 0.10419 0.68638 0.0
H78 H 0.67784 0.1615 0.64511 0.0
H79 H 0.3964 0.12914 0.67349 0.0
H80 H 0.53029 0.2969 0.59036 0.0
H81 H 0.35332 0.15925 0.64447 0.0
H82 H 0.49591 0.33201 0.62208 0.0
O83 O 0.51265 0.12258 0.63424 0.0
H84 H 0.64637 0.18623 0.55945 0.0
H85 H 0.63056 0.09102 0.62322 0.0
H86 H 0.66018 0.07604 0.58316 0.0
H87 H 0.66829 0.12387 0.55095 0.0
H88 H 0.61661 0.19992 0.59969 0.0
H89 H 0.72625 0.13269 0.66992 0.0
H90 H 0.71024 0.08873 0.70332 0.0
O91 O 0.57102 0.1105 0.64287 0.0
C92 C 0.54006 0.17734 0.68324 0.0
C93 C 0.65295 0.09351 0.69694 0.0
C94 C 0.6982 0.12621 0.67362 0.0
N95 N 0.6352 0.1343 0.66417 0.0
C96 C 0.62615 0.11031 0.6826 0.0
C97 C 0.67068 0.1425 0.65968 0.0
C98 C 0.6892 0.10154 0.69236 0.0
C99 C 0.51951 0.24558 0.60808 0.0
N100 N 0.50313 0.2281 0.62756 0.0
C101 C 0.51717 0.28317 0.60579 0.0
C102 C 0.49792 0.30286 0.62361 0.0
C103 C 0.4813 0.28483 0.64344 0.0
C104 C 0.48426 0.24722 0.64514 0.0
C105 C 0.39541 0.18337 0.62219 0.0
C106 C 0.4435 0.15 0.65456 0.0
C107 C 0.43275 0.18717 0.61913 0.0
N108 N 0.45624 0.17075 0.63531 0.0
C109 C 0.40634 0.14557 0.65819 0.0
C110 C 0.38219 0.16245 0.64188 0.0
C111 C 0.5384 0.10063 0.6391 0.0
C112 C 0.64305 0.16517 0.57335 0.0
C113 C 0.63385 0.11192 0.60925 0.0
C114 C 0.65074 0.10331 0.58664 0.0
C115 C 0.6553 0.13017 0.56858 0.0
N116 N 0.62192 0.14631 0.61379 0.0
C117 C 0.62632 0.17279 0.5962 0.0
Co118 Co 0.82484 0.51083 0.13267 0.0
Co119 Co 0.84636 0.59567 0.15556 0.0
O120 O 0.82103 0.56341 0.13276 0.0
C121 C 0.85021 0.53497 0.08319 0.0
O122 O 0.87044 0.5572 0.09626 0.0
C123 C 0.76907 0.6126 0.16244 0.0
O124 O 0.76327 0.57764 0.16425 0.0
O125 O 0.83223 0.56554 0.18476 0.0
O126 O 0.82058 0.50928 0.17048 0.0
H127 H 0.9289 0.6268 0.22721 0.0
H128 H 0.77069 0.54717 0.10019 0.0
O129 O 0.82972 0.51255 0.0947 0.0
H130 H 0.70016 0.46835 0.15648 0.0
H131 H 0.79933 0.38679 0.09795 0.0
H132 H 0.86248 0.45599 0.1638 0.0
H133 H 0.76679 0.47013 0.15915 0.0
H134 H 0.79487 0.45343 0.09948 0.0
O135 O 0.80106 0.62462 0.15931 0.0
H136 H 0.89773 0.5859 0.19769 0.0
H137 H 0.84684 0.67571 0.16269 0.0
H138 H 0.86747 0.38941 0.1631 0.0
H139 H 0.70413 0.54606 0.09676 0.0
H140 H 0.83575 0.35435 0.12999 0.0
H141 H 0.66841 0.50651 0.1251 0.0
O142 O 0.87843 0.51261 0.13608 0.0
H143 H 0.82443 0.66034 0.07417 0.0
H144 H 0.91543 0.62908 0.13817 0.0
H145 H 0.93391 0.66411 0.101 0.0
H146 H 0.88823 0.67993 0.06866 0.0
H147 H 0.80722 0.62509 0.11153 0.0
H148 H 0.87723 0.71757 0.19195 0.0
H149 H 0.91872 0.69314 0.22443 0.0
O150 O 0.89204 0.56727 0.15211 0.0
C151 C 0.82386 0.5324 0.1883 0.0
C152 C 0.911 0.63777 0.21308 0.0
C153 C 0.88196 0.68872 0.19331 0.0
N154 N 0.87078 0.62845 0.17836 0.0
C155 C 0.89337 0.61477 0.19627 0.0
C156 C 0.86477 0.66489 0.17683 0.0
C157 C 0.90524 0.675 0.21153 0.0
C158 C 0.75535 0.52962 0.11241 0.0
N159 N 0.7726 0.50856 0.12973 0.0
C160 C 0.71766 0.52922 0.11046 0.0
C161 C 0.69764 0.50706 0.12639 0.0
C162 C 0.71543 0.48566 0.14401 0.0
C163 C 0.75315 0.48681 0.14546 0.0
C164 C 0.81322 0.40175 0.1125 0.0
C165 C 0.8484 0.4409 0.14944 0.0
C166 C 0.81085 0.43947 0.11342 0.0
N167 N 0.82816 0.45849 0.13182 0.0
C168 C 0.85142 0.40321 0.14909 0.0
C169 C 0.83365 0.38357 0.13049 0.0
C170 C 0.90097 0.53579 0.14447 0.0
C171 C 0.84457 0.65366 0.08815 0.0
C172 C 0.89545 0.63577 0.12415 0.0
C173 C 0.90604 0.6557 0.10317 0.0
C174 C 0.88038 0.6646 0.08505 0.0
N175 N 0.86031 0.62504 0.12702 0.0
C176 C 0.83496 0.63383 0.10939 0.0
Co177 Co 0.48313 0.8233 0.62845 0.0
Co178 Co 0.40054 0.84529 0.65488 0.0
O179 O 0.43039 0.82 0.63035 0.0
C180 C 0.45751 0.84978 0.57977 0.0
O181 O 0.4346 0.8694 0.59271 0.0
C182 C 0.38053 0.76819 0.66168 0.0
O183 O 0.41488 0.75941 0.66021 0.0
O184 O 0.43272 0.82953 0.68269 0.0
O185 O 0.48719 0.81811 0.66559 0.0
H186 H 0.37824 0.92616 0.72892 0.0
H187 H 0.44404 0.77034 0.59661 0.0
O188 O 0.47965 0.82899 0.5911 0.0
H189 H 0.52563 0.69749 0.64955 0.0
H190 H 0.6046 0.79667 0.59009 0.0
H191 H 0.54025 0.86032 0.65793 0.0
H192 H 0.52484 0.76408 0.65305 0.0
H193 H 0.53813 0.79281 0.59356 0.0
O194 O 0.37061 0.80102 0.6596 0.0
H195 H 0.41547 0.89484 0.69731 0.0
H196 H 0.32122 0.84823 0.66511 0.0
H197 H 0.60675 0.8647 0.65529 0.0
H198 H 0.44414 0.70383 0.59237 0.0
H199 H 0.63935 0.83272 0.62117 0.0
H200 H 0.48509 0.66695 0.61901 0.0
O201 O 0.48224 0.87701 0.63221 0.0
H202 H 0.32855 0.82667 0.57608 0.0
H203 H 0.36698 0.9155 0.63968 0.0
H204 H 0.32917 0.93555 0.60423 0.0
H205 H 0.3097 0.89095 0.57211 0.0
H206 H 0.3667 0.80792 0.61171 0.0
H207 H 0.28299 0.87881 0.69649 0.0
H208 H 0.31149 0.91822 0.72864 0.0
O209 O 0.42939 0.89029 0.65078 0.0
C210 C 0.46603 0.82073 0.6844 0.0
C211 C 0.36549 0.90916 0.71496 0.0
C212 C 0.31204 0.88254 0.69678 0.0
N213 N 0.37051 0.86996 0.67928 0.0
C214 C 0.38642 0.89144 0.69697 0.0
C215 C 0.33383 0.86523 0.67909 0.0
C216 C 0.32805 0.90466 0.71481 0.0
C217 C 0.46217 0.75448 0.6081 0.0
N218 N 0.48454 0.77106 0.62495 0.0
C219 C 0.462 0.71683 0.60569 0.0
C220 C 0.48495 0.69615 0.62067 0.0
C221 C 0.50769 0.71327 0.63782 0.0
C222 C 0.50708 0.75097 0.63975 0.0
C223 C 0.5907 0.81066 0.60507 0.0
C224 C 0.55428 0.84613 0.64314 0.0
C225 C 0.55308 0.80862 0.6071 0.0
N226 N 0.5354 0.82607 0.62606 0.0
C227 C 0.59192 0.8488 0.64169 0.0
C228 C 0.61019 0.83088 0.62252 0.0
C229 C 0.45994 0.89943 0.64179 0.0
C230 C 0.33684 0.84636 0.58997 0.0
C231 C 0.3588 0.89601 0.62572 0.0
C232 C 0.33726 0.90748 0.60573 0.0
C233 C 0.32631 0.88243 0.58773 0.0
N234 N 0.36912 0.86061 0.62774 0.0
C235 C 0.35833 0.83587 0.61023 0.0
Co236 Co 0.17678 0.52331 0.37428 0.0
Co237 Co 0.14665 0.60839 0.35715 0.0
O238 O 0.17612 0.57593 0.3775 0.0
C239 C 0.1559 0.53693 0.42653 0.0
O240 O 0.13242 0.56002 0.41731 0.0
C241 C 0.22147 0.63509 0.35047 0.0
O242 O 0.2313 0.60142 0.34652 0.0
O243 O 0.16247 0.58392 0.32569 0.0
O244 O 0.17726 0.52712 0.33695 0.0
H245 H 0.05793 0.63976 0.28922 0.0
H246 H 0.23109 0.56003 0.4064 0.0
O247 O 0.17618 0.5189 0.4118 0.0
H248 H 0.30167 0.49558 0.34198 0.0
H249 H 0.21652 0.39772 0.39837 0.0
H250 H 0.14001 0.46991 0.3415 0.0
H251 H 0.23506 0.49154 0.34255 0.0
H252 H 0.21537 0.46437 0.40147 0.0
O253 O 0.18841 0.64266 0.35463 0.0
H254 H 0.09465 0.59876 0.3154 0.0
H255 H 0.13737 0.68856 0.35537 0.0
H256 H 0.14057 0.40338 0.3376 0.0
H257 H 0.29768 0.56461 0.40661 0.0
H258 H 0.17903 0.36682 0.36618 0.0
H259 H 0.33342 0.53232 0.37419 0.0
O260 O 0.12291 0.52084 0.3737 0.0
H261 H 0.16574 0.66363 0.44215 0.0
H262 H 0.07541 0.63212 0.37775 0.0
H263 H 0.05526 0.65982 0.41738 0.0
H264 H 0.10061 0.67574 0.44993 0.0
H265 H 0.18463 0.63559 0.40234 0.0
H266 H 0.10135 0.73055 0.32949 0.0
H267 H 0.06117 0.70617 0.29621 0.0
O268 O 0.10421 0.57502 0.35953 0.0
C269 C 0.17227 0.55164 0.32044 0.0
C270 C 0.07525 0.6507 0.30372 0.0
C271 C 0.09966 0.70166 0.3263 0.0
N272 N 0.11789 0.64124 0.337 0.0
C273 C 0.09601 0.62762 0.31864 0.0
C274 C 0.12006 0.67776 0.34085 0.0
C275 C 0.07711 0.68796 0.30763 0.0
C276 C 0.24648 0.5456 0.39238 0.0
N277 N 0.22923 0.52538 0.37458 0.0
C278 C 0.28417 0.54843 0.39253 0.0
C279 C 0.3042 0.53035 0.37431 0.0
C280 C 0.2864 0.50974 0.35622 0.0
C281 C 0.24867 0.5076 0.35662 0.0
C282 C 0.1997 0.41336 0.38578 0.0
C283 C 0.15699 0.4542 0.3539 0.0
C284 C 0.19888 0.45108 0.38749 0.0
N285 N 0.17785 0.47099 0.37156 0.0
C286 C 0.15711 0.41653 0.35165 0.0
C287 C 0.17867 0.39604 0.36771 0.0
C288 C 0.09812 0.54258 0.3666 0.0
C289 C 0.14573 0.65686 0.4281 0.0
C290 C 0.09525 0.63883 0.39185 0.0
C291 C 0.08371 0.65463 0.41422 0.0
C292 C 0.10917 0.66359 0.43247 0.0
N293 N 0.13113 0.63217 0.38773 0.0
C294 C 0.15627 0.6411 0.40547 0.0
Co295 Co 0.49535 0.17873 0.87603 0.0
Co296 Co 0.40589 0.16182 0.86117 0.0
O297 O 0.44351 0.18622 0.88031 0.0
C298 C 0.47951 0.15804 0.92773 0.0
O299 O 0.45339 0.13857 0.91795 0.0
C300 C 0.39227 0.23989 0.85294 0.0
O301 O 0.42716 0.24425 0.84946 0.0
O302 O 0.43152 0.172 0.82924 0.0
O303 O 0.49019 0.18112 0.83879 0.0
H304 H 0.35742 0.07716 0.79557 0.0
H305 H 0.46893 0.23696 0.90969 0.0
O306 O 0.50054 0.17603 0.91346 0.0
H307 H 0.54132 0.2989 0.84505 0.0
H308 H 0.62626 0.19739 0.89861 0.0
H309 H 0.54124 0.13557 0.84163 0.0
H310 H 0.53459 0.23246 0.84451 0.0
H311 H 0.56039 0.20645 0.90285 0.0
O312 O 0.37942 0.20868 0.85787 0.0
H313 H 0.405 0.10729 0.82044 0.0
H314 H 0.32535 0.16626 0.86066 0.0
H315 H 0.60688 0.12595 0.83658 0.0
H316 H 0.47517 0.30342 0.91104 0.0
H317 H 0.64988 0.15699 0.86521 0.0
H318 H 0.5115 0.33483 0.87851 0.0
O319 O 0.4895 0.12512 0.87454 0.0
H320 H 0.3579 0.19365 0.94638 0.0
H321 H 0.37126 0.09651 0.88374 0.0
H322 H 0.34218 0.08301 0.92423 0.0
H323 H 0.33543 0.1318 0.95591 0.0
H324 H 0.38707 0.20584 0.90571 0.0
H325 H 0.27691 0.13703 0.83609 0.0
H326 H 0.29284 0.092 0.80334 0.0
O327 O 0.43153 0.11444 0.86408 0.0
C328 C 0.46426 0.1784 0.82305 0.0
C329 C 0.35013 0.09663 0.80985 0.0
C330 C 0.30494 0.13027 0.83256 0.0
N331 N 0.36793 0.13825 0.84211 0.0
C332 C 0.37694 0.11369 0.82403 0.0
C333 C 0.33248 0.1468 0.84637 0.0
C334 C 0.3139 0.10501 0.8142 0.0
C335 C 0.48508 0.2504 0.89561 0.0
N336 N 0.50156 0.23084 0.87714 0.0
C337 C 0.48839 0.28805 0.89641 0.0
C338 C 0.50873 0.30566 0.87813 0.0
C339 C 0.52545 0.28552 0.85935 0.0
C340 C 0.5215 0.24792 0.85911 0.0
C341 C 0.6078 0.18377 0.88599 0.0
C342 C 0.55981 0.14935 0.85405 0.0
C343 C 0.57049 0.18874 0.88834 0.0
N344 N 0.54706 0.17177 0.87238 0.0
C345 C 0.59693 0.14371 0.85115 0.0
C346 C 0.62104 0.16111 0.86724 0.0
C347 C 0.46348 0.10372 0.86924 0.0
C348 C 0.36065 0.17217 0.93272 0.0
C349 C 0.36848 0.11782 0.89744 0.0
C350 C 0.35191 0.11006 0.92031 0.0
C351 C 0.34809 0.13745 0.93807 0.0
N352 N 0.38088 0.1519 0.89237 0.0
C353 C 0.37702 0.17895 0.90962 0.0
Co354 Co 0.82724 0.4672 0.38005 0.0
Co355 Co 0.85309 0.38229 0.35942 0.0
O356 O 0.8261 0.41448 0.38141 0.0
C357 C 0.85336 0.44795 0.43044 0.0
O358 O 0.87436 0.42527 0.41838 0.0
C359 C 0.77659 0.36094 0.3528 0.0
O360 O 0.76906 0.3955 0.35046 0.0
O361 O 0.83768 0.41009 0.32933 0.0
O362 O 0.82312 0.46626 0.34231 0.0
H363 H 0.93754 0.35168 0.28884 0.0
H364 H 0.77481 0.43017 0.4134 0.0
O365 O 0.83196 0.46836 0.41799 0.0
H366 H 0.70072 0.50157 0.35457 0.0
H367 H 0.79519 0.59189 0.4108 0.0
H368 H 0.8624 0.52186 0.34745 0.0
H369 H 0.76737 0.50322 0.35221 0.0
H370 H 0.79408 0.52508 0.41131 0.0
O371 O 0.80917 0.35074 0.35622 0.0
H372 H 0.90415 0.39245 0.31721 0.0
H373 H 0.85768 0.30206 0.35435 0.0
H374 H 0.86405 0.58859 0.34611 0.0
H375 H 0.70825 0.4279 0.41653 0.0
H376 H 0.83027 0.62406 0.37796 0.0
H377 H 0.67074 0.46369 0.38691 0.0
O378 O 0.88089 0.46787 0.37691 0.0
H379 H 0.83393 0.32071 0.44225 0.0
H380 H 0.92371 0.35372 0.37793 0.0
H381 H 0.9437 0.32164 0.416 0.0
H382 H 0.89864 0.30495 0.4485 0.0
H383 H 0.81519 0.35307 0.40398 0.0
H384 H 0.89035 0.2603 0.32628 0.0
H385 H 0.93073 0.28509 0.2933 0.0
O386 O 0.89743 0.4132 0.36229 0.0
C387 C 0.8277 0.44259 0.32502 0.0
C388 C 0.92013 0.34055 0.3032 0.0
C389 C 0.8936 0.28926 0.32419 0.0
N390 N 0.87927 0.34963 0.33754 0.0
C391 C 0.90125 0.3635 0.31936 0.0
C392 C 0.87512 0.31303 0.33999 0.0
C393 C 0.91626 0.30319 0.30569 0.0
C394 C 0.75867 0.44611 0.40062 0.0
N395 N 0.77493 0.46698 0.38276 0.0
C396 C 0.72099 0.4446 0.40241 0.0
C397 C 0.69997 0.46464 0.38576 0.0
C398 C 0.71677 0.48589 0.3676 0.0
C399 C 0.75451 0.48668 0.36634 0.0
C400 C 0.80997 0.57674 0.3968 0.0
C401 C 0.84744 0.53711 0.36127 0.0
C402 C 0.80949 0.53893 0.39703 0.0
N403 N 0.82794 0.51965 0.37932 0.0
C404 C 0.84857 0.57489 0.36046 0.0
C405 C 0.82964 0.59477 0.37836 0.0
C406 C 0.90471 0.44548 0.36923 0.0
C407 C 0.85381 0.32777 0.4282 0.0
C408 C 0.90398 0.34662 0.392 0.0
C409 C 0.91543 0.32837 0.4135 0.0
C410 C 0.89013 0.31898 0.43171 0.0
N411 N 0.86833 0.35523 0.38872 0.0
C412 C 0.84334 0.34597 0.40644 0.0
Co413 Co 0.50454 0.82485 0.88487 0.0
Co414 Co 0.58797 0.84002 0.8576 0.0
O415 O 0.55677 0.81784 0.88264 0.0
C416 C 0.53331 0.85046 0.93287 0.0
O417 O 0.55639 0.86899 0.91931 0.0
C418 C 0.60178 0.76126 0.85237 0.0
O419 O 0.5667 0.75573 0.85304 0.0
O420 O 0.55438 0.8256 0.83027 0.0
O421 O 0.49934 0.81928 0.84778 0.0
H422 H 0.61541 0.91611 0.78199 0.0
H423 H 0.54039 0.76978 0.91684 0.0
O424 O 0.50946 0.83089 0.92214 0.0
H425 H 0.45258 0.70206 0.86536 0.0
H426 H 0.38236 0.80784 0.92472 0.0
H427 H 0.44956 0.86514 0.85551 0.0
H428 H 0.45815 0.76834 0.86124 0.0
H429 H 0.44831 0.7992 0.92065 0.0
O430 O 0.61447 0.79326 0.8538 0.0
H431 H 0.5763 0.88897 0.81437 0.0
H432 H 0.66709 0.83643 0.8469 0.0
H433 H 0.38362 0.8743 0.85877 0.0
H434 H 0.53553 0.70355 0.9217 0.0
H435 H 0.34958 0.84552 0.89358 0.0
H436 H 0.49143 0.66924 0.89579 0.0
O437 O 0.50926 0.87823 0.88047 0.0
H438 H 0.65946 0.81961 0.93641 0.0
H439 H 0.62658 0.90824 0.87125 0.0
H440 H 0.66622 0.92703 0.90608 0.0
H441 H 0.68291 0.88253 0.93899 0.0
H442 H 0.6196 0.80212 0.90137 0.0
H443 H 0.70715 0.86276 0.81477 0.0
H444 H 0.68134 0.90303 0.78207 0.0
O445 O 0.56237 0.88735 0.86098 0.0
C446 C 0.52042 0.8196 0.82883 0.0
C447 C 0.627 0.89871 0.7962 0.0
C448 C 0.67848 0.86872 0.81457 0.0
N449 N 0.61946 0.8614 0.83261 0.0
C450 C 0.60501 0.88336 0.81462 0.0
C451 C 0.65566 0.85383 0.83268 0.0
C452 C 0.66398 0.89132 0.79623 0.0
C453 C 0.5209 0.75508 0.90567 0.0
N454 N 0.49943 0.77292 0.88888 0.0
C455 C 0.51837 0.71756 0.90843 0.0
C456 C 0.49366 0.69832 0.89386 0.0
C457 C 0.47187 0.71672 0.87678 0.0
C458 C 0.47518 0.75424 0.87449 0.0
C459 C 0.39688 0.82046 0.90945 0.0
C460 C 0.43489 0.85234 0.87061 0.0
C461 C 0.43422 0.81571 0.90707 0.0
N462 N 0.45267 0.83141 0.88774 0.0
C463 C 0.39757 0.85771 0.87241 0.0
C464 C 0.3785 0.84159 0.89196 0.0
C465 C 0.5327 0.89881 0.87023 0.0
C466 C 0.65241 0.83924 0.92217 0.0
C467 C 0.63357 0.88881 0.88555 0.0
C468 C 0.65614 0.89955 0.90519 0.0
C469 C 0.66552 0.87456 0.92363 0.0
N470 N 0.62073 0.85416 0.88429 0.0
C471 C 0.62996 0.82946 0.90224 0.0
Co472 Co 0.82078 0.51599 0.87996 0.0
Co473 Co 0.8448 0.60339 0.86342 0.0
O474 O 0.81658 0.56861 0.8828 0.0
C475 C 0.83854 0.53189 0.93284 0.0
O476 O 0.85977 0.55716 0.92376 0.0
C477 C 0.76842 0.62417 0.85331 0.0
O478 O 0.75994 0.58978 0.8512 0.0
O479 O 0.83423 0.57691 0.83168 0.0
O480 O 0.82151 0.51933 0.84229 0.0
H481 H 0.9363 0.64117 0.79899 0.0
H482 H 0.76224 0.54783 0.91086 0.0
O483 O 0.82035 0.512 0.91782 0.0
H484 H 0.70017 0.47691 0.8454 0.0
H485 H 0.79137 0.38767 0.90425 0.0
H486 H 0.86309 0.46566 0.84813 0.0
H487 H 0.76684 0.47902 0.84721 0.0
H488 H 0.78661 0.4542 0.90691 0.0
O489 O 0.80076 0.63367 0.8582 0.0
H490 H 0.90112 0.59762 0.82417 0.0
H491 H 0.84724 0.6841 0.86097 0.0
H492 H 0.86849 0.39929 0.84469 0.0
H493 H 0.69551 0.54626 0.90985 0.0
H494 H 0.83245 0.35982 0.8729 0.0
H495 H 0.66406 0.51068 0.8769 0.0
O496 O 0.87471 0.51817 0.88048 0.0
H497 H 0.8124 0.65805 0.94659 0.0
H498 H 0.91119 0.63493 0.88671 0.0
H499 H 0.92473 0.66529 0.92678 0.0
H500 H 0.8751 0.677 0.95706 0.0
H501 H 0.80018 0.62742 0.9064 0.0
H502 H 0.88159 0.72857 0.83604 0.0
H503 H 0.92661 0.70717 0.80486 0.0
O504 O 0.88971 0.57451 0.86835 0.0
C505 C 0.82652 0.54421 0.82597 0.0
C506 C 0.91685 0.65083 0.81257 0.0
C507 C 0.8861 0.69989 0.83334 0.0
N508 N 0.87236 0.63831 0.84413 0.0
C509 C 0.89693 0.62631 0.82693 0.0
C510 C 0.86666 0.67458 0.84735 0.0
C511 C 0.91137 0.68786 0.81586 0.0
C512 C 0.74873 0.53201 0.89661 0.0
N513 N 0.76839 0.51338 0.87921 0.0
C514 C 0.71095 0.53134 0.89607 0.0
C515 C 0.69332 0.51141 0.87756 0.0
C516 C 0.71357 0.49248 0.85987 0.0
C517 C 0.75131 0.49383 0.86096 0.0
C518 C 0.80717 0.40458 0.89184 0.0
C519 C 0.84718 0.44866 0.86037 0.0
C520 C 0.80465 0.44225 0.8933 0.0
N521 N 0.82439 0.46375 0.87758 0.0
C522 C 0.85042 0.4111 0.85838 0.0
C523 C 0.83022 0.38897 0.87423 0.0
C524 C 0.89796 0.54249 0.87509 0.0
C525 C 0.83426 0.65309 0.93355 0.0
C526 C 0.88953 0.63973 0.89985 0.0
C527 C 0.89732 0.65707 0.92247 0.0
C528 C 0.86945 0.66368 0.93943 0.0
N529 N 0.85499 0.62925 0.89427 0.0
C530 C 0.82749 0.63587 0.91074 0.0
Co531 Co 0.49668 0.82042 0.37989 0.0
Co532 Co 0.41054 0.84742 0.36293 0.0
O533 O 0.4442 0.81939 0.38312 0.0
C534 C 0.48089 0.84396 0.4311 0.0
O535 O 0.4578 0.86623 0.42058 0.0
C536 C 0.38948 0.77129 0.35484 0.0
O537 O 0.42401 0.76448 0.35161 0.0
O538 O 0.43618 0.83356 0.33165 0.0
O539 O 0.49297 0.81777 0.3425 0.0
H540 H 0.3749 0.93564 0.29571 0.0
H541 H 0.46185 0.76666 0.41345 0.0
O542 O 0.50044 0.82346 0.41745 0.0
H543 H 0.52886 0.69481 0.35098 0.0
H544 H 0.62322 0.78645 0.40559 0.0
H545 H 0.54908 0.85682 0.34619 0.0
H546 H 0.53045 0.76156 0.34977 0.0
H547 H 0.55657 0.78572 0.40845 0.0
O548 O 0.37898 0.80347 0.35956 0.0
H549 H 0.41765 0.90081 0.32179 0.0
H550 H 0.33012 0.85191 0.36061 0.0
H551 H 0.6156 0.85809 0.34249 0.0
H552 H 0.45973 0.69998 0.41545 0.0
H553 H 0.65313 0.82272 0.37235 0.0
H554 H 0.49332 0.6636 0.38401 0.0
O555 O 0.4974 0.87421 0.37772 0.0
H556 H 0.35538 0.82377 0.44731 0.0
H557 H 0.38337 0.91699 0.38416 0.0
H558 H 0.35447 0.93494 0.42388 0.0
H559 H 0.34037 0.88814 0.45582 0.0
H560 H 0.38451 0.80708 0.4074 0.0
H561 H 0.28638 0.88597 0.33482 0.0
H562 H 0.30874 0.92831 0.30217 0.0
O563 O 0.44163 0.89169 0.36588 0.0
C564 C 0.46818 0.82322 0.32621 0.0
C565 C 0.36483 0.91738 0.30994 0.0
C566 C 0.31515 0.88946 0.33187 0.0
N567 N 0.37637 0.87464 0.34283 0.0
C568 C 0.3889 0.89769 0.32481 0.0
C569 C 0.34002 0.87021 0.34637 0.0
C570 C 0.32771 0.91322 0.31356 0.0
C571 C 0.47684 0.75102 0.39986 0.0
N572 N 0.49644 0.76797 0.38162 0.0
C573 C 0.47541 0.71327 0.40102 0.0
C574 C 0.49422 0.69287 0.38335 0.0
C575 C 0.51415 0.71037 0.3648 0.0
C576 C 0.51491 0.74816 0.36419 0.0
C577 C 0.60716 0.80192 0.39244 0.0
C578 C 0.56523 0.84117 0.35913 0.0
C579 C 0.56943 0.80167 0.39401 0.0
N580 N 0.549 0.82097 0.37737 0.0
C581 C 0.60288 0.84209 0.357 0.0
C582 C 0.62393 0.82227 0.37378 0.0
C583 C 0.47452 0.8985 0.37158 0.0
C584 C 0.36132 0.84439 0.43352 0.0
C585 C 0.37732 0.8965 0.39796 0.0
C586 C 0.36088 0.9068 0.4204 0.0
C587 C 0.35295 0.88052 0.4383 0.0
N588 N 0.38557 0.86103 0.39345 0.0
C589 C 0.37766 0.83509 0.41085 0.0
Co590 Co 0.17576 0.48845 0.88054 0.0
Co591 Co 0.1528 0.40494 0.85622 0.0
O592 O 0.17922 0.43568 0.87975 0.0
C593 C 0.15628 0.46647 0.93184 0.0
O594 O 0.1342 0.44303 0.92143 0.0
C595 C 0.22917 0.38138 0.85016 0.0
O596 O 0.2392 0.41543 0.84883 0.0
O597 O 0.16954 0.43469 0.82726 0.0
O598 O 0.17616 0.49066 0.84315 0.0
H599 H 0.07097 0.37992 0.78306 0.0
H600 H 0.23315 0.45147 0.9097 0.0
O601 O 0.17537 0.48723 0.91812 0.0
H602 H 0.29769 0.5313 0.85071 0.0
H603 H 0.20583 0.61246 0.91372 0.0
H604 H 0.13403 0.54339 0.85219 0.0
H605 H 0.23098 0.52965 0.85141 0.0
H606 H 0.21019 0.54587 0.91177 0.0
O607 O 0.19598 0.37314 0.85279 0.0
H608 H 0.10367 0.41837 0.81334 0.0
H609 H 0.14719 0.32505 0.8487 0.0
H610 H 0.12903 0.60997 0.85336 0.0
H611 H 0.2999 0.45248 0.90977 0.0
H612 H 0.16511 0.64495 0.88429 0.0
H613 H 0.3326 0.49255 0.88007 0.0
O614 O 0.12184 0.48651 0.88022 0.0
H615 H 0.16925 0.33823 0.93742 0.0
H616 H 0.08163 0.37453 0.87248 0.0
H617 H 0.06049 0.33992 0.90913 0.0
H618 H 0.10447 0.32153 0.94194 0.0
H619 H 0.1891 0.37321 0.90058 0.0
H620 H 0.1152 0.28559 0.81869 0.0
H621 H 0.07664 0.31302 0.78563 0.0
O622 O 0.10859 0.4354 0.85936 0.0
C623 C 0.1754 0.46857 0.82476 0.0
C624 C 0.0876 0.36764 0.79742 0.0
C625 C 0.11247 0.3147 0.8174 0.0
N626 N 0.12712 0.37396 0.83286 0.0
C627 C 0.10611 0.38927 0.81466 0.0
C628 C 0.1306 0.33718 0.83429 0.0
C629 C 0.09083 0.33011 0.79886 0.0
C630 C 0.24719 0.46922 0.89689 0.0
N631 N 0.2282 0.49061 0.88067 0.0
C632 C 0.28499 0.46957 0.89694 0.0
C633 C 0.30332 0.49202 0.88024 0.0
C634 C 0.28375 0.51375 0.86375 0.0
C635 C 0.24598 0.51264 0.8642 0.0
C636 C 0.19002 0.59753 0.90012 0.0
C637 C 0.14998 0.55846 0.8656 0.0
C638 C 0.19233 0.55982 0.89896 0.0
N639 N 0.17259 0.54082 0.88175 0.0
C640 C 0.14696 0.59613 0.86622 0.0
C641 C 0.16718 0.61574 0.8836 0.0
C642 C 0.09935 0.4649 0.86993 0.0
C643 C 0.14982 0.34608 0.92325 0.0
C644 C 0.10086 0.36686 0.88674 0.0
C645 C 0.08878 0.34711 0.9074 0.0
C646 C 0.11347 0.33675 0.92579 0.0
N647 N 0.13652 0.37603 0.88441 0.0
C648 C 0.16092 0.36578 0.9023 0.0
Co649 Co 0.49128 0.19038 0.38197 0.0
Co650 Co 0.57459 0.16182 0.36007 0.0
O651 O 0.54405 0.19011 0.38253 0.0
C652 C 0.4783 0.16547 0.43385 0.0
O653 O 0.46025 0.13798 0.42453 0.0
C654 C 0.5989 0.23738 0.3524 0.0
O655 O 0.56472 0.24654 0.35023 0.0
O656 O 0.54615 0.17785 0.33034 0.0
O657 O 0.4905 0.19139 0.34465 0.0
H658 H 0.59947 0.07545 0.28947 0.0
H659 H 0.53084 0.24477 0.41243 0.0
O660 O 0.49219 0.18932 0.41953 0.0
H661 H 0.45845 0.31545 0.35219 0.0
H662 H 0.36848 0.2292 0.41271 0.0
H663 H 0.43464 0.15238 0.35268 0.0
H664 H 0.45538 0.24875 0.35245 0.0
H665 H 0.43525 0.22891 0.41203 0.0
O666 O 0.60756 0.20444 0.35611 0.0
H667 H 0.56105 0.11056 0.31839 0.0
H668 H 0.65441 0.15445 0.35355 0.0
H669 H 0.36789 0.15194 0.35261 0.0
H670 H 0.53451 0.31143 0.41294 0.0
H671 H 0.33437 0.19057 0.3828 0.0
H672 H 0.49821 0.34722 0.38261 0.0
O673 O 0.48992 0.13653 0.38076 0.0
H674 H 0.64087 0.18 0.44132 0.0
H675 H 0.60197 0.09051 0.37829 0.0
H676 H 0.63597 0.07006 0.41543 0.0
H677 H 0.65576 0.11499 0.44724 0.0
H678 H 0.60647 0.1992 0.40401 0.0
H679 H 0.69385 0.12005 0.32488 0.0
H680 H 0.66638 0.08009 0.29262 0.0
O681 O 0.54256 0.11855 0.36384 0.0
C682 C 0.51321 0.18707 0.32691 0.0
C683 C 0.61176 0.09267 0.3035 0.0
C684 C 0.66473 0.11775 0.32335 0.0
N685 N 0.60548 0.13428 0.33775 0.0
C686 C 0.59015 0.11253 0.31997 0.0
C687 C 0.64227 0.13722 0.33949 0.0
C688 C 0.6493 0.09532 0.30526 0.0
C689 C 0.51467 0.26016 0.39935 0.0
N690 N 0.49272 0.24288 0.38256 0.0
C691 C 0.51698 0.2979 0.39965 0.0
C692 C 0.49665 0.31796 0.38261 0.0
C693 C 0.47435 0.30015 0.36552 0.0
C694 C 0.47277 0.26237 0.36573 0.0
C695 C 0.38278 0.21232 0.39943 0.0
C696 C 0.42023 0.1694 0.36577 0.0
C697 C 0.42056 0.21204 0.39897 0.0
N698 N 0.43878 0.19085 0.3822 0.0
C699 C 0.38244 0.16898 0.36569 0.0
C700 C 0.36366 0.19063 0.38264 0.0
C701 C 0.5111 0.11202 0.37255 0.0
C702 C 0.63243 0.16017 0.42758 0.0
C703 C 0.61025 0.11017 0.39213 0.0
C704 C 0.62962 0.09846 0.41307 0.0
C705 C 0.64075 0.12369 0.4309 0.0
N706 N 0.60224 0.146 0.38897 0.0
C707 C 0.61302 0.17089 0.40639 0.0
Co708 Co 0.82573 0.48811 0.63217 0.0
Co709 Co 0.84968 0.40187 0.65086 0.0
O710 O 0.82236 0.43543 0.63004 0.0
C711 C 0.84557 0.47021 0.5801 0.0
O712 O 0.868 0.44697 0.59033 0.0
C713 C 0.77354 0.37775 0.65704 0.0
O714 O 0.76353 0.41155 0.66021 0.0
O715 O 0.83453 0.42812 0.68168 0.0
O716 O 0.82549 0.48604 0.67 0.0
H717 H 0.93471 0.36779 0.72041 0.0
H718 H 0.76841 0.45425 0.60104 0.0
O719 O 0.82622 0.49038 0.59421 0.0
H720 H 0.70373 0.52672 0.66433 0.0
H721 H 0.79522 0.61497 0.60513 0.0
H722 H 0.86655 0.54023 0.66362 0.0
H723 H 0.77046 0.52542 0.66351 0.0
H724 H 0.79146 0.54829 0.60363 0.0
O725 O 0.8066 0.36989 0.65343 0.0
H726 H 0.90083 0.40988 0.69326 0.0
H727 H 0.85526 0.32131 0.65348 0.0
H728 H 0.87091 0.60679 0.66591 0.0
H729 H 0.70167 0.455 0.60107 0.0
H730 H 0.83507 0.64463 0.63651 0.0
H731 H 0.66889 0.49136 0.63293 0.0
O732 O 0.87968 0.48677 0.63248 0.0
H733 H 0.82887 0.34656 0.56609 0.0
H734 H 0.91962 0.37264 0.63132 0.0
H735 H 0.93877 0.34318 0.59208 0.0
H736 H 0.89319 0.33 0.55909 0.0
H737 H 0.81104 0.37634 0.60553 0.0
H738 H 0.88838 0.27826 0.68032 0.0
H739 H 0.92857 0.30145 0.71401 0.0
O740 O 0.89377 0.43242 0.64853 0.0
C741 C 0.82786 0.46127 0.68675 0.0
C742 C 0.91736 0.35735 0.70574 0.0
C743 C 0.89132 0.3071 0.68327 0.0
N744 N 0.87628 0.36807 0.6717 0.0
C745 C 0.89819 0.38105 0.69028 0.0
C746 C 0.87255 0.33161 0.66818 0.0
C747 C 0.91388 0.32013 0.70217 0.0
C748 C 0.75434 0.47041 0.61481 0.0
N749 N 0.7733 0.48993 0.63215 0.0
C750 C 0.71655 0.47061 0.6148 0.0
C751 C 0.69818 0.49097 0.6327 0.0
C752 C 0.71771 0.5108 0.65034 0.0
C753 C 0.75548 0.5099 0.64981 0.0
C754 C 0.81091 0.59878 0.61807 0.0
C755 C 0.85069 0.55653 0.65088 0.0
C756 C 0.80895 0.56103 0.61727 0.0
N757 N 0.82855 0.54045 0.63365 0.0
C758 C 0.85336 0.5942 0.65221 0.0
C759 C 0.83327 0.61541 0.63569 0.0
C760 C 0.90253 0.46368 0.64054 0.0
C761 C 0.84898 0.35216 0.58032 0.0
C762 C 0.89973 0.36724 0.61701 0.0
C763 C 0.91067 0.35038 0.59487 0.0
C764 C 0.88508 0.34293 0.57639 0.0
N765 N 0.86433 0.37645 0.62068 0.0
C766 C 0.83903 0.36892 0.60273 0.0
Co767 Co 0.51543 0.81314 0.13377 0.0
Co768 Co 0.59903 0.84913 0.14891 0.0
O769 O 0.56768 0.8172 0.12964 0.0
C770 C 0.52657 0.83693 0.08207 0.0
O771 O 0.5484 0.86109 0.09188 0.0
C772 C 0.62831 0.77606 0.1574 0.0
O773 O 0.5949 0.76546 0.16136 0.0
O774 O 0.57601 0.83371 0.18083 0.0
O775 O 0.52072 0.81211 0.17108 0.0
H776 H 0.62765 0.94261 0.21436 0.0
H777 H 0.5541 0.76218 0.10019 0.0
O778 O 0.50983 0.81481 0.09629 0.0
H779 H 0.49724 0.68585 0.16491 0.0
H780 H 0.39201 0.76582 0.11101 0.0
H781 H 0.46088 0.84552 0.16779 0.0
H782 H 0.48891 0.75212 0.16529 0.0
H783 H 0.45829 0.77156 0.10692 0.0
O784 O 0.635 0.80904 0.15221 0.0
H785 H 0.58786 0.90269 0.18954 0.0
H786 H 0.67863 0.86213 0.14969 0.0
H787 H 0.39472 0.84034 0.17271 0.0
H788 H 0.56293 0.69601 0.09901 0.0
H789 H 0.35983 0.80025 0.14417 0.0
H790 H 0.53449 0.65739 0.13158 0.0
O791 O 0.50946 0.86663 0.13526 0.0
H792 H 0.65335 0.82875 0.06384 0.0
H793 H 0.61841 0.92048 0.12639 0.0
H794 H 0.64399 0.9401 0.08596 0.0
H795 H 0.66158 0.89405 0.05433 0.0
H796 H 0.62739 0.81036 0.10444 0.0
H797 H 0.71944 0.90139 0.17422 0.0
H798 H 0.69395 0.94211 0.20676 0.0
O799 O 0.56363 0.88968 0.146 0.0
C800 C 0.54528 0.8206 0.18691 0.0
C801 C 0.63906 0.92508 0.20018 0.0
C802 C 0.69059 0.9019 0.17768 0.0
N803 N 0.63089 0.88036 0.16805 0.0
C804 C 0.61666 0.90251 0.18602 0.0
C805 C 0.66737 0.87969 0.16388 0.0
C806 C 0.67627 0.92475 0.19592 0.0
C807 C 0.54132 0.74551 0.11427 0.0
N808 N 0.52083 0.76095 0.13269 0.0
C809 C 0.54655 0.70808 0.11357 0.0
C810 C 0.53062 0.68643 0.13188 0.0
C811 C 0.50974 0.70239 0.15059 0.0
C812 C 0.50516 0.73992 0.15073 0.0
C813 C 0.40692 0.7833 0.12359 0.0
C814 C 0.44592 0.82781 0.15544 0.0
C815 C 0.44442 0.78671 0.12134 0.0
N816 N 0.46343 0.80858 0.13727 0.0
C817 C 0.40845 0.82509 0.15825 0.0
C818 C 0.38889 0.80262 0.14221 0.0
C819 C 0.53013 0.89313 0.14075 0.0
C820 C 0.64585 0.84907 0.07749 0.0
C821 C 0.62595 0.90031 0.11272 0.0
C822 C 0.64051 0.91156 0.08988 0.0
C823 C 0.65041 0.88571 0.07215 0.0
N824 N 0.62142 0.86433 0.11778 0.0
C825 C 0.63128 0.83882 0.10055 0.0
Co826 Co 0.17863 0.51088 0.62363 0.0
Co827 Co 0.16287 0.59332 0.65231 0.0
O828 O 0.18588 0.56294 0.62714 0.0
C829 C 0.15346 0.5425 0.57627 0.0
O830 O 0.13608 0.56567 0.59045 0.0
C831 C 0.24154 0.60403 0.65976 0.0
O832 O 0.24597 0.56892 0.65747 0.0
O833 O 0.17434 0.55782 0.67911 0.0
O834 O 0.1839 0.5038 0.66073 0.0
H835 H 0.08256 0.61887 0.72609 0.0
H836 H 0.23394 0.54794 0.59261 0.0
O837 O 0.17255 0.51767 0.58639 0.0
H838 H 0.301 0.45747 0.64219 0.0
H839 H 0.19486 0.39068 0.58073 0.0
H840 H 0.13821 0.45457 0.65168 0.0
H841 H 0.23475 0.46312 0.64629 0.0
H842 H 0.20389 0.45636 0.58647 0.0
O843 O 0.21007 0.61795 0.65842 0.0
H844 H 0.11063 0.58077 0.69349 0.0
H845 H 0.1682 0.67162 0.66542 0.0
H846 H 0.12865 0.38886 0.64676 0.0
H847 H 0.30014 0.54306 0.58781 0.0
H848 H 0.1571 0.35648 0.61106 0.0
H849 H 0.33412 0.49762 0.61277 0.0
O850 O 0.12543 0.5157 0.62802 0.0
H851 H 0.19075 0.66902 0.57656 0.0
H852 H 0.09673 0.63436 0.63748 0.0
H853 H 0.0815 0.67664 0.60332 0.0
H854 H 0.12871 0.69423 0.57255 0.0
H855 H 0.20469 0.62655 0.61087 0.0
H856 H 0.14098 0.71066 0.69781 0.0
H857 H 0.09772 0.68432 0.72838 0.0
O858 O 0.1152 0.5694 0.64661 0.0
C859 C 0.18131 0.524 0.6801 0.0
C860 C 0.10126 0.6307 0.71281 0.0
C861 C 0.13409 0.6822 0.69697 0.0
N862 N 0.14076 0.62403 0.67745 0.0
C863 C 0.11714 0.60929 0.69428 0.0
C864 C 0.14947 0.65995 0.6787 0.0
C865 C 0.10982 0.6674 0.71411 0.0
C866 C 0.2485 0.52787 0.60335 0.0
N867 N 0.2305 0.50569 0.61959 0.0
C868 C 0.286 0.52533 0.60063 0.0
C869 C 0.30506 0.49987 0.61467 0.0
C870 C 0.28649 0.47734 0.6312 0.0
C871 C 0.24899 0.4807 0.63346 0.0
C872 C 0.18238 0.40447 0.59638 0.0
C873 C 0.15085 0.44062 0.63619 0.0
C874 C 0.18734 0.44166 0.5997 0.0
N875 N 0.1718 0.45919 0.61949 0.0
C876 C 0.14526 0.40343 0.63346 0.0
C877 C 0.1612 0.38529 0.61341 0.0
C878 C 0.10438 0.5395 0.63735 0.0
C879 C 0.16996 0.66161 0.58987 0.0
C880 C 0.11737 0.6418 0.62412 0.0
C881 C 0.10862 0.66583 0.60486 0.0
C882 C 0.13513 0.6757 0.58762 0.0
N883 N 0.15156 0.62803 0.62618 0.0
C884 C 0.17773 0.63769 0.6094 0.0
Co885 Co 0.48847 0.18114 0.12503 0.0
Co886 Co 0.40976 0.14706 0.15095 0.0
O887 O 0.43591 0.17645 0.12671 0.0
C888 C 0.46647 0.1507 0.07681 0.0
O889 O 0.44719 0.12805 0.0902 0.0
C890 C 0.38027 0.2207 0.15759 0.0
O891 O 0.41373 0.23265 0.15769 0.0
O892 O 0.43916 0.1671 0.17886 0.0
O893 O 0.49161 0.18688 0.16225 0.0
H894 H 0.39808 0.0633 0.22461 0.0
H895 H 0.44198 0.2275 0.09303 0.0
O896 O 0.48576 0.17465 0.08769 0.0
H897 H 0.51124 0.31197 0.14618 0.0
H898 H 0.60451 0.22572 0.08664 0.0
H899 H 0.55052 0.15318 0.15454 0.0
H900 H 0.52066 0.24603 0.14962 0.0
H901 H 0.53822 0.21943 0.09011 0.0
O902 O 0.37387 0.18699 0.15528 0.0
H903 H 0.43097 0.09971 0.19328 0.0
H904 H 0.33153 0.13345 0.16092 0.0
H905 H 0.61691 0.15898 0.15191 0.0
H906 H 0.43187 0.29323 0.08886 0.0
H907 H 0.64432 0.19548 0.11776 0.0
H908 H 0.46656 0.33594 0.11562 0.0
O909 O 0.49558 0.12807 0.12901 0.0
H910 H 0.33662 0.15507 0.07178 0.0
H911 H 0.38691 0.07279 0.13561 0.0
H912 H 0.3527 0.04744 0.10001 0.0
H913 H 0.32729 0.08873 0.06777 0.0
H914 H 0.37131 0.17919 0.10757 0.0
H915 H 0.29755 0.09765 0.19201 0.0
H916 H 0.33088 0.06213 0.22409 0.0
O917 O 0.44497 0.10654 0.14699 0.0
C918 C 0.47078 0.18074 0.18087 0.0
C919 C 0.38325 0.07856 0.21067 0.0
C920 C 0.32683 0.09788 0.1924 0.0
N921 N 0.38319 0.11841 0.17517 0.0
C922 C 0.40173 0.09913 0.19284 0.0
C923 C 0.34621 0.11816 0.17488 0.0
C924 C 0.34555 0.07795 0.21038 0.0
C925 C 0.45744 0.24594 0.10456 0.0
N926 N 0.48203 0.23298 0.12144 0.0
C927 C 0.45149 0.28312 0.10219 0.0
C928 C 0.47093 0.30707 0.11724 0.0
C929 C 0.49599 0.29363 0.1344 0.0
C930 C 0.50117 0.25628 0.13629 0.0
C931 C 0.5929 0.20983 0.10165 0.0
C932 C 0.56225 0.16935 0.13976 0.0
C933 C 0.5554 0.20613 0.10368 0.0
N934 N 0.54056 0.18628 0.12267 0.0
C935 C 0.59986 0.17242 0.13831 0.0
C936 C 0.61521 0.19286 0.11912 0.0
C937 C 0.47686 0.1024 0.13833 0.0
C938 C 0.34751 0.13681 0.08573 0.0
C939 C 0.37607 0.09088 0.12161 0.0
C940 C 0.35662 0.0764 0.10153 0.0
C941 C 0.34233 0.09958 0.08347 0.0
N942 N 0.38113 0.12741 0.12366 0.0
C943 C 0.36706 0.15032 0.10608 0.0
H944 H 0.07071 0.51973 0.14378 0.0
H945 H 0.04219 0.4064 0.14479 0.0
H946 H 0.97802 0.42219 0.14491 0.0
H947 H 0.93008 0.46823 0.14426 0.0
H948 H 0.95904 0.58148 0.14554 0.0
H949 H 0.02302 0.56559 0.145 0.0
C950 C 0.05048 0.49845 0.14397 0.0
C951 C 0.06124 0.46194 0.14404 0.0
C952 C 0.01372 0.5077 0.14444 0.0
C953 C 0.03466 0.43472 0.1447 0.0
C954 C 0.99796 0.44372 0.14472 0.0
C955 C 0.95038 0.48944 0.14436 0.0
C956 C 0.93974 0.526 0.1447 0.0
C957 C 0.98719 0.48012 0.14449 0.0
C958 C 0.96641 0.55314 0.14522 0.0
C959 C 0.00305 0.54409 0.14489 0.0
H960 H 0.52646 0.93017 0.63545 0.0
H961 H 0.41432 0.95641 0.64922 0.0
H962 H 0.42873 0.02055 0.64926 0.0
H963 H 0.47278 0.06938 0.64533 0.0
H964 H 0.58553 0.04396 0.63377 0.0
H965 H 0.57124 0.97942 0.63308 0.0
C966 C 0.50517 0.94992 0.63837 0.0
C967 C 0.46929 0.93836 0.64203 0.0
C968 C 0.51372 0.98697 0.63885 0.0
C969 C 0.44213 0.96437 0.64618 0.0
C970 C 0.45032 0.00117 0.64624 0.0
C971 C 0.49425 0.04976 0.6426 0.0
C972 C 0.53009 0.06151 0.63941 0.0
C973 C 0.48596 0.01276 0.64256 0.0
C974 C 0.55767 0.03567 0.63626 0.0
C975 C 0.54953 0.99874 0.63581 0.0
H976 H 0.0736 0.47291 0.36828 0.0
H977 H 0.03678 0.58377 0.3652 0.0
H978 H 0.97416 0.56351 0.36634 0.0
H979 H 0.92965 0.51457 0.3682 0.0
H980 H 0.9658 0.40348 0.36873 0.0
H981 H 0.02875 0.42362 0.36851 0.0
C982 C 0.0519 0.49266 0.36794 0.0
C983 C 0.06006 0.52987 0.36694 0.0
C984 C 0.01574 0.4808 0.3681 0.0
C985 C 0.03148 0.555 0.36613 0.0
C986 C 0.99555 0.54345 0.36676 0.0
C987 C 0.95126 0.49472 0.36836 0.0
C988 C 0.94293 0.45756 0.36871 0.0
C989 C 0.98737 0.50645 0.36779 0.0
C990 C 0.97136 0.43224 0.36851 0.0
C991 C 0.00741 0.44374 0.36842 0.0
H992 H 0.46781 0.933 0.87487 0.0
H993 H 0.58165 0.95339 0.86344 0.0
H994 H 0.57039 0.01834 0.86269 0.0
H995 H 0.52833 0.06952 0.86528 0.0
H996 H 0.41405 0.04911 0.87419 0.0
H997 H 0.42542 0.98414 0.87586 0.0
C998 C 0.49019 0.95164 0.8723 0.0
C999 C 0.52557 0.93824 0.86947 0.0
C1000 C 0.48346 0.98904 0.87139 0.0
C1001 C 0.55415 0.96283 0.86577 0.0
C1002 C 0.54776 6e-05 0.86534 0.0
C1003 C 0.50591 0.05088 0.86766 0.0
C1004 C 0.47043 0.06427 0.86981 0.0
C1005 C 0.51254 0.01347 0.86816 0.0
C1006 C 0.44164 0.03965 0.87252 0.0
C1007 C 0.44811 0.00243 0.87351 0.0
H1008 H 0.92899 0.47723 0.86648 0.0
H1009 H 0.95402 0.58744 0.88673 0.0
H1010 H 0.01844 0.5731 0.88774 0.0
H1011 H 0.06789 0.52945 0.88196 0.0
H1012 H 0.04261 0.42038 0.85852 0.0
H1013 H 0.97837 0.43407 0.85974 0.0
C1014 C 0.94855 0.49799 0.8713 0.0
C1015 C 0.93676 0.53328 0.8766 0.0
C1016 C 0.98562 0.48979 0.87123 0.0
C1017 C 0.96242 0.56009 0.88246 0.0
C1018 C 0.99928 0.5519 0.88308 0.0
C1019 C 0.04835 0.50862 0.87723 0.0
C1020 C 0.06026 0.47381 0.8705 0.0
C1021 C 0.01124 0.51688 0.87733 0.0
C1022 C 0.03444 0.44733 0.86406 0.0
C1023 C 0.99755 0.45511 0.86468 0.0
H1024 H 0.55169 0.05084 0.36804 0.0
H1025 H 0.44166 0.0874 0.37796 0.0
H1026 H 0.42055 0.02477 0.37796 0.0
H1027 H 0.4333 0.95955 0.37513 0.0
H1028 H 0.54378 0.92326 0.3675 0.0
H1029 H 0.56465 0.98588 0.36667 0.0
C1030 C 0.52309 0.04521 0.37024 0.0
C1031 C 0.49837 0.07392 0.37296 0.0
C1032 C 0.51116 0.00912 0.37064 0.0
C1033 C 0.46138 0.06592 0.3759 0.0
C1034 C 0.44923 0.03007 0.37586 0.0
C1035 C 0.46192 0.96532 0.37325 0.0
C1036 C 0.48687 0.93667 0.37131 0.0
C1037 C 0.47388 0.00145 0.37322 0.0
C1038 C 0.52395 0.94471 0.36912 0.0
C1039 C 0.53594 0.98055 0.36859 0.0
H1040 H 0.93377 0.53049 0.63627 0.0
H1041 H 0.95922 0.41695 0.64447 0.0
H1042 H 0.02335 0.43043 0.64308 0.0
H1043 H 0.07252 0.47405 0.63994 0.0
H1044 H 0.04861 0.58809 0.63507 0.0
H1045 H 0.9837 0.57486 0.63489 0.0
C1046 C 0.95336 0.50872 0.63765 0.0
C1047 C 0.94151 0.47269 0.64006 0.0
C1048 C 0.99054 0.51673 0.63753 0.0
C1049 C 0.96733 0.44488 0.64228 0.0
C1050 C 0.00417 0.45253 0.64156 0.0
C1051 C 0.05311 0.49601 0.63871 0.0
C1052 C 0.06525 0.53191 0.63733 0.0
C1053 C 0.01606 0.48829 0.63918 0.0
C1054 C 0.03984 0.56017 0.63619 0.0
C1055 C 0.00276 0.55263 0.63603 0.0
H1056 H 0.44103 0.0385 0.14277 0.0
H1057 H 0.54813 0.08361 0.13431 0.0
H1058 H 0.57406 0.02283 0.13481 0.0
H1059 H 0.56626 0.95708 0.13753 0.0
H1060 H 0.45883 0.91197 0.14379 0.0
H1061 H 0.43306 0.97278 0.1442 0.0
C1062 C 0.47004 0.03512 0.14105 0.0
C1063 C 0.49256 0.06561 0.13855 0.0
C1064 C 0.4847 0.00014 0.14091 0.0
C1065 C 0.53012 0.06062 0.13617 0.0
C1066 C 0.545 0.02588 0.1365 0.0
C1067 C 0.53722 0.96048 0.13899 0.0
C1068 C 0.51455 0.92998 0.14067 0.0
C1069 C 0.52253 0.99547 0.13883 0.0
C1070 C 0.47692 0.93496 0.14237 0.0
C1071 C 0.46214 0.96972 0.14267 0.0
H1072 H 0.18924 0.4853 0.30167 0.0
H1073 H 0.16509 0.59485 0.27883 0.0
H1074 H 0.16809 0.57659 0.2349 0.0
H1075 H 0.17361 0.52856 0.20298 0.0
H1076 H 0.19513 0.41883 0.2266 0.0
H1077 H 0.19737 0.43835 0.27013 0.0
C1078 C 0.18487 0.50539 0.28716 0.0
C1079 C 0.17675 0.54141 0.2937 0.0
C1080 C 0.18607 0.49464 0.26197 0.0
C1081 C 0.17129 0.5669 0.27446 0.0
C1082 C 0.17295 0.55647 0.24928 0.0
C1083 C 0.17926 0.50901 0.21762 0.0
C1084 C 0.18398 0.47223 0.21147 0.0
C1085 C 0.17979 0.52028 0.24281 0.0
C1086 C 0.1911 0.44726 0.23075 0.0
C1087 C 0.19238 0.45837 0.25569 0.0
H1088 H 0.47395 0.18378 0.70525 0.0
H1089 H 0.58823 0.17965 0.72218 0.0
H1090 H 0.57485 0.18168 0.76687 0.0
H1091 H 0.53078 0.1814 0.80113 0.0
H1092 H 0.41647 0.18317 0.78407 0.0
H1093 H 0.43001 0.18538 0.73944 0.0
C1094 C 0.49602 0.18362 0.71865 0.0
C1095 C 0.53204 0.18141 0.71027 0.0
C1096 C 0.48817 0.18418 0.74435 0.0
C1097 C 0.56021 0.18118 0.72803 0.0
C1098 C 0.55261 0.18231 0.75363 0.0
C1099 C 0.50878 0.18254 0.7877 0.0
C1100 C 0.47266 0.18194 0.79604 0.0
C1101 C 0.51668 0.1833 0.762 0.0
C1102 C 0.44455 0.18338 0.77826 0.0
C1103 C 0.45223 0.18467 0.7527 0.0
H1104 H 0.82295 0.46318 0.20716 0.0
H1105 H 0.81451 0.57526 0.22943 0.0
H1106 H 0.81266 0.55749 0.27328 0.0
H1107 H 0.81721 0.51064 0.30577 0.0
H1108 H 0.8274 0.39861 0.28373 0.0
H1109 H 0.82456 0.41593 0.23977 0.0
C1110 C 0.82027 0.4837 0.22157 0.0
C1111 C 0.81909 0.52054 0.21479 0.0
C1112 C 0.81974 0.47337 0.24702 0.0
C1113 C 0.81576 0.54668 0.2339 0.0
C1114 C 0.8147 0.53658 0.25911 0.0
C1115 C 0.81845 0.48992 0.29141 0.0
C1116 C 0.82271 0.45336 0.29829 0.0
C1117 C 0.81727 0.50006 0.26596 0.0
C1118 C 0.82431 0.42702 0.2792 0.0
C1119 C 0.82271 0.43688 0.25392 0.0
H1120 H 0.55593 0.81153 0.7845 0.0
H1121 H 0.44858 0.81711 0.81628 0.0
H1122 H 0.42227 0.81585 0.77441 0.0
H1123 H 0.4298 0.81742 0.72881 0.0
H1124 H 0.5372 0.81154 0.69712 0.0
H1125 H 0.56322 0.80842 0.73899 0.0
C1126 C 0.52674 0.81218 0.78235 0.0
C1127 C 0.50436 0.81482 0.80359 0.0
C1128 C 0.51172 0.81156 0.75821 0.0
C1129 C 0.46657 0.81524 0.80033 0.0
C1130 C 0.45144 0.81461 0.77636 0.0
C1131 C 0.4589 0.81517 0.73099 0.0
C1132 C 0.48145 0.81514 0.70975 0.0
C1133 C 0.47379 0.81346 0.75516 0.0
C1134 C 0.51909 0.81182 0.71305 0.0
C1135 C 0.53407 0.81011 0.73703 0.0
H1136 H 0.82005 0.47684 0.80484 0.0
H1137 H 0.8282 0.59013 0.78567 0.0
H1138 H 0.82748 0.57484 0.74126 0.0
H1139 H 0.82688 0.52925 0.70756 0.0
H1140 H 0.8206 0.4159 0.72692 0.0
H1141 H 0.81809 0.43143 0.77122 0.0
C1142 C 0.82144 0.49827 0.79101 0.0
C1143 C 0.82424 0.53463 0.79883 0.0
C1144 C 0.82144 0.48931 0.76533 0.0
C1145 C 0.82613 0.56188 0.78041 0.0
C1146 C 0.82572 0.55318 0.75489 0.0
C1147 C 0.82467 0.50791 0.72142 0.0
C1148 C 0.824 0.4714 0.71369 0.0
C1149 C 0.82372 0.51696 0.74709 0.0
C1150 C 0.82131 0.44424 0.73212 0.0
C1151 C 0.81988 0.45307 0.75757 0.0
H1152 H 0.53502 0.82007 0.30481 0.0
H1153 H 0.42102 0.81498 0.28726 0.0
H1154 H 0.43505 0.81069 0.24275 0.0
H1155 H 0.4793 0.81206 0.2087 0.0
H1156 H 0.59315 0.82072 0.22599 0.0
H1157 H 0.57947 0.8196 0.27068 0.0
C1158 C 0.51324 0.81769 0.29129 0.0
C1159 C 0.47703 0.81804 0.29941 0.0
C1160 C 0.52142 0.81598 0.26563 0.0
C1161 C 0.44915 0.81507 0.28156 0.0
C1162 C 0.45712 0.81257 0.25608 0.0
C1163 C 0.5012 0.81333 0.2222 0.0
C1164 C 0.53718 0.81661 0.21393 0.0
C1165 C 0.49312 0.81356 0.24788 0.0
C1166 C 0.56516 0.81838 0.23178 0.0
C1167 C 0.55738 0.81777 0.25737 0.0
H1168 H 0.17839 0.43205 0.78003 0.0
H1169 H 0.18361 0.53959 0.81183 0.0
H1170 H 0.18792 0.56559 0.77018 0.0
H1171 H 0.18721 0.55859 0.72481 0.0
H1172 H 0.18244 0.45168 0.69224 0.0
H1173 H 0.18143 0.42487 0.73409 0.0
C1174 C 0.1807 0.46116 0.77788 0.0
C1175 C 0.18037 0.4837 0.7992 0.0
C1176 C 0.18325 0.47618 0.75371 0.0
C1177 C 0.18361 0.52139 0.79592 0.0
C1178 C 0.18608 0.53642 0.77203 0.0
C1179 C 0.18619 0.52938 0.72676 0.0
C1180 C 0.18458 0.50728 0.7053 0.0
C1181 C 0.18546 0.51415 0.75081 0.0
C1182 C 0.18365 0.46945 0.70835 0.0
C1183 C 0.18292 0.45406 0.73232 0.0
H1184 H 0.55311 0.1914 0.28398 0.0
H1185 H 0.44305 0.19185 0.31125 0.0
H1186 H 0.42041 0.19228 0.26847 0.0
H1187 H 0.43153 0.18815 0.22346 0.0
H1188 H 0.54124 0.18908 0.19573 0.0
H1189 H 0.56419 0.19295 0.23855 0.0
C1190 C 0.52418 0.19187 0.28059 0.0
C1191 C 0.4999 0.1911 0.30088 0.0
C1192 C 0.51119 0.19228 0.25585 0.0
C1193 C 0.46246 0.19222 0.29608 0.0
C1194 C 0.44941 0.1924 0.27157 0.0
C1195 C 0.46048 0.18949 0.22673 0.0
C1196 C 0.4846 0.18782 0.20642 0.0
C1197 C 0.4735 0.19174 0.25135 0.0
C1198 C 0.52202 0.19018 0.21101 0.0
C1199 C 0.5352 0.19224 0.23551 0.0
H1200 H 0.12214 0.42445 0.96627 0.0
H1201 H 0.19666 0.51396 0.95965 0.0
H1202 H 0.20075 0.51813 0.00522 0.0
H1203 H 0.18298 0.49639 0.04715 0.0
H1204 H 0.10857 0.40659 0.05316 0.0
H1205 H 0.1047 0.40271 0.00777 0.0
C1206 C 0.13926 0.44494 0.97475 0.0
C1207 C 0.15897 0.46888 0.9595 0.0
C1208 C 0.14152 0.44721 1.00095 0.0
C1209 C 0.18114 0.49514 0.97089 0.0
C1210 C 0.1835 0.49759 0.99699 0.0
C1211 C 0.16589 0.47602 0.03852 0.0
C1212 C 0.14602 0.45196 0.05364 0.0
C1213 C 0.16377 0.47378 0.01224 0.0
C1214 C 0.12409 0.42563 0.04209 0.0
C1215 C 0.12184 0.4233 0.01606 0.0
H1216 H 0.49032 0.11096 0.46635 0.0
H1217 H 0.47843 0.22684 0.46194 0.0
H1218 H 0.48784 0.23192 0.50725 0.0
H1219 H 0.50088 0.20322 0.548 0.0
H1220 H 0.51942 0.08809 0.55125 0.0
H1221 H 0.50597 0.08269 0.50655 0.0
C1222 C 0.48955 0.13724 0.47542 0.0
C1223 C 0.48336 0.16844 0.46108 0.0
C1224 C 0.49629 0.14001 0.5012 0.0
C1225 C 0.48313 0.20249 0.47278 0.0
C1226 C 0.48847 0.20538 0.49861 0.0
C1227 C 0.50174 0.177 0.53885 0.0
C1228 C 0.5108 0.14604 0.55274 0.0
C1229 C 0.49525 0.17432 0.51299 0.0
C1230 C 0.51251 0.11225 0.54078 0.0
C1231 C 0.50478 0.10915 0.51529 0.0
H1232 H 0.81415 0.49342 0.04789 0.0
H1233 H 0.88801 0.5835 0.05556 0.0
H1234 H 0.89048 0.59027 0.01047 0.0
H1235 H 0.87238 0.57132 0.9687 0.0
H1236 H 0.79888 0.48158 0.95936 0.0
H1237 H 0.79562 0.47417 1.00496 0.0
C1238 C 0.8308 0.51445 0.03966 0.0
C1239 C 0.85096 0.53774 0.05533 0.0
C1240 C 0.83224 0.51839 0.0133 0.0
C1241 C 0.8723 0.56495 0.04421 0.0
C1242 C 0.87375 0.56898 0.01828 0.0
C1243 C 0.85563 0.55003 0.97652 0.0
C1244 C 0.836 0.52701 0.96049 0.0
C1245 C 0.85394 0.5459 1.00265 0.0
C1246 C 0.81435 0.49972 0.97118 0.0
C1247 C 0.81249 0.49545 0.9973 0.0
H1248 H 0.50303 0.81596 0.54695 0.0
H1249 H 0.41178 0.88889 0.55034 0.0
H1250 H 0.41155 0.89374 0.50487 0.0
H1251 H 0.43686 0.87752 0.46425 0.0
H1252 H 0.52765 0.80425 0.46007 0.0
H1253 H 0.52844 0.79942 0.5058 0.0
C1254 C 0.48309 0.8329 0.53774 0.0
C1255 C 0.45753 0.8521 0.55209 0.0
C1256 C 0.48305 0.83562 0.51147 0.0
C1257 C 0.43186 0.8739 0.53982 0.0
C1258 C 0.43167 0.87671 0.51378 0.0
C1259 C 0.457 0.86059 0.47328 0.0
C1260 C 0.48228 0.84142 0.45875 0.0
C1261 C 0.45715 0.85778 0.49945 0.0
C1262 C 0.50793 0.81938 0.47082 0.0
C1263 C 0.50837 0.81658 0.49696 0.0
H1264 H 0.12387 0.57759 0.46251 0.0
H1265 H 0.19608 0.48696 0.45235 0.0
H1266 H 0.2018 0.48046 0.49777 0.0
H1267 H 0.18613 0.50063 0.5405 0.0
H1268 H 0.11443 0.59197 0.54992 0.0
H1269 H 0.10878 0.59794 0.50473 0.0
C1270 C 0.14078 0.55629 0.47018 0.0
C1271 C 0.15937 0.53271 0.45402 0.0
C1272 C 0.14409 0.55283 0.49625 0.0
C1273 C 0.18142 0.50549 0.46435 0.0
C1274 C 0.1847 0.50174 0.49033 0.0
C1275 C 0.16926 0.52181 0.53266 0.0
C1276 C 0.15065 0.54569 0.54867 0.0
C1277 C 0.16615 0.52527 0.50649 0.0
C1278 C 0.12901 0.57308 0.53814 0.0
C1279 C 0.12572 0.57658 0.51224 0.0
H1280 H 0.43842 0.12358 0.96213 0.0
H1281 H 0.52805 0.1979 0.95523 0.0
H1282 H 0.5319 0.20254 1.00089 0.0
H1283 H 0.5093 0.18561 0.04281 0.0
H1284 H 0.41983 0.11079 0.04878 0.0
H1285 H 0.41648 0.10638 1.00339 0.0
C1286 C 0.45895 0.14073 0.97054 0.0
C1287 C 0.48296 0.1603 0.95527 0.0
C1288 C 0.46098 0.14327 0.99666 0.0
C1289 C 0.50928 0.18245 0.96656 0.0
C1290 C 0.51145 0.18517 0.99266 0.0
C1291 C 0.48908 0.16838 0.03415 0.0
C1292 C 0.46492 0.14853 0.0492 0.0
C1293 C 0.48735 0.16575 0.00791 0.0
C1294 C 0.43892 0.12624 0.0377 0.0
C1295 C 0.43691 0.12369 0.01171 0.0
H1296 H 0.81741 0.4931 0.46348 0.0
H1297 H 0.89246 0.4035 0.46046 0.0
H1298 H 0.89643 0.40283 0.50579 0.0
H1299 H 0.87936 0.42709 0.54641 0.0
H1300 H 0.80444 0.51636 0.55108 0.0
H1301 H 0.79976 0.51765 0.50524 0.0
C1302 C 0.83461 0.47348 0.47277 0.0
C1303 C 0.8547 0.44852 0.45835 0.0
C1304 C 0.83692 0.47312 0.49923 0.0
C1305 C 0.87679 0.42323 0.47083 0.0
C1306 C 0.87911 0.42272 0.49688 0.0
C1307 C 0.86203 0.447 0.53751 0.0
C1308 C 0.84242 0.4717 0.55229 0.0
C1309 C 0.85944 0.44753 0.51126 0.0
C1310 C 0.81994 0.49704 0.54024 0.0
C1311 C 0.81725 0.49778 0.51398 0.0
H1312 H 0.56518 0.87401 0.04757 0.0
H1313 H 0.47929 0.79545 0.05467 0.0
H1314 H 0.47341 0.79288 0.00902 0.0
H1315 H 0.49295 0.81304 0.96707 0.0
H1316 H 0.57964 0.89103 0.96082 0.0
H1317 H 0.58479 0.89367 0.00622 0.0
C1318 C 0.54503 0.85637 0.03921 0.0
C1319 C 0.52259 0.83508 0.05453 0.0
C1320 C 0.54194 0.85492 0.01308 0.0
C1321 C 0.49689 0.81216 0.0433 0.0
C1322 C 0.4935 0.8107 0.01721 0.0
C1323 C 0.51289 0.83068 0.97565 0.0
C1324 C 0.53576 0.85191 0.96051 0.0
C1325 C 0.51591 0.83198 1.0019 0.0
C1326 C 0.56159 0.87446 0.97196 0.0
C1327 C 0.56461 0.87601 0.99795 0.0
H1328 H 0.23335 0.30667 0.16134 0.0
H1329 H 0.30643 0.39787 0.16018 0.0
H1330 H 0.35822 0.35667 0.1599 0.0
H1331 H 0.38261 0.29457 0.15896 0.0
H1332 H 0.30861 0.20398 0.15986 0.0
H1333 H 0.2574 0.24527 0.16126 0.0
C1334 C 0.26059 0.31764 0.1611 0.0
C1335 C 0.26598 0.3553 0.16077 0.0
C1336 C 0.29013 0.2939 0.16084 0.0
C1337 C 0.30149 0.36897 0.1605 0.0
C1338 C 0.33113 0.34543 0.16029 0.0
C1339 C 0.35529 0.28387 0.15959 0.0
C1340 C 0.34954 0.24621 0.15928 0.0
C1341 C 0.32576 0.30782 0.16032 0.0
C1342 C 0.31392 0.23282 0.16004 0.0
C1343 C 0.28453 0.25641 0.16084 0.0
H1344 H 0.69948 0.3821 0.65985 0.0
H1345 H 0.78783 0.30597 0.6533 0.0
H1346 H 0.74545 0.2561 0.6512 0.0
H1347 H 0.68402 0.2336 0.65071 0.0
H1348 H 0.59427 0.30771 0.65732 0.0
H1349 H 0.63653 0.35874 0.65995 0.0
C1350 C 0.70938 0.35459 0.65809 0.0
C1351 C 0.74683 0.34796 0.65672 0.0
C1352 C 0.68469 0.3256 0.65683 0.0
C1353 C 0.75921 0.31208 0.65436 0.0
C1354 C 0.73499 0.28338 0.65314 0.0
C1355 C 0.67353 0.26088 0.6527 0.0
C1356 C 0.63607 0.26683 0.65376 0.0
C1357 C 0.69778 0.28982 0.65424 0.0
C1358 C 0.62307 0.30239 0.65648 0.0
C1359 C 0.6472 0.33157 0.65797 0.0
H1360 H 0.77247 0.68554 0.15819 0.0
H1361 H 0.69684 0.59744 0.1675 0.0
H1362 H 0.64645 0.64035 0.16712 0.0
H1363 H 0.62397 0.70291 0.16349 0.0
H1364 H 0.70039 0.79032 0.15367 0.0
H1365 H 0.75036 0.74745 0.15487 0.0
C1366 C 0.745 0.67562 0.16022 0.0
C1367 C 0.73846 0.63833 0.16292 0.0
C1368 C 0.71627 0.7003 0.15984 0.0
C1369 C 0.70265 0.62603 0.16546 0.0
C1370 C 0.67382 0.65054 0.16521 0.0
C1371 C 0.65157 0.71259 0.16171 0.0
C1372 C 0.65838 0.74978 0.15852 0.0
C1373 C 0.68032 0.68774 0.16233 0.0
C1374 C 0.6943 0.76185 0.15612 0.0
C1375 C 0.72296 0.73737 0.15682 0.0
H1376 H 0.2402 0.67429 0.67294 0.0
H1377 H 0.31341 0.58861 0.6518 0.0
H1378 H 0.36403 0.63158 0.65202 0.0
H1379 H 0.38638 0.69476 0.65547 0.0
H1380 H 0.31108 0.7793 0.67576 0.0
H1381 H 0.26244 0.73539 0.67854 0.0
C1382 C 0.26724 0.66485 0.66847 0.0
C1383 C 0.273 0.62843 0.66215 0.0
C1384 C 0.29584 0.68958 0.66833 0.0
C1385 C 0.30829 0.61659 0.65675 0.0
C1386 C 0.33718 0.64116 0.65676 0.0
C1387 C 0.3594 0.70341 0.66074 0.0
C1388 C 0.35235 0.74031 0.66514 0.0
C1389 C 0.33115 0.67791 0.66212 0.0
C1390 C 0.31724 0.75116 0.67195 0.0
C1391 C 0.28932 0.72607 0.67362 0.0
H1392 H 0.31631 0.77668 0.35774 0.0
H1393 H 0.40248 0.69898 0.3483 0.0
H1394 H 0.35821 0.64998 0.34573 0.0
H1395 H 0.2949 0.6291 0.3465 0.0
H1396 H 0.20918 0.70737 0.35606 0.0
H1397 H 0.25346 0.75608 0.3582 0.0
C1398 C 0.32548 0.74904 0.35511 0.0
C1399 C 0.36267 0.74158 0.35319 0.0
C1400 C 0.29993 0.72101 0.35364 0.0
C1401 C 0.374 0.70556 0.34977 0.0
C1402 C 0.3487 0.67748 0.34831 0.0
C1403 C 0.2859 0.65682 0.34894 0.0
C1404 C 0.24873 0.66448 0.35107 0.0
C1405 C 0.31157 0.68488 0.35023 0.0
C1406 C 0.23759 0.70059 0.35435 0.0
C1407 C 0.2629 0.72855 0.3556 0.0
H1408 H 0.3194 0.23736 0.85238 0.0
H1409 H 0.40889 0.31234 0.84975 0.0
H1410 H 0.3664 0.36326 0.84809 0.0
H1411 H 0.3033 0.38626 0.84831 0.0
H1412 H 0.2152 0.3093 0.85087 0.0
H1413 H 0.25782 0.25953 0.85163 0.0
C1414 C 0.32978 0.26481 0.85146 0.0
C1415 C 0.36725 0.27103 0.8513 0.0
C1416 C 0.30539 0.29369 0.8505 0.0
C1417 C 0.38011 0.3068 0.84988 0.0
C1418 C 0.35583 0.33592 0.84897 0.0
C1419 C 0.2935 0.35859 0.8489 0.0
C1420 C 0.25604 0.35169 0.84958 0.0
C1421 C 0.31833 0.32968 0.84938 0.0
C1422 C 0.2438 0.31562 0.85039 0.0
C1423 C 0.26817 0.28698 0.85083 0.0
H1424 H 0.67144 0.22654 0.35446 0.0
H1425 H 0.59118 0.31095 0.34803 0.0
H1426 H 0.63906 0.35669 0.34721 0.0
H1427 H 0.70381 0.37268 0.34896 0.0
H1428 H 0.78341 0.28757 0.3556 0.0
H1429 H 0.73556 0.24223 0.3557 0.0
C1430 C 0.6643 0.25492 0.35282 0.0
C1431 C 0.62772 0.26525 0.35129 0.0
C1432 C 0.69188 0.28101 0.35243 0.0
C1433 C 0.61911 0.3022 0.34917 0.0
C1434 C 0.64648 0.32839 0.34874 0.0
C1435 C 0.71071 0.34421 0.35033 0.0
C1436 C 0.74722 0.33363 0.35225 0.0
C1437 C 0.68298 0.31811 0.35043 0.0
C1438 C 0.7556 0.29658 0.3541 0.0
C1439 C 0.72824 0.27056 0.35416 0.0
H1440 H 0.69451 0.61709 0.85423 0.0
H1441 H 0.78028 0.69582 0.84639 0.0
H1442 H 0.7362 0.7444 0.84445 0.0
H1443 H 0.67416 0.76515 0.84657 0.0
H1444 H 0.58705 0.68831 0.85514 0.0
H1445 H 0.6308 0.63841 0.85499 0.0
C1446 C 0.70345 0.64485 0.85188 0.0
C1447 C 0.74068 0.65275 0.85062 0.0
C1448 C 0.6778 0.67303 0.85098 0.0
C1449 C 0.75186 0.6889 0.84766 0.0
C1450 C 0.72666 0.7168 0.8465 0.0
C1451 C 0.66455 0.73751 0.84834 0.0
C1452 C 0.62738 0.73052 0.85098 0.0
C1453 C 0.68969 0.70923 0.84844 0.0
C1454 C 0.61555 0.69446 0.85307 0.0
C1455 C 0.64056 0.66593 0.85304 0.0
loop_
_geom_bond_atom_site_label_1
_geom_bond_atom_site_label_2
_geom_bond_distance
_geom_bond_site_symmetry_2
_ccdc_geom_bond_type
Co0 O2 2.143 . S
Co0 O8 2.074 . S
Co0 O11 2.093 . S
Co0 O24 2.097 . S
Co0 N41 2.151 . S
Co0 N49 2.214 . S
Co1 O2 2.160 . S
Co1 O7 2.058 . S
Co1 O17 2.057 . S
Co1 O32 2.037 . S
Co1 N36 2.145 . S
Co1 N57 2.257 . S
O2 Co0 2.143 . S
O2 Co1 2.160 . S
C3 O4 1.278 . S
C3 O11 1.224 . S
O4 C3 1.278 . S
C5 O6 1.245 . S
C5 O17 1.232 . S
O6 C5 1.245 . S
O7 Co1 2.058 . S
O7 C33 1.269 . S
O8 Co0 2.074 . S
O8 C33 1.257 . S
H9 C34 0.930 . S
H10 C40 0.930 . S
O11 Co0 2.093 . S
O11 C3 1.224 . S
H12 C44 0.929 . S
H13 C46 0.930 . S
H14 C47 0.930 . S
H15 C45 0.929 . S
H16 C48 0.928 . S
O17 Co1 2.057 . S
O17 C5 1.232 . S
H18 C37 0.929 . S
H19 C38 0.929 . S
H20 C50 0.931 . S
H21 C42 0.929 . S
H22 C51 0.930 . S
H23 C43 0.931 . S
O24 Co0 2.097 . S
O24 C52 1.214 . S
H25 C53 0.929 . S
H26 C54 0.929 . S
H27 C55 0.930 . S
H28 C56 0.929 . S
H29 C58 0.930 . S
H30 C35 0.930 . S
H31 C39 0.930 . S
O32 Co1 2.037 . S
O32 C52 1.234 . S
C33 O7 1.269 . S
C33 O8 1.257 . S
C34 H9 0.930 . S
C34 C37 1.388 . S
C34 C39 1.418 . S
C35 H30 0.930 . S
C35 C38 1.404 . S
C35 C39 1.353 . S
N36 Co1 2.145 . S
N36 C37 1.397 . S
N36 C38 1.334 . S
C37 H18 0.929 . S
C37 C34 1.388 . S
C37 N36 1.397 . S
C38 H19 0.929 . S
C38 C35 1.404 . S
C38 N36 1.334 . S
C39 H31 0.930 . S
C39 C34 1.418 . S
C39 C35 1.353 . S
C40 H10 0.930 . S
C40 N41 1.330 . S
C40 C42 1.446 . S
N41 Co0 2.151 . S
N41 C40 1.330 . S
N41 C45 1.418 . S
C42 H21 0.929 . S
C42 C40 1.446 . S
C42 C43 1.332 . S
C43 H23 0.931 . S
C43 C42 1.332 . S
C43 C44 1.267 . S
C44 H12 0.929 . S
C44 C43 1.267 . S
C44 C45 1.251 . S
C45 H15 0.929 . S
C45 N41 1.418 . S
C45 C44 1.251 . S
C46 H13 0.930 . S
C46 C48 1.406 . S
C46 C51 1.261 . S
C47 H14 0.930 . S
C47 N49 1.325 . S
C47 C50 1.357 . S
C48 H16 0.928 . S
C48 C46 1.406 . S
C48 N49 1.261 . S
N49 Co0 2.214 . S
N49 C47 1.325 . S
N49 C48 1.261 . S
C50 H20 0.931 . S
C50 C47 1.357 . S
C50 C51 1.312 . S
C51 H22 0.930 . S
C51 C46 1.261 . S
C51 C50 1.312 . S
C52 O24 1.214 . S
C52 O32 1.234 . S
C53 H25 0.929 . S
C53 C56 1.391 . S
C53 C58 1.391 . S
C54 H26 0.929 . S
C54 C55 1.390 . S
C54 N57 1.391 . S
C55 H27 0.930 . S
C55 C54 1.390 . S
C55 C56 1.392 . S
C56 H28 0.929 . S
C56 C53 1.391 . S
C56 C55 1.392 . S
N57 Co1 2.257 . S
N57 C54 1.391 . S
N57 C58 1.388 . S
C58 H29 0.930 . S
C58 C53 1.391 . S
C58 N57 1.388 . S
Co59 O61 2.143 . S
Co59 O67 2.074 . S
Co59 O70 2.093 . S
Co59 O83 2.097 . S
Co59 N100 2.151 . S
Co59 N108 2.214 . S
Co60 O61 2.160 . S
Co60 O66 2.058 . S
Co60 O76 2.057 . S
Co60 O91 2.037 . S
Co60 N95 2.145 . S
Co60 N116 2.257 . S
O61 Co59 2.143 . S
O61 Co60 2.160 . S
C62 O63 1.278 . S
C62 O70 1.224 . S
O63 C62 1.278 . S
C64 O65 1.245 . S
C64 O76 1.232 . S
O65 C64 1.245 . S
O66 Co60 2.058 . S
O66 C92 1.269 . S
O67 Co59 2.074 . S
O67 C92 1.257 . S
H68 C93 0.930 . S
H69 C99 0.930 . S
O70 Co59 2.093 . S
O70 C62 1.224 . S
H71 C103 0.929 . S
H72 C105 0.930 . S
H73 C106 0.930 . S
H74 C104 0.929 . S
H75 C107 0.928 . S
O76 Co60 2.057 . S
O76 C64 1.232 . S
H77 C96 0.929 . S
H78 C97 0.929 . S
H79 C109 0.931 . S
H80 C101 0.929 . S
H81 C110 0.930 . S
H82 C102 0.931 . S
O83 Co59 2.097 . S
O83 C111 1.214 . S
H84 C112 0.929 . S
H85 C113 0.929 . S
H86 C114 0.930 . S
H87 C115 0.929 . S
H88 C117 0.930 . S
H89 C94 0.930 . S
H90 C98 0.930 . S
O91 Co60 2.037 . S
O91 C111 1.234 . S
C92 O66 1.269 . S
C92 O67 1.257 . S
C93 H68 0.930 . S
C93 C96 1.388 . S
C93 C98 1.418 . S
C94 H89 0.930 . S
C94 C97 1.404 . S
C94 C98 1.353 . S
N95 Co60 2.145 . S
N95 C96 1.397 . S
N95 C97 1.334 . S
C96 H77 0.929 . S
C96 C93 1.388 . S
C96 N95 1.397 . S
C97 H78 0.929 . S
C97 C94 1.404 . S
C97 N95 1.334 . S
C98 H90 0.930 . S
C98 C93 1.418 . S
C98 C94 1.353 . S
C99 H69 0.930 . S
C99 N100 1.330 . S
C99 C101 1.446 . S
N100 Co59 2.151 . S
N100 C99 1.330 . S
N100 C104 1.418 . S
C101 H80 0.929 . S
C101 C99 1.446 . S
C101 C102 1.332 . S
C102 H82 0.931 . S
C102 C101 1.332 . S
C102 C103 1.267 . S
C103 H71 0.929 . S
C103 C102 1.267 . S
C103 C104 1.251 . S
C104 H74 0.929 . S
C104 N100 1.418 . S
C104 C103 1.251 . S
C105 H72 0.930 . S
C105 C107 1.406 . S
C105 C110 1.261 . S
C106 H73 0.930 . S
C106 N108 1.325 . S
C106 C109 1.357 . S
C107 H75 0.928 . S
C107 C105 1.406 . S
C107 N108 1.261 . S
N108 Co59 2.214 . S
N108 C106 1.325 . S
N108 C107 1.261 . S
C109 H79 0.931 . S
C109 C106 1.357 . S
C109 C110 1.312 . S
C110 H81 0.930 . S
C110 C105 1.261 . S
C110 C109 1.312 . S
C111 O83 1.214 . S
C111 O91 1.234 . S
C112 H84 0.929 . S
C112 C115 1.391 . S
C112 C117 1.391 . S
C113 H85 0.929 . S
C113 C114 1.390 . S
C113 N116 1.391 . S
C114 H86 0.930 . S
C114 C113 1.390 . S
C114 C115 1.392 . S
C115 H87 0.929 . S
C115 C112 1.391 . S
C115 C114 1.392 . S
N116 Co60 2.257 . S
N116 C113 1.391 . S
N116 C117 1.388 . S
C117 H88 0.930 . S
C117 C112 1.391 . S
C117 N116 1.388 . S
Co118 O120 2.143 . S
Co118 O126 2.074 . S
Co118 O129 2.093 . S
Co118 O142 2.097 . S
Co118 N159 2.151 . S
Co118 N167 2.214 . S
Co119 O120 2.160 . S
Co119 O125 2.058 . S
Co119 O135 2.057 . S
Co119 O150 2.037 . S
Co119 N154 2.145 . S
Co119 N175 2.257 . S
O120 Co118 2.143 . S
O120 Co119 2.160 . S
C121 O122 1.278 . S
C121 O129 1.224 . S
O122 C121 1.278 . S
C123 O124 1.245 . S
C123 O135 1.232 . S
O124 C123 1.245 . S
O125 Co119 2.058 . S
O125 C151 1.269 . S
O126 Co118 2.074 . S
O126 C151 1.257 . S
H127 C152 0.930 . S
H128 C158 0.930 . S
O129 Co118 2.093 . S
O129 C121 1.224 . S
H130 C162 0.929 . S
H131 C164 0.930 . S
H132 C165 0.930 . S
H133 C163 0.929 . S
H134 C166 0.928 . S
O135 Co119 2.057 . S
O135 C123 1.232 . S
H136 C155 0.929 . S
H137 C156 0.929 . S
H138 C168 0.931 . S
H139 C160 0.929 . S
H140 C169 0.930 . S
H141 C161 0.931 . S
O142 Co118 2.097 . S
O142 C170 1.214 . S
H143 C171 0.929 . S
H144 C172 0.929 . S
H145 C173 0.930 . S
H146 C174 0.929 . S
H147 C176 0.930 . S
H148 C153 0.930 . S
H149 C157 0.930 . S
O150 Co119 2.037 . S
O150 C170 1.234 . S
C151 O125 1.269 . S
C151 O126 1.257 . S
C152 H127 0.930 . S
C152 C155 1.388 . S
C152 C157 1.418 . S
C153 H148 0.930 . S
C153 C156 1.404 . S
C153 C157 1.353 . S
N154 Co119 2.145 . S
N154 C155 1.397 . S
N154 C156 1.334 . S
C155 H136 0.929 . S
C155 C152 1.388 . S
C155 N154 1.397 . S
C156 H137 0.929 . S
C156 C153 1.404 . S
C156 N154 1.334 . S
C157 H149 0.930 . S
C157 C152 1.418 . S
C157 C153 1.353 . S
C158 H128 0.930 . S
C158 N159 1.330 . S
C158 C160 1.446 . S
N159 Co118 2.151 . S
N159 C158 1.330 . S
N159 C163 1.418 . S
C160 H139 0.929 . S
C160 C158 1.446 . S
C160 C161 1.332 . S
C161 H141 0.931 . S
C161 C160 1.332 . S
C161 C162 1.267 . S
C162 H130 0.929 . S
C162 C161 1.267 . S
C162 C163 1.251 . S
C163 H133 0.929 . S
C163 N159 1.418 . S
C163 C162 1.251 . S
C164 H131 0.930 . S
C164 C166 1.406 . S
C164 C169 1.261 . S
C165 H132 0.930 . S
C165 N167 1.325 . S
C165 C168 1.357 . S
C166 H134 0.928 . S
C166 C164 1.406 . S
C166 N167 1.261 . S
N167 Co118 2.214 . S
N167 C165 1.325 . S
N167 C166 1.261 . S
C168 H138 0.931 . S
C168 C165 1.357 . S
C168 C169 1.312 . S
C169 H140 0.930 . S
C169 C164 1.261 . S
C169 C168 1.312 . S
C170 O142 1.214 . S
C170 O150 1.234 . S
C171 H143 0.929 . S
C171 C174 1.391 . S
C171 C176 1.391 . S
C172 H144 0.929 . S
C172 C173 1.390 . S
C172 N175 1.391 . S
C173 H145 0.930 . S
C173 C172 1.390 . S
C173 C174 1.392 . S
C174 H146 0.929 . S
C174 C171 1.391 . S
C174 C173 1.392 . S
N175 Co119 2.257 . S
N175 C172 1.391 . S
N175 C176 1.388 . S
C176 H147 0.930 . S
C176 C171 1.391 . S
C176 N175 1.388 . S
Co177 O179 2.143 . S
Co177 O185 2.074 . S
Co177 O188 2.093 . S
Co177 O201 2.097 . S
Co177 N218 2.151 . S
Co177 N226 2.214 . S
Co178 O179 2.160 . S
Co178 O184 2.058 . S
Co178 O194 2.057 . S
Co178 O209 2.037 . S
Co178 N213 2.145 . S
Co178 N234 2.257 . S
O179 Co177 2.143 . S
O179 Co178 2.160 . S
C180 O181 1.278 . S
C180 O188 1.224 . S
O181 C180 1.278 . S
C182 O183 1.245 . S
C182 O194 1.232 . S
O183 C182 1.245 . S
O184 Co178 2.058 . S
O184 C210 1.269 . S
O185 Co177 2.074 . S
O185 C210 1.257 . S
H186 C211 0.930 . S
H187 C217 0.930 . S
O188 Co177 2.093 . S
O188 C180 1.224 . S
H189 C221 0.929 . S
H190 C223 0.930 . S
H191 C224 0.930 . S
H192 C222 0.929 . S
H193 C225 0.928 . S
O194 Co178 2.057 . S
O194 C182 1.232 . S
H195 C214 0.929 . S
H196 C215 0.929 . S
H197 C227 0.931 . S
H198 C219 0.929 . S
H199 C228 0.930 . S
H200 C220 0.931 . S
O201 Co177 2.097 . S
O201 C229 1.214 . S
H202 C230 0.929 . S
H203 C231 0.929 . S
H204 C232 0.930 . S
H205 C233 0.929 . S
H206 C235 0.930 . S
H207 C212 0.930 . S
H208 C216 0.930 . S
O209 Co178 2.037 . S
O209 C229 1.234 . S
C210 O184 1.269 . S
C210 O185 1.257 . S
C211 H186 0.930 . S
C211 C214 1.388 . S
C211 C216 1.418 . S
C212 H207 0.930 . S
C212 C215 1.404 . S
C212 C216 1.353 . S
N213 Co178 2.145 . S
N213 C214 1.397 . S
N213 C215 1.334 . S
C214 H195 0.929 . S
C214 C211 1.388 . S
C214 N213 1.397 . S
C215 H196 0.929 . S
C215 C212 1.404 . S
C215 N213 1.334 . S
C216 H208 0.930 . S
C216 C211 1.418 . S
C216 C212 1.353 . S
C217 H187 0.930 . S
C217 N218 1.330 . S
C217 C219 1.446 . S
N218 Co177 2.151 . S
N218 C217 1.330 . S
N218 C222 1.418 . S
C219 H198 0.929 . S
C219 C217 1.446 . S
C219 C220 1.332 . S
C220 H200 0.931 . S
C220 C219 1.332 . S
C220 C221 1.267 . S
C221 H189 0.929 . S
C221 C220 1.267 . S
C221 C222 1.251 . S
C222 H192 0.929 . S
C222 N218 1.418 . S
C222 C221 1.251 . S
C223 H190 0.930 . S
C223 C225 1.406 . S
C223 C228 1.261 . S
C224 H191 0.930 . S
C224 N226 1.325 . S
C224 C227 1.357 . S
C225 H193 0.928 . S
C225 C223 1.406 . S
C225 N226 1.261 . S
N226 Co177 2.214 . S
N226 C224 1.325 . S
N226 C225 1.261 . S
C227 H197 0.931 . S
C227 C224 1.357 . S
C227 C228 1.312 . S
C228 H199 0.930 . S
C228 C223 1.261 . S
C228 C227 1.312 . S
C229 O201 1.214 . S
C229 O209 1.234 . S
C230 H202 0.929 . S
C230 C233 1.391 . S
C230 C235 1.391 . S
C231 H203 0.929 . S
C231 C232 1.390 . S
C231 N234 1.391 . S
C232 H204 0.930 . S
C232 C231 1.390 . S
C232 C233 1.392 . S
C233 H205 0.929 . S
C233 C230 1.391 . S
C233 C232 1.392 . S
N234 Co178 2.257 . S
N234 C231 1.391 . S
N234 C235 1.388 . S
C235 H206 0.930 . S
C235 C230 1.391 . S
C235 N234 1.388 . S
Co236 O238 2.143 . S
Co236 O244 2.074 . S
Co236 O247 2.093 . S
Co236 O260 2.097 . S
Co236 N277 2.151 . S
Co236 N285 2.214 . S
Co237 O238 2.160 . S
Co237 O243 2.058 . S
Co237 O253 2.057 . S
Co237 O268 2.037 . S
Co237 N272 2.145 . S
Co237 N293 2.257 . S
O238 Co236 2.143 . S
O238 Co237 2.160 . S
C239 O240 1.278 . S
C239 O247 1.224 . S
O240 C239 1.278 . S
C241 O242 1.245 . S
C241 O253 1.232 . S
O242 C241 1.245 . S
O243 Co237 2.058 . S
O243 C269 1.269 . S
O244 Co236 2.074 . S
O244 C269 1.257 . S
H245 C270 0.930 . S
H246 C276 0.930 . S
O247 Co236 2.093 . S
O247 C239 1.224 . S
H248 C280 0.929 . S
H249 C282 0.930 . S
H250 C283 0.930 . S
H251 C281 0.929 . S
H252 C284 0.928 . S
O253 Co237 2.057 . S
O253 C241 1.232 . S
H254 C273 0.929 . S
H255 C274 0.929 . S
H256 C286 0.931 . S
H257 C278 0.929 . S
H258 C287 0.930 . S
H259 C279 0.931 . S
O260 Co236 2.097 . S
O260 C288 1.214 . S
H261 C289 0.929 . S
H262 C290 0.929 . S
H263 C291 0.930 . S
H264 C292 0.929 . S
H265 C294 0.930 . S
H266 C271 0.930 . S
H267 C275 0.930 . S
O268 Co237 2.037 . S
O268 C288 1.234 . S
C269 O243 1.269 . S
C269 O244 1.257 . S
C270 H245 0.930 . S
C270 C273 1.388 . S
C270 C275 1.418 . S
C271 H266 0.930 . S
C271 C274 1.404 . S
C271 C275 1.353 . S
N272 Co237 2.145 . S
N272 C273 1.397 . S
N272 C274 1.334 . S
C273 H254 0.929 . S
C273 C270 1.388 . S
C273 N272 1.397 . S
C274 H255 0.929 . S
C274 C271 1.404 . S
C274 N272 1.334 . S
C275 H267 0.930 . S
C275 C270 1.418 . S
C275 C271 1.353 . S
C276 H246 0.930 . S
C276 N277 1.330 . S
C276 C278 1.446 . S
N277 Co236 2.151 . S
N277 C276 1.330 . S
N277 C281 1.418 . S
C278 H257 0.929 . S
C278 C276 1.446 . S
C278 C279 1.332 . S
C279 H259 0.931 . S
C279 C278 1.332 . S
C279 C280 1.267 . S
C280 H248 0.929 . S
C280 C279 1.267 . S
C280 C281 1.251 . S
C281 H251 0.929 . S
C281 N277 1.418 . S
C281 C280 1.251 . S
C282 H249 0.930 . S
C282 C284 1.406 . S
C282 C287 1.261 . S
C283 H250 0.930 . S
C283 N285 1.325 . S
C283 C286 1.357 . S
C284 H252 0.928 . S
C284 C282 1.406 . S
C284 N285 1.261 . S
N285 Co236 2.214 . S
N285 C283 1.325 . S
N285 C284 1.261 . S
C286 H256 0.931 . S
C286 C283 1.357 . S
C286 C287 1.312 . S
C287 H258 0.930 . S
C287 C282 1.261 . S
C287 C286 1.312 . S
C288 O260 1.214 . S
C288 O268 1.234 . S
C289 H261 0.929 . S
C289 C292 1.391 . S
C289 C294 1.391 . S
C290 H262 0.929 . S
C290 C291 1.390 . S
C290 N293 1.391 . S
C291 H263 0.930 . S
C291 C290 1.390 . S
C291 C292 1.392 . S
C292 H264 0.929 . S
C292 C289 1.391 . S
C292 C291 1.392 . S
N293 Co237 2.257 . S
N293 C290 1.391 . S
N293 C294 1.388 . S
C294 H265 0.930 . S
C294 C289 1.391 . S
C294 N293 1.388 . S
Co295 O297 2.143 . S
Co295 O303 2.074 . S
Co295 O306 2.093 . S
Co295 O319 2.097 . S
Co295 N336 2.151 . S
Co295 N344 2.214 . S
Co296 O297 2.160 . S
Co296 O302 2.058 . S
Co296 O312 2.057 . S
Co296 O327 2.037 . S
Co296 N331 2.145 . S
Co296 N352 2.257 . S
O297 Co295 2.143 . S
O297 Co296 2.160 . S
C298 O299 1.278 . S
C298 O306 1.224 . S
O299 C298 1.278 . S
C300 O301 1.245 . S
C300 O312 1.232 . S
O301 C300 1.245 . S
O302 Co296 2.058 . S
O302 C328 1.269 . S
O303 Co295 2.074 . S
O303 C328 1.257 . S
H304 C329 0.930 . S
H305 C335 0.930 . S
O306 Co295 2.093 . S
O306 C298 1.224 . S
H307 C339 0.929 . S
H308 C341 0.930 . S
H309 C342 0.930 . S
H310 C340 0.929 . S
H311 C343 0.928 . S
O312 Co296 2.057 . S
O312 C300 1.232 . S
H313 C332 0.929 . S
H314 C333 0.929 . S
H315 C345 0.931 . S
H316 C337 0.929 . S
H317 C346 0.930 . S
H318 C338 0.931 . S
O319 Co295 2.097 . S
O319 C347 1.214 . S
H320 C348 0.929 . S
H321 C349 0.929 . S
H322 C350 0.930 . S
H323 C351 0.929 . S
H324 C353 0.930 . S
H325 C330 0.930 . S
H326 C334 0.930 . S
O327 Co296 2.037 . S
O327 C347 1.234 . S
C328 O302 1.269 . S
C328 O303 1.257 . S
C329 H304 0.930 . S
C329 C332 1.388 . S
C329 C334 1.418 . S
C330 H325 0.930 . S
C330 C333 1.404 . S
C330 C334 1.353 . S
N331 Co296 2.145 . S
N331 C332 1.397 . S
N331 C333 1.334 . S
C332 H313 0.929 . S
C332 C329 1.388 . S
C332 N331 1.397 . S
C333 H314 0.929 . S
C333 C330 1.404 . S
C333 N331 1.334 . S
C334 H326 0.930 . S
C334 C329 1.418 . S
C334 C330 1.353 . S
C335 H305 0.930 . S
C335 N336 1.330 . S
C335 C337 1.446 . S
N336 Co295 2.151 . S
N336 C335 1.330 . S
N336 C340 1.418 . S
C337 H316 0.929 . S
C337 C335 1.446 . S
C337 C338 1.332 . S
C338 H318 0.931 . S
C338 C337 1.332 . S
C338 C339 1.267 . S
C339 H307 0.929 . S
C339 C338 1.267 . S
C339 C340 1.251 . S
C340 H310 0.929 . S
C340 N336 1.418 . S
C340 C339 1.251 . S
C341 H308 0.930 . S
C341 C343 1.406 . S
C341 C346 1.261 . S
C342 H309 0.930 . S
C342 N344 1.325 . S
C342 C345 1.357 . S
C343 H311 0.928 . S
C343 C341 1.406 . S
C343 N344 1.261 . S
N344 Co295 2.214 . S
N344 C342 1.325 . S
N344 C343 1.261 . S
C345 H315 0.931 . S
C345 C342 1.357 . S
C345 C346 1.312 . S
C346 H317 0.930 . S
C346 C341 1.261 . S
C346 C345 1.312 . S
C347 O319 1.214 . S
C347 O327 1.234 . S
C348 H320 0.929 . S
C348 C351 1.391 . S
C348 C353 1.391 . S
C349 H321 0.929 . S
C349 C350 1.390 . S
C349 N352 1.391 . S
C350 H322 0.930 . S
C350 C349 1.390 . S
C350 C351 1.392 . S
C351 H323 0.929 . S
C351 C348 1.391 . S
C351 C350 1.392 . S
N352 Co296 2.257 . S
N352 C349 1.391 . S
N352 C353 1.388 . S
C353 H324 0.930 . S
C353 C348 1.391 . S
C353 N352 1.388 . S
Co354 O356 2.143 . S
Co354 O362 2.074 . S
Co354 O365 2.093 . S
Co354 O378 2.097 . S
Co354 N395 2.151 . S
Co354 N403 2.214 . S
Co355 O356 2.160 . S
Co355 O361 2.058 . S
Co355 O371 2.057 . S
Co355 O386 2.037 . S
Co355 N390 2.145 . S
Co355 N411 2.257 . S
O356 Co354 2.143 . S
O356 Co355 2.160 . S
C357 O358 1.278 . S
C357 O365 1.224 . S
O358 C357 1.278 . S
C359 O360 1.245 . S
C359 O371 1.232 . S
O360 C359 1.245 . S
O361 Co355 2.058 . S
O361 C387 1.269 . S
O362 Co354 2.074 . S
O362 C387 1.257 . S
H363 C388 0.930 . S
H364 C394 0.930 . S
O365 Co354 2.093 . S
O365 C357 1.224 . S
H366 C398 0.929 . S
H367 C400 0.930 . S
H368 C401 0.930 . S
H369 C399 0.929 . S
H370 C402 0.928 . S
O371 Co355 2.057 . S
O371 C359 1.232 . S
H372 C391 0.929 . S
H373 C392 0.929 . S
H374 C404 0.931 . S
H375 C396 0.929 . S
H376 C405 0.930 . S
H377 C397 0.931 . S
O378 Co354 2.097 . S
O378 C406 1.214 . S
H379 C407 0.929 . S
H380 C408 0.929 . S
H381 C409 0.930 . S
H382 C410 0.929 . S
H383 C412 0.930 . S
H384 C389 0.930 . S
H385 C393 0.930 . S
O386 Co355 2.037 . S
O386 C406 1.234 . S
C387 O361 1.269 . S
C387 O362 1.257 . S
C388 H363 0.930 . S
C388 C391 1.388 . S
C388 C393 1.418 . S
C389 H384 0.930 . S
C389 C392 1.404 . S
C389 C393 1.353 . S
N390 Co355 2.145 . S
N390 C391 1.397 . S
N390 C392 1.334 . S
C391 H372 0.929 . S
C391 C388 1.388 . S
C391 N390 1.397 . S
C392 H373 0.929 . S
C392 C389 1.404 . S
C392 N390 1.334 . S
C393 H385 0.930 . S
C393 C388 1.418 . S
C393 C389 1.353 . S
C394 H364 0.930 . S
C394 N395 1.330 . S
C394 C396 1.446 . S
N395 Co354 2.151 . S
N395 C394 1.330 . S
N395 C399 1.418 . S
C396 H375 0.929 . S
C396 C394 1.446 . S
C396 C397 1.332 . S
C397 H377 0.931 . S
C397 C396 1.332 . S
C397 C398 1.267 . S
C398 H366 0.929 . S
C398 C397 1.267 . S
C398 C399 1.251 . S
C399 H369 0.929 . S
C399 N395 1.418 . S
C399 C398 1.251 . S
C400 H367 0.930 . S
C400 C402 1.406 . S
C400 C405 1.261 . S
C401 H368 0.930 . S
C401 N403 1.325 . S
C401 C404 1.357 . S
C402 H370 0.928 . S
C402 C400 1.406 . S
C402 N403 1.261 . S
N403 Co354 2.214 . S
N403 C401 1.325 . S
N403 C402 1.261 . S
C404 H374 0.931 . S
C404 C401 1.357 . S
C404 C405 1.312 . S
C405 H376 0.930 . S
C405 C400 1.261 . S
C405 C404 1.312 . S
C406 O378 1.214 . S
C406 O386 1.234 . S
C407 H379 0.929 . S
C407 C410 1.391 . S
C407 C412 1.391 . S
C408 H380 0.929 . S
C408 C409 1.390 . S
C408 N411 1.391 . S
C409 H381 0.930 . S
C409 C408 1.390 . S
C409 C410 1.392 . S
C410 H382 0.929 . S
C410 C407 1.391 . S
C410 C409 1.392 . S
N411 Co355 2.257 . S
N411 C408 1.391 . S
N411 C412 1.388 . S
C412 H383 0.930 . S
C412 C407 1.391 . S
C412 N411 1.388 . S
Co413 O415 2.143 . S
Co413 O421 2.074 . S
Co413 O424 2.093 . S
Co413 O437 2.097 . S
Co413 N454 2.151 . S
Co413 N462 2.214 . S
Co414 O415 2.160 . S
Co414 O420 2.058 . S
Co414 O430 2.057 . S
Co414 O445 2.037 . S
Co414 N449 2.145 . S
Co414 N470 2.257 . S
O415 Co413 2.143 . S
O415 Co414 2.160 . S
C416 O417 1.278 . S
C416 O424 1.224 . S
O417 C416 1.278 . S
C418 O419 1.245 . S
C418 O430 1.232 . S
O419 C418 1.245 . S
O420 Co414 2.058 . S
O420 C446 1.269 . S
O421 Co413 2.074 . S
O421 C446 1.257 . S
H422 C447 0.930 . S
H423 C453 0.930 . S
O424 Co413 2.093 . S
O424 C416 1.224 . S
H425 C457 0.929 . S
H426 C459 0.930 . S
H427 C460 0.930 . S
H428 C458 0.929 . S
H429 C461 0.928 . S
O430 Co414 2.057 . S
O430 C418 1.232 . S
H431 C450 0.929 . S
H432 C451 0.929 . S
H433 C463 0.931 . S
H434 C455 0.929 . S
H435 C464 0.930 . S
H436 C456 0.931 . S
O437 Co413 2.097 . S
O437 C465 1.214 . S
H438 C466 0.929 . S
H439 C467 0.929 . S
H440 C468 0.930 . S
H441 C469 0.929 . S
H442 C471 0.930 . S
H443 C448 0.930 . S
H444 C452 0.930 . S
O445 Co414 2.037 . S
O445 C465 1.234 . S
C446 O420 1.269 . S
C446 O421 1.257 . S
C447 H422 0.930 . S
C447 C450 1.388 . S
C447 C452 1.418 . S
C448 H443 0.930 . S
C448 C451 1.404 . S
C448 C452 1.353 . S
N449 Co414 2.145 . S
N449 C450 1.397 . S
N449 C451 1.334 . S
C450 H431 0.929 . S
C450 C447 1.388 . S
C450 N449 1.397 . S
C451 H432 0.929 . S
C451 C448 1.404 . S
C451 N449 1.334 . S
C452 H444 0.930 . S
C452 C447 1.418 . S
C452 C448 1.353 . S
C453 H423 0.930 . S
C453 N454 1.330 . S
C453 C455 1.446 . S
N454 Co413 2.151 . S
N454 C453 1.330 . S
N454 C458 1.418 . S
C455 H434 0.929 . S
C455 C453 1.446 . S
C455 C456 1.332 . S
C456 H436 0.931 . S
C456 C455 1.332 . S
C456 C457 1.267 . S
C457 H425 0.929 . S
C457 C456 1.267 . S
C457 C458 1.251 . S
C458 H428 0.929 . S
C458 N454 1.418 . S
C458 C457 1.251 . S
C459 H426 0.930 . S
C459 C461 1.406 . S
C459 C464 1.261 . S
C460 H427 0.930 . S
C460 N462 1.325 . S
C460 C463 1.357 . S
C461 H429 0.928 . S
C461 C459 1.406 . S
C461 N462 1.261 . S
N462 Co413 2.214 . S
N462 C460 1.325 . S
N462 C461 1.261 . S
C463 H433 0.931 . S
C463 C460 1.357 . S
C463 C464 1.312 . S
C464 H435 0.930 . S
C464 C459 1.261 . S
C464 C463 1.312 . S
C465 O437 1.214 . S
C465 O445 1.234 . S
C466 H438 0.929 . S
C466 C469 1.391 . S
C466 C471 1.391 . S
C467 H439 0.929 . S
C467 C468 1.390 . S
C467 N470 1.391 . S
C468 H440 0.930 . S
C468 C467 1.390 . S
C468 C469 1.392 . S
C469 H441 0.929 . S
C469 C466 1.391 . S
C469 C468 1.392 . S
N470 Co414 2.257 . S
N470 C467 1.391 . S
N470 C471 1.388 . S
C471 H442 0.930 . S
C471 C466 1.391 . S
C471 N470 1.388 . S
Co472 O474 2.143 . S
Co472 O480 2.074 . S
Co472 O483 2.093 . S
Co472 O496 2.097 . S
Co472 N513 2.151 . S
Co472 N521 2.214 . S
Co473 O474 2.160 . S
Co473 O479 2.058 . S
Co473 O489 2.057 . S
Co473 O504 2.037 . S
Co473 N508 2.145 . S
Co473 N529 2.257 . S
O474 Co472 2.143 . S
O474 Co473 2.160 . S
C475 O476 1.278 . S
C475 O483 1.224 . S
O476 C475 1.278 . S
C477 O478 1.245 . S
C477 O489 1.232 . S
O478 C477 1.245 . S
O479 Co473 2.058 . S
O479 C505 1.269 . S
O480 Co472 2.074 . S
O480 C505 1.257 . S
H481 C506 0.930 . S
H482 C512 0.930 . S
O483 Co472 2.093 . S
O483 C475 1.224 . S
H484 C516 0.929 . S
H485 C518 0.930 . S
H486 C519 0.930 . S
H487 C517 0.929 . S
H488 C520 0.928 . S
O489 Co473 2.057 . S
O489 C477 1.232 . S
H490 C509 0.929 . S
H491 C510 0.929 . S
H492 C522 0.931 . S
H493 C514 0.929 . S
H494 C523 0.930 . S
H495 C515 0.931 . S
O496 Co472 2.097 . S
O496 C524 1.214 . S
H497 C525 0.929 . S
H498 C526 0.929 . S
H499 C527 0.930 . S
H500 C528 0.929 . S
H501 C530 0.930 . S
H502 C507 0.930 . S
H503 C511 0.930 . S
O504 Co473 2.037 . S
O504 C524 1.234 . S
C505 O479 1.269 . S
C505 O480 1.257 . S
C506 H481 0.930 . S
C506 C509 1.388 . S
C506 C511 1.418 . S
C507 H502 0.930 . S
C507 C510 1.404 . S
C507 C511 1.353 . S
N508 Co473 2.145 . S
N508 C509 1.397 . S
N508 C510 1.334 . S
C509 H490 0.929 . S
C509 C506 1.388 . S
C509 N508 1.397 . S
C510 H491 0.929 . S
C510 C507 1.404 . S
C510 N508 1.334 . S
C511 H503 0.930 . S
C511 C506 1.418 . S
C511 C507 1.353 . S
C512 H482 0.930 . S
C512 N513 1.330 . S
C512 C514 1.446 . S
N513 Co472 2.151 . S
N513 C512 1.330 . S
N513 C517 1.418 . S
C514 H493 0.929 . S
C514 C512 1.446 . S
C514 C515 1.332 . S
C515 H495 0.931 . S
C515 C514 1.332 . S
C515 C516 1.267 . S
C516 H484 0.929 . S
C516 C515 1.267 . S
C516 C517 1.251 . S
C517 H487 0.929 . S
C517 N513 1.418 . S
C517 C516 1.251 . S
C518 H485 0.930 . S
C518 C520 1.406 . S
C518 C523 1.261 . S
C519 H486 0.930 . S
C519 N521 1.325 . S
C519 C522 1.357 . S
C520 H488 0.928 . S
C520 C518 1.406 . S
C520 N521 1.261 . S
N521 Co472 2.214 . S
N521 C519 1.325 . S
N521 C520 1.261 . S
C522 H492 0.931 . S
C522 C519 1.357 . S
C522 C523 1.312 . S
C523 H494 0.930 . S
C523 C518 1.261 . S
C523 C522 1.312 . S
C524 O496 1.214 . S
C524 O504 1.234 . S
C525 H497 0.929 . S
C525 C528 1.391 . S
C525 C530 1.391 . S
C526 H498 0.929 . S
C526 C527 1.390 . S
C526 N529 1.391 . S
C527 H499 0.930 . S
C527 C526 1.390 . S
C527 C528 1.392 . S
C528 H500 0.929 . S
C528 C525 1.391 . S
C528 C527 1.392 . S
N529 Co473 2.257 . S
N529 C526 1.391 . S
N529 C530 1.388 . S
C530 H501 0.930 . S
C530 C525 1.391 . S
C530 N529 1.388 . S
Co531 O533 2.143 . S
Co531 O539 2.074 . S
Co531 O542 2.093 . S
Co531 O555 2.097 . S
Co531 N572 2.151 . S
Co531 N580 2.214 . S
Co532 O533 2.160 . S
Co532 O538 2.058 . S
Co532 O548 2.057 . S
Co532 O563 2.037 . S
Co532 N567 2.145 . S
Co532 N588 2.257 . S
O533 Co531 2.143 . S
O533 Co532 2.160 . S
C534 O535 1.278 . S
C534 O542 1.224 . S
O535 C534 1.278 . S
C536 O537 1.245 . S
C536 O548 1.232 . S
O537 C536 1.245 . S
O538 Co532 2.058 . S
O538 C564 1.269 . S
O539 Co531 2.074 . S
O539 C564 1.257 . S
H540 C565 0.930 . S
H541 C571 0.930 . S
O542 Co531 2.093 . S
O542 C534 1.224 . S
H543 C575 0.929 . S
H544 C577 0.930 . S
H545 C578 0.930 . S
H546 C576 0.929 . S
H547 C579 0.928 . S
O548 Co532 2.057 . S
O548 C536 1.232 . S
H549 C568 0.929 . S
H550 C569 0.929 . S
H551 C581 0.931 . S
H552 C573 0.929 . S
H553 C582 0.930 . S
H554 C574 0.931 . S
O555 Co531 2.097 . S
O555 C583 1.214 . S
H556 C584 0.929 . S
H557 C585 0.929 . S
H558 C586 0.930 . S
H559 C587 0.929 . S
H560 C589 0.930 . S
H561 C566 0.930 . S
H562 C570 0.930 . S
O563 Co532 2.037 . S
O563 C583 1.234 . S
C564 O538 1.269 . S
C564 O539 1.257 . S
C565 H540 0.930 . S
C565 C568 1.388 . S
C565 C570 1.418 . S
C566 H561 0.930 . S
C566 C569 1.404 . S
C566 C570 1.353 . S
N567 Co532 2.145 . S
N567 C568 1.397 . S
N567 C569 1.334 . S
C568 H549 0.929 . S
C568 C565 1.388 . S
C568 N567 1.397 . S
C569 H550 0.929 . S
C569 C566 1.404 . S
C569 N567 1.334 . S
C570 H562 0.930 . S
C570 C565 1.418 . S
C570 C566 1.353 . S
C571 H541 0.930 . S
C571 N572 1.330 . S
C571 C573 1.446 . S
N572 Co531 2.151 . S
N572 C571 1.330 . S
N572 C576 1.418 . S
C573 H552 0.929 . S
C573 C571 1.446 . S
C573 C574 1.332 . S
C574 H554 0.931 . S
C574 C573 1.332 . S
C574 C575 1.267 . S
C575 H543 0.929 . S
C575 C574 1.267 . S
C575 C576 1.251 . S
C576 H546 0.929 . S
C576 N572 1.418 . S
C576 C575 1.251 . S
C577 H544 0.930 . S
C577 C579 1.406 . S
C577 C582 1.261 . S
C578 H545 0.930 . S
C578 N580 1.325 . S
C578 C581 1.357 . S
C579 H547 0.928 . S
C579 C577 1.406 . S
C579 N580 1.261 . S
N580 Co531 2.214 . S
N580 C578 1.325 . S
N580 C579 1.261 . S
C581 H551 0.931 . S
C581 C578 1.357 . S
C581 C582 1.312 . S
C582 H553 0.930 . S
C582 C577 1.261 . S
C582 C581 1.312 . S
C583 O555 1.214 . S
C583 O563 1.234 . S
C584 H556 0.929 . S
C584 C587 1.391 . S
C584 C589 1.391 . S
C585 H557 0.929 . S
C585 C586 1.390 . S
C585 N588 1.391 . S
C586 H558 0.930 . S
C586 C585 1.390 . S
C586 C587 1.392 . S
C587 H559 0.929 . S
C587 C584 1.391 . S
C587 C586 1.392 . S
N588 Co532 2.257 . S
N588 C585 1.391 . S
N588 C589 1.388 . S
C589 H560 0.930 . S
C589 C584 1.391 . S
C589 N588 1.388 . S
Co590 O592 2.143 . S
Co590 O598 2.074 . S
Co590 O601 2.093 . S
Co590 O614 2.097 . S
Co590 N631 2.151 . S
Co590 N639 2.214 . S
Co591 O592 2.160 . S
Co591 O597 2.058 . S
Co591 O607 2.057 . S
Co591 O622 2.037 . S
Co591 N626 2.145 . S
Co591 N647 2.257 . S
O592 Co590 2.143 . S
O592 Co591 2.160 . S
C593 O594 1.278 . S
C593 O601 1.224 . S
O594 C593 1.278 . S
C595 O596 1.245 . S
C595 O607 1.232 . S
O596 C595 1.245 . S
O597 Co591 2.058 . S
O597 C623 1.269 . S
O598 Co590 2.074 . S
O598 C623 1.257 . S
H599 C624 0.930 . S
H600 C630 0.930 . S
O601 Co590 2.093 . S
O601 C593 1.224 . S
H602 C634 0.929 . S
H603 C636 0.930 . S
H604 C637 0.930 . S
H605 C635 0.929 . S
H606 C638 0.928 . S
O607 Co591 2.057 . S
O607 C595 1.232 . S
H608 C627 0.929 . S
H609 C628 0.929 . S
H610 C640 0.931 . S
H611 C632 0.929 . S
H612 C641 0.930 . S
H613 C633 0.931 . S
O614 Co590 2.097 . S
O614 C642 1.214 . S
H615 C643 0.929 . S
H616 C644 0.929 . S
H617 C645 0.930 . S
H618 C646 0.929 . S
H619 C648 0.930 . S
H620 C625 0.930 . S
H621 C629 0.930 . S
O622 Co591 2.037 . S
O622 C642 1.234 . S
C623 O597 1.269 . S
C623 O598 1.257 . S
C624 H599 0.930 . S
C624 C627 1.388 . S
C624 C629 1.418 . S
C625 H620 0.930 . S
C625 C628 1.404 . S
C625 C629 1.353 . S
N626 Co591 2.145 . S
N626 C627 1.397 . S
N626 C628 1.334 . S
C627 H608 0.929 . S
C627 C624 1.388 . S
C627 N626 1.397 . S
C628 H609 0.929 . S
C628 C625 1.404 . S
C628 N626 1.334 . S
C629 H621 0.930 . S
C629 C624 1.418 . S
C629 C625 1.353 . S
C630 H600 0.930 . S
C630 N631 1.330 . S
C630 C632 1.446 . S
N631 Co590 2.151 . S
N631 C630 1.330 . S
N631 C635 1.418 . S
C632 H611 0.929 . S
C632 C630 1.446 . S
C632 C633 1.332 . S
C633 H613 0.931 . S
C633 C632 1.332 . S
C633 C634 1.267 . S
C634 H602 0.929 . S
C634 C633 1.267 . S
C634 C635 1.251 . S
C635 H605 0.929 . S
C635 N631 1.418 . S
C635 C634 1.251 . S
C636 H603 0.930 . S
C636 C638 1.406 . S
C636 C641 1.261 . S
C637 H604 0.930 . S
C637 N639 1.325 . S
C637 C640 1.357 . S
C638 H606 0.928 . S
C638 C636 1.406 . S
C638 N639 1.261 . S
N639 Co590 2.214 . S
N639 C637 1.325 . S
N639 C638 1.261 . S
C640 H610 0.931 . S
C640 C637 1.357 . S
C640 C641 1.312 . S
C641 H612 0.930 . S
C641 C636 1.261 . S
C641 C640 1.312 . S
C642 O614 1.214 . S
C642 O622 1.234 . S
C643 H615 0.929 . S
C643 C646 1.391 . S
C643 C648 1.391 . S
C644 H616 0.929 . S
C644 C645 1.390 . S
C644 N647 1.391 . S
C645 H617 0.930 . S
C645 C644 1.390 . S
C645 C646 1.392 . S
C646 H618 0.929 . S
C646 C643 1.391 . S
C646 C645 1.392 . S
N647 Co591 2.257 . S
N647 C644 1.391 . S
N647 C648 1.388 . S
C648 H619 0.930 . S
C648 C643 1.391 . S
C648 N647 1.388 . S
Co649 O651 2.143 . S
Co649 O657 2.074 . S
Co649 O660 2.093 . S
Co649 O673 2.097 . S
Co649 N690 2.151 . S
Co649 N698 2.214 . S
Co650 O651 2.160 . S
Co650 O656 2.058 . S
Co650 O666 2.057 . S
Co650 O681 2.037 . S
Co650 N685 2.145 . S
Co650 N706 2.257 . S
O651 Co649 2.143 . S
O651 Co650 2.160 . S
C652 O653 1.278 . S
C652 O660 1.224 . S
O653 C652 1.278 . S
C654 O655 1.245 . S
C654 O666 1.232 . S
O655 C654 1.245 . S
O656 Co650 2.058 . S
O656 C682 1.269 . S
O657 Co649 2.074 . S
O657 C682 1.257 . S
H658 C683 0.930 . S
H659 C689 0.930 . S
O660 Co649 2.093 . S
O660 C652 1.224 . S
H661 C693 0.929 . S
H662 C695 0.930 . S
H663 C696 0.930 . S
H664 C694 0.929 . S
H665 C697 0.928 . S
O666 Co650 2.057 . S
O666 C654 1.232 . S
H667 C686 0.929 . S
H668 C687 0.929 . S
H669 C699 0.931 . S
H670 C691 0.929 . S
H671 C700 0.930 . S
H672 C692 0.931 . S
O673 Co649 2.097 . S
O673 C701 1.214 . S
H674 C702 0.929 . S
H675 C703 0.929 . S
H676 C704 0.930 . S
H677 C705 0.929 . S
H678 C707 0.930 . S
H679 C684 0.930 . S
H680 C688 0.930 . S
O681 Co650 2.037 . S
O681 C701 1.234 . S
C682 O656 1.269 . S
C682 O657 1.257 . S
C683 H658 0.930 . S
C683 C686 1.388 . S
C683 C688 1.418 . S
C684 H679 0.930 . S
C684 C687 1.404 . S
C684 C688 1.353 . S
N685 Co650 2.145 . S
N685 C686 1.397 . S
N685 C687 1.334 . S
C686 H667 0.929 . S
C686 C683 1.388 . S
C686 N685 1.397 . S
C687 H668 0.929 . S
C687 C684 1.404 . S
C687 N685 1.334 . S
C688 H680 0.930 . S
C688 C683 1.418 . S
C688 C684 1.353 . S
C689 H659 0.930 . S
C689 N690 1.330 . S
C689 C691 1.446 . S
N690 Co649 2.151 . S
N690 C689 1.330 . S
N690 C694 1.418 . S
C691 H670 0.929 . S
C691 C689 1.446 . S
C691 C692 1.332 . S
C692 H672 0.931 . S
C692 C691 1.332 . S
C692 C693 1.267 . S
C693 H661 0.929 . S
C693 C692 1.267 . S
C693 C694 1.251 . S
C694 H664 0.929 . S
C694 N690 1.418 . S
C694 C693 1.251 . S
C695 H662 0.930 . S
C695 C697 1.406 . S
C695 C700 1.261 . S
C696 H663 0.930 . S
C696 N698 1.325 . S
C696 C699 1.357 . S
C697 H665 0.928 . S
C697 C695 1.406 . S
C697 N698 1.261 . S
N698 Co649 2.214 . S
N698 C696 1.325 . S
N698 C697 1.261 . S
C699 H669 0.931 . S
C699 C696 1.357 . S
C699 C700 1.312 . S
C700 H671 0.930 . S
C700 C695 1.261 . S
C700 C699 1.312 . S
C701 O673 1.214 . S
C701 O681 1.234 . S
C702 H674 0.929 . S
C702 C705 1.391 . S
C702 C707 1.391 . S
C703 H675 0.929 . S
C703 C704 1.390 . S
C703 N706 1.391 . S
C704 H676 0.930 . S
C704 C703 1.390 . S
C704 C705 1.392 . S
C705 H677 0.929 . S
C705 C702 1.391 . S
C705 C704 1.392 . S
N706 Co650 2.257 . S
N706 C703 1.391 . S
N706 C707 1.388 . S
C707 H678 0.930 . S
C707 C702 1.391 . S
C707 N706 1.388 . S
Co708 O710 2.143 . S
Co708 O716 2.074 . S
Co708 O719 2.093 . S
Co708 O732 2.097 . S
Co708 N749 2.151 . S
Co708 N757 2.214 . S
Co709 O710 2.160 . S
Co709 O715 2.058 . S
Co709 O725 2.057 . S
Co709 O740 2.037 . S
Co709 N744 2.145 . S
Co709 N765 2.257 . S
O710 Co708 2.143 . S
O710 Co709 2.160 . S
C711 O712 1.278 . S
C711 O719 1.224 . S
O712 C711 1.278 . S
C713 O714 1.245 . S
C713 O725 1.232 . S
O714 C713 1.245 . S
O715 Co709 2.058 . S
O715 C741 1.269 . S
O716 Co708 2.074 . S
O716 C741 1.257 . S
H717 C742 0.930 . S
H718 C748 0.930 . S
O719 Co708 2.093 . S
O719 C711 1.224 . S
H720 C752 0.929 . S
H721 C754 0.930 . S
H722 C755 0.930 . S
H723 C753 0.929 . S
H724 C756 0.928 . S
O725 Co709 2.057 . S
O725 C713 1.232 . S
H726 C745 0.929 . S
H727 C746 0.929 . S
H728 C758 0.931 . S
H729 C750 0.929 . S
H730 C759 0.930 . S
H731 C751 0.931 . S
O732 Co708 2.097 . S
O732 C760 1.214 . S
H733 C761 0.929 . S
H734 C762 0.929 . S
H735 C763 0.930 . S
H736 C764 0.929 . S
H737 C766 0.930 . S
H738 C743 0.930 . S
H739 C747 0.930 . S
O740 Co709 2.037 . S
O740 C760 1.234 . S
C741 O715 1.269 . S
C741 O716 1.257 . S
C742 H717 0.930 . S
C742 C745 1.388 . S
C742 C747 1.418 . S
C743 H738 0.930 . S
C743 C746 1.404 . S
C743 C747 1.353 . S
N744 Co709 2.145 . S
N744 C745 1.397 . S
N744 C746 1.334 . S
C745 H726 0.929 . S
C745 C742 1.388 . S
C745 N744 1.397 . S
C746 H727 0.929 . S
C746 C743 1.404 . S
C746 N744 1.334 . S
C747 H739 0.930 . S
C747 C742 1.418 . S
C747 C743 1.353 . S
C748 H718 0.930 . S
C748 N749 1.330 . S
C748 C750 1.446 . S
N749 Co708 2.151 . S
N749 C748 1.330 . S
N749 C753 1.418 . S
C750 H729 0.929 . S
C750 C748 1.446 . S
C750 C751 1.332 . S
C751 H731 0.931 . S
C751 C750 1.332 . S
C751 C752 1.267 . S
C752 H720 0.929 . S
C752 C751 1.267 . S
C752 C753 1.251 . S
C753 H723 0.929 . S
C753 N749 1.418 . S
C753 C752 1.251 . S
C754 H721 0.930 . S
C754 C756 1.406 . S
C754 C759 1.261 . S
C755 H722 0.930 . S
C755 N757 1.325 . S
C755 C758 1.357 . S
C756 H724 0.928 . S
C756 C754 1.406 . S
C756 N757 1.261 . S
N757 Co708 2.214 . S
N757 C755 1.325 . S
N757 C756 1.261 . S
C758 H728 0.931 . S
C758 C755 1.357 . S
C758 C759 1.312 . S
C759 H730 0.930 . S
C759 C754 1.261 . S
C759 C758 1.312 . S
C760 O732 1.214 . S
C760 O740 1.234 . S
C761 H733 0.929 . S
C761 C764 1.391 . S
C761 C766 1.391 . S
C762 H734 0.929 . S
C762 C763 1.390 . S
C762 N765 1.391 . S
C763 H735 0.930 . S
C763 C762 1.390 . S
C763 C764 1.392 . S
C764 H736 0.929 . S
C764 C761 1.391 . S
C764 C763 1.392 . S
N765 Co709 2.257 . S
N765 C762 1.391 . S
N765 C766 1.388 . S
C766 H737 0.930 . S
C766 C761 1.391 . S
C766 N765 1.388 . S
Co767 O769 2.143 . S
Co767 O775 2.074 . S
Co767 O778 2.093 . S
Co767 O791 2.097 . S
Co767 N808 2.151 . S
Co767 N816 2.214 . S
Co768 O769 2.160 . S
Co768 O774 2.058 . S
Co768 O784 2.057 . S
Co768 O799 2.037 . S
Co768 N803 2.145 . S
Co768 N824 2.257 . S
O769 Co767 2.143 . S
O769 Co768 2.160 . S
C770 O771 1.278 . S
C770 O778 1.224 . S
O771 C770 1.278 . S
C772 O773 1.245 . S
C772 O784 1.232 . S
O773 C772 1.245 . S
O774 Co768 2.058 . S
O774 C800 1.269 . S
O775 Co767 2.074 . S
O775 C800 1.257 . S
H776 C801 0.930 . S
H777 C807 0.930 . S
O778 Co767 2.093 . S
O778 C770 1.224 . S
H779 C811 0.929 . S
H780 C813 0.930 . S
H781 C814 0.930 . S
H782 C812 0.929 . S
H783 C815 0.928 . S
O784 Co768 2.057 . S
O784 C772 1.232 . S
H785 C804 0.929 . S
H786 C805 0.929 . S
H787 C817 0.931 . S
H788 C809 0.929 . S
H789 C818 0.930 . S
H790 C810 0.931 . S
O791 Co767 2.097 . S
O791 C819 1.214 . S
H792 C820 0.929 . S
H793 C821 0.929 . S
H794 C822 0.930 . S
H795 C823 0.929 . S
H796 C825 0.930 . S
H797 C802 0.930 . S
H798 C806 0.930 . S
O799 Co768 2.037 . S
O799 C819 1.234 . S
C800 O774 1.269 . S
C800 O775 1.257 . S
C801 H776 0.930 . S
C801 C804 1.388 . S
C801 C806 1.418 . S
C802 H797 0.930 . S
C802 C805 1.404 . S
C802 C806 1.353 . S
N803 Co768 2.145 . S
N803 C804 1.397 . S
N803 C805 1.334 . S
C804 H785 0.929 . S
C804 C801 1.388 . S
C804 N803 1.397 . S
C805 H786 0.929 . S
C805 C802 1.404 . S
C805 N803 1.334 . S
C806 H798 0.930 . S
C806 C801 1.418 . S
C806 C802 1.353 . S
C807 H777 0.930 . S
C807 N808 1.330 . S
C807 C809 1.446 . S
N808 Co767 2.151 . S
N808 C807 1.330 . S
N808 C812 1.418 . S
C809 H788 0.929 . S
C809 C807 1.446 . S
C809 C810 1.332 . S
C810 H790 0.931 . S
C810 C809 1.332 . S
C810 C811 1.267 . S
C811 H779 0.929 . S
C811 C810 1.267 . S
C811 C812 1.251 . S
C812 H782 0.929 . S
C812 N808 1.418 . S
C812 C811 1.251 . S
C813 H780 0.930 . S
C813 C815 1.406 . S
C813 C818 1.261 . S
C814 H781 0.930 . S
C814 N816 1.325 . S
C814 C817 1.357 . S
C815 H783 0.928 . S
C815 C813 1.406 . S
C815 N816 1.261 . S
N816 Co767 2.214 . S
N816 C814 1.325 . S
N816 C815 1.261 . S
C817 H787 0.931 . S
C817 C814 1.357 . S
C817 C818 1.312 . S
C818 H789 0.930 . S
C818 C813 1.261 . S
C818 C817 1.312 . S
C819 O791 1.214 . S
C819 O799 1.234 . S
C820 H792 0.929 . S
C820 C823 1.391 . S
C820 C825 1.391 . S
C821 H793 0.929 . S
C821 C822 1.390 . S
C821 N824 1.391 . S
C822 H794 0.930 . S
C822 C821 1.390 . S
C822 C823 1.392 . S
C823 H795 0.929 . S
C823 C820 1.391 . S
C823 C822 1.392 . S
N824 Co768 2.257 . S
N824 C821 1.391 . S
N824 C825 1.388 . S
C825 H796 0.930 . S
C825 C820 1.391 . S
C825 N824 1.388 . S
Co826 O828 2.143 . S
Co826 O834 2.074 . S
Co826 O837 2.093 . S
Co826 O850 2.097 . S
Co826 N867 2.151 . S
Co826 N875 2.214 . S
Co827 O828 2.160 . S
Co827 O833 2.058 . S
Co827 O843 2.057 . S
Co827 O858 2.037 . S
Co827 N862 2.145 . S
Co827 N883 2.257 . S
O828 Co826 2.143 . S
O828 Co827 2.160 . S
C829 O830 1.278 . S
C829 O837 1.224 . S
O830 C829 1.278 . S
C831 O832 1.245 . S
C831 O843 1.232 . S
O832 C831 1.245 . S
O833 Co827 2.058 . S
O833 C859 1.269 . S
O834 Co826 2.074 . S
O834 C859 1.257 . S
H835 C860 0.930 . S
H836 C866 0.930 . S
O837 Co826 2.093 . S
O837 C829 1.224 . S
H838 C870 0.929 . S
H839 C872 0.930 . S
H840 C873 0.930 . S
H841 C871 0.929 . S
H842 C874 0.928 . S
O843 Co827 2.057 . S
O843 C831 1.232 . S
H844 C863 0.929 . S
H845 C864 0.929 . S
H846 C876 0.931 . S
H847 C868 0.929 . S
H848 C877 0.930 . S
H849 C869 0.931 . S
O850 Co826 2.097 . S
O850 C878 1.214 . S
H851 C879 0.929 . S
H852 C880 0.929 . S
H853 C881 0.930 . S
H854 C882 0.929 . S
H855 C884 0.930 . S
H856 C861 0.930 . S
H857 C865 0.930 . S
O858 Co827 2.037 . S
O858 C878 1.234 . S
C859 O833 1.269 . S
C859 O834 1.257 . S
C860 H835 0.930 . S
C860 C863 1.388 . S
C860 C865 1.418 . S
C861 H856 0.930 . S
C861 C864 1.404 . S
C861 C865 1.353 . S
N862 Co827 2.145 . S
N862 C863 1.397 . S
N862 C864 1.334 . S
C863 H844 0.929 . S
C863 C860 1.388 . S
C863 N862 1.397 . S
C864 H845 0.929 . S
C864 C861 1.404 . S
C864 N862 1.334 . S
C865 H857 0.930 . S
C865 C860 1.418 . S
C865 C861 1.353 . S
C866 H836 0.930 . S
C866 N867 1.330 . S
C866 C868 1.446 . S
N867 Co826 2.151 . S
N867 C866 1.330 . S
N867 C871 1.418 . S
C868 H847 0.929 . S
C868 C866 1.446 . S
C868 C869 1.332 . S
C869 H849 0.931 . S
C869 C868 1.332 . S
C869 C870 1.267 . S
C870 H838 0.929 . S
C870 C869 1.267 . S
C870 C871 1.251 . S
C871 H841 0.929 . S
C871 N867 1.418 . S
C871 C870 1.251 . S
C872 H839 0.930 . S
C872 C874 1.406 . S
C872 C877 1.261 . S
C873 H840 0.930 . S
C873 N875 1.325 . S
C873 C876 1.357 . S
C874 H842 0.928 . S
C874 C872 1.406 . S
C874 N875 1.261 . S
N875 Co826 2.214 . S
N875 C873 1.325 . S
N875 C874 1.261 . S
C876 H846 0.931 . S
C876 C873 1.357 . S
C876 C877 1.312 . S
C877 H848 0.930 . S
C877 C872 1.261 . S
C877 C876 1.312 . S
C878 O850 1.214 . S
C878 O858 1.234 . S
C879 H851 0.929 . S
C879 C882 1.391 . S
C879 C884 1.391 . S
C880 H852 0.929 . S
C880 C881 1.390 . S
C880 N883 1.391 . S
C881 H853 0.930 . S
C881 C880 1.390 . S
C881 C882 1.392 . S
C882 H854 0.929 . S
C882 C879 1.391 . S
C882 C881 1.392 . S
N883 Co827 2.257 . S
N883 C880 1.391 . S
N883 C884 1.388 . S
C884 H855 0.930 . S
C884 C879 1.391 . S
C884 N883 1.388 . S
Co885 O887 2.143 . S
Co885 O893 2.074 . S
Co885 O896 2.093 . S
Co885 O909 2.097 . S
Co885 N926 2.151 . S
Co885 N934 2.214 . S
Co886 O887 2.160 . S
Co886 O892 2.058 . S
Co886 O902 2.057 . S
Co886 O917 2.037 . S
Co886 N921 2.145 . S
Co886 N942 2.257 . S
O887 Co885 2.143 . S
O887 Co886 2.160 . S
C888 O889 1.278 . S
C888 O896 1.224 . S
O889 C888 1.278 . S
C890 O891 1.245 . S
C890 O902 1.232 . S
O891 C890 1.245 . S
O892 Co886 2.058 . S
O892 C918 1.269 . S
O893 Co885 2.074 . S
O893 C918 1.257 . S
H894 C919 0.930 . S
H895 C925 0.930 . S
O896 Co885 2.093 . S
O896 C888 1.224 . S
H897 C929 0.929 . S
H898 C931 0.930 . S
H899 C932 0.930 . S
H900 C930 0.929 . S
H901 C933 0.928 . S
O902 Co886 2.057 . S
O902 C890 1.232 . S
H903 C922 0.929 . S
H904 C923 0.929 . S
H905 C935 0.931 . S
H906 C927 0.929 . S
H907 C936 0.930 . S
H908 C928 0.931 . S
O909 Co885 2.097 . S
O909 C937 1.214 . S
H910 C938 0.929 . S
H911 C939 0.929 . S
H912 C940 0.930 . S
H913 C941 0.929 . S
H914 C943 0.930 . S
H915 C920 0.930 . S
H916 C924 0.930 . S
O917 Co886 2.037 . S
O917 C937 1.234 . S
C918 O892 1.269 . S
C918 O893 1.257 . S
C919 H894 0.930 . S
C919 C922 1.388 . S
C919 C924 1.418 . S
C920 H915 0.930 . S
C920 C923 1.404 . S
C920 C924 1.353 . S
N921 Co886 2.145 . S
N921 C922 1.397 . S
N921 C923 1.334 . S
C922 H903 0.929 . S
C922 C919 1.388 . S
C922 N921 1.397 . S
C923 H904 0.929 . S
C923 C920 1.404 . S
C923 N921 1.334 . S
C924 H916 0.930 . S
C924 C919 1.418 . S
C924 C920 1.353 . S
C925 H895 0.930 . S
C925 N926 1.330 . S
C925 C927 1.446 . S
N926 Co885 2.151 . S
N926 C925 1.330 . S
N926 C930 1.418 . S
C927 H906 0.929 . S
C927 C925 1.446 . S
C927 C928 1.332 . S
C928 H908 0.931 . S
C928 C927 1.332 . S
C928 C929 1.267 . S
C929 H897 0.929 . S
C929 C928 1.267 . S
C929 C930 1.251 . S
C930 H900 0.929 . S
C930 N926 1.418 . S
C930 C929 1.251 . S
C931 H898 0.930 . S
C931 C933 1.406 . S
C931 C936 1.261 . S
C932 H899 0.930 . S
C932 N934 1.325 . S
C932 C935 1.357 . S
C933 H901 0.928 . S
C933 C931 1.406 . S
C933 N934 1.261 . S
N934 Co885 2.214 . S
N934 C932 1.325 . S
N934 C933 1.261 . S
C935 H905 0.931 . S
C935 C932 1.357 . S
C935 C936 1.312 . S
C936 H907 0.930 . S
C936 C931 1.261 . S
C936 C935 1.312 . S
C937 O909 1.214 . S
C937 O917 1.234 . S
C938 H910 0.929 . S
C938 C941 1.391 . S
C938 C943 1.391 . S
C939 H911 0.929 . S
C939 C940 1.390 . S
C939 N942 1.391 . S
C940 H912 0.930 . S
C940 C939 1.390 . S
C940 C941 1.392 . S
C941 H913 0.929 . S
C941 C938 1.391 . S
C941 C940 1.392 . S
N942 Co886 2.257 . S
N942 C939 1.391 . S
N942 C943 1.388 . S
C943 H914 0.930 . S
C943 C938 1.391 . S
C943 N942 1.388 . S
H944 C950 0.930 . S
H945 C953 0.930 . S
H946 C954 0.930 1_655 S
H947 C955 0.930 . S
H948 C958 0.930 . S
H949 C959 0.930 1_455 S
C950 H944 0.930 . S
C950 C951 1.355 . S
C950 C952 1.415 . S
C951 C950 1.355 . S
C951 C953 1.419 . S
C952 C950 1.415 . S
C952 C957 1.425 1_455 S
C952 C959 1.409 1_455 S
C953 H945 0.930 . S
C953 C951 1.419 . S
C953 C954 1.362 . S
C954 H946 0.930 1_455 S
C954 C953 1.362 . S
C954 C957 1.409 1_455 S
C955 H947 0.930 . S
C955 C956 1.355 . S
C955 C957 1.415 . S
C956 C955 1.355 . S
C956 C958 1.419 . S
C957 C952 1.425 1_655 S
C957 C954 1.409 1_655 S
C957 C955 1.415 . S
C958 H948 0.930 . S
C958 C956 1.419 . S
C958 C959 1.362 . S
C959 H949 0.930 1_655 S
C959 C952 1.409 1_655 S
C959 C958 1.362 . S
H960 C966 0.930 . S
H961 C969 0.930 . S
H962 C970 0.930 1_545 S
H963 C971 0.930 . S
H964 C974 0.930 . S
H965 C975 0.930 1_565 S
C966 H960 0.930 . S
C966 C967 1.355 . S
C966 C968 1.415 . S
C967 C966 1.355 . S
C967 C969 1.419 . S
C968 C966 1.415 . S
C968 C973 1.425 1_565 S
C968 C975 1.409 1_565 S
C969 H961 0.930 . S
C969 C967 1.419 . S
C969 C970 1.362 . S
C970 H962 0.930 1_565 S
C970 C969 1.362 . S
C970 C973 1.409 1_565 S
C971 H963 0.930 . S
C971 C972 1.355 . S
C971 C973 1.415 . S
C972 C971 1.355 . S
C972 C974 1.419 . S
C973 C968 1.425 1_545 S
C973 C970 1.409 1_545 S
C973 C971 1.415 . S
C974 H964 0.930 . S
C974 C972 1.419 . S
C974 C975 1.362 . S
C975 H965 0.930 1_545 S
C975 C968 1.409 1_545 S
C975 C974 1.362 . S
H976 C982 0.930 . S
H977 C985 0.930 . S
H978 C986 0.930 1_655 S
H979 C987 0.930 . S
H980 C990 0.930 . S
H981 C991 0.930 1_455 S
C982 H976 0.930 . S
C982 C983 1.355 . S
C982 C984 1.415 . S
C983 C982 1.355 . S
C983 C985 1.419 . S
C984 C982 1.415 . S
C984 C989 1.425 1_455 S
C984 C991 1.409 1_455 S
C985 H977 0.930 . S
C985 C983 1.419 . S
C985 C986 1.362 . S
C986 H978 0.930 1_455 S
C986 C985 1.362 . S
C986 C989 1.409 1_455 S
C987 H979 0.930 . S
C987 C988 1.355 . S
C987 C989 1.415 . S
C988 C987 1.355 . S
C988 C990 1.419 . S
C989 C984 1.425 1_655 S
C989 C986 1.409 1_655 S
C989 C987 1.415 . S
C990 H980 0.930 . S
C990 C988 1.419 . S
C990 C991 1.362 . S
C991 H981 0.930 1_655 S
C991 C984 1.409 1_655 S
C991 C990 1.362 . S
H992 C998 0.930 . S
H993 C1001 0.930 . S
H994 C1002 0.930 . S
H995 C1003 0.930 . S
H996 C1006 0.930 . S
H997 C1007 0.930 . S
C998 H992 0.930 . S
C998 C999 1.355 . S
C998 C1000 1.415 . S
C999 C998 1.355 . S
C999 C1001 1.419 . S
C1000 C998 1.415 . S
C1000 C1005 1.425 1_565 S
C1000 C1007 1.409 1_565 S
C1001 H993 0.930 . S
C1001 C999 1.419 . S
C1001 C1002 1.362 . S
C1002 H994 0.930 . S
C1002 C1001 1.362 . S
C1002 C1005 1.409 1_565 S
C1003 H995 0.930 . S
C1003 C1004 1.355 . S
C1003 C1005 1.415 . S
C1004 C1003 1.355 . S
C1004 C1006 1.419 . S
C1005 C1000 1.425 1_545 S
C1005 C1002 1.409 1_545 S
C1005 C1003 1.415 . S
C1006 H996 0.930 . S
C1006 C1004 1.419 . S
C1006 C1007 1.362 . S
C1007 H997 0.930 . S
C1007 C1000 1.409 1_545 S
C1007 C1006 1.362 . S
H1008 C1014 0.930 . S
H1009 C1017 0.930 . S
H1010 C1018 0.930 1_455 S
H1011 C1019 0.930 . S
H1012 C1022 0.930 . S
H1013 C1023 0.930 1_655 S
C1014 H1008 0.930 . S
C1014 C1015 1.355 . S
C1014 C1016 1.415 . S
C1015 C1014 1.355 . S
C1015 C1017 1.419 . S
C1016 C1014 1.415 . S
C1016 C1021 1.425 1_655 S
C1016 C1023 1.409 1_655 S
C1017 H1009 0.930 . S
C1017 C1015 1.419 . S
C1017 C1018 1.362 . S
C1018 H1010 0.930 1_655 S
C1018 C1017 1.362 . S
C1018 C1021 1.409 1_655 S
C1019 H1011 0.930 . S
C1019 C1020 1.355 . S
C1019 C1021 1.415 . S
C1020 C1019 1.355 . S
C1020 C1022 1.419 . S
C1021 C1016 1.425 1_455 S
C1021 C1018 1.409 1_455 S
C1021 C1019 1.415 . S
C1022 H1012 0.930 . S
C1022 C1020 1.419 . S
C1022 C1023 1.362 . S
C1023 H1013 0.930 1_455 S
C1023 C1016 1.409 1_455 S
C1023 C1022 1.362 . S
H1024 C1030 0.930 . S
H1025 C1033 0.930 . S
H1026 C1034 0.930 . S
H1027 C1035 0.930 . S
H1028 C1038 0.930 . S
H1029 C1039 0.930 . S
C1030 H1024 0.930 . S
C1030 C1031 1.355 . S
C1030 C1032 1.440 . S
C1031 C1030 1.355 . S
C1031 C1033 1.419 . S
C1032 C1030 1.440 . S
C1032 C1037 1.424 1_545 S
C1032 C1039 1.385 1_545 S
C1033 H1025 0.930 . S
C1033 C1031 1.419 . S
C1033 C1034 1.362 . S
C1034 H1026 0.930 . S
C1034 C1033 1.362 . S
C1034 C1037 1.385 1_545 S
C1035 H1027 0.930 . S
C1035 C1036 1.355 . S
C1035 C1037 1.440 . S
C1036 C1035 1.355 . S
C1036 C1038 1.419 . S
C1037 C1032 1.424 1_565 S
C1037 C1034 1.385 1_565 S
C1037 C1035 1.440 . S
C1038 H1028 0.930 . S
C1038 C1036 1.419 . S
C1038 C1039 1.362 . S
C1039 H1029 0.930 . S
C1039 C1032 1.385 1_565 S
C1039 C1038 1.362 . S
H1040 C1046 0.930 . S
H1041 C1049 0.930 . S
H1042 C1050 0.930 1_455 S
H1043 C1051 0.930 . S
H1044 C1054 0.930 . S
H1045 C1055 0.930 1_655 S
C1046 H1040 0.930 . S
C1046 C1047 1.355 . S
C1046 C1048 1.415 . S
C1047 C1046 1.355 . S
C1047 C1049 1.419 . S
C1048 C1046 1.415 . S
C1048 C1053 1.425 1_655 S
C1048 C1055 1.409 1_655 S
C1049 H1041 0.930 . S
C1049 C1047 1.419 . S
C1049 C1050 1.362 . S
C1050 H1042 0.930 1_655 S
C1050 C1049 1.362 . S
C1050 C1053 1.409 1_655 S
C1051 H1043 0.930 . S
C1051 C1052 1.355 . S
C1051 C1053 1.415 . S
C1052 C1051 1.355 . S
C1052 C1054 1.419 . S
C1053 C1048 1.425 1_455 S
C1053 C1050 1.409 1_455 S
C1053 C1051 1.415 . S
C1054 H1044 0.930 . S
C1054 C1052 1.419 . S
C1054 C1055 1.362 . S
C1055 H1045 0.930 1_455 S
C1055 C1048 1.409 1_455 S
C1055 C1054 1.362 . S
H1056 C1062 0.930 . S
H1057 C1065 0.930 . S
H1058 C1066 0.930 . S
H1059 C1067 0.930 . S
H1060 C1070 0.930 . S
H1061 C1071 0.930 . S
C1062 H1056 0.930 . S
C1062 C1063 1.355 . S
C1062 C1064 1.415 . S
C1063 C1062 1.355 . S
C1063 C1065 1.419 . S
C1064 C1062 1.415 . S
C1064 C1069 1.425 1_545 S
C1064 C1071 1.409 1_545 S
C1065 H1057 0.930 . S
C1065 C1063 1.419 . S
C1065 C1066 1.362 . S
C1066 H1058 0.930 . S
C1066 C1065 1.362 . S
C1066 C1069 1.409 1_545 S
C1067 H1059 0.930 . S
C1067 C1068 1.355 . S
C1067 C1069 1.415 . S
C1068 C1067 1.355 . S
C1068 C1070 1.419 . S
C1069 C1064 1.425 1_565 S
C1069 C1066 1.409 1_565 S
C1069 C1067 1.415 . S
C1070 H1060 0.930 . S
C1070 C1068 1.419 . S
C1070 C1071 1.362 . S
C1071 H1061 0.930 . S
C1071 C1064 1.409 1_565 S
C1071 C1070 1.362 . S
H1072 C1078 0.930 . S
H1073 C1081 0.930 . S
H1074 C1082 0.930 . S
H1075 C1083 0.930 . S
H1076 C1086 0.930 . S
H1077 C1087 0.930 . S
C1078 H1072 0.930 . S
C1078 C1079 1.355 . S
C1078 C1080 1.415 . S
C1079 C1078 1.355 . S
C1079 C1081 1.419 . S
C1080 C1078 1.415 . S
C1080 C1085 1.425 . S
C1080 C1087 1.409 . S
C1081 H1073 0.930 . S
C1081 C1079 1.419 . S
C1081 C1082 1.362 . S
C1082 H1074 0.930 . S
C1082 C1081 1.362 . S
C1082 C1085 1.409 . S
C1083 H1075 0.930 . S
C1083 C1084 1.355 . S
C1083 C1085 1.415 . S
C1084 C1083 1.355 . S
C1084 C1086 1.419 . S
C1085 C1080 1.425 . S
C1085 C1082 1.409 . S
C1085 C1083 1.415 . S
C1086 H1076 0.930 . S
C1086 C1084 1.419 . S
C1086 C1087 1.362 . S
C1087 H1077 0.930 . S
C1087 C1080 1.409 . S
C1087 C1086 1.362 . S
H1088 C1094 0.930 . S
H1089 C1097 0.930 . S
H1090 C1098 0.930 . S
H1091 C1099 0.930 . S
H1092 C1102 0.930 . S
H1093 C1103 0.930 . S
C1094 H1088 0.930 . S
C1094 C1095 1.355 . S
C1094 C1096 1.415 . S
C1095 C1094 1.355 . S
C1095 C1097 1.419 . S
C1096 C1094 1.415 . S
C1096 C1101 1.425 . S
C1096 C1103 1.409 . S
C1097 H1089 0.930 . S
C1097 C1095 1.419 . S
C1097 C1098 1.362 . S
C1098 H1090 0.930 . S
C1098 C1097 1.362 . S
C1098 C1101 1.409 . S
C1099 H1091 0.930 . S
C1099 C1100 1.355 . S
C1099 C1101 1.415 . S
C1100 C1099 1.355 . S
C1100 C1102 1.419 . S
C1101 C1096 1.425 . S
C1101 C1098 1.409 . S
C1101 C1099 1.415 . S
C1102 H1092 0.930 . S
C1102 C1100 1.419 . S
C1102 C1103 1.362 . S
C1103 H1093 0.930 . S
C1103 C1096 1.409 . S
C1103 C1102 1.362 . S
H1104 C1110 0.930 . S
H1105 C1113 0.930 . S
H1106 C1114 0.930 . S
H1107 C1115 0.930 . S
H1108 C1118 0.930 . S
H1109 C1119 0.930 . S
C1110 H1104 0.930 . S
C1110 C1111 1.355 . S
C1110 C1112 1.415 . S
C1111 C1110 1.355 . S
C1111 C1113 1.419 . S
C1112 C1110 1.415 . S
C1112 C1117 1.425 . S
C1112 C1119 1.409 . S
C1113 H1105 0.930 . S
C1113 C1111 1.419 . S
C1113 C1114 1.362 . S
C1114 H1106 0.930 . S
C1114 C1113 1.362 . S
C1114 C1117 1.409 . S
C1115 H1107 0.930 . S
C1115 C1116 1.355 . S
C1115 C1117 1.415 . S
C1116 C1115 1.355 . S
C1116 C1118 1.419 . S
C1117 C1112 1.425 . S
C1117 C1114 1.409 . S
C1117 C1115 1.415 . S
C1118 H1108 0.930 . S
C1118 C1116 1.419 . S
C1118 C1119 1.362 . S
C1119 H1109 0.930 . S
C1119 C1112 1.409 . S
C1119 C1118 1.362 . S
H1120 C1126 0.930 . S
H1121 C1129 0.930 . S
H1122 C1130 0.930 . S
H1123 C1131 0.930 . S
H1124 C1134 0.930 . S
H1125 C1135 0.930 . S
C1126 H1120 0.930 . S
C1126 C1127 1.355 . S
C1126 C1128 1.415 . S
C1127 C1126 1.355 . S
C1127 C1129 1.419 . S
C1128 C1126 1.415 . S
C1128 C1133 1.425 . S
C1128 C1135 1.409 . S
C1129 H1121 0.930 . S
C1129 C1127 1.419 . S
C1129 C1130 1.362 . S
C1130 H1122 0.930 . S
C1130 C1129 1.362 . S
C1130 C1133 1.409 . S
C1131 H1123 0.930 . S
C1131 C1132 1.355 . S
C1131 C1133 1.415 . S
C1132 C1131 1.355 . S
C1132 C1134 1.419 . S
C1133 C1128 1.425 . S
C1133 C1130 1.409 . S
C1133 C1131 1.415 . S
C1134 H1124 0.930 . S
C1134 C1132 1.419 . S
C1134 C1135 1.362 . S
C1135 H1125 0.930 . S
C1135 C1128 1.409 . S
C1135 C1134 1.362 . S
H1136 C1142 0.930 . S
H1137 C1145 0.930 . S
H1138 C1146 0.930 . S
H1139 C1147 0.930 . S
H1140 C1150 0.930 . S
H1141 C1151 0.930 . S
C1142 H1136 0.930 . S
C1142 C1143 1.355 . S
C1142 C1144 1.415 . S
C1143 C1142 1.355 . S
C1143 C1145 1.419 . S
C1144 C1142 1.415 . S
C1144 C1149 1.425 . S
C1144 C1151 1.409 . S
C1145 H1137 0.930 . S
C1145 C1143 1.419 . S
C1145 C1146 1.362 . S
C1146 H1138 0.930 . S
C1146 C1145 1.362 . S
C1146 C1149 1.409 . S
C1147 H1139 0.930 . S
C1147 C1148 1.355 . S
C1147 C1149 1.415 . S
C1148 C1147 1.355 . S
C1148 C1150 1.419 . S
C1149 C1144 1.425 . S
C1149 C1146 1.409 . S
C1149 C1147 1.415 . S
C1150 H1140 0.930 . S
C1150 C1148 1.419 . S
C1150 C1151 1.362 . S
C1151 H1141 0.930 . S
C1151 C1144 1.409 . S
C1151 C1150 1.362 . S
H1152 C1158 0.930 . S
H1153 C1161 0.930 . S
H1154 C1162 0.930 . S
H1155 C1163 0.930 . S
H1156 C1166 0.930 . S
H1157 C1167 0.930 . S
C1158 H1152 0.930 . S
C1158 C1159 1.355 . S
C1158 C1160 1.415 . S
C1159 C1158 1.355 . S
C1159 C1161 1.419 . S
C1160 C1158 1.415 . S
C1160 C1165 1.425 . S
C1160 C1167 1.409 . S
C1161 H1153 0.930 . S
C1161 C1159 1.419 . S
C1161 C1162 1.362 . S
C1162 H1154 0.930 . S
C1162 C1161 1.362 . S
C1162 C1165 1.409 . S
C1163 H1155 0.930 . S
C1163 C1164 1.355 . S
C1163 C1165 1.415 . S
C1164 C1163 1.355 . S
C1164 C1166 1.419 . S
C1165 C1160 1.425 . S
C1165 C1162 1.409 . S
C1165 C1163 1.415 . S
C1166 H1156 0.930 . S
C1166 C1164 1.419 . S
C1166 C1167 1.362 . S
C1167 H1157 0.930 . S
C1167 C1160 1.409 . S
C1167 C1166 1.362 . S
H1168 C1174 0.930 . S
H1169 C1177 0.930 . S
H1170 C1178 0.930 . S
H1171 C1179 0.930 . S
H1172 C1182 0.930 . S
H1173 C1183 0.930 . S
C1174 H1168 0.930 . S
C1174 C1175 1.355 . S
C1174 C1176 1.415 . S
C1175 C1174 1.355 . S
C1175 C1177 1.419 . S
C1176 C1174 1.415 . S
C1176 C1181 1.425 . S
C1176 C1183 1.409 . S
C1177 H1169 0.930 . S
C1177 C1175 1.419 . S
C1177 C1178 1.362 . S
C1178 H1170 0.930 . S
C1178 C1177 1.362 . S
C1178 C1181 1.409 . S
C1179 H1171 0.930 . S
C1179 C1180 1.355 . S
C1179 C1181 1.415 . S
C1180 C1179 1.355 . S
C1180 C1182 1.419 . S
C1181 C1176 1.425 . S
C1181 C1178 1.409 . S
C1181 C1179 1.415 . S
C1182 H1172 0.930 . S
C1182 C1180 1.419 . S
C1182 C1183 1.362 . S
C1183 H1173 0.930 . S
C1183 C1176 1.409 . S
C1183 C1182 1.362 . S
H1184 C1190 0.930 . S
H1185 C1193 0.930 . S
H1186 C1194 0.930 . S
H1187 C1195 0.930 . S
H1188 C1198 0.930 . S
H1189 C1199 0.930 . S
C1190 H1184 0.930 . S
C1190 C1191 1.355 . S
C1190 C1192 1.415 . S
C1191 C1190 1.355 . S
C1191 C1193 1.419 . S
C1192 C1190 1.415 . S
C1192 C1197 1.425 . S
C1192 C1199 1.409 . S
C1193 H1185 0.930 . S
C1193 C1191 1.419 . S
C1193 C1194 1.362 . S
C1194 H1186 0.930 . S
C1194 C1193 1.362 . S
C1194 C1197 1.409 . S
C1195 H1187 0.930 . S
C1195 C1196 1.355 . S
C1195 C1197 1.415 . S
C1196 C1195 1.355 . S
C1196 C1198 1.419 . S
C1197 C1192 1.425 . S
C1197 C1194 1.409 . S
C1197 C1195 1.415 . S
C1198 H1188 0.930 . S
C1198 C1196 1.419 . S
C1198 C1199 1.362 . S
C1199 H1189 0.930 . S
C1199 C1192 1.409 . S
C1199 C1198 1.362 . S
H1200 C1206 0.930 . S
H1201 C1209 0.930 . S
H1202 C1210 0.930 . S
H1203 C1211 0.930 . S
H1204 C1214 0.930 . S
H1205 C1215 0.930 . S
C1206 H1200 0.930 . S
C1206 C1207 1.355 . S
C1206 C1208 1.415 . S
C1207 C1206 1.355 . S
C1207 C1209 1.419 . S
C1208 C1206 1.415 . S
C1208 C1213 1.425 1_556 S
C1208 C1215 1.409 1_556 S
C1209 H1201 0.930 . S
C1209 C1207 1.419 . S
C1209 C1210 1.362 . S
C1210 H1202 0.930 . S
C1210 C1209 1.362 . S
C1210 C1213 1.409 1_556 S
C1211 H1203 0.930 . S
C1211 C1212 1.355 . S
C1211 C1213 1.415 . S
C1212 C1211 1.355 . S
C1212 C1214 1.419 . S
C1213 C1208 1.425 1_554 S
C1213 C1210 1.409 1_554 S
C1213 C1211 1.415 . S
C1214 H1204 0.930 . S
C1214 C1212 1.419 . S
C1214 C1215 1.362 . S
C1215 H1205 0.930 . S
C1215 C1208 1.409 1_554 S
C1215 C1214 1.362 . S
H1216 C1222 0.930 . S
H1217 C1225 0.930 . S
H1218 C1226 0.930 . S
H1219 C1227 0.930 . S
H1220 C1230 0.930 . S
H1221 C1231 0.930 . S
C1222 H1216 0.930 . S
C1222 C1223 1.355 . S
C1222 C1224 1.415 . S
C1223 C1222 1.355 . S
C1223 C1225 1.419 . S
C1224 C1222 1.415 . S
C1224 C1229 1.425 . S
C1224 C1231 1.409 . S
C1225 H1217 0.930 . S
C1225 C1223 1.419 . S
C1225 C1226 1.362 . S
C1226 H1218 0.930 . S
C1226 C1225 1.362 . S
C1226 C1229 1.409 . S
C1227 H1219 0.930 . S
C1227 C1228 1.355 . S
C1227 C1229 1.415 . S
C1228 C1227 1.355 . S
C1228 C1230 1.419 . S
C1229 C1224 1.425 . S
C1229 C1226 1.409 . S
C1229 C1227 1.415 . S
C1230 H1220 0.930 . S
C1230 C1228 1.419 . S
C1230 C1231 1.362 . S
C1231 H1221 0.930 . S
C1231 C1224 1.409 . S
C1231 C1230 1.362 . S
H1232 C1238 0.930 . S
H1233 C1241 0.930 . S
H1234 C1242 0.930 . S
H1235 C1243 0.930 . S
H1236 C1246 0.930 . S
H1237 C1247 0.930 . S
C1238 H1232 0.930 . S
C1238 C1239 1.355 . S
C1238 C1240 1.415 . S
C1239 C1238 1.355 . S
C1239 C1241 1.419 . S
C1240 C1238 1.415 . S
C1240 C1245 1.425 1_554 S
C1240 C1247 1.409 1_554 S
C1241 H1233 0.930 . S
C1241 C1239 1.419 . S
C1241 C1242 1.362 . S
C1242 H1234 0.930 . S
C1242 C1241 1.362 . S
C1242 C1245 1.409 1_554 S
C1243 H1235 0.930 . S
C1243 C1244 1.355 . S
C1243 C1245 1.415 . S
C1244 C1243 1.355 . S
C1244 C1246 1.419 . S
C1245 C1240 1.425 1_556 S
C1245 C1242 1.409 1_556 S
C1245 C1243 1.415 . S
C1246 H1236 0.930 . S
C1246 C1244 1.419 . S
C1246 C1247 1.362 . S
C1247 H1237 0.930 . S
C1247 C1240 1.409 1_556 S
C1247 C1246 1.362 . S
H1248 C1254 0.930 . S
H1249 C1257 0.930 . S
H1250 C1258 0.930 . S
H1251 C1259 0.930 . S
H1252 C1262 0.930 . S
H1253 C1263 0.930 . S
C1254 H1248 0.930 . S
C1254 C1255 1.355 . S
C1254 C1256 1.415 . S
C1255 C1254 1.355 . S
C1255 C1257 1.419 . S
C1256 C1254 1.415 . S
C1256 C1261 1.425 . S
C1256 C1263 1.409 . S
C1257 H1249 0.930 . S
C1257 C1255 1.419 . S
C1257 C1258 1.362 . S
C1258 H1250 0.930 . S
C1258 C1257 1.362 . S
C1258 C1261 1.409 . S
C1259 H1251 0.930 . S
C1259 C1260 1.355 . S
C1259 C1261 1.415 . S
C1260 C1259 1.355 . S
C1260 C1262 1.419 . S
C1261 C1256 1.425 . S
C1261 C1258 1.409 . S
C1261 C1259 1.415 . S
C1262 H1252 0.930 . S
C1262 C1260 1.419 . S
C1262 C1263 1.362 . S
C1263 H1253 0.930 . S
C1263 C1256 1.409 . S
C1263 C1262 1.362 . S
H1264 C1270 0.930 . S
H1265 C1273 0.930 . S
H1266 C1274 0.930 . S
H1267 C1275 0.930 . S
H1268 C1278 0.930 . S
H1269 C1279 0.930 . S
C1270 H1264 0.930 . S
C1270 C1271 1.355 . S
C1270 C1272 1.415 . S
C1271 C1270 1.355 . S
C1271 C1273 1.419 . S
C1272 C1270 1.415 . S
C1272 C1277 1.425 . S
C1272 C1279 1.409 . S
C1273 H1265 0.930 . S
C1273 C1271 1.419 . S
C1273 C1274 1.362 . S
C1274 H1266 0.930 . S
C1274 C1273 1.362 . S
C1274 C1277 1.409 . S
C1275 H1267 0.930 . S
C1275 C1276 1.355 . S
C1275 C1277 1.415 . S
C1276 C1275 1.355 . S
C1276 C1278 1.419 . S
C1277 C1272 1.425 . S
C1277 C1274 1.409 . S
C1277 C1275 1.415 . S
C1278 H1268 0.930 . S
C1278 C1276 1.419 . S
C1278 C1279 1.362 . S
C1279 H1269 0.930 . S
C1279 C1272 1.409 . S
C1279 C1278 1.362 . S
H1280 C1286 0.930 . S
H1281 C1289 0.930 . S
H1282 C1290 0.930 . S
H1283 C1291 0.930 . S
H1284 C1294 0.930 . S
H1285 C1295 0.930 . S
C1286 H1280 0.930 . S
C1286 C1287 1.355 . S
C1286 C1288 1.415 . S
C1287 C1286 1.355 . S
C1287 C1289 1.419 . S
C1288 C1286 1.415 . S
C1288 C1293 1.425 1_556 S
C1288 C1295 1.409 1_556 S
C1289 H1281 0.930 . S
C1289 C1287 1.419 . S
C1289 C1290 1.362 . S
C1290 H1282 0.930 . S
C1290 C1289 1.362 . S
C1290 C1293 1.409 1_556 S
C1291 H1283 0.930 . S
C1291 C1292 1.355 . S
C1291 C1293 1.415 . S
C1292 C1291 1.355 . S
C1292 C1294 1.419 . S
C1293 C1288 1.425 1_554 S
C1293 C1290 1.409 1_554 S
C1293 C1291 1.415 . S
C1294 H1284 0.930 . S
C1294 C1292 1.419 . S
C1294 C1295 1.362 . S
C1295 H1285 0.930 . S
C1295 C1288 1.409 1_554 S
C1295 C1294 1.362 . S
H1296 C1302 0.930 . S
H1297 C1305 0.930 . S
H1298 C1306 0.930 . S
H1299 C1307 0.930 . S
H1300 C1310 0.930 . S
H1301 C1311 0.930 . S
C1302 H1296 0.930 . S
C1302 C1303 1.355 . S
C1302 C1304 1.415 . S
C1303 C1302 1.355 . S
C1303 C1305 1.419 . S
C1304 C1302 1.415 . S
C1304 C1309 1.425 . S
C1304 C1311 1.409 . S
C1305 H1297 0.930 . S
C1305 C1303 1.419 . S
C1305 C1306 1.362 . S
C1306 H1298 0.930 . S
C1306 C1305 1.362 . S
C1306 C1309 1.409 . S
C1307 H1299 0.930 . S
C1307 C1308 1.355 . S
C1307 C1309 1.415 . S
C1308 C1307 1.355 . S
C1308 C1310 1.419 . S
C1309 C1304 1.425 . S
C1309 C1306 1.409 . S
C1309 C1307 1.415 . S
C1310 H1300 0.930 . S
C1310 C1308 1.419 . S
C1310 C1311 1.362 . S
C1311 H1301 0.930 . S
C1311 C1304 1.409 . S
C1311 C1310 1.362 . S
H1312 C1318 0.930 . S
H1313 C1321 0.930 . S
H1314 C1322 0.930 . S
H1315 C1323 0.930 . S
H1316 C1326 0.930 . S
H1317 C1327 0.930 . S
C1318 H1312 0.930 . S
C1318 C1319 1.355 . S
C1318 C1320 1.415 . S
C1319 C1318 1.355 . S
C1319 C1321 1.419 . S
C1320 C1318 1.415 . S
C1320 C1325 1.425 1_554 S
C1320 C1327 1.409 1_554 S
C1321 H1313 0.930 . S
C1321 C1319 1.419 . S
C1321 C1322 1.362 . S
C1322 H1314 0.930 . S
C1322 C1321 1.362 . S
C1322 C1325 1.409 1_554 S
C1323 H1315 0.930 . S
C1323 C1324 1.355 . S
C1323 C1325 1.415 . S
C1324 C1323 1.355 . S
C1324 C1326 1.419 . S
C1325 C1320 1.425 1_556 S
C1325 C1322 1.409 1_556 S
C1325 C1323 1.415 . S
C1326 H1316 0.930 . S
C1326 C1324 1.419 . S
C1326 C1327 1.362 . S
C1327 H1317 0.930 . S
C1327 C1320 1.409 1_556 S
C1327 C1326 1.362 . S
H1328 C1334 0.930 . S
H1329 C1337 0.930 . S
H1330 C1338 0.930 . S
H1331 C1339 0.930 . S
H1332 C1342 0.930 . S
H1333 C1343 0.930 . S
C1334 H1328 0.930 . S
C1334 C1335 1.355 . S
C1334 C1336 1.415 . S
C1335 C1334 1.355 . S
C1335 C1337 1.419 . S
C1336 C1334 1.415 . S
C1336 C1341 1.425 . S
C1336 C1343 1.409 . S
C1337 H1329 0.930 . S
C1337 C1335 1.419 . S
C1337 C1338 1.362 . S
C1338 H1330 0.930 . S
C1338 C1337 1.362 . S
C1338 C1341 1.409 . S
C1339 H1331 0.930 . S
C1339 C1340 1.355 . S
C1339 C1341 1.415 . S
C1340 C1339 1.355 . S
C1340 C1342 1.419 . S
C1341 C1336 1.425 . S
C1341 C1338 1.409 . S
C1341 C1339 1.415 . S
C1342 H1332 0.930 . S
C1342 C1340 1.419 . S
C1342 C1343 1.362 . S
C1343 H1333 0.930 . S
C1343 C1336 1.409 . S
C1343 C1342 1.362 . S
H1344 C1350 0.930 . S
H1345 C1353 0.930 . S
H1346 C1354 0.930 . S
H1347 C1355 0.930 . S
H1348 C1358 0.930 . S
H1349 C1359 0.930 . S
C1350 H1344 0.930 . S
C1350 C1351 1.355 . S
C1350 C1352 1.415 . S
C1351 C1350 1.355 . S
C1351 C1353 1.419 . S
C1352 C1350 1.415 . S
C1352 C1357 1.425 . S
C1352 C1359 1.409 . S
C1353 H1345 0.930 . S
C1353 C1351 1.419 . S
C1353 C1354 1.362 . S
C1354 H1346 0.930 . S
C1354 C1353 1.362 . S
C1354 C1357 1.409 . S
C1355 H1347 0.930 . S
C1355 C1356 1.355 . S
C1355 C1357 1.415 . S
C1356 C1355 1.355 . S
C1356 C1358 1.419 . S
C1357 C1352 1.425 . S
C1357 C1354 1.409 . S
C1357 C1355 1.415 . S
C1358 H1348 0.930 . S
C1358 C1356 1.419 . S
C1358 C1359 1.362 . S
C1359 H1349 0.930 . S
C1359 C1352 1.409 . S
C1359 C1358 1.362 . S
H1360 C1366 0.930 . S
H1361 C1369 0.930 . S
H1362 C1370 0.930 . S
H1363 C1371 0.930 . S
H1364 C1374 0.930 . S
H1365 C1375 0.930 . S
C1366 H1360 0.930 . S
C1366 C1367 1.355 . S
C1366 C1368 1.415 . S
C1367 C1366 1.355 . S
C1367 C1369 1.419 . S
C1368 C1366 1.415 . S
C1368 C1373 1.425 . S
C1368 C1375 1.409 . S
C1369 H1361 0.930 . S
C1369 C1367 1.419 . S
C1369 C1370 1.362 . S
C1370 H1362 0.930 . S
C1370 C1369 1.362 . S
C1370 C1373 1.409 . S
C1371 H1363 0.930 . S
C1371 C1372 1.355 . S
C1371 C1373 1.415 . S
C1372 C1371 1.355 . S
C1372 C1374 1.419 . S
C1373 C1368 1.425 . S
C1373 C1370 1.409 . S
C1373 C1371 1.415 . S
C1374 H1364 0.930 . S
C1374 C1372 1.419 . S
C1374 C1375 1.362 . S
C1375 H1365 0.930 . S
C1375 C1368 1.409 . S
C1375 C1374 1.362 . S
H1376 C1382 0.930 . S
H1377 C1385 0.930 . S
H1378 C1386 0.930 . S
H1379 C1387 0.930 . S
H1380 C1390 0.930 . S
H1381 C1391 0.930 . S
C1382 H1376 0.930 . S
C1382 C1383 1.355 . S
C1382 C1384 1.415 . S
C1383 C1382 1.355 . S
C1383 C1385 1.419 . S
C1384 C1382 1.415 . S
C1384 C1389 1.425 . S
C1384 C1391 1.409 . S
C1385 H1377 0.930 . S
C1385 C1383 1.419 . S
C1385 C1386 1.362 . S
C1386 H1378 0.930 . S
C1386 C1385 1.362 . S
C1386 C1389 1.409 . S
C1387 H1379 0.930 . S
C1387 C1388 1.355 . S
C1387 C1389 1.415 . S
C1388 C1387 1.355 . S
C1388 C1390 1.419 . S
C1389 C1384 1.425 . S
C1389 C1386 1.409 . S
C1389 C1387 1.415 . S
C1390 H1380 0.930 . S
C1390 C1388 1.419 . S
C1390 C1391 1.362 . S
C1391 H1381 0.930 . S
C1391 C1384 1.409 . S
C1391 C1390 1.362 . S
H1392 C1398 0.930 . S
H1393 C1401 0.930 . S
H1394 C1402 0.930 . S
H1395 C1403 0.930 . S
H1396 C1406 0.930 . S
H1397 C1407 0.930 . S
C1398 H1392 0.930 . S
C1398 C1399 1.355 . S
C1398 C1400 1.415 . S
C1399 C1398 1.355 . S
C1399 C1401 1.419 . S
C1400 C1398 1.415 . S
C1400 C1405 1.425 . S
C1400 C1407 1.409 . S
C1401 H1393 0.930 . S
C1401 C1399 1.419 . S
C1401 C1402 1.362 . S
C1402 H1394 0.930 . S
C1402 C1401 1.362 . S
C1402 C1405 1.409 . S
C1403 H1395 0.930 . S
C1403 C1404 1.355 . S
C1403 C1405 1.415 . S
C1404 C1403 1.355 . S
C1404 C1406 1.419 . S
C1405 C1400 1.425 . S
C1405 C1402 1.409 . S
C1405 C1403 1.415 . S
C1406 H1396 0.930 . S
C1406 C1404 1.419 . S
C1406 C1407 1.362 . S
C1407 H1397 0.930 . S
C1407 C1400 1.409 . S
C1407 C1406 1.362 . S
H1408 C1414 0.930 . S
H1409 C1417 0.930 . S
H1410 C1418 0.930 . S
H1411 C1419 0.930 . S
H1412 C1422 0.930 . S
H1413 C1423 0.930 . S
C1414 H1408 0.930 . S
C1414 C1415 1.355 . S
C1414 C1416 1.415 . S
C1415 C1414 1.355 . S
C1415 C1417 1.419 . S
C1416 C1414 1.415 . S
C1416 C1421 1.425 . S
C1416 C1423 1.409 . S
C1417 H1409 0.930 . S
C1417 C1415 1.419 . S
C1417 C1418 1.362 . S
C1418 H1410 0.930 . S
C1418 C1417 1.362 . S
C1418 C1421 1.409 . S
C1419 H1411 0.930 . S
C1419 C1420 1.355 . S
C1419 C1421 1.415 . S
C1420 C1419 1.355 . S
C1420 C1422 1.419 . S
C1421 C1416 1.425 . S
C1421 C1418 1.409 . S
C1421 C1419 1.415 . S
C1422 H1412 0.930 . S
C1422 C1420 1.419 . S
C1422 C1423 1.362 . S
C1423 H1413 0.930 . S
C1423 C1416 1.409 . S
C1423 C1422 1.362 . S
H1424 C1430 0.930 . S
H1425 C1433 0.930 . S
H1426 C1434 0.930 . S
H1427 C1435 0.930 . S
H1428 C1438 0.930 . S
H1429 C1439 0.930 . S
C1430 H1424 0.930 . S
C1430 C1431 1.355 . S
C1430 C1432 1.415 . S
C1431 C1430 1.355 . S
C1431 C1433 1.419 . S
C1432 C1430 1.415 . S
C1432 C1437 1.425 . S
C1432 C1439 1.409 . S
C1433 H1425 0.930 . S
C1433 C1431 1.419 . S
C1433 C1434 1.362 . S
C1434 H1426 0.930 . S
C1434 C1433 1.362 . S
C1434 C1437 1.409 . S
C1435 H1427 0.930 . S
C1435 C1436 1.355 . S
C1435 C1437 1.415 . S
C1436 C1435 1.355 . S
C1436 C1438 1.419 . S
C1437 C1432 1.425 . S
C1437 C1434 1.409 . S
C1437 C1435 1.415 . S
C1438 H1428 0.930 . S
C1438 C1436 1.419 . S
C1438 C1439 1.362 . S
C1439 H1429 0.930 . S
C1439 C1432 1.409 . S
C1439 C1438 1.362 . S
H1440 C1446 0.930 . S
H1441 C1449 0.930 . S
H1442 C1450 0.930 . S
H1443 C1451 0.930 . S
H1444 C1454 0.930 . S
H1445 C1455 0.930 . S
C1446 H1440 0.930 . S
C1446 C1447 1.355 . S
C1446 C1448 1.415 . S
C1447 C1446 1.355 . S
C1447 C1449 1.419 . S
C1448 C1446 1.415 . S
C1448 C1453 1.425 . S
C1448 C1455 1.409 . S
C1449 H1441 0.930 . S
C1449 C1447 1.419 . S
C1449 C1450 1.362 . S
C1450 H1442 0.930 . S
C1450 C1449 1.362 . S
C1450 C1453 1.409 . S
C1451 H1443 0.930 . S
C1451 C1452 1.355 . S
C1451 C1453 1.415 . S
C1452 C1451 1.355 . S
C1452 C1454 1.419 . S
C1453 C1448 1.425 . S
C1453 C1450 1.409 . S
C1453 C1451 1.415 . S
C1454 H1444 0.930 . S
C1454 C1452 1.419 . S
C1454 C1455 1.362 . S
C1455 H1445 0.930 . S
C1455 C1448 1.409 . S
C1455 C1454 1.362 . S
C951 C52 1.434 . S
C956 C170 1.428 . S
C967 C229 1.437 . S
C972 C111 1.418 . S
C983 C288 1.427 . S
C988 C406 1.434 . S
C999 C465 1.434 . S
C1004 C347 1.412 . S
C1015 C524 1.420 . S
C1020 C642 1.437 . S
C1031 C701 1.420 . S
C1036 C583 1.412 . S
C1047 C760 1.434 . S
C1052 C878 1.427 . S
C1063 C937 1.414 . S
C1068 C819 1.418 . S
C1079 C269 1.306 . S
C1084 C33 1.287 . S
C1095 C92 1.288 . S
C1100 C328 1.282 . S
C1111 C151 1.284 . S
C1116 C387 1.284 . S
C1127 C446 1.287 . S
C1132 C210 1.305 . S
C1143 C505 1.294 . S
C1148 C741 1.316 . S
C1159 C564 1.283 . S
C1164 C800 1.286 . S
C1175 C623 1.348 . S
C1180 C859 1.330 . S
C1191 C682 1.298 . S
C1196 C918 1.284 . S
C1207 C593 1.397 . S
C1212 C3 1.403 . S
C1223 C652 1.423 . S
C1228 C62 1.377 . S
C1239 C121 1.384 . S
C1244 C475 1.416 . S
C1255 C180 1.379 . S
C1260 C534 1.421 . S
C1271 C239 1.424 . S
C1276 C829 1.377 . S
C1287 C298 1.421 . S
C1292 C888 1.380 . S
C1303 C357 1.406 . S
C1308 C711 1.394 . S
C1319 C770 1.378 . S
C1324 C416 1.422 . S
C1335 C5 1.441 . S
C1340 C890 1.445 . S
C1351 C713 1.451 . S
C1356 C64 1.435 . S
C1367 C123 1.435 . S
C1372 C772 1.451 . S
C1383 C831 1.435 . S
C1388 C182 1.451 . S
C1399 C536 1.436 . S
C1404 C241 1.450 . S
C1415 C300 1.435 . S
C1420 C595 1.451 . S
C1431 C654 1.436 . S
C1436 C359 1.450 . S
C1447 C477 1.446 . S
C1452 C418 1.440 . S
