# Generated by pormake.
# Topology wjh, (4)-cn, num edge types: 1
# Building blocks:
#     Node 0, Type 0, BuildingBlock: UXUYUI_clean_sbu_0, # of connection points: 4
#     Node 1, Type 0, BuildingBlock: UXUYUI_clean_sbu_0, # of connection points: 4
#     Node 2, Type 0, BuildingBlock: UXUYUI_clean_sbu_0, # of connection points: 4
#     Node 3, Type 0, BuildingBlock: UXUYUI_clean_sbu_0, # of connection points: 4
#     Node 4, Type 0, BuildingBlock: UXUYUI_clean_sbu_0, # of connection points: 4
#     Node 5, Type 0, BuildingBlock: UXUYUI_clean_sbu_0, # of connection points: 4
#     Node 6, Type 0, BuildingBlock: UXUYUI_clean_sbu_0, # of connection points: 4
#     Node 7, Type 0, BuildingBlock: UXUYUI_clean_sbu_0, # of connection points: 4
#     Node 8, Type 0, BuildingBlock: UXUYUI_clean_sbu_0, # of connection points: 4
#     Node 9, Type 0, BuildingBlock: UXUYUI_clean_sbu_0, # of connection points: 4
#     Node 10, Type 0, BuildingBlock: UXUYUI_clean_sbu_0, # of connection points: 4
#     Node 11, Type 0, BuildingBlock: UXUYUI_clean_sbu_0, # of connection points: 4
#     Edge 12, Type (0, 0), BuildingBlock: KIFKEQ_clean_linker_1, # of connection points: 2
#     Edge 13, Type (0, 0), BuildingBlock: KIFKEQ_clean_linker_1, # of connection points: 2
#     Edge 14, Type (0, 0), BuildingBlock: KIFKEQ_clean_linker_1, # of connection points: 2
#     Edge 15, Type (0, 0), BuildingBlock: KIFKEQ_clean_linker_1, # of connection points: 2
#     Edge 16, Type (0, 0), BuildingBlock: KIFKEQ_clean_linker_1, # of connection points: 2
#     Edge 17, Type (0, 0), BuildingBlock: KIFKEQ_clean_linker_1, # of connection points: 2
#     Edge 18, Type (0, 0), BuildingBlock: KIFKEQ_clean_linker_1, # of connection points: 2
#     Edge 19, Type (0, 0), BuildingBlock: KIFKEQ_clean_linker_1, # of connection points: 2
#     Edge 20, Type (0, 0), BuildingBlock: KIFKEQ_clean_linker_1, # of connection points: 2
#     Edge 21, Type (0, 0), BuildingBlock: KIFKEQ_clean_linker_1, # of connection points: 2
#     Edge 22, Type (0, 0), BuildingBlock: KIFKEQ_clean_linker_1, # of connection points: 2
#     Edge 23, Type (0, 0), BuildingBlock: KIFKEQ_clean_linker_1, # of connection points: 2
#     Edge 24, Type (0, 0), BuildingBlock: KIFKEQ_clean_linker_1, # of connection points: 2
#     Edge 25, Type (0, 0), BuildingBlock: KIFKEQ_clean_linker_1, # of connection points: 2
#     Edge 26, Type (0, 0), BuildingBlock: KIFKEQ_clean_linker_1, # of connection points: 2
#     Edge 27, Type (0, 0), BuildingBlock: KIFKEQ_clean_linker_1, # of connection points: 2
#     Edge 28, Type (0, 0), BuildingBlock: KIFKEQ_clean_linker_1, # of connection points: 2
#     Edge 29, Type (0, 0), BuildingBlock: KIFKEQ_clean_linker_1, # of connection points: 2
#     Edge 30, Type (0, 0), BuildingBlock: KIFKEQ_clean_linker_1, # of connection points: 2
#     Edge 31, Type (0, 0), BuildingBlock: KIFKEQ_clean_linker_1, # of connection points: 2
#     Edge 32, Type (0, 0), BuildingBlock: KIFKEQ_clean_linker_1, # of connection points: 2
#     Edge 33, Type (0, 0), BuildingBlock: KIFKEQ_clean_linker_1, # of connection points: 2
#     Edge 34, Type (0, 0), BuildingBlock: KIFKEQ_clean_linker_1, # of connection points: 2
#     Edge 35, Type (0, 0), BuildingBlock: KIFKEQ_clean_linker_1, # of connection points: 2
# Relax obj value: 0.245
# Max RMSD: 0.173
# Mean RMSD: 0.173
data_MOF--net-wjh--node1-UXUYUI_clean_sbu_0--edge1-KIFKEQ_clean_linker_1
_symmetry_space_group_name_H-M    P1
_symmetry_Int_Tables_number       1
_symmetry_cell_setting            triclinic
loop_
_symmetry_equiv_pos_as_xyz
'x, y, z'
_cell_length_a     91.681665
_cell_length_b     91.740619
_cell_length_c     36.407715
_cell_angle_alpha  90.007573
_cell_angle_beta   89.996
_cell_angle_gamma 119.99026
loop_
_atom_site_label
_atom_site_type_symbol
_atom_site_fract_x
_atom_site_fract_y
_atom_site_fract_z
_atom_type_partial_charge
Li0 Li 0.47575 0.11433 0.06026 0.0
Li1 Li 0.50193 0.1296 0.09882 0.0
Li2 Li 0.48836 0.14384 0.07284 0.0
Li3 Li 0.50335 0.13524 0.03249 0.0
C4 C 0.47127 0.12981 0.1347 0.0
N5 N 0.45671 0.14079 0.1861 0.0
C6 C 0.47802 0.13418 0.17007 0.0
C7 C 0.45697 0.13081 0.12564 0.0
C8 C 0.4705 0.13974 0.19563 0.0
C9 C 0.44985 0.13647 0.15195 0.0
C10 C 0.51018 0.11012 0.05406 0.0
C11 C 0.53985 0.11931 0.05419 0.0
N12 N 0.53617 0.1033 0.04674 0.0
C13 C 0.50669 0.09376 0.04641 0.0
C14 C 0.52689 0.12302 0.05801 0.0
C15 C 0.52001 0.09057 0.04281 0.0
C16 C 0.45767 0.08213 0.03095 0.0
N17 N 0.45623 0.09321 0.05317 0.0
C18 C 0.42803 0.07258 0.06893 0.0
C19 C 0.44177 0.08887 0.07176 0.0
C20 C 0.42935 0.06056 0.04738 0.0
C21 C 0.44437 0.06564 0.02778 0.0
H22 H 0.46939 0.08596 0.01669 0.0
H23 H 0.44102 0.09791 0.08947 0.0
C24 C 0.52292 0.14253 0.15962 0.0
N25 N 0.51379 0.12823 0.1398 0.0
C26 C 0.5318 0.14243 0.19059 0.0
C27 C 0.52186 0.11291 0.17995 0.0
C28 C 0.51304 0.11355 0.1493 0.0
C29 C 0.53139 0.12749 0.20113 0.0
H30 H 0.52305 0.15394 0.1516 0.0
H31 H 0.50559 0.10235 0.13307 0.0
C32 C 0.4704 0.1358 0.00423 0.0
N33 N 0.44933 0.14265 0.96265 0.0
C34 C 0.47679 0.14683 0.97441 0.0
C35 C 0.45323 0.12801 0.01249 0.0
C36 C 0.46595 0.1502 0.95385 0.0
C37 C 0.4428 0.1317 0.99125 0.0
C38 C 0.52266 0.16785 0.06303 0.0
C39 C 0.51713 0.17466 0.03574 0.0
C40 C 0.5383 0.17791 0.07967 0.0
C41 C 0.52738 0.19146 0.02543 0.0
C42 C 0.5482 0.19465 0.06857 0.0
N43 N 0.54258 0.20102 0.04191 0.0
C44 C 0.49289 0.16983 0.11699 0.0
C45 C 0.47484 0.16674 0.06738 0.0
C46 C 0.49117 0.1829 0.13156 0.0
N47 N 0.48462 0.16189 0.08578 0.0
C48 C 0.47296 0.17999 0.08072 0.0
C49 C 0.48114 0.18822 0.11337 0.0
H50 H 0.50067 0.16577 0.13093 0.0
H51 H 0.46851 0.16044 0.04244 0.0
C52 C 0.50988 0.12557 0.96547 0.0
N53 N 0.51642 0.13872 0.98929 0.0
C54 C 0.51871 0.12607 0.93384 0.0
C55 C 0.54071 0.15388 0.9513 0.0
C56 C 0.53158 0.1527 0.98295 0.0
C57 C 0.5344 0.14039 0.9263 0.0
H58 H 0.49791 0.11449 0.97155 0.0
H59 H 0.53679 0.16288 0.00251 0.0
O60 O 0.47867 0.12464 0.10913 0.0
O61 O 0.49726 0.11345 0.05745 0.0
O62 O 0.48081 0.13223 0.02438 0.0
O63 O 0.51274 0.15151 0.07399 0.0
H64 H 0.48897 0.13334 0.1777 0.0
H65 H 0.45166 0.12764 0.09836 0.0
H66 H 0.47565 0.14324 0.22304 0.0
H67 H 0.43891 0.1375 0.14515 0.0
H68 H 0.55283 0.12917 0.05714 0.0
H69 H 0.49382 0.08363 0.04333 0.0
H70 H 0.52985 0.13576 0.06392 0.0
H71 H 0.51749 0.07796 0.0369 0.0
H72 H 0.41666 0.06937 0.08409 0.0
H73 H 0.4462 0.05683 0.0114 0.0
H74 H 0.53868 0.15389 0.20644 0.0
H75 H 0.52133 0.10116 0.18676 0.0
H76 H 0.48999 0.15269 0.96715 0.0
H77 H 0.44802 0.11925 0.03507 0.0
H78 H 0.47075 0.15879 0.93082 0.0
H79 H 0.42951 0.12585 0.99748 0.0
H80 H 0.50504 0.16708 0.02275 0.0
H81 H 0.54276 0.17282 0.10087 0.0
H82 H 0.52324 0.19689 0.00435 0.0
H83 H 0.56035 0.20258 0.08116 0.0
H84 H 0.4975 0.18861 0.15711 0.0
H85 H 0.46534 0.18384 0.06538 0.0
H86 H 0.51344 0.11517 0.91601 0.0
H87 H 0.55261 0.16527 0.9466 0.0
Li88 Li 0.37136 0.50389 0.27273 0.0
Li89 Li 0.36023 0.47788 0.23074 0.0
Li90 Li 0.36752 0.50573 0.20707 0.0
Li91 Li 0.34368 0.49087 0.24455 0.0
C92 C 0.39715 0.50819 0.21214 0.0
N93 N 0.42543 0.52726 0.1698 0.0
C94 C 0.40007 0.50128 0.18072 0.0
C95 C 0.40865 0.52475 0.22222 0.0
C96 C 0.41444 0.51114 0.15962 0.0
C97 C 0.42287 0.5342 0.20041 0.0
C98 C 0.3393 0.4717 0.30354 0.0
C99 C 0.31203 0.44778 0.31686 0.0
N100 N 0.31228 0.4544 0.35044 0.0
C101 C 0.33939 0.47817 0.33836 0.0
C102 C 0.3256 0.45629 0.29285 0.0
C103 C 0.32558 0.46927 0.3616 0.0
C104 C 0.37809 0.52243 0.33716 0.0
N105 N 0.38408 0.51475 0.31485 0.0
C106 C 0.4076 0.52257 0.35447 0.0
C107 C 0.39854 0.51469 0.32268 0.0
C108 C 0.40153 0.53033 0.37842 0.0
C109 C 0.3866 0.53024 0.36943 0.0
H110 H 0.36656 0.5223 0.33001 0.0
H111 H 0.40296 0.50845 0.30432 0.0
C112 C 0.36297 0.45344 0.18895 0.0
N113 N 0.36099 0.45799 0.22329 0.0
C114 C 0.36535 0.43968 0.18407 0.0
C115 C 0.36289 0.43523 0.24982 0.0
C116 C 0.3606 0.44908 0.25342 0.0
C117 C 0.3657 0.43062 0.21487 0.0
H118 H 0.36316 0.46079 0.16554 0.0
H119 H 0.35911 0.45312 0.28038 0.0
C120 C 0.35514 0.52559 0.23601 0.0
N121 N 0.34396 0.54682 0.21161 0.0
C122 C 0.34361 0.52067 0.20714 0.0
C123 C 0.36098 0.54128 0.25256 0.0
C124 C 0.3381 0.53158 0.19518 0.0
C125 C 0.35519 0.55185 0.2398 0.0
C126 C 0.33402 0.47332 0.17523 0.0
C127 C 0.32889 0.47975 0.1463 0.0
C128 C 0.32528 0.45602 0.18222 0.0
C129 C 0.31481 0.4688 0.1255 0.0
C130 C 0.31128 0.44549 0.16077 0.0
N131 N 0.30635 0.45205 0.13314 0.0
C132 C 0.37564 0.51301 0.13242 0.0
C133 C 0.38639 0.53706 0.17086 0.0
C134 C 0.38381 0.52307 0.10202 0.0
N135 N 0.37721 0.52012 0.16597 0.0
C136 C 0.39476 0.5476 0.14121 0.0
C137 C 0.39368 0.54061 0.10628 0.0
H138 H 0.36845 0.49947 0.12954 0.0
H139 H 0.38758 0.54234 0.19799 0.0
C140 C 0.32193 0.4954 0.2878 0.0
N141 N 0.32185 0.48701 0.257 0.0
C142 C 0.30697 0.4935 0.3019 0.0
C143 C 0.29203 0.47481 0.25147 0.0
C144 C 0.30731 0.47686 0.23866 0.0
C145 C 0.29171 0.48314 0.28365 0.0
H146 H 0.33369 0.5034 0.3018 0.0
H147 H 0.30745 0.47033 0.21421 0.0
O148 O 0.38287 0.49894 0.23243 0.0
O149 O 0.35254 0.48043 0.28006 0.0
O150 O 0.36076 0.51516 0.24819 0.0
O151 O 0.34791 0.48385 0.19554 0.0
H152 H 0.39123 0.48851 0.17247 0.0
H153 H 0.40647 0.53032 0.2463 0.0
H154 H 0.41681 0.50601 0.13508 0.0
H155 H 0.43182 0.54707 0.2077 0.0
H156 H 0.30128 0.4359 0.30879 0.0
H157 H 0.34993 0.48999 0.34724 0.0
H158 H 0.3254 0.451 0.26625 0.0
H159 H 0.32543 0.4742 0.3885 0.0
H160 H 0.41904 0.52232 0.36063 0.0
H161 H 0.38163 0.53626 0.38702 0.0
H162 H 0.36732 0.43643 0.15664 0.0
H163 H 0.36332 0.42876 0.27432 0.0
H164 H 0.3389 0.50854 0.19429 0.0
H165 H 0.36992 0.54526 0.27498 0.0
H166 H 0.32916 0.52792 0.17286 0.0
H167 H 0.35961 0.56404 0.25231 0.0
H168 H 0.33573 0.49303 0.13983 0.0
H169 H 0.32926 0.45074 0.20385 0.0
H170 H 0.31065 0.47362 0.10318 0.0
H171 H 0.30435 0.43209 0.16604 0.0
H172 H 0.38285 0.51711 0.07575 0.0
H173 H 0.40209 0.56105 0.14567 0.0
H174 H 0.30741 0.49993 0.32715 0.0
H175 H 0.28064 0.46691 0.23609 0.0
Li176 Li 0.88011 0.36091 0.39947 0.0
Li177 Li 0.86351 0.37164 0.42984 0.0
Li178 Li 0.8498 0.34213 0.40547 0.0
Li179 Li 0.85967 0.36628 0.36388 0.0
C180 C 0.87379 0.346 0.46739 0.0
N181 N 0.88821 0.33232 0.5121 0.0
C182 C 0.88122 0.35374 0.50068 0.0
C183 C 0.8735 0.33119 0.45706 0.0
C184 C 0.8885 0.34666 0.52284 0.0
C185 C 0.8809 0.3245 0.47998 0.0
C186 C 0.8884 0.39934 0.39753 0.0
C187 C 0.88824 0.42554 0.39824 0.0
N188 N 0.90408 0.43339 0.41247 0.0
C189 C 0.90474 0.40769 0.41181 0.0
C190 C 0.88013 0.40834 0.39038 0.0
C191 C 0.91243 0.4249 0.41931 0.0
C192 C 0.90676 0.35727 0.37008 0.0
N193 N 0.90145 0.3625 0.39951 0.0
C194 C 0.92756 0.37168 0.43041 0.0
C195 C 0.91146 0.36962 0.42928 0.0
C196 C 0.93353 0.36668 0.40023 0.0
C197 C 0.92293 0.35933 0.36979 0.0
H198 H 0.89859 0.35186 0.34657 0.0
H199 H 0.90709 0.37412 0.45178 0.0
C200 C 0.84909 0.38446 0.47946 0.0
N201 N 0.86367 0.38511 0.46941 0.0
C202 C 0.84873 0.39354 0.50987 0.0
C203 C 0.87843 0.40379 0.51895 0.0
C204 C 0.87818 0.39447 0.48845 0.0
C205 C 0.86352 0.4033 0.53022 0.0
H206 H 0.83763 0.37657 0.4644 0.0
H207 H 0.88951 0.39444 0.48034 0.0
C208 C 0.85798 0.33269 0.33978 0.0
N209 N 0.84605 0.30385 0.29783 0.0
C210 C 0.84688 0.32979 0.31074 0.0
C211 C 0.86322 0.32106 0.34713 0.0
C212 C 0.84095 0.3151 0.28993 0.0
C213 C 0.85697 0.30651 0.32573 0.0
C214 C 0.82841 0.35939 0.3891 0.0
C215 C 0.81417 0.34464 0.37733 0.0
C216 C 0.82859 0.3747 0.38731 0.0
C217 C 0.80041 0.3455 0.36344 0.0
C218 C 0.8146 0.37504 0.37318 0.0
N219 N 0.80092 0.36056 0.36161 0.0
C220 C 0.83086 0.31663 0.45439 0.0
C221 C 0.82284 0.30795 0.39284 0.0
C222 C 0.81854 0.301 0.46738 0.0
N223 N 0.83286 0.31981 0.41774 0.0
C224 C 0.8102 0.29213 0.40467 0.0
C225 C 0.80784 0.28855 0.44246 0.0
H226 H 0.83869 0.32636 0.47371 0.0
H227 H 0.82426 0.31086 0.36393 0.0
C228 C 0.87115 0.38821 0.30444 0.0
N229 N 0.85689 0.37511 0.31854 0.0
C230 C 0.87053 0.39621 0.27243 0.0
C231 C 0.84057 0.3768 0.2692 0.0
C232 C 0.8418 0.36912 0.30126 0.0
C233 C 0.85506 0.39063 0.25455 0.0
H234 H 0.88304 0.39259 0.31833 0.0
H235 H 0.8307 0.35838 0.3122 0.0
O236 O 0.86678 0.35287 0.44511 0.0
O237 O 0.8806 0.38246 0.39035 0.0
O238 O 0.86404 0.34707 0.36023 0.0
O239 O 0.84196 0.35877 0.40292 0.0
H240 H 0.88145 0.36515 0.5092 0.0
H241 H 0.86758 0.32492 0.43169 0.0
H242 H 0.89438 0.35258 0.54857 0.0
H243 H 0.88082 0.31307 0.47226 0.0
H244 H 0.88196 0.43265 0.39297 0.0
H245 H 0.91137 0.40093 0.41723 0.0
H246 H 0.8676 0.40212 0.37879 0.0
H247 H 0.92503 0.4315 0.43058 0.0
H248 H 0.93551 0.37777 0.45399 0.0
H249 H 0.92718 0.35543 0.34594 0.0
H250 H 0.83689 0.39252 0.51797 0.0
H251 H 0.89014 0.41124 0.53363 0.0
H252 H 0.84279 0.3387 0.30452 0.0
H253 H 0.87209 0.32327 0.36895 0.0
H254 H 0.83226 0.31264 0.26753 0.0
H255 H 0.86086 0.29737 0.33121 0.0
H256 H 0.81376 0.33268 0.37868 0.0
H257 H 0.83939 0.38619 0.39681 0.0
H258 H 0.78933 0.33419 0.35405 0.0
H259 H 0.8146 0.38681 0.37149 0.0
H260 H 0.81735 0.29877 0.49672 0.0
H261 H 0.80202 0.28304 0.38449 0.0
H262 H 0.88199 0.40691 0.26227 0.0
H263 H 0.82845 0.37191 0.2559 0.0
Li264 Li 0.51534 0.87832 0.56363 0.0
Li265 Li 0.48893 0.85945 0.59853 0.0
Li266 Li 0.50627 0.84919 0.56479 0.0
Li267 Li 0.49011 0.85835 0.53177 0.0
C268 C 0.52475 0.87571 0.63073 0.0
N269 N 0.54973 0.89953 0.6752 0.0
C270 C 0.52059 0.88296 0.65971 0.0
C271 C 0.5416 0.88044 0.62466 0.0
C272 C 0.5334 0.89501 0.68183 0.0
C273 C 0.55405 0.89255 0.64734 0.0
C274 C 0.48777 0.88575 0.54191 0.0
C275 C 0.46569 0.89093 0.52191 0.0
N276 N 0.4761 0.90149 0.49549 0.0
C277 C 0.49827 0.89668 0.51464 0.0
C278 C 0.47136 0.88287 0.54569 0.0
C279 C 0.49213 0.90451 0.49142 0.0
C280 C 0.54776 0.90606 0.5444 0.0
N281 N 0.53368 0.90063 0.56524 0.0
C282 C 0.54495 0.9275 0.59387 0.0
C283 C 0.53196 0.91101 0.58923 0.0
C284 C 0.55976 0.93346 0.57314 0.0
C285 C 0.56106 0.9226 0.54787 0.0
H286 H 0.54868 0.8976 0.52513 0.0
H287 H 0.52047 0.90637 0.60496 0.0
C288 C 0.4717 0.84437 0.66407 0.0
N289 N 0.47594 0.85735 0.64045 0.0
C290 C 0.4626 0.84298 0.69592 0.0
C291 C 0.4624 0.86831 0.67826 0.0
C292 C 0.47159 0.86926 0.64693 0.0
C293 C 0.45784 0.85506 0.70328 0.0
H294 H 0.47547 0.83516 0.6582 0.0
H295 H 0.4755 0.87965 0.62805 0.0
C296 C 0.52204 0.85756 0.50324 0.0
N297 N 0.53885 0.84345 0.46855 0.0
C298 C 0.51459 0.8466 0.4736 0.0
C299 C 0.53806 0.86139 0.51511 0.0
C300 C 0.5233 0.8396 0.45643 0.0
C301 C 0.54634 0.8541 0.49728 0.0
C302 C 0.46674 0.82674 0.55311 0.0
C303 C 0.46667 0.81909 0.51987 0.0
C304 C 0.45162 0.8214 0.57198 0.0
C305 C 0.45143 0.80626 0.50591 0.0
C306 C 0.43665 0.80851 0.55714 0.0
N307 N 0.43686 0.80127 0.52468 0.0
C308 C 0.52222 0.83373 0.59984 0.0
C309 C 0.50721 0.81948 0.54623 0.0
C310 C 0.52542 0.82075 0.60805 0.0
N311 N 0.51299 0.83273 0.56975 0.0
C312 C 0.51015 0.80623 0.55332 0.0
C313 C 0.51894 0.80654 0.58518 0.0
H314 H 0.5264 0.84421 0.61851 0.0
H315 H 0.4998 0.81887 0.52268 0.0
C316 C 0.48406 0.86154 0.45675 0.0
N317 N 0.47645 0.85578 0.48982 0.0
C318 C 0.47461 0.86095 0.42613 0.0
C319 C 0.4497 0.84875 0.46427 0.0
C320 C 0.45964 0.84964 0.49412 0.0
C321 C 0.45718 0.85452 0.4297 0.0
H322 H 0.49755 0.86702 0.45437 0.0
H323 H 0.45397 0.8458 0.52096 0.0
O324 O 0.51241 0.86418 0.6082 0.0
O325 O 0.49338 0.87755 0.5641 0.0
O326 O 0.51367 0.86446 0.52061 0.0
O327 O 0.48149 0.83933 0.56734 0.0
H328 H 0.50764 0.87948 0.66487 0.0
H329 H 0.54506 0.87496 0.60242 0.0
H330 H 0.53037 0.9008 0.7042 0.0
H331 H 0.56715 0.89643 0.64275 0.0
H332 H 0.45298 0.88872 0.52432 0.0
H333 H 0.51094 0.89891 0.51109 0.0
H334 H 0.46299 0.87425 0.5663 0.0
H335 H 0.50008 0.91293 0.47006 0.0
H336 H 0.54329 0.9356 0.61302 0.0
H337 H 0.57226 0.92679 0.53127 0.0
H338 H 0.45924 0.83254 0.71445 0.0
H339 H 0.45924 0.87803 0.68328 0.0
H340 H 0.50215 0.84335 0.46417 0.0
H341 H 0.54398 0.86974 0.53811 0.0
H342 H 0.51765 0.83105 0.43357 0.0
H343 H 0.55871 0.85689 0.50634 0.0
H344 H 0.47818 0.82327 0.50457 0.0
H345 H 0.45144 0.8272 0.59773 0.0
H346 H 0.45118 0.80032 0.48006 0.0
H347 H 0.42485 0.80427 0.5714 0.0
H348 H 0.53202 0.8214 0.63321 0.0
H349 H 0.50507 0.79558 0.53476 0.0
H350 H 0.48097 0.86592 0.40021 0.0
H351 H 0.43632 0.84366 0.46832 0.0
Li352 Li 0.63493 0.51958 0.73189 0.0
Li353 Li 0.62484 0.49168 0.76582 0.0
Li354 Li 0.65195 0.50645 0.73579 0.0
Li355 Li 0.62755 0.49331 0.6992 0.0
C356 C 0.65688 0.52082 0.80134 0.0
N357 N 0.68413 0.53282 0.84841 0.0
C358 C 0.65651 0.5112 0.83146 0.0
C359 C 0.67102 0.53667 0.7955 0.0
C360 C 0.67043 0.51746 0.85487 0.0
C361 C 0.6847 0.54247 0.8195 0.0
C362 C 0.59719 0.48793 0.71519 0.0
C363 C 0.57325 0.46023 0.70573 0.0
N364 N 0.56674 0.4668 0.68165 0.0
C365 C 0.59023 0.49442 0.69047 0.0
C366 C 0.58863 0.4707 0.72299 0.0
C367 C 0.57483 0.48353 0.67376 0.0
C368 C 0.62621 0.54304 0.70489 0.0
N369 N 0.63365 0.53948 0.73299 0.0
C370 C 0.63727 0.56337 0.7667 0.0
C371 C 0.6394 0.54942 0.76327 0.0
C372 C 0.62876 0.5669 0.73908 0.0
C373 C 0.62351 0.55669 0.70746 0.0
H374 H 0.62188 0.53494 0.68103 0.0
H375 H 0.64525 0.54626 0.78524 0.0
C376 C 0.61639 0.46775 0.822 0.0
N377 N 0.61237 0.47874 0.80644 0.0
C378 C 0.6076 0.45844 0.85279 0.0
C379 C 0.59048 0.47169 0.85026 0.0
C380 C 0.5997 0.48085 0.81973 0.0
C381 C 0.59448 0.46039 0.86732 0.0
H382 H 0.62657 0.4664 0.81074 0.0
H383 H 0.59686 0.48973 0.80669 0.0
C384 C 0.66066 0.52842 0.67352 0.0
N385 N 0.68797 0.55364 0.63658 0.0
C386 C 0.66625 0.52485 0.64082 0.0
C387 C 0.66877 0.54489 0.68704 0.0
C388 C 0.68014 0.53775 0.62267 0.0
C389 C 0.68261 0.55744 0.66807 0.0
C390 C 0.64123 0.47298 0.71633 0.0
C391 C 0.65177 0.47985 0.6859 0.0
C392 C 0.6369 0.45687 0.72849 0.0
C393 C 0.65779 0.47045 0.66797 0.0
C394 C 0.64318 0.44785 0.70982 0.0
N395 N 0.6534 0.45477 0.6802 0.0
C396 C 0.67446 0.49927 0.76873 0.0
C397 C 0.6887 0.52366 0.73162 0.0
C398 C 0.68965 0.50174 0.78262 0.0
N399 N 0.67419 0.51034 0.74431 0.0
C400 C 0.70427 0.52659 0.74475 0.0
C401 C 0.70479 0.51575 0.77127 0.0
H402 H 0.66276 0.48891 0.77879 0.0
H403 H 0.68829 0.53244 0.71261 0.0
C404 C 0.6154 0.48969 0.62687 0.0
N405 N 0.61691 0.48115 0.6557 0.0
C406 C 0.60635 0.48103 0.59566 0.0
C407 C 0.60109 0.45503 0.62404 0.0
C408 C 0.60998 0.46415 0.65488 0.0
C409 C 0.59896 0.46341 0.59397 0.0
H410 H 0.62081 0.5032 0.62862 0.0
H411 H 0.611 0.45759 0.67849 0.0
O412 O 0.64356 0.51465 0.77746 0.0
O413 O 0.61254 0.49826 0.73084 0.0
O414 O 0.64689 0.51597 0.69122 0.0
O415 O 0.63517 0.48194 0.73441 0.0
H416 H 0.64568 0.49895 0.83652 0.0
H417 H 0.67156 0.5443 0.77238 0.0
H418 H 0.67037 0.51008 0.8781 0.0
H419 H 0.69579 0.55463 0.81505 0.0
H420 H 0.56655 0.44686 0.71131 0.0
H421 H 0.59672 0.5077 0.68399 0.0
H422 H 0.59395 0.46542 0.74166 0.0
H423 H 0.56933 0.48837 0.65442 0.0
H424 H 0.64188 0.57104 0.7912 0.0
H425 H 0.6167 0.55871 0.68561 0.0
H426 H 0.61096 0.44975 0.86497 0.0
H427 H 0.58057 0.47367 0.86086 0.0
H428 H 0.65988 0.51228 0.6294 0.0
H429 H 0.66455 0.54797 0.71198 0.0
H430 H 0.68465 0.53515 0.59744 0.0
H431 H 0.68907 0.57021 0.67838 0.0
H432 H 0.6553 0.49231 0.67633 0.0
H433 H 0.62875 0.45137 0.75204 0.0
H434 H 0.66597 0.47562 0.64436 0.0
H435 H 0.63992 0.43535 0.71889 0.0
H436 H 0.68952 0.49292 0.80259 0.0
H437 H 0.71569 0.53758 0.73543 0.0
H438 H 0.60482 0.48806 0.57359 0.0
H439 H 0.5959 0.44152 0.62394 0.0
Li440 Li 0.13483 0.62901 0.86619 0.0
Li441 Li 0.1437 0.65273 0.9059 0.0
Li442 Li 0.1307 0.62516 0.9326 0.0
Li443 Li 0.114 0.6351 0.89644 0.0
C444 C 0.16802 0.64341 0.89121 0.0
N445 N 0.20008 0.65725 0.8623 0.0
C446 C 0.17295 0.65491 0.86227 0.0
C447 C 0.17941 0.63898 0.90556 0.0
C448 C 0.18921 0.66177 0.84801 0.0
C449 C 0.19556 0.6461 0.89053 0.0
C450 C 0.13279 0.66146 0.8388 0.0
C451 C 0.12602 0.68333 0.82771 0.0
N452 N 0.13586 0.68803 0.79714 0.0
C453 C 0.14265 0.66636 0.80699 0.0
C454 C 0.12424 0.66988 0.84903 0.0
C455 C 0.14412 0.67988 0.78642 0.0
C456 C 0.1256 0.61493 0.79677 0.0
N457 N 0.13784 0.61946 0.82251 0.0
C458 C 0.15153 0.60814 0.78615 0.0
C459 C 0.15063 0.61618 0.81791 0.0
C460 C 0.13891 0.60305 0.75918 0.0
C461 C 0.12584 0.60662 0.76486 0.0
H462 H 0.1154 0.61743 0.80154 0.0
H463 H 0.16 0.61947 0.83908 0.0
C464 C 0.17162 0.67536 0.94434 0.0
N465 N 0.16134 0.675 0.91707 0.0
C466 C 0.18402 0.69062 0.95871 0.0
C467 C 0.17544 0.70506 0.91592 0.0
C468 C 0.16315 0.68944 0.90233 0.0
C469 C 0.18588 0.70574 0.9449 0.0
H470 H 0.16984 0.66369 0.95573 0.0
H471 H 0.15483 0.68895 0.8809 0.0
C472 C 0.1107 0.59701 0.88873 0.0
N473 N 0.10441 0.56447 0.8797 0.0
C474 C 0.09444 0.58406 0.88057 0.0
C475 C 0.12377 0.59343 0.89232 0.0
C476 C 0.09152 0.56768 0.87611 0.0
C477 C 0.12034 0.5769 0.88764 0.0
C478 C 0.13147 0.65592 0.96937 0.0
C479 C 0.13846 0.65449 0.00234 0.0
C480 C 0.13096 0.67063 0.96205 0.0
C481 C 0.14506 0.66789 0.02719 0.0
C482 C 0.13772 0.68376 0.98756 0.0
N483 N 0.14459 0.68214 0.01932 0.0
C484 C 0.14451 0.61642 0.9915 0.0
C485 C 0.11513 0.59844 0.9834 0.0
C486 C 0.1444 0.60727 0.0222 0.0
N487 N 0.12999 0.61193 0.97305 0.0
C488 C 0.11448 0.58878 0.01362 0.0
C489 C 0.12923 0.59321 0.03372 0.0
H490 H 0.1561 0.62733 0.98274 0.0
H491 H 0.10378 0.5952 0.96818 0.0
C492 C 0.0814 0.62058 0.86882 0.0
N493 N 0.09243 0.63274 0.89183 0.0
C494 C 0.06473 0.61699 0.86695 0.0
C495 C 0.07135 0.63912 0.91115 0.0
C496 C 0.08781 0.64204 0.91268 0.0
C497 C 0.05942 0.62618 0.88865 0.0
H498 H 0.08544 0.61331 0.8528 0.0
H499 H 0.0968 0.65152 0.93103 0.0
O500 O 0.15219 0.63656 0.9058 0.0
O501 O 0.13098 0.64806 0.85886 0.0
O502 O 0.11378 0.61313 0.8929 0.0
O503 O 0.12535 0.64308 0.94428 0.0
H504 H 0.16435 0.65856 0.85108 0.0
H505 H 0.17578 0.6301 0.928 0.0
H506 H 0.19318 0.67069 0.8256 0.0
H507 H 0.2045 0.64277 0.9013 0.0
H508 H 0.11958 0.69004 0.83548 0.0
H509 H 0.14903 0.65973 0.79817 0.0
H510 H 0.11644 0.66618 0.8733 0.0
H511 H 0.15177 0.68386 0.76184 0.0
H512 H 0.16197 0.60589 0.78294 0.0
H513 H 0.11561 0.60265 0.74541 0.0
H514 H 0.192 0.69056 0.98056 0.0
H515 H 0.17642 0.71644 0.90462 0.0
H516 H 0.08419 0.58662 0.87774 0.0
H517 H 0.13644 0.60328 0.8986 0.0
H518 H 0.07899 0.55753 0.8698 0.0
H519 H 0.13033 0.57394 0.8903 0.0
H520 H 0.13888 0.6432 0.00863 0.0
H521 H 0.1258 0.67208 0.93654 0.0
H522 H 0.1506 0.66698 0.0527 0.0
H523 H 0.1376 0.69528 0.982 0.0
H524 H 0.15603 0.61139 0.03711 0.0
H525 H 0.10255 0.57791 0.02098 0.0
H526 H 0.05602 0.60666 0.84976 0.0
H527 H 0.06799 0.64673 0.92792 0.0
Li528 Li 0.85079 0.50764 0.89947 0.0
Li529 Li 0.85942 0.49209 0.93619 0.0
Li530 Li 0.87988 0.5175 0.90325 0.0
Li531 Li 0.86143 0.49128 0.86779 0.0
C532 C 0.85848 0.52345 0.9642 0.0
N533 N 0.84501 0.53946 0.00436 0.0
C534 C 0.8483 0.51551 0.9947 0.0
C535 C 0.86195 0.5396 0.95436 0.0
C536 C 0.84159 0.52381 0.01461 0.0
C537 C 0.85497 0.54746 0.97492 0.0
C538 C 0.82439 0.47691 0.90196 0.0
C539 C 0.79801 0.46974 0.87286 0.0
N540 N 0.79051 0.46659 0.90641 0.0
C541 C 0.81642 0.47356 0.93616 0.0
C542 C 0.81512 0.4749 0.87002 0.0
C543 C 0.79927 0.46834 0.93782 0.0
C544 C 0.83377 0.51995 0.85796 0.0
N545 N 0.83431 0.51437 0.89224 0.0
C546 C 0.80981 0.51556 0.90979 0.0
C547 C 0.82274 0.51228 0.91818 0.0
C548 C 0.80871 0.52092 0.87427 0.0
C549 C 0.82107 0.52337 0.84839 0.0
H550 H 0.84279 0.52111 0.83746 0.0
H551 H 0.82309 0.50742 0.94492 0.0
C552 C 0.86538 0.48655 0.00934 0.0
N553 N 0.85628 0.47893 0.97871 0.0
C554 C 0.86456 0.47695 0.03981 0.0
C555 C 0.84481 0.45187 0.00678 0.0
C556 C 0.84604 0.46197 0.97692 0.0
C557 C 0.85431 0.45934 0.03863 0.0
H558 H 0.87355 0.50006 0.00973 0.0
H559 H 0.83918 0.45626 0.95189 0.0
C560 C 0.87695 0.52735 0.83577 0.0
N561 N 0.89893 0.55373 0.79156 0.0
C562 C 0.88471 0.52439 0.80592 0.0
C563 C 0.8802 0.54368 0.84287 0.0
C564 C 0.89582 0.53791 0.78395 0.0
C565 C 0.89141 0.55686 0.82029 0.0
C566 C 0.88678 0.48965 0.92744 0.0
C567 C 0.89958 0.50064 0.9511 0.0
C568 C 0.88131 0.47244 0.92856 0.0
C569 C 0.9067 0.49422 0.97557 0.0
C570 C 0.88872 0.4665 0.9535 0.0
N571 N 0.90115 0.47742 0.97629 0.0
C572 C 0.90685 0.54864 0.92902 0.0
C573 C 0.91266 0.53666 0.87724 0.0
C574 C 0.92333 0.56221 0.92884 0.0
N575 N 0.90191 0.53628 0.90339 0.0
C576 C 0.92907 0.55015 0.87548 0.0
C577 C 0.93456 0.56304 0.90162 0.0
H578 H 0.89808 0.54784 0.94987 0.0
H579 H 0.90849 0.52639 0.85792 0.0
C580 C 0.85065 0.47826 0.79699 0.0
N581 N 0.86031 0.47872 0.82576 0.0
C582 C 0.85024 0.46985 0.76472 0.0
C583 C 0.86973 0.46256 0.79242 0.0
C584 C 0.86981 0.47117 0.82407 0.0
C585 C 0.8599 0.46188 0.76215 0.0
H586 H 0.8435 0.48469 0.79892 0.0
H587 H 0.8777 0.47211 0.84703 0.0
O588 O 0.8653 0.5156 0.94462 0.0
O589 O 0.84123 0.48232 0.89983 0.0
O590 O 0.8662 0.51433 0.8579 0.0
O591 O 0.87924 0.49562 0.9042 0.0
H592 H 0.84547 0.50301 0.00269 0.0
H593 H 0.86991 0.54596 0.93102 0.0
H594 H 0.83362 0.51778 0.03814 0.0
H595 H 0.85747 0.55992 0.96749 0.0
H596 H 0.79071 0.46827 0.84839 0.0
H597 H 0.82344 0.4752 0.96118 0.0
H598 H 0.82111 0.47752 0.84337 0.0
H599 H 0.79296 0.4658 0.96411 0.0
H600 H 0.80056 0.51355 0.93063 0.0
H601 H 0.82052 0.52713 0.82046 0.0
H602 H 0.87195 0.48323 0.06394 0.0
H603 H 0.83695 0.43834 0.00449 0.0
H604 H 0.88236 0.51184 0.80003 0.0
H605 H 0.87419 0.54615 0.86568 0.0
H606 H 0.90201 0.53583 0.76091 0.0
H607 H 0.89412 0.56958 0.8256 0.0
H608 H 0.90385 0.51397 0.95091 0.0
H609 H 0.8712 0.4637 0.91092 0.0
H610 H 0.91657 0.50257 0.99414 0.0
H611 H 0.88451 0.4532 0.95488 0.0
H612 H 0.92729 0.5719 0.94964 0.0
H613 H 0.93755 0.55025 0.85462 0.0
H614 H 0.84244 0.46956 0.74208 0.0
H615 H 0.87759 0.45685 0.79132 0.0
Li616 Li 0.34145 0.8523 0.06316 0.0
Li617 Li 0.3665 0.86216 0.10173 0.0
Li618 Li 0.36111 0.88196 0.06455 0.0
Li619 Li 0.37013 0.86387 0.03425 0.0
C620 C 0.33363 0.86141 0.12676 0.0
N621 N 0.30425 0.84865 0.16708 0.0
C622 C 0.33165 0.85214 0.15868 0.0
C623 C 0.32076 0.86438 0.11558 0.0
C624 C 0.31668 0.84576 0.17864 0.0
C625 C 0.30597 0.85775 0.13625 0.0
C626 C 0.35967 0.83028 0.07307 0.0
C627 C 0.37726 0.81763 0.07391 0.0
N628 N 0.36428 0.80334 0.08831 0.0
C629 C 0.34644 0.81539 0.08741 0.0
C630 C 0.37515 0.83135 0.06586 0.0
C631 C 0.34904 0.80194 0.09512 0.0
C632 C 0.31193 0.83467 0.02264 0.0
N633 N 0.31854 0.83557 0.05651 0.0
C634 C 0.29306 0.81147 0.07637 0.0
C635 C 0.30948 0.82435 0.08332 0.0
C636 C 0.28601 0.81002 0.04132 0.0
C637 C 0.29562 0.82197 0.01443 0.0
H638 H 0.3195 0.84349 0.00155 0.0
H639 H 0.31512 0.82512 0.10981 0.0
C640 C 0.38841 0.87399 0.16166 0.0
N641 N 0.37579 0.8597 0.14649 0.0
C642 C 0.39647 0.87321 0.19346 0.0
C643 C 0.37793 0.84306 0.19441 0.0
C644 C 0.37025 0.84443 0.1625 0.0
C645 C 0.39136 0.85757 0.2101 0.0
H646 H 0.39239 0.88601 0.1487 0.0
H647 H 0.35984 0.83332 0.15069 0.0
C648 C 0.3484 0.87727 0.99653 0.0
N649 N 0.34289 0.89744 0.94882 0.0
C650 C 0.35863 0.88413 0.9656 0.0
C651 C 0.33523 0.88047 0.00292 0.0
C652 C 0.35567 0.89434 0.94187 0.0
C653 C 0.33269 0.89076 0.97857 0.0
C654 C 0.39957 0.88885 0.07011 0.0
C655 C 0.40966 0.90569 0.05983 0.0
C656 C 0.40711 0.87939 0.07971 0.0
C657 C 0.42714 0.91271 0.05874 0.0
C658 C 0.42463 0.88686 0.07833 0.0
N659 N 0.43419 0.90322 0.06791 0.0
C660 C 0.35675 0.90884 0.08922 0.0
C661 C 0.37308 0.91415 0.03512 0.0
C662 C 0.35914 0.92512 0.08834 0.0
N663 N 0.36375 0.90376 0.06286 0.0
C664 C 0.37549 0.93036 0.03276 0.0
C665 C 0.3686 0.93604 0.05977 0.0
H666 H 0.34955 0.90035 0.11119 0.0
H667 H 0.37883 0.9099 0.01508 0.0
C668 C 0.37566 0.84643 0.9778 0.0
N669 N 0.38208 0.86177 0.99398 0.0
C670 C 0.38363 0.8443 0.94728 0.0
C671 C 0.40461 0.87384 0.95059 0.0
C672 C 0.39618 0.87541 0.98088 0.0
C673 C 0.39831 0.85814 0.93333 0.0
H674 H 0.36427 0.83586 0.98849 0.0
H675 H 0.40069 0.88759 0.99338 0.0
O676 O 0.34819 0.86773 0.10683 0.0
O677 O 0.35727 0.84352 0.06517 0.0
O678 O 0.35123 0.86741 0.02033 0.0
O679 O 0.38243 0.8818 0.07121 0.0
H680 H 0.34153 0.84982 0.16785 0.0
H681 H 0.32216 0.87166 0.09115 0.0
H682 H 0.31494 0.83848 0.2033 0.0
H683 H 0.29586 0.85986 0.12781 0.0
H684 H 0.38919 0.81831 0.06855 0.0
H685 H 0.33433 0.81426 0.09282 0.0
H686 H 0.38538 0.84256 0.05376 0.0
H687 H 0.33895 0.79039 0.10648 0.0
H688 H 0.28607 0.80258 0.09799 0.0
H689 H 0.29089 0.82115 0.9868 0.0
H690 H 0.40684 0.88471 0.2044 0.0
H691 H 0.37333 0.8308 0.20678 0.0
H692 H 0.36881 0.8817 0.96013 0.0
H693 H 0.32711 0.87513 0.02654 0.0
H694 H 0.36356 0.89983 0.91796 0.0
H695 H 0.32262 0.89344 0.98332 0.0
H696 H 0.40405 0.91324 0.05262 0.0
H697 H 0.39955 0.8665 0.0886 0.0
H698 H 0.43509 0.9257 0.05065 0.0
H699 H 0.43062 0.87967 0.08568 0.0
H700 H 0.35376 0.92917 0.10977 0.0
H701 H 0.38317 0.93858 0.01078 0.0
H702 H 0.3784 0.83198 0.9348 0.0
H703 H 0.41569 0.88489 0.9402 0.0
Li704 Li 0.48705 0.34346 0.23236 0.0
Li705 Li 0.50011 0.36786 0.26915 0.0
Li706 Li 0.47351 0.36009 0.2355 0.0
Li707 Li 0.50143 0.36976 0.20043 0.0
C708 C 0.4675 0.33597 0.29965 0.0
N709 N 0.44716 0.31046 0.34754 0.0
C710 C 0.47436 0.33308 0.33121 0.0
C711 C 0.45022 0.32616 0.2929 0.0
C712 C 0.46389 0.32005 0.35495 0.0
C713 C 0.44017 0.31325 0.31731 0.0
C714 C 0.519 0.35104 0.24036 0.0
C715 C 0.5365 0.33981 0.22043 0.0
N716 N 0.53312 0.33099 0.25234 0.0
C717 C 0.51585 0.34201 0.2731 0.0
C718 C 0.52952 0.35007 0.21391 0.0
C719 C 0.52304 0.33188 0.27859 0.0
C720 C 0.48965 0.31917 0.19334 0.0
N721 N 0.48313 0.32104 0.22536 0.0
C722 C 0.47221 0.29199 0.2399 0.0
C723 C 0.47464 0.30788 0.24881 0.0
C724 C 0.47837 0.28971 0.20641 0.0
C725 C 0.48725 0.30353 0.18308 0.0
H726 H 0.49663 0.32989 0.17553 0.0
H727 H 0.46972 0.30958 0.27429 0.0
C728 C 0.50482 0.38407 0.33731 0.0
N729 N 0.51213 0.37865 0.31251 0.0
C730 C 0.5138 0.39321 0.36813 0.0
C731 C 0.53741 0.39041 0.34793 0.0
C732 C 0.52807 0.3816 0.31721 0.0
C733 C 0.53039 0.39656 0.37378 0.0
H734 H 0.49215 0.38165 0.3326 0.0
H735 H 0.53365 0.37731 0.29683 0.0
C736 C 0.46937 0.33725 0.16872 0.0
N737 N 0.45162 0.3091 0.12509 0.0
C738 C 0.47465 0.33707 0.13279 0.0
C739 C 0.4549 0.3232 0.18224 0.0
C740 C 0.46554 0.3227 0.11121 0.0
C741 C 0.44615 0.30906 0.15984 0.0
C742 C 0.50506 0.39806 0.25038 0.0
C743 C 0.49795 0.4063 0.26911 0.0
C744 C 0.52257 0.40563 0.24763 0.0
C745 C 0.50853 0.42199 0.28503 0.0
C746 C 0.5327 0.42132 0.26396 0.0
N747 N 0.52554 0.4291 0.28218 0.0
C748 C 0.45041 0.36902 0.26304 0.0
C749 C 0.44302 0.35491 0.20569 0.0
C750 C 0.43678 0.3718 0.26101 0.0
N751 N 0.45347 0.3611 0.23514 0.0
C752 C 0.42911 0.35714 0.20281 0.0
C753 C 0.42612 0.36616 0.23012 0.0
H754 H 0.45894 0.37374 0.28617 0.0
H755 H 0.44579 0.34872 0.18381 0.0
C756 C 0.51953 0.37397 0.13536 0.0
N757 N 0.51394 0.38167 0.15866 0.0
C758 C 0.52842 0.38221 0.10372 0.0
C759 C 0.52565 0.40619 0.12078 0.0
C760 C 0.51672 0.39743 0.15196 0.0
C761 C 0.53159 0.39856 0.09607 0.0
H762 H 0.51679 0.36128 0.14103 0.0
H763 H 0.51193 0.40317 0.17071 0.0
O764 O 0.47752 0.34876 0.2763 0.0
O765 O 0.51173 0.36072 0.23421 0.0
O766 O 0.47835 0.3511 0.19051 0.0
O767 O 0.49498 0.38245 0.23562 0.0
H768 H 0.48762 0.34085 0.33739 0.0
H769 H 0.44461 0.32856 0.26923 0.0
H770 H 0.46904 0.31759 0.37935 0.0
H771 H 0.4268 0.30549 0.31232 0.0
H772 H 0.5446 0.33886 0.20012 0.0
H773 H 0.50779 0.34269 0.29386 0.0
H774 H 0.53226 0.35712 0.1886 0.0
H775 H 0.52059 0.32472 0.30369 0.0
H776 H 0.46538 0.28157 0.25863 0.0
H777 H 0.49246 0.30228 0.15734 0.0
H778 H 0.50791 0.3979 0.38679 0.0
H779 H 0.54999 0.39237 0.3513 0.0
H780 H 0.48569 0.34789 0.1217 0.0
H781 H 0.45062 0.32313 0.2099 0.0
H782 H 0.46955 0.32236 0.08344 0.0
H783 H 0.43503 0.29804 0.1701 0.0
H784 H 0.48444 0.40061 0.27148 0.0
H785 H 0.52825 0.39934 0.23348 0.0
H786 H 0.50321 0.42849 0.29972 0.0
H787 H 0.54627 0.42728 0.26227 0.0
H788 H 0.43517 0.379 0.28256 0.0
H789 H 0.42108 0.35228 0.17887 0.0
H790 H 0.53246 0.3757 0.08513 0.0
H791 H 0.52794 0.41883 0.11623 0.0
Li792 Li 0.1318 0.50341 0.43457 0.0
Li793 Li 0.14148 0.488 0.39898 0.0
Li794 Li 0.12815 0.50136 0.36785 0.0
Li795 Li 0.11168 0.47563 0.40674 0.0
C796 C 0.16522 0.52186 0.41 0.0
N797 N 0.19726 0.54083 0.4386 0.0
C798 C 0.16975 0.51665 0.44194 0.0
C799 C 0.17699 0.53668 0.39252 0.0
C800 C 0.18601 0.52642 0.45599 0.0
C801 C 0.19312 0.54611 0.40744 0.0
C802 C 0.13007 0.47003 0.46833 0.0
C803 C 0.12429 0.44201 0.48302 0.0
N804 N 0.13309 0.44789 0.51485 0.0
C805 C 0.13889 0.47577 0.50139 0.0
C806 C 0.12256 0.45299 0.45921 0.0
C807 C 0.14034 0.4644 0.52446 0.0
C808 C 0.123 0.50967 0.50341 0.0
N809 N 0.13456 0.51704 0.47619 0.0
C810 C 0.148 0.54313 0.50884 0.0
C811 C 0.14685 0.53349 0.47814 0.0
C812 C 0.13616 0.53585 0.53723 0.0
C813 C 0.12351 0.51892 0.53429 0.0
H814 H 0.11327 0.49661 0.50083 0.0
H815 H 0.15559 0.53924 0.4557 0.0
C816 C 0.1687 0.49123 0.36087 0.0
N817 N 0.15974 0.48391 0.39185 0.0
C818 C 0.18199 0.48888 0.35057 0.0
C819 C 0.17737 0.47231 0.40551 0.0
C820 C 0.16389 0.47471 0.4144 0.0
C821 C 0.18639 0.47927 0.37297 0.0
H822 H 0.16535 0.49879 0.3439 0.0
H823 H 0.15685 0.46922 0.43919 0.0
C824 C 0.10732 0.50994 0.40809 0.0
N825 N 0.10022 0.53582 0.41243 0.0
C826 C 0.09097 0.50646 0.41596 0.0
C827 C 0.12007 0.52659 0.40247 0.0
C828 C 0.08763 0.51972 0.41802 0.0
C829 C 0.11622 0.53949 0.40477 0.0
C830 C 0.12952 0.47069 0.3363 0.0
C831 C 0.13505 0.47745 0.30126 0.0
C832 C 0.13024 0.45642 0.34699 0.0
C833 C 0.14149 0.46999 0.27774 0.0
C834 C 0.13679 0.44936 0.32271 0.0
N835 N 0.14225 0.45624 0.28889 0.0
C836 C 0.14228 0.52191 0.3062 0.0
C837 C 0.11304 0.51171 0.31375 0.0
C838 C 0.14254 0.53043 0.27424 0.0
N839 N 0.12767 0.51278 0.32507 0.0
C840 C 0.11278 0.52026 0.28227 0.0
C841 C 0.12766 0.5297 0.26206 0.0
H842 H 0.15368 0.52242 0.31585 0.0
H843 H 0.10158 0.50422 0.32918 0.0
C844 C 0.079 0.45692 0.43409 0.0
N845 N 0.09045 0.45609 0.4119 0.0
C846 C 0.06255 0.44343 0.43587 0.0
C847 C 0.07025 0.42822 0.39315 0.0
C848 C 0.0865 0.44211 0.39185 0.0
C849 C 0.0579 0.42889 0.41478 0.0
H850 H 0.08252 0.46831 0.44945 0.0
H851 H 0.09584 0.44187 0.37421 0.0
O852 O 0.14942 0.51244 0.39549 0.0
O853 O 0.12844 0.481 0.44564 0.0
O854 O 0.11081 0.4971 0.40631 0.0
O855 O 0.12347 0.47805 0.35992 0.0
H856 H 0.16085 0.50519 0.45568 0.0
H857 H 0.17367 0.54087 0.36773 0.0
H858 H 0.18968 0.52253 0.4807 0.0
H859 H 0.20235 0.55763 0.39423 0.0
H860 H 0.11862 0.4288 0.4762 0.0
H861 H 0.14453 0.48888 0.50919 0.0
H862 H 0.11551 0.44828 0.43405 0.0
H863 H 0.14719 0.46868 0.55005 0.0
H864 H 0.15778 0.55623 0.50999 0.0
H865 H 0.11418 0.5129 0.55574 0.0
H866 H 0.1889 0.49469 0.32562 0.0
H867 H 0.18058 0.46493 0.42352 0.0
H868 H 0.08097 0.49365 0.42043 0.0
H869 H 0.13281 0.52953 0.39643 0.0
H870 H 0.07503 0.51722 0.42408 0.0
H871 H 0.12596 0.55242 0.4005 0.0
H872 H 0.13443 0.48835 0.29231 0.0
H873 H 0.12611 0.45106 0.37399 0.0
H874 H 0.14589 0.47516 0.25064 0.0
H875 H 0.13761 0.43844 0.33082 0.0
H876 H 0.15427 0.53767 0.25946 0.0
H877 H 0.10104 0.5193 0.27348 0.0
H878 H 0.05344 0.44472 0.45238 0.0
H879 H 0.06734 0.41723 0.37683 0.0
Li880 Li 0.62682 0.1335 0.60197 0.0
Li881 Li 0.65067 0.14211 0.56437 0.0
Li882 Li 0.62326 0.12964 0.53578 0.0
Li883 Li 0.63264 0.11241 0.57479 0.0
C884 C 0.6414 0.1667 0.57764 0.0
N885 N 0.65482 0.19862 0.60701 0.0
C886 C 0.65253 0.17152 0.60729 0.0
C887 C 0.63713 0.17812 0.56281 0.0
C888 C 0.65917 0.18771 0.62178 0.0
C889 C 0.64404 0.1942 0.57808 0.0
C890 C 0.65875 0.13114 0.63232 0.0
C891 C 0.67984 0.12345 0.64521 0.0
N892 N 0.68484 0.13372 0.6751 0.0
C893 C 0.66394 0.14142 0.66348 0.0
C894 C 0.66662 0.12191 0.62335 0.0
C895 C 0.67722 0.14264 0.68462 0.0
C896 C 0.61621 0.12829 0.67512 0.0
N897 N 0.61734 0.13737 0.64468 0.0
C898 C 0.6026 0.14932 0.67472 0.0
C899 C 0.6108 0.1478 0.6439 0.0
C900 C 0.60083 0.13972 0.70614 0.0
C901 C 0.60782 0.12917 0.70627 0.0
H902 H 0.62138 0.11997 0.67473 0.0
H903 H 0.61152 0.15457 0.61905 0.0
C904 C 0.67418 0.17032 0.52748 0.0
N905 N 0.6732 0.15934 0.55376 0.0
C906 C 0.68976 0.18299 0.5151 0.0
C907 C 0.70321 0.17313 0.55755 0.0
C908 C 0.6873 0.16052 0.56893 0.0
C909 C 0.70454 0.18447 0.53008 0.0
H910 H 0.66277 0.16901 0.51562 0.0
H911 H 0.68633 0.15161 0.5894 0.0
C912 C 0.59632 0.10761 0.59332 0.0
N913 N 0.56759 0.09868 0.6338 0.0
C914 C 0.59146 0.09557 0.62114 0.0
C915 C 0.58652 0.11501 0.58584 0.0
C916 C 0.5769 0.09125 0.64136 0.0
C917 C 0.57205 0.11035 0.60668 0.0
C918 C 0.65457 0.12851 0.50375 0.0
C919 C 0.65627 0.13796 0.47228 0.0
C920 C 0.6668 0.12416 0.5119 0.0
C921 C 0.6704 0.14322 0.44988 0.0
C922 C 0.68075 0.12966 0.48882 0.0
N923 N 0.68226 0.13902 0.45858 0.0
C924 C 0.61661 0.14326 0.47352 0.0
C925 C 0.59647 0.11467 0.48531 0.0
C926 C 0.60806 0.14312 0.44171 0.0
N927 N 0.61078 0.12913 0.49427 0.0
C928 C 0.58743 0.11402 0.45391 0.0
C929 C 0.5933 0.12833 0.4315 0.0
H930 H 0.62802 0.15457 0.48152 0.0
H931 H 0.5922 0.10363 0.50241 0.0
C932 C 0.62845 0.08411 0.61391 0.0
N933 N 0.63034 0.09098 0.57998 0.0
C934 C 0.62526 0.06764 0.61766 0.0
C935 C 0.62646 0.06587 0.55151 0.0
C936 C 0.62967 0.08239 0.54907 0.0
C937 C 0.62388 0.05818 0.58612 0.0
H938 H 0.62905 0.09132 0.63795 0.0
H939 H 0.63111 0.0882 0.52247 0.0
O940 O 0.63471 0.15092 0.56292 0.0
O941 O 0.64554 0.12956 0.61178 0.0
O942 O 0.61084 0.11246 0.57411 0.0
O943 O 0.64108 0.12368 0.52662 0.0
H944 H 0.65606 0.1629 0.61882 0.0
H945 H 0.62854 0.17457 0.53979 0.0
H946 H 0.66781 0.19161 0.64473 0.0
H947 H 0.64082 0.20316 0.56693 0.0
H948 H 0.68611 0.11647 0.63843 0.0
H949 H 0.65771 0.14832 0.67144 0.0
H950 H 0.66265 0.11371 0.59972 0.0
H951 H 0.68141 0.15061 0.7087 0.0
H952 H 0.59717 0.15744 0.67359 0.0
H953 H 0.6067 0.12162 0.73011 0.0
H954 H 0.69024 0.19162 0.49422 0.0
H955 H 0.71435 0.17384 0.56961 0.0
H956 H 0.59897 0.08978 0.62732 0.0
H957 H 0.59021 0.12444 0.56454 0.0
H958 H 0.57304 0.08204 0.66316 0.0
H959 H 0.5644 0.11606 0.60141 0.0
H960 H 0.6469 0.14139 0.4655 0.0
H961 H 0.66558 0.1167 0.53588 0.0
H962 H 0.67197 0.15068 0.42564 0.0
H963 H 0.69038 0.12649 0.49496 0.0
H964 H 0.61288 0.15447 0.42537 0.0
H965 H 0.57618 0.10235 0.44679 0.0
H966 H 0.62354 0.06225 0.64487 0.0
H967 H 0.62524 0.05898 0.52646 0.0
Li968 Li 0.50569 0.65162 0.73515 0.0
Li969 Li 0.49235 0.6289 0.77768 0.0
Li970 Li 0.52015 0.63645 0.74602 0.0
Li971 Li 0.49242 0.62357 0.71137 0.0
C972 C 0.52065 0.66437 0.79962 0.0
N973 N 0.53194 0.69518 0.83309 0.0
C974 C 0.50918 0.66935 0.81045 0.0
C975 C 0.53784 0.67495 0.80607 0.0
C976 C 0.51515 0.68502 0.82722 0.0
C977 C 0.54331 0.69051 0.82299 0.0
C978 C 0.4647 0.62706 0.74371 0.0
C979 C 0.43731 0.60211 0.74724 0.0
N980 N 0.43055 0.61172 0.7577 0.0
C981 C 0.45747 0.6367 0.75434 0.0
C982 C 0.45454 0.60964 0.74002 0.0
C983 C 0.44019 0.6287 0.76135 0.0
C984 C 0.49603 0.67359 0.70664 0.0
N985 N 0.50933 0.67334 0.72241 0.0
C986 C 0.52692 0.70288 0.71235 0.0
C987 C 0.52461 0.68757 0.72548 0.0
C988 C 0.5134 0.70347 0.69578 0.0
C989 C 0.49777 0.68858 0.69318 0.0
H990 H 0.48421 0.66201 0.70335 0.0
H991 H 0.53513 0.68696 0.73706 0.0
C992 C 0.48179 0.60772 0.83891 0.0
N993 N 0.48021 0.6201 0.82216 0.0
C994 C 0.47281 0.60021 0.87092 0.0
C995 C 0.46115 0.6187 0.86867 0.0
C996 C 0.47036 0.62586 0.83663 0.0
C997 C 0.46222 0.6056 0.88612 0.0
H998 H 0.48995 0.6036 0.82723 0.0
H999 H 0.46964 0.636 0.82339 0.0
C1000 C 0.52203 0.65525 0.67327 0.0
N1001 N 0.53605 0.682 0.62485 0.0
C1002 C 0.51217 0.65654 0.64559 0.0
C1003 C 0.53904 0.66747 0.67615 0.0
C1004 C 0.51949 0.67019 0.62145 0.0
C1005 C 0.5459 0.68091 0.65141 0.0
C1006 C 0.49477 0.5975 0.74919 0.0
C1007 C 0.50656 0.59319 0.7368 0.0
C1008 C 0.47851 0.58479 0.75831 0.0
C1009 C 0.50178 0.57622 0.73312 0.0
C1010 C 0.47422 0.56797 0.75424 0.0
N1011 N 0.48585 0.56407 0.7418 0.0
C1012 C 0.54535 0.63425 0.78472 0.0
C1013 C 0.54867 0.63601 0.71996 0.0
C1014 C 0.55889 0.63144 0.78856 0.0
N1015 N 0.54037 0.63611 0.75077 0.0
C1016 C 0.56231 0.6333 0.72251 0.0
C1017 C 0.56727 0.63052 0.75708 0.0
H1018 H 0.53835 0.63426 0.80864 0.0
H1019 H 0.54418 0.63722 0.69329 0.0
C1020 C 0.46953 0.61347 0.65322 0.0
N1021 N 0.48022 0.60963 0.67093 0.0
C1022 C 0.46064 0.60432 0.62239 0.0
C1023 C 0.47393 0.58738 0.62848 0.0
C1024 C 0.48269 0.597 0.65898 0.0
C1025 C 0.46276 0.59103 0.60959 0.0
H1026 H 0.4681 0.62385 0.66276 0.0
H1027 H 0.49162 0.59448 0.67271 0.0
O1028 O 0.51509 0.64914 0.78301 0.0
O1029 O 0.48165 0.63471 0.73718 0.0
O1030 O 0.51499 0.64222 0.69775 0.0
O1031 O 0.49927 0.61406 0.75313 0.0
H1032 H 0.49585 0.66132 0.80541 0.0
H1033 H 0.54686 0.67121 0.79789 0.0
H1034 H 0.50643 0.68911 0.8355 0.0
H1035 H 0.55658 0.69888 0.82804 0.0
H1036 H 0.4293 0.58864 0.7445 0.0
H1037 H 0.46518 0.65019 0.75759 0.0
H1038 H 0.45987 0.60202 0.73152 0.0
H1039 H 0.43446 0.63599 0.76979 0.0
H1040 H 0.53917 0.71409 0.7149 0.0
H1041 H 0.48712 0.68838 0.67983 0.0
H1042 H 0.47394 0.59007 0.88324 0.0
H1043 H 0.45338 0.62346 0.87981 0.0
H1044 H 0.49897 0.64722 0.64309 0.0
H1045 H 0.54681 0.66673 0.69764 0.0
H1046 H 0.51198 0.67143 0.60008 0.0
H1047 H 0.55901 0.69054 0.65348 0.0
H1048 H 0.51921 0.60283 0.72976 0.0
H1049 H 0.46932 0.58784 0.76877 0.0
H1050 H 0.51075 0.57272 0.72334 0.0
H1051 H 0.46167 0.55801 0.76112 0.0
H1052 H 0.5624 0.62945 0.81571 0.0
H1053 H 0.56824 0.6324 0.69755 0.0
H1054 H 0.45249 0.60788 0.60831 0.0
H1055 H 0.4759 0.5772 0.61986 0.0
H1056 H 0.56245 0.15186 0.22506 0.0
H1057 H 0.52142 0.10235 0.25235 0.0
H1058 H 0.5771 0.15191 0.28072 0.0
H1059 H 0.53657 0.10198 0.30692 0.0
H1060 H 0.55944 0.11515 0.42226 0.0
H1061 H 0.54458 0.11467 0.36629 0.0
H1062 H 0.59191 0.13945 0.30763 0.0
H1063 H 0.60672 0.14026 0.36384 0.0
C1064 C 0.55656 0.14096 0.24288 0.0
C1065 C 0.54069 0.12714 0.23426 0.0
C1066 C 0.56508 0.14089 0.27458 0.0
C1067 C 0.55804 0.12695 0.29835 0.0
C1068 C 0.54228 0.11303 0.2895 0.0
C1069 C 0.53369 0.11314 0.25789 0.0
C1070 C 0.56662 0.12041 0.39732 0.0
C1071 C 0.58423 0.12781 0.39741 0.0
C1072 C 0.55812 0.12009 0.3652 0.0
C1073 C 0.56704 0.12703 0.3324 0.0
C1074 C 0.58466 0.13427 0.33251 0.0
C1075 C 0.59316 0.13471 0.36469 0.0
H1076 H 0.43512 0.55236 0.38696 0.0
H1077 H 0.38838 0.52652 0.44713 0.0
H1078 H 0.44988 0.56662 0.44311 0.0
H1079 H 0.40312 0.54025 0.50361 0.0
H1080 H 0.43052 0.58146 0.5883 0.0
H1081 H 0.4161 0.56682 0.53255 0.0
H1082 H 0.45944 0.56288 0.50084 0.0
H1083 H 0.47432 0.5786 0.55533 0.0
C1084 C 0.42807 0.54958 0.41236 0.0
C1085 C 0.41062 0.53843 0.41274 0.0
C1086 C 0.43651 0.55769 0.44459 0.0
C1087 C 0.4277 0.55465 0.47797 0.0
C1088 C 0.41027 0.54319 0.47832 0.0
C1089 C 0.40182 0.53526 0.44603 0.0
C1090 C 0.43707 0.57767 0.56924 0.0
C1091 C 0.45364 0.58131 0.57634 0.0
C1092 C 0.42869 0.56902 0.53747 0.0
C1093 C 0.43657 0.56361 0.51212 0.0
C1094 C 0.45305 0.56704 0.51946 0.0
C1095 C 0.4615 0.57585 0.55107 0.0
H1096 H 0.86163 0.47267 0.69145 0.0
H1097 H 0.85856 0.43158 0.75542 0.0
H1098 H 0.86262 0.45879 0.63515 0.0
H1099 H 0.85939 0.41761 0.69916 0.0
H1100 H 0.87957 0.40633 0.59549 0.0
H1101 H 0.87883 0.42082 0.65084 0.0
H1102 H 0.84537 0.43449 0.59705 0.0
H1103 H 0.84673 0.42065 0.54102 0.0
C1104 C 0.86097 0.46058 0.69344 0.0
C1105 C 0.86004 0.45322 0.72786 0.0
C1106 C 0.86154 0.45262 0.66119 0.0
C1107 C 0.86114 0.43711 0.66266 0.0
C1108 C 0.86004 0.42969 0.6971 0.0
C1109 C 0.85952 0.43767 0.72933 0.0
C1110 C 0.87225 0.41264 0.59525 0.0
C1111 C 0.86324 0.41236 0.56377 0.0
C1112 C 0.87164 0.42074 0.62718 0.0
C1113 C 0.86197 0.42873 0.62845 0.0
C1114 C 0.85305 0.42858 0.59689 0.0
C1115 C 0.85369 0.42049 0.56491 0.0
H1116 H 0.46382 0.84844 0.77312 0.0
H1117 H 0.43075 0.85965 0.70996 0.0
H1118 H 0.44897 0.84793 0.8293 0.0
H1119 H 0.41612 0.85944 0.76615 0.0
H1120 H 0.38365 0.84152 0.86965 0.0
H1121 H 0.39761 0.83948 0.81435 0.0
H1122 H 0.44599 0.86908 0.86685 0.0
H1123 H 0.432 0.87085 0.92239 0.0
C1124 C 0.4533 0.85066 0.77123 0.0
C1125 C 0.44845 0.85411 0.73718 0.0
C1126 C 0.44491 0.85051 0.80339 0.0
C1127 C 0.43141 0.85367 0.80209 0.0
C1128 C 0.42638 0.85682 0.76796 0.0
C1129 C 0.43485 0.85709 0.73586 0.0
C1130 C 0.39725 0.8474 0.86951 0.0
C1131 C 0.40675 0.85636 0.9003 0.0
C1132 C 0.40524 0.84636 0.83777 0.0
C1133 C 0.42288 0.85415 0.83628 0.0
C1134 C 0.43236 0.86284 0.86732 0.0
C1135 C 0.42438 0.86399 0.89896 0.0
H1136 H 0.52526 0.41863 0.0509 0.0
H1137 H 0.55883 0.39872 0.06468 0.0
H1138 H 0.54063 0.43361 0.99613 0.0
H1139 H 0.57363 0.41296 0.00872 0.0
H1140 H 0.60753 0.45561 0.93052 0.0
H1141 H 0.59237 0.44065 0.98569 0.0
H1142 H 0.54526 0.42865 0.93374 0.0
H1143 H 0.56051 0.4439 0.87888 0.0
C1144 C 0.53593 0.41746 0.04229 0.0
C1145 C 0.54084 0.40751 0.06231 0.0
C1146 C 0.54461 0.42586 0.01055 0.0
C1147 C 0.55834 0.42446 0.99793 0.0
C1148 C 0.56322 0.41447 0.01788 0.0
C1149 C 0.5546 0.40613 0.04973 0.0
C1150 C 0.59393 0.44965 0.93085 0.0
C1151 C 0.5852 0.45092 0.90044 0.0
C1152 C 0.58523 0.44105 0.96241 0.0
C1153 C 0.56759 0.43345 0.96418 0.0
C1154 C 0.55886 0.43461 0.93357 0.0
C1155 C 0.56758 0.4433 0.9021 0.0
H1156 H 0.11458 0.55039 0.2532 0.0
H1157 H 0.14076 0.52929 0.19515 0.0
H1158 H 0.11504 0.5657 0.19808 0.0
H1159 H 0.14067 0.544 0.13946 0.0
H1160 H 0.15323 0.58579 0.05728 0.0
H1161 H 0.15295 0.57087 0.11259 0.0
H1162 H 0.10335 0.56243 0.13911 0.0
H1163 H 0.10419 0.57848 0.08536 0.0
C1164 C 0.12026 0.5489 0.22843 0.0
C1165 C 0.12767 0.53871 0.22837 0.0
C1166 C 0.12046 0.55759 0.19677 0.0
C1167 C 0.12788 0.5561 0.16417 0.0
C1168 C 0.13514 0.54573 0.16417 0.0
C1169 C 0.13514 0.53723 0.196 0.0
C1170 C 0.14236 0.58098 0.07515 0.0
C1171 C 0.12876 0.58344 0.06678 0.0
C1172 C 0.14208 0.57216 0.10666 0.0
C1173 C 0.12812 0.56539 0.13043 0.0
C1174 C 0.11443 0.56767 0.12181 0.0
C1175 C 0.1148 0.57666 0.09055 0.0
H1176 H 0.46565 0.27305 0.14219 0.0
H1177 H 0.48604 0.26937 0.24639 0.0
H1178 H 0.46471 0.24721 0.12148 0.0
H1179 H 0.48522 0.24355 0.22559 0.0
H1180 H 0.50526 0.21671 0.14763 0.0
H1181 H 0.50237 0.23958 0.17349 0.0
H1182 H 0.45058 0.21526 0.13779 0.0
H1183 H 0.45313 0.19185 0.11314 0.0
C1184 C 0.46973 0.26656 0.16074 0.0
C1185 C 0.47598 0.27315 0.19575 0.0
C1186 C 0.46911 0.25178 0.14902 0.0
C1187 C 0.47497 0.2435 0.17192 0.0
C1188 C 0.48072 0.2498 0.20739 0.0
C1189 C 0.4811 0.26445 0.21935 0.0
C1190 C 0.49313 0.21599 0.14585 0.0
C1191 C 0.47939 0.20234 0.12842 0.0
C1192 C 0.49151 0.22914 0.16062 0.0
C1193 C 0.47623 0.22907 0.15782 0.0
C1194 C 0.46251 0.21558 0.14017 0.0
C1195 C 0.46404 0.20226 0.12584 0.0
H1196 H 0.28674 0.50706 0.31712 0.0
H1197 H 0.26022 0.4549 0.28284 0.0
H1198 H 0.26068 0.50386 0.34195 0.0
H1199 H 0.23395 0.45211 0.30622 0.0
H1200 H 0.19113 0.4676 0.30808 0.0
H1201 H 0.21627 0.46685 0.28817 0.0
H1202 H 0.23912 0.48571 0.39412 0.0
H1203 H 0.21386 0.48625 0.4142 0.0
C1204 C 0.27544 0.49486 0.31515 0.0
C1205 C 0.27567 0.48121 0.2981 0.0
C1206 C 0.26051 0.49308 0.3293 0.0
C1207 C 0.24541 0.47772 0.32616 0.0
C1208 C 0.24548 0.46409 0.30886 0.0
C1209 C 0.2605 0.46577 0.29523 0.0
C1210 C 0.20146 0.47134 0.32719 0.0
C1211 C 0.20069 0.47703 0.36255 0.0
C1212 C 0.21574 0.47083 0.31591 0.0
C1213 C 0.22957 0.47629 0.33962 0.0
C1214 C 0.2286 0.48151 0.37537 0.0
C1215 C 0.21418 0.48174 0.38688 0.0
H1216 H 0.73167 0.20549 0.57205 0.0
H1217 H 0.71482 0.19407 0.4595 0.0
H1218 H 0.75807 0.22963 0.55134 0.0
H1219 H 0.74105 0.21838 0.43886 0.0
H1220 H 0.7961 0.25694 0.41359 0.0
H1221 H 0.77231 0.23047 0.43525 0.0
H1222 H 0.76429 0.25701 0.52378 0.0
H1223 H 0.78767 0.28338 0.50193 0.0
C1224 C 0.73372 0.20801 0.54288 0.0
C1225 C 0.72116 0.19803 0.51739 0.0
C1226 C 0.74875 0.22188 0.53106 0.0
C1227 C 0.75154 0.22594 0.49353 0.0
C1228 C 0.73929 0.21549 0.46793 0.0
C1229 C 0.72422 0.2017 0.47976 0.0
C1230 C 0.78922 0.25712 0.43759 0.0
C1231 C 0.79383 0.27229 0.45606 0.0
C1232 C 0.77566 0.24197 0.45005 0.0
C1233 C 0.76655 0.24169 0.48133 0.0
C1234 C 0.7713 0.25679 0.50003 0.0
C1235 C 0.78472 0.27191 0.48748 0.0
H1236 H 0.49379 0.77387 0.58159 0.0
H1237 H 0.54551 0.80508 0.61604 0.0
H1238 H 0.49357 0.74928 0.60711 0.0
H1239 H 0.54508 0.78037 0.6427 0.0
H1240 H 0.53995 0.72725 0.65564 0.0
H1241 H 0.5424 0.75242 0.62651 0.0
H1242 H 0.49402 0.74044 0.6712 0.0
H1243 H 0.49163 0.7155 0.70051 0.0
C1244 C 0.50522 0.77545 0.59403 0.0
C1245 C 0.51967 0.79144 0.59684 0.0
C1246 C 0.50501 0.76139 0.60911 0.0
C1247 C 0.51922 0.76297 0.62735 0.0
C1248 C 0.53394 0.7788 0.62878 0.0
C1249 C 0.53415 0.79293 0.61375 0.0
C1250 C 0.52996 0.73015 0.65966 0.0
C1251 C 0.51554 0.71934 0.68015 0.0
C1252 C 0.53135 0.74451 0.64289 0.0
C1253 C 0.5183 0.74823 0.6462 0.0
C1254 C 0.5041 0.73766 0.66749 0.0
C1255 C 0.50275 0.7234 0.6843 0.0
H1256 H 0.71112 0.51402 0.84371 0.0
H1257 H 0.7348 0.52533 0.7369 0.0
H1258 H 0.73687 0.51746 0.8713 0.0
H1259 H 0.76063 0.52875 0.76453 0.0
H1260 H 0.80851 0.54517 0.83066 0.0
H1261 H 0.78395 0.54602 0.80732 0.0
H1262 H 0.75132 0.50109 0.86903 0.0
H1263 H 0.77572 0.50016 0.89205 0.0
C1264 C 0.72185 0.51722 0.82614 0.0
C1265 C 0.7209 0.51916 0.78807 0.0
C1266 C 0.73659 0.51922 0.84194 0.0
C1267 C 0.75071 0.52322 0.82004 0.0
C1268 C 0.74999 0.52581 0.78217 0.0
C1269 C 0.73521 0.52382 0.76632 0.0
C1270 C 0.79608 0.53553 0.83933 0.0
C1271 C 0.79405 0.52259 0.86318 0.0
C1272 C 0.78204 0.53602 0.82596 0.0
C1273 C 0.76572 0.52361 0.83628 0.0
C1274 C 0.76374 0.51099 0.86101 0.0
C1275 C 0.77774 0.51047 0.87428 0.0
H1276 H 0.20707 0.73502 0.90887 0.0
H1277 H 0.19341 0.71327 0.01743 0.0
H1278 H 0.22956 0.76104 0.93535 0.0
H1279 H 0.216 0.73921 0.04379 0.0
H1280 H 0.27305 0.77724 0.06226 0.0
H1281 H 0.24716 0.75287 0.04128 0.0
H1282 H 0.23551 0.7852 0.9766 0.0
H1283 H 0.26136 0.80975 0.99812 0.0
C1284 C 0.2087 0.73589 0.93841 0.0
C1285 C 0.19862 0.72203 0.96101 0.0
C1286 C 0.22156 0.75079 0.95357 0.0
C1287 C 0.2246 0.75208 0.99161 0.0
C1288 C 0.21411 0.73845 0.01433 0.0
C1289 C 0.20123 0.7236 0.99921 0.0
C1290 C 0.26479 0.77924 0.04433 0.0
C1291 C 0.26933 0.79545 0.03176 0.0
C1292 C 0.24996 0.76525 0.03222 0.0
C1293 C 0.23937 0.76714 0.00715 0.0
C1294 C 0.24357 0.78337 0.99553 0.0
C1295 C 0.25837 0.7974 0.00782 0.0
H1296 H 0.57468 0.1132 0.74027 0.0
H1297 H 0.60522 0.16735 0.74369 0.0
H1298 H 0.55844 0.11389 0.79301 0.0
H1299 H 0.58912 0.16802 0.79691 0.0
H1300 H 0.56879 0.15533 0.91909 0.0
H1301 H 0.58478 0.15592 0.86507 0.0
H1302 H 0.53855 0.12675 0.80482 0.0
H1303 H 0.52243 0.12684 0.858 0.0
C1304 C 0.57794 0.12522 0.75251 0.0
C1305 C 0.59119 0.14022 0.73815 0.0
C1306 C 0.56861 0.12562 0.78241 0.0
C1307 C 0.57257 0.14101 0.79887 0.0
C1308 C 0.5859 0.15601 0.78471 0.0
C1309 C 0.59503 0.15563 0.75431 0.0
C1310 C 0.56196 0.14934 0.89419 0.0
C1311 C 0.54424 0.14103 0.89312 0.0
C1312 C 0.57117 0.14961 0.86334 0.0
C1313 C 0.56286 0.14133 0.83097 0.0
C1314 C 0.54521 0.13307 0.82967 0.0
C1315 C 0.53601 0.13305 0.86026 0.0
H1316 H 0.42958 0.59698 0.90081 0.0
H1317 H 0.47229 0.59571 0.94735 0.0
H1318 H 0.41294 0.58266 0.95506 0.0
H1319 H 0.45546 0.58078 0.00075 0.0
H1320 H 0.42584 0.56734 0.10654 0.0
H1321 H 0.44218 0.58438 0.05455 0.0
H1322 H 0.40009 0.55484 0.98242 0.0
H1323 H 0.38349 0.53827 0.03473 0.0
C1324 C 0.43545 0.59375 0.92271 0.0
C1325 C 0.45225 0.59745 0.9197 0.0
C1326 C 0.42585 0.58537 0.9536 0.0
C1327 C 0.43284 0.58052 0.98218 0.0
C1328 C 0.44973 0.58448 0.97942 0.0
C1329 C 0.45932 0.59286 0.94858 0.0
C1330 C 0.41996 0.56467 0.07971 0.0
C1331 C 0.40336 0.55143 0.07479 0.0
C1332 C 0.4294 0.57431 0.04982 0.0
C1333 C 0.42248 0.57092 0.01429 0.0
C1334 C 0.40576 0.55789 0.00947 0.0
C1335 C 0.39631 0.54826 0.03938 0.0
H1336 H 0.827 0.4316 0.06792 0.0
H1337 H 0.88086 0.46317 0.07992 0.0
H1338 H 0.82666 0.41399 0.11856 0.0
H1339 H 0.88043 0.446 0.13134 0.0
H1340 H 0.87676 0.40214 0.1963 0.0
H1341 H 0.87612 0.41813 0.14347 0.0
H1342 H 0.8306 0.41525 0.18498 0.0
H1343 H 0.8312 0.39917 0.23777 0.0
C1344 C 0.83876 0.43478 0.08137 0.0
C1345 C 0.85395 0.4488 0.06994 0.0
C1346 C 0.83854 0.42479 0.1106 0.0
C1347 C 0.85352 0.42858 0.12895 0.0
C1348 C 0.8687 0.44261 0.11751 0.0
C1349 C 0.86892 0.45259 0.08834 0.0
C1350 C 0.86664 0.40495 0.19417 0.0
C1351 C 0.85408 0.39947 0.2213 0.0
C1352 C 0.86628 0.41413 0.16394 0.0
C1353 C 0.85338 0.41807 0.16015 0.0
C1354 C 0.84061 0.41226 0.18686 0.0
C1355 C 0.84095 0.40304 0.2171 0.0
H1356 H 0.4594 0.84656 0.35819 0.0
H1357 H 0.43187 0.86211 0.42913 0.0
H1358 H 0.44315 0.84706 0.30569 0.0
H1359 H 0.41509 0.86182 0.37702 0.0
H1360 H 0.40267 0.87886 0.2692 0.0
H1361 H 0.41839 0.87781 0.32204 0.0
H1362 H 0.41511 0.83225 0.27972 0.0
H1363 H 0.40005 0.83374 0.22599 0.0
C1364 C 0.44986 0.85005 0.3626 0.0
C1365 C 0.44695 0.85431 0.39786 0.0
C1366 C 0.4404 0.85013 0.33259 0.0
C1367 C 0.4278 0.85446 0.33716 0.0
C1368 C 0.42482 0.8586 0.37247 0.0
C1369 C 0.4343 0.85855 0.40244 0.0
C1370 C 0.40541 0.86869 0.27102 0.0
C1371 C 0.40016 0.85643 0.24328 0.0
C1372 C 0.41425 0.86797 0.30155 0.0
C1373 C 0.41802 0.85495 0.30511 0.0
C1374 C 0.41258 0.84256 0.2776 0.0
C1375 C 0.40376 0.84329 0.24703 0.0
H1376 H 0.60408 0.47287 0.52132 0.0
H1377 H 0.57067 0.43208 0.59279 0.0
H1378 H 0.58714 0.45737 0.46872 0.0
H1379 H 0.55466 0.41599 0.53994 0.0
H1380 H 0.51915 0.39694 0.44359 0.0
H1381 H 0.53534 0.41372 0.49567 0.0
H1382 H 0.58077 0.43464 0.43031 0.0
H1383 H 0.56435 0.41903 0.37737 0.0
C1384 C 0.59315 0.46059 0.52591 0.0
C1385 C 0.58882 0.45378 0.56149 0.0
C1386 C 0.58356 0.45155 0.49555 0.0
C1387 C 0.56951 0.43534 0.49986 0.0
C1388 C 0.56522 0.42852 0.53544 0.0
C1389 C 0.57464 0.43766 0.56583 0.0
C1390 C 0.53254 0.40534 0.44005 0.0
C1391 C 0.54037 0.40656 0.40607 0.0
C1392 C 0.54191 0.41479 0.47022 0.0
C1393 C 0.55944 0.42553 0.46745 0.0
C1394 C 0.56728 0.42671 0.4335 0.0
C1395 C 0.55787 0.41748 0.40318 0.0
H1396 H 0.16321 0.55514 0.58095 0.0
H1397 H 0.11065 0.53933 0.56595 0.0
H1398 H 0.16426 0.5718 0.63459 0.0
H1399 H 0.11175 0.55615 0.61927 0.0
H1400 H 0.12869 0.60477 0.68908 0.0
H1401 H 0.12796 0.58849 0.63543 0.0
H1402 H 0.14946 0.56431 0.69941 0.0
H1403 H 0.14947 0.57987 0.75366 0.0
C1404 C 0.15193 0.55532 0.58909 0.0
C1405 C 0.13684 0.54596 0.56949 0.0
C1406 C 0.15251 0.56475 0.61977 0.0
C1407 C 0.13809 0.56524 0.63091 0.0
C1408 C 0.12305 0.55604 0.61105 0.0
C1409 C 0.12239 0.54636 0.58079 0.0
C1410 C 0.13307 0.59584 0.69199 0.0
C1411 C 0.13911 0.59367 0.72592 0.0
C1412 C 0.13271 0.5866 0.66117 0.0
C1413 C 0.13867 0.5752 0.66339 0.0
C1414 C 0.14497 0.57318 0.69695 0.0
C1415 C 0.14506 0.5822 0.72795 0.0
H1416 H 0.40881 0.04239 0.10471 0.0
H1417 H 0.4192 0.03775 0.99077 0.0
H1418 H 0.38951 0.01231 0.10754 0.0
H1419 H 0.40112 0.00752 0.99459 0.0
H1420 H 0.36457 0.95318 0.00322 0.0
H1421 H 0.37483 0.98336 -4e-05 0.0
H1422 H 0.3929 0.98887 0.11176 0.0
H1423 H 0.38184 0.95869 0.11526 0.0
C1424 C 0.40684 0.03504 0.08004 0.0
C1425 C 0.41584 0.04256 0.04763 0.0
C1426 C 0.39593 0.01768 0.08188 0.0
C1427 C 0.39397 0.00734 0.05158 0.0
C1428 C 0.40218 0.01499 0.01852 0.0
C1429 C 0.41284 0.03238 0.01649 0.0
C1430 C 0.37044 0.96089 0.02723 0.0
C1431 C 0.37252 0.95372 0.05942 0.0
C1432 C 0.37643 0.97818 0.02535 0.0
C1433 C 0.38494 0.98868 0.0554 0.0
C1434 C 0.38622 0.98125 0.0882 0.0
C1435 C 0.37996 0.96394 0.09024 0.0
H1436 H 0.41689 0.37481 0.16582 0.0
H1437 H 0.40594 0.36904 0.28219 0.0
H1438 H 0.39848 0.38644 0.15787 0.0
H1439 H 0.38842 0.38183 0.27451 0.0
H1440 H 0.35233 0.40009 0.2498 0.0
H1441 H 0.36354 0.38086 0.25009 0.0
H1442 H 0.40215 0.41326 0.17317 0.0
H1443 H 0.39088 0.43217 0.17259 0.0
C1444 C 0.41034 0.37572 0.18968 0.0
C1445 C 0.4131 0.37113 0.22478 0.0
C1446 C 0.39994 0.38264 0.18514 0.0
C1447 C 0.39221 0.38537 0.2156 0.0
C1448 C 0.39413 0.37986 0.25038 0.0
C1449 C 0.4044 0.37275 0.25489 0.0
C1450 C 0.36308 0.40292 0.23261 0.0
C1451 C 0.37076 0.41766 0.21125 0.0
C1452 C 0.36951 0.39195 0.23284 0.0
C1453 C 0.38379 0.39554 0.2118 0.0
C1454 C 0.39096 0.4099 0.18922 0.0
C1455 C 0.3845 0.42079 0.18888 0.0
H1456 H 0.0404 0.40994 0.35513 0.0
H1457 H 0.03472 0.41685 0.47067 0.0
H1458 H 0.01039 0.39024 0.35061 0.0
H1459 H 0.00456 0.39818 0.46547 0.0
H1460 H 0.95067 0.36047 0.45351 0.0
H1461 H 0.98098 0.37125 0.45639 0.0
H1462 H 0.98662 0.39361 0.34896 0.0
H1463 H 0.95638 0.38229 0.34577 0.0
C1464 C 0.03284 0.40708 0.37976 0.0
C1465 C 0.04001 0.4152 0.4132 0.0
C1466 C 0.01554 0.39593 0.377 0.0
C1467 C 0.00495 0.39281 0.40747 0.0
C1468 C 0.01227 0.40016 0.44141 0.0
C1469 C 0.02959 0.41113 0.44428 0.0
C1470 C 0.95843 0.36741 0.43029 0.0
C1471 C 0.95126 0.37066 0.39953 0.0
C1472 C 0.97578 0.37366 0.43197 0.0
C1473 C 0.98633 0.38352 0.40315 0.0
C1474 C 0.97894 0.3859 0.3715 0.0
C1475 C 0.96158 0.37946 0.36965 0.0
H1476 H 0.57298 0.95099 0.63652 0.0
H1477 H 0.57694 0.95594 0.51847 0.0
H1478 H 0.59207 0.98121 0.64297 0.0
H1479 H 0.59586 0.98619 0.5248 0.0
H1480 H 0.59971 0.03502 0.63131 0.0
H1481 H 0.58772 0.00473 0.6306 0.0
H1482 H 0.62285 0.00954 0.54581 0.0
H1483 H 0.63498 0.04009 0.54662 0.0
C1484 C 0.57809 0.95854 0.61198 0.0
C1485 C 0.57331 0.9512 0.57699 0.0
C1486 C 0.589 0.97582 0.61565 0.0
C1487 C 0.59529 0.98612 0.5844 0.0
C1488 C 0.59135 0.97859 0.54944 0.0
C1489 C 0.58048 0.96127 0.54577 0.0
C1490 C 0.60522 0.02971 0.61321 0.0
C1491 C 0.61826 0.03998 0.5889 0.0
C1492 C 0.59833 0.0123 0.6128 0.0
C1493 C 0.6043 0.00471 0.58805 0.0
C1494 C 0.61784 0.01501 0.56485 0.0
C1495 C 0.62477 0.03248 0.5653 0.0
H1496 H 0.6199 0.57594 0.80344 0.0
H1497 H 0.62667 0.58771 0.68746 0.0
H1498 H 0.60897 0.5949 0.8117 0.0
H1499 H 0.61443 0.60569 0.69536 0.0
H1500 H 0.5974 0.64276 0.72084 0.0
H1501 H 0.6158 0.63057 0.71971 0.0
H1502 H 0.5828 0.59243 0.79684 0.0
H1503 H 0.56481 0.60476 0.79843 0.0
C1504 C 0.61933 0.58275 0.77971 0.0
C1505 C 0.62403 0.58009 0.74463 0.0
C1506 C 0.6128 0.59346 0.78441 0.0
C1507 C 0.61049 0.60158 0.75412 0.0
C1508 C 0.61606 0.5997 0.71937 0.0
C1509 C 0.62284 0.58914 0.71473 0.0
C1510 C 0.59428 0.63191 0.7379 0.0
C1511 C 0.57969 0.62472 0.75975 0.0
C1512 C 0.60477 0.6249 0.73718 0.0
C1513 C 0.60078 0.61049 0.75809 0.0
C1514 C 0.5865 0.60372 0.78093 0.0
C1515 C 0.57613 0.61079 0.78184 0.0
H1516 H 0.0412 0.62719 0.94757 0.0
H1517 H 0.03642 0.61425 0.83226 0.0
H1518 H 0.01114 0.61647 0.95101 0.0
H1519 H 0.0062 0.60202 0.83661 0.0
H1520 H 0.95195 0.5846 0.84604 0.0
H1521 H 0.98225 0.60418 0.8432 0.0
H1522 H 0.98736 0.59005 0.95388 0.0
H1523 H 0.95705 0.57141 0.95706 0.0
C1524 C 0.03383 0.62226 0.92277 0.0
C1525 C 0.04132 0.6214 0.88971 0.0
C1526 C 0.01646 0.61581 0.92493 0.0
C1527 C 0.00608 0.60803 0.89434 0.0
C1528 C 0.01369 0.60798 0.8608 0.0
C1529 C 0.03109 0.61474 0.85844 0.0
C1530 C 0.95963 0.58607 0.86992 0.0
C1531 C 0.95232 0.57656 0.90172 0.0
C1532 C 0.97698 0.59714 0.86827 0.0
C1533 C 0.9874 0.59858 0.89809 0.0
C1534 C 0.97983 0.58956 0.93052 0.0
C1535 C 0.96245 0.57878 0.93239 0.0
loop_
_geom_bond_atom_site_label_1
_geom_bond_atom_site_label_2
_geom_bond_distance
_geom_bond_site_symmetry_2
_ccdc_geom_bond_type
Li0 N17 1.990 . S
Li0 O60 1.956 . S
Li0 O61 1.970 . S
Li0 O62 1.961 . S
Li1 N25 1.990 . S
Li1 O60 1.970 . S
Li1 O61 1.956 . S
Li1 O63 1.961 . S
Li2 N47 1.990 . S
Li2 O60 1.961 . S
Li2 O62 1.956 . S
Li2 O63 1.970 . S
Li3 N53 1.990 1_554 S
Li3 O61 1.961 . S
Li3 O62 1.970 . S
Li3 O63 1.956 . S
C4 C6 1.348 . S
C4 C7 1.356 . S
C4 O60 1.325 . S
N5 C8 1.314 . S
N5 C9 1.279 . S
C6 C4 1.348 . S
C6 C8 1.353 . S
C6 H64 0.929 . S
C7 C4 1.356 . S
C7 C9 1.358 . S
C7 H65 0.930 . S
C8 N5 1.314 . S
C8 C6 1.353 . S
C8 H66 0.930 . S
C9 N5 1.279 . S
C9 C7 1.358 . S
C9 H67 0.930 . S
C10 C13 1.348 . S
C10 C14 1.356 . S
C10 O61 1.325 . S
C11 N12 1.279 . S
C11 C14 1.358 . S
C11 H68 0.930 . S
N12 C11 1.279 . S
N12 C15 1.314 . S
C13 C10 1.348 . S
C13 C15 1.353 . S
C13 H69 0.929 . S
C14 C10 1.356 . S
C14 C11 1.358 . S
C14 H70 0.930 . S
C15 N12 1.314 . S
C15 C13 1.353 . S
C15 H71 0.930 . S
C16 N17 1.314 . S
C16 C21 1.353 . S
C16 H22 0.930 . S
N17 Li0 1.990 . S
N17 C16 1.314 . S
N17 C19 1.279 . S
C18 C19 1.358 . S
C18 C20 1.356 . S
C18 H72 0.930 . S
C19 N17 1.279 . S
C19 C18 1.358 . S
C19 H23 0.930 . S
C20 C18 1.356 . S
C20 C21 1.348 . S
C21 C16 1.353 . S
C21 C20 1.348 . S
C21 H73 0.929 . S
H22 C16 0.930 . S
H23 C19 0.930 . S
C24 N25 1.314 . S
C24 C26 1.353 . S
C24 H30 0.930 . S
N25 Li1 1.990 . S
N25 C24 1.314 . S
N25 C28 1.279 . S
C26 C24 1.353 . S
C26 C29 1.348 . S
C26 H74 0.929 . S
C27 C28 1.358 . S
C27 C29 1.356 . S
C27 H75 0.930 . S
C28 N25 1.279 . S
C28 C27 1.358 . S
C28 H31 0.930 . S
C29 C26 1.348 . S
C29 C27 1.356 . S
H30 C24 0.930 . S
H31 C28 0.930 . S
C32 C34 1.348 1_554 S
C32 C35 1.356 . S
C32 O62 1.325 . S
N33 C36 1.314 . S
N33 C37 1.279 . S
C34 C32 1.348 1_556 S
C34 C36 1.353 . S
C34 H76 0.929 . S
C35 C32 1.356 . S
C35 C37 1.358 1_554 S
C35 H77 0.930 . S
C36 N33 1.314 . S
C36 C34 1.353 . S
C36 H78 0.930 . S
C37 N33 1.279 . S
C37 C35 1.358 1_556 S
C37 H79 0.930 . S
C38 C39 1.348 . S
C38 C40 1.356 . S
C38 O63 1.325 . S
C39 C38 1.348 . S
C39 C41 1.353 . S
C39 H80 0.929 . S
C40 C38 1.356 . S
C40 C42 1.358 . S
C40 H81 0.930 . S
C41 C39 1.353 . S
C41 N43 1.314 . S
C41 H82 0.930 . S
C42 C40 1.358 . S
C42 N43 1.279 . S
C42 H83 0.930 . S
N43 C41 1.314 . S
N43 C42 1.279 . S
C44 C46 1.353 . S
C44 N47 1.314 . S
C44 H50 0.930 . S
C45 N47 1.279 . S
C45 C48 1.358 . S
C45 H51 0.930 . S
C46 C44 1.353 . S
C46 C49 1.348 . S
C46 H84 0.929 . S
N47 Li2 1.990 . S
N47 C44 1.314 . S
N47 C45 1.279 . S
C48 C45 1.358 . S
C48 C49 1.356 . S
C48 H85 0.930 . S
C49 C46 1.348 . S
C49 C48 1.356 . S
H50 C44 0.930 . S
H51 C45 0.930 . S
C52 N53 1.314 . S
C52 C54 1.353 . S
C52 H58 0.930 . S
N53 Li3 1.990 1_556 S
N53 C52 1.314 . S
N53 C56 1.279 . S
C54 C52 1.353 . S
C54 C57 1.348 . S
C54 H86 0.929 . S
C55 C56 1.358 . S
C55 C57 1.356 . S
C55 H87 0.930 . S
C56 N53 1.279 . S
C56 C55 1.358 . S
C56 H59 0.930 . S
C57 C54 1.348 . S
C57 C55 1.356 . S
H58 C52 0.930 . S
H59 C56 0.930 . S
O60 Li0 1.956 . S
O60 Li1 1.970 . S
O60 Li2 1.961 . S
O60 C4 1.325 . S
O61 Li0 1.970 . S
O61 Li1 1.956 . S
O61 Li3 1.961 . S
O61 C10 1.325 . S
O62 Li0 1.961 . S
O62 Li2 1.956 . S
O62 Li3 1.970 . S
O62 C32 1.325 . S
O63 Li1 1.961 . S
O63 Li2 1.970 . S
O63 Li3 1.956 . S
O63 C38 1.325 . S
H64 C6 0.929 . S
H65 C7 0.930 . S
H66 C8 0.930 . S
H67 C9 0.930 . S
H68 C11 0.930 . S
H69 C13 0.929 . S
H70 C14 0.930 . S
H71 C15 0.930 . S
H72 C18 0.930 . S
H73 C21 0.929 . S
H74 C26 0.929 . S
H75 C27 0.930 . S
H76 C34 0.929 . S
H77 C35 0.930 . S
H78 C36 0.930 . S
H79 C37 0.930 . S
H80 C39 0.929 . S
H81 C40 0.930 . S
H82 C41 0.930 . S
H83 C42 0.930 . S
H84 C46 0.929 . S
H85 C48 0.930 . S
H86 C54 0.929 . S
H87 C55 0.930 . S
Li88 N105 1.990 . S
Li88 O148 1.956 . S
Li88 O149 1.970 . S
Li88 O150 1.961 . S
Li89 N113 1.990 . S
Li89 O148 1.970 . S
Li89 O149 1.956 . S
Li89 O151 1.961 . S
Li90 N135 1.990 . S
Li90 O148 1.961 . S
Li90 O150 1.956 . S
Li90 O151 1.970 . S
Li91 N141 1.990 . S
Li91 O149 1.961 . S
Li91 O150 1.970 . S
Li91 O151 1.956 . S
C92 C94 1.348 . S
C92 C95 1.356 . S
C92 O148 1.325 . S
N93 C96 1.314 . S
N93 C97 1.279 . S
C94 C92 1.348 . S
C94 C96 1.353 . S
C94 H152 0.929 . S
C95 C92 1.356 . S
C95 C97 1.358 . S
C95 H153 0.930 . S
C96 N93 1.314 . S
C96 C94 1.353 . S
C96 H154 0.930 . S
C97 N93 1.279 . S
C97 C95 1.358 . S
C97 H155 0.930 . S
C98 C101 1.348 . S
C98 C102 1.356 . S
C98 O149 1.325 . S
C99 N100 1.279 . S
C99 C102 1.358 . S
C99 H156 0.930 . S
N100 C99 1.279 . S
N100 C103 1.314 . S
C101 C98 1.348 . S
C101 C103 1.353 . S
C101 H157 0.929 . S
C102 C98 1.356 . S
C102 C99 1.358 . S
C102 H158 0.930 . S
C103 N100 1.314 . S
C103 C101 1.353 . S
C103 H159 0.930 . S
C104 N105 1.314 . S
C104 C109 1.353 . S
C104 H110 0.930 . S
N105 Li88 1.990 . S
N105 C104 1.314 . S
N105 C107 1.279 . S
C106 C107 1.358 . S
C106 C108 1.356 . S
C106 H160 0.930 . S
C107 N105 1.279 . S
C107 C106 1.358 . S
C107 H111 0.930 . S
C108 C106 1.356 . S
C108 C109 1.348 . S
C109 C104 1.353 . S
C109 C108 1.348 . S
C109 H161 0.929 . S
H110 C104 0.930 . S
H111 C107 0.930 . S
C112 N113 1.314 . S
C112 C114 1.353 . S
C112 H118 0.930 . S
N113 Li89 1.990 . S
N113 C112 1.314 . S
N113 C116 1.279 . S
C114 C112 1.353 . S
C114 C117 1.348 . S
C114 H162 0.929 . S
C115 C116 1.358 . S
C115 C117 1.356 . S
C115 H163 0.930 . S
C116 N113 1.279 . S
C116 C115 1.358 . S
C116 H119 0.930 . S
C117 C114 1.348 . S
C117 C115 1.356 . S
H118 C112 0.930 . S
H119 C116 0.930 . S
C120 C122 1.348 . S
C120 C123 1.356 . S
C120 O150 1.325 . S
N121 C124 1.314 . S
N121 C125 1.279 . S
C122 C120 1.348 . S
C122 C124 1.353 . S
C122 H164 0.929 . S
C123 C120 1.356 . S
C123 C125 1.358 . S
C123 H165 0.930 . S
C124 N121 1.314 . S
C124 C122 1.353 . S
C124 H166 0.930 . S
C125 N121 1.279 . S
C125 C123 1.358 . S
C125 H167 0.930 . S
C126 C127 1.348 . S
C126 C128 1.356 . S
C126 O151 1.325 . S
C127 C126 1.348 . S
C127 C129 1.353 . S
C127 H168 0.929 . S
C128 C126 1.356 . S
C128 C130 1.358 . S
C128 H169 0.930 . S
C129 C127 1.353 . S
C129 N131 1.314 . S
C129 H170 0.930 . S
C130 C128 1.358 . S
C130 N131 1.279 . S
C130 H171 0.930 . S
N131 C129 1.314 . S
N131 C130 1.279 . S
C132 C134 1.353 . S
C132 N135 1.314 . S
C132 H138 0.930 . S
C133 N135 1.279 . S
C133 C136 1.358 . S
C133 H139 0.930 . S
C134 C132 1.353 . S
C134 C137 1.348 . S
C134 H172 0.929 . S
N135 Li90 1.990 . S
N135 C132 1.314 . S
N135 C133 1.279 . S
C136 C133 1.358 . S
C136 C137 1.356 . S
C136 H173 0.930 . S
C137 C134 1.348 . S
C137 C136 1.356 . S
H138 C132 0.930 . S
H139 C133 0.930 . S
C140 N141 1.314 . S
C140 C142 1.353 . S
C140 H146 0.930 . S
N141 Li91 1.990 . S
N141 C140 1.314 . S
N141 C144 1.279 . S
C142 C140 1.353 . S
C142 C145 1.348 . S
C142 H174 0.929 . S
C143 C144 1.358 . S
C143 C145 1.356 . S
C143 H175 0.930 . S
C144 N141 1.279 . S
C144 C143 1.358 . S
C144 H147 0.930 . S
C145 C142 1.348 . S
C145 C143 1.356 . S
H146 C140 0.930 . S
H147 C144 0.930 . S
O148 Li88 1.956 . S
O148 Li89 1.970 . S
O148 Li90 1.961 . S
O148 C92 1.325 . S
O149 Li88 1.970 . S
O149 Li89 1.956 . S
O149 Li91 1.961 . S
O149 C98 1.325 . S
O150 Li88 1.961 . S
O150 Li90 1.956 . S
O150 Li91 1.970 . S
O150 C120 1.325 . S
O151 Li89 1.961 . S
O151 Li90 1.970 . S
O151 Li91 1.956 . S
O151 C126 1.325 . S
H152 C94 0.929 . S
H153 C95 0.930 . S
H154 C96 0.930 . S
H155 C97 0.930 . S
H156 C99 0.930 . S
H157 C101 0.929 . S
H158 C102 0.930 . S
H159 C103 0.930 . S
H160 C106 0.930 . S
H161 C109 0.929 . S
H162 C114 0.929 . S
H163 C115 0.930 . S
H164 C122 0.929 . S
H165 C123 0.930 . S
H166 C124 0.930 . S
H167 C125 0.930 . S
H168 C127 0.929 . S
H169 C128 0.930 . S
H170 C129 0.930 . S
H171 C130 0.930 . S
H172 C134 0.929 . S
H173 C136 0.930 . S
H174 C142 0.929 . S
H175 C143 0.930 . S
Li176 N193 1.990 . S
Li176 O236 1.956 . S
Li176 O237 1.970 . S
Li176 O238 1.961 . S
Li177 N201 1.990 . S
Li177 O236 1.970 . S
Li177 O237 1.956 . S
Li177 O239 1.961 . S
Li178 N223 1.990 . S
Li178 O236 1.961 . S
Li178 O238 1.956 . S
Li178 O239 1.970 . S
Li179 N229 1.990 . S
Li179 O237 1.961 . S
Li179 O238 1.970 . S
Li179 O239 1.956 . S
C180 C182 1.348 . S
C180 C183 1.356 . S
C180 O236 1.325 . S
N181 C184 1.314 . S
N181 C185 1.279 . S
C182 C180 1.348 . S
C182 C184 1.353 . S
C182 H240 0.929 . S
C183 C180 1.356 . S
C183 C185 1.358 . S
C183 H241 0.930 . S
C184 N181 1.314 . S
C184 C182 1.353 . S
C184 H242 0.930 . S
C185 N181 1.279 . S
C185 C183 1.358 . S
C185 H243 0.930 . S
C186 C189 1.348 . S
C186 C190 1.356 . S
C186 O237 1.325 . S
C187 N188 1.279 . S
C187 C190 1.358 . S
C187 H244 0.930 . S
N188 C187 1.279 . S
N188 C191 1.314 . S
C189 C186 1.348 . S
C189 C191 1.353 . S
C189 H245 0.929 . S
C190 C186 1.356 . S
C190 C187 1.358 . S
C190 H246 0.930 . S
C191 N188 1.314 . S
C191 C189 1.353 . S
C191 H247 0.930 . S
C192 N193 1.314 . S
C192 C197 1.353 . S
C192 H198 0.930 . S
N193 Li176 1.990 . S
N193 C192 1.314 . S
N193 C195 1.279 . S
C194 C195 1.358 . S
C194 C196 1.356 . S
C194 H248 0.930 . S
C195 N193 1.279 . S
C195 C194 1.358 . S
C195 H199 0.930 . S
C196 C194 1.356 . S
C196 C197 1.348 . S
C197 C192 1.353 . S
C197 C196 1.348 . S
C197 H249 0.929 . S
H198 C192 0.930 . S
H199 C195 0.930 . S
C200 N201 1.314 . S
C200 C202 1.353 . S
C200 H206 0.930 . S
N201 Li177 1.990 . S
N201 C200 1.314 . S
N201 C204 1.279 . S
C202 C200 1.353 . S
C202 C205 1.348 . S
C202 H250 0.929 . S
C203 C204 1.358 . S
C203 C205 1.356 . S
C203 H251 0.930 . S
C204 N201 1.279 . S
C204 C203 1.358 . S
C204 H207 0.930 . S
C205 C202 1.348 . S
C205 C203 1.356 . S
H206 C200 0.930 . S
H207 C204 0.930 . S
C208 C210 1.348 . S
C208 C211 1.356 . S
C208 O238 1.325 . S
N209 C212 1.314 . S
N209 C213 1.279 . S
C210 C208 1.348 . S
C210 C212 1.353 . S
C210 H252 0.929 . S
C211 C208 1.356 . S
C211 C213 1.358 . S
C211 H253 0.930 . S
C212 N209 1.314 . S
C212 C210 1.353 . S
C212 H254 0.930 . S
C213 N209 1.279 . S
C213 C211 1.358 . S
C213 H255 0.930 . S
C214 C215 1.348 . S
C214 C216 1.356 . S
C214 O239 1.325 . S
C215 C214 1.348 . S
C215 C217 1.353 . S
C215 H256 0.929 . S
C216 C214 1.356 . S
C216 C218 1.358 . S
C216 H257 0.930 . S
C217 C215 1.353 . S
C217 N219 1.314 . S
C217 H258 0.930 . S
C218 C216 1.358 . S
C218 N219 1.279 . S
C218 H259 0.930 . S
N219 C217 1.314 . S
N219 C218 1.279 . S
C220 C222 1.353 . S
C220 N223 1.314 . S
C220 H226 0.930 . S
C221 N223 1.279 . S
C221 C224 1.358 . S
C221 H227 0.930 . S
C222 C220 1.353 . S
C222 C225 1.348 . S
C222 H260 0.929 . S
N223 Li178 1.990 . S
N223 C220 1.314 . S
N223 C221 1.279 . S
C224 C221 1.358 . S
C224 C225 1.356 . S
C224 H261 0.930 . S
C225 C222 1.348 . S
C225 C224 1.356 . S
H226 C220 0.930 . S
H227 C221 0.930 . S
C228 N229 1.314 . S
C228 C230 1.353 . S
C228 H234 0.930 . S
N229 Li179 1.990 . S
N229 C228 1.314 . S
N229 C232 1.279 . S
C230 C228 1.353 . S
C230 C233 1.348 . S
C230 H262 0.929 . S
C231 C232 1.358 . S
C231 C233 1.356 . S
C231 H263 0.930 . S
C232 N229 1.279 . S
C232 C231 1.358 . S
C232 H235 0.930 . S
C233 C230 1.348 . S
C233 C231 1.356 . S
H234 C228 0.930 . S
H235 C232 0.930 . S
O236 Li176 1.956 . S
O236 Li177 1.970 . S
O236 Li178 1.961 . S
O236 C180 1.325 . S
O237 Li176 1.970 . S
O237 Li177 1.956 . S
O237 Li179 1.961 . S
O237 C186 1.325 . S
O238 Li176 1.961 . S
O238 Li178 1.956 . S
O238 Li179 1.970 . S
O238 C208 1.325 . S
O239 Li177 1.961 . S
O239 Li178 1.970 . S
O239 Li179 1.956 . S
O239 C214 1.325 . S
H240 C182 0.929 . S
H241 C183 0.930 . S
H242 C184 0.930 . S
H243 C185 0.930 . S
H244 C187 0.930 . S
H245 C189 0.929 . S
H246 C190 0.930 . S
H247 C191 0.930 . S
H248 C194 0.930 . S
H249 C197 0.929 . S
H250 C202 0.929 . S
H251 C203 0.930 . S
H252 C210 0.929 . S
H253 C211 0.930 . S
H254 C212 0.930 . S
H255 C213 0.930 . S
H256 C215 0.929 . S
H257 C216 0.930 . S
H258 C217 0.930 . S
H259 C218 0.930 . S
H260 C222 0.929 . S
H261 C224 0.930 . S
H262 C230 0.929 . S
H263 C231 0.930 . S
Li264 N281 1.990 . S
Li264 O324 1.956 . S
Li264 O325 1.970 . S
Li264 O326 1.961 . S
Li265 N289 1.990 . S
Li265 O324 1.970 . S
Li265 O325 1.956 . S
Li265 O327 1.961 . S
Li266 N311 1.990 . S
Li266 O324 1.961 . S
Li266 O326 1.956 . S
Li266 O327 1.970 . S
Li267 N317 1.990 . S
Li267 O325 1.961 . S
Li267 O326 1.970 . S
Li267 O327 1.956 . S
C268 C270 1.348 . S
C268 C271 1.356 . S
C268 O324 1.325 . S
N269 C272 1.314 . S
N269 C273 1.279 . S
C270 C268 1.348 . S
C270 C272 1.353 . S
C270 H328 0.929 . S
C271 C268 1.356 . S
C271 C273 1.358 . S
C271 H329 0.930 . S
C272 N269 1.314 . S
C272 C270 1.353 . S
C272 H330 0.930 . S
C273 N269 1.279 . S
C273 C271 1.358 . S
C273 H331 0.930 . S
C274 C277 1.348 . S
C274 C278 1.356 . S
C274 O325 1.325 . S
C275 N276 1.279 . S
C275 C278 1.358 . S
C275 H332 0.930 . S
N276 C275 1.279 . S
N276 C279 1.314 . S
C277 C274 1.348 . S
C277 C279 1.353 . S
C277 H333 0.929 . S
C278 C274 1.356 . S
C278 C275 1.358 . S
C278 H334 0.930 . S
C279 N276 1.314 . S
C279 C277 1.353 . S
C279 H335 0.930 . S
C280 N281 1.314 . S
C280 C285 1.353 . S
C280 H286 0.930 . S
N281 Li264 1.990 . S
N281 C280 1.314 . S
N281 C283 1.279 . S
C282 C283 1.358 . S
C282 C284 1.356 . S
C282 H336 0.930 . S
C283 N281 1.279 . S
C283 C282 1.358 . S
C283 H287 0.930 . S
C284 C282 1.356 . S
C284 C285 1.348 . S
C285 C280 1.353 . S
C285 C284 1.348 . S
C285 H337 0.929 . S
H286 C280 0.930 . S
H287 C283 0.930 . S
C288 N289 1.314 . S
C288 C290 1.353 . S
C288 H294 0.930 . S
N289 Li265 1.990 . S
N289 C288 1.314 . S
N289 C292 1.279 . S
C290 C288 1.353 . S
C290 C293 1.348 . S
C290 H338 0.929 . S
C291 C292 1.358 . S
C291 C293 1.356 . S
C291 H339 0.930 . S
C292 N289 1.279 . S
C292 C291 1.358 . S
C292 H295 0.930 . S
C293 C290 1.348 . S
C293 C291 1.356 . S
H294 C288 0.930 . S
H295 C292 0.930 . S
C296 C298 1.348 . S
C296 C299 1.356 . S
C296 O326 1.325 . S
N297 C300 1.314 . S
N297 C301 1.279 . S
C298 C296 1.348 . S
C298 C300 1.353 . S
C298 H340 0.929 . S
C299 C296 1.356 . S
C299 C301 1.358 . S
C299 H341 0.930 . S
C300 N297 1.314 . S
C300 C298 1.353 . S
C300 H342 0.930 . S
C301 N297 1.279 . S
C301 C299 1.358 . S
C301 H343 0.930 . S
C302 C303 1.348 . S
C302 C304 1.356 . S
C302 O327 1.325 . S
C303 C302 1.348 . S
C303 C305 1.353 . S
C303 H344 0.929 . S
C304 C302 1.356 . S
C304 C306 1.358 . S
C304 H345 0.930 . S
C305 C303 1.353 . S
C305 N307 1.314 . S
C305 H346 0.930 . S
C306 C304 1.358 . S
C306 N307 1.279 . S
C306 H347 0.930 . S
N307 C305 1.314 . S
N307 C306 1.279 . S
C308 C310 1.353 . S
C308 N311 1.314 . S
C308 H314 0.930 . S
C309 N311 1.279 . S
C309 C312 1.358 . S
C309 H315 0.930 . S
C310 C308 1.353 . S
C310 C313 1.348 . S
C310 H348 0.929 . S
N311 Li266 1.990 . S
N311 C308 1.314 . S
N311 C309 1.279 . S
C312 C309 1.358 . S
C312 C313 1.356 . S
C312 H349 0.930 . S
C313 C310 1.348 . S
C313 C312 1.356 . S
H314 C308 0.930 . S
H315 C309 0.930 . S
C316 N317 1.314 . S
C316 C318 1.353 . S
C316 H322 0.930 . S
N317 Li267 1.990 . S
N317 C316 1.314 . S
N317 C320 1.279 . S
C318 C316 1.353 . S
C318 C321 1.348 . S
C318 H350 0.929 . S
C319 C320 1.358 . S
C319 C321 1.356 . S
C319 H351 0.930 . S
C320 N317 1.279 . S
C320 C319 1.358 . S
C320 H323 0.930 . S
C321 C318 1.348 . S
C321 C319 1.356 . S
H322 C316 0.930 . S
H323 C320 0.930 . S
O324 Li264 1.956 . S
O324 Li265 1.970 . S
O324 Li266 1.961 . S
O324 C268 1.325 . S
O325 Li264 1.970 . S
O325 Li265 1.956 . S
O325 Li267 1.961 . S
O325 C274 1.325 . S
O326 Li264 1.961 . S
O326 Li266 1.956 . S
O326 Li267 1.970 . S
O326 C296 1.325 . S
O327 Li265 1.961 . S
O327 Li266 1.970 . S
O327 Li267 1.956 . S
O327 C302 1.325 . S
H328 C270 0.929 . S
H329 C271 0.930 . S
H330 C272 0.930 . S
H331 C273 0.930 . S
H332 C275 0.930 . S
H333 C277 0.929 . S
H334 C278 0.930 . S
H335 C279 0.930 . S
H336 C282 0.930 . S
H337 C285 0.929 . S
H338 C290 0.929 . S
H339 C291 0.930 . S
H340 C298 0.929 . S
H341 C299 0.930 . S
H342 C300 0.930 . S
H343 C301 0.930 . S
H344 C303 0.929 . S
H345 C304 0.930 . S
H346 C305 0.930 . S
H347 C306 0.930 . S
H348 C310 0.929 . S
H349 C312 0.930 . S
H350 C318 0.929 . S
H351 C319 0.930 . S
Li352 N369 1.990 . S
Li352 O412 1.956 . S
Li352 O413 1.970 . S
Li352 O414 1.961 . S
Li353 N377 1.990 . S
Li353 O412 1.970 . S
Li353 O413 1.956 . S
Li353 O415 1.961 . S
Li354 N399 1.990 . S
Li354 O412 1.961 . S
Li354 O414 1.956 . S
Li354 O415 1.970 . S
Li355 N405 1.990 . S
Li355 O413 1.961 . S
Li355 O414 1.970 . S
Li355 O415 1.956 . S
C356 C358 1.348 . S
C356 C359 1.356 . S
C356 O412 1.325 . S
N357 C360 1.314 . S
N357 C361 1.279 . S
C358 C356 1.348 . S
C358 C360 1.353 . S
C358 H416 0.929 . S
C359 C356 1.356 . S
C359 C361 1.358 . S
C359 H417 0.930 . S
C360 N357 1.314 . S
C360 C358 1.353 . S
C360 H418 0.930 . S
C361 N357 1.279 . S
C361 C359 1.358 . S
C361 H419 0.930 . S
C362 C365 1.348 . S
C362 C366 1.356 . S
C362 O413 1.325 . S
C363 N364 1.279 . S
C363 C366 1.358 . S
C363 H420 0.930 . S
N364 C363 1.279 . S
N364 C367 1.314 . S
C365 C362 1.348 . S
C365 C367 1.353 . S
C365 H421 0.929 . S
C366 C362 1.356 . S
C366 C363 1.358 . S
C366 H422 0.930 . S
C367 N364 1.314 . S
C367 C365 1.353 . S
C367 H423 0.930 . S
C368 N369 1.314 . S
C368 C373 1.353 . S
C368 H374 0.930 . S
N369 Li352 1.990 . S
N369 C368 1.314 . S
N369 C371 1.279 . S
C370 C371 1.358 . S
C370 C372 1.356 . S
C370 H424 0.930 . S
C371 N369 1.279 . S
C371 C370 1.358 . S
C371 H375 0.930 . S
C372 C370 1.356 . S
C372 C373 1.348 . S
C373 C368 1.353 . S
C373 C372 1.348 . S
C373 H425 0.929 . S
H374 C368 0.930 . S
H375 C371 0.930 . S
C376 N377 1.314 . S
C376 C378 1.353 . S
C376 H382 0.930 . S
N377 Li353 1.990 . S
N377 C376 1.314 . S
N377 C380 1.279 . S
C378 C376 1.353 . S
C378 C381 1.348 . S
C378 H426 0.929 . S
C379 C380 1.358 . S
C379 C381 1.356 . S
C379 H427 0.930 . S
C380 N377 1.279 . S
C380 C379 1.358 . S
C380 H383 0.930 . S
C381 C378 1.348 . S
C381 C379 1.356 . S
H382 C376 0.930 . S
H383 C380 0.930 . S
C384 C386 1.348 . S
C384 C387 1.356 . S
C384 O414 1.325 . S
N385 C388 1.314 . S
N385 C389 1.279 . S
C386 C384 1.348 . S
C386 C388 1.353 . S
C386 H428 0.929 . S
C387 C384 1.356 . S
C387 C389 1.358 . S
C387 H429 0.930 . S
C388 N385 1.314 . S
C388 C386 1.353 . S
C388 H430 0.930 . S
C389 N385 1.279 . S
C389 C387 1.358 . S
C389 H431 0.930 . S
C390 C391 1.348 . S
C390 C392 1.356 . S
C390 O415 1.325 . S
C391 C390 1.348 . S
C391 C393 1.353 . S
C391 H432 0.929 . S
C392 C390 1.356 . S
C392 C394 1.358 . S
C392 H433 0.930 . S
C393 C391 1.353 . S
C393 N395 1.314 . S
C393 H434 0.930 . S
C394 C392 1.358 . S
C394 N395 1.279 . S
C394 H435 0.930 . S
N395 C393 1.314 . S
N395 C394 1.279 . S
C396 C398 1.353 . S
C396 N399 1.314 . S
C396 H402 0.930 . S
C397 N399 1.279 . S
C397 C400 1.358 . S
C397 H403 0.930 . S
C398 C396 1.353 . S
C398 C401 1.348 . S
C398 H436 0.929 . S
N399 Li354 1.990 . S
N399 C396 1.314 . S
N399 C397 1.279 . S
C400 C397 1.358 . S
C400 C401 1.356 . S
C400 H437 0.930 . S
C401 C398 1.348 . S
C401 C400 1.356 . S
H402 C396 0.930 . S
H403 C397 0.930 . S
C404 N405 1.314 . S
C404 C406 1.353 . S
C404 H410 0.930 . S
N405 Li355 1.990 . S
N405 C404 1.314 . S
N405 C408 1.279 . S
C406 C404 1.353 . S
C406 C409 1.348 . S
C406 H438 0.929 . S
C407 C408 1.358 . S
C407 C409 1.356 . S
C407 H439 0.930 . S
C408 N405 1.279 . S
C408 C407 1.358 . S
C408 H411 0.930 . S
C409 C406 1.348 . S
C409 C407 1.356 . S
H410 C404 0.930 . S
H411 C408 0.930 . S
O412 Li352 1.956 . S
O412 Li353 1.970 . S
O412 Li354 1.961 . S
O412 C356 1.325 . S
O413 Li352 1.970 . S
O413 Li353 1.956 . S
O413 Li355 1.961 . S
O413 C362 1.325 . S
O414 Li352 1.961 . S
O414 Li354 1.956 . S
O414 Li355 1.970 . S
O414 C384 1.325 . S
O415 Li353 1.961 . S
O415 Li354 1.970 . S
O415 Li355 1.956 . S
O415 C390 1.325 . S
H416 C358 0.929 . S
H417 C359 0.930 . S
H418 C360 0.930 . S
H419 C361 0.930 . S
H420 C363 0.930 . S
H421 C365 0.929 . S
H422 C366 0.930 . S
H423 C367 0.930 . S
H424 C370 0.930 . S
H425 C373 0.929 . S
H426 C378 0.929 . S
H427 C379 0.930 . S
H428 C386 0.929 . S
H429 C387 0.930 . S
H430 C388 0.930 . S
H431 C389 0.930 . S
H432 C391 0.929 . S
H433 C392 0.930 . S
H434 C393 0.930 . S
H435 C394 0.930 . S
H436 C398 0.929 . S
H437 C400 0.930 . S
H438 C406 0.929 . S
H439 C407 0.930 . S
Li440 N457 1.990 . S
Li440 O500 1.956 . S
Li440 O501 1.970 . S
Li440 O502 1.961 . S
Li441 N465 1.990 . S
Li441 O500 1.970 . S
Li441 O501 1.956 . S
Li441 O503 1.961 . S
Li442 N487 1.990 . S
Li442 O500 1.961 . S
Li442 O502 1.956 . S
Li442 O503 1.970 . S
Li443 N493 1.990 . S
Li443 O501 1.961 . S
Li443 O502 1.970 . S
Li443 O503 1.956 . S
C444 C446 1.348 . S
C444 C447 1.356 . S
C444 O500 1.325 . S
N445 C448 1.314 . S
N445 C449 1.279 . S
C446 C444 1.348 . S
C446 C448 1.353 . S
C446 H504 0.929 . S
C447 C444 1.356 . S
C447 C449 1.358 . S
C447 H505 0.930 . S
C448 N445 1.314 . S
C448 C446 1.353 . S
C448 H506 0.930 . S
C449 N445 1.279 . S
C449 C447 1.358 . S
C449 H507 0.930 . S
C450 C453 1.348 . S
C450 C454 1.356 . S
C450 O501 1.325 . S
C451 N452 1.279 . S
C451 C454 1.358 . S
C451 H508 0.930 . S
N452 C451 1.279 . S
N452 C455 1.314 . S
C453 C450 1.348 . S
C453 C455 1.353 . S
C453 H509 0.929 . S
C454 C450 1.356 . S
C454 C451 1.358 . S
C454 H510 0.930 . S
C455 N452 1.314 . S
C455 C453 1.353 . S
C455 H511 0.930 . S
C456 N457 1.314 . S
C456 C461 1.353 . S
C456 H462 0.930 . S
N457 Li440 1.990 . S
N457 C456 1.314 . S
N457 C459 1.279 . S
C458 C459 1.358 . S
C458 C460 1.356 . S
C458 H512 0.930 . S
C459 N457 1.279 . S
C459 C458 1.358 . S
C459 H463 0.930 . S
C460 C458 1.356 . S
C460 C461 1.348 . S
C461 C456 1.353 . S
C461 C460 1.348 . S
C461 H513 0.929 . S
H462 C456 0.930 . S
H463 C459 0.930 . S
C464 N465 1.314 . S
C464 C466 1.353 . S
C464 H470 0.930 . S
N465 Li441 1.990 . S
N465 C464 1.314 . S
N465 C468 1.279 . S
C466 C464 1.353 . S
C466 C469 1.348 . S
C466 H514 0.929 . S
C467 C468 1.358 . S
C467 C469 1.356 . S
C467 H515 0.930 . S
C468 N465 1.279 . S
C468 C467 1.358 . S
C468 H471 0.930 . S
C469 C466 1.348 . S
C469 C467 1.356 . S
H470 C464 0.930 . S
H471 C468 0.930 . S
C472 C474 1.348 . S
C472 C475 1.356 . S
C472 O502 1.325 . S
N473 C476 1.314 . S
N473 C477 1.279 . S
C474 C472 1.348 . S
C474 C476 1.353 . S
C474 H516 0.929 . S
C475 C472 1.356 . S
C475 C477 1.358 . S
C475 H517 0.930 . S
C476 N473 1.314 . S
C476 C474 1.353 . S
C476 H518 0.930 . S
C477 N473 1.279 . S
C477 C475 1.358 . S
C477 H519 0.930 . S
C478 C479 1.348 1_556 S
C478 C480 1.356 . S
C478 O503 1.325 . S
C479 C478 1.348 1_554 S
C479 C481 1.353 . S
C479 H520 0.929 . S
C480 C478 1.356 . S
C480 C482 1.358 1_556 S
C480 H521 0.930 . S
C481 C479 1.353 . S
C481 N483 1.314 . S
C481 H522 0.930 . S
C482 C480 1.358 1_554 S
C482 N483 1.279 . S
C482 H523 0.930 . S
N483 C481 1.314 . S
N483 C482 1.279 . S
C484 C486 1.353 . S
C484 N487 1.314 1_554 S
C484 H490 0.930 . S
C485 N487 1.279 . S
C485 C488 1.358 1_556 S
C485 H491 0.930 . S
C486 C484 1.353 . S
C486 C489 1.348 . S
C486 H524 0.929 . S
N487 Li442 1.990 . S
N487 C484 1.314 1_556 S
N487 C485 1.279 . S
C488 C485 1.358 1_554 S
C488 C489 1.356 . S
C488 H525 0.930 . S
C489 C486 1.348 . S
C489 C488 1.356 . S
H490 C484 0.930 . S
H491 C485 0.930 . S
C492 N493 1.314 . S
C492 C494 1.353 . S
C492 H498 0.930 . S
N493 Li443 1.990 . S
N493 C492 1.314 . S
N493 C496 1.279 . S
C494 C492 1.353 . S
C494 C497 1.348 . S
C494 H526 0.929 . S
C495 C496 1.358 . S
C495 C497 1.356 . S
C495 H527 0.930 . S
C496 N493 1.279 . S
C496 C495 1.358 . S
C496 H499 0.930 . S
C497 C494 1.348 . S
C497 C495 1.356 . S
H498 C492 0.930 . S
H499 C496 0.930 . S
O500 Li440 1.956 . S
O500 Li441 1.970 . S
O500 Li442 1.961 . S
O500 C444 1.325 . S
O501 Li440 1.970 . S
O501 Li441 1.956 . S
O501 Li443 1.961 . S
O501 C450 1.325 . S
O502 Li440 1.961 . S
O502 Li442 1.956 . S
O502 Li443 1.970 . S
O502 C472 1.325 . S
O503 Li441 1.961 . S
O503 Li442 1.970 . S
O503 Li443 1.956 . S
O503 C478 1.325 . S
H504 C446 0.929 . S
H505 C447 0.930 . S
H506 C448 0.930 . S
H507 C449 0.930 . S
H508 C451 0.930 . S
H509 C453 0.929 . S
H510 C454 0.930 . S
H511 C455 0.930 . S
H512 C458 0.930 . S
H513 C461 0.929 . S
H514 C466 0.929 . S
H515 C467 0.930 . S
H516 C474 0.929 . S
H517 C475 0.930 . S
H518 C476 0.930 . S
H519 C477 0.930 . S
H520 C479 0.929 . S
H521 C480 0.930 . S
H522 C481 0.930 . S
H523 C482 0.930 . S
H524 C486 0.929 . S
H525 C488 0.930 . S
H526 C494 0.929 . S
H527 C495 0.930 . S
Li528 N545 1.990 . S
Li528 O588 1.956 . S
Li528 O589 1.970 . S
Li528 O590 1.961 . S
Li529 N553 1.990 . S
Li529 O588 1.970 . S
Li529 O589 1.956 . S
Li529 O591 1.961 . S
Li530 N575 1.990 . S
Li530 O588 1.961 . S
Li530 O590 1.956 . S
Li530 O591 1.970 . S
Li531 N581 1.990 . S
Li531 O589 1.961 . S
Li531 O590 1.970 . S
Li531 O591 1.956 . S
C532 C534 1.348 . S
C532 C535 1.356 . S
C532 O588 1.325 . S
N533 C536 1.314 . S
N533 C537 1.279 1_554 S
C534 C532 1.348 . S
C534 C536 1.353 1_556 S
C534 H592 0.929 . S
C535 C532 1.356 . S
C535 C537 1.358 . S
C535 H593 0.930 . S
C536 N533 1.314 . S
C536 C534 1.353 1_554 S
C536 H594 0.930 . S
C537 N533 1.279 1_556 S
C537 C535 1.358 . S
C537 H595 0.930 . S
C538 C541 1.348 . S
C538 C542 1.356 . S
C538 O589 1.325 . S
C539 N540 1.279 . S
C539 C542 1.358 . S
C539 H596 0.930 . S
N540 C539 1.279 . S
N540 C543 1.314 . S
C541 C538 1.348 . S
C541 C543 1.353 . S
C541 H597 0.929 . S
C542 C538 1.356 . S
C542 C539 1.358 . S
C542 H598 0.930 . S
C543 N540 1.314 . S
C543 C541 1.353 . S
C543 H599 0.930 . S
C544 N545 1.314 . S
C544 C549 1.353 . S
C544 H550 0.930 . S
N545 Li528 1.990 . S
N545 C544 1.314 . S
N545 C547 1.279 . S
C546 C547 1.358 . S
C546 C548 1.356 . S
C546 H600 0.930 . S
C547 N545 1.279 . S
C547 C546 1.358 . S
C547 H551 0.930 . S
C548 C546 1.356 . S
C548 C549 1.348 . S
C549 C544 1.353 . S
C549 C548 1.348 . S
C549 H601 0.929 . S
H550 C544 0.930 . S
H551 C547 0.930 . S
C552 N553 1.318 . S
C552 C554 1.348 1_556 S
C552 H558 0.931 . S
N553 Li529 1.990 . S
N553 C552 1.318 . S
N553 C556 1.279 . S
C554 C552 1.348 1_554 S
C554 C557 1.348 . S
C554 H602 0.929 . S
C555 C556 1.358 1_554 S
C555 C557 1.356 . S
C555 H603 0.930 . S
C556 N553 1.279 . S
C556 C555 1.358 1_556 S
C556 H559 0.930 . S
C557 C554 1.348 . S
C557 C555 1.356 . S
H558 C552 0.931 . S
H559 C556 0.930 . S
C560 C562 1.348 . S
C560 C563 1.356 . S
C560 O590 1.325 . S
N561 C564 1.314 . S
N561 C565 1.279 . S
C562 C560 1.348 . S
C562 C564 1.353 . S
C562 H604 0.929 . S
C563 C560 1.356 . S
C563 C565 1.358 . S
C563 H605 0.930 . S
C564 N561 1.314 . S
C564 C562 1.353 . S
C564 H606 0.930 . S
C565 N561 1.279 . S
C565 C563 1.358 . S
C565 H607 0.930 . S
C566 C567 1.348 . S
C566 C568 1.356 . S
C566 O591 1.325 . S
C567 C566 1.348 . S
C567 C569 1.353 . S
C567 H608 0.929 . S
C568 C566 1.356 . S
C568 C570 1.358 . S
C568 H609 0.930 . S
C569 C567 1.353 . S
C569 N571 1.314 . S
C569 H610 0.930 . S
C570 C568 1.358 . S
C570 N571 1.279 . S
C570 H611 0.930 . S
N571 C569 1.314 . S
N571 C570 1.279 . S
C572 C574 1.353 . S
C572 N575 1.314 . S
C572 H578 0.930 . S
C573 N575 1.279 . S
C573 C576 1.358 . S
C573 H579 0.930 . S
C574 C572 1.353 . S
C574 C577 1.348 . S
C574 H612 0.929 . S
N575 Li530 1.990 . S
N575 C572 1.314 . S
N575 C573 1.279 . S
C576 C573 1.358 . S
C576 C577 1.356 . S
C576 H613 0.930 . S
C577 C574 1.348 . S
C577 C576 1.356 . S
H578 C572 0.930 . S
H579 C573 0.930 . S
C580 N581 1.314 . S
C580 C582 1.353 . S
C580 H586 0.930 . S
N581 Li531 1.990 . S
N581 C580 1.314 . S
N581 C584 1.279 . S
C582 C580 1.353 . S
C582 C585 1.348 . S
C582 H614 0.929 . S
C583 C584 1.358 . S
C583 C585 1.356 . S
C583 H615 0.930 . S
C584 N581 1.279 . S
C584 C583 1.358 . S
C584 H587 0.930 . S
C585 C582 1.348 . S
C585 C583 1.356 . S
H586 C580 0.930 . S
H587 C584 0.930 . S
O588 Li528 1.956 . S
O588 Li529 1.970 . S
O588 Li530 1.961 . S
O588 C532 1.325 . S
O589 Li528 1.970 . S
O589 Li529 1.956 . S
O589 Li531 1.961 . S
O589 C538 1.325 . S
O590 Li528 1.961 . S
O590 Li530 1.956 . S
O590 Li531 1.970 . S
O590 C560 1.325 . S
O591 Li529 1.961 . S
O591 Li530 1.970 . S
O591 Li531 1.956 . S
O591 C566 1.325 . S
H592 C534 0.929 . S
H593 C535 0.930 . S
H594 C536 0.930 . S
H595 C537 0.930 . S
H596 C539 0.930 . S
H597 C541 0.929 . S
H598 C542 0.930 . S
H599 C543 0.930 . S
H600 C546 0.930 . S
H601 C549 0.929 . S
H602 C554 0.929 . S
H603 C555 0.930 . S
H604 C562 0.929 . S
H605 C563 0.930 . S
H606 C564 0.930 . S
H607 C565 0.930 . S
H608 C567 0.929 . S
H609 C568 0.930 . S
H610 C569 0.930 . S
H611 C570 0.930 . S
H612 C574 0.929 . S
H613 C576 0.930 . S
H614 C582 0.929 . S
H615 C583 0.930 . S
Li616 N633 1.990 . S
Li616 O676 1.956 . S
Li616 O677 1.970 . S
Li616 O678 1.961 . S
Li617 N641 1.990 . S
Li617 O676 1.970 . S
Li617 O677 1.956 . S
Li617 O679 1.961 . S
Li618 N663 1.990 . S
Li618 O676 1.961 . S
Li618 O678 1.956 . S
Li618 O679 1.970 . S
Li619 N669 1.990 1_554 S
Li619 O677 1.961 . S
Li619 O678 1.970 . S
Li619 O679 1.956 . S
C620 C622 1.348 . S
C620 C623 1.356 . S
C620 O676 1.325 . S
N621 C624 1.314 . S
N621 C625 1.279 . S
C622 C620 1.348 . S
C622 C624 1.353 . S
C622 H680 0.929 . S
C623 C620 1.356 . S
C623 C625 1.358 . S
C623 H681 0.930 . S
C624 N621 1.314 . S
C624 C622 1.353 . S
C624 H682 0.930 . S
C625 N621 1.279 . S
C625 C623 1.358 . S
C625 H683 0.930 . S
C626 C629 1.348 . S
C626 C630 1.356 . S
C626 O677 1.325 . S
C627 N628 1.279 . S
C627 C630 1.358 . S
C627 H684 0.930 . S
N628 C627 1.279 . S
N628 C631 1.314 . S
C629 C626 1.348 . S
C629 C631 1.353 . S
C629 H685 0.929 . S
C630 C626 1.356 . S
C630 C627 1.358 . S
C630 H686 0.930 . S
C631 N628 1.314 . S
C631 C629 1.353 . S
C631 H687 0.930 . S
C632 N633 1.314 . S
C632 C637 1.353 . S
C632 H638 0.930 . S
N633 Li616 1.990 . S
N633 C632 1.314 . S
N633 C635 1.279 . S
C634 C635 1.358 . S
C634 C636 1.356 . S
C634 H688 0.930 . S
C635 N633 1.279 . S
C635 C634 1.358 . S
C635 H639 0.930 . S
C636 C634 1.356 . S
C636 C637 1.348 . S
C637 C632 1.353 . S
C637 C636 1.348 . S
C637 H689 0.929 1_554 S
H638 C632 0.930 . S
H639 C635 0.930 . S
C640 N641 1.314 . S
C640 C642 1.353 . S
C640 H646 0.930 . S
N641 Li617 1.990 . S
N641 C640 1.314 . S
N641 C644 1.279 . S
C642 C640 1.353 . S
C642 C645 1.348 . S
C642 H690 0.929 . S
C643 C644 1.358 . S
C643 C645 1.356 . S
C643 H691 0.930 . S
C644 N641 1.279 . S
C644 C643 1.358 . S
C644 H647 0.930 . S
C645 C642 1.348 . S
C645 C643 1.356 . S
H646 C640 0.930 . S
H647 C644 0.930 . S
C648 C650 1.348 . S
C648 C651 1.356 . S
C648 O678 1.325 1_556 S
N649 C652 1.314 . S
N649 C653 1.279 . S
C650 C648 1.348 . S
C650 C652 1.353 . S
C650 H692 0.929 . S
C651 C648 1.356 . S
C651 C653 1.358 . S
C651 H693 0.930 1_556 S
C652 N649 1.314 . S
C652 C650 1.353 . S
C652 H694 0.930 . S
C653 N649 1.279 . S
C653 C651 1.358 . S
C653 H695 0.930 . S
C654 C655 1.348 . S
C654 C656 1.356 . S
C654 O679 1.325 . S
C655 C654 1.348 . S
C655 C657 1.353 . S
C655 H696 0.929 . S
C656 C654 1.356 . S
C656 C658 1.358 . S
C656 H697 0.930 . S
C657 C655 1.353 . S
C657 N659 1.314 . S
C657 H698 0.930 . S
C658 C656 1.358 . S
C658 N659 1.279 . S
C658 H699 0.930 . S
N659 C657 1.314 . S
N659 C658 1.279 . S
C660 C662 1.353 . S
C660 N663 1.314 . S
C660 H666 0.930 . S
C661 N663 1.279 . S
C661 C664 1.358 . S
C661 H667 0.930 . S
C662 C660 1.353 . S
C662 C665 1.348 . S
C662 H700 0.929 . S
N663 Li618 1.990 . S
N663 C660 1.314 . S
N663 C661 1.279 . S
C664 C661 1.358 . S
C664 C665 1.356 . S
C664 H701 0.930 . S
C665 C662 1.348 . S
C665 C664 1.356 . S
H666 C660 0.930 . S
H667 C661 0.930 . S
C668 N669 1.314 . S
C668 C670 1.353 . S
C668 H674 0.930 . S
N669 Li619 1.990 1_556 S
N669 C668 1.314 . S
N669 C672 1.279 . S
C670 C668 1.353 . S
C670 C673 1.348 . S
C670 H702 0.929 . S
C671 C672 1.358 . S
C671 C673 1.356 . S
C671 H703 0.930 . S
C672 N669 1.279 . S
C672 C671 1.358 . S
C672 H675 0.930 . S
C673 C670 1.348 . S
C673 C671 1.356 . S
H674 C668 0.930 . S
H675 C672 0.930 . S
O676 Li616 1.956 . S
O676 Li617 1.970 . S
O676 Li618 1.961 . S
O676 C620 1.325 . S
O677 Li616 1.970 . S
O677 Li617 1.956 . S
O677 Li619 1.961 . S
O677 C626 1.325 . S
O678 Li616 1.961 . S
O678 Li618 1.956 . S
O678 Li619 1.970 . S
O678 C648 1.325 1_554 S
O679 Li617 1.961 . S
O679 Li618 1.970 . S
O679 Li619 1.956 . S
O679 C654 1.325 . S
H680 C622 0.929 . S
H681 C623 0.930 . S
H682 C624 0.930 . S
H683 C625 0.930 . S
H684 C627 0.930 . S
H685 C629 0.929 . S
H686 C630 0.930 . S
H687 C631 0.930 . S
H688 C634 0.930 . S
H689 C637 0.929 1_556 S
H690 C642 0.929 . S
H691 C643 0.930 . S
H692 C650 0.929 . S
H693 C651 0.930 1_554 S
H694 C652 0.930 . S
H695 C653 0.930 . S
H696 C655 0.929 . S
H697 C656 0.930 . S
H698 C657 0.930 . S
H699 C658 0.930 . S
H700 C662 0.929 . S
H701 C664 0.930 . S
H702 C670 0.929 . S
H703 C671 0.930 . S
Li704 N721 1.990 . S
Li704 O764 1.956 . S
Li704 O765 1.970 . S
Li704 O766 1.961 . S
Li705 N729 1.990 . S
Li705 O764 1.970 . S
Li705 O765 1.956 . S
Li705 O767 1.961 . S
Li706 N751 1.990 . S
Li706 O764 1.961 . S
Li706 O766 1.956 . S
Li706 O767 1.970 . S
Li707 N757 1.990 . S
Li707 O765 1.961 . S
Li707 O766 1.970 . S
Li707 O767 1.956 . S
C708 C710 1.348 . S
C708 C711 1.356 . S
C708 O764 1.325 . S
N709 C712 1.314 . S
N709 C713 1.279 . S
C710 C708 1.348 . S
C710 C712 1.353 . S
C710 H768 0.929 . S
C711 C708 1.356 . S
C711 C713 1.358 . S
C711 H769 0.930 . S
C712 N709 1.314 . S
C712 C710 1.353 . S
C712 H770 0.930 . S
C713 N709 1.279 . S
C713 C711 1.358 . S
C713 H771 0.930 . S
C714 C717 1.348 . S
C714 C718 1.356 . S
C714 O765 1.325 . S
C715 N716 1.279 . S
C715 C718 1.358 . S
C715 H772 0.930 . S
N716 C715 1.279 . S
N716 C719 1.314 . S
C717 C714 1.348 . S
C717 C719 1.353 . S
C717 H773 0.929 . S
C718 C714 1.356 . S
C718 C715 1.358 . S
C718 H774 0.930 . S
C719 N716 1.314 . S
C719 C717 1.353 . S
C719 H775 0.930 . S
C720 N721 1.314 . S
C720 C725 1.353 . S
C720 H726 0.930 . S
N721 Li704 1.990 . S
N721 C720 1.314 . S
N721 C723 1.279 . S
C722 C723 1.358 . S
C722 C724 1.356 . S
C722 H776 0.930 . S
C723 N721 1.279 . S
C723 C722 1.358 . S
C723 H727 0.930 . S
C724 C722 1.356 . S
C724 C725 1.348 . S
C725 C720 1.353 . S
C725 C724 1.348 . S
C725 H777 0.929 . S
H726 C720 0.930 . S
H727 C723 0.930 . S
C728 N729 1.314 . S
C728 C730 1.353 . S
C728 H734 0.930 . S
N729 Li705 1.990 . S
N729 C728 1.314 . S
N729 C732 1.279 . S
C730 C728 1.353 . S
C730 C733 1.348 . S
C730 H778 0.929 . S
C731 C732 1.358 . S
C731 C733 1.356 . S
C731 H779 0.930 . S
C732 N729 1.279 . S
C732 C731 1.358 . S
C732 H735 0.930 . S
C733 C730 1.348 . S
C733 C731 1.356 . S
H734 C728 0.930 . S
H735 C732 0.930 . S
C736 C738 1.348 . S
C736 C739 1.356 . S
C736 O766 1.325 . S
N737 C740 1.314 . S
N737 C741 1.279 . S
C738 C736 1.348 . S
C738 C740 1.353 . S
C738 H780 0.929 . S
C739 C736 1.356 . S
C739 C741 1.358 . S
C739 H781 0.930 . S
C740 N737 1.314 . S
C740 C738 1.353 . S
C740 H782 0.930 . S
C741 N737 1.279 . S
C741 C739 1.358 . S
C741 H783 0.930 . S
C742 C743 1.348 . S
C742 C744 1.356 . S
C742 O767 1.325 . S
C743 C742 1.348 . S
C743 C745 1.353 . S
C743 H784 0.929 . S
C744 C742 1.356 . S
C744 C746 1.358 . S
C744 H785 0.930 . S
C745 C743 1.353 . S
C745 N747 1.314 . S
C745 H786 0.930 . S
C746 C744 1.358 . S
C746 N747 1.279 . S
C746 H787 0.930 . S
N747 C745 1.314 . S
N747 C746 1.279 . S
C748 C750 1.353 . S
C748 N751 1.314 . S
C748 H754 0.930 . S
C749 N751 1.279 . S
C749 C752 1.358 . S
C749 H755 0.930 . S
C750 C748 1.353 . S
C750 C753 1.348 . S
C750 H788 0.929 . S
N751 Li706 1.990 . S
N751 C748 1.314 . S
N751 C749 1.279 . S
C752 C749 1.358 . S
C752 C753 1.356 . S
C752 H789 0.930 . S
C753 C750 1.348 . S
C753 C752 1.356 . S
H754 C748 0.930 . S
H755 C749 0.930 . S
C756 N757 1.314 . S
C756 C758 1.353 . S
C756 H762 0.930 . S
N757 Li707 1.990 . S
N757 C756 1.314 . S
N757 C760 1.279 . S
C758 C756 1.353 . S
C758 C761 1.348 . S
C758 H790 0.929 . S
C759 C760 1.358 . S
C759 C761 1.356 . S
C759 H791 0.930 . S
C760 N757 1.279 . S
C760 C759 1.358 . S
C760 H763 0.930 . S
C761 C758 1.348 . S
C761 C759 1.356 . S
H762 C756 0.930 . S
H763 C760 0.930 . S
O764 Li704 1.956 . S
O764 Li705 1.970 . S
O764 Li706 1.961 . S
O764 C708 1.325 . S
O765 Li704 1.970 . S
O765 Li705 1.956 . S
O765 Li707 1.961 . S
O765 C714 1.325 . S
O766 Li704 1.961 . S
O766 Li706 1.956 . S
O766 Li707 1.970 . S
O766 C736 1.325 . S
O767 Li705 1.961 . S
O767 Li706 1.970 . S
O767 Li707 1.956 . S
O767 C742 1.325 . S
H768 C710 0.929 . S
H769 C711 0.930 . S
H770 C712 0.930 . S
H771 C713 0.930 . S
H772 C715 0.930 . S
H773 C717 0.929 . S
H774 C718 0.930 . S
H775 C719 0.930 . S
H776 C722 0.930 . S
H777 C725 0.929 . S
H778 C730 0.929 . S
H779 C731 0.930 . S
H780 C738 0.929 . S
H781 C739 0.930 . S
H782 C740 0.930 . S
H783 C741 0.930 . S
H784 C743 0.929 . S
H785 C744 0.930 . S
H786 C745 0.930 . S
H787 C746 0.930 . S
H788 C750 0.929 . S
H789 C752 0.930 . S
H790 C758 0.929 . S
H791 C759 0.930 . S
Li792 N809 1.990 . S
Li792 O852 1.956 . S
Li792 O853 1.970 . S
Li792 O854 1.961 . S
Li793 N817 1.990 . S
Li793 O852 1.970 . S
Li793 O853 1.956 . S
Li793 O855 1.961 . S
Li794 N839 1.990 . S
Li794 O852 1.961 . S
Li794 O854 1.956 . S
Li794 O855 1.970 . S
Li795 N845 1.990 . S
Li795 O853 1.961 . S
Li795 O854 1.970 . S
Li795 O855 1.956 . S
C796 C798 1.348 . S
C796 C799 1.356 . S
C796 O852 1.325 . S
N797 C800 1.314 . S
N797 C801 1.279 . S
C798 C796 1.348 . S
C798 C800 1.353 . S
C798 H856 0.929 . S
C799 C796 1.356 . S
C799 C801 1.358 . S
C799 H857 0.930 . S
C800 N797 1.314 . S
C800 C798 1.353 . S
C800 H858 0.930 . S
C801 N797 1.279 . S
C801 C799 1.358 . S
C801 H859 0.930 . S
C802 C805 1.348 . S
C802 C806 1.356 . S
C802 O853 1.325 . S
C803 N804 1.279 . S
C803 C806 1.358 . S
C803 H860 0.930 . S
N804 C803 1.279 . S
N804 C807 1.314 . S
C805 C802 1.348 . S
C805 C807 1.353 . S
C805 H861 0.929 . S
C806 C802 1.356 . S
C806 C803 1.358 . S
C806 H862 0.930 . S
C807 N804 1.314 . S
C807 C805 1.353 . S
C807 H863 0.930 . S
C808 N809 1.314 . S
C808 C813 1.353 . S
C808 H814 0.930 . S
N809 Li792 1.990 . S
N809 C808 1.314 . S
N809 C811 1.279 . S
C810 C811 1.358 . S
C810 C812 1.356 . S
C810 H864 0.930 . S
C811 N809 1.279 . S
C811 C810 1.358 . S
C811 H815 0.930 . S
C812 C810 1.356 . S
C812 C813 1.348 . S
C813 C808 1.353 . S
C813 C812 1.348 . S
C813 H865 0.929 . S
H814 C808 0.930 . S
H815 C811 0.930 . S
C816 N817 1.314 . S
C816 C818 1.353 . S
C816 H822 0.930 . S
N817 Li793 1.990 . S
N817 C816 1.314 . S
N817 C820 1.279 . S
C818 C816 1.353 . S
C818 C821 1.348 . S
C818 H866 0.929 . S
C819 C820 1.358 . S
C819 C821 1.356 . S
C819 H867 0.930 . S
C820 N817 1.279 . S
C820 C819 1.358 . S
C820 H823 0.930 . S
C821 C818 1.348 . S
C821 C819 1.356 . S
H822 C816 0.930 . S
H823 C820 0.930 . S
C824 C826 1.348 . S
C824 C827 1.356 . S
C824 O854 1.325 . S
N825 C828 1.314 . S
N825 C829 1.279 . S
C826 C824 1.348 . S
C826 C828 1.353 . S
C826 H868 0.929 . S
C827 C824 1.356 . S
C827 C829 1.358 . S
C827 H869 0.930 . S
C828 N825 1.314 . S
C828 C826 1.353 . S
C828 H870 0.930 . S
C829 N825 1.279 . S
C829 C827 1.358 . S
C829 H871 0.930 . S
C830 C831 1.348 . S
C830 C832 1.356 . S
C830 O855 1.325 . S
C831 C830 1.348 . S
C831 C833 1.353 . S
C831 H872 0.929 . S
C832 C830 1.356 . S
C832 C834 1.358 . S
C832 H873 0.930 . S
C833 C831 1.353 . S
C833 N835 1.314 . S
C833 H874 0.930 . S
C834 C832 1.358 . S
C834 N835 1.279 . S
C834 H875 0.930 . S
N835 C833 1.314 . S
N835 C834 1.279 . S
C836 C838 1.353 . S
C836 N839 1.314 . S
C836 H842 0.930 . S
C837 N839 1.279 . S
C837 C840 1.358 . S
C837 H843 0.930 . S
C838 C836 1.353 . S
C838 C841 1.348 . S
C838 H876 0.929 . S
N839 Li794 1.990 . S
N839 C836 1.314 . S
N839 C837 1.279 . S
C840 C837 1.358 . S
C840 C841 1.356 . S
C840 H877 0.930 . S
C841 C838 1.348 . S
C841 C840 1.356 . S
H842 C836 0.930 . S
H843 C837 0.930 . S
C844 N845 1.314 . S
C844 C846 1.353 . S
C844 H850 0.930 . S
N845 Li795 1.990 . S
N845 C844 1.314 . S
N845 C848 1.279 . S
C846 C844 1.353 . S
C846 C849 1.348 . S
C846 H878 0.929 . S
C847 C848 1.358 . S
C847 C849 1.356 . S
C847 H879 0.930 . S
C848 N845 1.279 . S
C848 C847 1.358 . S
C848 H851 0.930 . S
C849 C846 1.348 . S
C849 C847 1.356 . S
H850 C844 0.930 . S
H851 C848 0.930 . S
O852 Li792 1.956 . S
O852 Li793 1.970 . S
O852 Li794 1.961 . S
O852 C796 1.325 . S
O853 Li792 1.970 . S
O853 Li793 1.956 . S
O853 Li795 1.961 . S
O853 C802 1.325 . S
O854 Li792 1.961 . S
O854 Li794 1.956 . S
O854 Li795 1.970 . S
O854 C824 1.325 . S
O855 Li793 1.961 . S
O855 Li794 1.970 . S
O855 Li795 1.956 . S
O855 C830 1.325 . S
H856 C798 0.929 . S
H857 C799 0.930 . S
H858 C800 0.930 . S
H859 C801 0.930 . S
H860 C803 0.930 . S
H861 C805 0.929 . S
H862 C806 0.930 . S
H863 C807 0.930 . S
H864 C810 0.930 . S
H865 C813 0.929 . S
H866 C818 0.929 . S
H867 C819 0.930 . S
H868 C826 0.929 . S
H869 C827 0.930 . S
H870 C828 0.930 . S
H871 C829 0.930 . S
H872 C831 0.929 . S
H873 C832 0.930 . S
H874 C833 0.930 . S
H875 C834 0.930 . S
H876 C838 0.929 . S
H877 C840 0.930 . S
H878 C846 0.929 . S
H879 C847 0.930 . S
Li880 N897 1.990 . S
Li880 O940 1.956 . S
Li880 O941 1.970 . S
Li880 O942 1.961 . S
Li881 N905 1.990 . S
Li881 O940 1.970 . S
Li881 O941 1.956 . S
Li881 O943 1.961 . S
Li882 N927 1.990 . S
Li882 O940 1.961 . S
Li882 O942 1.956 . S
Li882 O943 1.970 . S
Li883 N933 1.990 . S
Li883 O941 1.961 . S
Li883 O942 1.970 . S
Li883 O943 1.956 . S
C884 C886 1.348 . S
C884 C887 1.356 . S
C884 O940 1.325 . S
N885 C888 1.314 . S
N885 C889 1.279 . S
C886 C884 1.348 . S
C886 C888 1.353 . S
C886 H944 0.929 . S
C887 C884 1.356 . S
C887 C889 1.358 . S
C887 H945 0.930 . S
C888 N885 1.314 . S
C888 C886 1.353 . S
C888 H946 0.930 . S
C889 N885 1.279 . S
C889 C887 1.358 . S
C889 H947 0.930 . S
C890 C893 1.348 . S
C890 C894 1.356 . S
C890 O941 1.325 . S
C891 N892 1.279 . S
C891 C894 1.358 . S
C891 H948 0.930 . S
N892 C891 1.279 . S
N892 C895 1.314 . S
C893 C890 1.348 . S
C893 C895 1.353 . S
C893 H949 0.929 . S
C894 C890 1.356 . S
C894 C891 1.358 . S
C894 H950 0.930 . S
C895 N892 1.314 . S
C895 C893 1.353 . S
C895 H951 0.930 . S
C896 N897 1.314 . S
C896 C901 1.353 . S
C896 H902 0.930 . S
N897 Li880 1.990 . S
N897 C896 1.314 . S
N897 C899 1.279 . S
C898 C899 1.358 . S
C898 C900 1.356 . S
C898 H952 0.930 . S
C899 N897 1.279 . S
C899 C898 1.358 . S
C899 H903 0.930 . S
C900 C898 1.356 . S
C900 C901 1.348 . S
C901 C896 1.353 . S
C901 C900 1.348 . S
C901 H953 0.929 . S
H902 C896 0.930 . S
H903 C899 0.930 . S
C904 N905 1.314 . S
C904 C906 1.353 . S
C904 H910 0.930 . S
N905 Li881 1.990 . S
N905 C904 1.314 . S
N905 C908 1.279 . S
C906 C904 1.353 . S
C906 C909 1.348 . S
C906 H954 0.929 . S
C907 C908 1.358 . S
C907 C909 1.356 . S
C907 H955 0.930 . S
C908 N905 1.279 . S
C908 C907 1.358 . S
C908 H911 0.930 . S
C909 C906 1.348 . S
C909 C907 1.356 . S
H910 C904 0.930 . S
H911 C908 0.930 . S
C912 C914 1.348 . S
C912 C915 1.356 . S
C912 O942 1.325 . S
N913 C916 1.314 . S
N913 C917 1.279 . S
C914 C912 1.348 . S
C914 C916 1.353 . S
C914 H956 0.929 . S
C915 C912 1.356 . S
C915 C917 1.358 . S
C915 H957 0.930 . S
C916 N913 1.314 . S
C916 C914 1.353 . S
C916 H958 0.930 . S
C917 N913 1.279 . S
C917 C915 1.358 . S
C917 H959 0.930 . S
C918 C919 1.348 . S
C918 C920 1.356 . S
C918 O943 1.325 . S
C919 C918 1.348 . S
C919 C921 1.353 . S
C919 H960 0.929 . S
C920 C918 1.356 . S
C920 C922 1.358 . S
C920 H961 0.930 . S
C921 C919 1.353 . S
C921 N923 1.314 . S
C921 H962 0.930 . S
C922 C920 1.358 . S
C922 N923 1.279 . S
C922 H963 0.930 . S
N923 C921 1.314 . S
N923 C922 1.279 . S
C924 C926 1.353 . S
C924 N927 1.314 . S
C924 H930 0.930 . S
C925 N927 1.279 . S
C925 C928 1.358 . S
C925 H931 0.930 . S
C926 C924 1.353 . S
C926 C929 1.348 . S
C926 H964 0.929 . S
N927 Li882 1.990 . S
N927 C924 1.314 . S
N927 C925 1.279 . S
C928 C925 1.358 . S
C928 C929 1.356 . S
C928 H965 0.930 . S
C929 C926 1.348 . S
C929 C928 1.356 . S
H930 C924 0.930 . S
H931 C925 0.930 . S
C932 N933 1.314 . S
C932 C934 1.353 . S
C932 H938 0.930 . S
N933 Li883 1.990 . S
N933 C932 1.314 . S
N933 C936 1.279 . S
C934 C932 1.353 . S
C934 C937 1.348 . S
C934 H966 0.929 . S
C935 C936 1.358 . S
C935 C937 1.356 . S
C935 H967 0.930 . S
C936 N933 1.279 . S
C936 C935 1.358 . S
C936 H939 0.930 . S
C937 C934 1.348 . S
C937 C935 1.356 . S
H938 C932 0.930 . S
H939 C936 0.930 . S
O940 Li880 1.956 . S
O940 Li881 1.970 . S
O940 Li882 1.961 . S
O940 C884 1.325 . S
O941 Li880 1.970 . S
O941 Li881 1.956 . S
O941 Li883 1.961 . S
O941 C890 1.325 . S
O942 Li880 1.961 . S
O942 Li882 1.956 . S
O942 Li883 1.970 . S
O942 C912 1.325 . S
O943 Li881 1.961 . S
O943 Li882 1.970 . S
O943 Li883 1.956 . S
O943 C918 1.325 . S
H944 C886 0.929 . S
H945 C887 0.930 . S
H946 C888 0.930 . S
H947 C889 0.930 . S
H948 C891 0.930 . S
H949 C893 0.929 . S
H950 C894 0.930 . S
H951 C895 0.930 . S
H952 C898 0.930 . S
H953 C901 0.929 . S
H954 C906 0.929 . S
H955 C907 0.930 . S
H956 C914 0.929 . S
H957 C915 0.930 . S
H958 C916 0.930 . S
H959 C917 0.930 . S
H960 C919 0.929 . S
H961 C920 0.930 . S
H962 C921 0.930 . S
H963 C922 0.930 . S
H964 C926 0.929 . S
H965 C928 0.930 . S
H966 C934 0.929 . S
H967 C935 0.930 . S
Li968 N985 1.990 . S
Li968 O1028 1.956 . S
Li968 O1029 1.970 . S
Li968 O1030 1.961 . S
Li969 N993 1.990 . S
Li969 O1028 1.970 . S
Li969 O1029 1.956 . S
Li969 O1031 1.961 . S
Li970 N1015 1.990 . S
Li970 O1028 1.961 . S
Li970 O1030 1.956 . S
Li970 O1031 1.970 . S
Li971 N1021 1.990 . S
Li971 O1029 1.961 . S
Li971 O1030 1.970 . S
Li971 O1031 1.956 . S
C972 C974 1.348 . S
C972 C975 1.356 . S
C972 O1028 1.325 . S
N973 C976 1.314 . S
N973 C977 1.279 . S
C974 C972 1.348 . S
C974 C976 1.353 . S
C974 H1032 0.929 . S
C975 C972 1.356 . S
C975 C977 1.358 . S
C975 H1033 0.930 . S
C976 N973 1.314 . S
C976 C974 1.353 . S
C976 H1034 0.930 . S
C977 N973 1.279 . S
C977 C975 1.358 . S
C977 H1035 0.930 . S
C978 C981 1.348 . S
C978 C982 1.356 . S
C978 O1029 1.325 . S
C979 N980 1.279 . S
C979 C982 1.358 . S
C979 H1036 0.930 . S
N980 C979 1.279 . S
N980 C983 1.314 . S
C981 C978 1.348 . S
C981 C983 1.353 . S
C981 H1037 0.929 . S
C982 C978 1.356 . S
C982 C979 1.358 . S
C982 H1038 0.930 . S
C983 N980 1.314 . S
C983 C981 1.353 . S
C983 H1039 0.930 . S
C984 N985 1.314 . S
C984 C989 1.353 . S
C984 H990 0.930 . S
N985 Li968 1.990 . S
N985 C984 1.314 . S
N985 C987 1.279 . S
C986 C987 1.358 . S
C986 C988 1.356 . S
C986 H1040 0.930 . S
C987 N985 1.279 . S
C987 C986 1.358 . S
C987 H991 0.930 . S
C988 C986 1.356 . S
C988 C989 1.348 . S
C989 C984 1.353 . S
C989 C988 1.348 . S
C989 H1041 0.929 . S
H990 C984 0.930 . S
H991 C987 0.930 . S
C992 N993 1.314 . S
C992 C994 1.353 . S
C992 H998 0.930 . S
N993 Li969 1.990 . S
N993 C992 1.314 . S
N993 C996 1.279 . S
C994 C992 1.353 . S
C994 C997 1.348 . S
C994 H1042 0.929 . S
C995 C996 1.358 . S
C995 C997 1.356 . S
C995 H1043 0.930 . S
C996 N993 1.279 . S
C996 C995 1.358 . S
C996 H999 0.930 . S
C997 C994 1.348 . S
C997 C995 1.356 . S
H998 C992 0.930 . S
H999 C996 0.930 . S
C1000 C1002 1.348 . S
C1000 C1003 1.356 . S
C1000 O1030 1.325 . S
N1001 C1004 1.314 . S
N1001 C1005 1.279 . S
C1002 C1000 1.348 . S
C1002 C1004 1.353 . S
C1002 H1044 0.929 . S
C1003 C1000 1.356 . S
C1003 C1005 1.358 . S
C1003 H1045 0.930 . S
C1004 N1001 1.314 . S
C1004 C1002 1.353 . S
C1004 H1046 0.930 . S
C1005 N1001 1.279 . S
C1005 C1003 1.358 . S
C1005 H1047 0.930 . S
C1006 C1007 1.348 . S
C1006 C1008 1.356 . S
C1006 O1031 1.325 . S
C1007 C1006 1.348 . S
C1007 C1009 1.353 . S
C1007 H1048 0.929 . S
C1008 C1006 1.356 . S
C1008 C1010 1.358 . S
C1008 H1049 0.930 . S
C1009 C1007 1.353 . S
C1009 N1011 1.314 . S
C1009 H1050 0.930 . S
C1010 C1008 1.358 . S
C1010 N1011 1.279 . S
C1010 H1051 0.930 . S
N1011 C1009 1.314 . S
N1011 C1010 1.279 . S
C1012 C1014 1.353 . S
C1012 N1015 1.314 . S
C1012 H1018 0.930 . S
C1013 N1015 1.279 . S
C1013 C1016 1.358 . S
C1013 H1019 0.930 . S
C1014 C1012 1.353 . S
C1014 C1017 1.348 . S
C1014 H1052 0.929 . S
N1015 Li970 1.990 . S
N1015 C1012 1.314 . S
N1015 C1013 1.279 . S
C1016 C1013 1.358 . S
C1016 C1017 1.356 . S
C1016 H1053 0.930 . S
C1017 C1014 1.348 . S
C1017 C1016 1.356 . S
H1018 C1012 0.930 . S
H1019 C1013 0.930 . S
C1020 N1021 1.314 . S
C1020 C1022 1.353 . S
C1020 H1026 0.930 . S
N1021 Li971 1.990 . S
N1021 C1020 1.314 . S
N1021 C1024 1.279 . S
C1022 C1020 1.353 . S
C1022 C1025 1.348 . S
C1022 H1054 0.929 . S
C1023 C1024 1.358 . S
C1023 C1025 1.356 . S
C1023 H1055 0.930 . S
C1024 N1021 1.279 . S
C1024 C1023 1.358 . S
C1024 H1027 0.930 . S
C1025 C1022 1.348 . S
C1025 C1023 1.356 . S
H1026 C1020 0.930 . S
H1027 C1024 0.930 . S
O1028 Li968 1.956 . S
O1028 Li969 1.970 . S
O1028 Li970 1.961 . S
O1028 C972 1.325 . S
O1029 Li968 1.970 . S
O1029 Li969 1.956 . S
O1029 Li971 1.961 . S
O1029 C978 1.325 . S
O1030 Li968 1.961 . S
O1030 Li970 1.956 . S
O1030 Li971 1.970 . S
O1030 C1000 1.325 . S
O1031 Li969 1.961 . S
O1031 Li970 1.970 . S
O1031 Li971 1.956 . S
O1031 C1006 1.325 . S
H1032 C974 0.929 . S
H1033 C975 0.930 . S
H1034 C976 0.930 . S
H1035 C977 0.930 . S
H1036 C979 0.930 . S
H1037 C981 0.929 . S
H1038 C982 0.930 . S
H1039 C983 0.930 . S
H1040 C986 0.930 . S
H1041 C989 0.929 . S
H1042 C994 0.929 . S
H1043 C995 0.930 . S
H1044 C1002 0.929 . S
H1045 C1003 0.930 . S
H1046 C1004 0.930 . S
H1047 C1005 0.930 . S
H1048 C1007 0.929 . S
H1049 C1008 0.930 . S
H1050 C1009 0.930 . S
H1051 C1010 0.930 . S
H1052 C1014 0.929 . S
H1053 C1016 0.930 . S
H1054 C1022 0.929 . S
H1055 C1023 0.930 . S
H1056 C1064 0.950 . S
H1057 C1069 0.950 . S
H1058 C1066 0.950 . S
H1059 C1068 0.950 . S
H1060 C1070 0.950 . S
H1061 C1072 0.950 . S
H1062 C1074 0.950 . S
H1063 C1075 0.950 . S
C1064 H1056 0.950 . S
C1064 C1065 1.386 . S
C1064 C1066 1.391 . S
C1065 C1064 1.386 . S
C1065 C1069 1.393 . S
C1066 H1058 0.950 . S
C1066 C1064 1.391 . S
C1066 C1067 1.400 . S
C1067 C1066 1.400 . S
C1067 C1068 1.398 . S
C1067 C1073 1.491 . S
C1068 H1059 0.950 . S
C1068 C1067 1.398 . S
C1068 C1069 1.391 . S
C1069 H1057 0.950 . S
C1069 C1065 1.393 . S
C1069 C1068 1.391 . S
C1070 H1060 0.950 . S
C1070 C1071 1.386 . S
C1070 C1072 1.391 . S
C1071 C1070 1.386 . S
C1071 C1075 1.393 . S
C1072 H1061 0.950 . S
C1072 C1070 1.391 . S
C1072 C1073 1.400 . S
C1073 C1067 1.491 . S
C1073 C1072 1.400 . S
C1073 C1074 1.398 . S
C1074 H1062 0.950 . S
C1074 C1073 1.398 . S
C1074 C1075 1.391 . S
C1075 H1063 0.950 . S
C1075 C1071 1.393 . S
C1075 C1074 1.391 . S
H1076 C1084 0.950 . S
H1077 C1089 0.950 . S
H1078 C1086 0.950 . S
H1079 C1088 0.950 . S
H1080 C1090 0.950 . S
H1081 C1092 0.950 . S
H1082 C1094 0.950 . S
H1083 C1095 0.950 . S
C1084 H1076 0.950 . S
C1084 C1085 1.386 . S
C1084 C1086 1.391 . S
C1085 C1084 1.386 . S
C1085 C1089 1.393 . S
C1086 H1078 0.950 . S
C1086 C1084 1.391 . S
C1086 C1087 1.400 . S
C1087 C1086 1.400 . S
C1087 C1088 1.398 . S
C1087 C1093 1.491 . S
C1088 H1079 0.950 . S
C1088 C1087 1.398 . S
C1088 C1089 1.391 . S
C1089 H1077 0.950 . S
C1089 C1085 1.393 . S
C1089 C1088 1.391 . S
C1090 H1080 0.950 . S
C1090 C1091 1.386 . S
C1090 C1092 1.391 . S
C1091 C1090 1.386 . S
C1091 C1095 1.393 . S
C1092 H1081 0.950 . S
C1092 C1090 1.391 . S
C1092 C1093 1.400 . S
C1093 C1087 1.491 . S
C1093 C1092 1.400 . S
C1093 C1094 1.398 . S
C1094 H1082 0.950 . S
C1094 C1093 1.398 . S
C1094 C1095 1.391 . S
C1095 H1083 0.950 . S
C1095 C1091 1.393 . S
C1095 C1094 1.391 . S
H1096 C1104 0.950 . S
H1097 C1109 0.950 . S
H1098 C1106 0.950 . S
H1099 C1108 0.950 . S
H1100 C1110 0.950 . S
H1101 C1112 0.950 . S
H1102 C1114 0.950 . S
H1103 C1115 0.950 . S
C1104 H1096 0.950 . S
C1104 C1105 1.386 . S
C1104 C1106 1.391 . S
C1105 C1104 1.386 . S
C1105 C1109 1.393 . S
C1106 H1098 0.950 . S
C1106 C1104 1.391 . S
C1106 C1107 1.400 . S
C1107 C1106 1.400 . S
C1107 C1108 1.398 . S
C1107 C1113 1.491 . S
C1108 H1099 0.950 . S
C1108 C1107 1.398 . S
C1108 C1109 1.391 . S
C1109 H1097 0.950 . S
C1109 C1105 1.393 . S
C1109 C1108 1.391 . S
C1110 H1100 0.950 . S
C1110 C1111 1.386 . S
C1110 C1112 1.391 . S
C1111 C1110 1.386 . S
C1111 C1115 1.393 . S
C1112 H1101 0.950 . S
C1112 C1110 1.391 . S
C1112 C1113 1.400 . S
C1113 C1107 1.491 . S
C1113 C1112 1.400 . S
C1113 C1114 1.398 . S
C1114 H1102 0.950 . S
C1114 C1113 1.398 . S
C1114 C1115 1.391 . S
C1115 H1103 0.950 . S
C1115 C1111 1.393 . S
C1115 C1114 1.391 . S
H1116 C1124 0.950 . S
H1117 C1129 0.950 . S
H1118 C1126 0.950 . S
H1119 C1128 0.950 . S
H1120 C1130 0.950 . S
H1121 C1132 0.950 . S
H1122 C1134 0.950 . S
H1123 C1135 0.950 . S
C1124 H1116 0.950 . S
C1124 C1125 1.386 . S
C1124 C1126 1.391 . S
C1125 C1124 1.386 . S
C1125 C1129 1.393 . S
C1126 H1118 0.950 . S
C1126 C1124 1.391 . S
C1126 C1127 1.400 . S
C1127 C1126 1.400 . S
C1127 C1128 1.398 . S
C1127 C1133 1.491 . S
C1128 H1119 0.950 . S
C1128 C1127 1.398 . S
C1128 C1129 1.391 . S
C1129 H1117 0.950 . S
C1129 C1125 1.393 . S
C1129 C1128 1.391 . S
C1130 H1120 0.950 . S
C1130 C1131 1.386 . S
C1130 C1132 1.391 . S
C1131 C1130 1.386 . S
C1131 C1135 1.393 . S
C1132 H1121 0.950 . S
C1132 C1130 1.391 . S
C1132 C1133 1.400 . S
C1133 C1127 1.491 . S
C1133 C1132 1.400 . S
C1133 C1134 1.398 . S
C1134 H1122 0.950 . S
C1134 C1133 1.398 . S
C1134 C1135 1.391 . S
C1135 H1123 0.950 . S
C1135 C1131 1.393 . S
C1135 C1134 1.391 . S
H1136 C1144 0.950 . S
H1137 C1149 0.950 . S
H1138 C1146 0.935 1_556 S
H1139 C1148 0.950 . S
H1140 C1150 0.950 . S
H1141 C1152 0.950 . S
H1142 C1154 0.950 . S
H1143 C1155 0.950 . S
C1144 H1136 0.950 . S
C1144 C1145 1.386 . S
C1144 C1146 1.405 . S
C1145 C1144 1.386 . S
C1145 C1149 1.393 . S
C1146 H1138 0.935 1_554 S
C1146 C1144 1.405 . S
C1146 C1147 1.401 . S
C1147 C1146 1.401 . S
C1147 C1148 1.398 . S
C1147 C1153 1.491 1_554 S
C1148 H1139 0.950 . S
C1148 C1147 1.398 . S
C1148 C1149 1.391 . S
C1149 H1137 0.950 . S
C1149 C1145 1.393 . S
C1149 C1148 1.391 . S
C1150 H1140 0.950 . S
C1150 C1151 1.386 . S
C1150 C1152 1.391 . S
C1151 C1150 1.386 . S
C1151 C1155 1.393 . S
C1152 H1141 0.950 . S
C1152 C1150 1.391 . S
C1152 C1153 1.400 . S
C1153 C1147 1.491 1_556 S
C1153 C1152 1.400 . S
C1153 C1154 1.398 . S
C1154 H1142 0.950 . S
C1154 C1153 1.398 . S
C1154 C1155 1.391 . S
C1155 H1143 0.950 . S
C1155 C1151 1.393 . S
C1155 C1154 1.391 . S
H1156 C1164 0.950 . S
H1157 C1169 0.950 . S
H1158 C1166 0.950 . S
H1159 C1168 0.950 . S
H1160 C1170 0.950 . S
H1161 C1172 0.950 . S
H1162 C1174 0.950 . S
H1163 C1175 0.950 . S
C1164 H1156 0.950 . S
C1164 C1165 1.386 . S
C1164 C1166 1.391 . S
C1165 C1164 1.386 . S
C1165 C1169 1.393 . S
C1166 H1158 0.950 . S
C1166 C1164 1.391 . S
C1166 C1167 1.400 . S
C1167 C1166 1.400 . S
C1167 C1168 1.398 . S
C1167 C1173 1.491 . S
C1168 H1159 0.950 . S
C1168 C1167 1.398 . S
C1168 C1169 1.391 . S
C1169 H1157 0.950 . S
C1169 C1165 1.393 . S
C1169 C1168 1.391 . S
C1170 H1160 0.950 . S
C1170 C1171 1.386 . S
C1170 C1172 1.391 . S
C1171 C1170 1.386 . S
C1171 C1175 1.393 . S
C1172 H1161 0.950 . S
C1172 C1170 1.391 . S
C1172 C1173 1.400 . S
C1173 C1167 1.491 . S
C1173 C1172 1.400 . S
C1173 C1174 1.398 . S
C1174 H1162 0.950 . S
C1174 C1173 1.398 . S
C1174 C1175 1.391 . S
C1175 H1163 0.950 . S
C1175 C1171 1.393 . S
C1175 C1174 1.391 . S
H1176 C1184 0.950 . S
H1177 C1189 0.950 . S
H1178 C1186 0.950 . S
H1179 C1188 0.950 . S
H1180 C1190 0.950 . S
H1181 C1192 0.950 . S
H1182 C1194 0.950 . S
H1183 C1195 0.950 . S
C1184 H1176 0.950 . S
C1184 C1185 1.386 . S
C1184 C1186 1.391 . S
C1185 C1184 1.386 . S
C1185 C1189 1.393 . S
C1186 H1178 0.950 . S
C1186 C1184 1.391 . S
C1186 C1187 1.400 . S
C1187 C1186 1.400 . S
C1187 C1188 1.398 . S
C1187 C1193 1.491 . S
C1188 H1179 0.950 . S
C1188 C1187 1.398 . S
C1188 C1189 1.391 . S
C1189 H1177 0.950 . S
C1189 C1185 1.393 . S
C1189 C1188 1.391 . S
C1190 H1180 0.950 . S
C1190 C1191 1.386 . S
C1190 C1192 1.391 . S
C1191 C1190 1.386 . S
C1191 C1195 1.393 . S
C1192 H1181 0.950 . S
C1192 C1190 1.391 . S
C1192 C1193 1.400 . S
C1193 C1187 1.491 . S
C1193 C1192 1.400 . S
C1193 C1194 1.398 . S
C1194 H1182 0.950 . S
C1194 C1193 1.398 . S
C1194 C1195 1.391 . S
C1195 H1183 0.950 . S
C1195 C1191 1.393 . S
C1195 C1194 1.391 . S
H1196 C1204 0.950 . S
H1197 C1209 0.950 . S
H1198 C1206 0.950 . S
H1199 C1208 0.950 . S
H1200 C1210 0.950 . S
H1201 C1212 0.950 . S
H1202 C1214 0.950 . S
H1203 C1215 0.950 . S
C1204 H1196 0.950 . S
C1204 C1205 1.386 . S
C1204 C1206 1.391 . S
C1205 C1204 1.386 . S
C1205 C1209 1.393 . S
C1206 H1198 0.950 . S
C1206 C1204 1.391 . S
C1206 C1207 1.400 . S
C1207 C1206 1.400 . S
C1207 C1208 1.398 . S
C1207 C1213 1.491 . S
C1208 H1199 0.950 . S
C1208 C1207 1.398 . S
C1208 C1209 1.391 . S
C1209 H1197 0.950 . S
C1209 C1205 1.393 . S
C1209 C1208 1.391 . S
C1210 H1200 0.950 . S
C1210 C1211 1.386 . S
C1210 C1212 1.391 . S
C1211 C1210 1.386 . S
C1211 C1215 1.393 . S
C1212 H1201 0.950 . S
C1212 C1210 1.391 . S
C1212 C1213 1.400 . S
C1213 C1207 1.491 . S
C1213 C1212 1.400 . S
C1213 C1214 1.398 . S
C1214 H1202 0.950 . S
C1214 C1213 1.398 . S
C1214 C1215 1.391 . S
C1215 H1203 0.950 . S
C1215 C1211 1.393 . S
C1215 C1214 1.391 . S
H1216 C1224 0.950 . S
H1217 C1229 0.950 . S
H1218 C1226 0.950 . S
H1219 C1228 0.950 . S
H1220 C1230 0.950 . S
H1221 C1232 0.950 . S
H1222 C1234 0.950 . S
H1223 C1235 0.950 . S
C1224 H1216 0.950 . S
C1224 C1225 1.386 . S
C1224 C1226 1.391 . S
C1225 C1224 1.386 . S
C1225 C1229 1.393 . S
C1226 H1218 0.950 . S
C1226 C1224 1.391 . S
C1226 C1227 1.400 . S
C1227 C1226 1.400 . S
C1227 C1228 1.398 . S
C1227 C1233 1.491 . S
C1228 H1219 0.950 . S
C1228 C1227 1.398 . S
C1228 C1229 1.391 . S
C1229 H1217 0.950 . S
C1229 C1225 1.393 . S
C1229 C1228 1.391 . S
C1230 H1220 0.950 . S
C1230 C1231 1.386 . S
C1230 C1232 1.391 . S
C1231 C1230 1.386 . S
C1231 C1235 1.393 . S
C1232 H1221 0.950 . S
C1232 C1230 1.391 . S
C1232 C1233 1.400 . S
C1233 C1227 1.491 . S
C1233 C1232 1.400 . S
C1233 C1234 1.398 . S
C1234 H1222 0.950 . S
C1234 C1233 1.398 . S
C1234 C1235 1.391 . S
C1235 H1223 0.950 . S
C1235 C1231 1.393 . S
C1235 C1234 1.391 . S
H1236 C1244 0.950 . S
H1237 C1249 0.950 . S
H1238 C1246 0.950 . S
H1239 C1248 0.950 . S
H1240 C1250 0.950 . S
H1241 C1252 0.950 . S
H1242 C1254 0.950 . S
H1243 C1255 0.950 . S
C1244 H1236 0.950 . S
C1244 C1245 1.386 . S
C1244 C1246 1.391 . S
C1245 C1244 1.386 . S
C1245 C1249 1.393 . S
C1246 H1238 0.950 . S
C1246 C1244 1.391 . S
C1246 C1247 1.400 . S
C1247 C1246 1.400 . S
C1247 C1248 1.398 . S
C1247 C1253 1.491 . S
C1248 H1239 0.950 . S
C1248 C1247 1.398 . S
C1248 C1249 1.391 . S
C1249 H1237 0.950 . S
C1249 C1245 1.393 . S
C1249 C1248 1.391 . S
C1250 H1240 0.950 . S
C1250 C1251 1.386 . S
C1250 C1252 1.391 . S
C1251 C1250 1.386 . S
C1251 C1255 1.393 . S
C1252 H1241 0.950 . S
C1252 C1250 1.391 . S
C1252 C1253 1.400 . S
C1253 C1247 1.491 . S
C1253 C1252 1.400 . S
C1253 C1254 1.398 . S
C1254 H1242 0.950 . S
C1254 C1253 1.398 . S
C1254 C1255 1.391 . S
C1255 H1243 0.950 . S
C1255 C1251 1.393 . S
C1255 C1254 1.391 . S
H1256 C1264 0.950 . S
H1257 C1269 0.950 . S
H1258 C1266 0.950 . S
H1259 C1268 0.950 . S
H1260 C1270 0.950 . S
H1261 C1272 0.950 . S
H1262 C1274 0.950 . S
H1263 C1275 0.950 . S
C1264 H1256 0.950 . S
C1264 C1265 1.386 . S
C1264 C1266 1.391 . S
C1265 C1264 1.386 . S
C1265 C1269 1.393 . S
C1266 H1258 0.950 . S
C1266 C1264 1.391 . S
C1266 C1267 1.400 . S
C1267 C1266 1.400 . S
C1267 C1268 1.398 . S
C1267 C1273 1.491 . S
C1268 H1259 0.950 . S
C1268 C1267 1.398 . S
C1268 C1269 1.391 . S
C1269 H1257 0.950 . S
C1269 C1265 1.393 . S
C1269 C1268 1.391 . S
C1270 H1260 0.950 . S
C1270 C1271 1.386 . S
C1270 C1272 1.391 . S
C1271 C1270 1.386 . S
C1271 C1275 1.393 . S
C1272 H1261 0.950 . S
C1272 C1270 1.391 . S
C1272 C1273 1.400 . S
C1273 C1267 1.491 . S
C1273 C1272 1.400 . S
C1273 C1274 1.398 . S
C1274 H1262 0.950 . S
C1274 C1273 1.398 . S
C1274 C1275 1.391 . S
C1275 H1263 0.950 . S
C1275 C1271 1.393 . S
C1275 C1274 1.391 . S
H1276 C1284 0.950 . S
H1277 C1289 0.950 . S
H1278 C1286 0.950 . S
H1279 C1288 0.950 1_554 S
H1280 C1290 0.950 . S
H1281 C1292 0.950 . S
H1282 C1294 0.950 . S
H1283 C1295 0.950 . S
C1284 H1276 0.950 . S
C1284 C1285 1.386 . S
C1284 C1286 1.391 . S
C1285 C1284 1.386 . S
C1285 C1289 1.393 . S
C1286 H1278 0.950 . S
C1286 C1284 1.391 . S
C1286 C1287 1.400 . S
C1287 C1286 1.400 . S
C1287 C1288 1.398 . S
C1287 C1293 1.491 . S
C1288 H1279 0.950 1_556 S
C1288 C1287 1.398 . S
C1288 C1289 1.391 . S
C1289 H1277 0.950 . S
C1289 C1285 1.393 . S
C1289 C1288 1.391 . S
C1290 H1280 0.950 . S
C1290 C1291 1.386 . S
C1290 C1292 1.391 . S
C1291 C1290 1.386 . S
C1291 C1295 1.393 1_554 S
C1292 H1281 0.950 . S
C1292 C1290 1.391 . S
C1292 C1293 1.400 1_554 S
C1293 C1287 1.491 . S
C1293 C1292 1.400 1_556 S
C1293 C1294 1.398 . S
C1294 H1282 0.950 . S
C1294 C1293 1.398 . S
C1294 C1295 1.391 . S
C1295 H1283 0.950 . S
C1295 C1291 1.393 1_556 S
C1295 C1294 1.391 . S
H1296 C1304 0.950 . S
H1297 C1309 0.950 . S
H1298 C1306 0.950 . S
H1299 C1308 0.950 . S
H1300 C1310 0.950 . S
H1301 C1312 0.950 . S
H1302 C1314 0.950 . S
H1303 C1315 0.950 . S
C1304 H1296 0.950 . S
C1304 C1305 1.386 . S
C1304 C1306 1.391 . S
C1305 C1304 1.386 . S
C1305 C1309 1.393 . S
C1306 H1298 0.950 . S
C1306 C1304 1.391 . S
C1306 C1307 1.400 . S
C1307 C1306 1.400 . S
C1307 C1308 1.398 . S
C1307 C1313 1.491 . S
C1308 H1299 0.950 . S
C1308 C1307 1.398 . S
C1308 C1309 1.391 . S
C1309 H1297 0.950 . S
C1309 C1305 1.393 . S
C1309 C1308 1.391 . S
C1310 H1300 0.950 . S
C1310 C1311 1.386 . S
C1310 C1312 1.391 . S
C1311 C1310 1.386 . S
C1311 C1315 1.393 . S
C1312 H1301 0.950 . S
C1312 C1310 1.391 . S
C1312 C1313 1.400 . S
C1313 C1307 1.491 . S
C1313 C1312 1.400 . S
C1313 C1314 1.398 . S
C1314 H1302 0.950 . S
C1314 C1313 1.398 . S
C1314 C1315 1.391 . S
C1315 H1303 0.950 . S
C1315 C1311 1.393 . S
C1315 C1314 1.391 . S
H1316 C1324 0.950 . S
H1317 C1329 0.950 . S
H1318 C1326 0.950 . S
H1319 C1328 0.950 1_554 S
H1320 C1330 0.950 . S
H1321 C1332 0.950 . S
H1322 C1334 0.950 . S
H1323 C1335 0.950 . S
C1324 H1316 0.950 . S
C1324 C1325 1.386 . S
C1324 C1326 1.391 . S
C1325 C1324 1.386 . S
C1325 C1329 1.393 . S
C1326 H1318 0.950 . S
C1326 C1324 1.391 . S
C1326 C1327 1.400 . S
C1327 C1326 1.400 . S
C1327 C1328 1.398 . S
C1327 C1333 1.481 1_556 S
C1328 H1319 0.950 1_556 S
C1328 C1327 1.398 . S
C1328 C1329 1.391 . S
C1329 H1317 0.950 . S
C1329 C1325 1.393 . S
C1329 C1328 1.391 . S
C1330 H1320 0.950 . S
C1330 C1331 1.386 . S
C1330 C1332 1.391 . S
C1331 C1330 1.386 . S
C1331 C1335 1.393 . S
C1332 H1321 0.950 . S
C1332 C1330 1.391 . S
C1332 C1333 1.413 . S
C1333 C1327 1.481 1_554 S
C1333 C1332 1.413 . S
C1333 C1334 1.396 1_554 S
C1334 H1322 0.950 . S
C1334 C1333 1.396 1_556 S
C1334 C1335 1.391 1_556 S
C1335 H1323 0.950 . S
C1335 C1331 1.393 . S
C1335 C1334 1.391 1_554 S
H1336 C1344 0.950 . S
H1337 C1349 0.950 . S
H1338 C1346 0.950 . S
H1339 C1348 0.950 . S
H1340 C1350 0.950 . S
H1341 C1352 0.950 . S
H1342 C1354 0.950 . S
H1343 C1355 0.950 . S
C1344 H1336 0.950 . S
C1344 C1345 1.386 . S
C1344 C1346 1.391 . S
C1345 C1344 1.386 . S
C1345 C1349 1.393 . S
C1346 H1338 0.950 . S
C1346 C1344 1.391 . S
C1346 C1347 1.400 . S
C1347 C1346 1.400 . S
C1347 C1348 1.398 . S
C1347 C1353 1.491 . S
C1348 H1339 0.950 . S
C1348 C1347 1.398 . S
C1348 C1349 1.391 . S
C1349 H1337 0.950 . S
C1349 C1345 1.393 . S
C1349 C1348 1.391 . S
C1350 H1340 0.950 . S
C1350 C1351 1.386 . S
C1350 C1352 1.391 . S
C1351 C1350 1.386 . S
C1351 C1355 1.393 . S
C1352 H1341 0.950 . S
C1352 C1350 1.391 . S
C1352 C1353 1.400 . S
C1353 C1347 1.491 . S
C1353 C1352 1.400 . S
C1353 C1354 1.398 . S
C1354 H1342 0.950 . S
C1354 C1353 1.398 . S
C1354 C1355 1.391 . S
C1355 H1343 0.950 . S
C1355 C1351 1.393 . S
C1355 C1354 1.391 . S
H1356 C1364 0.950 . S
H1357 C1369 0.950 . S
H1358 C1366 0.950 . S
H1359 C1368 0.950 . S
H1360 C1370 0.950 . S
H1361 C1372 0.950 . S
H1362 C1374 0.950 . S
H1363 C1375 0.950 . S
C1364 H1356 0.950 . S
C1364 C1365 1.386 . S
C1364 C1366 1.391 . S
C1365 C1364 1.386 . S
C1365 C1369 1.393 . S
C1366 H1358 0.950 . S
C1366 C1364 1.391 . S
C1366 C1367 1.400 . S
C1367 C1366 1.400 . S
C1367 C1368 1.398 . S
C1367 C1373 1.491 . S
C1368 H1359 0.950 . S
C1368 C1367 1.398 . S
C1368 C1369 1.391 . S
C1369 H1357 0.950 . S
C1369 C1365 1.393 . S
C1369 C1368 1.391 . S
C1370 H1360 0.950 . S
C1370 C1371 1.386 . S
C1370 C1372 1.391 . S
C1371 C1370 1.386 . S
C1371 C1375 1.393 . S
C1372 H1361 0.950 . S
C1372 C1370 1.391 . S
C1372 C1373 1.400 . S
C1373 C1367 1.491 . S
C1373 C1372 1.400 . S
C1373 C1374 1.398 . S
C1374 H1362 0.950 . S
C1374 C1373 1.398 . S
C1374 C1375 1.391 . S
C1375 H1363 0.950 . S
C1375 C1371 1.393 . S
C1375 C1374 1.391 . S
H1376 C1384 0.950 . S
H1377 C1389 0.950 . S
H1378 C1386 0.950 . S
H1379 C1388 0.950 . S
H1380 C1390 0.950 . S
H1381 C1392 0.950 . S
H1382 C1394 0.950 . S
H1383 C1395 0.950 . S
C1384 H1376 0.950 . S
C1384 C1385 1.386 . S
C1384 C1386 1.391 . S
C1385 C1384 1.386 . S
C1385 C1389 1.393 . S
C1386 H1378 0.950 . S
C1386 C1384 1.391 . S
C1386 C1387 1.400 . S
C1387 C1386 1.400 . S
C1387 C1388 1.398 . S
C1387 C1393 1.491 . S
C1388 H1379 0.950 . S
C1388 C1387 1.398 . S
C1388 C1389 1.391 . S
C1389 H1377 0.950 . S
C1389 C1385 1.393 . S
C1389 C1388 1.391 . S
C1390 H1380 0.950 . S
C1390 C1391 1.386 . S
C1390 C1392 1.391 . S
C1391 C1390 1.386 . S
C1391 C1395 1.393 . S
C1392 H1381 0.950 . S
C1392 C1390 1.391 . S
C1392 C1393 1.400 . S
C1393 C1387 1.491 . S
C1393 C1392 1.400 . S
C1393 C1394 1.398 . S
C1394 H1382 0.950 . S
C1394 C1393 1.398 . S
C1394 C1395 1.391 . S
C1395 H1383 0.950 . S
C1395 C1391 1.393 . S
C1395 C1394 1.391 . S
H1396 C1404 0.950 . S
H1397 C1409 0.950 . S
H1398 C1406 0.950 . S
H1399 C1408 0.950 . S
H1400 C1410 0.950 . S
H1401 C1412 0.950 . S
H1402 C1414 0.950 . S
H1403 C1415 0.950 . S
C1404 H1396 0.950 . S
C1404 C1405 1.386 . S
C1404 C1406 1.391 . S
C1405 C1404 1.386 . S
C1405 C1409 1.393 . S
C1406 H1398 0.950 . S
C1406 C1404 1.391 . S
C1406 C1407 1.400 . S
C1407 C1406 1.400 . S
C1407 C1408 1.398 . S
C1407 C1413 1.491 . S
C1408 H1399 0.950 . S
C1408 C1407 1.398 . S
C1408 C1409 1.391 . S
C1409 H1397 0.950 . S
C1409 C1405 1.393 . S
C1409 C1408 1.391 . S
C1410 H1400 0.950 . S
C1410 C1411 1.386 . S
C1410 C1412 1.391 . S
C1411 C1410 1.386 . S
C1411 C1415 1.393 . S
C1412 H1401 0.950 . S
C1412 C1410 1.391 . S
C1412 C1413 1.400 . S
C1413 C1407 1.491 . S
C1413 C1412 1.400 . S
C1413 C1414 1.398 . S
C1414 H1402 0.950 . S
C1414 C1413 1.398 . S
C1414 C1415 1.391 . S
C1415 H1403 0.950 . S
C1415 C1411 1.393 . S
C1415 C1414 1.391 . S
H1416 C1424 0.950 . S
H1417 C1429 0.950 . S
H1418 C1426 0.950 . S
H1419 C1428 0.950 . S
H1420 C1430 0.950 . S
H1421 C1432 0.950 . S
H1422 C1434 0.950 . S
H1423 C1435 0.950 . S
C1424 H1416 0.950 . S
C1424 C1425 1.386 . S
C1424 C1426 1.391 . S
C1425 C1424 1.386 . S
C1425 C1429 1.393 . S
C1426 H1418 0.950 . S
C1426 C1424 1.391 . S
C1426 C1427 1.400 . S
C1427 C1426 1.400 . S
C1427 C1428 1.398 . S
C1427 C1433 1.491 1_545 S
C1428 H1419 0.950 . S
C1428 C1427 1.398 . S
C1428 C1429 1.391 . S
C1429 H1417 0.950 . S
C1429 C1425 1.393 . S
C1429 C1428 1.391 . S
C1430 H1420 0.950 . S
C1430 C1431 1.386 . S
C1430 C1432 1.391 . S
C1431 C1430 1.386 . S
C1431 C1435 1.393 . S
C1432 H1421 0.950 . S
C1432 C1430 1.391 . S
C1432 C1433 1.400 . S
C1433 C1427 1.491 1_565 S
C1433 C1432 1.400 . S
C1433 C1434 1.398 . S
C1434 H1422 0.950 . S
C1434 C1433 1.398 . S
C1434 C1435 1.391 . S
C1435 H1423 0.950 . S
C1435 C1431 1.393 . S
C1435 C1434 1.391 . S
H1436 C1444 0.950 . S
H1437 C1449 0.950 . S
H1438 C1446 0.950 . S
H1439 C1448 0.950 . S
H1440 C1450 0.950 . S
H1441 C1452 0.950 . S
H1442 C1454 0.950 . S
H1443 C1455 0.950 . S
C1444 H1436 0.950 . S
C1444 C1445 1.386 . S
C1444 C1446 1.391 . S
C1445 C1444 1.386 . S
C1445 C1449 1.393 . S
C1446 H1438 0.950 . S
C1446 C1444 1.391 . S
C1446 C1447 1.400 . S
C1447 C1446 1.400 . S
C1447 C1448 1.398 . S
C1447 C1453 1.491 . S
C1448 H1439 0.950 . S
C1448 C1447 1.398 . S
C1448 C1449 1.391 . S
C1449 H1437 0.950 . S
C1449 C1445 1.393 . S
C1449 C1448 1.391 . S
C1450 H1440 0.950 . S
C1450 C1451 1.386 . S
C1450 C1452 1.391 . S
C1451 C1450 1.386 . S
C1451 C1455 1.393 . S
C1452 H1441 0.950 . S
C1452 C1450 1.391 . S
C1452 C1453 1.400 . S
C1453 C1447 1.491 . S
C1453 C1452 1.400 . S
C1453 C1454 1.398 . S
C1454 H1442 0.950 . S
C1454 C1453 1.398 . S
C1454 C1455 1.391 . S
C1455 H1443 0.950 . S
C1455 C1451 1.393 . S
C1455 C1454 1.391 . S
H1456 C1464 0.950 . S
H1457 C1469 0.950 . S
H1458 C1466 0.950 . S
H1459 C1468 0.950 . S
H1460 C1470 0.950 . S
H1461 C1472 0.950 . S
H1462 C1474 0.950 . S
H1463 C1475 0.950 . S
C1464 H1456 0.950 . S
C1464 C1465 1.386 . S
C1464 C1466 1.391 . S
C1465 C1464 1.386 . S
C1465 C1469 1.393 . S
C1466 H1458 0.950 . S
C1466 C1464 1.391 . S
C1466 C1467 1.400 . S
C1467 C1466 1.400 . S
C1467 C1468 1.398 . S
C1467 C1473 1.491 1_455 S
C1468 H1459 0.950 . S
C1468 C1467 1.398 . S
C1468 C1469 1.391 . S
C1469 H1457 0.950 . S
C1469 C1465 1.393 . S
C1469 C1468 1.391 . S
C1470 H1460 0.950 . S
C1470 C1471 1.386 . S
C1470 C1472 1.391 . S
C1471 C1470 1.386 . S
C1471 C1475 1.393 . S
C1472 H1461 0.950 . S
C1472 C1470 1.391 . S
C1472 C1473 1.400 . S
C1473 C1467 1.491 1_655 S
C1473 C1472 1.400 . S
C1473 C1474 1.398 . S
C1474 H1462 0.950 . S
C1474 C1473 1.398 . S
C1474 C1475 1.391 . S
C1475 H1463 0.950 . S
C1475 C1471 1.393 . S
C1475 C1474 1.391 . S
H1476 C1484 0.950 . S
H1477 C1489 0.950 . S
H1478 C1486 0.950 . S
H1479 C1488 0.950 . S
H1480 C1490 0.950 . S
H1481 C1492 0.950 . S
H1482 C1494 0.950 . S
H1483 C1495 0.950 . S
C1484 H1476 0.950 . S
C1484 C1485 1.386 . S
C1484 C1486 1.391 . S
C1485 C1484 1.386 . S
C1485 C1489 1.393 . S
C1486 H1478 0.950 . S
C1486 C1484 1.391 . S
C1486 C1487 1.400 . S
C1487 C1486 1.400 . S
C1487 C1488 1.398 . S
C1487 C1493 1.491 1_565 S
C1488 H1479 0.950 . S
C1488 C1487 1.398 . S
C1488 C1489 1.391 . S
C1489 H1477 0.950 . S
C1489 C1485 1.393 . S
C1489 C1488 1.391 . S
C1490 H1480 0.950 . S
C1490 C1491 1.386 . S
C1490 C1492 1.391 . S
C1491 C1490 1.386 . S
C1491 C1495 1.393 . S
C1492 H1481 0.950 . S
C1492 C1490 1.391 . S
C1492 C1493 1.400 . S
C1493 C1487 1.491 1_545 S
C1493 C1492 1.400 . S
C1493 C1494 1.398 . S
C1494 H1482 0.950 . S
C1494 C1493 1.398 . S
C1494 C1495 1.391 . S
C1495 H1483 0.950 . S
C1495 C1491 1.393 . S
C1495 C1494 1.391 . S
H1496 C1504 0.950 . S
H1497 C1509 0.950 . S
H1498 C1506 0.950 . S
H1499 C1508 0.950 . S
H1500 C1510 0.950 . S
H1501 C1512 0.950 . S
H1502 C1514 0.950 . S
H1503 C1515 0.950 . S
C1504 H1496 0.950 . S
C1504 C1505 1.386 . S
C1504 C1506 1.391 . S
C1505 C1504 1.386 . S
C1505 C1509 1.393 . S
C1506 H1498 0.950 . S
C1506 C1504 1.391 . S
C1506 C1507 1.400 . S
C1507 C1506 1.400 . S
C1507 C1508 1.398 . S
C1507 C1513 1.491 . S
C1508 H1499 0.950 . S
C1508 C1507 1.398 . S
C1508 C1509 1.391 . S
C1509 H1497 0.950 . S
C1509 C1505 1.393 . S
C1509 C1508 1.391 . S
C1510 H1500 0.950 . S
C1510 C1511 1.386 . S
C1510 C1512 1.391 . S
C1511 C1510 1.386 . S
C1511 C1515 1.393 . S
C1512 H1501 0.950 . S
C1512 C1510 1.391 . S
C1512 C1513 1.400 . S
C1513 C1507 1.491 . S
C1513 C1512 1.400 . S
C1513 C1514 1.398 . S
C1514 H1502 0.950 . S
C1514 C1513 1.398 . S
C1514 C1515 1.391 . S
C1515 H1503 0.950 . S
C1515 C1511 1.393 . S
C1515 C1514 1.391 . S
H1516 C1524 0.950 . S
H1517 C1529 0.950 . S
H1518 C1526 0.950 . S
H1519 C1528 0.950 . S
H1520 C1530 0.950 . S
H1521 C1532 0.950 . S
H1522 C1534 0.950 . S
H1523 C1535 0.950 . S
C1524 H1516 0.950 . S
C1524 C1525 1.386 . S
C1524 C1526 1.391 . S
C1525 C1524 1.386 . S
C1525 C1529 1.393 . S
C1526 H1518 0.950 . S
C1526 C1524 1.391 . S
C1526 C1527 1.400 . S
C1527 C1526 1.400 . S
C1527 C1528 1.398 . S
C1527 C1533 1.491 1_455 S
C1528 H1519 0.950 . S
C1528 C1527 1.398 . S
C1528 C1529 1.391 . S
C1529 H1517 0.950 . S
C1529 C1525 1.393 . S
C1529 C1528 1.391 . S
C1530 H1520 0.950 . S
C1530 C1531 1.386 . S
C1530 C1532 1.391 . S
C1531 C1530 1.386 . S
C1531 C1535 1.393 . S
C1532 H1521 0.950 . S
C1532 C1530 1.391 . S
C1532 C1533 1.400 . S
C1533 C1527 1.491 1_655 S
C1533 C1532 1.400 . S
C1533 C1534 1.398 . S
C1534 H1522 0.950 . S
C1534 C1533 1.398 . S
C1534 C1535 1.391 . S
C1535 H1523 0.950 . S
C1535 C1531 1.393 . S
C1535 C1534 1.391 . S
C1065 C29 1.202 . S
C1071 C929 1.200 . S
C1085 C108 1.201 . S
C1091 C1025 1.197 . S
C1105 C585 1.199 . S
C1111 C205 1.202 . S
C1125 C293 1.198 . S
C1131 C673 1.202 . S
C1145 C761 1.197 . S
C1151 C381 1.201 . S
C1165 C841 1.201 . S
C1171 C489 1.197 . S
C1185 C724 1.127 . S
C1191 C49 1.142 . S
C1205 C145 1.147 . S
C1211 C821 1.154 . S
C1225 C909 1.151 . S
C1231 C225 1.135 . S
C1245 C313 1.155 . S
C1251 C988 1.149 . S
C1265 C401 1.133 . S
C1271 C548 1.149 . S
C1285 C469 1.144 . S
C1291 C636 1.128 . S
C1305 C900 1.780 . S
C1311 C57 1.781 . S
C1325 C997 1.772 . S
C1331 C137 1.778 . S
C1345 C557 1.770 . S
C1351 C233 1.770 . S
C1365 C321 1.777 . S
C1371 C645 1.771 . S
C1385 C409 1.776 . S
C1391 C733 1.771 . S
C1405 C812 1.773 . S
C1411 C460 1.769 . S
C1425 C20 1.147 . S
C1431 C665 1.135 . S
C1445 C753 1.146 . S
C1451 C117 1.132 . S
C1465 C849 1.147 . S
C1471 C196 1.132 . S
C1485 C284 1.145 . S
C1491 C937 1.141 . S
C1505 C372 1.147 . S
C1511 C1017 1.134 . S
C1525 C497 1.149 . S
C1531 C577 1.131 . S
