# Generated by pormake.
# Topology sml, (6)-cn, num edge types: 1
# Building blocks:
#     Node 0, Type 0, BuildingBlock: BETFEN_clean_sbu_0, # of connection points: 6
#     Node 1, Type 0, BuildingBlock: BETFEN_clean_sbu_0, # of connection points: 6
#     Node 2, Type 0, BuildingBlock: BETFEN_clean_sbu_0, # of connection points: 6
#     Node 3, Type 0, BuildingBlock: BETFEN_clean_sbu_0, # of connection points: 6
#     Node 4, Type 0, BuildingBlock: BETFEN_clean_sbu_0, # of connection points: 6
#     Node 5, Type 0, BuildingBlock: BETFEN_clean_sbu_0, # of connection points: 6
#     Edge 6, Type (0, 0), BuildingBlock: XIVTED_clean_linker_0, # of connection points: 2
#     Edge 7, Type (0, 0), BuildingBlock: XIVTED_clean_linker_0, # of connection points: 2
#     Edge 8, Type (0, 0), BuildingBlock: XIVTED_clean_linker_0, # of connection points: 2
#     Edge 9, Type (0, 0), BuildingBlock: XIVTED_clean_linker_0, # of connection points: 2
#     Edge 10, Type (0, 0), BuildingBlock: XIVTED_clean_linker_0, # of connection points: 2
#     Edge 11, Type (0, 0), BuildingBlock: XIVTED_clean_linker_0, # of connection points: 2
#     Edge 12, Type (0, 0), BuildingBlock: XIVTED_clean_linker_0, # of connection points: 2
#     Edge 13, Type (0, 0), BuildingBlock: XIVTED_clean_linker_0, # of connection points: 2
#     Edge 14, Type (0, 0), BuildingBlock: XIVTED_clean_linker_0, # of connection points: 2
#     Edge 15, Type (0, 0), BuildingBlock: XIVTED_clean_linker_0, # of connection points: 2
#     Edge 16, Type (0, 0), BuildingBlock: XIVTED_clean_linker_0, # of connection points: 2
#     Edge 17, Type (0, 0), BuildingBlock: XIVTED_clean_linker_0, # of connection points: 2
#     Edge 18, Type (0, 0), BuildingBlock: XIVTED_clean_linker_0, # of connection points: 2
#     Edge 19, Type (0, 0), BuildingBlock: XIVTED_clean_linker_0, # of connection points: 2
#     Edge 20, Type (0, 0), BuildingBlock: XIVTED_clean_linker_0, # of connection points: 2
#     Edge 21, Type (0, 0), BuildingBlock: XIVTED_clean_linker_0, # of connection points: 2
#     Edge 22, Type (0, 0), BuildingBlock: XIVTED_clean_linker_0, # of connection points: 2
#     Edge 23, Type (0, 0), BuildingBlock: XIVTED_clean_linker_0, # of connection points: 2
# Relax obj value: 0.191
# Max RMSD: 0.222
# Mean RMSD: 0.222
data_MOF--net-sml--node1-BETFEN_clean_sbu_0--edge1-XIVTED_clean_linker_0
_symmetry_space_group_name_H-M    P1
_symmetry_Int_Tables_number       1
_symmetry_cell_setting            triclinic
loop_
_symmetry_equiv_pos_as_xyz
'x, y, z'
_cell_length_a     32.569952
_cell_length_b     32.583894
_cell_length_c     25.450502
_cell_angle_alpha  89.926046
_cell_angle_beta   90.010713
_cell_angle_gamma 120.09485
loop_
_atom_site_label
_atom_site_type_symbol
_atom_site_fract_x
_atom_site_fract_y
_atom_site_fract_z
_atom_type_partial_charge
Pr0 Pr 0.2526 0.42035 0.21763 0.0
Pr1 Pr 0.18301 0.38527 0.12074 0.0
C2 C 0.29399 0.44964 0.31247 0.0
C3 C 0.28052 0.44283 0.36833 0.0
C4 C 0.31566 0.45521 0.40666 0.0
C5 C 0.30355 0.44797 0.45992 0.0
C6 C 0.25594 0.42808 0.47593 0.0
C7 C 0.22078 0.41592 0.4372 0.0
C8 C 0.23297 0.42317 0.38385 0.0
C9 C 0.2655 0.36278 0.14739 0.0
C10 C 0.14047 0.32922 0.22932 0.0
C11 C 0.14048 0.35719 0.02619 0.0
C12 C 0.15363 0.3641 0.97021 0.0
C13 C 0.11847 0.35297 0.93224 0.0
C14 C 0.13021 0.35973 0.87886 0.0
C15 C 0.17747 0.37787 0.86237 0.0
C16 C 0.21266 0.38881 0.90076 0.0
C17 C 0.20085 0.38204 0.95423 0.0
C18 C 0.17315 0.4454 0.19082 0.0
C19 C 0.29454 0.47561 0.10688 0.0
O20 O 0.27938 0.47346 0.28416 0.0
O21 O 0.29074 0.41281 0.28805 0.0
O22 O 0.22578 0.35666 0.16198 0.0
O23 O 0.3002 0.39732 0.17288 0.0
O24 O 0.13672 0.32434 0.17789 0.0
O25 O 0.17778 0.36495 0.25219 0.0
O26 O 0.15465 0.33268 0.0538 0.0
O27 O 0.14458 0.39409 0.05126 0.0
O28 O 0.21184 0.45027 0.17457 0.0
O29 O 0.13694 0.4093 0.16901 0.0
O30 O 0.30067 0.47989 0.15833 0.0
O31 O 0.25633 0.44055 0.08479 0.0
H32 H 0.35254 0.47045 0.39536 0.0
H33 H 0.33161 0.45841 0.48861 0.0
H34 H 0.18374 0.40006 0.44803 0.0
H35 H 0.20531 0.41319 0.35471 0.0
H36 H 0.08182 0.33897 0.94389 0.0
H37 H 0.10208 0.35019 0.85047 0.0
H38 H 0.24947 0.40332 0.88959 0.0
H39 H 0.22855 0.39098 0.98307 0.0
Pr40 Pr 0.73936 0.18425 0.4526 0.0
Pr41 Pr 0.80691 0.22851 0.5491 0.0
C42 C 0.69763 0.16354 0.35711 0.0
C43 C 0.71061 0.1734 0.30129 0.0
C44 C 0.676 0.14907 0.26288 0.0
C45 C 0.68767 0.15708 0.20956 0.0
C46 C 0.73432 0.18963 0.19357 0.0
C47 C 0.76897 0.21413 0.23241 0.0
C48 C 0.75719 0.20611 0.28585 0.0
C49 C 0.73173 0.11823 0.5263 0.0
C50 C 0.85316 0.21176 0.44539 0.0
C51 C 0.85047 0.25418 0.64344 0.0
C52 C 0.83824 0.24556 0.69955 0.0
C53 C 0.87343 0.27023 0.73731 0.0
C54 C 0.86236 0.2633 0.79086 0.0
C55 C 0.81576 0.23153 0.80769 0.0
C56 C 0.78055 0.2067 0.76949 0.0
C57 C 0.79173 0.21364 0.71587 0.0
C58 C 0.81305 0.2927 0.47245 0.0
C59 C 0.69195 0.19346 0.56117 0.0
O60 O 0.70283 0.19915 0.38572 0.0
O61 O 0.71087 0.13665 0.38128 0.0
O62 O 0.77047 0.15407 0.51283 0.0
O63 O 0.69622 0.1135 0.49841 0.0
O64 O 0.85608 0.21378 0.49702 0.0
O65 O 0.81582 0.20779 0.4201 0.0
O66 O 0.84662 0.21837 0.61625 0.0
O67 O 0.8351 0.27882 0.6182 0.0
O68 O 0.77527 0.25788 0.48931 0.0
O69 O 0.84984 0.29712 0.4974 0.0
O70 O 0.68671 0.19094 0.50957 0.0
O71 O 0.73132 0.20053 0.58405 0.0
H72 H 0.63993 0.12353 0.27415 0.0
H73 H 0.66027 0.13708 0.18085 0.0
H74 H 0.80508 0.2398 0.22153 0.0
H75 H 0.78438 0.22529 0.31508 0.0
H76 H 0.90948 0.29517 0.72536 0.0
H77 H 0.8902 0.28352 0.81904 0.0
H78 H 0.74445 0.18158 0.781 0.0
H79 H 0.76409 0.19419 0.68718 0.0
Pr80 Pr 0.55524 0.80918 0.86153 0.0
Pr81 Pr 0.57404 0.76217 0.76138 0.0
C82 C 0.52245 0.82524 0.95203 0.0
C83 C 0.53287 0.82556 0.00844 0.0
C84 C 0.51195 0.84142 0.04523 0.0
C85 C 0.51913 0.83883 0.09913 0.0
C86 C 0.54734 0.82018 0.11728 0.0
C87 C 0.56887 0.80504 0.07997 0.0
C88 C 0.56171 0.80772 0.02613 0.0
C89 C 0.62711 0.87114 0.79404 0.0
C90 C 0.64128 0.78419 0.86397 0.0
C91 C 0.59104 0.7396 0.66512 0.0
C92 C 0.58656 0.75018 0.60982 0.0
C93 C 0.60588 0.73528 0.5701 0.0
C94 C 0.60206 0.74507 0.51735 0.0
C95 C 0.57874 0.77 0.50324 0.0
C96 C 0.55948 0.78499 0.54339 0.0
C97 C 0.56346 0.77527 0.59621 0.0
C98 C 0.52283 0.70104 0.84325 0.0
C99 C 0.49051 0.79362 0.75498 0.0
O100 O 0.50352 0.78375 0.92921 0.0
O101 O 0.55492 0.85943 0.92318 0.0
O102 O 0.58804 0.8362 0.78077 0.0
O103 O 0.62927 0.87773 0.84467 0.0
O104 O 0.64171 0.78554 0.81209 0.0
O105 O 0.60703 0.78431 0.89179 0.0
O106 O 0.6234 0.77481 0.69295 0.0
O107 O 0.55137 0.71349 0.69085 0.0
O108 O 0.51859 0.73485 0.82614 0.0
O109 O 0.55345 0.69556 0.81584 0.0
O110 O 0.50008 0.81081 0.80338 0.0
O111 O 0.5132 0.77439 0.73193 0.0
H112 H 0.48954 0.85526 0.03231 0.0
H113 H 0.50256 0.85147 0.12657 0.0
H114 H 0.59028 0.78992 0.09233 0.0
H115 H 0.57795 0.79501 0.99829 0.0
H116 H 0.62383 0.71587 0.57989 0.0
H117 H 0.61675 0.73243 0.48755 0.0
H118 H 0.54181 0.80475 0.53406 0.0
H119 H 0.54858 0.78737 0.62641 0.0
Pr120 Pr 0.81868 0.554 0.07767 0.0
Pr121 Pr 0.79434 0.59445 0.17692 0.0
C122 C 0.82376 0.51896 0.98345 0.0
C123 C 0.82139 0.52888 0.92759 0.0
C124 C 0.84207 0.51339 0.89011 0.0
C125 C 0.8405 0.52286 0.8368 0.0
C126 C 0.81818 0.54805 0.82008 0.0
C127 C 0.79756 0.56362 0.85798 0.0
C128 C 0.79921 0.55416 0.9113 0.0
C129 C 0.89638 0.61775 0.13673 0.0
C130 C 0.7991 0.64571 0.06653 0.0
C131 C 0.78684 0.62777 0.27122 0.0
C132 C 0.79488 0.62281 0.327 0.0
C133 C 0.77517 0.63887 0.36496 0.0
C134 C 0.78008 0.63227 0.41831 0.0
C135 C 0.80472 0.60929 0.43467 0.0
C136 C 0.82529 0.59402 0.39633 0.0
C137 C 0.82032 0.60066 0.34285 0.0
C138 C 0.71689 0.52847 0.11811 0.0
C139 C 0.81735 0.50659 0.19018 0.0
O140 O 0.78443 0.50277 0.01035 0.0
O141 O 0.86111 0.55048 0.00906 0.0
O142 O 0.86084 0.62202 0.12615 0.0
O143 O 0.89372 0.58095 0.1136 0.0
O144 O 0.80406 0.65237 0.11771 0.0
O145 O 0.79838 0.60889 0.04356 0.0
O146 O 0.82446 0.64961 0.24134 0.0
O147 O 0.75188 0.59048 0.24895 0.0
O148 O 0.75291 0.52547 0.12962 0.0
O149 O 0.719 0.56591 0.1388 0.0
O150 O 0.808 0.49645 0.13978 0.0
O151 O 0.82125 0.54543 0.21109 0.0
H152 H 0.85935 0.49384 0.90208 0.0
H153 H 0.85618 0.50986 0.80861 0.0
H154 H 0.78063 0.58361 0.84651 0.0
H155 H 0.78325 0.5666 0.9398 0.0
H156 H 0.7555 0.65612 0.35331 0.0
H157 H 0.76454 0.64519 0.44677 0.0
H158 H 0.84413 0.57585 0.40755 0.0
H159 H 0.83568 0.58791 0.31392 0.0
Pr160 Pr 0.14712 0.72506 0.54137 0.0
Pr161 Pr 0.18343 0.79301 0.44287 0.0
C162 C 0.13361 0.68271 0.63585 0.0
C163 C 0.14048 0.69511 0.69185 0.0
C164 C 0.11962 0.65901 0.7295 0.0
C165 C 0.12467 0.67005 0.783 0.0
C166 C 0.1507 0.71751 0.79982 0.0
C167 C 0.17194 0.75366 0.76175 0.0
C168 C 0.16681 0.74253 0.70816 0.0
C169 C 0.07703 0.71306 0.47105 0.0
C170 C 0.17353 0.83901 0.55074 0.0
C171 C 0.19886 0.83547 0.34821 0.0
C172 C 0.19346 0.82231 0.29243 0.0
C173 C 0.21594 0.85778 0.25437 0.0
C174 C 0.21162 0.846 0.2011 0.0
C175 C 0.18473 0.7984 0.18492 0.0
C176 C 0.16204 0.76288 0.2234 0.0
C177 C 0.16642 0.77475 0.27675 0.0
C178 C 0.25247 0.79941 0.51248 0.0
C179 C 0.16001 0.68093 0.4313 0.0
O180 O 0.17203 0.69666 0.6077 0.0
O181 O 0.10091 0.68776 0.61176 0.0
O182 O 0.11165 0.75266 0.48452 0.0
O183 O 0.07579 0.67841 0.49771 0.0
O184 O 0.1718 0.84155 0.49923 0.0
O185 O 0.17035 0.80142 0.57484 0.0
O186 O 0.15963 0.82078 0.37498 0.0
O187 O 0.23154 0.83174 0.37408 0.0
O188 O 0.21692 0.76192 0.49673 0.0
O189 O 0.25505 0.83668 0.49042 0.0
O190 O 0.15793 0.67586 0.48299 0.0
O191 O 0.16365 0.71889 0.40799 0.0
H192 H 0.09926 0.62221 0.7175 0.0
H193 H 0.10849 0.64133 0.81121 0.0
H194 H 0.19178 0.79058 0.77331 0.0
H195 H 0.18305 0.77087 0.67949 0.0
H196 H 0.23683 0.89468 0.26586 0.0
H197 H 0.22892 0.87429 0.17255 0.0
H198 H 0.14149 0.72586 0.21238 0.0
H199 H 0.14887 0.74686 0.30572 0.0
Pr200 Pr 0.41983 0.25257 0.76007 0.0
Pr201 Pr 0.37683 0.18977 0.86012 0.0
C202 C 0.45941 0.29021 0.66639 0.0
C203 C 0.44956 0.27886 0.61042 0.0
C204 C 0.47097 0.31517 0.57307 0.0
C205 C 0.4616 0.3051 0.51963 0.0
C206 C 0.43056 0.25844 0.50266 0.0
C207 C 0.40918 0.22208 0.54042 0.0
C208 C 0.4186 0.23223 0.59388 0.0
C209 C 0.35658 0.26955 0.81573 0.0
C210 C 0.3267 0.1413 0.75014 0.0
C211 C 0.34187 0.15028 0.95466 0.0
C212 C 0.34944 0.16383 0.01023 0.0
C213 C 0.32895 0.12857 0.04883 0.0
C214 C 0.3371 0.14057 0.10197 0.0
C215 C 0.36604 0.18812 0.11738 0.0
C216 C 0.38623 0.22347 0.07838 0.0
C217 C 0.37796 0.2114 0.02518 0.0
C218 C 0.44394 0.17825 0.80408 0.0
C219 C 0.46883 0.29904 0.87216 0.0
O220 O 0.47021 0.26291 0.69379 0.0
O221 O 0.43099 0.30111 0.69116 0.0
O222 O 0.35123 0.229 0.80691 0.0
O223 O 0.39401 0.30269 0.79216 0.0
O224 O 0.31938 0.14067 0.8011 0.0
O225 O 0.36382 0.17709 0.72683 0.0
O226 O 0.32324 0.1699 0.92564 0.0
O227 O 0.37632 0.14787 0.93125 0.0
O228 O 0.44664 0.21685 0.81593 0.0
O229 O 0.40499 0.14233 0.82164 0.0
O230 O 0.47798 0.29825 0.82172 0.0
O231 O 0.42912 0.26574 0.89388 0.0
H232 H 0.49479 0.3514 0.58529 0.0
H233 H 0.47811 0.33401 0.49168 0.0
H234 H 0.38556 0.1857 0.52865 0.0
H235 H 0.40182 0.20373 0.62227 0.0
H236 H 0.30703 0.09166 0.03783 0.0
H237 H 0.32157 0.11245 0.13096 0.0
H238 H 0.40823 0.26045 0.08897 0.0
H239 H 0.39401 0.23909 0.99576 0.0
H240 H 0.27739 0.20755 0.87179 0.0
H241 H 0.20053 0.28626 0.09003 0.0
H242 H 0.38447 0.35536 0.85929 0.0
H243 H 0.34756 0.39681 0.09299 0.0
H244 H 0.21434 0.25973 1.0048 0.0
H245 H 0.24833 0.22543 0.95272 0.0
C246 C 0.29422 0.2438 0.88571 0.0
C247 C 0.33364 0.27995 0.85937 0.0
C248 C 0.24363 0.2893 0.02458 0.0
C249 C 0.30055 0.30075 0.95079 0.0
C250 C 0.23571 0.30458 0.0729 0.0
C251 C 0.27303 0.34356 0.09845 0.0
C252 C 0.28913 0.31357 1.00202 0.0
C253 C 0.31792 0.3663 0.07484 0.0
C254 C 0.27744 0.25405 0.93156 0.0
C255 C 0.35408 0.32639 0.8785 0.0
N256 N 0.32459 0.35118 0.02779 0.0
N257 N 0.33773 0.3353 0.92346 0.0
H258 H 0.05135 0.26347 0.19615 0.0
H259 H 0.93998 0.23151 0.48267 0.0
H260 H 0.13432 0.32429 0.3367 0.0
H261 H 0.85994 0.20452 0.33886 0.0
H262 H 0.00981 0.24822 0.43112 0.0
H263 H 0.97986 0.22372 0.25001 0.0
C264 C 0.05474 0.26781 0.2384 0.0
C265 C 0.09883 0.29796 0.2619 0.0
C266 C 0.97682 0.23818 0.41094 0.0
C267 C 0.01709 0.25275 0.32352 0.0
C268 C 0.93689 0.2286 0.44029 0.0
C269 C 0.89418 0.21727 0.41498 0.0
C270 C 0.974 0.23623 0.35593 0.0
C271 C 0.89227 0.2137 0.35999 0.0
C272 C 0.01383 0.24525 0.26906 0.0
C273 C 0.10099 0.30195 0.31684 0.0
N274 N 0.93178 0.22353 0.33225 0.0
N275 N 0.06056 0.28002 0.34578 0.0
H276 H 0.67106 0.02432 0.51792 0.0
H277 H 0.69619 0.96424 0.81024 0.0
H278 H 0.7823 0.1283 0.61621 0.0
H279 H 0.62723 0.85869 0.68937 0.0
H280 H 0.73343 0.02524 0.7415 0.0
H281 H 0.65796 0.96296 0.58117 0.0
C282 C 0.69304 0.03405 0.55281 0.0
C283 C 0.72765 0.08121 0.56223 0.0
C284 C 0.71108 0.98849 0.73021 0.0
C285 C 0.71245 0.01143 0.63542 0.0
C286 C 0.68994 0.95379 0.76932 0.0
C287 C 0.65811 0.90665 0.75526 0.0
C288 C 0.69978 0.97555 0.67723 0.0
C289 C 0.65115 0.89474 0.70187 0.0
C290 C 0.68579 -0.00097 0.58883 0.0
C291 C 0.75542 0.09213 0.60776 0.0
N292 N 0.6712 0.92904 0.66486 0.0
N293 N 0.74665 0.05749 0.64343 0.0
H294 H 0.70296 0.75943 0.82127 0.0
H295 H 0.78546 0.7173 0.10156 0.0
H296 H 0.66063 0.79176 0.96922 0.0
H297 H 0.79048 0.64764 0.95937 0.0
H298 H 0.75812 0.76226 0.05039 0.0
H299 H 0.75315 0.73601 0.86892 0.0
C300 C 0.7048 0.76238 0.8637 0.0
C301 C 0.67703 0.77693 0.89141 0.0
C302 C 0.76574 0.73752 0.03035 0.0
C303 C 0.73431 0.75021 0.9459 0.0
C304 C 0.78149 0.71187 0.05947 0.0
C305 C 0.7895 0.67797 0.03484 0.0
C306 C 0.75815 0.72942 0.97619 0.0
C307 C 0.78407 0.67286 0.98012 0.0
C308 C 0.73332 0.74883 0.8908 0.0
C309 C 0.68094 0.78015 0.94633 0.0
N310 N 0.76826 0.698 0.95265 0.0
N311 N 0.70875 0.7665 0.97182 0.0
H312 H 0.06734 0.77773 0.41054 0.0
H313 H 0.91088 0.69649 0.19152 0.0
H314 H 0.02527 0.62955 0.42079 0.0
H315 H 0.95282 0.59026 0.18475 0.0
H316 H 0.95585 0.72636 0.27382 0.0
H317 H 0.02619 0.76213 0.3254 0.0
C318 C 0.04912 0.74198 0.39504 0.0
C319 C 0.04963 0.70487 0.42245 0.0
C320 C 0.95594 0.69721 0.2536 0.0
C321 C 0.00279 0.68682 0.3263 0.0
C322 C 0.9301 0.67999 0.207 0.0
C323 C 0.92798 0.64074 0.18173 0.0
C324 C 0.97932 0.67458 0.27468 0.0
C325 C 0.95354 0.62062 0.20296 0.0
C326 C 0.02547 0.73307 0.34683 0.0
C327 C 0.02556 0.65915 0.40106 0.0
N328 N 0.97756 0.63735 0.2486 0.0
N329 N 0.00356 0.65155 0.35402 0.0
H330 H 0.32114 0.13019 0.64297 0.0
H331 H 0.17747 0.8496 0.6581 0.0
H332 H 0.2608 0.05408 0.78761 0.0
H333 H 0.19705 0.92682 0.51341 0.0
H334 H 0.20718 0.92389 0.70675 0.0
H335 H 0.27552 0.056 0.5945 0.0
C336 C 0.29795 0.09805 0.66449 0.0
C337 C 0.29508 0.09836 0.71946 0.0
C338 C 0.20433 0.92437 0.66439 0.0
C339 C 0.24326 0.0133 0.66437 0.0
C340 C 0.18741 0.88197 0.6366 0.0
C341 C 0.1851 0.88195 0.58154 0.0
C342 C 0.21967 0.96706 0.63686 0.0
C343 C 0.19838 0.92504 0.5558 0.0
C344 C 0.27183 0.05571 0.63681 0.0
C345 C 0.26423 0.0556 0.74526 0.0
N346 N 0.21567 0.96591 0.58361 0.0
N347 N 0.24002 0.01469 0.71756 0.0
H348 H 0.24084 0.36116 0.80839 0.0
H349 H 0.19073 0.44232 0.52933 0.0
H350 H 0.14224 0.41165 0.7861 0.0
H351 H 0.29213 0.39549 0.55234 0.0
H352 H 0.17133 0.42979 0.62292 0.0
H353 H 0.25987 0.37319 0.71472 0.0
C354 C 0.22338 0.37505 0.78394 0.0
C355 C 0.18981 0.38534 0.80538 0.0
C356 C 0.19784 0.42226 0.60751 0.0
C357 C 0.21109 0.3987 0.69765 0.0
C358 C 0.20873 0.42913 0.55394 0.0
C359 C 0.24323 0.42006 0.53276 0.0
C360 C 0.22149 0.40606 0.64035 0.0
C361 C 0.26582 0.40364 0.56692 0.0
C362 C 0.23406 0.38163 0.73031 0.0
C363 C 0.16782 0.40254 0.77136 0.0
N364 N 0.25456 0.39718 0.61888 0.0
N365 N 0.17884 0.40867 0.71933 0.0
H366 H 0.68202 0.19588 0.11247 0.0
H367 H 0.86858 0.22614 0.88885 0.0
H368 H 0.81458 0.20085 0.14452 0.0
H369 H 0.73624 0.22175 0.85711 0.0
H370 H 0.84966 0.21732 0.98253 0.0
H371 H 0.70139 0.20549 0.01893 0.0
C372 C 0.71516 0.19883 0.09988 0.0
C373 C 0.74661 0.19735 0.13661 0.0
C374 C 0.82473 0.21826 0.9551 0.0
C375 C 0.76924 0.20879 0.02918 0.0
C376 C 0.83561 0.22353 0.90153 0.0
C377 C 0.80403 0.22483 0.86483 0.0
C378 C 0.78192 0.21427 0.9724 0.0
C379 C 0.76145 0.2204 0.88374 0.0
C380 C 0.72629 0.20454 0.04639 0.0
C381 C 0.78943 0.20226 0.11784 0.0
N382 N 0.75172 0.21542 0.93611 0.0
N383 N 0.79939 0.20761 0.06551 0.0
H384 H 0.50179 0.76532 0.45285 0.0
H385 H 0.62748 0.83494 0.16999 0.0
H386 H 0.64547 0.79708 0.4248 0.0
H387 H 0.48096 0.79439 0.19608 0.0
H388 H 0.63565 0.82432 0.26371 0.0
H389 H 0.49473 0.77976 0.35985 0.0
C390 C 0.53201 0.77568 0.42728 0.0
C391 C 0.57427 0.77984 0.44687 0.0
C392 C 0.60172 0.81784 0.24897 0.0
C393 C 0.56625 0.79604 0.33989 0.0
C394 C 0.59693 0.82367 0.1953 0.0
C395 C 0.55339 0.81547 0.17477 0.0
C396 C 0.56273 0.80368 0.2827 0.0
C397 C 0.51539 0.80174 0.20997 0.0
C398 C 0.52784 0.78364 0.37404 0.0
C399 C 0.61197 0.79275 0.41148 0.0
N400 N 0.52092 0.7962 0.26203 0.0
N401 N 0.60706 0.80035 0.35986 0.0
H402 H 0.74339 0.54291 0.765 0.0
H403 H 0.8811 0.61689 0.48937 0.0
H404 H 0.88819 0.57496 0.7457 0.0
H405 H 0.73523 0.5811 0.50947 0.0
H406 H 0.88483 0.60208 0.58306 0.0
H407 H 0.74047 0.55825 0.67156 0.0
C408 C 0.7747 0.55348 0.74119 0.0
C409 C 0.81611 0.55766 0.76331 0.0
C410 C 0.85203 0.59752 0.56694 0.0
C411 C 0.81286 0.57481 0.65594 0.0
C412 C 0.8498 0.60572 0.51339 0.0
C413 C 0.80783 0.6004 0.49146 0.0
C414 C 0.81198 0.5838 0.59885 0.0
C415 C 0.76857 0.58642 0.52471 0.0
C416 C 0.77292 0.56195 0.68771 0.0
C417 C 0.85532 0.57072 0.73025 0.0
N418 N 0.77162 0.57862 0.57662 0.0
N419 N 0.85274 0.57886 0.67827 0.0
H420 H 0.08237 0.67743 0.87628 0.0
H421 H 0.25387 0.83637 0.10903 0.0
H422 H 0.22931 0.78403 0.85342 0.0
H423 H 0.10596 0.73231 0.13115 0.0
H424 H 0.24577 0.81711 0.01557 0.0
H425 H 0.09071 0.69609 0.96992 0.0
C426 C 0.1165 0.7046 0.89097 0.0
C427 C 0.15524 0.7291 0.85682 0.0
C428 C 0.21508 0.79845 0.04084 0.0
C429 C 0.16491 0.75101 0.9642 0.0
C430 C 0.2196 0.80961 0.09423 0.0
C431 C 0.18049 0.78608 0.12812 0.0
C432 C 0.1711 0.76344 0.02093 0.0
C433 C 0.13722 0.75104 0.10672 0.0
C434 C 0.12115 0.71542 0.94446 0.0
C435 C 0.19833 0.76456 0.87809 0.0
N436 N 0.13369 0.74089 0.05454 0.0
N437 N 0.20201 0.77437 0.93037 0.0
H438 H 0.34512 0.19856 0.4559 0.0
H439 H 0.45055 0.25142 0.16351 0.0
H440 H 0.49269 0.29433 0.41981 0.0
H441 H 0.3038 0.15275 0.2001 0.0
H442 H 0.46626 0.26935 0.25702 0.0
H443 H 0.32912 0.18203 0.36225 0.0
C444 C 0.37423 0.21591 0.42832 0.0
C445 C 0.42034 0.24788 0.44582 0.0
C446 C 0.4306 0.24383 0.2446 0.0
C447 C 0.40214 0.22954 0.33835 0.0
C448 C 0.42154 0.23381 0.19116 0.0
C449 C 0.37579 0.20048 0.1739 0.0
C450 C 0.39365 0.22042 0.28116 0.0
C451 C 0.33974 0.17822 0.21166 0.0
C452 C 0.36501 0.20668 0.37479 0.0
C453 C 0.45649 0.26991 0.40812 0.0
N454 N 0.34945 0.18858 0.26345 0.0
N455 N 0.44663 0.2603 0.35622 0.0
H456 H 0.09829 0.4283 0.25429 0.0
H457 H 0.20292 0.69497 0.33649 0.0
H458 H 0.24108 0.53564 0.21379 0.0
H459 H 0.11955 0.58485 0.44885 0.0
H460 H 0.20582 0.63596 0.28006 0.0
H461 H 0.09445 0.48426 0.3165 0.0
C462 C 0.12867 0.46363 0.25846 0.0
C463 C 0.16995 0.4777 0.22882 0.0
C464 C 0.18694 0.62476 0.3171 0.0
C465 C 0.16551 0.54135 0.2986 0.0
C466 C 0.18502 0.65827 0.3492 0.0
C467 C 0.16105 0.6447 0.39749 0.0
C468 C 0.16378 0.57708 0.33266 0.0
C469 C 0.13866 0.59669 0.41205 0.0
C470 C 0.12655 0.49524 0.29402 0.0
C471 C 0.20858 0.52356 0.23587 0.0
N472 N 0.14013 0.56431 0.37941 0.0
N473 N 0.20521 0.554 0.26954 0.0
H474 H 0.70189 0.22865 0.65947 0.0
H475 H 0.42986 0.10747 0.73495 0.0
H476 H 0.59534 0.14826 0.54262 0.0
H477 H 0.53608 0.24442 0.79306 0.0
H478 H 0.48901 0.10905 0.67288 0.0
H479 H 0.64003 0.22139 0.71864 0.0
C480 C 0.66537 0.20931 0.64623 0.0
C481 C 0.65372 0.18918 0.5959 0.0
C482 C 0.49908 0.13852 0.69945 0.0
C483 C 0.58263 0.18042 0.66399 0.0
C484 C 0.4657 0.13744 0.73502 0.0
C485 C 0.47851 0.17574 0.76917 0.0
C486 C 0.54543 0.17762 0.6994 0.0
C487 C 0.52498 0.21416 0.76741 0.0
C488 C 0.63013 0.20534 0.68005 0.0
C489 C 0.60575 0.16465 0.58096 0.0
N490 N 0.55685 0.21395 0.73341 0.0
N491 N 0.57167 0.16064 0.61513 0.0
H492 H 0.2781 0.50665 0.01533 0.0
H493 H 0.53797 0.64051 0.90499 0.0
H494 H 0.39181 0.52461 0.11729 0.0
H495 H 0.43959 0.69039 0.87751 0.0
H496 H 0.48459 0.58733 0.9743 0.0
H497 H 0.33648 0.56328 0.95379 0.0
C498 C 0.31547 0.52267 0.02475 0.0
C499 C 0.33033 0.51135 0.07149 0.0
C500 C 0.47518 0.6103 0.95314 0.0
C501 C 0.39713 0.57532 1.00082 0.0
C502 C 0.50524 0.6402 0.91358 0.0
C503 C 0.49282 0.66946 0.88553 0.0
C504 C 0.43223 0.60915 0.96325 0.0
C505 C 0.45038 0.66828 0.89821 0.0
C506 C 0.34866 0.55499 0.98974 0.0
C507 C 0.37914 0.533 0.08182 0.0
N508 N 0.42131 0.63817 0.93567 0.0
N509 N 0.41112 0.56378 0.0463 0.0
H510 H 0.73966 0.2852 0.41347 0.0
H511 H 0.87874 0.52963 0.27161 0.0
H512 H 0.89148 0.36967 0.43148 0.0
H513 H 0.76687 0.40957 0.19014 0.0
H514 H 0.88069 0.47561 0.33736 0.0
H515 H 0.74433 0.3341 0.33801 0.0
C516 C 0.77401 0.31362 0.40109 0.0
C517 C 0.81532 0.32289 0.42805 0.0
C518 C 0.85621 0.46111 0.30468 0.0
C519 C 0.82065 0.37994 0.34343 0.0
C520 C 0.85499 0.49178 0.26732 0.0
C521 C 0.82263 0.47379 0.22554 0.0
C522 C 0.82383 0.41236 0.30104 0.0
C523 C 0.79253 0.42461 0.22166 0.0
C524 C 0.77661 0.34152 0.35821 0.0
C525 C 0.85881 0.36125 0.41157 0.0
N526 N 0.79322 0.3955 0.25962 0.0
N527 N 0.86032 0.38882 0.3706 0.0
H528 H 0.25927 0.724 0.54456 0.0
H529 H 0.45842 0.85735 0.76219 0.0
H530 H 0.3213 0.87465 0.56876 0.0
H531 H 0.43796 0.73399 0.67704 0.0
H532 H 0.39868 0.86038 0.70515 0.0
H533 H 0.31478 0.72296 0.60787 0.0
C534 C 0.28462 0.75692 0.56336 0.0
C535 C 0.28612 0.79958 0.55117 0.0
C536 C 0.40743 0.83272 0.69933 0.0
C537 C 0.34959 0.79855 0.62396 0.0
C538 C 0.44111 0.83077 0.73193 0.0
C539 C 0.45314 0.79545 0.72413 0.0
C540 C 0.38521 0.79846 0.65982 0.0
C541 C 0.43001 0.76203 0.68421 0.0
C542 C 0.31632 0.7563 0.5994 0.0
C543 C 0.31952 0.84116 0.57683 0.0
N544 N 0.39709 0.76425 0.65378 0.0
N545 N 0.35011 0.83967 0.61229 0.0
H546 H 0.63545 0.52819 0.09076 0.0
H547 H 0.56485 0.34261 0.8615 0.0
H548 H 0.71033 0.45171 0.06747 0.0
H549 H 0.45527 0.33836 0.96056 0.0
H550 H 0.6249 0.39919 0.92252 0.0
H551 H 0.5735 0.47319 0.02993 0.0
C552 C 0.63896 0.50002 0.07269 0.0
C553 C 0.67843 0.49489 0.08335 0.0
C554 C 0.58767 0.38599 0.93053 0.0
C555 C 0.60879 0.43319 0.01339 0.0
C556 C 0.55351 0.35411 0.8957 0.0
C557 C 0.50518 0.33588 0.90621 0.0
C558 C 0.57335 0.40062 0.97528 0.0
C559 C 0.49227 0.35153 0.95132 0.0
C560 C 0.60371 0.46881 0.03818 0.0
C561 C 0.68111 0.45762 0.05926 0.0
N562 N 0.52626 0.3834 0.98416 0.0
N563 N 0.64708 0.42853 0.0248 0.0
loop_
_geom_bond_atom_site_label_1
_geom_bond_atom_site_label_2
_geom_bond_distance
_geom_bond_site_symmetry_2
_ccdc_geom_bond_type
Pr0 C2 2.880 . S
Pr0 O20 2.562 . S
Pr0 O21 2.490 . S
Pr0 O22 2.695 . S
Pr0 O23 2.512 . S
Pr0 O25 2.437 . S
Pr0 O28 2.436 . S
Pr0 O30 2.438 . S
Pr1 C11 2.880 1_554 S
Pr1 O22 2.436 . S
Pr1 O24 2.438 . S
Pr1 O26 2.562 1_554 S
Pr1 O27 2.490 1_554 S
Pr1 O28 2.695 . S
Pr1 O29 2.512 . S
Pr1 O31 2.437 1_554 S
C2 Pr0 2.880 . S
C2 C3 1.491 . S
C2 O20 1.254 . S
C2 O21 1.225 . S
C3 C2 1.491 . S
C3 C4 1.392 . S
C3 C8 1.356 . S
C4 C3 1.392 . S
C4 C5 1.368 . S
C4 H32 0.929 . S
C5 C4 1.368 . S
C5 C6 1.386 . S
C5 H33 0.929 . S
C6 C5 1.386 . S
C6 C7 1.373 . S
C7 C6 1.373 . S
C7 C8 1.409 . S
C7 H34 0.931 . S
C8 C3 1.356 . S
C8 C7 1.409 . S
C8 H35 0.930 . S
C9 O22 1.270 . S
C9 O23 1.248 . S
C10 O24 1.267 . S
C10 O25 1.278 . S
C11 Pr1 2.880 1_556 S
C11 C12 1.491 . S
C11 O26 1.254 . S
C11 O27 1.225 . S
C12 C11 1.491 . S
C12 C13 1.392 . S
C12 C17 1.356 . S
C13 C12 1.392 . S
C13 C14 1.368 . S
C13 H36 0.929 . S
C14 C13 1.368 . S
C14 C15 1.386 . S
C14 H37 0.929 . S
C15 C14 1.386 . S
C15 C16 1.373 . S
C16 C15 1.373 . S
C16 C17 1.409 . S
C16 H38 0.931 . S
C17 C12 1.356 . S
C17 C16 1.409 . S
C17 H39 0.930 . S
C18 O28 1.270 . S
C18 O29 1.248 . S
C19 O30 1.267 1_556 S
C19 O31 1.278 . S
O20 Pr0 2.562 . S
O20 C2 1.254 . S
O21 Pr0 2.490 . S
O21 C2 1.225 . S
O22 Pr0 2.695 . S
O22 Pr1 2.436 . S
O22 C9 1.270 . S
O23 Pr0 2.512 . S
O23 C9 1.248 . S
O24 Pr1 2.438 . S
O24 C10 1.267 . S
O25 Pr0 2.437 . S
O25 C10 1.278 . S
O26 Pr1 2.562 1_556 S
O26 C11 1.254 . S
O27 Pr1 2.490 1_556 S
O27 C11 1.225 . S
O28 Pr0 2.436 . S
O28 Pr1 2.695 . S
O28 C18 1.270 . S
O29 Pr1 2.512 . S
O29 C18 1.248 . S
O30 Pr0 2.438 . S
O30 C19 1.267 1_554 S
O31 Pr1 2.437 1_556 S
O31 C19 1.278 . S
H32 C4 0.929 . S
H33 C5 0.929 . S
H34 C7 0.931 . S
H35 C8 0.930 . S
H36 C13 0.929 . S
H37 C14 0.929 . S
H38 C16 0.931 . S
H39 C17 0.930 . S
Pr40 C42 2.880 . S
Pr40 O60 2.562 . S
Pr40 O61 2.490 . S
Pr40 O62 2.695 . S
Pr40 O63 2.512 . S
Pr40 O65 2.437 . S
Pr40 O68 2.436 . S
Pr40 O70 2.438 . S
Pr41 C51 2.880 . S
Pr41 O62 2.436 . S
Pr41 O64 2.438 . S
Pr41 O66 2.562 . S
Pr41 O67 2.490 . S
Pr41 O68 2.695 . S
Pr41 O69 2.512 . S
Pr41 O71 2.437 . S
C42 Pr40 2.880 . S
C42 C43 1.491 . S
C42 O60 1.254 . S
C42 O61 1.225 . S
C43 C42 1.491 . S
C43 C44 1.392 . S
C43 C48 1.356 . S
C44 C43 1.392 . S
C44 C45 1.368 . S
C44 H72 0.929 . S
C45 C44 1.368 . S
C45 C46 1.386 . S
C45 H73 0.929 . S
C46 C45 1.386 . S
C46 C47 1.373 . S
C47 C46 1.373 . S
C47 C48 1.409 . S
C47 H74 0.931 . S
C48 C43 1.356 . S
C48 C47 1.409 . S
C48 H75 0.930 . S
C49 O62 1.270 . S
C49 O63 1.248 . S
C50 O64 1.267 . S
C50 O65 1.278 . S
C51 Pr41 2.880 . S
C51 C52 1.491 . S
C51 O66 1.254 . S
C51 O67 1.225 . S
C52 C51 1.491 . S
C52 C53 1.392 . S
C52 C57 1.356 . S
C53 C52 1.392 . S
C53 C54 1.368 . S
C53 H76 0.929 . S
C54 C53 1.368 . S
C54 C55 1.386 . S
C54 H77 0.929 . S
C55 C54 1.386 . S
C55 C56 1.373 . S
C56 C55 1.373 . S
C56 C57 1.409 . S
C56 H78 0.931 . S
C57 C52 1.356 . S
C57 C56 1.409 . S
C57 H79 0.930 . S
C58 O68 1.270 . S
C58 O69 1.248 . S
C59 O70 1.267 . S
C59 O71 1.278 . S
O60 Pr40 2.562 . S
O60 C42 1.254 . S
O61 Pr40 2.490 . S
O61 C42 1.225 . S
O62 Pr40 2.695 . S
O62 Pr41 2.436 . S
O62 C49 1.270 . S
O63 Pr40 2.512 . S
O63 C49 1.248 . S
O64 Pr41 2.438 . S
O64 C50 1.267 . S
O65 Pr40 2.437 . S
O65 C50 1.278 . S
O66 Pr41 2.562 . S
O66 C51 1.254 . S
O67 Pr41 2.490 . S
O67 C51 1.225 . S
O68 Pr40 2.436 . S
O68 Pr41 2.695 . S
O68 C58 1.270 . S
O69 Pr41 2.512 . S
O69 C58 1.248 . S
O70 Pr40 2.438 . S
O70 C59 1.267 . S
O71 Pr41 2.437 . S
O71 C59 1.278 . S
H72 C44 0.929 . S
H73 C45 0.929 . S
H74 C47 0.931 . S
H75 C48 0.930 . S
H76 C53 0.929 . S
H77 C54 0.929 . S
H78 C56 0.931 . S
H79 C57 0.930 . S
Pr80 C82 2.880 . S
Pr80 O100 2.562 . S
Pr80 O101 2.490 . S
Pr80 O102 2.695 . S
Pr80 O103 2.512 . S
Pr80 O105 2.437 . S
Pr80 O108 2.436 . S
Pr80 O110 2.438 . S
Pr81 C91 2.880 . S
Pr81 O102 2.436 . S
Pr81 O104 2.438 . S
Pr81 O106 2.562 . S
Pr81 O107 2.490 . S
Pr81 O108 2.695 . S
Pr81 O109 2.512 . S
Pr81 O111 2.437 . S
C82 Pr80 2.880 . S
C82 C83 1.491 . S
C82 O100 1.254 . S
C82 O101 1.225 . S
C83 C82 1.491 . S
C83 C84 1.392 . S
C83 C88 1.356 . S
C84 C83 1.392 . S
C84 C85 1.368 1_556 S
C84 H112 0.929 . S
C85 C84 1.368 1_554 S
C85 C86 1.386 . S
C85 H113 0.929 . S
C86 C85 1.386 . S
C86 C87 1.373 . S
C87 C86 1.373 . S
C87 C88 1.409 1_554 S
C87 H114 0.931 . S
C88 C83 1.356 . S
C88 C87 1.409 1_556 S
C88 H115 0.930 . S
C89 O102 1.270 . S
C89 O103 1.248 . S
C90 O104 1.267 . S
C90 O105 1.278 . S
C91 Pr81 2.880 . S
C91 C92 1.491 . S
C91 O106 1.254 . S
C91 O107 1.225 . S
C92 C91 1.491 . S
C92 C93 1.392 . S
C92 C97 1.356 . S
C93 C92 1.392 . S
C93 C94 1.368 . S
C93 H116 0.929 . S
C94 C93 1.368 . S
C94 C95 1.386 . S
C94 H117 0.929 . S
C95 C94 1.386 . S
C95 C96 1.373 . S
C96 C95 1.373 . S
C96 C97 1.409 . S
C96 H118 0.931 . S
C97 C92 1.356 . S
C97 C96 1.409 . S
C97 H119 0.930 . S
C98 O108 1.270 . S
C98 O109 1.248 . S
C99 O110 1.267 . S
C99 O111 1.278 . S
O100 Pr80 2.562 . S
O100 C82 1.254 . S
O101 Pr80 2.490 . S
O101 C82 1.225 . S
O102 Pr80 2.695 . S
O102 Pr81 2.436 . S
O102 C89 1.270 . S
O103 Pr80 2.512 . S
O103 C89 1.248 . S
O104 Pr81 2.438 . S
O104 C90 1.267 . S
O105 Pr80 2.437 . S
O105 C90 1.278 . S
O106 Pr81 2.562 . S
O106 C91 1.254 . S
O107 Pr81 2.490 . S
O107 C91 1.225 . S
O108 Pr80 2.436 . S
O108 Pr81 2.695 . S
O108 C98 1.270 . S
O109 Pr81 2.512 . S
O109 C98 1.248 . S
O110 Pr80 2.438 . S
O110 C99 1.267 . S
O111 Pr81 2.437 . S
O111 C99 1.278 . S
H112 C84 0.929 . S
H113 C85 0.929 . S
H114 C87 0.931 . S
H115 C88 0.930 . S
H116 C93 0.929 . S
H117 C94 0.929 . S
H118 C96 0.931 . S
H119 C97 0.930 . S
Pr120 C122 2.880 . S
Pr120 O140 2.562 . S
Pr120 O141 2.490 . S
Pr120 O142 2.695 . S
Pr120 O143 2.512 . S
Pr120 O145 2.437 . S
Pr120 O148 2.436 . S
Pr120 O150 2.438 . S
Pr121 C131 2.880 . S
Pr121 O142 2.436 . S
Pr121 O144 2.438 . S
Pr121 O146 2.562 . S
Pr121 O147 2.490 . S
Pr121 O148 2.695 . S
Pr121 O149 2.512 . S
Pr121 O151 2.437 . S
C122 Pr120 2.880 . S
C122 C123 1.494 . S
C122 O140 1.254 . S
C122 O141 1.225 . S
C123 C122 1.494 . S
C123 C124 1.391 1_554 S
C123 C128 1.353 1_554 S
C124 C123 1.391 1_556 S
C124 C125 1.368 . S
C124 H152 0.940 . S
C125 C124 1.368 . S
C125 C126 1.386 . S
C125 H153 0.929 . S
C126 C125 1.386 . S
C126 C127 1.373 . S
C127 C126 1.373 . S
C127 C128 1.409 . S
C127 H154 0.931 . S
C128 C123 1.353 1_556 S
C128 C127 1.409 . S
C128 H155 0.930 . S
C129 O142 1.270 . S
C129 O143 1.248 . S
C130 O144 1.267 . S
C130 O145 1.278 . S
C131 Pr121 2.880 . S
C131 C132 1.491 . S
C131 O146 1.254 . S
C131 O147 1.225 . S
C132 C131 1.491 . S
C132 C133 1.392 . S
C132 C137 1.356 . S
C133 C132 1.392 . S
C133 C134 1.368 . S
C133 H156 0.929 . S
C134 C133 1.368 . S
C134 C135 1.386 . S
C134 H157 0.929 . S
C135 C134 1.386 . S
C135 C136 1.373 . S
C136 C135 1.373 . S
C136 C137 1.409 . S
C136 H158 0.931 . S
C137 C132 1.356 . S
C137 C136 1.409 . S
C137 H159 0.930 . S
C138 O148 1.270 . S
C138 O149 1.248 . S
C139 O150 1.267 . S
C139 O151 1.278 . S
O140 Pr120 2.562 . S
O140 C122 1.254 . S
O141 Pr120 2.490 . S
O141 C122 1.225 . S
O142 Pr120 2.695 . S
O142 Pr121 2.436 . S
O142 C129 1.270 . S
O143 Pr120 2.512 . S
O143 C129 1.248 . S
O144 Pr121 2.438 . S
O144 C130 1.267 . S
O145 Pr120 2.437 . S
O145 C130 1.278 . S
O146 Pr121 2.562 . S
O146 C131 1.254 . S
O147 Pr121 2.490 . S
O147 C131 1.225 . S
O148 Pr120 2.436 . S
O148 Pr121 2.695 . S
O148 C138 1.270 . S
O149 Pr121 2.512 . S
O149 C138 1.248 . S
O150 Pr120 2.438 . S
O150 C139 1.267 . S
O151 Pr121 2.437 . S
O151 C139 1.278 . S
H152 C124 0.940 . S
H153 C125 0.929 . S
H154 C127 0.931 . S
H155 C128 0.930 . S
H156 C133 0.929 . S
H157 C134 0.929 . S
H158 C136 0.931 . S
H159 C137 0.930 . S
Pr160 C162 2.880 . S
Pr160 O180 2.562 . S
Pr160 O181 2.490 . S
Pr160 O182 2.695 . S
Pr160 O183 2.512 . S
Pr160 O185 2.437 . S
Pr160 O188 2.436 . S
Pr160 O190 2.438 . S
Pr161 C171 2.880 . S
Pr161 O182 2.436 . S
Pr161 O184 2.438 . S
Pr161 O186 2.562 . S
Pr161 O187 2.490 . S
Pr161 O188 2.695 . S
Pr161 O189 2.512 . S
Pr161 O191 2.437 . S
C162 Pr160 2.880 . S
C162 C163 1.491 . S
C162 O180 1.254 . S
C162 O181 1.225 . S
C163 C162 1.491 . S
C163 C164 1.392 . S
C163 C168 1.356 . S
C164 C163 1.392 . S
C164 C165 1.368 . S
C164 H192 0.929 . S
C165 C164 1.368 . S
C165 C166 1.386 . S
C165 H193 0.929 . S
C166 C165 1.386 . S
C166 C167 1.373 . S
C167 C166 1.373 . S
C167 C168 1.409 . S
C167 H194 0.931 . S
C168 C163 1.356 . S
C168 C167 1.409 . S
C168 H195 0.930 . S
C169 O182 1.270 . S
C169 O183 1.248 . S
C170 O184 1.267 . S
C170 O185 1.278 . S
C171 Pr161 2.880 . S
C171 C172 1.491 . S
C171 O186 1.254 . S
C171 O187 1.225 . S
C172 C171 1.491 . S
C172 C173 1.392 . S
C172 C177 1.356 . S
C173 C172 1.392 . S
C173 C174 1.368 . S
C173 H196 0.929 . S
C174 C173 1.368 . S
C174 C175 1.386 . S
C174 H197 0.929 . S
C175 C174 1.386 . S
C175 C176 1.373 . S
C176 C175 1.373 . S
C176 C177 1.409 . S
C176 H198 0.931 . S
C177 C172 1.356 . S
C177 C176 1.409 . S
C177 H199 0.930 . S
C178 O188 1.270 . S
C178 O189 1.248 . S
C179 O190 1.267 . S
C179 O191 1.278 . S
O180 Pr160 2.562 . S
O180 C162 1.254 . S
O181 Pr160 2.490 . S
O181 C162 1.225 . S
O182 Pr160 2.695 . S
O182 Pr161 2.436 . S
O182 C169 1.270 . S
O183 Pr160 2.512 . S
O183 C169 1.248 . S
O184 Pr161 2.438 . S
O184 C170 1.267 . S
O185 Pr160 2.437 . S
O185 C170 1.278 . S
O186 Pr161 2.562 . S
O186 C171 1.254 . S
O187 Pr161 2.490 . S
O187 C171 1.225 . S
O188 Pr160 2.436 . S
O188 Pr161 2.695 . S
O188 C178 1.270 . S
O189 Pr161 2.512 . S
O189 C178 1.248 . S
O190 Pr160 2.438 . S
O190 C179 1.267 . S
O191 Pr161 2.437 . S
O191 C179 1.278 . S
H192 C164 0.929 . S
H193 C165 0.929 . S
H194 C167 0.931 . S
H195 C168 0.930 . S
H196 C173 0.929 . S
H197 C174 0.929 . S
H198 C176 0.931 . S
H199 C177 0.930 . S
Pr200 C202 2.880 . S
Pr200 O220 2.562 . S
Pr200 O221 2.490 . S
Pr200 O222 2.695 . S
Pr200 O223 2.512 . S
Pr200 O225 2.437 . S
Pr200 O228 2.436 . S
Pr200 O230 2.438 . S
Pr201 C211 2.880 1_556 S
Pr201 O222 2.436 . S
Pr201 O224 2.438 . S
Pr201 O226 2.562 1_556 S
Pr201 O227 2.490 1_556 S
Pr201 O228 2.695 . S
Pr201 O229 2.512 . S
Pr201 O231 2.437 . S
C202 Pr200 2.880 . S
C202 C203 1.491 . S
C202 O220 1.254 . S
C202 O221 1.225 . S
C203 C202 1.491 . S
C203 C204 1.392 . S
C203 C208 1.356 . S
C204 C203 1.392 . S
C204 C205 1.368 . S
C204 H232 0.929 . S
C205 C204 1.368 . S
C205 C206 1.386 . S
C205 H233 0.929 . S
C206 C205 1.386 . S
C206 C207 1.373 . S
C207 C206 1.373 . S
C207 C208 1.409 . S
C207 H234 0.931 . S
C208 C203 1.356 . S
C208 C207 1.409 . S
C208 H235 0.930 . S
C209 O222 1.270 . S
C209 O223 1.248 . S
C210 O224 1.267 . S
C210 O225 1.278 . S
C211 Pr201 2.880 1_554 S
C211 C212 1.491 . S
C211 O226 1.254 . S
C211 O227 1.225 . S
C212 C211 1.491 . S
C212 C213 1.392 . S
C212 C217 1.356 . S
C213 C212 1.392 . S
C213 C214 1.368 . S
C213 H236 0.929 . S
C214 C213 1.368 . S
C214 C215 1.386 . S
C214 H237 0.929 . S
C215 C214 1.386 . S
C215 C216 1.373 . S
C216 C215 1.373 . S
C216 C217 1.409 . S
C216 H238 0.931 . S
C217 C212 1.356 . S
C217 C216 1.409 . S
C217 H239 0.930 . S
C218 O228 1.270 . S
C218 O229 1.248 . S
C219 O230 1.267 . S
C219 O231 1.278 . S
O220 Pr200 2.562 . S
O220 C202 1.254 . S
O221 Pr200 2.490 . S
O221 C202 1.225 . S
O222 Pr200 2.695 . S
O222 Pr201 2.436 . S
O222 C209 1.270 . S
O223 Pr200 2.512 . S
O223 C209 1.248 . S
O224 Pr201 2.438 . S
O224 C210 1.267 . S
O225 Pr200 2.437 . S
O225 C210 1.278 . S
O226 Pr201 2.562 1_554 S
O226 C211 1.254 . S
O227 Pr201 2.490 1_554 S
O227 C211 1.225 . S
O228 Pr200 2.436 . S
O228 Pr201 2.695 . S
O228 C218 1.270 . S
O229 Pr201 2.512 . S
O229 C218 1.248 . S
O230 Pr200 2.438 . S
O230 C219 1.267 . S
O231 Pr201 2.437 . S
O231 C219 1.278 . S
H232 C204 0.929 . S
H233 C205 0.929 . S
H234 C207 0.931 . S
H235 C208 0.930 . S
H236 C213 0.929 . S
H237 C214 0.929 . S
H238 C216 0.931 . S
H239 C217 0.930 . S
H240 C246 0.930 1_554 S
H241 C250 0.930 . S
H242 C255 0.929 . S
H243 C253 0.929 . S
H244 C248 0.929 . S
H245 C254 0.929 . S
C246 H240 0.930 1_556 S
C246 C247 1.367 . S
C246 C254 1.378 1_556 S
C247 C246 1.367 . S
C247 C255 1.433 . S
C248 H244 0.929 . S
C248 C250 1.378 . S
C248 C252 1.350 . S
C249 C252 1.463 . S
C249 C254 1.350 1_556 S
C249 N257 1.427 . S
C250 H241 0.930 . S
C250 C248 1.378 . S
C250 C251 1.367 1_556 S
C251 C250 1.367 1_554 S
C251 C253 1.433 . S
C252 C248 1.350 . S
C252 C249 1.463 . S
C252 N256 1.427 1_556 S
C253 H243 0.929 . S
C253 C251 1.433 . S
C253 N256 1.384 . S
C254 H245 0.929 . S
C254 C246 1.378 1_554 S
C254 C249 1.350 1_554 S
C255 H242 0.929 . S
C255 C247 1.433 . S
C255 N257 1.384 . S
N256 C252 1.427 1_554 S
N256 C253 1.384 . S
N257 C249 1.427 . S
N257 C255 1.384 . S
H258 C264 0.930 . S
H259 C268 0.930 . S
H260 C273 0.929 . S
H261 C271 0.929 . S
H262 C266 0.929 1_455 S
H263 C272 0.929 1_655 S
C264 H258 0.930 . S
C264 C265 1.367 . S
C264 C272 1.378 . S
C265 C264 1.367 . S
C265 C273 1.433 . S
C266 H262 0.929 1_655 S
C266 C268 1.378 . S
C266 C270 1.350 . S
C267 C270 1.463 1_455 S
C267 C272 1.350 . S
C267 N275 1.427 . S
C268 H259 0.930 . S
C268 C266 1.378 . S
C268 C269 1.367 . S
C269 C268 1.367 . S
C269 C271 1.433 . S
C270 C266 1.350 . S
C270 C267 1.463 1_655 S
C270 N274 1.427 . S
C271 H261 0.929 . S
C271 C269 1.433 . S
C271 N274 1.384 . S
C272 H263 0.929 1_455 S
C272 C264 1.378 . S
C272 C267 1.350 . S
C273 H260 0.929 . S
C273 C265 1.433 . S
C273 N275 1.384 . S
N274 C270 1.427 . S
N274 C271 1.384 . S
N275 C267 1.427 . S
N275 C273 1.384 . S
H276 C282 0.930 . S
H277 C286 0.930 . S
H278 C291 0.929 . S
H279 C289 0.929 . S
H280 C284 0.929 . S
H281 C290 0.929 . S
C282 H276 0.930 . S
C282 C283 1.367 . S
C282 C290 1.378 . S
C283 C282 1.367 . S
C283 C291 1.433 . S
C284 H280 0.929 . S
C284 C286 1.378 . S
C284 C288 1.350 . S
C285 C288 1.463 1_545 S
C285 C290 1.350 . S
C285 N293 1.427 . S
C286 H277 0.930 . S
C286 C284 1.378 . S
C286 C287 1.367 . S
C287 C286 1.367 . S
C287 C289 1.433 . S
C288 C284 1.350 . S
C288 C285 1.463 1_565 S
C288 N292 1.427 . S
C289 H279 0.929 . S
C289 C287 1.433 . S
C289 N292 1.384 . S
C290 H281 0.929 . S
C290 C282 1.378 . S
C290 C285 1.350 . S
C291 H278 0.929 . S
C291 C283 1.433 . S
C291 N293 1.384 . S
N292 C288 1.427 . S
N292 C289 1.384 . S
N293 C285 1.427 . S
N293 C291 1.384 . S
H294 C300 0.930 . S
H295 C304 0.930 . S
H296 C309 0.929 . S
H297 C307 0.929 . S
H298 C302 0.929 . S
H299 C308 0.929 . S
C300 H294 0.930 . S
C300 C301 1.367 . S
C300 C308 1.378 . S
C301 C300 1.367 . S
C301 C309 1.433 . S
C302 H298 0.929 . S
C302 C304 1.378 . S
C302 C306 1.350 . S
C303 C306 1.463 1_556 S
C303 C308 1.350 . S
C303 N311 1.427 . S
C304 H295 0.930 . S
C304 C302 1.378 . S
C304 C305 1.367 . S
C305 C304 1.367 . S
C305 C307 1.433 . S
C306 C302 1.350 . S
C306 C303 1.463 1_554 S
C306 N310 1.427 . S
C307 H297 0.929 . S
C307 C305 1.433 . S
C307 N310 1.384 . S
C308 H299 0.929 . S
C308 C300 1.378 . S
C308 C303 1.350 . S
C309 H296 0.929 . S
C309 C301 1.433 . S
C309 N311 1.384 . S
N310 C306 1.427 . S
N310 C307 1.384 . S
N311 C303 1.427 . S
N311 C309 1.384 . S
H312 C318 0.930 . S
H313 C322 0.930 . S
H314 C327 0.929 . S
H315 C325 0.929 . S
H316 C320 0.929 . S
H317 C326 0.929 . S
C318 H312 0.930 . S
C318 C319 1.367 . S
C318 C326 1.378 . S
C319 C318 1.367 . S
C319 C327 1.433 . S
C320 H316 0.929 . S
C320 C322 1.378 . S
C320 C324 1.350 . S
C321 C324 1.463 1_455 S
C321 C326 1.350 . S
C321 N329 1.427 . S
C322 H313 0.930 . S
C322 C320 1.378 . S
C322 C323 1.367 . S
C323 C322 1.367 . S
C323 C325 1.433 . S
C324 C320 1.350 . S
C324 C321 1.463 1_655 S
C324 N328 1.427 . S
C325 H315 0.929 . S
C325 C323 1.433 . S
C325 N328 1.384 . S
C326 H317 0.929 . S
C326 C318 1.378 . S
C326 C321 1.350 . S
C327 H314 0.929 . S
C327 C319 1.433 . S
C327 N329 1.384 . S
N328 C324 1.427 . S
N328 C325 1.384 . S
N329 C321 1.427 . S
N329 C327 1.384 . S
H330 C336 0.930 . S
H331 C340 0.930 . S
H332 C345 0.929 1_565 S
H333 C343 0.929 1_545 S
H334 C338 0.929 . S
H335 C344 0.929 . S
C336 H330 0.930 . S
C336 C337 1.367 . S
C336 C344 1.378 . S
C337 C336 1.367 . S
C337 C345 1.433 . S
C338 H334 0.929 . S
C338 C340 1.378 . S
C338 C342 1.350 . S
C339 C342 1.463 1_545 S
C339 C344 1.350 . S
C339 N347 1.427 1_545 S
C340 H331 0.930 . S
C340 C338 1.378 . S
C340 C341 1.367 . S
C341 C340 1.367 . S
C341 C343 1.433 . S
C342 C338 1.350 . S
C342 C339 1.463 1_565 S
C342 N346 1.427 1_565 S
C343 H333 0.929 1_565 S
C343 C341 1.433 . S
C343 N346 1.384 1_565 S
C344 H335 0.929 . S
C344 C336 1.378 . S
C344 C339 1.350 . S
C345 H332 0.929 1_545 S
C345 C337 1.433 . S
C345 N347 1.384 1_545 S
N346 C342 1.427 1_545 S
N346 C343 1.384 1_545 S
N347 C339 1.427 1_565 S
N347 C345 1.384 1_565 S
H348 C354 0.930 . S
H349 C358 0.930 . S
H350 C363 0.929 . S
H351 C361 0.929 . S
H352 C356 0.929 . S
H353 C362 0.929 . S
C354 H348 0.930 . S
C354 C355 1.367 . S
C354 C362 1.378 . S
C355 C354 1.367 . S
C355 C363 1.433 . S
C356 H352 0.929 . S
C356 C358 1.378 . S
C356 C360 1.350 . S
C357 C360 1.463 . S
C357 C362 1.350 . S
C357 N365 1.427 . S
C358 H349 0.930 . S
C358 C356 1.378 . S
C358 C359 1.367 . S
C359 C358 1.367 . S
C359 C361 1.433 . S
C360 C356 1.350 . S
C360 C357 1.463 . S
C360 N364 1.427 . S
C361 H351 0.929 . S
C361 C359 1.433 . S
C361 N364 1.384 . S
C362 H353 0.929 . S
C362 C354 1.378 . S
C362 C357 1.350 . S
C363 H350 0.929 . S
C363 C355 1.433 . S
C363 N365 1.384 . S
N364 C360 1.427 . S
N364 C361 1.384 . S
N365 C357 1.427 . S
N365 C363 1.384 . S
H366 C372 0.930 . S
H367 C376 0.930 . S
H368 C381 0.929 . S
H369 C379 0.929 . S
H370 C374 0.929 . S
H371 C380 0.929 . S
C372 H366 0.930 . S
C372 C373 1.367 . S
C372 C380 1.378 . S
C373 C372 1.367 . S
C373 C381 1.433 . S
C374 H370 0.929 . S
C374 C376 1.378 1_554 S
C374 C378 1.350 . S
C375 C378 1.463 . S
C375 C380 1.350 . S
C375 N383 1.427 . S
C376 H367 0.930 . S
C376 C374 1.378 1_556 S
C376 C377 1.367 . S
C377 C376 1.367 . S
C377 C379 1.433 . S
C378 C374 1.350 . S
C378 C375 1.463 . S
C378 N382 1.427 1_554 S
C379 H369 0.929 . S
C379 C377 1.433 . S
C379 N382 1.384 . S
C380 H371 0.929 . S
C380 C372 1.378 . S
C380 C375 1.350 . S
C381 H368 0.929 . S
C381 C373 1.433 . S
C381 N383 1.384 . S
N382 C378 1.427 1_556 S
N382 C379 1.384 . S
N383 C375 1.427 . S
N383 C381 1.384 . S
H384 C390 0.930 . S
H385 C394 0.930 . S
H386 C399 0.929 . S
H387 C397 0.929 . S
H388 C392 0.929 . S
H389 C398 0.929 . S
C390 H384 0.930 . S
C390 C391 1.367 . S
C390 C398 1.378 . S
C391 C390 1.367 . S
C391 C399 1.433 . S
C392 H388 0.929 . S
C392 C394 1.378 . S
C392 C396 1.350 . S
C393 C396 1.463 . S
C393 C398 1.350 . S
C393 N401 1.427 . S
C394 H385 0.930 . S
C394 C392 1.378 . S
C394 C395 1.367 . S
C395 C394 1.367 . S
C395 C397 1.433 . S
C396 C392 1.350 . S
C396 C393 1.463 . S
C396 N400 1.427 . S
C397 H387 0.929 . S
C397 C395 1.433 . S
C397 N400 1.384 . S
C398 H389 0.929 . S
C398 C390 1.378 . S
C398 C393 1.350 . S
C399 H386 0.929 . S
C399 C391 1.433 . S
C399 N401 1.384 . S
N400 C396 1.427 . S
N400 C397 1.384 . S
N401 C393 1.427 . S
N401 C399 1.384 . S
H402 C408 0.930 . S
H403 C412 0.930 . S
H404 C417 0.929 . S
H405 C415 0.929 . S
H406 C410 0.929 . S
H407 C416 0.929 . S
C408 H402 0.930 . S
C408 C409 1.367 . S
C408 C416 1.378 . S
C409 C408 1.367 . S
C409 C417 1.433 . S
C410 H406 0.929 . S
C410 C412 1.378 . S
C410 C414 1.350 . S
C411 C414 1.463 . S
C411 C416 1.350 . S
C411 N419 1.427 . S
C412 H403 0.930 . S
C412 C410 1.378 . S
C412 C413 1.367 . S
C413 C412 1.367 . S
C413 C415 1.433 . S
C414 C410 1.350 . S
C414 C411 1.463 . S
C414 N418 1.427 . S
C415 H405 0.929 . S
C415 C413 1.433 . S
C415 N418 1.384 . S
C416 H407 0.929 . S
C416 C408 1.378 . S
C416 C411 1.350 . S
C417 H404 0.929 . S
C417 C409 1.433 . S
C417 N419 1.384 . S
N418 C414 1.427 . S
N418 C415 1.384 . S
N419 C411 1.427 . S
N419 C417 1.384 . S
H420 C426 0.930 . S
H421 C430 0.930 . S
H422 C435 0.929 . S
H423 C433 0.929 . S
H424 C428 0.929 . S
H425 C434 0.929 . S
C426 H420 0.930 . S
C426 C427 1.367 . S
C426 C434 1.378 . S
C427 C426 1.367 . S
C427 C435 1.433 . S
C428 H424 0.929 . S
C428 C430 1.378 . S
C428 C432 1.350 . S
C429 C432 1.463 . S
C429 C434 1.350 . S
C429 N437 1.427 . S
C430 H421 0.930 . S
C430 C428 1.378 . S
C430 C431 1.367 1_556 S
C431 C430 1.367 1_554 S
C431 C433 1.433 . S
C432 C428 1.350 . S
C432 C429 1.463 . S
C432 N436 1.427 . S
C433 H423 0.929 . S
C433 C431 1.433 . S
C433 N436 1.384 1_554 S
C434 H425 0.929 . S
C434 C426 1.378 . S
C434 C429 1.350 . S
C435 H422 0.929 . S
C435 C427 1.433 . S
C435 N437 1.384 . S
N436 C432 1.427 . S
N436 C433 1.384 1_556 S
N437 C429 1.427 . S
N437 C435 1.384 . S
H438 C444 0.930 . S
H439 C448 0.930 . S
H440 C453 0.929 . S
H441 C451 0.929 . S
H442 C446 0.929 . S
H443 C452 0.929 . S
C444 H438 0.930 . S
C444 C445 1.367 . S
C444 C452 1.378 . S
C445 C444 1.367 . S
C445 C453 1.433 . S
C446 H442 0.929 . S
C446 C448 1.378 . S
C446 C450 1.350 . S
C447 C450 1.463 . S
C447 C452 1.350 . S
C447 N455 1.427 . S
C448 H439 0.930 . S
C448 C446 1.378 . S
C448 C449 1.367 . S
C449 C448 1.367 . S
C449 C451 1.433 . S
C450 C446 1.350 . S
C450 C447 1.463 . S
C450 N454 1.427 . S
C451 H441 0.929 . S
C451 C449 1.433 . S
C451 N454 1.384 . S
C452 H443 0.929 . S
C452 C444 1.378 . S
C452 C447 1.350 . S
C453 H440 0.929 . S
C453 C445 1.433 . S
C453 N455 1.384 . S
N454 C450 1.427 . S
N454 C451 1.384 . S
N455 C447 1.427 . S
N455 C453 1.384 . S
H456 C462 0.930 . S
H457 C466 0.930 . S
H458 C471 0.929 . S
H459 C469 0.929 . S
H460 C464 0.929 . S
H461 C470 0.929 . S
C462 H456 0.930 . S
C462 C463 1.367 . S
C462 C470 1.378 . S
C463 C462 1.367 . S
C463 C471 1.433 . S
C464 H460 0.929 . S
C464 C466 1.378 . S
C464 C468 1.350 . S
C465 C468 1.463 . S
C465 C470 1.350 . S
C465 N473 1.427 . S
C466 H457 0.930 . S
C466 C464 1.378 . S
C466 C467 1.367 . S
C467 C466 1.367 . S
C467 C469 1.433 . S
C468 C464 1.350 . S
C468 C465 1.463 . S
C468 N472 1.427 . S
C469 H459 0.929 . S
C469 C467 1.433 . S
C469 N472 1.384 . S
C470 H461 0.929 . S
C470 C462 1.378 . S
C470 C465 1.350 . S
C471 H458 0.929 . S
C471 C463 1.433 . S
C471 N473 1.384 . S
N472 C468 1.427 . S
N472 C469 1.384 . S
N473 C465 1.427 . S
N473 C471 1.384 . S
H474 C480 0.930 . S
H475 C484 0.930 . S
H476 C489 0.929 . S
H477 C487 0.929 . S
H478 C482 0.929 . S
H479 C488 0.929 . S
C480 H474 0.930 . S
C480 C481 1.367 . S
C480 C488 1.378 . S
C481 C480 1.367 . S
C481 C489 1.433 . S
C482 H478 0.929 . S
C482 C484 1.378 . S
C482 C486 1.350 . S
C483 C486 1.463 . S
C483 C488 1.350 . S
C483 N491 1.427 . S
C484 H475 0.930 . S
C484 C482 1.378 . S
C484 C485 1.367 . S
C485 C484 1.367 . S
C485 C487 1.433 . S
C486 C482 1.350 . S
C486 C483 1.463 . S
C486 N490 1.427 . S
C487 H477 0.929 . S
C487 C485 1.433 . S
C487 N490 1.384 . S
C488 H479 0.929 . S
C488 C480 1.378 . S
C488 C483 1.350 . S
C489 H476 0.929 . S
C489 C481 1.433 . S
C489 N491 1.384 . S
N490 C486 1.427 . S
N490 C487 1.384 . S
N491 C483 1.427 . S
N491 C489 1.384 . S
H492 C498 0.930 . S
H493 C502 0.930 . S
H494 C507 0.929 . S
H495 C505 0.929 . S
H496 C500 0.929 . S
H497 C506 0.929 . S
C498 H492 0.930 . S
C498 C499 1.367 . S
C498 C506 1.378 . S
C499 C498 1.367 . S
C499 C507 1.433 . S
C500 H496 0.929 . S
C500 C502 1.378 . S
C500 C504 1.350 . S
C501 C504 1.463 . S
C501 C506 1.350 . S
C501 N509 1.427 . S
C502 H493 0.930 . S
C502 C500 1.378 . S
C502 C503 1.367 . S
C503 C502 1.367 . S
C503 C505 1.433 . S
C504 C500 1.350 . S
C504 C501 1.463 . S
C504 N508 1.427 . S
C505 H495 0.929 . S
C505 C503 1.433 . S
C505 N508 1.384 . S
C506 H497 0.929 . S
C506 C498 1.378 . S
C506 C501 1.350 . S
C507 H494 0.929 . S
C507 C499 1.433 . S
C507 N509 1.384 . S
N508 C504 1.427 . S
N508 C505 1.384 . S
N509 C501 1.427 . S
N509 C507 1.384 . S
H510 C516 0.930 . S
H511 C520 0.930 . S
H512 C525 0.929 . S
H513 C523 0.929 . S
H514 C518 0.929 . S
H515 C524 0.929 . S
C516 H510 0.930 . S
C516 C517 1.367 . S
C516 C524 1.378 . S
C517 C516 1.367 . S
C517 C525 1.433 . S
C518 H514 0.929 . S
C518 C520 1.378 . S
C518 C522 1.350 . S
C519 C522 1.463 . S
C519 C524 1.350 . S
C519 N527 1.427 . S
C520 H511 0.930 . S
C520 C518 1.378 . S
C520 C521 1.367 . S
C521 C520 1.367 . S
C521 C523 1.433 . S
C522 C518 1.350 . S
C522 C519 1.463 . S
C522 N526 1.427 . S
C523 H513 0.929 . S
C523 C521 1.433 . S
C523 N526 1.384 . S
C524 H515 0.929 . S
C524 C516 1.378 . S
C524 C519 1.350 . S
C525 H512 0.929 . S
C525 C517 1.433 . S
C525 N527 1.384 . S
N526 C522 1.427 . S
N526 C523 1.384 . S
N527 C519 1.427 . S
N527 C525 1.384 . S
H528 C534 0.930 . S
H529 C538 0.930 . S
H530 C543 0.929 . S
H531 C541 0.929 . S
H532 C536 0.929 . S
H533 C542 0.929 . S
C534 H528 0.930 . S
C534 C535 1.367 . S
C534 C542 1.378 . S
C535 C534 1.367 . S
C535 C543 1.433 . S
C536 H532 0.929 . S
C536 C538 1.378 . S
C536 C540 1.350 . S
C537 C540 1.463 . S
C537 C542 1.350 . S
C537 N545 1.427 . S
C538 H529 0.930 . S
C538 C536 1.378 . S
C538 C539 1.367 . S
C539 C538 1.367 . S
C539 C541 1.433 . S
C540 C536 1.350 . S
C540 C537 1.463 . S
C540 N544 1.427 . S
C541 H531 0.929 . S
C541 C539 1.433 . S
C541 N544 1.384 . S
C542 H533 0.929 . S
C542 C534 1.378 . S
C542 C537 1.350 . S
C543 H530 0.929 . S
C543 C535 1.433 . S
C543 N545 1.384 . S
N544 C540 1.427 . S
N544 C541 1.384 . S
N545 C537 1.427 . S
N545 C543 1.384 . S
H546 C552 0.930 . S
H547 C556 0.930 . S
H548 C561 0.929 . S
H549 C559 0.929 . S
H550 C554 0.929 . S
H551 C560 0.929 . S
C552 H546 0.930 . S
C552 C553 1.367 . S
C552 C560 1.378 . S
C553 C552 1.367 . S
C553 C561 1.433 . S
C554 H550 0.929 . S
C554 C556 1.378 1_554 S
C554 C558 1.350 . S
C555 C558 1.463 . S
C555 C560 1.350 . S
C555 N563 1.427 . S
C556 H547 0.930 . S
C556 C554 1.378 1_556 S
C556 C557 1.367 1_556 S
C557 C556 1.367 1_554 S
C557 C559 1.433 . S
C558 C554 1.350 . S
C558 C555 1.463 . S
C558 N562 1.427 . S
C559 H549 0.929 . S
C559 C557 1.433 . S
C559 N562 1.384 . S
C560 H551 0.929 . S
C560 C552 1.378 . S
C560 C555 1.350 . S
C561 H548 0.929 . S
C561 C553 1.433 . S
C561 N563 1.384 . S
N562 C558 1.427 . S
N562 C559 1.384 . S
N563 C555 1.427 . S
N563 C561 1.384 . S
C247 C209 1.400 . S
C251 C9 1.406 . S
C265 C10 1.772 . S
C269 C50 1.772 . S
C283 C49 1.402 . S
C287 C89 1.387 . S
C301 C90 1.775 . S
C305 C130 1.775 . S
C319 C169 1.400 . S
C323 C129 1.406 . S
C337 C210 1.767 . S
C341 C170 1.767 . S
C355 C15 1.278 . S
C359 C6 1.278 . S
C373 C46 1.291 . S
C377 C55 1.291 . S
C391 C95 1.276 . S
C395 C86 1.276 . S
C409 C126 1.275 . S
C413 C135 1.275 . S
C427 C166 1.290 . S
C431 C175 1.290 . S
C445 C206 1.285 . S
C449 C215 1.285 . S
C463 C18 1.853 . S
C467 C179 1.841 . S
C481 C59 1.841 . S
C485 C218 1.853 . S
C499 C19 1.840 . S
C503 C98 1.853 . S
C517 C58 1.852 . S
C521 C139 1.844 . S
C535 C178 1.852 . S
C539 C99 1.840 . S
C553 C138 1.853 . S
C557 C219 1.839 1_554 S
