# Generated by pormake.
# Topology wib, (6)-cn, num edge types: 1
# Building blocks:
#     Node 0, Type 0, BuildingBlock: VOLQOD_clean_sbu_1, # of connection points: 6
#     Node 1, Type 0, BuildingBlock: VOLQOD_clean_sbu_1, # of connection points: 6
#     Node 2, Type 0, BuildingBlock: VOLQOD_clean_sbu_1, # of connection points: 6
#     Node 3, Type 0, BuildingBlock: VOLQOD_clean_sbu_1, # of connection points: 6
#     Node 4, Type 0, BuildingBlock: VOLQOD_clean_sbu_1, # of connection points: 6
#     Node 5, Type 0, BuildingBlock: VOLQOD_clean_sbu_1, # of connection points: 6
#     Node 6, Type 0, BuildingBlock: VOLQOD_clean_sbu_1, # of connection points: 6
#     Node 7, Type 0, BuildingBlock: VOLQOD_clean_sbu_1, # of connection points: 6
#     Node 8, Type 0, BuildingBlock: VOLQOD_clean_sbu_1, # of connection points: 6
#     Node 9, Type 0, BuildingBlock: VOLQOD_clean_sbu_1, # of connection points: 6
#     Node 10, Type 0, BuildingBlock: VOLQOD_clean_sbu_1, # of connection points: 6
#     Node 11, Type 0, BuildingBlock: VOLQOD_clean_sbu_1, # of connection points: 6
#     Node 12, Type 0, BuildingBlock: VOLQOD_clean_sbu_1, # of connection points: 6
#     Node 13, Type 0, BuildingBlock: VOLQOD_clean_sbu_1, # of connection points: 6
#     Node 14, Type 0, BuildingBlock: VOLQOD_clean_sbu_1, # of connection points: 6
#     Node 15, Type 0, BuildingBlock: VOLQOD_clean_sbu_1, # of connection points: 6
#     Edge 16, Type (0, 0), BuildingBlock: XUDNAN_clean_linker_2, # of connection points: 2
#     Edge 17, Type (0, 0), BuildingBlock: XUDNAN_clean_linker_2, # of connection points: 2
#     Edge 18, Type (0, 0), BuildingBlock: XUDNAN_clean_linker_2, # of connection points: 2
#     Edge 19, Type (0, 0), BuildingBlock: XUDNAN_clean_linker_2, # of connection points: 2
#     Edge 20, Type (0, 0), BuildingBlock: XUDNAN_clean_linker_2, # of connection points: 2
#     Edge 21, Type (0, 0), BuildingBlock: XUDNAN_clean_linker_2, # of connection points: 2
#     Edge 22, Type (0, 0), BuildingBlock: XUDNAN_clean_linker_2, # of connection points: 2
#     Edge 23, Type (0, 0), BuildingBlock: XUDNAN_clean_linker_2, # of connection points: 2
#     Edge 24, Type (0, 0), BuildingBlock: XUDNAN_clean_linker_2, # of connection points: 2
#     Edge 25, Type (0, 0), BuildingBlock: XUDNAN_clean_linker_2, # of connection points: 2
#     Edge 26, Type (0, 0), BuildingBlock: XUDNAN_clean_linker_2, # of connection points: 2
#     Edge 27, Type (0, 0), BuildingBlock: XUDNAN_clean_linker_2, # of connection points: 2
#     Edge 28, Type (0, 0), BuildingBlock: XUDNAN_clean_linker_2, # of connection points: 2
#     Edge 29, Type (0, 0), BuildingBlock: XUDNAN_clean_linker_2, # of connection points: 2
#     Edge 30, Type (0, 0), BuildingBlock: XUDNAN_clean_linker_2, # of connection points: 2
#     Edge 31, Type (0, 0), BuildingBlock: XUDNAN_clean_linker_2, # of connection points: 2
#     Edge 32, Type (0, 0), BuildingBlock: XUDNAN_clean_linker_2, # of connection points: 2
#     Edge 33, Type (0, 0), BuildingBlock: XUDNAN_clean_linker_2, # of connection points: 2
#     Edge 34, Type (0, 0), BuildingBlock: XUDNAN_clean_linker_2, # of connection points: 2
#     Edge 35, Type (0, 0), BuildingBlock: XUDNAN_clean_linker_2, # of connection points: 2
#     Edge 36, Type (0, 0), BuildingBlock: XUDNAN_clean_linker_2, # of connection points: 2
#     Edge 37, Type (0, 0), BuildingBlock: XUDNAN_clean_linker_2, # of connection points: 2
#     Edge 38, Type (0, 0), BuildingBlock: XUDNAN_clean_linker_2, # of connection points: 2
#     Edge 39, Type (0, 0), BuildingBlock: XUDNAN_clean_linker_2, # of connection points: 2
#     Edge 40, Type (0, 0), BuildingBlock: XUDNAN_clean_linker_2, # of connection points: 2
#     Edge 41, Type (0, 0), BuildingBlock: XUDNAN_clean_linker_2, # of connection points: 2
#     Edge 42, Type (0, 0), BuildingBlock: XUDNAN_clean_linker_2, # of connection points: 2
#     Edge 43, Type (0, 0), BuildingBlock: XUDNAN_clean_linker_2, # of connection points: 2
#     Edge 44, Type (0, 0), BuildingBlock: XUDNAN_clean_linker_2, # of connection points: 2
#     Edge 45, Type (0, 0), BuildingBlock: XUDNAN_clean_linker_2, # of connection points: 2
#     Edge 46, Type (0, 0), BuildingBlock: XUDNAN_clean_linker_2, # of connection points: 2
#     Edge 47, Type (0, 0), BuildingBlock: XUDNAN_clean_linker_2, # of connection points: 2
#     Edge 48, Type (0, 0), BuildingBlock: XUDNAN_clean_linker_2, # of connection points: 2
#     Edge 49, Type (0, 0), BuildingBlock: XUDNAN_clean_linker_2, # of connection points: 2
#     Edge 50, Type (0, 0), BuildingBlock: XUDNAN_clean_linker_2, # of connection points: 2
#     Edge 51, Type (0, 0), BuildingBlock: XUDNAN_clean_linker_2, # of connection points: 2
#     Edge 52, Type (0, 0), BuildingBlock: XUDNAN_clean_linker_2, # of connection points: 2
#     Edge 53, Type (0, 0), BuildingBlock: XUDNAN_clean_linker_2, # of connection points: 2
#     Edge 54, Type (0, 0), BuildingBlock: XUDNAN_clean_linker_2, # of connection points: 2
#     Edge 55, Type (0, 0), BuildingBlock: XUDNAN_clean_linker_2, # of connection points: 2
#     Edge 56, Type (0, 0), BuildingBlock: XUDNAN_clean_linker_2, # of connection points: 2
#     Edge 57, Type (0, 0), BuildingBlock: XUDNAN_clean_linker_2, # of connection points: 2
#     Edge 58, Type (0, 0), BuildingBlock: XUDNAN_clean_linker_2, # of connection points: 2
#     Edge 59, Type (0, 0), BuildingBlock: XUDNAN_clean_linker_2, # of connection points: 2
#     Edge 60, Type (0, 0), BuildingBlock: XUDNAN_clean_linker_2, # of connection points: 2
#     Edge 61, Type (0, 0), BuildingBlock: XUDNAN_clean_linker_2, # of connection points: 2
#     Edge 62, Type (0, 0), BuildingBlock: XUDNAN_clean_linker_2, # of connection points: 2
#     Edge 63, Type (0, 0), BuildingBlock: XUDNAN_clean_linker_2, # of connection points: 2
# Relax obj value: 0.536
# Max RMSD: 0.268
# Mean RMSD: 0.267
data_MOF--net-wib--node1-VOLQOD_clean_sbu_1--edge1-XUDNAN_clean_linker_2
_symmetry_space_group_name_H-M    P1
_symmetry_Int_Tables_number       1
_symmetry_cell_setting            triclinic
loop_
_symmetry_equiv_pos_as_xyz
'x, y, z'
_cell_length_a     30.184853
_cell_length_b     30.162326
_cell_length_c     65.220347
_cell_angle_alpha  90.015956
_cell_angle_beta   90.058565
_cell_angle_gamma 89.721858
loop_
_atom_site_label
_atom_site_type_symbol
_atom_site_fract_x
_atom_site_fract_y
_atom_site_fract_z
_atom_type_partial_charge
O0 O 0.04925 0.57098 0.26953 0.0
Zn1 Zn 0.11151 0.55106 0.27454 0.0
O2 O 0.13299 0.51367 0.25274 0.0
Zn3 Zn 0.1373 0.45367 0.26357 0.0
Zn4 Zn 0.09111 0.52387 0.23045 0.0
Zn5 Zn 0.18896 0.53366 0.24344 0.0
O6 O 0.19906 0.42679 0.25631 0.0
O7 O 0.23546 0.49 0.25077 0.0
O8 O 0.11807 0.52312 0.30217 0.0
O9 O 0.13726 0.4538 0.29509 0.0
O10 O 0.0797 0.4232 0.25388 0.0
O11 O 0.04848 0.47223 0.23221 0.0
O12 O 0.12134 0.52907 0.20201 0.0
O13 O 0.14453 0.60772 0.27414 0.0
O14 O 0.19018 0.53731 0.21303 0.0
O15 O 0.20109 0.59524 0.25322 0.0
C16 C 0.04175 0.59419 0.25359 0.0
C17 C 0.23526 0.4482 0.25358 0.0
C18 C 0.04794 0.43541 0.24198 0.0
C19 C 0.12895 0.48435 0.30808 0.0
C20 C 0.16246 0.53523 0.19839 0.0
C21 C 0.17896 0.62097 0.26485 0.0
O22 O 0.05922 0.58305 0.23651 0.0
O23 O 0.18814 0.30822 0.52661 0.0
Zn24 Zn 0.21762 0.36795 0.52856 0.0
O25 O 0.24897 0.38186 0.50327 0.0
Zn26 Zn 0.31232 0.38307 0.50855 0.0
Zn27 Zn 0.23153 0.33925 0.48249 0.0
Zn28 Zn 0.23063 0.4389 0.49405 0.0
O29 O 0.3395 0.44346 0.49954 0.0
O30 O 0.27686 0.48295 0.50056 0.0
O31 O 0.25653 0.376 0.55383 0.0
O32 O 0.3225 0.38408 0.53932 0.0
O33 O 0.3387 0.32466 0.49722 0.0
O34 O 0.28181 0.29484 0.48004 0.0
O35 O 0.21702 0.36847 0.4546 0.0
O36 O 0.16433 0.40712 0.53116 0.0
O37 O 0.21912 0.43909 0.46399 0.0
O38 O 0.17271 0.45611 0.50623 0.0
C39 C 0.1653 0.29607 0.51111 0.0
C40 C 0.31897 0.48077 0.50044 0.0
C41 C 0.32172 0.29322 0.48658 0.0
C42 C 0.2982 0.38235 0.55529 0.0
C43 C 0.21307 0.40964 0.45033 0.0
C44 C 0.15002 0.43979 0.52075 0.0
O45 O 0.17572 0.3085 0.49301 0.0
O46 O 0.45114 0.43939 0.77844 0.0
Zn47 Zn 0.39052 0.46691 0.77605 0.0
O48 O 0.38253 0.50192 0.75156 0.0
Zn49 Zn 0.37796 0.56395 0.7601 0.0
Zn50 Zn 0.43281 0.48805 0.73453 0.0
Zn51 Zn 0.33026 0.48339 0.73696 0.0
O52 O 0.32086 0.59178 0.74799 0.0
O53 O 0.28368 0.52929 0.74167 0.0
O54 O 0.36951 0.49878 0.80112 0.0
O55 O 0.36456 0.56877 0.79091 0.0
O56 O 0.43832 0.59315 0.75388 0.0
O57 O 0.47538 0.53916 0.73745 0.0
O58 O 0.41477 0.47831 0.70462 0.0
O59 O 0.35328 0.41392 0.77393 0.0
O60 O 0.34144 0.4764 0.70661 0.0
O61 O 0.3101 0.4234 0.74679 0.0
C62 C 0.4678 0.41786 0.76346 0.0
C63 C 0.28465 0.57115 0.74434 0.0
C64 C 0.47338 0.57811 0.74514 0.0
C65 C 0.36045 0.53925 0.80476 0.0
C66 C 0.37692 0.47393 0.69609 0.0
C67 C 0.32355 0.40003 0.76184 0.0
O68 O 0.46067 0.4304 0.74504 0.0
O69 O 0.33628 0.67506 0.01495 0.0
Zn70 Zn 0.29672 0.62142 0.01795 0.0
O71 O 0.24788 0.62067 0.99816 0.0
Zn72 Zn 0.19123 0.62072 0.01317 0.0
Zn73 Zn 0.25568 0.66999 0.97918 0.0
Zn74 Zn 0.2518 0.56824 0.98149 0.0
O75 O 0.15619 0.56239 0.00738 0.0
O76 O 0.20682 0.52472 0.98962 0.0
O77 O 0.27508 0.61373 0.04698 0.0
O78 O 0.20186 0.61618 0.04407 0.0
O79 O 0.16079 0.68135 0.00739 0.0
O80 O 0.20745 0.71447 0.98551 0.0
O81 O 0.25406 0.65219 0.9487 0.0
O82 O 0.33987 0.57286 0.01151 0.0
O83 O 0.24378 0.57989 0.95173 0.0
O84 O 0.3117 0.54124 0.98376 0.0
C85 C 0.34362 0.6973 0.99871 0.0
C86 C 0.16989 0.52646 0.99889 0.0
C87 C 0.1724 0.71478 0.99648 0.0
C88 C 0.23665 0.61231 0.05506 0.0
C89 C 0.24791 0.6142 0.94065 0.0
C90 C 0.34291 0.54569 0.99666 0.0
O91 O 0.31645 0.69655 0.98371 0.0
O92 O 0.91846 0.41798 0.73019 0.0
Zn93 Zn 0.86781 0.46317 0.73019 0.0
O94 O 0.871 0.50427 0.7538 0.0
Zn95 Zn 0.87476 0.56574 0.74478 0.0
Zn96 Zn 0.92123 0.48791 0.77041 0.0
Zn97 Zn 0.81974 0.4981 0.77099 0.0
O98 O 0.81832 0.6017 0.75269 0.0
O99 O 0.77866 0.54852 0.76736 0.0
O100 O 0.86196 0.49712 0.70315 0.0
O101 O 0.87064 0.56613 0.71436 0.0
O102 O 0.93664 0.59101 0.75154 0.0
O103 O 0.96941 0.53204 0.76578 0.0
O104 O 0.90744 0.48487 0.80072 0.0
O105 O 0.81586 0.42205 0.73378 0.0
O106 O 0.83449 0.49209 0.80065 0.0
O107 O 0.7881 0.44315 0.76375 0.0
C108 C 0.93867 0.40359 0.74606 0.0
C109 C 0.782 0.58775 0.76049 0.0
C110 C 0.97105 0.57161 0.7589 0.0
C111 C 0.86451 0.53878 0.69979 0.0
C112 C 0.87068 0.48624 0.81025 0.0
C113 C 0.78902 0.41667 0.74862 0.0
O114 O 0.93986 0.42612 0.76257 0.0
O115 O 0.84636 0.67091 0.48353 0.0
Zn116 Zn 0.8023 0.61946 0.48101 0.0
O117 O 0.75748 0.62052 0.50334 0.0
Zn118 Zn 0.69691 0.62159 0.4926 0.0
Zn119 Zn 0.76763 0.67146 0.52074 0.0
Zn120 Zn 0.76301 0.56849 0.52038 0.0
O121 O 0.66306 0.56302 0.49813 0.0
O122 O 0.71433 0.52621 0.51569 0.0
O123 O 0.77194 0.61739 0.45277 0.0
O124 O 0.70135 0.62219 0.46231 0.0
O125 O 0.66578 0.68057 0.49948 0.0
O126 O 0.71969 0.71655 0.51584 0.0
O127 O 0.77168 0.65535 0.55088 0.0
O128 O 0.84288 0.56647 0.4847 0.0
O129 O 0.76704 0.58212 0.55021 0.0
O130 O 0.81836 0.53679 0.51367 0.0
C131 C 0.85301 0.69721 0.49855 0.0
C132 C 0.67677 0.52761 0.50694 0.0
C133 C 0.68116 0.71562 0.50788 0.0
C134 C 0.73068 0.61971 0.44839 0.0
C135 C 0.77144 0.6181 0.56011 0.0
C136 C 0.84623 0.53817 0.49913 0.0
O137 O 0.826 0.69898 0.51353 0.0
O138 O 0.60673 0.59413 0.22473 0.0
Zn139 Zn 0.65717 0.54975 0.22708 0.0
O140 O 0.6509 0.51206 0.25146 0.0
Zn141 Zn 0.64538 0.44966 0.24371 0.0
Zn142 Zn 0.60067 0.53358 0.26722 0.0
Zn143 Zn 0.70243 0.51651 0.2688 0.0
O144 O 0.70239 0.41356 0.25048 0.0
O145 O 0.74282 0.46532 0.26567 0.0
O146 O 0.66119 0.51273 0.20099 0.0
O147 O 0.64475 0.44594 0.21309 0.0
O148 O 0.58489 0.42559 0.25322 0.0
O149 O 0.55278 0.48766 0.26489 0.0
O150 O 0.61669 0.54354 0.29718 0.0
O151 O 0.71013 0.58979 0.23049 0.0
O152 O 0.68784 0.52517 0.29829 0.0
O153 O 0.73626 0.5694 0.26093 0.0
C154 C 0.58092 0.61032 0.2383 0.0
C155 C 0.73896 0.42653 0.25838 0.0
C156 C 0.55105 0.4467 0.26006 0.0
C157 C 0.65341 0.4716 0.19815 0.0
C158 C 0.65265 0.53808 0.30719 0.0
C159 C 0.73692 0.59478 0.24542 0.0
O160 O 0.57734 0.59228 0.25591 0.0
O161 O 0.6711 0.32423 0.97229 0.0
Zn162 Zn 0.71048 0.37832 0.97419 0.0
O163 O 0.74203 0.3823 1.00012 0.0
Zn164 Zn 0.80593 0.38158 0.99524 0.0
Zn165 Zn 0.72271 0.33276 0.01644 0.0
Zn166 Zn 0.72575 0.43561 0.01459 0.0
O167 O 0.83534 0.43868 0.00606 0.0
O168 O 0.77525 0.47887 0.0134 0.0
O169 O 0.75121 0.38454 0.95 0.0
O170 O 0.81729 0.38645 0.96491 0.0
O171 O 0.8315 0.32107 0.00402 0.0
O172 O 0.77006 0.28614 0.01414 0.0
O173 O 0.71339 0.35016 0.04618 0.0
O174 O 0.66608 0.42695 0.97262 0.0
O175 O 0.71406 0.42356 0.04425 0.0
O176 O 0.67048 0.462 0.00246 0.0
C177 C 0.65083 0.30498 0.98693 0.0
C178 C 0.81699 0.47555 0.01099 0.0
C179 C 0.81131 0.28606 0.0099 0.0
C180 C 0.79319 0.38795 0.94889 0.0
C181 C 0.71017 0.38815 0.05466 0.0
C182 C 0.6517 0.45576 0.98521 0.0
O183 O 0.66461 0.30839 0.00536 0.0
O184 O 0.57632 0.08199 0.77908 0.0
Zn185 Zn 0.63145 0.04404 0.77673 0.0
O186 O 0.6345 0.01238 0.75075 0.0
Zn187 Zn 0.6358 0.9488 0.75593 0.0
Zn188 Zn 0.58398 0.03094 0.73467 0.0
Zn189 Zn 0.6867 0.02987 0.73584 0.0
O190 O 0.69289 0.92085 0.74377 0.0
O191 O 0.7325 0.98224 0.7386 0.0
O192 O 0.64108 0.00416 0.80129 0.0
O193 O 0.64368 0.93794 0.7865 0.0
O194 O 0.57516 0.92258 0.74752 0.0
O195 O 0.53819 0.98263 0.73652 0.0
O196 O 0.60039 0.04082 0.70479 0.0
O197 O 0.67708 0.09124 0.77714 0.0
O198 O 0.6738 0.03893 0.70581 0.0
O199 O 0.70886 0.08827 0.74652 0.0
C200 C 0.5581 0.10349 0.76446 0.0
C201 C 0.72973 0.94022 0.74006 0.0
C202 C 0.53962 0.94147 0.74106 0.0
C203 C 0.64586 0.96223 0.80248 0.0
C204 C 0.63781 0.04333 0.6958 0.0
C205 C 0.70245 0.10764 0.76361 0.0
O206 O 0.56068 0.0895 0.74603 0.0
O207 O 0.66489 0.80706 0.01757 0.0
Zn208 Zn 0.70459 0.85984 0.02317 0.0
O209 O 0.74542 0.87272 1.00082 0.0
Zn210 Zn 0.80499 0.87776 0.01251 0.0
Zn211 Zn 0.74102 0.82494 0.9813 0.0
Zn212 Zn 0.72766 0.92569 0.98617 0.0
O213 O 0.83271 0.93762 0.00432 0.0
O214 O 0.77369 0.97177 0.99086 0.0
O215 O 0.73436 0.85811 0.05092 0.0
O216 O 0.80232 0.88087 0.04365 0.0
O217 O 0.83892 0.81969 0.00621 0.0
O218 O 0.79028 0.7821 0.98711 0.0
O219 O 0.74138 0.84545 0.9517 0.0
O220 O 0.65937 0.90748 0.02443 0.0
O221 O 0.7228 0.91608 0.95554 0.0
O222 O 0.66777 0.94686 0.99599 0.0
C223 C 0.65614 0.78973 1.00022 0.0
C224 C 0.81371 0.9724 0.99713 0.0
C225 C 0.82704 0.78452 0.99668 0.0
C226 C 0.77279 0.87035 0.05669 0.0
C227 C 0.73041 0.8828 0.94403 0.0
C228 C 0.64585 0.93707 0.01203 0.0
O229 O 0.68177 0.79551 0.98495 0.0
O230 O 0.95148 0.93505 0.27326 0.0
Zn231 Zn 0.89267 0.96628 0.2757 0.0
O232 O 0.87761 0.9976 0.25047 0.0
Zn233 Zn 0.87568 0.06083 0.25628 0.0
Zn234 Zn 0.9213 0.98086 0.22981 0.0
Zn235 Zn 0.8213 0.97809 0.24088 0.0
O236 O 0.81554 0.08841 0.24726 0.0
O237 O 0.77692 0.02608 0.24339 0.0
O238 O 0.8866 0.00475 0.30111 0.0
O239 O 0.87496 0.07066 0.28698 0.0
O240 O 0.93409 0.08724 0.24571 0.0
O241 O 0.96652 0.03045 0.22937 0.0
O242 O 0.89372 0.96721 0.20132 0.0
O243 O 0.8532 0.9143 0.27895 0.0
O244 O 0.82408 0.96137 0.21157 0.0
O245 O 0.80239 0.92245 0.25475 0.0
C246 C 0.96142 0.91121 0.25773 0.0
C247 C 0.77873 0.06815 0.24453 0.0
C248 C 0.96734 0.07023 0.23624 0.0
C249 C 0.87892 0.0462 0.3028 0.0
C250 C 0.85318 0.9581 0.1976 0.0
C251 C 0.81957 0.90021 0.26929 0.0
O252 O 0.94976 0.92306 0.23972 0.0
O253 O 0.83813 0.1688 0.52748 0.0
Zn254 Zn 0.79422 0.11887 0.52573 0.0
O255 O 0.76145 0.12012 0.49997 0.0
Zn256 Zn 0.69807 0.12075 0.50625 0.0
Zn257 Zn 0.78044 0.17129 0.48423 0.0
Zn258 Zn 0.77683 0.06845 0.48391 0.0
O259 O 0.66892 0.06249 0.49642 0.0
O260 O 0.72809 0.02446 0.48575 0.0
O261 O 0.75532 0.11602 0.55085 0.0
O262 O 0.68831 0.11788 0.53698 0.0
O263 O 0.67173 0.18091 0.49712 0.0
O264 O 0.73208 0.21741 0.48662 0.0
O265 O 0.79073 0.15616 0.45408 0.0
O266 O 0.83498 0.06696 0.5264 0.0
O267 O 0.78757 0.08279 0.45427 0.0
O268 O 0.83356 0.04212 0.49442 0.0
C269 C 0.8562 0.19196 0.51348 0.0
C270 C 0.68702 0.02643 0.49013 0.0
C271 C 0.69084 0.21637 0.49096 0.0
C272 C 0.71334 0.11553 0.55269 0.0
C273 C 0.7931 0.11909 0.4447 0.0
C274 C 0.85129 0.04335 0.51211 0.0
O275 O 0.8391 0.19447 0.4956 0.0
O276 O 0.41086 0.92017 0.22297 0.0
Zn277 Zn 0.3605 0.96475 0.22485 0.0
O278 O 0.36611 1.00293 0.24903 0.0
Zn279 Zn 0.37131 0.06541 0.24103 0.0
Zn280 Zn 0.41637 0.98252 0.26504 0.0
Zn281 Zn 0.31406 0.9983 0.26596 0.0
O282 O 0.31441 0.10162 0.24746 0.0
O283 O 0.27359 0.04894 0.26166 0.0
O284 O 0.35615 1.00139 0.1989 0.0
O285 O 0.37162 0.06893 0.2104 0.0
O286 O 0.43147 0.09012 0.25017 0.0
O287 O 0.46399 0.02885 0.26246 0.0
O288 O 0.39943 0.97243 0.29487 0.0
O289 O 0.30682 0.92579 0.22754 0.0
O290 O 0.32787 0.98955 0.29561 0.0
O291 O 0.27945 0.94605 0.25772 0.0
C292 C 0.43703 0.90493 0.23665 0.0
C293 C 0.27747 0.08782 0.25453 0.0
C294 C 0.46547 0.06957 0.25718 0.0
C295 C 0.363 0.04252 0.19573 0.0
C296 C 0.36309 0.97701 0.30466 0.0
C297 C 0.27887 0.92133 0.24198 0.0
O298 O 0.44058 0.92387 0.25406 0.0
O299 O 0.33205 0.15758 0.97196 0.0
Zn300 Zn 0.28952 0.10649 0.97565 0.0
O301 O 0.25122 0.11546 0.99964 0.0
Zn302 Zn 0.18877 0.11823 0.99165 0.0
Zn303 Zn 0.2709 0.1679 0.01439 0.0
Zn304 Zn 0.25762 0.06619 0.01805 0.0
O305 O 0.15437 0.06168 1.0006 0.0
O306 O 0.20843 0.02378 0.01571 0.0
O307 O 0.25269 0.09623 0.9499 0.0
O308 O 0.18503 0.11299 0.96103 0.0
O309 O 0.16298 0.17944 0.99977 0.0
O310 O 0.22269 0.21421 0.01216 0.0
O311 O 0.28185 0.15532 0.04465 0.0
O312 O 0.33222 0.05564 0.98059 0.0
O313 O 0.26383 0.08444 0.04707 0.0
O314 O 0.3126 0.03375 0.01172 0.0
C315 C 0.34759 0.18488 0.98503 0.0
C316 C 0.16906 0.02611 0.00897 0.0
C317 C 0.18194 0.21413 0.00692 0.0
C318 C 0.21129 0.10179 0.94663 0.0
C319 C 0.27617 0.12043 0.05534 0.0
C320 C 0.33845 0.03168 0.99642 0.0
O321 O 0.32892 0.19056 0.0024 0.0
O322 O 0.08281 0.09393 0.72985 0.0
Zn323 Zn 0.13708 0.05437 0.72882 0.0
O324 O 0.13595 0.00562 0.74861 0.0
Zn325 Zn 0.13639 0.94812 0.73398 0.0
Zn326 Zn 0.08424 0.01376 0.76581 0.0
Zn327 Zn 0.18705 0.00904 0.76651 0.0
O328 O 0.1937 0.91215 0.74088 0.0
O329 O 0.229 0.96036 0.76076 0.0
O330 O 0.14902 0.03164 0.70055 0.0
O331 O 0.14456 0.95843 0.70346 0.0
O332 O 0.07546 0.91757 0.73821 0.0
O333 O 0.04237 0.96453 0.75985 0.0
O334 O 0.09887 0.01593 0.79622 0.0
O335 O 0.18572 0.0962 0.73565 0.0
O336 O 0.17187 0.00882 0.79627 0.0
O337 O 0.21926 0.06559 0.76237 0.0
C338 C 0.05455 0.09875 0.74418 0.0
C339 C 0.22822 0.92405 0.7509 0.0
C340 C 0.04177 0.92951 0.74891 0.0
C341 C 0.15097 0.99303 0.69268 0.0
C342 C 0.13554 0.0135 0.80586 0.0
C343 C 0.2152 0.09699 0.74955 0.0
O344 O 0.05303 0.07147 0.75909 0.0
O345 O 0.16846 0.8335 0.48067 0.0
Zn346 Zn 0.20979 0.88624 0.47593 0.0
O347 O 0.25438 0.89187 0.49799 0.0
Zn348 Zn 0.31472 0.8864 0.48776 0.0
Zn349 Zn 0.24165 0.84905 0.51923 0.0
Zn350 Zn 0.24947 0.94878 0.5104 0.0
O351 O 0.35088 0.94494 0.49139 0.0
O352 O 0.29622 0.98941 0.50159 0.0
O353 O 0.24008 0.88623 0.44777 0.0
O354 O 0.31073 0.88166 0.45742 0.0
O355 O 0.34156 0.82692 0.49747 0.0
O356 O 0.28663 0.80002 0.51663 0.0
O357 O 0.24246 0.87519 0.5483 0.0
O358 O 0.16533 0.93648 0.47794 0.0
O359 O 0.25278 0.94577 0.54051 0.0
O360 O 0.19124 0.97477 0.50432 0.0
C361 C 0.15644 0.81903 0.49821 0.0
C362 C 0.33576 0.98371 0.49558 0.0
C363 C 0.3244 0.79552 0.50803 0.0
C364 C 0.28132 0.88328 0.44346 0.0
C365 C 0.24813 0.91537 0.55375 0.0
C366 C 0.16129 0.96744 0.4911 0.0
O367 O 0.18018 0.82539 0.51413 0.0
H368 H 0.30242 0.4654 0.22779 0.0
H369 H 0.26791 0.3843 0.28006 0.0
H370 H 0.34734 0.36416 0.28455 0.0
H371 H 0.39899 0.39655 0.20898 0.0
H372 H 0.42878 0.44592 0.20196 0.0
H373 H 0.36914 0.44508 0.20045 0.0
H374 H 0.3654 0.51451 0.2238 0.0
H375 H 0.42471 0.51533 0.2256 0.0
H376 H 0.39177 0.51304 0.24861 0.0
H377 H 0.43292 0.36512 0.2868 0.0
H378 H 0.51275 0.3855 0.28593 0.0
H379 H 0.4886 0.46654 0.23236 0.0
C380 C 0.31137 0.44194 0.23969 0.0
C381 C 0.27911 0.42595 0.25344 0.0
C382 C 0.29205 0.39611 0.2691 0.0
C383 C 0.33714 0.38477 0.27179 0.0
C384 C 0.36855 0.40305 0.25849 0.0
C385 C 0.35582 0.43045 0.2425 0.0
C386 C 0.39536 0.45017 0.23167 0.0
C387 C 0.39823 0.43341 0.20945 0.0
C388 C 0.39422 0.50125 0.23249 0.0
C389 C 0.43257 0.43146 0.24457 0.0
C390 C 0.4169 0.40367 0.25979 0.0
C391 C 0.44547 0.3859 0.27462 0.0
C392 C 0.49073 0.39747 0.27402 0.0
C393 C 0.50661 0.42675 0.25881 0.0
C394 C 0.47727 0.44315 0.2438 0.0
H395 H 0.30566 0.72758 0.53406 0.0
H396 H 0.38738 0.76081 0.48173 0.0
H397 H 0.40741 0.68154 0.47773 0.0
H398 H 0.37416 0.63099 0.5533 0.0
H399 H 0.32475 0.60122 0.56023 0.0
H400 H 0.32556 0.66091 0.56164 0.0
H401 H 0.25651 0.66471 0.53801 0.0
H402 H 0.25558 0.60535 0.53648 0.0
H403 H 0.25822 0.63783 0.51332 0.0
H404 H 0.40656 0.59627 0.47567 0.0
H405 H 0.38417 0.51697 0.47591 0.0
H406 H 0.3031 0.54167 0.52939 0.0
C407 C 0.32906 0.71853 0.52219 0.0
C408 C 0.34508 0.75059 0.50829 0.0
C409 C 0.37511 0.73706 0.49277 0.0
C410 C 0.3866 0.69197 0.49036 0.0
C411 C 0.36836 0.66088 0.50378 0.0
C412 C 0.34069 0.67394 0.51959 0.0
C413 C 0.32086 0.63446 0.53046 0.0
C414 C 0.33733 0.63174 0.55273 0.0
C415 C 0.26981 0.63568 0.52949 0.0
C416 C 0.33972 0.59705 0.51768 0.0
C417 C 0.36786 0.6125 0.5026 0.0
C418 C 0.38549 0.58382 0.48776 0.0
C419 C 0.37289 0.53877 0.48804 0.0
C420 C 0.34255 0.52329 0.50287 0.0
C421 C 0.32711 0.5526 0.51816 0.0
H422 H 0.22737 0.55482 0.77449 0.0
H423 H 0.2436 0.63315 0.71953 0.0
H424 H 0.1638 0.65411 0.72084 0.0
H425 H 0.13177 0.50734 0.76104 0.0
H426 H 0.10713 0.50614 0.78619 0.0
H427 H 0.16628 0.50669 0.78363 0.0
H428 H 0.17067 0.577 0.80635 0.0
H429 H 0.11126 0.57653 0.80918 0.0
H430 H 0.13852 0.62539 0.79964 0.0
H431 H 0.07916 0.65484 0.72518 0.0
H432 H 1.00089 0.63408 0.73133 0.0
H433 H 0.04206 0.5543 0.78326 0.0
C434 C 0.21442 0.57801 0.76327 0.0
C435 C 0.24146 0.59329 0.74719 0.0
C436 C 0.22346 0.62219 0.73227 0.0
C437 C 0.17819 0.63404 0.73291 0.0
C438 C 0.1518 0.61694 0.74866 0.0
C439 C 0.16967 0.58992 0.76372 0.0
C440 C 0.1342 0.57089 0.77746 0.0
C441 C 0.1349 0.51978 0.77702 0.0
C442 C 0.13895 0.58852 0.79946 0.0
C443 C 0.09315 0.58939 0.76722 0.0
C444 C 0.10368 0.61673 0.75092 0.0
C445 C 0.0707 0.63425 0.73817 0.0
C446 C 0.02624 0.62244 0.74181 0.0
C447 C 0.01533 0.59273 0.75784 0.0
C448 C 0.04926 0.5774 0.77101 0.0
H449 H 0.17446 0.27345 0.9761 0.0
H450 H 0.14155 0.25285 0.03985 0.0
H451 H 0.11815 0.33158 0.04279 0.0
H452 H 0.22597 0.37088 0.98312 0.0
H453 H 0.20863 0.39673 0.95951 0.0
H454 H 0.21162 0.33744 0.9612 0.0
H455 H 0.12932 0.33194 0.95013 0.0
H456 H 0.1261 0.39154 0.94842 0.0
H457 H 0.0875 0.36178 0.9643 0.0
H458 H 0.11127 0.41554 0.04017 0.0
H459 H 0.12669 0.49471 0.03299 0.0
H460 H 0.1652 0.46011 0.97108 0.0
C461 C 0.16016 0.28514 0.99035 0.0
C462 C 0.15815 0.25698 0.00755 0.0
C463 C 0.14182 0.27373 0.02634 0.0
C464 C 0.12856 0.31841 0.02812 0.0
C465 C 0.13203 0.34592 0.01095 0.0
C466 C 0.14728 0.32968 0.99236 0.0
C467 C 0.15448 0.36684 0.97713 0.0
C468 C 0.20303 0.36803 0.96984 0.0
C469 C 0.12243 0.36278 0.95892 0.0
C470 C 0.14309 0.40672 0.99027 0.0
C471 C 0.12908 0.39417 0.00959 0.0
C472 C 0.12117 0.42567 0.02494 0.0
C473 C 0.12962 0.47071 0.0207 0.0
C474 C 0.14652 0.48363 1.00139 0.0
C475 C 0.15141 0.45129 0.98585 0.0
H476 H 0.52811 0.58171 0.77772 0.0
H477 H 0.51496 0.62443 0.71476 0.0
H478 H 0.59312 0.6495 0.71495 0.0
H479 H 0.61389 0.66641 0.79513 0.0
H480 H 0.64222 0.62488 0.81015 0.0
H481 H 0.58296 0.62221 0.80687 0.0
H482 H 0.59049 0.54215 0.79278 0.0
H483 H 0.64941 0.54458 0.79606 0.0
H484 H 0.62648 0.53174 0.77124 0.0
H485 H 0.67592 0.65711 0.72014 0.0
H486 H 0.75412 0.63934 0.72831 0.0
H487 H 0.71366 0.5886 0.78744 0.0
C488 C 0.54119 0.59857 0.76438 0.0
C489 C 0.5153 0.60291 0.74649 0.0
C490 C 0.53399 0.62239 0.72882 0.0
C491 C 0.57836 0.63664 0.72883 0.0
C492 C 0.60368 0.63074 0.7466 0.0
C493 C 0.58557 0.61212 0.76408 0.0
C494 C 0.62104 0.60196 0.77988 0.0
C495 C 0.61464 0.63059 0.79915 0.0
C496 C 0.6219 0.55219 0.78527 0.0
C497 C 0.6622 0.61559 0.76823 0.0
C498 C 0.65159 0.63344 0.74931 0.0
C499 C 0.68451 0.64415 0.7351 0.0
C500 C 0.72902 0.63436 0.73993 0.0
C501 C 0.74003 0.61321 0.75863 0.0
C502 C 0.70628 0.60571 0.77323 0.0
H503 H 0.68953 0.27249 0.52295 0.0
H504 H 0.64401 0.25818 0.46046 0.0
H505 H 0.61933 0.3369 0.46041 0.0
H506 H 0.60419 0.35727 0.54048 0.0
H507 H 0.64528 0.38592 0.55547 0.0
H508 H 0.64916 0.3267 0.55207 0.0
H509 H 0.72881 0.33531 0.5378 0.0
H510 H 0.72517 0.39422 0.54121 0.0
H511 H 0.73816 0.37168 0.51632 0.0
H512 H 0.61185 0.42047 0.4655 0.0
H513 H 0.62735 0.49891 0.47407 0.0
H514 H 0.67854 0.45789 0.53318 0.0
C515 C 0.67244 0.28555 0.50963 0.0
C516 C 0.66723 0.25924 0.49194 0.0
C517 C 0.64693 0.27766 0.47434 0.0
C518 C 0.6329 0.32231 0.47422 0.0
C519 C 0.63951 0.34796 0.49183 0.0
C520 C 0.65866 0.32995 0.50926 0.0
C521 C 0.66824 0.36534 0.5251 0.0
C522 C 0.64002 0.35839 0.54442 0.0
C523 C 0.71802 0.36671 0.53039 0.0
C524 C 0.65362 0.40644 0.51356 0.0
C525 C 0.63606 0.39589 0.4946 0.0
C526 C 0.62458 0.42897 0.4805 0.0
C527 C 0.63314 0.47359 0.48555 0.0
C528 C 0.65367 0.48459 0.5044 0.0
C529 C 0.66206 0.45058 0.51882 0.0
H530 H 0.8082 0.42142 0.28494 0.0
H531 H 0.76547 0.37957 0.22464 0.0
H532 H 0.84325 0.36303 0.21536 0.0
H533 H 0.895 0.47928 0.2705 0.0
H534 H 0.93205 0.46516 0.29121 0.0
H535 H 0.8733 0.46228 0.29501 0.0
H536 H 0.87996 0.37998 0.3059 0.0
H537 H 0.93917 0.38271 0.30249 0.0
H538 H 0.90758 0.34091 0.28929 0.0
H539 H 0.9256 0.3723 0.20972 0.0
H540 H 1.00402 0.39652 0.20995 0.0
H541 H 0.99404 0.42623 0.27464 0.0
C542 C 0.81503 0.40633 0.2702 0.0
C543 C 0.78072 0.4011 0.25563 0.0
C544 C 0.79099 0.38272 0.23623 0.0
C545 C 0.83526 0.37363 0.23078 0.0
C546 C 0.86873 0.38197 0.24508 0.0
C547 C 0.8589 0.39657 0.26468 0.0
C548 C 0.90071 0.40781 0.27647 0.0
C549 C 0.9002 0.4565 0.2837 0.0
C550 C 0.90724 0.37594 0.29461 0.0
C551 C 0.93549 0.40005 0.26011 0.0
C552 C 0.91654 0.38487 0.2421 0.0
C553 C 0.94108 0.38223 0.22396 0.0
C554 C 0.9856 0.39598 0.2242 0.0
C555 C 0.00541 0.41134 0.24251 0.0
C556 C 0.98023 0.41235 0.26072 0.0
H557 H 0.80486 0.54493 0.03683 0.0
H558 H 0.8833 0.5015 0.98501 0.0
H559 H 0.90825 0.57869 0.97948 0.0
H560 H 0.76294 0.6355 0.0158 0.0
H561 H 0.76385 0.67069 0.03814 0.0
H562 H 0.76164 0.61167 0.04115 0.0
H563 H 0.83256 0.61328 0.06354 0.0
H564 H 0.83482 0.67271 0.06076 0.0
H565 H 0.88201 0.63909 0.05381 0.0
H566 H 0.90763 0.66201 0.97423 0.0
H567 H 0.88684 0.7416 0.97189 0.0
H568 H 0.81341 0.73045 0.02848 0.0
C569 C 0.82903 0.55141 0.02495 0.0
C570 C 0.8426 0.51728 0.0115 0.0
C571 C 0.87331 0.527 0.99577 0.0
C572 C 0.88743 0.57087 0.99247 0.0
C573 C 0.87142 0.60433 0.00536 0.0
C574 C 0.8438 0.59476 0.02168 0.0
C575 C 0.82692 0.63667 0.03188 0.0
C576 C 0.77586 0.63872 0.03171 0.0
C577 C 0.84519 0.64067 0.0538 0.0
C578 C 0.84683 0.67143 0.01797 0.0
C579 C 0.8729 0.65236 0.00287 0.0
C580 C 0.88894 0.67746 0.98647 0.0
C581 C 0.87719 0.72266 0.98526 0.0
C582 C 0.85023 0.74226 1.00049 0.0
C583 C 0.83598 0.71656 0.01725 0.0
H584 H 0.78853 0.93737 0.77085 0.0
H585 H 0.76729 0.89236 0.70872 0.0
H586 H 0.84622 0.86909 0.70655 0.0
H587 H 0.88463 0.988 0.76215 0.0
H588 H 0.9109 0.9749 0.78624 0.0
H589 H 0.85162 0.97689 0.78458 0.0
H590 H 0.84697 0.8965 0.7984 0.0
H591 H 0.90656 0.89431 0.80022 0.0
H592 H 0.87732 0.85279 0.78572 0.0
H593 H 0.93064 0.8649 0.70921 0.0
H594 H 0.00953 0.88222 0.7159 0.0
H595 H 0.9744 0.92978 0.77645 0.0
C596 C 0.80012 0.92046 0.7572 0.0
C597 C 0.77183 0.91522 0.74018 0.0
C598 C 0.78828 0.89517 0.72213 0.0
C599 C 0.8331 0.88206 0.72079 0.0
C600 C 0.86079 0.88911 0.73769 0.0
C601 C 0.84456 0.9074 0.75567 0.0
C602 C 0.88155 0.91758 0.7706 0.0
C603 C 0.8822 0.96726 0.77619 0.0
C604 C 0.87787 0.88855 0.78988 0.0
C605 C 0.92144 0.90454 0.75789 0.0
C606 C 0.90905 0.88722 0.73911 0.0
C607 C 0.94061 0.87739 0.72406 0.0
C608 C 0.98549 0.88709 0.72802 0.0
C609 C 0.99825 0.90706 0.74676 0.0
C610 C 0.96584 0.91399 0.76208 0.0
H611 H 0.79865 0.04192 0.97179 0.0
H612 H 0.87531 1.00268 0.02499 0.0
H613 H 0.89516 0.08131 0.03103 0.0
H614 H 0.86923 0.13988 0.95604 0.0
H615 H 0.82045 0.17065 0.94864 0.0
H616 H 0.82172 0.11116 0.94594 0.0
H617 H 0.75025 0.10564 0.96776 0.0
H618 H 0.74897 0.16475 0.97072 0.0
H619 H 0.74931 0.12965 0.99308 0.0
H620 H 0.89298 0.16588 0.03514 0.0
H621 H 0.87105 0.24552 0.03593 0.0
H622 H 0.796 0.22747 0.98007 0.0
C623 C 0.8211 0.04965 0.98424 0.0
C624 C 0.8357 0.01622 0.99783 0.0
C625 C 0.8644 0.02767 0.01417 0.0
C626 C 0.87564 0.07233 0.01775 0.0
C627 C 0.85857 0.10488 0.00463 0.0
C628 C 0.83254 0.09374 0.98794 0.0
C629 C 0.81363 0.13442 0.97752 0.0
C630 C 0.8324 0.13931 0.95574 0.0
C631 C 0.76255 0.13353 0.97728 0.0
C632 C 0.83097 0.17027 0.99153 0.0
C633 C 0.85755 0.153 0.0069 0.0
C634 C 0.87332 0.1798 0.02282 0.0
C635 C 0.86087 0.22494 0.02318 0.0
C636 C 0.8328 0.24241 0.00779 0.0
C637 C 0.81858 0.21493 0.99165 0.0
H638 H 0.52497 0.04766 0.22861 0.0
H639 H 0.50623 0.13283 0.28125 0.0
H640 H 0.58568 0.15448 0.27963 0.0
H641 H 0.62346 0.00402 0.24312 0.0
H642 H 0.64706 1.00049 0.21779 0.0
H643 H 0.58805 0.99955 0.22094 0.0
H644 H 0.58036 0.06671 0.19634 0.0
H645 H 0.63969 0.06795 0.1932 0.0
H646 H 0.61047 0.11692 0.20163 0.0
H647 H 0.67051 0.15641 0.27517 0.0
H648 H 0.74934 0.13572 0.26958 0.0
H649 H 0.71015 0.05017 0.21955 0.0
C650 C 0.53737 0.0721 0.23933 0.0
C651 C 0.50976 0.08927 0.25482 0.0
C652 C 0.52696 0.1201 0.26903 0.0
C653 C 0.57196 0.1325 0.26817 0.0
C654 C 0.59885 0.11406 0.25287 0.0
C655 C 0.58178 0.08477 0.23859 0.0
C656 C 0.61769 0.06535 0.22513 0.0
C657 C 0.61915 0.01438 0.22688 0.0
C658 C 0.61169 0.08014 0.20275 0.0
C659 C 0.65814 0.08642 0.23463 0.0
C660 C 0.64691 0.1152 0.25033 0.0
C661 C 0.6795 0.1348 0.26258 0.0
C662 C 0.72428 0.12322 0.25921 0.0
C663 C 0.73575 0.0919 0.24393 0.0
C664 C 0.70231 0.07491 0.23105 0.0
H665 H 0.69587 0.76993 0.47625 0.0
H666 H 0.62246 0.75981 0.5329 0.0
H667 H 0.60165 0.83943 0.53023 0.0
H668 H 0.7453 0.86601 0.48782 0.0
H669 H 0.74579 0.88885 0.46228 0.0
H670 H 0.74441 0.8299 0.46579 0.0
H671 H 0.67313 0.82535 0.4437 0.0
H672 H 0.67436 0.8846 0.44007 0.0
H673 H 0.62556 0.85867 0.4504 0.0
H674 H 0.60002 0.92292 0.52417 0.0
H675 H 0.62261 1.00034 0.51725 0.0
H676 H 0.70001 0.95522 0.46534 0.0
C677 C 0.67353 0.78411 0.4875 0.0
C678 C 0.65929 0.75873 0.50436 0.0
C679 C 0.63229 0.77858 0.51951 0.0
C680 C 0.62046 0.82375 0.51809 0.0
C681 C 0.63621 0.84847 0.50149 0.0
C682 C 0.66212 0.82907 0.48642 0.0
C683 C 0.68105 0.86347 0.47202 0.0
C684 C 0.73212 0.86196 0.472 0.0
C685 C 0.66239 0.85767 0.45026 0.0
C686 C 0.66364 0.90554 0.48184 0.0
C687 C 0.63677 0.8964 0.49846 0.0
C688 C 0.62025 0.93035 0.51093 0.0
C689 C 0.63299 0.97435 0.50681 0.0
C690 C 0.6627 0.98382 0.49063 0.0
C691 C 0.67668 0.94904 0.47761 0.0
H692 H 0.04068 0.05173 0.21294 0.0
H693 H 0.99286 0.14031 0.26047 0.0
H694 H 0.06917 0.16688 0.26614 0.0
H695 H 0.13194 0.01623 0.23763 0.0
H696 H 0.16777 0.01292 0.21559 0.0
H697 H 0.10896 0.00824 0.21238 0.0
H698 H 0.10971 0.07345 0.18649 0.0
H699 H 0.16884 0.07832 0.18966 0.0
H700 H 0.1335 0.12577 0.19391 0.0
H701 H 0.1525 0.17038 0.27208 0.0
H702 H 0.23268 0.15306 0.27586 0.0
H703 H 0.22558 0.06681 0.22304 0.0
C704 C 0.04593 0.07797 0.224 0.0
C705 C 0.01055 0.09399 0.23617 0.0
C706 C 0.01915 0.12782 0.25073 0.0
C707 C 0.06255 0.14309 0.25411 0.0
C708 C 0.09703 0.12502 0.2425 0.0
C709 C 0.08892 0.09384 0.2274 0.0
C710 C 0.13175 0.07609 0.21845 0.0
C711 C 0.13529 0.02541 0.2212 0.0
C712 C 0.1362 0.08921 0.19578 0.0
C713 C 0.16528 0.10025 0.23158 0.0
C714 C 0.14487 0.12877 0.24528 0.0
C715 C 0.16897 0.14955 0.2609 0.0
C716 C 0.21456 0.1399 0.26289 0.0
C717 C 0.23548 0.11019 0.24919 0.0
C718 C 0.21068 0.09139 0.23305 0.0
H719 H 0.17321 0.95816 0.03624 0.0
H720 H 0.11309 0.99697 0.97864 0.0
H721 H 0.0936 0.91867 0.97191 0.0
H722 H 0.22614 0.86918 0.0191 0.0
H723 H 0.21906 0.83419 0.04125 0.0
H724 H 0.2176 0.89333 0.0441 0.0
H725 H 0.14004 0.88893 0.06087 0.0
H726 H 0.14142 0.8294 0.05835 0.0
H727 H 0.09582 0.86067 0.04774 0.0
H728 H 0.09888 0.83537 0.96751 0.0
H729 H 0.12205 0.7564 0.96746 0.0
H730 H 0.17529 0.77141 0.02861 0.0
C731 C 0.15391 0.95045 0.0227 0.0
C732 C 0.14415 0.98378 0.00809 0.0
C733 C 0.11997 0.97226 0.99028 0.0
C734 C 0.10909 0.9277 0.98628 0.0
C735 C 0.12173 0.89519 1.00045 0.0
C736 C 0.14262 0.90631 0.0186 0.0
C737 C 0.15759 0.86527 0.0302 0.0
C738 C 0.20806 0.86554 0.03385 0.0
C739 C 0.13219 0.86081 0.05049 0.0
C740 C 0.14436 0.82927 0.01522 0.0
C741 C 0.12321 0.84705 0.99823 0.0
C742 C 0.11372 0.82095 0.98108 0.0
C743 C 0.12687 0.77609 0.98117 0.0
C744 C 0.1487 0.75757 0.99836 0.0
C745 C 0.15659 0.78432 0.01572 0.0
H746 H 0.48118 0.93516 0.77217 0.0
H747 H 0.50116 0.89829 0.70879 0.0
H748 H 0.42313 0.87305 0.70664 0.0
H749 H 0.39655 0.84669 0.78563 0.0
H750 H 0.36593 0.88545 0.80125 0.0
H751 H 0.42527 0.89018 0.79907 0.0
H752 H 0.4164 0.97165 0.78703 0.0
H753 H 0.35737 0.96717 0.78922 0.0
H754 H 0.38168 0.98377 0.7652 0.0
H755 H 0.33952 0.86467 0.70987 0.0
H756 H 0.26026 0.87894 0.7173 0.0
H757 H 0.29529 0.92149 0.77861 0.0
C758 C 0.46954 0.91972 0.75818 0.0
C759 C 0.4973 0.91713 0.74085 0.0
C760 C 0.48062 0.89912 0.7224 0.0
C761 C 0.43634 0.88479 0.72107 0.0
C762 C 0.40922 0.88879 0.73835 0.0
C763 C 0.42545 0.90563 0.75662 0.0
C764 C 0.38858 0.91276 0.77203 0.0
C765 C 0.39444 0.88192 0.79059 0.0
C766 C 0.38585 0.96172 0.77874 0.0
C767 C 0.34873 0.8995 0.75932 0.0
C768 C 0.36117 0.88469 0.7401 0.0
C769 C 0.32953 0.87518 0.72505 0.0
C770 C 0.28441 0.88298 0.72944 0.0
C771 C 0.27146 0.90079 0.74862 0.0
C772 C 0.30406 0.90704 0.76394 0.0
H773 H 0.34213 0.23593 0.51704 0.0
H774 H 0.34889 0.2524 0.45129 0.0
H775 H 0.37295 0.17409 0.44758 0.0
H776 H 0.43219 0.14806 0.52321 0.0
H777 H 0.39962 0.119 0.54201 0.0
H778 H 0.39562 0.17852 0.53998 0.0
H779 H 0.31061 0.17261 0.53508 0.0
H780 H 0.3144 0.11344 0.53722 0.0
H781 H 0.2891 0.13801 0.51487 0.0
H782 H 0.38389 0.09114 0.45062 0.0
H783 H 0.3707 0.01242 0.4594 0.0
H784 H 0.3515 0.04912 0.52287 0.0
C785 C 0.35102 0.22351 0.502 0.0
C786 C 0.34554 0.25049 0.4845 0.0
C787 C 0.35443 0.23255 0.4649 0.0
C788 C 0.36812 0.18811 0.46269 0.0
C789 C 0.37205 0.16177 0.48024 0.0
C790 C 0.36348 0.17891 0.49955 0.0
C791 C 0.3617 0.1424 0.5155 0.0
C792 C 0.39955 0.1473 0.5311 0.0
C793 C 0.31627 0.14157 0.52627 0.0
C794 C 0.36862 0.10185 0.5021 0.0
C795 C 0.37609 0.11365 0.48191 0.0
C796 C 0.37913 0.0816 0.46646 0.0
C797 C 0.37213 0.03679 0.47159 0.0
C798 C 0.36134 0.02462 0.4919 0.0
C799 C 0.36135 0.05742 0.50738 0.0
H800 H 0.24549 0.66331 0.24428 0.0
H801 H 0.13227 0.68703 0.28403 0.0
H802 H 0.14021 0.76742 0.27877 0.0
H803 H 0.3094 0.75667 0.26091 0.0
H804 H 0.33113 0.76736 0.23567 0.0
H805 H 0.31599 0.71189 0.24284 0.0
H806 H 0.26413 0.70808 0.21113 0.0
H807 H 0.27815 0.76413 0.20424 0.0
H808 H 0.221 0.7491 0.20803 0.0
H809 H 0.16073 0.84469 0.26965 0.0
H810 H 0.19872 0.9144 0.26076 0.0
H811 H 0.29637 0.84005 0.22593 0.0
C812 C 0.2227 0.68535 0.25212 0.0
C813 C 0.18838 0.66883 0.26461 0.0
C814 C 0.1591 0.69888 0.2745 0.0
C815 C 0.16298 0.74459 0.27144 0.0
C816 C 0.19616 0.75958 0.25842 0.0
C817 C 0.22591 0.73097 0.24917 0.0
C818 C 0.25946 0.75571 0.23642 0.0
C819 C 0.30678 0.74744 0.24445 0.0
C820 C 0.25541 0.74352 0.2136 0.0
C821 C 0.24441 0.80282 0.24027 0.0
C822 C 0.20748 0.80428 0.25279 0.0
C823 C 0.18938 0.84409 0.25969 0.0
C824 C 0.211 0.88342 0.2545 0.0
C825 C 0.25007 0.88238 0.24252 0.0
C826 C 0.26587 0.84178 0.23465 0.0
H827 H 0.10658 0.50597 0.50002 0.0
H828 H 0.08664 0.40113 0.54474 0.0
H829 H 0.00589 0.4114 0.54183 0.0
H830 H 0.01413 0.57629 0.51657 0.0
H831 H 1.0011 0.59293 0.49071 0.0
H832 H 0.05727 0.57903 0.49753 0.0
H833 H 0.05896 0.52112 0.46814 0.0
H834 H 1.00232 0.53393 0.46164 0.0
H835 H 0.01815 0.47769 0.4676 0.0
H836 H 0.92788 0.42952 0.53257 0.0
H837 H 0.85693 0.46294 0.52175 0.0
H838 H 0.92774 0.55515 0.48271 0.0
C839 C 0.08535 0.48584 0.50958 0.0
C840 C 0.10301 0.45275 0.52261 0.0
C841 C 0.07398 0.42693 0.53475 0.0
C842 C 0.02803 0.43216 0.53305 0.0
C843 C 0.01178 0.46351 0.51927 0.0
C844 C 0.03947 0.4906 0.50809 0.0
C845 C 0.01347 0.52167 0.49433 0.0
C846 C 0.02198 0.57035 0.50015 0.0
C847 C 0.02386 0.51306 0.47158 0.0
C848 C 0.96677 0.50778 0.49958 0.0
C849 C 0.96661 0.47388 0.51384 0.0
C850 C 0.9275 0.45616 0.52146 0.0
C851 C 0.88741 0.47516 0.51512 0.0
C852 C 0.88691 0.51152 0.50136 0.0
C853 C 0.92705 0.52692 0.49296 0.0
H854 H 0.26474 0.35413 0.73765 0.0
H855 H 0.3511 0.3407 0.79074 0.0
H856 H 0.33611 0.26086 0.79182 0.0
H857 H 0.18288 0.27375 0.75464 0.0
H858 H 0.17312 0.25313 0.7291 0.0
H859 H 0.18983 0.30977 0.73284 0.0
H860 H 0.25611 0.2969 0.70822 0.0
H861 H 0.2401 0.23994 0.70476 0.0
H862 H 0.29516 0.25296 0.71356 0.0
H863 H 0.31478 0.18271 0.78663 0.0
H864 H 0.28039 0.11125 0.77792 0.0
H865 H 0.20754 0.17508 0.72843 0.0
C866 C 0.27996 0.33454 0.74968 0.0
C867 C 0.30914 0.35371 0.76405 0.0
C868 C 0.32855 0.32685 0.77953 0.0
C869 C 0.32052 0.28136 0.78024 0.0
C870 C 0.29277 0.26331 0.76548 0.0
C871 C 0.27214 0.289 0.75071 0.0
C872 C 0.24333 0.26111 0.73684 0.0
C873 C 0.1944 0.27528 0.73846 0.0
C874 C 0.25968 0.26284 0.71453 0.0
C875 C 0.25115 0.21585 0.74619 0.0
C876 C 0.28008 0.21788 0.76256 0.0
C877 C 0.29194 0.18055 0.77387 0.0
C878 C 0.27238 0.14012 0.76874 0.0
C879 C 0.24122 0.13761 0.75253 0.0
C880 C 0.23142 0.17583 0.74083 0.0
H881 H 0.60142 0.50644 0.01133 0.0
H882 H 0.60178 0.44782 0.95044 0.0
H883 H 0.52216 0.46381 0.94711 0.0
H884 H 0.50229 0.46364 0.02728 0.0
H885 H 0.48318 0.5118 0.04111 0.0
H886 H 0.54165 0.50196 0.03805 0.0
H887 H 0.55157 0.57921 0.02124 0.0
H888 H 0.49335 0.58986 0.02493 0.0
H889 H 0.51727 0.59459 0.99972 0.0
H890 H 0.44154 0.47625 0.95217 0.0
H891 H 0.3661 0.49764 0.96271 0.0
H892 H 0.41827 0.54902 0.0201 0.0
C893 C 0.58516 0.4983 0.99702 0.0
C894 C 0.60782 0.47562 0.98122 0.0
C895 C 0.58514 0.46513 0.9628 0.0
C896 C 0.53983 0.47386 0.96077 0.0
C897 C 0.51795 0.49366 0.97716 0.0
C898 C 0.53996 0.50694 0.99469 0.0
C899 C 0.50821 0.52615 0.01031 0.0
C900 C 0.5089 0.49926 0.03037 0.0
C901 C 0.5182 0.57537 0.01427 0.0
C902 C 0.46488 0.52044 0.999 0.0
C903 C 0.47125 0.5015 0.97995 0.0
C904 C 0.43609 0.49177 0.96692 0.0
C905 C 0.39332 0.50362 0.97316 0.0
C906 C 0.38626 0.52519 0.9922 0.0
C907 C 0.42251 0.53262 0.00545 0.0
H908 H 0.80456 0.3385 0.72827 0.0
H909 H 0.72005 0.39966 0.77428 0.0
H910 H 0.69202 0.32613 0.784 0.0
H911 H 0.72612 0.24992 0.71348 0.0
H912 H 0.77006 0.20994 0.71002 0.0
H913 H 0.78032 0.2679 0.7055 0.0
H914 H 0.84569 0.26454 0.73132 0.0
H915 H 0.83476 0.20694 0.73641 0.0
H916 H 0.83567 0.24629 0.7572 0.0
H917 H 0.68002 0.24711 0.79161 0.0
H918 H 0.67177 0.16631 0.79204 0.0
H919 H 0.76177 0.15515 0.74024 0.0
C920 C 0.77906 0.33659 0.7399 0.0
C921 C 0.76449 0.37479 0.75054 0.0
C922 C 0.73169 0.37081 0.76594 0.0
C923 C 0.7158 0.3292 0.77168 0.0
C924 C 0.73279 0.29205 0.76174 0.0
C925 C 0.76274 0.29524 0.74582 0.0
C926 C 0.77603 0.24979 0.73796 0.0
C927 C 0.76229 0.24405 0.7154 0.0
C928 C 0.82599 0.24142 0.7409 0.0
C929 C 0.74885 0.22068 0.75203 0.0
C930 C 0.72483 0.2459 0.76582 0.0
C931 C 0.69816 0.22691 0.78074 0.0
C932 C 0.69413 0.18083 0.78096 0.0
C933 C 0.71603 0.15427 0.76611 0.0
C934 C 0.74466 0.17451 0.75179 0.0
H935 H 0.75433 0.85531 0.24889 0.0
H936 H 0.8602 0.83794 0.29346 0.0
H937 H 0.85485 0.75705 0.28954 0.0
H938 H 0.69002 0.75723 0.26422 0.0
H939 H 0.67413 0.7457 0.23813 0.0
H940 H 0.6842 0.80192 0.24606 0.0
H941 H 0.74143 0.80953 0.21662 0.0
H942 H 0.73285 0.75274 0.20913 0.0
H943 H 0.78776 0.77168 0.21541 0.0
H944 H 0.8421 0.67884 0.27901 0.0
H945 H 0.81268 0.60691 0.26736 0.0
H946 H 0.71657 0.67546 0.22912 0.0
C947 C 0.77551 0.83456 0.2583 0.0
C948 C 0.80774 0.85307 0.27143 0.0
C949 C 0.83505 0.82464 0.28336 0.0
C950 C 0.83265 0.7786 0.28108 0.0
C951 C 0.80248 0.76166 0.26701 0.0
C952 C 0.77357 0.7886 0.25624 0.0
C953 C 0.74441 0.76194 0.242 0.0
C954 C 0.6953 0.76698 0.24797 0.0
C955 C 0.7521 0.77476 0.21946 0.0
C956 C 0.76163 0.71577 0.24643 0.0
C957 C 0.7954 0.71643 0.26076 0.0
C958 C 0.81561 0.6778 0.26782 0.0
C959 C 0.799 0.63719 0.26098 0.0
C960 C 0.76264 0.63578 0.24725 0.0
C961 C 0.74503 0.67557 0.23925 0.0
H962 H 0.59883 0.99376 0.98676 0.0
H963 H 0.58798 0.9149 0.04235 0.0
H964 H 0.50755 0.92625 0.04232 0.0
H965 H 0.51114 0.07423 1.0013 0.0
H966 H 0.49187 0.07981 0.97526 0.0
H967 H 0.54928 0.06736 0.98027 0.0
H968 H 0.54312 0.99802 0.95695 0.0
H969 H 0.48532 0.00947 0.9524 0.0
H970 H 0.50217 0.95649 0.96263 0.0
H971 H 0.4288 0.93925 0.03487 0.0
H972 H 0.35554 0.96752 0.02465 0.0
H973 H 0.41599 0.04099 0.97474 0.0
C974 C 0.5797 0.97982 0.99921 0.0
C975 C 0.59984 0.95309 0.01443 0.0
C976 C 0.5735 0.93538 0.03044 0.0
C977 C 0.52763 0.9413 0.03051 0.0
C978 C 0.50864 0.9657 0.0147 0.0
C979 C 0.53371 0.98591 0.9997 0.0
C980 C 0.50454 0.0112 0.98476 0.0
C981 C 0.51481 0.0611 0.98545 0.0
C982 C 0.50908 0.99267 0.9629 0.0
C983 C 0.45925 1.00136 0.99363 0.0
C984 C 0.46258 0.97454 0.01073 0.0
C985 C 0.42565 0.96071 0.02165 0.0
C986 C 0.38417 0.97672 0.01563 0.0
C987 C 0.38009 0.00661 0.99896 0.0
C988 C 0.418 0.01784 0.9874 0.0
H989 H 0.08202 0.94931 0.47177 0.0
H990 H 0.14197 0.03308 0.51837 0.0
H991 H 0.06813 0.05438 0.53064 0.0
H992 H 0.98866 0.02555 0.46102 0.0
H993 H 0.95053 0.98067 0.45673 0.0
H994 H 0.0085 0.97329 0.45112 0.0
H995 H 0.00978 0.90431 0.47486 0.0
H996 H 0.95222 0.91247 0.48115 0.0
H997 H 0.99314 0.91 0.50126 0.0
H998 H 0.9901 0.0595 0.54074 0.0
H999 H 0.90935 0.0671 0.54201 0.0
H1000 H 0.89778 0.98557 0.48726 0.0
C1001 C 0.07964 0.97308 0.48418 0.0
C1002 C 0.11788 0.98899 0.49428 0.0
C1003 C 0.11325 0.02005 0.51048 0.0
C1004 C 0.07144 0.03207 0.51773 0.0
C1005 C 0.03461 0.01349 0.50836 0.0
C1006 C 0.03799 0.98609 0.49146 0.0
C1007 C 0.99259 0.97232 0.48388 0.0
C1008 C 0.9846 0.98897 0.46188 0.0
C1009 C 0.98661 0.92179 0.48538 0.0
C1010 C 0.96342 0.99644 0.49921 0.0
C1011 C 0.98864 0.01882 0.5135 0.0
C1012 C 0.96981 0.04274 0.52949 0.0
C1013 C 0.92377 0.04641 0.53017 0.0
C1014 C 0.89717 0.02727 0.5146 0.0
C1015 C 0.91724 1.00056 0.49936 0.0
H1016 H 0.16895 0.413 0.32811 0.0
H1017 H 0.10011 0.53774 0.33893 0.0
H1018 H 0.11252 0.52961 0.3759 0.0
H1019 H 0.12841 0.35668 0.37487 0.0
H1020 H 0.18025 0.32849 0.37953 0.0
H1021 H 0.1639 0.34204 0.35368 0.0
H1022 H 0.23757 0.38411 0.34848 0.0
H1023 H 0.25403 0.37096 0.37434 0.0
H1024 H 0.25229 0.42791 0.36599 0.0
H1025 H 0.13628 0.51255 0.41081 0.0
H1026 H 0.16674 0.48483 0.44319 0.0
H1027 H 0.21946 0.36891 0.41182 0.0
C1028 C 0.15588 0.43819 0.33831 0.0
C1029 C 0.13354 0.47611 0.33048 0.0
C1030 C 0.11744 0.50851 0.34439 0.0
C1031 C 0.12426 0.5042 0.36549 0.0
C1032 C 0.14711 0.46716 0.37265 0.0
C1033 C 0.1624 0.43439 0.35963 0.0
C1034 C 0.18708 0.39868 0.37168 0.0
C1035 C 0.16349 0.35381 0.36983 0.0
C1036 C 0.23562 0.39523 0.3647 0.0
C1037 C 0.1837 0.41706 0.39337 0.0
C1038 C 0.16047 0.45666 0.39336 0.0
C1039 C 0.15422 0.4814 0.41109 0.0
C1040 C 0.17202 0.46539 0.42943 0.0
C1041 C 0.19572 0.42469 0.43013 0.0
C1042 C 0.20132 0.39996 0.41181 0.0
H1043 H 0.30201 0.45533 0.67349 0.0
H1044 H 0.44509 0.46506 0.66841 0.0
H1045 H 0.44053 0.44052 0.63234 0.0
H1046 H 0.29001 0.35743 0.64302 0.0
H1047 H 0.23893 0.37512 0.63117 0.0
H1048 H 0.25308 0.39448 0.65647 0.0
H1049 H 0.24529 0.47591 0.6443 0.0
H1050 H 0.23065 0.4568 0.61903 0.0
H1051 H 0.27638 0.49436 0.62234 0.0
H1052 H 0.42051 0.41381 0.59688 0.0
H1053 H 0.3865 0.39056 0.56425 0.0
H1054 H 0.25628 0.39752 0.59237 0.0
C1055 C 0.33244 0.45271 0.66479 0.0
C1056 C 0.37398 0.46234 0.6739 0.0
C1057 C 0.41288 0.45809 0.66188 0.0
C1058 C 0.41063 0.444 0.64136 0.0
C1059 C 0.36926 0.43418 0.633 0.0
C1060 C 0.33083 0.4386 0.64431 0.0
C1061 C 0.29054 0.42588 0.63168 0.0
C1062 C 0.26675 0.38584 0.64115 0.0
C1063 C 0.25885 0.46561 0.62919 0.0
C1064 C 0.31229 0.41368 0.61148 0.0
C1065 C 0.35774 0.41859 0.61261 0.0
C1066 C 0.38496 0.40985 0.59584 0.0
C1067 C 0.36525 0.39653 0.57734 0.0
C1068 C 0.31861 0.39197 0.57563 0.0
C1069 C 0.292 0.40022 0.59312 0.0
H1070 H 0.37214 0.60873 0.83246 0.0
H1071 H 0.29229 0.49269 0.81973 0.0
H1072 H 0.24792 0.50719 0.85064 0.0
H1073 H 0.37786 0.58999 0.88629 0.0
H1074 H 0.37566 0.64769 0.89345 0.0
H1075 H 0.39799 0.63181 0.86893 0.0
H1076 H 0.34191 0.68419 0.85093 0.0
H1077 H 0.31907 0.6998 0.87545 0.0
H1078 H 0.28348 0.67781 0.85574 0.0
H1079 H 0.21507 0.53001 0.88332 0.0
H1080 H 0.20069 0.55505 0.91861 0.0
H1081 H 0.30224 0.65543 0.91242 0.0
C1082 C 0.34499 0.58682 0.83617 0.0
C1083 C 0.33555 0.54957 0.82372 0.0
C1084 C 0.30026 0.52118 0.82915 0.0
C1085 C 0.27455 0.52939 0.84656 0.0
C1086 C 0.28469 0.566 0.85863 0.0
C1087 C 0.31936 0.59401 0.85394 0.0
C1088 C 0.32558 0.62821 0.87086 0.0
C1089 C 0.37202 0.62416 0.88045 0.0
C1090 C 0.31699 0.6753 0.86275 0.0
C1091 C 0.28967 0.61424 0.88588 0.0
C1092 C 0.26601 0.57883 0.87818 0.0
C1093 C 0.23299 0.55802 0.88947 0.0
C1094 C 0.22497 0.57255 0.90949 0.0
C1095 C 0.24988 0.6075 0.91816 0.0
C1096 C 0.28182 0.62949 0.90598 0.0
H1097 H 0.16041 0.60192 0.07848 0.0
H1098 H 0.30419 0.59951 0.08232 0.0
H1099 H 0.29942 0.57729 0.11847 0.0
H1100 H 0.14198 0.64609 0.12991 0.0
H1101 H 0.0933 0.61317 0.13446 0.0
H1102 H 0.10745 0.62943 0.10872 0.0
H1103 H 0.10667 0.54708 0.09752 0.0
H1104 H 0.09296 0.53052 0.12328 0.0
H1105 H 0.14116 0.50751 0.11084 0.0
H1106 H 0.28056 0.55303 0.15337 0.0
H1107 H 0.24874 0.53409 0.18672 0.0
H1108 H 0.11611 0.55313 0.16207 0.0
C1109 C 0.19089 0.5971 0.08697 0.0
C1110 C 0.23276 0.60251 0.07739 0.0
C1111 C 0.27173 0.59569 0.08914 0.0
C1112 C 0.26941 0.58287 0.10974 0.0
C1113 C 0.22786 0.57709 0.11856 0.0
C1114 C 0.18922 0.58441 0.10773 0.0
C1115 C 0.14896 0.57616 0.12125 0.0
C1116 C 0.12129 0.61875 0.12373 0.0
C1117 C 0.12077 0.53805 0.11271 0.0
C1118 C 0.1712 0.56304 0.14132 0.0
C1119 C 0.21675 0.5636 0.1392 0.0
C1120 C 0.24495 0.55274 0.15529 0.0
C1121 C 0.22635 0.54195 0.17424 0.0
C1122 C 0.17974 0.54224 0.17722 0.0
C1123 C 0.15177 0.55236 0.16035 0.0
H1124 H 0.77272 0.54419 0.58471 0.0
H1125 H 0.79576 0.68629 0.58551 0.0
H1126 H 0.82371 0.68041 0.62096 0.0
H1127 H 0.7374 0.53489 0.63818 0.0
H1128 H 0.76415 0.48184 0.64161 0.0
H1129 H 0.74375 0.49777 0.6167 0.0
H1130 H 0.82186 0.48416 0.60145 0.0
H1131 H 0.84272 0.46897 0.62637 0.0
H1132 H 0.86876 0.5129 0.61212 0.0
H1133 H 0.85364 0.65874 0.65511 0.0
H1134 H 0.87608 0.62439 0.68765 0.0
H1135 H 0.8329 0.49595 0.6652 0.0
C1136 C 0.78297 0.57426 0.59242 0.0
C1137 C 0.78201 0.61578 0.58227 0.0
C1138 C 0.79593 0.65418 0.59294 0.0
C1139 C 0.81212 0.65114 0.61305 0.0
C1140 C 0.81391 0.60953 0.6223 0.0
C1141 C 0.7991 0.57186 0.6125 0.0
C1142 C 0.80495 0.53113 0.6259 0.0
C1143 C 0.75988 0.51019 0.6309 0.0
C1144 C 0.83645 0.4973 0.61585 0.0
C1145 C 0.82573 0.55179 0.64475 0.0
C1146 C 0.83078 0.59701 0.64223 0.0
C1147 C 0.84951 0.62345 0.65734 0.0
C1148 C 0.86229 0.60346 0.67578 0.0
C1149 C 0.85614 0.55736 0.67909 0.0
C1150 C 0.83826 0.53114 0.66316 0.0
H1151 H 0.72369 0.52926 0.33329 0.0
H1152 H 0.58819 0.57824 0.33041 0.0
H1153 H 0.59571 0.60791 0.36549 0.0
H1154 H 0.72126 0.49644 0.38668 0.0
H1155 H 0.77768 0.51298 0.39137 0.0
H1156 H 0.76122 0.49503 0.36617 0.0
H1157 H 0.79005 0.56885 0.35101 0.0
H1158 H 0.80593 0.58736 0.37623 0.0
H1159 H 0.76903 0.62072 0.36083 0.0
H1160 H 0.61826 0.63409 0.40011 0.0
H1161 H 0.65144 0.6487 0.43385 0.0
H1162 H 0.77267 0.58251 0.41475 0.0
C1163 C 0.69538 0.54585 0.34006 0.0
C1164 C 0.65527 0.55141 0.32903 0.0
C1165 C 0.61914 0.57337 0.33853 0.0
C1166 C 0.6232 0.59061 0.35841 0.0
C1167 C 0.66352 0.5855 0.36859 0.0
C1168 C 0.69881 0.56318 0.35989 0.0
C1169 C 0.7383 0.56179 0.37431 0.0
C1170 C 0.7503 0.51371 0.37997 0.0
C1171 C 0.77818 0.58614 0.36503 0.0
C1172 C 0.71963 0.58678 0.39254 0.0
C1173 C 0.67655 0.6004 0.38877 0.0
C1174 C 0.65188 0.62348 0.40327 0.0
C1175 C 0.67114 0.63166 0.42239 0.0
C1176 C 0.71469 0.61669 0.42697 0.0
C1177 C 0.73958 0.59481 0.41164 0.0
H1178 H 0.71019 0.46327 0.07844 0.0
H1179 H 0.68772 0.32122 0.08114 0.0
H1180 H 0.66863 0.32794 0.11783 0.0
H1181 H 0.76039 0.47319 0.12824 0.0
H1182 H 0.73536 0.52633 0.13356 0.0
H1183 H 0.74681 0.51035 0.10749 0.0
H1184 H 0.66448 0.52383 0.09799 0.0
H1185 H 0.65267 0.53959 0.12407 0.0
H1186 H 0.62176 0.4956 0.11212 0.0
H1187 H 0.65114 0.35006 0.15387 0.0
H1188 H 0.64038 0.38498 0.18755 0.0
H1189 H 0.6753 0.51292 0.1617 0.0
C1190 C 0.70129 0.43348 0.08671 0.0
C1191 C 0.70037 0.39166 0.07686 0.0
C1192 C 0.68876 0.35357 0.08832 0.0
C1193 C 0.67771 0.35708 0.10915 0.0
C1194 C 0.6786 0.39885 0.11829 0.0
C1195 C 0.69038 0.43634 0.1075 0.0
C1196 C 0.68946 0.47717 0.12107 0.0
C1197 C 0.73576 0.49797 0.12269 0.0
C1198 C 0.65503 0.51104 0.11335 0.0
C1199 C 0.67534 0.45675 0.14123 0.0
C1200 C 0.66902 0.41159 0.13921 0.0
C1201 C 0.65606 0.38537 0.15565 0.0
C1202 C 0.64997 0.40567 0.17475 0.0
C1203 C 0.65702 0.45183 0.17737 0.0
C1204 C 0.66952 0.47766 0.16025 0.0
H1205 H 0.7968 0.47417 0.83374 0.0
H1206 H 0.94056 0.47244 0.8367 0.0
H1207 H 0.93664 0.4458 0.87252 0.0
H1208 H 0.7769 0.50962 0.88612 0.0
H1209 H 0.72885 0.47485 0.88882 0.0
H1210 H 0.7436 0.49638 0.86401 0.0
H1211 H 0.74504 0.41637 0.84948 0.0
H1212 H 0.73103 0.39452 0.87431 0.0
H1213 H 0.78017 0.37522 0.86134 0.0
H1214 H 0.91649 0.41669 0.90772 0.0
H1215 H 0.88197 0.39121 0.93992 0.0
H1216 H 0.75165 0.41023 0.91293 0.0
C1217 C 0.82758 0.46894 0.84195 0.0
C1218 C 0.86903 0.47563 0.8324 0.0
C1219 C 0.90841 0.46778 0.84371 0.0
C1220 C 0.90652 0.45249 0.86403 0.0
C1221 C 0.86503 0.44512 0.87275 0.0
C1222 C 0.82631 0.45341 0.86209 0.0
C1223 C 0.78591 0.44178 0.87465 0.0
C1224 C 0.75714 0.48312 0.87864 0.0
C1225 C 0.75897 0.40477 0.86433 0.0
C1226 C 0.80788 0.42551 0.89409 0.0
C1227 C 0.85351 0.4277 0.89274 0.0
C1228 C 0.88079 0.41487 0.90894 0.0
C1229 C 0.86085 0.40029 0.92715 0.0
C1230 C 0.81406 0.39851 0.92896 0.0
C1231 C 0.78747 0.41075 0.91203 0.0
H1232 H 0.65311 1.00267 0.84033 0.0
H1233 H 0.66624 0.87501 0.81004 0.0
H1234 H 0.69125 0.84153 0.84256 0.0
H1235 H 0.74854 0.99245 0.87254 0.0
H1236 H 0.72322 0.01913 0.89434 0.0
H1237 H 0.70545 0.03325 0.86878 0.0
H1238 H 0.62447 0.01381 0.8782 0.0
H1239 H 0.64192 1.00008 0.90385 0.0
H1240 H 0.61229 0.95995 0.8887 0.0
H1241 H 0.71691 0.82209 0.87824 0.0
H1242 H 0.73627 0.81714 0.91495 0.0
H1243 H 0.70586 0.95719 0.92216 0.0
C1244 C 0.6609 0.9676 0.84053 0.0
C1245 C 0.65759 0.94157 0.82251 0.0
C1246 C 0.66828 0.89576 0.82355 0.0
C1247 C 0.68273 0.8764 0.84197 0.0
C1248 C 0.68624 0.90313 0.85931 0.0
C1249 C 0.67525 0.94765 0.85881 0.0
C1250 C 0.68167 0.96891 0.87968 0.0
C1251 C 0.71681 0.0056 0.87877 0.0
C1252 C 0.63745 0.98673 0.8881 0.0
C1253 C 0.69806 0.92941 0.89197 0.0
C1254 C 0.70067 0.89184 0.87991 0.0
C1255 C 0.7149 0.85129 0.88785 0.0
C1256 C 0.726 0.84886 0.90874 0.0
C1257 C 0.72271 0.88673 0.92155 0.0
C1258 C 0.70894 0.92759 0.91286 0.0
H1259 H 0.84243 0.91379 0.07567 0.0
H1260 H 0.7237 0.83767 0.08831 0.0
H1261 H 0.73475 0.84931 0.12528 0.0
H1262 H 0.90612 0.87607 0.12093 0.0
H1263 H 0.93077 0.92959 0.12523 0.0
H1264 H 0.91593 0.91275 0.09961 0.0
H1265 H 0.86798 0.9836 0.09557 0.0
H1266 H 0.88246 1.00056 0.12118 0.0
H1267 H 0.82504 0.99521 0.11403 0.0
H1268 H 0.75447 0.87251 0.16012 0.0
H1269 H 0.7827 0.90477 0.19193 0.0
H1270 H 0.89026 0.96666 0.15836 0.0
C1271 C 0.8192 0.89892 0.08625 0.0
C1272 C 0.78217 0.87461 0.079 0.0
C1273 C 0.75224 0.85636 0.09338 0.0
C1274 C 0.75828 0.86273 0.11445 0.0
C1275 C 0.79448 0.88741 0.12104 0.0
C1276 C 0.82466 0.90511 0.10748 0.0
C1277 C 0.85959 0.93194 0.11885 0.0
C1278 C 0.90585 0.91135 0.11598 0.0
C1279 C 0.85869 0.98072 0.11199 0.0
C1280 C 0.84375 0.92706 0.14087 0.0
C1281 C 0.80619 0.90102 0.14159 0.0
C1282 C 0.78399 0.89271 0.1598 0.0
C1283 C 0.8003 0.91156 0.17782 0.0
C1284 C 0.83869 0.9386 0.17774 0.0
C1285 C 0.86106 0.946 0.15896 0.0
H1286 H 0.81059 0.04547 0.42117 0.0
H1287 H 0.80399 0.18919 0.41818 0.0
H1288 H 0.82781 0.1863 0.38194 0.0
H1289 H 0.90784 0.03265 0.39011 0.0
H1290 H 0.88872 0.98275 0.3778 0.0
H1291 H 0.87056 0.99604 0.40339 0.0
H1292 H 0.78864 0.99126 0.39171 0.0
H1293 H 0.80653 0.97758 0.36614 0.0
H1294 H 0.77004 0.0242 0.37027 0.0
H1295 H 0.85205 0.16747 0.34586 0.0
H1296 H 0.87274 0.1344 0.31259 0.0
H1297 H 0.86496 1.00297 0.33946 0.0
C1298 C 0.81385 0.07643 0.41292 0.0
C1299 C 0.8052 0.11763 0.4226 0.0
C1300 C 0.81027 0.15724 0.41117 0.0
C1301 C 0.82391 0.15592 0.39057 0.0
C1302 C 0.83258 0.11477 0.38162 0.0
C1303 C 0.82765 0.07575 0.39243 0.0
C1304 C 0.83907 0.03583 0.37928 0.0
C1305 C 0.87892 0.01033 0.38818 0.0
C1306 C 0.79866 0.00544 0.3767 0.0
C1307 C 0.85096 0.05844 0.35929 0.0
C1308 C 0.84708 0.10398 0.36098 0.0
C1309 C 0.85532 0.13186 0.3444 0.0
C1310 C 0.86713 0.1127 0.32555 0.0
C1311 C 0.87075 0.06602 0.32335 0.0
C1312 C 0.86304 0.03874 0.34062 0.0
H1313 H 0.756 0.10023 0.58939 0.0
H1314 H 0.62495 0.11458 0.56257 0.0
H1315 H 0.59133 0.09776 0.59614 0.0
H1316 H 0.73066 0.00895 0.62164 0.0
H1317 H 0.76487 0.02723 0.64264 0.0
H1318 H 0.77882 0.04245 0.61676 0.0
H1319 H 0.77784 0.12553 0.6269 0.0
H1320 H 0.76426 0.11054 0.65287 0.0
H1321 H 0.72925 0.14868 0.63897 0.0
H1322 H 0.57185 0.07681 0.63255 0.0
H1323 H 0.56823 0.05607 0.66915 0.0
H1324 H 0.71201 0.05495 0.67198 0.0
C1325 C 0.72023 0.10037 0.59057 0.0
C1326 C 0.6932 0.10889 0.57326 0.0
C1327 C 0.64647 0.1083 0.57556 0.0
C1328 C 0.62701 0.09869 0.59458 0.0
C1329 C 0.65463 0.08975 0.61122 0.0
C1330 C 0.70023 0.09076 0.60943 0.0
C1331 C 0.72246 0.07919 0.62959 0.0
C1332 C 0.75087 0.03694 0.62752 0.0
C1333 C 0.75007 0.11832 0.63755 0.0
C1334 C 0.68226 0.07126 0.64296 0.0
C1335 C 0.64343 0.07755 0.6321 0.0
C1336 C 0.60207 0.07193 0.64122 0.0
C1337 C 0.60036 0.06001 0.66202 0.0
C1338 C 0.63978 0.05376 0.67353 0.0
C1339 C 0.68118 0.05932 0.6637 0.0
H1340 H 0.26868 0.05081 0.08189 0.0
H1341 H 0.31276 0.1875 0.0784 0.0
H1342 H 0.34112 0.18203 0.11392 0.0
H1343 H 0.23491 0.05278 0.13533 0.0
H1344 H 0.25387 0.99687 0.13984 0.0
H1345 H 0.23495 0.01296 0.11471 0.0
H1346 H 0.30974 0.98658 0.09933 0.0
H1347 H 0.3292 0.97112 0.12445 0.0
H1348 H 0.36075 0.00926 0.10907 0.0
H1349 H 0.36738 0.16021 0.14929 0.0
H1350 H 0.38528 0.12567 0.18257 0.0
H1351 H 0.32504 1.00281 0.16218 0.0
C1352 C 0.28374 0.07993 0.0886 0.0
C1353 C 0.28842 0.11967 0.07732 0.0
C1354 C 0.30857 0.15679 0.08675 0.0
C1355 C 0.32496 0.15392 0.10688 0.0
C1356 C 0.32085 0.11377 0.1173 0.0
C1357 C 0.30034 0.0776 0.10853 0.0
C1358 C 0.30075 0.03797 0.12276 0.0
C1359 C 0.2533 0.02437 0.1285 0.0
C1360 C 0.32666 0.99894 0.11333 0.0
C1361 C 0.32502 0.05735 0.14093 0.0
C1362 C 0.33631 0.10109 0.13749 0.0
C1363 C 0.3586 0.12603 0.15216 0.0
C1364 C 0.36873 0.10601 0.17099 0.0
C1365 C 0.35668 0.06143 0.17499 0.0
C1366 C 0.33511 0.03675 0.15957 0.0
H1367 H 0.25428 0.07212 0.91179 0.0
H1368 H 0.12408 0.10689 0.93539 0.0
H1369 H 0.0903 0.08391 0.90277 0.0
H1370 H 0.23437 0.1102 0.86003 0.0
H1371 H 0.26591 0.06592 0.84846 0.0
H1372 H 0.27986 0.08512 0.87378 0.0
H1373 H 0.27193 0.00498 0.8876 0.0
H1374 H 0.25735 0.98567 0.86235 0.0
H1375 H 0.22073 0.97563 0.88365 0.0
H1376 H 0.07006 0.0564 0.86773 0.0
H1377 H 0.06589 0.03221 0.83161 0.0
H1378 H 0.20892 0.01543 0.83074 0.0
C1379 C 0.21871 0.07521 0.91007 0.0
C1380 C 0.19197 0.09134 0.92626 0.0
C1381 C 0.14547 0.09472 0.9233 0.0
C1382 C 0.12582 0.08154 0.90482 0.0
C1383 C 0.153 0.06508 0.88936 0.0
C1384 C 0.19846 0.06228 0.89168 0.0
C1385 C 0.22011 0.0442 0.87245 0.0
C1386 C 0.25193 0.0784 0.86313 0.0
C1387 C 0.24393 0.99999 0.87678 0.0
C1388 C 0.17972 0.03747 0.85899 0.0
C1389 C 0.14131 0.0494 0.86908 0.0
C1390 C 0.09992 0.04689 0.85965 0.0
C1391 C 0.09786 0.03292 0.83914 0.0
C1392 C 0.13699 0.02179 0.82827 0.0
C1393 C 0.17828 0.02338 0.83858 0.0
H1394 H 0.14653 0.91977 0.66716 0.0
H1395 H 0.19351 0.05561 0.67017 0.0
H1396 H 0.22894 0.04669 0.63654 0.0
H1397 H 0.24157 0.87257 0.64169 0.0
H1398 H 0.20997 0.83641 0.6253 0.0
H1399 H 0.18853 0.85218 0.65004 0.0
H1400 H 0.11687 0.88241 0.63307 0.0
H1401 H 0.13775 0.866 0.60834 0.0
H1402 H 0.121 0.92265 0.61273 0.0
H1403 H 0.26143 0.0236 0.60376 0.0
H1404 H 0.279 0.9918 0.57011 0.0
H1405 H 0.20848 0.87153 0.58627 0.0
C1406 C 0.16403 0.94768 0.66065 0.0
C1407 C 0.16729 0.98838 0.67138 0.0
C1408 C 0.19026 0.02419 0.66228 0.0
C1409 C 0.21094 0.01935 0.64324 0.0
C1410 C 0.20798 0.97866 0.63332 0.0
C1411 C 0.18437 0.94369 0.64139 0.0
C1412 C 0.18458 0.90443 0.62678 0.0
C1413 C 0.20754 0.86401 0.63654 0.0
C1414 C 0.13724 0.89323 0.61981 0.0
C1415 C 0.21189 0.92306 0.60926 0.0
C1416 C 0.2256 0.96566 0.61367 0.0
C1417 C 0.25072 0.99037 0.60003 0.0
C1418 C 0.2606 0.97188 0.58095 0.0
C1419 C 0.24495 0.92922 0.57548 0.0
C1420 C 0.22131 0.90397 0.59008 0.0
H1421 H 0.29183 0.98476 0.33066 0.0
H1422 H 0.42667 0.93416 0.3274 0.0
H1423 H 0.41781 0.90044 0.36159 0.0
H1424 H 0.29363 0.01091 0.38502 0.0
H1425 H 0.23677 0.99494 0.38883 0.0
H1426 H 0.25433 0.01578 0.3643 0.0
H1427 H 0.2244 0.94462 0.34696 0.0
H1428 H 0.20758 0.92316 0.37151 0.0
H1429 H 0.24424 0.89119 0.3554 0.0
H1430 H 0.39381 0.87008 0.3953 0.0
H1431 H 0.35968 0.8527 0.42857 0.0
H1432 H 0.2402 0.92316 0.41037 0.0
C1433 C 0.31974 0.96703 0.3372 0.0
C1434 C 0.36 0.96211 0.32627 0.0
C1435 C 0.3956 0.93861 0.33545 0.0
C1436 C 0.39077 0.91901 0.35481 0.0
C1437 C 0.35022 0.92337 0.36483 0.0
C1438 C 0.31555 0.94737 0.35652 0.0
C1439 C 0.27572 0.94764 0.3707 0.0
C1440 C 0.26447 0.99514 0.37762 0.0
C1441 C 0.23562 0.92532 0.36053 0.0
C1442 C 0.29345 0.91999 0.38832 0.0
C1443 C 0.33637 0.90606 0.38446 0.0
C1444 C 0.36028 0.88087 0.39852 0.0
C1445 C 0.34049 0.87105 0.41735 0.0
C1446 C 0.29721 0.88648 0.42206 0.0
C1447 C 0.273 0.9103 0.40709 0.0
H1448 H 0.04236 0.66574 0.22689 0.0
H1449 H 0.997 0.62466 0.28712 0.0
H1450 H 0.97533 0.70158 0.29488 0.0
H1451 H 0.08775 0.76923 0.24235 0.0
H1452 H 0.07035 0.79917 0.21982 0.0
H1453 H 0.08092 0.74041 0.21835 0.0
H1454 H 1.00167 0.72773 0.20407 0.0
H1455 H 0.99126 0.78653 0.20527 0.0
H1456 H 0.95463 0.74865 0.21815 0.0
H1457 H 0.96429 0.78315 0.29751 0.0
H1458 H 0.95288 0.86325 0.29286 0.0
H1459 H 1.00131 0.85304 0.23033 0.0
C1460 C 0.02691 0.67271 0.24153 0.0
C1461 C 0.02139 0.63885 0.25638 0.0
C1462 C 1.00162 0.64976 0.27546 0.0
C1463 C 0.98941 0.6935 0.28009 0.0
C1464 C 0.99685 0.72623 0.26547 0.0
C1465 C 0.01427 0.71641 0.24642 0.0
C1466 C 0.01852 0.75819 0.23353 0.0
C1467 C 0.06728 0.76726 0.2282 0.0
C1468 C 0.9898 0.75508 0.2141 0.0
C1469 C 1.00058 0.79284 0.24832 0.0
C1470 C 0.98907 0.7736 0.26677 0.0
C1471 C 0.97289 0.79859 0.28309 0.0
C1472 C 0.96696 0.8443 0.28033 0.0
C1473 C 0.97638 0.86475 0.26125 0.0
C1474 C 0.99397 0.83853 0.24512 0.0
H1475 H 0.0965 0.28419 0.48376 0.0
H1476 H 0.13522 0.25938 0.5469 0.0
H1477 H 0.0598 0.23297 0.55446 0.0
H1478 H 0.98875 0.32517 0.49475 0.0
H1479 H 0.96249 0.2999 0.47286 0.0
H1480 H 0.02024 0.31451 0.47179 0.0
H1481 H 0.04113 0.23362 0.46232 0.0
H1482 H 0.98337 0.21894 0.46295 0.0
H1483 H 0.02274 0.18886 0.47849 0.0
H1484 H 0.97938 0.21275 0.55573 0.0
H1485 H 0.90133 0.19311 0.54991 0.0
H1486 H 0.91387 0.23094 0.48591 0.0
C1487 C 0.08947 0.27233 0.49908 0.0
C1488 C 0.12213 0.27369 0.5147 0.0
C1489 C 0.11105 0.25854 0.53462 0.0
C1490 C 0.06815 0.24366 0.53911 0.0
C1491 C 0.03649 0.24408 0.52354 0.0
C1492 C 0.04668 0.25749 0.50387 0.0
C1493 C 0.00622 0.25521 0.49004 0.0
C1494 C 0.9937 0.30145 0.48188 0.0
C1495 C 0.01382 0.22218 0.47241 0.0
C1496 C 0.97174 0.23832 0.50502 0.0
C1497 C 0.98993 0.23244 0.52429 0.0
C1498 C 0.96483 0.21707 0.54069 0.0
C1499 C 0.92032 0.20621 0.53722 0.0
C1500 C 0.90108 0.21052 0.51745 0.0
C1501 C 0.92721 0.22759 0.50125 0.0
H1502 H 0.48633 0.35167 0.73556 0.0
H1503 H 0.49241 0.38248 0.80054 0.0
H1504 H 0.51374 0.305 0.80789 0.0
H1505 H 0.43837 0.24585 0.7409 0.0
H1506 H 0.4691 0.22038 0.72031 0.0
H1507 H 0.45757 0.279 0.71973 0.0
H1508 H 0.54136 0.29596 0.71639 0.0
H1509 H 0.55309 0.23735 0.71649 0.0
H1510 H 0.5796 0.27312 0.73488 0.0
H1511 H 0.53053 0.22302 0.8084 0.0
H1512 H 0.54821 0.14441 0.80179 0.0
H1513 H 0.53031 0.16646 0.73649 0.0
C1514 C 0.49314 0.34249 0.75131 0.0
C1515 C 0.48793 0.37351 0.76746 0.0
C1516 C 0.49639 0.3596 0.78787 0.0
C1517 C 0.50831 0.31552 0.79222 0.0
C1518 C 0.51166 0.28554 0.77602 0.0
C1519 C 0.50487 0.29853 0.75595 0.0
C1520 C 0.50969 0.2595 0.74141 0.0
C1521 C 0.46609 0.25068 0.72991 0.0
C1522 C 0.54824 0.26693 0.72641 0.0
C1523 C 0.52012 0.22251 0.75644 0.0
C1524 C 0.52096 0.23824 0.77633 0.0
C1525 C 0.53008 0.21039 0.79287 0.0
C1526 C 0.53983 0.16561 0.78895 0.0
C1527 C 0.54047 0.14886 0.76861 0.0
C1528 C 0.52967 0.17783 0.75223 0.0
H1529 H 0.59181 0.7675 0.02874 0.0
H1530 H 0.61888 0.76906 0.96331 0.0
H1531 H 0.54136 0.74976 0.95629 0.0
H1532 H 0.51589 0.67276 0.02666 0.0
H1533 H 0.47987 0.69452 0.0463 0.0
H1534 H 0.538 0.70783 0.04652 0.0
H1535 H 0.51875 0.79148 0.0466 0.0
H1536 H 0.46048 0.77885 0.04619 0.0
H1537 H 0.48387 0.8139 0.02665 0.0
H1538 H 0.4599 0.73781 0.95593 0.0
H1539 H 0.38206 0.71854 0.96225 0.0
H1540 H 0.40703 0.71855 0.02787 0.0
C1541 C 0.58166 0.76295 0.01295 0.0
C1542 C 0.61174 0.76997 0.9966 0.0
C1543 C 0.59685 0.76375 0.97616 0.0
C1544 C 0.55264 0.75314 0.97197 0.0
C1545 C 0.52361 0.74808 0.98835 0.0
C1546 C 0.53761 0.75155 0.00845 0.0
C1547 C 0.4995 0.74319 0.02314 0.0
C1548 C 0.50886 0.70212 0.03644 0.0
C1549 C 0.49011 0.78431 0.03642 0.0
C1550 C 0.46195 0.73488 0.0081 0.0
C1551 C 0.47661 0.73875 0.98813 0.0
C1552 C 0.4481 0.73412 0.97149 0.0
C1553 C 0.40371 0.72358 0.97528 0.0
C1554 C 0.38819 0.71693 0.99556 0.0
C1555 C 0.41776 0.7234 0.01219 0.0
H1556 H 0.05716 0.17208 0.71869 0.0
H1557 H 0.98932 0.11825 0.77182 0.0
H1558 H 0.95043 0.18935 0.77656 0.0
H1559 H 0.0756 0.27773 0.73853 0.0
H1560 H 0.06555 0.30776 0.71507 0.0
H1561 H 0.08501 0.25129 0.71412 0.0
H1562 H 0.01787 0.2293 0.69162 0.0
H1563 H 0.99845 0.2859 0.69221 0.0
H1564 H 0.96255 0.24172 0.70037 0.0
H1565 H 0.92614 0.26749 0.77843 0.0
H1566 H 0.91137 0.34754 0.77526 0.0
H1567 H 0.99078 0.35227 0.7199 0.0
C1568 C 0.03331 0.17486 0.73102 0.0
C1569 C 0.02638 0.13932 0.74488 0.0
C1570 C 0.99529 0.14473 0.76097 0.0
C1571 C 0.973 0.18509 0.76382 0.0
C1572 C 0.98168 0.21976 0.75035 0.0
C1573 C 0.01046 0.21502 0.73404 0.0
C1574 C 0.0149 0.25841 0.72235 0.0
C1575 C 0.06312 0.27475 0.72254 0.0
C1576 C 0.99739 0.25353 0.70033 0.0
C1577 C 0.98505 0.28849 0.735 0.0
C1578 C 0.96641 0.26526 0.75109 0.0
C1579 C 0.93999 0.2859 0.76574 0.0
C1580 C 0.93212 0.33144 0.7639 0.0
C1581 C 0.95006 0.35598 0.7474 0.0
C1582 C 0.97652 0.33415 0.73259 0.0
H1583 H 0.92345 0.70202 0.47089 0.0
H1584 H 0.87865 0.74984 0.5303 0.0
H1585 H 0.95073 0.78467 0.53601 0.0
H1586 H 0.03437 0.67731 0.48527 0.0
H1587 H 0.05949 0.69685 0.46192 0.0
H1588 H 1.00346 0.67654 0.46161 0.0
H1589 H 0.97621 0.75079 0.44585 0.0
H1590 H 0.0323 0.77104 0.44595 0.0
H1591 H 0.98915 0.80219 0.4586 0.0
H1592 H 0.0285 0.80789 0.53737 0.0
H1593 H 0.10619 0.82859 0.53218 0.0
H1594 H 0.10257 0.77246 0.47086 0.0
C1595 C 0.92858 0.72045 0.48494 0.0
C1596 C 0.89502 0.72285 0.50016 0.0
C1597 C 0.90341 0.74724 0.51835 0.0
C1598 C 0.94447 0.76715 0.52182 0.0
C1599 C 0.97702 0.76316 0.50687 0.0
C1600 C 0.96953 0.74133 0.48859 0.0
C1601 C 0.01078 0.74264 0.47516 0.0
C1602 C 0.02803 0.69553 0.47073 0.0
C1603 C 1.00155 0.76819 0.45521 0.0
C1604 C 0.04258 0.76792 0.48897 0.0
C1605 C 0.02221 0.77882 0.50726 0.0
C1606 C 0.04472 0.80009 0.52302 0.0
C1607 C 0.08909 0.81136 0.51996 0.0
C1608 C 0.11069 0.80212 0.50113 0.0
C1609 C 0.08696 0.78008 0.48538 0.0
H1610 H 0.55013 0.67228 0.26592 0.0
H1611 H 0.56 0.6452 0.20074 0.0
H1612 H 0.52555 0.7179 0.19322 0.0
H1613 H 0.44523 0.73122 0.26476 0.0
H1614 H 0.46172 0.77098 0.28391 0.0
H1615 H 0.48532 0.71602 0.28406 0.0
H1616 H 0.56405 0.74981 0.2827 0.0
H1617 H 0.5407 0.80488 0.28228 0.0
H1618 H 0.57806 0.78741 0.26226 0.0
H1619 H 0.48918 0.79347 0.1928 0.0
H1620 H 0.45471 0.8665 0.19946 0.0
H1621 H 0.47213 0.84646 0.26488 0.0
C1622 C 0.54447 0.68136 0.25007 0.0
C1623 C 0.55736 0.65271 0.23391 0.0
C1624 C 0.55025 0.6664 0.21337 0.0
C1625 C 0.53074 0.70769 0.20895 0.0
C1626 C 0.51895 0.73533 0.22522 0.0
C1627 C 0.52566 0.72282 0.24537 0.0
C1628 C 0.51131 0.75934 0.25998 0.0
C1629 C 0.47366 0.74343 0.274 0.0
C1630 C 0.55089 0.77636 0.27254 0.0
C1631 C 0.49505 0.79416 0.24492 0.0
C1632 C 0.49962 0.77956 0.22494 0.0
C1633 C 0.4857 0.80532 0.20838 0.0
C1634 C 0.46616 0.84683 0.21232 0.0
C1635 C 0.46101 0.86255 0.23267 0.0
C1636 C 0.47618 0.83583 0.24913 0.0
H1637 H 0.40633 0.21996 0.01291 0.0
H1638 H 0.38866 0.19513 0.94786 0.0
H1639 H 0.4647 0.22156 0.94135 0.0
H1640 H 0.47389 0.31927 0.00815 0.0
H1641 H 0.50869 0.30473 0.02961 0.0
H1642 H 0.45201 0.2864 0.02885 0.0
H1643 H 0.47871 0.20518 0.03332 0.0
H1644 H 0.53551 0.22316 0.03376 0.0
H1645 H 0.51797 0.18217 0.01538 0.0
H1646 H 0.54349 0.24955 0.94198 0.0
H1647 H 0.61799 0.27886 0.94961 0.0
H1648 H 0.58546 0.28249 0.01442 0.0
C1649 C 0.41807 0.22091 0.99723 0.0
C1650 C 0.39117 0.20589 0.98086 0.0
C1651 C 0.4084 0.20672 0.96064 0.0
C1652 C 0.45166 0.22155 0.95679 0.0
C1653 C 0.47758 0.23515 0.97333 0.0
C1654 C 0.46139 0.2351 0.99314 0.0
C1655 C 0.49654 0.25005 0.00825 0.0
C1656 C 0.48191 0.29265 0.01936 0.0
C1657 C 0.50784 0.21292 0.02358 0.0
C1658 C 0.53496 0.25874 0.99384 0.0
C1659 C 0.52331 0.24999 0.97376 0.0
C1660 C 0.55298 0.2564 0.95767 0.0
C1661 C 0.59532 0.27296 0.96217 0.0
C1662 C 0.6079 0.2827 0.98263 0.0
C1663 C 0.57727 0.27482 0.99865 0.0
loop_
_geom_bond_atom_site_label_1
_geom_bond_atom_site_label_2
_geom_bond_distance
_geom_bond_site_symmetry_2
_ccdc_geom_bond_type
O0 Zn1 1.953 . S
O0 C16 1.225 . S
Zn1 O0 1.953 . S
Zn1 O2 1.949 . S
Zn1 O8 1.919 . S
Zn1 O13 1.924 . S
O2 Zn1 1.949 . S
O2 Zn3 1.923 . S
O2 Zn4 1.950 . S
O2 Zn5 1.945 . S
Zn3 O2 1.923 . S
Zn3 O6 1.933 . S
Zn3 O9 1.941 . S
Zn3 O10 1.965 . S
Zn4 O2 1.950 . S
Zn4 O11 1.938 . S
Zn4 O12 1.906 . S
Zn4 O22 1.953 . S
Zn5 O2 1.945 . S
Zn5 O7 1.932 . S
Zn5 O14 1.977 . S
Zn5 O15 1.910 . S
O6 Zn3 1.933 . S
O6 C17 1.226 . S
O7 Zn5 1.932 . S
O7 C17 1.307 . S
O8 Zn1 1.919 . S
O8 C19 1.253 . S
O9 Zn3 1.941 . S
O9 C19 1.283 . S
O10 Zn3 1.965 . S
O10 C18 1.303 . S
O11 Zn4 1.938 . S
O11 C18 1.247 . S
O12 Zn4 1.906 . S
O12 C20 1.304 . S
O13 Zn1 1.924 . S
O13 C21 1.311 . S
O14 Zn5 1.977 . S
O14 C20 1.272 . S
O15 Zn5 1.910 . S
O15 C21 1.231 . S
C16 O0 1.225 . S
C16 O22 1.298 . S
C17 O6 1.226 . S
C17 O7 1.307 . S
C18 O10 1.303 . S
C18 O11 1.247 . S
C19 O8 1.253 . S
C19 O9 1.283 . S
C20 O12 1.304 . S
C20 O14 1.272 . S
C21 O13 1.311 . S
C21 O15 1.231 . S
O22 Zn4 1.953 . S
O22 C16 1.298 . S
O23 Zn24 1.953 . S
O23 C39 1.225 . S
Zn24 O23 1.953 . S
Zn24 O25 1.949 . S
Zn24 O31 1.919 . S
Zn24 O36 1.924 . S
O25 Zn24 1.949 . S
O25 Zn26 1.923 . S
O25 Zn27 1.950 . S
O25 Zn28 1.945 . S
Zn26 O25 1.923 . S
Zn26 O29 1.933 . S
Zn26 O32 1.941 . S
Zn26 O33 1.965 . S
Zn27 O25 1.950 . S
Zn27 O34 1.938 . S
Zn27 O35 1.906 . S
Zn27 O45 1.953 . S
Zn28 O25 1.945 . S
Zn28 O30 1.932 . S
Zn28 O37 1.977 . S
Zn28 O38 1.910 . S
O29 Zn26 1.933 . S
O29 C40 1.226 . S
O30 Zn28 1.932 . S
O30 C40 1.307 . S
O31 Zn24 1.919 . S
O31 C42 1.253 . S
O32 Zn26 1.941 . S
O32 C42 1.283 . S
O33 Zn26 1.965 . S
O33 C41 1.303 . S
O34 Zn27 1.938 . S
O34 C41 1.247 . S
O35 Zn27 1.906 . S
O35 C43 1.304 . S
O36 Zn24 1.924 . S
O36 C44 1.311 . S
O37 Zn28 1.977 . S
O37 C43 1.272 . S
O38 Zn28 1.910 . S
O38 C44 1.231 . S
C39 O23 1.225 . S
C39 O45 1.298 . S
C40 O29 1.226 . S
C40 O30 1.307 . S
C41 O33 1.303 . S
C41 O34 1.247 . S
C42 O31 1.253 . S
C42 O32 1.283 . S
C43 O35 1.304 . S
C43 O37 1.272 . S
C44 O36 1.311 . S
C44 O38 1.231 . S
O45 Zn27 1.953 . S
O45 C39 1.298 . S
O46 Zn47 1.953 . S
O46 C62 1.225 . S
Zn47 O46 1.953 . S
Zn47 O48 1.949 . S
Zn47 O54 1.919 . S
Zn47 O59 1.924 . S
O48 Zn47 1.949 . S
O48 Zn49 1.923 . S
O48 Zn50 1.950 . S
O48 Zn51 1.945 . S
Zn49 O48 1.923 . S
Zn49 O52 1.933 . S
Zn49 O55 1.941 . S
Zn49 O56 1.965 . S
Zn50 O48 1.950 . S
Zn50 O57 1.938 . S
Zn50 O58 1.906 . S
Zn50 O68 1.953 . S
Zn51 O48 1.945 . S
Zn51 O53 1.932 . S
Zn51 O60 1.977 . S
Zn51 O61 1.910 . S
O52 Zn49 1.933 . S
O52 C63 1.226 . S
O53 Zn51 1.932 . S
O53 C63 1.307 . S
O54 Zn47 1.919 . S
O54 C65 1.253 . S
O55 Zn49 1.941 . S
O55 C65 1.283 . S
O56 Zn49 1.965 . S
O56 C64 1.303 . S
O57 Zn50 1.938 . S
O57 C64 1.247 . S
O58 Zn50 1.906 . S
O58 C66 1.304 . S
O59 Zn47 1.924 . S
O59 C67 1.311 . S
O60 Zn51 1.977 . S
O60 C66 1.272 . S
O61 Zn51 1.910 . S
O61 C67 1.231 . S
C62 O46 1.225 . S
C62 O68 1.298 . S
C63 O52 1.226 . S
C63 O53 1.307 . S
C64 O56 1.303 . S
C64 O57 1.247 . S
C65 O54 1.253 . S
C65 O55 1.283 . S
C66 O58 1.304 . S
C66 O60 1.272 . S
C67 O59 1.311 . S
C67 O61 1.231 . S
O68 Zn50 1.953 . S
O68 C62 1.298 . S
O69 Zn70 1.953 . S
O69 C85 1.225 . S
Zn70 O69 1.953 . S
Zn70 O71 1.938 1_554 S
Zn70 O77 1.919 . S
Zn70 O82 1.924 . S
O71 Zn70 1.938 1_556 S
O71 Zn72 1.918 1_556 S
O71 Zn73 1.960 . S
O71 Zn74 1.951 . S
Zn72 O71 1.918 1_554 S
Zn72 O75 1.933 . S
Zn72 O78 1.941 . S
Zn72 O79 1.965 . S
Zn73 O71 1.960 . S
Zn73 O80 1.938 . S
Zn73 O81 1.906 . S
Zn73 O91 1.953 . S
Zn74 O71 1.951 . S
Zn74 O76 1.932 . S
Zn74 O83 1.977 . S
Zn74 O84 1.910 . S
O75 Zn72 1.933 . S
O75 C86 1.226 1_554 S
O76 Zn74 1.932 . S
O76 C86 1.307 . S
O77 Zn70 1.919 . S
O77 C88 1.253 . S
O78 Zn72 1.941 . S
O78 C88 1.283 . S
O79 Zn72 1.965 . S
O79 C87 1.303 1_554 S
O80 Zn73 1.938 . S
O80 C87 1.247 . S
O81 Zn73 1.906 . S
O81 C89 1.304 . S
O82 Zn70 1.924 . S
O82 C90 1.311 . S
O83 Zn74 1.977 . S
O83 C89 1.272 . S
O84 Zn74 1.910 . S
O84 C90 1.231 1_556 S
C85 O69 1.225 . S
C85 O91 1.298 1_554 S
C86 O75 1.226 1_556 S
C86 O76 1.307 . S
C87 O79 1.303 1_556 S
C87 O80 1.247 . S
C88 O77 1.253 . S
C88 O78 1.283 . S
C89 O81 1.304 . S
C89 O83 1.272 . S
C90 O82 1.311 . S
C90 O84 1.231 1_554 S
O91 Zn73 1.953 . S
O91 C85 1.298 1_556 S
O92 Zn93 1.953 . S
O92 C108 1.225 . S
Zn93 O92 1.953 . S
Zn93 O94 1.949 . S
Zn93 O100 1.919 . S
Zn93 O105 1.924 . S
O94 Zn93 1.949 . S
O94 Zn95 1.923 . S
O94 Zn96 1.950 . S
O94 Zn97 1.945 . S
Zn95 O94 1.923 . S
Zn95 O98 1.933 . S
Zn95 O101 1.941 . S
Zn95 O102 1.965 . S
Zn96 O94 1.950 . S
Zn96 O103 1.938 . S
Zn96 O104 1.906 . S
Zn96 O114 1.953 . S
Zn97 O94 1.945 . S
Zn97 O99 1.932 . S
Zn97 O106 1.977 . S
Zn97 O107 1.910 . S
O98 Zn95 1.933 . S
O98 C109 1.226 . S
O99 Zn97 1.932 . S
O99 C109 1.307 . S
O100 Zn93 1.919 . S
O100 C111 1.253 . S
O101 Zn95 1.941 . S
O101 C111 1.283 . S
O102 Zn95 1.965 . S
O102 C110 1.303 . S
O103 Zn96 1.938 . S
O103 C110 1.247 . S
O104 Zn96 1.906 . S
O104 C112 1.304 . S
O105 Zn93 1.924 . S
O105 C113 1.311 . S
O106 Zn97 1.977 . S
O106 C112 1.272 . S
O107 Zn97 1.910 . S
O107 C113 1.231 . S
C108 O92 1.225 . S
C108 O114 1.298 . S
C109 O98 1.226 . S
C109 O99 1.307 . S
C110 O102 1.303 . S
C110 O103 1.247 . S
C111 O100 1.253 . S
C111 O101 1.283 . S
C112 O104 1.304 . S
C112 O106 1.272 . S
C113 O105 1.311 . S
C113 O107 1.231 . S
O114 Zn96 1.953 . S
O114 C108 1.298 . S
O115 Zn116 1.953 . S
O115 C131 1.225 . S
Zn116 O115 1.953 . S
Zn116 O117 1.949 . S
Zn116 O123 1.919 . S
Zn116 O128 1.924 . S
O117 Zn116 1.949 . S
O117 Zn118 1.923 . S
O117 Zn119 1.950 . S
O117 Zn120 1.945 . S
Zn118 O117 1.923 . S
Zn118 O121 1.933 . S
Zn118 O124 1.941 . S
Zn118 O125 1.965 . S
Zn119 O117 1.950 . S
Zn119 O126 1.938 . S
Zn119 O127 1.906 . S
Zn119 O137 1.953 . S
Zn120 O117 1.945 . S
Zn120 O122 1.932 . S
Zn120 O129 1.977 . S
Zn120 O130 1.910 . S
O121 Zn118 1.933 . S
O121 C132 1.226 . S
O122 Zn120 1.932 . S
O122 C132 1.307 . S
O123 Zn116 1.919 . S
O123 C134 1.253 . S
O124 Zn118 1.941 . S
O124 C134 1.283 . S
O125 Zn118 1.965 . S
O125 C133 1.303 . S
O126 Zn119 1.938 . S
O126 C133 1.247 . S
O127 Zn119 1.906 . S
O127 C135 1.304 . S
O128 Zn116 1.924 . S
O128 C136 1.311 . S
O129 Zn120 1.977 . S
O129 C135 1.272 . S
O130 Zn120 1.910 . S
O130 C136 1.231 . S
C131 O115 1.225 . S
C131 O137 1.298 . S
C132 O121 1.226 . S
C132 O122 1.307 . S
C133 O125 1.303 . S
C133 O126 1.247 . S
C134 O123 1.253 . S
C134 O124 1.283 . S
C135 O127 1.304 . S
C135 O129 1.272 . S
C136 O128 1.311 . S
C136 O130 1.231 . S
O137 Zn119 1.953 . S
O137 C131 1.298 . S
O138 Zn139 1.953 . S
O138 C154 1.225 . S
Zn139 O138 1.953 . S
Zn139 O140 1.949 . S
Zn139 O146 1.919 . S
Zn139 O151 1.924 . S
O140 Zn139 1.949 . S
O140 Zn141 1.923 . S
O140 Zn142 1.950 . S
O140 Zn143 1.945 . S
Zn141 O140 1.923 . S
Zn141 O144 1.933 . S
Zn141 O147 1.941 . S
Zn141 O148 1.965 . S
Zn142 O140 1.950 . S
Zn142 O149 1.938 . S
Zn142 O150 1.906 . S
Zn142 O160 1.953 . S
Zn143 O140 1.945 . S
Zn143 O145 1.932 . S
Zn143 O152 1.977 . S
Zn143 O153 1.910 . S
O144 Zn141 1.933 . S
O144 C155 1.226 . S
O145 Zn143 1.932 . S
O145 C155 1.307 . S
O146 Zn139 1.919 . S
O146 C157 1.253 . S
O147 Zn141 1.941 . S
O147 C157 1.283 . S
O148 Zn141 1.965 . S
O148 C156 1.303 . S
O149 Zn142 1.938 . S
O149 C156 1.247 . S
O150 Zn142 1.906 . S
O150 C158 1.304 . S
O151 Zn139 1.924 . S
O151 C159 1.311 . S
O152 Zn143 1.977 . S
O152 C158 1.272 . S
O153 Zn143 1.910 . S
O153 C159 1.231 . S
C154 O138 1.225 . S
C154 O160 1.298 . S
C155 O144 1.226 . S
C155 O145 1.307 . S
C156 O148 1.303 . S
C156 O149 1.247 . S
C157 O146 1.253 . S
C157 O147 1.283 . S
C158 O150 1.304 . S
C158 O152 1.272 . S
C159 O151 1.311 . S
C159 O153 1.231 . S
O160 Zn142 1.953 . S
O160 C154 1.298 . S
O161 Zn162 1.953 . S
O161 C177 1.225 . S
Zn162 O161 1.953 . S
Zn162 O163 1.938 1_556 S
Zn162 O169 1.919 . S
Zn162 O174 1.924 . S
O163 Zn162 1.938 1_554 S
O163 Zn164 1.918 1_554 S
O163 Zn165 1.960 . S
O163 Zn166 1.951 . S
Zn164 O163 1.918 1_556 S
Zn164 O167 1.933 . S
Zn164 O170 1.941 . S
Zn164 O171 1.965 . S
Zn165 O163 1.960 . S
Zn165 O172 1.938 . S
Zn165 O173 1.906 . S
Zn165 O183 1.953 . S
Zn166 O163 1.951 . S
Zn166 O168 1.932 . S
Zn166 O175 1.977 . S
Zn166 O176 1.910 . S
O167 Zn164 1.933 . S
O167 C178 1.226 1_556 S
O168 Zn166 1.932 . S
O168 C178 1.307 . S
O169 Zn162 1.919 . S
O169 C180 1.253 . S
O170 Zn164 1.941 . S
O170 C180 1.283 . S
O171 Zn164 1.965 . S
O171 C179 1.303 1_556 S
O172 Zn165 1.938 . S
O172 C179 1.247 . S
O173 Zn165 1.906 . S
O173 C181 1.304 . S
O174 Zn162 1.924 . S
O174 C182 1.311 . S
O175 Zn166 1.977 . S
O175 C181 1.272 . S
O176 Zn166 1.910 . S
O176 C182 1.231 1_554 S
C177 O161 1.225 . S
C177 O183 1.298 1_556 S
C178 O167 1.226 1_554 S
C178 O168 1.307 . S
C179 O171 1.303 1_554 S
C179 O172 1.247 . S
C180 O169 1.253 . S
C180 O170 1.283 . S
C181 O173 1.304 . S
C181 O175 1.272 . S
C182 O174 1.311 . S
C182 O176 1.231 1_556 S
O183 Zn165 1.953 . S
O183 C177 1.298 1_554 S
O184 Zn185 1.953 . S
O184 C200 1.225 . S
Zn185 O184 1.953 . S
Zn185 O186 1.949 . S
Zn185 O192 1.919 . S
Zn185 O197 1.924 . S
O186 Zn185 1.949 . S
O186 Zn187 1.923 1_545 S
O186 Zn188 1.950 . S
O186 Zn189 1.945 . S
Zn187 O186 1.923 1_565 S
Zn187 O190 1.933 . S
Zn187 O193 1.941 . S
Zn187 O194 1.965 . S
Zn188 O186 1.950 . S
Zn188 O195 1.938 1_545 S
Zn188 O196 1.906 . S
Zn188 O206 1.953 . S
Zn189 O186 1.945 . S
Zn189 O191 1.932 1_545 S
Zn189 O198 1.977 . S
Zn189 O199 1.910 . S
O190 Zn187 1.933 . S
O190 C201 1.226 . S
O191 Zn189 1.932 1_565 S
O191 C201 1.307 . S
O192 Zn185 1.919 . S
O192 C203 1.253 . S
O193 Zn187 1.941 . S
O193 C203 1.283 1_565 S
O194 Zn187 1.965 . S
O194 C202 1.303 . S
O195 Zn188 1.938 1_565 S
O195 C202 1.247 . S
O196 Zn188 1.906 . S
O196 C204 1.304 . S
O197 Zn185 1.924 . S
O197 C205 1.311 . S
O198 Zn189 1.977 . S
O198 C204 1.272 . S
O199 Zn189 1.910 . S
O199 C205 1.231 . S
C200 O184 1.225 . S
C200 O206 1.298 . S
C201 O190 1.226 . S
C201 O191 1.307 . S
C202 O194 1.303 . S
C202 O195 1.247 . S
C203 O192 1.253 . S
C203 O193 1.283 1_545 S
C204 O196 1.304 . S
C204 O198 1.272 . S
C205 O197 1.311 . S
C205 O199 1.231 . S
O206 Zn188 1.953 . S
O206 C200 1.298 . S
O207 Zn208 1.953 . S
O207 C223 1.225 . S
Zn208 O207 1.953 . S
Zn208 O209 1.938 1_554 S
Zn208 O215 1.919 . S
Zn208 O220 1.924 . S
O209 Zn208 1.938 1_556 S
O209 Zn210 1.918 1_556 S
O209 Zn211 1.960 . S
O209 Zn212 1.951 . S
Zn210 O209 1.918 1_554 S
Zn210 O213 1.933 . S
Zn210 O216 1.941 . S
Zn210 O217 1.965 . S
Zn211 O209 1.960 . S
Zn211 O218 1.938 . S
Zn211 O219 1.906 . S
Zn211 O229 1.953 . S
Zn212 O209 1.951 . S
Zn212 O214 1.932 1_565 S
Zn212 O221 1.977 . S
Zn212 O222 1.910 . S
O213 Zn210 1.933 . S
O213 C224 1.226 1_564 S
O214 Zn212 1.932 1_545 S
O214 C224 1.307 . S
O215 Zn208 1.919 . S
O215 C226 1.253 . S
O216 Zn210 1.941 . S
O216 C226 1.283 . S
O217 Zn210 1.965 . S
O217 C225 1.303 1_554 S
O218 Zn211 1.938 . S
O218 C225 1.247 . S
O219 Zn211 1.906 . S
O219 C227 1.304 . S
O220 Zn208 1.924 . S
O220 C228 1.311 . S
O221 Zn212 1.977 . S
O221 C227 1.272 . S
O222 Zn212 1.910 . S
O222 C228 1.231 1_556 S
C223 O207 1.225 . S
C223 O229 1.298 1_554 S
C224 O213 1.226 1_546 S
C224 O214 1.307 . S
C225 O217 1.303 1_556 S
C225 O218 1.247 . S
C226 O215 1.253 . S
C226 O216 1.283 . S
C227 O219 1.304 . S
C227 O221 1.272 . S
C228 O220 1.311 . S
C228 O222 1.231 1_554 S
O229 Zn211 1.953 . S
O229 C223 1.298 1_556 S
O230 Zn231 1.953 . S
O230 C246 1.225 . S
Zn231 O230 1.953 . S
Zn231 O232 1.949 . S
Zn231 O238 1.919 . S
Zn231 O243 1.924 . S
O232 Zn231 1.949 . S
O232 Zn233 1.923 1_565 S
O232 Zn234 1.950 . S
O232 Zn235 1.945 . S
Zn233 O232 1.923 1_545 S
Zn233 O236 1.933 . S
Zn233 O239 1.941 . S
Zn233 O240 1.965 . S
Zn234 O232 1.950 . S
Zn234 O241 1.938 1_565 S
Zn234 O242 1.906 . S
Zn234 O252 1.953 . S
Zn235 O232 1.945 . S
Zn235 O237 1.932 1_565 S
Zn235 O244 1.977 . S
Zn235 O245 1.910 . S
O236 Zn233 1.933 . S
O236 C247 1.226 . S
O237 Zn235 1.932 1_545 S
O237 C247 1.307 . S
O238 Zn231 1.919 . S
O238 C249 1.253 . S
O239 Zn233 1.941 . S
O239 C249 1.283 1_545 S
O240 Zn233 1.965 . S
O240 C248 1.303 . S
O241 Zn234 1.938 1_545 S
O241 C248 1.247 . S
O242 Zn234 1.906 . S
O242 C250 1.304 . S
O243 Zn231 1.924 . S
O243 C251 1.311 . S
O244 Zn235 1.977 . S
O244 C250 1.272 . S
O245 Zn235 1.910 . S
O245 C251 1.231 . S
C246 O230 1.225 . S
C246 O252 1.298 . S
C247 O236 1.226 . S
C247 O237 1.307 . S
C248 O240 1.303 . S
C248 O241 1.247 . S
C249 O238 1.253 . S
C249 O239 1.283 1_565 S
C250 O242 1.304 . S
C250 O244 1.272 . S
C251 O243 1.311 . S
C251 O245 1.231 . S
O252 Zn234 1.953 . S
O252 C246 1.298 . S
O253 Zn254 1.953 . S
O253 C269 1.225 . S
Zn254 O253 1.953 . S
Zn254 O255 1.949 . S
Zn254 O261 1.919 . S
Zn254 O266 1.924 . S
O255 Zn254 1.949 . S
O255 Zn256 1.923 . S
O255 Zn257 1.950 . S
O255 Zn258 1.945 . S
Zn256 O255 1.923 . S
Zn256 O259 1.933 . S
Zn256 O262 1.941 . S
Zn256 O263 1.965 . S
Zn257 O255 1.950 . S
Zn257 O264 1.938 . S
Zn257 O265 1.906 . S
Zn257 O275 1.953 . S
Zn258 O255 1.945 . S
Zn258 O260 1.932 1_545 S
Zn258 O267 1.977 . S
Zn258 O268 1.910 . S
O259 Zn256 1.933 . S
O259 C270 1.226 1_545 S
O260 Zn258 1.932 1_565 S
O260 C270 1.307 . S
O261 Zn254 1.919 . S
O261 C272 1.253 . S
O262 Zn256 1.941 . S
O262 C272 1.283 . S
O263 Zn256 1.965 . S
O263 C271 1.303 . S
O264 Zn257 1.938 . S
O264 C271 1.247 . S
O265 Zn257 1.906 . S
O265 C273 1.304 . S
O266 Zn254 1.924 . S
O266 C274 1.311 . S
O267 Zn258 1.977 . S
O267 C273 1.272 . S
O268 Zn258 1.910 . S
O268 C274 1.231 . S
C269 O253 1.225 . S
C269 O275 1.298 . S
C270 O259 1.226 1_565 S
C270 O260 1.307 . S
C271 O263 1.303 . S
C271 O264 1.247 . S
C272 O261 1.253 . S
C272 O262 1.283 . S
C273 O265 1.304 . S
C273 O267 1.272 . S
C274 O266 1.311 . S
C274 O268 1.231 . S
O275 Zn257 1.953 . S
O275 C269 1.298 . S
O276 Zn277 1.953 . S
O276 C292 1.225 . S
Zn277 O276 1.953 . S
Zn277 O278 1.949 . S
Zn277 O284 1.919 . S
Zn277 O289 1.924 . S
O278 Zn277 1.949 . S
O278 Zn279 1.923 1_565 S
O278 Zn280 1.950 . S
O278 Zn281 1.945 . S
Zn279 O278 1.923 1_545 S
Zn279 O282 1.933 . S
Zn279 O285 1.941 . S
Zn279 O286 1.965 . S
Zn280 O278 1.950 . S
Zn280 O287 1.938 1_565 S
Zn280 O288 1.906 . S
Zn280 O298 1.953 . S
Zn281 O278 1.945 . S
Zn281 O283 1.932 1_565 S
Zn281 O290 1.977 . S
Zn281 O291 1.910 . S
O282 Zn279 1.933 . S
O282 C293 1.226 . S
O283 Zn281 1.932 1_545 S
O283 C293 1.307 . S
O284 Zn277 1.919 . S
O284 C295 1.253 . S
O285 Zn279 1.941 . S
O285 C295 1.283 1_545 S
O286 Zn279 1.965 . S
O286 C294 1.303 . S
O287 Zn280 1.938 1_545 S
O287 C294 1.247 . S
O288 Zn280 1.906 . S
O288 C296 1.304 . S
O289 Zn277 1.924 . S
O289 C297 1.311 . S
O290 Zn281 1.977 . S
O290 C296 1.272 . S
O291 Zn281 1.910 . S
O291 C297 1.231 . S
C292 O276 1.225 . S
C292 O298 1.298 . S
C293 O282 1.226 . S
C293 O283 1.307 . S
C294 O286 1.303 . S
C294 O287 1.247 . S
C295 O284 1.253 . S
C295 O285 1.283 1_565 S
C296 O288 1.304 . S
C296 O290 1.272 . S
C297 O289 1.311 . S
C297 O291 1.231 . S
O298 Zn280 1.953 . S
O298 C292 1.298 . S
O299 Zn300 1.953 . S
O299 C315 1.225 . S
Zn300 O299 1.953 . S
Zn300 O301 1.938 1_556 S
Zn300 O307 1.919 . S
Zn300 O312 1.924 . S
O301 Zn300 1.938 1_554 S
O301 Zn302 1.918 1_554 S
O301 Zn303 1.960 . S
O301 Zn304 1.951 . S
Zn302 O301 1.918 1_556 S
Zn302 O305 1.933 . S
Zn302 O308 1.941 . S
Zn302 O309 1.965 . S
Zn303 O301 1.960 . S
Zn303 O310 1.938 . S
Zn303 O311 1.906 . S
Zn303 O321 1.953 . S
Zn304 O301 1.951 . S
Zn304 O306 1.932 1_545 S
Zn304 O313 1.977 . S
Zn304 O314 1.910 . S
O305 Zn302 1.933 . S
O305 C316 1.226 1_546 S
O306 Zn304 1.932 1_565 S
O306 C316 1.307 . S
O307 Zn300 1.919 . S
O307 C318 1.253 . S
O308 Zn302 1.941 . S
O308 C318 1.283 . S
O309 Zn302 1.965 . S
O309 C317 1.303 1_556 S
O310 Zn303 1.938 . S
O310 C317 1.247 . S
O311 Zn303 1.906 . S
O311 C319 1.304 . S
O312 Zn300 1.924 . S
O312 C320 1.311 . S
O313 Zn304 1.977 . S
O313 C319 1.272 . S
O314 Zn304 1.910 . S
O314 C320 1.231 1_554 S
C315 O299 1.225 . S
C315 O321 1.298 1_556 S
C316 O305 1.226 1_564 S
C316 O306 1.307 . S
C317 O309 1.303 1_554 S
C317 O310 1.247 . S
C318 O307 1.253 . S
C318 O308 1.283 . S
C319 O311 1.304 . S
C319 O313 1.272 . S
C320 O312 1.311 . S
C320 O314 1.231 1_556 S
O321 Zn303 1.953 . S
O321 C315 1.298 1_554 S
O322 Zn323 1.953 . S
O322 C338 1.225 . S
Zn323 O322 1.953 . S
Zn323 O324 1.949 . S
Zn323 O330 1.919 . S
Zn323 O335 1.924 . S
O324 Zn323 1.949 . S
O324 Zn325 1.923 1_545 S
O324 Zn326 1.950 . S
O324 Zn327 1.945 . S
Zn325 O324 1.923 1_565 S
Zn325 O328 1.933 . S
Zn325 O331 1.941 . S
Zn325 O332 1.965 . S
Zn326 O324 1.950 . S
Zn326 O333 1.938 1_545 S
Zn326 O334 1.906 . S
Zn326 O344 1.953 . S
Zn327 O324 1.945 . S
Zn327 O329 1.932 1_545 S
Zn327 O336 1.977 . S
Zn327 O337 1.910 . S
O328 Zn325 1.933 . S
O328 C339 1.226 . S
O329 Zn327 1.932 1_565 S
O329 C339 1.307 . S
O330 Zn323 1.919 . S
O330 C341 1.253 . S
O331 Zn325 1.941 . S
O331 C341 1.283 1_565 S
O332 Zn325 1.965 . S
O332 C340 1.303 . S
O333 Zn326 1.938 1_565 S
O333 C340 1.247 . S
O334 Zn326 1.906 . S
O334 C342 1.304 . S
O335 Zn323 1.924 . S
O335 C343 1.311 . S
O336 Zn327 1.977 . S
O336 C342 1.272 . S
O337 Zn327 1.910 . S
O337 C343 1.231 . S
C338 O322 1.225 . S
C338 O344 1.298 . S
C339 O328 1.226 . S
C339 O329 1.307 . S
C340 O332 1.303 . S
C340 O333 1.247 . S
C341 O330 1.253 . S
C341 O331 1.283 1_545 S
C342 O334 1.304 . S
C342 O336 1.272 . S
C343 O335 1.311 . S
C343 O337 1.231 . S
O344 Zn326 1.953 . S
O344 C338 1.298 . S
O345 Zn346 1.953 . S
O345 C361 1.225 . S
Zn346 O345 1.953 . S
Zn346 O347 1.949 . S
Zn346 O353 1.919 . S
Zn346 O358 1.924 . S
O347 Zn346 1.949 . S
O347 Zn348 1.923 . S
O347 Zn349 1.950 . S
O347 Zn350 1.945 . S
Zn348 O347 1.923 . S
Zn348 O351 1.933 . S
Zn348 O354 1.941 . S
Zn348 O355 1.965 . S
Zn349 O347 1.950 . S
Zn349 O356 1.938 . S
Zn349 O357 1.906 . S
Zn349 O367 1.953 . S
Zn350 O347 1.945 . S
Zn350 O352 1.932 1_565 S
Zn350 O359 1.977 . S
Zn350 O360 1.910 . S
O351 Zn348 1.933 . S
O351 C362 1.226 1_565 S
O352 Zn350 1.932 1_545 S
O352 C362 1.307 . S
O353 Zn346 1.919 . S
O353 C364 1.253 . S
O354 Zn348 1.941 . S
O354 C364 1.283 . S
O355 Zn348 1.965 . S
O355 C363 1.303 . S
O356 Zn349 1.938 . S
O356 C363 1.247 . S
O357 Zn349 1.906 . S
O357 C365 1.304 . S
O358 Zn346 1.924 . S
O358 C366 1.311 . S
O359 Zn350 1.977 . S
O359 C365 1.272 . S
O360 Zn350 1.910 . S
O360 C366 1.231 . S
C361 O345 1.225 . S
C361 O367 1.298 . S
C362 O351 1.226 1_545 S
C362 O352 1.307 . S
C363 O355 1.303 . S
C363 O356 1.247 . S
C364 O353 1.253 . S
C364 O354 1.283 . S
C365 O357 1.304 . S
C365 O359 1.272 . S
C366 O358 1.311 . S
C366 O360 1.231 . S
O367 Zn349 1.953 . S
O367 C361 1.298 . S
H368 C380 0.930 . S
H369 C382 0.930 . S
H370 C383 0.930 . S
H371 C387 0.959 . S
H372 C387 0.959 . S
H373 C387 0.961 . S
H374 C388 0.960 . S
H375 C388 0.961 . S
H376 C388 0.959 . S
H377 C391 0.929 . S
H378 C392 0.931 . S
H379 C394 0.930 . S
C380 H368 0.930 . S
C380 C381 1.399 . S
C380 C385 1.399 . S
C381 C380 1.399 . S
C381 C382 1.376 . S
C382 H369 0.930 . S
C382 C381 1.376 . S
C382 C383 1.388 . S
C383 H370 0.930 . S
C383 C382 1.388 . S
C383 C384 1.390 . S
C384 C383 1.390 . S
C384 C385 1.394 . S
C384 C390 1.465 . S
C385 C380 1.399 . S
C385 C384 1.394 . S
C385 C386 1.516 . S
C386 C385 1.516 . S
C386 C387 1.502 . S
C386 C388 1.561 . S
C386 C389 1.526 . S
C387 H371 0.959 . S
C387 H372 0.959 . S
C387 H373 0.961 . S
C387 C386 1.502 . S
C388 H374 0.960 . S
C388 H375 0.961 . S
C388 H376 0.959 . S
C388 C386 1.561 . S
C389 C386 1.526 . S
C389 C390 1.396 . S
C389 C394 1.390 . S
C390 C384 1.465 . S
C390 C389 1.396 . S
C390 C391 1.399 . S
C391 H377 0.929 . S
C391 C390 1.399 . S
C391 C392 1.385 . S
C392 H378 0.931 . S
C392 C391 1.385 . S
C392 C393 1.389 . S
C393 C392 1.389 . S
C393 C394 1.387 . S
C394 H379 0.930 . S
C394 C389 1.390 . S
C394 C393 1.387 . S
H395 C407 0.930 . S
H396 C409 0.930 . S
H397 C410 0.930 . S
H398 C414 0.959 . S
H399 C414 0.959 . S
H400 C414 0.961 . S
H401 C415 0.960 . S
H402 C415 0.961 . S
H403 C415 0.959 . S
H404 C418 0.929 . S
H405 C419 0.931 . S
H406 C421 0.930 . S
C407 H395 0.930 . S
C407 C408 1.399 . S
C407 C412 1.399 . S
C408 C407 1.399 . S
C408 C409 1.376 . S
C409 H396 0.930 . S
C409 C408 1.376 . S
C409 C410 1.388 . S
C410 H397 0.930 . S
C410 C409 1.388 . S
C410 C411 1.390 . S
C411 C410 1.390 . S
C411 C412 1.394 . S
C411 C417 1.465 . S
C412 C407 1.399 . S
C412 C411 1.394 . S
C412 C413 1.516 . S
C413 C412 1.516 . S
C413 C414 1.502 . S
C413 C415 1.561 . S
C413 C416 1.526 . S
C414 H398 0.959 . S
C414 H399 0.959 . S
C414 H400 0.961 . S
C414 C413 1.502 . S
C415 H401 0.960 . S
C415 H402 0.961 . S
C415 H403 0.959 . S
C415 C413 1.561 . S
C416 C413 1.526 . S
C416 C417 1.396 . S
C416 C421 1.390 . S
C417 C411 1.465 . S
C417 C416 1.396 . S
C417 C418 1.399 . S
C418 H404 0.929 . S
C418 C417 1.399 . S
C418 C419 1.385 . S
C419 H405 0.931 . S
C419 C418 1.385 . S
C419 C420 1.389 . S
C420 C419 1.389 . S
C420 C421 1.387 . S
C421 H406 0.930 . S
C421 C416 1.390 . S
C421 C420 1.387 . S
H422 C434 0.930 . S
H423 C436 0.930 . S
H424 C437 0.930 . S
H425 C441 0.959 . S
H426 C441 0.959 . S
H427 C441 0.961 . S
H428 C442 0.960 . S
H429 C442 0.961 . S
H430 C442 0.959 . S
H431 C445 0.929 . S
H432 C446 0.931 . S
H433 C448 0.930 1_655 S
C434 H422 0.930 . S
C434 C435 1.399 . S
C434 C439 1.399 . S
C435 C434 1.399 . S
C435 C436 1.376 . S
C436 H423 0.930 . S
C436 C435 1.376 . S
C436 C437 1.388 . S
C437 H424 0.930 . S
C437 C436 1.388 . S
C437 C438 1.390 . S
C438 C437 1.390 . S
C438 C439 1.394 . S
C438 C444 1.465 . S
C439 C434 1.399 . S
C439 C438 1.394 . S
C439 C440 1.516 . S
C440 C439 1.516 . S
C440 C441 1.502 . S
C440 C442 1.561 . S
C440 C443 1.526 . S
C441 H425 0.959 . S
C441 H426 0.959 . S
C441 H427 0.961 . S
C441 C440 1.502 . S
C442 H428 0.960 . S
C442 H429 0.961 . S
C442 H430 0.959 . S
C442 C440 1.561 . S
C443 C440 1.526 . S
C443 C444 1.396 . S
C443 C448 1.390 . S
C444 C438 1.465 . S
C444 C443 1.396 . S
C444 C445 1.399 . S
C445 H431 0.929 . S
C445 C444 1.399 . S
C445 C446 1.385 1_455 S
C446 H432 0.931 . S
C446 C445 1.385 1_655 S
C446 C447 1.389 . S
C447 C446 1.389 . S
C447 C448 1.387 1_655 S
C448 H433 0.930 1_455 S
C448 C443 1.390 . S
C448 C447 1.387 1_455 S
H449 C461 0.930 . S
H450 C463 0.930 . S
H451 C464 0.930 . S
H452 C468 0.959 . S
H453 C468 0.959 . S
H454 C468 0.961 . S
H455 C469 0.960 . S
H456 C469 0.961 . S
H457 C469 0.959 . S
H458 C472 0.929 . S
H459 C473 0.931 . S
H460 C475 0.930 . S
C461 H449 0.930 . S
C461 C462 1.399 1_556 S
C461 C466 1.399 . S
C462 C461 1.399 1_554 S
C462 C463 1.376 . S
C463 H450 0.930 . S
C463 C462 1.376 . S
C463 C464 1.388 . S
C464 H451 0.930 . S
C464 C463 1.388 . S
C464 C465 1.390 . S
C465 C464 1.390 . S
C465 C466 1.394 1_554 S
C465 C471 1.465 . S
C466 C461 1.399 . S
C466 C465 1.394 1_556 S
C466 C467 1.516 . S
C467 C466 1.516 . S
C467 C468 1.502 . S
C467 C469 1.561 . S
C467 C470 1.526 . S
C468 H452 0.959 . S
C468 H453 0.959 . S
C468 H454 0.961 . S
C468 C467 1.502 . S
C469 H455 0.960 . S
C469 H456 0.961 . S
C469 H457 0.959 . S
C469 C467 1.561 . S
C470 C467 1.526 . S
C470 C471 1.396 1_556 S
C470 C475 1.390 . S
C471 C465 1.465 . S
C471 C470 1.396 1_554 S
C471 C472 1.399 . S
C472 H458 0.929 . S
C472 C471 1.399 . S
C472 C473 1.385 . S
C473 H459 0.931 . S
C473 C472 1.385 . S
C473 C474 1.430 . S
C474 C473 1.430 . S
C474 C475 1.357 1_554 S
C475 H460 0.930 . S
C475 C470 1.390 . S
C475 C474 1.357 1_556 S
H476 C488 0.930 . S
H477 C490 0.930 . S
H478 C491 0.930 . S
H479 C495 0.959 . S
H480 C495 0.959 . S
H481 C495 0.961 . S
H482 C496 0.960 . S
H483 C496 0.961 . S
H484 C496 0.959 . S
H485 C499 0.929 . S
H486 C500 0.931 . S
H487 C502 0.930 . S
C488 H476 0.930 . S
C488 C489 1.399 . S
C488 C493 1.399 . S
C489 C488 1.399 . S
C489 C490 1.376 . S
C490 H477 0.930 . S
C490 C489 1.376 . S
C490 C491 1.388 . S
C491 H478 0.930 . S
C491 C490 1.388 . S
C491 C492 1.390 . S
C492 C491 1.390 . S
C492 C493 1.394 . S
C492 C498 1.465 . S
C493 C488 1.399 . S
C493 C492 1.394 . S
C493 C494 1.516 . S
C494 C493 1.516 . S
C494 C495 1.502 . S
C494 C496 1.561 . S
C494 C497 1.526 . S
C495 H479 0.959 . S
C495 H480 0.959 . S
C495 H481 0.961 . S
C495 C494 1.502 . S
C496 H482 0.960 . S
C496 H483 0.961 . S
C496 H484 0.959 . S
C496 C494 1.561 . S
C497 C494 1.526 . S
C497 C498 1.396 . S
C497 C502 1.390 . S
C498 C492 1.465 . S
C498 C497 1.396 . S
C498 C499 1.399 . S
C499 H485 0.929 . S
C499 C498 1.399 . S
C499 C500 1.385 . S
C500 H486 0.931 . S
C500 C499 1.385 . S
C500 C501 1.389 . S
C501 C500 1.389 . S
C501 C502 1.387 . S
C502 H487 0.930 . S
C502 C497 1.390 . S
C502 C501 1.387 . S
H503 C515 0.930 . S
H504 C517 0.930 . S
H505 C518 0.930 . S
H506 C522 0.959 . S
H507 C522 0.959 . S
H508 C522 0.961 . S
H509 C523 0.960 . S
H510 C523 0.961 . S
H511 C523 0.959 . S
H512 C526 0.929 . S
H513 C527 0.931 . S
H514 C529 0.930 . S
C515 H503 0.930 . S
C515 C516 1.399 . S
C515 C520 1.399 . S
C516 C515 1.399 . S
C516 C517 1.376 . S
C517 H504 0.930 . S
C517 C516 1.376 . S
C517 C518 1.388 . S
C518 H505 0.930 . S
C518 C517 1.388 . S
C518 C519 1.390 . S
C519 C518 1.390 . S
C519 C520 1.394 . S
C519 C525 1.465 . S
C520 C515 1.399 . S
C520 C519 1.394 . S
C520 C521 1.516 . S
C521 C520 1.516 . S
C521 C522 1.502 . S
C521 C523 1.561 . S
C521 C524 1.526 . S
C522 H506 0.959 . S
C522 H507 0.959 . S
C522 H508 0.961 . S
C522 C521 1.502 . S
C523 H509 0.960 . S
C523 H510 0.961 . S
C523 H511 0.959 . S
C523 C521 1.561 . S
C524 C521 1.526 . S
C524 C525 1.396 . S
C524 C529 1.390 . S
C525 C519 1.465 . S
C525 C524 1.396 . S
C525 C526 1.399 . S
C526 H512 0.929 . S
C526 C525 1.399 . S
C526 C527 1.385 . S
C527 H513 0.931 . S
C527 C526 1.385 . S
C527 C528 1.389 . S
C528 C527 1.389 . S
C528 C529 1.387 . S
C529 H514 0.930 . S
C529 C524 1.390 . S
C529 C528 1.387 . S
H530 C542 0.930 . S
H531 C544 0.930 . S
H532 C545 0.930 . S
H533 C549 0.959 . S
H534 C549 0.959 . S
H535 C549 0.961 . S
H536 C550 0.960 . S
H537 C550 0.961 . S
H538 C550 0.959 . S
H539 C553 0.929 . S
H540 C554 0.931 . S
H541 C556 0.930 1_455 S
C542 H530 0.930 . S
C542 C543 1.399 . S
C542 C547 1.399 . S
C543 C542 1.399 . S
C543 C544 1.376 . S
C544 H531 0.930 . S
C544 C543 1.376 . S
C544 C545 1.388 . S
C545 H532 0.930 . S
C545 C544 1.388 . S
C545 C546 1.390 . S
C546 C545 1.390 . S
C546 C547 1.394 . S
C546 C552 1.465 . S
C547 C542 1.399 . S
C547 C546 1.394 . S
C547 C548 1.516 . S
C548 C547 1.516 . S
C548 C549 1.502 . S
C548 C550 1.561 . S
C548 C551 1.526 . S
C549 H533 0.959 . S
C549 H534 0.959 . S
C549 H535 0.961 . S
C549 C548 1.502 . S
C550 H536 0.960 . S
C550 H537 0.961 . S
C550 H538 0.959 . S
C550 C548 1.561 . S
C551 C548 1.526 . S
C551 C552 1.396 . S
C551 C556 1.390 . S
C552 C546 1.465 . S
C552 C551 1.396 . S
C552 C553 1.399 . S
C553 H539 0.929 . S
C553 C552 1.399 . S
C553 C554 1.385 1_655 S
C554 H540 0.931 . S
C554 C553 1.385 1_455 S
C554 C555 1.389 . S
C555 C554 1.389 . S
C555 C556 1.387 1_455 S
C556 H541 0.930 1_655 S
C556 C551 1.390 . S
C556 C555 1.387 1_655 S
H557 C569 0.930 . S
H558 C571 0.930 . S
H559 C572 0.930 . S
H560 C576 0.959 . S
H561 C576 0.959 . S
H562 C576 0.961 . S
H563 C577 0.960 . S
H564 C577 0.961 . S
H565 C577 0.959 . S
H566 C580 0.929 . S
H567 C581 0.931 . S
H568 C583 0.930 . S
C569 H557 0.930 . S
C569 C570 1.372 1_554 S
C569 C574 1.399 . S
C570 C569 1.372 1_556 S
C570 C571 1.412 . S
C571 H558 0.930 . S
C571 C570 1.412 . S
C571 C572 1.388 . S
C572 H559 0.930 . S
C572 C571 1.388 . S
C572 C573 1.390 . S
C573 C572 1.390 . S
C573 C574 1.394 1_556 S
C573 C579 1.465 . S
C574 C569 1.399 . S
C574 C573 1.394 1_554 S
C574 C575 1.516 . S
C575 C574 1.516 . S
C575 C576 1.502 . S
C575 C577 1.561 . S
C575 C578 1.526 . S
C576 H560 0.959 . S
C576 H561 0.959 . S
C576 H562 0.961 . S
C576 C575 1.502 . S
C577 H563 0.960 . S
C577 H564 0.961 . S
C577 H565 0.959 . S
C577 C575 1.561 . S
C578 C575 1.526 . S
C578 C579 1.396 1_554 S
C578 C583 1.390 . S
C579 C573 1.465 . S
C579 C578 1.396 1_556 S
C579 C580 1.399 . S
C580 H566 0.929 . S
C580 C579 1.399 . S
C580 C581 1.385 . S
C581 H567 0.931 . S
C581 C580 1.385 . S
C581 C582 1.389 . S
C582 C581 1.389 . S
C582 C583 1.387 1_556 S
C583 H568 0.930 . S
C583 C578 1.390 . S
C583 C582 1.387 1_554 S
H584 C596 0.930 . S
H585 C598 0.930 . S
H586 C599 0.930 1_545 S
H587 C603 0.959 . S
H588 C603 0.959 . S
H589 C603 0.961 . S
H590 C604 0.960 . S
H591 C604 0.961 . S
H592 C604 0.959 . S
H593 C607 0.929 1_545 S
H594 C608 0.931 1_545 S
H595 C610 0.930 1_455 S
C596 H584 0.930 . S
C596 C597 1.399 . S
C596 C601 1.399 . S
C597 C596 1.399 . S
C597 C598 1.376 . S
C598 H585 0.930 . S
C598 C597 1.376 . S
C598 C599 1.388 . S
C599 H586 0.930 1_565 S
C599 C598 1.388 . S
C599 C600 1.390 . S
C600 C599 1.390 . S
C600 C601 1.394 . S
C600 C606 1.465 . S
C601 C596 1.399 . S
C601 C600 1.394 . S
C601 C602 1.516 . S
C602 C601 1.516 . S
C602 C603 1.502 . S
C602 C604 1.561 . S
C602 C605 1.526 . S
C603 H587 0.959 . S
C603 H588 0.959 . S
C603 H589 0.961 . S
C603 C602 1.502 . S
C604 H590 0.960 . S
C604 H591 0.961 . S
C604 H592 0.959 . S
C604 C602 1.561 . S
C605 C602 1.526 . S
C605 C606 1.396 . S
C605 C610 1.390 . S
C606 C600 1.465 . S
C606 C605 1.396 . S
C606 C607 1.399 . S
C607 H593 0.929 1_565 S
C607 C606 1.399 . S
C607 C608 1.385 1_655 S
C608 H594 0.931 1_565 S
C608 C607 1.385 1_455 S
C608 C609 1.389 . S
C609 C608 1.389 . S
C609 C610 1.387 1_455 S
C610 H595 0.930 1_655 S
C610 C605 1.390 . S
C610 C609 1.387 1_655 S
H611 C623 0.930 . S
H612 C625 0.930 . S
H613 C626 0.930 . S
H614 C630 0.959 . S
H615 C630 0.959 . S
H616 C630 0.961 . S
H617 C631 0.960 . S
H618 C631 0.961 . S
H619 C631 0.959 . S
H620 C634 0.929 . S
H621 C635 0.931 . S
H622 C637 0.930 . S
C623 H611 0.930 . S
C623 C624 1.377 1_556 S
C623 C628 1.399 . S
C624 C623 1.377 1_554 S
C624 C625 1.406 . S
C625 H612 0.930 . S
C625 C624 1.406 . S
C625 C626 1.388 . S
C626 H613 0.930 . S
C626 C625 1.388 . S
C626 C627 1.390 . S
C627 C626 1.390 . S
C627 C628 1.394 1_554 S
C627 C633 1.465 . S
C628 C623 1.399 . S
C628 C627 1.394 1_556 S
C628 C629 1.516 . S
C629 C628 1.516 . S
C629 C630 1.502 . S
C629 C631 1.561 . S
C629 C632 1.526 . S
C630 H614 0.959 . S
C630 H615 0.959 . S
C630 H616 0.961 . S
C630 C629 1.502 . S
C631 H617 0.960 . S
C631 H618 0.961 . S
C631 H619 0.959 . S
C631 C629 1.561 . S
C632 C629 1.526 . S
C632 C633 1.396 1_556 S
C632 C637 1.390 . S
C633 C627 1.465 . S
C633 C632 1.396 1_554 S
C633 C634 1.399 . S
C634 H620 0.929 . S
C634 C633 1.399 . S
C634 C635 1.385 . S
C635 H621 0.931 . S
C635 C634 1.385 . S
C635 C636 1.389 . S
C636 C635 1.389 . S
C636 C637 1.387 1_554 S
C637 H622 0.930 . S
C637 C632 1.390 . S
C637 C636 1.387 1_556 S
H638 C650 0.930 1_565 S
H639 C652 0.930 . S
H640 C653 0.930 . S
H641 C657 0.959 . S
H642 C657 0.959 . S
H643 C657 0.961 . S
H644 C658 0.960 . S
H645 C658 0.961 . S
H646 C658 0.959 1_545 S
H647 C661 0.929 . S
H648 C662 0.931 . S
H649 C664 0.930 . S
C650 H638 0.930 1_545 S
C650 C651 1.399 . S
C650 C655 1.399 . S
C651 C650 1.399 . S
C651 C652 1.376 . S
C652 H639 0.930 . S
C652 C651 1.376 . S
C652 C653 1.388 . S
C653 H640 0.930 . S
C653 C652 1.388 . S
C653 C654 1.390 . S
C654 C653 1.390 . S
C654 C655 1.394 . S
C654 C660 1.465 . S
C655 C650 1.399 . S
C655 C654 1.394 . S
C655 C656 1.516 . S
C656 C655 1.516 . S
C656 C657 1.502 1_545 S
C656 C658 1.561 1_545 S
C656 C659 1.526 . S
C657 H641 0.959 . S
C657 H642 0.959 . S
C657 H643 0.961 . S
C657 C656 1.502 1_565 S
C658 H644 0.960 . S
C658 H645 0.961 . S
C658 H646 0.959 1_565 S
C658 C656 1.561 1_565 S
C659 C656 1.526 . S
C659 C660 1.396 . S
C659 C664 1.390 . S
C660 C654 1.465 . S
C660 C659 1.396 . S
C660 C661 1.399 . S
C661 H647 0.929 . S
C661 C660 1.399 . S
C661 C662 1.385 . S
C662 H648 0.931 . S
C662 C661 1.385 . S
C662 C663 1.389 . S
C663 C662 1.389 . S
C663 C664 1.387 . S
C664 H649 0.930 . S
C664 C659 1.390 . S
C664 C663 1.387 . S
H665 C677 0.930 . S
H666 C679 0.930 . S
H667 C680 0.930 . S
H668 C684 0.959 . S
H669 C684 0.959 . S
H670 C684 0.961 . S
H671 C685 0.960 . S
H672 C685 0.961 . S
H673 C685 0.959 . S
H674 C688 0.929 . S
H675 C689 0.931 . S
H676 C691 0.930 . S
C677 H665 0.930 . S
C677 C678 1.399 . S
C677 C682 1.399 . S
C678 C677 1.399 . S
C678 C679 1.376 . S
C679 H666 0.930 . S
C679 C678 1.376 . S
C679 C680 1.388 . S
C680 H667 0.930 . S
C680 C679 1.388 . S
C680 C681 1.390 . S
C681 C680 1.390 . S
C681 C682 1.394 . S
C681 C687 1.465 . S
C682 C677 1.399 . S
C682 C681 1.394 . S
C682 C683 1.516 . S
C683 C682 1.516 . S
C683 C684 1.502 . S
C683 C685 1.561 . S
C683 C686 1.526 . S
C684 H668 0.959 . S
C684 H669 0.959 . S
C684 H670 0.961 . S
C684 C683 1.502 . S
C685 H671 0.960 . S
C685 H672 0.961 . S
C685 H673 0.959 . S
C685 C683 1.561 . S
C686 C683 1.526 . S
C686 C687 1.396 . S
C686 C691 1.390 . S
C687 C681 1.465 . S
C687 C686 1.396 . S
C687 C688 1.399 . S
C688 H674 0.929 . S
C688 C687 1.399 . S
C688 C689 1.385 . S
C689 H675 0.931 . S
C689 C688 1.385 . S
C689 C690 1.389 . S
C690 C689 1.389 . S
C690 C691 1.387 . S
C691 H676 0.930 . S
C691 C686 1.390 . S
C691 C690 1.387 . S
H692 C704 0.930 1_665 S
H693 C706 0.930 . S
H694 C707 0.930 . S
H695 C711 0.959 . S
H696 C711 0.959 . S
H697 C711 0.961 . S
H698 C712 0.960 . S
H699 C712 0.961 . S
H700 C712 0.959 1_545 S
H701 C715 0.929 . S
H702 C716 0.931 . S
H703 C718 0.930 . S
C704 H692 0.930 1_445 S
C704 C705 1.399 1_455 S
C704 C709 1.399 . S
C705 C704 1.399 1_655 S
C705 C706 1.376 . S
C706 H693 0.930 . S
C706 C705 1.376 . S
C706 C707 1.388 1_655 S
C707 H694 0.930 . S
C707 C706 1.388 1_455 S
C707 C708 1.390 . S
C708 C707 1.390 . S
C708 C709 1.394 . S
C708 C714 1.465 . S
C709 C704 1.399 . S
C709 C708 1.394 . S
C709 C710 1.516 . S
C710 C709 1.516 . S
C710 C711 1.502 1_545 S
C710 C712 1.561 1_545 S
C710 C713 1.526 . S
C711 H695 0.959 . S
C711 H696 0.959 . S
C711 H697 0.961 . S
C711 C710 1.502 1_565 S
C712 H698 0.960 . S
C712 H699 0.961 . S
C712 H700 0.959 1_565 S
C712 C710 1.561 1_565 S
C713 C710 1.526 . S
C713 C714 1.396 . S
C713 C718 1.390 . S
C714 C708 1.465 . S
C714 C713 1.396 . S
C714 C715 1.399 . S
C715 H701 0.929 . S
C715 C714 1.399 . S
C715 C716 1.385 . S
C716 H702 0.931 . S
C716 C715 1.385 . S
C716 C717 1.389 . S
C717 C716 1.389 . S
C717 C718 1.387 . S
C718 H703 0.930 . S
C718 C713 1.390 . S
C718 C717 1.387 . S
H719 C731 0.930 . S
H720 C733 0.930 . S
H721 C734 0.930 . S
H722 C738 0.959 . S
H723 C738 0.959 . S
H724 C738 0.961 . S
H725 C739 0.960 . S
H726 C739 0.961 . S
H727 C739 0.959 . S
H728 C742 0.929 . S
H729 C743 0.931 . S
H730 C745 0.930 . S
C731 H719 0.930 . S
C731 C732 1.372 1_554 S
C731 C736 1.399 . S
C732 C731 1.372 1_556 S
C732 C733 1.412 . S
C733 H720 0.930 . S
C733 C732 1.412 . S
C733 C734 1.388 . S
C734 H721 0.930 . S
C734 C733 1.388 . S
C734 C735 1.390 . S
C735 C734 1.390 . S
C735 C736 1.394 1_556 S
C735 C741 1.465 . S
C736 C731 1.399 . S
C736 C735 1.394 1_554 S
C736 C737 1.516 . S
C737 C736 1.516 . S
C737 C738 1.502 . S
C737 C739 1.561 . S
C737 C740 1.526 . S
C738 H722 0.959 . S
C738 H723 0.959 . S
C738 H724 0.961 . S
C738 C737 1.502 . S
C739 H725 0.960 . S
C739 H726 0.961 . S
C739 H727 0.959 . S
C739 C737 1.561 . S
C740 C737 1.526 . S
C740 C741 1.396 1_554 S
C740 C745 1.390 . S
C741 C735 1.465 . S
C741 C740 1.396 1_556 S
C741 C742 1.399 . S
C742 H728 0.929 . S
C742 C741 1.399 . S
C742 C743 1.385 . S
C743 H729 0.931 . S
C743 C742 1.385 . S
C743 C744 1.389 . S
C744 C743 1.389 . S
C744 C745 1.387 1_556 S
C745 H730 0.930 . S
C745 C740 1.390 . S
C745 C744 1.387 1_554 S
H746 C758 0.930 . S
H747 C760 0.930 1_545 S
H748 C761 0.930 1_545 S
H749 C765 0.959 . S
H750 C765 0.959 . S
H751 C765 0.961 . S
H752 C766 0.960 . S
H753 C766 0.961 . S
H754 C766 0.959 . S
H755 C769 0.929 1_545 S
H756 C770 0.931 1_545 S
H757 C772 0.930 . S
C758 H746 0.930 . S
C758 C759 1.399 . S
C758 C763 1.399 . S
C759 C758 1.399 . S
C759 C760 1.376 . S
C760 H747 0.930 1_565 S
C760 C759 1.376 . S
C760 C761 1.388 . S
C761 H748 0.930 1_565 S
C761 C760 1.388 . S
C761 C762 1.390 . S
C762 C761 1.390 . S
C762 C763 1.394 . S
C762 C768 1.465 . S
C763 C758 1.399 . S
C763 C762 1.394 . S
C763 C764 1.516 . S
C764 C763 1.516 . S
C764 C765 1.502 . S
C764 C766 1.561 . S
C764 C767 1.526 . S
C765 H749 0.959 . S
C765 H750 0.959 . S
C765 H751 0.961 . S
C765 C764 1.502 . S
C766 H752 0.960 . S
C766 H753 0.961 . S
C766 H754 0.959 . S
C766 C764 1.561 . S
C767 C764 1.526 . S
C767 C768 1.396 . S
C767 C772 1.390 . S
C768 C762 1.465 . S
C768 C767 1.396 . S
C768 C769 1.399 . S
C769 H755 0.929 1_565 S
C769 C768 1.399 . S
C769 C770 1.385 . S
C770 H756 0.931 1_565 S
C770 C769 1.385 . S
C770 C771 1.389 . S
C771 C770 1.389 . S
C771 C772 1.387 . S
C772 H757 0.930 . S
C772 C767 1.390 . S
C772 C771 1.387 . S
H773 C785 0.930 . S
H774 C787 0.930 . S
H775 C788 0.930 . S
H776 C792 0.959 . S
H777 C792 0.959 . S
H778 C792 0.961 . S
H779 C793 0.960 . S
H780 C793 0.961 . S
H781 C793 0.959 . S
H782 C796 0.929 . S
H783 C797 0.931 . S
H784 C799 0.930 . S
C785 H773 0.930 . S
C785 C786 1.399 . S
C785 C790 1.399 . S
C786 C785 1.399 . S
C786 C787 1.376 . S
C787 H774 0.930 . S
C787 C786 1.376 . S
C787 C788 1.388 . S
C788 H775 0.930 . S
C788 C787 1.388 . S
C788 C789 1.390 . S
C789 C788 1.390 . S
C789 C790 1.394 . S
C789 C795 1.465 . S
C790 C785 1.399 . S
C790 C789 1.394 . S
C790 C791 1.516 . S
C791 C790 1.516 . S
C791 C792 1.502 . S
C791 C793 1.561 . S
C791 C794 1.526 . S
C792 H776 0.959 . S
C792 H777 0.959 . S
C792 H778 0.961 . S
C792 C791 1.502 . S
C793 H779 0.960 . S
C793 H780 0.961 . S
C793 H781 0.959 . S
C793 C791 1.561 . S
C794 C791 1.526 . S
C794 C795 1.396 . S
C794 C799 1.390 . S
C795 C789 1.465 . S
C795 C794 1.396 . S
C795 C796 1.399 . S
C796 H782 0.929 . S
C796 C795 1.399 . S
C796 C797 1.385 . S
C797 H783 0.931 . S
C797 C796 1.385 . S
C797 C798 1.389 . S
C798 C797 1.389 . S
C798 C799 1.387 . S
C799 H784 0.930 . S
C799 C794 1.390 . S
C799 C798 1.387 . S
H800 C812 0.930 . S
H801 C814 0.930 . S
H802 C815 0.930 . S
H803 C819 0.959 . S
H804 C819 0.959 . S
H805 C819 0.961 . S
H806 C820 0.960 . S
H807 C820 0.961 . S
H808 C820 0.959 . S
H809 C823 0.929 . S
H810 C824 0.931 . S
H811 C826 0.930 . S
C812 H800 0.930 . S
C812 C813 1.399 . S
C812 C817 1.399 . S
C813 C812 1.399 . S
C813 C814 1.376 . S
C814 H801 0.930 . S
C814 C813 1.376 . S
C814 C815 1.388 . S
C815 H802 0.930 . S
C815 C814 1.388 . S
C815 C816 1.390 . S
C816 C815 1.390 . S
C816 C817 1.394 . S
C816 C822 1.465 . S
C817 C812 1.399 . S
C817 C816 1.394 . S
C817 C818 1.516 . S
C818 C817 1.516 . S
C818 C819 1.502 . S
C818 C820 1.561 . S
C818 C821 1.526 . S
C819 H803 0.959 . S
C819 H804 0.959 . S
C819 H805 0.961 . S
C819 C818 1.502 . S
C820 H806 0.960 . S
C820 H807 0.961 . S
C820 H808 0.959 . S
C820 C818 1.561 . S
C821 C818 1.526 . S
C821 C822 1.396 . S
C821 C826 1.390 . S
C822 C816 1.465 . S
C822 C821 1.396 . S
C822 C823 1.399 . S
C823 H809 0.929 . S
C823 C822 1.399 . S
C823 C824 1.385 . S
C824 H810 0.931 . S
C824 C823 1.385 . S
C824 C825 1.389 . S
C825 C824 1.389 . S
C825 C826 1.387 . S
C826 H811 0.930 . S
C826 C821 1.390 . S
C826 C825 1.387 . S
H827 C839 0.930 . S
H828 C841 0.930 . S
H829 C842 0.930 . S
H830 C846 0.959 . S
H831 C846 0.959 1_655 S
H832 C846 0.961 . S
H833 C847 0.960 1_455 S
H834 C847 0.961 . S
H835 C847 0.959 . S
H836 C850 0.929 . S
H837 C851 0.931 . S
H838 C853 0.930 . S
C839 H827 0.930 . S
C839 C840 1.399 . S
C839 C844 1.399 . S
C840 C839 1.399 . S
C840 C841 1.376 . S
C841 H828 0.930 . S
C841 C840 1.376 . S
C841 C842 1.388 . S
C842 H829 0.930 . S
C842 C841 1.388 . S
C842 C843 1.390 . S
C843 C842 1.390 . S
C843 C844 1.394 . S
C843 C849 1.465 1_455 S
C844 C839 1.399 . S
C844 C843 1.394 . S
C844 C845 1.516 1_455 S
C845 C844 1.516 1_655 S
C845 C846 1.502 1_655 S
C845 C847 1.561 . S
C845 C848 1.526 . S
C846 H830 0.959 . S
C846 H831 0.959 1_455 S
C846 H832 0.961 . S
C846 C845 1.502 1_455 S
C847 H833 0.960 1_655 S
C847 H834 0.961 . S
C847 H835 0.959 . S
C847 C845 1.561 . S
C848 C845 1.526 . S
C848 C849 1.396 . S
C848 C853 1.390 . S
C849 C843 1.465 1_655 S
C849 C848 1.396 . S
C849 C850 1.399 . S
C850 H836 0.929 . S
C850 C849 1.399 . S
C850 C851 1.385 . S
C851 H837 0.931 . S
C851 C850 1.385 . S
C851 C852 1.389 . S
C852 C851 1.389 . S
C852 C853 1.387 . S
C853 H838 0.930 . S
C853 C848 1.390 . S
C853 C852 1.387 . S
H854 C866 0.930 . S
H855 C868 0.930 . S
H856 C869 0.930 . S
H857 C873 0.959 . S
H858 C873 0.959 . S
H859 C873 0.961 . S
H860 C874 0.960 . S
H861 C874 0.961 . S
H862 C874 0.959 . S
H863 C877 0.929 . S
H864 C878 0.931 . S
H865 C880 0.930 . S
C866 H854 0.930 . S
C866 C867 1.399 . S
C866 C871 1.399 . S
C867 C866 1.399 . S
C867 C868 1.376 . S
C868 H855 0.930 . S
C868 C867 1.376 . S
C868 C869 1.388 . S
C869 H856 0.930 . S
C869 C868 1.388 . S
C869 C870 1.390 . S
C870 C869 1.390 . S
C870 C871 1.394 . S
C870 C876 1.465 . S
C871 C866 1.399 . S
C871 C870 1.394 . S
C871 C872 1.516 . S
C872 C871 1.516 . S
C872 C873 1.502 . S
C872 C874 1.561 . S
C872 C875 1.526 . S
C873 H857 0.959 . S
C873 H858 0.959 . S
C873 H859 0.961 . S
C873 C872 1.502 . S
C874 H860 0.960 . S
C874 H861 0.961 . S
C874 H862 0.959 . S
C874 C872 1.561 . S
C875 C872 1.526 . S
C875 C876 1.396 . S
C875 C880 1.390 . S
C876 C870 1.465 . S
C876 C875 1.396 . S
C876 C877 1.399 . S
C877 H863 0.929 . S
C877 C876 1.399 . S
C877 C878 1.385 . S
C878 H864 0.931 . S
C878 C877 1.385 . S
C878 C879 1.389 . S
C879 C878 1.389 . S
C879 C880 1.387 . S
C880 H865 0.930 . S
C880 C875 1.390 . S
C880 C879 1.387 . S
H881 C893 0.930 . S
H882 C895 0.930 . S
H883 C896 0.930 . S
H884 C900 0.959 . S
H885 C900 0.959 . S
H886 C900 0.961 . S
H887 C901 0.960 . S
H888 C901 0.961 . S
H889 C901 0.959 . S
H890 C904 0.929 . S
H891 C905 0.931 . S
H892 C907 0.930 . S
C893 H881 0.930 . S
C893 C894 1.399 1_554 S
C893 C898 1.399 . S
C894 C893 1.399 1_556 S
C894 C895 1.376 . S
C895 H882 0.930 . S
C895 C894 1.376 . S
C895 C896 1.388 . S
C896 H883 0.930 . S
C896 C895 1.388 . S
C896 C897 1.390 . S
C897 C896 1.390 . S
C897 C898 1.394 1_556 S
C897 C903 1.465 . S
C898 C893 1.399 . S
C898 C897 1.394 1_554 S
C898 C899 1.516 . S
C899 C898 1.516 . S
C899 C900 1.502 . S
C899 C901 1.561 . S
C899 C902 1.526 . S
C900 H884 0.959 . S
C900 H885 0.959 . S
C900 H886 0.961 . S
C900 C899 1.502 . S
C901 H887 0.960 . S
C901 H888 0.961 . S
C901 H889 0.959 . S
C901 C899 1.561 . S
C902 C899 1.526 . S
C902 C903 1.396 1_554 S
C902 C907 1.390 . S
C903 C897 1.465 . S
C903 C902 1.396 1_556 S
C903 C904 1.399 . S
C904 H890 0.929 . S
C904 C903 1.399 . S
C904 C905 1.385 . S
C905 H891 0.931 . S
C905 C904 1.385 . S
C905 C906 1.389 1_556 S
C906 C905 1.389 1_554 S
C906 C907 1.387 . S
C907 H892 0.930 . S
C907 C902 1.390 . S
C907 C906 1.387 . S
H908 C920 0.930 . S
H909 C922 0.930 . S
H910 C923 0.930 . S
H911 C927 0.959 . S
H912 C927 0.959 . S
H913 C927 0.961 . S
H914 C928 0.960 . S
H915 C928 0.961 . S
H916 C928 0.959 . S
H917 C931 0.929 . S
H918 C932 0.931 . S
H919 C934 0.930 . S
C920 H908 0.930 . S
C920 C921 1.399 . S
C920 C925 1.399 . S
C921 C920 1.399 . S
C921 C922 1.376 . S
C922 H909 0.930 . S
C922 C921 1.376 . S
C922 C923 1.388 . S
C923 H910 0.930 . S
C923 C922 1.388 . S
C923 C924 1.390 . S
C924 C923 1.390 . S
C924 C925 1.394 . S
C924 C930 1.465 . S
C925 C920 1.399 . S
C925 C924 1.394 . S
C925 C926 1.516 . S
C926 C925 1.516 . S
C926 C927 1.502 . S
C926 C928 1.561 . S
C926 C929 1.526 . S
C927 H911 0.959 . S
C927 H912 0.959 . S
C927 H913 0.961 . S
C927 C926 1.502 . S
C928 H914 0.960 . S
C928 H915 0.961 . S
C928 H916 0.959 . S
C928 C926 1.561 . S
C929 C926 1.526 . S
C929 C930 1.396 . S
C929 C934 1.390 . S
C930 C924 1.465 . S
C930 C929 1.396 . S
C930 C931 1.399 . S
C931 H917 0.929 . S
C931 C930 1.399 . S
C931 C932 1.385 . S
C932 H918 0.931 . S
C932 C931 1.385 . S
C932 C933 1.389 . S
C933 C932 1.389 . S
C933 C934 1.387 . S
C934 H919 0.930 . S
C934 C929 1.390 . S
C934 C933 1.387 . S
H935 C947 0.930 . S
H936 C949 0.930 . S
H937 C950 0.930 . S
H938 C954 0.959 . S
H939 C954 0.959 . S
H940 C954 0.961 . S
H941 C955 0.960 . S
H942 C955 0.961 . S
H943 C955 0.959 . S
H944 C958 0.929 . S
H945 C959 0.931 . S
H946 C961 0.930 . S
C947 H935 0.930 . S
C947 C948 1.399 . S
C947 C952 1.399 . S
C948 C947 1.399 . S
C948 C949 1.376 . S
C949 H936 0.930 . S
C949 C948 1.376 . S
C949 C950 1.388 . S
C950 H937 0.930 . S
C950 C949 1.388 . S
C950 C951 1.390 . S
C951 C950 1.390 . S
C951 C952 1.394 . S
C951 C957 1.465 . S
C952 C947 1.399 . S
C952 C951 1.394 . S
C952 C953 1.516 . S
C953 C952 1.516 . S
C953 C954 1.502 . S
C953 C955 1.561 . S
C953 C956 1.526 . S
C954 H938 0.959 . S
C954 H939 0.959 . S
C954 H940 0.961 . S
C954 C953 1.502 . S
C955 H941 0.960 . S
C955 H942 0.961 . S
C955 H943 0.959 . S
C955 C953 1.561 . S
C956 C953 1.526 . S
C956 C957 1.396 . S
C956 C961 1.390 . S
C957 C951 1.465 . S
C957 C956 1.396 . S
C957 C958 1.399 . S
C958 H944 0.929 . S
C958 C957 1.399 . S
C958 C959 1.385 . S
C959 H945 0.931 . S
C959 C958 1.385 . S
C959 C960 1.389 . S
C960 C959 1.389 . S
C960 C961 1.387 . S
C961 H946 0.930 . S
C961 C956 1.390 . S
C961 C960 1.387 . S
H962 C974 0.926 1_545 S
H963 C976 0.930 . S
H964 C977 0.930 . S
H965 C981 0.959 . S
H966 C981 0.959 . S
H967 C981 0.961 . S
H968 C982 0.960 . S
H969 C982 0.969 . S
H970 C982 0.959 . S
H971 C985 0.929 . S
H972 C986 0.931 . S
H973 C988 0.930 . S
C974 H962 0.926 1_565 S
C974 C975 1.403 1_556 S
C974 C979 1.399 1_565 S
C975 C974 1.403 1_554 S
C975 C976 1.376 . S
C976 H963 0.930 . S
C976 C975 1.376 . S
C976 C977 1.388 . S
C977 H964 0.930 . S
C977 C976 1.388 . S
C977 C978 1.390 . S
C978 C977 1.390 . S
C978 C979 1.392 1_564 S
C978 C984 1.465 . S
C979 C974 1.399 1_545 S
C979 C978 1.392 1_546 S
C979 C980 1.518 . S
C980 C979 1.518 . S
C980 C981 1.502 . S
C980 C982 1.561 1_545 S
C980 C983 1.526 . S
C981 H965 0.959 . S
C981 H966 0.959 . S
C981 H967 0.961 . S
C981 C980 1.502 . S
C982 H968 0.960 . S
C982 H969 0.969 . S
C982 H970 0.959 . S
C982 C980 1.561 1_565 S
C983 C980 1.526 . S
C983 C984 1.396 1_546 S
C983 C988 1.390 . S
C984 C978 1.465 . S
C984 C983 1.396 1_564 S
C984 C985 1.399 . S
C985 H971 0.929 . S
C985 C984 1.399 . S
C985 C986 1.385 . S
C986 H972 0.931 . S
C986 C985 1.385 . S
C986 C987 1.389 1_564 S
C987 C986 1.389 1_546 S
C987 C988 1.387 . S
C988 H973 0.930 . S
C988 C983 1.390 . S
C988 C987 1.387 . S
H989 C1001 0.930 1_545 S
H990 C1003 0.930 . S
H991 C1004 0.930 . S
H992 C1008 0.959 . S
H993 C1008 0.959 1_655 S
H994 C1008 0.961 . S
H995 C1009 0.950 1_455 S
H996 C1009 0.969 . S
H997 C1009 0.962 . S
H998 C1012 0.929 . S
H999 C1013 0.931 . S
H1000 C1015 0.930 . S
C1001 H989 0.930 1_565 S
C1001 C1002 1.399 . S
C1001 C1006 1.399 . S
C1002 C1001 1.399 . S
C1002 C1003 1.376 . S
C1003 H990 0.930 . S
C1003 C1002 1.376 . S
C1003 C1004 1.388 . S
C1004 H991 0.930 . S
C1004 C1003 1.388 . S
C1004 C1005 1.390 . S
C1005 C1004 1.390 . S
C1005 C1006 1.394 . S
C1005 C1011 1.465 1_455 S
C1006 C1001 1.399 . S
C1006 C1005 1.394 . S
C1006 C1007 1.516 1_565 S
C1007 C1006 1.516 1_545 S
C1007 C1008 1.502 . S
C1007 C1009 1.560 1_445 S
C1007 C1010 1.526 1_455 S
C1008 H992 0.959 . S
C1008 H993 0.959 1_455 S
C1008 H994 0.961 . S
C1008 C1007 1.502 . S
C1009 H995 0.950 1_655 S
C1009 H996 0.969 . S
C1009 H997 0.962 . S
C1009 C1007 1.560 1_665 S
C1010 C1007 1.526 1_655 S
C1010 C1011 1.396 1_545 S
C1010 C1015 1.390 . S
C1011 C1005 1.465 1_655 S
C1011 C1010 1.396 1_565 S
C1011 C1012 1.399 . S
C1012 H998 0.929 . S
C1012 C1011 1.399 . S
C1012 C1013 1.385 . S
C1013 H999 0.931 . S
C1013 C1012 1.385 . S
C1013 C1014 1.389 1_565 S
C1014 C1013 1.389 1_545 S
C1014 C1015 1.387 . S
C1015 H1000 0.930 . S
C1015 C1010 1.390 . S
C1015 C1014 1.387 . S
H1016 C1028 0.930 . S
H1017 C1030 0.930 . S
H1018 C1031 0.930 . S
H1019 C1035 0.959 . S
H1020 C1035 0.959 . S
H1021 C1035 0.961 . S
H1022 C1036 0.960 . S
H1023 C1036 0.961 . S
H1024 C1036 0.959 . S
H1025 C1039 0.929 . S
H1026 C1040 0.931 . S
H1027 C1042 0.930 . S
C1028 H1016 0.930 . S
C1028 C1029 1.399 . S
C1028 C1033 1.399 . S
C1029 C1028 1.399 . S
C1029 C1030 1.376 . S
C1030 H1017 0.930 . S
C1030 C1029 1.376 . S
C1030 C1031 1.388 . S
C1031 H1018 0.930 . S
C1031 C1030 1.388 . S
C1031 C1032 1.390 . S
C1032 C1031 1.390 . S
C1032 C1033 1.394 . S
C1032 C1038 1.465 . S
C1033 C1028 1.399 . S
C1033 C1032 1.394 . S
C1033 C1034 1.516 . S
C1034 C1033 1.516 . S
C1034 C1035 1.502 . S
C1034 C1036 1.561 . S
C1034 C1037 1.526 . S
C1035 H1019 0.959 . S
C1035 H1020 0.959 . S
C1035 H1021 0.961 . S
C1035 C1034 1.502 . S
C1036 H1022 0.960 . S
C1036 H1023 0.961 . S
C1036 H1024 0.959 . S
C1036 C1034 1.561 . S
C1037 C1034 1.526 . S
C1037 C1038 1.396 . S
C1037 C1042 1.390 . S
C1038 C1032 1.465 . S
C1038 C1037 1.396 . S
C1038 C1039 1.399 . S
C1039 H1025 0.929 . S
C1039 C1038 1.399 . S
C1039 C1040 1.385 . S
C1040 H1026 0.931 . S
C1040 C1039 1.385 . S
C1040 C1041 1.389 . S
C1041 C1040 1.389 . S
C1041 C1042 1.387 . S
C1042 H1027 0.930 . S
C1042 C1037 1.390 . S
C1042 C1041 1.387 . S
H1043 C1055 0.930 . S
H1044 C1057 0.930 . S
H1045 C1058 0.930 . S
H1046 C1062 0.959 . S
H1047 C1062 0.959 . S
H1048 C1062 0.961 . S
H1049 C1063 0.960 . S
H1050 C1063 0.961 . S
H1051 C1063 0.959 . S
H1052 C1066 0.929 . S
H1053 C1067 0.931 . S
H1054 C1069 0.930 . S
C1055 H1043 0.930 . S
C1055 C1056 1.399 . S
C1055 C1060 1.399 . S
C1056 C1055 1.399 . S
C1056 C1057 1.376 . S
C1057 H1044 0.930 . S
C1057 C1056 1.376 . S
C1057 C1058 1.388 . S
C1058 H1045 0.930 . S
C1058 C1057 1.388 . S
C1058 C1059 1.390 . S
C1059 C1058 1.390 . S
C1059 C1060 1.394 . S
C1059 C1065 1.465 . S
C1060 C1055 1.399 . S
C1060 C1059 1.394 . S
C1060 C1061 1.516 . S
C1061 C1060 1.516 . S
C1061 C1062 1.502 . S
C1061 C1063 1.561 . S
C1061 C1064 1.526 . S
C1062 H1046 0.959 . S
C1062 H1047 0.959 . S
C1062 H1048 0.961 . S
C1062 C1061 1.502 . S
C1063 H1049 0.960 . S
C1063 H1050 0.961 . S
C1063 H1051 0.959 . S
C1063 C1061 1.561 . S
C1064 C1061 1.526 . S
C1064 C1065 1.396 . S
C1064 C1069 1.390 . S
C1065 C1059 1.465 . S
C1065 C1064 1.396 . S
C1065 C1066 1.399 . S
C1066 H1052 0.929 . S
C1066 C1065 1.399 . S
C1066 C1067 1.385 . S
C1067 H1053 0.931 . S
C1067 C1066 1.385 . S
C1067 C1068 1.389 . S
C1068 C1067 1.389 . S
C1068 C1069 1.387 . S
C1069 H1054 0.930 . S
C1069 C1064 1.390 . S
C1069 C1068 1.387 . S
H1070 C1082 0.930 . S
H1071 C1084 0.930 . S
H1072 C1085 0.930 . S
H1073 C1089 0.959 . S
H1074 C1089 0.959 . S
H1075 C1089 0.961 . S
H1076 C1090 0.960 . S
H1077 C1090 0.961 . S
H1078 C1090 0.959 . S
H1079 C1093 0.929 . S
H1080 C1094 0.931 . S
H1081 C1096 0.930 . S
C1082 H1070 0.930 . S
C1082 C1083 1.399 . S
C1082 C1087 1.399 . S
C1083 C1082 1.399 . S
C1083 C1084 1.376 . S
C1084 H1071 0.930 . S
C1084 C1083 1.376 . S
C1084 C1085 1.388 . S
C1085 H1072 0.930 . S
C1085 C1084 1.388 . S
C1085 C1086 1.390 . S
C1086 C1085 1.390 . S
C1086 C1087 1.394 . S
C1086 C1092 1.465 . S
C1087 C1082 1.399 . S
C1087 C1086 1.394 . S
C1087 C1088 1.516 . S
C1088 C1087 1.516 . S
C1088 C1089 1.502 . S
C1088 C1090 1.561 . S
C1088 C1091 1.526 . S
C1089 H1073 0.959 . S
C1089 H1074 0.959 . S
C1089 H1075 0.961 . S
C1089 C1088 1.502 . S
C1090 H1076 0.960 . S
C1090 H1077 0.961 . S
C1090 H1078 0.959 . S
C1090 C1088 1.561 . S
C1091 C1088 1.526 . S
C1091 C1092 1.396 . S
C1091 C1096 1.390 . S
C1092 C1086 1.465 . S
C1092 C1091 1.396 . S
C1092 C1093 1.399 . S
C1093 H1079 0.929 . S
C1093 C1092 1.399 . S
C1093 C1094 1.385 . S
C1094 H1080 0.931 . S
C1094 C1093 1.385 . S
C1094 C1095 1.389 . S
C1095 C1094 1.389 . S
C1095 C1096 1.387 . S
C1096 H1081 0.930 . S
C1096 C1091 1.390 . S
C1096 C1095 1.387 . S
H1097 C1109 0.930 . S
H1098 C1111 0.930 . S
H1099 C1112 0.930 . S
H1100 C1116 0.959 . S
H1101 C1116 0.959 . S
H1102 C1116 0.961 . S
H1103 C1117 0.960 . S
H1104 C1117 0.961 . S
H1105 C1117 0.959 . S
H1106 C1120 0.929 . S
H1107 C1121 0.931 . S
H1108 C1123 0.930 . S
C1109 H1097 0.930 . S
C1109 C1110 1.399 . S
C1109 C1114 1.399 . S
C1110 C1109 1.399 . S
C1110 C1111 1.376 . S
C1111 H1098 0.930 . S
C1111 C1110 1.376 . S
C1111 C1112 1.388 . S
C1112 H1099 0.930 . S
C1112 C1111 1.388 . S
C1112 C1113 1.390 . S
C1113 C1112 1.390 . S
C1113 C1114 1.394 . S
C1113 C1119 1.465 . S
C1114 C1109 1.399 . S
C1114 C1113 1.394 . S
C1114 C1115 1.516 . S
C1115 C1114 1.516 . S
C1115 C1116 1.502 . S
C1115 C1117 1.561 . S
C1115 C1118 1.526 . S
C1116 H1100 0.959 . S
C1116 H1101 0.959 . S
C1116 H1102 0.961 . S
C1116 C1115 1.502 . S
C1117 H1103 0.960 . S
C1117 H1104 0.961 . S
C1117 H1105 0.959 . S
C1117 C1115 1.561 . S
C1118 C1115 1.526 . S
C1118 C1119 1.396 . S
C1118 C1123 1.390 . S
C1119 C1113 1.465 . S
C1119 C1118 1.396 . S
C1119 C1120 1.399 . S
C1120 H1106 0.929 . S
C1120 C1119 1.399 . S
C1120 C1121 1.385 . S
C1121 H1107 0.931 . S
C1121 C1120 1.385 . S
C1121 C1122 1.389 . S
C1122 C1121 1.389 . S
C1122 C1123 1.387 . S
C1123 H1108 0.930 . S
C1123 C1118 1.390 . S
C1123 C1122 1.387 . S
H1124 C1136 0.930 . S
H1125 C1138 0.930 . S
H1126 C1139 0.930 . S
H1127 C1143 0.959 . S
H1128 C1143 0.959 . S
H1129 C1143 0.961 . S
H1130 C1144 0.960 . S
H1131 C1144 0.961 . S
H1132 C1144 0.959 . S
H1133 C1147 0.929 . S
H1134 C1148 0.931 . S
H1135 C1150 0.930 . S
C1136 H1124 0.930 . S
C1136 C1137 1.399 . S
C1136 C1141 1.399 . S
C1137 C1136 1.399 . S
C1137 C1138 1.376 . S
C1138 H1125 0.930 . S
C1138 C1137 1.376 . S
C1138 C1139 1.388 . S
C1139 H1126 0.930 . S
C1139 C1138 1.388 . S
C1139 C1140 1.390 . S
C1140 C1139 1.390 . S
C1140 C1141 1.394 . S
C1140 C1146 1.465 . S
C1141 C1136 1.399 . S
C1141 C1140 1.394 . S
C1141 C1142 1.516 . S
C1142 C1141 1.516 . S
C1142 C1143 1.502 . S
C1142 C1144 1.561 . S
C1142 C1145 1.526 . S
C1143 H1127 0.959 . S
C1143 H1128 0.959 . S
C1143 H1129 0.961 . S
C1143 C1142 1.502 . S
C1144 H1130 0.960 . S
C1144 H1131 0.961 . S
C1144 H1132 0.959 . S
C1144 C1142 1.561 . S
C1145 C1142 1.526 . S
C1145 C1146 1.396 . S
C1145 C1150 1.390 . S
C1146 C1140 1.465 . S
C1146 C1145 1.396 . S
C1146 C1147 1.399 . S
C1147 H1133 0.929 . S
C1147 C1146 1.399 . S
C1147 C1148 1.385 . S
C1148 H1134 0.931 . S
C1148 C1147 1.385 . S
C1148 C1149 1.389 . S
C1149 C1148 1.389 . S
C1149 C1150 1.387 . S
C1150 H1135 0.930 . S
C1150 C1145 1.390 . S
C1150 C1149 1.387 . S
H1151 C1163 0.930 . S
H1152 C1165 0.930 . S
H1153 C1166 0.930 . S
H1154 C1170 0.959 . S
H1155 C1170 0.959 . S
H1156 C1170 0.961 . S
H1157 C1171 0.960 . S
H1158 C1171 0.961 . S
H1159 C1171 0.959 . S
H1160 C1174 0.929 . S
H1161 C1175 0.931 . S
H1162 C1177 0.930 . S
C1163 H1151 0.930 . S
C1163 C1164 1.399 . S
C1163 C1168 1.399 . S
C1164 C1163 1.399 . S
C1164 C1165 1.376 . S
C1165 H1152 0.930 . S
C1165 C1164 1.376 . S
C1165 C1166 1.388 . S
C1166 H1153 0.930 . S
C1166 C1165 1.388 . S
C1166 C1167 1.390 . S
C1167 C1166 1.390 . S
C1167 C1168 1.394 . S
C1167 C1173 1.465 . S
C1168 C1163 1.399 . S
C1168 C1167 1.394 . S
C1168 C1169 1.516 . S
C1169 C1168 1.516 . S
C1169 C1170 1.502 . S
C1169 C1171 1.561 . S
C1169 C1172 1.526 . S
C1170 H1154 0.959 . S
C1170 H1155 0.959 . S
C1170 H1156 0.961 . S
C1170 C1169 1.502 . S
C1171 H1157 0.960 . S
C1171 H1158 0.961 . S
C1171 H1159 0.959 . S
C1171 C1169 1.561 . S
C1172 C1169 1.526 . S
C1172 C1173 1.396 . S
C1172 C1177 1.390 . S
C1173 C1167 1.465 . S
C1173 C1172 1.396 . S
C1173 C1174 1.399 . S
C1174 H1160 0.929 . S
C1174 C1173 1.399 . S
C1174 C1175 1.385 . S
C1175 H1161 0.931 . S
C1175 C1174 1.385 . S
C1175 C1176 1.389 . S
C1176 C1175 1.389 . S
C1176 C1177 1.387 . S
C1177 H1162 0.930 . S
C1177 C1172 1.390 . S
C1177 C1176 1.387 . S
H1178 C1190 0.930 . S
H1179 C1192 0.930 . S
H1180 C1193 0.930 . S
H1181 C1197 0.959 . S
H1182 C1197 0.959 . S
H1183 C1197 0.961 . S
H1184 C1198 0.960 . S
H1185 C1198 0.961 . S
H1186 C1198 0.959 . S
H1187 C1201 0.929 . S
H1188 C1202 0.931 . S
H1189 C1204 0.930 . S
C1190 H1178 0.930 . S
C1190 C1191 1.399 . S
C1190 C1195 1.399 . S
C1191 C1190 1.399 . S
C1191 C1192 1.376 . S
C1192 H1179 0.930 . S
C1192 C1191 1.376 . S
C1192 C1193 1.388 . S
C1193 H1180 0.930 . S
C1193 C1192 1.388 . S
C1193 C1194 1.390 . S
C1194 C1193 1.390 . S
C1194 C1195 1.394 . S
C1194 C1200 1.465 . S
C1195 C1190 1.399 . S
C1195 C1194 1.394 . S
C1195 C1196 1.516 . S
C1196 C1195 1.516 . S
C1196 C1197 1.502 . S
C1196 C1198 1.561 . S
C1196 C1199 1.526 . S
C1197 H1181 0.959 . S
C1197 H1182 0.959 . S
C1197 H1183 0.961 . S
C1197 C1196 1.502 . S
C1198 H1184 0.960 . S
C1198 H1185 0.961 . S
C1198 H1186 0.959 . S
C1198 C1196 1.561 . S
C1199 C1196 1.526 . S
C1199 C1200 1.396 . S
C1199 C1204 1.390 . S
C1200 C1194 1.465 . S
C1200 C1199 1.396 . S
C1200 C1201 1.399 . S
C1201 H1187 0.929 . S
C1201 C1200 1.399 . S
C1201 C1202 1.385 . S
C1202 H1188 0.931 . S
C1202 C1201 1.385 . S
C1202 C1203 1.389 . S
C1203 C1202 1.389 . S
C1203 C1204 1.387 . S
C1204 H1189 0.930 . S
C1204 C1199 1.390 . S
C1204 C1203 1.387 . S
H1205 C1217 0.930 . S
H1206 C1219 0.930 . S
H1207 C1220 0.930 . S
H1208 C1224 0.959 . S
H1209 C1224 0.959 . S
H1210 C1224 0.961 . S
H1211 C1225 0.960 . S
H1212 C1225 0.961 . S
H1213 C1225 0.959 . S
H1214 C1228 0.929 . S
H1215 C1229 0.931 . S
H1216 C1231 0.930 . S
C1217 H1205 0.930 . S
C1217 C1218 1.399 . S
C1217 C1222 1.399 . S
C1218 C1217 1.399 . S
C1218 C1219 1.376 . S
C1219 H1206 0.930 . S
C1219 C1218 1.376 . S
C1219 C1220 1.388 . S
C1220 H1207 0.930 . S
C1220 C1219 1.388 . S
C1220 C1221 1.390 . S
C1221 C1220 1.390 . S
C1221 C1222 1.394 . S
C1221 C1227 1.465 . S
C1222 C1217 1.399 . S
C1222 C1221 1.394 . S
C1222 C1223 1.516 . S
C1223 C1222 1.516 . S
C1223 C1224 1.502 . S
C1223 C1225 1.561 . S
C1223 C1226 1.526 . S
C1224 H1208 0.959 . S
C1224 H1209 0.959 . S
C1224 H1210 0.961 . S
C1224 C1223 1.502 . S
C1225 H1211 0.960 . S
C1225 H1212 0.961 . S
C1225 H1213 0.959 . S
C1225 C1223 1.561 . S
C1226 C1223 1.526 . S
C1226 C1227 1.396 . S
C1226 C1231 1.390 . S
C1227 C1221 1.465 . S
C1227 C1226 1.396 . S
C1227 C1228 1.399 . S
C1228 H1214 0.929 . S
C1228 C1227 1.399 . S
C1228 C1229 1.385 . S
C1229 H1215 0.931 . S
C1229 C1228 1.385 . S
C1229 C1230 1.389 . S
C1230 C1229 1.389 . S
C1230 C1231 1.387 . S
C1231 H1216 0.930 . S
C1231 C1226 1.390 . S
C1231 C1230 1.387 . S
H1232 C1244 0.930 . S
H1233 C1246 0.930 . S
H1234 C1247 0.930 . S
H1235 C1251 0.959 . S
H1236 C1251 0.959 . S
H1237 C1251 0.961 . S
H1238 C1252 0.960 . S
H1239 C1252 0.961 . S
H1240 C1252 0.959 . S
H1241 C1255 0.929 . S
H1242 C1256 0.931 . S
H1243 C1258 0.930 . S
C1244 H1232 0.930 . S
C1244 C1245 1.399 1_545 S
C1244 C1249 1.399 1_545 S
C1245 C1244 1.399 1_565 S
C1245 C1246 1.376 . S
C1246 H1233 0.930 . S
C1246 C1245 1.376 . S
C1246 C1247 1.388 . S
C1247 H1234 0.930 . S
C1247 C1246 1.388 . S
C1247 C1248 1.390 . S
C1248 C1247 1.390 . S
C1248 C1249 1.394 . S
C1248 C1254 1.465 . S
C1249 C1244 1.399 1_565 S
C1249 C1248 1.394 . S
C1249 C1250 1.516 . S
C1250 C1249 1.516 . S
C1250 C1251 1.502 . S
C1250 C1252 1.561 1_565 S
C1250 C1253 1.526 . S
C1251 H1235 0.959 . S
C1251 H1236 0.959 . S
C1251 H1237 0.961 . S
C1251 C1250 1.502 . S
C1252 H1238 0.960 . S
C1252 H1239 0.961 . S
C1252 H1240 0.959 . S
C1252 C1250 1.561 1_545 S
C1253 C1250 1.526 . S
C1253 C1254 1.396 . S
C1253 C1258 1.390 . S
C1254 C1248 1.465 . S
C1254 C1253 1.396 . S
C1254 C1255 1.399 . S
C1255 H1241 0.929 . S
C1255 C1254 1.399 . S
C1255 C1256 1.385 . S
C1256 H1242 0.931 . S
C1256 C1255 1.385 . S
C1256 C1257 1.389 . S
C1257 C1256 1.389 . S
C1257 C1258 1.387 . S
C1258 H1243 0.930 . S
C1258 C1253 1.390 . S
C1258 C1257 1.387 . S
H1259 C1271 0.930 . S
H1260 C1273 0.930 . S
H1261 C1274 0.930 . S
H1262 C1278 0.959 . S
H1263 C1278 0.959 . S
H1264 C1278 0.961 . S
H1265 C1279 0.960 . S
H1266 C1279 0.961 . S
H1267 C1279 0.959 . S
H1268 C1282 0.929 . S
H1269 C1283 0.931 . S
H1270 C1285 0.930 . S
C1271 H1259 0.930 . S
C1271 C1272 1.399 . S
C1271 C1276 1.399 . S
C1272 C1271 1.399 . S
C1272 C1273 1.376 . S
C1273 H1260 0.930 . S
C1273 C1272 1.376 . S
C1273 C1274 1.388 . S
C1274 H1261 0.930 . S
C1274 C1273 1.388 . S
C1274 C1275 1.390 . S
C1275 C1274 1.390 . S
C1275 C1276 1.394 . S
C1275 C1281 1.465 . S
C1276 C1271 1.399 . S
C1276 C1275 1.394 . S
C1276 C1277 1.516 . S
C1277 C1276 1.516 . S
C1277 C1278 1.502 . S
C1277 C1279 1.561 1_565 S
C1277 C1280 1.526 . S
C1278 H1262 0.959 . S
C1278 H1263 0.959 . S
C1278 H1264 0.961 . S
C1278 C1277 1.502 . S
C1279 H1265 0.960 . S
C1279 H1266 0.961 . S
C1279 H1267 0.959 . S
C1279 C1277 1.561 1_545 S
C1280 C1277 1.526 . S
C1280 C1281 1.396 . S
C1280 C1285 1.390 . S
C1281 C1275 1.465 . S
C1281 C1280 1.396 . S
C1281 C1282 1.399 . S
C1282 H1268 0.929 . S
C1282 C1281 1.399 . S
C1282 C1283 1.385 . S
C1283 H1269 0.931 . S
C1283 C1282 1.385 . S
C1283 C1284 1.389 . S
C1284 C1283 1.389 . S
C1284 C1285 1.387 . S
C1285 H1270 0.930 . S
C1285 C1280 1.390 . S
C1285 C1284 1.387 . S
H1286 C1298 0.921 1_565 S
H1287 C1300 0.930 . S
H1288 C1301 0.930 . S
H1289 C1305 0.959 . S
H1290 C1305 0.959 . S
H1291 C1305 0.961 . S
H1292 C1306 0.960 . S
H1293 C1306 0.961 . S
H1294 C1306 0.959 . S
H1295 C1309 0.929 . S
H1296 C1310 0.931 . S
H1297 C1312 0.930 . S
C1298 H1286 0.921 1_545 S
C1298 C1299 1.399 . S
C1298 C1303 1.399 . S
C1299 C1298 1.399 . S
C1299 C1300 1.376 . S
C1300 H1287 0.930 . S
C1300 C1299 1.376 . S
C1300 C1301 1.388 . S
C1301 H1288 0.930 . S
C1301 C1300 1.388 . S
C1301 C1302 1.390 . S
C1302 C1301 1.390 . S
C1302 C1303 1.394 . S
C1302 C1308 1.465 . S
C1303 C1298 1.399 . S
C1303 C1302 1.394 . S
C1303 C1304 1.516 1_545 S
C1304 C1303 1.516 1_565 S
C1304 C1305 1.502 . S
C1304 C1306 1.561 . S
C1304 C1307 1.526 1_565 S
C1305 H1289 0.959 . S
C1305 H1290 0.959 . S
C1305 H1291 0.961 . S
C1305 C1304 1.502 . S
C1306 H1292 0.960 . S
C1306 H1293 0.961 . S
C1306 H1294 0.959 . S
C1306 C1304 1.561 . S
C1307 C1304 1.526 1_545 S
C1307 C1308 1.396 . S
C1307 C1312 1.390 1_545 S
C1308 C1302 1.465 . S
C1308 C1307 1.396 . S
C1308 C1309 1.399 . S
C1309 H1295 0.929 . S
C1309 C1308 1.399 . S
C1309 C1310 1.385 . S
C1310 H1296 0.931 . S
C1310 C1309 1.385 . S
C1310 C1311 1.389 . S
C1311 C1310 1.389 . S
C1311 C1312 1.387 1_545 S
C1312 H1297 0.930 . S
C1312 C1307 1.390 1_565 S
C1312 C1311 1.387 1_565 S
H1313 C1325 0.930 . S
H1314 C1327 0.930 . S
H1315 C1328 0.930 1_565 S
H1316 C1332 0.959 . S
H1317 C1332 0.959 . S
H1318 C1332 0.961 . S
H1319 C1333 0.960 . S
H1320 C1333 0.961 . S
H1321 C1333 0.959 . S
H1322 C1336 0.929 . S
H1323 C1337 0.931 . S
H1324 C1339 0.930 . S
C1325 H1313 0.930 . S
C1325 C1326 1.399 . S
C1325 C1330 1.399 . S
C1326 C1325 1.399 . S
C1326 C1327 1.376 . S
C1327 H1314 0.930 . S
C1327 C1326 1.376 . S
C1327 C1328 1.388 . S
C1328 H1315 0.930 1_545 S
C1328 C1327 1.388 . S
C1328 C1329 1.390 . S
C1329 C1328 1.390 . S
C1329 C1330 1.394 . S
C1329 C1335 1.465 . S
C1330 C1325 1.399 . S
C1330 C1329 1.394 . S
C1330 C1331 1.516 . S
C1331 C1330 1.516 . S
C1331 C1332 1.502 . S
C1331 C1333 1.561 . S
C1331 C1334 1.526 . S
C1332 H1316 0.959 . S
C1332 H1317 0.959 . S
C1332 H1318 0.961 . S
C1332 C1331 1.502 . S
C1333 H1319 0.960 . S
C1333 H1320 0.961 . S
C1333 H1321 0.959 . S
C1333 C1331 1.561 . S
C1334 C1331 1.526 . S
C1334 C1335 1.396 . S
C1334 C1339 1.390 . S
C1335 C1329 1.465 . S
C1335 C1334 1.396 . S
C1335 C1336 1.399 1_545 S
C1336 H1322 0.929 . S
C1336 C1335 1.399 1_565 S
C1336 C1337 1.385 . S
C1337 H1323 0.931 . S
C1337 C1336 1.385 . S
C1337 C1338 1.389 1_565 S
C1338 C1337 1.389 1_545 S
C1338 C1339 1.387 . S
C1339 H1324 0.930 . S
C1339 C1334 1.390 . S
C1339 C1338 1.387 . S
H1340 C1352 0.930 1_565 S
H1341 C1354 0.930 . S
H1342 C1355 0.930 . S
H1343 C1359 0.959 . S
H1344 C1359 0.959 . S
H1345 C1359 0.961 . S
H1346 C1360 0.960 . S
H1347 C1360 0.961 . S
H1348 C1360 0.959 . S
H1349 C1363 0.929 . S
H1350 C1364 0.931 . S
H1351 C1366 0.930 . S
C1352 H1340 0.930 1_545 S
C1352 C1353 1.399 . S
C1352 C1357 1.399 . S
C1353 C1352 1.399 . S
C1353 C1354 1.376 . S
C1354 H1341 0.930 . S
C1354 C1353 1.376 . S
C1354 C1355 1.388 . S
C1355 H1342 0.930 . S
C1355 C1354 1.388 . S
C1355 C1356 1.390 . S
C1356 C1355 1.390 . S
C1356 C1357 1.394 . S
C1356 C1362 1.465 . S
C1357 C1352 1.399 . S
C1357 C1356 1.394 . S
C1357 C1358 1.516 1_545 S
C1358 C1357 1.516 1_565 S
C1358 C1359 1.502 . S
C1358 C1360 1.561 . S
C1358 C1361 1.526 1_565 S
C1359 H1343 0.959 . S
C1359 H1344 0.959 . S
C1359 H1345 0.961 . S
C1359 C1358 1.502 . S
C1360 H1346 0.960 . S
C1360 H1347 0.961 . S
C1360 H1348 0.959 . S
C1360 C1358 1.561 . S
C1361 C1358 1.526 1_545 S
C1361 C1362 1.396 . S
C1361 C1366 1.390 1_545 S
C1362 C1356 1.465 . S
C1362 C1361 1.396 . S
C1362 C1363 1.399 . S
C1363 H1349 0.929 . S
C1363 C1362 1.399 . S
C1363 C1364 1.385 . S
C1364 H1350 0.931 . S
C1364 C1363 1.385 . S
C1364 C1365 1.389 . S
C1365 C1364 1.389 . S
C1365 C1366 1.387 1_545 S
C1366 H1351 0.930 . S
C1366 C1361 1.390 1_565 S
C1366 C1365 1.387 1_565 S
H1367 C1379 0.930 . S
H1368 C1381 0.930 . S
H1369 C1382 0.930 1_565 S
H1370 C1386 0.959 . S
H1371 C1386 0.959 . S
H1372 C1386 0.961 . S
H1373 C1387 0.960 . S
H1374 C1387 0.961 . S
H1375 C1387 0.959 . S
H1376 C1390 0.929 . S
H1377 C1391 0.931 . S
H1378 C1393 0.930 . S
C1379 H1367 0.930 . S
C1379 C1380 1.399 . S
C1379 C1384 1.399 . S
C1380 C1379 1.399 . S
C1380 C1381 1.376 . S
C1381 H1368 0.930 . S
C1381 C1380 1.376 . S
C1381 C1382 1.388 . S
C1382 H1369 0.930 1_545 S
C1382 C1381 1.388 . S
C1382 C1383 1.390 . S
C1383 C1382 1.390 . S
C1383 C1384 1.394 . S
C1383 C1389 1.465 . S
C1384 C1379 1.399 . S
C1384 C1383 1.394 . S
C1384 C1385 1.516 . S
C1385 C1384 1.516 . S
C1385 C1386 1.502 . S
C1385 C1387 1.561 . S
C1385 C1388 1.526 . S
C1386 H1370 0.959 . S
C1386 H1371 0.959 . S
C1386 H1372 0.961 . S
C1386 C1385 1.502 . S
C1387 H1373 0.960 . S
C1387 H1374 0.961 . S
C1387 H1375 0.959 . S
C1387 C1385 1.561 . S
C1388 C1385 1.526 . S
C1388 C1389 1.396 . S
C1388 C1393 1.390 . S
C1389 C1383 1.465 . S
C1389 C1388 1.396 . S
C1389 C1390 1.399 1_545 S
C1390 H1376 0.929 . S
C1390 C1389 1.399 1_565 S
C1390 C1391 1.385 . S
C1391 H1377 0.931 . S
C1391 C1390 1.385 . S
C1391 C1392 1.389 1_565 S
C1392 C1391 1.389 1_545 S
C1392 C1393 1.387 . S
C1393 H1378 0.930 . S
C1393 C1388 1.390 . S
C1393 C1392 1.387 . S
H1394 C1406 0.930 . S
H1395 C1408 0.930 . S
H1396 C1409 0.930 . S
H1397 C1413 0.959 . S
H1398 C1413 0.959 . S
H1399 C1413 0.961 . S
H1400 C1414 0.960 . S
H1401 C1414 0.961 . S
H1402 C1414 0.959 . S
H1403 C1417 0.929 . S
H1404 C1418 0.931 1_545 S
H1405 C1420 0.930 . S
C1406 H1394 0.930 . S
C1406 C1407 1.399 . S
C1406 C1411 1.399 . S
C1407 C1406 1.399 . S
C1407 C1408 1.376 1_565 S
C1408 H1395 0.930 . S
C1408 C1407 1.376 1_545 S
C1408 C1409 1.388 . S
C1409 H1396 0.930 . S
C1409 C1408 1.388 . S
C1409 C1410 1.390 1_545 S
C1410 C1409 1.390 1_565 S
C1410 C1411 1.394 . S
C1410 C1416 1.465 . S
C1411 C1406 1.399 . S
C1411 C1410 1.394 . S
C1411 C1412 1.516 . S
C1412 C1411 1.516 . S
C1412 C1413 1.502 . S
C1412 C1414 1.561 . S
C1412 C1415 1.526 . S
C1413 H1397 0.959 . S
C1413 H1398 0.959 . S
C1413 H1399 0.961 . S
C1413 C1412 1.502 . S
C1414 H1400 0.960 . S
C1414 H1401 0.961 . S
C1414 H1402 0.959 . S
C1414 C1412 1.561 . S
C1415 C1412 1.526 . S
C1415 C1416 1.396 . S
C1415 C1420 1.390 . S
C1416 C1410 1.465 . S
C1416 C1415 1.396 . S
C1416 C1417 1.399 1_565 S
C1417 H1403 0.929 . S
C1417 C1416 1.399 1_545 S
C1417 C1418 1.385 1_545 S
C1418 H1404 0.931 1_565 S
C1418 C1417 1.385 1_565 S
C1418 C1419 1.389 . S
C1419 C1418 1.389 . S
C1419 C1420 1.387 . S
C1420 H1405 0.930 . S
C1420 C1415 1.390 . S
C1420 C1419 1.387 . S
H1421 C1433 0.930 1_545 S
H1422 C1435 0.930 . S
H1423 C1436 0.930 . S
H1424 C1440 0.959 1_565 S
H1425 C1440 0.959 . S
H1426 C1440 0.961 . S
H1427 C1441 0.960 . S
H1428 C1441 0.961 . S
H1429 C1441 0.959 . S
H1430 C1444 0.929 . S
H1431 C1445 0.931 . S
H1432 C1447 0.930 . S
C1433 H1421 0.930 1_565 S
C1433 C1434 1.399 . S
C1433 C1438 1.399 . S
C1434 C1433 1.399 . S
C1434 C1435 1.376 . S
C1435 H1422 0.930 . S
C1435 C1434 1.376 . S
C1435 C1436 1.388 . S
C1436 H1423 0.930 . S
C1436 C1435 1.388 . S
C1436 C1437 1.390 . S
C1437 C1436 1.390 . S
C1437 C1438 1.394 . S
C1437 C1443 1.465 . S
C1438 C1433 1.399 . S
C1438 C1437 1.394 . S
C1438 C1439 1.516 . S
C1439 C1438 1.516 . S
C1439 C1440 1.502 1_565 S
C1439 C1441 1.561 1_565 S
C1439 C1442 1.526 . S
C1440 H1424 0.959 1_545 S
C1440 H1425 0.959 . S
C1440 H1426 0.961 . S
C1440 C1439 1.502 1_545 S
C1441 H1427 0.960 . S
C1441 H1428 0.961 . S
C1441 H1429 0.959 . S
C1441 C1439 1.561 1_545 S
C1442 C1439 1.526 . S
C1442 C1443 1.396 . S
C1442 C1447 1.390 . S
C1443 C1437 1.465 . S
C1443 C1442 1.396 . S
C1443 C1444 1.399 . S
C1444 H1430 0.929 . S
C1444 C1443 1.399 . S
C1444 C1445 1.385 . S
C1445 H1431 0.931 . S
C1445 C1444 1.385 . S
C1445 C1446 1.389 . S
C1446 C1445 1.389 . S
C1446 C1447 1.387 . S
C1447 H1432 0.930 . S
C1447 C1442 1.390 . S
C1447 C1446 1.387 . S
H1448 C1460 0.930 . S
H1449 C1462 0.930 . S
H1450 C1463 0.930 . S
H1451 C1467 0.959 . S
H1452 C1467 0.959 . S
H1453 C1467 0.961 . S
H1454 C1468 0.960 1_455 S
H1455 C1468 0.961 . S
H1456 C1468 0.959 . S
H1457 C1471 0.929 . S
H1458 C1472 0.931 . S
H1459 C1474 0.930 . S
C1460 H1448 0.930 . S
C1460 C1461 1.399 . S
C1460 C1465 1.399 . S
C1461 C1460 1.399 . S
C1461 C1462 1.376 . S
C1462 H1449 0.930 . S
C1462 C1461 1.376 . S
C1462 C1463 1.388 1_455 S
C1463 H1450 0.930 . S
C1463 C1462 1.388 1_655 S
C1463 C1464 1.390 . S
C1464 C1463 1.390 . S
C1464 C1465 1.394 1_655 S
C1464 C1470 1.465 . S
C1465 C1460 1.399 . S
C1465 C1464 1.394 1_455 S
C1465 C1466 1.516 . S
C1466 C1465 1.516 . S
C1466 C1467 1.502 . S
C1466 C1468 1.561 1_455 S
C1466 C1469 1.526 1_455 S
C1467 H1451 0.959 . S
C1467 H1452 0.959 . S
C1467 H1453 0.961 . S
C1467 C1466 1.502 . S
C1468 H1454 0.960 1_655 S
C1468 H1455 0.961 . S
C1468 H1456 0.959 . S
C1468 C1466 1.561 1_655 S
C1469 C1466 1.526 1_655 S
C1469 C1470 1.396 . S
C1469 C1474 1.390 . S
C1470 C1464 1.465 . S
C1470 C1469 1.396 . S
C1470 C1471 1.399 . S
C1471 H1457 0.929 . S
C1471 C1470 1.399 . S
C1471 C1472 1.385 . S
C1472 H1458 0.931 . S
C1472 C1471 1.385 . S
C1472 C1473 1.389 . S
C1473 C1472 1.389 . S
C1473 C1474 1.387 . S
C1474 H1459 0.930 . S
C1474 C1469 1.390 . S
C1474 C1473 1.387 . S
H1475 C1487 0.930 . S
H1476 C1489 0.930 . S
H1477 C1490 0.930 . S
H1478 C1494 0.959 . S
H1479 C1494 0.959 . S
H1480 C1494 0.961 . S
H1481 C1495 0.960 . S
H1482 C1495 0.961 1_655 S
H1483 C1495 0.959 . S
H1484 C1498 0.929 . S
H1485 C1499 0.931 . S
H1486 C1501 0.930 . S
C1487 H1475 0.930 . S
C1487 C1488 1.399 . S
C1487 C1492 1.399 . S
C1488 C1487 1.399 . S
C1488 C1489 1.376 . S
C1489 H1476 0.930 . S
C1489 C1488 1.376 . S
C1489 C1490 1.388 . S
C1490 H1477 0.930 . S
C1490 C1489 1.388 . S
C1490 C1491 1.390 . S
C1491 C1490 1.390 . S
C1491 C1492 1.394 . S
C1491 C1497 1.465 1_455 S
C1492 C1487 1.399 . S
C1492 C1491 1.394 . S
C1492 C1493 1.516 1_455 S
C1493 C1492 1.516 1_655 S
C1493 C1494 1.502 . S
C1493 C1495 1.561 1_655 S
C1493 C1496 1.526 . S
C1494 H1478 0.959 . S
C1494 H1479 0.959 . S
C1494 H1480 0.961 . S
C1494 C1493 1.502 . S
C1495 H1481 0.960 . S
C1495 H1482 0.961 1_455 S
C1495 H1483 0.959 . S
C1495 C1493 1.561 1_455 S
C1496 C1493 1.526 . S
C1496 C1497 1.396 . S
C1496 C1501 1.390 . S
C1497 C1491 1.465 1_655 S
C1497 C1496 1.396 . S
C1497 C1498 1.399 . S
C1498 H1484 0.929 . S
C1498 C1497 1.399 . S
C1498 C1499 1.385 . S
C1499 H1485 0.931 . S
C1499 C1498 1.385 . S
C1499 C1500 1.389 . S
C1500 C1499 1.389 . S
C1500 C1501 1.387 . S
C1501 H1486 0.930 . S
C1501 C1496 1.390 . S
C1501 C1500 1.387 . S
H1502 C1514 0.930 . S
H1503 C1516 0.930 . S
H1504 C1517 0.930 . S
H1505 C1521 0.959 . S
H1506 C1521 0.959 . S
H1507 C1521 0.961 . S
H1508 C1522 0.960 . S
H1509 C1522 0.961 . S
H1510 C1522 0.959 . S
H1511 C1525 0.929 . S
H1512 C1526 0.931 . S
H1513 C1528 0.930 . S
C1514 H1502 0.930 . S
C1514 C1515 1.399 . S
C1514 C1519 1.399 . S
C1515 C1514 1.399 . S
C1515 C1516 1.376 . S
C1516 H1503 0.930 . S
C1516 C1515 1.376 . S
C1516 C1517 1.388 . S
C1517 H1504 0.930 . S
C1517 C1516 1.388 . S
C1517 C1518 1.390 . S
C1518 C1517 1.390 . S
C1518 C1519 1.394 . S
C1518 C1524 1.465 . S
C1519 C1514 1.399 . S
C1519 C1518 1.394 . S
C1519 C1520 1.516 . S
C1520 C1519 1.516 . S
C1520 C1521 1.502 . S
C1520 C1522 1.561 . S
C1520 C1523 1.526 . S
C1521 H1505 0.959 . S
C1521 H1506 0.959 . S
C1521 H1507 0.961 . S
C1521 C1520 1.502 . S
C1522 H1508 0.960 . S
C1522 H1509 0.961 . S
C1522 H1510 0.959 . S
C1522 C1520 1.561 . S
C1523 C1520 1.526 . S
C1523 C1524 1.396 . S
C1523 C1528 1.390 . S
C1524 C1518 1.465 . S
C1524 C1523 1.396 . S
C1524 C1525 1.399 . S
C1525 H1511 0.929 . S
C1525 C1524 1.399 . S
C1525 C1526 1.385 . S
C1526 H1512 0.931 . S
C1526 C1525 1.385 . S
C1526 C1527 1.389 . S
C1527 C1526 1.389 . S
C1527 C1528 1.387 . S
C1528 H1513 0.930 . S
C1528 C1523 1.390 . S
C1528 C1527 1.387 . S
H1529 C1541 0.930 . S
H1530 C1543 0.930 . S
H1531 C1544 0.930 . S
H1532 C1548 0.959 . S
H1533 C1548 0.959 . S
H1534 C1548 0.961 . S
H1535 C1549 0.960 . S
H1536 C1549 0.961 . S
H1537 C1549 0.959 . S
H1538 C1552 0.929 . S
H1539 C1553 0.931 . S
H1540 C1555 0.930 . S
C1541 H1529 0.930 . S
C1541 C1542 1.399 . S
C1541 C1546 1.399 . S
C1542 C1541 1.399 . S
C1542 C1543 1.376 1_554 S
C1543 H1530 0.930 . S
C1543 C1542 1.376 1_556 S
C1543 C1544 1.388 . S
C1544 H1531 0.930 . S
C1544 C1543 1.388 . S
C1544 C1545 1.390 . S
C1545 C1544 1.390 . S
C1545 C1546 1.394 1_556 S
C1545 C1551 1.465 . S
C1546 C1541 1.399 . S
C1546 C1545 1.394 1_554 S
C1546 C1547 1.516 . S
C1547 C1546 1.516 . S
C1547 C1548 1.502 . S
C1547 C1549 1.561 . S
C1547 C1550 1.526 . S
C1548 H1532 0.959 . S
C1548 H1533 0.959 . S
C1548 H1534 0.961 . S
C1548 C1547 1.502 . S
C1549 H1535 0.960 . S
C1549 H1536 0.961 . S
C1549 H1537 0.959 . S
C1549 C1547 1.561 . S
C1550 C1547 1.526 . S
C1550 C1551 1.396 1_554 S
C1550 C1555 1.390 . S
C1551 C1545 1.465 . S
C1551 C1550 1.396 1_556 S
C1551 C1552 1.399 . S
C1552 H1538 0.929 . S
C1552 C1551 1.399 . S
C1552 C1553 1.385 . S
C1553 H1539 0.931 . S
C1553 C1552 1.385 . S
C1553 C1554 1.389 1_556 S
C1554 C1553 1.389 1_554 S
C1554 C1555 1.387 . S
C1555 H1540 0.930 . S
C1555 C1550 1.390 . S
C1555 C1554 1.387 . S
H1556 C1568 0.930 . S
H1557 C1570 0.930 . S
H1558 C1571 0.933 . S
H1559 C1575 0.959 . S
H1560 C1575 0.959 . S
H1561 C1575 0.961 . S
H1562 C1576 0.960 . S
H1563 C1576 0.961 . S
H1564 C1576 0.959 . S
H1565 C1579 0.929 . S
H1566 C1580 0.931 . S
H1567 C1582 0.930 . S
C1568 H1556 0.930 . S
C1568 C1569 1.399 . S
C1568 C1573 1.399 . S
C1569 C1568 1.399 . S
C1569 C1570 1.376 . S
C1570 H1557 0.930 . S
C1570 C1569 1.376 . S
C1570 C1571 1.388 . S
C1571 H1558 0.933 . S
C1571 C1570 1.388 . S
C1571 C1572 1.390 . S
C1572 C1571 1.390 . S
C1572 C1573 1.394 . S
C1572 C1578 1.465 1_455 S
C1573 C1568 1.399 . S
C1573 C1572 1.394 . S
C1573 C1574 1.516 . S
C1574 C1573 1.516 . S
C1574 C1575 1.502 . S
C1574 C1576 1.561 1_455 S
C1574 C1577 1.526 1_455 S
C1575 H1559 0.959 . S
C1575 H1560 0.959 . S
C1575 H1561 0.961 . S
C1575 C1574 1.502 . S
C1576 H1562 0.960 . S
C1576 H1563 0.961 . S
C1576 H1564 0.959 . S
C1576 C1574 1.561 1_655 S
C1577 C1574 1.526 1_655 S
C1577 C1578 1.396 . S
C1577 C1582 1.390 . S
C1578 C1572 1.465 1_655 S
C1578 C1577 1.396 . S
C1578 C1579 1.399 . S
C1579 H1565 0.929 . S
C1579 C1578 1.399 . S
C1579 C1580 1.385 . S
C1580 H1566 0.931 . S
C1580 C1579 1.385 . S
C1580 C1581 1.389 . S
C1581 C1580 1.389 . S
C1581 C1582 1.387 . S
C1582 H1567 0.930 . S
C1582 C1577 1.390 . S
C1582 C1581 1.387 . S
H1583 C1595 0.930 . S
H1584 C1597 0.930 . S
H1585 C1598 0.930 . S
H1586 C1602 0.959 . S
H1587 C1602 0.959 . S
H1588 C1602 0.961 . S
H1589 C1603 0.960 . S
H1590 C1603 0.961 1_455 S
H1591 C1603 0.959 . S
H1592 C1606 0.929 . S
H1593 C1607 0.931 . S
H1594 C1609 0.930 . S
C1595 H1583 0.930 . S
C1595 C1596 1.399 . S
C1595 C1600 1.399 . S
C1596 C1595 1.399 . S
C1596 C1597 1.376 . S
C1597 H1584 0.930 . S
C1597 C1596 1.376 . S
C1597 C1598 1.388 . S
C1598 H1585 0.930 . S
C1598 C1597 1.388 . S
C1598 C1599 1.390 . S
C1599 C1598 1.390 . S
C1599 C1600 1.394 . S
C1599 C1605 1.465 1_655 S
C1600 C1595 1.399 . S
C1600 C1599 1.394 . S
C1600 C1601 1.516 1_655 S
C1601 C1600 1.516 1_455 S
C1601 C1602 1.502 . S
C1601 C1603 1.561 1_455 S
C1601 C1604 1.526 . S
C1602 H1586 0.959 . S
C1602 H1587 0.959 . S
C1602 H1588 0.961 . S
C1602 C1601 1.502 . S
C1603 H1589 0.960 . S
C1603 H1590 0.961 1_655 S
C1603 H1591 0.959 . S
C1603 C1601 1.561 1_655 S
C1604 C1601 1.526 . S
C1604 C1605 1.396 . S
C1604 C1609 1.390 . S
C1605 C1599 1.465 1_455 S
C1605 C1604 1.396 . S
C1605 C1606 1.399 . S
C1606 H1592 0.929 . S
C1606 C1605 1.399 . S
C1606 C1607 1.385 . S
C1607 H1593 0.931 . S
C1607 C1606 1.385 . S
C1607 C1608 1.389 . S
C1608 C1607 1.389 . S
C1608 C1609 1.387 . S
C1609 H1594 0.930 . S
C1609 C1604 1.390 . S
C1609 C1608 1.387 . S
H1610 C1622 0.930 . S
H1611 C1624 0.930 . S
H1612 C1625 0.930 . S
H1613 C1629 0.959 . S
H1614 C1629 0.959 . S
H1615 C1629 0.961 . S
H1616 C1630 0.960 . S
H1617 C1630 0.961 . S
H1618 C1630 0.959 . S
H1619 C1633 0.929 . S
H1620 C1634 0.931 . S
H1621 C1636 0.930 . S
C1622 H1610 0.930 . S
C1622 C1623 1.399 . S
C1622 C1627 1.399 . S
C1623 C1622 1.399 . S
C1623 C1624 1.376 . S
C1624 H1611 0.930 . S
C1624 C1623 1.376 . S
C1624 C1625 1.388 . S
C1625 H1612 0.930 . S
C1625 C1624 1.388 . S
C1625 C1626 1.390 . S
C1626 C1625 1.390 . S
C1626 C1627 1.394 . S
C1626 C1632 1.465 . S
C1627 C1622 1.399 . S
C1627 C1626 1.394 . S
C1627 C1628 1.516 . S
C1628 C1627 1.516 . S
C1628 C1629 1.502 . S
C1628 C1630 1.561 . S
C1628 C1631 1.526 . S
C1629 H1613 0.959 . S
C1629 H1614 0.959 . S
C1629 H1615 0.961 . S
C1629 C1628 1.502 . S
C1630 H1616 0.960 . S
C1630 H1617 0.961 . S
C1630 H1618 0.959 . S
C1630 C1628 1.561 . S
C1631 C1628 1.526 . S
C1631 C1632 1.396 . S
C1631 C1636 1.390 . S
C1632 C1626 1.465 . S
C1632 C1631 1.396 . S
C1632 C1633 1.399 . S
C1633 H1619 0.929 . S
C1633 C1632 1.399 . S
C1633 C1634 1.385 . S
C1634 H1620 0.931 . S
C1634 C1633 1.385 . S
C1634 C1635 1.389 . S
C1635 C1634 1.389 . S
C1635 C1636 1.387 . S
C1636 H1621 0.930 . S
C1636 C1631 1.390 . S
C1636 C1635 1.387 . S
H1637 C1649 0.930 . S
H1638 C1651 0.930 . S
H1639 C1652 0.930 . S
H1640 C1656 0.959 . S
H1641 C1656 0.959 . S
H1642 C1656 0.961 . S
H1643 C1657 0.960 . S
H1644 C1657 0.961 . S
H1645 C1657 0.959 . S
H1646 C1660 0.929 . S
H1647 C1661 0.931 . S
H1648 C1663 0.930 . S
C1649 H1637 0.930 . S
C1649 C1650 1.399 1_554 S
C1649 C1654 1.399 . S
C1650 C1649 1.399 1_556 S
C1650 C1651 1.376 . S
C1651 H1638 0.930 . S
C1651 C1650 1.376 . S
C1651 C1652 1.388 . S
C1652 H1639 0.930 . S
C1652 C1651 1.388 . S
C1652 C1653 1.390 . S
C1653 C1652 1.390 . S
C1653 C1654 1.394 1_556 S
C1653 C1659 1.465 . S
C1654 C1649 1.399 . S
C1654 C1653 1.394 1_554 S
C1654 C1655 1.516 . S
C1655 C1654 1.516 . S
C1655 C1656 1.502 . S
C1655 C1657 1.561 . S
C1655 C1658 1.526 . S
C1656 H1640 0.959 . S
C1656 H1641 0.959 . S
C1656 H1642 0.961 . S
C1656 C1655 1.502 . S
C1657 H1643 0.960 . S
C1657 H1644 0.961 . S
C1657 H1645 0.959 . S
C1657 C1655 1.561 . S
C1658 C1655 1.526 . S
C1658 C1659 1.396 1_554 S
C1658 C1663 1.390 . S
C1659 C1653 1.465 . S
C1659 C1658 1.396 1_556 S
C1659 C1660 1.399 . S
C1660 H1646 0.929 . S
C1660 C1659 1.399 . S
C1660 C1661 1.385 . S
C1661 H1647 0.931 . S
C1661 C1660 1.385 . S
C1661 C1662 1.389 . S
C1662 C1661 1.389 . S
C1662 C1663 1.387 1_556 S
C1663 H1648 0.930 . S
C1663 C1658 1.390 . S
C1663 C1662 1.387 1_554 S
C381 C17 1.536 . S
C393 C156 1.598 . S
C408 C363 1.593 . S
C420 C40 1.545 . S
C435 C63 1.515 . S
C447 C110 1.577 . S
C462 C317 1.537 . S
C474 C86 1.490 1_554 S
C489 C64 1.616 . S
C501 C109 1.588 . S
C516 C271 1.569 . S
C528 C132 1.502 . S
C543 C155 1.592 . S
C555 C18 1.628 . S
C570 C178 1.539 1_556 S
C582 C225 1.553 . S
C597 C201 1.531 . S
C609 C340 1.586 . S
C624 C224 1.478 1_554 S
C636 C179 1.528 . S
C651 C294 1.639 . S
C663 C247 1.601 . S
C678 C133 1.607 . S
C690 C270 1.555 . S
C705 C248 1.626 . S
C717 C293 1.592 . S
C732 C316 1.539 1_556 S
C744 C87 1.553 . S
C759 C202 1.582 . S
C771 C339 1.514 . S
C786 C41 1.598 . S
C798 C362 1.567 . S
C813 C21 0.422 . S
C825 C297 0.420 . S
C840 C44 0.374 . S
C852 C136 0.445 . S
C867 C67 0.384 . S
C879 C343 0.463 . S
C894 C182 0.438 . S
C906 C90 0.363 . S
C921 C113 0.406 . S
C933 C205 0.434 . S
C948 C251 0.385 . S
C960 C159 0.462 . S
C975 C228 0.375 . S
C987 C320 0.413 . S
C1002 C366 0.407 . S
C1014 C274 0.410 . S
C1029 C19 1.505 . S
C1041 C43 1.464 . S
C1056 C66 1.526 . S
C1068 C42 1.555 . S
C1083 C65 1.707 . S
C1095 C89 1.691 . S
C1110 C88 1.326 . S
C1122 C20 1.267 . S
C1137 C135 1.431 . S
C1149 C111 1.489 . S
C1164 C158 1.530 . S
C1176 C134 1.557 . S
C1191 C181 1.638 . S
C1203 C157 1.693 . S
C1218 C112 1.326 . S
C1230 C180 1.344 . S
C1245 C203 1.677 1_565 S
C1257 C227 1.638 . S
C1272 C226 1.334 . S
C1284 C250 1.283 . S
C1299 C273 1.492 . S
C1311 C249 1.511 1_545 S
C1326 C272 1.557 . S
C1338 C204 1.538 . S
C1353 C319 1.645 . S
C1365 C295 1.697 1_545 S
C1380 C318 1.352 . S
C1392 C342 1.336 . S
C1407 C341 1.490 1_565 S
C1419 C365 1.448 . S
C1434 C296 1.480 . S
C1446 C364 1.531 . S
C1461 C16 1.508 . S
C1473 C246 1.464 . S
C1488 C39 1.502 . S
C1500 C269 1.458 . S
C1515 C62 1.509 . S
C1527 C200 1.477 . S
C1542 C223 1.436 . S
C1554 C85 1.476 . S
C1569 C338 1.502 . S
C1581 C108 1.476 . S
C1596 C131 1.505 . S
C1608 C361 1.459 . S
C1623 C154 1.464 . S
C1635 C292 1.506 . S
C1650 C315 1.432 . S
C1662 C177 1.479 . S
