# Generated by pormake.
# Topology fcs, (5)-cn, num edge types: 1
# Building blocks:
#     Node 0, Type 0, BuildingBlock: BEQFEK_clean_sbu_0, # of connection points: 5
#     Node 1, Type 0, BuildingBlock: BEQFEK_clean_sbu_0, # of connection points: 5
#     Node 2, Type 0, BuildingBlock: BEQFEK_clean_sbu_0, # of connection points: 5
#     Node 3, Type 0, BuildingBlock: BEQFEK_clean_sbu_0, # of connection points: 5
#     Node 4, Type 0, BuildingBlock: BEQFEK_clean_sbu_0, # of connection points: 5
#     Node 5, Type 0, BuildingBlock: BEQFEK_clean_sbu_0, # of connection points: 5
#     Node 6, Type 0, BuildingBlock: BEQFEK_clean_sbu_0, # of connection points: 5
#     Node 7, Type 0, BuildingBlock: BEQFEK_clean_sbu_0, # of connection points: 5
#     Node 8, Type 0, BuildingBlock: BEQFEK_clean_sbu_0, # of connection points: 5
#     Node 9, Type 0, BuildingBlock: BEQFEK_clean_sbu_0, # of connection points: 5
#     Node 10, Type 0, BuildingBlock: BEQFEK_clean_sbu_0, # of connection points: 5
#     Node 11, Type 0, BuildingBlock: BEQFEK_clean_sbu_0, # of connection points: 5
#     Node 12, Type 0, BuildingBlock: BEQFEK_clean_sbu_0, # of connection points: 5
#     Node 13, Type 0, BuildingBlock: BEQFEK_clean_sbu_0, # of connection points: 5
#     Node 14, Type 0, BuildingBlock: BEQFEK_clean_sbu_0, # of connection points: 5
#     Node 15, Type 0, BuildingBlock: BEQFEK_clean_sbu_0, # of connection points: 5
#     Node 16, Type 0, BuildingBlock: BEQFEK_clean_sbu_0, # of connection points: 5
#     Node 17, Type 0, BuildingBlock: BEQFEK_clean_sbu_0, # of connection points: 5
#     Node 18, Type 0, BuildingBlock: BEQFEK_clean_sbu_0, # of connection points: 5
#     Node 19, Type 0, BuildingBlock: BEQFEK_clean_sbu_0, # of connection points: 5
#     Node 20, Type 0, BuildingBlock: BEQFEK_clean_sbu_0, # of connection points: 5
#     Node 21, Type 0, BuildingBlock: BEQFEK_clean_sbu_0, # of connection points: 5
#     Node 22, Type 0, BuildingBlock: BEQFEK_clean_sbu_0, # of connection points: 5
#     Node 23, Type 0, BuildingBlock: BEQFEK_clean_sbu_0, # of connection points: 5
#     Node 24, Type 0, BuildingBlock: BEQFEK_clean_sbu_0, # of connection points: 5
#     Node 25, Type 0, BuildingBlock: BEQFEK_clean_sbu_0, # of connection points: 5
#     Node 26, Type 0, BuildingBlock: BEQFEK_clean_sbu_0, # of connection points: 5
#     Node 27, Type 0, BuildingBlock: BEQFEK_clean_sbu_0, # of connection points: 5
#     Node 28, Type 0, BuildingBlock: BEQFEK_clean_sbu_0, # of connection points: 5
#     Node 29, Type 0, BuildingBlock: BEQFEK_clean_sbu_0, # of connection points: 5
#     Node 30, Type 0, BuildingBlock: BEQFEK_clean_sbu_0, # of connection points: 5
#     Node 31, Type 0, BuildingBlock: BEQFEK_clean_sbu_0, # of connection points: 5
#     Node 32, Type 0, BuildingBlock: BEQFEK_clean_sbu_0, # of connection points: 5
#     Node 33, Type 0, BuildingBlock: BEQFEK_clean_sbu_0, # of connection points: 5
#     Node 34, Type 0, BuildingBlock: BEQFEK_clean_sbu_0, # of connection points: 5
#     Node 35, Type 0, BuildingBlock: BEQFEK_clean_sbu_0, # of connection points: 5
#     Node 36, Type 0, BuildingBlock: BEQFEK_clean_sbu_0, # of connection points: 5
#     Node 37, Type 0, BuildingBlock: BEQFEK_clean_sbu_0, # of connection points: 5
#     Node 38, Type 0, BuildingBlock: BEQFEK_clean_sbu_0, # of connection points: 5
#     Node 39, Type 0, BuildingBlock: BEQFEK_clean_sbu_0, # of connection points: 5
#     Node 40, Type 0, BuildingBlock: BEQFEK_clean_sbu_0, # of connection points: 5
#     Node 41, Type 0, BuildingBlock: BEQFEK_clean_sbu_0, # of connection points: 5
#     Node 42, Type 0, BuildingBlock: BEQFEK_clean_sbu_0, # of connection points: 5
#     Node 43, Type 0, BuildingBlock: BEQFEK_clean_sbu_0, # of connection points: 5
#     Node 44, Type 0, BuildingBlock: BEQFEK_clean_sbu_0, # of connection points: 5
#     Node 45, Type 0, BuildingBlock: BEQFEK_clean_sbu_0, # of connection points: 5
#     Node 46, Type 0, BuildingBlock: BEQFEK_clean_sbu_0, # of connection points: 5
#     Node 47, Type 0, BuildingBlock: BEQFEK_clean_sbu_0, # of connection points: 5
#     Edge 48, Type (0, 0), BuildingBlock: TEMPAE_clean_linker_10, # of connection points: 2
#     Edge 49, Type (0, 0), BuildingBlock: TEMPAE_clean_linker_10, # of connection points: 2
#     Edge 50, Type (0, 0), BuildingBlock: TEMPAE_clean_linker_10, # of connection points: 2
#     Edge 51, Type (0, 0), BuildingBlock: TEMPAE_clean_linker_10, # of connection points: 2
#     Edge 52, Type (0, 0), BuildingBlock: TEMPAE_clean_linker_10, # of connection points: 2
#     Edge 53, Type (0, 0), BuildingBlock: TEMPAE_clean_linker_10, # of connection points: 2
#     Edge 54, Type (0, 0), BuildingBlock: TEMPAE_clean_linker_10, # of connection points: 2
#     Edge 55, Type (0, 0), BuildingBlock: TEMPAE_clean_linker_10, # of connection points: 2
#     Edge 56, Type (0, 0), BuildingBlock: TEMPAE_clean_linker_10, # of connection points: 2
#     Edge 57, Type (0, 0), BuildingBlock: TEMPAE_clean_linker_10, # of connection points: 2
#     Edge 58, Type (0, 0), BuildingBlock: TEMPAE_clean_linker_10, # of connection points: 2
#     Edge 59, Type (0, 0), BuildingBlock: TEMPAE_clean_linker_10, # of connection points: 2
#     Edge 60, Type (0, 0), BuildingBlock: TEMPAE_clean_linker_10, # of connection points: 2
#     Edge 61, Type (0, 0), BuildingBlock: TEMPAE_clean_linker_10, # of connection points: 2
#     Edge 62, Type (0, 0), BuildingBlock: TEMPAE_clean_linker_10, # of connection points: 2
#     Edge 63, Type (0, 0), BuildingBlock: TEMPAE_clean_linker_10, # of connection points: 2
#     Edge 64, Type (0, 0), BuildingBlock: TEMPAE_clean_linker_10, # of connection points: 2
#     Edge 65, Type (0, 0), BuildingBlock: TEMPAE_clean_linker_10, # of connection points: 2
#     Edge 66, Type (0, 0), BuildingBlock: TEMPAE_clean_linker_10, # of connection points: 2
#     Edge 67, Type (0, 0), BuildingBlock: TEMPAE_clean_linker_10, # of connection points: 2
#     Edge 68, Type (0, 0), BuildingBlock: TEMPAE_clean_linker_10, # of connection points: 2
#     Edge 69, Type (0, 0), BuildingBlock: TEMPAE_clean_linker_10, # of connection points: 2
#     Edge 70, Type (0, 0), BuildingBlock: TEMPAE_clean_linker_10, # of connection points: 2
#     Edge 71, Type (0, 0), BuildingBlock: TEMPAE_clean_linker_10, # of connection points: 2
#     Edge 72, Type (0, 0), BuildingBlock: TEMPAE_clean_linker_10, # of connection points: 2
#     Edge 73, Type (0, 0), BuildingBlock: TEMPAE_clean_linker_10, # of connection points: 2
#     Edge 74, Type (0, 0), BuildingBlock: TEMPAE_clean_linker_10, # of connection points: 2
#     Edge 75, Type (0, 0), BuildingBlock: TEMPAE_clean_linker_10, # of connection points: 2
#     Edge 76, Type (0, 0), BuildingBlock: TEMPAE_clean_linker_10, # of connection points: 2
#     Edge 77, Type (0, 0), BuildingBlock: TEMPAE_clean_linker_10, # of connection points: 2
#     Edge 78, Type (0, 0), BuildingBlock: TEMPAE_clean_linker_10, # of connection points: 2
#     Edge 79, Type (0, 0), BuildingBlock: TEMPAE_clean_linker_10, # of connection points: 2
#     Edge 80, Type (0, 0), BuildingBlock: TEMPAE_clean_linker_10, # of connection points: 2
#     Edge 81, Type (0, 0), BuildingBlock: TEMPAE_clean_linker_10, # of connection points: 2
#     Edge 82, Type (0, 0), BuildingBlock: TEMPAE_clean_linker_10, # of connection points: 2
#     Edge 83, Type (0, 0), BuildingBlock: TEMPAE_clean_linker_10, # of connection points: 2
#     Edge 84, Type (0, 0), BuildingBlock: TEMPAE_clean_linker_10, # of connection points: 2
#     Edge 85, Type (0, 0), BuildingBlock: TEMPAE_clean_linker_10, # of connection points: 2
#     Edge 86, Type (0, 0), BuildingBlock: TEMPAE_clean_linker_10, # of connection points: 2
#     Edge 87, Type (0, 0), BuildingBlock: TEMPAE_clean_linker_10, # of connection points: 2
#     Edge 88, Type (0, 0), BuildingBlock: TEMPAE_clean_linker_10, # of connection points: 2
#     Edge 89, Type (0, 0), BuildingBlock: TEMPAE_clean_linker_10, # of connection points: 2
#     Edge 90, Type (0, 0), BuildingBlock: TEMPAE_clean_linker_10, # of connection points: 2
#     Edge 91, Type (0, 0), BuildingBlock: TEMPAE_clean_linker_10, # of connection points: 2
#     Edge 92, Type (0, 0), BuildingBlock: TEMPAE_clean_linker_10, # of connection points: 2
#     Edge 93, Type (0, 0), BuildingBlock: TEMPAE_clean_linker_10, # of connection points: 2
#     Edge 94, Type (0, 0), BuildingBlock: TEMPAE_clean_linker_10, # of connection points: 2
#     Edge 95, Type (0, 0), BuildingBlock: TEMPAE_clean_linker_10, # of connection points: 2
#     Edge 96, Type (0, 0), BuildingBlock: TEMPAE_clean_linker_10, # of connection points: 2
#     Edge 97, Type (0, 0), BuildingBlock: TEMPAE_clean_linker_10, # of connection points: 2
#     Edge 98, Type (0, 0), BuildingBlock: TEMPAE_clean_linker_10, # of connection points: 2
#     Edge 99, Type (0, 0), BuildingBlock: TEMPAE_clean_linker_10, # of connection points: 2
#     Edge 100, Type (0, 0), BuildingBlock: TEMPAE_clean_linker_10, # of connection points: 2
#     Edge 101, Type (0, 0), BuildingBlock: TEMPAE_clean_linker_10, # of connection points: 2
#     Edge 102, Type (0, 0), BuildingBlock: TEMPAE_clean_linker_10, # of connection points: 2
#     Edge 103, Type (0, 0), BuildingBlock: TEMPAE_clean_linker_10, # of connection points: 2
#     Edge 104, Type (0, 0), BuildingBlock: TEMPAE_clean_linker_10, # of connection points: 2
#     Edge 105, Type (0, 0), BuildingBlock: TEMPAE_clean_linker_10, # of connection points: 2
#     Edge 106, Type (0, 0), BuildingBlock: TEMPAE_clean_linker_10, # of connection points: 2
#     Edge 107, Type (0, 0), BuildingBlock: TEMPAE_clean_linker_10, # of connection points: 2
#     Edge 108, Type (0, 0), BuildingBlock: TEMPAE_clean_linker_10, # of connection points: 2
#     Edge 109, Type (0, 0), BuildingBlock: TEMPAE_clean_linker_10, # of connection points: 2
#     Edge 110, Type (0, 0), BuildingBlock: TEMPAE_clean_linker_10, # of connection points: 2
#     Edge 111, Type (0, 0), BuildingBlock: TEMPAE_clean_linker_10, # of connection points: 2
#     Edge 112, Type (0, 0), BuildingBlock: TEMPAE_clean_linker_10, # of connection points: 2
#     Edge 113, Type (0, 0), BuildingBlock: TEMPAE_clean_linker_10, # of connection points: 2
#     Edge 114, Type (0, 0), BuildingBlock: TEMPAE_clean_linker_10, # of connection points: 2
#     Edge 115, Type (0, 0), BuildingBlock: TEMPAE_clean_linker_10, # of connection points: 2
#     Edge 116, Type (0, 0), BuildingBlock: TEMPAE_clean_linker_10, # of connection points: 2
#     Edge 117, Type (0, 0), BuildingBlock: TEMPAE_clean_linker_10, # of connection points: 2
#     Edge 118, Type (0, 0), BuildingBlock: TEMPAE_clean_linker_10, # of connection points: 2
#     Edge 119, Type (0, 0), BuildingBlock: TEMPAE_clean_linker_10, # of connection points: 2
#     Edge 120, Type (0, 0), BuildingBlock: TEMPAE_clean_linker_10, # of connection points: 2
#     Edge 121, Type (0, 0), BuildingBlock: TEMPAE_clean_linker_10, # of connection points: 2
#     Edge 122, Type (0, 0), BuildingBlock: TEMPAE_clean_linker_10, # of connection points: 2
#     Edge 123, Type (0, 0), BuildingBlock: TEMPAE_clean_linker_10, # of connection points: 2
#     Edge 124, Type (0, 0), BuildingBlock: TEMPAE_clean_linker_10, # of connection points: 2
#     Edge 125, Type (0, 0), BuildingBlock: TEMPAE_clean_linker_10, # of connection points: 2
#     Edge 126, Type (0, 0), BuildingBlock: TEMPAE_clean_linker_10, # of connection points: 2
#     Edge 127, Type (0, 0), BuildingBlock: TEMPAE_clean_linker_10, # of connection points: 2
#     Edge 128, Type (0, 0), BuildingBlock: TEMPAE_clean_linker_10, # of connection points: 2
#     Edge 129, Type (0, 0), BuildingBlock: TEMPAE_clean_linker_10, # of connection points: 2
#     Edge 130, Type (0, 0), BuildingBlock: TEMPAE_clean_linker_10, # of connection points: 2
#     Edge 131, Type (0, 0), BuildingBlock: TEMPAE_clean_linker_10, # of connection points: 2
#     Edge 132, Type (0, 0), BuildingBlock: TEMPAE_clean_linker_10, # of connection points: 2
#     Edge 133, Type (0, 0), BuildingBlock: TEMPAE_clean_linker_10, # of connection points: 2
#     Edge 134, Type (0, 0), BuildingBlock: TEMPAE_clean_linker_10, # of connection points: 2
#     Edge 135, Type (0, 0), BuildingBlock: TEMPAE_clean_linker_10, # of connection points: 2
#     Edge 136, Type (0, 0), BuildingBlock: TEMPAE_clean_linker_10, # of connection points: 2
#     Edge 137, Type (0, 0), BuildingBlock: TEMPAE_clean_linker_10, # of connection points: 2
#     Edge 138, Type (0, 0), BuildingBlock: TEMPAE_clean_linker_10, # of connection points: 2
#     Edge 139, Type (0, 0), BuildingBlock: TEMPAE_clean_linker_10, # of connection points: 2
#     Edge 140, Type (0, 0), BuildingBlock: TEMPAE_clean_linker_10, # of connection points: 2
#     Edge 141, Type (0, 0), BuildingBlock: TEMPAE_clean_linker_10, # of connection points: 2
#     Edge 142, Type (0, 0), BuildingBlock: TEMPAE_clean_linker_10, # of connection points: 2
#     Edge 143, Type (0, 0), BuildingBlock: TEMPAE_clean_linker_10, # of connection points: 2
#     Edge 144, Type (0, 0), BuildingBlock: TEMPAE_clean_linker_10, # of connection points: 2
#     Edge 145, Type (0, 0), BuildingBlock: TEMPAE_clean_linker_10, # of connection points: 2
#     Edge 146, Type (0, 0), BuildingBlock: TEMPAE_clean_linker_10, # of connection points: 2
#     Edge 147, Type (0, 0), BuildingBlock: TEMPAE_clean_linker_10, # of connection points: 2
#     Edge 148, Type (0, 0), BuildingBlock: TEMPAE_clean_linker_10, # of connection points: 2
#     Edge 149, Type (0, 0), BuildingBlock: TEMPAE_clean_linker_10, # of connection points: 2
#     Edge 150, Type (0, 0), BuildingBlock: TEMPAE_clean_linker_10, # of connection points: 2
#     Edge 151, Type (0, 0), BuildingBlock: TEMPAE_clean_linker_10, # of connection points: 2
#     Edge 152, Type (0, 0), BuildingBlock: TEMPAE_clean_linker_10, # of connection points: 2
#     Edge 153, Type (0, 0), BuildingBlock: TEMPAE_clean_linker_10, # of connection points: 2
#     Edge 154, Type (0, 0), BuildingBlock: TEMPAE_clean_linker_10, # of connection points: 2
#     Edge 155, Type (0, 0), BuildingBlock: TEMPAE_clean_linker_10, # of connection points: 2
#     Edge 156, Type (0, 0), BuildingBlock: TEMPAE_clean_linker_10, # of connection points: 2
#     Edge 157, Type (0, 0), BuildingBlock: TEMPAE_clean_linker_10, # of connection points: 2
#     Edge 158, Type (0, 0), BuildingBlock: TEMPAE_clean_linker_10, # of connection points: 2
#     Edge 159, Type (0, 0), BuildingBlock: TEMPAE_clean_linker_10, # of connection points: 2
#     Edge 160, Type (0, 0), BuildingBlock: TEMPAE_clean_linker_10, # of connection points: 2
#     Edge 161, Type (0, 0), BuildingBlock: TEMPAE_clean_linker_10, # of connection points: 2
#     Edge 162, Type (0, 0), BuildingBlock: TEMPAE_clean_linker_10, # of connection points: 2
#     Edge 163, Type (0, 0), BuildingBlock: TEMPAE_clean_linker_10, # of connection points: 2
#     Edge 164, Type (0, 0), BuildingBlock: TEMPAE_clean_linker_10, # of connection points: 2
#     Edge 165, Type (0, 0), BuildingBlock: TEMPAE_clean_linker_10, # of connection points: 2
#     Edge 166, Type (0, 0), BuildingBlock: TEMPAE_clean_linker_10, # of connection points: 2
#     Edge 167, Type (0, 0), BuildingBlock: TEMPAE_clean_linker_10, # of connection points: 2
# Relax obj value: 0.298
# Max RMSD: 0.231
# Mean RMSD: 0.231
data_MOF--net-fcs--node1-BEQFEK_clean_sbu_0--edge1-TEMPAE_clean_linker_10
_symmetry_space_group_name_H-M    P1
_symmetry_Int_Tables_number       1
_symmetry_cell_setting            triclinic
loop_
_symmetry_equiv_pos_as_xyz
'x, y, z'
_cell_length_a     61.110091
_cell_length_b     61.130886
_cell_length_c     61.179363
_cell_angle_alpha  89.993936
_cell_angle_beta   90.068403
_cell_angle_gamma 90.014395
loop_
_atom_site_label
_atom_site_type_symbol
_atom_site_fract_x
_atom_site_fract_y
_atom_site_fract_z
_atom_type_partial_charge
Co0 Co 0.14985 0.12449 0.29233 0.0
Co1 Co 0.10545 0.1211 0.31602 0.0
C2 C 0.13964 0.14569 0.33651 0.0
O3 O 0.15103 0.14196 0.31947 0.0
O4 O 0.12125 0.13628 0.33951 0.0
C5 C 0.19634 0.11337 0.28271 0.0
O6 O 0.19762 0.09949 0.29905 0.0
C7 C 0.06483 0.11169 0.34086 0.0
C8 C 0.04197 0.10839 0.31297 0.0
C9 C 0.04318 0.10717 0.33552 0.0
N10 N 0.07581 0.11519 0.32217 0.0
N11 N 0.06202 0.11334 0.30564 0.0
C12 C 0.07535 0.1113 0.36293 0.0
H13 H 0.09292 0.10694 0.36145 0.0
H14 H 0.06692 0.09949 0.37384 0.0
H15 H 0.07425 0.12785 0.3703 0.0
C16 C 0.14268 0.07708 0.28687 0.0
N17 N 0.13786 0.09653 0.29598 0.0
N18 N 0.11942 0.09489 0.30685 0.0
C19 C 0.11228 0.07406 0.30567 0.0
C20 C 0.12668 0.06214 0.29284 0.0
C21 C 0.15954 0.07401 0.26935 0.0
H22 H 0.16254 0.08961 0.26064 0.0
H23 H 0.17504 0.06835 0.27693 0.0
H24 H 0.15433 0.06152 0.25727 0.0
O25 O 0.1325 0.14171 0.27172 0.0
O26 O 0.10326 0.14367 0.29282 0.0
H27 H 0.07744 0.07128 0.30452 0.0
H28 H 0.09105 0.04785 0.3161 0.0
C29 C 0.0912 0.06599 0.31509 0.0
H30 H 0.08882 0.07294 0.33165 0.0
H31 H 0.06643 0.11516 0.28926 0.0
O32 O 0.17872 0.1237 0.27907 0.0
C33 C 0.11399 0.14991 0.27619 0.0
Co34 Co 0.36669 0.58729 0.93929 0.0
Co35 Co 0.36677 0.63665 0.92543 0.0
C36 C 0.39363 0.60484 0.90178 0.0
O37 O 0.38735 0.58947 0.91433 0.0
O38 O 0.38549 0.62395 0.90291 0.0
C39 C 0.35724 0.53596 0.94879 0.0
O40 O 0.35405 0.52274 0.93216 0.0
C41 C 0.36273 0.68017 0.90408 0.0
C42 C 0.35323 0.69985 0.93287 0.0
C43 C 0.3566 0.70116 0.91052 0.0
N44 N 0.36232 0.66715 0.92182 0.0
N45 N 0.35696 0.67911 0.93896 0.0
C46 C 0.37014 0.67279 0.88197 0.0
H47 H 0.38132 0.65865 0.88335 0.0
H48 H 0.35569 0.66772 0.87221 0.0
H49 H 0.37882 0.68614 0.87328 0.0
C50 C 0.31974 0.59672 0.94278 0.0
N51 N 0.33977 0.60198 0.93531 0.0
N52 N 0.33956 0.6223 0.92836 0.0
C53 C 0.31911 0.6303 0.93044 0.0
C54 C 0.30601 0.61465 0.94028 0.0
C55 C 0.31526 0.57673 0.9562 0.0
H56 H 0.32758 0.57548 0.96946 0.0
H57 H 0.31685 0.56206 0.94567 0.0
H58 H 0.29861 0.57692 0.9634 0.0
O59 O 0.38342 0.59988 0.96386 0.0
O60 O 0.38491 0.63418 0.95208 0.0
H61 H 0.31672 0.66374 0.94039 0.0
H62 H 0.29462 0.6546 0.92341 0.0
C63 C 0.31256 0.65348 0.92605 0.0
H64 H 0.32112 0.65976 0.91139 0.0
H65 H 0.35547 0.67297 0.9548 0.0
O66 O 0.36094 0.55606 0.9451 0.0
C67 C 0.39061 0.61938 0.96556 0.0
Co68 Co 0.84189 0.37328 0.29842 0.0
Co69 Co 0.89023 0.37317 0.31452 0.0
C70 C 0.85578 0.34957 0.33861 0.0
O71 O 0.8411 0.3567 0.32565 0.0
O72 O 0.87562 0.35594 0.33746 0.0
C73 C 0.79425 0.38454 0.28768 0.0
O74 O 0.79036 0.39805 0.3039 0.0
C75 C 0.93166 0.38117 0.33828 0.0
C76 C 0.95404 0.38405 0.31 0.0
C77 C 0.95317 0.38556 0.33253 0.0
N78 N 0.92031 0.37761 0.3198 0.0
N79 N 0.93384 0.37904 0.30304 0.0
C80 C 0.92161 0.38203 0.36053 0.0
H81 H 0.90397 0.3862 0.3593 0.0
H82 H 0.93021 0.39414 0.37098 0.0
H83 H 0.92307 0.36568 0.36828 0.0
C84 C 0.85173 0.41987 0.29194 0.0
N85 N 0.85649 0.40012 0.30037 0.0
N86 N 0.87644 0.40039 0.30839 0.0
C87 C 0.88469 0.42071 0.30615 0.0
C88 C 0.86947 0.43363 0.29538 0.0
C89 C 0.83267 0.424 0.27704 0.0
H90 H 0.82912 0.40919 0.26723 0.0
H91 H 0.81809 0.42801 0.28704 0.0
H92 H 0.83574 0.43777 0.26567 0.0
O93 O 0.8561 0.3537 0.27774 0.0
O94 O 0.89033 0.35305 0.28922 0.0
H95 H 0.91922 0.42062 0.30055 0.0
H96 H 0.90907 0.44542 0.31279 0.0
C97 C 0.90739 0.42734 0.31251 0.0
H98 H 0.91133 0.4208 0.32893 0.0
H99 H 0.92911 0.37723 0.28675 0.0
O100 O 0.81285 0.37563 0.28562 0.0
C101 C 0.87544 0.34635 0.27638 0.0
Co102 Co 0.62501 0.90269 0.93985 0.0
Co103 Co 0.62241 0.85295 0.92829 0.0
C104 C 0.59692 0.88858 0.90416 0.0
O105 O 0.60613 0.90456 0.91401 0.0
O106 O 0.60226 0.86867 0.90782 0.0
C107 C 0.63315 0.95097 0.95358 0.0
O108 O 0.62811 0.96124 0.93539 0.0
C109 C 0.62834 0.8115 0.90361 0.0
C110 C 0.62675 0.78817 0.93122 0.0
C111 C 0.62951 0.78943 0.90884 0.0
N112 N 0.62513 0.82272 0.92223 0.0
N113 N 0.62424 0.80865 0.9386 0.0
C114 C 0.62959 0.82172 0.88145 0.0
H115 H 0.62243 0.83839 0.8817 0.0
H116 H 0.647 0.82301 0.87651 0.0
H117 H 0.62097 0.81137 0.86926 0.0
C118 C 0.672 0.89222 0.94008 0.0
N119 N 0.65121 0.88694 0.93509 0.0
N120 N 0.65022 0.86596 0.93063 0.0
C121 C 0.67032 0.85721 0.93296 0.0
C122 C 0.68475 0.87348 0.93941 0.0
C123 C 0.67875 0.91371 0.94966 0.0
H124 H 0.67188 0.92725 0.93975 0.0
H125 H 0.69684 0.91529 0.95024 0.0
H126 H 0.67229 0.91497 0.96654 0.0
O127 O 0.60517 0.88888 0.96108 0.0
O128 O 0.60672 0.85316 0.95621 0.0
H129 H 0.66563 0.8253 0.94648 0.0
H130 H 0.69267 0.82985 0.93539 0.0
C131 C 0.67496 0.83318 0.93308 0.0
H132 H 0.66966 0.82593 0.91734 0.0
H133 H 0.62208 0.81304 0.95493 0.0
O134 O 0.63182 0.9303 0.95466 0.0
C135 C 0.59945 0.86965 0.96635 0.0
Co136 Co 0.1539 0.87745 0.18975 0.0
Co137 Co 0.10519 0.87376 0.17456 0.0
C138 C 0.13978 0.85075 0.15094 0.0
O139 O 0.15412 0.85782 0.16434 0.0
O140 O 0.12011 0.85777 0.15098 0.0
C141 C 0.19712 0.8703 0.20529 0.0
O142 O 0.19351 0.84998 0.1993 0.0
C143 C 0.06211 0.88055 0.15342 0.0
C144 C 0.04069 0.87552 0.18211 0.0
C145 C 0.0404 0.88124 0.16022 0.0
N146 N 0.07451 0.87507 0.17074 0.0
N147 N 0.06157 0.8718 0.1877 0.0
C148 C 0.07129 0.88682 0.13166 0.0
H149 H 0.08881 0.89139 0.13329 0.0
H150 H 0.06187 0.90059 0.12449 0.0
H151 H 0.07013 0.8726 0.12045 0.0
C152 C 0.14176 0.92374 0.19238 0.0
N153 N 0.13745 0.90323 0.18571 0.0
N154 N 0.11681 0.90188 0.17985 0.0
C155 C 0.10728 0.92154 0.1828 0.0
C156 C 0.12274 0.936 0.19098 0.0
C157 C 0.16222 0.93009 0.20428 0.0
H158 H 0.16305 0.92085 0.21986 0.0
H159 H 0.17669 0.92575 0.19427 0.0
H160 H 0.16274 0.94785 0.20795 0.0
O161 O 0.14187 0.85874 0.21311 0.0
O162 O 0.10857 0.85427 0.19978 0.0
H163 H 0.0744 0.91514 0.19293 0.0
H164 H 0.0792 0.94307 0.18449 0.0
C165 C 0.08321 0.92569 0.18111 0.0
H166 H 0.07755 0.92161 0.1644 0.0
H167 H 0.06707 0.8677 0.20332 0.0
O168 O 0.18334 0.88493 0.2001 0.0
C169 C 0.12327 0.84945 0.21362 0.0
Co170 Co 0.128 0.59105 0.05315 0.0
Co171 Co 0.1255 0.64022 0.06627 0.0
C172 C 0.10108 0.60475 0.09045 0.0
O173 O 0.10931 0.58918 0.07925 0.0
O174 O 0.10678 0.62466 0.08762 0.0
C175 C 0.12921 0.54353 0.0377 0.0
O176 O 0.11618 0.53535 0.05269 0.0
C177 C 0.12948 0.68097 0.09153 0.0
C178 C 0.13406 0.70452 0.06442 0.0
C179 C 0.13342 0.70277 0.08693 0.0
N180 N 0.12818 0.67022 0.07246 0.0
N181 N 0.13053 0.68443 0.05635 0.0
C182 C 0.12829 0.67027 0.11346 0.0
H183 H 0.13446 0.65322 0.11245 0.0
H184 H 0.13777 0.67968 0.12577 0.0
H185 H 0.11093 0.66969 0.11873 0.0
C186 C 0.17473 0.60174 0.05058 0.0
N187 N 0.15431 0.60675 0.05709 0.0
N188 N 0.15349 0.62749 0.06256 0.0
C189 C 0.17352 0.63635 0.0599 0.0
C190 C 0.18757 0.62052 0.05157 0.0
C191 C 0.18033 0.58063 0.03946 0.0
H192 H 0.17315 0.56677 0.04865 0.0
H193 H 0.19812 0.57782 0.03818 0.0
H194 H 0.1734 0.58088 0.02272 0.0
O195 O 0.109 0.60482 0.03154 0.0
O196 O 0.10837 0.64003 0.03921 0.0
H197 H 0.17143 0.66976 0.0498 0.0
H198 H 0.1967 0.6628 0.06338 0.0
C199 C 0.17875 0.66003 0.06323 0.0
H200 H 0.17177 0.66569 0.07895 0.0
H201 H 0.13042 0.68026 0.03981 0.0
O202 O 0.13416 0.56364 0.03806 0.0
C203 C 0.10221 0.624 0.02762 0.0
Co204 Co 0.84253 0.61842 0.19343 0.0
Co205 Co 0.89019 0.62058 0.17584 0.0
C206 C 0.85523 0.64412 0.15334 0.0
O207 O 0.84157 0.63778 0.16776 0.0
O208 O 0.87483 0.63696 0.15276 0.0
C209 C 0.79463 0.60591 0.20434 0.0
O210 O 0.78865 0.59583 0.18634 0.0
C211 C 0.93213 0.61424 0.15242 0.0
C212 C 0.95446 0.61307 0.18091 0.0
C213 C 0.95382 0.61105 0.1584 0.0
N214 N 0.92051 0.61764 0.17075 0.0
N215 N 0.93401 0.61724 0.18762 0.0
C216 C 0.92224 0.61226 0.13015 0.0
H217 H 0.90477 0.60743 0.1314 0.0
H218 H 0.93137 0.60017 0.12016 0.0
H219 H 0.92312 0.62839 0.12187 0.0
C220 C 0.85291 0.5716 0.19561 0.0
N221 N 0.85745 0.592 0.18876 0.0
N222 N 0.87761 0.59271 0.18137 0.0
C223 C 0.88644 0.57257 0.183 0.0
C224 C 0.87118 0.55859 0.19225 0.0
C225 C 0.83331 0.56586 0.20914 0.0
H226 H 0.83118 0.57815 0.22231 0.0
H227 H 0.81857 0.56614 0.19859 0.0
H228 H 0.83465 0.54939 0.21662 0.0
O229 O 0.85664 0.63599 0.21625 0.0
O230 O 0.88921 0.64036 0.20137 0.0
H231 H 0.92029 0.57513 0.1914 0.0
H232 H 0.91281 0.54933 0.17921 0.0
C233 C 0.90994 0.56726 0.17875 0.0
H234 H 0.91475 0.57358 0.16249 0.0
H235 H 0.92911 0.61912 0.20384 0.0
O236 O 0.81376 0.61368 0.20627 0.0
C237 C 0.87537 0.6449 0.21613 0.0
Co238 Co 0.87111 0.90227 0.05224 0.0
Co239 Co 0.86863 0.85331 0.06528 0.0
C240 C 0.89273 0.8864 0.09229 0.0
O241 O 0.88567 0.90233 0.08084 0.0
O242 O 0.88682 0.86674 0.08847 0.0
C243 C 0.86049 0.94956 0.0406 0.0
O244 O 0.84607 0.95305 0.05611 0.0
C245 C 0.86171 0.81168 0.08859 0.0
C246 C 0.85312 0.79039 0.06058 0.0
C247 C 0.85559 0.79058 0.08304 0.0
N248 N 0.86254 0.82352 0.07014 0.0
N249 N 0.85766 0.81065 0.05347 0.0
C250 C 0.86577 0.82077 0.11091 0.0
H251 H 0.86029 0.83806 0.11166 0.0
H252 H 0.85722 0.81095 0.12355 0.0
H253 H 0.88361 0.82037 0.11428 0.0
C254 C 0.82508 0.89345 0.04086 0.0
N255 N 0.84379 0.8883 0.05125 0.0
N256 N 0.84215 0.86852 0.05944 0.0
C257 C 0.82167 0.86107 0.05604 0.0
C258 C 0.81024 0.87642 0.04374 0.0
C259 C 0.82336 0.91171 0.02456 0.0
H260 H 0.83957 0.91514 0.01728 0.0
H261 H 0.81727 0.92663 0.03287 0.0
H262 H 0.81201 0.90759 0.01102 0.0
O263 O 0.89157 0.88776 0.03306 0.0
O264 O 0.88823 0.8524 0.03953 0.0
H265 H 0.81739 0.82651 0.05231 0.0
H266 H 0.7952 0.84004 0.06603 0.0
C267 C 0.81326 0.83956 0.06416 0.0
H268 H 0.82087 0.83553 0.08013 0.0
H269 H 0.8571 0.81585 0.03723 0.0
O270 O 0.8701 0.93125 0.03923 0.0
C271 C 0.89701 0.86815 0.02926 0.0
Co272 Co 0.30819 0.1533 0.11832 0.0
Co273 Co 0.31246 0.10295 0.11779 0.0
C274 C 0.3409 0.13479 0.14482 0.0
O275 O 0.33565 0.15228 0.13472 0.0
O276 O 0.33298 0.11624 0.13931 0.0
C277 C 0.2961 0.20256 0.11067 0.0
O278 O 0.31435 0.21129 0.10343 0.0
C279 C 0.33574 0.06187 0.10842 0.0
C280 C 0.30856 0.03831 0.1123 0.0
C281 C 0.33053 0.03972 0.10685 0.0
N282 N 0.31756 0.07273 0.11429 0.0
N283 N 0.30145 0.05856 0.11669 0.0
C284 C 0.3568 0.07308 0.10301 0.0
H285 H 0.35388 0.0907 0.09969 0.0
H286 H 0.36462 0.06529 0.08862 0.0
H287 H 0.36806 0.0718 0.11719 0.0
C288 C 0.30203 0.14523 0.07116 0.0
N289 N 0.309 0.13872 0.09099 0.0
N290 N 0.31147 0.11739 0.09079 0.0
C291 C 0.3062 0.10965 0.07089 0.0
C292 C 0.29964 0.12699 0.05786 0.0
C293 C 0.29333 0.16761 0.06644 0.0
H294 H 0.30571 0.17998 0.07119 0.0
H295 H 0.28936 0.16959 0.04883 0.0
H296 H 0.2783 0.17041 0.07621 0.0
O297 O 0.28774 0.13966 0.13925 0.0
O298 O 0.28401 0.10448 0.13219 0.0
H299 H 0.28964 0.07945 0.07712 0.0
H300 H 0.29735 0.08331 0.04884 0.0
C301 C 0.30246 0.08593 0.06606 0.0
H302 H 0.31778 0.07671 0.06903 0.0
H303 H 0.28547 0.06274 0.12095 0.0
O304 O 0.29522 0.18239 0.11539 0.0
C305 C 0.27869 0.12134 0.14291 0.0
Co306 Co 0.40229 0.44012 0.1219 0.0
Co307 Co 0.35178 0.43273 0.12286 0.0
C308 C 0.38432 0.40541 0.09644 0.0
O309 O 0.40178 0.41282 0.10511 0.0
O310 O 0.36539 0.41188 0.10239 0.0
C311 C 0.45061 0.45164 0.13103 0.0
O312 O 0.45653 0.43378 0.14139 0.0
C313 C 0.31095 0.40807 0.13122 0.0
C314 C 0.28723 0.43538 0.1307 0.0
C315 C 0.28889 0.41301 0.13383 0.0
N316 N 0.32167 0.4268 0.12698 0.0
N317 N 0.30737 0.44298 0.12652 0.0
C318 C 0.32203 0.38646 0.13414 0.0
H319 H 0.3395 0.38889 0.13851 0.0
H320 H 0.31368 0.37666 0.14693 0.0
H321 H 0.3213 0.3773 0.1185 0.0
C322 C 0.39442 0.44437 0.16948 0.0
N323 N 0.38795 0.43819 0.14938 0.0
N324 N 0.36669 0.43491 0.14967 0.0
C325 C 0.35902 0.43895 0.16988 0.0
C326 C 0.37626 0.44554 0.18302 0.0
C327 C 0.41669 0.45309 0.1747 0.0
H328 H 0.42895 0.44019 0.17144 0.0
H329 H 0.41807 0.45802 0.19211 0.0
H330 H 0.42025 0.46742 0.16417 0.0
O331 O 0.38793 0.46119 0.10208 0.0
O332 O 0.3522 0.46047 0.10683 0.0
H333 H 0.32803 0.45452 0.16531 0.0
H334 H 0.33269 0.44481 0.19284 0.0
C335 C 0.33523 0.44116 0.17525 0.0
H336 H 0.32666 0.42571 0.17121 0.0
H337 H 0.31142 0.45932 0.12372 0.0
O338 O 0.43121 0.454 0.12408 0.0
C339 C 0.36897 0.46839 0.09758 0.0
Co340 Co 0.68807 0.33944 0.11901 0.0
Co341 Co 0.68252 0.38987 0.12016 0.0
C342 C 0.65539 0.35603 0.14636 0.0
O343 O 0.66118 0.33876 0.13618 0.0
O344 O 0.66272 0.3749 0.14113 0.0
C345 C 0.70243 0.2908 0.11303 0.0
O346 O 0.68391 0.28039 0.11625 0.0
C347 C 0.65681 0.42963 0.11188 0.0
C348 C 0.683 0.45459 0.11329 0.0
C349 C 0.66092 0.45177 0.10907 0.0
N350 N 0.67576 0.41985 0.11721 0.0
N351 N 0.69126 0.43488 0.11829 0.0
C352 C 0.63591 0.4176 0.10779 0.0
H353 H 0.63931 0.40015 0.10404 0.0
H354 H 0.62666 0.42528 0.09418 0.0
H355 H 0.62568 0.4183 0.12275 0.0
C356 C 0.69058 0.34866 0.07203 0.0
N357 N 0.68522 0.35486 0.09239 0.0
N358 N 0.68333 0.37623 0.09287 0.0
C359 C 0.68781 0.38438 0.07296 0.0
C360 C 0.69304 0.36719 0.05915 0.0
C361 C 0.69781 0.32604 0.06615 0.0
H362 H 0.68653 0.31388 0.07349 0.0
H363 H 0.6982 0.32386 0.04813 0.0
H364 H 0.7145 0.32319 0.07273 0.0
O365 O 0.70847 0.35347 0.13982 0.0
O366 O 0.71119 0.38902 0.13423 0.0
H367 H 0.70516 0.41399 0.07986 0.0
H368 H 0.69721 0.41103 0.05151 0.0
C369 C 0.69213 0.40811 0.06867 0.0
H370 H 0.67707 0.41764 0.07195 0.0
H371 H 0.70764 0.43158 0.12176 0.0
O372 O 0.70313 0.31151 0.11412 0.0
C373 C 0.71713 0.37184 0.14414 0.0
Co374 Co 0.58984 0.0484 0.11997 0.0
Co375 Co 0.63807 0.06407 0.12481 0.0
C376 C 0.60682 0.08737 0.09621 0.0
O377 O 0.59084 0.07561 0.10254 0.0
O378 O 0.62591 0.08549 0.10441 0.0
C379 C 0.54448 0.04001 0.13426 0.0
O380 O 0.54675 0.05414 0.15028 0.0
C381 C 0.67943 0.08796 0.1335 0.0
C382 C 0.70117 0.05982 0.14027 0.0
C383 C 0.7008 0.08233 0.13848 0.0
N384 N 0.66759 0.06946 0.13251 0.0
N385 N 0.68065 0.05277 0.13679 0.0
C386 C 0.67084 0.11024 0.12834 0.0
H387 H 0.65271 0.11049 0.12935 0.0
H388 H 0.6779 0.12246 0.13976 0.0
H389 H 0.67588 0.11479 0.11152 0.0
C390 C 0.59751 0.03941 0.16678 0.0
N391 N 0.60245 0.04973 0.148 0.0
N392 N 0.62111 0.06003 0.15037 0.0
C393 C 0.62756 0.05863 0.17137 0.0
C394 C 0.613 0.04512 0.18256 0.0
C395 C 0.58229 0.02016 0.16768 0.0
H396 H 0.57872 0.01401 0.15101 0.0
H397 H 0.56678 0.025 0.1757 0.0
H398 H 0.58963 0.0066 0.17726 0.0
O399 O 0.60533 0.02732 0.10228 0.0
O400 O 0.63989 0.03728 0.10624 0.0
H401 H 0.66204 0.05963 0.17758 0.0
H402 H 0.64559 0.07311 0.19803 0.0
C403 C 0.64738 0.06996 0.18026 0.0
H404 H 0.64988 0.08572 0.17161 0.0
H405 H 0.67561 0.03646 0.13686 0.0
O406 O 0.55995 0.03711 0.12077 0.0
C407 C 0.62542 0.02494 0.09774 0.0
Co408 Co 0.30195 0.83976 0.3732 0.0
Co409 Co 0.31737 0.88829 0.37229 0.0
C410 C 0.34187 0.85461 0.34864 0.0
O411 O 0.32822 0.8399 0.3543 0.0
O412 O 0.34125 0.87391 0.35653 0.0
C413 C 0.29 0.79022 0.38378 0.0
O414 O 0.3081 0.77965 0.38852 0.0
C415 C 0.33947 0.93051 0.37978 0.0
C416 C 0.31062 0.95241 0.37965 0.0
C417 C 0.33303 0.95203 0.38281 0.0
N418 N 0.32149 0.91866 0.37539 0.0
N419 N 0.3044 0.93189 0.375 0.0
C420 C 0.36177 0.92095 0.38285 0.0
H421 H 0.36052 0.90349 0.38768 0.0
H422 H 0.37111 0.93026 0.39534 0.0
H423 H 0.37077 0.92188 0.36713 0.0
C424 C 0.29721 0.85009 0.41978 0.0
N425 N 0.30507 0.85495 0.39984 0.0
N426 N 0.31141 0.87547 0.39963 0.0
C427 C 0.30795 0.88424 0.41955 0.0
C428 C 0.29853 0.86855 0.43286 0.0
C429 C 0.28484 0.8296 0.42498 0.0
H430 H 0.27064 0.82806 0.41376 0.0
H431 H 0.2957 0.8153 0.42248 0.0
H432 H 0.27895 0.82949 0.44214 0.0
O433 O 0.27905 0.85302 0.35459 0.0
O434 O 0.29265 0.88643 0.35197 0.0
H435 H 0.2969 0.91719 0.4159 0.0
H436 H 0.30782 0.91105 0.44258 0.0
C437 C 0.3098 0.90807 0.42479 0.0
H438 H 0.32604 0.91422 0.41963 0.0
H439 H 0.28835 0.92675 0.37227 0.0
O440 O 0.29063 0.81038 0.37897 0.0
C441 C 0.27878 0.87207 0.34629 0.0
Co442 Co 0.08949 0.44681 0.87191 0.0
Co443 Co 0.13658 0.42719 0.86884 0.0
C444 C 0.10506 0.40605 0.89653 0.0
O445 O 0.09167 0.42128 0.8917 0.0
O446 O 0.12346 0.40417 0.88697 0.0
C447 C 0.04439 0.45522 0.85619 0.0
O448 O 0.04799 0.44222 0.83948 0.0
C449 C 0.17858 0.40401 0.86105 0.0
C450 C 0.20052 0.43263 0.85786 0.0
C451 C 0.20023 0.41003 0.85804 0.0
N452 N 0.16657 0.42237 0.86257 0.0
N453 N 0.17977 0.43936 0.8604 0.0
C454 C 0.16974 0.38144 0.86428 0.0
H455 H 0.1518 0.38118 0.86145 0.0
H456 H 0.17793 0.36974 0.85311 0.0
H457 H 0.17309 0.37618 0.88132 0.0
C458 C 0.0988 0.45425 0.82556 0.0
N459 N 0.10255 0.44348 0.84432 0.0
N460 N 0.12098 0.43258 0.8426 0.0
C461 C 0.12845 0.43433 0.82195 0.0
C462 C 0.11471 0.44835 0.81045 0.0
C463 C 0.08481 0.47435 0.82433 0.0
H464 H 0.07961 0.47968 0.84082 0.0
H465 H 0.0703 0.47089 0.81408 0.0
H466 H 0.09395 0.48799 0.81656 0.0
O467 O 0.10491 0.46951 0.88716 0.0
O468 O 0.13736 0.45354 0.88842 0.0
H469 H 0.16325 0.43425 0.81815 0.0
H470 H 0.14852 0.4217 0.79588 0.0
C471 C 0.14903 0.42381 0.8139 0.0
H472 H 0.15122 0.40764 0.82183 0.0
H473 H 0.17463 0.45562 0.86117 0.0
O474 O 0.05903 0.45762 0.8707 0.0
C475 C 0.12446 0.46891 0.89404 0.0
Co476 Co 0.69082 0.65377 0.37031 0.0
Co477 Co 0.67765 0.60483 0.37458 0.0
C478 C 0.65181 0.63753 0.34847 0.0
O479 O 0.66169 0.65419 0.35627 0.0
O480 O 0.65591 0.61815 0.35506 0.0
C481 C 0.70604 0.69925 0.38282 0.0
O482 O 0.69191 0.70184 0.39877 0.0
C483 C 0.65455 0.5629 0.38326 0.0
C484 C 0.68353 0.54152 0.38676 0.0
C485 C 0.66086 0.54129 0.38706 0.0
N486 N 0.67277 0.575 0.38087 0.0
N487 N 0.68995 0.5621 0.383 0.0
C488 C 0.63201 0.5724 0.38294 0.0
H489 H 0.63266 0.59022 0.38643 0.0
H490 H 0.62143 0.56411 0.39513 0.0
H491 H 0.6248 0.57014 0.36644 0.0
C492 C 0.70433 0.64425 0.41583 0.0
N493 N 0.69248 0.63981 0.39783 0.0
N494 N 0.68286 0.62081 0.40034 0.0
C495 C 0.68638 0.6135 0.42078 0.0
C496 C 0.70047 0.62796 0.43133 0.0
C497 C 0.72317 0.66 0.41578 0.0
H498 H 0.7289 0.66288 0.39886 0.0
H499 H 0.71799 0.67573 0.42315 0.0
H500 H 0.73721 0.65353 0.42528 0.0
O501 O 0.7085 0.63851 0.34898 0.0
O502 O 0.704 0.60327 0.3557 0.0
H503 H 0.68713 0.57878 0.42529 0.0
H504 H 0.67509 0.59372 0.44772 0.0
C505 C 0.6766 0.59288 0.42966 0.0
H506 H 0.66018 0.59019 0.42239 0.0
H507 H 0.70614 0.5674 0.38188 0.0
O508 O 0.70525 0.6823 0.37089 0.0
C509 C 0.71292 0.61868 0.34505 0.0
Co510 Co 0.90438 0.04735 0.87149 0.0
Co511 Co 0.85591 0.06436 0.86836 0.0
C512 C 0.88783 0.08842 0.89404 0.0
O513 O 0.90242 0.0742 0.88959 0.0
O514 O 0.86906 0.08821 0.88497 0.0
C515 C 0.95015 0.03933 0.85692 0.0
O516 O 0.94784 0.05354 0.84098 0.0
C517 C 0.81188 0.08537 0.86249 0.0
C518 C 0.79432 0.057 0.84858 0.0
C519 C 0.7916 0.07884 0.85404 0.0
N520 N 0.82572 0.06824 0.86137 0.0
N521 N 0.81495 0.05133 0.85336 0.0
C522 C 0.81776 0.10674 0.87287 0.0
H523 H 0.83212 0.10487 0.88373 0.0
H524 H 0.82188 0.11878 0.85993 0.0
H525 H 0.80388 0.11309 0.88268 0.0
C526 C 0.89591 0.04015 0.82442 0.0
N527 N 0.8909 0.04917 0.84385 0.0
N528 N 0.87172 0.05877 0.84232 0.0
C529 C 0.86486 0.0578 0.82141 0.0
C530 C 0.87976 0.0457 0.80951 0.0
C531 C 0.91234 0.02222 0.82144 0.0
H532 H 0.91767 0.01556 0.83741 0.0
H533 H 0.92654 0.02867 0.81222 0.0
H534 H 0.90528 0.00861 0.8117 0.0
O535 O 0.88963 0.02575 0.88919 0.0
O536 O 0.85608 0.03947 0.88962 0.0
H537 H 0.83081 0.05496 0.81363 0.0
H538 H 0.84596 0.07216 0.79549 0.0
C539 C 0.84399 0.06737 0.81289 0.0
H540 H 0.83923 0.08191 0.82261 0.0
H541 H 0.82185 0.03592 0.8509 0.0
O542 O 0.93463 0.03626 0.87033 0.0
C543 C 0.87017 0.02567 0.89628 0.0
Co544 Co 0.12192 0.29677 0.15216 0.0
Co545 Co 0.12082 0.31117 0.10312 0.0
C546 C 0.14479 0.33703 0.13631 0.0
O547 O 0.13812 0.32471 0.15175 0.0
O548 O 0.13834 0.33438 0.11668 0.0
C549 C 0.10613 0.29086 0.19756 0.0
O550 O 0.09095 0.3057 0.19422 0.0
C551 C 0.11522 0.33604 0.06243 0.0
C552 C 0.10587 0.30956 0.0396 0.0
C553 C 0.10915 0.33188 0.04108 0.0
N554 N 0.11529 0.31696 0.07329 0.0
N555 N 0.1099 0.30118 0.05951 0.0
C556 C 0.11999 0.35775 0.07261 0.0
H557 H 0.11256 0.35855 0.08914 0.0
H558 H 0.11373 0.37135 0.06234 0.0
H559 H 0.13796 0.35956 0.07448 0.0
C560 C 0.07512 0.28834 0.14196 0.0
N561 N 0.09478 0.29712 0.13731 0.0
N562 N 0.094 0.30594 0.11776 0.0
C563 C 0.07335 0.30468 0.11009 0.0
C564 C 0.06073 0.29316 0.12502 0.0
C565 C 0.0715 0.27168 0.15954 0.0
H566 H 0.08727 0.265 0.16546 0.0
H567 H 0.0625 0.2794 0.17323 0.0
H568 H 0.06143 0.25789 0.15336 0.0
O569 O 0.14218 0.27674 0.13833 0.0
O570 O 0.141 0.28556 0.10318 0.0
H571 H 0.06936 0.30257 0.0754 0.0
H572 H 0.04791 0.31728 0.08912 0.0
C573 C 0.06581 0.31419 0.08883 0.0
H574 H 0.07452 0.32976 0.08557 0.0
H575 H 0.10865 0.28471 0.06383 0.0
O576 O 0.11949 0.2861 0.18243 0.0
C577 C 0.14883 0.27433 0.11885 0.0
Co578 Co 0.11838 0.69189 0.33987 0.0
Co579 Co 0.11829 0.67939 0.38941 0.0
C580 C 0.14475 0.65524 0.3553 0.0
O581 O 0.13587 0.6646 0.33887 0.0
O582 O 0.13874 0.65919 0.3749 0.0
C583 C 0.11848 0.70524 0.29153 0.0
O584 O 0.12971 0.6885 0.2841 0.0
C585 C 0.11182 0.6553 0.43111 0.0
C586 C 0.11041 0.6835 0.45375 0.0
C587 C 0.10945 0.66094 0.45292 0.0
N588 N 0.11399 0.67385 0.41952 0.0
N589 N 0.11301 0.69059 0.43317 0.0
C590 C 0.11295 0.63281 0.4216 0.0
H591 H 0.1182 0.63343 0.40426 0.0
H592 H 0.09656 0.62507 0.42251 0.0
H593 H 0.12445 0.6226 0.43127 0.0
C594 C 0.0718 0.69841 0.35028 0.0
N595 N 0.09154 0.68993 0.35506 0.0
N596 N 0.09119 0.68205 0.37498 0.0
C597 C 0.07076 0.68369 0.38302 0.0
C598 C 0.05776 0.69464 0.36786 0.0
C599 C 0.06861 0.71423 0.33181 0.0
H600 H 0.08265 0.72565 0.33156 0.0
H601 H 0.06831 0.70517 0.3161 0.0
H602 H 0.05365 0.72426 0.3333 0.0
O603 O 0.13839 0.71218 0.35403 0.0
O604 O 0.13519 0.70707 0.38961 0.0
H605 H 0.06979 0.68715 0.41783 0.0
H606 H 0.04604 0.67383 0.40625 0.0
C607 C 0.06408 0.67555 0.40511 0.0
H608 H 0.07175 0.65942 0.40824 0.0
H609 H 0.1142 0.70694 0.42841 0.0
O610 O 0.11365 0.70639 0.31165 0.0
C611 C 0.14373 0.71694 0.37347 0.0
Co612 Co 0.9464 0.6211 0.90074 0.0
Co613 Co 0.92365 0.6239 0.85575 0.0
C614 C 0.90428 0.59707 0.88888 0.0
O615 O 0.92072 0.60159 0.90088 0.0
O616 O 0.90083 0.60687 0.87078 0.0
C617 C 0.95842 0.62234 0.95 0.0
O618 O 0.94023 0.61574 0.95934 0.0
C619 C 0.90002 0.63205 0.81398 0.0
C620 C 0.92878 0.63499 0.79219 0.0
C621 C 0.90617 0.63531 0.79242 0.0
N622 N 0.91834 0.62991 0.82596 0.0
N623 N 0.93539 0.63188 0.81285 0.0
C624 C 0.87733 0.62952 0.82271 0.0
H625 H 0.8776 0.62661 0.84059 0.0
H626 H 0.86773 0.64452 0.81925 0.0
H627 H 0.86911 0.61567 0.81433 0.0
C628 C 0.95117 0.66783 0.89339 0.0
N629 N 0.94172 0.64863 0.88854 0.0
N630 N 0.93089 0.65035 0.87014 0.0
C631 C 0.93197 0.67126 0.8632 0.0
C632 C 0.94513 0.68308 0.8776 0.0
C633 C 0.96965 0.66952 0.90941 0.0
H634 H 0.97977 0.65458 0.90812 0.0
H635 H 0.96298 0.67055 0.92623 0.0
H636 H 0.98052 0.68366 0.90632 0.0
O637 O 0.96847 0.60534 0.88419 0.0
O638 O 0.94842 0.60265 0.85426 0.0
H639 H 0.93202 0.67514 0.82846 0.0
H640 H 0.91937 0.69743 0.8431 0.0
C641 C 0.92152 0.6794 0.84261 0.0
H642 H 0.90537 0.67145 0.84032 0.0
H643 H 0.95163 0.63079 0.81803 0.0
O644 O 0.95966 0.62397 0.9294 0.0
C645 C 0.96503 0.59712 0.8655 0.0
Co646 Co 0.87731 0.80458 0.34083 0.0
Co647 Co 0.87315 0.81131 0.39097 0.0
C648 C 0.84763 0.8364 0.35559 0.0
O649 O 0.85912 0.83086 0.33914 0.0
O650 O 0.85216 0.82987 0.37489 0.0
C651 C 0.87017 0.78546 0.29915 0.0
O652 O 0.84979 0.79143 0.30247 0.0
C653 C 0.87933 0.83598 0.43195 0.0
C654 C 0.87457 0.80923 0.45585 0.0
C655 C 0.88031 0.83105 0.45407 0.0
N656 N 0.87369 0.81766 0.42119 0.0
N657 N 0.8705 0.80189 0.43561 0.0
C658 C 0.88572 0.85687 0.42098 0.0
H659 H 0.88946 0.85393 0.40347 0.0
H660 H 0.90005 0.86429 0.42933 0.0
H661 H 0.87187 0.86857 0.42203 0.0
C662 C 0.92389 0.80304 0.35313 0.0
N663 N 0.90306 0.80836 0.35781 0.0
N664 N 0.90126 0.8112 0.379 0.0
C665 C 0.92075 0.80744 0.38851 0.0
C666 C 0.9357 0.80167 0.37249 0.0
C667 C 0.93111 0.79439 0.33143 0.0
H668 H 0.92459 0.80487 0.31814 0.0
H669 H 0.94923 0.79382 0.33033 0.0
H670 H 0.92463 0.77757 0.32929 0.0
O671 O 0.85645 0.78295 0.35331 0.0
O672 O 0.86012 0.78231 0.38921 0.0
H673 H 0.91218 0.79187 0.41867 0.0
H674 H 0.94077 0.79944 0.4167 0.0
C675 C 0.92378 0.80444 0.41262 0.0
H676 H 0.92024 0.82006 0.42107 0.0
H677 H 0.86641 0.78582 0.43157 0.0
O678 O 0.88489 0.7919 0.31232 0.0
C679 C 0.85132 0.77515 0.37188 0.0
Co680 Co 0.5519 0.36887 0.40325 0.0
Co681 Co 0.56119 0.36939 0.35314 0.0
C682 C 0.58854 0.39435 0.38589 0.0
O683 O 0.57892 0.38617 0.40249 0.0
O684 O 0.5835 0.38879 0.36642 0.0
C685 C 0.54178 0.35819 0.4518 0.0
O686 O 0.55955 0.34754 0.45754 0.0
C687 C 0.58401 0.36267 0.31105 0.0
C688 C 0.55528 0.35885 0.2893 0.0
C689 C 0.57792 0.35873 0.28953 0.0
N690 N 0.56565 0.36476 0.32295 0.0
N691 N 0.5486 0.36248 0.30985 0.0
C692 C 0.60658 0.36599 0.31996 0.0
H693 H 0.60613 0.36875 0.33785 0.0
H694 H 0.61688 0.35147 0.31667 0.0
H695 H 0.61424 0.38028 0.3118 0.0
C696 C 0.54798 0.32153 0.3942 0.0
N697 N 0.55394 0.34191 0.3884 0.0
N698 N 0.55885 0.34206 0.3675 0.0
C699 C 0.55681 0.3216 0.35957 0.0
C700 C 0.54946 0.308 0.37607 0.0
C701 C 0.537 0.31601 0.41536 0.0
H702 H 0.52338 0.32761 0.41838 0.0
H703 H 0.54904 0.31761 0.4288 0.0
H704 H 0.53054 0.29903 0.41543 0.0
O705 O 0.53022 0.38846 0.39015 0.0
O706 O 0.53398 0.38682 0.35435 0.0
H707 H 0.544 0.3225 0.32707 0.0
H708 H 0.55816 0.29754 0.33376 0.0
C709 C 0.55823 0.31557 0.33592 0.0
H710 H 0.57352 0.32221 0.32884 0.0
H711 H 0.53235 0.36328 0.31501 0.0
O712 O 0.53956 0.36546 0.43252 0.0
C713 C 0.52449 0.39445 0.37115 0.0
Co714 Co 0.37726 0.68885 0.65398 0.0
Co715 Co 0.37378 0.68037 0.60371 0.0
C716 C 0.34921 0.65409 0.63804 0.0
O717 O 0.35846 0.66304 0.65445 0.0
O718 O 0.3541 0.65912 0.61841 0.0
C719 C 0.36937 0.70761 0.69536 0.0
O720 O 0.34902 0.70206 0.69119 0.0
C721 C 0.37899 0.65614 0.56226 0.0
C722 C 0.37625 0.68353 0.53879 0.0
C723 C 0.37938 0.66114 0.54014 0.0
N724 N 0.37589 0.67484 0.57339 0.0
N725 N 0.37429 0.6911 0.55926 0.0
C726 C 0.3808 0.63409 0.57269 0.0
H727 H 0.37343 0.63423 0.58924 0.0
H728 H 0.39835 0.62974 0.57434 0.0
H729 H 0.3727 0.62151 0.56239 0.0
C730 C 0.42396 0.69001 0.64275 0.0
N731 N 0.40316 0.68496 0.63758 0.0
N732 N 0.40176 0.68193 0.61639 0.0
C733 C 0.42155 0.68534 0.60737 0.0
C734 C 0.43622 0.69107 0.62372 0.0
C735 C 0.43088 0.69838 0.66468 0.0
H736 H 0.42403 0.68781 0.67772 0.0
H737 H 0.44898 0.69874 0.66618 0.0
H738 H 0.42453 0.71522 0.66687 0.0
O739 O 0.3577 0.71149 0.64179 0.0
O740 O 0.35819 0.70841 0.60578 0.0
H741 H 0.4153 0.70102 0.57674 0.0
H742 H 0.44292 0.69075 0.57968 0.0
C743 C 0.42542 0.68747 0.58331 0.0
H744 H 0.42052 0.67211 0.57503 0.0
H745 H 0.3719 0.70743 0.56361 0.0
O746 O 0.38446 0.7006 0.68298 0.0
C747 C 0.35147 0.71779 0.623 0.0
Co748 Co 0.94018 0.36709 0.58942 0.0
Co749 Co 0.93116 0.36783 0.63947 0.0
C750 C 0.90634 0.3955 0.60709 0.0
O751 O 0.91472 0.38672 0.59019 0.0
O752 O 0.91105 0.38889 0.62625 0.0
C753 C 0.95014 0.35677 0.53913 0.0
O754 O 0.93218 0.35259 0.52807 0.0
C755 C 0.90702 0.36362 0.68102 0.0
C756 C 0.93488 0.36158 0.70404 0.0
C757 C 0.91224 0.36159 0.70301 0.0
N758 N 0.92582 0.36461 0.66967 0.0
N759 N 0.94235 0.36337 0.68353 0.0
C760 C 0.88476 0.36556 0.67099 0.0
H761 H 0.88562 0.37376 0.65488 0.0
H762 H 0.87792 0.34893 0.66848 0.0
H763 H 0.8736 0.37478 0.68193 0.0
C764 C 0.94264 0.31994 0.59887 0.0
N765 N 0.93638 0.34028 0.60448 0.0
N766 N 0.93183 0.34056 0.62544 0.0
C767 C 0.93469 0.32036 0.63372 0.0
C768 C 0.9422 0.30671 0.61731 0.0
C769 C 0.95354 0.3145 0.57765 0.0
H770 H 0.96828 0.3249 0.57559 0.0
H771 H 0.9421 0.31798 0.56402 0.0
H772 H 0.9584 0.29701 0.57689 0.0
O773 O 0.96409 0.38516 0.60195 0.0
O774 O 0.95933 0.38295 0.63776 0.0
H775 H 0.94937 0.3231 0.66532 0.0
H776 H 0.93594 0.29727 0.66044 0.0
C777 C 0.93496 0.31519 0.65763 0.0
H778 H 0.91989 0.32154 0.66541 0.0
H779 H 0.95879 0.36383 0.67895 0.0
O780 O 0.94909 0.36117 0.55934 0.0
C781 C 0.96966 0.39034 0.62133 0.0
Co782 Co 0.04194 0.11886 0.59244 0.0
Co783 Co 0.06586 0.12275 0.6367 0.0
C784 C 0.08524 0.09574 0.60428 0.0
O785 O 0.0683 0.09977 0.59276 0.0
O786 O 0.08887 0.10597 0.6221 0.0
C787 C 0.03514 0.13296 0.54716 0.0
O788 O 0.05043 0.14785 0.54976 0.0
C789 C 0.08963 0.13039 0.67839 0.0
C790 C 0.06111 0.13547 0.70009 0.0
C791 C 0.08369 0.13422 0.69992 0.0
N792 N 0.07123 0.12941 0.66638 0.0
N793 N 0.05433 0.13271 0.67942 0.0
C794 C 0.112 0.12582 0.66968 0.0
H795 H 0.11277 0.12985 0.65201 0.0
H796 H 0.12455 0.13526 0.67877 0.0
H797 H 0.11561 0.10814 0.67171 0.0
C798 C 0.0371 0.16634 0.59952 0.0
N799 N 0.04635 0.1469 0.60405 0.0
N800 N 0.05836 0.14874 0.62173 0.0
C801 C 0.05835 0.16976 0.6283 0.0
C802 C 0.04466 0.18164 0.61456 0.0
C803 C 0.01774 0.16897 0.58465 0.0
H804 H 0.01036 0.15288 0.58074 0.0
H805 H 0.02298 0.1771 0.56933 0.0
H806 H 0.00505 0.17938 0.5924 0.0
O807 O 0.02 0.10333 0.60946 0.0
O808 O 0.04153 0.10113 0.63844 0.0
H809 H 0.06051 0.17481 0.66283 0.0
H810 H 0.07327 0.19593 0.64669 0.0
C811 C 0.07035 0.17804 0.64796 0.0
H812 H 0.08623 0.16939 0.64963 0.0
H813 H 0.03806 0.13256 0.67422 0.0
O814 O 0.03047 0.12004 0.56269 0.0
C815 C 0.02449 0.09528 0.62801 0.0
Co816 Co 0.65365 0.61909 0.79904 0.0
Co817 Co 0.60497 0.61879 0.81485 0.0
C818 C 0.6401 0.64426 0.83792 0.0
O819 O 0.65543 0.63718 0.82571 0.0
O820 O 0.62044 0.63734 0.83624 0.0
C821 C 0.70213 0.60995 0.78481 0.0
O822 O 0.71235 0.60555 0.80319 0.0
C823 C 0.56345 0.61304 0.83963 0.0
C824 C 0.54017 0.61426 0.81192 0.0
C825 C 0.54138 0.61248 0.8344 0.0
N826 N 0.5748 0.61508 0.82092 0.0
N827 N 0.56075 0.61564 0.80448 0.0
C828 C 0.57343 0.61317 0.86194 0.0
H829 H 0.59153 0.61419 0.86093 0.0
H830 H 0.56872 0.59807 0.87081 0.0
H831 H 0.567 0.62732 0.87132 0.0
C832 C 0.6444 0.57201 0.7952 0.0
N833 N 0.63914 0.592 0.80276 0.0
N834 N 0.61868 0.59179 0.80931 0.0
C835 C 0.61031 0.57165 0.8061 0.0
C836 C 0.62623 0.55852 0.79677 0.0
C837 C 0.66489 0.56709 0.78276 0.0
H838 H 0.66566 0.57764 0.76801 0.0
H839 H 0.67926 0.57076 0.79321 0.0
H840 H 0.66565 0.54968 0.77768 0.0
O841 O 0.63867 0.63833 0.77761 0.0
O842 O 0.6044 0.6376 0.78907 0.0
H843 H 0.57725 0.57458 0.79513 0.0
H844 H 0.58388 0.54817 0.80656 0.0
C845 C 0.58657 0.56606 0.80816 0.0
H846 H 0.58038 0.57158 0.82426 0.0
H847 H 0.56524 0.61728 0.78812 0.0
O848 O 0.68189 0.6145 0.78483 0.0
C849 C 0.61895 0.64471 0.77616 0.0
Co850 Co 0.87087 0.09431 0.44337 0.0
Co851 Co 0.8704 0.1426 0.42847 0.0
C852 C 0.8966 0.10757 0.40554 0.0
O853 O 0.88851 0.09209 0.41691 0.0
O854 O 0.89046 0.1274 0.40794 0.0
C855 C 0.86131 0.04673 0.45569 0.0
O856 O 0.85486 0.03953 0.4365 0.0
C857 C 0.86318 0.18175 0.40177 0.0
C858 C 0.85891 0.20619 0.42815 0.0
C859 C 0.85838 0.20351 0.40572 0.0
N860 N 0.86601 0.17195 0.42117 0.0
N861 N 0.86377 0.18667 0.43682 0.0
C862 C 0.86358 0.17007 0.38033 0.0
H863 H 0.85914 0.1526 0.38262 0.0
H864 H 0.85226 0.17793 0.3685 0.0
H865 H 0.88041 0.1708 0.37358 0.0
C866 C 0.82334 0.10221 0.44537 0.0
N867 N 0.84358 0.10805 0.43902 0.0
N868 N 0.84325 0.12855 0.43264 0.0
C869 C 0.82275 0.13639 0.43481 0.0
C870 C 0.80954 0.12006 0.44326 0.0
C871 C 0.81808 0.0813 0.45696 0.0
H872 H 0.82826 0.07991 0.47192 0.0
H873 H 0.82187 0.06736 0.44605 0.0
H874 H 0.80053 0.0804 0.46155 0.0
O875 O 0.89019 0.11002 0.46401 0.0
O876 O 0.88706 0.14491 0.45543 0.0
H877 H 0.82438 0.16927 0.44649 0.0
H878 H 0.79865 0.16226 0.43387 0.0
C879 C 0.81666 0.16002 0.43295 0.0
H880 H 0.82256 0.16665 0.41717 0.0
H881 H 0.86493 0.18323 0.45349 0.0
O882 O 0.86711 0.06647 0.45816 0.0
C883 C 0.89499 0.12994 0.46727 0.0
Co884 Co 0.3382 0.87381 0.7998 0.0
Co885 Co 0.38813 0.87491 0.8133 0.0
C886 C 0.35868 0.8468 0.83651 0.0
O887 O 0.34345 0.85245 0.82351 0.0
O888 O 0.37719 0.85625 0.83641 0.0
C889 C 0.28627 0.88128 0.79405 0.0
O890 O 0.2711 0.88375 0.80907 0.0
C891 C 0.42966 0.88221 0.83642 0.0
C892 C 0.4526 0.88677 0.80892 0.0
C893 C 0.45133 0.88685 0.83153 0.0
N894 N 0.41863 0.87974 0.81753 0.0
N895 N 0.4325 0.88224 0.80117 0.0
C896 C 0.41911 0.88184 0.85847 0.0
H897 H 0.40187 0.88743 0.85724 0.0
H898 H 0.4282 0.89233 0.87018 0.0
H899 H 0.4191 0.8648 0.86472 0.0
C900 C 0.34667 0.92062 0.79672 0.0
N901 N 0.35255 0.90077 0.80408 0.0
N902 N 0.37288 0.90151 0.81103 0.0
C903 C 0.38036 0.92212 0.80905 0.0
C904 C 0.36425 0.93481 0.79931 0.0
C905 C 0.32656 0.92427 0.78317 0.0
H906 H 0.32437 0.9103 0.77189 0.0
H907 H 0.3121 0.92495 0.79408 0.0
H908 H 0.32729 0.93951 0.77343 0.0
O909 O 0.34997 0.85843 0.77398 0.0
O910 O 0.38421 0.8568 0.78656 0.0
H911 H 0.4144 0.92256 0.80091 0.0
H912 H 0.40482 0.94714 0.81407 0.0
C913 C 0.40339 0.92904 0.81375 0.0
H914 H 0.40864 0.92241 0.82977 0.0
H915 H 0.42811 0.88132 0.78471 0.0
O916 O 0.30589 0.87851 0.80049 0.0
C917 C 0.36957 0.85126 0.77271 0.0
Co918 Co 0.12251 0.40208 0.44204 0.0
Co919 Co 0.12195 0.35342 0.42668 0.0
C920 C 0.09948 0.38874 0.40153 0.0
O921 O 0.107 0.40361 0.41407 0.0
O922 O 0.10471 0.36863 0.40384 0.0
C923 C 0.13456 0.44968 0.45412 0.0
O924 O 0.14572 0.45538 0.43669 0.0
C925 C 0.1297 0.3119 0.40278 0.0
C926 C 0.13356 0.28973 0.43114 0.0
C927 C 0.13456 0.29049 0.40857 0.0
N928 N 0.12635 0.32331 0.42126 0.0
N929 N 0.12838 0.30988 0.43806 0.0
C930 C 0.13003 0.32183 0.38045 0.0
H931 H 0.13373 0.33958 0.38151 0.0
H932 H 0.14225 0.3135 0.36994 0.0
H933 H 0.11364 0.31986 0.37288 0.0
C934 C 0.16847 0.39103 0.45024 0.0
N935 N 0.14891 0.38661 0.4412 0.0
N936 N 0.14927 0.36691 0.43268 0.0
C937 C 0.1696 0.35863 0.43478 0.0
C938 C 0.1824 0.37352 0.44625 0.0
C939 C 0.17205 0.4094 0.46611 0.0
H940 H 0.15685 0.41257 0.47542 0.0
H941 H 0.17659 0.42441 0.45699 0.0
H942 H 0.18513 0.40564 0.4781 0.0
O943 O 0.1018 0.38826 0.4617 0.0
O944 O 0.10239 0.35327 0.4526 0.0
H945 H 0.17086 0.3238 0.43788 0.0
H946 H 0.19463 0.33567 0.42507 0.0
C947 C 0.17655 0.33668 0.42647 0.0
H948 H 0.16918 0.33369 0.41018 0.0
H949 H 0.12692 0.31468 0.45437 0.0
O950 O 0.12632 0.4307 0.45558 0.0
C951 C 0.09511 0.36882 0.46428 0.0
Co952 Co 0.64892 0.36969 0.69799 0.0
Co953 Co 0.60312 0.37187 0.67679 0.0
C954 C 0.63599 0.34573 0.65601 0.0
O955 O 0.64861 0.35062 0.67188 0.0
O956 O 0.61744 0.355 0.65359 0.0
C957 C 0.69571 0.38165 0.70682 0.0
O958 O 0.69684 0.39538 0.69035 0.0
C959 C 0.56164 0.38028 0.65311 0.0
C960 C 0.54005 0.38587 0.68159 0.0
C961 C 0.54033 0.38556 0.65898 0.0
N962 N 0.57334 0.37781 0.67156 0.0
N963 N 0.56031 0.38102 0.68845 0.0
C964 C 0.57122 0.37908 0.63066 0.0
H965 H 0.5889 0.38322 0.63116 0.0
H966 H 0.56252 0.3903 0.61935 0.0
H967 H 0.56956 0.36211 0.62443 0.0
C968 C 0.64161 0.41722 0.70197 0.0
N969 N 0.63653 0.39741 0.69383 0.0
N970 N 0.61774 0.39856 0.68348 0.0
C971 C 0.61079 0.41949 0.68365 0.0
C972 C 0.62556 0.43201 0.69558 0.0
C973 C 0.65865 0.42084 0.71926 0.0
H974 H 0.66228 0.40538 0.72796 0.0
H975 H 0.67382 0.42709 0.71153 0.0
H976 H 0.65312 0.43306 0.73146 0.0
O977 O 0.63279 0.35352 0.72001 0.0
O978 O 0.60187 0.35068 0.70156 0.0
H979 H 0.576 0.42312 0.68431 0.0
H980 H 0.5902 0.44523 0.67096 0.0
C981 C 0.58992 0.42725 0.67346 0.0
H982 H 0.58742 0.41901 0.65751 0.0
H983 H 0.56539 0.38023 0.70472 0.0
O984 O 0.67822 0.3711 0.71041 0.0
C985 C 0.61397 0.34517 0.71755 0.0
Co986 Co 0.61859 0.09254 0.5419 0.0
Co987 Co 0.62277 0.1366 0.566 0.0
C988 C 0.5962 0.10456 0.58529 0.0
O989 O 0.59985 0.09341 0.5681 0.0
O990 O 0.60704 0.12183 0.58957 0.0
C991 C 0.63185 0.04684 0.53391 0.0
O992 O 0.64734 0.04839 0.54874 0.0
C993 C 0.63115 0.17769 0.59034 0.0
C994 C 0.63785 0.19961 0.56235 0.0
C995 C 0.63669 0.19905 0.58493 0.0
N996 N 0.62929 0.16622 0.57169 0.0
N997 N 0.63318 0.17946 0.55508 0.0
C998 C 0.62885 0.16794 0.61263 0.0
H999 H 0.63385 0.15048 0.61237 0.0
H1000 H 0.63885 0.17705 0.62475 0.0
H1001 H 0.61142 0.16873 0.61764 0.0
C1002 C 0.66539 0.09985 0.53534 0.0
N1003 N 0.6465 0.10417 0.54564 0.0
N1004 N 0.64871 0.1219 0.55749 0.0
C1005 C 0.66964 0.12872 0.55632 0.0
C1006 C 0.68089 0.11511 0.54199 0.0
C1007 C 0.66694 0.08504 0.51584 0.0
H1008 H 0.65048 0.0816 0.50907 0.0
H1009 H 0.6748 0.06943 0.52071 0.0
H1010 H 0.67703 0.0926 0.50279 0.0
O1011 O 0.60278 0.10959 0.52036 0.0
O1012 O 0.60036 0.1383 0.54223 0.0
H1013 H 0.67482 0.16328 0.55817 0.0
H1014 H 0.69636 0.14714 0.57018 0.0
C1015 C 0.67838 0.14842 0.56793 0.0
H1016 H 0.67035 0.15014 0.58409 0.0
H1017 H 0.63284 0.1746 0.53873 0.0
O1018 O 0.61925 0.06292 0.53028 0.0
C1019 C 0.59435 0.12789 0.52522 0.0
Co1020 Co 0.34279 0.11939 0.69343 0.0
Co1021 Co 0.39242 0.11921 0.68463 0.0
C1022 C 0.35887 0.14573 0.65872 0.0
O1023 O 0.34206 0.13609 0.66641 0.0
O1024 O 0.3782 0.14053 0.66472 0.0
C1025 C 0.29458 0.11065 0.70509 0.0
O1026 O 0.2877 0.10203 0.68666 0.0
C1027 C 0.43148 0.11481 0.65761 0.0
C1028 C 0.45619 0.10646 0.68276 0.0
C1029 C 0.45317 0.10928 0.66055 0.0
N1030 N 0.42192 0.11499 0.67731 0.0
N1031 N 0.43679 0.11027 0.69229 0.0
C1032 C 0.41974 0.11874 0.63653 0.0
H1033 H 0.40255 0.113 0.63778 0.0
H1034 H 0.42815 0.11037 0.6228 0.0
H1035 H 0.41951 0.13657 0.63317 0.0
C1036 C 0.3505 0.07167 0.69511 0.0
N1037 N 0.35688 0.09218 0.69035 0.0
N1038 N 0.37777 0.09209 0.68541 0.0
C1039 C 0.38522 0.0714 0.68627 0.0
C1040 C 0.36838 0.05781 0.69303 0.0
C1041 C 0.32903 0.06629 0.7056 0.0
H1042 H 0.32664 0.07677 0.7202 0.0
H1043 H 0.31569 0.06976 0.69384 0.0
H1044 H 0.32796 0.04888 0.71055 0.0
O1045 O 0.35771 0.13966 0.7135 0.0
O1046 O 0.39329 0.1338 0.71327 0.0
H1047 H 0.41802 0.07096 0.69841 0.0
H1048 H 0.41051 0.04693 0.68305 0.0
C1049 C 0.40874 0.06498 0.68403 0.0
H1050 H 0.41572 0.07238 0.66905 0.0
H1051 H 0.43354 0.10917 0.709 0.0
O1052 O 0.3143 0.11665 0.70733 0.0
C1053 C 0.37673 0.14372 0.72076 0.0
Co1054 Co 0.36965 0.4016 0.55148 0.0
Co1055 Co 0.37037 0.35215 0.5631 0.0
C1056 C 0.3932 0.38755 0.58976 0.0
O1057 O 0.38454 0.40358 0.57956 0.0
O1058 O 0.3887 0.36768 0.58507 0.0
C1059 C 0.36158 0.44968 0.53733 0.0
O1060 O 0.35829 0.45905 0.55637 0.0
C1061 C 0.36147 0.31178 0.58799 0.0
C1062 C 0.36447 0.28771 0.56118 0.0
C1063 C 0.35963 0.28954 0.58324 0.0
N1064 N 0.36687 0.32225 0.56946 0.0
N1065 N 0.36876 0.30777 0.55359 0.0
C1066 C 0.35668 0.32343 0.60893 0.0
H1067 H 0.35372 0.34108 0.60579 0.0
H1068 H 0.3422 0.31613 0.61708 0.0
H1069 H 0.37102 0.32198 0.61997 0.0
C1070 C 0.32274 0.39171 0.54611 0.0
N1071 N 0.34291 0.38627 0.55302 0.0
N1072 N 0.34308 0.36549 0.55843 0.0
C1073 C 0.32297 0.35708 0.55523 0.0
C1074 C 0.30947 0.37334 0.54709 0.0
C1075 C 0.31736 0.41286 0.535 0.0
H1076 H 0.32721 0.41435 0.51984 0.0
H1077 H 0.32169 0.42666 0.54594 0.0
H1078 H 0.29972 0.4139 0.53076 0.0
O1079 O 0.39186 0.38743 0.53296 0.0
O1080 O 0.38819 0.3517 0.53644 0.0
H1081 H 0.32756 0.32422 0.54416 0.0
H1082 H 0.29999 0.33021 0.553 0.0
C1083 C 0.3176 0.33322 0.55632 0.0
H1084 H 0.32155 0.32692 0.57282 0.0
H1085 H 0.37251 0.31164 0.53741 0.0
O1086 O 0.36555 0.42936 0.53617 0.0
C1087 C 0.39731 0.36811 0.52776 0.0
Co1088 Co 0.80709 0.65454 0.61548 0.0
Co1089 Co 0.81364 0.60426 0.61745 0.0
C1090 C 0.83879 0.63778 0.64495 0.0
O1091 O 0.83303 0.65479 0.63436 0.0
O1092 O 0.83235 0.61868 0.63952 0.0
C1093 C 0.78779 0.69616 0.62294 0.0
O1094 O 0.79227 0.69232 0.64359 0.0
C1095 C 0.83719 0.56215 0.61368 0.0
C1096 C 0.80878 0.54031 0.60874 0.0
C1097 C 0.83147 0.54042 0.60942 0.0
N1098 N 0.81867 0.57395 0.61489 0.0
N1099 N 0.80181 0.56074 0.61222 0.0
C1100 C 0.85941 0.57184 0.61705 0.0
H1101 H 0.85814 0.58828 0.62458 0.0
H1102 H 0.86768 0.57363 0.60102 0.0
H1103 H 0.86943 0.56111 0.62773 0.0
C1104 C 0.80631 0.64442 0.56836 0.0
N1105 N 0.81112 0.63879 0.58908 0.0
N1106 N 0.81433 0.61758 0.5899 0.0
C1107 C 0.81168 0.60909 0.56976 0.0
C1108 C 0.80582 0.6257 0.55553 0.0
C1109 C 0.79767 0.66635 0.56179 0.0
H1110 H 0.80822 0.67943 0.56864 0.0
H1111 H 0.79706 0.66797 0.54371 0.0
H1112 H 0.78089 0.66834 0.56834 0.0
O1113 O 0.78436 0.64179 0.63499 0.0
O1114 O 0.78461 0.60598 0.63041 0.0
H1115 H 0.79469 0.57868 0.57262 0.0
H1116 H 0.80905 0.58206 0.54713 0.0
C1117 C 0.8098 0.58516 0.56499 0.0
H1118 H 0.82414 0.57642 0.5718 0.0
H1119 H 0.78551 0.56581 0.61221 0.0
O1120 O 0.79554 0.68359 0.6084 0.0
C1121 C 0.77672 0.62293 0.63934 0.0
Co1122 Co 0.90399 0.94237 0.62164 0.0
Co1123 Co 0.85487 0.92791 0.6238 0.0
C1124 C 0.88837 0.90266 0.59863 0.0
O1125 O 0.90395 0.91468 0.60557 0.0
O1126 O 0.86865 0.90536 0.60502 0.0
C1127 C 0.95075 0.95085 0.63324 0.0
O1128 O 0.9514 0.93417 0.64676 0.0
C1129 C 0.81192 0.90577 0.63121 0.0
C1130 C 0.79202 0.93523 0.63801 0.0
C1131 C 0.79088 0.91269 0.63651 0.0
N1132 N 0.82482 0.92356 0.62996 0.0
N1133 N 0.81276 0.94103 0.63398 0.0
C1134 C 0.81948 0.88303 0.62634 0.0
H1135 H 0.83421 0.88334 0.6158 0.0
H1136 H 0.82382 0.87476 0.6419 0.0
H1137 H 0.80632 0.87351 0.6182 0.0
C1138 C 0.89598 0.94825 0.66914 0.0
N1139 N 0.89031 0.94064 0.64926 0.0
N1140 N 0.87034 0.93271 0.65024 0.0
C1141 C 0.86318 0.93401 0.67101 0.0
C1142 C 0.87901 0.94413 0.68358 0.0
C1143 C 0.91507 0.96306 0.67333 0.0
H1144 H 0.91889 0.97277 0.65853 0.0
H1145 H 0.92944 0.95299 0.67784 0.0
H1146 H 0.91186 0.97443 0.6871 0.0
O1147 O 0.88891 0.96224 0.60197 0.0
O1148 O 0.85383 0.95395 0.60473 0.0
H1149 H 0.82925 0.94182 0.67421 0.0
H1150 H 0.84019 0.92618 0.69653 0.0
C1151 C 0.84059 0.92834 0.67851 0.0
H1152 H 0.83504 0.91301 0.6706 0.0
H1153 H 0.81879 0.95701 0.63403 0.0
O1154 O 0.93338 0.95518 0.62279 0.0
C1155 C 0.86915 0.96514 0.59641 0.0
Co1156 Co 0.19539 0.84085 0.61875 0.0
Co1157 Co 0.18086 0.88993 0.62029 0.0
C1158 C 0.15616 0.85653 0.64397 0.0
O1159 O 0.16915 0.84182 0.63709 0.0
O1160 O 0.15752 0.87629 0.6376 0.0
C1161 C 0.2048 0.79014 0.60724 0.0
O1162 O 0.1882 0.77896 0.59939 0.0
C1163 C 0.15627 0.93072 0.6122 0.0
C1164 C 0.18358 0.95421 0.60901 0.0
C1165 C 0.16103 0.95244 0.60743 0.0
N1166 N 0.17525 0.92021 0.61606 0.0
N1167 N 0.19144 0.93441 0.61437 0.0
C1168 C 0.1345 0.91956 0.61106 0.0
H1169 H 0.13663 0.90191 0.60741 0.0
H1170 H 0.12398 0.92726 0.59841 0.0
H1171 H 0.12623 0.92108 0.62712 0.0
C1172 C 0.20212 0.85223 0.57326 0.0
N1173 N 0.19338 0.85667 0.59285 0.0
N1174 N 0.18488 0.87635 0.59268 0.0
C1175 C 0.18634 0.88451 0.57224 0.0
C1176 C 0.19769 0.86962 0.55925 0.0
C1177 C 0.2184 0.83415 0.56993 0.0
H1178 H 0.2265 0.83003 0.58562 0.0
H1179 H 0.20982 0.8194 0.56375 0.0
H1180 H 0.23135 0.83887 0.55817 0.0
O1181 O 0.2184 0.85286 0.63709 0.0
O1182 O 0.208 0.88764 0.63933 0.0
H1183 H 0.18817 0.91944 0.5709 0.0
H1184 H 0.17524 0.90704 0.54736 0.0
C1185 C 0.17715 0.90613 0.56538 0.0
H1186 H 0.1609 0.90853 0.57299 0.0
H1187 H 0.20794 0.9304 0.61622 0.0
O1188 O 0.20226 0.81015 0.61208 0.0
C1189 C 0.22086 0.87204 0.64476 0.0
Co1190 Co 0.09102 0.55382 0.62473 0.0
Co1191 Co 0.14102 0.56285 0.62288 0.0
C1192 C 0.10518 0.58838 0.5979 0.0
O1193 O 0.08849 0.58115 0.60815 0.0
O1194 O 0.12463 0.58233 0.60269 0.0
C1195 C 0.04501 0.53585 0.62318 0.0
O1196 O 0.03833 0.55007 0.60852 0.0
C1197 C 0.18115 0.58942 0.62747 0.0
C1198 C 0.20548 0.56285 0.63115 0.0
C1199 C 0.2031 0.58533 0.63128 0.0
N1200 N 0.17093 0.57007 0.62546 0.0
N1201 N 0.18562 0.55432 0.62733 0.0
C1202 C 0.16985 0.61108 0.62717 0.0
H1203 H 0.15213 0.60904 0.63061 0.0
H1204 H 0.17741 0.62233 0.63926 0.0
H1205 H 0.17172 0.61847 0.6107 0.0
C1206 C 0.10125 0.55141 0.67167 0.0
N1207 N 0.10685 0.55693 0.65114 0.0
N1208 N 0.12799 0.56063 0.65048 0.0
C1209 C 0.13651 0.55749 0.67054 0.0
C1210 C 0.11992 0.55114 0.68459 0.0
C1211 C 0.07939 0.54231 0.67789 0.0
H1212 H 0.06619 0.55243 0.6706 0.0
H1213 H 0.07744 0.54187 0.69593 0.0
H1214 H 0.07791 0.5254 0.67147 0.0
O1215 O 0.10543 0.53478 0.6029 0.0
O1216 O 0.14121 0.53484 0.60758 0.0
H1217 H 0.16759 0.542 0.6666 0.0
H1218 H 0.16363 0.55443 0.69308 0.0
C1219 C 0.1605 0.55624 0.67529 0.0
H1220 H 0.16867 0.57132 0.66942 0.0
H1221 H 0.18195 0.53766 0.62669 0.0
O1222 O 0.06424 0.53718 0.63088 0.0
C1223 C 0.12434 0.52796 0.59771 0.0
Co1224 Co 0.79926 0.34073 0.8699 0.0
Co1225 Co 0.81351 0.38906 0.87608 0.0
C1226 C 0.83773 0.3579 0.84736 0.0
O1227 O 0.82764 0.34106 0.8544 0.0
O1228 O 0.8342 0.37693 0.85507 0.0
C1229 C 0.78681 0.29444 0.88051 0.0
O1230 O 0.80087 0.29293 0.89671 0.0
C1231 C 0.83919 0.429 0.88361 0.0
C1232 C 0.81358 0.45068 0.89717 0.0
C1233 C 0.83546 0.44979 0.89162 0.0
N1234 N 0.8203 0.41787 0.88464 0.0
N1235 N 0.80505 0.43093 0.89266 0.0
C1236 C 0.86023 0.41984 0.87523 0.0
H1237 H 0.86144 0.40221 0.87943 0.0
H1238 H 0.87442 0.42887 0.88209 0.0
H1239 H 0.86052 0.42138 0.85716 0.0
C1240 C 0.78933 0.34724 0.91682 0.0
N1241 N 0.79946 0.35282 0.89815 0.0
N1242 N 0.80977 0.37137 0.90104 0.0
C1243 C 0.80874 0.37706 0.92223 0.0
C1244 C 0.79524 0.36222 0.93306 0.0
C1245 C 0.7704 0.33162 0.91735 0.0
H1246 H 0.76385 0.32895 0.90067 0.0
H1247 H 0.77577 0.31572 0.92424 0.0
H1248 H 0.75692 0.33811 0.92761 0.0
O1249 O 0.78069 0.35739 0.85058 0.0
O1250 O 0.78655 0.39232 0.85805 0.0
H1251 H 0.81124 0.411 0.93071 0.0
H1252 H 0.82517 0.39276 0.94922 0.0
C1253 C 0.82118 0.39589 0.93179 0.0
H1254 H 0.83655 0.39856 0.92252 0.0
H1255 H 0.78877 0.42633 0.89498 0.0
O1256 O 0.78581 0.31179 0.8692 0.0
C1257 C 0.77673 0.37745 0.84734 0.0
Co1258 Co 0.59039 0.93896 0.3694 0.0
Co1259 Co 0.63941 0.92569 0.36998 0.0
C1260 C 0.60307 0.90095 0.39424 0.0
O1261 O 0.58743 0.91188 0.38579 0.0
O1262 O 0.6231 0.90442 0.38917 0.0
C1263 C 0.54305 0.95462 0.36722 0.0
O1264 O 0.53413 0.93793 0.37739 0.0
C1265 C 0.68031 0.90047 0.36295 0.0
C1266 C 0.70391 0.92793 0.36424 0.0
C1267 C 0.70239 0.90554 0.36156 0.0
N1268 N 0.66931 0.91921 0.36626 0.0
N1269 N 0.68354 0.93549 0.36694 0.0
C1270 C 0.66992 0.87836 0.36214 0.0
H1271 H 0.65338 0.87879 0.36958 0.0
H1272 H 0.66828 0.87321 0.34483 0.0
H1273 H 0.68035 0.86619 0.3707 0.0
C1274 C 0.59943 0.9423 0.3225 0.0
N1275 N 0.60521 0.93552 0.34259 0.0
N1276 N 0.62619 0.93096 0.3427 0.0
C1277 C 0.63455 0.93542 0.32279 0.0
C1278 C 0.6179 0.94313 0.30944 0.0
C1279 C 0.57748 0.9515 0.31678 0.0
H1280 H 0.56437 0.9414 0.32422 0.0
H1281 H 0.57517 0.95202 0.29878 0.0
H1282 H 0.5763 0.96842 0.32317 0.0
O1283 O 0.60532 0.9585 0.39042 0.0
O1284 O 0.64074 0.95235 0.38735 0.0
H1285 H 0.66607 0.94972 0.32772 0.0
H1286 H 0.66147 0.9398 0.30028 0.0
C1287 C 0.6585 0.93649 0.31788 0.0
H1288 H 0.66635 0.92077 0.32234 0.0
H1289 H 0.67933 0.95186 0.36922 0.0
O1290 O 0.5635 0.95513 0.36395 0.0
C1291 C 0.62495 0.96278 0.39561 0.0
Co1292 Co 0.19025 0.15454 0.8728 0.0
Co1293 Co 0.17868 0.10455 0.87407 0.0
C1294 C 0.15255 0.13527 0.8477 0.0
O1295 O 0.16347 0.15169 0.85449 0.0
O1296 O 0.15584 0.11606 0.85501 0.0
C1297 C 0.19942 0.20625 0.88141 0.0
O1298 O 0.18258 0.21932 0.88416 0.0
C1299 C 0.1569 0.06211 0.88059 0.0
C1300 C 0.18562 0.04086 0.88632 0.0
C1301 C 0.16297 0.04069 0.88519 0.0
N1302 N 0.17518 0.07424 0.87919 0.0
N1303 N 0.19226 0.06144 0.8825 0.0
C1304 C 0.1343 0.07139 0.87909 0.0
H1305 H 0.13441 0.08894 0.88376 0.0
H1306 H 0.12285 0.06223 0.88979 0.0
H1307 H 0.12849 0.07015 0.86195 0.0
C1308 C 0.19849 0.14472 0.91895 0.0
N1309 N 0.18947 0.1395 0.89964 0.0
N1310 N 0.18139 0.11969 0.90073 0.0
C1311 C 0.18317 0.1123 0.9214 0.0
C1312 C 0.19453 0.12778 0.93377 0.0
C1313 C 0.21476 0.16294 0.92117 0.0
H1314 H 0.22182 0.16676 0.90501 0.0
H1315 H 0.20648 0.17776 0.92754 0.0
H1316 H 0.22846 0.15843 0.93218 0.0
O1317 O 0.21287 0.14262 0.85389 0.0
O1318 O 0.20529 0.10704 0.85549 0.0
H1319 H 0.18585 0.0776 0.92529 0.0
H1320 H 0.17059 0.09113 0.9467 0.0
C1321 C 0.17401 0.09086 0.92889 0.0
H1322 H 0.1586 0.08729 0.92001 0.0
H1323 H 0.20846 0.06684 0.8824 0.0
O1324 O 0.19601 0.18603 0.87804 0.0
C1325 C 0.2164 0.12298 0.848 0.0
Co1326 Co 0.40525 0.55511 0.36947 0.0
Co1327 Co 0.3554 0.56713 0.36759 0.0
C1328 C 0.38745 0.59235 0.39431 0.0
O1329 O 0.40401 0.5826 0.3863 0.0
O1330 O 0.36807 0.58871 0.38751 0.0
C1331 C 0.45629 0.54365 0.36241 0.0
O1332 O 0.46881 0.56083 0.35928 0.0
C1333 C 0.31318 0.59024 0.3601 0.0
C1334 C 0.29112 0.5617 0.35735 0.0
C1335 C 0.29146 0.58432 0.35712 0.0
N1336 N 0.32513 0.57184 0.36197 0.0
N1337 N 0.31183 0.55489 0.36011 0.0
C1338 C 0.32216 0.61287 0.36245 0.0
H1339 H 0.33982 0.61247 0.36653 0.0
H1340 H 0.31992 0.62192 0.34689 0.0
H1341 H 0.313 0.62177 0.37534 0.0
C1342 C 0.39554 0.54527 0.32381 0.0
N1343 N 0.39053 0.55536 0.34261 0.0
N1344 N 0.37091 0.56383 0.34111 0.0
C1345 C 0.36355 0.56139 0.3205 0.0
C1346 C 0.37878 0.54908 0.30873 0.0
C1347 C 0.41302 0.52808 0.32267 0.0
H1348 H 0.41606 0.52131 0.33915 0.0
H1349 H 0.42842 0.53546 0.3165 0.0
H1350 H 0.40819 0.51426 0.31198 0.0
O1351 O 0.39213 0.53389 0.38894 0.0
O1352 O 0.35646 0.54019 0.38619 0.0
H1353 H 0.32882 0.55941 0.31637 0.0
H1354 H 0.3429 0.57382 0.29468 0.0
C1355 C 0.34239 0.57084 0.31257 0.0
H1356 H 0.33912 0.58655 0.32103 0.0
H1357 H 0.31688 0.53862 0.36107 0.0
O1358 O 0.43591 0.54619 0.36536 0.0
C1359 C 0.37254 0.52983 0.39453 0.0
Co1360 Co 0.62215 0.79617 0.6525 0.0
Co1361 Co 0.61926 0.81251 0.60373 0.0
C1362 C 0.64672 0.8356 0.63572 0.0
O1363 O 0.64102 0.82272 0.65112 0.0
O1364 O 0.63845 0.8344 0.61662 0.0
C1365 C 0.60835 0.78793 0.69893 0.0
O1366 O 0.59276 0.80263 0.69743 0.0
C1367 C 0.6117 0.83664 0.56224 0.0
C1368 C 0.60186 0.80908 0.54095 0.0
C1369 C 0.60472 0.8315 0.54128 0.0
N1370 N 0.61263 0.818 0.57388 0.0
N1371 N 0.60697 0.80161 0.56096 0.0
C1372 C 0.61611 0.85887 0.5714 0.0
H1373 H 0.61301 0.85904 0.58927 0.0
H1374 H 0.6058 0.87134 0.56315 0.0
H1375 H 0.63355 0.86308 0.56858 0.0
C1376 C 0.57458 0.79096 0.64411 0.0
N1377 N 0.59433 0.79931 0.63908 0.0
N1378 N 0.59307 0.80873 0.61981 0.0
C1379 C 0.57213 0.80831 0.61288 0.0
C1380 C 0.55974 0.79671 0.6279 0.0
C1381 C 0.57125 0.77327 0.66063 0.0
H1382 H 0.58711 0.76624 0.66577 0.0
H1383 H 0.56237 0.78022 0.6748 0.0
H1384 H 0.5611 0.75984 0.6538 0.0
O1385 O 0.63882 0.77392 0.63715 0.0
O1386 O 0.63786 0.78583 0.60299 0.0
H1387 H 0.5674 0.80633 0.57827 0.0
H1388 H 0.54635 0.82112 0.59249 0.0
C1389 C 0.56423 0.81792 0.59181 0.0
H1390 H 0.57299 0.83344 0.58842 0.0
H1391 H 0.6062 0.78531 0.56598 0.0
O1392 O 0.62088 0.78446 0.68276 0.0
C1393 C 0.64457 0.7723 0.61731 0.0
Co1394 Co 0.61668 0.18608 0.83898 0.0
Co1395 Co 0.62096 0.18219 0.88952 0.0
C1396 C 0.64487 0.1531 0.8558 0.0
O1397 O 0.63451 0.15951 0.83884 0.0
O1398 O 0.64067 0.16088 0.87471 0.0
C1399 C 0.62166 0.2034 0.79537 0.0
O1400 O 0.64243 0.19835 0.79761 0.0
C1401 C 0.61621 0.15822 0.93095 0.0
C1402 C 0.61865 0.18557 0.95447 0.0
C1403 C 0.61539 0.16317 0.95311 0.0
N1404 N 0.61955 0.17693 0.91991 0.0
N1405 N 0.62108 0.19316 0.93406 0.0
C1406 C 0.61468 0.13625 0.92029 0.0
H1407 H 0.62251 0.13653 0.90396 0.0
H1408 H 0.59719 0.13193 0.91805 0.0
H1409 H 0.62256 0.12357 0.93063 0.0
C1410 C 0.57019 0.18809 0.8511 0.0
N1411 N 0.59104 0.1834 0.8563 0.0
N1412 N 0.59289 0.18304 0.87765 0.0
C1413 C 0.57359 0.18843 0.88676 0.0
C1414 C 0.55861 0.1925 0.87015 0.0
C1415 C 0.56215 0.19129 0.8282 0.0
H1416 H 0.56952 0.17882 0.81728 0.0
H1417 H 0.54403 0.19012 0.82751 0.0
H1418 H 0.56709 0.20767 0.82233 0.0
O1419 O 0.63781 0.20831 0.85028 0.0
O1420 O 0.63513 0.21046 0.88629 0.0
H1421 H 0.5828 0.2075 0.91459 0.0
H1422 H 0.55435 0.19965 0.91453 0.0
C1423 C 0.57113 0.19424 0.91042 0.0
H1424 H 0.57515 0.17975 0.92056 0.0
H1425 H 0.62353 0.20949 0.92975 0.0
O1426 O 0.60815 0.19728 0.80989 0.0
C1427 C 0.64321 0.21701 0.8684 0.0
Co1428 Co 0.44309 0.12148 0.40535 0.0
Co1429 Co 0.42549 0.12367 0.35725 0.0
C1430 C 0.40188 0.09837 0.39004 0.0
O1431 O 0.41619 0.10391 0.40415 0.0
O1432 O 0.40204 0.10614 0.37069 0.0
C1433 C 0.45049 0.13709 0.45066 0.0
O1434 O 0.43692 0.15342 0.44733 0.0
C1435 C 0.40406 0.13117 0.31376 0.0
C1436 C 0.43396 0.13684 0.29422 0.0
C1437 C 0.4114 0.13574 0.29272 0.0
N1438 N 0.42163 0.12982 0.32701 0.0
N1439 N 0.43936 0.13327 0.31516 0.0
C1440 C 0.38106 0.12696 0.32093 0.0
H1441 H 0.38081 0.1166 0.33579 0.0
H1442 H 0.37313 0.1428 0.32487 0.0
H1443 H 0.37155 0.11893 0.30771 0.0
C1444 C 0.45157 0.16771 0.39557 0.0
N1445 N 0.44123 0.14875 0.39145 0.0
N1446 N 0.43128 0.15013 0.37244 0.0
C1447 C 0.43343 0.17067 0.36473 0.0
C1448 C 0.4466 0.18242 0.37901 0.0
C1449 C 0.47026 0.16976 0.41132 0.0
H1450 H 0.47584 0.15347 0.41693 0.0
H1451 H 0.46502 0.17978 0.42545 0.0
H1452 H 0.48433 0.17819 0.40353 0.0
O1453 O 0.46489 0.10403 0.39078 0.0
O1454 O 0.45134 0.10363 0.35725 0.0
H1455 H 0.43524 0.17449 0.33001 0.0
H1456 H 0.42181 0.19663 0.34392 0.0
C1457 C 0.424 0.1786 0.34359 0.0
H1458 H 0.40799 0.1706 0.34052 0.0
H1459 H 0.45524 0.13309 0.32144 0.0
O1460 O 0.45371 0.12312 0.43569 0.0
C1461 C 0.46545 0.0973 0.3712 0.0
Co1462 Co 0.37292 0.30385 0.83964 0.0
Co1463 Co 0.37328 0.30913 0.89003 0.0
C1464 C 0.34652 0.33719 0.85774 0.0
O1465 O 0.35587 0.33103 0.84017 0.0
O1466 O 0.35208 0.32962 0.87638 0.0
C1467 C 0.38238 0.2914 0.79119 0.0
O1468 O 0.39159 0.30936 0.78386 0.0
C1469 C 0.37926 0.33324 0.93148 0.0
C1470 C 0.37924 0.30535 0.95456 0.0
C1471 C 0.38076 0.3279 0.95346 0.0
N1472 N 0.37703 0.31454 0.92014 0.0
N1473 N 0.37709 0.298 0.93404 0.0
C1474 C 0.37868 0.35557 0.92151 0.0
H1475 H 0.37083 0.35509 0.90517 0.0
H1476 H 0.39568 0.3616 0.91952 0.0
H1477 H 0.36978 0.36713 0.93232 0.0
C1478 C 0.42078 0.30135 0.84763 0.0
N1479 N 0.40033 0.30604 0.85426 0.0
N1480 N 0.40029 0.30771 0.87564 0.0
C1481 C 0.42046 0.30354 0.88343 0.0
C1482 C 0.43417 0.29886 0.8659 0.0
C1483 C 0.42695 0.29722 0.82434 0.0
H1484 H 0.42065 0.31073 0.81406 0.0
H1485 H 0.44498 0.2962 0.82236 0.0
H1486 H 0.41942 0.28169 0.81874 0.0
O1487 O 0.35278 0.28235 0.85357 0.0
O1488 O 0.35829 0.28109 0.88913 0.0
H1489 H 0.41436 0.28637 0.91321 0.0
H1490 H 0.44215 0.29539 0.9107 0.0
C1491 C 0.42498 0.29979 0.90722 0.0
H1492 H 0.42093 0.31484 0.91649 0.0
H1493 H 0.37551 0.28162 0.92951 0.0
O1494 O 0.37605 0.29 0.81087 0.0
C1495 C 0.34859 0.27416 0.87221 0.0
Co1496 Co 0.0491 0.87105 0.89857 0.0
Co1497 Co 0.06478 0.86943 0.85064 0.0
C1498 C 0.0885 0.89519 0.88503 0.0
O1499 O 0.07572 0.8887 0.90014 0.0
O1500 O 0.08688 0.88809 0.86546 0.0
C1501 C 0.03717 0.86286 0.94678 0.0
O1502 O 0.05665 0.85986 0.95539 0.0
C1503 C 0.09108 0.86306 0.81123 0.0
C1504 C 0.06485 0.85572 0.78731 0.0
C1505 C 0.08725 0.85748 0.7897 0.0
N1506 N 0.07166 0.86418 0.82132 0.0
N1507 N 0.05605 0.86008 0.80691 0.0
C1508 C 0.11262 0.86665 0.82226 0.0
H1509 H 0.1121 0.86001 0.83914 0.0
H1510 H 0.12612 0.85892 0.81291 0.0
H1511 H 0.11574 0.8845 0.82338 0.0
C1512 C 0.04658 0.82348 0.89194 0.0
N1513 N 0.05315 0.84346 0.88548 0.0
N1514 N 0.05923 0.84255 0.86495 0.0
C1515 C 0.05649 0.82188 0.85767 0.0
C1516 C 0.04795 0.80922 0.87441 0.0
C1517 C 0.03558 0.81879 0.91327 0.0
H1518 H 0.0466 0.82362 0.92682 0.0
H1519 H 0.03165 0.80114 0.91502 0.0
H1520 H 0.02024 0.82841 0.91442 0.0
O1521 O 0.02772 0.88981 0.88293 0.0
O1522 O 0.03908 0.88825 0.84871 0.0
H1523 H 0.04415 0.8216 0.82502 0.0
H1524 H 0.05809 0.79687 0.83283 0.0
C1525 C 0.05826 0.81497 0.8343 0.0
H1526 H 0.07365 0.82132 0.82714 0.0
H1527 H 0.03938 0.85995 0.81059 0.0
O1528 O 0.03507 0.86698 0.92661 0.0
C1529 C 0.02611 0.89558 0.86307 0.0
Co1530 Co 0.87455 0.18793 0.15244 0.0
Co1531 Co 0.87255 0.17859 0.10271 0.0
C1532 C 0.84788 0.15243 0.13751 0.0
O1533 O 0.85734 0.16075 0.15415 0.0
O1534 O 0.85279 0.1581 0.11805 0.0
C1535 C 0.87506 0.20222 0.19987 0.0
O1536 O 0.86083 0.18756 0.20652 0.0
C1537 C 0.87755 0.15345 0.06202 0.0
C1538 C 0.87471 0.18032 0.03792 0.0
C1539 C 0.87745 0.15797 0.03986 0.0
N1540 N 0.87493 0.17243 0.07272 0.0
N1541 N 0.8734 0.1884 0.05824 0.0
C1542 C 0.87866 0.13155 0.07282 0.0
H1543 H 0.87903 0.13332 0.09088 0.0
H1544 H 0.89349 0.12267 0.06733 0.0
H1545 H 0.8642 0.1217 0.06794 0.0
C1546 C 0.92167 0.19077 0.14186 0.0
N1547 N 0.90108 0.18493 0.13659 0.0
N1548 N 0.90018 0.18103 0.11553 0.0
C1549 C 0.92005 0.18445 0.10669 0.0
C1550 C 0.93428 0.19114 0.12301 0.0
C1551 C 0.92816 0.20014 0.16351 0.0
H1552 H 0.92126 0.19006 0.1769 0.0
H1553 H 0.94624 0.20083 0.16521 0.0
H1554 H 0.92159 0.21699 0.16486 0.0
O1555 O 0.85356 0.20903 0.13916 0.0
O1556 O 0.8566 0.20616 0.10337 0.0
H1557 H 0.91458 0.19883 0.0753 0.0
H1558 H 0.94197 0.18831 0.0792 0.0
C1559 C 0.92437 0.18543 0.08264 0.0
H1560 H 0.91936 0.16979 0.07495 0.0
H1561 H 0.87128 0.20486 0.06225 0.0
O1562 O 0.88129 0.20237 0.18012 0.0
C1563 C 0.84808 0.21502 0.12002 0.0
Co1564 Co 0.44446 0.8726 0.09127 0.0
Co1565 Co 0.43381 0.87018 0.14068 0.0
C1566 C 0.40762 0.89639 0.10649 0.0
O1567 O 0.41693 0.88801 0.08988 0.0
O1568 O 0.41283 0.89075 0.12595 0.0
C1569 C 0.45575 0.8664 0.04342 0.0
O1570 O 0.43639 0.85935 0.03733 0.0
C1571 C 0.4073 0.86413 0.18062 0.0
C1572 C 0.43396 0.86195 0.20506 0.0
C1573 C 0.41148 0.86201 0.20276 0.0
N1574 N 0.42663 0.8653 0.17025 0.0
N1575 N 0.44244 0.86382 0.18494 0.0
C1576 C 0.38558 0.86686 0.16971 0.0
H1577 H 0.38696 0.86355 0.15192 0.0
H1578 H 0.37329 0.8558 0.17717 0.0
H1579 H 0.37991 0.88395 0.17204 0.0
C1580 C 0.44693 0.82479 0.09705 0.0
N1581 N 0.44159 0.84476 0.10443 0.0
N1582 N 0.43803 0.84367 0.12555 0.0
C1583 C 0.44188 0.82312 0.13253 0.0
C1584 C 0.4484 0.81049 0.11469 0.0
C1585 C 0.45186 0.8198 0.07361 0.0
H1586 H 0.43851 0.82631 0.06323 0.0
H1587 H 0.45325 0.80192 0.07076 0.0
H1588 H 0.46736 0.82791 0.06879 0.0
O1589 O 0.46371 0.89309 0.10756 0.0
O1590 O 0.46106 0.88634 0.14283 0.0
H1591 H 0.4581 0.82425 0.16349 0.0
H1592 H 0.44316 0.79934 0.15914 0.0
C1593 C 0.44304 0.81714 0.15627 0.0
H1594 H 0.42868 0.82393 0.16493 0.0
H1595 H 0.45909 0.86445 0.18124 0.0
O1596 O 0.45964 0.87125 0.06318 0.0
C1597 C 0.46974 0.89652 0.12712 0.0
Co1598 Co 0.55112 0.62224 0.08902 0.0
Co1599 Co 0.56145 0.621 0.13907 0.0
C1600 C 0.58643 0.59503 0.10393 0.0
O1601 O 0.57693 0.60388 0.08759 0.0
O1602 O 0.58219 0.60063 0.12367 0.0
C1603 C 0.53379 0.61876 0.04391 0.0
O1604 O 0.54425 0.60021 0.04108 0.0
C1605 C 0.5857 0.6277 0.18097 0.0
C1606 C 0.55729 0.62899 0.20332 0.0
C1607 C 0.57987 0.63049 0.20279 0.0
N1608 N 0.56723 0.62482 0.1693 0.0
N1609 N 0.55041 0.62559 0.18281 0.0
C1610 C 0.60818 0.62688 0.1714 0.0
H1611 H 0.608 0.61799 0.1556 0.0
H1612 H 0.61394 0.64383 0.16837 0.0
H1613 H 0.61972 0.61888 0.18292 0.0
C1614 C 0.55286 0.6691 0.09741 0.0
N1615 N 0.55657 0.64852 0.10406 0.0
N1616 N 0.5589 0.64832 0.12535 0.0
C1617 C 0.55556 0.66867 0.13315 0.0
C1618 C 0.55096 0.6825 0.11565 0.0
C1619 C 0.54894 0.67547 0.07407 0.0
H1620 H 0.56051 0.66658 0.06329 0.0
H1621 H 0.55102 0.69338 0.07183 0.0
H1622 H 0.53207 0.67092 0.06918 0.0
O1623 O 0.52932 0.60265 0.10319 0.0
O1624 O 0.53365 0.60538 0.1389 0.0
H1625 H 0.53876 0.66381 0.16337 0.0
H1626 H 0.54935 0.69106 0.16017 0.0
C1627 C 0.55263 0.67357 0.15696 0.0
H1628 H 0.56763 0.6688 0.16596 0.0
H1629 H 0.53411 0.62401 0.17799 0.0
O1630 O 0.53681 0.62969 0.06126 0.0
C1631 C 0.52363 0.59768 0.12253 0.0
C1632 C 0.12299 0.26659 0.22512 0.0
C1633 C 0.10403 0.2748 0.21525 0.0
C1634 C 0.12251 0.24694 0.23688 0.0
C1635 C 0.10276 0.23487 0.23796 0.0
C1636 C 0.08329 0.24376 0.22908 0.0
C1637 C 0.08407 0.26399 0.21828 0.0
C1638 C 0.14349 0.23843 0.24681 0.0
C1639 C 0.06209 0.23109 0.22936 0.0
C1640 C 0.11206 0.17374 0.24309 0.0
C1641 C 0.10752 0.17034 0.26524 0.0
C1642 C 0.10936 0.19451 0.23368 0.0
C1643 C 0.1029 0.21235 0.24703 0.0
C1644 C 0.09792 0.20884 0.26931 0.0
C1645 C 0.09988 0.18775 0.27803 0.0
C1646 C 0.11433 0.19752 0.20969 0.0
C1647 C 0.09208 0.22756 0.28432 0.0
H1648 H 0.13843 0.27498 0.22264 0.0
H1649 H 0.06944 0.2703 0.21051 0.0
H1650 H 0.14051 0.23168 0.26338 0.0
H1651 H 0.15004 0.22501 0.23652 0.0
H1652 H 0.15618 0.2514 0.24799 0.0
H1653 H 0.04826 0.2406 0.22236 0.0
H1654 H 0.06404 0.21582 0.21975 0.0
H1655 H 0.05785 0.22625 0.24631 0.0
H1656 H 0.11814 0.16028 0.23328 0.0
H1657 H 0.09689 0.18523 0.29532 0.0
H1658 H 0.12989 0.20667 0.20781 0.0
H1659 H 0.10126 0.20724 0.20165 0.0
H1660 H 0.11596 0.18163 0.20103 0.0
H1661 H 0.10649 0.23846 0.28621 0.0
H1662 H 0.08704 0.22183 0.3008 0.0
H1663 H 0.07867 0.23751 0.27724 0.0
C1664 C 0.51094 0.61448 0.01004 0.0
C1665 C 0.51427 0.62404 0.03058 0.0
C1666 C 0.49074 0.61667 -0.00079 0.0
C1667 C 0.47342 0.62815 0.0095 0.0
C1668 C 0.47712 0.6388 0.02966 0.0
C1669 C 0.49757 0.63688 0.03978 0.0
C1670 C 0.48767 0.60606 0.97714 0.0
C1671 C 0.45905 0.65096 0.04134 0.0
C1672 C 0.42291 0.64208 0.97613 0.0
C1673 C 0.40952 0.62378 0.98009 0.0
C1674 C 0.44363 0.64397 0.98584 0.0
C1675 C 0.45096 0.62738 0.00019 0.0
C1676 C 0.43694 0.60967 0.00543 0.0
C1677 C 0.41643 0.60802 0.99523 0.0
C1678 C 0.4581 0.66307 0.9798 0.0
C1679 C 0.44403 0.59188 0.02103 0.0
H1680 H 0.52388 0.60482 0.00273 0.0
H1681 H 0.49993 0.64438 0.05566 0.0
H1682 H 0.47451 0.59358 0.97799 0.0
H1683 H 0.48248 0.61853 0.96503 0.0
H1684 H 0.50287 0.5981 0.97116 0.0
H1685 H 0.46521 0.66022 0.05571 0.0
H1686 H 0.45076 0.66253 0.0301 0.0
H1687 H 0.44656 0.63909 0.04705 0.0
H1688 H 0.41782 0.65435 0.96439 0.0
H1689 H 0.4062 0.59389 -0.00157 0.0
H1690 H 0.47233 0.65708 0.97027 0.0
H1691 H 0.46462 0.67112 0.99468 0.0
H1692 H 0.44929 0.67547 0.96985 0.0
H1693 H 0.45793 0.58268 0.01387 0.0
H1694 H 0.43061 0.58016 0.02465 0.0
H1695 H 0.44982 0.59914 0.03662 0.0
C1696 C 0.89834 0.31416 0.26577 0.0
C1697 C 0.87928 0.32665 0.26288 0.0
C1698 C 0.90009 0.29312 0.25677 0.0
C1699 C 0.88246 0.28452 0.24448 0.0
C1700 C 0.86364 0.29745 0.24063 0.0
C1701 C 0.86231 0.31837 0.24981 0.0
C1702 C 0.92051 0.27984 0.26095 0.0
C1703 C 0.84459 0.28895 0.22732 0.0
C1704 C 0.89052 0.23969 0.20305 0.0
C1705 C 0.88018 0.22181 0.21317 0.0
C1706 C 0.89223 0.25992 0.21347 0.0
C1707 C 0.88383 0.26233 0.23481 0.0
C1708 C 0.87481 0.24403 0.24584 0.0
C1709 C 0.87292 0.22393 0.23479 0.0
C1710 C 0.90158 0.27909 0.20097 0.0
C1711 C 0.86625 0.24599 0.2689 0.0
H1712 H 0.91151 0.32038 0.2759 0.0
H1713 H 0.84753 0.3279 0.24744 0.0
H1714 H 0.91619 0.2645 0.26962 0.0
H1715 H 0.92819 0.27512 0.24523 0.0
H1716 H 0.93274 0.28891 0.27088 0.0
H1717 H 0.83139 0.3013 0.22543 0.0
H1718 H 0.85024 0.28395 0.21083 0.0
H1719 H 0.83759 0.27424 0.23532 0.0
H1720 H 0.89621 0.23837 0.18635 0.0
H1721 H 0.86511 0.21016 0.24278 0.0
H1722 H 0.91398 0.28781 0.21093 0.0
H1723 H 0.88832 0.29092 0.19724 0.0
H1724 H 0.90926 0.27401 0.18532 0.0
H1725 H 0.87898 0.25314 0.2797 0.0
H1726 H 0.86113 0.22994 0.27571 0.0
H1727 H 0.85199 0.25722 0.2692 0.0
C1728 C 0.57624 0.85767 -0.00204 0.0
C1729 C 0.57837 0.86729 0.97736 0.0
C1730 C 0.55548 0.85589 0.00773 0.0
C1731 C 0.53672 0.86347 -0.00372 0.0
C1732 C 0.53894 0.87228 0.97504 0.0
C1733 C 0.55978 0.87425 0.96595 0.0
C1734 C 0.55365 0.84653 0.03048 0.0
C1735 C 0.51943 0.88037 0.96217 0.0
C1736 C 0.47964 0.84833 0.01586 0.0
C1737 C 0.47441 0.86672 0.0284 0.0
C1738 C 0.50001 0.84688 0.0053 0.0
C1739 C 0.5151 0.86441 0.00719 0.0
C1740 C 0.50936 0.88337 0.01912 0.0
C1741 C 0.48914 0.88421 0.02971 0.0
C1742 C 0.50569 0.82639 0.99279 0.0
C1743 C 0.52484 0.90255 0.02125 0.0
H1744 H 0.59074 0.85205 0.0065 0.0
H1745 H 0.5616 0.88128 0.94976 0.0
H1746 H 0.54761 0.8593 0.04187 0.0
H1747 H 0.54157 0.83297 0.0307 0.0
H1748 H 0.56957 0.84031 0.03668 0.0
H1749 H 0.5238 0.88467 0.94508 0.0
H1750 H 0.50638 0.86776 0.96181 0.0
H1751 H 0.51255 0.89511 0.97019 0.0
H1752 H 0.46836 0.83464 0.01532 0.0
H1753 H 0.48503 0.89834 0.03961 0.0
H1754 H 0.52007 0.81836 0.00043 0.0
H1755 H 0.51028 0.83056 0.97575 0.0
H1756 H 0.49192 0.81452 0.9924 0.0
H1757 H 0.54001 0.89729 0.02972 0.0
H1758 H 0.51752 0.91634 0.03054 0.0
H1759 H 0.52961 0.90858 0.00483 0.0
C1760 C 0.10041 0.81782 0.22557 0.0
C1761 C 0.12006 0.82967 0.22721 0.0
C1762 C 0.09847 0.79681 0.23453 0.0
C1763 C 0.11648 0.78756 0.2457 0.0
C1764 C 0.13603 0.79975 0.24824 0.0
C1765 C 0.13761 0.82067 0.23894 0.0
C1766 C 0.07729 0.78438 0.23169 0.0
C1767 C 0.15545 0.79051 0.26044 0.0
C1768 C 0.10735 0.74423 0.28852 0.0
C1769 C 0.11523 0.72526 0.27822 0.0
C1770 C 0.10695 0.76437 0.27782 0.0
C1771 C 0.11447 0.76572 0.25608 0.0
C1772 C 0.12131 0.74652 0.245 0.0
C1773 C 0.1217 0.72643 0.25627 0.0
C1774 C 0.09963 0.78442 0.29031 0.0
C1775 C 0.12887 0.74739 0.22153 0.0
H1776 H 0.08673 0.8246 0.21655 0.0
H1777 H 0.15287 0.82961 0.24022 0.0
H1778 H 0.08046 0.76855 0.22341 0.0
H1779 H 0.07011 0.78058 0.2479 0.0
H1780 H 0.06505 0.79368 0.22198 0.0
H1781 H 0.16942 0.80213 0.26105 0.0
H1782 H 0.15068 0.78631 0.27742 0.0
H1783 H 0.161 0.77519 0.25246 0.0
H1784 H 0.10243 0.74374 0.30547 0.0
H1785 H 0.12767 0.71186 0.24812 0.0
H1786 H 0.08716 0.79361 0.28087 0.0
H1787 H 0.1138 0.7955 0.29284 0.0
H1788 H 0.09264 0.78026 0.30655 0.0
H1789 H 0.11592 0.75472 0.21111 0.0
H1790 H 0.13299 0.73094 0.21501 0.0
H1791 H 0.14352 0.75803 0.22016 0.0
C1792 C 0.98025 0.62175 0.98496 0.0
C1793 C 0.97885 0.62574 0.96246 0.0
C1794 C 0.00055 0.62312 0.99577 0.0
C1795 C 0.01952 0.62885 0.98371 0.0
C1796 C 0.01795 0.63372 0.96127 0.0
C1797 C -0.00224 0.63188 0.95095 0.0
C1798 C 0.00187 0.61779 0.01983 0.0
C1799 C 0.03777 0.63982 0.94779 0.0
C1800 C 0.07132 0.64622 0.01284 0.0
C1801 C 0.08323 0.62659 0.01293 0.0
C1802 C 0.05044 0.64721 0.00341 0.0
C1803 C 0.04142 0.62817 0.9939 0.0
C1804 C 0.05384 0.60869 0.99281 0.0
C1805 C 0.07469 0.60819 0.0022 0.0
C1806 C 0.03782 0.66844 0.00412 0.0
C1807 C 0.04482 0.58813 0.98242 0.0
H1808 H 0.96574 0.61696 0.99394 0.0
H1809 H -0.00286 0.63458 0.93352 0.0
H1810 H 0.01292 0.60361 0.02241 0.0
H1811 H 0.00895 0.63183 0.0289 0.0
H1812 H 0.9856 0.61385 0.02689 0.0
H1813 H 0.03324 0.6457 0.9312 0.0
H1814 H 0.04742 0.65278 0.95604 0.0
H1815 H 0.04855 0.62534 0.94595 0.0
H1816 H 0.07783 0.66053 0.02104 0.0
H1817 H 0.08384 0.593 0.00205 0.0
H1818 H 0.02253 0.66616 0.01362 0.0
H1819 H 0.033 0.67341 0.98735 0.0
H1820 H 0.04741 0.68192 0.01165 0.0
H1821 H 0.02985 0.58287 0.99123 0.0
H1822 H 0.05678 0.57445 0.98265 0.0
H1823 H 0.04006 0.59136 0.96522 0.0
C1824 C 0.89145 0.75189 0.2906 0.0
C1825 C 0.87488 0.76668 0.28475 0.0
C1826 C 0.89372 0.73183 0.27981 0.0
C1827 C 0.87951 0.7267 0.2623 0.0
C1828 C 0.86366 0.74216 0.25538 0.0
C1829 C 0.86128 0.76187 0.26695 0.0
C1830 C 0.91054 0.71564 0.28795 0.0
C1831 C 0.84866 0.73753 0.23629 0.0
C1832 C 0.894 0.68031 0.2238 0.0
C1833 C 0.87928 0.66398 0.23045 0.0
C1834 C 0.89452 0.70072 0.23422 0.0
C1835 C 0.88037 0.70469 0.25206 0.0
C1836 C 0.86648 0.68781 0.25975 0.0
C1837 C 0.86595 0.66769 0.24871 0.0
C1838 C 0.90924 0.71844 0.22529 0.0
C1839 C 0.85159 0.69126 0.27913 0.0
H1840 H 0.90184 0.75537 0.30453 0.0
H1841 H 0.84849 0.77328 0.26239 0.0
H1842 H 0.90218 0.7007 0.294 0.0
H1843 H 0.92146 0.71056 0.27441 0.0
H1844 H 0.92075 0.72242 0.30138 0.0
H1845 H 0.83907 0.75218 0.2314 0.0
H1846 H 0.85823 0.73179 0.222 0.0
H1847 H 0.83706 0.7243 0.24072 0.0
H1848 H 0.90419 0.67767 0.20956 0.0
H1849 H 0.85458 0.65513 0.25393 0.0
H1850 H 0.91942 0.72554 0.23851 0.0
H1851 H 0.89908 0.73187 0.2185 0.0
H1852 H 0.92021 0.7123 0.21218 0.0
H1853 H 0.86121 0.69699 0.29341 0.0
H1854 H 0.84268 0.67611 0.28376 0.0
H1855 H 0.83939 0.70415 0.27529 0.0
C1856 C -0.00329 0.86197 0.94848 0.0
C1857 C 0.01685 0.85934 0.95929 0.0
C1858 C 0.97694 0.85965 0.9595 0.0
C1859 C 0.97718 0.85466 0.982 0.0
C1860 C -0.00269 0.85081 0.99289 0.0
C1861 C 0.01705 0.85324 0.98136 0.0
C1862 C 0.95587 0.86414 0.9473 0.0
C1863 C -0.00203 0.84522 0.0169 0.0
C1864 C 0.93113 0.88173 0.01236 0.0
C1865 C 0.91656 0.86432 0.01574 0.0
C1866 C 0.95122 0.87847 0.00213 0.0
C1867 C 0.95674 0.85735 0.99456 0.0
C1868 C 0.942 0.83971 -0.00258 0.0
C1869 C 0.92205 0.84337 0.00823 0.0
C1870 C 0.96652 0.89774 -0.00061 0.0
C1871 C 0.94718 0.81715 0.98885 0.0
H1872 H 0.99626 0.86644 0.93134 0.0
H1873 H 0.03253 0.85084 0.98968 0.0
H1874 H 0.94339 0.85154 0.95112 0.0
H1875 H 0.94921 0.8802 0.95249 0.0
H1876 H 0.95832 0.86458 0.92931 0.0
H1877 H 0.01466 0.84055 0.02241 0.0
H1878 H 0.99247 0.85953 0.02662 0.0
H1879 H 0.98657 0.83155 0.02047 0.0
H1880 H 0.92717 0.89795 0.01834 0.0
H1881 H 0.91083 0.82989 0.01085 0.0
H1882 H 0.96906 0.90113 0.98176 0.0
H1883 H 0.98275 0.89391 0.0066 0.0
H1884 H 0.96016 0.91283 0.00725 0.0
H1885 H 0.94765 0.81749 0.97073 0.0
H1886 H 0.93489 0.80482 0.99406 0.0
H1887 H 0.96359 0.81187 0.99456 0.0
C1888 C 0.2786 0.12588 0.18276 0.0
C1889 C 0.26779 0.11841 0.16399 0.0
C1890 C 0.26963 0.12277 0.20349 0.0
C1891 C 0.24898 0.11255 0.20538 0.0
C1892 C 0.23822 0.1044 0.18649 0.0
C1893 C 0.24801 0.10711 0.16589 0.0
C1894 C 0.28192 0.1311 0.22325 0.0
C1895 C 0.21596 0.09379 0.18791 0.0
C1896 C 0.2265 0.09627 0.26096 0.0
C1897 C 0.2131 0.11429 0.26551 0.0
C1898 C 0.23883 0.09557 0.24158 0.0
C1899 C 0.23743 0.11321 0.22661 0.0
C1900 C 0.2248 0.13185 0.23178 0.0
C1901 C 0.21304 0.13226 0.25129 0.0
C1902 C 0.25257 0.07566 0.2367 0.0
C1903 C 0.22287 0.15102 0.21627 0.0
H1904 H 0.29433 0.13398 0.18121 0.0
H1905 H 0.23997 0.10103 0.1513 0.0
H1906 H 0.27325 0.14544 0.2302 0.0
H1907 H 0.28256 0.11835 0.23613 0.0
H1908 H 0.29892 0.13611 0.21918 0.0
H1909 H 0.21098 0.08614 0.17219 0.0
H1910 H 0.21577 0.08112 0.20088 0.0
H1911 H 0.20361 0.10631 0.19237 0.0
H1912 H 0.22647 0.08232 0.27189 0.0
H1913 H 0.20288 0.14634 0.25494 0.0
H1914 H 0.26946 0.08062 0.23227 0.0
H1915 H 0.24562 0.06681 0.22247 0.0
H1916 H 0.25334 0.06423 0.2508 0.0
H1917 H 0.23925 0.1582 0.2132 0.0
H1918 H 0.21199 0.16409 0.22267 0.0
H1919 H 0.2163 0.14541 0.20031 0.0
C1920 C 0.36026 0.5418 0.98916 0.0
C1921 C 0.35638 0.52766 0.97151 0.0
C1922 C 0.3605 0.534 0.01071 0.0
C1923 C 0.3569 0.51149 0.01471 0.0
C1924 C 0.3523 0.49723 -0.00296 0.0
C1925 C 0.35205 0.5055 0.97564 0.0
C1926 C 0.36542 0.54969 0.02913 0.0
C1927 C 0.34841 0.47308 0.00066 0.0
C1928 C 0.38407 0.48603 0.06416 0.0
C1929 C 0.36627 0.48273 0.07826 0.0
C1930 C 0.3812 0.49556 0.04356 0.0
C1931 C 0.3601 0.50249 0.03704 0.0
C1932 C 0.34223 0.50028 0.05159 0.0
C1933 C 0.34551 0.49033 0.07204 0.0
C1934 C 0.40061 0.49727 0.02837 0.0
C1935 C 0.31956 0.50783 0.0453 0.0
H1936 H 0.36354 0.55896 0.98614 0.0
H1937 H 0.34888 0.4945 0.96212 0.0
H1938 H 0.3531 0.54796 0.04233 0.0
H1939 H 0.38164 0.54577 0.03631 0.0
H1940 H 0.36563 0.56699 0.02356 0.0
H1941 H 0.34404 0.46441 0.9853 0.0
H1942 H 0.36335 0.46542 0.00757 0.0
H1943 H 0.33505 0.47062 0.01268 0.0
H1944 H 0.40017 0.48012 0.06871 0.0
H1945 H 0.33167 0.48784 0.08283 0.0
H1946 H 0.40304 0.51451 0.02326 0.0
H1947 H 0.39751 0.48755 0.01336 0.0
H1948 H 0.41598 0.49129 0.03603 0.0
H1949 H 0.31977 0.52565 0.04187 0.0
H1950 H 0.30734 0.50455 0.05833 0.0
H1951 H 0.31419 0.49949 0.03011 0.0
C1952 C 0.71813 0.36518 0.18369 0.0
C1953 C 0.72828 0.37412 0.16521 0.0
C1954 C 0.7269 0.36821 0.20454 0.0
C1955 C 0.74672 0.37989 0.20686 0.0
C1956 C 0.75707 0.38906 0.18823 0.0
C1957 C 0.74743 0.3864 0.16753 0.0
C1958 C 0.71506 0.35869 0.22402 0.0
C1959 C 0.77857 0.40108 0.19009 0.0
C1960 C 0.76462 0.39893 0.26327 0.0
C1961 C 0.77917 0.38221 0.26905 0.0
C1962 C 0.75364 0.39835 0.24307 0.0
C1963 C 0.7575 0.38071 0.22853 0.0
C1964 C 0.77149 0.36341 0.23476 0.0
C1965 C 0.78192 0.36426 0.25503 0.0
C1966 C 0.7385 0.41687 0.23697 0.0
C1967 C 0.776 0.34428 0.21976 0.0
H1968 H 0.70291 0.35621 0.18186 0.0
H1969 H 0.75501 0.39351 0.15317 0.0
H1970 H 0.72508 0.3455 0.23143 0.0
H1971 H 0.71264 0.37143 0.2367 0.0
H1972 H 0.69883 0.35179 0.21955 0.0
H1973 H 0.78353 0.40873 0.17439 0.0
H1974 H 0.77754 0.41398 0.2028 0.0
H1975 H 0.79156 0.38948 0.19522 0.0
H1976 H 0.76259 0.41288 0.27402 0.0
H1977 H 0.79302 0.35117 0.25957 0.0
H1978 H 0.72216 0.41036 0.23246 0.0
H1979 H 0.74501 0.42556 0.22244 0.0
H1980 H 0.73652 0.42885 0.25047 0.0
H1981 H 0.7606 0.33532 0.21633 0.0
H1982 H 0.78802 0.3326 0.22683 0.0
H1983 H 0.78244 0.35025 0.20389 0.0
C1984 C 0.64464 0.95081 0.99256 0.0
C1985 C 0.63845 0.96287 0.97399 0.0
C1986 C 0.64646 0.96067 0.01306 0.0
C1987 C 0.64204 0.98323 0.01516 0.0
C1988 C 0.63747 0.99593 -0.00372 0.0
C1989 C 0.63571 0.98556 0.97581 0.0
C1990 C 0.65127 0.9465 0.03273 0.0
C1991 C 0.63297 0.02016 -0.00205 0.0
C1992 C 0.61424 4e-05 0.06764 0.0
C1993 C 0.63107 0.01093 0.07884 0.0
C1994 C 0.61768 0.99113 0.0469 0.0
C1995 C 0.63867 0.99254 0.03729 0.0
C1996 C 0.65615 0.00221 0.04902 0.0
C1997 C 0.65213 0.01141 0.06969 0.0
C1998 C 0.59857 0.98091 0.03494 0.0
C1999 C 0.67889 0.00335 0.03949 0.0
H2000 H 0.64704 0.9333 0.99138 0.0
H2001 H 0.63116 0.99502 0.96153 0.0
H2002 H 0.66328 0.95453 0.04371 0.0
H2003 H 0.636 0.94401 0.0422 0.0
H2004 H 0.65773 0.93019 0.02798 0.0
H2005 H 0.63196 0.02808 0.98164 0.0
H2006 H 0.61725 0.02282 0.00662 0.0
H2007 H 0.64596 0.02834 0.00765 0.0
H2008 H 0.59793 -0.00057 0.07456 0.0
H2009 H 0.66525 0.01976 0.07823 0.0
H2010 H 0.60231 0.96365 0.03081 0.0
H2011 H 0.59564 0.98973 0.01935 0.0
H2012 H 0.58325 0.9813 0.04469 0.0
H2013 H 0.6849 0.98663 0.03581 0.0
H2014 H 0.69069 0.01144 0.05071 0.0
H2015 H 0.67855 0.01249 0.02383 0.0
C2016 C 0.27356 0.89044 0.31046 0.0
C2017 C 0.26548 0.87619 0.32657 0.0
C2018 C 0.26382 0.89159 0.28977 0.0
C2019 C 0.24518 0.87866 0.28531 0.0
C2020 C 0.23613 0.86527 0.30193 0.0
C2021 C 0.24662 0.86391 0.3223 0.0
C2022 C 0.27422 0.90569 0.27236 0.0
C2023 C 0.21577 0.85184 0.29795 0.0
C2024 C 0.20827 0.89232 0.2376 0.0
C2025 C 0.21256 0.87488 0.22331 0.0
C2026 C 0.2192 0.89414 0.25762 0.0
C2027 C 0.23541 0.87861 0.26311 0.0
C2028 C 0.24125 0.86214 0.2479 0.0
C2029 C 0.22946 0.86023 0.22827 0.0
C2030 C 0.21222 0.91172 0.27351 0.0
C2031 C 0.25927 0.84597 0.25279 0.0
H2032 H 0.28834 0.89976 0.31355 0.0
H2033 H 0.24037 0.85291 0.33471 0.0
H2034 H 0.28101 0.89509 0.25931 0.0
H2035 H 0.26187 0.91649 0.26462 0.0
H2036 H 0.28764 0.91603 0.27897 0.0
H2037 H 0.20956 0.84412 0.31318 0.0
H2038 H 0.20263 0.86222 0.29091 0.0
H2039 H 0.21935 0.83873 0.28594 0.0
H2040 H 0.19525 0.90374 0.23392 0.0
H2041 H 0.23299 0.84688 0.21716 0.0
H2042 H 0.2266 0.92096 0.27958 0.0
H2043 H 0.20431 0.904 0.2879 0.0
H2044 H 0.20048 0.92346 0.2661 0.0
H2045 H 0.27436 0.85475 0.25781 0.0
H2046 H 0.2631 0.83544 0.2385 0.0
H2047 H 0.25436 0.83532 0.26663 0.0
C2048 C 0.15014 0.4805 0.92376 0.0
C2049 C 0.13048 0.48356 0.91229 0.0
C2050 C 0.15342 0.49032 0.94424 0.0
C2051 C 0.13654 0.50322 0.95341 0.0
C2052 C 0.1174 0.50767 0.94118 0.0
C2053 C 0.11474 0.49802 0.92065 0.0
C2054 C 0.17436 0.48589 0.95656 0.0
C2055 C 0.09914 0.52165 0.95027 0.0
C2056 C 0.12759 0.50969 0.01433 0.0
C2057 C 0.13447 0.53132 0.01747 0.0
C2058 C 0.12951 0.4997 0.99372 0.0
C2059 C 0.13836 0.51174 0.97599 0.0
C2060 C 0.14647 0.53306 0.9794 0.0
C2061 C 0.14453 0.54251 7e-05 0.0
C2062 C 0.12083 0.47678 0.99056 0.0
C2063 C 0.1559 0.54647 0.9609 0.0
H2064 H 0.16248 0.46953 0.91732 0.0
H2065 H 0.09962 0.50076 0.91178 0.0
H2066 H 0.18133 0.50133 0.96307 0.0
H2067 H 0.17085 0.47514 0.97074 0.0
H2068 H 0.18684 0.47779 0.94614 0.0
H2069 H 0.08557 0.52395 0.93838 0.0
H2070 H 0.09239 0.51391 0.96522 0.0
H2071 H 0.10549 0.53798 0.955 0.0
H2072 H 0.11991 0.5009 0.02767 0.0
H2073 H 0.14984 0.55925 0.00213 0.0
H2074 H 0.13311 0.4665 0.98204 0.0
H2075 H 0.10599 0.4773 0.9801 0.0
H2076 H 0.11651 0.46885 0.00631 0.0
H2077 H 0.16929 0.53735 0.95276 0.0
H2078 H 0.16238 0.56249 0.96655 0.0
H2079 H 0.1431 0.54957 0.9484 0.0
C2080 C 0.76342 0.59148 0.22689 0.0
C2081 C 0.78078 0.60619 0.22406 0.0
C2082 C 0.75194 0.5907 0.2468 0.0
C2083 C 0.75803 0.60499 0.26401 0.0
C2084 C 0.77547 0.61987 0.26112 0.0
C2085 C 0.78649 0.62037 0.24119 0.0
C2086 C 0.73327 0.57477 0.24942 0.0
C2087 C 0.78243 0.63547 0.27901 0.0
C2088 C 0.71788 0.62538 0.30583 0.0
C2089 C 0.72424 0.61381 0.32453 0.0
C2090 C 0.72788 0.62159 0.28571 0.0
C2091 C 0.74503 0.60616 0.28438 0.0
C2092 C 0.75122 0.59397 0.30314 0.0
C2093 C 0.74042 0.59772 0.32308 0.0
C2094 C 0.72064 0.6348 0.26611 0.0
C2095 C 0.76969 0.57761 0.30228 0.0
H2096 H 0.75911 0.58036 0.21378 0.0
H2097 H 0.79983 0.63188 0.2391 0.0
H2098 H 0.73594 0.56443 0.26408 0.0
H2099 H 0.71777 0.58386 0.25199 0.0
H2100 H 0.73133 0.56398 0.23493 0.0
H2101 H 0.79702 0.64529 0.27441 0.0
H2102 H 0.76885 0.64687 0.28286 0.0
H2103 H 0.78627 0.62627 0.29417 0.0
H2104 H 0.70491 0.63745 0.30693 0.0
H2105 H 0.74506 0.58865 0.3376 0.0
H2106 H 0.71762 0.62394 0.25191 0.0
H2107 H 0.73381 0.64639 0.26142 0.0
H2108 H 0.70551 0.64433 0.2694 0.0
H2109 H 0.76638 0.56522 0.28946 0.0
H2110 H 0.77211 0.56911 0.31816 0.0
H2111 H 0.78515 0.58601 0.29782 0.0
C2112 C 0.84707 0.98083 0.01748 0.0
C2113 C 0.86213 0.96396 0.02129 0.0
C2114 C 0.84679 0.9919 -0.00267 0.0
C2115 C 0.86155 0.98554 0.98064 0.0
C2116 C 0.87707 0.9689 0.98465 0.0
C2117 C 0.87747 0.95871 0.00503 0.0
C2118 C 0.83058 0.01017 0.99375 0.0
C2119 C 0.89313 0.96156 0.96734 0.0
C2120 C 0.85112 -0.00112 0.92084 0.0
C2121 C 0.8667 0.01526 0.91752 0.0
C2122 C 0.84883 0.98921 0.94159 0.0
C2123 C 0.86181 -0.00311 0.95927 0.0
C2124 C 0.87691 0.01406 0.95595 0.0
C2125 C 0.87946 0.02269 0.93502 0.0
C2126 C 0.83333 0.9702 0.94441 0.0
C2127 C 0.89078 0.02299 0.97438 0.0
H2128 H 0.83519 0.98496 0.02995 0.0
H2129 H 0.88943 0.94592 0.00789 0.0
H2130 H 0.83923 0.02521 0.9884 0.0
H2131 H 0.819 0.00561 0.98053 0.0
H2132 H 0.82105 0.01393 0.00873 0.0
H2133 H 0.90201 0.94644 0.97214 0.0
H2134 H 0.88457 0.95847 0.95164 0.0
H2135 H 0.90537 0.97463 0.96443 0.0
H2136 H 0.84133 0.99323 0.90717 0.0
H2137 H 0.89145 0.0355 0.93231 0.0
H2138 H 0.82182 0.97344 0.95803 0.0
H2139 H 0.84276 0.9553 0.94876 0.0
H2140 H 0.82376 0.96681 0.92933 0.0
H2141 H 0.88035 0.02709 0.98864 0.0
H2142 H 0.90002 0.03786 0.96947 0.0
H2143 H 0.90269 0.01043 0.9798 0.0
C2144 C 0.25746 0.20586 0.12248 0.0
C2145 C 0.27533 0.21491 0.11126 0.0
C2146 C 0.23688 0.21572 0.12196 0.0
C2147 C 0.23401 0.2353 0.11003 0.0
C2148 C 0.25199 0.24483 0.09892 0.0
C2149 C 0.27255 0.23449 0.09968 0.0
C2150 C 0.21821 0.20518 0.13429 0.0
C2151 C 0.24949 0.26594 0.08637 0.0
C2152 C 0.17486 0.25042 0.09789 0.0
C2153 C 0.17014 0.26363 0.11594 0.0
C2154 C 0.19588 0.24137 0.09534 0.0
C2155 C 0.21248 0.24643 0.11079 0.0
C2156 C 0.20788 0.26057 0.12845 0.0
C2157 C 0.18671 0.26869 0.13097 0.0
C2158 C 0.20021 0.226 0.07655 0.0
C2159 C 0.22512 0.26672 0.14509 0.0
H2160 H 0.25949 0.19081 0.13166 0.0
H2161 H 0.28628 0.2415 0.09092 0.0
H2162 H 0.21218 0.21645 0.14715 0.0
H2163 H 0.20435 0.20192 0.12302 0.0
H2164 H 0.22306 0.18954 0.14217 0.0
H2165 H 0.2648 0.27071 0.07783 0.0
H2166 H 0.23618 0.26436 0.07412 0.0
H2167 H 0.24478 0.2793 0.0977 0.0
H2168 H 0.16207 0.24686 0.08611 0.0
H2169 H 0.18322 0.27952 0.14458 0.0
H2170 H 0.20366 0.20937 0.08297 0.0
H2171 H 0.21488 0.23135 0.06733 0.0
H2172 H 0.1861 0.22498 0.06512 0.0
H2173 H 0.22904 0.25229 0.15538 0.0
H2174 H 0.21966 0.28021 0.15596 0.0
H2175 H 0.24045 0.27184 0.13685 0.0
C2176 C 0.26577 0.75819 0.39287 0.0
C2177 C 0.26826 0.77968 0.38531 0.0
C2178 C 0.24494 0.74842 0.39377 0.0
C2179 C 0.22637 0.76045 0.38679 0.0
C2180 C 0.22876 0.78235 0.37984 0.0
C2181 C 0.24961 0.79167 0.3792 0.0
C2182 C 0.24295 0.72498 0.40125 0.0
C2183 C 0.20941 0.79568 0.37211 0.0
C2184 C 0.17937 0.73064 0.36008 0.0
C2185 C 0.16368 0.73014 0.3768 0.0
C2186 C 0.19999 0.73988 0.36346 0.0
C2187 C 0.20492 0.74949 0.38388 0.0
C2188 C 0.18902 0.74961 0.40073 0.0
C2189 C 0.1686 0.7396 0.39709 0.0
C2190 C 0.21659 0.73913 0.34516 0.0
C2191 C 0.19367 0.76007 0.42258 0.0
H2192 H 0.28006 0.74892 0.39782 0.0
H2193 H 0.25127 0.80835 0.37343 0.0
H2194 H 0.22917 0.72314 0.4129 0.0
H2195 H 0.2394 0.71436 0.38697 0.0
H2196 H 0.25819 0.71903 0.40919 0.0
H2197 H 0.21383 0.81299 0.36878 0.0
H2198 H 0.20269 0.78846 0.35688 0.0
H2199 H 0.19619 0.79535 0.38452 0.0
H2200 H 0.17592 0.72294 0.34449 0.0
H2201 H 0.1566 0.73901 0.41011 0.0
H2202 H 0.23177 0.73096 0.35086 0.0
H2203 H 0.22106 0.756 0.34018 0.0
H2204 H 0.2104 0.73025 0.33057 0.0
H2205 H 0.20755 0.75156 0.43063 0.0
H2206 H 0.17928 0.75951 0.43365 0.0
H2207 H 0.1986 0.77739 0.4203 0.0
C2208 C 0.01768 0.4802 0.87373 0.0
C2209 C 0.02797 0.47273 0.85471 0.0
C2210 C 0.00666 0.50033 0.87399 0.0
C2211 C 0.007 0.51371 0.85509 0.0
C2212 C 0.01693 0.50596 0.8357 0.0
C2213 C 0.02659 0.48516 0.83554 0.0
C2214 C 0.99545 0.50762 0.89472 0.0
C2215 C 0.01879 0.52024 0.81565 0.0
C2216 C 0.96582 0.55972 0.85007 0.0
C2217 C 0.97725 0.57729 0.85939 0.0
C2218 C 0.97536 0.53896 0.84855 0.0
C2219 C -0.00283 0.53592 0.85566 0.0
C2220 C 0.00926 0.55393 0.86394 0.0
C2221 C -0.00104 0.57434 0.86614 0.0
C2222 C 0.96165 0.52001 0.84055 0.0
C2223 C 0.03271 0.55155 0.87138 0.0
H2224 H 0.01891 0.47061 0.8886 0.0
H2225 H 0.03458 0.47945 0.82084 0.0
H2226 H 0.00436 0.52171 0.90188 0.0
H2227 H 0.97853 0.51314 0.8911 0.0
H2228 H 0.99475 0.49438 0.90714 0.0
H2229 H 0.0273 0.51185 0.80198 0.0
H2230 H 0.00234 0.52538 0.81 0.0
H2231 H 0.02803 0.53533 0.81981 0.0
H2232 H 0.94884 0.56182 0.84536 0.0
H2233 H 0.0077 0.58786 0.8736 0.0
H2234 H 0.96056 0.50735 0.85351 0.0
H2235 H 0.96945 0.51228 0.82614 0.0
H2236 H 0.94479 0.52508 0.836 0.0
H2237 H 0.03304 0.54441 0.88804 0.0
H2238 H 0.0412 0.56761 0.87202 0.0
H2239 H 0.042 0.54047 0.86042 0.0
C2240 C 0.72932 0.73159 0.39365 0.0
C2241 C 0.7267 0.71188 0.38223 0.0
C2242 C 0.74964 0.74248 0.39372 0.0
C2243 C 0.76764 0.73315 0.38245 0.0
C2244 C 0.76512 0.71306 0.37138 0.0
C2245 C 0.74472 0.70289 0.37117 0.0
C2246 C 0.7517 0.76414 0.40537 0.0
C2247 C 0.78399 0.70227 0.35957 0.0
C2248 C 0.81401 0.7663 0.35877 0.0
C2249 C 0.83086 0.76253 0.37388 0.0
C2250 C 0.793 0.75788 0.36213 0.0
C2251 C 0.78889 0.74473 0.38069 0.0
C2252 C 0.80587 0.74062 0.39593 0.0
C2253 C 0.82664 0.74984 0.39249 0.0
C2254 C 0.77522 0.76298 0.34572 0.0
C2255 C 0.80211 0.7264 0.41576 0.0
H2256 H 0.71553 0.73852 0.40236 0.0
H2257 H 0.74312 0.68747 0.36256 0.0
H2258 H 0.76659 0.76445 0.41575 0.0
H2259 H 0.75338 0.7774 0.39311 0.0
H2260 H 0.73722 0.76771 0.41573 0.0
H2261 H 0.77956 0.68596 0.35287 0.0
H2262 H 0.78947 0.7128 0.34586 0.0
H2263 H 0.79808 0.70023 0.37083 0.0
H2264 H 0.81695 0.77667 0.34469 0.0
H2265 H 0.83953 0.74727 0.40441 0.0
H2266 H 0.76054 0.76945 0.35418 0.0
H2267 H 0.77028 0.74778 0.33713 0.0
H2268 H 0.78057 0.77514 0.33333 0.0
H2269 H 0.78869 0.73329 0.42582 0.0
H2270 H 0.81699 0.7249 0.42609 0.0
H2271 H 0.79694 0.70979 0.41057 0.0
C2272 C 0.48773 0.51754 0.35833 0.0
C2273 C 0.46544 0.52122 0.3623 0.0
C2274 C 0.49636 0.49623 0.35859 0.0
C2275 C 0.48226 0.47824 0.36253 0.0
C2276 C 0.45971 0.48185 0.3661 0.0
C2277 C 0.45166 0.50327 0.36626 0.0
C2278 C 0.52061 0.49301 0.35513 0.0
C2279 C 0.44414 0.46312 0.37027 0.0
C2280 C 0.50331 0.4214 0.3485 0.0
C2281 C 0.51028 0.41396 0.36906 0.0
C2282 C 0.49362 0.44213 0.34614 0.0
C2283 C 0.49129 0.45579 0.36469 0.0
C2284 C 0.4976 0.44806 0.38554 0.0
C2285 C 0.50667 0.42714 0.38751 0.0
C2286 C 0.48643 0.44964 0.32375 0.0
C2287 C 0.49577 0.46227 0.40567 0.0
H2288 H 0.49849 0.5313 0.35531 0.0
H2289 H 0.43447 0.5059 0.36971 0.0
H2290 H 0.5279 0.48477 0.36957 0.0
H2291 H 0.52343 0.48225 0.34081 0.0
H2292 H 0.52935 0.50872 0.35241 0.0
H2293 H 0.42678 0.46852 0.37061 0.0
H2294 H 0.446 0.4504 0.35747 0.0
H2295 H 0.44805 0.45535 0.38619 0.0
H2296 H 0.50603 0.41133 0.33418 0.0
H2297 H 0.51209 0.42166 0.40347 0.0
H2298 H 0.49613 0.46414 0.31874 0.0
H2299 H 0.469 0.45472 0.32418 0.0
H2300 H 0.48842 0.43668 0.31119 0.0
H2301 H 0.50607 0.47709 0.40365 0.0
H2302 H 0.50105 0.45362 0.42075 0.0
H2303 H 0.47866 0.46785 0.4079 0.0
C2304 C 0.31516 0.72884 0.63681 0.0
C2305 C 0.33196 0.73186 0.62151 0.0
C2306 C 0.2946 0.73844 0.63383 0.0
C2307 C 0.29096 0.75204 0.61548 0.0
C2308 C 0.30812 0.75586 0.60037 0.0
C2309 C 0.32838 0.74538 0.60337 0.0
C2310 C 0.27652 0.73323 0.64984 0.0
C2311 C 0.30493 0.77071 0.58092 0.0
C2312 C 0.23161 0.76031 0.59891 0.0
C2313 C 0.2268 0.78028 0.60906 0.0
C2314 C 0.25265 0.75117 0.60032 0.0
C2315 C 0.26913 0.76223 0.61232 0.0
C2316 C 0.26436 0.78244 0.62251 0.0
C2317 C 0.24328 0.79123 0.62072 0.0
C2318 C 0.25715 0.72958 0.58922 0.0
C2319 C 0.2814 0.79456 0.6357 0.0
H2320 H 0.31766 0.71787 0.65052 0.0
H2321 H 0.3413 0.74747 0.59142 0.0
H2322 H 0.26938 0.74853 0.65647 0.0
H2323 H 0.26321 0.72429 0.64131 0.0
H2324 H 0.28232 0.72302 0.66371 0.0
H2325 H 0.31982 0.77177 0.57057 0.0
H2326 H 0.29114 0.76477 0.57072 0.0
H2327 H 0.3006 0.7874 0.58659 0.0
H2328 H 0.21898 0.75187 0.58975 0.0
H2329 H 0.23966 0.80665 0.6287 0.0
H2330 H 0.26191 0.71716 0.60157 0.0
H2331 H 0.27106 0.7313 0.57771 0.0
H2332 H 0.24273 0.7234 0.58003 0.0
H2333 H 0.28604 0.7847 0.65021 0.0
H2334 H 0.27548 0.81076 0.64139 0.0
H2335 H 0.29642 0.79699 0.62582 0.0
C2336 C 0.01112 0.51259 0.62018 0.0
C2337 C 0.03286 0.51523 0.62703 0.0
C2338 C 0.00088 0.49198 0.62131 0.0
C2339 C 0.0129 0.47364 0.62892 0.0
C2340 C 0.0345 0.47644 0.63662 0.0
C2341 C 0.04407 0.49719 0.63587 0.0
C2342 C 0.97745 0.4897 0.61378 0.0
C2343 C 0.048 0.45729 0.64454 0.0
C2344 C 0.98331 0.42124 0.6442 0.0
C2345 C 0.98437 0.40933 0.62458 0.0
C2346 C 0.99249 0.4422 0.64587 0.0
C2347 C 0.00347 0.45126 0.62767 0.0
C2348 C 0.00583 0.43878 0.60829 0.0
C2349 C 0.99613 0.41801 0.60693 0.0
C2350 C 0.98954 0.45502 0.66677 0.0
C2351 C 0.01791 0.4477 0.5887 0.0
H2352 H 0.0023 0.52647 0.61356 0.0
H2353 H 0.06089 0.49896 0.64124 0.0
H2354 H 0.97668 0.47886 0.59925 0.0
H2355 H 0.96747 0.48194 0.62679 0.0
H2356 H 0.97 0.50571 0.60948 0.0
H2357 H 0.06409 0.46247 0.65125 0.0
H2358 H 0.03909 0.44809 0.65736 0.0
H2359 H 0.05093 0.44585 0.63076 0.0
H2360 H 0.97413 0.4148 0.65792 0.0
H2361 H -0.00297 0.40893 0.59173 0.0
H2362 H 0.97977 0.46996 0.66342 0.0
H2363 H 0.00563 0.46046 0.67319 0.0
H2364 H 0.98112 0.44537 0.67964 0.0
H2365 H 0.00908 0.46215 0.58216 0.0
H2366 H 0.01949 0.4354 0.57543 0.0
H2367 H 0.03452 0.45322 0.59355 0.0
C2368 C 0.99145 0.0716 0.63232 0.0
C2369 C 0.01408 0.07452 0.63403 0.0
C2370 C 0.98224 0.05063 0.63427 0.0
C2371 C 0.99618 0.03226 0.63691 0.0
C2372 C 0.01903 0.03528 0.6389 0.0
C2373 C 0.02764 0.05645 0.6379 0.0
C2374 C 0.95771 0.04805 0.63272 0.0
C2375 C 0.03455 0.01611 0.64046 0.0
C2376 C 0.97191 0.97794 0.65464 0.0
C2377 C 0.96699 0.96845 0.63441 0.0
C2378 C 0.98157 -0.00126 0.65574 0.0
C2379 C 0.98709 0.00977 0.63616 0.0
C2380 C 0.98361 -0.00055 0.61573 0.0
C2381 C 0.97323 0.97903 0.61511 0.0
C2382 C 0.98459 0.00948 0.67776 0.0
C2383 C 0.98976 0.01041 0.59446 0.0
H2384 H 0.98108 0.08562 0.62906 0.0
H2385 H 0.04524 0.05869 0.63854 0.0
H2386 H 0.95339 0.03929 0.61745 0.0
H2387 H 0.9516 0.03807 0.64658 0.0
H2388 H 0.94912 0.06407 0.63278 0.0
H2389 H 0.0517 0.02134 0.64347 0.0
H2390 H 0.02949 0.00484 0.65372 0.0
H2391 H 0.03405 0.00672 0.62493 0.0
H2392 H 0.96661 0.96992 0.66952 0.0
H2393 H 0.96909 0.97173 0.59948 0.0
H2394 H 0.97455 0.02459 0.67855 0.0
H2395 H 0.00191 0.01439 0.68005 0.0
H2396 H 0.97976 -0.00143 0.69145 0.0
H2397 H 0.97842 0.02419 0.59122 0.0
H2398 H 0.9889 -0.00107 0.58041 0.0
H2399 H 0.00655 0.01724 0.59541 0.0
C2400 C 0.60128 0.68093 0.77352 0.0
C2401 C 0.61407 0.66467 0.7636 0.0
C2402 C 0.59959 0.70185 0.76443 0.0
C2403 C 0.61001 0.70631 0.74431 0.0
C2404 C 0.62188 0.68954 0.73349 0.0
C2405 C 0.62431 0.66903 0.74362 0.0
C2406 C 0.58747 0.71942 0.77688 0.0
C2407 C 0.63239 0.69334 0.71149 0.0
C2408 C 0.58887 0.75584 0.71364 0.0
C2409 C 0.60675 0.77008 0.71491 0.0
C2410 C 0.58996 0.73478 0.72258 0.0
C2411 C 0.60862 0.72862 0.73481 0.0
C2412 C 0.62587 0.74381 0.73798 0.0
C2413 C 0.62507 0.76413 0.72729 0.0
C2414 C 0.57189 0.71867 0.71754 0.0
C2415 C 0.64533 0.73839 0.7522 0.0
H2416 H 0.59366 0.67772 0.78919 0.0
H2417 H 0.6343 0.6565 0.73604 0.0
H2418 H 0.59832 0.73375 0.77949 0.0
H2419 H 0.57318 0.72519 0.76733 0.0
H2420 H 0.58154 0.71359 0.79301 0.0
H2421 H 0.63711 0.67773 0.70349 0.0
H2422 H 0.62114 0.70239 0.70047 0.0
H2423 H 0.64735 0.70339 0.71355 0.0
H2424 H 0.57469 0.76042 0.70415 0.0
H2425 H 0.63896 0.77514 0.72812 0.0
H2426 H 0.56393 0.71309 0.73282 0.0
H2427 H 0.57888 0.70398 0.70948 0.0
H2428 H 0.55915 0.72573 0.70666 0.0
H2429 H 0.63968 0.73352 0.76874 0.0
H2430 H 0.65678 0.75242 0.75383 0.0
H2431 H 0.65442 0.72432 0.74527 0.0
C2432 C 0.93434 0.1357 0.46444 0.0
C2433 C 0.91586 0.1346 0.47785 0.0
C2434 C 0.95524 0.138 0.47335 0.0
C2435 C 0.95757 0.13934 0.49628 0.0
C2436 C 0.93875 0.13936 0.5099 0.0
C2437 C 0.91794 0.13672 0.50046 0.0
C2438 C 0.97475 0.13744 0.45824 0.0
C2439 C 0.94072 0.14119 0.53442 0.0
C2440 C 0.00775 0.11566 0.52321 0.0
C2441 C 0.01907 0.13458 0.52942 0.0
C2442 C 0.98812 0.11702 0.51159 0.0
C2443 C 0.97965 0.13785 0.50613 0.0
C2444 C 0.99188 0.15696 0.51083 0.0
C2445 C 0.01167 0.15508 0.52237 0.0
C2446 C 0.97577 0.09623 0.50644 0.0
C2447 C 0.98343 0.17937 0.50484 0.0
H2448 H 0.93248 0.13389 0.44688 0.0
H2449 H 0.90346 0.13591 0.51066 0.0
H2450 H 0.98765 0.14901 0.46361 0.0
H2451 H 0.9819 0.12075 0.45838 0.0
H2452 H 0.97007 0.14145 0.44115 0.0
H2453 H 0.92453 0.14318 0.54244 0.0
H2454 H 0.94864 0.12625 0.54103 0.0
H2455 H 0.95123 0.15531 0.53886 0.0
H2456 H 0.01362 0.09981 0.52863 0.0
H2457 H 0.02039 0.16972 0.5273 0.0
H2458 H 0.97142 0.09567 0.48884 0.0
H2459 H 0.96027 0.09585 0.51586 0.0
H2460 H 0.98535 0.08134 0.51054 0.0
H2461 H 0.97965 0.1801 0.48712 0.0
H2462 H 0.99535 0.1925 0.50885 0.0
H2463 H 0.96797 0.18264 0.51376 0.0
C2464 C 0.38969 0.74212 0.70223 0.0
C2465 C 0.37373 0.72705 0.70895 0.0
C2466 C 0.39131 0.76279 0.71196 0.0
C2467 C 0.37704 0.76827 0.72929 0.0
C2468 C 0.36194 0.75254 0.7372 0.0
C2469 C 0.36016 0.73222 0.72662 0.0
C2470 C 0.40745 0.77914 0.70288 0.0
C2471 C 0.34712 0.75746 0.7563 0.0
C2472 C 0.38998 0.81689 0.76544 0.0
C2473 C 0.37417 0.83215 0.75861 0.0
C2474 C 0.39137 0.79615 0.75583 0.0
C2475 C 0.37713 0.79078 0.73843 0.0
C2476 C 0.36224 0.80666 0.73037 0.0
C2477 C 0.3607 0.82708 0.74079 0.0
C2478 C 0.40702 0.77953 0.76533 0.0
C2479 C 0.34734 0.80173 0.71129 0.0
H2480 H 0.40003 0.73833 0.68837 0.0
H2481 H 0.34784 0.72057 0.73184 0.0
H2482 H 0.39853 0.79359 0.69644 0.0
H2483 H 0.41851 0.78505 0.716 0.0
H2484 H 0.41758 0.77215 0.68953 0.0
H2485 H 0.33814 0.74272 0.76198 0.0
H2486 H 0.35674 0.76414 0.77018 0.0
H2487 H 0.33499 0.77009 0.75151 0.0
H2488 H 0.40032 0.82052 0.77939 0.0
H2489 H 0.34849 0.8388 0.73544 0.0
H2490 H 0.41719 0.77211 0.7523 0.0
H2491 H 0.39757 0.76609 0.77306 0.0
H2492 H 0.41803 0.78678 0.77785 0.0
H2493 H 0.35705 0.79561 0.69725 0.0
H2494 H 0.33791 0.81633 0.70598 0.0
H2495 H 0.33562 0.78866 0.71587 0.0
C2496 C 0.99048 0.36169 0.54103 0.0
C2497 C 0.97197 0.35555 0.52886 0.0
C2498 C 0.01137 0.36147 0.53177 0.0
C2499 C 0.01386 0.35497 0.50976 0.0
C2500 C 0.99541 0.34797 0.49756 0.0
C2501 C 0.97459 0.34838 0.50727 0.0
C2502 C 0.03059 0.36924 0.54526 0.0
C2503 C -0.00243 0.34087 0.47403 0.0
C2504 C 0.06009 0.38219 0.47932 0.0
C2505 C 0.07553 0.3653 0.47783 0.0
C2506 C 0.03988 0.37883 0.48938 0.0
C2507 C 0.03522 0.35823 0.4988 0.0
C2508 C 0.05098 0.34126 0.49802 0.0
C2509 C 0.07093 0.3449 0.48719 0.0
C2510 C 0.02334 0.39722 0.48949 0.0
C2511 C 0.04676 0.31935 0.50857 0.0
H2512 H 0.98867 0.36717 0.55778 0.0
H2513 H 0.96039 0.3434 0.49788 0.0
H2514 H 0.0444 0.35754 0.54398 0.0
H2515 H 0.0364 0.38522 0.53893 0.0
H2516 H 0.02629 0.37128 0.56279 0.0
H2517 H 0.98191 0.33458 0.46726 0.0
H2518 H 0.00303 0.35491 0.4639 0.0
H2519 H 0.01018 0.32791 0.47255 0.0
H2520 H 0.06341 0.39788 0.47174 0.0
H2521 H 0.08288 0.33185 0.48598 0.0
H2522 H 0.01927 0.40179 0.50655 0.0
H2523 H 0.00796 0.39177 0.48151 0.0
H2524 H 0.02937 0.41202 0.48085 0.0
H2525 H 0.04485 0.32151 0.52648 0.0
H2526 H 0.06024 0.30755 0.50558 0.0
H2527 H 0.03126 0.31225 0.50233 0.0
C2528 C 0.62841 0.2267 0.76234 0.0
C2529 C 0.61511 0.22104 0.78011 0.0
C2530 C 0.6247 0.24612 0.7506 0.0
C2531 C 0.60767 0.26039 0.75724 0.0
C2532 C 0.5933 0.254 0.77415 0.0
C2533 C 0.59706 0.2343 0.78521 0.0
C2534 C 0.63989 0.25204 0.73208 0.0
C2535 C 0.57503 0.26876 0.78178 0.0
C2536 C 0.62044 0.32049 0.74931 0.0
C2537 C 0.60855 0.32539 0.73034 0.0
C2538 C 0.61965 0.29956 0.75861 0.0
C2539 C 0.60675 0.28309 0.74861 0.0
C2540 C 0.59368 0.28829 0.73023 0.0
C2541 C 0.59461 0.30946 0.7214 0.0
C2542 C 0.63353 0.29478 0.7785 0.0
C2543 C 0.5799 0.27117 0.71895 0.0
H2544 H 0.64225 0.21642 0.75817 0.0
H2545 H 0.58674 0.23019 0.79895 0.0
H2546 H 0.63049 0.25835 0.71789 0.0
H2547 H 0.65116 0.26522 0.73748 0.0
H2548 H 0.64985 0.23784 0.72667 0.0
H2549 H 0.56407 0.26053 0.7937 0.0
H2550 H 0.58209 0.28351 0.78968 0.0
H2551 H 0.56509 0.27441 0.76769 0.0
H2552 H 0.6312 0.33274 0.75631 0.0
H2553 H 0.58553 0.31303 0.70658 0.0
H2554 H 0.64653 0.28288 0.77417 0.0
H2555 H 0.62342 0.28726 0.79154 0.0
H2556 H 0.64144 0.30974 0.78515 0.0
H2557 H 0.59075 0.25995 0.7097 0.0
H2558 H 0.56806 0.27857 0.7073 0.0
H2559 H 0.57075 0.26117 0.73099 0.0
C2560 C 0.56999 0.129 0.49249 0.0
C2561 C 0.57372 0.13406 0.51449 0.0
C2562 C 0.54901 0.13112 0.48338 0.0
C2563 C 0.53135 0.13774 0.49686 0.0
C2564 C 0.53515 0.14307 0.51903 0.0
C2565 C 0.55639 0.14157 0.52746 0.0
C2566 C 0.54563 0.12567 0.45953 0.0
C2567 C 0.51659 0.14911 0.53415 0.0
C2568 C 0.47938 0.15804 0.46977 0.0
C2569 C 0.46761 0.13854 0.46746 0.0
C2570 C 0.5002 0.15806 0.47941 0.0
C2571 C 0.50876 0.13834 0.48802 0.0
C2572 C 0.49596 0.11903 0.48757 0.0
C2573 C 0.47569 0.11927 0.47685 0.0
C2574 C 0.51368 0.17876 0.47892 0.0
C2575 C 0.50418 0.09781 0.49719 0.0
H2576 H 0.58338 0.12293 0.48258 0.0
H2577 H 0.55912 0.14486 0.54467 0.0
H2578 H 0.53464 0.11132 0.45795 0.0
H2579 H 0.5376 0.13958 0.45106 0.0
H2580 H 0.56127 0.1219 0.45108 0.0
H2581 H 0.52232 0.1527 0.55101 0.0
H2582 H 0.50777 0.16362 0.52778 0.0
H2583 H 0.50464 0.13545 0.53491 0.0
H2584 H 0.4732 0.1729 0.46238 0.0
H2585 H 0.4666 0.10415 0.47487 0.0
H2586 H 0.52871 0.17599 0.46912 0.0
H2587 H 0.51897 0.18323 0.49568 0.0
H2588 H 0.50458 0.19275 0.47173 0.0
H2589 H 0.51694 0.09079 0.48638 0.0
H2590 H 0.49086 0.08556 0.49893 0.0
H2591 H 0.51173 0.10059 0.51346 0.0
C2592 C 0.40016 0.26513 0.76541 0.0
C2593 C 0.38224 0.27104 0.77836 0.0
C2594 C 0.40157 0.24403 0.75636 0.0
C2595 C 0.38446 0.22882 0.76009 0.0
C2596 C 0.36612 0.235 0.77276 0.0
C2597 C 0.36532 0.25598 0.78182 0.0
C2598 C 0.42142 0.2379 0.74305 0.0
C2599 C 0.34739 0.21939 0.7769 0.0
C2600 C 0.37212 0.1835 0.72018 0.0
C2601 C 0.37992 0.16504 0.73127 0.0
C2602 C 0.37455 0.20444 0.72891 0.0
C2603 C 0.38468 0.20696 0.74953 0.0
C2604 C 0.3931 0.18838 0.76067 0.0
C2605 C 0.39089 0.16749 0.75118 0.0
C2606 C 0.36561 0.22376 0.71633 0.0
C2607 C 0.40389 0.19052 0.78276 0.0
H2608 H 0.41347 0.27665 0.76315 0.0
H2609 H 0.35151 0.26055 0.79198 0.0
H2610 H 0.42906 0.22288 0.7498 0.0
H2611 H 0.41645 0.23421 0.726 0.0
H2612 H 0.43387 0.25114 0.74276 0.0
H2613 H 0.33448 0.2267 0.78739 0.0
H2614 H 0.33985 0.21443 0.76115 0.0
H2615 H 0.35354 0.20433 0.78493 0.0
H2616 H 0.36411 0.18151 0.70445 0.0
H2617 H 0.39714 0.15314 0.75951 0.0
H2618 H 0.37839 0.2365 0.71446 0.0
H2619 H 0.35184 0.23119 0.7255 0.0
H2620 H 0.35965 0.21907 0.69982 0.0
H2621 H 0.41792 0.20199 0.78174 0.0
H2622 H 0.40982 0.17456 0.78911 0.0
H2623 H 0.39213 0.1975 0.79469 0.0
C2624 C 0.43685 0.37489 0.52636 0.0
C2625 C 0.41846 0.36496 0.51699 0.0
C2626 C 0.45772 0.37164 0.51767 0.0
C2627 C 0.46014 0.35867 0.49871 0.0
C2628 C 0.44161 0.34823 0.48935 0.0
C2629 C 0.4209 0.35118 0.49892 0.0
C2630 C 0.47707 0.38263 0.52847 0.0
C2631 C 0.44357 0.33459 0.46888 0.0
C2632 C 0.50671 0.37549 0.46191 0.0
C2633 C 0.52234 0.3592 0.46599 0.0
C2634 C 0.48637 0.37524 0.47227 0.0
C2635 C 0.48156 0.35838 0.48733 0.0
C2636 C 0.49746 0.34216 0.49204 0.0
C2637 C 0.51781 0.34279 0.48131 0.0
C2638 C 0.46992 0.39289 0.46681 0.0
C2639 C 0.49286 0.32406 0.50817 0.0
H2640 H 0.43491 0.38502 0.5408 0.0
H2641 H 0.40661 0.34325 0.49201 0.0
H2642 H 0.49025 0.37054 0.53156 0.0
H2643 H 0.48383 0.39534 0.51743 0.0
H2644 H 0.47261 0.3905 0.54421 0.0
H2645 H 0.42783 0.32672 0.4643 0.0
H2646 H 0.44902 0.34505 0.4551 0.0
H2647 H 0.45613 0.32168 0.47114 0.0
H2648 H 0.5102 0.38827 0.45011 0.0
H2649 H 0.52978 0.33005 0.48428 0.0
H2650 H 0.46579 0.40233 0.48172 0.0
H2651 H 0.45454 0.38537 0.46072 0.0
H2652 H 0.47607 0.40445 0.45422 0.0
H2653 H 0.49024 0.33111 0.52467 0.0
H2654 H 0.50645 0.31202 0.50908 0.0
H2655 H 0.47762 0.31531 0.50358 0.0
C2656 C 0.73549 0.60364 0.76143 0.0
C2657 C 0.71329 0.60901 0.76337 0.0
C2658 C 0.74577 0.60369 0.74085 0.0
C2659 C 0.73353 0.60948 0.72199 0.0
C2660 C 0.71099 0.61414 0.72385 0.0
C2661 C 0.70118 0.6138 0.74442 0.0
C2662 C 0.76985 0.59844 0.73948 0.0
C2663 C 0.69732 0.62031 0.70418 0.0
C2664 C 0.76119 0.63723 0.67413 0.0
C2665 C 0.7628 0.62013 0.65892 0.0
C2666 C 0.7523 0.63373 0.69492 0.0
C2667 C 0.74436 0.61273 0.70054 0.0
C2668 C 0.74527 0.59553 0.68509 0.0
C2669 C 0.75454 0.59941 0.66446 0.0
C2670 C 0.75169 0.65245 0.71102 0.0
C2671 C 0.73692 0.57293 0.69055 0.0
H2672 H 0.74489 0.59973 0.77595 0.0
H2673 H 0.68393 0.61775 0.74561 0.0
H2674 H 0.77349 0.58831 0.72488 0.0
H2675 H 0.77923 0.6139 0.73795 0.0
H2676 H 0.77572 0.58968 0.75428 0.0
H2677 H 0.67975 0.62248 0.70831 0.0
H2678 H 0.70349 0.63583 0.69708 0.0
H2679 H 0.69867 0.60755 0.69137 0.0
H2680 H 0.76781 0.65321 0.6702 0.0
H2681 H 0.75592 0.58604 0.65291 0.0
H2682 H 0.76056 0.64786 0.72618 0.0
H2683 H 0.7345 0.65603 0.71565 0.0
H2684 H 0.75916 0.66761 0.70434 0.0
H2685 H 0.74616 0.56625 0.70467 0.0
H2686 H 0.73852 0.56141 0.67659 0.0
H2687 H 0.71946 0.57372 0.69542 0.0
C2688 C 0.87014 0.0409 0.49467 0.0
C2689 C 0.85992 0.03323 0.4756 0.0
C2690 C 0.86833 0.02968 0.51439 0.0
C2691 C 0.85623 0.01003 0.51512 0.0
C2692 C 0.84565 0.00214 0.49604 0.0
C2693 C 0.84763 0.0139 0.47637 0.0
C2694 C 0.88008 0.03856 0.53428 0.0
C2695 C 0.83258 0.9812 0.4964 0.0
C2696 C 0.87931 0.97329 0.55849 0.0
C2697 C 0.86499 0.97694 0.57596 0.0
C2698 C 0.87556 0.98267 0.53807 0.0
C2699 C 0.85736 -0.00337 0.53521 0.0
C2700 C 0.84246 3e-05 0.55263 0.0
C2701 C 0.84629 0.98978 0.57287 0.0
C2702 C 0.89163 0.97829 0.51981 0.0
C2703 C 0.8231 0.01516 0.5502 0.0
H2704 H 0.87977 0.0558 0.49424 0.0
H2705 H 0.83948 0.00808 0.46174 0.0
H2706 H 0.86876 0.03946 0.5484 0.0
H2707 H 0.89364 0.02739 0.53885 0.0
H2708 H 0.88705 0.0551 0.53141 0.0
H2709 H 0.82492 0.97758 0.48033 0.0
H2710 H 0.84332 0.9673 0.50101 0.0
H2711 H 0.81953 0.98229 0.50895 0.0
H2712 H 0.89339 0.9627 0.56069 0.0
H2713 H 0.83503 0.99219 0.58634 0.0
H2714 H 0.90108 0.99338 0.51628 0.0
H2715 H 0.88285 0.97364 0.50463 0.0
H2716 H 0.90336 0.96504 0.52399 0.0
H2717 H 0.82893 0.03234 0.54981 0.0
H2718 H 0.81134 0.0134 0.56392 0.0
H2719 H 0.81442 0.01202 0.53458 0.0
C2720 C 0.24275 0.85649 0.67535 0.0
C2721 C 0.23635 0.87494 0.66324 0.0
C2722 C 0.25361 0.8586 0.69541 0.0
C2723 C 0.25895 0.87968 0.70332 0.0
C2724 C 0.25417 0.89832 0.69036 0.0
C2725 C 0.24256 0.89577 0.67061 0.0
C2726 C 0.25761 0.83831 0.70895 0.0
C2727 C 0.26042 0.92099 0.69787 0.0
C2728 C 0.25793 0.88495 0.76499 0.0
C2729 C 0.27999 0.88183 0.77061 0.0
C2730 C 0.25104 0.88484 0.74315 0.0
C2731 C 0.26667 0.88212 0.72631 0.0
C2732 C 0.28909 0.87967 0.73177 0.0
C2733 C 0.29543 0.87911 0.7539 0.0
C2734 C 0.22687 0.88681 0.7382 0.0
C2735 C 0.30632 0.87711 0.71431 0.0
H2736 H 0.23795 0.8403 0.66994 0.0
H2737 H 0.23782 0.91009 0.66128 0.0
H2738 H 0.27477 0.83778 0.71481 0.0
H2739 H 0.24688 0.83865 0.72358 0.0
H2740 H 0.25418 0.82305 0.6997 0.0
H2741 H 0.2578 0.93345 0.68491 0.0
H2742 H 0.25051 0.9256 0.71234 0.0
H2743 H 0.27786 0.92132 0.70294 0.0
H2744 H 0.2458 0.88701 0.77773 0.0
H2745 H 0.31243 0.87639 0.75805 0.0
H2746 H 0.22108 0.87183 0.72972 0.0
H2747 H 0.22384 0.90082 0.72709 0.0
H2748 H 0.21689 0.88912 0.75319 0.0
H2749 H 0.30518 0.86053 0.70704 0.0
H2750 H 0.32311 0.87928 0.72096 0.0
H2751 H 0.30368 0.88913 0.70097 0.0
C2752 C 0.11201 0.52102 0.55978 0.0
C2753 C 0.127 0.51664 0.57661 0.0
C2754 C 0.11515 0.51274 0.53873 0.0
C2755 C 0.13336 0.49915 0.53452 0.0
C2756 C 0.14877 0.49488 0.55132 0.0
C2757 C 0.14555 0.50395 0.57218 0.0
C2758 C 0.09856 0.51805 0.52118 0.0
C2759 C 0.16827 0.48024 0.54742 0.0
C2760 C 0.12272 0.45553 0.4924 0.0
C2761 C 0.13393 0.46345 0.47399 0.0
C2762 C 0.12293 0.46682 0.51218 0.0
C2763 C 0.1343 0.48687 0.51366 0.0
C2764 C 0.1454 0.49531 0.49514 0.0
C2765 C 0.14516 0.4834 0.47543 0.0
C2766 C 0.11089 0.45721 0.53152 0.0
C2767 C 0.15731 0.51691 0.49613 0.0
H2768 H 0.09801 0.53146 0.5629 0.0
H2769 H 0.15737 0.50094 0.58505 0.0
H2770 H 0.10687 0.52294 0.50583 0.0
H2771 H 0.08864 0.50328 0.51755 0.0
H2772 H 0.08732 0.53142 0.52617 0.0
H2773 H 0.1795 0.47975 0.5617 0.0
H2774 H 0.16259 0.46334 0.54394 0.0
H2775 H 0.17753 0.4859 0.5329 0.0
H2776 H 0.11388 0.44018 0.49155 0.0
H2777 H 0.15385 0.4896 0.46129 0.0
H2778 H 0.09752 0.46836 0.53662 0.0
H2779 H 0.12219 0.45542 0.54562 0.0
H2780 H 0.10367 0.44094 0.52784 0.0
H2781 H 0.1454 0.53031 0.49893 0.0
H2782 H 0.16646 0.52041 0.48084 0.0
H2783 H 0.16895 0.51706 0.51006 0.0
C2784 C 0.77754 0.37441 0.80756 0.0
C2785 C 0.76707 0.38277 0.82612 0.0
C2786 C 0.76823 0.37648 0.78686 0.0
C2787 C 0.74776 0.38698 0.78474 0.0
C2788 C 0.73755 0.39643 0.80334 0.0
C2789 C 0.74749 0.39431 0.824 0.0
C2790 C 0.77968 0.36619 0.76753 0.0
C2791 C 0.71553 0.40745 0.80163 0.0
C2792 C 0.72588 0.39969 0.72796 0.0
C2793 C 0.71205 0.38173 0.72454 0.0
C2794 C 0.73794 0.40159 0.74746 0.0
C2795 C 0.73583 0.38526 0.76375 0.0
C2796 C 0.72265 0.36665 0.75987 0.0
C2797 C 0.7112 0.36499 0.74021 0.0
C2798 C 0.75233 0.42134 0.75097 0.0
C2799 C 0.72009 0.34874 0.77673 0.0
H2800 H 0.79281 0.36556 0.80939 0.0
H2801 H 0.73951 0.40069 0.83847 0.0
H2802 H 0.77007 0.35197 0.7616 0.0
H2803 H 0.78084 0.37804 0.75385 0.0
H2804 H 0.79642 0.36044 0.77171 0.0
H2805 H 0.71115 0.4163 0.81687 0.0
H2806 H 0.71533 0.41917 0.78779 0.0
H2807 H 0.70277 0.39495 0.79834 0.0
H2808 H 0.72652 0.41268 0.71593 0.0
H2809 H 0.70074 0.35091 0.7375 0.0
H2810 H 0.76923 0.41611 0.75508 0.0
H2811 H 0.74614 0.43099 0.76502 0.0
H2812 H 0.75292 0.43209 0.73634 0.0
H2813 H 0.73615 0.34091 0.77994 0.0
H2814 H 0.70836 0.33587 0.77147 0.0
H2815 H 0.71425 0.35575 0.79241 0.0
C2816 C 0.65148 0.01877 0.51162 0.0
C2817 C 0.63201 0.02941 0.51736 0.0
C2818 C 0.65269 0.00642 0.49228 0.0
C2819 C 0.63405 0.00494 0.47857 0.0
C2820 C 0.61407 0.01459 0.48506 0.0
C2821 C 0.61325 0.02645 0.50451 0.0
C2822 C 0.67405 0.99574 0.48608 0.0
C2823 C 0.5938 0.01335 0.47092 0.0
C2824 C 0.6368 0.99519 0.41749 0.0
C2825 C 0.62886 0.97381 0.41638 0.0
C2826 C 0.63982 0.0053 0.4379 0.0
C2827 C 0.63504 0.99347 0.4573 0.0
C2828 C 0.62821 0.97142 0.45603 0.0
C2829 C 0.62498 0.96195 0.43552 0.0
C2830 C 0.64705 0.0289 0.4387 0.0
C2831 C 0.62312 0.95812 0.4762 0.0
H2832 H 0.66603 0.02112 0.52149 0.0
H2833 H 0.59811 0.0345 0.50907 0.0
H2834 H 0.67139 0.97821 0.48219 0.0
H2835 H 0.68069 0.00363 0.47116 0.0
H2836 H 0.68647 -0.00299 0.49929 0.0
H2837 H 0.57961 0.02191 0.47836 0.0
H2838 H 0.59713 0.02082 0.45473 0.0
H2839 H 0.58922 0.99603 0.46809 0.0
H2840 H 0.64006 0.00408 0.40251 0.0
H2841 H 0.61919 0.9452 0.43442 0.0
H2842 H 0.66078 0.03095 0.45039 0.0
H2843 H 0.63333 0.03922 0.44458 0.0
H2844 H 0.65228 0.03502 0.42242 0.0
H2845 H 0.62352 0.94029 0.47273 0.0
H2846 H 0.60648 0.96233 0.48208 0.0
H2847 H 0.63484 0.96169 0.48959 0.0
C2848 C 0.22074 0.13169 0.80917 0.0
C2849 C 0.22794 0.11968 0.82729 0.0
C2850 C 0.22955 0.1281 0.78845 0.0
C2851 C 0.24649 0.11259 0.78593 0.0
C2852 C 0.2536 0.10007 0.80413 0.0
C2853 C 0.24388 0.1035 0.82468 0.0
C2854 C 0.22109 0.14137 0.76938 0.0
C2855 C 0.27195 0.08368 0.80206 0.0
C2856 C 0.26303 0.09757 0.72789 0.0
C2857 C 0.28061 0.11189 0.72465 0.0
C2858 C 0.25181 0.09728 0.74796 0.0
C2859 C 0.25844 0.11167 0.76491 0.0
C2860 C 0.2759 0.12641 0.76144 0.0
C2861 C 0.28663 0.12642 0.74135 0.0
C2862 C 0.23309 0.08151 0.75115 0.0
C2863 C 0.28333 0.14219 0.77897 0.0
H2864 H 0.20777 0.14364 0.81114 0.0
H2865 H 0.24899 0.09393 0.8387 0.0
H2866 H 0.23393 0.15294 0.76385 0.0
H2867 H 0.21712 0.13052 0.7554 0.0
H2868 H 0.20622 0.15091 0.77367 0.0
H2869 H 0.27384 0.07357 0.81703 0.0
H2870 H 0.26909 0.07272 0.7879 0.0
H2871 H 0.28756 0.09246 0.79905 0.0
H2872 H 0.25849 0.08621 0.71506 0.0
H2873 H 0.30009 0.13771 0.73884 0.0
H2874 H 0.21796 0.09061 0.75537 0.0
H2875 H 0.23672 0.0704 0.76503 0.0
H2876 H 0.22991 0.07148 0.73634 0.0
H2877 H 0.26998 0.15387 0.78277 0.0
H2878 H 0.29801 0.1517 0.77401 0.0
H2879 H 0.28722 0.1332 0.79424 0.0
C2880 C 0.35538 0.48437 0.51592 0.0
C2881 C 0.36055 0.46204 0.51656 0.0
C2882 C 0.3551 0.49576 0.49591 0.0
C2883 C 0.36015 0.48448 0.4763 0.0
C2884 C 0.3649 0.46189 0.47688 0.0
C2885 C 0.36501 0.451 0.49692 0.0
C2886 C 0.35004 0.51993 0.4958 0.0
C2887 C 0.37077 0.44932 0.45642 0.0
C2888 C 0.34838 0.50872 0.42025 0.0
C2889 C 0.36915 0.51647 0.41438 0.0
C2890 C 0.34503 0.49845 0.44055 0.0
C2891 C 0.36274 0.49644 0.45538 0.0
C2892 C 0.38366 0.50434 0.44954 0.0
C2893 C 0.38665 0.51397 0.42907 0.0
C2894 C 0.32263 0.48968 0.44612 0.0
C2895 C 0.40294 0.50272 0.46498 0.0
H2896 H 0.35183 0.49298 0.53099 0.0
H2897 H 0.36903 0.43373 0.49713 0.0
H2898 H 0.36471 0.52923 0.49051 0.0
H2899 H 0.33682 0.5235 0.48388 0.0
H2900 H 0.34497 0.52596 0.51215 0.0
H2901 H 0.37224 0.43146 0.45945 0.0
H2902 H 0.35826 0.452 0.44355 0.0
H2903 H 0.38662 0.45533 0.44995 0.0
H2904 H 0.33477 0.5108 0.40905 0.0
H2905 H 0.4027 0.52029 0.42494 0.0
H2906 H 0.31676 0.4971 0.46158 0.0
H2907 H 0.32354 0.47175 0.44878 0.0
H2908 H 0.31045 0.493 0.43304 0.0
H2909 H 0.39909 0.51115 0.48057 0.0
H2910 H 0.41803 0.51009 0.45805 0.0
H2911 H 0.40632 0.48533 0.46891 0.0
C2912 C 0.75325 0.70074 0.60228 0.0
C2913 C 0.76834 0.70923 0.61735 0.0
C2914 C 0.73277 0.7105 0.59927 0.0
C2915 C 0.72747 0.72951 0.61126 0.0
C2916 C 0.74317 0.73896 0.62552 0.0
C2917 C 0.76335 0.72842 0.62872 0.0
C2918 C 0.71634 0.69963 0.58433 0.0
C2919 C 0.73826 0.75961 0.63813 0.0
C2920 C 0.67802 0.76367 0.59577 0.0
C2921 C 0.6632 0.75781 0.61227 0.0
C2922 C 0.6989 0.75419 0.59482 0.0
C2923 C 0.70484 0.73825 0.6105 0.0
C2924 C 0.68933 0.73104 0.62609 0.0
C2925 C 0.66868 0.74095 0.6268 0.0
C2926 C 0.71506 0.76234 0.57804 0.0
C2927 C 0.69492 0.71372 0.64281 0.0
H2928 H 0.75683 0.68558 0.59386 0.0
H2929 H 0.77501 0.73491 0.64042 0.0
H2930 H 0.70241 0.69338 0.59413 0.0
H2931 H 0.70962 0.71163 0.57249 0.0
H2932 H 0.72355 0.68575 0.5751 0.0
H2933 H 0.7531 0.7664 0.64616 0.0
H2934 H 0.73125 0.77225 0.62715 0.0
H2935 H 0.7259 0.75608 0.65093 0.0
H2936 H 0.67396 0.77684 0.5846 0.0
H2937 H 0.65724 0.73631 0.63952 0.0
H2938 H 0.72263 0.74842 0.56922 0.0
H2939 H 0.72844 0.77133 0.5864 0.0
H2940 H 0.70733 0.77344 0.56591 0.0
H2941 H 0.70119 0.69883 0.63456 0.0
H2942 H 0.68062 0.70913 0.65302 0.0
H2943 H 0.70809 0.71979 0.65375 0.0
C2944 C 0.68268 0.21824 0.86141 0.0
C2945 C 0.66405 0.22878 0.86955 0.0
C2946 C 0.70356 0.22686 0.86491 0.0
C2947 C 0.70577 0.24699 0.87606 0.0
C2948 C 0.68695 0.2578 0.88429 0.0
C2949 C 0.66623 0.24825 0.88134 0.0
C2950 C 0.72325 0.21442 0.85665 0.0
C2951 C 0.68866 0.27963 0.89571 0.0
C2952 C 0.76181 0.26569 0.8958 0.0
C2953 C 0.76822 0.27918 0.87842 0.0
C2954 C 0.74157 0.25473 0.89523 0.0
C2955 C 0.72751 0.25768 0.87701 0.0
C2956 C 0.73433 0.27063 0.85916 0.0
C2957 C 0.75473 0.28086 0.85992 0.0
C2958 C 0.73495 0.24058 0.91433 0.0
C2959 C 0.71977 0.27435 0.83951 0.0
H2960 H 0.68095 0.20271 0.853 0.0
H2961 H 0.65176 0.25602 0.88803 0.0
H2962 H 0.7313 0.22379 0.84338 0.0
H2963 H 0.73542 0.21236 0.86997 0.0
H2964 H 0.71881 0.19799 0.85025 0.0
H2965 H 0.67277 0.28496 0.90272 0.0
H2966 H 0.70099 0.27891 0.909 0.0
H2967 H 0.69425 0.29221 0.88388 0.0
H2968 H 0.77211 0.26444 0.91018 0.0
H2969 H 0.75968 0.2911 0.84632 0.0
H2970 H 0.73013 0.22407 0.90852 0.0
H2971 H 0.7205 0.2478 0.92257 0.0
H2972 H 0.74832 0.23884 0.92653 0.0
H2973 H 0.71634 0.25857 0.83124 0.0
H2974 H 0.72721 0.28569 0.82743 0.0
H2975 H 0.70384 0.28125 0.84481 0.0
C2976 C 0.50851 0.97695 0.36802 0.0
C2977 C 0.53058 0.97477 0.36231 0.0
C2978 C 0.49793 -0.00272 0.36615 0.0
C2979 C 0.50981 0.01568 0.35848 0.0
C2980 C 0.53164 0.01322 0.35146 0.0
C2981 C 0.54172 0.99284 0.35344 0.0
C2982 C 0.47447 -0.00061 0.37356 0.0
C2983 C 0.54495 0.03243 0.34338 0.0
C2984 C 0.47823 0.06764 0.34605 0.0
C2985 C 0.4801 0.0788 0.36601 0.0
C2986 C 0.48837 0.04726 0.34303 0.0
C2987 C 0.50044 0.03791 0.36042 0.0
C2988 C 0.50354 0.04975 0.38004 0.0
C2989 C 0.49352 0.07014 0.3825 0.0
C2990 C 0.4854 0.03533 0.32163 0.0
C2991 C 0.5165 0.04041 0.39893 0.0
H2992 H 0.49977 0.96306 0.37474 0.0
H2993 H 0.5588 0.99147 0.34898 0.0
H2994 H 0.47372 0.00975 0.38844 0.0
H2995 H 0.46453 0.00758 0.36077 0.0
H2996 H 0.46698 0.98327 0.37734 0.0
H2997 H 0.5605 0.02718 0.33559 0.0
H2998 H 0.53547 0.04226 0.33144 0.0
H2999 H 0.549 0.04328 0.35736 0.0
H3000 H 0.46804 0.0743 0.33315 0.0
H3001 H 0.49528 0.07873 0.39791 0.0
H3002 H 0.47561 0.02029 0.32434 0.0
H3003 H 0.5015 0.03015 0.31504 0.0
H3004 H 0.47699 0.04555 0.30918 0.0
H3005 H 0.50822 0.02552 0.4052 0.0
H3006 H 0.51826 0.05222 0.41262 0.0
H3007 H 0.53307 0.03549 0.39343 0.0
C3008 C 0.22589 0.23712 0.8868 0.0
C3009 C 0.22207 0.2149 0.88245 0.0
C3010 C 0.24723 0.24565 0.88698 0.0
C3011 C 0.26519 0.23152 0.8831 0.0
C3012 C 0.26149 0.20896 0.8796 0.0
C3013 C 0.23999 0.20101 0.87886 0.0
C3014 C 0.25046 0.26991 0.89037 0.0
C3015 C 0.28026 0.1933 0.87602 0.0
C3016 C 0.31546 0.25618 0.85664 0.0
C3017 C 0.32912 0.25994 0.87469 0.0
C3018 C 0.2947 0.24685 0.85924 0.0
C3019 C 0.28756 0.24063 0.88034 0.0
C3020 C 0.30166 0.24331 0.89852 0.0
C3021 C 0.32228 0.25303 0.89549 0.0
C3022 C 0.28006 0.24446 0.83947 0.0
C3023 C 0.29469 0.23669 0.92124 0.0
H3024 H 0.21217 0.24799 0.88959 0.0
H3025 H 0.23726 0.18391 0.8751 0.0
H3026 H 0.26309 0.27297 0.90305 0.0
H3027 H 0.25639 0.27743 0.87496 0.0
H3028 H 0.2351 0.27827 0.8953 0.0
H3029 H 0.27477 0.17598 0.87551 0.0
H3030 H 0.28857 0.19718 0.86038 0.0
H3031 H 0.29256 0.19513 0.88925 0.0
H3032 H 0.32052 0.2615 0.84052 0.0
H3033 H 0.33267 0.25595 0.90957 0.0
H3034 H 0.26475 0.25389 0.84195 0.0
H3035 H 0.2754 0.22707 0.83724 0.0
H3036 H 0.28802 0.25031 0.82423 0.0
H3037 H 0.28119 0.24745 0.92683 0.0
H3038 H 0.30832 0.23788 0.93322 0.0
H3039 H 0.28837 0.21968 0.92122 0.0
C3040 C 0.02775 0.93419 0.85251 0.0
C3041 C 0.01482 0.91616 0.85819 0.0
C3042 C 0.01875 0.95514 0.85091 0.0
C3043 C 0.99606 0.95797 0.85431 0.0
C3044 C 0.98267 0.93956 0.85903 0.0
C3045 C 0.99235 0.91882 0.86146 0.0
C3046 C 0.03377 0.97437 0.84692 0.0
C3047 C 0.95826 0.9419 0.862 0.0
C3048 C 0.97427 0.01219 0.87482 0.0
C3049 C 0.96646 0.02171 0.85551 0.0
C3050 C 0.9847 0.99179 0.87452 0.0
C3051 C 0.9867 0.98038 0.85448 0.0
C3052 C 0.97967 0.99035 0.8348 0.0
C3053 C 0.97007 0.0112 0.8355 0.0
C3054 C 0.99266 0.98205 0.89578 0.0
C3055 C 0.98115 0.9785 0.81319 0.0
H3056 H 0.04527 0.93206 0.85049 0.0
H3057 H 0.98249 0.9048 0.86602 0.0
H3058 H 0.02786 0.98422 0.8329 0.0
H3059 H 0.03378 0.98519 0.86149 0.0
H3060 H 0.05088 0.9692 0.84362 0.0
H3061 H 0.94999 0.92581 0.86379 0.0
H3062 H 0.9548 0.95185 0.87675 0.0
H3063 H 0.95106 0.95062 0.8478 0.0
H3064 H 0.97132 0.02031 0.8903 0.0
H3065 H 0.96385 0.01846 0.82058 0.0
H3066 H 0.00987 0.9765 0.89413 0.0
H3067 H 0.98265 0.96751 0.89997 0.0
H3068 H 0.99166 0.99387 0.90953 0.0
H3069 H -0.0015 0.97508 0.80919 0.0
H3070 H 0.97381 0.98804 0.79958 0.0
H3071 H 0.97262 0.9625 0.81431 0.0
C3072 C 0.81905 0.23143 0.09626 0.0
C3073 C 0.82844 0.22894 0.11709 0.0
C3074 C 0.79825 0.2408 0.09363 0.0
C3075 C 0.78666 0.2481 0.11225 0.0
C3076 C 0.79637 0.24642 0.13321 0.0
C3077 C 0.81712 0.23687 0.13538 0.0
C3078 C 0.78848 0.24242 0.071 0.0
C3079 C 0.7846 0.25428 0.15344 0.0
C3080 C 0.74269 0.29122 0.107 0.0
C3081 C 0.72346 0.27904 0.11027 0.0
C3082 C 0.76326 0.28123 0.10693 0.0
C3083 C 0.76475 0.25837 0.10987 0.0
C3084 C 0.7454 0.24572 0.11197 0.0
C3085 C 0.7249 0.25623 0.11222 0.0
C3086 C 0.78345 0.29534 0.10474 0.0
C3087 C 0.74642 0.22119 0.11461 0.0
H3088 H 0.82757 0.22526 0.082 0.0
H3089 H 0.82416 0.23497 0.15155 0.0
H3090 H 0.77255 0.23372 0.07047 0.0
H3091 H 0.78523 0.25979 0.06688 0.0
H3092 H 0.79936 0.23539 0.05828 0.0
H3093 H 0.79457 0.25216 0.16849 0.0
H3094 H 0.78035 0.27184 0.15174 0.0
H3095 H 0.76905 0.24513 0.15545 0.0
H3096 H 0.74182 0.30884 0.10519 0.0
H3097 H 0.71014 0.24669 0.11455 0.0
H3098 H 0.79406 0.28916 0.09141 0.0
H3099 H 0.79311 0.29461 0.12009 0.0
H3100 H 0.7794 0.31273 0.10132 0.0
H3101 H 0.75582 0.21386 0.10094 0.0
H3102 H 0.72991 0.2136 0.11506 0.0
H3103 H 0.75516 0.21701 0.12997 0.0
C3104 C 0.46609 0.9359 0.13252 0.0
C3105 C 0.4798 0.9176 0.13197 0.0
C3106 C 0.47463 0.95685 0.13561 0.0
C3107 C 0.49747 0.95946 0.13809 0.0
C3108 C 0.51133 0.94081 0.13855 0.0
C3109 C 0.50225 0.9199 0.13544 0.0
C3110 C 0.4593 0.97622 0.13488 0.0
C3111 C 0.53578 0.94304 0.1413 0.0
C3112 C 0.52297 0.01114 0.11602 0.0
C3113 C 0.52791 0.02259 0.13523 0.0
C3114 C 0.51265 0.99077 0.11679 0.0
C3115 C 0.507 0.98171 0.1373 0.0
C3116 C 0.51063 0.99383 0.1567 0.0
C3117 C 0.52096 0.01432 0.15542 0.0
C3118 C 0.50891 0.97842 0.09571 0.0
C3119 C 0.50457 0.98469 0.1788 0.0
H3120 H 0.44863 0.93381 0.12994 0.0
H3121 H 0.51266 0.90555 0.13514 0.0
H3122 H 0.46307 0.98792 0.14822 0.0
H3123 H 0.46145 0.98501 0.11916 0.0
H3124 H 0.44188 0.97119 0.13625 0.0
H3125 H 0.54395 0.92694 0.14338 0.0
H3126 H 0.5428 0.95124 0.12672 0.0
H3127 H 0.53959 0.95343 0.15568 0.0
H3128 H 0.52835 0.01758 0.10041 0.0
H3129 H 0.52493 0.02308 0.17031 0.0
H3130 H 0.49145 0.97366 0.0942 0.0
H3131 H 0.51871 0.96314 0.09576 0.0
H3132 H 0.51352 0.98817 0.0811 0.0
H3133 H 0.48681 0.98101 0.17931 0.0
H3134 H 0.50858 0.99616 0.19231 0.0
H3135 H 0.51338 0.96907 0.18164 0.0
C3136 C 0.46548 0.48372 0.11166 0.0
C3137 C 0.46443 0.47126 0.13082 0.0
C3138 C 0.47462 0.50471 0.11174 0.0
C3139 C 0.48249 0.51362 0.1316 0.0
C3140 C 0.48157 0.50103 0.15104 0.0
C3141 C 0.47272 0.47981 0.15037 0.0
C3142 C 0.47557 0.51746 0.09061 0.0
C3143 C 0.48928 0.51025 0.1726 0.0
C3144 C 0.5249 0.55782 0.12406 0.0
C3145 C 0.51231 0.57684 0.12569 0.0
C3146 C 0.51553 0.5372 0.12698 0.0
C3147 C 0.4929 0.53557 0.13147 0.0
C3148 C 0.48016 0.55488 0.13381 0.0
C3149 C 0.49011 0.57546 0.1309 0.0
C3150 C 0.52976 0.51715 0.12449 0.0
C3151 C 0.45598 0.5538 0.13867 0.0
H3152 H 0.45863 0.47716 0.09666 0.0
H3153 H 0.47117 0.47039 0.16531 0.0
H3154 H 0.46643 0.53304 0.09234 0.0
H3155 H 0.4928 0.52169 0.08674 0.0
H3156 H 0.46858 0.5082 0.07662 0.0
H3157 H 0.48742 0.49837 0.18621 0.0
H3158 H 0.50673 0.51511 0.17145 0.0
H3159 H 0.47979 0.5252 0.17658 0.0
H3160 H 0.54222 0.55913 0.12033 0.0
H3161 H 0.48056 0.59034 0.1324 0.0
H3162 H 0.52466 0.50788 0.10975 0.0
H3163 H 0.52778 0.50615 0.13877 0.0
H3164 H 0.54735 0.52141 0.12287 0.0
H3165 H 0.44704 0.54889 0.12366 0.0
H3166 H 0.44947 0.56985 0.14416 0.0
H3167 H 0.4525 0.54137 0.15141 0.0
C3168 C 0.1033 0.0396 0.26857 0.0
C3169 C 0.12216 0.04145 0.28144 0.0
C3170 C 0.10069 0.02205 0.25411 0.0
C3171 C 0.11735 0.00607 0.25265 0.0
C3172 C 0.13588 0.00726 0.26654 0.0
C3173 C 0.13811 0.02508 0.28076 0.0
C3174 C 0.08076 0.0213 0.23952 0.0
C3175 C 0.15389 0.99037 0.26553 0.0
C3176 C 0.10742 0.95179 0.2248 0.0
C3177 C 0.11814 0.95503 0.20486 0.0
C3178 C 0.10637 0.96855 0.24032 0.0
C3179 C 0.11621 0.98894 0.23561 0.0
C3180 C 0.12615 0.99258 0.215 0.0
C3181 C 0.1271 0.97542 0.19983 0.0
C3182 C 0.09584 0.96404 0.26218 0.0
C3183 C 0.1366 0.01424 0.20937 0.0
H3184 H 0.0912 0.05255 0.26885 0.0
H3185 H 0.15274 0.02675 0.29068 0.0
H3186 H 0.08578 0.02363 0.22225 0.0
H3187 H 0.07271 0.00507 0.24065 0.0
H3188 H 0.06862 0.03413 0.24378 0.0
H3189 H 0.16608 0.99251 0.27885 0.0
H3190 H 0.14695 0.97363 0.26661 0.0
H3191 H 0.1625 0.99164 0.24962 0.0
H3192 H 0.10084 0.93578 0.22866 0.0
H3193 H 0.13555 0.97764 0.18441 0.0
H3194 H 0.08375 0.97697 0.26615 0.0
H3195 H 0.10851 0.96431 0.27518 0.0
H3196 H 0.08748 0.9479 0.26258 0.0
H3197 H 0.12462 0.02769 0.21154 0.0
H3198 H 0.1428 0.01467 0.19231 0.0
H3199 H 0.15048 0.01749 0.22063 0.0
C3200 C 0.29182 0.63332 0.97317 0.0
C3201 C 0.28781 0.61979 0.95514 0.0
C3202 C 0.2759 0.6364 0.98927 0.0
C3203 C 0.25561 0.62549 0.98731 0.0
C3204 C 0.25115 0.61249 0.96861 0.0
C3205 C 0.26744 0.60973 0.95268 0.0
C3206 C 0.28118 0.65055 0.00882 0.0
C3207 C 0.22956 0.60077 0.96591 0.0
C3208 C 0.22521 0.61072 0.03916 0.0
C3209 C 0.20707 0.62459 0.03786 0.0
C3210 C 0.24122 0.61086 0.02278 0.0
C3211 C 0.2397 0.62628 0.00555 0.0
C3212 C 0.22254 0.64176 0.00537 0.0
C3213 C 0.20612 0.64041 0.02127 0.0
C3214 C 0.25901 0.59372 0.02321 0.0
C3215 C 0.22108 0.6592 0.98795 0.0
H3216 H 0.30779 0.64083 0.9751 0.0
H3217 H 0.26454 0.59923 0.93869 0.0
H3218 H 0.26766 0.6622 0.01205 0.0
H3219 H 0.283 0.64012 0.02355 0.0
H3220 H 0.29659 0.65993 0.00655 0.0
H3221 H 0.22848 0.59185 0.95013 0.0
H3222 H 0.22732 0.5889 0.97946 0.0
H3223 H 0.21586 0.61263 0.96679 0.0
H3224 H 0.22617 0.59886 0.0523 0.0
H3225 H 0.19203 0.65109 0.02006 0.0
H3226 H 0.27534 0.60162 0.02338 0.0
H3227 H 0.25808 0.58358 0.00818 0.0
H3228 H 0.25771 0.58275 0.03763 0.0
H3229 H 0.23637 0.66899 0.98774 0.0
H3230 H 0.20703 0.67043 0.99058 0.0
H3231 H 0.21936 0.65154 0.97161 0.0
C3232 C 0.86578 0.51932 0.20113 0.0
C3233 C 0.87627 0.53917 0.20537 0.0
C3234 C 0.86716 0.50208 0.21615 0.0
C3235 C 0.87901 0.50513 0.23585 0.0
C3236 C 0.89042 0.52488 0.23964 0.0
C3237 C 0.88896 0.5417 0.22424 0.0
C3238 C 0.85499 0.48107 0.21152 0.0
C3239 C 0.90313 0.52869 0.26048 0.0
C3240 C 0.85923 0.47112 0.2835 0.0
C3241 C 0.87401 0.4537 0.28293 0.0
C3242 C 0.86108 0.48844 0.26862 0.0
C3243 C 0.87824 0.4882 0.25307 0.0
C3244 C 0.8939 0.4712 0.25328 0.0
C3245 C 0.8915 0.45402 0.26817 0.0
C3246 C 0.84409 0.50638 0.26883 0.0
C3247 C 0.91243 0.47048 0.23699 0.0
H3248 H 0.85579 0.51768 0.18656 0.0
H3249 H 0.89673 0.55732 0.22751 0.0
H3250 H 0.86597 0.4668 0.21377 0.0
H3251 H 0.84129 0.47926 0.22327 0.0
H3252 H 0.84821 0.48064 0.19467 0.0
H3253 H 0.91204 0.54453 0.26033 0.0
H3254 H 0.89178 0.5286 0.27462 0.0
H3255 H 0.9151 0.5153 0.26309 0.0
H3256 H 0.84566 0.47065 0.2949 0.0
H3257 H 0.90264 0.44025 0.26746 0.0
H3258 H 0.8345 0.50589 0.25343 0.0
H3259 H 0.85212 0.52263 0.26969 0.0
H3260 H 0.8326 0.5048 0.2828 0.0
H3261 H 0.90578 0.46702 0.22047 0.0
H3262 H 0.92465 0.45765 0.24109 0.0
H3263 H 0.92088 0.48652 0.2362 0.0
C3264 C 0.77539 0.89076 0.02817 0.0
C3265 C 0.78971 0.87317 0.03132 0.0
C3266 C 0.75823 0.88936 0.01304 0.0
C3267 C 0.75464 0.86946 0.00177 0.0
C3268 C 0.76801 0.85111 0.00614 0.0
C3269 C 0.78574 0.85335 0.02048 0.0
C3270 C 0.74454 0.90943 0.00847 0.0
C3271 C 0.76415 0.82939 0.99502 0.0
C3272 C 0.69882 0.86399 0.97591 0.0
C3273 C 0.70325 0.86989 0.95428 0.0
C3274 C 0.71557 0.86303 0.99144 0.0
C3275 C 0.73719 0.86812 0.98504 0.0
C3276 C 0.74187 0.87325 0.96292 0.0
C3277 C 0.72468 0.87423 0.94772 0.0
C3278 C 0.70998 0.85735 0.0148 0.0
C3279 C 0.7648 0.87868 0.95556 0.0
H3280 H 0.77831 0.90601 0.03674 0.0
H3281 H 0.797 0.83983 0.02235 0.0
H3282 H 0.74522 0.9135 0.9908 0.0
H3283 H 0.72717 0.90615 0.01256 0.0
H3284 H 0.75012 0.9239 0.01794 0.0
H3285 H 0.77408 0.81608 0.00242 0.0
H3286 H 0.74661 0.82478 -0.00406 0.0
H3287 H 0.76849 0.83071 0.97747 0.0
H3288 H 0.68205 0.86084 0.9808 0.0
H3289 H 0.72785 0.87892 0.93093 0.0
H3290 H 0.71262 0.87184 0.0254 0.0
H3291 H 0.72089 0.84417 0.02086 0.0
H3292 H 0.69271 0.85197 0.01661 0.0
H3293 H 0.77008 0.8943 0.96316 0.0
H3294 H 0.76598 0.88033 0.93751 0.0
H3295 H 0.77643 0.86584 0.96099 0.0
C3296 C 0.20939 0.14395 0.96816 0.0
C3297 C 0.2047 0.12526 0.95574 0.0
C3298 C 0.22435 0.1431 0.98545 0.0
C3299 C 0.23248 0.12258 0.99235 0.0
C3300 C 0.22513 0.10323 0.98207 0.0
C3301 C 0.21222 0.10485 0.96318 0.0
C3302 C 0.23271 0.16426 0.99512 0.0
C3303 C 0.23163 0.08092 0.99046 0.0
C3304 C 0.28845 0.12266 0.01896 0.0
C3305 C 0.28277 0.12505 0.0409 0.0
C3306 C 0.27212 0.12111 0.00291 0.0
C3307 C 0.24978 0.12167 0.00925 0.0
C3308 C 0.24413 0.12311 0.0316 0.0
C3309 C 0.26077 0.12503 0.04717 0.0
C3310 C 0.27874 0.11969 0.97918 0.0
C3311 C 0.22059 0.123 0.0391 0.0
H3312 H 0.20272 0.15962 0.96331 0.0
H3313 H 0.20905 0.09017 0.95392 0.0
H3314 H 0.22877 0.16512 0.01277 0.0
H3315 H 0.25081 0.16499 0.9936 0.0
H3316 H 0.22567 0.17887 0.98691 0.0
H3317 H 0.2221 0.06763 0.98251 0.0
H3318 H 0.24926 0.078 0.98741 0.0
H3319 H 0.22904 0.08 0.0084 0.0
H3320 H 0.30559 0.12238 0.0144 0.0
H3321 H 0.25662 0.12655 0.06434 0.0
H3322 H 0.27207 0.13392 0.97009 0.0
H3323 H 0.27181 0.10474 0.97161 0.0
H3324 H 0.2968 0.11934 0.97708 0.0
H3325 H 0.21298 0.13907 0.03557 0.0
H3326 H 0.2192 0.11991 0.05694 0.0
H3327 H 0.21106 0.11036 0.03021 0.0
C3328 C 0.35559 0.53154 0.27939 0.0
C3329 C 0.3762 0.53824 0.2871 0.0
C3330 C 0.35366 0.51861 0.26057 0.0
C3331 C 0.37281 0.51022 0.25075 0.0
C3332 C 0.3936 0.51716 0.25816 0.0
C3333 C 0.39488 0.53233 0.2752 0.0
C3334 C 0.33113 0.51329 0.25191 0.0
C3335 C 0.41451 0.50765 0.24901 0.0
C3336 C 0.37056 0.45533 0.22214 0.0
C3337 C 0.37403 0.46173 0.20054 0.0
C3338 C 0.36931 0.47111 0.23874 0.0
C3339 C 0.37138 0.49358 0.23328 0.0
C3340 C 0.37386 0.5 0.21124 0.0
C3341 C 0.37527 0.48392 0.19511 0.0
C3342 C 0.3666 0.46373 0.26213 0.0
C3343 C 0.37512 0.52379 0.2047 0.0
H3344 H 0.34089 0.53552 0.28829 0.0
H3345 H 0.41078 0.53834 0.28019 0.0
H3346 H 0.33115 0.51186 0.23382 0.0
H3347 H 0.32554 0.49748 0.2588 0.0
H3348 H 0.31908 0.52603 0.25668 0.0
H3349 H 0.42915 0.51281 0.25848 0.0
H3350 H 0.4137 0.4895 0.24917 0.0
H3351 H 0.4167 0.51283 0.2318 0.0
H3352 H 0.36929 0.43808 0.22603 0.0
H3353 H 0.37753 0.48865 0.17817 0.0
H3354 H 0.35153 0.47092 0.26918 0.0
H3355 H 0.38061 0.46959 0.2721 0.0
H3356 H 0.36554 0.44564 0.26358 0.0
H3357 H 0.36057 0.53266 0.21096 0.0
H3358 H 0.37599 0.52595 0.18669 0.0
H3359 H 0.38975 0.53157 0.21209 0.0
C3360 C 0.77768 0.34573 0.96597 0.0
C3361 C 0.78511 0.36443 0.95501 0.0
C3362 C 0.76324 0.34747 0.98359 0.0
C3363 C 0.75823 0.36839 0.99204 0.0
C3364 C 0.76808 0.38721 0.98299 0.0
C3365 C 0.78057 0.38511 0.96395 0.0
C3366 C 0.75224 0.32705 0.99215 0.0
C3367 C 0.76473 0.40959 0.9929 0.0
C3368 C 0.70351 0.37348 0.02037 0.0
C3369 C 0.7095 0.36887 0.04187 0.0
C3370 C 0.71946 0.37425 0.00394 0.0
C3371 C 0.74171 0.3705 0.00949 0.0
C3372 C 0.74781 0.36697 0.03148 0.0
C3373 C 0.73154 0.36605 0.04743 0.0
C3374 C 0.71244 0.37815 0.98058 0.0
C3375 C 0.77138 0.3636 0.03814 0.0
H3376 H 0.78199 0.32967 0.95993 0.0
H3377 H 0.78579 0.39982 0.95575 0.0
H3378 H 0.75628 0.32461 0.00964 0.0
H3379 H 0.7342 0.32884 0.99095 0.0
H3380 H 0.75714 0.31217 0.98296 0.0
H3381 H 0.77564 0.42207 0.98545 0.0
H3382 H 0.74753 0.41488 0.99064 0.0
H3383 H 0.76793 0.40904 0.01076 0.0
H3384 H 0.6864 0.37599 0.0164 0.0
H3385 H 0.73597 0.36291 0.06432 0.0
H3386 H 0.7165 0.36361 0.97051 0.0
H3387 H 0.72142 0.39225 0.97358 0.0
H3388 H 0.69461 0.38142 0.97918 0.0
H3389 H 0.77687 0.34711 0.03297 0.0
H3390 H 0.77363 0.3649 0.05611 0.0
H3391 H 0.78213 0.37575 0.03001 0.0
C3392 C 0.63651 0.02887 0.21222 0.0
C3393 C 0.61572 0.03467 0.20433 0.0
C3394 C 0.63885 0.0162 0.23116 0.0
C3395 C 0.61996 0.00765 0.24137 0.0
C3396 C 0.59896 0.01393 0.23393 0.0
C3397 C 0.59718 0.02822 0.21615 0.0
C3398 C 0.66155 0.01112 0.2395 0.0
C3399 C 0.57836 0.00461 0.24393 0.0
C3400 C 0.62322 0.9529 0.27025 0.0
C3401 C 0.62079 0.95935 0.29198 0.0
C3402 C 0.62379 0.96861 0.25354 0.0
C3403 C 0.62198 0.99112 0.25895 0.0
C3404 C 0.62053 -0.00238 0.28107 0.0
C3405 C 0.61991 0.98159 0.29735 0.0
C3406 C 0.62539 0.96113 0.23008 0.0
C3407 C 0.61928 0.02144 0.28751 0.0
H3408 H 0.65105 0.03327 0.20321 0.0
H3409 H 0.5811 0.03334 0.21073 0.0
H3410 H 0.662 0.01109 0.25764 0.0
H3411 H 0.66656 0.99466 0.2338 0.0
H3412 H 0.67374 0.02317 0.23343 0.0
H3413 H 0.56336 0.01006 0.23522 0.0
H3414 H 0.57894 0.98646 0.24353 0.0
H3415 H 0.57707 0.00958 0.2613 0.0
H3416 H 0.624 0.93562 0.26634 0.0
H3417 H 0.61825 0.98638 0.31434 0.0
H3418 H 0.63982 0.96869 0.22212 0.0
H3419 H 0.61068 0.96655 0.22089 0.0
H3420 H 0.62682 0.94307 0.22868 0.0
H3421 H 0.63371 0.03032 0.281 0.0
H3422 H 0.61869 0.02368 0.30552 0.0
H3423 H 0.60453 0.02912 0.28027 0.0
C3424 C 0.28976 0.87283 0.4723 0.0
C3425 C 0.28311 0.87342 0.4505 0.0
C3426 C 0.27436 0.87528 0.48908 0.0
C3427 C 0.25199 0.87835 0.48364 0.0
C3428 C 0.24554 0.88019 0.46153 0.0
C3429 C 0.26124 0.87759 0.44516 0.0
C3430 C 0.2818 0.87336 0.51254 0.0
C3431 C 0.22199 0.88412 0.45517 0.0
C3432 C 0.21097 0.85538 0.52356 0.0
C3433 C 0.20777 0.87323 0.53754 0.0
C3434 C 0.2254 0.85683 0.50591 0.0
C3435 C 0.23516 0.87722 0.50093 0.0
C3436 C 0.22981 0.89597 0.51333 0.0
C3437 C 0.21684 0.89358 0.53204 0.0
C3438 C 0.2314 0.83624 0.49363 0.0
C3439 C 0.23872 0.9183 0.50767 0.0
H3440 H 0.30681 0.86975 0.47616 0.0
H3441 H 0.25638 0.8782 0.42811 0.0
H3442 H 0.27595 0.88754 0.52219 0.0
H3443 H 0.27463 0.85842 0.51996 0.0
H3444 H 0.2999 0.87247 0.51399 0.0
H3445 H 0.22011 0.88731 0.43738 0.0
H3446 H 0.21195 0.86962 0.45944 0.0
H3447 H 0.2153 0.89824 0.46439 0.0
H3448 H 0.20345 0.83979 0.5274 0.0
H3449 H 0.21486 0.90746 0.54281 0.0
H3450 H 0.24929 0.83335 0.4949 0.0
H3451 H 0.22744 0.83804 0.47604 0.0
H3452 H 0.22276 0.82158 0.50003 0.0
H3453 H 0.25557 0.91992 0.5142 0.0
H3454 H 0.22858 0.93152 0.51493 0.0
H3455 H 0.23942 0.92072 0.48971 0.0
C3456 C 0.1006 0.46522 0.77637 0.0
C3457 C 0.1186 0.45955 0.78936 0.0
C3458 C 0.1027 0.48032 0.75936 0.0
C3459 C 0.12367 0.48855 0.75409 0.0
C3460 C 0.14228 0.48127 0.76578 0.0
C3461 C 0.13944 0.46733 0.78376 0.0
C3462 C 0.08234 0.48818 0.7477 0.0
C3463 C 0.16502 0.48891 0.75991 0.0
C3464 C 0.12538 0.51352 0.69783 0.0
C3465 C 0.12308 0.53575 0.70268 0.0
C3466 C 0.12684 0.498 0.71451 0.0
C3467 C 0.1258 0.505 0.7365 0.0
C3468 C 0.12447 0.52764 0.74147 0.0
C3469 C 0.12308 0.54286 0.72435 0.0
C3470 C 0.12865 0.47408 0.70858 0.0
C3471 C 0.12323 0.53567 0.76476 0.0
H3472 H 0.08457 0.45876 0.78032 0.0
H3473 H 0.15342 0.46344 0.79389 0.0
H3474 H 0.08148 0.50631 0.74823 0.0
H3475 H 0.08291 0.48329 0.73026 0.0
H3476 H 0.06714 0.48148 0.75507 0.0
H3477 H 0.17785 0.47903 0.76817 0.0
H3478 H 0.16761 0.488 0.74198 0.0
H3479 H 0.16709 0.50624 0.76485 0.0
H3480 H 0.12549 0.50827 0.68089 0.0
H3481 H 0.1214 0.56016 0.72785 0.0
H3482 H 0.11312 0.4656 0.7126 0.0
H3483 H 0.14184 0.46616 0.71822 0.0
H3484 H 0.13203 0.47166 0.69091 0.0
H3485 H 0.10706 0.53127 0.77173 0.0
H3486 H 0.1253 0.5537 0.76588 0.0
H3487 H 0.13592 0.52773 0.775 0.0
C3488 C 0.71969 0.60403 0.45878 0.0
C3489 C 0.71261 0.62484 0.45211 0.0
C3490 C 0.73347 0.60155 0.47694 0.0
C3491 C 0.74164 0.6204 0.48753 0.0
C3492 C 0.73432 0.64138 0.48111 0.0
C3493 C 0.71907 0.64322 0.46417 0.0
C3494 C 0.73959 0.57884 0.48453 0.0
C3495 C 0.74337 0.66198 0.49139 0.0
C3496 C 0.76764 0.6217 0.5433 0.0
C3497 C 0.78986 0.62251 0.5379 0.0
C3498 C 0.7517 0.61959 0.52708 0.0
C3499 C 0.75828 0.61854 0.50497 0.0
C3500 C 0.78085 0.61831 0.49953 0.0
C3501 C 0.7965 0.62023 0.51622 0.0
C3502 C 0.72786 0.61936 0.53357 0.0
C3503 C 0.78839 0.61708 0.47607 0.0
H3504 H 0.71524 0.58968 0.44949 0.0
H3505 H 0.7131 0.65926 0.45959 0.0
H3506 H 0.75746 0.57627 0.4829 0.0
H3507 H 0.73551 0.57694 0.50211 0.0
H3508 H 0.73094 0.56589 0.47515 0.0
H3509 H 0.73691 0.67704 0.48354 0.0
H3510 H 0.73928 0.66247 0.50903 0.0
H3511 H 0.76149 0.66211 0.49004 0.0
H3512 H 0.76275 0.62311 0.56029 0.0
H3513 H 0.8138 0.62051 0.51234 0.0
H3514 H 0.71898 0.60618 0.52479 0.0
H3515 H 0.72013 0.63511 0.52898 0.0
H3516 H 0.7257 0.61697 0.55144 0.0
H3517 H 0.78165 0.60225 0.4681 0.0
H3518 H 0.80651 0.61667 0.47469 0.0
H3519 H 0.78216 0.63145 0.46688 0.0
C3520 C 0.89119 0.03354 0.77267 0.0
C3521 C 0.87541 0.03382 0.78915 0.0
C3522 C 0.88947 0.0188 0.75526 0.0
C3523 C 0.87165 0.00399 0.75466 0.0
C3524 C 0.85519 0.00488 0.77084 0.0
C3525 C 0.85729 0.01986 0.78797 0.0
C3526 C 0.90719 0.01841 0.73807 0.0
C3527 C 0.83612 0.98916 0.77081 0.0
C3528 C 0.86215 0.97652 0.70039 0.0
C3529 C 0.87443 0.95739 0.70294 0.0
C3530 C 0.86035 0.99154 0.71747 0.0
C3531 C 0.87088 0.98702 0.73754 0.0
C3532 C 0.88225 0.96703 0.74057 0.0
C3533 C 0.88415 0.95247 0.72299 0.0
C3534 C 0.84831 0.01277 0.71362 0.0
C3535 C 0.89327 0.96156 0.76199 0.0
H3536 H 0.9053 0.04423 0.77392 0.0
H3537 H 0.84546 0.01971 0.80116 0.0
H3538 H 0.91607 0.0026 0.73878 0.0
H3539 H 0.89986 0.01977 0.72152 0.0
H3540 H 0.91922 0.03187 0.74026 0.0
H3541 H 0.82361 0.99356 0.78322 0.0
H3542 H 0.82821 0.98871 0.75449 0.0
H3543 H 0.84213 0.97241 0.77438 0.0
H3544 H 0.85489 0.9802 0.68462 0.0
H3545 H 0.8937 0.93761 0.72468 0.0
H3546 H 0.86011 0.02657 0.71398 0.0
H3547 H 0.83621 0.01567 0.7268 0.0
H3548 H 0.83966 0.01297 0.69764 0.0
H3549 H 0.90763 0.97242 0.76439 0.0
H3550 H 0.89896 0.9443 0.76254 0.0
H3551 H 0.88194 0.9644 0.77585 0.0
C3552 C 0.97385 0.20084 0.12429 0.0
C3553 C 0.95228 0.20665 0.11959 0.0
C3554 C 0.9906 0.21647 0.12287 0.0
C3555 C 0.98536 0.23827 0.11688 0.0
C3556 C 0.9636 0.24393 0.1115 0.0
C3557 C 0.94727 0.22798 0.11294 0.0
C3558 C 0.01374 0.20987 0.12849 0.0
C3559 C 0.95747 0.26691 0.10483 0.0
C3560 C 0.02446 0.28082 0.13882 0.0
C3561 C 0.03914 0.28285 0.12139 0.0
C3562 C 0.00637 0.26685 0.13733 0.0
C3563 C 0.00249 0.25537 0.11761 0.0
C3564 C 0.01608 0.259 0.09928 0.0
C3565 C 0.03453 0.2724 0.10153 0.0
C3566 C 0.99228 0.26325 0.15729 0.0
C3567 C 0.01206 0.24761 0.07775 0.0
H3568 H 0.97748 0.18427 0.12946 0.0
H3569 H 0.9304 0.23228 0.10944 0.0
H3570 H 0.02495 0.2142 0.11491 0.0
H3571 H 0.01931 0.21898 0.14317 0.0
H3572 H 0.01522 0.19206 0.13178 0.0
H3573 H 0.93995 0.26828 0.10013 0.0
H3574 H 0.96068 0.27836 0.11853 0.0
H3575 H 0.96769 0.27227 0.09085 0.0
H3576 H 0.02784 0.28922 0.15406 0.0
H3577 H 0.04598 0.27355 0.08809 0.0
H3578 H 0.99401 0.24608 0.16292 0.0
H3579 H 0.97478 0.26587 0.15324 0.0
H3580 H -0.00317 0.27429 0.17099 0.0
H3581 H 0.01765 0.23039 0.07893 0.0
H3582 H 0.02108 0.25561 0.06415 0.0
H3583 H 0.99437 0.24739 0.07367 0.0
C3584 C 0.97494 0.79072 0.37192 0.0
C3585 C 0.95308 0.78548 0.37583 0.0
C3586 C 0.99107 0.77444 0.37291 0.0
C3587 C 0.9849 0.75258 0.37774 0.0
C3588 C 0.96286 0.7475 0.38246 0.0
C3589 C 0.94716 0.76406 0.38136 0.0
C3590 C 0.01451 0.78042 0.36792 0.0
C3591 C 0.95578 0.72453 0.38815 0.0
C3592 C 0.02147 0.70825 0.35498 0.0
C3593 C 0.03664 0.70581 0.37197 0.0
C3594 C 0.0044 0.72344 0.35664 0.0
C3595 C 0.00133 0.73487 0.37652 0.0
C3596 C 0.01491 0.73036 0.39466 0.0
C3597 C 0.03292 0.71649 0.39193 0.0
C3598 C 0.99073 0.72843 0.33666 0.0
C3599 C 0.0113 0.74115 0.41656 0.0
H3600 H 0.97926 0.80737 0.36758 0.0
H3601 H 0.93008 0.7602 0.38424 0.0
H3602 H 0.0254 0.77503 0.38139 0.0
H3603 H 0.01988 0.77184 0.35287 0.0
H3604 H 0.01669 0.79831 0.36555 0.0
H3605 H 0.93822 0.72368 0.39277 0.0
H3606 H 0.95849 0.71354 0.37399 0.0
H3607 H 0.96579 0.71816 0.4019 0.0
H3608 H 0.02401 0.69956 0.33975 0.0
H3609 H 0.04461 0.71504 0.40513 0.0
H3610 H 0.99286 0.74586 0.33203 0.0
H3611 H 0.97312 0.72594 0.34023 0.0
H3612 H 0.99528 0.71809 0.32244 0.0
H3613 H 0.01762 0.75815 0.41607 0.0
H3614 H 0.01991 0.73228 0.4299 0.0
H3615 H 0.99361 0.74194 0.42056 0.0
C3616 C 0.03908 0.76943 0.87219 0.0
C3617 C 0.0324 0.79123 0.87108 0.0
C3618 C 0.02353 0.75253 0.87126 0.0
C3619 C 0.00102 0.75784 0.86913 0.0
C3620 C 0.99446 0.77992 0.86716 0.0
C3621 C 0.01028 0.79637 0.8682 0.0
C3622 C 0.03107 0.7291 0.87335 0.0
C3623 C 0.97069 0.78622 0.8647 0.0
C3624 C 0.96418 0.71046 0.85383 0.0
C3625 C 0.95558 0.70468 0.87427 0.0
C3626 C 0.97795 0.72867 0.85163 0.0
C3627 C 0.98421 0.74046 0.87051 0.0
C3628 C 0.97486 0.73524 0.89101 0.0
C3629 C 0.9599 0.71796 0.89241 0.0
C3630 C 0.98657 0.73463 0.8293 0.0
C3631 C 0.9818 0.74685 0.9117 0.0
H3632 H 0.05628 0.76569 0.8744 0.0
H3633 H 0.00534 0.81339 0.86735 0.0
H3634 H 0.02314 0.72131 0.88768 0.0
H3635 H 0.0261 0.71968 0.85867 0.0
H3636 H 0.04911 0.7278 0.87524 0.0
H3637 H 0.96862 0.8039 0.86105 0.0
H3638 H 0.96292 0.77655 0.85144 0.0
H3639 H 0.96177 0.78249 0.88003 0.0
H3640 H 0.96117 0.7002 0.83974 0.0
H3641 H 0.95295 0.71369 0.90814 0.0
H3642 H 0.00408 0.73004 0.82811 0.0
H3643 H 0.98543 0.75255 0.8266 0.0
H3644 H 0.97748 0.72615 0.81604 0.0
H3645 H -0.00041 0.74431 0.91442 0.0
H3646 H 0.97284 0.74084 0.9263 0.0
H3647 H 0.9791 0.76471 0.91016 0.0
C3648 C 0.46206 0.21742 0.39231 0.0
C3649 C 0.4584 0.20304 0.37491 0.0
C3650 C 0.47727 0.23439 0.39047 0.0
C3651 C 0.48827 0.23758 0.37039 0.0
C3652 C 0.48347 0.22408 0.35224 0.0
C3653 C 0.46883 0.20664 0.35484 0.0
C3654 C 0.48225 0.24828 0.4103 0.0
C3655 C 0.49452 0.22741 0.33043 0.0
C3656 C 0.51342 0.29354 0.36564 0.0
C3657 C 0.53492 0.28935 0.37225 0.0
C3658 C 0.49827 0.27656 0.36379 0.0
C3659 C 0.50493 0.25499 0.36871 0.0
C3660 C 0.52702 0.25055 0.37432 0.0
C3661 C 0.54185 0.26797 0.37617 0.0
C3662 C 0.47493 0.28186 0.35762 0.0
C3663 C 0.53467 0.22765 0.37951 0.0
H3664 H 0.45384 0.21465 0.40776 0.0
H3665 H 0.4665 0.19525 0.34151 0.0
H3666 H 0.49989 0.24701 0.41446 0.0
H3667 H 0.47879 0.26572 0.40671 0.0
H3668 H 0.47255 0.2433 0.42482 0.0
H3669 H 0.48684 0.21743 0.31732 0.0
H3670 H 0.49392 0.24489 0.32557 0.0
H3671 H 0.51201 0.22274 0.33173 0.0
H3672 H 0.50832 0.31027 0.36261 0.0
H3673 H 0.55861 0.26499 0.3812 0.0
H3674 H 0.46412 0.27923 0.37193 0.0
H3675 H 0.46921 0.27081 0.34441 0.0
H3676 H 0.47304 0.29907 0.35209 0.0
H3677 H 0.5277 0.22245 0.39543 0.0
H3678 H 0.55279 0.22658 0.38052 0.0
H3679 H 0.52881 0.21594 0.36695 0.0
C3680 C 0.4488 0.72813 0.61415 0.0
C3681 C 0.45405 0.70686 0.62078 0.0
C3682 C 0.46472 0.74452 0.61369 0.0
C3683 C 0.48635 0.73936 0.62002 0.0
C3684 C 0.49186 0.71768 0.62621 0.0
C3685 C 0.47549 0.7016 0.62663 0.0
C3686 C 0.45828 0.76741 0.60702 0.0
C3687 C 0.51483 0.71169 0.63307 0.0
C3688 C 0.53452 0.77479 0.60459 0.0
C3689 C 0.53843 0.78595 0.62421 0.0
C3690 C 0.51677 0.76047 0.60256 0.0
C3691 C 0.50313 0.75677 0.62083 0.0
C3692 C 0.50635 0.7688 0.64034 0.0
C3693 C 0.52379 0.78361 0.64163 0.0
C3694 C 0.51347 0.74829 0.58134 0.0
C3695 C 0.49214 0.76516 0.66021 0.0
H3696 H 0.432 0.73208 0.60998 0.0
H3697 H 0.47927 0.68512 0.63198 0.0
H3698 H 0.46061 0.77877 0.62097 0.0
H3699 H 0.46893 0.77322 0.59354 0.0
H3700 H 0.44094 0.7684 0.60161 0.0
H3701 H 0.51658 0.69393 0.63651 0.0
H3702 H 0.52664 0.71628 0.6201 0.0
H3703 H 0.51938 0.72097 0.648 0.0
H3704 H 0.54606 0.77611 0.59125 0.0
H3705 H 0.52682 0.79237 0.65675 0.0
H3706 H 0.4961 0.74918 0.57613 0.0
H3707 H 0.51754 0.73076 0.58371 0.0
H3708 H 0.5239 0.75488 0.56801 0.0
H3709 H 0.47487 0.7691 0.65628 0.0
H3710 H 0.49736 0.7753 0.67435 0.0
H3711 H 0.4927 0.74769 0.66512 0.0
C3712 C 0.97984 0.29491 0.6256 0.0
C3713 C 0.95811 0.28919 0.62116 0.0
C3714 C 0.996 0.27887 0.62753 0.0
C3715 C 0.99015 0.25667 0.62484 0.0
C3716 C 0.96793 0.25079 0.62142 0.0
C3717 C 0.95207 0.26726 0.61956 0.0
C3718 C 0.01941 0.28577 0.63139 0.0
C3719 C 0.96113 0.22718 0.61877 0.0
C3720 C 0.03056 0.21698 0.60046 0.0
C3721 C 0.03495 0.20341 0.61835 0.0
C3722 C 0.01651 0.23491 0.60254 0.0
C3723 C 0.00738 0.23978 0.62322 0.0
C3724 C 0.01344 0.22739 0.64177 0.0
C3725 C 0.02694 0.20907 0.63906 0.0
C3726 C 0.01021 0.24764 0.58231 0.0
C3727 C 0.00473 0.23277 0.66422 0.0
H3728 H 0.98424 0.31205 0.62691 0.0
H3729 H 0.93513 0.26308 0.6163 0.0
H3730 H 0.02706 0.27555 0.64428 0.0
H3731 H 0.029 0.28339 0.6162 0.0
H3732 H 0.02066 0.30324 0.63625 0.0
H3733 H 0.9431 0.22533 0.61726 0.0
H3734 H 0.96893 0.22021 0.60395 0.0
H3735 H 0.9668 0.2174 0.63296 0.0
H3736 H 0.03703 0.21272 0.58453 0.0
H3737 H 0.03003 0.19848 0.6529 0.0
H3738 H 0.01315 0.26536 0.58483 0.0
H3739 H 0.99246 0.24551 0.57906 0.0
H3740 H 0.01942 0.24225 0.56763 0.0
H3741 H 0.00845 0.25005 0.66834 0.0
H3742 H 0.01181 0.22206 0.67709 0.0
H3743 H 0.98667 0.23096 0.66444 0.0
C3744 C 0.63953 0.46848 0.70699 0.0
C3745 C 0.62201 0.45382 0.7053 0.0
C3746 C 0.63821 0.48678 0.72069 0.0
C3747 C 0.61871 0.49064 0.73255 0.0
C3748 C 0.60031 0.47696 0.72938 0.0
C3749 C 0.60227 0.45852 0.71593 0.0
C3750 C 0.65819 0.50102 0.72371 0.0
C3751 C 0.57908 0.48095 0.74131 0.0
C3752 C 0.62691 0.51903 0.78697 0.0
C3753 C 0.62178 0.54057 0.78148 0.0
C3754 C 0.62514 0.50238 0.7713 0.0
C3755 C 0.61834 0.50768 0.74975 0.0
C3756 C 0.61247 0.52941 0.74446 0.0
C3757 C 0.61427 0.54564 0.76047 0.0
C3758 C 0.63131 0.47928 0.77754 0.0
C3759 C 0.60526 0.53572 0.72171 0.0
H3760 H 0.65474 0.46485 0.69862 0.0
H3761 H 0.58879 0.44706 0.71494 0.0
H3762 H 0.65385 0.51854 0.72186 0.0
H3763 H 0.66472 0.4988 0.7405 0.0
H3764 H 0.67135 0.49698 0.71187 0.0
H3765 H 0.56567 0.47029 0.73521 0.0
H3766 H 0.58139 0.47774 0.75901 0.0
H3767 H 0.57399 0.49829 0.73956 0.0
H3768 H 0.63282 0.51536 0.80328 0.0
H3769 H 0.61053 0.56251 0.7564 0.0
H3770 H 0.64577 0.474 0.76792 0.0
H3771 H 0.61773 0.4679 0.77358 0.0
H3772 H 0.63525 0.47773 0.7952 0.0
H3773 H 0.61939 0.53464 0.7104 0.0
H3774 H 0.59868 0.55265 0.72107 0.0
H3775 H 0.59254 0.52428 0.71563 0.0
C3776 C 0.71531 0.10103 0.5258 0.0
C3777 C 0.70217 0.11895 0.53126 0.0
C3778 C 0.73289 0.10337 0.5114 0.0
C3779 C 0.73815 0.1244 0.50329 0.0
C3780 C 0.72603 0.14286 0.51014 0.0
C3781 C 0.70782 0.13985 0.52369 0.0
C3782 C 0.74522 0.08322 0.50413 0.0
C3783 C 0.73167 0.16563 0.50239 0.0
C3784 C 0.79509 0.1272 0.4801 0.0
C3785 C 0.79096 0.12405 0.45783 0.0
C3786 C 0.7779 0.12859 0.49503 0.0
C3787 C 0.75616 0.12676 0.48737 0.0
C3788 C 0.75189 0.12482 0.46466 0.0
C3789 C 0.76951 0.12341 0.45004 0.0
C3790 C 0.78306 0.13094 0.51906 0.0
C3791 C 0.72885 0.1229 0.45595 0.0
H3792 H 0.71109 0.08492 0.53191 0.0
H3793 H 0.69747 0.15371 0.52742 0.0
H3794 H 0.74459 0.08181 0.48605 0.0
H3795 H 0.76269 0.08457 0.50886 0.0
H3796 H 0.73842 0.06798 0.51132 0.0
H3797 H 0.72275 0.1784 0.51173 0.0
H3798 H 0.74951 0.16866 0.50395 0.0
H3799 H 0.72736 0.1673 0.48486 0.0
H3800 H 0.81188 0.1278 0.48587 0.0
H3801 H 0.76657 0.12108 0.43271 0.0
H3802 H 0.77897 0.11551 0.52769 0.0
H3803 H 0.77298 0.14411 0.52642 0.0
H3804 H 0.80062 0.13466 0.522 0.0
H3805 H 0.72199 0.10676 0.46061 0.0
H3806 H 0.72824 0.12443 0.43786 0.0
H3807 H 0.71818 0.13564 0.4632 0.0
C3808 C 0.38488 0.95335 0.7698 0.0
C3809 C 0.36823 0.95411 0.78552 0.0
C3810 C 0.38696 0.96987 0.75417 0.0
C3811 C 0.37163 0.98713 0.75399 0.0
C3812 C 0.35506 0.98825 0.77013 0.0
C3813 C 0.35374 0.97177 0.78596 0.0
C3814 C 0.40512 0.96849 0.73749 0.0
C3815 C 0.33827 0.00638 0.77015 0.0
C3816 C 0.38391 0.04041 0.7258 0.0
C3817 C 0.37161 0.03832 0.70661 0.0
C3818 C 0.38475 0.02345 0.74101 0.0
C3819 C 0.37283 0.0041 0.7369 0.0
C3820 C 0.36108 0.00153 0.71707 0.0
C3821 C 0.3606 0.01883 0.70204 0.0
C3822 C 0.39753 0.02669 0.76192 0.0
C3823 C 0.34837 0.98091 0.7122 0.0
H3824 H 0.39575 0.93937 0.76913 0.0
H3825 H 0.34079 0.97209 0.79805 0.0
H3826 H 0.39807 0.96678 0.72087 0.0
H3827 H 0.41491 0.98377 0.73765 0.0
H3828 H 0.41625 0.95444 0.74055 0.0
H3829 H 0.32672 0.00505 0.78409 0.0
H3830 H 0.3465 0.02253 0.77093 0.0
H3831 H 0.32874 0.00591 0.7547 0.0
H3832 H 0.39209 0.05574 0.72937 0.0
H3833 H 0.35103 0.01749 0.68716 0.0
H3834 H 0.40879 0.01272 0.76466 0.0
H3835 H 0.38611 0.02727 0.77599 0.0
H3836 H 0.40725 0.04205 0.76175 0.0
H3837 H 0.35946 0.96656 0.71257 0.0
H3838 H 0.34018 0.98152 0.69598 0.0
H3839 H 0.33574 0.97828 0.72496 0.0
C3840 C 0.2956 0.36194 0.51109 0.0
C3841 C 0.29113 0.36938 0.53223 0.0
C3842 C 0.27884 0.35973 0.49572 0.0
C3843 C 0.25722 0.36524 0.50177 0.0
C3844 C 0.25253 0.37194 0.52347 0.0
C3845 C 0.26971 0.37401 0.53853 0.0
C3846 C 0.28442 0.35242 0.47282 0.0
C3847 C 0.22957 0.37774 0.53047 0.0
C3848 C 0.21881 0.38676 0.45852 0.0
C3849 C 0.20368 0.36965 0.45698 0.0
C3850 C 0.23656 0.38541 0.47288 0.0
C3851 C 0.23986 0.36596 0.48498 0.0
C3852 C 0.22583 0.34783 0.4819 0.0
C3853 C 0.20756 0.35006 0.46825 0.0
C3854 C 0.2509 0.40528 0.47619 0.0
C3855 C 0.22957 0.32649 0.49376 0.0
H3856 H 0.31237 0.35844 0.50646 0.0
H3857 H 0.26652 0.37971 0.55501 0.0
H3858 H 0.27294 0.33949 0.46729 0.0
H3859 H 0.28271 0.36642 0.4614 0.0
H3860 H 0.30142 0.3461 0.47163 0.0
H3861 H 0.22862 0.38193 0.54811 0.0
H3862 H 0.2236 0.39191 0.52081 0.0
H3863 H 0.21833 0.36387 0.5272 0.0
H3864 H 0.21589 0.40179 0.44956 0.0
H3865 H 0.19578 0.33686 0.46736 0.0
H3866 H 0.26829 0.40108 0.47323 0.0
H3867 H 0.24959 0.41096 0.49337 0.0
H3868 H 0.24628 0.41903 0.46523 0.0
H3869 H 0.24648 0.3206 0.49079 0.0
H3870 H 0.21788 0.31358 0.48853 0.0
H3871 H 0.22783 0.32897 0.51164 0.0
C3872 C 0.52238 0.20496 0.88472 0.0
C3873 C 0.54073 0.20862 0.87158 0.0
C3874 C 0.50602 0.22098 0.88657 0.0
C3875 C 0.50767 0.24042 0.87401 0.0
C3876 C 0.52635 0.24418 0.86093 0.0
C3877 C 0.54294 0.22854 0.86049 0.0
C3878 C 0.48693 0.21669 0.9016 0.0
C3879 C 0.52865 0.26439 0.84686 0.0
C3880 C 0.45393 0.26482 0.85611 0.0
C3881 C 0.45393 0.28498 0.86698 0.0
C3882 C 0.47153 0.25043 0.85798 0.0
C3883 C 0.48894 0.25563 0.87231 0.0
C3884 C 0.48888 0.27575 0.88381 0.0
C3885 C 0.47166 0.29057 0.88038 0.0
C3886 C 0.47124 0.22956 0.84473 0.0
C3887 C 0.50614 0.28107 0.90067 0.0
H3888 H 0.52091 0.18971 0.89364 0.0
H3889 H 0.55767 0.23185 0.85121 0.0
H3890 H 0.47928 0.23207 0.90747 0.0
H3891 H 0.47436 0.20702 0.89276 0.0
H3892 H 0.49217 0.20692 0.916 0.0
H3893 H 0.5427 0.2632 0.8354 0.0
H3894 H 0.51353 0.26715 0.83717 0.0
H3895 H 0.53119 0.27895 0.85736 0.0
H3896 H 0.43993 0.26003 0.84634 0.0
H3897 H 0.47162 0.30615 0.88883 0.0
H3898 H 0.46698 0.21562 0.85551 0.0
H3899 H 0.48755 0.22623 0.83749 0.0
H3900 H 0.45899 0.23021 0.83131 0.0
H3901 H 0.5033 0.27077 0.91535 0.0
H3902 H 0.50559 0.29852 0.90571 0.0
H3903 H 0.52279 0.27725 0.89466 0.0
C3904 C 0.54231 0.72035 0.12887 0.0
C3905 C 0.53664 0.70187 0.11663 0.0
C3906 C 0.52759 0.73784 0.13094 0.0
C3907 C 0.50759 0.7373 0.1192 0.0
C3908 C 0.5022 0.71893 0.10627 0.0
C3909 C 0.51634 0.70109 0.10599 0.0
C3910 C 0.53336 0.75673 0.14575 0.0
C3911 C 0.48188 0.71828 0.09215 0.0
C3912 C 0.45781 0.77284 0.12826 0.0
C3913 C 0.46296 0.79118 0.11557 0.0
C3914 C 0.47314 0.75604 0.13124 0.0
C3915 C 0.49283 0.7564 0.11905 0.0
C3916 C 0.49751 0.77427 0.10518 0.0
C3917 C 0.48311 0.79193 0.10464 0.0
C3918 C 0.46834 0.73819 0.14762 0.0
C3919 C 0.51758 0.77505 0.09075 0.0
H3920 H 0.55801 0.72092 0.13712 0.0
H3921 H 0.51144 0.68647 0.09729 0.0
H3922 H 0.53789 0.77118 0.13581 0.0
H3923 H 0.51906 0.76135 0.15594 0.0
H3924 H 0.54734 0.75278 0.15668 0.0
H3925 H 0.48172 0.70393 0.08099 0.0
H3926 H 0.46708 0.71745 0.10253 0.0
H3927 H 0.48071 0.73338 0.08214 0.0
H3928 H 0.44201 0.77174 0.13618 0.0
H3929 H 0.48775 0.80634 0.09546 0.0
H3930 H 0.48343 0.73334 0.15651 0.0
H3931 H 0.46192 0.72353 0.13912 0.0
H3932 H 0.45589 0.74348 0.15974 0.0
H3933 H 0.53132 0.78253 0.09993 0.0
H3934 H 0.51464 0.78532 0.07605 0.0
H3935 H 0.52269 0.75854 0.08522 0.0
C3936 C 0.1323 0.17125 0.36753 0.0
C3937 C 0.14499 0.16546 0.34938 0.0
C3938 C 0.13324 0.19247 0.37618 0.0
C3939 C 0.147 0.20827 0.36627 0.0
C3940 C 0.16072 0.20223 0.34873 0.0
C3941 C 0.15983 0.18079 0.34074 0.0
C3942 C 0.11866 0.1983 0.39522 0.0
C3943 C 0.17541 0.2187 0.33761 0.0
C3944 C 0.12792 0.26628 0.37638 0.0
C3945 C 0.14044 0.27172 0.39475 0.0
C3946 C 0.13082 0.24605 0.36593 0.0
C3947 C 0.1466 0.23117 0.37417 0.0
C3948 C 0.16044 0.23743 0.39159 0.0
C3949 C 0.15706 0.25761 0.40179 0.0
C3950 C 0.11601 0.24004 0.34708 0.0
C3951 C 0.17773 0.22222 0.40054 0.0
H3952 H 0.12083 0.15954 0.3743 0.0
H3953 H 0.16972 0.17657 0.32666 0.0
H3954 H 0.12844 0.20588 0.4085 0.0
H3955 H 0.10631 0.21052 0.38992 0.0
H3956 H 0.10995 0.18383 0.40191 0.0
H3957 H 0.18511 0.21132 0.32415 0.0
H3958 H 0.16542 0.23223 0.33076 0.0
H3959 H 0.18685 0.22603 0.34964 0.0
H3960 H 0.11495 0.27715 0.37107 0.0
H3961 H 0.1669 0.26202 0.41589 0.0
H3962 H 0.10401 0.22757 0.35256 0.0
H3963 H 0.12557 0.23275 0.33351 0.0
H3964 H 0.10686 0.2544 0.34073 0.0
H3965 H 0.16971 0.20875 0.40968 0.0
H3966 H 0.1892 0.23077 0.41176 0.0
H3967 H 0.1873 0.2147 0.38711 0.0
C3968 C 0.4215 0.59268 0.87427 0.0
C3969 C 0.41605 0.60349 0.89359 0.0
C3970 C 0.4433 0.59266 0.86689 0.0
C3971 C 0.45967 0.60352 0.87933 0.0
C3972 C 0.45419 0.61348 0.89942 0.0
C3973 C 0.4324 0.61338 0.90625 0.0
C3974 C 0.44869 0.58183 0.8454 0.0
C3975 C 0.4711 0.62503 0.91328 0.0
C3976 C 0.51898 0.59426 0.86319 0.0
C3977 C 0.52222 0.61176 0.84881 0.0
C3978 C 0.49882 0.59157 0.87388 0.0
C3979 C 0.48181 0.60685 0.87003 0.0
C3980 C 0.4856 0.62522 0.85647 0.0
C3981 C 0.50572 0.62731 0.84586 0.0
C3982 C 0.49538 0.57191 0.88839 0.0
C3983 C 0.4681 0.64221 0.85245 0.0
H3984 H 0.40876 0.58481 0.86477 0.0
H3985 H 0.42799 0.62135 0.92148 0.0
H3986 H 0.45385 0.59441 0.83339 0.0
H3987 H 0.46259 0.57034 0.84751 0.0
H3988 H 0.43453 0.57272 0.83854 0.0
H3989 H 0.46418 0.63113 0.92893 0.0
H3990 H 0.48488 0.61382 0.91702 0.0
H3991 H 0.47795 0.63914 0.90416 0.0
H3992 H 0.53172 0.58207 0.86512 0.0
H3993 H 0.50839 0.64086 0.83472 0.0
H3994 H 0.48342 0.56067 0.88062 0.0
H3995 H 0.48843 0.57695 0.90435 0.0
H3996 H 0.51083 0.56279 0.89135 0.0
H3997 H 0.45417 0.63466 0.84357 0.0
H3998 H 0.47424 0.65626 0.84269 0.0
H3999 H 0.46171 0.64852 0.8682 0.0
C4000 C 0.83804 0.31332 0.33799 0.0
C4001 C 0.85159 0.32832 0.34902 0.0
C4002 C 0.83799 0.29116 0.34352 0.0
C4003 C 0.85097 0.28402 0.36119 0.0
C4004 C 0.8641 0.29913 0.37293 0.0
C4005 C 0.8645 0.32113 0.36647 0.0
C4006 C 0.82443 0.27538 0.33014 0.0
C4007 C 0.87805 0.29196 0.39203 0.0
C4008 C 0.83631 0.23547 0.39554 0.0
C4009 C 0.85329 0.22108 0.39034 0.0
C4010 C 0.83428 0.25546 0.38477 0.0
C4011 C 0.84976 0.26109 0.36859 0.0
C4012 C 0.86565 0.24566 0.36175 0.0
C4013 C 0.86725 0.22565 0.37283 0.0
C4014 C 0.81685 0.27133 0.39216 0.0
C4015 C 0.88188 0.25092 0.34392 0.0
H4016 H 0.8285 0.31859 0.32399 0.0
H4017 H 0.87531 0.33258 0.37465 0.0
H4018 H 0.83424 0.26082 0.32556 0.0
H4019 H 0.81037 0.26952 0.33996 0.0
H4020 H 0.818 0.28302 0.31495 0.0
H4021 H 0.88707 0.30582 0.39959 0.0
H4022 H 0.86764 0.2842 0.4047 0.0
H4023 H 0.89009 0.27954 0.38657 0.0
H4024 H 0.82537 0.23161 0.40895 0.0
H4025 H 0.88039 0.2144 0.36892 0.0
H4026 H 0.80789 0.27808 0.37791 0.0
H4027 H 0.82466 0.28527 0.40078 0.0
H4028 H 0.80485 0.26359 0.40338 0.0
H4029 H 0.87326 0.2571 0.32919 0.0
H4030 H 0.89183 0.23644 0.33925 0.0
H4031 H 0.8931 0.26405 0.34952 0.0
C4032 C 0.48494 0.90759 0.84096 0.0
C4033 C 0.46988 0.89122 0.8464 0.0
C4034 C 0.50455 0.90994 0.85261 0.0
C4035 C 0.50938 0.89525 0.8698 0.0
C4036 C 0.49348 0.87973 0.87645 0.0
C4037 C 0.47382 0.8779 0.86462 0.0
C4038 C 0.52076 0.92716 0.84548 0.0
C4039 C 0.49774 0.86434 0.89529 0.0
C4040 C 0.56909 0.87931 0.87584 0.0
C4041 C 0.57579 0.89252 0.89325 0.0
C4042 C 0.5475 0.8802 0.86806 0.0
C4043 C 0.5321 0.89411 0.87844 0.0
C4044 C 0.53874 0.90728 0.89626 0.0
C4045 C 0.56064 0.90665 0.90315 0.0
C4046 C 0.54104 0.86591 0.84898 0.0
C4047 C 0.52277 0.92176 0.90831 0.0
H4048 H 0.4817 0.91814 0.82708 0.0
H4049 H 0.46219 0.8652 0.86884 0.0
H4050 H 0.52688 0.93646 0.8598 0.0
H4051 H 0.53505 0.91912 0.83771 0.0
H4052 H 0.51352 0.93887 0.83362 0.0
H4053 H 0.48338 0.85381 0.89894 0.0
H4054 H 0.51193 0.85368 0.8915 0.0
H4055 H 0.50197 0.87381 0.91017 0.0
H4056 H 0.58066 0.86802 0.86857 0.0
H4057 H 0.5656 0.91635 0.91715 0.0
H4058 H 0.53424 0.87615 0.83561 0.0
H4059 H 0.52803 0.85432 0.85406 0.0
H4060 H 0.55505 0.85638 0.84246 0.0
H4061 H 0.51942 0.93659 0.89842 0.0
H4062 H 0.52928 0.92703 0.92444 0.0
H4063 H 0.50695 0.91325 0.91093 0.0
C4064 C 0.15309 0.81295 0.15502 0.0
C4065 C 0.14351 0.82897 0.14157 0.0
C4066 C 0.15221 0.79078 0.14946 0.0
C4067 C 0.14229 0.78462 0.12955 0.0
C4068 C 0.13327 0.80076 0.11552 0.0
C4069 C 0.13363 0.82279 0.12192 0.0
C4070 C 0.16126 0.77398 0.16519 0.0
C4071 C 0.12274 0.79469 0.09402 0.0
C4072 C 0.1567 0.73322 0.09914 0.0
C4073 C 0.13765 0.7209 0.10192 0.0
C4074 C 0.15922 0.75334 0.10964 0.0
C4075 C 0.14199 0.7614 0.12276 0.0
C4076 C 0.12341 0.74817 0.12698 0.0
C4077 C 0.12151 0.72784 0.11652 0.0
C4078 C 0.17953 0.76672 0.10528 0.0
C4079 C 0.10494 0.75611 0.14131 0.0
H4080 H 0.16003 0.81759 0.17067 0.0
H4081 H 0.12579 0.83511 0.11186 0.0
H4082 H 0.14845 0.76183 0.16939 0.0
H4083 H 0.17489 0.76491 0.15741 0.0
H4084 H 0.16734 0.7815 0.18058 0.0
H4085 H 0.11695 0.80924 0.08481 0.0
H4086 H 0.13459 0.78562 0.08369 0.0
H4087 H 0.1086 0.78369 0.09695 0.0
H4088 H 0.1692 0.72754 0.08791 0.0
H4089 H 0.1068 0.71812 0.11853 0.0
H4090 H 0.18645 0.77308 0.12079 0.0
H4091 H 0.17522 0.78102 0.09497 0.0
H4092 H 0.19236 0.75708 0.09675 0.0
H4093 H 0.11134 0.7612 0.1575 0.0
H4094 H 0.0922 0.74338 0.14378 0.0
H4095 H 0.09714 0.77068 0.13377 0.0
C4096 C 0.97756 0.61708 0.12569 0.0
C4097 C 0.97291 0.60552 0.14488 0.0
C4098 C -0.00212 0.61458 0.11526 0.0
C4099 C 0.01365 0.6002 0.12436 0.0
C4100 C 0.00826 0.58731 0.14277 0.0
C4101 C 0.98797 0.59022 0.15286 0.0
C4102 C 0.00293 0.62827 0.09536 0.0
C4103 C 0.02448 0.57156 0.15274 0.0
C4104 C 0.06551 0.58545 0.09375 0.0
C4105 C 0.08037 0.60083 0.10216 0.0
C4106 C 0.04359 0.58525 0.10049 0.0
C4107 C 0.03658 0.60039 0.11647 0.0
C4108 C 0.05172 0.61534 0.1257 0.0
C4109 C 0.07341 0.6155 0.11829 0.0
C4110 C 0.02777 0.56952 0.08984 0.0
C4111 C 0.04483 0.63161 0.14296 0.0
H4112 H 0.96593 0.62902 0.11963 0.0
H4113 H 0.98419 0.58109 0.16758 0.0
H4114 H 0.01563 0.64057 0.09949 0.0
H4115 H 0.0096 0.61787 0.08208 0.0
H4116 H 0.98825 0.637 0.08913 0.0
H4117 H 0.01696 0.56121 0.16563 0.0
H4118 H 0.03149 0.56073 0.14 0.0
H4119 H 0.03822 0.58089 0.1601 0.0
H4120 H 0.07062 0.57449 0.08079 0.0
H4121 H 0.08476 0.62763 0.12454 0.0
H4122 H 0.01513 0.57882 0.08072 0.0
H4123 H 0.01916 0.55972 0.10243 0.0
H4124 H 0.03604 0.5582 0.0783 0.0
H4125 H 0.0321 0.64267 0.13625 0.0
H4126 H 0.05874 0.64171 0.14888 0.0
H4127 H 0.03754 0.62292 0.15711 0.0
C4128 C 0.83414 0.75824 0.09414 0.0
C4129 C 0.85261 0.77143 0.09711 0.0
C4130 C 0.83247 0.73797 0.10457 0.0
C4131 C 0.84994 0.73065 0.11784 0.0
C4132 C 0.86814 0.74446 0.12184 0.0
C4133 C 0.86922 0.76486 0.11141 0.0
C4134 C 0.81254 0.72393 0.1005 0.0
C4135 C 0.88702 0.73723 0.13604 0.0
C4136 C 0.84035 0.68156 0.15411 0.0
C4137 C 0.85061 0.66486 0.14215 0.0
C4138 C 0.84021 0.70313 0.14654 0.0
C4139 C 0.84983 0.70792 0.12613 0.0
C4140 C 0.85933 0.69097 0.11348 0.0
C4141 C 0.85995 0.66961 0.12185 0.0
C4142 C 0.83076 0.72091 0.16087 0.0
C4143 C 0.8694 0.69554 0.09142 0.0
H4144 H 0.82128 0.76355 0.08312 0.0
H4145 H 0.88359 0.77506 0.11343 0.0
H4146 H 0.81735 0.70907 0.09128 0.0
H4147 H 0.80539 0.71844 0.11623 0.0
H4148 H 0.79972 0.73273 0.09107 0.0
H4149 H 0.89819 0.751 0.14008 0.0
H4150 H 0.88102 0.72987 0.15148 0.0
H4151 H 0.89657 0.7245 0.12733 0.0
H4152 H 0.83374 0.67808 0.17018 0.0
H4153 H 0.86818 0.65676 0.11283 0.0
H4154 H 0.81808 0.73023 0.15183 0.0
H4155 H 0.84383 0.73266 0.16546 0.0
H4156 H 0.82339 0.7143 0.1761 0.0
H4157 H 0.85718 0.70344 0.08055 0.0
H4158 H 0.87546 0.68044 0.08336 0.0
H4159 H 0.88328 0.7071 0.09328 0.0
C4160 C 0.92508 0.90909 0.10256 0.0
C4161 C 0.91269 0.88993 0.10557 0.0
C4162 C 0.9468 0.91045 0.10986 0.0
C4163 C 0.9562 0.89239 0.1208 0.0
C4164 C 0.94349 0.87345 0.12487 0.0
C4165 C 0.92188 0.87246 0.11724 0.0
C4166 C 0.95999 0.93072 0.10479 0.0
C4167 C 0.95296 0.85391 0.13669 0.0
C4168 C 0.01698 0.88149 0.12645 0.0
C4169 C 0.02041 0.8876 0.14826 0.0
C4170 C 0.99644 0.88449 0.11655 0.0
C4171 C 0.97902 0.8934 0.12898 0.0
C4172 C 0.98289 0.90093 0.15046 0.0
C4173 C 0.00356 0.89798 0.1598 0.0
C4174 C 0.99305 0.87687 0.09332 0.0
C4175 C 0.96482 0.91076 0.16412 0.0
H4176 H 0.91832 0.92261 0.09328 0.0
H4177 H 0.91253 0.85756 0.11952 0.0
H4178 H 0.96856 0.93672 0.11961 0.0
H4179 H 0.97271 0.92669 0.09251 0.0
H4180 H 0.94967 0.94414 0.09816 0.0
H4181 H 0.94082 0.84055 0.13878 0.0
H4182 H 0.96714 0.84739 0.12745 0.0
H4183 H 0.95901 0.8589 0.15305 0.0
H4184 H 0.02984 0.87325 0.11751 0.0
H4185 H 0.00628 0.90307 0.17657 0.0
H4186 H 0.98357 0.88912 0.08387 0.0
H4187 H 0.98351 0.86143 0.09335 0.0
H4188 H 0.00883 0.87383 0.08484 0.0
H4189 H 0.95672 0.92427 0.15512 0.0
H4190 H 0.97091 0.91718 0.17999 0.0
H4191 H 0.95219 0.89814 0.16745 0.0
C4192 C 0.37882 0.14789 0.27062 0.0
C4193 C 0.3991 0.13725 0.27198 0.0
C4194 C 0.36784 0.14974 0.25047 0.0
C4195 C 0.37746 0.14065 0.23146 0.0
C4196 C 0.39798 0.13005 0.23284 0.0
C4197 C 0.40855 0.12859 0.25303 0.0
C4198 C 0.34592 0.16109 0.24963 0.0
C4199 C 0.40866 0.1199 0.21301 0.0
C4200 C 0.34609 0.12055 0.18243 0.0
C4201 C 0.35106 0.13652 0.16668 0.0
C4202 C 0.35308 0.12266 0.20408 0.0
C4203 C 0.36595 0.14089 0.2101 0.0
C4204 C 0.3705 0.15745 0.19454 0.0
C4205 C 0.36284 0.15516 0.17298 0.0
C4206 C 0.34726 0.10497 0.22032 0.0
C4207 C 0.38389 0.17731 0.20058 0.0
H4208 H 0.37172 0.15508 0.28515 0.0
H4209 H 0.42423 0.12034 0.25404 0.0
H4210 H 0.34528 0.17281 0.2358 0.0
H4211 H 0.33283 0.14882 0.24689 0.0
H4212 H 0.34227 0.17 0.26503 0.0
H4213 H 0.42494 0.11277 0.21678 0.0
H4214 H 0.39803 0.10676 0.20635 0.0
H4215 H 0.41069 0.13237 0.19998 0.0
H4216 H 0.33621 0.10649 0.17801 0.0
H4217 H 0.36616 0.16785 0.16106 0.0
H4218 H 0.34081 0.11227 0.2356 0.0
H4219 H 0.36217 0.09557 0.22465 0.0
H4220 H 0.33484 0.09342 0.21376 0.0
H4221 H 0.37684 0.18535 0.21522 0.0
H4222 H 0.38468 0.18943 0.18708 0.0
H4223 H 0.4008 0.17222 0.20483 0.0
C4224 C 0.40183 0.37974 0.06971 0.0
C4225 C 0.3858 0.39522 0.07479 0.0
C4226 C 0.40314 0.37105 0.04849 0.0
C4227 C 0.38847 0.37857 0.03215 0.0
C4228 C 0.37338 0.39537 0.03693 0.0
C4229 C 0.37202 0.40323 0.05827 0.0
C4230 C 0.41951 0.35321 0.04374 0.0
C4231 C 0.3579 0.40434 0.01985 0.0
C4232 C 0.39603 0.36033 0.97331 0.0
C4233 C 0.38192 0.34229 0.97265 0.0
C4234 C 0.39833 0.37263 0.99258 0.0
C4235 C 0.38627 0.36649 0.01136 0.0
C4236 C 0.37155 0.34866 0.01044 0.0
C4237 C 0.36965 0.33673 0.99111 0.0
C4238 C 0.41391 0.39179 0.99297 0.0
C4239 C 0.35797 0.34197 0.02997 0.0
H4240 H 0.41289 0.3741 0.08238 0.0
H4241 H 0.36025 0.41598 0.06196 0.0
H4242 H 0.41074 0.3377 0.04022 0.0
H4243 H 0.42922 0.3574 0.02901 0.0
H4244 H 0.43088 0.35042 0.05764 0.0
H4245 H 0.35014 0.41989 0.02518 0.0
H4246 H 0.36656 0.40729 0.00421 0.0
H4247 H 0.34477 0.39222 0.01665 0.0
H4248 H 0.40578 0.36438 0.95911 0.0
H4249 H 0.35859 0.32287 0.99047 0.0
H4250 H 0.42802 0.38792 0.00372 0.0
H4251 H 0.40578 0.40648 -0.00018 0.0
H4252 H 0.42021 0.39581 0.97642 0.0
H4253 H 0.36886 0.33758 0.04382 0.0
H4254 H 0.34716 0.32781 0.02639 0.0
H4255 H 0.34761 0.35586 0.03537 0.0
C4256 C 0.61025 0.34326 0.26952 0.0
C4257 C 0.59158 0.35656 0.26986 0.0
C4258 C 0.62243 0.34071 0.25022 0.0
C4259 C 0.61537 0.35143 0.23095 0.0
C4260 C 0.59639 0.36465 0.23126 0.0
C4261 C 0.58476 0.36705 0.25072 0.0
C4262 C 0.64281 0.32674 0.25048 0.0
C4263 C 0.58843 0.37648 0.21106 0.0
C4264 C 0.65137 0.36866 0.18446 0.0
C4265 C 0.64512 0.35392 0.16799 0.0
C4266 C 0.64331 0.36675 0.20568 0.0
C4267 C 0.6281 0.35004 0.21046 0.0
C4268 C 0.62248 0.33444 0.19426 0.0
C4269 C 0.63129 0.33642 0.17315 0.0
C4270 C 0.6503 0.38331 0.22266 0.0
C4271 C 0.60649 0.31624 0.19901 0.0
H4272 H 0.61503 0.33439 0.28406 0.0
H4273 H 0.57026 0.37726 0.25098 0.0
H4274 H 0.64166 0.31379 0.23784 0.0
H4275 H 0.65729 0.3369 0.24643 0.0
H4276 H 0.6456 0.31891 0.26663 0.0
H4277 H 0.57289 0.38545 0.21393 0.0
H4278 H 0.60099 0.38839 0.20558 0.0
H4279 H 0.58584 0.36466 0.19754 0.0
H4280 H 0.66288 0.38168 0.18084 0.0
H4281 H 0.62702 0.32465 0.1606 0.0
H4282 H 0.6543 0.37513 0.23834 0.0
H4283 H 0.63663 0.39482 0.22581 0.0
H4284 H 0.66478 0.39292 0.21732 0.0
H4285 H 0.61171 0.30704 0.21374 0.0
H4286 H 0.60494 0.30463 0.18512 0.0
H4287 H 0.59012 0.32326 0.20253 0.0
C4288 C 0.62071 0.08967 0.05867 0.0
C4289 C 0.60533 0.09666 0.07417 0.0
C4290 C 0.6193 0.09629 0.03689 0.0
C4291 C 0.60263 0.11102 0.03066 0.0
C4292 C 0.58614 0.11693 0.04585 0.0
C4293 C 0.58752 0.10937 0.06751 0.0
C4294 C 0.63641 0.08849 0.02089 0.0
C4295 C 0.56776 0.13212 0.03947 0.0
C4296 C 0.62205 0.15486 0.99207 0.0
C4297 C 0.61236 0.14874 0.97226 0.0
C4298 C 0.6187 0.14274 0.01108 0.0
C4299 C 0.60542 0.12381 0.01031 0.0
C4300 C 0.59569 0.11725 0.99034 0.0
C4301 C 0.59915 0.12996 0.9715 0.0
C4302 C 0.62948 0.15025 0.03205 0.0
C4303 C 0.58202 0.09674 0.9887 0.0
H4304 H 0.63379 0.0787 0.06356 0.0
H4305 H 0.57509 0.11385 0.07933 0.0
H4306 H 0.62884 0.0843 0.00494 0.0
H4307 H 0.64845 0.10176 0.01798 0.0
H4308 H 0.64536 0.07391 0.02708 0.0
H4309 H 0.55503 0.13324 0.05236 0.0
H4310 H 0.57444 0.14873 0.03645 0.0
H4311 H 0.55999 0.1265 0.02406 0.0
H4312 H 0.63235 0.16929 0.99276 0.0
H4313 H 0.59108 0.12541 0.95644 0.0
H4314 H 0.64118 0.13763 0.03783 0.0
H4315 H 0.61699 0.15248 0.045 0.0
H4316 H 0.63852 0.16588 0.03001 0.0
H4317 H 0.593 0.0823 0.9882 0.0
H4318 H 0.57183 0.09658 0.97365 0.0
H4319 H 0.5712 0.09484 0.00311 0.0
C4320 C 0.33717 0.86234 0.30988 0.0
C4321 C 0.35011 0.85301 0.32632 0.0
C4322 C 0.34414 0.86274 0.28819 0.0
C4323 C 0.36452 0.85324 0.28284 0.0
C4324 C 0.37715 0.8427 0.29928 0.0
C4325 C 0.36977 0.84274 0.32104 0.0
C4326 C 0.32962 0.87362 0.27139 0.0
C4327 C 0.39882 0.83216 0.29396 0.0
C4328 C 0.38168 0.8442 0.22395 0.0
C4329 C 0.3962 0.86166 0.22115 0.0
C4330 C 0.37044 0.84156 0.24379 0.0
C4331 C 0.374 0.85677 0.26088 0.0
C4332 C 0.3874 0.8753 0.25734 0.0
C4333 C 0.39857 0.87737 0.23756 0.0
C4334 C 0.35545 0.82219 0.24679 0.0
C4335 C 0.39042 0.8926 0.27471 0.0
H4336 H 0.32162 0.86978 0.31413 0.0
H4337 H 0.37947 0.83526 0.33386 0.0
H4338 H 0.33894 0.88051 0.25745 0.0
H4339 H 0.31794 0.86133 0.26488 0.0
H4340 H 0.31987 0.88697 0.2789 0.0
H4341 H 0.4056 0.82289 0.30804 0.0
H4342 H 0.39698 0.82088 0.27986 0.0
H4343 H 0.41078 0.84496 0.28919 0.0
H4344 H 0.38004 0.83204 0.21115 0.0
H4345 H 0.40973 0.89095 0.23512 0.0
H4346 H 0.33893 0.82789 0.25169 0.0
H4347 H 0.36173 0.81161 0.26014 0.0
H4348 H 0.35393 0.81224 0.23167 0.0
H4349 H 0.37425 0.89907 0.27984 0.0
H4350 H 0.40064 0.90648 0.26895 0.0
H4351 H 0.3983 0.88531 0.28935 0.0
C4352 C 0.1063 0.3736 0.92141 0.0
C4353 C 0.10257 0.39588 0.91808 0.0
C4354 C 0.10637 0.36492 0.94267 0.0
C4355 C 0.10355 0.37911 0.96082 0.0
C4356 C 0.09995 0.40167 0.95744 0.0
C4357 C 0.09922 0.40971 0.93607 0.0
C4358 C 0.10981 0.34067 0.94578 0.0
C4359 C 0.09786 0.41753 0.97627 0.0
C4360 C 0.08691 0.35037 0.01285 0.0
C4361 C 0.10722 0.34723 0.02285 0.0
C4362 C 0.08527 0.36213 0.99328 0.0
C4363 C 0.10454 0.37019 0.98331 0.0
C4364 C 0.12496 0.36809 0.9941 0.0
C4365 C 0.12603 0.35667 0.01394 0.0
C4366 C 0.06311 0.36502 0.98274 0.0
C4367 C 0.14582 0.37671 0.98409 0.0
H4368 H 0.10923 0.36307 0.90746 0.0
H4369 H 0.0971 0.42714 0.93344 0.0
H4370 H 0.12498 0.33777 0.95534 0.0
H4371 H 0.09602 0.33364 0.95525 0.0
H4372 H 0.1111 0.3318 0.92999 0.0
H4373 H 0.09182 0.4338 0.97087 0.0
H4374 H 0.08665 0.41107 0.98898 0.0
H4375 H 0.11413 0.41984 0.98401 0.0
H4376 H 0.07241 0.34311 0.02005 0.0
H4377 H 0.1417 0.35407 0.02186 0.0
H4378 H 0.06238 0.35538 0.96739 0.0
H4379 H 0.06045 0.38243 0.97834 0.0
H4380 H 0.04959 0.35965 0.99361 0.0
H4381 H 0.15014 0.36665 0.96963 0.0
H4382 H 0.15974 0.37623 0.99579 0.0
H4383 H 0.14359 0.39378 0.97838 0.0
C4384 C 0.61254 0.64624 0.22252 0.0
C4385 C 0.59353 0.63337 0.2225 0.0
C4386 C 0.62418 0.64995 0.24205 0.0
C4387 C 0.61647 0.64057 0.26178 0.0
C4388 C 0.59735 0.62754 0.26169 0.0
C4389 C 0.58618 0.62413 0.2421 0.0
C4390 C 0.64472 0.66368 0.24152 0.0
C4391 C 0.58873 0.61695 0.2823 0.0
C4392 C 0.64978 0.62435 0.31053 0.0
C4393 C 0.64268 0.63946 0.32629 0.0
C4394 C 0.64325 0.62601 0.28875 0.0
C4395 C 0.62867 0.64283 0.2826 0.0
C4396 C 0.62248 0.65898 0.29807 0.0
C4397 C 0.62984 0.65726 0.31982 0.0
C4398 C 0.65093 0.6089 0.27266 0.0
C4399 C 0.6073 0.67742 0.29186 0.0
H4400 H 0.61801 0.65384 0.20751 0.0
H4401 H 0.57155 0.6141 0.24214 0.0
H4402 H 0.64456 0.67598 0.25484 0.0
H4403 H 0.6592 0.65307 0.24418 0.0
H4404 H 0.64676 0.67226 0.22564 0.0
H4405 H 0.57318 0.60795 0.2795 0.0
H4406 H 0.601 0.60527 0.28883 0.0
H4407 H 0.58587 0.62955 0.29503 0.0
H4408 H 0.66077 0.61121 0.3152 0.0
H4409 H 0.62515 0.66944 0.3318 0.0
H4410 H 0.65572 0.61654 0.25695 0.0
H4411 H 0.63736 0.59733 0.26923 0.0
H4412 H 0.66509 0.59942 0.27903 0.0
H4413 H 0.61318 0.68558 0.27677 0.0
H4414 H 0.60584 0.68982 0.30504 0.0
H4415 H 0.59078 0.67074 0.28831 0.0
C4416 C 0.89643 0.129 0.01843 0.0
C4417 C 0.87851 0.14296 0.02127 0.0
C4418 C 0.89932 0.11779 -0.00138 0.0
C4419 C 0.88398 0.12094 0.98154 0.0
C4420 C 0.8652 0.134 0.98498 0.0
C4421 C 0.86277 0.14495 0.00483 0.0
C4422 C 0.91924 0.10352 0.99561 0.0
C4423 C 0.84813 0.13721 0.96737 0.0
C4424 C 0.89912 0.11645 0.9217 0.0
C4425 C 0.88843 0.09707 0.91622 0.0
C4426 C 0.89871 0.124 0.94339 0.0
C4427 C 0.88771 0.11153 0.95962 0.0
C4428 C 0.87782 0.09142 0.95412 0.0
C4429 C 0.87809 0.08459 0.93239 0.0
C4430 C 0.90918 0.14569 0.94882 0.0
C4431 C 0.86632 0.07748 0.97098 0.0
H4432 H 0.90875 0.12781 0.03113 0.0
H4433 H 0.84887 0.15571 0.00727 0.0
H4434 H 0.91465 0.08764 0.98811 0.0
H4435 H 0.93086 0.1117 0.98435 0.0
H4436 H 0.92778 0.10032 0.01133 0.0
H4437 H 0.83429 0.14758 0.97293 0.0
H4438 H 0.8557 0.145 0.95284 0.0
H4439 H 0.84149 0.12116 0.96209 0.0
H4440 H 0.90725 0.12584 0.90906 0.0
H4441 H 0.86994 0.06949 0.92788 0.0
H4442 H 0.92081 0.14374 0.96261 0.0
H4443 H 0.8964 0.15745 0.95412 0.0
H4444 H 0.91804 0.15279 0.93465 0.0
H4445 H 0.87773 0.0735 0.98453 0.0
H4446 H 0.85994 0.06197 0.96397 0.0
H4447 H 0.85241 0.08663 0.97818 0.0
C4448 C 0.25278 0.40751 0.15114 0.0
C4449 C 0.27006 0.39876 0.13892 0.0
C4450 C 0.23288 0.39644 0.15307 0.0
C4451 C 0.23023 0.376 0.14264 0.0
C4452 C 0.24814 0.36623 0.13164 0.0
C4453 C 0.26789 0.37787 0.12972 0.0
C4454 C 0.21422 0.40734 0.16504 0.0
C4455 C 0.2461 0.34419 0.12067 0.0
C4456 C 0.17874 0.34481 0.15749 0.0
C4457 C 0.16487 0.35004 0.1399 0.0
C4458 C 0.20032 0.35256 0.15829 0.0
C4459 C 0.20802 0.3663 0.14139 0.0
C4460 C 0.19395 0.37218 0.12395 0.0
C4461 C 0.17253 0.36401 0.12343 0.0
C4462 C 0.21509 0.34544 0.17677 0.0
C4463 C 0.20166 0.38678 0.10558 0.0
H4464 H 0.25451 0.42356 0.1585 0.0
H4465 H 0.28104 0.37114 0.11998 0.0
H4466 H 0.20102 0.41148 0.15326 0.0
H4467 H 0.20715 0.39602 0.17732 0.0
H4468 H 0.21941 0.42257 0.17348 0.0
H4469 H 0.26239 0.33671 0.11763 0.0
H4470 H 0.23618 0.33275 0.13066 0.0
H4471 H 0.23773 0.34621 0.10469 0.0
H4472 H 0.1732 0.33361 0.17006 0.0
H4473 H 0.16204 0.36789 0.10967 0.0
H4474 H 0.22124 0.35994 0.18578 0.0
H4475 H 0.22955 0.33675 0.17009 0.0
H4476 H 0.20664 0.33443 0.1885 0.0
H4477 H 0.20685 0.40286 0.11222 0.0
H4478 H 0.18877 0.38954 0.09306 0.0
H4479 H 0.2161 0.37938 0.09747 0.0
C4480 C 0.17251 0.63063 0.33752 0.0
C4481 C 0.16711 0.64679 0.35272 0.0
C4482 C 0.19421 0.62304 0.33595 0.0
C4483 C 0.21064 0.63225 0.34956 0.0
C4484 C 0.20543 0.64988 0.36353 0.0
C4485 C 0.1837 0.65674 0.3651 0.0
C4486 C 0.1994 0.60453 0.32052 0.0
C4487 C 0.22259 0.66088 0.37752 0.0
C4488 C 0.25395 0.59288 0.36937 0.0
C4489 C 0.27183 0.59824 0.35617 0.0
C4490 C 0.2342 0.60426 0.36762 0.0
C4491 C 0.23213 0.6212 0.35198 0.0
C4492 C 0.25038 0.62719 0.33901 0.0
C4493 C 0.27012 0.61555 0.34126 0.0
C4494 C 0.2154 0.59792 0.38236 0.0
C4495 C 0.24893 0.64522 0.32221 0.0
H4496 H 0.15975 0.6235 0.32746 0.0
H4497 H 0.17962 0.67004 0.37612 0.0
H4498 H 0.21397 0.60864 0.31052 0.0
H4499 H 0.20341 0.58962 0.33008 0.0
H4500 H 0.1855 0.60075 0.30943 0.0
H4501 H 0.21615 0.67564 0.38596 0.0
H4502 H 0.22866 0.64924 0.39005 0.0
H4503 H 0.2368 0.66579 0.36737 0.0
H4504 H 0.2554 0.57958 0.38102 0.0
H4505 H 0.28385 0.61941 0.33077 0.0
H4506 H 0.20127 0.59244 0.37236 0.0
H4507 H 0.20998 0.6123 0.39201 0.0
H4508 H 0.21984 0.5846 0.39389 0.0
H4509 H 0.24085 0.63879 0.30729 0.0
H4510 H 0.2654 0.65136 0.31756 0.0
H4511 H 0.23901 0.65915 0.32825 0.0
C4512 C 0.90982 0.5575 0.89142 0.0
C4513 C 0.89512 0.57512 0.8916 0.0
C4514 C 0.90238 0.53592 0.89172 0.0
C4515 C 0.87965 0.53192 0.89261 0.0
C4516 C 0.86469 0.54969 0.89328 0.0
C4517 C 0.87264 0.57124 0.89235 0.0
C4518 C 0.91886 0.51753 0.89025 0.0
C4519 C 0.84033 0.54587 0.89464 0.0
C4520 C 0.8556 0.47878 0.87206 0.0
C4521 C 0.85025 0.46855 0.89175 0.0
C4522 C 0.86602 0.49919 0.87205 0.0
C4523 C 0.87136 0.50918 0.89224 0.0
C4524 C 0.86741 0.49802 0.91211 0.0
C4525 C 0.8565 0.47788 0.91164 0.0
C4526 C 0.87018 0.51056 0.85053 0.0
C4527 C 0.87383 0.50777 0.93386 0.0
H4528 H 0.92726 0.56064 0.89019 0.0
H4529 H 0.8614 0.58496 0.89224 0.0
H4530 H 0.91539 0.50475 0.90264 0.0
H4531 H 0.91771 0.5097 0.87394 0.0
H4532 H 0.93592 0.52341 0.89254 0.0
H4533 H 0.83097 0.5614 0.89571 0.0
H4534 H 0.8347 0.53668 0.88003 0.0
H4535 H 0.83648 0.53573 0.90919 0.0
H4536 H 0.85051 0.4714 0.85675 0.0
H4537 H 0.85228 0.4697 0.92679 0.0
H4538 H 0.88749 0.51587 0.84945 0.0
H4539 H 0.85987 0.52547 0.84944 0.0
H4540 H 0.86643 0.4999 0.8363 0.0
H4541 H 0.89136 0.5125 0.9337 0.0
H4542 H 0.87106 0.49623 0.94762 0.0
H4543 H 0.86418 0.52284 0.93686 0.0
C4544 C 0.81951 0.85973 0.33679 0.0
C4545 C 0.825 0.8435 0.35191 0.0
C4546 C 0.79764 0.86653 0.33464 0.0
C4547 C 0.78126 0.8566 0.34773 0.0
C4548 C 0.78655 0.83857 0.36112 0.0
C4549 C 0.80839 0.83238 0.36318 0.0
C4550 C 0.79227 0.88533 0.3196 0.0
C4551 C 0.76946 0.82692 0.37463 0.0
C4552 C 0.74002 0.89548 0.37155 0.0
C4553 C 0.72138 0.89109 0.35905 0.0
C4554 C 0.75944 0.8841 0.36805 0.0
C4555 C 0.76028 0.868 0.35145 0.0
C4556 C 0.74128 0.86291 0.33918 0.0
C4557 C 0.72192 0.87465 0.34312 0.0
C4558 C 0.77916 0.88955 0.38199 0.0
C4559 C 0.74153 0.84581 0.3214 0.0
H4560 H 0.83231 0.86767 0.32745 0.0
H4561 H 0.81253 0.81892 0.37398 0.0
H4562 H 0.77714 0.88181 0.3102 0.0
H4563 H 0.78924 0.90025 0.32948 0.0
H4564 H 0.8058 0.88878 0.30799 0.0
H4565 H 0.77582 0.8115 0.38186 0.0
H4566 H 0.76401 0.83776 0.38812 0.0
H4567 H 0.75489 0.82302 0.36453 0.0
H4568 H 0.73947 0.90813 0.38398 0.0
H4569 H 0.70756 0.87159 0.33317 0.0
H4570 H 0.79278 0.89532 0.37149 0.0
H4571 H 0.7849 0.8747 0.39071 0.0
H4572 H 0.77561 0.90241 0.39431 0.0
H4573 H 0.74889 0.85296 0.30644 0.0
H4574 H 0.72474 0.84015 0.3173 0.0
H4575 H 0.75156 0.83145 0.32612 0.0
C4576 C 0.62706 0.51834 0.38073 0.0
C4577 C 0.64783 0.52109 0.39013 0.0
C4578 C 0.61637 0.498 0.38157 0.0
C4579 C 0.62709 0.47995 0.39139 0.0
C4580 C 0.64772 0.48279 0.40138 0.0
C4581 C 0.65766 0.50335 0.40089 0.0
C4582 C 0.59397 0.49564 0.37137 0.0
C4583 C 0.65983 0.46384 0.41169 0.0
C4584 C 0.59736 0.42793 0.40703 0.0
C4585 C 0.60139 0.41457 0.38881 0.0
C4586 C 0.60504 0.44951 0.4078 0.0
C4587 C 0.61758 0.45769 0.39021 0.0
C4588 C 0.62237 0.44408 0.3721 0.0
C4589 C 0.61409 0.4227 0.37156 0.0
C4590 C 0.59917 0.46375 0.4271 0.0
C4591 C 0.63589 0.45222 0.35312 0.0
H4592 H 0.61948 0.53163 0.37189 0.0
H4593 H 0.67364 0.50531 0.40836 0.0
H4594 H 0.59471 0.48413 0.35738 0.0
H4595 H 0.58235 0.48867 0.38342 0.0
H4596 H 0.58739 0.51152 0.36545 0.0
H4597 H 0.67559 0.46894 0.41919 0.0
H4598 H 0.6496 0.45606 0.42447 0.0
H4599 H 0.66325 0.45122 0.39911 0.0
H4600 H 0.58712 0.42198 0.42021 0.0
H4601 H 0.61701 0.41255 0.35732 0.0
H4602 H 0.59028 0.47851 0.42138 0.0
H4603 H 0.61424 0.46945 0.43546 0.0
H4604 H 0.58877 0.45504 0.43918 0.0
H4605 H 0.62748 0.46617 0.34511 0.0
H4606 H 0.63875 0.43932 0.34066 0.0
H4607 H 0.65196 0.45827 0.35904 0.0
C4608 C 0.31165 0.65618 0.65205 0.0
C4609 C 0.32782 0.64389 0.6414 0.0
C4610 C 0.28967 0.6498 0.65142 0.0
C4611 C 0.28393 0.63028 0.64043 0.0
C4612 C 0.30035 0.61748 0.63018 0.0
C4613 C 0.32212 0.62472 0.6304 0.0
C4614 C 0.27259 0.66444 0.66161 0.0
C4615 C 0.29483 0.59636 0.61862 0.0
C4616 C 0.23388 0.59731 0.65437 0.0
C4617 C 0.22092 0.60069 0.63583 0.0
C4618 C 0.25376 0.60831 0.65692 0.0
C4619 C 0.26095 0.6226 0.64024 0.0
C4620 C 0.24709 0.62734 0.62226 0.0
C4621 C 0.22702 0.61633 0.62031 0.0
C4622 C 0.26779 0.60339 0.67665 0.0
C4623 C 0.25409 0.6429 0.60442 0.0
H4624 H 0.31603 0.67157 0.65974 0.0
H4625 H 0.33462 0.61566 0.62168 0.0
H4626 H 0.26268 0.67216 0.64852 0.0
H4627 H 0.26125 0.65484 0.67202 0.0
H4628 H 0.28002 0.67765 0.67165 0.0
H4629 H 0.30958 0.58804 0.61205 0.0
H4630 H 0.28641 0.58504 0.63004 0.0
H4631 H 0.28342 0.59965 0.60489 0.0
H4632 H 0.22888 0.58528 0.66641 0.0
H4633 H 0.21688 0.61879 0.60597 0.0
H4634 H 0.27352 0.6188 0.68435 0.0
H4635 H 0.2825 0.59411 0.67148 0.0
H4636 H 0.25888 0.59363 0.68911 0.0
H4637 H 0.25914 0.65879 0.61157 0.0
H4638 H 0.24084 0.64586 0.59232 0.0
H4639 H 0.26847 0.63611 0.59569 0.0
C4640 C 0.89363 0.43021 0.62378 0.0
C4641 C 0.89564 0.41706 0.60507 0.0
C4642 C 0.88689 0.45195 0.62228 0.0
C4643 C 0.88115 0.46061 0.60166 0.0
C4644 C 0.88358 0.44774 0.5826 0.0
C4645 C 0.8909 0.42606 0.5845 0.0
C4646 C 0.88524 0.46545 0.64291 0.0
C4647 C 0.87798 0.45676 0.56032 0.0
C4648 C 0.83453 0.50005 0.60748 0.0
C4649 C 0.84496 0.52047 0.60615 0.0
C4650 C 0.84606 0.4806 0.60465 0.0
C4651 C 0.86882 0.48138 0.60091 0.0
C4652 C 0.87957 0.50178 0.59885 0.0
C4653 C 0.8674 0.52116 0.60118 0.0
C4654 C 0.83392 0.45912 0.6066 0.0
C4655 C 0.90396 0.50329 0.59518 0.0
H4656 H 0.89786 0.42372 0.63973 0.0
H4657 H 0.89301 0.41623 0.56991 0.0
H4658 H 0.89296 0.4817 0.6405 0.0
H4659 H 0.86776 0.46823 0.64694 0.0
H4660 H 0.89319 0.45733 0.65709 0.0
H4661 H 0.88223 0.4452 0.54697 0.0
H4662 H 0.8602 0.46035 0.55945 0.0
H4663 H 0.88679 0.47239 0.55753 0.0
H4664 H 0.81721 0.49909 0.61108 0.0
H4665 H 0.87567 0.53657 0.59901 0.0
H4666 H 0.83934 0.45039 0.62156 0.0
H4667 H 0.83764 0.44846 0.59241 0.0
H4668 H 0.81591 0.4614 0.6075 0.0
H4669 H 0.9125 0.50151 0.61109 0.0
H4670 H 0.90868 0.51934 0.58807 0.0
H4671 H 0.90989 0.49006 0.58428 0.0
C4672 C 0.15381 0.98637 0.58641 0.0
C4673 C 0.14631 0.97061 0.60126 0.0
C4674 C 0.14238 0.00594 0.58317 0.0
C4675 C 0.12304 0.00987 0.59518 0.0
C4676 C 0.11428 0.99319 0.60868 0.0
C4677 C 0.12614 0.97372 0.61168 0.0
C4678 C 0.15203 0.02313 0.5683 0.0
C4679 C 0.09326 -0.00346 0.62119 0.0
C4680 C 0.11394 0.06826 0.61388 0.0
C4681 C 0.09757 0.07542 0.59952 0.0
C4682 C 0.12233 0.04696 0.61249 0.0
C4683 C 0.11419 0.03246 0.59634 0.0
C4684 C 0.09818 0.03975 0.58134 0.0
C4685 C 0.09026 0.06123 0.58293 0.0
C4686 C 0.13942 0.03974 0.62884 0.0
C4687 C 0.08898 0.02476 0.56397 0.0
H4688 H 0.16922 0.98382 0.57801 0.0
H4689 H 0.1203 0.96167 0.62327 0.0
H4690 H 0.13924 0.03023 0.55756 0.0
H4691 H 0.15884 0.03664 0.57834 0.0
H4692 H 0.16533 0.01645 0.55789 0.0
H4693 H 0.08695 0.98099 0.62815 0.0
H4694 H 0.09615 0.00819 0.6348 0.0
H4695 H 0.08049 0.00375 0.61048 0.0
H4696 H 0.11959 0.07898 0.62683 0.0
H4697 H 0.07754 0.06653 0.57176 0.0
H4698 H 0.15419 0.03374 0.62018 0.0
H4699 H 0.13297 0.02597 0.63874 0.0
H4700 H 0.14434 0.05313 0.64009 0.0
H4701 H 0.10173 0.02134 0.55155 0.0
H4702 H 0.07457 0.032 0.55557 0.0
H4703 H 0.08409 0.00885 0.5712 0.0
C4704 C 0.65663 0.67201 0.8634 0.0
C4705 C 0.64256 0.66657 0.84625 0.0
C4706 C 0.6577 0.69374 0.87093 0.0
C4707 C 0.64464 0.71007 0.86076 0.0
C4708 C 0.6321 0.70478 0.8421 0.0
C4709 C 0.63103 0.68305 0.83528 0.0
C4710 C 0.67177 0.69904 0.8905 0.0
C4711 C 0.6186 0.72144 0.82982 0.0
C4712 C 0.61976 0.75166 0.8988 0.0
C4713 C 0.63238 0.77027 0.89462 0.0
C4714 C 0.62352 0.73215 0.8876 0.0
C4715 C 0.64061 0.7311 0.87207 0.0
C4716 C 0.65301 0.75006 0.86719 0.0
C4717 C 0.64873 0.76957 0.8786 0.0
C4718 C 0.60919 0.71259 0.89248 0.0
C4719 C 0.67076 0.74965 0.85007 0.0
H4720 H 0.6661 0.65927 0.87132 0.0
H4721 H 0.62086 0.67888 0.82133 0.0
H4722 H 0.68132 0.71419 0.88753 0.0
H4723 H 0.66114 0.70204 0.90489 0.0
H4724 H 0.68325 0.68553 0.8945 0.0
H4725 H 0.601 0.71858 0.83327 0.0
H4726 H 0.62267 0.73859 0.83405 0.0
H4727 H 0.62102 0.71925 0.81196 0.0
H4728 H 0.60698 0.75235 0.91107 0.0
H4729 H 0.65867 0.78393 0.87558 0.0
H4730 H 0.61937 0.69874 0.8983 0.0
H4731 H 0.60074 0.70721 0.87733 0.0
H4732 H 0.5966 0.7162 0.90507 0.0
H4733 H 0.68362 0.73776 0.85485 0.0
H4734 H 0.67843 0.76596 0.84773 0.0
H4735 H 0.66389 0.7441 0.83421 0.0
C4736 C 0.92523 0.11855 0.37868 0.0
C4737 C 0.91744 0.10354 0.39411 0.0
C4738 C 0.94686 0.11746 0.37118 0.0
C4739 C 0.96109 0.1012 0.37959 0.0
C4740 C 0.9533 0.08588 0.39502 0.0
C4741 C 0.93148 0.08708 0.4019 0.0
C4742 C 0.95461 0.13396 0.35451 0.0
C4743 C 0.96818 0.06884 0.40499 0.0
C4744 C 0.00795 0.08838 0.34183 0.0
C4745 C 0.02423 0.1025 0.34964 0.0
C4746 C 0.98772 0.08679 0.3523 0.0
C4747 C 0.98373 0.09959 0.3711 0.0
C4748 C 0.00071 0.11254 0.38013 0.0
C4749 C 0.02082 0.11399 0.36915 0.0
C4750 C 0.97012 0.07252 0.3424 0.0
C4751 C -0.00277 0.12578 0.40066 0.0
H4752 H 0.91455 0.13149 0.37292 0.0
H4753 H 0.92581 0.07583 0.41438 0.0
H4754 H 0.96847 0.14355 0.36127 0.0
H4755 H 0.96067 0.12537 0.33973 0.0
H4756 H 0.94146 0.14549 0.34956 0.0
H4757 H 0.959 0.05666 0.41486 0.0
H4758 H 0.97749 0.06008 0.39214 0.0
H4759 H 0.98028 0.07701 0.41579 0.0
H4760 H 0.0107 0.07925 0.32688 0.0
H4761 H 0.03325 0.12513 0.37511 0.0
H4762 H 0.95656 0.08295 0.33629 0.0
H4763 H 0.96318 0.06142 0.35496 0.0
H4764 H 0.97634 0.06247 0.32862 0.0
H4765 H 0.98532 0.13909 0.39741 0.0
H4766 H 0.01267 0.13319 0.40676 0.0
H4767 H 0.99022 0.11532 0.4137 0.0
C4768 C 0.33611 0.81659 0.85204 0.0
C4769 C 0.35673 0.8255 0.84746 0.0
C4770 C 0.3341 0.79505 0.85966 0.0
C4771 C 0.35316 0.7822 0.86241 0.0
C4772 C 0.37387 0.79077 0.85674 0.0
C4773 C 0.37546 0.81245 0.84973 0.0
C4774 C 0.31173 0.78621 0.8652 0.0
C4775 C 0.39438 0.77706 0.8583 0.0
C4776 C 0.35701 0.74165 0.90847 0.0
C4777 C 0.35464 0.72159 0.89764 0.0
C4778 C 0.35551 0.76143 0.89719 0.0
C4779 C 0.35211 0.76121 0.87435 0.0
C4780 C 0.34925 0.74111 0.86322 0.0
C4781 C 0.34992 0.72151 0.87517 0.0
C4782 C 0.35822 0.7826 0.90968 0.0
C4783 C 0.34558 0.74016 0.83881 0.0
H4784 H 0.32156 0.82646 0.84963 0.0
H4785 H 0.39136 0.81892 0.84527 0.0
H4786 H 0.30897 0.7704 0.85675 0.0
H4787 H 0.31072 0.78306 0.88303 0.0
H4788 H 0.29844 0.7977 0.86054 0.0
H4789 H 0.40881 0.78541 0.85105 0.0
H4790 H 0.39801 0.77339 0.87569 0.0
H4791 H 0.39194 0.76121 0.84978 0.0
H4792 H 0.36034 0.74197 0.92587 0.0
H4793 H 0.34662 0.70629 0.86682 0.0
H4794 H 0.34442 0.79383 0.90603 0.0
H4795 H 0.37352 0.79087 0.90448 0.0
H4796 H 0.35896 0.77998 0.92763 0.0
H4797 H 0.32822 0.744 0.83519 0.0
H4798 H 0.34918 0.72365 0.83213 0.0
H4799 H 0.35587 0.75232 0.83011 0.0
C4800 C 0.06476 0.40926 0.39791 0.0
C4801 C 0.07934 0.39373 0.38925 0.0
C4802 C 0.043 0.41031 0.39087 0.0
C4803 C 0.03584 0.39593 0.37428 0.0
C4804 C 0.05078 0.38112 0.36453 0.0
C4805 C 0.07234 0.38001 0.37234 0.0
C4806 C 0.02742 0.42575 0.40224 0.0
C4807 C 0.04375 0.36586 0.34642 0.0
C4808 C 0.97698 0.37907 0.36508 0.0
C4809 C 0.97202 0.39124 0.34635 0.0
C4810 C -0.00268 0.38152 0.37548 0.0
C4811 C 0.01282 0.39638 0.36673 0.0
C4812 C 0.00704 0.41 0.34899 0.0
C4813 C 0.9867 0.40717 0.33893 0.0
C4814 C 0.00274 0.3672 0.39484 0.0
C4815 C 0.02289 0.4265 0.33968 0.0
H4816 H 0.06985 0.41955 0.41143 0.0
H4817 H 0.08347 0.36783 0.36582 0.0
H4818 H 0.01679 0.43433 0.39031 0.0
H4819 H 0.0166 0.41622 0.41326 0.0
H4820 H 0.03621 0.43814 0.41223 0.0
H4821 H 0.05758 0.35599 0.33999 0.0
H4822 H 0.03094 0.35455 0.35253 0.0
H4823 H 0.03651 0.37536 0.33275 0.0
H4824 H 0.96564 0.36667 0.37073 0.0
H4825 H 0.98262 0.41681 0.32461 0.0
H4826 H 0.01044 0.37698 0.40805 0.0
H4827 H 0.0147 0.3545 0.38983 0.0
H4828 H 0.988 0.3589 0.40149 0.0
H4829 H 0.02946 0.4371 0.35286 0.0
H4830 H 0.01519 0.43704 0.32704 0.0
H4831 H 0.03697 0.41781 0.33221 0.0
C4832 C 0.65425 0.30946 0.65397 0.0
C4833 C 0.64024 0.32499 0.64435 0.0
C4834 C 0.65475 0.28778 0.64662 0.0
C4835 C 0.64157 0.28167 0.62867 0.0
C4836 C 0.62812 0.29742 0.61824 0.0
C4837 C 0.62748 0.31889 0.62633 0.0
C4838 C 0.66892 0.27134 0.65847 0.0
C4839 C 0.61396 0.29143 0.5989 0.0
C4840 C 0.65624 0.23347 0.59314 0.0
C4841 C 0.64018 0.21825 0.59904 0.0
C4842 C 0.6576 0.25379 0.60352 0.0
C4843 C 0.64241 0.25901 0.62011 0.0
C4844 C 0.62701 0.24317 0.62714 0.0
C4845 C 0.62603 0.22288 0.61641 0.0
C4846 C 0.67444 0.27014 0.59581 0.0
C4847 C 0.61091 0.24805 0.64521 0.0
H4848 H 0.66396 0.31385 0.66814 0.0
H4849 H 0.61648 0.33071 0.61898 0.0
H4850 H 0.65915 0.25675 0.66306 0.0
H4851 H 0.68221 0.26569 0.64753 0.0
H4852 H 0.6764 0.27826 0.67352 0.0
H4853 H 0.60489 0.30572 0.59228 0.0
H4854 H 0.62419 0.28439 0.58567 0.0
H4855 H 0.60195 0.27872 0.60377 0.0
H4856 H 0.6673 0.22977 0.57979 0.0
H4857 H 0.6134 0.21124 0.62079 0.0
H4858 H 0.68394 0.27657 0.60986 0.0
H4859 H 0.66607 0.28425 0.58802 0.0
H4860 H 0.68602 0.26295 0.58382 0.0
H4861 H 0.6197 0.25375 0.66003 0.0
H4862 H 0.60088 0.23353 0.64958 0.0
H4863 H 0.59977 0.26142 0.64007 0.0
C4864 C 0.571 0.10692 0.61737 0.0
C4865 C 0.57461 0.10181 0.59542 0.0
C4866 C 0.54965 0.10731 0.62578 0.0
C4867 C 0.53168 0.10322 0.61164 0.0
C4868 C 0.53528 0.09827 0.58942 0.0
C4869 C 0.55673 0.09727 0.58167 0.0
C4870 C 0.54624 0.1125 0.64966 0.0
C4871 C 0.51653 0.09465 0.57369 0.0
C4872 C 0.48081 0.08666 0.64199 0.0
C4873 C 0.47029 0.10682 0.64415 0.0
C4874 C 0.50007 0.0849 0.62982 0.0
C4875 C 0.50916 0.10393 0.62033 0.0
C4876 C 0.49766 0.12403 0.62119 0.0
C4877 C 0.47813 0.1252 0.63309 0.0
C4878 C 0.51145 0.06302 0.62843 0.0
C4879 C 0.50677 0.14465 0.6111 0.0
H4880 H 0.5848 0.11083 0.62782 0.0
H4881 H 0.55941 0.09407 0.56445 0.0
H4882 H 0.53614 0.12749 0.65132 0.0
H4883 H 0.53718 0.09896 0.65767 0.0
H4884 H 0.56192 0.11503 0.65849 0.0
H4885 H 0.52224 0.09158 0.55672 0.0
H4886 H 0.50653 0.08051 0.57909 0.0
H4887 H 0.50565 0.10917 0.57352 0.0
H4888 H 0.47442 0.0725 0.65054 0.0
H4889 H 0.46981 0.14075 0.63498 0.0
H4890 H 0.5265 0.06339 0.6386 0.0
H4891 H 0.51649 0.05955 0.61137 0.0
H4892 H 0.50087 0.04944 0.63424 0.0
H4893 H 0.52027 0.15093 0.62149 0.0
H4894 H 0.49413 0.15764 0.60968 0.0
H4895 H 0.51364 0.14137 0.59465 0.0
C4896 C 0.33568 0.17737 0.64748 0.0
C4897 C 0.35596 0.16659 0.64698 0.0
C4898 C 0.33365 0.19899 0.64013 0.0
C4899 C 0.35223 0.20983 0.63169 0.0
C4900 C 0.37272 0.19907 0.63112 0.0
C4901 C 0.37432 0.17757 0.63872 0.0
C4902 C 0.31167 0.2102 0.6414 0.0
C4903 C 0.39296 0.2102 0.6223 0.0
C4904 C 0.34674 0.25135 0.58683 0.0
C4905 C 0.35396 0.27054 0.59715 0.0
C4906 C 0.34508 0.23168 0.59822 0.0
C4907 C 0.34994 0.23128 0.62078 0.0
C4908 C 0.35533 0.25089 0.63185 0.0
C4909 C 0.3577 0.27031 0.61979 0.0
C4910 C 0.33984 0.21099 0.5857 0.0
C4911 C 0.3596 0.25111 0.65617 0.0
H4912 H 0.3215 0.16922 0.65432 0.0
H4913 H 0.39011 0.1695 0.6386 0.0
H4914 H 0.31338 0.22656 0.64904 0.0
H4915 H 0.30509 0.21273 0.62469 0.0
H4916 H 0.29958 0.20052 0.6509 0.0
H4917 H 0.40774 0.19968 0.62351 0.0
H4918 H 0.39042 0.21465 0.60489 0.0
H4919 H 0.39612 0.22556 0.63141 0.0
H4920 H 0.34341 0.25138 0.56942 0.0
H4921 H 0.36358 0.28478 0.62802 0.0
H4922 H 0.32618 0.20206 0.59358 0.0
H4923 H 0.3543 0.20001 0.58584 0.0
H4924 H 0.33533 0.21432 0.56842 0.0
H4925 H 0.34559 0.24367 0.66497 0.0
H4926 H 0.36222 0.26794 0.66253 0.0
H4927 H 0.37426 0.24113 0.66003 0.0
C4928 C 0.51647 0.37715 0.62675 0.0
C4929 C 0.52098 0.38984 0.64527 0.0
C4930 C 0.4961 0.3787 0.61622 0.0
C4931 C 0.48002 0.39307 0.62469 0.0
C4932 C 0.48507 0.40685 0.64253 0.0
C4933 C 0.50552 0.40507 0.65259 0.0
C4934 C 0.49141 0.36419 0.59679 0.0
C4935 C 0.46838 0.42245 0.65193 0.0
C4936 C 0.42856 0.40677 0.59313 0.0
C4937 C 0.41368 0.39153 0.6017 0.0
C4938 C 0.45041 0.40708 0.6 0.0
C4939 C 0.45727 0.39236 0.61642 0.0
C4940 C 0.44212 0.37749 0.62575 0.0
C4941 C 0.42052 0.37704 0.61802 0.0
C4942 C 0.46628 0.42262 0.58916 0.0
C4943 C 0.44889 0.36167 0.64347 0.0
H4944 H 0.52826 0.36514 0.62125 0.0
H4945 H 0.50912 0.41504 0.6668 0.0
H4946 H 0.47852 0.35216 0.60105 0.0
H4947 H 0.48512 0.3741 0.58295 0.0
H4948 H 0.50617 0.35514 0.59128 0.0
H4949 H 0.47547 0.43318 0.66478 0.0
H4950 H 0.46138 0.43291 0.63887 0.0
H4951 H 0.45469 0.41299 0.65919 0.0
H4952 H 0.42353 0.4175 0.57993 0.0
H4953 H 0.40914 0.36494 0.62426 0.0
H4954 H 0.48043 0.41343 0.58251 0.0
H4955 H 0.47279 0.43435 0.60137 0.0
H4956 H 0.45858 0.43201 0.57563 0.0
H4957 H 0.46164 0.35042 0.63715 0.0
H4958 H 0.43493 0.35173 0.64953 0.0
H4959 H 0.45612 0.37071 0.65745 0.0
C4960 C 0.86294 0.65534 0.6731 0.0
C4961 C 0.84656 0.64041 0.66748 0.0
C4962 C 0.86995 0.65711 0.69491 0.0
C4963 C 0.85994 0.64399 0.71121 0.0
C4964 C 0.8421 0.63037 0.70576 0.0
C4965 C 0.83578 0.6286 0.68392 0.0
C4966 C 0.88882 0.67207 0.70036 0.0
C4967 C 0.83038 0.61685 0.7228 0.0
C4968 C 0.89775 0.62298 0.75509 0.0
C4969 C 0.8925 0.63645 0.77276 0.0
C4970 C 0.88686 0.6251 0.73515 0.0
C4971 C 0.87053 0.64134 0.73279 0.0
C4972 C 0.86464 0.65459 0.75084 0.0
C4973 C 0.87582 0.652 0.77075 0.0
C4974 C 0.89308 0.61013 0.71649 0.0
C4975 C 0.84723 0.67201 0.74899 0.0
H4976 H 0.87072 0.66497 0.66041 0.0
H4977 H 0.82228 0.61786 0.67968 0.0
H4978 H 0.88488 0.68214 0.71492 0.0
H4979 H 0.90344 0.6621 0.70444 0.0
H4980 H 0.893 0.68311 0.68656 0.0
H4981 H 0.81581 0.60834 0.71601 0.0
H4982 H 0.84169 0.60437 0.72957 0.0
H4983 H 0.82506 0.62739 0.73656 0.0
H4984 H 0.91062 0.61089 0.75683 0.0
H4985 H 0.87214 0.6627 0.78438 0.0
H4986 H 0.89908 0.61994 0.70246 0.0
H4987 H 0.87852 0.60086 0.71084 0.0
H4988 H 0.906 0.59823 0.72117 0.0
H4989 H 0.85418 0.68648 0.74054 0.0
H4990 H 0.84127 0.6773 0.76531 0.0
H4991 H 0.83309 0.6662 0.7392 0.0
C4992 C 0.90995 0.89527 0.56495 0.0
C4993 C 0.89217 0.88986 0.57851 0.0
C4994 C 0.911 0.88782 0.54332 0.0
C4995 C 0.8941 0.87429 0.53522 0.0
C4996 C 0.87668 0.86791 0.54911 0.0
C4997 C 0.87589 0.87582 0.57058 0.0
C4998 C 0.92953 0.89545 0.52888 0.0
C4999 C 0.85848 0.85324 0.54106 0.0
C5000 C 0.87958 0.86575 0.47571 0.0
C5001 C 0.88766 0.84456 0.47255 0.0
C5002 C 0.88308 0.87663 0.49563 0.0
C5003 C 0.89479 0.86588 0.51253 0.0
C5004 C 0.90466 0.84539 0.50852 0.0
C5005 C 0.90088 0.83493 0.48858 0.0
C5006 C 0.8729 0.89885 0.49915 0.0
C5007 C 0.9178 0.83373 0.5259 0.0
H5008 H 0.92242 0.90648 0.57073 0.0
H5009 H 0.86206 0.87173 0.58088 0.0
H5010 H 0.93632 0.88171 0.51919 0.0
H5011 H 0.92324 0.90779 0.51715 0.0
H5012 H 0.94298 0.90305 0.53846 0.0
H5013 H 0.8463 0.84956 0.55401 0.0
H5014 H 0.84987 0.86115 0.52717 0.0
H5015 H 0.86537 0.83758 0.53499 0.0
H5016 H 0.86934 0.87318 0.46329 0.0
H5017 H 0.90748 0.81868 0.48588 0.0
H5018 H 0.88463 0.91004 0.50732 0.0
H5019 H 0.85845 0.89721 0.50999 0.0
H5020 H 0.8675 0.9064 0.48352 0.0
H5021 H 0.93036 0.84483 0.53286 0.0
H5022 H 0.92608 0.81889 0.51947 0.0
H5023 H 0.90681 0.82876 0.53946 0.0
C5024 C 0.16018 0.84559 0.68217 0.0
C5025 C 0.14626 0.85272 0.66536 0.0
C5026 C 0.15343 0.84588 0.70393 0.0
C5027 C 0.13191 0.85258 0.70883 0.0
C5028 C 0.11747 0.85911 0.69184 0.0
C5029 C 0.12504 0.85961 0.6702 0.0
C5030 C 0.16954 0.83966 0.72164 0.0
C5031 C 0.09425 0.86604 0.69664 0.0
C5032 C 0.10293 0.83523 0.76016 0.0
C5033 C 0.10287 0.8548 0.77192 0.0
C5034 C 0.11384 0.83379 0.74017 0.0
C5035 C 0.12428 0.8526 0.73169 0.0
C5036 C 0.12555 0.87198 0.74433 0.0
C5037 C 0.11486 0.87279 0.76454 0.0
C5038 C 0.11279 0.81266 0.72742 0.0
C5039 C 0.13686 0.89224 0.73587 0.0
H5040 H 0.17691 0.841 0.6784 0.0
H5041 H 0.11457 0.86556 0.65718 0.0
H5042 H 0.17089 0.85302 0.73384 0.0
H5043 H 0.16366 0.82492 0.73041 0.0
H5044 H 0.18612 0.83624 0.71504 0.0
H5045 H 0.08489 0.8698 0.68152 0.0
H5046 H 0.0856 0.85289 0.70569 0.0
H5047 H 0.09432 0.88077 0.70723 0.0
H5048 H 0.09362 0.82137 0.76616 0.0
H5049 H 0.11455 0.88792 0.77381 0.0
H5050 H 0.12925 0.80809 0.72132 0.0
H5051 H 0.10203 0.81487 0.71296 0.0
H5052 H 0.10629 0.79895 0.73741 0.0
H5053 H 0.15362 0.88823 0.73019 0.0
H5054 H 0.13795 0.90528 0.74848 0.0
H5055 H 0.12772 0.89879 0.72161 0.0
C5056 C 0.12124 0.65104 0.49012 0.0
C5057 C 0.10771 0.64678 0.4722 0.0
C5058 C 0.11865 0.63963 0.50971 0.0
C5059 C 0.10179 0.62386 0.51152 0.0
C5060 C 0.08836 0.61906 0.49325 0.0
C5061 C 0.09153 0.63063 0.47365 0.0
C5062 C 0.13385 0.64466 0.52857 0.0
C5063 C 0.07023 0.60234 0.49458 0.0
C5064 C 0.11319 0.58638 0.55867 0.0
C5065 C 0.10209 0.59696 0.57572 0.0
C5066 C 0.11156 0.59374 0.53716 0.0
C5067 C 0.09882 0.61247 0.53266 0.0
C5068 C 0.08631 0.62233 0.54954 0.0
C5069 C 0.08792 0.61426 0.57102 0.0
C5070 C 0.12459 0.58227 0.51959 0.0
C5071 C 0.07223 0.6421 0.5451 0.0
H5072 H 0.1338 0.66352 0.48883 0.0
H5073 H 0.08082 0.62769 0.45983 0.0
H5074 H 0.12428 0.65063 0.54277 0.0
H5075 H 0.14248 0.62957 0.53378 0.0
H5076 H 0.14629 0.65721 0.52431 0.0
H5077 H 0.06377 0.59798 0.47816 0.0
H5078 H 0.07594 0.58721 0.50282 0.0
H5079 H 0.0566 0.60908 0.50446 0.0
H5080 H 0.12344 0.57232 0.56222 0.0
H5081 H 0.07888 0.62196 0.58417 0.0
H5082 H 0.13883 0.59255 0.51498 0.0
H5083 H 0.11454 0.57983 0.50469 0.0
H5084 H 0.13077 0.56608 0.52513 0.0
H5085 H 0.08287 0.65646 0.5419 0.0
H5086 H 0.06134 0.646 0.5591 0.0
H5087 H 0.06205 0.63944 0.53031 0.0
C5088 C 0.90495 0.37089 0.74155 0.0
C5089 C 0.89781 0.36086 0.72227 0.0
C5090 C 0.89288 0.36924 0.7608 0.0
C5091 C 0.8731 0.35723 0.76079 0.0
C5092 C 0.86532 0.34759 0.74123 0.0
C5093 C 0.87793 0.34938 0.72212 0.0
C5094 C 0.90151 0.38014 0.78126 0.0
C5095 C 0.84383 0.33542 0.74052 0.0
C5096 C 0.85916 0.33892 0.81806 0.0
C5097 C 0.84703 0.3569 0.82527 0.0
C5098 C 0.86657 0.33794 0.79635 0.0
C5099 C 0.86104 0.35499 0.78161 0.0
C5100 C 0.8472 0.37214 0.78842 0.0
C5101 C 0.84081 0.37315 0.81027 0.0
C5102 C 0.88118 0.31929 0.78946 0.0
C5103 C 0.84 0.3901 0.77305 0.0
H5104 H 0.92019 0.37998 0.74163 0.0
H5105 H 0.87254 0.34125 0.70735 0.0
H5106 H 0.88954 0.3924 0.78722 0.0
H5107 H 0.90371 0.3678 0.79438 0.0
H5108 H 0.9174 0.38852 0.77851 0.0
H5109 H 0.84067 0.32795 0.72426 0.0
H5110 H 0.84356 0.32236 0.7531 0.0
H5111 H 0.83023 0.34681 0.74434 0.0
H5112 H 0.86325 0.32599 0.82948 0.0
H5113 H 0.83047 0.38658 0.81553 0.0
H5114 H 0.89799 0.32555 0.78661 0.0
H5115 H 0.87534 0.31212 0.77385 0.0
H5116 H 0.88195 0.30617 0.802 0.0
H5117 H 0.85316 0.40254 0.7718 0.0
H5118 H 0.82494 0.39838 0.779 0.0
H5119 H 0.83681 0.38367 0.7564 0.0
C5120 C 0.58962 0.90309 0.43202 0.0
C5121 C 0.5988 0.89033 0.41532 0.0
C5122 C 0.58919 0.89568 0.45367 0.0
C5123 C 0.59729 0.87458 0.45852 0.0
C5124 C 0.60562 0.86119 0.44149 0.0
C5125 C 0.6068 0.86947 0.42009 0.0
C5126 C 0.58081 0.91074 0.47136 0.0
C5127 C 0.61377 0.83833 0.44601 0.0
C5128 C 0.61839 0.85919 0.51477 0.0
C5129 C 0.60137 0.8459 0.52232 0.0
C5130 C 0.61688 0.86953 0.49433 0.0
C5131 C 0.59779 0.86661 0.48145 0.0
C5132 C 0.57994 0.85452 0.48985 0.0
C5133 C 0.58206 0.84409 0.51014 0.0
C5134 C 0.63615 0.88254 0.48601 0.0
C5135 C 0.55898 0.85185 0.47704 0.0
H5136 H 0.58394 0.9195 0.42834 0.0
H5137 H 0.61417 0.85983 0.40718 0.0
H5138 H 0.56546 0.90405 0.47831 0.0
H5139 H 0.59284 0.91191 0.48491 0.0
H5140 H 0.57749 0.9275 0.46514 0.0
H5141 H 0.61859 0.82962 0.43083 0.0
H5142 H 0.62812 0.83902 0.45712 0.0
H5143 H 0.60087 0.82869 0.45438 0.0
H5144 H 0.63337 0.8604 0.5242 0.0
H5145 H 0.56885 0.83394 0.51623 0.0
H5146 H 0.63068 0.89876 0.47996 0.0
H5147 H 0.64374 0.87382 0.47204 0.0
H5148 H 0.64881 0.88503 0.49881 0.0
H5149 H 0.55129 0.86808 0.47444 0.0
H5150 H 0.54701 0.84113 0.48553 0.0
H5151 H 0.56248 0.84485 0.46069 0.0
C5152 C 0.15421 0.12513 0.80905 0.0
C5153 C 0.14342 0.13672 0.82561 0.0
C5154 C 0.14724 0.12634 0.78735 0.0
C5155 C 0.12868 0.1391 0.78219 0.0
C5156 C 0.11819 0.15155 0.79874 0.0
C5157 C 0.12593 0.15044 0.82038 0.0
C5158 C 0.15935 0.11341 0.77012 0.0
C5159 C 0.09834 0.16535 0.79371 0.0
C5160 C 0.11358 0.14992 0.72286 0.0
C5161 C 0.09731 0.13413 0.71966 0.0
C5162 C 0.12435 0.15163 0.74309 0.0
C5163 C 0.11861 0.13713 0.76023 0.0
C5164 C 0.10281 0.12059 0.7566 0.0
C5165 C 0.0922 0.11945 0.7364 0.0
C5166 C 0.14125 0.16934 0.74636 0.0
C5167 C 0.09673 0.10439 0.77424 0.0
H5168 H 0.16835 0.11518 0.81313 0.0
H5169 H 0.11806 0.15981 0.8332 0.0
H5170 H 0.14852 0.10047 0.76343 0.0
H5171 H 0.16403 0.12421 0.75633 0.0
H5172 H 0.1744 0.10558 0.77668 0.0
H5173 H 0.09337 0.1756 0.80785 0.0
H5174 H 0.10161 0.17615 0.77952 0.0
H5175 H 0.08445 0.15455 0.78921 0.0
H5176 H 0.11719 0.16145 0.70989 0.0
H5177 H 0.07959 0.10724 0.73374 0.0
H5178 H 0.15668 0.16227 0.75278 0.0
H5179 H 0.13529 0.18125 0.75867 0.0
H5180 H 0.14488 0.17828 0.73097 0.0
H5181 H 0.1115 0.09539 0.77977 0.0
H5182 H 0.08438 0.0923 0.76859 0.0
H5183 H 0.09004 0.11319 0.78862 0.0
C5184 C 0.37663 0.58926 0.43274 0.0
C5185 C 0.3894 0.59991 0.41694 0.0
C5186 C 0.37817 0.59479 0.45481 0.0
C5187 C 0.39234 0.6119 0.46111 0.0
C5188 C 0.40662 0.62146 0.44551 0.0
C5189 C 0.40516 0.61513 0.42347 0.0
C5190 C 0.36359 0.58328 0.47108 0.0
C5191 C 0.42246 0.63926 0.45194 0.0
C5192 C 0.36943 0.65141 0.50233 0.0
C5193 C 0.38167 0.64665 0.52105 0.0
C5194 C 0.37258 0.63982 0.48297 0.0
C5195 C 0.38853 0.62306 0.48223 0.0
C5196 C 0.40055 0.6176 0.50128 0.0
C5197 C 0.39693 0.62953 0.5206 0.0
C5198 C 0.35905 0.64584 0.46314 0.0
C5199 C 0.41715 0.59932 0.50133 0.0
H5200 H 0.36535 0.57646 0.4278 0.0
H5201 H 0.41572 0.62254 0.41132 0.0
H5202 H 0.37278 0.57931 0.4862 0.0
H5203 H 0.34987 0.59423 0.47569 0.0
H5204 H 0.35661 0.56791 0.46431 0.0
H5205 H 0.43427 0.64302 0.43866 0.0
H5206 H 0.41323 0.65438 0.45591 0.0
H5207 H 0.4317 0.63444 0.4668 0.0
H5208 H 0.35746 0.66451 0.50276 0.0
H5209 H 0.40661 0.62599 0.53501 0.0
H5210 H 0.34954 0.63145 0.4575 0.0
H5211 H 0.36995 0.65088 0.44953 0.0
H5212 H 0.34743 0.65939 0.4665 0.0
H5213 H 0.40848 0.58338 0.5018 0.0
H5214 H 0.42816 0.60018 0.51577 0.0
H5215 H 0.42724 0.59958 0.48626 0.0
C5216 C 0.7701 0.87911 0.64808 0.0
C5217 C 0.77045 0.90002 0.63868 0.0
C5218 C 0.75036 0.8675 0.65008 0.0
C5219 C 0.73067 0.87724 0.64267 0.0
C5220 C 0.73095 0.89854 0.63371 0.0
C5221 C 0.75081 0.90965 0.63184 0.0
C5222 C 0.75066 0.84469 0.65954 0.0
C5223 C 0.7103 0.90941 0.62546 0.0
C5224 C 0.6828 0.84536 0.62089 0.0
C5225 C 0.66762 0.84724 0.63795 0.0
C5226 C 0.70398 0.85362 0.62297 0.0
C5227 C 0.7099 0.8648 0.6423 0.0
C5228 C 0.69481 0.86646 0.6598 0.0
C5229 C 0.67385 0.85725 0.65757 0.0
C5230 C 0.71982 0.85083 0.60422 0.0
C5231 C 0.70068 0.87835 0.68062 0.0
H5232 H 0.78514 0.87191 0.65407 0.0
H5233 H 0.751 0.92584 0.62461 0.0
H5234 H 0.73806 0.84301 0.67246 0.0
H5235 H 0.74664 0.83267 0.64655 0.0
H5236 H 0.76688 0.84039 0.66656 0.0
H5237 H 0.71314 0.92658 0.62023 0.0
H5238 H 0.70371 0.90014 0.61132 0.0
H5239 H 0.69759 0.90933 0.63839 0.0
H5240 H 0.67831 0.83677 0.60603 0.0
H5241 H 0.66227 0.8581 0.67095 0.0
H5242 H 0.73574 0.84451 0.61024 0.0
H5243 H 0.72295 0.86693 0.59645 0.0
H5244 H 0.71351 0.83944 0.59153 0.0
H5245 H 0.7156 0.87105 0.68795 0.0
H5246 H 0.68727 0.87779 0.69285 0.0
H5247 H 0.70447 0.89572 0.67692 0.0
C5248 C 0.67602 0.13253 0.87205 0.0
C5249 C 0.66507 0.14001 0.85332 0.0
C5250 C 0.69718 0.1239 0.87074 0.0
C5251 C 0.70758 0.12236 0.85016 0.0
C5252 C 0.69652 0.12944 0.83109 0.0
C5253 C 0.67533 0.13815 0.83288 0.0
C5254 C 0.70855 0.11676 0.8915 0.0
C5255 C 0.70711 0.12794 0.80885 0.0
C5256 C 0.76917 0.11377 0.85162 0.0
C5257 C 0.77049 0.09082 0.85167 0.0
C5258 C 0.74881 0.12445 0.85067 0.0
C5259 C 0.72943 0.11189 0.8487 0.0
C5260 C 0.73076 0.08889 0.84713 0.0
C5261 C 0.75115 0.07867 0.84892 0.0
C5262 C 0.74798 0.14908 0.85249 0.0
C5263 C 0.71051 0.07496 0.84439 0.0
H5264 H 0.66831 0.13404 0.88792 0.0
H5265 H 0.66715 0.14423 0.81837 0.0
H5266 H 0.71242 0.09905 0.89065 0.0
H5267 H 0.72428 0.12566 0.89333 0.0
H5268 H 0.69846 0.11975 0.90628 0.0
H5269 H 0.69688 0.13545 0.79584 0.0
H5270 H 0.72327 0.13619 0.80901 0.0
H5271 H 0.71001 0.11053 0.80464 0.0
H5272 H 0.78384 0.12355 0.85225 0.0
H5273 H 0.7518 0.06096 0.8485 0.0
H5274 H 0.73922 0.15378 0.86766 0.0
H5275 H 0.73871 0.15614 0.83858 0.0
H5276 H 0.76455 0.15655 0.85286 0.0
H5277 H 0.70044 0.07584 0.85944 0.0
H5278 H 0.71452 0.05753 0.84117 0.0
H5279 H 0.70035 0.08119 0.8307 0.0
C5280 C 0.3971 0.06338 0.41008 0.0
C5281 C 0.38927 0.07823 0.39434 0.0
C5282 C 0.38967 0.04175 0.41066 0.0
C5283 C 0.37353 0.035 0.39559 0.0
C5284 C 0.36448 0.05023 0.38063 0.0
C5285 C 0.37259 0.07168 0.38007 0.0
C5286 C 0.40019 0.02587 0.42642 0.0
C5287 C 0.34686 0.0436 0.36461 0.0
C5288 C 0.36535 0.97633 0.37775 0.0
C5289 C 0.34612 0.97116 0.38899 0.0
C5290 C 0.37543 -0.00327 0.38074 0.0
C5291 C 0.3659 0.01204 0.39531 0.0
C5292 C 0.34755 0.00607 0.40799 0.0
C5293 C 0.33775 0.98571 0.40454 0.0
C5294 C 0.39536 0.00241 0.36733 0.0
C5295 C 0.33746 0.02169 0.42422 0.0
H5296 H 0.41025 0.06813 0.42101 0.0
H5297 H 0.36655 0.08302 0.36784 0.0
H5298 H 0.38775 0.01529 0.43433 0.0
H5299 H 0.41151 0.01502 0.41729 0.0
H5300 H 0.40972 0.03439 0.43934 0.0
H5301 H 0.34094 0.05762 0.35468 0.0
H5302 H 0.35327 0.03087 0.3534 0.0
H5303 H 0.33275 0.0364 0.37347 0.0
H5304 H 0.37171 0.96505 0.36566 0.0
H5305 H 0.32302 0.98144 0.41345 0.0
H5306 H 0.40821 0.0098 0.3778 0.0
H5307 H 0.39086 0.01469 0.35475 0.0
H5308 H 0.4023 0.98785 0.35896 0.0
H5309 H 0.35015 0.02813 0.4355 0.0
H5310 H 0.32436 0.01384 0.43407 0.0
H5311 H 0.33034 0.03587 0.4154 0.0
C5312 C 0.30745 0.33648 0.86702 0.0
C5313 C 0.3247 0.34708 0.85625 0.0
C5314 C 0.28609 0.34446 0.86584 0.0
C5315 C 0.28194 0.3638 0.8539 0.0
C5316 C 0.2992 0.37425 0.8424 0.0
C5317 C 0.32047 0.36552 0.84344 0.0
C5318 C 0.26808 0.33241 0.87774 0.0
C5319 C 0.29529 0.39502 0.82965 0.0
C5320 C 0.22338 0.38077 0.84157 0.0
C5321 C 0.21989 0.39627 0.85802 0.0
C5322 C 0.24349 0.36971 0.84008 0.0
C5323 C 0.26018 0.37435 0.85549 0.0
C5324 C 0.25625 0.38938 0.87263 0.0
C5325 C 0.2362 0.40033 0.87353 0.0
C5326 C 0.2471 0.35364 0.82171 0.0
C5327 C 0.27338 0.39421 0.8898 0.0
H5328 H 0.31068 0.32167 0.87626 0.0
H5329 H 0.33381 0.37337 0.8348 0.0
H5330 H 0.2603 0.34332 0.88995 0.0
H5331 H 0.25518 0.32739 0.866 0.0
H5332 H 0.27418 0.31757 0.88629 0.0
H5333 H 0.31 0.40023 0.82034 0.0
H5334 H 0.28149 0.39278 0.81807 0.0
H5335 H 0.29066 0.40835 0.84105 0.0
H5336 H 0.21076 0.37795 0.82943 0.0
H5337 H 0.23331 0.41233 0.88627 0.0
H5338 H 0.25283 0.33773 0.82828 0.0
H5339 H 0.26007 0.35986 0.81066 0.0
H5340 H 0.232 0.35085 0.81196 0.0
H5341 H 0.27819 0.37888 0.89826 0.0
H5342 H 0.26753 0.40606 0.90225 0.0
H5343 H 0.28828 0.40096 0.88195 0.0
C5344 C 0.13061 0.01726 0.8756 0.0
C5345 C 0.1493 0.02105 0.88838 0.0
C5346 C 0.11945 -0.00279 0.8768 0.0
C5347 C 0.12748 0.98059 0.89081 0.0
C5348 C 0.14568 0.98476 0.90446 0.0
C5349 C 0.15636 0.00494 0.90307 0.0
C5350 C 0.09968 0.99349 0.86242 0.0
C5351 C 0.15456 0.9675 0.91975 0.0
C5352 C 0.09347 0.9306 0.90425 0.0
C5353 C 0.1011 0.91544 0.88877 0.0
C5354 C 0.10155 0.95202 0.90484 0.0
C5355 C 0.11814 0.95823 0.89002 0.0
C5356 C 0.12651 0.94281 0.87489 0.0
C5357 C 0.11772 0.92162 0.8743 0.0
C5358 C 0.09172 0.96822 0.92068 0.0
C5359 C 0.14438 0.94886 0.85897 0.0
H5360 H 0.12531 0.02946 0.86392 0.0
H5361 H 0.17069 0.00792 0.9131 0.0
H5362 H 0.10351 0.98097 0.84988 0.0
H5363 H 0.08581 0.98717 0.87225 0.0
H5364 H 0.09438 0.00869 0.85398 0.0
H5365 H 0.16795 0.97385 0.93029 0.0
H5366 H 0.14135 0.9611 0.9304 0.0
H5367 H 0.16095 0.95353 0.91009 0.0
H5368 H 0.08019 0.92616 0.91512 0.0
H5369 H 0.12342 0.91008 0.86212 0.0
H5370 H 0.08372 0.98167 0.91149 0.0
H5371 H 0.10469 0.97569 0.93094 0.0
H5372 H 0.07935 0.96056 0.93157 0.0
H5373 H 0.13853 0.962 0.8479 0.0
H5374 H 0.14967 0.93472 0.84887 0.0
H5375 H 0.1588 0.95533 0.86793 0.0
C5376 C 0.72458 0.1103 0.15602 0.0
C5377 C 0.7203 0.09621 0.13852 0.0
C5378 C 0.74486 0.12099 0.15767 0.0
C5379 C 0.76087 0.11751 0.1413 0.0
C5380 C 0.75603 0.10409 0.12307 0.0
C5381 C 0.73584 0.09339 0.12204 0.0
C5382 C 0.74941 0.13541 0.17718 0.0
C5383 C 0.77242 0.10052 0.10494 0.0
C5384 C 0.80842 0.15547 0.1316 0.0
C5385 C 0.82587 0.14344 0.14038 0.0
C5386 C 0.78694 0.14784 0.13292 0.0
C5387 C 0.78288 0.12751 0.14309 0.0
C5388 C 0.80037 0.11568 0.15282 0.0
C5389 C 0.82182 0.12395 0.15154 0.0
C5390 C 0.7688 0.16115 0.12264 0.0
C5391 C 0.79648 0.09391 0.16378 0.0
H5392 H 0.71243 0.11222 0.16878 0.0
H5393 H 0.7323 0.08243 0.10855 0.0
H5394 H 0.76347 0.12879 0.18657 0.0
H5395 H 0.75403 0.15208 0.1717 0.0
H5396 H 0.73508 0.13669 0.18825 0.0
H5397 H 0.76567 0.09035 0.09147 0.0
H5398 H 0.77769 0.11646 0.09805 0.0
H5399 H 0.7872 0.09232 0.11155 0.0
H5400 H 0.81167 0.17092 0.12347 0.0
H5401 H 0.83538 0.11493 0.15855 0.0
H5402 H 0.7557 0.16431 0.13475 0.0
H5403 H 0.76134 0.15188 0.10894 0.0
H5404 H 0.77474 0.1771 0.11626 0.0
H5405 H 0.78344 0.09546 0.17628 0.0
H5406 H 0.8115 0.08743 0.17172 0.0
H5407 H 0.79075 0.08184 0.1515 0.0
C5408 C 0.33349 0.00162 0.09343 0.0
C5409 C 0.3441 0.02051 0.10104 0.0
C5410 C 0.34458 0.98175 0.09161 0.0
C5411 C 0.36705 0.98083 0.09692 0.0
C5412 C 0.37841 0.00017 0.1027 0.0
C5413 C 0.36669 0.01979 0.1051 0.0
C5414 C 0.33181 0.96141 0.08569 0.0
C5415 C 0.40265 -0.00011 0.10756 0.0
C5416 C 0.38543 0.92712 0.12144 0.0
C5417 C 0.3947 0.91657 0.10335 0.0
C5418 C 0.37688 0.94828 0.11961 0.0
C5419 C 0.37764 0.95917 0.09919 0.0
C5420 C 0.38682 0.94863 0.08081 0.0
C5421 C 0.39499 0.92733 0.08304 0.0
C5422 C 0.36718 0.95905 0.1396 0.0
C5423 C 0.38829 0.95993 0.0589 0.0
H5424 H 0.31611 0.00207 0.08989 0.0
H5425 H 0.3751 0.03404 0.1113 0.0
H5426 H 0.34003 0.95241 0.07229 0.0
H5427 H 0.33115 0.95031 0.10004 0.0
H5428 H 0.31479 0.96518 0.08055 0.0
H5429 H 0.40951 0.01665 0.10911 0.0
H5430 H 0.40568 0.99099 0.12306 0.0
H5431 H 0.4116 0.9911 0.09446 0.0
H5432 H 0.38537 0.91906 0.13723 0.0
H5433 H 0.40244 0.9195 0.06901 0.0
H5434 H 0.34985 0.96346 0.13644 0.0
H5435 H 0.3761 0.97442 0.14331 0.0
H5436 H 0.36788 0.94834 0.15425 0.0
H5437 H 0.37168 0.96181 0.05184 0.0
H5438 H 0.39852 0.95066 0.0471 0.0
H5439 H 0.39527 0.97659 0.06081 0.0
C5440 C 0.65393 0.48569 0.08828 0.0
C5441 C 0.64607 0.4695 0.10242 0.0
C5442 C 0.64236 0.50515 0.08513 0.0
C5443 C 0.6226 0.50851 0.09662 0.0
C5444 C 0.61355 0.49137 0.10931 0.0
C5445 C 0.62548 0.47194 0.11212 0.0
C5446 C 0.65228 0.52283 0.07102 0.0
C5447 C 0.59199 0.49411 0.121 0.0
C5448 C 0.61295 0.56653 0.11594 0.0
C5449 C 0.59807 0.57425 0.10037 0.0
C5450 C 0.62097 0.54509 0.11484 0.0
C5451 C 0.61352 0.53093 0.09804 0.0
C5452 C 0.59843 0.53861 0.0823 0.0
C5453 C 0.5912 0.56033 0.08342 0.0
C5454 C 0.63714 0.53746 0.13191 0.0
C5455 C 0.5897 0.52393 0.06444 0.0
H5456 H 0.66971 0.48356 0.08047 0.0
H5457 H 0.6194 0.4594 0.12306 0.0
H5458 H 0.63984 0.5297 0.05975 0.0
H5459 H 0.65817 0.53638 0.08157 0.0
H5460 H 0.66627 0.51668 0.0612 0.0
H5461 H 0.58653 0.47875 0.12904 0.0
H5462 H 0.59344 0.50707 0.13362 0.0
H5463 H 0.5792 0.49939 0.10925 0.0
H5464 H 0.61798 0.57715 0.12922 0.0
H5465 H 0.57922 0.56603 0.07163 0.0
H5466 H 0.65234 0.53163 0.12389 0.0
H5467 H 0.63018 0.52347 0.14115 0.0
H5468 H 0.64148 0.55059 0.14368 0.0
H5469 H 0.6023 0.52198 0.05157 0.0
H5470 H 0.57472 0.53079 0.05674 0.0
H5471 H 0.58585 0.5074 0.07086 0.0
loop_
_geom_bond_atom_site_label_1
_geom_bond_atom_site_label_2
_geom_bond_distance
_geom_bond_site_symmetry_2
_ccdc_geom_bond_type
Co0 O3 1.970 . S
Co0 N17 1.989 . S
Co0 O25 1.967 . S
Co0 O32 1.920 . S
Co1 O4 1.966 . S
Co1 N10 2.022 . S
Co1 N18 1.993 . S
Co1 O26 1.941 . S
C2 O3 1.258 . S
C2 O4 1.263 . S
O3 Co0 1.970 . S
O3 C2 1.258 . S
O4 Co1 1.966 . S
O4 C2 1.263 . S
C5 O6 1.235 . S
C5 O32 1.289 . S
O6 C5 1.235 . S
C7 C9 1.400 . S
C7 N10 1.351 . S
C7 C12 1.501 . S
C8 C9 1.387 . S
C8 N11 1.341 . S
C9 C7 1.400 . S
C9 C8 1.387 . S
N10 Co1 2.022 . S
N10 C7 1.351 . S
N10 N11 1.365 . S
N11 C8 1.341 . S
N11 N10 1.365 . S
N11 H31 0.862 . S
C12 C7 1.501 . S
C12 H13 0.961 . S
C12 H14 0.961 . S
C12 H15 0.960 . S
H13 C12 0.961 . S
H14 C12 0.961 . S
H15 C12 0.960 . S
C16 N17 1.342 . S
C16 C20 1.401 . S
C16 C21 1.499 . S
N17 Co0 1.989 . S
N17 C16 1.342 . S
N17 N18 1.388 . S
N18 Co1 1.993 . S
N18 N17 1.388 . S
N18 C19 1.346 . S
C19 N18 1.346 . S
C19 C20 1.396 . S
C19 C29 1.510 . S
C20 C16 1.401 . S
C20 C19 1.396 . S
C21 C16 1.499 . S
C21 H22 0.959 . S
C21 H23 0.960 . S
C21 H24 0.961 . S
H22 C21 0.959 . S
H23 C21 0.960 . S
H24 C21 0.961 . S
O25 Co0 1.967 . S
O25 C33 1.258 . S
O26 Co1 1.941 . S
O26 C33 1.266 . S
H27 C29 0.959 . S
H28 C29 0.961 . S
C29 C19 1.510 . S
C29 H27 0.959 . S
C29 H28 0.961 . S
C29 H30 0.960 . S
H30 C29 0.960 . S
H31 N11 0.862 . S
O32 Co0 1.920 . S
O32 C5 1.289 . S
C33 O25 1.258 . S
C33 O26 1.266 . S
Co34 O37 1.970 . S
Co34 N51 1.989 . S
Co34 O59 1.967 . S
Co34 O66 1.920 . S
Co35 O38 1.966 . S
Co35 N44 2.022 . S
Co35 N52 1.993 . S
Co35 O60 1.941 . S
C36 O37 1.258 . S
C36 O38 1.263 . S
O37 Co34 1.970 . S
O37 C36 1.258 . S
O38 Co35 1.966 . S
O38 C36 1.263 . S
C39 O40 1.235 . S
C39 O66 1.289 . S
O40 C39 1.235 . S
C41 C43 1.400 . S
C41 N44 1.351 . S
C41 C46 1.501 . S
C42 C43 1.387 . S
C42 N45 1.341 . S
C43 C41 1.400 . S
C43 C42 1.387 . S
N44 Co35 2.022 . S
N44 C41 1.351 . S
N44 N45 1.365 . S
N45 C42 1.341 . S
N45 N44 1.365 . S
N45 H65 0.862 . S
C46 C41 1.501 . S
C46 H47 0.961 . S
C46 H48 0.961 . S
C46 H49 0.960 . S
H47 C46 0.961 . S
H48 C46 0.961 . S
H49 C46 0.960 . S
C50 N51 1.342 . S
C50 C54 1.401 . S
C50 C55 1.499 . S
N51 Co34 1.989 . S
N51 C50 1.342 . S
N51 N52 1.388 . S
N52 Co35 1.993 . S
N52 N51 1.388 . S
N52 C53 1.346 . S
C53 N52 1.346 . S
C53 C54 1.396 . S
C53 C63 1.510 . S
C54 C50 1.401 . S
C54 C53 1.396 . S
C55 C50 1.499 . S
C55 H56 0.959 . S
C55 H57 0.960 . S
C55 H58 0.961 . S
H56 C55 0.959 . S
H57 C55 0.960 . S
H58 C55 0.961 . S
O59 Co34 1.967 . S
O59 C67 1.258 . S
O60 Co35 1.941 . S
O60 C67 1.266 . S
H61 C63 0.959 . S
H62 C63 0.961 . S
C63 C53 1.510 . S
C63 H61 0.959 . S
C63 H62 0.961 . S
C63 H64 0.960 . S
H64 C63 0.960 . S
H65 N45 0.862 . S
O66 Co34 1.920 . S
O66 C39 1.289 . S
C67 O59 1.258 . S
C67 O60 1.266 . S
Co68 O71 1.970 . S
Co68 N85 1.989 . S
Co68 O93 1.967 . S
Co68 O100 1.920 . S
Co69 O72 1.966 . S
Co69 N78 2.022 . S
Co69 N86 1.993 . S
Co69 O94 1.941 . S
C70 O71 1.258 . S
C70 O72 1.263 . S
O71 Co68 1.970 . S
O71 C70 1.258 . S
O72 Co69 1.966 . S
O72 C70 1.263 . S
C73 O74 1.235 . S
C73 O100 1.289 . S
O74 C73 1.235 . S
C75 C77 1.400 . S
C75 N78 1.351 . S
C75 C80 1.501 . S
C76 C77 1.387 . S
C76 N79 1.341 . S
C77 C75 1.400 . S
C77 C76 1.387 . S
N78 Co69 2.022 . S
N78 C75 1.351 . S
N78 N79 1.365 . S
N79 C76 1.341 . S
N79 N78 1.365 . S
N79 H99 0.862 . S
C80 C75 1.501 . S
C80 H81 0.961 . S
C80 H82 0.961 . S
C80 H83 0.960 . S
H81 C80 0.961 . S
H82 C80 0.961 . S
H83 C80 0.960 . S
C84 N85 1.342 . S
C84 C88 1.401 . S
C84 C89 1.499 . S
N85 Co68 1.989 . S
N85 C84 1.342 . S
N85 N86 1.388 . S
N86 Co69 1.993 . S
N86 N85 1.388 . S
N86 C87 1.346 . S
C87 N86 1.346 . S
C87 C88 1.396 . S
C87 C97 1.510 . S
C88 C84 1.401 . S
C88 C87 1.396 . S
C89 C84 1.499 . S
C89 H90 0.959 . S
C89 H91 0.960 . S
C89 H92 0.961 . S
H90 C89 0.959 . S
H91 C89 0.960 . S
H92 C89 0.961 . S
O93 Co68 1.967 . S
O93 C101 1.258 . S
O94 Co69 1.941 . S
O94 C101 1.266 . S
H95 C97 0.959 . S
H96 C97 0.961 . S
C97 C87 1.510 . S
C97 H95 0.959 . S
C97 H96 0.961 . S
C97 H98 0.960 . S
H98 C97 0.960 . S
H99 N79 0.862 . S
O100 Co68 1.920 . S
O100 C73 1.289 . S
C101 O93 1.258 . S
C101 O94 1.266 . S
Co102 O105 1.970 . S
Co102 N119 1.989 . S
Co102 O127 1.967 . S
Co102 O134 1.920 . S
Co103 O106 1.966 . S
Co103 N112 2.022 . S
Co103 N120 1.993 . S
Co103 O128 1.941 . S
C104 O105 1.258 . S
C104 O106 1.263 . S
O105 Co102 1.970 . S
O105 C104 1.258 . S
O106 Co103 1.966 . S
O106 C104 1.263 . S
C107 O108 1.235 . S
C107 O134 1.289 . S
O108 C107 1.235 . S
C109 C111 1.400 . S
C109 N112 1.351 . S
C109 C114 1.501 . S
C110 C111 1.387 . S
C110 N113 1.341 . S
C111 C109 1.400 . S
C111 C110 1.387 . S
N112 Co103 2.022 . S
N112 C109 1.351 . S
N112 N113 1.365 . S
N113 C110 1.341 . S
N113 N112 1.365 . S
N113 H133 0.862 . S
C114 C109 1.501 . S
C114 H115 0.961 . S
C114 H116 0.961 . S
C114 H117 0.960 . S
H115 C114 0.961 . S
H116 C114 0.961 . S
H117 C114 0.960 . S
C118 N119 1.342 . S
C118 C122 1.401 . S
C118 C123 1.499 . S
N119 Co102 1.989 . S
N119 C118 1.342 . S
N119 N120 1.388 . S
N120 Co103 1.993 . S
N120 N119 1.388 . S
N120 C121 1.346 . S
C121 N120 1.346 . S
C121 C122 1.396 . S
C121 C131 1.510 . S
C122 C118 1.401 . S
C122 C121 1.396 . S
C123 C118 1.499 . S
C123 H124 0.959 . S
C123 H125 0.960 . S
C123 H126 0.961 . S
H124 C123 0.959 . S
H125 C123 0.960 . S
H126 C123 0.961 . S
O127 Co102 1.967 . S
O127 C135 1.258 . S
O128 Co103 1.941 . S
O128 C135 1.266 . S
H129 C131 0.959 . S
H130 C131 0.961 . S
C131 C121 1.510 . S
C131 H129 0.959 . S
C131 H130 0.961 . S
C131 H132 0.960 . S
H132 C131 0.960 . S
H133 N113 0.862 . S
O134 Co102 1.920 . S
O134 C107 1.289 . S
C135 O127 1.258 . S
C135 O128 1.266 . S
Co136 O139 1.970 . S
Co136 N153 1.989 . S
Co136 O161 1.967 . S
Co136 O168 1.920 . S
Co137 O140 1.966 . S
Co137 N146 2.022 . S
Co137 N154 1.993 . S
Co137 O162 1.941 . S
C138 O139 1.258 . S
C138 O140 1.263 . S
O139 Co136 1.970 . S
O139 C138 1.258 . S
O140 Co137 1.966 . S
O140 C138 1.263 . S
C141 O142 1.235 . S
C141 O168 1.289 . S
O142 C141 1.235 . S
C143 C145 1.400 . S
C143 N146 1.351 . S
C143 C148 1.501 . S
C144 C145 1.387 . S
C144 N147 1.341 . S
C145 C143 1.400 . S
C145 C144 1.387 . S
N146 Co137 2.022 . S
N146 C143 1.351 . S
N146 N147 1.365 . S
N147 C144 1.341 . S
N147 N146 1.365 . S
N147 H167 0.862 . S
C148 C143 1.501 . S
C148 H149 0.961 . S
C148 H150 0.961 . S
C148 H151 0.960 . S
H149 C148 0.961 . S
H150 C148 0.961 . S
H151 C148 0.960 . S
C152 N153 1.342 . S
C152 C156 1.401 . S
C152 C157 1.499 . S
N153 Co136 1.989 . S
N153 C152 1.342 . S
N153 N154 1.388 . S
N154 Co137 1.993 . S
N154 N153 1.388 . S
N154 C155 1.346 . S
C155 N154 1.346 . S
C155 C156 1.396 . S
C155 C165 1.510 . S
C156 C152 1.401 . S
C156 C155 1.396 . S
C157 C152 1.499 . S
C157 H158 0.959 . S
C157 H159 0.960 . S
C157 H160 0.961 . S
H158 C157 0.959 . S
H159 C157 0.960 . S
H160 C157 0.961 . S
O161 Co136 1.967 . S
O161 C169 1.258 . S
O162 Co137 1.941 . S
O162 C169 1.266 . S
H163 C165 0.959 . S
H164 C165 0.961 . S
C165 C155 1.510 . S
C165 H163 0.959 . S
C165 H164 0.961 . S
C165 H166 0.960 . S
H166 C165 0.960 . S
H167 N147 0.862 . S
O168 Co136 1.920 . S
O168 C141 1.289 . S
C169 O161 1.258 . S
C169 O162 1.266 . S
Co170 O173 1.970 . S
Co170 N187 1.989 . S
Co170 O195 1.967 . S
Co170 O202 1.920 . S
Co171 O174 1.966 . S
Co171 N180 2.022 . S
Co171 N188 1.993 . S
Co171 O196 1.941 . S
C172 O173 1.258 . S
C172 O174 1.263 . S
O173 Co170 1.970 . S
O173 C172 1.258 . S
O174 Co171 1.966 . S
O174 C172 1.263 . S
C175 O176 1.235 . S
C175 O202 1.289 . S
O176 C175 1.235 . S
C177 C179 1.400 . S
C177 N180 1.351 . S
C177 C182 1.501 . S
C178 C179 1.387 . S
C178 N181 1.341 . S
C179 C177 1.400 . S
C179 C178 1.387 . S
N180 Co171 2.022 . S
N180 C177 1.351 . S
N180 N181 1.365 . S
N181 C178 1.341 . S
N181 N180 1.365 . S
N181 H201 0.862 . S
C182 C177 1.501 . S
C182 H183 0.961 . S
C182 H184 0.961 . S
C182 H185 0.960 . S
H183 C182 0.961 . S
H184 C182 0.961 . S
H185 C182 0.960 . S
C186 N187 1.342 . S
C186 C190 1.401 . S
C186 C191 1.499 . S
N187 Co170 1.989 . S
N187 C186 1.342 . S
N187 N188 1.388 . S
N188 Co171 1.993 . S
N188 N187 1.388 . S
N188 C189 1.346 . S
C189 N188 1.346 . S
C189 C190 1.396 . S
C189 C199 1.510 . S
C190 C186 1.401 . S
C190 C189 1.396 . S
C191 C186 1.499 . S
C191 H192 0.959 . S
C191 H193 0.960 . S
C191 H194 0.961 . S
H192 C191 0.959 . S
H193 C191 0.960 . S
H194 C191 0.961 . S
O195 Co170 1.967 . S
O195 C203 1.258 . S
O196 Co171 1.941 . S
O196 C203 1.266 . S
H197 C199 0.959 . S
H198 C199 0.961 . S
C199 C189 1.510 . S
C199 H197 0.959 . S
C199 H198 0.961 . S
C199 H200 0.960 . S
H200 C199 0.960 . S
H201 N181 0.862 . S
O202 Co170 1.920 . S
O202 C175 1.289 . S
C203 O195 1.258 . S
C203 O196 1.266 . S
Co204 O207 1.970 . S
Co204 N221 1.989 . S
Co204 O229 1.967 . S
Co204 O236 1.920 . S
Co205 O208 1.966 . S
Co205 N214 2.022 . S
Co205 N222 1.993 . S
Co205 O230 1.941 . S
C206 O207 1.258 . S
C206 O208 1.263 . S
O207 Co204 1.970 . S
O207 C206 1.258 . S
O208 Co205 1.966 . S
O208 C206 1.263 . S
C209 O210 1.235 . S
C209 O236 1.289 . S
O210 C209 1.235 . S
C211 C213 1.400 . S
C211 N214 1.351 . S
C211 C216 1.501 . S
C212 C213 1.387 . S
C212 N215 1.341 . S
C213 C211 1.400 . S
C213 C212 1.387 . S
N214 Co205 2.022 . S
N214 C211 1.351 . S
N214 N215 1.365 . S
N215 C212 1.341 . S
N215 N214 1.365 . S
N215 H235 0.862 . S
C216 C211 1.501 . S
C216 H217 0.961 . S
C216 H218 0.961 . S
C216 H219 0.960 . S
H217 C216 0.961 . S
H218 C216 0.961 . S
H219 C216 0.960 . S
C220 N221 1.342 . S
C220 C224 1.401 . S
C220 C225 1.499 . S
N221 Co204 1.989 . S
N221 C220 1.342 . S
N221 N222 1.388 . S
N222 Co205 1.993 . S
N222 N221 1.388 . S
N222 C223 1.346 . S
C223 N222 1.346 . S
C223 C224 1.396 . S
C223 C233 1.510 . S
C224 C220 1.401 . S
C224 C223 1.396 . S
C225 C220 1.499 . S
C225 H226 0.959 . S
C225 H227 0.960 . S
C225 H228 0.961 . S
H226 C225 0.959 . S
H227 C225 0.960 . S
H228 C225 0.961 . S
O229 Co204 1.967 . S
O229 C237 1.258 . S
O230 Co205 1.941 . S
O230 C237 1.266 . S
H231 C233 0.959 . S
H232 C233 0.961 . S
C233 C223 1.510 . S
C233 H231 0.959 . S
C233 H232 0.961 . S
C233 H234 0.960 . S
H234 C233 0.960 . S
H235 N215 0.862 . S
O236 Co204 1.920 . S
O236 C209 1.289 . S
C237 O229 1.258 . S
C237 O230 1.266 . S
Co238 O241 1.970 . S
Co238 N255 1.989 . S
Co238 O263 1.967 . S
Co238 O270 1.920 . S
Co239 O242 1.966 . S
Co239 N248 2.022 . S
Co239 N256 1.993 . S
Co239 O264 1.941 . S
C240 O241 1.258 . S
C240 O242 1.263 . S
O241 Co238 1.970 . S
O241 C240 1.258 . S
O242 Co239 1.966 . S
O242 C240 1.263 . S
C243 O244 1.235 . S
C243 O270 1.289 . S
O244 C243 1.235 . S
C245 C247 1.400 . S
C245 N248 1.351 . S
C245 C250 1.501 . S
C246 C247 1.387 . S
C246 N249 1.341 . S
C247 C245 1.400 . S
C247 C246 1.387 . S
N248 Co239 2.022 . S
N248 C245 1.351 . S
N248 N249 1.365 . S
N249 C246 1.341 . S
N249 N248 1.365 . S
N249 H269 0.862 . S
C250 C245 1.501 . S
C250 H251 0.961 . S
C250 H252 0.961 . S
C250 H253 0.960 . S
H251 C250 0.961 . S
H252 C250 0.961 . S
H253 C250 0.960 . S
C254 N255 1.342 . S
C254 C258 1.401 . S
C254 C259 1.499 . S
N255 Co238 1.989 . S
N255 C254 1.342 . S
N255 N256 1.388 . S
N256 Co239 1.993 . S
N256 N255 1.388 . S
N256 C257 1.346 . S
C257 N256 1.346 . S
C257 C258 1.396 . S
C257 C267 1.510 . S
C258 C254 1.401 . S
C258 C257 1.396 . S
C259 C254 1.499 . S
C259 H260 0.959 . S
C259 H261 0.960 . S
C259 H262 0.961 . S
H260 C259 0.959 . S
H261 C259 0.960 . S
H262 C259 0.961 . S
O263 Co238 1.967 . S
O263 C271 1.258 . S
O264 Co239 1.941 . S
O264 C271 1.266 . S
H265 C267 0.959 . S
H266 C267 0.961 . S
C267 C257 1.510 . S
C267 H265 0.959 . S
C267 H266 0.961 . S
C267 H268 0.960 . S
H268 C267 0.960 . S
H269 N249 0.862 . S
O270 Co238 1.920 . S
O270 C243 1.289 . S
C271 O263 1.258 . S
C271 O264 1.266 . S
Co272 O275 1.970 . S
Co272 N289 1.989 . S
Co272 O297 1.967 . S
Co272 O304 1.920 . S
Co273 O276 1.966 . S
Co273 N282 2.022 . S
Co273 N290 1.993 . S
Co273 O298 1.941 . S
C274 O275 1.258 . S
C274 O276 1.263 . S
O275 Co272 1.970 . S
O275 C274 1.258 . S
O276 Co273 1.966 . S
O276 C274 1.263 . S
C277 O278 1.235 . S
C277 O304 1.289 . S
O278 C277 1.235 . S
C279 C281 1.400 . S
C279 N282 1.351 . S
C279 C284 1.501 . S
C280 C281 1.387 . S
C280 N283 1.341 . S
C281 C279 1.400 . S
C281 C280 1.387 . S
N282 Co273 2.022 . S
N282 C279 1.351 . S
N282 N283 1.365 . S
N283 C280 1.341 . S
N283 N282 1.365 . S
N283 H303 0.862 . S
C284 C279 1.501 . S
C284 H285 0.961 . S
C284 H286 0.961 . S
C284 H287 0.960 . S
H285 C284 0.961 . S
H286 C284 0.961 . S
H287 C284 0.960 . S
C288 N289 1.342 . S
C288 C292 1.401 . S
C288 C293 1.499 . S
N289 Co272 1.989 . S
N289 C288 1.342 . S
N289 N290 1.388 . S
N290 Co273 1.993 . S
N290 N289 1.388 . S
N290 C291 1.346 . S
C291 N290 1.346 . S
C291 C292 1.396 . S
C291 C301 1.510 . S
C292 C288 1.401 . S
C292 C291 1.396 . S
C293 C288 1.499 . S
C293 H294 0.959 . S
C293 H295 0.960 . S
C293 H296 0.961 . S
H294 C293 0.959 . S
H295 C293 0.960 . S
H296 C293 0.961 . S
O297 Co272 1.967 . S
O297 C305 1.258 . S
O298 Co273 1.941 . S
O298 C305 1.266 . S
H299 C301 0.959 . S
H300 C301 0.961 . S
C301 C291 1.510 . S
C301 H299 0.959 . S
C301 H300 0.961 . S
C301 H302 0.960 . S
H302 C301 0.960 . S
H303 N283 0.862 . S
O304 Co272 1.920 . S
O304 C277 1.289 . S
C305 O297 1.258 . S
C305 O298 1.266 . S
Co306 O309 1.970 . S
Co306 N323 1.989 . S
Co306 O331 1.967 . S
Co306 O338 1.920 . S
Co307 O310 1.966 . S
Co307 N316 2.022 . S
Co307 N324 1.993 . S
Co307 O332 1.941 . S
C308 O309 1.258 . S
C308 O310 1.263 . S
O309 Co306 1.970 . S
O309 C308 1.258 . S
O310 Co307 1.966 . S
O310 C308 1.263 . S
C311 O312 1.235 . S
C311 O338 1.289 . S
O312 C311 1.235 . S
C313 C315 1.400 . S
C313 N316 1.351 . S
C313 C318 1.501 . S
C314 C315 1.387 . S
C314 N317 1.341 . S
C315 C313 1.400 . S
C315 C314 1.387 . S
N316 Co307 2.022 . S
N316 C313 1.351 . S
N316 N317 1.365 . S
N317 C314 1.341 . S
N317 N316 1.365 . S
N317 H337 0.862 . S
C318 C313 1.501 . S
C318 H319 0.961 . S
C318 H320 0.961 . S
C318 H321 0.960 . S
H319 C318 0.961 . S
H320 C318 0.961 . S
H321 C318 0.960 . S
C322 N323 1.342 . S
C322 C326 1.401 . S
C322 C327 1.499 . S
N323 Co306 1.989 . S
N323 C322 1.342 . S
N323 N324 1.388 . S
N324 Co307 1.993 . S
N324 N323 1.388 . S
N324 C325 1.346 . S
C325 N324 1.346 . S
C325 C326 1.396 . S
C325 C335 1.510 . S
C326 C322 1.401 . S
C326 C325 1.396 . S
C327 C322 1.499 . S
C327 H328 0.959 . S
C327 H329 0.960 . S
C327 H330 0.961 . S
H328 C327 0.959 . S
H329 C327 0.960 . S
H330 C327 0.961 . S
O331 Co306 1.967 . S
O331 C339 1.258 . S
O332 Co307 1.941 . S
O332 C339 1.266 . S
H333 C335 0.959 . S
H334 C335 0.961 . S
C335 C325 1.510 . S
C335 H333 0.959 . S
C335 H334 0.961 . S
C335 H336 0.960 . S
H336 C335 0.960 . S
H337 N317 0.862 . S
O338 Co306 1.920 . S
O338 C311 1.289 . S
C339 O331 1.258 . S
C339 O332 1.266 . S
Co340 O343 1.970 . S
Co340 N357 1.989 . S
Co340 O365 1.967 . S
Co340 O372 1.920 . S
Co341 O344 1.966 . S
Co341 N350 2.022 . S
Co341 N358 1.993 . S
Co341 O366 1.941 . S
C342 O343 1.258 . S
C342 O344 1.263 . S
O343 Co340 1.970 . S
O343 C342 1.258 . S
O344 Co341 1.966 . S
O344 C342 1.263 . S
C345 O346 1.235 . S
C345 O372 1.289 . S
O346 C345 1.235 . S
C347 C349 1.400 . S
C347 N350 1.351 . S
C347 C352 1.501 . S
C348 C349 1.387 . S
C348 N351 1.341 . S
C349 C347 1.400 . S
C349 C348 1.387 . S
N350 Co341 2.022 . S
N350 C347 1.351 . S
N350 N351 1.365 . S
N351 C348 1.341 . S
N351 N350 1.365 . S
N351 H371 0.862 . S
C352 C347 1.501 . S
C352 H353 0.961 . S
C352 H354 0.961 . S
C352 H355 0.960 . S
H353 C352 0.961 . S
H354 C352 0.961 . S
H355 C352 0.960 . S
C356 N357 1.342 . S
C356 C360 1.401 . S
C356 C361 1.499 . S
N357 Co340 1.989 . S
N357 C356 1.342 . S
N357 N358 1.388 . S
N358 Co341 1.993 . S
N358 N357 1.388 . S
N358 C359 1.346 . S
C359 N358 1.346 . S
C359 C360 1.396 . S
C359 C369 1.510 . S
C360 C356 1.401 . S
C360 C359 1.396 . S
C361 C356 1.499 . S
C361 H362 0.959 . S
C361 H363 0.960 . S
C361 H364 0.961 . S
H362 C361 0.959 . S
H363 C361 0.960 . S
H364 C361 0.961 . S
O365 Co340 1.967 . S
O365 C373 1.258 . S
O366 Co341 1.941 . S
O366 C373 1.266 . S
H367 C369 0.959 . S
H368 C369 0.961 . S
C369 C359 1.510 . S
C369 H367 0.959 . S
C369 H368 0.961 . S
C369 H370 0.960 . S
H370 C369 0.960 . S
H371 N351 0.862 . S
O372 Co340 1.920 . S
O372 C345 1.289 . S
C373 O365 1.258 . S
C373 O366 1.266 . S
Co374 O377 1.970 . S
Co374 N391 1.989 . S
Co374 O399 1.967 . S
Co374 O406 1.920 . S
Co375 O378 1.966 . S
Co375 N384 2.022 . S
Co375 N392 1.993 . S
Co375 O400 1.941 . S
C376 O377 1.258 . S
C376 O378 1.263 . S
O377 Co374 1.970 . S
O377 C376 1.258 . S
O378 Co375 1.966 . S
O378 C376 1.263 . S
C379 O380 1.235 . S
C379 O406 1.289 . S
O380 C379 1.235 . S
C381 C383 1.400 . S
C381 N384 1.351 . S
C381 C386 1.501 . S
C382 C383 1.387 . S
C382 N385 1.341 . S
C383 C381 1.400 . S
C383 C382 1.387 . S
N384 Co375 2.022 . S
N384 C381 1.351 . S
N384 N385 1.365 . S
N385 C382 1.341 . S
N385 N384 1.365 . S
N385 H405 0.862 . S
C386 C381 1.501 . S
C386 H387 0.961 . S
C386 H388 0.961 . S
C386 H389 0.960 . S
H387 C386 0.961 . S
H388 C386 0.961 . S
H389 C386 0.960 . S
C390 N391 1.342 . S
C390 C394 1.401 . S
C390 C395 1.499 . S
N391 Co374 1.989 . S
N391 C390 1.342 . S
N391 N392 1.388 . S
N392 Co375 1.993 . S
N392 N391 1.388 . S
N392 C393 1.346 . S
C393 N392 1.346 . S
C393 C394 1.396 . S
C393 C403 1.510 . S
C394 C390 1.401 . S
C394 C393 1.396 . S
C395 C390 1.499 . S
C395 H396 0.959 . S
C395 H397 0.960 . S
C395 H398 0.961 . S
H396 C395 0.959 . S
H397 C395 0.960 . S
H398 C395 0.961 . S
O399 Co374 1.967 . S
O399 C407 1.258 . S
O400 Co375 1.941 . S
O400 C407 1.266 . S
H401 C403 0.959 . S
H402 C403 0.961 . S
C403 C393 1.510 . S
C403 H401 0.959 . S
C403 H402 0.961 . S
C403 H404 0.960 . S
H404 C403 0.960 . S
H405 N385 0.862 . S
O406 Co374 1.920 . S
O406 C379 1.289 . S
C407 O399 1.258 . S
C407 O400 1.266 . S
Co408 O411 1.970 . S
Co408 N425 1.989 . S
Co408 O433 1.967 . S
Co408 O440 1.920 . S
Co409 O412 1.966 . S
Co409 N418 2.022 . S
Co409 N426 1.993 . S
Co409 O434 1.941 . S
C410 O411 1.258 . S
C410 O412 1.263 . S
O411 Co408 1.970 . S
O411 C410 1.258 . S
O412 Co409 1.966 . S
O412 C410 1.263 . S
C413 O414 1.235 . S
C413 O440 1.289 . S
O414 C413 1.235 . S
C415 C417 1.400 . S
C415 N418 1.351 . S
C415 C420 1.501 . S
C416 C417 1.387 . S
C416 N419 1.341 . S
C417 C415 1.400 . S
C417 C416 1.387 . S
N418 Co409 2.022 . S
N418 C415 1.351 . S
N418 N419 1.365 . S
N419 C416 1.341 . S
N419 N418 1.365 . S
N419 H439 0.862 . S
C420 C415 1.501 . S
C420 H421 0.961 . S
C420 H422 0.961 . S
C420 H423 0.960 . S
H421 C420 0.961 . S
H422 C420 0.961 . S
H423 C420 0.960 . S
C424 N425 1.342 . S
C424 C428 1.401 . S
C424 C429 1.499 . S
N425 Co408 1.989 . S
N425 C424 1.342 . S
N425 N426 1.388 . S
N426 Co409 1.993 . S
N426 N425 1.388 . S
N426 C427 1.346 . S
C427 N426 1.346 . S
C427 C428 1.396 . S
C427 C437 1.510 . S
C428 C424 1.401 . S
C428 C427 1.396 . S
C429 C424 1.499 . S
C429 H430 0.959 . S
C429 H431 0.960 . S
C429 H432 0.961 . S
H430 C429 0.959 . S
H431 C429 0.960 . S
H432 C429 0.961 . S
O433 Co408 1.967 . S
O433 C441 1.258 . S
O434 Co409 1.941 . S
O434 C441 1.266 . S
H435 C437 0.959 . S
H436 C437 0.961 . S
C437 C427 1.510 . S
C437 H435 0.959 . S
C437 H436 0.961 . S
C437 H438 0.960 . S
H438 C437 0.960 . S
H439 N419 0.862 . S
O440 Co408 1.920 . S
O440 C413 1.289 . S
C441 O433 1.258 . S
C441 O434 1.266 . S
Co442 O445 1.970 . S
Co442 N459 1.989 . S
Co442 O467 1.967 . S
Co442 O474 1.920 . S
Co443 O446 1.966 . S
Co443 N452 2.022 . S
Co443 N460 1.993 . S
Co443 O468 1.941 . S
C444 O445 1.258 . S
C444 O446 1.263 . S
O445 Co442 1.970 . S
O445 C444 1.258 . S
O446 Co443 1.966 . S
O446 C444 1.263 . S
C447 O448 1.235 . S
C447 O474 1.289 . S
O448 C447 1.235 . S
C449 C451 1.400 . S
C449 N452 1.351 . S
C449 C454 1.501 . S
C450 C451 1.387 . S
C450 N453 1.341 . S
C451 C449 1.400 . S
C451 C450 1.387 . S
N452 Co443 2.022 . S
N452 C449 1.351 . S
N452 N453 1.365 . S
N453 C450 1.341 . S
N453 N452 1.365 . S
N453 H473 0.862 . S
C454 C449 1.501 . S
C454 H455 0.961 . S
C454 H456 0.961 . S
C454 H457 0.960 . S
H455 C454 0.961 . S
H456 C454 0.961 . S
H457 C454 0.960 . S
C458 N459 1.342 . S
C458 C462 1.401 . S
C458 C463 1.499 . S
N459 Co442 1.989 . S
N459 C458 1.342 . S
N459 N460 1.388 . S
N460 Co443 1.993 . S
N460 N459 1.388 . S
N460 C461 1.346 . S
C461 N460 1.346 . S
C461 C462 1.396 . S
C461 C471 1.510 . S
C462 C458 1.401 . S
C462 C461 1.396 . S
C463 C458 1.499 . S
C463 H464 0.959 . S
C463 H465 0.960 . S
C463 H466 0.961 . S
H464 C463 0.959 . S
H465 C463 0.960 . S
H466 C463 0.961 . S
O467 Co442 1.967 . S
O467 C475 1.258 . S
O468 Co443 1.941 . S
O468 C475 1.266 . S
H469 C471 0.959 . S
H470 C471 0.961 . S
C471 C461 1.510 . S
C471 H469 0.959 . S
C471 H470 0.961 . S
C471 H472 0.960 . S
H472 C471 0.960 . S
H473 N453 0.862 . S
O474 Co442 1.920 . S
O474 C447 1.289 . S
C475 O467 1.258 . S
C475 O468 1.266 . S
Co476 O479 1.970 . S
Co476 N493 1.989 . S
Co476 O501 1.967 . S
Co476 O508 1.920 . S
Co477 O480 1.966 . S
Co477 N486 2.022 . S
Co477 N494 1.993 . S
Co477 O502 1.941 . S
C478 O479 1.258 . S
C478 O480 1.263 . S
O479 Co476 1.970 . S
O479 C478 1.258 . S
O480 Co477 1.966 . S
O480 C478 1.263 . S
C481 O482 1.235 . S
C481 O508 1.289 . S
O482 C481 1.235 . S
C483 C485 1.400 . S
C483 N486 1.351 . S
C483 C488 1.501 . S
C484 C485 1.387 . S
C484 N487 1.341 . S
C485 C483 1.400 . S
C485 C484 1.387 . S
N486 Co477 2.022 . S
N486 C483 1.351 . S
N486 N487 1.365 . S
N487 C484 1.341 . S
N487 N486 1.365 . S
N487 H507 0.862 . S
C488 C483 1.501 . S
C488 H489 0.961 . S
C488 H490 0.961 . S
C488 H491 0.960 . S
H489 C488 0.961 . S
H490 C488 0.961 . S
H491 C488 0.960 . S
C492 N493 1.342 . S
C492 C496 1.401 . S
C492 C497 1.499 . S
N493 Co476 1.989 . S
N493 C492 1.342 . S
N493 N494 1.388 . S
N494 Co477 1.993 . S
N494 N493 1.388 . S
N494 C495 1.346 . S
C495 N494 1.346 . S
C495 C496 1.396 . S
C495 C505 1.510 . S
C496 C492 1.401 . S
C496 C495 1.396 . S
C497 C492 1.499 . S
C497 H498 0.959 . S
C497 H499 0.960 . S
C497 H500 0.961 . S
H498 C497 0.959 . S
H499 C497 0.960 . S
H500 C497 0.961 . S
O501 Co476 1.967 . S
O501 C509 1.258 . S
O502 Co477 1.941 . S
O502 C509 1.266 . S
H503 C505 0.959 . S
H504 C505 0.961 . S
C505 C495 1.510 . S
C505 H503 0.959 . S
C505 H504 0.961 . S
C505 H506 0.960 . S
H506 C505 0.960 . S
H507 N487 0.862 . S
O508 Co476 1.920 . S
O508 C481 1.289 . S
C509 O501 1.258 . S
C509 O502 1.266 . S
Co510 O513 1.970 . S
Co510 N527 1.989 . S
Co510 O535 1.967 . S
Co510 O542 1.920 . S
Co511 O514 1.966 . S
Co511 N520 2.022 . S
Co511 N528 1.993 . S
Co511 O536 1.941 . S
C512 O513 1.258 . S
C512 O514 1.263 . S
O513 Co510 1.970 . S
O513 C512 1.258 . S
O514 Co511 1.966 . S
O514 C512 1.263 . S
C515 O516 1.235 . S
C515 O542 1.289 . S
O516 C515 1.235 . S
C517 C519 1.400 . S
C517 N520 1.351 . S
C517 C522 1.501 . S
C518 C519 1.387 . S
C518 N521 1.341 . S
C519 C517 1.400 . S
C519 C518 1.387 . S
N520 Co511 2.022 . S
N520 C517 1.351 . S
N520 N521 1.365 . S
N521 C518 1.341 . S
N521 N520 1.365 . S
N521 H541 0.862 . S
C522 C517 1.501 . S
C522 H523 0.961 . S
C522 H524 0.961 . S
C522 H525 0.960 . S
H523 C522 0.961 . S
H524 C522 0.961 . S
H525 C522 0.960 . S
C526 N527 1.342 . S
C526 C530 1.401 . S
C526 C531 1.499 . S
N527 Co510 1.989 . S
N527 C526 1.342 . S
N527 N528 1.388 . S
N528 Co511 1.993 . S
N528 N527 1.388 . S
N528 C529 1.346 . S
C529 N528 1.346 . S
C529 C530 1.396 . S
C529 C539 1.510 . S
C530 C526 1.401 . S
C530 C529 1.396 . S
C531 C526 1.499 . S
C531 H532 0.959 . S
C531 H533 0.960 . S
C531 H534 0.961 . S
H532 C531 0.959 . S
H533 C531 0.960 . S
H534 C531 0.961 . S
O535 Co510 1.967 . S
O535 C543 1.258 . S
O536 Co511 1.941 . S
O536 C543 1.266 . S
H537 C539 0.959 . S
H538 C539 0.961 . S
C539 C529 1.510 . S
C539 H537 0.959 . S
C539 H538 0.961 . S
C539 H540 0.960 . S
H540 C539 0.960 . S
H541 N521 0.862 . S
O542 Co510 1.920 . S
O542 C515 1.289 . S
C543 O535 1.258 . S
C543 O536 1.266 . S
Co544 O547 1.970 . S
Co544 N561 1.989 . S
Co544 O569 1.967 . S
Co544 O576 1.920 . S
Co545 O548 1.966 . S
Co545 N554 2.022 . S
Co545 N562 1.993 . S
Co545 O570 1.941 . S
C546 O547 1.258 . S
C546 O548 1.263 . S
O547 Co544 1.970 . S
O547 C546 1.258 . S
O548 Co545 1.966 . S
O548 C546 1.263 . S
C549 O550 1.235 . S
C549 O576 1.289 . S
O550 C549 1.235 . S
C551 C553 1.400 . S
C551 N554 1.351 . S
C551 C556 1.501 . S
C552 C553 1.387 . S
C552 N555 1.341 . S
C553 C551 1.400 . S
C553 C552 1.387 . S
N554 Co545 2.022 . S
N554 C551 1.351 . S
N554 N555 1.365 . S
N555 C552 1.341 . S
N555 N554 1.365 . S
N555 H575 0.862 . S
C556 C551 1.501 . S
C556 H557 0.961 . S
C556 H558 0.961 . S
C556 H559 0.960 . S
H557 C556 0.961 . S
H558 C556 0.961 . S
H559 C556 0.960 . S
C560 N561 1.342 . S
C560 C564 1.401 . S
C560 C565 1.499 . S
N561 Co544 1.989 . S
N561 C560 1.342 . S
N561 N562 1.388 . S
N562 Co545 1.993 . S
N562 N561 1.388 . S
N562 C563 1.346 . S
C563 N562 1.346 . S
C563 C564 1.396 . S
C563 C573 1.510 . S
C564 C560 1.401 . S
C564 C563 1.396 . S
C565 C560 1.499 . S
C565 H566 0.959 . S
C565 H567 0.960 . S
C565 H568 0.961 . S
H566 C565 0.959 . S
H567 C565 0.960 . S
H568 C565 0.961 . S
O569 Co544 1.967 . S
O569 C577 1.258 . S
O570 Co545 1.941 . S
O570 C577 1.266 . S
H571 C573 0.959 . S
H572 C573 0.961 . S
C573 C563 1.510 . S
C573 H571 0.959 . S
C573 H572 0.961 . S
C573 H574 0.960 . S
H574 C573 0.960 . S
H575 N555 0.862 . S
O576 Co544 1.920 . S
O576 C549 1.289 . S
C577 O569 1.258 . S
C577 O570 1.266 . S
Co578 O581 1.970 . S
Co578 N595 1.989 . S
Co578 O603 1.967 . S
Co578 O610 1.920 . S
Co579 O582 1.966 . S
Co579 N588 2.022 . S
Co579 N596 1.993 . S
Co579 O604 1.941 . S
C580 O581 1.258 . S
C580 O582 1.263 . S
O581 Co578 1.970 . S
O581 C580 1.258 . S
O582 Co579 1.966 . S
O582 C580 1.263 . S
C583 O584 1.235 . S
C583 O610 1.289 . S
O584 C583 1.235 . S
C585 C587 1.400 . S
C585 N588 1.351 . S
C585 C590 1.501 . S
C586 C587 1.387 . S
C586 N589 1.341 . S
C587 C585 1.400 . S
C587 C586 1.387 . S
N588 Co579 2.022 . S
N588 C585 1.351 . S
N588 N589 1.365 . S
N589 C586 1.341 . S
N589 N588 1.365 . S
N589 H609 0.862 . S
C590 C585 1.501 . S
C590 H591 0.961 . S
C590 H592 0.961 . S
C590 H593 0.960 . S
H591 C590 0.961 . S
H592 C590 0.961 . S
H593 C590 0.960 . S
C594 N595 1.342 . S
C594 C598 1.401 . S
C594 C599 1.499 . S
N595 Co578 1.989 . S
N595 C594 1.342 . S
N595 N596 1.388 . S
N596 Co579 1.993 . S
N596 N595 1.388 . S
N596 C597 1.346 . S
C597 N596 1.346 . S
C597 C598 1.396 . S
C597 C607 1.510 . S
C598 C594 1.401 . S
C598 C597 1.396 . S
C599 C594 1.499 . S
C599 H600 0.959 . S
C599 H601 0.960 . S
C599 H602 0.961 . S
H600 C599 0.959 . S
H601 C599 0.960 . S
H602 C599 0.961 . S
O603 Co578 1.967 . S
O603 C611 1.258 . S
O604 Co579 1.941 . S
O604 C611 1.266 . S
H605 C607 0.959 . S
H606 C607 0.961 . S
C607 C597 1.510 . S
C607 H605 0.959 . S
C607 H606 0.961 . S
C607 H608 0.960 . S
H608 C607 0.960 . S
H609 N589 0.862 . S
O610 Co578 1.920 . S
O610 C583 1.289 . S
C611 O603 1.258 . S
C611 O604 1.266 . S
Co612 O615 1.970 . S
Co612 N629 1.989 . S
Co612 O637 1.967 . S
Co612 O644 1.920 . S
Co613 O616 1.966 . S
Co613 N622 2.022 . S
Co613 N630 1.993 . S
Co613 O638 1.941 . S
C614 O615 1.258 . S
C614 O616 1.263 . S
O615 Co612 1.970 . S
O615 C614 1.258 . S
O616 Co613 1.966 . S
O616 C614 1.263 . S
C617 O618 1.235 . S
C617 O644 1.289 . S
O618 C617 1.235 . S
C619 C621 1.400 . S
C619 N622 1.351 . S
C619 C624 1.501 . S
C620 C621 1.387 . S
C620 N623 1.341 . S
C621 C619 1.400 . S
C621 C620 1.387 . S
N622 Co613 2.022 . S
N622 C619 1.351 . S
N622 N623 1.365 . S
N623 C620 1.341 . S
N623 N622 1.365 . S
N623 H643 0.862 . S
C624 C619 1.501 . S
C624 H625 0.961 . S
C624 H626 0.961 . S
C624 H627 0.960 . S
H625 C624 0.961 . S
H626 C624 0.961 . S
H627 C624 0.960 . S
C628 N629 1.342 . S
C628 C632 1.401 . S
C628 C633 1.499 . S
N629 Co612 1.989 . S
N629 C628 1.342 . S
N629 N630 1.388 . S
N630 Co613 1.993 . S
N630 N629 1.388 . S
N630 C631 1.346 . S
C631 N630 1.346 . S
C631 C632 1.396 . S
C631 C641 1.510 . S
C632 C628 1.401 . S
C632 C631 1.396 . S
C633 C628 1.499 . S
C633 H634 0.959 . S
C633 H635 0.960 . S
C633 H636 0.961 . S
H634 C633 0.959 . S
H635 C633 0.960 . S
H636 C633 0.961 . S
O637 Co612 1.967 . S
O637 C645 1.258 . S
O638 Co613 1.941 . S
O638 C645 1.266 . S
H639 C641 0.959 . S
H640 C641 0.961 . S
C641 C631 1.510 . S
C641 H639 0.959 . S
C641 H640 0.961 . S
C641 H642 0.960 . S
H642 C641 0.960 . S
H643 N623 0.862 . S
O644 Co612 1.920 . S
O644 C617 1.289 . S
C645 O637 1.258 . S
C645 O638 1.266 . S
Co646 O649 1.970 . S
Co646 N663 1.989 . S
Co646 O671 1.967 . S
Co646 O678 1.920 . S
Co647 O650 1.966 . S
Co647 N656 2.022 . S
Co647 N664 1.993 . S
Co647 O672 1.941 . S
C648 O649 1.258 . S
C648 O650 1.263 . S
O649 Co646 1.970 . S
O649 C648 1.258 . S
O650 Co647 1.966 . S
O650 C648 1.263 . S
C651 O652 1.235 . S
C651 O678 1.289 . S
O652 C651 1.235 . S
C653 C655 1.400 . S
C653 N656 1.351 . S
C653 C658 1.501 . S
C654 C655 1.387 . S
C654 N657 1.341 . S
C655 C653 1.400 . S
C655 C654 1.387 . S
N656 Co647 2.022 . S
N656 C653 1.351 . S
N656 N657 1.365 . S
N657 C654 1.341 . S
N657 N656 1.365 . S
N657 H677 0.862 . S
C658 C653 1.501 . S
C658 H659 0.961 . S
C658 H660 0.961 . S
C658 H661 0.960 . S
H659 C658 0.961 . S
H660 C658 0.961 . S
H661 C658 0.960 . S
C662 N663 1.342 . S
C662 C666 1.401 . S
C662 C667 1.499 . S
N663 Co646 1.989 . S
N663 C662 1.342 . S
N663 N664 1.388 . S
N664 Co647 1.993 . S
N664 N663 1.388 . S
N664 C665 1.346 . S
C665 N664 1.346 . S
C665 C666 1.396 . S
C665 C675 1.510 . S
C666 C662 1.401 . S
C666 C665 1.396 . S
C667 C662 1.499 . S
C667 H668 0.959 . S
C667 H669 0.960 . S
C667 H670 0.961 . S
H668 C667 0.959 . S
H669 C667 0.960 . S
H670 C667 0.961 . S
O671 Co646 1.967 . S
O671 C679 1.258 . S
O672 Co647 1.941 . S
O672 C679 1.266 . S
H673 C675 0.959 . S
H674 C675 0.961 . S
C675 C665 1.510 . S
C675 H673 0.959 . S
C675 H674 0.961 . S
C675 H676 0.960 . S
H676 C675 0.960 . S
H677 N657 0.862 . S
O678 Co646 1.920 . S
O678 C651 1.289 . S
C679 O671 1.258 . S
C679 O672 1.266 . S
Co680 O683 1.970 . S
Co680 N697 1.989 . S
Co680 O705 1.967 . S
Co680 O712 1.920 . S
Co681 O684 1.966 . S
Co681 N690 2.022 . S
Co681 N698 1.993 . S
Co681 O706 1.941 . S
C682 O683 1.258 . S
C682 O684 1.263 . S
O683 Co680 1.970 . S
O683 C682 1.258 . S
O684 Co681 1.966 . S
O684 C682 1.263 . S
C685 O686 1.235 . S
C685 O712 1.289 . S
O686 C685 1.235 . S
C687 C689 1.400 . S
C687 N690 1.351 . S
C687 C692 1.501 . S
C688 C689 1.387 . S
C688 N691 1.341 . S
C689 C687 1.400 . S
C689 C688 1.387 . S
N690 Co681 2.022 . S
N690 C687 1.351 . S
N690 N691 1.365 . S
N691 C688 1.341 . S
N691 N690 1.365 . S
N691 H711 0.862 . S
C692 C687 1.501 . S
C692 H693 0.961 . S
C692 H694 0.961 . S
C692 H695 0.960 . S
H693 C692 0.961 . S
H694 C692 0.961 . S
H695 C692 0.960 . S
C696 N697 1.342 . S
C696 C700 1.401 . S
C696 C701 1.499 . S
N697 Co680 1.989 . S
N697 C696 1.342 . S
N697 N698 1.388 . S
N698 Co681 1.993 . S
N698 N697 1.388 . S
N698 C699 1.346 . S
C699 N698 1.346 . S
C699 C700 1.396 . S
C699 C709 1.510 . S
C700 C696 1.401 . S
C700 C699 1.396 . S
C701 C696 1.499 . S
C701 H702 0.959 . S
C701 H703 0.960 . S
C701 H704 0.961 . S
H702 C701 0.959 . S
H703 C701 0.960 . S
H704 C701 0.961 . S
O705 Co680 1.967 . S
O705 C713 1.258 . S
O706 Co681 1.941 . S
O706 C713 1.266 . S
H707 C709 0.959 . S
H708 C709 0.961 . S
C709 C699 1.510 . S
C709 H707 0.959 . S
C709 H708 0.961 . S
C709 H710 0.960 . S
H710 C709 0.960 . S
H711 N691 0.862 . S
O712 Co680 1.920 . S
O712 C685 1.289 . S
C713 O705 1.258 . S
C713 O706 1.266 . S
Co714 O717 1.970 . S
Co714 N731 1.989 . S
Co714 O739 1.967 . S
Co714 O746 1.920 . S
Co715 O718 1.966 . S
Co715 N724 2.022 . S
Co715 N732 1.993 . S
Co715 O740 1.941 . S
C716 O717 1.258 . S
C716 O718 1.263 . S
O717 Co714 1.970 . S
O717 C716 1.258 . S
O718 Co715 1.966 . S
O718 C716 1.263 . S
C719 O720 1.235 . S
C719 O746 1.289 . S
O720 C719 1.235 . S
C721 C723 1.400 . S
C721 N724 1.351 . S
C721 C726 1.501 . S
C722 C723 1.387 . S
C722 N725 1.341 . S
C723 C721 1.400 . S
C723 C722 1.387 . S
N724 Co715 2.022 . S
N724 C721 1.351 . S
N724 N725 1.365 . S
N725 C722 1.341 . S
N725 N724 1.365 . S
N725 H745 0.862 . S
C726 C721 1.501 . S
C726 H727 0.961 . S
C726 H728 0.961 . S
C726 H729 0.960 . S
H727 C726 0.961 . S
H728 C726 0.961 . S
H729 C726 0.960 . S
C730 N731 1.342 . S
C730 C734 1.401 . S
C730 C735 1.499 . S
N731 Co714 1.989 . S
N731 C730 1.342 . S
N731 N732 1.388 . S
N732 Co715 1.993 . S
N732 N731 1.388 . S
N732 C733 1.346 . S
C733 N732 1.346 . S
C733 C734 1.396 . S
C733 C743 1.510 . S
C734 C730 1.401 . S
C734 C733 1.396 . S
C735 C730 1.499 . S
C735 H736 0.959 . S
C735 H737 0.960 . S
C735 H738 0.961 . S
H736 C735 0.959 . S
H737 C735 0.960 . S
H738 C735 0.961 . S
O739 Co714 1.967 . S
O739 C747 1.258 . S
O740 Co715 1.941 . S
O740 C747 1.266 . S
H741 C743 0.959 . S
H742 C743 0.961 . S
C743 C733 1.510 . S
C743 H741 0.959 . S
C743 H742 0.961 . S
C743 H744 0.960 . S
H744 C743 0.960 . S
H745 N725 0.862 . S
O746 Co714 1.920 . S
O746 C719 1.289 . S
C747 O739 1.258 . S
C747 O740 1.266 . S
Co748 O751 1.970 . S
Co748 N765 1.989 . S
Co748 O773 1.967 . S
Co748 O780 1.920 . S
Co749 O752 1.966 . S
Co749 N758 2.022 . S
Co749 N766 1.993 . S
Co749 O774 1.941 . S
C750 O751 1.258 . S
C750 O752 1.263 . S
O751 Co748 1.970 . S
O751 C750 1.258 . S
O752 Co749 1.966 . S
O752 C750 1.263 . S
C753 O754 1.235 . S
C753 O780 1.289 . S
O754 C753 1.235 . S
C755 C757 1.400 . S
C755 N758 1.351 . S
C755 C760 1.501 . S
C756 C757 1.387 . S
C756 N759 1.341 . S
C757 C755 1.400 . S
C757 C756 1.387 . S
N758 Co749 2.022 . S
N758 C755 1.351 . S
N758 N759 1.365 . S
N759 C756 1.341 . S
N759 N758 1.365 . S
N759 H779 0.862 . S
C760 C755 1.501 . S
C760 H761 0.961 . S
C760 H762 0.961 . S
C760 H763 0.960 . S
H761 C760 0.961 . S
H762 C760 0.961 . S
H763 C760 0.960 . S
C764 N765 1.342 . S
C764 C768 1.401 . S
C764 C769 1.499 . S
N765 Co748 1.989 . S
N765 C764 1.342 . S
N765 N766 1.388 . S
N766 Co749 1.993 . S
N766 N765 1.388 . S
N766 C767 1.346 . S
C767 N766 1.346 . S
C767 C768 1.396 . S
C767 C777 1.510 . S
C768 C764 1.401 . S
C768 C767 1.396 . S
C769 C764 1.499 . S
C769 H770 0.959 . S
C769 H771 0.960 . S
C769 H772 0.961 . S
H770 C769 0.959 . S
H771 C769 0.960 . S
H772 C769 0.961 . S
O773 Co748 1.967 . S
O773 C781 1.258 . S
O774 Co749 1.941 . S
O774 C781 1.266 . S
H775 C777 0.959 . S
H776 C777 0.961 . S
C777 C767 1.510 . S
C777 H775 0.959 . S
C777 H776 0.961 . S
C777 H778 0.960 . S
H778 C777 0.960 . S
H779 N759 0.862 . S
O780 Co748 1.920 . S
O780 C753 1.289 . S
C781 O773 1.258 . S
C781 O774 1.266 . S
Co782 O785 1.970 . S
Co782 N799 1.989 . S
Co782 O807 1.967 . S
Co782 O814 1.920 . S
Co783 O786 1.966 . S
Co783 N792 2.022 . S
Co783 N800 1.993 . S
Co783 O808 1.941 . S
C784 O785 1.258 . S
C784 O786 1.263 . S
O785 Co782 1.970 . S
O785 C784 1.258 . S
O786 Co783 1.966 . S
O786 C784 1.263 . S
C787 O788 1.235 . S
C787 O814 1.289 . S
O788 C787 1.235 . S
C789 C791 1.400 . S
C789 N792 1.351 . S
C789 C794 1.501 . S
C790 C791 1.387 . S
C790 N793 1.341 . S
C791 C789 1.400 . S
C791 C790 1.387 . S
N792 Co783 2.022 . S
N792 C789 1.351 . S
N792 N793 1.365 . S
N793 C790 1.341 . S
N793 N792 1.365 . S
N793 H813 0.862 . S
C794 C789 1.501 . S
C794 H795 0.961 . S
C794 H796 0.961 . S
C794 H797 0.960 . S
H795 C794 0.961 . S
H796 C794 0.961 . S
H797 C794 0.960 . S
C798 N799 1.342 . S
C798 C802 1.401 . S
C798 C803 1.499 . S
N799 Co782 1.989 . S
N799 C798 1.342 . S
N799 N800 1.388 . S
N800 Co783 1.993 . S
N800 N799 1.388 . S
N800 C801 1.346 . S
C801 N800 1.346 . S
C801 C802 1.396 . S
C801 C811 1.510 . S
C802 C798 1.401 . S
C802 C801 1.396 . S
C803 C798 1.499 . S
C803 H804 0.959 . S
C803 H805 0.960 . S
C803 H806 0.961 . S
H804 C803 0.959 . S
H805 C803 0.960 . S
H806 C803 0.961 . S
O807 Co782 1.967 . S
O807 C815 1.258 . S
O808 Co783 1.941 . S
O808 C815 1.266 . S
H809 C811 0.959 . S
H810 C811 0.961 . S
C811 C801 1.510 . S
C811 H809 0.959 . S
C811 H810 0.961 . S
C811 H812 0.960 . S
H812 C811 0.960 . S
H813 N793 0.862 . S
O814 Co782 1.920 . S
O814 C787 1.289 . S
C815 O807 1.258 . S
C815 O808 1.266 . S
Co816 O819 1.970 . S
Co816 N833 1.989 . S
Co816 O841 1.967 . S
Co816 O848 1.920 . S
Co817 O820 1.966 . S
Co817 N826 2.022 . S
Co817 N834 1.993 . S
Co817 O842 1.941 . S
C818 O819 1.258 . S
C818 O820 1.263 . S
O819 Co816 1.970 . S
O819 C818 1.258 . S
O820 Co817 1.966 . S
O820 C818 1.263 . S
C821 O822 1.235 . S
C821 O848 1.289 . S
O822 C821 1.235 . S
C823 C825 1.400 . S
C823 N826 1.351 . S
C823 C828 1.501 . S
C824 C825 1.387 . S
C824 N827 1.341 . S
C825 C823 1.400 . S
C825 C824 1.387 . S
N826 Co817 2.022 . S
N826 C823 1.351 . S
N826 N827 1.365 . S
N827 C824 1.341 . S
N827 N826 1.365 . S
N827 H847 0.862 . S
C828 C823 1.501 . S
C828 H829 0.961 . S
C828 H830 0.961 . S
C828 H831 0.960 . S
H829 C828 0.961 . S
H830 C828 0.961 . S
H831 C828 0.960 . S
C832 N833 1.342 . S
C832 C836 1.401 . S
C832 C837 1.499 . S
N833 Co816 1.989 . S
N833 C832 1.342 . S
N833 N834 1.388 . S
N834 Co817 1.993 . S
N834 N833 1.388 . S
N834 C835 1.346 . S
C835 N834 1.346 . S
C835 C836 1.396 . S
C835 C845 1.510 . S
C836 C832 1.401 . S
C836 C835 1.396 . S
C837 C832 1.499 . S
C837 H838 0.959 . S
C837 H839 0.960 . S
C837 H840 0.961 . S
H838 C837 0.959 . S
H839 C837 0.960 . S
H840 C837 0.961 . S
O841 Co816 1.967 . S
O841 C849 1.258 . S
O842 Co817 1.941 . S
O842 C849 1.266 . S
H843 C845 0.959 . S
H844 C845 0.961 . S
C845 C835 1.510 . S
C845 H843 0.959 . S
C845 H844 0.961 . S
C845 H846 0.960 . S
H846 C845 0.960 . S
H847 N827 0.862 . S
O848 Co816 1.920 . S
O848 C821 1.289 . S
C849 O841 1.258 . S
C849 O842 1.266 . S
Co850 O853 1.970 . S
Co850 N867 1.989 . S
Co850 O875 1.967 . S
Co850 O882 1.920 . S
Co851 O854 1.966 . S
Co851 N860 2.022 . S
Co851 N868 1.993 . S
Co851 O876 1.941 . S
C852 O853 1.258 . S
C852 O854 1.263 . S
O853 Co850 1.970 . S
O853 C852 1.258 . S
O854 Co851 1.966 . S
O854 C852 1.263 . S
C855 O856 1.235 . S
C855 O882 1.289 . S
O856 C855 1.235 . S
C857 C859 1.400 . S
C857 N860 1.351 . S
C857 C862 1.501 . S
C858 C859 1.387 . S
C858 N861 1.341 . S
C859 C857 1.400 . S
C859 C858 1.387 . S
N860 Co851 2.022 . S
N860 C857 1.351 . S
N860 N861 1.365 . S
N861 C858 1.341 . S
N861 N860 1.365 . S
N861 H881 0.862 . S
C862 C857 1.501 . S
C862 H863 0.961 . S
C862 H864 0.961 . S
C862 H865 0.960 . S
H863 C862 0.961 . S
H864 C862 0.961 . S
H865 C862 0.960 . S
C866 N867 1.342 . S
C866 C870 1.401 . S
C866 C871 1.499 . S
N867 Co850 1.989 . S
N867 C866 1.342 . S
N867 N868 1.388 . S
N868 Co851 1.993 . S
N868 N867 1.388 . S
N868 C869 1.346 . S
C869 N868 1.346 . S
C869 C870 1.396 . S
C869 C879 1.510 . S
C870 C866 1.401 . S
C870 C869 1.396 . S
C871 C866 1.499 . S
C871 H872 0.959 . S
C871 H873 0.960 . S
C871 H874 0.961 . S
H872 C871 0.959 . S
H873 C871 0.960 . S
H874 C871 0.961 . S
O875 Co850 1.967 . S
O875 C883 1.258 . S
O876 Co851 1.941 . S
O876 C883 1.266 . S
H877 C879 0.959 . S
H878 C879 0.961 . S
C879 C869 1.510 . S
C879 H877 0.959 . S
C879 H878 0.961 . S
C879 H880 0.960 . S
H880 C879 0.960 . S
H881 N861 0.862 . S
O882 Co850 1.920 . S
O882 C855 1.289 . S
C883 O875 1.258 . S
C883 O876 1.266 . S
Co884 O887 1.970 . S
Co884 N901 1.989 . S
Co884 O909 1.967 . S
Co884 O916 1.920 . S
Co885 O888 1.966 . S
Co885 N894 2.022 . S
Co885 N902 1.993 . S
Co885 O910 1.941 . S
C886 O887 1.258 . S
C886 O888 1.263 . S
O887 Co884 1.970 . S
O887 C886 1.258 . S
O888 Co885 1.966 . S
O888 C886 1.263 . S
C889 O890 1.235 . S
C889 O916 1.289 . S
O890 C889 1.235 . S
C891 C893 1.400 . S
C891 N894 1.351 . S
C891 C896 1.501 . S
C892 C893 1.387 . S
C892 N895 1.341 . S
C893 C891 1.400 . S
C893 C892 1.387 . S
N894 Co885 2.022 . S
N894 C891 1.351 . S
N894 N895 1.365 . S
N895 C892 1.341 . S
N895 N894 1.365 . S
N895 H915 0.862 . S
C896 C891 1.501 . S
C896 H897 0.961 . S
C896 H898 0.961 . S
C896 H899 0.960 . S
H897 C896 0.961 . S
H898 C896 0.961 . S
H899 C896 0.960 . S
C900 N901 1.342 . S
C900 C904 1.401 . S
C900 C905 1.499 . S
N901 Co884 1.989 . S
N901 C900 1.342 . S
N901 N902 1.388 . S
N902 Co885 1.993 . S
N902 N901 1.388 . S
N902 C903 1.346 . S
C903 N902 1.346 . S
C903 C904 1.396 . S
C903 C913 1.510 . S
C904 C900 1.401 . S
C904 C903 1.396 . S
C905 C900 1.499 . S
C905 H906 0.959 . S
C905 H907 0.960 . S
C905 H908 0.961 . S
H906 C905 0.959 . S
H907 C905 0.960 . S
H908 C905 0.961 . S
O909 Co884 1.967 . S
O909 C917 1.258 . S
O910 Co885 1.941 . S
O910 C917 1.266 . S
H911 C913 0.959 . S
H912 C913 0.961 . S
C913 C903 1.510 . S
C913 H911 0.959 . S
C913 H912 0.961 . S
C913 H914 0.960 . S
H914 C913 0.960 . S
H915 N895 0.862 . S
O916 Co884 1.920 . S
O916 C889 1.289 . S
C917 O909 1.258 . S
C917 O910 1.266 . S
Co918 O921 1.970 . S
Co918 N935 1.989 . S
Co918 O943 1.967 . S
Co918 O950 1.920 . S
Co919 O922 1.966 . S
Co919 N928 2.022 . S
Co919 N936 1.993 . S
Co919 O944 1.941 . S
C920 O921 1.258 . S
C920 O922 1.263 . S
O921 Co918 1.970 . S
O921 C920 1.258 . S
O922 Co919 1.966 . S
O922 C920 1.263 . S
C923 O924 1.235 . S
C923 O950 1.289 . S
O924 C923 1.235 . S
C925 C927 1.400 . S
C925 N928 1.351 . S
C925 C930 1.501 . S
C926 C927 1.387 . S
C926 N929 1.341 . S
C927 C925 1.400 . S
C927 C926 1.387 . S
N928 Co919 2.022 . S
N928 C925 1.351 . S
N928 N929 1.365 . S
N929 C926 1.341 . S
N929 N928 1.365 . S
N929 H949 0.862 . S
C930 C925 1.501 . S
C930 H931 0.961 . S
C930 H932 0.961 . S
C930 H933 0.960 . S
H931 C930 0.961 . S
H932 C930 0.961 . S
H933 C930 0.960 . S
C934 N935 1.342 . S
C934 C938 1.401 . S
C934 C939 1.499 . S
N935 Co918 1.989 . S
N935 C934 1.342 . S
N935 N936 1.388 . S
N936 Co919 1.993 . S
N936 N935 1.388 . S
N936 C937 1.346 . S
C937 N936 1.346 . S
C937 C938 1.396 . S
C937 C947 1.510 . S
C938 C934 1.401 . S
C938 C937 1.396 . S
C939 C934 1.499 . S
C939 H940 0.959 . S
C939 H941 0.960 . S
C939 H942 0.961 . S
H940 C939 0.959 . S
H941 C939 0.960 . S
H942 C939 0.961 . S
O943 Co918 1.967 . S
O943 C951 1.258 . S
O944 Co919 1.941 . S
O944 C951 1.266 . S
H945 C947 0.959 . S
H946 C947 0.961 . S
C947 C937 1.510 . S
C947 H945 0.959 . S
C947 H946 0.961 . S
C947 H948 0.960 . S
H948 C947 0.960 . S
H949 N929 0.862 . S
O950 Co918 1.920 . S
O950 C923 1.289 . S
C951 O943 1.258 . S
C951 O944 1.266 . S
Co952 O955 1.970 . S
Co952 N969 1.989 . S
Co952 O977 1.967 . S
Co952 O984 1.920 . S
Co953 O956 1.966 . S
Co953 N962 2.022 . S
Co953 N970 1.993 . S
Co953 O978 1.941 . S
C954 O955 1.258 . S
C954 O956 1.263 . S
O955 Co952 1.970 . S
O955 C954 1.258 . S
O956 Co953 1.966 . S
O956 C954 1.263 . S
C957 O958 1.235 . S
C957 O984 1.289 . S
O958 C957 1.235 . S
C959 C961 1.400 . S
C959 N962 1.351 . S
C959 C964 1.501 . S
C960 C961 1.387 . S
C960 N963 1.341 . S
C961 C959 1.400 . S
C961 C960 1.387 . S
N962 Co953 2.022 . S
N962 C959 1.351 . S
N962 N963 1.365 . S
N963 C960 1.341 . S
N963 N962 1.365 . S
N963 H983 0.862 . S
C964 C959 1.501 . S
C964 H965 0.961 . S
C964 H966 0.961 . S
C964 H967 0.960 . S
H965 C964 0.961 . S
H966 C964 0.961 . S
H967 C964 0.960 . S
C968 N969 1.342 . S
C968 C972 1.401 . S
C968 C973 1.499 . S
N969 Co952 1.989 . S
N969 C968 1.342 . S
N969 N970 1.388 . S
N970 Co953 1.993 . S
N970 N969 1.388 . S
N970 C971 1.346 . S
C971 N970 1.346 . S
C971 C972 1.396 . S
C971 C981 1.510 . S
C972 C968 1.401 . S
C972 C971 1.396 . S
C973 C968 1.499 . S
C973 H974 0.959 . S
C973 H975 0.960 . S
C973 H976 0.961 . S
H974 C973 0.959 . S
H975 C973 0.960 . S
H976 C973 0.961 . S
O977 Co952 1.967 . S
O977 C985 1.258 . S
O978 Co953 1.941 . S
O978 C985 1.266 . S
H979 C981 0.959 . S
H980 C981 0.961 . S
C981 C971 1.510 . S
C981 H979 0.959 . S
C981 H980 0.961 . S
C981 H982 0.960 . S
H982 C981 0.960 . S
H983 N963 0.862 . S
O984 Co952 1.920 . S
O984 C957 1.289 . S
C985 O977 1.258 . S
C985 O978 1.266 . S
Co986 O989 1.970 . S
Co986 N1003 1.989 . S
Co986 O1011 1.967 . S
Co986 O1018 1.920 . S
Co987 O990 1.966 . S
Co987 N996 2.022 . S
Co987 N1004 1.993 . S
Co987 O1012 1.941 . S
C988 O989 1.258 . S
C988 O990 1.263 . S
O989 Co986 1.970 . S
O989 C988 1.258 . S
O990 Co987 1.966 . S
O990 C988 1.263 . S
C991 O992 1.235 . S
C991 O1018 1.289 . S
O992 C991 1.235 . S
C993 C995 1.400 . S
C993 N996 1.351 . S
C993 C998 1.501 . S
C994 C995 1.387 . S
C994 N997 1.341 . S
C995 C993 1.400 . S
C995 C994 1.387 . S
N996 Co987 2.022 . S
N996 C993 1.351 . S
N996 N997 1.365 . S
N997 C994 1.341 . S
N997 N996 1.365 . S
N997 H1017 0.862 . S
C998 C993 1.501 . S
C998 H999 0.961 . S
C998 H1000 0.961 . S
C998 H1001 0.960 . S
H999 C998 0.961 . S
H1000 C998 0.961 . S
H1001 C998 0.960 . S
C1002 N1003 1.342 . S
C1002 C1006 1.401 . S
C1002 C1007 1.499 . S
N1003 Co986 1.989 . S
N1003 C1002 1.342 . S
N1003 N1004 1.388 . S
N1004 Co987 1.993 . S
N1004 N1003 1.388 . S
N1004 C1005 1.346 . S
C1005 N1004 1.346 . S
C1005 C1006 1.396 . S
C1005 C1015 1.510 . S
C1006 C1002 1.401 . S
C1006 C1005 1.396 . S
C1007 C1002 1.499 . S
C1007 H1008 0.959 . S
C1007 H1009 0.960 . S
C1007 H1010 0.961 . S
H1008 C1007 0.959 . S
H1009 C1007 0.960 . S
H1010 C1007 0.961 . S
O1011 Co986 1.967 . S
O1011 C1019 1.258 . S
O1012 Co987 1.941 . S
O1012 C1019 1.266 . S
H1013 C1015 0.959 . S
H1014 C1015 0.961 . S
C1015 C1005 1.510 . S
C1015 H1013 0.959 . S
C1015 H1014 0.961 . S
C1015 H1016 0.960 . S
H1016 C1015 0.960 . S
H1017 N997 0.862 . S
O1018 Co986 1.920 . S
O1018 C991 1.289 . S
C1019 O1011 1.258 . S
C1019 O1012 1.266 . S
Co1020 O1023 1.970 . S
Co1020 N1037 1.989 . S
Co1020 O1045 1.967 . S
Co1020 O1052 1.920 . S
Co1021 O1024 1.966 . S
Co1021 N1030 2.022 . S
Co1021 N1038 1.993 . S
Co1021 O1046 1.941 . S
C1022 O1023 1.258 . S
C1022 O1024 1.263 . S
O1023 Co1020 1.970 . S
O1023 C1022 1.258 . S
O1024 Co1021 1.966 . S
O1024 C1022 1.263 . S
C1025 O1026 1.235 . S
C1025 O1052 1.289 . S
O1026 C1025 1.235 . S
C1027 C1029 1.400 . S
C1027 N1030 1.351 . S
C1027 C1032 1.501 . S
C1028 C1029 1.387 . S
C1028 N1031 1.341 . S
C1029 C1027 1.400 . S
C1029 C1028 1.387 . S
N1030 Co1021 2.022 . S
N1030 C1027 1.351 . S
N1030 N1031 1.365 . S
N1031 C1028 1.341 . S
N1031 N1030 1.365 . S
N1031 H1051 0.862 . S
C1032 C1027 1.501 . S
C1032 H1033 0.961 . S
C1032 H1034 0.961 . S
C1032 H1035 0.960 . S
H1033 C1032 0.961 . S
H1034 C1032 0.961 . S
H1035 C1032 0.960 . S
C1036 N1037 1.342 . S
C1036 C1040 1.401 . S
C1036 C1041 1.499 . S
N1037 Co1020 1.989 . S
N1037 C1036 1.342 . S
N1037 N1038 1.388 . S
N1038 Co1021 1.993 . S
N1038 N1037 1.388 . S
N1038 C1039 1.346 . S
C1039 N1038 1.346 . S
C1039 C1040 1.396 . S
C1039 C1049 1.510 . S
C1040 C1036 1.401 . S
C1040 C1039 1.396 . S
C1041 C1036 1.499 . S
C1041 H1042 0.959 . S
C1041 H1043 0.960 . S
C1041 H1044 0.961 . S
H1042 C1041 0.959 . S
H1043 C1041 0.960 . S
H1044 C1041 0.961 . S
O1045 Co1020 1.967 . S
O1045 C1053 1.258 . S
O1046 Co1021 1.941 . S
O1046 C1053 1.266 . S
H1047 C1049 0.959 . S
H1048 C1049 0.961 . S
C1049 C1039 1.510 . S
C1049 H1047 0.959 . S
C1049 H1048 0.961 . S
C1049 H1050 0.960 . S
H1050 C1049 0.960 . S
H1051 N1031 0.862 . S
O1052 Co1020 1.920 . S
O1052 C1025 1.289 . S
C1053 O1045 1.258 . S
C1053 O1046 1.266 . S
Co1054 O1057 1.970 . S
Co1054 N1071 1.989 . S
Co1054 O1079 1.967 . S
Co1054 O1086 1.920 . S
Co1055 O1058 1.966 . S
Co1055 N1064 2.022 . S
Co1055 N1072 1.993 . S
Co1055 O1080 1.941 . S
C1056 O1057 1.258 . S
C1056 O1058 1.263 . S
O1057 Co1054 1.970 . S
O1057 C1056 1.258 . S
O1058 Co1055 1.966 . S
O1058 C1056 1.263 . S
C1059 O1060 1.235 . S
C1059 O1086 1.289 . S
O1060 C1059 1.235 . S
C1061 C1063 1.400 . S
C1061 N1064 1.351 . S
C1061 C1066 1.501 . S
C1062 C1063 1.387 . S
C1062 N1065 1.341 . S
C1063 C1061 1.400 . S
C1063 C1062 1.387 . S
N1064 Co1055 2.022 . S
N1064 C1061 1.351 . S
N1064 N1065 1.365 . S
N1065 C1062 1.341 . S
N1065 N1064 1.365 . S
N1065 H1085 0.862 . S
C1066 C1061 1.501 . S
C1066 H1067 0.961 . S
C1066 H1068 0.961 . S
C1066 H1069 0.960 . S
H1067 C1066 0.961 . S
H1068 C1066 0.961 . S
H1069 C1066 0.960 . S
C1070 N1071 1.342 . S
C1070 C1074 1.401 . S
C1070 C1075 1.499 . S
N1071 Co1054 1.989 . S
N1071 C1070 1.342 . S
N1071 N1072 1.388 . S
N1072 Co1055 1.993 . S
N1072 N1071 1.388 . S
N1072 C1073 1.346 . S
C1073 N1072 1.346 . S
C1073 C1074 1.396 . S
C1073 C1083 1.510 . S
C1074 C1070 1.401 . S
C1074 C1073 1.396 . S
C1075 C1070 1.499 . S
C1075 H1076 0.959 . S
C1075 H1077 0.960 . S
C1075 H1078 0.961 . S
H1076 C1075 0.959 . S
H1077 C1075 0.960 . S
H1078 C1075 0.961 . S
O1079 Co1054 1.967 . S
O1079 C1087 1.258 . S
O1080 Co1055 1.941 . S
O1080 C1087 1.266 . S
H1081 C1083 0.959 . S
H1082 C1083 0.961 . S
C1083 C1073 1.510 . S
C1083 H1081 0.959 . S
C1083 H1082 0.961 . S
C1083 H1084 0.960 . S
H1084 C1083 0.960 . S
H1085 N1065 0.862 . S
O1086 Co1054 1.920 . S
O1086 C1059 1.289 . S
C1087 O1079 1.258 . S
C1087 O1080 1.266 . S
Co1088 O1091 1.970 . S
Co1088 N1105 1.989 . S
Co1088 O1113 1.967 . S
Co1088 O1120 1.920 . S
Co1089 O1092 1.966 . S
Co1089 N1098 2.022 . S
Co1089 N1106 1.993 . S
Co1089 O1114 1.941 . S
C1090 O1091 1.258 . S
C1090 O1092 1.263 . S
O1091 Co1088 1.970 . S
O1091 C1090 1.258 . S
O1092 Co1089 1.966 . S
O1092 C1090 1.263 . S
C1093 O1094 1.235 . S
C1093 O1120 1.289 . S
O1094 C1093 1.235 . S
C1095 C1097 1.400 . S
C1095 N1098 1.351 . S
C1095 C1100 1.501 . S
C1096 C1097 1.387 . S
C1096 N1099 1.341 . S
C1097 C1095 1.400 . S
C1097 C1096 1.387 . S
N1098 Co1089 2.022 . S
N1098 C1095 1.351 . S
N1098 N1099 1.365 . S
N1099 C1096 1.341 . S
N1099 N1098 1.365 . S
N1099 H1119 0.862 . S
C1100 C1095 1.501 . S
C1100 H1101 0.961 . S
C1100 H1102 0.961 . S
C1100 H1103 0.960 . S
H1101 C1100 0.961 . S
H1102 C1100 0.961 . S
H1103 C1100 0.960 . S
C1104 N1105 1.342 . S
C1104 C1108 1.401 . S
C1104 C1109 1.499 . S
N1105 Co1088 1.989 . S
N1105 C1104 1.342 . S
N1105 N1106 1.388 . S
N1106 Co1089 1.993 . S
N1106 N1105 1.388 . S
N1106 C1107 1.346 . S
C1107 N1106 1.346 . S
C1107 C1108 1.396 . S
C1107 C1117 1.510 . S
C1108 C1104 1.401 . S
C1108 C1107 1.396 . S
C1109 C1104 1.499 . S
C1109 H1110 0.959 . S
C1109 H1111 0.960 . S
C1109 H1112 0.961 . S
H1110 C1109 0.959 . S
H1111 C1109 0.960 . S
H1112 C1109 0.961 . S
O1113 Co1088 1.967 . S
O1113 C1121 1.258 . S
O1114 Co1089 1.941 . S
O1114 C1121 1.266 . S
H1115 C1117 0.959 . S
H1116 C1117 0.961 . S
C1117 C1107 1.510 . S
C1117 H1115 0.959 . S
C1117 H1116 0.961 . S
C1117 H1118 0.960 . S
H1118 C1117 0.960 . S
H1119 N1099 0.862 . S
O1120 Co1088 1.920 . S
O1120 C1093 1.289 . S
C1121 O1113 1.258 . S
C1121 O1114 1.266 . S
Co1122 O1125 1.970 . S
Co1122 N1139 1.989 . S
Co1122 O1147 1.967 . S
Co1122 O1154 1.920 . S
Co1123 O1126 1.966 . S
Co1123 N1132 2.022 . S
Co1123 N1140 1.993 . S
Co1123 O1148 1.941 . S
C1124 O1125 1.258 . S
C1124 O1126 1.263 . S
O1125 Co1122 1.970 . S
O1125 C1124 1.258 . S
O1126 Co1123 1.966 . S
O1126 C1124 1.263 . S
C1127 O1128 1.235 . S
C1127 O1154 1.289 . S
O1128 C1127 1.235 . S
C1129 C1131 1.400 . S
C1129 N1132 1.351 . S
C1129 C1134 1.501 . S
C1130 C1131 1.387 . S
C1130 N1133 1.341 . S
C1131 C1129 1.400 . S
C1131 C1130 1.387 . S
N1132 Co1123 2.022 . S
N1132 C1129 1.351 . S
N1132 N1133 1.365 . S
N1133 C1130 1.341 . S
N1133 N1132 1.365 . S
N1133 H1153 0.862 . S
C1134 C1129 1.501 . S
C1134 H1135 0.961 . S
C1134 H1136 0.961 . S
C1134 H1137 0.960 . S
H1135 C1134 0.961 . S
H1136 C1134 0.961 . S
H1137 C1134 0.960 . S
C1138 N1139 1.342 . S
C1138 C1142 1.401 . S
C1138 C1143 1.499 . S
N1139 Co1122 1.989 . S
N1139 C1138 1.342 . S
N1139 N1140 1.388 . S
N1140 Co1123 1.993 . S
N1140 N1139 1.388 . S
N1140 C1141 1.346 . S
C1141 N1140 1.346 . S
C1141 C1142 1.396 . S
C1141 C1151 1.510 . S
C1142 C1138 1.401 . S
C1142 C1141 1.396 . S
C1143 C1138 1.499 . S
C1143 H1144 0.959 . S
C1143 H1145 0.960 . S
C1143 H1146 0.961 . S
H1144 C1143 0.959 . S
H1145 C1143 0.960 . S
H1146 C1143 0.961 . S
O1147 Co1122 1.967 . S
O1147 C1155 1.258 . S
O1148 Co1123 1.941 . S
O1148 C1155 1.266 . S
H1149 C1151 0.959 . S
H1150 C1151 0.961 . S
C1151 C1141 1.510 . S
C1151 H1149 0.959 . S
C1151 H1150 0.961 . S
C1151 H1152 0.960 . S
H1152 C1151 0.960 . S
H1153 N1133 0.862 . S
O1154 Co1122 1.920 . S
O1154 C1127 1.289 . S
C1155 O1147 1.258 . S
C1155 O1148 1.266 . S
Co1156 O1159 1.970 . S
Co1156 N1173 1.989 . S
Co1156 O1181 1.967 . S
Co1156 O1188 1.920 . S
Co1157 O1160 1.966 . S
Co1157 N1166 2.022 . S
Co1157 N1174 1.993 . S
Co1157 O1182 1.941 . S
C1158 O1159 1.258 . S
C1158 O1160 1.263 . S
O1159 Co1156 1.970 . S
O1159 C1158 1.258 . S
O1160 Co1157 1.966 . S
O1160 C1158 1.263 . S
C1161 O1162 1.235 . S
C1161 O1188 1.289 . S
O1162 C1161 1.235 . S
C1163 C1165 1.400 . S
C1163 N1166 1.351 . S
C1163 C1168 1.501 . S
C1164 C1165 1.387 . S
C1164 N1167 1.341 . S
C1165 C1163 1.400 . S
C1165 C1164 1.387 . S
N1166 Co1157 2.022 . S
N1166 C1163 1.351 . S
N1166 N1167 1.365 . S
N1167 C1164 1.341 . S
N1167 N1166 1.365 . S
N1167 H1187 0.862 . S
C1168 C1163 1.501 . S
C1168 H1169 0.961 . S
C1168 H1170 0.961 . S
C1168 H1171 0.960 . S
H1169 C1168 0.961 . S
H1170 C1168 0.961 . S
H1171 C1168 0.960 . S
C1172 N1173 1.342 . S
C1172 C1176 1.401 . S
C1172 C1177 1.499 . S
N1173 Co1156 1.989 . S
N1173 C1172 1.342 . S
N1173 N1174 1.388 . S
N1174 Co1157 1.993 . S
N1174 N1173 1.388 . S
N1174 C1175 1.346 . S
C1175 N1174 1.346 . S
C1175 C1176 1.396 . S
C1175 C1185 1.510 . S
C1176 C1172 1.401 . S
C1176 C1175 1.396 . S
C1177 C1172 1.499 . S
C1177 H1178 0.959 . S
C1177 H1179 0.960 . S
C1177 H1180 0.961 . S
H1178 C1177 0.959 . S
H1179 C1177 0.960 . S
H1180 C1177 0.961 . S
O1181 Co1156 1.967 . S
O1181 C1189 1.258 . S
O1182 Co1157 1.941 . S
O1182 C1189 1.266 . S
H1183 C1185 0.959 . S
H1184 C1185 0.961 . S
C1185 C1175 1.510 . S
C1185 H1183 0.959 . S
C1185 H1184 0.961 . S
C1185 H1186 0.960 . S
H1186 C1185 0.960 . S
H1187 N1167 0.862 . S
O1188 Co1156 1.920 . S
O1188 C1161 1.289 . S
C1189 O1181 1.258 . S
C1189 O1182 1.266 . S
Co1190 O1193 1.970 . S
Co1190 N1207 1.989 . S
Co1190 O1215 1.967 . S
Co1190 O1222 1.920 . S
Co1191 O1194 1.966 . S
Co1191 N1200 2.022 . S
Co1191 N1208 1.993 . S
Co1191 O1216 1.941 . S
C1192 O1193 1.258 . S
C1192 O1194 1.263 . S
O1193 Co1190 1.970 . S
O1193 C1192 1.258 . S
O1194 Co1191 1.966 . S
O1194 C1192 1.263 . S
C1195 O1196 1.235 . S
C1195 O1222 1.289 . S
O1196 C1195 1.235 . S
C1197 C1199 1.400 . S
C1197 N1200 1.351 . S
C1197 C1202 1.501 . S
C1198 C1199 1.387 . S
C1198 N1201 1.341 . S
C1199 C1197 1.400 . S
C1199 C1198 1.387 . S
N1200 Co1191 2.022 . S
N1200 C1197 1.351 . S
N1200 N1201 1.365 . S
N1201 C1198 1.341 . S
N1201 N1200 1.365 . S
N1201 H1221 0.862 . S
C1202 C1197 1.501 . S
C1202 H1203 0.961 . S
C1202 H1204 0.961 . S
C1202 H1205 0.960 . S
H1203 C1202 0.961 . S
H1204 C1202 0.961 . S
H1205 C1202 0.960 . S
C1206 N1207 1.342 . S
C1206 C1210 1.401 . S
C1206 C1211 1.499 . S
N1207 Co1190 1.989 . S
N1207 C1206 1.342 . S
N1207 N1208 1.388 . S
N1208 Co1191 1.993 . S
N1208 N1207 1.388 . S
N1208 C1209 1.346 . S
C1209 N1208 1.346 . S
C1209 C1210 1.396 . S
C1209 C1219 1.510 . S
C1210 C1206 1.401 . S
C1210 C1209 1.396 . S
C1211 C1206 1.499 . S
C1211 H1212 0.959 . S
C1211 H1213 0.960 . S
C1211 H1214 0.961 . S
H1212 C1211 0.959 . S
H1213 C1211 0.960 . S
H1214 C1211 0.961 . S
O1215 Co1190 1.967 . S
O1215 C1223 1.258 . S
O1216 Co1191 1.941 . S
O1216 C1223 1.266 . S
H1217 C1219 0.959 . S
H1218 C1219 0.961 . S
C1219 C1209 1.510 . S
C1219 H1217 0.959 . S
C1219 H1218 0.961 . S
C1219 H1220 0.960 . S
H1220 C1219 0.960 . S
H1221 N1201 0.862 . S
O1222 Co1190 1.920 . S
O1222 C1195 1.289 . S
C1223 O1215 1.258 . S
C1223 O1216 1.266 . S
Co1224 O1227 1.970 . S
Co1224 N1241 1.989 . S
Co1224 O1249 1.967 . S
Co1224 O1256 1.920 . S
Co1225 O1228 1.966 . S
Co1225 N1234 2.022 . S
Co1225 N1242 1.993 . S
Co1225 O1250 1.941 . S
C1226 O1227 1.258 . S
C1226 O1228 1.263 . S
O1227 Co1224 1.970 . S
O1227 C1226 1.258 . S
O1228 Co1225 1.966 . S
O1228 C1226 1.263 . S
C1229 O1230 1.235 . S
C1229 O1256 1.289 . S
O1230 C1229 1.235 . S
C1231 C1233 1.400 . S
C1231 N1234 1.351 . S
C1231 C1236 1.501 . S
C1232 C1233 1.387 . S
C1232 N1235 1.341 . S
C1233 C1231 1.400 . S
C1233 C1232 1.387 . S
N1234 Co1225 2.022 . S
N1234 C1231 1.351 . S
N1234 N1235 1.365 . S
N1235 C1232 1.341 . S
N1235 N1234 1.365 . S
N1235 H1255 0.862 . S
C1236 C1231 1.501 . S
C1236 H1237 0.961 . S
C1236 H1238 0.961 . S
C1236 H1239 0.960 . S
H1237 C1236 0.961 . S
H1238 C1236 0.961 . S
H1239 C1236 0.960 . S
C1240 N1241 1.342 . S
C1240 C1244 1.401 . S
C1240 C1245 1.499 . S
N1241 Co1224 1.989 . S
N1241 C1240 1.342 . S
N1241 N1242 1.388 . S
N1242 Co1225 1.993 . S
N1242 N1241 1.388 . S
N1242 C1243 1.346 . S
C1243 N1242 1.346 . S
C1243 C1244 1.396 . S
C1243 C1253 1.510 . S
C1244 C1240 1.401 . S
C1244 C1243 1.396 . S
C1245 C1240 1.499 . S
C1245 H1246 0.959 . S
C1245 H1247 0.960 . S
C1245 H1248 0.961 . S
H1246 C1245 0.959 . S
H1247 C1245 0.960 . S
H1248 C1245 0.961 . S
O1249 Co1224 1.967 . S
O1249 C1257 1.258 . S
O1250 Co1225 1.941 . S
O1250 C1257 1.266 . S
H1251 C1253 0.959 . S
H1252 C1253 0.961 . S
C1253 C1243 1.510 . S
C1253 H1251 0.959 . S
C1253 H1252 0.961 . S
C1253 H1254 0.960 . S
H1254 C1253 0.960 . S
H1255 N1235 0.862 . S
O1256 Co1224 1.920 . S
O1256 C1229 1.289 . S
C1257 O1249 1.258 . S
C1257 O1250 1.266 . S
Co1258 O1261 1.970 . S
Co1258 N1275 1.989 . S
Co1258 O1283 1.967 . S
Co1258 O1290 1.920 . S
Co1259 O1262 1.966 . S
Co1259 N1268 2.022 . S
Co1259 N1276 1.993 . S
Co1259 O1284 1.941 . S
C1260 O1261 1.258 . S
C1260 O1262 1.263 . S
O1261 Co1258 1.970 . S
O1261 C1260 1.258 . S
O1262 Co1259 1.966 . S
O1262 C1260 1.263 . S
C1263 O1264 1.235 . S
C1263 O1290 1.289 . S
O1264 C1263 1.235 . S
C1265 C1267 1.400 . S
C1265 N1268 1.351 . S
C1265 C1270 1.501 . S
C1266 C1267 1.387 . S
C1266 N1269 1.341 . S
C1267 C1265 1.400 . S
C1267 C1266 1.387 . S
N1268 Co1259 2.022 . S
N1268 C1265 1.351 . S
N1268 N1269 1.365 . S
N1269 C1266 1.341 . S
N1269 N1268 1.365 . S
N1269 H1289 0.862 . S
C1270 C1265 1.501 . S
C1270 H1271 0.961 . S
C1270 H1272 0.961 . S
C1270 H1273 0.960 . S
H1271 C1270 0.961 . S
H1272 C1270 0.961 . S
H1273 C1270 0.960 . S
C1274 N1275 1.342 . S
C1274 C1278 1.401 . S
C1274 C1279 1.499 . S
N1275 Co1258 1.989 . S
N1275 C1274 1.342 . S
N1275 N1276 1.388 . S
N1276 Co1259 1.993 . S
N1276 N1275 1.388 . S
N1276 C1277 1.346 . S
C1277 N1276 1.346 . S
C1277 C1278 1.396 . S
C1277 C1287 1.510 . S
C1278 C1274 1.401 . S
C1278 C1277 1.396 . S
C1279 C1274 1.499 . S
C1279 H1280 0.959 . S
C1279 H1281 0.960 . S
C1279 H1282 0.961 . S
H1280 C1279 0.959 . S
H1281 C1279 0.960 . S
H1282 C1279 0.961 . S
O1283 Co1258 1.967 . S
O1283 C1291 1.258 . S
O1284 Co1259 1.941 . S
O1284 C1291 1.266 . S
H1285 C1287 0.959 . S
H1286 C1287 0.961 . S
C1287 C1277 1.510 . S
C1287 H1285 0.959 . S
C1287 H1286 0.961 . S
C1287 H1288 0.960 . S
H1288 C1287 0.960 . S
H1289 N1269 0.862 . S
O1290 Co1258 1.920 . S
O1290 C1263 1.289 . S
C1291 O1283 1.258 . S
C1291 O1284 1.266 . S
Co1292 O1295 1.970 . S
Co1292 N1309 1.989 . S
Co1292 O1317 1.967 . S
Co1292 O1324 1.920 . S
Co1293 O1296 1.966 . S
Co1293 N1302 2.022 . S
Co1293 N1310 1.993 . S
Co1293 O1318 1.941 . S
C1294 O1295 1.258 . S
C1294 O1296 1.263 . S
O1295 Co1292 1.970 . S
O1295 C1294 1.258 . S
O1296 Co1293 1.966 . S
O1296 C1294 1.263 . S
C1297 O1298 1.235 . S
C1297 O1324 1.289 . S
O1298 C1297 1.235 . S
C1299 C1301 1.400 . S
C1299 N1302 1.351 . S
C1299 C1304 1.501 . S
C1300 C1301 1.387 . S
C1300 N1303 1.341 . S
C1301 C1299 1.400 . S
C1301 C1300 1.387 . S
N1302 Co1293 2.022 . S
N1302 C1299 1.351 . S
N1302 N1303 1.365 . S
N1303 C1300 1.341 . S
N1303 N1302 1.365 . S
N1303 H1323 0.862 . S
C1304 C1299 1.501 . S
C1304 H1305 0.961 . S
C1304 H1306 0.961 . S
C1304 H1307 0.960 . S
H1305 C1304 0.961 . S
H1306 C1304 0.961 . S
H1307 C1304 0.960 . S
C1308 N1309 1.342 . S
C1308 C1312 1.401 . S
C1308 C1313 1.499 . S
N1309 Co1292 1.989 . S
N1309 C1308 1.342 . S
N1309 N1310 1.388 . S
N1310 Co1293 1.993 . S
N1310 N1309 1.388 . S
N1310 C1311 1.346 . S
C1311 N1310 1.346 . S
C1311 C1312 1.396 . S
C1311 C1321 1.510 . S
C1312 C1308 1.401 . S
C1312 C1311 1.396 . S
C1313 C1308 1.499 . S
C1313 H1314 0.959 . S
C1313 H1315 0.960 . S
C1313 H1316 0.961 . S
H1314 C1313 0.959 . S
H1315 C1313 0.960 . S
H1316 C1313 0.961 . S
O1317 Co1292 1.967 . S
O1317 C1325 1.258 . S
O1318 Co1293 1.941 . S
O1318 C1325 1.266 . S
H1319 C1321 0.959 . S
H1320 C1321 0.961 . S
C1321 C1311 1.510 . S
C1321 H1319 0.959 . S
C1321 H1320 0.961 . S
C1321 H1322 0.960 . S
H1322 C1321 0.960 . S
H1323 N1303 0.862 . S
O1324 Co1292 1.920 . S
O1324 C1297 1.289 . S
C1325 O1317 1.258 . S
C1325 O1318 1.266 . S
Co1326 O1329 1.970 . S
Co1326 N1343 1.989 . S
Co1326 O1351 1.967 . S
Co1326 O1358 1.920 . S
Co1327 O1330 1.966 . S
Co1327 N1336 2.022 . S
Co1327 N1344 1.993 . S
Co1327 O1352 1.941 . S
C1328 O1329 1.258 . S
C1328 O1330 1.263 . S
O1329 Co1326 1.970 . S
O1329 C1328 1.258 . S
O1330 Co1327 1.966 . S
O1330 C1328 1.263 . S
C1331 O1332 1.235 . S
C1331 O1358 1.289 . S
O1332 C1331 1.235 . S
C1333 C1335 1.400 . S
C1333 N1336 1.351 . S
C1333 C1338 1.501 . S
C1334 C1335 1.387 . S
C1334 N1337 1.341 . S
C1335 C1333 1.400 . S
C1335 C1334 1.387 . S
N1336 Co1327 2.022 . S
N1336 C1333 1.351 . S
N1336 N1337 1.365 . S
N1337 C1334 1.341 . S
N1337 N1336 1.365 . S
N1337 H1357 0.862 . S
C1338 C1333 1.501 . S
C1338 H1339 0.961 . S
C1338 H1340 0.961 . S
C1338 H1341 0.960 . S
H1339 C1338 0.961 . S
H1340 C1338 0.961 . S
H1341 C1338 0.960 . S
C1342 N1343 1.342 . S
C1342 C1346 1.401 . S
C1342 C1347 1.499 . S
N1343 Co1326 1.989 . S
N1343 C1342 1.342 . S
N1343 N1344 1.388 . S
N1344 Co1327 1.993 . S
N1344 N1343 1.388 . S
N1344 C1345 1.346 . S
C1345 N1344 1.346 . S
C1345 C1346 1.396 . S
C1345 C1355 1.510 . S
C1346 C1342 1.401 . S
C1346 C1345 1.396 . S
C1347 C1342 1.499 . S
C1347 H1348 0.959 . S
C1347 H1349 0.960 . S
C1347 H1350 0.961 . S
H1348 C1347 0.959 . S
H1349 C1347 0.960 . S
H1350 C1347 0.961 . S
O1351 Co1326 1.967 . S
O1351 C1359 1.258 . S
O1352 Co1327 1.941 . S
O1352 C1359 1.266 . S
H1353 C1355 0.959 . S
H1354 C1355 0.961 . S
C1355 C1345 1.510 . S
C1355 H1353 0.959 . S
C1355 H1354 0.961 . S
C1355 H1356 0.960 . S
H1356 C1355 0.960 . S
H1357 N1337 0.862 . S
O1358 Co1326 1.920 . S
O1358 C1331 1.289 . S
C1359 O1351 1.258 . S
C1359 O1352 1.266 . S
Co1360 O1363 1.970 . S
Co1360 N1377 1.989 . S
Co1360 O1385 1.967 . S
Co1360 O1392 1.920 . S
Co1361 O1364 1.966 . S
Co1361 N1370 2.022 . S
Co1361 N1378 1.993 . S
Co1361 O1386 1.941 . S
C1362 O1363 1.258 . S
C1362 O1364 1.263 . S
O1363 Co1360 1.970 . S
O1363 C1362 1.258 . S
O1364 Co1361 1.966 . S
O1364 C1362 1.263 . S
C1365 O1366 1.235 . S
C1365 O1392 1.289 . S
O1366 C1365 1.235 . S
C1367 C1369 1.400 . S
C1367 N1370 1.351 . S
C1367 C1372 1.501 . S
C1368 C1369 1.387 . S
C1368 N1371 1.341 . S
C1369 C1367 1.400 . S
C1369 C1368 1.387 . S
N1370 Co1361 2.022 . S
N1370 C1367 1.351 . S
N1370 N1371 1.365 . S
N1371 C1368 1.341 . S
N1371 N1370 1.365 . S
N1371 H1391 0.862 . S
C1372 C1367 1.501 . S
C1372 H1373 0.961 . S
C1372 H1374 0.961 . S
C1372 H1375 0.960 . S
H1373 C1372 0.961 . S
H1374 C1372 0.961 . S
H1375 C1372 0.960 . S
C1376 N1377 1.342 . S
C1376 C1380 1.401 . S
C1376 C1381 1.499 . S
N1377 Co1360 1.989 . S
N1377 C1376 1.342 . S
N1377 N1378 1.388 . S
N1378 Co1361 1.993 . S
N1378 N1377 1.388 . S
N1378 C1379 1.346 . S
C1379 N1378 1.346 . S
C1379 C1380 1.396 . S
C1379 C1389 1.510 . S
C1380 C1376 1.401 . S
C1380 C1379 1.396 . S
C1381 C1376 1.499 . S
C1381 H1382 0.959 . S
C1381 H1383 0.960 . S
C1381 H1384 0.961 . S
H1382 C1381 0.959 . S
H1383 C1381 0.960 . S
H1384 C1381 0.961 . S
O1385 Co1360 1.967 . S
O1385 C1393 1.258 . S
O1386 Co1361 1.941 . S
O1386 C1393 1.266 . S
H1387 C1389 0.959 . S
H1388 C1389 0.961 . S
C1389 C1379 1.510 . S
C1389 H1387 0.959 . S
C1389 H1388 0.961 . S
C1389 H1390 0.960 . S
H1390 C1389 0.960 . S
H1391 N1371 0.862 . S
O1392 Co1360 1.920 . S
O1392 C1365 1.289 . S
C1393 O1385 1.258 . S
C1393 O1386 1.266 . S
Co1394 O1397 1.970 . S
Co1394 N1411 1.989 . S
Co1394 O1419 1.967 . S
Co1394 O1426 1.920 . S
Co1395 O1398 1.966 . S
Co1395 N1404 2.022 . S
Co1395 N1412 1.993 . S
Co1395 O1420 1.941 . S
C1396 O1397 1.258 . S
C1396 O1398 1.263 . S
O1397 Co1394 1.970 . S
O1397 C1396 1.258 . S
O1398 Co1395 1.966 . S
O1398 C1396 1.263 . S
C1399 O1400 1.235 . S
C1399 O1426 1.289 . S
O1400 C1399 1.235 . S
C1401 C1403 1.400 . S
C1401 N1404 1.351 . S
C1401 C1406 1.501 . S
C1402 C1403 1.387 . S
C1402 N1405 1.341 . S
C1403 C1401 1.400 . S
C1403 C1402 1.387 . S
N1404 Co1395 2.022 . S
N1404 C1401 1.351 . S
N1404 N1405 1.365 . S
N1405 C1402 1.341 . S
N1405 N1404 1.365 . S
N1405 H1425 0.862 . S
C1406 C1401 1.501 . S
C1406 H1407 0.961 . S
C1406 H1408 0.961 . S
C1406 H1409 0.960 . S
H1407 C1406 0.961 . S
H1408 C1406 0.961 . S
H1409 C1406 0.960 . S
C1410 N1411 1.342 . S
C1410 C1414 1.401 . S
C1410 C1415 1.499 . S
N1411 Co1394 1.989 . S
N1411 C1410 1.342 . S
N1411 N1412 1.388 . S
N1412 Co1395 1.993 . S
N1412 N1411 1.388 . S
N1412 C1413 1.346 . S
C1413 N1412 1.346 . S
C1413 C1414 1.396 . S
C1413 C1423 1.510 . S
C1414 C1410 1.401 . S
C1414 C1413 1.396 . S
C1415 C1410 1.499 . S
C1415 H1416 0.959 . S
C1415 H1417 0.960 . S
C1415 H1418 0.961 . S
H1416 C1415 0.959 . S
H1417 C1415 0.960 . S
H1418 C1415 0.961 . S
O1419 Co1394 1.967 . S
O1419 C1427 1.258 . S
O1420 Co1395 1.941 . S
O1420 C1427 1.266 . S
H1421 C1423 0.959 . S
H1422 C1423 0.961 . S
C1423 C1413 1.510 . S
C1423 H1421 0.959 . S
C1423 H1422 0.961 . S
C1423 H1424 0.960 . S
H1424 C1423 0.960 . S
H1425 N1405 0.862 . S
O1426 Co1394 1.920 . S
O1426 C1399 1.289 . S
C1427 O1419 1.258 . S
C1427 O1420 1.266 . S
Co1428 O1431 1.970 . S
Co1428 N1445 1.989 . S
Co1428 O1453 1.967 . S
Co1428 O1460 1.920 . S
Co1429 O1432 1.966 . S
Co1429 N1438 2.022 . S
Co1429 N1446 1.993 . S
Co1429 O1454 1.941 . S
C1430 O1431 1.258 . S
C1430 O1432 1.263 . S
O1431 Co1428 1.970 . S
O1431 C1430 1.258 . S
O1432 Co1429 1.966 . S
O1432 C1430 1.263 . S
C1433 O1434 1.235 . S
C1433 O1460 1.289 . S
O1434 C1433 1.235 . S
C1435 C1437 1.400 . S
C1435 N1438 1.351 . S
C1435 C1440 1.501 . S
C1436 C1437 1.387 . S
C1436 N1439 1.341 . S
C1437 C1435 1.400 . S
C1437 C1436 1.387 . S
N1438 Co1429 2.022 . S
N1438 C1435 1.351 . S
N1438 N1439 1.365 . S
N1439 C1436 1.341 . S
N1439 N1438 1.365 . S
N1439 H1459 0.862 . S
C1440 C1435 1.501 . S
C1440 H1441 0.961 . S
C1440 H1442 0.961 . S
C1440 H1443 0.960 . S
H1441 C1440 0.961 . S
H1442 C1440 0.961 . S
H1443 C1440 0.960 . S
C1444 N1445 1.342 . S
C1444 C1448 1.401 . S
C1444 C1449 1.499 . S
N1445 Co1428 1.989 . S
N1445 C1444 1.342 . S
N1445 N1446 1.388 . S
N1446 Co1429 1.993 . S
N1446 N1445 1.388 . S
N1446 C1447 1.346 . S
C1447 N1446 1.346 . S
C1447 C1448 1.396 . S
C1447 C1457 1.510 . S
C1448 C1444 1.401 . S
C1448 C1447 1.396 . S
C1449 C1444 1.499 . S
C1449 H1450 0.959 . S
C1449 H1451 0.960 . S
C1449 H1452 0.961 . S
H1450 C1449 0.959 . S
H1451 C1449 0.960 . S
H1452 C1449 0.961 . S
O1453 Co1428 1.967 . S
O1453 C1461 1.258 . S
O1454 Co1429 1.941 . S
O1454 C1461 1.266 . S
H1455 C1457 0.959 . S
H1456 C1457 0.961 . S
C1457 C1447 1.510 . S
C1457 H1455 0.959 . S
C1457 H1456 0.961 . S
C1457 H1458 0.960 . S
H1458 C1457 0.960 . S
H1459 N1439 0.862 . S
O1460 Co1428 1.920 . S
O1460 C1433 1.289 . S
C1461 O1453 1.258 . S
C1461 O1454 1.266 . S
Co1462 O1465 1.970 . S
Co1462 N1479 1.989 . S
Co1462 O1487 1.967 . S
Co1462 O1494 1.920 . S
Co1463 O1466 1.966 . S
Co1463 N1472 2.022 . S
Co1463 N1480 1.993 . S
Co1463 O1488 1.941 . S
C1464 O1465 1.258 . S
C1464 O1466 1.263 . S
O1465 Co1462 1.970 . S
O1465 C1464 1.258 . S
O1466 Co1463 1.966 . S
O1466 C1464 1.263 . S
C1467 O1468 1.235 . S
C1467 O1494 1.289 . S
O1468 C1467 1.235 . S
C1469 C1471 1.400 . S
C1469 N1472 1.351 . S
C1469 C1474 1.501 . S
C1470 C1471 1.387 . S
C1470 N1473 1.341 . S
C1471 C1469 1.400 . S
C1471 C1470 1.387 . S
N1472 Co1463 2.022 . S
N1472 C1469 1.351 . S
N1472 N1473 1.365 . S
N1473 C1470 1.341 . S
N1473 N1472 1.365 . S
N1473 H1493 0.862 . S
C1474 C1469 1.501 . S
C1474 H1475 0.961 . S
C1474 H1476 0.961 . S
C1474 H1477 0.960 . S
H1475 C1474 0.961 . S
H1476 C1474 0.961 . S
H1477 C1474 0.960 . S
C1478 N1479 1.342 . S
C1478 C1482 1.401 . S
C1478 C1483 1.499 . S
N1479 Co1462 1.989 . S
N1479 C1478 1.342 . S
N1479 N1480 1.388 . S
N1480 Co1463 1.993 . S
N1480 N1479 1.388 . S
N1480 C1481 1.346 . S
C1481 N1480 1.346 . S
C1481 C1482 1.396 . S
C1481 C1491 1.510 . S
C1482 C1478 1.401 . S
C1482 C1481 1.396 . S
C1483 C1478 1.499 . S
C1483 H1484 0.959 . S
C1483 H1485 0.960 . S
C1483 H1486 0.961 . S
H1484 C1483 0.959 . S
H1485 C1483 0.960 . S
H1486 C1483 0.961 . S
O1487 Co1462 1.967 . S
O1487 C1495 1.258 . S
O1488 Co1463 1.941 . S
O1488 C1495 1.266 . S
H1489 C1491 0.959 . S
H1490 C1491 0.961 . S
C1491 C1481 1.510 . S
C1491 H1489 0.959 . S
C1491 H1490 0.961 . S
C1491 H1492 0.960 . S
H1492 C1491 0.960 . S
H1493 N1473 0.862 . S
O1494 Co1462 1.920 . S
O1494 C1467 1.289 . S
C1495 O1487 1.258 . S
C1495 O1488 1.266 . S
Co1496 O1499 1.970 . S
Co1496 N1513 1.989 . S
Co1496 O1521 1.967 . S
Co1496 O1528 1.920 . S
Co1497 O1500 1.966 . S
Co1497 N1506 2.022 . S
Co1497 N1514 1.993 . S
Co1497 O1522 1.941 . S
C1498 O1499 1.258 . S
C1498 O1500 1.263 . S
O1499 Co1496 1.970 . S
O1499 C1498 1.258 . S
O1500 Co1497 1.966 . S
O1500 C1498 1.263 . S
C1501 O1502 1.235 . S
C1501 O1528 1.289 . S
O1502 C1501 1.235 . S
C1503 C1505 1.400 . S
C1503 N1506 1.351 . S
C1503 C1508 1.501 . S
C1504 C1505 1.387 . S
C1504 N1507 1.341 . S
C1505 C1503 1.400 . S
C1505 C1504 1.387 . S
N1506 Co1497 2.022 . S
N1506 C1503 1.351 . S
N1506 N1507 1.365 . S
N1507 C1504 1.341 . S
N1507 N1506 1.365 . S
N1507 H1527 0.862 . S
C1508 C1503 1.501 . S
C1508 H1509 0.961 . S
C1508 H1510 0.961 . S
C1508 H1511 0.960 . S
H1509 C1508 0.961 . S
H1510 C1508 0.961 . S
H1511 C1508 0.960 . S
C1512 N1513 1.342 . S
C1512 C1516 1.401 . S
C1512 C1517 1.499 . S
N1513 Co1496 1.989 . S
N1513 C1512 1.342 . S
N1513 N1514 1.388 . S
N1514 Co1497 1.993 . S
N1514 N1513 1.388 . S
N1514 C1515 1.346 . S
C1515 N1514 1.346 . S
C1515 C1516 1.396 . S
C1515 C1525 1.510 . S
C1516 C1512 1.401 . S
C1516 C1515 1.396 . S
C1517 C1512 1.499 . S
C1517 H1518 0.959 . S
C1517 H1519 0.960 . S
C1517 H1520 0.961 . S
H1518 C1517 0.959 . S
H1519 C1517 0.960 . S
H1520 C1517 0.961 . S
O1521 Co1496 1.967 . S
O1521 C1529 1.258 . S
O1522 Co1497 1.941 . S
O1522 C1529 1.266 . S
H1523 C1525 0.959 . S
H1524 C1525 0.961 . S
C1525 C1515 1.510 . S
C1525 H1523 0.959 . S
C1525 H1524 0.961 . S
C1525 H1526 0.960 . S
H1526 C1525 0.960 . S
H1527 N1507 0.862 . S
O1528 Co1496 1.920 . S
O1528 C1501 1.289 . S
C1529 O1521 1.258 . S
C1529 O1522 1.266 . S
Co1530 O1533 1.970 . S
Co1530 N1547 1.989 . S
Co1530 O1555 1.967 . S
Co1530 O1562 1.920 . S
Co1531 O1534 1.966 . S
Co1531 N1540 2.022 . S
Co1531 N1548 1.993 . S
Co1531 O1556 1.941 . S
C1532 O1533 1.258 . S
C1532 O1534 1.263 . S
O1533 Co1530 1.970 . S
O1533 C1532 1.258 . S
O1534 Co1531 1.966 . S
O1534 C1532 1.263 . S
C1535 O1536 1.235 . S
C1535 O1562 1.289 . S
O1536 C1535 1.235 . S
C1537 C1539 1.400 . S
C1537 N1540 1.351 . S
C1537 C1542 1.501 . S
C1538 C1539 1.387 . S
C1538 N1541 1.341 . S
C1539 C1537 1.400 . S
C1539 C1538 1.387 . S
N1540 Co1531 2.022 . S
N1540 C1537 1.351 . S
N1540 N1541 1.365 . S
N1541 C1538 1.341 . S
N1541 N1540 1.365 . S
N1541 H1561 0.862 . S
C1542 C1537 1.501 . S
C1542 H1543 0.961 . S
C1542 H1544 0.961 . S
C1542 H1545 0.960 . S
H1543 C1542 0.961 . S
H1544 C1542 0.961 . S
H1545 C1542 0.960 . S
C1546 N1547 1.342 . S
C1546 C1550 1.401 . S
C1546 C1551 1.499 . S
N1547 Co1530 1.989 . S
N1547 C1546 1.342 . S
N1547 N1548 1.388 . S
N1548 Co1531 1.993 . S
N1548 N1547 1.388 . S
N1548 C1549 1.346 . S
C1549 N1548 1.346 . S
C1549 C1550 1.396 . S
C1549 C1559 1.510 . S
C1550 C1546 1.401 . S
C1550 C1549 1.396 . S
C1551 C1546 1.499 . S
C1551 H1552 0.959 . S
C1551 H1553 0.960 . S
C1551 H1554 0.961 . S
H1552 C1551 0.959 . S
H1553 C1551 0.960 . S
H1554 C1551 0.961 . S
O1555 Co1530 1.967 . S
O1555 C1563 1.258 . S
O1556 Co1531 1.941 . S
O1556 C1563 1.266 . S
H1557 C1559 0.959 . S
H1558 C1559 0.961 . S
C1559 C1549 1.510 . S
C1559 H1557 0.959 . S
C1559 H1558 0.961 . S
C1559 H1560 0.960 . S
H1560 C1559 0.960 . S
H1561 N1541 0.862 . S
O1562 Co1530 1.920 . S
O1562 C1535 1.289 . S
C1563 O1555 1.258 . S
C1563 O1556 1.266 . S
Co1564 O1567 1.970 . S
Co1564 N1581 1.989 . S
Co1564 O1589 1.967 . S
Co1564 O1596 1.920 . S
Co1565 O1568 1.966 . S
Co1565 N1574 2.022 . S
Co1565 N1582 1.993 . S
Co1565 O1590 1.941 . S
C1566 O1567 1.258 . S
C1566 O1568 1.263 . S
O1567 Co1564 1.970 . S
O1567 C1566 1.258 . S
O1568 Co1565 1.966 . S
O1568 C1566 1.263 . S
C1569 O1570 1.235 . S
C1569 O1596 1.289 . S
O1570 C1569 1.235 . S
C1571 C1573 1.400 . S
C1571 N1574 1.351 . S
C1571 C1576 1.501 . S
C1572 C1573 1.387 . S
C1572 N1575 1.341 . S
C1573 C1571 1.400 . S
C1573 C1572 1.387 . S
N1574 Co1565 2.022 . S
N1574 C1571 1.351 . S
N1574 N1575 1.365 . S
N1575 C1572 1.341 . S
N1575 N1574 1.365 . S
N1575 H1595 0.862 . S
C1576 C1571 1.501 . S
C1576 H1577 0.961 . S
C1576 H1578 0.961 . S
C1576 H1579 0.960 . S
H1577 C1576 0.961 . S
H1578 C1576 0.961 . S
H1579 C1576 0.960 . S
C1580 N1581 1.342 . S
C1580 C1584 1.401 . S
C1580 C1585 1.499 . S
N1581 Co1564 1.989 . S
N1581 C1580 1.342 . S
N1581 N1582 1.388 . S
N1582 Co1565 1.993 . S
N1582 N1581 1.388 . S
N1582 C1583 1.346 . S
C1583 N1582 1.346 . S
C1583 C1584 1.396 . S
C1583 C1593 1.510 . S
C1584 C1580 1.401 . S
C1584 C1583 1.396 . S
C1585 C1580 1.499 . S
C1585 H1586 0.959 . S
C1585 H1587 0.960 . S
C1585 H1588 0.961 . S
H1586 C1585 0.959 . S
H1587 C1585 0.960 . S
H1588 C1585 0.961 . S
O1589 Co1564 1.967 . S
O1589 C1597 1.258 . S
O1590 Co1565 1.941 . S
O1590 C1597 1.266 . S
H1591 C1593 0.959 . S
H1592 C1593 0.961 . S
C1593 C1583 1.510 . S
C1593 H1591 0.959 . S
C1593 H1592 0.961 . S
C1593 H1594 0.960 . S
H1594 C1593 0.960 . S
H1595 N1575 0.862 . S
O1596 Co1564 1.920 . S
O1596 C1569 1.289 . S
C1597 O1589 1.258 . S
C1597 O1590 1.266 . S
Co1598 O1601 1.970 . S
Co1598 N1615 1.989 . S
Co1598 O1623 1.967 . S
Co1598 O1630 1.920 . S
Co1599 O1602 1.966 . S
Co1599 N1608 2.022 . S
Co1599 N1616 1.993 . S
Co1599 O1624 1.941 . S
C1600 O1601 1.258 . S
C1600 O1602 1.263 . S
O1601 Co1598 1.970 . S
O1601 C1600 1.258 . S
O1602 Co1599 1.966 . S
O1602 C1600 1.263 . S
C1603 O1604 1.235 . S
C1603 O1630 1.289 . S
O1604 C1603 1.235 . S
C1605 C1607 1.400 . S
C1605 N1608 1.351 . S
C1605 C1610 1.501 . S
C1606 C1607 1.387 . S
C1606 N1609 1.341 . S
C1607 C1605 1.400 . S
C1607 C1606 1.387 . S
N1608 Co1599 2.022 . S
N1608 C1605 1.351 . S
N1608 N1609 1.365 . S
N1609 C1606 1.341 . S
N1609 N1608 1.365 . S
N1609 H1629 0.862 . S
C1610 C1605 1.501 . S
C1610 H1611 0.961 . S
C1610 H1612 0.961 . S
C1610 H1613 0.960 . S
H1611 C1610 0.961 . S
H1612 C1610 0.961 . S
H1613 C1610 0.960 . S
C1614 N1615 1.342 . S
C1614 C1618 1.401 . S
C1614 C1619 1.499 . S
N1615 Co1598 1.989 . S
N1615 C1614 1.342 . S
N1615 N1616 1.388 . S
N1616 Co1599 1.993 . S
N1616 N1615 1.388 . S
N1616 C1617 1.346 . S
C1617 N1616 1.346 . S
C1617 C1618 1.396 . S
C1617 C1627 1.510 . S
C1618 C1614 1.401 . S
C1618 C1617 1.396 . S
C1619 C1614 1.499 . S
C1619 H1620 0.959 . S
C1619 H1621 0.960 . S
C1619 H1622 0.961 . S
H1620 C1619 0.959 . S
H1621 C1619 0.960 . S
H1622 C1619 0.961 . S
O1623 Co1598 1.967 . S
O1623 C1631 1.258 . S
O1624 Co1599 1.941 . S
O1624 C1631 1.266 . S
H1625 C1627 0.959 . S
H1626 C1627 0.961 . S
C1627 C1617 1.510 . S
C1627 H1625 0.959 . S
C1627 H1626 0.961 . S
C1627 H1628 0.960 . S
H1628 C1627 0.960 . S
H1629 N1609 0.862 . S
O1630 Co1598 1.920 . S
O1630 C1603 1.289 . S
C1631 O1623 1.258 . S
C1631 O1624 1.266 . S
C1632 C1633 1.391 . S
C1632 C1634 1.394 . S
C1632 H1648 0.931 . S
C1633 C1632 1.391 . S
C1633 C1637 1.376 . S
C1634 C1632 1.394 . S
C1634 C1635 1.369 . S
C1634 C1638 1.531 . S
C1635 C1634 1.369 . S
C1635 C1636 1.410 . S
C1635 C1643 1.503 . S
C1636 C1635 1.410 . S
C1636 C1637 1.392 . S
C1636 C1639 1.511 . S
C1637 C1633 1.376 . S
C1637 C1636 1.392 . S
C1637 H1649 0.929 . S
C1638 C1634 1.531 . S
C1638 H1650 0.960 . S
C1638 H1651 0.962 . S
C1638 H1652 0.960 . S
C1639 C1636 1.511 . S
C1639 H1653 0.961 . S
C1639 H1654 0.961 . S
C1639 H1655 0.961 . S
C1640 C1641 1.370 . S
C1640 C1642 1.363 . S
C1640 H1656 0.931 . S
C1641 C1640 1.370 . S
C1641 C1645 1.408 . S
C1642 C1640 1.363 . S
C1642 C1643 1.370 . S
C1642 C1646 1.524 . S
C1643 C1635 1.503 . S
C1643 C1642 1.370 . S
C1643 C1644 1.403 . S
C1644 C1643 1.403 . S
C1644 C1645 1.404 . S
C1644 C1647 1.539 . S
C1645 C1641 1.408 . S
C1645 C1644 1.404 . S
C1645 H1657 0.930 . S
C1646 C1642 1.524 . S
C1646 H1658 0.956 . S
C1646 H1659 0.961 . S
C1646 H1660 0.961 . S
C1647 C1644 1.539 . S
C1647 H1661 0.958 . S
C1647 H1662 0.961 . S
C1647 H1663 0.960 . S
H1648 C1632 0.931 . S
H1649 C1637 0.929 . S
H1650 C1638 0.960 . S
H1651 C1638 0.962 . S
H1652 C1638 0.960 . S
H1653 C1639 0.961 . S
H1654 C1639 0.961 . S
H1655 C1639 0.961 . S
H1656 C1640 0.931 . S
H1657 C1645 0.930 . S
H1658 C1646 0.956 . S
H1659 C1646 0.961 . S
H1660 C1646 0.961 . S
H1661 C1647 0.958 . S
H1662 C1647 0.961 . S
H1663 C1647 0.960 . S
C1664 C1665 1.391 . S
C1664 C1666 1.394 . S
C1664 H1680 0.931 . S
C1665 C1664 1.391 . S
C1665 C1669 1.376 . S
C1666 C1664 1.394 . S
C1666 C1667 1.369 . S
C1666 C1670 1.531 1_554 S
C1667 C1666 1.369 . S
C1667 C1668 1.410 . S
C1667 C1675 1.503 . S
C1668 C1667 1.410 . S
C1668 C1669 1.392 . S
C1668 C1671 1.511 . S
C1669 C1665 1.376 . S
C1669 C1668 1.392 . S
C1669 H1681 0.929 . S
C1670 C1666 1.531 1_556 S
C1670 H1682 0.960 . S
C1670 H1683 0.962 . S
C1670 H1684 0.960 . S
C1671 C1668 1.511 . S
C1671 H1685 0.961 . S
C1671 H1686 0.961 . S
C1671 H1687 0.961 . S
C1672 C1673 1.370 . S
C1672 C1674 1.363 . S
C1672 H1688 0.931 . S
C1673 C1672 1.370 . S
C1673 C1677 1.390 1_556 S
C1674 C1672 1.363 . S
C1674 C1675 1.370 1_556 S
C1674 C1678 1.524 . S
C1675 C1667 1.503 . S
C1675 C1674 1.370 1_554 S
C1675 C1676 1.403 . S
C1676 C1675 1.403 . S
C1676 C1677 1.420 . S
C1676 C1679 1.539 . S
C1677 C1673 1.390 1_554 S
C1677 C1676 1.420 . S
C1677 H1689 0.934 . S
C1678 C1674 1.524 . S
C1678 H1690 0.956 . S
C1678 H1691 0.961 1_556 S
C1678 H1692 0.961 . S
C1679 C1676 1.539 . S
C1679 H1693 0.958 . S
C1679 H1694 0.961 . S
C1679 H1695 0.960 . S
H1680 C1664 0.931 . S
H1681 C1669 0.929 . S
H1682 C1670 0.960 . S
H1683 C1670 0.962 . S
H1684 C1670 0.960 . S
H1685 C1671 0.961 . S
H1686 C1671 0.961 . S
H1687 C1671 0.961 . S
H1688 C1672 0.931 . S
H1689 C1677 0.934 . S
H1690 C1678 0.956 . S
H1691 C1678 0.961 1_554 S
H1692 C1678 0.961 . S
H1693 C1679 0.958 . S
H1694 C1679 0.961 . S
H1695 C1679 0.960 . S
C1696 C1697 1.391 . S
C1696 C1698 1.394 . S
C1696 H1712 0.931 . S
C1697 C1696 1.391 . S
C1697 C1701 1.376 . S
C1698 C1696 1.394 . S
C1698 C1699 1.369 . S
C1698 C1702 1.531 . S
C1699 C1698 1.369 . S
C1699 C1700 1.410 . S
C1699 C1707 1.503 . S
C1700 C1699 1.410 . S
C1700 C1701 1.392 . S
C1700 C1703 1.511 . S
C1701 C1697 1.376 . S
C1701 C1700 1.392 . S
C1701 H1713 0.929 . S
C1702 C1698 1.531 . S
C1702 H1714 0.960 . S
C1702 H1715 0.962 . S
C1702 H1716 0.960 . S
C1703 C1700 1.511 . S
C1703 H1717 0.961 . S
C1703 H1718 0.961 . S
C1703 H1719 0.961 . S
C1704 C1705 1.370 . S
C1704 C1706 1.363 . S
C1704 H1720 0.931 . S
C1705 C1704 1.370 . S
C1705 C1709 1.408 . S
C1706 C1704 1.363 . S
C1706 C1707 1.370 . S
C1706 C1710 1.524 . S
C1707 C1699 1.503 . S
C1707 C1706 1.370 . S
C1707 C1708 1.403 . S
C1708 C1707 1.403 . S
C1708 C1709 1.404 . S
C1708 C1711 1.539 . S
C1709 C1705 1.408 . S
C1709 C1708 1.404 . S
C1709 H1721 0.930 . S
C1710 C1706 1.524 . S
C1710 H1722 0.956 . S
C1710 H1723 0.961 . S
C1710 H1724 0.961 . S
C1711 C1708 1.539 . S
C1711 H1725 0.958 . S
C1711 H1726 0.961 . S
C1711 H1727 0.960 . S
H1712 C1696 0.931 . S
H1713 C1701 0.929 . S
H1714 C1702 0.960 . S
H1715 C1702 0.962 . S
H1716 C1702 0.960 . S
H1717 C1703 0.961 . S
H1718 C1703 0.961 . S
H1719 C1703 0.961 . S
H1720 C1704 0.931 . S
H1721 C1709 0.930 . S
H1722 C1710 0.956 . S
H1723 C1710 0.961 . S
H1724 C1710 0.961 . S
H1725 C1711 0.958 . S
H1726 C1711 0.961 . S
H1727 C1711 0.960 . S
C1728 C1729 1.391 1_554 S
C1728 C1730 1.394 . S
C1728 H1744 0.931 . S
C1729 C1728 1.391 1_556 S
C1729 C1733 1.376 . S
C1730 C1728 1.394 . S
C1730 C1731 1.369 . S
C1730 C1734 1.531 . S
C1731 C1730 1.369 . S
C1731 C1732 1.410 1_554 S
C1731 C1739 1.503 . S
C1732 C1731 1.410 1_556 S
C1732 C1733 1.392 . S
C1732 C1735 1.511 . S
C1733 C1729 1.376 . S
C1733 C1732 1.392 . S
C1733 H1745 0.929 . S
C1734 C1730 1.531 . S
C1734 H1746 0.960 . S
C1734 H1747 0.962 . S
C1734 H1748 0.960 . S
C1735 C1732 1.511 . S
C1735 H1749 0.961 . S
C1735 H1750 0.961 . S
C1735 H1751 0.961 . S
C1736 C1737 1.370 . S
C1736 C1738 1.363 . S
C1736 H1752 0.931 . S
C1737 C1736 1.370 . S
C1737 C1741 1.408 . S
C1738 C1736 1.363 . S
C1738 C1739 1.370 . S
C1738 C1742 1.524 . S
C1739 C1731 1.503 . S
C1739 C1738 1.370 . S
C1739 C1740 1.403 . S
C1740 C1739 1.403 . S
C1740 C1741 1.404 . S
C1740 C1743 1.539 . S
C1741 C1737 1.408 . S
C1741 C1740 1.404 . S
C1741 H1753 0.930 . S
C1742 C1738 1.524 . S
C1742 H1754 0.956 . S
C1742 H1755 0.961 1_554 S
C1742 H1756 0.961 . S
C1743 C1740 1.539 . S
C1743 H1757 0.958 . S
C1743 H1758 0.961 . S
C1743 H1759 0.960 . S
H1744 C1728 0.931 . S
H1745 C1733 0.929 . S
H1746 C1734 0.960 . S
H1747 C1734 0.962 . S
H1748 C1734 0.960 . S
H1749 C1735 0.961 . S
H1750 C1735 0.961 . S
H1751 C1735 0.961 . S
H1752 C1736 0.931 . S
H1753 C1741 0.930 . S
H1754 C1742 0.956 . S
H1755 C1742 0.961 1_556 S
H1756 C1742 0.961 . S
H1757 C1743 0.958 . S
H1758 C1743 0.961 . S
H1759 C1743 0.960 . S
C1760 C1761 1.391 . S
C1760 C1762 1.394 . S
C1760 H1776 0.931 . S
C1761 C1760 1.391 . S
C1761 C1765 1.376 . S
C1762 C1760 1.394 . S
C1762 C1763 1.369 . S
C1762 C1766 1.531 . S
C1763 C1762 1.369 . S
C1763 C1764 1.410 . S
C1763 C1771 1.503 . S
C1764 C1763 1.410 . S
C1764 C1765 1.392 . S
C1764 C1767 1.511 . S
C1765 C1761 1.376 . S
C1765 C1764 1.392 . S
C1765 H1777 0.929 . S
C1766 C1762 1.531 . S
C1766 H1778 0.960 . S
C1766 H1779 0.962 . S
C1766 H1780 0.960 . S
C1767 C1764 1.511 . S
C1767 H1781 0.961 . S
C1767 H1782 0.961 . S
C1767 H1783 0.961 . S
C1768 C1769 1.370 . S
C1768 C1770 1.363 . S
C1768 H1784 0.931 . S
C1769 C1768 1.370 . S
C1769 C1773 1.408 . S
C1770 C1768 1.363 . S
C1770 C1771 1.370 . S
C1770 C1774 1.524 . S
C1771 C1763 1.503 . S
C1771 C1770 1.370 . S
C1771 C1772 1.403 . S
C1772 C1771 1.403 . S
C1772 C1773 1.404 . S
C1772 C1775 1.539 . S
C1773 C1769 1.408 . S
C1773 C1772 1.404 . S
C1773 H1785 0.930 . S
C1774 C1770 1.524 . S
C1774 H1786 0.956 . S
C1774 H1787 0.961 . S
C1774 H1788 0.961 . S
C1775 C1772 1.539 . S
C1775 H1789 0.958 . S
C1775 H1790 0.961 . S
C1775 H1791 0.960 . S
H1776 C1760 0.931 . S
H1777 C1765 0.929 . S
H1778 C1766 0.960 . S
H1779 C1766 0.962 . S
H1780 C1766 0.960 . S
H1781 C1767 0.961 . S
H1782 C1767 0.961 . S
H1783 C1767 0.961 . S
H1784 C1768 0.931 . S
H1785 C1773 0.930 . S
H1786 C1774 0.956 . S
H1787 C1774 0.961 . S
H1788 C1774 0.961 . S
H1789 C1775 0.958 . S
H1790 C1775 0.961 . S
H1791 C1775 0.960 . S
C1792 C1793 1.391 . S
C1792 C1794 1.382 1_655 S
C1792 H1808 0.931 . S
C1793 C1792 1.391 . S
C1793 C1797 1.376 . S
C1794 C1792 1.382 1_455 S
C1794 C1795 1.379 . S
C1794 C1798 1.532 1_556 S
C1795 C1794 1.379 . S
C1795 C1796 1.410 . S
C1795 C1803 1.503 . S
C1796 C1795 1.410 . S
C1796 C1797 1.392 1_455 S
C1796 C1799 1.511 . S
C1797 C1793 1.376 . S
C1797 C1796 1.392 1_655 S
C1797 H1809 0.929 . S
C1798 C1794 1.532 1_554 S
C1798 H1810 0.960 . S
C1798 H1811 0.962 . S
C1798 H1812 0.960 1_455 S
C1799 C1796 1.511 . S
C1799 H1813 0.961 . S
C1799 H1814 0.961 . S
C1799 H1815 0.961 . S
C1800 C1801 1.370 . S
C1800 C1802 1.363 . S
C1800 H1816 0.931 . S
C1801 C1800 1.370 . S
C1801 C1805 1.408 . S
C1802 C1800 1.363 . S
C1802 C1803 1.370 1_554 S
C1802 C1806 1.526 . S
C1803 C1795 1.503 . S
C1803 C1802 1.370 1_556 S
C1803 C1804 1.403 . S
C1804 C1803 1.403 . S
C1804 C1805 1.404 1_556 S
C1804 C1807 1.539 . S
C1805 C1801 1.408 . S
C1805 C1804 1.404 1_554 S
C1805 H1817 0.930 . S
C1806 C1802 1.526 . S
C1806 H1818 0.976 . S
C1806 H1819 0.928 1_554 S
C1806 H1820 0.974 . S
C1807 C1804 1.539 . S
C1807 H1821 0.958 . S
C1807 H1822 0.961 . S
C1807 H1823 0.960 . S
H1808 C1792 0.931 . S
H1809 C1797 0.929 . S
H1810 C1798 0.960 . S
H1811 C1798 0.962 . S
H1812 C1798 0.960 1_655 S
H1813 C1799 0.961 . S
H1814 C1799 0.961 . S
H1815 C1799 0.961 . S
H1816 C1800 0.931 . S
H1817 C1805 0.930 . S
H1818 C1806 0.976 . S
H1819 C1806 0.928 1_556 S
H1820 C1806 0.974 . S
H1821 C1807 0.958 . S
H1822 C1807 0.961 . S
H1823 C1807 0.960 . S
C1824 C1825 1.391 . S
C1824 C1826 1.394 . S
C1824 H1840 0.931 . S
C1825 C1824 1.391 . S
C1825 C1829 1.376 . S
C1826 C1824 1.394 . S
C1826 C1827 1.369 . S
C1826 C1830 1.531 . S
C1827 C1826 1.369 . S
C1827 C1828 1.410 . S
C1827 C1835 1.503 . S
C1828 C1827 1.410 . S
C1828 C1829 1.392 . S
C1828 C1831 1.511 . S
C1829 C1825 1.376 . S
C1829 C1828 1.392 . S
C1829 H1841 0.929 . S
C1830 C1826 1.531 . S
C1830 H1842 0.960 . S
C1830 H1843 0.962 . S
C1830 H1844 0.960 . S
C1831 C1828 1.511 . S
C1831 H1845 0.961 . S
C1831 H1846 0.961 . S
C1831 H1847 0.961 . S
C1832 C1833 1.370 . S
C1832 C1834 1.363 . S
C1832 H1848 0.931 . S
C1833 C1832 1.370 . S
C1833 C1837 1.408 . S
C1834 C1832 1.363 . S
C1834 C1835 1.370 . S
C1834 C1838 1.524 . S
C1835 C1827 1.503 . S
C1835 C1834 1.370 . S
C1835 C1836 1.403 . S
C1836 C1835 1.403 . S
C1836 C1837 1.404 . S
C1836 C1839 1.539 . S
C1837 C1833 1.408 . S
C1837 C1836 1.404 . S
C1837 H1849 0.930 . S
C1838 C1834 1.524 . S
C1838 H1850 0.956 . S
C1838 H1851 0.961 . S
C1838 H1852 0.961 . S
C1839 C1836 1.539 . S
C1839 H1853 0.958 . S
C1839 H1854 0.961 . S
C1839 H1855 0.960 . S
H1840 C1824 0.931 . S
H1841 C1829 0.929 . S
H1842 C1830 0.960 . S
H1843 C1830 0.962 . S
H1844 C1830 0.960 . S
H1845 C1831 0.961 . S
H1846 C1831 0.961 . S
H1847 C1831 0.961 . S
H1848 C1832 0.931 . S
H1849 C1837 0.930 . S
H1850 C1838 0.956 . S
H1851 C1838 0.961 . S
H1852 C1838 0.961 . S
H1853 C1839 0.958 . S
H1854 C1839 0.961 . S
H1855 C1839 0.960 . S
C1856 C1857 1.391 . S
C1856 C1858 1.394 1_455 S
C1856 H1872 0.931 . S
C1857 C1856 1.391 . S
C1857 C1861 1.376 . S
C1858 C1856 1.394 1_655 S
C1858 C1859 1.369 . S
C1858 C1862 1.531 . S
C1859 C1858 1.369 . S
C1859 C1860 1.402 1_655 S
C1859 C1867 1.503 . S
C1860 C1859 1.402 1_455 S
C1860 C1861 1.400 . S
C1860 C1863 1.511 1_456 S
C1861 C1857 1.376 . S
C1861 C1860 1.400 . S
C1861 H1873 0.929 . S
C1862 C1858 1.531 . S
C1862 H1874 0.960 . S
C1862 H1875 0.962 . S
C1862 H1876 0.960 . S
C1863 C1860 1.511 1_654 S
C1863 H1877 0.961 1_655 S
C1863 H1878 0.961 . S
C1863 H1879 0.961 . S
C1864 C1865 1.370 . S
C1864 C1866 1.363 . S
C1864 H1880 0.931 . S
C1865 C1864 1.370 . S
C1865 C1869 1.408 . S
C1866 C1864 1.363 . S
C1866 C1867 1.370 1_554 S
C1866 C1870 1.524 . S
C1867 C1859 1.503 . S
C1867 C1866 1.370 1_556 S
C1867 C1868 1.403 . S
C1868 C1867 1.403 . S
C1868 C1869 1.404 1_556 S
C1868 C1871 1.539 . S
C1869 C1865 1.408 . S
C1869 C1868 1.404 1_554 S
C1869 H1881 0.931 . S
C1870 C1866 1.524 . S
C1870 H1882 0.956 1_554 S
C1870 H1883 0.961 . S
C1870 H1884 0.961 . S
C1871 C1868 1.539 . S
C1871 H1885 0.958 . S
C1871 H1886 0.961 . S
C1871 H1887 0.960 . S
H1872 C1856 0.931 . S
H1873 C1861 0.929 . S
H1874 C1862 0.960 . S
H1875 C1862 0.962 . S
H1876 C1862 0.960 . S
H1877 C1863 0.961 1_455 S
H1878 C1863 0.961 . S
H1879 C1863 0.961 . S
H1880 C1864 0.931 . S
H1881 C1869 0.931 . S
H1882 C1870 0.956 1_556 S
H1883 C1870 0.961 . S
H1884 C1870 0.961 . S
H1885 C1871 0.958 . S
H1886 C1871 0.961 . S
H1887 C1871 0.960 . S
C1888 C1889 1.391 . S
C1888 C1890 1.394 . S
C1888 H1904 0.931 . S
C1889 C1888 1.391 . S
C1889 C1893 1.376 . S
C1890 C1888 1.394 . S
C1890 C1891 1.369 . S
C1890 C1894 1.531 . S
C1891 C1890 1.369 . S
C1891 C1892 1.410 . S
C1891 C1899 1.503 . S
C1892 C1891 1.410 . S
C1892 C1893 1.392 . S
C1892 C1895 1.511 . S
C1893 C1889 1.376 . S
C1893 C1892 1.392 . S
C1893 H1905 0.929 . S
C1894 C1890 1.531 . S
C1894 H1906 0.960 . S
C1894 H1907 0.962 . S
C1894 H1908 0.960 . S
C1895 C1892 1.511 . S
C1895 H1909 0.961 . S
C1895 H1910 0.961 . S
C1895 H1911 0.961 . S
C1896 C1897 1.370 . S
C1896 C1898 1.363 . S
C1896 H1912 0.931 . S
C1897 C1896 1.370 . S
C1897 C1901 1.408 . S
C1898 C1896 1.363 . S
C1898 C1899 1.370 . S
C1898 C1902 1.524 . S
C1899 C1891 1.503 . S
C1899 C1898 1.370 . S
C1899 C1900 1.403 . S
C1900 C1899 1.403 . S
C1900 C1901 1.404 . S
C1900 C1903 1.539 . S
C1901 C1897 1.408 . S
C1901 C1900 1.404 . S
C1901 H1913 0.930 . S
C1902 C1898 1.524 . S
C1902 H1914 0.956 . S
C1902 H1915 0.961 . S
C1902 H1916 0.961 . S
C1903 C1900 1.539 . S
C1903 H1917 0.958 . S
C1903 H1918 0.961 . S
C1903 H1919 0.960 . S
H1904 C1888 0.931 . S
H1905 C1893 0.929 . S
H1906 C1894 0.960 . S
H1907 C1894 0.962 . S
H1908 C1894 0.960 . S
H1909 C1895 0.961 . S
H1910 C1895 0.961 . S
H1911 C1895 0.961 . S
H1912 C1896 0.931 . S
H1913 C1901 0.930 . S
H1914 C1902 0.956 . S
H1915 C1902 0.961 . S
H1916 C1902 0.961 . S
H1917 C1903 0.958 . S
H1918 C1903 0.961 . S
H1919 C1903 0.960 . S
C1920 C1921 1.391 . S
C1920 C1922 1.394 1_556 S
C1920 H1936 0.931 . S
C1921 C1920 1.391 . S
C1921 C1925 1.376 . S
C1922 C1920 1.394 1_554 S
C1922 C1923 1.369 . S
C1922 C1926 1.531 . S
C1923 C1922 1.369 . S
C1923 C1924 1.392 1_554 S
C1923 C1931 1.503 . S
C1924 C1923 1.392 1_556 S
C1924 C1925 1.412 . S
C1924 C1927 1.510 1_556 S
C1925 C1921 1.376 . S
C1925 C1924 1.412 . S
C1925 H1937 0.929 . S
C1926 C1922 1.531 . S
C1926 H1938 0.960 . S
C1926 H1939 0.962 . S
C1926 H1940 0.960 . S
C1927 C1924 1.510 1_554 S
C1927 H1941 0.961 1_554 S
C1927 H1942 0.961 . S
C1927 H1943 0.961 . S
C1928 C1929 1.370 . S
C1928 C1930 1.363 . S
C1928 H1944 0.931 . S
C1929 C1928 1.370 . S
C1929 C1933 1.408 . S
C1930 C1928 1.363 . S
C1930 C1931 1.370 . S
C1930 C1934 1.524 . S
C1931 C1923 1.503 . S
C1931 C1930 1.370 . S
C1931 C1932 1.403 . S
C1932 C1931 1.403 . S
C1932 C1933 1.404 . S
C1932 C1935 1.539 . S
C1933 C1929 1.408 . S
C1933 C1932 1.404 . S
C1933 H1945 0.930 . S
C1934 C1930 1.524 . S
C1934 H1946 0.956 . S
C1934 H1947 0.961 . S
C1934 H1948 0.961 . S
C1935 C1932 1.539 . S
C1935 H1949 0.958 . S
C1935 H1950 0.961 . S
C1935 H1951 0.960 . S
H1936 C1920 0.931 . S
H1937 C1925 0.929 . S
H1938 C1926 0.960 . S
H1939 C1926 0.962 . S
H1940 C1926 0.960 . S
H1941 C1927 0.961 1_556 S
H1942 C1927 0.961 . S
H1943 C1927 0.961 . S
H1944 C1928 0.931 . S
H1945 C1933 0.930 . S
H1946 C1934 0.956 . S
H1947 C1934 0.961 . S
H1948 C1934 0.961 . S
H1949 C1935 0.958 . S
H1950 C1935 0.961 . S
H1951 C1935 0.960 . S
C1952 C1953 1.391 . S
C1952 C1954 1.394 . S
C1952 H1968 0.931 . S
C1953 C1952 1.391 . S
C1953 C1957 1.376 . S
C1954 C1952 1.394 . S
C1954 C1955 1.369 . S
C1954 C1958 1.531 . S
C1955 C1954 1.369 . S
C1955 C1956 1.410 . S
C1955 C1963 1.503 . S
C1956 C1955 1.410 . S
C1956 C1957 1.392 . S
C1956 C1959 1.511 . S
C1957 C1953 1.376 . S
C1957 C1956 1.392 . S
C1957 H1969 0.929 . S
C1958 C1954 1.531 . S
C1958 H1970 0.960 . S
C1958 H1971 0.962 . S
C1958 H1972 0.960 . S
C1959 C1956 1.511 . S
C1959 H1973 0.961 . S
C1959 H1974 0.961 . S
C1959 H1975 0.961 . S
C1960 C1961 1.370 . S
C1960 C1962 1.363 . S
C1960 H1976 0.931 . S
C1961 C1960 1.370 . S
C1961 C1965 1.408 . S
C1962 C1960 1.363 . S
C1962 C1963 1.370 . S
C1962 C1966 1.524 . S
C1963 C1955 1.503 . S
C1963 C1962 1.370 . S
C1963 C1964 1.403 . S
C1964 C1963 1.403 . S
C1964 C1965 1.404 . S
C1964 C1967 1.539 . S
C1965 C1961 1.408 . S
C1965 C1964 1.404 . S
C1965 H1977 0.930 . S
C1966 C1962 1.524 . S
C1966 H1978 0.956 . S
C1966 H1979 0.961 . S
C1966 H1980 0.961 . S
C1967 C1964 1.539 . S
C1967 H1981 0.958 . S
C1967 H1982 0.961 . S
C1967 H1983 0.960 . S
H1968 C1952 0.931 . S
H1969 C1957 0.929 . S
H1970 C1958 0.960 . S
H1971 C1958 0.962 . S
H1972 C1958 0.960 . S
H1973 C1959 0.961 . S
H1974 C1959 0.961 . S
H1975 C1959 0.961 . S
H1976 C1960 0.931 . S
H1977 C1965 0.930 . S
H1978 C1966 0.956 . S
H1979 C1966 0.961 . S
H1980 C1966 0.961 . S
H1981 C1967 0.958 . S
H1982 C1967 0.961 . S
H1983 C1967 0.960 . S
C1984 C1985 1.391 . S
C1984 C1986 1.394 1_556 S
C1984 H2000 0.931 . S
C1985 C1984 1.391 . S
C1985 C1989 1.376 . S
C1986 C1984 1.394 1_554 S
C1986 C1987 1.369 . S
C1986 C1990 1.531 . S
C1987 C1986 1.369 . S
C1987 C1988 1.410 1_554 S
C1987 C1995 1.503 . S
C1988 C1987 1.410 1_556 S
C1988 C1989 1.392 . S
C1988 C1991 1.511 1_566 S
C1989 C1985 1.376 . S
C1989 C1988 1.392 . S
C1989 H2001 0.929 . S
C1990 C1986 1.531 . S
C1990 H2002 0.960 . S
C1990 H2003 0.962 . S
C1990 H2004 0.960 . S
C1991 C1988 1.511 1_544 S
C1991 H2005 0.957 1_554 S
C1991 H2006 0.965 . S
C1991 H2007 0.959 1_554 S
C1992 C1993 1.370 . S
C1992 C1994 1.363 1_545 S
C1992 H2008 0.931 . S
C1993 C1992 1.370 . S
C1993 C1997 1.408 . S
C1994 C1992 1.363 1_565 S
C1994 C1995 1.370 . S
C1994 C1998 1.524 . S
C1995 C1987 1.503 . S
C1995 C1994 1.370 . S
C1995 C1996 1.403 . S
C1996 C1995 1.403 . S
C1996 C1997 1.404 1_565 S
C1996 C1999 1.539 . S
C1997 C1993 1.408 . S
C1997 C1996 1.404 1_545 S
C1997 H2009 0.930 . S
C1998 C1994 1.524 . S
C1998 H2010 0.956 . S
C1998 H2011 0.961 . S
C1998 H2012 0.961 . S
C1999 C1996 1.539 . S
C1999 H2013 0.958 . S
C1999 H2014 0.961 1_565 S
C1999 H2015 0.960 . S
H2000 C1984 0.931 . S
H2001 C1989 0.929 . S
H2002 C1990 0.960 . S
H2003 C1990 0.962 . S
H2004 C1990 0.960 . S
H2005 C1991 0.957 1_556 S
H2006 C1991 0.965 . S
H2007 C1991 0.959 1_556 S
H2008 C1992 0.931 . S
H2009 C1997 0.930 . S
H2010 C1998 0.956 . S
H2011 C1998 0.961 . S
H2012 C1998 0.961 . S
H2013 C1999 0.958 . S
H2014 C1999 0.961 1_545 S
H2015 C1999 0.960 . S
C2016 C2017 1.391 . S
C2016 C2018 1.394 . S
C2016 H2032 0.931 . S
C2017 C2016 1.391 . S
C2017 C2021 1.376 . S
C2018 C2016 1.394 . S
C2018 C2019 1.369 . S
C2018 C2022 1.531 . S
C2019 C2018 1.369 . S
C2019 C2020 1.410 . S
C2019 C2027 1.503 . S
C2020 C2019 1.410 . S
C2020 C2021 1.392 . S
C2020 C2023 1.511 . S
C2021 C2017 1.376 . S
C2021 C2020 1.392 . S
C2021 H2033 0.929 . S
C2022 C2018 1.531 . S
C2022 H2034 0.960 . S
C2022 H2035 0.962 . S
C2022 H2036 0.960 . S
C2023 C2020 1.511 . S
C2023 H2037 0.961 . S
C2023 H2038 0.961 . S
C2023 H2039 0.961 . S
C2024 C2025 1.370 . S
C2024 C2026 1.363 . S
C2024 H2040 0.931 . S
C2025 C2024 1.370 . S
C2025 C2029 1.408 . S
C2026 C2024 1.363 . S
C2026 C2027 1.370 . S
C2026 C2030 1.524 . S
C2027 C2019 1.503 . S
C2027 C2026 1.370 . S
C2027 C2028 1.403 . S
C2028 C2027 1.403 . S
C2028 C2029 1.404 . S
C2028 C2031 1.539 . S
C2029 C2025 1.408 . S
C2029 C2028 1.404 . S
C2029 H2041 0.930 . S
C2030 C2026 1.524 . S
C2030 H2042 0.956 . S
C2030 H2043 0.961 . S
C2030 H2044 0.961 . S
C2031 C2028 1.539 . S
C2031 H2045 0.958 . S
C2031 H2046 0.961 . S
C2031 H2047 0.960 . S
H2032 C2016 0.931 . S
H2033 C2021 0.929 . S
H2034 C2022 0.960 . S
H2035 C2022 0.962 . S
H2036 C2022 0.960 . S
H2037 C2023 0.961 . S
H2038 C2023 0.961 . S
H2039 C2023 0.961 . S
H2040 C2024 0.931 . S
H2041 C2029 0.930 . S
H2042 C2030 0.956 . S
H2043 C2030 0.961 . S
H2044 C2030 0.961 . S
H2045 C2031 0.958 . S
H2046 C2031 0.961 . S
H2047 C2031 0.960 . S
C2048 C2049 1.391 . S
C2048 C2050 1.394 . S
C2048 H2064 0.931 . S
C2049 C2048 1.391 . S
C2049 C2053 1.376 . S
C2050 C2048 1.394 . S
C2050 C2051 1.369 . S
C2050 C2054 1.531 . S
C2051 C2050 1.369 . S
C2051 C2052 1.410 . S
C2051 C2059 1.503 . S
C2052 C2051 1.410 . S
C2052 C2053 1.392 . S
C2052 C2055 1.511 . S
C2053 C2049 1.376 . S
C2053 C2052 1.392 . S
C2053 H2065 0.929 . S
C2054 C2050 1.531 . S
C2054 H2066 0.960 . S
C2054 H2067 0.962 . S
C2054 H2068 0.960 . S
C2055 C2052 1.511 . S
C2055 H2069 0.961 . S
C2055 H2070 0.961 . S
C2055 H2071 0.961 . S
C2056 C2057 1.370 . S
C2056 C2058 1.363 1_554 S
C2056 H2072 0.931 . S
C2057 C2056 1.370 . S
C2057 C2061 1.408 . S
C2058 C2056 1.363 1_556 S
C2058 C2059 1.370 . S
C2058 C2062 1.524 . S
C2059 C2051 1.503 . S
C2059 C2058 1.370 . S
C2059 C2060 1.403 . S
C2060 C2059 1.403 . S
C2060 C2061 1.404 1_556 S
C2060 C2063 1.539 . S
C2061 C2057 1.408 . S
C2061 C2060 1.404 1_554 S
C2061 H2073 0.930 . S
C2062 C2058 1.524 . S
C2062 H2074 0.956 . S
C2062 H2075 0.961 . S
C2062 H2076 0.961 1_556 S
C2063 C2060 1.539 . S
C2063 H2077 0.958 . S
C2063 H2078 0.961 . S
C2063 H2079 0.960 . S
H2064 C2048 0.931 . S
H2065 C2053 0.929 . S
H2066 C2054 0.960 . S
H2067 C2054 0.962 . S
H2068 C2054 0.960 . S
H2069 C2055 0.961 . S
H2070 C2055 0.961 . S
H2071 C2055 0.961 . S
H2072 C2056 0.931 . S
H2073 C2061 0.930 . S
H2074 C2062 0.956 . S
H2075 C2062 0.961 . S
H2076 C2062 0.961 1_554 S
H2077 C2063 0.958 . S
H2078 C2063 0.961 . S
H2079 C2063 0.960 . S
C2080 C2081 1.391 . S
C2080 C2082 1.394 . S
C2080 H2096 0.931 . S
C2081 C2080 1.391 . S
C2081 C2085 1.376 . S
C2082 C2080 1.394 . S
C2082 C2083 1.369 . S
C2082 C2086 1.531 . S
C2083 C2082 1.369 . S
C2083 C2084 1.410 . S
C2083 C2091 1.503 . S
C2084 C2083 1.410 . S
C2084 C2085 1.392 . S
C2084 C2087 1.511 . S
C2085 C2081 1.376 . S
C2085 C2084 1.392 . S
C2085 H2097 0.929 . S
C2086 C2082 1.531 . S
C2086 H2098 0.960 . S
C2086 H2099 0.962 . S
C2086 H2100 0.960 . S
C2087 C2084 1.511 . S
C2087 H2101 0.961 . S
C2087 H2102 0.961 . S
C2087 H2103 0.961 . S
C2088 C2089 1.370 . S
C2088 C2090 1.363 . S
C2088 H2104 0.931 . S
C2089 C2088 1.370 . S
C2089 C2093 1.408 . S
C2090 C2088 1.363 . S
C2090 C2091 1.370 . S
C2090 C2094 1.524 . S
C2091 C2083 1.503 . S
C2091 C2090 1.370 . S
C2091 C2092 1.403 . S
C2092 C2091 1.403 . S
C2092 C2093 1.404 . S
C2092 C2095 1.539 . S
C2093 C2089 1.408 . S
C2093 C2092 1.404 . S
C2093 H2105 0.930 . S
C2094 C2090 1.524 . S
C2094 H2106 0.956 . S
C2094 H2107 0.961 . S
C2094 H2108 0.961 . S
C2095 C2092 1.539 . S
C2095 H2109 0.958 . S
C2095 H2110 0.961 . S
C2095 H2111 0.960 . S
H2096 C2080 0.931 . S
H2097 C2085 0.929 . S
H2098 C2086 0.960 . S
H2099 C2086 0.962 . S
H2100 C2086 0.960 . S
H2101 C2087 0.961 . S
H2102 C2087 0.961 . S
H2103 C2087 0.961 . S
H2104 C2088 0.931 . S
H2105 C2093 0.930 . S
H2106 C2094 0.956 . S
H2107 C2094 0.961 . S
H2108 C2094 0.961 . S
H2109 C2095 0.958 . S
H2110 C2095 0.961 . S
H2111 C2095 0.960 . S
C2112 C2113 1.391 . S
C2112 C2114 1.375 1_554 S
C2112 H2128 0.931 . S
C2113 C2112 1.391 . S
C2113 C2117 1.376 . S
C2114 C2112 1.375 1_556 S
C2114 C2115 1.384 . S
C2114 C2118 1.535 1_565 S
C2115 C2114 1.384 . S
C2115 C2116 1.410 . S
C2115 C2123 1.503 . S
C2116 C2115 1.410 . S
C2116 C2117 1.392 1_556 S
C2116 C2119 1.511 . S
C2117 C2113 1.376 . S
C2117 C2116 1.392 1_554 S
C2117 H2129 0.929 . S
C2118 C2114 1.535 1_545 S
C2118 H2130 0.960 . S
C2118 H2131 0.971 . S
C2118 H2132 0.960 1_556 S
C2119 C2116 1.511 . S
C2119 H2133 0.961 . S
C2119 H2134 0.961 . S
C2119 H2135 0.961 . S
C2120 C2121 1.370 1_565 S
C2120 C2122 1.363 . S
C2120 H2136 0.931 . S
C2121 C2120 1.370 1_545 S
C2121 C2125 1.408 . S
C2122 C2120 1.363 . S
C2122 C2123 1.370 . S
C2122 C2126 1.524 . S
C2123 C2115 1.503 . S
C2123 C2122 1.370 . S
C2123 C2124 1.403 1_565 S
C2124 C2123 1.403 1_545 S
C2124 C2125 1.404 . S
C2124 C2127 1.539 . S
C2125 C2121 1.408 . S
C2125 C2124 1.404 . S
C2125 H2137 0.930 . S
C2126 C2122 1.524 . S
C2126 H2138 0.956 . S
C2126 H2139 0.961 . S
C2126 H2140 0.961 . S
C2127 C2124 1.539 . S
C2127 H2141 0.958 . S
C2127 H2142 0.961 . S
C2127 H2143 0.960 . S
H2128 C2112 0.931 . S
H2129 C2117 0.929 . S
H2130 C2118 0.960 . S
H2131 C2118 0.971 . S
H2132 C2118 0.960 1_554 S
H2133 C2119 0.961 . S
H2134 C2119 0.961 . S
H2135 C2119 0.961 . S
H2136 C2120 0.931 . S
H2137 C2125 0.930 . S
H2138 C2126 0.956 . S
H2139 C2126 0.961 . S
H2140 C2126 0.961 . S
H2141 C2127 0.958 . S
H2142 C2127 0.961 . S
H2143 C2127 0.960 . S
C2144 C2145 1.391 . S
C2144 C2146 1.394 . S
C2144 H2160 0.931 . S
C2145 C2144 1.391 . S
C2145 C2149 1.376 . S
C2146 C2144 1.394 . S
C2146 C2147 1.369 . S
C2146 C2150 1.531 . S
C2147 C2146 1.369 . S
C2147 C2148 1.410 . S
C2147 C2155 1.503 . S
C2148 C2147 1.410 . S
C2148 C2149 1.392 . S
C2148 C2151 1.511 . S
C2149 C2145 1.376 . S
C2149 C2148 1.392 . S
C2149 H2161 0.929 . S
C2150 C2146 1.531 . S
C2150 H2162 0.960 . S
C2150 H2163 0.962 . S
C2150 H2164 0.960 . S
C2151 C2148 1.511 . S
C2151 H2165 0.961 . S
C2151 H2166 0.961 . S
C2151 H2167 0.961 . S
C2152 C2153 1.370 . S
C2152 C2154 1.363 . S
C2152 H2168 0.931 . S
C2153 C2152 1.370 . S
C2153 C2157 1.408 . S
C2154 C2152 1.363 . S
C2154 C2155 1.370 . S
C2154 C2158 1.524 . S
C2155 C2147 1.503 . S
C2155 C2154 1.370 . S
C2155 C2156 1.403 . S
C2156 C2155 1.403 . S
C2156 C2157 1.404 . S
C2156 C2159 1.539 . S
C2157 C2153 1.408 . S
C2157 C2156 1.404 . S
C2157 H2169 0.930 . S
C2158 C2154 1.524 . S
C2158 H2170 0.956 . S
C2158 H2171 0.961 . S
C2158 H2172 0.961 . S
C2159 C2156 1.539 . S
C2159 H2173 0.958 . S
C2159 H2174 0.961 . S
C2159 H2175 0.960 . S
H2160 C2144 0.931 . S
H2161 C2149 0.929 . S
H2162 C2150 0.960 . S
H2163 C2150 0.962 . S
H2164 C2150 0.960 . S
H2165 C2151 0.961 . S
H2166 C2151 0.961 . S
H2167 C2151 0.961 . S
H2168 C2152 0.931 . S
H2169 C2157 0.930 . S
H2170 C2158 0.956 . S
H2171 C2158 0.961 . S
H2172 C2158 0.961 . S
H2173 C2159 0.958 . S
H2174 C2159 0.961 . S
H2175 C2159 0.960 . S
C2176 C2177 1.391 . S
C2176 C2178 1.394 . S
C2176 H2192 0.931 . S
C2177 C2176 1.391 . S
C2177 C2181 1.376 . S
C2178 C2176 1.394 . S
C2178 C2179 1.369 . S
C2178 C2182 1.531 . S
C2179 C2178 1.369 . S
C2179 C2180 1.410 . S
C2179 C2187 1.503 . S
C2180 C2179 1.410 . S
C2180 C2181 1.392 . S
C2180 C2183 1.511 . S
C2181 C2177 1.376 . S
C2181 C2180 1.392 . S
C2181 H2193 0.929 . S
C2182 C2178 1.531 . S
C2182 H2194 0.960 . S
C2182 H2195 0.962 . S
C2182 H2196 0.960 . S
C2183 C2180 1.511 . S
C2183 H2197 0.961 . S
C2183 H2198 0.961 . S
C2183 H2199 0.961 . S
C2184 C2185 1.370 . S
C2184 C2186 1.363 . S
C2184 H2200 0.931 . S
C2185 C2184 1.370 . S
C2185 C2189 1.408 . S
C2186 C2184 1.363 . S
C2186 C2187 1.370 . S
C2186 C2190 1.524 . S
C2187 C2179 1.503 . S
C2187 C2186 1.370 . S
C2187 C2188 1.403 . S
C2188 C2187 1.403 . S
C2188 C2189 1.404 . S
C2188 C2191 1.539 . S
C2189 C2185 1.408 . S
C2189 C2188 1.404 . S
C2189 H2201 0.930 . S
C2190 C2186 1.524 . S
C2190 H2202 0.956 . S
C2190 H2203 0.961 . S
C2190 H2204 0.961 . S
C2191 C2188 1.539 . S
C2191 H2205 0.958 . S
C2191 H2206 0.961 . S
C2191 H2207 0.960 . S
H2192 C2176 0.931 . S
H2193 C2181 0.929 . S
H2194 C2182 0.960 . S
H2195 C2182 0.962 . S
H2196 C2182 0.960 . S
H2197 C2183 0.961 . S
H2198 C2183 0.961 . S
H2199 C2183 0.961 . S
H2200 C2184 0.931 . S
H2201 C2189 0.930 . S
H2202 C2190 0.956 . S
H2203 C2190 0.961 . S
H2204 C2190 0.961 . S
H2205 C2191 0.958 . S
H2206 C2191 0.961 . S
H2207 C2191 0.960 . S
C2208 C2209 1.391 . S
C2208 C2210 1.394 . S
C2208 H2224 0.931 . S
C2209 C2208 1.391 . S
C2209 C2213 1.376 . S
C2210 C2208 1.394 . S
C2210 C2211 1.369 . S
C2210 C2214 1.531 . S
C2211 C2210 1.369 . S
C2211 C2212 1.410 . S
C2211 C2219 1.503 . S
C2212 C2211 1.410 . S
C2212 C2213 1.392 . S
C2212 C2215 1.511 . S
C2213 C2209 1.376 . S
C2213 C2212 1.392 . S
C2213 H2225 0.929 . S
C2214 C2210 1.531 . S
C2214 H2226 0.960 . S
C2214 H2227 0.962 1_455 S
C2214 H2228 0.960 . S
C2215 C2212 1.511 . S
C2215 H2229 0.961 . S
C2215 H2230 0.961 . S
C2215 H2231 0.961 . S
C2216 C2217 1.370 . S
C2216 C2218 1.363 . S
C2216 H2232 0.931 . S
C2217 C2216 1.370 . S
C2217 C2221 1.408 1_655 S
C2218 C2216 1.363 . S
C2218 C2219 1.370 1_655 S
C2218 C2222 1.524 . S
C2219 C2211 1.503 . S
C2219 C2218 1.370 1_455 S
C2219 C2220 1.403 . S
C2220 C2219 1.403 . S
C2220 C2221 1.404 . S
C2220 C2223 1.539 . S
C2221 C2217 1.408 1_455 S
C2221 C2220 1.404 . S
C2221 H2233 0.930 . S
C2222 C2218 1.524 . S
C2222 H2234 0.956 . S
C2222 H2235 0.961 . S
C2222 H2236 0.961 . S
C2223 C2220 1.539 . S
C2223 H2237 0.958 . S
C2223 H2238 0.961 . S
C2223 H2239 0.960 . S
H2224 C2208 0.931 . S
H2225 C2213 0.929 . S
H2226 C2214 0.960 . S
H2227 C2214 0.962 1_655 S
H2228 C2214 0.960 . S
H2229 C2215 0.961 . S
H2230 C2215 0.961 . S
H2231 C2215 0.961 . S
H2232 C2216 0.931 . S
H2233 C2221 0.930 . S
H2234 C2222 0.956 . S
H2235 C2222 0.961 . S
H2236 C2222 0.961 . S
H2237 C2223 0.958 . S
H2238 C2223 0.961 . S
H2239 C2223 0.960 . S
C2240 C2241 1.391 . S
C2240 C2242 1.394 . S
C2240 H2256 0.931 . S
C2241 C2240 1.391 . S
C2241 C2245 1.376 . S
C2242 C2240 1.394 . S
C2242 C2243 1.369 . S
C2242 C2246 1.531 . S
C2243 C2242 1.369 . S
C2243 C2244 1.410 . S
C2243 C2251 1.503 . S
C2244 C2243 1.410 . S
C2244 C2245 1.392 . S
C2244 C2247 1.511 . S
C2245 C2241 1.376 . S
C2245 C2244 1.392 . S
C2245 H2257 0.929 . S
C2246 C2242 1.531 . S
C2246 H2258 0.960 . S
C2246 H2259 0.962 . S
C2246 H2260 0.960 . S
C2247 C2244 1.511 . S
C2247 H2261 0.961 . S
C2247 H2262 0.961 . S
C2247 H2263 0.961 . S
C2248 C2249 1.370 . S
C2248 C2250 1.363 . S
C2248 H2264 0.931 . S
C2249 C2248 1.370 . S
C2249 C2253 1.408 . S
C2250 C2248 1.363 . S
C2250 C2251 1.370 . S
C2250 C2254 1.524 . S
C2251 C2243 1.503 . S
C2251 C2250 1.370 . S
C2251 C2252 1.403 . S
C2252 C2251 1.403 . S
C2252 C2253 1.404 . S
C2252 C2255 1.539 . S
C2253 C2249 1.408 . S
C2253 C2252 1.404 . S
C2253 H2265 0.930 . S
C2254 C2250 1.524 . S
C2254 H2266 0.956 . S
C2254 H2267 0.961 . S
C2254 H2268 0.961 . S
C2255 C2252 1.539 . S
C2255 H2269 0.958 . S
C2255 H2270 0.961 . S
C2255 H2271 0.960 . S
H2256 C2240 0.931 . S
H2257 C2245 0.929 . S
H2258 C2246 0.960 . S
H2259 C2246 0.962 . S
H2260 C2246 0.960 . S
H2261 C2247 0.961 . S
H2262 C2247 0.961 . S
H2263 C2247 0.961 . S
H2264 C2248 0.931 . S
H2265 C2253 0.930 . S
H2266 C2254 0.956 . S
H2267 C2254 0.961 . S
H2268 C2254 0.961 . S
H2269 C2255 0.958 . S
H2270 C2255 0.961 . S
H2271 C2255 0.960 . S
C2272 C2273 1.391 . S
C2272 C2274 1.394 . S
C2272 H2288 0.931 . S
C2273 C2272 1.391 . S
C2273 C2277 1.376 . S
C2274 C2272 1.394 . S
C2274 C2275 1.369 . S
C2274 C2278 1.531 . S
C2275 C2274 1.369 . S
C2275 C2276 1.410 . S
C2275 C2283 1.503 . S
C2276 C2275 1.410 . S
C2276 C2277 1.392 . S
C2276 C2279 1.511 . S
C2277 C2273 1.376 . S
C2277 C2276 1.392 . S
C2277 H2289 0.929 . S
C2278 C2274 1.531 . S
C2278 H2290 0.960 . S
C2278 H2291 0.962 . S
C2278 H2292 0.960 . S
C2279 C2276 1.511 . S
C2279 H2293 0.961 . S
C2279 H2294 0.961 . S
C2279 H2295 0.961 . S
C2280 C2281 1.370 . S
C2280 C2282 1.363 . S
C2280 H2296 0.931 . S
C2281 C2280 1.370 . S
C2281 C2285 1.408 . S
C2282 C2280 1.363 . S
C2282 C2283 1.370 . S
C2282 C2286 1.524 . S
C2283 C2275 1.503 . S
C2283 C2282 1.370 . S
C2283 C2284 1.403 . S
C2284 C2283 1.403 . S
C2284 C2285 1.404 . S
C2284 C2287 1.539 . S
C2285 C2281 1.408 . S
C2285 C2284 1.404 . S
C2285 H2297 0.930 . S
C2286 C2282 1.524 . S
C2286 H2298 0.956 . S
C2286 H2299 0.961 . S
C2286 H2300 0.961 . S
C2287 C2284 1.539 . S
C2287 H2301 0.958 . S
C2287 H2302 0.961 . S
C2287 H2303 0.960 . S
H2288 C2272 0.931 . S
H2289 C2277 0.929 . S
H2290 C2278 0.960 . S
H2291 C2278 0.962 . S
H2292 C2278 0.960 . S
H2293 C2279 0.961 . S
H2294 C2279 0.961 . S
H2295 C2279 0.961 . S
H2296 C2280 0.931 . S
H2297 C2285 0.930 . S
H2298 C2286 0.956 . S
H2299 C2286 0.961 . S
H2300 C2286 0.961 . S
H2301 C2287 0.958 . S
H2302 C2287 0.961 . S
H2303 C2287 0.960 . S
C2304 C2305 1.391 . S
C2304 C2306 1.394 . S
C2304 H2320 0.931 . S
C2305 C2304 1.391 . S
C2305 C2309 1.376 . S
C2306 C2304 1.394 . S
C2306 C2307 1.369 . S
C2306 C2310 1.531 . S
C2307 C2306 1.369 . S
C2307 C2308 1.410 . S
C2307 C2315 1.503 . S
C2308 C2307 1.410 . S
C2308 C2309 1.392 . S
C2308 C2311 1.511 . S
C2309 C2305 1.376 . S
C2309 C2308 1.392 . S
C2309 H2321 0.929 . S
C2310 C2306 1.531 . S
C2310 H2322 0.960 . S
C2310 H2323 0.962 . S
C2310 H2324 0.960 . S
C2311 C2308 1.511 . S
C2311 H2325 0.961 . S
C2311 H2326 0.961 . S
C2311 H2327 0.961 . S
C2312 C2313 1.370 . S
C2312 C2314 1.363 . S
C2312 H2328 0.931 . S
C2313 C2312 1.370 . S
C2313 C2317 1.408 . S
C2314 C2312 1.363 . S
C2314 C2315 1.370 . S
C2314 C2318 1.524 . S
C2315 C2307 1.503 . S
C2315 C2314 1.370 . S
C2315 C2316 1.403 . S
C2316 C2315 1.403 . S
C2316 C2317 1.404 . S
C2316 C2319 1.539 . S
C2317 C2313 1.408 . S
C2317 C2316 1.404 . S
C2317 H2329 0.930 . S
C2318 C2314 1.524 . S
C2318 H2330 0.956 . S
C2318 H2331 0.961 . S
C2318 H2332 0.961 . S
C2319 C2316 1.539 . S
C2319 H2333 0.958 . S
C2319 H2334 0.961 . S
C2319 H2335 0.960 . S
H2320 C2304 0.931 . S
H2321 C2309 0.929 . S
H2322 C2310 0.960 . S
H2323 C2310 0.962 . S
H2324 C2310 0.960 . S
H2325 C2311 0.961 . S
H2326 C2311 0.961 . S
H2327 C2311 0.961 . S
H2328 C2312 0.931 . S
H2329 C2317 0.930 . S
H2330 C2318 0.956 . S
H2331 C2318 0.961 . S
H2332 C2318 0.961 . S
H2333 C2319 0.958 . S
H2334 C2319 0.961 . S
H2335 C2319 0.960 . S
C2336 C2337 1.391 . S
C2336 C2338 1.394 . S
C2336 H2352 0.931 . S
C2337 C2336 1.391 . S
C2337 C2341 1.376 . S
C2338 C2336 1.394 . S
C2338 C2339 1.369 . S
C2338 C2342 1.531 1_455 S
C2339 C2338 1.369 . S
C2339 C2340 1.410 . S
C2339 C2347 1.503 . S
C2340 C2339 1.410 . S
C2340 C2341 1.392 . S
C2340 C2343 1.511 . S
C2341 C2337 1.376 . S
C2341 C2340 1.392 . S
C2341 H2353 0.929 . S
C2342 C2338 1.531 1_655 S
C2342 H2354 0.960 . S
C2342 H2355 0.962 . S
C2342 H2356 0.960 . S
C2343 C2340 1.511 . S
C2343 H2357 0.961 . S
C2343 H2358 0.961 . S
C2343 H2359 0.961 . S
C2344 C2345 1.370 . S
C2344 C2346 1.363 . S
C2344 H2360 0.931 . S
C2345 C2344 1.370 . S
C2345 C2349 1.408 . S
C2346 C2344 1.363 . S
C2346 C2347 1.370 1_655 S
C2346 C2350 1.524 . S
C2347 C2339 1.503 . S
C2347 C2346 1.370 1_455 S
C2347 C2348 1.403 . S
C2348 C2347 1.403 . S
C2348 C2349 1.404 1_455 S
C2348 C2351 1.539 . S
C2349 C2345 1.408 . S
C2349 C2348 1.404 1_655 S
C2349 H2361 0.930 . S
C2350 C2346 1.524 . S
C2350 H2362 0.958 . S
C2350 H2363 0.957 1_655 S
C2350 H2364 0.962 . S
C2351 C2348 1.539 . S
C2351 H2365 0.958 . S
C2351 H2366 0.961 . S
C2351 H2367 0.960 . S
H2352 C2336 0.931 . S
H2353 C2341 0.929 . S
H2354 C2342 0.960 . S
H2355 C2342 0.962 . S
H2356 C2342 0.960 . S
H2357 C2343 0.961 . S
H2358 C2343 0.961 . S
H2359 C2343 0.961 . S
H2360 C2344 0.931 . S
H2361 C2349 0.930 . S
H2362 C2350 0.958 . S
H2363 C2350 0.957 1_455 S
H2364 C2350 0.962 . S
H2365 C2351 0.958 . S
H2366 C2351 0.961 . S
H2367 C2351 0.960 . S
C2368 C2369 1.391 1_655 S
C2368 C2370 1.394 . S
C2368 H2384 0.931 . S
C2369 C2368 1.391 1_455 S
C2369 C2373 1.376 . S
C2370 C2368 1.394 . S
C2370 C2371 1.369 . S
C2370 C2374 1.531 . S
C2371 C2370 1.369 . S
C2371 C2372 1.410 1_655 S
C2371 C2379 1.503 . S
C2372 C2371 1.410 1_455 S
C2372 C2373 1.392 . S
C2372 C2375 1.511 . S
C2373 C2369 1.376 . S
C2373 C2372 1.392 . S
C2373 H2385 0.929 . S
C2374 C2370 1.531 . S
C2374 H2386 0.960 . S
C2374 H2387 0.962 . S
C2374 H2388 0.960 . S
C2375 C2372 1.511 . S
C2375 H2389 0.961 . S
C2375 H2390 0.961 . S
C2375 H2391 0.961 . S
C2376 C2377 1.370 . S
C2376 C2378 1.363 1_565 S
C2376 H2392 0.931 . S
C2377 C2376 1.370 . S
C2377 C2381 1.408 . S
C2378 C2376 1.363 1_545 S
C2378 C2379 1.370 . S
C2378 C2382 1.524 . S
C2379 C2371 1.503 . S
C2379 C2378 1.370 . S
C2379 C2380 1.403 . S
C2380 C2379 1.403 . S
C2380 C2381 1.404 1_545 S
C2380 C2383 1.539 . S
C2381 C2377 1.408 . S
C2381 C2380 1.404 1_565 S
C2381 H2393 0.930 . S
C2382 C2378 1.524 . S
C2382 H2394 0.956 . S
C2382 H2395 0.961 . S
C2382 H2396 0.961 . S
C2383 C2380 1.539 . S
C2383 H2397 0.958 . S
C2383 H2398 0.961 . S
C2383 H2399 0.960 . S
H2384 C2368 0.931 . S
H2385 C2373 0.929 . S
H2386 C2374 0.960 . S
H2387 C2374 0.962 . S
H2388 C2374 0.960 . S
H2389 C2375 0.961 . S
H2390 C2375 0.961 . S
H2391 C2375 0.961 . S
H2392 C2376 0.931 . S
H2393 C2381 0.930 . S
H2394 C2382 0.956 . S
H2395 C2382 0.961 . S
H2396 C2382 0.961 . S
H2397 C2383 0.958 . S
H2398 C2383 0.961 . S
H2399 C2383 0.960 . S
C2400 C2401 1.391 . S
C2400 C2402 1.394 . S
C2400 H2416 0.931 . S
C2401 C2400 1.391 . S
C2401 C2405 1.376 . S
C2402 C2400 1.394 . S
C2402 C2403 1.369 . S
C2402 C2406 1.531 . S
C2403 C2402 1.369 . S
C2403 C2404 1.410 . S
C2403 C2411 1.503 . S
C2404 C2403 1.410 . S
C2404 C2405 1.392 . S
C2404 C2407 1.511 . S
C2405 C2401 1.376 . S
C2405 C2404 1.392 . S
C2405 H2417 0.929 . S
C2406 C2402 1.531 . S
C2406 H2418 0.960 . S
C2406 H2419 0.962 . S
C2406 H2420 0.960 . S
C2407 C2404 1.511 . S
C2407 H2421 0.961 . S
C2407 H2422 0.961 . S
C2407 H2423 0.961 . S
C2408 C2409 1.370 . S
C2408 C2410 1.363 . S
C2408 H2424 0.931 . S
C2409 C2408 1.370 . S
C2409 C2413 1.408 . S
C2410 C2408 1.363 . S
C2410 C2411 1.370 . S
C2410 C2414 1.524 . S
C2411 C2403 1.503 . S
C2411 C2410 1.370 . S
C2411 C2412 1.403 . S
C2412 C2411 1.403 . S
C2412 C2413 1.404 . S
C2412 C2415 1.539 . S
C2413 C2409 1.408 . S
C2413 C2412 1.404 . S
C2413 H2425 0.930 . S
C2414 C2410 1.524 . S
C2414 H2426 0.956 . S
C2414 H2427 0.961 . S
C2414 H2428 0.961 . S
C2415 C2412 1.539 . S
C2415 H2429 0.958 . S
C2415 H2430 0.961 . S
C2415 H2431 0.960 . S
H2416 C2400 0.931 . S
H2417 C2405 0.929 . S
H2418 C2406 0.960 . S
H2419 C2406 0.962 . S
H2420 C2406 0.960 . S
H2421 C2407 0.961 . S
H2422 C2407 0.961 . S
H2423 C2407 0.961 . S
H2424 C2408 0.931 . S
H2425 C2413 0.930 . S
H2426 C2414 0.956 . S
H2427 C2414 0.961 . S
H2428 C2414 0.961 . S
H2429 C2415 0.958 . S
H2430 C2415 0.961 . S
H2431 C2415 0.960 . S
C2432 C2433 1.391 . S
C2432 C2434 1.394 . S
C2432 H2448 0.931 . S
C2433 C2432 1.391 . S
C2433 C2437 1.376 . S
C2434 C2432 1.394 . S
C2434 C2435 1.369 . S
C2434 C2438 1.531 . S
C2435 C2434 1.369 . S
C2435 C2436 1.410 . S
C2435 C2443 1.503 . S
C2436 C2435 1.410 . S
C2436 C2437 1.392 . S
C2436 C2439 1.511 . S
C2437 C2433 1.376 . S
C2437 C2436 1.392 . S
C2437 H2449 0.929 . S
C2438 C2434 1.531 . S
C2438 H2450 0.960 . S
C2438 H2451 0.962 . S
C2438 H2452 0.960 . S
C2439 C2436 1.511 . S
C2439 H2453 0.961 . S
C2439 H2454 0.961 . S
C2439 H2455 0.961 . S
C2440 C2441 1.370 . S
C2440 C2442 1.363 1_455 S
C2440 H2456 0.931 . S
C2441 C2440 1.370 . S
C2441 C2445 1.408 . S
C2442 C2440 1.363 1_655 S
C2442 C2443 1.370 . S
C2442 C2446 1.524 . S
C2443 C2435 1.503 . S
C2443 C2442 1.370 . S
C2443 C2444 1.403 . S
C2444 C2443 1.403 . S
C2444 C2445 1.404 1_655 S
C2444 C2447 1.539 . S
C2445 C2441 1.408 . S
C2445 C2444 1.404 1_455 S
C2445 H2457 0.930 . S
C2446 C2442 1.524 . S
C2446 H2458 0.956 . S
C2446 H2459 0.961 . S
C2446 H2460 0.961 . S
C2447 C2444 1.539 . S
C2447 H2461 0.958 . S
C2447 H2462 0.961 . S
C2447 H2463 0.960 . S
H2448 C2432 0.931 . S
H2449 C2437 0.929 . S
H2450 C2438 0.960 . S
H2451 C2438 0.962 . S
H2452 C2438 0.960 . S
H2453 C2439 0.961 . S
H2454 C2439 0.961 . S
H2455 C2439 0.961 . S
H2456 C2440 0.931 . S
H2457 C2445 0.930 . S
H2458 C2446 0.956 . S
H2459 C2446 0.961 . S
H2460 C2446 0.961 . S
H2461 C2447 0.958 . S
H2462 C2447 0.961 . S
H2463 C2447 0.960 . S
C2464 C2465 1.391 . S
C2464 C2466 1.394 . S
C2464 H2480 0.931 . S
C2465 C2464 1.391 . S
C2465 C2469 1.376 . S
C2466 C2464 1.394 . S
C2466 C2467 1.369 . S
C2466 C2470 1.531 . S
C2467 C2466 1.369 . S
C2467 C2468 1.410 . S
C2467 C2475 1.503 . S
C2468 C2467 1.410 . S
C2468 C2469 1.392 . S
C2468 C2471 1.511 . S
C2469 C2465 1.376 . S
C2469 C2468 1.392 . S
C2469 H2481 0.929 . S
C2470 C2466 1.531 . S
C2470 H2482 0.960 . S
C2470 H2483 0.962 . S
C2470 H2484 0.960 . S
C2471 C2468 1.511 . S
C2471 H2485 0.961 . S
C2471 H2486 0.961 . S
C2471 H2487 0.961 . S
C2472 C2473 1.370 . S
C2472 C2474 1.363 . S
C2472 H2488 0.931 . S
C2473 C2472 1.370 . S
C2473 C2477 1.408 . S
C2474 C2472 1.363 . S
C2474 C2475 1.370 . S
C2474 C2478 1.524 . S
C2475 C2467 1.503 . S
C2475 C2474 1.370 . S
C2475 C2476 1.403 . S
C2476 C2475 1.403 . S
C2476 C2477 1.404 . S
C2476 C2479 1.539 . S
C2477 C2473 1.408 . S
C2477 C2476 1.404 . S
C2477 H2489 0.930 . S
C2478 C2474 1.524 . S
C2478 H2490 0.956 . S
C2478 H2491 0.961 . S
C2478 H2492 0.961 . S
C2479 C2476 1.539 . S
C2479 H2493 0.958 . S
C2479 H2494 0.961 . S
C2479 H2495 0.960 . S
H2480 C2464 0.931 . S
H2481 C2469 0.929 . S
H2482 C2470 0.960 . S
H2483 C2470 0.962 . S
H2484 C2470 0.960 . S
H2485 C2471 0.961 . S
H2486 C2471 0.961 . S
H2487 C2471 0.961 . S
H2488 C2472 0.931 . S
H2489 C2477 0.930 . S
H2490 C2478 0.956 . S
H2491 C2478 0.961 . S
H2492 C2478 0.961 . S
H2493 C2479 0.958 . S
H2494 C2479 0.961 . S
H2495 C2479 0.960 . S
C2496 C2497 1.391 . S
C2496 C2498 1.394 1_655 S
C2496 H2512 0.931 . S
C2497 C2496 1.391 . S
C2497 C2501 1.376 . S
C2498 C2496 1.394 1_455 S
C2498 C2499 1.369 . S
C2498 C2502 1.531 . S
C2499 C2498 1.369 . S
C2499 C2500 1.414 . S
C2499 C2507 1.503 . S
C2500 C2499 1.414 . S
C2500 C2501 1.388 1_455 S
C2500 C2503 1.512 . S
C2501 C2497 1.376 . S
C2501 C2500 1.388 1_655 S
C2501 H2513 0.929 . S
C2502 C2498 1.531 . S
C2502 H2514 0.960 . S
C2502 H2515 0.962 . S
C2502 H2516 0.960 . S
C2503 C2500 1.512 . S
C2503 H2517 0.961 1_455 S
C2503 H2518 0.961 . S
C2503 H2519 0.961 . S
C2504 C2505 1.370 . S
C2504 C2506 1.363 . S
C2504 H2520 0.931 . S
C2505 C2504 1.370 . S
C2505 C2509 1.408 . S
C2506 C2504 1.363 . S
C2506 C2507 1.370 . S
C2506 C2510 1.524 . S
C2507 C2499 1.503 . S
C2507 C2506 1.370 . S
C2507 C2508 1.403 . S
C2508 C2507 1.403 . S
C2508 C2509 1.404 . S
C2508 C2511 1.539 . S
C2509 C2505 1.408 . S
C2509 C2508 1.404 . S
C2509 H2521 0.930 . S
C2510 C2506 1.524 . S
C2510 H2522 0.956 . S
C2510 H2523 0.961 . S
C2510 H2524 0.961 . S
C2511 C2508 1.539 . S
C2511 H2525 0.958 . S
C2511 H2526 0.961 . S
C2511 H2527 0.960 . S
H2512 C2496 0.931 . S
H2513 C2501 0.929 . S
H2514 C2502 0.960 . S
H2515 C2502 0.962 . S
H2516 C2502 0.960 . S
H2517 C2503 0.961 1_655 S
H2518 C2503 0.961 . S
H2519 C2503 0.961 . S
H2520 C2504 0.931 . S
H2521 C2509 0.930 . S
H2522 C2510 0.956 . S
H2523 C2510 0.961 . S
H2524 C2510 0.961 . S
H2525 C2511 0.958 . S
H2526 C2511 0.961 . S
H2527 C2511 0.960 . S
C2528 C2529 1.391 . S
C2528 C2530 1.394 . S
C2528 H2544 0.931 . S
C2529 C2528 1.391 . S
C2529 C2533 1.376 . S
C2530 C2528 1.394 . S
C2530 C2531 1.369 . S
C2530 C2534 1.531 . S
C2531 C2530 1.369 . S
C2531 C2532 1.410 . S
C2531 C2539 1.503 . S
C2532 C2531 1.410 . S
C2532 C2533 1.392 . S
C2532 C2535 1.511 . S
C2533 C2529 1.376 . S
C2533 C2532 1.392 . S
C2533 H2545 0.929 . S
C2534 C2530 1.531 . S
C2534 H2546 0.960 . S
C2534 H2547 0.962 . S
C2534 H2548 0.960 . S
C2535 C2532 1.511 . S
C2535 H2549 0.961 . S
C2535 H2550 0.961 . S
C2535 H2551 0.961 . S
C2536 C2537 1.370 . S
C2536 C2538 1.363 . S
C2536 H2552 0.931 . S
C2537 C2536 1.370 . S
C2537 C2541 1.408 . S
C2538 C2536 1.363 . S
C2538 C2539 1.370 . S
C2538 C2542 1.524 . S
C2539 C2531 1.503 . S
C2539 C2538 1.370 . S
C2539 C2540 1.403 . S
C2540 C2539 1.403 . S
C2540 C2541 1.404 . S
C2540 C2543 1.539 . S
C2541 C2537 1.408 . S
C2541 C2540 1.404 . S
C2541 H2553 0.930 . S
C2542 C2538 1.524 . S
C2542 H2554 0.956 . S
C2542 H2555 0.961 . S
C2542 H2556 0.961 . S
C2543 C2540 1.539 . S
C2543 H2557 0.958 . S
C2543 H2558 0.961 . S
C2543 H2559 0.960 . S
H2544 C2528 0.931 . S
H2545 C2533 0.929 . S
H2546 C2534 0.960 . S
H2547 C2534 0.962 . S
H2548 C2534 0.960 . S
H2549 C2535 0.961 . S
H2550 C2535 0.961 . S
H2551 C2535 0.961 . S
H2552 C2536 0.931 . S
H2553 C2541 0.930 . S
H2554 C2542 0.956 . S
H2555 C2542 0.961 . S
H2556 C2542 0.961 . S
H2557 C2543 0.958 . S
H2558 C2543 0.961 . S
H2559 C2543 0.960 . S
C2560 C2561 1.391 . S
C2560 C2562 1.394 . S
C2560 H2576 0.931 . S
C2561 C2560 1.391 . S
C2561 C2565 1.376 . S
C2562 C2560 1.394 . S
C2562 C2563 1.369 . S
C2562 C2566 1.531 . S
C2563 C2562 1.369 . S
C2563 C2564 1.410 . S
C2563 C2571 1.503 . S
C2564 C2563 1.410 . S
C2564 C2565 1.392 . S
C2564 C2567 1.511 . S
C2565 C2561 1.376 . S
C2565 C2564 1.392 . S
C2565 H2577 0.929 . S
C2566 C2562 1.531 . S
C2566 H2578 0.960 . S
C2566 H2579 0.962 . S
C2566 H2580 0.960 . S
C2567 C2564 1.511 . S
C2567 H2581 0.961 . S
C2567 H2582 0.961 . S
C2567 H2583 0.961 . S
C2568 C2569 1.370 . S
C2568 C2570 1.363 . S
C2568 H2584 0.931 . S
C2569 C2568 1.370 . S
C2569 C2573 1.408 . S
C2570 C2568 1.363 . S
C2570 C2571 1.370 . S
C2570 C2574 1.524 . S
C2571 C2563 1.503 . S
C2571 C2570 1.370 . S
C2571 C2572 1.403 . S
C2572 C2571 1.403 . S
C2572 C2573 1.404 . S
C2572 C2575 1.539 . S
C2573 C2569 1.408 . S
C2573 C2572 1.404 . S
C2573 H2585 0.930 . S
C2574 C2570 1.524 . S
C2574 H2586 0.956 . S
C2574 H2587 0.961 . S
C2574 H2588 0.961 . S
C2575 C2572 1.539 . S
C2575 H2589 0.958 . S
C2575 H2590 0.961 . S
C2575 H2591 0.960 . S
H2576 C2560 0.931 . S
H2577 C2565 0.929 . S
H2578 C2566 0.960 . S
H2579 C2566 0.962 . S
H2580 C2566 0.960 . S
H2581 C2567 0.961 . S
H2582 C2567 0.961 . S
H2583 C2567 0.961 . S
H2584 C2568 0.931 . S
H2585 C2573 0.930 . S
H2586 C2574 0.956 . S
H2587 C2574 0.961 . S
H2588 C2574 0.961 . S
H2589 C2575 0.958 . S
H2590 C2575 0.961 . S
H2591 C2575 0.960 . S
C2592 C2593 1.391 . S
C2592 C2594 1.394 . S
C2592 H2608 0.931 . S
C2593 C2592 1.391 . S
C2593 C2597 1.376 . S
C2594 C2592 1.394 . S
C2594 C2595 1.369 . S
C2594 C2598 1.531 . S
C2595 C2594 1.369 . S
C2595 C2596 1.410 . S
C2595 C2603 1.503 . S
C2596 C2595 1.410 . S
C2596 C2597 1.392 . S
C2596 C2599 1.511 . S
C2597 C2593 1.376 . S
C2597 C2596 1.392 . S
C2597 H2609 0.929 . S
C2598 C2594 1.531 . S
C2598 H2610 0.960 . S
C2598 H2611 0.962 . S
C2598 H2612 0.960 . S
C2599 C2596 1.511 . S
C2599 H2613 0.961 . S
C2599 H2614 0.961 . S
C2599 H2615 0.961 . S
C2600 C2601 1.370 . S
C2600 C2602 1.363 . S
C2600 H2616 0.931 . S
C2601 C2600 1.370 . S
C2601 C2605 1.408 . S
C2602 C2600 1.363 . S
C2602 C2603 1.370 . S
C2602 C2606 1.524 . S
C2603 C2595 1.503 . S
C2603 C2602 1.370 . S
C2603 C2604 1.403 . S
C2604 C2603 1.403 . S
C2604 C2605 1.404 . S
C2604 C2607 1.539 . S
C2605 C2601 1.408 . S
C2605 C2604 1.404 . S
C2605 H2617 0.930 . S
C2606 C2602 1.524 . S
C2606 H2618 0.956 . S
C2606 H2619 0.961 . S
C2606 H2620 0.961 . S
C2607 C2604 1.539 . S
C2607 H2621 0.958 . S
C2607 H2622 0.961 . S
C2607 H2623 0.960 . S
H2608 C2592 0.931 . S
H2609 C2597 0.929 . S
H2610 C2598 0.960 . S
H2611 C2598 0.962 . S
H2612 C2598 0.960 . S
H2613 C2599 0.961 . S
H2614 C2599 0.961 . S
H2615 C2599 0.961 . S
H2616 C2600 0.931 . S
H2617 C2605 0.930 . S
H2618 C2606 0.956 . S
H2619 C2606 0.961 . S
H2620 C2606 0.961 . S
H2621 C2607 0.958 . S
H2622 C2607 0.961 . S
H2623 C2607 0.960 . S
C2624 C2625 1.391 . S
C2624 C2626 1.394 . S
C2624 H2640 0.931 . S
C2625 C2624 1.391 . S
C2625 C2629 1.376 . S
C2626 C2624 1.394 . S
C2626 C2627 1.369 . S
C2626 C2630 1.531 . S
C2627 C2626 1.369 . S
C2627 C2628 1.410 . S
C2627 C2635 1.503 . S
C2628 C2627 1.410 . S
C2628 C2629 1.392 . S
C2628 C2631 1.511 . S
C2629 C2625 1.376 . S
C2629 C2628 1.392 . S
C2629 H2641 0.929 . S
C2630 C2626 1.531 . S
C2630 H2642 0.960 . S
C2630 H2643 0.962 . S
C2630 H2644 0.960 . S
C2631 C2628 1.511 . S
C2631 H2645 0.961 . S
C2631 H2646 0.961 . S
C2631 H2647 0.961 . S
C2632 C2633 1.370 . S
C2632 C2634 1.363 . S
C2632 H2648 0.931 . S
C2633 C2632 1.370 . S
C2633 C2637 1.408 . S
C2634 C2632 1.363 . S
C2634 C2635 1.370 . S
C2634 C2638 1.524 . S
C2635 C2627 1.503 . S
C2635 C2634 1.370 . S
C2635 C2636 1.403 . S
C2636 C2635 1.403 . S
C2636 C2637 1.404 . S
C2636 C2639 1.539 . S
C2637 C2633 1.408 . S
C2637 C2636 1.404 . S
C2637 H2649 0.930 . S
C2638 C2634 1.524 . S
C2638 H2650 0.956 . S
C2638 H2651 0.961 . S
C2638 H2652 0.961 . S
C2639 C2636 1.539 . S
C2639 H2653 0.958 . S
C2639 H2654 0.961 . S
C2639 H2655 0.960 . S
H2640 C2624 0.931 . S
H2641 C2629 0.929 . S
H2642 C2630 0.960 . S
H2643 C2630 0.962 . S
H2644 C2630 0.960 . S
H2645 C2631 0.961 . S
H2646 C2631 0.961 . S
H2647 C2631 0.961 . S
H2648 C2632 0.931 . S
H2649 C2637 0.930 . S
H2650 C2638 0.956 . S
H2651 C2638 0.961 . S
H2652 C2638 0.961 . S
H2653 C2639 0.958 . S
H2654 C2639 0.961 . S
H2655 C2639 0.960 . S
C2656 C2657 1.391 . S
C2656 C2658 1.394 . S
C2656 H2672 0.931 . S
C2657 C2656 1.391 . S
C2657 C2661 1.376 . S
C2658 C2656 1.394 . S
C2658 C2659 1.369 . S
C2658 C2662 1.531 . S
C2659 C2658 1.369 . S
C2659 C2660 1.410 . S
C2659 C2667 1.503 . S
C2660 C2659 1.410 . S
C2660 C2661 1.392 . S
C2660 C2663 1.511 . S
C2661 C2657 1.376 . S
C2661 C2660 1.392 . S
C2661 H2673 0.929 . S
C2662 C2658 1.531 . S
C2662 H2674 0.960 . S
C2662 H2675 0.962 . S
C2662 H2676 0.960 . S
C2663 C2660 1.511 . S
C2663 H2677 0.961 . S
C2663 H2678 0.961 . S
C2663 H2679 0.961 . S
C2664 C2665 1.370 . S
C2664 C2666 1.363 . S
C2664 H2680 0.931 . S
C2665 C2664 1.370 . S
C2665 C2669 1.408 . S
C2666 C2664 1.363 . S
C2666 C2667 1.370 . S
C2666 C2670 1.524 . S
C2667 C2659 1.503 . S
C2667 C2666 1.370 . S
C2667 C2668 1.403 . S
C2668 C2667 1.403 . S
C2668 C2669 1.404 . S
C2668 C2671 1.539 . S
C2669 C2665 1.408 . S
C2669 C2668 1.404 . S
C2669 H2681 0.930 . S
C2670 C2666 1.524 . S
C2670 H2682 0.956 . S
C2670 H2683 0.961 . S
C2670 H2684 0.961 . S
C2671 C2668 1.539 . S
C2671 H2685 0.958 . S
C2671 H2686 0.961 . S
C2671 H2687 0.960 . S
H2672 C2656 0.931 . S
H2673 C2661 0.929 . S
H2674 C2662 0.960 . S
H2675 C2662 0.962 . S
H2676 C2662 0.960 . S
H2677 C2663 0.961 . S
H2678 C2663 0.961 . S
H2679 C2663 0.961 . S
H2680 C2664 0.931 . S
H2681 C2669 0.930 . S
H2682 C2670 0.956 . S
H2683 C2670 0.961 . S
H2684 C2670 0.961 . S
H2685 C2671 0.958 . S
H2686 C2671 0.961 . S
H2687 C2671 0.960 . S
C2688 C2689 1.391 . S
C2688 C2690 1.394 . S
C2688 H2704 0.931 . S
C2689 C2688 1.391 . S
C2689 C2693 1.376 . S
C2690 C2688 1.394 . S
C2690 C2691 1.369 . S
C2690 C2694 1.531 . S
C2691 C2690 1.369 . S
C2691 C2692 1.410 . S
C2691 C2699 1.503 . S
C2692 C2691 1.410 . S
C2692 C2693 1.392 . S
C2692 C2695 1.511 1_545 S
C2693 C2689 1.376 . S
C2693 C2692 1.392 . S
C2693 H2705 0.929 . S
C2694 C2690 1.531 . S
C2694 H2706 0.960 . S
C2694 H2707 0.962 . S
C2694 H2708 0.960 . S
C2695 C2692 1.511 1_565 S
C2695 H2709 0.961 . S
C2695 H2710 0.961 . S
C2695 H2711 0.961 . S
C2696 C2697 1.370 . S
C2696 C2698 1.363 . S
C2696 H2712 0.931 . S
C2697 C2696 1.370 . S
C2697 C2701 1.408 1_565 S
C2698 C2696 1.363 . S
C2698 C2699 1.370 1_565 S
C2698 C2702 1.524 . S
C2699 C2691 1.503 . S
C2699 C2698 1.370 1_545 S
C2699 C2700 1.403 . S
C2700 C2699 1.403 . S
C2700 C2701 1.404 . S
C2700 C2703 1.539 . S
C2701 C2697 1.408 1_545 S
C2701 C2700 1.404 . S
C2701 H2713 0.930 . S
C2702 C2698 1.524 . S
C2702 H2714 0.917 1_565 S
C2702 H2715 0.961 . S
C2702 H2716 0.961 . S
C2703 C2700 1.539 . S
C2703 H2717 0.958 . S
C2703 H2718 0.961 . S
C2703 H2719 0.960 . S
H2704 C2688 0.931 . S
H2705 C2693 0.929 . S
H2706 C2694 0.960 . S
H2707 C2694 0.962 . S
H2708 C2694 0.960 . S
H2709 C2695 0.961 . S
H2710 C2695 0.961 . S
H2711 C2695 0.961 . S
H2712 C2696 0.931 . S
H2713 C2701 0.930 . S
H2714 C2702 0.917 1_545 S
H2715 C2702 0.961 . S
H2716 C2702 0.961 . S
H2717 C2703 0.958 . S
H2718 C2703 0.961 . S
H2719 C2703 0.960 . S
C2720 C2721 1.391 . S
C2720 C2722 1.394 . S
C2720 H2736 0.931 . S
C2721 C2720 1.391 . S
C2721 C2725 1.376 . S
C2722 C2720 1.394 . S
C2722 C2723 1.369 . S
C2722 C2726 1.531 . S
C2723 C2722 1.369 . S
C2723 C2724 1.410 . S
C2723 C2731 1.503 . S
C2724 C2723 1.410 . S
C2724 C2725 1.392 . S
C2724 C2727 1.511 . S
C2725 C2721 1.376 . S
C2725 C2724 1.392 . S
C2725 H2737 0.929 . S
C2726 C2722 1.531 . S
C2726 H2738 0.960 . S
C2726 H2739 0.962 . S
C2726 H2740 0.960 . S
C2727 C2724 1.511 . S
C2727 H2741 0.961 . S
C2727 H2742 0.961 . S
C2727 H2743 0.961 . S
C2728 C2729 1.370 . S
C2728 C2730 1.363 . S
C2728 H2744 0.931 . S
C2729 C2728 1.370 . S
C2729 C2733 1.408 . S
C2730 C2728 1.363 . S
C2730 C2731 1.370 . S
C2730 C2734 1.524 . S
C2731 C2723 1.503 . S
C2731 C2730 1.370 . S
C2731 C2732 1.403 . S
C2732 C2731 1.403 . S
C2732 C2733 1.404 . S
C2732 C2735 1.539 . S
C2733 C2729 1.408 . S
C2733 C2732 1.404 . S
C2733 H2745 0.930 . S
C2734 C2730 1.524 . S
C2734 H2746 0.956 . S
C2734 H2747 0.961 . S
C2734 H2748 0.961 . S
C2735 C2732 1.539 . S
C2735 H2749 0.958 . S
C2735 H2750 0.961 . S
C2735 H2751 0.960 . S
H2736 C2720 0.931 . S
H2737 C2725 0.929 . S
H2738 C2726 0.960 . S
H2739 C2726 0.962 . S
H2740 C2726 0.960 . S
H2741 C2727 0.961 . S
H2742 C2727 0.961 . S
H2743 C2727 0.961 . S
H2744 C2728 0.931 . S
H2745 C2733 0.930 . S
H2746 C2734 0.956 . S
H2747 C2734 0.961 . S
H2748 C2734 0.961 . S
H2749 C2735 0.958 . S
H2750 C2735 0.961 . S
H2751 C2735 0.960 . S
C2752 C2753 1.391 . S
C2752 C2754 1.394 . S
C2752 H2768 0.931 . S
C2753 C2752 1.391 . S
C2753 C2757 1.376 . S
C2754 C2752 1.394 . S
C2754 C2755 1.369 . S
C2754 C2758 1.531 . S
C2755 C2754 1.369 . S
C2755 C2756 1.410 . S
C2755 C2763 1.503 . S
C2756 C2755 1.410 . S
C2756 C2757 1.392 . S
C2756 C2759 1.511 . S
C2757 C2753 1.376 . S
C2757 C2756 1.392 . S
C2757 H2769 0.929 . S
C2758 C2754 1.531 . S
C2758 H2770 0.960 . S
C2758 H2771 0.962 . S
C2758 H2772 0.960 . S
C2759 C2756 1.511 . S
C2759 H2773 0.961 . S
C2759 H2774 0.961 . S
C2759 H2775 0.961 . S
C2760 C2761 1.370 . S
C2760 C2762 1.363 . S
C2760 H2776 0.931 . S
C2761 C2760 1.370 . S
C2761 C2765 1.408 . S
C2762 C2760 1.363 . S
C2762 C2763 1.370 . S
C2762 C2766 1.524 . S
C2763 C2755 1.503 . S
C2763 C2762 1.370 . S
C2763 C2764 1.403 . S
C2764 C2763 1.403 . S
C2764 C2765 1.404 . S
C2764 C2767 1.539 . S
C2765 C2761 1.408 . S
C2765 C2764 1.404 . S
C2765 H2777 0.930 . S
C2766 C2762 1.524 . S
C2766 H2778 0.956 . S
C2766 H2779 0.961 . S
C2766 H2780 0.961 . S
C2767 C2764 1.539 . S
C2767 H2781 0.958 . S
C2767 H2782 0.961 . S
C2767 H2783 0.960 . S
H2768 C2752 0.931 . S
H2769 C2757 0.929 . S
H2770 C2758 0.960 . S
H2771 C2758 0.962 . S
H2772 C2758 0.960 . S
H2773 C2759 0.961 . S
H2774 C2759 0.961 . S
H2775 C2759 0.961 . S
H2776 C2760 0.931 . S
H2777 C2765 0.930 . S
H2778 C2766 0.956 . S
H2779 C2766 0.961 . S
H2780 C2766 0.961 . S
H2781 C2767 0.958 . S
H2782 C2767 0.961 . S
H2783 C2767 0.960 . S
C2784 C2785 1.391 . S
C2784 C2786 1.394 . S
C2784 H2800 0.931 . S
C2785 C2784 1.391 . S
C2785 C2789 1.376 . S
C2786 C2784 1.394 . S
C2786 C2787 1.369 . S
C2786 C2790 1.531 . S
C2787 C2786 1.369 . S
C2787 C2788 1.410 . S
C2787 C2795 1.503 . S
C2788 C2787 1.410 . S
C2788 C2789 1.392 . S
C2788 C2791 1.511 . S
C2789 C2785 1.376 . S
C2789 C2788 1.392 . S
C2789 H2801 0.929 . S
C2790 C2786 1.531 . S
C2790 H2802 0.960 . S
C2790 H2803 0.962 . S
C2790 H2804 0.960 . S
C2791 C2788 1.511 . S
C2791 H2805 0.961 . S
C2791 H2806 0.961 . S
C2791 H2807 0.961 . S
C2792 C2793 1.370 . S
C2792 C2794 1.363 . S
C2792 H2808 0.931 . S
C2793 C2792 1.370 . S
C2793 C2797 1.408 . S
C2794 C2792 1.363 . S
C2794 C2795 1.370 . S
C2794 C2798 1.524 . S
C2795 C2787 1.503 . S
C2795 C2794 1.370 . S
C2795 C2796 1.403 . S
C2796 C2795 1.403 . S
C2796 C2797 1.404 . S
C2796 C2799 1.539 . S
C2797 C2793 1.408 . S
C2797 C2796 1.404 . S
C2797 H2809 0.930 . S
C2798 C2794 1.524 . S
C2798 H2810 0.956 . S
C2798 H2811 0.961 . S
C2798 H2812 0.961 . S
C2799 C2796 1.539 . S
C2799 H2813 0.958 . S
C2799 H2814 0.961 . S
C2799 H2815 0.960 . S
H2800 C2784 0.931 . S
H2801 C2789 0.929 . S
H2802 C2790 0.960 . S
H2803 C2790 0.962 . S
H2804 C2790 0.960 . S
H2805 C2791 0.961 . S
H2806 C2791 0.961 . S
H2807 C2791 0.961 . S
H2808 C2792 0.931 . S
H2809 C2797 0.930 . S
H2810 C2798 0.956 . S
H2811 C2798 0.961 . S
H2812 C2798 0.961 . S
H2813 C2799 0.958 . S
H2814 C2799 0.961 . S
H2815 C2799 0.960 . S
C2816 C2817 1.391 . S
C2816 C2818 1.394 . S
C2816 H2832 0.931 . S
C2817 C2816 1.391 . S
C2817 C2821 1.376 . S
C2818 C2816 1.394 . S
C2818 C2819 1.369 . S
C2818 C2822 1.517 1_545 S
C2819 C2818 1.369 . S
C2819 C2820 1.410 . S
C2819 C2827 1.503 . S
C2820 C2819 1.410 . S
C2820 C2821 1.392 . S
C2820 C2823 1.511 . S
C2821 C2817 1.376 . S
C2821 C2820 1.392 . S
C2821 H2833 0.929 . S
C2822 C2818 1.517 1_565 S
C2822 H2834 0.981 . S
C2822 H2835 0.946 1_565 S
C2822 H2836 0.970 . S
C2823 C2820 1.511 . S
C2823 H2837 0.961 . S
C2823 H2838 0.961 . S
C2823 H2839 0.961 . S
C2824 C2825 1.370 1_545 S
C2824 C2826 1.363 . S
C2824 H2840 0.931 . S
C2825 C2824 1.370 1_565 S
C2825 C2829 1.408 . S
C2826 C2824 1.363 . S
C2826 C2827 1.370 . S
C2826 C2830 1.524 . S
C2827 C2819 1.503 . S
C2827 C2826 1.370 . S
C2827 C2828 1.403 1_545 S
C2828 C2827 1.403 1_565 S
C2828 C2829 1.404 . S
C2828 C2831 1.539 . S
C2829 C2825 1.408 . S
C2829 C2828 1.404 . S
C2829 H2841 0.930 . S
C2830 C2826 1.524 . S
C2830 H2842 0.956 . S
C2830 H2843 0.961 . S
C2830 H2844 0.961 . S
C2831 C2828 1.539 . S
C2831 H2845 0.958 . S
C2831 H2846 0.961 . S
C2831 H2847 0.960 . S
H2832 C2816 0.931 . S
H2833 C2821 0.929 . S
H2834 C2822 0.981 . S
H2835 C2822 0.946 1_545 S
H2836 C2822 0.970 . S
H2837 C2823 0.961 . S
H2838 C2823 0.961 . S
H2839 C2823 0.961 . S
H2840 C2824 0.931 . S
H2841 C2829 0.930 . S
H2842 C2830 0.956 . S
H2843 C2830 0.961 . S
H2844 C2830 0.961 . S
H2845 C2831 0.958 . S
H2846 C2831 0.961 . S
H2847 C2831 0.960 . S
C2848 C2849 1.391 . S
C2848 C2850 1.394 . S
C2848 H2864 0.931 . S
C2849 C2848 1.391 . S
C2849 C2853 1.376 . S
C2850 C2848 1.394 . S
C2850 C2851 1.369 . S
C2850 C2854 1.531 . S
C2851 C2850 1.369 . S
C2851 C2852 1.410 . S
C2851 C2859 1.503 . S
C2852 C2851 1.410 . S
C2852 C2853 1.392 . S
C2852 C2855 1.511 . S
C2853 C2849 1.376 . S
C2853 C2852 1.392 . S
C2853 H2865 0.929 . S
C2854 C2850 1.531 . S
C2854 H2866 0.960 . S
C2854 H2867 0.962 . S
C2854 H2868 0.960 . S
C2855 C2852 1.511 . S
C2855 H2869 0.961 . S
C2855 H2870 0.961 . S
C2855 H2871 0.961 . S
C2856 C2857 1.370 . S
C2856 C2858 1.363 . S
C2856 H2872 0.931 . S
C2857 C2856 1.370 . S
C2857 C2861 1.408 . S
C2858 C2856 1.363 . S
C2858 C2859 1.370 . S
C2858 C2862 1.524 . S
C2859 C2851 1.503 . S
C2859 C2858 1.370 . S
C2859 C2860 1.403 . S
C2860 C2859 1.403 . S
C2860 C2861 1.404 . S
C2860 C2863 1.539 . S
C2861 C2857 1.408 . S
C2861 C2860 1.404 . S
C2861 H2873 0.930 . S
C2862 C2858 1.524 . S
C2862 H2874 0.956 . S
C2862 H2875 0.961 . S
C2862 H2876 0.961 . S
C2863 C2860 1.539 . S
C2863 H2877 0.958 . S
C2863 H2878 0.961 . S
C2863 H2879 0.960 . S
H2864 C2848 0.931 . S
H2865 C2853 0.929 . S
H2866 C2854 0.960 . S
H2867 C2854 0.962 . S
H2868 C2854 0.960 . S
H2869 C2855 0.961 . S
H2870 C2855 0.961 . S
H2871 C2855 0.961 . S
H2872 C2856 0.931 . S
H2873 C2861 0.930 . S
H2874 C2862 0.956 . S
H2875 C2862 0.961 . S
H2876 C2862 0.961 . S
H2877 C2863 0.958 . S
H2878 C2863 0.961 . S
H2879 C2863 0.960 . S
C2880 C2881 1.391 . S
C2880 C2882 1.394 . S
C2880 H2896 0.931 . S
C2881 C2880 1.391 . S
C2881 C2885 1.376 . S
C2882 C2880 1.394 . S
C2882 C2883 1.369 . S
C2882 C2886 1.531 . S
C2883 C2882 1.369 . S
C2883 C2884 1.410 . S
C2883 C2891 1.503 . S
C2884 C2883 1.410 . S
C2884 C2885 1.392 . S
C2884 C2887 1.511 . S
C2885 C2881 1.376 . S
C2885 C2884 1.392 . S
C2885 H2897 0.929 . S
C2886 C2882 1.531 . S
C2886 H2898 0.960 . S
C2886 H2899 0.962 . S
C2886 H2900 0.960 . S
C2887 C2884 1.511 . S
C2887 H2901 0.961 . S
C2887 H2902 0.961 . S
C2887 H2903 0.961 . S
C2888 C2889 1.370 . S
C2888 C2890 1.363 . S
C2888 H2904 0.931 . S
C2889 C2888 1.370 . S
C2889 C2893 1.408 . S
C2890 C2888 1.363 . S
C2890 C2891 1.370 . S
C2890 C2894 1.524 . S
C2891 C2883 1.503 . S
C2891 C2890 1.370 . S
C2891 C2892 1.403 . S
C2892 C2891 1.403 . S
C2892 C2893 1.404 . S
C2892 C2895 1.539 . S
C2893 C2889 1.408 . S
C2893 C2892 1.404 . S
C2893 H2905 0.930 . S
C2894 C2890 1.524 . S
C2894 H2906 0.956 . S
C2894 H2907 0.961 . S
C2894 H2908 0.961 . S
C2895 C2892 1.539 . S
C2895 H2909 0.958 . S
C2895 H2910 0.961 . S
C2895 H2911 0.960 . S
H2896 C2880 0.931 . S
H2897 C2885 0.929 . S
H2898 C2886 0.960 . S
H2899 C2886 0.962 . S
H2900 C2886 0.960 . S
H2901 C2887 0.961 . S
H2902 C2887 0.961 . S
H2903 C2887 0.961 . S
H2904 C2888 0.931 . S
H2905 C2893 0.930 . S
H2906 C2894 0.956 . S
H2907 C2894 0.961 . S
H2908 C2894 0.961 . S
H2909 C2895 0.958 . S
H2910 C2895 0.961 . S
H2911 C2895 0.960 . S
C2912 C2913 1.391 . S
C2912 C2914 1.394 . S
C2912 H2928 0.931 . S
C2913 C2912 1.391 . S
C2913 C2917 1.376 . S
C2914 C2912 1.394 . S
C2914 C2915 1.369 . S
C2914 C2918 1.531 . S
C2915 C2914 1.369 . S
C2915 C2916 1.410 . S
C2915 C2923 1.503 . S
C2916 C2915 1.410 . S
C2916 C2917 1.392 . S
C2916 C2919 1.511 . S
C2917 C2913 1.376 . S
C2917 C2916 1.392 . S
C2917 H2929 0.929 . S
C2918 C2914 1.531 . S
C2918 H2930 0.960 . S
C2918 H2931 0.962 . S
C2918 H2932 0.960 . S
C2919 C2916 1.511 . S
C2919 H2933 0.961 . S
C2919 H2934 0.961 . S
C2919 H2935 0.961 . S
C2920 C2921 1.370 . S
C2920 C2922 1.363 . S
C2920 H2936 0.931 . S
C2921 C2920 1.370 . S
C2921 C2925 1.408 . S
C2922 C2920 1.363 . S
C2922 C2923 1.370 . S
C2922 C2926 1.524 . S
C2923 C2915 1.503 . S
C2923 C2922 1.370 . S
C2923 C2924 1.403 . S
C2924 C2923 1.403 . S
C2924 C2925 1.404 . S
C2924 C2927 1.539 . S
C2925 C2921 1.408 . S
C2925 C2924 1.404 . S
C2925 H2937 0.930 . S
C2926 C2922 1.524 . S
C2926 H2938 0.956 . S
C2926 H2939 0.961 . S
C2926 H2940 0.961 . S
C2927 C2924 1.539 . S
C2927 H2941 0.958 . S
C2927 H2942 0.961 . S
C2927 H2943 0.960 . S
H2928 C2912 0.931 . S
H2929 C2917 0.929 . S
H2930 C2918 0.960 . S
H2931 C2918 0.962 . S
H2932 C2918 0.960 . S
H2933 C2919 0.961 . S
H2934 C2919 0.961 . S
H2935 C2919 0.961 . S
H2936 C2920 0.931 . S
H2937 C2925 0.930 . S
H2938 C2926 0.956 . S
H2939 C2926 0.961 . S
H2940 C2926 0.961 . S
H2941 C2927 0.958 . S
H2942 C2927 0.961 . S
H2943 C2927 0.960 . S
C2944 C2945 1.391 . S
C2944 C2946 1.394 . S
C2944 H2960 0.931 . S
C2945 C2944 1.391 . S
C2945 C2949 1.376 . S
C2946 C2944 1.394 . S
C2946 C2947 1.369 . S
C2946 C2950 1.531 . S
C2947 C2946 1.369 . S
C2947 C2948 1.410 . S
C2947 C2955 1.503 . S
C2948 C2947 1.410 . S
C2948 C2949 1.392 . S
C2948 C2951 1.511 . S
C2949 C2945 1.376 . S
C2949 C2948 1.392 . S
C2949 H2961 0.929 . S
C2950 C2946 1.531 . S
C2950 H2962 0.960 . S
C2950 H2963 0.962 . S
C2950 H2964 0.960 . S
C2951 C2948 1.511 . S
C2951 H2965 0.961 . S
C2951 H2966 0.961 . S
C2951 H2967 0.961 . S
C2952 C2953 1.370 . S
C2952 C2954 1.363 . S
C2952 H2968 0.931 . S
C2953 C2952 1.370 . S
C2953 C2957 1.408 . S
C2954 C2952 1.363 . S
C2954 C2955 1.370 . S
C2954 C2958 1.524 . S
C2955 C2947 1.503 . S
C2955 C2954 1.370 . S
C2955 C2956 1.403 . S
C2956 C2955 1.403 . S
C2956 C2957 1.404 . S
C2956 C2959 1.539 . S
C2957 C2953 1.408 . S
C2957 C2956 1.404 . S
C2957 H2969 0.930 . S
C2958 C2954 1.524 . S
C2958 H2970 0.956 . S
C2958 H2971 0.961 . S
C2958 H2972 0.961 . S
C2959 C2956 1.539 . S
C2959 H2973 0.958 . S
C2959 H2974 0.961 . S
C2959 H2975 0.960 . S
H2960 C2944 0.931 . S
H2961 C2949 0.929 . S
H2962 C2950 0.960 . S
H2963 C2950 0.962 . S
H2964 C2950 0.960 . S
H2965 C2951 0.961 . S
H2966 C2951 0.961 . S
H2967 C2951 0.961 . S
H2968 C2952 0.931 . S
H2969 C2957 0.930 . S
H2970 C2958 0.956 . S
H2971 C2958 0.961 . S
H2972 C2958 0.961 . S
H2973 C2959 0.958 . S
H2974 C2959 0.961 . S
H2975 C2959 0.960 . S
C2976 C2977 1.391 . S
C2976 C2978 1.391 . S
C2976 H2992 0.931 . S
C2977 C2976 1.391 . S
C2977 C2981 1.376 . S
C2978 C2976 1.391 . S
C2978 C2979 1.371 1_565 S
C2978 C2982 1.531 1_565 S
C2979 C2978 1.371 1_545 S
C2979 C2980 1.410 . S
C2979 C2987 1.503 . S
C2980 C2979 1.410 . S
C2980 C2981 1.392 1_545 S
C2980 C2983 1.511 . S
C2981 C2977 1.376 . S
C2981 C2980 1.392 1_565 S
C2981 H2993 0.929 . S
C2982 C2978 1.531 1_545 S
C2982 H2994 0.960 . S
C2982 H2995 0.962 . S
C2982 H2996 0.960 1_545 S
C2983 C2980 1.511 . S
C2983 H2997 0.961 . S
C2983 H2998 0.961 . S
C2983 H2999 0.961 . S
C2984 C2985 1.370 . S
C2984 C2986 1.363 . S
C2984 H3000 0.931 . S
C2985 C2984 1.370 . S
C2985 C2989 1.408 . S
C2986 C2984 1.363 . S
C2986 C2987 1.370 . S
C2986 C2990 1.524 . S
C2987 C2979 1.503 . S
C2987 C2986 1.370 . S
C2987 C2988 1.403 . S
C2988 C2987 1.403 . S
C2988 C2989 1.404 . S
C2988 C2991 1.539 . S
C2989 C2985 1.408 . S
C2989 C2988 1.404 . S
C2989 H3001 0.930 . S
C2990 C2986 1.524 . S
C2990 H3002 0.956 . S
C2990 H3003 0.961 . S
C2990 H3004 0.961 . S
C2991 C2988 1.539 . S
C2991 H3005 0.958 . S
C2991 H3006 0.961 . S
C2991 H3007 0.960 . S
H2992 C2976 0.931 . S
H2993 C2981 0.929 . S
H2994 C2982 0.960 . S
H2995 C2982 0.962 . S
H2996 C2982 0.960 1_565 S
H2997 C2983 0.961 . S
H2998 C2983 0.961 . S
H2999 C2983 0.961 . S
H3000 C2984 0.931 . S
H3001 C2989 0.930 . S
H3002 C2990 0.956 . S
H3003 C2990 0.961 . S
H3004 C2990 0.961 . S
H3005 C2991 0.958 . S
H3006 C2991 0.961 . S
H3007 C2991 0.960 . S
C3008 C3009 1.391 . S
C3008 C3010 1.394 . S
C3008 H3024 0.931 . S
C3009 C3008 1.391 . S
C3009 C3013 1.376 . S
C3010 C3008 1.394 . S
C3010 C3011 1.369 . S
C3010 C3014 1.531 . S
C3011 C3010 1.369 . S
C3011 C3012 1.410 . S
C3011 C3019 1.503 . S
C3012 C3011 1.410 . S
C3012 C3013 1.392 . S
C3012 C3015 1.511 . S
C3013 C3009 1.376 . S
C3013 C3012 1.392 . S
C3013 H3025 0.929 . S
C3014 C3010 1.531 . S
C3014 H3026 0.960 . S
C3014 H3027 0.962 . S
C3014 H3028 0.960 . S
C3015 C3012 1.511 . S
C3015 H3029 0.961 . S
C3015 H3030 0.961 . S
C3015 H3031 0.961 . S
C3016 C3017 1.370 . S
C3016 C3018 1.363 . S
C3016 H3032 0.931 . S
C3017 C3016 1.370 . S
C3017 C3021 1.408 . S
C3018 C3016 1.363 . S
C3018 C3019 1.370 . S
C3018 C3022 1.524 . S
C3019 C3011 1.503 . S
C3019 C3018 1.370 . S
C3019 C3020 1.403 . S
C3020 C3019 1.403 . S
C3020 C3021 1.404 . S
C3020 C3023 1.539 . S
C3021 C3017 1.408 . S
C3021 C3020 1.404 . S
C3021 H3033 0.930 . S
C3022 C3018 1.524 . S
C3022 H3034 0.956 . S
C3022 H3035 0.961 . S
C3022 H3036 0.961 . S
C3023 C3020 1.539 . S
C3023 H3037 0.958 . S
C3023 H3038 0.961 . S
C3023 H3039 0.960 . S
H3024 C3008 0.931 . S
H3025 C3013 0.929 . S
H3026 C3014 0.960 . S
H3027 C3014 0.962 . S
H3028 C3014 0.960 . S
H3029 C3015 0.961 . S
H3030 C3015 0.961 . S
H3031 C3015 0.961 . S
H3032 C3016 0.931 . S
H3033 C3021 0.930 . S
H3034 C3022 0.956 . S
H3035 C3022 0.961 . S
H3036 C3022 0.961 . S
H3037 C3023 0.958 . S
H3038 C3023 0.961 . S
H3039 C3023 0.960 . S
C3040 C3041 1.391 . S
C3040 C3042 1.394 . S
C3040 H3056 0.931 . S
C3041 C3040 1.391 . S
C3041 C3045 1.376 1_455 S
C3042 C3040 1.394 . S
C3042 C3043 1.369 1_455 S
C3042 C3046 1.531 . S
C3043 C3042 1.369 1_655 S
C3043 C3044 1.410 . S
C3043 C3051 1.503 . S
C3044 C3043 1.410 . S
C3044 C3045 1.392 . S
C3044 C3047 1.511 . S
C3045 C3041 1.376 1_655 S
C3045 C3044 1.392 . S
C3045 H3057 0.929 . S
C3046 C3042 1.531 . S
C3046 H3058 0.960 . S
C3046 H3059 0.962 . S
C3046 H3060 0.960 . S
C3047 C3044 1.511 . S
C3047 H3061 0.961 . S
C3047 H3062 0.961 . S
C3047 H3063 0.961 . S
C3048 C3049 1.370 . S
C3048 C3050 1.363 1_545 S
C3048 H3064 0.931 . S
C3049 C3048 1.370 . S
C3049 C3053 1.408 . S
C3050 C3048 1.363 1_565 S
C3050 C3051 1.370 . S
C3050 C3054 1.524 . S
C3051 C3043 1.503 . S
C3051 C3050 1.370 . S
C3051 C3052 1.403 . S
C3052 C3051 1.403 . S
C3052 C3053 1.404 1_565 S
C3052 C3055 1.539 . S
C3053 C3049 1.408 . S
C3053 C3052 1.404 1_545 S
C3053 H3065 0.930 . S
C3054 C3050 1.524 . S
C3054 H3066 0.956 1_655 S
C3054 H3067 0.961 . S
C3054 H3068 0.961 . S
C3055 C3052 1.539 . S
C3055 H3069 0.958 . S
C3055 H3070 0.961 . S
C3055 H3071 0.960 . S
H3056 C3040 0.931 . S
H3057 C3045 0.929 . S
H3058 C3046 0.960 . S
H3059 C3046 0.962 . S
H3060 C3046 0.960 . S
H3061 C3047 0.961 . S
H3062 C3047 0.961 . S
H3063 C3047 0.961 . S
H3064 C3048 0.931 . S
H3065 C3053 0.930 . S
H3066 C3054 0.956 1_455 S
H3067 C3054 0.961 . S
H3068 C3054 0.961 . S
H3069 C3055 0.958 . S
H3070 C3055 0.961 . S
H3071 C3055 0.960 . S
C3072 C3073 1.391 . S
C3072 C3074 1.394 . S
C3072 H3088 0.931 . S
C3073 C3072 1.391 . S
C3073 C3077 1.376 . S
C3074 C3072 1.394 . S
C3074 C3075 1.369 . S
C3074 C3078 1.531 . S
C3075 C3074 1.369 . S
C3075 C3076 1.410 . S
C3075 C3083 1.503 . S
C3076 C3075 1.410 . S
C3076 C3077 1.392 . S
C3076 C3079 1.511 . S
C3077 C3073 1.376 . S
C3077 C3076 1.392 . S
C3077 H3089 0.929 . S
C3078 C3074 1.531 . S
C3078 H3090 0.960 . S
C3078 H3091 0.962 . S
C3078 H3092 0.960 . S
C3079 C3076 1.511 . S
C3079 H3093 0.961 . S
C3079 H3094 0.961 . S
C3079 H3095 0.961 . S
C3080 C3081 1.370 . S
C3080 C3082 1.363 . S
C3080 H3096 0.931 . S
C3081 C3080 1.370 . S
C3081 C3085 1.408 . S
C3082 C3080 1.363 . S
C3082 C3083 1.370 . S
C3082 C3086 1.524 . S
C3083 C3075 1.503 . S
C3083 C3082 1.370 . S
C3083 C3084 1.403 . S
C3084 C3083 1.403 . S
C3084 C3085 1.404 . S
C3084 C3087 1.539 . S
C3085 C3081 1.408 . S
C3085 C3084 1.404 . S
C3085 H3097 0.930 . S
C3086 C3082 1.524 . S
C3086 H3098 0.956 . S
C3086 H3099 0.961 . S
C3086 H3100 0.961 . S
C3087 C3084 1.539 . S
C3087 H3101 0.958 . S
C3087 H3102 0.961 . S
C3087 H3103 0.960 . S
H3088 C3072 0.931 . S
H3089 C3077 0.929 . S
H3090 C3078 0.960 . S
H3091 C3078 0.962 . S
H3092 C3078 0.960 . S
H3093 C3079 0.961 . S
H3094 C3079 0.961 . S
H3095 C3079 0.961 . S
H3096 C3080 0.931 . S
H3097 C3085 0.930 . S
H3098 C3086 0.956 . S
H3099 C3086 0.961 . S
H3100 C3086 0.961 . S
H3101 C3087 0.958 . S
H3102 C3087 0.961 . S
H3103 C3087 0.960 . S
C3104 C3105 1.391 . S
C3104 C3106 1.394 . S
C3104 H3120 0.931 . S
C3105 C3104 1.391 . S
C3105 C3109 1.376 . S
C3106 C3104 1.394 . S
C3106 C3107 1.369 . S
C3106 C3110 1.531 . S
C3107 C3106 1.369 . S
C3107 C3108 1.410 . S
C3107 C3115 1.503 . S
C3108 C3107 1.410 . S
C3108 C3109 1.392 . S
C3108 C3111 1.511 . S
C3109 C3105 1.376 . S
C3109 C3108 1.392 . S
C3109 H3121 0.929 . S
C3110 C3106 1.531 . S
C3110 H3122 0.960 . S
C3110 H3123 0.962 . S
C3110 H3124 0.960 . S
C3111 C3108 1.511 . S
C3111 H3125 0.961 . S
C3111 H3126 0.961 . S
C3111 H3127 0.961 . S
C3112 C3113 1.370 . S
C3112 C3114 1.363 1_545 S
C3112 H3128 0.931 . S
C3113 C3112 1.370 . S
C3113 C3117 1.408 . S
C3114 C3112 1.363 1_565 S
C3114 C3115 1.370 . S
C3114 C3118 1.524 . S
C3115 C3107 1.503 . S
C3115 C3114 1.370 . S
C3115 C3116 1.403 . S
C3116 C3115 1.403 . S
C3116 C3117 1.404 1_565 S
C3116 C3119 1.539 . S
C3117 C3113 1.408 . S
C3117 C3116 1.404 1_545 S
C3117 H3129 0.930 . S
C3118 C3114 1.524 . S
C3118 H3130 0.956 . S
C3118 H3131 0.961 . S
C3118 H3132 0.961 . S
C3119 C3116 1.539 . S
C3119 H3133 0.958 . S
C3119 H3134 0.961 . S
C3119 H3135 0.960 . S
H3120 C3104 0.931 . S
H3121 C3109 0.929 . S
H3122 C3110 0.960 . S
H3123 C3110 0.962 . S
H3124 C3110 0.960 . S
H3125 C3111 0.961 . S
H3126 C3111 0.961 . S
H3127 C3111 0.961 . S
H3128 C3112 0.931 . S
H3129 C3117 0.930 . S
H3130 C3118 0.956 . S
H3131 C3118 0.961 . S
H3132 C3118 0.961 . S
H3133 C3119 0.958 . S
H3134 C3119 0.961 . S
H3135 C3119 0.960 . S
C3136 C3137 1.391 . S
C3136 C3138 1.394 . S
C3136 H3152 0.931 . S
C3137 C3136 1.391 . S
C3137 C3141 1.376 . S
C3138 C3136 1.394 . S
C3138 C3139 1.369 . S
C3138 C3142 1.531 . S
C3139 C3138 1.369 . S
C3139 C3140 1.410 . S
C3139 C3147 1.503 . S
C3140 C3139 1.410 . S
C3140 C3141 1.392 . S
C3140 C3143 1.511 . S
C3141 C3137 1.376 . S
C3141 C3140 1.392 . S
C3141 H3153 0.929 . S
C3142 C3138 1.531 . S
C3142 H3154 0.960 . S
C3142 H3155 0.962 . S
C3142 H3156 0.960 . S
C3143 C3140 1.511 . S
C3143 H3157 0.961 . S
C3143 H3158 0.961 . S
C3143 H3159 0.961 . S
C3144 C3145 1.370 . S
C3144 C3146 1.363 . S
C3144 H3160 0.931 . S
C3145 C3144 1.370 . S
C3145 C3149 1.408 . S
C3146 C3144 1.363 . S
C3146 C3147 1.370 . S
C3146 C3150 1.524 . S
C3147 C3139 1.503 . S
C3147 C3146 1.370 . S
C3147 C3148 1.403 . S
C3148 C3147 1.403 . S
C3148 C3149 1.404 . S
C3148 C3151 1.539 . S
C3149 C3145 1.408 . S
C3149 C3148 1.404 . S
C3149 H3161 0.930 . S
C3150 C3146 1.524 . S
C3150 H3162 0.956 . S
C3150 H3163 0.961 . S
C3150 H3164 0.961 . S
C3151 C3148 1.539 . S
C3151 H3165 0.958 . S
C3151 H3166 0.961 . S
C3151 H3167 0.960 . S
H3152 C3136 0.931 . S
H3153 C3141 0.929 . S
H3154 C3142 0.960 . S
H3155 C3142 0.962 . S
H3156 C3142 0.960 . S
H3157 C3143 0.961 . S
H3158 C3143 0.961 . S
H3159 C3143 0.961 . S
H3160 C3144 0.931 . S
H3161 C3149 0.930 . S
H3162 C3150 0.956 . S
H3163 C3150 0.961 . S
H3164 C3150 0.961 . S
H3165 C3151 0.958 . S
H3166 C3151 0.961 . S
H3167 C3151 0.960 . S
C3168 C3169 1.391 . S
C3168 C3170 1.394 . S
C3168 H3184 0.931 . S
C3169 C3168 1.391 . S
C3169 C3173 1.376 . S
C3170 C3168 1.394 . S
C3170 C3171 1.369 . S
C3170 C3174 1.531 . S
C3171 C3170 1.369 . S
C3171 C3172 1.410 . S
C3171 C3179 1.503 1_545 S
C3172 C3171 1.410 . S
C3172 C3173 1.392 . S
C3172 C3175 1.511 . S
C3173 C3169 1.376 . S
C3173 C3172 1.392 . S
C3173 H3185 0.929 . S
C3174 C3170 1.531 . S
C3174 H3186 0.960 . S
C3174 H3187 0.962 . S
C3174 H3188 0.960 . S
C3175 C3172 1.511 . S
C3175 H3189 0.961 . S
C3175 H3190 0.961 1_545 S
C3175 H3191 0.961 . S
C3176 C3177 1.370 . S
C3176 C3178 1.363 . S
C3176 H3192 0.931 . S
C3177 C3176 1.370 . S
C3177 C3181 1.408 . S
C3178 C3176 1.363 . S
C3178 C3179 1.370 . S
C3178 C3182 1.524 . S
C3179 C3171 1.503 1_565 S
C3179 C3178 1.370 . S
C3179 C3180 1.403 . S
C3180 C3179 1.403 . S
C3180 C3181 1.404 . S
C3180 C3183 1.539 1_565 S
C3181 C3177 1.408 . S
C3181 C3180 1.404 . S
C3181 H3193 0.930 . S
C3182 C3178 1.524 . S
C3182 H3194 0.956 . S
C3182 H3195 0.961 . S
C3182 H3196 0.961 . S
C3183 C3180 1.539 1_545 S
C3183 H3197 0.958 . S
C3183 H3198 0.961 . S
C3183 H3199 0.960 . S
H3184 C3168 0.931 . S
H3185 C3173 0.929 . S
H3186 C3174 0.960 . S
H3187 C3174 0.962 . S
H3188 C3174 0.960 . S
H3189 C3175 0.961 . S
H3190 C3175 0.961 1_565 S
H3191 C3175 0.961 . S
H3192 C3176 0.931 . S
H3193 C3181 0.930 . S
H3194 C3182 0.956 . S
H3195 C3182 0.961 . S
H3196 C3182 0.961 . S
H3197 C3183 0.958 . S
H3198 C3183 0.961 . S
H3199 C3183 0.960 . S
C3200 C3201 1.391 . S
C3200 C3202 1.394 . S
C3200 H3216 0.931 . S
C3201 C3200 1.391 . S
C3201 C3205 1.376 . S
C3202 C3200 1.394 . S
C3202 C3203 1.369 . S
C3202 C3206 1.531 1_556 S
C3203 C3202 1.369 . S
C3203 C3204 1.410 . S
C3203 C3211 1.503 1_556 S
C3204 C3203 1.410 . S
C3204 C3205 1.392 . S
C3204 C3207 1.511 . S
C3205 C3201 1.376 . S
C3205 C3204 1.392 . S
C3205 H3217 0.929 . S
C3206 C3202 1.531 1_554 S
C3206 H3218 0.960 . S
C3206 H3219 0.962 . S
C3206 H3220 0.960 . S
C3207 C3204 1.511 . S
C3207 H3221 0.961 . S
C3207 H3222 0.961 . S
C3207 H3223 0.961 . S
C3208 C3209 1.370 . S
C3208 C3210 1.363 . S
C3208 H3224 0.931 . S
C3209 C3208 1.370 . S
C3209 C3213 1.408 . S
C3210 C3208 1.363 . S
C3210 C3211 1.370 . S
C3210 C3214 1.524 . S
C3211 C3203 1.503 1_554 S
C3211 C3210 1.370 . S
C3211 C3212 1.403 . S
C3212 C3211 1.403 . S
C3212 C3213 1.404 . S
C3212 C3215 1.539 1_554 S
C3213 C3209 1.408 . S
C3213 C3212 1.404 . S
C3213 H3225 0.930 . S
C3214 C3210 1.524 . S
C3214 H3226 0.956 . S
C3214 H3227 0.961 . S
C3214 H3228 0.961 . S
C3215 C3212 1.539 1_556 S
C3215 H3229 0.958 1_556 S
C3215 H3230 0.961 . S
C3215 H3231 0.960 . S
H3216 C3200 0.931 . S
H3217 C3205 0.929 . S
H3218 C3206 0.960 . S
H3219 C3206 0.962 . S
H3220 C3206 0.960 . S
H3221 C3207 0.961 . S
H3222 C3207 0.961 . S
H3223 C3207 0.961 . S
H3224 C3208 0.931 . S
H3225 C3213 0.930 . S
H3226 C3214 0.956 . S
H3227 C3214 0.961 . S
H3228 C3214 0.961 . S
H3229 C3215 0.958 1_554 S
H3230 C3215 0.961 . S
H3231 C3215 0.960 . S
C3232 C3233 1.391 . S
C3232 C3234 1.394 . S
C3232 H3248 0.931 . S
C3233 C3232 1.391 . S
C3233 C3237 1.376 . S
C3234 C3232 1.394 . S
C3234 C3235 1.369 . S
C3234 C3238 1.531 . S
C3235 C3234 1.369 . S
C3235 C3236 1.410 . S
C3235 C3243 1.503 . S
C3236 C3235 1.410 . S
C3236 C3237 1.392 . S
C3236 C3239 1.511 . S
C3237 C3233 1.376 . S
C3237 C3236 1.392 . S
C3237 H3249 0.929 . S
C3238 C3234 1.531 . S
C3238 H3250 0.960 . S
C3238 H3251 0.962 . S
C3238 H3252 0.960 . S
C3239 C3236 1.511 . S
C3239 H3253 0.961 . S
C3239 H3254 0.961 . S
C3239 H3255 0.961 . S
C3240 C3241 1.370 . S
C3240 C3242 1.363 . S
C3240 H3256 0.931 . S
C3241 C3240 1.370 . S
C3241 C3245 1.408 . S
C3242 C3240 1.363 . S
C3242 C3243 1.370 . S
C3242 C3246 1.524 . S
C3243 C3235 1.503 . S
C3243 C3242 1.370 . S
C3243 C3244 1.403 . S
C3244 C3243 1.403 . S
C3244 C3245 1.404 . S
C3244 C3247 1.539 . S
C3245 C3241 1.408 . S
C3245 C3244 1.404 . S
C3245 H3257 0.930 . S
C3246 C3242 1.524 . S
C3246 H3258 0.956 . S
C3246 H3259 0.961 . S
C3246 H3260 0.961 . S
C3247 C3244 1.539 . S
C3247 H3261 0.958 . S
C3247 H3262 0.961 . S
C3247 H3263 0.960 . S
H3248 C3232 0.931 . S
H3249 C3237 0.929 . S
H3250 C3238 0.960 . S
H3251 C3238 0.962 . S
H3252 C3238 0.960 . S
H3253 C3239 0.961 . S
H3254 C3239 0.961 . S
H3255 C3239 0.961 . S
H3256 C3240 0.931 . S
H3257 C3245 0.930 . S
H3258 C3246 0.956 . S
H3259 C3246 0.961 . S
H3260 C3246 0.961 . S
H3261 C3247 0.958 . S
H3262 C3247 0.961 . S
H3263 C3247 0.960 . S
C3264 C3265 1.391 . S
C3264 C3266 1.394 . S
C3264 H3280 0.931 . S
C3265 C3264 1.391 . S
C3265 C3269 1.376 . S
C3266 C3264 1.394 . S
C3266 C3267 1.369 . S
C3266 C3270 1.531 . S
C3267 C3266 1.369 . S
C3267 C3268 1.410 . S
C3267 C3275 1.503 1_554 S
C3268 C3267 1.410 . S
C3268 C3269 1.392 . S
C3268 C3271 1.511 . S
C3269 C3265 1.376 . S
C3269 C3268 1.392 . S
C3269 H3281 0.929 . S
C3270 C3266 1.531 . S
C3270 H3282 0.960 1_554 S
C3270 H3283 0.962 . S
C3270 H3284 0.960 . S
C3271 C3268 1.511 . S
C3271 H3285 0.961 . S
C3271 H3286 0.961 1_554 S
C3271 H3287 0.961 1_554 S
C3272 C3273 1.370 . S
C3272 C3274 1.363 . S
C3272 H3288 0.931 . S
C3273 C3272 1.370 . S
C3273 C3277 1.408 . S
C3274 C3272 1.363 . S
C3274 C3275 1.370 . S
C3274 C3278 1.524 1_556 S
C3275 C3267 1.503 1_556 S
C3275 C3274 1.370 . S
C3275 C3276 1.403 . S
C3276 C3275 1.403 . S
C3276 C3277 1.404 . S
C3276 C3279 1.539 . S
C3277 C3273 1.408 . S
C3277 C3276 1.404 . S
C3277 H3289 0.930 . S
C3278 C3274 1.524 1_554 S
C3278 H3290 0.956 . S
C3278 H3291 0.961 . S
C3278 H3292 0.961 . S
C3279 C3276 1.539 . S
C3279 H3293 0.958 . S
C3279 H3294 0.961 . S
C3279 H3295 0.960 . S
H3280 C3264 0.931 . S
H3281 C3269 0.929 . S
H3282 C3270 0.960 1_556 S
H3283 C3270 0.962 . S
H3284 C3270 0.960 . S
H3285 C3271 0.961 . S
H3286 C3271 0.961 1_556 S
H3287 C3271 0.961 1_556 S
H3288 C3272 0.931 . S
H3289 C3277 0.930 . S
H3290 C3278 0.956 . S
H3291 C3278 0.961 . S
H3292 C3278 0.961 . S
H3293 C3279 0.958 . S
H3294 C3279 0.961 . S
H3295 C3279 0.960 . S
C3296 C3297 1.391 . S
C3296 C3298 1.394 . S
C3296 H3312 0.931 . S
C3297 C3296 1.391 . S
C3297 C3301 1.376 . S
C3298 C3296 1.394 . S
C3298 C3299 1.369 . S
C3298 C3302 1.531 . S
C3299 C3298 1.369 . S
C3299 C3300 1.410 . S
C3299 C3307 1.503 1_556 S
C3300 C3299 1.410 . S
C3300 C3301 1.392 . S
C3300 C3303 1.511 1_556 S
C3301 C3297 1.376 . S
C3301 C3300 1.392 . S
C3301 H3313 0.929 . S
C3302 C3298 1.531 . S
C3302 H3314 0.960 . S
C3302 H3315 0.962 . S
C3302 H3316 0.960 . S
C3303 C3300 1.511 1_554 S
C3303 H3317 0.964 . S
C3303 H3318 0.961 . S
C3303 H3319 0.961 . S
C3304 C3305 1.370 . S
C3304 C3306 1.363 . S
C3304 H3320 0.931 . S
C3305 C3304 1.370 . S
C3305 C3309 1.408 . S
C3306 C3304 1.363 . S
C3306 C3307 1.370 . S
C3306 C3310 1.524 1_554 S
C3307 C3299 1.503 1_554 S
C3307 C3306 1.370 . S
C3307 C3308 1.403 . S
C3308 C3307 1.403 . S
C3308 C3309 1.404 . S
C3308 C3311 1.539 . S
C3309 C3305 1.408 . S
C3309 C3308 1.404 . S
C3309 H3321 0.930 . S
C3310 C3306 1.524 1_556 S
C3310 H3322 0.956 . S
C3310 H3323 0.961 . S
C3310 H3324 0.961 . S
C3311 C3308 1.539 . S
C3311 H3325 0.958 . S
C3311 H3326 0.961 . S
C3311 H3327 0.960 . S
H3312 C3296 0.931 . S
H3313 C3301 0.929 . S
H3314 C3302 0.960 . S
H3315 C3302 0.962 . S
H3316 C3302 0.960 . S
H3317 C3303 0.964 . S
H3318 C3303 0.961 . S
H3319 C3303 0.961 . S
H3320 C3304 0.931 . S
H3321 C3309 0.930 . S
H3322 C3310 0.956 . S
H3323 C3310 0.961 . S
H3324 C3310 0.961 . S
H3325 C3311 0.958 . S
H3326 C3311 0.961 . S
H3327 C3311 0.960 . S
C3328 C3329 1.391 . S
C3328 C3330 1.394 . S
C3328 H3344 0.931 . S
C3329 C3328 1.391 . S
C3329 C3333 1.376 . S
C3330 C3328 1.394 . S
C3330 C3331 1.369 . S
C3330 C3334 1.531 . S
C3331 C3330 1.369 . S
C3331 C3332 1.410 . S
C3331 C3339 1.503 . S
C3332 C3331 1.410 . S
C3332 C3333 1.392 . S
C3332 C3335 1.511 . S
C3333 C3329 1.376 . S
C3333 C3332 1.392 . S
C3333 H3345 0.929 . S
C3334 C3330 1.531 . S
C3334 H3346 0.960 . S
C3334 H3347 0.962 . S
C3334 H3348 0.960 . S
C3335 C3332 1.511 . S
C3335 H3349 0.961 . S
C3335 H3350 0.961 . S
C3335 H3351 0.961 . S
C3336 C3337 1.370 . S
C3336 C3338 1.363 . S
C3336 H3352 0.931 . S
C3337 C3336 1.370 . S
C3337 C3341 1.408 . S
C3338 C3336 1.363 . S
C3338 C3339 1.370 . S
C3338 C3342 1.524 . S
C3339 C3331 1.503 . S
C3339 C3338 1.370 . S
C3339 C3340 1.403 . S
C3340 C3339 1.403 . S
C3340 C3341 1.404 . S
C3340 C3343 1.539 . S
C3341 C3337 1.408 . S
C3341 C3340 1.404 . S
C3341 H3353 0.930 . S
C3342 C3338 1.524 . S
C3342 H3354 0.956 . S
C3342 H3355 0.961 . S
C3342 H3356 0.961 . S
C3343 C3340 1.539 . S
C3343 H3357 0.958 . S
C3343 H3358 0.961 . S
C3343 H3359 0.960 . S
H3344 C3328 0.931 . S
H3345 C3333 0.929 . S
H3346 C3334 0.960 . S
H3347 C3334 0.962 . S
H3348 C3334 0.960 . S
H3349 C3335 0.961 . S
H3350 C3335 0.961 . S
H3351 C3335 0.961 . S
H3352 C3336 0.931 . S
H3353 C3341 0.930 . S
H3354 C3342 0.956 . S
H3355 C3342 0.961 . S
H3356 C3342 0.961 . S
H3357 C3343 0.958 . S
H3358 C3343 0.961 . S
H3359 C3343 0.960 . S
C3360 C3361 1.391 . S
C3360 C3362 1.394 . S
C3360 H3376 0.931 . S
C3361 C3360 1.391 . S
C3361 C3365 1.376 . S
C3362 C3360 1.394 . S
C3362 C3363 1.369 . S
C3362 C3366 1.531 . S
C3363 C3362 1.369 . S
C3363 C3364 1.410 . S
C3363 C3371 1.503 1_556 S
C3364 C3363 1.410 . S
C3364 C3365 1.392 . S
C3364 C3367 1.511 1_556 S
C3365 C3361 1.376 . S
C3365 C3364 1.392 . S
C3365 H3377 0.929 . S
C3366 C3362 1.531 . S
C3366 H3378 0.960 . S
C3366 H3379 0.962 . S
C3366 H3380 0.960 . S
C3367 C3364 1.511 1_554 S
C3367 H3381 0.961 . S
C3367 H3382 0.961 . S
C3367 H3383 0.961 . S
C3368 C3369 1.370 . S
C3368 C3370 1.363 . S
C3368 H3384 0.931 . S
C3369 C3368 1.370 . S
C3369 C3373 1.408 . S
C3370 C3368 1.363 . S
C3370 C3371 1.370 . S
C3370 C3374 1.524 1_554 S
C3371 C3363 1.503 1_554 S
C3371 C3370 1.370 . S
C3371 C3372 1.403 . S
C3372 C3371 1.403 . S
C3372 C3373 1.404 . S
C3372 C3375 1.539 . S
C3373 C3369 1.408 . S
C3373 C3372 1.404 . S
C3373 H3385 0.930 . S
C3374 C3370 1.524 1_556 S
C3374 H3386 0.956 . S
C3374 H3387 0.961 . S
C3374 H3388 0.961 . S
C3375 C3372 1.539 . S
C3375 H3389 0.958 . S
C3375 H3390 0.961 . S
C3375 H3391 0.960 . S
H3376 C3360 0.931 . S
H3377 C3365 0.929 . S
H3378 C3366 0.960 . S
H3379 C3366 0.962 . S
H3380 C3366 0.960 . S
H3381 C3367 0.961 . S
H3382 C3367 0.961 . S
H3383 C3367 0.961 . S
H3384 C3368 0.931 . S
H3385 C3373 0.930 . S
H3386 C3374 0.956 . S
H3387 C3374 0.961 . S
H3388 C3374 0.961 . S
H3389 C3375 0.958 . S
H3390 C3375 0.961 . S
H3391 C3375 0.960 . S
C3392 C3393 1.391 . S
C3392 C3394 1.394 . S
C3392 H3408 0.931 . S
C3393 C3392 1.391 . S
C3393 C3397 1.376 . S
C3394 C3392 1.394 . S
C3394 C3395 1.369 . S
C3394 C3398 1.531 . S
C3395 C3394 1.369 . S
C3395 C3396 1.410 . S
C3395 C3403 1.503 1_545 S
C3396 C3395 1.410 . S
C3396 C3397 1.392 . S
C3396 C3399 1.511 1_545 S
C3397 C3393 1.376 . S
C3397 C3396 1.392 . S
C3397 H3409 0.929 . S
C3398 C3394 1.531 . S
C3398 H3410 0.960 . S
C3398 H3411 0.962 . S
C3398 H3412 0.960 . S
C3399 C3396 1.511 1_565 S
C3399 H3413 0.961 . S
C3399 H3414 0.961 . S
C3399 H3415 0.961 1_565 S
C3400 C3401 1.370 . S
C3400 C3402 1.363 . S
C3400 H3416 0.931 . S
C3401 C3400 1.370 . S
C3401 C3405 1.408 . S
C3402 C3400 1.363 . S
C3402 C3403 1.370 . S
C3402 C3406 1.524 . S
C3403 C3395 1.503 1_565 S
C3403 C3402 1.370 . S
C3403 C3404 1.399 1_565 S
C3404 C3403 1.399 1_545 S
C3404 C3405 1.394 1_545 S
C3404 C3407 1.552 . S
C3405 C3401 1.408 . S
C3405 C3404 1.394 1_565 S
C3405 H3417 0.930 . S
C3406 C3402 1.524 . S
C3406 H3418 0.956 . S
C3406 H3419 0.961 . S
C3406 H3420 0.961 . S
C3407 C3404 1.552 . S
C3407 H3421 0.958 . S
C3407 H3422 0.961 . S
C3407 H3423 0.960 . S
H3408 C3392 0.931 . S
H3409 C3397 0.929 . S
H3410 C3398 0.960 . S
H3411 C3398 0.962 . S
H3412 C3398 0.960 . S
H3413 C3399 0.961 . S
H3414 C3399 0.961 . S
H3415 C3399 0.961 1_545 S
H3416 C3400 0.931 . S
H3417 C3405 0.930 . S
H3418 C3406 0.956 . S
H3419 C3406 0.961 . S
H3420 C3406 0.961 . S
H3421 C3407 0.958 . S
H3422 C3407 0.961 . S
H3423 C3407 0.960 . S
C3424 C3425 1.391 . S
C3424 C3426 1.394 . S
C3424 H3440 0.931 . S
C3425 C3424 1.391 . S
C3425 C3429 1.376 . S
C3426 C3424 1.394 . S
C3426 C3427 1.369 . S
C3426 C3430 1.531 . S
C3427 C3426 1.369 . S
C3427 C3428 1.410 . S
C3427 C3435 1.503 . S
C3428 C3427 1.410 . S
C3428 C3429 1.392 . S
C3428 C3431 1.511 . S
C3429 C3425 1.376 . S
C3429 C3428 1.392 . S
C3429 H3441 0.929 . S
C3430 C3426 1.531 . S
C3430 H3442 0.960 . S
C3430 H3443 0.962 . S
C3430 H3444 0.960 . S
C3431 C3428 1.511 . S
C3431 H3445 0.961 . S
C3431 H3446 0.961 . S
C3431 H3447 0.961 . S
C3432 C3433 1.370 . S
C3432 C3434 1.363 . S
C3432 H3448 0.931 . S
C3433 C3432 1.370 . S
C3433 C3437 1.408 . S
C3434 C3432 1.363 . S
C3434 C3435 1.370 . S
C3434 C3438 1.524 . S
C3435 C3427 1.503 . S
C3435 C3434 1.370 . S
C3435 C3436 1.403 . S
C3436 C3435 1.403 . S
C3436 C3437 1.404 . S
C3436 C3439 1.539 . S
C3437 C3433 1.408 . S
C3437 C3436 1.404 . S
C3437 H3449 0.930 . S
C3438 C3434 1.524 . S
C3438 H3450 0.956 . S
C3438 H3451 0.961 . S
C3438 H3452 0.961 . S
C3439 C3436 1.539 . S
C3439 H3453 0.958 . S
C3439 H3454 0.961 . S
C3439 H3455 0.960 . S
H3440 C3424 0.931 . S
H3441 C3429 0.929 . S
H3442 C3430 0.960 . S
H3443 C3430 0.962 . S
H3444 C3430 0.960 . S
H3445 C3431 0.961 . S
H3446 C3431 0.961 . S
H3447 C3431 0.961 . S
H3448 C3432 0.931 . S
H3449 C3437 0.930 . S
H3450 C3438 0.956 . S
H3451 C3438 0.961 . S
H3452 C3438 0.961 . S
H3453 C3439 0.958 . S
H3454 C3439 0.961 . S
H3455 C3439 0.960 . S
C3456 C3457 1.391 . S
C3456 C3458 1.394 . S
C3456 H3472 0.931 . S
C3457 C3456 1.391 . S
C3457 C3461 1.376 . S
C3458 C3456 1.394 . S
C3458 C3459 1.369 . S
C3458 C3462 1.531 . S
C3459 C3458 1.369 . S
C3459 C3460 1.410 . S
C3459 C3467 1.503 . S
C3460 C3459 1.410 . S
C3460 C3461 1.392 . S
C3460 C3463 1.511 . S
C3461 C3457 1.376 . S
C3461 C3460 1.392 . S
C3461 H3473 0.929 . S
C3462 C3458 1.531 . S
C3462 H3474 0.960 . S
C3462 H3475 0.962 . S
C3462 H3476 0.960 . S
C3463 C3460 1.511 . S
C3463 H3477 0.961 . S
C3463 H3478 0.961 . S
C3463 H3479 0.961 . S
C3464 C3465 1.370 . S
C3464 C3466 1.363 . S
C3464 H3480 0.931 . S
C3465 C3464 1.370 . S
C3465 C3469 1.408 . S
C3466 C3464 1.363 . S
C3466 C3467 1.370 . S
C3466 C3470 1.524 . S
C3467 C3459 1.503 . S
C3467 C3466 1.370 . S
C3467 C3468 1.403 . S
C3468 C3467 1.403 . S
C3468 C3469 1.404 . S
C3468 C3471 1.539 . S
C3469 C3465 1.408 . S
C3469 C3468 1.404 . S
C3469 H3481 0.930 . S
C3470 C3466 1.524 . S
C3470 H3482 0.956 . S
C3470 H3483 0.961 . S
C3470 H3484 0.961 . S
C3471 C3468 1.539 . S
C3471 H3485 0.958 . S
C3471 H3486 0.961 . S
C3471 H3487 0.960 . S
H3472 C3456 0.931 . S
H3473 C3461 0.929 . S
H3474 C3462 0.960 . S
H3475 C3462 0.962 . S
H3476 C3462 0.960 . S
H3477 C3463 0.961 . S
H3478 C3463 0.961 . S
H3479 C3463 0.961 . S
H3480 C3464 0.931 . S
H3481 C3469 0.930 . S
H3482 C3470 0.956 . S
H3483 C3470 0.961 . S
H3484 C3470 0.961 . S
H3485 C3471 0.958 . S
H3486 C3471 0.961 . S
H3487 C3471 0.960 . S
C3488 C3489 1.391 . S
C3488 C3490 1.394 . S
C3488 H3504 0.931 . S
C3489 C3488 1.391 . S
C3489 C3493 1.376 . S
C3490 C3488 1.394 . S
C3490 C3491 1.369 . S
C3490 C3494 1.531 . S
C3491 C3490 1.369 . S
C3491 C3492 1.410 . S
C3491 C3499 1.503 . S
C3492 C3491 1.410 . S
C3492 C3493 1.392 . S
C3492 C3495 1.511 . S
C3493 C3489 1.376 . S
C3493 C3492 1.392 . S
C3493 H3505 0.929 . S
C3494 C3490 1.531 . S
C3494 H3506 0.960 . S
C3494 H3507 0.962 . S
C3494 H3508 0.960 . S
C3495 C3492 1.511 . S
C3495 H3509 0.961 . S
C3495 H3510 0.961 . S
C3495 H3511 0.961 . S
C3496 C3497 1.370 . S
C3496 C3498 1.363 . S
C3496 H3512 0.931 . S
C3497 C3496 1.370 . S
C3497 C3501 1.408 . S
C3498 C3496 1.363 . S
C3498 C3499 1.370 . S
C3498 C3502 1.524 . S
C3499 C3491 1.503 . S
C3499 C3498 1.370 . S
C3499 C3500 1.403 . S
C3500 C3499 1.403 . S
C3500 C3501 1.404 . S
C3500 C3503 1.539 . S
C3501 C3497 1.408 . S
C3501 C3500 1.404 . S
C3501 H3513 0.930 . S
C3502 C3498 1.524 . S
C3502 H3514 0.956 . S
C3502 H3515 0.961 . S
C3502 H3516 0.961 . S
C3503 C3500 1.539 . S
C3503 H3517 0.958 . S
C3503 H3518 0.961 . S
C3503 H3519 0.960 . S
H3504 C3488 0.931 . S
H3505 C3493 0.929 . S
H3506 C3494 0.960 . S
H3507 C3494 0.962 . S
H3508 C3494 0.960 . S
H3509 C3495 0.961 . S
H3510 C3495 0.961 . S
H3511 C3495 0.961 . S
H3512 C3496 0.931 . S
H3513 C3501 0.930 . S
H3514 C3502 0.956 . S
H3515 C3502 0.961 . S
H3516 C3502 0.961 . S
H3517 C3503 0.958 . S
H3518 C3503 0.961 . S
H3519 C3503 0.960 . S
C3520 C3521 1.391 . S
C3520 C3522 1.394 . S
C3520 H3536 0.931 . S
C3521 C3520 1.391 . S
C3521 C3525 1.376 . S
C3522 C3520 1.394 . S
C3522 C3523 1.369 . S
C3522 C3526 1.531 . S
C3523 C3522 1.369 . S
C3523 C3524 1.410 . S
C3523 C3531 1.503 1_545 S
C3524 C3523 1.410 . S
C3524 C3525 1.392 . S
C3524 C3527 1.511 1_545 S
C3525 C3521 1.376 . S
C3525 C3524 1.392 . S
C3525 H3537 0.929 . S
C3526 C3522 1.531 . S
C3526 H3538 0.960 . S
C3526 H3539 0.962 . S
C3526 H3540 0.960 . S
C3527 C3524 1.511 1_565 S
C3527 H3541 0.961 . S
C3527 H3542 0.961 . S
C3527 H3543 0.961 . S
C3528 C3529 1.370 . S
C3528 C3530 1.363 . S
C3528 H3544 0.931 . S
C3529 C3528 1.370 . S
C3529 C3533 1.408 . S
C3530 C3528 1.363 . S
C3530 C3531 1.370 . S
C3530 C3534 1.524 1_565 S
C3531 C3523 1.503 1_565 S
C3531 C3530 1.370 . S
C3531 C3532 1.403 . S
C3532 C3531 1.403 . S
C3532 C3533 1.404 . S
C3532 C3535 1.539 . S
C3533 C3529 1.408 . S
C3533 C3532 1.404 . S
C3533 H3545 0.930 . S
C3534 C3530 1.524 1_545 S
C3534 H3546 0.956 . S
C3534 H3547 0.961 . S
C3534 H3548 0.961 . S
C3535 C3532 1.539 . S
C3535 H3549 0.958 . S
C3535 H3550 0.961 . S
C3535 H3551 0.960 . S
H3536 C3520 0.931 . S
H3537 C3525 0.929 . S
H3538 C3526 0.960 . S
H3539 C3526 0.962 . S
H3540 C3526 0.960 . S
H3541 C3527 0.961 . S
H3542 C3527 0.961 . S
H3543 C3527 0.961 . S
H3544 C3528 0.931 . S
H3545 C3533 0.930 . S
H3546 C3534 0.956 . S
H3547 C3534 0.961 . S
H3548 C3534 0.961 . S
H3549 C3535 0.958 . S
H3550 C3535 0.961 . S
H3551 C3535 0.960 . S
C3552 C3553 1.391 . S
C3552 C3554 1.394 . S
C3552 H3568 0.931 . S
C3553 C3552 1.391 . S
C3553 C3557 1.376 . S
C3554 C3552 1.394 . S
C3554 C3555 1.369 . S
C3554 C3558 1.531 1_655 S
C3555 C3554 1.369 . S
C3555 C3556 1.410 . S
C3555 C3563 1.503 1_655 S
C3556 C3555 1.410 . S
C3556 C3557 1.392 . S
C3556 C3559 1.511 . S
C3557 C3553 1.376 . S
C3557 C3556 1.392 . S
C3557 H3569 0.929 . S
C3558 C3554 1.531 1_455 S
C3558 H3570 0.960 . S
C3558 H3571 0.962 . S
C3558 H3572 0.960 . S
C3559 C3556 1.511 . S
C3559 H3573 0.961 . S
C3559 H3574 0.961 . S
C3559 H3575 0.961 . S
C3560 C3561 1.370 . S
C3560 C3562 1.363 . S
C3560 H3576 0.931 . S
C3561 C3560 1.370 . S
C3561 C3565 1.408 . S
C3562 C3560 1.363 . S
C3562 C3563 1.370 . S
C3562 C3566 1.524 . S
C3563 C3555 1.503 1_455 S
C3563 C3562 1.370 . S
C3563 C3564 1.403 . S
C3564 C3563 1.403 . S
C3564 C3565 1.404 . S
C3564 C3567 1.539 . S
C3565 C3561 1.408 . S
C3565 C3564 1.404 . S
C3565 H3577 0.930 . S
C3566 C3562 1.524 . S
C3566 H3578 0.956 . S
C3566 H3579 0.961 1_455 S
C3566 H3580 0.961 . S
C3567 C3564 1.539 . S
C3567 H3581 0.958 . S
C3567 H3582 0.961 . S
C3567 H3583 0.960 1_455 S
H3568 C3552 0.931 . S
H3569 C3557 0.929 . S
H3570 C3558 0.960 . S
H3571 C3558 0.962 . S
H3572 C3558 0.960 . S
H3573 C3559 0.961 . S
H3574 C3559 0.961 . S
H3575 C3559 0.961 . S
H3576 C3560 0.931 . S
H3577 C3565 0.930 . S
H3578 C3566 0.956 . S
H3579 C3566 0.961 1_655 S
H3580 C3566 0.961 . S
H3581 C3567 0.958 . S
H3582 C3567 0.961 . S
H3583 C3567 0.960 1_655 S
C3584 C3585 1.391 . S
C3584 C3586 1.394 . S
C3584 H3600 0.931 . S
C3585 C3584 1.391 . S
C3585 C3589 1.376 . S
C3586 C3584 1.394 . S
C3586 C3587 1.369 . S
C3586 C3590 1.531 1_655 S
C3587 C3586 1.369 . S
C3587 C3588 1.410 . S
C3587 C3595 1.503 1_655 S
C3588 C3587 1.410 . S
C3588 C3589 1.392 . S
C3588 C3591 1.511 . S
C3589 C3585 1.376 . S
C3589 C3588 1.392 . S
C3589 H3601 0.929 . S
C3590 C3586 1.531 1_455 S
C3590 H3602 0.960 . S
C3590 H3603 0.962 . S
C3590 H3604 0.960 . S
C3591 C3588 1.511 . S
C3591 H3605 0.961 . S
C3591 H3606 0.961 . S
C3591 H3607 0.961 . S
C3592 C3593 1.370 . S
C3592 C3594 1.363 . S
C3592 H3608 0.931 . S
C3593 C3592 1.370 . S
C3593 C3597 1.408 . S
C3594 C3592 1.363 . S
C3594 C3595 1.370 . S
C3594 C3598 1.524 . S
C3595 C3587 1.503 1_455 S
C3595 C3594 1.370 . S
C3595 C3596 1.403 . S
C3596 C3595 1.403 . S
C3596 C3597 1.404 . S
C3596 C3599 1.539 . S
C3597 C3593 1.408 . S
C3597 C3596 1.404 . S
C3597 H3609 0.930 . S
C3598 C3594 1.524 . S
C3598 H3610 0.956 . S
C3598 H3611 0.961 1_455 S
C3598 H3612 0.961 . S
C3599 C3596 1.539 . S
C3599 H3613 0.958 . S
C3599 H3614 0.961 . S
C3599 H3615 0.960 1_455 S
H3600 C3584 0.931 . S
H3601 C3589 0.929 . S
H3602 C3590 0.960 . S
H3603 C3590 0.962 . S
H3604 C3590 0.960 . S
H3605 C3591 0.961 . S
H3606 C3591 0.961 . S
H3607 C3591 0.961 . S
H3608 C3592 0.931 . S
H3609 C3597 0.930 . S
H3610 C3598 0.956 . S
H3611 C3598 0.961 1_655 S
H3612 C3598 0.961 . S
H3613 C3599 0.958 . S
H3614 C3599 0.961 . S
H3615 C3599 0.960 1_655 S
C3616 C3617 1.391 . S
C3616 C3618 1.394 . S
C3616 H3632 0.931 . S
C3617 C3616 1.391 . S
C3617 C3621 1.376 . S
C3618 C3616 1.394 . S
C3618 C3619 1.369 . S
C3618 C3622 1.531 . S
C3619 C3618 1.369 . S
C3619 C3620 1.410 . S
C3619 C3627 1.503 1_455 S
C3620 C3619 1.410 . S
C3620 C3621 1.392 . S
C3620 C3623 1.511 1_455 S
C3621 C3617 1.376 . S
C3621 C3620 1.392 . S
C3621 H3633 0.929 . S
C3622 C3618 1.531 . S
C3622 H3634 0.960 . S
C3622 H3635 0.962 . S
C3622 H3636 0.960 . S
C3623 C3620 1.511 1_655 S
C3623 H3637 0.961 . S
C3623 H3638 0.961 . S
C3623 H3639 0.961 . S
C3624 C3625 1.370 . S
C3624 C3626 1.363 . S
C3624 H3640 0.931 . S
C3625 C3624 1.370 . S
C3625 C3629 1.408 . S
C3626 C3624 1.363 . S
C3626 C3627 1.370 . S
C3626 C3630 1.524 . S
C3627 C3619 1.503 1_655 S
C3627 C3626 1.370 . S
C3627 C3628 1.403 . S
C3628 C3627 1.403 . S
C3628 C3629 1.404 . S
C3628 C3631 1.539 1_655 S
C3629 C3625 1.408 . S
C3629 C3628 1.404 . S
C3629 H3641 0.930 . S
C3630 C3626 1.524 . S
C3630 H3642 0.951 1_655 S
C3630 H3643 0.961 . S
C3630 H3644 0.961 . S
C3631 C3628 1.539 1_455 S
C3631 H3645 0.958 . S
C3631 H3646 0.961 1_455 S
C3631 H3647 0.960 . S
H3632 C3616 0.931 . S
H3633 C3621 0.929 . S
H3634 C3622 0.960 . S
H3635 C3622 0.962 . S
H3636 C3622 0.960 . S
H3637 C3623 0.961 . S
H3638 C3623 0.961 . S
H3639 C3623 0.961 . S
H3640 C3624 0.931 . S
H3641 C3629 0.930 . S
H3642 C3630 0.951 1_455 S
H3643 C3630 0.961 . S
H3644 C3630 0.961 . S
H3645 C3631 0.958 . S
H3646 C3631 0.961 1_655 S
H3647 C3631 0.960 . S
C3648 C3649 1.391 . S
C3648 C3650 1.394 . S
C3648 H3664 0.931 . S
C3649 C3648 1.391 . S
C3649 C3653 1.376 . S
C3650 C3648 1.394 . S
C3650 C3651 1.369 . S
C3650 C3654 1.531 . S
C3651 C3650 1.369 . S
C3651 C3652 1.410 . S
C3651 C3659 1.503 . S
C3652 C3651 1.410 . S
C3652 C3653 1.392 . S
C3652 C3655 1.511 . S
C3653 C3649 1.376 . S
C3653 C3652 1.392 . S
C3653 H3665 0.929 . S
C3654 C3650 1.531 . S
C3654 H3666 0.960 . S
C3654 H3667 0.962 . S
C3654 H3668 0.960 . S
C3655 C3652 1.511 . S
C3655 H3669 0.961 . S
C3655 H3670 0.961 . S
C3655 H3671 0.961 . S
C3656 C3657 1.370 . S
C3656 C3658 1.363 . S
C3656 H3672 0.931 . S
C3657 C3656 1.370 . S
C3657 C3661 1.408 . S
C3658 C3656 1.363 . S
C3658 C3659 1.370 . S
C3658 C3662 1.524 . S
C3659 C3651 1.503 . S
C3659 C3658 1.370 . S
C3659 C3660 1.403 . S
C3660 C3659 1.403 . S
C3660 C3661 1.404 . S
C3660 C3663 1.539 . S
C3661 C3657 1.408 . S
C3661 C3660 1.404 . S
C3661 H3673 0.930 . S
C3662 C3658 1.524 . S
C3662 H3674 0.956 . S
C3662 H3675 0.961 . S
C3662 H3676 0.961 . S
C3663 C3660 1.539 . S
C3663 H3677 0.958 . S
C3663 H3678 0.961 . S
C3663 H3679 0.960 . S
H3664 C3648 0.931 . S
H3665 C3653 0.929 . S
H3666 C3654 0.960 . S
H3667 C3654 0.962 . S
H3668 C3654 0.960 . S
H3669 C3655 0.961 . S
H3670 C3655 0.961 . S
H3671 C3655 0.961 . S
H3672 C3656 0.931 . S
H3673 C3661 0.930 . S
H3674 C3662 0.956 . S
H3675 C3662 0.961 . S
H3676 C3662 0.961 . S
H3677 C3663 0.958 . S
H3678 C3663 0.961 . S
H3679 C3663 0.960 . S
C3680 C3681 1.391 . S
C3680 C3682 1.394 . S
C3680 H3696 0.931 . S
C3681 C3680 1.391 . S
C3681 C3685 1.376 . S
C3682 C3680 1.394 . S
C3682 C3683 1.369 . S
C3682 C3686 1.531 . S
C3683 C3682 1.369 . S
C3683 C3684 1.410 . S
C3683 C3691 1.503 . S
C3684 C3683 1.410 . S
C3684 C3685 1.392 . S
C3684 C3687 1.511 . S
C3685 C3681 1.376 . S
C3685 C3684 1.392 . S
C3685 H3697 0.929 . S
C3686 C3682 1.531 . S
C3686 H3698 0.960 . S
C3686 H3699 0.962 . S
C3686 H3700 0.960 . S
C3687 C3684 1.511 . S
C3687 H3701 0.961 . S
C3687 H3702 0.961 . S
C3687 H3703 0.961 . S
C3688 C3689 1.370 . S
C3688 C3690 1.363 . S
C3688 H3704 0.931 . S
C3689 C3688 1.370 . S
C3689 C3693 1.408 . S
C3690 C3688 1.363 . S
C3690 C3691 1.370 . S
C3690 C3694 1.524 . S
C3691 C3683 1.503 . S
C3691 C3690 1.370 . S
C3691 C3692 1.403 . S
C3692 C3691 1.403 . S
C3692 C3693 1.404 . S
C3692 C3695 1.539 . S
C3693 C3689 1.408 . S
C3693 C3692 1.404 . S
C3693 H3705 0.930 . S
C3694 C3690 1.524 . S
C3694 H3706 0.956 . S
C3694 H3707 0.961 . S
C3694 H3708 0.961 . S
C3695 C3692 1.539 . S
C3695 H3709 0.958 . S
C3695 H3710 0.961 . S
C3695 H3711 0.960 . S
H3696 C3680 0.931 . S
H3697 C3685 0.929 . S
H3698 C3686 0.960 . S
H3699 C3686 0.962 . S
H3700 C3686 0.960 . S
H3701 C3687 0.961 . S
H3702 C3687 0.961 . S
H3703 C3687 0.961 . S
H3704 C3688 0.931 . S
H3705 C3693 0.930 . S
H3706 C3694 0.956 . S
H3707 C3694 0.961 . S
H3708 C3694 0.961 . S
H3709 C3695 0.958 . S
H3710 C3695 0.961 . S
H3711 C3695 0.960 . S
C3712 C3713 1.391 . S
C3712 C3714 1.380 1_655 S
C3712 H3728 0.931 . S
C3713 C3712 1.391 . S
C3713 C3717 1.376 . S
C3714 C3712 1.380 1_455 S
C3714 C3715 1.361 1_455 S
C3714 C3718 1.553 . S
C3715 C3714 1.361 1_655 S
C3715 C3716 1.410 . S
C3715 C3723 1.503 1_655 S
C3716 C3715 1.410 . S
C3716 C3717 1.392 . S
C3716 C3719 1.511 . S
C3717 C3713 1.376 . S
C3717 C3716 1.392 . S
C3717 H3729 0.929 . S
C3718 C3714 1.553 . S
C3718 H3730 0.960 . S
C3718 H3731 0.962 . S
C3718 H3732 0.960 . S
C3719 C3716 1.511 . S
C3719 H3733 0.961 . S
C3719 H3734 0.961 . S
C3719 H3735 0.961 . S
C3720 C3721 1.370 . S
C3720 C3722 1.363 . S
C3720 H3736 0.931 . S
C3721 C3720 1.370 . S
C3721 C3725 1.408 . S
C3722 C3720 1.363 . S
C3722 C3723 1.370 . S
C3722 C3726 1.524 . S
C3723 C3715 1.503 1_455 S
C3723 C3722 1.370 . S
C3723 C3724 1.403 . S
C3724 C3723 1.403 . S
C3724 C3725 1.404 . S
C3724 C3727 1.539 . S
C3725 C3721 1.408 . S
C3725 C3724 1.404 . S
C3725 H3737 0.930 . S
C3726 C3722 1.524 . S
C3726 H3738 0.956 . S
C3726 H3739 0.961 1_455 S
C3726 H3740 0.961 . S
C3727 C3724 1.539 . S
C3727 H3741 0.958 . S
C3727 H3742 0.961 . S
C3727 H3743 0.960 1_455 S
H3728 C3712 0.931 . S
H3729 C3717 0.929 . S
H3730 C3718 0.960 . S
H3731 C3718 0.962 . S
H3732 C3718 0.960 . S
H3733 C3719 0.961 . S
H3734 C3719 0.961 . S
H3735 C3719 0.961 . S
H3736 C3720 0.931 . S
H3737 C3725 0.930 . S
H3738 C3726 0.956 . S
H3739 C3726 0.961 1_655 S
H3740 C3726 0.961 . S
H3741 C3727 0.958 . S
H3742 C3727 0.961 . S
H3743 C3727 0.960 1_655 S
C3744 C3745 1.391 . S
C3744 C3746 1.394 . S
C3744 H3760 0.931 . S
C3745 C3744 1.391 . S
C3745 C3749 1.376 . S
C3746 C3744 1.394 . S
C3746 C3747 1.369 . S
C3746 C3750 1.531 . S
C3747 C3746 1.369 . S
C3747 C3748 1.410 . S
C3747 C3755 1.503 . S
C3748 C3747 1.410 . S
C3748 C3749 1.392 . S
C3748 C3751 1.511 . S
C3749 C3745 1.376 . S
C3749 C3748 1.392 . S
C3749 H3761 0.929 . S
C3750 C3746 1.531 . S
C3750 H3762 0.960 . S
C3750 H3763 0.962 . S
C3750 H3764 0.960 . S
C3751 C3748 1.511 . S
C3751 H3765 0.961 . S
C3751 H3766 0.961 . S
C3751 H3767 0.961 . S
C3752 C3753 1.370 . S
C3752 C3754 1.363 . S
C3752 H3768 0.931 . S
C3753 C3752 1.370 . S
C3753 C3757 1.408 . S
C3754 C3752 1.363 . S
C3754 C3755 1.370 . S
C3754 C3758 1.524 . S
C3755 C3747 1.503 . S
C3755 C3754 1.370 . S
C3755 C3756 1.403 . S
C3756 C3755 1.403 . S
C3756 C3757 1.404 . S
C3756 C3759 1.539 . S
C3757 C3753 1.408 . S
C3757 C3756 1.404 . S
C3757 H3769 0.930 . S
C3758 C3754 1.524 . S
C3758 H3770 0.956 . S
C3758 H3771 0.961 . S
C3758 H3772 0.961 . S
C3759 C3756 1.539 . S
C3759 H3773 0.958 . S
C3759 H3774 0.961 . S
C3759 H3775 0.960 . S
H3760 C3744 0.931 . S
H3761 C3749 0.929 . S
H3762 C3750 0.960 . S
H3763 C3750 0.962 . S
H3764 C3750 0.960 . S
H3765 C3751 0.961 . S
H3766 C3751 0.961 . S
H3767 C3751 0.961 . S
H3768 C3752 0.931 . S
H3769 C3757 0.930 . S
H3770 C3758 0.956 . S
H3771 C3758 0.961 . S
H3772 C3758 0.961 . S
H3773 C3759 0.958 . S
H3774 C3759 0.961 . S
H3775 C3759 0.960 . S
C3776 C3777 1.391 . S
C3776 C3778 1.394 . S
C3776 H3792 0.931 . S
C3777 C3776 1.391 . S
C3777 C3781 1.376 . S
C3778 C3776 1.394 . S
C3778 C3779 1.369 . S
C3778 C3782 1.531 . S
C3779 C3778 1.369 . S
C3779 C3780 1.410 . S
C3779 C3787 1.503 . S
C3780 C3779 1.410 . S
C3780 C3781 1.392 . S
C3780 C3783 1.511 . S
C3781 C3777 1.376 . S
C3781 C3780 1.392 . S
C3781 H3793 0.929 . S
C3782 C3778 1.531 . S
C3782 H3794 0.960 . S
C3782 H3795 0.962 . S
C3782 H3796 0.960 . S
C3783 C3780 1.511 . S
C3783 H3797 0.961 . S
C3783 H3798 0.961 . S
C3783 H3799 0.961 . S
C3784 C3785 1.370 . S
C3784 C3786 1.363 . S
C3784 H3800 0.931 . S
C3785 C3784 1.370 . S
C3785 C3789 1.408 . S
C3786 C3784 1.363 . S
C3786 C3787 1.370 . S
C3786 C3790 1.524 . S
C3787 C3779 1.503 . S
C3787 C3786 1.370 . S
C3787 C3788 1.403 . S
C3788 C3787 1.403 . S
C3788 C3789 1.404 . S
C3788 C3791 1.539 . S
C3789 C3785 1.408 . S
C3789 C3788 1.404 . S
C3789 H3801 0.930 . S
C3790 C3786 1.524 . S
C3790 H3802 0.956 . S
C3790 H3803 0.961 . S
C3790 H3804 0.961 . S
C3791 C3788 1.539 . S
C3791 H3805 0.958 . S
C3791 H3806 0.961 . S
C3791 H3807 0.960 . S
H3792 C3776 0.931 . S
H3793 C3781 0.929 . S
H3794 C3782 0.960 . S
H3795 C3782 0.962 . S
H3796 C3782 0.960 . S
H3797 C3783 0.961 . S
H3798 C3783 0.961 . S
H3799 C3783 0.961 . S
H3800 C3784 0.931 . S
H3801 C3789 0.930 . S
H3802 C3790 0.956 . S
H3803 C3790 0.961 . S
H3804 C3790 0.961 . S
H3805 C3791 0.958 . S
H3806 C3791 0.961 . S
H3807 C3791 0.960 . S
C3808 C3809 1.391 . S
C3808 C3810 1.394 . S
C3808 H3824 0.931 . S
C3809 C3808 1.391 . S
C3809 C3813 1.376 . S
C3810 C3808 1.394 . S
C3810 C3811 1.369 . S
C3810 C3814 1.531 . S
C3811 C3810 1.369 . S
C3811 C3812 1.410 . S
C3811 C3819 1.503 1_565 S
C3812 C3811 1.410 . S
C3812 C3813 1.392 . S
C3812 C3815 1.512 . S
C3813 C3809 1.376 . S
C3813 C3812 1.392 . S
C3813 H3825 0.929 . S
C3814 C3810 1.531 . S
C3814 H3826 0.960 . S
C3814 H3827 0.962 . S
C3814 H3828 0.960 . S
C3815 C3812 1.512 . S
C3815 H3829 0.960 1_565 S
C3815 H3830 0.960 1_565 S
C3815 H3831 0.961 . S
C3816 C3817 1.370 . S
C3816 C3818 1.363 . S
C3816 H3832 0.931 . S
C3817 C3816 1.370 . S
C3817 C3821 1.408 . S
C3818 C3816 1.363 . S
C3818 C3819 1.370 . S
C3818 C3822 1.524 . S
C3819 C3811 1.503 1_545 S
C3819 C3818 1.370 . S
C3819 C3820 1.403 . S
C3820 C3819 1.403 . S
C3820 C3821 1.404 . S
C3820 C3823 1.539 1_545 S
C3821 C3817 1.408 . S
C3821 C3820 1.404 . S
C3821 H3833 0.930 . S
C3822 C3818 1.524 . S
C3822 H3834 0.956 . S
C3822 H3835 0.961 . S
C3822 H3836 0.961 . S
C3823 C3820 1.539 1_565 S
C3823 H3837 0.958 . S
C3823 H3838 0.961 . S
C3823 H3839 0.960 . S
H3824 C3808 0.931 . S
H3825 C3813 0.929 . S
H3826 C3814 0.960 . S
H3827 C3814 0.962 . S
H3828 C3814 0.960 . S
H3829 C3815 0.960 1_545 S
H3830 C3815 0.960 1_545 S
H3831 C3815 0.961 . S
H3832 C3816 0.931 . S
H3833 C3821 0.930 . S
H3834 C3822 0.956 . S
H3835 C3822 0.961 . S
H3836 C3822 0.961 . S
H3837 C3823 0.958 . S
H3838 C3823 0.961 . S
H3839 C3823 0.960 . S
C3840 C3841 1.391 . S
C3840 C3842 1.394 . S
C3840 H3856 0.931 . S
C3841 C3840 1.391 . S
C3841 C3845 1.376 . S
C3842 C3840 1.394 . S
C3842 C3843 1.369 . S
C3842 C3846 1.531 . S
C3843 C3842 1.369 . S
C3843 C3844 1.410 . S
C3843 C3851 1.503 . S
C3844 C3843 1.410 . S
C3844 C3845 1.392 . S
C3844 C3847 1.511 . S
C3845 C3841 1.376 . S
C3845 C3844 1.392 . S
C3845 H3857 0.929 . S
C3846 C3842 1.531 . S
C3846 H3858 0.960 . S
C3846 H3859 0.962 . S
C3846 H3860 0.960 . S
C3847 C3844 1.511 . S
C3847 H3861 0.961 . S
C3847 H3862 0.961 . S
C3847 H3863 0.961 . S
C3848 C3849 1.370 . S
C3848 C3850 1.363 . S
C3848 H3864 0.931 . S
C3849 C3848 1.370 . S
C3849 C3853 1.408 . S
C3850 C3848 1.363 . S
C3850 C3851 1.370 . S
C3850 C3854 1.524 . S
C3851 C3843 1.503 . S
C3851 C3850 1.370 . S
C3851 C3852 1.403 . S
C3852 C3851 1.403 . S
C3852 C3853 1.404 . S
C3852 C3855 1.539 . S
C3853 C3849 1.408 . S
C3853 C3852 1.404 . S
C3853 H3865 0.930 . S
C3854 C3850 1.524 . S
C3854 H3866 0.956 . S
C3854 H3867 0.961 . S
C3854 H3868 0.961 . S
C3855 C3852 1.539 . S
C3855 H3869 0.958 . S
C3855 H3870 0.961 . S
C3855 H3871 0.960 . S
H3856 C3840 0.931 . S
H3857 C3845 0.929 . S
H3858 C3846 0.960 . S
H3859 C3846 0.962 . S
H3860 C3846 0.960 . S
H3861 C3847 0.961 . S
H3862 C3847 0.961 . S
H3863 C3847 0.961 . S
H3864 C3848 0.931 . S
H3865 C3853 0.930 . S
H3866 C3854 0.956 . S
H3867 C3854 0.961 . S
H3868 C3854 0.961 . S
H3869 C3855 0.958 . S
H3870 C3855 0.961 . S
H3871 C3855 0.960 . S
C3872 C3873 1.391 . S
C3872 C3874 1.394 . S
C3872 H3888 0.931 . S
C3873 C3872 1.391 . S
C3873 C3877 1.376 . S
C3874 C3872 1.394 . S
C3874 C3875 1.369 . S
C3874 C3878 1.531 . S
C3875 C3874 1.369 . S
C3875 C3876 1.410 . S
C3875 C3883 1.503 . S
C3876 C3875 1.410 . S
C3876 C3877 1.392 . S
C3876 C3879 1.511 . S
C3877 C3873 1.376 . S
C3877 C3876 1.392 . S
C3877 H3889 0.929 . S
C3878 C3874 1.531 . S
C3878 H3890 0.960 . S
C3878 H3891 0.962 . S
C3878 H3892 0.960 . S
C3879 C3876 1.511 . S
C3879 H3893 0.961 . S
C3879 H3894 0.961 . S
C3879 H3895 0.961 . S
C3880 C3881 1.370 . S
C3880 C3882 1.363 . S
C3880 H3896 0.931 . S
C3881 C3880 1.370 . S
C3881 C3885 1.408 . S
C3882 C3880 1.363 . S
C3882 C3883 1.370 . S
C3882 C3886 1.524 . S
C3883 C3875 1.503 . S
C3883 C3882 1.370 . S
C3883 C3884 1.403 . S
C3884 C3883 1.403 . S
C3884 C3885 1.404 . S
C3884 C3887 1.539 . S
C3885 C3881 1.408 . S
C3885 C3884 1.404 . S
C3885 H3897 0.930 . S
C3886 C3882 1.524 . S
C3886 H3898 0.956 . S
C3886 H3899 0.961 . S
C3886 H3900 0.961 . S
C3887 C3884 1.539 . S
C3887 H3901 0.958 . S
C3887 H3902 0.961 . S
C3887 H3903 0.960 . S
H3888 C3872 0.931 . S
H3889 C3877 0.929 . S
H3890 C3878 0.960 . S
H3891 C3878 0.962 . S
H3892 C3878 0.960 . S
H3893 C3879 0.961 . S
H3894 C3879 0.961 . S
H3895 C3879 0.961 . S
H3896 C3880 0.931 . S
H3897 C3885 0.930 . S
H3898 C3886 0.956 . S
H3899 C3886 0.961 . S
H3900 C3886 0.961 . S
H3901 C3887 0.958 . S
H3902 C3887 0.961 . S
H3903 C3887 0.960 . S
C3904 C3905 1.391 . S
C3904 C3906 1.394 . S
C3904 H3920 0.931 . S
C3905 C3904 1.391 . S
C3905 C3909 1.376 . S
C3906 C3904 1.394 . S
C3906 C3907 1.369 . S
C3906 C3910 1.531 . S
C3907 C3906 1.369 . S
C3907 C3908 1.410 . S
C3907 C3915 1.503 . S
C3908 C3907 1.410 . S
C3908 C3909 1.392 . S
C3908 C3911 1.511 . S
C3909 C3905 1.376 . S
C3909 C3908 1.392 . S
C3909 H3921 0.929 . S
C3910 C3906 1.531 . S
C3910 H3922 0.960 . S
C3910 H3923 0.962 . S
C3910 H3924 0.960 . S
C3911 C3908 1.511 . S
C3911 H3925 0.961 . S
C3911 H3926 0.961 . S
C3911 H3927 0.961 . S
C3912 C3913 1.370 . S
C3912 C3914 1.363 . S
C3912 H3928 0.931 . S
C3913 C3912 1.370 . S
C3913 C3917 1.408 . S
C3914 C3912 1.363 . S
C3914 C3915 1.370 . S
C3914 C3918 1.524 . S
C3915 C3907 1.503 . S
C3915 C3914 1.370 . S
C3915 C3916 1.403 . S
C3916 C3915 1.403 . S
C3916 C3917 1.404 . S
C3916 C3919 1.539 . S
C3917 C3913 1.408 . S
C3917 C3916 1.404 . S
C3917 H3929 0.930 . S
C3918 C3914 1.524 . S
C3918 H3930 0.956 . S
C3918 H3931 0.961 . S
C3918 H3932 0.961 . S
C3919 C3916 1.539 . S
C3919 H3933 0.958 . S
C3919 H3934 0.961 . S
C3919 H3935 0.960 . S
H3920 C3904 0.931 . S
H3921 C3909 0.929 . S
H3922 C3910 0.960 . S
H3923 C3910 0.962 . S
H3924 C3910 0.960 . S
H3925 C3911 0.961 . S
H3926 C3911 0.961 . S
H3927 C3911 0.961 . S
H3928 C3912 0.931 . S
H3929 C3917 0.930 . S
H3930 C3918 0.956 . S
H3931 C3918 0.961 . S
H3932 C3918 0.961 . S
H3933 C3919 0.958 . S
H3934 C3919 0.961 . S
H3935 C3919 0.960 . S
C3936 C3937 1.391 . S
C3936 C3938 1.394 . S
C3936 H3952 0.931 . S
C3937 C3936 1.391 . S
C3937 C3941 1.376 . S
C3938 C3936 1.394 . S
C3938 C3939 1.369 . S
C3938 C3942 1.531 . S
C3939 C3938 1.369 . S
C3939 C3940 1.410 . S
C3939 C3947 1.503 . S
C3940 C3939 1.410 . S
C3940 C3941 1.392 . S
C3940 C3943 1.511 . S
C3941 C3937 1.376 . S
C3941 C3940 1.392 . S
C3941 H3953 0.929 . S
C3942 C3938 1.531 . S
C3942 H3954 0.960 . S
C3942 H3955 0.962 . S
C3942 H3956 0.960 . S
C3943 C3940 1.511 . S
C3943 H3957 0.961 . S
C3943 H3958 0.961 . S
C3943 H3959 0.961 . S
C3944 C3945 1.370 . S
C3944 C3946 1.363 . S
C3944 H3960 0.931 . S
C3945 C3944 1.370 . S
C3945 C3949 1.408 . S
C3946 C3944 1.363 . S
C3946 C3947 1.370 . S
C3946 C3950 1.524 . S
C3947 C3939 1.503 . S
C3947 C3946 1.370 . S
C3947 C3948 1.403 . S
C3948 C3947 1.403 . S
C3948 C3949 1.404 . S
C3948 C3951 1.539 . S
C3949 C3945 1.408 . S
C3949 C3948 1.404 . S
C3949 H3961 0.930 . S
C3950 C3946 1.524 . S
C3950 H3962 0.956 . S
C3950 H3963 0.961 . S
C3950 H3964 0.961 . S
C3951 C3948 1.539 . S
C3951 H3965 0.958 . S
C3951 H3966 0.961 . S
C3951 H3967 0.960 . S
H3952 C3936 0.931 . S
H3953 C3941 0.929 . S
H3954 C3942 0.960 . S
H3955 C3942 0.962 . S
H3956 C3942 0.960 . S
H3957 C3943 0.961 . S
H3958 C3943 0.961 . S
H3959 C3943 0.961 . S
H3960 C3944 0.931 . S
H3961 C3949 0.930 . S
H3962 C3950 0.956 . S
H3963 C3950 0.961 . S
H3964 C3950 0.961 . S
H3965 C3951 0.958 . S
H3966 C3951 0.961 . S
H3967 C3951 0.960 . S
C3968 C3969 1.391 . S
C3968 C3970 1.394 . S
C3968 H3984 0.931 . S
C3969 C3968 1.391 . S
C3969 C3973 1.376 . S
C3970 C3968 1.394 . S
C3970 C3971 1.369 . S
C3970 C3974 1.531 . S
C3971 C3970 1.369 . S
C3971 C3972 1.410 . S
C3971 C3979 1.503 . S
C3972 C3971 1.410 . S
C3972 C3973 1.392 . S
C3972 C3975 1.511 . S
C3973 C3969 1.376 . S
C3973 C3972 1.392 . S
C3973 H3985 0.929 . S
C3974 C3970 1.531 . S
C3974 H3986 0.960 . S
C3974 H3987 0.962 . S
C3974 H3988 0.960 . S
C3975 C3972 1.511 . S
C3975 H3989 0.961 . S
C3975 H3990 0.961 . S
C3975 H3991 0.961 . S
C3976 C3977 1.370 . S
C3976 C3978 1.363 . S
C3976 H3992 0.931 . S
C3977 C3976 1.370 . S
C3977 C3981 1.408 . S
C3978 C3976 1.363 . S
C3978 C3979 1.370 . S
C3978 C3982 1.524 . S
C3979 C3971 1.503 . S
C3979 C3978 1.370 . S
C3979 C3980 1.403 . S
C3980 C3979 1.403 . S
C3980 C3981 1.404 . S
C3980 C3983 1.539 . S
C3981 C3977 1.408 . S
C3981 C3980 1.404 . S
C3981 H3993 0.930 . S
C3982 C3978 1.524 . S
C3982 H3994 0.956 . S
C3982 H3995 0.961 . S
C3982 H3996 0.961 . S
C3983 C3980 1.539 . S
C3983 H3997 0.958 . S
C3983 H3998 0.961 . S
C3983 H3999 0.960 . S
H3984 C3968 0.931 . S
H3985 C3973 0.929 . S
H3986 C3974 0.960 . S
H3987 C3974 0.962 . S
H3988 C3974 0.960 . S
H3989 C3975 0.961 . S
H3990 C3975 0.961 . S
H3991 C3975 0.961 . S
H3992 C3976 0.931 . S
H3993 C3981 0.930 . S
H3994 C3982 0.956 . S
H3995 C3982 0.961 . S
H3996 C3982 0.961 . S
H3997 C3983 0.958 . S
H3998 C3983 0.961 . S
H3999 C3983 0.960 . S
C4000 C4001 1.391 . S
C4000 C4002 1.394 . S
C4000 H4016 0.931 . S
C4001 C4000 1.391 . S
C4001 C4005 1.376 . S
C4002 C4000 1.394 . S
C4002 C4003 1.369 . S
C4002 C4006 1.531 . S
C4003 C4002 1.369 . S
C4003 C4004 1.410 . S
C4003 C4011 1.503 . S
C4004 C4003 1.410 . S
C4004 C4005 1.392 . S
C4004 C4007 1.511 . S
C4005 C4001 1.376 . S
C4005 C4004 1.392 . S
C4005 H4017 0.929 . S
C4006 C4002 1.531 . S
C4006 H4018 0.960 . S
C4006 H4019 0.962 . S
C4006 H4020 0.960 . S
C4007 C4004 1.511 . S
C4007 H4021 0.961 . S
C4007 H4022 0.961 . S
C4007 H4023 0.961 . S
C4008 C4009 1.370 . S
C4008 C4010 1.363 . S
C4008 H4024 0.931 . S
C4009 C4008 1.370 . S
C4009 C4013 1.408 . S
C4010 C4008 1.363 . S
C4010 C4011 1.370 . S
C4010 C4014 1.524 . S
C4011 C4003 1.503 . S
C4011 C4010 1.370 . S
C4011 C4012 1.403 . S
C4012 C4011 1.403 . S
C4012 C4013 1.404 . S
C4012 C4015 1.539 . S
C4013 C4009 1.408 . S
C4013 C4012 1.404 . S
C4013 H4025 0.930 . S
C4014 C4010 1.524 . S
C4014 H4026 0.956 . S
C4014 H4027 0.961 . S
C4014 H4028 0.961 . S
C4015 C4012 1.539 . S
C4015 H4029 0.958 . S
C4015 H4030 0.961 . S
C4015 H4031 0.960 . S
H4016 C4000 0.931 . S
H4017 C4005 0.929 . S
H4018 C4006 0.960 . S
H4019 C4006 0.962 . S
H4020 C4006 0.960 . S
H4021 C4007 0.961 . S
H4022 C4007 0.961 . S
H4023 C4007 0.961 . S
H4024 C4008 0.931 . S
H4025 C4013 0.930 . S
H4026 C4014 0.956 . S
H4027 C4014 0.961 . S
H4028 C4014 0.961 . S
H4029 C4015 0.958 . S
H4030 C4015 0.961 . S
H4031 C4015 0.960 . S
C4032 C4033 1.391 . S
C4032 C4034 1.394 . S
C4032 H4048 0.931 . S
C4033 C4032 1.391 . S
C4033 C4037 1.376 . S
C4034 C4032 1.394 . S
C4034 C4035 1.369 . S
C4034 C4038 1.531 . S
C4035 C4034 1.369 . S
C4035 C4036 1.410 . S
C4035 C4043 1.503 . S
C4036 C4035 1.410 . S
C4036 C4037 1.392 . S
C4036 C4039 1.511 . S
C4037 C4033 1.376 . S
C4037 C4036 1.392 . S
C4037 H4049 0.929 . S
C4038 C4034 1.531 . S
C4038 H4050 0.960 . S
C4038 H4051 0.962 . S
C4038 H4052 0.960 . S
C4039 C4036 1.511 . S
C4039 H4053 0.961 . S
C4039 H4054 0.961 . S
C4039 H4055 0.961 . S
C4040 C4041 1.370 . S
C4040 C4042 1.363 . S
C4040 H4056 0.931 . S
C4041 C4040 1.370 . S
C4041 C4045 1.408 . S
C4042 C4040 1.363 . S
C4042 C4043 1.370 . S
C4042 C4046 1.524 . S
C4043 C4035 1.503 . S
C4043 C4042 1.370 . S
C4043 C4044 1.403 . S
C4044 C4043 1.403 . S
C4044 C4045 1.404 . S
C4044 C4047 1.539 . S
C4045 C4041 1.408 . S
C4045 C4044 1.404 . S
C4045 H4057 0.930 . S
C4046 C4042 1.524 . S
C4046 H4058 0.956 . S
C4046 H4059 0.961 . S
C4046 H4060 0.961 . S
C4047 C4044 1.539 . S
C4047 H4061 0.958 . S
C4047 H4062 0.961 . S
C4047 H4063 0.960 . S
H4048 C4032 0.931 . S
H4049 C4037 0.929 . S
H4050 C4038 0.960 . S
H4051 C4038 0.962 . S
H4052 C4038 0.960 . S
H4053 C4039 0.961 . S
H4054 C4039 0.961 . S
H4055 C4039 0.961 . S
H4056 C4040 0.931 . S
H4057 C4045 0.930 . S
H4058 C4046 0.956 . S
H4059 C4046 0.961 . S
H4060 C4046 0.961 . S
H4061 C4047 0.958 . S
H4062 C4047 0.961 . S
H4063 C4047 0.960 . S
C4064 C4065 1.391 . S
C4064 C4066 1.394 . S
C4064 H4080 0.931 . S
C4065 C4064 1.391 . S
C4065 C4069 1.376 . S
C4066 C4064 1.394 . S
C4066 C4067 1.369 . S
C4066 C4070 1.531 . S
C4067 C4066 1.369 . S
C4067 C4068 1.410 . S
C4067 C4075 1.503 . S
C4068 C4067 1.410 . S
C4068 C4069 1.392 . S
C4068 C4071 1.511 . S
C4069 C4065 1.376 . S
C4069 C4068 1.392 . S
C4069 H4081 0.929 . S
C4070 C4066 1.531 . S
C4070 H4082 0.960 . S
C4070 H4083 0.962 . S
C4070 H4084 0.960 . S
C4071 C4068 1.511 . S
C4071 H4085 0.961 . S
C4071 H4086 0.961 . S
C4071 H4087 0.961 . S
C4072 C4073 1.370 . S
C4072 C4074 1.363 . S
C4072 H4088 0.931 . S
C4073 C4072 1.370 . S
C4073 C4077 1.408 . S
C4074 C4072 1.363 . S
C4074 C4075 1.370 . S
C4074 C4078 1.524 . S
C4075 C4067 1.503 . S
C4075 C4074 1.370 . S
C4075 C4076 1.403 . S
C4076 C4075 1.403 . S
C4076 C4077 1.404 . S
C4076 C4079 1.539 . S
C4077 C4073 1.408 . S
C4077 C4076 1.404 . S
C4077 H4089 0.930 . S
C4078 C4074 1.524 . S
C4078 H4090 0.956 . S
C4078 H4091 0.961 . S
C4078 H4092 0.961 . S
C4079 C4076 1.539 . S
C4079 H4093 0.958 . S
C4079 H4094 0.961 . S
C4079 H4095 0.960 . S
H4080 C4064 0.931 . S
H4081 C4069 0.929 . S
H4082 C4070 0.960 . S
H4083 C4070 0.962 . S
H4084 C4070 0.960 . S
H4085 C4071 0.961 . S
H4086 C4071 0.961 . S
H4087 C4071 0.961 . S
H4088 C4072 0.931 . S
H4089 C4077 0.930 . S
H4090 C4078 0.956 . S
H4091 C4078 0.961 . S
H4092 C4078 0.961 . S
H4093 C4079 0.958 . S
H4094 C4079 0.961 . S
H4095 C4079 0.960 . S
C4096 C4097 1.391 . S
C4096 C4098 1.394 . S
C4096 H4112 0.931 . S
C4097 C4096 1.391 . S
C4097 C4101 1.376 . S
C4098 C4096 1.394 . S
C4098 C4099 1.369 1_655 S
C4098 C4102 1.531 1_655 S
C4099 C4098 1.369 1_455 S
C4099 C4100 1.410 . S
C4099 C4107 1.503 . S
C4100 C4099 1.410 . S
C4100 C4101 1.392 1_455 S
C4100 C4103 1.511 . S
C4101 C4097 1.376 . S
C4101 C4100 1.392 1_655 S
C4101 H4113 0.929 . S
C4102 C4098 1.531 1_455 S
C4102 H4114 0.960 . S
C4102 H4115 0.962 . S
C4102 H4116 0.960 1_455 S
C4103 C4100 1.511 . S
C4103 H4117 0.961 . S
C4103 H4118 0.961 . S
C4103 H4119 0.961 . S
C4104 C4105 1.370 . S
C4104 C4106 1.363 . S
C4104 H4120 0.931 . S
C4105 C4104 1.370 . S
C4105 C4109 1.408 . S
C4106 C4104 1.363 . S
C4106 C4107 1.370 . S
C4106 C4110 1.524 . S
C4107 C4099 1.503 . S
C4107 C4106 1.370 . S
C4107 C4108 1.403 . S
C4108 C4107 1.403 . S
C4108 C4109 1.404 . S
C4108 C4111 1.539 . S
C4109 C4105 1.408 . S
C4109 C4108 1.404 . S
C4109 H4121 0.930 . S
C4110 C4106 1.524 . S
C4110 H4122 0.956 . S
C4110 H4123 0.961 . S
C4110 H4124 0.961 . S
C4111 C4108 1.539 . S
C4111 H4125 0.958 . S
C4111 H4126 0.961 . S
C4111 H4127 0.960 . S
H4112 C4096 0.931 . S
H4113 C4101 0.929 . S
H4114 C4102 0.960 . S
H4115 C4102 0.962 . S
H4116 C4102 0.960 1_655 S
H4117 C4103 0.961 . S
H4118 C4103 0.961 . S
H4119 C4103 0.961 . S
H4120 C4104 0.931 . S
H4121 C4109 0.930 . S
H4122 C4110 0.956 . S
H4123 C4110 0.961 . S
H4124 C4110 0.961 . S
H4125 C4111 0.958 . S
H4126 C4111 0.961 . S
H4127 C4111 0.960 . S
C4128 C4129 1.391 . S
C4128 C4130 1.394 . S
C4128 H4144 0.931 . S
C4129 C4128 1.391 . S
C4129 C4133 1.376 . S
C4130 C4128 1.394 . S
C4130 C4131 1.369 . S
C4130 C4134 1.531 . S
C4131 C4130 1.369 . S
C4131 C4132 1.410 . S
C4131 C4139 1.503 . S
C4132 C4131 1.410 . S
C4132 C4133 1.392 . S
C4132 C4135 1.511 . S
C4133 C4129 1.376 . S
C4133 C4132 1.392 . S
C4133 H4145 0.929 . S
C4134 C4130 1.531 . S
C4134 H4146 0.960 . S
C4134 H4147 0.962 . S
C4134 H4148 0.960 . S
C4135 C4132 1.511 . S
C4135 H4149 0.961 . S
C4135 H4150 0.961 . S
C4135 H4151 0.961 . S
C4136 C4137 1.370 . S
C4136 C4138 1.363 . S
C4136 H4152 0.931 . S
C4137 C4136 1.370 . S
C4137 C4141 1.408 . S
C4138 C4136 1.363 . S
C4138 C4139 1.370 . S
C4138 C4142 1.524 . S
C4139 C4131 1.503 . S
C4139 C4138 1.370 . S
C4139 C4140 1.403 . S
C4140 C4139 1.403 . S
C4140 C4141 1.404 . S
C4140 C4143 1.539 . S
C4141 C4137 1.408 . S
C4141 C4140 1.404 . S
C4141 H4153 0.930 . S
C4142 C4138 1.524 . S
C4142 H4154 0.956 . S
C4142 H4155 0.961 . S
C4142 H4156 0.961 . S
C4143 C4140 1.539 . S
C4143 H4157 0.958 . S
C4143 H4158 0.961 . S
C4143 H4159 0.960 . S
H4144 C4128 0.931 . S
H4145 C4133 0.929 . S
H4146 C4134 0.960 . S
H4147 C4134 0.962 . S
H4148 C4134 0.960 . S
H4149 C4135 0.961 . S
H4150 C4135 0.961 . S
H4151 C4135 0.961 . S
H4152 C4136 0.931 . S
H4153 C4141 0.930 . S
H4154 C4142 0.956 . S
H4155 C4142 0.961 . S
H4156 C4142 0.961 . S
H4157 C4143 0.958 . S
H4158 C4143 0.961 . S
H4159 C4143 0.960 . S
C4160 C4161 1.391 . S
C4160 C4162 1.394 . S
C4160 H4176 0.931 . S
C4161 C4160 1.391 . S
C4161 C4165 1.376 . S
C4162 C4160 1.394 . S
C4162 C4163 1.369 . S
C4162 C4166 1.531 . S
C4163 C4162 1.369 . S
C4163 C4164 1.410 . S
C4163 C4171 1.503 . S
C4164 C4163 1.410 . S
C4164 C4165 1.392 . S
C4164 C4167 1.511 . S
C4165 C4161 1.376 . S
C4165 C4164 1.392 . S
C4165 H4177 0.929 . S
C4166 C4162 1.531 . S
C4166 H4178 0.960 . S
C4166 H4179 0.962 . S
C4166 H4180 0.960 . S
C4167 C4164 1.511 . S
C4167 H4181 0.961 . S
C4167 H4182 0.961 . S
C4167 H4183 0.961 . S
C4168 C4169 1.370 . S
C4168 C4170 1.363 . S
C4168 H4184 0.931 . S
C4169 C4168 1.370 . S
C4169 C4173 1.408 . S
C4170 C4168 1.363 . S
C4170 C4171 1.370 1_455 S
C4170 C4174 1.524 1_455 S
C4171 C4163 1.503 . S
C4171 C4170 1.370 1_655 S
C4171 C4172 1.403 . S
C4172 C4171 1.403 . S
C4172 C4173 1.404 1_655 S
C4172 C4175 1.539 . S
C4173 C4169 1.408 . S
C4173 C4172 1.404 1_455 S
C4173 H4185 0.930 . S
C4174 C4170 1.524 1_655 S
C4174 H4186 0.956 . S
C4174 H4187 0.961 . S
C4174 H4188 0.961 1_655 S
C4175 C4172 1.539 . S
C4175 H4189 0.958 . S
C4175 H4190 0.961 . S
C4175 H4191 0.960 . S
H4176 C4160 0.931 . S
H4177 C4165 0.929 . S
H4178 C4166 0.960 . S
H4179 C4166 0.962 . S
H4180 C4166 0.960 . S
H4181 C4167 0.961 . S
H4182 C4167 0.961 . S
H4183 C4167 0.961 . S
H4184 C4168 0.931 . S
H4185 C4173 0.930 . S
H4186 C4174 0.956 . S
H4187 C4174 0.961 . S
H4188 C4174 0.961 1_455 S
H4189 C4175 0.958 . S
H4190 C4175 0.961 . S
H4191 C4175 0.960 . S
C4192 C4193 1.391 . S
C4192 C4194 1.394 . S
C4192 H4208 0.931 . S
C4193 C4192 1.391 . S
C4193 C4197 1.376 . S
C4194 C4192 1.394 . S
C4194 C4195 1.369 . S
C4194 C4198 1.531 . S
C4195 C4194 1.369 . S
C4195 C4196 1.410 . S
C4195 C4203 1.503 . S
C4196 C4195 1.410 . S
C4196 C4197 1.392 . S
C4196 C4199 1.511 . S
C4197 C4193 1.376 . S
C4197 C4196 1.392 . S
C4197 H4209 0.929 . S
C4198 C4194 1.531 . S
C4198 H4210 0.960 . S
C4198 H4211 0.962 . S
C4198 H4212 0.960 . S
C4199 C4196 1.511 . S
C4199 H4213 0.961 . S
C4199 H4214 0.961 . S
C4199 H4215 0.961 . S
C4200 C4201 1.370 . S
C4200 C4202 1.363 . S
C4200 H4216 0.931 . S
C4201 C4200 1.370 . S
C4201 C4205 1.408 . S
C4202 C4200 1.363 . S
C4202 C4203 1.370 . S
C4202 C4206 1.524 . S
C4203 C4195 1.503 . S
C4203 C4202 1.370 . S
C4203 C4204 1.403 . S
C4204 C4203 1.403 . S
C4204 C4205 1.404 . S
C4204 C4207 1.539 . S
C4205 C4201 1.408 . S
C4205 C4204 1.404 . S
C4205 H4217 0.930 . S
C4206 C4202 1.524 . S
C4206 H4218 0.956 . S
C4206 H4219 0.961 . S
C4206 H4220 0.961 . S
C4207 C4204 1.539 . S
C4207 H4221 0.958 . S
C4207 H4222 0.961 . S
C4207 H4223 0.960 . S
H4208 C4192 0.931 . S
H4209 C4197 0.929 . S
H4210 C4198 0.960 . S
H4211 C4198 0.962 . S
H4212 C4198 0.960 . S
H4213 C4199 0.961 . S
H4214 C4199 0.961 . S
H4215 C4199 0.961 . S
H4216 C4200 0.931 . S
H4217 C4205 0.930 . S
H4218 C4206 0.956 . S
H4219 C4206 0.961 . S
H4220 C4206 0.961 . S
H4221 C4207 0.958 . S
H4222 C4207 0.961 . S
H4223 C4207 0.960 . S
C4224 C4225 1.391 . S
C4224 C4226 1.394 . S
C4224 H4240 0.931 . S
C4225 C4224 1.391 . S
C4225 C4229 1.376 . S
C4226 C4224 1.394 . S
C4226 C4227 1.369 . S
C4226 C4230 1.531 . S
C4227 C4226 1.369 . S
C4227 C4228 1.410 . S
C4227 C4235 1.503 . S
C4228 C4227 1.410 . S
C4228 C4229 1.392 . S
C4228 C4231 1.511 . S
C4229 C4225 1.376 . S
C4229 C4228 1.392 . S
C4229 H4241 0.929 . S
C4230 C4226 1.531 . S
C4230 H4242 0.960 . S
C4230 H4243 0.962 . S
C4230 H4244 0.960 . S
C4231 C4228 1.511 . S
C4231 H4245 0.961 . S
C4231 H4246 0.961 . S
C4231 H4247 0.961 . S
C4232 C4233 1.370 . S
C4232 C4234 1.363 . S
C4232 H4248 0.931 . S
C4233 C4232 1.370 . S
C4233 C4237 1.408 . S
C4234 C4232 1.363 . S
C4234 C4235 1.370 1_556 S
C4234 C4238 1.524 1_556 S
C4235 C4227 1.503 . S
C4235 C4234 1.370 1_554 S
C4235 C4236 1.403 . S
C4236 C4235 1.403 . S
C4236 C4237 1.404 1_554 S
C4236 C4239 1.539 . S
C4237 C4233 1.408 . S
C4237 C4236 1.404 1_556 S
C4237 H4249 0.930 . S
C4238 C4234 1.524 1_554 S
C4238 H4250 0.956 . S
C4238 H4251 0.961 . S
C4238 H4252 0.961 1_554 S
C4239 C4236 1.539 . S
C4239 H4253 0.958 . S
C4239 H4254 0.961 . S
C4239 H4255 0.960 . S
H4240 C4224 0.931 . S
H4241 C4229 0.929 . S
H4242 C4230 0.960 . S
H4243 C4230 0.962 . S
H4244 C4230 0.960 . S
H4245 C4231 0.961 . S
H4246 C4231 0.961 . S
H4247 C4231 0.961 . S
H4248 C4232 0.931 . S
H4249 C4237 0.930 . S
H4250 C4238 0.956 . S
H4251 C4238 0.961 . S
H4252 C4238 0.961 1_556 S
H4253 C4239 0.958 . S
H4254 C4239 0.961 . S
H4255 C4239 0.960 . S
C4256 C4257 1.391 . S
C4256 C4258 1.394 . S
C4256 H4272 0.931 . S
C4257 C4256 1.391 . S
C4257 C4261 1.376 . S
C4258 C4256 1.394 . S
C4258 C4259 1.369 . S
C4258 C4262 1.531 . S
C4259 C4258 1.369 . S
C4259 C4260 1.410 . S
C4259 C4267 1.503 . S
C4260 C4259 1.410 . S
C4260 C4261 1.392 . S
C4260 C4263 1.511 . S
C4261 C4257 1.376 . S
C4261 C4260 1.392 . S
C4261 H4273 0.929 . S
C4262 C4258 1.531 . S
C4262 H4274 0.960 . S
C4262 H4275 0.962 . S
C4262 H4276 0.960 . S
C4263 C4260 1.511 . S
C4263 H4277 0.961 . S
C4263 H4278 0.961 . S
C4263 H4279 0.961 . S
C4264 C4265 1.370 . S
C4264 C4266 1.363 . S
C4264 H4280 0.931 . S
C4265 C4264 1.370 . S
C4265 C4269 1.408 . S
C4266 C4264 1.363 . S
C4266 C4267 1.370 . S
C4266 C4270 1.524 . S
C4267 C4259 1.503 . S
C4267 C4266 1.370 . S
C4267 C4268 1.403 . S
C4268 C4267 1.403 . S
C4268 C4269 1.404 . S
C4268 C4271 1.539 . S
C4269 C4265 1.408 . S
C4269 C4268 1.404 . S
C4269 H4281 0.930 . S
C4270 C4266 1.524 . S
C4270 H4282 0.956 . S
C4270 H4283 0.961 . S
C4270 H4284 0.961 . S
C4271 C4268 1.539 . S
C4271 H4285 0.958 . S
C4271 H4286 0.961 . S
C4271 H4287 0.960 . S
H4272 C4256 0.931 . S
H4273 C4261 0.929 . S
H4274 C4262 0.960 . S
H4275 C4262 0.962 . S
H4276 C4262 0.960 . S
H4277 C4263 0.961 . S
H4278 C4263 0.961 . S
H4279 C4263 0.961 . S
H4280 C4264 0.931 . S
H4281 C4269 0.930 . S
H4282 C4270 0.956 . S
H4283 C4270 0.961 . S
H4284 C4270 0.961 . S
H4285 C4271 0.958 . S
H4286 C4271 0.961 . S
H4287 C4271 0.960 . S
C4288 C4289 1.391 . S
C4288 C4290 1.394 . S
C4288 H4304 0.931 . S
C4289 C4288 1.391 . S
C4289 C4293 1.376 . S
C4290 C4288 1.394 . S
C4290 C4291 1.369 . S
C4290 C4294 1.531 . S
C4291 C4290 1.369 . S
C4291 C4292 1.410 . S
C4291 C4299 1.503 . S
C4292 C4291 1.410 . S
C4292 C4293 1.392 . S
C4292 C4295 1.511 . S
C4293 C4289 1.376 . S
C4293 C4292 1.392 . S
C4293 H4305 0.929 . S
C4294 C4290 1.531 . S
C4294 H4306 0.960 . S
C4294 H4307 0.962 . S
C4294 H4308 0.960 . S
C4295 C4292 1.511 . S
C4295 H4309 0.961 . S
C4295 H4310 0.961 . S
C4295 H4311 0.961 . S
C4296 C4297 1.370 . S
C4296 C4298 1.363 1_556 S
C4296 H4312 0.931 . S
C4297 C4296 1.370 . S
C4297 C4301 1.408 . S
C4298 C4296 1.363 1_554 S
C4298 C4299 1.370 . S
C4298 C4302 1.524 . S
C4299 C4291 1.503 . S
C4299 C4298 1.370 . S
C4299 C4300 1.403 1_554 S
C4300 C4299 1.403 1_556 S
C4300 C4301 1.404 . S
C4300 C4303 1.539 . S
C4301 C4297 1.408 . S
C4301 C4300 1.404 . S
C4301 H4313 0.930 . S
C4302 C4298 1.524 . S
C4302 H4314 0.956 . S
C4302 H4315 0.961 . S
C4302 H4316 0.961 . S
C4303 C4300 1.539 . S
C4303 H4317 0.958 . S
C4303 H4318 0.961 . S
C4303 H4319 0.960 1_556 S
H4304 C4288 0.931 . S
H4305 C4293 0.929 . S
H4306 C4294 0.960 . S
H4307 C4294 0.962 . S
H4308 C4294 0.960 . S
H4309 C4295 0.961 . S
H4310 C4295 0.961 . S
H4311 C4295 0.961 . S
H4312 C4296 0.931 . S
H4313 C4301 0.930 . S
H4314 C4302 0.956 . S
H4315 C4302 0.961 . S
H4316 C4302 0.961 . S
H4317 C4303 0.958 . S
H4318 C4303 0.961 . S
H4319 C4303 0.960 1_554 S
C4320 C4321 1.391 . S
C4320 C4322 1.394 . S
C4320 H4336 0.931 . S
C4321 C4320 1.391 . S
C4321 C4325 1.376 . S
C4322 C4320 1.394 . S
C4322 C4323 1.369 . S
C4322 C4326 1.531 . S
C4323 C4322 1.369 . S
C4323 C4324 1.410 . S
C4323 C4331 1.503 . S
C4324 C4323 1.410 . S
C4324 C4325 1.392 . S
C4324 C4327 1.511 . S
C4325 C4321 1.376 . S
C4325 C4324 1.392 . S
C4325 H4337 0.929 . S
C4326 C4322 1.531 . S
C4326 H4338 0.960 . S
C4326 H4339 0.962 . S
C4326 H4340 0.960 . S
C4327 C4324 1.511 . S
C4327 H4341 0.961 . S
C4327 H4342 0.961 . S
C4327 H4343 0.961 . S
C4328 C4329 1.370 . S
C4328 C4330 1.363 . S
C4328 H4344 0.931 . S
C4329 C4328 1.370 . S
C4329 C4333 1.408 . S
C4330 C4328 1.363 . S
C4330 C4331 1.370 . S
C4330 C4334 1.524 . S
C4331 C4323 1.503 . S
C4331 C4330 1.370 . S
C4331 C4332 1.403 . S
C4332 C4331 1.403 . S
C4332 C4333 1.404 . S
C4332 C4335 1.539 . S
C4333 C4329 1.408 . S
C4333 C4332 1.404 . S
C4333 H4345 0.930 . S
C4334 C4330 1.524 . S
C4334 H4346 0.956 . S
C4334 H4347 0.961 . S
C4334 H4348 0.961 . S
C4335 C4332 1.539 . S
C4335 H4349 0.958 . S
C4335 H4350 0.961 . S
C4335 H4351 0.960 . S
H4336 C4320 0.931 . S
H4337 C4325 0.929 . S
H4338 C4326 0.960 . S
H4339 C4326 0.962 . S
H4340 C4326 0.960 . S
H4341 C4327 0.961 . S
H4342 C4327 0.961 . S
H4343 C4327 0.961 . S
H4344 C4328 0.931 . S
H4345 C4333 0.930 . S
H4346 C4334 0.956 . S
H4347 C4334 0.961 . S
H4348 C4334 0.961 . S
H4349 C4335 0.958 . S
H4350 C4335 0.961 . S
H4351 C4335 0.960 . S
C4352 C4353 1.391 . S
C4352 C4354 1.394 . S
C4352 H4368 0.931 . S
C4353 C4352 1.391 . S
C4353 C4357 1.376 . S
C4354 C4352 1.394 . S
C4354 C4355 1.369 . S
C4354 C4358 1.531 . S
C4355 C4354 1.369 . S
C4355 C4356 1.410 . S
C4355 C4363 1.503 . S
C4356 C4355 1.410 . S
C4356 C4357 1.392 . S
C4356 C4359 1.511 . S
C4357 C4353 1.376 . S
C4357 C4356 1.392 . S
C4357 H4369 0.929 . S
C4358 C4354 1.531 . S
C4358 H4370 0.960 . S
C4358 H4371 0.962 . S
C4358 H4372 0.960 . S
C4359 C4356 1.511 . S
C4359 H4373 0.961 . S
C4359 H4374 0.961 . S
C4359 H4375 0.961 . S
C4360 C4361 1.370 . S
C4360 C4362 1.363 1_554 S
C4360 H4376 0.931 . S
C4361 C4360 1.370 . S
C4361 C4365 1.408 . S
C4362 C4360 1.363 1_556 S
C4362 C4363 1.370 . S
C4362 C4366 1.524 . S
C4363 C4355 1.503 . S
C4363 C4362 1.370 . S
C4363 C4364 1.403 . S
C4364 C4363 1.403 . S
C4364 C4365 1.404 1_556 S
C4364 C4367 1.539 . S
C4365 C4361 1.408 . S
C4365 C4364 1.404 1_554 S
C4365 H4377 0.930 . S
C4366 C4362 1.524 . S
C4366 H4378 0.956 . S
C4366 H4379 0.961 . S
C4366 H4380 0.961 . S
C4367 C4364 1.539 . S
C4367 H4381 0.958 . S
C4367 H4382 0.975 . S
C4367 H4383 0.960 . S
H4368 C4352 0.931 . S
H4369 C4357 0.929 . S
H4370 C4358 0.960 . S
H4371 C4358 0.962 . S
H4372 C4358 0.960 . S
H4373 C4359 0.961 . S
H4374 C4359 0.961 . S
H4375 C4359 0.961 . S
H4376 C4360 0.931 . S
H4377 C4365 0.930 . S
H4378 C4366 0.956 . S
H4379 C4366 0.961 . S
H4380 C4366 0.961 . S
H4381 C4367 0.958 . S
H4382 C4367 0.975 . S
H4383 C4367 0.960 . S
C4384 C4385 1.391 . S
C4384 C4386 1.394 . S
C4384 H4400 0.931 . S
C4385 C4384 1.391 . S
C4385 C4389 1.376 . S
C4386 C4384 1.394 . S
C4386 C4387 1.369 . S
C4386 C4390 1.531 . S
C4387 C4386 1.369 . S
C4387 C4388 1.410 . S
C4387 C4395 1.503 . S
C4388 C4387 1.410 . S
C4388 C4389 1.392 . S
C4388 C4391 1.511 . S
C4389 C4385 1.376 . S
C4389 C4388 1.392 . S
C4389 H4401 0.929 . S
C4390 C4386 1.531 . S
C4390 H4402 0.960 . S
C4390 H4403 0.962 . S
C4390 H4404 0.960 . S
C4391 C4388 1.511 . S
C4391 H4405 0.961 . S
C4391 H4406 0.961 . S
C4391 H4407 0.961 . S
C4392 C4393 1.370 . S
C4392 C4394 1.363 . S
C4392 H4408 0.931 . S
C4393 C4392 1.370 . S
C4393 C4397 1.408 . S
C4394 C4392 1.363 . S
C4394 C4395 1.370 . S
C4394 C4398 1.524 . S
C4395 C4387 1.503 . S
C4395 C4394 1.370 . S
C4395 C4396 1.403 . S
C4396 C4395 1.403 . S
C4396 C4397 1.404 . S
C4396 C4399 1.539 . S
C4397 C4393 1.408 . S
C4397 C4396 1.404 . S
C4397 H4409 0.930 . S
C4398 C4394 1.524 . S
C4398 H4410 0.956 . S
C4398 H4411 0.961 . S
C4398 H4412 0.961 . S
C4399 C4396 1.539 . S
C4399 H4413 0.958 . S
C4399 H4414 0.961 . S
C4399 H4415 0.960 . S
H4400 C4384 0.931 . S
H4401 C4389 0.929 . S
H4402 C4390 0.960 . S
H4403 C4390 0.962 . S
H4404 C4390 0.960 . S
H4405 C4391 0.961 . S
H4406 C4391 0.961 . S
H4407 C4391 0.961 . S
H4408 C4392 0.931 . S
H4409 C4397 0.930 . S
H4410 C4398 0.956 . S
H4411 C4398 0.961 . S
H4412 C4398 0.961 . S
H4413 C4399 0.958 . S
H4414 C4399 0.961 . S
H4415 C4399 0.960 . S
C4416 C4417 1.391 . S
C4416 C4418 1.394 . S
C4416 H4432 0.931 . S
C4417 C4416 1.391 . S
C4417 C4421 1.376 . S
C4418 C4416 1.394 . S
C4418 C4419 1.369 1_554 S
C4418 C4422 1.531 1_554 S
C4419 C4418 1.369 1_556 S
C4419 C4420 1.410 . S
C4419 C4427 1.503 . S
C4420 C4419 1.410 . S
C4420 C4421 1.392 1_556 S
C4420 C4423 1.511 . S
C4421 C4417 1.376 . S
C4421 C4420 1.392 1_554 S
C4421 H4433 0.929 . S
C4422 C4418 1.531 1_556 S
C4422 H4434 0.960 . S
C4422 H4435 0.962 . S
C4422 H4436 0.960 1_556 S
C4423 C4420 1.511 . S
C4423 H4437 0.961 . S
C4423 H4438 0.961 . S
C4423 H4439 0.961 . S
C4424 C4425 1.370 . S
C4424 C4426 1.363 . S
C4424 H4440 0.931 . S
C4425 C4424 1.370 . S
C4425 C4429 1.408 . S
C4426 C4424 1.363 . S
C4426 C4427 1.370 . S
C4426 C4430 1.524 . S
C4427 C4419 1.503 . S
C4427 C4426 1.370 . S
C4427 C4428 1.403 . S
C4428 C4427 1.403 . S
C4428 C4429 1.404 . S
C4428 C4431 1.539 . S
C4429 C4425 1.408 . S
C4429 C4428 1.404 . S
C4429 H4441 0.930 . S
C4430 C4426 1.524 . S
C4430 H4442 0.956 . S
C4430 H4443 0.961 . S
C4430 H4444 0.961 . S
C4431 C4428 1.539 . S
C4431 H4445 0.958 . S
C4431 H4446 0.961 . S
C4431 H4447 0.960 . S
H4432 C4416 0.931 . S
H4433 C4421 0.929 . S
H4434 C4422 0.960 . S
H4435 C4422 0.962 . S
H4436 C4422 0.960 1_554 S
H4437 C4423 0.961 . S
H4438 C4423 0.961 . S
H4439 C4423 0.961 . S
H4440 C4424 0.931 . S
H4441 C4429 0.930 . S
H4442 C4430 0.956 . S
H4443 C4430 0.961 . S
H4444 C4430 0.961 . S
H4445 C4431 0.958 . S
H4446 C4431 0.961 . S
H4447 C4431 0.960 . S
C4448 C4449 1.391 . S
C4448 C4450 1.394 . S
C4448 H4464 0.931 . S
C4449 C4448 1.391 . S
C4449 C4453 1.376 . S
C4450 C4448 1.394 . S
C4450 C4451 1.369 . S
C4450 C4454 1.531 . S
C4451 C4450 1.369 . S
C4451 C4452 1.410 . S
C4451 C4459 1.503 . S
C4452 C4451 1.410 . S
C4452 C4453 1.392 . S
C4452 C4455 1.511 . S
C4453 C4449 1.376 . S
C4453 C4452 1.392 . S
C4453 H4465 0.929 . S
C4454 C4450 1.531 . S
C4454 H4466 0.960 . S
C4454 H4467 0.962 . S
C4454 H4468 0.960 . S
C4455 C4452 1.511 . S
C4455 H4469 0.961 . S
C4455 H4470 0.961 . S
C4455 H4471 0.961 . S
C4456 C4457 1.370 . S
C4456 C4458 1.363 . S
C4456 H4472 0.931 . S
C4457 C4456 1.370 . S
C4457 C4461 1.408 . S
C4458 C4456 1.363 . S
C4458 C4459 1.370 . S
C4458 C4462 1.524 . S
C4459 C4451 1.503 . S
C4459 C4458 1.370 . S
C4459 C4460 1.403 . S
C4460 C4459 1.403 . S
C4460 C4461 1.404 . S
C4460 C4463 1.539 . S
C4461 C4457 1.408 . S
C4461 C4460 1.404 . S
C4461 H4473 0.930 . S
C4462 C4458 1.524 . S
C4462 H4474 0.956 . S
C4462 H4475 0.961 . S
C4462 H4476 0.961 . S
C4463 C4460 1.539 . S
C4463 H4477 0.958 . S
C4463 H4478 0.961 . S
C4463 H4479 0.960 . S
H4464 C4448 0.931 . S
H4465 C4453 0.929 . S
H4466 C4454 0.960 . S
H4467 C4454 0.962 . S
H4468 C4454 0.960 . S
H4469 C4455 0.961 . S
H4470 C4455 0.961 . S
H4471 C4455 0.961 . S
H4472 C4456 0.931 . S
H4473 C4461 0.930 . S
H4474 C4462 0.956 . S
H4475 C4462 0.961 . S
H4476 C4462 0.961 . S
H4477 C4463 0.958 . S
H4478 C4463 0.961 . S
H4479 C4463 0.960 . S
C4480 C4481 1.391 . S
C4480 C4482 1.394 . S
C4480 H4496 0.931 . S
C4481 C4480 1.391 . S
C4481 C4485 1.376 . S
C4482 C4480 1.394 . S
C4482 C4483 1.369 . S
C4482 C4486 1.531 . S
C4483 C4482 1.369 . S
C4483 C4484 1.410 . S
C4483 C4491 1.503 . S
C4484 C4483 1.410 . S
C4484 C4485 1.392 . S
C4484 C4487 1.511 . S
C4485 C4481 1.376 . S
C4485 C4484 1.392 . S
C4485 H4497 0.929 . S
C4486 C4482 1.531 . S
C4486 H4498 0.960 . S
C4486 H4499 0.962 . S
C4486 H4500 0.960 . S
C4487 C4484 1.511 . S
C4487 H4501 0.961 . S
C4487 H4502 0.961 . S
C4487 H4503 0.961 . S
C4488 C4489 1.370 . S
C4488 C4490 1.363 . S
C4488 H4504 0.931 . S
C4489 C4488 1.370 . S
C4489 C4493 1.408 . S
C4490 C4488 1.363 . S
C4490 C4491 1.370 . S
C4490 C4494 1.524 . S
C4491 C4483 1.503 . S
C4491 C4490 1.370 . S
C4491 C4492 1.403 . S
C4492 C4491 1.403 . S
C4492 C4493 1.404 . S
C4492 C4495 1.539 . S
C4493 C4489 1.408 . S
C4493 C4492 1.404 . S
C4493 H4505 0.930 . S
C4494 C4490 1.524 . S
C4494 H4506 0.956 . S
C4494 H4507 0.961 . S
C4494 H4508 0.961 . S
C4495 C4492 1.539 . S
C4495 H4509 0.958 . S
C4495 H4510 0.961 . S
C4495 H4511 0.960 . S
H4496 C4480 0.931 . S
H4497 C4485 0.929 . S
H4498 C4486 0.960 . S
H4499 C4486 0.962 . S
H4500 C4486 0.960 . S
H4501 C4487 0.961 . S
H4502 C4487 0.961 . S
H4503 C4487 0.961 . S
H4504 C4488 0.931 . S
H4505 C4493 0.930 . S
H4506 C4494 0.956 . S
H4507 C4494 0.961 . S
H4508 C4494 0.961 . S
H4509 C4495 0.958 . S
H4510 C4495 0.961 . S
H4511 C4495 0.960 . S
C4512 C4513 1.391 . S
C4512 C4514 1.394 . S
C4512 H4528 0.931 . S
C4513 C4512 1.391 . S
C4513 C4517 1.376 . S
C4514 C4512 1.394 . S
C4514 C4515 1.369 . S
C4514 C4518 1.531 . S
C4515 C4514 1.369 . S
C4515 C4516 1.410 . S
C4515 C4523 1.503 . S
C4516 C4515 1.410 . S
C4516 C4517 1.392 . S
C4516 C4519 1.511 . S
C4517 C4513 1.376 . S
C4517 C4516 1.392 . S
C4517 H4529 0.929 . S
C4518 C4514 1.531 . S
C4518 H4530 0.960 . S
C4518 H4531 0.962 . S
C4518 H4532 0.960 . S
C4519 C4516 1.511 . S
C4519 H4533 0.961 . S
C4519 H4534 0.961 . S
C4519 H4535 0.961 . S
C4520 C4521 1.370 . S
C4520 C4522 1.363 . S
C4520 H4536 0.931 . S
C4521 C4520 1.370 . S
C4521 C4525 1.408 . S
C4522 C4520 1.363 . S
C4522 C4523 1.370 . S
C4522 C4526 1.524 . S
C4523 C4515 1.503 . S
C4523 C4522 1.370 . S
C4523 C4524 1.403 . S
C4524 C4523 1.403 . S
C4524 C4525 1.404 . S
C4524 C4527 1.539 . S
C4525 C4521 1.408 . S
C4525 C4524 1.404 . S
C4525 H4537 0.930 . S
C4526 C4522 1.524 . S
C4526 H4538 0.956 . S
C4526 H4539 0.961 . S
C4526 H4540 0.961 . S
C4527 C4524 1.539 . S
C4527 H4541 0.958 . S
C4527 H4542 0.961 . S
C4527 H4543 0.960 . S
H4528 C4512 0.931 . S
H4529 C4517 0.929 . S
H4530 C4518 0.960 . S
H4531 C4518 0.962 . S
H4532 C4518 0.960 . S
H4533 C4519 0.961 . S
H4534 C4519 0.961 . S
H4535 C4519 0.961 . S
H4536 C4520 0.931 . S
H4537 C4525 0.930 . S
H4538 C4526 0.956 . S
H4539 C4526 0.961 . S
H4540 C4526 0.961 . S
H4541 C4527 0.958 . S
H4542 C4527 0.961 . S
H4543 C4527 0.960 . S
C4544 C4545 1.391 . S
C4544 C4546 1.394 . S
C4544 H4560 0.931 . S
C4545 C4544 1.391 . S
C4545 C4549 1.376 . S
C4546 C4544 1.394 . S
C4546 C4547 1.369 . S
C4546 C4550 1.531 . S
C4547 C4546 1.369 . S
C4547 C4548 1.410 . S
C4547 C4555 1.503 . S
C4548 C4547 1.410 . S
C4548 C4549 1.392 . S
C4548 C4551 1.511 . S
C4549 C4545 1.376 . S
C4549 C4548 1.392 . S
C4549 H4561 0.929 . S
C4550 C4546 1.531 . S
C4550 H4562 0.960 . S
C4550 H4563 0.962 . S
C4550 H4564 0.960 . S
C4551 C4548 1.511 . S
C4551 H4565 0.961 . S
C4551 H4566 0.961 . S
C4551 H4567 0.961 . S
C4552 C4553 1.370 . S
C4552 C4554 1.363 . S
C4552 H4568 0.931 . S
C4553 C4552 1.370 . S
C4553 C4557 1.408 . S
C4554 C4552 1.363 . S
C4554 C4555 1.370 . S
C4554 C4558 1.524 . S
C4555 C4547 1.503 . S
C4555 C4554 1.370 . S
C4555 C4556 1.403 . S
C4556 C4555 1.403 . S
C4556 C4557 1.404 . S
C4556 C4559 1.539 . S
C4557 C4553 1.408 . S
C4557 C4556 1.404 . S
C4557 H4569 0.930 . S
C4558 C4554 1.524 . S
C4558 H4570 0.956 . S
C4558 H4571 0.961 . S
C4558 H4572 0.961 . S
C4559 C4556 1.539 . S
C4559 H4573 0.958 . S
C4559 H4574 0.961 . S
C4559 H4575 0.960 . S
H4560 C4544 0.931 . S
H4561 C4549 0.929 . S
H4562 C4550 0.960 . S
H4563 C4550 0.962 . S
H4564 C4550 0.960 . S
H4565 C4551 0.961 . S
H4566 C4551 0.961 . S
H4567 C4551 0.961 . S
H4568 C4552 0.931 . S
H4569 C4557 0.930 . S
H4570 C4558 0.956 . S
H4571 C4558 0.961 . S
H4572 C4558 0.961 . S
H4573 C4559 0.958 . S
H4574 C4559 0.961 . S
H4575 C4559 0.960 . S
C4576 C4577 1.391 . S
C4576 C4578 1.394 . S
C4576 H4592 0.931 . S
C4577 C4576 1.391 . S
C4577 C4581 1.376 . S
C4578 C4576 1.394 . S
C4578 C4579 1.369 . S
C4578 C4582 1.531 . S
C4579 C4578 1.369 . S
C4579 C4580 1.410 . S
C4579 C4587 1.503 . S
C4580 C4579 1.410 . S
C4580 C4581 1.392 . S
C4580 C4583 1.511 . S
C4581 C4577 1.376 . S
C4581 C4580 1.392 . S
C4581 H4593 0.929 . S
C4582 C4578 1.531 . S
C4582 H4594 0.960 . S
C4582 H4595 0.962 . S
C4582 H4596 0.960 . S
C4583 C4580 1.511 . S
C4583 H4597 0.961 . S
C4583 H4598 0.961 . S
C4583 H4599 0.961 . S
C4584 C4585 1.370 . S
C4584 C4586 1.363 . S
C4584 H4600 0.931 . S
C4585 C4584 1.370 . S
C4585 C4589 1.408 . S
C4586 C4584 1.363 . S
C4586 C4587 1.370 . S
C4586 C4590 1.524 . S
C4587 C4579 1.503 . S
C4587 C4586 1.370 . S
C4587 C4588 1.403 . S
C4588 C4587 1.403 . S
C4588 C4589 1.404 . S
C4588 C4591 1.539 . S
C4589 C4585 1.408 . S
C4589 C4588 1.404 . S
C4589 H4601 0.930 . S
C4590 C4586 1.524 . S
C4590 H4602 0.956 . S
C4590 H4603 0.961 . S
C4590 H4604 0.961 . S
C4591 C4588 1.539 . S
C4591 H4605 0.958 . S
C4591 H4606 0.961 . S
C4591 H4607 0.960 . S
H4592 C4576 0.931 . S
H4593 C4581 0.929 . S
H4594 C4582 0.960 . S
H4595 C4582 0.962 . S
H4596 C4582 0.960 . S
H4597 C4583 0.961 . S
H4598 C4583 0.961 . S
H4599 C4583 0.961 . S
H4600 C4584 0.931 . S
H4601 C4589 0.930 . S
H4602 C4590 0.956 . S
H4603 C4590 0.961 . S
H4604 C4590 0.961 . S
H4605 C4591 0.958 . S
H4606 C4591 0.961 . S
H4607 C4591 0.960 . S
C4608 C4609 1.391 . S
C4608 C4610 1.394 . S
C4608 H4624 0.931 . S
C4609 C4608 1.391 . S
C4609 C4613 1.376 . S
C4610 C4608 1.394 . S
C4610 C4611 1.369 . S
C4610 C4614 1.531 . S
C4611 C4610 1.369 . S
C4611 C4612 1.410 . S
C4611 C4619 1.503 . S
C4612 C4611 1.410 . S
C4612 C4613 1.392 . S
C4612 C4615 1.511 . S
C4613 C4609 1.376 . S
C4613 C4612 1.392 . S
C4613 H4625 0.929 . S
C4614 C4610 1.531 . S
C4614 H4626 0.960 . S
C4614 H4627 0.962 . S
C4614 H4628 0.960 . S
C4615 C4612 1.511 . S
C4615 H4629 0.961 . S
C4615 H4630 0.961 . S
C4615 H4631 0.961 . S
C4616 C4617 1.370 . S
C4616 C4618 1.363 . S
C4616 H4632 0.931 . S
C4617 C4616 1.370 . S
C4617 C4621 1.408 . S
C4618 C4616 1.363 . S
C4618 C4619 1.370 . S
C4618 C4622 1.524 . S
C4619 C4611 1.503 . S
C4619 C4618 1.370 . S
C4619 C4620 1.403 . S
C4620 C4619 1.403 . S
C4620 C4621 1.404 . S
C4620 C4623 1.539 . S
C4621 C4617 1.408 . S
C4621 C4620 1.404 . S
C4621 H4633 0.930 . S
C4622 C4618 1.524 . S
C4622 H4634 0.956 . S
C4622 H4635 0.961 . S
C4622 H4636 0.961 . S
C4623 C4620 1.539 . S
C4623 H4637 0.958 . S
C4623 H4638 0.961 . S
C4623 H4639 0.960 . S
H4624 C4608 0.931 . S
H4625 C4613 0.929 . S
H4626 C4614 0.960 . S
H4627 C4614 0.962 . S
H4628 C4614 0.960 . S
H4629 C4615 0.961 . S
H4630 C4615 0.961 . S
H4631 C4615 0.961 . S
H4632 C4616 0.931 . S
H4633 C4621 0.930 . S
H4634 C4622 0.956 . S
H4635 C4622 0.961 . S
H4636 C4622 0.961 . S
H4637 C4623 0.958 . S
H4638 C4623 0.961 . S
H4639 C4623 0.960 . S
C4640 C4641 1.391 . S
C4640 C4642 1.394 . S
C4640 H4656 0.931 . S
C4641 C4640 1.391 . S
C4641 C4645 1.376 . S
C4642 C4640 1.394 . S
C4642 C4643 1.369 . S
C4642 C4646 1.531 . S
C4643 C4642 1.369 . S
C4643 C4644 1.410 . S
C4643 C4651 1.503 . S
C4644 C4643 1.410 . S
C4644 C4645 1.392 . S
C4644 C4647 1.511 . S
C4645 C4641 1.376 . S
C4645 C4644 1.392 . S
C4645 H4657 0.929 . S
C4646 C4642 1.531 . S
C4646 H4658 0.960 . S
C4646 H4659 0.962 . S
C4646 H4660 0.960 . S
C4647 C4644 1.511 . S
C4647 H4661 0.961 . S
C4647 H4662 0.961 . S
C4647 H4663 0.961 . S
C4648 C4649 1.370 . S
C4648 C4650 1.363 . S
C4648 H4664 0.931 . S
C4649 C4648 1.370 . S
C4649 C4653 1.408 . S
C4650 C4648 1.363 . S
C4650 C4651 1.370 . S
C4650 C4654 1.524 . S
C4651 C4643 1.503 . S
C4651 C4650 1.370 . S
C4651 C4652 1.403 . S
C4652 C4651 1.403 . S
C4652 C4653 1.404 . S
C4652 C4655 1.539 . S
C4653 C4649 1.408 . S
C4653 C4652 1.404 . S
C4653 H4665 0.930 . S
C4654 C4650 1.524 . S
C4654 H4666 0.956 . S
C4654 H4667 0.961 . S
C4654 H4668 0.961 . S
C4655 C4652 1.539 . S
C4655 H4669 0.958 . S
C4655 H4670 0.961 . S
C4655 H4671 0.960 . S
H4656 C4640 0.931 . S
H4657 C4645 0.929 . S
H4658 C4646 0.960 . S
H4659 C4646 0.962 . S
H4660 C4646 0.960 . S
H4661 C4647 0.961 . S
H4662 C4647 0.961 . S
H4663 C4647 0.961 . S
H4664 C4648 0.931 . S
H4665 C4653 0.930 . S
H4666 C4654 0.956 . S
H4667 C4654 0.961 . S
H4668 C4654 0.961 . S
H4669 C4655 0.958 . S
H4670 C4655 0.961 . S
H4671 C4655 0.960 . S
C4672 C4673 1.391 . S
C4672 C4674 1.394 1_565 S
C4672 H4688 0.931 . S
C4673 C4672 1.391 . S
C4673 C4677 1.376 . S
C4674 C4672 1.394 1_545 S
C4674 C4675 1.369 . S
C4674 C4678 1.531 . S
C4675 C4674 1.369 . S
C4675 C4676 1.410 1_545 S
C4675 C4683 1.503 . S
C4676 C4675 1.410 1_565 S
C4676 C4677 1.392 . S
C4676 C4679 1.503 1_565 S
C4677 C4673 1.376 . S
C4677 C4676 1.392 . S
C4677 H4689 0.929 . S
C4678 C4674 1.531 . S
C4678 H4690 0.960 . S
C4678 H4691 0.962 . S
C4678 H4692 0.960 . S
C4679 C4676 1.503 1_545 S
C4679 H4693 0.938 1_545 S
C4679 H4694 0.997 . S
C4679 H4695 0.956 1_545 S
C4680 C4681 1.370 . S
C4680 C4682 1.363 . S
C4680 H4696 0.931 . S
C4681 C4680 1.370 . S
C4681 C4685 1.408 . S
C4682 C4680 1.363 . S
C4682 C4683 1.370 . S
C4682 C4686 1.524 . S
C4683 C4675 1.503 . S
C4683 C4682 1.370 . S
C4683 C4684 1.403 . S
C4684 C4683 1.403 . S
C4684 C4685 1.404 . S
C4684 C4687 1.539 . S
C4685 C4681 1.408 . S
C4685 C4684 1.404 . S
C4685 H4697 0.930 . S
C4686 C4682 1.524 . S
C4686 H4698 0.956 . S
C4686 H4699 0.961 . S
C4686 H4700 0.961 . S
C4687 C4684 1.539 . S
C4687 H4701 0.958 . S
C4687 H4702 0.961 . S
C4687 H4703 0.960 . S
H4688 C4672 0.931 . S
H4689 C4677 0.929 . S
H4690 C4678 0.960 . S
H4691 C4678 0.962 . S
H4692 C4678 0.960 . S
H4693 C4679 0.938 1_565 S
H4694 C4679 0.997 . S
H4695 C4679 0.956 1_565 S
H4696 C4680 0.931 . S
H4697 C4685 0.930 . S
H4698 C4686 0.956 . S
H4699 C4686 0.961 . S
H4700 C4686 0.961 . S
H4701 C4687 0.958 . S
H4702 C4687 0.961 . S
H4703 C4687 0.960 . S
C4704 C4705 1.391 . S
C4704 C4706 1.394 . S
C4704 H4720 0.931 . S
C4705 C4704 1.391 . S
C4705 C4709 1.376 . S
C4706 C4704 1.394 . S
C4706 C4707 1.369 . S
C4706 C4710 1.531 . S
C4707 C4706 1.369 . S
C4707 C4708 1.410 . S
C4707 C4715 1.503 . S
C4708 C4707 1.410 . S
C4708 C4709 1.392 . S
C4708 C4711 1.511 . S
C4709 C4705 1.376 . S
C4709 C4708 1.392 . S
C4709 H4721 0.929 . S
C4710 C4706 1.531 . S
C4710 H4722 0.960 . S
C4710 H4723 0.962 . S
C4710 H4724 0.960 . S
C4711 C4708 1.511 . S
C4711 H4725 0.961 . S
C4711 H4726 0.961 . S
C4711 H4727 0.961 . S
C4712 C4713 1.370 . S
C4712 C4714 1.363 . S
C4712 H4728 0.931 . S
C4713 C4712 1.370 . S
C4713 C4717 1.408 . S
C4714 C4712 1.363 . S
C4714 C4715 1.370 . S
C4714 C4718 1.524 . S
C4715 C4707 1.503 . S
C4715 C4714 1.370 . S
C4715 C4716 1.403 . S
C4716 C4715 1.403 . S
C4716 C4717 1.404 . S
C4716 C4719 1.539 . S
C4717 C4713 1.408 . S
C4717 C4716 1.404 . S
C4717 H4729 0.930 . S
C4718 C4714 1.524 . S
C4718 H4730 0.956 . S
C4718 H4731 0.961 . S
C4718 H4732 0.961 . S
C4719 C4716 1.539 . S
C4719 H4733 0.958 . S
C4719 H4734 0.961 . S
C4719 H4735 0.960 . S
H4720 C4704 0.931 . S
H4721 C4709 0.929 . S
H4722 C4710 0.960 . S
H4723 C4710 0.962 . S
H4724 C4710 0.960 . S
H4725 C4711 0.961 . S
H4726 C4711 0.961 . S
H4727 C4711 0.961 . S
H4728 C4712 0.931 . S
H4729 C4717 0.930 . S
H4730 C4718 0.956 . S
H4731 C4718 0.961 . S
H4732 C4718 0.961 . S
H4733 C4719 0.958 . S
H4734 C4719 0.961 . S
H4735 C4719 0.960 . S
C4736 C4737 1.391 . S
C4736 C4738 1.394 . S
C4736 H4752 0.931 . S
C4737 C4736 1.391 . S
C4737 C4741 1.376 . S
C4738 C4736 1.394 . S
C4738 C4739 1.369 . S
C4738 C4742 1.531 . S
C4739 C4738 1.369 . S
C4739 C4740 1.410 . S
C4739 C4747 1.503 . S
C4740 C4739 1.410 . S
C4740 C4741 1.392 . S
C4740 C4743 1.511 . S
C4741 C4737 1.376 . S
C4741 C4740 1.392 . S
C4741 H4753 0.929 . S
C4742 C4738 1.531 . S
C4742 H4754 0.960 . S
C4742 H4755 0.962 . S
C4742 H4756 0.960 . S
C4743 C4740 1.511 . S
C4743 H4757 0.961 . S
C4743 H4758 0.961 . S
C4743 H4759 0.961 . S
C4744 C4745 1.370 . S
C4744 C4746 1.363 1_455 S
C4744 H4760 0.931 . S
C4745 C4744 1.370 . S
C4745 C4749 1.408 . S
C4746 C4744 1.363 1_655 S
C4746 C4747 1.370 . S
C4746 C4750 1.524 . S
C4747 C4739 1.503 . S
C4747 C4746 1.370 . S
C4747 C4748 1.403 1_655 S
C4748 C4747 1.403 1_455 S
C4748 C4749 1.404 . S
C4748 C4751 1.539 . S
C4749 C4745 1.408 . S
C4749 C4748 1.404 . S
C4749 H4761 0.930 . S
C4750 C4746 1.524 . S
C4750 H4762 0.956 . S
C4750 H4763 0.961 . S
C4750 H4764 0.961 . S
C4751 C4748 1.539 . S
C4751 H4765 0.958 1_455 S
C4751 H4766 0.961 . S
C4751 H4767 0.960 1_455 S
H4752 C4736 0.931 . S
H4753 C4741 0.929 . S
H4754 C4742 0.960 . S
H4755 C4742 0.962 . S
H4756 C4742 0.960 . S
H4757 C4743 0.961 . S
H4758 C4743 0.961 . S
H4759 C4743 0.961 . S
H4760 C4744 0.931 . S
H4761 C4749 0.930 . S
H4762 C4750 0.956 . S
H4763 C4750 0.961 . S
H4764 C4750 0.961 . S
H4765 C4751 0.958 1_655 S
H4766 C4751 0.961 . S
H4767 C4751 0.960 1_655 S
C4768 C4769 1.391 . S
C4768 C4770 1.394 . S
C4768 H4784 0.931 . S
C4769 C4768 1.391 . S
C4769 C4773 1.376 . S
C4770 C4768 1.394 . S
C4770 C4771 1.369 . S
C4770 C4774 1.531 . S
C4771 C4770 1.369 . S
C4771 C4772 1.410 . S
C4771 C4779 1.503 . S
C4772 C4771 1.410 . S
C4772 C4773 1.392 . S
C4772 C4775 1.511 . S
C4773 C4769 1.376 . S
C4773 C4772 1.392 . S
C4773 H4785 0.929 . S
C4774 C4770 1.531 . S
C4774 H4786 0.960 . S
C4774 H4787 0.962 . S
C4774 H4788 0.960 . S
C4775 C4772 1.511 . S
C4775 H4789 0.961 . S
C4775 H4790 0.961 . S
C4775 H4791 0.961 . S
C4776 C4777 1.370 . S
C4776 C4778 1.363 . S
C4776 H4792 0.931 . S
C4777 C4776 1.370 . S
C4777 C4781 1.408 . S
C4778 C4776 1.363 . S
C4778 C4779 1.370 . S
C4778 C4782 1.524 . S
C4779 C4771 1.503 . S
C4779 C4778 1.370 . S
C4779 C4780 1.403 . S
C4780 C4779 1.403 . S
C4780 C4781 1.404 . S
C4780 C4783 1.539 . S
C4781 C4777 1.408 . S
C4781 C4780 1.404 . S
C4781 H4793 0.930 . S
C4782 C4778 1.524 . S
C4782 H4794 0.956 . S
C4782 H4795 0.961 . S
C4782 H4796 0.961 . S
C4783 C4780 1.539 . S
C4783 H4797 0.958 . S
C4783 H4798 0.961 . S
C4783 H4799 0.960 . S
H4784 C4768 0.931 . S
H4785 C4773 0.929 . S
H4786 C4774 0.960 . S
H4787 C4774 0.962 . S
H4788 C4774 0.960 . S
H4789 C4775 0.961 . S
H4790 C4775 0.961 . S
H4791 C4775 0.961 . S
H4792 C4776 0.931 . S
H4793 C4781 0.930 . S
H4794 C4782 0.956 . S
H4795 C4782 0.961 . S
H4796 C4782 0.961 . S
H4797 C4783 0.958 . S
H4798 C4783 0.961 . S
H4799 C4783 0.960 . S
C4800 C4801 1.391 . S
C4800 C4802 1.394 . S
C4800 H4816 0.931 . S
C4801 C4800 1.391 . S
C4801 C4805 1.376 . S
C4802 C4800 1.394 . S
C4802 C4803 1.369 . S
C4802 C4806 1.531 . S
C4803 C4802 1.369 . S
C4803 C4804 1.410 . S
C4803 C4811 1.503 . S
C4804 C4803 1.410 . S
C4804 C4805 1.392 . S
C4804 C4807 1.511 . S
C4805 C4801 1.376 . S
C4805 C4804 1.392 . S
C4805 H4817 0.929 . S
C4806 C4802 1.531 . S
C4806 H4818 0.960 . S
C4806 H4819 0.962 . S
C4806 H4820 0.960 . S
C4807 C4804 1.511 . S
C4807 H4821 0.961 . S
C4807 H4822 0.961 . S
C4807 H4823 0.961 . S
C4808 C4809 1.370 . S
C4808 C4810 1.414 . S
C4808 H4824 0.931 . S
C4809 C4808 1.370 . S
C4809 C4813 1.408 . S
C4810 C4808 1.414 . S
C4810 C4811 1.339 1_655 S
C4810 C4814 1.507 1_655 S
C4811 C4803 1.503 . S
C4811 C4810 1.339 1_455 S
C4811 C4812 1.403 . S
C4812 C4811 1.403 . S
C4812 C4813 1.404 1_455 S
C4812 C4815 1.539 . S
C4813 C4809 1.408 . S
C4813 C4812 1.404 1_655 S
C4813 H4825 0.930 . S
C4814 C4810 1.507 1_455 S
C4814 H4826 0.956 . S
C4814 H4827 0.961 . S
C4814 H4828 0.961 1_455 S
C4815 C4812 1.539 . S
C4815 H4829 0.958 . S
C4815 H4830 0.961 . S
C4815 H4831 0.960 . S
H4816 C4800 0.931 . S
H4817 C4805 0.929 . S
H4818 C4806 0.960 . S
H4819 C4806 0.962 . S
H4820 C4806 0.960 . S
H4821 C4807 0.961 . S
H4822 C4807 0.961 . S
H4823 C4807 0.961 . S
H4824 C4808 0.931 . S
H4825 C4813 0.930 . S
H4826 C4814 0.956 . S
H4827 C4814 0.961 . S
H4828 C4814 0.961 1_655 S
H4829 C4815 0.958 . S
H4830 C4815 0.961 . S
H4831 C4815 0.960 . S
C4832 C4833 1.391 . S
C4832 C4834 1.394 . S
C4832 H4848 0.931 . S
C4833 C4832 1.391 . S
C4833 C4837 1.376 . S
C4834 C4832 1.394 . S
C4834 C4835 1.369 . S
C4834 C4838 1.531 . S
C4835 C4834 1.369 . S
C4835 C4836 1.410 . S
C4835 C4843 1.503 . S
C4836 C4835 1.410 . S
C4836 C4837 1.392 . S
C4836 C4839 1.511 . S
C4837 C4833 1.376 . S
C4837 C4836 1.392 . S
C4837 H4849 0.929 . S
C4838 C4834 1.531 . S
C4838 H4850 0.960 . S
C4838 H4851 0.962 . S
C4838 H4852 0.960 . S
C4839 C4836 1.511 . S
C4839 H4853 0.961 . S
C4839 H4854 0.961 . S
C4839 H4855 0.961 . S
C4840 C4841 1.370 . S
C4840 C4842 1.363 . S
C4840 H4856 0.931 . S
C4841 C4840 1.370 . S
C4841 C4845 1.408 . S
C4842 C4840 1.363 . S
C4842 C4843 1.370 . S
C4842 C4846 1.524 . S
C4843 C4835 1.503 . S
C4843 C4842 1.370 . S
C4843 C4844 1.403 . S
C4844 C4843 1.403 . S
C4844 C4845 1.404 . S
C4844 C4847 1.539 . S
C4845 C4841 1.408 . S
C4845 C4844 1.404 . S
C4845 H4857 0.930 . S
C4846 C4842 1.524 . S
C4846 H4858 0.956 . S
C4846 H4859 0.961 . S
C4846 H4860 0.961 . S
C4847 C4844 1.539 . S
C4847 H4861 0.958 . S
C4847 H4862 0.961 . S
C4847 H4863 0.960 . S
H4848 C4832 0.931 . S
H4849 C4837 0.929 . S
H4850 C4838 0.960 . S
H4851 C4838 0.962 . S
H4852 C4838 0.960 . S
H4853 C4839 0.961 . S
H4854 C4839 0.961 . S
H4855 C4839 0.961 . S
H4856 C4840 0.931 . S
H4857 C4845 0.930 . S
H4858 C4846 0.956 . S
H4859 C4846 0.961 . S
H4860 C4846 0.961 . S
H4861 C4847 0.958 . S
H4862 C4847 0.961 . S
H4863 C4847 0.960 . S
C4864 C4865 1.391 . S
C4864 C4866 1.394 . S
C4864 H4880 0.931 . S
C4865 C4864 1.391 . S
C4865 C4869 1.376 . S
C4866 C4864 1.394 . S
C4866 C4867 1.369 . S
C4866 C4870 1.531 . S
C4867 C4866 1.369 . S
C4867 C4868 1.410 . S
C4867 C4875 1.503 . S
C4868 C4867 1.410 . S
C4868 C4869 1.392 . S
C4868 C4871 1.511 . S
C4869 C4865 1.376 . S
C4869 C4868 1.392 . S
C4869 H4881 0.929 . S
C4870 C4866 1.531 . S
C4870 H4882 0.960 . S
C4870 H4883 0.962 . S
C4870 H4884 0.960 . S
C4871 C4868 1.511 . S
C4871 H4885 0.961 . S
C4871 H4886 0.961 . S
C4871 H4887 0.961 . S
C4872 C4873 1.370 . S
C4872 C4874 1.363 . S
C4872 H4888 0.931 . S
C4873 C4872 1.370 . S
C4873 C4877 1.408 . S
C4874 C4872 1.363 . S
C4874 C4875 1.370 . S
C4874 C4878 1.524 . S
C4875 C4867 1.503 . S
C4875 C4874 1.370 . S
C4875 C4876 1.403 . S
C4876 C4875 1.403 . S
C4876 C4877 1.404 . S
C4876 C4879 1.539 . S
C4877 C4873 1.408 . S
C4877 C4876 1.404 . S
C4877 H4889 0.930 . S
C4878 C4874 1.524 . S
C4878 H4890 0.956 . S
C4878 H4891 0.961 . S
C4878 H4892 0.961 . S
C4879 C4876 1.539 . S
C4879 H4893 0.958 . S
C4879 H4894 0.961 . S
C4879 H4895 0.960 . S
H4880 C4864 0.931 . S
H4881 C4869 0.929 . S
H4882 C4870 0.960 . S
H4883 C4870 0.962 . S
H4884 C4870 0.960 . S
H4885 C4871 0.961 . S
H4886 C4871 0.961 . S
H4887 C4871 0.961 . S
H4888 C4872 0.931 . S
H4889 C4877 0.930 . S
H4890 C4878 0.956 . S
H4891 C4878 0.961 . S
H4892 C4878 0.961 . S
H4893 C4879 0.958 . S
H4894 C4879 0.961 . S
H4895 C4879 0.960 . S
C4896 C4897 1.391 . S
C4896 C4898 1.394 . S
C4896 H4912 0.931 . S
C4897 C4896 1.391 . S
C4897 C4901 1.376 . S
C4898 C4896 1.394 . S
C4898 C4899 1.369 . S
C4898 C4902 1.531 . S
C4899 C4898 1.369 . S
C4899 C4900 1.410 . S
C4899 C4907 1.503 . S
C4900 C4899 1.410 . S
C4900 C4901 1.392 . S
C4900 C4903 1.511 . S
C4901 C4897 1.376 . S
C4901 C4900 1.392 . S
C4901 H4913 0.929 . S
C4902 C4898 1.531 . S
C4902 H4914 0.960 . S
C4902 H4915 0.962 . S
C4902 H4916 0.960 . S
C4903 C4900 1.511 . S
C4903 H4917 0.961 . S
C4903 H4918 0.961 . S
C4903 H4919 0.961 . S
C4904 C4905 1.370 . S
C4904 C4906 1.363 . S
C4904 H4920 0.931 . S
C4905 C4904 1.370 . S
C4905 C4909 1.408 . S
C4906 C4904 1.363 . S
C4906 C4907 1.370 . S
C4906 C4910 1.524 . S
C4907 C4899 1.503 . S
C4907 C4906 1.370 . S
C4907 C4908 1.403 . S
C4908 C4907 1.403 . S
C4908 C4909 1.404 . S
C4908 C4911 1.539 . S
C4909 C4905 1.408 . S
C4909 C4908 1.404 . S
C4909 H4921 0.930 . S
C4910 C4906 1.524 . S
C4910 H4922 0.956 . S
C4910 H4923 0.961 . S
C4910 H4924 0.961 . S
C4911 C4908 1.539 . S
C4911 H4925 0.958 . S
C4911 H4926 0.961 . S
C4911 H4927 0.960 . S
H4912 C4896 0.931 . S
H4913 C4901 0.929 . S
H4914 C4902 0.960 . S
H4915 C4902 0.962 . S
H4916 C4902 0.960 . S
H4917 C4903 0.961 . S
H4918 C4903 0.961 . S
H4919 C4903 0.961 . S
H4920 C4904 0.931 . S
H4921 C4909 0.930 . S
H4922 C4910 0.956 . S
H4923 C4910 0.961 . S
H4924 C4910 0.961 . S
H4925 C4911 0.958 . S
H4926 C4911 0.961 . S
H4927 C4911 0.960 . S
C4928 C4929 1.391 . S
C4928 C4930 1.394 . S
C4928 H4944 0.931 . S
C4929 C4928 1.391 . S
C4929 C4933 1.376 . S
C4930 C4928 1.394 . S
C4930 C4931 1.369 . S
C4930 C4934 1.531 . S
C4931 C4930 1.369 . S
C4931 C4932 1.410 . S
C4931 C4939 1.503 . S
C4932 C4931 1.410 . S
C4932 C4933 1.392 . S
C4932 C4935 1.511 . S
C4933 C4929 1.376 . S
C4933 C4932 1.392 . S
C4933 H4945 0.929 . S
C4934 C4930 1.531 . S
C4934 H4946 0.960 . S
C4934 H4947 0.962 . S
C4934 H4948 0.960 . S
C4935 C4932 1.511 . S
C4935 H4949 0.961 . S
C4935 H4950 0.961 . S
C4935 H4951 0.961 . S
C4936 C4937 1.370 . S
C4936 C4938 1.363 . S
C4936 H4952 0.931 . S
C4937 C4936 1.370 . S
C4937 C4941 1.408 . S
C4938 C4936 1.363 . S
C4938 C4939 1.370 . S
C4938 C4942 1.524 . S
C4939 C4931 1.503 . S
C4939 C4938 1.370 . S
C4939 C4940 1.403 . S
C4940 C4939 1.403 . S
C4940 C4941 1.404 . S
C4940 C4943 1.539 . S
C4941 C4937 1.408 . S
C4941 C4940 1.404 . S
C4941 H4953 0.930 . S
C4942 C4938 1.524 . S
C4942 H4954 0.956 . S
C4942 H4955 0.961 . S
C4942 H4956 0.961 . S
C4943 C4940 1.539 . S
C4943 H4957 0.958 . S
C4943 H4958 0.961 . S
C4943 H4959 0.960 . S
H4944 C4928 0.931 . S
H4945 C4933 0.929 . S
H4946 C4934 0.960 . S
H4947 C4934 0.962 . S
H4948 C4934 0.960 . S
H4949 C4935 0.961 . S
H4950 C4935 0.961 . S
H4951 C4935 0.961 . S
H4952 C4936 0.931 . S
H4953 C4941 0.930 . S
H4954 C4942 0.956 . S
H4955 C4942 0.961 . S
H4956 C4942 0.961 . S
H4957 C4943 0.958 . S
H4958 C4943 0.961 . S
H4959 C4943 0.960 . S
C4960 C4961 1.391 . S
C4960 C4962 1.394 . S
C4960 H4976 0.931 . S
C4961 C4960 1.391 . S
C4961 C4965 1.376 . S
C4962 C4960 1.394 . S
C4962 C4963 1.369 . S
C4962 C4966 1.531 . S
C4963 C4962 1.369 . S
C4963 C4964 1.410 . S
C4963 C4971 1.503 . S
C4964 C4963 1.410 . S
C4964 C4965 1.392 . S
C4964 C4967 1.511 . S
C4965 C4961 1.376 . S
C4965 C4964 1.392 . S
C4965 H4977 0.929 . S
C4966 C4962 1.531 . S
C4966 H4978 0.960 . S
C4966 H4979 0.962 . S
C4966 H4980 0.960 . S
C4967 C4964 1.511 . S
C4967 H4981 0.961 . S
C4967 H4982 0.961 . S
C4967 H4983 0.961 . S
C4968 C4969 1.370 . S
C4968 C4970 1.363 . S
C4968 H4984 0.931 . S
C4969 C4968 1.370 . S
C4969 C4973 1.408 . S
C4970 C4968 1.363 . S
C4970 C4971 1.370 . S
C4970 C4974 1.524 . S
C4971 C4963 1.503 . S
C4971 C4970 1.370 . S
C4971 C4972 1.403 . S
C4972 C4971 1.403 . S
C4972 C4973 1.404 . S
C4972 C4975 1.539 . S
C4973 C4969 1.408 . S
C4973 C4972 1.404 . S
C4973 H4985 0.930 . S
C4974 C4970 1.524 . S
C4974 H4986 0.956 . S
C4974 H4987 0.961 . S
C4974 H4988 0.961 . S
C4975 C4972 1.539 . S
C4975 H4989 0.958 . S
C4975 H4990 0.961 . S
C4975 H4991 0.960 . S
H4976 C4960 0.931 . S
H4977 C4965 0.929 . S
H4978 C4966 0.960 . S
H4979 C4966 0.962 . S
H4980 C4966 0.960 . S
H4981 C4967 0.961 . S
H4982 C4967 0.961 . S
H4983 C4967 0.961 . S
H4984 C4968 0.931 . S
H4985 C4973 0.930 . S
H4986 C4974 0.956 . S
H4987 C4974 0.961 . S
H4988 C4974 0.961 . S
H4989 C4975 0.958 . S
H4990 C4975 0.961 . S
H4991 C4975 0.960 . S
C4992 C4993 1.391 . S
C4992 C4994 1.394 . S
C4992 H5008 0.931 . S
C4993 C4992 1.391 . S
C4993 C4997 1.376 . S
C4994 C4992 1.394 . S
C4994 C4995 1.369 . S
C4994 C4998 1.531 . S
C4995 C4994 1.369 . S
C4995 C4996 1.410 . S
C4995 C5003 1.503 . S
C4996 C4995 1.410 . S
C4996 C4997 1.392 . S
C4996 C4999 1.511 . S
C4997 C4993 1.376 . S
C4997 C4996 1.392 . S
C4997 H5009 0.929 . S
C4998 C4994 1.531 . S
C4998 H5010 0.960 . S
C4998 H5011 0.962 . S
C4998 H5012 0.960 . S
C4999 C4996 1.511 . S
C4999 H5013 0.961 . S
C4999 H5014 0.961 . S
C4999 H5015 0.961 . S
C5000 C5001 1.370 . S
C5000 C5002 1.363 . S
C5000 H5016 0.931 . S
C5001 C5000 1.370 . S
C5001 C5005 1.408 . S
C5002 C5000 1.363 . S
C5002 C5003 1.370 . S
C5002 C5006 1.524 . S
C5003 C4995 1.503 . S
C5003 C5002 1.370 . S
C5003 C5004 1.403 . S
C5004 C5003 1.403 . S
C5004 C5005 1.404 . S
C5004 C5007 1.539 . S
C5005 C5001 1.408 . S
C5005 C5004 1.404 . S
C5005 H5017 0.930 . S
C5006 C5002 1.524 . S
C5006 H5018 0.956 . S
C5006 H5019 0.961 . S
C5006 H5020 0.961 . S
C5007 C5004 1.539 . S
C5007 H5021 0.958 . S
C5007 H5022 0.961 . S
C5007 H5023 0.960 . S
H5008 C4992 0.931 . S
H5009 C4997 0.929 . S
H5010 C4998 0.960 . S
H5011 C4998 0.962 . S
H5012 C4998 0.960 . S
H5013 C4999 0.961 . S
H5014 C4999 0.961 . S
H5015 C4999 0.961 . S
H5016 C5000 0.931 . S
H5017 C5005 0.930 . S
H5018 C5006 0.956 . S
H5019 C5006 0.961 . S
H5020 C5006 0.961 . S
H5021 C5007 0.958 . S
H5022 C5007 0.961 . S
H5023 C5007 0.960 . S
C5024 C5025 1.391 . S
C5024 C5026 1.394 . S
C5024 H5040 0.931 . S
C5025 C5024 1.391 . S
C5025 C5029 1.376 . S
C5026 C5024 1.394 . S
C5026 C5027 1.369 . S
C5026 C5030 1.531 . S
C5027 C5026 1.369 . S
C5027 C5028 1.410 . S
C5027 C5035 1.503 . S
C5028 C5027 1.410 . S
C5028 C5029 1.392 . S
C5028 C5031 1.511 . S
C5029 C5025 1.376 . S
C5029 C5028 1.392 . S
C5029 H5041 0.929 . S
C5030 C5026 1.531 . S
C5030 H5042 0.960 . S
C5030 H5043 0.962 . S
C5030 H5044 0.960 . S
C5031 C5028 1.511 . S
C5031 H5045 0.961 . S
C5031 H5046 0.961 . S
C5031 H5047 0.961 . S
C5032 C5033 1.370 . S
C5032 C5034 1.363 . S
C5032 H5048 0.931 . S
C5033 C5032 1.370 . S
C5033 C5037 1.408 . S
C5034 C5032 1.363 . S
C5034 C5035 1.370 . S
C5034 C5038 1.524 . S
C5035 C5027 1.503 . S
C5035 C5034 1.370 . S
C5035 C5036 1.403 . S
C5036 C5035 1.403 . S
C5036 C5037 1.404 . S
C5036 C5039 1.539 . S
C5037 C5033 1.408 . S
C5037 C5036 1.404 . S
C5037 H5049 0.930 . S
C5038 C5034 1.524 . S
C5038 H5050 0.956 . S
C5038 H5051 0.961 . S
C5038 H5052 0.961 . S
C5039 C5036 1.539 . S
C5039 H5053 0.958 . S
C5039 H5054 0.961 . S
C5039 H5055 0.960 . S
H5040 C5024 0.931 . S
H5041 C5029 0.929 . S
H5042 C5030 0.960 . S
H5043 C5030 0.962 . S
H5044 C5030 0.960 . S
H5045 C5031 0.961 . S
H5046 C5031 0.961 . S
H5047 C5031 0.961 . S
H5048 C5032 0.931 . S
H5049 C5037 0.930 . S
H5050 C5038 0.956 . S
H5051 C5038 0.961 . S
H5052 C5038 0.961 . S
H5053 C5039 0.958 . S
H5054 C5039 0.961 . S
H5055 C5039 0.960 . S
C5056 C5057 1.391 . S
C5056 C5058 1.394 . S
C5056 H5072 0.931 . S
C5057 C5056 1.391 . S
C5057 C5061 1.376 . S
C5058 C5056 1.394 . S
C5058 C5059 1.369 . S
C5058 C5062 1.531 . S
C5059 C5058 1.369 . S
C5059 C5060 1.410 . S
C5059 C5067 1.503 . S
C5060 C5059 1.410 . S
C5060 C5061 1.392 . S
C5060 C5063 1.511 . S
C5061 C5057 1.376 . S
C5061 C5060 1.392 . S
C5061 H5073 0.929 . S
C5062 C5058 1.531 . S
C5062 H5074 0.960 . S
C5062 H5075 0.962 . S
C5062 H5076 0.960 . S
C5063 C5060 1.511 . S
C5063 H5077 0.961 . S
C5063 H5078 0.961 . S
C5063 H5079 0.961 . S
C5064 C5065 1.370 . S
C5064 C5066 1.363 . S
C5064 H5080 0.931 . S
C5065 C5064 1.370 . S
C5065 C5069 1.408 . S
C5066 C5064 1.363 . S
C5066 C5067 1.370 . S
C5066 C5070 1.524 . S
C5067 C5059 1.503 . S
C5067 C5066 1.370 . S
C5067 C5068 1.403 . S
C5068 C5067 1.403 . S
C5068 C5069 1.404 . S
C5068 C5071 1.539 . S
C5069 C5065 1.408 . S
C5069 C5068 1.404 . S
C5069 H5081 0.930 . S
C5070 C5066 1.524 . S
C5070 H5082 0.956 . S
C5070 H5083 0.961 . S
C5070 H5084 0.961 . S
C5071 C5068 1.539 . S
C5071 H5085 0.958 . S
C5071 H5086 0.961 . S
C5071 H5087 0.960 . S
H5072 C5056 0.931 . S
H5073 C5061 0.929 . S
H5074 C5062 0.960 . S
H5075 C5062 0.962 . S
H5076 C5062 0.960 . S
H5077 C5063 0.961 . S
H5078 C5063 0.961 . S
H5079 C5063 0.961 . S
H5080 C5064 0.931 . S
H5081 C5069 0.930 . S
H5082 C5070 0.956 . S
H5083 C5070 0.961 . S
H5084 C5070 0.961 . S
H5085 C5071 0.958 . S
H5086 C5071 0.961 . S
H5087 C5071 0.960 . S
C5088 C5089 1.391 . S
C5088 C5090 1.394 . S
C5088 H5104 0.931 . S
C5089 C5088 1.391 . S
C5089 C5093 1.376 . S
C5090 C5088 1.394 . S
C5090 C5091 1.369 . S
C5090 C5094 1.531 . S
C5091 C5090 1.369 . S
C5091 C5092 1.410 . S
C5091 C5099 1.503 . S
C5092 C5091 1.410 . S
C5092 C5093 1.392 . S
C5092 C5095 1.511 . S
C5093 C5089 1.376 . S
C5093 C5092 1.392 . S
C5093 H5105 0.929 . S
C5094 C5090 1.531 . S
C5094 H5106 0.960 . S
C5094 H5107 0.962 . S
C5094 H5108 0.960 . S
C5095 C5092 1.511 . S
C5095 H5109 0.961 . S
C5095 H5110 0.961 . S
C5095 H5111 0.961 . S
C5096 C5097 1.370 . S
C5096 C5098 1.363 . S
C5096 H5112 0.931 . S
C5097 C5096 1.370 . S
C5097 C5101 1.408 . S
C5098 C5096 1.363 . S
C5098 C5099 1.370 . S
C5098 C5102 1.524 . S
C5099 C5091 1.503 . S
C5099 C5098 1.370 . S
C5099 C5100 1.403 . S
C5100 C5099 1.403 . S
C5100 C5101 1.404 . S
C5100 C5103 1.539 . S
C5101 C5097 1.408 . S
C5101 C5100 1.404 . S
C5101 H5113 0.930 . S
C5102 C5098 1.524 . S
C5102 H5114 0.956 . S
C5102 H5115 0.961 . S
C5102 H5116 0.961 . S
C5103 C5100 1.539 . S
C5103 H5117 0.958 . S
C5103 H5118 0.961 . S
C5103 H5119 0.960 . S
H5104 C5088 0.931 . S
H5105 C5093 0.929 . S
H5106 C5094 0.960 . S
H5107 C5094 0.962 . S
H5108 C5094 0.960 . S
H5109 C5095 0.961 . S
H5110 C5095 0.961 . S
H5111 C5095 0.961 . S
H5112 C5096 0.931 . S
H5113 C5101 0.930 . S
H5114 C5102 0.956 . S
H5115 C5102 0.961 . S
H5116 C5102 0.961 . S
H5117 C5103 0.958 . S
H5118 C5103 0.961 . S
H5119 C5103 0.960 . S
C5120 C5121 1.391 . S
C5120 C5122 1.394 . S
C5120 H5136 0.931 . S
C5121 C5120 1.391 . S
C5121 C5125 1.376 . S
C5122 C5120 1.394 . S
C5122 C5123 1.369 . S
C5122 C5126 1.531 . S
C5123 C5122 1.369 . S
C5123 C5124 1.410 . S
C5123 C5131 1.503 . S
C5124 C5123 1.410 . S
C5124 C5125 1.392 . S
C5124 C5127 1.511 . S
C5125 C5121 1.376 . S
C5125 C5124 1.392 . S
C5125 H5137 0.929 . S
C5126 C5122 1.531 . S
C5126 H5138 0.960 . S
C5126 H5139 0.962 . S
C5126 H5140 0.960 . S
C5127 C5124 1.511 . S
C5127 H5141 0.961 . S
C5127 H5142 0.961 . S
C5127 H5143 0.961 . S
C5128 C5129 1.370 . S
C5128 C5130 1.363 . S
C5128 H5144 0.931 . S
C5129 C5128 1.370 . S
C5129 C5133 1.408 . S
C5130 C5128 1.363 . S
C5130 C5131 1.370 . S
C5130 C5134 1.524 . S
C5131 C5123 1.503 . S
C5131 C5130 1.370 . S
C5131 C5132 1.403 . S
C5132 C5131 1.403 . S
C5132 C5133 1.404 . S
C5132 C5135 1.539 . S
C5133 C5129 1.408 . S
C5133 C5132 1.404 . S
C5133 H5145 0.930 . S
C5134 C5130 1.524 . S
C5134 H5146 0.956 . S
C5134 H5147 0.961 . S
C5134 H5148 0.961 . S
C5135 C5132 1.539 . S
C5135 H5149 0.958 . S
C5135 H5150 0.961 . S
C5135 H5151 0.960 . S
H5136 C5120 0.931 . S
H5137 C5125 0.929 . S
H5138 C5126 0.960 . S
H5139 C5126 0.962 . S
H5140 C5126 0.960 . S
H5141 C5127 0.961 . S
H5142 C5127 0.961 . S
H5143 C5127 0.961 . S
H5144 C5128 0.931 . S
H5145 C5133 0.930 . S
H5146 C5134 0.956 . S
H5147 C5134 0.961 . S
H5148 C5134 0.961 . S
H5149 C5135 0.958 . S
H5150 C5135 0.961 . S
H5151 C5135 0.960 . S
C5152 C5153 1.391 . S
C5152 C5154 1.394 . S
C5152 H5168 0.931 . S
C5153 C5152 1.391 . S
C5153 C5157 1.376 . S
C5154 C5152 1.394 . S
C5154 C5155 1.369 . S
C5154 C5158 1.531 . S
C5155 C5154 1.369 . S
C5155 C5156 1.410 . S
C5155 C5163 1.503 . S
C5156 C5155 1.410 . S
C5156 C5157 1.392 . S
C5156 C5159 1.511 . S
C5157 C5153 1.376 . S
C5157 C5156 1.392 . S
C5157 H5169 0.929 . S
C5158 C5154 1.531 . S
C5158 H5170 0.960 . S
C5158 H5171 0.962 . S
C5158 H5172 0.960 . S
C5159 C5156 1.511 . S
C5159 H5173 0.961 . S
C5159 H5174 0.961 . S
C5159 H5175 0.961 . S
C5160 C5161 1.370 . S
C5160 C5162 1.363 . S
C5160 H5176 0.931 . S
C5161 C5160 1.370 . S
C5161 C5165 1.408 . S
C5162 C5160 1.363 . S
C5162 C5163 1.370 . S
C5162 C5166 1.524 . S
C5163 C5155 1.503 . S
C5163 C5162 1.370 . S
C5163 C5164 1.403 . S
C5164 C5163 1.403 . S
C5164 C5165 1.404 . S
C5164 C5167 1.539 . S
C5165 C5161 1.408 . S
C5165 C5164 1.404 . S
C5165 H5177 0.930 . S
C5166 C5162 1.524 . S
C5166 H5178 0.956 . S
C5166 H5179 0.961 . S
C5166 H5180 0.961 . S
C5167 C5164 1.539 . S
C5167 H5181 0.958 . S
C5167 H5182 0.961 . S
C5167 H5183 0.960 . S
H5168 C5152 0.931 . S
H5169 C5157 0.929 . S
H5170 C5158 0.960 . S
H5171 C5158 0.962 . S
H5172 C5158 0.960 . S
H5173 C5159 0.961 . S
H5174 C5159 0.961 . S
H5175 C5159 0.961 . S
H5176 C5160 0.931 . S
H5177 C5165 0.930 . S
H5178 C5166 0.956 . S
H5179 C5166 0.961 . S
H5180 C5166 0.961 . S
H5181 C5167 0.958 . S
H5182 C5167 0.961 . S
H5183 C5167 0.960 . S
C5184 C5185 1.391 . S
C5184 C5186 1.394 . S
C5184 H5200 0.931 . S
C5185 C5184 1.391 . S
C5185 C5189 1.376 . S
C5186 C5184 1.394 . S
C5186 C5187 1.369 . S
C5186 C5190 1.531 . S
C5187 C5186 1.369 . S
C5187 C5188 1.410 . S
C5187 C5195 1.503 . S
C5188 C5187 1.410 . S
C5188 C5189 1.392 . S
C5188 C5191 1.511 . S
C5189 C5185 1.376 . S
C5189 C5188 1.392 . S
C5189 H5201 0.929 . S
C5190 C5186 1.531 . S
C5190 H5202 0.960 . S
C5190 H5203 0.962 . S
C5190 H5204 0.960 . S
C5191 C5188 1.511 . S
C5191 H5205 0.961 . S
C5191 H5206 0.961 . S
C5191 H5207 0.961 . S
C5192 C5193 1.370 . S
C5192 C5194 1.363 . S
C5192 H5208 0.931 . S
C5193 C5192 1.370 . S
C5193 C5197 1.408 . S
C5194 C5192 1.363 . S
C5194 C5195 1.370 . S
C5194 C5198 1.524 . S
C5195 C5187 1.503 . S
C5195 C5194 1.370 . S
C5195 C5196 1.403 . S
C5196 C5195 1.403 . S
C5196 C5197 1.404 . S
C5196 C5199 1.539 . S
C5197 C5193 1.408 . S
C5197 C5196 1.404 . S
C5197 H5209 0.930 . S
C5198 C5194 1.524 . S
C5198 H5210 0.956 . S
C5198 H5211 0.961 . S
C5198 H5212 0.961 . S
C5199 C5196 1.539 . S
C5199 H5213 0.958 . S
C5199 H5214 0.961 . S
C5199 H5215 0.960 . S
H5200 C5184 0.931 . S
H5201 C5189 0.929 . S
H5202 C5190 0.960 . S
H5203 C5190 0.962 . S
H5204 C5190 0.960 . S
H5205 C5191 0.961 . S
H5206 C5191 0.961 . S
H5207 C5191 0.961 . S
H5208 C5192 0.931 . S
H5209 C5197 0.930 . S
H5210 C5198 0.956 . S
H5211 C5198 0.961 . S
H5212 C5198 0.961 . S
H5213 C5199 0.958 . S
H5214 C5199 0.961 . S
H5215 C5199 0.960 . S
C5216 C5217 1.391 . S
C5216 C5218 1.394 . S
C5216 H5232 0.931 . S
C5217 C5216 1.391 . S
C5217 C5221 1.376 . S
C5218 C5216 1.394 . S
C5218 C5219 1.369 . S
C5218 C5222 1.531 . S
C5219 C5218 1.369 . S
C5219 C5220 1.410 . S
C5219 C5227 1.503 . S
C5220 C5219 1.410 . S
C5220 C5221 1.392 . S
C5220 C5223 1.511 . S
C5221 C5217 1.376 . S
C5221 C5220 1.392 . S
C5221 H5233 0.929 . S
C5222 C5218 1.531 . S
C5222 H5234 0.960 . S
C5222 H5235 0.962 . S
C5222 H5236 0.960 . S
C5223 C5220 1.511 . S
C5223 H5237 0.961 . S
C5223 H5238 0.961 . S
C5223 H5239 0.961 . S
C5224 C5225 1.370 . S
C5224 C5226 1.363 . S
C5224 H5240 0.931 . S
C5225 C5224 1.370 . S
C5225 C5229 1.408 . S
C5226 C5224 1.363 . S
C5226 C5227 1.370 . S
C5226 C5230 1.524 . S
C5227 C5219 1.503 . S
C5227 C5226 1.370 . S
C5227 C5228 1.403 . S
C5228 C5227 1.403 . S
C5228 C5229 1.404 . S
C5228 C5231 1.539 . S
C5229 C5225 1.408 . S
C5229 C5228 1.404 . S
C5229 H5241 0.930 . S
C5230 C5226 1.524 . S
C5230 H5242 0.956 . S
C5230 H5243 0.961 . S
C5230 H5244 0.961 . S
C5231 C5228 1.539 . S
C5231 H5245 0.958 . S
C5231 H5246 0.961 . S
C5231 H5247 0.960 . S
H5232 C5216 0.931 . S
H5233 C5221 0.929 . S
H5234 C5222 0.960 . S
H5235 C5222 0.962 . S
H5236 C5222 0.960 . S
H5237 C5223 0.961 . S
H5238 C5223 0.961 . S
H5239 C5223 0.961 . S
H5240 C5224 0.931 . S
H5241 C5229 0.930 . S
H5242 C5230 0.956 . S
H5243 C5230 0.961 . S
H5244 C5230 0.961 . S
H5245 C5231 0.958 . S
H5246 C5231 0.961 . S
H5247 C5231 0.960 . S
C5248 C5249 1.391 . S
C5248 C5250 1.394 . S
C5248 H5264 0.931 . S
C5249 C5248 1.391 . S
C5249 C5253 1.376 . S
C5250 C5248 1.394 . S
C5250 C5251 1.369 . S
C5250 C5254 1.531 . S
C5251 C5250 1.369 . S
C5251 C5252 1.410 . S
C5251 C5259 1.503 . S
C5252 C5251 1.410 . S
C5252 C5253 1.392 . S
C5252 C5255 1.511 . S
C5253 C5249 1.376 . S
C5253 C5252 1.392 . S
C5253 H5265 0.929 . S
C5254 C5250 1.531 . S
C5254 H5266 0.960 . S
C5254 H5267 0.962 . S
C5254 H5268 0.960 . S
C5255 C5252 1.511 . S
C5255 H5269 0.961 . S
C5255 H5270 0.961 . S
C5255 H5271 0.961 . S
C5256 C5257 1.370 . S
C5256 C5258 1.363 . S
C5256 H5272 0.931 . S
C5257 C5256 1.370 . S
C5257 C5261 1.408 . S
C5258 C5256 1.363 . S
C5258 C5259 1.370 . S
C5258 C5262 1.524 . S
C5259 C5251 1.503 . S
C5259 C5258 1.370 . S
C5259 C5260 1.403 . S
C5260 C5259 1.403 . S
C5260 C5261 1.404 . S
C5260 C5263 1.539 . S
C5261 C5257 1.408 . S
C5261 C5260 1.404 . S
C5261 H5273 0.930 . S
C5262 C5258 1.524 . S
C5262 H5274 0.956 . S
C5262 H5275 0.961 . S
C5262 H5276 0.961 . S
C5263 C5260 1.539 . S
C5263 H5277 0.958 . S
C5263 H5278 0.961 . S
C5263 H5279 0.960 . S
H5264 C5248 0.931 . S
H5265 C5253 0.929 . S
H5266 C5254 0.960 . S
H5267 C5254 0.962 . S
H5268 C5254 0.960 . S
H5269 C5255 0.961 . S
H5270 C5255 0.961 . S
H5271 C5255 0.961 . S
H5272 C5256 0.931 . S
H5273 C5261 0.930 . S
H5274 C5262 0.956 . S
H5275 C5262 0.961 . S
H5276 C5262 0.961 . S
H5277 C5263 0.958 . S
H5278 C5263 0.961 . S
H5279 C5263 0.960 . S
C5280 C5281 1.391 . S
C5280 C5282 1.394 . S
C5280 H5296 0.931 . S
C5281 C5280 1.391 . S
C5281 C5285 1.376 . S
C5282 C5280 1.394 . S
C5282 C5283 1.369 . S
C5282 C5286 1.531 . S
C5283 C5282 1.369 . S
C5283 C5284 1.410 . S
C5283 C5291 1.503 . S
C5284 C5283 1.410 . S
C5284 C5285 1.392 . S
C5284 C5287 1.511 . S
C5285 C5281 1.376 . S
C5285 C5284 1.392 . S
C5285 H5297 0.929 . S
C5286 C5282 1.531 . S
C5286 H5298 0.960 . S
C5286 H5299 0.962 . S
C5286 H5300 0.960 . S
C5287 C5284 1.511 . S
C5287 H5301 0.961 . S
C5287 H5302 0.961 . S
C5287 H5303 0.961 . S
C5288 C5289 1.370 . S
C5288 C5290 1.363 . S
C5288 H5304 0.931 . S
C5289 C5288 1.370 . S
C5289 C5293 1.408 . S
C5290 C5288 1.363 . S
C5290 C5291 1.370 1_565 S
C5290 C5294 1.524 1_565 S
C5291 C5283 1.503 . S
C5291 C5290 1.370 1_545 S
C5291 C5292 1.403 . S
C5292 C5291 1.403 . S
C5292 C5293 1.404 1_545 S
C5292 C5295 1.539 . S
C5293 C5289 1.408 . S
C5293 C5292 1.404 1_565 S
C5293 H5305 0.930 . S
C5294 C5290 1.524 1_545 S
C5294 H5306 0.956 . S
C5294 H5307 0.961 . S
C5294 H5308 0.961 1_545 S
C5295 C5292 1.539 . S
C5295 H5309 0.958 . S
C5295 H5310 0.961 . S
C5295 H5311 0.960 . S
H5296 C5280 0.931 . S
H5297 C5285 0.929 . S
H5298 C5286 0.960 . S
H5299 C5286 0.962 . S
H5300 C5286 0.960 . S
H5301 C5287 0.961 . S
H5302 C5287 0.961 . S
H5303 C5287 0.961 . S
H5304 C5288 0.931 . S
H5305 C5293 0.930 . S
H5306 C5294 0.956 . S
H5307 C5294 0.961 . S
H5308 C5294 0.961 1_565 S
H5309 C5295 0.958 . S
H5310 C5295 0.961 . S
H5311 C5295 0.960 . S
C5312 C5313 1.391 . S
C5312 C5314 1.394 . S
C5312 H5328 0.931 . S
C5313 C5312 1.391 . S
C5313 C5317 1.376 . S
C5314 C5312 1.394 . S
C5314 C5315 1.369 . S
C5314 C5318 1.531 . S
C5315 C5314 1.369 . S
C5315 C5316 1.410 . S
C5315 C5323 1.503 . S
C5316 C5315 1.410 . S
C5316 C5317 1.392 . S
C5316 C5319 1.511 . S
C5317 C5313 1.376 . S
C5317 C5316 1.392 . S
C5317 H5329 0.929 . S
C5318 C5314 1.531 . S
C5318 H5330 0.960 . S
C5318 H5331 0.962 . S
C5318 H5332 0.960 . S
C5319 C5316 1.511 . S
C5319 H5333 0.961 . S
C5319 H5334 0.961 . S
C5319 H5335 0.961 . S
C5320 C5321 1.370 . S
C5320 C5322 1.363 . S
C5320 H5336 0.931 . S
C5321 C5320 1.370 . S
C5321 C5325 1.408 . S
C5322 C5320 1.363 . S
C5322 C5323 1.370 . S
C5322 C5326 1.524 . S
C5323 C5315 1.503 . S
C5323 C5322 1.370 . S
C5323 C5324 1.403 . S
C5324 C5323 1.403 . S
C5324 C5325 1.404 . S
C5324 C5327 1.539 . S
C5325 C5321 1.408 . S
C5325 C5324 1.404 . S
C5325 H5337 0.930 . S
C5326 C5322 1.524 . S
C5326 H5338 0.956 . S
C5326 H5339 0.961 . S
C5326 H5340 0.961 . S
C5327 C5324 1.539 . S
C5327 H5341 0.958 . S
C5327 H5342 0.961 . S
C5327 H5343 0.960 . S
H5328 C5312 0.931 . S
H5329 C5317 0.929 . S
H5330 C5318 0.960 . S
H5331 C5318 0.962 . S
H5332 C5318 0.960 . S
H5333 C5319 0.961 . S
H5334 C5319 0.961 . S
H5335 C5319 0.961 . S
H5336 C5320 0.931 . S
H5337 C5325 0.930 . S
H5338 C5326 0.956 . S
H5339 C5326 0.961 . S
H5340 C5326 0.961 . S
H5341 C5327 0.958 . S
H5342 C5327 0.961 . S
H5343 C5327 0.960 . S
C5344 C5345 1.391 . S
C5344 C5346 1.394 . S
C5344 H5360 0.931 . S
C5345 C5344 1.391 . S
C5345 C5349 1.376 . S
C5346 C5344 1.394 . S
C5346 C5347 1.369 1_545 S
C5346 C5350 1.531 1_545 S
C5347 C5346 1.369 1_565 S
C5347 C5348 1.410 . S
C5347 C5355 1.503 . S
C5348 C5347 1.410 . S
C5348 C5349 1.392 1_565 S
C5348 C5351 1.511 . S
C5349 C5345 1.376 . S
C5349 C5348 1.392 1_545 S
C5349 H5361 0.929 . S
C5350 C5346 1.531 1_565 S
C5350 H5362 0.960 . S
C5350 H5363 0.962 . S
C5350 H5364 0.960 1_565 S
C5351 C5348 1.511 . S
C5351 H5365 0.961 . S
C5351 H5366 0.961 . S
C5351 H5367 0.961 . S
C5352 C5353 1.370 . S
C5352 C5354 1.363 . S
C5352 H5368 0.931 . S
C5353 C5352 1.370 . S
C5353 C5357 1.408 . S
C5354 C5352 1.363 . S
C5354 C5355 1.370 . S
C5354 C5358 1.524 . S
C5355 C5347 1.503 . S
C5355 C5354 1.370 . S
C5355 C5356 1.403 . S
C5356 C5355 1.403 . S
C5356 C5357 1.404 . S
C5356 C5359 1.539 . S
C5357 C5353 1.408 . S
C5357 C5356 1.404 . S
C5357 H5369 0.930 . S
C5358 C5354 1.524 . S
C5358 H5370 0.956 . S
C5358 H5371 0.961 . S
C5358 H5372 0.961 . S
C5359 C5356 1.539 . S
C5359 H5373 0.958 . S
C5359 H5374 0.961 . S
C5359 H5375 0.960 . S
H5360 C5344 0.931 . S
H5361 C5349 0.929 . S
H5362 C5350 0.960 . S
H5363 C5350 0.962 . S
H5364 C5350 0.960 1_545 S
H5365 C5351 0.961 . S
H5366 C5351 0.961 . S
H5367 C5351 0.961 . S
H5368 C5352 0.931 . S
H5369 C5357 0.930 . S
H5370 C5358 0.956 . S
H5371 C5358 0.961 . S
H5372 C5358 0.961 . S
H5373 C5359 0.958 . S
H5374 C5359 0.961 . S
H5375 C5359 0.960 . S
C5376 C5377 1.391 . S
C5376 C5378 1.394 . S
C5376 H5392 0.931 . S
C5377 C5376 1.391 . S
C5377 C5381 1.376 . S
C5378 C5376 1.394 . S
C5378 C5379 1.369 . S
C5378 C5382 1.531 . S
C5379 C5378 1.369 . S
C5379 C5380 1.410 . S
C5379 C5387 1.503 . S
C5380 C5379 1.410 . S
C5380 C5381 1.392 . S
C5380 C5383 1.511 . S
C5381 C5377 1.376 . S
C5381 C5380 1.392 . S
C5381 H5393 0.929 . S
C5382 C5378 1.531 . S
C5382 H5394 0.960 . S
C5382 H5395 0.962 . S
C5382 H5396 0.960 . S
C5383 C5380 1.511 . S
C5383 H5397 0.961 . S
C5383 H5398 0.961 . S
C5383 H5399 0.961 . S
C5384 C5385 1.370 . S
C5384 C5386 1.363 . S
C5384 H5400 0.931 . S
C5385 C5384 1.370 . S
C5385 C5389 1.408 . S
C5386 C5384 1.363 . S
C5386 C5387 1.370 . S
C5386 C5390 1.524 . S
C5387 C5379 1.503 . S
C5387 C5386 1.370 . S
C5387 C5388 1.403 . S
C5388 C5387 1.403 . S
C5388 C5389 1.404 . S
C5388 C5391 1.539 . S
C5389 C5385 1.408 . S
C5389 C5388 1.404 . S
C5389 H5401 0.930 . S
C5390 C5386 1.524 . S
C5390 H5402 0.956 . S
C5390 H5403 0.961 . S
C5390 H5404 0.961 . S
C5391 C5388 1.539 . S
C5391 H5405 0.958 . S
C5391 H5406 0.961 . S
C5391 H5407 0.960 . S
H5392 C5376 0.931 . S
H5393 C5381 0.929 . S
H5394 C5382 0.960 . S
H5395 C5382 0.962 . S
H5396 C5382 0.960 . S
H5397 C5383 0.961 . S
H5398 C5383 0.961 . S
H5399 C5383 0.961 . S
H5400 C5384 0.931 . S
H5401 C5389 0.930 . S
H5402 C5390 0.956 . S
H5403 C5390 0.961 . S
H5404 C5390 0.961 . S
H5405 C5391 0.958 . S
H5406 C5391 0.961 . S
H5407 C5391 0.960 . S
C5408 C5409 1.391 . S
C5408 C5410 1.394 1_545 S
C5408 H5424 0.931 . S
C5409 C5408 1.391 . S
C5409 C5413 1.376 . S
C5410 C5408 1.394 1_565 S
C5410 C5411 1.369 . S
C5410 C5414 1.531 . S
C5411 C5410 1.369 . S
C5411 C5412 1.410 1_565 S
C5411 C5419 1.503 . S
C5412 C5411 1.410 1_545 S
C5412 C5413 1.392 . S
C5412 C5415 1.522 . S
C5413 C5409 1.376 . S
C5413 C5412 1.392 . S
C5413 H5425 0.929 . S
C5414 C5410 1.531 . S
C5414 H5426 0.960 . S
C5414 H5427 0.962 . S
C5414 H5428 0.960 . S
C5415 C5412 1.522 . S
C5415 H5429 0.999 . S
C5415 H5430 0.913 1_545 S
C5415 H5431 0.963 . S
C5416 C5417 1.370 . S
C5416 C5418 1.363 . S
C5416 H5432 0.931 . S
C5417 C5416 1.370 . S
C5417 C5421 1.408 . S
C5418 C5416 1.363 . S
C5418 C5419 1.370 . S
C5418 C5422 1.524 . S
C5419 C5411 1.503 . S
C5419 C5418 1.370 . S
C5419 C5420 1.403 . S
C5420 C5419 1.403 . S
C5420 C5421 1.404 . S
C5420 C5423 1.539 . S
C5421 C5417 1.408 . S
C5421 C5420 1.404 . S
C5421 H5433 0.930 . S
C5422 C5418 1.524 . S
C5422 H5434 0.956 . S
C5422 H5435 0.961 . S
C5422 H5436 0.961 . S
C5423 C5420 1.539 . S
C5423 H5437 0.958 . S
C5423 H5438 0.961 . S
C5423 H5439 0.960 . S
H5424 C5408 0.931 . S
H5425 C5413 0.929 . S
H5426 C5414 0.960 . S
H5427 C5414 0.962 . S
H5428 C5414 0.960 . S
H5429 C5415 0.999 . S
H5430 C5415 0.913 1_565 S
H5431 C5415 0.963 . S
H5432 C5416 0.931 . S
H5433 C5421 0.930 . S
H5434 C5422 0.956 . S
H5435 C5422 0.961 . S
H5436 C5422 0.961 . S
H5437 C5423 0.958 . S
H5438 C5423 0.961 . S
H5439 C5423 0.960 . S
C5440 C5441 1.391 . S
C5440 C5442 1.394 . S
C5440 H5456 0.931 . S
C5441 C5440 1.391 . S
C5441 C5445 1.376 . S
C5442 C5440 1.394 . S
C5442 C5443 1.369 . S
C5442 C5446 1.531 . S
C5443 C5442 1.369 . S
C5443 C5444 1.410 . S
C5443 C5451 1.503 . S
C5444 C5443 1.410 . S
C5444 C5445 1.392 . S
C5444 C5447 1.511 . S
C5445 C5441 1.376 . S
C5445 C5444 1.392 . S
C5445 H5457 0.929 . S
C5446 C5442 1.531 . S
C5446 H5458 0.960 . S
C5446 H5459 0.962 . S
C5446 H5460 0.960 . S
C5447 C5444 1.511 . S
C5447 H5461 0.961 . S
C5447 H5462 0.961 . S
C5447 H5463 0.961 . S
C5448 C5449 1.370 . S
C5448 C5450 1.363 . S
C5448 H5464 0.931 . S
C5449 C5448 1.370 . S
C5449 C5453 1.408 . S
C5450 C5448 1.363 . S
C5450 C5451 1.370 . S
C5450 C5454 1.524 . S
C5451 C5443 1.503 . S
C5451 C5450 1.370 . S
C5451 C5452 1.403 . S
C5452 C5451 1.403 . S
C5452 C5453 1.404 . S
C5452 C5455 1.539 . S
C5453 C5449 1.408 . S
C5453 C5452 1.404 . S
C5453 H5465 0.930 . S
C5454 C5450 1.524 . S
C5454 H5466 0.956 . S
C5454 H5467 0.961 . S
C5454 H5468 0.961 . S
C5455 C5452 1.539 . S
C5455 H5469 0.958 . S
C5455 H5470 0.961 . S
C5455 H5471 0.960 . S
H5456 C5440 0.931 . S
H5457 C5445 0.929 . S
H5458 C5446 0.960 . S
H5459 C5446 0.962 . S
H5460 C5446 0.960 . S
H5461 C5447 0.961 . S
H5462 C5447 0.961 . S
H5463 C5447 0.961 . S
H5464 C5448 0.931 . S
H5465 C5453 0.930 . S
H5466 C5454 0.956 . S
H5467 C5454 0.961 . S
H5468 C5454 0.961 . S
H5469 C5455 0.958 . S
H5470 C5455 0.961 . S
H5471 C5455 0.960 . S
C1633 C549 1.245 . S
C1641 C33 1.212 . S
C1665 C1603 1.200 . S
C1673 C67 1.223 . S
C1697 C101 1.183 . S
C1705 C1535 1.228 . S
C1729 C135 1.214 . S
C1737 C1569 1.213 . S
C1761 C169 1.183 . S
C1769 C583 1.228 . S
C1793 C617 1.207 . S
C1801 C203 1.220 . S
C1825 C651 1.189 . S
C1833 C237 1.223 . S
C1857 C1501 1.191 . S
C1865 C271 1.230 . S
C1889 C305 1.217 . S
C1897 C5 1.206 . S
C1921 C39 1.193 . S
C1929 C339 1.230 . S
C1953 C373 1.217 . S
C1961 C73 1.206 . S
C1985 C107 1.205 . S
C1993 C407 1.225 . S
C2017 C441 1.185 . S
C2025 C141 1.223 . S
C2049 C475 1.252 . S
C2057 C175 1.197 . S
C2081 C209 1.178 . S
C2089 C509 1.235 . S
C2113 C243 1.246 . S
C2121 C543 1.206 . S
C2145 C277 1.238 . S
C2153 C577 1.207 . S
C2177 C413 1.188 . S
C2185 C611 1.234 . S
C2209 C447 1.181 . S
C2217 C645 1.230 . S
C2241 C481 1.184 . S
C2249 C679 1.235 . S
C2273 C1331 1.227 . S
C2281 C713 1.212 . S
C2305 C747 1.229 . S
C2313 C1161 1.202 . S
C2337 C1195 1.207 . S
C2345 C781 1.220 . S
C2369 C815 1.200 . S
C2377 C1127 1.219 . S
C2401 C849 1.187 . S
C2409 C1365 1.222 . S
C2433 C883 1.231 . S
C2441 C787 1.210 . S
C2465 C719 1.189 . S
C2473 C917 1.222 . S
C2497 C753 1.188 . S
C2505 C951 1.231 . S
C2529 C1399 1.233 . S
C2537 C985 1.219 . S
C2561 C1019 1.192 . S
C2569 C1433 1.223 . S
C2593 C1467 1.173 . S
C2601 C1053 1.235 . S
C2625 C1087 1.216 . S
C2633 C685 1.217 . S
C2657 C821 1.191 . S
C2665 C1121 1.233 . S
C2689 C855 1.182 . S
C2697 C1155 1.233 . S
C2721 C1189 1.245 . S
C2729 C889 1.197 . S
C2753 C1223 1.201 . S
C2761 C923 1.223 . S
C2785 C1257 1.221 . S
C2793 C957 1.205 . S
C2817 C991 1.248 . S
C2825 C1291 1.206 . S
C2849 C1325 1.226 . S
C2857 C1025 1.203 . S
C2881 C1059 1.230 . S
C2889 C1359 1.211 . S
C2913 C1093 1.194 . S
C2921 C1393 1.220 . S
C2945 C1427 1.216 . S
C2953 C1229 1.207 . S
C2977 C1263 1.210 . S
C2985 C1461 1.219 . S
C3009 C1297 1.197 . S
C3017 C1495 1.232 . S
C3041 C1529 1.240 . S
C3049 C515 1.205 . S
C3073 C1563 1.187 . S
C3081 C345 1.229 . S
C3105 C1597 1.232 . S
C3113 C379 1.209 . S
C3137 C311 1.172 . S
C3145 C1631 1.235 . S
C3169 C20 1.286 . S
C3177 C156 1.327 . S
C3201 C54 1.336 . S
C3209 C190 1.316 . S
C3233 C224 1.338 . S
C3241 C88 1.319 . S
C3265 C258 1.288 . S
C3273 C122 1.332 . S
C3297 C1312 1.336 . S
C3305 C292 1.307 . S
C3329 C1346 1.334 . S
C3337 C326 1.308 . S
C3361 C1244 1.333 . S
C3369 C360 1.307 . S
C3393 C394 1.337 . S
C3401 C1278 1.308 . S
C3425 C428 1.319 . S
C3433 C1176 1.327 . S
C3457 C462 1.291 . S
C3465 C1210 1.332 . S
C3489 C496 1.294 . S
C3497 C1108 1.332 . S
C3521 C530 1.287 . S
C3529 C1142 1.329 . S
C3553 C1550 1.328 . S
C3561 C564 1.324 . S
C3585 C666 1.323 . S
C3593 C598 1.326 . S
C3617 C1516 1.316 . S
C3625 C632 1.314 . S
C3649 C1448 1.287 . S
C3657 C700 1.331 . S
C3681 C734 1.304 . S
C3689 C1380 1.315 . S
C3713 C768 1.323 . S
C3721 C802 1.322 . S
C3745 C972 1.345 . S
C3753 C836 1.309 . S
C3777 C1006 1.290 . S
C3785 C870 1.332 . S
C3809 C904 1.287 . S
C3817 C1040 1.326 . S
C3841 C1074 1.327 . S
C3849 C938 1.320 . S
C3873 C1414 1.304 . S
C3881 C1482 1.331 . S
C3905 C1618 1.327 . S
C3913 C1584 1.310 . S
C3937 C2 1.513 . S
C3945 C927 1.421 . S
C3969 C36 1.485 . S
C3977 C825 1.416 . S
C4001 C70 1.453 . S
C4009 C859 1.432 . S
C4033 C893 1.464 . S
C4041 C104 1.480 . S
C4065 C138 1.458 . S
C4073 C179 1.426 . S
C4097 C213 1.387 . S
C4105 C172 1.492 . S
C4129 C247 1.379 . S
C4137 C206 1.494 . S
C4161 C240 1.514 . S
C4169 C145 1.410 . S
C4193 C1437 1.413 . S
C4201 C274 1.499 . S
C4225 C308 1.494 . S
C4233 C1471 1.412 . S
C4257 C689 1.410 . S
C4265 C342 1.500 . S
C4289 C376 1.468 . S
C4297 C1403 1.444 . S
C4321 C410 1.485 . S
C4329 C1573 1.412 . S
C4353 C444 1.468 . S
C4361 C553 1.425 . S
C4385 C1607 1.411 . S
C4393 C478 1.499 . S
C4417 C1539 1.459 . S
C4425 C512 1.474 . S
C4449 C315 1.396 . S
C4457 C546 1.484 . S
C4481 C580 1.476 . S
C4489 C1335 1.444 . S
C4513 C614 1.495 . S
C4521 C1233 1.432 . S
C4545 C648 1.475 . S
C4553 C1267 1.444 . S
C4577 C485 1.398 . S
C4585 C682 1.487 . S
C4609 C716 1.458 . S
C4617 C1199 1.427 . S
C4641 C750 1.457 . S
C4649 C1097 1.446 . S
C4673 C1165 1.457 . S
C4681 C784 1.484 . S
C4705 C818 1.477 . S
C4713 C111 1.444 . S
C4737 C852 1.452 . S
C4745 C9 1.441 . S
C4769 C886 1.457 . S
C4777 C43 1.444 . S
C4801 C920 1.514 . S
C4809 C77 1.415 . S
C4833 C954 1.453 . S
C4841 C995 1.433 . S
C4865 C988 1.466 . S
C4873 C1029 1.427 . S
C4897 C1022 1.454 . S
C4905 C1063 1.443 . S
C4929 C961 1.387 . S
C4937 C1056 1.492 . S
C4961 C1090 1.477 . S
C4969 C621 1.444 . S
C4993 C1124 1.515 . S
C5001 C655 1.411 . S
C5025 C1158 1.463 . S
C5033 C1505 1.423 . S
C5057 C587 1.398 . S
C5065 C1192 1.499 . S
C5089 C757 1.435 . S
C5097 C1226 1.475 . S
C5121 C1260 1.502 . S
C5129 C1369 1.427 . S
C5153 C1294 1.488 . S
C5161 C791 1.411 . S
C5185 C1328 1.474 . S
C5193 C723 1.442 . S
C5217 C1131 1.417 . S
C5225 C1362 1.499 . S
C5249 C1396 1.513 . S
C5257 C519 1.411 . S
C5281 C1430 1.514 . S
C5289 C417 1.415 . S
C5313 C1464 1.486 . S
C5321 C451 1.411 . S
C5345 C1301 1.387 . S
C5353 C1498 1.492 . S
C5377 C383 1.391 . S
C5385 C1532 1.500 . S
C5409 C281 1.440 . S
C5417 C1566 1.490 . S
C5441 C349 1.457 . S
C5449 C1600 1.484 . S
