# Generated by pormake.
# Topology uox, (4)-cn, num edge types: 1
# Building blocks:
#     Node 0, Type 0, BuildingBlock: QUQFOY_clean_sbu_3, # of connection points: 4
#     Node 1, Type 0, BuildingBlock: QUQFOY_clean_sbu_3, # of connection points: 4
#     Node 2, Type 0, BuildingBlock: QUQFOY_clean_sbu_3, # of connection points: 4
#     Node 3, Type 0, BuildingBlock: QUQFOY_clean_sbu_3, # of connection points: 4
#     Node 4, Type 0, BuildingBlock: QUQFOY_clean_sbu_3, # of connection points: 4
#     Node 5, Type 0, BuildingBlock: QUQFOY_clean_sbu_3, # of connection points: 4
#     Node 6, Type 0, BuildingBlock: QUQFOY_clean_sbu_3, # of connection points: 4
#     Node 7, Type 0, BuildingBlock: QUQFOY_clean_sbu_3, # of connection points: 4
#     Node 8, Type 0, BuildingBlock: QUQFOY_clean_sbu_3, # of connection points: 4
#     Node 9, Type 0, BuildingBlock: QUQFOY_clean_sbu_3, # of connection points: 4
#     Node 10, Type 0, BuildingBlock: QUQFOY_clean_sbu_3, # of connection points: 4
#     Node 11, Type 0, BuildingBlock: QUQFOY_clean_sbu_3, # of connection points: 4
#     Node 12, Type 0, BuildingBlock: QUQFOY_clean_sbu_3, # of connection points: 4
#     Node 13, Type 0, BuildingBlock: QUQFOY_clean_sbu_3, # of connection points: 4
#     Node 14, Type 0, BuildingBlock: QUQFOY_clean_sbu_3, # of connection points: 4
#     Node 15, Type 0, BuildingBlock: QUQFOY_clean_sbu_3, # of connection points: 4
#     Node 16, Type 0, BuildingBlock: QUQFOY_clean_sbu_3, # of connection points: 4
#     Node 17, Type 0, BuildingBlock: QUQFOY_clean_sbu_3, # of connection points: 4
#     Node 18, Type 0, BuildingBlock: QUQFOY_clean_sbu_3, # of connection points: 4
#     Node 19, Type 0, BuildingBlock: QUQFOY_clean_sbu_3, # of connection points: 4
#     Node 20, Type 0, BuildingBlock: QUQFOY_clean_sbu_3, # of connection points: 4
#     Node 21, Type 0, BuildingBlock: QUQFOY_clean_sbu_3, # of connection points: 4
#     Node 22, Type 0, BuildingBlock: QUQFOY_clean_sbu_3, # of connection points: 4
#     Node 23, Type 0, BuildingBlock: QUQFOY_clean_sbu_3, # of connection points: 4
#     Node 24, Type 0, BuildingBlock: QUQFOY_clean_sbu_3, # of connection points: 4
#     Node 25, Type 0, BuildingBlock: QUQFOY_clean_sbu_3, # of connection points: 4
#     Node 26, Type 0, BuildingBlock: QUQFOY_clean_sbu_3, # of connection points: 4
#     Node 27, Type 0, BuildingBlock: QUQFOY_clean_sbu_3, # of connection points: 4
#     Node 28, Type 0, BuildingBlock: QUQFOY_clean_sbu_3, # of connection points: 4
#     Node 29, Type 0, BuildingBlock: QUQFOY_clean_sbu_3, # of connection points: 4
#     Node 30, Type 0, BuildingBlock: QUQFOY_clean_sbu_3, # of connection points: 4
#     Node 31, Type 0, BuildingBlock: QUQFOY_clean_sbu_3, # of connection points: 4
#     Edge 32, Type (0, 0), BuildingBlock: XIVTED_clean_linker_0, # of connection points: 2
#     Edge 33, Type (0, 0), BuildingBlock: XIVTED_clean_linker_0, # of connection points: 2
#     Edge 34, Type (0, 0), BuildingBlock: XIVTED_clean_linker_0, # of connection points: 2
#     Edge 35, Type (0, 0), BuildingBlock: XIVTED_clean_linker_0, # of connection points: 2
#     Edge 36, Type (0, 0), BuildingBlock: XIVTED_clean_linker_0, # of connection points: 2
#     Edge 37, Type (0, 0), BuildingBlock: XIVTED_clean_linker_0, # of connection points: 2
#     Edge 38, Type (0, 0), BuildingBlock: XIVTED_clean_linker_0, # of connection points: 2
#     Edge 39, Type (0, 0), BuildingBlock: XIVTED_clean_linker_0, # of connection points: 2
#     Edge 40, Type (0, 0), BuildingBlock: XIVTED_clean_linker_0, # of connection points: 2
#     Edge 41, Type (0, 0), BuildingBlock: XIVTED_clean_linker_0, # of connection points: 2
#     Edge 42, Type (0, 0), BuildingBlock: XIVTED_clean_linker_0, # of connection points: 2
#     Edge 43, Type (0, 0), BuildingBlock: XIVTED_clean_linker_0, # of connection points: 2
#     Edge 44, Type (0, 0), BuildingBlock: XIVTED_clean_linker_0, # of connection points: 2
#     Edge 45, Type (0, 0), BuildingBlock: XIVTED_clean_linker_0, # of connection points: 2
#     Edge 46, Type (0, 0), BuildingBlock: XIVTED_clean_linker_0, # of connection points: 2
#     Edge 47, Type (0, 0), BuildingBlock: XIVTED_clean_linker_0, # of connection points: 2
#     Edge 48, Type (0, 0), BuildingBlock: XIVTED_clean_linker_0, # of connection points: 2
#     Edge 49, Type (0, 0), BuildingBlock: XIVTED_clean_linker_0, # of connection points: 2
#     Edge 50, Type (0, 0), BuildingBlock: XIVTED_clean_linker_0, # of connection points: 2
#     Edge 51, Type (0, 0), BuildingBlock: XIVTED_clean_linker_0, # of connection points: 2
#     Edge 52, Type (0, 0), BuildingBlock: XIVTED_clean_linker_0, # of connection points: 2
#     Edge 53, Type (0, 0), BuildingBlock: XIVTED_clean_linker_0, # of connection points: 2
#     Edge 54, Type (0, 0), BuildingBlock: XIVTED_clean_linker_0, # of connection points: 2
#     Edge 55, Type (0, 0), BuildingBlock: XIVTED_clean_linker_0, # of connection points: 2
#     Edge 56, Type (0, 0), BuildingBlock: XIVTED_clean_linker_0, # of connection points: 2
#     Edge 57, Type (0, 0), BuildingBlock: XIVTED_clean_linker_0, # of connection points: 2
#     Edge 58, Type (0, 0), BuildingBlock: XIVTED_clean_linker_0, # of connection points: 2
#     Edge 59, Type (0, 0), BuildingBlock: XIVTED_clean_linker_0, # of connection points: 2
#     Edge 60, Type (0, 0), BuildingBlock: XIVTED_clean_linker_0, # of connection points: 2
#     Edge 61, Type (0, 0), BuildingBlock: XIVTED_clean_linker_0, # of connection points: 2
#     Edge 62, Type (0, 0), BuildingBlock: XIVTED_clean_linker_0, # of connection points: 2
#     Edge 63, Type (0, 0), BuildingBlock: XIVTED_clean_linker_0, # of connection points: 2
#     Edge 64, Type (0, 0), BuildingBlock: XIVTED_clean_linker_0, # of connection points: 2
#     Edge 65, Type (0, 0), BuildingBlock: XIVTED_clean_linker_0, # of connection points: 2
#     Edge 66, Type (0, 0), BuildingBlock: XIVTED_clean_linker_0, # of connection points: 2
#     Edge 67, Type (0, 0), BuildingBlock: XIVTED_clean_linker_0, # of connection points: 2
#     Edge 68, Type (0, 0), BuildingBlock: XIVTED_clean_linker_0, # of connection points: 2
#     Edge 69, Type (0, 0), BuildingBlock: XIVTED_clean_linker_0, # of connection points: 2
#     Edge 70, Type (0, 0), BuildingBlock: XIVTED_clean_linker_0, # of connection points: 2
#     Edge 71, Type (0, 0), BuildingBlock: XIVTED_clean_linker_0, # of connection points: 2
#     Edge 72, Type (0, 0), BuildingBlock: XIVTED_clean_linker_0, # of connection points: 2
#     Edge 73, Type (0, 0), BuildingBlock: XIVTED_clean_linker_0, # of connection points: 2
#     Edge 74, Type (0, 0), BuildingBlock: XIVTED_clean_linker_0, # of connection points: 2
#     Edge 75, Type (0, 0), BuildingBlock: XIVTED_clean_linker_0, # of connection points: 2
#     Edge 76, Type (0, 0), BuildingBlock: XIVTED_clean_linker_0, # of connection points: 2
#     Edge 77, Type (0, 0), BuildingBlock: XIVTED_clean_linker_0, # of connection points: 2
#     Edge 78, Type (0, 0), BuildingBlock: XIVTED_clean_linker_0, # of connection points: 2
#     Edge 79, Type (0, 0), BuildingBlock: XIVTED_clean_linker_0, # of connection points: 2
#     Edge 80, Type (0, 0), BuildingBlock: XIVTED_clean_linker_0, # of connection points: 2
#     Edge 81, Type (0, 0), BuildingBlock: XIVTED_clean_linker_0, # of connection points: 2
#     Edge 82, Type (0, 0), BuildingBlock: XIVTED_clean_linker_0, # of connection points: 2
#     Edge 83, Type (0, 0), BuildingBlock: XIVTED_clean_linker_0, # of connection points: 2
#     Edge 84, Type (0, 0), BuildingBlock: XIVTED_clean_linker_0, # of connection points: 2
#     Edge 85, Type (0, 0), BuildingBlock: XIVTED_clean_linker_0, # of connection points: 2
#     Edge 86, Type (0, 0), BuildingBlock: XIVTED_clean_linker_0, # of connection points: 2
#     Edge 87, Type (0, 0), BuildingBlock: XIVTED_clean_linker_0, # of connection points: 2
#     Edge 88, Type (0, 0), BuildingBlock: XIVTED_clean_linker_0, # of connection points: 2
#     Edge 89, Type (0, 0), BuildingBlock: XIVTED_clean_linker_0, # of connection points: 2
#     Edge 90, Type (0, 0), BuildingBlock: XIVTED_clean_linker_0, # of connection points: 2
#     Edge 91, Type (0, 0), BuildingBlock: XIVTED_clean_linker_0, # of connection points: 2
#     Edge 92, Type (0, 0), BuildingBlock: XIVTED_clean_linker_0, # of connection points: 2
#     Edge 93, Type (0, 0), BuildingBlock: XIVTED_clean_linker_0, # of connection points: 2
#     Edge 94, Type (0, 0), BuildingBlock: XIVTED_clean_linker_0, # of connection points: 2
#     Edge 95, Type (0, 0), BuildingBlock: XIVTED_clean_linker_0, # of connection points: 2
# Relax obj value: 0.059
# Max RMSD: 0.086
# Mean RMSD: 0.086
data_MOF--net-uox--node1-QUQFOY_clean_sbu_3--edge1-XIVTED_clean_linker_0
_symmetry_space_group_name_H-M    P1
_symmetry_Int_Tables_number       1
_symmetry_cell_setting            triclinic
loop_
_symmetry_equiv_pos_as_xyz
'x, y, z'
_cell_length_a     47.21832
_cell_length_b     46.977125
_cell_length_c     81.28562
_cell_angle_alpha  89.965331
_cell_angle_beta   90.145353
_cell_angle_gamma 90.005413
loop_
_atom_site_label
_atom_site_type_symbol
_atom_site_fract_x
_atom_site_fract_y
_atom_site_fract_z
_atom_type_partial_charge
C0 C 0.49838 0.03106 0.1186 0.0
O1 O 0.48493 0.0228 0.10594 0.0
Cd2 Cd 0.43669 0.00605 0.1071 0.0
O3 O 0.48684 0.02989 0.13272 0.0
Cd4 Cd 0.44124 0.01533 0.14488 0.0
C5 C 0.40441 0.06476 0.12327 0.0
O6 O 0.42963 0.9722 0.12905 0.0
O7 O 0.39588 0.99197 0.14287 0.0
O8 O 0.46142 0.99116 0.16884 0.0
C9 C 0.40432 0.97112 0.13429 0.0
O10 O 0.40744 0.04849 0.11088 0.0
C11 C 0.45193 0.00884 0.17926 0.0
O12 O 0.41605 0.0587 0.13699 0.0
O13 O 0.43793 0.0298 0.17366 0.0
C14 C 0.1995 0.24772 0.37319 0.0
O15 O 0.20821 0.23482 0.36046 0.0
Cd16 Cd 0.22495 0.18652 0.36077 0.0
O17 O 0.20026 0.23552 0.38718 0.0
Cd18 Cd 0.21566 0.18911 0.39858 0.0
C19 C 0.16648 0.1534 0.37665 0.0
O20 O 0.25896 0.17963 0.38249 0.0
O21 O 0.24014 0.14434 0.39546 0.0
O22 O 0.23426 0.2135 0.42305 0.0
C23 C 0.26059 0.15383 0.38704 0.0
O24 O 0.18302 0.15655 0.36442 0.0
C25 C 0.22217 0.19691 0.43318 0.0
O26 O 0.17207 0.16507 0.39041 0.0
O27 O 0.20662 0.17745 0.4272 0.0
C28 C 0.98752 0.95222 0.62457 0.0
O29 O -0.00157 0.96574 0.61265 0.0
Cd30 Cd 0.04673 0.98225 0.61432 0.0
O31 O 0.00025 0.9506 0.63834 0.0
Cd32 Cd 0.043 0.96952 0.65194 0.0
C33 C 0.08072 0.92279 0.62966 0.0
O34 O 0.05356 0.01392 0.63715 0.0
O35 O 0.08773 -0.00603 0.65068 0.0
O36 O 0.01897 0.99171 0.67513 0.0
C37 C 0.07895 0.01505 0.64235 0.0
O38 O 0.07633 0.93949 0.61754 0.0
C39 C 0.02944 0.97517 0.68591 0.0
O40 O 0.06987 0.92787 0.64368 0.0
O41 O 0.04577 0.95558 0.68083 0.0
C42 C 0.28917 0.73828 0.87247 0.0
O43 O 0.27945 0.75098 0.85988 0.0
Cd44 Cd 0.25895 0.79789 0.8609 0.0
O45 O 0.28738 0.74977 0.88661 0.0
Cd46 Cd 0.26845 0.7944 0.8984 0.0
C47 C 0.31485 0.83455 0.87714 0.0
O48 O 0.22433 0.80236 0.88249 0.0
O49 O 0.24204 0.83789 0.89581 0.0
O50 O 0.25085 0.76859 0.92261 0.0
C51 C 0.22172 0.82786 0.88745 0.0
O52 O 0.29849 0.83086 0.86484 0.0
C53 C 0.26229 0.7854 0.9329 0.0
O54 O 0.31023 0.82177 0.89069 0.0
O55 O 0.27717 0.80552 0.92711 0.0
C56 C 0.49697 0.95668 0.36193 0.0
O57 O 0.48338 0.96576 0.37432 0.0
Cd58 Cd 0.43514 0.98213 0.37286 0.0
O59 O 0.48553 0.9567 0.34772 0.0
Cd60 Cd 0.44001 0.97025 0.33486 0.0
C61 C 0.40307 0.92229 0.35743 0.0
O62 O 0.42878 0.01399 0.34999 0.0
O63 O 0.39487 -0.00555 0.33612 0.0
O64 O 0.46104 0.99311 0.31084 0.0
C65 C 0.40349 0.01527 0.34469 0.0
O66 O 0.40625 0.93934 0.36948 0.0
C67 C 0.45138 0.97532 0.3005 0.0
O68 O 0.41461 0.92742 0.34359 0.0
O69 O 0.43691 0.95477 0.30617 0.0
C70 C 0.28381 0.24688 0.61444 0.0
O71 O 0.27457 0.23407 0.62709 0.0
Cd72 Cd 0.25569 0.18651 0.62665 0.0
O73 O 0.28273 0.23497 0.60038 0.0
Cd74 Cd 0.26623 0.18917 0.58875 0.0
C75 C 0.31309 0.15114 0.61132 0.0
O76 O 0.22224 0.18109 0.60447 0.0
O77 O 0.23984 0.14547 0.59125 0.0
O78 O 0.24925 0.21333 0.56375 0.0
C79 C 0.2197 0.15548 0.59971 0.0
O80 O 0.2964 0.15478 0.62343 0.0
C81 C 0.26194 0.19653 0.554 0.0
O82 O 0.30831 0.16322 0.59756 0.0
O83 O 0.27708 0.17718 0.56044 0.0
C84 C 0.98355 0.03018 0.86814 0.0
O85 O -0.00294 0.02103 0.88058 0.0
Cd86 Cd 0.04479 0.0028 0.87869 0.0
O87 O -0.0054 0.02901 0.8539 0.0
Cd88 Cd 0.03907 0.01329 0.84105 0.0
C89 C 0.07783 0.06119 0.86258 0.0
O90 O 0.05119 0.96961 0.85636 0.0
O91 O 0.08418 0.98981 0.84207 0.0
O92 O 0.01726 0.98945 0.81757 0.0
C93 C 0.07624 0.96876 0.85066 0.0
O94 O 0.07478 0.0446 0.87485 0.0
C95 C 0.02646 0.00693 0.80693 0.0
O96 O 0.06559 0.05589 0.84894 0.0
O97 O 0.04101 0.02777 0.8122 0.0
C98 C 0.19897 0.73486 0.11361 0.0
O99 O 0.20847 0.74799 0.1261 0.0
Cd100 Cd 0.22534 0.79631 0.12502 0.0
O101 O 0.19905 0.74677 0.09954 0.0
Cd102 Cd 0.21403 0.79294 0.08774 0.0
C103 C 0.16621 0.82941 0.1101 0.0
O104 O 0.25843 0.80346 0.10287 0.0
O105 O 0.23787 0.83807 0.0901 0.0
O106 O 0.23206 0.76897 0.06304 0.0
C107 C 0.25923 0.82915 0.098 0.0
O108 O 0.18343 0.82655 0.12207 0.0
C109 C 0.21869 0.78493 0.05308 0.0
O110 O 0.17097 0.81728 0.09638 0.0
O111 O 0.20266 0.80374 0.05928 0.0
C112 C 0.48664 0.95744 0.86522 0.0
O113 O 0.49996 0.9659 0.87789 0.0
Cd114 Cd 0.54828 0.98217 0.87713 0.0
O115 O 0.49831 0.95831 0.85113 0.0
Cd116 Cd 0.54405 0.97251 0.83904 0.0
C117 C 0.57926 0.92252 0.86111 0.0
O118 O 0.55573 0.0153 0.85495 0.0
O119 O 0.58974 -0.00457 0.84139 0.0
O120 O 0.52418 -0.00355 0.81491 0.0
C121 C 0.58123 0.01619 0.85002 0.0
O122 O 0.57647 0.93897 0.87346 0.0
C123 C 0.53381 0.97863 0.80461 0.0
O124 O 0.56808 0.9288 0.8473 0.0
O125 O 0.54782 0.95778 0.81034 0.0
C126 C 0.78572 0.73965 0.61247 0.0
O127 O 0.77692 0.75367 0.62479 0.0
Cd128 Cd 0.75664 0.80083 0.62295 0.0
O129 O 0.78405 0.75017 0.59807 0.0
Cd130 Cd 0.76802 0.79522 0.58567 0.0
C131 C 0.81407 0.83479 0.60748 0.0
O132 O 0.72353 0.80477 0.60064 0.0
O133 O 0.74278 0.83972 0.58758 0.0
O134 O 0.75064 0.77015 0.56112 0.0
C135 C 0.72181 0.8303 0.59559 0.0
O136 O 0.79574 0.8342 0.61894 0.0
C137 C 0.76346 0.78633 0.55107 0.0
O138 O 0.81115 0.81964 0.59461 0.0
O139 O 0.77903 0.80568 0.55717 0.0
C140 C -0.00829 0.03327 0.3658 0.0
O141 O 0.97819 0.02459 0.37833 0.0
Cd142 Cd 0.93215 0.00231 0.377 0.0
O143 O 0.98142 0.03009 0.35142 0.0
Cd144 Cd 0.93857 0.0108 0.33805 0.0
C145 C 0.89475 0.05619 0.35881 0.0
O146 O 0.93251 0.96818 0.35501 0.0
O147 O 0.89938 0.97748 0.33736 0.0
O148 O 0.96465 0.99048 0.31497 0.0
C149 C 0.90941 0.96084 0.34818 0.0
O150 O 0.89921 0.04122 0.37162 0.0
C151 C 0.9535 0.00654 0.30419 0.0
O152 O 0.90724 0.05049 0.34533 0.0
O153 O 0.9359 0.02502 0.3092 0.0
C154 C 0.69762 0.24845 0.11832 0.0
O155 O 0.70566 0.23436 0.13083 0.0
Cd156 Cd 0.72703 0.1877 0.12969 0.0
O157 O 0.70065 0.23829 0.1039 0.0
Cd158 Cd 0.71877 0.19453 0.09063 0.0
C159 C 0.67359 0.15021 0.11125 0.0
O160 O 0.76095 0.18758 0.1078 0.0
O161 O 0.75126 0.15455 0.09013 0.0
O162 O 0.73973 0.21947 0.06722 0.0
C163 C 0.76783 0.16421 0.10107 0.0
O164 O 0.68849 0.15459 0.12408 0.0
C165 C 0.7234 0.20843 0.05656 0.0
O166 O 0.67911 0.16307 0.09782 0.0
O167 O 0.70442 0.19159 0.0618 0.0
C168 C 0.48705 0.0306 0.62227 0.0
O169 O 0.49997 0.02126 0.60971 0.0
Cd170 Cd 0.54773 0.00329 0.61052 0.0
O171 O 0.49882 0.02988 0.63637 0.0
Cd172 Cd 0.54412 0.01456 0.64871 0.0
C173 C 0.58149 0.06204 0.62597 0.0
O174 O 0.55416 0.97094 0.63317 0.0
O175 O 0.5887 0.98964 0.64692 0.0
O176 O 0.5234 0.992 0.67293 0.0
C177 C 0.57958 0.96919 0.63823 0.0
O178 O 0.5777 0.04537 0.61381 0.0
C179 C 0.53364 0.00968 0.68314 0.0
O180 O 0.5702 0.05679 0.63987 0.0
O181 O 0.54834 0.02994 0.67731 0.0
C182 C 0.69102 0.7413 0.37014 0.0
O183 O 0.7005 0.75369 0.35739 0.0
Cd184 Cd 0.72492 0.79881 0.35743 0.0
O185 O 0.69436 0.75237 0.38432 0.0
Cd186 Cd 0.71573 0.79584 0.39627 0.0
C187 C 0.67266 0.83983 0.37401 0.0
O188 O 0.75901 0.798 0.37939 0.0
O189 O 0.75129 0.83287 0.39609 0.0
O190 O 0.72865 0.76809 0.42081 0.0
C191 C 0.76747 0.8212 0.38571 0.0
O192 O 0.68799 0.83435 0.36154 0.0
C193 C 0.71894 0.78638 0.43085 0.0
O194 O 0.67718 0.82749 0.38773 0.0
O195 O 0.70685 0.80808 0.42472 0.0
C196 C -0.00677 0.95165 0.12159 0.0
O197 O 0.97958 0.9603 0.10906 0.0
Cd198 Cd 0.93325 0.98193 0.11015 0.0
O199 O 0.98298 0.95461 0.13597 0.0
Cd200 Cd 0.93991 0.97335 0.14925 0.0
C201 C 0.89706 0.92721 0.12828 0.0
O202 O 0.93277 0.01575 0.13224 0.0
O203 O 0.89985 0.00562 0.14977 0.0
O204 O 0.96543 -0.00574 0.17245 0.0
C205 C 0.90942 0.02243 0.13892 0.0
O206 O 0.90117 0.94238 0.11552 0.0
C207 C 0.95457 0.97794 0.18318 0.0
O208 O 0.90946 0.93305 0.1418 0.0
O209 O 0.93741 0.95907 0.17807 0.0
C210 C 0.78205 0.2512 0.87407 0.0
O211 O 0.7735 0.23699 0.86175 0.0
Cd212 Cd 0.7557 0.18906 0.86362 0.0
O213 O 0.78097 0.24053 0.88847 0.0
Cd214 Cd 0.76596 0.19554 0.90171 0.0
C215 C 0.81293 0.15501 0.88069 0.0
O216 O 0.72288 0.18441 0.88598 0.0
O217 O 0.7412 0.15052 0.90052 0.0
O218 O 0.74195 0.21717 0.92516 0.0
C219 C 0.72101 0.15918 0.89151 0.0
O220 O 0.79666 0.15834 0.86831 0.0
C221 C 0.7595 0.20831 0.93585 0.0
O222 O 0.80789 0.16774 0.89421 0.0
O223 O 0.78045 0.19401 0.93063 0.0
C224 C -0.00363 0.5298 0.61922 0.0
O225 O 0.98243 0.52091 0.60688 0.0
Cd226 Cd 0.93451 0.50349 0.60882 0.0
O227 O 0.98552 0.52907 0.63354 0.0
Cd228 Cd 0.94075 0.51458 0.64675 0.0
C229 C 0.90187 0.56225 0.62501 0.0
O230 O 0.92884 0.47103 0.63147 0.0
O231 O 0.89566 0.49059 0.64584 0.0
O232 O 0.9621 0.49076 0.67042 0.0
C233 C 0.90377 0.46983 0.63709 0.0
O234 O 0.90488 0.54549 0.61283 0.0
C235 C 0.95332 0.50864 0.68094 0.0
O236 O 0.91418 0.55716 0.63867 0.0
O237 O 0.93925 0.52971 0.67552 0.0
C238 C 0.69107 0.74215 0.87432 0.0
O239 O 0.70015 0.72946 0.86157 0.0
Cd240 Cd 0.72465 0.68447 0.86141 0.0
O241 O 0.6947 0.73138 0.88856 0.0
Cd242 Cd 0.7161 0.6881 0.90075 0.0
C243 C 0.67304 0.64339 0.87885 0.0
O244 O 0.75852 0.68649 0.88335 0.0
O245 O 0.75282 0.65199 0.90055 0.0
O246 O 0.72887 0.71631 0.92513 0.0
C247 C 0.76792 0.66365 0.88963 0.0
O248 O 0.68799 0.64889 0.86622 0.0
C249 C 0.71943 0.69803 0.93526 0.0
O250 O 0.67779 0.65589 0.89248 0.0
O251 O 0.70761 0.67609 0.92926 0.0
C252 C 0.48739 0.45548 0.12242 0.0
O253 O 0.50139 0.46386 0.11 0.0
Cd254 Cd 0.54846 0.48373 0.11145 0.0
O255 O 0.49782 0.45751 0.13685 0.0
Cd256 Cd 0.5417 0.47408 0.15046 0.0
C257 C 0.58368 0.4277 0.12912 0.0
O258 O 0.54942 0.51683 0.13387 0.0
O259 O 0.58219 0.50593 0.15142 0.0
O260 O 0.51618 0.49471 0.17365 0.0
C261 C 0.57281 0.52311 0.14068 0.0
O262 O 0.57974 0.44338 0.11653 0.0
C263 C 0.527 0.47833 0.18439 0.0
O264 O 0.57139 0.43326 0.14269 0.0
O265 O 0.54413 0.45946 0.17929 0.0
C266 C 0.78262 0.23614 0.36939 0.0
O267 O 0.77394 0.24912 0.35664 0.0
Cd268 Cd 0.75744 0.29753 0.35731 0.0
O269 O 0.7818 0.2483 0.38338 0.0
Cd270 Cd 0.76648 0.29477 0.39464 0.0
C271 C 0.81614 0.33012 0.3731 0.0
O272 O 0.72289 0.30496 0.37871 0.0
O273 O 0.74303 0.34 0.39128 0.0
O274 O 0.7475 0.27072 0.41911 0.0
C275 C 0.72191 0.33077 0.3833 0.0
O276 O 0.79957 0.32736 0.36082 0.0
C277 C 0.75975 0.28721 0.42926 0.0
O278 O 0.81039 0.3183 0.38679 0.0
O279 O 0.77558 0.30642 0.42329 0.0
C280 C 0.98972 0.45407 0.86364 0.0
O281 O 0.97672 0.46314 0.87626 0.0
Cd282 Cd 0.93077 0.48549 0.87556 0.0
O283 O 0.97888 0.45683 0.84935 0.0
Cd284 Cd 0.9356 0.47583 0.83625 0.0
C285 C 0.89281 0.43098 0.85819 0.0
O286 O 0.93069 0.51849 0.8531 0.0
O287 O 0.89666 0.50963 0.836 0.0
O288 O 0.9614 0.49543 0.81287 0.0
C289 C 0.90732 0.52607 0.84672 0.0
O290 O 0.89784 0.44638 0.87075 0.0
C291 C 0.94948 0.4797 0.80221 0.0
O292 O 0.90466 0.43625 0.84444 0.0
O293 O 0.93155 0.46168 0.80743 0.0
C294 C 0.78495 0.74711 0.11666 0.0
O295 O 0.77674 0.73378 0.12939 0.0
Cd296 Cd 0.75596 0.68691 0.12929 0.0
O297 O 0.7824 0.73596 0.10244 0.0
Cd298 Cd 0.76478 0.69092 0.0904 0.0
C299 C 0.81098 0.64995 0.1126 0.0
O300 O 0.72188 0.68585 0.10731 0.0
O301 O 0.73142 0.65171 0.09044 0.0
O302 O 0.75005 0.71712 0.06559 0.0
C303 C 0.71471 0.66228 0.10093 0.0
O304 O 0.79545 0.6542 0.12514 0.0
C305 C 0.76182 0.69977 0.05575 0.0
O306 O 0.80539 0.662 0.09894 0.0
O307 O 0.77567 0.67938 0.06212 0.0
C308 C 0.47976 0.52884 0.3674 0.0
O309 O 0.49414 0.52038 0.37968 0.0
Cd310 Cd 0.54249 0.50445 0.37731 0.0
O311 O 0.49039 0.52835 0.35303 0.0
Cd312 Cd 0.53541 0.5149 0.33972 0.0
C313 C 0.57299 0.56414 0.361 0.0
O314 O 0.54867 0.4715 0.35488 0.0
O315 O 0.58122 0.49221 0.34053 0.0
O316 O 0.51417 0.49063 0.31615 0.0
C317 C 0.57364 0.47097 0.34908 0.0
O318 O 0.57081 0.54742 0.37327 0.0
C319 C 0.52268 0.50853 0.30555 0.0
O320 O 0.56065 0.55842 0.34745 0.0
O321 O 0.53652 0.5298 0.31089 0.0
C322 C 0.69602 0.23981 0.61044 0.0
O323 O 0.70598 0.25252 0.62296 0.0
Cd324 Cd 0.72515 0.29988 0.62232 0.0
O325 O 0.69679 0.25161 0.59634 0.0
Cd326 Cd 0.71392 0.29705 0.58449 0.0
C327 C 0.66726 0.33491 0.60703 0.0
O328 O 0.75818 0.30501 0.60006 0.0
O329 O 0.74019 0.34087 0.58717 0.0
O330 O 0.7307 0.27241 0.55969 0.0
C331 C 0.76059 0.3307 0.59541 0.0
O332 O 0.68423 0.33137 0.61907 0.0
C333 C 0.71839 0.28932 0.54978 0.0
O334 O 0.67182 0.32288 0.59326 0.0
O335 O 0.70348 0.30897 0.55606 0.0
C336 C -0.00839 0.44973 0.36458 0.0
O337 O 0.00413 0.45879 0.37741 0.0
Cd338 Cd 0.04972 0.48198 0.37763 0.0
O339 O 0.00277 0.45294 0.35044 0.0
Cd340 Cd 0.0466 0.47321 0.33872 0.0
C341 C 0.08871 0.42821 0.36107 0.0
O342 O 0.04976 0.51646 0.35576 0.0
O343 O 0.08414 0.50823 0.33894 0.0
O344 O 0.01983 0.48653 0.31389 0.0
C345 C 0.07295 0.52457 0.34944 0.0
O346 O 0.08378 0.44352 0.37366 0.0
C347 C 0.03778 0.47569 0.30409 0.0
O348 O 0.07676 0.4336 0.34735 0.0
O349 O 0.05886 0.46304 0.31049 0.0
C350 C 0.28846 0.2432 0.11406 0.0
O351 O 0.27928 0.25576 0.12682 0.0
Cd352 Cd 0.25606 0.30146 0.12667 0.0
O353 O 0.28542 0.25443 0.09989 0.0
Cd354 Cd 0.26513 0.29851 0.08803 0.0
C355 C 0.30951 0.34111 0.1103 0.0
O356 O 0.22173 0.30094 0.10478 0.0
O357 O 0.22991 0.33601 0.08828 0.0
O358 O 0.25233 0.271 0.0634 0.0
C359 C 0.21345 0.32422 0.09848 0.0
O360 O 0.29402 0.33606 0.12276 0.0
C361 C 0.26216 0.28933 0.05343 0.0
O362 O 0.30455 0.329 0.09658 0.0
O363 O 0.2742 0.31099 0.05963 0.0
C364 C 0.49856 0.52543 0.86484 0.0
O365 O 0.48454 0.51701 0.87723 0.0
Cd366 Cd 0.43613 0.50105 0.87537 0.0
O367 O 0.4875 0.52499 0.85055 0.0
Cd368 Cd 0.44224 0.51168 0.83741 0.0
C369 C 0.40503 0.56067 0.85909 0.0
O370 O 0.42976 0.4685 0.85281 0.0
O371 O 0.39672 0.48835 0.83835 0.0
O372 O 0.46339 0.48761 0.81385 0.0
C373 C 0.40466 0.46756 0.84718 0.0
O374 O 0.4077 0.54398 0.87135 0.0
C375 C 0.45477 0.50551 0.80327 0.0
O376 O 0.41693 0.55499 0.84542 0.0
O377 O 0.44076 0.52664 0.80859 0.0
C378 C 0.19577 0.74499 0.61565 0.0
O379 O 0.20464 0.73104 0.62804 0.0
Cd380 Cd 0.22616 0.68456 0.62659 0.0
O381 O 0.1983 0.7349 0.60119 0.0
Cd382 Cd 0.21678 0.69181 0.5875 0.0
C383 C 0.17209 0.64739 0.60825 0.0
O384 O 0.25918 0.6848 0.60434 0.0
O385 O 0.24915 0.65178 0.58671 0.0
O386 O 0.23816 0.71819 0.56489 0.0
C387 C 0.26592 0.66144 0.59755 0.0
O388 O 0.1874 0.65181 0.62091 0.0
C389 C 0.22235 0.70767 0.5538 0.0
O390 O 0.17716 0.66022 0.59474 0.0
O391 O 0.2033 0.69036 0.55844 0.0
C392 C 0.98801 0.53295 0.12191 0.0
O393 O 0.00067 0.52369 0.10921 0.0
Cd394 Cd 0.04666 0.50125 0.10942 0.0
O395 O -0.00069 0.53056 0.13609 0.0
Cd396 Cd 0.04361 0.51172 0.14819 0.0
C397 C 0.08548 0.55597 0.12528 0.0
O398 O 0.04715 0.46776 0.1318 0.0
O399 O 0.08136 0.47686 0.14866 0.0
O400 O 0.01692 0.49915 0.17309 0.0
C401 C 0.07037 0.46006 0.13831 0.0
O402 O 0.08051 0.54008 0.11293 0.0
C403 C 0.0347 0.51057 0.18282 0.0
O404 O 0.07361 0.55119 0.13906 0.0
O405 O 0.05565 0.52322 0.17635 0.0
C406 C 0.19371 0.23912 0.87284 0.0
O407 O 0.20298 0.25191 0.86019 0.0
Cd408 Cd 0.22143 0.29958 0.86079 0.0
O409 O 0.19497 0.25097 0.88691 0.0
Cd410 Cd 0.2121 0.29656 0.89848 0.0
C411 C 0.16379 0.33378 0.87672 0.0
O412 O 0.25566 0.30546 0.88252 0.0
O413 O 0.23709 0.341 0.89538 0.0
O414 O 0.23087 0.2724 0.92302 0.0
C415 C 0.25761 0.3312 0.88714 0.0
O416 O 0.18026 0.33056 0.86447 0.0
C417 C 0.21844 0.28884 0.93309 0.0
O418 O 0.16916 0.32172 0.89041 0.0
O419 O 0.20257 0.30797 0.92702 0.0
C420 C 0.49203 0.45315 0.61998 0.0
O421 O 0.47808 0.46182 0.60756 0.0
Cd422 Cd 0.43138 0.48248 0.60885 0.0
O423 O 0.48184 0.45543 0.63442 0.0
Cd424 Cd 0.43848 0.47282 0.64803 0.0
C425 C 0.39605 0.42677 0.62663 0.0
O426 O 0.43085 0.51541 0.63133 0.0
O427 O 0.39821 0.50482 0.64894 0.0
O428 O 0.46402 0.4932 0.67138 0.0
C429 C 0.4075 0.5218 0.63811 0.0
O430 O 0.39995 0.4423 0.61398 0.0
C431 C 0.45311 0.47672 0.682 0.0
O432 O 0.40843 0.4324 0.64019 0.0
O433 O 0.43596 0.45795 0.67676 0.0
C434 C 0.28546 0.74587 0.37144 0.0
O435 O 0.27606 0.73217 0.35911 0.0
Cd436 Cd 0.25254 0.68664 0.36083 0.0
O437 O 0.28249 0.73604 0.38594 0.0
Cd438 Cd 0.26239 0.69367 0.3997 0.0
C439 C 0.30521 0.6474 0.37898 0.0
O440 O 0.21941 0.68824 0.38308 0.0
O441 O 0.22862 0.65486 0.40064 0.0
O442 O 0.24233 0.72061 0.4225 0.0
C443 C 0.21191 0.66518 0.38997 0.0
O444 O 0.28994 0.65222 0.36635 0.0
C445 C 0.25783 0.70929 0.43348 0.0
O446 O 0.30076 0.66061 0.39243 0.0
O447 O 0.27617 0.69135 0.42868 0.0
H448 H 0.44476 0.93584 0.27607 0.0
H449 H 0.44672 0.04825 0.20377 0.0
H450 H 0.46691 0.02381 0.28435 0.0
H451 H 0.46551 0.95956 0.19532 0.0
H452 H 0.45009 0.03985 0.23345 0.0
H453 H 0.44838 0.94391 0.24635 0.0
C454 C 0.45055 0.95679 0.27163 0.0
C455 C 0.45548 0.97922 0.28265 0.0
C456 C 0.45372 0.02232 0.22508 0.0
C457 C 0.45921 0.98865 0.24879 0.0
C458 C 0.4517 0.02705 0.20817 0.0
C459 C 0.4558 0.00454 0.19711 0.0
C460 C 0.45925 -0.00524 0.23095 0.0
C461 C 0.46228 0.97751 0.20345 0.0
C462 C 0.4527 0.96134 0.2547 0.0
C463 C 0.46299 0.00593 0.27626 0.0
N464 N 0.46346 0.97327 0.21998 0.0
N465 N 0.46428 0.01001 0.25973 0.0
H466 H 0.27086 0.15441 0.53171 0.0
H467 H 0.24014 0.24316 0.45101 0.0
H468 H 0.24346 0.24181 0.53545 0.0
H469 H 0.21623 0.15489 0.45589 0.0
H470 H 0.25045 0.24453 0.48072 0.0
H471 H 0.26095 0.15565 0.5022 0.0
C472 C 0.26303 0.17396 0.52629 0.0
C473 C 0.25786 0.19803 0.53602 0.0
C474 C 0.24281 0.22499 0.47521 0.0
C475 C 0.24674 0.19958 0.50231 0.0
C476 C 0.23701 0.22415 0.45834 0.0
C477 C 0.22726 0.19889 0.45105 0.0
C478 C 0.23958 0.20018 0.48464 0.0
C479 C 0.22353 0.17484 0.46104 0.0
C480 C 0.25723 0.17457 0.50949 0.0
C481 C 0.24757 0.22277 0.52836 0.0
N482 N 0.23001 0.17598 0.4773 0.0
N483 N 0.24246 0.22299 0.51187 0.0
H484 H 0.01211 0.9574 0.79147 0.0
H485 H 0.01092 0.02347 0.70112 0.0
H486 H 0.03079 0.04585 0.78204 0.0
H487 H 0.03619 0.93679 0.7109 0.0
H488 H 0.00622 0.03143 0.7308 0.0
H489 H 0.00893 0.94919 0.76174 0.0
C490 C 0.01518 0.97516 0.78315 0.0
C491 C 0.02191 0.00231 0.78917 0.0
C492 C 0.01257 0.01064 0.72639 0.0
C493 C 0.01804 0.99309 0.75533 0.0
C494 C 0.01513 0.00603 0.70951 0.0
C495 C 0.02413 0.97948 0.7036 0.0
C496 C 0.01853 0.98839 0.73738 0.0
C497 C 0.02941 0.95764 0.71498 0.0
C498 C 0.0135 0.97041 0.76623 0.0
C499 C 0.02577 0.02455 0.77787 0.0
N500 N 0.02648 0.96256 0.73136 0.0
N501 N 0.02375 0.01946 0.76146 0.0
H502 H 0.2455 0.73844 0.95051 0.0
H503 H 0.20817 0.82615 0.03041 0.0
H504 H 0.26628 0.82746 0.95568 0.0
H505 H 0.23961 0.74023 0.03504 0.0
H506 H 0.21909 0.82497 0.00104 0.0
H507 H 0.23415 0.7367 0.98006 0.0
C508 C 0.24776 0.75752 0.95787 0.0
C509 C 0.2569 0.78312 0.95071 0.0
C510 C 0.22346 0.80636 0.0085 0.0
C511 C 0.24335 0.7814 0.98409 0.0
C512 C 0.21707 0.80691 0.02521 0.0
C513 C 0.22312 0.78328 0.03515 0.0
C514 C 0.23541 0.7818 0.00162 0.0
C515 C 0.23479 0.75894 0.02778 0.0
C516 C 0.24135 0.75648 0.97465 0.0
C517 C 0.25948 0.80726 0.96074 0.0
N518 N 0.24047 0.75875 0.01136 0.0
N519 N 0.25241 0.8059 0.97688 0.0
H520 H 0.53896 0.93872 0.78038 0.0
H521 H 0.5409 0.04951 0.7073 0.0
H522 H 0.52033 0.02761 0.78821 0.0
H523 H 0.51805 0.96155 0.69966 0.0
H524 H 0.53754 0.04205 0.73707 0.0
H525 H 0.53549 0.94647 0.75064 0.0
C526 C 0.534 0.95983 0.77583 0.0
C527 C 0.52998 0.98258 0.78673 0.0
C528 C 0.53301 0.02449 0.72885 0.0
C529 C 0.5264 0.99163 0.75284 0.0
C530 C 0.53503 0.02869 0.71189 0.0
C531 C 0.5298 0.00609 0.70103 0.0
C532 C 0.52635 -0.00265 0.73495 0.0
C533 C 0.52219 0.97955 0.70762 0.0
C534 C 0.53192 0.9642 0.75889 0.0
C535 C 0.52351 0.00948 0.78021 0.0
N536 N 0.52104 0.9758 0.72418 0.0
N537 N 0.52227 0.01337 0.76365 0.0
H538 H 0.73263 0.73876 0.44889 0.0
H539 H 0.77432 0.82696 0.52812 0.0
H540 H 0.71667 0.82889 0.45342 0.0
H541 H 0.74155 0.74165 0.5333 0.0
H542 H 0.76273 0.82558 0.49884 0.0
H543 H 0.744 0.73704 0.47847 0.0
C544 C 0.73135 0.75808 0.45612 0.0
C545 C 0.72366 0.784 0.44875 0.0
C546 C 0.7582 0.80713 0.5064 0.0
C547 C 0.73726 0.78226 0.48218 0.0
C548 C 0.76498 0.8078 0.52306 0.0
C549 C 0.75877 0.78441 0.53315 0.0
C550 C 0.74561 0.78272 0.49968 0.0
C551 C 0.74653 0.76017 0.52593 0.0
C552 C 0.7378 0.75706 0.47292 0.0
C553 C 0.72236 0.80844 0.45862 0.0
N554 N 0.74042 0.75987 0.50955 0.0
N555 N 0.72943 0.80703 0.47478 0.0
H556 H 0.97271 0.95879 0.28872 0.0
H557 H 0.97244 0.02616 0.19877 0.0
H558 H 0.94714 0.04555 0.27951 0.0
H559 H 0.94895 0.93877 0.20781 0.0
H560 H 0.97671 0.03361 0.22855 0.0
H561 H 0.97754 0.95146 0.25897 0.0
C562 C 0.96854 0.9764 0.28045 0.0
C563 C 0.95932 0.00276 0.28652 0.0
C564 C 0.97092 0.01277 0.22395 0.0
C565 C 0.96514 -0.0054 0.2527 0.0
C566 C 0.96862 0.00845 0.20701 0.0
C567 C 0.96014 0.98186 0.20088 0.0
C568 C 0.96532 0.99017 0.23474 0.0
C569 C 0.95531 0.95965 0.21207 0.0
C570 C 0.97117 0.97214 0.26354 0.0
C571 C 0.95408 0.02484 0.27529 0.0
N572 N 0.95801 0.96428 0.2285 0.0
N573 N 0.9571 0.02028 0.25888 0.0
H574 H 0.79834 0.20471 0.96079 0.0
H575 H 0.68512 0.20044 0.03172 0.0
H576 H 0.71007 0.22213 0.95125 0.0
H577 H 0.77116 0.22702 0.04101 0.0
H578 H 0.69384 0.20452 0.00211 0.0
H579 H 0.78923 0.20901 0.99036 0.0
C580 C 0.7771 0.20963 0.96492 0.0
C581 C 0.7549 0.21301 0.95359 0.0
C582 C 0.71068 0.20976 0.01065 0.0
C583 C 0.74431 0.21748 0.98728 0.0
C584 C 0.70576 0.20736 0.02752 0.0
C585 C 0.72748 0.21336 0.03879 0.0
C586 C 0.73769 0.21754 0.00505 0.0
C587 C 0.75382 0.22228 0.03271 0.0
C588 C 0.77196 0.21218 0.98176 0.0
C589 C 0.72779 0.21943 0.95959 0.0
N590 N 0.75835 0.22371 0.01622 0.0
N591 N 0.72316 0.22106 0.97605 0.0
H592 H 0.96577 0.45893 0.69676 0.0
H593 H 0.97086 0.52644 0.78661 0.0
H594 H 0.9506 0.54822 0.70554 0.0
H595 H 0.9402 0.44133 0.77752 0.0
H596 H 0.97573 0.53355 0.75686 0.0
H597 H 0.9687 0.4512 0.72656 0.0
C598 C 0.96344 0.47695 0.70495 0.0
C599 C 0.95776 0.50423 0.69873 0.0
C600 C 0.96818 0.51328 0.76144 0.0
C601 C 0.96137 0.49555 0.73264 0.0
C602 C 0.96552 0.50914 0.77837 0.0
C603 C 0.95494 0.48331 0.78448 0.0
C604 C 0.96077 0.49123 0.75063 0.0
C605 C 0.94822 0.46163 0.77327 0.0
C606 C 0.96497 0.47248 0.7219 0.0
C607 C 0.9548 0.52683 0.70987 0.0
N608 N 0.9513 0.46605 0.75685 0.0
N609 N 0.95669 0.522 0.72632 0.0
H610 H 0.77213 0.65846 0.03317 0.0
H611 H 0.73334 0.74592 0.95301 0.0
H612 H 0.74177 0.74482 0.03745 0.0
H613 H 0.71666 0.65601 0.95815 0.0
H614 H 0.7444 0.74817 0.98262 0.0
H615 H 0.76129 0.65954 0.00383 0.0
C616 C 0.76347 0.67779 0.0279 0.0
C617 C 0.75771 0.70156 0.03777 0.0
C618 C 0.73812 0.72808 0.97719 0.0
C619 C 0.74534 0.70287 0.00418 0.0
C620 C 0.73185 0.72676 0.96037 0.0
C621 C 0.72405 0.70074 0.95316 0.0
C622 C 0.73726 0.70308 0.98663 0.0
C623 C 0.72245 0.67653 0.96321 0.0
C624 C 0.75711 0.67829 0.01119 0.0
C625 C 0.74639 0.726 0.03026 0.0
N626 N 0.72932 0.67822 0.97938 0.0
N627 N 0.74061 0.72609 0.01383 0.0
H628 H 0.51006 0.45868 0.28991 0.0
H629 H 0.50655 0.52568 0.19978 0.0
H630 H 0.52549 0.54785 0.28079 0.0
H631 H 0.53483 0.43984 0.20924 0.0
H632 H 0.50147 0.5331 0.22948 0.0
H633 H 0.50713 0.45067 0.26015 0.0
C634 C 0.51245 0.47663 0.28166 0.0
C635 C 0.51821 0.50395 0.28778 0.0
C636 C 0.50855 0.5126 0.225 0.0
C637 C 0.51462 0.49495 0.25389 0.0
C638 C 0.51132 0.50829 0.20809 0.0
C639 C 0.52129 0.48215 0.20209 0.0
C640 C 0.51526 0.49045 0.23591 0.0
C641 C 0.52728 0.46037 0.21339 0.0
C642 C 0.51092 0.472 0.26472 0.0
C643 C 0.52124 0.52642 0.27655 0.0
N644 N 0.52413 0.46499 0.22979 0.0
N645 N 0.51937 0.52144 0.26011 0.0
H646 H 0.7106 0.33144 0.52729 0.0
H647 H 0.74088 0.24142 0.44715 0.0
H648 H 0.73631 0.24357 0.53154 0.0
H649 H 0.7662 0.32931 0.45185 0.0
H650 H 0.7302 0.2405 0.47679 0.0
H651 H 0.72097 0.32978 0.49786 0.0
C652 C 0.71815 0.3117 0.52199 0.0
C653 C 0.7227 0.28761 0.53184 0.0
C654 C 0.73823 0.25986 0.47126 0.0
C655 C 0.73436 0.2856 0.49823 0.0
C656 C 0.74425 0.26044 0.45442 0.0
C657 C 0.75449 0.28547 0.44711 0.0
C658 C 0.74175 0.2847 0.48062 0.0
C659 C 0.75851 0.30954 0.45703 0.0
C660 C 0.72422 0.31086 0.50525 0.0
C661 C 0.73266 0.26263 0.52435 0.0
N662 N 0.75181 0.30866 0.47325 0.0
N663 N 0.73804 0.26218 0.5079 0.0
H664 H 0.07958 0.46846 0.2816 0.0
H665 H 0.98855 0.49449 0.20122 0.0
H666 H -0.00861 0.49157 0.28569 0.0
H667 H 0.07645 0.51878 0.20536 0.0
H668 H 0.98764 0.48577 0.2311 0.0
H669 H 0.07735 0.47787 0.25212 0.0
C670 C 0.05965 0.47525 0.27626 0.0
C671 C 0.03564 0.47934 0.2861 0.0
C672 C 0.00698 0.49322 0.22539 0.0
C673 C 0.033 0.49004 0.25236 0.0
C674 C 0.00754 0.49815 0.20842 0.0
C675 C 0.03262 0.50736 0.20084 0.0
C676 C 0.03184 0.49685 0.23465 0.0
C677 C 0.05665 0.51179 0.21069 0.0
C678 C 0.05847 0.48081 0.25947 0.0
C679 C 0.0104 0.48829 0.27852 0.0
N680 N 0.05575 0.50617 0.22704 0.0
N681 N 0.00966 0.49326 0.26201 0.0
H682 H 0.24848 0.24182 0.03534 0.0
H683 H 0.20878 0.33012 0.95579 0.0
H684 H 0.26522 0.33182 0.03083 0.0
H685 H 0.24021 0.24425 0.95101 0.0
H686 H 0.22044 0.32895 0.98506 0.0
H687 H 0.23772 0.24015 0.00569 0.0
C688 C 0.25006 0.26113 0.02811 0.0
C689 C 0.25777 0.287 0.03551 0.0
C690 C 0.2247 0.31035 0.9776 0.0
C691 C 0.24491 0.28531 0.00198 0.0
C692 C 0.21788 0.31091 0.96093 0.0
C693 C 0.22363 0.28726 0.95097 0.0
C694 C 0.23685 0.2858 0.98444 0.0
C695 C 0.23558 0.26296 0.95829 0.0
C696 C 0.24397 0.26013 0.01126 0.0
C697 C 0.25949 0.31141 0.02562 0.0
N698 N 0.2417 0.26277 0.97467 0.0
N699 N 0.25277 0.31004 0.00941 0.0
H700 H 0.46816 0.45597 0.78756 0.0
H701 H 0.47297 0.52405 0.69774 0.0
H702 H 0.45182 0.54504 0.77861 0.0
H703 H 0.44537 0.43782 0.70659 0.0
H704 H 0.47739 0.53118 0.72752 0.0
H705 H 0.4719 0.44836 0.75781 0.0
C706 C 0.46571 0.47398 0.77935 0.0
C707 C 0.45948 0.50115 0.78551 0.0
C708 C 0.47062 0.51065 0.72289 0.0
C709 C 0.46402 0.49261 0.75164 0.0
C710 C 0.46823 0.50651 0.70594 0.0
C711 C 0.45862 0.48036 0.69974 0.0
C712 C 0.46387 0.48831 0.73364 0.0
C713 C 0.45265 0.45837 0.7109 0.0
C714 C 0.46772 0.46958 0.76242 0.0
C715 C 0.45643 0.52372 0.77434 0.0
N716 N 0.4554 0.46283 0.72734 0.0
N717 N 0.45876 0.51896 0.7579 0.0
H718 H 0.27118 0.72595 0.5394 0.0
H719 H 0.20977 0.72896 0.44812 0.0
H720 H 0.18483 0.70258 0.52829 0.0
H721 H 0.29522 0.70205 0.45888 0.0
H722 H 0.20074 0.73307 0.47773 0.0
H723 H 0.2804 0.73092 0.50985 0.0
C724 C 0.25406 0.72231 0.53075 0.0
C725 C 0.22724 0.71367 0.53623 0.0
C726 C 0.22152 0.72658 0.47354 0.0
C727 C 0.23759 0.71966 0.50263 0.0
C728 C 0.22676 0.72438 0.45671 0.0
C729 C 0.25324 0.71498 0.4511 0.0
C730 C 0.24311 0.71996 0.48478 0.0
C731 C 0.27446 0.70916 0.46273 0.0
C732 C 0.2594 0.72501 0.51395 0.0
C733 C 0.20585 0.70908 0.52453 0.0
N734 N 0.26896 0.71178 0.47906 0.0
N735 N 0.21147 0.71217 0.50824 0.0
H736 H 0.41624 0.91814 0.12162 0.0
H737 H 0.25661 0.88679 0.09795 0.0
H738 H 0.34691 0.97307 0.13529 0.0
H739 H 0.31287 0.81714 0.10956 0.0
H740 H 0.29288 0.92025 0.10683 0.0
H741 H 0.38163 0.88187 0.11282 0.0
C742 C 0.39382 0.92254 0.12276 0.0
C743 C 0.38438 0.94862 0.12916 0.0
C744 C 0.29731 0.89765 0.10744 0.0
C745 C 0.34512 0.90775 0.11898 0.0
C746 C 0.27668 0.87851 0.10231 0.0
C747 C 0.28172 0.84912 0.10309 0.0
C748 C 0.32343 0.88746 0.11316 0.0
C749 C 0.30814 0.83966 0.10888 0.0
C750 C 0.37419 0.90186 0.11783 0.0
C751 C 0.35514 0.95326 0.13046 0.0
N752 N 0.32821 0.85884 0.11363 0.0
N753 N 0.33658 0.93316 0.12527 0.0
H754 H 0.25785 0.09624 0.38535 0.0
H755 H 0.41575 0.06746 0.35823 0.0
H756 H 0.31314 0.16699 0.37458 0.0
H757 H 0.34599 0.0136 0.34365 0.0
H758 H 0.38147 0.10295 0.36823 0.0
H759 H 0.29338 0.06373 0.3745 0.0
C760 C 0.27756 0.10494 0.38077 0.0
C761 C 0.28257 0.13436 0.38081 0.0
C762 C 0.37385 0.0834 0.36273 0.0
C763 C 0.32338 0.09717 0.3685 0.0
C764 C 0.39329 0.06317 0.3571 0.0
C765 C 0.38364 0.03757 0.35015 0.0
C766 C 0.34476 0.07753 0.36172 0.0
C767 C 0.35436 0.03304 0.34891 0.0
C768 C 0.29773 0.08637 0.3745 0.0
C769 C 0.30847 0.14443 0.37467 0.0
N770 N 0.33598 0.05268 0.3548 0.0
N771 N 0.32812 0.12579 0.36883 0.0
H772 H 0.13637 0.01333 0.64359 0.0
H773 H 0.16784 0.16989 0.61274 0.0
H774 H 0.06689 0.06753 0.62894 0.0
H775 H 0.22073 0.09784 0.60091 0.0
H776 H 0.13187 0.13677 0.62361 0.0
H777 H 0.16956 0.04891 0.63346 0.0
C778 C 0.12807 0.03284 0.63835 0.0
C779 C 0.09882 0.03743 0.63699 0.0
C780 C 0.15137 0.12842 0.61855 0.0
C781 C 0.13679 0.07829 0.6255 0.0
C782 C 0.17184 0.1472 0.61243 0.0
C783 C 0.19724 0.13654 0.60593 0.0
C784 C 0.15685 0.09906 0.61851 0.0
C785 C 0.20143 0.10699 0.60575 0.0
C786 C 0.14704 0.05304 0.63251 0.0
C787 C 0.08931 0.06314 0.63008 0.0
N788 N 0.18159 0.08933 0.61209 0.0
N789 N 0.10831 0.08278 0.6246 0.0
H790 H 0.13338 0.97076 0.84772 0.0
H791 H 0.1688 0.81332 0.87569 0.0
H792 H 0.0657 0.91586 0.86406 0.0
H793 H 0.22243 0.88543 0.88639 0.0
H794 H 0.13152 0.8465 0.86631 0.0
H795 H 0.16765 0.93494 0.85622 0.0
C796 C 0.12569 0.95107 0.85302 0.0
C797 C 0.09665 0.94635 0.85531 0.0
C798 C 0.1515 0.85483 0.87078 0.0
C799 C 0.13588 0.90515 0.86493 0.0
C800 C 0.17271 0.83603 0.87604 0.0
C801 C 0.19867 0.8467 0.88182 0.0
C802 C 0.15678 0.88425 0.87096 0.0
C803 C 0.20272 0.87626 0.8821 0.0
C804 C 0.14529 0.9307 0.85791 0.0
C805 C 0.08795 0.92037 0.86223 0.0
N806 N 0.18213 0.89395 0.87661 0.0
N807 N 0.10756 0.90056 0.86678 0.0
H808 H 0.66916 0.1717 0.87791 0.0
H809 H 0.63866 0.01286 0.8508 0.0
H810 H 0.72289 0.10139 0.89196 0.0
H811 H 0.56937 0.06927 0.86237 0.0
H812 H 0.67188 0.04849 0.86109 0.0
H813 H 0.63374 0.1374 0.86777 0.0
C814 C 0.67345 0.14911 0.87887 0.0
C815 C 0.69893 0.13931 0.88578 0.0
C816 C 0.6494 0.05306 0.86137 0.0
C817 C 0.65907 0.10039 0.87402 0.0
C818 C 0.63044 0.03284 0.85543 0.0
C819 C 0.60123 0.03813 0.85581 0.0
C820 C 0.63916 0.07901 0.86743 0.0
C821 C 0.59175 0.06436 0.86198 0.0
C822 C 0.65327 0.12965 0.87315 0.0
C823 C 0.70349 0.10986 0.88678 0.0
N824 N 0.61073 0.08401 0.86748 0.0
N825 N 0.68389 0.09145 0.88081 0.0
H826 H 0.56655 0.91699 0.6249 0.0
H827 H 0.72328 0.88804 0.59545 0.0
H828 H 0.63702 0.97103 0.63799 0.0
H829 H 0.66954 0.81723 0.60854 0.0
H830 H 0.68758 0.9207 0.6059 0.0
H831 H 0.60032 0.88145 0.61431 0.0
C832 C 0.58905 0.92132 0.62556 0.0
C833 C 0.59906 0.94694 0.6323 0.0
C834 C 0.68358 0.89801 0.60646 0.0
C835 C 0.63732 0.90699 0.62005 0.0
C836 C 0.70385 0.87934 0.60042 0.0
C837 C 0.6994 0.84986 0.60121 0.0
C838 C 0.6584 0.88725 0.61309 0.0
C839 C 0.67381 0.83983 0.60782 0.0
C840 C 0.60819 0.90108 0.6196 0.0
C841 C 0.62838 0.95155 0.63294 0.0
N842 N 0.65408 0.85857 0.61347 0.0
N843 N 0.64644 0.93191 0.62673 0.0
H844 H 0.79243 0.81932 0.35537 0.0
H845 H 0.91181 0.93353 0.37787 0.0
H846 H 0.80097 0.85648 0.40364 0.0
H847 H 0.87099 0.93048 0.33035 0.0
H848 H 0.88133 0.8943 0.38711 0.0
H849 H 0.83177 0.84935 0.34578 0.0
C850 C 0.80298 0.83336 0.364 0.0
C851 C 0.79341 0.83573 0.38025 0.0
C852 C 0.8794 0.90204 0.3746 0.0
C853 C 0.83824 0.86955 0.3695 0.0
C854 C 0.89676 0.92429 0.36932 0.0
C855 C 0.8936 0.93537 0.3534 0.0
C856 C 0.85925 0.89053 0.36376 0.0
C857 C 0.87379 0.92271 0.34279 0.0
C858 C 0.82523 0.85051 0.35852 0.0
C859 C 0.80761 0.8543 0.39096 0.0
N860 N 0.8573 0.90094 0.34817 0.0
N861 N 0.82932 0.87057 0.3854 0.0
H862 H 0.79338 0.16477 0.1313 0.0
H863 H 0.9101 0.04846 0.10883 0.0
H864 H 0.7982 0.12581 0.08334 0.0
H865 H 0.87082 0.0525 0.15664 0.0
H866 H 0.87863 0.08684 0.09939 0.0
H867 H 0.83166 0.13328 0.14079 0.0
C868 C 0.8028 0.1499 0.12272 0.0
C869 C 0.79257 0.14763 0.10657 0.0
C870 C 0.87721 0.07945 0.11198 0.0
C871 C 0.8363 0.11215 0.11721 0.0
C872 C 0.89516 0.05773 0.11738 0.0
C873 C 0.8928 0.04725 0.13347 0.0
C874 C 0.85733 0.09109 0.12289 0.0
C875 C 0.87306 0.05986 0.14408 0.0
C876 C 0.82446 0.13194 0.12815 0.0
C877 C 0.80536 0.12798 0.09594 0.0
N878 N 0.85606 0.08119 0.1386 0.0
N879 N 0.82663 0.11097 0.10144 0.0
H880 H 0.81314 0.316 0.60749 0.0
H881 H 0.84645 0.47167 0.63936 0.0
H882 H 0.75932 0.38827 0.59746 0.0
H883 H 0.91484 0.41776 0.62298 0.0
H884 H 0.81255 0.43642 0.62954 0.0
H885 H 0.84962 0.34882 0.61815 0.0
C886 C 0.80904 0.33868 0.60753 0.0
C887 C 0.78326 0.34949 0.60158 0.0
C888 C 0.83499 0.43228 0.62814 0.0
C889 C 0.82424 0.38664 0.61394 0.0
C890 C 0.85437 0.4523 0.63379 0.0
C891 C 0.8835 0.4477 0.63186 0.0
C892 C 0.84474 0.40721 0.62073 0.0
C893 C 0.89251 0.42217 0.62456 0.0
C894 C 0.8298 0.35729 0.61354 0.0
C895 C 0.77893 0.37902 0.60186 0.0
N896 N 0.87314 0.40271 0.61927 0.0
N897 N 0.79909 0.39651 0.60808 0.0
H898 H 0.91188 0.55241 0.87657 0.0
H899 H 0.79007 0.66627 0.85861 0.0
H900 H 0.86713 0.55654 0.83028 0.0
H901 H 0.80297 0.62787 0.90627 0.0
H902 H 0.82858 0.63669 0.84761 0.0
H903 H 0.88187 0.59099 0.88706 0.0
C904 C 0.89606 0.56176 0.86855 0.0
C905 C 0.89169 0.55117 0.85262 0.0
C906 C 0.82317 0.63514 0.86052 0.0
C907 C 0.85782 0.59526 0.8644 0.0
C908 C 0.80139 0.65204 0.8668 0.0
C909 C 0.7933 0.64922 0.8833 0.0
C910 C 0.83719 0.61588 0.87094 0.0
C911 C 0.80846 0.6304 0.89342 0.0
C912 C 0.87895 0.58362 0.87454 0.0
C913 C 0.87089 0.56394 0.84271 0.0
N914 N 0.8297 0.61438 0.88707 0.0
N915 N 0.85466 0.58534 0.84877 0.0
H916 H 0.68337 0.62499 0.08299 0.0
H917 H 0.6123 0.552 0.15855 0.0
H918 H 0.68925 0.66321 0.13111 0.0
H919 H 0.57188 0.55016 0.11091 0.0
H920 H 0.64315 0.59046 0.14891 0.0
H921 H 0.6446 0.59489 0.09282 0.0
C922 C 0.67627 0.62719 0.09559 0.0
C923 C 0.68949 0.64645 0.10631 0.0
C924 C 0.62726 0.58187 0.14066 0.0
C925 C 0.64572 0.61184 0.11765 0.0
C926 C 0.60981 0.55987 0.1461 0.0
C927 C 0.58968 0.54788 0.13546 0.0
C928 C 0.62504 0.59135 0.12435 0.0
C929 C 0.58715 0.5589 0.11948 0.0
C930 C 0.65412 0.61015 0.10115 0.0
C931 C 0.67949 0.64862 0.12248 0.0
N932 N 0.60501 0.57973 0.11429 0.0
N933 N 0.65848 0.63109 0.12779 0.0
H934 H 0.72482 0.38831 0.38163 0.0
H935 H 0.56331 0.41796 0.36221 0.0
H936 H 0.66778 0.31808 0.37291 0.0
H937 H 0.63085 0.47319 0.34608 0.0
H938 H 0.59892 0.38206 0.37007 0.0
H939 H 0.68795 0.42126 0.37285 0.0
C940 C 0.70446 0.37981 0.3779 0.0
C941 C 0.69933 0.35042 0.37795 0.0
C942 C 0.60575 0.40202 0.36471 0.0
C943 C 0.65694 0.38813 0.36803 0.0
C944 C 0.58556 0.4225 0.36031 0.0
C945 C 0.59419 0.44858 0.35354 0.0
C946 C 0.63463 0.4081 0.36263 0.0
C947 C 0.62323 0.45338 0.35125 0.0
C948 C 0.68349 0.39864 0.37282 0.0
C949 C 0.67257 0.34062 0.37294 0.0
N950 N 0.64239 0.43347 0.35594 0.0
N951 N 0.65217 0.35951 0.36828 0.0
H952 H 0.10868 0.55761 0.33161 0.0
H953 H 0.18174 0.62663 0.40777 0.0
H954 H 0.07157 0.54963 0.37982 0.0
H955 H 0.18463 0.66761 0.36029 0.0
H956 H 0.14263 0.59681 0.398 0.0
H957 H 0.13807 0.59681 0.3417 0.0
C958 C 0.10652 0.56439 0.34428 0.0
C959 C 0.08786 0.55038 0.35495 0.0
C960 C 0.15155 0.61264 0.38982 0.0
C961 C 0.12169 0.59466 0.36661 0.0
C962 C 0.17392 0.62951 0.39534 0.0
C963 C 0.18648 0.64941 0.38476 0.0
C964 C 0.14222 0.6152 0.37349 0.0
C965 C 0.1755 0.65247 0.36881 0.0
C966 C 0.12317 0.58679 0.35 0.0
C967 C 0.08572 0.55998 0.37123 0.0
N968 N 0.15429 0.63514 0.36354 0.0
N969 N 0.1029 0.58124 0.37668 0.0
H970 H 0.18119 0.36086 0.0806 0.0
H971 H 0.10698 0.42819 0.15641 0.0
H972 H 0.1864 0.32033 0.12814 0.0
H973 H 0.06893 0.43398 0.10823 0.0
H974 H 0.13716 0.38945 0.14657 0.0
H975 H 0.14087 0.38888 0.09029 0.0
C976 C 0.1736 0.35766 0.09303 0.0
C977 C 0.18717 0.33846 0.10365 0.0
C978 C 0.12186 0.39885 0.13824 0.0
C979 C 0.14152 0.37069 0.11486 0.0
C980 C 0.10476 0.421 0.1438 0.0
C981 C 0.08564 0.43432 0.13305 0.0
C982 C 0.12035 0.39056 0.12169 0.0
C983 C 0.08343 0.42419 0.11688 0.0
C984 C 0.15053 0.37351 0.09851 0.0
C985 C 0.17646 0.33495 0.1196 0.0
N986 N 0.10105 0.40324 0.11156 0.0
N987 N 0.15456 0.35137 0.12485 0.0
H988 H 0.41551 0.41522 0.86099 0.0
H989 H 0.25592 0.38881 0.88548 0.0
H990 H 0.34729 0.47013 0.84529 0.0
H991 H 0.31045 0.31719 0.87543 0.0
H992 H 0.29251 0.42078 0.8753 0.0
H993 H 0.38021 0.38022 0.87043 0.0
C994 C 0.39317 0.41985 0.85951 0.0
C995 C 0.38425 0.44559 0.8524 0.0
C996 C 0.29647 0.39807 0.8753 0.0
C997 C 0.34422 0.4062 0.86331 0.0
C998 C 0.27568 0.3798 0.88119 0.0
C999 C 0.28017 0.35031 0.88124 0.0
C1000 C 0.32221 0.38688 0.8697 0.0
C1001 C 0.30617 0.33983 0.87549 0.0
C1002 C 0.37316 0.3999 0.86481 0.0
C1003 C 0.35511 0.45057 0.85068 0.0
N1004 N 0.32643 0.35817 0.87003 0.0
N1005 N 0.33615 0.4312 0.85626 0.0
H1006 H 0.36848 0.55125 0.65583 0.0
H1007 H 0.29579 0.62261 0.57984 0.0
H1008 H 0.40756 0.54761 0.60796 0.0
H1009 H 0.29173 0.66209 0.62768 0.0
H1010 H 0.3342 0.59198 0.58977 0.0
H1011 H 0.33728 0.58926 0.6459 0.0
C1012 C 0.3706 0.55864 0.64327 0.0
C1013 C 0.39047 0.54631 0.63266 0.0
C1014 C 0.32511 0.60761 0.59801 0.0
C1015 C 0.35469 0.58921 0.62121 0.0
C1016 C 0.30317 0.62494 0.5924 0.0
C1017 C 0.29061 0.64476 0.603 0.0
C1018 C 0.33397 0.60963 0.61444 0.0
C1019 C 0.30096 0.64708 0.61913 0.0
C1020 C 0.35294 0.58036 0.63765 0.0
C1021 C 0.39251 0.55667 0.61652 0.0
N1022 N 0.32178 0.62933 0.62447 0.0
N1023 N 0.37446 0.57725 0.61117 0.0
H1024 H 0.38002 0.08689 0.09544 0.0
H1025 H 0.30469 0.21592 0.1424 0.0
H1026 H 0.38847 0.1018 0.14764 0.0
H1027 H 0.30767 0.2083 0.08949 0.0
H1028 H 0.33226 0.1721 0.14476 0.0
H1029 H 0.35067 0.12949 0.09324 0.0
C1030 C 0.37573 0.0991 0.10645 0.0
C1031 C 0.38682 0.09074 0.12175 0.0
C1032 C 0.32684 0.18 0.13264 0.0
C1033 C 0.35306 0.13955 0.11931 0.0
C1034 C 0.31099 0.20498 0.13127 0.0
C1035 C 0.3039 0.2159 0.11571 0.0
C1036 C 0.33555 0.16571 0.11835 0.0
C1037 C 0.31272 0.20077 0.10174 0.0
C1038 C 0.35897 0.12346 0.10517 0.0
C1039 C 0.38049 0.10746 0.13558 0.0
N1040 N 0.32809 0.17648 0.10339 0.0
N1041 N 0.364 0.13103 0.13403 0.0
H1042 H 0.14595 0.12795 0.34875 0.0
H1043 H 0.017 0.05086 0.39451 0.0
H1044 H 0.12896 0.13727 0.40065 0.0
H1045 H 0.02802 0.05138 0.34178 0.0
H1046 H 0.06001 0.07946 0.39733 0.0
H1047 H 0.10449 0.09726 0.34628 0.0
C1048 C 0.13349 0.1236 0.35963 0.0
C1049 C 0.14096 0.13531 0.37493 0.0
C1050 C 0.05304 0.07323 0.38515 0.0
C1051 C 0.09345 0.09997 0.37218 0.0
C1052 C 0.02855 0.05678 0.38353 0.0
C1053 C 0.01879 0.04877 0.36787 0.0
C1054 C 0.06796 0.08162 0.37103 0.0
C1055 C 0.03464 0.05714 0.35409 0.0
C1056 C 0.1098 0.10604 0.35821 0.0
C1057 C 0.12398 0.12883 0.3886 0.0
N1058 N 0.05838 0.07314 0.356 0.0
N1059 N 0.10105 0.11157 0.3869 0.0
H1060 H 0.10436 0.90278 0.60114 0.0
H1061 H 0.18096 0.77057 0.64472 0.0
H1062 H 0.09845 0.88479 0.65313 0.0
H1063 H 0.17688 0.78212 0.59205 0.0
H1064 H 0.15413 0.81459 0.64825 0.0
H1065 H 0.13404 0.86063 0.5978 0.0
C1066 C 0.1093 0.89 0.61186 0.0
C1067 C 0.09878 0.89733 0.62744 0.0
C1068 C 0.15918 0.80753 0.63592 0.0
C1069 C 0.13288 0.84904 0.62369 0.0
C1070 C 0.17459 0.78243 0.63389 0.0
C1071 C 0.1811 0.77252 0.61805 0.0
C1072 C 0.15028 0.82293 0.62203 0.0
C1073 C 0.17226 0.78883 0.60449 0.0
C1074 C 0.12626 0.86591 0.60994 0.0
C1075 C 0.10596 0.87994 0.64088 0.0
N1076 N 0.15726 0.81318 0.60679 0.0
N1077 N 0.12256 0.85662 0.63869 0.0
H1078 H 0.45007 0.94106 0.8408 0.0
H1079 H 0.3509 0.85244 0.90154 0.0
H1080 H 0.45952 0.94198 0.89365 0.0
H1081 H 0.33394 0.86214 0.8496 0.0
H1082 H 0.39063 0.88541 0.89892 0.0
H1083 H 0.40685 0.91308 0.84383 0.0
C1084 C 0.44291 0.93564 0.85306 0.0
C1085 C 0.45859 0.94374 0.86699 0.0
C1086 C 0.37815 0.8804 0.88811 0.0
C1087 C 0.40925 0.91136 0.87053 0.0
C1088 C 0.35552 0.86146 0.88958 0.0
C1089 C 0.33911 0.85437 0.87575 0.0
C1090 C 0.38456 0.89223 0.87269 0.0
C1091 C 0.34603 0.8669 0.86059 0.0
C1092 C 0.41823 0.91961 0.85478 0.0
C1093 C 0.44818 0.93618 0.88256 0.0
N1094 N 0.3683 0.8851 0.85946 0.0
N1095 N 0.42432 0.92017 0.8839 0.0
H1096 H 0.30206 0.77025 0.34231 0.0
H1097 H 0.3788 0.90238 0.38575 0.0
H1098 H 0.30495 0.78286 0.39491 0.0
H1099 H 0.38676 0.88348 0.33398 0.0
H1100 H 0.34914 0.86028 0.38901 0.0
H1101 H 0.3302 0.8135 0.3387 0.0
C1102 C 0.30845 0.78217 0.3531 0.0
C1103 C 0.30116 0.77283 0.36895 0.0
C1104 C 0.35739 0.8653 0.37693 0.0
C1105 C 0.33345 0.82232 0.36488 0.0
C1106 C 0.37435 0.88938 0.37505 0.0
C1107 C 0.38538 0.8965 0.35956 0.0
C1108 C 0.35123 0.8482 0.36322 0.0
C1109 C 0.37882 0.87879 0.34616 0.0
C1110 C 0.32461 0.80681 0.35102 0.0
C1111 C 0.31012 0.78915 0.38246 0.0
N1112 N 0.36214 0.85549 0.3483 0.0
N1113 N 0.32579 0.81306 0.38011 0.0
H1114 H 0.33289 0.12551 0.63939 0.0
H1115 H 0.45916 0.04418 0.59369 0.0
H1116 H 0.34957 0.13295 0.58735 0.0
H1117 H 0.45164 0.04965 0.64653 0.0
H1118 H 0.41569 0.07201 0.59091 0.0
H1119 H 0.37349 0.0936 0.64199 0.0
C1120 C 0.34507 0.12047 0.6285 0.0
C1121 C 0.33786 0.13207 0.61313 0.0
C1122 C 0.42349 0.06698 0.60311 0.0
C1123 C 0.38427 0.09536 0.61603 0.0
C1124 C 0.44823 0.05095 0.60471 0.0
C1125 C 0.4592 0.0447 0.62038 0.0
C1126 C 0.40952 0.07673 0.61726 0.0
C1127 C 0.4441 0.05409 0.63421 0.0
C1128 C 0.36825 0.10222 0.63 0.0
C1129 C 0.35442 0.12467 0.59946 0.0
N1130 N 0.4201 0.06972 0.63233 0.0
N1131 N 0.37683 0.10677 0.60123 0.0
H1132 H 0.10282 0.08213 0.8905 0.0
H1133 H 0.18012 0.21091 0.84438 0.0
H1134 H 0.09471 0.0982 0.83838 0.0
H1135 H 0.17464 0.20375 0.89725 0.0
H1136 H 0.15318 0.16675 0.84174 0.0
H1137 H 0.13306 0.12405 0.89295 0.0
C1138 C 0.10739 0.09445 0.87956 0.0
C1139 C 0.09608 0.08666 0.86421 0.0
C1140 C 0.15798 0.17479 0.85391 0.0
C1141 C 0.13087 0.13466 0.86695 0.0
C1142 C 0.17348 0.19995 0.85544 0.0
C1143 C 0.17956 0.21116 0.87107 0.0
C1144 C 0.14859 0.16063 0.8681 0.0
C1145 C 0.17035 0.196 0.88495 0.0
C1146 C 0.12466 0.11841 0.88098 0.0
C1147 C 0.10281 0.10346 0.85047 0.0
N1148 N 0.15528 0.17156 0.88314 0.0
N1149 N 0.11979 0.12665 0.85217 0.0
H1150 H 0.14705 0.85554 0.13807 0.0
H1151 H 0.01815 0.93423 0.09284 0.0
H1152 H 0.12802 0.8456 0.08639 0.0
H1153 H 0.02981 0.93333 0.14556 0.0
H1154 H 0.06077 0.90518 0.08991 0.0
H1155 H 0.10614 0.88695 0.14074 0.0
C1156 C 0.13426 0.8599 0.12728 0.0
C1157 C 0.14097 0.84782 0.11199 0.0
C1158 C 0.05404 0.91144 0.10211 0.0
C1159 C 0.09416 0.88398 0.11495 0.0
C1160 C 0.02978 0.92815 0.1038 0.0
C1161 C 0.02028 0.93616 0.11948 0.0
C1162 C 0.06902 0.90276 0.1162 0.0
C1163 C 0.03623 0.92757 0.13322 0.0
C1164 C 0.1109 0.87787 0.12882 0.0
C1165 C 0.1236 0.85432 0.09844 0.0
N1166 N 0.05975 0.9113 0.13126 0.0
N1167 N 0.10104 0.87199 0.10024 0.0
H1168 H 0.67215 0.7775 0.89876 0.0
H1169 H 0.59398 0.88457 0.83698 0.0
H1170 H 0.67416 0.76867 0.84589 0.0
H1171 H 0.60249 0.89987 0.88914 0.0
H1172 H 0.6217 0.841 0.84012 0.0
H1173 H 0.64517 0.8215 0.89557 0.0
C1174 C 0.66698 0.78482 0.88647 0.0
C1175 C 0.67545 0.76932 0.87257 0.0
C1176 C 0.61753 0.85392 0.85087 0.0
C1177 C 0.64442 0.81967 0.86885 0.0
C1178 C 0.60163 0.87878 0.8491 0.0
C1179 C 0.59587 0.89595 0.86282 0.0
C1180 C 0.62764 0.84604 0.86649 0.0
C1181 C 0.60642 0.88735 0.87821 0.0
C1182 C 0.65158 0.80998 0.88466 0.0
C1183 C 0.66815 0.77991 0.85696 0.0
N1184 N 0.62173 0.86299 0.87963 0.0
N1185 N 0.65297 0.80437 0.85553 0.0
H1186 H 0.97584 0.89942 0.63607 0.0
H1187 H 0.81572 0.88915 0.61904 0.0
H1188 H 0.94003 0.96771 0.60725 0.0
H1189 H 0.86884 0.82226 0.59996 0.0
H1190 H 0.85798 0.91939 0.62241 0.0
H1191 H 0.93311 0.871 0.63087 0.0
C1192 C 0.95882 0.90851 0.6288 0.0
C1193 C 0.96127 0.93589 0.62208 0.0
C1194 C 0.86017 0.89812 0.61743 0.0
C1195 C 0.91261 0.90388 0.61643 0.0
C1196 C 0.83629 0.8809 0.61559 0.0
C1197 C 0.839 0.8533 0.60922 0.0
C1198 C 0.88685 0.88717 0.6134 0.0
C1199 C 0.86599 0.8435 0.60484 0.0
C1200 C 0.93469 0.89226 0.62578 0.0
C1201 C 0.93883 0.94663 0.6126 0.0
N1202 N 0.88905 0.86029 0.60729 0.0
N1203 N 0.9151 0.93068 0.6102 0.0
H1204 H 0.79903 0.20007 0.39413 0.0
H1205 H 0.87699 0.09134 0.33382 0.0
H1206 H 0.79591 0.20709 0.34119 0.0
H1207 H 0.86859 0.07776 0.38613 0.0
H1208 H 0.84689 0.13348 0.33614 0.0
H1209 H 0.82388 0.15478 0.39136 0.0
C1210 C 0.80338 0.19201 0.38191 0.0
C1211 C 0.79548 0.20752 0.36787 0.0
C1212 C 0.85151 0.12117 0.34709 0.0
C1213 C 0.82418 0.1557 0.36461 0.0
C1214 C 0.86874 0.09712 0.34578 0.0
C1215 C 0.87548 0.08102 0.35981 0.0
C1216 C 0.84108 0.12932 0.36256 0.0
C1217 C 0.86406 0.08952 0.37498 0.0
C1218 C 0.81758 0.16611 0.38034 0.0
C1219 C 0.80162 0.19591 0.35236 0.0
N1220 N 0.84759 0.11316 0.37596 0.0
N1221 N 0.81581 0.17083 0.35115 0.0
H1222 H 0.65393 0.12149 0.13821 0.0
H1223 H 0.5259 0.04645 0.09023 0.0
H1224 H 0.63821 0.13294 0.08625 0.0
H1225 H 0.53509 0.04659 0.14309 0.0
H1226 H 0.57019 0.07319 0.08801 0.0
H1227 H 0.61343 0.08945 0.13964 0.0
C1228 C 0.64203 0.11724 0.12707 0.0
C1229 C 0.64944 0.13013 0.1121 0.0
C1230 C 0.56258 0.06719 0.10008 0.0
C1231 C 0.60292 0.09328 0.11368 0.0
C1232 C 0.53737 0.05179 0.10136 0.0
C1233 C 0.52663 0.04441 0.11688 0.0
C1234 C 0.57724 0.07514 0.11441 0.0
C1235 C 0.54242 0.05198 0.13087 0.0
C1236 C 0.61886 0.0989 0.12791 0.0
C1237 C 0.63321 0.12364 0.09808 0.0
N1238 N 0.56683 0.06701 0.1293 0.0
N1239 N 0.61067 0.10572 0.09922 0.0
H1240 H 0.67565 0.20436 0.58637 0.0
H1241 H 0.59961 0.09926 0.64976 0.0
H1242 H 0.68339 0.21197 0.63913 0.0
H1243 H 0.60438 0.0832 0.59753 0.0
H1244 H 0.62928 0.14136 0.64603 0.0
H1245 H 0.6489 0.16033 0.59013 0.0
C1246 C 0.6719 0.1967 0.59874 0.0
C1247 C 0.68173 0.21197 0.61245 0.0
C1248 C 0.62389 0.12857 0.63539 0.0
C1249 C 0.65087 0.16168 0.61684 0.0
C1250 C 0.60686 0.10457 0.6375 0.0
C1251 C 0.59941 0.08766 0.62393 0.0
C1252 C 0.63342 0.13588 0.61959 0.0
C1253 C 0.60956 0.09557 0.60835 0.0
C1254 C 0.65661 0.17155 0.60088 0.0
C1255 C 0.67624 0.20094 0.62819 0.0
N1256 N 0.62594 0.11916 0.6066 0.0
N1257 N 0.66102 0.17659 0.62995 0.0
H1258 H 0.52468 0.94468 0.39082 0.0
H1259 H 0.6541 0.86684 0.34612 0.0
H1260 H 0.53392 0.9392 0.33808 0.0
H1261 H 0.63704 0.85943 0.39813 0.0
H1262 H 0.61357 0.8987 0.3434 0.0
H1263 H 0.56941 0.91907 0.39409 0.0
C1264 C 0.53623 0.93838 0.37992 0.0
C1265 C 0.52538 0.94392 0.36414 0.0
C1266 C 0.61875 0.89019 0.35542 0.0
C1267 C 0.57653 0.91449 0.36782 0.0
C1268 C 0.64194 0.87199 0.357 0.0
C1269 C 0.64891 0.86022 0.37237 0.0
C1270 C 0.60241 0.8968 0.3693 0.0
C1271 C 0.63237 0.86782 0.38602 0.0
C1272 C 0.56172 0.92365 0.38181 0.0
C1273 C 0.54133 0.93522 0.35048 0.0
N1274 N 0.60984 0.88555 0.38415 0.0
N1275 N 0.56601 0.92084 0.35264 0.0
H1276 H 0.80098 0.78383 0.0922 0.0
H1277 H 0.88068 0.891 0.15304 0.0
H1278 H 0.80067 0.77447 0.14506 0.0
H1279 H 0.87069 0.90585 0.10091 0.0
H1280 H 0.85125 0.84839 0.15049 0.0
H1281 H 0.82629 0.8288 0.09525 0.0
C1282 C 0.8061 0.79127 0.10446 0.0
C1283 C 0.79876 0.77524 0.11839 0.0
C1284 C 0.8554 0.86107 0.13964 0.0
C1285 C 0.82794 0.82674 0.12197 0.0
C1286 C 0.87224 0.88539 0.14107 0.0
C1287 C 0.8783 0.90201 0.12716 0.0
C1288 C 0.84467 0.8532 0.12416 0.0
C1289 C 0.86667 0.89371 0.11198 0.0
C1290 C 0.82055 0.817 0.10619 0.0
C1291 C 0.8059 0.78607 0.13397 0.0
N1292 N 0.85057 0.86983 0.11088 0.0
N1293 N 0.82025 0.81105 0.13533 0.0
H1294 H 0.94618 0.04648 0.84418 0.0
H1295 H 0.84976 0.13814 0.90506 0.0
H1296 H 0.95847 0.04781 0.89683 0.0
H1297 H 0.83192 0.12714 0.85331 0.0
H1298 H 0.88964 0.10521 0.90245 0.0
H1299 H 0.90376 0.07543 0.84749 0.0
C1300 C 0.93982 0.05264 0.85647 0.0
C1301 C 0.95602 0.0448 0.87024 0.0
C1302 C 0.87693 0.10996 0.89169 0.0
C1303 C 0.90752 0.07834 0.87411 0.0
C1304 C 0.85423 0.12887 0.89315 0.0
C1305 C 0.83748 0.13553 0.87937 0.0
C1306 C 0.88303 0.09774 0.87633 0.0
C1307 C 0.84423 0.12272 0.86427 0.0
C1308 C 0.91558 0.06923 0.85835 0.0
C1309 C 0.94664 0.05334 0.88586 0.0
N1310 N 0.8665 0.10455 0.86316 0.0
N1311 N 0.92314 0.06988 0.88736 0.0
H1312 H 0.80139 0.71418 0.64152 0.0
H1313 H 0.87551 0.58168 0.59717 0.0
H1314 H 0.80267 0.70181 0.58889 0.0
H1315 H 0.88613 0.60063 0.64881 0.0
H1316 H 0.84516 0.62337 0.59441 0.0
H1317 H 0.82839 0.67011 0.64491 0.0
C1318 C 0.8071 0.70209 0.63069 0.0
C1319 C 0.79985 0.71181 0.61488 0.0
C1320 C 0.85411 0.61843 0.60635 0.0
C1321 C 0.83086 0.66145 0.61869 0.0
C1322 C 0.87148 0.59459 0.60795 0.0
C1323 C 0.88353 0.58766 0.62324 0.0
C1324 C 0.84858 0.6355 0.62014 0.0
C1325 C 0.87743 0.60522 0.63676 0.0
C1326 C 0.82264 0.677 0.63263 0.0
C1327 C 0.8079 0.69526 0.6013 0.0
N1328 N 0.86038 0.62833 0.63489 0.0
N1329 N 0.82301 0.67096 0.60352 0.0
H1330 H 0.63775 0.62417 0.90326 0.0
H1331 H 0.53671 0.54035 0.84107 0.0
H1332 H 0.65442 0.61553 0.85128 0.0
H1333 H 0.5251 0.53982 0.89374 0.0
H1334 H 0.58113 0.56604 0.84481 0.0
H1335 H 0.59748 0.59186 0.90029 0.0
C1336 C 0.63304 0.61541 0.89124 0.0
C1337 C 0.64941 0.62278 0.87748 0.0
C1338 C 0.56901 0.5601 0.85558 0.0
C1339 C 0.60329 0.58579 0.874 0.0
C1340 C 0.54362 0.5454 0.85345 0.0
C1341 C 0.52701 0.53809 0.86711 0.0
C1342 C 0.57782 0.56782 0.87148 0.0
C1343 C 0.53716 0.54508 0.88285 0.0
C1344 C 0.61007 0.5969 0.88956 0.0
C1345 C 0.64237 0.61061 0.86223 0.0
N1346 N 0.56177 0.55981 0.8846 0.0
N1347 N 0.61975 0.5929 0.86089 0.0
H1348 H 0.61073 0.40784 0.10169 0.0
H1349 H 0.68105 0.27402 0.14711 0.0
H1350 H 0.5994 0.38999 0.15338 0.0
H1351 H 0.68145 0.28634 0.09446 0.0
H1352 H 0.65496 0.31868 0.15014 0.0
H1353 H 0.64037 0.3656 0.09936 0.0
C1354 C 0.61451 0.3951 0.11258 0.0
C1355 C 0.60238 0.40248 0.12775 0.0
C1356 C 0.66086 0.31163 0.13794 0.0
C1357 C 0.63646 0.35391 0.12514 0.0
C1358 C 0.67584 0.28617 0.13619 0.0
C1359 C 0.68337 0.27629 0.12049 0.0
C1360 C 0.65346 0.32742 0.12389 0.0
C1361 C 0.676 0.29299 0.1068 0.0
C1362 C 0.63145 0.37092 0.11123 0.0
C1363 C 0.60817 0.3851 0.14143 0.0
N1364 N 0.66143 0.31766 0.10882 0.0
N1365 N 0.62476 0.3616 0.13979 0.0
H1366 H 0.83763 0.35515 0.34533 0.0
H1367 H 0.9647 0.43276 0.39279 0.0
H1368 H 0.85317 0.34605 0.39745 0.0
H1369 H 0.95703 0.43045 0.33985 0.0
H1370 H 0.92166 0.40415 0.39493 0.0
H1371 H 0.87947 0.38549 0.34328 0.0
C1372 C 0.84984 0.35947 0.35635 0.0
C1373 C 0.84187 0.34795 0.37159 0.0
C1374 C 0.92937 0.40996 0.38285 0.0
C1375 C 0.88974 0.38286 0.36932 0.0
C1376 C 0.95389 0.42641 0.38161 0.0
C1377 C 0.96459 0.43397 0.36611 0.0
C1378 C 0.91533 0.4011 0.36849 0.0
C1379 C 0.94965 0.42506 0.35206 0.0
C1380 C 0.87374 0.37682 0.35516 0.0
C1381 C 0.85854 0.35435 0.38544 0.0
N1382 N 0.92582 0.40908 0.35359 0.0
N1383 N 0.88164 0.37142 0.38397 0.0
H1384 H 0.87504 0.39389 0.83413 0.0
H1385 H 0.79812 0.28965 0.89763 0.0
H1386 H 0.8671 0.41122 0.88609 0.0
H1387 H 0.79567 0.27751 0.84499 0.0
H1388 H 0.82265 0.33477 0.89348 0.0
H1389 H 0.8454 0.35162 0.83766 0.0
C1390 C 0.86698 0.38891 0.84626 0.0
C1391 C 0.87373 0.4061 0.85985 0.0
C1392 C 0.81659 0.32235 0.88282 0.0
C1393 C 0.83986 0.35769 0.86397 0.0
C1394 C 0.80257 0.29653 0.88518 0.0
C1395 C 0.79492 0.27965 0.87164 0.0
C1396 C 0.82326 0.33131 0.8668 0.0
C1397 C 0.80118 0.28978 0.8558 0.0
C1398 C 0.85002 0.36479 0.84826 0.0
C1399 C 0.86257 0.3986 0.87526 0.0
N1400 N 0.81518 0.31485 0.85382 0.0
N1401 N 0.84636 0.3749 0.8769 0.0
H1402 H 0.96043 0.54821 0.09348 0.0
H1403 H 0.83215 0.62431 0.14032 0.0
H1404 H 0.95289 0.55177 0.14637 0.0
H1405 H 0.84682 0.63237 0.08809 0.0
H1406 H 0.87398 0.59401 0.14247 0.0
H1407 H 0.91637 0.57518 0.09101 0.0
C1408 C 0.94945 0.55449 0.10458 0.0
C1409 C 0.96049 0.54779 0.12017 0.0
C1410 C 0.86803 0.60238 0.13053 0.0
C1411 C 0.91003 0.57874 0.11741 0.0
C1412 C 0.8441 0.61967 0.12928 0.0
C1413 C 0.83597 0.63103 0.114 0.0
C1414 C 0.88395 0.59625 0.1164 0.0
C1415 C 0.85233 0.62421 0.10014 0.0
C1416 C 0.92433 0.56998 0.10315 0.0
C1417 C 0.94528 0.55654 0.1341 0.0
N1418 N 0.87553 0.60728 0.10168 0.0
N1419 N 0.92088 0.57159 0.13239 0.0
H1420 H 0.59815 0.58575 0.3887 0.0
H1421 H 0.67359 0.71483 0.34179 0.0
H1422 H 0.58799 0.60183 0.3367 0.0
H1423 H 0.6715 0.70648 0.39468 0.0
H1424 H 0.64515 0.67155 0.33943 0.0
H1425 H 0.62768 0.62821 0.39086 0.0
C1426 C 0.60209 0.59821 0.37773 0.0
C1427 C 0.59049 0.59019 0.36249 0.0
C1428 C 0.65096 0.67918 0.35155 0.0
C1429 C 0.62448 0.63885 0.36489 0.0
C1430 C 0.66729 0.70384 0.35291 0.0
C1431 C 0.67492 0.71438 0.36847 0.0
C1432 C 0.6423 0.66481 0.36583 0.0
C1433 C 0.66607 0.69923 0.38244 0.0
C1434 C 0.61896 0.62248 0.37898 0.0
C1435 C 0.59638 0.60722 0.34871 0.0
N1436 N 0.65025 0.67523 0.38078 0.0
N1437 N 0.61302 0.6307 0.35023 0.0
H1438 H 0.6484 0.36079 0.63515 0.0
H1439 H 0.51726 0.43748 0.59099 0.0
H1440 H 0.62913 0.35176 0.58345 0.0
H1441 H 0.52936 0.43526 0.64366 0.0
H1442 H 0.56081 0.41001 0.58764 0.0
H1443 H 0.60715 0.39163 0.63814 0.0
C1444 C 0.63552 0.36527 0.62441 0.0
C1445 C 0.64221 0.35353 0.60903 0.0
C1446 C 0.55397 0.41564 0.59993 0.0
C1447 C 0.59497 0.38899 0.61238 0.0
C1448 C 0.52917 0.43144 0.60185 0.0
C1449 C 0.51952 0.43858 0.61764 0.0
C1450 C 0.56934 0.40702 0.61388 0.0
C1451 C 0.53587 0.43013 0.63125 0.0
C1452 C 0.61195 0.3829 0.62614 0.0
C1453 C 0.62473 0.36019 0.59556 0.0
N1454 N 0.55991 0.41474 0.62906 0.0
N1455 N 0.60192 0.37748 0.59755 0.0
H1456 H 0.108 0.39346 0.33645 0.0
H1457 H 0.18199 0.28336 0.39786 0.0
H1458 H 0.11306 0.40625 0.38898 0.0
H1459 H 0.18766 0.27738 0.34495 0.0
H1460 H 0.15753 0.32887 0.39487 0.0
H1461 H 0.13777 0.35125 0.3393 0.0
C1462 C 0.11545 0.38748 0.34858 0.0
C1463 C 0.10787 0.40338 0.36251 0.0
C1464 C 0.16431 0.31771 0.38392 0.0
C1465 C 0.14192 0.35495 0.36586 0.0
C1466 C 0.17828 0.29169 0.38561 0.0
C1467 C 0.18677 0.2764 0.37163 0.0
C1468 C 0.15856 0.32846 0.36813 0.0
C1469 C 0.18146 0.28835 0.35608 0.0
C1470 C 0.13251 0.36338 0.35019 0.0
C1471 C 0.11829 0.39464 0.3779 0.0
N1472 N 0.1675 0.31354 0.35476 0.0
N1473 N 0.13462 0.37092 0.37917 0.0
H1474 H 0.32883 0.36771 0.13813 0.0
H1475 H 0.46112 0.44088 0.09346 0.0
H1476 H 0.34612 0.35902 0.08623 0.0
H1477 H 0.44983 0.43878 0.14616 0.0
H1478 H 0.41636 0.41531 0.09018 0.0
H1479 H 0.37048 0.39809 0.14085 0.0
C1480 C 0.34129 0.37227 0.12728 0.0
C1481 C 0.334 0.36062 0.11194 0.0
C1482 C 0.42364 0.42057 0.10245 0.0
C1483 C 0.38182 0.39546 0.11499 0.0
C1484 C 0.44916 0.43525 0.10434 0.0
C1485 C 0.45938 0.44186 0.12012 0.0
C1486 C 0.40814 0.41253 0.11643 0.0
C1487 C 0.44291 0.434 0.13376 0.0
C1488 C 0.36512 0.38961 0.12885 0.0
C1489 C 0.35098 0.36739 0.09831 0.0
N1490 N 0.41818 0.4197 0.13159 0.0
N1491 N 0.37413 0.3843 0.10017 0.0
H1492 H 0.30838 0.7027 0.89678 0.0
H1493 H 0.38913 0.59835 0.83493 0.0
H1494 H 0.30456 0.71134 0.84392 0.0
H1495 H 0.38074 0.58218 0.887 0.0
H1496 H 0.35957 0.64073 0.83802 0.0
H1497 H 0.33589 0.6591 0.89346 0.0
C1498 C 0.31318 0.69537 0.88447 0.0
C1499 C 0.30416 0.71078 0.87061 0.0
C1500 C 0.36416 0.62786 0.84876 0.0
C1501 C 0.33592 0.66092 0.86673 0.0
C1502 C 0.38114 0.60371 0.84702 0.0
C1503 C 0.38749 0.58665 0.86073 0.0
C1504 C 0.3536 0.63515 0.86434 0.0
C1505 C 0.37642 0.59464 0.87607 0.0
C1506 C 0.32891 0.67045 0.88258 0.0
C1507 C 0.31102 0.70017 0.85496 0.0
N1508 N 0.3601 0.61833 0.87746 0.0
N1509 N 0.32663 0.676 0.85345 0.0
H1510 H 0.02228 0.54474 0.59025 0.0
H1511 H 0.15381 0.61867 0.63549 0.0
H1512 H 0.0344 0.54572 0.64292 0.0
H1513 H 0.13513 0.6305 0.58389 0.0
H1514 H 0.11308 0.58715 0.63773 0.0
H1515 H 0.06664 0.57112 0.58705 0.0
C1516 C 0.0344 0.55021 0.60114 0.0
C1517 C 0.02449 0.54314 0.6169 0.0
C1518 C 0.1179 0.59656 0.6259 0.0
C1519 C 0.07516 0.57341 0.6133 0.0
C1520 C 0.14121 0.6146 0.62459 0.0
C1521 C 0.14786 0.62746 0.60949 0.0
C1522 C 0.10102 0.59119 0.612 0.0
C1523 C 0.13073 0.6212 0.5958 0.0
C1524 C 0.05964 0.56539 0.59929 0.0
C1525 C 0.04108 0.55086 0.63054 0.0
N1526 N 0.10804 0.60356 0.5974 0.0
N1527 N 0.0655 0.56564 0.62842 0.0
H1528 H 0.11025 0.57618 0.09713 0.0
H1529 H 0.1881 0.70598 0.14224 0.0
H1530 H 0.10498 0.5919 0.14938 0.0
H1531 H 0.17993 0.69884 0.08947 0.0
H1532 H 0.16286 0.66087 0.14524 0.0
H1533 H 0.14072 0.61789 0.09434 0.0
C1534 C 0.11557 0.58831 0.10804 0.0
C1535 C 0.10485 0.58058 0.12351 0.0
C1536 C 0.16673 0.66912 0.13301 0.0
C1537 C 0.13984 0.62838 0.12037 0.0
C1538 C 0.18124 0.69483 0.13127 0.0
C1539 C 0.18599 0.70636 0.11557 0.0
C1540 C 0.157 0.65472 0.11896 0.0
C1541 C 0.1766 0.69089 0.10182 0.0
C1542 C 0.13296 0.61216 0.10642 0.0
C1543 C 0.11258 0.59713 0.13719 0.0
N1544 N 0.16247 0.66593 0.10384 0.0
N1545 N 0.12955 0.62026 0.13529 0.0
H1546 H 0.12664 0.34999 0.90085 0.0
H1547 H 0.02564 0.43607 0.8394 0.0
H1548 H 0.14331 0.35968 0.84892 0.0
H1549 H 0.01553 0.4366 0.89219 0.0
H1550 H 0.06856 0.4077 0.84265 0.0
H1551 H 0.08531 0.38086 0.89788 0.0
C1552 C 0.12161 0.35855 0.88881 0.0
C1553 C 0.13848 0.35216 0.8751 0.0
C1554 C 0.05705 0.41414 0.85353 0.0
C1555 C 0.09118 0.38757 0.87165 0.0
C1556 C 0.03251 0.43036 0.85169 0.0
C1557 C 0.01687 0.43867 0.86554 0.0
C1558 C 0.06596 0.40595 0.86933 0.0
C1559 C 0.02689 0.43069 0.88116 0.0
C1560 C 0.09805 0.37627 0.88715 0.0
C1561 C 0.13095 0.36399 0.85984 0.0
N1562 N 0.0507 0.41462 0.88262 0.0
N1563 N 0.10783 0.38105 0.85852 0.0
H1564 H 0.3014 0.28282 0.58996 0.0
H1565 H 0.37901 0.39062 0.65126 0.0
H1566 H 0.29755 0.27522 0.64285 0.0
H1567 H 0.37056 0.40525 0.59902 0.0
H1568 H 0.34945 0.34815 0.64851 0.0
H1569 H 0.32683 0.32774 0.59308 0.0
C1570 C 0.30575 0.29066 0.60224 0.0
C1571 C 0.2974 0.27513 0.61616 0.0
C1572 C 0.35396 0.36075 0.63767 0.0
C1573 C 0.32673 0.32651 0.61983 0.0
C1574 C 0.3709 0.38498 0.63923 0.0
C1575 C 0.3774 0.40151 0.62534 0.0
C1576 C 0.34361 0.35286 0.62211 0.0
C1577 C 0.36617 0.39317 0.61007 0.0
C1578 C 0.32026 0.31634 0.60401 0.0
C1579 C 0.30356 0.28643 0.63176 0.0
N1580 N 0.34998 0.36937 0.60886 0.0
N1581 N 0.31804 0.31133 0.63317 0.0
H1582 H 0.45424 0.54358 0.3965 0.0
H1583 H 0.32195 0.61732 0.3519 0.0
H1584 H 0.44088 0.54379 0.34393 0.0
H1585 H 0.34227 0.63015 0.4032 0.0
H1586 H 0.36205 0.585 0.34959 0.0
H1587 H 0.40978 0.56967 0.39993 0.0
C1588 C 0.44182 0.54879 0.38569 0.0
C1589 C 0.45144 0.54166 0.36988 0.0
C1590 C 0.35771 0.5948 0.36137 0.0
C1591 C 0.40064 0.5716 0.37374 0.0
C1592 C 0.33476 0.61329 0.36272 0.0
C1593 C 0.3288 0.62672 0.37775 0.0
C1594 C 0.37492 0.58955 0.37515 0.0
C1595 C 0.34615 0.62044 0.39134 0.0
C1596 C 0.41651 0.5638 0.38766 0.0
C1597 C 0.43445 0.54902 0.35634 0.0
N1598 N 0.3685 0.60239 0.3897 0.0
N1599 N 0.40998 0.56368 0.35858 0.0
loop_
_geom_bond_atom_site_label_1
_geom_bond_atom_site_label_2
_geom_bond_distance
_geom_bond_site_symmetry_2
_ccdc_geom_bond_type
C0 O1 1.306 . S
C0 O3 1.160 . S
O1 C0 1.306 . S
O1 Cd2 2.228 . S
Cd2 O1 2.228 . S
Cd2 O6 2.273 . S
Cd2 O10 2.277 . S
O3 C0 1.160 . S
O3 Cd4 2.203 . S
Cd4 O3 2.203 . S
Cd4 O6 2.411 . S
Cd4 O7 2.333 . S
Cd4 O8 2.352 . S
Cd4 O12 2.277 . S
Cd4 O13 2.356 . S
C5 O10 1.209 . S
C5 O12 1.226 . S
O6 Cd2 2.273 . S
O6 Cd4 2.411 . S
O6 C9 1.320 . S
O7 Cd4 2.333 . S
O7 C9 1.214 . S
O8 Cd4 2.352 . S
O8 C11 1.258 . S
C9 O6 1.320 . S
C9 O7 1.214 . S
O10 Cd2 2.277 . S
O10 C5 1.209 . S
C11 O8 1.258 . S
C11 O13 1.282 . S
O12 Cd4 2.277 . S
O12 C5 1.226 . S
O13 Cd4 2.356 . S
O13 C11 1.282 . S
C14 O15 1.306 . S
C14 O17 1.160 . S
O15 C14 1.306 . S
O15 Cd16 2.228 . S
Cd16 O15 2.228 . S
Cd16 O20 2.273 . S
Cd16 O24 2.277 . S
O17 C14 1.160 . S
O17 Cd18 2.203 . S
Cd18 O17 2.203 . S
Cd18 O20 2.411 . S
Cd18 O21 2.333 . S
Cd18 O22 2.352 . S
Cd18 O26 2.277 . S
Cd18 O27 2.356 . S
C19 O24 1.209 . S
C19 O26 1.226 . S
O20 Cd16 2.273 . S
O20 Cd18 2.411 . S
O20 C23 1.320 . S
O21 Cd18 2.333 . S
O21 C23 1.214 . S
O22 Cd18 2.352 . S
O22 C25 1.258 . S
C23 O20 1.320 . S
C23 O21 1.214 . S
O24 Cd16 2.277 . S
O24 C19 1.209 . S
C25 O22 1.258 . S
C25 O27 1.282 . S
O26 Cd18 2.277 . S
O26 C19 1.226 . S
O27 Cd18 2.356 . S
O27 C25 1.282 . S
C28 O29 1.306 . S
C28 O31 1.160 . S
O29 C28 1.306 . S
O29 Cd30 2.228 . S
Cd30 O29 2.228 . S
Cd30 O34 2.273 . S
Cd30 O38 2.277 . S
O31 C28 1.160 . S
O31 Cd32 2.203 . S
Cd32 O31 2.203 . S
Cd32 O34 2.411 . S
Cd32 O35 2.333 . S
Cd32 O36 2.352 . S
Cd32 O40 2.277 . S
Cd32 O41 2.356 . S
C33 O38 1.209 . S
C33 O40 1.226 . S
O34 Cd30 2.273 . S
O34 Cd32 2.411 . S
O34 C37 1.320 . S
O35 Cd32 2.333 . S
O35 C37 1.214 . S
O36 Cd32 2.352 . S
O36 C39 1.258 . S
C37 O34 1.320 . S
C37 O35 1.214 . S
O38 Cd30 2.277 . S
O38 C33 1.209 . S
C39 O36 1.258 . S
C39 O41 1.282 . S
O40 Cd32 2.277 . S
O40 C33 1.226 . S
O41 Cd32 2.356 . S
O41 C39 1.282 . S
C42 O43 1.306 . S
C42 O45 1.160 . S
O43 C42 1.306 . S
O43 Cd44 2.228 . S
Cd44 O43 2.228 . S
Cd44 O48 2.273 . S
Cd44 O52 2.277 . S
O45 C42 1.160 . S
O45 Cd46 2.203 . S
Cd46 O45 2.203 . S
Cd46 O48 2.411 . S
Cd46 O49 2.333 . S
Cd46 O50 2.352 . S
Cd46 O54 2.277 . S
Cd46 O55 2.356 . S
C47 O52 1.209 . S
C47 O54 1.226 . S
O48 Cd44 2.273 . S
O48 Cd46 2.411 . S
O48 C51 1.320 . S
O49 Cd46 2.333 . S
O49 C51 1.214 . S
O50 Cd46 2.352 . S
O50 C53 1.258 . S
C51 O48 1.320 . S
C51 O49 1.214 . S
O52 Cd44 2.277 . S
O52 C47 1.209 . S
C53 O50 1.258 . S
C53 O55 1.282 . S
O54 Cd46 2.277 . S
O54 C47 1.226 . S
O55 Cd46 2.356 . S
O55 C53 1.282 . S
C56 O57 1.306 . S
C56 O59 1.160 . S
O57 C56 1.306 . S
O57 Cd58 2.228 . S
Cd58 O57 2.228 . S
Cd58 O62 2.273 . S
Cd58 O66 2.277 . S
O59 C56 1.160 . S
O59 Cd60 2.203 . S
Cd60 O59 2.203 . S
Cd60 O62 2.411 . S
Cd60 O63 2.333 . S
Cd60 O64 2.352 . S
Cd60 O68 2.277 . S
Cd60 O69 2.356 . S
C61 O66 1.209 . S
C61 O68 1.226 . S
O62 Cd58 2.273 . S
O62 Cd60 2.411 . S
O62 C65 1.320 . S
O63 Cd60 2.333 . S
O63 C65 1.214 . S
O64 Cd60 2.352 . S
O64 C67 1.258 . S
C65 O62 1.320 . S
C65 O63 1.214 . S
O66 Cd58 2.277 . S
O66 C61 1.209 . S
C67 O64 1.258 . S
C67 O69 1.282 . S
O68 Cd60 2.277 . S
O68 C61 1.226 . S
O69 Cd60 2.356 . S
O69 C67 1.282 . S
C70 O71 1.306 . S
C70 O73 1.160 . S
O71 C70 1.306 . S
O71 Cd72 2.228 . S
Cd72 O71 2.228 . S
Cd72 O76 2.273 . S
Cd72 O80 2.277 . S
O73 C70 1.160 . S
O73 Cd74 2.203 . S
Cd74 O73 2.203 . S
Cd74 O76 2.411 . S
Cd74 O77 2.333 . S
Cd74 O78 2.352 . S
Cd74 O82 2.277 . S
Cd74 O83 2.356 . S
C75 O80 1.209 . S
C75 O82 1.226 . S
O76 Cd72 2.273 . S
O76 Cd74 2.411 . S
O76 C79 1.320 . S
O77 Cd74 2.333 . S
O77 C79 1.214 . S
O78 Cd74 2.352 . S
O78 C81 1.258 . S
C79 O76 1.320 . S
C79 O77 1.214 . S
O80 Cd72 2.277 . S
O80 C75 1.209 . S
C81 O78 1.258 . S
C81 O83 1.282 . S
O82 Cd74 2.277 . S
O82 C75 1.226 . S
O83 Cd74 2.356 . S
O83 C81 1.282 . S
C84 O85 1.306 . S
C84 O87 1.160 . S
O85 C84 1.306 . S
O85 Cd86 2.228 . S
Cd86 O85 2.228 . S
Cd86 O90 2.273 . S
Cd86 O94 2.277 . S
O87 C84 1.160 . S
O87 Cd88 2.203 . S
Cd88 O87 2.203 . S
Cd88 O90 2.411 . S
Cd88 O91 2.333 . S
Cd88 O92 2.352 . S
Cd88 O96 2.277 . S
Cd88 O97 2.356 . S
C89 O94 1.209 . S
C89 O96 1.226 . S
O90 Cd86 2.273 . S
O90 Cd88 2.411 . S
O90 C93 1.320 . S
O91 Cd88 2.333 . S
O91 C93 1.214 . S
O92 Cd88 2.352 . S
O92 C95 1.258 . S
C93 O90 1.320 . S
C93 O91 1.214 . S
O94 Cd86 2.277 . S
O94 C89 1.209 . S
C95 O92 1.258 . S
C95 O97 1.282 . S
O96 Cd88 2.277 . S
O96 C89 1.226 . S
O97 Cd88 2.356 . S
O97 C95 1.282 . S
C98 O99 1.306 . S
C98 O101 1.160 . S
O99 C98 1.306 . S
O99 Cd100 2.228 . S
Cd100 O99 2.228 . S
Cd100 O104 2.273 . S
Cd100 O108 2.277 . S
O101 C98 1.160 . S
O101 Cd102 2.203 . S
Cd102 O101 2.203 . S
Cd102 O104 2.411 . S
Cd102 O105 2.333 . S
Cd102 O106 2.352 . S
Cd102 O110 2.277 . S
Cd102 O111 2.356 . S
C103 O108 1.209 . S
C103 O110 1.226 . S
O104 Cd100 2.273 . S
O104 Cd102 2.411 . S
O104 C107 1.320 . S
O105 Cd102 2.333 . S
O105 C107 1.214 . S
O106 Cd102 2.352 . S
O106 C109 1.258 . S
C107 O104 1.320 . S
C107 O105 1.214 . S
O108 Cd100 2.277 . S
O108 C103 1.209 . S
C109 O106 1.258 . S
C109 O111 1.282 . S
O110 Cd102 2.277 . S
O110 C103 1.226 . S
O111 Cd102 2.356 . S
O111 C109 1.282 . S
C112 O113 1.306 . S
C112 O115 1.160 . S
O113 C112 1.306 . S
O113 Cd114 2.228 . S
Cd114 O113 2.228 . S
Cd114 O118 2.273 . S
Cd114 O122 2.277 . S
O115 C112 1.160 . S
O115 Cd116 2.203 . S
Cd116 O115 2.203 . S
Cd116 O118 2.411 . S
Cd116 O119 2.333 . S
Cd116 O120 2.352 . S
Cd116 O124 2.277 . S
Cd116 O125 2.356 . S
C117 O122 1.209 . S
C117 O124 1.226 . S
O118 Cd114 2.273 . S
O118 Cd116 2.411 . S
O118 C121 1.320 . S
O119 Cd116 2.333 . S
O119 C121 1.214 . S
O120 Cd116 2.352 . S
O120 C123 1.258 . S
C121 O118 1.320 . S
C121 O119 1.214 . S
O122 Cd114 2.277 . S
O122 C117 1.209 . S
C123 O120 1.258 . S
C123 O125 1.282 . S
O124 Cd116 2.277 . S
O124 C117 1.226 . S
O125 Cd116 2.356 . S
O125 C123 1.282 . S
C126 O127 1.306 . S
C126 O129 1.160 . S
O127 C126 1.306 . S
O127 Cd128 2.228 . S
Cd128 O127 2.228 . S
Cd128 O132 2.273 . S
Cd128 O136 2.277 . S
O129 C126 1.160 . S
O129 Cd130 2.203 . S
Cd130 O129 2.203 . S
Cd130 O132 2.411 . S
Cd130 O133 2.333 . S
Cd130 O134 2.352 . S
Cd130 O138 2.277 . S
Cd130 O139 2.356 . S
C131 O136 1.209 . S
C131 O138 1.226 . S
O132 Cd128 2.273 . S
O132 Cd130 2.411 . S
O132 C135 1.320 . S
O133 Cd130 2.333 . S
O133 C135 1.214 . S
O134 Cd130 2.352 . S
O134 C137 1.258 . S
C135 O132 1.320 . S
C135 O133 1.214 . S
O136 Cd128 2.277 . S
O136 C131 1.209 . S
C137 O134 1.258 . S
C137 O139 1.282 . S
O138 Cd130 2.277 . S
O138 C131 1.226 . S
O139 Cd130 2.356 . S
O139 C137 1.282 . S
C140 O141 1.306 . S
C140 O143 1.160 . S
O141 C140 1.306 . S
O141 Cd142 2.228 . S
Cd142 O141 2.228 . S
Cd142 O146 2.273 . S
Cd142 O150 2.277 . S
O143 C140 1.160 . S
O143 Cd144 2.203 . S
Cd144 O143 2.203 . S
Cd144 O146 2.411 . S
Cd144 O147 2.333 . S
Cd144 O148 2.352 . S
Cd144 O152 2.277 . S
Cd144 O153 2.356 . S
C145 O150 1.209 . S
C145 O152 1.226 . S
O146 Cd142 2.273 . S
O146 Cd144 2.411 . S
O146 C149 1.320 . S
O147 Cd144 2.333 . S
O147 C149 1.214 . S
O148 Cd144 2.352 . S
O148 C151 1.258 . S
C149 O146 1.320 . S
C149 O147 1.214 . S
O150 Cd142 2.277 . S
O150 C145 1.209 . S
C151 O148 1.258 . S
C151 O153 1.282 . S
O152 Cd144 2.277 . S
O152 C145 1.226 . S
O153 Cd144 2.356 . S
O153 C151 1.282 . S
C154 O155 1.306 . S
C154 O157 1.160 . S
O155 C154 1.306 . S
O155 Cd156 2.228 . S
Cd156 O155 2.228 . S
Cd156 O160 2.273 . S
Cd156 O164 2.277 . S
O157 C154 1.160 . S
O157 Cd158 2.203 . S
Cd158 O157 2.203 . S
Cd158 O160 2.411 . S
Cd158 O161 2.333 . S
Cd158 O162 2.352 . S
Cd158 O166 2.277 . S
Cd158 O167 2.356 . S
C159 O164 1.209 . S
C159 O166 1.226 . S
O160 Cd156 2.273 . S
O160 Cd158 2.411 . S
O160 C163 1.320 . S
O161 Cd158 2.333 . S
O161 C163 1.214 . S
O162 Cd158 2.352 . S
O162 C165 1.258 . S
C163 O160 1.320 . S
C163 O161 1.214 . S
O164 Cd156 2.277 . S
O164 C159 1.209 . S
C165 O162 1.258 . S
C165 O167 1.282 . S
O166 Cd158 2.277 . S
O166 C159 1.226 . S
O167 Cd158 2.356 . S
O167 C165 1.282 . S
C168 O169 1.306 . S
C168 O171 1.160 . S
O169 C168 1.306 . S
O169 Cd170 2.228 . S
Cd170 O169 2.228 . S
Cd170 O174 2.273 . S
Cd170 O178 2.277 . S
O171 C168 1.160 . S
O171 Cd172 2.203 . S
Cd172 O171 2.203 . S
Cd172 O174 2.411 . S
Cd172 O175 2.333 . S
Cd172 O176 2.352 . S
Cd172 O180 2.277 . S
Cd172 O181 2.356 . S
C173 O178 1.209 . S
C173 O180 1.226 . S
O174 Cd170 2.273 . S
O174 Cd172 2.411 . S
O174 C177 1.320 . S
O175 Cd172 2.333 . S
O175 C177 1.214 . S
O176 Cd172 2.352 . S
O176 C179 1.258 . S
C177 O174 1.320 . S
C177 O175 1.214 . S
O178 Cd170 2.277 . S
O178 C173 1.209 . S
C179 O176 1.258 . S
C179 O181 1.282 . S
O180 Cd172 2.277 . S
O180 C173 1.226 . S
O181 Cd172 2.356 . S
O181 C179 1.282 . S
C182 O183 1.306 . S
C182 O185 1.160 . S
O183 C182 1.306 . S
O183 Cd184 2.228 . S
Cd184 O183 2.228 . S
Cd184 O188 2.273 . S
Cd184 O192 2.277 . S
O185 C182 1.160 . S
O185 Cd186 2.203 . S
Cd186 O185 2.203 . S
Cd186 O188 2.411 . S
Cd186 O189 2.333 . S
Cd186 O190 2.352 . S
Cd186 O194 2.277 . S
Cd186 O195 2.356 . S
C187 O192 1.209 . S
C187 O194 1.226 . S
O188 Cd184 2.273 . S
O188 Cd186 2.411 . S
O188 C191 1.320 . S
O189 Cd186 2.333 . S
O189 C191 1.214 . S
O190 Cd186 2.352 . S
O190 C193 1.258 . S
C191 O188 1.320 . S
C191 O189 1.214 . S
O192 Cd184 2.277 . S
O192 C187 1.209 . S
C193 O190 1.258 . S
C193 O195 1.282 . S
O194 Cd186 2.277 . S
O194 C187 1.226 . S
O195 Cd186 2.356 . S
O195 C193 1.282 . S
C196 O197 1.306 . S
C196 O199 1.160 . S
O197 C196 1.306 . S
O197 Cd198 2.228 . S
Cd198 O197 2.228 . S
Cd198 O202 2.273 . S
Cd198 O206 2.277 . S
O199 C196 1.160 . S
O199 Cd200 2.203 . S
Cd200 O199 2.203 . S
Cd200 O202 2.411 . S
Cd200 O203 2.333 . S
Cd200 O204 2.352 . S
Cd200 O208 2.277 . S
Cd200 O209 2.356 . S
C201 O206 1.209 . S
C201 O208 1.226 . S
O202 Cd198 2.273 . S
O202 Cd200 2.411 . S
O202 C205 1.320 . S
O203 Cd200 2.333 . S
O203 C205 1.214 . S
O204 Cd200 2.352 . S
O204 C207 1.258 . S
C205 O202 1.320 . S
C205 O203 1.214 . S
O206 Cd198 2.277 . S
O206 C201 1.209 . S
C207 O204 1.258 . S
C207 O209 1.282 . S
O208 Cd200 2.277 . S
O208 C201 1.226 . S
O209 Cd200 2.356 . S
O209 C207 1.282 . S
C210 O211 1.306 . S
C210 O213 1.160 . S
O211 C210 1.306 . S
O211 Cd212 2.228 . S
Cd212 O211 2.228 . S
Cd212 O216 2.273 . S
Cd212 O220 2.277 . S
O213 C210 1.160 . S
O213 Cd214 2.203 . S
Cd214 O213 2.203 . S
Cd214 O216 2.411 . S
Cd214 O217 2.333 . S
Cd214 O218 2.352 . S
Cd214 O222 2.277 . S
Cd214 O223 2.356 . S
C215 O220 1.209 . S
C215 O222 1.226 . S
O216 Cd212 2.273 . S
O216 Cd214 2.411 . S
O216 C219 1.320 . S
O217 Cd214 2.333 . S
O217 C219 1.214 . S
O218 Cd214 2.352 . S
O218 C221 1.258 . S
C219 O216 1.320 . S
C219 O217 1.214 . S
O220 Cd212 2.277 . S
O220 C215 1.209 . S
C221 O218 1.258 . S
C221 O223 1.282 . S
O222 Cd214 2.277 . S
O222 C215 1.226 . S
O223 Cd214 2.356 . S
O223 C221 1.282 . S
C224 O225 1.306 . S
C224 O227 1.160 . S
O225 C224 1.306 . S
O225 Cd226 2.228 . S
Cd226 O225 2.228 . S
Cd226 O230 2.273 . S
Cd226 O234 2.277 . S
O227 C224 1.160 . S
O227 Cd228 2.203 . S
Cd228 O227 2.203 . S
Cd228 O230 2.411 . S
Cd228 O231 2.333 . S
Cd228 O232 2.352 . S
Cd228 O236 2.277 . S
Cd228 O237 2.356 . S
C229 O234 1.209 . S
C229 O236 1.226 . S
O230 Cd226 2.273 . S
O230 Cd228 2.411 . S
O230 C233 1.320 . S
O231 Cd228 2.333 . S
O231 C233 1.214 . S
O232 Cd228 2.352 . S
O232 C235 1.258 . S
C233 O230 1.320 . S
C233 O231 1.214 . S
O234 Cd226 2.277 . S
O234 C229 1.209 . S
C235 O232 1.258 . S
C235 O237 1.282 . S
O236 Cd228 2.277 . S
O236 C229 1.226 . S
O237 Cd228 2.356 . S
O237 C235 1.282 . S
C238 O239 1.306 . S
C238 O241 1.160 . S
O239 C238 1.306 . S
O239 Cd240 2.228 . S
Cd240 O239 2.228 . S
Cd240 O244 2.273 . S
Cd240 O248 2.277 . S
O241 C238 1.160 . S
O241 Cd242 2.203 . S
Cd242 O241 2.203 . S
Cd242 O244 2.411 . S
Cd242 O245 2.333 . S
Cd242 O246 2.352 . S
Cd242 O250 2.277 . S
Cd242 O251 2.356 . S
C243 O248 1.209 . S
C243 O250 1.226 . S
O244 Cd240 2.273 . S
O244 Cd242 2.411 . S
O244 C247 1.320 . S
O245 Cd242 2.333 . S
O245 C247 1.214 . S
O246 Cd242 2.352 . S
O246 C249 1.258 . S
C247 O244 1.320 . S
C247 O245 1.214 . S
O248 Cd240 2.277 . S
O248 C243 1.209 . S
C249 O246 1.258 . S
C249 O251 1.282 . S
O250 Cd242 2.277 . S
O250 C243 1.226 . S
O251 Cd242 2.356 . S
O251 C249 1.282 . S
C252 O253 1.306 . S
C252 O255 1.160 . S
O253 C252 1.306 . S
O253 Cd254 2.228 . S
Cd254 O253 2.228 . S
Cd254 O258 2.273 . S
Cd254 O262 2.277 . S
O255 C252 1.160 . S
O255 Cd256 2.203 . S
Cd256 O255 2.203 . S
Cd256 O258 2.411 . S
Cd256 O259 2.333 . S
Cd256 O260 2.352 . S
Cd256 O264 2.277 . S
Cd256 O265 2.356 . S
C257 O262 1.209 . S
C257 O264 1.226 . S
O258 Cd254 2.273 . S
O258 Cd256 2.411 . S
O258 C261 1.320 . S
O259 Cd256 2.333 . S
O259 C261 1.214 . S
O260 Cd256 2.352 . S
O260 C263 1.258 . S
C261 O258 1.320 . S
C261 O259 1.214 . S
O262 Cd254 2.277 . S
O262 C257 1.209 . S
C263 O260 1.258 . S
C263 O265 1.282 . S
O264 Cd256 2.277 . S
O264 C257 1.226 . S
O265 Cd256 2.356 . S
O265 C263 1.282 . S
C266 O267 1.306 . S
C266 O269 1.160 . S
O267 C266 1.306 . S
O267 Cd268 2.228 . S
Cd268 O267 2.228 . S
Cd268 O272 2.273 . S
Cd268 O276 2.277 . S
O269 C266 1.160 . S
O269 Cd270 2.203 . S
Cd270 O269 2.203 . S
Cd270 O272 2.411 . S
Cd270 O273 2.333 . S
Cd270 O274 2.352 . S
Cd270 O278 2.277 . S
Cd270 O279 2.356 . S
C271 O276 1.209 . S
C271 O278 1.226 . S
O272 Cd268 2.273 . S
O272 Cd270 2.411 . S
O272 C275 1.320 . S
O273 Cd270 2.333 . S
O273 C275 1.214 . S
O274 Cd270 2.352 . S
O274 C277 1.258 . S
C275 O272 1.320 . S
C275 O273 1.214 . S
O276 Cd268 2.277 . S
O276 C271 1.209 . S
C277 O274 1.258 . S
C277 O279 1.282 . S
O278 Cd270 2.277 . S
O278 C271 1.226 . S
O279 Cd270 2.356 . S
O279 C277 1.282 . S
C280 O281 1.306 . S
C280 O283 1.160 . S
O281 C280 1.306 . S
O281 Cd282 2.228 . S
Cd282 O281 2.228 . S
Cd282 O286 2.273 . S
Cd282 O290 2.277 . S
O283 C280 1.160 . S
O283 Cd284 2.203 . S
Cd284 O283 2.203 . S
Cd284 O286 2.411 . S
Cd284 O287 2.333 . S
Cd284 O288 2.352 . S
Cd284 O292 2.277 . S
Cd284 O293 2.356 . S
C285 O290 1.209 . S
C285 O292 1.226 . S
O286 Cd282 2.273 . S
O286 Cd284 2.411 . S
O286 C289 1.320 . S
O287 Cd284 2.333 . S
O287 C289 1.214 . S
O288 Cd284 2.352 . S
O288 C291 1.258 . S
C289 O286 1.320 . S
C289 O287 1.214 . S
O290 Cd282 2.277 . S
O290 C285 1.209 . S
C291 O288 1.258 . S
C291 O293 1.282 . S
O292 Cd284 2.277 . S
O292 C285 1.226 . S
O293 Cd284 2.356 . S
O293 C291 1.282 . S
C294 O295 1.306 . S
C294 O297 1.160 . S
O295 C294 1.306 . S
O295 Cd296 2.228 . S
Cd296 O295 2.228 . S
Cd296 O300 2.273 . S
Cd296 O304 2.277 . S
O297 C294 1.160 . S
O297 Cd298 2.203 . S
Cd298 O297 2.203 . S
Cd298 O300 2.411 . S
Cd298 O301 2.333 . S
Cd298 O302 2.352 . S
Cd298 O306 2.277 . S
Cd298 O307 2.356 . S
C299 O304 1.209 . S
C299 O306 1.226 . S
O300 Cd296 2.273 . S
O300 Cd298 2.411 . S
O300 C303 1.320 . S
O301 Cd298 2.333 . S
O301 C303 1.214 . S
O302 Cd298 2.352 . S
O302 C305 1.258 . S
C303 O300 1.320 . S
C303 O301 1.214 . S
O304 Cd296 2.277 . S
O304 C299 1.209 . S
C305 O302 1.258 . S
C305 O307 1.282 . S
O306 Cd298 2.277 . S
O306 C299 1.226 . S
O307 Cd298 2.356 . S
O307 C305 1.282 . S
C308 O309 1.306 . S
C308 O311 1.160 . S
O309 C308 1.306 . S
O309 Cd310 2.228 . S
Cd310 O309 2.228 . S
Cd310 O314 2.273 . S
Cd310 O318 2.277 . S
O311 C308 1.160 . S
O311 Cd312 2.203 . S
Cd312 O311 2.203 . S
Cd312 O314 2.411 . S
Cd312 O315 2.333 . S
Cd312 O316 2.352 . S
Cd312 O320 2.277 . S
Cd312 O321 2.356 . S
C313 O318 1.209 . S
C313 O320 1.226 . S
O314 Cd310 2.273 . S
O314 Cd312 2.411 . S
O314 C317 1.320 . S
O315 Cd312 2.333 . S
O315 C317 1.214 . S
O316 Cd312 2.352 . S
O316 C319 1.258 . S
C317 O314 1.320 . S
C317 O315 1.214 . S
O318 Cd310 2.277 . S
O318 C313 1.209 . S
C319 O316 1.258 . S
C319 O321 1.282 . S
O320 Cd312 2.277 . S
O320 C313 1.226 . S
O321 Cd312 2.356 . S
O321 C319 1.282 . S
C322 O323 1.306 . S
C322 O325 1.160 . S
O323 C322 1.306 . S
O323 Cd324 2.228 . S
Cd324 O323 2.228 . S
Cd324 O328 2.273 . S
Cd324 O332 2.277 . S
O325 C322 1.160 . S
O325 Cd326 2.203 . S
Cd326 O325 2.203 . S
Cd326 O328 2.411 . S
Cd326 O329 2.333 . S
Cd326 O330 2.352 . S
Cd326 O334 2.277 . S
Cd326 O335 2.356 . S
C327 O332 1.209 . S
C327 O334 1.226 . S
O328 Cd324 2.273 . S
O328 Cd326 2.411 . S
O328 C331 1.320 . S
O329 Cd326 2.333 . S
O329 C331 1.214 . S
O330 Cd326 2.352 . S
O330 C333 1.258 . S
C331 O328 1.320 . S
C331 O329 1.214 . S
O332 Cd324 2.277 . S
O332 C327 1.209 . S
C333 O330 1.258 . S
C333 O335 1.282 . S
O334 Cd326 2.277 . S
O334 C327 1.226 . S
O335 Cd326 2.356 . S
O335 C333 1.282 . S
C336 O337 1.306 . S
C336 O339 1.160 . S
O337 C336 1.306 . S
O337 Cd338 2.228 . S
Cd338 O337 2.228 . S
Cd338 O342 2.273 . S
Cd338 O346 2.277 . S
O339 C336 1.160 . S
O339 Cd340 2.203 . S
Cd340 O339 2.203 . S
Cd340 O342 2.411 . S
Cd340 O343 2.333 . S
Cd340 O344 2.352 . S
Cd340 O348 2.277 . S
Cd340 O349 2.356 . S
C341 O346 1.209 . S
C341 O348 1.226 . S
O342 Cd338 2.273 . S
O342 Cd340 2.411 . S
O342 C345 1.320 . S
O343 Cd340 2.333 . S
O343 C345 1.214 . S
O344 Cd340 2.352 . S
O344 C347 1.258 . S
C345 O342 1.320 . S
C345 O343 1.214 . S
O346 Cd338 2.277 . S
O346 C341 1.209 . S
C347 O344 1.258 . S
C347 O349 1.282 . S
O348 Cd340 2.277 . S
O348 C341 1.226 . S
O349 Cd340 2.356 . S
O349 C347 1.282 . S
C350 O351 1.306 . S
C350 O353 1.160 . S
O351 C350 1.306 . S
O351 Cd352 2.228 . S
Cd352 O351 2.228 . S
Cd352 O356 2.273 . S
Cd352 O360 2.277 . S
O353 C350 1.160 . S
O353 Cd354 2.203 . S
Cd354 O353 2.203 . S
Cd354 O356 2.411 . S
Cd354 O357 2.333 . S
Cd354 O358 2.352 . S
Cd354 O362 2.277 . S
Cd354 O363 2.356 . S
C355 O360 1.209 . S
C355 O362 1.226 . S
O356 Cd352 2.273 . S
O356 Cd354 2.411 . S
O356 C359 1.320 . S
O357 Cd354 2.333 . S
O357 C359 1.214 . S
O358 Cd354 2.352 . S
O358 C361 1.258 . S
C359 O356 1.320 . S
C359 O357 1.214 . S
O360 Cd352 2.277 . S
O360 C355 1.209 . S
C361 O358 1.258 . S
C361 O363 1.282 . S
O362 Cd354 2.277 . S
O362 C355 1.226 . S
O363 Cd354 2.356 . S
O363 C361 1.282 . S
C364 O365 1.306 . S
C364 O367 1.160 . S
O365 C364 1.306 . S
O365 Cd366 2.228 . S
Cd366 O365 2.228 . S
Cd366 O370 2.273 . S
Cd366 O374 2.277 . S
O367 C364 1.160 . S
O367 Cd368 2.203 . S
Cd368 O367 2.203 . S
Cd368 O370 2.411 . S
Cd368 O371 2.333 . S
Cd368 O372 2.352 . S
Cd368 O376 2.277 . S
Cd368 O377 2.356 . S
C369 O374 1.209 . S
C369 O376 1.226 . S
O370 Cd366 2.273 . S
O370 Cd368 2.411 . S
O370 C373 1.320 . S
O371 Cd368 2.333 . S
O371 C373 1.214 . S
O372 Cd368 2.352 . S
O372 C375 1.258 . S
C373 O370 1.320 . S
C373 O371 1.214 . S
O374 Cd366 2.277 . S
O374 C369 1.209 . S
C375 O372 1.258 . S
C375 O377 1.282 . S
O376 Cd368 2.277 . S
O376 C369 1.226 . S
O377 Cd368 2.356 . S
O377 C375 1.282 . S
C378 O379 1.306 . S
C378 O381 1.160 . S
O379 C378 1.306 . S
O379 Cd380 2.228 . S
Cd380 O379 2.228 . S
Cd380 O384 2.273 . S
Cd380 O388 2.277 . S
O381 C378 1.160 . S
O381 Cd382 2.203 . S
Cd382 O381 2.203 . S
Cd382 O384 2.411 . S
Cd382 O385 2.333 . S
Cd382 O386 2.352 . S
Cd382 O390 2.277 . S
Cd382 O391 2.356 . S
C383 O388 1.209 . S
C383 O390 1.226 . S
O384 Cd380 2.273 . S
O384 Cd382 2.411 . S
O384 C387 1.320 . S
O385 Cd382 2.333 . S
O385 C387 1.214 . S
O386 Cd382 2.352 . S
O386 C389 1.258 . S
C387 O384 1.320 . S
C387 O385 1.214 . S
O388 Cd380 2.277 . S
O388 C383 1.209 . S
C389 O386 1.258 . S
C389 O391 1.282 . S
O390 Cd382 2.277 . S
O390 C383 1.226 . S
O391 Cd382 2.356 . S
O391 C389 1.282 . S
C392 O393 1.306 . S
C392 O395 1.160 . S
O393 C392 1.306 . S
O393 Cd394 2.228 . S
Cd394 O393 2.228 . S
Cd394 O398 2.273 . S
Cd394 O402 2.277 . S
O395 C392 1.160 . S
O395 Cd396 2.203 . S
Cd396 O395 2.203 . S
Cd396 O398 2.411 . S
Cd396 O399 2.333 . S
Cd396 O400 2.352 . S
Cd396 O404 2.277 . S
Cd396 O405 2.356 . S
C397 O402 1.209 . S
C397 O404 1.226 . S
O398 Cd394 2.273 . S
O398 Cd396 2.411 . S
O398 C401 1.320 . S
O399 Cd396 2.333 . S
O399 C401 1.214 . S
O400 Cd396 2.352 . S
O400 C403 1.258 . S
C401 O398 1.320 . S
C401 O399 1.214 . S
O402 Cd394 2.277 . S
O402 C397 1.209 . S
C403 O400 1.258 . S
C403 O405 1.282 . S
O404 Cd396 2.277 . S
O404 C397 1.226 . S
O405 Cd396 2.356 . S
O405 C403 1.282 . S
C406 O407 1.306 . S
C406 O409 1.160 . S
O407 C406 1.306 . S
O407 Cd408 2.228 . S
Cd408 O407 2.228 . S
Cd408 O412 2.273 . S
Cd408 O416 2.277 . S
O409 C406 1.160 . S
O409 Cd410 2.203 . S
Cd410 O409 2.203 . S
Cd410 O412 2.411 . S
Cd410 O413 2.333 . S
Cd410 O414 2.352 . S
Cd410 O418 2.277 . S
Cd410 O419 2.356 . S
C411 O416 1.209 . S
C411 O418 1.226 . S
O412 Cd408 2.273 . S
O412 Cd410 2.411 . S
O412 C415 1.320 . S
O413 Cd410 2.333 . S
O413 C415 1.214 . S
O414 Cd410 2.352 . S
O414 C417 1.258 . S
C415 O412 1.320 . S
C415 O413 1.214 . S
O416 Cd408 2.277 . S
O416 C411 1.209 . S
C417 O414 1.258 . S
C417 O419 1.282 . S
O418 Cd410 2.277 . S
O418 C411 1.226 . S
O419 Cd410 2.356 . S
O419 C417 1.282 . S
C420 O421 1.306 . S
C420 O423 1.160 . S
O421 C420 1.306 . S
O421 Cd422 2.228 . S
Cd422 O421 2.228 . S
Cd422 O426 2.273 . S
Cd422 O430 2.277 . S
O423 C420 1.160 . S
O423 Cd424 2.203 . S
Cd424 O423 2.203 . S
Cd424 O426 2.411 . S
Cd424 O427 2.333 . S
Cd424 O428 2.352 . S
Cd424 O432 2.277 . S
Cd424 O433 2.356 . S
C425 O430 1.209 . S
C425 O432 1.226 . S
O426 Cd422 2.273 . S
O426 Cd424 2.411 . S
O426 C429 1.320 . S
O427 Cd424 2.333 . S
O427 C429 1.214 . S
O428 Cd424 2.352 . S
O428 C431 1.258 . S
C429 O426 1.320 . S
C429 O427 1.214 . S
O430 Cd422 2.277 . S
O430 C425 1.209 . S
C431 O428 1.258 . S
C431 O433 1.282 . S
O432 Cd424 2.277 . S
O432 C425 1.226 . S
O433 Cd424 2.356 . S
O433 C431 1.282 . S
C434 O435 1.306 . S
C434 O437 1.160 . S
O435 C434 1.306 . S
O435 Cd436 2.228 . S
Cd436 O435 2.228 . S
Cd436 O440 2.273 . S
Cd436 O444 2.277 . S
O437 C434 1.160 . S
O437 Cd438 2.203 . S
Cd438 O437 2.203 . S
Cd438 O440 2.411 . S
Cd438 O441 2.333 . S
Cd438 O442 2.352 . S
Cd438 O446 2.277 . S
Cd438 O447 2.356 . S
C439 O444 1.209 . S
C439 O446 1.226 . S
O440 Cd436 2.273 . S
O440 Cd438 2.411 . S
O440 C443 1.320 . S
O441 Cd438 2.333 . S
O441 C443 1.214 . S
O442 Cd438 2.352 . S
O442 C445 1.258 . S
C443 O440 1.320 . S
C443 O441 1.214 . S
O444 Cd436 2.277 . S
O444 C439 1.209 . S
C445 O442 1.258 . S
C445 O447 1.282 . S
O446 Cd438 2.277 . S
O446 C439 1.226 . S
O447 Cd438 2.356 . S
O447 C445 1.282 . S
H448 C454 0.930 . S
H449 C458 0.930 . S
H450 C463 0.929 . S
H451 C461 0.929 . S
H452 C456 0.929 . S
H453 C462 0.929 . S
C454 H448 0.930 . S
C454 C455 1.367 . S
C454 C462 1.378 . S
C455 C454 1.367 . S
C455 C463 1.433 1_565 S
C456 H452 0.929 . S
C456 C458 1.378 . S
C456 C460 1.350 . S
C457 C460 1.463 1_565 S
C457 C462 1.350 . S
C457 N465 1.427 1_565 S
C458 H449 0.930 . S
C458 C456 1.378 . S
C458 C459 1.367 . S
C459 C458 1.367 . S
C459 C461 1.433 1_545 S
C460 C456 1.350 . S
C460 C457 1.463 1_545 S
C460 N464 1.427 1_545 S
C461 H451 0.929 . S
C461 C459 1.433 1_565 S
C461 N464 1.384 . S
C462 H453 0.929 . S
C462 C454 1.378 . S
C462 C457 1.350 . S
C463 H450 0.929 . S
C463 C455 1.433 1_545 S
C463 N465 1.384 . S
N464 C460 1.427 1_565 S
N464 C461 1.384 . S
N465 C457 1.427 1_545 S
N465 C463 1.384 . S
H466 C472 0.930 . S
H467 C476 0.930 . S
H468 C481 0.929 . S
H469 C479 0.929 . S
H470 C474 0.929 . S
H471 C480 0.929 . S
C472 H466 0.930 . S
C472 C473 1.367 . S
C472 C480 1.378 . S
C473 C472 1.367 . S
C473 C481 1.433 . S
C474 H470 0.929 . S
C474 C476 1.378 . S
C474 C478 1.350 . S
C475 C478 1.463 . S
C475 C480 1.350 . S
C475 N483 1.427 . S
C476 H467 0.930 . S
C476 C474 1.378 . S
C476 C477 1.367 . S
C477 C476 1.367 . S
C477 C479 1.433 . S
C478 C474 1.350 . S
C478 C475 1.463 . S
C478 N482 1.427 . S
C479 H469 0.929 . S
C479 C477 1.433 . S
C479 N482 1.384 . S
C480 H471 0.929 . S
C480 C472 1.378 . S
C480 C475 1.350 . S
C481 H468 0.929 . S
C481 C473 1.433 . S
C481 N483 1.384 . S
N482 C478 1.427 . S
N482 C479 1.384 . S
N483 C475 1.427 . S
N483 C481 1.384 . S
H484 C490 0.930 . S
H485 C494 0.930 . S
H486 C499 0.929 . S
H487 C497 0.929 . S
H488 C492 0.929 . S
H489 C498 0.929 . S
C490 H484 0.930 . S
C490 C491 1.367 1_565 S
C490 C498 1.378 . S
C491 C490 1.367 1_545 S
C491 C499 1.433 . S
C492 H488 0.929 . S
C492 C494 1.378 . S
C492 C496 1.350 1_545 S
C493 C496 1.463 1_545 S
C493 C498 1.350 1_545 S
C493 N501 1.427 . S
C494 H485 0.930 . S
C494 C492 1.378 . S
C494 C495 1.367 1_545 S
C495 C494 1.367 1_565 S
C495 C497 1.433 . S
C496 C492 1.350 1_565 S
C496 C493 1.463 1_565 S
C496 N500 1.427 . S
C497 H487 0.929 . S
C497 C495 1.433 . S
C497 N500 1.384 . S
C498 H489 0.929 . S
C498 C490 1.378 . S
C498 C493 1.350 1_565 S
C499 H486 0.929 . S
C499 C491 1.433 . S
C499 N501 1.384 . S
N500 C496 1.427 . S
N500 C497 1.384 . S
N501 C493 1.427 . S
N501 C499 1.384 . S
H502 C508 0.930 . S
H503 C512 0.930 . S
H504 C517 0.929 . S
H505 C515 0.929 . S
H506 C510 0.929 . S
H507 C516 0.929 . S
C508 H502 0.930 . S
C508 C509 1.367 . S
C508 C516 1.378 . S
C509 C508 1.367 . S
C509 C517 1.433 . S
C510 H506 0.929 . S
C510 C512 1.378 . S
C510 C514 1.350 . S
C511 C514 1.463 1_556 S
C511 C516 1.350 . S
C511 N519 1.427 . S
C512 H503 0.930 . S
C512 C510 1.378 . S
C512 C513 1.367 . S
C513 C512 1.367 . S
C513 C515 1.433 . S
C514 C510 1.350 . S
C514 C511 1.463 1_554 S
C514 N518 1.427 . S
C515 H505 0.929 . S
C515 C513 1.433 . S
C515 N518 1.384 . S
C516 H507 0.929 . S
C516 C508 1.378 . S
C516 C511 1.350 . S
C517 H504 0.929 . S
C517 C509 1.433 . S
C517 N519 1.384 . S
N518 C514 1.427 . S
N518 C515 1.384 . S
N519 C511 1.427 . S
N519 C517 1.384 . S
H520 C526 0.930 . S
H521 C530 0.930 . S
H522 C535 0.929 . S
H523 C533 0.929 . S
H524 C528 0.929 . S
H525 C534 0.929 . S
C526 H520 0.930 . S
C526 C527 1.367 . S
C526 C534 1.378 . S
C527 C526 1.367 . S
C527 C535 1.433 1_565 S
C528 H524 0.929 . S
C528 C530 1.378 . S
C528 C532 1.350 . S
C529 C532 1.463 1_565 S
C529 C534 1.350 . S
C529 N537 1.427 1_565 S
C530 H521 0.930 . S
C530 C528 1.378 . S
C530 C531 1.367 . S
C531 C530 1.367 . S
C531 C533 1.433 1_545 S
C532 C528 1.350 . S
C532 C529 1.463 1_545 S
C532 N536 1.427 1_545 S
C533 H523 0.929 . S
C533 C531 1.433 1_565 S
C533 N536 1.384 . S
C534 H525 0.929 . S
C534 C526 1.378 . S
C534 C529 1.350 . S
C535 H522 0.929 . S
C535 C527 1.433 1_545 S
C535 N537 1.384 . S
N536 C532 1.427 1_565 S
N536 C533 1.384 . S
N537 C529 1.427 1_545 S
N537 C535 1.384 . S
H538 C544 0.930 . S
H539 C548 0.930 . S
H540 C553 0.929 . S
H541 C551 0.929 . S
H542 C546 0.929 . S
H543 C552 0.929 . S
C544 H538 0.930 . S
C544 C545 1.367 . S
C544 C552 1.378 . S
C545 C544 1.367 . S
C545 C553 1.433 . S
C546 H542 0.929 . S
C546 C548 1.378 . S
C546 C550 1.350 . S
C547 C550 1.463 . S
C547 C552 1.350 . S
C547 N555 1.427 . S
C548 H539 0.930 . S
C548 C546 1.378 . S
C548 C549 1.367 . S
C549 C548 1.367 . S
C549 C551 1.433 . S
C550 C546 1.350 . S
C550 C547 1.463 . S
C550 N554 1.427 . S
C551 H541 0.929 . S
C551 C549 1.433 . S
C551 N554 1.384 . S
C552 H543 0.929 . S
C552 C544 1.378 . S
C552 C547 1.350 . S
C553 H540 0.929 . S
C553 C545 1.433 . S
C553 N555 1.384 . S
N554 C550 1.427 . S
N554 C551 1.384 . S
N555 C547 1.427 . S
N555 C553 1.384 . S
H556 C562 0.930 . S
H557 C566 0.930 . S
H558 C571 0.929 . S
H559 C569 0.929 . S
H560 C564 0.929 . S
H561 C570 0.929 . S
C562 H556 0.930 . S
C562 C563 1.367 1_565 S
C562 C570 1.378 . S
C563 C562 1.367 1_545 S
C563 C571 1.433 . S
C564 H560 0.929 . S
C564 C566 1.378 . S
C564 C568 1.350 1_545 S
C565 C568 1.463 1_545 S
C565 C570 1.350 1_545 S
C565 N573 1.427 . S
C566 H557 0.930 . S
C566 C564 1.378 . S
C566 C567 1.367 1_545 S
C567 C566 1.367 1_565 S
C567 C569 1.433 . S
C568 C564 1.350 1_565 S
C568 C565 1.463 1_565 S
C568 N572 1.427 . S
C569 H559 0.929 . S
C569 C567 1.433 . S
C569 N572 1.384 . S
C570 H561 0.929 . S
C570 C562 1.378 . S
C570 C565 1.350 1_565 S
C571 H558 0.929 . S
C571 C563 1.433 . S
C571 N573 1.384 . S
N572 C568 1.427 . S
N572 C569 1.384 . S
N573 C565 1.427 . S
N573 C571 1.384 . S
H574 C580 0.930 . S
H575 C584 0.930 . S
H576 C589 0.929 . S
H577 C587 0.929 . S
H578 C582 0.929 . S
H579 C588 0.929 . S
C580 H574 0.930 . S
C580 C581 1.367 . S
C580 C588 1.378 . S
C581 C580 1.367 . S
C581 C589 1.433 . S
C582 H578 0.929 . S
C582 C584 1.378 . S
C582 C586 1.350 . S
C583 C586 1.463 1_556 S
C583 C588 1.350 . S
C583 N591 1.427 . S
C584 H575 0.930 . S
C584 C582 1.378 . S
C584 C585 1.367 . S
C585 C584 1.367 . S
C585 C587 1.433 . S
C586 C582 1.350 . S
C586 C583 1.463 1_554 S
C586 N590 1.427 . S
C587 H577 0.929 . S
C587 C585 1.433 . S
C587 N590 1.384 . S
C588 H579 0.929 . S
C588 C580 1.378 . S
C588 C583 1.350 . S
C589 H576 0.929 . S
C589 C581 1.433 . S
C589 N591 1.384 . S
N590 C586 1.427 . S
N590 C587 1.384 . S
N591 C583 1.427 . S
N591 C589 1.384 . S
H592 C598 0.930 . S
H593 C602 0.930 . S
H594 C607 0.929 . S
H595 C605 0.929 . S
H596 C600 0.929 . S
H597 C606 0.929 . S
C598 H592 0.930 . S
C598 C599 1.367 . S
C598 C606 1.378 . S
C599 C598 1.367 . S
C599 C607 1.433 . S
C600 H596 0.929 . S
C600 C602 1.378 . S
C600 C604 1.350 . S
C601 C604 1.463 . S
C601 C606 1.350 . S
C601 N609 1.427 . S
C602 H593 0.930 . S
C602 C600 1.378 . S
C602 C603 1.367 . S
C603 C602 1.367 . S
C603 C605 1.433 . S
C604 C600 1.350 . S
C604 C601 1.463 . S
C604 N608 1.427 . S
C605 H595 0.929 . S
C605 C603 1.433 . S
C605 N608 1.384 . S
C606 H597 0.929 . S
C606 C598 1.378 . S
C606 C601 1.350 . S
C607 H594 0.929 . S
C607 C599 1.433 . S
C607 N609 1.384 . S
N608 C604 1.427 . S
N608 C605 1.384 . S
N609 C601 1.427 . S
N609 C607 1.384 . S
H610 C616 0.930 . S
H611 C620 0.930 . S
H612 C625 0.929 . S
H613 C623 0.929 . S
H614 C618 0.929 . S
H615 C624 0.929 . S
C616 H610 0.930 . S
C616 C617 1.367 . S
C616 C624 1.378 . S
C617 C616 1.367 . S
C617 C625 1.433 . S
C618 H614 0.929 . S
C618 C620 1.378 . S
C618 C622 1.350 . S
C619 C622 1.463 1_554 S
C619 C624 1.350 . S
C619 N627 1.427 . S
C620 H611 0.930 . S
C620 C618 1.378 . S
C620 C621 1.367 . S
C621 C620 1.367 . S
C621 C623 1.433 . S
C622 C618 1.350 . S
C622 C619 1.463 1_556 S
C622 N626 1.427 . S
C623 H613 0.929 . S
C623 C621 1.433 . S
C623 N626 1.384 . S
C624 H615 0.929 . S
C624 C616 1.378 . S
C624 C619 1.350 . S
C625 H612 0.929 . S
C625 C617 1.433 . S
C625 N627 1.384 . S
N626 C622 1.427 . S
N626 C623 1.384 . S
N627 C619 1.427 . S
N627 C625 1.384 . S
H628 C634 0.930 . S
H629 C638 0.930 . S
H630 C643 0.929 . S
H631 C641 0.929 . S
H632 C636 0.929 . S
H633 C642 0.929 . S
C634 H628 0.930 . S
C634 C635 1.367 . S
C634 C642 1.378 . S
C635 C634 1.367 . S
C635 C643 1.433 . S
C636 H632 0.929 . S
C636 C638 1.378 . S
C636 C640 1.350 . S
C637 C640 1.463 . S
C637 C642 1.350 . S
C637 N645 1.427 . S
C638 H629 0.930 . S
C638 C636 1.378 . S
C638 C639 1.367 . S
C639 C638 1.367 . S
C639 C641 1.433 . S
C640 C636 1.350 . S
C640 C637 1.463 . S
C640 N644 1.427 . S
C641 H631 0.929 . S
C641 C639 1.433 . S
C641 N644 1.384 . S
C642 H633 0.929 . S
C642 C634 1.378 . S
C642 C637 1.350 . S
C643 H630 0.929 . S
C643 C635 1.433 . S
C643 N645 1.384 . S
N644 C640 1.427 . S
N644 C641 1.384 . S
N645 C637 1.427 . S
N645 C643 1.384 . S
H646 C652 0.930 . S
H647 C656 0.930 . S
H648 C661 0.929 . S
H649 C659 0.929 . S
H650 C654 0.929 . S
H651 C660 0.929 . S
C652 H646 0.930 . S
C652 C653 1.367 . S
C652 C660 1.378 . S
C653 C652 1.367 . S
C653 C661 1.433 . S
C654 H650 0.929 . S
C654 C656 1.378 . S
C654 C658 1.350 . S
C655 C658 1.463 . S
C655 C660 1.350 . S
C655 N663 1.427 . S
C656 H647 0.930 . S
C656 C654 1.378 . S
C656 C657 1.367 . S
C657 C656 1.367 . S
C657 C659 1.433 . S
C658 C654 1.350 . S
C658 C655 1.463 . S
C658 N662 1.427 . S
C659 H649 0.929 . S
C659 C657 1.433 . S
C659 N662 1.384 . S
C660 H651 0.929 . S
C660 C652 1.378 . S
C660 C655 1.350 . S
C661 H648 0.929 . S
C661 C653 1.433 . S
C661 N663 1.384 . S
N662 C658 1.427 . S
N662 C659 1.384 . S
N663 C655 1.427 . S
N663 C661 1.384 . S
H664 C670 0.930 . S
H665 C674 0.930 . S
H666 C679 0.929 . S
H667 C677 0.929 . S
H668 C672 0.929 . S
H669 C678 0.929 . S
C670 H664 0.930 . S
C670 C671 1.367 . S
C670 C678 1.378 . S
C671 C670 1.367 . S
C671 C679 1.433 . S
C672 H668 0.929 . S
C672 C674 1.378 . S
C672 C676 1.350 . S
C673 C676 1.463 . S
C673 C678 1.350 . S
C673 N681 1.427 . S
C674 H665 0.930 . S
C674 C672 1.378 . S
C674 C675 1.367 . S
C675 C674 1.367 . S
C675 C677 1.433 . S
C676 C672 1.350 . S
C676 C673 1.463 . S
C676 N680 1.427 . S
C677 H667 0.929 . S
C677 C675 1.433 . S
C677 N680 1.384 . S
C678 H669 0.929 . S
C678 C670 1.378 . S
C678 C673 1.350 . S
C679 H666 0.929 . S
C679 C671 1.433 . S
C679 N681 1.384 . S
N680 C676 1.427 . S
N680 C677 1.384 . S
N681 C673 1.427 . S
N681 C679 1.384 . S
H682 C688 0.930 . S
H683 C692 0.930 . S
H684 C697 0.929 . S
H685 C695 0.929 . S
H686 C690 0.929 . S
H687 C696 0.929 . S
C688 H682 0.930 . S
C688 C689 1.367 . S
C688 C696 1.378 . S
C689 C688 1.367 . S
C689 C697 1.433 . S
C690 H686 0.929 . S
C690 C692 1.378 . S
C690 C694 1.350 . S
C691 C694 1.463 1_554 S
C691 C696 1.350 . S
C691 N699 1.427 . S
C692 H683 0.930 . S
C692 C690 1.378 . S
C692 C693 1.367 . S
C693 C692 1.367 . S
C693 C695 1.433 . S
C694 C690 1.350 . S
C694 C691 1.463 1_556 S
C694 N698 1.427 . S
C695 H685 0.929 . S
C695 C693 1.433 . S
C695 N698 1.384 . S
C696 H687 0.929 . S
C696 C688 1.378 . S
C696 C691 1.350 . S
C697 H684 0.929 . S
C697 C689 1.433 . S
C697 N699 1.384 . S
N698 C694 1.427 . S
N698 C695 1.384 . S
N699 C691 1.427 . S
N699 C697 1.384 . S
H700 C706 0.930 . S
H701 C710 0.930 . S
H702 C715 0.929 . S
H703 C713 0.929 . S
H704 C708 0.929 . S
H705 C714 0.929 . S
C706 H700 0.930 . S
C706 C707 1.367 . S
C706 C714 1.378 . S
C707 C706 1.367 . S
C707 C715 1.433 . S
C708 H704 0.929 . S
C708 C710 1.378 . S
C708 C712 1.350 . S
C709 C712 1.463 . S
C709 C714 1.350 . S
C709 N717 1.427 . S
C710 H701 0.930 . S
C710 C708 1.378 . S
C710 C711 1.367 . S
C711 C710 1.367 . S
C711 C713 1.433 . S
C712 C708 1.350 . S
C712 C709 1.463 . S
C712 N716 1.427 . S
C713 H703 0.929 . S
C713 C711 1.433 . S
C713 N716 1.384 . S
C714 H705 0.929 . S
C714 C706 1.378 . S
C714 C709 1.350 . S
C715 H702 0.929 . S
C715 C707 1.433 . S
C715 N717 1.384 . S
N716 C712 1.427 . S
N716 C713 1.384 . S
N717 C709 1.427 . S
N717 C715 1.384 . S
H718 C724 0.930 . S
H719 C728 0.930 . S
H720 C733 0.929 . S
H721 C731 0.929 . S
H722 C726 0.929 . S
H723 C732 0.929 . S
C724 H718 0.930 . S
C724 C725 1.367 . S
C724 C732 1.378 . S
C725 C724 1.367 . S
C725 C733 1.433 . S
C726 H722 0.929 . S
C726 C728 1.378 . S
C726 C730 1.350 . S
C727 C730 1.463 . S
C727 C732 1.350 . S
C727 N735 1.427 . S
C728 H719 0.930 . S
C728 C726 1.378 . S
C728 C729 1.367 . S
C729 C728 1.367 . S
C729 C731 1.433 . S
C730 C726 1.350 . S
C730 C727 1.463 . S
C730 N734 1.427 . S
C731 H721 0.929 . S
C731 C729 1.433 . S
C731 N734 1.384 . S
C732 H723 0.929 . S
C732 C724 1.378 . S
C732 C727 1.350 . S
C733 H720 0.929 . S
C733 C725 1.433 . S
C733 N735 1.384 . S
N734 C730 1.427 . S
N734 C731 1.384 . S
N735 C727 1.427 . S
N735 C733 1.384 . S
H736 C742 0.930 . S
H737 C746 0.930 . S
H738 C751 0.929 1_545 S
H739 C749 0.929 . S
H740 C744 0.929 . S
H741 C750 0.929 . S
C742 H736 0.930 . S
C742 C743 1.367 . S
C742 C750 1.378 . S
C743 C742 1.367 . S
C743 C751 1.433 . S
C744 H740 0.929 . S
C744 C746 1.378 . S
C744 C748 1.350 . S
C745 C748 1.463 . S
C745 C750 1.350 . S
C745 N753 1.427 . S
C746 H737 0.930 . S
C746 C744 1.378 . S
C746 C747 1.367 . S
C747 C746 1.367 . S
C747 C749 1.433 . S
C748 C744 1.350 . S
C748 C745 1.463 . S
C748 N752 1.427 . S
C749 H739 0.929 . S
C749 C747 1.433 . S
C749 N752 1.384 . S
C750 H741 0.929 . S
C750 C742 1.378 . S
C750 C745 1.350 . S
C751 H738 0.929 1_565 S
C751 C743 1.433 . S
C751 N753 1.384 . S
N752 C748 1.427 . S
N752 C749 1.384 . S
N753 C745 1.427 . S
N753 C751 1.384 . S
H754 C760 0.930 . S
H755 C764 0.930 . S
H756 C769 0.929 . S
H757 C767 0.929 . S
H758 C762 0.929 . S
H759 C768 0.929 . S
C760 H754 0.930 . S
C760 C761 1.367 . S
C760 C768 1.378 . S
C761 C760 1.367 . S
C761 C769 1.433 . S
C762 H758 0.929 . S
C762 C764 1.378 . S
C762 C766 1.350 . S
C763 C766 1.463 . S
C763 C768 1.350 . S
C763 N771 1.427 . S
C764 H755 0.930 . S
C764 C762 1.378 . S
C764 C765 1.367 . S
C765 C764 1.367 . S
C765 C767 1.433 1_545 S
C766 C762 1.350 . S
C766 C763 1.463 . S
C766 N770 1.427 . S
C767 H757 0.929 . S
C767 C765 1.433 1_565 S
C767 N770 1.384 1_565 S
C768 H759 0.929 . S
C768 C760 1.378 . S
C768 C763 1.350 . S
C769 H756 0.929 . S
C769 C761 1.433 . S
C769 N771 1.384 . S
N770 C766 1.427 . S
N770 C767 1.384 1_545 S
N771 C763 1.427 . S
N771 C769 1.384 . S
H772 C778 0.945 . S
H773 C782 0.930 . S
H774 C787 0.929 . S
H775 C785 0.929 . S
H776 C780 0.929 . S
H777 C786 0.929 . S
C778 H772 0.945 . S
C778 C779 1.367 . S
C778 C786 1.378 . S
C779 C778 1.367 . S
C779 C787 1.433 . S
C780 H776 0.929 . S
C780 C782 1.378 . S
C780 C784 1.350 . S
C781 C784 1.463 . S
C781 C786 1.350 . S
C781 N789 1.427 . S
C782 H773 0.930 . S
C782 C780 1.378 . S
C782 C783 1.367 . S
C783 C782 1.367 . S
C783 C785 1.433 . S
C784 C780 1.350 . S
C784 C781 1.463 . S
C784 N788 1.427 . S
C785 H775 0.929 . S
C785 C783 1.433 . S
C785 N788 1.384 . S
C786 H777 0.929 . S
C786 C778 1.378 . S
C786 C781 1.350 . S
C787 H774 0.929 . S
C787 C779 1.433 . S
C787 N789 1.384 . S
N788 C784 1.427 . S
N788 C785 1.384 . S
N789 C781 1.427 . S
N789 C787 1.384 . S
H790 C796 0.930 1_545 S
H791 C800 0.930 . S
H792 C805 0.929 . S
H793 C803 0.929 . S
H794 C798 0.929 . S
H795 C804 0.929 . S
C796 H790 0.930 1_565 S
C796 C797 1.367 . S
C796 C804 1.378 . S
C797 C796 1.367 . S
C797 C805 1.433 . S
C798 H794 0.929 . S
C798 C800 1.378 . S
C798 C802 1.350 . S
C799 C802 1.463 . S
C799 C804 1.350 . S
C799 N807 1.427 . S
C800 H791 0.930 . S
C800 C798 1.378 . S
C800 C801 1.367 . S
C801 C800 1.367 . S
C801 C803 1.433 . S
C802 C798 1.350 . S
C802 C799 1.463 . S
C802 N806 1.427 . S
C803 H793 0.929 . S
C803 C801 1.433 . S
C803 N806 1.384 . S
C804 H795 0.929 . S
C804 C796 1.378 . S
C804 C799 1.350 . S
C805 H792 0.929 . S
C805 C797 1.433 . S
C805 N807 1.384 . S
N806 C802 1.427 . S
N806 C803 1.384 . S
N807 C799 1.427 . S
N807 C805 1.384 . S
H808 C814 0.930 . S
H809 C818 0.930 1_565 S
H810 C823 0.929 . S
H811 C821 0.929 . S
H812 C816 0.929 . S
H813 C822 0.929 . S
C814 H808 0.930 . S
C814 C815 1.367 . S
C814 C822 1.378 . S
C815 C814 1.367 . S
C815 C823 1.433 . S
C816 H812 0.929 . S
C816 C818 1.378 . S
C816 C820 1.350 . S
C817 C820 1.463 . S
C817 C822 1.350 . S
C817 N825 1.427 . S
C818 H809 0.930 1_545 S
C818 C816 1.378 . S
C818 C819 1.367 . S
C819 C818 1.367 . S
C819 C821 1.433 . S
C820 C816 1.350 . S
C820 C817 1.463 . S
C820 N824 1.427 . S
C821 H811 0.929 . S
C821 C819 1.433 . S
C821 N824 1.384 . S
C822 H813 0.929 . S
C822 C814 1.378 . S
C822 C817 1.350 . S
C823 H810 0.929 . S
C823 C815 1.433 . S
C823 N825 1.384 . S
N824 C820 1.427 . S
N824 C821 1.384 . S
N825 C817 1.427 . S
N825 C823 1.384 . S
H826 C832 0.930 . S
H827 C836 0.930 . S
H828 C841 0.953 . S
H829 C839 0.929 . S
H830 C834 0.929 . S
H831 C840 0.929 . S
C832 H826 0.930 . S
C832 C833 1.367 . S
C832 C840 1.378 . S
C833 C832 1.367 . S
C833 C841 1.428 1_565 S
C834 H830 0.929 . S
C834 C836 1.378 . S
C834 C838 1.350 . S
C835 C838 1.463 . S
C835 C840 1.350 . S
C835 N843 1.427 . S
C836 H827 0.930 . S
C836 C834 1.378 . S
C836 C837 1.367 . S
C837 C836 1.367 . S
C837 C839 1.433 . S
C838 C834 1.350 . S
C838 C835 1.463 . S
C838 N842 1.427 . S
C839 H829 0.929 . S
C839 C837 1.433 . S
C839 N842 1.384 . S
C840 H831 0.929 . S
C840 C832 1.378 . S
C840 C835 1.350 . S
C841 H828 0.953 . S
C841 C833 1.428 1_545 S
C841 N843 1.365 1_545 S
N842 C838 1.427 . S
N842 C839 1.384 . S
N843 C835 1.427 . S
N843 C841 1.365 1_565 S
H844 C850 0.930 . S
H845 C854 0.930 . S
H846 C859 0.929 . S
H847 C857 0.929 . S
H848 C852 0.929 . S
H849 C858 0.929 . S
C850 H844 0.930 . S
C850 C851 1.367 . S
C850 C858 1.378 . S
C851 C850 1.367 . S
C851 C859 1.433 . S
C852 H848 0.929 . S
C852 C854 1.378 . S
C852 C856 1.350 . S
C853 C856 1.463 . S
C853 C858 1.350 . S
C853 N861 1.427 . S
C854 H845 0.930 . S
C854 C852 1.378 . S
C854 C855 1.367 . S
C855 C854 1.367 . S
C855 C857 1.433 . S
C856 C852 1.350 . S
C856 C853 1.463 . S
C856 N860 1.427 . S
C857 H847 0.929 . S
C857 C855 1.433 . S
C857 N860 1.384 . S
C858 H849 0.929 . S
C858 C850 1.378 . S
C858 C853 1.350 . S
C859 H846 0.929 . S
C859 C851 1.433 . S
C859 N861 1.384 . S
N860 C856 1.427 . S
N860 C857 1.384 . S
N861 C853 1.427 . S
N861 C859 1.384 . S
H862 C868 0.930 . S
H863 C872 0.930 . S
H864 C877 0.929 . S
H865 C875 0.929 . S
H866 C870 0.929 . S
H867 C876 0.929 . S
C868 H862 0.930 . S
C868 C869 1.367 . S
C868 C876 1.378 . S
C869 C868 1.367 . S
C869 C877 1.433 . S
C870 H866 0.929 . S
C870 C872 1.378 . S
C870 C874 1.350 . S
C871 C874 1.463 . S
C871 C876 1.350 . S
C871 N879 1.427 . S
C872 H863 0.930 . S
C872 C870 1.378 . S
C872 C873 1.367 . S
C873 C872 1.367 . S
C873 C875 1.433 . S
C874 C870 1.350 . S
C874 C871 1.463 . S
C874 N878 1.427 . S
C875 H865 0.929 . S
C875 C873 1.433 . S
C875 N878 1.384 . S
C876 H867 0.929 . S
C876 C868 1.378 . S
C876 C871 1.350 . S
C877 H864 0.929 . S
C877 C869 1.433 . S
C877 N879 1.384 . S
N878 C874 1.427 . S
N878 C875 1.384 . S
N879 C871 1.427 . S
N879 C877 1.384 . S
H880 C886 0.930 . S
H881 C890 0.930 . S
H882 C895 0.929 . S
H883 C893 0.929 . S
H884 C888 0.929 . S
H885 C894 0.929 . S
C886 H880 0.930 . S
C886 C887 1.367 . S
C886 C894 1.378 . S
C887 C886 1.367 . S
C887 C895 1.433 . S
C888 H884 0.929 . S
C888 C890 1.378 . S
C888 C892 1.350 . S
C889 C892 1.463 . S
C889 C894 1.350 . S
C889 N897 1.427 . S
C890 H881 0.930 . S
C890 C888 1.378 . S
C890 C891 1.367 . S
C891 C890 1.367 . S
C891 C893 1.433 . S
C892 C888 1.350 . S
C892 C889 1.463 . S
C892 N896 1.427 . S
C893 H883 0.929 . S
C893 C891 1.433 . S
C893 N896 1.384 . S
C894 H885 0.929 . S
C894 C886 1.378 . S
C894 C889 1.350 . S
C895 H882 0.929 . S
C895 C887 1.433 . S
C895 N897 1.384 . S
N896 C892 1.427 . S
N896 C893 1.384 . S
N897 C889 1.427 . S
N897 C895 1.384 . S
H898 C904 0.930 . S
H899 C908 0.930 . S
H900 C913 0.929 . S
H901 C911 0.929 . S
H902 C906 0.929 . S
H903 C912 0.929 . S
C904 H898 0.930 . S
C904 C905 1.367 . S
C904 C912 1.378 . S
C905 C904 1.367 . S
C905 C913 1.433 . S
C906 H902 0.929 . S
C906 C908 1.378 . S
C906 C910 1.350 . S
C907 C910 1.463 . S
C907 C912 1.350 . S
C907 N915 1.427 . S
C908 H899 0.930 . S
C908 C906 1.378 . S
C908 C909 1.367 . S
C909 C908 1.367 . S
C909 C911 1.433 . S
C910 C906 1.350 . S
C910 C907 1.463 . S
C910 N914 1.427 . S
C911 H901 0.929 . S
C911 C909 1.433 . S
C911 N914 1.384 . S
C912 H903 0.929 . S
C912 C904 1.378 . S
C912 C907 1.350 . S
C913 H900 0.929 . S
C913 C905 1.433 . S
C913 N915 1.384 . S
N914 C910 1.427 . S
N914 C911 1.384 . S
N915 C907 1.427 . S
N915 C913 1.384 . S
H916 C922 0.930 . S
H917 C926 0.930 . S
H918 C931 0.929 . S
H919 C929 0.929 . S
H920 C924 0.929 . S
H921 C930 0.929 . S
C922 H916 0.930 . S
C922 C923 1.367 . S
C922 C930 1.378 . S
C923 C922 1.367 . S
C923 C931 1.433 . S
C924 H920 0.929 . S
C924 C926 1.378 . S
C924 C928 1.350 . S
C925 C928 1.463 . S
C925 C930 1.350 . S
C925 N933 1.427 . S
C926 H917 0.930 . S
C926 C924 1.378 . S
C926 C927 1.367 . S
C927 C926 1.367 . S
C927 C929 1.433 . S
C928 C924 1.350 . S
C928 C925 1.463 . S
C928 N932 1.427 . S
C929 H919 0.929 . S
C929 C927 1.433 . S
C929 N932 1.384 . S
C930 H921 0.929 . S
C930 C922 1.378 . S
C930 C925 1.350 . S
C931 H918 0.929 . S
C931 C923 1.433 . S
C931 N933 1.384 . S
N932 C928 1.427 . S
N932 C929 1.384 . S
N933 C925 1.427 . S
N933 C931 1.384 . S
H934 C940 0.930 . S
H935 C944 0.930 . S
H936 C949 0.929 . S
H937 C947 0.929 . S
H938 C942 0.929 . S
H939 C948 0.929 . S
C940 H934 0.930 . S
C940 C941 1.367 . S
C940 C948 1.378 . S
C941 C940 1.367 . S
C941 C949 1.433 . S
C942 H938 0.929 . S
C942 C944 1.378 . S
C942 C946 1.350 . S
C943 C946 1.463 . S
C943 C948 1.350 . S
C943 N951 1.427 . S
C944 H935 0.930 . S
C944 C942 1.378 . S
C944 C945 1.367 . S
C945 C944 1.367 . S
C945 C947 1.433 . S
C946 C942 1.350 . S
C946 C943 1.463 . S
C946 N950 1.427 . S
C947 H937 0.929 . S
C947 C945 1.433 . S
C947 N950 1.384 . S
C948 H939 0.929 . S
C948 C940 1.378 . S
C948 C943 1.350 . S
C949 H936 0.929 . S
C949 C941 1.433 . S
C949 N951 1.384 . S
N950 C946 1.427 . S
N950 C947 1.384 . S
N951 C943 1.427 . S
N951 C949 1.384 . S
H952 C958 0.930 . S
H953 C962 0.930 . S
H954 C967 0.929 . S
H955 C965 0.929 . S
H956 C960 0.929 . S
H957 C966 0.929 . S
C958 H952 0.930 . S
C958 C959 1.367 . S
C958 C966 1.378 . S
C959 C958 1.367 . S
C959 C967 1.433 . S
C960 H956 0.929 . S
C960 C962 1.378 . S
C960 C964 1.350 . S
C961 C964 1.463 . S
C961 C966 1.350 . S
C961 N969 1.427 . S
C962 H953 0.930 . S
C962 C960 1.378 . S
C962 C963 1.367 . S
C963 C962 1.367 . S
C963 C965 1.433 . S
C964 C960 1.350 . S
C964 C961 1.463 . S
C964 N968 1.427 . S
C965 H955 0.929 . S
C965 C963 1.433 . S
C965 N968 1.384 . S
C966 H957 0.929 . S
C966 C958 1.378 . S
C966 C961 1.350 . S
C967 H954 0.929 . S
C967 C959 1.433 . S
C967 N969 1.384 . S
N968 C964 1.427 . S
N968 C965 1.384 . S
N969 C961 1.427 . S
N969 C967 1.384 . S
H970 C976 0.930 . S
H971 C980 0.930 . S
H972 C985 0.929 . S
H973 C983 0.929 . S
H974 C978 0.929 . S
H975 C984 0.929 . S
C976 H970 0.930 . S
C976 C977 1.367 . S
C976 C984 1.378 . S
C977 C976 1.367 . S
C977 C985 1.433 . S
C978 H974 0.929 . S
C978 C980 1.378 . S
C978 C982 1.350 . S
C979 C982 1.463 . S
C979 C984 1.350 . S
C979 N987 1.427 . S
C980 H971 0.930 . S
C980 C978 1.378 . S
C980 C981 1.367 . S
C981 C980 1.367 . S
C981 C983 1.433 . S
C982 C978 1.350 . S
C982 C979 1.463 . S
C982 N986 1.427 . S
C983 H973 0.929 . S
C983 C981 1.433 . S
C983 N986 1.384 . S
C984 H975 0.929 . S
C984 C976 1.378 . S
C984 C979 1.350 . S
C985 H972 0.929 . S
C985 C977 1.433 . S
C985 N987 1.384 . S
N986 C982 1.427 . S
N986 C983 1.384 . S
N987 C979 1.427 . S
N987 C985 1.384 . S
H988 C994 0.930 . S
H989 C998 0.930 . S
H990 C1003 0.929 . S
H991 C1001 0.929 . S
H992 C996 0.929 . S
H993 C1002 0.929 . S
C994 H988 0.930 . S
C994 C995 1.367 . S
C994 C1002 1.378 . S
C995 C994 1.367 . S
C995 C1003 1.433 . S
C996 H992 0.929 . S
C996 C998 1.378 . S
C996 C1000 1.350 . S
C997 C1000 1.463 . S
C997 C1002 1.350 . S
C997 N1005 1.427 . S
C998 H989 0.930 . S
C998 C996 1.378 . S
C998 C999 1.367 . S
C999 C998 1.367 . S
C999 C1001 1.433 . S
C1000 C996 1.350 . S
C1000 C997 1.463 . S
C1000 N1004 1.427 . S
C1001 H991 0.929 . S
C1001 C999 1.433 . S
C1001 N1004 1.384 . S
C1002 H993 0.929 . S
C1002 C994 1.378 . S
C1002 C997 1.350 . S
C1003 H990 0.929 . S
C1003 C995 1.433 . S
C1003 N1005 1.384 . S
N1004 C1000 1.427 . S
N1004 C1001 1.384 . S
N1005 C997 1.427 . S
N1005 C1003 1.384 . S
H1006 C1012 0.930 . S
H1007 C1016 0.930 . S
H1008 C1021 0.929 . S
H1009 C1019 0.929 . S
H1010 C1014 0.929 . S
H1011 C1020 0.929 . S
C1012 H1006 0.930 . S
C1012 C1013 1.367 . S
C1012 C1020 1.378 . S
C1013 C1012 1.367 . S
C1013 C1021 1.433 . S
C1014 H1010 0.929 . S
C1014 C1016 1.378 . S
C1014 C1018 1.350 . S
C1015 C1018 1.463 . S
C1015 C1020 1.350 . S
C1015 N1023 1.427 . S
C1016 H1007 0.930 . S
C1016 C1014 1.378 . S
C1016 C1017 1.367 . S
C1017 C1016 1.367 . S
C1017 C1019 1.433 . S
C1018 C1014 1.350 . S
C1018 C1015 1.463 . S
C1018 N1022 1.427 . S
C1019 H1009 0.929 . S
C1019 C1017 1.433 . S
C1019 N1022 1.384 . S
C1020 H1011 0.929 . S
C1020 C1012 1.378 . S
C1020 C1015 1.350 . S
C1021 H1008 0.929 . S
C1021 C1013 1.433 . S
C1021 N1023 1.384 . S
N1022 C1018 1.427 . S
N1022 C1019 1.384 . S
N1023 C1015 1.427 . S
N1023 C1021 1.384 . S
H1024 C1030 0.930 . S
H1025 C1034 0.930 . S
H1026 C1039 0.929 . S
H1027 C1037 0.929 . S
H1028 C1032 0.929 . S
H1029 C1038 0.929 . S
C1030 H1024 0.930 . S
C1030 C1031 1.367 . S
C1030 C1038 1.378 . S
C1031 C1030 1.367 . S
C1031 C1039 1.433 . S
C1032 H1028 0.929 . S
C1032 C1034 1.378 . S
C1032 C1036 1.350 . S
C1033 C1036 1.463 . S
C1033 C1038 1.350 . S
C1033 N1041 1.427 . S
C1034 H1025 0.930 . S
C1034 C1032 1.378 . S
C1034 C1035 1.367 . S
C1035 C1034 1.367 . S
C1035 C1037 1.433 . S
C1036 C1032 1.350 . S
C1036 C1033 1.463 . S
C1036 N1040 1.427 . S
C1037 H1027 0.929 . S
C1037 C1035 1.433 . S
C1037 N1040 1.384 . S
C1038 H1029 0.929 . S
C1038 C1030 1.378 . S
C1038 C1033 1.350 . S
C1039 H1026 0.929 . S
C1039 C1031 1.433 . S
C1039 N1041 1.384 . S
N1040 C1036 1.427 . S
N1040 C1037 1.384 . S
N1041 C1033 1.427 . S
N1041 C1039 1.384 . S
H1042 C1048 0.930 . S
H1043 C1052 0.922 1_655 S
H1044 C1057 0.929 . S
H1045 C1055 0.929 1_655 S
H1046 C1050 0.929 . S
H1047 C1056 0.929 . S
C1048 H1042 0.930 . S
C1048 C1049 1.367 . S
C1048 C1056 1.378 . S
C1049 C1048 1.367 . S
C1049 C1057 1.433 . S
C1050 H1046 0.929 . S
C1050 C1052 1.378 . S
C1050 C1054 1.350 . S
C1051 C1054 1.463 . S
C1051 C1056 1.350 . S
C1051 N1059 1.427 . S
C1052 H1043 0.922 1_455 S
C1052 C1050 1.378 . S
C1052 C1053 1.367 1_455 S
C1053 C1052 1.367 1_655 S
C1053 C1055 1.433 1_655 S
C1054 C1050 1.350 . S
C1054 C1051 1.463 . S
C1054 N1058 1.427 . S
C1055 H1045 0.929 1_455 S
C1055 C1053 1.433 1_455 S
C1055 N1058 1.384 . S
C1056 H1047 0.929 . S
C1056 C1048 1.378 . S
C1056 C1051 1.350 . S
C1057 H1044 0.929 . S
C1057 C1049 1.433 . S
C1057 N1059 1.384 . S
N1058 C1054 1.427 . S
N1058 C1055 1.384 . S
N1059 C1051 1.427 . S
N1059 C1057 1.384 . S
H1060 C1066 0.930 . S
H1061 C1070 0.930 . S
H1062 C1075 0.929 . S
H1063 C1073 0.929 . S
H1064 C1068 0.929 . S
H1065 C1074 0.929 . S
C1066 H1060 0.930 . S
C1066 C1067 1.367 . S
C1066 C1074 1.378 . S
C1067 C1066 1.367 . S
C1067 C1075 1.433 . S
C1068 H1064 0.929 . S
C1068 C1070 1.378 . S
C1068 C1072 1.350 . S
C1069 C1072 1.463 . S
C1069 C1074 1.350 . S
C1069 N1077 1.427 . S
C1070 H1061 0.930 . S
C1070 C1068 1.378 . S
C1070 C1071 1.367 . S
C1071 C1070 1.367 . S
C1071 C1073 1.433 . S
C1072 C1068 1.350 . S
C1072 C1069 1.463 . S
C1072 N1076 1.427 . S
C1073 H1063 0.929 . S
C1073 C1071 1.433 . S
C1073 N1076 1.384 . S
C1074 H1065 0.929 . S
C1074 C1066 1.378 . S
C1074 C1069 1.350 . S
C1075 H1062 0.929 . S
C1075 C1067 1.433 . S
C1075 N1077 1.384 . S
N1076 C1072 1.427 . S
N1076 C1073 1.384 . S
N1077 C1069 1.427 . S
N1077 C1075 1.384 . S
H1078 C1084 0.930 . S
H1079 C1088 0.930 . S
H1080 C1093 0.929 . S
H1081 C1091 0.929 . S
H1082 C1086 0.929 . S
H1083 C1092 0.929 . S
C1084 H1078 0.930 . S
C1084 C1085 1.367 . S
C1084 C1092 1.378 . S
C1085 C1084 1.367 . S
C1085 C1093 1.433 . S
C1086 H1082 0.929 . S
C1086 C1088 1.378 . S
C1086 C1090 1.350 . S
C1087 C1090 1.463 . S
C1087 C1092 1.350 . S
C1087 N1095 1.427 . S
C1088 H1079 0.930 . S
C1088 C1086 1.378 . S
C1088 C1089 1.367 . S
C1089 C1088 1.367 . S
C1089 C1091 1.433 . S
C1090 C1086 1.350 . S
C1090 C1087 1.463 . S
C1090 N1094 1.427 . S
C1091 H1081 0.929 . S
C1091 C1089 1.433 . S
C1091 N1094 1.384 . S
C1092 H1083 0.929 . S
C1092 C1084 1.378 . S
C1092 C1087 1.350 . S
C1093 H1080 0.929 . S
C1093 C1085 1.433 . S
C1093 N1095 1.384 . S
N1094 C1090 1.427 . S
N1094 C1091 1.384 . S
N1095 C1087 1.427 . S
N1095 C1093 1.384 . S
H1096 C1102 0.930 . S
H1097 C1106 0.930 . S
H1098 C1111 0.929 . S
H1099 C1109 0.929 . S
H1100 C1104 0.929 . S
H1101 C1110 0.929 . S
C1102 H1096 0.930 . S
C1102 C1103 1.367 . S
C1102 C1110 1.378 . S
C1103 C1102 1.367 . S
C1103 C1111 1.433 . S
C1104 H1100 0.929 . S
C1104 C1106 1.378 . S
C1104 C1108 1.350 . S
C1105 C1108 1.463 . S
C1105 C1110 1.350 . S
C1105 N1113 1.427 . S
C1106 H1097 0.930 . S
C1106 C1104 1.378 . S
C1106 C1107 1.367 . S
C1107 C1106 1.367 . S
C1107 C1109 1.433 . S
C1108 C1104 1.350 . S
C1108 C1105 1.463 . S
C1108 N1112 1.427 . S
C1109 H1099 0.929 . S
C1109 C1107 1.433 . S
C1109 N1112 1.384 . S
C1110 H1101 0.929 . S
C1110 C1102 1.378 . S
C1110 C1105 1.350 . S
C1111 H1098 0.929 . S
C1111 C1103 1.433 . S
C1111 N1113 1.384 . S
N1112 C1108 1.427 . S
N1112 C1109 1.384 . S
N1113 C1105 1.427 . S
N1113 C1111 1.384 . S
H1114 C1120 0.930 . S
H1115 C1124 0.930 . S
H1116 C1129 0.929 . S
H1117 C1127 0.929 . S
H1118 C1122 0.929 . S
H1119 C1128 0.929 . S
C1120 H1114 0.930 . S
C1120 C1121 1.367 . S
C1120 C1128 1.378 . S
C1121 C1120 1.367 . S
C1121 C1129 1.433 . S
C1122 H1118 0.929 . S
C1122 C1124 1.378 . S
C1122 C1126 1.350 . S
C1123 C1126 1.463 . S
C1123 C1128 1.350 . S
C1123 N1131 1.427 . S
C1124 H1115 0.930 . S
C1124 C1122 1.378 . S
C1124 C1125 1.367 . S
C1125 C1124 1.367 . S
C1125 C1127 1.433 . S
C1126 C1122 1.350 . S
C1126 C1123 1.463 . S
C1126 N1130 1.427 . S
C1127 H1117 0.929 . S
C1127 C1125 1.433 . S
C1127 N1130 1.384 . S
C1128 H1119 0.929 . S
C1128 C1120 1.378 . S
C1128 C1123 1.350 . S
C1129 H1116 0.929 . S
C1129 C1121 1.433 . S
C1129 N1131 1.384 . S
N1130 C1126 1.427 . S
N1130 C1127 1.384 . S
N1131 C1123 1.427 . S
N1131 C1129 1.384 . S
H1132 C1138 0.930 . S
H1133 C1142 0.930 . S
H1134 C1147 0.929 . S
H1135 C1145 0.929 . S
H1136 C1140 0.929 . S
H1137 C1146 0.929 . S
C1138 H1132 0.930 . S
C1138 C1139 1.367 . S
C1138 C1146 1.378 . S
C1139 C1138 1.367 . S
C1139 C1147 1.433 . S
C1140 H1136 0.929 . S
C1140 C1142 1.378 . S
C1140 C1144 1.350 . S
C1141 C1144 1.463 . S
C1141 C1146 1.350 . S
C1141 N1149 1.427 . S
C1142 H1133 0.930 . S
C1142 C1140 1.378 . S
C1142 C1143 1.367 . S
C1143 C1142 1.367 . S
C1143 C1145 1.433 . S
C1144 C1140 1.350 . S
C1144 C1141 1.463 . S
C1144 N1148 1.427 . S
C1145 H1135 0.929 . S
C1145 C1143 1.433 . S
C1145 N1148 1.384 . S
C1146 H1137 0.929 . S
C1146 C1138 1.378 . S
C1146 C1141 1.350 . S
C1147 H1134 0.929 . S
C1147 C1139 1.433 . S
C1147 N1149 1.384 . S
N1148 C1144 1.427 . S
N1148 C1145 1.384 . S
N1149 C1141 1.427 . S
N1149 C1147 1.384 . S
H1150 C1156 0.930 . S
H1151 C1160 0.930 . S
H1152 C1165 0.929 . S
H1153 C1163 0.929 . S
H1154 C1158 0.929 . S
H1155 C1164 0.929 . S
C1156 H1150 0.930 . S
C1156 C1157 1.367 . S
C1156 C1164 1.378 . S
C1157 C1156 1.367 . S
C1157 C1165 1.433 . S
C1158 H1154 0.929 . S
C1158 C1160 1.378 1_455 S
C1158 C1162 1.350 . S
C1159 C1162 1.463 . S
C1159 C1164 1.350 . S
C1159 N1167 1.427 . S
C1160 H1151 0.930 . S
C1160 C1158 1.378 1_655 S
C1160 C1161 1.367 . S
C1161 C1160 1.367 . S
C1161 C1163 1.433 1_655 S
C1162 C1158 1.350 . S
C1162 C1159 1.463 . S
C1162 N1166 1.427 . S
C1163 H1153 0.929 . S
C1163 C1161 1.433 1_455 S
C1163 N1166 1.384 . S
C1164 H1155 0.929 . S
C1164 C1156 1.378 . S
C1164 C1159 1.350 . S
C1165 H1152 0.929 . S
C1165 C1157 1.433 . S
C1165 N1167 1.384 . S
N1166 C1162 1.427 . S
N1166 C1163 1.384 . S
N1167 C1159 1.427 . S
N1167 C1165 1.384 . S
H1168 C1174 0.930 . S
H1169 C1178 0.930 . S
H1170 C1183 0.929 . S
H1171 C1181 0.929 . S
H1172 C1176 0.929 . S
H1173 C1182 0.929 . S
C1174 H1168 0.930 . S
C1174 C1175 1.367 . S
C1174 C1182 1.378 . S
C1175 C1174 1.367 . S
C1175 C1183 1.433 . S
C1176 H1172 0.929 . S
C1176 C1178 1.378 . S
C1176 C1180 1.350 . S
C1177 C1180 1.463 . S
C1177 C1182 1.350 . S
C1177 N1185 1.427 . S
C1178 H1169 0.930 . S
C1178 C1176 1.378 . S
C1178 C1179 1.367 . S
C1179 C1178 1.367 . S
C1179 C1181 1.433 . S
C1180 C1176 1.350 . S
C1180 C1177 1.463 . S
C1180 N1184 1.427 . S
C1181 H1171 0.929 . S
C1181 C1179 1.433 . S
C1181 N1184 1.384 . S
C1182 H1173 0.929 . S
C1182 C1174 1.378 . S
C1182 C1177 1.350 . S
C1183 H1170 0.929 . S
C1183 C1175 1.433 . S
C1183 N1185 1.384 . S
N1184 C1180 1.427 . S
N1184 C1181 1.384 . S
N1185 C1177 1.427 . S
N1185 C1183 1.384 . S
H1186 C1192 0.930 . S
H1187 C1196 0.930 . S
H1188 C1201 0.929 . S
H1189 C1199 0.929 . S
H1190 C1194 0.929 . S
H1191 C1200 0.929 . S
C1192 H1186 0.930 . S
C1192 C1193 1.367 . S
C1192 C1200 1.378 1_455 S
C1193 C1192 1.367 . S
C1193 C1201 1.433 1_455 S
C1194 H1190 0.929 . S
C1194 C1196 1.378 . S
C1194 C1198 1.350 . S
C1195 C1198 1.463 . S
C1195 C1200 1.350 . S
C1195 N1203 1.427 . S
C1196 H1187 0.930 . S
C1196 C1194 1.378 . S
C1196 C1197 1.367 . S
C1197 C1196 1.367 . S
C1197 C1199 1.433 . S
C1198 C1194 1.350 . S
C1198 C1195 1.463 . S
C1198 N1202 1.427 . S
C1199 H1189 0.929 . S
C1199 C1197 1.433 . S
C1199 N1202 1.384 . S
C1200 H1191 0.929 . S
C1200 C1192 1.378 1_655 S
C1200 C1195 1.350 . S
C1201 H1188 0.929 . S
C1201 C1193 1.433 1_655 S
C1201 N1203 1.384 . S
N1202 C1198 1.427 . S
N1202 C1199 1.384 . S
N1203 C1195 1.427 . S
N1203 C1201 1.384 . S
H1204 C1210 0.930 . S
H1205 C1214 0.930 . S
H1206 C1219 0.929 . S
H1207 C1217 0.929 . S
H1208 C1212 0.929 . S
H1209 C1218 0.929 . S
C1210 H1204 0.930 . S
C1210 C1211 1.367 . S
C1210 C1218 1.378 . S
C1211 C1210 1.367 . S
C1211 C1219 1.433 . S
C1212 H1208 0.929 . S
C1212 C1214 1.378 . S
C1212 C1216 1.350 . S
C1213 C1216 1.463 . S
C1213 C1218 1.350 . S
C1213 N1221 1.427 . S
C1214 H1205 0.930 . S
C1214 C1212 1.378 . S
C1214 C1215 1.367 . S
C1215 C1214 1.367 . S
C1215 C1217 1.433 . S
C1216 C1212 1.350 . S
C1216 C1213 1.463 . S
C1216 N1220 1.427 . S
C1217 H1207 0.929 . S
C1217 C1215 1.433 . S
C1217 N1220 1.384 . S
C1218 H1209 0.929 . S
C1218 C1210 1.378 . S
C1218 C1213 1.350 . S
C1219 H1206 0.929 . S
C1219 C1211 1.433 . S
C1219 N1221 1.384 . S
N1220 C1216 1.427 . S
N1220 C1217 1.384 . S
N1221 C1213 1.427 . S
N1221 C1219 1.384 . S
H1222 C1228 0.930 . S
H1223 C1232 0.930 . S
H1224 C1237 0.929 . S
H1225 C1235 0.929 . S
H1226 C1230 0.929 . S
H1227 C1236 0.929 . S
C1228 H1222 0.930 . S
C1228 C1229 1.367 . S
C1228 C1236 1.378 . S
C1229 C1228 1.367 . S
C1229 C1237 1.433 . S
C1230 H1226 0.929 . S
C1230 C1232 1.378 . S
C1230 C1234 1.350 . S
C1231 C1234 1.463 . S
C1231 C1236 1.350 . S
C1231 N1239 1.427 . S
C1232 H1223 0.930 . S
C1232 C1230 1.378 . S
C1232 C1233 1.367 . S
C1233 C1232 1.367 . S
C1233 C1235 1.433 . S
C1234 C1230 1.350 . S
C1234 C1231 1.463 . S
C1234 N1238 1.427 . S
C1235 H1225 0.929 . S
C1235 C1233 1.433 . S
C1235 N1238 1.384 . S
C1236 H1227 0.929 . S
C1236 C1228 1.378 . S
C1236 C1231 1.350 . S
C1237 H1224 0.929 . S
C1237 C1229 1.433 . S
C1237 N1239 1.384 . S
N1238 C1234 1.427 . S
N1238 C1235 1.384 . S
N1239 C1231 1.427 . S
N1239 C1237 1.384 . S
H1240 C1246 0.930 . S
H1241 C1250 0.930 . S
H1242 C1255 0.929 . S
H1243 C1253 0.929 . S
H1244 C1248 0.929 . S
H1245 C1254 0.929 . S
C1246 H1240 0.930 . S
C1246 C1247 1.367 . S
C1246 C1254 1.378 . S
C1247 C1246 1.367 . S
C1247 C1255 1.433 . S
C1248 H1244 0.929 . S
C1248 C1250 1.378 . S
C1248 C1252 1.350 . S
C1249 C1252 1.463 . S
C1249 C1254 1.350 . S
C1249 N1257 1.427 . S
C1250 H1241 0.930 . S
C1250 C1248 1.378 . S
C1250 C1251 1.367 . S
C1251 C1250 1.367 . S
C1251 C1253 1.433 . S
C1252 C1248 1.350 . S
C1252 C1249 1.463 . S
C1252 N1256 1.427 . S
C1253 H1243 0.929 . S
C1253 C1251 1.433 . S
C1253 N1256 1.384 . S
C1254 H1245 0.929 . S
C1254 C1246 1.378 . S
C1254 C1249 1.350 . S
C1255 H1242 0.929 . S
C1255 C1247 1.433 . S
C1255 N1257 1.384 . S
N1256 C1252 1.427 . S
N1256 C1253 1.384 . S
N1257 C1249 1.427 . S
N1257 C1255 1.384 . S
H1258 C1264 0.930 . S
H1259 C1268 0.930 . S
H1260 C1273 0.929 . S
H1261 C1271 0.929 . S
H1262 C1266 0.929 . S
H1263 C1272 0.929 . S
C1264 H1258 0.930 . S
C1264 C1265 1.367 . S
C1264 C1272 1.378 . S
C1265 C1264 1.367 . S
C1265 C1273 1.433 . S
C1266 H1262 0.929 . S
C1266 C1268 1.378 . S
C1266 C1270 1.350 . S
C1267 C1270 1.463 . S
C1267 C1272 1.350 . S
C1267 N1275 1.427 . S
C1268 H1259 0.930 . S
C1268 C1266 1.378 . S
C1268 C1269 1.367 . S
C1269 C1268 1.367 . S
C1269 C1271 1.433 . S
C1270 C1266 1.350 . S
C1270 C1267 1.463 . S
C1270 N1274 1.427 . S
C1271 H1261 0.929 . S
C1271 C1269 1.433 . S
C1271 N1274 1.384 . S
C1272 H1263 0.929 . S
C1272 C1264 1.378 . S
C1272 C1267 1.350 . S
C1273 H1260 0.929 . S
C1273 C1265 1.433 . S
C1273 N1275 1.384 . S
N1274 C1270 1.427 . S
N1274 C1271 1.384 . S
N1275 C1267 1.427 . S
N1275 C1273 1.384 . S
H1276 C1282 0.930 . S
H1277 C1286 0.930 . S
H1278 C1291 0.929 . S
H1279 C1289 0.929 . S
H1280 C1284 0.929 . S
H1281 C1290 0.929 . S
C1282 H1276 0.930 . S
C1282 C1283 1.367 . S
C1282 C1290 1.378 . S
C1283 C1282 1.367 . S
C1283 C1291 1.433 . S
C1284 H1280 0.929 . S
C1284 C1286 1.378 . S
C1284 C1288 1.350 . S
C1285 C1288 1.463 . S
C1285 C1290 1.350 . S
C1285 N1293 1.427 . S
C1286 H1277 0.930 . S
C1286 C1284 1.378 . S
C1286 C1287 1.367 . S
C1287 C1286 1.367 . S
C1287 C1289 1.433 . S
C1288 C1284 1.350 . S
C1288 C1285 1.463 . S
C1288 N1292 1.427 . S
C1289 H1279 0.929 . S
C1289 C1287 1.433 . S
C1289 N1292 1.384 . S
C1290 H1281 0.929 . S
C1290 C1282 1.378 . S
C1290 C1285 1.350 . S
C1291 H1278 0.929 . S
C1291 C1283 1.433 . S
C1291 N1293 1.384 . S
N1292 C1288 1.427 . S
N1292 C1289 1.384 . S
N1293 C1285 1.427 . S
N1293 C1291 1.384 . S
H1294 C1300 0.930 . S
H1295 C1304 0.930 . S
H1296 C1309 0.914 1_455 S
H1297 C1307 0.929 . S
H1298 C1302 0.929 . S
H1299 C1308 0.929 . S
C1300 H1294 0.930 . S
C1300 C1301 1.367 1_655 S
C1300 C1308 1.378 . S
C1301 C1300 1.367 1_455 S
C1301 C1309 1.427 1_455 S
C1302 H1298 0.929 . S
C1302 C1304 1.378 . S
C1302 C1306 1.350 . S
C1303 C1306 1.463 . S
C1303 C1308 1.350 . S
C1303 N1311 1.427 . S
C1304 H1295 0.930 . S
C1304 C1302 1.378 . S
C1304 C1305 1.367 . S
C1305 C1304 1.367 . S
C1305 C1307 1.433 . S
C1306 C1302 1.350 . S
C1306 C1303 1.463 . S
C1306 N1310 1.427 . S
C1307 H1297 0.929 . S
C1307 C1305 1.433 . S
C1307 N1310 1.384 . S
C1308 H1299 0.929 . S
C1308 C1300 1.378 . S
C1308 C1303 1.350 . S
C1309 H1296 0.914 1_655 S
C1309 C1301 1.427 1_655 S
C1309 N1311 1.407 . S
N1310 C1306 1.427 . S
N1310 C1307 1.384 . S
N1311 C1303 1.427 . S
N1311 C1309 1.407 . S
H1312 C1318 0.930 . S
H1313 C1322 0.930 . S
H1314 C1327 0.929 . S
H1315 C1325 0.929 . S
H1316 C1320 0.929 . S
H1317 C1326 0.929 . S
C1318 H1312 0.930 . S
C1318 C1319 1.367 . S
C1318 C1326 1.378 . S
C1319 C1318 1.367 . S
C1319 C1327 1.433 . S
C1320 H1316 0.929 . S
C1320 C1322 1.378 . S
C1320 C1324 1.350 . S
C1321 C1324 1.463 . S
C1321 C1326 1.350 . S
C1321 N1329 1.427 . S
C1322 H1313 0.930 . S
C1322 C1320 1.378 . S
C1322 C1323 1.367 . S
C1323 C1322 1.367 . S
C1323 C1325 1.433 . S
C1324 C1320 1.350 . S
C1324 C1321 1.463 . S
C1324 N1328 1.427 . S
C1325 H1315 0.929 . S
C1325 C1323 1.433 . S
C1325 N1328 1.384 . S
C1326 H1317 0.929 . S
C1326 C1318 1.378 . S
C1326 C1321 1.350 . S
C1327 H1314 0.929 . S
C1327 C1319 1.433 . S
C1327 N1329 1.384 . S
N1328 C1324 1.427 . S
N1328 C1325 1.384 . S
N1329 C1321 1.427 . S
N1329 C1327 1.384 . S
H1330 C1336 0.930 . S
H1331 C1340 0.930 . S
H1332 C1345 0.929 . S
H1333 C1343 0.929 . S
H1334 C1338 0.929 . S
H1335 C1344 0.929 . S
C1336 H1330 0.930 . S
C1336 C1337 1.367 . S
C1336 C1344 1.378 . S
C1337 C1336 1.367 . S
C1337 C1345 1.433 . S
C1338 H1334 0.929 . S
C1338 C1340 1.378 . S
C1338 C1342 1.350 . S
C1339 C1342 1.463 . S
C1339 C1344 1.350 . S
C1339 N1347 1.427 . S
C1340 H1331 0.930 . S
C1340 C1338 1.378 . S
C1340 C1341 1.367 . S
C1341 C1340 1.367 . S
C1341 C1343 1.433 . S
C1342 C1338 1.350 . S
C1342 C1339 1.463 . S
C1342 N1346 1.427 . S
C1343 H1333 0.929 . S
C1343 C1341 1.433 . S
C1343 N1346 1.384 . S
C1344 H1335 0.929 . S
C1344 C1336 1.378 . S
C1344 C1339 1.350 . S
C1345 H1332 0.929 . S
C1345 C1337 1.433 . S
C1345 N1347 1.384 . S
N1346 C1342 1.427 . S
N1346 C1343 1.384 . S
N1347 C1339 1.427 . S
N1347 C1345 1.384 . S
H1348 C1354 0.930 . S
H1349 C1358 0.930 . S
H1350 C1363 0.929 . S
H1351 C1361 0.929 . S
H1352 C1356 0.929 . S
H1353 C1362 0.929 . S
C1354 H1348 0.930 . S
C1354 C1355 1.367 . S
C1354 C1362 1.378 . S
C1355 C1354 1.367 . S
C1355 C1363 1.433 . S
C1356 H1352 0.929 . S
C1356 C1358 1.378 . S
C1356 C1360 1.350 . S
C1357 C1360 1.463 . S
C1357 C1362 1.350 . S
C1357 N1365 1.427 . S
C1358 H1349 0.930 . S
C1358 C1356 1.378 . S
C1358 C1359 1.367 . S
C1359 C1358 1.367 . S
C1359 C1361 1.433 . S
C1360 C1356 1.350 . S
C1360 C1357 1.463 . S
C1360 N1364 1.427 . S
C1361 H1351 0.929 . S
C1361 C1359 1.433 . S
C1361 N1364 1.384 . S
C1362 H1353 0.929 . S
C1362 C1354 1.378 . S
C1362 C1357 1.350 . S
C1363 H1350 0.929 . S
C1363 C1355 1.433 . S
C1363 N1365 1.384 . S
N1364 C1360 1.427 . S
N1364 C1361 1.384 . S
N1365 C1357 1.427 . S
N1365 C1363 1.384 . S
H1366 C1372 0.930 . S
H1367 C1376 0.930 . S
H1368 C1381 0.929 . S
H1369 C1379 0.929 . S
H1370 C1374 0.929 . S
H1371 C1380 0.929 . S
C1372 H1366 0.930 . S
C1372 C1373 1.367 . S
C1372 C1380 1.378 . S
C1373 C1372 1.367 . S
C1373 C1381 1.433 . S
C1374 H1370 0.929 . S
C1374 C1376 1.378 1_655 S
C1374 C1378 1.350 . S
C1375 C1378 1.463 . S
C1375 C1380 1.350 . S
C1375 N1383 1.427 . S
C1376 H1367 0.930 . S
C1376 C1374 1.378 1_455 S
C1376 C1377 1.367 . S
C1377 C1376 1.367 . S
C1377 C1379 1.433 1_455 S
C1378 C1374 1.350 . S
C1378 C1375 1.463 . S
C1378 N1382 1.427 . S
C1379 H1369 0.929 . S
C1379 C1377 1.433 1_655 S
C1379 N1382 1.384 . S
C1380 H1371 0.929 . S
C1380 C1372 1.378 . S
C1380 C1375 1.350 . S
C1381 H1368 0.929 . S
C1381 C1373 1.433 . S
C1381 N1383 1.384 . S
N1382 C1378 1.427 . S
N1382 C1379 1.384 . S
N1383 C1375 1.427 . S
N1383 C1381 1.384 . S
H1384 C1390 0.930 . S
H1385 C1394 0.930 . S
H1386 C1399 0.929 . S
H1387 C1397 0.929 . S
H1388 C1392 0.929 . S
H1389 C1398 0.929 . S
C1390 H1384 0.930 . S
C1390 C1391 1.367 . S
C1390 C1398 1.378 . S
C1391 C1390 1.367 . S
C1391 C1399 1.433 . S
C1392 H1388 0.929 . S
C1392 C1394 1.378 . S
C1392 C1396 1.350 . S
C1393 C1396 1.463 . S
C1393 C1398 1.350 . S
C1393 N1401 1.427 . S
C1394 H1385 0.930 . S
C1394 C1392 1.378 . S
C1394 C1395 1.367 . S
C1395 C1394 1.367 . S
C1395 C1397 1.433 . S
C1396 C1392 1.350 . S
C1396 C1393 1.463 . S
C1396 N1400 1.427 . S
C1397 H1387 0.929 . S
C1397 C1395 1.433 . S
C1397 N1400 1.384 . S
C1398 H1389 0.929 . S
C1398 C1390 1.378 . S
C1398 C1393 1.350 . S
C1399 H1386 0.929 . S
C1399 C1391 1.433 . S
C1399 N1401 1.384 . S
N1400 C1396 1.427 . S
N1400 C1397 1.384 . S
N1401 C1393 1.427 . S
N1401 C1399 1.384 . S
H1402 C1408 0.930 . S
H1403 C1412 0.930 . S
H1404 C1417 0.929 . S
H1405 C1415 0.929 . S
H1406 C1410 0.929 . S
H1407 C1416 0.929 . S
C1408 H1402 0.930 . S
C1408 C1409 1.367 . S
C1408 C1416 1.378 1_455 S
C1409 C1408 1.367 . S
C1409 C1417 1.433 1_455 S
C1410 H1406 0.929 . S
C1410 C1412 1.378 . S
C1410 C1414 1.350 . S
C1411 C1414 1.463 . S
C1411 C1416 1.350 . S
C1411 N1419 1.427 . S
C1412 H1403 0.930 . S
C1412 C1410 1.378 . S
C1412 C1413 1.367 . S
C1413 C1412 1.367 . S
C1413 C1415 1.433 . S
C1414 C1410 1.350 . S
C1414 C1411 1.463 . S
C1414 N1418 1.427 . S
C1415 H1405 0.929 . S
C1415 C1413 1.433 . S
C1415 N1418 1.384 . S
C1416 H1407 0.929 . S
C1416 C1408 1.378 1_655 S
C1416 C1411 1.350 . S
C1417 H1404 0.929 . S
C1417 C1409 1.433 1_655 S
C1417 N1419 1.384 . S
N1418 C1414 1.427 . S
N1418 C1415 1.384 . S
N1419 C1411 1.427 . S
N1419 C1417 1.384 . S
H1420 C1426 0.930 . S
H1421 C1430 0.930 . S
H1422 C1435 0.929 . S
H1423 C1433 0.929 . S
H1424 C1428 0.929 . S
H1425 C1434 0.929 . S
C1426 H1420 0.930 . S
C1426 C1427 1.367 . S
C1426 C1434 1.378 . S
C1427 C1426 1.367 . S
C1427 C1435 1.433 . S
C1428 H1424 0.929 . S
C1428 C1430 1.378 . S
C1428 C1432 1.350 . S
C1429 C1432 1.463 . S
C1429 C1434 1.350 . S
C1429 N1437 1.427 . S
C1430 H1421 0.930 . S
C1430 C1428 1.378 . S
C1430 C1431 1.367 . S
C1431 C1430 1.367 . S
C1431 C1433 1.433 . S
C1432 C1428 1.350 . S
C1432 C1429 1.463 . S
C1432 N1436 1.427 . S
C1433 H1423 0.929 . S
C1433 C1431 1.433 . S
C1433 N1436 1.384 . S
C1434 H1425 0.929 . S
C1434 C1426 1.378 . S
C1434 C1429 1.350 . S
C1435 H1422 0.929 . S
C1435 C1427 1.433 . S
C1435 N1437 1.384 . S
N1436 C1432 1.427 . S
N1436 C1433 1.384 . S
N1437 C1429 1.427 . S
N1437 C1435 1.384 . S
H1438 C1444 0.930 . S
H1439 C1448 0.930 . S
H1440 C1453 0.929 . S
H1441 C1451 0.929 . S
H1442 C1446 0.929 . S
H1443 C1452 0.929 . S
C1444 H1438 0.930 . S
C1444 C1445 1.367 . S
C1444 C1452 1.378 . S
C1445 C1444 1.367 . S
C1445 C1453 1.433 . S
C1446 H1442 0.929 . S
C1446 C1448 1.378 . S
C1446 C1450 1.350 . S
C1447 C1450 1.463 . S
C1447 C1452 1.350 . S
C1447 N1455 1.427 . S
C1448 H1439 0.930 . S
C1448 C1446 1.378 . S
C1448 C1449 1.367 . S
C1449 C1448 1.367 . S
C1449 C1451 1.433 . S
C1450 C1446 1.350 . S
C1450 C1447 1.463 . S
C1450 N1454 1.427 . S
C1451 H1441 0.929 . S
C1451 C1449 1.433 . S
C1451 N1454 1.384 . S
C1452 H1443 0.929 . S
C1452 C1444 1.378 . S
C1452 C1447 1.350 . S
C1453 H1440 0.929 . S
C1453 C1445 1.433 . S
C1453 N1455 1.384 . S
N1454 C1450 1.427 . S
N1454 C1451 1.384 . S
N1455 C1447 1.427 . S
N1455 C1453 1.384 . S
H1456 C1462 0.930 . S
H1457 C1466 0.930 . S
H1458 C1471 0.929 . S
H1459 C1469 0.929 . S
H1460 C1464 0.929 . S
H1461 C1470 0.929 . S
C1462 H1456 0.930 . S
C1462 C1463 1.367 . S
C1462 C1470 1.378 . S
C1463 C1462 1.367 . S
C1463 C1471 1.433 . S
C1464 H1460 0.929 . S
C1464 C1466 1.378 . S
C1464 C1468 1.350 . S
C1465 C1468 1.463 . S
C1465 C1470 1.350 . S
C1465 N1473 1.427 . S
C1466 H1457 0.930 . S
C1466 C1464 1.378 . S
C1466 C1467 1.367 . S
C1467 C1466 1.367 . S
C1467 C1469 1.433 . S
C1468 C1464 1.350 . S
C1468 C1465 1.463 . S
C1468 N1472 1.427 . S
C1469 H1459 0.929 . S
C1469 C1467 1.433 . S
C1469 N1472 1.384 . S
C1470 H1461 0.929 . S
C1470 C1462 1.378 . S
C1470 C1465 1.350 . S
C1471 H1458 0.929 . S
C1471 C1463 1.433 . S
C1471 N1473 1.384 . S
N1472 C1468 1.427 . S
N1472 C1469 1.384 . S
N1473 C1465 1.427 . S
N1473 C1471 1.384 . S
H1474 C1480 0.930 . S
H1475 C1484 0.930 . S
H1476 C1489 0.929 . S
H1477 C1487 0.929 . S
H1478 C1482 0.929 . S
H1479 C1488 0.929 . S
C1480 H1474 0.930 . S
C1480 C1481 1.367 . S
C1480 C1488 1.378 . S
C1481 C1480 1.367 . S
C1481 C1489 1.433 . S
C1482 H1478 0.929 . S
C1482 C1484 1.378 . S
C1482 C1486 1.350 . S
C1483 C1486 1.463 . S
C1483 C1488 1.350 . S
C1483 N1491 1.427 . S
C1484 H1475 0.930 . S
C1484 C1482 1.378 . S
C1484 C1485 1.367 . S
C1485 C1484 1.367 . S
C1485 C1487 1.433 . S
C1486 C1482 1.350 . S
C1486 C1483 1.463 . S
C1486 N1490 1.427 . S
C1487 H1477 0.929 . S
C1487 C1485 1.433 . S
C1487 N1490 1.384 . S
C1488 H1479 0.929 . S
C1488 C1480 1.378 . S
C1488 C1483 1.350 . S
C1489 H1476 0.929 . S
C1489 C1481 1.433 . S
C1489 N1491 1.384 . S
N1490 C1486 1.427 . S
N1490 C1487 1.384 . S
N1491 C1483 1.427 . S
N1491 C1489 1.384 . S
H1492 C1498 0.930 . S
H1493 C1502 0.930 . S
H1494 C1507 0.929 . S
H1495 C1505 0.929 . S
H1496 C1500 0.929 . S
H1497 C1506 0.929 . S
C1498 H1492 0.930 . S
C1498 C1499 1.367 . S
C1498 C1506 1.378 . S
C1499 C1498 1.367 . S
C1499 C1507 1.433 . S
C1500 H1496 0.929 . S
C1500 C1502 1.378 . S
C1500 C1504 1.350 . S
C1501 C1504 1.463 . S
C1501 C1506 1.350 . S
C1501 N1509 1.427 . S
C1502 H1493 0.930 . S
C1502 C1500 1.378 . S
C1502 C1503 1.367 . S
C1503 C1502 1.367 . S
C1503 C1505 1.433 . S
C1504 C1500 1.350 . S
C1504 C1501 1.463 . S
C1504 N1508 1.427 . S
C1505 H1495 0.929 . S
C1505 C1503 1.433 . S
C1505 N1508 1.384 . S
C1506 H1497 0.929 . S
C1506 C1498 1.378 . S
C1506 C1501 1.350 . S
C1507 H1494 0.929 . S
C1507 C1499 1.433 . S
C1507 N1509 1.384 . S
N1508 C1504 1.427 . S
N1508 C1505 1.384 . S
N1509 C1501 1.427 . S
N1509 C1507 1.384 . S
H1510 C1516 0.926 1_655 S
H1511 C1520 0.930 . S
H1512 C1525 0.929 . S
H1513 C1523 0.929 . S
H1514 C1518 0.929 . S
H1515 C1524 0.929 . S
C1516 H1510 0.926 1_455 S
C1516 C1517 1.365 1_455 S
C1516 C1524 1.385 . S
C1517 C1516 1.365 1_655 S
C1517 C1525 1.433 1_655 S
C1518 H1514 0.929 . S
C1518 C1520 1.378 . S
C1518 C1522 1.350 . S
C1519 C1522 1.463 . S
C1519 C1524 1.350 . S
C1519 N1527 1.427 . S
C1520 H1511 0.930 . S
C1520 C1518 1.378 . S
C1520 C1521 1.367 . S
C1521 C1520 1.367 . S
C1521 C1523 1.433 . S
C1522 C1518 1.350 . S
C1522 C1519 1.463 . S
C1522 N1526 1.427 . S
C1523 H1513 0.929 . S
C1523 C1521 1.433 . S
C1523 N1526 1.384 . S
C1524 H1515 0.929 . S
C1524 C1516 1.385 . S
C1524 C1519 1.350 . S
C1525 H1512 0.929 . S
C1525 C1517 1.433 1_455 S
C1525 N1527 1.384 . S
N1526 C1522 1.427 . S
N1526 C1523 1.384 . S
N1527 C1519 1.427 . S
N1527 C1525 1.384 . S
H1528 C1534 0.930 . S
H1529 C1538 0.930 . S
H1530 C1543 0.929 . S
H1531 C1541 0.929 . S
H1532 C1536 0.929 . S
H1533 C1542 0.929 . S
C1534 H1528 0.930 . S
C1534 C1535 1.367 . S
C1534 C1542 1.378 . S
C1535 C1534 1.367 . S
C1535 C1543 1.433 . S
C1536 H1532 0.929 . S
C1536 C1538 1.378 . S
C1536 C1540 1.350 . S
C1537 C1540 1.463 . S
C1537 C1542 1.350 . S
C1537 N1545 1.427 . S
C1538 H1529 0.930 . S
C1538 C1536 1.378 . S
C1538 C1539 1.367 . S
C1539 C1538 1.367 . S
C1539 C1541 1.433 . S
C1540 C1536 1.350 . S
C1540 C1537 1.463 . S
C1540 N1544 1.427 . S
C1541 H1531 0.929 . S
C1541 C1539 1.433 . S
C1541 N1544 1.384 . S
C1542 H1533 0.929 . S
C1542 C1534 1.378 . S
C1542 C1537 1.350 . S
C1543 H1530 0.929 . S
C1543 C1535 1.433 . S
C1543 N1545 1.384 . S
N1544 C1540 1.427 . S
N1544 C1541 1.384 . S
N1545 C1537 1.427 . S
N1545 C1543 1.384 . S
H1546 C1552 0.930 . S
H1547 C1556 0.928 . S
H1548 C1561 0.929 . S
H1549 C1559 0.929 . S
H1550 C1554 0.929 . S
H1551 C1560 0.929 . S
C1552 H1546 0.930 . S
C1552 C1553 1.367 . S
C1552 C1560 1.378 . S
C1553 C1552 1.367 . S
C1553 C1561 1.433 . S
C1554 H1550 0.929 . S
C1554 C1556 1.381 1_455 S
C1554 C1558 1.350 . S
C1555 C1558 1.463 . S
C1555 C1560 1.350 . S
C1555 N1563 1.427 . S
C1556 H1547 0.928 . S
C1556 C1554 1.381 1_655 S
C1556 C1557 1.366 . S
C1557 C1556 1.366 . S
C1557 C1559 1.433 1_655 S
C1558 C1554 1.350 . S
C1558 C1555 1.463 . S
C1558 N1562 1.427 . S
C1559 H1549 0.929 . S
C1559 C1557 1.433 1_455 S
C1559 N1562 1.384 . S
C1560 H1551 0.929 . S
C1560 C1552 1.378 . S
C1560 C1555 1.350 . S
C1561 H1548 0.929 . S
C1561 C1553 1.433 . S
C1561 N1563 1.384 . S
N1562 C1558 1.427 . S
N1562 C1559 1.384 . S
N1563 C1555 1.427 . S
N1563 C1561 1.384 . S
H1564 C1570 0.930 . S
H1565 C1574 0.930 . S
H1566 C1579 0.929 . S
H1567 C1577 0.929 . S
H1568 C1572 0.929 . S
H1569 C1578 0.929 . S
C1570 H1564 0.930 . S
C1570 C1571 1.367 . S
C1570 C1578 1.378 . S
C1571 C1570 1.367 . S
C1571 C1579 1.433 . S
C1572 H1568 0.929 . S
C1572 C1574 1.378 . S
C1572 C1576 1.350 . S
C1573 C1576 1.463 . S
C1573 C1578 1.350 . S
C1573 N1581 1.427 . S
C1574 H1565 0.930 . S
C1574 C1572 1.378 . S
C1574 C1575 1.367 . S
C1575 C1574 1.367 . S
C1575 C1577 1.433 . S
C1576 C1572 1.350 . S
C1576 C1573 1.463 . S
C1576 N1580 1.427 . S
C1577 H1567 0.929 . S
C1577 C1575 1.433 . S
C1577 N1580 1.384 . S
C1578 H1569 0.929 . S
C1578 C1570 1.378 . S
C1578 C1573 1.350 . S
C1579 H1566 0.929 . S
C1579 C1571 1.433 . S
C1579 N1581 1.384 . S
N1580 C1576 1.427 . S
N1580 C1577 1.384 . S
N1581 C1573 1.427 . S
N1581 C1579 1.384 . S
H1582 C1588 0.930 . S
H1583 C1592 0.930 . S
H1584 C1597 0.929 . S
H1585 C1595 0.929 . S
H1586 C1590 0.929 . S
H1587 C1596 0.929 . S
C1588 H1582 0.930 . S
C1588 C1589 1.367 . S
C1588 C1596 1.378 . S
C1589 C1588 1.367 . S
C1589 C1597 1.433 . S
C1590 H1586 0.929 . S
C1590 C1592 1.378 . S
C1590 C1594 1.350 . S
C1591 C1594 1.463 . S
C1591 C1596 1.350 . S
C1591 N1599 1.427 . S
C1592 H1583 0.930 . S
C1592 C1590 1.378 . S
C1592 C1593 1.367 . S
C1593 C1592 1.367 . S
C1593 C1595 1.433 . S
C1594 C1590 1.350 . S
C1594 C1591 1.463 . S
C1594 N1598 1.427 . S
C1595 H1585 0.929 . S
C1595 C1593 1.433 . S
C1595 N1598 1.384 . S
C1596 H1587 0.929 . S
C1596 C1588 1.378 . S
C1596 C1591 1.350 . S
C1597 H1584 0.929 . S
C1597 C1589 1.433 . S
C1597 N1599 1.384 . S
N1598 C1594 1.427 . S
N1598 C1595 1.384 . S
N1599 C1591 1.427 . S
N1599 C1597 1.384 . S
C455 C67 1.509 . S
C459 C11 1.512 . S
C473 C81 1.511 . S
C477 C25 1.515 . S
C491 C95 1.515 . S
C495 C39 1.513 . S
C509 C53 1.514 . S
C513 C109 1.509 . S
C527 C123 1.512 . S
C531 C179 1.509 . S
C545 C193 1.515 . S
C549 C137 1.510 . S
C563 C151 1.513 . S
C567 C207 1.515 . S
C581 C221 1.510 . S
C585 C165 1.511 . S
C599 C235 1.515 . S
C603 C291 1.513 . S
C617 C305 1.510 . S
C621 C249 1.515 . S
C635 C319 1.515 . S
C639 C263 1.513 . S
C653 C333 1.509 . S
C657 C277 1.513 . S
C671 C347 1.509 . S
C675 C403 1.514 . S
C689 C361 1.515 . S
C693 C417 1.510 . S
C707 C375 1.514 . S
C711 C431 1.515 . S
C725 C389 1.514 . S
C729 C445 1.515 . S
C743 C9 1.279 1_565 S
C747 C107 1.277 . S
C761 C23 1.272 . S
C765 C65 1.274 1_545 S
C779 C37 1.271 1_545 S
C783 C79 1.272 . S
C797 C93 1.272 1_565 S
C801 C51 1.274 . S
C815 C219 1.273 . S
C819 C121 1.272 1_545 S
C833 C177 1.272 1_565 S
C837 C135 1.271 . S
C851 C191 1.279 . S
C855 C149 1.279 1_565 S
C869 C163 1.279 . S
C873 C205 1.279 1_545 S
C887 C331 1.279 . S
C891 C233 1.277 . S
C905 C289 1.279 . S
C909 C247 1.279 . S
C923 C303 1.271 . S
C927 C261 1.271 . S
C941 C275 1.271 . S
C945 C317 1.272 . S
C959 C345 1.271 . S
C963 C443 1.271 . S
C977 C359 1.271 . S
C981 C401 1.271 . S
C995 C373 1.272 . S
C999 C415 1.271 . S
C1013 C429 1.271 . S
C1017 C387 1.271 . S
C1031 C5 1.464 . S
C1035 C350 1.445 . S
C1049 C19 1.464 . S
C1053 C140 1.447 . S
C1067 C33 1.465 . S
C1071 C378 1.442 . S
C1085 C112 1.446 . S
C1089 C47 1.465 . S
C1103 C434 1.445 . S
C1107 C61 1.464 . S
C1121 C75 1.463 . S
C1125 C168 1.447 . S
C1139 C89 1.465 . S
C1143 C406 1.442 . S
C1157 C103 1.465 . S
C1161 C196 1.442 . S
C1175 C238 1.451 . S
C1179 C117 1.463 . S
C1193 C28 1.444 . S
C1197 C131 1.465 . S
C1211 C266 1.451 . S
C1215 C145 1.463 . S
C1229 C159 1.465 . S
C1233 C0 1.442 . S
C1247 C322 1.451 . S
C1251 C173 1.464 . S
C1265 C56 1.446 . S
C1269 C187 1.464 . S
C1283 C294 1.451 . S
C1287 C201 1.463 . S
C1301 C84 1.448 . S
C1305 C215 1.465 . S
C1319 C126 1.446 . S
C1323 C229 1.464 . S
C1337 C243 1.465 . S
C1341 C364 1.449 . S
C1355 C257 1.463 . S
C1359 C154 1.447 . S
C1373 C271 1.465 . S
C1377 C336 1.442 . S
C1391 C285 1.465 . S
C1395 C210 1.446 . S
C1409 C392 1.442 . S
C1413 C299 1.465 . S
C1427 C313 1.465 . S
C1431 C182 1.442 . S
C1445 C327 1.464 . S
C1449 C420 1.444 . S
C1463 C341 1.464 . S
C1467 C14 1.449 . S
C1481 C355 1.463 . S
C1485 C252 1.449 . S
C1499 C42 1.449 . S
C1503 C369 1.464 . S
C1517 C224 1.444 . S
C1521 C383 1.464 . S
C1535 C397 1.465 . S
C1539 C98 1.442 . S
C1553 C411 1.465 . S
C1557 C280 1.445 . S
C1571 C70 1.451 . S
C1575 C425 1.463 . S
C1589 C308 1.443 . S
C1593 C439 1.465 . S
