# Generated by pormake.
# Topology wld, (5)-cn, num edge types: 1
# Building blocks:
#     Node 0, Type 0, BuildingBlock: BEQFEK_clean_sbu_0, # of connection points: 5
#     Node 1, Type 0, BuildingBlock: BEQFEK_clean_sbu_0, # of connection points: 5
#     Node 2, Type 0, BuildingBlock: BEQFEK_clean_sbu_0, # of connection points: 5
#     Node 3, Type 0, BuildingBlock: BEQFEK_clean_sbu_0, # of connection points: 5
#     Node 4, Type 0, BuildingBlock: BEQFEK_clean_sbu_0, # of connection points: 5
#     Node 5, Type 0, BuildingBlock: BEQFEK_clean_sbu_0, # of connection points: 5
#     Node 6, Type 0, BuildingBlock: BEQFEK_clean_sbu_0, # of connection points: 5
#     Node 7, Type 0, BuildingBlock: BEQFEK_clean_sbu_0, # of connection points: 5
#     Node 8, Type 0, BuildingBlock: BEQFEK_clean_sbu_0, # of connection points: 5
#     Node 9, Type 0, BuildingBlock: BEQFEK_clean_sbu_0, # of connection points: 5
#     Node 10, Type 0, BuildingBlock: BEQFEK_clean_sbu_0, # of connection points: 5
#     Node 11, Type 0, BuildingBlock: BEQFEK_clean_sbu_0, # of connection points: 5
#     Edge 12, Type (0, 0), BuildingBlock: UVAHIK_clean_linker_0, # of connection points: 2
#     Edge 13, Type (0, 0), BuildingBlock: UVAHIK_clean_linker_0, # of connection points: 2
#     Edge 14, Type (0, 0), BuildingBlock: UVAHIK_clean_linker_0, # of connection points: 2
#     Edge 15, Type (0, 0), BuildingBlock: UVAHIK_clean_linker_0, # of connection points: 2
#     Edge 16, Type (0, 0), BuildingBlock: UVAHIK_clean_linker_0, # of connection points: 2
#     Edge 17, Type (0, 0), BuildingBlock: UVAHIK_clean_linker_0, # of connection points: 2
#     Edge 18, Type (0, 0), BuildingBlock: UVAHIK_clean_linker_0, # of connection points: 2
#     Edge 19, Type (0, 0), BuildingBlock: UVAHIK_clean_linker_0, # of connection points: 2
#     Edge 20, Type (0, 0), BuildingBlock: UVAHIK_clean_linker_0, # of connection points: 2
#     Edge 21, Type (0, 0), BuildingBlock: UVAHIK_clean_linker_0, # of connection points: 2
#     Edge 22, Type (0, 0), BuildingBlock: UVAHIK_clean_linker_0, # of connection points: 2
#     Edge 23, Type (0, 0), BuildingBlock: UVAHIK_clean_linker_0, # of connection points: 2
#     Edge 24, Type (0, 0), BuildingBlock: UVAHIK_clean_linker_0, # of connection points: 2
#     Edge 25, Type (0, 0), BuildingBlock: UVAHIK_clean_linker_0, # of connection points: 2
#     Edge 26, Type (0, 0), BuildingBlock: UVAHIK_clean_linker_0, # of connection points: 2
#     Edge 27, Type (0, 0), BuildingBlock: UVAHIK_clean_linker_0, # of connection points: 2
#     Edge 28, Type (0, 0), BuildingBlock: UVAHIK_clean_linker_0, # of connection points: 2
#     Edge 29, Type (0, 0), BuildingBlock: UVAHIK_clean_linker_0, # of connection points: 2
#     Edge 30, Type (0, 0), BuildingBlock: UVAHIK_clean_linker_0, # of connection points: 2
#     Edge 31, Type (0, 0), BuildingBlock: UVAHIK_clean_linker_0, # of connection points: 2
#     Edge 32, Type (0, 0), BuildingBlock: UVAHIK_clean_linker_0, # of connection points: 2
#     Edge 33, Type (0, 0), BuildingBlock: UVAHIK_clean_linker_0, # of connection points: 2
#     Edge 34, Type (0, 0), BuildingBlock: UVAHIK_clean_linker_0, # of connection points: 2
#     Edge 35, Type (0, 0), BuildingBlock: UVAHIK_clean_linker_0, # of connection points: 2
#     Edge 36, Type (0, 0), BuildingBlock: UVAHIK_clean_linker_0, # of connection points: 2
#     Edge 37, Type (0, 0), BuildingBlock: UVAHIK_clean_linker_0, # of connection points: 2
#     Edge 38, Type (0, 0), BuildingBlock: UVAHIK_clean_linker_0, # of connection points: 2
#     Edge 39, Type (0, 0), BuildingBlock: UVAHIK_clean_linker_0, # of connection points: 2
#     Edge 40, Type (0, 0), BuildingBlock: UVAHIK_clean_linker_0, # of connection points: 2
#     Edge 41, Type (0, 0), BuildingBlock: UVAHIK_clean_linker_0, # of connection points: 2
# Relax obj value: 0.299
# Max RMSD: 0.211
# Mean RMSD: 0.211
data_MOF--net-wld--node1-BEQFEK_clean_sbu_0--edge1-UVAHIK_clean_linker_0
_symmetry_space_group_name_H-M    P1
_symmetry_Int_Tables_number       1
_symmetry_cell_setting            triclinic
loop_
_symmetry_equiv_pos_as_xyz
'x, y, z'
_cell_length_a     50.023477
_cell_length_b     50.002688
_cell_length_c     52.905386
_cell_angle_alpha  89.991563
_cell_angle_beta   89.989571
_cell_angle_gamma 120.00908
loop_
_atom_site_label
_atom_site_type_symbol
_atom_site_fract_x
_atom_site_fract_y
_atom_site_fract_z
_atom_type_partial_charge
Co0 Co 0.37213 0.23644 0.11695 0.0
Co1 Co 0.39706 0.20776 0.15693 0.0
C2 C 0.43377 0.2744 0.14042 0.0
O3 O 0.41394 0.27187 0.12413 0.0
O4 O 0.42922 0.25157 0.15404 0.0
C5 C 0.36613 0.26069 0.06901 0.0
O6 O 0.39221 0.26188 0.06308 0.0
C7 C 0.44399 0.19289 0.17069 0.0
C8 C 0.42067 0.15406 0.19749 0.0
C9 C 0.44786 0.17123 0.18408 0.0
N10 N 0.41554 0.18815 0.17526 0.0
N11 N 0.40187 0.16532 0.19173 0.0
C12 C 0.4666 0.2176 0.15335 0.0
H13 H 0.47301 0.24046 0.16147 0.0
H14 H 0.4556 0.21578 0.13472 0.0
H15 H 0.48814 0.21676 0.1509 0.0
C16 C 0.36121 0.18089 0.08797 0.0
N17 N 0.37283 0.20017 0.10791 0.0
N18 N 0.38377 0.18842 0.12448 0.0
C19 C 0.38011 0.16161 0.11525 0.0
C20 C 0.36558 0.15591 0.0919 0.0
C21 C 0.3428 0.18427 0.06719 0.0
H22 H 0.32883 0.19403 0.07474 0.0
H23 H 0.35878 0.20015 0.0526 0.0
H24 H 0.32714 0.16173 0.05812 0.0
O25 O 0.34557 0.22712 0.14691 0.0
O26 O 0.36173 0.20603 0.17588 0.0
H27 H 0.37893 0.13437 0.14691 0.0
H28 H 0.38644 0.12162 0.11711 0.0
C29 C 0.39072 0.14204 0.12839 0.0
H30 H 0.41589 0.1559 0.1316 0.0
H31 H 0.37926 0.1565 0.19811 0.0
O32 O 0.35382 0.25011 0.0904 0.0
C33 C 0.34327 0.21516 0.16862 0.0
Co34 Co 0.76299 0.13542 0.11944 0.0
Co35 Co 0.79163 0.18986 0.15848 0.0
C36 C 0.7255 0.16073 0.14136 0.0
O37 O 0.72774 0.14198 0.1265 0.0
O38 O 0.74841 0.18001 0.15438 0.0
C39 C 0.73883 0.10574 0.07162 0.0
O40 O 0.73869 0.13123 0.06588 0.0
C41 C 0.80954 0.25305 0.16929 0.0
C42 C 0.83826 0.26475 0.20365 0.0
C43 C 0.82671 0.27678 0.18596 0.0
N44 N 0.81103 0.22808 0.17641 0.0
N45 N 0.82803 0.23505 0.19712 0.0
C46 C 0.7915 0.2539 0.147 0.0
H47 H 0.76992 0.25261 0.15382 0.0
H48 H 0.78555 0.23419 0.13414 0.0
H49 H 0.80473 0.27585 0.13642 0.0
C50 C 0.81915 0.17885 0.09053 0.0
N51 N 0.79966 0.17201 0.11022 0.0
N52 N 0.81187 0.19483 0.12666 0.0
C53 C 0.83938 0.21713 0.11774 0.0
C54 C 0.84481 0.20775 0.09452 0.0
C55 C 0.81534 0.15657 0.07003 0.0
H56 H 0.80499 0.13288 0.07782 0.0
H57 H 0.79982 0.15694 0.05524 0.0
H58 H 0.83779 0.16274 0.06114 0.0
O59 O 0.77193 0.11839 0.14958 0.0
O60 O 0.79178 0.15588 0.17845 0.0
H61 H 0.86302 0.24206 0.15115 0.0
H62 H 0.88279 0.26043 0.12214 0.0
C63 C 0.85994 0.24684 0.13122 0.0
H64 H 0.84899 0.26134 0.13098 0.0
H65 H 0.83292 0.2197 0.20663 0.0
O66 O 0.74888 0.10327 0.09303 0.0
C67 C 0.78309 0.12825 0.17147 0.0
Co68 Co 0.86282 0.6267 0.1181 0.0
Co69 Co 0.80951 0.60405 0.15795 0.0
C70 C 0.83748 0.56514 0.14132 0.0
O71 O 0.85557 0.58469 0.12519 0.0
O72 O 0.81959 0.57058 0.15468 0.0
C73 C 0.89666 0.6319 0.07228 0.0
O74 O 0.87506 0.60322 0.06801 0.0
C75 C 0.74496 0.56135 0.16578 0.0
C76 C 0.73463 0.57276 0.20351 0.0
C77 C 0.72142 0.55305 0.1831 0.0
N78 N 0.77084 0.58524 0.17513 0.0
N79 N 0.76462 0.59202 0.19775 0.0
C80 C 0.74346 0.54538 0.14141 0.0
H81 H 0.73204 0.52007 0.14455 0.0
H82 H 0.76681 0.55396 0.13339 0.0
H83 H 0.72944 0.54959 0.12746 0.0
C84 C 0.81871 0.63709 0.08801 0.0
N85 N 0.82634 0.62659 0.10868 0.0
N86 N 0.80481 0.61891 0.126 0.0
C87 C 0.78308 0.62489 0.11705 0.0
C88 C 0.79096 0.63619 0.09263 0.0
C89 C 0.83786 0.64798 0.0645 0.0
H90 H 0.86086 0.66795 0.06908 0.0
H91 H 0.84126 0.62918 0.0571 0.0
H92 H 0.82679 0.65464 0.04955 0.0
O93 O 0.88004 0.65307 0.14846 0.0
O94 O 0.84307 0.63812 0.17759 0.0
H95 H 0.76428 0.62814 0.15279 0.0
H96 H 0.75207 0.64178 0.12604 0.0
C97 C 0.75762 0.62403 0.13259 0.0
H98 H 0.7365 0.60115 0.13054 0.0
H99 H 0.78084 0.60954 0.20931 0.0
O100 O 0.89516 0.64577 0.09187 0.0
C101 C 0.87077 0.65586 0.17022 0.0
Co102 Co 0.23342 0.36902 0.37587 0.0
Co103 Co 0.20486 0.39646 0.33831 0.0
C104 C 0.27132 0.43233 0.3546 0.0
O105 O 0.26893 0.41074 0.36883 0.0
O106 O 0.24831 0.42947 0.34216 0.0
C107 C 0.25871 0.36318 0.42279 0.0
O108 O 0.2601 0.38945 0.42834 0.0
C109 C 0.18718 0.44217 0.32831 0.0
C110 C 0.15753 0.42503 0.29445 0.0
C111 C 0.16965 0.44873 0.31203 0.0
N112 N 0.18533 0.41558 0.32106 0.0
N113 N 0.16776 0.40547 0.30065 0.0
C114 C 0.20611 0.46124 0.3502 0.0
H115 H 0.22784 0.48099 0.34292 0.0
H116 H 0.21186 0.44733 0.36305 0.0
H117 H 0.19371 0.47079 0.36091 0.0
C118 C 0.17851 0.35723 0.40616 0.0
N119 N 0.19739 0.36959 0.38608 0.0
N120 N 0.18516 0.38084 0.37026 0.0
C121 C 0.15822 0.37627 0.37997 0.0
C122 C 0.15322 0.36127 0.40307 0.0
C123 C 0.18257 0.33853 0.42631 0.0
H124 H 0.19195 0.32457 0.41801 0.0
H125 H 0.19901 0.3543 0.44069 0.0
H126 H 0.16037 0.32279 0.43582 0.0
O127 O 0.22346 0.34338 0.34538 0.0
O128 O 0.20397 0.36256 0.31757 0.0
H129 H 0.13401 0.37874 0.3474 0.0
H130 H 0.11532 0.37738 0.37699 0.0
C131 C 0.13785 0.38632 0.36741 0.0
H132 H 0.14937 0.41182 0.36796 0.0
H133 H 0.1625 0.38514 0.29114 0.0
O134 O 0.24755 0.35031 0.40168 0.0
C135 C 0.21215 0.34299 0.32374 0.0
Co136 Co 0.62854 0.86484 0.37793 0.0
Co137 Co 0.59945 0.80787 0.34101 0.0
C138 C 0.56472 0.83967 0.35702 0.0
O139 O 0.58696 0.85911 0.37064 0.0
O140 O 0.56657 0.81868 0.34489 0.0
C141 C 0.63634 0.89665 0.42517 0.0
O142 O 0.61042 0.8719 0.43168 0.0
C143 C 0.55347 0.74515 0.32717 0.0
C144 C 0.57906 0.72966 0.30297 0.0
C145 C 0.55088 0.71955 0.31478 0.0
N146 N 0.58203 0.7691 0.32352 0.0
N147 N 0.5971 0.75989 0.3086 0.0
C148 C 0.52926 0.74726 0.34218 0.0
H149 H 0.52231 0.76176 0.3314 0.0
H150 H 0.53896 0.75874 0.36056 0.0
H151 H 0.50831 0.72453 0.34528 0.0
C152 C 0.64039 0.82179 0.40817 0.0
N153 N 0.62751 0.82812 0.38836 0.0
N154 N 0.61438 0.80386 0.37337 0.0
C155 C 0.61742 0.78088 0.38381 0.0
C156 C 0.63425 0.79157 0.40606 0.0
C157 C 0.66162 0.8454 0.42683 0.0
H158 H 0.67473 0.86832 0.41764 0.0
H159 H 0.64781 0.84695 0.44256 0.0
H160 H 0.67823 0.83908 0.4348 0.0
O161 O 0.65413 0.88003 0.34765 0.0
O162 O 0.63378 0.84096 0.32027 0.0
H163 H 0.61508 0.7496 0.35514 0.0
H164 H 0.60538 0.73274 0.38639 0.0
C165 C 0.60352 0.74893 0.37319 0.0
H166 H 0.5787 0.73989 0.36958 0.0
H167 H 0.62011 0.77382 0.30322 0.0
O168 O 0.6479 0.89788 0.40353 0.0
C169 C 0.65392 0.86864 0.32612 0.0
Co170 Co 0.13688 0.76559 0.37637 0.0
Co171 Co 0.19159 0.79495 0.33732 0.0
C172 C 0.16103 0.72791 0.35296 0.0
O173 O 0.1429 0.73006 0.36864 0.0
O174 O 0.18013 0.75109 0.34002 0.0
C175 C 0.10014 0.7323 0.41955 0.0
O176 O 0.116 0.71786 0.41865 0.0
C177 C 0.25414 0.81128 0.32517 0.0
C178 C 0.26909 0.84862 0.29695 0.0
C179 C 0.27952 0.83257 0.31145 0.0
N180 N 0.23006 0.81507 0.31965 0.0
N181 N 0.23891 0.83707 0.30243 0.0
C182 C 0.25237 0.78755 0.34347 0.0
H183 H 0.23698 0.76425 0.33554 0.0
H184 H 0.24198 0.78928 0.3615 0.0
H185 H 0.27513 0.78961 0.34706 0.0
C186 C 0.18098 0.819 0.40675 0.0
N187 N 0.17387 0.80098 0.3861 0.0
N188 N 0.19682 0.81369 0.36983 0.0
C189 C 0.21952 0.84023 0.37982 0.0
C190 C 0.2102 0.8445 0.40352 0.0
C191 C 0.15862 0.81353 0.42766 0.0
H192 H 0.13647 0.80946 0.41951 0.0
H193 H 0.15402 0.79251 0.43827 0.0
H194 H 0.16732 0.83336 0.44086 0.0
O195 O 0.12035 0.77585 0.34638 0.0
O196 O 0.15832 0.79675 0.31796 0.0
H197 H 0.24533 0.86756 0.34808 0.0
H198 H 0.26459 0.88203 0.37808 0.0
C199 C 0.24965 0.86096 0.367 0.0
H200 H 0.26241 0.84836 0.36459 0.0
H201 H 0.22475 0.84502 0.29517 0.0
O202 O 0.10555 0.75326 0.40344 0.0
C203 C 0.13064 0.78792 0.32478 0.0
Co204 Co 0.62371 0.76356 0.88081 0.0
Co205 Co 0.60416 0.79479 0.83893 0.0
C206 C 0.56262 0.72875 0.85672 0.0
O207 O 0.58116 0.72999 0.87373 0.0
O208 O 0.56954 0.75177 0.84246 0.0
C209 C 0.62769 0.72486 0.91951 0.0
O210 O 0.60006 0.70406 0.91171 0.0
C211 C 0.56146 0.81534 0.82699 0.0
C212 C 0.57748 0.84008 0.79067 0.0
C213 C 0.55491 0.83133 0.8091 0.0
N214 N 0.587 0.81495 0.8199 0.0
N215 N 0.59654 0.82969 0.7981 0.0
C216 C 0.54266 0.79904 0.84987 0.0
H217 H 0.55493 0.7906 0.86203 0.0
H218 H 0.53753 0.81467 0.86105 0.0
H219 H 0.5203 0.77917 0.84374 0.0
C220 C 0.63589 0.81952 0.90894 0.0
N221 N 0.62527 0.80112 0.88848 0.0
N222 N 0.6182 0.81496 0.87075 0.0
C223 C 0.62446 0.84295 0.87928 0.0
C224 C 0.63573 0.84669 0.90383 0.0
C225 C 0.64881 0.81228 0.93176 0.0
H226 H 0.66817 0.80882 0.92589 0.0
H227 H 0.63074 0.79036 0.94031 0.0
H228 H 0.65744 0.83097 0.94605 0.0
O229 O 0.64994 0.7696 0.85095 0.0
O230 O 0.63852 0.79355 0.82101 0.0
H231 H 0.62699 0.86603 0.84437 0.0
H232 H 0.63199 0.88911 0.87211 0.0
C233 C 0.61954 0.8655 0.86419 0.0
H234 H 0.59465 0.85807 0.86427 0.0
H235 H 0.61586 0.83252 0.78825 0.0
O236 O 0.64129 0.75131 0.9091 0.0
C237 C 0.65433 0.78163 0.82901 0.0
Co238 Co 0.24088 0.86212 0.882 0.0
Co239 Co 0.20829 0.81025 0.84125 0.0
C240 C 0.27534 0.83646 0.85612 0.0
O241 O 0.27435 0.85331 0.87368 0.0
O242 O 0.25185 0.82007 0.84242 0.0
C243 C 0.26668 0.89198 0.93018 0.0
O244 O 0.2666 0.86653 0.93651 0.0
C245 C 0.19278 0.74934 0.82446 0.0
C246 C 0.15203 0.73435 0.79994 0.0
C247 C 0.17112 0.72462 0.81045 0.0
N248 N 0.18706 0.77277 0.8223 0.0
N249 N 0.16291 0.76389 0.80731 0.0
C250 C 0.21558 0.74917 0.84274 0.0
H251 H 0.21885 0.76448 0.85903 0.0
H252 H 0.20782 0.72551 0.84984 0.0
H253 H 0.23808 0.75779 0.83304 0.0
C254 C 0.18471 0.81925 0.91127 0.0
N255 N 0.20346 0.82631 0.89104 0.0
N256 N 0.19039 0.80397 0.87426 0.0
C257 C 0.16336 0.78146 0.8837 0.0
C258 C 0.15873 0.79048 0.90739 0.0
C259 C 0.1895 0.84136 0.93221 0.0
H260 H 0.20066 0.86528 0.92482 0.0
H261 H 0.20468 0.83994 0.94677 0.0
H262 H 0.16732 0.83589 0.94124 0.0
O263 O 0.23312 0.88135 0.85271 0.0
O264 O 0.2073 0.84526 0.82376 0.0
H265 H 0.13275 0.75646 0.85332 0.0
H266 H 0.12359 0.73506 0.88269 0.0
C267 C 0.14257 0.75172 0.87039 0.0
H268 H 0.15606 0.74078 0.86447 0.0
H269 H 0.1531 0.77748 0.80297 0.0
O270 O 0.2564 0.89391 0.90872 0.0
C271 C 0.21961 0.87319 0.83139 0.0
Co272 Co 0.13552 0.37491 0.88039 0.0
Co273 Co 0.18873 0.39894 0.84038 0.0
C274 C 0.16149 0.43758 0.85852 0.0
O275 O 0.14287 0.41724 0.87391 0.0
O276 O 0.17959 0.43272 0.84498 0.0
C277 C 0.10492 0.36847 0.92828 0.0
O278 O 0.12942 0.39483 0.93432 0.0
C279 C 0.25188 0.44356 0.82926 0.0
C280 C 0.26232 0.42763 0.79365 0.0
C281 C 0.27505 0.45053 0.81191 0.0
N282 N 0.22657 0.4175 0.822 0.0
N283 N 0.2328 0.40808 0.80058 0.0
C284 C 0.25344 0.46198 0.85212 0.0
H285 H 0.25357 0.48326 0.84597 0.0
H286 H 0.23338 0.44847 0.86471 0.0
H287 H 0.27505 0.46916 0.8628 0.0
C288 C 0.17911 0.36174 0.90874 0.0
N289 N 0.17188 0.37397 0.88898 0.0
N290 N 0.19401 0.38352 0.87196 0.0
C291 C 0.21615 0.37785 0.88046 0.0
C292 C 0.20748 0.36399 0.9041 0.0
C293 C 0.1577 0.3449 0.93019 0.0
H294 H 0.13379 0.33073 0.92305 0.0
H295 H 0.1583 0.36193 0.94393 0.0
H296 H 0.1644 0.32957 0.94009 0.0
O297 O 0.11755 0.34911 0.85016 0.0
O298 O 0.15428 0.36518 0.82075 0.0
H299 H 0.2395 0.37845 0.84624 0.0
H300 H 0.25794 0.37527 0.87453 0.0
C301 C 0.24511 0.38582 0.86622 0.0
H302 H 0.26068 0.41114 0.86674 0.0
H303 H 0.217 0.38833 0.79076 0.0
O304 O 0.10358 0.35636 0.90688 0.0
C305 C 0.12667 0.34706 0.82815 0.0
Co306 Co 0.76247 0.62375 0.61611 0.0
Co307 Co 0.795 0.60433 0.65677 0.0
C308 C 0.72765 0.56347 0.64098 0.0
O309 O 0.72861 0.58181 0.62387 0.0
O310 O 0.75117 0.57023 0.65461 0.0
C311 C 0.73197 0.62801 0.57088 0.0
O312 O 0.72341 0.59882 0.5672 0.0
C313 C 0.81825 0.56278 0.66483 0.0
C314 C 0.84374 0.57761 0.70089 0.0
C315 C 0.83596 0.5565 0.68132 0.0
N316 N 0.81621 0.58679 0.67386 0.0
N317 N 0.83142 0.59559 0.69548 0.0
C318 C 0.80223 0.54551 0.64127 0.0
H319 H 0.78326 0.54975 0.63606 0.0
H320 H 0.81884 0.5536 0.62533 0.0
H321 H 0.793 0.52036 0.64383 0.0
C322 C 0.81662 0.63403 0.58575 0.0
N323 N 0.79902 0.62418 0.60672 0.0
N324 N 0.81378 0.6182 0.62439 0.0
C325 C 0.84174 0.62497 0.61543 0.0
C326 C 0.84433 0.63486 0.59058 0.0
C327 C 0.80694 0.64252 0.56171 0.0
H328 H 0.78354 0.62385 0.55647 0.0
H329 H 0.82289 0.64592 0.54589 0.0
H330 H 0.80596 0.66398 0.56467 0.0
O331 O 0.77123 0.65052 0.6461 0.0
O332 O 0.79566 0.63907 0.67558 0.0
H333 H 0.89008 0.64434 0.62427 0.0
H334 H 0.8664 0.60378 0.63044 0.0
C335 C 0.86717 0.62631 0.63132 0.0
H336 H 0.86459 0.63145 0.65125 0.0
H337 H 0.83345 0.61384 0.70649 0.0
O338 O 0.74874 0.64223 0.58978 0.0
C339 C 0.78413 0.65527 0.6677 0.0
Co340 Co 0.36935 0.13551 0.61836 0.0
Co341 Co 0.39412 0.18949 0.65776 0.0
C342 C 0.4316 0.16057 0.6405 0.0
O343 O 0.41104 0.14205 0.62524 0.0
O344 O 0.42744 0.17936 0.65375 0.0
C345 C 0.36363 0.10422 0.57126 0.0
O346 O 0.39027 0.12861 0.56562 0.0
C347 C 0.43971 0.25277 0.66778 0.0
C348 C 0.425 0.26427 0.70352 0.0
C349 C 0.44753 0.27636 0.68493 0.0
N350 N 0.41352 0.22787 0.67549 0.0
N351 N 0.40482 0.23476 0.69697 0.0
C352 C 0.45769 0.2534 0.64491 0.0
H353 H 0.47936 0.25436 0.65106 0.0
H354 H 0.44416 0.23261 0.63305 0.0
H355 H 0.46418 0.27431 0.63342 0.0
C356 C 0.35766 0.17932 0.589 0.0
N357 N 0.36938 0.17211 0.60911 0.0
N358 N 0.37917 0.19459 0.62582 0.0
C359 C 0.37411 0.21693 0.61676 0.0
C360 C 0.36048 0.20803 0.59306 0.0
C361 C 0.34074 0.1576 0.56774 0.0
H362 H 0.32621 0.13386 0.57514 0.0
H363 H 0.35772 0.15762 0.55424 0.0
H364 H 0.32577 0.16445 0.55747 0.0
O365 O 0.34363 0.11859 0.6486 0.0
O366 O 0.3596 0.15565 0.67765 0.0
H367 H 0.37519 0.2411 0.65063 0.0
H368 H 0.37181 0.25897 0.62205 0.0
C369 C 0.38235 0.24624 0.63056 0.0
H370 H 0.40767 0.26171 0.62981 0.0
H371 H 0.38521 0.21938 0.70716 0.0
O372 O 0.35078 0.10314 0.59224 0.0
C373 C 0.34132 0.12796 0.67043 0.0
Co374 Co 0.86531 0.23684 0.62044 0.0
Co375 Co 0.80777 0.20817 0.65656 0.0
C376 C 0.83989 0.27509 0.6415 0.0
O377 O 0.85943 0.2725 0.62788 0.0
O378 O 0.81871 0.25199 0.65323 0.0
C379 C 0.89699 0.26195 0.57376 0.0
O380 O 0.87189 0.2627 0.56777 0.0
C381 C 0.74437 0.1907 0.66665 0.0
C382 C 0.72905 0.15407 0.69557 0.0
C383 C 0.71878 0.16962 0.68029 0.0
N384 N 0.76848 0.18734 0.67304 0.0
N385 N 0.75936 0.16567 0.69059 0.0
C386 C 0.74659 0.21442 0.64816 0.0
H387 H 0.75662 0.23688 0.65807 0.0
H388 H 0.76226 0.21679 0.63239 0.0
H389 H 0.72392 0.20931 0.64059 0.0
C390 C 0.82324 0.18231 0.58943 0.0
N391 N 0.82893 0.20126 0.60934 0.0
N392 N 0.80459 0.18938 0.62426 0.0
C393 C 0.78232 0.16285 0.61388 0.0
C394 C 0.79345 0.15747 0.59154 0.0
C395 C 0.84715 0.18558 0.57071 0.0
H396 H 0.86997 0.19529 0.58003 0.0
H397 H 0.84871 0.20142 0.55537 0.0
H398 H 0.84118 0.16301 0.56216 0.0
O399 O 0.87983 0.22591 0.65096 0.0
O400 O 0.84017 0.20658 0.67783 0.0
H401 H 0.75291 0.13583 0.64431 0.0
H402 H 0.73609 0.12258 0.61336 0.0
C403 C 0.75083 0.14319 0.625 0.0
H404 H 0.73906 0.15688 0.62612 0.0
H405 H 0.77354 0.15818 0.6986 0.0
O406 O 0.8987 0.2513 0.59512 0.0
C407 C 0.868 0.21435 0.67232 0.0
C408 C 0.69409 0.18407 0.15578 0.0
C409 C 0.69541 0.15916 0.14484 0.0
C410 C 0.66571 0.18201 0.16074 0.0
C411 C 0.58211 0.13639 0.14518 0.0
H412 H 0.57546 0.17917 0.20385 0.0
C413 C 0.48703 0.15936 0.20224 0.0
C414 C 0.47285 0.16389 0.18111 0.0
C415 C 0.51201 0.15435 0.1991 0.0
C416 C 0.57664 0.1666 0.18763 0.0
H417 H 0.66797 0.11254 0.13046 0.0
H418 H 0.61836 0.1085 0.13982 0.0
H419 H 0.62318 0.17898 0.19605 0.0
H420 H 0.47137 0.16369 0.14019 0.0
H421 H 0.51554 0.15658 0.13462 0.0
H422 H 0.53521 0.12312 0.13723 0.0
C423 C 0.63924 0.12998 0.14402 0.0
C424 C 0.6043 0.16698 0.18287 0.0
C425 C 0.6677 0.13224 0.13869 0.0
C426 C 0.4827 0.16143 0.15684 0.0
C427 C 0.50771 0.15675 0.15367 0.0
C428 C 0.5543 0.13565 0.15013 0.0
C429 C 0.63787 0.15477 0.15529 0.0
C430 C 0.60765 0.15246 0.16128 0.0
C431 C 0.52307 0.15363 0.17474 0.0
C432 C 0.55141 0.15134 0.1711 0.0
H433 H 0.71504 0.20523 0.16057 0.0
H434 H 0.66568 0.2019 0.16878 0.0
H435 H 0.58375 0.12506 0.1283 0.0
H436 H 0.47935 0.16051 0.22115 0.0
H437 H 0.5228 0.15134 0.21576 0.0
C438 C 0.84981 0.32672 0.16295 0.0
C439 C 0.83341 0.30888 0.18389 0.0
C440 C 0.85332 0.35593 0.15918 0.0
C441 C 0.84514 0.41811 0.1905 0.0
H442 H 0.83502 0.43802 0.12156 0.0
C443 C 0.82118 0.51649 0.16576 0.0
C444 C 0.83792 0.53606 0.14557 0.0
C445 C 0.82245 0.48971 0.17062 0.0
C446 C 0.83825 0.43295 0.14086 0.0
H447 H 0.80869 0.30748 0.21782 0.0
H448 H 0.81416 0.35846 0.21112 0.0
H449 H 0.83459 0.39 0.13036 0.0
H450 H 0.86881 0.54249 0.11442 0.0
H451 H 0.87074 0.4954 0.12281 0.0
H452 H 0.84797 0.46084 0.20097 0.0
C453 C 0.82479 0.35023 0.19774 0.0
C454 C 0.83811 0.40546 0.14593 0.0
C455 C 0.82155 0.32105 0.2016 0.0
C456 C 0.85563 0.52794 0.13011 0.0
C457 C 0.85668 0.50094 0.13486 0.0
C458 C 0.84504 0.44551 0.18543 0.0
C459 C 0.84022 0.36778 0.17619 0.0
C460 C 0.84145 0.39762 0.17084 0.0
C461 C 0.84028 0.48168 0.15529 0.0
C462 C 0.84145 0.45314 0.16057 0.0
H463 H 0.85941 0.31775 0.14922 0.0
H464 H 0.86598 0.36905 0.14273 0.0
H465 H 0.84826 0.41309 0.20983 0.0
H466 H 0.80727 0.52197 0.17806 0.0
H467 H 0.80922 0.47509 0.18626 0.0
C468 C 0.67565 0.50504 0.19928 0.0
C469 C 0.68922 0.52781 0.18056 0.0
C470 C 0.64638 0.47928 0.19541 0.0
C471 C 0.59297 0.43483 0.14328 0.0
H472 H 0.53509 0.3937 0.19797 0.0
C473 C 0.47071 0.32932 0.12773 0.0
C474 C 0.46222 0.30451 0.14447 0.0
C475 C 0.49741 0.35777 0.13208 0.0
C476 C 0.55111 0.4049 0.18253 0.0
H477 H 0.68218 0.54317 0.1442 0.0
H478 H 0.63092 0.4987 0.13759 0.0
H479 H 0.58297 0.44184 0.20623 0.0
H480 H 0.47509 0.29029 0.17903 0.0
H481 H 0.52142 0.33974 0.18651 0.0
H482 H 0.56098 0.39787 0.11961 0.0
C483 C 0.64316 0.49989 0.15481 0.0
C484 C 0.57858 0.43243 0.18727 0.0
C485 C 0.67249 0.52539 0.15858 0.0
C486 C 0.48095 0.30882 0.16566 0.0
C487 C 0.5074 0.33726 0.17011 0.0
C488 C 0.56539 0.40746 0.13852 0.0
C489 C 0.63001 0.47611 0.17289 0.0
C490 C 0.60002 0.44761 0.16775 0.0
C491 C 0.51592 0.36204 0.1534 0.0
C492 C 0.54433 0.39203 0.15815 0.0
H493 H 0.68823 0.5065 0.21638 0.0
H494 H 0.63713 0.46134 0.20967 0.0
H495 H 0.60914 0.44551 0.12786 0.0
H496 H 0.45678 0.32677 0.11125 0.0
H497 H 0.50338 0.37655 0.11894 0.0
C498 C 0.14799 0.47647 0.3357 0.0
C499 C 0.16319 0.47428 0.31423 0.0
C500 C 0.1443 0.50211 0.3392 0.0
C501 C 0.14952 0.57048 0.30639 0.0
H502 H 0.16284 0.60367 0.37444 0.0
C503 C 0.17516 0.69398 0.32844 0.0
C504 C 0.15944 0.69783 0.34891 0.0
C505 C 0.17324 0.66556 0.32402 0.0
C506 C 0.1587 0.59447 0.3554 0.0
H507 H 0.18553 0.4961 0.27912 0.0
H508 H 0.17987 0.54154 0.28537 0.0
H509 H 0.16346 0.55601 0.36654 0.0
H510 H 0.12954 0.67478 0.38091 0.0
H511 H 0.12653 0.62508 0.37331 0.0
H512 H 0.14574 0.60965 0.29524 0.0
C513 C 0.17029 0.52333 0.29939 0.0
C514 C 0.15895 0.56708 0.35084 0.0
C515 C 0.17368 0.49745 0.2958 0.0
C516 C 0.14193 0.67259 0.36499 0.0
C517 C 0.14027 0.64418 0.3607 0.0
C518 C 0.14956 0.59804 0.31093 0.0
C519 C 0.15601 0.52623 0.32137 0.0
C520 C 0.15451 0.55478 0.32626 0.0
C521 C 0.1558 0.64036 0.34008 0.0
C522 C 0.15433 0.6104 0.33546 0.0
H523 H 0.13934 0.45851 0.34996 0.0
H524 H 0.13251 0.50314 0.35603 0.0
H525 H 0.1455 0.56145 0.28731 0.0
H526 H 0.18881 0.71288 0.31562 0.0
H527 H 0.18577 0.66341 0.30818 0.0
C528 C 0.51498 0.6751 0.34169 0.0
C529 C 0.5259 0.68718 0.31752 0.0
C530 C 0.48983 0.64542 0.34459 0.0
C531 C 0.44317 0.57764 0.34783 0.0
H532 H 0.37576 0.55234 0.30039 0.0
C533 C 0.32911 0.4611 0.35772 0.0
C534 C 0.30165 0.46065 0.35121 0.0
C535 C 0.35779 0.48716 0.35268 0.0
C536 C 0.39424 0.55915 0.31397 0.0
H537 H 0.52111 0.67699 0.27751 0.0
H538 H 0.47732 0.62441 0.28248 0.0
H539 H 0.42395 0.6001 0.29316 0.0
H540 H 0.28275 0.48754 0.33505 0.0
H541 H 0.33252 0.53326 0.32722 0.0
H542 H 0.41288 0.53765 0.36941 0.0
C543 C 0.48746 0.63835 0.2992 0.0
C544 C 0.42215 0.58633 0.30956 0.0
C545 C 0.51263 0.6683 0.29631 0.0
C546 C 0.30348 0.48705 0.34014 0.0
C547 C 0.33209 0.5132 0.3354 0.0
C548 C 0.41515 0.55065 0.35239 0.0
C549 C 0.47536 0.62678 0.32339 0.0
C550 C 0.44684 0.59622 0.32665 0.0
C551 C 0.35967 0.5135 0.3413 0.0
C552 C 0.39013 0.54128 0.33572 0.0
H553 H 0.52552 0.68891 0.35841 0.0
H554 H 0.48114 0.63756 0.3635 0.0
H555 H 0.46183 0.58419 0.36118 0.0
H556 H 0.32849 0.44102 0.36609 0.0
H557 H 0.37848 0.48635 0.35723 0.0
C558 C 0.50858 0.81647 0.34732 0.0
C559 C 0.53682 0.84244 0.3539 0.0
C560 C 0.4828 0.81928 0.342 0.0
C561 C 0.44966 0.87027 0.35002 0.0
H562 H 0.39617 0.81974 0.29569 0.0
C563 C 0.32999 0.84264 0.29343 0.0
C564 C 0.31191 0.84024 0.31449 0.0
C565 C 0.35995 0.8477 0.29673 0.0
C566 C 0.41106 0.83442 0.31064 0.0
H567 H 0.55996 0.89173 0.36089 0.0
H568 H 0.51487 0.89682 0.35129 0.0
H569 H 0.44351 0.81912 0.30459 0.0
H570 H 0.31164 0.84414 0.35524 0.0
H571 H 0.36327 0.85192 0.36116 0.0
H572 H 0.41731 0.88585 0.35585 0.0
C573 C 0.51263 0.87415 0.35041 0.0
C574 C 0.43801 0.83369 0.31602 0.0
C575 C 0.53845 0.87125 0.35592 0.0
C576 C 0.32484 0.84492 0.33874 0.0
C577 C 0.35463 0.84988 0.34208 0.0
C578 C 0.42274 0.87113 0.34455 0.0
C579 C 0.48462 0.84823 0.34297 0.0
C580 C 0.45729 0.85107 0.33613 0.0
C581 C 0.37238 0.85074 0.32116 0.0
C582 C 0.40278 0.85273 0.32512 0.0
H583 H 0.50632 0.79387 0.34628 0.0
H584 H 0.46137 0.79866 0.33713 0.0
H585 H 0.46393 0.88391 0.36566 0.0
H586 H 0.32062 0.83965 0.27451 0.0
H587 H 0.37322 0.84883 0.28018 0.0
C588 C 0.30667 0.821 0.82936 0.0
C589 C 0.30452 0.83668 0.85064 0.0
C590 C 0.33438 0.82211 0.82338 0.0
C591 C 0.4186 0.86757 0.83503 0.0
H592 H 0.41723 0.79401 0.80997 0.0
C593 C 0.52619 0.85356 0.83046 0.0
C594 C 0.52919 0.83767 0.80982 0.0
C595 C 0.49977 0.85604 0.83322 0.0
C596 C 0.41797 0.81488 0.81656 0.0
H597 H 0.32984 0.86548 0.88255 0.0
H598 H 0.37811 0.8669 0.87239 0.0
H599 H 0.36888 0.79213 0.82034 0.0
H600 H 0.50807 0.81321 0.7752 0.0
H601 H 0.46153 0.81752 0.77991 0.0
H602 H 0.46783 0.89007 0.83175 0.0
C603 C 0.35845 0.85422 0.86004 0.0
C604 C 0.39025 0.81381 0.82256 0.0
C605 C 0.33071 0.85322 0.86598 0.0
C606 C 0.50612 0.82556 0.79127 0.0
C607 C 0.47948 0.82781 0.79411 0.0
C608 C 0.44634 0.86859 0.82915 0.0
C609 C 0.36066 0.8388 0.83858 0.0
C610 C 0.39021 0.84009 0.83199 0.0
C611 C 0.47578 0.84254 0.8154 0.0
C612 C 0.44634 0.84221 0.81997 0.0
H613 H 0.28705 0.8082 0.81699 0.0
H614 H 0.33532 0.81032 0.80652 0.0
H615 H 0.41939 0.8884 0.84179 0.0
H616 H 0.54397 0.86336 0.84484 0.0
H617 H 0.49757 0.86738 0.84988 0.0
C618 C 0.13645 0.47017 0.86324 0.0
C619 C 0.16156 0.46703 0.85525 0.0
C620 C 0.13587 0.4974 0.85827 0.0
C621 C 0.18641 0.57973 0.8443 0.0
H622 H 0.11433 0.57552 0.81293 0.0
C623 C 0.19198 0.68903 0.80547 0.0
C624 C 0.16674 0.69319 0.81027 0.0
C625 C 0.18964 0.66036 0.8095 0.0
C626 C 0.13451 0.57712 0.82195 0.0
H627 H 0.20603 0.49027 0.83635 0.0
H628 H 0.20518 0.5377 0.82813 0.0
H629 H 0.11353 0.52786 0.82492 0.0
H630 H 0.11886 0.67065 0.82181 0.0
H631 H 0.11475 0.62042 0.82939 0.0
H632 H 0.20737 0.62874 0.84184 0.0
C633 C 0.18592 0.51915 0.83812 0.0
C634 C 0.13402 0.54982 0.82882 0.0
C635 C 0.18633 0.4919 0.84277 0.0
C636 C 0.13856 0.66783 0.81783 0.0
C637 C 0.13628 0.63912 0.82218 0.0
C638 C 0.18683 0.60693 0.83767 0.0
C639 C 0.16059 0.5221 0.8456 0.0
C640 C 0.16012 0.55089 0.83979 0.0
C641 C 0.16209 0.6353 0.81875 0.0
C642 C 0.16106 0.60603 0.82609 0.0
H643 H 0.11696 0.45137 0.8728 0.0
H644 H 0.11615 0.49918 0.86439 0.0
H645 H 0.2067 0.58126 0.85308 0.0
H646 H 0.21386 0.70827 0.79938 0.0
H647 H 0.20972 0.65807 0.80592 0.0
C648 C 0.52441 0.67371 0.86791 0.0
C649 C 0.53309 0.6997 0.85249 0.0
C650 C 0.49722 0.64594 0.863 0.0
C651 C 0.44217 0.60305 0.81199 0.0
H652 H 0.387 0.55663 0.86687 0.0
C653 C 0.31844 0.50038 0.79597 0.0
C654 C 0.30707 0.47615 0.8135 0.0
C655 C 0.34735 0.52671 0.79971 0.0
C656 C 0.40237 0.569 0.85134 0.0
H657 H 0.51966 0.71691 0.82003 0.0
H658 H 0.47235 0.66854 0.81159 0.0
H659 H 0.4345 0.60457 0.87594 0.0
H660 H 0.31717 0.45902 0.8476 0.0
H661 H 0.36798 0.50449 0.85387 0.0
H662 H 0.4101 0.56743 0.78738 0.0
C663 C 0.48674 0.66957 0.82728 0.0
C664 C 0.42956 0.59654 0.85657 0.0
C665 C 0.51377 0.69736 0.83226 0.0
C666 C 0.3255 0.47774 0.83403 0.0
C667 C 0.35442 0.50385 0.83768 0.0
C668 C 0.41503 0.57537 0.80676 0.0
C669 C 0.47826 0.64352 0.84249 0.0
C670 C 0.44968 0.61394 0.83695 0.0
C671 C 0.36538 0.52902 0.82094 0.0
C672 C 0.39475 0.55804 0.82637 0.0
H673 H 0.53875 0.67468 0.88362 0.0
H674 H 0.49136 0.62618 0.87496 0.0
H675 H 0.45745 0.61577 0.79651 0.0
H676 H 0.30439 0.49954 0.78007 0.0
H677 H 0.35496 0.54573 0.78653 0.0
C678 C 0.85081 0.52396 0.65547 0.0
C679 C 0.84415 0.53192 0.67914 0.0
C680 C 0.85508 0.49859 0.65294 0.0
C681 C 0.83636 0.42588 0.68587 0.0
H682 H 0.88482 0.41985 0.63131 0.0
C683 C 0.81748 0.30817 0.65362 0.0
C684 C 0.84276 0.3058 0.64502 0.0
C685 C 0.82048 0.33697 0.65849 0.0
C686 C 0.87149 0.42115 0.64689 0.0
H687 H 0.83983 0.52149 0.71915 0.0
H688 H 0.84857 0.47779 0.71501 0.0
H689 H 0.88805 0.46904 0.64009 0.0
H690 H 0.89115 0.33193 0.63473 0.0
H691 H 0.89679 0.38226 0.64407 0.0
H692 H 0.82073 0.37836 0.69334 0.0
C693 C 0.84904 0.49026 0.69813 0.0
C694 C 0.87299 0.44937 0.65171 0.0
C695 C 0.84435 0.5155 0.70059 0.0
C696 C 0.87113 0.33299 0.64114 0.0
C697 C 0.87432 0.36188 0.64644 0.0
C698 C 0.83525 0.39783 0.68132 0.0
C699 C 0.8536 0.48093 0.67414 0.0
C700 C 0.85489 0.45195 0.67089 0.0
C701 C 0.84905 0.36424 0.65537 0.0
C702 C 0.85222 0.39485 0.66138 0.0
H703 H 0.85239 0.53708 0.63874 0.0
H704 H 0.85845 0.49227 0.63413 0.0
H705 H 0.82183 0.42672 0.70065 0.0
H706 H 0.79527 0.28776 0.65661 0.0
H707 H 0.80023 0.33776 0.66461 0.0
C708 C 0.67276 0.52493 0.62988 0.0
C709 C 0.69849 0.53417 0.6457 0.0
C710 C 0.64504 0.49771 0.63482 0.0
C711 C 0.60114 0.44303 0.6858 0.0
H712 H 0.55704 0.38709 0.6307 0.0
C713 C 0.4973 0.31955 0.70132 0.0
C714 C 0.47383 0.30807 0.68311 0.0
C715 C 0.52402 0.34824 0.69777 0.0
C716 C 0.56875 0.40266 0.64628 0.0
H717 H 0.71523 0.52187 0.6791 0.0
H718 H 0.66686 0.47443 0.68764 0.0
H719 H 0.60508 0.4347 0.62218 0.0
H720 H 0.4584 0.31796 0.64797 0.0
H721 H 0.50454 0.3683 0.64195 0.0
H722 H 0.5647 0.41107 0.7099 0.0
C723 C 0.6681 0.4884 0.67154 0.0
C724 C 0.59636 0.42992 0.64137 0.0
C725 C 0.69588 0.51548 0.66651 0.0
C726 C 0.47659 0.32623 0.66201 0.0
C727 C 0.50307 0.35493 0.65853 0.0
C728 C 0.57337 0.41581 0.69071 0.0
C729 C 0.64237 0.47923 0.65577 0.0
C730 C 0.61289 0.45039 0.66106 0.0
C731 C 0.52749 0.36599 0.67603 0.0
C732 C 0.55682 0.39527 0.67099 0.0
H733 H 0.67393 0.53878 0.61371 0.0
H734 H 0.62553 0.49137 0.62244 0.0
H735 H 0.6132 0.45855 0.70133 0.0
H736 H 0.49555 0.30578 0.71772 0.0
H737 H 0.54241 0.35592 0.71155 0.0
C738 C 0.67361 0.15751 0.6529 0.0
C739 C 0.68658 0.16252 0.67717 0.0
C740 C 0.64457 0.15436 0.64934 0.0
C741 C 0.57091 0.13366 0.67753 0.0
H742 H 0.57162 0.1957 0.63293 0.0
C743 C 0.46137 0.13254 0.63859 0.0
C744 C 0.46046 0.15967 0.64374 0.0
C745 C 0.48826 0.13128 0.64314 0.0
C746 C 0.57114 0.17825 0.64537 0.0
H747 H 0.67829 0.16486 0.71705 0.0
H748 H 0.62663 0.15849 0.71086 0.0
H749 H 0.6194 0.19471 0.64046 0.0
H750 H 0.48709 0.20686 0.65718 0.0
H751 H 0.5344 0.20492 0.66422 0.0
H752 H 0.52238 0.11688 0.68201 0.0
C753 C 0.63948 0.1579 0.69459 0.0
C754 C 0.59833 0.17761 0.6496 0.0
C755 C 0.66889 0.16156 0.69812 0.0
C756 C 0.48711 0.18565 0.65305 0.0
C757 C 0.51414 0.18458 0.65706 0.0
C758 C 0.54348 0.13389 0.67285 0.0
C759 C 0.62757 0.15524 0.67008 0.0
C760 C 0.59848 0.1554 0.66577 0.0
C761 C 0.51485 0.15732 0.65236 0.0
C762 C 0.54348 0.15633 0.65685 0.0
H763 H 0.68628 0.15676 0.63657 0.0
H764 H 0.63555 0.15171 0.63032 0.0
H765 H 0.57055 0.11631 0.69002 0.0
H766 H 0.44111 0.11211 0.63156 0.0
H767 H 0.48841 0.11009 0.63926 0.0
C768 C 0.33783 0.09857 0.08618 0.0
C769 C 0.35489 0.12826 0.07577 0.0
C770 C 0.32873 0.07247 0.07115 0.0
C771 C 0.34585 0.04844 0.00945 0.0
H772 H 0.26782 0.97359 0.0217 0.0
C773 C 0.28784 0.94806 0.93843 0.0
C774 C 0.27811 0.91828 0.94782 0.0
C775 C 0.29821 0.9731 0.95486 0.0
C776 C 0.2898 0.99427 0.01828 0.0
H777 H 0.37468 0.15416 0.04141 0.0
H778 H 0.35758 0.10866 0.01474 0.0
H779 H 0.2829 0.01884 0.04824 0.0
H780 H 0.27137 0.89127 0.98172 0.0
H781 H 0.28889 0.93528 0.01067 0.0
H782 H 0.35194 0.024 0.97878 0.0
C783 C 0.35223 0.10536 0.03472 0.0
C784 C 0.29855 0.0202 0.0335 0.0
C785 C 0.36172 0.13146 0.04988 0.0
C786 C 0.27889 0.91401 0.974 0.0
C787 C 0.28873 0.93907 0.99052 0.0
C788 C 0.33685 0.02268 0.99401 0.0
C789 C 0.33594 0.07549 0.04521 0.0
C790 C 0.32666 0.04769 0.02922 0.0
C791 C 0.29855 0.96882 0.98103 0.0
C792 C 0.30872 0.99544 -0.00176 0.0
H793 H 0.33168 0.09553 0.10602 0.0
H794 H 0.31649 0.04996 0.08001 0.0
H795 H 0.36797 0.06886 0.00592 0.0
H796 H 0.28757 0.95206 0.91833 0.0
H797 H 0.30546 0.99579 0.94713 0.0
C798 C 0.86893 0.22754 0.05232 0.0
C799 C 0.87238 0.22381 0.07818 0.0
C800 C 0.89484 0.24258 0.03672 0.0
C801 C 0.97533 0.30092 0.03638 0.0
H802 H 0.98148 0.26062 0.97588 0.0
C803 C 0.08364 0.3578 0.97232 0.0
C804 C 0.0791 0.35242 0.94623 0.0
C805 C 0.05913 0.34167 0.98917 0.0
C806 C 0.97998 0.2725 0.99245 0.0
H807 H 0.90528 0.23138 0.10785 0.0
H808 H 0.95082 0.25916 0.08074 0.0
H809 H 0.93688 0.23344 0.00356 0.0
H810 H 0.04534 0.32675 0.91716 0.0
H811 H 0.00244 0.29985 0.94619 0.0
H812 H 0.01759 0.34049 0.02493 0.0
C813 C 0.92806 0.25055 0.07265 0.0
C814 C 0.9545 0.25677 0.00836 0.0
C815 C 0.90211 0.23492 0.08813 0.0
C816 C 0.04959 0.3311 0.93723 0.0
C817 C 0.02501 0.31547 0.95396 0.0
C818 C 0.00055 0.31694 0.02021 0.0
C819 C 0.9246 0.25446 0.04683 0.0
C820 C 0.95195 0.27089 0.03039 0.0
C821 C 0.02946 0.32025 0.98019 0.0
C822 C 0.00315 0.30299 0.99793 0.0
H823 H 0.8462 0.21901 0.04422 0.0
H824 H 0.89168 0.24539 0.01683 0.0
H825 H 0.97366 0.3123 0.05325 0.0
H826 H 0.10625 0.37396 0.97976 0.0
H827 H 0.06362 0.34567 0.00922 0.0
C828 C 0.78903 0.67631 0.06578 0.0
C829 C 0.77412 0.64647 0.07605 0.0
C830 C 0.77293 0.6859 0.05012 0.0
C831 C 0.69378 0.66713 0.03198 0.0
H832 H 0.73492 0.71497 0.97218 0.0
C833 C 0.62927 0.68761 0.95032 0.0
C834 C 0.64354 0.7172 0.9394 0.0
C835 C 0.64487 0.67998 0.96825 0.0
C836 C 0.72323 0.70194 0.98896 0.0
H837 H 0.73089 0.60337 0.07865 0.0
H838 H 0.70272 0.61978 0.05089 0.0
H839 H 0.76285 0.69971 0.00101 0.0
H840 H 0.68512 0.76224 0.93923 0.0
H841 H 0.71226 0.7489 0.97055 0.0
H842 H 0.65398 0.669 0.01959 0.0
C843 C 0.72669 0.636 0.05509 0.0
C844 C 0.73924 0.69322 0.00552 0.0
C845 C 0.74279 0.6265 0.07084 0.0
C846 C 0.67352 0.73917 0.94715 0.0
C847 C 0.68914 0.73151 0.96501 0.0
C848 C 0.67772 0.67575 0.01534 0.0
C849 C 0.74161 0.66578 0.04445 0.0
C850 C 0.7247 0.67563 0.02719 0.0
C851 C 0.6751 0.70175 0.97558 0.0
C852 C 0.69226 0.69319 0.99363 0.0
H853 H 0.81306 0.69229 0.07004 0.0
H854 H 0.78496 0.70919 0.04265 0.0
H855 H 0.68203 0.65401 0.0487 0.0
H856 H 0.6062 0.67015 0.94476 0.0
H857 H 0.63356 0.65677 0.97589 0.0
C858 C 0.91785 0.27348 0.52965 0.0
C859 C 0.92278 0.27254 0.55569 0.0
C860 C 0.94232 0.28291 0.51261 0.0
C861 C 0.02529 0.33075 0.50707 0.0
H862 H 0.01954 0.2769 0.45207 0.0
C863 C 0.13113 0.35811 0.44596 0.0
C864 C 0.12646 0.35061 0.42021 0.0
C865 C 0.10598 0.34823 0.46228 0.0
C866 C 0.02141 0.29252 0.46702 0.0
H867 H 0.95711 0.28109 0.58441 0.0
H868 H -1e-05 0.2984 0.55463 0.0
H869 H 0.97569 0.2612 0.48041 0.0
H870 H 0.09212 0.32571 0.39142 0.0
H871 H 0.04806 0.31004 0.41941 0.0
H872 H 0.07043 0.36259 0.49348 0.0
C873 C 0.97716 0.29154 0.54745 0.0
C874 C 0.99631 0.28339 0.4833 0.0
C875 C 0.95263 0.28153 0.56442 0.0
C876 C 0.09626 0.33254 0.4111 0.0
C877 C 0.07105 0.32311 0.42729 0.0
C878 C 0.05017 0.34017 0.49055 0.0
C879 C 0.97218 0.29215 0.52142 0.0
C880 C 0.99818 0.30232 0.50357 0.0
C881 C 0.07555 0.33089 0.45312 0.0
C882 C 0.04871 0.32107 0.47041 0.0
H883 H 0.89503 0.26652 0.52242 0.0
H884 H 0.93802 0.2833 0.49258 0.0
H885 H 0.02709 0.34584 0.52248 0.0
H886 H 0.15429 0.37177 0.45345 0.0
H887 H 0.11049 0.35404 0.48212 0.0
C888 C 0.64315 0.77642 0.44898 0.0
C889 C 0.64551 0.7754 0.42259 0.0
C890 C 0.65366 0.76103 0.46456 0.0
C891 C 0.66429 0.69514 0.46729 0.0
H892 H 0.72569 0.73951 0.51899 0.0
C893 C 0.71467 0.63482 0.52815 0.0
C894 C 0.72241 0.64455 0.55329 0.0
C895 C 0.70625 0.65112 0.51153 0.0
C896 C 0.70813 0.72656 0.50498 0.0
H897 H 0.66172 0.75855 0.39182 0.0
H898 H 0.67868 0.73032 0.4191 0.0
H899 H 0.70846 0.7673 0.49181 0.0
H900 H 0.72668 0.67836 0.58103 0.0
H901 H 0.71053 0.70574 0.55265 0.0
H902 H 0.66268 0.65417 0.48095 0.0
C903 C 0.66871 0.74305 0.42762 0.0
C904 C 0.69848 0.74261 0.48932 0.0
C905 C 0.65885 0.759 0.41208 0.0
C906 C 0.72115 0.67054 0.56164 0.0
C907 C 0.71212 0.6864 0.54524 0.0
C908 C 0.67341 0.67893 0.48329 0.0
C909 C 0.6662 0.74397 0.45397 0.0
C910 C 0.67652 0.72702 0.47038 0.0
C911 C 0.70477 0.67711 0.51988 0.0
C912 C 0.69545 0.69441 0.50241 0.0
H913 H 0.63288 0.78883 0.45753 0.0
H914 H 0.65146 0.76194 0.48487 0.0
H915 H 0.64714 0.68267 0.45285 0.0
H916 H 0.71571 0.61499 0.52119 0.0
H917 H 0.70132 0.64352 0.49207 0.0
C918 C 0.35471 0.08229 0.52753 0.0
C919 C 0.34847 0.07808 0.55353 0.0
C920 C 0.33969 0.05741 0.51086 0.0
C921 C 0.27216 0.97723 0.50733 0.0
H922 H 0.3145 0.97226 0.44766 0.0
C923 C 0.23017 0.86729 0.44614 0.0
C924 C 0.22635 0.87147 0.42044 0.0
C925 C 0.245 0.89276 0.46222 0.0
C926 C 0.30246 0.97351 0.46425 0.0
H927 H 0.32238 0.04455 0.58265 0.0
H928 H 0.29745 0.00099 0.55396 0.0
H929 H 0.34104 0.0162 0.47623 0.0
H930 H 0.23424 0.90522 0.39142 0.0
H931 H 0.26155 0.94997 0.41938 0.0
H932 H 0.23407 0.93374 0.49565 0.0
C933 C 0.31287 0.02357 0.54609 0.0
C934 C 0.31751 0.99875 0.48054 0.0
C935 C 0.32737 0.04853 0.56263 0.0
C936 C 0.23758 0.90149 0.41106 0.0
C937 C 0.25301 0.92699 0.427 0.0
C938 C 0.25741 0.95172 0.49132 0.0
C939 C 0.31858 0.02766 0.51993 0.0
C940 C 0.30255 0.00097 0.50233 0.0
C941 C 0.2567 0.92279 0.45271 0.0
C942 C 0.27243 0.94971 0.46966 0.0
H943 H 0.37073 0.10493 0.52002 0.0
H944 H 0.34434 0.06166 0.49084 0.0
H945 H 0.25952 0.97838 0.52351 0.0
H946 H 0.22171 0.84433 0.45375 0.0
H947 H 0.24769 0.88907 0.48202 0.0
C948 C 0.72885 0.08558 0.02728 0.0
C949 C 0.72769 0.08007 0.0534 0.0
C950 C 0.71887 0.06109 0.01016 0.0
C951 C 0.66572 0.98022 0.00218 0.0
H952 H 0.72396 0.97775 0.95524 0.0
C953 C 0.63417 0.87056 0.9448 0.0
C954 C 0.64644 0.8739 0.92044 0.0
C955 C 0.64414 0.89623 0.96055 0.0
C956 C 0.70715 0.97824 0.96781 0.0
H957 H 0.71472 0.0448 0.08219 0.0
H958 H 0.69626 0.00193 0.05222 0.0
H959 H 0.74053 0.02241 0.9828 0.0
H960 H 0.67936 0.90624 0.89357 0.0
H961 H 0.69536 0.95145 0.92023 0.0
H962 H 0.63196 0.9368 0.9869 0.0
C963 C 0.70531 0.02519 0.04507 0.0
C964 C 0.71678 0.00379 0.98367 0.0
C965 C 0.71597 0.04969 0.06214 0.0
C966 C 0.66905 0.90324 0.91212 0.0
C967 C 0.67858 0.92905 0.92762 0.0
C968 C 0.65586 0.95498 0.98596 0.0
C969 C 0.70687 0.03074 0.01899 0.0
C970 C 0.69622 0.00475 0.00114 0.0
C971 C 0.66628 0.92593 0.9521 0.0
C972 C 0.67654 0.95341 0.96876 0.0
H973 H 0.73794 0.10882 0.02009 0.0
H974 H 0.72021 0.06577 0.99007 0.0
H975 H 0.64947 0.98068 0.01547 0.0
H976 H 0.61681 0.84806 0.95164 0.0
H977 H 0.63463 0.89265 0.97944 0.0
C978 C 0.95086 0.67266 0.06318 0.0
C979 C 0.92266 0.64821 0.05455 0.0
C980 C 0.97572 0.68812 0.04667 0.0
C981 C 0.00416 0.68126 0.9831 0.0
H982 H 0.063 0.7679 0.99468 0.0
C983 C 0.10135 0.76212 0.91349 0.0
C984 C 0.13112 0.77456 0.92378 0.0
C985 C 0.07532 0.74667 0.9289 0.0
C986 C 0.04671 0.74369 0.99133 0.0
H987 H 0.89801 0.62108 0.02182 0.0
H988 H 0.94089 0.64903 0.99256 0.0
H989 H 0.01782 0.74137 0.0219 0.0
H990 H 0.1571 0.7814 0.95827 0.0
H991 H 0.1114 0.75552 0.98551 0.0
H992 H 0.03283 0.68438 0.95175 0.0
C993 C 0.94433 0.65564 0.01229 0.0
C994 C 0.02093 0.72833 0.007 0.0
C995 C 0.91964 0.63969 0.02899 0.0
C996 C 0.13441 0.77208 0.94989 0.0
C997 C 0.10838 0.75726 0.96541 0.0
C998 C 0.0296 0.69686 0.96708 0.0
C999 C 0.97281 0.68001 0.02092 0.0
C1000 C 0.99948 0.69676 0.00336 0.0
C1001 C 0.07868 0.74422 0.95497 0.0
C1002 C 0.05122 0.72806 0.97129 0.0
H1003 H 0.95392 0.67951 0.08288 0.0
H1004 H 0.99737 0.70614 0.05429 0.0
H1005 H 0.98859 0.65689 0.97986 0.0
H1006 H 0.09818 0.76448 0.89353 0.0
H1007 H 0.05257 0.73704 0.92056 0.0
C1008 C 0.23384 0.33317 0.91086 0.0
C1009 C 0.22394 0.35293 0.92043 0.0
C1010 C 0.25012 0.32348 0.9262 0.0
C1011 C 0.29325 0.34196 0.98726 0.0
H1012 H 0.28406 0.26084 0.97791 0.0
C1013 C 0.33085 0.28131 0.06021 0.0
C1014 C 0.35099 0.27156 0.05113 0.0
C1015 C 0.31652 0.29182 0.04352 0.0
C1016 C 0.28696 0.28363 0.98054 0.0
H1017 H 0.22172 0.37681 0.95374 0.0
H1018 H 0.24855 0.35861 0.98105 0.0
H1019 H 0.25549 0.27725 0.95077 0.0
H1020 H 0.37162 0.2647 0.01751 0.0
H1021 H 0.34558 0.28227 0.98812 0.0
H1022 H 0.32363 0.34746 0.01791 0.0
C1023 C 0.2452 0.35168 0.96139 0.0
C1024 C 0.27075 0.29317 0.96494 0.0
C1025 C 0.22947 0.36184 0.94587 0.0
C1026 C 0.3563 0.27223 0.025 0.0
C1027 C 0.34138 0.28211 0.00822 0.0
C1028 C 0.30892 0.33213 0.00316 0.0
C1029 C 0.25611 0.33266 0.9517 0.0
C1030 C 0.27361 0.32248 0.96811 0.0
C1031 C 0.32154 0.29216 0.01741 0.0
C1032 C 0.30587 0.3029 -7e-05 0.0
H1033 H 0.22903 0.32523 0.89146 0.0
H1034 H 0.25829 0.3091 0.9179 0.0
H1035 H 0.29673 0.36495 0.98996 0.0
H1036 H 0.32641 0.28114 0.08027 0.0
H1037 H 0.30117 0.29932 0.05098 0.0
C1038 C 0.06121 0.74162 0.44146 0.0
C1039 C 0.07571 0.7239 0.43875 0.0
C1040 C 0.03737 0.73315 0.45892 0.0
C1041 C 0.00129 0.68482 0.51569 0.0
H1042 H 0.93043 0.69138 0.49496 0.0
C1043 C 0.88614 0.62837 0.57098 0.0
C1044 C 0.87154 0.64592 0.57389 0.0
C1045 C 0.91193 0.63874 0.55529 0.0
C1046 C 0.9502 0.68973 0.50113 0.0
H1047 H 0.07688 0.68364 0.45251 0.0
H1048 H 0.03487 0.66852 0.48268 0.0
H1049 H 0.97393 0.70793 0.46622 0.0
H1050 H 0.87292 0.68851 0.56359 0.0
H1051 H 0.91778 0.70653 0.53583 0.0
H1052 H 0.97719 0.66616 0.5505 0.0
C1053 C 0.04223 0.68924 0.47157 0.0
C1054 C 0.97518 0.69927 0.48469 0.0
C1055 C 0.0662 0.69781 0.45417 0.0
C1056 C 0.88337 0.67422 0.56115 0.0
C1057 C 0.90904 0.68453 0.54536 0.0
C1058 C 0.97622 0.67514 0.53211 0.0
C1059 C 0.02736 0.70667 0.47401 0.0
C1060 C 0.00103 0.69692 0.49175 0.0
C1061 C 0.92354 0.66685 0.54219 0.0
C1062 C 0.95039 0.67748 0.52498 0.0
H1063 H 0.0682 0.76205 0.43003 0.0
H1064 H 0.02683 0.74743 0.46064 0.0
H1065 H 0.02102 0.68311 0.52188 0.0
H1066 H 0.87736 0.60643 0.5806 0.0
H1067 H 0.92241 0.62447 0.55304 0.0
C1068 C 0.33046 0.23497 0.58507 0.0
C1069 C 0.35003 0.22453 0.57615 0.0
C1070 C 0.321 0.25089 0.56906 0.0
C1071 C 0.33952 0.29167 0.50683 0.0
H1072 H 0.25857 0.28308 0.51536 0.0
C1073 C 0.27893 0.32769 0.43231 0.0
C1074 C 0.26956 0.3483 0.44094 0.0
C1075 C 0.28937 0.31361 0.44934 0.0
C1076 C 0.2813 0.28578 0.51294 0.0
H1077 H 0.37396 0.22107 0.54336 0.0
H1078 H 0.35617 0.24725 0.51491 0.0
H1079 H 0.27489 0.25538 0.5436 0.0
H1080 H 0.26327 0.37003 0.4741 0.0
H1081 H 0.28068 0.34447 0.50408 0.0
H1082 H 0.34503 0.32098 0.47532 0.0
C1083 C 0.34919 0.2446 0.53454 0.0
C1084 C 0.2908 0.27009 0.52918 0.0
C1085 C 0.35912 0.22926 0.55073 0.0
C1086 C 0.27051 0.35435 0.46696 0.0
C1087 C 0.28031 0.33969 0.48407 0.0
C1088 C 0.32972 0.3068 0.4903 0.0
C1089 C 0.33023 0.25594 0.54354 0.0
C1090 C 0.32008 0.27281 0.52636 0.0
C1091 C 0.28998 0.31938 0.47534 0.0
C1092 C 0.30057 0.30399 0.49325 0.0
H1093 H 0.32235 0.23075 0.60444 0.0
H1094 H 0.30669 0.25945 0.57684 0.0
H1095 H 0.36247 0.295 0.50435 0.0
H1096 H 0.27852 0.32269 0.41234 0.0
H1097 H 0.29659 0.29788 0.44225 0.0
C1098 C 0.76448 0.1002 0.58506 0.0
C1099 C 0.77825 0.13012 0.57487 0.0
C1100 C 0.74949 0.07441 0.56934 0.0
C1101 C 0.74741 0.0477 0.50517 0.0
H1102 H 0.66253 0.98595 0.51973 0.0
C1103 C 0.67442 0.952 0.43377 0.0
C1104 C 0.65251 0.92273 0.44288 0.0
C1105 C 0.68993 0.9768 0.45033 0.0
C1106 C 0.68638 0.00262 0.51559 0.0
H1107 H 0.78833 0.1567 0.54034 0.0
H1108 H 0.76286 0.11143 0.51264 0.0
H1109 H 0.69 0.03002 0.54796 0.0
H1110 H 0.6299 0.89629 0.4765 0.0
H1111 H 0.65781 0.93931 0.50564 0.0
H1112 H 0.7444 0.02017 0.47328 0.0
C1113 C 0.76326 0.10802 0.53283 0.0
C1114 C 0.70202 0.02794 0.53171 0.0
C1115 C 0.77777 0.13383 0.54861 0.0
C1116 C 0.6465 0.91868 0.46894 0.0
C1117 C 0.66241 0.94342 0.4856 0.0
C1118 C 0.73199 0.02214 0.48927 0.0
C1119 C 0.74872 0.07811 0.54311 0.0
C1120 C 0.73254 0.05082 0.52649 0.0
C1121 C 0.68432 0.97285 0.4765 0.0
C1122 C 0.70114 0.99941 0.49409 0.0
H1123 H 0.76535 0.09676 0.60519 0.0
H1124 H 0.73882 0.05155 0.57765 0.0
H1125 H 0.7711 0.06489 0.50095 0.0
H1126 H 0.67934 0.95588 0.41374 0.0
H1127 H 0.70603 0.99919 0.44249 0.0
C1128 C 0.22168 0.32987 0.28044 0.0
C1129 C 0.21108 0.32058 0.30518 0.0
C1130 C 0.22753 0.31084 0.26477 0.0
C1131 C 0.24605 0.24795 0.27098 0.0
H1132 H 0.24927 0.25408 0.19799 0.0
C1133 C 0.29171 0.20957 0.17631 0.0
C1134 C 0.31989 0.21435 0.186 0.0
C1135 C 0.2718 0.21466 0.19138 0.0
C1136 C 0.24799 0.25142 0.21833 0.0
H1137 H 0.19543 0.28326 0.33227 0.0
H1138 H 0.20368 0.24923 0.3045 0.0
H1139 H 0.22381 0.27638 0.22174 0.0
H1140 H 0.34882 0.22671 0.21926 0.0
H1141 H 0.31487 0.23701 0.24539 0.0
H1142 H 0.26949 0.22227 0.26754 0.0
C1143 C 0.20901 0.27169 0.29745 0.0
C1144 C 0.23378 0.26477 0.23203 0.0
C1145 C 0.20391 0.291 0.31328 0.0
C1146 C 0.32707 0.22261 0.21144 0.0
C1147 C 0.30747 0.22843 0.2264 0.0
C1148 C 0.25975 0.23411 0.25727 0.0
C1149 C 0.22226 0.28191 0.27341 0.0
C1150 C 0.23338 0.26401 0.25858 0.0
C1151 C 0.28003 0.22549 0.2163 0.0
C1152 C 0.26172 0.2364 0.23079 0.0
H1153 H 0.22764 0.35273 0.27389 0.0
H1154 H 0.23799 0.31976 0.24652 0.0
H1155 H 0.24664 0.24709 0.2914 0.0
H1156 H 0.28555 0.20288 0.15675 0.0
H1157 H 0.25048 0.21116 0.18314 0.0
C1158 C 0.77423 0.1044 0.21437 0.0
C1159 C 0.78363 0.10584 0.18921 0.0
C1160 C 0.76802 0.07887 0.22938 0.0
C1161 C 0.74561 0.99666 0.22115 0.0
H1162 H 0.74869 0.9986 0.29428 0.0
C1163 C 0.6668 0.89113 0.28273 0.0
C1164 C 0.67631 0.88955 0.30732 0.0
C1165 C 0.68577 0.91613 0.2671 0.0
C1166 C 0.74816 0.99748 0.27384 0.0
H1167 H 0.79676 0.08357 0.16062 0.0
H1168 H 0.78763 0.03999 0.18709 0.0
H1169 H 0.77355 0.04671 0.27083 0.0
H1170 H 0.71396 0.91079 0.33414 0.0
H1171 H 0.74777 0.95334 0.30648 0.0
H1172 H 0.72072 0.94741 0.22414 0.0
C1173 C 0.78363 0.05764 0.19504 0.0
C1174 C 0.76204 0.02523 0.26038 0.0
C1175 C 0.78919 0.08276 0.17994 0.0
C1176 C 0.70605 0.91172 0.31526 0.0
C1177 C 0.72525 0.93628 0.29951 0.0
C1178 C 0.7321 0.96889 0.2346 0.0
C1179 C 0.77165 0.05463 0.21957 0.0
C1180 C 0.76032 0.02523 0.23388 0.0
C1181 C 0.71479 0.93966 0.2757 0.0
C1182 C 0.73254 0.96891 0.26115 0.0
H1183 H 0.76954 0.12181 0.22185 0.0
H1184 H 0.75861 0.07734 0.24809 0.0
H1185 H 0.74338 0.99558 0.20078 0.0
H1186 H 0.64381 0.87445 0.27631 0.0
H1187 H 0.67675 0.91796 0.24899 0.0
C1188 C 0.91709 0.70727 0.17778 0.0
C1189 C 0.89372 0.67907 0.18748 0.0
C1190 C 0.94198 0.72731 0.19292 0.0
C1191 C 0.00243 0.75246 0.22025 0.0
H1192 H 0.99888 0.75171 0.29334 0.0
C1193 C 0.10771 0.77959 0.28168 0.0
C1194 C 0.10863 0.7888 0.30683 0.0
C1195 C 0.08265 0.77369 0.26625 0.0
C1196 C 0.00051 0.75294 0.27294 0.0
H1197 H 0.87715 0.6501 0.22072 0.0
H1198 H 0.92127 0.68409 0.24689 0.0
H1199 H 0.95141 0.72873 0.26932 0.0
H1200 H 0.08594 0.80194 0.33499 0.0
H1201 H 0.04333 0.79377 0.30767 0.0
H1202 H 0.05152 0.77767 0.22385 0.0
C1203 C 0.92014 0.69153 0.22791 0.0
C1204 C 0.97306 0.7391 0.25909 0.0
C1205 C 0.8948 0.67187 0.21291 0.0
C1206 C 0.08552 0.79453 0.31568 0.0
C1207 C 0.06092 0.78946 0.30008 0.0
C1208 C 0.02988 0.76691 0.23408 0.0
C1209 C 0.94454 0.71915 0.21789 0.0
C1210 C 0.97359 0.73777 0.23257 0.0
C1211 C 0.05837 0.7776 0.27552 0.0
C1212 C 0.02935 0.76649 0.26065 0.0
H1213 H 0.91654 0.71345 0.15823 0.0
H1214 H 0.95967 0.74874 0.18471 0.0
H1215 H 0.00405 0.75178 0.19989 0.0
H1216 H 0.12514 0.77473 0.27453 0.0
H1217 H 0.08155 0.76428 0.24762 0.0
C1218 C 0.77826 0.70154 0.67315 0.0
C1219 C 0.78355 0.67895 0.68405 0.0
C1220 C 0.77239 0.72082 0.68828 0.0
C1221 C 0.77293 0.74728 0.7538 0.0
H1222 H 0.69894 0.74718 0.73169 0.0
C1223 C 0.69407 0.76622 0.82128 0.0
C1224 C 0.67716 0.77983 0.81229 0.0
C1225 C 0.7131 0.76115 0.80512 0.0
C1226 C 0.72004 0.74817 0.73794 0.0
H1227 H 0.78901 0.66034 0.71943 0.0
H1228 H 0.77823 0.69389 0.74603 0.0
H1229 H 0.72216 0.72522 0.70464 0.0
H1230 H 0.66853 0.80049 0.77953 0.0
H1231 H 0.70224 0.792 0.75129 0.0
H1232 H 0.77026 0.76964 0.78744 0.0
C1233 C 0.77888 0.69678 0.72571 0.0
C1234 C 0.73335 0.73546 0.72241 0.0
C1235 C 0.78498 0.67751 0.7105 0.0
C1236 C 0.68101 0.78972 0.78701 0.0
C1237 C 0.70021 0.78471 0.77081 0.0
C1238 C 0.75968 0.76018 0.76932 0.0
C1239 C 0.77145 0.71787 0.71469 0.0
C1240 C 0.7596 0.73434 0.73034 0.0
C1241 C 0.71589 0.76967 0.77955 0.0
C1242 C 0.73266 0.76016 0.7618 0.0
H1243 H 0.77755 0.70361 0.6528 0.0
H1244 H 0.76745 0.73732 0.67924 0.0
H1245 H 0.79337 0.74707 0.76028 0.0
H1246 H 0.69186 0.75844 0.84067 0.0
H1247 H 0.72444 0.74917 0.81248 0.0
C1248 C 0.20927 0.89156 0.79007 0.0
C1249 C 0.22024 0.89759 0.81506 0.0
C1250 C 0.21343 0.91581 0.77421 0.0
C1251 C 0.23872 0.00031 0.77394 0.0
H1252 H 0.26943 0.99754 0.70734 0.0
C1253 C 0.32174 0.10745 0.71405 0.0
C1254 C 0.31788 0.10491 0.68769 0.0
C1255 C 0.30255 0.08243 0.72965 0.0
C1256 C 0.26041 0.99854 0.72572 0.0
H1257 H 0.24259 0.9337 0.84333 0.0
H1258 H 0.25055 0.97548 0.81578 0.0
H1259 H 0.24804 0.95199 0.734 0.0
H1260 H 0.28907 0.07551 0.65724 0.0
H1261 H 0.25574 0.0323 0.68437 0.0
H1262 H 0.25285 0.04765 0.76589 0.0
C1263 C 0.2383 0.95219 0.80835 0.0
C1264 C 0.24797 0.9723 0.74101 0.0
C1265 C 0.234 0.92809 0.82415 0.0
C1266 C 0.29301 0.07798 0.67746 0.0
C1267 C 0.27392 0.05317 0.69296 0.0
C1268 C 0.25151 0.02673 0.7587 0.0
C1269 C 0.22873 0.94654 0.78301 0.0
C1270 C 0.23754 0.973 0.76552 0.0
C1271 C 0.27924 0.05464 0.71908 0.0
C1272 C 0.26293 0.02621 0.73459 0.0
H1273 H 0.19836 0.86832 0.78254 0.0
H1274 H 0.20531 0.91056 0.75489 0.0
H1275 H 0.23039 0.00153 0.79256 0.0
H1276 H 0.34069 0.12792 0.72244 0.0
H1277 H 0.3072 0.08416 0.74975 0.0
C1278 C 0.08015 0.29587 0.82064 0.0
C1279 C 0.10361 0.32398 0.81087 0.0
C1280 C 0.055 0.27603 0.8057 0.0
C1281 C 0.02347 0.26335 0.73991 0.0
H1282 H 0.94522 0.22754 0.77543 0.0
C1283 C 0.91089 0.20532 0.68394 0.0
C1284 C 0.88857 0.21288 0.69143 0.0
C1285 C 0.93517 0.21076 0.70004 0.0
C1286 C 0.96682 0.23745 0.76515 0.0
H1287 H 0.12011 0.35288 0.77757 0.0
H1288 H 0.07557 0.31898 0.7516 0.0
H1289 H 0.99302 0.25375 0.79913 0.0
H1290 H 0.8729 0.23035 0.722 0.0
H1291 H 0.91593 0.24116 0.74988 0.0
H1292 H 0.99733 0.2493 0.7058 0.0
C1293 C 0.07683 0.31164 0.77059 0.0
C1294 C 0.99439 0.25211 0.77882 0.0
C1295 C 0.10239 0.3312 0.78545 0.0
C1296 C 0.88971 0.22405 0.71593 0.0
C1297 C 0.91444 0.2302 0.73189 0.0
C1298 C 0.99591 0.24914 0.72622 0.0
C1299 C 0.05233 0.28423 0.78079 0.0
C1300 C 0.02312 0.26576 0.76635 0.0
C1301 C 0.93814 0.22472 0.72375 0.0
C1302 C 0.96718 0.23646 0.73862 0.0
H1303 H 0.08079 0.28964 0.84017 0.0
H1304 H 0.03716 0.25473 0.81399 0.0
H1305 H 0.04506 0.27306 0.72965 0.0
H1306 H 0.9103 0.19644 0.66513 0.0
H1307 H 0.95234 0.20527 0.69341 0.0
loop_
_geom_bond_atom_site_label_1
_geom_bond_atom_site_label_2
_geom_bond_distance
_geom_bond_site_symmetry_2
_ccdc_geom_bond_type
Co0 O3 1.970 . S
Co0 N17 1.989 . S
Co0 O25 1.967 . S
Co0 O32 1.920 . S
Co1 O4 1.966 . S
Co1 N10 2.022 . S
Co1 N18 1.993 . S
Co1 O26 1.941 . S
C2 O3 1.258 . S
C2 O4 1.263 . S
O3 Co0 1.970 . S
O3 C2 1.258 . S
O4 Co1 1.966 . S
O4 C2 1.263 . S
C5 O6 1.235 . S
C5 O32 1.289 . S
O6 C5 1.235 . S
C7 C9 1.400 . S
C7 N10 1.351 . S
C7 C12 1.501 . S
C8 C9 1.387 . S
C8 N11 1.341 . S
C9 C7 1.400 . S
C9 C8 1.387 . S
N10 Co1 2.022 . S
N10 C7 1.351 . S
N10 N11 1.365 . S
N11 C8 1.341 . S
N11 N10 1.365 . S
N11 H31 0.862 . S
C12 C7 1.501 . S
C12 H13 0.961 . S
C12 H14 0.961 . S
C12 H15 0.960 . S
H13 C12 0.961 . S
H14 C12 0.961 . S
H15 C12 0.960 . S
C16 N17 1.342 . S
C16 C20 1.401 . S
C16 C21 1.499 . S
N17 Co0 1.989 . S
N17 C16 1.342 . S
N17 N18 1.388 . S
N18 Co1 1.993 . S
N18 N17 1.388 . S
N18 C19 1.346 . S
C19 N18 1.346 . S
C19 C20 1.396 . S
C19 C29 1.510 . S
C20 C16 1.401 . S
C20 C19 1.396 . S
C21 C16 1.499 . S
C21 H22 0.959 . S
C21 H23 0.960 . S
C21 H24 0.961 . S
H22 C21 0.959 . S
H23 C21 0.960 . S
H24 C21 0.961 . S
O25 Co0 1.967 . S
O25 C33 1.258 . S
O26 Co1 1.941 . S
O26 C33 1.266 . S
H27 C29 0.959 . S
H28 C29 0.961 . S
C29 C19 1.510 . S
C29 H27 0.959 . S
C29 H28 0.961 . S
C29 H30 0.960 . S
H30 C29 0.960 . S
H31 N11 0.862 . S
O32 Co0 1.920 . S
O32 C5 1.289 . S
C33 O25 1.258 . S
C33 O26 1.266 . S
Co34 O37 1.970 . S
Co34 N51 1.989 . S
Co34 O59 1.967 . S
Co34 O66 1.920 . S
Co35 O38 1.966 . S
Co35 N44 2.022 . S
Co35 N52 1.993 . S
Co35 O60 1.941 . S
C36 O37 1.258 . S
C36 O38 1.263 . S
O37 Co34 1.970 . S
O37 C36 1.258 . S
O38 Co35 1.966 . S
O38 C36 1.263 . S
C39 O40 1.235 . S
C39 O66 1.289 . S
O40 C39 1.235 . S
C41 C43 1.400 . S
C41 N44 1.351 . S
C41 C46 1.501 . S
C42 C43 1.387 . S
C42 N45 1.341 . S
C43 C41 1.400 . S
C43 C42 1.387 . S
N44 Co35 2.022 . S
N44 C41 1.351 . S
N44 N45 1.365 . S
N45 C42 1.341 . S
N45 N44 1.365 . S
N45 H65 0.862 . S
C46 C41 1.501 . S
C46 H47 0.961 . S
C46 H48 0.961 . S
C46 H49 0.960 . S
H47 C46 0.961 . S
H48 C46 0.961 . S
H49 C46 0.960 . S
C50 N51 1.342 . S
C50 C54 1.401 . S
C50 C55 1.499 . S
N51 Co34 1.989 . S
N51 C50 1.342 . S
N51 N52 1.388 . S
N52 Co35 1.993 . S
N52 N51 1.388 . S
N52 C53 1.346 . S
C53 N52 1.346 . S
C53 C54 1.396 . S
C53 C63 1.510 . S
C54 C50 1.401 . S
C54 C53 1.396 . S
C55 C50 1.499 . S
C55 H56 0.959 . S
C55 H57 0.960 . S
C55 H58 0.961 . S
H56 C55 0.959 . S
H57 C55 0.960 . S
H58 C55 0.961 . S
O59 Co34 1.967 . S
O59 C67 1.258 . S
O60 Co35 1.941 . S
O60 C67 1.266 . S
H61 C63 0.959 . S
H62 C63 0.961 . S
C63 C53 1.510 . S
C63 H61 0.959 . S
C63 H62 0.961 . S
C63 H64 0.960 . S
H64 C63 0.960 . S
H65 N45 0.862 . S
O66 Co34 1.920 . S
O66 C39 1.289 . S
C67 O59 1.258 . S
C67 O60 1.266 . S
Co68 O71 1.970 . S
Co68 N85 1.989 . S
Co68 O93 1.967 . S
Co68 O100 1.920 . S
Co69 O72 1.966 . S
Co69 N78 2.022 . S
Co69 N86 1.993 . S
Co69 O94 1.941 . S
C70 O71 1.258 . S
C70 O72 1.263 . S
O71 Co68 1.970 . S
O71 C70 1.258 . S
O72 Co69 1.966 . S
O72 C70 1.263 . S
C73 O74 1.235 . S
C73 O100 1.289 . S
O74 C73 1.235 . S
C75 C77 1.400 . S
C75 N78 1.351 . S
C75 C80 1.501 . S
C76 C77 1.387 . S
C76 N79 1.341 . S
C77 C75 1.400 . S
C77 C76 1.387 . S
N78 Co69 2.022 . S
N78 C75 1.351 . S
N78 N79 1.365 . S
N79 C76 1.341 . S
N79 N78 1.365 . S
N79 H99 0.862 . S
C80 C75 1.501 . S
C80 H81 0.961 . S
C80 H82 0.961 . S
C80 H83 0.960 . S
H81 C80 0.961 . S
H82 C80 0.961 . S
H83 C80 0.960 . S
C84 N85 1.342 . S
C84 C88 1.401 . S
C84 C89 1.499 . S
N85 Co68 1.989 . S
N85 C84 1.342 . S
N85 N86 1.388 . S
N86 Co69 1.993 . S
N86 N85 1.388 . S
N86 C87 1.346 . S
C87 N86 1.346 . S
C87 C88 1.396 . S
C87 C97 1.510 . S
C88 C84 1.401 . S
C88 C87 1.396 . S
C89 C84 1.499 . S
C89 H90 0.959 . S
C89 H91 0.960 . S
C89 H92 0.961 . S
H90 C89 0.959 . S
H91 C89 0.960 . S
H92 C89 0.961 . S
O93 Co68 1.967 . S
O93 C101 1.258 . S
O94 Co69 1.941 . S
O94 C101 1.266 . S
H95 C97 0.959 . S
H96 C97 0.961 . S
C97 C87 1.510 . S
C97 H95 0.959 . S
C97 H96 0.961 . S
C97 H98 0.960 . S
H98 C97 0.960 . S
H99 N79 0.862 . S
O100 Co68 1.920 . S
O100 C73 1.289 . S
C101 O93 1.258 . S
C101 O94 1.266 . S
Co102 O105 1.970 . S
Co102 N119 1.989 . S
Co102 O127 1.967 . S
Co102 O134 1.920 . S
Co103 O106 1.966 . S
Co103 N112 2.022 . S
Co103 N120 1.993 . S
Co103 O128 1.941 . S
C104 O105 1.258 . S
C104 O106 1.263 . S
O105 Co102 1.970 . S
O105 C104 1.258 . S
O106 Co103 1.966 . S
O106 C104 1.263 . S
C107 O108 1.235 . S
C107 O134 1.289 . S
O108 C107 1.235 . S
C109 C111 1.400 . S
C109 N112 1.351 . S
C109 C114 1.501 . S
C110 C111 1.387 . S
C110 N113 1.341 . S
C111 C109 1.400 . S
C111 C110 1.387 . S
N112 Co103 2.022 . S
N112 C109 1.351 . S
N112 N113 1.365 . S
N113 C110 1.341 . S
N113 N112 1.365 . S
N113 H133 0.862 . S
C114 C109 1.501 . S
C114 H115 0.961 . S
C114 H116 0.961 . S
C114 H117 0.960 . S
H115 C114 0.961 . S
H116 C114 0.961 . S
H117 C114 0.960 . S
C118 N119 1.342 . S
C118 C122 1.401 . S
C118 C123 1.499 . S
N119 Co102 1.989 . S
N119 C118 1.342 . S
N119 N120 1.388 . S
N120 Co103 1.993 . S
N120 N119 1.388 . S
N120 C121 1.346 . S
C121 N120 1.346 . S
C121 C122 1.396 . S
C121 C131 1.510 . S
C122 C118 1.401 . S
C122 C121 1.396 . S
C123 C118 1.499 . S
C123 H124 0.959 . S
C123 H125 0.960 . S
C123 H126 0.961 . S
H124 C123 0.959 . S
H125 C123 0.960 . S
H126 C123 0.961 . S
O127 Co102 1.967 . S
O127 C135 1.258 . S
O128 Co103 1.941 . S
O128 C135 1.266 . S
H129 C131 0.959 . S
H130 C131 0.961 . S
C131 C121 1.510 . S
C131 H129 0.959 . S
C131 H130 0.961 . S
C131 H132 0.960 . S
H132 C131 0.960 . S
H133 N113 0.862 . S
O134 Co102 1.920 . S
O134 C107 1.289 . S
C135 O127 1.258 . S
C135 O128 1.266 . S
Co136 O139 1.970 . S
Co136 N153 1.989 . S
Co136 O161 1.967 . S
Co136 O168 1.920 . S
Co137 O140 1.966 . S
Co137 N146 2.022 . S
Co137 N154 1.993 . S
Co137 O162 1.941 . S
C138 O139 1.258 . S
C138 O140 1.263 . S
O139 Co136 1.970 . S
O139 C138 1.258 . S
O140 Co137 1.966 . S
O140 C138 1.263 . S
C141 O142 1.235 . S
C141 O168 1.289 . S
O142 C141 1.235 . S
C143 C145 1.400 . S
C143 N146 1.351 . S
C143 C148 1.501 . S
C144 C145 1.387 . S
C144 N147 1.341 . S
C145 C143 1.400 . S
C145 C144 1.387 . S
N146 Co137 2.022 . S
N146 C143 1.351 . S
N146 N147 1.365 . S
N147 C144 1.341 . S
N147 N146 1.365 . S
N147 H167 0.862 . S
C148 C143 1.501 . S
C148 H149 0.961 . S
C148 H150 0.961 . S
C148 H151 0.960 . S
H149 C148 0.961 . S
H150 C148 0.961 . S
H151 C148 0.960 . S
C152 N153 1.342 . S
C152 C156 1.401 . S
C152 C157 1.499 . S
N153 Co136 1.989 . S
N153 C152 1.342 . S
N153 N154 1.388 . S
N154 Co137 1.993 . S
N154 N153 1.388 . S
N154 C155 1.346 . S
C155 N154 1.346 . S
C155 C156 1.396 . S
C155 C165 1.510 . S
C156 C152 1.401 . S
C156 C155 1.396 . S
C157 C152 1.499 . S
C157 H158 0.959 . S
C157 H159 0.960 . S
C157 H160 0.961 . S
H158 C157 0.959 . S
H159 C157 0.960 . S
H160 C157 0.961 . S
O161 Co136 1.967 . S
O161 C169 1.258 . S
O162 Co137 1.941 . S
O162 C169 1.266 . S
H163 C165 0.959 . S
H164 C165 0.961 . S
C165 C155 1.510 . S
C165 H163 0.959 . S
C165 H164 0.961 . S
C165 H166 0.960 . S
H166 C165 0.960 . S
H167 N147 0.862 . S
O168 Co136 1.920 . S
O168 C141 1.289 . S
C169 O161 1.258 . S
C169 O162 1.266 . S
Co170 O173 1.970 . S
Co170 N187 1.989 . S
Co170 O195 1.967 . S
Co170 O202 1.920 . S
Co171 O174 1.966 . S
Co171 N180 2.022 . S
Co171 N188 1.993 . S
Co171 O196 1.941 . S
C172 O173 1.258 . S
C172 O174 1.263 . S
O173 Co170 1.970 . S
O173 C172 1.258 . S
O174 Co171 1.966 . S
O174 C172 1.263 . S
C175 O176 1.235 . S
C175 O202 1.289 . S
O176 C175 1.235 . S
C177 C179 1.400 . S
C177 N180 1.351 . S
C177 C182 1.501 . S
C178 C179 1.387 . S
C178 N181 1.341 . S
C179 C177 1.400 . S
C179 C178 1.387 . S
N180 Co171 2.022 . S
N180 C177 1.351 . S
N180 N181 1.365 . S
N181 C178 1.341 . S
N181 N180 1.365 . S
N181 H201 0.862 . S
C182 C177 1.501 . S
C182 H183 0.961 . S
C182 H184 0.961 . S
C182 H185 0.960 . S
H183 C182 0.961 . S
H184 C182 0.961 . S
H185 C182 0.960 . S
C186 N187 1.342 . S
C186 C190 1.401 . S
C186 C191 1.499 . S
N187 Co170 1.989 . S
N187 C186 1.342 . S
N187 N188 1.388 . S
N188 Co171 1.993 . S
N188 N187 1.388 . S
N188 C189 1.346 . S
C189 N188 1.346 . S
C189 C190 1.396 . S
C189 C199 1.510 . S
C190 C186 1.401 . S
C190 C189 1.396 . S
C191 C186 1.499 . S
C191 H192 0.959 . S
C191 H193 0.960 . S
C191 H194 0.961 . S
H192 C191 0.959 . S
H193 C191 0.960 . S
H194 C191 0.961 . S
O195 Co170 1.967 . S
O195 C203 1.258 . S
O196 Co171 1.941 . S
O196 C203 1.266 . S
H197 C199 0.959 . S
H198 C199 0.961 . S
C199 C189 1.510 . S
C199 H197 0.959 . S
C199 H198 0.961 . S
C199 H200 0.960 . S
H200 C199 0.960 . S
H201 N181 0.862 . S
O202 Co170 1.920 . S
O202 C175 1.289 . S
C203 O195 1.258 . S
C203 O196 1.266 . S
Co204 O207 1.970 . S
Co204 N221 1.989 . S
Co204 O229 1.967 . S
Co204 O236 1.920 . S
Co205 O208 1.966 . S
Co205 N214 2.022 . S
Co205 N222 1.993 . S
Co205 O230 1.941 . S
C206 O207 1.258 . S
C206 O208 1.263 . S
O207 Co204 1.970 . S
O207 C206 1.258 . S
O208 Co205 1.966 . S
O208 C206 1.263 . S
C209 O210 1.235 . S
C209 O236 1.289 . S
O210 C209 1.235 . S
C211 C213 1.400 . S
C211 N214 1.351 . S
C211 C216 1.501 . S
C212 C213 1.387 . S
C212 N215 1.341 . S
C213 C211 1.400 . S
C213 C212 1.387 . S
N214 Co205 2.022 . S
N214 C211 1.351 . S
N214 N215 1.365 . S
N215 C212 1.341 . S
N215 N214 1.365 . S
N215 H235 0.862 . S
C216 C211 1.501 . S
C216 H217 0.961 . S
C216 H218 0.961 . S
C216 H219 0.960 . S
H217 C216 0.961 . S
H218 C216 0.961 . S
H219 C216 0.960 . S
C220 N221 1.342 . S
C220 C224 1.401 . S
C220 C225 1.499 . S
N221 Co204 1.989 . S
N221 C220 1.342 . S
N221 N222 1.388 . S
N222 Co205 1.993 . S
N222 N221 1.388 . S
N222 C223 1.346 . S
C223 N222 1.346 . S
C223 C224 1.396 . S
C223 C233 1.510 . S
C224 C220 1.401 . S
C224 C223 1.396 . S
C225 C220 1.499 . S
C225 H226 0.959 . S
C225 H227 0.960 . S
C225 H228 0.961 . S
H226 C225 0.959 . S
H227 C225 0.960 . S
H228 C225 0.961 . S
O229 Co204 1.967 . S
O229 C237 1.258 . S
O230 Co205 1.941 . S
O230 C237 1.266 . S
H231 C233 0.959 . S
H232 C233 0.961 . S
C233 C223 1.510 . S
C233 H231 0.959 . S
C233 H232 0.961 . S
C233 H234 0.960 . S
H234 C233 0.960 . S
H235 N215 0.862 . S
O236 Co204 1.920 . S
O236 C209 1.289 . S
C237 O229 1.258 . S
C237 O230 1.266 . S
Co238 O241 1.970 . S
Co238 N255 1.989 . S
Co238 O263 1.967 . S
Co238 O270 1.920 . S
Co239 O242 1.966 . S
Co239 N248 2.022 . S
Co239 N256 1.993 . S
Co239 O264 1.941 . S
C240 O241 1.258 . S
C240 O242 1.263 . S
O241 Co238 1.970 . S
O241 C240 1.258 . S
O242 Co239 1.966 . S
O242 C240 1.263 . S
C243 O244 1.235 . S
C243 O270 1.289 . S
O244 C243 1.235 . S
C245 C247 1.400 . S
C245 N248 1.351 . S
C245 C250 1.501 . S
C246 C247 1.387 . S
C246 N249 1.341 . S
C247 C245 1.400 . S
C247 C246 1.387 . S
N248 Co239 2.022 . S
N248 C245 1.351 . S
N248 N249 1.365 . S
N249 C246 1.341 . S
N249 N248 1.365 . S
N249 H269 0.862 . S
C250 C245 1.501 . S
C250 H251 0.961 . S
C250 H252 0.961 . S
C250 H253 0.960 . S
H251 C250 0.961 . S
H252 C250 0.961 . S
H253 C250 0.960 . S
C254 N255 1.342 . S
C254 C258 1.401 . S
C254 C259 1.499 . S
N255 Co238 1.989 . S
N255 C254 1.342 . S
N255 N256 1.388 . S
N256 Co239 1.993 . S
N256 N255 1.388 . S
N256 C257 1.346 . S
C257 N256 1.346 . S
C257 C258 1.396 . S
C257 C267 1.510 . S
C258 C254 1.401 . S
C258 C257 1.396 . S
C259 C254 1.499 . S
C259 H260 0.959 . S
C259 H261 0.960 . S
C259 H262 0.961 . S
H260 C259 0.959 . S
H261 C259 0.960 . S
H262 C259 0.961 . S
O263 Co238 1.967 . S
O263 C271 1.258 . S
O264 Co239 1.941 . S
O264 C271 1.266 . S
H265 C267 0.959 . S
H266 C267 0.961 . S
C267 C257 1.510 . S
C267 H265 0.959 . S
C267 H266 0.961 . S
C267 H268 0.960 . S
H268 C267 0.960 . S
H269 N249 0.862 . S
O270 Co238 1.920 . S
O270 C243 1.289 . S
C271 O263 1.258 . S
C271 O264 1.266 . S
Co272 O275 1.970 . S
Co272 N289 1.989 . S
Co272 O297 1.967 . S
Co272 O304 1.920 . S
Co273 O276 1.966 . S
Co273 N282 2.022 . S
Co273 N290 1.993 . S
Co273 O298 1.941 . S
C274 O275 1.258 . S
C274 O276 1.263 . S
O275 Co272 1.970 . S
O275 C274 1.258 . S
O276 Co273 1.966 . S
O276 C274 1.263 . S
C277 O278 1.235 . S
C277 O304 1.289 . S
O278 C277 1.235 . S
C279 C281 1.400 . S
C279 N282 1.351 . S
C279 C284 1.501 . S
C280 C281 1.387 . S
C280 N283 1.341 . S
C281 C279 1.400 . S
C281 C280 1.387 . S
N282 Co273 2.022 . S
N282 C279 1.351 . S
N282 N283 1.365 . S
N283 C280 1.341 . S
N283 N282 1.365 . S
N283 H303 0.862 . S
C284 C279 1.501 . S
C284 H285 0.961 . S
C284 H286 0.961 . S
C284 H287 0.960 . S
H285 C284 0.961 . S
H286 C284 0.961 . S
H287 C284 0.960 . S
C288 N289 1.342 . S
C288 C292 1.401 . S
C288 C293 1.499 . S
N289 Co272 1.989 . S
N289 C288 1.342 . S
N289 N290 1.388 . S
N290 Co273 1.993 . S
N290 N289 1.388 . S
N290 C291 1.346 . S
C291 N290 1.346 . S
C291 C292 1.396 . S
C291 C301 1.510 . S
C292 C288 1.401 . S
C292 C291 1.396 . S
C293 C288 1.499 . S
C293 H294 0.959 . S
C293 H295 0.960 . S
C293 H296 0.961 . S
H294 C293 0.959 . S
H295 C293 0.960 . S
H296 C293 0.961 . S
O297 Co272 1.967 . S
O297 C305 1.258 . S
O298 Co273 1.941 . S
O298 C305 1.266 . S
H299 C301 0.959 . S
H300 C301 0.961 . S
C301 C291 1.510 . S
C301 H299 0.959 . S
C301 H300 0.961 . S
C301 H302 0.960 . S
H302 C301 0.960 . S
H303 N283 0.862 . S
O304 Co272 1.920 . S
O304 C277 1.289 . S
C305 O297 1.258 . S
C305 O298 1.266 . S
Co306 O309 1.970 . S
Co306 N323 1.989 . S
Co306 O331 1.967 . S
Co306 O338 1.920 . S
Co307 O310 1.966 . S
Co307 N316 2.022 . S
Co307 N324 1.993 . S
Co307 O332 1.941 . S
C308 O309 1.258 . S
C308 O310 1.263 . S
O309 Co306 1.970 . S
O309 C308 1.258 . S
O310 Co307 1.966 . S
O310 C308 1.263 . S
C311 O312 1.235 . S
C311 O338 1.289 . S
O312 C311 1.235 . S
C313 C315 1.400 . S
C313 N316 1.351 . S
C313 C318 1.501 . S
C314 C315 1.387 . S
C314 N317 1.341 . S
C315 C313 1.400 . S
C315 C314 1.387 . S
N316 Co307 2.022 . S
N316 C313 1.351 . S
N316 N317 1.365 . S
N317 C314 1.341 . S
N317 N316 1.365 . S
N317 H337 0.862 . S
C318 C313 1.501 . S
C318 H319 0.961 . S
C318 H320 0.961 . S
C318 H321 0.960 . S
H319 C318 0.961 . S
H320 C318 0.961 . S
H321 C318 0.960 . S
C322 N323 1.342 . S
C322 C326 1.401 . S
C322 C327 1.499 . S
N323 Co306 1.989 . S
N323 C322 1.342 . S
N323 N324 1.388 . S
N324 Co307 1.993 . S
N324 N323 1.388 . S
N324 C325 1.346 . S
C325 N324 1.346 . S
C325 C326 1.396 . S
C325 C335 1.510 . S
C326 C322 1.401 . S
C326 C325 1.396 . S
C327 C322 1.499 . S
C327 H328 0.959 . S
C327 H329 0.960 . S
C327 H330 0.961 . S
H328 C327 0.959 . S
H329 C327 0.960 . S
H330 C327 0.961 . S
O331 Co306 1.967 . S
O331 C339 1.258 . S
O332 Co307 1.941 . S
O332 C339 1.266 . S
H333 C335 0.959 . S
H334 C335 0.961 . S
C335 C325 1.510 . S
C335 H333 0.959 . S
C335 H334 0.961 . S
C335 H336 0.960 . S
H336 C335 0.960 . S
H337 N317 0.862 . S
O338 Co306 1.920 . S
O338 C311 1.289 . S
C339 O331 1.258 . S
C339 O332 1.266 . S
Co340 O343 1.970 . S
Co340 N357 1.989 . S
Co340 O365 1.967 . S
Co340 O372 1.920 . S
Co341 O344 1.966 . S
Co341 N350 2.022 . S
Co341 N358 1.993 . S
Co341 O366 1.941 . S
C342 O343 1.258 . S
C342 O344 1.263 . S
O343 Co340 1.970 . S
O343 C342 1.258 . S
O344 Co341 1.966 . S
O344 C342 1.263 . S
C345 O346 1.235 . S
C345 O372 1.289 . S
O346 C345 1.235 . S
C347 C349 1.400 . S
C347 N350 1.351 . S
C347 C352 1.501 . S
C348 C349 1.387 . S
C348 N351 1.341 . S
C349 C347 1.400 . S
C349 C348 1.387 . S
N350 Co341 2.022 . S
N350 C347 1.351 . S
N350 N351 1.365 . S
N351 C348 1.341 . S
N351 N350 1.365 . S
N351 H371 0.862 . S
C352 C347 1.501 . S
C352 H353 0.961 . S
C352 H354 0.961 . S
C352 H355 0.960 . S
H353 C352 0.961 . S
H354 C352 0.961 . S
H355 C352 0.960 . S
C356 N357 1.342 . S
C356 C360 1.401 . S
C356 C361 1.499 . S
N357 Co340 1.989 . S
N357 C356 1.342 . S
N357 N358 1.388 . S
N358 Co341 1.993 . S
N358 N357 1.388 . S
N358 C359 1.346 . S
C359 N358 1.346 . S
C359 C360 1.396 . S
C359 C369 1.510 . S
C360 C356 1.401 . S
C360 C359 1.396 . S
C361 C356 1.499 . S
C361 H362 0.959 . S
C361 H363 0.960 . S
C361 H364 0.961 . S
H362 C361 0.959 . S
H363 C361 0.960 . S
H364 C361 0.961 . S
O365 Co340 1.967 . S
O365 C373 1.258 . S
O366 Co341 1.941 . S
O366 C373 1.266 . S
H367 C369 0.959 . S
H368 C369 0.961 . S
C369 C359 1.510 . S
C369 H367 0.959 . S
C369 H368 0.961 . S
C369 H370 0.960 . S
H370 C369 0.960 . S
H371 N351 0.862 . S
O372 Co340 1.920 . S
O372 C345 1.289 . S
C373 O365 1.258 . S
C373 O366 1.266 . S
Co374 O377 1.970 . S
Co374 N391 1.989 . S
Co374 O399 1.967 . S
Co374 O406 1.920 . S
Co375 O378 1.966 . S
Co375 N384 2.022 . S
Co375 N392 1.993 . S
Co375 O400 1.941 . S
C376 O377 1.258 . S
C376 O378 1.263 . S
O377 Co374 1.970 . S
O377 C376 1.258 . S
O378 Co375 1.966 . S
O378 C376 1.263 . S
C379 O380 1.235 . S
C379 O406 1.289 . S
O380 C379 1.235 . S
C381 C383 1.400 . S
C381 N384 1.351 . S
C381 C386 1.501 . S
C382 C383 1.387 . S
C382 N385 1.341 . S
C383 C381 1.400 . S
C383 C382 1.387 . S
N384 Co375 2.022 . S
N384 C381 1.351 . S
N384 N385 1.365 . S
N385 C382 1.341 . S
N385 N384 1.365 . S
N385 H405 0.862 . S
C386 C381 1.501 . S
C386 H387 0.961 . S
C386 H388 0.961 . S
C386 H389 0.960 . S
H387 C386 0.961 . S
H388 C386 0.961 . S
H389 C386 0.960 . S
C390 N391 1.342 . S
C390 C394 1.401 . S
C390 C395 1.499 . S
N391 Co374 1.989 . S
N391 C390 1.342 . S
N391 N392 1.388 . S
N392 Co375 1.993 . S
N392 N391 1.388 . S
N392 C393 1.346 . S
C393 N392 1.346 . S
C393 C394 1.396 . S
C393 C403 1.510 . S
C394 C390 1.401 . S
C394 C393 1.396 . S
C395 C390 1.499 . S
C395 H396 0.959 . S
C395 H397 0.960 . S
C395 H398 0.961 . S
H396 C395 0.959 . S
H397 C395 0.960 . S
H398 C395 0.961 . S
O399 Co374 1.967 . S
O399 C407 1.258 . S
O400 Co375 1.941 . S
O400 C407 1.266 . S
H401 C403 0.959 . S
H402 C403 0.961 . S
C403 C393 1.510 . S
C403 H401 0.959 . S
C403 H402 0.961 . S
C403 H404 0.960 . S
H404 C403 0.960 . S
H405 N385 0.862 . S
O406 Co374 1.920 . S
O406 C379 1.289 . S
C407 O399 1.258 . S
C407 O400 1.266 . S
C408 C409 1.349 . S
C408 C410 1.327 . S
C408 H433 0.950 . S
C409 C408 1.349 . S
C409 C425 1.349 . S
C410 C408 1.327 . S
C410 C429 1.429 . S
C410 H434 0.950 . S
C411 C428 1.574 . S
C411 C430 1.368 . S
C411 H435 0.949 . S
H412 C416 0.949 . S
C413 C414 1.349 . S
C413 C415 1.327 . S
C413 H436 0.950 . S
C414 C413 1.349 . S
C414 C426 1.349 . S
C415 C413 1.327 . S
C415 C431 1.429 . S
C415 H437 0.950 . S
C416 H412 0.949 . S
C416 C424 1.574 . S
C416 C432 1.368 . S
H417 C425 0.950 . S
H418 C423 0.950 . S
H419 C424 0.949 . S
H420 C426 0.950 . S
H421 C427 0.950 . S
H422 C428 0.949 . S
C423 H418 0.950 . S
C423 C425 1.327 . S
C423 C429 1.429 . S
C424 C416 1.574 . S
C424 H419 0.949 . S
C424 C430 1.368 . S
C425 C409 1.349 . S
C425 H417 0.950 . S
C425 C423 1.327 . S
C426 C414 1.349 . S
C426 H420 0.950 . S
C426 C427 1.327 . S
C427 H421 0.950 . S
C427 C426 1.327 . S
C427 C431 1.429 . S
C428 C411 1.574 . S
C428 H422 0.949 . S
C428 C432 1.368 . S
C429 C410 1.429 . S
C429 C423 1.429 . S
C429 C430 1.523 . S
C430 C411 1.368 . S
C430 C424 1.368 . S
C430 C429 1.523 . S
C431 C415 1.429 . S
C431 C427 1.429 . S
C431 C432 1.523 . S
C432 C416 1.368 . S
C432 C428 1.368 . S
C432 C431 1.523 . S
H433 C408 0.950 . S
H434 C410 0.950 . S
H435 C411 0.949 . S
H436 C413 0.950 . S
H437 C415 0.950 . S
C438 C439 1.349 . S
C438 C440 1.327 . S
C438 H463 0.950 . S
C439 C438 1.349 . S
C439 C455 1.349 . S
C440 C438 1.327 . S
C440 C459 1.429 . S
C440 H464 0.950 . S
C441 C458 1.574 . S
C441 C460 1.368 . S
C441 H465 0.949 . S
H442 C446 0.949 . S
C443 C444 1.349 . S
C443 C445 1.327 . S
C443 H466 0.950 . S
C444 C443 1.349 . S
C444 C456 1.349 . S
C445 C443 1.327 . S
C445 C461 1.429 . S
C445 H467 0.950 . S
C446 H442 0.949 . S
C446 C454 1.574 . S
C446 C462 1.368 . S
H447 C455 0.950 . S
H448 C453 0.950 . S
H449 C454 0.949 . S
H450 C456 0.950 . S
H451 C457 0.950 . S
H452 C458 0.949 . S
C453 H448 0.950 . S
C453 C455 1.327 . S
C453 C459 1.429 . S
C454 C446 1.574 . S
C454 H449 0.949 . S
C454 C460 1.368 . S
C455 C439 1.349 . S
C455 H447 0.950 . S
C455 C453 1.327 . S
C456 C444 1.349 . S
C456 H450 0.950 . S
C456 C457 1.327 . S
C457 H451 0.950 . S
C457 C456 1.327 . S
C457 C461 1.429 . S
C458 C441 1.574 . S
C458 H452 0.949 . S
C458 C462 1.368 . S
C459 C440 1.429 . S
C459 C453 1.429 . S
C459 C460 1.523 . S
C460 C441 1.368 . S
C460 C454 1.368 . S
C460 C459 1.523 . S
C461 C445 1.429 . S
C461 C457 1.429 . S
C461 C462 1.523 . S
C462 C446 1.368 . S
C462 C458 1.368 . S
C462 C461 1.523 . S
H463 C438 0.950 . S
H464 C440 0.950 . S
H465 C441 0.949 . S
H466 C443 0.950 . S
H467 C445 0.950 . S
C468 C469 1.349 . S
C468 C470 1.327 . S
C468 H493 0.950 . S
C469 C468 1.349 . S
C469 C485 1.349 . S
C470 C468 1.327 . S
C470 C489 1.429 . S
C470 H494 0.950 . S
C471 C488 1.574 . S
C471 C490 1.368 . S
C471 H495 0.949 . S
H472 C476 0.949 . S
C473 C474 1.349 . S
C473 C475 1.327 . S
C473 H496 0.950 . S
C474 C473 1.349 . S
C474 C486 1.349 . S
C475 C473 1.327 . S
C475 C491 1.429 . S
C475 H497 0.950 . S
C476 H472 0.949 . S
C476 C484 1.574 . S
C476 C492 1.368 . S
H477 C485 0.950 . S
H478 C483 0.950 . S
H479 C484 0.949 . S
H480 C486 0.950 . S
H481 C487 0.950 . S
H482 C488 0.949 . S
C483 H478 0.950 . S
C483 C485 1.327 . S
C483 C489 1.429 . S
C484 C476 1.574 . S
C484 H479 0.949 . S
C484 C490 1.368 . S
C485 C469 1.349 . S
C485 H477 0.950 . S
C485 C483 1.327 . S
C486 C474 1.349 . S
C486 H480 0.950 . S
C486 C487 1.327 . S
C487 H481 0.950 . S
C487 C486 1.327 . S
C487 C491 1.429 . S
C488 C471 1.574 . S
C488 H482 0.949 . S
C488 C492 1.368 . S
C489 C470 1.429 . S
C489 C483 1.429 . S
C489 C490 1.523 . S
C490 C471 1.368 . S
C490 C484 1.368 . S
C490 C489 1.523 . S
C491 C475 1.429 . S
C491 C487 1.429 . S
C491 C492 1.523 . S
C492 C476 1.368 . S
C492 C488 1.368 . S
C492 C491 1.523 . S
H493 C468 0.950 . S
H494 C470 0.950 . S
H495 C471 0.949 . S
H496 C473 0.950 . S
H497 C475 0.950 . S
C498 C499 1.349 . S
C498 C500 1.327 . S
C498 H523 0.950 . S
C499 C498 1.349 . S
C499 C515 1.349 . S
C500 C498 1.327 . S
C500 C519 1.429 . S
C500 H524 0.950 . S
C501 C518 1.574 . S
C501 C520 1.368 . S
C501 H525 0.949 . S
H502 C506 0.949 . S
C503 C504 1.349 . S
C503 C505 1.327 . S
C503 H526 0.950 . S
C504 C503 1.349 . S
C504 C516 1.349 . S
C505 C503 1.327 . S
C505 C521 1.429 . S
C505 H527 0.950 . S
C506 H502 0.949 . S
C506 C514 1.574 . S
C506 C522 1.368 . S
H507 C515 0.950 . S
H508 C513 0.950 . S
H509 C514 0.949 . S
H510 C516 0.950 . S
H511 C517 0.950 . S
H512 C518 0.949 . S
C513 H508 0.950 . S
C513 C515 1.327 . S
C513 C519 1.429 . S
C514 C506 1.574 . S
C514 H509 0.949 . S
C514 C520 1.368 . S
C515 C499 1.349 . S
C515 H507 0.950 . S
C515 C513 1.327 . S
C516 C504 1.349 . S
C516 H510 0.950 . S
C516 C517 1.327 . S
C517 H511 0.950 . S
C517 C516 1.327 . S
C517 C521 1.429 . S
C518 C501 1.574 . S
C518 H512 0.949 . S
C518 C522 1.368 . S
C519 C500 1.429 . S
C519 C513 1.429 . S
C519 C520 1.523 . S
C520 C501 1.368 . S
C520 C514 1.368 . S
C520 C519 1.523 . S
C521 C505 1.429 . S
C521 C517 1.429 . S
C521 C522 1.523 . S
C522 C506 1.368 . S
C522 C518 1.368 . S
C522 C521 1.523 . S
H523 C498 0.950 . S
H524 C500 0.950 . S
H525 C501 0.949 . S
H526 C503 0.950 . S
H527 C505 0.950 . S
C528 C529 1.349 . S
C528 C530 1.327 . S
C528 H553 0.950 . S
C529 C528 1.349 . S
C529 C545 1.349 . S
C530 C528 1.327 . S
C530 C549 1.429 . S
C530 H554 0.950 . S
C531 C548 1.574 . S
C531 C550 1.368 . S
C531 H555 0.949 . S
H532 C536 0.949 . S
C533 C534 1.349 . S
C533 C535 1.327 . S
C533 H556 0.950 . S
C534 C533 1.349 . S
C534 C546 1.349 . S
C535 C533 1.327 . S
C535 C551 1.429 . S
C535 H557 0.950 . S
C536 H532 0.949 . S
C536 C544 1.574 . S
C536 C552 1.368 . S
H537 C545 0.950 . S
H538 C543 0.950 . S
H539 C544 0.949 . S
H540 C546 0.950 . S
H541 C547 0.950 . S
H542 C548 0.949 . S
C543 H538 0.950 . S
C543 C545 1.327 . S
C543 C549 1.429 . S
C544 C536 1.574 . S
C544 H539 0.949 . S
C544 C550 1.368 . S
C545 C529 1.349 . S
C545 H537 0.950 . S
C545 C543 1.327 . S
C546 C534 1.349 . S
C546 H540 0.950 . S
C546 C547 1.327 . S
C547 H541 0.950 . S
C547 C546 1.327 . S
C547 C551 1.429 . S
C548 C531 1.574 . S
C548 H542 0.949 . S
C548 C552 1.368 . S
C549 C530 1.429 . S
C549 C543 1.429 . S
C549 C550 1.523 . S
C550 C531 1.368 . S
C550 C544 1.368 . S
C550 C549 1.523 . S
C551 C535 1.429 . S
C551 C547 1.429 . S
C551 C552 1.523 . S
C552 C536 1.368 . S
C552 C548 1.368 . S
C552 C551 1.523 . S
H553 C528 0.950 . S
H554 C530 0.950 . S
H555 C531 0.949 . S
H556 C533 0.950 . S
H557 C535 0.950 . S
C558 C559 1.349 . S
C558 C560 1.327 . S
C558 H583 0.950 . S
C559 C558 1.349 . S
C559 C575 1.349 . S
C560 C558 1.327 . S
C560 C579 1.429 . S
C560 H584 0.950 . S
C561 C578 1.574 . S
C561 C580 1.368 . S
C561 H585 0.949 . S
H562 C566 0.949 . S
C563 C564 1.349 . S
C563 C565 1.327 . S
C563 H586 0.950 . S
C564 C563 1.349 . S
C564 C576 1.349 . S
C565 C563 1.327 . S
C565 C581 1.429 . S
C565 H587 0.950 . S
C566 H562 0.949 . S
C566 C574 1.574 . S
C566 C582 1.368 . S
H567 C575 0.950 . S
H568 C573 0.950 . S
H569 C574 0.949 . S
H570 C576 0.950 . S
H571 C577 0.950 . S
H572 C578 0.949 . S
C573 H568 0.950 . S
C573 C575 1.327 . S
C573 C579 1.429 . S
C574 C566 1.574 . S
C574 H569 0.949 . S
C574 C580 1.368 . S
C575 C559 1.349 . S
C575 H567 0.950 . S
C575 C573 1.327 . S
C576 C564 1.349 . S
C576 H570 0.950 . S
C576 C577 1.327 . S
C577 H571 0.950 . S
C577 C576 1.327 . S
C577 C581 1.429 . S
C578 C561 1.574 . S
C578 H572 0.949 . S
C578 C582 1.368 . S
C579 C560 1.429 . S
C579 C573 1.429 . S
C579 C580 1.523 . S
C580 C561 1.368 . S
C580 C574 1.368 . S
C580 C579 1.523 . S
C581 C565 1.429 . S
C581 C577 1.429 . S
C581 C582 1.523 . S
C582 C566 1.368 . S
C582 C578 1.368 . S
C582 C581 1.523 . S
H583 C558 0.950 . S
H584 C560 0.950 . S
H585 C561 0.949 . S
H586 C563 0.950 . S
H587 C565 0.950 . S
C588 C589 1.349 . S
C588 C590 1.327 . S
C588 H613 0.950 . S
C589 C588 1.349 . S
C589 C605 1.349 . S
C590 C588 1.327 . S
C590 C609 1.429 . S
C590 H614 0.950 . S
C591 C608 1.574 . S
C591 C610 1.368 . S
C591 H615 0.949 . S
H592 C596 0.949 . S
C593 C594 1.349 . S
C593 C595 1.327 . S
C593 H616 0.950 . S
C594 C593 1.349 . S
C594 C606 1.349 . S
C595 C593 1.327 . S
C595 C611 1.429 . S
C595 H617 0.950 . S
C596 H592 0.949 . S
C596 C604 1.574 . S
C596 C612 1.368 . S
H597 C605 0.950 . S
H598 C603 0.950 . S
H599 C604 0.949 . S
H600 C606 0.950 . S
H601 C607 0.950 . S
H602 C608 0.949 . S
C603 H598 0.950 . S
C603 C605 1.327 . S
C603 C609 1.429 . S
C604 C596 1.574 . S
C604 H599 0.949 . S
C604 C610 1.368 . S
C605 C589 1.349 . S
C605 H597 0.950 . S
C605 C603 1.327 . S
C606 C594 1.349 . S
C606 H600 0.950 . S
C606 C607 1.327 . S
C607 H601 0.950 . S
C607 C606 1.327 . S
C607 C611 1.429 . S
C608 C591 1.574 . S
C608 H602 0.949 . S
C608 C612 1.368 . S
C609 C590 1.429 . S
C609 C603 1.429 . S
C609 C610 1.523 . S
C610 C591 1.368 . S
C610 C604 1.368 . S
C610 C609 1.523 . S
C611 C595 1.429 . S
C611 C607 1.429 . S
C611 C612 1.523 . S
C612 C596 1.368 . S
C612 C608 1.368 . S
C612 C611 1.523 . S
H613 C588 0.950 . S
H614 C590 0.950 . S
H615 C591 0.949 . S
H616 C593 0.950 . S
H617 C595 0.950 . S
C618 C619 1.349 . S
C618 C620 1.327 . S
C618 H643 0.950 . S
C619 C618 1.349 . S
C619 C635 1.349 . S
C620 C618 1.327 . S
C620 C639 1.429 . S
C620 H644 0.950 . S
C621 C638 1.574 . S
C621 C640 1.368 . S
C621 H645 0.949 . S
H622 C626 0.949 . S
C623 C624 1.349 . S
C623 C625 1.327 . S
C623 H646 0.950 . S
C624 C623 1.349 . S
C624 C636 1.349 . S
C625 C623 1.327 . S
C625 C641 1.429 . S
C625 H647 0.950 . S
C626 H622 0.949 . S
C626 C634 1.574 . S
C626 C642 1.368 . S
H627 C635 0.950 . S
H628 C633 0.950 . S
H629 C634 0.949 . S
H630 C636 0.950 . S
H631 C637 0.950 . S
H632 C638 0.949 . S
C633 H628 0.950 . S
C633 C635 1.327 . S
C633 C639 1.429 . S
C634 C626 1.574 . S
C634 H629 0.949 . S
C634 C640 1.368 . S
C635 C619 1.349 . S
C635 H627 0.950 . S
C635 C633 1.327 . S
C636 C624 1.349 . S
C636 H630 0.950 . S
C636 C637 1.327 . S
C637 H631 0.950 . S
C637 C636 1.327 . S
C637 C641 1.429 . S
C638 C621 1.574 . S
C638 H632 0.949 . S
C638 C642 1.368 . S
C639 C620 1.429 . S
C639 C633 1.429 . S
C639 C640 1.523 . S
C640 C621 1.368 . S
C640 C634 1.368 . S
C640 C639 1.523 . S
C641 C625 1.429 . S
C641 C637 1.429 . S
C641 C642 1.523 . S
C642 C626 1.368 . S
C642 C638 1.368 . S
C642 C641 1.523 . S
H643 C618 0.950 . S
H644 C620 0.950 . S
H645 C621 0.949 . S
H646 C623 0.950 . S
H647 C625 0.950 . S
C648 C649 1.349 . S
C648 C650 1.327 . S
C648 H673 0.950 . S
C649 C648 1.349 . S
C649 C665 1.349 . S
C650 C648 1.327 . S
C650 C669 1.429 . S
C650 H674 0.950 . S
C651 C668 1.574 . S
C651 C670 1.368 . S
C651 H675 0.949 . S
H652 C656 0.949 . S
C653 C654 1.349 . S
C653 C655 1.327 . S
C653 H676 0.950 . S
C654 C653 1.349 . S
C654 C666 1.349 . S
C655 C653 1.327 . S
C655 C671 1.429 . S
C655 H677 0.950 . S
C656 H652 0.949 . S
C656 C664 1.574 . S
C656 C672 1.368 . S
H657 C665 0.950 . S
H658 C663 0.950 . S
H659 C664 0.949 . S
H660 C666 0.950 . S
H661 C667 0.950 . S
H662 C668 0.949 . S
C663 H658 0.950 . S
C663 C665 1.327 . S
C663 C669 1.429 . S
C664 C656 1.574 . S
C664 H659 0.949 . S
C664 C670 1.368 . S
C665 C649 1.349 . S
C665 H657 0.950 . S
C665 C663 1.327 . S
C666 C654 1.349 . S
C666 H660 0.950 . S
C666 C667 1.327 . S
C667 H661 0.950 . S
C667 C666 1.327 . S
C667 C671 1.429 . S
C668 C651 1.574 . S
C668 H662 0.949 . S
C668 C672 1.368 . S
C669 C650 1.429 . S
C669 C663 1.429 . S
C669 C670 1.523 . S
C670 C651 1.368 . S
C670 C664 1.368 . S
C670 C669 1.523 . S
C671 C655 1.429 . S
C671 C667 1.429 . S
C671 C672 1.523 . S
C672 C656 1.368 . S
C672 C668 1.368 . S
C672 C671 1.523 . S
H673 C648 0.950 . S
H674 C650 0.950 . S
H675 C651 0.949 . S
H676 C653 0.950 . S
H677 C655 0.950 . S
C678 C679 1.349 . S
C678 C680 1.327 . S
C678 H703 0.950 . S
C679 C678 1.349 . S
C679 C695 1.349 . S
C680 C678 1.327 . S
C680 C699 1.429 . S
C680 H704 0.950 . S
C681 C698 1.574 . S
C681 C700 1.368 . S
C681 H705 0.949 . S
H682 C686 0.949 . S
C683 C684 1.349 . S
C683 C685 1.327 . S
C683 H706 0.950 . S
C684 C683 1.349 . S
C684 C696 1.349 . S
C685 C683 1.327 . S
C685 C701 1.429 . S
C685 H707 0.950 . S
C686 H682 0.949 . S
C686 C694 1.574 . S
C686 C702 1.368 . S
H687 C695 0.950 . S
H688 C693 0.950 . S
H689 C694 0.949 . S
H690 C696 0.950 . S
H691 C697 0.950 . S
H692 C698 0.949 . S
C693 H688 0.950 . S
C693 C695 1.327 . S
C693 C699 1.429 . S
C694 C686 1.574 . S
C694 H689 0.949 . S
C694 C700 1.368 . S
C695 C679 1.349 . S
C695 H687 0.950 . S
C695 C693 1.327 . S
C696 C684 1.349 . S
C696 H690 0.950 . S
C696 C697 1.327 . S
C697 H691 0.950 . S
C697 C696 1.327 . S
C697 C701 1.429 . S
C698 C681 1.574 . S
C698 H692 0.949 . S
C698 C702 1.368 . S
C699 C680 1.429 . S
C699 C693 1.429 . S
C699 C700 1.523 . S
C700 C681 1.368 . S
C700 C694 1.368 . S
C700 C699 1.523 . S
C701 C685 1.429 . S
C701 C697 1.429 . S
C701 C702 1.523 . S
C702 C686 1.368 . S
C702 C698 1.368 . S
C702 C701 1.523 . S
H703 C678 0.950 . S
H704 C680 0.950 . S
H705 C681 0.949 . S
H706 C683 0.950 . S
H707 C685 0.950 . S
C708 C709 1.349 . S
C708 C710 1.327 . S
C708 H733 0.950 . S
C709 C708 1.349 . S
C709 C725 1.349 . S
C710 C708 1.327 . S
C710 C729 1.429 . S
C710 H734 0.950 . S
C711 C728 1.574 . S
C711 C730 1.368 . S
C711 H735 0.949 . S
H712 C716 0.949 . S
C713 C714 1.349 . S
C713 C715 1.327 . S
C713 H736 0.950 . S
C714 C713 1.349 . S
C714 C726 1.349 . S
C715 C713 1.327 . S
C715 C731 1.429 . S
C715 H737 0.950 . S
C716 H712 0.949 . S
C716 C724 1.574 . S
C716 C732 1.368 . S
H717 C725 0.950 . S
H718 C723 0.950 . S
H719 C724 0.949 . S
H720 C726 0.950 . S
H721 C727 0.950 . S
H722 C728 0.949 . S
C723 H718 0.950 . S
C723 C725 1.327 . S
C723 C729 1.429 . S
C724 C716 1.574 . S
C724 H719 0.949 . S
C724 C730 1.368 . S
C725 C709 1.349 . S
C725 H717 0.950 . S
C725 C723 1.327 . S
C726 C714 1.349 . S
C726 H720 0.950 . S
C726 C727 1.327 . S
C727 H721 0.950 . S
C727 C726 1.327 . S
C727 C731 1.429 . S
C728 C711 1.574 . S
C728 H722 0.949 . S
C728 C732 1.368 . S
C729 C710 1.429 . S
C729 C723 1.429 . S
C729 C730 1.523 . S
C730 C711 1.368 . S
C730 C724 1.368 . S
C730 C729 1.523 . S
C731 C715 1.429 . S
C731 C727 1.429 . S
C731 C732 1.523 . S
C732 C716 1.368 . S
C732 C728 1.368 . S
C732 C731 1.523 . S
H733 C708 0.950 . S
H734 C710 0.950 . S
H735 C711 0.949 . S
H736 C713 0.950 . S
H737 C715 0.950 . S
C738 C739 1.349 . S
C738 C740 1.327 . S
C738 H763 0.950 . S
C739 C738 1.349 . S
C739 C755 1.349 . S
C740 C738 1.327 . S
C740 C759 1.429 . S
C740 H764 0.950 . S
C741 C758 1.574 . S
C741 C760 1.368 . S
C741 H765 0.949 . S
H742 C746 0.949 . S
C743 C744 1.349 . S
C743 C745 1.327 . S
C743 H766 0.950 . S
C744 C743 1.349 . S
C744 C756 1.349 . S
C745 C743 1.327 . S
C745 C761 1.429 . S
C745 H767 0.950 . S
C746 H742 0.949 . S
C746 C754 1.574 . S
C746 C762 1.368 . S
H747 C755 0.950 . S
H748 C753 0.950 . S
H749 C754 0.949 . S
H750 C756 0.950 . S
H751 C757 0.950 . S
H752 C758 0.949 . S
C753 H748 0.950 . S
C753 C755 1.327 . S
C753 C759 1.429 . S
C754 C746 1.574 . S
C754 H749 0.949 . S
C754 C760 1.368 . S
C755 C739 1.349 . S
C755 H747 0.950 . S
C755 C753 1.327 . S
C756 C744 1.349 . S
C756 H750 0.950 . S
C756 C757 1.327 . S
C757 H751 0.950 . S
C757 C756 1.327 . S
C757 C761 1.429 . S
C758 C741 1.574 . S
C758 H752 0.949 . S
C758 C762 1.368 . S
C759 C740 1.429 . S
C759 C753 1.429 . S
C759 C760 1.523 . S
C760 C741 1.368 . S
C760 C754 1.368 . S
C760 C759 1.523 . S
C761 C745 1.429 . S
C761 C757 1.429 . S
C761 C762 1.523 . S
C762 C746 1.368 . S
C762 C758 1.368 . S
C762 C761 1.523 . S
H763 C738 0.950 . S
H764 C740 0.950 . S
H765 C741 0.949 . S
H766 C743 0.950 . S
H767 C745 0.950 . S
C768 C769 1.349 . S
C768 C770 1.327 . S
C768 H793 0.950 . S
C769 C768 1.349 . S
C769 C785 1.349 . S
C770 C768 1.327 . S
C770 C789 1.429 . S
C770 H794 0.950 . S
C771 C788 1.574 1_554 S
C771 C790 1.368 . S
C771 H795 0.949 . S
H772 C776 0.949 . S
C773 C774 1.349 . S
C773 C775 1.327 . S
C773 H796 0.950 . S
C774 C773 1.349 . S
C774 C786 1.349 . S
C775 C773 1.327 . S
C775 C791 1.429 . S
C775 H797 0.950 . S
C776 H772 0.949 . S
C776 C784 1.574 1_565 S
C776 C792 1.383 1_564 S
H777 C785 0.950 . S
H778 C783 0.950 . S
H779 C784 0.949 . S
H780 C786 0.950 . S
H781 C787 0.950 . S
H782 C788 0.949 . S
C783 H778 0.950 . S
C783 C785 1.327 . S
C783 C789 1.429 . S
C784 C776 1.574 1_545 S
C784 H779 0.949 . S
C784 C790 1.368 . S
C785 C769 1.349 . S
C785 H777 0.950 . S
C785 C783 1.327 . S
C786 C774 1.349 . S
C786 H780 0.950 . S
C786 C787 1.327 . S
C787 H781 0.950 . S
C787 C786 1.327 . S
C787 C791 1.429 . S
C788 C771 1.574 1_556 S
C788 H782 0.949 . S
C788 C792 1.376 . S
C789 C770 1.429 . S
C789 C783 1.429 . S
C789 C790 1.523 . S
C790 C771 1.368 . S
C790 C784 1.368 . S
C790 C789 1.523 . S
C791 C775 1.429 . S
C791 C787 1.429 . S
C791 C792 1.496 1_565 S
C792 C776 1.383 1_546 S
C792 C788 1.376 . S
C792 C791 1.496 1_545 S
H793 C768 0.950 . S
H794 C770 0.950 . S
H795 C771 0.949 . S
H796 C773 0.950 . S
H797 C775 0.950 . S
C798 C799 1.349 . S
C798 C800 1.327 . S
C798 H823 0.950 . S
C799 C798 1.349 . S
C799 C815 1.349 . S
C800 C798 1.327 . S
C800 C819 1.429 . S
C800 H824 0.950 . S
C801 C818 1.574 1_655 S
C801 C820 1.368 . S
C801 H825 0.949 . S
H802 C806 0.949 . S
C803 C804 1.349 . S
C803 C805 1.327 . S
C803 H826 0.950 . S
C804 C803 1.349 . S
C804 C816 1.349 . S
C805 C803 1.327 . S
C805 C821 1.429 . S
C805 H827 0.950 . S
C806 H802 0.949 . S
C806 C814 1.574 1_556 S
C806 C822 1.394 . S
H807 C815 0.950 . S
H808 C813 0.950 . S
H809 C814 0.949 1_556 S
H810 C816 0.950 . S
H811 C817 0.950 1_655 S
H812 C818 0.949 . S
C813 H808 0.950 . S
C813 C815 1.327 . S
C813 C819 1.429 . S
C814 C806 1.574 1_554 S
C814 H809 0.949 1_554 S
C814 C820 1.368 . S
C815 C799 1.349 . S
C815 H807 0.950 . S
C815 C813 1.327 . S
C816 C804 1.349 . S
C816 H810 0.950 . S
C816 C817 1.327 . S
C817 H811 0.950 1_455 S
C817 C816 1.327 . S
C817 C821 1.429 . S
C818 C801 1.574 1_455 S
C818 H812 0.949 . S
C818 C822 1.363 1_454 S
C819 C800 1.429 . S
C819 C813 1.429 . S
C819 C820 1.523 . S
C820 C801 1.368 . S
C820 C814 1.368 . S
C820 C819 1.523 . S
C821 C805 1.429 . S
C821 C817 1.429 . S
C821 C822 1.499 1_455 S
C822 C806 1.394 . S
C822 C818 1.363 1_656 S
C822 C821 1.499 1_655 S
H823 C798 0.950 . S
H824 C800 0.950 . S
H825 C801 0.949 . S
H826 C803 0.950 . S
H827 C805 0.950 . S
C828 C829 1.349 . S
C828 C830 1.327 . S
C828 H853 0.950 . S
C829 C828 1.349 . S
C829 C845 1.349 . S
C830 C828 1.327 . S
C830 C849 1.429 . S
C830 H854 0.950 . S
C831 C848 1.574 1_554 S
C831 C850 1.368 . S
C831 H855 0.949 . S
H832 C836 0.949 . S
C833 C834 1.349 . S
C833 C835 1.327 . S
C833 H856 0.950 . S
C834 C833 1.349 . S
C834 C846 1.349 . S
C835 C833 1.327 . S
C835 C851 1.429 . S
C835 H857 0.950 . S
C836 H832 0.949 . S
C836 C844 1.574 1_556 S
C836 C852 1.368 . S
H837 C845 0.950 . S
H838 C843 0.950 . S
H839 C844 0.949 . S
H840 C846 0.950 . S
H841 C847 0.950 . S
H842 C848 0.949 . S
C843 H838 0.950 . S
C843 C845 1.327 . S
C843 C849 1.429 . S
C844 C836 1.574 1_554 S
C844 H839 0.949 . S
C844 C850 1.368 . S
C845 C829 1.349 . S
C845 H837 0.950 . S
C845 C843 1.327 . S
C846 C834 1.349 . S
C846 H840 0.950 . S
C846 C847 1.327 . S
C847 H841 0.950 . S
C847 C846 1.327 . S
C847 C851 1.429 . S
C848 C831 1.574 1_556 S
C848 H842 0.949 . S
C848 C852 1.368 . S
C849 C830 1.429 . S
C849 C843 1.429 . S
C849 C850 1.523 . S
C850 C831 1.368 . S
C850 C844 1.368 . S
C850 C849 1.523 . S
C851 C835 1.429 . S
C851 C847 1.429 . S
C851 C852 1.523 . S
C852 C836 1.368 . S
C852 C848 1.368 . S
C852 C851 1.523 . S
H853 C828 0.950 . S
H854 C830 0.950 . S
H855 C831 0.949 . S
H856 C833 0.950 . S
H857 C835 0.950 . S
C858 C859 1.349 . S
C858 C860 1.327 . S
C858 H883 0.950 . S
C859 C858 1.349 . S
C859 C875 1.349 . S
C860 C858 1.327 . S
C860 C879 1.429 . S
C860 H884 0.950 . S
C861 C878 1.574 . S
C861 C880 1.394 . S
C861 H885 0.949 . S
H862 C866 0.949 . S
C863 C864 1.349 . S
C863 C865 1.327 . S
C863 H886 0.950 . S
C864 C863 1.349 . S
C864 C876 1.349 . S
C865 C863 1.327 . S
C865 C881 1.429 . S
C865 H887 0.950 . S
C866 H862 0.949 . S
C866 C874 1.574 1_455 S
C866 C882 1.368 . S
H867 C875 0.950 . S
H868 C873 0.950 1_455 S
H869 C874 0.949 . S
H870 C876 0.950 . S
H871 C877 0.950 . S
H872 C878 0.949 . S
C873 H868 0.950 1_655 S
C873 C875 1.327 . S
C873 C879 1.429 . S
C874 C866 1.574 1_655 S
C874 H869 0.949 . S
C874 C880 1.365 1_655 S
C875 C859 1.349 . S
C875 H867 0.950 . S
C875 C873 1.327 . S
C876 C864 1.349 . S
C876 H870 0.950 . S
C876 C877 1.327 . S
C877 H871 0.950 . S
C877 C876 1.327 . S
C877 C881 1.429 . S
C878 C861 1.574 . S
C878 H872 0.949 . S
C878 C882 1.368 . S
C879 C860 1.429 . S
C879 C873 1.429 . S
C879 C880 1.496 1_655 S
C880 C861 1.394 . S
C880 C874 1.365 1_455 S
C880 C879 1.496 1_455 S
C881 C865 1.429 . S
C881 C877 1.429 . S
C881 C882 1.523 . S
C882 C866 1.368 . S
C882 C878 1.368 . S
C882 C881 1.523 . S
H883 C858 0.950 . S
H884 C860 0.950 . S
H885 C861 0.949 . S
H886 C863 0.950 . S
H887 C865 0.950 . S
C888 C889 1.349 . S
C888 C890 1.327 . S
C888 H913 0.950 . S
C889 C888 1.349 . S
C889 C905 1.349 . S
C890 C888 1.327 . S
C890 C909 1.429 . S
C890 H914 0.950 . S
C891 C908 1.574 . S
C891 C910 1.368 . S
C891 H915 0.949 . S
H892 C896 0.949 . S
C893 C894 1.349 . S
C893 C895 1.327 . S
C893 H916 0.950 . S
C894 C893 1.349 . S
C894 C906 1.349 . S
C895 C893 1.327 . S
C895 C911 1.429 . S
C895 H917 0.950 . S
C896 H892 0.949 . S
C896 C904 1.574 . S
C896 C912 1.368 . S
H897 C905 0.950 . S
H898 C903 0.950 . S
H899 C904 0.949 . S
H900 C906 0.950 . S
H901 C907 0.950 . S
H902 C908 0.949 . S
C903 H898 0.950 . S
C903 C905 1.327 . S
C903 C909 1.429 . S
C904 C896 1.574 . S
C904 H899 0.949 . S
C904 C910 1.368 . S
C905 C889 1.349 . S
C905 H897 0.950 . S
C905 C903 1.327 . S
C906 C894 1.349 . S
C906 H900 0.950 . S
C906 C907 1.327 . S
C907 H901 0.950 . S
C907 C906 1.327 . S
C907 C911 1.429 . S
C908 C891 1.574 . S
C908 H902 0.949 . S
C908 C912 1.368 . S
C909 C890 1.429 . S
C909 C903 1.429 . S
C909 C910 1.523 . S
C910 C891 1.368 . S
C910 C904 1.368 . S
C910 C909 1.523 . S
C911 C895 1.429 . S
C911 C907 1.429 . S
C911 C912 1.523 . S
C912 C896 1.368 . S
C912 C908 1.368 . S
C912 C911 1.523 . S
H913 C888 0.950 . S
H914 C890 0.950 . S
H915 C891 0.949 . S
H916 C893 0.950 . S
H917 C895 0.950 . S
C918 C919 1.349 . S
C918 C920 1.327 . S
C918 H943 0.950 . S
C919 C918 1.349 . S
C919 C935 1.349 . S
C920 C918 1.327 . S
C920 C939 1.429 . S
C920 H944 0.950 . S
C921 C938 1.574 . S
C921 C940 1.388 . S
C921 H945 0.949 . S
H922 C926 0.949 . S
C923 C924 1.349 . S
C923 C925 1.327 . S
C923 H946 0.950 . S
C924 C923 1.349 . S
C924 C936 1.349 . S
C925 C923 1.327 . S
C925 C941 1.429 . S
C925 H947 0.950 . S
C926 H922 0.949 . S
C926 C934 1.574 1_565 S
C926 C942 1.368 . S
H927 C935 0.950 . S
H928 C933 0.950 . S
H929 C934 0.949 . S
H930 C936 0.950 . S
H931 C937 0.950 . S
H932 C938 0.949 . S
C933 H928 0.950 . S
C933 C935 1.327 . S
C933 C939 1.429 . S
C934 C926 1.574 1_545 S
C934 H929 0.949 . S
C934 C940 1.368 1_545 S
C935 C919 1.349 . S
C935 H927 0.950 . S
C935 C933 1.327 . S
C936 C924 1.349 . S
C936 H930 0.950 . S
C936 C937 1.327 . S
C937 H931 0.950 . S
C937 C936 1.327 . S
C937 C941 1.429 . S
C938 C921 1.574 . S
C938 H932 0.949 . S
C938 C942 1.368 . S
C939 C920 1.429 . S
C939 C933 1.429 . S
C939 C940 1.499 1_545 S
C940 C921 1.388 . S
C940 C934 1.368 1_565 S
C940 C939 1.499 1_565 S
C941 C925 1.429 . S
C941 C937 1.429 . S
C941 C942 1.523 . S
C942 C926 1.368 . S
C942 C938 1.368 . S
C942 C941 1.523 . S
H943 C918 0.950 . S
H944 C920 0.950 . S
H945 C921 0.949 . S
H946 C923 0.950 . S
H947 C925 0.950 . S
C948 C949 1.349 . S
C948 C950 1.327 . S
C948 H973 0.950 . S
C949 C948 1.349 . S
C949 C965 1.349 . S
C950 C948 1.327 . S
C950 C969 1.429 . S
C950 H974 0.950 . S
C951 C968 1.574 1_554 S
C951 C970 1.386 . S
C951 H975 0.949 . S
H952 C956 0.949 . S
C953 C954 1.349 . S
C953 C955 1.327 . S
C953 H976 0.950 . S
C954 C953 1.349 . S
C954 C966 1.349 . S
C955 C953 1.327 . S
C955 C971 1.429 . S
C955 H977 0.950 . S
C956 H952 0.949 . S
C956 C964 1.574 1_565 S
C956 C972 1.368 . S
H957 C965 0.950 . S
H958 C963 0.950 . S
H959 C964 0.949 . S
H960 C966 0.950 . S
H961 C967 0.950 . S
H962 C968 0.949 . S
C963 H958 0.950 . S
C963 C965 1.327 . S
C963 C969 1.429 . S
C964 C956 1.574 1_545 S
C964 H959 0.949 . S
C964 C970 1.373 1_546 S
C965 C949 1.349 . S
C965 H957 0.950 . S
C965 C963 1.327 . S
C966 C954 1.349 . S
C966 H960 0.950 . S
C966 C967 1.327 . S
C967 H961 0.950 . S
C967 C966 1.327 . S
C967 C971 1.429 . S
C968 C951 1.574 1_556 S
C968 H962 0.949 . S
C968 C972 1.368 . S
C969 C950 1.429 . S
C969 C963 1.429 . S
C969 C970 1.496 1_545 S
C970 C951 1.386 . S
C970 C964 1.373 1_564 S
C970 C969 1.496 1_565 S
C971 C955 1.429 . S
C971 C967 1.429 . S
C971 C972 1.523 . S
C972 C956 1.368 . S
C972 C968 1.368 . S
C972 C971 1.523 . S
H973 C948 0.950 . S
H974 C950 0.950 . S
H975 C951 0.949 . S
H976 C953 0.950 . S
H977 C955 0.950 . S
C978 C979 1.349 . S
C978 C980 1.327 . S
C978 H1003 0.950 . S
C979 C978 1.349 . S
C979 C995 1.349 . S
C980 C978 1.327 . S
C980 C999 1.429 . S
C980 H1004 0.950 . S
C981 C998 1.574 1_655 S
C981 C1000 1.369 1_656 S
C981 H1005 0.949 . S
H982 C986 0.956 . S
C983 C984 1.349 . S
C983 C985 1.327 . S
C983 H1006 0.950 . S
C984 C983 1.349 . S
C984 C996 1.349 . S
C985 C983 1.327 . S
C985 C1001 1.429 . S
C985 H1007 0.950 . S
C986 H982 0.956 . S
C986 C994 1.574 1_556 S
C986 C1002 1.368 . S
H987 C995 0.950 . S
H988 C993 0.950 . S
H989 C994 0.949 . S
H990 C996 0.950 . S
H991 C997 0.950 . S
H992 C998 0.949 . S
C993 H988 0.950 . S
C993 C995 1.327 . S
C993 C999 1.429 . S
C994 C986 1.574 1_554 S
C994 H989 0.949 . S
C994 C1000 1.388 . S
C995 C979 1.349 . S
C995 H987 0.950 . S
C995 C993 1.327 . S
C996 C984 1.349 . S
C996 H990 0.950 . S
C996 C997 1.327 . S
C997 H991 0.950 . S
C997 C996 1.327 . S
C997 C1001 1.429 . S
C998 C981 1.574 1_455 S
C998 H992 0.949 . S
C998 C1002 1.368 . S
C999 C980 1.429 . S
C999 C993 1.429 . S
C999 C1000 1.499 1_655 S
C1000 C981 1.369 1_454 S
C1000 C994 1.388 . S
C1000 C999 1.499 1_455 S
C1001 C985 1.429 . S
C1001 C997 1.429 . S
C1001 C1002 1.523 . S
C1002 C986 1.368 . S
C1002 C998 1.368 . S
C1002 C1001 1.523 . S
H1003 C978 0.950 . S
H1004 C980 0.950 . S
H1005 C981 0.949 . S
H1006 C983 0.950 . S
H1007 C985 0.950 . S
C1008 C1009 1.349 . S
C1008 C1010 1.327 . S
C1008 H1033 0.950 . S
C1009 C1008 1.349 . S
C1009 C1025 1.349 . S
C1010 C1008 1.327 . S
C1010 C1029 1.429 . S
C1010 H1034 0.950 . S
C1011 C1028 1.574 1_556 S
C1011 C1030 1.368 . S
C1011 H1035 0.949 . S
H1012 C1016 0.949 . S
C1013 C1014 1.349 . S
C1013 C1015 1.327 . S
C1013 H1036 0.950 . S
C1014 C1013 1.349 . S
C1014 C1026 1.349 . S
C1015 C1013 1.327 . S
C1015 C1031 1.429 . S
C1015 H1037 0.950 . S
C1016 H1012 0.949 . S
C1016 C1024 1.574 . S
C1016 C1032 1.368 1_556 S
H1017 C1025 0.950 . S
H1018 C1023 0.950 . S
H1019 C1024 0.949 . S
H1020 C1026 0.950 . S
H1021 C1027 0.950 . S
H1022 C1028 0.949 . S
C1023 H1018 0.950 . S
C1023 C1025 1.327 . S
C1023 C1029 1.429 . S
C1024 C1016 1.574 . S
C1024 H1019 0.949 . S
C1024 C1030 1.368 . S
C1025 C1009 1.349 . S
C1025 H1017 0.950 . S
C1025 C1023 1.327 . S
C1026 C1014 1.349 . S
C1026 H1020 0.950 . S
C1026 C1027 1.327 . S
C1027 H1021 0.950 . S
C1027 C1026 1.327 . S
C1027 C1031 1.429 . S
C1028 C1011 1.574 1_554 S
C1028 H1022 0.949 . S
C1028 C1032 1.368 . S
C1029 C1010 1.429 . S
C1029 C1023 1.429 . S
C1029 C1030 1.523 . S
C1030 C1011 1.368 . S
C1030 C1024 1.368 . S
C1030 C1029 1.523 . S
C1031 C1015 1.429 . S
C1031 C1027 1.429 . S
C1031 C1032 1.523 . S
C1032 C1016 1.368 1_554 S
C1032 C1028 1.368 . S
C1032 C1031 1.523 . S
H1033 C1008 0.950 . S
H1034 C1010 0.950 . S
H1035 C1011 0.949 . S
H1036 C1013 0.950 . S
H1037 C1015 0.950 . S
C1038 C1039 1.349 . S
C1038 C1040 1.327 . S
C1038 H1063 0.950 . S
C1039 C1038 1.349 . S
C1039 C1055 1.349 . S
C1040 C1038 1.327 . S
C1040 C1059 1.429 . S
C1040 H1064 0.950 . S
C1041 C1058 1.574 . S
C1041 C1060 1.357 . S
C1041 H1065 0.949 1_655 S
H1042 C1046 0.949 . S
C1043 C1044 1.349 . S
C1043 C1045 1.327 . S
C1043 H1066 0.950 . S
C1044 C1043 1.349 . S
C1044 C1056 1.349 . S
C1045 C1043 1.327 . S
C1045 C1061 1.429 . S
C1045 H1067 0.950 . S
C1046 H1042 0.949 . S
C1046 C1054 1.574 . S
C1046 C1062 1.368 . S
H1047 C1055 0.950 . S
H1048 C1053 0.950 . S
H1049 C1054 0.949 . S
H1050 C1056 0.950 . S
H1051 C1057 0.950 . S
H1052 C1058 0.949 . S
C1053 H1048 0.950 . S
C1053 C1055 1.327 . S
C1053 C1059 1.429 . S
C1054 C1046 1.574 . S
C1054 H1049 0.949 . S
C1054 C1060 1.401 . S
C1055 C1039 1.349 . S
C1055 H1047 0.950 . S
C1055 C1053 1.327 . S
C1056 C1044 1.349 . S
C1056 H1050 0.950 . S
C1056 C1057 1.327 . S
C1057 H1051 0.950 . S
C1057 C1056 1.327 . S
C1057 C1061 1.429 . S
C1058 C1041 1.574 . S
C1058 H1052 0.949 . S
C1058 C1062 1.368 . S
C1059 C1040 1.429 . S
C1059 C1053 1.429 . S
C1059 C1060 1.496 1_455 S
C1060 C1041 1.357 . S
C1060 C1054 1.401 . S
C1060 C1059 1.496 1_655 S
C1061 C1045 1.429 . S
C1061 C1057 1.429 . S
C1061 C1062 1.523 . S
C1062 C1046 1.368 . S
C1062 C1058 1.368 . S
C1062 C1061 1.523 . S
H1063 C1038 0.950 . S
H1064 C1040 0.950 . S
H1065 C1041 0.949 1_455 S
H1066 C1043 0.950 . S
H1067 C1045 0.950 . S
C1068 C1069 1.349 . S
C1068 C1070 1.327 . S
C1068 H1093 0.950 . S
C1069 C1068 1.349 . S
C1069 C1085 1.349 . S
C1070 C1068 1.327 . S
C1070 C1089 1.429 . S
C1070 H1094 0.950 . S
C1071 C1088 1.574 . S
C1071 C1090 1.368 . S
C1071 H1095 0.949 . S
H1072 C1076 0.949 . S
C1073 C1074 1.349 . S
C1073 C1075 1.327 . S
C1073 H1096 0.950 . S
C1074 C1073 1.349 . S
C1074 C1086 1.349 . S
C1075 C1073 1.327 . S
C1075 C1091 1.429 . S
C1075 H1097 0.950 . S
C1076 H1072 0.949 . S
C1076 C1084 1.574 . S
C1076 C1092 1.368 . S
H1077 C1085 0.950 . S
H1078 C1083 0.950 . S
H1079 C1084 0.949 . S
H1080 C1086 0.950 . S
H1081 C1087 0.950 . S
H1082 C1088 0.949 . S
C1083 H1078 0.950 . S
C1083 C1085 1.327 . S
C1083 C1089 1.429 . S
C1084 C1076 1.574 . S
C1084 H1079 0.949 . S
C1084 C1090 1.368 . S
C1085 C1069 1.349 . S
C1085 H1077 0.950 . S
C1085 C1083 1.327 . S
C1086 C1074 1.349 . S
C1086 H1080 0.950 . S
C1086 C1087 1.327 . S
C1087 H1081 0.950 . S
C1087 C1086 1.327 . S
C1087 C1091 1.429 . S
C1088 C1071 1.574 . S
C1088 H1082 0.949 . S
C1088 C1092 1.368 . S
C1089 C1070 1.429 . S
C1089 C1083 1.429 . S
C1089 C1090 1.523 . S
C1090 C1071 1.368 . S
C1090 C1084 1.368 . S
C1090 C1089 1.523 . S
C1091 C1075 1.429 . S
C1091 C1087 1.429 . S
C1091 C1092 1.523 . S
C1092 C1076 1.368 . S
C1092 C1088 1.368 . S
C1092 C1091 1.523 . S
H1093 C1068 0.950 . S
H1094 C1070 0.950 . S
H1095 C1071 0.949 . S
H1096 C1073 0.950 . S
H1097 C1075 0.950 . S
C1098 C1099 1.349 . S
C1098 C1100 1.327 . S
C1098 H1123 0.950 . S
C1099 C1098 1.349 . S
C1099 C1115 1.349 . S
C1100 C1098 1.327 . S
C1100 C1119 1.429 . S
C1100 H1124 0.950 . S
C1101 C1118 1.574 . S
C1101 C1120 1.368 . S
C1101 H1125 0.949 . S
H1102 C1106 0.949 . S
C1103 C1104 1.349 . S
C1103 C1105 1.327 . S
C1103 H1126 0.950 . S
C1104 C1103 1.349 . S
C1104 C1116 1.349 . S
C1105 C1103 1.327 . S
C1105 C1121 1.429 . S
C1105 H1127 0.950 1_565 S
C1106 H1102 0.949 . S
C1106 C1114 1.574 1_565 S
C1106 C1122 1.349 1_565 S
H1107 C1115 0.950 . S
H1108 C1113 0.950 . S
H1109 C1114 0.949 . S
H1110 C1116 0.950 . S
H1111 C1117 0.950 . S
H1112 C1118 0.949 . S
C1113 H1108 0.950 . S
C1113 C1115 1.327 . S
C1113 C1119 1.429 . S
C1114 C1106 1.574 1_545 S
C1114 H1109 0.949 . S
C1114 C1120 1.368 . S
C1115 C1099 1.349 . S
C1115 H1107 0.950 . S
C1115 C1113 1.327 . S
C1116 C1104 1.349 . S
C1116 H1110 0.950 . S
C1116 C1117 1.327 . S
C1117 H1111 0.950 . S
C1117 C1116 1.327 . S
C1117 C1121 1.429 . S
C1118 C1101 1.574 . S
C1118 H1112 0.949 . S
C1118 C1122 1.407 . S
C1119 C1100 1.429 . S
C1119 C1113 1.429 . S
C1119 C1120 1.523 . S
C1120 C1101 1.368 . S
C1120 C1114 1.368 . S
C1120 C1119 1.523 . S
C1121 C1105 1.429 . S
C1121 C1117 1.429 . S
C1121 C1122 1.499 1_565 S
C1122 C1106 1.349 1_545 S
C1122 C1118 1.407 . S
C1122 C1121 1.499 1_545 S
H1123 C1098 0.950 . S
H1124 C1100 0.950 . S
H1125 C1101 0.949 . S
H1126 C1103 0.950 . S
H1127 C1105 0.950 1_545 S
C1128 C1129 1.349 . S
C1128 C1130 1.327 . S
C1128 H1153 0.950 . S
C1129 C1128 1.349 . S
C1129 C1145 1.349 . S
C1130 C1128 1.327 . S
C1130 C1149 1.429 . S
C1130 H1154 0.950 . S
C1131 C1148 1.574 . S
C1131 C1150 1.368 . S
C1131 H1155 0.949 . S
H1132 C1136 0.949 . S
C1133 C1134 1.349 . S
C1133 C1135 1.327 . S
C1133 H1156 0.950 . S
C1134 C1133 1.349 . S
C1134 C1146 1.349 . S
C1135 C1133 1.327 . S
C1135 C1151 1.429 . S
C1135 H1157 0.950 . S
C1136 H1132 0.949 . S
C1136 C1144 1.574 . S
C1136 C1152 1.368 . S
H1137 C1145 0.950 . S
H1138 C1143 0.950 . S
H1139 C1144 0.949 . S
H1140 C1146 0.950 . S
H1141 C1147 0.950 . S
H1142 C1148 0.949 . S
C1143 H1138 0.950 . S
C1143 C1145 1.327 . S
C1143 C1149 1.429 . S
C1144 C1136 1.574 . S
C1144 H1139 0.949 . S
C1144 C1150 1.368 . S
C1145 C1129 1.349 . S
C1145 H1137 0.950 . S
C1145 C1143 1.327 . S
C1146 C1134 1.349 . S
C1146 H1140 0.950 . S
C1146 C1147 1.327 . S
C1147 H1141 0.950 . S
C1147 C1146 1.327 . S
C1147 C1151 1.429 . S
C1148 C1131 1.574 . S
C1148 H1142 0.949 . S
C1148 C1152 1.368 . S
C1149 C1130 1.429 . S
C1149 C1143 1.429 . S
C1149 C1150 1.523 . S
C1150 C1131 1.368 . S
C1150 C1144 1.368 . S
C1150 C1149 1.523 . S
C1151 C1135 1.429 . S
C1151 C1147 1.429 . S
C1151 C1152 1.523 . S
C1152 C1136 1.368 . S
C1152 C1148 1.368 . S
C1152 C1151 1.523 . S
H1153 C1128 0.950 . S
H1154 C1130 0.950 . S
H1155 C1131 0.949 . S
H1156 C1133 0.950 . S
H1157 C1135 0.950 . S
C1158 C1159 1.349 . S
C1158 C1160 1.327 . S
C1158 H1183 0.950 . S
C1159 C1158 1.349 . S
C1159 C1175 1.349 . S
C1160 C1158 1.327 . S
C1160 C1179 1.429 . S
C1160 H1184 0.950 . S
C1161 C1178 1.574 1_545 S
C1161 C1180 1.368 . S
C1161 H1185 0.949 . S
H1162 C1166 0.949 . S
C1163 C1164 1.349 . S
C1163 C1165 1.327 . S
C1163 H1186 0.950 . S
C1164 C1163 1.349 . S
C1164 C1176 1.349 . S
C1165 C1163 1.327 . S
C1165 C1181 1.429 . S
C1165 H1187 0.950 . S
C1166 H1162 0.949 . S
C1166 C1174 1.574 1_565 S
C1166 C1182 1.368 . S
H1167 C1175 0.950 . S
H1168 C1173 0.950 . S
H1169 C1174 0.949 . S
H1170 C1176 0.950 . S
H1171 C1177 0.950 . S
H1172 C1178 0.949 . S
C1173 H1168 0.950 . S
C1173 C1175 1.327 . S
C1173 C1179 1.429 . S
C1174 C1166 1.574 1_545 S
C1174 H1169 0.949 . S
C1174 C1180 1.368 . S
C1175 C1159 1.349 . S
C1175 H1167 0.950 . S
C1175 C1173 1.327 . S
C1176 C1164 1.349 . S
C1176 H1170 0.950 . S
C1176 C1177 1.327 . S
C1177 H1171 0.950 . S
C1177 C1176 1.327 . S
C1177 C1181 1.429 . S
C1178 C1161 1.574 1_565 S
C1178 H1172 0.949 . S
C1178 C1182 1.368 . S
C1179 C1160 1.429 . S
C1179 C1173 1.429 . S
C1179 C1180 1.523 . S
C1180 C1161 1.368 . S
C1180 C1174 1.368 . S
C1180 C1179 1.523 . S
C1181 C1165 1.429 . S
C1181 C1177 1.429 . S
C1181 C1182 1.523 . S
C1182 C1166 1.368 . S
C1182 C1178 1.368 . S
C1182 C1181 1.523 . S
H1183 C1158 0.950 . S
H1184 C1160 0.950 . S
H1185 C1161 0.949 . S
H1186 C1163 0.950 . S
H1187 C1165 0.950 . S
C1188 C1189 1.349 . S
C1188 C1190 1.327 . S
C1188 H1213 0.950 . S
C1189 C1188 1.349 . S
C1189 C1205 1.349 . S
C1190 C1188 1.327 . S
C1190 C1209 1.429 . S
C1190 H1214 0.950 . S
C1191 C1208 1.574 1_655 S
C1191 C1210 1.368 . S
C1191 H1215 0.949 . S
H1192 C1196 0.949 . S
C1193 C1194 1.349 . S
C1193 C1195 1.327 . S
C1193 H1216 0.950 . S
C1194 C1193 1.349 . S
C1194 C1206 1.349 . S
C1195 C1193 1.327 . S
C1195 C1211 1.429 . S
C1195 H1217 0.950 . S
C1196 H1192 0.949 . S
C1196 C1204 1.574 1_455 S
C1196 C1212 1.368 . S
H1197 C1205 0.950 . S
H1198 C1203 0.950 . S
H1199 C1204 0.949 . S
H1200 C1206 0.950 . S
H1201 C1207 0.950 . S
H1202 C1208 0.949 . S
C1203 H1198 0.950 . S
C1203 C1205 1.327 . S
C1203 C1209 1.429 . S
C1204 C1196 1.574 1_655 S
C1204 H1199 0.949 . S
C1204 C1210 1.368 . S
C1205 C1189 1.349 . S
C1205 H1197 0.950 . S
C1205 C1203 1.327 . S
C1206 C1194 1.349 . S
C1206 H1200 0.950 . S
C1206 C1207 1.327 . S
C1207 H1201 0.950 . S
C1207 C1206 1.327 . S
C1207 C1211 1.429 . S
C1208 C1191 1.574 1_455 S
C1208 H1202 0.949 . S
C1208 C1212 1.368 . S
C1209 C1190 1.429 . S
C1209 C1203 1.429 . S
C1209 C1210 1.523 . S
C1210 C1191 1.368 . S
C1210 C1204 1.368 . S
C1210 C1209 1.523 . S
C1211 C1195 1.429 . S
C1211 C1207 1.429 . S
C1211 C1212 1.523 . S
C1212 C1196 1.368 . S
C1212 C1208 1.368 . S
C1212 C1211 1.523 . S
H1213 C1188 0.950 . S
H1214 C1190 0.950 . S
H1215 C1191 0.949 . S
H1216 C1193 0.950 . S
H1217 C1195 0.950 . S
C1218 C1219 1.349 . S
C1218 C1220 1.327 . S
C1218 H1243 0.950 . S
C1219 C1218 1.349 . S
C1219 C1235 1.349 . S
C1220 C1218 1.327 . S
C1220 C1239 1.429 . S
C1220 H1244 0.950 . S
C1221 C1238 1.574 . S
C1221 C1240 1.368 . S
C1221 H1245 0.949 . S
H1222 C1226 0.949 . S
C1223 C1224 1.349 . S
C1223 C1225 1.327 . S
C1223 H1246 0.950 . S
C1224 C1223 1.349 . S
C1224 C1236 1.349 . S
C1225 C1223 1.327 . S
C1225 C1241 1.429 . S
C1225 H1247 0.950 . S
C1226 H1222 0.949 . S
C1226 C1234 1.574 . S
C1226 C1242 1.368 . S
H1227 C1235 0.950 . S
H1228 C1233 0.950 . S
H1229 C1234 0.949 . S
H1230 C1236 0.950 . S
H1231 C1237 0.950 . S
H1232 C1238 0.949 . S
C1233 H1228 0.950 . S
C1233 C1235 1.327 . S
C1233 C1239 1.429 . S
C1234 C1226 1.574 . S
C1234 H1229 0.949 . S
C1234 C1240 1.368 . S
C1235 C1219 1.349 . S
C1235 H1227 0.950 . S
C1235 C1233 1.327 . S
C1236 C1224 1.349 . S
C1236 H1230 0.950 . S
C1236 C1237 1.327 . S
C1237 H1231 0.950 . S
C1237 C1236 1.327 . S
C1237 C1241 1.429 . S
C1238 C1221 1.574 . S
C1238 H1232 0.949 . S
C1238 C1242 1.368 . S
C1239 C1220 1.429 . S
C1239 C1233 1.429 . S
C1239 C1240 1.523 . S
C1240 C1221 1.368 . S
C1240 C1234 1.368 . S
C1240 C1239 1.523 . S
C1241 C1225 1.429 . S
C1241 C1237 1.429 . S
C1241 C1242 1.523 . S
C1242 C1226 1.368 . S
C1242 C1238 1.368 . S
C1242 C1241 1.523 . S
H1243 C1218 0.950 . S
H1244 C1220 0.950 . S
H1245 C1221 0.949 . S
H1246 C1223 0.950 . S
H1247 C1225 0.950 . S
C1248 C1249 1.349 . S
C1248 C1250 1.327 . S
C1248 H1273 0.950 . S
C1249 C1248 1.349 . S
C1249 C1265 1.349 . S
C1250 C1248 1.327 . S
C1250 C1269 1.429 . S
C1250 H1274 0.950 . S
C1251 C1268 1.574 1_565 S
C1251 C1270 1.368 . S
C1251 H1275 0.949 . S
H1252 C1256 0.949 . S
C1253 C1254 1.349 . S
C1253 C1255 1.327 . S
C1253 H1276 0.950 . S
C1254 C1253 1.349 . S
C1254 C1266 1.349 . S
C1255 C1253 1.327 . S
C1255 C1271 1.429 . S
C1255 H1277 0.950 . S
C1256 H1252 0.949 . S
C1256 C1264 1.574 1_545 S
C1256 C1272 1.368 . S
H1257 C1265 0.950 . S
H1258 C1263 0.950 . S
H1259 C1264 0.949 . S
H1260 C1266 0.950 . S
H1261 C1267 0.950 . S
H1262 C1268 0.949 . S
C1263 H1258 0.950 . S
C1263 C1265 1.327 . S
C1263 C1269 1.429 . S
C1264 C1256 1.574 1_565 S
C1264 H1259 0.949 . S
C1264 C1270 1.368 . S
C1265 C1249 1.349 . S
C1265 H1257 0.950 . S
C1265 C1263 1.327 . S
C1266 C1254 1.349 . S
C1266 H1260 0.950 . S
C1266 C1267 1.327 . S
C1267 H1261 0.950 . S
C1267 C1266 1.327 . S
C1267 C1271 1.429 . S
C1268 C1251 1.574 1_545 S
C1268 H1262 0.949 . S
C1268 C1272 1.368 . S
C1269 C1250 1.429 . S
C1269 C1263 1.429 . S
C1269 C1270 1.523 . S
C1270 C1251 1.368 . S
C1270 C1264 1.368 . S
C1270 C1269 1.523 . S
C1271 C1255 1.429 . S
C1271 C1267 1.429 . S
C1271 C1272 1.523 . S
C1272 C1256 1.368 . S
C1272 C1268 1.368 . S
C1272 C1271 1.523 . S
H1273 C1248 0.950 . S
H1274 C1250 0.950 . S
H1275 C1251 0.949 . S
H1276 C1253 0.950 . S
H1277 C1255 0.950 . S
C1278 C1279 1.349 . S
C1278 C1280 1.327 . S
C1278 H1303 0.950 . S
C1279 C1278 1.349 . S
C1279 C1295 1.349 . S
C1280 C1278 1.327 . S
C1280 C1299 1.429 . S
C1280 H1304 0.950 . S
C1281 C1298 1.574 1_455 S
C1281 C1300 1.368 . S
C1281 H1305 0.949 . S
H1282 C1286 0.949 . S
C1283 C1284 1.349 . S
C1283 C1285 1.327 . S
C1283 H1306 0.950 . S
C1284 C1283 1.349 . S
C1284 C1296 1.349 . S
C1285 C1283 1.327 . S
C1285 C1301 1.429 . S
C1285 H1307 0.950 . S
C1286 H1282 0.949 . S
C1286 C1294 1.574 1_655 S
C1286 C1302 1.368 . S
H1287 C1295 0.950 . S
H1288 C1293 0.950 . S
H1289 C1294 0.949 . S
H1290 C1296 0.950 . S
H1291 C1297 0.950 . S
H1292 C1298 0.949 . S
C1293 H1288 0.950 . S
C1293 C1295 1.327 . S
C1293 C1299 1.429 . S
C1294 C1286 1.574 1_455 S
C1294 H1289 0.949 . S
C1294 C1300 1.368 . S
C1295 C1279 1.349 . S
C1295 H1287 0.950 . S
C1295 C1293 1.327 . S
C1296 C1284 1.349 . S
C1296 H1290 0.950 . S
C1296 C1297 1.327 . S
C1297 H1291 0.950 . S
C1297 C1296 1.327 . S
C1297 C1301 1.429 . S
C1298 C1281 1.574 1_655 S
C1298 H1292 0.949 . S
C1298 C1302 1.368 . S
C1299 C1280 1.429 . S
C1299 C1293 1.429 . S
C1299 C1300 1.523 . S
C1300 C1281 1.368 . S
C1300 C1294 1.368 . S
C1300 C1299 1.523 . S
C1301 C1285 1.429 . S
C1301 C1297 1.429 . S
C1301 C1302 1.523 . S
C1302 C1286 1.368 . S
C1302 C1298 1.368 . S
C1302 C1301 1.523 . S
H1303 C1278 0.950 . S
H1304 C1280 0.950 . S
H1305 C1281 0.949 . S
H1306 C1283 0.950 . S
H1307 C1285 0.950 . S
C409 C36 1.490 . S
C414 C9 1.494 . S
C439 C43 1.494 . S
C444 C70 1.490 . S
C469 C77 1.494 . S
C474 C2 1.490 . S
C499 C111 1.493 . S
C504 C172 1.490 . S
C529 C145 1.493 . S
C534 C104 1.490 . S
C559 C138 1.490 . S
C564 C179 1.493 . S
C589 C240 1.490 . S
C594 C213 1.493 . S
C619 C274 1.490 . S
C624 C247 1.494 . S
C649 C206 1.490 . S
C654 C281 1.494 . S
C679 C315 1.494 . S
C684 C376 1.490 . S
C709 C308 1.490 . S
C714 C349 1.493 . S
C739 C383 1.494 . S
C744 C342 1.490 . S
C769 C20 1.328 . S
C774 C243 1.316 . S
C799 C54 1.327 . S
C804 C277 1.315 . S
C829 C88 1.327 . S
C834 C209 1.316 . S
C859 C379 1.316 . S
C864 C122 1.327 . S
C889 C156 1.328 . S
C894 C311 1.316 . S
C919 C345 1.315 . S
C924 C190 1.327 . S
C949 C39 1.316 . S
C954 C224 1.327 . S
C979 C73 1.315 . S
C984 C258 1.327 . S
C1009 C292 1.327 . S
C1014 C5 1.316 . S
C1039 C175 1.316 . S
C1044 C326 1.328 . S
C1069 C360 1.328 . S
C1074 C107 1.316 . S
C1099 C394 1.327 . S
C1104 C141 1.315 . S
C1129 C135 1.612 . S
C1134 C33 1.612 . S
C1159 C67 1.611 . S
C1164 C169 1.611 . S
C1189 C101 1.612 . S
C1194 C203 1.612 . S
C1219 C339 1.612 . S
C1224 C237 1.612 . S
C1249 C271 1.612 . S
C1254 C373 1.612 . S
C1279 C305 1.612 . S
C1284 C407 1.612 . S
