# Generated by pormake.
# Topology hjm, (4)-cn, num edge types: 1
# Building blocks:
#     Node 0, Type 0, BuildingBlock: QUQFOY_clean_sbu_3, # of connection points: 4
#     Node 1, Type 0, BuildingBlock: QUQFOY_clean_sbu_3, # of connection points: 4
#     Node 2, Type 0, BuildingBlock: QUQFOY_clean_sbu_3, # of connection points: 4
#     Node 3, Type 0, BuildingBlock: QUQFOY_clean_sbu_3, # of connection points: 4
#     Node 4, Type 0, BuildingBlock: QUQFOY_clean_sbu_3, # of connection points: 4
#     Node 5, Type 0, BuildingBlock: QUQFOY_clean_sbu_3, # of connection points: 4
#     Node 6, Type 0, BuildingBlock: QUQFOY_clean_sbu_3, # of connection points: 4
#     Node 7, Type 0, BuildingBlock: QUQFOY_clean_sbu_3, # of connection points: 4
#     Edge 8, Type (0, 0), BuildingBlock: EZIPEK_clean_linker_0, # of connection points: 2
#     Edge 9, Type (0, 0), BuildingBlock: EZIPEK_clean_linker_0, # of connection points: 2
#     Edge 10, Type (0, 0), BuildingBlock: EZIPEK_clean_linker_0, # of connection points: 2
#     Edge 11, Type (0, 0), BuildingBlock: EZIPEK_clean_linker_0, # of connection points: 2
#     Edge 12, Type (0, 0), BuildingBlock: EZIPEK_clean_linker_0, # of connection points: 2
#     Edge 13, Type (0, 0), BuildingBlock: EZIPEK_clean_linker_0, # of connection points: 2
#     Edge 14, Type (0, 0), BuildingBlock: EZIPEK_clean_linker_0, # of connection points: 2
#     Edge 15, Type (0, 0), BuildingBlock: EZIPEK_clean_linker_0, # of connection points: 2
#     Edge 16, Type (0, 0), BuildingBlock: EZIPEK_clean_linker_0, # of connection points: 2
#     Edge 17, Type (0, 0), BuildingBlock: EZIPEK_clean_linker_0, # of connection points: 2
#     Edge 18, Type (0, 0), BuildingBlock: EZIPEK_clean_linker_0, # of connection points: 2
#     Edge 19, Type (0, 0), BuildingBlock: EZIPEK_clean_linker_0, # of connection points: 2
#     Edge 20, Type (0, 0), BuildingBlock: EZIPEK_clean_linker_0, # of connection points: 2
#     Edge 21, Type (0, 0), BuildingBlock: EZIPEK_clean_linker_0, # of connection points: 2
#     Edge 22, Type (0, 0), BuildingBlock: EZIPEK_clean_linker_0, # of connection points: 2
#     Edge 23, Type (0, 0), BuildingBlock: EZIPEK_clean_linker_0, # of connection points: 2
# Relax obj value: 0.091
# Max RMSD: 0.135
# Mean RMSD: 0.135
data_MOF--net-hjm--node1-QUQFOY_clean_sbu_3--edge1-EZIPEK_clean_linker_0
_symmetry_space_group_name_H-M    P1
_symmetry_Int_Tables_number       1
_symmetry_cell_setting            triclinic
loop_
_symmetry_equiv_pos_as_xyz
'x, y, z'
_cell_length_a     21.339844
_cell_length_b     17.854832
_cell_length_c     20.850742
_cell_angle_alpha  88.695929
_cell_angle_beta   57.84948
_cell_angle_gamma 89.413962
loop_
_atom_site_label
_atom_site_type_symbol
_atom_site_fract_x
_atom_site_fract_y
_atom_site_fract_z
_atom_type_partial_charge
C0 C 0.22613 0.27562 0.12684 0.0
O1 O 0.2634 0.32676 0.13278 0.0
Cd2 Cd 0.22371 0.36262 0.25857 0.0
O3 O 0.18249 0.23485 0.18446 0.0
Cd4 Cd 0.16637 0.22853 0.31184 0.0
C5 C 0.33578 0.26705 0.27809 0.0
O6 O 0.09409 0.34337 0.34307 0.0
O7 O 0.12495 0.3111 0.42238 0.0
O8 O 0.06447 0.13996 0.34689 0.0
C9 C 0.08508 0.35177 0.4073 0.0
O10 O 0.30396 0.32929 0.30328 0.0
C11 C 0.07688 0.09832 0.38898 0.0
O12 O 0.30293 0.21744 0.26333 0.0
O13 O 0.13296 0.1143 0.39218 0.0
C14 C 0.78288 0.26669 0.31505 0.0
O15 O 0.77311 0.33582 0.30867 0.0
Cd16 Cd 0.7662 0.38733 0.2085 0.0
O17 O 0.7964 0.22081 0.2631 0.0
Cd18 Cd 0.82063 0.23061 0.13155 0.0
C19 C 0.63995 0.26924 0.20382 0.0
O20 O 0.88219 0.35147 0.10212 0.0
O21 O 0.85171 0.31558 0.02418 0.0
O22 O 0.93082 0.15166 0.08706 0.0
C23 C 0.88679 0.361 0.03963 0.0
O24 O 0.65535 0.33016 0.22309 0.0
C25 C 0.91581 0.10855 0.04951 0.0
O26 O 0.69021 0.22057 0.16798 0.0
O27 O 0.85535 0.11983 0.0528 0.0
C28 C 0.90946 0.59178 0.60124 0.0
O29 O 0.94072 0.62019 0.63246 0.0
Cd30 Cd 0.89645 0.72351 0.71407 0.0
O31 O 0.84919 0.61817 0.61091 0.0
Cd32 Cd 0.76321 0.72294 0.68346 0.0
C33 C 0.90005 0.85438 0.5888 0.0
O34 O 0.76876 0.69148 0.793 0.0
O35 O 0.71103 0.794 0.80221 0.0
O36 O 0.65774 0.64603 0.70671 0.0
C37 C 0.7284 0.74393 0.83398 0.0
O38 O 0.92545 0.83186 0.62896 0.0
C39 C 0.62479 0.69974 0.69584 0.0
O40 O 0.84436 0.8226 0.59379 0.0
O41 O 0.65813 0.76238 0.67468 0.0
C42 C 0.0416 0.61258 0.83988 0.0
O43 O 0.00956 0.64767 0.81126 0.0
Cd44 Cd 0.04422 0.76017 0.73299 0.0
O45 O 0.10503 0.63246 0.82604 0.0
Cd46 Cd 0.1998 0.72806 0.74848 0.0
C47 C 0.07607 0.8741 0.84396 0.0
O48 O 0.17109 0.73968 0.65157 0.0
O49 O 0.28473 0.71786 0.60775 0.0
O50 O 0.28168 0.649 0.77103 0.0
C51 C 0.23452 0.72908 0.59402 0.0
O52 O 0.0358 0.85539 0.81872 0.0
C53 C 0.32817 0.70141 0.75479 0.0
O54 O 0.13551 0.83912 0.82607 0.0
O55 O 0.31153 0.76594 0.74124 0.0
C56 C 0.69683 0.78156 0.12291 0.0
O57 O 0.71097 0.84792 0.1318 0.0
Cd58 Cd 0.70938 0.88881 0.23875 0.0
O59 O 0.67875 0.73099 0.17423 0.0
Cd60 Cd 0.65534 0.72821 0.30603 0.0
C61 C 0.83358 0.77107 0.24442 0.0
O62 O 0.59065 0.84837 0.34104 0.0
O63 O 0.61689 0.8025 0.42036 0.0
O64 O 0.55196 0.64 0.34633 0.0
C65 C 0.58254 0.85117 0.40551 0.0
O66 O 0.81748 0.83759 0.23537 0.0
C67 C 0.57048 0.59607 0.3822 0.0
O68 O 0.78647 0.71831 0.26615 0.0
O69 O 0.62946 0.61169 0.37999 0.0
C70 C 0.27082 0.75573 0.30138 0.0
O71 O 0.25264 0.82285 0.29801 0.0
Cd72 Cd 0.25278 0.88293 0.19559 0.0
O73 O 0.29231 0.71128 0.24613 0.0
Cd74 Cd 0.31003 0.72444 0.11594 0.0
C75 C 0.1306 0.77386 0.18061 0.0
O76 O 0.37059 0.84371 0.09572 0.0
O77 O 0.35505 0.81333 0.00593 0.0
O78 O 0.4233 0.65022 0.04577 0.0
C79 C 0.38481 0.85678 0.02963 0.0
O80 O 0.14517 0.83697 0.19682 0.0
C81 C 0.3963 0.59836 0.02709 0.0
O82 O 0.17901 0.72217 0.15348 0.0
O83 O 0.32768 0.60298 0.05197 0.0
C84 C 0.41177 0.08872 0.60615 0.0
O85 O 0.44788 0.11829 0.63164 0.0
Cd86 Cd 0.41419 0.22351 0.7108 0.0
O87 O 0.35022 0.11547 0.61964 0.0
Cd88 Cd 0.2691 0.22275 0.69254 0.0
C89 C 0.40756 0.35167 0.58907 0.0
O90 O 0.28755 0.19292 0.79513 0.0
O91 O 0.21597 0.28636 0.81601 0.0
O92 O 0.16365 0.15052 0.70862 0.0
C93 C 0.246 0.24236 0.8403 0.0
O94 O 0.43842 0.32946 0.62415 0.0
C95 C 0.13058 0.20754 0.70316 0.0
O96 O 0.34895 0.3205 0.6005 0.0
O97 O 0.16323 0.27023 0.68943 0.0
C98 C 0.59145 0.0985 0.86496 0.0
O99 O 0.65952 0.085 0.82299 0.0
Cd100 Cd 0.6865 0.21443 0.77041 0.0
O101 O 0.57206 0.16577 0.86653 0.0
Cd102 Cd 0.69589 0.23553 0.76712 0.0
C103 C 0.59102 0.35794 0.84172 0.0
O104 O 0.72176 0.17721 0.64894 0.0
O105 O 0.71168 0.29698 0.64955 0.0
O106 O 0.78861 0.15774 0.78006 0.0
C107 C 0.72484 0.2365 0.61373 0.0
O108 O 0.57144 0.30028 0.82245 0.0
C109 C 0.83425 0.21148 0.75989 0.0
O110 O 0.65658 0.35833 0.82682 0.0
O111 O 0.81443 0.27435 0.74729 0.0
C112 C 0.0547 0.96049 0.41735 0.0
C113 C 0.02744 0.0347 0.43391 0.0
C114 C 0.90979 -0.01201 0.54222 0.0
C115 C 0.94034 0.9149 0.53138 0.0
N116 N 0.04312 0.83105 0.45988 0.0
N117 N 0.92599 0.11937 0.50881 0.0
C118 C 0.013 0.90093 0.46888 0.0
C119 C 0.95394 0.04827 0.49461 0.0
N120 N 0.11863 0.9464 0.35008 0.0
N121 N 0.83946 0.00297 0.59987 0.0
H122 H 0.95642 0.16622 0.47717 0.0
H123 H 0.87226 0.13133 0.55306 0.0
H124 H 0.80299 0.96283 0.6387 0.0
H125 H 0.80299 0.96283 0.6387 0.0
H126 H 0.13513 0.89263 0.32953 0.0
H127 H 0.15069 -0.01142 0.31097 0.0
H128 H 0.09896 0.8198 0.42207 0.0
H129 H 0.01294 0.7845 0.49259 0.0
C130 C 0.98552 0.91376 -0.02449 0.0
C131 C 0.04711 0.93191 0.90276 0.0
C132 C 0.03486 0.06443 0.9356 0.0
C133 C 0.96622 0.04733 0.00368 0.0
N134 N 0.87622 0.95664 0.09033 0.0
N135 N 0.14385 0.01826 0.82053 0.0
C136 C 0.94211 0.97208 0.02466 0.0
C137 C 0.07632 0.0055 0.88505 0.0
N138 N 0.97097 0.84041 -0.00128 0.0
N139 N 0.05757 0.13736 0.91721 0.0
H140 H 0.17403 0.97617 0.78219 0.0
H141 H 0.17297 0.06832 0.80749 0.0
H142 H 0.02881 0.18171 0.95276 0.0
H143 H 0.10357 0.15502 0.86597 0.0
H144 H 0.93227 0.82377 0.0542 0.0
H145 H 0.00256 0.79638 0.96415 0.0
H146 H 0.85025 0.90462 0.10317 0.0
H147 H 0.8454 -0.00294 0.13061 0.0
C148 C 0.51265 0.39756 0.46289 0.0
C149 C 0.44386 0.41195 0.53053 0.0
C150 C 0.4531 0.54483 0.49447 0.0
C151 C 0.52355 0.53153 0.42847 0.0
N152 N 0.62166 0.44688 0.34876 0.0
N153 N 0.33965 0.49391 0.60165 0.0
C154 C 0.55328 0.45807 0.41199 0.0
C155 C 0.41118 0.48384 0.54329 0.0
N156 N 0.53701 0.32528 0.4459 0.0
N157 N 0.42898 0.61661 0.51451 0.0
H158 H 0.30816 0.45174 0.64097 0.0
H159 H 0.30977 0.54269 0.60809 0.0
H160 H 0.45561 0.66328 0.47986 0.0
H161 H 0.38647 0.63011 0.56884 0.0
H162 H 0.5823 0.30884 0.39425 0.0
H163 H 0.50827 0.27994 0.48187 0.0
H164 H 0.65137 0.39758 0.33859 0.0
H165 H 0.65028 0.48831 0.30717 0.0
C166 C 0.44739 0.51624 0.91178 0.0
C167 C 0.44291 0.53444 -0.01961 0.0
C168 C 0.52968 0.43242 0.95999 0.0
C169 C 0.53755 0.41703 0.88963 0.0
N170 N 0.51216 0.44931 0.79295 0.0
N171 N 0.48443 0.51409 0.06674 0.0
C172 C 0.4979 0.45967 0.86433 0.0
C173 C 0.48599 0.49416 0.00304 0.0
N174 N 0.40475 0.55417 0.89093 0.0
N175 N 0.56066 0.38491 -0.01202 0.0
H176 H 0.44406 0.54849 0.10809 0.0
H177 H 0.52616 0.49987 0.07627 0.0
H178 H 0.58644 0.33469 0.96277 0.0
H179 H 0.55645 0.39153 0.03932 0.0
H180 H 0.3977 0.53752 0.84766 0.0
H181 H 0.37364 0.60127 0.91869 0.0
H182 H 0.4918 0.48357 0.7671 0.0
H183 H 0.54919 0.40917 0.75667 0.0
C184 C 0.00415 0.42255 0.94005 0.0
C185 C 0.92645 0.42598 -0.00975 0.0
C186 C 0.92735 0.55645 0.95222 0.0
C187 C 0.00272 0.54872 0.89279 0.0
N188 N 0.10896 0.468 0.82175 0.0
N189 N 0.81168 0.49359 0.04043 0.0
C190 C 0.04042 0.48016 0.88453 0.0
C191 C 0.88715 0.49205 -0.00506 0.0
N192 N 0.04356 0.36481 0.9457 0.0
N193 N 0.8955 0.62578 0.97106 0.0
H194 H 0.78052 0.44828 0.07487 0.0
H195 H 0.77984 0.53787 0.03972 0.0
H196 H 0.9247 0.67501 0.94484 0.0
H197 H 0.84295 0.63519 0.01839 0.0
H198 H 0.10115 0.3649 0.91645 0.0
H199 H 0.01877 0.32028 -0.01559 0.0
H200 H 0.1352 0.41609 0.81016 0.0
H201 H 0.13622 0.50688 0.77723 0.0
C202 C 0.04279 0.48571 0.42663 0.0
C203 C 0.03766 0.41241 0.4574 0.0
C204 C 0.94461 0.45649 0.58377 0.0
C205 C 0.94585 0.52772 0.55153 0.0
N206 N 0.98469 0.60663 0.4412 0.0
N207 N 0.97365 0.3244 0.56242 0.0
C208 C -0.00929 0.54085 0.47243 0.0
C209 C 0.98584 0.39669 0.53532 0.0
N210 N 0.10068 0.50454 0.35564 0.0
N211 N 0.90477 0.44632 0.66074 0.0
H212 H 0.0005 0.27849 0.52848 0.0
H213 H 0.93173 0.30896 0.61704 0.0
H214 H 0.87008 0.48739 0.69781 0.0
H215 H 0.90958 0.39897 0.68793 0.0
H216 H 0.11076 0.55887 0.33309 0.0
H217 H 0.14384 0.46813 0.32224 0.0
H218 H 0.01036 0.61592 0.383 0.0
H219 H 0.94902 0.64965 0.47338 0.0
C220 C 0.4775 0.02592 0.89646 0.0
C221 C 0.53733 0.03751 0.90697 0.0
C222 C 0.50553 0.92123 -0.01825 0.0
C223 C 0.43915 0.91597 -0.01829 0.0
N224 N 0.35701 0.96948 0.94628 0.0
N225 N 0.59986 0.00327 -0.02842 0.0
C226 C 0.42373 0.96982 0.94079 0.0
C227 C 0.54898 -0.01285 0.95304 0.0
N228 N 0.47358 0.06612 0.84209 0.0
N229 N 0.52905 0.86187 0.00606 0.0
H230 H 0.63136 0.05231 0.95363 0.0
H231 H 0.60512 0.97193 0.01125 0.0
H232 H 0.50187 0.81025 0.02241 0.0
H233 H 0.58014 0.86103 0.00135 0.0
H234 H 0.43573 0.05439 0.82658 0.0
H235 H 0.5127 0.10633 0.80695 0.0
H236 H 0.34069 0.01128 0.92254 0.0
H237 H 0.31513 0.93104 -0.02012 0.0
C238 C 0.47816 0.89295 0.53303 0.0
C239 C 0.53799 0.91125 0.45873 0.0
C240 C 0.50045 0.04289 0.47769 0.0
C241 C 0.44656 0.02598 0.55421 0.0
N242 N 0.3897 0.93756 0.6589 0.0
N243 N 0.61741 0.00639 0.36846 0.0
C244 C 0.4368 0.95168 0.58318 0.0
C245 C 0.55212 -0.01292 0.43295 0.0
N246 N 0.45888 0.81983 0.55486 0.0
N247 N 0.50266 0.11271 0.44835 0.0
H248 H 0.65995 0.968 0.33957 0.0
H249 H 0.63333 0.06144 0.34956 0.0
H250 H 0.46414 0.1542 0.47958 0.0
H251 H 0.53909 0.12786 0.39192 0.0
H252 H 0.41061 0.80395 0.60501 0.0
H253 H 0.48747 0.77496 0.52014 0.0
H254 H 0.38874 0.88668 0.68479 0.0
H255 H 0.35556 0.97856 0.69656 0.0
C256 C 0.20856 0.69351 0.42999 0.0
C257 C 0.27025 0.73247 0.37016 0.0
C258 C 0.30954 0.76835 0.45615 0.0
C259 C 0.24904 0.72728 0.51598 0.0
N260 N 0.15381 0.63364 0.55383 0.0
N261 N 0.38964 0.78913 0.32044 0.0
C262 C 0.20229 0.6846 0.50116 0.0
C263 C 0.32434 0.76356 0.38143 0.0
N264 N 0.15449 0.66763 0.41982 0.0
N265 N 0.34961 0.81624 0.47114 0.0
H266 H 0.40173 0.78616 0.26501 0.0
H267 H 0.43429 0.80587 0.32404 0.0
H268 H 0.33805 0.82559 0.52553 0.0
H269 H 0.38954 0.85281 0.43071 0.0
H270 H 0.10374 0.64741 0.46414 0.0
H271 H 0.15855 0.67112 0.3677 0.0
H272 H 0.12323 0.59636 0.54329 0.0
H273 H 0.1498 0.62298 0.60527 0.0
C274 C 0.77406 0.79062 0.9131 0.0
C275 C 0.71788 0.75443 0.90875 0.0
C276 C 0.64626 0.73331 0.04623 0.0
C277 C 0.7056 0.76398 0.04956 0.0
N278 N 0.83338 0.80292 -0.01634 0.0
N279 N 0.60682 0.67945 0.96758 0.0
C280 C 0.77172 0.78716 -0.01788 0.0
C281 C 0.65604 0.72168 -0.0258 0.0
N282 N 0.82908 0.82923 0.85167 0.0
N283 N 0.57937 0.71954 0.11126 0.0
H284 H 0.61034 0.67253 0.91618 0.0
H285 H 0.56572 0.64719 0.01213 0.0
H286 H 0.56927 0.72865 0.16515 0.0
H287 H 0.532 0.70515 0.11159 0.0
H288 H 0.86734 0.86289 0.85409 0.0
H289 H 0.83227 0.83349 0.80005 0.0
H290 H 0.88502 0.81356 0.93505 0.0
H291 H 0.83479 0.79611 0.03265 0.0
C292 C 0.83049 0.26329 0.40035 0.0
C293 C 0.77585 0.24071 0.38592 0.0
C294 C 0.69403 0.20154 0.51844 0.0
C295 C 0.74384 0.23491 0.53493 0.0
N296 N 0.86011 0.29614 0.49349 0.0
N297 N 0.65543 0.18976 0.42896 0.0
C298 C 0.81262 0.26501 0.4763 0.0
C299 C 0.70817 0.20867 0.44398 0.0
N300 N 0.8996 0.2821 0.34088 0.0
N301 N 0.63282 0.16391 0.57403 0.0
H302 H 0.66476 0.19154 0.3745 0.0
H303 H 0.60115 0.17655 0.47096 0.0
H304 H 0.61698 0.16233 0.63075 0.0
H305 H 0.60015 0.13006 0.56325 0.0
H306 H 0.94441 0.29304 0.34622 0.0
H307 H 0.9138 0.28018 0.28467 0.0
H308 H 0.90717 0.32653 0.45483 0.0
H309 H 0.85085 0.29444 0.5479 0.0
C310 C 0.22944 0.33125 0.01294 0.0
C311 C 0.23016 0.26681 0.05398 0.0
C312 C 0.22743 0.1872 0.96139 0.0
C313 C 0.23852 0.25132 0.91471 0.0
N314 N 0.26949 0.38323 0.88914 0.0
N315 N 0.24582 0.13278 0.05743 0.0
C316 C 0.24503 0.32315 0.93838 0.0
C317 C 0.23358 0.19443 0.02553 0.0
N318 N 0.21037 0.39982 0.04596 0.0
N319 N 0.20862 0.11989 0.94624 0.0
H320 H 0.25606 0.13586 0.10091 0.0
H321 H 0.25368 0.07936 0.03543 0.0
H322 H 0.20071 0.11256 0.90162 0.0
H323 H 0.19292 0.07347 -0.01717 0.0
H324 H 0.20313 0.44677 0.01992 0.0
H325 H 0.19276 0.408 0.10246 0.0
H326 H 0.28163 0.43487 0.90244 0.0
H327 H 0.28604 0.3795 0.83243 0.0
C328 C 0.46452 0.31969 0.20733 0.0
C329 C 0.41572 0.26039 0.25207 0.0
C330 C 0.51954 0.19695 0.25107 0.0
C331 C 0.56492 0.26138 0.21511 0.0
N332 N 0.58103 0.38256 0.15362 0.0
N333 N 0.39485 0.14546 0.32364 0.0
C334 C 0.53706 0.32227 0.19267 0.0
C335 C 0.44295 0.19908 0.27493 0.0
N336 N 0.44487 0.37377 0.17412 0.0
N337 N 0.54909 0.13365 0.26245 0.0
H338 H 0.33866 0.14547 0.3429 0.0
H339 H 0.40917 0.10445 0.34989 0.0
H340 H 0.60287 0.1307 0.25086 0.0
H341 H 0.52155 0.08235 0.27942 0.0
H342 H 0.39603 0.37394 0.174 0.0
H343 H 0.39603 0.37394 0.174 0.0
H344 H 0.5598 0.43196 0.14514 0.0
H345 H 0.6383 0.38312 0.12851 0.0
C346 C 0.49197 0.73719 0.77599 0.0
C347 C 0.54689 0.69281 0.71676 0.0
C348 C 0.4521 0.63647 0.70034 0.0
C349 C 0.39958 0.68968 0.7507 0.0
N350 N 0.36821 0.7891 0.8393 0.0
N351 N 0.58172 0.60435 0.61782 0.0
C352 C 0.41927 0.73951 0.7894 0.0
C353 C 0.52751 0.64278 0.67832 0.0
N354 N 0.5087 0.77474 0.82152 0.0
N355 N 0.43051 0.57958 0.67359 0.0
H356 H 0.63746 0.60733 0.60016 0.0
H357 H 0.57251 0.57449 0.58123 0.0
H358 H 0.37676 0.5729 0.6864 0.0
H359 H 0.46449 0.53453 0.64433 0.0
H360 H 0.46996 0.80332 0.8694 0.0
H361 H 0.56042 0.77222 0.8155 0.0
H362 H 0.38179 0.83474 0.85979 0.0
H363 H 0.3121 0.78616 0.85837 0.0
C364 C -0.00593 0.7719 0.27463 0.0
C365 C 0.05404 0.7597 0.19944 0.0
C366 C 0.9657 0.7306 0.16217 0.0
C367 C 0.90733 0.75681 0.23285 0.0
N368 N 0.86459 0.80395 0.357 0.0
N369 N 0.09755 0.73259 0.06917 0.0
C370 C 0.92106 0.77749 0.28951 0.0
C371 C 0.04017 0.73918 0.14262 0.0
N372 N 0.00676 0.77564 0.33222 0.0
N373 N 0.94991 0.69763 0.11386 0.0
H374 H 0.1528 0.73947 0.05213 0.0
H375 H 0.09011 0.72628 0.0241 0.0
H376 H 0.89592 0.69161 0.12631 0.0
H377 H -0.01049 0.67096 0.06463 0.0
H378 H 0.96463 0.77742 0.38917 0.0
H379 H 0.05925 0.76878 0.32374 0.0
H380 H 0.87278 0.82869 0.39676 0.0
H381 H 0.80963 0.80489 0.37156 0.0
C382 C 0.03707 0.16067 0.67471 0.0
C383 C 0.0537 0.203 0.72052 0.0
C384 C 0.92513 0.2466 0.79536 0.0
C385 C 0.90767 0.2026 0.7511 0.0
N386 N 0.94328 0.10742 0.65724 0.0
N387 N 0.01076 0.27181 0.83469 0.0
C388 C 0.96238 0.15593 0.69382 0.0
C389 C -0.00303 0.24204 0.78361 0.0
N390 N 0.09319 0.12851 0.61051 0.0
N391 N 0.87318 0.29347 0.84844 0.0
H392 H 0.06255 0.27036 0.82849 0.0
H393 H 0.96915 0.29125 0.887 0.0
H394 H 0.8178 0.2933 0.86448 0.0
H395 H 0.88584 0.33523 0.87389 0.0
H396 H 0.08611 0.10458 0.56969 0.0
H397 H 0.14843 0.13091 0.59476 0.0
H398 H 0.9783 0.06556 0.62217 0.0
H399 H 0.8905 0.10503 0.66615 0.0
loop_
_geom_bond_atom_site_label_1
_geom_bond_atom_site_label_2
_geom_bond_distance
_geom_bond_site_symmetry_2
_ccdc_geom_bond_type
C0 O1 1.306 . S
C0 O3 1.160 . S
O1 C0 1.306 . S
O1 Cd2 2.228 . S
Cd2 O1 2.228 . S
Cd2 O6 2.273 . S
Cd2 O10 2.277 . S
O3 C0 1.160 . S
O3 Cd4 2.203 . S
Cd4 O3 2.203 . S
Cd4 O6 2.411 . S
Cd4 O7 2.333 . S
Cd4 O8 2.352 . S
Cd4 O12 2.277 . S
Cd4 O13 2.356 . S
C5 O10 1.209 . S
C5 O12 1.226 . S
O6 Cd2 2.273 . S
O6 Cd4 2.411 . S
O6 C9 1.320 . S
O7 Cd4 2.333 . S
O7 C9 1.214 . S
O8 Cd4 2.352 . S
O8 C11 1.258 . S
C9 O6 1.320 . S
C9 O7 1.214 . S
O10 Cd2 2.277 . S
O10 C5 1.209 . S
C11 O8 1.258 . S
C11 O13 1.282 . S
O12 Cd4 2.277 . S
O12 C5 1.226 . S
O13 Cd4 2.356 . S
O13 C11 1.282 . S
C14 O15 1.306 . S
C14 O17 1.160 . S
O15 C14 1.306 . S
O15 Cd16 2.228 . S
Cd16 O15 2.228 . S
Cd16 O20 2.273 . S
Cd16 O24 2.277 . S
O17 C14 1.160 . S
O17 Cd18 2.203 . S
Cd18 O17 2.203 . S
Cd18 O20 2.411 . S
Cd18 O21 2.333 . S
Cd18 O22 2.352 . S
Cd18 O26 2.277 . S
Cd18 O27 2.356 . S
C19 O24 1.209 . S
C19 O26 1.226 . S
O20 Cd16 2.273 . S
O20 Cd18 2.411 . S
O20 C23 1.320 . S
O21 Cd18 2.333 . S
O21 C23 1.214 . S
O22 Cd18 2.352 . S
O22 C25 1.258 . S
C23 O20 1.320 . S
C23 O21 1.214 . S
O24 Cd16 2.277 . S
O24 C19 1.209 . S
C25 O22 1.258 . S
C25 O27 1.282 . S
O26 Cd18 2.277 . S
O26 C19 1.226 . S
O27 Cd18 2.356 . S
O27 C25 1.282 . S
C28 O29 1.306 . S
C28 O31 1.160 . S
O29 C28 1.306 . S
O29 Cd30 2.228 . S
Cd30 O29 2.228 . S
Cd30 O34 2.273 . S
Cd30 O38 2.277 . S
O31 C28 1.160 . S
O31 Cd32 2.203 . S
Cd32 O31 2.203 . S
Cd32 O34 2.411 . S
Cd32 O35 2.333 . S
Cd32 O36 2.352 . S
Cd32 O40 2.277 . S
Cd32 O41 2.356 . S
C33 O38 1.209 . S
C33 O40 1.226 . S
O34 Cd30 2.273 . S
O34 Cd32 2.411 . S
O34 C37 1.320 . S
O35 Cd32 2.333 . S
O35 C37 1.214 . S
O36 Cd32 2.352 . S
O36 C39 1.258 . S
C37 O34 1.320 . S
C37 O35 1.214 . S
O38 Cd30 2.277 . S
O38 C33 1.209 . S
C39 O36 1.258 . S
C39 O41 1.282 . S
O40 Cd32 2.277 . S
O40 C33 1.226 . S
O41 Cd32 2.356 . S
O41 C39 1.282 . S
C42 O43 1.306 . S
C42 O45 1.160 . S
O43 C42 1.306 . S
O43 Cd44 2.228 . S
Cd44 O43 2.228 . S
Cd44 O48 2.273 . S
Cd44 O52 2.277 . S
O45 C42 1.160 . S
O45 Cd46 2.203 . S
Cd46 O45 2.203 . S
Cd46 O48 2.411 . S
Cd46 O49 2.333 . S
Cd46 O50 2.352 . S
Cd46 O54 2.277 . S
Cd46 O55 2.356 . S
C47 O52 1.209 . S
C47 O54 1.226 . S
O48 Cd44 2.273 . S
O48 Cd46 2.411 . S
O48 C51 1.320 . S
O49 Cd46 2.333 . S
O49 C51 1.214 . S
O50 Cd46 2.352 . S
O50 C53 1.258 . S
C51 O48 1.320 . S
C51 O49 1.214 . S
O52 Cd44 2.277 . S
O52 C47 1.209 . S
C53 O50 1.258 . S
C53 O55 1.282 . S
O54 Cd46 2.277 . S
O54 C47 1.226 . S
O55 Cd46 2.356 . S
O55 C53 1.282 . S
C56 O57 1.306 . S
C56 O59 1.160 . S
O57 C56 1.306 . S
O57 Cd58 2.228 . S
Cd58 O57 2.228 . S
Cd58 O62 2.273 . S
Cd58 O66 2.277 . S
O59 C56 1.160 . S
O59 Cd60 2.203 . S
Cd60 O59 2.203 . S
Cd60 O62 2.411 . S
Cd60 O63 2.333 . S
Cd60 O64 2.352 . S
Cd60 O68 2.277 . S
Cd60 O69 2.356 . S
C61 O66 1.209 . S
C61 O68 1.226 . S
O62 Cd58 2.273 . S
O62 Cd60 2.411 . S
O62 C65 1.320 . S
O63 Cd60 2.333 . S
O63 C65 1.214 . S
O64 Cd60 2.352 . S
O64 C67 1.258 . S
C65 O62 1.320 . S
C65 O63 1.214 . S
O66 Cd58 2.277 . S
O66 C61 1.209 . S
C67 O64 1.258 . S
C67 O69 1.282 . S
O68 Cd60 2.277 . S
O68 C61 1.226 . S
O69 Cd60 2.356 . S
O69 C67 1.282 . S
C70 O71 1.306 . S
C70 O73 1.160 . S
O71 C70 1.306 . S
O71 Cd72 2.228 . S
Cd72 O71 2.228 . S
Cd72 O76 2.273 . S
Cd72 O80 2.277 . S
O73 C70 1.160 . S
O73 Cd74 2.203 . S
Cd74 O73 2.203 . S
Cd74 O76 2.411 . S
Cd74 O77 2.333 . S
Cd74 O78 2.352 . S
Cd74 O82 2.277 . S
Cd74 O83 2.356 . S
C75 O80 1.209 . S
C75 O82 1.226 . S
O76 Cd72 2.273 . S
O76 Cd74 2.411 . S
O76 C79 1.320 . S
O77 Cd74 2.333 . S
O77 C79 1.214 . S
O78 Cd74 2.352 . S
O78 C81 1.258 . S
C79 O76 1.320 . S
C79 O77 1.214 . S
O80 Cd72 2.277 . S
O80 C75 1.209 . S
C81 O78 1.258 . S
C81 O83 1.282 . S
O82 Cd74 2.277 . S
O82 C75 1.226 . S
O83 Cd74 2.356 . S
O83 C81 1.282 . S
C84 O85 1.306 . S
C84 O87 1.160 . S
O85 C84 1.306 . S
O85 Cd86 2.228 . S
Cd86 O85 2.228 . S
Cd86 O90 2.273 . S
Cd86 O94 2.277 . S
O87 C84 1.160 . S
O87 Cd88 2.203 . S
Cd88 O87 2.203 . S
Cd88 O90 2.411 . S
Cd88 O91 2.333 . S
Cd88 O92 2.352 . S
Cd88 O96 2.277 . S
Cd88 O97 2.356 . S
C89 O94 1.209 . S
C89 O96 1.226 . S
O90 Cd86 2.273 . S
O90 Cd88 2.411 . S
O90 C93 1.320 . S
O91 Cd88 2.333 . S
O91 C93 1.214 . S
O92 Cd88 2.352 . S
O92 C95 1.258 . S
C93 O90 1.320 . S
C93 O91 1.214 . S
O94 Cd86 2.277 . S
O94 C89 1.209 . S
C95 O92 1.258 . S
C95 O97 1.282 . S
O96 Cd88 2.277 . S
O96 C89 1.226 . S
O97 Cd88 2.356 . S
O97 C95 1.282 . S
C98 O99 1.306 . S
C98 O101 1.160 . S
O99 C98 1.306 . S
O99 Cd100 2.228 . S
Cd100 O99 2.228 . S
Cd100 O104 2.273 . S
Cd100 O108 2.277 . S
O101 C98 1.160 . S
O101 Cd102 2.203 . S
Cd102 O101 2.203 . S
Cd102 O104 2.411 . S
Cd102 O105 2.333 . S
Cd102 O106 2.352 . S
Cd102 O110 2.277 . S
Cd102 O111 2.356 . S
C103 O108 1.209 . S
C103 O110 1.226 . S
O104 Cd100 2.273 . S
O104 Cd102 2.411 . S
O104 C107 1.320 . S
O105 Cd102 2.333 . S
O105 C107 1.214 . S
O106 Cd102 2.352 . S
O106 C109 1.258 . S
C107 O104 1.320 . S
C107 O105 1.214 . S
O108 Cd100 2.277 . S
O108 C103 1.209 . S
C109 O106 1.258 . S
C109 O111 1.282 . S
O110 Cd102 2.277 . S
O110 C103 1.226 . S
O111 Cd102 2.356 . S
O111 C109 1.282 . S
C112 C113 1.363 1_565 S
C112 C118 1.379 . S
C112 N120 1.356 1_565 S
C113 C112 1.363 1_545 S
C113 C119 1.363 . S
C114 C115 1.363 . S
C114 C119 1.379 1_665 S
C114 N121 1.356 . S
C115 C114 1.363 . S
C115 C118 1.363 1_655 S
N116 C118 1.356 1_655 S
N116 H128 0.984 1_655 S
N116 H129 0.985 . S
N117 C119 1.356 . S
N117 H122 0.984 . S
N117 H123 0.985 1_455 S
C118 C112 1.379 . S
C118 C115 1.363 1_455 S
C118 N116 1.356 1_455 S
C119 C113 1.363 . S
C119 C114 1.379 1_445 S
C119 N117 1.356 . S
N120 C112 1.356 1_545 S
N120 H126 0.984 1_545 S
N120 H127 0.984 . S
N121 C114 1.356 . S
N121 H124 0.984 . S
N121 H125 0.985 1_565 S
H122 N117 0.984 . S
H123 N117 0.985 1_655 S
H124 N121 0.984 . S
H125 N121 0.985 1_545 S
H126 N120 0.984 1_565 S
H127 N120 0.984 . S
H128 N116 0.984 1_455 S
H129 N116 0.985 . S
C130 C131 1.363 1_654 S
C130 C136 1.379 . S
C130 N138 1.356 . S
C131 C130 1.363 1_456 S
C131 C137 1.363 . S
C132 C133 1.363 1_456 S
C132 C137 1.379 1_545 S
C132 N139 1.356 . S
C133 C132 1.363 1_654 S
C133 C136 1.363 1_545 S
N134 C136 1.356 1_545 S
N134 H146 0.984 1_545 S
N134 H147 0.985 . S
N135 C137 1.356 . S
N135 H140 0.984 . S
N135 H141 0.985 1_565 S
C136 C130 1.379 . S
C136 C133 1.363 1_565 S
C136 N134 1.356 1_565 S
C137 C131 1.363 . S
C137 C132 1.379 1_565 S
C137 N135 1.356 . S
N138 C130 1.356 . S
N138 H144 0.984 . S
N138 H145 0.984 1_554 S
N139 C132 1.356 . S
N139 H142 0.984 1_556 S
N139 H143 0.985 . S
H140 N135 0.984 . S
H141 N135 0.985 1_545 S
H142 N139 0.984 1_554 S
H143 N139 0.985 . S
H144 N138 0.984 . S
H145 N138 0.984 1_556 S
H146 N134 0.984 1_565 S
H147 N134 0.985 . S
C148 C149 1.363 . S
C148 C154 1.379 . S
C148 N156 1.356 . S
C149 C148 1.363 . S
C149 C155 1.363 . S
C150 C151 1.363 . S
C150 C155 1.379 . S
C150 N157 1.356 . S
C151 C150 1.363 . S
C151 C154 1.363 . S
N152 C154 1.356 . S
N152 H164 0.984 . S
N152 H165 0.985 . S
N153 C155 1.356 . S
N153 H158 0.984 . S
N153 H159 0.985 . S
C154 C148 1.379 . S
C154 C151 1.363 . S
C154 N152 1.356 . S
C155 C149 1.363 . S
C155 C150 1.379 . S
C155 N153 1.356 . S
N156 C148 1.356 . S
N156 H162 0.984 . S
N156 H163 0.984 . S
N157 C150 1.356 . S
N157 H160 0.984 . S
N157 H161 0.985 . S
H158 N153 0.984 . S
H159 N153 0.985 . S
H160 N157 0.984 . S
H161 N157 0.985 . S
H162 N156 0.984 . S
H163 N156 0.984 . S
H164 N152 0.984 . S
H165 N152 0.985 . S
C166 C167 1.363 1_556 S
C166 C172 1.379 . S
C166 N174 1.356 . S
C167 C166 1.363 1_554 S
C167 C173 1.363 . S
C168 C169 1.363 1_554 S
C168 C173 1.379 . S
C168 N175 1.356 . S
C169 C168 1.363 1_556 S
C169 C172 1.363 . S
N170 C172 1.356 . S
N170 H182 0.984 . S
N170 H183 0.985 . S
N171 C173 1.356 . S
N171 H176 0.984 . S
N171 H177 0.985 . S
C172 C166 1.379 . S
C172 C169 1.363 . S
C172 N170 1.356 . S
C173 C167 1.363 . S
C173 C168 1.379 . S
C173 N171 1.356 . S
N174 C166 1.356 . S
N174 H180 0.984 . S
N174 H181 0.984 1_556 S
N175 C168 1.356 . S
N175 H178 0.984 1_554 S
N175 H179 0.985 . S
H176 N171 0.984 . S
H177 N171 0.985 . S
H178 N175 0.984 1_556 S
H179 N175 0.985 . S
H180 N174 0.984 . S
H181 N174 0.984 1_554 S
H182 N170 0.984 . S
H183 N170 0.985 . S
C184 C185 1.363 1_455 S
C184 C190 1.379 1_554 S
C184 N192 1.356 1_455 S
C185 C184 1.363 1_655 S
C185 C191 1.363 . S
C186 C187 1.363 1_655 S
C186 C191 1.379 1_556 S
C186 N193 1.356 . S
C187 C186 1.363 1_455 S
C187 C190 1.363 . S
N188 C190 1.356 . S
N188 H200 0.984 . S
N188 H201 0.985 . S
N189 C191 1.356 . S
N189 H194 0.984 . S
N189 H195 0.985 . S
C190 C184 1.379 1_556 S
C190 C187 1.363 . S
C190 N188 1.356 . S
C191 C185 1.363 . S
C191 C186 1.379 1_554 S
C191 N189 1.356 . S
N192 C184 1.356 1_655 S
N192 H198 0.984 1_655 S
N192 H199 0.984 . S
N193 C186 1.356 . S
N193 H196 0.984 1_655 S
N193 H197 0.985 . S
H194 N189 0.984 . S
H195 N189 0.985 . S
H196 N193 0.984 1_455 S
H197 N193 0.985 . S
H198 N192 0.984 1_455 S
H199 N192 0.984 . S
H200 N188 0.984 . S
H201 N188 0.985 . S
C202 C203 1.363 . S
C202 C208 1.379 1_455 S
C202 N210 1.356 . S
C203 C202 1.363 . S
C203 C209 1.363 . S
C204 C205 1.363 . S
C204 C209 1.379 1_655 S
C204 N211 1.356 . S
C205 C204 1.363 . S
C205 C208 1.363 . S
N206 C208 1.356 . S
N206 H218 0.984 . S
N206 H219 0.985 . S
N207 C209 1.356 . S
N207 H212 0.984 . S
N207 H213 0.985 . S
C208 C202 1.379 1_655 S
C208 C205 1.363 . S
C208 N206 1.356 . S
C209 C203 1.363 . S
C209 C204 1.379 1_455 S
C209 N207 1.356 . S
N210 C202 1.356 . S
N210 H216 0.984 . S
N210 H217 0.984 . S
N211 C204 1.356 . S
N211 H214 0.984 . S
N211 H215 0.985 . S
H212 N207 0.984 . S
H213 N207 0.985 . S
H214 N211 0.984 . S
H215 N211 0.985 . S
H216 N210 0.984 . S
H217 N210 0.984 . S
H218 N206 0.984 . S
H219 N206 0.985 . S
C220 C221 1.363 . S
C220 C226 1.379 1_545 S
C220 N228 1.356 . S
C221 C220 1.363 . S
C221 C227 1.363 1_556 S
C222 C223 1.363 . S
C222 C227 1.379 1_565 S
C222 N229 1.356 . S
C223 C222 1.363 . S
C223 C226 1.363 1_554 S
N224 C226 1.356 . S
N224 H236 0.984 . S
N224 H237 0.985 1_556 S
N225 C227 1.356 . S
N225 H230 0.984 1_554 S
N225 H231 0.985 . S
C226 C220 1.379 1_565 S
C226 C223 1.363 1_556 S
C226 N224 1.356 . S
C227 C221 1.363 1_554 S
C227 C222 1.379 1_545 S
C227 N225 1.356 . S
N228 C220 1.356 . S
N228 H234 0.984 . S
N228 H235 0.984 . S
N229 C222 1.356 . S
N229 H232 0.984 . S
N229 H233 0.985 . S
H230 N225 0.984 1_556 S
H231 N225 0.985 . S
H232 N229 0.984 . S
H233 N229 0.985 . S
H234 N228 0.984 . S
H235 N228 0.984 . S
H236 N224 0.984 . S
H237 N224 0.985 1_554 S
C238 C239 1.363 . S
C238 C244 1.379 . S
C238 N246 1.356 . S
C239 C238 1.363 . S
C239 C245 1.363 1_565 S
C240 C241 1.363 . S
C240 C245 1.379 . S
C240 N247 1.356 . S
C241 C240 1.363 . S
C241 C244 1.363 1_545 S
N242 C244 1.356 . S
N242 H254 0.984 . S
N242 H255 0.985 1_565 S
N243 C245 1.356 . S
N243 H248 0.984 1_545 S
N243 H249 0.985 . S
C244 C238 1.379 . S
C244 C241 1.363 1_565 S
C244 N242 1.356 . S
C245 C239 1.363 1_545 S
C245 C240 1.379 . S
C245 N243 1.356 . S
N246 C238 1.356 . S
N246 H252 0.984 . S
N246 H253 0.984 . S
N247 C240 1.356 . S
N247 H250 0.984 . S
N247 H251 0.985 . S
H248 N243 0.984 1_565 S
H249 N243 0.985 . S
H250 N247 0.984 . S
H251 N247 0.985 . S
H252 N246 0.984 . S
H253 N246 0.984 . S
H254 N242 0.984 . S
H255 N242 0.985 1_545 S
C256 C257 1.363 . S
C256 C262 1.379 . S
C256 N264 1.356 . S
C257 C256 1.363 . S
C257 C263 1.363 . S
C258 C259 1.363 . S
C258 C263 1.379 . S
C258 N265 1.356 . S
C259 C258 1.363 . S
C259 C262 1.363 . S
N260 C262 1.356 . S
N260 H272 0.984 . S
N260 H273 0.985 . S
N261 C263 1.356 . S
N261 H266 0.984 . S
N261 H267 0.985 . S
C262 C256 1.379 . S
C262 C259 1.363 . S
C262 N260 1.356 . S
C263 C257 1.363 . S
C263 C258 1.379 . S
C263 N261 1.356 . S
N264 C256 1.356 . S
N264 H270 0.984 . S
N264 H271 0.984 . S
N265 C258 1.356 . S
N265 H268 0.984 . S
N265 H269 0.985 . S
H266 N261 0.984 . S
H267 N261 0.985 . S
H268 N265 0.984 . S
H269 N265 0.985 . S
H270 N264 0.984 . S
H271 N264 0.984 . S
H272 N260 0.984 . S
H273 N260 0.985 . S
C274 C275 1.363 . S
C274 C280 1.379 1_556 S
C274 N282 1.356 . S
C275 C274 1.363 . S
C275 C281 1.363 . S
C276 C277 1.363 . S
C276 C281 1.379 1_554 S
C276 N283 1.356 . S
C277 C276 1.363 . S
C277 C280 1.363 . S
N278 C280 1.356 . S
N278 H290 0.984 . S
N278 H291 0.985 . S
N279 C281 1.356 . S
N279 H284 0.984 . S
N279 H285 0.985 . S
C280 C274 1.379 1_554 S
C280 C277 1.363 . S
C280 N278 1.356 . S
C281 C275 1.363 . S
C281 C276 1.379 1_556 S
C281 N279 1.356 . S
N282 C274 1.356 . S
N282 H288 0.984 . S
N282 H289 0.984 . S
N283 C276 1.356 . S
N283 H286 0.984 . S
N283 H287 0.985 . S
H284 N279 0.984 . S
H285 N279 0.985 . S
H286 N283 0.984 . S
H287 N283 0.985 . S
H288 N282 0.984 . S
H289 N282 0.984 . S
H290 N278 0.984 . S
H291 N278 0.985 . S
C292 C293 1.363 . S
C292 C298 1.379 . S
C292 N300 1.356 . S
C293 C292 1.363 . S
C293 C299 1.363 . S
C294 C295 1.363 . S
C294 C299 1.379 . S
C294 N301 1.356 . S
C295 C294 1.363 . S
C295 C298 1.363 . S
N296 C298 1.356 . S
N296 H308 0.984 . S
N296 H309 0.985 . S
N297 C299 1.356 . S
N297 H302 0.984 . S
N297 H303 0.985 . S
C298 C292 1.379 . S
C298 C295 1.363 . S
C298 N296 1.356 . S
C299 C293 1.363 . S
C299 C294 1.379 . S
C299 N297 1.356 . S
N300 C292 1.356 . S
N300 H306 0.984 . S
N300 H307 0.984 . S
N301 C294 1.356 . S
N301 H304 0.984 . S
N301 H305 0.985 . S
H302 N297 0.984 . S
H303 N297 0.985 . S
H304 N301 0.984 . S
H305 N301 0.985 . S
H306 N300 0.984 . S
H307 N300 0.984 . S
H308 N296 0.984 . S
H309 N296 0.985 . S
C310 C311 1.363 . S
C310 C316 1.379 1_554 S
C310 N318 1.356 . S
C311 C310 1.363 . S
C311 C317 1.363 . S
C312 C313 1.363 . S
C312 C317 1.379 1_556 S
C312 N319 1.356 . S
C313 C312 1.363 . S
C313 C316 1.363 . S
N314 C316 1.356 . S
N314 H326 0.984 . S
N314 H327 0.985 . S
N315 C317 1.356 . S
N315 H320 0.984 . S
N315 H321 0.985 . S
C316 C310 1.379 1_556 S
C316 C313 1.363 . S
C316 N314 1.356 . S
C317 C311 1.363 . S
C317 C312 1.379 1_554 S
C317 N315 1.356 . S
N318 C310 1.356 . S
N318 H324 0.984 . S
N318 H325 0.984 . S
N319 C312 1.356 . S
N319 H322 0.984 . S
N319 H323 0.985 . S
H320 N315 0.984 . S
H321 N315 0.985 . S
H322 N319 0.984 . S
H323 N319 0.985 . S
H324 N318 0.984 . S
H325 N318 0.984 . S
H326 N314 0.984 . S
H327 N314 0.985 . S
C328 C329 1.363 . S
C328 C334 1.379 . S
C328 N336 1.356 . S
C329 C328 1.363 . S
C329 C335 1.363 . S
C330 C331 1.363 . S
C330 C335 1.379 . S
C330 N337 1.356 . S
C331 C330 1.363 . S
C331 C334 1.363 . S
N332 C334 1.356 . S
N332 H344 0.984 . S
N332 H345 0.985 . S
N333 C335 1.356 . S
N333 H338 0.984 . S
N333 H339 0.985 . S
C334 C328 1.379 . S
C334 C331 1.363 . S
C334 N332 1.356 . S
C335 C329 1.363 . S
C335 C330 1.379 . S
C335 N333 1.356 . S
N336 C328 1.356 . S
N336 H342 0.984 . S
N336 H343 0.984 . S
N337 C330 1.356 . S
N337 H340 0.984 . S
N337 H341 0.985 . S
H338 N333 0.984 . S
H339 N333 0.985 . S
H340 N337 0.984 . S
H341 N337 0.985 . S
H342 N336 0.984 . S
H343 N336 0.984 . S
H344 N332 0.984 . S
H345 N332 0.985 . S
C346 C347 1.363 . S
C346 C352 1.379 . S
C346 N354 1.356 . S
C347 C346 1.363 . S
C347 C353 1.363 . S
C348 C349 1.363 . S
C348 C353 1.379 . S
C348 N355 1.356 . S
C349 C348 1.363 . S
C349 C352 1.363 . S
N350 C352 1.356 . S
N350 H362 0.984 . S
N350 H363 0.985 . S
N351 C353 1.356 . S
N351 H356 0.984 . S
N351 H357 0.985 . S
C352 C346 1.379 . S
C352 C349 1.363 . S
C352 N350 1.356 . S
C353 C347 1.363 . S
C353 C348 1.379 . S
C353 N351 1.356 . S
N354 C346 1.356 . S
N354 H360 0.984 . S
N354 H361 0.984 . S
N355 C348 1.356 . S
N355 H358 0.984 . S
N355 H359 0.985 . S
H356 N351 0.984 . S
H357 N351 0.985 . S
H358 N355 0.984 . S
H359 N355 0.985 . S
H360 N354 0.984 . S
H361 N354 0.984 . S
H362 N350 0.984 . S
H363 N350 0.985 . S
C364 C365 1.363 . S
C364 C370 1.379 1_455 S
C364 N372 1.356 . S
C365 C364 1.363 . S
C365 C371 1.363 . S
C366 C367 1.363 . S
C366 C371 1.379 1_655 S
C366 N373 1.356 . S
C367 C366 1.363 . S
C367 C370 1.363 . S
N368 C370 1.356 . S
N368 H380 0.984 . S
N368 H381 0.985 . S
N369 C371 1.356 . S
N369 H374 0.984 . S
N369 H375 0.985 . S
C370 C364 1.379 1_655 S
C370 C367 1.363 . S
C370 N368 1.356 . S
C371 C365 1.363 . S
C371 C366 1.379 1_455 S
C371 N369 1.356 . S
N372 C364 1.356 . S
N372 H378 0.984 . S
N372 H379 0.984 . S
N373 C366 1.356 . S
N373 H376 0.984 . S
N373 H377 0.985 . S
H374 N369 0.984 . S
H375 N369 0.985 . S
H376 N373 0.984 . S
H377 N373 0.985 . S
H378 N372 0.984 . S
H379 N372 0.984 . S
H380 N368 0.984 . S
H381 N368 0.985 . S
C382 C383 1.363 . S
C382 C388 1.379 1_455 S
C382 N390 1.356 . S
C383 C382 1.363 . S
C383 C389 1.363 . S
C384 C385 1.363 . S
C384 C389 1.379 1_655 S
C384 N391 1.356 . S
C385 C384 1.363 . S
C385 C388 1.363 . S
N386 C388 1.356 . S
N386 H398 0.984 . S
N386 H399 0.985 . S
N387 C389 1.356 . S
N387 H392 0.984 . S
N387 H393 0.985 . S
C388 C382 1.379 1_655 S
C388 C385 1.363 . S
C388 N386 1.356 . S
C389 C383 1.363 . S
C389 C384 1.379 1_455 S
C389 N387 1.356 . S
N390 C382 1.356 . S
N390 H396 0.984 . S
N390 H397 0.984 . S
N391 C384 1.356 . S
N391 H394 0.984 . S
N391 H395 0.985 . S
H392 N387 0.984 . S
H393 N387 0.985 . S
H394 N391 0.984 . S
H395 N391 0.985 . S
H396 N390 0.984 . S
H397 N390 0.984 . S
H398 N386 0.984 . S
H399 N386 0.985 . S
C113 C11 1.748 . S
C115 C33 1.767 . S
C131 C47 1.767 . S
C133 C25 1.748 . S
C149 C89 1.767 . S
C151 C67 1.748 . S
C167 C81 1.748 . S
C169 C103 1.767 . S
C185 C23 1.357 . S
C187 C42 1.336 . S
C203 C9 1.357 . S
C205 C28 1.336 . S
C221 C98 1.336 . S
C223 C79 1.357 . S
C239 C65 1.357 . S
C241 C84 1.336 . S
C257 C70 1.508 . S
C259 C51 1.522 . S
C275 C37 1.522 . S
C277 C56 1.508 . S
C293 C14 1.508 . S
C295 C107 1.522 . S
C311 C0 1.508 . S
C313 C93 1.522 . S
C329 C5 1.549 . S
C331 C19 1.549 . S
C347 C39 1.572 . S
C349 C53 1.572 . S
C365 C75 1.549 . S
C367 C61 1.549 . S
C383 C95 1.572 . S
C385 C109 1.572 . S
