# Generated by pormake.
# Topology svo, (7)-cn, num edge types: 1
# Building blocks:
#     Node 0, Type 0, BuildingBlock: HICVOG_clean_sbu_0, # of connection points: 7
#     Node 1, Type 0, BuildingBlock: HICVOG_clean_sbu_0, # of connection points: 7
#     Node 2, Type 0, BuildingBlock: HICVOG_clean_sbu_0, # of connection points: 7
#     Node 3, Type 0, BuildingBlock: HICVOG_clean_sbu_0, # of connection points: 7
#     Node 4, Type 0, BuildingBlock: HICVOG_clean_sbu_0, # of connection points: 7
#     Node 5, Type 0, BuildingBlock: HICVOG_clean_sbu_0, # of connection points: 7
#     Node 6, Type 0, BuildingBlock: HICVOG_clean_sbu_0, # of connection points: 7
#     Node 7, Type 0, BuildingBlock: HICVOG_clean_sbu_0, # of connection points: 7
#     Node 8, Type 0, BuildingBlock: HICVOG_clean_sbu_0, # of connection points: 7
#     Node 9, Type 0, BuildingBlock: HICVOG_clean_sbu_0, # of connection points: 7
#     Node 10, Type 0, BuildingBlock: HICVOG_clean_sbu_0, # of connection points: 7
#     Node 11, Type 0, BuildingBlock: HICVOG_clean_sbu_0, # of connection points: 7
#     Node 12, Type 0, BuildingBlock: HICVOG_clean_sbu_0, # of connection points: 7
#     Node 13, Type 0, BuildingBlock: HICVOG_clean_sbu_0, # of connection points: 7
#     Node 14, Type 0, BuildingBlock: HICVOG_clean_sbu_0, # of connection points: 7
#     Node 15, Type 0, BuildingBlock: HICVOG_clean_sbu_0, # of connection points: 7
#     Edge 16, Type (0, 0), BuildingBlock: UVAHIK_clean_linker_0, # of connection points: 2
#     Edge 17, Type (0, 0), BuildingBlock: UVAHIK_clean_linker_0, # of connection points: 2
#     Edge 18, Type (0, 0), BuildingBlock: UVAHIK_clean_linker_0, # of connection points: 2
#     Edge 19, Type (0, 0), BuildingBlock: UVAHIK_clean_linker_0, # of connection points: 2
#     Edge 20, Type (0, 0), BuildingBlock: UVAHIK_clean_linker_0, # of connection points: 2
#     Edge 21, Type (0, 0), BuildingBlock: UVAHIK_clean_linker_0, # of connection points: 2
#     Edge 22, Type (0, 0), BuildingBlock: UVAHIK_clean_linker_0, # of connection points: 2
#     Edge 23, Type (0, 0), BuildingBlock: UVAHIK_clean_linker_0, # of connection points: 2
#     Edge 24, Type (0, 0), BuildingBlock: UVAHIK_clean_linker_0, # of connection points: 2
#     Edge 25, Type (0, 0), BuildingBlock: UVAHIK_clean_linker_0, # of connection points: 2
#     Edge 26, Type (0, 0), BuildingBlock: UVAHIK_clean_linker_0, # of connection points: 2
#     Edge 27, Type (0, 0), BuildingBlock: UVAHIK_clean_linker_0, # of connection points: 2
#     Edge 28, Type (0, 0), BuildingBlock: UVAHIK_clean_linker_0, # of connection points: 2
#     Edge 29, Type (0, 0), BuildingBlock: UVAHIK_clean_linker_0, # of connection points: 2
#     Edge 30, Type (0, 0), BuildingBlock: UVAHIK_clean_linker_0, # of connection points: 2
#     Edge 31, Type (0, 0), BuildingBlock: UVAHIK_clean_linker_0, # of connection points: 2
#     Edge 32, Type (0, 0), BuildingBlock: UVAHIK_clean_linker_0, # of connection points: 2
#     Edge 33, Type (0, 0), BuildingBlock: UVAHIK_clean_linker_0, # of connection points: 2
#     Edge 34, Type (0, 0), BuildingBlock: UVAHIK_clean_linker_0, # of connection points: 2
#     Edge 35, Type (0, 0), BuildingBlock: UVAHIK_clean_linker_0, # of connection points: 2
#     Edge 36, Type (0, 0), BuildingBlock: UVAHIK_clean_linker_0, # of connection points: 2
#     Edge 37, Type (0, 0), BuildingBlock: UVAHIK_clean_linker_0, # of connection points: 2
#     Edge 38, Type (0, 0), BuildingBlock: UVAHIK_clean_linker_0, # of connection points: 2
#     Edge 39, Type (0, 0), BuildingBlock: UVAHIK_clean_linker_0, # of connection points: 2
#     Edge 40, Type (0, 0), BuildingBlock: UVAHIK_clean_linker_0, # of connection points: 2
#     Edge 41, Type (0, 0), BuildingBlock: UVAHIK_clean_linker_0, # of connection points: 2
#     Edge 42, Type (0, 0), BuildingBlock: UVAHIK_clean_linker_0, # of connection points: 2
#     Edge 43, Type (0, 0), BuildingBlock: UVAHIK_clean_linker_0, # of connection points: 2
#     Edge 44, Type (0, 0), BuildingBlock: UVAHIK_clean_linker_0, # of connection points: 2
#     Edge 45, Type (0, 0), BuildingBlock: UVAHIK_clean_linker_0, # of connection points: 2
#     Edge 46, Type (0, 0), BuildingBlock: UVAHIK_clean_linker_0, # of connection points: 2
#     Edge 47, Type (0, 0), BuildingBlock: UVAHIK_clean_linker_0, # of connection points: 2
#     Edge 48, Type (0, 0), BuildingBlock: UVAHIK_clean_linker_0, # of connection points: 2
#     Edge 49, Type (0, 0), BuildingBlock: UVAHIK_clean_linker_0, # of connection points: 2
#     Edge 50, Type (0, 0), BuildingBlock: UVAHIK_clean_linker_0, # of connection points: 2
#     Edge 51, Type (0, 0), BuildingBlock: UVAHIK_clean_linker_0, # of connection points: 2
#     Edge 52, Type (0, 0), BuildingBlock: UVAHIK_clean_linker_0, # of connection points: 2
#     Edge 53, Type (0, 0), BuildingBlock: UVAHIK_clean_linker_0, # of connection points: 2
#     Edge 54, Type (0, 0), BuildingBlock: UVAHIK_clean_linker_0, # of connection points: 2
#     Edge 55, Type (0, 0), BuildingBlock: UVAHIK_clean_linker_0, # of connection points: 2
#     Edge 56, Type (0, 0), BuildingBlock: UVAHIK_clean_linker_0, # of connection points: 2
#     Edge 57, Type (0, 0), BuildingBlock: UVAHIK_clean_linker_0, # of connection points: 2
#     Edge 58, Type (0, 0), BuildingBlock: UVAHIK_clean_linker_0, # of connection points: 2
#     Edge 59, Type (0, 0), BuildingBlock: UVAHIK_clean_linker_0, # of connection points: 2
#     Edge 60, Type (0, 0), BuildingBlock: UVAHIK_clean_linker_0, # of connection points: 2
#     Edge 61, Type (0, 0), BuildingBlock: UVAHIK_clean_linker_0, # of connection points: 2
#     Edge 62, Type (0, 0), BuildingBlock: UVAHIK_clean_linker_0, # of connection points: 2
#     Edge 63, Type (0, 0), BuildingBlock: UVAHIK_clean_linker_0, # of connection points: 2
#     Edge 64, Type (0, 0), BuildingBlock: UVAHIK_clean_linker_0, # of connection points: 2
#     Edge 65, Type (0, 0), BuildingBlock: UVAHIK_clean_linker_0, # of connection points: 2
#     Edge 66, Type (0, 0), BuildingBlock: UVAHIK_clean_linker_0, # of connection points: 2
#     Edge 67, Type (0, 0), BuildingBlock: UVAHIK_clean_linker_0, # of connection points: 2
#     Edge 68, Type (0, 0), BuildingBlock: UVAHIK_clean_linker_0, # of connection points: 2
#     Edge 69, Type (0, 0), BuildingBlock: UVAHIK_clean_linker_0, # of connection points: 2
#     Edge 70, Type (0, 0), BuildingBlock: UVAHIK_clean_linker_0, # of connection points: 2
#     Edge 71, Type (0, 0), BuildingBlock: UVAHIK_clean_linker_0, # of connection points: 2
# Relax obj value: 0.203
# Max RMSD: 0.232
# Mean RMSD: 0.232
data_MOF--net-svo--node1-HICVOG_clean_sbu_0--edge1-UVAHIK_clean_linker_0
_symmetry_space_group_name_H-M    P1
_symmetry_Int_Tables_number       1
_symmetry_cell_setting            triclinic
loop_
_symmetry_equiv_pos_as_xyz
'x, y, z'
_cell_length_a     38.526259
_cell_length_b     38.574739
_cell_length_c     97.231161
_cell_angle_alpha  89.986481
_cell_angle_beta   89.991693
_cell_angle_gamma 90.002409
loop_
_atom_site_label
_atom_site_type_symbol
_atom_site_fract_x
_atom_site_fract_y
_atom_site_fract_z
_atom_type_partial_charge
Zn0 Zn 0.17308 0.29557 0.1486 0.0
C1 C 0.10504 0.35894 0.13017 0.0
N2 N 0.08192 0.33994 0.13727 0.0
C3 C 0.10199 0.31554 0.14307 0.0
N4 N 0.13557 0.3191 0.13952 0.0
N5 N 0.13765 0.3464 0.13129 0.0
C6 C 0.20361 0.41879 0.12476 0.0
O7 O 0.21604 0.39807 0.13429 0.0
O8 O 0.16147 0.246 0.15334 0.0
Zn9 Zn 0.17298 0.35458 0.11735 0.0
N10 N 0.18203 0.32028 0.1655 0.0
C11 C 0.18602 0.37426 0.17715 0.0
C12 C 0.17975 0.3554 0.16521 0.0
C13 C 0.19034 0.30307 0.17727 0.0
N14 N 0.19429 0.3572 0.18891 0.0
C15 C 0.19661 0.32197 0.18943 0.0
O16 O 0.21949 0.32947 0.11992 0.0
C17 C 0.23359 0.30693 0.12773 0.0
O18 O 0.21751 0.29408 0.13794 0.0
H19 H 0.1732 0.36861 0.15575 0.0
H20 H 0.19258 0.27515 0.177 0.0
C21 C 0.15433 0.35109 0.08794 0.0
C22 C 0.13602 0.33598 0.0769 0.0
C23 C 0.11522 0.29207 0.09188 0.0
C24 C 0.13359 0.30677 0.1027 0.0
N25 N 0.15227 0.33626 0.10064 0.0
N26 N 0.11678 0.307 0.07929 0.0
H27 H 0.16941 0.37449 0.08652 0.0
C28 C 0.15935 0.22307 0.144 0.0
O29 O 0.16162 0.23268 0.13106 0.0
O30 O 0.18308 0.40621 0.1158 0.0
H31 H 0.13265 0.29491 0.11276 0.0
H32 H 0.18438 0.40226 0.17709 0.0
H33 H 0.09989 0.26891 0.09345 0.0
Zn34 Zn 0.71816 0.17177 0.14868 0.0
C35 C 0.6502 0.10544 0.13194 0.0
N36 N 0.66813 0.08208 0.13933 0.0
C37 C 0.6944 0.10103 0.14441 0.0
N38 N 0.69279 0.1343 0.14019 0.0
N39 N 0.66506 0.13713 0.13221 0.0
C40 C 0.59284 0.20301 0.12358 0.0
O41 O 0.61257 0.21774 0.13292 0.0
O42 O 0.76824 0.16013 0.15272 0.0
Zn43 Zn 0.65806 0.17114 0.1177 0.0
N44 N 0.6956 0.18117 0.16604 0.0
C45 C 0.64325 0.18426 0.17893 0.0
C46 C 0.66042 0.17905 0.1665 0.0
C47 C 0.71442 0.18874 0.17751 0.0
N48 N 0.66195 0.19161 0.19039 0.0
C49 C 0.69721 0.19424 0.1901 0.0
O50 O 0.68299 0.21777 0.11996 0.0
C51 C 0.70565 0.23201 0.12769 0.0
O52 O 0.71876 0.21609 0.13789 0.0
H53 H 0.64589 0.17307 0.15728 0.0
H54 H 0.74242 0.18976 0.17681 0.0
C55 C 0.66354 0.15236 0.08843 0.0
C56 C 0.67836 0.13322 0.07756 0.0
C57 C 0.71922 0.10909 0.0931 0.0
C58 C 0.70483 0.12827 0.10376 0.0
N59 N 0.67694 0.14903 0.10134 0.0
N60 N 0.70565 0.11192 0.0803 0.0
H61 H 0.64143 0.16912 0.08671 0.0
C62 C 0.79126 0.16261 0.14341 0.0
O63 O 0.78162 0.16956 0.13074 0.0
O64 O 0.60644 0.1809 0.11549 0.0
H65 H 0.71569 0.12632 0.11396 0.0
H66 H 0.61527 0.18243 0.17948 0.0
H67 H 0.74109 0.09214 0.09495 0.0
Zn68 Zn 0.83903 0.65638 0.11673 0.0
C69 C 0.91252 0.69296 0.14192 0.0
N70 N 0.93143 0.66761 0.13615 0.0
C71 C 0.90741 0.64935 0.12923 0.0
N72 N 0.87533 0.66313 0.13045 0.0
N73 N 0.87864 0.69048 0.13859 0.0
C74 C 0.84948 0.78581 0.14252 0.0
O75 O 0.84418 0.77458 0.12994 0.0
O76 O 0.83072 0.60477 0.11368 0.0
Zn77 Zn 0.84191 0.71335 0.14861 0.0
N78 N 0.8567 0.6797 0.10046 0.0
C79 C 0.88553 0.73085 0.09301 0.0
C80 C 0.87126 0.71089 0.10343 0.0
C81 C 0.85525 0.66774 0.08726 0.0
N82 N 0.88421 0.71911 0.07991 0.0
C83 C 0.86939 0.68818 0.07653 0.0
O84 O 0.79552 0.71179 0.13944 0.0
C85 C 0.77812 0.69926 0.12952 0.0
O86 O 0.79182 0.67875 0.12078 0.0
H87 H 0.87165 0.72029 0.11388 0.0
H88 H 0.84273 0.6432 0.08527 0.0
C89 C 0.82829 0.70708 0.17768 0.0
C90 C 0.82464 0.68875 0.19014 0.0
C91 C 0.83925 0.63662 0.17843 0.0
C92 C 0.84278 0.65489 0.16617 0.0
N93 N 0.83729 0.68967 0.16603 0.0
N94 N 0.83023 0.65386 0.19006 0.0
H95 H 0.82335 0.73463 0.17708 0.0
C96 C 0.81111 0.5901 0.12248 0.0
O97 O 0.79883 0.60876 0.13268 0.0
O98 O 0.85137 0.76403 0.1523 0.0
H99 H 0.84963 0.64144 0.1568 0.0
H100 H 0.89735 0.75564 0.09527 0.0
H101 H 0.84348 0.6089 0.17872 0.0
Zn102 Zn 0.35495 0.83837 0.11741 0.0
C103 C 0.31655 0.91257 0.14179 0.0
N104 N 0.3414 0.93171 0.13581 0.0
C105 C 0.36031 0.90768 0.12917 0.0
N106 N 0.34733 0.87537 0.13076 0.0
N107 N 0.3198 0.87864 0.13883 0.0
C108 C 0.22384 0.85737 0.1423 0.0
O109 O 0.23519 0.85772 0.12956 0.0
O110 O 0.40646 0.82874 0.11496 0.0
Zn111 Zn 0.29595 0.84259 0.14872 0.0
N112 N 0.33438 0.8565 0.10067 0.0
C113 C 0.28722 0.88983 0.09198 0.0
C114 C 0.30358 0.87285 0.10279 0.0
C115 C 0.34915 0.85554 0.08792 0.0
N116 N 0.30206 0.88942 0.07935 0.0
C117 C 0.33248 0.87257 0.07692 0.0
O118 O 0.29683 0.79616 0.13958 0.0
C119 C 0.30981 0.7785 0.12982 0.0
O120 O 0.33144 0.79175 0.12139 0.0
H121 H 0.29205 0.87318 0.11292 0.0
H122 H 0.37375 0.8425 0.08646 0.0
C123 C 0.29973 0.8283 0.1777 0.0
C124 C 0.31628 0.82627 0.19059 0.0
C125 C 0.36902 0.84435 0.18011 0.0
C126 C 0.35253 0.84612 0.16739 0.0
N127 N 0.31825 0.83823 0.16644 0.0
N128 N 0.3506 0.83458 0.19136 0.0
H129 H 0.27235 0.82276 0.17658 0.0
C130 C 0.42367 0.81998 0.12557 0.0
O131 O 0.40772 0.81902 0.13751 0.0
O132 O 0.2454 0.85331 0.15205 0.0
H133 H 0.36685 0.85399 0.15836 0.0
H134 H 0.26294 0.90331 0.0936 0.0
H135 H 0.39626 0.85073 0.18106 0.0
Zn136 Zn 0.16941 0.71534 0.35983 0.0
C137 C 0.10299 0.65387 0.3801 0.0
N138 N 0.07924 0.67339 0.37358 0.0
C139 C 0.09892 0.6973 0.36728 0.0
N140 N 0.13291 0.69294 0.36996 0.0
N141 N 0.13567 0.66564 0.37816 0.0
C142 C 0.20063 0.59236 0.384 0.0
O143 O 0.21109 0.61209 0.37379 0.0
O144 O 0.15882 0.76556 0.35577 0.0
Zn145 Zn 0.17252 0.65763 0.39152 0.0
N146 N 0.17391 0.6913 0.3425 0.0
C147 C 0.16978 0.63871 0.32987 0.0
C148 C 0.16788 0.65661 0.34228 0.0
C149 C 0.1822 0.70889 0.33081 0.0
N150 N 0.17788 0.65621 0.31818 0.0
C151 C 0.18438 0.69092 0.31823 0.0
O152 O 0.21911 0.6818 0.38784 0.0
C153 C 0.23285 0.70259 0.37921 0.0
O154 O 0.21571 0.71478 0.36914 0.0
H155 H 0.1614 0.64303 0.35167 0.0
H156 H 0.18635 0.73659 0.33134 0.0
C157 C 0.15493 0.66242 0.42103 0.0
C158 C 0.1378 0.67882 0.43207 0.0
C159 C 0.12057 0.72433 0.41715 0.0
C160 C 0.1377 0.70828 0.40631 0.0
N161 N 0.15404 0.67745 0.40834 0.0
N162 N 0.12091 0.70923 0.42972 0.0
H163 H 0.16806 0.63786 0.42243 0.0
C164 C 0.15774 0.7881 0.36529 0.0
O165 O 0.16049 0.77787 0.37814 0.0
O166 O 0.18217 0.60594 0.39343 0.0
H167 H 0.13755 0.7201 0.39623 0.0
H168 H 0.16484 0.61112 0.3295 0.0
H169 H 0.10707 0.74861 0.41559 0.0
Zn170 Zn 0.35512 0.17342 0.39144 0.0
C171 C 0.31631 0.09944 0.36708 0.0
N172 N 0.341 0.08031 0.37318 0.0
C173 C 0.36 0.10436 0.37976 0.0
N174 N 0.34715 0.13667 0.37808 0.0
N175 N 0.31969 0.13341 0.36997 0.0
C176 C 0.22396 0.15314 0.36629 0.0
O177 O 0.23524 0.15271 0.37904 0.0
O178 O 0.40684 0.18326 0.39313 0.0
Zn179 Zn 0.29556 0.16973 0.36039 0.0
N180 N 0.33587 0.15449 0.40831 0.0
C181 C 0.28941 0.12043 0.41714 0.0
C182 C 0.30519 0.1378 0.4063 0.0
C183 C 0.35103 0.15546 0.42098 0.0
N184 N 0.30461 0.12088 0.4297 0.0
C185 C 0.33488 0.1381 0.43203 0.0
O186 O 0.29499 0.21536 0.37012 0.0
C187 C 0.30787 0.23286 0.37994 0.0
O188 O 0.33036 0.21985 0.38807 0.0
H189 H 0.29327 0.13758 0.39625 0.0
H190 H 0.37547 0.16886 0.42235 0.0
C191 C 0.3007 0.18398 0.33139 0.0
C192 C 0.31851 0.18868 0.31887 0.0
C193 C 0.37176 0.17746 0.33042 0.0
C194 C 0.35401 0.17323 0.34278 0.0
N195 N 0.31891 0.17642 0.34301 0.0
N196 N 0.3537 0.18505 0.31882 0.0
H197 H 0.27274 0.18581 0.33197 0.0
C198 C 0.41973 0.20409 0.38435 0.0
O199 O 0.3993 0.21706 0.37483 0.0
O200 O 0.24547 0.15808 0.35658 0.0
H201 H 0.36804 0.16735 0.35212 0.0
H202 H 0.26525 0.10667 0.41561 0.0
H203 H 0.3997 0.17486 0.33004 0.0
Zn204 Zn 0.84373 0.29638 0.36054 0.0
C205 C 0.90905 0.35939 0.38072 0.0
N206 N 0.93318 0.34014 0.3743 0.0
C207 C 0.91405 0.3153 0.3683 0.0
N208 N 0.87994 0.31901 0.37098 0.0
N209 N 0.87665 0.34675 0.37892 0.0
C210 C 0.81398 0.42169 0.38431 0.0
O211 O 0.80485 0.40257 0.37372 0.0
O212 O 0.85391 0.246 0.35668 0.0
Zn213 Zn 0.83856 0.35562 0.39159 0.0
N214 N 0.84079 0.31996 0.34303 0.0
C215 C 0.84796 0.37184 0.33013 0.0
C216 C 0.8484 0.35434 0.34266 0.0
C217 C 0.83221 0.30235 0.33138 0.0
N218 N 0.83968 0.35429 0.31849 0.0
C219 C 0.83154 0.31992 0.31869 0.0
O220 O 0.79171 0.33402 0.38669 0.0
C221 C 0.77848 0.31187 0.3785 0.0
O222 O 0.79645 0.2974 0.36917 0.0
H223 H 0.85505 0.36797 0.35201 0.0
H224 H 0.82669 0.27489 0.33202 0.0
C225 C 0.85121 0.34528 0.42142 0.0
C226 C 0.85989 0.3234 0.43254 0.0
C227 C 0.87093 0.27751 0.41686 0.0
C228 C 0.86183 0.29891 0.40596 0.0
N229 N 0.85213 0.33223 0.40838 0.0
N230 N 0.86949 0.29012 0.42984 0.0
H231 H 0.84281 0.3717 0.42311 0.0
C232 C 0.84938 0.22314 0.36593 0.0
O233 O 0.84102 0.23304 0.37843 0.0
O234 O 0.83069 0.40737 0.39408 0.0
H235 H 0.86199 0.28889 0.39559 0.0
H236 H 0.85419 0.39915 0.32964 0.0
H237 H 0.87859 0.25091 0.41505 0.0
Zn238 Zn 0.71633 0.84299 0.35998 0.0
C239 C 0.6498 0.90759 0.37858 0.0
N240 N 0.66782 0.93149 0.37148 0.0
C241 C 0.69314 0.91254 0.36572 0.0
N242 N 0.69103 0.87891 0.36928 0.0
N243 N 0.66378 0.87556 0.37749 0.0
C244 C 0.58837 0.82012 0.38339 0.0
O245 O 0.60402 0.81921 0.37139 0.0
O246 O 0.76628 0.85559 0.35621 0.0
Zn247 Zn 0.65723 0.83939 0.39131 0.0
N248 N 0.6938 0.83572 0.34246 0.0
C249 C 0.64164 0.835 0.32942 0.0
C250 C 0.65878 0.83944 0.3419 0.0
C251 C 0.71256 0.8277 0.33102 0.0
N252 N 0.66024 0.8269 0.31802 0.0
C253 C 0.69538 0.82294 0.31836 0.0
O254 O 0.68204 0.7931 0.3879 0.0
C255 C 0.70461 0.78018 0.37978 0.0
O256 O 0.71729 0.79761 0.36989 0.0
H257 H 0.64436 0.84602 0.35106 0.0
H258 H 0.74046 0.82568 0.33186 0.0
C259 C 0.66353 0.85646 0.42072 0.0
C260 C 0.67936 0.87438 0.43169 0.0
C261 C 0.72188 0.89629 0.41632 0.0
C262 C 0.70643 0.87833 0.40555 0.0
N263 N 0.67729 0.85928 0.40785 0.0
N264 N 0.70798 0.894 0.42909 0.0
H265 H 0.64036 0.84112 0.42233 0.0
C266 C 0.78886 0.85642 0.36573 0.0
O267 O 0.77874 0.85249 0.37855 0.0
O268 O 0.60583 0.82893 0.39394 0.0
H269 H 0.71741 0.87993 0.39535 0.0
H270 H 0.61377 0.83797 0.32879 0.0
H271 H 0.74478 0.91191 0.41457 0.0
Zn272 Zn 0.8565 0.67182 0.89078 0.0
C273 C 0.81861 0.598 0.86609 0.0
N274 N 0.84427 0.57921 0.87172 0.0
C275 C 0.86275 0.60332 0.8785 0.0
N276 N 0.84881 0.63531 0.87732 0.0
N277 N 0.82109 0.63183 0.86938 0.0
C278 C 0.72414 0.66082 0.86566 0.0
O279 O 0.73476 0.66931 0.87806 0.0
O280 O 0.90818 0.68133 0.89267 0.0
Zn281 Zn 0.7968 0.66815 0.85977 0.0
N282 N 0.83653 0.65315 0.90755 0.0
C283 C 0.78898 0.6205 0.91629 0.0
C284 C 0.80555 0.63712 0.90545 0.0
C285 C 0.85132 0.65409 0.92029 0.0
N286 N 0.80372 0.62107 0.92893 0.0
C287 C 0.83435 0.63757 0.93136 0.0
O288 O 0.79707 0.71411 0.86927 0.0
C289 C 0.81011 0.73161 0.87906 0.0
O290 O 0.8323 0.71843 0.88727 0.0
H291 H 0.79391 0.63698 0.89534 0.0
H292 H 0.87603 0.66695 0.92169 0.0
C293 C 0.80074 0.68194 0.83078 0.0
C294 C 0.81774 0.68543 0.81803 0.0
C295 C 0.87136 0.67249 0.82899 0.0
C296 C 0.8544 0.66938 0.84158 0.0
N297 N 0.81948 0.67397 0.84221 0.0
N298 N 0.85272 0.68036 0.81756 0.0
H299 H 0.77292 0.68493 0.83165 0.0
C300 C 0.92122 0.7018 0.88379 0.0
O301 O 0.90094 0.71442 0.87415 0.0
O302 O 0.74646 0.65688 0.85617 0.0
H303 H 0.8689 0.66317 0.85078 0.0
H304 H 0.76453 0.60732 0.9147 0.0
H305 H 0.89912 0.66872 0.82829 0.0
Zn306 Zn 0.34512 0.79571 0.85997 0.0
C307 C 0.40986 0.85609 0.88167 0.0
N308 N 0.43399 0.8345 0.87653 0.0
C309 C 0.41461 0.81097 0.86987 0.0
N310 N 0.38044 0.8176 0.87094 0.0
N311 N 0.37724 0.84594 0.87853 0.0
C312 C 0.31215 0.92081 0.88325 0.0
O313 O 0.30196 0.9013 0.87294 0.0
O314 O 0.3559 0.74539 0.85636 0.0
Zn315 Zn 0.33894 0.85523 0.89097 0.0
N316 N 0.34447 0.81868 0.84226 0.0
C317 C 0.36193 0.86622 0.82827 0.0
C318 C 0.35896 0.8507 0.84116 0.0
C319 C 0.33209 0.80179 0.83098 0.0
N320 N 0.35028 0.8491 0.81698 0.0
C321 C 0.33519 0.81729 0.81796 0.0
O322 O 0.29285 0.83184 0.88627 0.0
C323 C 0.27954 0.81028 0.87784 0.0
O324 O 0.29735 0.79664 0.86824 0.0
H325 H 0.36874 0.86382 0.85019 0.0
H326 H 0.32109 0.77612 0.83211 0.0
C327 C 0.35442 0.85042 0.92072 0.0
C328 C 0.36946 0.83297 0.93198 0.0
C329 C 0.38269 0.78525 0.91752 0.0
C330 C 0.36765 0.80237 0.90645 0.0
N331 N 0.35433 0.83473 0.90815 0.0
N332 N 0.38337 0.80094 0.92997 0.0
H333 H 0.34375 0.87621 0.92185 0.0
C334 C 0.35842 0.7229 0.86585 0.0
O335 O 0.35657 0.73299 0.87874 0.0
O336 O 0.33004 0.90697 0.89279 0.0
H337 H 0.3671 0.79017 0.89645 0.0
H338 H 0.37374 0.89152 0.82722 0.0
H339 H 0.39381 0.7597 0.91623 0.0
Zn340 Zn 0.21942 0.34359 0.8603 0.0
C341 C 0.15566 0.40939 0.87977 0.0
N342 N 0.17506 0.43323 0.87323 0.0
C343 C 0.19942 0.41374 0.86711 0.0
N344 N 0.19545 0.37983 0.86992 0.0
N345 N 0.16792 0.37687 0.87801 0.0
C346 C 0.09447 0.30945 0.88496 0.0
O347 O 0.1143 0.29555 0.87545 0.0
O348 O 0.26946 0.3554 0.85629 0.0
Zn349 Zn 0.15979 0.34014 0.89137 0.0
N350 N 0.1958 0.33691 0.843 0.0
C351 C 0.14287 0.33601 0.83046 0.0
C352 C 0.16071 0.34021 0.8428 0.0
C353 C 0.21391 0.32927 0.83136 0.0
N354 N 0.16084 0.32834 0.81885 0.0
C355 C 0.19602 0.3246 0.81886 0.0
O356 O 0.18413 0.29358 0.88787 0.0
C357 C 0.20677 0.28055 0.87981 0.0
O358 O 0.21993 0.29804 0.87005 0.0
H359 H 0.14675 0.34615 0.85216 0.0
H360 H 0.24187 0.32736 0.83192 0.0
C361 C 0.16464 0.3579 0.92085 0.0
C362 C 0.18124 0.3748 0.9319 0.0
C363 C 0.22696 0.39164 0.91697 0.0
C364 C 0.21072 0.37471 0.90613 0.0
N365 N 0.17971 0.35866 0.90816 0.0
N366 N 0.21186 0.39138 0.92955 0.0
H367 H 0.13994 0.345 0.92224 0.0
C368 C 0.29188 0.35638 0.86587 0.0
O369 O 0.28149 0.35285 0.87867 0.0
O370 O 0.10801 0.33079 0.89339 0.0
H371 H 0.22256 0.37474 0.89605 0.0
H372 H 0.11494 0.33871 0.83011 0.0
H373 H 0.2514 0.40488 0.91542 0.0
Zn374 Zn 0.6729 0.21628 0.86082 0.0
C375 C 0.60629 0.15294 0.88009 0.0
N376 N 0.58243 0.17313 0.87398 0.0
C377 C 0.60199 0.19768 0.86802 0.0
N378 N 0.63607 0.193 0.8705 0.0
N379 N 0.63892 0.16488 0.87825 0.0
C380 C 0.70421 0.09135 0.8839 0.0
O381 O 0.71543 0.11157 0.87397 0.0
O382 O 0.66168 0.26625 0.85683 0.0
Zn383 Zn 0.6754 0.15617 0.89168 0.0
N384 N 0.67905 0.19262 0.84347 0.0
C385 C 0.67759 0.13988 0.83084 0.0
C386 C 0.67453 0.1577 0.84323 0.0
C387 C 0.68693 0.21054 0.83181 0.0
N388 N 0.68527 0.15768 0.81919 0.0
C389 C 0.69026 0.19265 0.81925 0.0
O390 O 0.72189 0.18068 0.88843 0.0
C391 C 0.73557 0.2032 0.8805 0.0
O392 O 0.71866 0.21664 0.87062 0.0
H393 H 0.66835 0.14387 0.85259 0.0
H394 H 0.68988 0.23839 0.83234 0.0
C395 C 0.65892 0.16004 0.92133 0.0
C396 C 0.64179 0.17567 0.93255 0.0
C397 C 0.62153 0.22033 0.91782 0.0
C398 C 0.63873 0.20511 0.90681 0.0
N399 N 0.65653 0.17501 0.90865 0.0
N400 N 0.62336 0.20526 0.93038 0.0
H401 H 0.67333 0.13617 0.92259 0.0
C402 C 0.65632 0.28796 0.86642 0.0
O403 O 0.65535 0.277 0.87921 0.0
O404 O 0.68508 0.10446 0.89322 0.0
H405 H 0.63755 0.21708 0.89679 0.0
H406 H 0.67387 0.1121 0.83046 0.0
H407 H 0.60688 0.24399 0.91642 0.0
Zn408 Zn 0.8553 0.33933 0.6179 0.0
C409 C 0.81762 0.41459 0.64189 0.0
N410 N 0.8431 0.43311 0.63599 0.0
C411 C 0.86124 0.40872 0.62926 0.0
N412 N 0.84747 0.37678 0.63085 0.0
N413 N 0.82 0.38052 0.63893 0.0
C414 C 0.72404 0.34648 0.64377 0.0
O415 O 0.73459 0.33662 0.63153 0.0
O416 O 0.90689 0.33145 0.615 0.0
Zn417 Zn 0.79744 0.34432 0.6495 0.0
N418 N 0.83215 0.3544 0.6013 0.0
C419 C 0.7782 0.37479 0.59267 0.0
C420 C 0.7984 0.36286 0.6035 0.0
C421 C 0.84678 0.35722 0.58858 0.0
N422 N 0.79249 0.37743 0.57999 0.0
C423 C 0.82624 0.36894 0.57745 0.0
O424 O 0.79989 0.29692 0.64114 0.0
C425 C 0.81305 0.27911 0.63146 0.0
O426 O 0.8335 0.29256 0.62265 0.0
H427 H 0.78735 0.36044 0.61368 0.0
H428 H 0.87387 0.35074 0.5873 0.0
C429 C 0.80202 0.33191 0.67855 0.0
C430 C 0.8186 0.33121 0.69146 0.0
C431 C 0.87041 0.35146 0.68087 0.0
C432 C 0.85392 0.35183 0.66813 0.0
N433 N 0.82006 0.34226 0.66723 0.0
N434 N 0.85245 0.34127 0.69218 0.0
H435 H 0.77497 0.32494 0.67746 0.0
C436 C 0.92177 0.3124 0.62392 0.0
O437 O 0.90331 0.30048 0.63426 0.0
O438 O 0.74648 0.35316 0.65297 0.0
H439 H 0.86791 0.35987 0.65903 0.0
H440 H 0.75131 0.38176 0.59429 0.0
H441 H 0.8973 0.35921 0.68179 0.0
Zn442 Zn 0.67082 0.79652 0.64814 0.0
C443 C 0.60679 0.86233 0.62908 0.0
N444 N 0.58234 0.84323 0.6354 0.0
C445 C 0.60102 0.81732 0.64088 0.0
N446 N 0.63509 0.82041 0.63805 0.0
N447 N 0.63888 0.84872 0.6305 0.0
C448 C 0.69339 0.92489 0.62582 0.0
O449 O 0.69415 0.90838 0.63764 0.0
O450 O 0.65989 0.74582 0.65054 0.0
Zn451 Zn 0.67599 0.85667 0.61732 0.0
N452 N 0.67324 0.81796 0.66609 0.0
C453 C 0.66515 0.86851 0.67971 0.0
C454 C 0.66514 0.85218 0.66695 0.0
C455 C 0.68181 0.79936 0.67751 0.0
N456 N 0.67346 0.85001 0.69111 0.0
C457 C 0.68202 0.81579 0.69044 0.0
O458 O 0.72249 0.83374 0.62159 0.0
C459 C 0.73588 0.81216 0.62998 0.0
O460 O 0.71817 0.79846 0.63958 0.0
H461 H 0.65844 0.8666 0.6578 0.0
H462 H 0.68767 0.77206 0.67648 0.0
C463 C 0.66032 0.85037 0.58774 0.0
C464 C 0.64423 0.83334 0.57661 0.0
C465 C 0.62663 0.78808 0.59159 0.0
C466 C 0.64275 0.80475 0.60253 0.0
N467 N 0.65876 0.83577 0.6005 0.0
N468 N 0.62762 0.80276 0.57894 0.0
H469 H 0.67322 0.87505 0.58635 0.0
C470 C 0.6675 0.72567 0.64066 0.0
O471 O 0.67942 0.73913 0.62917 0.0
O472 O 0.68515 0.90815 0.61503 0.0
H473 H 0.64214 0.79322 0.61264 0.0
H474 H 0.65854 0.89568 0.68057 0.0
H475 H 0.61341 0.76363 0.59313 0.0
Zn476 Zn 0.21945 0.66888 0.64874 0.0
C477 C 0.15883 0.60375 0.62724 0.0
N478 N 0.18051 0.57973 0.63237 0.0
C479 C 0.20414 0.59913 0.63897 0.0
N480 N 0.19749 0.63328 0.63786 0.0
N481 N 0.169 0.63637 0.63033 0.0
C482 C 0.09391 0.70333 0.62529 0.0
O483 O 0.11397 0.71607 0.63497 0.0
O484 O 0.27028 0.65923 0.65177 0.0
Zn485 Zn 0.15914 0.6746 0.61794 0.0
N486 N 0.1975 0.66875 0.66667 0.0
C487 C 0.15124 0.64957 0.681 0.0
C488 C 0.16603 0.65314 0.668 0.0
C489 C 0.21449 0.68169 0.67782 0.0
N490 N 0.16849 0.66177 0.69217 0.0
C491 C 0.19971 0.678 0.69096 0.0
O492 O 0.18235 0.72085 0.62253 0.0
C493 C 0.20359 0.73444 0.63101 0.0
O494 O 0.21736 0.7168 0.64063 0.0
H495 H 0.1528 0.64293 0.65908 0.0
H496 H 0.23971 0.69362 0.67651 0.0
C497 C 0.16294 0.65899 0.58817 0.0
C498 C 0.18007 0.6439 0.57684 0.0
C499 C 0.22842 0.63108 0.59105 0.0
C500 C 0.21161 0.64614 0.60219 0.0
N501 N 0.1791 0.6593 0.60065 0.0
N502 N 0.21227 0.63018 0.57869 0.0
H503 H 0.13702 0.66951 0.58717 0.0
C504 C 0.29153 0.65358 0.64204 0.0
O505 O 0.27991 0.65154 0.62937 0.0
O506 O 0.10724 0.68316 0.61637 0.0
H507 H 0.22413 0.6468 0.61212 0.0
H508 H 0.1264 0.63686 0.68224 0.0
H509 H 0.25409 0.62009 0.59222 0.0
Zn510 Zn 0.3396 0.15841 0.61757 0.0
C511 C 0.41121 0.19855 0.64259 0.0
N512 N 0.43111 0.17399 0.63681 0.0
C513 C 0.40771 0.15457 0.63005 0.0
N514 N 0.37512 0.16697 0.63137 0.0
N515 N 0.37747 0.19465 0.63937 0.0
C516 C 0.35563 0.29017 0.64385 0.0
O517 O 0.35338 0.28019 0.63096 0.0
O518 O 0.32931 0.10673 0.61615 0.0
Zn519 Zn 0.34019 0.2183 0.64851 0.0
N520 N 0.36007 0.17661 0.60079 0.0
C521 C 0.39604 0.2216 0.59195 0.0
C522 C 0.37789 0.20664 0.60277 0.0
C523 C 0.35863 0.16145 0.58813 0.0
N524 N 0.39511 0.20636 0.57941 0.0
C525 C 0.37672 0.17682 0.57708 0.0
O526 O 0.29585 0.22041 0.63782 0.0
C527 C 0.27969 0.20712 0.62772 0.0
O528 O 0.29351 0.18396 0.62013 0.0
H529 H 0.3783 0.21877 0.61278 0.0
H530 H 0.34419 0.13763 0.58675 0.0
C531 C 0.32315 0.21043 0.67718 0.0
C532 C 0.31655 0.19136 0.68927 0.0
C533 C 0.32579 0.13917 0.67676 0.0
C534 C 0.33233 0.1582 0.66488 0.0
N535 N 0.33093 0.19336 0.66532 0.0
N536 N 0.31805 0.1561 0.6886 0.0
H537 H 0.32154 0.23841 0.67702 0.0
C538 C 0.30679 0.09434 0.62439 0.0
O539 O 0.29197 0.11528 0.63328 0.0
O540 O 0.35258 0.26763 0.65331 0.0
H541 H 0.33838 0.14509 0.65535 0.0
H542 H 0.41069 0.24521 0.59347 0.0
H543 H 0.32675 0.11114 0.67659 0.0
C544 C 0.16913 0.35841 0.05652 0.0
C545 C 0.13741 0.34963 0.0627 0.0
C546 C 0.17077 0.36515 0.04237 0.0
C547 C 0.12106 0.34745 0.01026 0.0
H548 H 0.18944 0.40885 0.99419 0.0
C549 C 0.15575 0.34408 0.95231 0.0
C550 C 0.16729 0.3748 0.94607 0.0
C551 C 0.14861 0.34329 0.96643 0.0
C552 C 0.16973 0.39198 0.99845 0.0
H553 H 0.08231 0.34303 0.05921 0.0
H554 H 0.08473 0.35645 0.03477 0.0
H555 H 0.18362 0.40594 0.01901 0.0
H556 H 0.17837 0.42916 0.94942 0.0
H557 H 0.16427 0.42835 0.97382 0.0
H558 H 0.10639 0.33432 0.9897 0.0
C559 C 0.10865 0.35686 0.04061 0.0
C560 C 0.16681 0.38989 0.01276 0.0
C561 C 0.10715 0.34956 0.05466 0.0
C562 C 0.16971 0.40507 0.95401 0.0
C563 C 0.162 0.40446 0.96804 0.0
C564 C 0.12367 0.34988 0.99595 0.0
C565 C 0.14062 0.36368 0.03416 0.0
C566 C 0.14264 0.36737 0.01889 0.0
C567 C 0.15241 0.37334 0.97456 0.0
C568 C 0.14826 0.37194 0.98982 0.0
H569 H 0.19295 0.3581 0.06243 0.0
H570 H 0.19594 0.3699 0.0378 0.0
H571 H 0.10251 0.32932 0.01453 0.0
H572 H 0.1542 0.32024 0.94645 0.0
H573 H 0.14168 0.31872 0.97106 0.0
C574 C 0.66453 0.10576 0.05505 0.0
C575 C 0.66616 0.13584 0.06317 0.0
C576 C 0.65839 0.10799 0.04093 0.0
C577 C 0.67443 0.16496 0.01208 0.0
H578 H 0.60893 0.10722 0.99223 0.0
C579 C 0.67558 0.15358 0.95279 0.0
C580 C 0.64358 0.1619 0.94671 0.0
C581 C 0.67761 0.14716 0.96695 0.0
C582 C 0.62741 0.12337 0.99766 0.0
H583 H 0.66208 0.19185 0.06296 0.0
H584 H 0.65186 0.19584 0.03809 0.0
H585 H 0.6113 0.10447 0.01742 0.0
H586 H 0.58851 0.16832 0.95042 0.0
H587 H 0.5919 0.15596 0.97504 0.0
H588 H 0.69085 0.18355 0.99235 0.0
C589 C 0.65499 0.17052 0.04275 0.0
C590 C 0.62875 0.12182 0.01203 0.0
C591 C 0.66047 0.16823 0.05697 0.0
C592 C 0.61347 0.1618 0.95487 0.0
C593 C 0.61539 0.15471 0.96893 0.0
C594 C 0.67352 0.16605 0.99771 0.0
C595 C 0.65448 0.14043 0.03458 0.0
C596 C 0.65212 0.14278 0.01938 0.0
C597 C 0.64759 0.14832 0.97518 0.0
C598 C 0.64991 0.14538 0.99037 0.0
H599 H 0.66896 0.08048 0.05959 0.0
H600 H 0.65831 0.08443 0.03487 0.0
H601 H 0.69297 0.18108 0.01749 0.0
H602 H 0.69923 0.15398 0.94676 0.0
H603 H 0.70273 0.14211 0.97154 0.0
C604 C 0.84205 0.60922 0.95418 0.0
C605 C 0.84775 0.63807 0.94565 0.0
C606 C 0.84926 0.61083 0.96823 0.0
C607 C 0.8925 0.66388 0.99532 0.0
H608 H 0.82223 0.62286 0.01884 0.0
C609 C 0.87427 0.70409 0.05168 0.0
C610 C 0.86831 0.6783 0.06168 0.0
C611 C 0.87462 0.69606 0.03771 0.0
C612 C 0.84235 0.63398 0.01243 0.0
H613 H 0.86644 0.69103 0.94512 0.0
H614 H 0.87855 0.69417 0.96973 0.0
H615 H 0.8189 0.61485 0.99403 0.0
H616 H 0.8584 0.6232 0.06444 0.0
H617 H 0.85822 0.6095 0.03993 0.0
H618 H 0.9152 0.68399 0.01377 0.0
C619 C 0.86915 0.66995 0.96551 0.0
C620 C 0.84054 0.62937 0.99818 0.0
C621 C 0.86226 0.66819 0.95138 0.0
C622 C 0.86246 0.64406 0.05718 0.0
C623 C 0.86254 0.63607 0.0431 0.0
C624 C 0.89417 0.66868 0.00956 0.0
C625 C 0.8619 0.64155 0.97418 0.0
C626 C 0.86537 0.64459 0.98941 0.0
C627 C 0.86888 0.662 0.03323 0.0
C628 C 0.86884 0.65419 0.01826 0.0
H629 H 0.83114 0.58554 0.95003 0.0
H630 H 0.84417 0.58817 0.97449 0.0
H631 H 0.91241 0.67546 0.98894 0.0
H632 H 0.87856 0.73084 0.05458 0.0
H633 H 0.8789 0.71676 0.03037 0.0
C634 C 0.33992 0.85948 0.95238 0.0
C635 C 0.37032 0.84758 0.94601 0.0
C636 C 0.33966 0.86664 0.96651 0.0
C637 C 0.38946 0.84481 0.99825 0.0
H638 H 0.32592 0.91031 0.01486 0.0
C639 C 0.35626 0.8416 0.0563 0.0
C640 C 0.34628 0.87256 0.06274 0.0
C641 C 0.36316 0.84104 0.04215 0.0
C642 C 0.34434 0.89227 0.01046 0.0
H643 H 0.42471 0.8359 0.94906 0.0
H644 H 0.42495 0.8503 0.97344 0.0
H645 H 0.33086 0.90771 0.99003 0.0
H646 H 0.33771 0.9275 0.05976 0.0
H647 H 0.3516 0.92707 0.03534 0.0
H648 H 0.40387 0.83024 0.01868 0.0
C649 C 0.40085 0.85277 0.9678 0.0
C650 C 0.34672 0.89037 0.99612 0.0
C651 C 0.40089 0.84494 0.95378 0.0
C652 C 0.34519 0.90323 0.05499 0.0
C653 C 0.35276 0.90285 0.04095 0.0
C654 C 0.38749 0.84709 0.01258 0.0
C655 C 0.36997 0.86254 0.97449 0.0
C656 C 0.36899 0.86632 0.98979 0.0
C657 C 0.36074 0.87157 0.03421 0.0
C658 C 0.36459 0.87055 0.01891 0.0
H659 H 0.31588 0.86118 0.94664 0.0
H660 H 0.31524 0.8737 0.97125 0.0
H661 H 0.40652 0.82548 0.99385 0.0
H662 H 0.35675 0.81749 0.06201 0.0
H663 H 0.36879 0.81633 0.03737 0.0
C664 C 0.10727 0.66597 0.45402 0.0
C665 C 0.13791 0.66489 0.44623 0.0
C666 C 0.1078 0.65851 0.46807 0.0
C667 C 0.16394 0.6242 0.49641 0.0
H668 H 0.10373 0.68131 0.51895 0.0
C669 C 0.16724 0.61203 0.55523 0.0
C670 C 0.16493 0.64274 0.5629 0.0
C671 C 0.15902 0.61177 0.54125 0.0
C672 C 0.12096 0.66531 0.51286 0.0
H673 H 0.19307 0.65448 0.44689 0.0
H674 H 0.19447 0.64258 0.47154 0.0
H675 H 0.10072 0.68577 0.49411 0.0
H676 H 0.15148 0.69715 0.56213 0.0
H677 H 0.13827 0.69726 0.53757 0.0
H678 H 0.18585 0.6055 0.51515 0.0
C679 C 0.16968 0.64814 0.46679 0.0
C680 C 0.11882 0.66741 0.49852 0.0
C681 C 0.16898 0.65495 0.45264 0.0
C682 C 0.15293 0.673 0.55647 0.0
C683 C 0.14537 0.67296 0.54237 0.0
C684 C 0.16645 0.6225 0.51074 0.0
C685 C 0.1392 0.65062 0.47477 0.0
C686 C 0.1404 0.64701 0.49007 0.0
C687 C 0.14918 0.64249 0.53448 0.0
C688 C 0.14511 0.64314 0.5192 0.0
H689 H 0.08293 0.67344 0.44929 0.0
H690 H 0.08362 0.65971 0.47372 0.0
H691 H 0.18069 0.60771 0.49032 0.0
H692 H 0.17635 0.58832 0.56 0.0
H693 H 0.16128 0.58756 0.53569 0.0
C694 C 0.34457 0.15342 0.55663 0.0
C695 C 0.37595 0.1629 0.56292 0.0
C696 C 0.34339 0.14667 0.54248 0.0
C697 C 0.39333 0.16585 0.51056 0.0
H698 H 0.32682 0.10302 0.49415 0.0
C699 C 0.35955 0.16916 0.45251 0.0
C700 C 0.3489 0.13824 0.44618 0.0
C701 C 0.3665 0.16993 0.46665 0.0
C702 C 0.34601 0.12032 0.49851 0.0
H703 H 0.43098 0.17067 0.55961 0.0
H704 H 0.42937 0.15726 0.53516 0.0
H705 H 0.33201 0.10577 0.519 0.0
H706 H 0.33927 0.08354 0.44941 0.0
H707 H 0.35304 0.08438 0.47383 0.0
H708 H 0.40809 0.17962 0.49007 0.0
C709 C 0.40535 0.1563 0.54093 0.0
C710 C 0.34857 0.1223 0.51284 0.0
C711 C 0.40639 0.16359 0.55498 0.0
C712 C 0.34724 0.10779 0.45407 0.0
C713 C 0.35475 0.1084 0.46811 0.0
C714 C 0.39108 0.16356 0.49623 0.0
C715 C 0.37368 0.14885 0.53437 0.0
C716 C 0.37206 0.14531 0.51908 0.0
C717 C 0.36337 0.13968 0.47471 0.0
C718 C 0.36717 0.14098 0.48999 0.0
H719 H 0.32062 0.15324 0.56247 0.0
H720 H 0.31843 0.1414 0.53782 0.0
H721 H 0.41135 0.18437 0.51492 0.0
H722 H 0.3605 0.19312 0.4467 0.0
H723 H 0.37269 0.19462 0.47134 0.0
C724 C 0.82042 0.39186 0.5535 0.0
C725 C 0.83912 0.37164 0.56301 0.0
C726 C 0.82873 0.39148 0.53954 0.0
C727 C 0.87078 0.33475 0.51392 0.0
H728 H 0.84929 0.41117 0.48942 0.0
C729 C 0.84595 0.31042 0.45692 0.0
C730 C 0.85778 0.33436 0.44711 0.0
C731 C 0.84702 0.31819 0.4709 0.0
C732 C 0.85589 0.38968 0.4961 0.0
H733 H 0.88271 0.33619 0.56505 0.0
H734 H 0.89802 0.3367 0.54082 0.0
H735 H 0.84899 0.42039 0.51422 0.0
H736 H 0.87957 0.38563 0.44424 0.0
H737 H 0.88205 0.3992 0.46887 0.0
H738 H 0.87845 0.30424 0.49587 0.0
C739 C 0.87623 0.35228 0.54418 0.0
C740 C 0.85531 0.39484 0.51036 0.0
C741 C 0.8677 0.35239 0.5582 0.0
C742 C 0.86991 0.36682 0.45158 0.0
C743 C 0.87139 0.37451 0.46569 0.0
C744 C 0.87173 0.32972 0.49971 0.0
C745 C 0.85625 0.37109 0.5346 0.0
C746 C 0.8618 0.36718 0.51948 0.0
C747 C 0.86053 0.34995 0.47553 0.0
C748 C 0.86325 0.35679 0.4906 0.0
H749 H 0.79843 0.40732 0.55675 0.0
H750 H 0.81236 0.40599 0.53255 0.0
H751 H 0.87567 0.31269 0.52052 0.0
H752 H 0.83606 0.28534 0.45377 0.0
H753 H 0.83732 0.29906 0.47809 0.0
C754 C 0.6659 0.90234 0.45412 0.0
C755 C 0.66675 0.87221 0.44601 0.0
C756 C 0.65946 0.90029 0.46823 0.0
C757 C 0.6747 0.84361 0.49702 0.0
H758 H 0.60898 0.90095 0.51694 0.0
C759 C 0.67673 0.85643 0.55624 0.0
C760 C 0.6452 0.8468 0.5624 0.0
C761 C 0.67829 0.86277 0.54207 0.0
C762 C 0.62752 0.88494 0.51148 0.0
H763 H 0.66097 0.81637 0.4462 0.0
H764 H 0.6504 0.81266 0.47106 0.0
H765 H 0.61123 0.90375 0.49172 0.0
H766 H 0.59042 0.83795 0.55884 0.0
H767 H 0.59292 0.85029 0.53419 0.0
H768 H 0.69145 0.82524 0.51674 0.0
C769 C 0.65426 0.83788 0.4664 0.0
C770 C 0.62877 0.88649 0.49711 0.0
C771 C 0.65997 0.84001 0.45219 0.0
C772 C 0.615 0.84549 0.55432 0.0
C773 C 0.61641 0.85257 0.54025 0.0
C774 C 0.67394 0.84258 0.51138 0.0
C775 C 0.65454 0.86797 0.47456 0.0
C776 C 0.65222 0.86565 0.48975 0.0
C777 C 0.64822 0.86028 0.53392 0.0
C778 C 0.65026 0.86312 0.51874 0.0
H779 H 0.6712 0.92746 0.44959 0.0
H780 H 0.65999 0.92383 0.47431 0.0
H781 H 0.69329 0.82758 0.49158 0.0
H782 H 0.70045 0.85713 0.56221 0.0
H783 H 0.7031 0.8688 0.53741 0.0
C784 C 0.25829 0.9372 0.13857 0.0
C785 C 0.28542 0.92885 0.14756 0.0
C786 C 0.23398 0.96249 0.14212 0.0
C787 C 0.23282 0.04169 0.16314 0.0
H788 H 0.14315 0.05355 0.14565 0.0
C789 C 0.16759 0.17527 0.16118 0.0
C790 C 0.15989 0.18578 0.14766 0.0
C791 C 0.17401 0.14037 0.16415 0.0
C792 C 0.16805 0.05052 0.15069 0.0
H793 H 0.30764 0.93843 0.16759 0.0
H794 H 0.26424 0.98173 0.1742 0.0
H795 H 0.1697 0.99605 0.1465 0.0
H796 H 0.15015 0.16756 0.12693 0.0
H797 H 0.16116 0.10669 0.13214 0.0
H798 H 0.23152 0.09621 0.16703 0.0
C799 C 0.26192 0.9693 0.16426 0.0
C800 C 0.18336 0.0176 0.15115 0.0
C801 C 0.28649 0.94416 0.16061 0.0
C802 C 0.15627 0.16035 0.13742 0.0
C803 C 0.16235 0.12541 0.14042 0.0
C804 C 0.21731 0.0744 0.16283 0.0
C805 C 0.23648 0.98016 0.15475 0.0
C806 C 0.2166 0.01298 0.15691 0.0
C807 C 0.17245 0.11521 0.15372 0.0
C808 C 0.18535 0.07943 0.15619 0.0
H809 H 0.25768 0.92639 0.12828 0.0
H810 H 0.21524 0.9702 0.13441 0.0
H811 H 0.25861 0.03958 0.16746 0.0
H812 H 0.17041 0.19418 0.16934 0.0
H813 H 0.18141 0.13322 0.17452 0.0
C814 C 0.0706 0.2852 0.16184 0.0
C815 C 0.08656 0.28409 0.14891 0.0
C816 C 0.04556 0.26044 0.16538 0.0
C817 C 0.99717 0.18246 0.1516 0.0
H818 H 0.91859 0.23056 0.16759 0.0
C819 C 0.85401 0.16053 0.13675 0.0
C820 C 0.82856 0.16237 0.14707 0.0
C821 C 0.88904 0.16559 0.13994 0.0
C822 C 0.9404 0.2164 0.16335 0.0
H823 H 0.09058 0.25584 0.1298 0.0
H824 H 0.04664 0.21336 0.13565 0.0
H825 H 0.97555 0.2569 0.16853 0.0
H826 H 0.82009 0.16893 0.16898 0.0
H827 H 0.88125 0.17849 0.17449 0.0
H828 H 0.96072 0.1433 0.14545 0.0
C829 C 0.05378 0.23222 0.14338 0.0
C830 C 0.97333 0.23143 0.16395 0.0
C831 C 0.07916 0.25659 0.13998 0.0
C832 C 0.83906 0.16743 0.16078 0.0
C833 C 0.87404 0.17299 0.16394 0.0
C834 C 0.964 0.16773 0.15079 0.0
C835 C 0.03524 0.23489 0.15583 0.0
C836 C 1.00208 0.21526 0.15769 0.0
C837 C 0.89926 0.17302 0.1535 0.0
C838 C 0.93516 0.18505 0.15633 0.0
H839 H 0.07565 0.30658 0.16878 0.0
H840 H 0.03267 0.26282 0.17523 0.0
H841 H 0.01869 0.16874 0.14695 0.0
H842 H 0.84676 0.15648 0.12611 0.0
H843 H 0.90786 0.16573 0.13167 0.0
C844 C 0.83566 0.83602 0.15783 0.0
C845 C 0.84906 0.82341 0.14537 0.0
C846 C 0.82984 0.87154 0.15964 0.0
C847 C 0.81545 0.95013 0.13829 0.0
H848 H 0.8069 0.99457 0.1739 0.0
C849 C 0.75577 0.08407 0.14159 0.0
C850 C 0.7257 0.08385 0.14972 0.0
C851 C 0.78106 0.05844 0.14326 0.0
C852 C 0.80952 0.98257 0.16389 0.0
H853 H 0.86983 0.83806 0.12552 0.0
H854 H 0.86171 0.9001 0.12891 0.0
H855 H 0.83354 0.93715 0.17224 0.0
H856 H 0.69911 0.05802 0.1664 0.0
H857 H 0.7435 0.01335 0.1695 0.0
H858 H 0.79119 0.99528 0.12998 0.0
C859 C 0.85396 0.88267 0.13708 0.0
C860 C 0.8245 0.94953 0.16291 0.0
C861 C 0.85894 0.8471 0.13515 0.0
C862 C 0.72256 0.05923 0.16026 0.0
C863 C 0.74794 0.03363 0.162 0.0
C864 C 0.80111 0.98325 0.13925 0.0
C865 C 0.838 0.89535 0.14912 0.0
C866 C 0.82681 0.93241 0.15013 0.0
C867 C 0.77648 0.03191 0.15301 0.0
C868 C 0.7972 0.99952 0.15207 0.0
H869 H 0.82769 0.81827 0.16587 0.0
H870 H 0.8172 0.87994 0.169 0.0
H871 H 0.81584 0.93785 0.12829 0.0
H872 H 0.75804 0.10178 0.13299 0.0
H873 H 0.80281 0.05779 0.1362 0.0
C874 C 0.16217 0.86719 0.13518 0.0
C875 C 0.18613 0.85599 0.1451 0.0
C876 C 0.12665 0.86108 0.13696 0.0
C877 C 0.06046 0.8262 0.16197 0.0
H878 H 0.01616 0.79508 0.1284 0.0
C879 C 0.95414 0.72115 0.15786 0.0
C880 C 0.92946 0.72422 0.14733 0.0
C881 C 0.97903 0.74711 0.15985 0.0
C882 C 0.02775 0.80436 0.13786 0.0
H883 H 0.19157 0.83123 0.16501 0.0
H884 H 0.13016 0.81915 0.16783 0.0
H885 H 0.07265 0.82222 0.12724 0.0
H886 H 0.91104 0.75672 0.13076 0.0
H887 H 0.95355 0.8026 0.13448 0.0
H888 H 0.01603 0.80569 0.17258 0.0
C889 C 0.13831 0.83351 0.15883 0.0
C890 C 0.06031 0.82011 0.13721 0.0
C891 C 0.17372 0.84025 0.15717 0.0
C892 C 0.92864 0.75455 0.13939 0.0
C893 C 0.9535 0.78046 0.14134 0.0
C894 C 0.02798 0.8099 0.16263 0.0
C895 C 0.11433 0.8429 0.14855 0.0
C896 C 0.07756 0.83062 0.14926 0.0
C897 C 0.97999 0.7762 0.15113 0.0
C898 C 0.01159 0.79826 0.15058 0.0
H899 H 0.17095 0.87984 0.12586 0.0
H900 H 0.10899 0.86968 0.129 0.0
H901 H 0.0725 0.83455 0.17147 0.0
H902 H 0.95584 0.69749 0.16384 0.0
H903 H 0.99932 0.74287 0.16738 0.0
C904 C 0.28504 0.06799 0.34853 0.0
C905 C 0.28486 0.08306 0.36162 0.0
C906 C 0.26043 0.04267 0.34511 0.0
C907 C 0.18309 0.99375 0.35898 0.0
H908 H 0.23027 0.91556 0.34233 0.0
C909 C 0.15618 0.85061 0.3723 0.0
C910 C 0.15885 0.82553 0.36187 0.0
C911 C 0.16254 0.88559 0.36945 0.0
C912 C 0.21634 0.93725 0.34675 0.0
H913 H 0.25868 0.0848 0.38126 0.0
H914 H 0.21612 0.04081 0.37551 0.0
H915 H 0.25724 0.97228 0.34179 0.0
H916 H 0.16812 0.81785 0.34007 0.0
H917 H 0.1796 0.87887 0.33515 0.0
H918 H 0.14331 0.95763 0.36478 0.0
C919 C 0.23418 0.04883 0.3676 0.0
C920 C 0.23176 0.97002 0.34639 0.0
C921 C 0.25856 0.07424 0.37093 0.0
C922 C 0.16601 0.83647 0.34836 0.0
C923 C 0.17272 0.8714 0.34554 0.0
C924 C 0.16787 0.9608 0.3595 0.0
C925 C 0.23581 0.03143 0.35489 0.0
C926 C 0.21591 0.99857 0.35287 0.0
C927 C 0.17197 0.8962 0.35613 0.0
C928 C 0.18482 0.93203 0.35372 0.0
H929 H 0.30559 0.07403 0.3413 0.0
H930 H 0.26208 0.03042 0.33511 0.0
H931 H 0.1697 0.01519 0.36383 0.0
H932 H 0.15053 0.84307 0.3828 0.0
H933 H 0.162 0.90402 0.37785 0.0
C934 C 0.16261 0.14113 0.3733 0.0
C935 C 0.18624 0.15354 0.36348 0.0
C936 C 0.12695 0.14641 0.37159 0.0
C937 C 0.05991 0.18156 0.347 0.0
H938 H 0.01573 0.21059 0.3809 0.0
C939 C 0.95517 0.28727 0.35216 0.0
C940 C 0.93043 0.28404 0.36266 0.0
C941 C 0.97949 0.26094 0.34992 0.0
C942 C 0.02727 0.20186 0.37134 0.0
H943 H 0.19101 0.17951 0.34379 0.0
H944 H 0.12931 0.19017 0.3411 0.0
H945 H 0.07232 0.1836 0.38174 0.0
H946 H 0.91096 0.25084 0.37882 0.0
H947 H 0.95284 0.20441 0.37474 0.0
H948 H 0.0154 0.20258 0.33663 0.0
C949 C 0.13784 0.1755 0.34996 0.0
C950 C 0.05989 0.1862 0.37181 0.0
C951 C 0.17342 0.16958 0.35154 0.0
C952 C 0.92887 0.25324 0.37029 0.0
C953 C 0.95324 0.22697 0.36811 0.0
C954 C 0.02738 0.19777 0.34653 0.0
C955 C 0.11414 0.16495 0.36017 0.0
C956 C 0.07716 0.17659 0.35964 0.0
C957 C 0.97984 0.23132 0.35835 0.0
C958 C 0.01108 0.20876 0.35869 0.0
H959 H 0.17176 0.1282 0.3825 0.0
H960 H 0.10954 0.13694 0.37948 0.0
H961 H 0.07195 0.17387 0.33741 0.0
H962 H 0.95736 0.31125 0.34642 0.0
H963 H 0.99988 0.26525 0.34244 0.0
C964 C 0.75204 0.93586 0.36875 0.0
C965 C 0.72409 0.92913 0.35994 0.0
C966 C 0.77633 0.96139 0.36545 0.0
C967 C 0.77721 0.0428 0.34542 0.0
H968 H 0.86619 0.05361 0.36355 0.0
C969 C 0.84424 0.1755 0.34855 0.0
C970 C 0.84898 0.18591 0.36229 0.0
C971 C 0.83805 0.14068 0.34537 0.0
C972 C 0.84154 0.05081 0.35831 0.0
H973 H 0.70065 0.94145 0.34037 0.0
H974 H 0.7443 0.98464 0.33406 0.0
H975 H 0.83989 0.99611 0.36189 0.0
H976 H 0.85369 0.16773 0.3833 0.0
H977 H 0.84347 0.10683 0.3777 0.0
H978 H 0.77885 0.09754 0.34197 0.0
C979 C 0.74706 0.97118 0.34376 0.0
C980 C 0.82628 0.01792 0.35742 0.0
C981 C 0.72234 0.94604 0.34723 0.0
C982 C 0.84989 0.16051 0.37264 0.0
C983 C 0.84429 0.12562 0.36942 0.0
C984 C 0.79279 0.07543 0.34607 0.0
C985 C 0.77319 0.9807 0.35321 0.0
C986 C 0.79318 0.01367 0.35146 0.0
C987 C 0.83716 0.11555 0.35583 0.0
C988 C 0.82447 0.07999 0.35295 0.0
H989 H 0.7533 0.92365 0.37878 0.0
H990 H 0.79561 0.9679 0.37312 0.0
H991 H 0.75154 0.0411 0.34096 0.0
H992 H 0.84342 0.19446 0.34034 0.0
H993 H 0.83274 0.13355 0.3348 0.0
C994 C 0.06709 0.7276 0.34861 0.0
C995 C 0.08332 0.72873 0.36148 0.0
C996 C 0.04204 0.75241 0.34513 0.0
C997 C 0.99472 0.83116 0.35877 0.0
H998 H 0.91541 0.78394 0.34294 0.0
C999 C 0.85152 0.85828 0.37267 0.0
C1000 C 0.82633 0.85582 0.36226 0.0
C1001 C 0.88653 0.85202 0.36975 0.0
C1002 C 0.93742 0.79785 0.34714 0.0
H1003 H 0.08785 0.75708 0.38055 0.0
H1004 H 0.04391 0.79972 0.3748 0.0
H1005 H 0.97188 0.75651 0.34225 0.0
H1006 H 0.81847 0.84709 0.34043 0.0
H1007 H 0.8795 0.83565 0.33541 0.0
H1008 H 0.959 0.87133 0.36456 0.0
C1009 C 0.05081 0.78075 0.36707 0.0
C1010 C 0.97007 0.78218 0.34668 0.0
C1011 C 0.07617 0.7563 0.37042 0.0
C1012 C 0.83718 0.84906 0.34871 0.0
C1013 C 0.87211 0.84238 0.34582 0.0
C1014 C 0.96183 0.84658 0.35942 0.0
C1015 C 0.03204 0.77809 0.35468 0.0
C1016 C 0.99909 0.79809 0.35284 0.0
C1017 C 0.897 0.84282 0.35638 0.0
C1018 C 0.93271 0.82965 0.35391 0.0
H1019 H 0.07196 0.70618 0.34166 0.0
H1020 H 0.02894 0.75003 0.33533 0.0
H1021 H 0.01646 0.84465 0.36336 0.0
H1022 H 0.84404 0.86363 0.3832 0.0
H1023 H 0.90508 0.85233 0.37812 0.0
C1024 C 0.77163 0.78135 0.87253 0.0
C1025 C 0.79874 0.76828 0.88073 0.0
C1026 C 0.76108 0.81586 0.87363 0.0
C1027 C 0.76404 0.89354 0.8961 0.0
H1028 H 0.74225 0.94121 0.86206 0.0
C1029 C 0.70209 0.03151 0.8944 0.0
C1030 C 0.71448 0.05422 0.8842 0.0
C1031 C 0.71234 0.99657 0.89453 0.0
C1032 C 0.74845 0.92846 0.87168 0.0
H1033 H 0.83556 0.7815 0.89676 0.0
H1034 H 0.81732 0.84217 0.89858 0.0
H1035 H 0.76114 0.88118 0.8614 0.0
H1036 H 0.74763 0.05793 0.86621 0.0
H1037 H 0.76558 0.99761 0.86652 0.0
H1038 H 0.75194 0.94136 0.90632 0.0
C1039 C 0.80404 0.8254 0.89136 0.0
C1040 C 0.75891 0.89379 0.87131 0.0
C1041 C 0.81463 0.79066 0.89027 0.0
C1042 C 0.73736 0.04121 0.87418 0.0
C1043 C 0.74757 0.00646 0.87432 0.0
C1044 C 0.75349 0.92837 0.89647 0.0
C1045 C 0.77734 0.83853 0.88293 0.0
C1046 C 0.76678 0.87577 0.8835 0.0
C1047 C 0.73512 0.98358 0.88444 0.0
C1048 C 0.74565 0.9463 0.88424 0.0
H1049 H 0.75843 0.76492 0.86516 0.0
H1050 H 0.73995 0.82475 0.86718 0.0
H1051 H 0.76961 0.88043 0.9057 0.0
H1052 H 0.68438 0.04065 0.90225 0.0
H1053 H 0.70195 0.97963 0.9024 0.0
C1054 C 0.98203 0.69546 0.89308 0.0
C1055 C 0.95827 0.7123 0.88436 0.0
C1056 C 0.01693 0.70585 0.89345 0.0
C1057 C 0.07429 0.78026 0.88544 0.0
H1058 H 0.14756 0.71147 0.88412 0.0
C1059 C 0.22055 0.81637 0.88887 0.0
C1060 C 0.24262 0.79964 0.87944 0.0
C1061 C 0.18597 0.8057 0.89042 0.0
C1062 C 0.12739 0.73101 0.88447 0.0
H1063 H 0.95264 0.75329 0.86923 0.0
H1064 H 0.0131 0.77132 0.86993 0.0
H1065 H 0.08698 0.69281 0.88511 0.0
H1066 H 0.24538 0.75837 0.86428 0.0
H1067 H 0.18538 0.73996 0.867 0.0
H1068 H 0.11463 0.81846 0.88455 0.0
C1069 C 1.00484 0.75029 0.87655 0.0
C1070 C 0.09269 0.7203 0.88518 0.0
C1071 C 0.97017 0.73973 0.87608 0.0
C1072 C 0.22923 0.77196 0.87164 0.0
C1073 C 0.19483 0.76116 0.87327 0.0
C1074 C 0.10898 0.79097 0.88485 0.0
C1075 C 0.02868 0.73354 0.88524 0.0
C1076 C 0.06569 0.7448 0.88547 0.0
C1077 C 0.17275 0.77785 0.88267 0.0
C1078 C 0.13595 0.76648 0.88417 0.0
H1079 H 0.97372 0.67416 0.89955 0.0
H1080 H 0.03463 0.6925 0.9003 0.0
H1081 H 0.05413 0.79981 0.8858 0.0
H1082 H 0.22995 0.83774 0.89506 0.0
H1083 H 0.16969 0.81899 0.89782 0.0
C1084 C 0.24636 0.23138 0.87374 0.0
C1085 C 0.21833 0.24399 0.88156 0.0
C1086 C 0.25692 0.19688 0.87478 0.0
C1087 C 0.25161 0.11792 0.89647 0.0
H1088 H 0.27666 0.07233 0.86235 0.0
C1089 C 0.31342 0.97995 0.89436 0.0
C1090 C 0.302 0.95795 0.88375 0.0
C1091 C 0.30323 0.01488 0.89469 0.0
C1092 C 0.26954 0.08449 0.87198 0.0
H1093 H 0.17992 0.22997 0.89689 0.0
H1094 H 0.19817 0.16927 0.89858 0.0
H1095 H 0.25794 0.13241 0.86197 0.0
H1096 H 0.27062 0.95548 0.86524 0.0
H1097 H 0.25274 0.0158 0.86589 0.0
H1098 H 0.26259 0.06944 0.90641 0.0
C1099 C 0.21215 0.18641 0.89172 0.0
C1100 C 0.25918 0.11919 0.87179 0.0
C1101 C 0.20158 0.22117 0.8907 0.0
C1102 C 0.28014 0.97166 0.87352 0.0
C1103 C 0.26998 0.0064 0.87386 0.0
C1104 C 0.26204 0.08306 0.89667 0.0
C1105 C 0.23972 0.17374 0.88363 0.0
C1106 C 0.25016 0.13646 0.88402 0.0
C1107 C 0.28147 0.02858 0.88439 0.0
C1108 C 0.27105 0.06587 0.8844 0.0
H1109 H 0.26026 0.24818 0.8667 0.0
H1110 H 0.27872 0.18833 0.86862 0.0
H1111 H 0.2451 0.13045 0.9061 0.0
H1112 H 0.33032 0.97024 0.90239 0.0
H1113 H 0.31286 0.03128 0.90288 0.0
C1114 C 0.0446 0.2718 0.87793 0.0
C1115 C 0.05732 0.29936 0.88594 0.0
C1116 C 0.00986 0.2616 0.87882 0.0
C1117 C 0.92286 0.29275 0.88842 0.0
H1118 H 0.89972 0.19487 0.8877 0.0
C1119 C 0.7855 0.24289 0.8753 0.0
C1120 C 0.77211 0.21451 0.8827 0.0
C1121 C 0.81986 0.25362 0.87709 0.0
C1122 C 0.90569 0.2223 0.88805 0.0
H1123 H 0.04323 0.33807 0.90111 0.0
H1124 H 0.98226 0.32032 0.90261 0.0
H1125 H 0.96047 0.21278 0.88844 0.0
H1126 H 0.78466 0.17531 0.8979 0.0
H1127 H 0.8449 0.194 0.90097 0.0
H1128 H 0.86806 0.30225 0.88793 0.0
C1129 C 0.99934 0.30661 0.89563 0.0
C1130 C 0.94054 0.23258 0.88833 0.0
C1131 C 0.03429 0.31668 0.89482 0.0
C1132 C 0.79406 0.19724 0.89202 0.0
C1133 C 0.82864 0.20785 0.89374 0.0
C1134 C 0.88799 0.28246 0.88805 0.0
C1135 C 0.98674 0.2788 0.88768 0.0
C1136 C 0.9496 0.26794 0.88835 0.0
C1137 C 0.84196 0.23619 0.88628 0.0
C1138 C 0.87896 0.2471 0.88769 0.0
H1139 H 0.06153 0.25788 0.87096 0.0
H1140 H 1.00097 0.24049 0.87238 0.0
H1141 H 0.92887 0.32018 0.88835 0.0
H1142 H 0.76946 0.25693 0.86804 0.0
H1143 H 0.82933 0.27521 0.87104 0.0
C1144 C 0.80774 0.22359 0.61792 0.0
C1145 C 0.80274 0.24211 0.63022 0.0
C1146 C 0.79544 0.18952 0.61658 0.0
C1147 C 0.73231 0.12816 0.6326 0.0
H1148 H 0.783 0.0584 0.6121 0.0
C1149 C 0.70398 0.98187 0.63734 0.0
C1150 C 0.70298 0.96209 0.62521 0.0
C1151 C 0.71463 0.0165 0.63705 0.0
C1152 C 0.76837 0.07773 0.61773 0.0
H1153 H 0.78211 0.2387 0.65095 0.0
H1154 H 0.76184 0.17941 0.64879 0.0
H1155 H 0.8058 0.11743 0.61352 0.0
H1156 H 0.7121 0.96328 0.60321 0.0
H1157 H 0.73129 0.02389 0.60274 0.0
H1158 H 0.69545 0.08818 0.63713 0.0
C1159 C 0.77417 0.19137 0.63997 0.0
C1160 C 0.78139 0.11162 0.61853 0.0
C1161 C 0.78611 0.22541 0.64126 0.0
C1162 C 0.71253 0.97786 0.61273 0.0
C1163 C 0.72372 0.01246 0.61247 0.0
C1164 C 0.71954 0.09429 0.63192 0.0
C1165 C 0.77809 0.17307 0.62755 0.0
C1166 C 0.76373 0.13723 0.62612 0.0
C1167 C 0.72497 0.03211 0.62464 0.0
C1168 C 0.73757 0.06859 0.62459 0.0
H1169 H 0.8203 0.23571 0.60919 0.0
H1170 H 0.79874 0.17643 0.60682 0.0
H1171 H 0.71742 0.14727 0.63823 0.0
H1172 H 0.69669 0.97055 0.64712 0.0
H1173 H 0.71557 0.03084 0.64662 0.0
C1174 C 0.0445 0.7406 0.63303 0.0
C1175 C 0.05683 0.71365 0.62461 0.0
C1176 C 0.00988 0.75121 0.63236 0.0
C1177 C 0.92252 0.72192 0.62269 0.0
H1178 H 0.90078 0.82009 0.62393 0.0
C1179 C 0.78586 0.77328 0.63595 0.0
C1180 C 0.77274 0.80142 0.62833 0.0
C1181 C 0.82023 0.76242 0.63433 0.0
C1182 C 0.90638 0.79261 0.62345 0.0
H1183 H 0.04219 0.67639 0.60896 0.0
H1184 H 0.98136 0.69482 0.60786 0.0
H1185 H 0.96129 0.80136 0.62302 0.0
H1186 H 0.78579 0.8402 0.61302 0.0
H1187 H 0.84607 0.82136 0.61031 0.0
H1188 H 0.8676 0.71318 0.62325 0.0
C1189 C 0.99868 0.70775 0.61497 0.0
C1190 C 0.94106 0.78185 0.62306 0.0
C1191 C 0.03353 0.6973 0.61556 0.0
C1192 C 0.79501 0.8185 0.61907 0.0
C1193 C 0.82958 0.80777 0.61755 0.0
C1194 C 0.88783 0.73268 0.6232 0.0
C1195 C 0.98652 0.735 0.62331 0.0
C1196 C 0.94958 0.74637 0.62283 0.0
C1197 C 0.84255 0.77951 0.62513 0.0
C1198 C 0.87935 0.76815 0.62373 0.0
H1199 H 0.06167 0.75379 0.64013 0.0
H1200 H 1.00127 0.77189 0.63908 0.0
H1201 H 0.92818 0.69442 0.6226 0.0
H1202 H 0.76953 0.75938 0.64315 0.0
H1203 H 0.82948 0.74089 0.64048 0.0
C1204 C 0.26826 0.04545 0.63174 0.0
C1205 C 0.29675 0.05716 0.62398 0.0
C1206 C 0.25828 0.01062 0.63145 0.0
C1207 C 0.29089 0.92267 0.62432 0.0
H1208 H 0.19302 0.89907 0.62348 0.0
C1209 C 0.24052 0.78553 0.63757 0.0
C1210 C 0.21366 0.77153 0.62948 0.0
C1211 C 0.2508 0.82009 0.636 0.0
C1212 C 0.22046 0.90516 0.6236 0.0
H1213 H 0.33733 0.04118 0.60989 0.0
H1214 H 0.31992 0.98009 0.60942 0.0
H1215 H 0.21078 0.95972 0.62206 0.0
H1216 H 0.17647 0.78331 0.61339 0.0
H1217 H 0.19435 0.84376 0.61071 0.0
H1218 H 0.30055 0.8681 0.6259 0.0
C1219 C 0.30532 0.99802 0.61574 0.0
C1220 C 0.23064 0.93997 0.62292 0.0
C1221 C 0.31519 0.03305 0.61595 0.0
C1222 C 0.19721 0.79316 0.61981 0.0
C1223 C 0.20737 0.82788 0.61831 0.0
C1224 C 0.28069 0.88786 0.62509 0.0
C1225 C 0.27663 0.98641 0.62345 0.0
C1226 C 0.26597 0.94921 0.6234 0.0
C1227 C 0.23442 0.84173 0.62635 0.0
C1228 C 0.24532 0.87867 0.62486 0.0
H1229 H 0.25347 0.06323 0.63806 0.0
H1230 H 0.23642 1.00254 0.63768 0.0
H1231 H 0.31828 0.92884 0.6248 0.0
H1232 H 0.25386 0.76976 0.64512 0.0
H1233 H 0.27136 0.82999 0.6425 0.0
C1234 C 0.97277 0.27678 0.63121 0.0
C1235 C 0.95887 0.30259 0.62261 0.0
C1236 C 0.00745 0.26669 0.62999 0.0
C1237 C 0.09287 0.29643 0.61814 0.0
H1238 H 0.1166 0.19894 0.621 0.0
C1239 C 0.23054 0.24853 0.63168 0.0
C1240 C 0.24361 0.21894 0.62498 0.0
C1241 C 0.1963 0.25928 0.62963 0.0
C1242 C 0.11045 0.22622 0.62002 0.0
H1243 H 0.97074 0.33842 0.60608 0.0
H1244 H 0.0317 0.3209 0.60402 0.0
H1245 H 0.05574 0.21645 0.62058 0.0
H1246 H 0.2308 0.17775 0.61067 0.0
H1247 H 0.17072 0.19648 0.60716 0.0
H1248 H 0.14763 0.3062 0.61775 0.0
C1249 C 0.01556 0.30844 0.61169 0.0
C1250 C 0.07556 0.2363 0.61992 0.0
C1251 C 0.98064 0.31836 0.61283 0.0
C1252 C 0.22161 0.20064 0.616 0.0
C1253 C 0.18715 0.21127 0.61404 0.0
C1254 C 0.1278 0.28636 0.61833 0.0
C1255 C 0.02929 0.2823 0.62021 0.0
C1256 C 0.06634 0.27155 0.61919 0.0
C1257 C 0.17405 0.24064 0.62089 0.0
C1258 C 0.13701 0.25116 0.61947 0.0
H1259 H 0.9568 0.26409 0.63887 0.0
H1260 H 0.0173 0.24691 0.63687 0.0
H1261 H 0.08668 0.32378 0.61763 0.0
H1262 H 0.2467 0.26338 0.63863 0.0
H1263 H 0.18698 0.28174 0.6352 0.0
C1264 C 0.6554 0.67264 0.65491 0.0
C1265 C 0.66647 0.68759 0.64246 0.0
C1266 C 0.65866 0.63689 0.6571 0.0
C1267 C 0.67979 0.55368 0.63909 0.0
H1268 H 0.72214 0.52911 0.6739 0.0
C1269 C 0.75472 0.42779 0.64251 0.0
C1270 C 0.78775 0.4318 0.64832 0.0
C1271 C 0.72846 0.45181 0.64528 0.0
C1272 C 0.71026 0.53543 0.66412 0.0
H1273 H 0.68791 0.67652 0.62231 0.0
H1274 H 0.69434 0.6149 0.62618 0.0
H1275 H 0.69726 0.58654 0.67088 0.0
H1276 H 0.81925 0.46316 0.66184 0.0
H1277 H 0.77439 0.50589 0.66628 0.0
H1278 H 0.69559 0.50412 0.63183 0.0
C1279 C 0.68257 0.63035 0.63422 0.0
C1280 C 0.69551 0.56831 0.66245 0.0
C1281 C 0.67918 0.6659 0.63203 0.0
C1282 C 0.79364 0.4591 0.65752 0.0
C1283 C 0.76771 0.48356 0.66008 0.0
C1284 C 0.69498 0.52109 0.64068 0.0
C1285 C 0.67308 0.61541 0.64689 0.0
C1286 C 0.68152 0.57838 0.64969 0.0
C1287 C 0.73528 0.48122 0.65344 0.0
C1288 C 0.71182 0.51203 0.65303 0.0
H1289 H 0.6452 0.68866 0.66312 0.0
H1290 H 0.65063 0.62623 0.66689 0.0
H1291 H 0.66835 0.56019 0.62925 0.0
H1292 H 0.7502 0.40815 0.63478 0.0
H1293 H 0.7037 0.4487 0.64016 0.0
C1294 C 0.35289 0.64195 0.63489 0.0
C1295 C 0.3293 0.65436 0.64473 0.0
C1296 C 0.38857 0.64725 0.63658 0.0
C1297 C 0.45555 0.68197 0.66125 0.0
H1298 H 0.49968 0.71204 0.62748 0.0
C1299 C 0.55914 0.78874 0.65658 0.0
C1300 C 0.58416 0.78592 0.64618 0.0
C1301 C 0.53501 0.76217 0.65866 0.0
C1302 C 0.48815 0.70301 0.637 0.0
H1303 H 0.32461 0.68031 0.66442 0.0
H1304 H 0.38628 0.69093 0.66709 0.0
H1305 H 0.44324 0.68469 0.62651 0.0
H1306 H 0.60429 0.75323 0.62997 0.0
H1307 H 0.56267 0.70639 0.63375 0.0
H1308 H 0.49987 0.70305 0.67172 0.0
C1309 C 0.37772 0.67629 0.65822 0.0
C1310 C 0.45563 0.68716 0.63645 0.0
C1311 C 0.34216 0.67042 0.65665 0.0
C1312 C 0.58611 0.75533 0.63843 0.0
C1313 C 0.56193 0.72882 0.64044 0.0
C1314 C 0.48796 0.69836 0.6618 0.0
C1315 C 0.40139 0.6657 0.64802 0.0
C1316 C 0.43837 0.67725 0.64859 0.0
C1317 C 0.53513 0.7327 0.65014 0.0
C1318 C 0.50419 0.70978 0.64969 0.0
H1319 H 0.34374 0.62898 0.6257 0.0
H1320 H 0.40597 0.63781 0.62869 0.0
H1321 H 0.44351 0.67401 0.67081 0.0
H1322 H 0.55668 0.81254 0.66242 0.0
H1323 H 0.51444 0.76611 0.66609 0.0
C1324 C 0.26096 0.57218 0.63497 0.0
C1325 C 0.2361 0.5838 0.64441 0.0
C1326 C 0.28601 0.54807 0.6389 0.0
C1327 C 0.2906 0.47509 0.66261 0.0
H1328 H 0.37731 0.45877 0.64342 0.0
C1329 C 0.35031 0.33889 0.66082 0.0
C1330 C 0.35662 0.32757 0.6473 0.0
C1331 C 0.34555 0.37414 0.66364 0.0
C1332 C 0.35327 0.46303 0.64894 0.0
H1333 H 0.21867 0.5813 0.6655 0.0
H1334 H 0.26298 0.53919 0.6726 0.0
H1335 H 0.35186 0.51679 0.64345 0.0
H1336 H 0.36562 0.34462 0.62635 0.0
H1337 H 0.35728 0.40595 0.63125 0.0
H1338 H 0.2912 0.42114 0.66761 0.0
C1339 C 0.26315 0.54863 0.66211 0.0
C1340 C 0.33866 0.49626 0.64897 0.0
C1341 C 0.23805 0.57297 0.65813 0.0
C1342 C 0.36053 0.35244 0.63686 0.0
C1343 C 0.35601 0.38768 0.63969 0.0
C1344 C 0.30532 0.44199 0.66267 0.0
C1345 C 0.28633 0.53461 0.65236 0.0
C1346 C 0.30634 0.50235 0.65528 0.0
C1347 C 0.34733 0.39884 0.65303 0.0
C1348 C 0.33606 0.43525 0.65536 0.0
H1349 H 0.25936 0.57978 0.62425 0.0
H1350 H 0.30299 0.53775 0.63104 0.0
H1351 H 0.26551 0.47852 0.66744 0.0
H1352 H 0.34737 0.32041 0.66913 0.0
H1353 H 0.33928 0.38197 0.67405 0.0
C1354 C 0.44152 0.22993 0.66137 0.0
C1355 C 0.42676 0.23016 0.64822 0.0
C1356 C 0.46669 0.25455 0.66491 0.0
C1357 C 0.51759 0.33039 0.65067 0.0
H1358 H 0.59415 0.28223 0.66811 0.0
C1359 C 0.66175 0.34689 0.63652 0.0
C1360 C 0.68658 0.34674 0.6471 0.0
C1361 C 0.62653 0.34267 0.63954 0.0
C1362 C 0.5729 0.2964 0.66346 0.0
H1363 H 0.42492 0.25676 0.62868 0.0
H1364 H 0.46904 0.29898 0.63455 0.0
H1365 H 0.53654 0.2572 0.66892 0.0
H1366 H 0.69387 0.3437 0.66919 0.0
H1367 H 0.63227 0.33533 0.6744 0.0
H1368 H 0.55527 0.36806 0.64422 0.0
C1369 C 0.4609 0.28095 0.64244 0.0
C1370 C 0.5396 0.28215 0.66398 0.0
C1371 C 0.43545 0.25671 0.63902 0.0
C1372 C 0.67533 0.34391 0.66081 0.0
C1373 C 0.64013 0.33906 0.66381 0.0
C1374 C 0.55111 0.34429 0.64992 0.0
C1375 C 0.47828 0.27908 0.65517 0.0
C1376 C 0.51162 0.29828 0.65718 0.0
C1377 C 0.61549 0.33767 0.65317 0.0
C1378 C 0.57923 0.32686 0.65598 0.0
H1379 H 0.43545 0.20927 0.66853 0.0
H1380 H 0.4787 0.25282 0.67495 0.0
H1381 H 0.49667 0.3441 0.6456 0.0
H1382 H 0.66963 0.34922 0.62587 0.0
H1383 H 0.60814 0.34138 0.63112 0.0
C1384 C 0.67255 0.33797 0.85139 0.0
C1385 C 0.65669 0.32553 0.86343 0.0
C1386 C 0.67838 0.37345 0.84961 0.0
C1387 C 0.68971 0.45178 0.87103 0.0
H1388 H 0.705 0.49536 0.8356 0.0
C1389 C 0.75683 0.58245 0.86871 0.0
C1390 C 0.78722 0.58106 0.8608 0.0
C1391 C 0.73053 0.55801 0.86678 0.0
C1392 C 0.70051 0.48363 0.84556 0.0
H1393 H 0.63153 0.34058 0.88243 0.0
H1394 H 0.64023 0.40263 0.87908 0.0
H1395 H 0.67619 0.43894 0.83675 0.0
H1396 H 0.81375 0.55414 0.84439 0.0
H1397 H 0.76773 0.51133 0.84089 0.0
H1398 H 0.71456 0.496 0.87982 0.0
C1399 C 0.64958 0.38499 0.87125 0.0
C1400 C 0.68423 0.45119 0.84624 0.0
C1401 C 0.64435 0.34943 0.87315 0.0
C1402 C 0.79005 0.55623 0.85033 0.0
C1403 C 0.76372 0.53176 0.84836 0.0
C1404 C 0.70547 0.48429 0.87035 0.0
C1405 C 0.66795 0.39741 0.85972 0.0
C1406 C 0.67963 0.4343 0.85898 0.0
C1407 C 0.73448 0.53137 0.85703 0.0
C1408 C 0.71197 0.50015 0.8576 0.0
H1409 H 0.68238 0.32018 0.84371 0.0
H1410 H 0.69292 0.38171 0.84067 0.0
H1411 H 0.68739 0.4396 0.88102 0.0
H1412 H 0.75481 0.60032 0.87726 0.0
H1413 H 0.70828 0.55839 0.87359 0.0
C1414 C 0.44062 0.75385 0.87398 0.0
C1415 C 0.42984 0.77895 0.8645 0.0
C1416 C 0.46483 0.72873 0.8702 0.0
C1417 C 0.53863 0.72357 0.84659 0.0
H1418 H 0.55552 0.63874 0.86692 0.0
C1419 C 0.6748 0.66298 0.84888 0.0
C1420 C 0.68659 0.65977 0.86251 0.0
C1421 C 0.63944 0.66746 0.84611 0.0
C1422 C 0.55104 0.66219 0.86105 0.0
H1423 H 0.43343 0.79648 0.84345 0.0
H1424 H 0.47528 0.75179 0.83657 0.0
H1425 H 0.49721 0.66361 0.86647 0.0
H1426 H 0.67038 0.65608 0.88381 0.0
H1427 H 0.60872 0.66351 0.87896 0.0
H1428 H 0.59265 0.72266 0.84152 0.0
C1429 C 0.46549 0.75168 0.84701 0.0
C1430 C 0.51768 0.67654 0.86082 0.0
C1431 C 0.44126 0.77699 0.85085 0.0
C1432 C 0.66212 0.65874 0.87321 0.0
C1433 C 0.62676 0.66272 0.87042 0.0
C1434 C 0.57181 0.70896 0.84667 0.0
C1435 C 0.479 0.72842 0.85685 0.0
C1436 C 0.5114 0.70833 0.85413 0.0
C1437 C 0.61516 0.66822 0.85689 0.0
C1438 C 0.57869 0.67897 0.85439 0.0
H1439 H 0.43242 0.75536 0.88463 0.0
H1440 H 0.47464 0.7117 0.87815 0.0
H1441 H 0.53516 0.74823 0.84145 0.0
H1442 H 0.69303 0.66381 0.8404 0.0
H1443 H 0.63119 0.67147 0.83557 0.0
C1444 C 0.25826 0.43678 0.87051 0.0
C1445 C 0.23095 0.42947 0.86146 0.0
C1446 C 0.28299 0.46185 0.86717 0.0
C1447 C 0.28521 0.54188 0.84654 0.0
H1448 H 0.3741 0.55301 0.86471 0.0
C1449 C 0.35131 0.67472 0.84881 0.0
C1450 C 0.35797 0.6855 0.86237 0.0
C1451 C 0.345 0.6398 0.84588 0.0
C1452 C 0.34943 0.55016 0.85948 0.0
H1453 H 0.20909 0.44026 0.84147 0.0
H1454 H 0.25339 0.48287 0.83516 0.0
H1455 H 0.34735 0.49562 0.86349 0.0
H1456 H 0.36607 0.66771 0.88328 0.0
H1457 H 0.35521 0.60672 0.87814 0.0
H1458 H 0.28701 0.59643 0.84276 0.0
C1459 C 0.25538 0.47005 0.84504 0.0
C1460 C 0.33398 0.51732 0.85882 0.0
C1461 C 0.2303 0.44528 0.84851 0.0
C1462 C 0.36074 0.66029 0.87275 0.0
C1463 C 0.35475 0.6253 0.86979 0.0
C1464 C 0.30088 0.57448 0.84702 0.0
C1465 C 0.28083 0.48018 0.85467 0.0
C1466 C 0.30099 0.51296 0.85279 0.0
C1467 C 0.34562 0.61488 0.85641 0.0
C1468 C 0.33257 0.57921 0.85389 0.0
H1469 H 0.25869 0.42537 0.8807 0.0
H1470 H 0.30178 0.46889 0.87496 0.0
H1471 H 0.25959 0.54005 0.84203 0.0
H1472 H 0.34923 0.69342 0.84054 0.0
H1473 H 0.33837 0.63245 0.83545 0.0
C1474 C 0.5724 0.23084 0.84948 0.0
C1475 C 0.58625 0.22967 0.86279 0.0
C1476 C 0.5475 0.2559 0.84607 0.0
C1477 C 0.49791 0.33224 0.86031 0.0
H1478 H 0.4204 0.28663 0.84248 0.0
C1479 C 0.3543 0.35818 0.87308 0.0
C1480 C 0.32942 0.35592 0.86254 0.0
C1481 C 0.38942 0.35223 0.87029 0.0
C1482 C 0.44192 0.30016 0.84723 0.0
H1483 H 0.58642 0.254 0.8828 0.0
H1484 H 0.54321 0.29738 0.87704 0.0
H1485 H 0.47718 0.25961 0.84206 0.0
H1486 H 0.32225 0.34792 0.84063 0.0
H1487 H 0.38353 0.33722 0.83582 0.0
H1488 H 0.46156 0.37162 0.86628 0.0
C1489 C 0.55182 0.27999 0.869 0.0
C1490 C 0.4747 0.28471 0.84694 0.0
C1491 C 0.57674 0.25512 0.87234 0.0
C1492 C 0.34071 0.34968 0.84901 0.0
C1493 C 0.37579 0.34341 0.84624 0.0
C1494 C 0.46495 0.34751 0.86073 0.0
C1495 C 0.53556 0.27966 0.85603 0.0
C1496 C 0.50295 0.29991 0.85387 0.0
C1497 C 0.40039 0.34366 0.85692 0.0
C1498 C 0.43639 0.33108 0.85454 0.0
H1499 H 0.57898 0.21096 0.84205 0.0
H1500 H 0.53608 0.25526 0.8359 0.0
H1501 H 0.51914 0.34512 0.86552 0.0
H1502 H 0.3465 0.36313 0.8836 0.0
H1503 H 0.40766 0.35237 0.87876 0.0
C1504 C 0.26862 0.28219 0.37362 0.0
C1505 C 0.29613 0.26941 0.38169 0.0
C1506 C 0.25788 0.31665 0.37471 0.0
C1507 C 0.26142 0.39496 0.39686 0.0
H1508 H 0.23812 0.4416 0.36276 0.0
C1509 C 0.19919 0.5329 0.3949 0.0
C1510 C 0.21103 0.55525 0.38447 0.0
C1511 C 0.20952 0.49798 0.39516 0.0
C1512 C 0.24474 0.42914 0.37239 0.0
H1513 H 0.33344 0.28312 0.39747 0.0
H1514 H 0.31487 0.3437 0.39925 0.0
H1515 H 0.25714 0.38161 0.36225 0.0
H1516 H 0.24335 0.55835 0.36623 0.0
H1517 H 0.26147 0.49811 0.36676 0.0
H1518 H 0.24963 0.44305 0.40694 0.0
C1519 C 0.30142 0.32674 0.39216 0.0
C1520 C 0.25528 0.39449 0.37211 0.0
C1521 C 0.31219 0.29203 0.3911 0.0
C1522 C 0.23348 0.54191 0.37437 0.0
C1523 C 0.24379 0.50719 0.37463 0.0
C1524 C 0.2508 0.42978 0.39714 0.0
C1525 C 0.27436 0.33958 0.38385 0.0
C1526 C 0.26369 0.37682 0.38433 0.0
C1527 C 0.23185 0.48464 0.38497 0.0
C1528 C 0.24243 0.44736 0.38489 0.0
H1529 H 0.25528 0.26557 0.36636 0.0
H1530 H 0.23647 0.32531 0.36836 0.0
H1531 H 0.26742 0.38214 0.40648 0.0
H1532 H 0.18181 0.5423 0.40282 0.0
H1533 H 0.19954 0.4813 0.4032 0.0
C1534 C 0.46875 0.24189 0.37655 0.0
C1535 C 0.4568 0.2146 0.3849 0.0
C1536 C 0.50343 0.25245 0.37702 0.0
C1537 C 0.59127 0.22262 0.38594 0.0
H1538 H 0.61331 0.32072 0.38475 0.0
C1539 C 0.72816 0.27337 0.37249 0.0
C1540 C 0.74147 0.30147 0.38008 0.0
C1541 C 0.69371 0.26274 0.3741 0.0
C1542 C 0.60764 0.29325 0.38521 0.0
H1543 H 0.4722 0.17673 0.4002 0.0
H1544 H 0.53307 0.19511 0.40096 0.0
H1545 H 0.55278 0.30217 0.38598 0.0
H1546 H 0.72857 0.34046 0.39531 0.0
H1547 H 0.6682 0.32199 0.39804 0.0
H1548 H 0.64614 0.2137 0.3851 0.0
C1549 C 0.51543 0.20833 0.39406 0.0
C1550 C 0.57292 0.28259 0.38578 0.0
C1551 C 0.48053 0.19791 0.39367 0.0
C1552 C 0.71924 0.31878 0.38928 0.0
C1553 C 0.68459 0.30826 0.39082 0.0
C1554 C 0.62599 0.23327 0.38527 0.0
C1555 C 0.52724 0.23588 0.38577 0.0
C1556 C 0.56428 0.24714 0.38601 0.0
C1557 C 0.67146 0.27999 0.38328 0.0
C1558 C 0.6346 0.26872 0.38476 0.0
H1559 H 0.45125 0.25533 0.36965 0.0
H1560 H 0.51171 0.27336 0.37035 0.0
H1561 H 0.58555 0.19513 0.38603 0.0
H1562 H 0.74443 0.25932 0.36531 0.0
H1563 H 0.68435 0.24121 0.36799 0.0
C1564 C 0.74537 0.73173 0.374 0.0
C1565 C 0.71688 0.74388 0.38167 0.0
C1566 C 0.75669 0.69749 0.37522 0.0
C1567 C 0.75206 0.61863 0.3971 0.0
H1568 H 0.77951 0.57322 0.36324 0.0
C1569 C 0.81459 0.48075 0.39555 0.0
C1570 C 0.80386 0.45884 0.38479 0.0
C1571 C 0.80438 0.5157 0.39581 0.0
C1572 C 0.77173 0.58533 0.3728 0.0
H1573 H 0.67846 0.72938 0.39692 0.0
H1574 H 0.69795 0.66913 0.39889 0.0
H1575 H 0.75998 0.63299 0.36264 0.0
H1576 H 0.77365 0.45655 0.36597 0.0
H1577 H 0.75569 0.51677 0.36653 0.0
H1578 H 0.76309 0.57032 0.40717 0.0
C1579 C 0.71175 0.68641 0.39202 0.0
C1580 C 0.76091 0.61987 0.37249 0.0
C1581 C 0.70044 0.72092 0.39084 0.0
C1582 C 0.78267 0.47264 0.37437 0.0
C1583 C 0.77246 0.50736 0.37465 0.0
C1584 C 0.76292 0.58389 0.39742 0.0
C1585 C 0.73978 0.67416 0.38408 0.0
C1586 C 0.75096 0.63709 0.38462 0.0
C1587 C 0.78328 0.52948 0.38531 0.0
C1588 C 0.77274 0.56675 0.38524 0.0
H1589 H 0.75906 0.74867 0.36696 0.0
H1590 H 0.77885 0.68932 0.36918 0.0
H1591 H 0.74488 0.63111 0.40666 0.0
H1592 H 0.83098 0.47096 0.40372 0.0
H1593 H 0.81347 0.53205 0.40411 0.0
C1594 C 0.53606 0.80153 0.39713 0.0
C1595 C 0.55114 0.81057 0.38444 0.0
C1596 C 0.50129 0.79075 0.3978 0.0
C1597 C 0.41819 0.79605 0.37919 0.0
H1598 H 0.39434 0.71039 0.39781 0.0
C1599 C 0.28662 0.7305 0.36988 0.0
C1600 C 0.26964 0.71368 0.38082 0.0
C1601 C 0.32062 0.74251 0.37132 0.0
C1602 C 0.40035 0.73466 0.39274 0.0
H1603 H 0.54125 0.81622 0.3626 0.0
H1604 H 0.48074 0.79812 0.36382 0.0
H1605 H 0.4539 0.73223 0.39883 0.0
H1606 H 0.27556 0.69595 0.40184 0.0
H1607 H 0.33491 0.71764 0.40447 0.0
H1608 H 0.36495 0.79898 0.37319 0.0
C1609 C 0.49575 0.79913 0.37324 0.0
C1610 C 0.43455 0.74713 0.39332 0.0
C1611 C 0.53051 0.80935 0.37253 0.0
C1612 C 0.28787 0.70872 0.3932 0.0
C1613 C 0.32198 0.72108 0.39468 0.0
C1614 C 0.38404 0.78385 0.37873 0.0
C1615 C 0.48077 0.78944 0.38585 0.0
C1616 C 0.44397 0.77763 0.38632 0.0
C1617 C 0.3387 0.73848 0.38378 0.0
C1618 C 0.37472 0.75259 0.38525 0.0
H1619 H 0.55129 0.80214 0.40649 0.0
H1620 H 0.4904 0.78364 0.40768 0.0
H1621 H 0.42449 0.81995 0.37389 0.0
H1622 H 0.27364 0.73445 0.36012 0.0
H1623 H 0.33278 0.75484 0.36255 0.0
C1624 C 0.31344 0.71973 0.11833 0.0
C1625 C 0.29884 0.74165 0.12836 0.0
C1626 C 0.30294 0.68496 0.11728 0.0
C1627 C 0.26099 0.61537 0.13777 0.0
H1628 H 0.24856 0.56991 0.10255 0.0
C1629 C 0.23856 0.46821 0.13405 0.0
C1630 C 0.2141 0.45586 0.1245 0.0
C1631 C 0.24889 0.50292 0.13398 0.0
C1632 C 0.25165 0.58231 0.11247 0.0
H1633 H 0.26106 0.74403 0.14492 0.0
H1634 H 0.24273 0.68414 0.14297 0.0
H1635 H 0.26642 0.63077 0.10332 0.0
H1636 H 0.18132 0.47055 0.10734 0.0
H1637 H 0.19913 0.53152 0.10731 0.0
H1638 H 0.24566 0.56742 0.14695 0.0
C1639 C 0.26276 0.69345 0.13608 0.0
C1640 C 0.26231 0.61709 0.11291 0.0
C1641 C 0.27322 0.728 0.13715 0.0
C1642 C 0.20027 0.47919 0.11482 0.0
C1643 C 0.21064 0.51409 0.11475 0.0
C1644 C 0.25041 0.58074 0.13733 0.0
C1645 C 0.27763 0.67132 0.12623 0.0
C1646 C 0.26701 0.6341 0.12558 0.0
C1647 C 0.23498 0.52643 0.12439 0.0
C1648 C 0.24565 0.56365 0.12469 0.0
H1649 H 0.3332 0.72932 0.11138 0.0
H1650 H 0.31515 0.6686 0.10963 0.0
H1651 H 0.26474 0.62739 0.14772 0.0
H1652 H 0.24995 0.45101 0.14161 0.0
H1653 H 0.26811 0.51126 0.1414 0.0
C1654 C 0.5329 0.19493 0.11363 0.0
C1655 C 0.55567 0.21286 0.12242 0.0
C1656 C 0.4979 0.20471 0.11265 0.0
C1657 C 0.43828 0.27851 0.11939 0.0
H1658 H 0.36654 0.20808 0.11985 0.0
C1659 C 0.29155 0.31267 0.11576 0.0
C1660 C 0.26988 0.29532 0.12516 0.0
C1661 C 0.32614 0.30217 0.11392 0.0
C1662 C 0.38626 0.22809 0.11971 0.0
H1663 H 0.55934 0.25511 0.13708 0.0
H1664 H 0.49867 0.27195 0.1354 0.0
H1665 H 0.42752 0.19081 0.11966 0.0
H1666 H 0.26763 0.25275 0.13976 0.0
H1667 H 0.32747 0.23471 0.13657 0.0
H1668 H 0.39706 0.3158 0.11982 0.0
C1669 C 0.50781 0.25061 0.12914 0.0
C1670 C 0.42123 0.21817 0.11947 0.0
C1671 C 0.54262 0.24073 0.13018 0.0
C1672 C 0.28347 0.26686 0.13245 0.0
C1673 C 0.31782 0.25626 0.13055 0.0
C1674 C 0.40331 0.28843 0.11956 0.0
C1675 C 0.48496 0.23279 0.12036 0.0
C1676 C 0.44771 0.24325 0.11954 0.0
C1677 C 0.33973 0.27389 0.12134 0.0
C1678 C 0.37684 0.26335 0.11995 0.0
H1679 H 0.54208 0.17328 0.10754 0.0
H1680 H 0.48105 0.19052 0.10574 0.0
H1681 H 0.45799 0.29853 0.11927 0.0
H1682 H 0.28199 0.33467 0.10997 0.0
H1683 H 0.34223 0.31616 0.10667 0.0
C1684 C 0.81766 0.53071 0.11185 0.0
C1685 C 0.80115 0.55301 0.12124 0.0
C1686 C 0.80774 0.49575 0.11088 0.0
C1687 C 0.7348 0.43614 0.11885 0.0
H1688 H 0.80486 0.36407 0.11805 0.0
C1689 C 0.69933 0.28985 0.11573 0.0
C1690 C 0.71729 0.26817 0.12494 0.0
C1691 C 0.70995 0.32429 0.11369 0.0
C1692 C 0.78496 0.3839 0.11826 0.0
H1693 H 0.76125 0.55594 0.13696 0.0
H1694 H 0.74409 0.49547 0.13525 0.0
H1695 H 0.82249 0.42494 0.11755 0.0
H1696 H 0.76109 0.26571 0.13897 0.0
H1697 H 0.77942 0.32533 0.13541 0.0
H1698 H 0.6973 0.39519 0.1199 0.0
C1699 C 0.76446 0.5049 0.12854 0.0
C1700 C 0.79507 0.41878 0.11784 0.0
C1701 C 0.77454 0.53959 0.12959 0.0
C1702 C 0.74649 0.28159 0.13183 0.0
C1703 C 0.75724 0.31579 0.1297 0.0
C1704 C 0.72468 0.40128 0.11916 0.0
C1705 C 0.78086 0.48249 0.11918 0.0
C1706 C 0.77013 0.44536 0.11839 0.0
C1707 C 0.739 0.33771 0.1207 0.0
C1708 C 0.74965 0.3747 0.11911 0.0
H1709 H 0.83833 0.54019 0.1053 0.0
H1710 H 0.82084 0.4792 0.10354 0.0
H1711 H 0.71489 0.45595 0.11912 0.0
H1712 H 0.67676 0.28041 0.11025 0.0
H1713 H 0.69546 0.3404 0.10661 0.0
C1714 C 0.48117 0.80837 0.13661 0.0
C1715 C 0.46084 0.81016 0.12463 0.0
C1716 C 0.5158 0.79768 0.13598 0.0
C1717 C 0.57658 0.74533 0.11581 0.0
H1718 H 0.64662 0.79529 0.13644 0.0
C1719 C 0.72288 0.70563 0.11571 0.0
C1720 C 0.74119 0.70996 0.12811 0.0
C1721 C 0.68881 0.71814 0.11436 0.0
C1722 C 0.62739 0.78068 0.13076 0.0
H1723 H 0.46107 0.80229 0.10255 0.0
H1724 H 0.52171 0.78302 0.1015 0.0
H1725 H 0.58741 0.81716 0.13574 0.0
H1726 H 0.73735 0.72956 0.14898 0.0
H1727 H 0.67821 0.75018 0.14677 0.0
H1728 H 0.61633 0.70824 0.11115 0.0
C1729 C 0.51069 0.79002 0.11137 0.0
C1730 C 0.59343 0.79339 0.13031 0.0
C1731 C 0.47608 0.80126 0.11196 0.0
C1732 C 0.72428 0.72613 0.13921 0.0
C1733 C 0.6903 0.73827 0.1379 0.0
C1734 C 0.61058 0.73235 0.11638 0.0
C1735 C 0.53092 0.78808 0.12339 0.0
C1736 C 0.56752 0.77568 0.12298 0.0
C1737 C 0.6722 0.73504 0.1254 0.0
C1738 C 0.63636 0.7496 0.12403 0.0
H1739 H 0.47029 0.81511 0.14653 0.0
H1740 H 0.53058 0.79619 0.14544 0.0
H1741 H 0.55711 0.73096 0.11015 0.0
H1742 H 0.73516 0.6934 0.10695 0.0
H1743 H 0.67584 0.71532 0.10454 0.0
C1744 C 0.31609 0.18931 0.29314 0.0
C1745 C 0.3005 0.19769 0.30579 0.0
C1746 C 0.30102 0.19963 0.28072 0.0
C1747 C 0.24258 0.26607 0.26655 0.0
H1748 H 0.24712 0.20924 0.2337 0.0
C1749 C 0.2251 0.32395 0.21253 0.0
C1750 C 0.20624 0.30507 0.20267 0.0
C1751 C 0.23381 0.30917 0.22517 0.0
C1752 C 0.2453 0.22531 0.2428 0.0
H1753 H 0.25639 0.22376 0.31515 0.0
H1754 H 0.22983 0.24099 0.29351 0.0
H1755 H 0.26586 0.18529 0.25573 0.0
H1756 H 0.18095 0.25567 0.19872 0.0
H1757 H 0.19651 0.22986 0.22074 0.0
H1758 H 0.22193 0.30603 0.25368 0.0
C1759 C 0.25392 0.22653 0.29323 0.0
C1760 C 0.25637 0.21171 0.25541 0.0
C1761 C 0.26899 0.21618 0.30568 0.0
C1762 C 0.19623 0.27086 0.20584 0.0
C1763 C 0.20501 0.25603 0.21853 0.0
C1764 C 0.23155 0.27966 0.25397 0.0
C1765 C 0.26997 0.21875 0.28061 0.0
C1766 C 0.2556 0.23209 0.26741 0.0
C1767 C 0.2238 0.27509 0.22837 0.0
C1768 C 0.23327 0.25965 0.24189 0.0
H1769 H 0.34031 0.17508 0.2928 0.0
H1770 H 0.31437 0.19356 0.27122 0.0
H1771 H 0.24189 0.28263 0.27554 0.0
H1772 H 0.23347 0.35025 0.21045 0.0
H1773 H 0.24884 0.3244 0.23239 0.0
C1774 C 0.83751 0.31368 0.29321 0.0
C1775 C 0.82241 0.30237 0.30558 0.0
C1776 C 0.82764 0.29916 0.28064 0.0
C1777 C 0.78037 0.22459 0.26494 0.0
H1778 H 0.77066 0.28782 0.23416 0.0
C1779 C 0.70228 0.19232 0.21574 0.0
C1780 C 0.71607 0.20274 0.203 0.0
C1781 C 0.71835 0.2019 0.22806 0.0
C1782 C 0.77369 0.26971 0.2426 0.0
H1783 H 0.7848 0.26685 0.31438 0.0
H1784 H 0.76713 0.24193 0.29246 0.0
H1785 H 0.79251 0.30926 0.25604 0.0
H1786 H 0.75774 0.2317 0.19329 0.0
H1787 H 0.78581 0.24831 0.21481 0.0
H1788 H 0.76045 0.18529 0.2515 0.0
C1789 C 0.78733 0.26144 0.29248 0.0
C1790 C 0.7863 0.28198 0.25516 0.0
C1791 C 0.79748 0.27577 0.30509 0.0
C1792 C 0.74665 0.22269 0.20288 0.0
C1793 C 0.76255 0.23256 0.21522 0.0
C1794 C 0.76748 0.21238 0.25238 0.0
C1795 C 0.802 0.27324 0.28006 0.0
C1796 C 0.78968 0.25965 0.26654 0.0
C1797 C 0.7484 0.22252 0.22795 0.0
C1798 C 0.76384 0.23486 0.24109 0.0
H1799 H 0.857 0.33392 0.29323 0.0
H1800 H 0.84007 0.30843 0.27135 0.0
H1801 H 0.78313 0.20649 0.27339 0.0
H1802 H 0.67879 0.17691 0.21621 0.0
H1803 H 0.70659 0.19404 0.23769 0.0
C1804 C 0.74601 0.79614 0.30553 0.0
C1805 C 0.71398 0.81375 0.30542 0.0
C1806 C 0.76173 0.78584 0.2932 0.0
C1807 C 0.75939 0.79922 0.25522 0.0
H1808 H 0.79836 0.70662 0.25426 0.0
C1809 C 0.82186 0.74078 0.20601 0.0
C1810 C 0.81412 0.7058 0.20322 0.0
C1811 C 0.81239 0.75578 0.21859 0.0
C1812 C 0.78744 0.73249 0.25433 0.0
H1813 H 0.67394 0.83477 0.2921 0.0
H1814 H 0.70089 0.81622 0.27078 0.0
H1815 H 0.77702 0.72999 0.2759 0.0
H1816 H 0.79015 0.6594 0.21154 0.0
H1817 H 0.77338 0.68556 0.23325 0.0
H1818 H 0.76858 0.80109 0.23351 0.0
C1819 C 0.7142 0.81088 0.28035 0.0
C1820 C 0.77563 0.74611 0.26679 0.0
C1821 C 0.69853 0.82122 0.29264 0.0
C1822 C 0.79677 0.68632 0.21333 0.0
C1823 C 0.78728 0.70129 0.22585 0.0
C1824 C 0.77115 0.78555 0.24273 0.0
C1825 C 0.74582 0.79272 0.28047 0.0
C1826 C 0.76099 0.77946 0.26738 0.0
C1827 C 0.79508 0.73616 0.22868 0.0
C1828 C 0.78482 0.75179 0.24209 0.0
H1829 H 0.75859 0.78924 0.31509 0.0
H1830 H 0.78625 0.77217 0.29367 0.0
H1831 H 0.7487 0.82518 0.25533 0.0
H1832 H 0.8359 0.75647 0.19864 0.0
H1833 H 0.81921 0.78259 0.2205 0.0
C1834 C 0.21623 0.73693 0.30472 0.0
C1835 C 0.19343 0.70845 0.30509 0.0
C1836 C 0.22615 0.7516 0.29215 0.0
C1837 C 0.23225 0.73027 0.25506 0.0
H1838 H 0.24787 0.82904 0.25106 0.0
C1839 C 0.27011 0.79164 0.20293 0.0
C1840 C 0.29771 0.81553 0.2033 0.0
C1841 C 0.25449 0.78025 0.21512 0.0
C1842 C 0.24377 0.80137 0.25204 0.0
H1843 H 0.16258 0.67371 0.29253 0.0
H1844 H 0.17931 0.69963 0.2707 0.0
H1845 H 0.22576 0.80627 0.27279 0.0
H1846 H 0.33 0.84653 0.21682 0.0
H1847 H 0.30283 0.8266 0.23801 0.0
H1848 H 0.25037 0.72538 0.23434 0.0
C1849 C 0.19011 0.71023 0.28008 0.0
C1850 C 0.23118 0.78829 0.26451 0.0
C1851 C 0.18038 0.69545 0.29262 0.0
C1852 C 0.30884 0.82811 0.21614 0.0
C1853 C 0.29308 0.81691 0.2283 0.0
C1854 C 0.24465 0.74337 0.24259 0.0
C1855 C 0.21348 0.73822 0.27965 0.0
C1856 C 0.22551 0.75251 0.26622 0.0
C1857 C 0.26597 0.79256 0.22795 0.0
C1858 C 0.25085 0.77903 0.24097 0.0
H1859 H 0.22742 0.74721 0.31408 0.0
H1860 H 0.24463 0.77275 0.29222 0.0
H1861 H 0.22882 0.70252 0.25606 0.0
H1862 H 0.26118 0.78087 0.19328 0.0
H1863 H 0.23351 0.76162 0.2145 0.0
C1864 C 0.71624 0.77077 0.70355 0.0
C1865 C 0.69118 0.79728 0.70334 0.0
C1866 C 0.72663 0.75585 0.71602 0.0
C1867 C 0.729 0.77532 0.75331 0.0
H1868 H 0.75366 0.67826 0.75671 0.0
C1869 C 0.76917 0.71566 0.80535 0.0
C1870 C 0.79895 0.69453 0.80516 0.0
C1871 C 0.75328 0.72583 0.79306 0.0
C1872 C 0.74701 0.70546 0.75589 0.0
H1873 H 0.65649 0.8279 0.71602 0.0
H1874 H 0.67399 0.80146 0.73765 0.0
H1875 H 0.73066 0.70003 0.73494 0.0
H1876 H 0.83485 0.66708 0.79187 0.0
H1877 H 0.8072 0.68497 0.77047 0.0
H1878 H 0.74547 0.78081 0.7742 0.0
C1879 C 0.68627 0.79272 0.72825 0.0
C1880 C 0.73391 0.71797 0.74341 0.0
C1881 C 0.67611 0.80778 0.71583 0.0
C1882 C 0.81199 0.68338 0.7924 0.0
C1883 C 0.79598 0.69339 0.78012 0.0
C1884 C 0.74191 0.76279 0.76578 0.0
C1885 C 0.71213 0.76701 0.72855 0.0
C1886 C 0.72492 0.75313 0.74194 0.0
C1887 C 0.7667 0.71509 0.7803 0.0
C1888 C 0.75129 0.72779 0.7672 0.0
H1889 H 0.72889 0.76246 0.69417 0.0
H1890 H 0.74694 0.73645 0.71587 0.0
H1891 H 0.72305 0.80268 0.7525 0.0
H1892 H 0.75867 0.72532 0.81493 0.0
H1893 H 0.7306 0.74239 0.79354 0.0
C1894 C 0.34479 0.79874 0.79369 0.0
C1895 C 0.32323 0.79972 0.80531 0.0
C1896 C 0.33328 0.7836 0.78145 0.0
C1897 C 0.2616 0.72873 0.7668 0.0
H1898 H 0.29689 0.76549 0.73246 0.0
C1899 C 0.21993 0.66887 0.71504 0.0
C1900 C 0.21742 0.69053 0.7035 0.0
C1901 C 0.23491 0.68093 0.72723 0.0
C1902 C 0.28624 0.75514 0.7419 0.0
H1903 H 0.27256 0.78621 0.81326 0.0
H1904 H 0.2515 0.76159 0.79176 0.0
H1905 H 0.31712 0.78947 0.75397 0.0
H1906 H 0.22808 0.74186 0.6956 0.0
H1907 H 0.25239 0.76379 0.71704 0.0
H1908 H 0.22873 0.69629 0.75474 0.0
C1909 C 0.27794 0.771 0.79213 0.0
C1910 C 0.29849 0.7685 0.75436 0.0
C1911 C 0.28987 0.78532 0.80448 0.0
C1912 C 0.23019 0.72451 0.70433 0.0
C1913 C 0.24432 0.73694 0.71664 0.0
C1914 C 0.24869 0.71599 0.75434 0.0
C1915 C 0.29943 0.76998 0.78038 0.0
C1916 C 0.28647 0.75546 0.76703 0.0
C1917 C 0.24678 0.71538 0.72833 0.0
C1918 C 0.26086 0.72889 0.74167 0.0
H1919 H 0.37075 0.80949 0.79411 0.0
H1920 H 0.35112 0.78258 0.77287 0.0
H1921 H 0.25199 0.71738 0.77624 0.0
H1922 H 0.21045 0.64245 0.71461 0.0
H1923 H 0.23712 0.66305 0.73576 0.0
C1924 C 0.24534 0.29679 0.80567 0.0
C1925 C 0.21396 0.3155 0.80579 0.0
C1926 C 0.26035 0.28638 0.79322 0.0
C1927 C 0.25819 0.30145 0.75543 0.0
H1928 H 0.29166 0.20678 0.75362 0.0
C1929 C 0.31791 0.24212 0.70584 0.0
C1930 C 0.30734 0.20813 0.70258 0.0
C1931 C 0.30934 0.25688 0.71856 0.0
C1932 C 0.28232 0.23326 0.75393 0.0
H1933 H 0.17431 0.33843 0.7928 0.0
H1934 H 0.20017 0.31986 0.77122 0.0
H1935 H 0.27183 0.23022 0.7755 0.0
H1936 H 0.27943 0.16324 0.71027 0.0
H1937 H 0.26447 0.18898 0.73227 0.0
H1938 H 0.2676 0.304 0.73373 0.0
C1939 C 0.21346 0.31366 0.78072 0.0
C1940 C 0.27137 0.24685 0.76652 0.0
C1941 C 0.19844 0.32403 0.79313 0.0
C1942 C 0.28822 0.18937 0.7124 0.0
C1943 C 0.27973 0.20408 0.72508 0.0
C1944 C 0.26921 0.28784 0.74282 0.0
C1945 C 0.24437 0.29433 0.7806 0.0
C1946 C 0.25869 0.28096 0.7674 0.0
C1947 C 0.29024 0.23797 0.72835 0.0
C1948 C 0.28088 0.25339 0.74188 0.0
H1949 H 0.25787 0.28909 0.81514 0.0
H1950 H 0.28433 0.27175 0.7935 0.0
H1951 H 0.24896 0.32795 0.75577 0.0
H1952 H 0.33342 0.25719 0.69875 0.0
H1953 H 0.31822 0.28289 0.72083 0.0
C1954 C 0.7205 0.23989 0.8058 0.0
C1955 C 0.6989 0.21048 0.80613 0.0
C1956 C 0.73022 0.2548 0.79324 0.0
C1957 C 0.73834 0.23309 0.75623 0.0
H1958 H 0.75004 0.33233 0.75196 0.0
C1959 C 0.77407 0.2948 0.70394 0.0
C1960 C 0.80053 0.31995 0.70422 0.0
C1961 C 0.75893 0.28303 0.71617 0.0
C1962 C 0.74706 0.30454 0.75302 0.0
H1963 H 0.66989 0.17437 0.79349 0.0
H1964 H 0.68623 0.20068 0.77168 0.0
H1965 H 0.72844 0.3091 0.7737 0.0
H1966 H 0.83132 0.35273 0.71763 0.0
H1967 H 0.80501 0.33212 0.7389 0.0
H1968 H 0.75703 0.22853 0.73558 0.0
C1969 C 0.69629 0.21184 0.78109 0.0
C1970 C 0.73476 0.2912 0.76549 0.0
C1971 C 0.68678 0.19683 0.79362 0.0
C1972 C 0.81104 0.33334 0.71702 0.0
C1973 C 0.79576 0.32173 0.72922 0.0
C1974 C 0.75045 0.24643 0.74376 0.0
C1975 C 0.71854 0.24073 0.78071 0.0
C1976 C 0.73045 0.25526 0.7673 0.0
C1977 C 0.76979 0.29617 0.72896 0.0
C1978 C 0.7552 0.28229 0.74203 0.0
H1979 H 0.73095 0.25074 0.8152 0.0
H1980 H 0.74781 0.27669 0.79336 0.0
H1981 H 0.73601 0.20524 0.7573 0.0
H1982 H 0.76567 0.28336 0.69434 0.0
H1983 H 0.73883 0.26345 0.71562 0.0
C1984 C 0.10346 0.42237 0.12589 0.0
C1985 C 0.094 0.38882 0.12185 0.0
C1986 C 0.0839 0.45098 0.12154 0.0
C1987 C 0.04058 0.51011 0.1101 0.0
H1988 H 0.94194 0.49008 0.1108 0.0
C1989 C 0.94353 0.62207 0.11121 0.0
C1990 C 0.91711 0.61879 0.12104 0.0
C1991 C 0.96225 0.59301 0.10687 0.0
C1992 C 0.96935 0.49624 0.11058 0.0
H1993 H 0.05895 0.35874 0.10925 0.0
H1994 H 0.02597 0.4086 0.101 0.0
H1995 H 0.98341 0.44276 0.1115 0.0
H1996 H 0.88803 0.58267 0.13351 0.0
H1997 H 0.92082 0.53186 0.1262 0.0
H1998 H 0.02657 0.56363 0.11025 0.0
C1999 C 0.04758 0.41306 0.1079 0.0
C2000 C 0.99332 0.46896 0.11076 0.0
C2001 C 0.06681 0.38451 0.11242 0.0
C2002 C 0.90779 0.58568 0.12567 0.0
C2003 C 0.92685 0.55657 0.1215 0.0
C2004 C 0.01662 0.53739 0.11006 0.0
C2005 C 0.05461 0.44649 0.113 0.0
C2006 C 0.02934 0.47548 0.11083 0.0
C2007 C 0.95551 0.56012 0.11256 0.0
C2008 C 0.98062 0.5309 0.11061 0.0
H2009 H 0.12386 0.4262 0.13341 0.0
H2010 H 0.09016 0.47614 0.12579 0.0
H2011 H 0.068 0.51627 0.10993 0.0
H2012 H 0.95133 0.6475 0.10761 0.0
H2013 H 0.98336 0.59672 0.09967 0.0
C2014 C 0.3886 0.94275 0.11104 0.0
C2015 C 0.39145 0.91741 0.12133 0.0
C2016 C 0.41771 0.96179 0.10691 0.0
C2017 C 0.47243 0.01739 0.11052 0.0
H2018 H 0.56738 0.98496 0.1127 0.0
C2019 C 0.58676 0.10397 0.1275 0.0
C2020 C 0.62045 0.0949 0.12345 0.0
C2021 C 0.55825 0.08463 0.12287 0.0
C2022 C 0.5411 0.99463 0.11176 0.0
H2023 H 0.42686 0.89118 0.13505 0.0
H2024 H 0.47776 0.92393 0.12786 0.0
H2025 H 0.52029 0.94316 0.11187 0.0
H2026 H 0.65093 0.06082 0.11058 0.0
H2027 H 0.60126 0.02809 0.10195 0.0
H2028 H 0.49327 0.06888 0.1105 0.0
C2029 C 0.45339 0.9288 0.12267 0.0
C2030 C 0.51398 0.9705 0.11148 0.0
C2031 C 0.42426 0.90964 0.12672 0.0
C2032 C 0.62504 0.06838 0.11375 0.0
C2033 C 0.59661 0.04932 0.109 0.0
C2034 C 0.49958 0.04154 0.11073 0.0
C2035 C 0.45017 0.95627 0.11318 0.0
C2036 C 0.47922 0.98153 0.11124 0.0
C2037 C 0.56304 0.0559 0.11408 0.0
C2038 C 0.53429 0.03053 0.11172 0.0
H2039 H 0.36337 0.94953 0.10691 0.0
H2040 H 0.41434 0.98217 0.09936 0.0
H2041 H 0.44605 0.02704 0.11049 0.0
H2042 H 0.58273 0.12389 0.13519 0.0
H2043 H 0.53293 0.09051 0.12709 0.0
C2044 C 0.0655 0.62688 0.39778 0.0
C2045 C 0.09266 0.62344 0.38827 0.0
C2046 C 0.04672 0.59784 0.4021 0.0
C2047 C 0.99322 0.54138 0.39869 0.0
H2048 H 0.02778 0.44717 0.39905 0.0
C2049 C 0.90939 0.4233 0.38371 0.0
C2050 C 0.91876 0.39045 0.38861 0.0
C2051 C 0.9282 0.4527 0.38774 0.0
C2052 C 0.01749 0.47328 0.39927 0.0
H2053 H 0.12287 0.58706 0.37635 0.0
H2054 H 0.09005 0.53625 0.38369 0.0
H2055 H 0.06857 0.49514 0.3995 0.0
H2056 H 0.95304 0.36255 0.40229 0.0
H2057 H 0.98472 0.41384 0.40992 0.0
H2058 H 0.94214 0.51952 0.39849 0.0
C2059 C 0.08348 0.56112 0.38813 0.0
C2060 C 0.04107 0.5009 0.39932 0.0
C2061 C 0.10258 0.59022 0.38396 0.0
C2062 C 0.94515 0.38776 0.39849 0.0
C2063 C 0.96366 0.4171 0.40266 0.0
C2064 C 0.96964 0.51376 0.39875 0.0
C2065 C 0.05419 0.56478 0.39673 0.0
C2066 C 0.02933 0.53537 0.39869 0.0
C2067 C 0.95671 0.44972 0.39677 0.0
C2068 C 0.98142 0.47927 0.3987 0.0
H2069 H 0.05728 0.65236 0.40115 0.0
H2070 H 0.02507 0.60164 0.40904 0.0
H2071 H 0.98297 0.56746 0.39802 0.0
H2072 H 0.88978 0.42586 0.37578 0.0
H2073 H 0.92208 0.47721 0.38288 0.0
C2074 C 0.5861 0.90985 0.38183 0.0
C2075 C 0.61936 0.91739 0.38682 0.0
C2076 C 0.5574 0.92903 0.38632 0.0
C2077 C 0.53955 0.01739 0.39897 0.0
H2078 H 0.44447 0.98498 0.39808 0.0
C2079 C 0.38664 0.068 0.39784 0.0
C2080 C 0.39032 0.09453 0.38809 0.0
C2081 C 0.41553 0.04915 0.40228 0.0
C2082 C 0.47081 0.99465 0.39867 0.0
H2083 H 0.64877 0.94916 0.40094 0.0
H2084 H 0.59858 0.98186 0.40923 0.0
H2085 H 0.49158 0.94319 0.39812 0.0
H2086 H 0.42701 0.12383 0.37595 0.0
H2087 H 0.47759 0.09084 0.38349 0.0
H2088 H 0.51874 0.06889 0.39943 0.0
C2089 C 0.59451 0.96163 0.40168 0.0
C2090 C 0.49792 0.97052 0.39849 0.0
C2091 C 0.62318 0.94255 0.39712 0.0
C2092 C 0.42367 0.10395 0.38371 0.0
C2093 C 0.45263 0.08479 0.38801 0.0
C2094 C 0.5124 0.04154 0.39922 0.0
C2095 C 0.56151 0.95631 0.39584 0.0
C2096 C 0.53269 0.98154 0.39826 0.0
C2097 C 0.44866 0.05594 0.3968 0.0
C2098 C 0.47762 0.03056 0.3987 0.0
H2099 H 0.58274 0.89148 0.37351 0.0
H2100 H 0.53258 0.92431 0.38145 0.0
H2101 H 0.56593 0.02703 0.39866 0.0
H2102 H 0.36105 0.06019 0.40128 0.0
H2103 H 0.41153 0.02786 0.40936 0.0
C2104 C 0.09194 0.40967 0.8836 0.0
C2105 C 0.12518 0.41954 0.88794 0.0
C2106 C 0.06279 0.42873 0.88775 0.0
C2107 C 1.00247 0.47135 0.89871 0.0
H2108 H 0.02172 0.57004 0.898 0.0
C2109 C 0.88976 0.56755 0.89669 0.0
C2110 C 0.89323 0.59371 0.88677 0.0
C2111 C 0.91879 0.54908 0.90123 0.0
C2112 C 0.01579 0.54261 0.89823 0.0
H2113 H 0.15407 0.45467 0.90093 0.0
H2114 H 0.10326 0.48678 0.90881 0.0
H2115 H 0.06948 0.52901 0.89781 0.0
H2116 H 0.92963 0.62262 0.87435 0.0
H2117 H 0.98044 0.59028 0.88205 0.0
H2118 H 0.94878 0.48491 0.89808 0.0
C2119 C 0.09948 0.46524 0.90183 0.0
C2120 C 0.0433 0.51891 0.89833 0.0
C2121 C 0.12857 0.44651 0.89752 0.0
C2122 C 0.92647 0.60304 0.88225 0.0
C2123 C 0.95557 0.58425 0.88664 0.0
C2124 C 0.97496 0.49505 0.89848 0.0
C2125 C 0.06643 0.45791 0.89639 0.0
C2126 C 0.03707 0.48288 0.89827 0.0
C2127 C 0.95186 0.55585 0.89569 0.0
C2128 C 0.98119 0.53105 0.89792 0.0
H2129 H 0.08881 0.38944 0.87597 0.0
H2130 H 0.03792 0.42224 0.88326 0.0
H2131 H 0.99654 0.44391 0.89885 0.0
H2132 H 0.86423 0.55979 0.90022 0.0
H2133 H 0.91497 0.52815 0.9085 0.0
C2134 C 0.60695 0.08889 0.88224 0.0
C2135 C 0.59627 0.12109 0.88741 0.0
C2136 C 0.58806 0.05889 0.88538 0.0
C2137 C 0.52023 0.01889 0.9069 0.0
H2138 H 0.48635 0.98135 0.8724 0.0
C2139 C 0.44707 0.88812 0.89813 0.0
C2140 C 0.41976 0.88859 0.88856 0.0
C2141 C 0.46547 0.91845 0.90115 0.0
C2142 C 0.49537 0.99172 0.88212 0.0
H2143 H 0.55969 0.14709 0.90076 0.0
H2144 H 0.52745 0.09448 0.90668 0.0
H2145 H 0.53013 0.02704 0.87219 0.0
H2146 H 0.38884 0.9212 0.87525 0.0
H2147 H 0.42115 0.97433 0.88043 0.0
H2148 H 0.48575 0.98271 0.91678 0.0
C2149 C 0.55015 0.09233 0.90016 0.0
C2150 C 0.52081 0.01749 0.882 0.0
C2151 C 0.56865 0.12239 0.89682 0.0
C2152 C 0.40925 0.92034 0.88291 0.0
C2153 C 0.42805 0.9506 0.88573 0.0
C2154 C 0.49522 0.99241 0.90702 0.0
C2155 C 0.55852 0.06066 0.89387 0.0
C2156 C 0.53349 0.03141 0.89437 0.0
C2157 C 0.45731 0.94956 0.89439 0.0
C2158 C 0.48233 0.97884 0.8946 0.0
H2159 H 0.62764 0.0874 0.87471 0.0
H2160 H 0.59512 0.03471 0.88044 0.0
H2161 H 0.5294 0.02941 0.91656 0.0
H2162 H 0.4559 0.86378 0.90246 0.0
H2163 H 0.48796 0.91687 0.9078 0.0
C2164 C 0.09446 0.60427 0.626 0.0
C2165 C 0.12628 0.59375 0.62037 0.0
C2166 C 0.0642 0.58538 0.62323 0.0
C2167 C 0.02271 0.51759 0.60208 0.0
H2168 H 0.98716 0.48404 0.63697 0.0
C2169 C 0.89239 0.44445 0.6121 0.0
C2170 C 0.89328 0.41752 0.62181 0.0
C2171 C 0.92263 0.46268 0.60875 0.0
C2172 C 0.99697 0.49296 0.62714 0.0
H2173 H 0.15115 0.55749 0.60655 0.0
H2174 H 0.09807 0.52527 0.6013 0.0
H2175 H 0.03286 0.5278 0.63669 0.0
H2176 H 0.92647 0.3871 0.63507 0.0
H2177 H 0.9795 0.41904 0.62928 0.0
H2178 H 0.98599 0.483 0.59259 0.0
C2179 C 0.09645 0.54783 0.60791 0.0
C2180 C 0.02274 0.5184 0.62698 0.0
C2181 C 0.12677 0.56632 0.61087 0.0
C2182 C 0.92531 0.40719 0.62729 0.0
C2183 C 0.9555 0.42579 0.62412 0.0
C2184 C 0.99624 0.49256 0.60225 0.0
C2185 C 0.06528 0.556 0.61465 0.0
C2186 C 0.03597 0.53097 0.61447 0.0
C2187 C 0.95409 0.45475 0.61533 0.0
C2188 C 0.98338 0.47977 0.6148 0.0
H2189 H 0.09357 0.6248 0.63359 0.0
H2190 H 0.04042 0.59234 0.6285 0.0
H2191 H 0.03265 0.52667 0.5923 0.0
H2192 H 0.8678 0.45325 0.60796 0.0
H2193 H 0.92074 0.48495 0.602 0.0
C2194 C 0.60485 0.92623 0.62882 0.0
C2195 C 0.59789 0.89486 0.6221 0.0
C2196 C 0.58545 0.95584 0.62573 0.0
C2197 C 0.5224 0.99784 0.6028 0.0
H2198 H 0.47779 0.02529 0.63689 0.0
C2199 C 0.44695 0.12553 0.61352 0.0
C2200 C 0.41814 0.12352 0.62232 0.0
C2201 C 0.46524 0.0956 0.60989 0.0
C2202 C 0.48969 0.01768 0.62726 0.0
H2203 H 0.5672 0.87007 0.60629 0.0
H2204 H 0.53384 0.92223 0.60056 0.0
H2205 H 0.52234 0.98051 0.6372 0.0
H2206 H 0.38437 0.08884 0.63355 0.0
H2207 H 0.41632 0.03631 0.62723 0.0
H2208 H 0.49011 0.03602 0.59296 0.0
C2209 C 0.55432 0.92401 0.60816 0.0
C2210 C 0.51559 0.99244 0.62747 0.0
C2211 C 0.57349 0.89426 0.61138 0.0
C2212 C 0.40603 0.09092 0.62649 0.0
C2213 C 0.42459 0.06097 0.62302 0.0
C2214 C 0.49683 0.02378 0.60263 0.0
C2215 C 0.55883 0.95449 0.61584 0.0
C2216 C 0.53236 0.98237 0.61528 0.0
C2217 C 0.45537 0.06329 0.61526 0.0
C2218 C 0.48017 0.03384 0.61488 0.0
H2219 H 0.62268 0.927 0.63743 0.0
H2220 H 0.58947 0.97909 0.63177 0.0
H2221 H 0.53478 0.99029 0.59326 0.0
H2222 H 0.45693 0.15055 0.61033 0.0
H2223 H 0.4889 0.0982 0.60395 0.0
loop_
_geom_bond_atom_site_label_1
_geom_bond_atom_site_label_2
_geom_bond_distance
_geom_bond_site_symmetry_2
_ccdc_geom_bond_type
Zn0 N4 2.020 . S
Zn0 O8 2.019 . S
Zn0 N10 2.119 . S
Zn0 O18 1.975 . S
C1 N2 1.334 . S
C1 N5 1.336 . S
N2 C1 1.334 . S
N2 C3 1.334 . S
C3 N2 1.334 . S
C3 N4 1.336 . S
N4 Zn0 2.020 . S
N4 C3 1.336 . S
N4 N5 1.354 . S
N5 C1 1.336 . S
N5 N4 1.354 . S
N5 Zn9 2.020 . S
C6 O7 1.244 . S
C6 O30 1.257 . S
O7 C6 1.244 . S
O8 Zn0 2.019 . S
O8 C28 1.257 . S
Zn9 N5 2.020 . S
Zn9 O16 1.975 . S
Zn9 N25 2.119 . S
Zn9 O30 2.019 . S
N10 Zn0 2.119 . S
N10 C12 1.334 . S
N10 C13 1.328 . S
C11 C12 1.391 . S
C11 N14 1.329 . S
C11 H32 0.930 . S
C12 N10 1.334 . S
C12 C11 1.391 . S
C12 H19 0.930 . S
C13 N10 1.328 . S
C13 C15 1.392 . S
C13 H20 0.930 . S
N14 C11 1.329 . S
N14 C15 1.331 . S
C15 C13 1.392 . S
C15 N14 1.331 . S
O16 Zn9 1.975 . S
O16 C17 1.252 . S
C17 O16 1.252 . S
C17 O18 1.252 . S
O18 Zn0 1.975 . S
O18 C17 1.252 . S
H19 C12 0.930 . S
H20 C13 0.930 . S
C21 C22 1.392 . S
C21 N25 1.328 . S
C21 H27 0.930 . S
C22 C21 1.392 . S
C22 N26 1.331 . S
C23 C24 1.391 . S
C23 N26 1.329 . S
C23 H33 0.930 . S
C24 C23 1.391 . S
C24 N25 1.334 . S
C24 H31 0.930 . S
N25 Zn9 2.119 . S
N25 C21 1.328 . S
N25 C24 1.334 . S
N26 C22 1.331 . S
N26 C23 1.329 . S
H27 C21 0.930 . S
C28 O8 1.257 . S
C28 O29 1.244 . S
O29 C28 1.244 . S
O30 C6 1.257 . S
O30 Zn9 2.019 . S
H31 C24 0.930 . S
H32 C11 0.930 . S
H33 C23 0.930 . S
Zn34 N38 2.020 . S
Zn34 O42 2.019 . S
Zn34 N44 2.119 . S
Zn34 O52 1.975 . S
C35 N36 1.334 . S
C35 N39 1.336 . S
N36 C35 1.334 . S
N36 C37 1.334 . S
C37 N36 1.334 . S
C37 N38 1.336 . S
N38 Zn34 2.020 . S
N38 C37 1.336 . S
N38 N39 1.354 . S
N39 C35 1.336 . S
N39 N38 1.354 . S
N39 Zn43 2.020 . S
C40 O41 1.244 . S
C40 O64 1.257 . S
O41 C40 1.244 . S
O42 Zn34 2.019 . S
O42 C62 1.257 . S
Zn43 N39 2.020 . S
Zn43 O50 1.975 . S
Zn43 N59 2.119 . S
Zn43 O64 2.019 . S
N44 Zn34 2.119 . S
N44 C46 1.334 . S
N44 C47 1.328 . S
C45 C46 1.391 . S
C45 N48 1.329 . S
C45 H66 0.930 . S
C46 N44 1.334 . S
C46 C45 1.391 . S
C46 H53 0.930 . S
C47 N44 1.328 . S
C47 C49 1.392 . S
C47 H54 0.930 . S
N48 C45 1.329 . S
N48 C49 1.331 . S
C49 C47 1.392 . S
C49 N48 1.331 . S
O50 Zn43 1.975 . S
O50 C51 1.252 . S
C51 O50 1.252 . S
C51 O52 1.252 . S
O52 Zn34 1.975 . S
O52 C51 1.252 . S
H53 C46 0.930 . S
H54 C47 0.930 . S
C55 C56 1.392 . S
C55 N59 1.328 . S
C55 H61 0.930 . S
C56 C55 1.392 . S
C56 N60 1.331 . S
C57 C58 1.391 . S
C57 N60 1.329 . S
C57 H67 0.930 . S
C58 C57 1.391 . S
C58 N59 1.334 . S
C58 H65 0.930 . S
N59 Zn43 2.119 . S
N59 C55 1.328 . S
N59 C58 1.334 . S
N60 C56 1.331 . S
N60 C57 1.329 . S
H61 C55 0.930 . S
C62 O42 1.257 . S
C62 O63 1.244 . S
O63 C62 1.244 . S
O64 C40 1.257 . S
O64 Zn43 2.019 . S
H65 C58 0.930 . S
H66 C45 0.930 . S
H67 C57 0.930 . S
Zn68 N72 2.020 . S
Zn68 O76 2.019 . S
Zn68 N78 2.119 . S
Zn68 O86 1.975 . S
C69 N70 1.334 . S
C69 N73 1.336 . S
N70 C69 1.334 . S
N70 C71 1.334 . S
C71 N70 1.334 . S
C71 N72 1.336 . S
N72 Zn68 2.020 . S
N72 C71 1.336 . S
N72 N73 1.354 . S
N73 C69 1.336 . S
N73 N72 1.354 . S
N73 Zn77 2.020 . S
C74 O75 1.244 . S
C74 O98 1.257 . S
O75 C74 1.244 . S
O76 Zn68 2.019 . S
O76 C96 1.257 . S
Zn77 N73 2.020 . S
Zn77 O84 1.975 . S
Zn77 N93 2.119 . S
Zn77 O98 2.019 . S
N78 Zn68 2.119 . S
N78 C80 1.334 . S
N78 C81 1.328 . S
C79 C80 1.391 . S
C79 N82 1.329 . S
C79 H100 0.930 . S
C80 N78 1.334 . S
C80 C79 1.391 . S
C80 H87 0.930 . S
C81 N78 1.328 . S
C81 C83 1.392 . S
C81 H88 0.930 . S
N82 C79 1.329 . S
N82 C83 1.331 . S
C83 C81 1.392 . S
C83 N82 1.331 . S
O84 Zn77 1.975 . S
O84 C85 1.252 . S
C85 O84 1.252 . S
C85 O86 1.252 . S
O86 Zn68 1.975 . S
O86 C85 1.252 . S
H87 C80 0.930 . S
H88 C81 0.930 . S
C89 C90 1.392 . S
C89 N93 1.328 . S
C89 H95 0.930 . S
C90 C89 1.392 . S
C90 N94 1.331 . S
C91 C92 1.391 . S
C91 N94 1.329 . S
C91 H101 0.930 . S
C92 C91 1.391 . S
C92 N93 1.334 . S
C92 H99 0.930 . S
N93 Zn77 2.119 . S
N93 C89 1.328 . S
N93 C92 1.334 . S
N94 C90 1.331 . S
N94 C91 1.329 . S
H95 C89 0.930 . S
C96 O76 1.257 . S
C96 O97 1.244 . S
O97 C96 1.244 . S
O98 C74 1.257 . S
O98 Zn77 2.019 . S
H99 C92 0.930 . S
H100 C79 0.930 . S
H101 C91 0.930 . S
Zn102 N106 2.020 . S
Zn102 O110 2.019 . S
Zn102 N112 2.119 . S
Zn102 O120 1.975 . S
C103 N104 1.334 . S
C103 N107 1.336 . S
N104 C103 1.334 . S
N104 C105 1.334 . S
C105 N104 1.334 . S
C105 N106 1.336 . S
N106 Zn102 2.020 . S
N106 C105 1.336 . S
N106 N107 1.354 . S
N107 C103 1.336 . S
N107 N106 1.354 . S
N107 Zn111 2.020 . S
C108 O109 1.244 . S
C108 O132 1.257 . S
O109 C108 1.244 . S
O110 Zn102 2.019 . S
O110 C130 1.257 . S
Zn111 N107 2.020 . S
Zn111 O118 1.975 . S
Zn111 N127 2.119 . S
Zn111 O132 2.019 . S
N112 Zn102 2.119 . S
N112 C114 1.334 . S
N112 C115 1.328 . S
C113 C114 1.391 . S
C113 N116 1.329 . S
C113 H134 0.930 . S
C114 N112 1.334 . S
C114 C113 1.391 . S
C114 H121 0.930 . S
C115 N112 1.328 . S
C115 C117 1.392 . S
C115 H122 0.930 . S
N116 C113 1.329 . S
N116 C117 1.331 . S
C117 C115 1.392 . S
C117 N116 1.331 . S
O118 Zn111 1.975 . S
O118 C119 1.252 . S
C119 O118 1.252 . S
C119 O120 1.252 . S
O120 Zn102 1.975 . S
O120 C119 1.252 . S
H121 C114 0.930 . S
H122 C115 0.930 . S
C123 C124 1.392 . S
C123 N127 1.328 . S
C123 H129 0.930 . S
C124 C123 1.392 . S
C124 N128 1.331 . S
C125 C126 1.391 . S
C125 N128 1.329 . S
C125 H135 0.930 . S
C126 C125 1.391 . S
C126 N127 1.334 . S
C126 H133 0.930 . S
N127 Zn111 2.119 . S
N127 C123 1.328 . S
N127 C126 1.334 . S
N128 C124 1.331 . S
N128 C125 1.329 . S
H129 C123 0.930 . S
C130 O110 1.257 . S
C130 O131 1.244 . S
O131 C130 1.244 . S
O132 C108 1.257 . S
O132 Zn111 2.019 . S
H133 C126 0.930 . S
H134 C113 0.930 . S
H135 C125 0.930 . S
Zn136 N140 2.020 . S
Zn136 O144 2.019 . S
Zn136 N146 2.119 . S
Zn136 O154 1.975 . S
C137 N138 1.334 . S
C137 N141 1.336 . S
N138 C137 1.334 . S
N138 C139 1.334 . S
C139 N138 1.334 . S
C139 N140 1.336 . S
N140 Zn136 2.020 . S
N140 C139 1.336 . S
N140 N141 1.354 . S
N141 C137 1.336 . S
N141 N140 1.354 . S
N141 Zn145 2.020 . S
C142 O143 1.244 . S
C142 O166 1.257 . S
O143 C142 1.244 . S
O144 Zn136 2.019 . S
O144 C164 1.257 . S
Zn145 N141 2.020 . S
Zn145 O152 1.975 . S
Zn145 N161 2.119 . S
Zn145 O166 2.019 . S
N146 Zn136 2.119 . S
N146 C148 1.334 . S
N146 C149 1.328 . S
C147 C148 1.391 . S
C147 N150 1.329 . S
C147 H168 0.930 . S
C148 N146 1.334 . S
C148 C147 1.391 . S
C148 H155 0.930 . S
C149 N146 1.328 . S
C149 C151 1.392 . S
C149 H156 0.930 . S
N150 C147 1.329 . S
N150 C151 1.331 . S
C151 C149 1.392 . S
C151 N150 1.331 . S
O152 Zn145 1.975 . S
O152 C153 1.252 . S
C153 O152 1.252 . S
C153 O154 1.252 . S
O154 Zn136 1.975 . S
O154 C153 1.252 . S
H155 C148 0.930 . S
H156 C149 0.930 . S
C157 C158 1.392 . S
C157 N161 1.328 . S
C157 H163 0.930 . S
C158 C157 1.392 . S
C158 N162 1.331 . S
C159 C160 1.391 . S
C159 N162 1.329 . S
C159 H169 0.930 . S
C160 C159 1.391 . S
C160 N161 1.334 . S
C160 H167 0.930 . S
N161 Zn145 2.119 . S
N161 C157 1.328 . S
N161 C160 1.334 . S
N162 C158 1.331 . S
N162 C159 1.329 . S
H163 C157 0.930 . S
C164 O144 1.257 . S
C164 O165 1.244 . S
O165 C164 1.244 . S
O166 C142 1.257 . S
O166 Zn145 2.019 . S
H167 C160 0.930 . S
H168 C147 0.930 . S
H169 C159 0.930 . S
Zn170 N174 2.020 . S
Zn170 O178 2.019 . S
Zn170 N180 2.119 . S
Zn170 O188 1.975 . S
C171 N172 1.334 . S
C171 N175 1.336 . S
N172 C171 1.334 . S
N172 C173 1.334 . S
C173 N172 1.334 . S
C173 N174 1.336 . S
N174 Zn170 2.020 . S
N174 C173 1.336 . S
N174 N175 1.354 . S
N175 C171 1.336 . S
N175 N174 1.354 . S
N175 Zn179 2.020 . S
C176 O177 1.244 . S
C176 O200 1.257 . S
O177 C176 1.244 . S
O178 Zn170 2.019 . S
O178 C198 1.257 . S
Zn179 N175 2.020 . S
Zn179 O186 1.975 . S
Zn179 N195 2.119 . S
Zn179 O200 2.019 . S
N180 Zn170 2.119 . S
N180 C182 1.334 . S
N180 C183 1.328 . S
C181 C182 1.391 . S
C181 N184 1.329 . S
C181 H202 0.930 . S
C182 N180 1.334 . S
C182 C181 1.391 . S
C182 H189 0.930 . S
C183 N180 1.328 . S
C183 C185 1.392 . S
C183 H190 0.930 . S
N184 C181 1.329 . S
N184 C185 1.331 . S
C185 C183 1.392 . S
C185 N184 1.331 . S
O186 Zn179 1.975 . S
O186 C187 1.252 . S
C187 O186 1.252 . S
C187 O188 1.252 . S
O188 Zn170 1.975 . S
O188 C187 1.252 . S
H189 C182 0.930 . S
H190 C183 0.930 . S
C191 C192 1.392 . S
C191 N195 1.328 . S
C191 H197 0.930 . S
C192 C191 1.392 . S
C192 N196 1.331 . S
C193 C194 1.391 . S
C193 N196 1.329 . S
C193 H203 0.930 . S
C194 C193 1.391 . S
C194 N195 1.334 . S
C194 H201 0.930 . S
N195 Zn179 2.119 . S
N195 C191 1.328 . S
N195 C194 1.334 . S
N196 C192 1.331 . S
N196 C193 1.329 . S
H197 C191 0.930 . S
C198 O178 1.257 . S
C198 O199 1.244 . S
O199 C198 1.244 . S
O200 C176 1.257 . S
O200 Zn179 2.019 . S
H201 C194 0.930 . S
H202 C181 0.930 . S
H203 C193 0.930 . S
Zn204 N208 2.020 . S
Zn204 O212 2.019 . S
Zn204 N214 2.119 . S
Zn204 O222 1.975 . S
C205 N206 1.334 . S
C205 N209 1.336 . S
N206 C205 1.334 . S
N206 C207 1.334 . S
C207 N206 1.334 . S
C207 N208 1.336 . S
N208 Zn204 2.020 . S
N208 C207 1.336 . S
N208 N209 1.354 . S
N209 C205 1.336 . S
N209 N208 1.354 . S
N209 Zn213 2.020 . S
C210 O211 1.244 . S
C210 O234 1.257 . S
O211 C210 1.244 . S
O212 Zn204 2.019 . S
O212 C232 1.257 . S
Zn213 N209 2.020 . S
Zn213 O220 1.975 . S
Zn213 N229 2.119 . S
Zn213 O234 2.019 . S
N214 Zn204 2.119 . S
N214 C216 1.334 . S
N214 C217 1.328 . S
C215 C216 1.391 . S
C215 N218 1.329 . S
C215 H236 0.930 . S
C216 N214 1.334 . S
C216 C215 1.391 . S
C216 H223 0.930 . S
C217 N214 1.328 . S
C217 C219 1.392 . S
C217 H224 0.930 . S
N218 C215 1.329 . S
N218 C219 1.331 . S
C219 C217 1.392 . S
C219 N218 1.331 . S
O220 Zn213 1.975 . S
O220 C221 1.252 . S
C221 O220 1.252 . S
C221 O222 1.252 . S
O222 Zn204 1.975 . S
O222 C221 1.252 . S
H223 C216 0.930 . S
H224 C217 0.930 . S
C225 C226 1.392 . S
C225 N229 1.328 . S
C225 H231 0.930 . S
C226 C225 1.392 . S
C226 N230 1.331 . S
C227 C228 1.391 . S
C227 N230 1.329 . S
C227 H237 0.930 . S
C228 C227 1.391 . S
C228 N229 1.334 . S
C228 H235 0.930 . S
N229 Zn213 2.119 . S
N229 C225 1.328 . S
N229 C228 1.334 . S
N230 C226 1.331 . S
N230 C227 1.329 . S
H231 C225 0.930 . S
C232 O212 1.257 . S
C232 O233 1.244 . S
O233 C232 1.244 . S
O234 C210 1.257 . S
O234 Zn213 2.019 . S
H235 C228 0.930 . S
H236 C215 0.930 . S
H237 C227 0.930 . S
Zn238 N242 2.020 . S
Zn238 O246 2.019 . S
Zn238 N248 2.119 . S
Zn238 O256 1.975 . S
C239 N240 1.334 . S
C239 N243 1.336 . S
N240 C239 1.334 . S
N240 C241 1.334 . S
C241 N240 1.334 . S
C241 N242 1.336 . S
N242 Zn238 2.020 . S
N242 C241 1.336 . S
N242 N243 1.354 . S
N243 C239 1.336 . S
N243 N242 1.354 . S
N243 Zn247 2.020 . S
C244 O245 1.244 . S
C244 O268 1.257 . S
O245 C244 1.244 . S
O246 Zn238 2.019 . S
O246 C266 1.257 . S
Zn247 N243 2.020 . S
Zn247 O254 1.975 . S
Zn247 N263 2.119 . S
Zn247 O268 2.019 . S
N248 Zn238 2.119 . S
N248 C250 1.334 . S
N248 C251 1.328 . S
C249 C250 1.391 . S
C249 N252 1.329 . S
C249 H270 0.930 . S
C250 N248 1.334 . S
C250 C249 1.391 . S
C250 H257 0.930 . S
C251 N248 1.328 . S
C251 C253 1.392 . S
C251 H258 0.930 . S
N252 C249 1.329 . S
N252 C253 1.331 . S
C253 C251 1.392 . S
C253 N252 1.331 . S
O254 Zn247 1.975 . S
O254 C255 1.252 . S
C255 O254 1.252 . S
C255 O256 1.252 . S
O256 Zn238 1.975 . S
O256 C255 1.252 . S
H257 C250 0.930 . S
H258 C251 0.930 . S
C259 C260 1.392 . S
C259 N263 1.328 . S
C259 H265 0.930 . S
C260 C259 1.392 . S
C260 N264 1.331 . S
C261 C262 1.391 . S
C261 N264 1.329 . S
C261 H271 0.930 . S
C262 C261 1.391 . S
C262 N263 1.334 . S
C262 H269 0.930 . S
N263 Zn247 2.119 . S
N263 C259 1.328 . S
N263 C262 1.334 . S
N264 C260 1.331 . S
N264 C261 1.329 . S
H265 C259 0.930 . S
C266 O246 1.257 . S
C266 O267 1.244 . S
O267 C266 1.244 . S
O268 C244 1.257 . S
O268 Zn247 2.019 . S
H269 C262 0.930 . S
H270 C249 0.930 . S
H271 C261 0.930 . S
Zn272 N276 2.020 . S
Zn272 O280 2.019 . S
Zn272 N282 2.119 . S
Zn272 O290 1.975 . S
C273 N274 1.334 . S
C273 N277 1.336 . S
N274 C273 1.334 . S
N274 C275 1.334 . S
C275 N274 1.334 . S
C275 N276 1.336 . S
N276 Zn272 2.020 . S
N276 C275 1.336 . S
N276 N277 1.354 . S
N277 C273 1.336 . S
N277 N276 1.354 . S
N277 Zn281 2.020 . S
C278 O279 1.244 . S
C278 O302 1.257 . S
O279 C278 1.244 . S
O280 Zn272 2.019 . S
O280 C300 1.257 . S
Zn281 N277 2.020 . S
Zn281 O288 1.975 . S
Zn281 N297 2.119 . S
Zn281 O302 2.019 . S
N282 Zn272 2.119 . S
N282 C284 1.334 . S
N282 C285 1.328 . S
C283 C284 1.391 . S
C283 N286 1.329 . S
C283 H304 0.930 . S
C284 N282 1.334 . S
C284 C283 1.391 . S
C284 H291 0.930 . S
C285 N282 1.328 . S
C285 C287 1.392 . S
C285 H292 0.930 . S
N286 C283 1.329 . S
N286 C287 1.331 . S
C287 C285 1.392 . S
C287 N286 1.331 . S
O288 Zn281 1.975 . S
O288 C289 1.252 . S
C289 O288 1.252 . S
C289 O290 1.252 . S
O290 Zn272 1.975 . S
O290 C289 1.252 . S
H291 C284 0.930 . S
H292 C285 0.930 . S
C293 C294 1.392 . S
C293 N297 1.328 . S
C293 H299 0.930 . S
C294 C293 1.392 . S
C294 N298 1.331 . S
C295 C296 1.391 . S
C295 N298 1.329 . S
C295 H305 0.930 . S
C296 C295 1.391 . S
C296 N297 1.334 . S
C296 H303 0.930 . S
N297 Zn281 2.119 . S
N297 C293 1.328 . S
N297 C296 1.334 . S
N298 C294 1.331 . S
N298 C295 1.329 . S
H299 C293 0.930 . S
C300 O280 1.257 . S
C300 O301 1.244 . S
O301 C300 1.244 . S
O302 C278 1.257 . S
O302 Zn281 2.019 . S
H303 C296 0.930 . S
H304 C283 0.930 . S
H305 C295 0.930 . S
Zn306 N310 2.020 . S
Zn306 O314 2.019 . S
Zn306 N316 2.119 . S
Zn306 O324 1.975 . S
C307 N308 1.334 . S
C307 N311 1.336 . S
N308 C307 1.334 . S
N308 C309 1.334 . S
C309 N308 1.334 . S
C309 N310 1.336 . S
N310 Zn306 2.020 . S
N310 C309 1.336 . S
N310 N311 1.354 . S
N311 C307 1.336 . S
N311 N310 1.354 . S
N311 Zn315 2.020 . S
C312 O313 1.244 . S
C312 O336 1.257 . S
O313 C312 1.244 . S
O314 Zn306 2.019 . S
O314 C334 1.257 . S
Zn315 N311 2.020 . S
Zn315 O322 1.975 . S
Zn315 N331 2.119 . S
Zn315 O336 2.019 . S
N316 Zn306 2.119 . S
N316 C318 1.334 . S
N316 C319 1.328 . S
C317 C318 1.391 . S
C317 N320 1.329 . S
C317 H338 0.930 . S
C318 N316 1.334 . S
C318 C317 1.391 . S
C318 H325 0.930 . S
C319 N316 1.328 . S
C319 C321 1.392 . S
C319 H326 0.930 . S
N320 C317 1.329 . S
N320 C321 1.331 . S
C321 C319 1.392 . S
C321 N320 1.331 . S
O322 Zn315 1.975 . S
O322 C323 1.252 . S
C323 O322 1.252 . S
C323 O324 1.252 . S
O324 Zn306 1.975 . S
O324 C323 1.252 . S
H325 C318 0.930 . S
H326 C319 0.930 . S
C327 C328 1.392 . S
C327 N331 1.328 . S
C327 H333 0.930 . S
C328 C327 1.392 . S
C328 N332 1.331 . S
C329 C330 1.391 . S
C329 N332 1.329 . S
C329 H339 0.930 . S
C330 C329 1.391 . S
C330 N331 1.334 . S
C330 H337 0.930 . S
N331 Zn315 2.119 . S
N331 C327 1.328 . S
N331 C330 1.334 . S
N332 C328 1.331 . S
N332 C329 1.329 . S
H333 C327 0.930 . S
C334 O314 1.257 . S
C334 O335 1.244 . S
O335 C334 1.244 . S
O336 C312 1.257 . S
O336 Zn315 2.019 . S
H337 C330 0.930 . S
H338 C317 0.930 . S
H339 C329 0.930 . S
Zn340 N344 2.020 . S
Zn340 O348 2.019 . S
Zn340 N350 2.119 . S
Zn340 O358 1.975 . S
C341 N342 1.334 . S
C341 N345 1.336 . S
N342 C341 1.334 . S
N342 C343 1.334 . S
C343 N342 1.334 . S
C343 N344 1.336 . S
N344 Zn340 2.020 . S
N344 C343 1.336 . S
N344 N345 1.354 . S
N345 C341 1.336 . S
N345 N344 1.354 . S
N345 Zn349 2.020 . S
C346 O347 1.244 . S
C346 O370 1.257 . S
O347 C346 1.244 . S
O348 Zn340 2.019 . S
O348 C368 1.257 . S
Zn349 N345 2.020 . S
Zn349 O356 1.975 . S
Zn349 N365 2.119 . S
Zn349 O370 2.019 . S
N350 Zn340 2.119 . S
N350 C352 1.334 . S
N350 C353 1.328 . S
C351 C352 1.391 . S
C351 N354 1.329 . S
C351 H372 0.930 . S
C352 N350 1.334 . S
C352 C351 1.391 . S
C352 H359 0.930 . S
C353 N350 1.328 . S
C353 C355 1.392 . S
C353 H360 0.930 . S
N354 C351 1.329 . S
N354 C355 1.331 . S
C355 C353 1.392 . S
C355 N354 1.331 . S
O356 Zn349 1.975 . S
O356 C357 1.252 . S
C357 O356 1.252 . S
C357 O358 1.252 . S
O358 Zn340 1.975 . S
O358 C357 1.252 . S
H359 C352 0.930 . S
H360 C353 0.930 . S
C361 C362 1.392 . S
C361 N365 1.328 . S
C361 H367 0.930 . S
C362 C361 1.392 . S
C362 N366 1.331 . S
C363 C364 1.391 . S
C363 N366 1.329 . S
C363 H373 0.930 . S
C364 C363 1.391 . S
C364 N365 1.334 . S
C364 H371 0.930 . S
N365 Zn349 2.119 . S
N365 C361 1.328 . S
N365 C364 1.334 . S
N366 C362 1.331 . S
N366 C363 1.329 . S
H367 C361 0.930 . S
C368 O348 1.257 . S
C368 O369 1.244 . S
O369 C368 1.244 . S
O370 C346 1.257 . S
O370 Zn349 2.019 . S
H371 C364 0.930 . S
H372 C351 0.930 . S
H373 C363 0.930 . S
Zn374 N378 2.020 . S
Zn374 O382 2.019 . S
Zn374 N384 2.119 . S
Zn374 O392 1.975 . S
C375 N376 1.334 . S
C375 N379 1.336 . S
N376 C375 1.334 . S
N376 C377 1.334 . S
C377 N376 1.334 . S
C377 N378 1.336 . S
N378 Zn374 2.020 . S
N378 C377 1.336 . S
N378 N379 1.354 . S
N379 C375 1.336 . S
N379 N378 1.354 . S
N379 Zn383 2.020 . S
C380 O381 1.244 . S
C380 O404 1.257 . S
O381 C380 1.244 . S
O382 Zn374 2.019 . S
O382 C402 1.257 . S
Zn383 N379 2.020 . S
Zn383 O390 1.975 . S
Zn383 N399 2.119 . S
Zn383 O404 2.019 . S
N384 Zn374 2.119 . S
N384 C386 1.334 . S
N384 C387 1.328 . S
C385 C386 1.391 . S
C385 N388 1.329 . S
C385 H406 0.930 . S
C386 N384 1.334 . S
C386 C385 1.391 . S
C386 H393 0.930 . S
C387 N384 1.328 . S
C387 C389 1.392 . S
C387 H394 0.930 . S
N388 C385 1.329 . S
N388 C389 1.331 . S
C389 C387 1.392 . S
C389 N388 1.331 . S
O390 Zn383 1.975 . S
O390 C391 1.252 . S
C391 O390 1.252 . S
C391 O392 1.252 . S
O392 Zn374 1.975 . S
O392 C391 1.252 . S
H393 C386 0.930 . S
H394 C387 0.930 . S
C395 C396 1.392 . S
C395 N399 1.328 . S
C395 H401 0.930 . S
C396 C395 1.392 . S
C396 N400 1.331 . S
C397 C398 1.391 . S
C397 N400 1.329 . S
C397 H407 0.930 . S
C398 C397 1.391 . S
C398 N399 1.334 . S
C398 H405 0.930 . S
N399 Zn383 2.119 . S
N399 C395 1.328 . S
N399 C398 1.334 . S
N400 C396 1.331 . S
N400 C397 1.329 . S
H401 C395 0.930 . S
C402 O382 1.257 . S
C402 O403 1.244 . S
O403 C402 1.244 . S
O404 C380 1.257 . S
O404 Zn383 2.019 . S
H405 C398 0.930 . S
H406 C385 0.930 . S
H407 C397 0.930 . S
Zn408 N412 2.020 . S
Zn408 O416 2.019 . S
Zn408 N418 2.119 . S
Zn408 O426 1.975 . S
C409 N410 1.334 . S
C409 N413 1.336 . S
N410 C409 1.334 . S
N410 C411 1.334 . S
C411 N410 1.334 . S
C411 N412 1.336 . S
N412 Zn408 2.020 . S
N412 C411 1.336 . S
N412 N413 1.354 . S
N413 C409 1.336 . S
N413 N412 1.354 . S
N413 Zn417 2.020 . S
C414 O415 1.244 . S
C414 O438 1.257 . S
O415 C414 1.244 . S
O416 Zn408 2.019 . S
O416 C436 1.257 . S
Zn417 N413 2.020 . S
Zn417 O424 1.975 . S
Zn417 N433 2.119 . S
Zn417 O438 2.019 . S
N418 Zn408 2.119 . S
N418 C420 1.334 . S
N418 C421 1.328 . S
C419 C420 1.391 . S
C419 N422 1.329 . S
C419 H440 0.930 . S
C420 N418 1.334 . S
C420 C419 1.391 . S
C420 H427 0.930 . S
C421 N418 1.328 . S
C421 C423 1.392 . S
C421 H428 0.930 . S
N422 C419 1.329 . S
N422 C423 1.331 . S
C423 C421 1.392 . S
C423 N422 1.331 . S
O424 Zn417 1.975 . S
O424 C425 1.252 . S
C425 O424 1.252 . S
C425 O426 1.252 . S
O426 Zn408 1.975 . S
O426 C425 1.252 . S
H427 C420 0.930 . S
H428 C421 0.930 . S
C429 C430 1.392 . S
C429 N433 1.328 . S
C429 H435 0.930 . S
C430 C429 1.392 . S
C430 N434 1.331 . S
C431 C432 1.391 . S
C431 N434 1.329 . S
C431 H441 0.930 . S
C432 C431 1.391 . S
C432 N433 1.334 . S
C432 H439 0.930 . S
N433 Zn417 2.119 . S
N433 C429 1.328 . S
N433 C432 1.334 . S
N434 C430 1.331 . S
N434 C431 1.329 . S
H435 C429 0.930 . S
C436 O416 1.257 . S
C436 O437 1.244 . S
O437 C436 1.244 . S
O438 C414 1.257 . S
O438 Zn417 2.019 . S
H439 C432 0.930 . S
H440 C419 0.930 . S
H441 C431 0.930 . S
Zn442 N446 2.020 . S
Zn442 O450 2.019 . S
Zn442 N452 2.119 . S
Zn442 O460 1.975 . S
C443 N444 1.334 . S
C443 N447 1.336 . S
N444 C443 1.334 . S
N444 C445 1.334 . S
C445 N444 1.334 . S
C445 N446 1.336 . S
N446 Zn442 2.020 . S
N446 C445 1.336 . S
N446 N447 1.354 . S
N447 C443 1.336 . S
N447 N446 1.354 . S
N447 Zn451 2.020 . S
C448 O449 1.244 . S
C448 O472 1.257 . S
O449 C448 1.244 . S
O450 Zn442 2.019 . S
O450 C470 1.257 . S
Zn451 N447 2.020 . S
Zn451 O458 1.975 . S
Zn451 N467 2.119 . S
Zn451 O472 2.019 . S
N452 Zn442 2.119 . S
N452 C454 1.334 . S
N452 C455 1.328 . S
C453 C454 1.391 . S
C453 N456 1.329 . S
C453 H474 0.930 . S
C454 N452 1.334 . S
C454 C453 1.391 . S
C454 H461 0.930 . S
C455 N452 1.328 . S
C455 C457 1.392 . S
C455 H462 0.930 . S
N456 C453 1.329 . S
N456 C457 1.331 . S
C457 C455 1.392 . S
C457 N456 1.331 . S
O458 Zn451 1.975 . S
O458 C459 1.252 . S
C459 O458 1.252 . S
C459 O460 1.252 . S
O460 Zn442 1.975 . S
O460 C459 1.252 . S
H461 C454 0.930 . S
H462 C455 0.930 . S
C463 C464 1.392 . S
C463 N467 1.328 . S
C463 H469 0.930 . S
C464 C463 1.392 . S
C464 N468 1.331 . S
C465 C466 1.391 . S
C465 N468 1.329 . S
C465 H475 0.930 . S
C466 C465 1.391 . S
C466 N467 1.334 . S
C466 H473 0.930 . S
N467 Zn451 2.119 . S
N467 C463 1.328 . S
N467 C466 1.334 . S
N468 C464 1.331 . S
N468 C465 1.329 . S
H469 C463 0.930 . S
C470 O450 1.257 . S
C470 O471 1.244 . S
O471 C470 1.244 . S
O472 C448 1.257 . S
O472 Zn451 2.019 . S
H473 C466 0.930 . S
H474 C453 0.930 . S
H475 C465 0.930 . S
Zn476 N480 2.020 . S
Zn476 O484 2.019 . S
Zn476 N486 2.119 . S
Zn476 O494 1.975 . S
C477 N478 1.334 . S
C477 N481 1.336 . S
N478 C477 1.334 . S
N478 C479 1.334 . S
C479 N478 1.334 . S
C479 N480 1.336 . S
N480 Zn476 2.020 . S
N480 C479 1.336 . S
N480 N481 1.354 . S
N481 C477 1.336 . S
N481 N480 1.354 . S
N481 Zn485 2.020 . S
C482 O483 1.244 . S
C482 O506 1.257 . S
O483 C482 1.244 . S
O484 Zn476 2.019 . S
O484 C504 1.257 . S
Zn485 N481 2.020 . S
Zn485 O492 1.975 . S
Zn485 N501 2.119 . S
Zn485 O506 2.019 . S
N486 Zn476 2.119 . S
N486 C488 1.334 . S
N486 C489 1.328 . S
C487 C488 1.391 . S
C487 N490 1.329 . S
C487 H508 0.930 . S
C488 N486 1.334 . S
C488 C487 1.391 . S
C488 H495 0.930 . S
C489 N486 1.328 . S
C489 C491 1.392 . S
C489 H496 0.930 . S
N490 C487 1.329 . S
N490 C491 1.331 . S
C491 C489 1.392 . S
C491 N490 1.331 . S
O492 Zn485 1.975 . S
O492 C493 1.252 . S
C493 O492 1.252 . S
C493 O494 1.252 . S
O494 Zn476 1.975 . S
O494 C493 1.252 . S
H495 C488 0.930 . S
H496 C489 0.930 . S
C497 C498 1.392 . S
C497 N501 1.328 . S
C497 H503 0.930 . S
C498 C497 1.392 . S
C498 N502 1.331 . S
C499 C500 1.391 . S
C499 N502 1.329 . S
C499 H509 0.930 . S
C500 C499 1.391 . S
C500 N501 1.334 . S
C500 H507 0.930 . S
N501 Zn485 2.119 . S
N501 C497 1.328 . S
N501 C500 1.334 . S
N502 C498 1.331 . S
N502 C499 1.329 . S
H503 C497 0.930 . S
C504 O484 1.257 . S
C504 O505 1.244 . S
O505 C504 1.244 . S
O506 C482 1.257 . S
O506 Zn485 2.019 . S
H507 C500 0.930 . S
H508 C487 0.930 . S
H509 C499 0.930 . S
Zn510 N514 2.020 . S
Zn510 O518 2.019 . S
Zn510 N520 2.119 . S
Zn510 O528 1.975 . S
C511 N512 1.334 . S
C511 N515 1.336 . S
N512 C511 1.334 . S
N512 C513 1.334 . S
C513 N512 1.334 . S
C513 N514 1.336 . S
N514 Zn510 2.020 . S
N514 C513 1.336 . S
N514 N515 1.354 . S
N515 C511 1.336 . S
N515 N514 1.354 . S
N515 Zn519 2.020 . S
C516 O517 1.244 . S
C516 O540 1.257 . S
O517 C516 1.244 . S
O518 Zn510 2.019 . S
O518 C538 1.257 . S
Zn519 N515 2.020 . S
Zn519 O526 1.975 . S
Zn519 N535 2.119 . S
Zn519 O540 2.019 . S
N520 Zn510 2.119 . S
N520 C522 1.334 . S
N520 C523 1.328 . S
C521 C522 1.391 . S
C521 N524 1.329 . S
C521 H542 0.930 . S
C522 N520 1.334 . S
C522 C521 1.391 . S
C522 H529 0.930 . S
C523 N520 1.328 . S
C523 C525 1.392 . S
C523 H530 0.930 . S
N524 C521 1.329 . S
N524 C525 1.331 . S
C525 C523 1.392 . S
C525 N524 1.331 . S
O526 Zn519 1.975 . S
O526 C527 1.252 . S
C527 O526 1.252 . S
C527 O528 1.252 . S
O528 Zn510 1.975 . S
O528 C527 1.252 . S
H529 C522 0.930 . S
H530 C523 0.930 . S
C531 C532 1.392 . S
C531 N535 1.328 . S
C531 H537 0.930 . S
C532 C531 1.392 . S
C532 N536 1.331 . S
C533 C534 1.391 . S
C533 N536 1.329 . S
C533 H543 0.930 . S
C534 C533 1.391 . S
C534 N535 1.334 . S
C534 H541 0.930 . S
N535 Zn519 2.119 . S
N535 C531 1.328 . S
N535 C534 1.334 . S
N536 C532 1.331 . S
N536 C533 1.329 . S
H537 C531 0.930 . S
C538 O518 1.257 . S
C538 O539 1.244 . S
O539 C538 1.244 . S
O540 C516 1.257 . S
O540 Zn519 2.019 . S
H541 C534 0.930 . S
H542 C521 0.930 . S
H543 C533 0.930 . S
C544 C545 1.349 . S
C544 C546 1.327 . S
C544 H569 0.950 . S
C545 C544 1.349 . S
C545 C561 1.349 . S
C546 C544 1.327 . S
C546 C565 1.429 . S
C546 H570 0.950 . S
C547 C564 1.574 1_554 S
C547 C566 1.368 . S
C547 H571 0.949 . S
H548 C552 0.949 . S
C549 C550 1.349 . S
C549 C551 1.327 . S
C549 H572 0.950 . S
C550 C549 1.349 . S
C550 C562 1.349 . S
C551 C549 1.327 . S
C551 C567 1.429 . S
C551 H573 0.950 . S
C552 H548 0.949 . S
C552 C560 1.574 1_556 S
C552 C568 1.368 . S
H553 C561 0.950 . S
H554 C559 0.950 . S
H555 C560 0.949 . S
H556 C562 0.950 . S
H557 C563 0.950 . S
H558 C564 0.949 . S
C559 H554 0.950 . S
C559 C561 1.327 . S
C559 C565 1.429 . S
C560 C552 1.574 1_554 S
C560 H555 0.949 . S
C560 C566 1.368 . S
C561 C545 1.349 . S
C561 H553 0.950 . S
C561 C559 1.327 . S
C562 C550 1.349 . S
C562 H556 0.950 . S
C562 C563 1.327 . S
C563 H557 0.950 . S
C563 C562 1.327 . S
C563 C567 1.429 . S
C564 C547 1.574 1_556 S
C564 H558 0.949 . S
C564 C568 1.368 . S
C565 C546 1.429 . S
C565 C559 1.429 . S
C565 C566 1.523 . S
C566 C547 1.368 . S
C566 C560 1.368 . S
C566 C565 1.523 . S
C567 C551 1.429 . S
C567 C563 1.429 . S
C567 C568 1.523 . S
C568 C552 1.368 . S
C568 C564 1.368 . S
C568 C567 1.523 . S
H569 C544 0.950 . S
H570 C546 0.950 . S
H571 C547 0.949 . S
H572 C549 0.950 . S
H573 C551 0.950 . S
C574 C575 1.349 . S
C574 C576 1.327 . S
C574 H599 0.950 . S
C575 C574 1.349 . S
C575 C591 1.349 . S
C576 C574 1.327 . S
C576 C595 1.429 . S
C576 H600 0.950 . S
C577 C594 1.574 1_554 S
C577 C596 1.368 . S
C577 H601 0.949 . S
H578 C582 0.949 . S
C579 C580 1.349 . S
C579 C581 1.327 . S
C579 H602 0.950 . S
C580 C579 1.349 . S
C580 C592 1.349 . S
C581 C579 1.327 . S
C581 C597 1.429 . S
C581 H603 0.950 . S
C582 H578 0.949 . S
C582 C590 1.574 1_556 S
C582 C598 1.368 . S
H583 C591 0.950 . S
H584 C589 0.950 . S
H585 C590 0.949 . S
H586 C592 0.950 . S
H587 C593 0.950 . S
H588 C594 0.949 . S
C589 H584 0.950 . S
C589 C591 1.327 . S
C589 C595 1.429 . S
C590 C582 1.574 1_554 S
C590 H585 0.949 . S
C590 C596 1.368 . S
C591 C575 1.349 . S
C591 H583 0.950 . S
C591 C589 1.327 . S
C592 C580 1.349 . S
C592 H586 0.950 . S
C592 C593 1.327 . S
C593 H587 0.950 . S
C593 C592 1.327 . S
C593 C597 1.429 . S
C594 C577 1.574 1_556 S
C594 H588 0.949 . S
C594 C598 1.368 . S
C595 C576 1.429 . S
C595 C589 1.429 . S
C595 C596 1.523 . S
C596 C577 1.368 . S
C596 C590 1.368 . S
C596 C595 1.523 . S
C597 C581 1.429 . S
C597 C593 1.429 . S
C597 C598 1.523 . S
C598 C582 1.368 . S
C598 C594 1.368 . S
C598 C597 1.523 . S
H599 C574 0.950 . S
H600 C576 0.950 . S
H601 C577 0.949 . S
H602 C579 0.950 . S
H603 C581 0.950 . S
C604 C605 1.349 . S
C604 C606 1.327 . S
C604 H629 0.950 . S
C605 C604 1.349 . S
C605 C621 1.349 . S
C606 C604 1.327 . S
C606 C625 1.429 . S
C606 H630 0.950 . S
C607 C624 1.574 1_556 S
C607 C626 1.368 . S
C607 H631 0.949 . S
H608 C612 0.949 . S
C609 C610 1.349 . S
C609 C611 1.327 . S
C609 H632 0.950 . S
C610 C609 1.349 . S
C610 C622 1.349 . S
C611 C609 1.327 . S
C611 C627 1.429 . S
C611 H633 0.950 . S
C612 H608 0.949 . S
C612 C620 1.574 1_554 S
C612 C628 1.368 . S
H613 C621 0.950 . S
H614 C619 0.950 . S
H615 C620 0.949 . S
H616 C622 0.950 . S
H617 C623 0.950 . S
H618 C624 0.949 . S
C619 H614 0.950 . S
C619 C621 1.327 . S
C619 C625 1.429 . S
C620 C612 1.574 1_556 S
C620 H615 0.949 . S
C620 C626 1.368 . S
C621 C605 1.349 . S
C621 H613 0.950 . S
C621 C619 1.327 . S
C622 C610 1.349 . S
C622 H616 0.950 . S
C622 C623 1.327 . S
C623 H617 0.950 . S
C623 C622 1.327 . S
C623 C627 1.429 . S
C624 C607 1.574 1_554 S
C624 H618 0.949 . S
C624 C628 1.368 . S
C625 C606 1.429 . S
C625 C619 1.429 . S
C625 C626 1.523 . S
C626 C607 1.368 . S
C626 C620 1.368 . S
C626 C625 1.523 . S
C627 C611 1.429 . S
C627 C623 1.429 . S
C627 C628 1.523 . S
C628 C612 1.368 . S
C628 C624 1.368 . S
C628 C627 1.523 . S
H629 C604 0.950 . S
H630 C606 0.950 . S
H631 C607 0.949 . S
H632 C609 0.950 . S
H633 C611 0.950 . S
C634 C635 1.349 . S
C634 C636 1.327 . S
C634 H659 0.950 . S
C635 C634 1.349 . S
C635 C651 1.349 . S
C636 C634 1.327 . S
C636 C655 1.429 . S
C636 H660 0.950 . S
C637 C654 1.574 1_556 S
C637 C656 1.368 . S
C637 H661 0.949 . S
H638 C642 0.949 . S
C639 C640 1.349 . S
C639 C641 1.327 . S
C639 H662 0.950 . S
C640 C639 1.349 . S
C640 C652 1.349 . S
C641 C639 1.327 . S
C641 C657 1.429 . S
C641 H663 0.950 . S
C642 H638 0.949 . S
C642 C650 1.574 1_554 S
C642 C658 1.368 . S
H643 C651 0.950 . S
H644 C649 0.950 . S
H645 C650 0.949 . S
H646 C652 0.950 . S
H647 C653 0.950 . S
H648 C654 0.949 . S
C649 H644 0.950 . S
C649 C651 1.327 . S
C649 C655 1.429 . S
C650 C642 1.574 1_556 S
C650 H645 0.949 . S
C650 C656 1.368 . S
C651 C635 1.349 . S
C651 H643 0.950 . S
C651 C649 1.327 . S
C652 C640 1.349 . S
C652 H646 0.950 . S
C652 C653 1.327 . S
C653 H647 0.950 . S
C653 C652 1.327 . S
C653 C657 1.429 . S
C654 C637 1.574 1_554 S
C654 H648 0.949 . S
C654 C658 1.368 . S
C655 C636 1.429 . S
C655 C649 1.429 . S
C655 C656 1.523 . S
C656 C637 1.368 . S
C656 C650 1.368 . S
C656 C655 1.523 . S
C657 C641 1.429 . S
C657 C653 1.429 . S
C657 C658 1.523 . S
C658 C642 1.368 . S
C658 C654 1.368 . S
C658 C657 1.523 . S
H659 C634 0.950 . S
H660 C636 0.950 . S
H661 C637 0.949 . S
H662 C639 0.950 . S
H663 C641 0.950 . S
C664 C665 1.349 . S
C664 C666 1.327 . S
C664 H689 0.950 . S
C665 C664 1.349 . S
C665 C681 1.349 . S
C666 C664 1.327 . S
C666 C685 1.429 . S
C666 H690 0.950 . S
C667 C684 1.574 . S
C667 C686 1.368 . S
C667 H691 0.949 . S
H668 C672 0.949 . S
C669 C670 1.349 . S
C669 C671 1.327 . S
C669 H692 0.950 . S
C670 C669 1.349 . S
C670 C682 1.349 . S
C671 C669 1.327 . S
C671 C687 1.429 . S
C671 H693 0.950 . S
C672 H668 0.949 . S
C672 C680 1.574 . S
C672 C688 1.368 . S
H673 C681 0.950 . S
H674 C679 0.950 . S
H675 C680 0.949 . S
H676 C682 0.950 . S
H677 C683 0.950 . S
H678 C684 0.949 . S
C679 H674 0.950 . S
C679 C681 1.327 . S
C679 C685 1.429 . S
C680 C672 1.574 . S
C680 H675 0.949 . S
C680 C686 1.368 . S
C681 C665 1.349 . S
C681 H673 0.950 . S
C681 C679 1.327 . S
C682 C670 1.349 . S
C682 H676 0.950 . S
C682 C683 1.327 . S
C683 H677 0.950 . S
C683 C682 1.327 . S
C683 C687 1.429 . S
C684 C667 1.574 . S
C684 H678 0.949 . S
C684 C688 1.368 . S
C685 C666 1.429 . S
C685 C679 1.429 . S
C685 C686 1.523 . S
C686 C667 1.368 . S
C686 C680 1.368 . S
C686 C685 1.523 . S
C687 C671 1.429 . S
C687 C683 1.429 . S
C687 C688 1.523 . S
C688 C672 1.368 . S
C688 C684 1.368 . S
C688 C687 1.523 . S
H689 C664 0.950 . S
H690 C666 0.950 . S
H691 C667 0.949 . S
H692 C669 0.950 . S
H693 C671 0.950 . S
C694 C695 1.349 . S
C694 C696 1.327 . S
C694 H719 0.950 . S
C695 C694 1.349 . S
C695 C711 1.349 . S
C696 C694 1.327 . S
C696 C715 1.429 . S
C696 H720 0.950 . S
C697 C714 1.574 . S
C697 C716 1.368 . S
C697 H721 0.949 . S
H698 C702 0.949 . S
C699 C700 1.349 . S
C699 C701 1.327 . S
C699 H722 0.950 . S
C700 C699 1.349 . S
C700 C712 1.349 . S
C701 C699 1.327 . S
C701 C717 1.429 . S
C701 H723 0.950 . S
C702 H698 0.949 . S
C702 C710 1.574 . S
C702 C718 1.368 . S
H703 C711 0.950 . S
H704 C709 0.950 . S
H705 C710 0.949 . S
H706 C712 0.950 . S
H707 C713 0.950 . S
H708 C714 0.949 . S
C709 H704 0.950 . S
C709 C711 1.327 . S
C709 C715 1.429 . S
C710 C702 1.574 . S
C710 H705 0.949 . S
C710 C716 1.368 . S
C711 C695 1.349 . S
C711 H703 0.950 . S
C711 C709 1.327 . S
C712 C700 1.349 . S
C712 H706 0.950 . S
C712 C713 1.327 . S
C713 H707 0.950 . S
C713 C712 1.327 . S
C713 C717 1.429 . S
C714 C697 1.574 . S
C714 H708 0.949 . S
C714 C718 1.368 . S
C715 C696 1.429 . S
C715 C709 1.429 . S
C715 C716 1.523 . S
C716 C697 1.368 . S
C716 C710 1.368 . S
C716 C715 1.523 . S
C717 C701 1.429 . S
C717 C713 1.429 . S
C717 C718 1.523 . S
C718 C702 1.368 . S
C718 C714 1.368 . S
C718 C717 1.523 . S
H719 C694 0.950 . S
H720 C696 0.950 . S
H721 C697 0.949 . S
H722 C699 0.950 . S
H723 C701 0.950 . S
C724 C725 1.349 . S
C724 C726 1.327 . S
C724 H749 0.950 . S
C725 C724 1.349 . S
C725 C741 1.349 . S
C726 C724 1.327 . S
C726 C745 1.429 . S
C726 H750 0.950 . S
C727 C744 1.574 . S
C727 C746 1.368 . S
C727 H751 0.949 . S
H728 C732 0.949 . S
C729 C730 1.349 . S
C729 C731 1.327 . S
C729 H752 0.950 . S
C730 C729 1.349 . S
C730 C742 1.349 . S
C731 C729 1.327 . S
C731 C747 1.429 . S
C731 H753 0.950 . S
C732 H728 0.949 . S
C732 C740 1.574 . S
C732 C748 1.368 . S
H733 C741 0.950 . S
H734 C739 0.950 . S
H735 C740 0.949 . S
H736 C742 0.950 . S
H737 C743 0.950 . S
H738 C744 0.949 . S
C739 H734 0.950 . S
C739 C741 1.327 . S
C739 C745 1.429 . S
C740 C732 1.574 . S
C740 H735 0.949 . S
C740 C746 1.368 . S
C741 C725 1.349 . S
C741 H733 0.950 . S
C741 C739 1.327 . S
C742 C730 1.349 . S
C742 H736 0.950 . S
C742 C743 1.327 . S
C743 H737 0.950 . S
C743 C742 1.327 . S
C743 C747 1.429 . S
C744 C727 1.574 . S
C744 H738 0.949 . S
C744 C748 1.368 . S
C745 C726 1.429 . S
C745 C739 1.429 . S
C745 C746 1.523 . S
C746 C727 1.368 . S
C746 C740 1.368 . S
C746 C745 1.523 . S
C747 C731 1.429 . S
C747 C743 1.429 . S
C747 C748 1.523 . S
C748 C732 1.368 . S
C748 C744 1.368 . S
C748 C747 1.523 . S
H749 C724 0.950 . S
H750 C726 0.950 . S
H751 C727 0.949 . S
H752 C729 0.950 . S
H753 C731 0.950 . S
C754 C755 1.349 . S
C754 C756 1.327 . S
C754 H779 0.950 . S
C755 C754 1.349 . S
C755 C771 1.349 . S
C756 C754 1.327 . S
C756 C775 1.429 . S
C756 H780 0.950 . S
C757 C774 1.574 . S
C757 C776 1.368 . S
C757 H781 0.949 . S
H758 C762 0.949 . S
C759 C760 1.349 . S
C759 C761 1.327 . S
C759 H782 0.950 . S
C760 C759 1.349 . S
C760 C772 1.349 . S
C761 C759 1.327 . S
C761 C777 1.429 . S
C761 H783 0.950 . S
C762 H758 0.949 . S
C762 C770 1.574 . S
C762 C778 1.368 . S
H763 C771 0.950 . S
H764 C769 0.950 . S
H765 C770 0.949 . S
H766 C772 0.950 . S
H767 C773 0.950 . S
H768 C774 0.949 . S
C769 H764 0.950 . S
C769 C771 1.327 . S
C769 C775 1.429 . S
C770 C762 1.574 . S
C770 H765 0.949 . S
C770 C776 1.368 . S
C771 C755 1.349 . S
C771 H763 0.950 . S
C771 C769 1.327 . S
C772 C760 1.349 . S
C772 H766 0.950 . S
C772 C773 1.327 . S
C773 H767 0.950 . S
C773 C772 1.327 . S
C773 C777 1.429 . S
C774 C757 1.574 . S
C774 H768 0.949 . S
C774 C778 1.368 . S
C775 C756 1.429 . S
C775 C769 1.429 . S
C775 C776 1.523 . S
C776 C757 1.368 . S
C776 C770 1.368 . S
C776 C775 1.523 . S
C777 C761 1.429 . S
C777 C773 1.429 . S
C777 C778 1.523 . S
C778 C762 1.368 . S
C778 C774 1.368 . S
C778 C777 1.523 . S
H779 C754 0.950 . S
H780 C756 0.950 . S
H781 C757 0.949 . S
H782 C759 0.950 . S
H783 C761 0.950 . S
C784 C785 1.349 . S
C784 C786 1.327 . S
C784 H809 0.950 . S
C785 C784 1.349 . S
C785 C801 1.349 . S
C786 C784 1.327 . S
C786 C805 1.429 . S
C786 H810 0.950 . S
C787 C804 1.574 . S
C787 C806 1.368 . S
C787 H811 0.949 . S
H788 C792 0.949 . S
C789 C790 1.349 . S
C789 C791 1.327 . S
C789 H812 0.950 . S
C790 C789 1.349 . S
C790 C802 1.349 . S
C791 C789 1.327 . S
C791 C807 1.429 . S
C791 H813 0.950 . S
C792 H788 0.949 . S
C792 C800 1.574 . S
C792 C808 1.368 . S
H793 C801 0.950 . S
H794 C799 0.950 . S
H795 C800 0.939 1_565 S
H796 C802 0.950 . S
H797 C803 0.950 . S
H798 C804 0.949 . S
C799 H794 0.950 . S
C799 C801 1.327 . S
C799 C805 1.429 . S
C800 C792 1.574 . S
C800 H795 0.939 1_545 S
C800 C806 1.368 . S
C801 C785 1.349 . S
C801 H793 0.950 . S
C801 C799 1.327 . S
C802 C790 1.349 . S
C802 H796 0.950 . S
C802 C803 1.327 . S
C803 H797 0.950 . S
C803 C802 1.327 . S
C803 C807 1.429 . S
C804 C787 1.574 . S
C804 H798 0.949 . S
C804 C808 1.368 . S
C805 C786 1.429 . S
C805 C799 1.429 . S
C805 C806 1.523 1_565 S
C806 C787 1.368 . S
C806 C800 1.368 . S
C806 C805 1.523 1_545 S
C807 C791 1.429 . S
C807 C803 1.429 . S
C807 C808 1.523 . S
C808 C792 1.368 . S
C808 C804 1.368 . S
C808 C807 1.523 . S
H809 C784 0.950 . S
H810 C786 0.950 . S
H811 C787 0.949 . S
H812 C789 0.950 . S
H813 C791 0.950 . S
C814 C815 1.349 . S
C814 C816 1.327 . S
C814 H839 0.950 . S
C815 C814 1.349 . S
C815 C831 1.349 . S
C816 C814 1.327 . S
C816 C835 1.429 . S
C816 H840 0.950 . S
C817 C834 1.574 . S
C817 C836 1.368 . S
C817 H841 0.949 . S
H818 C822 0.949 . S
C819 C820 1.349 . S
C819 C821 1.327 . S
C819 H842 0.950 . S
C820 C819 1.349 . S
C820 C832 1.349 . S
C821 C819 1.327 . S
C821 C837 1.429 . S
C821 H843 0.950 . S
C822 H818 0.949 . S
C822 C830 1.574 . S
C822 C838 1.368 . S
H823 C831 0.950 . S
H824 C829 0.950 . S
H825 C830 0.949 . S
H826 C832 0.950 . S
H827 C833 0.950 . S
H828 C834 0.949 . S
C829 H824 0.950 . S
C829 C831 1.327 . S
C829 C835 1.429 . S
C830 C822 1.574 . S
C830 H825 0.949 . S
C830 C836 1.368 . S
C831 C815 1.349 . S
C831 H823 0.950 . S
C831 C829 1.327 . S
C832 C820 1.349 . S
C832 H826 0.950 . S
C832 C833 1.327 . S
C833 H827 0.950 . S
C833 C832 1.327 . S
C833 C837 1.429 . S
C834 C817 1.574 . S
C834 H828 0.949 . S
C834 C838 1.368 . S
C835 C816 1.429 . S
C835 C829 1.429 . S
C835 C836 1.523 1_455 S
C836 C817 1.368 . S
C836 C830 1.368 . S
C836 C835 1.523 1_655 S
C837 C821 1.429 . S
C837 C833 1.429 . S
C837 C838 1.523 . S
C838 C822 1.368 . S
C838 C834 1.368 . S
C838 C837 1.523 . S
H839 C814 0.950 . S
H840 C816 0.950 . S
H841 C817 0.949 . S
H842 C819 0.950 . S
H843 C821 0.950 . S
C844 C845 1.349 . S
C844 C846 1.327 . S
C844 H869 0.950 . S
C845 C844 1.349 . S
C845 C861 1.349 . S
C846 C844 1.327 . S
C846 C865 1.429 . S
C846 H870 0.950 . S
C847 C864 1.574 . S
C847 C866 1.368 . S
C847 H871 0.949 . S
H848 C852 0.949 . S
C849 C850 1.349 . S
C849 C851 1.327 . S
C849 H872 0.950 . S
C850 C849 1.349 . S
C850 C862 1.349 . S
C851 C849 1.327 . S
C851 C867 1.429 . S
C851 H873 0.950 . S
C852 H848 0.949 . S
C852 C860 1.574 . S
C852 C868 1.368 . S
H853 C861 0.950 . S
H854 C859 0.950 . S
H855 C860 0.949 . S
H856 C862 0.950 . S
H857 C863 0.950 . S
H858 C864 0.949 . S
C859 H854 0.950 . S
C859 C861 1.327 . S
C859 C865 1.429 . S
C860 C852 1.574 . S
C860 H855 0.949 . S
C860 C866 1.368 . S
C861 C845 1.349 . S
C861 H853 0.950 . S
C861 C859 1.327 . S
C862 C850 1.349 . S
C862 H856 0.950 . S
C862 C863 1.327 . S
C863 H857 0.950 . S
C863 C862 1.327 . S
C863 C867 1.429 . S
C864 C847 1.574 . S
C864 H858 0.949 . S
C864 C868 1.368 . S
C865 C846 1.429 . S
C865 C859 1.429 . S
C865 C866 1.523 . S
C866 C847 1.368 . S
C866 C860 1.368 . S
C866 C865 1.523 . S
C867 C851 1.429 . S
C867 C863 1.429 . S
C867 C868 1.523 1_545 S
C868 C852 1.368 . S
C868 C864 1.368 . S
C868 C867 1.523 1_565 S
H869 C844 0.950 . S
H870 C846 0.950 . S
H871 C847 0.949 . S
H872 C849 0.950 . S
H873 C851 0.950 . S
C874 C875 1.349 . S
C874 C876 1.327 . S
C874 H899 0.950 . S
C875 C874 1.349 . S
C875 C891 1.349 . S
C876 C874 1.327 . S
C876 C895 1.429 . S
C876 H900 0.950 . S
C877 C894 1.574 . S
C877 C896 1.368 . S
C877 H901 0.949 . S
H878 C882 0.949 . S
C879 C880 1.349 . S
C879 C881 1.327 . S
C879 H902 0.950 . S
C880 C879 1.349 . S
C880 C892 1.349 . S
C881 C879 1.327 . S
C881 C897 1.429 . S
C881 H903 0.950 . S
C882 H878 0.949 . S
C882 C890 1.574 . S
C882 C898 1.368 . S
H883 C891 0.950 . S
H884 C889 0.950 . S
H885 C890 0.949 . S
H886 C892 0.950 . S
H887 C893 0.950 . S
H888 C894 0.949 . S
C889 H884 0.950 . S
C889 C891 1.327 . S
C889 C895 1.429 . S
C890 C882 1.574 . S
C890 H885 0.949 . S
C890 C896 1.368 . S
C891 C875 1.349 . S
C891 H883 0.950 . S
C891 C889 1.327 . S
C892 C880 1.349 . S
C892 H886 0.950 . S
C892 C893 1.327 . S
C893 H887 0.950 . S
C893 C892 1.327 . S
C893 C897 1.429 . S
C894 C877 1.574 . S
C894 H888 0.949 . S
C894 C898 1.368 . S
C895 C876 1.429 . S
C895 C889 1.429 . S
C895 C896 1.523 . S
C896 C877 1.368 . S
C896 C890 1.368 . S
C896 C895 1.523 . S
C897 C881 1.429 . S
C897 C893 1.429 . S
C897 C898 1.523 1_655 S
C898 C882 1.368 . S
C898 C894 1.368 . S
C898 C897 1.523 1_455 S
H899 C874 0.950 . S
H900 C876 0.950 . S
H901 C877 0.949 . S
H902 C879 0.950 . S
H903 C881 0.950 . S
C904 C905 1.349 . S
C904 C906 1.327 . S
C904 H929 0.950 . S
C905 C904 1.349 . S
C905 C921 1.349 . S
C906 C904 1.327 . S
C906 C925 1.429 . S
C906 H930 0.950 . S
C907 C924 1.574 . S
C907 C926 1.368 . S
C907 H931 0.951 1_565 S
H908 C912 0.949 . S
C909 C910 1.349 . S
C909 C911 1.327 . S
C909 H932 0.950 . S
C910 C909 1.349 . S
C910 C922 1.349 . S
C911 C909 1.327 . S
C911 C927 1.429 . S
C911 H933 0.950 . S
C912 H908 0.949 . S
C912 C920 1.574 . S
C912 C928 1.368 . S
H913 C921 0.950 . S
H914 C919 0.950 . S
H915 C920 0.949 . S
H916 C922 0.950 . S
H917 C923 0.950 . S
H918 C924 0.949 . S
C919 H914 0.950 . S
C919 C921 1.327 . S
C919 C925 1.429 . S
C920 C912 1.574 . S
C920 H915 0.949 . S
C920 C926 1.368 . S
C921 C905 1.349 . S
C921 H913 0.950 . S
C921 C919 1.327 . S
C922 C910 1.349 . S
C922 H916 0.950 . S
C922 C923 1.327 . S
C923 H917 0.950 . S
C923 C922 1.327 . S
C923 C927 1.429 . S
C924 C907 1.574 . S
C924 H918 0.949 . S
C924 C928 1.368 . S
C925 C906 1.429 . S
C925 C919 1.429 . S
C925 C926 1.523 1_545 S
C926 C907 1.368 . S
C926 C920 1.368 . S
C926 C925 1.523 1_565 S
C927 C911 1.429 . S
C927 C923 1.429 . S
C927 C928 1.523 . S
C928 C912 1.368 . S
C928 C924 1.368 . S
C928 C927 1.523 . S
H929 C904 0.950 . S
H930 C906 0.950 . S
H931 C907 0.951 1_545 S
H932 C909 0.950 . S
H933 C911 0.950 . S
C934 C935 1.349 . S
C934 C936 1.327 . S
C934 H959 0.950 . S
C935 C934 1.349 . S
C935 C951 1.349 . S
C936 C934 1.327 . S
C936 C955 1.429 . S
C936 H960 0.950 . S
C937 C954 1.574 . S
C937 C956 1.368 . S
C937 H961 0.949 . S
H938 C942 0.949 . S
C939 C940 1.349 . S
C939 C941 1.327 . S
C939 H962 0.950 . S
C940 C939 1.349 . S
C940 C952 1.349 . S
C941 C939 1.327 . S
C941 C957 1.429 . S
C941 H963 0.950 . S
C942 H938 0.949 . S
C942 C950 1.574 . S
C942 C958 1.368 . S
H943 C951 0.950 . S
H944 C949 0.950 . S
H945 C950 0.949 . S
H946 C952 0.950 . S
H947 C953 0.950 . S
H948 C954 0.949 . S
C949 H944 0.950 . S
C949 C951 1.327 . S
C949 C955 1.429 . S
C950 C942 1.574 . S
C950 H945 0.949 . S
C950 C956 1.368 . S
C951 C935 1.349 . S
C951 H943 0.950 . S
C951 C949 1.327 . S
C952 C940 1.349 . S
C952 H946 0.950 . S
C952 C953 1.327 . S
C953 H947 0.950 . S
C953 C952 1.327 . S
C953 C957 1.429 . S
C954 C937 1.574 . S
C954 H948 0.949 . S
C954 C958 1.368 . S
C955 C936 1.429 . S
C955 C949 1.429 . S
C955 C956 1.523 . S
C956 C937 1.368 . S
C956 C950 1.368 . S
C956 C955 1.523 . S
C957 C941 1.429 . S
C957 C953 1.429 . S
C957 C958 1.523 1_655 S
C958 C942 1.368 . S
C958 C954 1.368 . S
C958 C957 1.523 1_455 S
H959 C934 0.950 . S
H960 C936 0.950 . S
H961 C937 0.949 . S
H962 C939 0.950 . S
H963 C941 0.950 . S
C964 C965 1.349 . S
C964 C966 1.327 . S
C964 H989 0.950 . S
C965 C964 1.349 . S
C965 C981 1.349 . S
C966 C964 1.327 . S
C966 C985 1.429 . S
C966 H990 0.950 . S
C967 C984 1.574 . S
C967 C986 1.368 . S
C967 H991 0.949 . S
H968 C972 0.949 . S
C969 C970 1.349 . S
C969 C971 1.327 . S
C969 H992 0.950 . S
C970 C969 1.349 . S
C970 C982 1.349 . S
C971 C969 1.327 . S
C971 C987 1.429 . S
C971 H993 0.950 . S
C972 H968 0.949 . S
C972 C980 1.574 . S
C972 C988 1.368 . S
H973 C981 0.950 . S
H974 C979 0.950 . S
H975 C980 0.949 1_565 S
H976 C982 0.950 . S
H977 C983 0.950 . S
H978 C984 0.949 . S
C979 H974 0.950 . S
C979 C981 1.327 . S
C979 C985 1.429 . S
C980 C972 1.574 . S
C980 H975 0.949 1_545 S
C980 C986 1.368 . S
C981 C965 1.349 . S
C981 H973 0.950 . S
C981 C979 1.327 . S
C982 C970 1.349 . S
C982 H976 0.950 . S
C982 C983 1.327 . S
C983 H977 0.950 . S
C983 C982 1.327 . S
C983 C987 1.429 . S
C984 C967 1.574 . S
C984 H978 0.949 . S
C984 C988 1.368 . S
C985 C966 1.429 . S
C985 C979 1.429 . S
C985 C986 1.523 1_565 S
C986 C967 1.368 . S
C986 C980 1.368 . S
C986 C985 1.523 1_545 S
C987 C971 1.429 . S
C987 C983 1.429 . S
C987 C988 1.523 . S
C988 C972 1.368 . S
C988 C984 1.368 . S
C988 C987 1.523 . S
H989 C964 0.950 . S
H990 C966 0.950 . S
H991 C967 0.949 . S
H992 C969 0.950 . S
H993 C971 0.950 . S
C994 C995 1.349 . S
C994 C996 1.327 . S
C994 H1019 0.950 . S
C995 C994 1.349 . S
C995 C1011 1.349 . S
C996 C994 1.327 . S
C996 C1015 1.429 . S
C996 H1020 0.950 . S
C997 C1014 1.574 . S
C997 C1016 1.368 . S
C997 H1021 0.949 1_655 S
H998 C1002 0.949 . S
C999 C1000 1.349 . S
C999 C1001 1.327 . S
C999 H1022 0.950 . S
C1000 C999 1.349 . S
C1000 C1012 1.349 . S
C1001 C999 1.327 . S
C1001 C1017 1.429 . S
C1001 H1023 0.950 . S
C1002 H998 0.949 . S
C1002 C1010 1.574 . S
C1002 C1018 1.368 . S
H1003 C1011 0.950 . S
H1004 C1009 0.950 . S
H1005 C1010 0.949 . S
H1006 C1012 0.950 . S
H1007 C1013 0.950 . S
H1008 C1014 0.949 . S
C1009 H1004 0.950 . S
C1009 C1011 1.327 . S
C1009 C1015 1.429 . S
C1010 C1002 1.574 . S
C1010 H1005 0.949 . S
C1010 C1016 1.368 . S
C1011 C995 1.349 . S
C1011 H1003 0.950 . S
C1011 C1009 1.327 . S
C1012 C1000 1.349 . S
C1012 H1006 0.950 . S
C1012 C1013 1.327 . S
C1013 H1007 0.950 . S
C1013 C1012 1.327 . S
C1013 C1017 1.429 . S
C1014 C997 1.574 . S
C1014 H1008 0.949 . S
C1014 C1018 1.368 . S
C1015 C996 1.429 . S
C1015 C1009 1.429 . S
C1015 C1016 1.523 1_455 S
C1016 C997 1.368 . S
C1016 C1010 1.368 . S
C1016 C1015 1.523 1_655 S
C1017 C1001 1.429 . S
C1017 C1013 1.429 . S
C1017 C1018 1.523 . S
C1018 C1002 1.368 . S
C1018 C1014 1.368 . S
C1018 C1017 1.523 . S
H1019 C994 0.950 . S
H1020 C996 0.950 . S
H1021 C997 0.949 1_455 S
H1022 C999 0.950 . S
H1023 C1001 0.950 . S
C1024 C1025 1.349 . S
C1024 C1026 1.327 . S
C1024 H1049 0.950 . S
C1025 C1024 1.349 . S
C1025 C1041 1.349 . S
C1026 C1024 1.327 . S
C1026 C1045 1.429 . S
C1026 H1050 0.950 . S
C1027 C1044 1.574 . S
C1027 C1046 1.368 . S
C1027 H1051 0.949 . S
H1028 C1032 0.949 . S
C1029 C1030 1.349 . S
C1029 C1031 1.338 . S
C1029 H1052 0.950 . S
C1030 C1029 1.349 . S
C1030 C1042 1.349 . S
C1031 C1029 1.338 . S
C1031 C1047 1.421 1_545 S
C1031 H1053 0.946 1_545 S
C1032 H1028 0.949 . S
C1032 C1040 1.574 . S
C1032 C1048 1.368 . S
H1033 C1041 0.950 . S
H1034 C1039 0.950 . S
H1035 C1040 0.949 . S
H1036 C1042 0.950 . S
H1037 C1043 0.950 . S
H1038 C1044 0.949 . S
C1039 H1034 0.950 . S
C1039 C1041 1.327 . S
C1039 C1045 1.429 . S
C1040 C1032 1.574 . S
C1040 H1035 0.949 . S
C1040 C1046 1.368 . S
C1041 C1025 1.349 . S
C1041 H1033 0.950 . S
C1041 C1039 1.327 . S
C1042 C1030 1.349 . S
C1042 H1036 0.950 . S
C1042 C1043 1.327 1_545 S
C1043 H1037 0.950 . S
C1043 C1042 1.327 1_565 S
C1043 C1047 1.429 . S
C1044 C1027 1.574 . S
C1044 H1038 0.949 . S
C1044 C1048 1.368 . S
C1045 C1026 1.429 . S
C1045 C1039 1.429 . S
C1045 C1046 1.523 . S
C1046 C1027 1.368 . S
C1046 C1040 1.368 . S
C1046 C1045 1.523 . S
C1047 C1031 1.421 1_565 S
C1047 C1043 1.429 . S
C1047 C1048 1.523 . S
C1048 C1032 1.368 . S
C1048 C1044 1.368 . S
C1048 C1047 1.523 . S
H1049 C1024 0.950 . S
H1050 C1026 0.950 . S
H1051 C1027 0.949 . S
H1052 C1029 0.950 . S
H1053 C1031 0.946 1_565 S
C1054 C1055 1.349 . S
C1054 C1056 1.327 1_655 S
C1054 H1079 0.950 . S
C1055 C1054 1.349 . S
C1055 C1071 1.349 . S
C1056 C1054 1.327 1_455 S
C1056 C1075 1.429 . S
C1056 H1080 0.950 . S
C1057 C1074 1.574 . S
C1057 C1076 1.368 . S
C1057 H1081 0.949 . S
H1058 C1062 0.949 . S
C1059 C1060 1.349 . S
C1059 C1061 1.327 . S
C1059 H1082 0.950 . S
C1060 C1059 1.349 . S
C1060 C1072 1.349 . S
C1061 C1059 1.327 . S
C1061 C1077 1.429 . S
C1061 H1083 0.950 . S
C1062 H1058 0.949 . S
C1062 C1070 1.574 . S
C1062 C1078 1.368 . S
H1063 C1071 0.950 . S
H1064 C1069 0.950 1_455 S
H1065 C1070 0.949 . S
H1066 C1072 0.950 . S
H1067 C1073 0.950 . S
H1068 C1074 0.949 . S
C1069 H1064 0.950 1_655 S
C1069 C1071 1.327 . S
C1069 C1075 1.429 1_655 S
C1070 C1062 1.574 . S
C1070 H1065 0.949 . S
C1070 C1076 1.368 . S
C1071 C1055 1.349 . S
C1071 H1063 0.950 . S
C1071 C1069 1.327 . S
C1072 C1060 1.349 . S
C1072 H1066 0.950 . S
C1072 C1073 1.327 . S
C1073 H1067 0.950 . S
C1073 C1072 1.327 . S
C1073 C1077 1.429 . S
C1074 C1057 1.574 . S
C1074 H1068 0.949 . S
C1074 C1078 1.368 . S
C1075 C1056 1.429 . S
C1075 C1069 1.429 1_455 S
C1075 C1076 1.523 . S
C1076 C1057 1.368 . S
C1076 C1070 1.368 . S
C1076 C1075 1.523 . S
C1077 C1061 1.429 . S
C1077 C1073 1.429 . S
C1077 C1078 1.523 . S
C1078 C1062 1.368 . S
C1078 C1074 1.368 . S
C1078 C1077 1.523 . S
H1079 C1054 0.950 . S
H1080 C1056 0.950 . S
H1081 C1057 0.949 . S
H1082 C1059 0.950 . S
H1083 C1061 0.950 . S
C1084 C1085 1.349 . S
C1084 C1086 1.327 . S
C1084 H1109 0.950 . S
C1085 C1084 1.349 . S
C1085 C1101 1.349 . S
C1086 C1084 1.327 . S
C1086 C1105 1.429 . S
C1086 H1110 0.950 . S
C1087 C1104 1.574 . S
C1087 C1106 1.368 . S
C1087 H1111 0.949 . S
H1088 C1092 0.949 . S
C1089 C1090 1.349 . S
C1089 C1091 1.342 . S
C1089 H1112 0.950 . S
C1090 C1089 1.349 . S
C1090 C1102 1.349 . S
C1091 C1089 1.342 . S
C1091 C1107 1.419 1_565 S
C1091 H1113 0.945 1_565 S
C1092 H1088 0.949 . S
C1092 C1100 1.574 . S
C1092 C1108 1.368 . S
H1093 C1101 0.950 . S
H1094 C1099 0.950 . S
H1095 C1100 0.949 . S
H1096 C1102 0.950 . S
H1097 C1103 0.950 . S
H1098 C1104 0.949 . S
C1099 H1094 0.950 . S
C1099 C1101 1.327 . S
C1099 C1105 1.429 . S
C1100 C1092 1.574 . S
C1100 H1095 0.949 . S
C1100 C1106 1.368 . S
C1101 C1085 1.349 . S
C1101 H1093 0.950 . S
C1101 C1099 1.327 . S
C1102 C1090 1.349 . S
C1102 H1096 0.950 . S
C1102 C1103 1.327 1_565 S
C1103 H1097 0.950 . S
C1103 C1102 1.327 1_545 S
C1103 C1107 1.429 . S
C1104 C1087 1.574 . S
C1104 H1098 0.949 . S
C1104 C1108 1.368 . S
C1105 C1086 1.429 . S
C1105 C1099 1.429 . S
C1105 C1106 1.523 . S
C1106 C1087 1.368 . S
C1106 C1100 1.368 . S
C1106 C1105 1.523 . S
C1107 C1091 1.419 1_545 S
C1107 C1103 1.429 . S
C1107 C1108 1.523 . S
C1108 C1092 1.368 . S
C1108 C1104 1.368 . S
C1108 C1107 1.523 . S
H1109 C1084 0.950 . S
H1110 C1086 0.950 . S
H1111 C1087 0.949 . S
H1112 C1089 0.950 . S
H1113 C1091 0.945 1_545 S
C1114 C1115 1.349 . S
C1114 C1116 1.327 . S
C1114 H1139 0.950 . S
C1115 C1114 1.349 . S
C1115 C1131 1.349 . S
C1116 C1114 1.327 . S
C1116 C1135 1.429 1_455 S
C1116 H1140 0.950 1_455 S
C1117 C1134 1.574 . S
C1117 C1136 1.368 . S
C1117 H1141 0.949 . S
H1118 C1122 0.949 . S
C1119 C1120 1.349 . S
C1119 C1121 1.327 . S
C1119 H1142 0.950 . S
C1120 C1119 1.349 . S
C1120 C1132 1.349 . S
C1121 C1119 1.327 . S
C1121 C1137 1.429 . S
C1121 H1143 0.950 . S
C1122 H1118 0.949 . S
C1122 C1130 1.574 . S
C1122 C1138 1.368 . S
H1123 C1131 0.950 . S
H1124 C1129 0.950 . S
H1125 C1130 0.949 . S
H1126 C1132 0.950 . S
H1127 C1133 0.950 . S
H1128 C1134 0.949 . S
C1129 H1124 0.950 . S
C1129 C1131 1.327 1_655 S
C1129 C1135 1.429 . S
C1130 C1122 1.574 . S
C1130 H1125 0.949 . S
C1130 C1136 1.368 . S
C1131 C1115 1.349 . S
C1131 H1123 0.950 . S
C1131 C1129 1.327 1_455 S
C1132 C1120 1.349 . S
C1132 H1126 0.950 . S
C1132 C1133 1.327 . S
C1133 H1127 0.950 . S
C1133 C1132 1.327 . S
C1133 C1137 1.429 . S
C1134 C1117 1.574 . S
C1134 H1128 0.949 . S
C1134 C1138 1.368 . S
C1135 C1116 1.429 1_655 S
C1135 C1129 1.429 . S
C1135 C1136 1.523 . S
C1136 C1117 1.368 . S
C1136 C1130 1.368 . S
C1136 C1135 1.523 . S
C1137 C1121 1.429 . S
C1137 C1133 1.429 . S
C1137 C1138 1.523 . S
C1138 C1122 1.368 . S
C1138 C1134 1.368 . S
C1138 C1137 1.523 . S
H1139 C1114 0.950 . S
H1140 C1116 0.950 1_655 S
H1141 C1117 0.949 . S
H1142 C1119 0.950 . S
H1143 C1121 0.950 . S
C1144 C1145 1.349 . S
C1144 C1146 1.327 . S
C1144 H1169 0.950 . S
C1145 C1144 1.349 . S
C1145 C1161 1.349 . S
C1146 C1144 1.327 . S
C1146 C1165 1.429 . S
C1146 H1170 0.950 . S
C1147 C1164 1.574 . S
C1147 C1166 1.368 . S
C1147 H1171 0.949 . S
H1148 C1152 0.949 . S
C1149 C1150 1.349 . S
C1149 C1151 1.327 1_565 S
C1149 H1172 0.950 . S
C1150 C1149 1.349 . S
C1150 C1162 1.349 . S
C1151 C1149 1.327 1_545 S
C1151 C1167 1.429 . S
C1151 H1173 0.950 . S
C1152 H1148 0.949 . S
C1152 C1160 1.574 . S
C1152 C1168 1.368 . S
H1153 C1161 0.950 . S
H1154 C1159 0.950 . S
H1155 C1160 0.949 . S
H1156 C1162 0.950 . S
H1157 C1163 0.950 1_545 S
H1158 C1164 0.949 . S
C1159 H1154 0.950 . S
C1159 C1161 1.327 . S
C1159 C1165 1.429 . S
C1160 C1152 1.574 . S
C1160 H1155 0.949 . S
C1160 C1166 1.368 . S
C1161 C1145 1.349 . S
C1161 H1153 0.950 . S
C1161 C1159 1.327 . S
C1162 C1150 1.349 . S
C1162 H1156 0.950 . S
C1162 C1163 1.327 . S
C1163 H1157 0.950 1_565 S
C1163 C1162 1.327 . S
C1163 C1167 1.429 1_565 S
C1164 C1147 1.574 . S
C1164 H1158 0.949 . S
C1164 C1168 1.368 . S
C1165 C1146 1.429 . S
C1165 C1159 1.429 . S
C1165 C1166 1.523 . S
C1166 C1147 1.368 . S
C1166 C1160 1.368 . S
C1166 C1165 1.523 . S
C1167 C1151 1.429 . S
C1167 C1163 1.429 1_545 S
C1167 C1168 1.523 . S
C1168 C1152 1.368 . S
C1168 C1164 1.368 . S
C1168 C1167 1.523 . S
H1169 C1144 0.950 . S
H1170 C1146 0.950 . S
H1171 C1147 0.949 . S
H1172 C1149 0.950 . S
H1173 C1151 0.950 . S
C1174 C1175 1.349 . S
C1174 C1176 1.327 . S
C1174 H1199 0.950 . S
C1175 C1174 1.349 . S
C1175 C1191 1.349 . S
C1176 C1174 1.327 . S
C1176 C1195 1.429 1_455 S
C1176 H1200 0.950 1_455 S
C1177 C1194 1.574 . S
C1177 C1196 1.368 . S
C1177 H1201 0.949 . S
H1178 C1182 0.949 . S
C1179 C1180 1.349 . S
C1179 C1181 1.327 . S
C1179 H1202 0.950 . S
C1180 C1179 1.349 . S
C1180 C1192 1.349 . S
C1181 C1179 1.327 . S
C1181 C1197 1.429 . S
C1181 H1203 0.950 . S
C1182 H1178 0.949 . S
C1182 C1190 1.574 . S
C1182 C1198 1.368 . S
H1183 C1191 0.950 . S
H1184 C1189 0.950 . S
H1185 C1190 0.949 . S
H1186 C1192 0.950 . S
H1187 C1193 0.950 . S
H1188 C1194 0.949 . S
C1189 H1184 0.950 . S
C1189 C1191 1.327 1_655 S
C1189 C1195 1.429 . S
C1190 C1182 1.574 . S
C1190 H1185 0.949 . S
C1190 C1196 1.368 . S
C1191 C1175 1.349 . S
C1191 H1183 0.950 . S
C1191 C1189 1.327 1_455 S
C1192 C1180 1.349 . S
C1192 H1186 0.950 . S
C1192 C1193 1.327 . S
C1193 H1187 0.950 . S
C1193 C1192 1.327 . S
C1193 C1197 1.429 . S
C1194 C1177 1.574 . S
C1194 H1188 0.949 . S
C1194 C1198 1.368 . S
C1195 C1176 1.429 1_655 S
C1195 C1189 1.429 . S
C1195 C1196 1.523 . S
C1196 C1177 1.368 . S
C1196 C1190 1.368 . S
C1196 C1195 1.523 . S
C1197 C1181 1.429 . S
C1197 C1193 1.429 . S
C1197 C1198 1.523 . S
C1198 C1182 1.368 . S
C1198 C1194 1.368 . S
C1198 C1197 1.523 . S
H1199 C1174 0.950 . S
H1200 C1176 0.950 1_655 S
H1201 C1177 0.949 . S
H1202 C1179 0.950 . S
H1203 C1181 0.950 . S
C1204 C1205 1.349 . S
C1204 C1206 1.327 . S
C1204 H1229 0.950 . S
C1205 C1204 1.349 . S
C1205 C1221 1.349 . S
C1206 C1204 1.327 . S
C1206 C1225 1.429 1_545 S
C1206 H1230 0.950 1_545 S
C1207 C1224 1.574 . S
C1207 C1226 1.368 . S
C1207 H1231 0.949 . S
H1208 C1212 0.949 . S
C1209 C1210 1.349 . S
C1209 C1211 1.327 . S
C1209 H1232 0.950 . S
C1210 C1209 1.349 . S
C1210 C1222 1.349 . S
C1211 C1209 1.327 . S
C1211 C1227 1.429 . S
C1211 H1233 0.950 . S
C1212 H1208 0.949 . S
C1212 C1220 1.574 . S
C1212 C1228 1.368 . S
H1213 C1221 0.950 . S
H1214 C1219 0.950 . S
H1215 C1220 0.949 . S
H1216 C1222 0.950 . S
H1217 C1223 0.950 . S
H1218 C1224 0.949 . S
C1219 H1214 0.950 . S
C1219 C1221 1.327 1_565 S
C1219 C1225 1.429 . S
C1220 C1212 1.574 . S
C1220 H1215 0.949 . S
C1220 C1226 1.368 . S
C1221 C1205 1.349 . S
C1221 H1213 0.950 . S
C1221 C1219 1.327 1_545 S
C1222 C1210 1.349 . S
C1222 H1216 0.950 . S
C1222 C1223 1.327 . S
C1223 H1217 0.950 . S
C1223 C1222 1.327 . S
C1223 C1227 1.429 . S
C1224 C1207 1.574 . S
C1224 H1218 0.949 . S
C1224 C1228 1.368 . S
C1225 C1206 1.429 1_565 S
C1225 C1219 1.429 . S
C1225 C1226 1.523 . S
C1226 C1207 1.368 . S
C1226 C1220 1.368 . S
C1226 C1225 1.523 . S
C1227 C1211 1.429 . S
C1227 C1223 1.429 . S
C1227 C1228 1.523 . S
C1228 C1212 1.368 . S
C1228 C1224 1.368 . S
C1228 C1227 1.523 . S
H1229 C1204 0.950 . S
H1230 C1206 0.950 1_565 S
H1231 C1207 0.949 . S
H1232 C1209 0.950 . S
H1233 C1211 0.950 . S
C1234 C1235 1.349 . S
C1234 C1236 1.327 . S
C1234 H1259 0.950 . S
C1235 C1234 1.349 . S
C1235 C1251 1.349 . S
C1236 C1234 1.327 . S
C1236 C1255 1.429 1_655 S
C1236 H1260 0.950 1_655 S
C1237 C1254 1.574 . S
C1237 C1256 1.368 . S
C1237 H1261 0.949 . S
H1238 C1242 0.949 . S
C1239 C1240 1.349 . S
C1239 C1241 1.327 . S
C1239 H1262 0.950 . S
C1240 C1239 1.349 . S
C1240 C1252 1.349 . S
C1241 C1239 1.327 . S
C1241 C1257 1.429 . S
C1241 H1263 0.950 . S
C1242 H1238 0.949 . S
C1242 C1250 1.574 . S
C1242 C1258 1.368 . S
H1243 C1251 0.950 . S
H1244 C1249 0.950 . S
H1245 C1250 0.949 . S
H1246 C1252 0.950 . S
H1247 C1253 0.950 . S
H1248 C1254 0.949 . S
C1249 H1244 0.950 . S
C1249 C1251 1.327 1_455 S
C1249 C1255 1.429 . S
C1250 C1242 1.574 . S
C1250 H1245 0.949 . S
C1250 C1256 1.368 . S
C1251 C1235 1.349 . S
C1251 H1243 0.950 . S
C1251 C1249 1.327 1_655 S
C1252 C1240 1.349 . S
C1252 H1246 0.950 . S
C1252 C1253 1.327 . S
C1253 H1247 0.950 . S
C1253 C1252 1.327 . S
C1253 C1257 1.429 . S
C1254 C1237 1.574 . S
C1254 H1248 0.949 . S
C1254 C1258 1.368 . S
C1255 C1236 1.429 1_455 S
C1255 C1249 1.429 . S
C1255 C1256 1.523 . S
C1256 C1237 1.368 . S
C1256 C1250 1.368 . S
C1256 C1255 1.523 . S
C1257 C1241 1.429 . S
C1257 C1253 1.429 . S
C1257 C1258 1.523 . S
C1258 C1242 1.368 . S
C1258 C1254 1.368 . S
C1258 C1257 1.523 . S
H1259 C1234 0.950 . S
H1260 C1236 0.950 1_455 S
H1261 C1237 0.949 . S
H1262 C1239 0.950 . S
H1263 C1241 0.950 . S
C1264 C1265 1.349 . S
C1264 C1266 1.327 . S
C1264 H1289 0.950 . S
C1265 C1264 1.349 . S
C1265 C1281 1.349 . S
C1266 C1264 1.327 . S
C1266 C1285 1.429 . S
C1266 H1290 0.950 . S
C1267 C1284 1.574 . S
C1267 C1286 1.368 . S
C1267 H1291 0.949 . S
H1268 C1272 0.949 . S
C1269 C1270 1.349 . S
C1269 C1271 1.327 . S
C1269 H1292 0.950 . S
C1270 C1269 1.349 . S
C1270 C1282 1.349 . S
C1271 C1269 1.327 . S
C1271 C1287 1.429 . S
C1271 H1293 0.950 . S
C1272 H1268 0.949 . S
C1272 C1280 1.574 . S
C1272 C1288 1.368 . S
H1273 C1281 0.950 . S
H1274 C1279 0.950 . S
H1275 C1280 0.949 . S
H1276 C1282 0.950 . S
H1277 C1283 0.950 . S
H1278 C1284 0.949 . S
C1279 H1274 0.950 . S
C1279 C1281 1.327 . S
C1279 C1285 1.429 . S
C1280 C1272 1.574 . S
C1280 H1275 0.949 . S
C1280 C1286 1.368 . S
C1281 C1265 1.349 . S
C1281 H1273 0.950 . S
C1281 C1279 1.327 . S
C1282 C1270 1.349 . S
C1282 H1276 0.950 . S
C1282 C1283 1.327 . S
C1283 H1277 0.950 . S
C1283 C1282 1.327 . S
C1283 C1287 1.429 . S
C1284 C1267 1.574 . S
C1284 H1278 0.949 . S
C1284 C1288 1.368 . S
C1285 C1266 1.429 . S
C1285 C1279 1.429 . S
C1285 C1286 1.523 . S
C1286 C1267 1.368 . S
C1286 C1280 1.368 . S
C1286 C1285 1.523 . S
C1287 C1271 1.429 . S
C1287 C1283 1.429 . S
C1287 C1288 1.523 . S
C1288 C1272 1.368 . S
C1288 C1284 1.368 . S
C1288 C1287 1.523 . S
H1289 C1264 0.950 . S
H1290 C1266 0.950 . S
H1291 C1267 0.949 . S
H1292 C1269 0.950 . S
H1293 C1271 0.950 . S
C1294 C1295 1.349 . S
C1294 C1296 1.327 . S
C1294 H1319 0.950 . S
C1295 C1294 1.349 . S
C1295 C1311 1.349 . S
C1296 C1294 1.327 . S
C1296 C1315 1.429 . S
C1296 H1320 0.950 . S
C1297 C1314 1.574 . S
C1297 C1316 1.368 . S
C1297 H1321 0.949 . S
H1298 C1302 0.949 . S
C1299 C1300 1.349 . S
C1299 C1301 1.327 . S
C1299 H1322 0.950 . S
C1300 C1299 1.349 . S
C1300 C1312 1.349 . S
C1301 C1299 1.327 . S
C1301 C1317 1.429 . S
C1301 H1323 0.950 . S
C1302 H1298 0.949 . S
C1302 C1310 1.574 . S
C1302 C1318 1.368 . S
H1303 C1311 0.950 . S
H1304 C1309 0.950 . S
H1305 C1310 0.949 . S
H1306 C1312 0.950 . S
H1307 C1313 0.950 . S
H1308 C1314 0.949 . S
C1309 H1304 0.950 . S
C1309 C1311 1.327 . S
C1309 C1315 1.429 . S
C1310 C1302 1.574 . S
C1310 H1305 0.949 . S
C1310 C1316 1.368 . S
C1311 C1295 1.349 . S
C1311 H1303 0.950 . S
C1311 C1309 1.327 . S
C1312 C1300 1.349 . S
C1312 H1306 0.950 . S
C1312 C1313 1.327 . S
C1313 H1307 0.950 . S
C1313 C1312 1.327 . S
C1313 C1317 1.429 . S
C1314 C1297 1.574 . S
C1314 H1308 0.949 . S
C1314 C1318 1.368 . S
C1315 C1296 1.429 . S
C1315 C1309 1.429 . S
C1315 C1316 1.523 . S
C1316 C1297 1.368 . S
C1316 C1310 1.368 . S
C1316 C1315 1.523 . S
C1317 C1301 1.429 . S
C1317 C1313 1.429 . S
C1317 C1318 1.523 . S
C1318 C1302 1.368 . S
C1318 C1314 1.368 . S
C1318 C1317 1.523 . S
H1319 C1294 0.950 . S
H1320 C1296 0.950 . S
H1321 C1297 0.949 . S
H1322 C1299 0.950 . S
H1323 C1301 0.950 . S
C1324 C1325 1.349 . S
C1324 C1326 1.327 . S
C1324 H1349 0.950 . S
C1325 C1324 1.349 . S
C1325 C1341 1.349 . S
C1326 C1324 1.327 . S
C1326 C1345 1.429 . S
C1326 H1350 0.950 . S
C1327 C1344 1.574 . S
C1327 C1346 1.368 . S
C1327 H1351 0.949 . S
H1328 C1332 0.949 . S
C1329 C1330 1.349 . S
C1329 C1331 1.327 . S
C1329 H1352 0.950 . S
C1330 C1329 1.349 . S
C1330 C1342 1.349 . S
C1331 C1329 1.327 . S
C1331 C1347 1.429 . S
C1331 H1353 0.950 . S
C1332 H1328 0.949 . S
C1332 C1340 1.574 . S
C1332 C1348 1.368 . S
H1333 C1341 0.950 . S
H1334 C1339 0.950 . S
H1335 C1340 0.949 . S
H1336 C1342 0.950 . S
H1337 C1343 0.950 . S
H1338 C1344 0.949 . S
C1339 H1334 0.950 . S
C1339 C1341 1.327 . S
C1339 C1345 1.429 . S
C1340 C1332 1.574 . S
C1340 H1335 0.949 . S
C1340 C1346 1.368 . S
C1341 C1325 1.349 . S
C1341 H1333 0.950 . S
C1341 C1339 1.327 . S
C1342 C1330 1.349 . S
C1342 H1336 0.950 . S
C1342 C1343 1.327 . S
C1343 H1337 0.950 . S
C1343 C1342 1.327 . S
C1343 C1347 1.429 . S
C1344 C1327 1.574 . S
C1344 H1338 0.949 . S
C1344 C1348 1.368 . S
C1345 C1326 1.429 . S
C1345 C1339 1.429 . S
C1345 C1346 1.523 . S
C1346 C1327 1.368 . S
C1346 C1340 1.368 . S
C1346 C1345 1.523 . S
C1347 C1331 1.429 . S
C1347 C1343 1.429 . S
C1347 C1348 1.523 . S
C1348 C1332 1.368 . S
C1348 C1344 1.368 . S
C1348 C1347 1.523 . S
H1349 C1324 0.950 . S
H1350 C1326 0.950 . S
H1351 C1327 0.949 . S
H1352 C1329 0.950 . S
H1353 C1331 0.950 . S
C1354 C1355 1.349 . S
C1354 C1356 1.327 . S
C1354 H1379 0.950 . S
C1355 C1354 1.349 . S
C1355 C1371 1.349 . S
C1356 C1354 1.327 . S
C1356 C1375 1.429 . S
C1356 H1380 0.950 . S
C1357 C1374 1.574 . S
C1357 C1376 1.368 . S
C1357 H1381 0.949 . S
H1358 C1362 0.949 . S
C1359 C1360 1.349 . S
C1359 C1361 1.327 . S
C1359 H1382 0.950 . S
C1360 C1359 1.349 . S
C1360 C1372 1.349 . S
C1361 C1359 1.327 . S
C1361 C1377 1.429 . S
C1361 H1383 0.950 . S
C1362 H1358 0.949 . S
C1362 C1370 1.574 . S
C1362 C1378 1.368 . S
H1363 C1371 0.950 . S
H1364 C1369 0.950 . S
H1365 C1370 0.949 . S
H1366 C1372 0.950 . S
H1367 C1373 0.950 . S
H1368 C1374 0.949 . S
C1369 H1364 0.950 . S
C1369 C1371 1.327 . S
C1369 C1375 1.429 . S
C1370 C1362 1.574 . S
C1370 H1365 0.949 . S
C1370 C1376 1.368 . S
C1371 C1355 1.349 . S
C1371 H1363 0.950 . S
C1371 C1369 1.327 . S
C1372 C1360 1.349 . S
C1372 H1366 0.950 . S
C1372 C1373 1.327 . S
C1373 H1367 0.950 . S
C1373 C1372 1.327 . S
C1373 C1377 1.429 . S
C1374 C1357 1.574 . S
C1374 H1368 0.949 . S
C1374 C1378 1.368 . S
C1375 C1356 1.429 . S
C1375 C1369 1.429 . S
C1375 C1376 1.523 . S
C1376 C1357 1.368 . S
C1376 C1370 1.368 . S
C1376 C1375 1.523 . S
C1377 C1361 1.429 . S
C1377 C1373 1.429 . S
C1377 C1378 1.523 . S
C1378 C1362 1.368 . S
C1378 C1374 1.368 . S
C1378 C1377 1.523 . S
H1379 C1354 0.950 . S
H1380 C1356 0.950 . S
H1381 C1357 0.949 . S
H1382 C1359 0.950 . S
H1383 C1361 0.950 . S
C1384 C1385 1.349 . S
C1384 C1386 1.327 . S
C1384 H1409 0.950 . S
C1385 C1384 1.349 . S
C1385 C1401 1.349 . S
C1386 C1384 1.327 . S
C1386 C1405 1.429 . S
C1386 H1410 0.950 . S
C1387 C1404 1.574 . S
C1387 C1406 1.368 . S
C1387 H1411 0.949 . S
H1388 C1392 0.949 . S
C1389 C1390 1.349 . S
C1389 C1391 1.327 . S
C1389 H1412 0.950 . S
C1390 C1389 1.349 . S
C1390 C1402 1.349 . S
C1391 C1389 1.327 . S
C1391 C1407 1.429 . S
C1391 H1413 0.950 . S
C1392 H1388 0.949 . S
C1392 C1400 1.574 . S
C1392 C1408 1.368 . S
H1393 C1401 0.950 . S
H1394 C1399 0.950 . S
H1395 C1400 0.949 . S
H1396 C1402 0.950 . S
H1397 C1403 0.950 . S
H1398 C1404 0.949 . S
C1399 H1394 0.950 . S
C1399 C1401 1.327 . S
C1399 C1405 1.429 . S
C1400 C1392 1.574 . S
C1400 H1395 0.949 . S
C1400 C1406 1.368 . S
C1401 C1385 1.349 . S
C1401 H1393 0.950 . S
C1401 C1399 1.327 . S
C1402 C1390 1.349 . S
C1402 H1396 0.950 . S
C1402 C1403 1.327 . S
C1403 H1397 0.950 . S
C1403 C1402 1.327 . S
C1403 C1407 1.429 . S
C1404 C1387 1.574 . S
C1404 H1398 0.949 . S
C1404 C1408 1.368 . S
C1405 C1386 1.429 . S
C1405 C1399 1.429 . S
C1405 C1406 1.523 . S
C1406 C1387 1.368 . S
C1406 C1400 1.368 . S
C1406 C1405 1.523 . S
C1407 C1391 1.429 . S
C1407 C1403 1.429 . S
C1407 C1408 1.523 . S
C1408 C1392 1.368 . S
C1408 C1404 1.368 . S
C1408 C1407 1.523 . S
H1409 C1384 0.950 . S
H1410 C1386 0.950 . S
H1411 C1387 0.949 . S
H1412 C1389 0.950 . S
H1413 C1391 0.950 . S
C1414 C1415 1.349 . S
C1414 C1416 1.327 . S
C1414 H1439 0.950 . S
C1415 C1414 1.349 . S
C1415 C1431 1.349 . S
C1416 C1414 1.327 . S
C1416 C1435 1.429 . S
C1416 H1440 0.950 . S
C1417 C1434 1.574 . S
C1417 C1436 1.368 . S
C1417 H1441 0.949 . S
H1418 C1422 0.949 . S
C1419 C1420 1.349 . S
C1419 C1421 1.327 . S
C1419 H1442 0.950 . S
C1420 C1419 1.349 . S
C1420 C1432 1.349 . S
C1421 C1419 1.327 . S
C1421 C1437 1.429 . S
C1421 H1443 0.950 . S
C1422 H1418 0.949 . S
C1422 C1430 1.574 . S
C1422 C1438 1.368 . S
H1423 C1431 0.950 . S
H1424 C1429 0.950 . S
H1425 C1430 0.949 . S
H1426 C1432 0.950 . S
H1427 C1433 0.950 . S
H1428 C1434 0.949 . S
C1429 H1424 0.950 . S
C1429 C1431 1.327 . S
C1429 C1435 1.429 . S
C1430 C1422 1.574 . S
C1430 H1425 0.949 . S
C1430 C1436 1.368 . S
C1431 C1415 1.349 . S
C1431 H1423 0.950 . S
C1431 C1429 1.327 . S
C1432 C1420 1.349 . S
C1432 H1426 0.950 . S
C1432 C1433 1.327 . S
C1433 H1427 0.950 . S
C1433 C1432 1.327 . S
C1433 C1437 1.429 . S
C1434 C1417 1.574 . S
C1434 H1428 0.949 . S
C1434 C1438 1.368 . S
C1435 C1416 1.429 . S
C1435 C1429 1.429 . S
C1435 C1436 1.523 . S
C1436 C1417 1.368 . S
C1436 C1430 1.368 . S
C1436 C1435 1.523 . S
C1437 C1421 1.429 . S
C1437 C1433 1.429 . S
C1437 C1438 1.523 . S
C1438 C1422 1.368 . S
C1438 C1434 1.368 . S
C1438 C1437 1.523 . S
H1439 C1414 0.950 . S
H1440 C1416 0.950 . S
H1441 C1417 0.949 . S
H1442 C1419 0.950 . S
H1443 C1421 0.950 . S
C1444 C1445 1.349 . S
C1444 C1446 1.327 . S
C1444 H1469 0.950 . S
C1445 C1444 1.349 . S
C1445 C1461 1.349 . S
C1446 C1444 1.327 . S
C1446 C1465 1.429 . S
C1446 H1470 0.950 . S
C1447 C1464 1.574 . S
C1447 C1466 1.368 . S
C1447 H1471 0.949 . S
H1448 C1452 0.949 . S
C1449 C1450 1.349 . S
C1449 C1451 1.327 . S
C1449 H1472 0.950 . S
C1450 C1449 1.349 . S
C1450 C1462 1.349 . S
C1451 C1449 1.327 . S
C1451 C1467 1.429 . S
C1451 H1473 0.950 . S
C1452 H1448 0.949 . S
C1452 C1460 1.574 . S
C1452 C1468 1.368 . S
H1453 C1461 0.950 . S
H1454 C1459 0.950 . S
H1455 C1460 0.949 . S
H1456 C1462 0.950 . S
H1457 C1463 0.950 . S
H1458 C1464 0.949 . S
C1459 H1454 0.950 . S
C1459 C1461 1.327 . S
C1459 C1465 1.429 . S
C1460 C1452 1.574 . S
C1460 H1455 0.949 . S
C1460 C1466 1.368 . S
C1461 C1445 1.349 . S
C1461 H1453 0.950 . S
C1461 C1459 1.327 . S
C1462 C1450 1.349 . S
C1462 H1456 0.950 . S
C1462 C1463 1.327 . S
C1463 H1457 0.950 . S
C1463 C1462 1.327 . S
C1463 C1467 1.429 . S
C1464 C1447 1.574 . S
C1464 H1458 0.949 . S
C1464 C1468 1.368 . S
C1465 C1446 1.429 . S
C1465 C1459 1.429 . S
C1465 C1466 1.523 . S
C1466 C1447 1.368 . S
C1466 C1460 1.368 . S
C1466 C1465 1.523 . S
C1467 C1451 1.429 . S
C1467 C1463 1.429 . S
C1467 C1468 1.523 . S
C1468 C1452 1.368 . S
C1468 C1464 1.368 . S
C1468 C1467 1.523 . S
H1469 C1444 0.950 . S
H1470 C1446 0.950 . S
H1471 C1447 0.949 . S
H1472 C1449 0.950 . S
H1473 C1451 0.950 . S
C1474 C1475 1.349 . S
C1474 C1476 1.327 . S
C1474 H1499 0.950 . S
C1475 C1474 1.349 . S
C1475 C1491 1.349 . S
C1476 C1474 1.327 . S
C1476 C1495 1.429 . S
C1476 H1500 0.950 . S
C1477 C1494 1.574 . S
C1477 C1496 1.368 . S
C1477 H1501 0.949 . S
H1478 C1482 0.949 . S
C1479 C1480 1.349 . S
C1479 C1481 1.327 . S
C1479 H1502 0.950 . S
C1480 C1479 1.349 . S
C1480 C1492 1.349 . S
C1481 C1479 1.327 . S
C1481 C1497 1.429 . S
C1481 H1503 0.950 . S
C1482 H1478 0.949 . S
C1482 C1490 1.574 . S
C1482 C1498 1.368 . S
H1483 C1491 0.950 . S
H1484 C1489 0.950 . S
H1485 C1490 0.949 . S
H1486 C1492 0.950 . S
H1487 C1493 0.950 . S
H1488 C1494 0.949 . S
C1489 H1484 0.950 . S
C1489 C1491 1.327 . S
C1489 C1495 1.429 . S
C1490 C1482 1.574 . S
C1490 H1485 0.949 . S
C1490 C1496 1.368 . S
C1491 C1475 1.349 . S
C1491 H1483 0.950 . S
C1491 C1489 1.327 . S
C1492 C1480 1.349 . S
C1492 H1486 0.950 . S
C1492 C1493 1.327 . S
C1493 H1487 0.950 . S
C1493 C1492 1.327 . S
C1493 C1497 1.429 . S
C1494 C1477 1.574 . S
C1494 H1488 0.949 . S
C1494 C1498 1.368 . S
C1495 C1476 1.429 . S
C1495 C1489 1.429 . S
C1495 C1496 1.523 . S
C1496 C1477 1.368 . S
C1496 C1490 1.368 . S
C1496 C1495 1.523 . S
C1497 C1481 1.429 . S
C1497 C1493 1.429 . S
C1497 C1498 1.523 . S
C1498 C1482 1.368 . S
C1498 C1494 1.368 . S
C1498 C1497 1.523 . S
H1499 C1474 0.950 . S
H1500 C1476 0.950 . S
H1501 C1477 0.949 . S
H1502 C1479 0.950 . S
H1503 C1481 0.950 . S
C1504 C1505 1.349 . S
C1504 C1506 1.327 . S
C1504 H1529 0.950 . S
C1505 C1504 1.349 . S
C1505 C1521 1.349 . S
C1506 C1504 1.327 . S
C1506 C1525 1.429 . S
C1506 H1530 0.950 . S
C1507 C1524 1.574 . S
C1507 C1526 1.368 . S
C1507 H1531 0.949 . S
H1508 C1512 0.949 . S
C1509 C1510 1.349 . S
C1509 C1511 1.327 . S
C1509 H1532 0.950 . S
C1510 C1509 1.349 . S
C1510 C1522 1.349 . S
C1511 C1509 1.327 . S
C1511 C1527 1.429 . S
C1511 H1533 0.950 . S
C1512 H1508 0.949 . S
C1512 C1520 1.574 . S
C1512 C1528 1.368 . S
H1513 C1521 0.950 . S
H1514 C1519 0.950 . S
H1515 C1520 0.949 . S
H1516 C1522 0.950 . S
H1517 C1523 0.950 . S
H1518 C1524 0.949 . S
C1519 H1514 0.950 . S
C1519 C1521 1.327 . S
C1519 C1525 1.429 . S
C1520 C1512 1.574 . S
C1520 H1515 0.949 . S
C1520 C1526 1.368 . S
C1521 C1505 1.349 . S
C1521 H1513 0.950 . S
C1521 C1519 1.327 . S
C1522 C1510 1.349 . S
C1522 H1516 0.950 . S
C1522 C1523 1.327 . S
C1523 H1517 0.950 . S
C1523 C1522 1.327 . S
C1523 C1527 1.429 . S
C1524 C1507 1.574 . S
C1524 H1518 0.949 . S
C1524 C1528 1.368 . S
C1525 C1506 1.429 . S
C1525 C1519 1.429 . S
C1525 C1526 1.523 . S
C1526 C1507 1.368 . S
C1526 C1520 1.368 . S
C1526 C1525 1.523 . S
C1527 C1511 1.429 . S
C1527 C1523 1.429 . S
C1527 C1528 1.523 . S
C1528 C1512 1.368 . S
C1528 C1524 1.368 . S
C1528 C1527 1.523 . S
H1529 C1504 0.950 . S
H1530 C1506 0.950 . S
H1531 C1507 0.949 . S
H1532 C1509 0.950 . S
H1533 C1511 0.950 . S
C1534 C1535 1.349 . S
C1534 C1536 1.327 . S
C1534 H1559 0.950 . S
C1535 C1534 1.349 . S
C1535 C1551 1.349 . S
C1536 C1534 1.327 . S
C1536 C1555 1.429 . S
C1536 H1560 0.950 . S
C1537 C1554 1.574 . S
C1537 C1556 1.368 . S
C1537 H1561 0.949 . S
H1538 C1542 0.949 . S
C1539 C1540 1.349 . S
C1539 C1541 1.327 . S
C1539 H1562 0.950 . S
C1540 C1539 1.349 . S
C1540 C1552 1.349 . S
C1541 C1539 1.327 . S
C1541 C1557 1.429 . S
C1541 H1563 0.950 . S
C1542 H1538 0.949 . S
C1542 C1550 1.574 . S
C1542 C1558 1.368 . S
H1543 C1551 0.950 . S
H1544 C1549 0.950 . S
H1545 C1550 0.949 . S
H1546 C1552 0.950 . S
H1547 C1553 0.950 . S
H1548 C1554 0.949 . S
C1549 H1544 0.950 . S
C1549 C1551 1.327 . S
C1549 C1555 1.429 . S
C1550 C1542 1.574 . S
C1550 H1545 0.949 . S
C1550 C1556 1.368 . S
C1551 C1535 1.349 . S
C1551 H1543 0.950 . S
C1551 C1549 1.327 . S
C1552 C1540 1.349 . S
C1552 H1546 0.950 . S
C1552 C1553 1.327 . S
C1553 H1547 0.950 . S
C1553 C1552 1.327 . S
C1553 C1557 1.429 . S
C1554 C1537 1.574 . S
C1554 H1548 0.949 . S
C1554 C1558 1.368 . S
C1555 C1536 1.429 . S
C1555 C1549 1.429 . S
C1555 C1556 1.523 . S
C1556 C1537 1.368 . S
C1556 C1550 1.368 . S
C1556 C1555 1.523 . S
C1557 C1541 1.429 . S
C1557 C1553 1.429 . S
C1557 C1558 1.523 . S
C1558 C1542 1.368 . S
C1558 C1554 1.368 . S
C1558 C1557 1.523 . S
H1559 C1534 0.950 . S
H1560 C1536 0.950 . S
H1561 C1537 0.949 . S
H1562 C1539 0.950 . S
H1563 C1541 0.950 . S
C1564 C1565 1.349 . S
C1564 C1566 1.327 . S
C1564 H1589 0.950 . S
C1565 C1564 1.349 . S
C1565 C1581 1.349 . S
C1566 C1564 1.327 . S
C1566 C1585 1.429 . S
C1566 H1590 0.950 . S
C1567 C1584 1.574 . S
C1567 C1586 1.368 . S
C1567 H1591 0.949 . S
H1568 C1572 0.949 . S
C1569 C1570 1.349 . S
C1569 C1571 1.327 . S
C1569 H1592 0.950 . S
C1570 C1569 1.349 . S
C1570 C1582 1.349 . S
C1571 C1569 1.327 . S
C1571 C1587 1.429 . S
C1571 H1593 0.950 . S
C1572 H1568 0.949 . S
C1572 C1580 1.574 . S
C1572 C1588 1.368 . S
H1573 C1581 0.950 . S
H1574 C1579 0.950 . S
H1575 C1580 0.949 . S
H1576 C1582 0.950 . S
H1577 C1583 0.950 . S
H1578 C1584 0.949 . S
C1579 H1574 0.950 . S
C1579 C1581 1.327 . S
C1579 C1585 1.429 . S
C1580 C1572 1.574 . S
C1580 H1575 0.949 . S
C1580 C1586 1.368 . S
C1581 C1565 1.349 . S
C1581 H1573 0.950 . S
C1581 C1579 1.327 . S
C1582 C1570 1.349 . S
C1582 H1576 0.950 . S
C1582 C1583 1.327 . S
C1583 H1577 0.950 . S
C1583 C1582 1.327 . S
C1583 C1587 1.429 . S
C1584 C1567 1.574 . S
C1584 H1578 0.949 . S
C1584 C1588 1.368 . S
C1585 C1566 1.429 . S
C1585 C1579 1.429 . S
C1585 C1586 1.523 . S
C1586 C1567 1.368 . S
C1586 C1580 1.368 . S
C1586 C1585 1.523 . S
C1587 C1571 1.429 . S
C1587 C1583 1.429 . S
C1587 C1588 1.523 . S
C1588 C1572 1.368 . S
C1588 C1584 1.368 . S
C1588 C1587 1.523 . S
H1589 C1564 0.950 . S
H1590 C1566 0.950 . S
H1591 C1567 0.949 . S
H1592 C1569 0.950 . S
H1593 C1571 0.950 . S
C1594 C1595 1.349 . S
C1594 C1596 1.327 . S
C1594 H1619 0.950 . S
C1595 C1594 1.349 . S
C1595 C1611 1.349 . S
C1596 C1594 1.327 . S
C1596 C1615 1.429 . S
C1596 H1620 0.950 . S
C1597 C1614 1.574 . S
C1597 C1616 1.368 . S
C1597 H1621 0.949 . S
H1598 C1602 0.949 . S
C1599 C1600 1.349 . S
C1599 C1601 1.327 . S
C1599 H1622 0.950 . S
C1600 C1599 1.349 . S
C1600 C1612 1.349 . S
C1601 C1599 1.327 . S
C1601 C1617 1.429 . S
C1601 H1623 0.950 . S
C1602 H1598 0.949 . S
C1602 C1610 1.574 . S
C1602 C1618 1.368 . S
H1603 C1611 0.950 . S
H1604 C1609 0.950 . S
H1605 C1610 0.949 . S
H1606 C1612 0.950 . S
H1607 C1613 0.950 . S
H1608 C1614 0.949 . S
C1609 H1604 0.950 . S
C1609 C1611 1.327 . S
C1609 C1615 1.429 . S
C1610 C1602 1.574 . S
C1610 H1605 0.949 . S
C1610 C1616 1.368 . S
C1611 C1595 1.349 . S
C1611 H1603 0.950 . S
C1611 C1609 1.327 . S
C1612 C1600 1.349 . S
C1612 H1606 0.950 . S
C1612 C1613 1.327 . S
C1613 H1607 0.950 . S
C1613 C1612 1.327 . S
C1613 C1617 1.429 . S
C1614 C1597 1.574 . S
C1614 H1608 0.949 . S
C1614 C1618 1.368 . S
C1615 C1596 1.429 . S
C1615 C1609 1.429 . S
C1615 C1616 1.523 . S
C1616 C1597 1.368 . S
C1616 C1610 1.368 . S
C1616 C1615 1.523 . S
C1617 C1601 1.429 . S
C1617 C1613 1.429 . S
C1617 C1618 1.523 . S
C1618 C1602 1.368 . S
C1618 C1614 1.368 . S
C1618 C1617 1.523 . S
H1619 C1594 0.950 . S
H1620 C1596 0.950 . S
H1621 C1597 0.949 . S
H1622 C1599 0.950 . S
H1623 C1601 0.950 . S
C1624 C1625 1.349 . S
C1624 C1626 1.327 . S
C1624 H1649 0.950 . S
C1625 C1624 1.349 . S
C1625 C1641 1.349 . S
C1626 C1624 1.327 . S
C1626 C1645 1.429 . S
C1626 H1650 0.950 . S
C1627 C1644 1.574 . S
C1627 C1646 1.368 . S
C1627 H1651 0.949 . S
H1628 C1632 0.949 . S
C1629 C1630 1.349 . S
C1629 C1631 1.327 . S
C1629 H1652 0.950 . S
C1630 C1629 1.349 . S
C1630 C1642 1.349 . S
C1631 C1629 1.327 . S
C1631 C1647 1.429 . S
C1631 H1653 0.950 . S
C1632 H1628 0.949 . S
C1632 C1640 1.574 . S
C1632 C1648 1.368 . S
H1633 C1641 0.950 . S
H1634 C1639 0.950 . S
H1635 C1640 0.949 . S
H1636 C1642 0.950 . S
H1637 C1643 0.950 . S
H1638 C1644 0.949 . S
C1639 H1634 0.950 . S
C1639 C1641 1.327 . S
C1639 C1645 1.429 . S
C1640 C1632 1.574 . S
C1640 H1635 0.949 . S
C1640 C1646 1.368 . S
C1641 C1625 1.349 . S
C1641 H1633 0.950 . S
C1641 C1639 1.327 . S
C1642 C1630 1.349 . S
C1642 H1636 0.950 . S
C1642 C1643 1.327 . S
C1643 H1637 0.950 . S
C1643 C1642 1.327 . S
C1643 C1647 1.429 . S
C1644 C1627 1.574 . S
C1644 H1638 0.949 . S
C1644 C1648 1.368 . S
C1645 C1626 1.429 . S
C1645 C1639 1.429 . S
C1645 C1646 1.523 . S
C1646 C1627 1.368 . S
C1646 C1640 1.368 . S
C1646 C1645 1.523 . S
C1647 C1631 1.429 . S
C1647 C1643 1.429 . S
C1647 C1648 1.523 . S
C1648 C1632 1.368 . S
C1648 C1644 1.368 . S
C1648 C1647 1.523 . S
H1649 C1624 0.950 . S
H1650 C1626 0.950 . S
H1651 C1627 0.949 . S
H1652 C1629 0.950 . S
H1653 C1631 0.950 . S
C1654 C1655 1.349 . S
C1654 C1656 1.327 . S
C1654 H1679 0.950 . S
C1655 C1654 1.349 . S
C1655 C1671 1.349 . S
C1656 C1654 1.327 . S
C1656 C1675 1.429 . S
C1656 H1680 0.950 . S
C1657 C1674 1.574 . S
C1657 C1676 1.368 . S
C1657 H1681 0.949 . S
H1658 C1662 0.949 . S
C1659 C1660 1.349 . S
C1659 C1661 1.327 . S
C1659 H1682 0.950 . S
C1660 C1659 1.349 . S
C1660 C1672 1.349 . S
C1661 C1659 1.327 . S
C1661 C1677 1.429 . S
C1661 H1683 0.950 . S
C1662 H1658 0.949 . S
C1662 C1670 1.574 . S
C1662 C1678 1.368 . S
H1663 C1671 0.950 . S
H1664 C1669 0.950 . S
H1665 C1670 0.949 . S
H1666 C1672 0.950 . S
H1667 C1673 0.950 . S
H1668 C1674 0.949 . S
C1669 H1664 0.950 . S
C1669 C1671 1.327 . S
C1669 C1675 1.429 . S
C1670 C1662 1.574 . S
C1670 H1665 0.949 . S
C1670 C1676 1.368 . S
C1671 C1655 1.349 . S
C1671 H1663 0.950 . S
C1671 C1669 1.327 . S
C1672 C1660 1.349 . S
C1672 H1666 0.950 . S
C1672 C1673 1.327 . S
C1673 H1667 0.950 . S
C1673 C1672 1.327 . S
C1673 C1677 1.429 . S
C1674 C1657 1.574 . S
C1674 H1668 0.949 . S
C1674 C1678 1.368 . S
C1675 C1656 1.429 . S
C1675 C1669 1.429 . S
C1675 C1676 1.523 . S
C1676 C1657 1.368 . S
C1676 C1670 1.368 . S
C1676 C1675 1.523 . S
C1677 C1661 1.429 . S
C1677 C1673 1.429 . S
C1677 C1678 1.523 . S
C1678 C1662 1.368 . S
C1678 C1674 1.368 . S
C1678 C1677 1.523 . S
H1679 C1654 0.950 . S
H1680 C1656 0.950 . S
H1681 C1657 0.949 . S
H1682 C1659 0.950 . S
H1683 C1661 0.950 . S
C1684 C1685 1.349 . S
C1684 C1686 1.327 . S
C1684 H1709 0.950 . S
C1685 C1684 1.349 . S
C1685 C1701 1.349 . S
C1686 C1684 1.327 . S
C1686 C1705 1.429 . S
C1686 H1710 0.950 . S
C1687 C1704 1.574 . S
C1687 C1706 1.368 . S
C1687 H1711 0.949 . S
H1688 C1692 0.949 . S
C1689 C1690 1.349 . S
C1689 C1691 1.327 . S
C1689 H1712 0.950 . S
C1690 C1689 1.349 . S
C1690 C1702 1.349 . S
C1691 C1689 1.327 . S
C1691 C1707 1.429 . S
C1691 H1713 0.950 . S
C1692 H1688 0.949 . S
C1692 C1700 1.574 . S
C1692 C1708 1.368 . S
H1693 C1701 0.950 . S
H1694 C1699 0.950 . S
H1695 C1700 0.949 . S
H1696 C1702 0.950 . S
H1697 C1703 0.950 . S
H1698 C1704 0.949 . S
C1699 H1694 0.950 . S
C1699 C1701 1.327 . S
C1699 C1705 1.429 . S
C1700 C1692 1.574 . S
C1700 H1695 0.949 . S
C1700 C1706 1.368 . S
C1701 C1685 1.349 . S
C1701 H1693 0.950 . S
C1701 C1699 1.327 . S
C1702 C1690 1.349 . S
C1702 H1696 0.950 . S
C1702 C1703 1.327 . S
C1703 H1697 0.950 . S
C1703 C1702 1.327 . S
C1703 C1707 1.429 . S
C1704 C1687 1.574 . S
C1704 H1698 0.949 . S
C1704 C1708 1.368 . S
C1705 C1686 1.429 . S
C1705 C1699 1.429 . S
C1705 C1706 1.523 . S
C1706 C1687 1.368 . S
C1706 C1700 1.368 . S
C1706 C1705 1.523 . S
C1707 C1691 1.429 . S
C1707 C1703 1.429 . S
C1707 C1708 1.523 . S
C1708 C1692 1.368 . S
C1708 C1704 1.368 . S
C1708 C1707 1.523 . S
H1709 C1684 0.950 . S
H1710 C1686 0.950 . S
H1711 C1687 0.949 . S
H1712 C1689 0.950 . S
H1713 C1691 0.950 . S
C1714 C1715 1.349 . S
C1714 C1716 1.327 . S
C1714 H1739 0.950 . S
C1715 C1714 1.349 . S
C1715 C1731 1.349 . S
C1716 C1714 1.327 . S
C1716 C1735 1.429 . S
C1716 H1740 0.950 . S
C1717 C1734 1.574 . S
C1717 C1736 1.368 . S
C1717 H1741 0.949 . S
H1718 C1722 0.949 . S
C1719 C1720 1.349 . S
C1719 C1721 1.327 . S
C1719 H1742 0.950 . S
C1720 C1719 1.349 . S
C1720 C1732 1.349 . S
C1721 C1719 1.327 . S
C1721 C1737 1.429 . S
C1721 H1743 0.950 . S
C1722 H1718 0.949 . S
C1722 C1730 1.574 . S
C1722 C1738 1.368 . S
H1723 C1731 0.950 . S
H1724 C1729 0.950 . S
H1725 C1730 0.949 . S
H1726 C1732 0.950 . S
H1727 C1733 0.950 . S
H1728 C1734 0.949 . S
C1729 H1724 0.950 . S
C1729 C1731 1.327 . S
C1729 C1735 1.429 . S
C1730 C1722 1.574 . S
C1730 H1725 0.949 . S
C1730 C1736 1.368 . S
C1731 C1715 1.349 . S
C1731 H1723 0.950 . S
C1731 C1729 1.327 . S
C1732 C1720 1.349 . S
C1732 H1726 0.950 . S
C1732 C1733 1.327 . S
C1733 H1727 0.950 . S
C1733 C1732 1.327 . S
C1733 C1737 1.429 . S
C1734 C1717 1.574 . S
C1734 H1728 0.949 . S
C1734 C1738 1.368 . S
C1735 C1716 1.429 . S
C1735 C1729 1.429 . S
C1735 C1736 1.523 . S
C1736 C1717 1.368 . S
C1736 C1730 1.368 . S
C1736 C1735 1.523 . S
C1737 C1721 1.429 . S
C1737 C1733 1.429 . S
C1737 C1738 1.523 . S
C1738 C1722 1.368 . S
C1738 C1734 1.368 . S
C1738 C1737 1.523 . S
H1739 C1714 0.950 . S
H1740 C1716 0.950 . S
H1741 C1717 0.949 . S
H1742 C1719 0.950 . S
H1743 C1721 0.950 . S
C1744 C1745 1.349 . S
C1744 C1746 1.327 . S
C1744 H1769 0.950 . S
C1745 C1744 1.349 . S
C1745 C1761 1.349 . S
C1746 C1744 1.327 . S
C1746 C1765 1.429 . S
C1746 H1770 0.950 . S
C1747 C1764 1.574 . S
C1747 C1766 1.368 . S
C1747 H1771 0.949 . S
H1748 C1752 0.949 . S
C1749 C1750 1.349 . S
C1749 C1751 1.327 . S
C1749 H1772 0.950 . S
C1750 C1749 1.349 . S
C1750 C1762 1.349 . S
C1751 C1749 1.327 . S
C1751 C1767 1.429 . S
C1751 H1773 0.950 . S
C1752 H1748 0.949 . S
C1752 C1760 1.574 . S
C1752 C1768 1.368 . S
H1753 C1761 0.950 . S
H1754 C1759 0.950 . S
H1755 C1760 0.949 . S
H1756 C1762 0.950 . S
H1757 C1763 0.950 . S
H1758 C1764 0.949 . S
C1759 H1754 0.950 . S
C1759 C1761 1.327 . S
C1759 C1765 1.429 . S
C1760 C1752 1.574 . S
C1760 H1755 0.949 . S
C1760 C1766 1.368 . S
C1761 C1745 1.349 . S
C1761 H1753 0.950 . S
C1761 C1759 1.327 . S
C1762 C1750 1.349 . S
C1762 H1756 0.950 . S
C1762 C1763 1.327 . S
C1763 H1757 0.950 . S
C1763 C1762 1.327 . S
C1763 C1767 1.429 . S
C1764 C1747 1.574 . S
C1764 H1758 0.949 . S
C1764 C1768 1.368 . S
C1765 C1746 1.429 . S
C1765 C1759 1.429 . S
C1765 C1766 1.523 . S
C1766 C1747 1.368 . S
C1766 C1760 1.368 . S
C1766 C1765 1.523 . S
C1767 C1751 1.429 . S
C1767 C1763 1.429 . S
C1767 C1768 1.523 . S
C1768 C1752 1.368 . S
C1768 C1764 1.368 . S
C1768 C1767 1.523 . S
H1769 C1744 0.950 . S
H1770 C1746 0.950 . S
H1771 C1747 0.949 . S
H1772 C1749 0.950 . S
H1773 C1751 0.950 . S
C1774 C1775 1.349 . S
C1774 C1776 1.327 . S
C1774 H1799 0.950 . S
C1775 C1774 1.349 . S
C1775 C1791 1.349 . S
C1776 C1774 1.327 . S
C1776 C1795 1.429 . S
C1776 H1800 0.950 . S
C1777 C1794 1.574 . S
C1777 C1796 1.368 . S
C1777 H1801 0.949 . S
H1778 C1782 0.949 . S
C1779 C1780 1.349 . S
C1779 C1781 1.327 . S
C1779 H1802 0.950 . S
C1780 C1779 1.349 . S
C1780 C1792 1.349 . S
C1781 C1779 1.327 . S
C1781 C1797 1.429 . S
C1781 H1803 0.950 . S
C1782 H1778 0.949 . S
C1782 C1790 1.574 . S
C1782 C1798 1.368 . S
H1783 C1791 0.950 . S
H1784 C1789 0.950 . S
H1785 C1790 0.949 . S
H1786 C1792 0.950 . S
H1787 C1793 0.950 . S
H1788 C1794 0.949 . S
C1789 H1784 0.950 . S
C1789 C1791 1.327 . S
C1789 C1795 1.429 . S
C1790 C1782 1.574 . S
C1790 H1785 0.949 . S
C1790 C1796 1.368 . S
C1791 C1775 1.349 . S
C1791 H1783 0.950 . S
C1791 C1789 1.327 . S
C1792 C1780 1.349 . S
C1792 H1786 0.950 . S
C1792 C1793 1.327 . S
C1793 H1787 0.950 . S
C1793 C1792 1.327 . S
C1793 C1797 1.429 . S
C1794 C1777 1.574 . S
C1794 H1788 0.949 . S
C1794 C1798 1.368 . S
C1795 C1776 1.429 . S
C1795 C1789 1.429 . S
C1795 C1796 1.523 . S
C1796 C1777 1.368 . S
C1796 C1790 1.368 . S
C1796 C1795 1.523 . S
C1797 C1781 1.429 . S
C1797 C1793 1.429 . S
C1797 C1798 1.523 . S
C1798 C1782 1.368 . S
C1798 C1794 1.368 . S
C1798 C1797 1.523 . S
H1799 C1774 0.950 . S
H1800 C1776 0.950 . S
H1801 C1777 0.949 . S
H1802 C1779 0.950 . S
H1803 C1781 0.950 . S
C1804 C1805 1.349 . S
C1804 C1806 1.327 . S
C1804 H1829 0.950 . S
C1805 C1804 1.349 . S
C1805 C1821 1.349 . S
C1806 C1804 1.327 . S
C1806 C1825 1.429 . S
C1806 H1830 0.950 . S
C1807 C1824 1.574 . S
C1807 C1826 1.368 . S
C1807 H1831 0.949 . S
H1808 C1812 0.949 . S
C1809 C1810 1.349 . S
C1809 C1811 1.327 . S
C1809 H1832 0.950 . S
C1810 C1809 1.349 . S
C1810 C1822 1.349 . S
C1811 C1809 1.327 . S
C1811 C1827 1.429 . S
C1811 H1833 0.950 . S
C1812 H1808 0.949 . S
C1812 C1820 1.574 . S
C1812 C1828 1.368 . S
H1813 C1821 0.950 . S
H1814 C1819 0.950 . S
H1815 C1820 0.949 . S
H1816 C1822 0.950 . S
H1817 C1823 0.950 . S
H1818 C1824 0.949 . S
C1819 H1814 0.950 . S
C1819 C1821 1.327 . S
C1819 C1825 1.429 . S
C1820 C1812 1.574 . S
C1820 H1815 0.949 . S
C1820 C1826 1.368 . S
C1821 C1805 1.349 . S
C1821 H1813 0.950 . S
C1821 C1819 1.327 . S
C1822 C1810 1.349 . S
C1822 H1816 0.950 . S
C1822 C1823 1.327 . S
C1823 H1817 0.950 . S
C1823 C1822 1.327 . S
C1823 C1827 1.429 . S
C1824 C1807 1.574 . S
C1824 H1818 0.949 . S
C1824 C1828 1.368 . S
C1825 C1806 1.429 . S
C1825 C1819 1.429 . S
C1825 C1826 1.523 . S
C1826 C1807 1.368 . S
C1826 C1820 1.368 . S
C1826 C1825 1.523 . S
C1827 C1811 1.429 . S
C1827 C1823 1.429 . S
C1827 C1828 1.523 . S
C1828 C1812 1.368 . S
C1828 C1824 1.368 . S
C1828 C1827 1.523 . S
H1829 C1804 0.950 . S
H1830 C1806 0.950 . S
H1831 C1807 0.949 . S
H1832 C1809 0.950 . S
H1833 C1811 0.950 . S
C1834 C1835 1.349 . S
C1834 C1836 1.327 . S
C1834 H1859 0.950 . S
C1835 C1834 1.349 . S
C1835 C1851 1.349 . S
C1836 C1834 1.327 . S
C1836 C1855 1.429 . S
C1836 H1860 0.950 . S
C1837 C1854 1.574 . S
C1837 C1856 1.368 . S
C1837 H1861 0.949 . S
H1838 C1842 0.949 . S
C1839 C1840 1.349 . S
C1839 C1841 1.327 . S
C1839 H1862 0.950 . S
C1840 C1839 1.349 . S
C1840 C1852 1.349 . S
C1841 C1839 1.327 . S
C1841 C1857 1.429 . S
C1841 H1863 0.950 . S
C1842 H1838 0.949 . S
C1842 C1850 1.574 . S
C1842 C1858 1.368 . S
H1843 C1851 0.950 . S
H1844 C1849 0.950 . S
H1845 C1850 0.949 . S
H1846 C1852 0.950 . S
H1847 C1853 0.950 . S
H1848 C1854 0.949 . S
C1849 H1844 0.950 . S
C1849 C1851 1.327 . S
C1849 C1855 1.429 . S
C1850 C1842 1.574 . S
C1850 H1845 0.949 . S
C1850 C1856 1.368 . S
C1851 C1835 1.349 . S
C1851 H1843 0.950 . S
C1851 C1849 1.327 . S
C1852 C1840 1.349 . S
C1852 H1846 0.950 . S
C1852 C1853 1.327 . S
C1853 H1847 0.950 . S
C1853 C1852 1.327 . S
C1853 C1857 1.429 . S
C1854 C1837 1.574 . S
C1854 H1848 0.949 . S
C1854 C1858 1.368 . S
C1855 C1836 1.429 . S
C1855 C1849 1.429 . S
C1855 C1856 1.523 . S
C1856 C1837 1.368 . S
C1856 C1850 1.368 . S
C1856 C1855 1.523 . S
C1857 C1841 1.429 . S
C1857 C1853 1.429 . S
C1857 C1858 1.523 . S
C1858 C1842 1.368 . S
C1858 C1854 1.368 . S
C1858 C1857 1.523 . S
H1859 C1834 0.950 . S
H1860 C1836 0.950 . S
H1861 C1837 0.949 . S
H1862 C1839 0.950 . S
H1863 C1841 0.950 . S
C1864 C1865 1.349 . S
C1864 C1866 1.327 . S
C1864 H1889 0.950 . S
C1865 C1864 1.349 . S
C1865 C1881 1.349 . S
C1866 C1864 1.327 . S
C1866 C1885 1.429 . S
C1866 H1890 0.950 . S
C1867 C1884 1.574 . S
C1867 C1886 1.368 . S
C1867 H1891 0.949 . S
H1868 C1872 0.949 . S
C1869 C1870 1.349 . S
C1869 C1871 1.327 . S
C1869 H1892 0.950 . S
C1870 C1869 1.349 . S
C1870 C1882 1.349 . S
C1871 C1869 1.327 . S
C1871 C1887 1.429 . S
C1871 H1893 0.950 . S
C1872 H1868 0.949 . S
C1872 C1880 1.574 . S
C1872 C1888 1.368 . S
H1873 C1881 0.950 . S
H1874 C1879 0.950 . S
H1875 C1880 0.949 . S
H1876 C1882 0.950 . S
H1877 C1883 0.950 . S
H1878 C1884 0.949 . S
C1879 H1874 0.950 . S
C1879 C1881 1.327 . S
C1879 C1885 1.429 . S
C1880 C1872 1.574 . S
C1880 H1875 0.949 . S
C1880 C1886 1.368 . S
C1881 C1865 1.349 . S
C1881 H1873 0.950 . S
C1881 C1879 1.327 . S
C1882 C1870 1.349 . S
C1882 H1876 0.950 . S
C1882 C1883 1.327 . S
C1883 H1877 0.950 . S
C1883 C1882 1.327 . S
C1883 C1887 1.429 . S
C1884 C1867 1.574 . S
C1884 H1878 0.949 . S
C1884 C1888 1.368 . S
C1885 C1866 1.429 . S
C1885 C1879 1.429 . S
C1885 C1886 1.523 . S
C1886 C1867 1.368 . S
C1886 C1880 1.368 . S
C1886 C1885 1.523 . S
C1887 C1871 1.429 . S
C1887 C1883 1.429 . S
C1887 C1888 1.523 . S
C1888 C1872 1.368 . S
C1888 C1884 1.368 . S
C1888 C1887 1.523 . S
H1889 C1864 0.950 . S
H1890 C1866 0.950 . S
H1891 C1867 0.949 . S
H1892 C1869 0.950 . S
H1893 C1871 0.950 . S
C1894 C1895 1.349 . S
C1894 C1896 1.327 . S
C1894 H1919 0.950 . S
C1895 C1894 1.349 . S
C1895 C1911 1.349 . S
C1896 C1894 1.327 . S
C1896 C1915 1.429 . S
C1896 H1920 0.950 . S
C1897 C1914 1.574 . S
C1897 C1916 1.368 . S
C1897 H1921 0.949 . S
H1898 C1902 0.949 . S
C1899 C1900 1.349 . S
C1899 C1901 1.327 . S
C1899 H1922 0.950 . S
C1900 C1899 1.349 . S
C1900 C1912 1.349 . S
C1901 C1899 1.327 . S
C1901 C1917 1.429 . S
C1901 H1923 0.950 . S
C1902 H1898 0.949 . S
C1902 C1910 1.574 . S
C1902 C1918 1.368 . S
H1903 C1911 0.950 . S
H1904 C1909 0.950 . S
H1905 C1910 0.949 . S
H1906 C1912 0.950 . S
H1907 C1913 0.950 . S
H1908 C1914 0.949 . S
C1909 H1904 0.950 . S
C1909 C1911 1.327 . S
C1909 C1915 1.429 . S
C1910 C1902 1.574 . S
C1910 H1905 0.949 . S
C1910 C1916 1.368 . S
C1911 C1895 1.349 . S
C1911 H1903 0.950 . S
C1911 C1909 1.327 . S
C1912 C1900 1.349 . S
C1912 H1906 0.950 . S
C1912 C1913 1.327 . S
C1913 H1907 0.950 . S
C1913 C1912 1.327 . S
C1913 C1917 1.429 . S
C1914 C1897 1.574 . S
C1914 H1908 0.949 . S
C1914 C1918 1.368 . S
C1915 C1896 1.429 . S
C1915 C1909 1.429 . S
C1915 C1916 1.523 . S
C1916 C1897 1.368 . S
C1916 C1910 1.368 . S
C1916 C1915 1.523 . S
C1917 C1901 1.429 . S
C1917 C1913 1.429 . S
C1917 C1918 1.523 . S
C1918 C1902 1.368 . S
C1918 C1914 1.368 . S
C1918 C1917 1.523 . S
H1919 C1894 0.950 . S
H1920 C1896 0.950 . S
H1921 C1897 0.949 . S
H1922 C1899 0.950 . S
H1923 C1901 0.950 . S
C1924 C1925 1.349 . S
C1924 C1926 1.327 . S
C1924 H1949 0.950 . S
C1925 C1924 1.349 . S
C1925 C1941 1.349 . S
C1926 C1924 1.327 . S
C1926 C1945 1.429 . S
C1926 H1950 0.950 . S
C1927 C1944 1.574 . S
C1927 C1946 1.368 . S
C1927 H1951 0.949 . S
H1928 C1932 0.949 . S
C1929 C1930 1.349 . S
C1929 C1931 1.327 . S
C1929 H1952 0.950 . S
C1930 C1929 1.349 . S
C1930 C1942 1.349 . S
C1931 C1929 1.327 . S
C1931 C1947 1.429 . S
C1931 H1953 0.950 . S
C1932 H1928 0.949 . S
C1932 C1940 1.574 . S
C1932 C1948 1.368 . S
H1933 C1941 0.950 . S
H1934 C1939 0.950 . S
H1935 C1940 0.949 . S
H1936 C1942 0.950 . S
H1937 C1943 0.950 . S
H1938 C1944 0.949 . S
C1939 H1934 0.950 . S
C1939 C1941 1.327 . S
C1939 C1945 1.429 . S
C1940 C1932 1.574 . S
C1940 H1935 0.949 . S
C1940 C1946 1.368 . S
C1941 C1925 1.349 . S
C1941 H1933 0.950 . S
C1941 C1939 1.327 . S
C1942 C1930 1.349 . S
C1942 H1936 0.950 . S
C1942 C1943 1.327 . S
C1943 H1937 0.950 . S
C1943 C1942 1.327 . S
C1943 C1947 1.429 . S
C1944 C1927 1.574 . S
C1944 H1938 0.949 . S
C1944 C1948 1.368 . S
C1945 C1926 1.429 . S
C1945 C1939 1.429 . S
C1945 C1946 1.523 . S
C1946 C1927 1.368 . S
C1946 C1940 1.368 . S
C1946 C1945 1.523 . S
C1947 C1931 1.429 . S
C1947 C1943 1.429 . S
C1947 C1948 1.523 . S
C1948 C1932 1.368 . S
C1948 C1944 1.368 . S
C1948 C1947 1.523 . S
H1949 C1924 0.950 . S
H1950 C1926 0.950 . S
H1951 C1927 0.949 . S
H1952 C1929 0.950 . S
H1953 C1931 0.950 . S
C1954 C1955 1.349 . S
C1954 C1956 1.327 . S
C1954 H1979 0.950 . S
C1955 C1954 1.349 . S
C1955 C1971 1.349 . S
C1956 C1954 1.327 . S
C1956 C1975 1.429 . S
C1956 H1980 0.950 . S
C1957 C1974 1.574 . S
C1957 C1976 1.368 . S
C1957 H1981 0.949 . S
H1958 C1962 0.949 . S
C1959 C1960 1.349 . S
C1959 C1961 1.327 . S
C1959 H1982 0.950 . S
C1960 C1959 1.349 . S
C1960 C1972 1.349 . S
C1961 C1959 1.327 . S
C1961 C1977 1.429 . S
C1961 H1983 0.950 . S
C1962 H1958 0.949 . S
C1962 C1970 1.574 . S
C1962 C1978 1.368 . S
H1963 C1971 0.950 . S
H1964 C1969 0.950 . S
H1965 C1970 0.949 . S
H1966 C1972 0.950 . S
H1967 C1973 0.950 . S
H1968 C1974 0.949 . S
C1969 H1964 0.950 . S
C1969 C1971 1.327 . S
C1969 C1975 1.429 . S
C1970 C1962 1.574 . S
C1970 H1965 0.949 . S
C1970 C1976 1.368 . S
C1971 C1955 1.349 . S
C1971 H1963 0.950 . S
C1971 C1969 1.327 . S
C1972 C1960 1.349 . S
C1972 H1966 0.950 . S
C1972 C1973 1.327 . S
C1973 H1967 0.950 . S
C1973 C1972 1.327 . S
C1973 C1977 1.429 . S
C1974 C1957 1.574 . S
C1974 H1968 0.949 . S
C1974 C1978 1.368 . S
C1975 C1956 1.429 . S
C1975 C1969 1.429 . S
C1975 C1976 1.523 . S
C1976 C1957 1.368 . S
C1976 C1970 1.368 . S
C1976 C1975 1.523 . S
C1977 C1961 1.429 . S
C1977 C1973 1.429 . S
C1977 C1978 1.523 . S
C1978 C1962 1.368 . S
C1978 C1974 1.368 . S
C1978 C1977 1.523 . S
H1979 C1954 0.950 . S
H1980 C1956 0.950 . S
H1981 C1957 0.949 . S
H1982 C1959 0.950 . S
H1983 C1961 0.950 . S
C1984 C1985 1.349 . S
C1984 C1986 1.327 . S
C1984 H2009 0.950 . S
C1985 C1984 1.349 . S
C1985 C2001 1.349 . S
C1986 C1984 1.327 . S
C1986 C2005 1.429 . S
C1986 H2010 0.950 . S
C1987 C2004 1.574 . S
C1987 C2006 1.368 1_655 S
C1987 H2011 0.949 . S
H1988 C1992 0.949 . S
C1989 C1990 1.349 . S
C1989 C1991 1.327 . S
C1989 H2012 0.950 . S
C1990 C1989 1.349 . S
C1990 C2002 1.349 . S
C1991 C1989 1.327 . S
C1991 C2007 1.429 . S
C1991 H2013 0.950 . S
C1992 H1988 0.949 . S
C1992 C2000 1.574 . S
C1992 C2008 1.368 1_455 S
H1993 C2001 0.950 . S
H1994 C1999 0.950 . S
H1995 C2000 0.949 . S
H1996 C2002 0.950 . S
H1997 C2003 0.950 . S
H1998 C2004 0.949 . S
C1999 H1994 0.950 . S
C1999 C2001 1.327 . S
C1999 C2005 1.429 . S
C2000 C1992 1.574 . S
C2000 H1995 0.949 . S
C2000 C2006 1.368 . S
C2001 C1985 1.349 . S
C2001 H1993 0.950 . S
C2001 C1999 1.327 . S
C2002 C1990 1.349 . S
C2002 H1996 0.950 . S
C2002 C2003 1.327 . S
C2003 H1997 0.950 . S
C2003 C2002 1.327 . S
C2003 C2007 1.429 . S
C2004 C1987 1.574 . S
C2004 H1998 0.949 . S
C2004 C2008 1.368 . S
C2005 C1986 1.429 . S
C2005 C1999 1.429 . S
C2005 C2006 1.523 . S
C2006 C1987 1.368 1_455 S
C2006 C2000 1.368 . S
C2006 C2005 1.523 . S
C2007 C1991 1.429 . S
C2007 C2003 1.429 . S
C2007 C2008 1.523 . S
C2008 C1992 1.368 1_655 S
C2008 C2004 1.368 . S
C2008 C2007 1.523 . S
H2009 C1984 0.950 . S
H2010 C1986 0.950 . S
H2011 C1987 0.949 . S
H2012 C1989 0.950 . S
H2013 C1991 0.950 . S
C2014 C2015 1.349 . S
C2014 C2016 1.327 . S
C2014 H2039 0.950 . S
C2015 C2014 1.349 . S
C2015 C2031 1.349 . S
C2016 C2014 1.327 . S
C2016 C2035 1.429 . S
C2016 H2040 0.950 . S
C2017 C2034 1.574 . S
C2017 C2036 1.368 . S
C2017 H2041 0.949 . S
H2018 C2022 0.949 . S
C2019 C2020 1.349 . S
C2019 C2021 1.327 . S
C2019 H2042 0.950 . S
C2020 C2019 1.349 . S
C2020 C2032 1.349 . S
C2021 C2019 1.327 . S
C2021 C2037 1.429 . S
C2021 H2043 0.950 . S
C2022 H2018 0.949 . S
C2022 C2030 1.574 . S
C2022 C2038 1.368 . S
H2023 C2031 0.950 . S
H2024 C2029 0.950 . S
H2025 C2030 0.949 . S
H2026 C2032 0.950 . S
H2027 C2033 0.950 . S
H2028 C2034 0.949 . S
C2029 H2024 0.950 . S
C2029 C2031 1.327 . S
C2029 C2035 1.429 . S
C2030 C2022 1.574 . S
C2030 H2025 0.949 . S
C2030 C2036 1.368 1_545 S
C2031 C2015 1.349 . S
C2031 H2023 0.950 . S
C2031 C2029 1.327 . S
C2032 C2020 1.349 . S
C2032 H2026 0.950 . S
C2032 C2033 1.327 . S
C2033 H2027 0.950 . S
C2033 C2032 1.327 . S
C2033 C2037 1.429 . S
C2034 C2017 1.574 . S
C2034 H2028 0.949 . S
C2034 C2038 1.368 1_565 S
C2035 C2016 1.429 . S
C2035 C2029 1.429 . S
C2035 C2036 1.523 . S
C2036 C2017 1.368 . S
C2036 C2030 1.368 1_565 S
C2036 C2035 1.523 . S
C2037 C2021 1.429 . S
C2037 C2033 1.429 . S
C2037 C2038 1.523 . S
C2038 C2022 1.368 . S
C2038 C2034 1.368 1_545 S
C2038 C2037 1.523 . S
H2039 C2014 0.950 . S
H2040 C2016 0.950 . S
H2041 C2017 0.949 . S
H2042 C2019 0.950 . S
H2043 C2021 0.950 . S
C2044 C2045 1.349 . S
C2044 C2046 1.327 . S
C2044 H2069 0.950 . S
C2045 C2044 1.349 . S
C2045 C2061 1.349 . S
C2046 C2044 1.327 . S
C2046 C2065 1.429 . S
C2046 H2070 0.950 . S
C2047 C2064 1.574 . S
C2047 C2066 1.368 . S
C2047 H2071 0.949 . S
H2048 C2052 0.949 . S
C2049 C2050 1.349 . S
C2049 C2051 1.327 . S
C2049 H2072 0.950 . S
C2050 C2049 1.349 . S
C2050 C2062 1.349 . S
C2051 C2049 1.327 . S
C2051 C2067 1.429 . S
C2051 H2073 0.950 . S
C2052 H2048 0.949 . S
C2052 C2060 1.574 . S
C2052 C2068 1.368 . S
H2053 C2061 0.950 . S
H2054 C2059 0.950 . S
H2055 C2060 0.949 . S
H2056 C2062 0.950 . S
H2057 C2063 0.950 . S
H2058 C2064 0.949 . S
C2059 H2054 0.950 . S
C2059 C2061 1.327 . S
C2059 C2065 1.429 . S
C2060 C2052 1.574 . S
C2060 H2055 0.949 . S
C2060 C2066 1.368 1_655 S
C2061 C2045 1.349 . S
C2061 H2053 0.950 . S
C2061 C2059 1.327 . S
C2062 C2050 1.349 . S
C2062 H2056 0.950 . S
C2062 C2063 1.327 . S
C2063 H2057 0.950 . S
C2063 C2062 1.327 . S
C2063 C2067 1.429 . S
C2064 C2047 1.574 . S
C2064 H2058 0.949 . S
C2064 C2068 1.368 1_455 S
C2065 C2046 1.429 . S
C2065 C2059 1.429 . S
C2065 C2066 1.523 . S
C2066 C2047 1.368 . S
C2066 C2060 1.368 1_455 S
C2066 C2065 1.523 . S
C2067 C2051 1.429 . S
C2067 C2063 1.429 . S
C2067 C2068 1.523 . S
C2068 C2052 1.368 . S
C2068 C2064 1.368 1_655 S
C2068 C2067 1.523 . S
H2069 C2044 0.950 . S
H2070 C2046 0.950 . S
H2071 C2047 0.949 . S
H2072 C2049 0.950 . S
H2073 C2051 0.950 . S
C2074 C2075 1.349 . S
C2074 C2076 1.327 . S
C2074 H2099 0.950 . S
C2075 C2074 1.349 . S
C2075 C2091 1.349 . S
C2076 C2074 1.327 . S
C2076 C2095 1.429 . S
C2076 H2100 0.950 . S
C2077 C2094 1.574 . S
C2077 C2096 1.368 1_545 S
C2077 H2101 0.949 . S
H2078 C2082 0.949 . S
C2079 C2080 1.349 . S
C2079 C2081 1.327 . S
C2079 H2102 0.950 . S
C2080 C2079 1.349 . S
C2080 C2092 1.349 . S
C2081 C2079 1.327 . S
C2081 C2097 1.429 . S
C2081 H2103 0.950 . S
C2082 H2078 0.949 . S
C2082 C2090 1.574 . S
C2082 C2098 1.368 1_565 S
H2083 C2091 0.950 . S
H2084 C2089 0.950 . S
H2085 C2090 0.949 . S
H2086 C2092 0.950 . S
H2087 C2093 0.950 . S
H2088 C2094 0.949 . S
C2089 H2084 0.950 . S
C2089 C2091 1.327 . S
C2089 C2095 1.429 . S
C2090 C2082 1.574 . S
C2090 H2085 0.949 . S
C2090 C2096 1.368 . S
C2091 C2075 1.349 . S
C2091 H2083 0.950 . S
C2091 C2089 1.327 . S
C2092 C2080 1.349 . S
C2092 H2086 0.950 . S
C2092 C2093 1.327 . S
C2093 H2087 0.950 . S
C2093 C2092 1.327 . S
C2093 C2097 1.429 . S
C2094 C2077 1.574 . S
C2094 H2088 0.949 . S
C2094 C2098 1.368 . S
C2095 C2076 1.429 . S
C2095 C2089 1.429 . S
C2095 C2096 1.523 . S
C2096 C2077 1.368 1_565 S
C2096 C2090 1.368 . S
C2096 C2095 1.523 . S
C2097 C2081 1.429 . S
C2097 C2093 1.429 . S
C2097 C2098 1.523 . S
C2098 C2082 1.368 1_545 S
C2098 C2094 1.368 . S
C2098 C2097 1.523 . S
H2099 C2074 0.950 . S
H2100 C2076 0.950 . S
H2101 C2077 0.949 . S
H2102 C2079 0.950 . S
H2103 C2081 0.950 . S
C2104 C2105 1.349 . S
C2104 C2106 1.327 . S
C2104 H2129 0.950 . S
C2105 C2104 1.349 . S
C2105 C2121 1.349 . S
C2106 C2104 1.327 . S
C2106 C2125 1.429 . S
C2106 H2130 0.950 . S
C2107 C2124 1.574 1_455 S
C2107 C2126 1.368 . S
C2107 H2131 0.949 . S
H2108 C2112 0.949 . S
C2109 C2110 1.349 . S
C2109 C2111 1.327 . S
C2109 H2132 0.950 . S
C2110 C2109 1.349 . S
C2110 C2122 1.349 . S
C2111 C2109 1.327 . S
C2111 C2127 1.429 . S
C2111 H2133 0.950 . S
C2112 H2108 0.949 . S
C2112 C2120 1.574 1_655 S
C2112 C2128 1.368 . S
H2113 C2121 0.950 . S
H2114 C2119 0.950 . S
H2115 C2120 0.949 . S
H2116 C2122 0.950 . S
H2117 C2123 0.950 . S
H2118 C2124 0.949 . S
C2119 H2114 0.950 . S
C2119 C2121 1.327 . S
C2119 C2125 1.429 . S
C2120 C2112 1.574 1_455 S
C2120 H2115 0.949 . S
C2120 C2126 1.368 . S
C2121 C2105 1.349 . S
C2121 H2113 0.950 . S
C2121 C2119 1.327 . S
C2122 C2110 1.349 . S
C2122 H2116 0.950 . S
C2122 C2123 1.327 . S
C2123 H2117 0.950 . S
C2123 C2122 1.327 . S
C2123 C2127 1.429 . S
C2124 C2107 1.574 1_655 S
C2124 H2118 0.949 . S
C2124 C2128 1.368 . S
C2125 C2106 1.429 . S
C2125 C2119 1.429 . S
C2125 C2126 1.523 . S
C2126 C2107 1.368 . S
C2126 C2120 1.368 . S
C2126 C2125 1.523 . S
C2127 C2111 1.429 . S
C2127 C2123 1.429 . S
C2127 C2128 1.523 . S
C2128 C2112 1.368 . S
C2128 C2124 1.368 . S
C2128 C2127 1.523 . S
H2129 C2104 0.950 . S
H2130 C2106 0.950 . S
H2131 C2107 0.949 . S
H2132 C2109 0.950 . S
H2133 C2111 0.950 . S
C2134 C2135 1.349 . S
C2134 C2136 1.327 . S
C2134 H2159 0.950 . S
C2135 C2134 1.349 . S
C2135 C2151 1.349 . S
C2136 C2134 1.327 . S
C2136 C2155 1.429 . S
C2136 H2160 0.950 . S
C2137 C2154 1.574 1_545 S
C2137 C2156 1.368 . S
C2137 H2161 0.949 . S
H2138 C2142 0.949 . S
C2139 C2140 1.349 . S
C2139 C2141 1.327 . S
C2139 H2162 0.950 . S
C2140 C2139 1.349 . S
C2140 C2152 1.349 . S
C2141 C2139 1.327 . S
C2141 C2157 1.429 . S
C2141 H2163 0.950 . S
C2142 H2138 0.949 . S
C2142 C2150 1.574 1_565 S
C2142 C2158 1.368 . S
H2143 C2151 0.950 . S
H2144 C2149 0.950 . S
H2145 C2150 0.949 . S
H2146 C2152 0.950 . S
H2147 C2153 0.950 . S
H2148 C2154 0.949 . S
C2149 H2144 0.950 . S
C2149 C2151 1.327 . S
C2149 C2155 1.429 . S
C2150 C2142 1.574 1_545 S
C2150 H2145 0.949 . S
C2150 C2156 1.368 . S
C2151 C2135 1.349 . S
C2151 H2143 0.950 . S
C2151 C2149 1.327 . S
C2152 C2140 1.349 . S
C2152 H2146 0.950 . S
C2152 C2153 1.327 . S
C2153 H2147 0.950 . S
C2153 C2152 1.327 . S
C2153 C2157 1.429 . S
C2154 C2137 1.574 1_565 S
C2154 H2148 0.949 . S
C2154 C2158 1.368 . S
C2155 C2136 1.429 . S
C2155 C2149 1.429 . S
C2155 C2156 1.523 . S
C2156 C2137 1.368 . S
C2156 C2150 1.368 . S
C2156 C2155 1.523 . S
C2157 C2141 1.429 . S
C2157 C2153 1.429 . S
C2157 C2158 1.523 . S
C2158 C2142 1.368 . S
C2158 C2154 1.368 . S
C2158 C2157 1.523 . S
H2159 C2134 0.950 . S
H2160 C2136 0.950 . S
H2161 C2137 0.949 . S
H2162 C2139 0.950 . S
H2163 C2141 0.950 . S
C2164 C2165 1.349 . S
C2164 C2166 1.327 . S
C2164 H2189 0.950 . S
C2165 C2164 1.349 . S
C2165 C2181 1.349 . S
C2166 C2164 1.327 . S
C2166 C2185 1.429 . S
C2166 H2190 0.950 . S
C2167 C2184 1.574 1_455 S
C2167 C2186 1.368 . S
C2167 H2191 0.949 . S
H2168 C2172 0.949 . S
C2169 C2170 1.349 . S
C2169 C2171 1.327 . S
C2169 H2192 0.950 . S
C2170 C2169 1.349 . S
C2170 C2182 1.349 . S
C2171 C2169 1.327 . S
C2171 C2187 1.429 . S
C2171 H2193 0.950 . S
C2172 H2168 0.949 . S
C2172 C2180 1.574 1_655 S
C2172 C2188 1.368 . S
H2173 C2181 0.950 . S
H2174 C2179 0.950 . S
H2175 C2180 0.949 . S
H2176 C2182 0.950 . S
H2177 C2183 0.950 . S
H2178 C2184 0.949 . S
C2179 H2174 0.950 . S
C2179 C2181 1.327 . S
C2179 C2185 1.429 . S
C2180 C2172 1.574 1_455 S
C2180 H2175 0.949 . S
C2180 C2186 1.368 . S
C2181 C2165 1.349 . S
C2181 H2173 0.950 . S
C2181 C2179 1.327 . S
C2182 C2170 1.349 . S
C2182 H2176 0.950 . S
C2182 C2183 1.327 . S
C2183 H2177 0.950 . S
C2183 C2182 1.327 . S
C2183 C2187 1.429 . S
C2184 C2167 1.574 1_655 S
C2184 H2178 0.949 . S
C2184 C2188 1.368 . S
C2185 C2166 1.429 . S
C2185 C2179 1.429 . S
C2185 C2186 1.523 . S
C2186 C2167 1.368 . S
C2186 C2180 1.368 . S
C2186 C2185 1.523 . S
C2187 C2171 1.429 . S
C2187 C2183 1.429 . S
C2187 C2188 1.523 . S
C2188 C2172 1.368 . S
C2188 C2184 1.368 . S
C2188 C2187 1.523 . S
H2189 C2164 0.950 . S
H2190 C2166 0.950 . S
H2191 C2167 0.949 . S
H2192 C2169 0.950 . S
H2193 C2171 0.950 . S
C2194 C2195 1.349 . S
C2194 C2196 1.327 . S
C2194 H2219 0.950 . S
C2195 C2194 1.349 . S
C2195 C2211 1.349 . S
C2196 C2194 1.327 . S
C2196 C2215 1.429 . S
C2196 H2220 0.950 . S
C2197 C2214 1.574 1_565 S
C2197 C2216 1.368 . S
C2197 H2221 0.949 . S
H2198 C2202 0.949 . S
C2199 C2200 1.349 . S
C2199 C2201 1.327 . S
C2199 H2222 0.950 . S
C2200 C2199 1.349 . S
C2200 C2212 1.349 . S
C2201 C2199 1.327 . S
C2201 C2217 1.429 . S
C2201 H2223 0.950 . S
C2202 H2198 0.949 . S
C2202 C2210 1.574 1_545 S
C2202 C2218 1.368 . S
H2203 C2211 0.950 . S
H2204 C2209 0.950 . S
H2205 C2210 0.949 . S
H2206 C2212 0.950 . S
H2207 C2213 0.950 . S
H2208 C2214 0.949 . S
C2209 H2204 0.950 . S
C2209 C2211 1.327 . S
C2209 C2215 1.429 . S
C2210 C2202 1.574 1_565 S
C2210 H2205 0.949 . S
C2210 C2216 1.368 . S
C2211 C2195 1.349 . S
C2211 H2203 0.950 . S
C2211 C2209 1.327 . S
C2212 C2200 1.349 . S
C2212 H2206 0.950 . S
C2212 C2213 1.327 . S
C2213 H2207 0.950 . S
C2213 C2212 1.327 . S
C2213 C2217 1.429 . S
C2214 C2197 1.574 1_545 S
C2214 H2208 0.949 . S
C2214 C2218 1.368 . S
C2215 C2196 1.429 . S
C2215 C2209 1.429 . S
C2215 C2216 1.523 . S
C2216 C2197 1.368 . S
C2216 C2210 1.368 . S
C2216 C2215 1.523 . S
C2217 C2201 1.429 . S
C2217 C2213 1.429 . S
C2217 C2218 1.523 . S
C2218 C2202 1.368 . S
C2218 C2214 1.368 . S
C2218 C2217 1.523 . S
H2219 C2194 0.950 . S
H2220 C2196 0.950 . S
H2221 C2197 0.949 . S
H2222 C2199 0.950 . S
H2223 C2201 0.950 . S
C545 C22 1.763 . S
C550 C362 1.763 . S
C575 C56 1.763 . S
C580 C396 1.763 . S
C605 C287 1.763 . S
C610 C83 1.763 . S
C635 C328 1.763 . S
C640 C117 1.763 . S
C665 C158 1.763 . S
C670 C498 1.763 . S
C695 C525 1.763 . S
C700 C185 1.763 . S
C725 C423 1.763 . S
C730 C226 1.763 . S
C755 C260 1.763 . S
C760 C464 1.763 . S
C785 C103 0.725 . S
C790 C28 0.716 . S
C815 C3 0.725 . S
C820 C62 0.716 . S
C845 C74 0.716 . S
C850 C37 0.725 . S
C875 C108 0.716 . S
C880 C69 0.725 . S
C905 C171 0.725 . S
C910 C164 0.716 . S
C935 C176 0.716 . S
C940 C207 0.725 . S
C965 C241 0.725 . S
C970 C232 0.716 . S
C995 C139 0.725 . S
C1000 C266 0.716 . S
C1025 C289 1.893 . S
C1030 C380 1.896 . S
C1055 C300 1.896 . S
C1060 C323 1.893 . S
C1085 C357 1.893 . S
C1090 C312 1.896 . S
C1115 C346 1.896 . S
C1120 C391 1.893 . S
C1145 C425 1.893 . S
C1150 C448 1.896 . S
C1175 C482 1.896 . S
C1180 C459 1.893 . S
C1205 C538 1.896 . S
C1210 C493 1.893 . S
C1235 C436 1.896 . S
C1240 C527 1.893 . S
C1265 C470 0.716 . S
C1270 C409 0.725 . S
C1295 C504 0.716 . S
C1300 C445 0.725 . S
C1325 C479 0.725 . S
C1330 C516 0.716 . S
C1355 C511 0.725 . S
C1360 C414 0.716 . S
C1385 C402 0.716 . S
C1390 C273 0.725 . S
C1415 C309 0.725 . S
C1420 C278 0.716 . S
C1445 C343 0.725 . S
C1450 C334 0.716 . S
C1475 C377 0.725 . S
C1480 C368 0.716 . S
C1505 C187 1.893 . S
C1510 C142 1.896 . S
C1535 C198 1.896 . S
C1540 C221 1.893 . S
C1565 C255 1.893 . S
C1570 C210 1.896 . S
C1595 C244 1.896 . S
C1600 C153 1.893 . S
C1625 C119 1.893 . S
C1630 C6 1.896 . S
C1655 C40 1.896 . S
C1660 C17 1.893 . S
C1685 C96 1.896 . S
C1690 C51 1.893 . S
C1715 C130 1.896 . S
C1720 C85 1.893 . S
C1745 C192 1.572 . S
C1750 C15 1.572 . S
C1775 C219 1.572 . S
C1780 C49 1.572 . S
C1805 C253 1.572 . S
C1810 C90 1.572 . S
C1835 C151 1.572 . S
C1840 C124 1.572 . S
C1865 C457 1.572 . S
C1870 C294 1.572 . S
C1895 C321 1.572 . S
C1900 C491 1.572 . S
C1925 C355 1.572 . S
C1930 C532 1.572 . S
C1955 C389 1.572 . S
C1960 C430 1.572 . S
C1985 C1 1.868 . S
C1990 C71 1.868 . S
C2015 C105 1.868 . S
C2020 C35 1.868 . S
C2045 C137 1.868 . S
C2050 C205 1.868 . S
C2075 C239 1.868 . S
C2080 C173 1.868 . S
C2105 C341 1.868 . S
C2110 C275 1.868 . S
C2135 C375 1.868 . S
C2140 C307 1.868 . S
C2165 C477 1.868 . S
C2170 C411 1.868 . S
C2195 C443 1.868 . S
C2200 C513 1.868 . S
