# Generated by pormake.
# Topology vmc, (5)-cn, num edge types: 1
# Building blocks:
#     Node 0, Type 0, BuildingBlock: XOMCOT_clean_sbu_0, # of connection points: 5
#     Node 1, Type 0, BuildingBlock: XOMCOT_clean_sbu_0, # of connection points: 5
#     Node 2, Type 0, BuildingBlock: XOMCOT_clean_sbu_0, # of connection points: 5
#     Node 3, Type 0, BuildingBlock: XOMCOT_clean_sbu_0, # of connection points: 5
#     Node 4, Type 0, BuildingBlock: XOMCOT_clean_sbu_0, # of connection points: 5
#     Node 5, Type 0, BuildingBlock: XOMCOT_clean_sbu_0, # of connection points: 5
#     Node 6, Type 0, BuildingBlock: XOMCOT_clean_sbu_0, # of connection points: 5
#     Node 7, Type 0, BuildingBlock: XOMCOT_clean_sbu_0, # of connection points: 5
#     Edge 8, Type (0, 0), None
#     Edge 9, Type (0, 0), None
#     Edge 10, Type (0, 0), None
#     Edge 11, Type (0, 0), None
#     Edge 12, Type (0, 0), None
#     Edge 13, Type (0, 0), None
#     Edge 14, Type (0, 0), None
#     Edge 15, Type (0, 0), None
#     Edge 16, Type (0, 0), None
#     Edge 17, Type (0, 0), None
#     Edge 18, Type (0, 0), None
#     Edge 19, Type (0, 0), None
#     Edge 20, Type (0, 0), None
#     Edge 21, Type (0, 0), None
#     Edge 22, Type (0, 0), None
#     Edge 23, Type (0, 0), None
#     Edge 24, Type (0, 0), None
#     Edge 25, Type (0, 0), None
#     Edge 26, Type (0, 0), None
#     Edge 27, Type (0, 0), None
# Relax obj value: 0.327
# Max RMSD: 0.203
# Mean RMSD: 0.203
data_MOF--net-vmc--node1-XOMCOT_clean_sbu_0--edge1-none
_symmetry_space_group_name_H-M    P1
_symmetry_Int_Tables_number       1
_symmetry_cell_setting            triclinic
loop_
_symmetry_equiv_pos_as_xyz
'x, y, z'
_cell_length_a     14.976468
_cell_length_b     25.015138
_cell_length_c     13.653338
_cell_angle_alpha  90.011857
_cell_angle_beta   81.454536
_cell_angle_gamma 90.011085
loop_
_atom_site_label
_atom_site_type_symbol
_atom_site_fract_x
_atom_site_fract_y
_atom_site_fract_z
_atom_type_partial_charge
Co0 Co 0.26301 0.4777 0.14958 0.0
C1 C 0.20403 0.53801 0.98619 0.0
C2 C 0.10092 0.54022 0.11237 0.0
C3 C 0.06509 0.55862 1.03046 0.0
N4 N 0.18862 0.52719 0.08488 0.0
N5 N 0.13009 0.5565 0.95084 0.0
H6 H 0.26619 0.52843 0.93857 0.0
H7 H 0.06313 0.53355 0.18477 0.0
C8 C 0.12325 0.48665 0.35386 0.0
O9 O 0.04617 0.47047 0.32903 0.0
N10 N 0.33587 0.42495 0.19969 0.0
C11 C 0.38078 0.38604 0.14381 0.0
C12 C 0.42908 0.35667 0.20177 0.0
C13 C 0.35488 0.41799 0.29087 0.0
N14 N 0.41205 0.37681 0.29355 0.0
C15 C 0.20787 0.39888 1.02181 0.0
C16 C 0.15438 0.32873 0.17562 0.0
C17 C 0.18666 0.307 0.0822 0.0
C18 C 0.20617 0.34385 1.00299 0.0
C19 C 0.15782 0.38356 0.19109 0.0
N20 N 0.19152 0.41752 0.11638 0.0
H21 H 0.23454 0.42549 0.96223 0.0
H22 H 0.14839 0.39622 0.26678 0.0
H23 H 0.3827 0.38137 1.06484 0.0
H24 H 0.33657 0.44588 0.35102 0.0
O25 O 0.36064 0.48193 1.03686 0.0
O26 O 0.34895 0.53301 0.16979 0.0
O27 O 0.19448 0.48886 0.28901 0.0
C28 C 0.39719 0.51756 0.08875 0.0
H29 H -0.00434 0.5703 1.02902 0.0
H30 H 0.48013 0.32705 0.17688 0.0
H31 H 0.13285 0.30445 0.23992 0.0
H32 H 0.22586 0.33156 0.92726 0.0
Co33 Co 0.62496 0.47768 0.50124 0.0
C34 C 0.684 0.53798 0.66464 0.0
C35 C 0.78709 0.54019 0.53845 0.0
C36 C 0.82296 0.55857 0.62037 0.0
N37 N 0.69939 0.52717 0.56594 0.0
N38 N 0.75797 0.55645 0.69999 0.0
H39 H 0.62185 0.5284 0.71226 0.0
H40 H 0.82488 0.53351 0.46603 0.0
C41 C 0.76468 0.48658 0.29697 0.0
O42 O 0.84173 0.47038 0.3218 0.0
N43 N 0.55203 0.42491 0.45117 0.0
C44 C 0.50728 0.38595 0.50707 0.0
C45 C 0.4587 0.35661 0.44927 0.0
C46 C 0.53263 0.41807 0.36011 0.0
N47 N 0.47538 0.37691 0.35762 0.0
C48 C 0.6802 0.3989 0.62897 0.0
C49 C 0.73351 0.3287 0.47516 0.0
C50 C 0.70135 0.30699 0.56862 0.0
C51 C 0.68193 0.34387 0.64782 0.0
C52 C 0.73005 0.38352 0.45967 0.0
N53 N 0.69643 0.4175 0.53439 0.0
H54 H 0.6536 0.42552 0.68857 0.0
H55 H 0.73937 0.39615 0.38396 0.0
H56 H 0.50562 0.38121 0.58599 0.0
H57 H 0.55075 0.446 0.30001 0.0
O58 O 0.52733 0.48192 0.61397 0.0
O59 O 0.53906 0.53298 0.48105 0.0
O60 O 0.69344 0.48881 0.3618 0.0
C61 C 0.4908 0.51755 0.56208 0.0
H62 H 0.8924 0.57024 0.6218 0.0
H63 H 0.40775 0.32695 0.47422 0.0
H64 H 0.75497 0.3044 0.41085 0.0
H65 H 0.66234 0.33161 0.72357 0.0
Co66 Co 0.62497 0.57668 1.00124 0.0
C67 C 0.68394 0.5164 0.16465 0.0
C68 C 0.78698 0.51408 1.03842 0.0
C69 C 0.82283 0.49569 0.12033 0.0
N70 N 0.69932 0.52717 1.06594 0.0
N71 N 0.75787 0.4979 0.19998 0.0
H72 H 0.62181 0.52604 0.21228 0.0
H73 H 0.82475 0.52068 0.96598 0.0
C74 C 0.76481 0.56774 0.79699 0.0
O75 O 0.84191 0.58385 0.82185 0.0
N76 N 0.55215 0.62947 0.95113 0.0
C77 C 0.50723 0.66836 1.00703 0.0
C78 C 0.45892 0.69774 0.94907 0.0
C79 C 0.53315 0.63644 0.85995 0.0
N80 N 0.47596 0.67761 0.85728 0.0
C81 C 0.67993 0.65547 0.12913 0.0
C82 C 0.73376 0.72564 0.97546 0.0
C83 C 0.70126 0.74736 1.06883 0.0
C84 C 0.68155 0.7105 0.14799 0.0
C85 C 0.7303 0.67081 0.95993 0.0
N86 N 0.69645 0.63684 1.03457 0.0
H87 H 0.65315 0.62886 0.18866 0.0
H88 H 0.7399 0.65816 0.88423 0.0
H89 H 0.50527 0.67301 0.086 0.0
H90 H 0.55146 0.60856 0.79979 0.0
O91 O 0.52731 0.57244 0.11391 0.0
O92 O 0.53902 0.5214 0.98093 0.0
O93 O 0.69356 0.56557 0.86182 0.0
C94 C 0.49076 0.53683 1.06196 0.0
H95 H 0.89223 0.48396 0.12174 0.0
H96 H 0.40785 0.72734 0.97398 0.0
H97 H 0.75552 0.74994 0.91123 0.0
H98 H 0.66163 0.72276 0.22369 0.0
Co99 Co 0.26308 0.57671 0.64962 0.0
C100 C 0.20405 0.51643 0.48619 0.0
C101 C 0.10102 0.51411 0.61244 0.0
C102 C 0.06514 0.49574 0.53051 0.0
N103 N 0.18869 0.52719 0.58491 0.0
N104 N 0.13009 0.49795 0.45085 0.0
H105 H 0.26617 0.52607 0.43856 0.0
H106 H 0.06327 0.52072 0.68489 0.0
C107 C 0.12328 0.5678 0.85385 0.0
O108 O 0.0462 0.58393 0.82899 0.0
N109 N 0.33596 0.62951 0.69969 0.0
C110 C 0.38074 0.66846 0.64377 0.0
C111 C 0.42932 0.69779 0.70156 0.0
C112 C 0.35536 0.63636 0.79075 0.0
N113 N 0.41262 0.67751 0.79322 0.0
C114 C 0.20801 0.65545 0.52176 0.0
C115 C 0.15437 0.72567 0.67544 0.0
C116 C 0.18675 0.74736 0.58203 0.0
C117 C 0.20636 0.71047 0.50288 0.0
C118 C 0.15785 0.67085 0.69099 0.0
N119 N 0.19162 0.63686 0.61634 0.0
H120 H 0.23473 0.62883 0.46222 0.0
H121 H 0.14836 0.65823 0.76671 0.0
H122 H 0.38243 0.67317 0.56484 0.0
H123 H 0.33724 0.60843 0.85086 0.0
O124 O 0.36074 0.57245 0.53694 0.0
O125 O 0.34899 0.52142 0.66991 0.0
O126 O 0.19454 0.56561 0.78904 0.0
C127 C 0.39726 0.53684 0.58887 0.0
H128 H -0.00427 0.48402 0.52911 0.0
H129 H 0.48028 0.72745 0.6766 0.0
H130 H 0.13268 0.74998 0.73968 0.0
H131 H 0.22619 0.72272 0.42715 0.0
Co132 Co 0.76301 0.9777 0.14958 0.0
C133 C 0.70403 0.03801 0.98619 0.0
C134 C 0.60092 0.04022 0.11237 0.0
C135 C 0.56509 0.05862 1.03046 0.0
N136 N 0.68862 0.02719 0.08488 0.0
N137 N 0.63009 0.0565 0.95084 0.0
H138 H 0.76619 0.02843 0.93857 0.0
H139 H 0.56313 0.03355 0.18477 0.0
C140 C 0.62325 0.98665 0.35386 0.0
O141 O 0.54617 0.97047 0.32903 0.0
N142 N 0.83588 0.92495 0.19969 0.0
C143 C 0.88078 0.88604 0.14381 0.0
C144 C 0.92908 0.85667 0.20177 0.0
C145 C 0.85488 0.91799 0.29087 0.0
N146 N 0.91205 0.87681 0.29355 0.0
C147 C 0.70788 0.89888 1.02181 0.0
C148 C 0.65438 0.82873 0.17561 0.0
C149 C 0.68667 0.807 0.08219 0.0
C150 C 0.70619 0.84385 1.00299 0.0
C151 C 0.65782 0.88356 0.19108 0.0
N152 N 0.69152 0.91752 0.11637 0.0
H153 H 0.73454 0.92549 0.96223 0.0
H154 H 0.64839 0.89622 0.26678 0.0
H155 H 0.8827 0.88137 1.06484 0.0
H156 H 0.83657 0.94588 0.35102 0.0
O157 O 0.86064 0.98193 1.03686 0.0
O158 O 0.84895 0.03301 0.16979 0.0
O159 O 0.69448 0.98885 0.28901 0.0
C160 C 0.89719 1.01756 0.08875 0.0
H161 H 0.49567 0.0703 1.02902 0.0
H162 H -0.01987 0.82705 0.17688 0.0
H163 H 0.63284 0.80445 0.23991 0.0
H164 H 0.72588 0.83156 0.92726 0.0
Co165 Co 0.12496 0.97768 0.50124 0.0
C166 C 0.184 0.03798 0.66465 0.0
C167 C 0.28709 0.04019 0.53845 0.0
C168 C 0.32296 0.05857 0.62037 0.0
N169 N 0.19939 1.02717 0.56594 0.0
N170 N 0.25797 0.05645 0.69999 0.0
H171 H 0.12185 0.0284 0.71226 0.0
H172 H 0.32488 0.03351 0.46603 0.0
C173 C 0.26468 0.98658 0.29697 0.0
O174 O 0.34173 0.97038 0.3218 0.0
N175 N 0.05203 0.92491 0.45117 0.0
C176 C 0.00727 0.88595 0.50707 0.0
C177 C -0.0413 0.85661 0.44927 0.0
C178 C 0.03263 0.91807 0.36011 0.0
N179 N -0.02462 0.87691 0.35762 0.0
C180 C 0.1802 0.8989 0.62898 0.0
C181 C 0.23351 0.8287 0.47517 0.0
C182 C 0.20134 0.80699 0.56862 0.0
C183 C 0.18192 0.84387 0.64783 0.0
C184 C 0.23005 0.88352 0.45967 0.0
N185 N 0.19643 0.9175 0.5344 0.0
H186 H 0.15359 0.92552 0.68857 0.0
H187 H 0.23937 0.89615 0.38397 0.0
H188 H 0.00562 0.88122 0.58599 0.0
H189 H 0.05075 0.946 0.30001 0.0
O190 O 0.02733 0.98192 0.61397 0.0
O191 O 0.03906 0.03298 0.48105 0.0
O192 O 0.19344 0.98881 0.3618 0.0
C193 C -0.0092 1.01755 0.56208 0.0
H194 H 0.3924 0.07024 0.6218 0.0
H195 H 0.90775 0.82695 0.47422 0.0
H196 H 0.25498 0.8044 0.41086 0.0
H197 H 0.16231 0.83161 0.72357 0.0
Co198 Co 0.12497 0.07668 1.00124 0.0
C199 C 0.18394 1.0164 0.16466 0.0
C200 C 0.28698 1.01408 1.03842 0.0
C201 C 0.32282 0.99569 0.12033 0.0
N202 N 0.19932 1.02717 1.06594 0.0
N203 N 0.25787 0.9979 0.19998 0.0
H204 H 0.12181 1.02604 0.21228 0.0
H205 H 0.32475 1.02068 0.96598 0.0
C206 C 0.26481 0.06774 0.79699 0.0
O207 O 0.34191 0.08385 0.82185 0.0
N208 N 0.05215 0.12947 0.95113 0.0
C209 C 0.00723 0.16836 1.00703 0.0
C210 C -0.04108 0.19774 0.94907 0.0
C211 C 0.03315 0.13644 0.85995 0.0
N212 N -0.02404 0.17761 0.85729 0.0
C213 C 0.17993 0.15547 0.12913 0.0
C214 C 0.23376 0.22564 0.97546 0.0
C215 C 0.20125 0.24736 1.06883 0.0
C216 C 0.18154 0.2105 0.14799 0.0
C217 C 0.2303 0.17081 0.95994 0.0
N218 N 0.19644 0.13684 1.03457 0.0
H219 H 0.15314 0.12886 0.18866 0.0
H220 H 0.23991 0.15816 0.88423 0.0
H221 H 0.00527 0.17301 0.08601 0.0
H222 H 0.05146 0.10856 0.79979 0.0
O223 O 0.02731 0.07244 0.11391 0.0
O224 O 0.03902 1.0214 0.98093 0.0
O225 O 0.19356 0.06557 0.86183 0.0
C226 C -0.00924 0.03683 1.06196 0.0
H227 H 0.39223 0.98396 0.12174 0.0
H228 H 0.90785 0.22734 0.97398 0.0
H229 H 0.25552 0.24994 0.91124 0.0
H230 H 0.16161 0.22276 0.22369 0.0
Co231 Co 0.76308 0.07671 0.64962 0.0
C232 C 0.70405 1.01643 0.48619 0.0
C233 C 0.60102 1.01411 0.61244 0.0
C234 C 0.56515 0.99574 0.53051 0.0
N235 N 0.68869 0.02719 0.58491 0.0
N236 N 0.63009 0.99795 0.45085 0.0
H237 H 0.76617 1.02607 0.43856 0.0
H238 H 0.56327 1.02072 0.68489 0.0
C239 C 0.62328 0.06781 0.85385 0.0
O240 O 0.5462 0.08393 0.82899 0.0
N241 N 0.83596 0.12951 0.69969 0.0
C242 C 0.88074 0.16845 0.64377 0.0
C243 C 0.92932 0.19779 0.70156 0.0
C244 C 0.85536 0.13636 0.79075 0.0
N245 N 0.91262 0.17751 0.79322 0.0
C246 C 0.70802 0.15545 0.52175 0.0
C247 C 0.65437 0.22567 0.67544 0.0
C248 C 0.68676 0.24736 0.58203 0.0
C249 C 0.70637 0.21047 0.50287 0.0
C250 C 0.65785 0.17085 0.69099 0.0
N251 N 0.69162 0.13686 0.61633 0.0
H252 H 0.73474 0.12883 0.46221 0.0
H253 H 0.64835 0.15823 0.7667 0.0
H254 H 0.88243 0.17317 0.56484 0.0
H255 H 0.83724 0.10843 0.85086 0.0
O256 O 0.86074 0.07245 0.53694 0.0
O257 O 0.84899 1.02143 0.66991 0.0
O258 O 0.69454 0.06562 0.78903 0.0
C259 C 0.89726 0.03684 0.58887 0.0
H260 H 0.49573 0.98402 0.52911 0.0
H261 H -0.01971 0.22745 0.67659 0.0
H262 H 0.63268 0.24999 0.73967 0.0
H263 H 0.72621 0.22272 0.42715 0.0
loop_
_geom_bond_atom_site_label_1
_geom_bond_atom_site_label_2
_geom_bond_distance
_geom_bond_site_symmetry_2
_ccdc_geom_bond_type
Co0 N4 2.148 1_554 S
Co0 N10 2.128 . S
Co0 N20 2.194 . S
Co0 O25 2.351 1_554 S
Co0 O26 2.155 . S
Co0 O27 2.096 . S
C1 N4 1.301 . S
C1 N5 1.328 . S
C1 H6 0.930 . S
C2 C3 1.333 1_554 S
C2 N4 1.317 1_554 S
C2 H7 0.930 . S
C3 C2 1.333 1_556 S
C3 N5 1.350 . S
C3 H29 0.931 . S
N4 Co0 2.148 1_556 S
N4 C1 1.301 . S
N4 C2 1.317 1_556 S
N5 C1 1.328 . S
N5 C3 1.350 . S
H6 C1 0.930 . S
H7 C2 0.930 . S
C8 O9 1.224 . S
C8 O27 1.247 . S
O9 C8 1.224 . S
N10 Co0 2.128 . S
N10 C11 1.355 . S
N10 C13 1.311 . S
C11 N10 1.355 . S
C11 C12 1.363 . S
C11 H23 0.929 . S
C12 C11 1.363 . S
C12 N14 1.375 . S
C12 H30 0.931 . S
C13 N10 1.311 . S
C13 N14 1.347 . S
C13 H24 0.929 . S
N14 C12 1.375 . S
N14 C13 1.347 . S
C15 C18 1.365 . S
C15 N20 1.328 1_556 S
C15 H21 0.929 . S
C16 C17 1.362 . S
C16 C19 1.378 . S
C16 H31 0.929 . S
C17 C16 1.362 . S
C17 C18 1.366 1_554 S
C18 C15 1.365 . S
C18 C17 1.366 1_556 S
C18 H32 0.930 . S
C19 C16 1.378 . S
C19 N20 1.315 . S
C19 H22 0.930 . S
N20 Co0 2.194 . S
N20 C15 1.328 1_554 S
N20 C19 1.315 . S
H21 C15 0.929 . S
H22 C19 0.930 . S
H23 C11 0.929 . S
H24 C13 0.929 . S
O25 Co0 2.351 1_556 S
O25 C28 1.244 . S
O26 Co0 2.155 . S
O26 C28 1.240 1_554 S
O27 Co0 2.096 . S
O27 C8 1.247 . S
C28 O25 1.244 . S
C28 O26 1.240 1_556 S
H29 C3 0.931 . S
H30 C12 0.931 . S
H31 C16 0.929 . S
H32 C18 0.930 . S
Co33 N37 2.148 . S
Co33 N43 2.128 . S
Co33 N53 2.194 . S
Co33 O58 2.351 . S
Co33 O59 2.155 . S
Co33 O60 2.096 . S
C34 N37 1.301 . S
C34 N38 1.328 . S
C34 H39 0.930 . S
C35 C36 1.333 . S
C35 N37 1.317 . S
C35 H40 0.930 . S
C36 C35 1.333 . S
C36 N38 1.350 . S
C36 H62 0.931 . S
N37 Co33 2.148 . S
N37 C34 1.301 . S
N37 C35 1.317 . S
N38 C34 1.328 . S
N38 C36 1.350 . S
H39 C34 0.930 . S
H40 C35 0.930 . S
C41 O42 1.224 . S
C41 O60 1.247 . S
O42 C41 1.224 . S
N43 Co33 2.128 . S
N43 C44 1.355 . S
N43 C46 1.311 . S
C44 N43 1.355 . S
C44 C45 1.363 . S
C44 H56 0.929 . S
C45 C44 1.363 . S
C45 N47 1.375 . S
C45 H63 0.931 . S
C46 N43 1.311 . S
C46 N47 1.347 . S
C46 H57 0.929 . S
N47 C45 1.375 . S
N47 C46 1.347 . S
C48 C51 1.365 . S
C48 N53 1.328 . S
C48 H54 0.929 . S
C49 C50 1.362 . S
C49 C52 1.378 . S
C49 H64 0.929 . S
C50 C49 1.362 . S
C50 C51 1.366 . S
C51 C48 1.365 . S
C51 C50 1.366 . S
C51 H65 0.930 . S
C52 C49 1.378 . S
C52 N53 1.315 . S
C52 H55 0.930 . S
N53 Co33 2.194 . S
N53 C48 1.328 . S
N53 C52 1.315 . S
H54 C48 0.929 . S
H55 C52 0.930 . S
H56 C44 0.929 . S
H57 C46 0.929 . S
O58 Co33 2.351 . S
O58 C61 1.244 . S
O59 Co33 2.155 . S
O59 C61 1.240 . S
O60 Co33 2.096 . S
O60 C41 1.247 . S
C61 O58 1.244 . S
C61 O59 1.240 . S
H62 C36 0.931 . S
H63 C45 0.931 . S
H64 C49 0.929 . S
H65 C51 0.930 . S
Co66 N70 2.148 1_556 S
Co66 N76 2.128 . S
Co66 N86 2.194 . S
Co66 O91 2.351 1_556 S
Co66 O92 2.155 . S
Co66 O93 2.096 . S
C67 N70 1.301 . S
C67 N71 1.328 . S
C67 H72 0.930 . S
C68 C69 1.333 1_556 S
C68 N70 1.317 1_556 S
C68 H73 0.930 . S
C69 C68 1.333 1_554 S
C69 N71 1.350 . S
C69 H95 0.931 . S
N70 Co66 2.148 1_554 S
N70 C67 1.301 . S
N70 C68 1.317 1_554 S
N71 C67 1.328 . S
N71 C69 1.350 . S
H72 C67 0.930 . S
H73 C68 0.930 . S
C74 O75 1.224 . S
C74 O93 1.247 . S
O75 C74 1.224 . S
N76 Co66 2.128 . S
N76 C77 1.355 . S
N76 C79 1.311 . S
C77 N76 1.355 . S
C77 C78 1.363 . S
C77 H89 0.929 . S
C78 C77 1.363 . S
C78 N80 1.375 . S
C78 H96 0.931 . S
C79 N76 1.311 . S
C79 N80 1.347 . S
C79 H90 0.929 . S
N80 C78 1.375 . S
N80 C79 1.347 . S
C81 C84 1.365 . S
C81 N86 1.328 1_554 S
C81 H87 0.929 . S
C82 C83 1.362 . S
C82 C85 1.378 . S
C82 H97 0.929 . S
C83 C82 1.362 . S
C83 C84 1.366 1_556 S
C84 C81 1.365 . S
C84 C83 1.366 1_554 S
C84 H98 0.930 . S
C85 C82 1.378 . S
C85 N86 1.315 . S
C85 H88 0.930 . S
N86 Co66 2.194 . S
N86 C81 1.328 1_556 S
N86 C85 1.315 . S
H87 C81 0.929 . S
H88 C85 0.930 . S
H89 C77 0.929 . S
H90 C79 0.929 . S
O91 Co66 2.351 1_554 S
O91 C94 1.244 . S
O92 Co66 2.155 . S
O92 C94 1.240 1_556 S
O93 Co66 2.096 . S
O93 C74 1.247 . S
C94 O91 1.244 . S
C94 O92 1.240 1_554 S
H95 C69 0.931 . S
H96 C78 0.931 . S
H97 C82 0.929 . S
H98 C84 0.930 . S
Co99 N103 2.148 . S
Co99 N109 2.128 . S
Co99 N119 2.194 . S
Co99 O124 2.351 . S
Co99 O125 2.155 . S
Co99 O126 2.096 . S
C100 N103 1.301 . S
C100 N104 1.328 . S
C100 H105 0.930 . S
C101 C102 1.333 . S
C101 N103 1.317 . S
C101 H106 0.930 . S
C102 C101 1.333 . S
C102 N104 1.350 . S
C102 H128 0.931 . S
N103 Co99 2.148 . S
N103 C100 1.301 . S
N103 C101 1.317 . S
N104 C100 1.328 . S
N104 C102 1.350 . S
H105 C100 0.930 . S
H106 C101 0.930 . S
C107 O108 1.224 . S
C107 O126 1.247 . S
O108 C107 1.224 . S
N109 Co99 2.128 . S
N109 C110 1.355 . S
N109 C112 1.311 . S
C110 N109 1.355 . S
C110 C111 1.363 . S
C110 H122 0.929 . S
C111 C110 1.363 . S
C111 N113 1.375 . S
C111 H129 0.931 . S
C112 N109 1.311 . S
C112 N113 1.347 . S
C112 H123 0.929 . S
N113 C111 1.375 . S
N113 C112 1.347 . S
C114 C117 1.365 . S
C114 N119 1.328 . S
C114 H120 0.929 . S
C115 C116 1.362 . S
C115 C118 1.378 . S
C115 H130 0.929 . S
C116 C115 1.362 . S
C116 C117 1.366 . S
C117 C114 1.365 . S
C117 C116 1.366 . S
C117 H131 0.930 . S
C118 C115 1.378 . S
C118 N119 1.315 . S
C118 H121 0.930 . S
N119 Co99 2.194 . S
N119 C114 1.328 . S
N119 C118 1.315 . S
H120 C114 0.929 . S
H121 C118 0.930 . S
H122 C110 0.929 . S
H123 C112 0.929 . S
O124 Co99 2.351 . S
O124 C127 1.244 . S
O125 Co99 2.155 . S
O125 C127 1.240 . S
O126 Co99 2.096 . S
O126 C107 1.247 . S
C127 O124 1.244 . S
C127 O125 1.240 . S
H128 C102 0.931 . S
H129 C111 0.931 . S
H130 C115 0.929 . S
H131 C117 0.930 . S
Co132 N136 2.148 1_554 S
Co132 N142 2.128 . S
Co132 N152 2.194 . S
Co132 O157 2.351 1_554 S
Co132 O158 2.155 1_565 S
Co132 O159 2.096 1_565 S
C133 N136 1.301 . S
C133 N137 1.328 1_565 S
C133 H138 0.930 . S
C134 C135 1.333 1_554 S
C134 N136 1.317 1_544 S
C134 H139 0.930 . S
C135 C134 1.333 1_556 S
C135 N137 1.350 . S
C135 H161 0.931 . S
N136 Co132 2.148 1_556 S
N136 C133 1.301 . S
N136 C134 1.317 1_566 S
N137 C133 1.328 1_545 S
N137 C135 1.350 . S
H138 C133 0.930 . S
H139 C134 0.930 . S
C140 O141 1.224 . S
C140 O159 1.247 1_565 S
O141 C140 1.224 . S
N142 Co132 2.128 . S
N142 C143 1.355 . S
N142 C145 1.311 . S
C143 N142 1.355 . S
C143 C144 1.363 . S
C143 H155 0.929 . S
C144 C143 1.363 . S
C144 N146 1.375 . S
C144 H162 0.931 1_655 S
C145 N142 1.311 . S
C145 N146 1.347 . S
C145 H156 0.929 . S
N146 C144 1.375 . S
N146 C145 1.347 . S
C147 C150 1.365 . S
C147 N152 1.328 1_556 S
C147 H153 0.929 . S
C148 C149 1.362 . S
C148 C151 1.378 . S
C148 H163 0.929 . S
C149 C148 1.362 . S
C149 C150 1.366 1_554 S
C150 C147 1.365 . S
C150 C149 1.366 1_556 S
C150 H164 0.930 . S
C151 C148 1.378 . S
C151 N152 1.315 . S
C151 H154 0.930 . S
N152 Co132 2.194 . S
N152 C147 1.328 1_554 S
N152 C151 1.315 . S
H153 C147 0.929 . S
H154 C151 0.930 . S
H155 C143 0.929 . S
H156 C145 0.929 . S
O157 Co132 2.351 1_556 S
O157 C160 1.244 . S
O158 Co132 2.155 1_545 S
O158 C160 1.240 1_544 S
O159 Co132 2.096 1_545 S
O159 C140 1.247 1_545 S
C160 O157 1.244 . S
C160 O158 1.240 1_566 S
H161 C135 0.931 . S
H162 C144 0.931 1_455 S
H163 C148 0.929 . S
H164 C150 0.930 . S
Co165 N169 2.148 . S
Co165 N175 2.128 . S
Co165 N185 2.194 . S
Co165 O190 2.351 . S
Co165 O191 2.155 1_565 S
Co165 O192 2.096 1_565 S
C166 N169 1.301 . S
C166 N170 1.328 1_565 S
C166 H171 0.930 . S
C167 C168 1.333 . S
C167 N169 1.317 1_545 S
C167 H172 0.930 . S
C168 C167 1.333 . S
C168 N170 1.350 . S
C168 H194 0.931 . S
N169 Co165 2.148 . S
N169 C166 1.301 . S
N169 C167 1.317 1_565 S
N170 C166 1.328 1_545 S
N170 C168 1.350 . S
H171 C166 0.930 . S
H172 C167 0.930 . S
C173 O174 1.224 . S
C173 O192 1.247 1_565 S
O174 C173 1.224 . S
N175 Co165 2.128 . S
N175 C176 1.355 . S
N175 C178 1.311 . S
C176 N175 1.355 . S
C176 C177 1.363 . S
C176 H188 0.929 . S
C177 C176 1.363 . S
C177 N179 1.375 . S
C177 H195 0.931 1_455 S
C178 N175 1.311 . S
C178 N179 1.347 . S
C178 H189 0.929 . S
N179 C177 1.375 . S
N179 C178 1.347 . S
C180 C183 1.365 . S
C180 N185 1.328 . S
C180 H186 0.929 . S
C181 C182 1.362 . S
C181 C184 1.378 . S
C181 H196 0.929 . S
C182 C181 1.362 . S
C182 C183 1.366 . S
C183 C180 1.365 . S
C183 C182 1.366 . S
C183 H197 0.930 . S
C184 C181 1.378 . S
C184 N185 1.315 . S
C184 H187 0.930 . S
N185 Co165 2.194 . S
N185 C180 1.328 . S
N185 C184 1.315 . S
H186 C180 0.929 . S
H187 C184 0.930 . S
H188 C176 0.929 . S
H189 C178 0.929 . S
O190 Co165 2.351 . S
O190 C193 1.244 . S
O191 Co165 2.155 1_545 S
O191 C193 1.240 1_545 S
O192 Co165 2.096 1_545 S
O192 C173 1.247 1_545 S
C193 O190 1.244 . S
C193 O191 1.240 1_565 S
H194 C168 0.931 . S
H195 C177 0.931 1_655 S
H196 C181 0.929 . S
H197 C183 0.930 . S
Co198 N202 2.148 1_556 S
Co198 N208 2.128 . S
Co198 N218 2.194 . S
Co198 O223 2.351 1_556 S
Co198 O224 2.155 1_545 S
Co198 O225 2.096 1_545 S
C199 N202 1.301 . S
C199 N203 1.328 1_545 S
C199 H204 0.930 . S
C200 C201 1.333 1_556 S
C200 N202 1.317 1_566 S
C200 H205 0.930 . S
C201 C200 1.333 1_554 S
C201 N203 1.350 . S
C201 H227 0.931 . S
N202 Co198 2.148 1_554 S
N202 C199 1.301 . S
N202 C200 1.317 1_544 S
N203 C199 1.328 1_565 S
N203 C201 1.350 . S
H204 C199 0.930 . S
H205 C200 0.930 . S
C206 O207 1.224 . S
C206 O225 1.247 1_545 S
O207 C206 1.224 . S
N208 Co198 2.128 . S
N208 C209 1.355 . S
N208 C211 1.311 . S
C209 N208 1.355 . S
C209 C210 1.363 . S
C209 H221 0.929 . S
C210 C209 1.363 . S
C210 N212 1.375 . S
C210 H228 0.931 1_455 S
C211 N208 1.311 . S
C211 N212 1.347 . S
C211 H222 0.929 . S
N212 C210 1.375 . S
N212 C211 1.347 . S
C213 C216 1.365 . S
C213 N218 1.328 1_554 S
C213 H219 0.929 . S
C214 C215 1.362 . S
C214 C217 1.378 . S
C214 H229 0.929 . S
C215 C214 1.362 . S
C215 C216 1.366 1_556 S
C216 C213 1.365 . S
C216 C215 1.366 1_554 S
C216 H230 0.930 . S
C217 C214 1.378 . S
C217 N218 1.315 . S
C217 H220 0.930 . S
N218 Co198 2.194 . S
N218 C213 1.328 1_556 S
N218 C217 1.315 . S
H219 C213 0.929 . S
H220 C217 0.930 . S
H221 C209 0.929 . S
H222 C211 0.929 . S
O223 Co198 2.351 1_554 S
O223 C226 1.244 . S
O224 Co198 2.155 1_565 S
O224 C226 1.240 1_566 S
O225 Co198 2.096 1_565 S
O225 C206 1.247 1_565 S
C226 O223 1.244 . S
C226 O224 1.240 1_544 S
H227 C201 0.931 . S
H228 C210 0.931 1_655 S
H229 C214 0.929 . S
H230 C216 0.930 . S
Co231 N235 2.148 . S
Co231 N241 2.128 . S
Co231 N251 2.194 . S
Co231 O256 2.351 . S
Co231 O257 2.155 1_545 S
Co231 O258 2.096 1_545 S
C232 N235 1.301 . S
C232 N236 1.328 1_545 S
C232 H237 0.930 . S
C233 C234 1.333 . S
C233 N235 1.317 1_565 S
C233 H238 0.930 . S
C234 C233 1.333 . S
C234 N236 1.350 . S
C234 H260 0.931 . S
N235 Co231 2.148 . S
N235 C232 1.301 . S
N235 C233 1.317 1_545 S
N236 C232 1.328 1_565 S
N236 C234 1.350 . S
H237 C232 0.930 . S
H238 C233 0.930 . S
C239 O240 1.224 . S
C239 O258 1.247 1_545 S
O240 C239 1.224 . S
N241 Co231 2.128 . S
N241 C242 1.355 . S
N241 C244 1.311 . S
C242 N241 1.355 . S
C242 C243 1.363 . S
C242 H254 0.929 . S
C243 C242 1.363 . S
C243 N245 1.375 . S
C243 H261 0.931 1_655 S
C244 N241 1.311 . S
C244 N245 1.347 . S
C244 H255 0.929 . S
N245 C243 1.375 . S
N245 C244 1.347 . S
C246 C249 1.365 . S
C246 N251 1.328 . S
C246 H252 0.929 . S
C247 C248 1.362 . S
C247 C250 1.378 . S
C247 H262 0.929 . S
C248 C247 1.362 . S
C248 C249 1.366 . S
C249 C246 1.365 . S
C249 C248 1.366 . S
C249 H263 0.930 . S
C250 C247 1.378 . S
C250 N251 1.315 . S
C250 H253 0.930 . S
N251 Co231 2.194 . S
N251 C246 1.328 . S
N251 C250 1.315 . S
H252 C246 0.929 . S
H253 C250 0.930 . S
H254 C242 0.929 . S
H255 C244 0.929 . S
O256 Co231 2.351 . S
O256 C259 1.244 . S
O257 Co231 2.155 1_565 S
O257 C259 1.240 1_565 S
O258 Co231 2.096 1_565 S
O258 C239 1.247 1_565 S
C259 O256 1.244 . S
C259 O257 1.240 1_545 S
H260 C234 0.931 . S
H261 C243 0.931 1_455 S
H262 C247 0.929 . S
H263 C249 0.930 . S
C107 N5 2.522 . S
N38 C74 2.522 . S
C41 N71 2.522 . S
C8 N104 2.522 . S
N137 C239 2.522 . S
C206 N170 2.522 . S
N203 C173 2.522 . S
N236 C140 2.522 . S
C28 C94 1.823 1_556 S
C61 C127 1.823 . S
C226 C160 1.823 1_444 S
C259 C193 1.823 1_645 S
C17 C215 2.017 1_554 S
C50 C248 2.017 . S
C149 C83 2.017 1_554 S
C182 C116 2.017 . S
N47 N14 1.185 . S
N113 N80 1.185 . S
N179 N146 1.185 1_455 S
N212 N245 1.185 1_455 S
