# Generated by pormake.
# Topology dmp, (4)-cn, num edge types: 1
# Building blocks:
#     Node 0, Type 0, BuildingBlock: KUFVIS_clean_sbu_0, # of connection points: 4
#     Node 1, Type 0, BuildingBlock: KUFVIS_clean_sbu_0, # of connection points: 4
#     Node 2, Type 0, BuildingBlock: KUFVIS_clean_sbu_0, # of connection points: 4
#     Node 3, Type 0, BuildingBlock: KUFVIS_clean_sbu_0, # of connection points: 4
#     Edge 4, Type (0, 0), BuildingBlock: KIFKEQ_clean_linker_1, # of connection points: 2
#     Edge 5, Type (0, 0), BuildingBlock: KIFKEQ_clean_linker_1, # of connection points: 2
#     Edge 6, Type (0, 0), BuildingBlock: KIFKEQ_clean_linker_1, # of connection points: 2
#     Edge 7, Type (0, 0), BuildingBlock: KIFKEQ_clean_linker_1, # of connection points: 2
#     Edge 8, Type (0, 0), BuildingBlock: KIFKEQ_clean_linker_1, # of connection points: 2
#     Edge 9, Type (0, 0), BuildingBlock: KIFKEQ_clean_linker_1, # of connection points: 2
#     Edge 10, Type (0, 0), BuildingBlock: KIFKEQ_clean_linker_1, # of connection points: 2
#     Edge 11, Type (0, 0), BuildingBlock: KIFKEQ_clean_linker_1, # of connection points: 2
# Relax obj value: 0.123
# Max RMSD: 0.219
# Mean RMSD: 0.219
data_MOF--net-dmp--node1-KUFVIS_clean_sbu_0--edge1-KIFKEQ_clean_linker_1
_symmetry_space_group_name_H-M    P1
_symmetry_Int_Tables_number       1
_symmetry_cell_setting            triclinic
loop_
_symmetry_equiv_pos_as_xyz
'x, y, z'
_cell_length_a     39.852807
_cell_length_b     18.841036
_cell_length_c     15.904848
_cell_angle_alpha  90.047648
_cell_angle_beta   89.927345
_cell_angle_gamma 94.267436
loop_
_atom_site_label
_atom_site_type_symbol
_atom_site_fract_x
_atom_site_fract_y
_atom_site_fract_z
_atom_type_partial_charge
Mn0 Mn 0.10487 0.23895 0.31212 0.0
Mn1 Mn 0.16043 0.20368 0.15959 0.0
C2 C 0.15365 0.30974 0.29759 0.0
C3 C 0.05901 0.30092 0.35354 0.0
C4 C 0.15498 0.12457 0.32584 0.0
O5 O 0.07755 0.16911 0.23681 0.0
O6 O 0.11561 0.15588 0.13414 0.0
C7 C 0.12979 0.28126 0.02097 0.0
N8 N 0.15694 0.27016 0.06984 0.0
C9 C 0.19105 0.36114 0.99672 0.0
C10 C 0.16353 0.37311 0.94514 0.0
C11 C 0.13275 0.33309 0.95746 0.0
C12 C 0.18663 0.30858 0.05877 0.0
H13 H 0.10601 0.25098 0.03057 0.0
C14 C 0.08626 0.14387 0.16618 0.0
O15 O 0.06714 0.24525 0.39514 0.0
O16 O 0.07552 0.31573 0.285 0.0
N17 N 0.20504 0.24703 0.17472 0.0
C18 C 0.22889 0.23037 0.23128 0.0
C19 C 0.26097 0.26659 0.22847 0.0
C20 C 0.26837 0.31881 0.16686 0.0
C21 C 0.24369 0.33392 0.10812 0.0
C22 C 0.21223 0.29575 0.11368 0.0
H23 H 0.22345 0.19009 0.27852 0.0
O24 O 0.13674 0.30982 0.36709 0.0
O25 O 0.14098 0.27003 0.23692 0.0
O26 O 0.13189 0.15887 0.35953 0.0
O27 O 0.16618 0.13533 0.25121 0.0
C28 C 0.24888 0.38621 0.04518 0.0
C29 C 0.22253 0.40002 0.98978 0.0
H30 H 0.16568 0.41327 0.89632 0.0
H31 H 0.11134 0.34231 0.91822 0.0
H32 H 0.27992 0.25438 0.27381 0.0
H33 H 0.29304 0.34707 0.16538 0.0
H34 H 0.27291 0.41667 0.03935 0.0
H35 H 0.22669 0.44099 0.94237 0.0
Mn36 Mn 0.3916 0.75035 0.31401 0.0
Mn37 Mn 0.33693 0.78972 0.16148 0.0
C38 C 0.34196 0.68286 0.29887 0.0
C39 C 0.43628 0.68549 0.35637 0.0
C40 C 0.34264 0.8674 0.32838 0.0
O41 O 0.42018 0.81801 0.23889 0.0
O42 O 0.38209 0.83708 0.13842 0.0
C43 C 0.36797 0.71314 0.0223 0.0
N44 N 0.34063 0.72417 0.0707 0.0
C45 C 0.30669 0.6339 0.99598 0.0
C46 C 0.33442 0.62195 0.94494 0.0
C47 C 0.36521 0.66168 0.95826 0.0
C48 C 0.31091 0.68611 0.05856 0.0
H49 H 0.39174 0.74322 0.03266 0.0
C50 C 0.41163 0.84624 0.16997 0.0
O51 O 0.42883 0.74195 0.39757 0.0
O52 O 0.4198 0.67129 0.28769 0.0
N53 N 0.29203 0.74734 0.17444 0.0
C54 C 0.26788 0.76431 0.23021 0.0
C55 C 0.2357 0.72864 0.22611 0.0
C56 C 0.22853 0.67663 0.16407 0.0
C57 C 0.25352 0.66129 0.10609 0.0
C58 C 0.28505 0.69901 0.11283 0.0
H59 H 0.27317 0.80436 0.27786 0.0
O60 O 0.35858 0.6818 0.36866 0.0
O61 O 0.35538 0.72164 0.23824 0.0
O62 O 0.36572 0.8326 0.36118 0.0
O63 O 0.33107 0.85689 0.25415 0.0
C64 C 0.24857 0.60917 0.0428 0.0
C65 C 0.27517 0.59531 0.988 0.0
H66 H 0.33244 0.58206 0.89575 0.0
H67 H 0.38678 0.6525 0.91941 0.0
H68 H 0.21651 0.74106 0.27084 0.0
H69 H 0.20379 0.64872 0.16166 0.0
H70 H 0.22453 0.5789 0.03626 0.0
H71 H 0.27119 0.55455 0.94025 0.0
Mn72 Mn 0.89263 0.74979 0.68411 0.0
Mn73 Mn 0.8405 0.78644 0.8441 0.0
C74 C 0.84358 0.68097 0.70404 0.0
C75 C 0.93702 0.68859 0.63262 0.0
C76 C 0.84325 0.86645 0.6789 0.0
O77 O 0.92226 0.8174 0.75726 0.0
O78 O 0.88598 0.83322 0.86333 0.0
C79 C 0.87347 0.70751 0.97783 0.0
N80 N 0.84544 0.71958 0.93273 0.0
C81 C 0.81222 0.62975 0.01001 0.0
C82 C 0.84068 0.61669 0.05768 0.0
C83 C 0.87145 0.65565 0.04138 0.0
C84 C 0.81575 0.68218 0.94763 0.0
H85 H 0.89719 0.73713 0.96525 0.0
C86 C 0.91482 0.84392 0.82821 0.0
O87 O 0.92771 0.74508 0.59486 0.0
O88 O 0.92243 0.67155 0.70331 0.0
N89 N 0.79535 0.74476 0.83492 0.0
C90 C 0.77038 0.76305 0.78246 0.0
C91 C 0.73806 0.7285 0.78994 0.0
C92 C 0.7316 0.67631 0.85205 0.0
C93 C 0.75746 0.65957 0.90661 0.0
C94 C 0.78911 0.6962 0.89658 0.0
H95 H 0.77509 0.80339 0.73492 0.0
O96 O 0.85896 0.68094 0.63232 0.0
O97 O 0.85791 0.71931 0.76385 0.0
O98 O 0.86542 0.83163 0.6423 0.0
O99 O 0.83322 0.85533 0.75434 0.0
C100 C 0.75322 0.60726 0.96975 0.0
C101 C 0.7806 0.59219 0.02123 0.0
H102 H 0.83926 0.57658 0.10657 0.0
H103 H 0.89356 0.64563 0.07765 0.0
H104 H 0.7182 0.74201 0.74786 0.0
H105 H 0.7067 0.64944 0.85723 0.0
H106 H 0.72909 0.57782 0.97869 0.0
H107 H 0.77712 0.55134 0.06898 0.0
Mn108 Mn 0.60375 0.24364 0.68958 0.0
Mn109 Mn 0.6564 0.21388 0.85032 0.0
C110 C 0.65154 0.31695 0.70817 0.0
C111 C 0.55795 0.3 0.63814 0.0
C112 C 0.65476 0.13072 0.68676 0.0
O113 O 0.57559 0.17395 0.76359 0.0
O114 O 0.61123 0.16654 0.8726 0.0
C115 C 0.62334 0.29519 0.98214 0.0
N116 N 0.65132 0.28278 0.9368 0.0
C117 C 0.68432 0.37493 0.01088 0.0
C118 C 0.65592 0.38832 0.05882 0.0
C119 C 0.62528 0.34838 0.04422 0.0
C120 C 0.68087 0.32117 0.94999 0.0
H121 H 0.59971 0.26482 0.97086 0.0
C122 C 0.5828 0.15191 0.83685 0.0
O123 O 0.56839 0.2443 0.60071 0.0
O124 O 0.57229 0.31881 0.70852 0.0
N125 N 0.70123 0.25687 0.83838 0.0
C126 C 0.72609 0.23846 0.78547 0.0
C127 C 0.75823 0.27407 0.79112 0.0
C128 C 0.76466 0.32746 0.85188 0.0
C129 C 0.7389 0.34449 0.90681 0.0
C130 C 0.70742 0.30683 0.89859 0.0
H131 H 0.72144 0.19717 0.73901 0.0
O132 O 0.63601 0.315 0.6367 0.0
O133 O 0.638 0.278 0.76847 0.0
O134 O 0.63267 0.1645 0.64865 0.0
O135 O 0.66397 0.14267 0.76271 0.0
C136 C 0.74309 0.39804 0.96861 0.0
C137 C 0.71579 0.41342 0.02039 0.0
H138 H 0.65728 0.42944 0.10659 0.0
H139 H 0.60321 0.35866 0.08067 0.0
H140 H 0.77801 0.2604 0.74872 0.0
H141 H 0.78944 0.35504 0.85572 0.0
H142 H 0.76711 0.42819 0.97627 0.0
H143 H 0.71922 0.45523 0.06705 0.0
H144 H 0.33829 0.01 0.3163 0.0
H145 H 0.2996 0.82298 0.4509 0.0
H146 H 0.28921 0.07173 0.35927 0.0
H147 H 0.24964 0.88356 0.4908 0.0
H148 H 0.16051 0.98248 0.31127 0.0
H149 H 0.2094 0.92108 0.35602 0.0
H150 H 0.24724 0.1087 0.49139 0.0
H151 H 0.19741 0.16891 0.44969 0.0
C152 C 0.32022 0.98367 0.3591 0.0
C153 C 0.32291 0.91242 0.38167 0.0
C154 C 0.29203 0.01871 0.38332 0.0
C155 C 0.26569 0.98216 0.42817 0.0
C156 C 0.26979 0.91296 0.457 0.0
C157 C 0.29849 0.87866 0.43486 0.0
C158 C 0.17817 0.00876 0.35505 0.0
C159 C 0.17501 0.07971 0.3784 0.0
C160 C 0.20623 0.97391 0.38035 0.0
C161 C 0.23202 0.01037 0.42708 0.0
C162 C 0.2275 0.07935 0.45619 0.0
C163 C 0.19889 0.11344 0.43297 0.0
H164 H 0.16292 0.41076 0.17738 0.0
H165 H 0.20684 0.32681 0.40076 0.0
H166 H 0.20931 0.50418 0.16958 0.0
H167 H 0.25254 0.42122 0.39443 0.0
H168 H 0.2882 0.66802 0.40087 0.0
H169 H 0.24194 0.57483 0.3939 0.0
H170 H 0.28548 0.48998 0.17013 0.0
H171 H 0.33234 0.58215 0.17844 0.0
C172 C 0.18297 0.41165 0.22338 0.0
C173 C 0.18251 0.36074 0.28764 0.0
C174 C 0.2091 0.46494 0.21932 0.0
C175 C 0.23417 0.46857 0.28107 0.0
C176 C 0.23336 0.4184 0.34607 0.0
C177 C 0.2075 0.36481 0.34955 0.0
C178 C 0.28745 0.62994 0.34966 0.0
C179 C 0.3127 0.63305 0.28826 0.0
C180 C 0.26126 0.57708 0.34578 0.0
C181 C 0.2604 0.52668 0.28093 0.0
C182 C 0.28569 0.52947 0.21962 0.0
C183 C 0.31211 0.58203 0.22403 0.0
H184 H 0.6616 0.98994 0.71013 0.0
H185 H 0.69786 0.17158 0.5625 0.0
H186 H 0.71024 0.92688 0.66633 0.0
H187 H 0.74746 0.10979 0.52179 0.0
H188 H 0.79852 0.82456 0.55923 0.0
H189 H 0.74863 0.887 0.52378 0.0
H190 H 0.79021 0.07245 0.65734 0.0
H191 H 0.83926 0.00881 0.69603 0.0
C192 C 0.67915 0.01482 0.66503 0.0
C193 C 0.67582 0.08481 0.63832 0.0
C194 C 0.70699 0.97903 0.64019 0.0
C195 C 0.73242 0.01366 0.59058 0.0
C196 C 0.72793 0.08184 0.55912 0.0
C197 C 0.6995 0.11681 0.58187 0.0
C198 C 0.7978 0.88003 0.57682 0.0
C199 C 0.82281 0.91253 0.62922 0.0
C200 C 0.76917 0.91537 0.55717 0.0
C201 C 0.76577 0.98436 0.58769 0.0
C202 C 0.79256 0.01961 0.63207 0.0
C203 C 0.82068 0.9835 0.65385 0.0
H204 H 0.83432 0.57872 0.82296 0.0
H205 H 0.78838 0.67057 0.60714 0.0
H206 H 0.7863 0.4894 0.83404 0.0
H207 H 0.74097 0.5802 0.61676 0.0
H208 H 0.70646 0.32853 0.61027 0.0
H209 H 0.75313 0.42067 0.61774 0.0
H210 H 0.70729 0.51274 0.83398 0.0
H211 H 0.65992 0.42148 0.82498 0.0
C212 C 0.81352 0.58048 0.7794 0.0
C213 C 0.81396 0.63236 0.71626 0.0
C214 C 0.78641 0.52955 0.78539 0.0
C215 C 0.76025 0.52936 0.72673 0.0
C216 C 0.76094 0.58063 0.66299 0.0
C217 C 0.78782 0.63178 0.65751 0.0
C218 C 0.70671 0.36806 0.65987 0.0
C219 C 0.68066 0.36719 0.71903 0.0
C220 C 0.73316 0.42027 0.66407 0.0
C221 C 0.73351 0.47235 0.72694 0.0
C222 C 0.70738 0.47204 0.78589 0.0
C223 C 0.68068 0.42 0.78116 0.0
H224 H 0.02663 0.07724 0.2204 0.0
H225 H 0.08949 0.10955 0.99995 0.0
H226 H 0.98613 0.00308 0.13803 0.0
H227 H 0.04856 0.03796 0.91721 0.0
H228 H 0.9835 0.84931 0.81087 0.0
H229 H 0.02534 0.91968 0.89414 0.0
H230 H 0.94557 0.01262 0.03075 0.0
H231 H 0.9041 0.94077 0.95018 0.0
C232 C 0.03169 0.06896 0.15432 0.0
C233 C 0.06129 0.09926 0.11689 0.0
C234 C 0.00841 0.02672 0.1069 0.0
C235 C 0.01404 0.01461 0.02079 0.0
C236 C 0.04365 0.04506 0.98356 0.0
C237 C 0.06705 0.08656 0.03107 0.0
C238 C 0.975 0.88503 0.85849 0.0
C239 C 0.94053 0.88918 0.87421 0.0
C240 C -0.00107 0.9255 0.90613 0.0
C241 C 0.98883 0.97151 0.96969 0.0
C242 C 0.95431 0.97656 0.98386 0.0
C243 C 0.93049 0.93566 0.9371 0.0
H244 H 0.52497 0.08055 0.77793 0.0
H245 H 0.58288 0.12279 0.00457 0.0
H246 H 0.48412 0.00487 0.85801 0.0
H247 H 0.54172 0.04954 0.08456 0.0
H248 H 0.48022 0.85681 0.18903 0.0
H249 H 0.52151 0.92882 0.10629 0.0
H250 H 0.44123 0.01135 0.96195 0.0
H251 H 0.4002 0.9379 0.04239 0.0
C252 C 0.52884 0.07417 0.84481 0.0
C253 C 0.55724 0.10748 0.88466 0.0
C254 C 0.50539 0.03103 0.89084 0.0
C255 C 0.5097 0.0209 0.97778 0.0
C256 C 0.53794 0.05489 0.01751 0.0
C257 C 0.56147 0.09736 0.97154 0.0
C258 C 0.47142 0.89046 0.13976 0.0
C259 C 0.43693 0.89151 0.12235 0.0
C260 C 0.49507 0.93193 0.09245 0.0
C261 C 0.48469 0.97584 0.02728 0.0
C262 C 0.45017 0.97719 0.0105 0.0
C263 C 0.4266 0.93536 0.05718 0.0
H264 H 0.97267 0.58737 0.70616 0.0
H265 H 0.9478 0.67344 0.46476 0.0
H266 H 0.00035 0.49225 0.63666 0.0
H267 H 0.97338 0.57627 0.39483 0.0
H268 H 0.04879 0.43125 0.29065 0.0
H269 H 0.02178 0.52662 0.35798 0.0
H270 H 0.99087 0.3859 0.56322 0.0
H271 H 0.02027 0.29092 0.49738 0.0
C272 C 0.97342 0.5862 0.63808 0.0
C273 C 0.95843 0.63828 0.59088 0.0
C274 C 0.98877 0.53089 0.59805 0.0
C275 C 0.98887 0.52539 0.50972 0.0
C276 C 0.97443 0.57878 0.46275 0.0
C277 C 0.95975 0.6349 0.50284 0.0
C278 C 0.03588 0.42006 0.34968 0.0
C279 C 0.03678 0.35327 0.38869 0.0
C280 C 0.02016 0.47514 0.38844 0.0
C281 C 0.00417 0.46484 0.46678 0.0
C282 C 0.00362 0.39673 0.50397 0.0
C283 C 0.02 0.34173 0.46568 0.0
H284 H 0.47509 0.69503 0.49964 0.0
H285 H 0.44484 0.55361 0.29511 0.0
H286 H 0.50363 0.59939 0.5662 0.0
H287 H 0.4712 0.45763 0.36316 0.0
H288 H 0.5463 0.31207 0.47024 0.0
H289 H 0.51997 0.40781 0.39953 0.0
H290 H 0.49293 0.49346 0.64074 0.0
H291 H 0.52114 0.3997 0.71097 0.0
C292 C 0.47478 0.6438 0.4686 0.0
C293 C 0.4578 0.63217 0.39199 0.0
C294 C 0.49068 0.58847 0.5073 0.0
C295 C 0.48947 0.51996 0.47088 0.0
C296 C 0.47324 0.50943 0.39297 0.0
C297 C 0.45794 0.56483 0.35381 0.0
C298 C 0.53412 0.35056 0.50802 0.0
C299 C 0.53567 0.34824 0.59609 0.0
C300 C 0.51904 0.40585 0.4675 0.0
C301 C 0.50453 0.45946 0.51411 0.0
C302 C 0.50462 0.45465 0.60245 0.0
C303 C 0.52028 0.40012 0.64289 0.0
loop_
_geom_bond_atom_site_label_1
_geom_bond_atom_site_label_2
_geom_bond_distance
_geom_bond_site_symmetry_2
_ccdc_geom_bond_type
Mn0 O5 2.095 . S
Mn0 O15 2.162 . S
Mn0 O16 2.297 . S
Mn0 O24 2.385 . S
Mn0 O25 2.209 . S
Mn0 O26 2.094 . S
Mn1 O6 2.121 . S
Mn1 N8 2.257 . S
Mn1 N17 2.282 . S
Mn1 O25 2.215 . S
Mn1 O27 2.117 . S
C2 O24 1.234 . S
C2 O25 1.283 . S
C3 O15 1.281 . S
C3 O16 1.236 . S
C4 O26 1.240 . S
C4 O27 1.264 . S
O5 Mn0 2.095 . S
O5 C14 1.250 . S
O6 Mn1 2.121 . S
O6 C14 1.258 . S
C7 N8 1.326 1_556 S
C7 C11 1.460 . S
C7 H13 0.929 . S
N8 Mn1 2.257 . S
N8 C7 1.326 1_554 S
N8 C12 1.362 . S
C9 C10 1.258 . S
C9 C12 1.431 1_556 S
C9 C29 1.449 . S
C10 C9 1.258 . S
C10 C11 1.477 . S
C10 H30 0.931 . S
C11 C7 1.460 . S
C11 C10 1.477 . S
C11 H31 0.930 . S
C12 N8 1.362 . S
C12 C9 1.431 1_554 S
C12 C22 1.476 . S
H13 C7 0.929 . S
C14 O5 1.250 . S
C14 O6 1.258 . S
O15 Mn0 2.162 . S
O15 C3 1.281 . S
O16 Mn0 2.297 . S
O16 C3 1.236 . S
N17 Mn1 2.282 . S
N17 C18 1.328 . S
N17 C22 1.318 . S
C18 N17 1.328 . S
C18 C19 1.457 . S
C18 H23 0.929 . S
C19 C18 1.457 . S
C19 C20 1.291 . S
C19 H32 0.931 . S
C20 C19 1.291 . S
C20 C21 1.373 . S
C20 H33 0.929 . S
C21 C20 1.373 . S
C21 C22 1.396 . S
C21 C28 1.396 1_554 S
C22 C12 1.476 . S
C22 N17 1.318 . S
C22 C21 1.396 . S
H23 C18 0.929 . S
O24 Mn0 2.385 . S
O24 C2 1.234 . S
O25 Mn0 2.209 . S
O25 Mn1 2.215 . S
O25 C2 1.283 . S
O26 Mn0 2.094 . S
O26 C4 1.240 . S
O27 Mn1 2.117 . S
O27 C4 1.264 . S
C28 C21 1.396 1_556 S
C28 C29 1.405 . S
C28 H34 0.930 . S
C29 C9 1.449 . S
C29 C28 1.405 . S
C29 H35 0.930 . S
H30 C10 0.931 . S
H31 C11 0.930 . S
H32 C19 0.931 . S
H33 C20 0.929 . S
H34 C28 0.930 . S
H35 C29 0.930 . S
Mn36 O41 2.095 . S
Mn36 O51 2.162 . S
Mn36 O52 2.297 . S
Mn36 O60 2.385 . S
Mn36 O61 2.209 . S
Mn36 O62 2.094 . S
Mn37 O42 2.121 . S
Mn37 N44 2.257 . S
Mn37 N53 2.282 . S
Mn37 O61 2.215 . S
Mn37 O63 2.117 . S
C38 O60 1.234 . S
C38 O61 1.283 . S
C39 O51 1.281 . S
C39 O52 1.236 . S
C40 O62 1.240 . S
C40 O63 1.264 . S
O41 Mn36 2.095 . S
O41 C50 1.250 . S
O42 Mn37 2.121 . S
O42 C50 1.258 . S
C43 N44 1.326 1_556 S
C43 C47 1.460 . S
C43 H49 0.929 . S
N44 Mn37 2.257 . S
N44 C43 1.326 1_554 S
N44 C48 1.362 . S
C45 C46 1.258 . S
C45 C48 1.431 1_556 S
C45 C65 1.449 . S
C46 C45 1.258 . S
C46 C47 1.477 . S
C46 H66 0.931 . S
C47 C43 1.460 . S
C47 C46 1.477 . S
C47 H67 0.930 . S
C48 N44 1.362 . S
C48 C45 1.431 1_554 S
C48 C58 1.476 . S
H49 C43 0.929 . S
C50 O41 1.250 . S
C50 O42 1.258 . S
O51 Mn36 2.162 . S
O51 C39 1.281 . S
O52 Mn36 2.297 . S
O52 C39 1.236 . S
N53 Mn37 2.282 . S
N53 C54 1.328 . S
N53 C58 1.318 . S
C54 N53 1.328 . S
C54 C55 1.457 . S
C54 H59 0.929 . S
C55 C54 1.457 . S
C55 C56 1.291 . S
C55 H68 0.931 . S
C56 C55 1.291 . S
C56 C57 1.373 . S
C56 H69 0.929 . S
C57 C56 1.373 . S
C57 C58 1.396 . S
C57 C64 1.396 1_554 S
C58 C48 1.476 . S
C58 N53 1.318 . S
C58 C57 1.396 . S
H59 C54 0.929 . S
O60 Mn36 2.385 . S
O60 C38 1.234 . S
O61 Mn36 2.209 . S
O61 Mn37 2.215 . S
O61 C38 1.283 . S
O62 Mn36 2.094 . S
O62 C40 1.240 . S
O63 Mn37 2.117 . S
O63 C40 1.264 . S
C64 C57 1.396 1_556 S
C64 C65 1.405 . S
C64 H70 0.930 . S
C65 C45 1.449 . S
C65 C64 1.405 . S
C65 H71 0.930 . S
H66 C46 0.931 . S
H67 C47 0.930 . S
H68 C55 0.931 . S
H69 C56 0.929 . S
H70 C64 0.930 . S
H71 C65 0.930 . S
Mn72 O77 2.095 . S
Mn72 O87 2.162 . S
Mn72 O88 2.297 . S
Mn72 O96 2.385 . S
Mn72 O97 2.209 . S
Mn72 O98 2.094 . S
Mn73 O78 2.121 . S
Mn73 N80 2.257 . S
Mn73 N89 2.282 . S
Mn73 O97 2.215 . S
Mn73 O99 2.117 . S
C74 O96 1.234 . S
C74 O97 1.283 . S
C75 O87 1.281 . S
C75 O88 1.236 . S
C76 O98 1.240 . S
C76 O99 1.264 . S
O77 Mn72 2.095 . S
O77 C86 1.250 . S
O78 Mn73 2.121 . S
O78 C86 1.258 . S
C79 N80 1.326 1_554 S
C79 C83 1.460 . S
C79 H85 0.929 . S
N80 Mn73 2.257 . S
N80 C79 1.326 1_556 S
N80 C84 1.362 . S
C81 C82 1.258 . S
C81 C84 1.431 1_554 S
C81 C101 1.449 . S
C82 C81 1.258 . S
C82 C83 1.477 . S
C82 H102 0.931 . S
C83 C79 1.460 . S
C83 C82 1.477 . S
C83 H103 0.930 . S
C84 N80 1.362 . S
C84 C81 1.431 1_556 S
C84 C94 1.476 . S
H85 C79 0.929 . S
C86 O77 1.250 . S
C86 O78 1.258 . S
O87 Mn72 2.162 . S
O87 C75 1.281 . S
O88 Mn72 2.297 . S
O88 C75 1.236 . S
N89 Mn73 2.282 . S
N89 C90 1.328 . S
N89 C94 1.318 . S
C90 N89 1.328 . S
C90 C91 1.457 . S
C90 H95 0.929 . S
C91 C90 1.457 . S
C91 C92 1.291 . S
C91 H104 0.931 . S
C92 C91 1.291 . S
C92 C93 1.373 . S
C92 H105 0.929 . S
C93 C92 1.373 . S
C93 C94 1.396 . S
C93 C100 1.396 1_556 S
C94 C84 1.476 . S
C94 N89 1.318 . S
C94 C93 1.396 . S
H95 C90 0.929 . S
O96 Mn72 2.385 . S
O96 C74 1.234 . S
O97 Mn72 2.209 . S
O97 Mn73 2.215 . S
O97 C74 1.283 . S
O98 Mn72 2.094 . S
O98 C76 1.240 . S
O99 Mn73 2.117 . S
O99 C76 1.264 . S
C100 C93 1.396 1_554 S
C100 C101 1.405 . S
C100 H106 0.930 . S
C101 C81 1.449 . S
C101 C100 1.405 . S
C101 H107 0.930 . S
H102 C82 0.931 . S
H103 C83 0.930 . S
H104 C91 0.931 . S
H105 C92 0.929 . S
H106 C100 0.930 . S
H107 C101 0.930 . S
Mn108 O113 2.095 . S
Mn108 O123 2.162 . S
Mn108 O124 2.297 . S
Mn108 O132 2.385 . S
Mn108 O133 2.209 . S
Mn108 O134 2.094 . S
Mn109 O114 2.121 . S
Mn109 N116 2.257 . S
Mn109 N125 2.282 . S
Mn109 O133 2.215 . S
Mn109 O135 2.117 . S
C110 O132 1.234 . S
C110 O133 1.283 . S
C111 O123 1.281 . S
C111 O124 1.236 . S
C112 O134 1.240 . S
C112 O135 1.264 . S
O113 Mn108 2.095 . S
O113 C122 1.250 . S
O114 Mn109 2.121 . S
O114 C122 1.258 . S
C115 N116 1.326 1_554 S
C115 C119 1.460 . S
C115 H121 0.929 . S
N116 Mn109 2.257 . S
N116 C115 1.326 1_556 S
N116 C120 1.362 . S
C117 C118 1.258 . S
C117 C120 1.431 1_554 S
C117 C137 1.449 . S
C118 C117 1.258 . S
C118 C119 1.477 . S
C118 H138 0.931 . S
C119 C115 1.460 . S
C119 C118 1.477 . S
C119 H139 0.930 . S
C120 N116 1.362 . S
C120 C117 1.431 1_556 S
C120 C130 1.476 . S
H121 C115 0.929 . S
C122 O113 1.250 . S
C122 O114 1.258 . S
O123 Mn108 2.162 . S
O123 C111 1.281 . S
O124 Mn108 2.297 . S
O124 C111 1.236 . S
N125 Mn109 2.282 . S
N125 C126 1.328 . S
N125 C130 1.318 . S
C126 N125 1.328 . S
C126 C127 1.457 . S
C126 H131 0.929 . S
C127 C126 1.457 . S
C127 C128 1.291 . S
C127 H140 0.931 . S
C128 C127 1.291 . S
C128 C129 1.373 . S
C128 H141 0.929 . S
C129 C128 1.373 . S
C129 C130 1.396 . S
C129 C136 1.396 1_556 S
C130 C120 1.476 . S
C130 N125 1.318 . S
C130 C129 1.396 . S
H131 C126 0.929 . S
O132 Mn108 2.385 . S
O132 C110 1.234 . S
O133 Mn108 2.209 . S
O133 Mn109 2.215 . S
O133 C110 1.283 . S
O134 Mn108 2.094 . S
O134 C112 1.240 . S
O135 Mn109 2.117 . S
O135 C112 1.264 . S
C136 C129 1.396 1_554 S
C136 C137 1.405 . S
C136 H142 0.930 . S
C137 C117 1.449 . S
C137 C136 1.405 . S
C137 H143 0.930 . S
H138 C118 0.931 . S
H139 C119 0.930 . S
H140 C127 0.931 . S
H141 C128 0.929 . S
H142 C136 0.930 . S
H143 C137 0.930 . S
H144 C152 0.950 1_545 S
H145 C157 0.950 . S
H146 C154 0.950 . S
H147 C156 0.950 . S
H148 C158 0.950 1_565 S
H149 C160 0.950 . S
H150 C162 0.950 . S
H151 C163 0.950 . S
C152 H144 0.950 1_565 S
C152 C153 1.386 . S
C152 C154 1.391 1_565 S
C153 C152 1.386 . S
C153 C157 1.393 . S
C154 H146 0.950 . S
C154 C152 1.391 1_545 S
C154 C155 1.400 1_545 S
C155 C154 1.400 1_565 S
C155 C156 1.398 . S
C155 C161 1.491 1_565 S
C156 H147 0.950 . S
C156 C155 1.398 . S
C156 C157 1.391 . S
C157 H145 0.950 . S
C157 C153 1.393 . S
C157 C156 1.391 . S
C158 H148 0.950 1_545 S
C158 C159 1.386 . S
C158 C160 1.391 1_545 S
C159 C158 1.386 . S
C159 C163 1.393 . S
C160 H149 0.950 . S
C160 C158 1.391 1_565 S
C160 C161 1.400 1_565 S
C161 C155 1.491 1_545 S
C161 C160 1.400 1_545 S
C161 C162 1.398 . S
C162 H150 0.950 . S
C162 C161 1.398 . S
C162 C163 1.391 . S
C163 H151 0.950 . S
C163 C159 1.393 . S
C163 C162 1.391 . S
H164 C172 0.950 . S
H165 C177 0.950 . S
H166 C174 0.950 . S
H167 C176 0.950 . S
H168 C178 0.950 . S
H169 C180 0.950 . S
H170 C182 0.950 . S
H171 C183 0.950 . S
C172 H164 0.950 . S
C172 C173 1.386 . S
C172 C174 1.391 . S
C173 C172 1.386 . S
C173 C177 1.393 . S
C174 H166 0.950 . S
C174 C172 1.391 . S
C174 C175 1.400 . S
C175 C174 1.400 . S
C175 C176 1.398 . S
C175 C181 1.491 . S
C176 H167 0.950 . S
C176 C175 1.398 . S
C176 C177 1.391 . S
C177 H165 0.950 . S
C177 C173 1.393 . S
C177 C176 1.391 . S
C178 H168 0.950 . S
C178 C179 1.386 . S
C178 C180 1.391 . S
C179 C178 1.386 . S
C179 C183 1.393 . S
C180 H169 0.950 . S
C180 C178 1.391 . S
C180 C181 1.400 . S
C181 C175 1.491 . S
C181 C180 1.400 . S
C181 C182 1.398 . S
C182 H170 0.950 . S
C182 C181 1.398 . S
C182 C183 1.391 . S
C183 H171 0.950 . S
C183 C179 1.393 . S
C183 C182 1.391 . S
H184 C192 0.950 . S
H185 C197 0.950 . S
H186 C194 0.950 . S
H187 C196 0.950 . S
H188 C198 0.950 . S
H189 C200 0.950 . S
H190 C202 0.950 . S
H191 C203 0.950 . S
C192 H184 0.950 . S
C192 C193 1.386 . S
C192 C194 1.391 . S
C193 C192 1.386 . S
C193 C197 1.393 . S
C194 H186 0.950 . S
C194 C192 1.391 . S
C194 C195 1.400 . S
C195 C194 1.400 . S
C195 C196 1.398 1_545 S
C195 C201 1.491 1_545 S
C196 H187 0.950 . S
C196 C195 1.398 1_565 S
C196 C197 1.391 1_565 S
C197 H185 0.950 . S
C197 C193 1.393 . S
C197 C196 1.391 1_545 S
C198 H188 0.950 . S
C198 C199 1.386 . S
C198 C200 1.391 . S
C199 C198 1.386 . S
C199 C203 1.393 . S
C200 H189 0.950 . S
C200 C198 1.391 . S
C200 C201 1.400 . S
C201 C195 1.491 1_565 S
C201 C200 1.400 . S
C201 C202 1.398 1_565 S
C202 H190 0.950 . S
C202 C201 1.398 1_545 S
C202 C203 1.391 1_545 S
C203 H191 0.950 . S
C203 C199 1.393 . S
C203 C202 1.391 1_565 S
H204 C212 0.950 . S
H205 C217 0.950 . S
H206 C214 0.950 . S
H207 C216 0.950 . S
H208 C218 0.950 . S
H209 C220 0.950 . S
H210 C222 0.950 . S
H211 C223 0.950 . S
C212 H204 0.950 . S
C212 C213 1.386 . S
C212 C214 1.391 . S
C213 C212 1.386 . S
C213 C217 1.393 . S
C214 H206 0.950 . S
C214 C212 1.391 . S
C214 C215 1.400 . S
C215 C214 1.400 . S
C215 C216 1.398 . S
C215 C221 1.491 . S
C216 H207 0.950 . S
C216 C215 1.398 . S
C216 C217 1.391 . S
C217 H205 0.950 . S
C217 C213 1.393 . S
C217 C216 1.391 . S
C218 H208 0.950 . S
C218 C219 1.386 . S
C218 C220 1.391 . S
C219 C218 1.386 . S
C219 C223 1.393 . S
C220 H209 0.950 . S
C220 C218 1.391 . S
C220 C221 1.400 . S
C221 C215 1.491 . S
C221 C220 1.400 . S
C221 C222 1.398 . S
C222 H210 0.950 . S
C222 C221 1.398 . S
C222 C223 1.391 . S
C223 H211 0.950 . S
C223 C219 1.393 . S
C223 C222 1.391 . S
H224 C232 0.950 . S
H225 C237 0.950 . S
H226 C234 0.950 1_656 S
H227 C236 0.950 1_565 S
H228 C238 0.950 . S
H229 C240 0.950 1_454 S
H230 C242 0.950 1_545 S
H231 C243 0.950 . S
C232 H224 0.950 . S
C232 C233 1.386 . S
C232 C234 1.391 . S
C233 C232 1.386 . S
C233 C237 1.393 . S
C234 H226 0.950 1_454 S
C234 C232 1.391 . S
C234 C235 1.400 . S
C235 C234 1.400 . S
C235 C236 1.398 . S
C235 C241 1.491 1_444 S
C236 H227 0.950 1_545 S
C236 C235 1.398 . S
C236 C237 1.391 . S
C237 H225 0.950 . S
C237 C233 1.393 . S
C237 C236 1.391 . S
C238 H228 0.950 . S
C238 C239 1.386 . S
C238 C240 1.391 . S
C239 C238 1.386 . S
C239 C243 1.393 . S
C240 H229 0.950 1_656 S
C240 C238 1.391 . S
C240 C241 1.400 . S
C241 C235 1.491 1_666 S
C241 C240 1.400 . S
C241 C242 1.398 . S
C242 H230 0.950 1_565 S
C242 C241 1.398 . S
C242 C243 1.391 . S
C243 H231 0.950 . S
C243 C239 1.393 . S
C243 C242 1.391 . S
H244 C252 0.950 . S
H245 C257 0.950 . S
H246 C254 0.950 . S
H247 C256 0.950 1_565 S
H248 C258 0.950 . S
H249 C260 0.950 . S
H250 C262 0.950 1_545 S
H251 C263 0.950 . S
C252 H244 0.950 . S
C252 C253 1.386 . S
C252 C254 1.391 . S
C253 C252 1.386 . S
C253 C257 1.393 . S
C254 H246 0.950 . S
C254 C252 1.391 . S
C254 C255 1.400 . S
C255 C254 1.400 . S
C255 C256 1.398 . S
C255 C261 1.491 1_546 S
C256 H247 0.950 1_545 S
C256 C255 1.398 . S
C256 C257 1.391 . S
C257 H245 0.950 . S
C257 C253 1.393 . S
C257 C256 1.391 . S
C258 H248 0.950 . S
C258 C259 1.386 . S
C258 C260 1.391 . S
C259 C258 1.386 . S
C259 C263 1.393 . S
C260 H249 0.950 . S
C260 C258 1.391 . S
C260 C261 1.400 . S
C261 C255 1.491 1_564 S
C261 C260 1.400 . S
C261 C262 1.398 . S
C262 H250 0.950 1_565 S
C262 C261 1.398 . S
C262 C263 1.391 . S
C263 H251 0.950 . S
C263 C259 1.393 . S
C263 C262 1.391 . S
H264 C272 0.950 . S
H265 C277 0.950 . S
H266 C274 0.950 . S
H267 C276 0.950 . S
H268 C278 0.950 . S
H269 C280 0.950 . S
H270 C282 0.950 . S
H271 C283 0.950 . S
C272 H264 0.950 . S
C272 C273 1.386 . S
C272 C274 1.391 . S
C273 C272 1.386 . S
C273 C277 1.393 . S
C274 H266 0.950 . S
C274 C272 1.391 . S
C274 C275 1.400 . S
C275 C274 1.400 . S
C275 C276 1.398 1_655 S
C275 C281 1.491 1_655 S
C276 H267 0.950 . S
C276 C275 1.398 1_455 S
C276 C277 1.391 1_455 S
C277 H265 0.950 . S
C277 C273 1.393 . S
C277 C276 1.391 1_655 S
C278 H268 0.950 . S
C278 C279 1.386 . S
C278 C280 1.391 . S
C279 C278 1.386 . S
C279 C283 1.393 . S
C280 H269 0.950 . S
C280 C278 1.391 . S
C280 C281 1.400 . S
C281 C275 1.491 1_455 S
C281 C280 1.400 . S
C281 C282 1.398 1_455 S
C282 H270 0.950 . S
C282 C281 1.398 1_655 S
C282 C283 1.391 1_655 S
C283 H271 0.950 . S
C283 C279 1.393 . S
C283 C282 1.391 1_455 S
H284 C292 0.950 . S
H285 C297 0.950 . S
H286 C294 0.950 . S
H287 C296 0.950 . S
H288 C298 0.950 . S
H289 C300 0.950 . S
H290 C302 0.950 . S
H291 C303 0.950 . S
C292 H284 0.950 . S
C292 C293 1.386 . S
C292 C294 1.391 . S
C293 C292 1.386 . S
C293 C297 1.393 . S
C294 H286 0.950 . S
C294 C292 1.391 . S
C294 C295 1.400 . S
C295 C294 1.400 . S
C295 C296 1.398 . S
C295 C301 1.491 . S
C296 H287 0.950 . S
C296 C295 1.398 . S
C296 C297 1.391 . S
C297 H285 0.950 . S
C297 C293 1.393 . S
C297 C296 1.391 . S
C298 H288 0.950 . S
C298 C299 1.386 . S
C298 C300 1.391 . S
C299 C298 1.386 . S
C299 C303 1.393 . S
C300 H289 0.950 . S
C300 C298 1.391 . S
C300 C301 1.400 . S
C301 C295 1.491 . S
C301 C300 1.400 . S
C301 C302 1.398 . S
C302 H290 0.950 . S
C302 C301 1.398 . S
C302 C303 1.391 . S
C303 H291 0.950 . S
C303 C299 1.393 . S
C303 C302 1.391 . S
C153 C40 0.973 . S
C159 C4 1.001 . S
C173 C2 0.913 . S
C179 C38 0.895 . S
C193 C112 0.988 . S
C199 C76 1.006 . S
C213 C74 0.903 . S
C219 C110 0.875 . S
C233 C14 1.479 . S
C239 C86 1.479 . S
C253 C122 1.484 . S
C259 C50 1.484 . S
C273 C75 1.581 . S
C279 C3 1.581 . S
C293 C39 1.578 . S
C299 C111 1.578 . S
