# Generated by pormake.
# Topology wka, (5)-cn, num edge types: 1
# Building blocks:
#     Node 0, Type 0, BuildingBlock: XOMCOT_clean_sbu_0, # of connection points: 5
#     Node 1, Type 0, BuildingBlock: XOMCOT_clean_sbu_0, # of connection points: 5
#     Node 2, Type 0, BuildingBlock: XOMCOT_clean_sbu_0, # of connection points: 5
#     Node 3, Type 0, BuildingBlock: XOMCOT_clean_sbu_0, # of connection points: 5
#     Node 4, Type 0, BuildingBlock: XOMCOT_clean_sbu_0, # of connection points: 5
#     Node 5, Type 0, BuildingBlock: XOMCOT_clean_sbu_0, # of connection points: 5
#     Node 6, Type 0, BuildingBlock: XOMCOT_clean_sbu_0, # of connection points: 5
#     Node 7, Type 0, BuildingBlock: XOMCOT_clean_sbu_0, # of connection points: 5
#     Node 8, Type 0, BuildingBlock: XOMCOT_clean_sbu_0, # of connection points: 5
#     Node 9, Type 0, BuildingBlock: XOMCOT_clean_sbu_0, # of connection points: 5
#     Node 10, Type 0, BuildingBlock: XOMCOT_clean_sbu_0, # of connection points: 5
#     Node 11, Type 0, BuildingBlock: XOMCOT_clean_sbu_0, # of connection points: 5
#     Edge 12, Type (0, 0), None
#     Edge 13, Type (0, 0), None
#     Edge 14, Type (0, 0), None
#     Edge 15, Type (0, 0), None
#     Edge 16, Type (0, 0), None
#     Edge 17, Type (0, 0), None
#     Edge 18, Type (0, 0), None
#     Edge 19, Type (0, 0), None
#     Edge 20, Type (0, 0), None
#     Edge 21, Type (0, 0), None
#     Edge 22, Type (0, 0), None
#     Edge 23, Type (0, 0), None
#     Edge 24, Type (0, 0), None
#     Edge 25, Type (0, 0), None
#     Edge 26, Type (0, 0), None
#     Edge 27, Type (0, 0), None
#     Edge 28, Type (0, 0), None
#     Edge 29, Type (0, 0), None
#     Edge 30, Type (0, 0), None
#     Edge 31, Type (0, 0), None
#     Edge 32, Type (0, 0), None
#     Edge 33, Type (0, 0), None
#     Edge 34, Type (0, 0), None
#     Edge 35, Type (0, 0), None
#     Edge 36, Type (0, 0), None
#     Edge 37, Type (0, 0), None
#     Edge 38, Type (0, 0), None
#     Edge 39, Type (0, 0), None
#     Edge 40, Type (0, 0), None
#     Edge 41, Type (0, 0), None
# Relax obj value: 0.243
# Max RMSD: 0.203
# Mean RMSD: 0.203
data_MOF--net-wka--node1-XOMCOT_clean_sbu_0--edge1-none
_symmetry_space_group_name_H-M    P1
_symmetry_Int_Tables_number       1
_symmetry_cell_setting            triclinic
loop_
_symmetry_equiv_pos_as_xyz
'x, y, z'
_cell_length_a     31.701009
_cell_length_b     31.698884
_cell_length_c     8.8577491
_cell_angle_alpha  89.998395
_cell_angle_beta   90.001318
_cell_angle_gamma 119.99208
loop_
_atom_site_label
_atom_site_type_symbol
_atom_site_fract_x
_atom_site_fract_y
_atom_site_fract_z
_atom_type_partial_charge
Co0 Co 0.11868 0.37888 0.11311 0.0
C1 C 0.1068 0.39219 0.42928 0.0
C2 C 0.0647 0.31819 0.35973 0.0
C3 C 0.07764 0.31906 0.50894 0.0
N4 N 0.0854 0.36425 0.30626 0.0
N5 N 0.1055 0.36594 0.54937 0.0
H6 H 0.13008 0.43068 0.42723 0.0
H7 H 0.04987 0.28623 0.28844 0.0
C8 C 0.01731 0.32898 0.95866 0.0
O9 O 1.0037 0.35667 0.02901 0.0
N10 N 0.15156 0.39111 0.92174 0.0
C11 C 0.17775 0.43558 0.85887 0.0
C12 C 0.16838 0.43148 0.70613 0.0
C13 C 0.1307 0.36023 0.80496 0.0
N14 N 0.1372 0.38414 0.67466 0.0
C15 C 0.1332 0.47371 0.17354 0.0
C16 C 0.07768 0.48187 0.94997 0.0
C17 C 0.09816 0.51806 0.06167 0.0
C18 C 0.12701 0.51387 0.1718 0.0
C19 C 0.08475 0.44128 0.95766 0.0
N20 N 0.10819 0.43496 0.0786 0.0
H21 H 0.16108 0.47624 0.24716 0.0
H22 H 0.07248 0.41608 0.86427 0.0
H23 H 0.19533 0.46936 0.92162 0.0
H24 H 0.105 0.32184 0.8178 0.0
O25 O 0.18013 0.41571 0.21564 0.0
O26 O 0.14602 0.33695 0.18004 0.0
O27 O 0.05577 0.32852 1.00176 0.0
C28 C 0.18061 0.37617 0.2443 0.0
H29 H 0.07218 0.28801 0.57497 0.0
H30 H 0.17907 0.46168 0.62941 0.0
H31 H 0.05835 0.48586 0.85525 0.0
H32 H 0.14683 0.54285 0.25279 0.0
Co33 Co 0.74519 0.11628 0.27931 0.0
C34 C 0.72 0.10448 0.59535 0.0
C35 C 0.75174 0.0622 0.526 0.0
C36 C 0.76375 0.07508 0.67526 0.0
N37 N 0.72651 0.08303 0.47243 0.0
N38 N 0.74483 0.10306 0.71556 0.0
H39 H 0.70493 0.12789 0.59308 0.0
H40 H 0.7688 0.04727 0.45479 0.0
C41 C 0.69357 0.01475 0.12555 0.0
O42 O 0.65234 1.00117 0.1962 0.0
N43 N 0.76583 0.14913 0.08791 0.0
C44 C 0.74759 0.17536 1.0251 0.0
C45 C 0.74226 0.16598 0.87238 0.0
C46 C 0.77578 0.12823 0.97111 0.0
N47 N 0.75837 0.13475 0.84087 0.0
C48 C 0.66521 0.13131 0.33962 0.0
C49 C 0.6011 0.07535 0.11753 0.0
C50 C 0.58566 0.09622 0.22882 0.0
C51 C 0.61893 0.1253 0.33812 0.0
C52 C 0.64872 0.08232 0.1248 0.0
N53 N 0.67869 0.10599 0.24509 0.0
H54 H 0.69066 0.15923 0.41292 0.0
H55 H 0.66146 0.06979 0.03156 0.0
H56 H 0.73145 0.193 0.08789 0.0
H57 H 0.78842 0.10248 0.98394 0.0
O58 O 0.77002 0.17776 0.38175 0.0
O59 O 0.81446 0.14343 0.34595 0.0
O60 O 0.73248 0.05332 0.16799 0.0
C61 C 0.80998 0.17812 0.41021 0.0
H62 H 0.78923 0.06951 0.74142 0.0
H63 H 0.72276 0.17669 0.79572 0.0
H64 H 0.57759 0.0558 1.0234 0.0
H65 H 0.60995 0.14534 0.41885 0.0
Co66 Co 0.63456 0.7424 0.44689 0.0
C67 C 0.62119 0.71722 0.76299 0.0
C68 C 0.69519 0.74895 0.69354 0.0
C69 C 0.69433 0.76099 0.84278 0.0
N70 N 0.64913 0.72372 0.64002 0.0
N71 N 0.64746 0.74208 0.88314 0.0
H72 H 0.58271 0.70214 0.76082 0.0
H73 H 0.72716 0.76601 0.62229 0.0
C74 C 0.68436 0.69071 0.29294 0.0
O75 O 0.65666 0.64948 0.36352 0.0
N76 N 0.62238 0.76307 0.2555 0.0
C77 C 0.57792 0.74487 0.19266 0.0
C78 C 0.58199 0.73956 0.03993 0.0
C79 C 0.65324 0.77301 0.13872 0.0
N80 N 0.62931 0.75564 1.00845 0.0
C81 C 0.53959 0.66235 0.50723 0.0
C82 C 0.53135 0.59842 0.28437 0.0
C83 C 0.49508 0.58291 0.39577 0.0
C84 C 0.49931 0.61608 0.5055 0.0
C85 C 0.57203 0.64602 0.29194 0.0
N86 N 0.57837 0.6759 0.41255 0.0
H87 H 0.53714 0.68777 0.58073 0.0
H88 H 0.59728 0.65882 0.19867 0.0
H89 H 0.54414 0.72874 0.25543 0.0
H90 H 0.69161 0.78562 0.15155 0.0
O91 O 0.59787 0.7672 0.5493 0.0
O92 O 0.67663 0.81168 0.51364 0.0
O93 O 0.68481 0.72967 0.33559 0.0
C94 C 0.63745 0.80718 0.5778 0.0
H95 H 0.72539 0.78649 0.9089 0.0
H96 H 0.55178 0.7201 0.96324 0.0
H97 H 0.52736 0.57499 0.18996 0.0
H98 H 0.47031 0.60705 0.5863 0.0
Co99 Co 0.89739 0.63174 0.61347 0.0
C100 C 0.90923 0.6184 0.92964 0.0
C101 C 0.95139 0.6924 0.86011 0.0
C102 C 0.93847 0.69154 1.00933 0.0
N103 N 0.93065 0.64634 0.80663 0.0
N104 N 0.91057 0.64466 0.04973 0.0
H105 H 0.88589 0.57992 0.92754 0.0
H106 H 0.96626 0.72437 0.78882 0.0
C107 C 0.9988 0.6817 0.45941 0.0
O108 O 0.01238 0.65402 0.52988 0.0
N109 N 0.86452 0.61953 0.4221 0.0
C110 C 0.8383 0.57507 0.35925 0.0
C111 C 0.84767 0.57915 0.20651 0.0
C112 C 0.88539 0.6504 0.30531 0.0
N113 N 0.87887 0.62649 0.17503 0.0
C114 C 0.88297 0.53694 0.6737 0.0
C115 C 0.93847 0.52887 0.44984 0.0
C116 C 0.91803 0.49265 0.56145 0.0
C117 C 0.88919 0.49679 0.67174 0.0
C118 C 0.93137 0.56944 0.45775 0.0
N119 N 0.90794 0.57571 0.5788 0.0
H120 H 0.85509 0.53437 0.7474 0.0
H121 H 0.94363 0.59468 0.36445 0.0
H122 H 0.82071 0.54129 0.42202 0.0
H123 H 0.91111 0.68879 0.31813 0.0
O124 O 0.83593 0.59486 0.71591 0.0
O125 O 0.87002 0.67363 0.68044 0.0
O126 O 0.9603 0.68213 0.50225 0.0
C127 C 0.83542 0.63439 0.74459 0.0
H128 H 0.94397 0.7226 0.07537 0.0
H129 H 0.83695 0.54895 0.12981 0.0
H130 H 0.95779 0.52492 0.35502 0.0
H131 H 0.8694 0.46778 0.75267 0.0
Co132 Co 0.27087 0.89444 0.78021 0.0
C133 C 0.29606 0.90622 0.09628 0.0
C134 C 0.26435 0.94853 0.02689 0.0
C135 C 0.25232 0.93564 0.17614 0.0
N136 N 0.28956 0.92769 0.97334 0.0
N137 N 0.27121 0.90765 0.21647 0.0
H138 H 0.3111 0.88279 0.09404 0.0
H139 H 0.24729 0.96346 0.95566 0.0
C140 C 0.32247 0.99596 0.62645 0.0
O141 O 0.3637 0.00952 0.69705 0.0
N142 N 0.2502 0.86159 0.58883 0.0
C143 C 0.26841 0.83532 0.52602 0.0
C144 C 0.27374 0.8447 0.3733 0.0
C145 C 0.24026 0.8825 0.47202 0.0
N146 N 0.25766 0.87595 0.34178 0.0
C147 C 0.35094 0.87952 0.84037 0.0
C148 C 0.41486 0.93533 0.61767 0.0
C149 C 0.43039 0.91454 0.72893 0.0
C150 C 0.39722 0.88554 0.83857 0.0
C151 C 0.36725 0.92837 0.62526 0.0
N152 N 0.33737 0.90477 0.7458 0.0
H153 H 0.32553 0.85164 0.91385 0.0
H154 H 0.35444 0.94085 0.53207 0.0
H155 H 0.28454 0.81768 0.58883 0.0
H156 H 0.22765 0.90827 0.48482 0.0
O157 O 0.24609 0.83296 0.88263 0.0
O158 O 0.20162 0.86726 0.84697 0.0
O159 O 0.28354 0.9574 0.66895 0.0
C160 C 0.20612 0.83258 0.91116 0.0
H161 H 0.22684 0.94122 0.24227 0.0
H162 H 0.29321 0.83396 0.29664 0.0
H163 H 0.43829 0.95483 0.52333 0.0
H164 H 0.40627 0.86555 0.91929 0.0
Co165 Co 0.38139 0.26819 0.94739 0.0
C166 C 0.39475 0.29337 0.26353 0.0
C167 C 0.32076 0.26161 0.19402 0.0
C168 C 0.32161 0.24956 0.34324 0.0
N169 N 0.36682 0.28688 0.14053 0.0
N170 N 0.36848 0.26848 0.38364 0.0
H171 H 0.43323 0.30849 0.26142 0.0
H172 H 0.28879 0.24455 0.12274 0.0
C173 C 0.33163 0.31987 0.79311 0.0
O174 O 0.35935 0.36113 0.86353 0.0
N175 N 0.39357 0.2475 0.75601 0.0
C176 C 0.43803 0.26569 0.69316 0.0
C177 C 0.43395 0.27099 0.54043 0.0
C178 C 0.36271 0.23755 0.63923 0.0
N179 N 0.38663 0.25493 0.50895 0.0
C180 C 0.47635 0.34826 1.00776 0.0
C181 C 0.48464 0.41211 0.78458 0.0
C182 C 0.5209 0.42765 0.89602 0.0
C183 C 0.51664 0.39451 1.00592 0.0
C184 C 0.44396 0.36453 0.79225 0.0
N185 N 0.43758 0.33469 0.913 0.0
H186 H 0.47879 0.32285 0.08136 0.0
H187 H 0.41872 0.3517 0.69895 0.0
H188 H 0.4718 0.28182 0.75593 0.0
H189 H 0.32433 0.22495 0.65207 0.0
O190 O 0.41809 0.24341 0.04985 0.0
O191 O 0.33933 0.19891 1.01423 0.0
O192 O 0.33114 0.28091 0.83604 0.0
C193 C 0.37852 0.20343 0.07842 0.0
H194 H 0.29055 0.22403 0.40931 0.0
H195 H 0.46416 0.29045 0.46372 0.0
H196 H 0.48866 0.43551 0.69005 0.0
H197 H 0.54564 0.40356 0.08677 0.0
Co198 Co 0.6187 0.90077 0.786 0.0
C199 C 0.60827 0.91302 0.47554 0.0
C200 C 0.68348 0.94863 0.53657 0.0
C201 C 0.6791 0.93313 0.38877 0.0
N202 N 0.63863 0.93359 0.5938 0.0
N203 N 0.63146 0.90963 0.35351 0.0
H204 H 0.56927 0.89253 0.48695 0.0
H205 H 0.7159 0.9611 0.60468 0.0
C206 C 0.69318 0.98681 0.98766 0.0
O207 O 0.72966 0.97931 0.96108 0.0
N208 N 0.59936 0.86716 0.97856 0.0
C209 C 0.55505 0.84775 0.0444 0.0
C210 C 0.56095 0.85585 0.19716 0.0
C211 C 0.63096 0.88218 0.09504 0.0
N212 N 0.60899 0.87942 0.22725 0.0
C213 C 0.51785 0.868 0.73481 0.0
C214 C 0.52156 0.95663 0.76106 0.0
C215 C 0.47731 0.91514 0.72344 0.0
C216 C 0.47616 0.87076 0.70797 0.0
C217 C 0.5632 0.95244 0.78533 0.0
N218 N 0.5607 0.90803 0.77709 0.0
H219 H 0.51514 0.8329 0.72256 0.0
H220 H 0.59722 0.98519 0.80855 0.0
H221 H 0.52068 0.83343 0.98739 0.0
H222 H 0.66987 0.90079 0.0809 0.0
O223 O 0.59137 0.83999 0.67913 0.0
O224 O 0.66743 0.87874 0.75444 0.0
O225 O 0.65362 0.96427 0.91026 0.0
C226 C 0.63326 0.84307 0.67537 0.0
H227 H 0.70784 0.93446 0.31947 0.0
H228 H 0.53234 0.84949 0.27605 0.0
H229 H 0.52364 0.99156 0.77534 0.0
H230 H 0.44252 0.8378 0.68026 0.0
Co231 Co 0.72318 0.61569 0.95309 0.0
C232 C 0.70049 0.6053 0.64262 0.0
C233 C 0.74027 0.68051 0.70363 0.0
C234 C 0.75137 0.67608 0.55586 0.0
N235 N 0.71036 0.63569 0.76088 0.0
N236 N 0.72713 0.62844 0.52062 0.0
H237 H 0.68189 0.5663 0.65403 0.0
H238 H 0.76027 0.71292 0.77173 0.0
C239 C 0.71184 0.69028 0.15494 0.0
O240 O 0.75585 0.72668 0.12837 0.0
N241 N 0.73737 0.59625 0.14564 0.0
C242 C 0.71235 0.55195 0.21147 0.0
C243 C 0.71018 0.55786 0.36424 0.0
C244 C 0.75403 0.62785 0.26213 0.0
N245 N 0.73477 0.6059 0.39434 0.0
C246 C 0.65494 0.51487 0.90175 0.0
C247 C 0.57014 0.51881 0.92818 0.0
C248 C 0.56728 0.47452 0.89044 0.0
C249 C 0.61044 0.47324 0.87489 0.0
C250 C 0.61601 0.56038 0.95245 0.0
N251 N 0.65786 0.55777 0.94412 0.0
H252 H 0.68728 0.51208 0.88945 0.0
H253 H 0.61737 0.59444 0.97576 0.0
H254 H 0.69221 0.51759 0.15446 0.0
H255 H 0.77443 0.66676 0.248 0.0
O256 O 0.75655 0.58827 0.84615 0.0
O257 O 0.79393 0.66432 0.92162 0.0
O258 O 0.69472 0.65072 0.07742 0.0
C259 C 0.79539 0.63015 0.84243 0.0
H260 H 0.77884 0.70478 0.48658 0.0
H261 H 0.68785 0.52928 0.44311 0.0
H262 H 0.53735 0.52098 0.94254 0.0
H263 H 0.60967 0.43956 0.84714 0.0
Co264 Co 0.11241 0.72034 0.11913 0.0
C265 C 0.10006 0.69768 0.80864 0.0
C266 C 0.06486 0.73769 0.86966 0.0
C267 C 0.08044 0.74879 0.72193 0.0
N268 N 0.07961 0.70764 0.92691 0.0
N269 N 0.10369 0.72439 0.68668 0.0
H270 H 0.1203 0.67893 0.81999 0.0
H271 H 0.05254 0.75777 0.93776 0.0
C272 C 0.02662 0.70914 0.32124 0.0
O273 O 0.03432 0.7532 0.29483 0.0
N274 N 0.14602 0.73441 0.31167 0.0
C275 C 0.16514 0.70925 0.37753 0.0
C276 C 0.15709 0.70713 0.53029 0.0
C277 C 0.1312 0.7512 0.42815 0.0
N278 N 0.13382 0.7319 0.56038 0.0
C279 C 0.1449 0.65206 0.06733 0.0
C280 C 0.05619 0.56727 0.09398 0.0
C281 C 0.0976 0.56441 0.05594 0.0
C282 C 0.14201 0.60756 0.04023 0.0
C283 C 0.06049 0.61315 0.11835 0.0
N284 N 0.10495 0.65499 0.1099 0.0
H285 H 0.18003 0.68439 0.05511 0.0
H286 H 0.02781 0.61451 0.14192 0.0
H287 H 0.1792 0.68896 0.32054 0.0
H288 H 0.11281 0.77172 0.41399 0.0
O289 O 0.17319 0.75365 1.01226 0.0
O290 O 0.13463 0.79114 0.08795 0.0
O291 O 0.04893 0.69193 0.24346 0.0
C292 C 0.17023 0.79255 1.00874 0.0
H293 H 0.07933 0.77632 0.65266 0.0
H294 H 0.16324 0.68473 0.60918 0.0
H295 H 0.02124 0.53446 0.10852 0.0
H296 H 0.17492 0.6068 1.01231 0.0
Co297 Co 0.39731 0.1099 0.28681 0.0
C298 C 0.40774 0.09764 0.97635 0.0
C299 C 0.33253 0.06205 0.03738 0.0
C300 C 0.33691 0.07756 0.88959 0.0
N301 N 0.37737 0.07708 0.09462 0.0
N302 N 0.38455 0.10105 0.85433 0.0
H303 H 0.44673 0.11813 0.98775 0.0
H304 H 0.30012 0.04959 0.1055 0.0
C305 C 0.32285 0.02388 0.48852 0.0
O306 O 0.28638 0.03138 0.46191 0.0
N307 N 0.41666 0.14352 0.47937 0.0
C308 C 0.46096 0.16292 0.54523 0.0
C309 C 0.45506 0.15483 0.69799 0.0
C310 C 0.38505 0.1285 0.59585 0.0
N311 N 0.40703 0.13126 0.72806 0.0
C312 C 0.49817 0.14272 0.23557 0.0
C313 C 0.49449 0.05409 0.26138 0.0
C314 C 0.53872 0.0956 0.22369 0.0
C315 C 0.53985 0.13998 0.20846 0.0
C316 C 0.45285 0.05826 0.28591 0.0
N317 N 0.45533 0.10268 0.27785 0.0
H318 H 0.50086 0.17782 0.22347 0.0
H319 H 0.41884 0.02551 0.30917 0.0
H320 H 0.49533 0.17723 0.48824 0.0
H321 H 0.34615 0.1099 0.5817 0.0
O322 O 0.42463 0.17068 0.17992 0.0
O323 O 0.34857 0.13192 0.25524 0.0
O324 O 0.36242 0.04641 0.4111 0.0
C325 C 0.38272 0.16758 0.17612 0.0
H326 H 0.30818 0.07624 0.8203 0.0
H327 H 0.48367 0.16118 0.77688 0.0
H328 H 0.49242 0.01917 0.27549 0.0
H329 H 0.57347 0.17296 0.1807 0.0
Co330 Co 0.29282 0.39484 0.453 0.0
C331 C 0.31551 0.40522 0.14253 0.0
C332 C 0.2757 0.33001 0.20355 0.0
C333 C 0.26459 0.33445 0.0558 0.0
N334 N 0.30564 0.37483 0.26079 0.0
N335 N 0.28886 0.38209 1.02054 0.0
H336 H 0.33414 0.44422 0.15391 0.0
H337 H 0.25568 0.29761 0.27166 0.0
C338 C 0.30415 0.32027 0.65504 0.0
O339 O 0.26013 0.28387 0.62855 0.0
N340 N 0.27863 0.41428 0.64554 0.0
C341 C 0.30366 0.45858 0.71137 0.0
C342 C 0.30584 0.45267 0.86414 0.0
C343 C 0.26196 0.38269 0.76204 0.0
N344 N 0.28123 0.40464 0.89425 0.0
C345 C 0.36105 0.49565 0.4016 0.0
C346 C 0.44586 0.49174 0.42807 0.0
C347 C 0.4487 0.53602 0.39026 0.0
C348 C 0.40554 0.53728 0.3747 0.0
C349 C 0.39999 0.45016 0.45238 0.0
N350 N 0.35813 0.45276 0.44402 0.0
H351 H 0.3287 0.49844 0.38931 0.0
H352 H 0.39864 0.41611 0.47574 0.0
H353 H 0.32382 0.49294 0.65436 0.0
H354 H 0.24154 0.34378 0.74792 0.0
O355 O 0.25946 0.42227 0.34601 0.0
O356 O 0.22206 0.34621 0.42149 0.0
O357 O 0.32128 0.35981 0.5774 0.0
C358 C 0.22062 0.38038 0.34225 0.0
H359 H 0.23711 0.30576 0.98654 0.0
H360 H 0.32817 0.48125 0.94301 0.0
H361 H 0.47866 0.48958 0.44244 0.0
H362 H 0.40629 0.57096 0.34689 0.0
Co363 Co 0.90374 0.29034 0.61818 0.0
C364 C 0.9161 0.313 0.30768 0.0
C365 C 0.95127 0.27296 0.36872 0.0
C366 C 0.93568 0.26186 0.22099 0.0
N367 N 0.93654 0.30303 0.42595 0.0
N368 N 0.91245 0.28628 0.18574 0.0
H369 H 0.89587 0.33178 0.31901 0.0
H370 H 0.96357 0.25287 0.43682 0.0
C371 C 0.98951 0.30153 0.82046 0.0
O372 O 0.98181 0.25747 0.79417 0.0
N373 N 0.87013 0.27627 0.81071 0.0
C374 C 0.85103 0.30145 0.87655 0.0
C375 C 0.85908 0.30357 0.02931 0.0
C376 C 0.88493 0.25947 0.9272 0.0
N377 N 0.88233 0.27878 0.05943 0.0
C378 C 0.87129 0.35865 0.56635 0.0
C379 C 0.95999 0.44343 0.59348 0.0
C380 C 0.91859 0.44631 0.55543 0.0
C381 C 0.87419 0.40316 0.53945 0.0
C382 C 0.95568 0.39754 0.61762 0.0
N383 N 0.91123 0.3557 0.60897 0.0
H384 H 0.83616 0.32633 0.55399 0.0
H385 H 0.98835 0.39616 0.64123 0.0
H386 H 0.83698 0.32176 0.81954 0.0
H387 H 0.9033 0.23894 0.91306 0.0
O388 O 0.84296 0.25705 0.51128 0.0
O389 O 0.88149 0.21953 0.58698 0.0
O390 O 0.96721 0.31873 0.74255 0.0
C391 C 0.8459 0.21814 0.50776 0.0
H392 H 0.93677 0.23431 0.15174 0.0
H393 H 0.85295 0.32599 0.10819 0.0
H394 H 0.99493 0.47623 0.60821 0.0
H395 H 0.84129 0.40395 0.51152 0.0
loop_
_geom_bond_atom_site_label_1
_geom_bond_atom_site_label_2
_geom_bond_distance
_geom_bond_site_symmetry_2
_ccdc_geom_bond_type
Co0 N4 2.148 . S
Co0 N10 2.128 1_554 S
Co0 N20 2.194 . S
Co0 O25 2.351 . S
Co0 O26 2.155 . S
Co0 O27 2.096 1_554 S
C1 N4 1.301 . S
C1 N5 1.328 . S
C1 H6 0.930 . S
C2 C3 1.333 . S
C2 N4 1.317 . S
C2 H7 0.930 1_455 S
C3 C2 1.333 . S
C3 N5 1.350 . S
C3 H29 0.931 1_455 S
N4 Co0 2.148 . S
N4 C1 1.301 . S
N4 C2 1.317 . S
N5 C1 1.328 . S
N5 C3 1.350 . S
H6 C1 0.930 . S
H7 C2 0.930 1_655 S
C8 O9 1.224 . S
C8 O27 1.247 . S
O9 C8 1.224 . S
N10 Co0 2.128 1_556 S
N10 C11 1.355 . S
N10 C13 1.311 . S
C11 N10 1.355 . S
C11 C12 1.363 . S
C11 H23 0.929 . S
C12 C11 1.363 . S
C12 N14 1.375 . S
C12 H30 0.931 . S
C13 N10 1.311 . S
C13 N14 1.347 . S
C13 H24 0.929 . S
N14 C12 1.375 . S
N14 C13 1.347 . S
C15 C18 1.365 . S
C15 N20 1.328 . S
C15 H21 0.929 . S
C16 C17 1.362 . S
C16 C19 1.378 . S
C16 H31 0.929 . S
C17 C16 1.362 . S
C17 C18 1.366 . S
C18 C15 1.365 . S
C18 C17 1.366 . S
C18 H32 0.930 . S
C19 C16 1.378 . S
C19 N20 1.315 . S
C19 H22 0.930 1_554 S
N20 Co0 2.194 . S
N20 C15 1.328 . S
N20 C19 1.315 . S
H21 C15 0.929 . S
H22 C19 0.930 1_556 S
H23 C11 0.929 . S
H24 C13 0.929 . S
O25 Co0 2.351 . S
O25 C28 1.244 . S
O26 Co0 2.155 . S
O26 C28 1.240 . S
O27 Co0 2.096 1_556 S
O27 C8 1.247 . S
C28 O25 1.244 . S
C28 O26 1.240 . S
H29 C3 0.931 1_655 S
H30 C12 0.931 . S
H31 C16 0.929 . S
H32 C18 0.930 . S
Co33 N37 2.148 . S
Co33 N43 2.128 . S
Co33 N53 2.194 . S
Co33 O58 2.351 . S
Co33 O59 2.155 . S
Co33 O60 2.096 . S
C34 N37 1.301 . S
C34 N38 1.328 . S
C34 H39 0.930 . S
C35 C36 1.333 . S
C35 N37 1.317 . S
C35 H40 0.930 1_545 S
C36 C35 1.333 . S
C36 N38 1.350 . S
C36 H62 0.931 1_545 S
N37 Co33 2.148 . S
N37 C34 1.301 . S
N37 C35 1.317 . S
N38 C34 1.328 . S
N38 C36 1.350 . S
H39 C34 0.930 . S
H40 C35 0.930 1_565 S
C41 O42 1.224 . S
C41 O60 1.247 . S
O42 C41 1.224 . S
N43 Co33 2.128 . S
N43 C44 1.355 1_554 S
N43 C46 1.311 1_554 S
C44 N43 1.355 1_556 S
C44 C45 1.363 . S
C44 H56 0.929 1_556 S
C45 C44 1.363 . S
C45 N47 1.375 . S
C45 H63 0.931 . S
C46 N43 1.311 1_556 S
C46 N47 1.347 . S
C46 H57 0.929 . S
N47 C45 1.375 . S
N47 C46 1.347 . S
C48 C51 1.365 . S
C48 N53 1.328 . S
C48 H54 0.929 . S
C49 C50 1.362 . S
C49 C52 1.378 . S
C49 H64 0.929 . S
C50 C49 1.362 . S
C50 C51 1.366 . S
C51 C48 1.365 . S
C51 C50 1.366 . S
C51 H65 0.930 . S
C52 C49 1.378 . S
C52 N53 1.315 . S
C52 H55 0.930 . S
N53 Co33 2.194 . S
N53 C48 1.328 . S
N53 C52 1.315 . S
H54 C48 0.929 . S
H55 C52 0.930 . S
H56 C44 0.929 1_554 S
H57 C46 0.929 . S
O58 Co33 2.351 . S
O58 C61 1.244 . S
O59 Co33 2.155 . S
O59 C61 1.240 . S
O60 Co33 2.096 . S
O60 C41 1.247 . S
C61 O58 1.244 . S
C61 O59 1.240 . S
H62 C36 0.931 1_565 S
H63 C45 0.931 . S
H64 C49 0.929 . S
H65 C51 0.930 . S
Co66 N70 2.148 . S
Co66 N76 2.128 . S
Co66 N86 2.194 . S
Co66 O91 2.351 . S
Co66 O92 2.155 . S
Co66 O93 2.096 . S
C67 N70 1.301 . S
C67 N71 1.328 . S
C67 H72 0.930 . S
C68 C69 1.333 . S
C68 N70 1.317 . S
C68 H73 0.930 . S
C69 C68 1.333 . S
C69 N71 1.350 . S
C69 H95 0.931 . S
N70 Co66 2.148 . S
N70 C67 1.301 . S
N70 C68 1.317 . S
N71 C67 1.328 . S
N71 C69 1.350 . S
H72 C67 0.930 . S
H73 C68 0.930 . S
C74 O75 1.224 . S
C74 O93 1.247 . S
O75 C74 1.224 . S
N76 Co66 2.128 . S
N76 C77 1.355 . S
N76 C79 1.311 . S
C77 N76 1.355 . S
C77 C78 1.363 1_554 S
C77 H89 0.929 . S
C78 C77 1.363 1_556 S
C78 N80 1.375 . S
C78 H96 0.931 . S
C79 N76 1.311 . S
C79 N80 1.347 1_554 S
C79 H90 0.929 . S
N80 C78 1.375 . S
N80 C79 1.347 1_556 S
C81 C84 1.365 . S
C81 N86 1.328 . S
C81 H87 0.929 . S
C82 C83 1.362 . S
C82 C85 1.378 . S
C82 H97 0.929 . S
C83 C82 1.362 . S
C83 C84 1.366 . S
C84 C81 1.365 . S
C84 C83 1.366 . S
C84 H98 0.930 . S
C85 C82 1.378 . S
C85 N86 1.315 . S
C85 H88 0.930 . S
N86 Co66 2.194 . S
N86 C81 1.328 . S
N86 C85 1.315 . S
H87 C81 0.929 . S
H88 C85 0.930 . S
H89 C77 0.929 . S
H90 C79 0.929 . S
O91 Co66 2.351 . S
O91 C94 1.244 . S
O92 Co66 2.155 . S
O92 C94 1.240 . S
O93 Co66 2.096 . S
O93 C74 1.247 . S
C94 O91 1.244 . S
C94 O92 1.240 . S
H95 C69 0.931 . S
H96 C78 0.931 . S
H97 C82 0.929 . S
H98 C84 0.930 . S
Co99 N103 2.148 . S
Co99 N109 2.128 . S
Co99 N119 2.194 . S
Co99 O124 2.351 . S
Co99 O125 2.155 . S
Co99 O126 2.096 . S
C100 N103 1.301 . S
C100 N104 1.328 1_556 S
C100 H105 0.930 . S
C101 C102 1.333 . S
C101 N103 1.317 . S
C101 H106 0.930 1_655 S
C102 C101 1.333 . S
C102 N104 1.350 1_556 S
C102 H128 0.931 1_655 S
N103 Co99 2.148 . S
N103 C100 1.301 . S
N103 C101 1.317 . S
N104 C100 1.328 1_554 S
N104 C102 1.350 1_554 S
H105 C100 0.930 . S
H106 C101 0.930 1_455 S
C107 O108 1.224 . S
C107 O126 1.247 . S
O108 C107 1.224 . S
N109 Co99 2.128 . S
N109 C110 1.355 . S
N109 C112 1.311 . S
C110 N109 1.355 . S
C110 C111 1.363 . S
C110 H122 0.929 . S
C111 C110 1.363 . S
C111 N113 1.375 . S
C111 H129 0.931 . S
C112 N109 1.311 . S
C112 N113 1.347 . S
C112 H123 0.929 . S
N113 C111 1.375 . S
N113 C112 1.347 . S
C114 C117 1.365 . S
C114 N119 1.328 . S
C114 H120 0.929 . S
C115 C116 1.362 . S
C115 C118 1.378 . S
C115 H130 0.929 . S
C116 C115 1.362 . S
C116 C117 1.366 . S
C117 C114 1.365 . S
C117 C116 1.366 . S
C117 H131 0.930 . S
C118 C115 1.378 . S
C118 N119 1.315 . S
C118 H121 0.930 . S
N119 Co99 2.194 . S
N119 C114 1.328 . S
N119 C118 1.315 . S
H120 C114 0.929 . S
H121 C118 0.930 . S
H122 C110 0.929 . S
H123 C112 0.929 . S
O124 Co99 2.351 . S
O124 C127 1.244 . S
O125 Co99 2.155 . S
O125 C127 1.240 . S
O126 Co99 2.096 . S
O126 C107 1.247 . S
C127 O124 1.244 . S
C127 O125 1.240 . S
H128 C102 0.931 1_455 S
H129 C111 0.931 . S
H130 C115 0.929 . S
H131 C117 0.930 . S
Co132 N136 2.148 . S
Co132 N142 2.128 . S
Co132 N152 2.194 . S
Co132 O157 2.351 . S
Co132 O158 2.155 . S
Co132 O159 2.096 . S
C133 N136 1.301 1_554 S
C133 N137 1.328 . S
C133 H138 0.930 . S
C134 C135 1.333 1_556 S
C134 N136 1.317 . S
C134 H139 0.930 1_565 S
C135 C134 1.333 1_554 S
C135 N137 1.350 . S
C135 H161 0.931 1_565 S
N136 Co132 2.148 . S
N136 C133 1.301 1_556 S
N136 C134 1.317 . S
N137 C133 1.328 . S
N137 C135 1.350 . S
H138 C133 0.930 . S
H139 C134 0.930 1_545 S
C140 O141 1.224 . S
C140 O159 1.247 . S
O141 C140 1.224 . S
N142 Co132 2.128 . S
N142 C143 1.355 . S
N142 C145 1.311 . S
C143 N142 1.355 . S
C143 C144 1.363 . S
C143 H155 0.929 . S
C144 C143 1.363 . S
C144 N146 1.375 . S
C144 H162 0.931 . S
C145 N142 1.311 . S
C145 N146 1.347 . S
C145 H156 0.929 . S
N146 C144 1.375 . S
N146 C145 1.347 . S
C147 C150 1.365 . S
C147 N152 1.328 . S
C147 H153 0.929 . S
C148 C149 1.362 . S
C148 C151 1.378 . S
C148 H163 0.929 . S
C149 C148 1.362 . S
C149 C150 1.366 . S
C150 C147 1.365 . S
C150 C149 1.366 . S
C150 H164 0.930 . S
C151 C148 1.378 . S
C151 N152 1.315 . S
C151 H154 0.930 . S
N152 Co132 2.194 . S
N152 C147 1.328 . S
N152 C151 1.315 . S
H153 C147 0.929 . S
H154 C151 0.930 . S
H155 C143 0.929 . S
H156 C145 0.929 . S
O157 Co132 2.351 . S
O157 C160 1.244 . S
O158 Co132 2.155 . S
O158 C160 1.240 . S
O159 Co132 2.096 . S
O159 C140 1.247 . S
C160 O157 1.244 . S
C160 O158 1.240 . S
H161 C135 0.931 1_545 S
H162 C144 0.931 . S
H163 C148 0.929 . S
H164 C150 0.930 . S
Co165 N169 2.148 1_556 S
Co165 N175 2.128 . S
Co165 N185 2.194 . S
Co165 O190 2.351 . S
Co165 O191 2.155 . S
Co165 O192 2.096 . S
C166 N169 1.301 . S
C166 N170 1.328 . S
C166 H171 0.930 . S
C167 C168 1.333 . S
C167 N169 1.317 . S
C167 H172 0.930 . S
C168 C167 1.333 . S
C168 N170 1.350 . S
C168 H194 0.931 . S
N169 Co165 2.148 1_554 S
N169 C166 1.301 . S
N169 C167 1.317 . S
N170 C166 1.328 . S
N170 C168 1.350 . S
H171 C166 0.930 . S
H172 C167 0.930 . S
C173 O174 1.224 . S
C173 O192 1.247 . S
O174 C173 1.224 . S
N175 Co165 2.128 . S
N175 C176 1.355 . S
N175 C178 1.311 . S
C176 N175 1.355 . S
C176 C177 1.363 . S
C176 H188 0.929 . S
C177 C176 1.363 . S
C177 N179 1.375 . S
C177 H195 0.931 . S
C178 N175 1.311 . S
C178 N179 1.347 . S
C178 H189 0.929 . S
N179 C177 1.375 . S
N179 C178 1.347 . S
C180 C183 1.365 . S
C180 N185 1.328 . S
C180 H186 0.929 1_556 S
C181 C182 1.362 . S
C181 C184 1.378 . S
C181 H196 0.929 . S
C182 C181 1.362 . S
C182 C183 1.366 . S
C183 C180 1.365 . S
C183 C182 1.366 . S
C183 H197 0.930 1_556 S
C184 C181 1.378 . S
C184 N185 1.315 . S
C184 H187 0.930 . S
N185 Co165 2.194 . S
N185 C180 1.328 . S
N185 C184 1.315 . S
H186 C180 0.929 1_554 S
H187 C184 0.930 . S
H188 C176 0.929 . S
H189 C178 0.929 . S
O190 Co165 2.351 . S
O190 C193 1.244 . S
O191 Co165 2.155 . S
O191 C193 1.240 . S
O192 Co165 2.096 . S
O192 C173 1.247 . S
C193 O190 1.244 . S
C193 O191 1.240 . S
H194 C168 0.931 . S
H195 C177 0.931 . S
H196 C181 0.929 . S
H197 C183 0.930 1_554 S
Co198 N202 2.148 . S
Co198 N208 2.128 . S
Co198 N218 2.194 . S
Co198 O223 2.351 . S
Co198 O224 2.155 . S
Co198 O225 2.096 . S
C199 N202 1.301 . S
C199 N203 1.328 . S
C199 H204 0.930 . S
C200 C201 1.333 . S
C200 N202 1.317 . S
C200 H205 0.930 1_565 S
C201 C200 1.333 . S
C201 N203 1.350 . S
C201 H227 0.931 1_565 S
N202 Co198 2.148 . S
N202 C199 1.301 . S
N202 C200 1.317 . S
N203 C199 1.328 . S
N203 C201 1.350 . S
H204 C199 0.930 . S
H205 C200 0.930 1_545 S
C206 O207 1.224 . S
C206 O225 1.247 . S
O207 C206 1.224 . S
N208 Co198 2.128 . S
N208 C209 1.355 1_556 S
N208 C211 1.311 1_556 S
C209 N208 1.355 1_554 S
C209 C210 1.363 . S
C209 H221 0.929 1_554 S
C210 C209 1.363 . S
C210 N212 1.375 . S
C210 H228 0.931 . S
C211 N208 1.311 1_554 S
C211 N212 1.347 . S
C211 H222 0.929 . S
N212 C210 1.375 . S
N212 C211 1.347 . S
C213 C216 1.365 . S
C213 N218 1.328 . S
C213 H219 0.929 . S
C214 C215 1.362 . S
C214 C217 1.378 . S
C214 H229 0.929 . S
C215 C214 1.362 . S
C215 C216 1.366 . S
C216 C213 1.365 . S
C216 C215 1.366 . S
C216 H230 0.930 . S
C217 C214 1.378 . S
C217 N218 1.315 . S
C217 H220 0.930 . S
N218 Co198 2.194 . S
N218 C213 1.328 . S
N218 C217 1.315 . S
H219 C213 0.929 . S
H220 C217 0.930 . S
H221 C209 0.929 1_556 S
H222 C211 0.929 . S
O223 Co198 2.351 . S
O223 C226 1.244 . S
O224 Co198 2.155 . S
O224 C226 1.240 . S
O225 Co198 2.096 . S
O225 C206 1.247 . S
C226 O223 1.244 . S
C226 O224 1.240 . S
H227 C201 0.931 1_545 S
H228 C210 0.931 . S
H229 C214 0.929 . S
H230 C216 0.930 . S
Co231 N235 2.148 . S
Co231 N241 2.128 1_556 S
Co231 N251 2.194 . S
Co231 O256 2.351 . S
Co231 O257 2.155 . S
Co231 O258 2.096 1_556 S
C232 N235 1.301 . S
C232 N236 1.328 . S
C232 H237 0.930 . S
C233 C234 1.333 . S
C233 N235 1.317 . S
C233 H238 0.930 . S
C234 C233 1.333 . S
C234 N236 1.350 . S
C234 H260 0.931 . S
N235 Co231 2.148 . S
N235 C232 1.301 . S
N235 C233 1.317 . S
N236 C232 1.328 . S
N236 C234 1.350 . S
H237 C232 0.930 . S
H238 C233 0.930 . S
C239 O240 1.224 . S
C239 O258 1.247 . S
O240 C239 1.224 . S
N241 Co231 2.128 1_554 S
N241 C242 1.355 . S
N241 C244 1.311 . S
C242 N241 1.355 . S
C242 C243 1.363 . S
C242 H254 0.929 . S
C243 C242 1.363 . S
C243 N245 1.375 . S
C243 H261 0.931 . S
C244 N241 1.311 . S
C244 N245 1.347 . S
C244 H255 0.929 . S
N245 C243 1.375 . S
N245 C244 1.347 . S
C246 C249 1.365 . S
C246 N251 1.328 . S
C246 H252 0.929 . S
C247 C248 1.362 . S
C247 C250 1.378 . S
C247 H262 0.929 . S
C248 C247 1.362 . S
C248 C249 1.366 . S
C249 C246 1.365 . S
C249 C248 1.366 . S
C249 H263 0.930 . S
C250 C247 1.378 . S
C250 N251 1.315 . S
C250 H253 0.930 1_556 S
N251 Co231 2.194 . S
N251 C246 1.328 . S
N251 C250 1.315 . S
H252 C246 0.929 . S
H253 C250 0.930 1_554 S
H254 C242 0.929 . S
H255 C244 0.929 . S
O256 Co231 2.351 . S
O256 C259 1.244 . S
O257 Co231 2.155 . S
O257 C259 1.240 . S
O258 Co231 2.096 1_554 S
O258 C239 1.247 . S
C259 O256 1.244 . S
C259 O257 1.240 . S
H260 C234 0.931 . S
H261 C243 0.931 . S
H262 C247 0.929 . S
H263 C249 0.930 . S
Co264 N268 2.148 1_554 S
Co264 N274 2.128 . S
Co264 N284 2.194 . S
Co264 O289 2.351 . S
Co264 O290 2.155 . S
Co264 O291 2.096 . S
C265 N268 1.301 . S
C265 N269 1.328 . S
C265 H270 0.930 . S
C266 C267 1.333 . S
C266 N268 1.317 . S
C266 H271 0.930 1_455 S
C267 C266 1.333 . S
C267 N269 1.350 . S
C267 H293 0.931 1_455 S
N268 Co264 2.148 1_556 S
N268 C265 1.301 . S
N268 C266 1.317 . S
N269 C265 1.328 . S
N269 C267 1.350 . S
H270 C265 0.930 . S
H271 C266 0.930 1_655 S
C272 O273 1.224 . S
C272 O291 1.247 . S
O273 C272 1.224 . S
N274 Co264 2.128 . S
N274 C275 1.355 . S
N274 C277 1.311 . S
C275 N274 1.355 . S
C275 C276 1.363 . S
C275 H287 0.929 . S
C276 C275 1.363 . S
C276 N278 1.375 . S
C276 H294 0.931 . S
C277 N274 1.311 . S
C277 N278 1.347 . S
C277 H288 0.929 . S
N278 C276 1.375 . S
N278 C277 1.347 . S
C279 C282 1.365 . S
C279 N284 1.328 . S
C279 H285 0.929 1_554 S
C280 C281 1.362 . S
C280 C283 1.378 . S
C280 H295 0.929 . S
C281 C280 1.362 . S
C281 C282 1.366 . S
C282 C279 1.365 . S
C282 C281 1.366 . S
C282 H296 0.930 1_554 S
C283 C280 1.378 . S
C283 N284 1.315 . S
C283 H286 0.930 . S
N284 Co264 2.194 . S
N284 C279 1.328 . S
N284 C283 1.315 . S
H285 C279 0.929 1_556 S
H286 C283 0.930 . S
H287 C275 0.929 . S
H288 C277 0.929 . S
O289 Co264 2.351 . S
O289 C292 1.244 . S
O290 Co264 2.155 . S
O290 C292 1.240 . S
O291 Co264 2.096 . S
O291 C272 1.247 . S
C292 O289 1.244 . S
C292 O290 1.240 . S
H293 C267 0.931 1_655 S
H294 C276 0.931 . S
H295 C280 0.929 . S
H296 C282 0.930 1_556 S
Co297 N301 2.148 . S
Co297 N307 2.128 . S
Co297 N317 2.194 . S
Co297 O322 2.351 . S
Co297 O323 2.155 . S
Co297 O324 2.096 . S
C298 N301 1.301 1_556 S
C298 N302 1.328 . S
C298 H303 0.930 . S
C299 C300 1.333 1_554 S
C299 N301 1.317 . S
C299 H304 0.930 1_545 S
C300 C299 1.333 1_556 S
C300 N302 1.350 . S
C300 H326 0.931 1_545 S
N301 Co297 2.148 . S
N301 C298 1.301 1_554 S
N301 C299 1.317 . S
N302 C298 1.328 . S
N302 C300 1.350 . S
H303 C298 0.930 . S
H304 C299 0.930 1_565 S
C305 O306 1.224 . S
C305 O324 1.247 . S
O306 C305 1.224 . S
N307 Co297 2.128 . S
N307 C308 1.355 . S
N307 C310 1.311 . S
C308 N307 1.355 . S
C308 C309 1.363 . S
C308 H320 0.929 . S
C309 C308 1.363 . S
C309 N311 1.375 . S
C309 H327 0.931 . S
C310 N307 1.311 . S
C310 N311 1.347 . S
C310 H321 0.929 . S
N311 C309 1.375 . S
N311 C310 1.347 . S
C312 C315 1.365 . S
C312 N317 1.328 . S
C312 H318 0.929 . S
C313 C314 1.362 . S
C313 C316 1.378 . S
C313 H328 0.929 . S
C314 C313 1.362 . S
C314 C315 1.366 . S
C315 C312 1.365 . S
C315 C314 1.366 . S
C315 H329 0.930 . S
C316 C313 1.378 . S
C316 N317 1.315 . S
C316 H319 0.930 . S
N317 Co297 2.194 . S
N317 C312 1.328 . S
N317 C316 1.315 . S
H318 C312 0.929 . S
H319 C316 0.930 . S
H320 C308 0.929 . S
H321 C310 0.929 . S
O322 Co297 2.351 . S
O322 C325 1.244 . S
O323 Co297 2.155 . S
O323 C325 1.240 . S
O324 Co297 2.096 . S
O324 C305 1.247 . S
C325 O322 1.244 . S
C325 O323 1.240 . S
H326 C300 0.931 1_565 S
H327 C309 0.931 . S
H328 C313 0.929 . S
H329 C315 0.930 . S
Co330 N334 2.148 . S
Co330 N340 2.128 . S
Co330 N350 2.194 . S
Co330 O355 2.351 . S
Co330 O356 2.155 . S
Co330 O357 2.096 . S
C331 N334 1.301 . S
C331 N335 1.328 1_554 S
C331 H336 0.930 . S
C332 C333 1.333 . S
C332 N334 1.317 . S
C332 H337 0.930 . S
C333 C332 1.333 . S
C333 N335 1.350 1_554 S
C333 H359 0.931 . S
N334 Co330 2.148 . S
N334 C331 1.301 . S
N334 C332 1.317 . S
N335 C331 1.328 1_556 S
N335 C333 1.350 1_556 S
H336 C331 0.930 . S
H337 C332 0.930 . S
C338 O339 1.224 . S
C338 O357 1.247 . S
O339 C338 1.224 . S
N340 Co330 2.128 . S
N340 C341 1.355 . S
N340 C343 1.311 . S
C341 N340 1.355 . S
C341 C342 1.363 . S
C341 H353 0.929 . S
C342 C341 1.363 . S
C342 N344 1.375 . S
C342 H360 0.931 . S
C343 N340 1.311 . S
C343 N344 1.347 . S
C343 H354 0.929 . S
N344 C342 1.375 . S
N344 C343 1.347 . S
C345 C348 1.365 . S
C345 N350 1.328 . S
C345 H351 0.929 . S
C346 C347 1.362 . S
C346 C349 1.378 . S
C346 H361 0.929 . S
C347 C346 1.362 . S
C347 C348 1.366 . S
C348 C345 1.365 . S
C348 C347 1.366 . S
C348 H362 0.930 . S
C349 C346 1.378 . S
C349 N350 1.315 . S
C349 H352 0.930 . S
N350 Co330 2.194 . S
N350 C345 1.328 . S
N350 C349 1.315 . S
H351 C345 0.929 . S
H352 C349 0.930 . S
H353 C341 0.929 . S
H354 C343 0.929 . S
O355 Co330 2.351 . S
O355 C358 1.244 . S
O356 Co330 2.155 . S
O356 C358 1.240 . S
O357 Co330 2.096 . S
O357 C338 1.247 . S
C358 O355 1.244 . S
C358 O356 1.240 . S
H359 C333 0.931 . S
H360 C342 0.931 . S
H361 C346 0.929 . S
H362 C348 0.930 . S
Co363 N367 2.148 . S
Co363 N373 2.128 . S
Co363 N383 2.194 . S
Co363 O388 2.351 . S
Co363 O389 2.155 . S
Co363 O390 2.096 . S
C364 N367 1.301 . S
C364 N368 1.328 . S
C364 H369 0.930 . S
C365 C366 1.333 . S
C365 N367 1.317 . S
C365 H370 0.930 1_655 S
C366 C365 1.333 . S
C366 N368 1.350 . S
C366 H392 0.931 1_655 S
N367 Co363 2.148 . S
N367 C364 1.301 . S
N367 C365 1.317 . S
N368 C364 1.328 . S
N368 C366 1.350 . S
H369 C364 0.930 . S
H370 C365 0.930 1_455 S
C371 O372 1.224 . S
C371 O390 1.247 . S
O372 C371 1.224 . S
N373 Co363 2.128 . S
N373 C374 1.355 . S
N373 C376 1.311 . S
C374 N373 1.355 . S
C374 C375 1.363 1_556 S
C374 H386 0.929 . S
C375 C374 1.363 1_554 S
C375 N377 1.375 . S
C375 H393 0.931 . S
C376 N373 1.311 . S
C376 N377 1.347 1_556 S
C376 H387 0.929 . S
N377 C375 1.375 . S
N377 C376 1.347 1_554 S
C378 C381 1.365 . S
C378 N383 1.328 . S
C378 H384 0.929 . S
C379 C380 1.362 . S
C379 C382 1.378 . S
C379 H394 0.929 . S
C380 C379 1.362 . S
C380 C381 1.366 . S
C381 C378 1.365 . S
C381 C380 1.366 . S
C381 H395 0.930 . S
C382 C379 1.378 . S
C382 N383 1.315 . S
C382 H385 0.930 . S
N383 Co363 2.194 . S
N383 C378 1.328 . S
N383 C382 1.315 . S
H384 C378 0.929 . S
H385 C382 0.930 . S
H386 C374 0.929 . S
H387 C376 0.929 . S
O388 Co363 2.351 . S
O388 C391 1.244 . S
O389 Co363 2.155 . S
O389 C391 1.240 . S
O390 Co363 2.096 . S
O390 C371 1.247 . S
C391 O388 1.244 . S
C391 O389 1.240 . S
H392 C366 0.931 1_455 S
H393 C375 0.931 . S
H394 C379 0.929 . S
H395 C381 0.930 . S
C281 C17 1.646 . S
C314 C50 1.647 . S
C347 C83 1.646 . S
C380 C116 1.646 . S
C149 C215 1.646 . S
C248 C182 1.646 . S
C8 C371 1.893 1_455 S
C206 C41 1.893 1_566 S
C74 C239 1.893 . S
C107 C272 1.893 1_655 S
C305 C140 1.893 1_545 S
C173 C338 1.893 . S
C28 C358 2.127 . S
C61 C391 2.128 . S
C226 C94 2.127 . S
C259 C127 2.127 . S
C160 C292 2.128 1_556 S
C325 C193 2.127 1_554 S
N5 N14 2.298 . S
N47 N38 2.298 . S
N71 N80 2.298 . S
N104 N113 2.298 . S
N146 N137 2.298 . S
N179 N170 2.298 . S
N212 N203 2.298 . S
N245 N236 2.297 . S
N278 N269 2.298 . S
N311 N302 2.298 . S
N344 N335 2.298 . S
N368 N377 2.298 . S
