# Generated by pormake.
# Topology ulj, (4)-cn, num edge types: 1
# Building blocks:
#     Node 0, Type 0, BuildingBlock: MUDLON_clean_sbu_0, # of connection points: 4
#     Node 1, Type 0, BuildingBlock: MUDLON_clean_sbu_0, # of connection points: 4
#     Node 2, Type 0, BuildingBlock: MUDLON_clean_sbu_0, # of connection points: 4
#     Node 3, Type 0, BuildingBlock: MUDLON_clean_sbu_0, # of connection points: 4
#     Node 4, Type 0, BuildingBlock: MUDLON_clean_sbu_0, # of connection points: 4
#     Node 5, Type 0, BuildingBlock: MUDLON_clean_sbu_0, # of connection points: 4
#     Node 6, Type 0, BuildingBlock: MUDLON_clean_sbu_0, # of connection points: 4
#     Node 7, Type 0, BuildingBlock: MUDLON_clean_sbu_0, # of connection points: 4
#     Node 8, Type 0, BuildingBlock: MUDLON_clean_sbu_0, # of connection points: 4
#     Node 9, Type 0, BuildingBlock: MUDLON_clean_sbu_0, # of connection points: 4
#     Node 10, Type 0, BuildingBlock: MUDLON_clean_sbu_0, # of connection points: 4
#     Node 11, Type 0, BuildingBlock: MUDLON_clean_sbu_0, # of connection points: 4
#     Node 12, Type 0, BuildingBlock: MUDLON_clean_sbu_0, # of connection points: 4
#     Node 13, Type 0, BuildingBlock: MUDLON_clean_sbu_0, # of connection points: 4
#     Node 14, Type 0, BuildingBlock: MUDLON_clean_sbu_0, # of connection points: 4
#     Node 15, Type 0, BuildingBlock: MUDLON_clean_sbu_0, # of connection points: 4
#     Node 16, Type 0, BuildingBlock: MUDLON_clean_sbu_0, # of connection points: 4
#     Node 17, Type 0, BuildingBlock: MUDLON_clean_sbu_0, # of connection points: 4
#     Node 18, Type 0, BuildingBlock: MUDLON_clean_sbu_0, # of connection points: 4
#     Node 19, Type 0, BuildingBlock: MUDLON_clean_sbu_0, # of connection points: 4
#     Node 20, Type 0, BuildingBlock: MUDLON_clean_sbu_0, # of connection points: 4
#     Node 21, Type 0, BuildingBlock: MUDLON_clean_sbu_0, # of connection points: 4
#     Node 22, Type 0, BuildingBlock: MUDLON_clean_sbu_0, # of connection points: 4
#     Node 23, Type 0, BuildingBlock: MUDLON_clean_sbu_0, # of connection points: 4
#     Node 24, Type 0, BuildingBlock: MUDLON_clean_sbu_0, # of connection points: 4
#     Node 25, Type 0, BuildingBlock: MUDLON_clean_sbu_0, # of connection points: 4
#     Node 26, Type 0, BuildingBlock: MUDLON_clean_sbu_0, # of connection points: 4
#     Node 27, Type 0, BuildingBlock: MUDLON_clean_sbu_0, # of connection points: 4
#     Node 28, Type 0, BuildingBlock: MUDLON_clean_sbu_0, # of connection points: 4
#     Node 29, Type 0, BuildingBlock: MUDLON_clean_sbu_0, # of connection points: 4
#     Node 30, Type 0, BuildingBlock: MUDLON_clean_sbu_0, # of connection points: 4
#     Node 31, Type 0, BuildingBlock: MUDLON_clean_sbu_0, # of connection points: 4
#     Node 32, Type 0, BuildingBlock: MUDLON_clean_sbu_0, # of connection points: 4
#     Node 33, Type 0, BuildingBlock: MUDLON_clean_sbu_0, # of connection points: 4
#     Node 34, Type 0, BuildingBlock: MUDLON_clean_sbu_0, # of connection points: 4
#     Node 35, Type 0, BuildingBlock: MUDLON_clean_sbu_0, # of connection points: 4
#     Node 36, Type 0, BuildingBlock: MUDLON_clean_sbu_0, # of connection points: 4
#     Node 37, Type 0, BuildingBlock: MUDLON_clean_sbu_0, # of connection points: 4
#     Node 38, Type 0, BuildingBlock: MUDLON_clean_sbu_0, # of connection points: 4
#     Node 39, Type 0, BuildingBlock: MUDLON_clean_sbu_0, # of connection points: 4
#     Node 40, Type 0, BuildingBlock: MUDLON_clean_sbu_0, # of connection points: 4
#     Node 41, Type 0, BuildingBlock: MUDLON_clean_sbu_0, # of connection points: 4
#     Node 42, Type 0, BuildingBlock: MUDLON_clean_sbu_0, # of connection points: 4
#     Node 43, Type 0, BuildingBlock: MUDLON_clean_sbu_0, # of connection points: 4
#     Node 44, Type 0, BuildingBlock: MUDLON_clean_sbu_0, # of connection points: 4
#     Node 45, Type 0, BuildingBlock: MUDLON_clean_sbu_0, # of connection points: 4
#     Node 46, Type 0, BuildingBlock: MUDLON_clean_sbu_0, # of connection points: 4
#     Node 47, Type 0, BuildingBlock: MUDLON_clean_sbu_0, # of connection points: 4
#     Edge 48, Type (0, 0), BuildingBlock: CIFDUS_clean_linker_0, # of connection points: 2
#     Edge 49, Type (0, 0), BuildingBlock: CIFDUS_clean_linker_0, # of connection points: 2
#     Edge 50, Type (0, 0), BuildingBlock: CIFDUS_clean_linker_0, # of connection points: 2
#     Edge 51, Type (0, 0), BuildingBlock: CIFDUS_clean_linker_0, # of connection points: 2
#     Edge 52, Type (0, 0), BuildingBlock: CIFDUS_clean_linker_0, # of connection points: 2
#     Edge 53, Type (0, 0), BuildingBlock: CIFDUS_clean_linker_0, # of connection points: 2
#     Edge 54, Type (0, 0), BuildingBlock: CIFDUS_clean_linker_0, # of connection points: 2
#     Edge 55, Type (0, 0), BuildingBlock: CIFDUS_clean_linker_0, # of connection points: 2
#     Edge 56, Type (0, 0), BuildingBlock: CIFDUS_clean_linker_0, # of connection points: 2
#     Edge 57, Type (0, 0), BuildingBlock: CIFDUS_clean_linker_0, # of connection points: 2
#     Edge 58, Type (0, 0), BuildingBlock: CIFDUS_clean_linker_0, # of connection points: 2
#     Edge 59, Type (0, 0), BuildingBlock: CIFDUS_clean_linker_0, # of connection points: 2
#     Edge 60, Type (0, 0), BuildingBlock: CIFDUS_clean_linker_0, # of connection points: 2
#     Edge 61, Type (0, 0), BuildingBlock: CIFDUS_clean_linker_0, # of connection points: 2
#     Edge 62, Type (0, 0), BuildingBlock: CIFDUS_clean_linker_0, # of connection points: 2
#     Edge 63, Type (0, 0), BuildingBlock: CIFDUS_clean_linker_0, # of connection points: 2
#     Edge 64, Type (0, 0), BuildingBlock: CIFDUS_clean_linker_0, # of connection points: 2
#     Edge 65, Type (0, 0), BuildingBlock: CIFDUS_clean_linker_0, # of connection points: 2
#     Edge 66, Type (0, 0), BuildingBlock: CIFDUS_clean_linker_0, # of connection points: 2
#     Edge 67, Type (0, 0), BuildingBlock: CIFDUS_clean_linker_0, # of connection points: 2
#     Edge 68, Type (0, 0), BuildingBlock: CIFDUS_clean_linker_0, # of connection points: 2
#     Edge 69, Type (0, 0), BuildingBlock: CIFDUS_clean_linker_0, # of connection points: 2
#     Edge 70, Type (0, 0), BuildingBlock: CIFDUS_clean_linker_0, # of connection points: 2
#     Edge 71, Type (0, 0), BuildingBlock: CIFDUS_clean_linker_0, # of connection points: 2
#     Edge 72, Type (0, 0), BuildingBlock: CIFDUS_clean_linker_0, # of connection points: 2
#     Edge 73, Type (0, 0), BuildingBlock: CIFDUS_clean_linker_0, # of connection points: 2
#     Edge 74, Type (0, 0), BuildingBlock: CIFDUS_clean_linker_0, # of connection points: 2
#     Edge 75, Type (0, 0), BuildingBlock: CIFDUS_clean_linker_0, # of connection points: 2
#     Edge 76, Type (0, 0), BuildingBlock: CIFDUS_clean_linker_0, # of connection points: 2
#     Edge 77, Type (0, 0), BuildingBlock: CIFDUS_clean_linker_0, # of connection points: 2
#     Edge 78, Type (0, 0), BuildingBlock: CIFDUS_clean_linker_0, # of connection points: 2
#     Edge 79, Type (0, 0), BuildingBlock: CIFDUS_clean_linker_0, # of connection points: 2
#     Edge 80, Type (0, 0), BuildingBlock: CIFDUS_clean_linker_0, # of connection points: 2
#     Edge 81, Type (0, 0), BuildingBlock: CIFDUS_clean_linker_0, # of connection points: 2
#     Edge 82, Type (0, 0), BuildingBlock: CIFDUS_clean_linker_0, # of connection points: 2
#     Edge 83, Type (0, 0), BuildingBlock: CIFDUS_clean_linker_0, # of connection points: 2
#     Edge 84, Type (0, 0), BuildingBlock: CIFDUS_clean_linker_0, # of connection points: 2
#     Edge 85, Type (0, 0), BuildingBlock: CIFDUS_clean_linker_0, # of connection points: 2
#     Edge 86, Type (0, 0), BuildingBlock: CIFDUS_clean_linker_0, # of connection points: 2
#     Edge 87, Type (0, 0), BuildingBlock: CIFDUS_clean_linker_0, # of connection points: 2
#     Edge 88, Type (0, 0), BuildingBlock: CIFDUS_clean_linker_0, # of connection points: 2
#     Edge 89, Type (0, 0), BuildingBlock: CIFDUS_clean_linker_0, # of connection points: 2
#     Edge 90, Type (0, 0), BuildingBlock: CIFDUS_clean_linker_0, # of connection points: 2
#     Edge 91, Type (0, 0), BuildingBlock: CIFDUS_clean_linker_0, # of connection points: 2
#     Edge 92, Type (0, 0), BuildingBlock: CIFDUS_clean_linker_0, # of connection points: 2
#     Edge 93, Type (0, 0), BuildingBlock: CIFDUS_clean_linker_0, # of connection points: 2
#     Edge 94, Type (0, 0), BuildingBlock: CIFDUS_clean_linker_0, # of connection points: 2
#     Edge 95, Type (0, 0), BuildingBlock: CIFDUS_clean_linker_0, # of connection points: 2
#     Edge 96, Type (0, 0), BuildingBlock: CIFDUS_clean_linker_0, # of connection points: 2
#     Edge 97, Type (0, 0), BuildingBlock: CIFDUS_clean_linker_0, # of connection points: 2
#     Edge 98, Type (0, 0), BuildingBlock: CIFDUS_clean_linker_0, # of connection points: 2
#     Edge 99, Type (0, 0), BuildingBlock: CIFDUS_clean_linker_0, # of connection points: 2
#     Edge 100, Type (0, 0), BuildingBlock: CIFDUS_clean_linker_0, # of connection points: 2
#     Edge 101, Type (0, 0), BuildingBlock: CIFDUS_clean_linker_0, # of connection points: 2
#     Edge 102, Type (0, 0), BuildingBlock: CIFDUS_clean_linker_0, # of connection points: 2
#     Edge 103, Type (0, 0), BuildingBlock: CIFDUS_clean_linker_0, # of connection points: 2
#     Edge 104, Type (0, 0), BuildingBlock: CIFDUS_clean_linker_0, # of connection points: 2
#     Edge 105, Type (0, 0), BuildingBlock: CIFDUS_clean_linker_0, # of connection points: 2
#     Edge 106, Type (0, 0), BuildingBlock: CIFDUS_clean_linker_0, # of connection points: 2
#     Edge 107, Type (0, 0), BuildingBlock: CIFDUS_clean_linker_0, # of connection points: 2
#     Edge 108, Type (0, 0), BuildingBlock: CIFDUS_clean_linker_0, # of connection points: 2
#     Edge 109, Type (0, 0), BuildingBlock: CIFDUS_clean_linker_0, # of connection points: 2
#     Edge 110, Type (0, 0), BuildingBlock: CIFDUS_clean_linker_0, # of connection points: 2
#     Edge 111, Type (0, 0), BuildingBlock: CIFDUS_clean_linker_0, # of connection points: 2
#     Edge 112, Type (0, 0), BuildingBlock: CIFDUS_clean_linker_0, # of connection points: 2
#     Edge 113, Type (0, 0), BuildingBlock: CIFDUS_clean_linker_0, # of connection points: 2
#     Edge 114, Type (0, 0), BuildingBlock: CIFDUS_clean_linker_0, # of connection points: 2
#     Edge 115, Type (0, 0), BuildingBlock: CIFDUS_clean_linker_0, # of connection points: 2
#     Edge 116, Type (0, 0), BuildingBlock: CIFDUS_clean_linker_0, # of connection points: 2
#     Edge 117, Type (0, 0), BuildingBlock: CIFDUS_clean_linker_0, # of connection points: 2
#     Edge 118, Type (0, 0), BuildingBlock: CIFDUS_clean_linker_0, # of connection points: 2
#     Edge 119, Type (0, 0), BuildingBlock: CIFDUS_clean_linker_0, # of connection points: 2
#     Edge 120, Type (0, 0), BuildingBlock: CIFDUS_clean_linker_0, # of connection points: 2
#     Edge 121, Type (0, 0), BuildingBlock: CIFDUS_clean_linker_0, # of connection points: 2
#     Edge 122, Type (0, 0), BuildingBlock: CIFDUS_clean_linker_0, # of connection points: 2
#     Edge 123, Type (0, 0), BuildingBlock: CIFDUS_clean_linker_0, # of connection points: 2
#     Edge 124, Type (0, 0), BuildingBlock: CIFDUS_clean_linker_0, # of connection points: 2
#     Edge 125, Type (0, 0), BuildingBlock: CIFDUS_clean_linker_0, # of connection points: 2
#     Edge 126, Type (0, 0), BuildingBlock: CIFDUS_clean_linker_0, # of connection points: 2
#     Edge 127, Type (0, 0), BuildingBlock: CIFDUS_clean_linker_0, # of connection points: 2
#     Edge 128, Type (0, 0), BuildingBlock: CIFDUS_clean_linker_0, # of connection points: 2
#     Edge 129, Type (0, 0), BuildingBlock: CIFDUS_clean_linker_0, # of connection points: 2
#     Edge 130, Type (0, 0), BuildingBlock: CIFDUS_clean_linker_0, # of connection points: 2
#     Edge 131, Type (0, 0), BuildingBlock: CIFDUS_clean_linker_0, # of connection points: 2
#     Edge 132, Type (0, 0), BuildingBlock: CIFDUS_clean_linker_0, # of connection points: 2
#     Edge 133, Type (0, 0), BuildingBlock: CIFDUS_clean_linker_0, # of connection points: 2
#     Edge 134, Type (0, 0), BuildingBlock: CIFDUS_clean_linker_0, # of connection points: 2
#     Edge 135, Type (0, 0), BuildingBlock: CIFDUS_clean_linker_0, # of connection points: 2
#     Edge 136, Type (0, 0), BuildingBlock: CIFDUS_clean_linker_0, # of connection points: 2
#     Edge 137, Type (0, 0), BuildingBlock: CIFDUS_clean_linker_0, # of connection points: 2
#     Edge 138, Type (0, 0), BuildingBlock: CIFDUS_clean_linker_0, # of connection points: 2
#     Edge 139, Type (0, 0), BuildingBlock: CIFDUS_clean_linker_0, # of connection points: 2
#     Edge 140, Type (0, 0), BuildingBlock: CIFDUS_clean_linker_0, # of connection points: 2
#     Edge 141, Type (0, 0), BuildingBlock: CIFDUS_clean_linker_0, # of connection points: 2
#     Edge 142, Type (0, 0), BuildingBlock: CIFDUS_clean_linker_0, # of connection points: 2
#     Edge 143, Type (0, 0), BuildingBlock: CIFDUS_clean_linker_0, # of connection points: 2
# Relax obj value: 0.200
# Max RMSD: 0.250
# Mean RMSD: 0.237
data_MOF--net-ulj--node1-MUDLON_clean_sbu_0--edge1-CIFDUS_clean_linker_0
_symmetry_space_group_name_H-M    P1
_symmetry_Int_Tables_number       1
_symmetry_cell_setting            triclinic
loop_
_symmetry_equiv_pos_as_xyz
'x, y, z'
_cell_length_a     58.045861
_cell_length_b     57.927547
_cell_length_c     57.836767
_cell_angle_alpha  90.247717
_cell_angle_beta   89.982715
_cell_angle_gamma 90.22532
loop_
_atom_site_label
_atom_site_type_symbol
_atom_site_fract_x
_atom_site_fract_y
_atom_site_fract_z
_atom_type_partial_charge
Mg0 Mg 0.13452 0.2192 0.32453 0.0
C1 C 0.10754 0.18006 0.34334 0.0
O2 O 0.1283 0.17626 0.35151 0.0
C3 C 0.14816 0.25744 0.29462 0.0
O4 O 0.15962 0.26088 0.31392 0.0
C5 C 0.12106 0.24534 0.36809 0.0
O6 O 0.1033 0.23127 0.36693 0.0
O7 O 0.13721 0.24322 0.3534 0.0
O8 O 0.10459 0.19712 0.3299 0.0
O9 O 0.16519 0.1984 0.32053 0.0
C10 C 0.18424 0.20428 0.32966 0.0
O11 O 0.18486 0.22234 0.34347 0.0
O12 O 0.13417 0.24047 0.29357 0.0
Mg13 Mg 0.44225 0.61796 0.93261 0.0
C14 C 0.4211 0.66523 0.93476 0.0
O15 O 0.44214 0.67025 0.94155 0.0
C16 C 0.47748 0.60324 0.96597 0.0
O17 O 0.48027 0.58889 0.94856 0.0
C18 C 0.47974 0.61323 0.89397 0.0
O19 O 0.48114 0.59137 0.89973 0.0
O20 O 0.46531 0.62622 0.90415 0.0
O21 O 0.41575 0.6442 0.93125 0.0
O22 O 0.42674 0.58382 0.93182 0.0
C23 C 0.4117 0.58013 0.9474 0.0
O24 O 0.4057 0.59733 0.96098 0.0
O25 O 0.46214 0.61878 0.9644 0.0
Mg26 Mg 0.90244 0.30772 0.32053 0.0
C27 C 0.9235 0.35194 0.33684 0.0
O28 O 0.90331 0.35266 0.3471 0.0
C29 C 0.88876 0.27232 0.28601 0.0
O30 O 0.87782 0.26551 0.30467 0.0
C31 C 0.9013 0.27073 0.35978 0.0
O32 O 0.87885 0.26995 0.35702 0.0
O33 O 0.91337 0.28414 0.34732 0.0
O34 O 0.92754 0.33555 0.32273 0.0
O35 O 0.86776 0.32081 0.32471 0.0
C36 C 0.86214 0.33664 0.31066 0.0
O37 O 0.87788 0.34468 0.29645 0.0
O38 O 0.90192 0.2899 0.28739 0.0
Mg39 Mg 0.55336 0.88363 0.9495 0.0
C40 C 0.56797 0.83358 0.94606 0.0
O41 O 0.54675 0.83038 0.95332 0.0
C42 C 0.52562 0.89167 0.9946 0.0
O43 O 0.54268 0.90545 1.00044 0.0
C44 C 0.53567 0.87242 0.90102 0.0
O45 O 0.55389 0.85906 0.9007 0.0
O46 O 0.53252 0.88581 0.91824 0.0
O47 O 0.57577 0.85406 0.94473 0.0
O48 O 0.57328 0.91483 0.9557 0.0
C49 C 0.58902 0.91512 0.97101 0.0
O50 O 0.59345 0.8961 0.98246 0.0
O51 O 0.52703 0.87982 0.97606 0.0
Mg52 Mg 0.1254 0.78888 0.20353 0.0
C53 C 0.07583 0.80439 0.20219 0.0
O54 O 0.07304 0.78548 0.21436 0.0
C55 C 0.11985 0.74827 0.23697 0.0
O56 O 0.12077 0.73574 0.21802 0.0
C57 C 0.14415 0.74931 0.17296 0.0
O58 O 0.16085 0.74849 0.18826 0.0
O59 O 0.12877 0.76476 0.17489 0.0
O60 O 0.09599 0.81026 0.19596 0.0
O61 O 0.1549 0.81089 0.21046 0.0
C62 C 0.17285 0.81385 0.19826 0.0
O63 O 0.17473 0.80313 0.17828 0.0
O64 O 0.12012 0.77016 0.23551 0.0
Mg65 Mg 0.0522 0.61813 0.07679 0.0
C66 C 0.09018 0.6489 0.0963 0.0
O67 O 0.09911 0.62886 0.1018 0.0
C68 C 0.01886 0.60674 0.03985 0.0
O69 O 0.01189 0.59364 0.05699 0.0
C70 C 0.02291 0.62584 0.11964 0.0
O71 O 0.04037 0.63911 0.12552 0.0
O72 O 0.02401 0.61427 0.10098 0.0
O73 O 0.0713 0.64936 0.08517 0.0
O74 O 0.07355 0.5877 0.07562 0.0
C75 C 0.08843 0.58669 0.05953 0.0
O76 O 0.09134 0.6048 0.04622 0.0
O77 O 0.03608 0.62003 0.04303 0.0
Mg78 Mg 0.87509 0.71018 0.1886 0.0
C79 C 0.90832 0.67115 0.17748 0.0
O80 O 0.89001 0.66207 0.16759 0.0
C81 C 0.86138 0.7469 0.22274 0.0
O82 O 0.85128 0.7551 0.2042 0.0
C83 C 0.88631 0.72973 0.14171 0.0
O84 O 0.89265 0.70826 0.13814 0.0
O85 O 0.87727 0.73515 0.16098 0.0
O86 O 0.90651 0.69031 0.18804 0.0
O87 O 0.84411 0.68938 0.18724 0.0
C88 C 0.82566 0.69881 0.1803 0.0
O89 O 0.82677 0.71972 0.17164 0.0
O90 O 0.87324 0.72858 0.22107 0.0
Mg91 Mg 0.95977 0.88932 0.08583 0.0
C92 C 0.93526 0.84343 0.08432 0.0
O93 O 0.95302 0.8384 0.07116 0.0
C94 C 0.99519 0.89468 0.04928 0.0
O95 O 0.00538 0.90437 0.06715 0.0
C96 C 0.98248 0.87257 0.12942 0.0
O97 O 0.96166 0.86431 0.13282 0.0
O98 O 0.98639 0.88471 0.11158 0.0
O99 O 0.93312 0.86391 0.09191 0.0
O100 O 0.94553 0.92364 0.08618 0.0
C101 C 0.92938 0.9271 0.07181 0.0
O102 O 0.92158 0.90953 0.05963 0.0
O103 O 0.97541 0.88559 0.05205 0.0
Mg104 Mg 0.32145 0.1364 0.22303 0.0
C105 C 0.33776 0.10336 0.18617 0.0
O106 O 0.34794 0.12235 0.17907 0.0
C107 C 0.28955 0.15011 0.26067 0.0
O108 O 0.30871 0.16067 0.26671 0.0
C109 C 0.36632 0.12515 0.24768 0.0
O110 O 0.36877 0.11111 0.22997 0.0
O111 O 0.34904 0.13855 0.24831 0.0
O112 O 0.32476 0.10429 0.20384 0.0
O113 O 0.31986 0.16616 0.20053 0.0
C114 C 0.30425 0.16605 0.18511 0.0
O115 O 0.29167 0.14732 0.18238 0.0
O116 O 0.28958 0.13746 0.24264 0.0
Mg117 Mg 0.36876 0.42483 0.03966 0.0
C118 C 0.32301 0.42181 0.06585 0.0
O119 O 0.31593 0.43583 0.04955 0.0
C120 C 0.37336 0.46134 1.00418 0.0
O121 O 0.3861 0.44466 0.99566 0.0
C122 C 0.38189 0.38931 1.00111 0.0
O123 O 0.40298 0.39739 1.00312 0.0
O124 O 0.36606 0.39734 0.01399 0.0
O125 O 0.34402 0.41577 0.06624 0.0
O126 O 0.40212 0.42976 0.05598 0.0
C127 C 0.40232 0.44598 0.07091 0.0
O128 O 0.38287 0.45657 0.07558 0.0
O129 O 0.36229 0.4577 0.02282 0.0
Mg130 Mg 0.69894 0.38394 0.23522 0.0
C131 C 0.67968 0.40826 0.19314 0.0
O132 O 0.67177 0.38739 0.18885 0.0
C133 C 0.73818 0.37452 0.26686 0.0
O134 O 0.72217 0.36094 0.27546 0.0
C135 C 0.65423 0.39498 0.25955 0.0
O136 O 0.64877 0.40152 0.23854 0.0
O137 O 0.67394 0.38617 0.26308 0.0
O138 O 0.69218 0.41155 0.21091 0.0
O139 O 0.69892 0.35026 0.21879 0.0
C140 C 0.71237 0.34712 0.20171 0.0
O141 O 0.72398 0.36483 0.19358 0.0
O142 O 0.73311 0.38738 0.24985 0.0
Mg143 Mg 0.62397 0.07791 0.036 0.0
C144 C 0.66597 0.08743 0.06688 0.0
O145 O 0.67678 0.07513 0.05116 0.0
C146 C 0.64066 0.0269 0.03204 0.0
O147 O 0.64752 0.02897 0.0536 0.0
C148 C 0.64025 0.12039 0.00969 0.0
O149 O 0.64891 0.1258 0.02999 0.0
O150 O 0.62814 0.10214 0.00768 0.0
O151 O 0.64428 0.09 0.06526 0.0
O152 O 0.58813 0.07305 0.04594 0.0
C153 C 0.58443 0.05573 0.0589 0.0
O154 O 0.60217 0.04417 0.06677 0.0
O155 O 0.63272 0.04442 0.02162 0.0
Mg156 Mg 0.32144 0.8731 0.28326 0.0
C157 C 0.3331 0.89945 0.32639 0.0
O158 O 0.33886 0.87844 0.33252 0.0
C159 C 0.29164 0.86831 0.24083 0.0
O160 O 0.312 0.86494 0.23152 0.0
C161 C 0.36585 0.89 0.26152 0.0
O162 O 0.36485 0.90408 0.27935 0.0
O163 O 0.35081 0.87405 0.25968 0.0
O164 O 0.32406 0.90248 0.30661 0.0
O165 O 0.31753 0.84157 0.3033 0.0
C166 C 0.30954 0.82406 0.29263 0.0
O167 O 0.30711 0.82521 0.27008 0.0
O168 O 0.29043 0.87381 0.26213 0.0
Mg169 Mg 0.13829 0.44094 0.95605 0.0
C170 C 0.16559 0.42879 0.91288 0.0
O171 O 0.14485 0.42642 0.90407 0.0
C172 C 0.13312 0.47457 0.99513 0.0
O173 O 0.12409 0.45602 1.00454 0.0
C174 C 0.14738 0.3937 0.97605 0.0
O175 O 0.15786 0.39123 0.95606 0.0
O176 O 0.1372 0.4126 0.98052 0.0
O177 O 0.16769 0.43569 0.93366 0.0
O178 O 0.10604 0.44303 0.9374 0.0
C179 C 0.10206 0.46059 0.92493 0.0
O180 O 0.11839 0.47614 0.92228 0.0
O181 O 0.14148 0.47316 0.97486 0.0
Mg182 Mg 0.68807 0.62484 0.28176 0.0
C183 C 0.68157 0.59748 0.32445 0.0
O184 O 0.67193 0.61718 0.33018 0.0
C185 C 0.71874 0.6447 0.2457 0.0
O186 O 0.70322 0.661 0.24798 0.0
C187 C 0.6525 0.62046 0.24247 0.0
O188 O 0.66893 0.62989 0.23006 0.0
O189 O 0.65545 0.61809 0.26413 0.0
O190 O 0.69143 0.59583 0.3049 0.0
O191 O 0.6904 0.65622 0.30239 0.0
C192 C 0.67954 0.67478 0.2985 0.0
O193 O 0.66439 0.6753 0.28164 0.0
O194 O 0.71664 0.6264 0.25759 0.0
Mg195 Mg 0.89334 0.0796 0.97302 0.0
C196 C 0.85406 0.0738 0.93662 0.0
O197 O 0.86192 0.05294 0.93255 0.0
C198 C 0.8975 0.04467 0.01027 0.0
O199 O 0.90928 0.06195 0.01919 0.0
C200 C 0.88423 0.12563 0.99588 0.0
O201 O 0.87571 0.12988 0.9753 0.0
O202 O 0.89412 0.10641 0.99938 0.0
O203 O 0.86405 0.08689 0.95121 0.0
O204 O 0.92576 0.07563 0.95466 0.0
C205 C 0.92654 0.06866 0.93379 0.0
O206 O 0.90727 0.06651 0.92211 0.0
O207 O 0.88794 0.04727 0.99069 0.0
Mg208 Mg 0.19951 0.30492 0.12191 0.0
C209 C 0.16113 0.32169 0.09151 0.0
O210 O 0.15236 0.32651 0.11191 0.0
C211 C 0.23875 0.27316 0.13146 0.0
O212 O 0.24609 0.29226 0.1414 0.0
C213 C 0.21643 0.35416 0.11826 0.0
O214 O 0.19446 0.35747 0.11406 0.0
O215 O 0.22314 0.3341 0.12395 0.0
O216 O 0.18003 0.31071 0.0905 0.0
O217 O 0.17713 0.30087 0.15167 0.0
C218 C 0.18395 0.30688 0.17168 0.0
O219 O 0.20381 0.31766 0.17374 0.0
O220 O 0.21968 0.27347 0.12062 0.0
Mg221 Mg 0.21867 0.68255 0.37281 0.0
C222 C 0.18332 0.67042 0.40769 0.0
O223 O 0.17636 0.65931 0.3891 0.0
C224 C 0.23864 0.71548 0.34004 0.0
O225 O 0.22949 0.69907 0.32724 0.0
C226 C 0.26217 0.65469 0.36277 0.0
O227 O 0.26409 0.66912 0.34544 0.0
O228 O 0.24435 0.65553 0.37554 0.0
O229 O 0.20113 0.68324 0.40625 0.0
O230 O 0.19291 0.67693 0.34614 0.0
C231 C 0.17719 0.69216 0.34597 0.0
O232 O 0.1768 0.70749 0.36279 0.0
O233 O 0.23678 0.71401 0.36194 0.0
Mg234 Mg 0.93947 0.54087 0.88474 0.0
C235 C 0.9557 0.56958 0.92329 0.0
O236 O 0.96669 0.57806 0.90534 0.0
C237 C 0.92255 0.49528 0.86741 0.0
O238 O 0.94302 0.49635 0.85781 0.0
C239 C 0.98059 0.51283 0.89095 0.0
O240 O 0.96524 0.50368 0.90492 0.0
O241 O 0.9746 0.52973 0.87835 0.0
O242 O 0.94111 0.55348 0.91997 0.0
O243 O 0.92688 0.56786 0.86232 0.0
C244 C 0.90938 0.57844 0.87014 0.0
O245 O 0.90214 0.57349 0.89108 0.0
O246 O 0.91597 0.51176 0.88037 0.0
Mg247 Mg 0.77731 0.8147 0.37414 0.0
C248 C 0.82169 0.82939 0.39714 0.0
O249 O 0.82667 0.83405 0.3755 0.0
C250 C 0.74225 0.78077 0.36043 0.0
O251 O 0.73561 0.80001 0.35053 0.0
C252 C 0.75439 0.85825 0.39107 0.0
O253 O 0.77508 0.86178 0.3996 0.0
O254 O 0.75079 0.84054 0.37853 0.0
O255 O 0.80244 0.81986 0.40178 0.0
O256 O 0.79393 0.81614 0.34073 0.0
C257 C 0.80878 0.80036 0.33762 0.0
O258 O 0.81335 0.78635 0.35483 0.0
O259 O 0.75994 0.78136 0.37344 0.0
Mg260 Mg 0.57617 0.47158 0.40418 0.0
C261 C 0.55911 0.43989 0.44024 0.0
O262 O 0.54477 0.43581 0.42311 0.0
C263 C 0.62064 0.49664 0.39236 0.0
O264 O 0.62578 0.47643 0.38343 0.0
C265 C 0.54029 0.50763 0.41046 0.0
O266 O 0.55836 0.5176 0.41993 0.0
O267 O 0.54262 0.48778 0.40127 0.0
O268 O 0.57565 0.45396 0.43704 0.0
O269 O 0.58338 0.44807 0.37582 0.0
C270 C 0.59701 0.43126 0.37904 0.0
O271 O 0.60479 0.42746 0.40001 0.0
O272 O 0.60168 0.49903 0.4031 0.0
Mg273 Mg 0.29679 0.70281 0.64686 0.0
C274 C 0.33802 0.69762 0.61509 0.0
O275 O 0.3485 0.69383 0.63484 0.0
C276 C 0.25154 0.73031 0.64731 0.0
O277 O 0.24214 0.71027 0.6422 0.0
C278 C 0.26217 0.66432 0.66036 0.0
O279 O 0.25953 0.6764 0.67943 0.0
O280 O 0.27687 0.67091 0.64546 0.0
O281 O 0.31683 0.70306 0.61526 0.0
O282 O 0.3186 0.70715 0.6772 0.0
C283 C 0.30813 0.71396 0.69528 0.0
O284 O 0.28557 0.71556 0.69464 0.0
O285 O 0.27337 0.73198 0.64857 0.0
Mg286 Mg 0.94879 0.48654 0.62909 0.0
C287 C 0.94133 0.47231 0.57745 0.0
O288 O 0.9238 0.48657 0.57729 0.0
C289 C 0.91655 0.52798 0.61752 0.0
O290 O 0.93004 0.53156 0.59963 0.0
C291 C 0.98437 0.52501 0.63459 0.0
O292 O 0.96582 0.53789 0.63423 0.0
O293 O 0.98212 0.50315 0.63495 0.0
O294 O 0.95291 0.46964 0.59588 0.0
O295 O 0.93902 0.45965 0.65329 0.0
C296 C 0.92038 0.44996 0.64689 0.0
O297 O 0.91113 0.45642 0.62722 0.0
O298 O 0.92063 0.5112 0.63098 0.0
Mg299 Mg 0.07611 0.03379 0.60457 0.0
C300 C 0.094 0.06715 0.56447 0.0
O301 O 0.11122 0.07884 0.55548 0.0
C302 C 0.11237 0.00687 0.62915 0.0
O303 O 0.11707 0.02789 0.63643 0.0
C304 C 0.02517 0.03396 0.59253 0.0
O305 O 0.02683 0.05499 0.60099 0.0
O306 O 0.04314 0.02156 0.59143 0.0
O307 O 0.09805 0.05389 0.58146 0.0
O308 O 0.07228 0.05353 0.63635 0.0
C309 C 0.07555 0.07524 0.63694 0.0
O310 O 0.07863 0.08633 0.61741 0.0
O311 O 0.09593 1.0039 0.6149 0.0
Mg312 Mg 0.61723 0.70782 0.82431 0.0
C313 C 0.59115 0.66293 0.83179 0.0
O314 O 0.6122 0.65494 0.83383 0.0
C315 C 0.62623 0.74848 0.79383 0.0
O316 O 0.63549 0.75571 0.8133 0.0
C317 C 0.60393 0.72377 0.87216 0.0
O318 O 0.59476 0.703 0.87217 0.0
O319 O 0.61557 0.73017 0.85467 0.0
O320 O 0.58831 0.68401 0.82652 0.0
O321 O 0.64966 0.68965 0.82068 0.0
C322 C 0.66826 0.69964 0.82665 0.0
O323 O 0.66711 0.71969 0.83729 0.0
O324 O 0.61582 0.72911 0.79355 0.0
Mg325 Mg 0.96726 0.11933 0.4408 0.0
C326 C 0.95299 0.16853 0.43472 0.0
O327 O 0.97537 0.17111 0.43712 0.0
C328 C 0.98958 0.09964 0.48338 0.0
O329 O 0.98069 0.08076 0.47436 0.0
C330 C 0.98932 0.13321 0.39516 0.0
O331 O 0.9682 0.13995 0.39072 0.0
O332 O 0.99339 0.12278 0.41403 0.0
O333 O 0.94431 0.14852 0.43707 0.0
O334 O 0.94736 0.08777 0.43813 0.0
C335 C 0.92911 0.08647 0.45021 0.0
O336 O 0.92271 0.10462 0.46229 0.0
O337 O 0.98583 0.11888 0.47352 0.0
Mg338 Mg 0.37889 0.81268 0.83633 0.0
C339 C 0.41359 0.8493 0.84478 0.0
O340 O 0.39437 0.85891 0.8519 0.0
C341 C 0.34971 0.78449 0.80617 0.0
O342 O 0.33566 0.79427 0.82103 0.0
C343 C 0.37001 0.77359 0.87104 0.0
O344 O 0.35624 0.76585 0.85475 0.0
O345 O 0.37973 0.79314 0.8685 0.0
O346 O 0.41251 0.82944 0.83533 0.0
O347 O 0.35272 0.83933 0.83359 0.0
C348 C 0.33415 0.84062 0.84515 0.0
O349 O 0.33059 0.82607 0.86215 0.0
O350 O 0.37116 0.78893 0.80777 0.0
Mg351 Mg 0.05257 0.39757 0.44749 0.0
C352 C 0.08526 0.3583 0.43651 0.0
O353 O 0.09871 0.3756 0.43062 0.0
C354 C 0.01203 0.41394 0.47526 0.0
O355 O 0.00778 0.4243 0.45556 0.0
C356 C 0.03769 0.3934 0.39745 0.0
O357 O 0.05769 0.38297 0.39589 0.0
O358 O 0.0322 0.40302 0.41647 0.0
O359 O 0.06557 0.3626 0.4451 0.0
O360 O 0.07975 0.42253 0.45441 0.0
C361 C 0.09323 0.4176 0.47101 0.0
O362 O 0.0911 0.39734 0.48094 0.0
O363 O 0.02943 0.40075 0.4767 0.0
Mg364 Mg 0.63242 0.30033 0.69441 0.0
C365 C 0.60414 0.34335 0.69183 0.0
O366 O 0.62449 0.35184 0.68652 0.0
C367 C 0.64925 0.2613 0.7231 0.0
O368 O 0.66787 0.26648 0.71126 0.0
C369 C 0.63688 0.26599 0.65397 0.0
O370 O 0.64949 0.25437 0.66868 0.0
O371 O 0.62964 0.2859 0.65967 0.0
O372 O 0.60254 0.32221 0.69741 0.0
O373 O 0.66289 0.32052 0.70251 0.0
C374 C 0.68232 0.31827 0.69272 0.0
O375 O 0.68433 0.30389 0.67521 0.0
O376 O 0.63098 0.27283 0.7197 0.0
Mg377 Mg 0.54317 0.13166 0.57149 0.0
C378 C 0.571 0.17608 0.57533 0.0
O379 O 0.5516 0.18509 0.56802 0.0
C380 C 0.50849 0.12419 0.53478 0.0
O381 O 0.49809 0.11595 0.55318 0.0
C382 C 0.52192 0.15102 0.61524 0.0
O383 O 0.54342 0.15711 0.61903 0.0
O384 O 0.51699 0.13963 0.59705 0.0
O385 O 0.57251 0.15427 0.57705 0.0
O386 O 0.55454 0.09633 0.57417 0.0
C387 C 0.5711 0.0907 0.56095 0.0
O388 O 0.58082 0.10676 0.54822 0.0
O389 O 0.52818 0.13362 0.5372 0.0
Mg390 Mg 0.35718 0.21514 0.66928 0.0
C391 C 0.40612 0.19737 0.67132 0.0
O392 O 0.40972 0.21777 0.68068 0.0
C393 C 0.33933 0.24952 0.70104 0.0
O394 O 0.32723 0.2517 0.68197 0.0
C395 C 0.37307 0.25878 0.64924 0.0
O396 O 0.38009 0.25991 0.67079 0.0
O397 O 0.36218 0.24092 0.64242 0.0
O398 O 0.38565 0.19133 0.66633 0.0
O399 O 0.32467 0.19688 0.66769 0.0
C400 C 0.32361 0.17619 0.67489 0.0
O401 O 0.34285 0.16534 0.67964 0.0
O402 O 0.35483 0.23405 0.70175 0.0
Mg403 Mg 0.46742 0.40784 0.59768 0.0
C404 C 0.43242 0.3682 0.59481 0.0
O405 O 0.44322 0.36312 0.57549 0.0
C406 C 0.50261 0.40573 0.56012 0.0
O407 O 0.51491 0.41421 0.57723 0.0
C408 C 0.50778 0.41693 0.63114 0.0
O409 O 0.50762 0.43791 0.6226 0.0
O410 O 0.49317 0.40214 0.62401 0.0
O411 O 0.43856 0.38592 0.60631 0.0
O412 O 0.45656 0.44331 0.59586 0.0
C413 C 0.43847 0.44709 0.58414 0.0
O414 O 0.42689 0.42938 0.57581 0.0
O415 O 0.48176 0.4001 0.5639 0.0
Mg416 Mg 0.81198 0.6382 0.72302 0.0
C417 C 0.83037 0.61227 0.68238 0.0
O418 O 0.8356 0.63361 0.67678 0.0
C419 C 0.77675 0.65383 0.75612 0.0
O420 O 0.79394 0.66833 0.75922 0.0
C421 C 0.83537 0.62939 0.76787 0.0
O422 O 0.8144 0.62197 0.77212 0.0
O423 O 0.83983 0.63809 0.74822 0.0
O424 O 0.81872 0.60874 0.70068 0.0
O425 O 0.81038 0.66929 0.70246 0.0
C426 C 0.81751 0.68882 0.70957 0.0
O427 O 0.82855 0.69013 0.72935 0.0
O428 O 0.7791 0.63762 0.74137 0.0
Mg429 Mg 0.87187 0.93905 0.53925 0.0
C430 C 0.83031 0.9411 0.57087 0.0
O431 O 0.82144 0.95146 0.5528 0.0
C432 C 0.87472 0.97248 0.5014 0.0
O433 O 0.88699 0.95501 0.49385 0.0
C434 C 0.87564 0.8995 0.50231 0.0
O435 O 0.89687 0.90658 0.4988 0.0
O436 O 0.86336 0.90938 0.5176 0.0
O437 O 0.85137 0.93519 0.57034 0.0
O438 O 0.90784 0.94461 0.54853 0.0
C439 C 0.91105 0.96487 0.55658 0.0
O440 O 0.89305 0.9783 0.55933 0.0
O441 O 0.86383 0.97024 0.52034 0.0
Mg442 Mg 0.19366 0.88306 0.74186 0.0
C443 C 0.17981 0.91183 0.70157 0.0
O444 O 0.17544 0.89094 0.69375 0.0
C445 C 0.2168 0.87907 0.78824 0.0
O446 O 0.19623 0.87102 0.79329 0.0
C447 C 0.143 0.88613 0.75491 0.0
O448 O 0.14206 0.8979 0.73559 0.0
O449 O 0.16171 0.87613 0.76026 0.0
O450 O 0.18873 0.9141 0.72154 0.0
O451 O 0.20618 0.85576 0.71948 0.0
C452 C 0.19528 0.83894 0.71043 0.0
O453 O 0.17308 0.83661 0.71424 0.0
O454 O 0.22048 0.88682 0.768 0.0
Mg455 Mg 0.13972 0.57814 0.5535 0.0
C456 C 0.17032 0.58765 0.59428 0.0
O457 O 0.15006 0.59215 0.60333 0.0
C458 C 0.14553 0.52924 0.53169 0.0
O459 O 0.15746 0.52425 0.55029 0.0
C460 C 0.15508 0.62381 0.53284 0.0
O461 O 0.16971 0.62289 0.55014 0.0
O462 O 0.13935 0.6085 0.53135 0.0
O463 O 0.17125 0.57977 0.57374 0.0
O464 O 0.10976 0.57375 0.57586 0.0
C465 C 0.10984 0.55555 0.58813 0.0
O466 O 0.12811 0.54225 0.5875 0.0
O467 O 0.13779 0.54956 0.52912 0.0
Mg468 Mg 0.83644 0.35753 0.78453 0.0
C469 C 0.86347 0.38128 0.81825 0.0
O470 O 0.87364 0.36151 0.8138 0.0
C471 C 0.80539 0.3496 0.74484 0.0
O472 O 0.82504 0.34079 0.73791 0.0
C473 C 0.86051 0.37933 0.74744 0.0
O474 O 0.84152 0.39107 0.75109 0.0
O475 O 0.8644 0.36161 0.75973 0.0
O476 O 0.84406 0.38513 0.80884 0.0
O477 O 0.83366 0.32556 0.80384 0.0
C478 C 0.8315 0.30617 0.79371 0.0
O479 O 0.83432 0.3051 0.7712 0.0
O480 O 0.80454 0.35937 0.76461 0.0
Mg481 Mg 0.61159 0.92715 0.48102 0.0
C482 C 0.66023 0.92671 0.46313 0.0
O483 O 0.66304 0.94024 0.48122 0.0
C484 C 0.60393 0.96631 0.51328 0.0
O485 O 0.59039 0.95042 0.52214 0.0
C486 C 0.62413 0.88626 0.5106 0.0
O487 O 0.63743 0.88198 0.49272 0.0
O488 O 0.6104 0.90327 0.50977 0.0
O489 O 0.64024 0.91892 0.4586 0.0
O490 O 0.58001 0.92931 0.4614 0.0
C491 C 0.58126 0.94046 0.44255 0.0
O492 O 0.60155 0.94769 0.43549 0.0
O493 O 0.61602 0.96125 0.49566 0.0
Mg494 Mg 0.17496 0.12912 0.77354 0.0
C495 C 0.17292 0.09376 0.81144 0.0
O496 O 0.17002 0.11266 0.82371 0.0
C497 C 0.20723 0.15481 0.74307 0.0
O498 O 0.19492 0.17147 0.75221 0.0
C499 C 0.13848 0.14272 0.73743 0.0
O500 O 0.1519 0.16074 0.7344 0.0
O501 O 0.14307 0.12861 0.75356 0.0
O502 O 0.17656 0.0955 0.78983 0.0
O503 O 0.17932 0.15544 0.8002 0.0
C504 C 0.1712 0.17576 0.79966 0.0
O505 O 0.1569 0.18139 0.78302 0.0
O506 O 0.20318 0.13411 0.74916 0.0
Mg507 Mg 0.39158 0.59427 0.4799 0.0
C508 C 0.36376 0.60127 0.43576 0.0
O509 O 0.38392 0.60722 0.42727 0.0
C510 C 0.40458 0.56082 0.51647 0.0
O511 O 0.421 0.57633 0.51868 0.0
C512 C 0.40427 0.63301 0.51482 0.0
O513 O 0.42528 0.62478 0.51354 0.0
O514 O 0.38848 0.62425 0.5023 0.0
O515 O 0.36244 0.59468 0.45664 0.0
O516 O 0.42416 0.59096 0.46191 0.0
C517 C 0.42633 0.57278 0.44971 0.0
O518 O 0.40853 0.55884 0.44759 0.0
O519 O 0.38902 0.56389 0.50137 0.0
Mg520 Mg 0.71982 0.83306 0.65785 0.0
C521 C 0.68005 0.83654 0.6244 0.0
O522 O 0.6703 0.84574 0.64274 0.0
C523 C 0.75999 0.80838 0.67734 0.0
O524 O 0.76063 0.82796 0.68889 0.0
C525 C 0.73107 0.88176 0.64295 0.0
O526 O 0.70916 0.88123 0.63729 0.0
O527 O 0.73954 0.86472 0.65375 0.0
O528 O 0.70038 0.82864 0.62611 0.0
O529 O 0.69761 0.83111 0.68799 0.0
C530 C 0.68366 0.81412 0.68827 0.0
O531 O 0.68263 0.80052 0.67005 0.0
O532 O 0.74449 0.8055 0.66205 0.0
Mg533 Mg 0.72568 0.16946 0.85747 0.0
C534 C 0.68592 0.15668 0.88595 0.0
O535 O 0.6843 0.14306 0.86779 0.0
C536 C 0.76158 0.19481 0.83414 0.0
O537 O 0.75894 0.17532 0.82273 0.0
C538 C 0.75703 0.12479 0.85506 0.0
O539 O 0.75413 0.12341 0.83258 0.0
O540 O 0.74716 0.14064 0.86656 0.0
O541 O 0.70185 0.17183 0.88636 0.0
O542 O 0.70724 0.1673 0.82503 0.0
C543 C 0.6894 0.17987 0.82362 0.0
O544 O 0.68171 0.18996 0.84247 0.0
O545 O 0.74923 0.19823 0.85202 0.0
Mg546 Mg 0.43378 0.03358 0.39018 0.0
C547 C 0.45186 0.06926 0.42217 0.0
O548 O 0.46675 0.06991 0.40506 0.0
C549 C 0.38759 0.01621 0.37292 0.0
O550 O 0.38814 0.03613 0.36216 0.0
C551 C 0.46042 0.99475 0.40924 0.0
O552 O 0.44072 0.99293 0.42029 0.0
O553 O 0.46277 0.01063 0.3943 0.0
O554 O 0.43453 0.05585 0.42045 0.0
O555 O 0.43634 0.05309 0.35839 0.0
C556 C 0.42782 0.07323 0.35716 0.0
O557 O 0.41936 0.08274 0.37599 0.0
O558 O 0.40357 0.01148 0.38715 0.0
Mg559 Mg 0.28468 0.30753 0.86587 0.0
C560 C 0.32149 0.31739 0.90063 0.0
O561 O 0.33234 0.3219 0.88122 0.0
C562 C 0.25223 0.27756 0.84066 0.0
O563 O 0.2637 0.28823 0.8243 0.0
C564 C 0.25178 0.3458 0.84888 0.0
O565 O 0.24661 0.33106 0.83239 0.0
O566 O 0.26763 0.34086 0.8632 0.0
O567 O 0.30116 0.30912 0.89962 0.0
O568 O 0.31011 0.3004 0.83929 0.0
C569 C 0.31078 0.3113 0.8203 0.0
O570 O 0.29728 0.32922 0.81752 0.0
O571 O 0.25781 0.28118 0.86166 0.0
Mg572 Mg 0.07382 0.96616 0.89711 0.0
C573 C 0.05517 0.9352 0.93279 0.0
O574 O 0.04109 0.9318 0.9153 0.0
C575 C 0.11593 0.98788 0.8756 0.0
O576 O 0.11239 0.97106 0.86071 0.0
C577 C 0.04551 1.00412 0.91326 0.0
O578 O 0.06399 1.00468 0.92638 0.0
O579 O 0.0442 0.98882 0.89747 0.0
O580 O 0.07232 0.94863 0.93005 0.0
O581 O 0.07432 0.94147 0.86879 0.0
C582 C 0.08493 0.92256 0.87187 0.0
O583 O 0.09295 0.91795 0.89257 0.0
O584 O 0.10331 0.98906 0.89355 0.0
Mg585 Mg 0.80085 0.19408 0.14079 0.0
C586 C 0.84203 0.17663 0.11573 0.0
O587 O 0.84434 0.16672 0.13599 0.0
C588 C 0.76937 0.23073 0.15695 0.0
O589 O 0.76775 0.21526 0.17343 0.0
C590 C 0.7563 0.16669 0.13343 0.0
O591 O 0.74712 0.18729 0.13528 0.0
O592 O 0.7779 0.16444 0.13637 0.0
O593 O 0.82551 0.19067 0.11281 0.0
O594 O 0.81902 0.19562 0.1736 0.0
C595 C 0.83452 0.21116 0.175 0.0
O596 O 0.83925 0.22341 0.15651 0.0
O597 O 0.78205 0.22638 0.13953 0.0
Mg598 Mg 0.42946 0.95912 0.10713 0.0
C599 C 0.41231 0.92712 0.06396 0.0
O600 O 0.39404 0.91998 0.05253 0.0
C601 C 0.3944 0.99201 0.12821 0.0
O602 O 0.38651 0.97279 0.13729 0.0
C603 C 0.4671 0.98894 0.08723 0.0
O604 O 0.44893 1.00109 0.08149 0.0
O605 O 0.46423 0.96988 0.09771 0.0
O606 O 0.40911 0.9409 0.0809 0.0
O607 O 0.42795 0.93926 0.13901 0.0
C608 C 0.41997 0.91877 0.13892 0.0
O609 O 0.41498 0.90896 0.11902 0.0
O610 O 0.41169 0.99116 0.11475 0.0
Mg611 Mg 0.56311 0.52473 0.11004 0.0
C612 C 0.54705 0.55684 0.07454 0.0
O613 O 0.5377 0.56484 0.09364 0.0
C614 C 0.60833 0.50219 0.12414 0.0
O615 O 0.61294 0.52311 0.13171 0.0
C616 C 0.52961 0.48825 0.10142 0.0
O617 O 0.54839 0.48173 0.09055 0.0
O618 O 0.53031 0.50676 0.11338 0.0
O619 O 0.56062 0.53971 0.0759 0.0
O620 O 0.57063 0.55261 0.13426 0.0
C621 C 0.57212 0.55028 0.15605 0.0
O622 O 0.56667 0.53033 0.16535 0.0
O623 O 0.5896 0.49853 0.11332 0.0
H624 H 0.19262 0.31821 0.21644 0.0
H625 H 0.14758 0.27668 0.17374 0.0
H626 H 0.13102 0.25888 0.20818 0.0
H627 H 0.13197 0.25246 0.25035 0.0
H628 H 0.17735 0.29417 0.29261 0.0
H629 H 0.1909 0.31453 0.25851 0.0
C630 C 0.17898 0.30547 0.21465 0.0
C631 C 0.17158 0.29863 0.19252 0.0
C632 C 0.16967 0.29514 0.2345 0.0
C633 C 0.15371 0.28224 0.19056 0.0
C634 C 0.14427 0.27195 0.21026 0.0
C635 C 0.14459 0.2662 0.25212 0.0
C636 C 0.15381 0.27151 0.27401 0.0
C637 C 0.15252 0.27785 0.23231 0.0
C638 C 0.17007 0.2895 0.27598 0.0
C639 C 0.1779 0.30119 0.25646 0.0
H640 H 0.51771 0.59234 0.06648 0.0
H641 H 0.55848 0.54066 0.03153 0.0
H642 H 0.54159 0.55174 0.99456 0.0
H643 H 0.51304 0.57381 0.97274 0.0
H644 H 0.47171 0.62501 0.0077 0.0
H645 H 0.49119 0.61645 0.04413 0.0
C646 C 0.52312 0.58364 0.05076 0.0
C647 C 0.53919 0.56553 0.05183 0.0
C648 C 0.51312 0.58989 0.0296 0.0
C649 C 0.5461 0.55459 0.03124 0.0
C650 C 0.53638 0.56086 0.01009 0.0
C651 C 0.50838 0.58325 0.98828 0.0
C652 C 0.49075 0.59986 0.98754 0.0
C653 C 0.51951 0.57812 0.00916 0.0
C654 C 0.48514 0.61208 0.0078 0.0
C655 C 0.49624 0.60715 0.02865 0.0
H656 H 0.86166 0.23475 0.27797 0.0
H657 H 0.90426 0.28506 0.24318 0.0
H658 H 0.89251 0.26927 0.20575 0.0
H659 H 0.86794 0.2432 0.18295 0.0
H660 H 0.82478 0.19337 0.21771 0.0
H661 H 0.83916 0.20687 0.25512 0.0
C662 C 0.86857 0.24216 0.26222 0.0
C663 C 0.88368 0.26122 0.26342 0.0
C664 C 0.86156 0.23315 0.24074 0.0
C665 C 0.89255 0.27045 0.2428 0.0
C666 C 0.88579 0.26147 0.22137 0.0
C667 C 0.86181 0.23511 0.19868 0.0
C668 C 0.84513 0.21741 0.1975 0.0
C669 C 0.86996 0.24312 0.22014 0.0
C670 C 0.83755 0.20705 0.21808 0.0
C671 C 0.84571 0.21482 0.2395 0.0
H672 H 0.51673 0.90884 0.03796 0.0
H673 H 0.48371 0.8787 0.97802 0.0
H674 H 0.44605 0.88655 0.99459 0.0
H675 H 0.42247 0.90459 0.02432 0.0
H676 H 0.45402 0.93058 0.08654 0.0
H677 H 0.49235 0.92226 0.07074 0.0
C678 C 0.50128 0.90375 0.02868 0.0
C679 C 0.50312 0.89342 0.00664 0.0
C680 C 0.47946 0.9081 0.03846 0.0
C681 C 0.48291 0.88667 0.99498 0.0
C682 C 0.46129 0.89127 1.00438 0.0
C683 C 0.43767 0.90838 0.03458 0.0
C684 C 0.43549 0.91966 0.05606 0.0
C685 C 0.45938 0.90241 0.02583 0.0
C686 C 0.45538 0.92362 0.0693 0.0
C687 C 0.47723 0.91833 0.06043 0.0
H688 H 0.14559 0.7257 0.33926 0.0
H689 H 0.17658 0.66669 0.30589 0.0
H690 H 0.15818 0.67713 0.26941 0.0
H691 H 0.13803 0.7061 0.24598 0.0
H692 H 0.10971 0.76654 0.27916 0.0
H693 H 0.1221 0.75229 0.3168 0.0
C694 C 0.14804 0.71486 0.32413 0.0
C695 C 0.16272 0.69564 0.32523 0.0
C696 C 0.13803 0.72136 0.30311 0.0
C697 C 0.1655 0.68169 0.30548 0.0
C698 C 0.15506 0.68771 0.28458 0.0
C699 C 0.1341 0.71588 0.26151 0.0
C700 C 0.12318 0.73745 0.25979 0.0
C701 C 0.14198 0.70797 0.28302 0.0
C702 C 0.11829 0.74998 0.28004 0.0
C703 C 0.12542 0.74188 0.30155 0.0
H704 H 0.98149 0.58074 0.02851 0.0
H705 H 0.03134 0.62798 0.99953 0.0
H706 H 0.01487 0.62195 0.9611 0.0
H707 H 0.9881 0.60131 0.93547 0.0
H708 H 0.93882 0.55341 0.96436 0.0
H709 H 0.95319 0.56188 1.00318 0.0
C710 C 0.98869 0.58986 0.01383 0.0
C711 C 0.00777 0.60464 0.01688 0.0
C712 C 0.97927 0.58616 0.99177 0.0
C713 C 0.01673 0.61644 0.99767 0.0
C714 C 0.00734 0.61297 0.97568 0.0
C715 C 0.98032 0.59287 0.95025 0.0
C716 C 0.96251 0.57661 0.94697 0.0
C717 C 0.98887 0.59758 0.97248 0.0
C718 C 0.95259 0.56594 0.96636 0.0
C719 C 0.96085 0.57072 0.98857 0.0
H720 H 0.83358 0.78333 0.23298 0.0
H721 H 0.87888 0.73342 0.26428 0.0
H722 H 0.86797 0.74712 0.30262 0.0
H723 H 0.8432 0.77078 0.32721 0.0
H724 H 0.79723 0.82025 0.29633 0.0
H725 H 0.81101 0.80938 0.25785 0.0
C726 C 0.84127 0.77563 0.24817 0.0
C727 C 0.85682 0.75719 0.24574 0.0
C728 C 0.83472 0.78341 0.27024 0.0
C729 C 0.86673 0.74751 0.26563 0.0
C730 C 0.86048 0.7553 0.28759 0.0
C731 C 0.83633 0.77936 0.31209 0.0
C732 C 0.81903 0.79609 0.31461 0.0
C733 C 0.84411 0.77285 0.29008 0.0
C734 C 0.81051 0.80724 0.29486 0.0
C735 C 0.81832 0.80097 0.27285 0.0
H736 H 0.01924 0.90726 0.94397 0.0
H737 H 0.07787 0.94263 0.97363 0.0
H738 H 0.0654 0.9314 0.01233 0.0
H739 H 0.03611 0.91451 0.03782 0.0
H740 H 0.97697 0.88 0.00813 0.0
H741 H 0.99154 0.88779 0.96933 0.0
C742 C 0.02945 0.91232 0.95886 0.0
C743 C 0.04933 0.92598 0.9559 0.0
C744 C 0.02202 0.90608 0.98107 0.0
C745 C 0.06244 0.93221 0.9754 0.0
C746 C 0.05528 0.92586 0.99756 0.0
C747 C 0.0265 0.90846 0.02288 0.0
C748 C 0.00534 0.8969 0.02591 0.0
C749 C 0.03482 0.91325 1.00062 0.0
C750 C 0.99323 0.88905 0.00633 0.0
C751 C 1.00153 0.89354 0.98412 0.0
H752 H 0.28443 0.17634 0.29931 0.0
H753 H 0.24598 0.13485 0.25046 0.0
H754 H 0.20996 0.14631 0.26905 0.0
H755 H 0.18933 0.17067 0.297 0.0
H756 H 0.22791 0.21302 0.34503 0.0
H757 H 0.26395 0.19842 0.32903 0.0
C758 C 0.26821 0.1696 0.29282 0.0
C759 C 0.26792 0.15494 0.27336 0.0
C760 C 0.24757 0.17649 0.30339 0.0
C761 C 0.24672 0.14626 0.26534 0.0
C762 C 0.2261 0.15284 0.27593 0.0
C763 C 0.20561 0.1765 0.30419 0.0
C764 C 0.20588 0.1931 0.32206 0.0
C765 C 0.2263 0.16834 0.29465 0.0
C766 C 0.22716 0.20038 0.33119 0.0
C767 C 0.2478 0.19208 0.32201 0.0
H768 H 0.3809 0.56706 0.9803 0.0
H769 H 0.42409 0.53981 0.92594 0.0
H770 H 0.41416 0.50051 0.93752 0.0
H771 H 0.3961 0.47405 0.96518 0.0
H772 H 0.35381 0.50129 0.02025 0.0
H773 H 0.36034 0.54046 0.00608 0.0
C774 C 0.38796 0.55255 0.97079 0.0
C775 C 0.40341 0.55642 0.95241 0.0
C776 C 0.38244 0.52999 0.97775 0.0
C777 C 0.41224 0.53737 0.94021 0.0
C778 C 0.40663 0.51487 0.94687 0.0
C779 C 0.38808 0.48851 0.97397 0.0
C780 C 0.37467 0.48472 0.99391 0.0
C781 C 0.39219 0.511 0.96594 0.0
C782 C 0.36428 0.50368 1.00493 0.0
C783 C 0.36808 0.52611 0.99688 0.0
H784 H 0.84537 0.36994 0.28251 0.0
H785 H 0.82421 0.3194 0.33297 0.0
H786 H 0.78381 0.3281 0.32511 0.0
H787 H 0.75462 0.34764 0.30157 0.0
H788 H 0.77599 0.39754 0.25054 0.0
H789 H 0.81621 0.39157 0.26113 0.0
C790 C 0.83195 0.36097 0.29199 0.0
C791 C 0.83783 0.34387 0.30814 0.0
C792 C 0.80878 0.36583 0.28718 0.0
C793 C 0.82019 0.33258 0.32038 0.0
C794 C 0.79707 0.33748 0.31584 0.0
C795 C 0.76804 0.3574 0.29291 0.0
C796 C 0.76227 0.37284 0.27511 0.0
C797 C 0.79117 0.3537 0.2989 0.0
C798 C 0.77991 0.38545 0.26421 0.0
C799 C 0.80294 0.38202 0.27022 0.0
H800 H 0.61754 0.92332 0.00762 0.0
H801 H 0.58638 0.95642 0.9487 0.0
H802 H 0.60219 0.99353 0.96106 0.0
H803 H 0.62175 0.01703 0.99021 0.0
H804 H 0.65138 0.98463 0.0503 0.0
H805 H 0.63966 0.94673 0.03558 0.0
C806 C 0.61443 0.9386 0.99733 0.0
C807 C 0.60059 0.93709 0.97736 0.0
C808 C 0.62327 0.96002 1.00475 0.0
C809 C 0.59678 0.95708 0.96423 0.0
C810 C 0.60583 0.97833 0.97128 0.0
C811 C 0.62598 1.00169 1.0 0.0
C812 C 0.63727 1.00375 0.02147 0.0
C813 C 0.61865 0.98007 0.99177 0.0
C814 C 0.64265 0.98361 0.03377 0.0
C815 C 0.63584 0.96192 0.02542 0.0
H816 H 0.21489 0.82234 0.17861 0.0
H817 H 0.17414 0.83695 0.2394 0.0
H818 H 0.20664 0.85703 0.25698 0.0
H819 H 0.24744 0.86778 0.25657 0.0
H820 H 0.28862 0.85286 0.1962 0.0
H821 H 0.25511 0.83596 0.17698 0.0
C822 C 0.21305 0.83011 0.1956 0.0
C823 C 0.19213 0.82786 0.20771 0.0
C824 C 0.23192 0.84159 0.20578 0.0
C825 C 0.19005 0.83819 0.22969 0.0
C826 C 0.20865 0.84972 0.23982 0.0
C827 C 0.24905 0.86115 0.23908 0.0
C828 C 0.27059 0.86143 0.22797 0.0
C829 C 0.22979 0.85113 0.22822 0.0
C830 C 0.27228 0.85279 0.20526 0.0
C831 C 0.25313 0.84302 0.19425 0.0
H832 H 0.11375 0.48367 0.03698 0.0
H833 H 0.1469 0.51669 0.97894 0.0
H834 H 0.13817 0.55454 0.99531 0.0
H835 H 0.11764 0.57811 0.02386 0.0
H836 H 0.08338 0.5451 0.08124 0.0
H837 H 0.09633 0.50743 0.06748 0.0
C838 C 0.11934 0.49913 0.02803 0.0
C839 C 0.1307 0.49732 0.00661 0.0
C840 C 0.11395 0.52087 0.03735 0.0
C841 C 0.13797 0.51755 0.99537 0.0
C842 C 0.13294 0.53924 1.00469 0.0
C843 C 0.11326 0.56273 0.03357 0.0
C844 C 0.0993 0.56443 0.05338 0.0
C845 C 0.1204 0.54108 0.02533 0.0
C846 C 0.09397 0.5443 0.06583 0.0
C847 C 0.1013 0.52272 0.05793 0.0
H848 H 0.81726 0.65816 0.20242 0.0
H849 H 0.78308 0.71666 0.17185 0.0
H850 H 0.74638 0.70371 0.18777 0.0
H851 H 0.72493 0.67841 0.21396 0.0
H852 H 0.75897 0.6202 0.24511 0.0
H853 H 0.79473 0.63032 0.22518 0.0
C854 C 0.80173 0.66789 0.19891 0.0
C855 C 0.80302 0.68856 0.18625 0.0
C856 C 0.78068 0.66054 0.20842 0.0
C857 C 0.78266 0.7008 0.18169 0.0
C858 C 0.76165 0.69347 0.19087 0.0
C859 C 0.7401 0.66778 0.21621 0.0
C860 C 0.73939 0.6488 0.23128 0.0
C861 C 0.76061 0.67379 0.20487 0.0
C862 C 0.75909 0.63499 0.23371 0.0
C863 C 0.77957 0.64081 0.22238 0.0
H864 H 0.91954 0.03276 0.04987 0.0
H865 H 0.87594 0.00512 0.99588 0.0
H866 H 0.88003 0.96645 0.01187 0.0
H867 H 0.89893 0.94012 0.03881 0.0
H868 H 0.94372 0.96751 0.09192 0.0
H869 H 0.93594 0.00671 0.07878 0.0
C870 C 0.91071 0.01834 0.04173 0.0
C871 C 0.89768 0.02181 0.02154 0.0
C872 C 0.91343 0.99608 0.05079 0.0
C873 C 0.88623 1.00292 0.01133 0.0
C874 C 0.88858 0.98078 0.02044 0.0
C875 C 0.90677 0.95465 0.04773 0.0
C876 C 0.92209 0.95085 0.06615 0.0
C877 C 0.9026 0.9771 0.03981 0.0
C878 C 0.93198 0.96992 0.0776 0.0
C879 C 0.9276 0.99235 0.07005 0.0
H880 H 0.27906 0.2669 0.15448 0.0
H881 H 0.22555 0.22972 0.11803 0.0
H882 H 0.24266 0.1931 0.12954 0.0
H883 H 0.27045 0.17178 0.15313 0.0
H884 H 0.32338 0.20901 0.19039 0.0
H885 H 0.30899 0.24543 0.17512 0.0
C886 C 0.27127 0.2508 0.1488 0.0
C887 C 0.25087 0.2511 0.13565 0.0
C888 C 0.28102 0.22979 0.15574 0.0
C889 C 0.24116 0.23004 0.12828 0.0
C890 C 0.2509 0.20906 0.13491 0.0
C891 C 0.27905 0.18782 0.15769 0.0
C892 C 0.2978 0.18765 0.17313 0.0
C893 C 0.27047 0.20875 0.14913 0.0
C894 C 0.30883 0.20861 0.17866 0.0
C895 C 0.30056 0.22948 0.17 0.0
H896 H 0.28721 0.78721 0.2745 0.0
H897 H 0.30917 0.81651 0.33961 0.0
H898 H 0.28926 0.78549 0.36037 0.0
H899 H 0.26419 0.75058 0.35987 0.0
H900 H 0.24216 0.7228 0.29399 0.0
H901 H 0.26333 0.75275 0.27388 0.0
C902 C 0.28788 0.78678 0.29324 0.0
C903 C 0.29969 0.80419 0.30543 0.0
C904 C 0.27612 0.76922 0.30501 0.0
C905 C 0.30025 0.80329 0.32974 0.0
C906 C 0.28876 0.78561 0.34164 0.0
C907 C 0.26402 0.75115 0.34114 0.0
C908 C 0.2515 0.73442 0.32855 0.0
C909 C 0.27635 0.76861 0.32945 0.0
C910 C 0.25158 0.73537 0.30424 0.0
C911 C 0.26374 0.75251 0.29262 0.0
H912 H 0.99578 0.47244 0.9083 0.0
H913 H 0.01938 0.53477 0.87512 0.0
H914 H 0.05942 0.52304 0.88095 0.0
H915 H 0.08752 0.49675 0.89874 0.0
H916 H 0.06343 0.43457 0.93204 0.0
H917 H 0.02377 0.4445 0.92266 0.0
C918 C 0.00968 0.48338 0.90215 0.0
C919 C 0.00464 0.50457 0.89157 0.0
C920 C 0.03256 0.4766 0.90568 0.0
C921 C 0.02281 0.51839 0.88337 0.0
C922 C 0.04571 0.51173 0.8868 0.0
C923 C 0.07363 0.48522 0.90371 0.0
C924 C 0.07847 0.46509 0.91635 0.0
C925 C 0.05077 0.49113 0.89842 0.0
C926 C 0.06024 0.45025 0.92244 0.0
C927 C 0.03752 0.45594 0.91715 0.0
H928 H 0.70417 0.77492 0.3338 0.0
H929 H 0.75489 0.73687 0.3725 0.0
H930 H 0.73866 0.70053 0.35812 0.0
H931 H 0.7121 0.67982 0.33214 0.0
H932 H 0.66208 0.71815 0.29273 0.0
H933 H 0.67595 0.75413 0.31 0.0
C934 C 0.71158 0.75869 0.3393 0.0
C935 C 0.73088 0.75866 0.35407 0.0
C936 C 0.70236 0.73791 0.33074 0.0
C937 C 0.7401 0.73743 0.36112 0.0
C938 C 0.73086 0.71663 0.35283 0.0
C939 C 0.70404 0.69601 0.32748 0.0
C940 C 0.68618 0.69625 0.31096 0.0
C941 C 0.7123 0.7167 0.33726 0.0
C942 C 0.67591 0.71741 0.30528 0.0
C943 C 0.68387 0.73803 0.31511 0.0
H944 H 0.43615 0.53485 0.4238 0.0
H945 H 0.46781 0.59476 0.45534 0.0
H946 H 0.50586 0.5806 0.44432 0.0
H947 H 0.53021 0.54976 0.42858 0.0
H948 H 0.49854 0.48948 0.39776 0.0
H949 H 0.4604 0.50538 0.40553 0.0
C950 C 0.45134 0.54497 0.42807 0.0
C951 C 0.44911 0.56574 0.44058 0.0
C952 C 0.47318 0.53659 0.42194 0.0
C953 C 0.469 0.57867 0.44581 0.0
C954 C 0.49079 0.57055 0.43957 0.0
C955 C 0.51498 0.54016 0.42336 0.0
C956 C 0.51726 0.51834 0.4128 0.0
C957 C 0.4931 0.54929 0.42809 0.0
C958 C 0.49732 0.50627 0.40599 0.0
C959 C 0.47548 0.51532 0.41048 0.0
H960 H 0.26583 0.77293 0.66079 0.0
H961 H 0.20455 0.73139 0.65198 0.0
H962 H 0.18135 0.76184 0.66969 0.0
H963 H 0.17897 0.79921 0.69029 0.0
H964 H 0.24084 0.83996 0.69935 0.0
H965 H 0.26316 0.81087 0.67897 0.0
C966 C 0.24736 0.77059 0.66248 0.0
C967 C 0.23701 0.74982 0.65518 0.0
C968 C 0.23419 0.78798 0.67296 0.0
C969 C 0.21301 0.74718 0.65747 0.0
C970 C 0.19973 0.76455 0.6677 0.0
C971 C 0.1973 0.8018 0.68765 0.0
C972 C 0.20818 0.82169 0.69657 0.0
C973 C 0.21021 0.78486 0.67594 0.0
C974 C 0.23196 0.82478 0.69287 0.0
C975 C 0.24481 0.80814 0.68117 0.0
H976 H 0.07031 0.57978 0.59652 0.0
H977 H 0.1026 0.51389 0.60847 0.0
H978 H 0.0673 0.49926 0.62591 0.0
H979 H 0.02626 0.50393 0.63473 0.0
H980 H 0.99383 0.56983 0.62327 0.0
H981 H 0.03016 0.58568 0.60912 0.0
C982 C 0.06968 0.56231 0.60315 0.0
C983 C 0.08903 0.54791 0.6009 0.0
C984 C 0.04924 0.55392 0.61324 0.0
C985 C 0.08797 0.52537 0.60983 0.0
C986 C 0.06774 0.51692 0.61979 0.0
C987 C 0.0272 0.52186 0.62946 0.0
C988 C 0.00723 0.53554 0.62984 0.0
C989 C 0.04812 0.53087 0.62116 0.0
C990 C 0.00886 0.55881 0.62312 0.0
C991 C 0.02964 0.5679 0.61488 0.0
H992 H 0.92217 0.00861 0.56882 0.0
H993 H 0.95237 0.94175 0.55626 0.0
H994 H 0.99056 0.95744 0.56553 0.0
H995 H 0.01514 0.99009 0.57801 0.0
H996 H 0.98425 0.05673 0.59039 0.0
H997 H 0.94653 0.04112 0.58019 0.0
C998 C 0.93706 0.99737 0.56813 0.0
C999 C 0.93436 0.97396 0.56201 0.0
C1000 C 0.95885 0.0065 0.57339 0.0
C1001 C 0.95393 0.9598 0.561 0.0
C1002 C 0.97577 0.96877 0.56629 0.0
C1003 C 1.00017 1.00123 0.57839 0.0
C1004 C 1.00255 0.02455 0.58512 0.0
C1005 C 0.97841 0.99209 0.5726 0.0
C1006 C 0.98296 0.03872 0.58543 0.0
C1007 C 0.96135 0.0298 0.5796 0.0
H1008 H 0.65131 0.78055 0.69316 0.0
H1009 H 0.68808 0.83309 0.73153 0.0
H1010 H 0.67155 0.8187 0.76759 0.0
H1011 H 0.64985 0.7888 0.78845 0.0
H1012 H 0.61381 0.73581 0.74995 0.0
H1013 H 0.62669 0.75298 0.71371 0.0
C1014 C 0.65552 0.78905 0.70937 0.0
C1015 C 0.67115 0.80769 0.70965 0.0
C1016 C 0.64619 0.78052 0.73005 0.0
C1017 C 0.67619 0.81865 0.7308 0.0
C1018 C 0.6668 0.81037 0.75145 0.0
C1019 C 0.64454 0.78116 0.77214 0.0
C1020 C 0.6311 0.76085 0.77197 0.0
C1021 C 0.65227 0.79094 0.75133 0.0
C1022 C 0.62425 0.75133 0.75064 0.0
C1023 C 0.63168 0.7611 0.72988 0.0
H1024 H 1.00299 0.06095 0.5063 0.0
H1025 H 0.01439 0.13461 0.50343 0.0
H1026 H 0.04627 0.13114 0.53067 0.0
H1027 H 0.07364 0.10674 0.55174 0.0
H1028 H 0.06374 0.03307 0.55297 0.0
H1029 H 0.02825 0.03694 0.53036 0.0
C1030 C 0.01222 0.07631 0.51187 0.0
C1031 C 0.00648 0.09798 0.50254 0.0
C1032 C 0.03081 0.07415 0.52727 0.0
C1033 C 0.01852 0.1177 0.51014 0.0
C1034 C 0.03682 0.11573 0.52569 0.0
C1035 C 0.06339 0.09162 0.5474 0.0
C1036 C 0.07087 0.06969 0.55436 0.0
C1037 C 0.04352 0.09399 0.53381 0.0
C1038 C 0.05779 0.05016 0.54844 0.0
C1039 C 0.03774 0.05237 0.53521 0.0
H1040 H 0.37141 0.7653 0.76835 0.0
H1041 H 0.30605 0.76819 0.80401 0.0
H1042 H 0.28826 0.74487 0.774 0.0
H1043 H 0.29015 0.72601 0.73653 0.0
H1044 H 0.35454 0.72316 0.69941 0.0
H1045 H 0.37382 0.74365 0.7312 0.0
C1046 C 0.35334 0.76064 0.7696 0.0
C1047 C 0.34008 0.76877 0.78832 0.0
C1048 C 0.34298 0.74721 0.75202 0.0
C1049 C 0.31668 0.76247 0.78972 0.0
C1050 C 0.30642 0.74905 0.77256 0.0
C1051 C 0.30847 0.72964 0.73542 0.0
C1052 C 0.32081 0.72325 0.71553 0.0
C1053 C 0.31927 0.7417 0.75346 0.0
C1054 C 0.3446 0.72791 0.71454 0.0
C1055 C 0.3556 0.73975 0.73266 0.0
H1056 H 0.97458 0.442 0.47819 0.0
H1057 H 0.01904 0.39896 0.51938 0.0
H1058 H 0.99967 0.41195 0.55447 0.0
H1059 H 0.97247 0.43781 0.57366 0.0
H1060 H 0.92819 0.48134 0.53289 0.0
H1061 H 0.94499 0.46564 0.49739 0.0
C1062 C 0.97988 0.43527 0.49481 0.0
C1063 C 0.99843 0.41972 0.49614 0.0
C1064 C 0.9688 0.44298 0.515 0.0
C1065 C 0.00493 0.41104 0.51783 0.0
C1066 C 0.99389 0.4185 0.53794 0.0
C1067 C 0.96633 0.44376 0.55702 0.0
C1068 C 0.9493 0.46094 0.55594 0.0
C1069 C 0.97618 0.43484 0.53675 0.0
C1070 C 0.94133 0.4682 0.53422 0.0
C1071 C 0.951 0.45929 0.51391 0.0
H1072 H 0.68041 0.22691 0.72707 0.0
H1073 H 0.62047 0.25608 0.76009 0.0
H1074 H 0.62576 0.23051 0.79316 0.0
H1075 H 0.65032 0.20365 0.81462 0.0
H1076 H 0.71042 0.17471 0.78161 0.0
H1077 H 0.70181 0.19599 0.74636 0.0
C1078 C 0.66835 0.22747 0.74139 0.0
C1079 C 0.65035 0.24364 0.74138 0.0
C1080 C 0.67153 0.21278 0.76033 0.0
C1081 C 0.63457 0.24388 0.75979 0.0
C1082 C 0.63762 0.22932 0.77873 0.0
C1083 C 0.66128 0.20163 0.79955 0.0
C1084 C 0.68119 0.18794 0.80087 0.0
C1085 C 0.65646 0.21423 0.77948 0.0
C1086 C 0.69504 0.18522 0.78111 0.0
C1087 C 0.69023 0.19754 0.76099 0.0
H1088 H 0.48763 0.09839 0.43101 0.0
H1089 H 0.42766 0.06764 0.46277 0.0
H1090 H 0.4389 0.0839 0.50014 0.0
H1091 H 0.46756 0.10373 0.52436 0.0
H1092 H 0.52802 0.13368 0.49276 0.0
H1093 H 0.51461 0.12104 0.45472 0.0
C1094 C 0.47685 0.09544 0.44604 0.0
C1095 C 0.45696 0.08158 0.4441 0.0
C1096 C 0.48358 0.10459 0.46754 0.0
C1097 C 0.44312 0.07813 0.46375 0.0
C1098 C 0.44958 0.08737 0.48516 0.0
C1099 C 0.4777 0.10775 0.50914 0.0
C1100 C 0.49891 0.11943 0.51148 0.0
C1101 C 0.47005 0.10015 0.48735 0.0
C1102 C 0.5117 0.12463 0.49152 0.0
C1103 C 0.50408 0.11733 0.46974 0.0
H1104 H 0.35485 0.24568 0.74548 0.0
H1105 H 0.31375 0.28863 0.70087 0.0
H1106 H 0.30374 0.31331 0.73347 0.0
H1107 H 0.30383 0.32087 0.77502 0.0
H1108 H 0.34309 0.27707 0.82037 0.0
H1109 H 0.35695 0.2549 0.78713 0.0
C1110 C 0.34389 0.26057 0.7429 0.0
C1111 C 0.33487 0.26513 0.72083 0.0
C1112 C 0.33785 0.27459 0.76186 0.0
C1113 C 0.32072 0.28452 0.71773 0.0
C1114 C 0.315 0.29873 0.73636 0.0
C1115 C 0.31577 0.30676 0.77764 0.0
C1116 C 0.32232 0.30058 0.80015 0.0
C1117 C 0.32309 0.29367 0.75856 0.0
C1118 C 0.3377 0.28213 0.8032 0.0
C1119 C 0.34555 0.26937 0.78421 0.0
H1120 H 0.52212 0.41433 0.45357 0.0
H1121 H 0.58465 0.44558 0.4796 0.0
H1122 H 0.57365 0.43539 0.51901 0.0
H1123 H 0.54458 0.42121 0.54623 0.0
H1124 H 0.48129 0.39143 0.52033 0.0
H1125 H 0.49446 0.39724 0.48067 0.0
C1126 C 0.53352 0.41866 0.46781 0.0
C1127 C 0.55406 0.43094 0.46364 0.0
C1128 C 0.52688 0.41315 0.49047 0.0
C1129 C 0.56866 0.43628 0.48232 0.0
C1130 C 0.56236 0.43051 0.50488 0.0
C1131 C 0.53376 0.41569 0.53194 0.0
C1132 C 0.51185 0.40614 0.53627 0.0
C1133 C 0.54123 0.4195 0.50919 0.0
C1134 C 0.49815 0.39898 0.51751 0.0
C1135 C 0.50565 0.40235 0.49481 0.0
H1136 H 0.67625 0.6639 0.79674 0.0
H1137 H 0.71097 0.71584 0.83784 0.0
H1138 H 0.74773 0.7051 0.82058 0.0
H1139 H 0.76951 0.68327 0.7918 0.0
H1140 H 0.7352 0.63181 0.74988 0.0
H1141 H 0.69878 0.63999 0.76962 0.0
C1142 C 0.6919 0.67265 0.80218 0.0
C1143 C 0.69078 0.69079 0.81847 0.0
C1144 C 0.71302 0.66664 0.79189 0.0
C1145 C 0.71126 0.70192 0.82527 0.0
C1146 C 0.73231 0.69584 0.81536 0.0
C1147 C 0.75412 0.6737 0.78702 0.0
C1148 C 0.75504 0.65711 0.7692 0.0
C1149 C 0.7333 0.67861 0.79829 0.0
C1150 C 0.73496 0.64473 0.76347 0.0
C1151 C 0.71413 0.64944 0.77472 0.0
H1152 H 0.89995 0.98293 0.46341 0.0
H1153 H 0.85684 0.01383 0.51582 0.0
H1154 H 0.86801 0.05228 0.50259 0.0
H1155 H 0.89365 0.07681 0.4794 0.0
H1156 H 0.93821 0.04558 0.4284 0.0
H1157 H 0.92268 0.00755 0.43776 0.0
C1158 C 0.89267 0.99805 0.47173 0.0
C1159 C 0.8778 0.99549 0.49078 0.0
C1160 C 0.89964 0.02006 0.46445 0.0
C1161 C 0.86841 0.01529 0.50121 0.0
C1162 C 0.87489 0.0373 0.49372 0.0
C1163 C 0.89974 0.06174 0.47007 0.0
C1164 C 0.9173 0.06402 0.45343 0.0
C1165 C 0.89108 0.03985 0.47587 0.0
C1166 C 0.92487 0.04431 0.44143 0.0
C1167 C 0.91602 0.02254 0.4468 0.0
H1168 H 0.262 0.89077 0.7824 0.0
H1169 H 0.21516 0.8588 0.83073 0.0
H1170 H 0.24752 0.84659 0.85451 0.0
H1171 H 0.28917 0.84064 0.85889 0.0
H1172 H 0.33597 0.87199 0.8101 0.0
H1173 H 0.30364 0.88903 0.78954 0.0
C1174 C 0.25883 0.88146 0.79833 0.0
C1175 C 0.23618 0.87538 0.80451 0.0
C1176 C 0.27756 0.87419 0.81182 0.0
C1177 C 0.23241 0.86353 0.82537 0.0
C1178 C 0.25094 0.85646 0.83899 0.0
C1179 C 0.29235 0.85158 0.84405 0.0
C1180 C 0.31497 0.85467 0.83586 0.0
C1181 C 0.27361 0.86103 0.83199 0.0
C1182 C 0.31873 0.86905 0.81666 0.0
C1183 C 0.30023 0.87877 0.8048 0.0
H1184 H 0.15203 0.48278 0.53549 0.0
H1185 H 0.1223 0.53439 0.49101 0.0
H1186 H 0.10547 0.50424 0.46675 0.0
H1187 H 0.09583 0.46339 0.46043 0.0
H1188 H 0.12464 0.41182 0.50553 0.0
H1189 H 0.14533 0.44172 0.52698 0.0
C1190 C 0.14217 0.48745 0.5203 0.0
C1191 C 0.13824 0.51085 0.5153 0.0
C1192 C 0.13219 0.47 0.50656 0.0
C1193 C 0.12545 0.51653 0.49546 0.0
C1194 C 0.11576 0.49929 0.48154 0.0
C1195 C 0.10693 0.45864 0.47471 0.0
C1196 C 0.10844 0.4354 0.48149 0.0
C1197 C 0.1185 0.47598 0.48727 0.0
C1198 C 0.12297 0.42959 0.50002 0.0
C1199 C 0.1348 0.44669 0.51237 0.0
H1200 H 0.76079 0.36026 0.75568 0.0
H1201 H 0.80299 0.33026 0.70198 0.0
H1202 H 0.76869 0.31958 0.68018 0.0
H1203 H 0.72672 0.31575 0.67779 0.0
H1204 H 0.6843 0.34538 0.73148 0.0
H1205 H 0.71858 0.35936 0.75157 0.0
C1206 C 0.76248 0.35165 0.73908 0.0
C1207 C 0.78445 0.34585 0.73066 0.0
C1208 C 0.74261 0.34533 0.72661 0.0
C1209 C 0.78631 0.33478 0.70904 0.0
C1210 C 0.76668 0.32861 0.69651 0.0
C1211 C 0.72494 0.32549 0.69374 0.0
C1212 C 0.70296 0.32925 0.70319 0.0
C1213 C 0.74474 0.33333 0.70537 0.0
C1214 C 0.701 0.34208 0.72383 0.0
C1215 C 0.72062 0.35005 0.73541 0.0
H1216 H 0.57785 0.98295 0.54859 0.0
H1217 H 0.62825 1.00365 0.49772 0.0
H1218 H 0.62394 0.04389 0.50955 0.0
H1219 H 0.60361 0.07339 0.53202 0.0
H1220 H 0.5524 0.05286 0.58213 0.0
H1221 H 0.5595 0.0123 0.57303 0.0
C1222 C 0.58808 0.99621 0.54023 0.0
C1223 C 0.60318 0.9903 0.52213 0.0
C1224 C 0.5853 0.01936 0.5469 0.0
C1225 C 0.61639 0.00772 0.5116 0.0
C1226 C 0.61391 0.03075 0.51832 0.0
C1227 C 0.59416 0.06006 0.54116 0.0
C1228 C 0.57734 0.06618 0.55757 0.0
C1229 C 0.59806 0.03681 0.5356 0.0
C1230 C 0.56536 0.04865 0.56933 0.0
C1231 C 0.56936 0.02544 0.56409 0.0
H1232 H 0.28318 0.199 0.67967 0.0
H1233 H 0.31428 0.13217 0.68922 0.0
H1234 H 0.27984 0.11873 0.70954 0.0
H1235 H 0.24267 0.12747 0.72837 0.0
H1236 H 0.21321 0.1953 0.72045 0.0
H1237 H 0.24519 0.20677 0.69577 0.0
C1238 C 0.2823 0.18134 0.68578 0.0
C1239 C 0.30136 0.16668 0.68307 0.0
C1240 C 0.26283 0.17399 0.69809 0.0
C1241 C 0.29989 0.14387 0.69117 0.0
C1242 C 0.28024 0.1362 0.70291 0.0
C1243 C 0.24315 0.14465 0.72101 0.0
C1244 C 0.22573 0.16057 0.72648 0.0
C1245 C 0.2619 0.15135 0.70711 0.0
C1246 C 0.22655 0.18278 0.71678 0.0
C1247 C 0.24481 0.18937 0.70259 0.0
H1248 H 0.40264 0.46031 0.55719 0.0
H1249 H 0.46131 0.48716 0.59466 0.0
H1250 H 0.45479 0.52532 0.57826 0.0
H1251 H 0.43465 0.55007 0.55065 0.0
H1252 H 0.37652 0.52299 0.5125 0.0
H1253 H 0.38057 0.48591 0.53196 0.0
C1254 C 0.41385 0.47456 0.56201 0.0
C1255 C 0.43259 0.4708 0.57692 0.0
C1256 C 0.41023 0.49636 0.55225 0.0
C1257 C 0.44683 0.48952 0.58312 0.0
C1258 C 0.44317 0.51135 0.57368 0.0
C1259 C 0.42273 0.53613 0.54672 0.0
C1260 C 0.40549 0.53921 0.52994 0.0
C1261 C 0.42528 0.5148 0.55779 0.0
C1262 C 0.39004 0.52104 0.52524 0.0
C1263 C 0.39236 0.49981 0.53633 0.0
H1264 H 0.82244 0.73332 0.72416 0.0
H1265 H 0.79423 0.69188 0.66868 0.0
H1266 H 0.77539 0.72578 0.65268 0.0
H1267 H 0.76364 0.76623 0.65668 0.0
H1268 H 0.79127 0.80753 0.71254 0.0
H1269 H 0.81367 0.77469 0.72599 0.0
C1270 C 0.81249 0.73175 0.70836 0.0
C1271 C 0.80954 0.71001 0.69783 0.0
C1272 C 0.80135 0.75126 0.69942 0.0
C1273 C 0.79665 0.70835 0.67728 0.0
C1274 C 0.78578 0.72773 0.66814 0.0
C1275 C 0.77474 0.76813 0.67165 0.0
C1276 C 0.77551 0.78923 0.68375 0.0
C1277 C 0.78746 0.74911 0.67944 0.0
C1278 C 0.79019 0.79144 0.70298 0.0
C1279 C 0.80301 0.77265 0.71073 0.0
H1280 H 0.82483 0.26265 0.77742 0.0
H1281 H 0.81541 0.30498 0.83825 0.0
H1282 H 0.79366 0.27394 0.85672 0.0
H1283 H 0.77457 0.23578 0.85432 0.0
H1284 H 0.78451 0.19384 0.79323 0.0
H1285 H 0.80866 0.22367 0.77629 0.0
C1286 C 0.81829 0.26502 0.79484 0.0
C1287 C 0.82159 0.28621 0.80629 0.0
C1288 C 0.8056 0.24721 0.80528 0.0
C1289 C 0.81311 0.28887 0.82895 0.0
C1290 C 0.80053 0.27116 0.83951 0.0
C1291 C 0.78215 0.23313 0.83738 0.0
C1292 C 0.77749 0.21267 0.82502 0.0
C1293 C 0.79619 0.25043 0.82763 0.0
C1294 C 0.78766 0.20943 0.80315 0.0
C1295 C 0.80151 0.22651 0.79338 0.0
H1296 H 0.53674 0.93367 0.45586 0.0
H1297 H 0.57835 0.9658 0.40302 0.0
H1298 H 0.54423 0.98414 0.38692 0.0
H1299 H 0.50326 0.99397 0.39002 0.0
H1300 H 0.46178 0.96231 0.44324 0.0
H1301 H 0.49513 0.94083 0.45685 0.0
C1302 C 0.53831 0.94441 0.44062 0.0
C1303 C 0.56012 0.94855 0.43085 0.0
C1304 C 0.51867 0.95521 0.43161 0.0
C1305 C 0.56181 0.96244 0.41103 0.0
C1306 C 0.5423 0.97301 0.40182 0.0
C1307 C 0.50145 0.9822 0.40446 0.0
C1308 C 0.48011 0.98 0.41576 0.0
C1309 C 0.52075 0.97001 0.41234 0.0
C1310 C 0.47804 0.9645 0.43431 0.0
C1311 C 0.49712 0.9522 0.44214 0.0
H1312 H 0.23861 0.23661 0.85976 0.0
H1313 H 0.22205 0.28547 0.80632 0.0
H1314 H 0.19249 0.25954 0.79113 0.0
H1315 H 0.17475 0.22129 0.79001 0.0
H1316 H 0.19362 0.17053 0.84084 0.0
H1317 H 0.21845 0.19881 0.86027 0.0
C1318 C 0.22818 0.24165 0.84509 0.0
C1319 C 0.23252 0.26279 0.83407 0.0
C1320 C 0.2117 0.22622 0.83587 0.0
C1321 C 0.21912 0.26914 0.81492 0.0
C1322 C 0.2022 0.25434 0.80623 0.0
C1323 C 0.18384 0.21657 0.80566 0.0
C1324 C 0.18237 0.19386 0.81394 0.0
C1325 C 0.19882 0.23258 0.81612 0.0
C1326 C 0.19452 0.18793 0.83409 0.0
C1327 C 0.20882 0.20406 0.84515 0.0
H1328 H 0.00582 0.0098 0.88851 0.0
H1329 H 0.04177 0.03416 0.94932 0.0
H1330 H 0.00896 0.05802 0.95982 0.0
H1331 H 0.96902 0.06967 0.95355 0.0
H1332 H 0.93269 0.04552 0.89293 0.0
H1333 H 0.96678 0.02431 0.88042 0.0
C1334 C 0.00653 0.02047 0.90396 0.0
C1335 C 0.02614 0.01994 0.91822 0.0
C1336 C 0.98752 0.03423 0.90998 0.0
C1337 C 0.02686 0.03407 0.93806 0.0
C1338 C 0.00808 0.04775 0.94413 0.0
C1339 C 0.96862 0.06003 0.93744 0.0
C1340 C 0.94822 0.059 0.92437 0.0
C1341 C 0.98817 0.04764 0.93047 0.0
C1342 C 0.94812 0.04656 0.90343 0.0
C1343 C 0.96758 0.0343 0.89629 0.0
H1344 H 0.73593 0.24209 0.18762 0.0
H1345 H 0.77747 0.27036 0.13262 0.0
H1346 H 0.7619 0.30878 0.1404 0.0
H1347 H 0.73903 0.33475 0.16501 0.0
H1348 H 0.69755 0.30625 0.22 0.0
H1349 H 0.71038 0.26747 0.20982 0.0
C1350 C 0.74145 0.25662 0.17719 0.0
C1351 C 0.75805 0.25342 0.15975 0.0
C1352 C 0.73249 0.27863 0.1818 0.0
C1353 C 0.76477 0.27236 0.14619 0.0
C1354 C 0.75593 0.29435 0.15069 0.0
C1355 C 0.73257 0.32004 0.17461 0.0
C1356 C 0.71755 0.32347 0.19342 0.0
C1357 C 0.74016 0.29776 0.16878 0.0
C1358 C 0.70919 0.30417 0.20551 0.0
C1359 C 0.71659 0.28196 0.19976 0.0
H1360 H 0.57232 0.01491 0.07812 0.0
H1361 H 0.5434 0.07685 0.049 0.0
H1362 H 0.50451 0.06143 0.05486 0.0
H1363 H 0.47885 0.03026 0.06813 0.0
H1364 H 0.50819 0.96813 0.09655 0.0
H1365 H 0.54687 0.98373 0.09088 0.0
C1366 C 0.55754 0.02516 0.07317 0.0
C1367 C 0.56078 0.04709 0.06326 0.0
C1368 C 0.53532 0.01608 0.07632 0.0
C1369 C 0.54139 0.05996 0.05673 0.0
C1370 C 0.51917 0.05113 0.06003 0.0
C1371 C 0.49369 0.02008 0.07302 0.0
C1372 C 0.49057 0.99806 0.08282 0.0
C1373 C 0.51594 0.02917 0.06974 0.0
C1374 C 0.51004 0.98513 0.08903 0.0
C1375 C 0.53219 0.99406 0.08583 0.0
H1376 H 0.48611 0.50034 0.11486 0.0
H1377 H 0.52395 0.44781 0.07794 0.0
H1378 H 0.48804 0.42921 0.06641 0.0
H1379 H 0.4458 0.42941 0.06421 0.0
H1380 H 0.40786 0.48204 0.10087 0.0
H1381 H 0.44374 0.4988 0.11511 0.0
C1382 C 0.4865 0.48466 0.10456 0.0
C1383 C 0.50773 0.47566 0.09713 0.0
C1384 C 0.4657 0.47408 0.09773 0.0
C1385 C 0.50788 0.45527 0.08379 0.0
C1386 C 0.48732 0.44459 0.07712 0.0
C1387 C 0.44536 0.44441 0.07549 0.0
C1388 C 0.42414 0.45453 0.08125 0.0
C1389 C 0.46612 0.45411 0.08357 0.0
C1390 C 0.42393 0.47391 0.09601 0.0
C1391 C 0.44447 0.48357 0.10418 0.0
H1392 H 0.08826 0.25608 0.3999 0.0
H1393 H 0.15234 0.28069 0.37094 0.0
H1394 H 0.14809 0.31714 0.39176 0.0
H1395 H 0.12406 0.34357 0.41458 0.0
H1396 H 0.05952 0.31921 0.44269 0.0
H1397 H 0.06626 0.2811 0.42602 0.0
C1398 C 0.10149 0.26927 0.39838 0.0
C1399 C 0.12041 0.26574 0.3836 0.0
C1400 C 0.09877 0.29036 0.41012 0.0
C1401 C 0.13749 0.28297 0.38205 0.0
C1402 C 0.13504 0.30389 0.3939 0.0
C1403 C 0.11162 0.32985 0.41736 0.0
C1404 C 0.09116 0.33439 0.4296 0.0
C1405 C 0.11542 0.30802 0.40742 0.0
C1406 C 0.07533 0.3163 0.43319 0.0
C1407 C 0.07913 0.29448 0.4236 0.0
H1408 H 0.54671 0.6767 0.83692 0.0
H1409 H 0.59085 0.61737 0.84412 0.0
H1410 H 0.55932 0.59573 0.86188 0.0
H1411 H 0.52044 0.59505 0.87897 0.0
H1412 H 0.47719 0.65522 0.87318 0.0
H1413 H 0.50706 0.67498 0.85112 0.0
C1414 C 0.54938 0.65892 0.84204 0.0
C1415 C 0.57121 0.64877 0.83936 0.0
C1416 C 0.53135 0.64674 0.85269 0.0
C1417 C 0.57428 0.62569 0.84609 0.0
C1418 C 0.55626 0.6133 0.85632 0.0
C1419 C 0.51741 0.61234 0.87255 0.0
C1420 C 0.49667 0.62369 0.87791 0.0
C1421 C 0.53489 0.62385 0.86026 0.0
C1422 C 0.49307 0.64613 0.8695 0.0
C1423 C 0.51015 0.65748 0.85688 0.0
H1424 H 0.88341 0.23348 0.38261 0.0
H1425 H 0.9458 0.27345 0.37425 0.0
H1426 H 0.96661 0.24661 0.39875 0.0
H1427 H 0.96805 0.21028 0.41989 0.0
H1428 H 0.90637 0.16911 0.42728 0.0
H1429 H 0.88434 0.19807 0.40617 0.0
C1430 C 0.90149 0.23644 0.38637 0.0
C1431 C 0.91304 0.25534 0.37639 0.0
C1432 C 0.91354 0.22069 0.40027 0.0
C1433 C 0.9365 0.25892 0.38147 0.0
C1434 C 0.94845 0.24359 0.39553 0.0
C1435 C 0.94971 0.20776 0.41721 0.0
C1436 C 0.93894 0.18747 0.42504 0.0
C1437 C 0.93728 0.22418 0.40463 0.0
C1438 C 0.91515 0.18453 0.42136 0.0
C1439 C 0.90254 0.20105 0.40921 0.0
H1440 H 0.49627 0.89726 0.89605 0.0
H1441 H 0.53231 0.83822 0.86845 0.0
H1442 H 0.49827 0.82715 0.84623 0.0
H1443 H 0.45675 0.83146 0.83863 0.0
H1444 H 0.42082 0.89039 0.86672 0.0
H1445 H 0.45632 0.90431 0.88442 0.0
C1446 C 0.49683 0.88219 0.88487 0.0
C1447 C 0.51673 0.86842 0.88424 0.0
C1448 C 0.47708 0.87573 0.87235 0.0
C1449 C 0.5172 0.84909 0.86942 0.0
C1450 C 0.49767 0.84266 0.85676 0.0
C1451 C 0.45677 0.84756 0.84826 0.0
C1452 C 0.43602 0.85961 0.85164 0.0
C1453 C 0.47727 0.85541 0.8587 0.0
C1454 C 0.43645 0.88057 0.86403 0.0
C1455 C 0.45676 0.88856 0.87425 0.0
H1456 H 0.11232 0.74667 0.13864 0.0
H1457 H 0.16727 0.70822 0.17055 0.0
H1458 H 0.15664 0.67408 0.14793 0.0
H1459 H 0.12914 0.6541 0.12224 0.0
H1460 H 0.07377 0.69268 0.09115 0.0
H1461 H 0.08729 0.72778 0.11022 0.0
C1462 C 0.1222 0.73093 0.14045 0.0
C1463 C 0.14039 0.72996 0.15651 0.0
C1464 C 0.11577 0.71128 0.12769 0.0
C1465 C 0.15314 0.70947 0.1584 0.0
C1466 C 0.14698 0.68987 0.14555 0.0
C1467 C 0.12019 0.67023 0.1194 0.0
C1468 C 0.10028 0.67063 0.1055 0.0
C1469 C 0.12792 0.6904 0.13064 0.0
C1470 C 0.08903 0.69177 0.10188 0.0
C1471 C 0.09672 0.71189 0.11282 0.0
H1472 H 0.91947 0.63461 0.14995 0.0
H1473 H 0.94935 0.6861 0.19519 0.0
H1474 H 0.98789 0.67449 0.18329 0.0
H1475 H 0.01281 0.6531 0.15664 0.0
H1476 H 0.98292 0.60248 0.11043 0.0
H1477 H 0.94481 0.61016 0.12639 0.0
C1478 C 0.93441 0.64304 0.1575 0.0
C1479 C 0.93148 0.66143 0.17316 0.0
C1480 C 0.95657 0.63657 0.15028 0.0
C1481 C 0.95106 0.67205 0.1829 0.0
C1482 C 0.97315 0.66546 0.17608 0.0
C1483 C 0.99804 0.64346 0.15031 0.0
C1484 C 1.00071 0.62751 0.13212 0.0
C1485 C 0.97608 0.64826 0.15924 0.0
C1486 C 0.98136 0.61504 0.12428 0.0
C1487 C 0.95951 0.61946 0.13334 0.0
H1488 H 0.87561 0.77533 0.1438 0.0
H1489 H 0.91263 0.72529 0.10276 0.0
H1490 H 0.92919 0.75624 0.0795 0.0
H1491 H 0.93666 0.79759 0.07385 0.0
H1492 H 0.90018 0.84754 0.11553 0.0
H1493 H 0.87975 0.81652 0.13527 0.0
C1494 C 0.88704 0.77115 0.12956 0.0
C1495 C 0.89315 0.74805 0.12528 0.0
C1496 C 0.89677 0.78903 0.11646 0.0
C1497 C 0.90776 0.74293 0.10657 0.0
C1498 C 0.91732 0.76064 0.09329 0.0
C1499 C 0.924 0.80172 0.08701 0.0
C1500 C 0.92025 0.82486 0.09343 0.0
C1501 C 0.9125 0.78377 0.09855 0.0
C1502 C 0.90359 0.82989 0.11036 0.0
C1503 C 0.89191 0.81215 0.12173 0.0
H1504 H 0.98129 0.84113 0.16417 0.0
H1505 H 0.02724 0.88722 0.12782 0.0
H1506 H 0.06002 0.87147 0.14881 0.0
H1507 H 0.07597 0.84235 0.17476 0.0
H1508 H 0.03025 0.79529 0.21013 0.0
H1509 H 0.99703 0.81387 0.19235 0.0
C1510 C 0.99842 0.84797 0.16105 0.0
C1511 C 1.00181 0.86518 0.14429 0.0
C1512 C 0.01727 0.83854 0.17286 0.0
C1513 C 0.02414 0.87386 0.14051 0.0
C1514 C 0.04293 0.86483 0.15247 0.0
C1515 C 0.05874 0.83628 0.1788 0.0
C1516 C 0.05564 0.81728 0.19357 0.0
C1517 C 0.03975 0.8468 0.16825 0.0
C1518 C 0.03316 0.80978 0.19871 0.0
C1519 C 0.01414 0.82037 0.18851 0.0
H1520 H 0.40057 0.09397 0.25445 0.0
H1521 H 0.36426 0.14969 0.28811 0.0
H1522 H 0.38275 0.14029 0.32472 0.0
H1523 H 0.40507 0.11313 0.34808 0.0
H1524 H 0.44011 0.05646 0.31467 0.0
H1525 H 0.42652 0.06958 0.27708 0.0
C1526 C 0.39699 0.10434 0.26968 0.0
C1527 C 0.38075 0.12227 0.26858 0.0
C1528 C 0.4073 0.09853 0.29082 0.0
C1529 C 0.3765 0.13563 0.28848 0.0
C1530 C 0.38702 0.13022 0.30948 0.0
C1531 C 0.41008 0.10386 0.33255 0.0
C1532 C 0.42328 0.08362 0.33427 0.0
C1533 C 0.4018 0.11121 0.31101 0.0
C1534 C 0.42978 0.07196 0.31392 0.0
C1535 C 0.42195 0.07941 0.29238 0.0
H1536 H 0.34254 0.36406 0.9968 0.0
H1537 H 0.40743 0.37785 0.96302 0.0
H1538 H 0.39523 0.35477 0.9297 0.0
H1539 H 0.36473 0.33385 0.90872 0.0
H1540 H 0.29985 0.32013 0.94259 0.0
H1541 H 0.31361 0.33973 0.97741 0.0
C1542 C 0.35412 0.36184 0.98225 0.0
C1543 C 0.37576 0.37294 0.98229 0.0
C1544 C 0.34697 0.34861 0.96312 0.0
C1545 C 0.39066 0.36959 0.96343 0.0
C1546 C 0.38366 0.35645 0.94432 0.0
C1547 C 0.35369 0.33485 0.92382 0.0
C1548 C 0.33117 0.32575 0.92289 0.0
C1549 C 0.36164 0.34635 0.94375 0.0
C1550 C 0.31722 0.32702 0.94274 0.0
C1551 C 0.32504 0.33835 0.96265 0.0
H1552 H 0.65937 0.38244 0.3046 0.0
H1553 H 0.61432 0.41973 0.25872 0.0
H1554 H 0.59127 0.43253 0.29159 0.0
H1555 H 0.58598 0.43602 0.33355 0.0
H1556 H 0.63118 0.39898 0.37948 0.0
H1557 H 0.65184 0.38301 0.34639 0.0
C1558 C 0.64437 0.39317 0.30175 0.0
C1559 C 0.63878 0.40033 0.27923 0.0
C1560 C 0.63124 0.40062 0.32076 0.0
C1561 C 0.61913 0.41404 0.27586 0.0
C1562 C 0.60594 0.42144 0.29467 0.0
C1563 C 0.60015 0.42422 0.33634 0.0
C1564 C 0.60716 0.41895 0.359 0.0
C1565 C 0.61215 0.41526 0.31723 0.0
C1566 C 0.62546 0.40346 0.36225 0.0
C1567 C 0.63737 0.39437 0.34332 0.0
H1568 H 0.62646 0.11308 0.96531 0.0
H1569 H 0.67055 0.1566 0.00706 0.0
H1570 H 0.68685 0.1738 0.97221 0.0
H1571 H 0.6917 0.17328 0.92988 0.0
H1572 H 0.64824 0.12879 0.88848 0.0
H1573 H 0.62849 0.11544 0.92313 0.0
C1574 C 0.63941 0.12655 0.96683 0.0
C1575 C 0.64747 0.13328 0.98879 0.0
C1576 C 0.64899 0.13612 0.94673 0.0
C1577 C 0.66411 0.15094 0.99039 0.0
C1578 C 0.67352 0.16076 0.97045 0.0
C1579 C 0.67763 0.16099 0.92841 0.0
C1580 C 0.67167 0.15185 0.90663 0.0
C1581 C 0.66656 0.15302 0.94851 0.0
C1582 C 0.65336 0.13594 0.90504 0.0
C1583 C 0.64206 0.12824 0.92487 0.0
H1584 H 0.36953 0.86728 0.22022 0.0
H1585 H 0.39732 0.92501 0.25873 0.0
H1586 H 0.41845 0.9378 0.22465 0.0
H1587 H 0.42568 0.93505 0.1829 0.0
H1588 H 0.39757 0.87758 0.14425 0.0
H1589 H 0.38024 0.86219 0.1794 0.0
C1590 C 0.38049 0.88245 0.22128 0.0
C1591 C 0.38154 0.8953 0.24197 0.0
C1592 C 0.39244 0.88992 0.2015 0.0
C1593 C 0.39599 0.91484 0.24302 0.0
C1594 C 0.40807 0.92224 0.22349 0.0
C1595 C 0.41606 0.91897 0.1822 0.0
C1596 C 0.41271 0.90769 0.16085 0.0
C1597 C 0.40589 0.9103 0.20247 0.0
C1598 C 0.40032 0.88676 0.16037 0.0
C1599 C 0.39032 0.87795 0.18048 0.0
H1600 H 0.17651 0.31731 0.04722 0.0
H1601 H 0.12589 0.35269 0.0889 0.0
H1602 H 0.11592 0.3771 0.05617 0.0
H1603 H 0.12444 0.39111 0.01704 0.0
H1604 H 0.17518 0.35582 0.97545 0.0
H1605 H 0.1821 0.32865 0.00678 0.0
C1606 C 0.16303 0.3301 0.04906 0.0
C1607 C 0.1522 0.33333 0.0706 0.0
C1608 C 0.15757 0.34431 0.03025 0.0
C1609 C 0.13463 0.34987 0.07258 0.0
C1610 C 0.12898 0.36395 0.05389 0.0
C1611 C 0.13685 0.37734 0.01474 0.0
C1612 C 0.14949 0.37572 0.99404 0.0
C1613 C 0.14082 0.36178 0.03286 0.0
C1614 C 0.16529 0.35758 0.99124 0.0
C1615 C 0.1693 0.34204 0.00918 0.0
H1616 H 0.63833 0.6258 0.19801 0.0
H1617 H 0.62255 0.58879 0.26068 0.0
H1618 H 0.59456 0.56501 0.23984 0.0
H1619 H 0.57771 0.55192 0.20293 0.0
H1620 H 0.5934 0.58932 0.14041 0.0
H1621 H 0.61799 0.61578 0.16213 0.0
C1622 C 0.62853 0.61276 0.20719 0.0
C1623 C 0.6328 0.60891 0.2308 0.0
C1624 C 0.61253 0.59903 0.19508 0.0
C1625 C 0.61971 0.59211 0.24249 0.0
C1626 C 0.60376 0.57839 0.23055 0.0
C1627 C 0.58624 0.56606 0.1941 0.0
C1628 C 0.58392 0.56836 0.16999 0.0
C1629 C 0.60051 0.58125 0.2067 0.0
C1630 C 0.59493 0.58697 0.15891 0.0
C1631 C 0.6091 0.60212 0.17131 0.0
H1632 H 0.83857 0.18986 0.07065 0.0
H1633 H 0.87668 0.14497 0.116 0.0
H1634 H 0.89522 0.12691 0.08275 0.0
H1635 H 0.8972 0.12076 0.04084 0.0
H1636 H 0.8585 0.16504 0.99539 0.0
H1637 H 0.84392 0.18657 0.02861 0.0
C1638 C 0.8512 0.17638 0.07329 0.0
C1639 C 0.85593 0.16856 0.0958 0.0
C1640 C 0.86159 0.16579 0.05405 0.0
C1641 C 0.8725 0.1512 0.09888 0.0
C1642 C 0.8831 0.14079 0.07986 0.0
C1643 C 0.88586 0.13534 0.03815 0.0
C1644 C 0.87871 0.14102 0.01564 0.0
C1645 C 0.87724 0.14746 0.05735 0.0
C1646 C 0.86417 0.16013 0.01251 0.0
C1647 C 0.85574 0.17243 0.03153 0.0
H1648 H 0.27689 0.4299 0.06957 0.0
H1649 H 0.33136 0.38737 0.09681 0.0
H1650 H 0.3032 0.36413 0.11765 0.0
H1651 H 0.26292 0.35314 0.12458 0.0
H1652 H 0.20838 0.39545 0.09718 0.0
H1653 H 0.23674 0.42161 0.08035 0.0
C1654 C 0.28264 0.41576 0.08032 0.0
C1655 C 0.3062 0.41021 0.08127 0.0
C1656 C 0.26631 0.40228 0.09217 0.0
C1657 C 0.31334 0.39196 0.09554 0.0
C1658 C 0.29722 0.37858 0.10746 0.0
C1659 C 0.25722 0.36829 0.11525 0.0
C1660 C 0.23354 0.3721 0.11188 0.0
C1661 C 0.27363 0.38315 0.10535 0.0
C1662 C 0.22648 0.39197 0.09995 0.0
C1663 C 0.24271 0.40692 0.09019 0.0
H1664 H 0.26495 0.62562 0.39944 0.0
H1665 H 0.30498 0.65342 0.34305 0.0
H1666 H 0.33996 0.63702 0.35951 0.0
H1667 H 0.35973 0.61905 0.39239 0.0
H1668 H 0.31958 0.59229 0.44922 0.0
H1669 H 0.28416 0.60387 0.42999 0.0
C1670 C 0.28125 0.62779 0.39052 0.0
C1671 C 0.28236 0.64106 0.37024 0.0
C1672 C 0.30137 0.61872 0.4003 0.0
C1673 C 0.30362 0.64346 0.3588 0.0
C1674 C 0.32368 0.63417 0.36826 0.0
C1675 C 0.34323 0.61545 0.40042 0.0
C1676 C 0.34238 0.60517 0.4224 0.0
C1677 C 0.32286 0.62245 0.38941 0.0
C1678 C 0.3208 0.60042 0.43244 0.0
C1679 C 0.3005 0.60707 0.42147 0.0
H1680 H 0.93554 0.45162 0.859 0.0
H1681 H 0.87549 0.49486 0.86381 0.0
H1682 H 0.85117 0.46288 0.85004 0.0
H1683 H 0.84779 0.42332 0.83365 0.0
H1684 H 0.90838 0.38031 0.83091 0.0
H1685 H 0.93156 0.41139 0.84702 0.0
C1686 C 0.91709 0.45396 0.85723 0.0
C1687 C 0.90731 0.47553 0.8621 0.0
C1688 C 0.90332 0.43555 0.84958 0.0
C1689 C 0.88336 0.47832 0.86014 0.0
C1690 C 0.8695 0.46009 0.85216 0.0
C1691 C 0.866 0.42071 0.83684 0.0
C1692 C 0.87633 0.39958 0.83077 0.0
C1693 C 0.87938 0.43873 0.84637 0.0
C1694 C 0.89992 0.39638 0.83526 0.0
C1695 C 0.91329 0.41419 0.84444 0.0
H1696 H 0.66005 0.8992 0.42494 0.0
H1697 H 0.70566 0.9365 0.47087 0.0
H1698 H 0.73901 0.92034 0.45093 0.0
H1699 H 0.7551 0.89305 0.42276 0.0
H1700 H 0.70939 0.85501 0.37752 0.0
H1701 H 0.67623 0.87431 0.39472 0.0
C1702 C 0.67728 0.90398 0.43048 0.0
C1703 C 0.68033 0.91883 0.44955 0.0
C1704 C 0.69638 0.89445 0.4191 0.0
C1705 C 0.70279 0.92499 0.45634 0.0
C1706 C 0.72189 0.91573 0.44497 0.0
C1707 C 0.73792 0.8892 0.41641 0.0
C1708 C 0.73474 0.87242 0.39904 0.0
C1709 C 0.71888 0.90006 0.42665 0.0
C1710 C 0.71235 0.86774 0.39098 0.0
C1711 C 0.69334 0.87871 0.40086 0.0
H1712 H 0.65647 0.4992 0.36216 0.0
H1713 H 0.6156 0.54059 0.40883 0.0
H1714 H 0.63353 0.57563 0.39386 0.0
H1715 H 0.65683 0.5946 0.36416 0.0
H1716 H 0.69618 0.55335 0.31608 0.0
H1717 H 0.68307 0.51819 0.33522 0.0
C1718 C 0.65178 0.51584 0.36937 0.0
C1719 C 0.63447 0.51728 0.38636 0.0
C1720 C 0.66172 0.53598 0.36028 0.0
C1721 C 0.6287 0.539 0.39558 0.0
C1722 C 0.6389 0.55907 0.38698 0.0
C1723 C 0.66287 0.57795 0.35808 0.0
C1724 C 0.67717 0.57661 0.33848 0.0
C1725 C 0.65482 0.55779 0.36879 0.0
C1726 C 0.68498 0.55489 0.33099 0.0
C1727 C 0.67743 0.53475 0.34188 0.0
H1728 H 0.17418 0.60496 0.6379 0.0
H1729 H 0.2141 0.58949 0.57681 0.0
H1730 H 0.24723 0.60971 0.59331 0.0
H1731 H 0.26316 0.63583 0.62282 0.0
H1732 H 0.22293 0.65205 0.68351 0.0
H1733 H 0.1918 0.62723 0.66954 0.0
C1734 C 0.19023 0.60567 0.62833 0.0
C1735 C 0.1915 0.59601 0.60599 0.0
C1736 C 0.20913 0.61765 0.63777 0.0
C1737 C 0.21255 0.59688 0.59397 0.0
C1738 C 0.2315 0.60855 0.60335 0.0
C1739 C 0.24773 0.63367 0.63319 0.0
C1740 C 0.24527 0.6461 0.65402 0.0
C1741 C 0.22973 0.61964 0.62489 0.0
C1742 C 0.22527 0.64284 0.66734 0.0
C1743 C 0.20738 0.62872 0.65932 0.0
H1744 H 0.85582 0.61424 0.64294 0.0
H1745 H 0.82971 0.56648 0.69382 0.0
H1746 H 0.85269 0.53557 0.67678 0.0
H1747 H 0.88311 0.52318 0.65006 0.0
H1748 H 0.90965 0.57101 0.5995 0.0
H1749 H 0.88341 0.60074 0.61369 0.0
C1750 C 0.8549 0.597 0.65014 0.0
C1751 C 0.84127 0.59279 0.66984 0.0
C1752 C 0.86839 0.57936 0.64044 0.0
C1753 C 0.84012 0.57027 0.67876 0.0
C1754 C 0.85335 0.55259 0.66908 0.0
C1755 C 0.88301 0.54003 0.64197 0.0
C1756 C 0.89858 0.54494 0.62395 0.0
C1757 C 0.86802 0.5571 0.65034 0.0
C1758 C 0.89796 0.56677 0.61346 0.0
C1759 C 0.883 0.58383 0.62163 0.0
H1760 H 0.1532 0.9121 0.66296 0.0
H1761 H 0.18725 0.95745 0.71167 0.0
H1762 H 0.17037 0.99095 0.69264 0.0
H1763 H 0.14417 0.00716 0.66368 0.0
H1764 H 0.10903 0.96161 0.61594 0.0
H1765 H 0.1282 0.92839 0.6331 0.0
C1766 C 0.15715 0.92932 0.6693 0.0
C1767 C 0.17143 0.93223 0.68877 0.0
C1768 C 0.14706 0.94846 0.65855 0.0
C1769 C 0.17628 0.95469 0.69676 0.0
C1770 C 0.16659 0.97386 0.68592 0.0
C1771 C 0.14082 0.98999 0.65689 0.0
C1772 C 0.12509 0.9869 0.6386 0.0
C1773 C 0.15167 0.97092 0.66703 0.0
C1774 C 0.12096 0.9645 0.63006 0.0
C1775 C 0.13192 0.94548 0.63987 0.0
H1776 H 0.62189 0.76681 0.87942 0.0
H1777 H 0.57211 0.71835 0.90643 0.0
H1778 H 0.55809 0.74748 0.93345 0.0
H1779 H 0.55722 0.78781 0.94664 0.0
H1780 H 0.6071 0.83628 0.91985 0.0
H1781 H 0.62395 0.806 0.89588 0.0
C1782 C 0.60817 0.76253 0.89142 0.0
C1783 C 0.59788 0.74051 0.89063 0.0
C1784 C 0.60009 0.77941 0.90693 0.0
C1785 C 0.58029 0.73518 0.90651 0.0
C1786 C 0.57218 0.75187 0.92197 0.0
C1787 C 0.57201 0.79168 0.93583 0.0
C1788 C 0.58065 0.81437 0.93487 0.0
C1789 C 0.58154 0.77421 0.92191 0.0
C1790 C 0.59999 0.819 0.92092 0.0
C1791 C 0.60959 0.8017 0.90707 0.0
H1792 H 0.03456 0.12158 0.39875 0.0
H1793 H 0.98766 0.16265 0.35836 0.0
H1794 H 0.02005 0.17958 0.33741 0.0
H1795 H 0.0619 0.18527 0.33295 0.0
H1796 H 0.10858 0.14428 0.37373 0.0
H1797 H 0.07611 0.12477 0.39193 0.0
C1798 C 0.03138 0.13402 0.38517 0.0
C1799 C 0.00869 0.14096 0.38032 0.0
C1800 C 0.05009 0.14389 0.37333 0.0
C1801 C 0.00492 0.15699 0.36253 0.0
C1802 C 0.02346 0.16679 0.35058 0.0
C1803 C 0.06497 0.17188 0.34561 0.0
C1804 C 0.08769 0.16647 0.35211 0.0
C1805 C 0.04616 0.16076 0.3562 0.0
C1806 C 0.09132 0.14896 0.36847 0.0
C1807 C 0.07273 0.13777 0.37895 0.0
H1808 H 0.42804 0.71167 0.93772 0.0
H1809 H 0.379 0.6606 0.91398 0.0
H1810 H 0.35688 0.69055 0.89465 0.0
H1811 H 0.35447 0.73018 0.88008 0.0
H1812 H 0.40405 0.78111 0.903 0.0
H1813 H 0.42262 0.75236 0.92733 0.0
C1814 C 0.4123 0.70712 0.92866 0.0
C1815 C 0.40546 0.68383 0.92697 0.0
C1816 C 0.39982 0.7244 0.91724 0.0
C1817 C 0.38484 0.67833 0.91539 0.0
C1818 C 0.37219 0.69546 0.90424 0.0
C1819 C 0.36908 0.73514 0.89071 0.0
C1820 C 0.37808 0.75769 0.88935 0.0
C1821 C 0.37998 0.71841 0.90436 0.0
C1822 C 0.39685 0.76384 0.9035 0.0
C1823 C 0.40759 0.74736 0.91736 0.0
H1824 H 0.99324 0.40833 0.39755 0.0
H1825 H 0.04184 0.36879 0.35723 0.0
H1826 H 0.0107 0.35493 0.33242 0.0
H1827 H 0.96919 0.34941 0.32597 0.0
H1828 H 0.92059 0.38788 0.36732 0.0
H1829 H 0.95221 0.40695 0.38762 0.0
C1830 C 0.99713 0.39705 0.38305 0.0
C1831 C 0.01982 0.3893 0.37956 0.0
C1832 C 0.97906 0.3887 0.36915 0.0
C1833 C 0.02452 0.37488 0.36052 0.0
C1834 C 0.00668 0.36683 0.34635 0.0
C1835 C 0.96549 0.36232 0.33908 0.0
C1836 C 0.94252 0.36686 0.34539 0.0
C1837 C 0.98379 0.3729 0.35108 0.0
C1838 C 0.93809 0.38379 0.3623 0.0
C1839 C 0.95618 0.39469 0.37399 0.0
H1840 H 0.64572 0.2224 0.63878 0.0
H1841 H 0.60518 0.28274 0.62335 0.0
H1842 H 0.58287 0.26064 0.59513 0.0
H1843 H 0.57137 0.223 0.57902 0.0
H1844 H 0.61133 0.16251 0.59536 0.0
H1845 H 0.63744 0.18593 0.61876 0.0
C1846 C 0.6323 0.23086 0.62895 0.0
C1847 C 0.62689 0.25409 0.63353 0.0
C1848 C 0.6192 0.21795 0.61306 0.0
C1849 C 0.6096 0.26482 0.62039 0.0
C1850 C 0.59673 0.25216 0.60429 0.0
C1851 C 0.58602 0.21499 0.58736 0.0
C1852 C 0.5891 0.19095 0.58575 0.0
C1853 C 0.60081 0.22851 0.60114 0.0
C1854 C 0.60835 0.18093 0.59649 0.0
C1855 C 0.62329 0.1943 0.60995 0.0
H1856 H 0.4519 0.20554 0.67788 0.0
H1857 H 0.40439 0.15772 0.64565 0.0
H1858 H 0.43633 0.13807 0.62672 0.0
H1859 H 0.47728 0.13677 0.61632 0.0
H1860 H 0.52489 0.18443 0.64855 0.0
H1861 H 0.4934 0.20166 0.67056 0.0
C1862 C 0.44854 0.19062 0.66697 0.0
C1863 C 0.42573 0.18335 0.66296 0.0
C1864 C 0.467 0.17947 0.65595 0.0
C1865 C 0.42174 0.16383 0.64895 0.0
C1866 C 0.44001 0.1526 0.63801 0.0
C1867 C 0.48081 0.15078 0.62833 0.0
C1868 C 0.50334 0.15949 0.63055 0.0
C1869 C 0.46262 0.16066 0.6409 0.0
C1870 C 0.50768 0.17745 0.64642 0.0
C1871 C 0.48967 0.18737 0.65898 0.0
H1872 H 0.41837 0.32628 0.57782 0.0
H1873 H 0.40933 0.37311 0.63545 0.0
H1874 H 0.38772 0.3438 0.65624 0.0
H1875 H 0.37578 0.30361 0.66022 0.0
H1876 H 0.38415 0.25621 0.60324 0.0
H1877 H 0.40133 0.2871 0.57985 0.0
C1878 C 0.41134 0.33019 0.59476 0.0
C1879 C 0.41592 0.35172 0.60524 0.0
C1880 C 0.39897 0.31312 0.6068 0.0
C1881 C 0.4064 0.3566 0.62708 0.0
C1882 C 0.39404 0.33983 0.63904 0.0
C1883 C 0.38104 0.30016 0.64253 0.0
C1884 C 0.3791 0.27774 0.6335 0.0
C1885 C 0.39094 0.31784 0.62941 0.0
C1886 C 0.38556 0.27344 0.6105 0.0
C1887 C 0.3955 0.29103 0.59722 0.0
H1888 H 0.50819 0.37908 0.65832 0.0
H1889 H 0.54979 0.43745 0.63797 0.0
H1890 H 0.58306 0.42098 0.65781 0.0
H1891 H 0.60131 0.38764 0.6765 0.0
H1892 H 0.55948 0.32907 0.69611 0.0
H1893 H 0.52526 0.34818 0.68128 0.0
C1894 C 0.52446 0.38836 0.65848 0.0
C1895 C 0.52665 0.40924 0.64636 0.0
C1896 C 0.54351 0.37868 0.66966 0.0
C1897 C 0.5477 0.42128 0.64707 0.0
C1898 C 0.56676 0.41181 0.65831 0.0
C1899 C 0.58465 0.37921 0.6779 0.0
C1900 C 0.58306 0.35677 0.68701 0.0
C1901 C 0.56503 0.39016 0.669 0.0
C1902 C 0.56128 0.34623 0.68895 0.0
C1903 C 0.54168 0.35711 0.68039 0.0
H1904 H 0.91877 0.59247 0.82599 0.0
H1905 H 0.86755 0.597 0.88002 0.0
H1906 H 0.84092 0.61539 0.85347 0.0
H1907 H 0.83049 0.62606 0.814 0.0
H1908 H 0.88127 0.62238 0.75972 0.0
H1909 H 0.90985 0.60812 0.78733 0.0
C1910 C 0.90191 0.5978 0.83203 0.0
C1911 C 0.89505 0.59296 0.85487 0.0
C1912 C 0.88653 0.60839 0.8166 0.0
C1913 C 0.87325 0.60027 0.8625 0.0
C1914 C 0.85793 0.61076 0.84731 0.0
C1915 C 0.84792 0.62245 0.8083 0.0
C1916 C 0.85373 0.62492 0.78488 0.0
C1917 C 0.86413 0.61424 0.82418 0.0
C1918 C 0.87643 0.62057 0.77772 0.0
C1919 C 0.89271 0.61228 0.79346 0.0
H1920 H 0.89139 0.88381 0.4607 0.0
H1921 H 0.83519 0.87641 0.50902 0.0
H1922 H 0.81461 0.85175 0.48163 0.0
H1923 H 0.81078 0.8355 0.44255 0.0
H1924 H 0.86605 0.84452 0.39347 0.0
H1925 H 0.88881 0.86501 0.42258 0.0
C1926 C 0.87482 0.8765 0.46539 0.0
C1927 C 0.8648 0.88213 0.48682 0.0
C1928 C 0.86279 0.8627 0.44932 0.0
C1929 C 0.84324 0.87254 0.49256 0.0
C1930 C 0.83142 0.85843 0.47689 0.0
C1931 C 0.82797 0.84157 0.43834 0.0
C1932 C 0.83663 0.83859 0.41582 0.0
C1933 C 0.84075 0.85387 0.455 0.0
C1934 C 0.8589 0.84671 0.41063 0.0
C1935 C 0.87192 0.85848 0.42727 0.0
H1936 H 0.14132 0.86742 0.798 0.0
H1937 H 0.10451 0.91304 0.75229 0.0
H1938 H 0.08067 0.92617 0.78444 0.0
H1939 H 0.07466 0.92925 0.82638 0.0
H1940 H 0.11229 0.88436 0.87215 0.0
H1941 H 0.13114 0.86628 0.8391 0.0
C1942 C 0.12776 0.87987 0.79493 0.0
C1943 C 0.12508 0.88958 0.77284 0.0
C1944 C 0.11443 0.88775 0.8136 0.0
C1945 C 0.10718 0.90544 0.76916 0.0
C1946 C 0.09359 0.91309 0.78758 0.0
C1947 C 0.08664 0.9152 0.82912 0.0
C1948 C 0.09239 0.90854 0.85176 0.0
C1949 C 0.09774 0.90509 0.81004 0.0
C1950 C 0.10773 0.89008 0.85494 0.0
C1951 C 0.1186 0.87974 0.83604 0.0
H1952 H 0.13177 0.62624 0.49207 0.0
H1953 H 0.18973 0.6557 0.52864 0.0
H1954 H 0.20226 0.67525 0.49349 0.0
H1955 H 0.19956 0.67982 0.45118 0.0
H1956 H 0.14218 0.64907 0.41473 0.0
H1957 H 0.12662 0.63447 0.45095 0.0
C1958 C 0.14691 0.63727 0.49251 0.0
C1959 C 0.15994 0.63918 0.51293 0.0
C1960 C 0.15432 0.64808 0.4721 0.0
C1961 C 0.17943 0.65371 0.51314 0.0
C1962 C 0.1867 0.66485 0.49299 0.0
C1963 C 0.18343 0.67031 0.45123 0.0
C1964 C 0.17226 0.66528 0.4302 0.0
C1965 C 0.17472 0.66153 0.47217 0.0
C1966 C 0.15133 0.65296 0.43061 0.0
C1967 C 0.14239 0.64456 0.45134 0.0
H1968 H 0.8485 0.39392 0.70549 0.0
H1969 H 0.90763 0.38281 0.74892 0.0
H1970 H 0.93226 0.40305 0.72087 0.0
H1971 H 0.9358 0.42728 0.68557 0.0
H1972 H 0.87591 0.43656 0.64228 0.0
H1973 H 0.85282 0.4136 0.66861 0.0
C1974 C 0.86688 0.39561 0.70859 0.0
C1975 C 0.87631 0.38713 0.72915 0.0
C1976 C 0.88072 0.40716 0.69252 0.0
C1977 C 0.9001 0.38915 0.73303 0.0
C1978 C 0.91409 0.40089 0.71712 0.0
C1979 C 0.91776 0.42406 0.68184 0.0
C1980 C 0.90757 0.43393 0.66212 0.0
C1981 C 0.90444 0.41052 0.69706 0.0
C1982 C 0.88424 0.42933 0.65735 0.0
C1983 C 0.87094 0.4162 0.67242 0.0
H1984 H 0.65654 0.85386 0.51999 0.0
H1985 H 0.60086 0.89205 0.55132 0.0
H1986 H 0.61169 0.87754 0.58931 0.0
H1987 H 0.63977 0.85798 0.61404 0.0
H1988 H 0.6964 0.82112 0.5828 0.0
H1989 H 0.6822 0.83093 0.5444 0.0
C1990 C 0.64652 0.85872 0.53506 0.0
C1991 C 0.62812 0.87429 0.53282 0.0
C1992 C 0.65314 0.85072 0.55694 0.0
C1993 C 0.61523 0.88026 0.55254 0.0
C1994 C 0.62146 0.87202 0.57432 0.0
C1995 C 0.64882 0.85176 0.59884 0.0
C1996 C 0.66931 0.83911 0.60134 0.0
C1997 C 0.64084 0.85786 0.5768 0.0
C1998 C 0.68071 0.83107 0.58143 0.0
C1999 C 0.67263 0.83672 0.55943 0.0
H2000 H 0.08812 0.12007 0.64412 0.0
H2001 H 0.07467 0.0563 0.68017 0.0
H2002 H 0.0901 0.07298 0.71574 0.0
H2003 H 0.11228 0.10361 0.73503 0.0
H2004 H 0.12707 0.16685 0.69858 0.0
H2005 H 0.10591 0.15256 0.66498 0.0
C2006 C 0.08816 0.10994 0.65985 0.0
C2007 C 0.08059 0.08682 0.65932 0.0
C2008 C 0.09751 0.11948 0.68018 0.0
C2009 C 0.08058 0.07406 0.67996 0.0
C2010 C 0.08949 0.08356 0.70034 0.0
C2011 C 0.11052 0.11448 0.71992 0.0
C2012 C 0.12163 0.13612 0.71924 0.0
C2013 C 0.09876 0.10595 0.70042 0.0
C2014 C 0.11893 0.15002 0.69955 0.0
C2015 C 0.1069 0.14182 0.68025 0.0
H2016 H 0.36537 0.6586 0.51761 0.0
H2017 H 0.42856 0.64401 0.55391 0.0
H2018 H 0.41456 0.66529 0.58766 0.0
H2019 H 0.38237 0.68366 0.60841 0.0
H2020 H 0.3191 0.69773 0.57188 0.0
H2021 H 0.33528 0.68129 0.53664 0.0
C2022 C 0.37624 0.66037 0.53278 0.0
C2023 C 0.39781 0.64942 0.53338 0.0
C2024 C 0.36798 0.67237 0.55218 0.0
C2025 C 0.41184 0.65219 0.55302 0.0
C2026 C 0.40378 0.66424 0.57239 0.0
C2027 C 0.37224 0.68347 0.59265 0.0
C2028 C 0.3494 0.69155 0.59295 0.0
C2029 C 0.38157 0.67374 0.57242 0.0
C2030 C 0.33664 0.69143 0.57227 0.0
C2031 C 0.34585 0.68195 0.55208 0.0
H2032 H 0.78422 0.9482 0.57604 0.0
H2033 H 0.84247 0.91532 0.60839 0.0
H2034 H 0.81684 0.89634 0.63585 0.0
H2035 H 0.7777 0.88521 0.64737 0.0
H2036 H 0.71936 0.91727 0.61435 0.0
H2037 H 0.74525 0.94068 0.59082 0.0
C2038 C 0.79137 0.93717 0.58931 0.0
C2039 C 0.81522 0.9329 0.58985 0.0
C2040 C 0.7765 0.92601 0.60488 0.0
C2041 C 0.82417 0.91876 0.60737 0.0
C2042 C 0.80951 0.90783 0.62308 0.0
C2043 C 0.77061 0.89762 0.63534 0.0
C2044 C 0.7466 0.89916 0.63239 0.0
C2045 C 0.7856 0.91073 0.6215 0.0
C2046 C 0.73776 0.91553 0.61687 0.0
C2047 C 0.75257 0.92888 0.60329 0.0
H2048 H 0.83922 0.06414 0.89276 0.0
H2049 H 0.82245 0.10272 0.95448 0.0
H2050 H 0.78946 0.1198 0.93515 0.0
H2051 H 0.76731 0.12607 0.90045 0.0
H2052 H 0.78485 0.09055 0.83712 0.0
H2053 H 0.81546 0.0697 0.85742 0.0
C2054 C 0.82812 0.07608 0.90195 0.0
C2055 C 0.83324 0.08229 0.92493 0.0
C2056 C 0.80946 0.08644 0.89046 0.0
C2057 C 0.81892 0.09788 0.9367 0.0
C2058 C 0.80006 0.10762 0.92569 0.0
C2059 C 0.77765 0.11366 0.89098 0.0
C2060 C 0.77389 0.11004 0.86722 0.0
C2061 C 0.79547 0.10239 0.9025 0.0
C2062 C 0.78743 0.09373 0.8554 0.0
C2063 C 0.80497 0.08188 0.86699 0.0
H2064 H 0.3268 0.94519 0.3174 0.0
H2065 H 0.35613 0.89872 0.3675 0.0
H2066 H 0.37342 0.93127 0.38805 0.0
H2067 H 0.38388 0.97231 0.38925 0.0
H2068 H 0.3552 0.01875 0.33876 0.0
H2069 H 0.33375 0.9869 0.32123 0.0
C2070 C 0.33668 0.94219 0.33301 0.0
C2071 C 0.34042 0.91948 0.34067 0.0
C2072 C 0.34685 0.96099 0.34464 0.0
C2073 C 0.35312 0.91597 0.36105 0.0
C2074 C 0.36308 0.9346 0.37282 0.0
C2075 C 0.37265 0.97557 0.37465 0.0
C2076 C 0.37145 0.99786 0.36515 0.0
C2077 C 0.36062 0.9571 0.36439 0.0
C2078 C 0.35662 1.00176 0.34635 0.0
C2079 C 0.3444 0.98351 0.33622 0.0
H2080 H 0.25592 0.37794 0.88307 0.0
H2081 H 0.21218 0.35736 0.82617 0.0
H2082 H 0.18243 0.38392 0.83944 0.0
H2083 H 0.16677 0.40857 0.87029 0.0
H2084 H 0.2102 0.42803 0.92783 0.0
H2085 H 0.24214 0.40655 0.91104 0.0
C2086 C 0.24007 0.37955 0.8733 0.0
C2087 C 0.23614 0.36532 0.85391 0.0
C2088 C 0.22281 0.39448 0.8813 0.0
C2089 C 0.2156 0.3679 0.8413 0.0
C2090 C 0.1985 0.38303 0.84894 0.0
C2091 C 0.18333 0.40846 0.87897 0.0
C2092 C 0.18591 0.41954 0.90051 0.0
C2093 C 0.20157 0.39571 0.86942 0.0
C2094 C 0.2076 0.41943 0.91136 0.0
C2095 C 0.2259 0.40709 0.90181 0.0
H2096 H 0.14061 0.99327 0.83604 0.0
H2097 H 0.12496 0.02691 0.9009 0.0
H2098 H 0.14395 0.06208 0.88757 0.0
H2099 H 0.16052 0.08464 0.85582 0.0
H2100 H 0.17464 0.05143 0.79038 0.0
H2101 H 0.16095 0.01469 0.80575 0.0
C2102 C 0.14167 0.00815 0.84744 0.0
C2103 C 0.13106 0.00753 0.86931 0.0
C2104 C 0.15214 0.0285 0.83947 0.0
C2105 C 0.13279 0.02694 0.8839 0.0
C2106 C 0.14358 0.04712 0.87626 0.0
C2107 C 0.16094 0.06931 0.845 0.0
C2108 C 0.16827 0.0709 0.82186 0.0
C2109 C 0.15261 0.04832 0.8538 0.0
C2110 C 0.16889 0.05078 0.80818 0.0
C2111 C 0.161 0.02975 0.81694 0.0
H2112 H 0.71172 0.08451 0.07732 0.0
H2113 H 0.64985 0.12189 0.09477 0.0
H2114 H 0.67218 0.14854 0.11863 0.0
H2115 H 0.70966 0.16358 0.13142 0.0
H2116 H 0.7716 0.12619 0.11448 0.0
H2117 H 0.74885 0.09712 0.09386 0.0
C2118 C 0.70308 0.09831 0.08658 0.0
C2119 C 0.67917 0.10133 0.08397 0.0
C2120 C 0.71606 0.11369 0.10029 0.0
C2121 C 0.66824 0.11916 0.09633 0.0
C2122 C 0.68101 0.13451 0.10994 0.0
C2123 C 0.71816 0.14891 0.12348 0.0
C2124 C 0.74232 0.14724 0.12426 0.0
C2125 C 0.70499 0.1323 0.11157 0.0
C2126 C 0.75303 0.12796 0.11412 0.0
C2127 C 0.74004 0.11137 0.1022 0.0
H2128 H 0.3594 1.0002 0.15854 0.0
H2129 H 0.40698 0.03471 0.1127 0.0
H2130 H 0.39251 0.07213 0.12547 0.0
H2131 H 0.36802 0.09511 0.15121 0.0
H2132 H 0.32096 0.06073 0.19764 0.0
H2133 H 0.33344 0.02326 0.18289 0.0
C2134 C 0.3665 0.01589 0.1512 0.0
C2135 C 0.38437 0.01459 0.13479 0.0
C2136 C 0.35824 0.03741 0.15876 0.0
C2137 C 0.39329 0.03514 0.12544 0.0
C2138 C 0.38504 0.05659 0.13273 0.0
C2139 C 0.36031 0.07945 0.15797 0.0
C2140 C 0.34367 0.08078 0.17561 0.0
C2141 C 0.36776 0.05794 0.14962 0.0
C2142 C 0.33386 0.06026 0.18411 0.0
C2143 C 0.34103 0.03879 0.17573 0.0
H2144 H 0.65009 0.40765 0.15664 0.0
H2145 H 0.69107 0.45377 0.19881 0.0
H2146 H 0.67425 0.48698 0.17938 0.0
H2147 H 0.64531 0.50297 0.15308 0.0
H2148 H 0.60348 0.45683 0.11176 0.0
H2149 H 0.62345 0.42366 0.128 0.0
C2150 C 0.65557 0.42494 0.16141 0.0
C2151 C 0.67164 0.42817 0.17936 0.0
C2152 C 0.64558 0.44401 0.15039 0.0
C2153 C 0.67861 0.45074 0.18518 0.0
C2154 C 0.66897 0.46978 0.1741 0.0
C2155 C 0.64077 0.48569 0.14735 0.0
C2156 C 0.62275 0.48243 0.13138 0.0
C2157 C 0.65204 0.46663 0.15707 0.0
C2158 C 0.61718 0.45988 0.12413 0.0
C2159 C 0.62855 0.44086 0.13347 0.0
loop_
_geom_bond_atom_site_label_1
_geom_bond_atom_site_label_2
_geom_bond_distance
_geom_bond_site_symmetry_2
_ccdc_geom_bond_type
Mg0 O7 2.141 . S
Mg0 O8 2.048 . S
Mg0 O9 2.048 . S
Mg0 O12 2.141 . S
C1 O2 1.313 . S
C1 O8 1.195 . S
O2 C1 1.313 . S
C3 O4 1.245 . S
C3 O12 1.289 . S
O4 C3 1.245 . S
C5 O6 1.245 . S
C5 O7 1.289 . S
O6 C5 1.245 . S
O7 Mg0 2.141 . S
O7 C5 1.289 . S
O8 Mg0 2.048 . S
O8 C1 1.195 . S
O9 Mg0 2.048 . S
O9 C10 1.195 . S
C10 O9 1.195 . S
C10 O11 1.313 . S
O11 C10 1.313 . S
O12 Mg0 2.141 . S
O12 C3 1.289 . S
Mg13 O20 2.141 . S
Mg13 O21 2.048 . S
Mg13 O22 2.048 . S
Mg13 O25 2.141 . S
C14 O15 1.313 . S
C14 O21 1.195 . S
O15 C14 1.313 . S
C16 O17 1.245 . S
C16 O25 1.289 . S
O17 C16 1.245 . S
C18 O19 1.245 . S
C18 O20 1.289 . S
O19 C18 1.245 . S
O20 Mg13 2.141 . S
O20 C18 1.289 . S
O21 Mg13 2.048 . S
O21 C14 1.195 . S
O22 Mg13 2.048 . S
O22 C23 1.195 . S
C23 O22 1.195 . S
C23 O24 1.313 . S
O24 C23 1.313 . S
O25 Mg13 2.141 . S
O25 C16 1.289 . S
Mg26 O33 2.141 . S
Mg26 O34 2.048 . S
Mg26 O35 2.048 . S
Mg26 O38 2.141 . S
C27 O28 1.313 . S
C27 O34 1.195 . S
O28 C27 1.313 . S
C29 O30 1.245 . S
C29 O38 1.289 . S
O30 C29 1.245 . S
C31 O32 1.245 . S
C31 O33 1.289 . S
O32 C31 1.245 . S
O33 Mg26 2.141 . S
O33 C31 1.289 . S
O34 Mg26 2.048 . S
O34 C27 1.195 . S
O35 Mg26 2.048 . S
O35 C36 1.195 . S
C36 O35 1.195 . S
C36 O37 1.313 . S
O37 C36 1.313 . S
O38 Mg26 2.141 . S
O38 C29 1.289 . S
Mg39 O46 2.141 . S
Mg39 O47 2.048 . S
Mg39 O48 2.048 . S
Mg39 O51 2.141 . S
C40 O41 1.313 . S
C40 O47 1.195 . S
O41 C40 1.313 . S
C42 O43 1.245 . S
C42 O51 1.289 . S
O43 C42 1.245 . S
C44 O45 1.245 . S
C44 O46 1.289 . S
O45 C44 1.245 . S
O46 Mg39 2.141 . S
O46 C44 1.289 . S
O47 Mg39 2.048 . S
O47 C40 1.195 . S
O48 Mg39 2.048 . S
O48 C49 1.195 . S
C49 O48 1.195 . S
C49 O50 1.313 . S
O50 C49 1.313 . S
O51 Mg39 2.141 . S
O51 C42 1.289 . S
Mg52 O59 2.141 . S
Mg52 O60 2.048 . S
Mg52 O61 2.048 . S
Mg52 O64 2.141 . S
C53 O54 1.313 . S
C53 O60 1.195 . S
O54 C53 1.313 . S
C55 O56 1.245 . S
C55 O64 1.289 . S
O56 C55 1.245 . S
C57 O58 1.245 . S
C57 O59 1.289 . S
O58 C57 1.245 . S
O59 Mg52 2.141 . S
O59 C57 1.289 . S
O60 Mg52 2.048 . S
O60 C53 1.195 . S
O61 Mg52 2.048 . S
O61 C62 1.195 . S
C62 O61 1.195 . S
C62 O63 1.313 . S
O63 C62 1.313 . S
O64 Mg52 2.141 . S
O64 C55 1.289 . S
Mg65 O72 2.141 . S
Mg65 O73 2.048 1_655 S
Mg65 O74 2.048 1_655 S
Mg65 O77 2.141 . S
C66 O67 1.313 . S
C66 O73 1.195 . S
O67 C66 1.313 . S
C68 O69 1.245 . S
C68 O77 1.289 . S
O69 C68 1.245 . S
C70 O71 1.245 . S
C70 O72 1.289 . S
O71 C70 1.245 . S
O72 Mg65 2.141 . S
O72 C70 1.289 . S
O73 Mg65 2.048 1_455 S
O73 C66 1.195 . S
O74 Mg65 2.048 1_455 S
O74 C75 1.195 . S
C75 O74 1.195 . S
C75 O76 1.313 . S
O76 C75 1.313 . S
O77 Mg65 2.141 . S
O77 C68 1.289 . S
Mg78 O85 2.141 . S
Mg78 O86 2.048 . S
Mg78 O87 2.048 . S
Mg78 O90 2.141 . S
C79 O80 1.313 . S
C79 O86 1.195 . S
O80 C79 1.313 . S
C81 O82 1.245 . S
C81 O90 1.289 . S
O82 C81 1.245 . S
C83 O84 1.245 . S
C83 O85 1.289 . S
O84 C83 1.245 . S
O85 Mg78 2.141 . S
O85 C83 1.289 . S
O86 Mg78 2.048 . S
O86 C79 1.195 . S
O87 Mg78 2.048 . S
O87 C88 1.195 . S
C88 O87 1.195 . S
C88 O89 1.313 . S
O89 C88 1.313 . S
O90 Mg78 2.141 . S
O90 C81 1.289 . S
Mg91 O98 2.141 . S
Mg91 O99 2.048 1_455 S
Mg91 O100 2.048 1_455 S
Mg91 O103 2.141 . S
C92 O93 1.313 . S
C92 O99 1.195 . S
O93 C92 1.313 . S
C94 O95 1.245 . S
C94 O103 1.289 . S
O95 C94 1.245 . S
C96 O97 1.245 . S
C96 O98 1.289 . S
O97 C96 1.245 . S
O98 Mg91 2.141 . S
O98 C96 1.289 . S
O99 Mg91 2.048 1_655 S
O99 C92 1.195 . S
O100 Mg91 2.048 1_655 S
O100 C101 1.195 . S
C101 O100 1.195 . S
C101 O102 1.313 . S
O102 C101 1.313 . S
O103 Mg91 2.141 . S
O103 C94 1.289 . S
Mg104 O111 2.141 . S
Mg104 O112 2.048 . S
Mg104 O113 2.048 . S
Mg104 O116 2.141 . S
C105 O106 1.313 . S
C105 O112 1.195 . S
O106 C105 1.313 . S
C107 O108 1.245 . S
C107 O116 1.289 . S
O108 C107 1.245 . S
C109 O110 1.245 . S
C109 O111 1.289 . S
O110 C109 1.245 . S
O111 Mg104 2.141 . S
O111 C109 1.289 . S
O112 Mg104 2.048 . S
O112 C105 1.195 . S
O113 Mg104 2.048 . S
O113 C114 1.195 . S
C114 O113 1.195 . S
C114 O115 1.313 . S
O115 C114 1.313 . S
O116 Mg104 2.141 . S
O116 C107 1.289 . S
Mg117 O124 2.141 . S
Mg117 O125 2.048 1_556 S
Mg117 O126 2.048 1_556 S
Mg117 O129 2.141 . S
C118 O119 1.313 . S
C118 O125 1.195 . S
O119 C118 1.313 . S
C120 O121 1.245 . S
C120 O129 1.289 . S
O121 C120 1.245 . S
C122 O123 1.245 . S
C122 O124 1.289 . S
O123 C122 1.245 . S
O124 Mg117 2.141 . S
O124 C122 1.289 . S
O125 Mg117 2.048 1_554 S
O125 C118 1.195 . S
O126 Mg117 2.048 1_554 S
O126 C127 1.195 . S
C127 O126 1.195 . S
C127 O128 1.313 . S
O128 C127 1.313 . S
O129 Mg117 2.141 . S
O129 C120 1.289 . S
Mg130 O137 2.141 . S
Mg130 O138 2.048 . S
Mg130 O139 2.048 . S
Mg130 O142 2.141 . S
C131 O132 1.313 . S
C131 O138 1.195 . S
O132 C131 1.313 . S
C133 O134 1.245 . S
C133 O142 1.289 . S
O134 C133 1.245 . S
C135 O136 1.245 . S
C135 O137 1.289 . S
O136 C135 1.245 . S
O137 Mg130 2.141 . S
O137 C135 1.289 . S
O138 Mg130 2.048 . S
O138 C131 1.195 . S
O139 Mg130 2.048 . S
O139 C140 1.195 . S
C140 O139 1.195 . S
C140 O141 1.313 . S
O141 C140 1.313 . S
O142 Mg130 2.141 . S
O142 C133 1.289 . S
Mg143 O150 2.141 . S
Mg143 O151 2.048 1_556 S
Mg143 O152 2.048 1_556 S
Mg143 O155 2.141 . S
C144 O145 1.313 . S
C144 O151 1.195 . S
O145 C144 1.313 . S
C146 O147 1.245 . S
C146 O155 1.289 . S
O147 C146 1.245 . S
C148 O149 1.245 . S
C148 O150 1.289 . S
O149 C148 1.245 . S
O150 Mg143 2.141 . S
O150 C148 1.289 . S
O151 Mg143 2.048 1_554 S
O151 C144 1.195 . S
O152 Mg143 2.048 1_554 S
O152 C153 1.195 . S
C153 O152 1.195 . S
C153 O154 1.313 . S
O154 C153 1.313 . S
O155 Mg143 2.141 . S
O155 C146 1.289 . S
Mg156 O163 2.141 . S
Mg156 O164 2.048 . S
Mg156 O165 2.048 . S
Mg156 O168 2.141 . S
C157 O158 1.313 . S
C157 O164 1.195 . S
O158 C157 1.313 . S
C159 O160 1.245 . S
C159 O168 1.289 . S
O160 C159 1.245 . S
C161 O162 1.245 . S
C161 O163 1.289 . S
O162 C161 1.245 . S
O163 Mg156 2.141 . S
O163 C161 1.289 . S
O164 Mg156 2.048 . S
O164 C157 1.195 . S
O165 Mg156 2.048 . S
O165 C166 1.195 . S
C166 O165 1.195 . S
C166 O167 1.313 . S
O167 C166 1.313 . S
O168 Mg156 2.141 . S
O168 C159 1.289 . S
Mg169 O176 2.141 . S
Mg169 O177 2.048 1_554 S
Mg169 O178 2.048 1_554 S
Mg169 O181 2.141 . S
C170 O171 1.313 . S
C170 O177 1.195 . S
O171 C170 1.313 . S
C172 O173 1.245 . S
C172 O181 1.289 . S
O173 C172 1.245 . S
C174 O175 1.245 . S
C174 O176 1.289 . S
O175 C174 1.245 . S
O176 Mg169 2.141 . S
O176 C174 1.289 . S
O177 Mg169 2.048 1_556 S
O177 C170 1.195 . S
O178 Mg169 2.048 1_556 S
O178 C179 1.195 . S
C179 O178 1.195 . S
C179 O180 1.313 . S
O180 C179 1.313 . S
O181 Mg169 2.141 . S
O181 C172 1.289 . S
Mg182 O189 2.141 . S
Mg182 O190 2.048 . S
Mg182 O191 2.048 . S
Mg182 O194 2.141 . S
C183 O184 1.313 . S
C183 O190 1.195 . S
O184 C183 1.313 . S
C185 O186 1.245 . S
C185 O194 1.289 . S
O186 C185 1.245 . S
C187 O188 1.245 . S
C187 O189 1.289 . S
O188 C187 1.245 . S
O189 Mg182 2.141 . S
O189 C187 1.289 . S
O190 Mg182 2.048 . S
O190 C183 1.195 . S
O191 Mg182 2.048 . S
O191 C192 1.195 . S
C192 O191 1.195 . S
C192 O193 1.313 . S
O193 C192 1.313 . S
O194 Mg182 2.141 . S
O194 C185 1.289 . S
Mg195 O202 2.141 . S
Mg195 O203 2.048 1_554 S
Mg195 O204 2.048 1_554 S
Mg195 O207 2.141 . S
C196 O197 1.313 . S
C196 O203 1.195 . S
O197 C196 1.313 . S
C198 O199 1.245 . S
C198 O207 1.289 . S
O199 C198 1.245 . S
C200 O201 1.245 . S
C200 O202 1.289 . S
O201 C200 1.245 . S
O202 Mg195 2.141 . S
O202 C200 1.289 . S
O203 Mg195 2.048 1_556 S
O203 C196 1.195 . S
O204 Mg195 2.048 1_556 S
O204 C205 1.195 . S
C205 O204 1.195 . S
C205 O206 1.313 . S
O206 C205 1.313 . S
O207 Mg195 2.141 . S
O207 C198 1.289 . S
Mg208 O215 2.141 . S
Mg208 O216 2.048 . S
Mg208 O217 2.048 . S
Mg208 O220 2.141 . S
C209 O210 1.313 . S
C209 O216 1.195 . S
O210 C209 1.313 . S
C211 O212 1.245 . S
C211 O220 1.289 . S
O212 C211 1.245 . S
C213 O214 1.245 . S
C213 O215 1.289 . S
O214 C213 1.245 . S
O215 Mg208 2.141 . S
O215 C213 1.289 . S
O216 Mg208 2.048 . S
O216 C209 1.195 . S
O217 Mg208 2.048 . S
O217 C218 1.195 . S
C218 O217 1.195 . S
C218 O219 1.313 . S
O219 C218 1.313 . S
O220 Mg208 2.141 . S
O220 C211 1.289 . S
Mg221 O228 2.141 . S
Mg221 O229 2.048 . S
Mg221 O230 2.048 . S
Mg221 O233 2.141 . S
C222 O223 1.313 . S
C222 O229 1.195 . S
O223 C222 1.313 . S
C224 O225 1.245 . S
C224 O233 1.289 . S
O225 C224 1.245 . S
C226 O227 1.245 . S
C226 O228 1.289 . S
O227 C226 1.245 . S
O228 Mg221 2.141 . S
O228 C226 1.289 . S
O229 Mg221 2.048 . S
O229 C222 1.195 . S
O230 Mg221 2.048 . S
O230 C231 1.195 . S
C231 O230 1.195 . S
C231 O232 1.313 . S
O232 C231 1.313 . S
O233 Mg221 2.141 . S
O233 C224 1.289 . S
Mg234 O241 2.141 . S
Mg234 O242 2.048 . S
Mg234 O243 2.048 . S
Mg234 O246 2.141 . S
C235 O236 1.313 . S
C235 O242 1.195 . S
O236 C235 1.313 . S
C237 O238 1.245 . S
C237 O246 1.289 . S
O238 C237 1.245 . S
C239 O240 1.245 . S
C239 O241 1.289 . S
O240 C239 1.245 . S
O241 Mg234 2.141 . S
O241 C239 1.289 . S
O242 Mg234 2.048 . S
O242 C235 1.195 . S
O243 Mg234 2.048 . S
O243 C244 1.195 . S
C244 O243 1.195 . S
C244 O245 1.313 . S
O245 C244 1.313 . S
O246 Mg234 2.141 . S
O246 C237 1.289 . S
Mg247 O254 2.141 . S
Mg247 O255 2.048 . S
Mg247 O256 2.048 . S
Mg247 O259 2.141 . S
C248 O249 1.313 . S
C248 O255 1.195 . S
O249 C248 1.313 . S
C250 O251 1.245 . S
C250 O259 1.289 . S
O251 C250 1.245 . S
C252 O253 1.245 . S
C252 O254 1.289 . S
O253 C252 1.245 . S
O254 Mg247 2.141 . S
O254 C252 1.289 . S
O255 Mg247 2.048 . S
O255 C248 1.195 . S
O256 Mg247 2.048 . S
O256 C257 1.195 . S
C257 O256 1.195 . S
C257 O258 1.313 . S
O258 C257 1.313 . S
O259 Mg247 2.141 . S
O259 C250 1.289 . S
Mg260 O267 2.141 . S
Mg260 O268 2.048 . S
Mg260 O269 2.048 . S
Mg260 O272 2.141 . S
C261 O262 1.313 . S
C261 O268 1.195 . S
O262 C261 1.313 . S
C263 O264 1.245 . S
C263 O272 1.289 . S
O264 C263 1.245 . S
C265 O266 1.245 . S
C265 O267 1.289 . S
O266 C265 1.245 . S
O267 Mg260 2.141 . S
O267 C265 1.289 . S
O268 Mg260 2.048 . S
O268 C261 1.195 . S
O269 Mg260 2.048 . S
O269 C270 1.195 . S
C270 O269 1.195 . S
C270 O271 1.313 . S
O271 C270 1.313 . S
O272 Mg260 2.141 . S
O272 C263 1.289 . S
Mg273 O280 2.141 . S
Mg273 O281 2.048 . S
Mg273 O282 2.048 . S
Mg273 O285 2.141 . S
C274 O275 1.313 . S
C274 O281 1.195 . S
O275 C274 1.313 . S
C276 O277 1.245 . S
C276 O285 1.289 . S
O277 C276 1.245 . S
C278 O279 1.245 . S
C278 O280 1.289 . S
O279 C278 1.245 . S
O280 Mg273 2.141 . S
O280 C278 1.289 . S
O281 Mg273 2.048 . S
O281 C274 1.195 . S
O282 Mg273 2.048 . S
O282 C283 1.195 . S
C283 O282 1.195 . S
C283 O284 1.313 . S
O284 C283 1.313 . S
O285 Mg273 2.141 . S
O285 C276 1.289 . S
Mg286 O293 2.141 . S
Mg286 O294 2.048 . S
Mg286 O295 2.048 . S
Mg286 O298 2.141 . S
C287 O288 1.313 . S
C287 O294 1.195 . S
O288 C287 1.313 . S
C289 O290 1.245 . S
C289 O298 1.289 . S
O290 C289 1.245 . S
C291 O292 1.245 . S
C291 O293 1.289 . S
O292 C291 1.245 . S
O293 Mg286 2.141 . S
O293 C291 1.289 . S
O294 Mg286 2.048 . S
O294 C287 1.195 . S
O295 Mg286 2.048 . S
O295 C296 1.195 . S
C296 O295 1.195 . S
C296 O297 1.313 . S
O297 C296 1.313 . S
O298 Mg286 2.141 . S
O298 C289 1.289 . S
Mg299 O306 2.141 1_545 S
Mg299 O307 2.048 . S
Mg299 O308 2.048 . S
Mg299 O311 2.141 1_545 S
C300 O301 1.313 . S
C300 O307 1.195 . S
O301 C300 1.313 . S
C302 O303 1.245 . S
C302 O311 1.289 . S
O303 C302 1.245 . S
C304 O305 1.245 . S
C304 O306 1.289 . S
O305 C304 1.245 . S
O306 Mg299 2.141 1_565 S
O306 C304 1.289 . S
O307 Mg299 2.048 . S
O307 C300 1.195 . S
O308 Mg299 2.048 . S
O308 C309 1.195 . S
C309 O308 1.195 . S
C309 O310 1.313 . S
O310 C309 1.313 . S
O311 Mg299 2.141 1_565 S
O311 C302 1.289 . S
Mg312 O319 2.141 . S
Mg312 O320 2.048 . S
Mg312 O321 2.048 . S
Mg312 O324 2.141 . S
C313 O314 1.313 . S
C313 O320 1.195 . S
O314 C313 1.313 . S
C315 O316 1.245 . S
C315 O324 1.289 . S
O316 C315 1.245 . S
C317 O318 1.245 . S
C317 O319 1.289 . S
O318 C317 1.245 . S
O319 Mg312 2.141 . S
O319 C317 1.289 . S
O320 Mg312 2.048 . S
O320 C313 1.195 . S
O321 Mg312 2.048 . S
O321 C322 1.195 . S
C322 O321 1.195 . S
C322 O323 1.313 . S
O323 C322 1.313 . S
O324 Mg312 2.141 . S
O324 C315 1.289 . S
Mg325 O332 2.141 . S
Mg325 O333 2.048 1_455 S
Mg325 O334 2.048 1_455 S
Mg325 O337 2.141 . S
C326 O327 1.313 . S
C326 O333 1.195 . S
O327 C326 1.313 . S
C328 O329 1.245 . S
C328 O337 1.289 . S
O329 C328 1.245 . S
C330 O331 1.245 . S
C330 O332 1.289 . S
O331 C330 1.245 . S
O332 Mg325 2.141 . S
O332 C330 1.289 . S
O333 Mg325 2.048 1_655 S
O333 C326 1.195 . S
O334 Mg325 2.048 1_655 S
O334 C335 1.195 . S
C335 O334 1.195 . S
C335 O336 1.313 . S
O336 C335 1.313 . S
O337 Mg325 2.141 . S
O337 C328 1.289 . S
Mg338 O345 2.141 . S
Mg338 O346 2.048 . S
Mg338 O347 2.048 . S
Mg338 O350 2.141 . S
C339 O340 1.313 . S
C339 O346 1.195 . S
O340 C339 1.313 . S
C341 O342 1.245 . S
C341 O350 1.289 . S
O342 C341 1.245 . S
C343 O344 1.245 . S
C343 O345 1.289 . S
O344 C343 1.245 . S
O345 Mg338 2.141 . S
O345 C343 1.289 . S
O346 Mg338 2.048 . S
O346 C339 1.195 . S
O347 Mg338 2.048 . S
O347 C348 1.195 . S
C348 O347 1.195 . S
C348 O349 1.313 . S
O349 C348 1.313 . S
O350 Mg338 2.141 . S
O350 C341 1.289 . S
Mg351 O358 2.141 . S
Mg351 O359 2.048 1_655 S
Mg351 O360 2.048 1_655 S
Mg351 O363 2.141 . S
C352 O353 1.313 . S
C352 O359 1.195 . S
O353 C352 1.313 . S
C354 O355 1.245 . S
C354 O363 1.289 . S
O355 C354 1.245 . S
C356 O357 1.245 . S
C356 O358 1.289 . S
O357 C356 1.245 . S
O358 Mg351 2.141 . S
O358 C356 1.289 . S
O359 Mg351 2.048 1_455 S
O359 C352 1.195 . S
O360 Mg351 2.048 1_455 S
O360 C361 1.195 . S
C361 O360 1.195 . S
C361 O362 1.313 . S
O362 C361 1.313 . S
O363 Mg351 2.141 . S
O363 C354 1.289 . S
Mg364 O371 2.141 . S
Mg364 O372 2.048 . S
Mg364 O373 2.048 . S
Mg364 O376 2.141 . S
C365 O366 1.313 . S
C365 O372 1.195 . S
O366 C365 1.313 . S
C367 O368 1.245 . S
C367 O376 1.289 . S
O368 C367 1.245 . S
C369 O370 1.245 . S
C369 O371 1.289 . S
O370 C369 1.245 . S
O371 Mg364 2.141 . S
O371 C369 1.289 . S
O372 Mg364 2.048 . S
O372 C365 1.195 . S
O373 Mg364 2.048 . S
O373 C374 1.195 . S
C374 O373 1.195 . S
C374 O375 1.313 . S
O375 C374 1.313 . S
O376 Mg364 2.141 . S
O376 C367 1.289 . S
Mg377 O384 2.141 . S
Mg377 O385 2.048 . S
Mg377 O386 2.048 . S
Mg377 O389 2.141 . S
C378 O379 1.313 . S
C378 O385 1.195 . S
O379 C378 1.313 . S
C380 O381 1.245 . S
C380 O389 1.289 . S
O381 C380 1.245 . S
C382 O383 1.245 . S
C382 O384 1.289 . S
O383 C382 1.245 . S
O384 Mg377 2.141 . S
O384 C382 1.289 . S
O385 Mg377 2.048 . S
O385 C378 1.195 . S
O386 Mg377 2.048 . S
O386 C387 1.195 . S
C387 O386 1.195 . S
C387 O388 1.313 . S
O388 C387 1.313 . S
O389 Mg377 2.141 . S
O389 C380 1.289 . S
Mg390 O397 2.141 . S
Mg390 O398 2.048 . S
Mg390 O399 2.048 . S
Mg390 O402 2.141 . S
C391 O392 1.313 . S
C391 O398 1.195 . S
O392 C391 1.313 . S
C393 O394 1.245 . S
C393 O402 1.289 . S
O394 C393 1.245 . S
C395 O396 1.245 . S
C395 O397 1.289 . S
O396 C395 1.245 . S
O397 Mg390 2.141 . S
O397 C395 1.289 . S
O398 Mg390 2.048 . S
O398 C391 1.195 . S
O399 Mg390 2.048 . S
O399 C400 1.195 . S
C400 O399 1.195 . S
C400 O401 1.313 . S
O401 C400 1.313 . S
O402 Mg390 2.141 . S
O402 C393 1.289 . S
Mg403 O410 2.141 . S
Mg403 O411 2.048 . S
Mg403 O412 2.048 . S
Mg403 O415 2.141 . S
C404 O405 1.313 . S
C404 O411 1.195 . S
O405 C404 1.313 . S
C406 O407 1.245 . S
C406 O415 1.289 . S
O407 C406 1.245 . S
C408 O409 1.245 . S
C408 O410 1.289 . S
O409 C408 1.245 . S
O410 Mg403 2.141 . S
O410 C408 1.289 . S
O411 Mg403 2.048 . S
O411 C404 1.195 . S
O412 Mg403 2.048 . S
O412 C413 1.195 . S
C413 O412 1.195 . S
C413 O414 1.313 . S
O414 C413 1.313 . S
O415 Mg403 2.141 . S
O415 C406 1.289 . S
Mg416 O423 2.141 . S
Mg416 O424 2.048 . S
Mg416 O425 2.048 . S
Mg416 O428 2.141 . S
C417 O418 1.313 . S
C417 O424 1.195 . S
O418 C417 1.313 . S
C419 O420 1.245 . S
C419 O428 1.289 . S
O420 C419 1.245 . S
C421 O422 1.245 . S
C421 O423 1.289 . S
O422 C421 1.245 . S
O423 Mg416 2.141 . S
O423 C421 1.289 . S
O424 Mg416 2.048 . S
O424 C417 1.195 . S
O425 Mg416 2.048 . S
O425 C426 1.195 . S
C426 O425 1.195 . S
C426 O427 1.313 . S
O427 C426 1.313 . S
O428 Mg416 2.141 . S
O428 C419 1.289 . S
Mg429 O436 2.141 . S
Mg429 O437 2.048 . S
Mg429 O438 2.048 . S
Mg429 O441 2.141 . S
C430 O431 1.313 . S
C430 O437 1.195 . S
O431 C430 1.313 . S
C432 O433 1.245 . S
C432 O441 1.289 . S
O433 C432 1.245 . S
C434 O435 1.245 . S
C434 O436 1.289 . S
O435 C434 1.245 . S
O436 Mg429 2.141 . S
O436 C434 1.289 . S
O437 Mg429 2.048 . S
O437 C430 1.195 . S
O438 Mg429 2.048 . S
O438 C439 1.195 . S
C439 O438 1.195 . S
C439 O440 1.313 . S
O440 C439 1.313 . S
O441 Mg429 2.141 . S
O441 C432 1.289 . S
Mg442 O449 2.141 . S
Mg442 O450 2.048 . S
Mg442 O451 2.048 . S
Mg442 O454 2.141 . S
C443 O444 1.313 . S
C443 O450 1.195 . S
O444 C443 1.313 . S
C445 O446 1.245 . S
C445 O454 1.289 . S
O446 C445 1.245 . S
C447 O448 1.245 . S
C447 O449 1.289 . S
O448 C447 1.245 . S
O449 Mg442 2.141 . S
O449 C447 1.289 . S
O450 Mg442 2.048 . S
O450 C443 1.195 . S
O451 Mg442 2.048 . S
O451 C452 1.195 . S
C452 O451 1.195 . S
C452 O453 1.313 . S
O453 C452 1.313 . S
O454 Mg442 2.141 . S
O454 C445 1.289 . S
Mg455 O462 2.141 . S
Mg455 O463 2.048 . S
Mg455 O464 2.048 . S
Mg455 O467 2.141 . S
C456 O457 1.313 . S
C456 O463 1.195 . S
O457 C456 1.313 . S
C458 O459 1.245 . S
C458 O467 1.289 . S
O459 C458 1.245 . S
C460 O461 1.245 . S
C460 O462 1.289 . S
O461 C460 1.245 . S
O462 Mg455 2.141 . S
O462 C460 1.289 . S
O463 Mg455 2.048 . S
O463 C456 1.195 . S
O464 Mg455 2.048 . S
O464 C465 1.195 . S
C465 O464 1.195 . S
C465 O466 1.313 . S
O466 C465 1.313 . S
O467 Mg455 2.141 . S
O467 C458 1.289 . S
Mg468 O475 2.141 . S
Mg468 O476 2.048 . S
Mg468 O477 2.048 . S
Mg468 O480 2.141 . S
C469 O470 1.313 . S
C469 O476 1.195 . S
O470 C469 1.313 . S
C471 O472 1.245 . S
C471 O480 1.289 . S
O472 C471 1.245 . S
C473 O474 1.245 . S
C473 O475 1.289 . S
O474 C473 1.245 . S
O475 Mg468 2.141 . S
O475 C473 1.289 . S
O476 Mg468 2.048 . S
O476 C469 1.195 . S
O477 Mg468 2.048 . S
O477 C478 1.195 . S
C478 O477 1.195 . S
C478 O479 1.313 . S
O479 C478 1.313 . S
O480 Mg468 2.141 . S
O480 C471 1.289 . S
Mg481 O488 2.141 . S
Mg481 O489 2.048 . S
Mg481 O490 2.048 . S
Mg481 O493 2.141 . S
C482 O483 1.313 . S
C482 O489 1.195 . S
O483 C482 1.313 . S
C484 O485 1.245 . S
C484 O493 1.289 . S
O485 C484 1.245 . S
C486 O487 1.245 . S
C486 O488 1.289 . S
O487 C486 1.245 . S
O488 Mg481 2.141 . S
O488 C486 1.289 . S
O489 Mg481 2.048 . S
O489 C482 1.195 . S
O490 Mg481 2.048 . S
O490 C491 1.195 . S
C491 O490 1.195 . S
C491 O492 1.313 . S
O492 C491 1.313 . S
O493 Mg481 2.141 . S
O493 C484 1.289 . S
Mg494 O501 2.141 . S
Mg494 O502 2.048 . S
Mg494 O503 2.048 . S
Mg494 O506 2.141 . S
C495 O496 1.313 . S
C495 O502 1.195 . S
O496 C495 1.313 . S
C497 O498 1.245 . S
C497 O506 1.289 . S
O498 C497 1.245 . S
C499 O500 1.245 . S
C499 O501 1.289 . S
O500 C499 1.245 . S
O501 Mg494 2.141 . S
O501 C499 1.289 . S
O502 Mg494 2.048 . S
O502 C495 1.195 . S
O503 Mg494 2.048 . S
O503 C504 1.195 . S
C504 O503 1.195 . S
C504 O505 1.313 . S
O505 C504 1.313 . S
O506 Mg494 2.141 . S
O506 C497 1.289 . S
Mg507 O514 2.141 . S
Mg507 O515 2.048 . S
Mg507 O516 2.048 . S
Mg507 O519 2.141 . S
C508 O509 1.313 . S
C508 O515 1.195 . S
O509 C508 1.313 . S
C510 O511 1.245 . S
C510 O519 1.289 . S
O511 C510 1.245 . S
C512 O513 1.245 . S
C512 O514 1.289 . S
O513 C512 1.245 . S
O514 Mg507 2.141 . S
O514 C512 1.289 . S
O515 Mg507 2.048 . S
O515 C508 1.195 . S
O516 Mg507 2.048 . S
O516 C517 1.195 . S
C517 O516 1.195 . S
C517 O518 1.313 . S
O518 C517 1.313 . S
O519 Mg507 2.141 . S
O519 C510 1.289 . S
Mg520 O527 2.141 . S
Mg520 O528 2.048 . S
Mg520 O529 2.048 . S
Mg520 O532 2.141 . S
C521 O522 1.313 . S
C521 O528 1.195 . S
O522 C521 1.313 . S
C523 O524 1.245 . S
C523 O532 1.289 . S
O524 C523 1.245 . S
C525 O526 1.245 . S
C525 O527 1.289 . S
O526 C525 1.245 . S
O527 Mg520 2.141 . S
O527 C525 1.289 . S
O528 Mg520 2.048 . S
O528 C521 1.195 . S
O529 Mg520 2.048 . S
O529 C530 1.195 . S
C530 O529 1.195 . S
C530 O531 1.313 . S
O531 C530 1.313 . S
O532 Mg520 2.141 . S
O532 C523 1.289 . S
Mg533 O540 2.141 . S
Mg533 O541 2.048 . S
Mg533 O542 2.048 . S
Mg533 O545 2.141 . S
C534 O535 1.313 . S
C534 O541 1.195 . S
O535 C534 1.313 . S
C536 O537 1.245 . S
C536 O545 1.289 . S
O537 C536 1.245 . S
C538 O539 1.245 . S
C538 O540 1.289 . S
O539 C538 1.245 . S
O540 Mg533 2.141 . S
O540 C538 1.289 . S
O541 Mg533 2.048 . S
O541 C534 1.195 . S
O542 Mg533 2.048 . S
O542 C543 1.195 . S
C543 O542 1.195 . S
C543 O544 1.313 . S
O544 C543 1.313 . S
O545 Mg533 2.141 . S
O545 C536 1.289 . S
Mg546 O553 2.141 1_545 S
Mg546 O554 2.048 . S
Mg546 O555 2.048 . S
Mg546 O558 2.141 1_545 S
C547 O548 1.313 . S
C547 O554 1.195 . S
O548 C547 1.313 . S
C549 O550 1.245 . S
C549 O558 1.289 . S
O550 C549 1.245 . S
C551 O552 1.245 . S
C551 O553 1.289 . S
O552 C551 1.245 . S
O553 Mg546 2.141 1_565 S
O553 C551 1.289 . S
O554 Mg546 2.048 . S
O554 C547 1.195 . S
O555 Mg546 2.048 . S
O555 C556 1.195 . S
C556 O555 1.195 . S
C556 O557 1.313 . S
O557 C556 1.313 . S
O558 Mg546 2.141 1_565 S
O558 C549 1.289 . S
Mg559 O566 2.141 . S
Mg559 O567 2.048 . S
Mg559 O568 2.048 . S
Mg559 O571 2.141 . S
C560 O561 1.313 . S
C560 O567 1.195 . S
O561 C560 1.313 . S
C562 O563 1.245 . S
C562 O571 1.289 . S
O563 C562 1.245 . S
C564 O565 1.245 . S
C564 O566 1.289 . S
O565 C564 1.245 . S
O566 Mg559 2.141 . S
O566 C564 1.289 . S
O567 Mg559 2.048 . S
O567 C560 1.195 . S
O568 Mg559 2.048 . S
O568 C569 1.195 . S
C569 O568 1.195 . S
C569 O570 1.313 . S
O570 C569 1.313 . S
O571 Mg559 2.141 . S
O571 C562 1.289 . S
Mg572 O579 2.141 1_565 S
Mg572 O580 2.048 . S
Mg572 O581 2.048 . S
Mg572 O584 2.141 1_565 S
C573 O574 1.313 . S
C573 O580 1.195 . S
O574 C573 1.313 . S
C575 O576 1.245 . S
C575 O584 1.289 . S
O576 C575 1.245 . S
C577 O578 1.245 . S
C577 O579 1.289 . S
O578 C577 1.245 . S
O579 Mg572 2.141 1_545 S
O579 C577 1.289 . S
O580 Mg572 2.048 . S
O580 C573 1.195 . S
O581 Mg572 2.048 . S
O581 C582 1.195 . S
C582 O581 1.195 . S
C582 O583 1.313 . S
O583 C582 1.313 . S
O584 Mg572 2.141 1_545 S
O584 C575 1.289 . S
Mg585 O592 2.141 . S
Mg585 O593 2.048 . S
Mg585 O594 2.048 . S
Mg585 O597 2.141 . S
C586 O587 1.313 . S
C586 O593 1.195 . S
O587 C586 1.313 . S
C588 O589 1.245 . S
C588 O597 1.289 . S
O589 C588 1.245 . S
C590 O591 1.245 . S
C590 O592 1.289 . S
O591 C590 1.245 . S
O592 Mg585 2.141 . S
O592 C590 1.289 . S
O593 Mg585 2.048 . S
O593 C586 1.195 . S
O594 Mg585 2.048 . S
O594 C595 1.195 . S
C595 O594 1.195 . S
C595 O596 1.313 . S
O596 C595 1.313 . S
O597 Mg585 2.141 . S
O597 C588 1.289 . S
Mg598 O605 2.141 1_565 S
Mg598 O606 2.048 . S
Mg598 O607 2.048 . S
Mg598 O610 2.141 1_565 S
C599 O600 1.313 . S
C599 O606 1.195 . S
O600 C599 1.313 . S
C601 O602 1.245 . S
C601 O610 1.289 . S
O602 C601 1.245 . S
C603 O604 1.245 . S
C603 O605 1.289 . S
O604 C603 1.245 . S
O605 Mg598 2.141 1_545 S
O605 C603 1.289 . S
O606 Mg598 2.048 . S
O606 C599 1.195 . S
O607 Mg598 2.048 . S
O607 C608 1.195 . S
C608 O607 1.195 . S
C608 O609 1.313 . S
O609 C608 1.313 . S
O610 Mg598 2.141 1_545 S
O610 C601 1.289 . S
Mg611 O618 2.141 . S
Mg611 O619 2.048 . S
Mg611 O620 2.048 . S
Mg611 O623 2.141 . S
C612 O613 1.313 . S
C612 O619 1.195 . S
O613 C612 1.313 . S
C614 O615 1.245 . S
C614 O623 1.289 . S
O615 C614 1.245 . S
C616 O617 1.245 . S
C616 O618 1.289 . S
O617 C616 1.245 . S
O618 Mg611 2.141 . S
O618 C616 1.289 . S
O619 Mg611 2.048 . S
O619 C612 1.195 . S
O620 Mg611 2.048 . S
O620 C621 1.195 . S
C621 O620 1.195 . S
C621 O622 1.313 . S
O622 C621 1.313 . S
O623 Mg611 2.141 . S
O623 C614 1.289 . S
H624 C630 0.930 . S
H625 C633 0.930 . S
H626 C634 0.930 . S
H627 C635 0.930 . S
H628 C638 0.930 . S
H629 C639 0.930 . S
C630 H624 0.930 . S
C630 C631 1.355 . S
C630 C632 1.415 . S
C631 C630 1.355 . S
C631 C633 1.419 . S
C632 C630 1.415 . S
C632 C637 1.425 . S
C632 C639 1.409 . S
C633 H625 0.930 . S
C633 C631 1.419 . S
C633 C634 1.362 . S
C634 H626 0.930 . S
C634 C633 1.362 . S
C634 C637 1.409 . S
C635 H627 0.930 . S
C635 C636 1.355 . S
C635 C637 1.415 . S
C636 C635 1.355 . S
C636 C638 1.419 . S
C637 C632 1.425 . S
C637 C634 1.409 . S
C637 C635 1.415 . S
C638 H628 0.930 . S
C638 C636 1.419 . S
C638 C639 1.362 . S
C639 H629 0.930 . S
C639 C632 1.409 . S
C639 C638 1.362 . S
H640 C646 0.930 . S
H641 C649 0.930 . S
H642 C650 0.930 . S
H643 C651 0.930 . S
H644 C654 0.930 . S
H645 C655 0.930 . S
C646 H640 0.930 . S
C646 C647 1.355 . S
C646 C648 1.415 1_554 S
C647 C646 1.355 . S
C647 C649 1.419 . S
C648 C646 1.415 1_556 S
C648 C653 1.425 . S
C648 C655 1.409 . S
C649 H641 0.930 . S
C649 C647 1.419 . S
C649 C650 1.362 1_554 S
C650 H642 0.930 . S
C650 C649 1.362 1_556 S
C650 C653 1.409 . S
C651 H643 0.930 . S
C651 C652 1.355 . S
C651 C653 1.415 . S
C652 C651 1.355 . S
C652 C654 1.419 . S
C653 C648 1.425 . S
C653 C650 1.409 . S
C653 C651 1.415 . S
C654 H644 0.930 . S
C654 C652 1.419 . S
C654 C655 1.362 . S
C655 H645 0.930 . S
C655 C648 1.409 . S
C655 C654 1.362 . S
H656 C662 0.930 . S
H657 C665 0.930 . S
H658 C666 0.930 . S
H659 C667 0.930 . S
H660 C670 0.930 . S
H661 C671 0.930 . S
C662 H656 0.930 . S
C662 C663 1.355 . S
C662 C664 1.415 . S
C663 C662 1.355 . S
C663 C665 1.419 . S
C664 C662 1.415 . S
C664 C669 1.425 . S
C664 C671 1.409 . S
C665 H657 0.930 . S
C665 C663 1.419 . S
C665 C666 1.362 . S
C666 H658 0.930 . S
C666 C665 1.362 . S
C666 C669 1.409 . S
C667 H659 0.930 . S
C667 C668 1.355 . S
C667 C669 1.415 . S
C668 C667 1.355 . S
C668 C670 1.419 . S
C669 C664 1.425 . S
C669 C666 1.409 . S
C669 C667 1.415 . S
C670 H660 0.930 . S
C670 C668 1.419 . S
C670 C671 1.362 . S
C671 H661 0.930 . S
C671 C664 1.409 . S
C671 C670 1.362 . S
H672 C678 0.930 . S
H673 C681 0.930 . S
H674 C682 0.930 . S
H675 C683 0.930 . S
H676 C686 0.930 . S
H677 C687 0.930 . S
C678 H672 0.930 . S
C678 C679 1.355 . S
C678 C680 1.415 . S
C679 C678 1.355 . S
C679 C681 1.419 . S
C680 C678 1.415 . S
C680 C685 1.425 . S
C680 C687 1.409 1_556 S
C681 H673 0.930 . S
C681 C679 1.419 . S
C681 C682 1.362 . S
C682 H674 0.930 . S
C682 C681 1.362 . S
C682 C685 1.409 . S
C683 H675 0.930 . S
C683 C684 1.355 . S
C683 C685 1.415 1_554 S
C684 C683 1.355 . S
C684 C686 1.419 . S
C685 C680 1.425 . S
C685 C682 1.409 . S
C685 C683 1.415 1_556 S
C686 H676 0.930 . S
C686 C684 1.419 . S
C686 C687 1.362 . S
C687 H677 0.930 . S
C687 C680 1.409 1_554 S
C687 C686 1.362 . S
H688 C694 0.930 . S
H689 C697 0.930 . S
H690 C698 0.930 . S
H691 C699 0.930 . S
H692 C702 0.930 . S
H693 C703 0.930 . S
C694 H688 0.930 . S
C694 C695 1.355 . S
C694 C696 1.415 . S
C695 C694 1.355 . S
C695 C697 1.419 . S
C696 C694 1.415 . S
C696 C701 1.425 . S
C696 C703 1.409 . S
C697 H689 0.930 . S
C697 C695 1.419 . S
C697 C698 1.362 . S
C698 H690 0.930 . S
C698 C697 1.362 . S
C698 C701 1.409 . S
C699 H691 0.930 . S
C699 C700 1.355 . S
C699 C701 1.415 . S
C700 C699 1.355 . S
C700 C702 1.419 . S
C701 C696 1.425 . S
C701 C698 1.409 . S
C701 C699 1.415 . S
C702 H692 0.930 . S
C702 C700 1.419 . S
C702 C703 1.362 . S
C703 H693 0.930 . S
C703 C696 1.409 . S
C703 C702 1.362 . S
H704 C710 0.930 . S
H705 C713 0.930 . S
H706 C714 0.930 . S
H707 C715 0.930 . S
H708 C718 0.930 . S
H709 C719 0.930 . S
C710 H704 0.930 . S
C710 C711 1.355 . S
C710 C712 1.415 . S
C711 C710 1.355 . S
C711 C713 1.419 . S
C712 C710 1.415 . S
C712 C717 1.425 . S
C712 C719 1.409 1_554 S
C713 H705 0.930 . S
C713 C711 1.419 . S
C713 C714 1.362 . S
C714 H706 0.930 . S
C714 C713 1.362 . S
C714 C717 1.409 . S
C715 H707 0.930 . S
C715 C716 1.355 . S
C715 C717 1.415 1_556 S
C716 C715 1.355 . S
C716 C718 1.419 . S
C717 C712 1.425 . S
C717 C714 1.409 . S
C717 C715 1.415 1_554 S
C718 H708 0.930 . S
C718 C716 1.419 . S
C718 C719 1.362 . S
C719 H709 0.930 . S
C719 C712 1.409 1_556 S
C719 C718 1.362 . S
H720 C726 0.930 . S
H721 C729 0.930 . S
H722 C730 0.930 . S
H723 C731 0.930 . S
H724 C734 0.930 . S
H725 C735 0.930 . S
C726 H720 0.930 . S
C726 C727 1.355 . S
C726 C728 1.415 . S
C727 C726 1.355 . S
C727 C729 1.419 . S
C728 C726 1.415 . S
C728 C733 1.425 . S
C728 C735 1.409 . S
C729 H721 0.930 . S
C729 C727 1.419 . S
C729 C730 1.362 . S
C730 H722 0.930 . S
C730 C729 1.362 . S
C730 C733 1.409 . S
C731 H723 0.930 . S
C731 C732 1.355 . S
C731 C733 1.415 . S
C732 C731 1.355 . S
C732 C734 1.419 . S
C733 C728 1.425 . S
C733 C730 1.409 . S
C733 C731 1.415 . S
C734 H724 0.930 . S
C734 C732 1.419 . S
C734 C735 1.362 . S
C735 H725 0.930 . S
C735 C728 1.409 . S
C735 C734 1.362 . S
H736 C742 0.930 . S
H737 C745 0.930 . S
H738 C746 0.930 . S
H739 C747 0.930 . S
H740 C750 0.930 . S
H741 C751 0.930 . S
C742 H736 0.930 . S
C742 C743 1.355 . S
C742 C744 1.415 1_556 S
C743 C742 1.355 . S
C743 C745 1.419 . S
C744 C742 1.415 1_554 S
C744 C749 1.425 . S
C744 C751 1.409 . S
C745 H737 0.930 . S
C745 C743 1.419 . S
C745 C746 1.362 . S
C746 H738 0.930 . S
C746 C745 1.362 . S
C746 C749 1.409 1_556 S
C747 H739 0.930 . S
C747 C748 1.355 . S
C747 C749 1.415 . S
C748 C747 1.355 . S
C748 C750 1.419 . S
C749 C744 1.425 . S
C749 C746 1.409 1_554 S
C749 C747 1.415 . S
C750 H740 0.930 . S
C750 C748 1.419 . S
C750 C751 1.362 . S
C751 H741 0.930 . S
C751 C744 1.409 . S
C751 C750 1.362 . S
H752 C758 0.930 . S
H753 C761 0.930 . S
H754 C762 0.930 . S
H755 C763 0.930 . S
H756 C766 0.930 . S
H757 C767 0.930 . S
C758 H752 0.930 . S
C758 C759 1.355 . S
C758 C760 1.415 . S
C759 C758 1.355 . S
C759 C761 1.419 . S
C760 C758 1.415 . S
C760 C765 1.425 . S
C760 C767 1.409 . S
C761 H753 0.930 . S
C761 C759 1.419 . S
C761 C762 1.362 . S
C762 H754 0.930 . S
C762 C761 1.362 . S
C762 C765 1.409 . S
C763 H755 0.930 . S
C763 C764 1.355 . S
C763 C765 1.415 . S
C764 C763 1.355 . S
C764 C766 1.419 . S
C765 C760 1.425 . S
C765 C762 1.409 . S
C765 C763 1.415 . S
C766 H756 0.930 . S
C766 C764 1.419 . S
C766 C767 1.362 . S
C767 H757 0.930 . S
C767 C760 1.409 . S
C767 C766 1.362 . S
H768 C774 0.930 . S
H769 C777 0.930 . S
H770 C778 0.930 . S
H771 C779 0.930 . S
H772 C782 0.930 . S
H773 C783 0.930 . S
C774 H768 0.930 . S
C774 C775 1.355 . S
C774 C776 1.415 . S
C775 C774 1.355 . S
C775 C777 1.419 . S
C776 C774 1.415 . S
C776 C781 1.425 . S
C776 C783 1.409 . S
C777 H769 0.930 . S
C777 C775 1.419 . S
C777 C778 1.362 . S
C778 H770 0.930 . S
C778 C777 1.362 . S
C778 C781 1.409 . S
C779 H771 0.930 . S
C779 C780 1.355 . S
C779 C781 1.415 . S
C780 C779 1.355 . S
C780 C782 1.419 . S
C781 C776 1.425 . S
C781 C778 1.409 . S
C781 C779 1.415 . S
C782 H772 0.930 . S
C782 C780 1.419 . S
C782 C783 1.362 . S
C783 H773 0.930 . S
C783 C776 1.409 . S
C783 C782 1.362 . S
H784 C790 0.930 . S
H785 C793 0.930 . S
H786 C794 0.930 . S
H787 C795 0.930 . S
H788 C798 0.930 . S
H789 C799 0.930 . S
C790 H784 0.930 . S
C790 C791 1.355 . S
C790 C792 1.415 . S
C791 C790 1.355 . S
C791 C793 1.419 . S
C792 C790 1.415 . S
C792 C797 1.425 . S
C792 C799 1.409 . S
C793 H785 0.930 . S
C793 C791 1.419 . S
C793 C794 1.362 . S
C794 H786 0.930 . S
C794 C793 1.362 . S
C794 C797 1.409 . S
C795 H787 0.930 . S
C795 C796 1.355 . S
C795 C797 1.415 . S
C796 C795 1.355 . S
C796 C798 1.419 . S
C797 C792 1.425 . S
C797 C794 1.409 . S
C797 C795 1.415 . S
C798 H788 0.930 . S
C798 C796 1.419 . S
C798 C799 1.362 . S
C799 H789 0.930 . S
C799 C792 1.409 . S
C799 C798 1.362 . S
H800 C806 0.930 . S
H801 C809 0.930 . S
H802 C810 0.930 . S
H803 C811 0.930 . S
H804 C814 0.930 . S
H805 C815 0.912 1_565 S
C806 H800 0.930 . S
C806 C807 1.355 . S
C806 C808 1.415 1_565 S
C807 C806 1.355 . S
C807 C809 1.419 . S
C808 C806 1.415 1_545 S
C808 C813 1.425 . S
C808 C815 1.409 . S
C809 H801 0.930 . S
C809 C807 1.419 . S
C809 C810 1.362 1_565 S
C810 H802 0.930 . S
C810 C809 1.362 1_545 S
C810 C813 1.409 . S
C811 H803 0.930 . S
C811 C812 1.355 . S
C811 C813 1.415 . S
C812 C811 1.355 . S
C812 C814 1.419 . S
C813 C808 1.425 . S
C813 C810 1.409 . S
C813 C811 1.415 . S
C814 H804 0.930 . S
C814 C812 1.419 . S
C814 C815 1.362 . S
C815 H805 0.912 1_545 S
C815 C808 1.409 . S
C815 C814 1.362 . S
H816 C822 0.930 . S
H817 C825 0.930 . S
H818 C826 0.930 . S
H819 C827 0.930 . S
H820 C830 0.930 . S
H821 C831 0.930 . S
C822 H816 0.930 . S
C822 C823 1.355 . S
C822 C824 1.415 . S
C823 C822 1.355 . S
C823 C825 1.419 . S
C824 C822 1.415 . S
C824 C829 1.425 . S
C824 C831 1.409 . S
C825 H817 0.930 . S
C825 C823 1.419 . S
C825 C826 1.362 . S
C826 H818 0.930 . S
C826 C825 1.362 . S
C826 C829 1.409 . S
C827 H819 0.930 . S
C827 C828 1.355 . S
C827 C829 1.415 . S
C828 C827 1.355 . S
C828 C830 1.419 . S
C829 C824 1.425 . S
C829 C826 1.409 . S
C829 C827 1.415 . S
C830 H820 0.930 . S
C830 C828 1.419 . S
C830 C831 1.362 . S
C831 H821 0.930 . S
C831 C824 1.409 . S
C831 C830 1.362 . S
H832 C838 0.930 . S
H833 C841 0.930 . S
H834 C842 0.930 . S
H835 C843 0.930 . S
H836 C846 0.930 . S
H837 C847 0.930 . S
C838 H832 0.930 . S
C838 C839 1.355 . S
C838 C840 1.415 . S
C839 C838 1.355 . S
C839 C841 1.419 . S
C840 C838 1.415 . S
C840 C845 1.425 . S
C840 C847 1.409 . S
C841 H833 0.930 . S
C841 C839 1.419 . S
C841 C842 1.362 . S
C842 H834 0.930 . S
C842 C841 1.362 . S
C842 C845 1.409 . S
C843 H835 0.930 . S
C843 C844 1.355 . S
C843 C845 1.415 . S
C844 C843 1.355 . S
C844 C846 1.419 . S
C845 C840 1.425 . S
C845 C842 1.409 . S
C845 C843 1.415 . S
C846 H836 0.930 . S
C846 C844 1.419 . S
C846 C847 1.362 . S
C847 H837 0.930 . S
C847 C840 1.409 . S
C847 C846 1.362 . S
H848 C854 0.930 . S
H849 C857 0.930 . S
H850 C858 0.930 . S
H851 C859 0.930 . S
H852 C862 0.930 . S
H853 C863 0.930 . S
C854 H848 0.930 . S
C854 C855 1.355 . S
C854 C856 1.415 . S
C855 C854 1.355 . S
C855 C857 1.419 . S
C856 C854 1.415 . S
C856 C861 1.425 . S
C856 C863 1.409 . S
C857 H849 0.930 . S
C857 C855 1.419 . S
C857 C858 1.362 . S
C858 H850 0.930 . S
C858 C857 1.362 . S
C858 C861 1.409 . S
C859 H851 0.930 . S
C859 C860 1.355 . S
C859 C861 1.415 . S
C860 C859 1.355 . S
C860 C862 1.419 . S
C861 C856 1.425 . S
C861 C858 1.409 . S
C861 C859 1.415 . S
C862 H852 0.930 . S
C862 C860 1.419 . S
C862 C863 1.362 . S
C863 H853 0.930 . S
C863 C856 1.409 . S
C863 C862 1.362 . S
H864 C870 0.930 . S
H865 C873 0.930 . S
H866 C874 0.930 . S
H867 C875 0.930 . S
H868 C878 0.930 . S
H869 C879 0.930 . S
C870 H864 0.930 . S
C870 C871 1.355 . S
C870 C872 1.415 . S
C871 C870 1.355 . S
C871 C873 1.419 . S
C872 C870 1.415 . S
C872 C877 1.425 . S
C872 C879 1.409 1_545 S
C873 H865 0.930 . S
C873 C871 1.419 . S
C873 C874 1.362 . S
C874 H866 0.930 . S
C874 C873 1.362 . S
C874 C877 1.409 . S
C875 H867 0.930 . S
C875 C876 1.355 . S
C875 C877 1.415 1_565 S
C876 C875 1.355 . S
C876 C878 1.419 . S
C877 C872 1.425 . S
C877 C874 1.409 . S
C877 C875 1.415 1_545 S
C878 H868 0.930 . S
C878 C876 1.419 . S
C878 C879 1.362 . S
C879 H869 0.930 . S
C879 C872 1.409 1_565 S
C879 C878 1.362 . S
H880 C886 0.930 . S
H881 C889 0.930 . S
H882 C890 0.930 . S
H883 C891 0.930 . S
H884 C894 0.930 . S
H885 C895 0.930 . S
C886 H880 0.930 . S
C886 C887 1.355 . S
C886 C888 1.415 . S
C887 C886 1.355 . S
C887 C889 1.419 . S
C888 C886 1.415 . S
C888 C893 1.425 . S
C888 C895 1.409 . S
C889 H881 0.930 . S
C889 C887 1.419 . S
C889 C890 1.362 . S
C890 H882 0.930 . S
C890 C889 1.362 . S
C890 C893 1.409 . S
C891 H883 0.930 . S
C891 C892 1.355 . S
C891 C893 1.415 . S
C892 C891 1.355 . S
C892 C894 1.419 . S
C893 C888 1.425 . S
C893 C890 1.409 . S
C893 C891 1.415 . S
C894 H884 0.930 . S
C894 C892 1.419 . S
C894 C895 1.362 . S
C895 H885 0.930 . S
C895 C888 1.409 . S
C895 C894 1.362 . S
H896 C902 0.930 . S
H897 C905 0.930 . S
H898 C906 0.930 . S
H899 C907 0.930 . S
H900 C910 0.930 . S
H901 C911 0.930 . S
C902 H896 0.930 . S
C902 C903 1.355 . S
C902 C904 1.415 . S
C903 C902 1.355 . S
C903 C905 1.419 . S
C904 C902 1.415 . S
C904 C909 1.425 . S
C904 C911 1.409 . S
C905 H897 0.930 . S
C905 C903 1.419 . S
C905 C906 1.362 . S
C906 H898 0.930 . S
C906 C905 1.362 . S
C906 C909 1.409 . S
C907 H899 0.930 . S
C907 C908 1.355 . S
C907 C909 1.415 . S
C908 C907 1.355 . S
C908 C910 1.419 . S
C909 C904 1.425 . S
C909 C906 1.409 . S
C909 C907 1.415 . S
C910 H900 0.930 . S
C910 C908 1.419 . S
C910 C911 1.362 . S
C911 H901 0.930 . S
C911 C904 1.409 . S
C911 C910 1.362 . S
H912 C918 0.930 . S
H913 C921 0.930 . S
H914 C922 0.930 . S
H915 C923 0.930 . S
H916 C926 0.930 . S
H917 C927 0.930 . S
C918 H912 0.930 . S
C918 C919 1.355 . S
C918 C920 1.415 . S
C919 C918 1.355 . S
C919 C921 1.419 . S
C920 C918 1.415 . S
C920 C925 1.442 . S
C920 C927 1.409 . S
C921 H913 0.930 . S
C921 C919 1.419 . S
C921 C922 1.362 . S
C922 H914 0.930 . S
C922 C921 1.362 . S
C922 C925 1.422 . S
C923 H915 0.930 . S
C923 C924 1.355 . S
C923 C925 1.386 1_455 S
C924 C923 1.355 . S
C924 C926 1.419 . S
C925 C920 1.442 . S
C925 C922 1.422 . S
C925 C923 1.386 1_655 S
C926 H916 0.930 . S
C926 C924 1.419 . S
C926 C927 1.362 1_455 S
C927 H917 0.930 . S
C927 C920 1.409 . S
C927 C926 1.362 1_655 S
H928 C934 0.930 . S
H929 C937 0.930 . S
H930 C938 0.930 . S
H931 C939 0.930 . S
H932 C942 0.930 . S
H933 C943 0.930 . S
C934 H928 0.930 . S
C934 C935 1.355 . S
C934 C936 1.415 . S
C935 C934 1.355 . S
C935 C937 1.419 . S
C936 C934 1.415 . S
C936 C941 1.425 . S
C936 C943 1.409 . S
C937 H929 0.930 . S
C937 C935 1.419 . S
C937 C938 1.362 . S
C938 H930 0.930 . S
C938 C937 1.362 . S
C938 C941 1.409 . S
C939 H931 0.930 . S
C939 C940 1.355 . S
C939 C941 1.415 . S
C940 C939 1.355 . S
C940 C942 1.419 . S
C941 C936 1.425 . S
C941 C938 1.409 . S
C941 C939 1.415 . S
C942 H932 0.930 . S
C942 C940 1.419 . S
C942 C943 1.362 . S
C943 H933 0.930 . S
C943 C936 1.409 . S
C943 C942 1.362 . S
H944 C950 0.930 . S
H945 C953 0.930 . S
H946 C954 0.930 . S
H947 C955 0.930 . S
H948 C958 0.930 . S
H949 C959 0.930 . S
C950 H944 0.930 . S
C950 C951 1.355 . S
C950 C952 1.415 . S
C951 C950 1.355 . S
C951 C953 1.419 . S
C952 C950 1.415 . S
C952 C957 1.425 . S
C952 C959 1.409 . S
C953 H945 0.930 . S
C953 C951 1.419 . S
C953 C954 1.362 . S
C954 H946 0.930 . S
C954 C953 1.362 . S
C954 C957 1.409 . S
C955 H947 0.930 . S
C955 C956 1.355 . S
C955 C957 1.415 . S
C956 C955 1.355 . S
C956 C958 1.419 . S
C957 C952 1.425 . S
C957 C954 1.409 . S
C957 C955 1.415 . S
C958 H948 0.930 . S
C958 C956 1.419 . S
C958 C959 1.362 . S
C959 H949 0.930 . S
C959 C952 1.409 . S
C959 C958 1.362 . S
H960 C966 0.930 . S
H961 C969 0.930 . S
H962 C970 0.930 . S
H963 C971 0.930 . S
H964 C974 0.930 . S
H965 C975 0.930 . S
C966 H960 0.930 . S
C966 C967 1.355 . S
C966 C968 1.415 . S
C967 C966 1.355 . S
C967 C969 1.419 . S
C968 C966 1.415 . S
C968 C973 1.425 . S
C968 C975 1.409 . S
C969 H961 0.930 . S
C969 C967 1.419 . S
C969 C970 1.362 . S
C970 H962 0.930 . S
C970 C969 1.362 . S
C970 C973 1.409 . S
C971 H963 0.930 . S
C971 C972 1.355 . S
C971 C973 1.415 . S
C972 C971 1.355 . S
C972 C974 1.419 . S
C973 C968 1.425 . S
C973 C970 1.409 . S
C973 C971 1.415 . S
C974 H964 0.930 . S
C974 C972 1.419 . S
C974 C975 1.362 . S
C975 H965 0.930 . S
C975 C968 1.409 . S
C975 C974 1.362 . S
H976 C982 0.930 . S
H977 C985 0.930 . S
H978 C986 0.930 . S
H979 C987 0.930 . S
H980 C990 0.930 . S
H981 C991 0.930 . S
C982 H976 0.930 . S
C982 C983 1.355 . S
C982 C984 1.415 1_455 S
C983 C982 1.355 . S
C983 C985 1.419 . S
C984 C982 1.415 1_655 S
C984 C989 1.425 . S
C984 C991 1.409 . S
C985 H977 0.930 . S
C985 C983 1.419 . S
C985 C986 1.362 . S
C986 H978 0.930 . S
C986 C985 1.362 . S
C986 C989 1.409 1_455 S
C987 H979 0.930 . S
C987 C988 1.355 . S
C987 C989 1.415 . S
C988 C987 1.355 . S
C988 C990 1.419 . S
C989 C984 1.425 . S
C989 C986 1.409 1_655 S
C989 C987 1.415 . S
C990 H980 0.930 . S
C990 C988 1.419 . S
C990 C991 1.362 . S
C991 H981 0.930 . S
C991 C984 1.409 . S
C991 C990 1.362 . S
H992 C998 0.930 . S
H993 C1001 0.930 . S
H994 C1002 0.930 . S
H995 C1003 0.930 . S
H996 C1006 0.930 . S
H997 C1007 0.930 . S
C998 H992 0.930 . S
C998 C999 1.355 . S
C998 C1000 1.415 1_655 S
C999 C998 1.355 . S
C999 C1001 1.419 . S
C1000 C998 1.415 1_455 S
C1000 C1005 1.425 . S
C1000 C1007 1.409 . S
C1001 H993 0.930 . S
C1001 C999 1.419 . S
C1001 C1002 1.362 . S
C1002 H994 0.930 . S
C1002 C1001 1.362 . S
C1002 C1005 1.409 1_655 S
C1003 H995 0.930 . S
C1003 C1004 1.355 . S
C1003 C1005 1.415 . S
C1004 C1003 1.355 . S
C1004 C1006 1.419 . S
C1005 C1000 1.425 . S
C1005 C1002 1.409 1_455 S
C1005 C1003 1.415 . S
C1006 H996 0.930 . S
C1006 C1004 1.419 . S
C1006 C1007 1.362 . S
C1007 H997 0.930 . S
C1007 C1000 1.409 . S
C1007 C1006 1.362 . S
H1008 C1014 0.930 . S
H1009 C1017 0.930 . S
H1010 C1018 0.930 . S
H1011 C1019 0.930 . S
H1012 C1022 0.930 . S
H1013 C1023 0.930 . S
C1014 H1008 0.930 . S
C1014 C1015 1.355 . S
C1014 C1016 1.415 . S
C1015 C1014 1.355 . S
C1015 C1017 1.419 . S
C1016 C1014 1.415 . S
C1016 C1021 1.425 . S
C1016 C1023 1.409 . S
C1017 H1009 0.930 . S
C1017 C1015 1.419 . S
C1017 C1018 1.362 . S
C1018 H1010 0.930 . S
C1018 C1017 1.362 . S
C1018 C1021 1.409 . S
C1019 H1011 0.930 . S
C1019 C1020 1.355 . S
C1019 C1021 1.415 . S
C1020 C1019 1.355 . S
C1020 C1022 1.419 . S
C1021 C1016 1.425 . S
C1021 C1018 1.409 . S
C1021 C1019 1.415 . S
C1022 H1012 0.930 . S
C1022 C1020 1.419 . S
C1022 C1023 1.362 . S
C1023 H1013 0.930 . S
C1023 C1016 1.409 . S
C1023 C1022 1.362 . S
H1024 C1030 0.930 . S
H1025 C1033 0.930 . S
H1026 C1034 0.930 . S
H1027 C1035 0.930 . S
H1028 C1038 0.930 . S
H1029 C1039 0.930 . S
C1030 H1024 0.930 . S
C1030 C1031 1.355 . S
C1030 C1032 1.415 . S
C1031 C1030 1.355 . S
C1031 C1033 1.419 . S
C1032 C1030 1.415 . S
C1032 C1037 1.425 . S
C1032 C1039 1.409 . S
C1033 H1025 0.930 . S
C1033 C1031 1.419 . S
C1033 C1034 1.362 . S
C1034 H1026 0.930 . S
C1034 C1033 1.362 . S
C1034 C1037 1.409 . S
C1035 H1027 0.930 . S
C1035 C1036 1.355 . S
C1035 C1037 1.415 . S
C1036 C1035 1.355 . S
C1036 C1038 1.419 . S
C1037 C1032 1.425 . S
C1037 C1034 1.409 . S
C1037 C1035 1.415 . S
C1038 H1028 0.930 . S
C1038 C1036 1.419 . S
C1038 C1039 1.362 . S
C1039 H1029 0.930 . S
C1039 C1032 1.409 . S
C1039 C1038 1.362 . S
H1040 C1046 0.930 . S
H1041 C1049 0.930 . S
H1042 C1050 0.930 . S
H1043 C1051 0.930 . S
H1044 C1054 0.930 . S
H1045 C1055 0.930 . S
C1046 H1040 0.930 . S
C1046 C1047 1.355 . S
C1046 C1048 1.415 . S
C1047 C1046 1.355 . S
C1047 C1049 1.419 . S
C1048 C1046 1.415 . S
C1048 C1053 1.425 . S
C1048 C1055 1.409 . S
C1049 H1041 0.930 . S
C1049 C1047 1.419 . S
C1049 C1050 1.362 . S
C1050 H1042 0.930 . S
C1050 C1049 1.362 . S
C1050 C1053 1.409 . S
C1051 H1043 0.930 . S
C1051 C1052 1.355 . S
C1051 C1053 1.415 . S
C1052 C1051 1.355 . S
C1052 C1054 1.419 . S
C1053 C1048 1.425 . S
C1053 C1050 1.409 . S
C1053 C1051 1.415 . S
C1054 H1044 0.930 . S
C1054 C1052 1.419 . S
C1054 C1055 1.362 . S
C1055 H1045 0.930 . S
C1055 C1048 1.409 . S
C1055 C1054 1.362 . S
H1056 C1062 0.930 . S
H1057 C1065 0.930 . S
H1058 C1066 0.930 . S
H1059 C1067 0.930 . S
H1060 C1070 0.930 . S
H1061 C1071 0.930 . S
C1062 H1056 0.930 . S
C1062 C1063 1.355 . S
C1062 C1064 1.415 . S
C1063 C1062 1.355 . S
C1063 C1065 1.419 . S
C1064 C1062 1.415 . S
C1064 C1069 1.425 . S
C1064 C1071 1.409 . S
C1065 H1057 0.930 . S
C1065 C1063 1.419 . S
C1065 C1066 1.362 . S
C1066 H1058 0.930 . S
C1066 C1065 1.362 . S
C1066 C1069 1.409 . S
C1067 H1059 0.930 . S
C1067 C1068 1.355 . S
C1067 C1069 1.415 . S
C1068 C1067 1.355 . S
C1068 C1070 1.419 . S
C1069 C1064 1.425 . S
C1069 C1066 1.409 . S
C1069 C1067 1.415 . S
C1070 H1060 0.930 . S
C1070 C1068 1.419 . S
C1070 C1071 1.362 . S
C1071 H1061 0.930 . S
C1071 C1064 1.409 . S
C1071 C1070 1.362 . S
H1072 C1078 0.930 . S
H1073 C1081 0.930 . S
H1074 C1082 0.930 . S
H1075 C1083 0.930 . S
H1076 C1086 0.930 . S
H1077 C1087 0.930 . S
C1078 H1072 0.930 . S
C1078 C1079 1.355 . S
C1078 C1080 1.415 . S
C1079 C1078 1.355 . S
C1079 C1081 1.419 . S
C1080 C1078 1.415 . S
C1080 C1085 1.425 . S
C1080 C1087 1.409 . S
C1081 H1073 0.930 . S
C1081 C1079 1.419 . S
C1081 C1082 1.362 . S
C1082 H1074 0.930 . S
C1082 C1081 1.362 . S
C1082 C1085 1.409 . S
C1083 H1075 0.930 . S
C1083 C1084 1.355 . S
C1083 C1085 1.415 . S
C1084 C1083 1.355 . S
C1084 C1086 1.419 . S
C1085 C1080 1.425 . S
C1085 C1082 1.409 . S
C1085 C1083 1.415 . S
C1086 H1076 0.930 . S
C1086 C1084 1.419 . S
C1086 C1087 1.362 . S
C1087 H1077 0.930 . S
C1087 C1080 1.409 . S
C1087 C1086 1.362 . S
H1088 C1094 0.930 . S
H1089 C1097 0.930 . S
H1090 C1098 0.930 . S
H1091 C1099 0.930 . S
H1092 C1102 0.930 . S
H1093 C1103 0.930 . S
C1094 H1088 0.930 . S
C1094 C1095 1.355 . S
C1094 C1096 1.415 . S
C1095 C1094 1.355 . S
C1095 C1097 1.419 . S
C1096 C1094 1.415 . S
C1096 C1101 1.425 . S
C1096 C1103 1.409 . S
C1097 H1089 0.930 . S
C1097 C1095 1.419 . S
C1097 C1098 1.362 . S
C1098 H1090 0.930 . S
C1098 C1097 1.362 . S
C1098 C1101 1.409 . S
C1099 H1091 0.930 . S
C1099 C1100 1.355 . S
C1099 C1101 1.415 . S
C1100 C1099 1.355 . S
C1100 C1102 1.419 . S
C1101 C1096 1.425 . S
C1101 C1098 1.409 . S
C1101 C1099 1.415 . S
C1102 H1092 0.930 . S
C1102 C1100 1.419 . S
C1102 C1103 1.362 . S
C1103 H1093 0.930 . S
C1103 C1096 1.409 . S
C1103 C1102 1.362 . S
H1104 C1110 0.930 . S
H1105 C1113 0.930 . S
H1106 C1114 0.930 . S
H1107 C1115 0.930 . S
H1108 C1118 0.930 . S
H1109 C1119 0.930 . S
C1110 H1104 0.930 . S
C1110 C1111 1.355 . S
C1110 C1112 1.415 . S
C1111 C1110 1.355 . S
C1111 C1113 1.419 . S
C1112 C1110 1.415 . S
C1112 C1117 1.425 . S
C1112 C1119 1.409 . S
C1113 H1105 0.930 . S
C1113 C1111 1.419 . S
C1113 C1114 1.362 . S
C1114 H1106 0.930 . S
C1114 C1113 1.362 . S
C1114 C1117 1.409 . S
C1115 H1107 0.930 . S
C1115 C1116 1.355 . S
C1115 C1117 1.415 . S
C1116 C1115 1.355 . S
C1116 C1118 1.419 . S
C1117 C1112 1.425 . S
C1117 C1114 1.409 . S
C1117 C1115 1.415 . S
C1118 H1108 0.930 . S
C1118 C1116 1.419 . S
C1118 C1119 1.362 . S
C1119 H1109 0.930 . S
C1119 C1112 1.409 . S
C1119 C1118 1.362 . S
H1120 C1126 0.930 . S
H1121 C1129 0.930 . S
H1122 C1130 0.930 . S
H1123 C1131 0.930 . S
H1124 C1134 0.930 . S
H1125 C1135 0.930 . S
C1126 H1120 0.930 . S
C1126 C1127 1.355 . S
C1126 C1128 1.415 . S
C1127 C1126 1.355 . S
C1127 C1129 1.419 . S
C1128 C1126 1.415 . S
C1128 C1133 1.425 . S
C1128 C1135 1.409 . S
C1129 H1121 0.930 . S
C1129 C1127 1.419 . S
C1129 C1130 1.362 . S
C1130 H1122 0.930 . S
C1130 C1129 1.362 . S
C1130 C1133 1.409 . S
C1131 H1123 0.930 . S
C1131 C1132 1.355 . S
C1131 C1133 1.415 . S
C1132 C1131 1.355 . S
C1132 C1134 1.419 . S
C1133 C1128 1.425 . S
C1133 C1130 1.409 . S
C1133 C1131 1.415 . S
C1134 H1124 0.930 . S
C1134 C1132 1.419 . S
C1134 C1135 1.362 . S
C1135 H1125 0.930 . S
C1135 C1128 1.409 . S
C1135 C1134 1.362 . S
H1136 C1142 0.930 . S
H1137 C1145 0.930 . S
H1138 C1146 0.930 . S
H1139 C1147 0.930 . S
H1140 C1150 0.930 . S
H1141 C1151 0.930 . S
C1142 H1136 0.930 . S
C1142 C1143 1.355 . S
C1142 C1144 1.415 . S
C1143 C1142 1.355 . S
C1143 C1145 1.419 . S
C1144 C1142 1.415 . S
C1144 C1149 1.425 . S
C1144 C1151 1.409 . S
C1145 H1137 0.930 . S
C1145 C1143 1.419 . S
C1145 C1146 1.362 . S
C1146 H1138 0.930 . S
C1146 C1145 1.362 . S
C1146 C1149 1.409 . S
C1147 H1139 0.930 . S
C1147 C1148 1.355 . S
C1147 C1149 1.415 . S
C1148 C1147 1.355 . S
C1148 C1150 1.419 . S
C1149 C1144 1.425 . S
C1149 C1146 1.409 . S
C1149 C1147 1.415 . S
C1150 H1140 0.930 . S
C1150 C1148 1.419 . S
C1150 C1151 1.362 . S
C1151 H1141 0.930 . S
C1151 C1144 1.409 . S
C1151 C1150 1.362 . S
H1152 C1158 0.930 . S
H1153 C1161 0.930 . S
H1154 C1162 0.930 . S
H1155 C1163 0.930 . S
H1156 C1166 0.930 . S
H1157 C1167 0.913 1_565 S
C1158 H1152 0.930 . S
C1158 C1159 1.355 . S
C1158 C1160 1.415 . S
C1159 C1158 1.355 . S
C1159 C1161 1.419 . S
C1160 C1158 1.415 . S
C1160 C1165 1.425 . S
C1160 C1167 1.384 1_565 S
C1161 H1153 0.930 . S
C1161 C1159 1.419 . S
C1161 C1162 1.362 . S
C1162 H1154 0.930 . S
C1162 C1161 1.362 . S
C1162 C1165 1.409 . S
C1163 H1155 0.930 . S
C1163 C1164 1.355 . S
C1163 C1165 1.415 1_545 S
C1164 C1163 1.355 . S
C1164 C1166 1.419 . S
C1165 C1160 1.425 . S
C1165 C1162 1.409 . S
C1165 C1163 1.415 1_565 S
C1166 H1156 0.930 . S
C1166 C1164 1.419 . S
C1166 C1167 1.406 . S
C1167 H1157 0.913 1_545 S
C1167 C1160 1.384 1_545 S
C1167 C1166 1.406 . S
H1168 C1174 0.930 . S
H1169 C1177 0.930 . S
H1170 C1178 0.930 . S
H1171 C1179 0.930 . S
H1172 C1182 0.930 . S
H1173 C1183 0.930 . S
C1174 H1168 0.930 . S
C1174 C1175 1.355 . S
C1174 C1176 1.415 . S
C1175 C1174 1.355 . S
C1175 C1177 1.419 . S
C1176 C1174 1.415 . S
C1176 C1181 1.425 . S
C1176 C1183 1.409 . S
C1177 H1169 0.930 . S
C1177 C1175 1.419 . S
C1177 C1178 1.362 . S
C1178 H1170 0.930 . S
C1178 C1177 1.362 . S
C1178 C1181 1.409 . S
C1179 H1171 0.930 . S
C1179 C1180 1.355 . S
C1179 C1181 1.415 . S
C1180 C1179 1.355 . S
C1180 C1182 1.419 . S
C1181 C1176 1.425 . S
C1181 C1178 1.409 . S
C1181 C1179 1.415 . S
C1182 H1172 0.930 . S
C1182 C1180 1.419 . S
C1182 C1183 1.362 . S
C1183 H1173 0.930 . S
C1183 C1176 1.409 . S
C1183 C1182 1.362 . S
H1184 C1190 0.930 . S
H1185 C1193 0.930 . S
H1186 C1194 0.930 . S
H1187 C1195 0.930 . S
H1188 C1198 0.930 . S
H1189 C1199 0.930 . S
C1190 H1184 0.930 . S
C1190 C1191 1.355 . S
C1190 C1192 1.415 . S
C1191 C1190 1.355 . S
C1191 C1193 1.419 . S
C1192 C1190 1.415 . S
C1192 C1197 1.425 . S
C1192 C1199 1.409 . S
C1193 H1185 0.930 . S
C1193 C1191 1.419 . S
C1193 C1194 1.362 . S
C1194 H1186 0.930 . S
C1194 C1193 1.362 . S
C1194 C1197 1.409 . S
C1195 H1187 0.930 . S
C1195 C1196 1.355 . S
C1195 C1197 1.415 . S
C1196 C1195 1.355 . S
C1196 C1198 1.419 . S
C1197 C1192 1.425 . S
C1197 C1194 1.409 . S
C1197 C1195 1.415 . S
C1198 H1188 0.930 . S
C1198 C1196 1.419 . S
C1198 C1199 1.362 . S
C1199 H1189 0.930 . S
C1199 C1192 1.409 . S
C1199 C1198 1.362 . S
H1200 C1206 0.930 . S
H1201 C1209 0.930 . S
H1202 C1210 0.930 . S
H1203 C1211 0.930 . S
H1204 C1214 0.930 . S
H1205 C1215 0.930 . S
C1206 H1200 0.930 . S
C1206 C1207 1.355 . S
C1206 C1208 1.415 . S
C1207 C1206 1.355 . S
C1207 C1209 1.419 . S
C1208 C1206 1.415 . S
C1208 C1213 1.425 . S
C1208 C1215 1.409 . S
C1209 H1201 0.930 . S
C1209 C1207 1.419 . S
C1209 C1210 1.362 . S
C1210 H1202 0.930 . S
C1210 C1209 1.362 . S
C1210 C1213 1.409 . S
C1211 H1203 0.930 . S
C1211 C1212 1.355 . S
C1211 C1213 1.415 . S
C1212 C1211 1.355 . S
C1212 C1214 1.419 . S
C1213 C1208 1.425 . S
C1213 C1210 1.409 . S
C1213 C1211 1.415 . S
C1214 H1204 0.930 . S
C1214 C1212 1.419 . S
C1214 C1215 1.362 . S
C1215 H1205 0.930 . S
C1215 C1208 1.409 . S
C1215 C1214 1.362 . S
H1216 C1222 0.930 . S
H1217 C1225 0.930 . S
H1218 C1226 0.930 . S
H1219 C1227 0.930 . S
H1220 C1230 0.930 . S
H1221 C1231 0.930 1_565 S
C1222 H1216 0.930 . S
C1222 C1223 1.355 . S
C1222 C1224 1.415 . S
C1223 C1222 1.355 . S
C1223 C1225 1.419 . S
C1224 C1222 1.415 . S
C1224 C1229 1.425 . S
C1224 C1231 1.409 1_565 S
C1225 H1217 0.930 . S
C1225 C1223 1.419 . S
C1225 C1226 1.362 . S
C1226 H1218 0.930 . S
C1226 C1225 1.362 . S
C1226 C1229 1.409 . S
C1227 H1219 0.930 . S
C1227 C1228 1.355 . S
C1227 C1229 1.415 1_545 S
C1228 C1227 1.355 . S
C1228 C1230 1.419 . S
C1229 C1224 1.425 . S
C1229 C1226 1.409 . S
C1229 C1227 1.415 1_565 S
C1230 H1220 0.930 . S
C1230 C1228 1.419 . S
C1230 C1231 1.362 . S
C1231 H1221 0.930 1_545 S
C1231 C1224 1.409 1_545 S
C1231 C1230 1.362 . S
H1232 C1238 0.930 . S
H1233 C1241 0.930 . S
H1234 C1242 0.930 . S
H1235 C1243 0.930 . S
H1236 C1246 0.930 . S
H1237 C1247 0.930 . S
C1238 H1232 0.930 . S
C1238 C1239 1.355 . S
C1238 C1240 1.415 . S
C1239 C1238 1.355 . S
C1239 C1241 1.419 . S
C1240 C1238 1.415 . S
C1240 C1245 1.425 . S
C1240 C1247 1.409 . S
C1241 H1233 0.930 . S
C1241 C1239 1.419 . S
C1241 C1242 1.362 . S
C1242 H1234 0.930 . S
C1242 C1241 1.362 . S
C1242 C1245 1.409 . S
C1243 H1235 0.930 . S
C1243 C1244 1.355 . S
C1243 C1245 1.415 . S
C1244 C1243 1.355 . S
C1244 C1246 1.419 . S
C1245 C1240 1.425 . S
C1245 C1242 1.409 . S
C1245 C1243 1.415 . S
C1246 H1236 0.930 . S
C1246 C1244 1.419 . S
C1246 C1247 1.362 . S
C1247 H1237 0.930 . S
C1247 C1240 1.409 . S
C1247 C1246 1.362 . S
H1248 C1254 0.930 . S
H1249 C1257 0.930 . S
H1250 C1258 0.930 . S
H1251 C1259 0.930 . S
H1252 C1262 0.930 . S
H1253 C1263 0.930 . S
C1254 H1248 0.930 . S
C1254 C1255 1.355 . S
C1254 C1256 1.415 . S
C1255 C1254 1.355 . S
C1255 C1257 1.419 . S
C1256 C1254 1.415 . S
C1256 C1261 1.425 . S
C1256 C1263 1.409 . S
C1257 H1249 0.930 . S
C1257 C1255 1.419 . S
C1257 C1258 1.362 . S
C1258 H1250 0.930 . S
C1258 C1257 1.362 . S
C1258 C1261 1.409 . S
C1259 H1251 0.930 . S
C1259 C1260 1.355 . S
C1259 C1261 1.415 . S
C1260 C1259 1.355 . S
C1260 C1262 1.419 . S
C1261 C1256 1.425 . S
C1261 C1258 1.409 . S
C1261 C1259 1.415 . S
C1262 H1252 0.930 . S
C1262 C1260 1.419 . S
C1262 C1263 1.362 . S
C1263 H1253 0.930 . S
C1263 C1256 1.409 . S
C1263 C1262 1.362 . S
H1264 C1270 0.930 . S
H1265 C1273 0.930 . S
H1266 C1274 0.930 . S
H1267 C1275 0.930 . S
H1268 C1278 0.930 . S
H1269 C1279 0.930 . S
C1270 H1264 0.930 . S
C1270 C1271 1.355 . S
C1270 C1272 1.415 . S
C1271 C1270 1.355 . S
C1271 C1273 1.419 . S
C1272 C1270 1.415 . S
C1272 C1277 1.425 . S
C1272 C1279 1.409 . S
C1273 H1265 0.930 . S
C1273 C1271 1.419 . S
C1273 C1274 1.362 . S
C1274 H1266 0.930 . S
C1274 C1273 1.362 . S
C1274 C1277 1.409 . S
C1275 H1267 0.930 . S
C1275 C1276 1.355 . S
C1275 C1277 1.415 . S
C1276 C1275 1.355 . S
C1276 C1278 1.419 . S
C1277 C1272 1.425 . S
C1277 C1274 1.409 . S
C1277 C1275 1.415 . S
C1278 H1268 0.930 . S
C1278 C1276 1.419 . S
C1278 C1279 1.362 . S
C1279 H1269 0.930 . S
C1279 C1272 1.409 . S
C1279 C1278 1.362 . S
H1280 C1286 0.930 . S
H1281 C1289 0.930 . S
H1282 C1290 0.930 . S
H1283 C1291 0.930 . S
H1284 C1294 0.930 . S
H1285 C1295 0.930 . S
C1286 H1280 0.930 . S
C1286 C1287 1.355 . S
C1286 C1288 1.415 . S
C1287 C1286 1.355 . S
C1287 C1289 1.419 . S
C1288 C1286 1.415 . S
C1288 C1293 1.425 . S
C1288 C1295 1.409 . S
C1289 H1281 0.930 . S
C1289 C1287 1.419 . S
C1289 C1290 1.362 . S
C1290 H1282 0.930 . S
C1290 C1289 1.362 . S
C1290 C1293 1.409 . S
C1291 H1283 0.930 . S
C1291 C1292 1.355 . S
C1291 C1293 1.415 . S
C1292 C1291 1.355 . S
C1292 C1294 1.419 . S
C1293 C1288 1.425 . S
C1293 C1290 1.409 . S
C1293 C1291 1.415 . S
C1294 H1284 0.930 . S
C1294 C1292 1.419 . S
C1294 C1295 1.362 . S
C1295 H1285 0.930 . S
C1295 C1288 1.409 . S
C1295 C1294 1.362 . S
H1296 C1302 0.930 . S
H1297 C1305 0.930 . S
H1298 C1306 0.930 . S
H1299 C1307 0.930 . S
H1300 C1310 0.930 . S
H1301 C1311 0.930 . S
C1302 H1296 0.930 . S
C1302 C1303 1.355 . S
C1302 C1304 1.415 . S
C1303 C1302 1.355 . S
C1303 C1305 1.419 . S
C1304 C1302 1.415 . S
C1304 C1309 1.425 . S
C1304 C1311 1.409 . S
C1305 H1297 0.930 . S
C1305 C1303 1.419 . S
C1305 C1306 1.362 . S
C1306 H1298 0.930 . S
C1306 C1305 1.362 . S
C1306 C1309 1.409 . S
C1307 H1299 0.930 . S
C1307 C1308 1.355 . S
C1307 C1309 1.415 . S
C1308 C1307 1.355 . S
C1308 C1310 1.419 . S
C1309 C1304 1.425 . S
C1309 C1306 1.409 . S
C1309 C1307 1.415 . S
C1310 H1300 0.930 . S
C1310 C1308 1.419 . S
C1310 C1311 1.362 . S
C1311 H1301 0.930 . S
C1311 C1304 1.409 . S
C1311 C1310 1.362 . S
H1312 C1318 0.930 . S
H1313 C1321 0.930 . S
H1314 C1322 0.930 . S
H1315 C1323 0.930 . S
H1316 C1326 0.930 . S
H1317 C1327 0.930 . S
C1318 H1312 0.930 . S
C1318 C1319 1.355 . S
C1318 C1320 1.415 . S
C1319 C1318 1.355 . S
C1319 C1321 1.419 . S
C1320 C1318 1.415 . S
C1320 C1325 1.425 . S
C1320 C1327 1.409 . S
C1321 H1313 0.930 . S
C1321 C1319 1.419 . S
C1321 C1322 1.362 . S
C1322 H1314 0.930 . S
C1322 C1321 1.362 . S
C1322 C1325 1.409 . S
C1323 H1315 0.930 . S
C1323 C1324 1.355 . S
C1323 C1325 1.415 . S
C1324 C1323 1.355 . S
C1324 C1326 1.419 . S
C1325 C1320 1.425 . S
C1325 C1322 1.409 . S
C1325 C1323 1.415 . S
C1326 H1316 0.930 . S
C1326 C1324 1.419 . S
C1326 C1327 1.362 . S
C1327 H1317 0.930 . S
C1327 C1320 1.409 . S
C1327 C1326 1.362 . S
H1328 C1334 0.930 . S
H1329 C1337 0.930 . S
H1330 C1338 0.930 . S
H1331 C1339 0.930 . S
H1332 C1342 0.930 . S
H1333 C1343 0.930 . S
C1334 H1328 0.930 . S
C1334 C1335 1.355 . S
C1334 C1336 1.415 . S
C1335 C1334 1.355 . S
C1335 C1337 1.419 . S
C1336 C1334 1.415 . S
C1336 C1341 1.425 . S
C1336 C1343 1.409 1_455 S
C1337 H1329 0.930 . S
C1337 C1335 1.419 . S
C1337 C1338 1.362 . S
C1338 H1330 0.930 . S
C1338 C1337 1.362 . S
C1338 C1341 1.409 . S
C1339 H1331 0.930 . S
C1339 C1340 1.355 . S
C1339 C1341 1.415 1_655 S
C1340 C1339 1.355 . S
C1340 C1342 1.419 . S
C1341 C1336 1.425 . S
C1341 C1338 1.409 . S
C1341 C1339 1.415 1_455 S
C1342 H1332 0.930 . S
C1342 C1340 1.419 . S
C1342 C1343 1.362 . S
C1343 H1333 0.930 . S
C1343 C1336 1.409 1_655 S
C1343 C1342 1.362 . S
H1344 C1350 0.930 . S
H1345 C1353 0.930 . S
H1346 C1354 0.930 . S
H1347 C1355 0.930 . S
H1348 C1358 0.930 . S
H1349 C1359 0.930 . S
C1350 H1344 0.930 . S
C1350 C1351 1.355 . S
C1350 C1352 1.415 . S
C1351 C1350 1.355 . S
C1351 C1353 1.419 . S
C1352 C1350 1.415 . S
C1352 C1357 1.425 . S
C1352 C1359 1.409 . S
C1353 H1345 0.930 . S
C1353 C1351 1.419 . S
C1353 C1354 1.362 . S
C1354 H1346 0.930 . S
C1354 C1353 1.362 . S
C1354 C1357 1.409 . S
C1355 H1347 0.930 . S
C1355 C1356 1.355 . S
C1355 C1357 1.415 . S
C1356 C1355 1.355 . S
C1356 C1358 1.419 . S
C1357 C1352 1.425 . S
C1357 C1354 1.409 . S
C1357 C1355 1.415 . S
C1358 H1348 0.930 . S
C1358 C1356 1.419 . S
C1358 C1359 1.362 . S
C1359 H1349 0.930 . S
C1359 C1352 1.409 . S
C1359 C1358 1.362 . S
H1360 C1366 0.930 . S
H1361 C1369 0.930 . S
H1362 C1370 0.930 . S
H1363 C1371 0.930 . S
H1364 C1374 0.930 . S
H1365 C1375 0.930 . S
C1366 H1360 0.930 . S
C1366 C1367 1.355 . S
C1366 C1368 1.415 . S
C1367 C1366 1.355 . S
C1367 C1369 1.419 . S
C1368 C1366 1.415 . S
C1368 C1373 1.425 . S
C1368 C1375 1.409 . S
C1369 H1361 0.930 . S
C1369 C1367 1.419 . S
C1369 C1370 1.362 . S
C1370 H1362 0.930 . S
C1370 C1369 1.362 . S
C1370 C1373 1.409 . S
C1371 H1363 0.930 . S
C1371 C1372 1.355 . S
C1371 C1373 1.415 . S
C1372 C1371 1.355 . S
C1372 C1374 1.419 . S
C1373 C1368 1.425 . S
C1373 C1370 1.409 . S
C1373 C1371 1.415 . S
C1374 H1364 0.930 . S
C1374 C1372 1.419 . S
C1374 C1375 1.362 . S
C1375 H1365 0.930 . S
C1375 C1368 1.409 . S
C1375 C1374 1.362 . S
H1376 C1382 0.930 . S
H1377 C1385 0.930 . S
H1378 C1386 0.930 . S
H1379 C1387 0.930 . S
H1380 C1390 0.930 . S
H1381 C1391 0.930 . S
C1382 H1376 0.930 . S
C1382 C1383 1.355 . S
C1382 C1384 1.415 . S
C1383 C1382 1.355 . S
C1383 C1385 1.419 . S
C1384 C1382 1.415 . S
C1384 C1389 1.425 . S
C1384 C1391 1.409 . S
C1385 H1377 0.930 . S
C1385 C1383 1.419 . S
C1385 C1386 1.362 . S
C1386 H1378 0.930 . S
C1386 C1385 1.362 . S
C1386 C1389 1.409 . S
C1387 H1379 0.930 . S
C1387 C1388 1.355 . S
C1387 C1389 1.415 . S
C1388 C1387 1.355 . S
C1388 C1390 1.419 . S
C1389 C1384 1.425 . S
C1389 C1386 1.409 . S
C1389 C1387 1.415 . S
C1390 H1380 0.930 . S
C1390 C1388 1.419 . S
C1390 C1391 1.362 . S
C1391 H1381 0.930 . S
C1391 C1384 1.409 . S
C1391 C1390 1.362 . S
H1392 C1398 0.930 . S
H1393 C1401 0.930 . S
H1394 C1402 0.930 . S
H1395 C1403 0.930 . S
H1396 C1406 0.930 . S
H1397 C1407 0.930 . S
C1398 H1392 0.930 . S
C1398 C1399 1.355 . S
C1398 C1400 1.415 . S
C1399 C1398 1.355 . S
C1399 C1401 1.419 . S
C1400 C1398 1.415 . S
C1400 C1405 1.425 . S
C1400 C1407 1.409 . S
C1401 H1393 0.930 . S
C1401 C1399 1.419 . S
C1401 C1402 1.362 . S
C1402 H1394 0.930 . S
C1402 C1401 1.362 . S
C1402 C1405 1.409 . S
C1403 H1395 0.930 . S
C1403 C1404 1.355 . S
C1403 C1405 1.415 . S
C1404 C1403 1.355 . S
C1404 C1406 1.419 . S
C1405 C1400 1.425 . S
C1405 C1402 1.409 . S
C1405 C1403 1.415 . S
C1406 H1396 0.930 . S
C1406 C1404 1.419 . S
C1406 C1407 1.362 . S
C1407 H1397 0.930 . S
C1407 C1400 1.409 . S
C1407 C1406 1.362 . S
H1408 C1414 0.930 . S
H1409 C1417 0.930 . S
H1410 C1418 0.930 . S
H1411 C1419 0.930 . S
H1412 C1422 0.930 . S
H1413 C1423 0.930 . S
C1414 H1408 0.930 . S
C1414 C1415 1.355 . S
C1414 C1416 1.415 . S
C1415 C1414 1.355 . S
C1415 C1417 1.419 . S
C1416 C1414 1.415 . S
C1416 C1421 1.425 . S
C1416 C1423 1.409 . S
C1417 H1409 0.930 . S
C1417 C1415 1.419 . S
C1417 C1418 1.362 . S
C1418 H1410 0.930 . S
C1418 C1417 1.362 . S
C1418 C1421 1.409 . S
C1419 H1411 0.930 . S
C1419 C1420 1.355 . S
C1419 C1421 1.415 . S
C1420 C1419 1.355 . S
C1420 C1422 1.419 . S
C1421 C1416 1.425 . S
C1421 C1418 1.409 . S
C1421 C1419 1.415 . S
C1422 H1412 0.930 . S
C1422 C1420 1.419 . S
C1422 C1423 1.362 . S
C1423 H1413 0.930 . S
C1423 C1416 1.409 . S
C1423 C1422 1.362 . S
H1424 C1430 0.930 . S
H1425 C1433 0.930 . S
H1426 C1434 0.930 . S
H1427 C1435 0.930 . S
H1428 C1438 0.930 . S
H1429 C1439 0.930 . S
C1430 H1424 0.930 . S
C1430 C1431 1.355 . S
C1430 C1432 1.415 . S
C1431 C1430 1.355 . S
C1431 C1433 1.419 . S
C1432 C1430 1.415 . S
C1432 C1437 1.425 . S
C1432 C1439 1.409 . S
C1433 H1425 0.930 . S
C1433 C1431 1.419 . S
C1433 C1434 1.362 . S
C1434 H1426 0.930 . S
C1434 C1433 1.362 . S
C1434 C1437 1.409 . S
C1435 H1427 0.930 . S
C1435 C1436 1.355 . S
C1435 C1437 1.415 . S
C1436 C1435 1.355 . S
C1436 C1438 1.419 . S
C1437 C1432 1.425 . S
C1437 C1434 1.409 . S
C1437 C1435 1.415 . S
C1438 H1428 0.930 . S
C1438 C1436 1.419 . S
C1438 C1439 1.362 . S
C1439 H1429 0.930 . S
C1439 C1432 1.409 . S
C1439 C1438 1.362 . S
H1440 C1446 0.930 . S
H1441 C1449 0.930 . S
H1442 C1450 0.930 . S
H1443 C1451 0.930 . S
H1444 C1454 0.930 . S
H1445 C1455 0.930 . S
C1446 H1440 0.930 . S
C1446 C1447 1.355 . S
C1446 C1448 1.415 . S
C1447 C1446 1.355 . S
C1447 C1449 1.419 . S
C1448 C1446 1.415 . S
C1448 C1453 1.425 . S
C1448 C1455 1.409 . S
C1449 H1441 0.930 . S
C1449 C1447 1.419 . S
C1449 C1450 1.362 . S
C1450 H1442 0.930 . S
C1450 C1449 1.362 . S
C1450 C1453 1.409 . S
C1451 H1443 0.930 . S
C1451 C1452 1.355 . S
C1451 C1453 1.415 . S
C1452 C1451 1.355 . S
C1452 C1454 1.419 . S
C1453 C1448 1.425 . S
C1453 C1450 1.409 . S
C1453 C1451 1.415 . S
C1454 H1444 0.930 . S
C1454 C1452 1.419 . S
C1454 C1455 1.362 . S
C1455 H1445 0.930 . S
C1455 C1448 1.409 . S
C1455 C1454 1.362 . S
H1456 C1462 0.930 . S
H1457 C1465 0.930 . S
H1458 C1466 0.930 . S
H1459 C1467 0.930 . S
H1460 C1470 0.930 . S
H1461 C1471 0.930 . S
C1462 H1456 0.930 . S
C1462 C1463 1.355 . S
C1462 C1464 1.415 . S
C1463 C1462 1.355 . S
C1463 C1465 1.419 . S
C1464 C1462 1.415 . S
C1464 C1469 1.425 . S
C1464 C1471 1.409 . S
C1465 H1457 0.930 . S
C1465 C1463 1.419 . S
C1465 C1466 1.362 . S
C1466 H1458 0.930 . S
C1466 C1465 1.362 . S
C1466 C1469 1.409 . S
C1467 H1459 0.930 . S
C1467 C1468 1.355 . S
C1467 C1469 1.415 . S
C1468 C1467 1.355 . S
C1468 C1470 1.419 . S
C1469 C1464 1.425 . S
C1469 C1466 1.409 . S
C1469 C1467 1.415 . S
C1470 H1460 0.930 . S
C1470 C1468 1.419 . S
C1470 C1471 1.362 . S
C1471 H1461 0.930 . S
C1471 C1464 1.409 . S
C1471 C1470 1.362 . S
H1472 C1478 0.930 . S
H1473 C1481 0.930 . S
H1474 C1482 0.930 . S
H1475 C1483 0.930 . S
H1476 C1486 0.930 . S
H1477 C1487 0.930 . S
C1478 H1472 0.930 . S
C1478 C1479 1.355 . S
C1478 C1480 1.415 . S
C1479 C1478 1.355 . S
C1479 C1481 1.419 . S
C1480 C1478 1.415 . S
C1480 C1485 1.425 . S
C1480 C1487 1.409 . S
C1481 H1473 0.930 . S
C1481 C1479 1.419 . S
C1481 C1482 1.362 . S
C1482 H1474 0.930 . S
C1482 C1481 1.362 . S
C1482 C1485 1.409 . S
C1483 H1475 0.930 . S
C1483 C1484 1.355 . S
C1483 C1485 1.415 . S
C1484 C1483 1.355 . S
C1484 C1486 1.419 . S
C1485 C1480 1.425 . S
C1485 C1482 1.409 . S
C1485 C1483 1.415 . S
C1486 H1476 0.930 . S
C1486 C1484 1.419 . S
C1486 C1487 1.362 . S
C1487 H1477 0.930 . S
C1487 C1480 1.409 . S
C1487 C1486 1.362 . S
H1488 C1494 0.930 . S
H1489 C1497 0.930 . S
H1490 C1498 0.930 . S
H1491 C1499 0.930 . S
H1492 C1502 0.930 . S
H1493 C1503 0.930 . S
C1494 H1488 0.930 . S
C1494 C1495 1.355 . S
C1494 C1496 1.415 . S
C1495 C1494 1.355 . S
C1495 C1497 1.419 . S
C1496 C1494 1.415 . S
C1496 C1501 1.425 . S
C1496 C1503 1.409 . S
C1497 H1489 0.930 . S
C1497 C1495 1.419 . S
C1497 C1498 1.362 . S
C1498 H1490 0.930 . S
C1498 C1497 1.362 . S
C1498 C1501 1.409 . S
C1499 H1491 0.930 . S
C1499 C1500 1.355 . S
C1499 C1501 1.415 . S
C1500 C1499 1.355 . S
C1500 C1502 1.419 . S
C1501 C1496 1.425 . S
C1501 C1498 1.409 . S
C1501 C1499 1.415 . S
C1502 H1492 0.930 . S
C1502 C1500 1.419 . S
C1502 C1503 1.362 . S
C1503 H1493 0.930 . S
C1503 C1496 1.409 . S
C1503 C1502 1.362 . S
H1504 C1510 0.930 . S
H1505 C1513 0.930 . S
H1506 C1514 0.930 . S
H1507 C1515 0.930 . S
H1508 C1518 0.930 . S
H1509 C1519 0.930 . S
C1510 H1504 0.930 . S
C1510 C1511 1.355 . S
C1510 C1512 1.415 . S
C1511 C1510 1.355 . S
C1511 C1513 1.419 . S
C1512 C1510 1.415 . S
C1512 C1517 1.425 . S
C1512 C1519 1.409 . S
C1513 H1505 0.930 . S
C1513 C1511 1.419 . S
C1513 C1514 1.362 . S
C1514 H1506 0.930 . S
C1514 C1513 1.362 . S
C1514 C1517 1.409 . S
C1515 H1507 0.930 . S
C1515 C1516 1.355 . S
C1515 C1517 1.415 . S
C1516 C1515 1.355 . S
C1516 C1518 1.419 . S
C1517 C1512 1.425 . S
C1517 C1514 1.409 . S
C1517 C1515 1.415 . S
C1518 H1508 0.930 . S
C1518 C1516 1.419 . S
C1518 C1519 1.362 . S
C1519 H1509 0.930 . S
C1519 C1512 1.409 . S
C1519 C1518 1.362 . S
H1520 C1526 0.930 . S
H1521 C1529 0.930 . S
H1522 C1530 0.930 . S
H1523 C1531 0.930 . S
H1524 C1534 0.930 . S
H1525 C1535 0.930 . S
C1526 H1520 0.930 . S
C1526 C1527 1.355 . S
C1526 C1528 1.415 . S
C1527 C1526 1.355 . S
C1527 C1529 1.419 . S
C1528 C1526 1.415 . S
C1528 C1533 1.425 . S
C1528 C1535 1.409 . S
C1529 H1521 0.930 . S
C1529 C1527 1.419 . S
C1529 C1530 1.362 . S
C1530 H1522 0.930 . S
C1530 C1529 1.362 . S
C1530 C1533 1.409 . S
C1531 H1523 0.930 . S
C1531 C1532 1.355 . S
C1531 C1533 1.415 . S
C1532 C1531 1.355 . S
C1532 C1534 1.419 . S
C1533 C1528 1.425 . S
C1533 C1530 1.409 . S
C1533 C1531 1.415 . S
C1534 H1524 0.930 . S
C1534 C1532 1.419 . S
C1534 C1535 1.362 . S
C1535 H1525 0.930 . S
C1535 C1528 1.409 . S
C1535 C1534 1.362 . S
H1536 C1542 0.930 . S
H1537 C1545 0.930 . S
H1538 C1546 0.930 . S
H1539 C1547 0.930 . S
H1540 C1550 0.930 . S
H1541 C1551 0.930 . S
C1542 H1536 0.930 . S
C1542 C1543 1.355 . S
C1542 C1544 1.415 . S
C1543 C1542 1.355 . S
C1543 C1545 1.419 . S
C1544 C1542 1.415 . S
C1544 C1549 1.425 . S
C1544 C1551 1.409 . S
C1545 H1537 0.930 . S
C1545 C1543 1.419 . S
C1545 C1546 1.362 . S
C1546 H1538 0.930 . S
C1546 C1545 1.362 . S
C1546 C1549 1.409 . S
C1547 H1539 0.930 . S
C1547 C1548 1.355 . S
C1547 C1549 1.415 . S
C1548 C1547 1.355 . S
C1548 C1550 1.419 . S
C1549 C1544 1.425 . S
C1549 C1546 1.409 . S
C1549 C1547 1.415 . S
C1550 H1540 0.930 . S
C1550 C1548 1.419 . S
C1550 C1551 1.362 . S
C1551 H1541 0.930 . S
C1551 C1544 1.409 . S
C1551 C1550 1.362 . S
H1552 C1558 0.930 . S
H1553 C1561 0.930 . S
H1554 C1562 0.930 . S
H1555 C1563 0.930 . S
H1556 C1566 0.930 . S
H1557 C1567 0.930 . S
C1558 H1552 0.930 . S
C1558 C1559 1.355 . S
C1558 C1560 1.415 . S
C1559 C1558 1.355 . S
C1559 C1561 1.419 . S
C1560 C1558 1.415 . S
C1560 C1565 1.425 . S
C1560 C1567 1.409 . S
C1561 H1553 0.930 . S
C1561 C1559 1.419 . S
C1561 C1562 1.362 . S
C1562 H1554 0.930 . S
C1562 C1561 1.362 . S
C1562 C1565 1.409 . S
C1563 H1555 0.930 . S
C1563 C1564 1.355 . S
C1563 C1565 1.415 . S
C1564 C1563 1.355 . S
C1564 C1566 1.419 . S
C1565 C1560 1.425 . S
C1565 C1562 1.409 . S
C1565 C1563 1.415 . S
C1566 H1556 0.930 . S
C1566 C1564 1.419 . S
C1566 C1567 1.362 . S
C1567 H1557 0.930 . S
C1567 C1560 1.409 . S
C1567 C1566 1.362 . S
H1568 C1574 0.930 . S
H1569 C1577 0.930 . S
H1570 C1578 0.930 . S
H1571 C1579 0.930 . S
H1572 C1582 0.930 . S
H1573 C1583 0.930 . S
C1574 H1568 0.930 . S
C1574 C1575 1.355 . S
C1574 C1576 1.415 . S
C1575 C1574 1.355 . S
C1575 C1577 1.419 . S
C1576 C1574 1.415 . S
C1576 C1581 1.425 . S
C1576 C1583 1.409 . S
C1577 H1569 0.930 . S
C1577 C1575 1.419 . S
C1577 C1578 1.362 . S
C1578 H1570 0.930 . S
C1578 C1577 1.362 . S
C1578 C1581 1.409 . S
C1579 H1571 0.930 . S
C1579 C1580 1.355 . S
C1579 C1581 1.415 . S
C1580 C1579 1.355 . S
C1580 C1582 1.419 . S
C1581 C1576 1.425 . S
C1581 C1578 1.409 . S
C1581 C1579 1.415 . S
C1582 H1572 0.930 . S
C1582 C1580 1.419 . S
C1582 C1583 1.362 . S
C1583 H1573 0.930 . S
C1583 C1576 1.409 . S
C1583 C1582 1.362 . S
H1584 C1590 0.930 . S
H1585 C1593 0.930 . S
H1586 C1594 0.930 . S
H1587 C1595 0.930 . S
H1588 C1598 0.930 . S
H1589 C1599 0.930 . S
C1590 H1584 0.930 . S
C1590 C1591 1.355 . S
C1590 C1592 1.415 . S
C1591 C1590 1.355 . S
C1591 C1593 1.419 . S
C1592 C1590 1.415 . S
C1592 C1597 1.425 . S
C1592 C1599 1.409 . S
C1593 H1585 0.930 . S
C1593 C1591 1.419 . S
C1593 C1594 1.362 . S
C1594 H1586 0.930 . S
C1594 C1593 1.362 . S
C1594 C1597 1.409 . S
C1595 H1587 0.930 . S
C1595 C1596 1.355 . S
C1595 C1597 1.415 . S
C1596 C1595 1.355 . S
C1596 C1598 1.419 . S
C1597 C1592 1.425 . S
C1597 C1594 1.409 . S
C1597 C1595 1.415 . S
C1598 H1588 0.930 . S
C1598 C1596 1.419 . S
C1598 C1599 1.362 . S
C1599 H1589 0.930 . S
C1599 C1592 1.409 . S
C1599 C1598 1.362 . S
H1600 C1606 0.930 . S
H1601 C1609 0.930 . S
H1602 C1610 0.930 . S
H1603 C1611 0.930 . S
H1604 C1614 0.930 . S
H1605 C1615 0.930 . S
C1606 H1600 0.930 . S
C1606 C1607 1.355 . S
C1606 C1608 1.415 . S
C1607 C1606 1.355 . S
C1607 C1609 1.419 . S
C1608 C1606 1.415 . S
C1608 C1613 1.425 . S
C1608 C1615 1.409 . S
C1609 H1601 0.930 . S
C1609 C1607 1.419 . S
C1609 C1610 1.362 . S
C1610 H1602 0.930 . S
C1610 C1609 1.362 . S
C1610 C1613 1.409 . S
C1611 H1603 0.930 . S
C1611 C1612 1.355 . S
C1611 C1613 1.415 . S
C1612 C1611 1.355 . S
C1612 C1614 1.419 . S
C1613 C1608 1.425 . S
C1613 C1610 1.409 . S
C1613 C1611 1.415 . S
C1614 H1604 0.930 . S
C1614 C1612 1.419 . S
C1614 C1615 1.362 . S
C1615 H1605 0.930 . S
C1615 C1608 1.409 . S
C1615 C1614 1.362 . S
H1616 C1622 0.930 . S
H1617 C1625 0.930 . S
H1618 C1626 0.930 . S
H1619 C1627 0.930 . S
H1620 C1630 0.930 . S
H1621 C1631 0.930 . S
C1622 H1616 0.930 . S
C1622 C1623 1.355 . S
C1622 C1624 1.415 . S
C1623 C1622 1.355 . S
C1623 C1625 1.419 . S
C1624 C1622 1.415 . S
C1624 C1629 1.425 . S
C1624 C1631 1.409 . S
C1625 H1617 0.930 . S
C1625 C1623 1.419 . S
C1625 C1626 1.362 . S
C1626 H1618 0.930 . S
C1626 C1625 1.362 . S
C1626 C1629 1.409 . S
C1627 H1619 0.930 . S
C1627 C1628 1.355 . S
C1627 C1629 1.415 . S
C1628 C1627 1.355 . S
C1628 C1630 1.419 . S
C1629 C1624 1.425 . S
C1629 C1626 1.409 . S
C1629 C1627 1.415 . S
C1630 H1620 0.930 . S
C1630 C1628 1.419 . S
C1630 C1631 1.362 . S
C1631 H1621 0.930 . S
C1631 C1624 1.409 . S
C1631 C1630 1.362 . S
H1632 C1638 0.930 . S
H1633 C1641 0.930 . S
H1634 C1642 0.930 . S
H1635 C1643 0.930 . S
H1636 C1646 0.930 . S
H1637 C1647 0.930 . S
C1638 H1632 0.930 . S
C1638 C1639 1.355 . S
C1638 C1640 1.415 . S
C1639 C1638 1.355 . S
C1639 C1641 1.419 . S
C1640 C1638 1.415 . S
C1640 C1645 1.425 . S
C1640 C1647 1.409 . S
C1641 H1633 0.930 . S
C1641 C1639 1.419 . S
C1641 C1642 1.362 . S
C1642 H1634 0.930 . S
C1642 C1641 1.362 . S
C1642 C1645 1.409 . S
C1643 H1635 0.930 . S
C1643 C1644 1.355 . S
C1643 C1645 1.415 . S
C1644 C1643 1.355 . S
C1644 C1646 1.419 . S
C1645 C1640 1.425 . S
C1645 C1642 1.409 . S
C1645 C1643 1.415 . S
C1646 H1636 0.930 . S
C1646 C1644 1.419 . S
C1646 C1647 1.362 . S
C1647 H1637 0.930 . S
C1647 C1640 1.409 . S
C1647 C1646 1.362 . S
H1648 C1654 0.930 . S
H1649 C1657 0.930 . S
H1650 C1658 0.930 . S
H1651 C1659 0.930 . S
H1652 C1662 0.930 . S
H1653 C1663 0.930 . S
C1654 H1648 0.930 . S
C1654 C1655 1.355 . S
C1654 C1656 1.415 . S
C1655 C1654 1.355 . S
C1655 C1657 1.419 . S
C1656 C1654 1.415 . S
C1656 C1661 1.425 . S
C1656 C1663 1.409 . S
C1657 H1649 0.930 . S
C1657 C1655 1.419 . S
C1657 C1658 1.362 . S
C1658 H1650 0.930 . S
C1658 C1657 1.362 . S
C1658 C1661 1.409 . S
C1659 H1651 0.930 . S
C1659 C1660 1.355 . S
C1659 C1661 1.415 . S
C1660 C1659 1.355 . S
C1660 C1662 1.419 . S
C1661 C1656 1.425 . S
C1661 C1658 1.409 . S
C1661 C1659 1.415 . S
C1662 H1652 0.930 . S
C1662 C1660 1.419 . S
C1662 C1663 1.362 . S
C1663 H1653 0.930 . S
C1663 C1656 1.409 . S
C1663 C1662 1.362 . S
H1664 C1670 0.930 . S
H1665 C1673 0.930 . S
H1666 C1674 0.930 . S
H1667 C1675 0.930 . S
H1668 C1678 0.930 . S
H1669 C1679 0.930 . S
C1670 H1664 0.930 . S
C1670 C1671 1.355 . S
C1670 C1672 1.415 . S
C1671 C1670 1.355 . S
C1671 C1673 1.419 . S
C1672 C1670 1.415 . S
C1672 C1677 1.425 . S
C1672 C1679 1.409 . S
C1673 H1665 0.930 . S
C1673 C1671 1.419 . S
C1673 C1674 1.362 . S
C1674 H1666 0.930 . S
C1674 C1673 1.362 . S
C1674 C1677 1.409 . S
C1675 H1667 0.930 . S
C1675 C1676 1.355 . S
C1675 C1677 1.415 . S
C1676 C1675 1.355 . S
C1676 C1678 1.419 . S
C1677 C1672 1.425 . S
C1677 C1674 1.409 . S
C1677 C1675 1.415 . S
C1678 H1668 0.930 . S
C1678 C1676 1.419 . S
C1678 C1679 1.362 . S
C1679 H1669 0.930 . S
C1679 C1672 1.409 . S
C1679 C1678 1.362 . S
H1680 C1686 0.930 . S
H1681 C1689 0.930 . S
H1682 C1690 0.930 . S
H1683 C1691 0.930 . S
H1684 C1694 0.930 . S
H1685 C1695 0.930 . S
C1686 H1680 0.930 . S
C1686 C1687 1.355 . S
C1686 C1688 1.415 . S
C1687 C1686 1.355 . S
C1687 C1689 1.419 . S
C1688 C1686 1.415 . S
C1688 C1693 1.425 . S
C1688 C1695 1.409 . S
C1689 H1681 0.930 . S
C1689 C1687 1.419 . S
C1689 C1690 1.362 . S
C1690 H1682 0.930 . S
C1690 C1689 1.362 . S
C1690 C1693 1.409 . S
C1691 H1683 0.930 . S
C1691 C1692 1.355 . S
C1691 C1693 1.415 . S
C1692 C1691 1.355 . S
C1692 C1694 1.419 . S
C1693 C1688 1.425 . S
C1693 C1690 1.409 . S
C1693 C1691 1.415 . S
C1694 H1684 0.930 . S
C1694 C1692 1.419 . S
C1694 C1695 1.362 . S
C1695 H1685 0.930 . S
C1695 C1688 1.409 . S
C1695 C1694 1.362 . S
H1696 C1702 0.930 . S
H1697 C1705 0.930 . S
H1698 C1706 0.930 . S
H1699 C1707 0.930 . S
H1700 C1710 0.930 . S
H1701 C1711 0.930 . S
C1702 H1696 0.930 . S
C1702 C1703 1.355 . S
C1702 C1704 1.415 . S
C1703 C1702 1.355 . S
C1703 C1705 1.419 . S
C1704 C1702 1.415 . S
C1704 C1709 1.425 . S
C1704 C1711 1.409 . S
C1705 H1697 0.930 . S
C1705 C1703 1.419 . S
C1705 C1706 1.362 . S
C1706 H1698 0.930 . S
C1706 C1705 1.362 . S
C1706 C1709 1.409 . S
C1707 H1699 0.930 . S
C1707 C1708 1.355 . S
C1707 C1709 1.415 . S
C1708 C1707 1.355 . S
C1708 C1710 1.419 . S
C1709 C1704 1.425 . S
C1709 C1706 1.409 . S
C1709 C1707 1.415 . S
C1710 H1700 0.930 . S
C1710 C1708 1.419 . S
C1710 C1711 1.362 . S
C1711 H1701 0.930 . S
C1711 C1704 1.409 . S
C1711 C1710 1.362 . S
H1712 C1718 0.930 . S
H1713 C1721 0.930 . S
H1714 C1722 0.930 . S
H1715 C1723 0.930 . S
H1716 C1726 0.930 . S
H1717 C1727 0.930 . S
C1718 H1712 0.930 . S
C1718 C1719 1.355 . S
C1718 C1720 1.415 . S
C1719 C1718 1.355 . S
C1719 C1721 1.419 . S
C1720 C1718 1.415 . S
C1720 C1725 1.425 . S
C1720 C1727 1.409 . S
C1721 H1713 0.930 . S
C1721 C1719 1.419 . S
C1721 C1722 1.362 . S
C1722 H1714 0.930 . S
C1722 C1721 1.362 . S
C1722 C1725 1.409 . S
C1723 H1715 0.930 . S
C1723 C1724 1.355 . S
C1723 C1725 1.415 . S
C1724 C1723 1.355 . S
C1724 C1726 1.419 . S
C1725 C1720 1.425 . S
C1725 C1722 1.409 . S
C1725 C1723 1.415 . S
C1726 H1716 0.930 . S
C1726 C1724 1.419 . S
C1726 C1727 1.362 . S
C1727 H1717 0.930 . S
C1727 C1720 1.409 . S
C1727 C1726 1.362 . S
H1728 C1734 0.930 . S
H1729 C1737 0.930 . S
H1730 C1738 0.930 . S
H1731 C1739 0.930 . S
H1732 C1742 0.930 . S
H1733 C1743 0.930 . S
C1734 H1728 0.930 . S
C1734 C1735 1.355 . S
C1734 C1736 1.415 . S
C1735 C1734 1.355 . S
C1735 C1737 1.419 . S
C1736 C1734 1.415 . S
C1736 C1741 1.425 . S
C1736 C1743 1.409 . S
C1737 H1729 0.930 . S
C1737 C1735 1.419 . S
C1737 C1738 1.362 . S
C1738 H1730 0.930 . S
C1738 C1737 1.362 . S
C1738 C1741 1.409 . S
C1739 H1731 0.930 . S
C1739 C1740 1.355 . S
C1739 C1741 1.415 . S
C1740 C1739 1.355 . S
C1740 C1742 1.419 . S
C1741 C1736 1.425 . S
C1741 C1738 1.409 . S
C1741 C1739 1.415 . S
C1742 H1732 0.930 . S
C1742 C1740 1.419 . S
C1742 C1743 1.362 . S
C1743 H1733 0.930 . S
C1743 C1736 1.409 . S
C1743 C1742 1.362 . S
H1744 C1750 0.930 . S
H1745 C1753 0.930 . S
H1746 C1754 0.930 . S
H1747 C1755 0.930 . S
H1748 C1758 0.930 . S
H1749 C1759 0.930 . S
C1750 H1744 0.930 . S
C1750 C1751 1.355 . S
C1750 C1752 1.415 . S
C1751 C1750 1.355 . S
C1751 C1753 1.419 . S
C1752 C1750 1.415 . S
C1752 C1757 1.425 . S
C1752 C1759 1.409 . S
C1753 H1745 0.930 . S
C1753 C1751 1.419 . S
C1753 C1754 1.362 . S
C1754 H1746 0.930 . S
C1754 C1753 1.362 . S
C1754 C1757 1.409 . S
C1755 H1747 0.930 . S
C1755 C1756 1.355 . S
C1755 C1757 1.415 . S
C1756 C1755 1.355 . S
C1756 C1758 1.419 . S
C1757 C1752 1.425 . S
C1757 C1754 1.409 . S
C1757 C1755 1.415 . S
C1758 H1748 0.930 . S
C1758 C1756 1.419 . S
C1758 C1759 1.362 . S
C1759 H1749 0.930 . S
C1759 C1752 1.409 . S
C1759 C1758 1.362 . S
H1760 C1766 0.930 . S
H1761 C1769 0.930 . S
H1762 C1770 0.930 . S
H1763 C1771 0.930 . S
H1764 C1774 0.930 . S
H1765 C1775 0.930 . S
C1766 H1760 0.930 . S
C1766 C1767 1.355 . S
C1766 C1768 1.415 . S
C1767 C1766 1.355 . S
C1767 C1769 1.419 . S
C1768 C1766 1.415 . S
C1768 C1773 1.425 . S
C1768 C1775 1.409 . S
C1769 H1761 0.930 . S
C1769 C1767 1.419 . S
C1769 C1770 1.362 . S
C1770 H1762 0.930 . S
C1770 C1769 1.362 . S
C1770 C1773 1.409 . S
C1771 H1763 0.930 . S
C1771 C1772 1.355 . S
C1771 C1773 1.415 . S
C1772 C1771 1.355 . S
C1772 C1774 1.419 . S
C1773 C1768 1.425 . S
C1773 C1770 1.409 . S
C1773 C1771 1.415 . S
C1774 H1764 0.930 . S
C1774 C1772 1.419 . S
C1774 C1775 1.362 . S
C1775 H1765 0.930 . S
C1775 C1768 1.409 . S
C1775 C1774 1.362 . S
H1776 C1782 0.930 . S
H1777 C1785 0.930 . S
H1778 C1786 0.930 . S
H1779 C1787 0.930 . S
H1780 C1790 0.930 . S
H1781 C1791 0.930 . S
C1782 H1776 0.930 . S
C1782 C1783 1.355 . S
C1782 C1784 1.415 . S
C1783 C1782 1.355 . S
C1783 C1785 1.419 . S
C1784 C1782 1.415 . S
C1784 C1789 1.425 . S
C1784 C1791 1.409 . S
C1785 H1777 0.930 . S
C1785 C1783 1.419 . S
C1785 C1786 1.362 . S
C1786 H1778 0.930 . S
C1786 C1785 1.362 . S
C1786 C1789 1.409 . S
C1787 H1779 0.930 . S
C1787 C1788 1.355 . S
C1787 C1789 1.415 . S
C1788 C1787 1.355 . S
C1788 C1790 1.419 . S
C1789 C1784 1.425 . S
C1789 C1786 1.409 . S
C1789 C1787 1.415 . S
C1790 H1780 0.930 . S
C1790 C1788 1.419 . S
C1790 C1791 1.362 . S
C1791 H1781 0.930 . S
C1791 C1784 1.409 . S
C1791 C1790 1.362 . S
H1792 C1798 0.930 . S
H1793 C1801 0.930 . S
H1794 C1802 0.930 . S
H1795 C1803 0.930 . S
H1796 C1806 0.930 . S
H1797 C1807 0.930 . S
C1798 H1792 0.930 . S
C1798 C1799 1.355 . S
C1798 C1800 1.415 . S
C1799 C1798 1.355 . S
C1799 C1801 1.419 . S
C1800 C1798 1.415 . S
C1800 C1805 1.425 . S
C1800 C1807 1.409 . S
C1801 H1793 0.930 . S
C1801 C1799 1.419 . S
C1801 C1802 1.362 . S
C1802 H1794 0.930 . S
C1802 C1801 1.362 . S
C1802 C1805 1.409 . S
C1803 H1795 0.930 . S
C1803 C1804 1.355 . S
C1803 C1805 1.415 . S
C1804 C1803 1.355 . S
C1804 C1806 1.419 . S
C1805 C1800 1.425 . S
C1805 C1802 1.409 . S
C1805 C1803 1.415 . S
C1806 H1796 0.930 . S
C1806 C1804 1.419 . S
C1806 C1807 1.362 . S
C1807 H1797 0.930 . S
C1807 C1800 1.409 . S
C1807 C1806 1.362 . S
H1808 C1814 0.930 . S
H1809 C1817 0.930 . S
H1810 C1818 0.930 . S
H1811 C1819 0.930 . S
H1812 C1822 0.930 . S
H1813 C1823 0.930 . S
C1814 H1808 0.930 . S
C1814 C1815 1.355 . S
C1814 C1816 1.415 . S
C1815 C1814 1.355 . S
C1815 C1817 1.419 . S
C1816 C1814 1.415 . S
C1816 C1821 1.425 . S
C1816 C1823 1.409 . S
C1817 H1809 0.930 . S
C1817 C1815 1.419 . S
C1817 C1818 1.362 . S
C1818 H1810 0.930 . S
C1818 C1817 1.362 . S
C1818 C1821 1.409 . S
C1819 H1811 0.930 . S
C1819 C1820 1.355 . S
C1819 C1821 1.415 . S
C1820 C1819 1.355 . S
C1820 C1822 1.419 . S
C1821 C1816 1.425 . S
C1821 C1818 1.409 . S
C1821 C1819 1.415 . S
C1822 H1812 0.930 . S
C1822 C1820 1.419 . S
C1822 C1823 1.362 . S
C1823 H1813 0.930 . S
C1823 C1816 1.409 . S
C1823 C1822 1.362 . S
H1824 C1830 0.930 . S
H1825 C1833 0.930 . S
H1826 C1834 0.930 . S
H1827 C1835 0.930 . S
H1828 C1838 0.930 . S
H1829 C1839 0.930 . S
C1830 H1824 0.930 . S
C1830 C1831 1.355 . S
C1830 C1832 1.415 . S
C1831 C1830 1.355 . S
C1831 C1833 1.419 . S
C1832 C1830 1.415 . S
C1832 C1837 1.425 . S
C1832 C1839 1.409 . S
C1833 H1825 0.930 . S
C1833 C1831 1.419 . S
C1833 C1834 1.362 . S
C1834 H1826 0.930 . S
C1834 C1833 1.362 . S
C1834 C1837 1.409 . S
C1835 H1827 0.930 . S
C1835 C1836 1.355 . S
C1835 C1837 1.415 . S
C1836 C1835 1.355 . S
C1836 C1838 1.419 . S
C1837 C1832 1.425 . S
C1837 C1834 1.409 . S
C1837 C1835 1.415 . S
C1838 H1828 0.930 . S
C1838 C1836 1.419 . S
C1838 C1839 1.362 . S
C1839 H1829 0.930 . S
C1839 C1832 1.409 . S
C1839 C1838 1.362 . S
H1840 C1846 0.930 . S
H1841 C1849 0.930 . S
H1842 C1850 0.930 . S
H1843 C1851 0.930 . S
H1844 C1854 0.930 . S
H1845 C1855 0.930 . S
C1846 H1840 0.930 . S
C1846 C1847 1.355 . S
C1846 C1848 1.415 . S
C1847 C1846 1.355 . S
C1847 C1849 1.419 . S
C1848 C1846 1.415 . S
C1848 C1853 1.425 . S
C1848 C1855 1.409 . S
C1849 H1841 0.930 . S
C1849 C1847 1.419 . S
C1849 C1850 1.362 . S
C1850 H1842 0.930 . S
C1850 C1849 1.362 . S
C1850 C1853 1.409 . S
C1851 H1843 0.930 . S
C1851 C1852 1.355 . S
C1851 C1853 1.415 . S
C1852 C1851 1.355 . S
C1852 C1854 1.419 . S
C1853 C1848 1.425 . S
C1853 C1850 1.409 . S
C1853 C1851 1.415 . S
C1854 H1844 0.930 . S
C1854 C1852 1.419 . S
C1854 C1855 1.362 . S
C1855 H1845 0.930 . S
C1855 C1848 1.409 . S
C1855 C1854 1.362 . S
H1856 C1862 0.930 . S
H1857 C1865 0.930 . S
H1858 C1866 0.930 . S
H1859 C1867 0.930 . S
H1860 C1870 0.930 . S
H1861 C1871 0.930 . S
C1862 H1856 0.930 . S
C1862 C1863 1.355 . S
C1862 C1864 1.415 . S
C1863 C1862 1.355 . S
C1863 C1865 1.419 . S
C1864 C1862 1.415 . S
C1864 C1869 1.425 . S
C1864 C1871 1.409 . S
C1865 H1857 0.930 . S
C1865 C1863 1.419 . S
C1865 C1866 1.362 . S
C1866 H1858 0.930 . S
C1866 C1865 1.362 . S
C1866 C1869 1.409 . S
C1867 H1859 0.930 . S
C1867 C1868 1.355 . S
C1867 C1869 1.415 . S
C1868 C1867 1.355 . S
C1868 C1870 1.419 . S
C1869 C1864 1.425 . S
C1869 C1866 1.409 . S
C1869 C1867 1.415 . S
C1870 H1860 0.930 . S
C1870 C1868 1.419 . S
C1870 C1871 1.362 . S
C1871 H1861 0.930 . S
C1871 C1864 1.409 . S
C1871 C1870 1.362 . S
H1872 C1878 0.930 . S
H1873 C1881 0.930 . S
H1874 C1882 0.930 . S
H1875 C1883 0.930 . S
H1876 C1886 0.930 . S
H1877 C1887 0.930 . S
C1878 H1872 0.930 . S
C1878 C1879 1.355 . S
C1878 C1880 1.415 . S
C1879 C1878 1.355 . S
C1879 C1881 1.419 . S
C1880 C1878 1.415 . S
C1880 C1885 1.425 . S
C1880 C1887 1.409 . S
C1881 H1873 0.930 . S
C1881 C1879 1.419 . S
C1881 C1882 1.362 . S
C1882 H1874 0.930 . S
C1882 C1881 1.362 . S
C1882 C1885 1.409 . S
C1883 H1875 0.930 . S
C1883 C1884 1.355 . S
C1883 C1885 1.415 . S
C1884 C1883 1.355 . S
C1884 C1886 1.419 . S
C1885 C1880 1.425 . S
C1885 C1882 1.409 . S
C1885 C1883 1.415 . S
C1886 H1876 0.930 . S
C1886 C1884 1.419 . S
C1886 C1887 1.362 . S
C1887 H1877 0.930 . S
C1887 C1880 1.409 . S
C1887 C1886 1.362 . S
H1888 C1894 0.930 . S
H1889 C1897 0.930 . S
H1890 C1898 0.930 . S
H1891 C1899 0.930 . S
H1892 C1902 0.930 . S
H1893 C1903 0.930 . S
C1894 H1888 0.930 . S
C1894 C1895 1.355 . S
C1894 C1896 1.415 . S
C1895 C1894 1.355 . S
C1895 C1897 1.419 . S
C1896 C1894 1.415 . S
C1896 C1901 1.425 . S
C1896 C1903 1.409 . S
C1897 H1889 0.930 . S
C1897 C1895 1.419 . S
C1897 C1898 1.362 . S
C1898 H1890 0.930 . S
C1898 C1897 1.362 . S
C1898 C1901 1.409 . S
C1899 H1891 0.930 . S
C1899 C1900 1.355 . S
C1899 C1901 1.415 . S
C1900 C1899 1.355 . S
C1900 C1902 1.419 . S
C1901 C1896 1.425 . S
C1901 C1898 1.409 . S
C1901 C1899 1.415 . S
C1902 H1892 0.930 . S
C1902 C1900 1.419 . S
C1902 C1903 1.362 . S
C1903 H1893 0.930 . S
C1903 C1896 1.409 . S
C1903 C1902 1.362 . S
H1904 C1910 0.930 . S
H1905 C1913 0.930 . S
H1906 C1914 0.930 . S
H1907 C1915 0.930 . S
H1908 C1918 0.930 . S
H1909 C1919 0.930 . S
C1910 H1904 0.930 . S
C1910 C1911 1.355 . S
C1910 C1912 1.415 . S
C1911 C1910 1.355 . S
C1911 C1913 1.419 . S
C1912 C1910 1.415 . S
C1912 C1917 1.425 . S
C1912 C1919 1.409 . S
C1913 H1905 0.930 . S
C1913 C1911 1.419 . S
C1913 C1914 1.362 . S
C1914 H1906 0.930 . S
C1914 C1913 1.362 . S
C1914 C1917 1.409 . S
C1915 H1907 0.930 . S
C1915 C1916 1.355 . S
C1915 C1917 1.415 . S
C1916 C1915 1.355 . S
C1916 C1918 1.419 . S
C1917 C1912 1.425 . S
C1917 C1914 1.409 . S
C1917 C1915 1.415 . S
C1918 H1908 0.930 . S
C1918 C1916 1.419 . S
C1918 C1919 1.362 . S
C1919 H1909 0.930 . S
C1919 C1912 1.409 . S
C1919 C1918 1.362 . S
H1920 C1926 0.930 . S
H1921 C1929 0.930 . S
H1922 C1930 0.930 . S
H1923 C1931 0.930 . S
H1924 C1934 0.930 . S
H1925 C1935 0.930 . S
C1926 H1920 0.930 . S
C1926 C1927 1.355 . S
C1926 C1928 1.415 . S
C1927 C1926 1.355 . S
C1927 C1929 1.419 . S
C1928 C1926 1.415 . S
C1928 C1933 1.425 . S
C1928 C1935 1.409 . S
C1929 H1921 0.930 . S
C1929 C1927 1.419 . S
C1929 C1930 1.362 . S
C1930 H1922 0.930 . S
C1930 C1929 1.362 . S
C1930 C1933 1.409 . S
C1931 H1923 0.930 . S
C1931 C1932 1.355 . S
C1931 C1933 1.415 . S
C1932 C1931 1.355 . S
C1932 C1934 1.419 . S
C1933 C1928 1.425 . S
C1933 C1930 1.409 . S
C1933 C1931 1.415 . S
C1934 H1924 0.930 . S
C1934 C1932 1.419 . S
C1934 C1935 1.362 . S
C1935 H1925 0.930 . S
C1935 C1928 1.409 . S
C1935 C1934 1.362 . S
H1936 C1942 0.930 . S
H1937 C1945 0.930 . S
H1938 C1946 0.930 . S
H1939 C1947 0.930 . S
H1940 C1950 0.930 . S
H1941 C1951 0.930 . S
C1942 H1936 0.930 . S
C1942 C1943 1.355 . S
C1942 C1944 1.415 . S
C1943 C1942 1.355 . S
C1943 C1945 1.419 . S
C1944 C1942 1.415 . S
C1944 C1949 1.425 . S
C1944 C1951 1.409 . S
C1945 H1937 0.930 . S
C1945 C1943 1.419 . S
C1945 C1946 1.362 . S
C1946 H1938 0.930 . S
C1946 C1945 1.362 . S
C1946 C1949 1.409 . S
C1947 H1939 0.930 . S
C1947 C1948 1.355 . S
C1947 C1949 1.415 . S
C1948 C1947 1.355 . S
C1948 C1950 1.419 . S
C1949 C1944 1.425 . S
C1949 C1946 1.409 . S
C1949 C1947 1.415 . S
C1950 H1940 0.930 . S
C1950 C1948 1.419 . S
C1950 C1951 1.362 . S
C1951 H1941 0.930 . S
C1951 C1944 1.409 . S
C1951 C1950 1.362 . S
H1952 C1958 0.930 . S
H1953 C1961 0.930 . S
H1954 C1962 0.930 . S
H1955 C1963 0.930 . S
H1956 C1966 0.930 . S
H1957 C1967 0.930 . S
C1958 H1952 0.930 . S
C1958 C1959 1.355 . S
C1958 C1960 1.415 . S
C1959 C1958 1.355 . S
C1959 C1961 1.419 . S
C1960 C1958 1.415 . S
C1960 C1965 1.425 . S
C1960 C1967 1.409 . S
C1961 H1953 0.930 . S
C1961 C1959 1.419 . S
C1961 C1962 1.362 . S
C1962 H1954 0.930 . S
C1962 C1961 1.362 . S
C1962 C1965 1.409 . S
C1963 H1955 0.930 . S
C1963 C1964 1.355 . S
C1963 C1965 1.415 . S
C1964 C1963 1.355 . S
C1964 C1966 1.419 . S
C1965 C1960 1.425 . S
C1965 C1962 1.409 . S
C1965 C1963 1.415 . S
C1966 H1956 0.930 . S
C1966 C1964 1.419 . S
C1966 C1967 1.362 . S
C1967 H1957 0.930 . S
C1967 C1960 1.409 . S
C1967 C1966 1.362 . S
H1968 C1974 0.930 . S
H1969 C1977 0.930 . S
H1970 C1978 0.930 . S
H1971 C1979 0.930 . S
H1972 C1982 0.930 . S
H1973 C1983 0.930 . S
C1974 H1968 0.930 . S
C1974 C1975 1.355 . S
C1974 C1976 1.415 . S
C1975 C1974 1.355 . S
C1975 C1977 1.419 . S
C1976 C1974 1.415 . S
C1976 C1981 1.425 . S
C1976 C1983 1.409 . S
C1977 H1969 0.930 . S
C1977 C1975 1.419 . S
C1977 C1978 1.362 . S
C1978 H1970 0.930 . S
C1978 C1977 1.362 . S
C1978 C1981 1.409 . S
C1979 H1971 0.930 . S
C1979 C1980 1.355 . S
C1979 C1981 1.415 . S
C1980 C1979 1.355 . S
C1980 C1982 1.419 . S
C1981 C1976 1.425 . S
C1981 C1978 1.409 . S
C1981 C1979 1.415 . S
C1982 H1972 0.930 . S
C1982 C1980 1.419 . S
C1982 C1983 1.362 . S
C1983 H1973 0.930 . S
C1983 C1976 1.409 . S
C1983 C1982 1.362 . S
H1984 C1990 0.930 . S
H1985 C1993 0.930 . S
H1986 C1994 0.930 . S
H1987 C1995 0.930 . S
H1988 C1998 0.930 . S
H1989 C1999 0.930 . S
C1990 H1984 0.930 . S
C1990 C1991 1.355 . S
C1990 C1992 1.415 . S
C1991 C1990 1.355 . S
C1991 C1993 1.419 . S
C1992 C1990 1.415 . S
C1992 C1997 1.425 . S
C1992 C1999 1.409 . S
C1993 H1985 0.930 . S
C1993 C1991 1.419 . S
C1993 C1994 1.362 . S
C1994 H1986 0.930 . S
C1994 C1993 1.362 . S
C1994 C1997 1.409 . S
C1995 H1987 0.930 . S
C1995 C1996 1.355 . S
C1995 C1997 1.415 . S
C1996 C1995 1.355 . S
C1996 C1998 1.419 . S
C1997 C1992 1.425 . S
C1997 C1994 1.409 . S
C1997 C1995 1.415 . S
C1998 H1988 0.930 . S
C1998 C1996 1.419 . S
C1998 C1999 1.362 . S
C1999 H1989 0.930 . S
C1999 C1992 1.409 . S
C1999 C1998 1.362 . S
H2000 C2006 0.930 . S
H2001 C2009 0.930 . S
H2002 C2010 0.930 . S
H2003 C2011 0.930 . S
H2004 C2014 0.930 . S
H2005 C2015 0.930 . S
C2006 H2000 0.930 . S
C2006 C2007 1.355 . S
C2006 C2008 1.415 . S
C2007 C2006 1.355 . S
C2007 C2009 1.419 . S
C2008 C2006 1.415 . S
C2008 C2013 1.425 . S
C2008 C2015 1.409 . S
C2009 H2001 0.930 . S
C2009 C2007 1.419 . S
C2009 C2010 1.362 . S
C2010 H2002 0.930 . S
C2010 C2009 1.362 . S
C2010 C2013 1.409 . S
C2011 H2003 0.930 . S
C2011 C2012 1.355 . S
C2011 C2013 1.415 . S
C2012 C2011 1.355 . S
C2012 C2014 1.419 . S
C2013 C2008 1.425 . S
C2013 C2010 1.409 . S
C2013 C2011 1.415 . S
C2014 H2004 0.930 . S
C2014 C2012 1.419 . S
C2014 C2015 1.362 . S
C2015 H2005 0.930 . S
C2015 C2008 1.409 . S
C2015 C2014 1.362 . S
H2016 C2022 0.930 . S
H2017 C2025 0.930 . S
H2018 C2026 0.930 . S
H2019 C2027 0.930 . S
H2020 C2030 0.930 . S
H2021 C2031 0.930 . S
C2022 H2016 0.930 . S
C2022 C2023 1.355 . S
C2022 C2024 1.415 . S
C2023 C2022 1.355 . S
C2023 C2025 1.419 . S
C2024 C2022 1.415 . S
C2024 C2029 1.425 . S
C2024 C2031 1.409 . S
C2025 H2017 0.930 . S
C2025 C2023 1.419 . S
C2025 C2026 1.362 . S
C2026 H2018 0.930 . S
C2026 C2025 1.362 . S
C2026 C2029 1.409 . S
C2027 H2019 0.930 . S
C2027 C2028 1.355 . S
C2027 C2029 1.415 . S
C2028 C2027 1.355 . S
C2028 C2030 1.419 . S
C2029 C2024 1.425 . S
C2029 C2026 1.409 . S
C2029 C2027 1.415 . S
C2030 H2020 0.930 . S
C2030 C2028 1.419 . S
C2030 C2031 1.362 . S
C2031 H2021 0.930 . S
C2031 C2024 1.409 . S
C2031 C2030 1.362 . S
H2032 C2038 0.930 . S
H2033 C2041 0.930 . S
H2034 C2042 0.930 . S
H2035 C2043 0.930 . S
H2036 C2046 0.930 . S
H2037 C2047 0.930 . S
C2038 H2032 0.930 . S
C2038 C2039 1.355 . S
C2038 C2040 1.415 . S
C2039 C2038 1.355 . S
C2039 C2041 1.419 . S
C2040 C2038 1.415 . S
C2040 C2045 1.425 . S
C2040 C2047 1.409 . S
C2041 H2033 0.930 . S
C2041 C2039 1.419 . S
C2041 C2042 1.362 . S
C2042 H2034 0.930 . S
C2042 C2041 1.362 . S
C2042 C2045 1.409 . S
C2043 H2035 0.930 . S
C2043 C2044 1.355 . S
C2043 C2045 1.415 . S
C2044 C2043 1.355 . S
C2044 C2046 1.419 . S
C2045 C2040 1.425 . S
C2045 C2042 1.409 . S
C2045 C2043 1.415 . S
C2046 H2036 0.930 . S
C2046 C2044 1.419 . S
C2046 C2047 1.362 . S
C2047 H2037 0.930 . S
C2047 C2040 1.409 . S
C2047 C2046 1.362 . S
H2048 C2054 0.930 . S
H2049 C2057 0.930 . S
H2050 C2058 0.930 . S
H2051 C2059 0.930 . S
H2052 C2062 0.930 . S
H2053 C2063 0.930 . S
C2054 H2048 0.930 . S
C2054 C2055 1.355 . S
C2054 C2056 1.415 . S
C2055 C2054 1.355 . S
C2055 C2057 1.419 . S
C2056 C2054 1.415 . S
C2056 C2061 1.425 . S
C2056 C2063 1.409 . S
C2057 H2049 0.930 . S
C2057 C2055 1.419 . S
C2057 C2058 1.362 . S
C2058 H2050 0.930 . S
C2058 C2057 1.362 . S
C2058 C2061 1.409 . S
C2059 H2051 0.930 . S
C2059 C2060 1.355 . S
C2059 C2061 1.415 . S
C2060 C2059 1.355 . S
C2060 C2062 1.419 . S
C2061 C2056 1.425 . S
C2061 C2058 1.409 . S
C2061 C2059 1.415 . S
C2062 H2052 0.930 . S
C2062 C2060 1.419 . S
C2062 C2063 1.362 . S
C2063 H2053 0.930 . S
C2063 C2056 1.409 . S
C2063 C2062 1.362 . S
H2064 C2070 0.930 . S
H2065 C2073 0.930 . S
H2066 C2074 0.930 . S
H2067 C2075 0.930 . S
H2068 C2078 0.930 . S
H2069 C2079 0.930 . S
C2070 H2064 0.930 . S
C2070 C2071 1.355 . S
C2070 C2072 1.415 . S
C2071 C2070 1.355 . S
C2071 C2073 1.419 . S
C2072 C2070 1.415 . S
C2072 C2077 1.425 . S
C2072 C2079 1.409 . S
C2073 H2065 0.930 . S
C2073 C2071 1.419 . S
C2073 C2074 1.362 . S
C2074 H2066 0.930 . S
C2074 C2073 1.362 . S
C2074 C2077 1.409 . S
C2075 H2067 0.930 . S
C2075 C2076 1.355 . S
C2075 C2077 1.415 . S
C2076 C2075 1.355 . S
C2076 C2078 1.419 . S
C2077 C2072 1.425 . S
C2077 C2074 1.409 . S
C2077 C2075 1.415 . S
C2078 H2068 0.930 . S
C2078 C2076 1.419 . S
C2078 C2079 1.362 . S
C2079 H2069 0.930 . S
C2079 C2072 1.409 . S
C2079 C2078 1.362 . S
H2080 C2086 0.930 . S
H2081 C2089 0.930 . S
H2082 C2090 0.930 . S
H2083 C2091 0.930 . S
H2084 C2094 0.930 . S
H2085 C2095 0.930 . S
C2086 H2080 0.930 . S
C2086 C2087 1.355 . S
C2086 C2088 1.415 . S
C2087 C2086 1.355 . S
C2087 C2089 1.419 . S
C2088 C2086 1.415 . S
C2088 C2093 1.425 . S
C2088 C2095 1.409 . S
C2089 H2081 0.930 . S
C2089 C2087 1.419 . S
C2089 C2090 1.362 . S
C2090 H2082 0.930 . S
C2090 C2089 1.362 . S
C2090 C2093 1.409 . S
C2091 H2083 0.930 . S
C2091 C2092 1.355 . S
C2091 C2093 1.415 . S
C2092 C2091 1.355 . S
C2092 C2094 1.419 . S
C2093 C2088 1.425 . S
C2093 C2090 1.409 . S
C2093 C2091 1.415 . S
C2094 H2084 0.930 . S
C2094 C2092 1.419 . S
C2094 C2095 1.362 . S
C2095 H2085 0.930 . S
C2095 C2088 1.409 . S
C2095 C2094 1.362 . S
H2096 C2102 0.930 . S
H2097 C2105 0.930 . S
H2098 C2106 0.930 . S
H2099 C2107 0.930 . S
H2100 C2110 0.930 . S
H2101 C2111 0.930 . S
C2102 H2096 0.930 . S
C2102 C2103 1.355 . S
C2102 C2104 1.415 . S
C2103 C2102 1.355 . S
C2103 C2105 1.419 . S
C2104 C2102 1.415 . S
C2104 C2109 1.425 . S
C2104 C2111 1.409 . S
C2105 H2097 0.930 . S
C2105 C2103 1.419 . S
C2105 C2106 1.362 . S
C2106 H2098 0.930 . S
C2106 C2105 1.362 . S
C2106 C2109 1.409 . S
C2107 H2099 0.930 . S
C2107 C2108 1.355 . S
C2107 C2109 1.415 . S
C2108 C2107 1.355 . S
C2108 C2110 1.419 . S
C2109 C2104 1.425 . S
C2109 C2106 1.409 . S
C2109 C2107 1.415 . S
C2110 H2100 0.930 . S
C2110 C2108 1.419 . S
C2110 C2111 1.362 . S
C2111 H2101 0.930 . S
C2111 C2104 1.409 . S
C2111 C2110 1.362 . S
H2112 C2118 0.930 . S
H2113 C2121 0.930 . S
H2114 C2122 0.930 . S
H2115 C2123 0.930 . S
H2116 C2126 0.930 . S
H2117 C2127 0.930 . S
C2118 H2112 0.930 . S
C2118 C2119 1.355 . S
C2118 C2120 1.415 . S
C2119 C2118 1.355 . S
C2119 C2121 1.419 . S
C2120 C2118 1.415 . S
C2120 C2125 1.425 . S
C2120 C2127 1.409 . S
C2121 H2113 0.930 . S
C2121 C2119 1.419 . S
C2121 C2122 1.362 . S
C2122 H2114 0.930 . S
C2122 C2121 1.362 . S
C2122 C2125 1.409 . S
C2123 H2115 0.930 . S
C2123 C2124 1.355 . S
C2123 C2125 1.415 . S
C2124 C2123 1.355 . S
C2124 C2126 1.419 . S
C2125 C2120 1.425 . S
C2125 C2122 1.409 . S
C2125 C2123 1.415 . S
C2126 H2116 0.930 . S
C2126 C2124 1.419 . S
C2126 C2127 1.362 . S
C2127 H2117 0.930 . S
C2127 C2120 1.409 . S
C2127 C2126 1.362 . S
H2128 C2134 0.930 . S
H2129 C2137 0.930 . S
H2130 C2138 0.930 . S
H2131 C2139 0.930 . S
H2132 C2142 0.930 . S
H2133 C2143 0.930 . S
C2134 H2128 0.930 . S
C2134 C2135 1.355 . S
C2134 C2136 1.415 . S
C2135 C2134 1.355 . S
C2135 C2137 1.419 . S
C2136 C2134 1.415 . S
C2136 C2141 1.425 . S
C2136 C2143 1.409 . S
C2137 H2129 0.930 . S
C2137 C2135 1.419 . S
C2137 C2138 1.362 . S
C2138 H2130 0.930 . S
C2138 C2137 1.362 . S
C2138 C2141 1.409 . S
C2139 H2131 0.930 . S
C2139 C2140 1.355 . S
C2139 C2141 1.415 . S
C2140 C2139 1.355 . S
C2140 C2142 1.419 . S
C2141 C2136 1.425 . S
C2141 C2138 1.409 . S
C2141 C2139 1.415 . S
C2142 H2132 0.930 . S
C2142 C2140 1.419 . S
C2142 C2143 1.362 . S
C2143 H2133 0.930 . S
C2143 C2136 1.409 . S
C2143 C2142 1.362 . S
H2144 C2150 0.930 . S
H2145 C2153 0.930 . S
H2146 C2154 0.930 . S
H2147 C2155 0.930 . S
H2148 C2158 0.930 . S
H2149 C2159 0.930 . S
C2150 H2144 0.930 . S
C2150 C2151 1.355 . S
C2150 C2152 1.415 . S
C2151 C2150 1.355 . S
C2151 C2153 1.419 . S
C2152 C2150 1.415 . S
C2152 C2157 1.425 . S
C2152 C2159 1.409 . S
C2153 H2145 0.930 . S
C2153 C2151 1.419 . S
C2153 C2154 1.362 . S
C2154 H2146 0.930 . S
C2154 C2153 1.362 . S
C2154 C2157 1.409 . S
C2155 H2147 0.930 . S
C2155 C2156 1.355 . S
C2155 C2157 1.415 . S
C2156 C2155 1.355 . S
C2156 C2158 1.419 . S
C2157 C2152 1.425 . S
C2157 C2154 1.409 . S
C2157 C2155 1.415 . S
C2158 H2148 0.930 . S
C2158 C2156 1.419 . S
C2158 C2159 1.362 . S
C2159 H2149 0.930 . S
C2159 C2152 1.409 . S
C2159 C2158 1.362 . S
C631 C218 1.540 . S
C636 C3 1.571 . S
C647 C612 1.579 . S
C652 C16 1.439 . S
C663 C29 1.603 . S
C668 C595 1.566 . S
C679 C42 1.454 . S
C684 C599 1.520 . S
C695 C231 1.581 . S
C700 C55 1.596 . S
C711 C68 1.570 . S
C716 C235 1.647 . S
C727 C81 1.641 . S
C732 C257 1.615 . S
C743 C573 1.553 . S
C748 C94 1.504 . S
C759 C107 1.529 . S
C764 C10 1.493 . S
C775 C23 1.627 . S
C780 C120 1.488 . S
C791 C36 1.455 . S
C796 C133 1.488 . S
C807 C49 1.622 . S
C812 C146 1.488 . S
C823 C62 1.575 . S
C828 C159 1.608 . S
C839 C172 1.461 . S
C844 C75 1.557 . S
C855 C88 1.513 . S
C860 C185 1.522 . S
C871 C198 1.501 . S
C876 C101 1.553 . S
C887 C211 1.553 . S
C892 C114 1.512 . S
C903 C166 1.527 . S
C908 C224 1.529 . S
C919 C239 1.501 . S
C924 C179 1.537 . S
C935 C250 1.546 . S
C940 C192 1.558 . S
C951 C517 1.570 . S
C956 C265 1.576 . S
C967 C276 1.569 . S
C972 C452 1.563 . S
C983 C465 1.622 . S
C988 C291 1.619 . S
C999 C439 1.621 . S
C1004 C304 1.657 . S
C1015 C530 1.568 . S
C1020 C315 1.586 . S
C1031 C328 1.466 . S
C1036 C300 1.513 . S
C1047 C341 1.587 . S
C1052 C283 1.591 . S
C1063 C354 1.537 . S
C1068 C287 1.624 . S
C1079 C367 1.531 . S
C1084 C543 1.494 . S
C1095 C547 1.478 . S
C1100 C380 1.406 . S
C1111 C393 1.523 . S
C1116 C569 1.524 . S
C1127 C261 1.568 . S
C1132 C406 1.484 . S
C1143 C322 1.580 . S
C1148 C419 1.582 . S
C1159 C432 1.366 . S
C1164 C335 1.513 . S
C1175 C445 1.673 . S
C1180 C348 1.669 . S
C1191 C458 1.439 . S
C1196 C361 1.523 . S
C1207 C471 1.580 . S
C1212 C374 1.590 . S
C1223 C484 1.478 . S
C1228 C387 1.593 . S
C1239 C400 1.636 . S
C1244 C497 1.634 . S
C1255 C413 1.604 . S
C1260 C510 1.425 . S
C1271 C426 1.626 . S
C1276 C523 1.625 . S
C1287 C478 1.655 . S
C1292 C536 1.677 . S
C1303 C491 1.632 . S
C1308 C551 1.612 . S
C1319 C562 1.595 . S
C1324 C504 1.591 . S
C1335 C577 1.587 . S
C1340 C205 1.545 . S
C1351 C588 1.600 . S
C1356 C140 1.581 . S
C1367 C153 1.548 . S
C1372 C603 1.530 . S
C1383 C616 1.532 . S
C1388 C127 1.503 . S
C1399 C5 1.469 . S
C1404 C352 1.342 . S
C1415 C313 1.886 . S
C1420 C18 1.873 . S
C1431 C31 1.409 . S
C1436 C326 1.346 . S
C1447 C44 1.800 . S
C1452 C339 1.818 . S
C1463 C57 1.571 . S
C1468 C66 1.457 . S
C1479 C79 2.051 . S
C1484 C70 2.042 . S
C1495 C83 1.513 . S
C1500 C92 1.442 . S
C1511 C96 2.036 . S
C1516 C53 2.048 . S
C1527 C109 1.467 . S
C1532 C556 1.438 . S
C1543 C122 1.934 . S
C1548 C560 1.948 . S
C1559 C135 1.833 . S
C1564 C270 1.820 . S
C1575 C148 2.039 . S
C1580 C534 2.065 . S
C1591 C161 1.375 . S
C1596 C608 1.368 . S
C1607 C209 1.940 . S
C1612 C174 1.933 . S
C1623 C187 1.771 . S
C1628 C621 1.728 . S
C1639 C586 2.049 . S
C1644 C200 2.040 . S
C1655 C118 1.437 . S
C1660 C213 1.485 . S
C1671 C226 1.833 . S
C1676 C508 1.734 . S
C1687 C237 1.869 . S
C1692 C469 1.833 . S
C1703 C482 1.761 . S
C1708 C252 1.917 . S
C1719 C263 1.791 . S
C1724 C183 1.738 . S
C1735 C456 1.642 . S
C1740 C278 1.748 . S
C1751 C417 1.859 . S
C1756 C289 1.884 . S
C1767 C443 2.049 . S
C1772 C302 2.070 . S
C1783 C317 1.840 . S
C1788 C40 1.750 . S
C1799 C330 1.926 . S
C1804 C1 1.941 . S
C1815 C14 1.818 . S
C1820 C343 1.926 . S
C1831 C356 1.944 . S
C1836 C27 1.963 . S
C1847 C369 1.769 . S
C1852 C378 1.673 . S
C1863 C391 1.723 . S
C1868 C382 1.712 . S
C1879 C404 1.743 . S
C1884 C395 1.851 . S
C1895 C408 1.724 . S
C1900 C365 1.739 . S
C1911 C244 1.809 . S
C1916 C421 1.852 . S
C1927 C434 1.834 . S
C1932 C248 1.847 . S
C1943 C447 1.485 . S
C1948 C582 1.471 . S
C1959 C460 1.704 . S
C1964 C222 1.716 . S
C1975 C473 1.925 . S
C1980 C296 1.902 . S
C1991 C486 1.857 . S
C1996 C521 1.867 . S
C2007 C309 1.576 . S
C2012 C499 1.571 . S
C2023 C512 1.725 . S
C2028 C274 1.740 . S
C2039 C430 1.738 . S
C2044 C525 1.853 . S
C2055 C196 1.447 . S
C2060 C538 1.494 . S
C2071 C157 1.978 . S
C2076 C549 1.983 . S
C2087 C564 1.374 . S
C2092 C170 1.276 . S
C2103 C575 2.034 . S
C2108 C495 2.025 . S
C2119 C144 1.474 . S
C2124 C590 1.591 . S
C2135 C601 1.933 . S
C2140 C105 1.939 . S
C2151 C131 1.705 . S
C2156 C614 1.749 . S
