# Generated by pormake.
# Topology dmp, (4)-cn, num edge types: 1
# Building blocks:
#     Node 0, Type 0, BuildingBlock: ICAMEG_clean_sbu_1, # of connection points: 4
#     Node 1, Type 0, BuildingBlock: ICAMEG_clean_sbu_1, # of connection points: 4
#     Node 2, Type 0, BuildingBlock: ICAMEG_clean_sbu_1, # of connection points: 4
#     Node 3, Type 0, BuildingBlock: ICAMEG_clean_sbu_1, # of connection points: 4
#     Edge 4, Type (0, 0), BuildingBlock: TEMPAE_clean_linker_10, # of connection points: 2
#     Edge 5, Type (0, 0), BuildingBlock: TEMPAE_clean_linker_10, # of connection points: 2
#     Edge 6, Type (0, 0), BuildingBlock: TEMPAE_clean_linker_10, # of connection points: 2
#     Edge 7, Type (0, 0), BuildingBlock: TEMPAE_clean_linker_10, # of connection points: 2
#     Edge 8, Type (0, 0), BuildingBlock: TEMPAE_clean_linker_10, # of connection points: 2
#     Edge 9, Type (0, 0), BuildingBlock: TEMPAE_clean_linker_10, # of connection points: 2
#     Edge 10, Type (0, 0), BuildingBlock: TEMPAE_clean_linker_10, # of connection points: 2
#     Edge 11, Type (0, 0), BuildingBlock: TEMPAE_clean_linker_10, # of connection points: 2
# Relax obj value: 0.009
# Max RMSD: 0.070
# Mean RMSD: 0.070
data_MOF--net-dmp--node1-ICAMEG_clean_sbu_1--edge1-TEMPAE_clean_linker_10
_symmetry_space_group_name_H-M    P1
_symmetry_Int_Tables_number       1
_symmetry_cell_setting            triclinic
loop_
_symmetry_equiv_pos_as_xyz
'x, y, z'
_cell_length_a     44.072631
_cell_length_b     19.364164
_cell_length_c     18.196476
_cell_angle_alpha  89.996482
_cell_angle_beta   90.19766
_cell_angle_gamma 89.987477
loop_
_atom_site_label
_atom_site_type_symbol
_atom_site_fract_x
_atom_site_fract_y
_atom_site_fract_z
_atom_type_partial_charge
Co0 Co 0.12359 0.25045 0.15642 0.0
Co1 Co 0.11752 0.24972 0.34441 0.0
O2 O 0.09964 0.25312 0.24632 0.0
C3 C 0.07832 0.14047 0.13739 0.0
O4 O 0.08472 0.12171 0.20497 0.0
C5 C 0.07904 0.37457 0.35506 0.0
O6 O 0.0944 0.40096 0.30012 0.0
O7 O 0.14467 0.32856 0.32086 0.0
O8 O 0.15612 0.3083 0.20241 0.0
H9 H 0.20246 0.25391 0.52942 0.0
H10 H 0.05919 0.29415 0.15008 0.0
O11 O 0.09179 0.1918 0.10845 0.0
H12 H 0.1176 0.49255 0.05653 0.0
H13 H 0.13781 0.25644 0.8821 0.0
H14 H 0.18873 0.22989 0.12216 0.0
H15 H 0.14365 0.38552 0.09457 0.0
H16 H 0.10841 0.26192 0.99711 0.0
O17 O 0.08527 0.31457 0.37949 0.0
H18 H 0.18006 0.25611 0.40507 0.0
H19 H 0.09155 0.2413 0.49516 0.0
H20 H 0.21904 0.22472 0.00863 0.0
H21 H 0.03219 0.40001 0.11213 0.0
H22 H 0.19355 0.23804 0.88746 0.0
H23 H 0.06146 0.5002 0.06507 0.0
O24 O 0.14502 0.16597 0.19004 0.0
H25 H 0.01808 0.12295 0.35311 0.0
H26 H 0.12748 0.11011 0.40948 0.0
H27 H 0.09474 0.00988 0.4358 0.0
H28 H 0.0396 0.01599 0.40772 0.0
H29 H 0.05169 0.22165 0.32685 0.0
H30 H 0.11296 0.2396 0.6206 0.0
H31 H 0.1688 0.24559 0.63831 0.0
O32 O 0.15025 0.18512 0.31121 0.0
C33 C 0.16071 0.33877 0.26368 0.0
C34 C 0.1781 0.25089 0.52242 0.0
C35 C 0.12786 0.24296 0.57359 0.0
N36 N 0.13458 0.24779 0.44281 0.0
C37 C 0.1653 0.25179 0.45211 0.0
C38 C 0.11587 0.244 0.50244 0.0
C39 C 0.1592 0.24631 0.58349 0.0
C40 C 0.07204 0.33733 0.12906 0.0
N41 N 0.10291 0.33351 0.12404 0.0
C42 C 0.05665 0.39722 0.10791 0.0
C43 C 0.07309 0.45345 0.0816 0.0
C44 C 0.10459 0.4492 0.07682 0.0
C45 C 0.11922 0.38852 0.09856 0.0
C46 C 0.14919 0.25082 0.93456 0.0
C47 C 0.17752 0.23638 0.0697 0.0
C48 C 0.13266 0.2538 0.99985 0.0
N49 N 0.14691 0.24711 0.0663 0.0
C50 C 0.19478 0.23311 0.00558 0.0
C51 C 0.18046 0.2405 0.93761 0.0
C52 C 0.15723 0.15332 0.25217 0.0
C53 C 0.04204 0.11975 0.36586 0.0
C54 C 0.10353 0.11306 0.39679 0.0
C55 C 0.08509 0.05622 0.41204 0.0
C56 C 0.05415 0.05971 0.39635 0.0
N57 N 0.09149 0.17178 0.36691 0.0
C58 C 0.06116 0.17562 0.35148 0.0
Co59 Co 0.38215 0.75153 0.34253 0.0
Co60 Co 0.37601 0.7512 0.15443 0.0
O61 O 0.40001 0.74939 0.24466 0.0
C62 C 0.42177 0.62873 0.35214 0.0
O63 O 0.40693 0.60304 0.29574 0.0
C64 C 0.42042 0.86314 0.1364 0.0
O65 O 0.41386 0.8816 0.20388 0.0
O66 O 0.35381 0.83458 0.18806 0.0
O67 O 0.34885 0.81468 0.30912 0.0
H68 H 0.28027 0.77242 0.00533 0.0
H69 H 0.44773 0.78256 0.32621 0.0
O70 O 0.4149 0.68788 0.37776 0.0
H71 H 0.40286 0.99202 0.43517 0.0
H72 H 0.38674 0.76039 0.61883 0.0
H73 H 0.31968 0.7422 0.40225 0.0
H74 H 0.37099 0.89042 0.40796 0.0
H75 H 0.4081 0.76039 0.49368 0.0
O76 O 0.40727 0.81143 0.10712 0.0
H77 H 0.31067 0.7686 0.11929 0.0
H78 H 0.39123 0.74101 0.9953 0.0
H79 H 0.29734 0.74261 0.52629 0.0
H80 H 0.48047 0.88268 0.35334 0.0
H81 H 0.33097 0.75178 0.63571 0.0
H82 H 0.45803 0.98848 0.40796 0.0
O83 O 0.35569 0.67164 0.31829 0.0
H84 H 0.46877 0.60625 0.11086 0.0
H85 H 0.35719 0.61537 0.09179 0.0
H86 H 0.38422 0.50978 0.05369 0.0
H87 H 0.44042 0.50484 0.06299 0.0
H88 H 0.4408 0.71063 0.14887 0.0
H89 H 0.36174 0.74523 0.87988 0.0
H90 H 0.30583 0.76069 0.88449 0.0
O91 O 0.34402 0.69157 0.19975 0.0
C92 C 0.34154 0.84633 0.25012 0.0
C93 C 0.3046 0.76532 0.0026 0.0
C94 C 0.35033 0.75015 0.9322 0.0
N95 N 0.35262 0.75369 0.06398 0.0
C96 C 0.32191 0.76282 0.06697 0.0
C97 C 0.36691 0.74789 0.99771 0.0
C98 C 0.31896 0.75882 0.93483 0.0
C99 C 0.43785 0.82809 0.35082 0.0
N100 N 0.4075 0.83052 0.36577 0.0
C101 C 0.45649 0.88476 0.36571 0.0
C102 C 0.44386 0.94415 0.3962 0.0
C103 C 0.4129 0.9462 0.4114 0.0
C104 C 0.39495 0.88859 0.39566 0.0
C105 C 0.37185 0.75665 0.57159 0.0
C106 C 0.33444 0.74688 0.44952 0.0
C107 C 0.38381 0.75657 0.5006 0.0
N108 N 0.36511 0.75228 0.44068 0.0
C109 C 0.32166 0.74677 0.51966 0.0
C110 C 0.34055 0.75182 0.58102 0.0
C111 C 0.33972 0.66072 0.26087 0.0
C112 C 0.44429 0.60787 0.10631 0.0
C113 C 0.38164 0.61355 0.09612 0.0
C114 C 0.39683 0.55367 0.07435 0.0
C115 C 0.42836 0.55095 0.07955 0.0
N116 N 0.39744 0.66924 0.12206 0.0
C117 C 0.42834 0.66691 0.12749 0.0
Co118 Co 0.88213 0.74858 0.84236 0.0
Co119 Co 0.87583 0.7514 0.65432 0.0
O120 O 0.8999 0.75251 0.74446 0.0
C121 C 0.92116 0.87217 0.85405 0.0
O122 O 0.90604 0.89859 0.79848 0.0
C123 C 0.92066 0.64065 0.63452 0.0
O124 O 0.91414 0.62121 0.70171 0.0
O125 O 0.85401 0.66706 0.68673 0.0
O126 O 0.84902 0.68541 0.80807 0.0
H127 H 0.78005 0.73034 0.50537 0.0
H128 H 0.94782 0.71907 0.82526 0.0
O129 O 0.91469 0.81233 0.87845 0.0
H130 H 0.90384 0.50708 0.93067 0.0
H131 H 0.88706 0.7357 0.11845 0.0
H132 H 0.81968 0.75557 0.90261 0.0
H133 H 0.87156 0.60849 0.90541 0.0
H134 H 0.90828 0.73809 0.99319 0.0
O135 O 0.90733 0.69248 0.60596 0.0
H136 H 0.81054 0.73317 0.61923 0.0
H137 H 0.89087 0.76407 0.49531 0.0
H138 H 0.79748 0.75276 0.02676 0.0
H139 H 0.98097 0.61917 0.85048 0.0
H140 H 0.83127 0.74274 0.1358 0.0
H141 H 0.95897 0.5121 0.90329 0.0
O142 O 0.85533 0.82828 0.81955 0.0
H143 H 0.96789 0.89904 0.61268 0.0
H144 H 0.85635 0.88765 0.59394 0.0
H145 H 0.88286 0.9944 0.55745 0.0
H146 H 0.93905 0.00049 0.56659 0.0
H147 H 0.94043 0.79349 0.6491 0.0
H148 H 0.8613 0.76089 0.37997 0.0
H149 H 0.80546 0.74426 0.3846 0.0
O150 O 0.84362 0.80969 0.70077 0.0
C151 C 0.8418 0.65443 0.74864 0.0
C152 C 0.80435 0.73795 0.50263 0.0
C153 C 0.84996 0.755 0.43226 0.0
N154 N 0.85238 0.74966 0.56396 0.0
C155 C 0.82171 0.73989 0.56695 0.0
C156 C 0.86659 0.75667 0.49772 0.0
C157 C 0.81862 0.74568 0.4349 0.0
C158 C 0.93814 0.67299 0.84912 0.0
N159 N 0.90781 0.66974 0.86414 0.0
C160 C 0.957 0.61645 0.86291 0.0
C161 C 0.94463 0.55634 0.89239 0.0
C162 C 0.91369 0.55346 0.90769 0.0
C163 C 0.89551 0.61097 0.89305 0.0
C164 C 0.8721 0.73982 0.07136 0.0
C165 C 0.83451 0.75056 0.9497 0.0
C166 C 0.88398 0.74126 1.00032 0.0
N167 N 0.86521 0.74603 0.94059 0.0
C168 C 0.82182 0.74929 0.01991 0.0
C169 C 0.84079 0.74376 0.08106 0.0
C170 C 0.83926 0.8396 0.7624 0.0
C171 C 0.94342 0.89693 0.60821 0.0
C172 C 0.8808 0.88996 0.59819 0.0
C173 C 0.89569 0.95049 0.57733 0.0
C174 C 0.92721 0.95387 0.58245 0.0
N175 N 0.89687 0.83426 0.62315 0.0
C176 C 0.92776 0.83723 0.62848 0.0
Co177 Co 0.62357 0.24951 0.65634 0.0
Co178 Co 0.61761 0.25311 0.84441 0.0
O179 O 0.59968 0.24846 0.7464 0.0
C180 C 0.57857 0.35983 0.63595 0.0
O181 O 0.58492 0.37907 0.70339 0.0
C182 C 0.57898 0.12875 0.85699 0.0
O183 O 0.59421 0.10172 0.80219 0.0
O184 O 0.64467 0.17374 0.8221 0.0
O185 O 0.65594 0.19172 0.70311 0.0
H186 H 0.70264 0.25107 0.0292 0.0
H187 H 0.55902 0.20698 0.6509 0.0
O188 O 0.59196 0.30812 0.60755 0.0
H189 H 0.61668 0.00611 0.56048 0.0
H190 H 0.63757 0.23926 0.38209 0.0
H191 H 0.68875 0.26843 0.62148 0.0
H192 H 0.64312 0.11317 0.59663 0.0
H193 H 0.60824 0.23603 0.4973 0.0
O194 O 0.58532 0.18895 0.88064 0.0
H195 H 0.68018 0.24712 0.90498 0.0
H196 H 0.59173 0.26391 0.99508 0.0
H197 H 0.719 0.27134 0.50776 0.0
H198 H 0.53162 0.1011 0.61481 0.0
H199 H 0.69338 0.25669 0.38692 0.0
H200 H 0.56052 -0.00033 0.56933 0.0
O201 O 0.64532 0.33404 0.6885 0.0
H202 H 0.51828 0.38053 0.8515 0.0
H203 H 0.62774 0.39361 0.90707 0.0
H204 H 0.5951 0.49439 0.93187 0.0
H205 H 0.53994 0.48816 0.90418 0.0
H206 H 0.55179 0.28128 0.82672 0.0
H207 H 0.61321 0.26737 0.12041 0.0
H208 H 0.66906 0.26128 0.13804 0.0
O209 O 0.65037 0.31704 0.81007 0.0
C210 C 0.66057 0.16228 0.76494 0.0
C211 C 0.67828 0.25415 0.02223 0.0
C212 C 0.62808 0.26319 0.07342 0.0
N213 N 0.63472 0.25633 0.94271 0.0
C214 C 0.66544 0.25226 0.95198 0.0
C215 C 0.61605 0.26115 0.00233 0.0
C216 C 0.65942 0.25978 0.08327 0.0
C217 C 0.5717 0.16325 0.63055 0.0
N218 N 0.60259 0.16639 0.62537 0.0
C219 C 0.55609 0.10336 0.61046 0.0
C220 C 0.57232 0.04643 0.58504 0.0
C221 C 0.60383 0.05 0.58008 0.0
C222 C 0.61868 0.11071 0.60075 0.0
C223 C 0.64901 0.24544 0.43441 0.0
C224 C 0.67749 0.26136 0.56918 0.0
C225 C 0.63252 0.24374 0.4998 0.0
N226 N 0.64684 0.25114 0.56608 0.0
C227 C 0.69471 0.26336 0.50494 0.0
C228 C 0.68032 0.25522 0.43716 0.0
C229 C 0.65749 0.34768 0.75044 0.0
C230 C 0.54226 0.38378 0.86407 0.0
C231 C 0.60378 0.3906 0.89456 0.0
C232 C 0.5854 0.44776 0.90894 0.0
C233 C 0.55444 0.4442 0.89347 0.0
N234 N 0.59166 0.33151 0.86573 0.0
C235 C 0.56132 0.32761 0.85052 0.0
C236 C 0.29085 0.87773 0.29901 0.0
C237 C 0.31522 0.89322 0.25256 0.0
C238 C 0.26446 0.91803 0.29857 0.0
C239 C 0.26277 0.9764 0.25201 0.0
C240 C 0.28755 0.99309 0.20586 0.0
C241 C 0.31335 0.95051 0.20579 0.0
C242 C 0.23822 0.89746 0.34709 0.0
C243 C 0.28684 0.05605 0.15694 0.0
C244 C 0.18568 0.0516 0.20285 0.0
C245 C 0.18308 0.10487 0.25457 0.0
C246 C 0.21132 0.00855 0.20203 0.0
C247 C 0.23522 0.02056 0.25272 0.0
C248 C 0.23271 0.07444 0.30483 0.0
C249 C 0.2065 0.11532 0.30574 0.0
C250 C 0.21288 0.95033 0.14699 0.0
C251 C 0.25799 0.08987 0.35867 0.0
H252 H 0.29198 0.83259 0.3341 0.0
H253 H 0.33219 0.96234 0.16975 0.0
H254 H 0.2332 0.93935 0.38679 0.0
H255 H 0.21753 0.88967 0.31316 0.0
H256 H 0.24286 0.84927 0.37831 0.0
H257 H 0.30831 0.06285 0.12594 0.0
H258 H 0.26783 0.05198 0.11709 0.0
H259 H 0.28281 0.103 0.19051 0.0
H260 H 0.16761 0.04347 0.1632 0.0
H261 H 0.20485 0.15716 0.34503 0.0
H262 H 0.21656 0.90054 0.1759 0.0
H263 H 0.23242 0.95814 0.10969 0.0
H264 H 0.19189 0.9463 0.11328 0.0
H265 H 0.26233 0.04421 0.39398 0.0
H266 H 0.25271 0.13467 0.39457 0.0
H267 H 0.27927 0.10092 0.32844 0.0
C268 C 0.21255 0.37323 0.22485 0.0
C269 C 0.18707 0.38545 0.26888 0.0
C270 C 0.23798 0.41636 0.22841 0.0
C271 C 0.23766 0.47409 0.27601 0.0
C272 C 0.2121 0.4865 0.32115 0.0
C273 C 0.18718 0.44138 0.31771 0.0
C274 C 0.26503 0.40058 0.18046 0.0
C275 C 0.21076 0.54841 0.37143 0.0
C276 C 0.31307 0.56048 0.31908 0.0
C277 C 0.31374 0.61281 0.26586 0.0
C278 C 0.28829 0.5151 0.32365 0.0
C279 C 0.26342 0.52346 0.27493 0.0
C280 C 0.26373 0.5772 0.2223 0.0
C281 C 0.28901 0.62072 0.21791 0.0
C282 C 0.28897 0.45741 0.37944 0.0
C283 C 0.23743 0.58851 0.17017 0.0
H284 H 0.21277 0.32931 0.18795 0.0
H285 H 0.16748 0.45085 0.35179 0.0
H286 H 0.26817 0.44254 0.13969 0.0
H287 H 0.28598 0.39812 0.21436 0.0
H288 H 0.26246 0.35098 0.15039 0.0
H289 H 0.1897 0.54939 0.4048 0.0
H290 H 0.2306 0.54868 0.40907 0.0
H291 H 0.21183 0.5965 0.33836 0.0
H292 H 0.33216 0.55421 0.35622 0.0
H293 H 0.28917 0.6617 0.17738 0.0
H294 H 0.28813 0.40684 0.35082 0.0
H295 H 0.26874 0.46032 0.41537 0.0
H296 H 0.30966 0.459 0.41444 0.0
H297 H 0.23484 0.54309 0.13355 0.0
H298 H 0.24048 0.63521 0.13549 0.0
H299 H 0.216 0.59394 0.2015 0.0
C300 C 0.71231 0.12676 0.72658 0.0
C301 C 0.6868 0.11532 0.77075 0.0
C302 C 0.73762 0.08328 0.73055 0.0
C303 C 0.73715 0.02595 0.77871 0.0
C304 C 0.71157 0.01435 0.82403 0.0
C305 C 0.68677 0.05984 0.82017 0.0
C306 C 0.7647 0.0982 0.68238 0.0
C307 C 0.71006 0.95288 0.8749 0.0
C308 C 0.78822 0.87875 0.72087 0.0
C309 C 0.81313 0.88701 0.7682 0.0
C310 C 0.76292 0.92217 0.72561 0.0
C311 C 0.76276 0.97617 0.77796 0.0
C312 C 0.78775 0.98466 0.82627 0.0
C313 C 0.81257 0.93938 0.82136 0.0
C314 C 0.73648 0.91068 0.67393 0.0
C315 C 0.78859 0.04258 0.88176 0.0
H316 H 0.71264 0.17034 0.68924 0.0
H317 H 0.66705 0.05098 0.85435 0.0
H318 H 0.78567 0.10056 0.71619 0.0
H319 H 0.76767 0.05588 0.64196 0.0
H320 H 0.76227 0.14762 0.65189 0.0
H321 H 0.68906 0.95266 0.90848 0.0
H322 H 0.71087 0.90451 0.84226 0.0
H323 H 0.72997 0.95247 0.91234 0.0
H324 H 0.7883 0.83767 0.68045 0.0
H325 H 0.83179 0.94587 0.85804 0.0
H326 H 0.73398 0.95572 0.63672 0.0
H327 H 0.7151 0.906 0.70554 0.0
H328 H 0.73933 0.86353 0.63986 0.0
H329 H 0.78804 0.09302 0.85284 0.0
H330 H 0.80922 0.04066 0.91698 0.0
H331 H 0.76828 0.04038 0.9175 0.0
C332 C 0.81425 0.54888 0.70592 0.0
C333 C 0.81542 0.60784 0.75033 0.0
C334 C 0.78845 0.50628 0.70565 0.0
C335 C 0.763 0.52473 0.74884 0.0
C336 C 0.76397 0.58499 0.79272 0.0
C337 C 0.79035 0.62524 0.79372 0.0
C338 C 0.7885 0.44134 0.65975 0.0
C339 C 0.73702 0.60748 0.83787 0.0
C340 C 0.68659 0.44705 0.69793 0.0
C341 C 0.68336 0.39615 0.75211 0.0
C342 C 0.71226 0.49001 0.69666 0.0
C343 C 0.73552 0.48036 0.74959 0.0
C344 C 0.73238 0.4289 0.8042 0.0
C345 C 0.70617 0.38807 0.80536 0.0
C346 C 0.71448 0.54567 0.63882 0.0
C347 C 0.75698 0.41606 0.86062 0.0
H348 H 0.83364 0.53571 0.67218 0.0
H349 H 0.791 0.67176 0.8268 0.0
H350 H 0.78418 0.3958 0.69524 0.0
H351 H 0.76997 0.44344 0.61842 0.0
H352 H 0.81035 0.43356 0.63065 0.0
H353 H 0.74111 0.65717 0.86676 0.0
H354 H 0.71679 0.61331 0.80192 0.0
H355 H 0.73156 0.56748 0.87939 0.0
H356 H 0.66901 0.45341 0.65666 0.0
H357 H 0.70405 0.34813 0.8467 0.0
H358 H 0.73456 0.5364 0.60359 0.0
H359 H 0.71766 0.59675 0.66541 0.0
H360 H 0.69397 0.54792 0.60325 0.0
H361 H 0.77868 0.40411 0.83261 0.0
H362 H 0.75134 0.3727 0.89815 0.0
H363 H 0.76072 0.46319 0.89408 0.0
C364 C 0.03088 0.07073 0.12974 0.0
C365 C 0.05549 0.10204 0.09448 0.0
C366 C 0.00873 0.03499 0.08928 0.0
C367 C 0.01189 0.02857 0.01212 0.0
C368 C 0.03699 0.05936 0.97645 0.0
C369 C 0.05824 0.09676 0.01799 0.0
C370 C 0.98184 0.00457 0.12901 0.0
C371 C 0.04165 0.05185 0.89466 0.0
C372 C 0.96977 0.87898 0.92379 0.0
C373 C 0.94506 0.91267 0.89097 0.0
C374 C 0.99214 0.91636 0.96166 0.0
C375 C 0.98914 0.98884 0.9689 0.0
C376 C 0.96417 0.02308 0.93587 0.0
C377 C 0.94265 0.98461 0.89617 0.0
C378 C 0.01892 0.87824 0.99411 0.0
C379 C 0.95975 0.10001 0.94415 0.0
H380 H 0.02864 0.0754 0.18887 0.0
H381 H 0.07742 0.12062 0.99081 0.0
H382 H 0.96043 0.02436 0.10455 0.0
H383 H 0.98171 0.94762 0.12259 0.0
H384 H 0.98203 0.01699 0.18862 0.0
H385 H 0.06271 0.07771 0.87566 0.0
H386 H 0.04288 0.99631 0.87989 0.0
H387 H 0.02209 0.07419 0.86441 0.0
H388 H 0.97171 0.82331 0.91932 0.0
H389 H 0.92337 0.01054 0.87136 0.0
H390 H 0.01875 0.88305 0.05483 0.0
H391 H 0.04042 0.90147 0.97438 0.0
H392 H 0.01881 0.8225 0.97966 0.0
H393 H 0.95807 0.11347 0.00329 0.0
H394 H 0.93899 0.11865 0.91557 0.0
H395 H 0.97962 0.12807 0.9218 0.0
C396 C 0.53008 0.12297 0.92478 0.0
C397 C 0.55492 0.08878 0.89361 0.0
C398 C 0.50748 0.08618 0.96217 0.0
C399 C 0.51038 0.01379 0.97066 0.0
C400 C 0.53552 0.97905 0.93937 0.0
C401 C 0.55726 0.01692 0.90008 0.0
C402 C 0.48055 0.1248 0.9927 0.0
C403 C 0.53984 0.90222 0.94904 0.0
C404 C 0.46768 0.93365 0.13039 0.0
C405 C 0.44331 0.90182 0.09425 0.0
C406 C 0.49003 0.96911 0.09064 0.0
C407 C 0.48733 0.97467 0.01324 0.0
C408 C 0.46245 0.94348 0.97669 0.0
C409 C 0.44099 0.9064 0.01758 0.0
C410 C 0.51668 1e-05 0.13136 0.0
C411 C 0.45828 0.95007 0.89458 0.0
H412 H 0.52818 0.17857 0.91933 0.0
H413 H 0.57666 0.99061 0.87656 0.0
H414 H 0.45915 0.10147 0.97212 0.0
H415 H 0.48034 0.12067 0.05349 0.0
H416 H 0.48081 0.18038 0.97755 0.0
H417 H 0.56078 0.88318 0.92194 0.0
H418 H 0.54109 0.88951 0.00844 0.0
H419 H 0.52012 0.87394 0.92593 0.0
H420 H 0.46961 0.92951 0.18966 0.0
H421 H 0.422 0.88212 0.98969 0.0
H422 H 0.51692 0.05685 0.12397 0.0
H423 H 0.53822 0.97974 0.10846 0.0
H424 H 0.51606 0.9885 0.19116 0.0
H425 H 0.45728 0.00543 0.87898 0.0
H426 H 0.43726 0.92425 0.87488 0.0
H427 H 0.47795 0.9271 0.86565 0.0
C428 C 0.94132 0.5988 0.51519 0.0
C429 C 0.94366 0.60276 0.59189 0.0
C430 C 0.96277 0.56199 0.47395 0.0
C431 C 0.98765 0.53044 0.51021 0.0
C432 C 0.99041 0.53558 0.58762 0.0
C433 C 0.96807 0.57076 0.6277 0.0
C434 C 0.95853 0.55585 0.39182 0.0
C435 C 0.01706 0.50432 0.62806 0.0
C436 C 0.02996 0.38139 0.42198 0.0
C437 C 0.05497 0.41508 0.39102 0.0
C438 C 0.00741 0.41863 0.45902 0.0
C439 C 0.01053 0.49098 0.46741 0.0
C440 C 0.0358 0.52525 0.4362 0.0
C441 C 0.0575 0.48693 0.39722 0.0
C442 C 0.98034 0.3805 0.48948 0.0
C443 C 0.04035 0.60201 0.44577 0.0
H444 H 0.9223 0.62323 0.48755 0.0
H445 H 0.97003 0.57444 0.68699 0.0
H446 H 0.97833 0.57827 0.36291 0.0
H447 H 0.9572 0.50057 0.37603 0.0
H448 H 0.93766 0.58239 0.37228 0.0
H449 H 0.01662 0.51597 0.68783 0.0
H450 H 0.01709 0.44746 0.62082 0.0
H451 H 0.03862 0.52414 0.60483 0.0
H452 H 0.02792 0.32579 0.41672 0.0
H453 H 0.07702 0.51285 0.37385 0.0
H454 H 0.95902 0.40441 0.46913 0.0
H455 H 0.9802 0.38436 0.55028 0.0
H456 H 0.98036 0.32499 0.47405 0.0
H457 H 0.02064 0.63061 0.42307 0.0
H458 H 0.06126 0.62075 0.4183 0.0
H459 H 0.04183 0.61467 0.50517 0.0
C460 C 0.44402 0.51596 0.39105 0.0
C461 C 0.44578 0.58813 0.38858 0.0
C462 C 0.46556 0.47724 0.43045 0.0
C463 C 0.48989 0.51157 0.46608 0.0
C464 C 0.49229 0.58436 0.4615 0.0
C465 C 0.4699 0.62187 0.42379 0.0
C466 C 0.46179 0.39991 0.43579 0.0
C467 C 0.51838 0.62266 0.4968 0.0
C468 C 0.5306 0.42743 0.62714 0.0
C469 C 0.55586 0.39815 0.59262 0.0
C470 C 0.50854 0.46306 0.58626 0.0
C471 C 0.5125 0.47162 0.50954 0.0
C472 C 0.53826 0.44292 0.47468 0.0
C473 C 0.55938 0.40539 0.51652 0.0
C474 C 0.48092 0.49109 0.62504 0.0
C475 C 0.54379 0.4529 0.39352 0.0
H476 H 0.4252 0.48994 0.36436 0.0
H477 H 0.47137 0.67773 0.42143 0.0
H478 H 0.4822 0.37348 0.41406 0.0
H479 H 0.45948 0.38459 0.49428 0.0
H480 H 0.44159 0.38117 0.40502 0.0
H481 H 0.51799 0.67875 0.48393 0.0
H482 H 0.51755 0.61631 0.55733 0.0
H483 H 0.54029 0.6008 0.47789 0.0
H484 H 0.52779 0.42119 0.68596 0.0
H485 H 0.57908 0.38308 0.49 0.0
H486 H 0.45999 0.47113 0.59842 0.0
H487 H 0.48036 0.54819 0.62053 0.0
H488 H 0.48052 0.4769 0.68419 0.0
H489 H 0.52477 0.43069 0.36126 0.0
H490 H 0.56527 0.42841 0.37517 0.0
H491 H 0.54475 0.50887 0.3806 0.0
loop_
_geom_bond_atom_site_label_1
_geom_bond_atom_site_label_2
_geom_bond_distance
_geom_bond_site_symmetry_2
_ccdc_geom_bond_type
Co0 O2 2.143 . S
Co0 O8 2.074 . S
Co0 O11 2.093 . S
Co0 O24 2.097 . S
Co0 N41 2.151 . S
Co0 N49 2.214 . S
Co1 O2 2.160 . S
Co1 O7 2.058 . S
Co1 O17 2.057 . S
Co1 O32 2.037 . S
Co1 N36 2.145 . S
Co1 N57 2.257 . S
O2 Co0 2.143 . S
O2 Co1 2.160 . S
C3 O4 1.278 . S
C3 O11 1.224 . S
O4 C3 1.278 . S
C5 O6 1.245 . S
C5 O17 1.232 . S
O6 C5 1.245 . S
O7 Co1 2.058 . S
O7 C33 1.269 . S
O8 Co0 2.074 . S
O8 C33 1.257 . S
H9 C34 0.930 . S
H10 C40 0.930 . S
O11 Co0 2.093 . S
O11 C3 1.224 . S
H12 C44 0.929 1_556 S
H13 C46 0.930 . S
H14 C47 0.930 . S
H15 C45 0.929 . S
H16 C48 0.928 . S
O17 Co1 2.057 . S
O17 C5 1.232 . S
H18 C37 0.929 . S
H19 C38 0.929 . S
H20 C50 0.931 . S
H21 C42 0.929 . S
H22 C51 0.930 . S
H23 C43 0.931 . S
O24 Co0 2.097 . S
O24 C52 1.214 . S
H25 C53 0.929 . S
H26 C54 0.929 . S
H27 C55 0.930 . S
H28 C56 0.929 . S
H29 C58 0.930 . S
H30 C35 0.930 . S
H31 C39 0.930 . S
O32 Co1 2.037 . S
O32 C52 1.234 . S
C33 O7 1.269 . S
C33 O8 1.257 . S
C34 H9 0.930 . S
C34 C37 1.388 . S
C34 C39 1.418 . S
C35 H30 0.930 . S
C35 C38 1.404 . S
C35 C39 1.353 . S
N36 Co1 2.145 . S
N36 C37 1.397 . S
N36 C38 1.334 . S
C37 H18 0.929 . S
C37 C34 1.388 . S
C37 N36 1.397 . S
C38 H19 0.929 . S
C38 C35 1.404 . S
C38 N36 1.334 . S
C39 H31 0.930 . S
C39 C34 1.418 . S
C39 C35 1.353 . S
C40 H10 0.930 . S
C40 N41 1.330 . S
C40 C42 1.446 . S
N41 Co0 2.151 . S
N41 C40 1.330 . S
N41 C45 1.418 . S
C42 H21 0.929 . S
C42 C40 1.446 . S
C42 C43 1.332 1_554 S
C43 H23 0.931 . S
C43 C42 1.332 1_556 S
C43 C44 1.267 1_556 S
C44 H12 0.929 1_554 S
C44 C43 1.267 1_554 S
C44 C45 1.251 . S
C45 H15 0.929 . S
C45 N41 1.418 . S
C45 C44 1.251 . S
C46 H13 0.930 . S
C46 C48 1.406 . S
C46 C51 1.261 . S
C47 H14 0.930 . S
C47 N49 1.325 . S
C47 C50 1.357 . S
C48 H16 0.928 . S
C48 C46 1.406 . S
C48 N49 1.261 1_556 S
N49 Co0 2.214 . S
N49 C47 1.325 . S
N49 C48 1.261 1_554 S
C50 H20 0.931 . S
C50 C47 1.357 . S
C50 C51 1.312 1_554 S
C51 H22 0.930 . S
C51 C46 1.261 . S
C51 C50 1.312 1_556 S
C52 O24 1.214 . S
C52 O32 1.234 . S
C53 H25 0.929 . S
C53 C56 1.391 . S
C53 C58 1.391 . S
C54 H26 0.929 . S
C54 C55 1.390 . S
C54 N57 1.391 . S
C55 H27 0.930 . S
C55 C54 1.390 . S
C55 C56 1.392 . S
C56 H28 0.929 . S
C56 C53 1.391 . S
C56 C55 1.392 . S
N57 Co1 2.257 . S
N57 C54 1.391 . S
N57 C58 1.388 . S
C58 H29 0.930 . S
C58 C53 1.391 . S
C58 N57 1.388 . S
Co59 O61 2.143 . S
Co59 O67 2.074 . S
Co59 O70 2.093 . S
Co59 O83 2.097 . S
Co59 N100 2.151 . S
Co59 N108 2.214 . S
Co60 O61 2.160 . S
Co60 O66 2.058 . S
Co60 O76 2.057 . S
Co60 O91 2.037 . S
Co60 N95 2.145 . S
Co60 N116 2.257 . S
O61 Co59 2.143 . S
O61 Co60 2.160 . S
C62 O63 1.278 . S
C62 O70 1.224 . S
O63 C62 1.278 . S
C64 O65 1.245 . S
C64 O76 1.232 . S
O65 C64 1.245 . S
O66 Co60 2.058 . S
O66 C92 1.269 . S
O67 Co59 2.074 . S
O67 C92 1.257 . S
H68 C93 0.930 . S
H69 C99 0.930 . S
O70 Co59 2.093 . S
O70 C62 1.224 . S
H71 C103 0.929 . S
H72 C105 0.930 . S
H73 C106 0.930 . S
H74 C104 0.929 . S
H75 C107 0.928 . S
O76 Co60 2.057 . S
O76 C64 1.232 . S
H77 C96 0.929 . S
H78 C97 0.929 . S
H79 C109 0.931 . S
H80 C101 0.929 . S
H81 C110 0.930 . S
H82 C102 0.931 . S
O83 Co59 2.097 . S
O83 C111 1.214 . S
H84 C112 0.929 . S
H85 C113 0.929 . S
H86 C114 0.930 . S
H87 C115 0.929 . S
H88 C117 0.930 . S
H89 C94 0.930 . S
H90 C98 0.930 . S
O91 Co60 2.037 . S
O91 C111 1.234 . S
C92 O66 1.269 . S
C92 O67 1.257 . S
C93 H68 0.930 . S
C93 C96 1.388 1_556 S
C93 C98 1.418 . S
C94 H89 0.930 . S
C94 C97 1.404 . S
C94 C98 1.353 . S
N95 Co60 2.145 . S
N95 C96 1.397 . S
N95 C97 1.334 1_554 S
C96 H77 0.929 . S
C96 C93 1.388 1_554 S
C96 N95 1.397 . S
C97 H78 0.929 . S
C97 C94 1.404 . S
C97 N95 1.334 1_556 S
C98 H90 0.930 . S
C98 C93 1.418 . S
C98 C94 1.353 . S
C99 H69 0.930 . S
C99 N100 1.330 . S
C99 C101 1.446 . S
N100 Co59 2.151 . S
N100 C99 1.330 . S
N100 C104 1.418 . S
C101 H80 0.929 . S
C101 C99 1.446 . S
C101 C102 1.332 . S
C102 H82 0.931 . S
C102 C101 1.332 . S
C102 C103 1.267 . S
C103 H71 0.929 . S
C103 C102 1.267 . S
C103 C104 1.251 . S
C104 H74 0.929 . S
C104 N100 1.418 . S
C104 C103 1.251 . S
C105 H72 0.930 . S
C105 C107 1.406 . S
C105 C110 1.261 . S
C106 H73 0.930 . S
C106 N108 1.325 . S
C106 C109 1.357 . S
C107 H75 0.928 . S
C107 C105 1.406 . S
C107 N108 1.261 . S
N108 Co59 2.214 . S
N108 C106 1.325 . S
N108 C107 1.261 . S
C109 H79 0.931 . S
C109 C106 1.357 . S
C109 C110 1.312 . S
C110 H81 0.930 . S
C110 C105 1.261 . S
C110 C109 1.312 . S
C111 O83 1.214 . S
C111 O91 1.234 . S
C112 H84 0.929 . S
C112 C115 1.391 . S
C112 C117 1.391 . S
C113 H85 0.929 . S
C113 C114 1.390 . S
C113 N116 1.391 . S
C114 H86 0.930 . S
C114 C113 1.390 . S
C114 C115 1.392 . S
C115 H87 0.929 . S
C115 C112 1.391 . S
C115 C114 1.392 . S
N116 Co60 2.257 . S
N116 C113 1.391 . S
N116 C117 1.388 . S
C117 H88 0.930 . S
C117 C112 1.391 . S
C117 N116 1.388 . S
Co118 O120 2.143 . S
Co118 O126 2.074 . S
Co118 O129 2.093 . S
Co118 O142 2.097 . S
Co118 N159 2.151 . S
Co118 N167 2.214 . S
Co119 O120 2.160 . S
Co119 O125 2.058 . S
Co119 O135 2.057 . S
Co119 O150 2.037 . S
Co119 N154 2.145 . S
Co119 N175 2.257 . S
O120 Co118 2.143 . S
O120 Co119 2.160 . S
C121 O122 1.278 . S
C121 O129 1.224 . S
O122 C121 1.278 . S
C123 O124 1.245 . S
C123 O135 1.232 . S
O124 C123 1.245 . S
O125 Co119 2.058 . S
O125 C151 1.269 . S
O126 Co118 2.074 . S
O126 C151 1.257 . S
H127 C152 0.930 . S
H128 C158 0.930 . S
O129 Co118 2.093 . S
O129 C121 1.224 . S
H130 C162 0.929 1_554 S
H131 C164 0.930 . S
H132 C165 0.930 . S
H133 C163 0.929 . S
H134 C166 0.928 . S
O135 Co119 2.057 . S
O135 C123 1.232 . S
H136 C155 0.929 . S
H137 C156 0.929 . S
H138 C168 0.931 . S
H139 C160 0.929 . S
H140 C169 0.930 . S
H141 C161 0.931 . S
O142 Co118 2.097 . S
O142 C170 1.214 . S
H143 C171 0.929 . S
H144 C172 0.929 . S
H145 C173 0.930 . S
H146 C174 0.929 . S
H147 C176 0.930 . S
H148 C153 0.930 . S
H149 C157 0.930 . S
O150 Co119 2.037 . S
O150 C170 1.234 . S
C151 O125 1.269 . S
C151 O126 1.257 . S
C152 H127 0.930 . S
C152 C155 1.388 . S
C152 C157 1.418 . S
C153 H148 0.930 . S
C153 C156 1.404 . S
C153 C157 1.353 . S
N154 Co119 2.145 . S
N154 C155 1.397 . S
N154 C156 1.334 . S
C155 H136 0.929 . S
C155 C152 1.388 . S
C155 N154 1.397 . S
C156 H137 0.929 . S
C156 C153 1.404 . S
C156 N154 1.334 . S
C157 H149 0.930 . S
C157 C152 1.418 . S
C157 C153 1.353 . S
C158 H128 0.930 . S
C158 N159 1.330 . S
C158 C160 1.446 . S
N159 Co118 2.151 . S
N159 C158 1.330 . S
N159 C163 1.418 . S
C160 H139 0.929 . S
C160 C158 1.446 . S
C160 C161 1.332 1_556 S
C161 H141 0.931 . S
C161 C160 1.332 1_554 S
C161 C162 1.267 1_554 S
C162 H130 0.929 1_556 S
C162 C161 1.267 1_556 S
C162 C163 1.251 . S
C163 H133 0.929 . S
C163 N159 1.418 . S
C163 C162 1.251 . S
C164 H131 0.930 . S
C164 C166 1.406 . S
C164 C169 1.261 . S
C165 H132 0.930 . S
C165 N167 1.325 . S
C165 C168 1.357 . S
C166 H134 0.928 . S
C166 C164 1.406 . S
C166 N167 1.261 1_554 S
N167 Co118 2.214 . S
N167 C165 1.325 . S
N167 C166 1.261 1_556 S
C168 H138 0.931 . S
C168 C165 1.357 . S
C168 C169 1.312 1_556 S
C169 H140 0.930 . S
C169 C164 1.261 . S
C169 C168 1.312 1_554 S
C170 O142 1.214 . S
C170 O150 1.234 . S
C171 H143 0.929 . S
C171 C174 1.391 . S
C171 C176 1.391 . S
C172 H144 0.929 . S
C172 C173 1.390 . S
C172 N175 1.391 . S
C173 H145 0.930 . S
C173 C172 1.390 . S
C173 C174 1.392 . S
C174 H146 0.929 . S
C174 C171 1.391 . S
C174 C173 1.392 . S
N175 Co119 2.257 . S
N175 C172 1.391 . S
N175 C176 1.388 . S
C176 H147 0.930 . S
C176 C171 1.391 . S
C176 N175 1.388 . S
Co177 O179 2.143 . S
Co177 O185 2.074 . S
Co177 O188 2.093 . S
Co177 O201 2.097 . S
Co177 N218 2.151 . S
Co177 N226 2.214 . S
Co178 O179 2.160 . S
Co178 O184 2.058 . S
Co178 O194 2.057 . S
Co178 O209 2.037 . S
Co178 N213 2.145 . S
Co178 N234 2.257 . S
O179 Co177 2.143 . S
O179 Co178 2.160 . S
C180 O181 1.278 . S
C180 O188 1.224 . S
O181 C180 1.278 . S
C182 O183 1.245 . S
C182 O194 1.232 . S
O183 C182 1.245 . S
O184 Co178 2.058 . S
O184 C210 1.269 . S
O185 Co177 2.074 . S
O185 C210 1.257 . S
H186 C211 0.930 . S
H187 C217 0.930 . S
O188 Co177 2.093 . S
O188 C180 1.224 . S
H189 C221 0.929 . S
H190 C223 0.930 . S
H191 C224 0.930 . S
H192 C222 0.929 . S
H193 C225 0.928 . S
O194 Co178 2.057 . S
O194 C182 1.232 . S
H195 C214 0.929 . S
H196 C215 0.929 . S
H197 C227 0.931 . S
H198 C219 0.929 . S
H199 C228 0.930 . S
H200 C220 0.931 . S
O201 Co177 2.097 . S
O201 C229 1.214 . S
H202 C230 0.929 . S
H203 C231 0.929 . S
H204 C232 0.930 . S
H205 C233 0.929 . S
H206 C235 0.930 . S
H207 C212 0.930 . S
H208 C216 0.930 . S
O209 Co178 2.037 . S
O209 C229 1.234 . S
C210 O184 1.269 . S
C210 O185 1.257 . S
C211 H186 0.930 . S
C211 C214 1.388 1_554 S
C211 C216 1.418 . S
C212 H207 0.930 . S
C212 C215 1.404 . S
C212 C216 1.353 . S
N213 Co178 2.145 . S
N213 C214 1.397 . S
N213 C215 1.334 1_556 S
C214 H195 0.929 . S
C214 C211 1.388 1_556 S
C214 N213 1.397 . S
C215 H196 0.929 . S
C215 C212 1.404 . S
C215 N213 1.334 1_554 S
C216 H208 0.930 . S
C216 C211 1.418 . S
C216 C212 1.353 . S
C217 H187 0.930 . S
C217 N218 1.330 . S
C217 C219 1.446 . S
N218 Co177 2.151 . S
N218 C217 1.330 . S
N218 C222 1.418 . S
C219 H198 0.929 . S
C219 C217 1.446 . S
C219 C220 1.332 . S
C220 H200 0.931 . S
C220 C219 1.332 . S
C220 C221 1.267 . S
C221 H189 0.929 . S
C221 C220 1.267 . S
C221 C222 1.251 . S
C222 H192 0.929 . S
C222 N218 1.418 . S
C222 C221 1.251 . S
C223 H190 0.930 . S
C223 C225 1.406 . S
C223 C228 1.261 . S
C224 H191 0.930 . S
C224 N226 1.325 . S
C224 C227 1.357 . S
C225 H193 0.928 . S
C225 C223 1.406 . S
C225 N226 1.261 . S
N226 Co177 2.214 . S
N226 C224 1.325 . S
N226 C225 1.261 . S
C227 H197 0.931 . S
C227 C224 1.357 . S
C227 C228 1.312 . S
C228 H199 0.930 . S
C228 C223 1.261 . S
C228 C227 1.312 . S
C229 O201 1.214 . S
C229 O209 1.234 . S
C230 H202 0.929 . S
C230 C233 1.391 . S
C230 C235 1.391 . S
C231 H203 0.929 . S
C231 C232 1.390 . S
C231 N234 1.391 . S
C232 H204 0.930 . S
C232 C231 1.390 . S
C232 C233 1.392 . S
C233 H205 0.929 . S
C233 C230 1.391 . S
C233 C232 1.392 . S
N234 Co178 2.257 . S
N234 C231 1.391 . S
N234 C235 1.388 . S
C235 H206 0.930 . S
C235 C230 1.391 . S
C235 N234 1.388 . S
C236 C237 1.391 . S
C236 C238 1.394 . S
C236 H252 0.931 . S
C237 C236 1.391 . S
C237 C241 1.376 . S
C238 C236 1.394 . S
C238 C239 1.369 . S
C238 C242 1.531 . S
C239 C238 1.369 . S
C239 C240 1.410 1_565 S
C239 C247 1.503 1_565 S
C240 C239 1.410 1_545 S
C240 C241 1.392 1_545 S
C240 C243 1.511 . S
C241 C237 1.376 . S
C241 C240 1.392 1_565 S
C241 H253 0.929 . S
C242 C238 1.531 . S
C242 H254 0.960 . S
C242 H255 0.962 . S
C242 H256 0.960 . S
C243 C240 1.511 . S
C243 H257 0.961 . S
C243 H258 0.961 . S
C243 H259 0.961 . S
C244 C245 1.370 . S
C244 C246 1.363 . S
C244 H260 0.931 . S
C245 C244 1.370 . S
C245 C249 1.408 . S
C246 C244 1.363 . S
C246 C247 1.370 . S
C246 C250 1.524 . S
C247 C239 1.503 1_545 S
C247 C246 1.370 . S
C247 C248 1.403 . S
C248 C247 1.403 . S
C248 C249 1.404 . S
C248 C251 1.539 . S
C249 C245 1.408 . S
C249 C248 1.404 . S
C249 H261 0.930 . S
C250 C246 1.524 . S
C250 H262 0.956 1_545 S
C250 H263 0.961 . S
C250 H264 0.961 . S
C251 C248 1.539 . S
C251 H265 0.958 . S
C251 H266 0.961 . S
C251 H267 0.960 . S
H252 C236 0.931 . S
H253 C241 0.929 . S
H254 C242 0.960 . S
H255 C242 0.962 . S
H256 C242 0.960 . S
H257 C243 0.961 . S
H258 C243 0.961 . S
H259 C243 0.961 . S
H260 C244 0.931 . S
H261 C249 0.930 . S
H262 C250 0.956 1_565 S
H263 C250 0.961 . S
H264 C250 0.961 . S
H265 C251 0.958 . S
H266 C251 0.961 . S
H267 C251 0.960 . S
C268 C269 1.391 . S
C268 C270 1.394 . S
C268 H284 0.931 . S
C269 C268 1.391 . S
C269 C273 1.376 . S
C270 C268 1.394 . S
C270 C271 1.369 . S
C270 C274 1.531 . S
C271 C270 1.369 . S
C271 C272 1.410 . S
C271 C279 1.503 . S
C272 C271 1.410 . S
C272 C273 1.392 . S
C272 C275 1.511 . S
C273 C269 1.376 . S
C273 C272 1.392 . S
C273 H285 0.929 . S
C274 C270 1.531 . S
C274 H286 0.960 . S
C274 H287 0.962 . S
C274 H288 0.960 . S
C275 C272 1.511 . S
C275 H289 0.961 . S
C275 H290 0.961 . S
C275 H291 0.961 . S
C276 C277 1.370 . S
C276 C278 1.363 . S
C276 H292 0.931 . S
C277 C276 1.370 . S
C277 C281 1.408 . S
C278 C276 1.363 . S
C278 C279 1.370 . S
C278 C282 1.524 . S
C279 C271 1.503 . S
C279 C278 1.370 . S
C279 C280 1.403 . S
C280 C279 1.403 . S
C280 C281 1.404 . S
C280 C283 1.539 . S
C281 C277 1.408 . S
C281 C280 1.404 . S
C281 H293 0.930 . S
C282 C278 1.524 . S
C282 H294 0.956 . S
C282 H295 0.961 . S
C282 H296 0.961 . S
C283 C280 1.539 . S
C283 H297 0.958 . S
C283 H298 0.961 . S
C283 H299 0.960 . S
H284 C268 0.931 . S
H285 C273 0.929 . S
H286 C274 0.960 . S
H287 C274 0.962 . S
H288 C274 0.960 . S
H289 C275 0.961 . S
H290 C275 0.961 . S
H291 C275 0.961 . S
H292 C276 0.931 . S
H293 C281 0.930 . S
H294 C282 0.956 . S
H295 C282 0.961 . S
H296 C282 0.961 . S
H297 C283 0.958 . S
H298 C283 0.961 . S
H299 C283 0.960 . S
C300 C301 1.391 . S
C300 C302 1.394 . S
C300 H316 0.931 . S
C301 C300 1.391 . S
C301 C305 1.376 . S
C302 C300 1.394 . S
C302 C303 1.369 . S
C302 C306 1.531 . S
C303 C302 1.369 . S
C303 C304 1.410 1_545 S
C303 C311 1.503 1_545 S
C304 C303 1.410 1_565 S
C304 C305 1.392 1_565 S
C304 C307 1.511 . S
C305 C301 1.376 . S
C305 C304 1.392 1_545 S
C305 H317 0.929 . S
C306 C302 1.531 . S
C306 H318 0.960 . S
C306 H319 0.962 . S
C306 H320 0.960 . S
C307 C304 1.511 . S
C307 H321 0.961 . S
C307 H322 0.961 . S
C307 H323 0.961 . S
C308 C309 1.370 . S
C308 C310 1.363 . S
C308 H324 0.931 . S
C309 C308 1.370 . S
C309 C313 1.408 . S
C310 C308 1.363 . S
C310 C311 1.370 . S
C310 C314 1.524 . S
C311 C303 1.503 1_565 S
C311 C310 1.370 . S
C311 C312 1.403 . S
C312 C311 1.403 . S
C312 C313 1.404 . S
C312 C315 1.539 . S
C313 C309 1.408 . S
C313 C312 1.404 . S
C313 H325 0.930 . S
C314 C310 1.524 . S
C314 H326 0.956 1_565 S
C314 H327 0.961 . S
C314 H328 0.961 . S
C315 C312 1.539 . S
C315 H329 0.958 1_565 S
C315 H330 0.961 . S
C315 H331 0.960 . S
H316 C300 0.931 . S
H317 C305 0.929 . S
H318 C306 0.960 . S
H319 C306 0.962 . S
H320 C306 0.960 . S
H321 C307 0.961 . S
H322 C307 0.961 . S
H323 C307 0.961 . S
H324 C308 0.931 . S
H325 C313 0.930 . S
H326 C314 0.956 1_545 S
H327 C314 0.961 . S
H328 C314 0.961 . S
H329 C315 0.958 1_545 S
H330 C315 0.961 . S
H331 C315 0.960 . S
C332 C333 1.391 . S
C332 C334 1.394 . S
C332 H348 0.931 . S
C333 C332 1.391 . S
C333 C337 1.376 . S
C334 C332 1.394 . S
C334 C335 1.369 . S
C334 C338 1.531 . S
C335 C334 1.369 . S
C335 C336 1.410 . S
C335 C343 1.503 . S
C336 C335 1.410 . S
C336 C337 1.392 . S
C336 C339 1.511 . S
C337 C333 1.376 . S
C337 C336 1.392 . S
C337 H349 0.929 . S
C338 C334 1.531 . S
C338 H350 0.960 . S
C338 H351 0.962 . S
C338 H352 0.960 . S
C339 C336 1.511 . S
C339 H353 0.961 . S
C339 H354 0.961 . S
C339 H355 0.961 . S
C340 C341 1.370 . S
C340 C342 1.363 . S
C340 H356 0.931 . S
C341 C340 1.370 . S
C341 C345 1.408 . S
C342 C340 1.363 . S
C342 C343 1.370 . S
C342 C346 1.524 . S
C343 C335 1.503 . S
C343 C342 1.370 . S
C343 C344 1.403 . S
C344 C343 1.403 . S
C344 C345 1.404 . S
C344 C347 1.539 . S
C345 C341 1.408 . S
C345 C344 1.404 . S
C345 H357 0.930 . S
C346 C342 1.524 . S
C346 H358 0.956 . S
C346 H359 0.961 . S
C346 H360 0.961 . S
C347 C344 1.539 . S
C347 H361 0.958 . S
C347 H362 0.961 . S
C347 H363 0.960 . S
H348 C332 0.931 . S
H349 C337 0.929 . S
H350 C338 0.960 . S
H351 C338 0.962 . S
H352 C338 0.960 . S
H353 C339 0.961 . S
H354 C339 0.961 . S
H355 C339 0.961 . S
H356 C340 0.931 . S
H357 C345 0.930 . S
H358 C346 0.956 . S
H359 C346 0.961 . S
H360 C346 0.961 . S
H361 C347 0.958 . S
H362 C347 0.961 . S
H363 C347 0.960 . S
C364 C365 1.391 . S
C364 C366 1.394 1_455 S
C364 H380 0.931 . S
C365 C364 1.391 . S
C365 C369 1.376 . S
C366 C364 1.394 1_655 S
C366 C367 1.369 1_655 S
C366 C370 1.531 . S
C367 C366 1.369 1_455 S
C367 C368 1.410 1_554 S
C367 C375 1.503 1_444 S
C368 C367 1.410 1_556 S
C368 C369 1.392 1_556 S
C368 C371 1.511 . S
C369 C365 1.376 . S
C369 C368 1.392 1_554 S
C369 H381 0.929 . S
C370 C366 1.531 . S
C370 H382 0.960 . S
C370 H383 0.962 . S
C370 H384 0.960 . S
C371 C368 1.511 . S
C371 H385 0.961 . S
C371 H386 0.961 1_545 S
C371 H387 0.961 . S
C372 C373 1.370 . S
C372 C374 1.363 . S
C372 H388 0.931 . S
C373 C372 1.370 . S
C373 C377 1.408 . S
C374 C372 1.363 . S
C374 C375 1.370 . S
C374 C378 1.524 1_656 S
C375 C367 1.503 1_666 S
C375 C374 1.370 . S
C375 C376 1.403 1_565 S
C376 C375 1.403 1_545 S
C376 C377 1.404 1_545 S
C376 C379 1.539 . S
C377 C373 1.408 . S
C377 C376 1.404 1_565 S
C377 H389 0.930 . S
C378 C374 1.524 1_454 S
C378 H390 0.956 . S
C378 H391 0.961 . S
C378 H392 0.961 . S
C379 C376 1.539 . S
C379 H393 0.958 . S
C379 H394 0.961 . S
C379 H395 0.960 . S
H380 C364 0.931 . S
H381 C369 0.929 . S
H382 C370 0.960 . S
H383 C370 0.962 . S
H384 C370 0.960 . S
H385 C371 0.961 . S
H386 C371 0.961 1_565 S
H387 C371 0.961 . S
H388 C372 0.931 . S
H389 C377 0.930 . S
H390 C378 0.956 . S
H391 C378 0.961 . S
H392 C378 0.961 . S
H393 C379 0.958 . S
H394 C379 0.961 . S
H395 C379 0.960 . S
C396 C397 1.391 . S
C396 C398 1.394 . S
C396 H412 0.931 . S
C397 C396 1.391 . S
C397 C401 1.376 . S
C398 C396 1.394 . S
C398 C399 1.369 . S
C398 C402 1.531 1_556 S
C399 C398 1.369 . S
C399 C400 1.410 1_545 S
C399 C407 1.503 1_546 S
C400 C399 1.410 1_565 S
C400 C401 1.392 1_565 S
C400 C403 1.511 . S
C401 C397 1.376 . S
C401 C400 1.392 1_545 S
C401 H413 0.929 . S
C402 C398 1.531 1_554 S
C402 H414 0.960 . S
C402 H415 0.962 . S
C402 H416 0.960 1_554 S
C403 C400 1.511 . S
C403 H417 0.961 . S
C403 H418 0.961 . S
C403 H419 0.961 . S
C404 C405 1.370 . S
C404 C406 1.363 . S
C404 H420 0.931 . S
C405 C404 1.370 . S
C405 C409 1.408 . S
C406 C404 1.363 . S
C406 C407 1.370 . S
C406 C410 1.524 . S
C407 C399 1.503 1_564 S
C407 C406 1.370 . S
C407 C408 1.403 1_554 S
C408 C407 1.403 1_556 S
C408 C409 1.404 1_556 S
C408 C411 1.539 . S
C409 C405 1.408 . S
C409 C408 1.404 1_554 S
C409 H421 0.926 1_554 S
C410 C406 1.524 . S
C410 H422 0.956 1_565 S
C410 H423 0.961 . S
C410 H424 0.961 . S
C411 C408 1.539 . S
C411 H425 0.958 . S
C411 H426 0.961 . S
C411 H427 0.960 . S
H412 C396 0.931 . S
H413 C401 0.929 . S
H414 C402 0.960 . S
H415 C402 0.962 . S
H416 C402 0.960 1_556 S
H417 C403 0.961 . S
H418 C403 0.961 . S
H419 C403 0.961 . S
H420 C404 0.931 . S
H421 C409 0.926 1_556 S
H422 C410 0.956 1_545 S
H423 C410 0.961 . S
H424 C410 0.961 . S
H425 C411 0.958 . S
H426 C411 0.961 . S
H427 C411 0.960 . S
C428 C429 1.391 . S
C428 C430 1.394 . S
C428 H444 0.931 . S
C429 C428 1.391 . S
C429 C433 1.376 . S
C430 C428 1.394 . S
C430 C431 1.369 . S
C430 C434 1.531 . S
C431 C430 1.369 . S
C431 C432 1.410 1_655 S
C431 C439 1.503 1_655 S
C432 C431 1.410 1_455 S
C432 C433 1.392 1_455 S
C432 C435 1.511 . S
C433 C429 1.376 . S
C433 C432 1.392 1_655 S
C433 H445 0.929 . S
C434 C430 1.531 . S
C434 H446 0.960 . S
C434 H447 0.962 . S
C434 H448 0.960 . S
C435 C432 1.511 . S
C435 H449 0.961 . S
C435 H450 0.961 . S
C435 H451 0.961 . S
C436 C437 1.370 . S
C436 C438 1.363 . S
C436 H452 0.931 . S
C437 C436 1.370 . S
C437 C441 1.408 . S
C438 C436 1.363 . S
C438 C439 1.370 . S
C438 C442 1.524 1_455 S
C439 C431 1.503 1_455 S
C439 C438 1.370 . S
C439 C440 1.403 . S
C440 C439 1.403 . S
C440 C441 1.404 . S
C440 C443 1.539 . S
C441 C437 1.408 . S
C441 C440 1.404 . S
C441 H453 0.930 . S
C442 C438 1.524 1_655 S
C442 H454 0.956 . S
C442 H455 0.961 . S
C442 H456 0.961 . S
C443 C440 1.539 . S
C443 H457 0.958 . S
C443 H458 0.961 . S
C443 H459 0.960 . S
H444 C428 0.931 . S
H445 C433 0.929 . S
H446 C434 0.960 . S
H447 C434 0.962 . S
H448 C434 0.960 . S
H449 C435 0.961 . S
H450 C435 0.961 . S
H451 C435 0.961 . S
H452 C436 0.931 . S
H453 C441 0.930 . S
H454 C442 0.956 . S
H455 C442 0.961 . S
H456 C442 0.961 . S
H457 C443 0.958 . S
H458 C443 0.961 . S
H459 C443 0.960 . S
C460 C461 1.391 . S
C460 C462 1.394 . S
C460 H476 0.931 . S
C461 C460 1.391 . S
C461 C465 1.376 . S
C462 C460 1.394 . S
C462 C463 1.369 . S
C462 C466 1.531 . S
C463 C462 1.369 . S
C463 C464 1.410 . S
C463 C471 1.503 . S
C464 C463 1.410 . S
C464 C465 1.392 . S
C464 C467 1.511 . S
C465 C461 1.376 . S
C465 C464 1.392 . S
C465 H477 0.929 . S
C466 C462 1.531 . S
C466 H478 0.960 . S
C466 H479 0.962 . S
C466 H480 0.960 . S
C467 C464 1.511 . S
C467 H481 0.961 . S
C467 H482 0.961 . S
C467 H483 0.961 . S
C468 C469 1.370 . S
C468 C470 1.363 . S
C468 H484 0.931 . S
C469 C468 1.370 . S
C469 C473 1.408 . S
C470 C468 1.363 . S
C470 C471 1.370 . S
C470 C474 1.524 . S
C471 C463 1.503 . S
C471 C470 1.370 . S
C471 C472 1.403 . S
C472 C471 1.403 . S
C472 C473 1.404 . S
C472 C475 1.539 . S
C473 C469 1.408 . S
C473 C472 1.404 . S
C473 H485 0.930 . S
C474 C470 1.524 . S
C474 H486 0.956 . S
C474 H487 0.961 . S
C474 H488 0.961 . S
C475 C472 1.539 . S
C475 H489 0.958 . S
C475 H490 0.961 . S
C475 H491 0.960 . S
H476 C460 0.931 . S
H477 C465 0.929 . S
H478 C466 0.960 . S
H479 C466 0.962 . S
H480 C466 0.960 . S
H481 C467 0.961 . S
H482 C467 0.961 . S
H483 C467 0.961 . S
H484 C468 0.931 . S
H485 C473 0.930 . S
H486 C474 0.956 . S
H487 C474 0.961 . S
H488 C474 0.961 . S
H489 C475 0.958 . S
H490 C475 0.961 . S
H491 C475 0.960 . S
C237 C92 1.320 . S
C245 C52 1.320 . S
C269 C33 1.321 . S
C277 C111 1.320 . S
C301 C210 1.303 . S
C309 C170 1.316 . S
C333 C151 1.317 . S
C341 C229 1.321 . S
C365 C3 1.498 . S
C373 C121 1.478 . S
C397 C182 1.488 . S
C405 C64 1.498 . S
C429 C123 1.503 . S
C437 C5 1.491 . S
C461 C62 1.496 . S
C469 C180 1.478 . S
