# Generated by pormake.
# Topology fnt, (5)-cn, num edge types: 1
# Building blocks:
#     Node 0, Type 0, BuildingBlock: XOMCOT_clean_sbu_1, # of connection points: 5
#     Node 1, Type 0, BuildingBlock: XOMCOT_clean_sbu_1, # of connection points: 5
#     Node 2, Type 0, BuildingBlock: XOMCOT_clean_sbu_1, # of connection points: 5
#     Node 3, Type 0, BuildingBlock: XOMCOT_clean_sbu_1, # of connection points: 5
#     Node 4, Type 0, BuildingBlock: XOMCOT_clean_sbu_1, # of connection points: 5
#     Node 5, Type 0, BuildingBlock: XOMCOT_clean_sbu_1, # of connection points: 5
#     Edge 6, Type (0, 0), BuildingBlock: XIVTED_clean_linker_0, # of connection points: 2
#     Edge 7, Type (0, 0), BuildingBlock: XIVTED_clean_linker_0, # of connection points: 2
#     Edge 8, Type (0, 0), BuildingBlock: XIVTED_clean_linker_0, # of connection points: 2
#     Edge 9, Type (0, 0), BuildingBlock: XIVTED_clean_linker_0, # of connection points: 2
#     Edge 10, Type (0, 0), BuildingBlock: XIVTED_clean_linker_0, # of connection points: 2
#     Edge 11, Type (0, 0), BuildingBlock: XIVTED_clean_linker_0, # of connection points: 2
#     Edge 12, Type (0, 0), BuildingBlock: XIVTED_clean_linker_0, # of connection points: 2
#     Edge 13, Type (0, 0), BuildingBlock: XIVTED_clean_linker_0, # of connection points: 2
#     Edge 14, Type (0, 0), BuildingBlock: XIVTED_clean_linker_0, # of connection points: 2
#     Edge 15, Type (0, 0), BuildingBlock: XIVTED_clean_linker_0, # of connection points: 2
#     Edge 16, Type (0, 0), BuildingBlock: XIVTED_clean_linker_0, # of connection points: 2
#     Edge 17, Type (0, 0), BuildingBlock: XIVTED_clean_linker_0, # of connection points: 2
#     Edge 18, Type (0, 0), BuildingBlock: XIVTED_clean_linker_0, # of connection points: 2
#     Edge 19, Type (0, 0), BuildingBlock: XIVTED_clean_linker_0, # of connection points: 2
#     Edge 20, Type (0, 0), BuildingBlock: XIVTED_clean_linker_0, # of connection points: 2
# Relax obj value: 0.137
# Max RMSD: 0.168
# Mean RMSD: 0.168
data_MOF--net-fnt--node1-XOMCOT_clean_sbu_1--edge1-XIVTED_clean_linker_0
_symmetry_space_group_name_H-M    P1
_symmetry_Int_Tables_number       1
_symmetry_cell_setting            triclinic
loop_
_symmetry_equiv_pos_as_xyz
'x, y, z'
_cell_length_a     27.729155
_cell_length_b     27.546175
_cell_length_c     47.368975
_cell_angle_alpha  90.080484
_cell_angle_beta   90.087268
_cell_angle_gamma 119.73566
loop_
_atom_site_label
_atom_site_type_symbol
_atom_site_fract_x
_atom_site_fract_y
_atom_site_fract_z
_atom_type_partial_charge
C0 C 0.19257 0.37726 0.08552 0.0
C1 C 0.18083 0.3746 0.11392 0.0
N2 N 0.14802 0.32052 0.12106 0.0
N3 N 0.16741 0.32515 0.07469 0.0
C4 C 0.14169 0.29148 0.09696 0.0
H5 H 0.21444 0.41496 0.07311 0.0
Co6 Co 0.15837 0.30862 1.03603 0.0
C7 C 0.08137 0.18915 1.03214 0.0
O8 O 0.05432 0.20153 1.01335 0.0
N9 N 0.14999 0.29194 0.99644 0.0
C10 C 0.12737 0.28105 0.95074 0.0
C11 C 0.11979 0.29984 0.97634 0.0
C12 C 0.1754 0.26812 0.98222 0.0
N13 N 0.16256 0.26125 0.95443 0.0
O14 O 0.23246 0.3207 1.03499 0.0
H15 H 0.09317 0.31748 0.97962 0.0
H16 H 0.20257 0.25548 0.99218 0.0
O17 O 0.12538 0.22809 0.04377 0.0
C18 C 0.2612 0.36968 1.02455 0.0
O19 O 0.23496 0.39464 1.01448 0.0
N20 N 0.09052 0.3073 1.03815 0.0
C21 C 0.0293 0.35315 0.0601 0.0
C22 C 0.01574 0.29853 0.06727 0.0
C23 C 0.04738 0.27622 0.05612 0.0
C24 C 0.10071 0.35859 1.02947 0.0
C25 C 0.06996 0.3818 1.0397 0.0
H26 H 0.04122 0.23736 0.06474 0.0
H27 H 0.13689 0.38435 1.01681 0.0
H28 H 0.11557 0.2467 0.09512 0.0
H29 H 0.19193 0.4101 0.12762 0.0
H30 H 0.10925 0.28302 0.93082 0.0
H31 H 0.98471 0.27552 0.0832 0.0
H32 H 0.08109 0.4239 1.03344 0.0
C33 C 0.83103 0.22946 0.42369 0.0
C34 C 0.82326 0.21698 0.45207 0.0
N35 N 0.83973 0.17946 0.4578 0.0
N36 N 0.85254 0.20021 0.41151 0.0
C37 C 0.85817 0.17087 0.43288 0.0
H38 H 0.81842 0.25537 0.41233 0.0
Co39 Co 0.85758 0.1924 0.37257 0.0
C40 C 0.90905 0.12256 0.36539 0.0
O41 O 0.87194 0.09568 0.3456 0.0
N42 N 0.86279 0.18532 0.33266 0.0
C43 C 0.84455 0.16533 0.28697 0.0
C44 C 0.82182 0.15974 0.3133 0.0
C45 C 0.91017 0.20699 0.3172 0.0
N46 N 0.9002 0.19491 0.28936 0.0
O47 O 0.91616 0.26845 0.37084 0.0
H48 H 0.77789 0.13825 0.31752 0.0
H49 H 0.95128 0.23027 0.32635 0.0
O50 O 0.90905 0.16316 0.37865 0.0
C51 C 0.89302 0.29498 0.36082 0.0
O52 O 0.84146 0.26623 0.35187 0.0
N53 N 0.79439 0.12204 0.37524 0.0
C54 C 0.68776 0.0396 0.38897 0.0
C55 C 0.73275 0.0317 0.39494 0.0
C56 C 0.78643 0.07437 0.38839 0.0
C57 C 0.75045 0.12965 0.36969 0.0
C58 C 0.69679 0.08868 0.37589 0.0
H59 H 0.82091 0.07042 0.39592 0.0
H60 H 0.75746 0.16914 0.36143 0.0
H61 H 0.87295 0.14158 0.42993 0.0
H62 H 0.80346 0.23157 0.46682 0.0
H63 H 0.82159 0.14948 0.26746 0.0
H64 H 0.72674 -0.0054 0.40588 0.0
H65 H 0.66267 0.0962 0.37148 0.0
C66 C 0.63333 0.8319 0.75544 0.0
C67 C 0.62822 0.81629 0.78342 0.0
N68 N 0.67932 0.84064 0.7951 0.0
N69 N 0.68744 0.8659 0.74939 0.0
C70 C 0.71416 0.87156 0.77418 0.0
H71 H 0.60014 0.81637 0.74002 0.0
Co72 Co 0.71782 0.88963 0.713 0.0
C73 C 0.8288 0.90211 0.73041 0.0
O74 O 0.8143 0.85093 0.72286 0.0
N75 N 0.75086 0.91558 0.67653 0.0
C76 C 0.80271 0.92637 0.63859 0.0
C77 C 0.78707 0.90219 0.66464 0.0
C78 C 0.74594 0.94904 0.657 0.0
N79 N 0.77681 0.9558 0.63365 0.0
O80 O 0.7172 0.95793 0.71963 0.0
H81 H 0.80036 0.87501 0.67384 0.0
H82 H 0.71955 0.96732 0.65943 0.0
O83 O 0.79475 0.92068 0.72775 0.0
C84 C 0.66859 0.94269 0.70981 0.0
O85 O 0.64166 0.89395 0.69698 0.0
N86 N 0.70551 0.81672 0.70524 0.0
C87 C 0.64156 0.70154 0.69653 0.0
C88 C 0.67364 0.72268 0.72105 0.0
C89 C 0.7046 0.78035 0.72522 0.0
C90 C 0.67609 0.79606 0.68074 0.0
C91 C 0.64499 0.73895 0.67572 0.0
H92 H 0.72427 0.79516 0.7455 0.0
H93 H 0.67144 0.82331 0.66601 0.0
H94 H 0.75876 0.89507 0.77652 0.0
H95 H 0.59029 0.78602 0.7937 0.0
H96 H 0.83119 0.9226 0.62435 0.0
H97 H 0.67181 0.69497 0.73774 0.0
H98 H 0.61944 0.72449 0.65689 0.0
C99 C 0.72516 0.62197 0.11127 0.0
C100 C 0.74184 0.63131 0.13909 0.0
N101 N 0.78803 0.68181 0.14113 0.0
N102 N 0.76033 0.66644 0.09568 0.0
C103 C 0.79768 0.70252 0.11457 0.0
H104 H 0.69189 0.5834 0.10277 0.0
Co105 Co 0.76375 0.66813 0.05604 0.0
C106 C 0.85897 0.77742 0.04232 0.0
O107 O 0.87478 0.75195 1.02419 0.0
N108 N 0.76661 0.66996 1.01564 0.0
C109 C 0.77921 0.65922 0.97005 0.0
C110 C 0.78321 0.64372 0.99713 0.0
C111 C 0.75223 0.70082 0.99891 0.0
N112 N 0.7597 0.69517 0.97115 0.0
O113 O 0.69957 0.677 0.05458 0.0
H114 H 0.79837 0.61566 1.00244 0.0
H115 H 0.73794 0.72823 1.00702 0.0
O116 O 0.81474 0.74902 0.0568 0.0
C117 C 0.66082 0.62637 0.05168 0.0
O118 O 0.67407 0.587 0.04918 0.0
N119 N 0.82023 0.65015 0.05884 0.0
C120 C 0.87362 0.59292 0.07725 0.0
C121 C 0.89893 0.65113 0.08071 0.0
C122 C 0.87111 0.6791 0.07162 0.0
C123 C 0.79605 0.5939 0.05506 0.0
C124 C 0.82236 0.5648 0.06341 0.0
H125 H 0.88875 0.72273 0.0769 0.0
H126 H 0.75466 0.57078 0.04641 0.0
H127 H 0.83328 0.7419 0.10871 0.0
H128 H 0.72378 0.60128 0.15603 0.0
H129 H 0.78962 0.64478 0.95097 0.0
H130 H 0.93827 0.67428 0.09166 0.0
H131 H 0.80173 0.52014 0.05964 0.0
C132 C 0.09395 0.74543 0.43981 0.0
C133 C 0.10719 0.7613 0.46759 0.0
N134 N 0.1223 0.81575 0.46987 0.0
N135 N 0.09998 0.78943 0.42461 0.0
C136 C 0.11713 0.83164 0.44357 0.0
H137 H 0.08375 0.70523 0.43104 0.0
Co138 Co 0.09586 0.7918 0.38523 0.0
C139 C 0.09241 0.8947 0.37279 0.0
O140 O 0.12767 0.90495 0.35209 0.0
N141 N 0.09111 0.79354 0.34506 0.0
C142 C 0.10663 0.79705 0.29877 0.0
C143 C 0.12902 0.8009 0.32514 0.0
C144 C 0.04584 0.78492 0.33 0.0
N145 N 0.05418 0.78689 0.30179 0.0
O146 O 0.01933 0.73428 0.38656 0.0
H147 H 0.17038 0.80817 0.32904 0.0
H148 H 0.00749 0.77767 0.33964 0.0
O149 O 0.07657 0.85114 0.38809 0.0
C150 C 0.02198 0.69065 0.38011 0.0
O151 O 0.07032 0.69596 0.37362 0.0
N152 N 0.17226 0.84061 0.38482 0.0
C153 C 0.28637 0.88511 0.3898 0.0
C154 C 0.26239 0.91889 0.39464 0.0
C155 C 0.20463 0.89551 0.39234 0.0
C156 C 0.19528 0.80739 0.38138 0.0
C157 C 0.25192 0.82873 0.38332 0.0
H158 H 0.18646 0.92093 0.39781 0.0
H159 H 0.16918 0.76338 0.37727 0.0
H160 H 0.12771 0.87384 0.43803 0.0
H161 H 0.1091 0.73572 0.48441 0.0
H162 H 0.12712 0.80006 0.2789 0.0
H163 H 0.28782 0.96245 0.40048 0.0
H164 H 0.26842 0.80067 0.38054 0.0
C165 C 0.4005 0.21051 0.75765 0.0
C166 C 0.39065 0.22334 0.78426 0.0
N167 N 0.3401 0.18292 0.79252 0.0
N168 N 0.35663 0.16189 0.74909 0.0
C169 C 0.32028 0.14602 0.77083 0.0
H170 H 0.43663 0.23608 0.74487 0.0
Co171 Co 0.35149 0.13124 0.71296 0.0
C172 C 0.23235 0.08831 0.70148 0.0
O173 O 0.24654 0.11613 0.67757 0.0
N174 N 0.34886 0.10004 0.67674 0.0
C175 C 0.38324 0.08361 0.63762 0.0
C176 C 0.39597 0.11164 0.66293 0.0
C177 C 0.30796 0.06133 0.66 0.0
N178 N 0.32771 0.05216 0.63568 0.0
O179 O 0.36292 0.07363 0.72877 0.0
H180 H 0.43743 0.13917 0.67082 0.0
H181 H 0.26451 0.03927 0.66538 0.0
O182 O 0.26968 0.08707 0.717 0.0
C183 C 0.41497 0.09569 0.73377 0.0
O184 O 0.44693 0.14947 0.72934 0.0
N185 N 0.34777 0.19262 0.69748 0.0
C186 C 0.36865 0.2998 0.68395 0.0
C187 C 0.32545 0.26617 0.7024 0.0
C188 C 0.31618 0.21298 0.70921 0.0
C189 C 0.38817 0.22419 0.67852 0.0
C190 C 0.39855 0.27724 0.67105 0.0
H191 H 0.28612 0.18985 0.72542 0.0
H192 H 0.41654 0.21124 0.67102 0.0
H193 H 0.27968 0.10892 0.77057 0.0
H194 H 0.41755 0.26092 0.79606 0.0
H195 H 0.41265 0.0857 0.62199 0.0
H196 H 0.30178 0.28232 0.71306 0.0
H197 H 0.43371 0.30238 0.65754 0.0
H198 H 0.32773 0.36662 0.06678 0.0
H199 H 0.59948 0.63864 1.01039 0.0
H200 H 0.33158 0.45257 0.99007 0.0
H201 H 0.58853 0.5664 0.0923 0.0
H202 H 0.49981 0.57438 1.00344 0.0
H203 H 0.42443 0.43862 0.07611 0.0
C204 C 0.34942 0.39979 0.05158 0.0
C205 C 0.32196 0.40359 1.02757 0.0
C206 C 0.51883 0.57354 1.02328 0.0
C207 C 0.43141 0.48682 1.03842 0.0
C208 C 0.57538 0.61109 1.02744 0.0
C209 C 0.60157 0.60834 0.05216 0.0
C210 C 0.48897 0.53257 0.04382 0.0
C211 C 0.56927 0.5703 0.07317 0.0
C212 C 0.40418 0.44144 0.05712 0.0
C213 C 0.35143 0.44815 1.00884 0.0
N214 N 0.51481 0.5333 0.06839 0.0
N215 N 0.40442 0.48808 1.01468 0.0
H216 H 0.95247 0.36399 0.40473 0.0
H217 H 0.9545 0.62994 0.33742 0.0
H218 H 0.88273 0.3623 0.32311 0.0
H219 H -0.00814 0.62133 0.42485 0.0
H220 H 0.92088 0.52984 0.33268 0.0
H221 H 0.96898 0.45941 0.41238 0.0
C222 C 0.94228 0.38442 0.38812 0.0
C223 C 0.91702 0.35587 0.36311 0.0
C224 C 0.93484 0.54933 0.35318 0.0
C225 C 0.93345 0.46338 0.37203 0.0
C226 C 0.9526 0.6062 0.35603 0.0
C227 C 0.97539 0.63359 0.38161 0.0
C228 C 0.941 0.52019 0.37598 0.0
C229 C 0.974 0.60143 0.40484 0.0
C230 C 0.95048 0.43825 0.3927 0.0
C231 C 0.90283 0.38331 0.34258 0.0
N232 N 0.95853 0.54663 0.40134 0.0
N233 N 0.91114 0.43542 0.34749 0.0
H234 H 0.50234 0.12144 0.76828 0.0
H235 H 0.59234 0.9421 0.67457 0.0
H236 H 0.39484 -0.00079 0.70728 0.0
H237 H 0.67335 0.01078 0.75422 0.0
H238 H 0.52536 0.97219 0.68472 0.0
H239 H 0.56738 0.08584 0.76411 0.0
C240 C 0.49159 0.08575 0.75473 0.0
C241 C 0.443 0.0628 0.73825 0.0
C242 C 0.55781 0.98102 0.70001 0.0
C243 C 0.51826 0.02376 0.73245 0.0
C244 C 0.59661 0.96452 0.69408 0.0
C245 C 0.63849 0.97392 0.71362 0.0
C246 C 0.56077 0.0077 0.72565 0.0
C247 C 0.64207 0.00329 0.73847 0.0
C248 C 0.52898 0.06591 0.75217 0.0
C249 C 0.43137 0.01742 0.72067 0.0
N250 N 0.60341 0.01908 0.74388 0.0
N251 N 0.46929 4e-05 0.71784 0.0
H252 H 0.57036 0.63671 0.73773 0.0
H253 H 0.40915 0.36948 0.6381 0.0
H254 H 0.61164 0.63258 0.65024 0.0
H255 H 0.38216 0.36946 0.72785 0.0
H256 H 0.47141 0.47063 0.64016 0.0
H257 H 0.49252 0.54198 0.73298 0.0
C258 C 0.56361 0.61548 0.71763 0.0
C259 C 0.59803 0.64219 0.69445 0.0
C260 C 0.451 0.44855 0.65928 0.0
C261 C 0.5079 0.53436 0.68861 0.0
C262 C 0.41524 0.39097 0.65809 0.0
C263 C 0.39121 0.36092 0.68291 0.0
C264 C 0.46269 0.47599 0.68549 0.0
C265 C 0.39971 0.39081 0.70816 0.0
C266 C 0.51862 0.5617 0.71481 0.0
C267 C 0.58615 0.61337 0.66865 0.0
N268 N 0.43554 0.44661 0.70889 0.0
N269 N 0.5421 0.56086 0.66644 0.0
H270 H 0.82221 0.49027 0.10271 0.0
H271 H 0.08766 0.45451 0.08515 0.0
H272 H 0.98349 0.62143 0.07605 0.0
H273 H 0.92013 0.32137 0.07039 0.0
H274 H 0.05144 0.51447 0.10128 0.0
H275 H 0.86103 0.4286 0.1097 0.0
C276 C 0.86598 0.50638 0.09867 0.0
C277 C 0.89934 0.56045 0.08775 0.0
C278 C 0.02262 0.4718 0.09505 0.0
C279 C 0.94388 0.49071 0.09661 0.0
C280 C 0.0431 0.4377 0.08577 0.0
C281 C 0.00665 0.38375 0.07558 0.0
C282 C 0.96534 0.45162 0.09425 0.0
C283 C 0.94942 0.36312 0.07765 0.0
C284 C 0.88798 0.47124 0.10288 0.0
C285 C 0.95614 0.57989 0.08411 0.0
N286 N 0.93035 0.39762 0.08631 0.0
N287 N 0.97652 0.54465 0.08811 0.0
H288 H 0.35707 0.95075 0.43178 0.0
H289 H 0.61585 0.9427 0.36288 0.0
H290 H 0.35173 0.86596 0.35415 0.0
H291 H 0.63104 0.04995 0.4326 0.0
H292 H 0.51464 0.89718 0.36666 0.0
H293 H 0.45479 0.97621 0.43769 0.0
C294 C 0.37669 0.9381 0.41587 0.0
C295 C 0.34657 0.9064 0.39243 0.0
C296 C 0.54003 0.92974 0.38162 0.0
C297 C 0.45704 0.93369 0.39939 0.0
C298 C 0.5976 0.95491 0.37971 0.0
C299 C 0.631 -0.00034 0.3975 0.0
C300 C 0.51637 0.95033 0.40118 0.0
C301 C 0.606 0.01518 0.41865 0.0
C302 C 0.43204 0.95187 0.41943 0.0
C303 C 0.37345 0.8901 0.37266 0.0
N304 N 0.54992 0.99116 0.41963 0.0
N305 N 0.4271 0.90389 0.3766 0.0
H306 H 0.12729 0.12134 1.0372 0.0
H307 H 0.8329 0.84976 0.06923 0.0
H308 H 0.97515 0.12529 0.04869 0.0
H309 H 0.96671 0.84351 1.02607 0.0
H310 H 0.8918 0.95151 0.0736 0.0
H311 H 0.07579 0.01952 0.0453 0.0
C312 C 0.08342 0.10089 0.04214 0.0
C313 C 0.0551 0.13113 0.04217 0.0
C314 C 0.90828 0.92764 0.06338 0.0
C315 C -0.00363 0.01592 0.05136 0.0
C316 C 0.87473 0.86969 0.06089 0.0
C317 C 0.89461 0.83827 0.04687 0.0
C318 C 0.96225 0.95416 0.05213 0.0
C319 C 0.94935 0.86621 1.03664 0.0
C320 C 0.05402 0.043 0.04653 0.0
C321 C -0.00181 0.10301 0.04832 0.0
N322 N 0.9812 0.92256 1.03938 0.0
N323 N 0.9706 0.04695 0.05257 0.0
H324 H 0.13608 0.00177 0.35363 0.0
H325 H 0.86812 0.01972 0.38784 0.0
H326 H 0.00213 0.8779 0.40407 0.0
H327 H 0.02178 0.16537 0.36437 0.0
H328 H 0.91794 0.96896 0.39618 0.0
H329 H 0.09722 0.06379 0.35884 0.0
C330 C 0.09866 0.98773 0.36598 0.0
C331 C 0.07185 0.93422 0.37813 0.0
C332 C 0.94118 0.01236 0.38982 0.0
C333 C 0.02707 0.00508 0.38405 0.0
C334 C 0.91277 0.04145 0.38518 0.0
C335 C 0.94117 0.09691 0.37575 0.0
C336 C -0.00176 0.03833 0.38409 0.0
C337 C -0.00127 0.12281 0.37199 0.0
C338 C 0.07673 0.02337 0.36909 0.0
C339 C 0.02393 0.91862 0.39419 0.0
N340 N 0.02538 0.09293 0.37571 0.0
N341 N 0.00261 0.95357 0.39633 0.0
H342 H 0.17787 0.01187 0.74398 0.0
H343 H 0.89268 0.01275 0.71655 0.0
H344 H 0.15565 0.11429 0.68224 0.0
H345 H 0.90021 0.87608 0.75649 0.0
H346 H -0.00549 0.06519 0.71515 0.0
H347 H 0.08064 0.97456 0.75863 0.0
C348 C 0.1527 0.02657 0.7336 0.0
C349 C 0.17455 0.06534 0.71148 0.0
C350 C 0.97383 0.02415 0.72475 0.0
C351 C 0.06437 0.02418 0.7285 0.0
C352 C 0.91579 -0.00543 0.72585 0.0
C353 C 0.88821 0.93992 0.73639 0.0
C354 C 0.00417 -0.00111 0.73443 0.0
C355 C 0.9201 0.91799 0.74789 0.0
C356 C 0.09743 0.0055 0.742 0.0
C357 C 0.14033 0.08358 0.69898 0.0
N358 N 0.97641 0.94725 0.74632 0.0
N359 N 0.08708 0.0628 0.70761 0.0
H360 H 0.11201 0.20895 0.90556 0.0
H361 H 0.38648 0.2239 0.84353 0.0
H362 H 0.26306 0.26652 0.95356 0.0
H363 H 0.22963 0.14461 0.79946 0.0
H364 H 0.3406 0.23563 0.88485 0.0
H365 H 0.15261 0.18135 0.8673 0.0
C366 C 0.15367 0.21565 0.90809 0.0
C367 C 0.18431 0.24054 0.93276 0.0
C368 C 0.31598 0.21515 0.86628 0.0
C369 C 0.23113 0.20889 0.88898 0.0
C370 C 0.34222 0.20861 0.84265 0.0
C371 C 0.31192 0.18364 0.81795 0.0
C372 C 0.25894 0.19719 0.8652 0.0
C373 C 0.2545 0.16385 0.81811 0.0
C374 C 0.17673 0.19957 0.88629 0.0
C375 C 0.23778 0.24725 0.93505 0.0
N376 N 0.22998 0.17164 0.84124 0.0
N377 N 0.25964 0.23206 0.91335 0.0
H378 H 0.17465 0.36922 0.17318 0.0
H379 H 0.88651 0.13813 0.24053 0.0
H380 H 0.0495 0.22432 0.12865 0.0
H381 H 0.0044 0.28561 0.28596 0.0
H382 H 0.95004 0.16648 0.20072 0.0
H383 H 0.11732 0.337 0.21581 0.0
C384 C 0.13539 0.33056 0.17232 0.0
C385 C 0.11716 0.29963 0.14708 0.0
C386 C 0.96229 0.19273 0.21937 0.0
C387 C 0.05133 0.26235 0.19596 0.0
C388 C 0.92577 0.17665 0.24214 0.0
C389 C 0.93969 0.20986 0.26658 0.0
C390 C 0.01343 0.24266 0.22081 0.0
C391 C -0.00806 0.25866 0.2676 0.0
C392 C 0.10273 0.31212 0.19673 0.0
C393 C 0.06605 0.24943 0.14748 0.0
N394 N 0.02676 0.27383 0.24495 0.0
N395 N 0.03503 0.23266 0.1714 0.0
H396 H 0.8278 0.21037 0.51098 0.0
H397 H 0.79268 0.92995 0.5807 0.0
H398 H 0.83035 0.07681 0.46441 0.0
H399 H 0.77138 0.05162 0.62817 0.0
H400 H 0.80773 0.98499 0.53816 0.0
H401 H 0.80876 0.15514 0.55422 0.0
C402 C 0.82441 0.16957 0.50975 0.0
C403 C 0.83106 0.14861 0.48381 0.0
C404 C 0.79965 -0.00017 0.55779 0.0
C405 C 0.80943 0.08517 0.53342 0.0
C406 C 0.79126 0.96843 0.58218 0.0
C407 C 0.78129 0.98644 0.60814 0.0
C408 C 0.79844 0.05013 0.55915 0.0
C409 C 0.77875 0.03613 0.60859 0.0
C410 C 0.8136 0.13808 0.5345 0.0
C411 C 0.82668 0.09553 0.48376 0.0
N412 N 0.7877 0.06651 0.58448 0.0
N413 N 0.8162 0.06587 0.50808 0.0
H414 H 0.77502 0.84124 0.80857 0.0
H415 H 0.68035 0.72547 0.96584 0.0
H416 H 0.61759 0.80749 0.84323 0.0
H417 H 0.81697 0.72639 0.92206 0.0
H418 H 0.66219 0.76662 0.92389 0.0
H419 H 0.79674 0.81131 0.85281 0.0
C420 C 0.74527 0.82841 0.82561 0.0
C421 C 0.69432 0.82711 0.82206 0.0
C422 C 0.69623 0.75794 0.92355 0.0
C423 C 0.7188 0.7916 0.87299 0.0
C424 C 0.70679 0.7348 0.94752 0.0
C425 C 0.75001 0.7221 0.94738 0.0
C426 C 0.72959 0.76913 0.89941 0.0
C427 C 0.78272 0.73464 0.92298 0.0
C428 C 0.75753 0.81072 0.85086 0.0
C429 C 0.65712 0.80878 0.84491 0.0
N430 N 0.77188 0.7574 0.90008 0.0
N431 N 0.67003 0.79169 0.86937 0.0
H432 H 0.76069 0.65919 0.19659 0.0
H433 H 0.07773 0.82694 0.24825 0.0
H434 H 0.89993 0.75318 0.14121 0.0
H435 H 0.94108 0.7259 0.30378 0.0
H436 H 0.01203 0.80609 0.20964 0.0
H437 H 0.8247 0.68891 0.23679 0.0
C438 C 0.80461 0.68627 0.19284 0.0
C439 C 0.82469 0.70344 0.16532 0.0
C440 C -0.00373 0.7886 0.23028 0.0
C441 C 0.89841 0.73787 0.2114 0.0
C442 C 0.03389 0.80029 0.25237 0.0
C443 C 0.01512 0.77777 0.27935 0.0
C444 C 0.93915 0.75393 0.23502 0.0
C445 C 0.95754 0.74448 0.28344 0.0
C446 C 0.84115 0.70335 0.21585 0.0
C447 C 0.88212 0.73924 0.16192 0.0
N448 N 0.92167 0.73329 0.26149 0.0
N449 N 0.91682 0.7549 0.1846 0.0
H450 H 0.35626 0.07183 0.58057 0.0
H451 H 0.09923 0.78692 0.52498 0.0
H452 H 0.22737 0.95623 0.63609 0.0
H453 H 0.20335 0.92477 0.4705 0.0
H454 H 0.14741 0.8453 0.56612 0.0
H455 H 0.3034 0.01525 0.54015 0.0
C456 C 0.31695 0.03428 0.58428 0.0
C457 C 0.29641 0.0186 0.6118 0.0
C458 C 0.15936 0.86289 0.54517 0.0
C459 C 0.23525 0.95357 0.56546 0.0
C460 C 0.13202 0.82955 0.5217 0.0
C461 C 0.14721 0.851 0.49426 0.0
C462 C 0.20285 0.91786 0.54117 0.0
C463 C 0.18978 0.90668 0.49123 0.0
C464 C 0.28652 0.00223 0.56115 0.0
C465 C 0.24463 0.97003 0.61525 0.0
N466 N 0.21638 0.93795 0.51435 0.0
N467 N 0.216 0.93899 0.59237 0.0
loop_
_geom_bond_atom_site_label_1
_geom_bond_atom_site_label_2
_geom_bond_distance
_geom_bond_site_symmetry_2
_ccdc_geom_bond_type
C0 C1 1.351 . S
C0 N3 1.368 . S
C0 H5 0.931 . S
C1 C0 1.351 . S
C1 N2 1.373 . S
C1 H29 0.930 . S
N2 C1 1.373 . S
N2 C4 1.340 . S
N3 C0 1.368 . S
N3 C4 1.321 . S
N3 Co6 2.135 . S
C4 N2 1.340 . S
C4 N3 1.321 . S
C4 H28 0.930 . S
H5 C0 0.931 . S
Co6 N3 2.135 . S
Co6 N9 2.121 1_554 S
Co6 O14 2.055 . S
Co6 O17 2.039 . S
Co6 N20 2.140 . S
C7 O8 1.227 . S
C7 O17 1.265 . S
O8 C7 1.227 . S
N9 Co6 2.121 1_556 S
N9 C11 1.375 . S
N9 C12 1.313 . S
C10 C11 1.338 . S
C10 N13 1.377 . S
C10 H30 0.930 . S
C11 N9 1.375 . S
C11 C10 1.338 . S
C11 H15 0.931 . S
C12 N9 1.313 . S
C12 N13 1.344 . S
C12 H16 0.930 . S
N13 C10 1.377 . S
N13 C12 1.344 . S
O14 Co6 2.055 . S
O14 C18 1.253 . S
H15 C11 0.931 . S
H16 C12 0.930 . S
O17 Co6 2.039 . S
O17 C7 1.265 . S
C18 O14 1.253 . S
C18 O19 1.227 . S
O19 C18 1.227 . S
N20 Co6 2.140 . S
N20 C23 1.346 . S
N20 C24 1.345 1_554 S
C21 C22 1.387 1_556 S
C21 C25 1.391 . S
C22 C21 1.387 1_554 S
C22 C23 1.369 . S
C22 H31 0.929 . S
C23 N20 1.346 . S
C23 C22 1.369 . S
C23 H26 0.928 . S
C24 N20 1.345 1_556 S
C24 C25 1.371 . S
C24 H27 0.931 . S
C25 C21 1.391 . S
C25 C24 1.371 . S
C25 H32 0.930 . S
H26 C23 0.928 . S
H27 C24 0.931 . S
H28 C4 0.930 . S
H29 C1 0.930 . S
H30 C10 0.930 . S
H31 C22 0.929 . S
H32 C25 0.930 . S
C33 C34 1.351 . S
C33 N36 1.368 . S
C33 H38 0.931 . S
C34 C33 1.351 . S
C34 N35 1.373 . S
C34 H62 0.930 . S
N35 C34 1.373 . S
N35 C37 1.340 . S
N36 C33 1.368 . S
N36 C37 1.321 . S
N36 Co39 2.135 . S
C37 N35 1.340 . S
C37 N36 1.321 . S
C37 H61 0.930 . S
H38 C33 0.931 . S
Co39 N36 2.135 . S
Co39 N42 2.121 . S
Co39 O47 2.055 . S
Co39 O50 2.039 . S
Co39 N53 2.140 . S
C40 O41 1.227 . S
C40 O50 1.265 . S
O41 C40 1.227 . S
N42 Co39 2.121 . S
N42 C44 1.375 . S
N42 C45 1.313 . S
C43 C44 1.338 . S
C43 N46 1.377 . S
C43 H63 0.930 . S
C44 N42 1.375 . S
C44 C43 1.338 . S
C44 H48 0.931 . S
C45 N42 1.313 . S
C45 N46 1.344 . S
C45 H49 0.930 . S
N46 C43 1.377 . S
N46 C45 1.344 . S
O47 Co39 2.055 . S
O47 C51 1.253 . S
H48 C44 0.931 . S
H49 C45 0.930 . S
O50 Co39 2.039 . S
O50 C40 1.265 . S
C51 O47 1.253 . S
C51 O52 1.227 . S
O52 C51 1.227 . S
N53 Co39 2.140 . S
N53 C56 1.346 . S
N53 C57 1.345 . S
C54 C55 1.387 . S
C54 C58 1.391 . S
C55 C54 1.387 . S
C55 C56 1.369 . S
C55 H64 0.929 . S
C56 N53 1.346 . S
C56 C55 1.369 . S
C56 H59 0.928 . S
C57 N53 1.345 . S
C57 C58 1.371 . S
C57 H60 0.931 . S
C58 C54 1.391 . S
C58 C57 1.371 . S
C58 H65 0.930 . S
H59 C56 0.928 . S
H60 C57 0.931 . S
H61 C37 0.930 . S
H62 C34 0.930 . S
H63 C43 0.930 . S
H64 C55 0.929 . S
H65 C58 0.930 . S
C66 C67 1.351 . S
C66 N69 1.368 . S
C66 H71 0.931 . S
C67 C66 1.351 . S
C67 N68 1.373 . S
C67 H95 0.930 . S
N68 C67 1.373 . S
N68 C70 1.340 . S
N69 C66 1.368 . S
N69 C70 1.321 . S
N69 Co72 2.135 . S
C70 N68 1.340 . S
C70 N69 1.321 . S
C70 H94 0.930 . S
H71 C66 0.931 . S
Co72 N69 2.135 . S
Co72 N75 2.121 . S
Co72 O80 2.055 . S
Co72 O83 2.039 . S
Co72 N86 2.140 . S
C73 O74 1.227 . S
C73 O83 1.265 . S
O74 C73 1.227 . S
N75 Co72 2.121 . S
N75 C77 1.375 . S
N75 C78 1.313 . S
C76 C77 1.338 . S
C76 N79 1.377 . S
C76 H96 0.930 . S
C77 N75 1.375 . S
C77 C76 1.338 . S
C77 H81 0.931 . S
C78 N75 1.313 . S
C78 N79 1.344 . S
C78 H82 0.930 . S
N79 C76 1.377 . S
N79 C78 1.344 . S
O80 Co72 2.055 . S
O80 C84 1.253 . S
H81 C77 0.931 . S
H82 C78 0.930 . S
O83 Co72 2.039 . S
O83 C73 1.265 . S
C84 O80 1.253 . S
C84 O85 1.227 . S
O85 C84 1.227 . S
N86 Co72 2.140 . S
N86 C89 1.346 . S
N86 C90 1.345 . S
C87 C88 1.387 . S
C87 C91 1.391 . S
C88 C87 1.387 . S
C88 C89 1.369 . S
C88 H97 0.929 . S
C89 N86 1.346 . S
C89 C88 1.369 . S
C89 H92 0.928 . S
C90 N86 1.345 . S
C90 C91 1.371 . S
C90 H93 0.931 . S
C91 C87 1.391 . S
C91 C90 1.371 . S
C91 H98 0.930 . S
H92 C89 0.928 . S
H93 C90 0.931 . S
H94 C70 0.930 . S
H95 C67 0.930 . S
H96 C76 0.930 . S
H97 C88 0.929 . S
H98 C91 0.930 . S
C99 C100 1.351 . S
C99 N102 1.368 . S
C99 H104 0.931 . S
C100 C99 1.351 . S
C100 N101 1.373 . S
C100 H128 0.930 . S
N101 C100 1.373 . S
N101 C103 1.340 . S
N102 C99 1.368 . S
N102 C103 1.321 . S
N102 Co105 2.135 . S
C103 N101 1.340 . S
C103 N102 1.321 . S
C103 H127 0.930 . S
H104 C99 0.931 . S
Co105 N102 2.135 . S
Co105 N108 2.121 1_554 S
Co105 O113 2.055 . S
Co105 O116 2.039 . S
Co105 N119 2.140 . S
C106 O107 1.227 . S
C106 O116 1.265 . S
O107 C106 1.227 . S
N108 Co105 2.121 1_556 S
N108 C110 1.375 . S
N108 C111 1.313 . S
C109 C110 1.338 . S
C109 N112 1.377 . S
C109 H129 0.930 . S
C110 N108 1.375 . S
C110 C109 1.338 . S
C110 H114 0.931 . S
C111 N108 1.313 . S
C111 N112 1.344 . S
C111 H115 0.930 . S
N112 C109 1.377 . S
N112 C111 1.344 . S
O113 Co105 2.055 . S
O113 C117 1.253 . S
H114 C110 0.931 . S
H115 C111 0.930 . S
O116 Co105 2.039 . S
O116 C106 1.265 . S
C117 O113 1.253 . S
C117 O118 1.227 . S
O118 C117 1.227 . S
N119 Co105 2.140 . S
N119 C122 1.346 . S
N119 C123 1.345 1_554 S
C120 C121 1.387 1_556 S
C120 C124 1.391 . S
C121 C120 1.387 1_554 S
C121 C122 1.369 . S
C121 H130 0.929 . S
C122 N119 1.346 . S
C122 C121 1.369 . S
C122 H125 0.928 . S
C123 N119 1.345 1_556 S
C123 C124 1.371 . S
C123 H126 0.931 . S
C124 C120 1.391 . S
C124 C123 1.371 . S
C124 H131 0.930 . S
H125 C122 0.928 . S
H126 C123 0.931 . S
H127 C103 0.930 . S
H128 C100 0.930 . S
H129 C109 0.930 . S
H130 C121 0.929 . S
H131 C124 0.930 . S
C132 C133 1.351 . S
C132 N135 1.368 . S
C132 H137 0.931 . S
C133 C132 1.351 . S
C133 N134 1.373 . S
C133 H161 0.930 . S
N134 C133 1.373 . S
N134 C136 1.340 . S
N135 C132 1.368 . S
N135 C136 1.321 . S
N135 Co138 2.135 . S
C136 N134 1.340 . S
C136 N135 1.321 . S
C136 H160 0.930 . S
H137 C132 0.931 . S
Co138 N135 2.135 . S
Co138 N141 2.121 . S
Co138 O146 2.055 . S
Co138 O149 2.039 . S
Co138 N152 2.140 . S
C139 O140 1.227 . S
C139 O149 1.265 . S
O140 C139 1.227 . S
N141 Co138 2.121 . S
N141 C143 1.375 . S
N141 C144 1.313 . S
C142 C143 1.338 . S
C142 N145 1.377 . S
C142 H162 0.930 . S
C143 N141 1.375 . S
C143 C142 1.338 . S
C143 H147 0.931 . S
C144 N141 1.313 . S
C144 N145 1.344 . S
C144 H148 0.930 . S
N145 C142 1.377 . S
N145 C144 1.344 . S
O146 Co138 2.055 . S
O146 C150 1.253 . S
H147 C143 0.931 . S
H148 C144 0.930 . S
O149 Co138 2.039 . S
O149 C139 1.265 . S
C150 O146 1.253 . S
C150 O151 1.227 . S
O151 C150 1.227 . S
N152 Co138 2.140 . S
N152 C155 1.346 . S
N152 C156 1.345 . S
C153 C154 1.387 . S
C153 C157 1.391 . S
C154 C153 1.387 . S
C154 C155 1.369 . S
C154 H163 0.929 . S
C155 N152 1.346 . S
C155 C154 1.369 . S
C155 H158 0.928 . S
C156 N152 1.345 . S
C156 C157 1.371 . S
C156 H159 0.931 . S
C157 C153 1.391 . S
C157 C156 1.371 . S
C157 H164 0.930 . S
H158 C155 0.928 . S
H159 C156 0.931 . S
H160 C136 0.930 . S
H161 C133 0.930 . S
H162 C142 0.930 . S
H163 C154 0.929 . S
H164 C157 0.930 . S
C165 C166 1.351 . S
C165 N168 1.368 . S
C165 H170 0.931 . S
C166 C165 1.351 . S
C166 N167 1.373 . S
C166 H194 0.930 . S
N167 C166 1.373 . S
N167 C169 1.340 . S
N168 C165 1.368 . S
N168 C169 1.321 . S
N168 Co171 2.135 . S
C169 N167 1.340 . S
C169 N168 1.321 . S
C169 H193 0.930 . S
H170 C165 0.931 . S
Co171 N168 2.135 . S
Co171 N174 2.121 . S
Co171 O179 2.055 . S
Co171 O182 2.039 . S
Co171 N185 2.140 . S
C172 O173 1.227 . S
C172 O182 1.265 . S
O173 C172 1.227 . S
N174 Co171 2.121 . S
N174 C176 1.375 . S
N174 C177 1.313 . S
C175 C176 1.338 . S
C175 N178 1.377 . S
C175 H195 0.930 . S
C176 N174 1.375 . S
C176 C175 1.338 . S
C176 H180 0.931 . S
C177 N174 1.313 . S
C177 N178 1.344 . S
C177 H181 0.930 . S
N178 C175 1.377 . S
N178 C177 1.344 . S
O179 Co171 2.055 . S
O179 C183 1.253 . S
H180 C176 0.931 . S
H181 C177 0.930 . S
O182 Co171 2.039 . S
O182 C172 1.265 . S
C183 O179 1.253 . S
C183 O184 1.227 . S
O184 C183 1.227 . S
N185 Co171 2.140 . S
N185 C188 1.346 . S
N185 C189 1.345 . S
C186 C187 1.387 . S
C186 C190 1.391 . S
C187 C186 1.387 . S
C187 C188 1.369 . S
C187 H196 0.929 . S
C188 N185 1.346 . S
C188 C187 1.369 . S
C188 H191 0.928 . S
C189 N185 1.345 . S
C189 C190 1.371 . S
C189 H192 0.931 . S
C190 C186 1.391 . S
C190 C189 1.371 . S
C190 H197 0.930 . S
H191 C188 0.928 . S
H192 C189 0.931 . S
H193 C169 0.930 . S
H194 C166 0.930 . S
H195 C175 0.930 . S
H196 C187 0.929 . S
H197 C190 0.930 . S
H198 C204 0.930 . S
H199 C208 0.930 . S
H200 C213 0.929 . S
H201 C211 0.929 . S
H202 C206 0.929 . S
H203 C212 0.929 . S
C204 H198 0.930 . S
C204 C205 1.367 . S
C204 C212 1.378 . S
C205 C204 1.367 . S
C205 C213 1.433 1_554 S
C206 H202 0.929 . S
C206 C208 1.378 . S
C206 C210 1.350 1_556 S
C207 C210 1.463 . S
C207 C212 1.350 . S
C207 N215 1.427 1_554 S
C208 H199 0.930 . S
C208 C206 1.378 . S
C208 C209 1.367 1_556 S
C209 C208 1.367 1_554 S
C209 C211 1.433 . S
C210 C206 1.350 1_554 S
C210 C207 1.463 . S
C210 N214 1.427 . S
C211 H201 0.929 . S
C211 C209 1.433 . S
C211 N214 1.384 . S
C212 H203 0.929 . S
C212 C204 1.378 . S
C212 C207 1.350 . S
C213 H200 0.929 . S
C213 C205 1.433 1_556 S
C213 N215 1.384 . S
N214 C210 1.427 . S
N214 C211 1.384 . S
N215 C207 1.427 1_556 S
N215 C213 1.384 . S
H216 C222 0.930 . S
H217 C226 0.930 . S
H218 C231 0.929 . S
H219 C229 0.929 . S
H220 C224 0.929 1_655 S
H221 C230 0.929 1_455 S
C222 H216 0.930 . S
C222 C223 1.367 . S
C222 C230 1.378 . S
C223 C222 1.367 . S
C223 C231 1.433 . S
C224 H220 0.929 1_455 S
C224 C226 1.378 . S
C224 C228 1.350 . S
C225 C228 1.463 1_655 S
C225 C230 1.350 . S
C225 N233 1.427 . S
C226 H217 0.930 . S
C226 C224 1.378 . S
C226 C227 1.367 . S
C227 C226 1.367 . S
C227 C229 1.433 . S
C228 C224 1.350 . S
C228 C225 1.463 1_455 S
C228 N232 1.427 . S
C229 H219 0.929 . S
C229 C227 1.433 . S
C229 N232 1.384 . S
C230 H221 0.929 1_655 S
C230 C222 1.378 . S
C230 C225 1.350 . S
C231 H218 0.929 . S
C231 C223 1.433 . S
C231 N233 1.384 . S
N232 C228 1.427 . S
N232 C229 1.384 . S
N233 C225 1.427 . S
N233 C231 1.384 . S
H234 C240 0.930 . S
H235 C244 0.930 . S
H236 C249 0.929 . S
H237 C247 0.929 . S
H238 C242 0.929 . S
H239 C248 0.929 . S
C240 H234 0.930 . S
C240 C241 1.367 . S
C240 C248 1.378 . S
C241 C240 1.367 . S
C241 C249 1.433 1_545 S
C242 H238 0.929 . S
C242 C244 1.378 . S
C242 C246 1.350 . S
C243 C246 1.463 1_545 S
C243 C248 1.350 . S
C243 N251 1.427 1_545 S
C244 H235 0.930 . S
C244 C242 1.378 . S
C244 C245 1.367 . S
C245 C244 1.367 . S
C245 C247 1.433 1_565 S
C246 C242 1.350 . S
C246 C243 1.463 1_565 S
C246 N250 1.427 1_565 S
C247 H237 0.929 . S
C247 C245 1.433 1_545 S
C247 N250 1.384 . S
C248 H239 0.929 . S
C248 C240 1.378 . S
C248 C243 1.350 . S
C249 H236 0.929 . S
C249 C241 1.433 1_565 S
C249 N251 1.384 . S
N250 C246 1.427 1_545 S
N250 C247 1.384 . S
N251 C243 1.427 1_565 S
N251 C249 1.384 . S
H252 C258 0.930 . S
H253 C262 0.930 . S
H254 C267 0.929 . S
H255 C265 0.929 . S
H256 C260 0.929 . S
H257 C266 0.929 . S
C258 H252 0.930 . S
C258 C259 1.367 . S
C258 C266 1.378 . S
C259 C258 1.367 . S
C259 C267 1.433 . S
C260 H256 0.929 . S
C260 C262 1.378 . S
C260 C264 1.350 . S
C261 C264 1.463 . S
C261 C266 1.350 . S
C261 N269 1.427 . S
C262 H253 0.930 . S
C262 C260 1.378 . S
C262 C263 1.367 . S
C263 C262 1.367 . S
C263 C265 1.433 . S
C264 C260 1.350 . S
C264 C261 1.463 . S
C264 N268 1.427 . S
C265 H255 0.929 . S
C265 C263 1.433 . S
C265 N268 1.384 . S
C266 H257 0.929 . S
C266 C258 1.378 . S
C266 C261 1.350 . S
C267 H254 0.929 . S
C267 C259 1.433 . S
C267 N269 1.384 . S
N268 C264 1.427 . S
N268 C265 1.384 . S
N269 C261 1.427 . S
N269 C267 1.384 . S
H270 C276 0.930 . S
H271 C280 0.930 . S
H272 C285 0.929 . S
H273 C283 0.929 . S
H274 C278 0.929 . S
H275 C284 0.929 . S
C276 H270 0.930 . S
C276 C277 1.367 . S
C276 C284 1.378 . S
C277 C276 1.367 . S
C277 C285 1.433 1_656 S
C278 H274 0.929 . S
C278 C280 1.378 . S
C278 C282 1.350 1_554 S
C279 C282 1.463 1_655 S
C279 C284 1.350 . S
C279 N287 1.427 1_656 S
C280 H271 0.930 . S
C280 C278 1.378 . S
C280 C281 1.367 1_554 S
C281 C280 1.367 1_556 S
C281 C283 1.433 1_455 S
C282 C278 1.350 1_556 S
C282 C279 1.463 1_455 S
C282 N286 1.427 1_455 S
C283 H273 0.929 . S
C283 C281 1.433 1_655 S
C283 N286 1.384 . S
C284 H275 0.929 . S
C284 C276 1.378 . S
C284 C279 1.350 . S
C285 H272 0.929 . S
C285 C277 1.433 1_454 S
C285 N287 1.384 . S
N286 C282 1.427 1_655 S
N286 C283 1.384 . S
N287 C279 1.427 1_454 S
N287 C285 1.384 . S
H288 C294 0.930 . S
H289 C298 0.930 . S
H290 C303 0.929 . S
H291 C301 0.929 . S
H292 C296 0.929 . S
H293 C302 0.929 . S
C294 H288 0.930 . S
C294 C295 1.367 . S
C294 C302 1.378 . S
C295 C294 1.367 . S
C295 C303 1.433 . S
C296 H292 0.929 . S
C296 C298 1.378 . S
C296 C300 1.350 . S
C297 C300 1.463 1_565 S
C297 C302 1.350 . S
C297 N305 1.427 . S
C298 H289 0.930 . S
C298 C296 1.378 . S
C298 C299 1.367 . S
C299 C298 1.367 . S
C299 C301 1.433 . S
C300 C296 1.350 . S
C300 C297 1.463 1_545 S
C300 N304 1.427 . S
C301 H291 0.929 . S
C301 C299 1.433 . S
C301 N304 1.384 . S
C302 H293 0.929 . S
C302 C294 1.378 . S
C302 C297 1.350 . S
C303 H290 0.929 . S
C303 C295 1.433 . S
C303 N305 1.384 . S
N304 C300 1.427 . S
N304 C301 1.384 . S
N305 C297 1.427 . S
N305 C303 1.384 . S
H306 C312 0.930 . S
H307 C316 0.930 . S
H308 C321 0.929 . S
H309 C319 0.929 . S
H310 C314 0.929 . S
H311 C320 0.929 . S
C312 H306 0.930 . S
C312 C313 1.367 1_556 S
C312 C320 1.378 . S
C313 C312 1.367 1_554 S
C313 C321 1.433 . S
C314 H310 0.929 . S
C314 C316 1.378 . S
C314 C318 1.350 . S
C315 C318 1.463 1_445 S
C315 C320 1.350 1_554 S
C315 N323 1.427 . S
C316 H307 0.930 . S
C316 C314 1.378 . S
C316 C317 1.367 . S
C317 C316 1.367 . S
C317 C319 1.433 1_554 S
C318 C314 1.350 . S
C318 C315 1.463 1_665 S
C318 N322 1.427 1_554 S
C319 H309 0.929 . S
C319 C317 1.433 1_556 S
C319 N322 1.384 . S
C320 H311 0.929 . S
C320 C312 1.378 . S
C320 C315 1.350 1_556 S
C321 H308 0.929 . S
C321 C313 1.433 . S
C321 N323 1.384 . S
N322 C318 1.427 1_556 S
N322 C319 1.384 . S
N323 C315 1.427 . S
N323 C321 1.384 . S
H324 C330 0.931 1_545 S
H325 C334 0.931 1_565 S
H326 C339 0.929 . S
H327 C337 0.929 . S
H328 C332 0.929 . S
H329 C338 0.929 . S
C330 H324 0.931 1_565 S
C330 C331 1.367 . S
C330 C338 1.378 1_565 S
C331 C330 1.367 . S
C331 C339 1.433 . S
C332 H328 0.929 . S
C332 C334 1.378 1_565 S
C332 C336 1.350 1_565 S
C333 C336 1.463 1_465 S
C333 C338 1.350 1_565 S
C333 N341 1.427 1_455 S
C334 H325 0.931 1_545 S
C334 C332 1.378 1_545 S
C334 C335 1.367 . S
C335 C334 1.367 . S
C335 C337 1.433 . S
C336 C332 1.350 1_545 S
C336 C333 1.463 1_645 S
C336 N340 1.427 1_655 S
C337 H327 0.929 . S
C337 C335 1.433 . S
C337 N340 1.384 1_655 S
C338 H329 0.929 . S
C338 C330 1.378 1_545 S
C338 C333 1.350 1_545 S
C339 H326 0.929 . S
C339 C331 1.433 . S
C339 N341 1.384 1_455 S
N340 C336 1.427 1_455 S
N340 C337 1.384 1_455 S
N341 C333 1.427 1_655 S
N341 C339 1.384 1_655 S
H342 C348 0.930 . S
H343 C352 0.930 . S
H344 C357 0.929 . S
H345 C355 0.929 . S
H346 C350 0.929 . S
H347 C356 0.929 . S
C348 H342 0.930 . S
C348 C349 1.367 . S
C348 C356 1.378 . S
C349 C348 1.367 . S
C349 C357 1.433 . S
C350 H346 0.929 . S
C350 C352 1.378 . S
C350 C354 1.350 . S
C351 C354 1.463 1_445 S
C351 C356 1.350 . S
C351 N359 1.427 . S
C352 H343 0.930 . S
C352 C350 1.378 . S
C352 C353 1.367 . S
C353 C352 1.367 . S
C353 C355 1.433 . S
C354 C350 1.350 . S
C354 C351 1.463 1_665 S
C354 N358 1.427 . S
C355 H345 0.929 . S
C355 C353 1.433 . S
C355 N358 1.384 . S
C356 H347 0.929 . S
C356 C348 1.378 . S
C356 C351 1.350 . S
C357 H344 0.929 . S
C357 C349 1.433 . S
C357 N359 1.384 . S
N358 C354 1.427 . S
N358 C355 1.384 . S
N359 C351 1.427 . S
N359 C357 1.384 . S
H360 C366 0.930 . S
H361 C370 0.930 . S
H362 C375 0.929 . S
H363 C373 0.929 . S
H364 C368 0.929 . S
H365 C374 0.929 . S
C366 H360 0.930 . S
C366 C367 1.367 . S
C366 C374 1.378 . S
C367 C366 1.367 . S
C367 C375 1.433 . S
C368 H364 0.929 . S
C368 C370 1.378 . S
C368 C372 1.350 . S
C369 C372 1.463 . S
C369 C374 1.350 . S
C369 N377 1.427 . S
C370 H361 0.930 . S
C370 C368 1.378 . S
C370 C371 1.367 . S
C371 C370 1.367 . S
C371 C373 1.433 . S
C372 C368 1.350 . S
C372 C369 1.463 . S
C372 N376 1.427 . S
C373 H363 0.929 . S
C373 C371 1.433 . S
C373 N376 1.384 . S
C374 H365 0.929 . S
C374 C366 1.378 . S
C374 C369 1.350 . S
C375 H362 0.929 . S
C375 C367 1.433 . S
C375 N377 1.384 . S
N376 C372 1.427 . S
N376 C373 1.384 . S
N377 C369 1.427 . S
N377 C375 1.384 . S
H378 C384 0.930 . S
H379 C388 0.930 . S
H380 C393 0.929 . S
H381 C391 0.929 1_455 S
H382 C386 0.929 . S
H383 C392 0.929 . S
C384 H378 0.930 . S
C384 C385 1.367 . S
C384 C392 1.378 . S
C385 C384 1.367 . S
C385 C393 1.433 . S
C386 H382 0.929 . S
C386 C388 1.378 . S
C386 C390 1.350 1_655 S
C387 C390 1.463 . S
C387 C392 1.350 . S
C387 N395 1.427 . S
C388 H379 0.930 . S
C388 C386 1.378 . S
C388 C389 1.367 . S
C389 C388 1.367 . S
C389 C391 1.433 . S
C390 C386 1.350 1_455 S
C390 C387 1.463 . S
C390 N394 1.427 . S
C391 H381 0.929 1_655 S
C391 C389 1.433 . S
C391 N394 1.384 1_655 S
C392 H383 0.929 . S
C392 C384 1.378 . S
C392 C387 1.350 . S
C393 H380 0.929 . S
C393 C385 1.433 . S
C393 N395 1.384 . S
N394 C390 1.427 . S
N394 C391 1.384 1_455 S
N395 C387 1.427 . S
N395 C393 1.384 . S
H396 C402 0.930 . S
H397 C406 0.930 . S
H398 C411 0.929 . S
H399 C409 0.929 1_545 S
H400 C404 0.929 . S
H401 C410 0.929 . S
C402 H396 0.930 . S
C402 C403 1.367 . S
C402 C410 1.378 . S
C403 C402 1.367 . S
C403 C411 1.433 . S
C404 H400 0.929 . S
C404 C406 1.378 . S
C404 C408 1.350 1_565 S
C405 C408 1.463 . S
C405 C410 1.350 . S
C405 N413 1.427 . S
C406 H397 0.930 . S
C406 C404 1.378 . S
C406 C407 1.367 . S
C407 C406 1.367 . S
C407 C409 1.433 . S
C408 C404 1.350 1_545 S
C408 C405 1.463 . S
C408 N412 1.427 . S
C409 H399 0.929 1_565 S
C409 C407 1.433 . S
C409 N412 1.384 1_565 S
C410 H401 0.929 . S
C410 C402 1.378 . S
C410 C405 1.350 . S
C411 H398 0.929 . S
C411 C403 1.433 . S
C411 N413 1.384 . S
N412 C408 1.427 . S
N412 C409 1.384 1_545 S
N413 C405 1.427 . S
N413 C411 1.384 . S
H414 C420 0.930 . S
H415 C424 0.930 . S
H416 C429 0.929 . S
H417 C427 0.929 . S
H418 C422 0.929 . S
H419 C428 0.929 . S
C420 H414 0.930 . S
C420 C421 1.367 . S
C420 C428 1.378 . S
C421 C420 1.367 . S
C421 C429 1.433 . S
C422 H418 0.929 . S
C422 C424 1.378 . S
C422 C426 1.350 . S
C423 C426 1.463 . S
C423 C428 1.350 . S
C423 N431 1.427 . S
C424 H415 0.930 . S
C424 C422 1.378 . S
C424 C425 1.367 . S
C425 C424 1.367 . S
C425 C427 1.433 . S
C426 C422 1.350 . S
C426 C423 1.463 . S
C426 N430 1.427 . S
C427 H417 0.929 . S
C427 C425 1.433 . S
C427 N430 1.384 . S
C428 H419 0.929 . S
C428 C420 1.378 . S
C428 C423 1.350 . S
C429 H416 0.929 . S
C429 C421 1.433 . S
C429 N431 1.384 . S
N430 C426 1.427 . S
N430 C427 1.384 . S
N431 C423 1.427 . S
N431 C429 1.384 . S
H432 C438 0.930 . S
H433 C442 0.930 . S
H434 C447 0.929 . S
H435 C445 0.929 1_655 S
H436 C440 0.929 . S
H437 C446 0.929 . S
C438 H432 0.930 . S
C438 C439 1.367 . S
C438 C446 1.378 . S
C439 C438 1.367 . S
C439 C447 1.433 . S
C440 H436 0.929 . S
C440 C442 1.378 . S
C440 C444 1.350 1_455 S
C441 C444 1.463 . S
C441 C446 1.350 . S
C441 N449 1.427 . S
C442 H433 0.930 . S
C442 C440 1.378 . S
C442 C443 1.367 . S
C443 C442 1.367 . S
C443 C445 1.433 . S
C444 C440 1.350 1_655 S
C444 C441 1.463 . S
C444 N448 1.427 . S
C445 H435 0.929 1_455 S
C445 C443 1.433 . S
C445 N448 1.384 1_455 S
C446 H437 0.929 . S
C446 C438 1.378 . S
C446 C441 1.350 . S
C447 H434 0.929 . S
C447 C439 1.433 . S
C447 N449 1.384 . S
N448 C444 1.427 . S
N448 C445 1.384 1_655 S
N449 C441 1.427 . S
N449 C447 1.384 . S
H450 C456 0.930 . S
H451 C460 0.930 . S
H452 C465 0.929 1_565 S
H453 C463 0.929 . S
H454 C458 0.929 . S
H455 C464 0.929 . S
C456 H450 0.930 . S
C456 C457 1.367 . S
C456 C464 1.378 . S
C457 C456 1.367 . S
C457 C465 1.433 . S
C458 H454 0.929 . S
C458 C460 1.378 . S
C458 C462 1.350 . S
C459 C462 1.463 . S
C459 C464 1.350 1_565 S
C459 N467 1.427 . S
C460 H451 0.930 . S
C460 C458 1.378 . S
C460 C461 1.367 . S
C461 C460 1.367 . S
C461 C463 1.433 . S
C462 C458 1.350 . S
C462 C459 1.463 . S
C462 N466 1.427 . S
C463 H453 0.929 . S
C463 C461 1.433 . S
C463 N466 1.384 . S
C464 H455 0.929 . S
C464 C456 1.378 . S
C464 C459 1.350 1_545 S
C465 H452 0.929 1_545 S
C465 C457 1.433 . S
C465 N467 1.384 1_545 S
N466 C462 1.427 . S
N466 C463 1.384 . S
N467 C459 1.427 . S
N467 C465 1.384 1_565 S
C205 C18 1.654 . S
C209 C117 1.651 . S
C223 C51 1.654 . S
C227 C150 1.651 . S
C241 C183 1.650 . S
C245 C84 1.648 . S
C259 C87 0.931 . S
C263 C186 0.938 . S
C277 C120 0.933 . S
C281 C21 0.930 . S
C295 C153 0.931 . S
C299 C54 0.938 . S
C313 C7 0.728 . S
C317 C106 0.724 . S
C331 C139 0.724 . S
C335 C40 0.726 . S
C349 C172 0.724 . S
C353 C73 0.728 . S
C367 N13 1.645 . S
C371 N167 1.767 . S
C385 N2 1.767 . S
C389 N46 1.648 . S
C403 N35 1.767 . S
C407 N79 1.649 . S
C421 N68 1.772 . S
C425 N112 1.659 . S
C439 N101 1.770 . S
C443 N145 1.660 . S
C457 N178 1.660 . S
C461 N134 1.770 . S
