# Generated by pormake.
# Topology pcl, (4)-cn, num edge types: 1
# Building blocks:
#     Node 0, Type 0, BuildingBlock: KUFVIS_clean_sbu_0, # of connection points: 4
#     Node 1, Type 0, BuildingBlock: KUFVIS_clean_sbu_0, # of connection points: 4
#     Node 2, Type 0, BuildingBlock: KUFVIS_clean_sbu_0, # of connection points: 4
#     Node 3, Type 0, BuildingBlock: KUFVIS_clean_sbu_0, # of connection points: 4
#     Node 4, Type 0, BuildingBlock: KUFVIS_clean_sbu_0, # of connection points: 4
#     Node 5, Type 0, BuildingBlock: KUFVIS_clean_sbu_0, # of connection points: 4
#     Node 6, Type 0, BuildingBlock: KUFVIS_clean_sbu_0, # of connection points: 4
#     Node 7, Type 0, BuildingBlock: KUFVIS_clean_sbu_0, # of connection points: 4
#     Node 8, Type 0, BuildingBlock: KUFVIS_clean_sbu_0, # of connection points: 4
#     Node 9, Type 0, BuildingBlock: KUFVIS_clean_sbu_0, # of connection points: 4
#     Node 10, Type 0, BuildingBlock: KUFVIS_clean_sbu_0, # of connection points: 4
#     Node 11, Type 0, BuildingBlock: KUFVIS_clean_sbu_0, # of connection points: 4
#     Node 12, Type 0, BuildingBlock: KUFVIS_clean_sbu_0, # of connection points: 4
#     Node 13, Type 0, BuildingBlock: KUFVIS_clean_sbu_0, # of connection points: 4
#     Node 14, Type 0, BuildingBlock: KUFVIS_clean_sbu_0, # of connection points: 4
#     Node 15, Type 0, BuildingBlock: KUFVIS_clean_sbu_0, # of connection points: 4
#     Edge 16, Type (0, 0), BuildingBlock: TEMPAE_clean_linker_10, # of connection points: 2
#     Edge 17, Type (0, 0), BuildingBlock: TEMPAE_clean_linker_10, # of connection points: 2
#     Edge 18, Type (0, 0), BuildingBlock: TEMPAE_clean_linker_10, # of connection points: 2
#     Edge 19, Type (0, 0), BuildingBlock: TEMPAE_clean_linker_10, # of connection points: 2
#     Edge 20, Type (0, 0), BuildingBlock: TEMPAE_clean_linker_10, # of connection points: 2
#     Edge 21, Type (0, 0), BuildingBlock: TEMPAE_clean_linker_10, # of connection points: 2
#     Edge 22, Type (0, 0), BuildingBlock: TEMPAE_clean_linker_10, # of connection points: 2
#     Edge 23, Type (0, 0), BuildingBlock: TEMPAE_clean_linker_10, # of connection points: 2
#     Edge 24, Type (0, 0), BuildingBlock: TEMPAE_clean_linker_10, # of connection points: 2
#     Edge 25, Type (0, 0), BuildingBlock: TEMPAE_clean_linker_10, # of connection points: 2
#     Edge 26, Type (0, 0), BuildingBlock: TEMPAE_clean_linker_10, # of connection points: 2
#     Edge 27, Type (0, 0), BuildingBlock: TEMPAE_clean_linker_10, # of connection points: 2
#     Edge 28, Type (0, 0), BuildingBlock: TEMPAE_clean_linker_10, # of connection points: 2
#     Edge 29, Type (0, 0), BuildingBlock: TEMPAE_clean_linker_10, # of connection points: 2
#     Edge 30, Type (0, 0), BuildingBlock: TEMPAE_clean_linker_10, # of connection points: 2
#     Edge 31, Type (0, 0), BuildingBlock: TEMPAE_clean_linker_10, # of connection points: 2
#     Edge 32, Type (0, 0), BuildingBlock: TEMPAE_clean_linker_10, # of connection points: 2
#     Edge 33, Type (0, 0), BuildingBlock: TEMPAE_clean_linker_10, # of connection points: 2
#     Edge 34, Type (0, 0), BuildingBlock: TEMPAE_clean_linker_10, # of connection points: 2
#     Edge 35, Type (0, 0), BuildingBlock: TEMPAE_clean_linker_10, # of connection points: 2
#     Edge 36, Type (0, 0), BuildingBlock: TEMPAE_clean_linker_10, # of connection points: 2
#     Edge 37, Type (0, 0), BuildingBlock: TEMPAE_clean_linker_10, # of connection points: 2
#     Edge 38, Type (0, 0), BuildingBlock: TEMPAE_clean_linker_10, # of connection points: 2
#     Edge 39, Type (0, 0), BuildingBlock: TEMPAE_clean_linker_10, # of connection points: 2
#     Edge 40, Type (0, 0), BuildingBlock: TEMPAE_clean_linker_10, # of connection points: 2
#     Edge 41, Type (0, 0), BuildingBlock: TEMPAE_clean_linker_10, # of connection points: 2
#     Edge 42, Type (0, 0), BuildingBlock: TEMPAE_clean_linker_10, # of connection points: 2
#     Edge 43, Type (0, 0), BuildingBlock: TEMPAE_clean_linker_10, # of connection points: 2
#     Edge 44, Type (0, 0), BuildingBlock: TEMPAE_clean_linker_10, # of connection points: 2
#     Edge 45, Type (0, 0), BuildingBlock: TEMPAE_clean_linker_10, # of connection points: 2
#     Edge 46, Type (0, 0), BuildingBlock: TEMPAE_clean_linker_10, # of connection points: 2
#     Edge 47, Type (0, 0), BuildingBlock: TEMPAE_clean_linker_10, # of connection points: 2
# Relax obj value: 0.079
# Max RMSD: 0.060
# Mean RMSD: 0.059
data_MOF--net-pcl--node1-KUFVIS_clean_sbu_0--edge1-TEMPAE_clean_linker_10
_symmetry_space_group_name_H-M    P1
_symmetry_Int_Tables_number       1
_symmetry_cell_setting            triclinic
loop_
_symmetry_equiv_pos_as_xyz
'x, y, z'
_cell_length_a     52.950571
_cell_length_b     42.829654
_cell_length_c     42.496394
_cell_angle_alpha  89.984334
_cell_angle_beta   90.005042
_cell_angle_gamma 90.015036
loop_
_atom_site_label
_atom_site_type_symbol
_atom_site_fract_x
_atom_site_fract_y
_atom_site_fract_z
_atom_type_partial_charge
Mn0 Mn 0.15911 0.34081 0.07571 0.0
Mn1 Mn 0.21406 0.36605 0.10571 0.0
C2 C 0.17348 0.32062 0.12374 0.0
C3 C 0.11526 0.34665 0.07184 0.0
C4 C 0.2103 0.32257 0.04927 0.0
O5 O 0.16551 0.3817 0.05203 0.0
O6 O 0.19927 0.39934 0.07895 0.0
C7 C 0.19644 0.41754 0.14671 0.0
N8 N 0.20898 0.39002 0.14308 0.0
C9 C 0.22415 0.39177 0.19639 0.0
C10 C 0.2115 0.42023 0.2007 0.0
C11 C 0.19733 0.43296 0.17586 0.0
C12 C 0.2219 0.37701 0.16715 0.0
H13 H 0.18601 0.42774 0.12743 0.0
C14 C 0.18159 0.40299 0.05869 0.0
O15 O 0.12794 0.33197 0.05023 0.0
O16 O 0.12811 0.35858 0.09476 0.0
N17 N 0.23007 0.33615 0.13256 0.0
C18 C 0.2403 0.30795 0.12494 0.0
C19 C 0.25397 0.29127 0.14773 0.0
C20 C 0.25739 0.30402 0.1779 0.0
C21 C 0.24692 0.33323 0.18507 0.0
C22 C 0.23308 0.34849 0.16159 0.0
H23 H 0.23818 0.29833 0.10162 0.0
O24 O 0.1576 0.30528 0.10634 0.0
O25 O 0.18093 0.34684 0.11154 0.0
O26 O 0.18649 0.31821 0.05028 0.0
O27 O 0.22196 0.34125 0.06763 0.0
C28 C 0.24991 0.34796 0.21447 0.0
C29 C 0.23883 0.37741 0.21998 0.0
H30 H 0.21238 0.43237 0.22304 0.0
H31 H 0.18741 0.45483 0.17905 0.0
H32 H 0.26209 0.26881 0.14197 0.0
H33 H 0.26816 0.29122 0.19532 0.0
H34 H 0.26069 0.33685 0.23302 0.0
H35 H 0.24113 0.38843 0.24274 0.0
Mn36 Mn 0.85877 0.67696 0.57822 0.0
Mn37 Mn 0.804 0.65159 0.60862 0.0
C38 C 0.84439 0.69759 0.62597 0.0
C39 C 0.90256 0.67175 0.57402 0.0
C40 C 0.80747 0.69453 0.55174 0.0
O41 O 0.85269 0.63568 0.55518 0.0
O42 O 0.81897 0.61815 0.58225 0.0
C43 C 0.82139 0.60027 0.64999 0.0
N44 N 0.80902 0.62788 0.64618 0.0
C45 C 0.79279 0.62578 0.69898 0.0
C46 C 0.80523 0.59722 0.70345 0.0
C47 C 0.81987 0.58462 0.67898 0.0
C48 C 0.79568 0.64078 0.66995 0.0
H49 H 0.8321 0.59011 0.63094 0.0
C50 C 0.83676 0.61433 0.56218 0.0
O51 O 0.88961 0.68593 0.55232 0.0
O52 O 0.89001 0.65994 0.59729 0.0
N53 N 0.78784 0.68161 0.63518 0.0
C54 C 0.77762 0.70975 0.62733 0.0
C55 C 0.76363 0.72638 0.64985 0.0
C56 C 0.75982 0.7136 0.67993 0.0
C57 C 0.77024 0.6844 0.68731 0.0
C58 C 0.78453 0.66928 0.66416 0.0
H59 H 0.77998 0.71937 0.60404 0.0
O60 O 0.86008 0.7129 0.60828 0.0
O61 O 0.8371 0.67108 0.61426 0.0
O62 O 0.83125 0.69895 0.55259 0.0
O63 O 0.79593 0.67601 0.57037 0.0
C64 C 0.76666 0.66947 0.71651 0.0
C65 C 0.77759 0.63995 0.72216 0.0
H66 H 0.80376 0.58486 0.72561 0.0
H67 H 0.82959 0.56263 0.68228 0.0
H68 H 0.75553 0.74882 0.64391 0.0
H69 H 0.74874 0.7263 0.6971 0.0
H70 H 0.75549 0.68044 0.73477 0.0
H71 H 0.77478 0.62875 0.74475 0.0
Mn72 Mn 0.15944 0.67245 0.92658 0.0
Mn73 Mn 0.2156 0.64669 0.89974 0.0
C74 C 0.1745 0.68929 0.87807 0.0
C75 C 0.11557 0.6663 0.93003 0.0
C76 C 0.21029 0.69456 0.95213 0.0
O77 O 0.16596 0.63327 0.95305 0.0
O78 O 0.20165 0.61587 0.92997 0.0
C79 C 0.20007 0.58998 0.86481 0.0
N80 N 0.21146 0.61851 0.86525 0.0
C81 C 0.22408 0.61336 0.81111 0.0
C82 C 0.21256 0.58389 0.8101 0.0
C83 C 0.20039 0.57224 0.83703 0.0
C84 C 0.22309 0.63002 0.83942 0.0
H85 H 0.19079 0.58086 0.88549 0.0
C86 C 0.18324 0.61269 0.94933 0.0
O87 O 0.12794 0.68248 0.9508 0.0
O88 O 0.12873 0.65311 0.90804 0.0
N89 N 0.23037 0.67445 0.86962 0.0
C90 C 0.23846 0.70438 0.87366 0.0
C91 C 0.24967 0.72024 0.84833 0.0
C92 C 0.25263 0.70508 0.81925 0.0
C93 C 0.24414 0.67428 0.81568 0.0
C94 C 0.23294 0.65974 0.84167 0.0
H95 H 0.2363 0.71609 0.89599 0.0
O96 O 0.15797 0.70578 0.89334 0.0
O97 O 0.182 0.66407 0.8922 0.0
O98 O 0.1863 0.69725 0.95118 0.0
O99 O 0.22266 0.67564 0.93481 0.0
C100 C 0.24611 0.65754 0.78726 0.0
C101 C 0.23605 0.62712 0.78495 0.0
H102 H 0.21265 0.5702 0.78867 0.0
H103 H 0.19131 0.5496 0.83638 0.0
H104 H 0.25608 0.74406 0.85123 0.0
H105 H 0.26129 0.71739 0.79976 0.0
H106 H 0.255 0.66803 0.76688 0.0
H107 H 0.23721 0.61474 0.76278 0.0
Mn108 Mn 0.8568 0.34592 0.42738 0.0
Mn109 Mn 0.80226 0.37557 0.39973 0.0
C110 C 0.84247 0.33245 0.37736 0.0
C111 C 0.90066 0.35025 0.43301 0.0
C112 C 0.80476 0.32485 0.44969 0.0
O113 O 0.8506 0.3838 0.45596 0.0
O114 O 0.81632 0.404 0.43196 0.0
C115 C 0.82119 0.43274 0.36835 0.0
N116 N 0.80852 0.40509 0.36692 0.0
C117 C 0.79735 0.41388 0.31279 0.0
C118 C 0.81024 0.44247 0.31366 0.0
C119 C 0.82235 0.45184 0.34151 0.0
C120 C 0.79714 0.39564 0.34012 0.0
H121 H 0.83035 0.44015 0.38979 0.0
C122 C 0.8341 0.40539 0.45236 0.0
O123 O 0.88739 0.33286 0.45187 0.0
O124 O 0.88838 0.36543 0.41154 0.0
N125 N 0.78734 0.35024 0.36766 0.0
C126 C 0.7777 0.32084 0.36991 0.0
C127 C 0.76604 0.30728 0.34355 0.0
C128 C 0.76411 0.32426 0.31536 0.0
C129 C 0.77417 0.3545 0.31366 0.0
C130 C 0.78592 0.36659 0.34051 0.0
H131 H 0.77887 0.30785 0.39164 0.0
O132 O 0.8583 0.31455 0.39213 0.0
O133 O 0.83539 0.35709 0.3927 0.0
O134 O 0.82866 0.32092 0.44929 0.0
O135 O 0.79336 0.34529 0.43305 0.0
C136 C 0.77308 0.3731 0.28636 0.0
C137 C 0.78481 0.40269 0.28585 0.0
H138 H 0.81112 0.45729 0.29302 0.0
H139 H 0.83244 0.4738 0.34235 0.0
H140 H 0.75838 0.2839 0.34504 0.0
H141 H 0.75499 0.3138 0.29513 0.0
H142 H 0.76366 0.36463 0.2654 0.0
H143 H 0.78433 0.41648 0.26448 0.0
Mn144 Mn 0.87228 0.66497 0.9104 0.0
Mn145 Mn 0.89379 0.60821 0.86232 0.0
C146 C 0.87679 0.67525 0.85692 0.0
C147 C 0.83862 0.68876 0.93693 0.0
C148 C 0.92722 0.64461 0.90762 0.0
O149 O 0.86872 0.62499 0.93656 0.0
O150 O 0.87733 0.58906 0.89931 0.0
C151 C 0.84567 0.57927 0.84203 0.0
N152 N 0.8682 0.5928 0.83478 0.0
C153 C 0.863 0.58095 0.77985 0.0
C154 C 0.83984 0.56659 0.78673 0.0
C155 C 0.831 0.56608 0.81791 0.0
C156 C 0.8765 0.59428 0.80477 0.0
H157 H 0.83905 0.57848 0.86603 0.0
C158 C 0.86982 0.59681 0.92679 0.0
O159 O 0.86169 0.69107 0.94701 0.0
O160 O 0.83504 0.67225 0.91173 0.0
N161 N 0.91011 0.62294 0.82506 0.0
C162 C 0.93228 0.63885 0.82232 0.0
C163 C 0.94367 0.64178 0.79264 0.0
C164 C 0.93238 0.62785 0.76622 0.0
C165 C 0.90932 0.61205 0.76952 0.0
C166 C 0.89882 0.61004 0.79965 0.0
H167 H 0.94148 0.64866 0.84272 0.0
O168 O 0.87564 0.6979 0.87716 0.0
O169 O 0.87487 0.64725 0.86857 0.0
O170 O 0.91071 0.6644 0.91647 0.0
O171 O 0.92232 0.62192 0.88912 0.0
C172 C 0.89647 0.5979 0.74418 0.0
C173 C 0.87321 0.58264 0.74929 0.0
H174 H 0.82864 0.55604 0.76825 0.0
H175 H 0.81308 0.55521 0.82338 0.0
H176 H 0.96136 0.65421 0.79022 0.0
H177 H 0.94142 0.62978 0.74344 0.0
H178 H 0.90426 0.59869 0.72064 0.0
H179 H 0.86334 0.5723 0.72956 0.0
Mn180 Mn 0.14477 0.34824 0.40944 0.0
Mn181 Mn 0.11966 0.40496 0.36358 0.0
C182 C 0.13969 0.34001 0.35566 0.0
C183 C 0.17876 0.32362 0.43451 0.0
C184 C 0.08809 0.36343 0.40525 0.0
O185 O 0.14876 0.38703 0.43686 0.0
O186 O 0.13081 0.4222 0.40447 0.0
C187 C 0.16677 0.44086 0.35325 0.0
N188 N 0.14605 0.42605 0.34154 0.0
C189 C 0.15535 0.44347 0.289 0.0
C190 C 0.17683 0.45893 0.30044 0.0
C191 C 0.18267 0.4574 0.33267 0.0
C192 C 0.14064 0.42668 0.31049 0.0
H193 H 0.17104 0.44017 0.37809 0.0
C194 C 0.14149 0.41467 0.43033 0.0
O195 O 0.15582 0.32102 0.44485 0.0
O196 O 0.18212 0.34084 0.40969 0.0
N197 N 0.10769 0.39292 0.32298 0.0
C198 C 0.08668 0.37602 0.31574 0.0
C199 C 0.0776 0.37605 0.28472 0.0
C200 C 0.09002 0.39376 0.26162 0.0
C201 C 0.11202 0.41028 0.2694 0.0
C202 C 0.12001 0.40961 0.30076 0.0
H203 H 0.07652 0.36336 0.33368 0.0
O204 O 0.14105 0.31665 0.37508 0.0
O205 O 0.14122 0.36767 0.36822 0.0
O206 O 0.10635 0.3481 0.41725 0.0
O207 O 0.09085 0.38471 0.38461 0.0
C208 C 0.12604 0.4279 0.24747 0.0
C209 C 0.14792 0.44408 0.25717 0.0
H210 H 0.18896 0.472 0.28469 0.0
H211 H 0.1992 0.46926 0.34169 0.0
H212 H 0.06075 0.36302 0.27878 0.0
H213 H 0.08255 0.39433 0.2379 0.0
H214 H 0.12029 0.42898 0.22304 0.0
H215 H 0.15882 0.45704 0.23998 0.0
Mn216 Mn 0.87241 0.3449 0.09034 0.0
Mn217 Mn 0.89066 0.40858 0.1309 0.0
C218 C 0.87566 0.34261 0.145 0.0
C219 C 0.84041 0.31655 0.06532 0.0
C220 C 0.92664 0.36806 0.09283 0.0
O221 O 0.86874 0.38058 0.05857 0.0
O222 O 0.87524 0.42166 0.09075 0.0
C223 C 0.84091 0.43724 0.14409 0.0
N224 N 0.86348 0.42606 0.15448 0.0
C225 C 0.85692 0.4479 0.2059 0.0
C226 C 0.83352 0.45962 0.19587 0.0
C227 C 0.82532 0.45387 0.16494 0.0
C228 C 0.87096 0.43013 0.18455 0.0
H229 H 0.83505 0.43382 0.11999 0.0
C230 C 0.8689 0.40983 0.06436 0.0
O231 O 0.86391 0.31377 0.05709 0.0
O232 O 0.83545 0.33576 0.08811 0.0
N233 N 0.90589 0.40016 0.17076 0.0
C234 C 0.9284 0.38606 0.17702 0.0
C235 C 0.93888 0.38855 0.20728 0.0
C236 C 0.92672 0.4067 0.23027 0.0
C237 C 0.90381 0.42147 0.22305 0.0
C238 C 0.89361 0.41674 0.19308 0.0
H239 H 0.93841 0.37337 0.15896 0.0
O240 O 0.87547 0.31722 0.1283 0.0
O241 O 0.87313 0.36837 0.12926 0.0
O242 O 0.91091 0.34658 0.086 0.0
O243 O 0.92059 0.39274 0.10791 0.0
C244 C 0.89089 0.44118 0.2442 0.0
C245 C 0.8672 0.45387 0.23587 0.0
H246 H 0.82181 0.47322 0.21164 0.0
H247 H 0.80734 0.46291 0.15697 0.0
H248 H 0.95666 0.37725 0.21259 0.0
H249 H 0.93521 0.40928 0.25332 0.0
H250 H 0.89858 0.44583 0.26735 0.0
H251 H 0.85705 0.4681 0.25272 0.0
Mn252 Mn 0.14544 0.66434 0.5951 0.0
Mn253 Mn 0.12117 0.60964 0.6436 0.0
C254 C 0.14054 0.67543 0.6485 0.0
C255 C 0.17954 0.68709 0.56866 0.0
C256 C 0.08972 0.64696 0.59725 0.0
O257 O 0.14864 0.62383 0.56966 0.0
O258 O 0.13656 0.58935 0.60664 0.0
C259 C 0.16738 0.57654 0.66393 0.0
N260 N 0.14595 0.59253 0.67122 0.0
C261 C 0.14819 0.57624 0.72527 0.0
C262 C 0.17044 0.5598 0.71849 0.0
C263 C 0.18028 0.56035 0.68777 0.0
C264 C 0.13703 0.59344 0.70098 0.0
H265 H 0.17424 0.57569 0.64 0.0
C266 C 0.14529 0.59586 0.57938 0.0
O267 O 0.15659 0.68954 0.55828 0.0
O268 O 0.18285 0.6709 0.59417 0.0
N269 N 0.10536 0.62532 0.68079 0.0
C270 C 0.08359 0.64208 0.68331 0.0
C271 C 0.07195 0.64522 0.71284 0.0
C272 C 0.08207 0.62973 0.73912 0.0
C273 C 0.10397 0.61166 0.73571 0.0
C274 C 0.1155 0.61081 0.70607 0.0
H275 H 0.07508 0.65282 0.66291 0.0
O276 O 0.14247 0.69768 0.62789 0.0
O277 O 0.14193 0.64725 0.63728 0.0
O278 O 0.10715 0.66521 0.58792 0.0
O279 O 0.09337 0.62489 0.61682 0.0
C280 C 0.11428 0.59351 0.76023 0.0
C281 C 0.13628 0.57561 0.75493 0.0
H282 H 0.18 0.5465 0.73661 0.0
H283 H 0.19734 0.54755 0.68229 0.0
H284 H 0.05483 0.65881 0.71516 0.0
H285 H 0.07262 0.63144 0.76166 0.0
H286 H 0.10555 0.59327 0.78327 0.0
H287 H 0.14418 0.56198 0.77402 0.0
Mn288 Mn 0.65824 0.83924 0.07681 0.0
Mn289 Mn 0.71407 0.86518 0.10466 0.0
C290 C 0.67322 0.82148 0.12499 0.0
C291 C 0.61436 0.84492 0.07322 0.0
C292 C 0.70938 0.81847 0.05117 0.0
O293 O 0.66457 0.87906 0.0513 0.0
O294 O 0.69996 0.89651 0.07509 0.0
C295 C 0.69809 0.92092 0.14081 0.0
N296 N 0.70961 0.8925 0.13979 0.0
C297 C 0.72213 0.89659 0.19406 0.0
C298 C 0.71049 0.92596 0.19567 0.0
C299 C 0.6983 0.93808 0.16897 0.0
C300 C 0.72128 0.88054 0.16539 0.0
H301 H 0.68881 0.93042 0.12031 0.0
C302 C 0.68162 0.89982 0.05565 0.0
O303 O 0.62692 0.82936 0.05215 0.0
O304 O 0.62733 0.85777 0.09557 0.0
N305 N 0.72895 0.83691 0.13419 0.0
C306 C 0.73725 0.80716 0.1295 0.0
C307 C 0.74849 0.79085 0.15451 0.0
C308 C 0.75127 0.80536 0.18395 0.0
C309 C 0.74256 0.83598 0.18819 0.0
C310 C 0.73133 0.85099 0.16249 0.0
H311 H 0.73523 0.79595 0.10689 0.0
O312 O 0.65689 0.80514 0.10922 0.0
O313 O 0.68058 0.84714 0.11153 0.0
O314 O 0.68541 0.81533 0.0519 0.0
O315 O 0.7215 0.8372 0.06896 0.0
C316 C 0.74434 0.85209 0.217 0.0
C317 C 0.7341 0.88235 0.21996 0.0
H318 H 0.7105 0.93919 0.21739 0.0
H319 H 0.68912 0.96063 0.17009 0.0
H320 H 0.75506 0.76717 0.15108 0.0
H321 H 0.75995 0.7927 0.20318 0.0
H322 H 0.75323 0.84122 0.23717 0.0
H323 H 0.73513 0.89424 0.24241 0.0
Mn324 Mn 0.35653 0.16768 0.5726 0.0
Mn325 Mn 0.30106 0.13966 0.5991 0.0
C326 C 0.34102 0.18299 0.62153 0.0
C327 C 0.4005 0.1633 0.56925 0.0
C328 C 0.30517 0.18863 0.54758 0.0
O329 O 0.35096 0.12863 0.54543 0.0
O330 O 0.31548 0.11009 0.56811 0.0
C331 C 0.31867 0.08306 0.63263 0.0
N332 N 0.3064 0.11101 0.63293 0.0
C333 C 0.29453 0.1042 0.68712 0.0
C334 C 0.30697 0.07531 0.68739 0.0
C335 C 0.31923 0.06479 0.66007 0.0
C336 C 0.29484 0.12154 0.65921 0.0
H337 H 0.32798 0.07477 0.61163 0.0
C338 C 0.33395 0.1076 0.54877 0.0
O339 O 0.3878 0.17936 0.54868 0.0
O340 O 0.38763 0.14917 0.5909 0.0
N341 N 0.28583 0.16614 0.62998 0.0
C342 C 0.27659 0.19563 0.62659 0.0
C343 C 0.26492 0.2103 0.65231 0.0
C344 C 0.26261 0.19438 0.68107 0.0
C345 C 0.27227 0.16403 0.68395 0.0
C346 C 0.284 0.15077 0.65766 0.0
H347 H 0.27812 0.20786 0.60445 0.0
O348 O 0.35715 0.20042 0.60665 0.0
O349 O 0.33417 0.15796 0.60669 0.0
O350 O 0.32913 0.19187 0.54843 0.0
O351 O 0.29313 0.16915 0.56469 0.0
C352 C 0.2708 0.14645 0.71191 0.0
C353 C 0.28197 0.11658 0.71351 0.0
H354 H 0.30742 0.06115 0.70851 0.0
H355 H 0.32899 0.04259 0.66013 0.0
H356 H 0.25758 0.23377 0.64991 0.0
H357 H 0.2535 0.20572 0.70082 0.0
H358 H 0.26146 0.15588 0.73249 0.0
H359 H 0.28107 0.1035 0.7353 0.0
Mn360 Mn 0.66017 0.16944 0.92328 0.0
Mn361 Mn 0.7142 0.14134 0.89338 0.0
C362 C 0.6741 0.18631 0.87385 0.0
C363 C 0.61632 0.16472 0.9288 0.0
C364 C 0.71203 0.18789 0.94738 0.0
O365 O 0.6665 0.12985 0.94927 0.0
O366 O 0.6994 0.10994 0.92224 0.0
C367 C 0.69523 0.0881 0.8557 0.0
N368 N 0.70812 0.11556 0.8575 0.0
C369 C 0.72227 0.11073 0.80396 0.0
C370 C 0.70921 0.08234 0.80151 0.0
C371 C 0.69538 0.07117 0.82739 0.0
C372 C 0.7207 0.12707 0.83239 0.0
H373 H 0.68507 0.07909 0.8758 0.0
C374 C 0.68207 0.10779 0.94319 0.0
O375 O 0.62961 0.18084 0.94875 0.0
O376 O 0.62858 0.15095 0.90641 0.0
N377 N 0.73002 0.16951 0.86453 0.0
C378 C 0.7406 0.19795 0.87029 0.0
C379 C 0.75392 0.21323 0.8462 0.0
C380 C 0.75666 0.19884 0.8167 0.0
C381 C 0.74585 0.16941 0.81145 0.0
C382 C 0.73228 0.15565 0.8361 0.0
H383 H 0.73902 0.20882 0.89311 0.0
O384 O 0.65854 0.203 0.89039 0.0
O385 O 0.68128 0.16074 0.88748 0.0
O386 O 0.68831 0.19297 0.94651 0.0
O387 O 0.72309 0.16788 0.92989 0.0
C388 C 0.74831 0.15296 0.78291 0.0
C389 C 0.73685 0.12342 0.77935 0.0
H390 H 0.7096 0.06901 0.77985 0.0
H391 H 0.68518 0.04934 0.82566 0.0
H392 H 0.76231 0.23588 0.85049 0.0
H393 H 0.76721 0.21053 0.7983 0.0
H394 H 0.75894 0.16283 0.76354 0.0
H395 H 0.73876 0.11107 0.75724 0.0
Mn396 Mn 0.35806 0.83483 0.42461 0.0
Mn397 Mn 0.30324 0.86014 0.39425 0.0
C398 C 0.34374 0.8142 0.3768 0.0
C399 C 0.40184 0.8401 0.42899 0.0
C400 C 0.30672 0.8168 0.45082 0.0
O401 O 0.35196 0.87603 0.44779 0.0
O402 O 0.31808 0.89342 0.42098 0.0
C403 C 0.32074 0.91186 0.35344 0.0
N404 N 0.30831 0.88423 0.35695 0.0
C405 C 0.29223 0.88683 0.3041 0.0
C406 C 0.30474 0.9154 0.29992 0.0
C407 C 0.31932 0.92777 0.32458 0.0
C408 C 0.29501 0.87158 0.33301 0.0
H409 H 0.33142 0.92183 0.37262 0.0
C410 C 0.3359 0.89729 0.44101 0.0
O411 O 0.38883 0.82585 0.45058 0.0
O412 O 0.38935 0.85193 0.40567 0.0
N413 N 0.28708 0.83041 0.36736 0.0
C414 C 0.27671 0.80228 0.37495 0.0
C415 C 0.26266 0.78593 0.35226 0.0
C416 C 0.25896 0.79899 0.32228 0.0
C417 C 0.26952 0.82818 0.31517 0.0
C418 C 0.28381 0.84304 0.33849 0.0
H419 H 0.27898 0.79246 0.39817 0.0
O420 O 0.35942 0.79894 0.39455 0.0
O421 O 0.33639 0.84073 0.38847 0.0
O422 O 0.33054 0.8127 0.45012 0.0
O423 O 0.29512 0.8353 0.43224 0.0
C424 C 0.26607 0.84335 0.28607 0.0
C425 C 0.2771 0.87287 0.2807 0.0
H426 H 0.30341 0.92794 0.27785 0.0
H427 H 0.3291 0.94975 0.32152 0.0
H428 H 0.25444 0.76351 0.35799 0.0
H429 H 0.24786 0.78648 0.30497 0.0
H430 H 0.25492 0.83256 0.26766 0.0
H431 H 0.27441 0.88425 0.25818 0.0
Mn432 Mn 0.37219 0.168 0.90753 0.0
Mn433 Mn 0.39578 0.10797 0.86514 0.0
C434 C 0.37658 0.17233 0.85314 0.0
C435 C 0.33881 0.19443 0.93191 0.0
C436 C 0.42858 0.15146 0.90304 0.0
O437 O 0.36837 0.13124 0.93777 0.0
O438 O 0.38525 0.09367 0.90732 0.0
C439 C 0.34818 0.07225 0.85885 0.0
N440 N 0.36864 0.08618 0.84543 0.0
C441 C 0.3593 0.06329 0.79515 0.0
C442 C 0.33805 0.04875 0.80832 0.0
C443 C 0.33229 0.05358 0.84024 0.0
C444 C 0.37369 0.08285 0.8145 0.0
H445 H 0.34422 0.07509 0.88362 0.0
C446 C 0.3752 0.10312 0.93289 0.0
O447 O 0.36197 0.19763 0.94131 0.0
O448 O 0.33491 0.17577 0.90832 0.0
N449 N 0.40709 0.11706 0.82347 0.0
C450 C 0.42824 0.13281 0.81447 0.0
C451 C 0.43656 0.13069 0.78317 0.0
C452 C 0.4238 0.11114 0.76191 0.0
C453 C 0.40247 0.09448 0.77197 0.0
C454 C 0.39434 0.09876 0.80298 0.0
H455 H 0.43882 0.14664 0.83115 0.0
O456 O 0.37551 0.19702 0.87081 0.0
O457 O 0.3748 0.14576 0.86775 0.0
O458 O 0.41072 0.16809 0.91417 0.0
O459 O 0.42525 0.12881 0.88407 0.0
C460 C 0.38919 0.07337 0.7526 0.0
C461 C 0.36725 0.0584 0.76391 0.0
H462 H 0.32617 0.03362 0.79424 0.0
H463 H 0.31599 0.04234 0.85063 0.0
H464 H 0.45317 0.1434 0.77568 0.0
H465 H 0.43064 0.10894 0.73799 0.0
H466 H 0.39528 0.0692 0.72862 0.0
H467 H 0.35679 0.04296 0.74849 0.0
Mn468 Mn 0.64457 0.84407 0.4074 0.0
Mn469 Mn 0.62043 0.89891 0.3591 0.0
C470 C 0.63892 0.83266 0.3542 0.0
C471 C 0.67884 0.8213 0.43342 0.0
C472 C 0.58926 0.86273 0.40674 0.0
O473 O 0.64848 0.88476 0.43239 0.0
O474 O 0.63748 0.9193 0.39489 0.0
C475 C 0.66642 0.93066 0.33595 0.0
N476 N 0.64458 0.91497 0.32999 0.0
C477 C 0.64502 0.93087 0.27575 0.0
C478 C 0.66765 0.94703 0.28116 0.0
C479 C 0.67861 0.9465 0.31129 0.0
C480 C 0.63458 0.914 0.30077 0.0
H481 H 0.67416 0.93157 0.35946 0.0
C482 C 0.64632 0.91268 0.42207 0.0
O483 O 0.656 0.81908 0.44423 0.0
O484 O 0.68193 0.83718 0.40767 0.0
N485 N 0.60324 0.88296 0.32299 0.0
C486 C 0.58132 0.86633 0.32176 0.0
C487 C 0.56877 0.86285 0.29285 0.0
C488 C 0.57819 0.87781 0.26587 0.0
C489 C 0.6003 0.8957 0.26795 0.0
C490 C 0.61272 0.89692 0.29702 0.0
H491 H 0.57338 0.85596 0.3427 0.0
O492 O 0.64091 0.81053 0.37494 0.0
O493 O 0.6407 0.86088 0.36521 0.0
O494 O 0.6064 0.84371 0.41525 0.0
O495 O 0.59312 0.88495 0.38741 0.0
C496 C 0.60998 0.91337 0.24268 0.0
C497 C 0.63214 0.93129 0.24671 0.0
H498 H 0.67668 0.96006 0.26242 0.0
H499 H 0.69598 0.95907 0.31571 0.0
H500 H 0.5515 0.84938 0.29155 0.0
H501 H 0.56805 0.87585 0.24382 0.0
H502 H 0.60054 0.91335 0.22006 0.0
H503 H 0.63948 0.94465 0.22708 0.0
Mn504 Mn 0.37079 0.85134 0.09313 0.0
Mn505 Mn 0.39445 0.90564 0.1428 0.0
C506 C 0.37581 0.83934 0.14624 0.0
C507 C 0.3367 0.82848 0.06651 0.0
C508 C 0.42659 0.86926 0.09637 0.0
O509 O 0.36703 0.89225 0.0684 0.0
O510 O 0.37957 0.92614 0.10567 0.0
C511 C 0.34725 0.93735 0.16209 0.0
N512 N 0.36897 0.92219 0.16982 0.0
C513 C 0.36326 0.93368 0.22474 0.0
C514 C 0.34078 0.94941 0.21744 0.0
C515 C 0.33262 0.95099 0.186 0.0
C516 C 0.37666 0.91985 0.20003 0.0
H517 H 0.34127 0.93922 0.13785 0.0
C518 C 0.37049 0.92005 0.0785 0.0
O519 O 0.35963 0.82651 0.05593 0.0
O520 O 0.33344 0.84424 0.09228 0.0
N521 N 0.40957 0.88965 0.18028 0.0
C522 C 0.43124 0.8728 0.18334 0.0
C523 C 0.44219 0.86927 0.21321 0.0
C524 C 0.43096 0.88353 0.23948 0.0
C525 C 0.40835 0.9002 0.23587 0.0
C526 C 0.39833 0.90288 0.20554 0.0
H527 H 0.44044 0.86279 0.16303 0.0
O528 O 0.3743 0.81736 0.12528 0.0
O529 O 0.37418 0.86774 0.13554 0.0
O530 O 0.4092 0.85144 0.08601 0.0
O531 O 0.42277 0.89071 0.11662 0.0
C532 C 0.39559 0.91474 0.26104 0.0
C533 C 0.37293 0.9312 0.25552 0.0
H534 H 0.32964 0.96031 0.23576 0.0
H535 H 0.3153 0.96309 0.18017 0.0
H536 H 0.45953 0.85616 0.21589 0.0
H537 H 0.43975 0.88124 0.26238 0.0
H538 H 0.40299 0.91339 0.28475 0.0
H539 H 0.36313 0.94189 0.27511 0.0
Mn540 Mn 0.6443 0.16354 0.58732 0.0
Mn541 Mn 0.62345 0.10229 0.63043 0.0
C542 C 0.6402 0.16853 0.64151 0.0
C543 C 0.67703 0.19064 0.56229 0.0
C544 C 0.58886 0.1431 0.59122 0.0
O545 O 0.64856 0.1266 0.55741 0.0
O546 O 0.63613 0.08752 0.58939 0.0
C547 C 0.67256 0.07082 0.64063 0.0
N548 N 0.65089 0.08332 0.65239 0.0
C549 C 0.66071 0.06533 0.70457 0.0
C550 C 0.68317 0.05224 0.69309 0.0
C551 C 0.68922 0.05524 0.66101 0.0
C552 C 0.64521 0.08128 0.68329 0.0
H553 H 0.67698 0.07261 0.61588 0.0
C554 C 0.64468 0.09781 0.5633 0.0
O555 O 0.65376 0.19314 0.55306 0.0
O556 O 0.68137 0.17231 0.586 0.0
N557 N 0.61033 0.11205 0.6711 0.0
C558 C 0.58842 0.12699 0.67847 0.0
C559 C 0.57931 0.12574 0.70946 0.0
C560 C 0.5926 0.10871 0.73235 0.0
C561 C 0.6154 0.09406 0.72437 0.0
C562 C 0.6235 0.0961 0.69312 0.0
H563 H 0.57766 0.1391 0.66065 0.0
O564 O 0.64061 0.19301 0.62348 0.0
O565 O 0.64251 0.14173 0.62732 0.0
O566 O 0.60569 0.1622 0.58161 0.0
O567 O 0.59359 0.11989 0.6091 0.0
C568 C 0.6302 0.07704 0.746 0.0
C569 C 0.65304 0.06313 0.73623 0.0
H570 H 0.69591 0.0399 0.70868 0.0
H571 H 0.70651 0.04522 0.65197 0.0
H572 H 0.56181 0.13729 0.71555 0.0
H573 H 0.58521 0.10726 0.75607 0.0
H574 H 0.62427 0.0746 0.77026 0.0
H575 H 0.66447 0.05064 0.75321 0.0
C576 C 0.07456 0.35364 0.1002 0.0
C577 C 0.08734 0.34863 0.07175 0.0
C578 C 0.04814 0.3555 0.10127 0.0
C579 C 0.03406 0.35306 0.07305 0.0
C580 C 0.04685 0.34808 0.04416 0.0
C581 C 0.07338 0.34552 0.0439 0.0
C582 C 0.03531 0.36015 0.13268 0.0
C583 C 0.03254 0.34603 0.01352 0.0
C584 C 0.96431 0.33393 0.08316 0.0
C585 C 0.95357 0.36385 0.08428 0.0
C586 C 0.99041 0.32994 0.07848 0.0
C587 C 1.00603 0.35647 0.07408 0.0
C588 C 0.99503 0.3866 0.07354 0.0
C589 C 0.96902 0.38995 0.07906 0.0
C590 C 1.00143 0.29747 0.0799 0.0
C591 C 0.01087 0.41544 0.06825 0.0
H592 H 0.08524 0.3557 0.12188 0.0
H593 H 0.08322 0.34173 0.02186 0.0
H594 H 0.02509 0.38275 0.13285 0.0
H595 H 0.02113 0.34147 0.13663 0.0
H596 H 0.04891 0.35998 0.1526 0.0
H597 H 0.04523 0.3419 0.99312 0.0
H598 H 0.01848 0.32687 0.01462 0.0
H599 H 0.02195 0.36803 0.00949 0.0
H600 H 0.95249 0.31369 0.08739 0.0
H601 H 0.96078 0.41312 0.07959 0.0
H602 H 0.01367 0.29536 0.101 0.0
H603 H 0.01346 0.293 0.05902 0.0
H604 H 0.9866 0.27917 0.08111 0.0
H605 H 0.02347 0.41922 0.08876 0.0
H606 H 0.99913 0.43669 0.06495 0.0
H607 H 0.02308 0.4124 0.04725 0.0
C608 C 0.94404 0.67215 0.54531 0.0
C609 C 0.93044 0.67013 0.57354 0.0
C610 C 0.97056 0.66955 0.54516 0.0
C611 C 0.98367 0.66567 0.57398 0.0
C612 C 0.96997 0.66457 0.60258 0.0
C613 C 0.94356 0.66642 0.60195 0.0
C614 C 0.98447 0.67011 0.51418 0.0
C615 C 0.98318 0.66111 0.63391 0.0
C616 C 0.04747 0.62647 0.58187 0.0
C617 C 0.06353 0.65209 0.58639 0.0
C618 C 0.02171 0.63068 0.57552 0.0
C619 C 0.01159 0.66126 0.5746 0.0
C620 C 0.02793 0.68729 0.57788 0.0
C621 C 0.05383 0.68238 0.58336 0.0
C622 C 1.0051 0.6023 0.57139 0.0
C623 C 0.01783 0.72024 0.57772 0.0
H624 H 0.93392 0.67495 0.52332 0.0
H625 H 0.93313 0.66525 0.62388 0.0
H626 H 0.99923 0.68848 0.51445 0.0
H627 H 0.99418 0.64745 0.5105 0.0
H628 H 0.97163 0.67442 0.49396 0.0
H629 H 0.9699 0.66281 0.65408 0.0
H630 H 0.99283 0.63815 0.63506 0.0
H631 H 0.99787 0.6794 0.63656 0.0
H632 H 0.05501 0.60302 0.58393 0.0
H633 H 0.0662 0.70221 0.58709 0.0
H634 H 0.99267 0.60515 0.55056 0.0
H635 H 0.99273 0.59959 0.59229 0.0
H636 H 0.0163 0.58056 0.56853 0.0
H637 H 1.00528 0.72402 0.55717 0.0
H638 H 0.0332 0.73789 0.57714 0.0
H639 H 1.00634 0.72413 0.59921 0.0
C640 C 0.96921 0.62276 0.9228 0.0
C641 C 0.95384 0.64886 0.91739 0.0
C642 C 0.99519 0.6261 0.92858 0.0
C643 C 1.00626 0.65621 0.9279 0.0
C644 C 0.99067 0.68274 0.92335 0.0
C645 C 0.96456 0.67877 0.91859 0.0
C646 C 0.01095 0.59725 0.93419 0.0
C647 C 1.00175 0.71517 0.92163 0.0
C648 C 0.07367 0.6676 0.95785 0.0
C649 C 0.08765 0.66405 0.93006 0.0
C650 C 0.04714 0.66494 0.95766 0.0
C651 C 0.03433 0.65955 0.92886 0.0
C652 C 0.04842 0.65663 0.90068 0.0
C653 C 0.07487 0.65846 0.90172 0.0
C654 C 0.03286 0.66734 0.98829 0.0
C655 C 0.03557 0.65162 0.86934 0.0
H656 H 0.96093 0.59961 0.92207 0.0
H657 H 0.95277 0.69897 0.91408 0.0
H658 H 0.02337 0.59306 0.9136 0.0
H659 H 0.02332 0.60054 0.955 0.0
H660 H 0.99912 0.57615 0.93795 0.0
H661 H 0.98694 0.7335 0.92041 0.0
H662 H 0.01391 0.71976 0.94236 0.0
H663 H 0.01387 0.7171 0.9004 0.0
H664 H 0.08351 0.6718 0.97981 0.0
H665 H 0.08557 0.65603 0.88011 0.0
H666 H 0.02217 0.64544 0.99251 0.0
H667 H 0.01889 0.68658 0.98705 0.0
H668 H 0.04557 0.67155 0.00865 0.0
H669 H 0.02537 0.629 0.86943 0.0
H670 H 0.04916 0.65158 0.84941 0.0
H671 H 0.02137 0.67023 0.8652 0.0
C672 C 0.04646 0.33895 0.39503 0.0
C673 C 0.0621 0.35621 0.41503 0.0
C674 C 0.02054 0.33591 0.40129 0.0
C675 C 0.01001 0.35095 0.42795 0.0
C676 C 0.02605 0.36743 0.44889 0.0
C677 C 0.05199 0.36983 0.44217 0.0
C678 C 1.00423 0.31792 0.37847 0.0
C679 C 0.01559 0.38401 0.47738 0.0
C680 C 0.94149 0.37518 0.41795 0.0
C681 C 0.92861 0.35176 0.43451 0.0
C682 C 0.96797 0.37574 0.41664 0.0
C683 C 0.98201 0.35204 0.43193 0.0
C684 C 0.96916 0.32876 0.44941 0.0
C685 C 0.94258 0.32901 0.45067 0.0
C686 C 0.98087 0.40127 0.39809 0.0
C687 C 0.98345 0.30297 0.4658 0.0
H688 H 0.05441 0.32863 0.37394 0.0
H689 H 0.06418 0.38353 0.45734 0.0
H690 H 0.99211 0.30103 0.39129 0.0
H691 H 0.99154 0.33428 0.36583 0.0
H692 H 0.01562 0.30501 0.3608 0.0
H693 H 0.03078 0.39291 0.49303 0.0
H694 H 1.00384 0.40405 0.46966 0.0
H695 H 1.00323 0.36815 0.49111 0.0
H696 H 0.93084 0.39297 0.40557 0.0
H697 H 0.93273 0.31077 0.46341 0.0
H698 H 0.99087 0.39099 0.37763 0.0
H699 H 0.99524 0.41311 0.41288 0.0
H700 H 0.96734 0.41906 0.3893 0.0
H701 H 0.99311 0.28821 0.44805 0.0
H702 H 0.97085 0.28788 0.48016 0.0
H703 H 0.99826 0.31292 0.48129 0.0
C704 C 0.46299 0.83412 0.08383 0.0
C705 C 0.45294 0.86431 0.08594 0.0
C706 C 0.489 0.82947 0.07877 0.0
C707 C 0.50512 0.85563 0.07485 0.0
C708 C 0.49467 0.88607 0.07496 0.0
C709 C 0.46881 0.89005 0.08103 0.0
C710 C 0.49942 0.79668 0.07963 0.0
C711 C 0.51099 0.91458 0.07004 0.0
C712 C 0.57354 0.85171 0.10147 0.0
C713 C 0.58643 0.84691 0.07306 0.0
C714 C 0.5471 0.85361 0.10237 0.0
C715 C 0.53312 0.85156 0.07403 0.0
C716 C 0.54603 0.84679 0.04519 0.0
C717 C 0.57256 0.84406 0.04511 0.0
C718 C 0.53414 0.85796 0.13375 0.0
C719 C 0.53188 0.84532 0.01441 0.0
H720 H 0.45078 0.81421 0.08796 0.0
H721 H 0.46101 0.91342 0.08247 0.0
H722 H 0.51175 0.79238 0.059 0.0
H723 H 0.51121 0.79373 0.10101 0.0
H724 H 0.48423 0.77878 0.07997 0.0
H725 H 0.49957 0.93608 0.06667 0.0
H726 H 0.52339 0.91799 0.09079 0.0
H727 H 0.52337 0.91139 0.04923 0.0
H728 H 0.58415 0.85358 0.12321 0.0
H729 H 0.58248 0.84045 0.0231 0.0
H730 H 0.51959 0.83962 0.13718 0.0
H731 H 0.52435 0.88085 0.13428 0.0
H732 H 0.5476 0.85702 0.15378 0.0
H733 H 0.51742 0.8266 0.01524 0.0
H734 H 0.54461 0.84092 0.99411 0.0
H735 H 0.52177 0.86766 0.01041 0.0
C736 C 0.5516 0.178 0.58211 0.0
C737 C 0.56221 0.14803 0.58204 0.0
C738 C 0.5255 0.18223 0.57743 0.0
C739 C 0.50987 0.15594 0.57168 0.0
C740 C 0.52087 0.12586 0.56975 0.0
C741 C 0.54681 0.12223 0.57546 0.0
C742 C 0.51447 0.21458 0.58044 0.0
C743 C 0.50508 0.0973 0.56288 0.0
C744 C 0.44124 0.15605 0.59759 0.0
C745 C 0.42846 0.16217 0.56936 0.0
C746 C 0.46769 0.15497 0.59874 0.0
C747 C 0.48182 0.15928 0.57078 0.0
C748 C 0.46904 0.16545 0.54212 0.0
C749 C 0.44247 0.16726 0.54183 0.0
C750 C 0.48051 0.14902 0.62994 0.0
C751 C 0.48338 0.16939 0.5117 0.0
H752 H 0.56347 0.19793 0.58745 0.0
H753 H 0.55505 0.09906 0.57512 0.0
H754 H 0.50228 0.21999 0.55993 0.0
H755 H 0.50239 0.2157 0.60175 0.0
H756 H 0.52931 0.23282 0.58233 0.0
H757 H 0.51688 0.07633 0.55839 0.0
H758 H 0.49253 0.09235 0.58318 0.0
H759 H 0.49283 0.10144 0.54211 0.0
H760 H 0.43051 0.15246 0.61902 0.0
H761 H 0.43263 0.17192 0.51996 0.0
H762 H 0.49467 0.16754 0.63472 0.0
H763 H 0.49076 0.12645 0.62913 0.0
H764 H 0.4669 0.14828 0.64981 0.0
H765 H 0.49745 0.18844 0.51398 0.0
H766 H 0.47072 0.17474 0.49156 0.0
H767 H 0.49397 0.14766 0.50636 0.0
C768 C 0.57553 0.14146 0.91122 0.0
C769 C 0.58837 0.16314 0.93007 0.0
C770 C 0.54907 0.14093 0.90986 0.0
C771 C 0.53498 0.16287 0.92754 0.0
C772 C 0.54778 0.18443 0.94718 0.0
C773 C 0.57437 0.18421 0.94835 0.0
C774 C 0.53621 0.11729 0.88889 0.0
C775 C 0.53342 0.20828 0.96622 0.0
C776 C 0.46959 0.17807 0.894 0.0
C777 C 0.4547 0.15826 0.91244 0.0
C778 C 0.4956 0.1811 0.89976 0.0
C779 C 0.50692 0.16365 0.92438 0.0
C780 C 0.49161 0.14454 0.94383 0.0
C781 C 0.46563 0.14199 0.93752 0.0
C782 C 0.51119 0.20172 0.87846 0.0
C783 C 0.50288 0.12548 0.97021 0.0
H784 H 0.5862 0.12499 0.89713 0.0
H785 H 0.58418 0.20113 0.96285 0.0
H786 H 0.52235 0.10347 0.90266 0.0
H787 H 0.52562 0.12948 0.87001 0.0
H788 H 0.54984 0.10096 0.87776 0.0
H789 H 0.54605 0.22236 0.98154 0.0
H790 H 0.52316 0.2243 0.95017 0.0
H791 H 0.51908 0.19656 0.98115 0.0
H792 H 0.46102 0.19029 0.87435 0.0
H793 H 0.45401 0.12638 0.95146 0.0
H794 H 0.52389 0.18704 0.86389 0.0
H795 H 0.52329 0.21754 0.89261 0.0
H796 H 0.49926 0.21603 0.86251 0.0
H797 H 0.51496 0.10679 0.9602 0.0
H798 H 0.48815 0.11446 0.98515 0.0
H799 H 0.51509 0.14029 0.98527 0.0
C800 C 0.44319 0.83938 0.45797 0.0
C801 C 0.42973 0.84176 0.42967 0.0
C802 C 0.46972 0.84182 0.45834 0.0
C803 C 0.48299 0.84591 0.42966 0.0
C804 C 0.46941 0.84747 0.40099 0.0
C805 C 0.44298 0.84577 0.40141 0.0
C806 C 0.48349 0.84077 0.48941 0.0
C807 C 0.48278 0.85117 0.36979 0.0
C808 C 0.54734 0.88396 0.42259 0.0
C809 C 0.56306 0.85807 0.41783 0.0
C810 C 0.52149 0.88019 0.42878 0.0
C811 C 0.51096 0.8498 0.42928 0.0
C812 C 0.52697 0.82349 0.42581 0.0
C813 C 0.55294 0.82795 0.4205 0.0
C814 C 0.50525 0.90884 0.43313 0.0
C815 C 0.51643 0.79075 0.42553 0.0
H816 H 0.43297 0.83636 0.47986 0.0
H817 H 0.43266 0.84725 0.37941 0.0
H818 H 0.49796 0.82205 0.48912 0.0
H819 H 0.49356 0.86317 0.49329 0.0
H820 H 0.47051 0.83664 0.50953 0.0
H821 H 0.46956 0.85 0.34952 0.0
H822 H 0.49271 0.87397 0.36904 0.0
H823 H 0.49726 0.83266 0.36696 0.0
H824 H 0.55519 0.90728 0.42077 0.0
H825 H 0.56503 0.80791 0.41653 0.0
H826 H 0.49266 0.90598 0.4538 0.0
H827 H 0.49305 0.91207 0.41215 0.0
H828 H 0.51674 0.93031 0.43638 0.0
H829 H 0.50375 0.78698 0.44595 0.0
H830 H 0.53156 0.77279 0.426 0.0
H831 H 0.50499 0.78733 0.40392 0.0
C832 C 0.1848 0.30289 0.17874 0.0
C833 C 0.16906 0.31904 0.15793 0.0
C834 C 0.17957 0.30267 0.21133 0.0
C835 C 0.15759 0.3179 0.22287 0.0
C836 C 0.14076 0.33188 0.2012 0.0
C837 C 0.147 0.33286 0.16932 0.0
C838 C 0.19771 0.28663 0.2334 0.0
C839 C 0.11641 0.34709 0.21095 0.0
C840 C 0.13273 0.30833 0.30676 0.0
C841 C 0.14317 0.33461 0.32156 0.0
C842 C 0.1378 0.30189 0.27485 0.0
C843 C 0.15348 0.32237 0.2574 0.0
C844 C 0.16408 0.34872 0.27252 0.0
C845 C 0.15944 0.35395 0.30452 0.0
C846 C 0.12598 0.27366 0.25961 0.0
C847 C 0.18038 0.37143 0.25477 0.0
H848 H 0.20119 0.29081 0.16969 0.0
H849 H 0.13433 0.34455 0.15312 0.0
H850 H 0.18729 0.27073 0.24943 0.0
H851 H 0.2123 0.27304 0.22056 0.0
H852 H 0.20736 0.3043 0.24822 0.0
H853 H 0.10106 0.34083 0.19427 0.0
H854 H 0.11031 0.34057 0.23497 0.0
H855 H 0.11894 0.37271 0.20945 0.0
H856 H 0.12064 0.29282 0.32017 0.0
H857 H 0.16884 0.37308 0.31636 0.0
H858 H 0.14065 0.25961 0.24747 0.0
H859 H 0.1122 0.28132 0.24151 0.0
H860 H 0.11604 0.2586 0.27692 0.0
H861 H 0.1959 0.35842 0.24351 0.0
H862 H 0.18851 0.38987 0.2701 0.0
H863 H 0.1692 0.38259 0.23575 0.0
C864 C 0.87109 0.68681 0.6718 0.0
C865 C 0.84879 0.69984 0.6601 0.0
C866 C 0.8771 0.68819 0.70375 0.0
C867 C 0.85993 0.70215 0.72504 0.0
C868 C 0.83806 0.71728 0.71304 0.0
C869 C 0.83287 0.71622 0.68049 0.0
C870 C 0.9022 0.67497 0.71378 0.0
C871 C 0.82008 0.73436 0.73453 0.0
C872 C 0.85606 0.66456 0.80572 0.0
C873 C 0.87344 0.68199 0.8231 0.0
C874 C 0.85146 0.67119 0.77399 0.0
C875 C 0.86329 0.69713 0.75958 0.0
C876 C 0.87991 0.71597 0.77754 0.0
C877 C 0.88493 0.70804 0.80913 0.0
C878 C 0.83405 0.65023 0.75574 0.0
C879 C 0.89282 0.74394 0.76321 0.0
H880 H 0.88413 0.67551 0.65579 0.0
H881 H 0.81642 0.72796 0.67114 0.0
H882 H 0.90406 0.67245 0.73951 0.0
H883 H 0.90545 0.65205 0.70231 0.0
H884 H 0.91742 0.6908 0.70551 0.0
H885 H 0.80823 0.71729 0.74743 0.0
H886 H 0.83067 0.74821 0.75224 0.0
H887 H 0.80734 0.75018 0.72122 0.0
H888 H 0.84575 0.64588 0.81708 0.0
H889 H 0.89779 0.72222 0.82291 0.0
H890 H 0.84454 0.6391 0.73611 0.0
H891 H 0.81894 0.66456 0.74527 0.0
H892 H 0.8253 0.63182 0.77054 0.0
H893 H 0.90785 0.73589 0.74694 0.0
H894 H 0.90159 0.75912 0.78138 0.0
H895 H 0.87918 0.75796 0.74929 0.0
C896 C 0.17212 0.66482 0.82572 0.0
C897 C 0.17562 0.69189 0.84348 0.0
C898 C 0.16977 0.66603 0.79305 0.0
C899 C 0.16931 0.69519 0.77758 0.0
C900 C 0.17357 0.7228 0.79518 0.0
C901 C 0.1765 0.72087 0.82815 0.0
C902 C 0.16707 0.63597 0.77517 0.0
C903 C 0.17483 0.75417 0.77921 0.0
C904 C 0.17298 0.6811 0.68981 0.0
C905 C 0.14748 0.68222 0.6813 0.0
C906 C 0.18079 0.68872 0.7204 0.0
C907 C 0.16247 0.69604 0.74351 0.0
C908 C 0.13666 0.69818 0.73459 0.0
C909 C 0.12964 0.69241 0.7032 0.0
C910 C 0.2086 0.68742 0.72779 0.0
C911 C 0.11625 0.70436 0.75858 0.0
H912 H 0.17023 0.64254 0.83754 0.0
H913 H 0.17893 0.74194 0.84196 0.0
H914 H 0.15101 0.63769 0.75865 0.0
H915 H 0.18425 0.63181 0.76091 0.0
H916 H 0.16432 0.61571 0.79109 0.0
H917 H 0.18079 0.77297 0.79562 0.0
H918 H 0.1883 0.75322 0.75921 0.0
H919 H 0.15605 0.76025 0.76942 0.0
H920 H 0.18695 0.67442 0.67238 0.0
H921 H 0.11014 0.69497 0.69605 0.0
H922 H 0.21437 0.66266 0.73023 0.0
H923 H 0.2135 0.7002 0.74966 0.0
H924 H 0.21973 0.69742 0.70805 0.0
H925 H 0.11512 0.6843 0.77509 0.0
H926 H 0.09742 0.70759 0.74751 0.0
H927 H 0.12083 0.72541 0.77264 0.0
C928 C 0.88764 0.32944 0.2004 0.0
C929 C 0.86996 0.34084 0.17882 0.0
C930 C 0.88128 0.32601 0.2324 0.0
C931 C 0.85623 0.33231 0.24254 0.0
C932 C 0.83811 0.34228 0.22015 0.0
C933 C 0.84539 0.34726 0.18883 0.0
C934 C 0.90152 0.31645 0.25547 0.0
C935 C 0.81111 0.34869 0.22902 0.0
C936 C 0.8388 0.30451 0.32542 0.0
C937 C 0.84211 0.33209 0.34268 0.0
C938 C 0.84225 0.30428 0.29246 0.0
C939 C 0.84988 0.33202 0.27687 0.0
C940 C 0.85245 0.35982 0.29444 0.0
C941 C 0.84884 0.35946 0.32696 0.0
C942 C 0.8381 0.27445 0.27439 0.0
C943 C 0.86079 0.38963 0.27924 0.0
H944 H 0.90652 0.32382 0.19235 0.0
H945 H 0.83155 0.35537 0.17185 0.0
H946 H 0.89547 0.29542 0.26871 0.0
H947 H 0.9198 0.31142 0.24369 0.0
H948 H 0.90452 0.33543 0.27285 0.0
H949 H 0.79817 0.34388 0.20901 0.0
H950 H 0.80501 0.33449 0.24947 0.0
H951 H 0.80932 0.37379 0.23489 0.0
H952 H 0.83388 0.28317 0.3377 0.0
H953 H 0.85245 0.38052 0.34038 0.0
H954 H 0.85619 0.26652 0.26393 0.0
H955 H 0.82474 0.27866 0.25471 0.0
H956 H 0.83049 0.2555 0.28953 0.0
H957 H 0.88033 0.38618 0.27065 0.0
H958 H 0.86053 0.40976 0.29572 0.0
H959 H 0.84856 0.39512 0.2588 0.0
C960 C 0.6278 0.81616 0.29941 0.0
C961 C 0.6458 0.8256 0.32146 0.0
C962 C 0.63481 0.81031 0.26803 0.0
C963 C 0.66068 0.81183 0.25923 0.0
C964 C 0.67908 0.81835 0.28249 0.0
C965 C 0.67135 0.8259 0.3131 0.0
C966 C 0.61436 0.80485 0.24392 0.0
C967 C 0.70692 0.81913 0.27518 0.0
C968 C 0.67489 0.78875 0.17415 0.0
C969 C 0.67419 0.81808 0.1595 0.0
C970 C 0.67176 0.78608 0.20704 0.0
C971 C 0.66756 0.81332 0.22523 0.0
C972 C 0.66819 0.8428 0.21044 0.0
C973 C 0.67062 0.84474 0.17784 0.0
C974 C 0.67266 0.75434 0.22229 0.0
C975 C 0.66548 0.87243 0.22901 0.0
H976 H 0.60822 0.81427 0.30642 0.0
H977 H 0.6854 0.83202 0.33064 0.0
H978 H 0.61885 0.78417 0.22927 0.0
H979 H 0.59554 0.80141 0.25495 0.0
H980 H 0.61326 0.82536 0.22799 0.0
H981 H 0.71781 0.80821 0.29463 0.0
H982 H 0.71167 0.80696 0.25292 0.0
H983 H 0.71313 0.84381 0.2736 0.0
H984 H 0.67731 0.76799 0.15988 0.0
H985 H 0.66874 0.86728 0.16653 0.0
H986 H 0.65383 0.7484 0.23201 0.0
H987 H 0.68619 0.75462 0.24226 0.0
H988 H 0.67837 0.73581 0.20544 0.0
H989 H 0.64882 0.87066 0.24458 0.0
H990 H 0.66363 0.8932 0.21358 0.0
H991 H 0.68222 0.8757 0.24431 0.0
C992 C 0.34546 0.16867 0.81005 0.0
C993 C 0.37017 0.17524 0.81955 0.0
C994 C 0.33765 0.17394 0.77897 0.0
C995 C 0.35537 0.18422 0.75624 0.0
C996 C 0.38048 0.19093 0.76589 0.0
C997 C 0.3873 0.18746 0.79775 0.0
C998 C 0.31059 0.16724 0.77056 0.0
C999 C 0.40036 0.20068 0.74243 0.0
C1000 C 0.34727 0.15642 0.67215 0.0
C1001 C 0.34064 0.18371 0.65623 0.0
C1002 C 0.35097 0.15625 0.70465 0.0
C1003 C 0.3486 0.18421 0.72202 0.0
C1004 C 0.34091 0.21184 0.70627 0.0
C1005 C 0.3374 0.21141 0.6733 0.0
C1006 C 0.35968 0.12655 0.71977 0.0
C1007 C 0.33679 0.24179 0.72414 0.0
H1008 H 0.33199 0.16006 0.82723 0.0
H1009 H 0.40621 0.19346 0.80544 0.0
H1010 H 0.30396 0.1822 0.75092 0.0
H1011 H 0.30908 0.14243 0.76348 0.0
H1012 H 0.29791 0.17081 0.79108 0.0
H1013 H 0.40329 0.18167 0.72506 0.0
H1014 H 0.394 0.22158 0.72922 0.0
H1015 H 0.41874 0.20597 0.75385 0.0
H1016 H 0.35085 0.13526 0.65889 0.0
H1017 H 0.3325 0.23267 0.66088 0.0
H1018 H 0.34931 0.12198 0.74196 0.0
H1019 H 0.37995 0.12943 0.72533 0.0
H1020 H 0.35747 0.106 0.70405 0.0
H1021 H 0.32866 0.26042 0.70903 0.0
H1022 H 0.355 0.25017 0.7339 0.0
H1023 H 0.3239 0.23759 0.74431 0.0
C1024 C 0.64936 0.16967 0.82825 0.0
C1025 C 0.67011 0.1863 0.83962 0.0
C1026 C 0.64289 0.17022 0.79641 0.0
C1027 C 0.65839 0.18647 0.77477 0.0
C1028 C 0.67922 0.20403 0.78628 0.0
C1029 C 0.68454 0.20426 0.81883 0.0
C1030 C 0.61953 0.15273 0.78672 0.0
C1031 C 0.69585 0.22249 0.76427 0.0
C1032 C 0.66129 0.15402 0.6916 0.0
C1033 C 0.64351 0.17231 0.67581 0.0
C1034 C 0.66607 0.15837 0.72372 0.0
C1035 C 0.65392 0.18279 0.74023 0.0
C1036 C 0.63654 0.20218 0.72407 0.0
C1037 C 0.63146 0.19663 0.69201 0.0
C1038 C 0.68448 0.1371 0.73995 0.0
C1039 C 0.62304 0.22836 0.74079 0.0
H1040 H 0.63771 0.1565 0.84452 0.0
H1041 H 0.69997 0.21819 0.82791 0.0
H1042 H 0.60398 0.15719 0.80369 0.0
H1043 H 0.6128 0.15903 0.76292 0.0
H1044 H 0.62366 0.12743 0.78772 0.0
H1045 H 0.70649 0.20633 0.74879 0.0
H1046 H 0.68412 0.2376 0.74888 0.0
H1047 H 0.70963 0.2373 0.77716 0.0
H1048 H 0.67185 0.1366 0.67866 0.0
H1049 H 0.61817 0.2114 0.67954 0.0
H1050 H 0.67515 0.12522 0.76004 0.0
H1051 H 0.70001 0.1515 0.74944 0.0
H1052 H 0.69258 0.11922 0.72395 0.0
H1053 H 0.61028 0.2185 0.75897 0.0
H1054 H 0.61167 0.24288 0.72441 0.0
H1055 H 0.63689 0.24354 0.75305 0.0
C1056 C 0.35585 0.84944 0.19804 0.0
C1057 C 0.37246 0.83166 0.17988 0.0
C1058 C 0.35148 0.84229 0.2297 0.0
C1059 C 0.36267 0.81548 0.24326 0.0
C1060 C 0.37841 0.79628 0.22448 0.0
C1061 C 0.38328 0.80473 0.19299 0.0
C1062 C 0.33499 0.86362 0.24883 0.0
C1063 C 0.39057 0.76737 0.23788 0.0
C1064 C 0.37098 0.82381 0.33116 0.0
C1065 C 0.34824 0.81182 0.34267 0.0
C1066 C 0.37701 0.82243 0.29921 0.0
C1067 C 0.35939 0.80969 0.2777 0.0
C1068 C 0.33708 0.79541 0.2895 0.0
C1069 C 0.3319 0.79632 0.32207 0.0
C1070 C 0.40247 0.83473 0.28944 0.0
C1071 C 0.31858 0.77955 0.26776 0.0
H1072 H 0.346 0.86888 0.18736 0.0
H1073 H 0.39554 0.79032 0.17862 0.0
H1074 H 0.31963 0.84976 0.25939 0.0
H1075 H 0.34609 0.87384 0.26844 0.0
H1076 H 0.32656 0.88273 0.23463 0.0
H1077 H 0.39898 0.75245 0.21925 0.0
H1078 H 0.40574 0.77426 0.2545 0.0
H1079 H 0.37652 0.75345 0.25128 0.0
H1080 H 0.38433 0.83437 0.3473 0.0
H1081 H 0.31514 0.78516 0.33125 0.0
H1082 H 0.40516 0.8586 0.29898 0.0
H1083 H 0.40538 0.83492 0.26371 0.0
H1084 H 0.41739 0.81992 0.30012 0.0
H1085 H 0.3077 0.79737 0.25454 0.0
H1086 H 0.30496 0.76468 0.28085 0.0
H1087 H 0.32873 0.76494 0.25029 0.0
C1088 C 0.31998 0.21991 0.97922 0.0
C1089 C 0.31794 0.2115 0.94746 0.0
C1090 C 0.30073 0.2368 0.9943 0.0
C1091 C 0.27925 0.24645 0.97694 0.0
C1092 C 0.27709 0.23797 0.94481 0.0
C1093 C 0.29629 0.22014 0.93058 0.0
C1094 C 0.30351 0.24454 0.0288 0.0
C1095 C 0.25489 0.24854 0.92524 0.0
C1096 C 0.22149 0.27163 0.02412 0.0
C1097 C 0.2258 0.30375 0.02738 0.0
C1098 C 0.23841 0.25269 0.00714 0.0
C1099 C 0.25968 0.26641 0.99231 0.0
C1100 C 0.26324 0.29915 0.99412 0.0
C1101 C 0.24653 0.31732 0.01211 0.0
C1102 C 0.23429 0.21782 0.00658 0.0
C1103 C 0.28519 0.3149 0.97792 0.0
H1104 H 0.3366 0.21303 0.99241 0.0
H1105 H 0.29475 0.21384 0.90594 0.0
H1106 H 0.3052 0.27017 0.03186 0.0
H1107 H 0.28647 0.2369 0.04192 0.0
H1108 H 0.32036 0.23329 0.03948 0.0
H1109 H 0.25573 0.23947 0.90077 0.0
H1110 H 0.23695 0.24073 0.93615 0.0
H1111 H 0.25442 0.27443 0.92438 0.0
H1112 H 0.20566 0.26105 0.03629 0.0
H1113 H 0.24984 0.34219 0.01456 0.0
H1114 H 0.24981 0.2061 0.01956 0.0
H1115 H 0.23473 0.20898 0.98207 0.0
H1116 H 0.21603 0.21101 0.0175 0.0
H1117 H 0.30311 0.30801 0.98951 0.0
H1118 H 0.28367 0.34076 0.97861 0.0
H1119 H 0.28634 0.30732 0.95299 0.0
C1120 C 0.77027 0.70007 0.51613 0.0
C1121 C 0.79188 0.7132 0.52982 0.0
C1122 C 0.75361 0.71829 0.49814 0.0
C1123 C 0.7582 0.7507 0.49463 0.0
C1124 C 0.78033 0.76395 0.50783 0.0
C1125 C 0.79711 0.74492 0.5249 0.0
C1126 C 0.73065 0.70301 0.48374 0.0
C1127 C 0.7856 0.7985 0.50536 0.0
C1128 C 0.72107 0.79501 0.43202 0.0
C1129 C 0.70012 0.80536 0.44929 0.0
C1130 C 0.74032 0.77745 0.44647 0.0
C1131 C 0.73889 0.7709 0.47911 0.0
C1132 C 0.71824 0.78245 0.49684 0.0
C1133 C 0.69893 0.7991 0.48162 0.0
C1134 C 0.76164 0.76489 0.42659 0.0
C1135 C 0.7163 0.77675 0.53183 0.0
H1136 H 0.76624 0.67551 0.51981 0.0
H1137 H 0.81364 0.75521 0.53583 0.0
H1138 H 0.71335 0.71154 0.49568 0.0
H1139 H 0.72906 0.70936 0.4585 0.0
H1140 H 0.73124 0.67716 0.48577 0.0
H1141 H 0.8044 0.80482 0.51507 0.0
H1142 H 0.78467 0.80621 0.48048 0.0
H1143 H 0.7709 0.81163 0.51846 0.0
H1144 H 0.72193 0.79961 0.40696 0.0
H1145 H 0.68284 0.80727 0.49508 0.0
H1146 H 0.76111 0.73899 0.42673 0.0
H1147 H 0.78011 0.77203 0.43656 0.0
H1148 H 0.76055 0.77308 0.40181 0.0
H1149 H 0.71377 0.75144 0.5364 0.0
H1150 H 0.70023 0.78952 0.54262 0.0
H1151 H 0.734 0.78407 0.54371 0.0
C1152 C 0.31726 0.80436 0.01867 0.0
C1153 C 0.31552 0.81219 0.05062 0.0
C1154 C 0.2981 0.78717 0.00369 0.0
C1155 C 0.27697 0.77675 0.02129 0.0
C1156 C 0.27492 0.78505 0.05347 0.0
C1157 C 0.29407 0.80302 0.06764 0.0
C1158 C 0.30077 0.77953 0.96917 0.0
C1159 C 0.25307 0.77381 0.07328 0.0
C1160 C 0.21974 0.74705 0.97549 0.0
C1161 C 0.2252 0.71512 0.97312 0.0
C1162 C 0.23613 0.76744 0.99164 0.0
C1163 C 0.25808 0.75539 0.00644 0.0
C1164 C 0.26286 0.72286 0.00544 0.0
C1165 C 0.2466 0.70325 0.9884 0.0
C1166 C 0.23065 0.80201 0.99148 0.0
C1167 C 0.28561 0.70884 0.02156 0.0
H1168 H 0.33372 0.81159 0.00534 0.0
H1169 H 0.29271 0.80884 0.09241 0.0
H1170 H 0.30352 0.75403 0.96617 0.0
H1171 H 0.28329 0.786 0.95632 0.0
H1172 H 0.31702 0.79182 0.95818 0.0
H1173 H 0.25348 0.7837 0.09744 0.0
H1174 H 0.23487 0.78013 0.06205 0.0
H1175 H 0.25364 0.74796 0.07501 0.0
H1176 H 0.20338 0.75634 0.96332 0.0
H1177 H 0.25081 0.67853 0.98667 0.0
H1178 H 0.24552 0.81435 0.9779 0.0
H1179 H 0.23108 0.81143 0.01577 0.0
H1180 H 0.212 0.80743 0.98081 0.0
H1181 H 0.3031 0.71688 0.00971 0.0
H1182 H 0.28527 0.68291 0.02117 0.0
H1183 H 0.28656 0.71676 0.04639 0.0
C1184 C 0.69509 0.21758 0.51519 0.0
C1185 C 0.6976 0.20824 0.54664 0.0
C1186 C 0.71413 0.23494 0.50017 0.0
C1187 C 0.73588 0.24405 0.51731 0.0
C1188 C 0.73855 0.23455 0.54909 0.0
C1189 C 0.71954 0.21636 0.56323 0.0
C1190 C 0.7108 0.24384 0.46604 0.0
C1191 C 0.76106 0.24448 0.56845 0.0
C1192 C 0.79327 0.2721 0.47086 0.0
C1193 C 0.78891 0.30435 0.46959 0.0
C1194 C 0.77637 0.25212 0.48667 0.0
C1195 C 0.75508 0.26486 0.50233 0.0
C1196 C 0.75136 0.29761 0.50231 0.0
C1197 C 0.76806 0.31686 0.4855 0.0
C1198 C 0.78066 0.21731 0.4854 0.0
C1199 C 0.72938 0.31231 0.51943 0.0
H1200 H 0.67826 0.21112 0.5022 0.0
H1201 H 0.72148 0.20932 0.58762 0.0
H1202 H 0.70891 0.26955 0.46393 0.0
H1203 H 0.72769 0.23686 0.45228 0.0
H1204 H 0.69386 0.2328 0.45536 0.0
H1205 H 0.76069 0.23444 0.59255 0.0
H1206 H 0.77883 0.23723 0.55674 0.0
H1207 H 0.76146 0.27032 0.57033 0.0
H1208 H 0.80922 0.26236 0.45824 0.0
H1209 H 0.76474 0.34184 0.48466 0.0
H1210 H 0.76488 0.20604 0.47248 0.0
H1211 H 0.78083 0.20734 0.50949 0.0
H1212 H 0.79868 0.21119 0.47353 0.0
H1213 H 0.71141 0.30537 0.50798 0.0
H1214 H 0.73051 0.33822 0.51959 0.0
H1215 H 0.72868 0.30388 0.54411 0.0
C1216 C 0.74492 0.8116 0.01349 0.0
C1217 C 0.72459 0.79857 0.03 0.0
C1218 C 0.76176 0.79273 0.99649 0.0
C1219 C 0.75874 0.75987 0.99691 0.0
C1220 C 0.73785 0.74662 0.013 0.0
C1221 C 0.72079 0.76621 0.02902 0.0
C1222 C 0.78329 0.80795 0.97894 0.0
C1223 C 0.73428 0.7117 0.01469 0.0
C1224 C 0.7953 0.71231 0.93628 0.0
C1225 C 0.8175 0.70515 0.95282 0.0
C1226 C 0.77583 0.72971 0.95041 0.0
C1227 C 0.77833 0.73953 0.98209 0.0
C1228 C 0.80034 0.73135 0.99921 0.0
C1229 C 0.81978 0.71464 0.98425 0.0
C1230 C 0.753 0.73855 0.93109 0.0
C1231 C 0.80356 0.74072 0.03323 0.0
H1232 H 0.74785 0.83665 0.01426 0.0
H1233 H 0.70529 0.75609 0.04222 0.0
H1234 H 0.80147 0.8019 0.9904 0.0
H1235 H 0.78411 0.79913 0.95441 0.0
H1236 H 0.78153 0.83379 0.97832 0.0
H1237 H 0.71627 0.70516 0.02639 0.0
H1238 H 0.73456 0.70139 0.99076 0.0
H1239 H 0.75015 0.70115 0.02804 0.0
H1240 H 0.7935 0.70519 0.91191 0.0
H1241 H 0.83681 0.70898 0.99721 0.0
H1242 H 0.75208 0.76433 0.92868 0.0
H1243 H 0.73545 0.731 0.94313 0.0
H1244 H 0.75341 0.72806 0.9072 0.0
H1245 H 0.80491 0.7665 0.03504 0.0
H1246 H 0.82075 0.73035 0.04396 0.0
H1247 H 0.78685 0.73333 0.04715 0.0
C1248 C 0.26858 0.1973 0.51169 0.0
C1249 C 0.29001 0.20919 0.5269 0.0
C1250 C 0.25236 0.2169 0.49457 0.0
C1251 C 0.25719 0.24942 0.49346 0.0
C1252 C 0.27915 0.26148 0.50823 0.0
C1253 C 0.29551 0.24111 0.52441 0.0
C1254 C 0.2296 0.20289 0.47846 0.0
C1255 C 0.28467 0.29605 0.50831 0.0
C1256 C 0.22119 0.29766 0.4327 0.0
C1257 C 0.19987 0.30683 0.44995 0.0
C1258 C 0.24026 0.27936 0.44661 0.0
C1259 C 0.23827 0.27081 0.47875 0.0
C1260 C 0.21727 0.28122 0.49654 0.0
C1261 C 0.19816 0.29868 0.48182 0.0
C1262 C 0.26198 0.2681 0.42661 0.0
C1263 C 0.21468 0.27337 0.53104 0.0
H1264 H 0.26436 0.17259 0.51346 0.0
H1265 H 0.31191 0.25041 0.53647 0.0
H1266 H 0.21211 0.21084 0.49038 0.0
H1267 H 0.2286 0.21087 0.45365 0.0
H1268 H 0.22996 0.17695 0.4788 0.0
H1269 H 0.30331 0.30148 0.51899 0.0
H1270 H 0.28426 0.30544 0.484 0.0
H1271 H 0.2698 0.30842 0.52185 0.0
H1272 H 0.22249 0.30375 0.40799 0.0
H1273 H 0.18181 0.30595 0.4953 0.0
H1274 H 0.26136 0.24226 0.42486 0.0
H1275 H 0.28025 0.27437 0.43769 0.0
H1276 H 0.26146 0.27804 0.40247 0.0
H1277 H 0.21195 0.24785 0.53392 0.0
H1278 H 0.19847 0.28558 0.54218 0.0
H1279 H 0.2322 0.27978 0.54385 0.0
C1280 C 0.82319 0.2894 0.01791 0.0
C1281 C 0.82021 0.29869 0.0493 0.0
C1282 C 0.80423 0.27245 0.0023 0.0
C1283 C 0.78208 0.26364 0.0188 0.0
C1284 C 0.77906 0.27282 0.05062 0.0
C1285 C 0.79799 0.29069 0.06533 0.0
C1286 C 0.80793 0.26393 0.96813 0.0
C1287 C 0.75613 0.26313 0.06933 0.0
C1288 C 0.72464 0.2393 0.97049 0.0
C1289 C 0.72811 0.20694 0.96839 0.0
C1290 C 0.74186 0.25809 0.98718 0.0
C1291 C 0.76255 0.24401 0.00292 0.0
C1292 C 0.76535 0.21112 0.00207 0.0
C1293 C 0.74838 0.19307 0.98435 0.0
C1294 C 0.73859 0.2931 0.98671 0.0
C1295 C 0.78664 0.19503 0.01928 0.0
H1296 H 0.84026 0.2958 0.00536 0.0
H1297 H 0.7957 0.29768 0.08968 0.0
H1298 H 0.80905 0.23819 0.96562 0.0
H1299 H 0.79152 0.27193 0.95403 0.0
H1300 H 0.82538 0.27434 0.95811 0.0
H1301 H 0.75658 0.27221 0.09381 0.0
H1302 H 0.73869 0.27162 0.05771 0.0
H1303 H 0.75495 0.23727 0.0702 0.0
H1304 H 0.70917 0.25008 0.9578 0.0
H1305 H 0.75102 0.16801 0.9828 0.0
H1306 H 0.75492 0.304 0.97456 0.0
H1307 H 0.73822 0.30243 0.01104 0.0
H1308 H 0.72099 0.30032 0.97448 0.0
H1309 H 0.80495 0.20137 0.00834 0.0
H1310 H 0.78471 0.16921 0.01884 0.0
H1311 H 0.78728 0.20289 0.04415 0.0
C1312 C 0.19928 0.7097 0.52041 0.0
C1313 C 0.20065 0.7033 0.5527 0.0
C1314 C 0.21834 0.72679 0.50518 0.0
C1315 C 0.23889 0.73868 0.52286 0.0
C1316 C 0.24051 0.73199 0.55546 0.0
C1317 C 0.22154 0.71396 0.56991 0.0
C1318 C 0.21621 0.7326 0.47022 0.0
C1319 C 0.26172 0.74491 0.57531 0.0
C1320 C 0.29678 0.76603 0.47719 0.0
C1321 C 0.29121 0.79769 0.47247 0.0
C1322 C 0.2802 0.74658 0.4941 0.0
C1323 C 0.25791 0.75934 0.50735 0.0
C1324 C 0.25293 0.79168 0.50399 0.0
C1325 C 0.2694 0.81032 0.48615 0.0
C1326 C 0.28587 0.71212 0.49635 0.0
C1327 C 0.2298 0.80644 0.51847 0.0
H1328 H 0.18323 0.70131 0.50701 0.0
H1329 H 0.22253 0.70928 0.59496 0.0
H1330 H 0.21331 0.75787 0.46577 0.0
H1331 H 0.23398 0.72574 0.45823 0.0
H1332 H 0.20029 0.71952 0.45945 0.0
H1333 H 0.2608 0.7366 0.60006 0.0
H1334 H 0.28025 0.73818 0.56524 0.0
H1335 H 0.26085 0.7708 0.57527 0.0
H1336 H 0.31346 0.75612 0.46627 0.0
H1337 H 0.2651 0.83483 0.4826 0.0
H1338 H 0.27126 0.69878 0.48331 0.0
H1339 H 0.28516 0.70428 0.52121 0.0
H1340 H 0.30469 0.70618 0.48647 0.0
H1341 H 0.21259 0.7976 0.50653 0.0
H1342 H 0.23005 0.83231 0.51653 0.0
H1343 H 0.22832 0.79998 0.54369 0.0
C1344 C 0.1982 0.55812 0.95919 0.0
C1345 C 0.18149 0.58253 0.96663 0.0
C1346 C 0.19648 0.52895 0.97399 0.0
C1347 C 0.17773 0.52389 0.99712 0.0
C1348 C 0.16074 0.54829 0.00485 0.0
C1349 C 0.16276 0.5773 0.98943 0.0
C1350 C 0.21493 0.50357 0.96495 0.0
C1351 C 0.14062 0.54381 0.02958 0.0
C1352 C 0.16389 0.4388 0.01704 0.0
C1353 C 0.17955 0.43407 0.04326 0.0
C1354 C 0.1625 0.46817 0.00225 0.0
C1355 C 0.17691 0.49345 0.01413 0.0
C1356 C 0.19215 0.48903 0.0411 0.0
C1357 C 0.19337 0.45948 0.0552 0.0
C1358 C 0.14615 0.47194 0.9734 0.0
C1359 C 0.2077 0.51537 0.05467 0.0
H1360 H 0.21264 0.5616 0.94147 0.0
H1361 H 0.14968 0.59587 0.9953 0.0
H1362 H 0.22659 0.49705 0.98563 0.0
H1363 H 0.20456 0.48233 0.95742 0.0
H1364 H 0.22774 0.51085 0.94559 0.0
H1365 H 0.12842 0.56474 0.03226 0.0
H1366 H 0.12854 0.52353 0.02346 0.0
H1367 H 0.14956 0.53861 0.05261 0.0
H1368 H 0.15307 0.41942 0.00769 0.0
H1369 H 0.20529 0.45634 0.07568 0.0
H1370 H 0.15821 0.47712 0.95269 0.0
H1371 H 0.13309 0.49196 0.97643 0.0
H1372 H 0.13487 0.45066 0.9683 0.0
H1373 H 0.22239 0.52253 0.0375 0.0
H1374 H 0.21716 0.50871 0.07701 0.0
H1375 H 0.19559 0.53603 0.05913 0.0
C1376 C 0.82594 0.5575 0.56029 0.0
C1377 C 0.83916 0.58297 0.54748 0.0
C1378 C 0.82737 0.52771 0.54676 0.0
C1379 C 0.84218 0.52314 0.51945 0.0
C1380 C 0.85616 0.54845 0.50683 0.0
C1381 C 0.85459 0.57805 0.52109 0.0
C1382 C 0.8123 0.50135 0.56111 0.0
C1383 C 0.87201 0.54454 0.47758 0.0
C1384 C 0.85532 0.43945 0.49314 0.0
C1385 C 0.83612 0.43483 0.47082 0.0
C1386 C 0.85776 0.46816 0.50907 0.0
C1387 C 0.84072 0.49281 0.50235 0.0
C1388 C 0.82138 0.48826 0.47989 0.0
C1389 C 0.81926 0.45944 0.46459 0.0
C1390 C 0.87849 0.47213 0.53311 0.0
C1391 C 0.80282 0.51389 0.47194 0.0
H1392 H 0.81424 0.56079 0.58094 0.0
H1393 H 0.86499 0.59748 0.51112 0.0
H1394 H 0.79693 0.4944 0.54479 0.0
H1395 H 0.82447 0.48059 0.56476 0.0
H1396 H 0.80371 0.50796 0.58401 0.0
H1397 H 0.88345 0.56565 0.47233 0.0
H1398 H 0.88487 0.52426 0.48016 0.0
H1399 H 0.85954 0.53974 0.45715 0.0
H1400 H 0.86852 0.42074 0.49806 0.0
H1401 H 0.80439 0.45644 0.44734 0.0
H1402 H 0.87017 0.4776 0.55642 0.0
H1403 H 0.89075 0.49208 0.5265 0.0
H1404 H 0.89038 0.45088 0.53539 0.0
H1405 H 0.79186 0.52037 0.4932 0.0
H1406 H 0.78936 0.50691 0.45316 0.0
H1407 H 0.81309 0.53508 0.46404 0.0
C1408 C 0.88038 0.43758 0.0154 0.0
C1409 C 0.86289 0.43226 0.03942 0.0
C1410 C 0.87871 0.46443 0.99655 0.0
C1411 C 0.85879 0.48598 0.00167 0.0
C1412 C 0.84013 0.47947 0.02457 0.0
C1413 C 0.84265 0.45287 0.04357 0.0
C1414 C 0.89917 0.47073 0.97262 0.0
C1415 C 0.81824 0.50137 0.03013 0.0
C1416 C 0.87281 0.57001 0.97877 0.0
C1417 C 0.86323 0.57094 0.94812 0.0
C1418 C 0.87085 0.54267 0.99693 0.0
C1419 C 0.85845 0.51611 0.98428 0.0
C1420 C 0.84724 0.51781 0.95414 0.0
C1421 C 0.8501 0.54505 0.93624 0.0
C1422 C 0.88334 0.54162 0.02885 0.0
C1423 C 0.83319 0.4904 0.94023 0.0
H1424 H 0.89635 0.42192 0.01285 0.0
H1425 H 0.82935 0.4488 0.06254 0.0
H1426 H 0.89073 0.47514 0.94915 0.0
H1427 H 0.90978 0.49204 0.97942 0.0
H1428 H 0.9127 0.45102 0.97061 0.0
H1429 H 0.80375 0.49096 0.04586 0.0
H1430 H 0.82521 0.52324 0.04109 0.0
H1431 H 0.80919 0.50777 0.00749 0.0
H1432 H 0.8832 0.58991 0.98778 0.0
H1433 H 0.8426 0.54582 0.91253 0.0
H1434 H 0.89893 0.52431 0.02852 0.0
H1435 H 0.86964 0.53394 0.047 0.0
H1436 H 0.89117 0.56465 0.03589 0.0
H1437 H 0.84669 0.47136 0.93476 0.0
H1438 H 0.82304 0.49677 0.91827 0.0
H1439 H 0.81934 0.48104 0.95741 0.0
C1440 C 0.16757 0.44337 0.47015 0.0
C1441 C 0.14491 0.43988 0.45352 0.0
C1442 C 0.17132 0.46918 0.49012 0.0
C1443 C 0.15164 0.49128 0.49409 0.0
C1444 C 0.1286 0.4874 0.47766 0.0
C1445 C 0.12567 0.462 0.45729 0.0
C1446 C 0.19632 0.47297 0.50674 0.0
C1447 C 0.10684 0.50984 0.48192 0.0
C1448 C 0.1448 0.53855 0.56859 0.0
C1449 C 0.15029 0.56898 0.55815 0.0
C1450 C 0.14641 0.51287 0.54837 0.0
C1451 C 0.15415 0.51744 0.51689 0.0
C1452 C 0.1613 0.54767 0.5066 0.0
C1453 C 0.15911 0.57319 0.5273 0.0
C1454 C 0.13823 0.48116 0.56022 0.0
C1455 C 0.17016 0.55328 0.47333 0.0
H1456 H 0.18257 0.42648 0.4668 0.0
H1457 H 0.10811 0.45921 0.44444 0.0
H1458 H 0.20458 0.4961 0.50103 0.0
H1459 H 0.19349 0.47222 0.53258 0.0
H1460 H 0.21005 0.45451 0.50009 0.0
H1461 H 0.09017 0.50339 0.46743 0.0
H1462 H 0.10103 0.51037 0.507 0.0
H1463 H 0.11278 0.53383 0.47543 0.0
H1464 H 0.13822 0.53474 0.59244 0.0
H1465 H 0.16367 0.59647 0.51906 0.0
H1466 H 0.15276 0.46332 0.55483 0.0
H1467 H 0.1206 0.47403 0.54808 0.0
H1468 H 0.13471 0.48106 0.58599 0.0
H1469 H 0.18443 0.53557 0.46647 0.0
H1470 H 0.17846 0.57692 0.47033 0.0
H1471 H 0.15397 0.55094 0.45692 0.0
C1472 C 0.66371 0.07372 0.98595 0.0
C1473 C 0.67975 0.07741 0.95992 0.0
C1474 C 0.66182 0.04481 0.0016 0.0
C1475 C 0.67616 0.019 0.99081 0.0
C1476 C 0.69189 0.02242 0.96415 0.0
C1477 C 0.69355 0.05148 0.94917 0.0
C1478 C 0.64494 0.04206 0.03008 0.0
C1479 C 0.70742 0.9955 0.95176 0.0
C1480 C 0.69623 0.95472 0.04681 0.0
C1481 C 0.67975 0.93022 0.03883 0.0
C1482 C 0.69467 0.98391 0.03206 0.0
C1483 C 0.67628 0.98893 0.00846 0.0
C1484 C 0.65937 0.96454 0.00042 0.0
C1485 C 0.66125 0.93549 0.01576 0.0
C1486 C 0.71305 0.00927 0.0414 0.0
C1487 C 0.6396 0.96899 0.97522 0.0
H1488 H 0.65287 0.09349 0.99437 0.0
H1489 H 0.7058 0.05377 0.92887 0.0
H1490 H 0.63162 0.02228 0.02712 0.0
H1491 H 0.65655 0.03705 0.05122 0.0
H1492 H 0.63391 0.06371 0.03439 0.0
H1493 H 0.71754 1.00149 0.92967 0.0
H1494 H 0.72157 0.9884 0.96965 0.0
H1495 H 0.69514 0.97499 0.94723 0.0
H1496 H 0.71047 0.95121 0.06479 0.0
H1497 H 0.64832 0.91687 0.00951 0.0
H1498 H 0.70267 0.03078 0.04804 0.0
H1499 H 0.72533 0.0152 0.02112 0.0
H1500 H 0.72525 1.00222 0.06145 0.0
H1501 H 0.6279 0.98981 0.98053 0.0
H1502 H 0.627 0.94837 0.97291 0.0
H1503 H 0.64892 0.97323 0.95223 0.0
C1504 C 0.35398 0.93367 0.48191 0.0
C1505 C 0.33823 0.92864 0.45583 0.0
C1506 C 0.35564 0.9633 0.49613 0.0
C1507 C 0.34142 0.98854 0.48379 0.0
C1508 C 0.32619 0.98382 0.45686 0.0
C1509 C 0.32469 0.95401 0.44336 0.0
C1510 C 0.37193 0.96735 0.52498 0.0
C1511 C 0.31084 0.01008 0.4428 0.0
C1512 C 0.31938 0.05302 0.53835 0.0
C1513 C 0.33605 0.0776 0.53122 0.0
C1514 C 0.32136 0.02391 0.52355 0.0
C1515 C 0.34034 0.01903 0.50069 0.0
C1516 C 0.35726 0.0436 0.49321 0.0
C1517 C 0.35499 0.07259 0.50866 0.0
C1518 C 0.30295 0.99837 0.53236 0.0
C1519 C 0.37761 0.0393 0.46873 0.0
H1520 H 0.36463 0.91433 0.49163 0.0
H1521 H 0.31271 0.95065 0.42295 0.0
H1522 H 0.38484 0.98752 0.52193 0.0
H1523 H 0.3598 0.97241 0.54565 0.0
H1524 H 0.38336 0.94621 0.53015 0.0
H1525 H 0.30174 1.0033 0.42026 0.0
H1526 H 0.29587 0.01723 0.45957 0.0
H1527 H 0.32298 0.03077 0.43855 0.0
H1528 H 0.30476 0.0563 0.55587 0.0
H1529 H 0.36804 0.09128 0.50304 0.0
H1530 H 0.31336 0.97723 0.54007 0.0
H1531 H 0.29151 0.99175 0.51153 0.0
H1532 H 0.28992 0.00555 0.55152 0.0
H1533 H 0.38978 0.01918 0.47507 0.0
H1534 H 0.38967 0.06038 0.46615 0.0
H1535 H 0.36889 0.03393 0.44562 0.0
C1536 C 0.3672 0.97763 0.07044 0.0
C1537 C 0.36503 0.94732 0.05797 0.0
C1538 C 0.36564 1.00406 0.05119 0.0
C1539 C 0.36141 1.00029 0.0186 0.0
C1540 C 0.35736 0.97 0.00611 0.0
C1541 C 0.35934 0.94377 0.02594 0.0
C1542 C 0.3703 0.03586 0.06547 0.0
C1543 C 0.3523 0.96517 0.97151 0.0
C1544 C 0.34799 0.07368 0.97067 0.0
C1545 C 0.37177 0.07939 0.95749 0.0
C1546 C 0.34409 0.04766 0.99033 0.0
C1547 C 0.36462 0.02757 0.99731 0.0
C1548 C 0.38883 0.03403 0.98476 0.0
C1549 C 0.392 0.05962 0.96468 0.0
C1550 C 0.31795 0.04116 0.00285 0.0
C1551 C 0.41139 0.01376 0.99228 0.0
H1552 H 0.37114 0.98086 0.09526 0.0
H1553 H 0.35736 0.92055 0.01612 0.0
H1554 H 0.38869 0.04503 0.05703 0.0
H1555 H 0.35551 0.05261 0.05799 0.0
H1556 H 0.37071 0.03511 0.0916 0.0
H1557 H 0.34592 0.941 0.96633 0.0
H1558 H 0.33774 0.98182 0.96307 0.0
H1559 H 0.36982 0.96975 0.95795 0.0
H1560 H 0.33228 0.0887 0.96447 0.0
H1561 H 0.41035 0.06409 0.95425 0.0
H1562 H 0.31832 0.03972 0.02891 0.0
H1563 H 0.31129 0.01821 0.99401 0.0
H1564 H 0.30414 0.05937 0.99575 0.0
H1565 H 0.41427 0.01266 0.01813 0.0
H1566 H 0.42903 0.02254 0.98122 0.0
H1567 H 0.40799 0.98958 0.98396 0.0
C1568 C 0.62758 0.05865 0.52676 0.0
C1569 C 0.6486 0.07444 0.53866 0.0
C1570 C 0.63047 0.0325 0.50737 0.0
C1571 C 0.65506 0.02156 0.50026 0.0
C1572 C 0.67645 0.03786 0.51181 0.0
C1573 C 0.67294 0.06432 0.53092 0.0
C1574 C 0.60717 0.01614 0.49514 0.0
C1575 C 0.7029 0.02671 0.50493 0.0
C1576 C 0.65454 0.93652 0.4752 0.0
C1577 C 0.6531 0.93953 0.44241 0.0
C1578 C 0.65697 0.96305 0.49448 0.0
C1579 C 0.65797 0.99312 0.48055 0.0
C1580 C 0.65838 0.99603 0.44744 0.0
C1581 C 0.656 0.96925 0.42882 0.0
C1582 C 0.65682 0.95904 0.52976 0.0
C1583 C 0.65948 0.02759 0.43162 0.0
H1584 H 0.60879 0.0664 0.53335 0.0
H1585 H 0.68912 0.07626 0.54091 0.0
H1586 H 0.60783 0.01474 0.46908 0.0
H1587 H 0.60652 0.99188 0.50427 0.0
H1588 H 0.58948 0.02823 0.50212 0.0
H1589 H 0.71747 0.04302 0.51408 0.0
H1590 H 0.70587 1.00347 0.51586 0.0
H1591 H 0.70566 0.02388 0.47922 0.0
H1592 H 0.6525 0.91367 0.48589 0.0
H1593 H 0.65542 0.97182 0.40345 0.0
H1594 H 0.63849 0.96724 0.53932 0.0
H1595 H 0.67188 0.9734 0.54073 0.0
H1596 H 0.65953 0.93429 0.5368 0.0
H1597 H 0.64135 0.04002 0.43539 0.0
H1598 H 0.66281 0.02565 0.40588 0.0
H1599 H 0.67465 0.04215 0.44205 0.0
loop_
_geom_bond_atom_site_label_1
_geom_bond_atom_site_label_2
_geom_bond_distance
_geom_bond_site_symmetry_2
_ccdc_geom_bond_type
Mn0 O5 2.095 . S
Mn0 O15 2.162 . S
Mn0 O16 2.297 . S
Mn0 O24 2.385 . S
Mn0 O25 2.209 . S
Mn0 O26 2.094 . S
Mn1 O6 2.121 . S
Mn1 N8 2.257 . S
Mn1 N17 2.282 . S
Mn1 O25 2.215 . S
Mn1 O27 2.117 . S
C2 O24 1.234 . S
C2 O25 1.283 . S
C3 O15 1.281 . S
C3 O16 1.236 . S
C4 O26 1.240 . S
C4 O27 1.264 . S
O5 Mn0 2.095 . S
O5 C14 1.250 . S
O6 Mn1 2.121 . S
O6 C14 1.258 . S
C7 N8 1.326 . S
C7 C11 1.460 . S
C7 H13 0.929 . S
N8 Mn1 2.257 . S
N8 C7 1.326 . S
N8 C12 1.362 . S
C9 C10 1.258 . S
C9 C12 1.431 . S
C9 C29 1.449 . S
C10 C9 1.258 . S
C10 C11 1.477 . S
C10 H30 0.931 . S
C11 C7 1.460 . S
C11 C10 1.477 . S
C11 H31 0.930 . S
C12 N8 1.362 . S
C12 C9 1.431 . S
C12 C22 1.476 . S
H13 C7 0.929 . S
C14 O5 1.250 . S
C14 O6 1.258 . S
O15 Mn0 2.162 . S
O15 C3 1.281 . S
O16 Mn0 2.297 . S
O16 C3 1.236 . S
N17 Mn1 2.282 . S
N17 C18 1.328 . S
N17 C22 1.318 . S
C18 N17 1.328 . S
C18 C19 1.457 . S
C18 H23 0.929 . S
C19 C18 1.457 . S
C19 C20 1.291 . S
C19 H32 0.931 . S
C20 C19 1.291 . S
C20 C21 1.373 . S
C20 H33 0.929 . S
C21 C20 1.373 . S
C21 C22 1.396 . S
C21 C28 1.403 . S
C22 C12 1.476 . S
C22 N17 1.318 . S
C22 C21 1.396 . S
H23 C18 0.929 . S
O24 Mn0 2.385 . S
O24 C2 1.234 . S
O25 Mn0 2.209 . S
O25 Mn1 2.215 . S
O25 C2 1.283 . S
O26 Mn0 2.094 . S
O26 C4 1.240 . S
O27 Mn1 2.117 . S
O27 C4 1.264 . S
C28 C21 1.403 . S
C28 C29 1.399 . S
C28 H34 0.929 . S
C29 C9 1.449 . S
C29 C28 1.399 . S
C29 H35 0.930 . S
H30 C10 0.931 . S
H31 C11 0.930 . S
H32 C19 0.931 . S
H33 C20 0.929 . S
H34 C28 0.929 . S
H35 C29 0.930 . S
Mn36 O41 2.095 . S
Mn36 O51 2.162 . S
Mn36 O52 2.297 . S
Mn36 O60 2.385 . S
Mn36 O61 2.209 . S
Mn36 O62 2.094 . S
Mn37 O42 2.121 . S
Mn37 N44 2.257 . S
Mn37 N53 2.282 . S
Mn37 O61 2.215 . S
Mn37 O63 2.117 . S
C38 O60 1.234 . S
C38 O61 1.283 . S
C39 O51 1.281 . S
C39 O52 1.236 . S
C40 O62 1.240 . S
C40 O63 1.264 . S
O41 Mn36 2.095 . S
O41 C50 1.250 . S
O42 Mn37 2.121 . S
O42 C50 1.258 . S
C43 N44 1.326 . S
C43 C47 1.460 . S
C43 H49 0.929 . S
N44 Mn37 2.257 . S
N44 C43 1.326 . S
N44 C48 1.362 . S
C45 C46 1.258 . S
C45 C48 1.431 . S
C45 C65 1.449 . S
C46 C45 1.258 . S
C46 C47 1.477 . S
C46 H66 0.931 . S
C47 C43 1.460 . S
C47 C46 1.477 . S
C47 H67 0.930 . S
C48 N44 1.362 . S
C48 C45 1.431 . S
C48 C58 1.476 . S
H49 C43 0.929 . S
C50 O41 1.250 . S
C50 O42 1.258 . S
O51 Mn36 2.162 . S
O51 C39 1.281 . S
O52 Mn36 2.297 . S
O52 C39 1.236 . S
N53 Mn37 2.282 . S
N53 C54 1.328 . S
N53 C58 1.318 . S
C54 N53 1.328 . S
C54 C55 1.457 . S
C54 H59 0.929 . S
C55 C54 1.457 . S
C55 C56 1.291 . S
C55 H68 0.931 . S
C56 C55 1.291 . S
C56 C57 1.373 . S
C56 H69 0.929 . S
C57 C56 1.373 . S
C57 C58 1.396 . S
C57 C64 1.403 . S
C58 C48 1.476 . S
C58 N53 1.318 . S
C58 C57 1.396 . S
H59 C54 0.929 . S
O60 Mn36 2.385 . S
O60 C38 1.234 . S
O61 Mn36 2.209 . S
O61 Mn37 2.215 . S
O61 C38 1.283 . S
O62 Mn36 2.094 . S
O62 C40 1.240 . S
O63 Mn37 2.117 . S
O63 C40 1.264 . S
C64 C57 1.403 . S
C64 C65 1.399 . S
C64 H70 0.929 . S
C65 C45 1.449 . S
C65 C64 1.399 . S
C65 H71 0.930 . S
H66 C46 0.931 . S
H67 C47 0.930 . S
H68 C55 0.931 . S
H69 C56 0.929 . S
H70 C64 0.929 . S
H71 C65 0.930 . S
Mn72 O77 2.095 . S
Mn72 O87 2.162 . S
Mn72 O88 2.297 . S
Mn72 O96 2.385 . S
Mn72 O97 2.209 . S
Mn72 O98 2.094 . S
Mn73 O78 2.121 . S
Mn73 N80 2.257 . S
Mn73 N89 2.282 . S
Mn73 O97 2.215 . S
Mn73 O99 2.117 . S
C74 O96 1.234 . S
C74 O97 1.283 . S
C75 O87 1.281 . S
C75 O88 1.236 . S
C76 O98 1.240 . S
C76 O99 1.264 . S
O77 Mn72 2.095 . S
O77 C86 1.250 . S
O78 Mn73 2.121 . S
O78 C86 1.258 . S
C79 N80 1.326 . S
C79 C83 1.460 . S
C79 H85 0.929 . S
N80 Mn73 2.257 . S
N80 C79 1.326 . S
N80 C84 1.362 . S
C81 C82 1.258 . S
C81 C84 1.431 . S
C81 C101 1.449 . S
C82 C81 1.258 . S
C82 C83 1.477 . S
C82 H102 0.931 . S
C83 C79 1.460 . S
C83 C82 1.477 . S
C83 H103 0.930 . S
C84 N80 1.362 . S
C84 C81 1.431 . S
C84 C94 1.476 . S
H85 C79 0.929 . S
C86 O77 1.250 . S
C86 O78 1.258 . S
O87 Mn72 2.162 . S
O87 C75 1.281 . S
O88 Mn72 2.297 . S
O88 C75 1.236 . S
N89 Mn73 2.282 . S
N89 C90 1.328 . S
N89 C94 1.318 . S
C90 N89 1.328 . S
C90 C91 1.457 . S
C90 H95 0.929 . S
C91 C90 1.457 . S
C91 C92 1.291 . S
C91 H104 0.931 . S
C92 C91 1.291 . S
C92 C93 1.373 . S
C92 H105 0.929 . S
C93 C92 1.373 . S
C93 C94 1.396 . S
C93 C100 1.403 . S
C94 C84 1.476 . S
C94 N89 1.318 . S
C94 C93 1.396 . S
H95 C90 0.929 . S
O96 Mn72 2.385 . S
O96 C74 1.234 . S
O97 Mn72 2.209 . S
O97 Mn73 2.215 . S
O97 C74 1.283 . S
O98 Mn72 2.094 . S
O98 C76 1.240 . S
O99 Mn73 2.117 . S
O99 C76 1.264 . S
C100 C93 1.403 . S
C100 C101 1.399 . S
C100 H106 0.929 . S
C101 C81 1.449 . S
C101 C100 1.399 . S
C101 H107 0.930 . S
H102 C82 0.931 . S
H103 C83 0.930 . S
H104 C91 0.931 . S
H105 C92 0.929 . S
H106 C100 0.929 . S
H107 C101 0.930 . S
Mn108 O113 2.095 . S
Mn108 O123 2.162 . S
Mn108 O124 2.297 . S
Mn108 O132 2.385 . S
Mn108 O133 2.209 . S
Mn108 O134 2.094 . S
Mn109 O114 2.121 . S
Mn109 N116 2.257 . S
Mn109 N125 2.282 . S
Mn109 O133 2.215 . S
Mn109 O135 2.117 . S
C110 O132 1.234 . S
C110 O133 1.283 . S
C111 O123 1.281 . S
C111 O124 1.236 . S
C112 O134 1.240 . S
C112 O135 1.264 . S
O113 Mn108 2.095 . S
O113 C122 1.250 . S
O114 Mn109 2.121 . S
O114 C122 1.258 . S
C115 N116 1.326 . S
C115 C119 1.460 . S
C115 H121 0.929 . S
N116 Mn109 2.257 . S
N116 C115 1.326 . S
N116 C120 1.362 . S
C117 C118 1.258 . S
C117 C120 1.431 . S
C117 C137 1.449 . S
C118 C117 1.258 . S
C118 C119 1.477 . S
C118 H138 0.931 . S
C119 C115 1.460 . S
C119 C118 1.477 . S
C119 H139 0.930 . S
C120 N116 1.362 . S
C120 C117 1.431 . S
C120 C130 1.476 . S
H121 C115 0.929 . S
C122 O113 1.250 . S
C122 O114 1.258 . S
O123 Mn108 2.162 . S
O123 C111 1.281 . S
O124 Mn108 2.297 . S
O124 C111 1.236 . S
N125 Mn109 2.282 . S
N125 C126 1.328 . S
N125 C130 1.318 . S
C126 N125 1.328 . S
C126 C127 1.457 . S
C126 H131 0.929 . S
C127 C126 1.457 . S
C127 C128 1.291 . S
C127 H140 0.931 . S
C128 C127 1.291 . S
C128 C129 1.373 . S
C128 H141 0.929 . S
C129 C128 1.373 . S
C129 C130 1.396 . S
C129 C136 1.403 . S
C130 C120 1.476 . S
C130 N125 1.318 . S
C130 C129 1.396 . S
H131 C126 0.929 . S
O132 Mn108 2.385 . S
O132 C110 1.234 . S
O133 Mn108 2.209 . S
O133 Mn109 2.215 . S
O133 C110 1.283 . S
O134 Mn108 2.094 . S
O134 C112 1.240 . S
O135 Mn109 2.117 . S
O135 C112 1.264 . S
C136 C129 1.403 . S
C136 C137 1.399 . S
C136 H142 0.929 . S
C137 C117 1.449 . S
C137 C136 1.399 . S
C137 H143 0.930 . S
H138 C118 0.931 . S
H139 C119 0.930 . S
H140 C127 0.931 . S
H141 C128 0.929 . S
H142 C136 0.929 . S
H143 C137 0.930 . S
Mn144 O149 2.095 . S
Mn144 O159 2.162 . S
Mn144 O160 2.297 . S
Mn144 O168 2.385 . S
Mn144 O169 2.209 . S
Mn144 O170 2.094 . S
Mn145 O150 2.121 . S
Mn145 N152 2.257 . S
Mn145 N161 2.282 . S
Mn145 O169 2.215 . S
Mn145 O171 2.117 . S
C146 O168 1.234 . S
C146 O169 1.283 . S
C147 O159 1.281 . S
C147 O160 1.236 . S
C148 O170 1.240 . S
C148 O171 1.264 . S
O149 Mn144 2.095 . S
O149 C158 1.250 . S
O150 Mn145 2.121 . S
O150 C158 1.258 . S
C151 N152 1.326 . S
C151 C155 1.460 . S
C151 H157 0.929 . S
N152 Mn145 2.257 . S
N152 C151 1.326 . S
N152 C156 1.362 . S
C153 C154 1.258 . S
C153 C156 1.431 . S
C153 C173 1.449 . S
C154 C153 1.258 . S
C154 C155 1.477 . S
C154 H174 0.931 . S
C155 C151 1.460 . S
C155 C154 1.477 . S
C155 H175 0.930 . S
C156 N152 1.362 . S
C156 C153 1.431 . S
C156 C166 1.476 . S
H157 C151 0.929 . S
C158 O149 1.250 . S
C158 O150 1.258 . S
O159 Mn144 2.162 . S
O159 C147 1.281 . S
O160 Mn144 2.297 . S
O160 C147 1.236 . S
N161 Mn145 2.282 . S
N161 C162 1.328 . S
N161 C166 1.318 . S
C162 N161 1.328 . S
C162 C163 1.457 . S
C162 H167 0.929 . S
C163 C162 1.457 . S
C163 C164 1.291 . S
C163 H176 0.931 . S
C164 C163 1.291 . S
C164 C165 1.373 . S
C164 H177 0.929 . S
C165 C164 1.373 . S
C165 C166 1.396 . S
C165 C172 1.403 . S
C166 C156 1.476 . S
C166 N161 1.318 . S
C166 C165 1.396 . S
H167 C162 0.929 . S
O168 Mn144 2.385 . S
O168 C146 1.234 . S
O169 Mn144 2.209 . S
O169 Mn145 2.215 . S
O169 C146 1.283 . S
O170 Mn144 2.094 . S
O170 C148 1.240 . S
O171 Mn145 2.117 . S
O171 C148 1.264 . S
C172 C165 1.403 . S
C172 C173 1.399 . S
C172 H178 0.929 . S
C173 C153 1.449 . S
C173 C172 1.399 . S
C173 H179 0.930 . S
H174 C154 0.931 . S
H175 C155 0.930 . S
H176 C163 0.931 . S
H177 C164 0.929 . S
H178 C172 0.929 . S
H179 C173 0.930 . S
Mn180 O185 2.095 . S
Mn180 O195 2.162 . S
Mn180 O196 2.297 . S
Mn180 O204 2.385 . S
Mn180 O205 2.209 . S
Mn180 O206 2.094 . S
Mn181 O186 2.121 . S
Mn181 N188 2.257 . S
Mn181 N197 2.282 . S
Mn181 O205 2.215 . S
Mn181 O207 2.117 . S
C182 O204 1.234 . S
C182 O205 1.283 . S
C183 O195 1.281 . S
C183 O196 1.236 . S
C184 O206 1.240 . S
C184 O207 1.264 . S
O185 Mn180 2.095 . S
O185 C194 1.250 . S
O186 Mn181 2.121 . S
O186 C194 1.258 . S
C187 N188 1.326 . S
C187 C191 1.460 . S
C187 H193 0.929 . S
N188 Mn181 2.257 . S
N188 C187 1.326 . S
N188 C192 1.362 . S
C189 C190 1.258 . S
C189 C192 1.431 . S
C189 C209 1.449 . S
C190 C189 1.258 . S
C190 C191 1.477 . S
C190 H210 0.931 . S
C191 C187 1.460 . S
C191 C190 1.477 . S
C191 H211 0.930 . S
C192 N188 1.362 . S
C192 C189 1.431 . S
C192 C202 1.476 . S
H193 C187 0.929 . S
C194 O185 1.250 . S
C194 O186 1.258 . S
O195 Mn180 2.162 . S
O195 C183 1.281 . S
O196 Mn180 2.297 . S
O196 C183 1.236 . S
N197 Mn181 2.282 . S
N197 C198 1.328 . S
N197 C202 1.318 . S
C198 N197 1.328 . S
C198 C199 1.457 . S
C198 H203 0.929 . S
C199 C198 1.457 . S
C199 C200 1.291 . S
C199 H212 0.931 . S
C200 C199 1.291 . S
C200 C201 1.373 . S
C200 H213 0.929 . S
C201 C200 1.373 . S
C201 C202 1.396 . S
C201 C208 1.403 . S
C202 C192 1.476 . S
C202 N197 1.318 . S
C202 C201 1.396 . S
H203 C198 0.929 . S
O204 Mn180 2.385 . S
O204 C182 1.234 . S
O205 Mn180 2.209 . S
O205 Mn181 2.215 . S
O205 C182 1.283 . S
O206 Mn180 2.094 . S
O206 C184 1.240 . S
O207 Mn181 2.117 . S
O207 C184 1.264 . S
C208 C201 1.403 . S
C208 C209 1.399 . S
C208 H214 0.929 . S
C209 C189 1.449 . S
C209 C208 1.399 . S
C209 H215 0.930 . S
H210 C190 0.931 . S
H211 C191 0.930 . S
H212 C199 0.931 . S
H213 C200 0.929 . S
H214 C208 0.929 . S
H215 C209 0.930 . S
Mn216 O221 2.095 . S
Mn216 O231 2.162 . S
Mn216 O232 2.297 . S
Mn216 O240 2.385 . S
Mn216 O241 2.209 . S
Mn216 O242 2.094 . S
Mn217 O222 2.121 . S
Mn217 N224 2.257 . S
Mn217 N233 2.282 . S
Mn217 O241 2.215 . S
Mn217 O243 2.117 . S
C218 O240 1.234 . S
C218 O241 1.283 . S
C219 O231 1.281 . S
C219 O232 1.236 . S
C220 O242 1.240 . S
C220 O243 1.264 . S
O221 Mn216 2.095 . S
O221 C230 1.250 . S
O222 Mn217 2.121 . S
O222 C230 1.258 . S
C223 N224 1.326 . S
C223 C227 1.460 . S
C223 H229 0.929 . S
N224 Mn217 2.257 . S
N224 C223 1.326 . S
N224 C228 1.362 . S
C225 C226 1.258 . S
C225 C228 1.431 . S
C225 C245 1.449 . S
C226 C225 1.258 . S
C226 C227 1.477 . S
C226 H246 0.931 . S
C227 C223 1.460 . S
C227 C226 1.477 . S
C227 H247 0.930 . S
C228 N224 1.362 . S
C228 C225 1.431 . S
C228 C238 1.476 . S
H229 C223 0.929 . S
C230 O221 1.250 . S
C230 O222 1.258 . S
O231 Mn216 2.162 . S
O231 C219 1.281 . S
O232 Mn216 2.297 . S
O232 C219 1.236 . S
N233 Mn217 2.282 . S
N233 C234 1.328 . S
N233 C238 1.318 . S
C234 N233 1.328 . S
C234 C235 1.457 . S
C234 H239 0.929 . S
C235 C234 1.457 . S
C235 C236 1.291 . S
C235 H248 0.931 . S
C236 C235 1.291 . S
C236 C237 1.373 . S
C236 H249 0.929 . S
C237 C236 1.373 . S
C237 C238 1.396 . S
C237 C244 1.403 . S
C238 C228 1.476 . S
C238 N233 1.318 . S
C238 C237 1.396 . S
H239 C234 0.929 . S
O240 Mn216 2.385 . S
O240 C218 1.234 . S
O241 Mn216 2.209 . S
O241 Mn217 2.215 . S
O241 C218 1.283 . S
O242 Mn216 2.094 . S
O242 C220 1.240 . S
O243 Mn217 2.117 . S
O243 C220 1.264 . S
C244 C237 1.403 . S
C244 C245 1.399 . S
C244 H250 0.929 . S
C245 C225 1.449 . S
C245 C244 1.399 . S
C245 H251 0.930 . S
H246 C226 0.931 . S
H247 C227 0.930 . S
H248 C235 0.931 . S
H249 C236 0.929 . S
H250 C244 0.929 . S
H251 C245 0.930 . S
Mn252 O257 2.095 . S
Mn252 O267 2.162 . S
Mn252 O268 2.297 . S
Mn252 O276 2.385 . S
Mn252 O277 2.209 . S
Mn252 O278 2.094 . S
Mn253 O258 2.121 . S
Mn253 N260 2.257 . S
Mn253 N269 2.282 . S
Mn253 O277 2.215 . S
Mn253 O279 2.117 . S
C254 O276 1.234 . S
C254 O277 1.283 . S
C255 O267 1.281 . S
C255 O268 1.236 . S
C256 O278 1.240 . S
C256 O279 1.264 . S
O257 Mn252 2.095 . S
O257 C266 1.250 . S
O258 Mn253 2.121 . S
O258 C266 1.258 . S
C259 N260 1.326 . S
C259 C263 1.460 . S
C259 H265 0.929 . S
N260 Mn253 2.257 . S
N260 C259 1.326 . S
N260 C264 1.362 . S
C261 C262 1.258 . S
C261 C264 1.431 . S
C261 C281 1.449 . S
C262 C261 1.258 . S
C262 C263 1.477 . S
C262 H282 0.931 . S
C263 C259 1.460 . S
C263 C262 1.477 . S
C263 H283 0.930 . S
C264 N260 1.362 . S
C264 C261 1.431 . S
C264 C274 1.476 . S
H265 C259 0.929 . S
C266 O257 1.250 . S
C266 O258 1.258 . S
O267 Mn252 2.162 . S
O267 C255 1.281 . S
O268 Mn252 2.297 . S
O268 C255 1.236 . S
N269 Mn253 2.282 . S
N269 C270 1.328 . S
N269 C274 1.318 . S
C270 N269 1.328 . S
C270 C271 1.457 . S
C270 H275 0.929 . S
C271 C270 1.457 . S
C271 C272 1.291 . S
C271 H284 0.931 . S
C272 C271 1.291 . S
C272 C273 1.373 . S
C272 H285 0.929 . S
C273 C272 1.373 . S
C273 C274 1.396 . S
C273 C280 1.403 . S
C274 C264 1.476 . S
C274 N269 1.318 . S
C274 C273 1.396 . S
H275 C270 0.929 . S
O276 Mn252 2.385 . S
O276 C254 1.234 . S
O277 Mn252 2.209 . S
O277 Mn253 2.215 . S
O277 C254 1.283 . S
O278 Mn252 2.094 . S
O278 C256 1.240 . S
O279 Mn253 2.117 . S
O279 C256 1.264 . S
C280 C273 1.403 . S
C280 C281 1.399 . S
C280 H286 0.929 . S
C281 C261 1.449 . S
C281 C280 1.399 . S
C281 H287 0.930 . S
H282 C262 0.931 . S
H283 C263 0.930 . S
H284 C271 0.931 . S
H285 C272 0.929 . S
H286 C280 0.929 . S
H287 C281 0.930 . S
Mn288 O293 2.095 . S
Mn288 O303 2.162 . S
Mn288 O304 2.297 . S
Mn288 O312 2.385 . S
Mn288 O313 2.209 . S
Mn288 O314 2.094 . S
Mn289 O294 2.121 . S
Mn289 N296 2.257 . S
Mn289 N305 2.282 . S
Mn289 O313 2.215 . S
Mn289 O315 2.117 . S
C290 O312 1.234 . S
C290 O313 1.283 . S
C291 O303 1.281 . S
C291 O304 1.236 . S
C292 O314 1.240 . S
C292 O315 1.264 . S
O293 Mn288 2.095 . S
O293 C302 1.250 . S
O294 Mn289 2.121 . S
O294 C302 1.258 . S
C295 N296 1.326 . S
C295 C299 1.460 . S
C295 H301 0.929 . S
N296 Mn289 2.257 . S
N296 C295 1.326 . S
N296 C300 1.362 . S
C297 C298 1.258 . S
C297 C300 1.431 . S
C297 C317 1.449 . S
C298 C297 1.258 . S
C298 C299 1.477 . S
C298 H318 0.931 . S
C299 C295 1.460 . S
C299 C298 1.477 . S
C299 H319 0.930 . S
C300 N296 1.362 . S
C300 C297 1.431 . S
C300 C310 1.476 . S
H301 C295 0.929 . S
C302 O293 1.250 . S
C302 O294 1.258 . S
O303 Mn288 2.162 . S
O303 C291 1.281 . S
O304 Mn288 2.297 . S
O304 C291 1.236 . S
N305 Mn289 2.282 . S
N305 C306 1.328 . S
N305 C310 1.318 . S
C306 N305 1.328 . S
C306 C307 1.457 . S
C306 H311 0.929 . S
C307 C306 1.457 . S
C307 C308 1.291 . S
C307 H320 0.931 . S
C308 C307 1.291 . S
C308 C309 1.373 . S
C308 H321 0.929 . S
C309 C308 1.373 . S
C309 C310 1.396 . S
C309 C316 1.403 . S
C310 C300 1.476 . S
C310 N305 1.318 . S
C310 C309 1.396 . S
H311 C306 0.929 . S
O312 Mn288 2.385 . S
O312 C290 1.234 . S
O313 Mn288 2.209 . S
O313 Mn289 2.215 . S
O313 C290 1.283 . S
O314 Mn288 2.094 . S
O314 C292 1.240 . S
O315 Mn289 2.117 . S
O315 C292 1.264 . S
C316 C309 1.403 . S
C316 C317 1.399 . S
C316 H322 0.929 . S
C317 C297 1.449 . S
C317 C316 1.399 . S
C317 H323 0.930 . S
H318 C298 0.931 . S
H319 C299 0.930 . S
H320 C307 0.931 . S
H321 C308 0.929 . S
H322 C316 0.929 . S
H323 C317 0.930 . S
Mn324 O329 2.095 . S
Mn324 O339 2.162 . S
Mn324 O340 2.297 . S
Mn324 O348 2.385 . S
Mn324 O349 2.209 . S
Mn324 O350 2.094 . S
Mn325 O330 2.121 . S
Mn325 N332 2.257 . S
Mn325 N341 2.282 . S
Mn325 O349 2.215 . S
Mn325 O351 2.117 . S
C326 O348 1.234 . S
C326 O349 1.283 . S
C327 O339 1.281 . S
C327 O340 1.236 . S
C328 O350 1.240 . S
C328 O351 1.264 . S
O329 Mn324 2.095 . S
O329 C338 1.250 . S
O330 Mn325 2.121 . S
O330 C338 1.258 . S
C331 N332 1.326 . S
C331 C335 1.460 . S
C331 H337 0.929 . S
N332 Mn325 2.257 . S
N332 C331 1.326 . S
N332 C336 1.362 . S
C333 C334 1.258 . S
C333 C336 1.431 . S
C333 C353 1.449 . S
C334 C333 1.258 . S
C334 C335 1.477 . S
C334 H354 0.931 . S
C335 C331 1.460 . S
C335 C334 1.477 . S
C335 H355 0.930 . S
C336 N332 1.362 . S
C336 C333 1.431 . S
C336 C346 1.476 . S
H337 C331 0.929 . S
C338 O329 1.250 . S
C338 O330 1.258 . S
O339 Mn324 2.162 . S
O339 C327 1.281 . S
O340 Mn324 2.297 . S
O340 C327 1.236 . S
N341 Mn325 2.282 . S
N341 C342 1.328 . S
N341 C346 1.318 . S
C342 N341 1.328 . S
C342 C343 1.457 . S
C342 H347 0.929 . S
C343 C342 1.457 . S
C343 C344 1.291 . S
C343 H356 0.931 . S
C344 C343 1.291 . S
C344 C345 1.373 . S
C344 H357 0.929 . S
C345 C344 1.373 . S
C345 C346 1.396 . S
C345 C352 1.403 . S
C346 C336 1.476 . S
C346 N341 1.318 . S
C346 C345 1.396 . S
H347 C342 0.929 . S
O348 Mn324 2.385 . S
O348 C326 1.234 . S
O349 Mn324 2.209 . S
O349 Mn325 2.215 . S
O349 C326 1.283 . S
O350 Mn324 2.094 . S
O350 C328 1.240 . S
O351 Mn325 2.117 . S
O351 C328 1.264 . S
C352 C345 1.403 . S
C352 C353 1.399 . S
C352 H358 0.929 . S
C353 C333 1.449 . S
C353 C352 1.399 . S
C353 H359 0.930 . S
H354 C334 0.931 . S
H355 C335 0.930 . S
H356 C343 0.931 . S
H357 C344 0.929 . S
H358 C352 0.929 . S
H359 C353 0.930 . S
Mn360 O365 2.095 . S
Mn360 O375 2.162 . S
Mn360 O376 2.297 . S
Mn360 O384 2.385 . S
Mn360 O385 2.209 . S
Mn360 O386 2.094 . S
Mn361 O366 2.121 . S
Mn361 N368 2.257 . S
Mn361 N377 2.282 . S
Mn361 O385 2.215 . S
Mn361 O387 2.117 . S
C362 O384 1.234 . S
C362 O385 1.283 . S
C363 O375 1.281 . S
C363 O376 1.236 . S
C364 O386 1.240 . S
C364 O387 1.264 . S
O365 Mn360 2.095 . S
O365 C374 1.250 . S
O366 Mn361 2.121 . S
O366 C374 1.258 . S
C367 N368 1.326 . S
C367 C371 1.460 . S
C367 H373 0.929 . S
N368 Mn361 2.257 . S
N368 C367 1.326 . S
N368 C372 1.362 . S
C369 C370 1.258 . S
C369 C372 1.431 . S
C369 C389 1.449 . S
C370 C369 1.258 . S
C370 C371 1.477 . S
C370 H390 0.931 . S
C371 C367 1.460 . S
C371 C370 1.477 . S
C371 H391 0.930 . S
C372 N368 1.362 . S
C372 C369 1.431 . S
C372 C382 1.476 . S
H373 C367 0.929 . S
C374 O365 1.250 . S
C374 O366 1.258 . S
O375 Mn360 2.162 . S
O375 C363 1.281 . S
O376 Mn360 2.297 . S
O376 C363 1.236 . S
N377 Mn361 2.282 . S
N377 C378 1.328 . S
N377 C382 1.318 . S
C378 N377 1.328 . S
C378 C379 1.457 . S
C378 H383 0.929 . S
C379 C378 1.457 . S
C379 C380 1.291 . S
C379 H392 0.931 . S
C380 C379 1.291 . S
C380 C381 1.373 . S
C380 H393 0.929 . S
C381 C380 1.373 . S
C381 C382 1.396 . S
C381 C388 1.403 . S
C382 C372 1.476 . S
C382 N377 1.318 . S
C382 C381 1.396 . S
H383 C378 0.929 . S
O384 Mn360 2.385 . S
O384 C362 1.234 . S
O385 Mn360 2.209 . S
O385 Mn361 2.215 . S
O385 C362 1.283 . S
O386 Mn360 2.094 . S
O386 C364 1.240 . S
O387 Mn361 2.117 . S
O387 C364 1.264 . S
C388 C381 1.403 . S
C388 C389 1.399 . S
C388 H394 0.929 . S
C389 C369 1.449 . S
C389 C388 1.399 . S
C389 H395 0.930 . S
H390 C370 0.931 . S
H391 C371 0.930 . S
H392 C379 0.931 . S
H393 C380 0.929 . S
H394 C388 0.929 . S
H395 C389 0.930 . S
Mn396 O401 2.095 . S
Mn396 O411 2.162 . S
Mn396 O412 2.297 . S
Mn396 O420 2.385 . S
Mn396 O421 2.209 . S
Mn396 O422 2.094 . S
Mn397 O402 2.121 . S
Mn397 N404 2.257 . S
Mn397 N413 2.282 . S
Mn397 O421 2.215 . S
Mn397 O423 2.117 . S
C398 O420 1.234 . S
C398 O421 1.283 . S
C399 O411 1.281 . S
C399 O412 1.236 . S
C400 O422 1.240 . S
C400 O423 1.264 . S
O401 Mn396 2.095 . S
O401 C410 1.250 . S
O402 Mn397 2.121 . S
O402 C410 1.258 . S
C403 N404 1.326 . S
C403 C407 1.460 . S
C403 H409 0.929 . S
N404 Mn397 2.257 . S
N404 C403 1.326 . S
N404 C408 1.362 . S
C405 C406 1.258 . S
C405 C408 1.431 . S
C405 C425 1.449 . S
C406 C405 1.258 . S
C406 C407 1.477 . S
C406 H426 0.931 . S
C407 C403 1.460 . S
C407 C406 1.477 . S
C407 H427 0.930 . S
C408 N404 1.362 . S
C408 C405 1.431 . S
C408 C418 1.476 . S
H409 C403 0.929 . S
C410 O401 1.250 . S
C410 O402 1.258 . S
O411 Mn396 2.162 . S
O411 C399 1.281 . S
O412 Mn396 2.297 . S
O412 C399 1.236 . S
N413 Mn397 2.282 . S
N413 C414 1.328 . S
N413 C418 1.318 . S
C414 N413 1.328 . S
C414 C415 1.457 . S
C414 H419 0.929 . S
C415 C414 1.457 . S
C415 C416 1.291 . S
C415 H428 0.931 . S
C416 C415 1.291 . S
C416 C417 1.373 . S
C416 H429 0.929 . S
C417 C416 1.373 . S
C417 C418 1.396 . S
C417 C424 1.403 . S
C418 C408 1.476 . S
C418 N413 1.318 . S
C418 C417 1.396 . S
H419 C414 0.929 . S
O420 Mn396 2.385 . S
O420 C398 1.234 . S
O421 Mn396 2.209 . S
O421 Mn397 2.215 . S
O421 C398 1.283 . S
O422 Mn396 2.094 . S
O422 C400 1.240 . S
O423 Mn397 2.117 . S
O423 C400 1.264 . S
C424 C417 1.403 . S
C424 C425 1.399 . S
C424 H430 0.929 . S
C425 C405 1.449 . S
C425 C424 1.399 . S
C425 H431 0.930 . S
H426 C406 0.931 . S
H427 C407 0.930 . S
H428 C415 0.931 . S
H429 C416 0.929 . S
H430 C424 0.929 . S
H431 C425 0.930 . S
Mn432 O437 2.095 . S
Mn432 O447 2.162 . S
Mn432 O448 2.297 . S
Mn432 O456 2.385 . S
Mn432 O457 2.209 . S
Mn432 O458 2.094 . S
Mn433 O438 2.121 . S
Mn433 N440 2.257 . S
Mn433 N449 2.282 . S
Mn433 O457 2.215 . S
Mn433 O459 2.117 . S
C434 O456 1.234 . S
C434 O457 1.283 . S
C435 O447 1.281 . S
C435 O448 1.236 . S
C436 O458 1.240 . S
C436 O459 1.264 . S
O437 Mn432 2.095 . S
O437 C446 1.250 . S
O438 Mn433 2.121 . S
O438 C446 1.258 . S
C439 N440 1.326 . S
C439 C443 1.460 . S
C439 H445 0.929 . S
N440 Mn433 2.257 . S
N440 C439 1.326 . S
N440 C444 1.362 . S
C441 C442 1.258 . S
C441 C444 1.431 . S
C441 C461 1.449 . S
C442 C441 1.258 . S
C442 C443 1.477 . S
C442 H462 0.931 . S
C443 C439 1.460 . S
C443 C442 1.477 . S
C443 H463 0.930 . S
C444 N440 1.362 . S
C444 C441 1.431 . S
C444 C454 1.476 . S
H445 C439 0.929 . S
C446 O437 1.250 . S
C446 O438 1.258 . S
O447 Mn432 2.162 . S
O447 C435 1.281 . S
O448 Mn432 2.297 . S
O448 C435 1.236 . S
N449 Mn433 2.282 . S
N449 C450 1.328 . S
N449 C454 1.318 . S
C450 N449 1.328 . S
C450 C451 1.457 . S
C450 H455 0.929 . S
C451 C450 1.457 . S
C451 C452 1.291 . S
C451 H464 0.931 . S
C452 C451 1.291 . S
C452 C453 1.373 . S
C452 H465 0.929 . S
C453 C452 1.373 . S
C453 C454 1.396 . S
C453 C460 1.403 . S
C454 C444 1.476 . S
C454 N449 1.318 . S
C454 C453 1.396 . S
H455 C450 0.929 . S
O456 Mn432 2.385 . S
O456 C434 1.234 . S
O457 Mn432 2.209 . S
O457 Mn433 2.215 . S
O457 C434 1.283 . S
O458 Mn432 2.094 . S
O458 C436 1.240 . S
O459 Mn433 2.117 . S
O459 C436 1.264 . S
C460 C453 1.403 . S
C460 C461 1.399 . S
C460 H466 0.929 . S
C461 C441 1.449 . S
C461 C460 1.399 . S
C461 H467 0.930 . S
H462 C442 0.931 . S
H463 C443 0.930 . S
H464 C451 0.931 . S
H465 C452 0.929 . S
H466 C460 0.929 . S
H467 C461 0.930 . S
Mn468 O473 2.095 . S
Mn468 O483 2.162 . S
Mn468 O484 2.297 . S
Mn468 O492 2.385 . S
Mn468 O493 2.209 . S
Mn468 O494 2.094 . S
Mn469 O474 2.121 . S
Mn469 N476 2.257 . S
Mn469 N485 2.282 . S
Mn469 O493 2.215 . S
Mn469 O495 2.117 . S
C470 O492 1.234 . S
C470 O493 1.283 . S
C471 O483 1.281 . S
C471 O484 1.236 . S
C472 O494 1.240 . S
C472 O495 1.264 . S
O473 Mn468 2.095 . S
O473 C482 1.250 . S
O474 Mn469 2.121 . S
O474 C482 1.258 . S
C475 N476 1.326 . S
C475 C479 1.460 . S
C475 H481 0.929 . S
N476 Mn469 2.257 . S
N476 C475 1.326 . S
N476 C480 1.362 . S
C477 C478 1.258 . S
C477 C480 1.431 . S
C477 C497 1.449 . S
C478 C477 1.258 . S
C478 C479 1.477 . S
C478 H498 0.931 . S
C479 C475 1.460 . S
C479 C478 1.477 . S
C479 H499 0.930 . S
C480 N476 1.362 . S
C480 C477 1.431 . S
C480 C490 1.476 . S
H481 C475 0.929 . S
C482 O473 1.250 . S
C482 O474 1.258 . S
O483 Mn468 2.162 . S
O483 C471 1.281 . S
O484 Mn468 2.297 . S
O484 C471 1.236 . S
N485 Mn469 2.282 . S
N485 C486 1.328 . S
N485 C490 1.318 . S
C486 N485 1.328 . S
C486 C487 1.457 . S
C486 H491 0.929 . S
C487 C486 1.457 . S
C487 C488 1.291 . S
C487 H500 0.931 . S
C488 C487 1.291 . S
C488 C489 1.373 . S
C488 H501 0.929 . S
C489 C488 1.373 . S
C489 C490 1.396 . S
C489 C496 1.403 . S
C490 C480 1.476 . S
C490 N485 1.318 . S
C490 C489 1.396 . S
H491 C486 0.929 . S
O492 Mn468 2.385 . S
O492 C470 1.234 . S
O493 Mn468 2.209 . S
O493 Mn469 2.215 . S
O493 C470 1.283 . S
O494 Mn468 2.094 . S
O494 C472 1.240 . S
O495 Mn469 2.117 . S
O495 C472 1.264 . S
C496 C489 1.403 . S
C496 C497 1.399 . S
C496 H502 0.929 . S
C497 C477 1.449 . S
C497 C496 1.399 . S
C497 H503 0.930 . S
H498 C478 0.931 . S
H499 C479 0.930 . S
H500 C487 0.931 . S
H501 C488 0.929 . S
H502 C496 0.929 . S
H503 C497 0.930 . S
Mn504 O509 2.095 . S
Mn504 O519 2.162 . S
Mn504 O520 2.297 . S
Mn504 O528 2.385 . S
Mn504 O529 2.209 . S
Mn504 O530 2.094 . S
Mn505 O510 2.121 . S
Mn505 N512 2.257 . S
Mn505 N521 2.282 . S
Mn505 O529 2.215 . S
Mn505 O531 2.117 . S
C506 O528 1.234 . S
C506 O529 1.283 . S
C507 O519 1.281 . S
C507 O520 1.236 . S
C508 O530 1.240 . S
C508 O531 1.264 . S
O509 Mn504 2.095 . S
O509 C518 1.250 . S
O510 Mn505 2.121 . S
O510 C518 1.258 . S
C511 N512 1.326 . S
C511 C515 1.460 . S
C511 H517 0.929 . S
N512 Mn505 2.257 . S
N512 C511 1.326 . S
N512 C516 1.362 . S
C513 C514 1.258 . S
C513 C516 1.431 . S
C513 C533 1.449 . S
C514 C513 1.258 . S
C514 C515 1.477 . S
C514 H534 0.931 . S
C515 C511 1.460 . S
C515 C514 1.477 . S
C515 H535 0.930 . S
C516 N512 1.362 . S
C516 C513 1.431 . S
C516 C526 1.476 . S
H517 C511 0.929 . S
C518 O509 1.250 . S
C518 O510 1.258 . S
O519 Mn504 2.162 . S
O519 C507 1.281 . S
O520 Mn504 2.297 . S
O520 C507 1.236 . S
N521 Mn505 2.282 . S
N521 C522 1.328 . S
N521 C526 1.318 . S
C522 N521 1.328 . S
C522 C523 1.457 . S
C522 H527 0.929 . S
C523 C522 1.457 . S
C523 C524 1.291 . S
C523 H536 0.931 . S
C524 C523 1.291 . S
C524 C525 1.373 . S
C524 H537 0.929 . S
C525 C524 1.373 . S
C525 C526 1.396 . S
C525 C532 1.403 . S
C526 C516 1.476 . S
C526 N521 1.318 . S
C526 C525 1.396 . S
H527 C522 0.929 . S
O528 Mn504 2.385 . S
O528 C506 1.234 . S
O529 Mn504 2.209 . S
O529 Mn505 2.215 . S
O529 C506 1.283 . S
O530 Mn504 2.094 . S
O530 C508 1.240 . S
O531 Mn505 2.117 . S
O531 C508 1.264 . S
C532 C525 1.403 . S
C532 C533 1.399 . S
C532 H538 0.929 . S
C533 C513 1.449 . S
C533 C532 1.399 . S
C533 H539 0.930 . S
H534 C514 0.931 . S
H535 C515 0.930 . S
H536 C523 0.931 . S
H537 C524 0.929 . S
H538 C532 0.929 . S
H539 C533 0.930 . S
Mn540 O545 2.095 . S
Mn540 O555 2.162 . S
Mn540 O556 2.297 . S
Mn540 O564 2.385 . S
Mn540 O565 2.209 . S
Mn540 O566 2.094 . S
Mn541 O546 2.121 . S
Mn541 N548 2.257 . S
Mn541 N557 2.282 . S
Mn541 O565 2.215 . S
Mn541 O567 2.117 . S
C542 O564 1.234 . S
C542 O565 1.283 . S
C543 O555 1.281 . S
C543 O556 1.236 . S
C544 O566 1.240 . S
C544 O567 1.264 . S
O545 Mn540 2.095 . S
O545 C554 1.250 . S
O546 Mn541 2.121 . S
O546 C554 1.258 . S
C547 N548 1.326 . S
C547 C551 1.460 . S
C547 H553 0.929 . S
N548 Mn541 2.257 . S
N548 C547 1.326 . S
N548 C552 1.362 . S
C549 C550 1.258 . S
C549 C552 1.431 . S
C549 C569 1.449 . S
C550 C549 1.258 . S
C550 C551 1.477 . S
C550 H570 0.931 . S
C551 C547 1.460 . S
C551 C550 1.477 . S
C551 H571 0.930 . S
C552 N548 1.362 . S
C552 C549 1.431 . S
C552 C562 1.476 . S
H553 C547 0.929 . S
C554 O545 1.250 . S
C554 O546 1.258 . S
O555 Mn540 2.162 . S
O555 C543 1.281 . S
O556 Mn540 2.297 . S
O556 C543 1.236 . S
N557 Mn541 2.282 . S
N557 C558 1.328 . S
N557 C562 1.318 . S
C558 N557 1.328 . S
C558 C559 1.457 . S
C558 H563 0.929 . S
C559 C558 1.457 . S
C559 C560 1.291 . S
C559 H572 0.931 . S
C560 C559 1.291 . S
C560 C561 1.373 . S
C560 H573 0.929 . S
C561 C560 1.373 . S
C561 C562 1.396 . S
C561 C568 1.403 . S
C562 C552 1.476 . S
C562 N557 1.318 . S
C562 C561 1.396 . S
H563 C558 0.929 . S
O564 Mn540 2.385 . S
O564 C542 1.234 . S
O565 Mn540 2.209 . S
O565 Mn541 2.215 . S
O565 C542 1.283 . S
O566 Mn540 2.094 . S
O566 C544 1.240 . S
O567 Mn541 2.117 . S
O567 C544 1.264 . S
C568 C561 1.403 . S
C568 C569 1.399 . S
C568 H574 0.929 . S
C569 C549 1.449 . S
C569 C568 1.399 . S
C569 H575 0.930 . S
H570 C550 0.931 . S
H571 C551 0.930 . S
H572 C559 0.931 . S
H573 C560 0.929 . S
H574 C568 0.929 . S
H575 C569 0.930 . S
C576 C577 1.391 . S
C576 C578 1.394 . S
C576 H592 0.931 . S
C577 C576 1.391 . S
C577 C581 1.376 . S
C578 C576 1.394 . S
C578 C579 1.369 . S
C578 C582 1.531 . S
C579 C578 1.369 . S
C579 C580 1.410 . S
C579 C587 1.503 1_455 S
C580 C579 1.410 . S
C580 C581 1.392 . S
C580 C583 1.511 . S
C581 C577 1.376 . S
C581 C580 1.392 . S
C581 H593 0.929 . S
C582 C578 1.531 . S
C582 H594 0.960 . S
C582 H595 0.962 . S
C582 H596 0.960 . S
C583 C580 1.511 . S
C583 H597 0.961 . S
C583 H598 0.961 . S
C583 H599 0.961 . S
C584 C585 1.370 . S
C584 C586 1.363 . S
C584 H600 0.931 . S
C585 C584 1.370 . S
C585 C589 1.408 . S
C586 C584 1.363 . S
C586 C587 1.370 . S
C586 C590 1.524 . S
C587 C579 1.503 1_655 S
C587 C586 1.370 . S
C587 C588 1.403 . S
C588 C587 1.403 . S
C588 C589 1.404 . S
C588 C591 1.539 . S
C589 C585 1.408 . S
C589 C588 1.404 . S
C589 H601 0.930 . S
C590 C586 1.524 . S
C590 H602 0.956 1_655 S
C590 H603 0.961 1_655 S
C590 H604 0.961 . S
C591 C588 1.539 . S
C591 H605 0.958 . S
C591 H606 0.961 . S
C591 H607 0.960 1_655 S
H592 C576 0.931 . S
H593 C581 0.929 . S
H594 C582 0.960 . S
H595 C582 0.962 . S
H596 C582 0.960 . S
H597 C583 0.961 . S
H598 C583 0.961 . S
H599 C583 0.961 . S
H600 C584 0.931 . S
H601 C589 0.930 . S
H602 C590 0.956 1_455 S
H603 C590 0.961 1_455 S
H604 C590 0.961 . S
H605 C591 0.958 . S
H606 C591 0.961 . S
H607 C591 0.960 1_455 S
C608 C609 1.391 . S
C608 C610 1.394 . S
C608 H624 0.931 . S
C609 C608 1.391 . S
C609 C613 1.376 . S
C610 C608 1.394 . S
C610 C611 1.369 . S
C610 C614 1.531 . S
C611 C610 1.369 . S
C611 C612 1.410 . S
C611 C619 1.503 1_655 S
C612 C611 1.410 . S
C612 C613 1.392 . S
C612 C615 1.511 . S
C613 C609 1.376 . S
C613 C612 1.392 . S
C613 H625 0.929 . S
C614 C610 1.531 . S
C614 H626 0.960 . S
C614 H627 0.962 . S
C614 H628 0.960 . S
C615 C612 1.511 . S
C615 H629 0.961 . S
C615 H630 0.961 . S
C615 H631 0.961 . S
C616 C617 1.370 . S
C616 C618 1.363 . S
C616 H632 0.931 . S
C617 C616 1.370 . S
C617 C621 1.408 . S
C618 C616 1.363 . S
C618 C619 1.370 . S
C618 C622 1.524 . S
C619 C611 1.503 1_455 S
C619 C618 1.370 . S
C619 C620 1.403 . S
C620 C619 1.403 . S
C620 C621 1.404 . S
C620 C623 1.539 . S
C621 C617 1.408 . S
C621 C620 1.404 . S
C621 H633 0.930 . S
C622 C618 1.524 . S
C622 H634 0.956 1_455 S
C622 H635 0.961 1_455 S
C622 H636 0.961 . S
C623 C620 1.539 . S
C623 H637 0.958 . S
C623 H638 0.961 . S
C623 H639 0.960 1_455 S
H624 C608 0.931 . S
H625 C613 0.929 . S
H626 C614 0.960 . S
H627 C614 0.962 . S
H628 C614 0.960 . S
H629 C615 0.961 . S
H630 C615 0.961 . S
H631 C615 0.961 . S
H632 C616 0.931 . S
H633 C621 0.930 . S
H634 C622 0.956 1_655 S
H635 C622 0.961 1_655 S
H636 C622 0.961 . S
H637 C623 0.958 . S
H638 C623 0.961 . S
H639 C623 0.960 1_655 S
C640 C641 1.391 . S
C640 C642 1.394 . S
C640 H656 0.931 . S
C641 C640 1.391 . S
C641 C645 1.376 . S
C642 C640 1.394 . S
C642 C643 1.369 . S
C642 C646 1.531 . S
C643 C642 1.369 . S
C643 C644 1.410 . S
C643 C651 1.503 1_655 S
C644 C643 1.410 . S
C644 C645 1.392 . S
C644 C647 1.511 . S
C645 C641 1.376 . S
C645 C644 1.392 . S
C645 H657 0.929 . S
C646 C642 1.531 . S
C646 H658 0.960 1_655 S
C646 H659 0.962 . S
C646 H660 0.953 1_556 S
C647 C644 1.511 . S
C647 H661 0.961 . S
C647 H662 0.961 1_655 S
C647 H663 0.961 . S
C648 C649 1.370 . S
C648 C650 1.363 . S
C648 H664 0.931 . S
C649 C648 1.370 . S
C649 C653 1.408 . S
C650 C648 1.363 . S
C650 C651 1.370 . S
C650 C654 1.524 . S
C651 C643 1.503 1_455 S
C651 C650 1.370 . S
C651 C652 1.403 . S
C652 C651 1.403 . S
C652 C653 1.404 . S
C652 C655 1.539 . S
C653 C649 1.408 . S
C653 C652 1.404 . S
C653 H665 0.930 . S
C654 C650 1.524 . S
C654 H666 0.956 . S
C654 H667 0.961 . S
C654 H668 0.961 . S
C655 C652 1.539 . S
C655 H669 0.958 . S
C655 H670 0.961 . S
C655 H671 0.960 . S
H656 C640 0.931 . S
H657 C645 0.929 . S
H658 C646 0.960 1_455 S
H659 C646 0.962 . S
H660 C646 0.953 1_554 S
H661 C647 0.961 . S
H662 C647 0.961 1_455 S
H663 C647 0.961 . S
H664 C648 0.931 . S
H665 C653 0.930 . S
H666 C654 0.956 . S
H667 C654 0.961 . S
H668 C654 0.961 . S
H669 C655 0.958 . S
H670 C655 0.961 . S
H671 C655 0.960 . S
C672 C673 1.391 . S
C672 C674 1.394 . S
C672 H688 0.931 . S
C673 C672 1.391 . S
C673 C677 1.376 . S
C674 C672 1.394 . S
C674 C675 1.369 . S
C674 C678 1.531 . S
C675 C674 1.369 . S
C675 C676 1.410 . S
C675 C683 1.503 1_455 S
C676 C675 1.410 . S
C676 C677 1.392 . S
C676 C679 1.511 . S
C677 C673 1.376 . S
C677 C676 1.392 . S
C677 H689 0.929 . S
C678 C674 1.531 . S
C678 H690 0.960 1_455 S
C678 H691 0.962 . S
C678 H692 0.960 . S
C679 C676 1.511 . S
C679 H693 0.961 . S
C679 H694 0.961 1_455 S
C679 H695 0.961 . S
C680 C681 1.370 . S
C680 C682 1.363 . S
C680 H696 0.931 . S
C681 C680 1.370 . S
C681 C685 1.408 . S
C682 C680 1.363 . S
C682 C683 1.370 . S
C682 C686 1.524 . S
C683 C675 1.503 1_655 S
C683 C682 1.370 . S
C683 C684 1.403 . S
C684 C683 1.403 . S
C684 C685 1.404 . S
C684 C687 1.539 . S
C685 C681 1.408 . S
C685 C684 1.404 . S
C685 H697 0.930 . S
C686 C682 1.524 . S
C686 H698 0.956 . S
C686 H699 0.961 . S
C686 H700 0.961 . S
C687 C684 1.539 . S
C687 H701 0.958 . S
C687 H702 0.961 . S
C687 H703 0.960 . S
H688 C672 0.931 . S
H689 C677 0.929 . S
H690 C678 0.960 1_655 S
H691 C678 0.962 . S
H692 C678 0.960 . S
H693 C679 0.961 . S
H694 C679 0.961 1_655 S
H695 C679 0.961 . S
H696 C680 0.931 . S
H697 C685 0.930 . S
H698 C686 0.956 . S
H699 C686 0.961 . S
H700 C686 0.961 . S
H701 C687 0.958 . S
H702 C687 0.961 . S
H703 C687 0.960 . S
C704 C705 1.391 . S
C704 C706 1.394 . S
C704 H720 0.931 . S
C705 C704 1.391 . S
C705 C709 1.376 . S
C706 C704 1.394 . S
C706 C707 1.369 . S
C706 C710 1.531 . S
C707 C706 1.369 . S
C707 C708 1.410 . S
C707 C715 1.503 . S
C708 C707 1.410 . S
C708 C709 1.392 . S
C708 C711 1.511 . S
C709 C705 1.376 . S
C709 C708 1.392 . S
C709 H721 0.929 . S
C710 C706 1.531 . S
C710 H722 0.960 . S
C710 H723 0.962 . S
C710 H724 0.960 . S
C711 C708 1.511 . S
C711 H725 0.961 . S
C711 H726 0.961 . S
C711 H727 0.961 . S
C712 C713 1.370 . S
C712 C714 1.363 . S
C712 H728 0.931 . S
C713 C712 1.370 . S
C713 C717 1.408 . S
C714 C712 1.363 . S
C714 C715 1.370 . S
C714 C718 1.524 . S
C715 C707 1.503 . S
C715 C714 1.370 . S
C715 C716 1.403 . S
C716 C715 1.403 . S
C716 C717 1.404 . S
C716 C719 1.539 . S
C717 C713 1.408 . S
C717 C716 1.404 . S
C717 H729 0.930 . S
C718 C714 1.524 . S
C718 H730 0.956 . S
C718 H731 0.961 . S
C718 H732 0.961 . S
C719 C716 1.539 . S
C719 H733 0.958 . S
C719 H734 0.961 1_554 S
C719 H735 0.960 . S
H720 C704 0.931 . S
H721 C709 0.929 . S
H722 C710 0.960 . S
H723 C710 0.962 . S
H724 C710 0.960 . S
H725 C711 0.961 . S
H726 C711 0.961 . S
H727 C711 0.961 . S
H728 C712 0.931 . S
H729 C717 0.930 . S
H730 C718 0.956 . S
H731 C718 0.961 . S
H732 C718 0.961 . S
H733 C719 0.958 . S
H734 C719 0.961 1_556 S
H735 C719 0.960 . S
C736 C737 1.391 . S
C736 C738 1.394 . S
C736 H752 0.931 . S
C737 C736 1.391 . S
C737 C741 1.376 . S
C738 C736 1.394 . S
C738 C739 1.369 . S
C738 C742 1.531 . S
C739 C738 1.369 . S
C739 C740 1.410 . S
C739 C747 1.503 . S
C740 C739 1.410 . S
C740 C741 1.392 . S
C740 C743 1.511 . S
C741 C737 1.376 . S
C741 C740 1.392 . S
C741 H753 0.929 . S
C742 C738 1.531 . S
C742 H754 0.960 . S
C742 H755 0.962 . S
C742 H756 0.960 . S
C743 C740 1.511 . S
C743 H757 0.961 . S
C743 H758 0.961 . S
C743 H759 0.961 . S
C744 C745 1.370 . S
C744 C746 1.363 . S
C744 H760 0.931 . S
C745 C744 1.370 . S
C745 C749 1.408 . S
C746 C744 1.363 . S
C746 C747 1.370 . S
C746 C750 1.524 . S
C747 C739 1.503 . S
C747 C746 1.370 . S
C747 C748 1.403 . S
C748 C747 1.403 . S
C748 C749 1.404 . S
C748 C751 1.539 . S
C749 C745 1.408 . S
C749 C748 1.404 . S
C749 H761 0.930 . S
C750 C746 1.524 . S
C750 H762 0.956 . S
C750 H763 0.961 . S
C750 H764 0.961 . S
C751 C748 1.539 . S
C751 H765 0.958 . S
C751 H766 0.961 . S
C751 H767 0.960 . S
H752 C736 0.931 . S
H753 C741 0.929 . S
H754 C742 0.960 . S
H755 C742 0.962 . S
H756 C742 0.960 . S
H757 C743 0.961 . S
H758 C743 0.961 . S
H759 C743 0.961 . S
H760 C744 0.931 . S
H761 C749 0.930 . S
H762 C750 0.956 . S
H763 C750 0.961 . S
H764 C750 0.961 . S
H765 C751 0.958 . S
H766 C751 0.961 . S
H767 C751 0.960 . S
C768 C769 1.391 . S
C768 C770 1.394 . S
C768 H784 0.931 . S
C769 C768 1.391 . S
C769 C773 1.376 . S
C770 C768 1.394 . S
C770 C771 1.369 . S
C770 C774 1.531 . S
C771 C770 1.369 . S
C771 C772 1.410 . S
C771 C779 1.503 . S
C772 C771 1.410 . S
C772 C773 1.392 . S
C772 C775 1.511 . S
C773 C769 1.376 . S
C773 C772 1.392 . S
C773 H785 0.929 . S
C774 C770 1.531 . S
C774 H786 0.960 . S
C774 H787 0.962 . S
C774 H788 0.960 . S
C775 C772 1.511 . S
C775 H789 0.961 . S
C775 H790 0.961 . S
C775 H791 0.961 . S
C776 C777 1.370 . S
C776 C778 1.363 . S
C776 H792 0.931 . S
C777 C776 1.370 . S
C777 C781 1.408 . S
C778 C776 1.363 . S
C778 C779 1.370 . S
C778 C782 1.524 . S
C779 C771 1.503 . S
C779 C778 1.370 . S
C779 C780 1.403 . S
C780 C779 1.403 . S
C780 C781 1.404 . S
C780 C783 1.539 . S
C781 C777 1.408 . S
C781 C780 1.404 . S
C781 H793 0.930 . S
C782 C778 1.524 . S
C782 H794 0.956 . S
C782 H795 0.961 . S
C782 H796 0.961 . S
C783 C780 1.539 . S
C783 H797 0.958 1_556 S
C783 H798 0.962 . S
C783 H799 0.960 . S
H784 C768 0.931 . S
H785 C773 0.929 . S
H786 C774 0.960 . S
H787 C774 0.962 . S
H788 C774 0.960 . S
H789 C775 0.961 . S
H790 C775 0.961 . S
H791 C775 0.961 . S
H792 C776 0.931 . S
H793 C781 0.930 . S
H794 C782 0.956 . S
H795 C782 0.961 . S
H796 C782 0.961 . S
H797 C783 0.958 1_554 S
H798 C783 0.962 . S
H799 C783 0.960 . S
C800 C801 1.391 . S
C800 C802 1.394 . S
C800 H816 0.931 . S
C801 C800 1.391 . S
C801 C805 1.376 . S
C802 C800 1.394 . S
C802 C803 1.369 . S
C802 C806 1.531 . S
C803 C802 1.369 . S
C803 C804 1.410 . S
C803 C811 1.503 . S
C804 C803 1.410 . S
C804 C805 1.392 . S
C804 C807 1.511 . S
C805 C801 1.376 . S
C805 C804 1.392 . S
C805 H817 0.929 . S
C806 C802 1.531 . S
C806 H818 0.960 . S
C806 H819 0.962 . S
C806 H820 0.960 . S
C807 C804 1.511 . S
C807 H821 0.961 . S
C807 H822 0.961 . S
C807 H823 0.961 . S
C808 C809 1.370 . S
C808 C810 1.363 . S
C808 H824 0.931 . S
C809 C808 1.370 . S
C809 C813 1.408 . S
C810 C808 1.363 . S
C810 C811 1.370 . S
C810 C814 1.524 . S
C811 C803 1.503 . S
C811 C810 1.370 . S
C811 C812 1.403 . S
C812 C811 1.403 . S
C812 C813 1.404 . S
C812 C815 1.539 . S
C813 C809 1.408 . S
C813 C812 1.404 . S
C813 H825 0.930 . S
C814 C810 1.524 . S
C814 H826 0.956 . S
C814 H827 0.961 . S
C814 H828 0.961 . S
C815 C812 1.539 . S
C815 H829 0.958 . S
C815 H830 0.961 . S
C815 H831 0.960 . S
H816 C800 0.931 . S
H817 C805 0.929 . S
H818 C806 0.960 . S
H819 C806 0.962 . S
H820 C806 0.960 . S
H821 C807 0.961 . S
H822 C807 0.961 . S
H823 C807 0.961 . S
H824 C808 0.931 . S
H825 C813 0.930 . S
H826 C814 0.956 . S
H827 C814 0.961 . S
H828 C814 0.961 . S
H829 C815 0.958 . S
H830 C815 0.961 . S
H831 C815 0.960 . S
C832 C833 1.391 . S
C832 C834 1.394 . S
C832 H848 0.931 . S
C833 C832 1.391 . S
C833 C837 1.376 . S
C834 C832 1.394 . S
C834 C835 1.369 . S
C834 C838 1.531 . S
C835 C834 1.369 . S
C835 C836 1.410 . S
C835 C843 1.503 . S
C836 C835 1.410 . S
C836 C837 1.392 . S
C836 C839 1.511 . S
C837 C833 1.376 . S
C837 C836 1.392 . S
C837 H849 0.929 . S
C838 C834 1.531 . S
C838 H850 0.960 . S
C838 H851 0.962 . S
C838 H852 0.960 . S
C839 C836 1.511 . S
C839 H853 0.961 . S
C839 H854 0.961 . S
C839 H855 0.961 . S
C840 C841 1.370 . S
C840 C842 1.363 . S
C840 H856 0.931 . S
C841 C840 1.370 . S
C841 C845 1.408 . S
C842 C840 1.363 . S
C842 C843 1.370 . S
C842 C846 1.524 . S
C843 C835 1.503 . S
C843 C842 1.370 . S
C843 C844 1.403 . S
C844 C843 1.403 . S
C844 C845 1.404 . S
C844 C847 1.539 . S
C845 C841 1.408 . S
C845 C844 1.404 . S
C845 H857 0.930 . S
C846 C842 1.524 . S
C846 H858 0.956 . S
C846 H859 0.961 . S
C846 H860 0.961 . S
C847 C844 1.539 . S
C847 H861 0.958 . S
C847 H862 0.961 . S
C847 H863 0.960 . S
H848 C832 0.931 . S
H849 C837 0.929 . S
H850 C838 0.960 . S
H851 C838 0.962 . S
H852 C838 0.960 . S
H853 C839 0.961 . S
H854 C839 0.961 . S
H855 C839 0.961 . S
H856 C840 0.931 . S
H857 C845 0.930 . S
H858 C846 0.956 . S
H859 C846 0.961 . S
H860 C846 0.961 . S
H861 C847 0.958 . S
H862 C847 0.961 . S
H863 C847 0.960 . S
C864 C865 1.391 . S
C864 C866 1.394 . S
C864 H880 0.931 . S
C865 C864 1.391 . S
C865 C869 1.376 . S
C866 C864 1.394 . S
C866 C867 1.369 . S
C866 C870 1.531 . S
C867 C866 1.369 . S
C867 C868 1.410 . S
C867 C875 1.503 . S
C868 C867 1.410 . S
C868 C869 1.392 . S
C868 C871 1.511 . S
C869 C865 1.376 . S
C869 C868 1.392 . S
C869 H881 0.929 . S
C870 C866 1.531 . S
C870 H882 0.960 . S
C870 H883 0.962 . S
C870 H884 0.960 . S
C871 C868 1.511 . S
C871 H885 0.961 . S
C871 H886 0.961 . S
C871 H887 0.961 . S
C872 C873 1.370 . S
C872 C874 1.363 . S
C872 H888 0.931 . S
C873 C872 1.370 . S
C873 C877 1.408 . S
C874 C872 1.363 . S
C874 C875 1.370 . S
C874 C878 1.524 . S
C875 C867 1.503 . S
C875 C874 1.370 . S
C875 C876 1.403 . S
C876 C875 1.403 . S
C876 C877 1.404 . S
C876 C879 1.539 . S
C877 C873 1.408 . S
C877 C876 1.404 . S
C877 H889 0.930 . S
C878 C874 1.524 . S
C878 H890 0.956 . S
C878 H891 0.961 . S
C878 H892 0.961 . S
C879 C876 1.539 . S
C879 H893 0.958 . S
C879 H894 0.961 . S
C879 H895 0.960 . S
H880 C864 0.931 . S
H881 C869 0.929 . S
H882 C870 0.960 . S
H883 C870 0.962 . S
H884 C870 0.960 . S
H885 C871 0.961 . S
H886 C871 0.961 . S
H887 C871 0.961 . S
H888 C872 0.931 . S
H889 C877 0.930 . S
H890 C878 0.956 . S
H891 C878 0.961 . S
H892 C878 0.961 . S
H893 C879 0.958 . S
H894 C879 0.961 . S
H895 C879 0.960 . S
C896 C897 1.391 . S
C896 C898 1.394 . S
C896 H912 0.931 . S
C897 C896 1.391 . S
C897 C901 1.376 . S
C898 C896 1.394 . S
C898 C899 1.369 . S
C898 C902 1.531 . S
C899 C898 1.369 . S
C899 C900 1.410 . S
C899 C907 1.503 . S
C900 C899 1.410 . S
C900 C901 1.392 . S
C900 C903 1.511 . S
C901 C897 1.376 . S
C901 C900 1.392 . S
C901 H913 0.929 . S
C902 C898 1.531 . S
C902 H914 0.960 . S
C902 H915 0.962 . S
C902 H916 0.960 . S
C903 C900 1.511 . S
C903 H917 0.961 . S
C903 H918 0.961 . S
C903 H919 0.961 . S
C904 C905 1.370 . S
C904 C906 1.363 . S
C904 H920 0.931 . S
C905 C904 1.370 . S
C905 C909 1.408 . S
C906 C904 1.363 . S
C906 C907 1.370 . S
C906 C910 1.524 . S
C907 C899 1.503 . S
C907 C906 1.370 . S
C907 C908 1.403 . S
C908 C907 1.403 . S
C908 C909 1.404 . S
C908 C911 1.539 . S
C909 C905 1.408 . S
C909 C908 1.404 . S
C909 H921 0.930 . S
C910 C906 1.524 . S
C910 H922 0.956 . S
C910 H923 0.961 . S
C910 H924 0.961 . S
C911 C908 1.539 . S
C911 H925 0.958 . S
C911 H926 0.961 . S
C911 H927 0.960 . S
H912 C896 0.931 . S
H913 C901 0.929 . S
H914 C902 0.960 . S
H915 C902 0.962 . S
H916 C902 0.960 . S
H917 C903 0.961 . S
H918 C903 0.961 . S
H919 C903 0.961 . S
H920 C904 0.931 . S
H921 C909 0.930 . S
H922 C910 0.956 . S
H923 C910 0.961 . S
H924 C910 0.961 . S
H925 C911 0.958 . S
H926 C911 0.961 . S
H927 C911 0.960 . S
C928 C929 1.391 . S
C928 C930 1.394 . S
C928 H944 0.931 . S
C929 C928 1.391 . S
C929 C933 1.376 . S
C930 C928 1.394 . S
C930 C931 1.369 . S
C930 C934 1.531 . S
C931 C930 1.369 . S
C931 C932 1.410 . S
C931 C939 1.503 . S
C932 C931 1.410 . S
C932 C933 1.392 . S
C932 C935 1.511 . S
C933 C929 1.376 . S
C933 C932 1.392 . S
C933 H945 0.929 . S
C934 C930 1.531 . S
C934 H946 0.960 . S
C934 H947 0.962 . S
C934 H948 0.960 . S
C935 C932 1.511 . S
C935 H949 0.961 . S
C935 H950 0.961 . S
C935 H951 0.961 . S
C936 C937 1.370 . S
C936 C938 1.363 . S
C936 H952 0.931 . S
C937 C936 1.370 . S
C937 C941 1.408 . S
C938 C936 1.363 . S
C938 C939 1.370 . S
C938 C942 1.524 . S
C939 C931 1.503 . S
C939 C938 1.370 . S
C939 C940 1.403 . S
C940 C939 1.403 . S
C940 C941 1.404 . S
C940 C943 1.539 . S
C941 C937 1.408 . S
C941 C940 1.404 . S
C941 H953 0.930 . S
C942 C938 1.524 . S
C942 H954 0.956 . S
C942 H955 0.961 . S
C942 H956 0.961 . S
C943 C940 1.539 . S
C943 H957 0.958 . S
C943 H958 0.961 . S
C943 H959 0.960 . S
H944 C928 0.931 . S
H945 C933 0.929 . S
H946 C934 0.960 . S
H947 C934 0.962 . S
H948 C934 0.960 . S
H949 C935 0.961 . S
H950 C935 0.961 . S
H951 C935 0.961 . S
H952 C936 0.931 . S
H953 C941 0.930 . S
H954 C942 0.956 . S
H955 C942 0.961 . S
H956 C942 0.961 . S
H957 C943 0.958 . S
H958 C943 0.961 . S
H959 C943 0.960 . S
C960 C961 1.391 . S
C960 C962 1.394 . S
C960 H976 0.931 . S
C961 C960 1.391 . S
C961 C965 1.376 . S
C962 C960 1.394 . S
C962 C963 1.369 . S
C962 C966 1.531 . S
C963 C962 1.369 . S
C963 C964 1.410 . S
C963 C971 1.503 . S
C964 C963 1.410 . S
C964 C965 1.392 . S
C964 C967 1.511 . S
C965 C961 1.376 . S
C965 C964 1.392 . S
C965 H977 0.929 . S
C966 C962 1.531 . S
C966 H978 0.960 . S
C966 H979 0.962 . S
C966 H980 0.960 . S
C967 C964 1.511 . S
C967 H981 0.961 . S
C967 H982 0.961 . S
C967 H983 0.961 . S
C968 C969 1.370 . S
C968 C970 1.363 . S
C968 H984 0.931 . S
C969 C968 1.370 . S
C969 C973 1.408 . S
C970 C968 1.363 . S
C970 C971 1.370 . S
C970 C974 1.524 . S
C971 C963 1.503 . S
C971 C970 1.370 . S
C971 C972 1.403 . S
C972 C971 1.403 . S
C972 C973 1.404 . S
C972 C975 1.539 . S
C973 C969 1.408 . S
C973 C972 1.404 . S
C973 H985 0.930 . S
C974 C970 1.524 . S
C974 H986 0.956 . S
C974 H987 0.961 . S
C974 H988 0.961 . S
C975 C972 1.539 . S
C975 H989 0.958 . S
C975 H990 0.961 . S
C975 H991 0.960 . S
H976 C960 0.931 . S
H977 C965 0.929 . S
H978 C966 0.960 . S
H979 C966 0.962 . S
H980 C966 0.960 . S
H981 C967 0.961 . S
H982 C967 0.961 . S
H983 C967 0.961 . S
H984 C968 0.931 . S
H985 C973 0.930 . S
H986 C974 0.956 . S
H987 C974 0.961 . S
H988 C974 0.961 . S
H989 C975 0.958 . S
H990 C975 0.961 . S
H991 C975 0.960 . S
C992 C993 1.391 . S
C992 C994 1.394 . S
C992 H1008 0.931 . S
C993 C992 1.391 . S
C993 C997 1.376 . S
C994 C992 1.394 . S
C994 C995 1.369 . S
C994 C998 1.531 . S
C995 C994 1.369 . S
C995 C996 1.410 . S
C995 C1003 1.503 . S
C996 C995 1.410 . S
C996 C997 1.392 . S
C996 C999 1.511 . S
C997 C993 1.376 . S
C997 C996 1.392 . S
C997 H1009 0.929 . S
C998 C994 1.531 . S
C998 H1010 0.960 . S
C998 H1011 0.962 . S
C998 H1012 0.960 . S
C999 C996 1.511 . S
C999 H1013 0.961 . S
C999 H1014 0.961 . S
C999 H1015 0.961 . S
C1000 C1001 1.370 . S
C1000 C1002 1.363 . S
C1000 H1016 0.931 . S
C1001 C1000 1.370 . S
C1001 C1005 1.408 . S
C1002 C1000 1.363 . S
C1002 C1003 1.370 . S
C1002 C1006 1.524 . S
C1003 C995 1.503 . S
C1003 C1002 1.370 . S
C1003 C1004 1.403 . S
C1004 C1003 1.403 . S
C1004 C1005 1.404 . S
C1004 C1007 1.539 . S
C1005 C1001 1.408 . S
C1005 C1004 1.404 . S
C1005 H1017 0.930 . S
C1006 C1002 1.524 . S
C1006 H1018 0.956 . S
C1006 H1019 0.961 . S
C1006 H1020 0.961 . S
C1007 C1004 1.539 . S
C1007 H1021 0.958 . S
C1007 H1022 0.961 . S
C1007 H1023 0.960 . S
H1008 C992 0.931 . S
H1009 C997 0.929 . S
H1010 C998 0.960 . S
H1011 C998 0.962 . S
H1012 C998 0.960 . S
H1013 C999 0.961 . S
H1014 C999 0.961 . S
H1015 C999 0.961 . S
H1016 C1000 0.931 . S
H1017 C1005 0.930 . S
H1018 C1006 0.956 . S
H1019 C1006 0.961 . S
H1020 C1006 0.961 . S
H1021 C1007 0.958 . S
H1022 C1007 0.961 . S
H1023 C1007 0.960 . S
C1024 C1025 1.391 . S
C1024 C1026 1.394 . S
C1024 H1040 0.931 . S
C1025 C1024 1.391 . S
C1025 C1029 1.376 . S
C1026 C1024 1.394 . S
C1026 C1027 1.369 . S
C1026 C1030 1.531 . S
C1027 C1026 1.369 . S
C1027 C1028 1.410 . S
C1027 C1035 1.503 . S
C1028 C1027 1.410 . S
C1028 C1029 1.392 . S
C1028 C1031 1.511 . S
C1029 C1025 1.376 . S
C1029 C1028 1.392 . S
C1029 H1041 0.929 . S
C1030 C1026 1.531 . S
C1030 H1042 0.960 . S
C1030 H1043 0.962 . S
C1030 H1044 0.960 . S
C1031 C1028 1.511 . S
C1031 H1045 0.961 . S
C1031 H1046 0.961 . S
C1031 H1047 0.961 . S
C1032 C1033 1.370 . S
C1032 C1034 1.363 . S
C1032 H1048 0.931 . S
C1033 C1032 1.370 . S
C1033 C1037 1.408 . S
C1034 C1032 1.363 . S
C1034 C1035 1.370 . S
C1034 C1038 1.524 . S
C1035 C1027 1.503 . S
C1035 C1034 1.370 . S
C1035 C1036 1.403 . S
C1036 C1035 1.403 . S
C1036 C1037 1.404 . S
C1036 C1039 1.539 . S
C1037 C1033 1.408 . S
C1037 C1036 1.404 . S
C1037 H1049 0.930 . S
C1038 C1034 1.524 . S
C1038 H1050 0.956 . S
C1038 H1051 0.961 . S
C1038 H1052 0.961 . S
C1039 C1036 1.539 . S
C1039 H1053 0.958 . S
C1039 H1054 0.961 . S
C1039 H1055 0.960 . S
H1040 C1024 0.931 . S
H1041 C1029 0.929 . S
H1042 C1030 0.960 . S
H1043 C1030 0.962 . S
H1044 C1030 0.960 . S
H1045 C1031 0.961 . S
H1046 C1031 0.961 . S
H1047 C1031 0.961 . S
H1048 C1032 0.931 . S
H1049 C1037 0.930 . S
H1050 C1038 0.956 . S
H1051 C1038 0.961 . S
H1052 C1038 0.961 . S
H1053 C1039 0.958 . S
H1054 C1039 0.961 . S
H1055 C1039 0.960 . S
C1056 C1057 1.391 . S
C1056 C1058 1.394 . S
C1056 H1072 0.931 . S
C1057 C1056 1.391 . S
C1057 C1061 1.376 . S
C1058 C1056 1.394 . S
C1058 C1059 1.369 . S
C1058 C1062 1.531 . S
C1059 C1058 1.369 . S
C1059 C1060 1.410 . S
C1059 C1067 1.503 . S
C1060 C1059 1.410 . S
C1060 C1061 1.392 . S
C1060 C1063 1.511 . S
C1061 C1057 1.376 . S
C1061 C1060 1.392 . S
C1061 H1073 0.929 . S
C1062 C1058 1.531 . S
C1062 H1074 0.960 . S
C1062 H1075 0.962 . S
C1062 H1076 0.960 . S
C1063 C1060 1.511 . S
C1063 H1077 0.961 . S
C1063 H1078 0.961 . S
C1063 H1079 0.961 . S
C1064 C1065 1.370 . S
C1064 C1066 1.363 . S
C1064 H1080 0.931 . S
C1065 C1064 1.370 . S
C1065 C1069 1.408 . S
C1066 C1064 1.363 . S
C1066 C1067 1.370 . S
C1066 C1070 1.524 . S
C1067 C1059 1.503 . S
C1067 C1066 1.370 . S
C1067 C1068 1.403 . S
C1068 C1067 1.403 . S
C1068 C1069 1.404 . S
C1068 C1071 1.539 . S
C1069 C1065 1.408 . S
C1069 C1068 1.404 . S
C1069 H1081 0.930 . S
C1070 C1066 1.524 . S
C1070 H1082 0.956 . S
C1070 H1083 0.961 . S
C1070 H1084 0.961 . S
C1071 C1068 1.539 . S
C1071 H1085 0.958 . S
C1071 H1086 0.961 . S
C1071 H1087 0.960 . S
H1072 C1056 0.931 . S
H1073 C1061 0.929 . S
H1074 C1062 0.960 . S
H1075 C1062 0.962 . S
H1076 C1062 0.960 . S
H1077 C1063 0.961 . S
H1078 C1063 0.961 . S
H1079 C1063 0.961 . S
H1080 C1064 0.931 . S
H1081 C1069 0.930 . S
H1082 C1070 0.956 . S
H1083 C1070 0.961 . S
H1084 C1070 0.961 . S
H1085 C1071 0.958 . S
H1086 C1071 0.961 . S
H1087 C1071 0.960 . S
C1088 C1089 1.391 . S
C1088 C1090 1.394 . S
C1088 H1104 0.931 . S
C1089 C1088 1.391 . S
C1089 C1093 1.376 . S
C1090 C1088 1.394 . S
C1090 C1091 1.369 . S
C1090 C1094 1.531 1_556 S
C1091 C1090 1.369 . S
C1091 C1092 1.410 . S
C1091 C1099 1.503 1_556 S
C1092 C1091 1.410 . S
C1092 C1093 1.392 . S
C1092 C1095 1.511 . S
C1093 C1089 1.376 . S
C1093 C1092 1.392 . S
C1093 H1105 0.929 . S
C1094 C1090 1.531 1_554 S
C1094 H1106 0.960 . S
C1094 H1107 0.962 . S
C1094 H1108 0.960 . S
C1095 C1092 1.511 . S
C1095 H1109 0.961 . S
C1095 H1110 0.961 . S
C1095 H1111 0.961 . S
C1096 C1097 1.370 . S
C1096 C1098 1.363 . S
C1096 H1112 0.931 . S
C1097 C1096 1.370 . S
C1097 C1101 1.408 . S
C1098 C1096 1.363 . S
C1098 C1099 1.370 . S
C1098 C1102 1.524 . S
C1099 C1091 1.503 1_554 S
C1099 C1098 1.370 . S
C1099 C1100 1.403 1_554 S
C1100 C1099 1.403 1_556 S
C1100 C1101 1.404 1_556 S
C1100 C1103 1.539 . S
C1101 C1097 1.408 . S
C1101 C1100 1.404 1_554 S
C1101 H1113 0.930 . S
C1102 C1098 1.524 . S
C1102 H1114 0.956 . S
C1102 H1115 0.961 . S
C1102 H1116 0.961 . S
C1103 C1100 1.539 . S
C1103 H1117 0.958 . S
C1103 H1118 0.961 . S
C1103 H1119 0.960 . S
H1104 C1088 0.931 . S
H1105 C1093 0.929 . S
H1106 C1094 0.960 . S
H1107 C1094 0.962 . S
H1108 C1094 0.960 . S
H1109 C1095 0.961 . S
H1110 C1095 0.961 . S
H1111 C1095 0.961 . S
H1112 C1096 0.931 . S
H1113 C1101 0.930 . S
H1114 C1102 0.956 . S
H1115 C1102 0.961 . S
H1116 C1102 0.961 . S
H1117 C1103 0.958 . S
H1118 C1103 0.961 . S
H1119 C1103 0.960 . S
C1120 C1121 1.391 . S
C1120 C1122 1.394 . S
C1120 H1136 0.931 . S
C1121 C1120 1.391 . S
C1121 C1125 1.376 . S
C1122 C1120 1.394 . S
C1122 C1123 1.369 . S
C1122 C1126 1.531 . S
C1123 C1122 1.369 . S
C1123 C1124 1.410 . S
C1123 C1131 1.503 . S
C1124 C1123 1.410 . S
C1124 C1125 1.392 . S
C1124 C1127 1.511 . S
C1125 C1121 1.376 . S
C1125 C1124 1.392 . S
C1125 H1137 0.929 . S
C1126 C1122 1.531 . S
C1126 H1138 0.960 . S
C1126 H1139 0.962 . S
C1126 H1140 0.960 . S
C1127 C1124 1.511 . S
C1127 H1141 0.961 . S
C1127 H1142 0.961 . S
C1127 H1143 0.961 . S
C1128 C1129 1.370 . S
C1128 C1130 1.363 . S
C1128 H1144 0.931 . S
C1129 C1128 1.370 . S
C1129 C1133 1.408 . S
C1130 C1128 1.363 . S
C1130 C1131 1.370 . S
C1130 C1134 1.524 . S
C1131 C1123 1.503 . S
C1131 C1130 1.370 . S
C1131 C1132 1.403 . S
C1132 C1131 1.403 . S
C1132 C1133 1.404 . S
C1132 C1135 1.539 . S
C1133 C1129 1.408 . S
C1133 C1132 1.404 . S
C1133 H1145 0.930 . S
C1134 C1130 1.524 . S
C1134 H1146 0.956 . S
C1134 H1147 0.961 . S
C1134 H1148 0.961 . S
C1135 C1132 1.539 . S
C1135 H1149 0.958 . S
C1135 H1150 0.961 . S
C1135 H1151 0.960 . S
H1136 C1120 0.931 . S
H1137 C1125 0.929 . S
H1138 C1126 0.960 . S
H1139 C1126 0.962 . S
H1140 C1126 0.960 . S
H1141 C1127 0.961 . S
H1142 C1127 0.961 . S
H1143 C1127 0.961 . S
H1144 C1128 0.931 . S
H1145 C1133 0.930 . S
H1146 C1134 0.956 . S
H1147 C1134 0.961 . S
H1148 C1134 0.961 . S
H1149 C1135 0.958 . S
H1150 C1135 0.961 . S
H1151 C1135 0.960 . S
C1152 C1153 1.391 . S
C1152 C1154 1.394 . S
C1152 H1168 0.931 . S
C1153 C1152 1.391 . S
C1153 C1157 1.376 . S
C1154 C1152 1.394 . S
C1154 C1155 1.369 . S
C1154 C1158 1.531 . S
C1155 C1154 1.369 . S
C1155 C1156 1.410 . S
C1155 C1163 1.503 1_554 S
C1156 C1155 1.410 . S
C1156 C1157 1.392 . S
C1156 C1159 1.511 . S
C1157 C1153 1.376 . S
C1157 C1156 1.392 . S
C1157 H1169 0.929 . S
C1158 C1154 1.531 . S
C1158 H1170 0.960 . S
C1158 H1171 0.962 1_554 S
C1158 H1172 0.960 . S
C1159 C1156 1.511 . S
C1159 H1173 0.961 . S
C1159 H1174 0.961 1_554 S
C1159 H1175 0.961 . S
C1160 C1161 1.370 . S
C1160 C1162 1.363 . S
C1160 H1176 0.931 . S
C1161 C1160 1.370 . S
C1161 C1165 1.408 . S
C1162 C1160 1.363 . S
C1162 C1163 1.370 . S
C1162 C1166 1.524 . S
C1163 C1155 1.503 1_556 S
C1163 C1162 1.370 . S
C1163 C1164 1.403 1_556 S
C1164 C1163 1.403 1_554 S
C1164 C1165 1.404 1_554 S
C1164 C1167 1.539 . S
C1165 C1161 1.408 . S
C1165 C1164 1.404 1_556 S
C1165 H1177 0.930 1_556 S
C1166 C1162 1.524 . S
C1166 H1178 0.956 . S
C1166 H1179 0.961 . S
C1166 H1180 0.961 . S
C1167 C1164 1.539 . S
C1167 H1181 0.958 . S
C1167 H1182 0.961 . S
C1167 H1183 0.960 . S
H1168 C1152 0.931 . S
H1169 C1157 0.929 . S
H1170 C1158 0.960 . S
H1171 C1158 0.962 1_556 S
H1172 C1158 0.960 . S
H1173 C1159 0.961 . S
H1174 C1159 0.961 1_556 S
H1175 C1159 0.961 . S
H1176 C1160 0.931 . S
H1177 C1165 0.930 1_554 S
H1178 C1166 0.956 . S
H1179 C1166 0.961 . S
H1180 C1166 0.961 . S
H1181 C1167 0.958 . S
H1182 C1167 0.961 . S
H1183 C1167 0.960 . S
C1184 C1185 1.391 . S
C1184 C1186 1.394 . S
C1184 H1200 0.931 . S
C1185 C1184 1.391 . S
C1185 C1189 1.376 . S
C1186 C1184 1.394 . S
C1186 C1187 1.369 . S
C1186 C1190 1.531 . S
C1187 C1186 1.369 . S
C1187 C1188 1.410 . S
C1187 C1195 1.503 . S
C1188 C1187 1.410 . S
C1188 C1189 1.392 . S
C1188 C1191 1.511 . S
C1189 C1185 1.376 . S
C1189 C1188 1.392 . S
C1189 H1201 0.929 . S
C1190 C1186 1.531 . S
C1190 H1202 0.960 . S
C1190 H1203 0.962 . S
C1190 H1204 0.960 . S
C1191 C1188 1.511 . S
C1191 H1205 0.961 . S
C1191 H1206 0.961 . S
C1191 H1207 0.961 . S
C1192 C1193 1.370 . S
C1192 C1194 1.363 . S
C1192 H1208 0.931 . S
C1193 C1192 1.370 . S
C1193 C1197 1.408 . S
C1194 C1192 1.363 . S
C1194 C1195 1.370 . S
C1194 C1198 1.524 . S
C1195 C1187 1.503 . S
C1195 C1194 1.370 . S
C1195 C1196 1.403 . S
C1196 C1195 1.403 . S
C1196 C1197 1.404 . S
C1196 C1199 1.539 . S
C1197 C1193 1.408 . S
C1197 C1196 1.404 . S
C1197 H1209 0.930 . S
C1198 C1194 1.524 . S
C1198 H1210 0.956 . S
C1198 H1211 0.961 . S
C1198 H1212 0.961 . S
C1199 C1196 1.539 . S
C1199 H1213 0.958 . S
C1199 H1214 0.961 . S
C1199 H1215 0.960 . S
H1200 C1184 0.931 . S
H1201 C1189 0.929 . S
H1202 C1190 0.960 . S
H1203 C1190 0.962 . S
H1204 C1190 0.960 . S
H1205 C1191 0.961 . S
H1206 C1191 0.961 . S
H1207 C1191 0.961 . S
H1208 C1192 0.931 . S
H1209 C1197 0.930 . S
H1210 C1198 0.956 . S
H1211 C1198 0.961 . S
H1212 C1198 0.961 . S
H1213 C1199 0.958 . S
H1214 C1199 0.961 . S
H1215 C1199 0.960 . S
C1216 C1217 1.391 . S
C1216 C1218 1.394 1_554 S
C1216 H1232 0.931 1_554 S
C1217 C1216 1.391 . S
C1217 C1221 1.376 . S
C1218 C1216 1.394 1_556 S
C1218 C1219 1.369 1_556 S
C1218 C1222 1.531 . S
C1219 C1218 1.369 1_554 S
C1219 C1220 1.410 . S
C1219 C1227 1.503 1_554 S
C1220 C1219 1.410 . S
C1220 C1221 1.392 . S
C1220 C1223 1.511 . S
C1221 C1217 1.376 . S
C1221 C1220 1.392 . S
C1221 H1233 0.929 . S
C1222 C1218 1.531 . S
C1222 H1234 0.960 . S
C1222 H1235 0.962 . S
C1222 H1236 0.960 . S
C1223 C1220 1.511 . S
C1223 H1237 0.961 . S
C1223 H1238 0.961 . S
C1223 H1239 0.961 . S
C1224 C1225 1.370 . S
C1224 C1226 1.363 . S
C1224 H1240 0.931 . S
C1225 C1224 1.370 . S
C1225 C1229 1.408 . S
C1226 C1224 1.363 . S
C1226 C1227 1.370 . S
C1226 C1230 1.524 1_556 S
C1227 C1219 1.503 1_556 S
C1227 C1226 1.370 . S
C1227 C1228 1.403 . S
C1228 C1227 1.403 . S
C1228 C1229 1.404 . S
C1228 C1231 1.539 . S
C1229 C1225 1.408 . S
C1229 C1228 1.404 . S
C1229 H1241 0.930 . S
C1230 C1226 1.524 1_554 S
C1230 H1242 0.956 1_554 S
C1230 H1243 0.961 . S
C1230 H1244 0.961 . S
C1231 C1228 1.539 . S
C1231 H1245 0.958 . S
C1231 H1246 0.961 . S
C1231 H1247 0.960 . S
H1232 C1216 0.931 1_556 S
H1233 C1221 0.929 . S
H1234 C1222 0.960 . S
H1235 C1222 0.962 . S
H1236 C1222 0.960 . S
H1237 C1223 0.961 . S
H1238 C1223 0.961 . S
H1239 C1223 0.961 . S
H1240 C1224 0.931 . S
H1241 C1229 0.930 . S
H1242 C1230 0.956 1_556 S
H1243 C1230 0.961 . S
H1244 C1230 0.961 . S
H1245 C1231 0.958 . S
H1246 C1231 0.961 . S
H1247 C1231 0.960 . S
C1248 C1249 1.391 . S
C1248 C1250 1.394 . S
C1248 H1264 0.931 . S
C1249 C1248 1.391 . S
C1249 C1253 1.376 . S
C1250 C1248 1.394 . S
C1250 C1251 1.369 . S
C1250 C1254 1.531 . S
C1251 C1250 1.369 . S
C1251 C1252 1.410 . S
C1251 C1259 1.503 . S
C1252 C1251 1.410 . S
C1252 C1253 1.392 . S
C1252 C1255 1.511 . S
C1253 C1249 1.376 . S
C1253 C1252 1.392 . S
C1253 H1265 0.929 . S
C1254 C1250 1.531 . S
C1254 H1266 0.960 . S
C1254 H1267 0.962 . S
C1254 H1268 0.960 . S
C1255 C1252 1.511 . S
C1255 H1269 0.961 . S
C1255 H1270 0.961 . S
C1255 H1271 0.961 . S
C1256 C1257 1.370 . S
C1256 C1258 1.363 . S
C1256 H1272 0.931 . S
C1257 C1256 1.370 . S
C1257 C1261 1.408 . S
C1258 C1256 1.363 . S
C1258 C1259 1.370 . S
C1258 C1262 1.524 . S
C1259 C1251 1.503 . S
C1259 C1258 1.370 . S
C1259 C1260 1.403 . S
C1260 C1259 1.403 . S
C1260 C1261 1.404 . S
C1260 C1263 1.539 . S
C1261 C1257 1.408 . S
C1261 C1260 1.404 . S
C1261 H1273 0.930 . S
C1262 C1258 1.524 . S
C1262 H1274 0.956 . S
C1262 H1275 0.961 . S
C1262 H1276 0.961 . S
C1263 C1260 1.539 . S
C1263 H1277 0.958 . S
C1263 H1278 0.961 . S
C1263 H1279 0.960 . S
H1264 C1248 0.931 . S
H1265 C1253 0.929 . S
H1266 C1254 0.960 . S
H1267 C1254 0.962 . S
H1268 C1254 0.960 . S
H1269 C1255 0.961 . S
H1270 C1255 0.961 . S
H1271 C1255 0.961 . S
H1272 C1256 0.931 . S
H1273 C1261 0.930 . S
H1274 C1262 0.956 . S
H1275 C1262 0.961 . S
H1276 C1262 0.961 . S
H1277 C1263 0.958 . S
H1278 C1263 0.961 . S
H1279 C1263 0.960 . S
C1280 C1281 1.391 . S
C1280 C1282 1.394 . S
C1280 H1296 0.931 . S
C1281 C1280 1.391 . S
C1281 C1285 1.376 . S
C1282 C1280 1.394 . S
C1282 C1283 1.369 . S
C1282 C1286 1.531 . S
C1283 C1282 1.369 . S
C1283 C1284 1.410 . S
C1283 C1291 1.503 1_554 S
C1284 C1283 1.410 . S
C1284 C1285 1.392 . S
C1284 C1287 1.511 . S
C1285 C1281 1.376 . S
C1285 C1284 1.392 . S
C1285 H1297 0.929 . S
C1286 C1282 1.531 . S
C1286 H1298 0.960 . S
C1286 H1299 0.962 1_554 S
C1286 H1300 0.960 . S
C1287 C1284 1.511 . S
C1287 H1301 0.961 . S
C1287 H1302 0.961 1_554 S
C1287 H1303 0.961 . S
C1288 C1289 1.370 . S
C1288 C1290 1.363 . S
C1288 H1304 0.931 . S
C1289 C1288 1.370 . S
C1289 C1293 1.408 . S
C1290 C1288 1.363 . S
C1290 C1291 1.370 . S
C1290 C1294 1.524 . S
C1291 C1283 1.503 1_556 S
C1291 C1290 1.370 . S
C1291 C1292 1.403 1_556 S
C1292 C1291 1.403 1_554 S
C1292 C1293 1.404 1_554 S
C1292 C1295 1.539 . S
C1293 C1289 1.408 . S
C1293 C1292 1.404 1_556 S
C1293 H1305 0.930 1_556 S
C1294 C1290 1.524 . S
C1294 H1306 0.956 . S
C1294 H1307 0.961 . S
C1294 H1308 0.961 . S
C1295 C1292 1.539 . S
C1295 H1309 0.958 . S
C1295 H1310 0.961 . S
C1295 H1311 0.960 . S
H1296 C1280 0.931 . S
H1297 C1285 0.929 . S
H1298 C1286 0.960 . S
H1299 C1286 0.962 1_556 S
H1300 C1286 0.960 . S
H1301 C1287 0.961 . S
H1302 C1287 0.961 1_556 S
H1303 C1287 0.961 . S
H1304 C1288 0.931 . S
H1305 C1293 0.930 1_554 S
H1306 C1294 0.956 . S
H1307 C1294 0.961 . S
H1308 C1294 0.961 . S
H1309 C1295 0.958 . S
H1310 C1295 0.961 . S
H1311 C1295 0.960 . S
C1312 C1313 1.391 . S
C1312 C1314 1.394 . S
C1312 H1328 0.931 . S
C1313 C1312 1.391 . S
C1313 C1317 1.376 . S
C1314 C1312 1.394 . S
C1314 C1315 1.369 . S
C1314 C1318 1.531 . S
C1315 C1314 1.369 . S
C1315 C1316 1.410 . S
C1315 C1323 1.503 . S
C1316 C1315 1.410 . S
C1316 C1317 1.392 . S
C1316 C1319 1.511 . S
C1317 C1313 1.376 . S
C1317 C1316 1.392 . S
C1317 H1329 0.929 . S
C1318 C1314 1.531 . S
C1318 H1330 0.960 . S
C1318 H1331 0.962 . S
C1318 H1332 0.960 . S
C1319 C1316 1.511 . S
C1319 H1333 0.961 . S
C1319 H1334 0.961 . S
C1319 H1335 0.961 . S
C1320 C1321 1.370 . S
C1320 C1322 1.363 . S
C1320 H1336 0.931 . S
C1321 C1320 1.370 . S
C1321 C1325 1.408 . S
C1322 C1320 1.363 . S
C1322 C1323 1.370 . S
C1322 C1326 1.524 . S
C1323 C1315 1.503 . S
C1323 C1322 1.370 . S
C1323 C1324 1.403 . S
C1324 C1323 1.403 . S
C1324 C1325 1.404 . S
C1324 C1327 1.539 . S
C1325 C1321 1.408 . S
C1325 C1324 1.404 . S
C1325 H1337 0.930 . S
C1326 C1322 1.524 . S
C1326 H1338 0.956 . S
C1326 H1339 0.961 . S
C1326 H1340 0.961 . S
C1327 C1324 1.539 . S
C1327 H1341 0.958 . S
C1327 H1342 0.961 . S
C1327 H1343 0.960 . S
H1328 C1312 0.931 . S
H1329 C1317 0.929 . S
H1330 C1318 0.960 . S
H1331 C1318 0.962 . S
H1332 C1318 0.960 . S
H1333 C1319 0.961 . S
H1334 C1319 0.961 . S
H1335 C1319 0.961 . S
H1336 C1320 0.931 . S
H1337 C1325 0.930 . S
H1338 C1326 0.956 . S
H1339 C1326 0.961 . S
H1340 C1326 0.961 . S
H1341 C1327 0.958 . S
H1342 C1327 0.961 . S
H1343 C1327 0.960 . S
C1344 C1345 1.391 . S
C1344 C1346 1.394 1_556 S
C1344 H1360 0.931 1_556 S
C1345 C1344 1.391 . S
C1345 C1349 1.376 . S
C1346 C1344 1.394 1_554 S
C1346 C1347 1.369 1_554 S
C1346 C1350 1.531 . S
C1347 C1346 1.369 1_556 S
C1347 C1348 1.410 . S
C1347 C1355 1.503 1_556 S
C1348 C1347 1.410 . S
C1348 C1349 1.392 . S
C1348 C1351 1.511 . S
C1349 C1345 1.376 . S
C1349 C1348 1.392 . S
C1349 H1361 0.929 . S
C1350 C1346 1.531 . S
C1350 H1362 0.960 . S
C1350 H1363 0.962 . S
C1350 H1364 0.960 . S
C1351 C1348 1.511 . S
C1351 H1365 0.961 . S
C1351 H1366 0.961 . S
C1351 H1367 0.961 . S
C1352 C1353 1.370 . S
C1352 C1354 1.361 1_554 S
C1352 H1368 0.931 . S
C1353 C1352 1.370 . S
C1353 C1357 1.408 . S
C1354 C1352 1.361 1_556 S
C1354 C1355 1.369 1_556 S
C1354 C1358 1.528 . S
C1355 C1347 1.503 1_554 S
C1355 C1354 1.369 1_554 S
C1355 C1356 1.403 . S
C1356 C1355 1.403 . S
C1356 C1357 1.404 . S
C1356 C1359 1.539 . S
C1357 C1353 1.408 . S
C1357 C1356 1.404 . S
C1357 H1369 0.930 . S
C1358 C1354 1.528 . S
C1358 H1370 0.956 . S
C1358 H1371 0.961 . S
C1358 H1372 0.961 . S
C1359 C1356 1.539 . S
C1359 H1373 0.958 . S
C1359 H1374 0.961 . S
C1359 H1375 0.960 . S
H1360 C1344 0.931 1_554 S
H1361 C1349 0.929 . S
H1362 C1350 0.960 . S
H1363 C1350 0.962 . S
H1364 C1350 0.960 . S
H1365 C1351 0.961 . S
H1366 C1351 0.961 . S
H1367 C1351 0.961 . S
H1368 C1352 0.931 . S
H1369 C1357 0.930 . S
H1370 C1358 0.956 . S
H1371 C1358 0.961 . S
H1372 C1358 0.961 . S
H1373 C1359 0.958 . S
H1374 C1359 0.961 . S
H1375 C1359 0.960 . S
C1376 C1377 1.391 . S
C1376 C1378 1.394 . S
C1376 H1392 0.931 . S
C1377 C1376 1.391 . S
C1377 C1381 1.376 . S
C1378 C1376 1.394 . S
C1378 C1379 1.369 . S
C1378 C1382 1.531 . S
C1379 C1378 1.369 . S
C1379 C1380 1.410 . S
C1379 C1387 1.503 . S
C1380 C1379 1.410 . S
C1380 C1381 1.392 . S
C1380 C1383 1.511 . S
C1381 C1377 1.376 . S
C1381 C1380 1.392 . S
C1381 H1393 0.929 . S
C1382 C1378 1.531 . S
C1382 H1394 0.960 . S
C1382 H1395 0.962 . S
C1382 H1396 0.960 . S
C1383 C1380 1.511 . S
C1383 H1397 0.961 . S
C1383 H1398 0.961 . S
C1383 H1399 0.961 . S
C1384 C1385 1.370 . S
C1384 C1386 1.363 . S
C1384 H1400 0.931 . S
C1385 C1384 1.370 . S
C1385 C1389 1.408 . S
C1386 C1384 1.363 . S
C1386 C1387 1.370 . S
C1386 C1390 1.524 . S
C1387 C1379 1.503 . S
C1387 C1386 1.370 . S
C1387 C1388 1.403 . S
C1388 C1387 1.403 . S
C1388 C1389 1.404 . S
C1388 C1391 1.539 . S
C1389 C1385 1.408 . S
C1389 C1388 1.404 . S
C1389 H1401 0.930 . S
C1390 C1386 1.524 . S
C1390 H1402 0.956 . S
C1390 H1403 0.961 . S
C1390 H1404 0.961 . S
C1391 C1388 1.539 . S
C1391 H1405 0.958 . S
C1391 H1406 0.961 . S
C1391 H1407 0.960 . S
H1392 C1376 0.931 . S
H1393 C1381 0.929 . S
H1394 C1382 0.960 . S
H1395 C1382 0.962 . S
H1396 C1382 0.960 . S
H1397 C1383 0.961 . S
H1398 C1383 0.961 . S
H1399 C1383 0.961 . S
H1400 C1384 0.931 . S
H1401 C1389 0.930 . S
H1402 C1390 0.956 . S
H1403 C1390 0.961 . S
H1404 C1390 0.961 . S
H1405 C1391 0.958 . S
H1406 C1391 0.961 . S
H1407 C1391 0.960 . S
C1408 C1409 1.391 . S
C1408 C1410 1.394 . S
C1408 H1424 0.931 . S
C1409 C1408 1.391 . S
C1409 C1413 1.376 . S
C1410 C1408 1.394 . S
C1410 C1411 1.369 . S
C1410 C1414 1.531 1_554 S
C1411 C1410 1.369 . S
C1411 C1412 1.411 . S
C1411 C1419 1.502 1_554 S
C1412 C1411 1.411 . S
C1412 C1413 1.392 . S
C1412 C1415 1.511 . S
C1413 C1409 1.376 . S
C1413 C1412 1.392 . S
C1413 H1425 0.929 . S
C1414 C1410 1.531 1_556 S
C1414 H1426 0.960 . S
C1414 H1427 0.962 1_556 S
C1414 H1428 0.960 . S
C1415 C1412 1.511 . S
C1415 H1429 0.961 . S
C1415 H1430 0.961 . S
C1415 H1431 0.961 1_554 S
C1416 C1417 1.370 . S
C1416 C1418 1.363 1_556 S
C1416 H1432 0.931 1_556 S
C1417 C1416 1.370 . S
C1417 C1421 1.408 . S
C1418 C1416 1.363 1_554 S
C1418 C1419 1.370 1_554 S
C1418 C1422 1.524 . S
C1419 C1411 1.502 1_556 S
C1419 C1418 1.370 1_556 S
C1419 C1420 1.403 . S
C1420 C1419 1.403 . S
C1420 C1421 1.404 . S
C1420 C1423 1.539 . S
C1421 C1417 1.408 . S
C1421 C1420 1.404 . S
C1421 H1433 0.930 . S
C1422 C1418 1.524 . S
C1422 H1434 0.956 . S
C1422 H1435 0.961 . S
C1422 H1436 0.961 . S
C1423 C1420 1.539 . S
C1423 H1437 0.958 . S
C1423 H1438 0.961 . S
C1423 H1439 0.960 . S
H1424 C1408 0.931 . S
H1425 C1413 0.929 . S
H1426 C1414 0.960 . S
H1427 C1414 0.962 1_554 S
H1428 C1414 0.960 . S
H1429 C1415 0.961 . S
H1430 C1415 0.961 . S
H1431 C1415 0.961 1_556 S
H1432 C1416 0.931 1_554 S
H1433 C1421 0.930 . S
H1434 C1422 0.956 . S
H1435 C1422 0.961 . S
H1436 C1422 0.961 . S
H1437 C1423 0.958 . S
H1438 C1423 0.961 . S
H1439 C1423 0.960 . S
C1440 C1441 1.391 . S
C1440 C1442 1.394 . S
C1440 H1456 0.931 . S
C1441 C1440 1.391 . S
C1441 C1445 1.376 . S
C1442 C1440 1.394 . S
C1442 C1443 1.369 . S
C1442 C1446 1.531 . S
C1443 C1442 1.369 . S
C1443 C1444 1.410 . S
C1443 C1451 1.503 . S
C1444 C1443 1.410 . S
C1444 C1445 1.392 . S
C1444 C1447 1.511 . S
C1445 C1441 1.376 . S
C1445 C1444 1.392 . S
C1445 H1457 0.929 . S
C1446 C1442 1.531 . S
C1446 H1458 0.960 . S
C1446 H1459 0.962 . S
C1446 H1460 0.960 . S
C1447 C1444 1.511 . S
C1447 H1461 0.961 . S
C1447 H1462 0.961 . S
C1447 H1463 0.961 . S
C1448 C1449 1.370 . S
C1448 C1450 1.363 . S
C1448 H1464 0.931 . S
C1449 C1448 1.370 . S
C1449 C1453 1.408 . S
C1450 C1448 1.363 . S
C1450 C1451 1.370 . S
C1450 C1454 1.524 . S
C1451 C1443 1.503 . S
C1451 C1450 1.370 . S
C1451 C1452 1.403 . S
C1452 C1451 1.403 . S
C1452 C1453 1.404 . S
C1452 C1455 1.539 . S
C1453 C1449 1.408 . S
C1453 C1452 1.404 . S
C1453 H1465 0.930 . S
C1454 C1450 1.524 . S
C1454 H1466 0.956 . S
C1454 H1467 0.961 . S
C1454 H1468 0.961 . S
C1455 C1452 1.539 . S
C1455 H1469 0.958 . S
C1455 H1470 0.961 . S
C1455 H1471 0.960 . S
H1456 C1440 0.931 . S
H1457 C1445 0.929 . S
H1458 C1446 0.960 . S
H1459 C1446 0.962 . S
H1460 C1446 0.960 . S
H1461 C1447 0.961 . S
H1462 C1447 0.961 . S
H1463 C1447 0.961 . S
H1464 C1448 0.931 . S
H1465 C1453 0.930 . S
H1466 C1454 0.956 . S
H1467 C1454 0.961 . S
H1468 C1454 0.961 . S
H1469 C1455 0.958 . S
H1470 C1455 0.961 . S
H1471 C1455 0.960 . S
C1472 C1473 1.391 . S
C1472 C1474 1.394 . S
C1472 H1488 0.931 . S
C1473 C1472 1.391 . S
C1473 C1477 1.376 . S
C1474 C1472 1.394 . S
C1474 C1475 1.369 . S
C1474 C1478 1.531 1_556 S
C1475 C1474 1.369 . S
C1475 C1476 1.410 . S
C1475 C1483 1.503 1_546 S
C1476 C1475 1.410 . S
C1476 C1477 1.392 . S
C1476 C1479 1.511 1_545 S
C1477 C1473 1.376 . S
C1477 C1476 1.392 . S
C1477 H1489 0.929 . S
C1478 C1474 1.531 1_554 S
C1478 H1490 0.960 . S
C1478 H1491 0.962 . S
C1478 H1492 0.960 . S
C1479 C1476 1.511 1_565 S
C1479 H1493 0.961 1_565 S
C1479 H1494 0.961 . S
C1479 H1495 0.961 . S
C1480 C1481 1.370 . S
C1480 C1482 1.363 . S
C1480 H1496 0.931 . S
C1481 C1480 1.370 . S
C1481 C1485 1.408 . S
C1482 C1480 1.363 . S
C1482 C1483 1.370 . S
C1482 C1486 1.524 1_565 S
C1483 C1475 1.503 1_564 S
C1483 C1482 1.370 . S
C1483 C1484 1.403 1_554 S
C1484 C1483 1.403 1_556 S
C1484 C1485 1.404 1_556 S
C1484 C1487 1.539 . S
C1485 C1481 1.408 . S
C1485 C1484 1.404 1_554 S
C1485 H1497 0.930 1_554 S
C1486 C1482 1.524 1_545 S
C1486 H1498 0.956 . S
C1486 H1499 0.961 . S
C1486 H1500 0.961 1_545 S
C1487 C1484 1.539 . S
C1487 H1501 0.958 . S
C1487 H1502 0.961 . S
C1487 H1503 0.960 . S
H1488 C1472 0.931 . S
H1489 C1477 0.929 . S
H1490 C1478 0.960 . S
H1491 C1478 0.962 . S
H1492 C1478 0.960 . S
H1493 C1479 0.961 1_545 S
H1494 C1479 0.961 . S
H1495 C1479 0.961 . S
H1496 C1480 0.931 . S
H1497 C1485 0.930 1_556 S
H1498 C1486 0.956 . S
H1499 C1486 0.961 . S
H1500 C1486 0.961 1_565 S
H1501 C1487 0.958 . S
H1502 C1487 0.961 . S
H1503 C1487 0.960 . S
C1504 C1505 1.391 . S
C1504 C1506 1.394 . S
C1504 H1520 0.931 . S
C1505 C1504 1.391 . S
C1505 C1509 1.376 . S
C1506 C1504 1.394 . S
C1506 C1507 1.369 . S
C1506 C1510 1.531 . S
C1507 C1506 1.369 . S
C1507 C1508 1.410 . S
C1507 C1515 1.503 1_565 S
C1508 C1507 1.410 . S
C1508 C1509 1.392 . S
C1508 C1511 1.511 1_565 S
C1509 C1505 1.376 . S
C1509 C1508 1.392 . S
C1509 H1521 0.929 . S
C1510 C1506 1.531 . S
C1510 H1522 0.960 . S
C1510 H1523 0.962 . S
C1510 H1524 0.960 . S
C1511 C1508 1.511 1_545 S
C1511 H1525 0.961 1_545 S
C1511 H1526 0.961 . S
C1511 H1527 0.961 . S
C1512 C1513 1.370 . S
C1512 C1514 1.363 . S
C1512 H1528 0.931 . S
C1513 C1512 1.370 . S
C1513 C1517 1.408 . S
C1514 C1512 1.363 . S
C1514 C1515 1.370 . S
C1514 C1518 1.524 1_545 S
C1515 C1507 1.503 1_545 S
C1515 C1514 1.370 . S
C1515 C1516 1.403 . S
C1516 C1515 1.403 . S
C1516 C1517 1.404 . S
C1516 C1519 1.539 . S
C1517 C1513 1.408 . S
C1517 C1516 1.404 . S
C1517 H1529 0.930 . S
C1518 C1514 1.524 1_565 S
C1518 H1530 0.956 . S
C1518 H1531 0.961 . S
C1518 H1532 0.961 1_565 S
C1519 C1516 1.539 . S
C1519 H1533 0.958 . S
C1519 H1534 0.961 . S
C1519 H1535 0.960 . S
H1520 C1504 0.931 . S
H1521 C1509 0.929 . S
H1522 C1510 0.960 . S
H1523 C1510 0.962 . S
H1524 C1510 0.960 . S
H1525 C1511 0.961 1_565 S
H1526 C1511 0.961 . S
H1527 C1511 0.961 . S
H1528 C1512 0.931 . S
H1529 C1517 0.930 . S
H1530 C1518 0.956 . S
H1531 C1518 0.961 . S
H1532 C1518 0.961 1_545 S
H1533 C1519 0.958 . S
H1534 C1519 0.961 . S
H1535 C1519 0.960 . S
C1536 C1537 1.391 . S
C1536 C1538 1.394 . S
C1536 H1552 0.931 . S
C1537 C1536 1.391 . S
C1537 C1541 1.376 . S
C1538 C1536 1.394 . S
C1538 C1539 1.369 . S
C1538 C1542 1.531 1_565 S
C1539 C1538 1.369 . S
C1539 C1540 1.410 1_554 S
C1539 C1547 1.503 1_564 S
C1540 C1539 1.410 1_556 S
C1540 C1541 1.392 1_556 S
C1540 C1543 1.511 . S
C1541 C1537 1.376 . S
C1541 C1540 1.392 1_554 S
C1541 H1553 0.929 1_554 S
C1542 C1538 1.531 1_545 S
C1542 H1554 0.960 . S
C1542 H1555 0.962 . S
C1542 H1556 0.960 . S
C1543 C1540 1.511 . S
C1543 H1557 0.961 . S
C1543 H1558 0.961 . S
C1543 H1559 0.961 . S
C1544 C1545 1.370 . S
C1544 C1546 1.363 . S
C1544 H1560 0.931 . S
C1545 C1544 1.370 . S
C1545 C1549 1.408 . S
C1546 C1544 1.363 . S
C1546 C1547 1.370 . S
C1546 C1550 1.524 . S
C1547 C1539 1.503 1_546 S
C1547 C1546 1.370 . S
C1547 C1548 1.403 . S
C1548 C1547 1.403 . S
C1548 C1549 1.404 . S
C1548 C1551 1.539 . S
C1549 C1545 1.408 . S
C1549 C1548 1.404 . S
C1549 H1561 0.930 . S
C1550 C1546 1.524 . S
C1550 H1562 0.956 1_556 S
C1550 H1563 0.961 1_545 S
C1550 H1564 0.961 . S
C1551 C1548 1.539 . S
C1551 H1565 0.958 1_556 S
C1551 H1566 0.961 . S
C1551 H1567 0.960 1_545 S
H1552 C1536 0.931 . S
H1553 C1541 0.929 1_556 S
H1554 C1542 0.960 . S
H1555 C1542 0.962 . S
H1556 C1542 0.960 . S
H1557 C1543 0.961 . S
H1558 C1543 0.961 . S
H1559 C1543 0.961 . S
H1560 C1544 0.931 . S
H1561 C1549 0.930 . S
H1562 C1550 0.956 1_554 S
H1563 C1550 0.961 1_565 S
H1564 C1550 0.961 . S
H1565 C1551 0.958 1_554 S
H1566 C1551 0.961 . S
H1567 C1551 0.960 1_565 S
C1568 C1569 1.391 . S
C1568 C1570 1.394 . S
C1568 H1584 0.931 . S
C1569 C1568 1.391 . S
C1569 C1573 1.376 . S
C1570 C1568 1.394 . S
C1570 C1571 1.369 . S
C1570 C1574 1.531 . S
C1571 C1570 1.369 . S
C1571 C1572 1.410 . S
C1571 C1579 1.503 1_545 S
C1572 C1571 1.410 . S
C1572 C1573 1.392 . S
C1572 C1575 1.511 . S
C1573 C1569 1.376 . S
C1573 C1572 1.392 . S
C1573 H1585 0.929 . S
C1574 C1570 1.531 . S
C1574 H1586 0.960 . S
C1574 H1587 0.962 . S
C1574 H1588 0.960 . S
C1575 C1572 1.511 . S
C1575 H1589 0.961 . S
C1575 H1590 0.961 1_545 S
C1575 H1591 0.961 . S
C1576 C1577 1.370 . S
C1576 C1578 1.363 . S
C1576 H1592 0.931 . S
C1577 C1576 1.370 . S
C1577 C1581 1.408 . S
C1578 C1576 1.363 . S
C1578 C1579 1.370 . S
C1578 C1582 1.524 . S
C1579 C1571 1.503 1_565 S
C1579 C1578 1.370 . S
C1579 C1580 1.403 . S
C1580 C1579 1.403 . S
C1580 C1581 1.404 . S
C1580 C1583 1.539 1_565 S
C1581 C1577 1.408 . S
C1581 C1580 1.404 . S
C1581 H1593 0.930 . S
C1582 C1578 1.524 . S
C1582 H1594 0.956 . S
C1582 H1595 0.961 . S
C1582 H1596 0.961 . S
C1583 C1580 1.539 1_545 S
C1583 H1597 0.958 . S
C1583 H1598 0.949 1_545 S
C1583 H1599 0.960 . S
H1584 C1568 0.931 . S
H1585 C1573 0.929 . S
H1586 C1574 0.960 . S
H1587 C1574 0.962 . S
H1588 C1574 0.960 . S
H1589 C1575 0.961 . S
H1590 C1575 0.961 1_565 S
H1591 C1575 0.961 . S
H1592 C1576 0.931 . S
H1593 C1581 0.930 . S
H1594 C1582 0.956 . S
H1595 C1582 0.961 . S
H1596 C1582 0.961 . S
H1597 C1583 0.958 . S
H1598 C1583 0.949 1_565 S
H1599 C1583 0.960 . S
C577 C3 1.423 . S
C585 C220 1.417 . S
C609 C39 1.436 . S
C617 C256 1.426 . S
C641 C148 1.399 . S
C649 C75 1.431 . S
C673 C184 1.426 . S
C681 C111 1.437 . S
C705 C508 1.429 . S
C713 C291 1.433 . S
C737 C544 1.427 . S
C745 C327 1.437 . S
C769 C363 1.431 . S
C777 C436 1.426 . S
C801 C399 1.438 . S
C809 C472 1.421 . S
C833 C2 1.444 . S
C841 C182 1.445 . S
C865 C38 1.434 . S
C873 C146 1.444 . S
C897 C74 1.436 . S
C905 C254 1.442 . S
C929 C218 1.450 . S
C937 C110 1.448 . S
C961 C470 1.450 . S
C969 C290 1.448 . S
C993 C434 1.430 . S
C1001 C326 1.437 . S
C1025 C362 1.441 . S
C1033 C542 1.447 . S
C1057 C506 1.455 . S
C1065 C398 1.449 . S
C1089 C435 1.334 . S
C1097 C4 1.324 . S
C1121 C40 1.325 . S
C1129 C471 1.321 . S
C1153 C507 1.336 . S
C1161 C76 1.328 . S
C1185 C543 1.336 . S
C1193 C112 1.327 . S
C1217 C292 1.311 . S
C1225 C147 1.328 . S
C1249 C328 1.319 . S
C1257 C183 1.321 . S
C1281 C219 1.336 . S
C1289 C364 1.328 . S
C1313 C255 1.332 . S
C1321 C400 1.323 . S
C1345 C86 1.437 . S
C1353 C14 1.423 . S
C1377 C50 1.389 . S
C1385 C122 1.411 . S
C1409 C230 1.432 . S
C1417 C158 1.398 . S
C1441 C194 1.364 . S
C1449 C266 1.406 . S
C1473 C374 1.417 . S
C1481 C302 1.425 . S
C1505 C410 1.417 . S
C1513 C338 1.425 . S
C1537 C518 1.369 . S
C1545 C446 1.392 . S
C1569 C554 1.432 . S
C1577 C482 1.398 . S
