# Generated by pormake.
# Topology smk, (6)-cn, num edge types: 1
# Building blocks:
#     Node 0, Type 0, BuildingBlock: UKALOJ_clean_sbu_0, # of connection points: 6
#     Node 1, Type 0, BuildingBlock: UKALOJ_clean_sbu_0, # of connection points: 6
#     Node 2, Type 0, BuildingBlock: UKALOJ_clean_sbu_0, # of connection points: 6
#     Node 3, Type 0, BuildingBlock: UKALOJ_clean_sbu_0, # of connection points: 6
#     Node 4, Type 0, BuildingBlock: UKALOJ_clean_sbu_0, # of connection points: 6
#     Node 5, Type 0, BuildingBlock: UKALOJ_clean_sbu_0, # of connection points: 6
#     Edge 6, Type (0, 0), BuildingBlock: XUDNAN_clean_linker_2, # of connection points: 2
#     Edge 7, Type (0, 0), BuildingBlock: XUDNAN_clean_linker_2, # of connection points: 2
#     Edge 8, Type (0, 0), BuildingBlock: XUDNAN_clean_linker_2, # of connection points: 2
#     Edge 9, Type (0, 0), BuildingBlock: XUDNAN_clean_linker_2, # of connection points: 2
#     Edge 10, Type (0, 0), BuildingBlock: XUDNAN_clean_linker_2, # of connection points: 2
#     Edge 11, Type (0, 0), BuildingBlock: XUDNAN_clean_linker_2, # of connection points: 2
#     Edge 12, Type (0, 0), BuildingBlock: XUDNAN_clean_linker_2, # of connection points: 2
#     Edge 13, Type (0, 0), BuildingBlock: XUDNAN_clean_linker_2, # of connection points: 2
#     Edge 14, Type (0, 0), BuildingBlock: XUDNAN_clean_linker_2, # of connection points: 2
#     Edge 15, Type (0, 0), BuildingBlock: XUDNAN_clean_linker_2, # of connection points: 2
#     Edge 16, Type (0, 0), BuildingBlock: XUDNAN_clean_linker_2, # of connection points: 2
#     Edge 17, Type (0, 0), BuildingBlock: XUDNAN_clean_linker_2, # of connection points: 2
#     Edge 18, Type (0, 0), BuildingBlock: XUDNAN_clean_linker_2, # of connection points: 2
#     Edge 19, Type (0, 0), BuildingBlock: XUDNAN_clean_linker_2, # of connection points: 2
#     Edge 20, Type (0, 0), BuildingBlock: XUDNAN_clean_linker_2, # of connection points: 2
#     Edge 21, Type (0, 0), BuildingBlock: XUDNAN_clean_linker_2, # of connection points: 2
#     Edge 22, Type (0, 0), BuildingBlock: XUDNAN_clean_linker_2, # of connection points: 2
#     Edge 23, Type (0, 0), BuildingBlock: XUDNAN_clean_linker_2, # of connection points: 2
# Relax obj value: 0.276
# Max RMSD: 0.209
# Mean RMSD: 0.209
data_MOF--net-smk--node1-UKALOJ_clean_sbu_0--edge1-XUDNAN_clean_linker_2
_symmetry_space_group_name_H-M    P1
_symmetry_Int_Tables_number       1
_symmetry_cell_setting            triclinic
loop_
_symmetry_equiv_pos_as_xyz
'x, y, z'
_cell_length_a     46.208681
_cell_length_b     46.222735
_cell_length_c     15.105279
_cell_angle_alpha  90.20745
_cell_angle_beta   89.541343
_cell_angle_gamma 119.9177
loop_
_atom_site_label
_atom_site_type_symbol
_atom_site_fract_x
_atom_site_fract_y
_atom_site_fract_z
_atom_type_partial_charge
Zn0 Zn 0.43117 0.23012 0.50222 0.0
O1 O 0.39298 0.17989 0.51847 0.0
C2 C 0.46005 0.23507 0.68231 0.0
Zn3 Zn 0.47197 0.21759 0.50658 0.0
C4 C 0.40222 0.15874 0.53375 0.0
O5 O 0.43316 0.16815 0.53573 0.0
C6 C 0.50007 0.28872 0.46819 0.0
O7 O 0.4656 0.2079 0.37322 0.0
O8 O 0.42807 0.22372 0.36211 0.0
N9 N 0.50534 0.20044 0.51152 0.0
C10 C 0.53803 0.21423 0.53188 0.0
C11 C 0.51845 0.16181 0.51858 0.0
N12 N 0.49344 0.16794 0.50291 0.0
N13 N 0.54676 0.19031 0.53775 0.0
C14 C 0.37579 0.24549 0.56404 0.0
C15 C 0.37415 0.27458 0.45733 0.0
N16 N 0.39685 0.2461 0.50073 0.0
N17 N 0.39554 0.26396 0.43413 0.0
N18 N 0.3615 0.26349 0.53889 0.0
H19 H 0.37083 0.20376 0.63973 0.0
H20 H 0.34234 0.21823 0.67153 0.0
H21 H 0.38572 0.24207 0.7004 0.0
C22 C 0.3681 0.22608 0.6486 0.0
C23 C 0.56148 0.25113 0.53764 0.0
H24 H 0.56032 0.26296 0.47514 0.0
H25 H 0.58779 0.25759 0.54594 0.0
H26 H 0.55365 0.2617 0.59279 0.0
O27 O 0.50929 0.26714 0.47606 0.0
O28 O 0.46956 0.28003 0.48102 0.0
C29 C 0.44692 0.21425 0.32576 0.0
O30 O 0.43668 0.23697 0.64365 0.0
O31 O 0.47892 0.22787 0.63797 0.0
Zn32 Zn 0.22324 0.42676 0.7113 0.0
O33 O 0.231 0.3852 0.72259 0.0
C34 C 0.24718 0.4497 0.8938 0.0
Zn35 Zn 0.278 0.46375 0.71864 0.0
C36 C 0.26106 0.3917 0.72852 0.0
O37 O 0.28461 0.4218 0.72859 0.0
C38 C 0.24013 0.49855 0.69737 0.0
O39 O 0.2813 0.46297 0.58263 0.0
O40 O 0.22786 0.42557 0.57225 0.0
N41 N 0.32892 0.4939 0.73067 0.0
C42 C 0.35049 0.52715 0.73008 0.0
C43 C 0.37777 0.50341 0.76933 0.0
N44 N 0.34614 0.47938 0.75463 0.0
N45 N 0.38127 0.53373 0.75513 0.0
C46 C 0.14977 0.37505 0.76314 0.0
C47 C 0.12307 0.37487 0.64866 0.0
N48 N 0.17253 0.39555 0.70321 0.0
N49 N 0.15585 0.39518 0.63187 0.0
N50 N 0.11857 0.36198 0.73076 0.0
H51 H 0.18219 0.36663 0.84756 0.0
H52 H 0.13818 0.34144 0.87348 0.0
H53 H 0.16027 0.3851 0.90106 0.0
C54 C 0.15811 0.36644 0.8513 0.0
C55 C 0.34188 0.55268 0.69925 0.0
H56 H 0.32547 0.54316 0.64053 0.0
H57 H 0.3646 0.57638 0.68083 0.0
H58 H 0.32838 0.55764 0.7529 0.0
O59 O 0.26972 0.50438 0.70929 0.0
O60 O 0.21607 0.46862 0.69548 0.0
C61 C 0.25587 0.44492 0.5356 0.0
O62 O 0.22052 0.4304 0.85245 0.0
O63 O 0.27452 0.46538 0.85208 0.0
Zn64 Zn 0.81252 0.21118 0.83638 0.0
O65 O 0.86272 0.22442 0.86034 0.0
C66 C 0.80622 0.23537 0.01439 0.0
Zn67 Zn 0.82353 0.26404 0.83597 0.0
C68 C 0.88361 0.2554 0.86598 0.0
O69 O 0.8738 0.27649 0.85836 0.0
C70 C 0.75285 0.21937 0.79917 0.0
O71 O 0.83033 0.26402 0.69485 0.0
O72 O 0.82123 0.21266 0.70303 0.0
N73 N 0.83935 0.31416 0.83519 0.0
C74 C 0.82552 0.33263 0.86088 0.0
C75 C 0.87691 0.36624 0.83278 0.0
N76 N 0.87118 0.33518 0.81731 0.0
N77 N 0.84883 0.36552 0.86108 0.0
C78 C 0.79706 0.14121 0.90347 0.0
C79 C 0.7719 0.11024 0.79311 0.0
N80 N 0.7978 0.16136 0.83806 0.0
N81 N 0.78241 0.14205 0.76926 0.0
N82 N 0.78072 0.10902 0.87719 0.0
H83 H 0.83575 0.17839 -0.01428 0.0
H84 H 0.82142 0.13557 0.01765 0.0
H85 H 0.7958 0.1539 0.03919 0.0
C86 C 0.81365 0.15305 -0.00857 0.0
C87 C 0.78884 0.31836 0.87754 0.0
H88 H 0.77487 0.30381 0.81889 0.0
H89 H 0.78187 0.33781 0.88782 0.0
H90 H 0.78097 0.30127 0.93531 0.0
O91 O 0.77317 0.25016 0.81234 0.0
O92 O 0.76279 0.19838 0.80755 0.0
C93 C 0.82661 0.23772 0.65685 0.0
O94 O 0.80272 0.21034 -0.02919 0.0
O95 O 0.81582 0.26297 -0.0249 0.0
Zn96 Zn 0.62589 0.80761 0.0152 0.0
O97 O 0.66191 0.85839 0.03143 0.0
C98 C 0.59886 0.80086 0.19801 0.0
Zn99 Zn 0.58319 0.81741 0.02363 0.0
C100 C 0.65128 0.87858 0.04613 0.0
O101 O 0.62003 0.86788 0.04887 0.0
C102 C 0.5582 0.74668 -0.01428 0.0
O103 O 0.58726 0.82626 0.88824 0.0
O104 O 0.6278 0.81452 0.876 0.0
N105 N 0.54694 0.83078 0.03398 0.0
C106 C 0.52045 0.81972 0.08921 0.0
C107 C 0.52505 0.86243 0.02298 0.0
N108 N 0.5496 0.85721 -0.00759 0.0
N109 N 0.50662 0.83942 0.08462 0.0
C110 C 0.68285 0.79394 0.06866 0.0
C111 C 0.68574 0.7673 0.95688 0.0
N112 N 0.66205 0.79422 0.00695 0.0
N113 N 0.66419 0.77795 0.93714 0.0
N114 N 0.69772 0.77689 0.03929 0.0
H115 H 0.6871 0.83397 0.15125 0.0
H116 H 0.71536 0.81889 0.17855 0.0
H117 H 0.67185 0.79445 0.20657 0.0
C118 C 0.68977 0.81148 0.15617 0.0
C119 C 0.50739 0.78905 0.14557 0.0
H120 H 0.5145 0.77122 0.11839 0.0
H121 H 0.47979 0.77656 0.15133 0.0
H122 H 0.51796 0.79641 0.21273 0.0
O123 O 0.54757 0.7671 -0.00413 0.0
O124 O 0.58917 0.75692 -0.00517 0.0
C125 C 0.60733 0.82169 0.84025 0.0
O126 O 0.6222 0.80006 0.15529 0.0
O127 O 0.57893 0.80747 0.15786 0.0
Zn128 Zn 0.78225 0.57143 0.18325 0.0
O129 O 0.77834 0.57515 0.04345 0.0
C130 C 0.8244 0.54293 0.14542 0.0
Zn131 Zn 0.8355 0.61296 0.17393 0.0
C132 C 0.80346 0.59723 0.00051 0.0
O133 O 0.83059 0.61617 0.04007 0.0
C134 C 0.81386 0.58931 0.358 0.0
O135 O 0.82487 0.65182 0.19148 0.0
O136 O 0.77261 0.61171 0.20348 0.0
N137 N 0.886 0.6461 0.16405 0.0
C138 C 0.90812 0.66712 0.22368 0.0
C139 C 0.93613 0.66592 0.11267 0.0
N140 N 0.90351 0.64569 0.09465 0.0
N141 N 0.93972 0.6796 0.19358 0.0
C142 C 0.71153 0.50539 0.20403 0.0
C143 C 0.68103 0.52759 0.22112 0.0
N144 N 0.73157 0.53878 0.19513 0.0
N145 N 0.71234 0.55227 0.20539 0.0
N146 N 0.67968 0.49782 0.22138 0.0
H147 H 0.73736 0.48649 0.12612 0.0
H148 H 0.70149 0.4547 0.18294 0.0
H149 H 0.73916 0.48181 0.24387 0.0
C150 C 0.72281 0.48047 0.18873 0.0
C151 C 0.89884 0.67648 0.30983 0.0
H152 H 0.87474 0.67603 0.3037 0.0
H153 H 0.91846 0.70176 0.33076 0.0
H154 H 0.89641 0.6584 0.36145 0.0
O155 O 0.83858 0.60934 0.31058 0.0
O156 O 0.78659 0.56862 0.32155 0.0
C157 C 0.79425 0.64262 0.20296 0.0
O158 O 0.79381 0.53308 0.16118 0.0
O159 O 0.84575 0.57384 0.15093 0.0
Zn160 Zn 0.24344 0.8241 0.35691 0.0
O161 O 0.19182 0.80927 0.36703 0.0
C162 C 0.2427 0.80134 0.53762 0.0
Zn163 Zn 0.23038 0.77042 0.36091 0.0
C164 C 0.17026 0.77832 0.37003 0.0
O165 O 0.17959 0.75669 0.36862 0.0
C166 C 0.30324 0.81609 0.34336 0.0
O167 O 0.22861 0.76848 0.21979 0.0
O168 O 0.23952 0.82068 0.22306 0.0
N169 N 0.21759 0.72097 0.37228 0.0
C170 C 0.23224 0.70735 0.42064 0.0
C171 C 0.18486 0.66759 0.38039 0.0
N172 N 0.18823 0.69617 0.34694 0.0
N173 N 0.21202 0.67397 0.42767 0.0
C174 C 0.25632 0.89468 0.41191 0.0
C175 C 0.28337 0.92416 0.30057 0.0
N176 N 0.25695 0.8737 0.35059 0.0
N177 N 0.2735 0.89209 0.28111 0.0
N178 N 0.27301 0.92651 0.38251 0.0
H179 H 0.2156 0.85877 0.49241 0.0
H180 H 0.23027 0.90198 0.52092 0.0
H181 H 0.25459 0.88289 0.54948 0.0
C182 C 0.23798 0.88391 0.49857 0.0
C183 C 0.26732 0.72647 0.45512 0.0
H184 H 0.28487 0.7368 0.39831 0.0
H185 H 0.27465 0.71063 0.49246 0.0
H186 H 0.27048 0.74747 0.49743 0.0
O187 O 0.2813 0.7856 0.35217 0.0
O188 O 0.29465 0.83823 0.34271 0.0
C189 C 0.23478 0.79519 0.17963 0.0
O190 O 0.24868 0.82677 0.49246 0.0
O191 O 0.23312 0.77359 0.49957 0.0
H192 H 0.40618 0.215 0.19295 0.0
H193 H 0.5013 0.22012 0.24168 0.0
H194 H 0.51602 0.23164 0.08509 0.0
H195 H 0.39246 0.17193 -0.01766 0.0
H196 H 0.37308 0.19317 0.93143 0.0
H197 H 0.37002 0.1867 0.04942 0.0
H198 H 0.39508 0.25031 0.07318 0.0
H199 H 0.39878 0.257 0.95515 0.0
H200 H 0.43501 0.27895 0.02432 0.0
H201 H 0.52238 0.24449 0.92915 0.0
H202 H 0.51587 0.24768 0.76945 0.0
H203 H 0.41531 0.23045 0.81218 0.0
C204 C 0.42993 0.21832 0.17016 0.0
C205 C 0.45258 0.21673 0.22956 0.0
C206 C 0.48338 0.22098 0.19753 0.0
C207 C 0.49224 0.22794 0.10875 0.0
C208 C 0.46986 0.2301 0.05237 0.0
C209 C 0.43901 0.22461 0.08054 0.0
C210 C 0.41902 0.22611 0.00322 0.0
C211 C 0.38674 0.19247 -0.00913 0.0
C212 C 0.41154 0.25481 0.01469 0.0
C213 C 0.44358 0.23312 0.92788 0.0
C214 C 0.47294 0.23603 0.95889 0.0
C215 C 0.49948 0.24207 0.90351 0.0
C216 C 0.49548 0.24384 0.81291 0.0
C217 C 0.46497 0.23907 0.77845 0.0
C218 C 0.43897 0.23453 0.83679 0.0
H219 H 0.21515 0.40256 0.4056 0.0
H220 H 0.30115 0.5008 0.45078 0.0
H221 H 0.30292 0.51394 0.29307 0.0
H222 H 0.2451 0.38873 0.19966 0.0
H223 H 0.20458 0.36695 0.14868 0.0
H224 H 0.20814 0.36577 0.26703 0.0
H225 H 0.16713 0.38831 0.28635 0.0
H226 H 0.16385 0.39002 0.16785 0.0
H227 H 0.17637 0.42696 0.23365 0.0
H228 H 0.29695 0.51697 0.13545 0.0
H229 H 0.28845 0.50716 -0.02418 0.0
H230 H 0.20754 0.40625 0.02509 0.0
C231 C 0.23428 0.42677 0.38186 0.0
C232 C 0.25803 0.45066 0.43995 0.0
C233 C 0.28293 0.48201 0.40709 0.0
C234 C 0.28391 0.4899 0.3179 0.0
C235 C 0.26001 0.46607 0.26251 0.0
C236 C 0.23601 0.43494 0.29221 0.0
C237 C 0.21515 0.41322 0.21617 0.0
C238 C 0.21846 0.38182 0.20737 0.0
C239 C 0.17844 0.4041 0.22666 0.0
C240 C 0.23175 0.43697 0.13929 0.0
C241 C 0.25707 0.46749 0.16858 0.0
C242 C 0.27719 0.49328 0.11131 0.0
C243 C 0.27221 0.48739 0.02093 0.0
C244 C 0.24748 0.4559 -0.01118 0.0
C245 C 0.22629 0.43062 0.04846 0.0
H246 H 0.83451 0.28409 0.14271 0.0
H247 H 0.76527 0.17851 0.10228 0.0
H248 H 0.76303 0.16893 0.26251 0.0
H249 H 0.88087 0.27592 0.31027 0.0
H250 H 0.88602 0.31052 0.3772 0.0
H251 H 0.88008 0.31077 0.25961 0.0
H252 H 0.82898 0.31869 0.2856 0.0
H253 H 0.83518 0.31919 0.4034 0.0
H254 H 0.79535 0.28994 0.35646 0.0
H255 H 0.77415 0.16866 0.41867 0.0
H256 H 0.79014 0.17874 0.57437 0.0
H257 H 0.84933 0.28536 0.52317 0.0
C258 C 0.81819 0.25921 0.16817 0.0
C259 C 0.80049 0.23188 0.11044 0.0
C260 C 0.77959 0.19959 0.1455 0.0
C261 C 0.77801 0.19392 0.23633 0.0
C262 C 0.79701 0.22094 0.29124 0.0
C263 C 0.81604 0.2531 0.25948 0.0
C264 C 0.83466 0.27724 0.33422 0.0
C265 C 0.87266 0.29463 0.31939 0.0
C266 C 0.82283 0.30277 0.3456 0.0
C267 C 0.82383 0.25327 0.41195 0.0
C268 C 0.8023 0.22097 0.38467 0.0
C269 C 0.79045 0.19388 0.44157 0.0
C270 C 0.8001 0.19992 0.52979 0.0
C271 C 0.82106 0.23288 0.56088 0.0
C272 C 0.83319 0.25997 0.5011 0.0
H273 H 0.64757 0.8192 0.32457 0.0
H274 H 0.54041 0.7692 0.28669 0.0
H275 H 0.53177 0.76961 0.44731 0.0
H276 H 0.64228 0.77395 0.53658 0.0
H277 H 0.67752 0.81019 0.58354 0.0
H278 H 0.67528 0.80352 0.46553 0.0
H279 H 0.6822 0.86212 0.44205 0.0
H280 H 0.68364 0.86868 0.55987 0.0
H281 H 0.65312 0.87221 0.49431 0.0
H282 H 0.53472 0.78302 0.60413 0.0
H283 H 0.5479 0.798 0.76051 0.0
H284 H 0.65291 0.83434 0.70535 0.0
C285 C 0.62234 0.80748 0.35069 0.0
C286 C 0.59458 0.79499 0.29373 0.0
C287 C 0.56192 0.78 0.3295 0.0
C288 C 0.55677 0.77985 0.42051 0.0
C289 C 0.5846 0.79406 0.4748 0.0
C290 C 0.61669 0.80665 0.44221 0.0
C291 C 0.64199 0.82077 0.51644 0.0
C292 C 0.66035 0.80091 0.5261 0.0
C293 C 0.66669 0.85817 0.50227 0.0
C294 C 0.61902 0.81509 0.59481 0.0
C295 C 0.5861 0.79996 0.56843 0.0
C296 C 0.56028 0.79422 0.62636 0.0
C297 C 0.56812 0.80325 0.71475 0.0
C298 C 0.60141 0.81734 0.74461 0.0
C299 C 0.62726 0.82347 0.68391 0.0
H300 H 0.78148 0.54367 0.49237 0.0
H301 H 0.84654 0.6491 0.43797 0.0
H302 H 0.84612 0.66209 0.59479 0.0
H303 H 0.73158 0.55429 0.66372 0.0
H304 H 0.72845 0.52111 0.73277 0.0
H305 H 0.73264 0.51925 0.61443 0.0
H306 H 0.78491 0.51302 0.63498 0.0
H307 H 0.78055 0.51436 0.75325 0.0
H308 H 0.8193 0.54348 0.69985 0.0
H309 H 0.84027 0.66459 0.75323 0.0
H310 H 0.83352 0.65579 0.91415 0.0
H311 H 0.77181 0.54898 0.87336 0.0
C312 C 0.79574 0.56937 0.5141 0.0
C313 C 0.81485 0.59534 0.45357 0.0
C314 C 0.83293 0.62873 0.48364 0.0
C315 C 0.8323 0.63646 0.57243 0.0
C316 C 0.81334 0.61049 0.63047 0.0
C317 C 0.79565 0.57758 0.60348 0.0
C318 C 0.77878 0.5546 0.68174 0.0
C319 C 0.74059 0.53623 0.67258 0.0
C320 C 0.79166 0.52992 0.69312 0.0
C321 C 0.7903 0.5799 0.75644 0.0
C322 C 0.80979 0.61198 0.72443 0.0
C323 C 0.8249 0.63968 0.77951 0.0
C324 C 0.82095 0.63444 0.87055 0.0
C325 C 0.8021 0.60179 0.90527 0.0
C326 C 0.7858 0.5742 0.8478 0.0
H327 H 0.20853 0.74833 0.04543 0.0
H328 H 0.27909 0.85253 0.10148 0.0
H329 H 0.29238 0.86325 0.94384 0.0
H330 H 0.25652 0.74021 0.85579 0.0
H331 H 0.21939 0.71419 0.79303 0.0
H332 H 0.21786 0.71285 0.91235 0.0
H333 H 0.16979 0.72643 0.91129 0.0
H334 H 0.1712 0.72786 0.79223 0.0
H335 H 0.17571 0.76323 0.85436 0.0
H336 H 0.29424 0.86527 0.78473 0.0
H337 H 0.28507 0.85788 0.62438 0.0
H338 H 0.21377 0.75266 0.66439 0.0
C339 C 0.22707 0.77316 0.02405 0.0
C340 C 0.24249 0.79966 0.08494 0.0
C341 C 0.26652 0.83199 0.0554 0.0
C342 C 0.27457 0.83833 -0.03382 0.0
C343 C 0.25846 0.81207 0.90734 0.0
C344 C 0.23531 0.78009 0.93425 0.0
C345 C 0.21998 0.75733 0.8552 0.0
C346 C 0.22899 0.7295 0.85405 0.0
C347 C 0.18192 0.74288 0.85318 0.0
C348 C 0.23732 0.78199 0.78056 0.0
C349 C 0.25968 0.81325 0.81275 0.0
C350 C 0.27717 0.84085 0.75812 0.0
C351 C 0.27154 0.83648 0.66745 0.0
C352 C 0.24861 0.80479 0.63281 0.0
C353 C 0.23165 0.77706 0.68971 0.0
H354 H 0.35107 0.12162 0.42187 0.0
H355 H 0.40049 0.1154 0.65742 0.0
H356 H 0.3649 0.05389 0.65669 0.0
H357 H 0.26628 0.04676 0.46424 0.0
H358 H 0.26148 0.03475 0.34928 0.0
H359 H 0.28521 0.07823 0.37939 0.0
H360 H 0.33599 0.08385 0.29074 0.0
H361 H 0.31257 0.04049 0.2608 0.0
H362 H 0.3521 0.05645 0.31592 0.0
H363 H 0.32974 0.99372 0.62008 0.0
H364 H 0.3007 0.93917 0.54507 0.0
H365 H 0.27616 0.98361 0.32745 0.0
C366 C 0.35331 0.10725 0.47515 0.0
C367 C 0.3777 0.12299 0.5412 0.0
C368 C 0.38139 0.10359 0.60745 0.0
C369 C 0.36124 0.06874 0.60759 0.0
C370 C 0.33794 0.05374 0.54015 0.0
C371 C 0.33399 0.07235 0.47476 0.0
C372 C 0.31095 0.05005 0.40258 0.0
C373 C 0.27908 0.0526 0.39868 0.0
C374 C 0.329 0.0582 0.31222 0.0
C375 C 0.30344 1.01612 0.43612 0.0
C376 C 0.31855 0.01877 0.51672 0.0
C377 C 0.31711 0.9912 0.5581 0.0
C378 C 0.30027 0.96021 0.51541 0.0
C379 C 0.28528 0.95703 0.43188 0.0
C380 C 0.28671 0.98534 0.3923 0.0
H381 H 0.31002 0.27109 0.4844 0.0
H382 H 0.37381 0.28557 0.70832 0.0
H383 H 0.34693 0.31157 0.79205 0.0
H384 H 0.31547 0.34795 0.49735 0.0
H385 H 0.27304 0.33445 0.46606 0.0
H386 H 0.29268 0.31129 0.4296 0.0
H387 H 0.24458 0.25753 0.49992 0.0
H388 H 0.22476 0.28063 0.53673 0.0
H389 H 0.23434 0.25743 0.61538 0.0
H390 H 0.32098 0.34453 0.84131 0.0
H391 H 0.29661 0.38141 0.85323 0.0
H392 H 0.24771 0.34504 0.60109 0.0
C393 C 0.31742 0.27879 0.55213 0.0
C394 C 0.34304 0.27502 0.59116 0.0
C395 C 0.3531 0.28652 0.67869 0.0
C396 C 0.33816 0.30167 0.72654 0.0
C397 C 0.31313 0.30521 0.68606 0.0
C398 C 0.30262 0.29393 0.60098 0.0
C399 C 0.27774 0.30395 0.56968 0.0
C400 C 0.29052 0.32571 0.48575 0.0
C401 C 0.24331 0.27304 0.55456 0.0
C402 C 0.27709 0.32389 0.64887 0.0
C403 C 0.29746 0.32398 0.71565 0.0
C404 C 0.30414 0.34383 0.79088 0.0
C405 C 0.29024 0.36465 0.79723 0.0
C406 C 0.26957 0.36506 0.72947 0.0
C407 C 0.26231 0.34394 0.65538 0.0
H408 H 0.92283 0.24338 0.75461 0.0
H409 H 0.92488 0.29688 -0.00754 0.0
H410 H 0.98658 0.32429 -0.00518 0.0
H411 H 0.99834 0.23529 0.79962 0.0
H412 H 1.01168 0.24332 0.68549 0.0
H413 H 0.96781 0.22271 0.71291 0.0
H414 H 0.96212 0.26771 0.62546 0.0
H415 H 1.00588 0.28855 0.59831 0.0
H416 H 0.98846 0.31112 0.6534 0.0
H417 H 0.04745 0.35045 0.96206 0.0
H418 H 0.10322 0.37644 0.8917 0.0
H419 H 0.06223 0.30896 0.66924 0.0
C420 C 0.93637 0.25988 0.80891 0.0
C421 C 0.91944 0.26746 0.87492 0.0
C422 C 0.93768 0.29039 0.94263 0.0
C423 C 0.97261 0.30596 0.94445 0.0
C424 C 0.98881 0.29864 0.87716 0.0
C425 C 0.97132 0.27627 0.81029 0.0
C426 C 0.99475 0.27644 0.73918 0.0
C427 C 0.99304 0.24241 0.73404 0.0
C428 C 0.98736 0.28657 0.64879 0.0
C429 C 1.02802 0.30307 0.77518 0.0
C430 C 1.02409 0.31494 0.8559 0.0
C431 C 0.05094 0.34087 0.89984 0.0
C432 C 0.08258 0.35533 0.85978 0.0
C433 C 0.08705 0.34404 0.77633 0.0
C434 C 0.05943 0.31748 0.73391 0.0
H435 H 0.70526 0.91534 0.94058 0.0
H436 H 0.64808 0.92294 0.15894 0.0
H437 H 0.68261 0.98452 0.15377 0.0
H438 H 0.7877 0.99186 -0.01031 0.0
H439 H 0.79583 1.0024 0.87393 0.0
H440 H 0.77194 0.95928 0.90742 0.0
H441 H 0.7236 0.95123 0.80563 0.0
H442 H 0.74718 0.99422 0.77222 0.0
H443 H 0.70598 0.9781 0.81919 0.0
H444 H 0.71806 0.04441 0.11343 0.0
H445 H 0.74853 0.09807 0.03405 0.0
H446 H 0.78039 0.05203 0.83512 0.0
C447 C 0.70099 0.93006 -0.01061 0.0
C448 C 0.67471 0.91467 0.05162 0.0
C449 C 0.66855 0.93449 0.11184 0.0
C450 C 0.68809 0.96939 0.10953 0.0
C451 C 0.71333 0.98397 0.04574 0.0
C452 C 0.7197 0.96495 -0.01368 0.0
C453 C 0.74464 0.98663 0.91596 0.0
C454 C 0.77695 0.98494 0.92216 0.0
C455 C 0.72942 0.97697 0.82279 0.0
C456 C 0.75043 0.02066 0.94327 0.0
C457 C 0.73285 0.01867 0.01972 0.0
C458 C 0.73254 0.04643 0.05475 0.0
C459 C 0.75015 0.07689 0.00968 0.0
C460 C 0.76755 0.07927 0.93004 0.0
C461 C 0.76788 0.05086 0.89703 0.0
H462 H 0.81098 0.69466 0.09132 0.0
H463 H 0.7503 0.64382 0.32104 0.0
H464 H 0.72504 0.68005 0.31639 0.0
H465 H 0.82121 0.77951 0.13352 0.0
H466 H 0.81655 0.78558 0.01783 0.0
H467 H 0.83505 0.76095 0.05036 0.0
H468 H 0.79135 0.71142 0.95717 0.0
H469 H 0.77264 0.73574 0.92478 0.0
H470 H 0.74751 0.6958 -0.02249 0.0
H471 H 0.70158 0.71613 0.27642 0.0
H472 H 0.67856 0.74687 0.1989 0.0
H473 H 0.75183 0.77263 -0.0108 0.0
C474 C 0.79334 0.69221 0.14252 0.0
C475 C 0.78309 0.66726 0.20806 0.0
C476 C 0.75877 0.66333 0.27151 0.0
C477 C 0.74443 0.68382 0.26943 0.0
C478 C 0.75439 0.70772 0.20259 0.0
C479 C 0.77816 0.71191 0.13988 0.0
C480 C 0.78078 0.73583 0.06764 0.0
C481 C 0.81546 0.76734 0.06736 0.0
C482 C 0.77257 0.71866 -0.02357 0.0
C483 C 0.75408 0.74362 0.09807 0.0
C484 C 0.7398 0.72779 0.17721 0.0
C485 C 0.71313 0.72935 0.21567 0.0
C486 C 0.70041 0.74717 0.17161 0.0
C487 C 0.71422 0.76309 0.08972 0.0
C488 C 0.7415 0.76139 0.05288 0.0
H489 H 0.99903 0.7309 0.13776 0.0
H490 H 0.95018 0.6631 0.35667 0.0
H491 H 1.0037 0.68687 0.43535 0.0
H492 H 0.07091 0.72463 0.13699 0.0
H493 H 0.09964 0.7677 0.11035 0.0
H494 H 0.05678 0.74876 0.07642 0.0
H495 H 0.05099 0.79512 0.15755 0.0
H496 H 0.09395 0.81427 0.19172 0.0
H497 H 0.06133 0.80286 0.27328 0.0
H498 H 0.06287 0.7113 0.4796 0.0
H499 H 0.12428 0.73717 0.48957 0.0
H500 H 0.13579 0.79169 0.24703 0.0
C501 C 0.99966 0.72186 0.20333 0.0
C502 C 0.97034 0.69601 0.24263 0.0
C503 C 0.97204 0.68388 0.32722 0.0
C504 C 1.00241 0.69704 0.37204 0.0
C505 C 0.03092 0.72243 0.33153 0.0
C506 C 0.02986 0.73499 0.24941 0.0
C507 C 0.0646 0.76063 0.21804 0.0
C508 C 0.07349 0.74976 0.13029 0.0
C509 C 0.0679 0.79528 0.20968 0.0
C510 C 0.08537 0.7596 0.29389 0.0
C511 C 0.06537 0.73743 0.35877 0.0
C512 C 0.0788 0.72942 0.43066 0.0
C513 C 0.11358 0.74414 0.43584 0.0
C514 C 0.13441 0.76695 0.37043 0.0
C515 C 0.12022 0.77522 0.29946 0.0
H516 H 0.56917 0.3236 0.4699 0.0
H517 H 0.48284 0.32901 0.38089 0.0
H518 H 0.51983 0.38147 0.30279 0.0
H519 H 0.62133 0.41352 0.50811 0.0
H520 H 0.65918 0.41463 0.47235 0.0
H521 H 0.62586 0.37723 0.52143 0.0
H522 H 0.62517 0.34369 0.38295 0.0
H523 H 0.65809 0.38111 0.33274 0.0
H524 H 0.61929 0.35649 0.27515 0.0
H525 H 0.56505 0.4309 0.22674 0.0
H526 H 0.61708 0.47989 0.17456 0.0
H527 H 0.67499 0.44642 0.32274 0.0
C528 C 0.55815 0.33604 0.43463 0.0
C529 C 0.5231 0.32217 0.43141 0.0
C530 C 0.50959 0.33925 0.38495 0.0
C531 C 0.53038 0.36895 0.33966 0.0
C532 C 0.5647 0.38161 0.34254 0.0
C533 C 0.57865 0.36626 0.39038 0.0
C534 C 0.61652 0.38618 0.38505 0.0
C535 C 0.63161 0.39864 0.47721 0.0
C536 C 0.63058 0.36563 0.34137 0.0
C537 C 0.62149 0.41483 0.32594 0.0
C538 C 0.59116 0.41129 0.3013 0.0
C539 C 0.58898 0.43411 0.24597 0.0
C540 C 0.61862 0.46177 0.21649 0.0
C541 C 0.65011 0.46669 0.24282 0.0
C542 C 0.65145 0.4428 0.29849 0.0
H543 H 0.21204 0.50668 0.54954 0.0
H544 H 0.25715 0.55342 0.79877 0.0
H545 H 0.25055 0.60198 0.76079 0.0
H546 H 0.25464 0.5811 0.42441 0.0
H547 H 0.22073 0.57083 0.34933 0.0
H548 H 0.22487 0.53805 0.40095 0.0
H549 H 0.16464 0.51222 0.46341 0.0
H550 H 0.16027 0.54491 0.4118 0.0
H551 H 0.15315 0.53761 0.52917 0.0
H552 H 0.23898 0.64504 0.69529 0.0
H553 H 0.23013 0.6832 0.59979 0.0
H554 H 0.1987 0.61145 0.3857 0.0
C555 C 0.21975 0.52688 0.59672 0.0
C556 C 0.23426 0.52627 0.67797 0.0
C557 C 0.24545 0.55348 0.73695 0.0
C558 C 0.24173 0.58099 0.71595 0.0
C559 C 0.2275 0.58105 0.63487 0.0
C560 C 0.21712 0.55493 0.57558 0.0
C561 C 0.20589 0.56269 0.48923 0.0
C562 C 0.22785 0.56321 0.41141 0.0
C563 C 0.16878 0.53788 0.47245 0.0
C564 C 0.21163 0.59731 0.50908 0.0
C565 C 0.22351 0.60712 0.59405 0.0
C566 C 0.23026 0.63787 0.62816 0.0
C567 C 0.2255 0.65948 0.57329 0.0
C568 C 0.21521 0.65077 0.48439 0.0
C569 C 0.2073 0.6189 0.45283 0.0
H570 H 0.71268 0.24762 0.81841 0.0
H571 H 0.71935 0.16732 0.68766 0.0
H572 H 0.66829 0.15265 0.60434 0.0
H573 H 0.62093 0.20076 0.83965 0.0
H574 H 0.61702 0.23722 0.82217 0.0
H575 H 0.65412 0.24134 0.87242 0.0
H576 H 0.69016 0.28432 0.75192 0.0
H577 H 0.65312 0.27986 0.70034 0.0
H578 H 0.68222 0.27282 0.63678 0.0
H579 H 0.61989 0.14958 0.52594 0.0
H580 H 0.57104 0.15248 0.47288 0.0
H581 H 0.59068 0.22962 0.66641 0.0
C582 C 0.70305 0.22669 0.77311 0.0
C583 C 0.7199 0.20856 0.75955 0.0
C584 C 0.70663 0.18131 0.69983 0.0
C585 C 0.6778 0.17294 0.65157 0.0
C586 C 0.6621 0.19162 0.66505 0.0
C587 C 0.67363 0.21735 0.72589 0.0
C588 C 0.65109 0.2325 0.72936 0.0
C589 C 0.63481 0.22765 0.82136 0.0
C590 C 0.67031 0.26958 0.70303 0.0
C591 C 0.62555 0.21163 0.65979 0.0
C592 C 0.6328 0.1886 0.62273 0.0
C593 C 0.61372 0.16728 0.555 0.0
C594 C 0.58611 0.16916 0.52517 0.0
C595 C 0.57749 0.19188 0.56349 0.0
C596 C 0.59738 0.21311 0.6326 0.0
H597 H 0.48944 0.71317 -0.02468 0.0
H598 H 0.57636 0.70306 0.91952 0.0
H599 H 0.54037 0.64878 0.84852 0.0
H600 H 0.43349 0.62515 0.02634 0.0
H601 H 0.39777 0.62449 -0.02302 0.0
H602 H 0.43045 0.66254 0.02432 0.0
H603 H 0.43708 0.6928 0.87513 0.0
H604 H 0.40487 0.65467 0.8268 0.0
H605 H 0.4456 0.67665 0.77555 0.0
H606 H 0.49594 0.59717 0.77751 0.0
H607 H 0.44434 0.54765 0.7261 0.0
H608 H 0.38562 0.58904 0.83468 0.0
C609 C 0.50083 0.69936 0.94897 0.0
C610 C 0.53576 0.71243 0.95296 0.0
C611 C 0.54968 0.69356 0.91778 0.0
C612 C 0.52948 0.66277 0.87669 0.0
C613 C 0.49533 0.65096 0.87206 0.0
C614 C 0.48094 0.66829 0.90857 0.0
C615 C 0.44338 0.64938 0.89632 0.0
C616 C 0.4252 0.63981 -0.01365 0.0
C617 C 0.43208 0.66959 0.8401 0.0
C618 C 0.43903 0.6189 0.84667 0.0
C619 C 0.46941 0.62058 0.83263 0.0
C620 C 0.47198 0.59551 0.78826 0.0
C621 C 0.44262 0.56758 0.75909 0.0
C622 C 0.41106 0.56479 0.77454 0.0
C623 C 0.40936 0.59094 0.81882 0.0
H624 H 0.79705 0.4746 0.16635 0.0
H625 H 0.8736 0.56074 0.02428 0.0
H626 H 0.88631 0.5241 0.93404 0.0
H627 H 0.84567 0.43075 0.17136 0.0
H628 H 0.80916 0.39008 0.15979 0.0
H629 H 0.80593 0.42314 0.2141 0.0
H630 H 0.75941 0.41464 0.10477 0.0
H631 H 0.76298 0.38202 0.04902 0.0
H632 H 0.76768 0.41744 -0.01266 0.0
H633 H 0.88725 0.47874 0.84957 0.0
H634 H 0.8836 0.42706 0.79198 0.0
H635 H 0.81302 0.37048 0.00104 0.0
C636 C 0.81681 0.48565 0.11719 0.0
C637 C 0.83439 0.5205 0.10244 0.0
C638 C 0.86008 0.53416 0.03749 0.0
C639 C 0.86731 0.51354 -0.01478 0.0
C640 C 0.8492 0.47933 -1e-05 0.0
C641 C 0.8252 0.46543 0.06596 0.0
C642 C 0.81068 0.42787 0.06976 0.0
C643 C 0.81833 0.41734 0.15905 0.0
C644 C 0.77295 0.40941 0.05164 0.0
C645 C 0.8298 0.42299 -0.00557 0.0
C646 C 0.85138 0.45303 0.95429 0.0
C647 C 0.87074 0.45506 0.88103 0.0
C648 C 0.86845 0.4256 0.84868 0.0
C649 C 0.84736 0.39452 0.8901 0.0
C650 C 0.8281 0.3934 -0.03515 0.0
H651 H 0.45573 0.84854 0.03246 0.0
H652 H 0.50102 0.83235 0.26303 0.0
H653 H 0.4552 0.82798 0.35697 0.0
H654 H 0.42688 0.90016 0.15013 0.0
H655 H 0.389 0.88363 0.0868 0.0
H656 H 0.42606 0.88657 0.03768 0.0
H657 H 0.39325 0.82338 0.00116 0.0
H658 H 0.35618 0.82033 0.04996 0.0
H659 H 0.37165 0.79378 0.08881 0.0
H660 H 0.40152 0.81893 0.42238 0.0
H661 H 0.34529 0.81054 0.45706 0.0
H662 H 0.33736 0.83859 0.18896 0.0
C663 C 0.45599 0.84435 0.10285 0.0
C664 C 0.48103 0.83924 0.13996 0.0
C665 C 0.48107 0.83442 0.23249 0.0
C666 C 0.45546 0.83251 0.28665 0.0
C667 C 0.43049 0.83649 0.24768 0.0
C668 C 0.4308 0.8429 0.15821 0.0
C669 C 0.40065 0.8458 0.13316 0.0
C670 C 0.41129 0.88115 0.09999 0.0
C671 C 0.37917 0.81923 0.06422 0.0
C672 C 0.38293 0.83901 0.22196 0.0
C673 C 0.4006 0.83369 0.28715 0.0
C674 C 0.38784 0.82393 0.37268 0.0
C675 C 0.35605 0.81925 0.39188 0.0
C676 C 0.3379 0.82497 0.32631 0.0
C677 C 0.35156 0.8353 0.24076 0.0
loop_
_geom_bond_atom_site_label_1
_geom_bond_atom_site_label_2
_geom_bond_distance
_geom_bond_site_symmetry_2
_ccdc_geom_bond_type
Zn0 O1 2.055 . S
Zn0 O8 2.046 . S
Zn0 N16 2.036 . S
Zn0 O28 2.053 . S
Zn0 O30 2.066 . S
O1 Zn0 2.055 . S
O1 C4 1.259 . S
C2 O30 1.256 . S
C2 O31 1.244 . S
Zn3 O5 2.046 . S
Zn3 O7 2.055 . S
Zn3 N9 2.036 . S
Zn3 O27 2.066 . S
Zn3 O31 2.053 . S
C4 O1 1.259 . S
C4 O5 1.254 . S
O5 Zn3 2.046 . S
O5 C4 1.254 . S
C6 O27 1.256 . S
C6 O28 1.244 . S
O7 Zn3 2.055 . S
O7 C29 1.259 . S
O8 Zn0 2.046 . S
O8 C29 1.254 . S
N9 Zn3 2.036 . S
N9 C10 1.298 . S
N9 N12 1.398 . S
C10 N9 1.298 . S
C10 N13 1.367 . S
C10 C23 1.481 . S
C11 N12 1.299 . S
C11 N13 1.379 . S
N12 N9 1.398 . S
N12 C11 1.299 . S
N13 C10 1.367 . S
N13 C11 1.379 . S
C14 N16 1.298 . S
C14 N18 1.367 . S
C14 C22 1.481 . S
C15 N17 1.299 . S
C15 N18 1.379 . S
N16 Zn0 2.036 . S
N16 C14 1.298 . S
N16 N17 1.398 . S
N17 C15 1.299 . S
N17 N16 1.398 . S
N18 C14 1.367 . S
N18 C15 1.379 . S
H19 C22 0.980 . S
H20 C22 0.981 . S
H21 C22 0.981 . S
C22 C14 1.481 . S
C22 H19 0.980 . S
C22 H20 0.981 . S
C22 H21 0.981 . S
C23 C10 1.481 . S
C23 H24 0.980 . S
C23 H25 0.981 . S
C23 H26 0.981 . S
H24 C23 0.980 . S
H25 C23 0.981 . S
H26 C23 0.981 . S
O27 Zn3 2.066 . S
O27 C6 1.256 . S
O28 Zn0 2.053 . S
O28 C6 1.244 . S
C29 O7 1.259 . S
C29 O8 1.254 . S
O30 Zn0 2.066 . S
O30 C2 1.256 . S
O31 C2 1.244 . S
O31 Zn3 2.053 . S
Zn32 O33 2.055 . S
Zn32 O40 2.046 . S
Zn32 N48 2.036 . S
Zn32 O60 2.053 . S
Zn32 O62 2.066 . S
O33 Zn32 2.055 . S
O33 C36 1.259 . S
C34 O62 1.256 . S
C34 O63 1.244 . S
Zn35 O37 2.046 . S
Zn35 O39 2.055 . S
Zn35 N41 2.036 . S
Zn35 O59 2.066 . S
Zn35 O63 2.053 . S
C36 O33 1.259 . S
C36 O37 1.254 . S
O37 Zn35 2.046 . S
O37 C36 1.254 . S
C38 O59 1.256 . S
C38 O60 1.244 . S
O39 Zn35 2.055 . S
O39 C61 1.259 . S
O40 Zn32 2.046 . S
O40 C61 1.254 . S
N41 Zn35 2.036 . S
N41 C42 1.298 . S
N41 N44 1.398 . S
C42 N41 1.298 . S
C42 N45 1.367 . S
C42 C55 1.481 . S
C43 N44 1.299 . S
C43 N45 1.379 . S
N44 N41 1.398 . S
N44 C43 1.299 . S
N45 C42 1.367 . S
N45 C43 1.379 . S
C46 N48 1.298 . S
C46 N50 1.367 . S
C46 C54 1.481 . S
C47 N49 1.299 . S
C47 N50 1.379 . S
N48 Zn32 2.036 . S
N48 C46 1.298 . S
N48 N49 1.398 . S
N49 C47 1.299 . S
N49 N48 1.398 . S
N50 C46 1.367 . S
N50 C47 1.379 . S
H51 C54 0.980 . S
H52 C54 0.981 . S
H53 C54 0.981 . S
C54 C46 1.481 . S
C54 H51 0.980 . S
C54 H52 0.981 . S
C54 H53 0.981 . S
C55 C42 1.481 . S
C55 H56 0.980 . S
C55 H57 0.981 . S
C55 H58 0.981 . S
H56 C55 0.980 . S
H57 C55 0.981 . S
H58 C55 0.981 . S
O59 Zn35 2.066 . S
O59 C38 1.256 . S
O60 Zn32 2.053 . S
O60 C38 1.244 . S
C61 O39 1.259 . S
C61 O40 1.254 . S
O62 Zn32 2.066 . S
O62 C34 1.256 . S
O63 C34 1.244 . S
O63 Zn35 2.053 . S
Zn64 O65 2.055 . S
Zn64 O72 2.046 . S
Zn64 N80 2.036 . S
Zn64 O92 2.053 . S
Zn64 O94 2.066 1_556 S
O65 Zn64 2.055 . S
O65 C68 1.259 . S
C66 O94 1.256 . S
C66 O95 1.244 . S
Zn67 O69 2.046 . S
Zn67 O71 2.055 . S
Zn67 N73 2.036 . S
Zn67 O91 2.066 . S
Zn67 O95 2.053 1_556 S
C68 O65 1.259 . S
C68 O69 1.254 . S
O69 Zn67 2.046 . S
O69 C68 1.254 . S
C70 O91 1.256 . S
C70 O92 1.244 . S
O71 Zn67 2.055 . S
O71 C93 1.259 . S
O72 Zn64 2.046 . S
O72 C93 1.254 . S
N73 Zn67 2.036 . S
N73 C74 1.298 . S
N73 N76 1.398 1_556 S
C74 N73 1.298 . S
C74 N77 1.367 . S
C74 C87 1.481 . S
C75 N76 1.299 . S
C75 N77 1.379 1_554 S
N76 N73 1.398 1_554 S
N76 C75 1.299 . S
N77 C74 1.367 . S
N77 C75 1.379 1_556 S
C78 N80 1.298 . S
C78 N82 1.367 . S
C78 C86 1.481 . S
C79 N81 1.299 . S
C79 N82 1.379 . S
N80 Zn64 2.036 . S
N80 C78 1.298 . S
N80 N81 1.398 . S
N81 C79 1.299 . S
N81 N80 1.398 . S
N82 C78 1.367 . S
N82 C79 1.379 . S
H83 C86 0.980 . S
H84 C86 0.981 . S
H85 C86 0.981 1_554 S
C86 C78 1.481 . S
C86 H83 0.980 . S
C86 H84 0.981 . S
C86 H85 0.981 1_556 S
C87 C74 1.481 . S
C87 H88 0.980 . S
C87 H89 0.981 . S
C87 H90 0.981 . S
H88 C87 0.980 . S
H89 C87 0.981 . S
H90 C87 0.981 . S
O91 Zn67 2.066 . S
O91 C70 1.256 . S
O92 Zn64 2.053 . S
O92 C70 1.244 . S
C93 O71 1.259 . S
C93 O72 1.254 . S
O94 Zn64 2.066 1_554 S
O94 C66 1.256 . S
O95 C66 1.244 . S
O95 Zn67 2.053 1_554 S
Zn96 O97 2.055 . S
Zn96 O104 2.046 1_554 S
Zn96 N112 2.036 . S
Zn96 O124 2.053 . S
Zn96 O126 2.066 . S
O97 Zn96 2.055 . S
O97 C100 1.259 . S
C98 O126 1.256 . S
C98 O127 1.244 . S
Zn99 O101 2.046 . S
Zn99 O103 2.055 1_554 S
Zn99 N105 2.036 . S
Zn99 O123 2.066 . S
Zn99 O127 2.053 . S
C100 O97 1.259 . S
C100 O101 1.254 . S
O101 Zn99 2.046 . S
O101 C100 1.254 . S
C102 O123 1.256 . S
C102 O124 1.244 . S
O103 Zn99 2.055 1_556 S
O103 C125 1.259 . S
O104 Zn96 2.046 1_556 S
O104 C125 1.254 . S
N105 Zn99 2.036 . S
N105 C106 1.298 . S
N105 N108 1.398 . S
C106 N105 1.298 . S
C106 N109 1.367 . S
C106 C119 1.481 1_554 S
C107 N108 1.299 . S
C107 N109 1.379 . S
N108 N105 1.398 . S
N108 C107 1.299 . S
N109 C106 1.367 . S
N109 C107 1.379 . S
C110 N112 1.298 . S
C110 N114 1.367 . S
C110 C118 1.481 . S
C111 N113 1.299 . S
C111 N114 1.379 . S
N112 Zn96 2.036 . S
N112 C110 1.298 . S
N112 N113 1.398 . S
N113 C111 1.299 . S
N113 N112 1.398 . S
N114 C110 1.367 . S
N114 C111 1.379 . S
H115 C118 0.980 . S
H116 C118 0.981 . S
H117 C118 0.981 . S
C118 C110 1.481 . S
C118 H115 0.980 . S
C118 H116 0.981 . S
C118 H117 0.981 . S
C119 C106 1.481 1_556 S
C119 H120 0.980 . S
C119 H121 0.981 . S
C119 H122 0.981 . S
H120 C119 0.980 . S
H121 C119 0.981 . S
H122 C119 0.981 . S
O123 Zn99 2.066 . S
O123 C102 1.256 . S
O124 Zn96 2.053 . S
O124 C102 1.244 . S
C125 O103 1.259 . S
C125 O104 1.254 . S
O126 Zn96 2.066 . S
O126 C98 1.256 . S
O127 C98 1.244 . S
O127 Zn99 2.053 . S
Zn128 O129 2.055 . S
Zn128 O136 2.046 . S
Zn128 N144 2.036 . S
Zn128 O156 2.053 . S
Zn128 O158 2.066 . S
O129 Zn128 2.055 . S
O129 C132 1.259 . S
C130 O158 1.256 . S
C130 O159 1.244 . S
Zn131 O133 2.046 . S
Zn131 O135 2.055 . S
Zn131 N137 2.036 . S
Zn131 O155 2.066 . S
Zn131 O159 2.053 . S
C132 O129 1.259 . S
C132 O133 1.254 . S
O133 Zn131 2.046 . S
O133 C132 1.254 . S
C134 O155 1.256 . S
C134 O156 1.244 . S
O135 Zn131 2.055 . S
O135 C157 1.259 . S
O136 Zn128 2.046 . S
O136 C157 1.254 . S
N137 Zn131 2.036 . S
N137 C138 1.298 . S
N137 N140 1.398 . S
C138 N137 1.298 . S
C138 N141 1.367 . S
C138 C151 1.481 . S
C139 N140 1.299 . S
C139 N141 1.379 . S
N140 N137 1.398 . S
N140 C139 1.299 . S
N141 C138 1.367 . S
N141 C139 1.379 . S
C142 N144 1.298 . S
C142 N146 1.367 . S
C142 C150 1.481 . S
C143 N145 1.299 . S
C143 N146 1.379 . S
N144 Zn128 2.036 . S
N144 C142 1.298 . S
N144 N145 1.398 . S
N145 C143 1.299 . S
N145 N144 1.398 . S
N146 C142 1.367 . S
N146 C143 1.379 . S
H147 C150 0.980 . S
H148 C150 0.981 . S
H149 C150 0.981 . S
C150 C142 1.481 . S
C150 H147 0.980 . S
C150 H148 0.981 . S
C150 H149 0.981 . S
C151 C138 1.481 . S
C151 H152 0.980 . S
C151 H153 0.981 . S
C151 H154 0.981 . S
H152 C151 0.980 . S
H153 C151 0.981 . S
H154 C151 0.981 . S
O155 Zn131 2.066 . S
O155 C134 1.256 . S
O156 Zn128 2.053 . S
O156 C134 1.244 . S
C157 O135 1.259 . S
C157 O136 1.254 . S
O158 Zn128 2.066 . S
O158 C130 1.256 . S
O159 C130 1.244 . S
O159 Zn131 2.053 . S
Zn160 O161 2.055 . S
Zn160 O168 2.046 . S
Zn160 N176 2.036 . S
Zn160 O188 2.053 . S
Zn160 O190 2.066 . S
O161 Zn160 2.055 . S
O161 C164 1.259 . S
C162 O190 1.256 . S
C162 O191 1.244 . S
Zn163 O165 2.046 . S
Zn163 O167 2.055 . S
Zn163 N169 2.036 . S
Zn163 O187 2.066 . S
Zn163 O191 2.053 . S
C164 O161 1.259 . S
C164 O165 1.254 . S
O165 Zn163 2.046 . S
O165 C164 1.254 . S
C166 O187 1.256 . S
C166 O188 1.244 . S
O167 Zn163 2.055 . S
O167 C189 1.259 . S
O168 Zn160 2.046 . S
O168 C189 1.254 . S
N169 Zn163 2.036 . S
N169 C170 1.298 . S
N169 N172 1.398 . S
C170 N169 1.298 . S
C170 N173 1.367 . S
C170 C183 1.481 . S
C171 N172 1.299 . S
C171 N173 1.379 . S
N172 N169 1.398 . S
N172 C171 1.299 . S
N173 C170 1.367 . S
N173 C171 1.379 . S
C174 N176 1.298 . S
C174 N178 1.367 . S
C174 C182 1.481 . S
C175 N177 1.299 . S
C175 N178 1.379 . S
N176 Zn160 2.036 . S
N176 C174 1.298 . S
N176 N177 1.398 . S
N177 C175 1.299 . S
N177 N176 1.398 . S
N178 C174 1.367 . S
N178 C175 1.379 . S
H179 C182 0.980 . S
H180 C182 0.981 . S
H181 C182 0.981 . S
C182 C174 1.481 . S
C182 H179 0.980 . S
C182 H180 0.981 . S
C182 H181 0.981 . S
C183 C170 1.481 . S
C183 H184 0.980 . S
C183 H185 0.981 . S
C183 H186 0.981 . S
H184 C183 0.980 . S
H185 C183 0.981 . S
H186 C183 0.981 . S
O187 Zn163 2.066 . S
O187 C166 1.256 . S
O188 Zn160 2.053 . S
O188 C166 1.244 . S
C189 O167 1.259 . S
C189 O168 1.254 . S
O190 Zn160 2.066 . S
O190 C162 1.256 . S
O191 C162 1.244 . S
O191 Zn163 2.053 . S
H192 C204 0.930 . S
H193 C206 0.930 . S
H194 C207 0.930 . S
H195 C211 0.959 . S
H196 C211 0.959 . S
H197 C211 0.961 . S
H198 C212 0.960 . S
H199 C212 0.961 . S
H200 C212 0.959 . S
H201 C215 0.929 . S
H202 C216 0.931 . S
H203 C218 0.930 . S
C204 H192 0.930 . S
C204 C205 1.399 . S
C204 C209 1.399 . S
C205 C204 1.399 . S
C205 C206 1.376 . S
C206 H193 0.930 . S
C206 C205 1.376 . S
C206 C207 1.388 . S
C207 H194 0.930 . S
C207 C206 1.388 . S
C207 C208 1.390 . S
C208 C207 1.390 . S
C208 C209 1.394 . S
C208 C214 1.465 . S
C209 C204 1.399 . S
C209 C208 1.394 . S
C209 C210 1.516 . S
C210 C209 1.516 . S
C210 C211 1.502 . S
C210 C212 1.561 . S
C210 C213 1.526 1_554 S
C211 H195 0.959 . S
C211 H196 0.959 . S
C211 H197 0.961 . S
C211 C210 1.502 . S
C212 H198 0.960 . S
C212 H199 0.961 . S
C212 H200 0.959 . S
C212 C210 1.561 . S
C213 C210 1.526 1_556 S
C213 C214 1.396 1_556 S
C213 C218 1.390 . S
C214 C208 1.465 . S
C214 C213 1.396 1_554 S
C214 C215 1.399 1_554 S
C215 H201 0.929 . S
C215 C214 1.399 1_556 S
C215 C216 1.385 . S
C216 H202 0.931 . S
C216 C215 1.385 . S
C216 C217 1.389 . S
C217 C216 1.389 . S
C217 C218 1.387 . S
C218 H203 0.930 . S
C218 C213 1.390 . S
C218 C217 1.387 . S
H219 C231 0.930 . S
H220 C233 0.930 . S
H221 C234 0.930 . S
H222 C238 0.959 . S
H223 C238 0.959 . S
H224 C238 0.961 . S
H225 C239 0.960 . S
H226 C239 0.961 . S
H227 C239 0.959 . S
H228 C242 0.929 . S
H229 C243 0.931 1_556 S
H230 C245 0.930 . S
C231 H219 0.930 . S
C231 C232 1.399 . S
C231 C236 1.399 . S
C232 C231 1.399 . S
C232 C233 1.376 . S
C233 H220 0.930 . S
C233 C232 1.376 . S
C233 C234 1.388 . S
C234 H221 0.930 . S
C234 C233 1.388 . S
C234 C235 1.390 . S
C235 C234 1.390 . S
C235 C236 1.394 . S
C235 C241 1.465 . S
C236 C231 1.399 . S
C236 C235 1.394 . S
C236 C237 1.516 . S
C237 C236 1.516 . S
C237 C238 1.502 . S
C237 C239 1.561 . S
C237 C240 1.526 . S
C238 H222 0.959 . S
C238 H223 0.959 . S
C238 H224 0.961 . S
C238 C237 1.502 . S
C239 H225 0.960 . S
C239 H226 0.961 . S
C239 H227 0.959 . S
C239 C237 1.561 . S
C240 C237 1.526 . S
C240 C241 1.396 . S
C240 C245 1.390 . S
C241 C235 1.465 . S
C241 C240 1.396 . S
C241 C242 1.399 . S
C242 H228 0.929 . S
C242 C241 1.399 . S
C242 C243 1.385 . S
C243 H229 0.931 1_554 S
C243 C242 1.385 . S
C243 C244 1.389 1_554 S
C244 C243 1.389 1_556 S
C244 C245 1.387 1_556 S
C245 H230 0.930 . S
C245 C240 1.390 . S
C245 C244 1.387 1_554 S
H246 C258 0.930 . S
H247 C260 0.930 . S
H248 C261 0.930 . S
H249 C265 0.959 . S
H250 C265 0.959 . S
H251 C265 0.961 . S
H252 C266 0.960 . S
H253 C266 0.961 . S
H254 C266 0.959 . S
H255 C269 0.929 . S
H256 C270 0.931 . S
H257 C272 0.930 . S
C258 H246 0.930 . S
C258 C259 1.399 . S
C258 C263 1.399 . S
C259 C258 1.399 . S
C259 C260 1.376 . S
C260 H247 0.930 . S
C260 C259 1.376 . S
C260 C261 1.388 . S
C261 H248 0.930 . S
C261 C260 1.388 . S
C261 C262 1.390 . S
C262 C261 1.390 . S
C262 C263 1.394 . S
C262 C268 1.465 . S
C263 C258 1.399 . S
C263 C262 1.394 . S
C263 C264 1.516 . S
C264 C263 1.516 . S
C264 C265 1.502 . S
C264 C266 1.561 . S
C264 C267 1.526 . S
C265 H249 0.959 . S
C265 H250 0.959 . S
C265 H251 0.961 . S
C265 C264 1.502 . S
C266 H252 0.960 . S
C266 H253 0.961 . S
C266 H254 0.959 . S
C266 C264 1.561 . S
C267 C264 1.526 . S
C267 C268 1.396 . S
C267 C272 1.390 . S
C268 C262 1.465 . S
C268 C267 1.396 . S
C268 C269 1.399 . S
C269 H255 0.929 . S
C269 C268 1.399 . S
C269 C270 1.385 . S
C270 H256 0.931 . S
C270 C269 1.385 . S
C270 C271 1.389 . S
C271 C270 1.389 . S
C271 C272 1.387 . S
C272 H257 0.930 . S
C272 C267 1.390 . S
C272 C271 1.387 . S
H273 C285 0.930 . S
H274 C287 0.930 . S
H275 C288 0.930 . S
H276 C292 0.959 . S
H277 C292 0.959 . S
H278 C292 0.961 . S
H279 C293 0.960 . S
H280 C293 0.961 . S
H281 C293 0.959 . S
H282 C296 0.929 . S
H283 C297 0.931 . S
H284 C299 0.930 . S
C285 H273 0.930 . S
C285 C286 1.399 . S
C285 C290 1.399 . S
C286 C285 1.399 . S
C286 C287 1.376 . S
C287 H274 0.930 . S
C287 C286 1.376 . S
C287 C288 1.388 . S
C288 H275 0.930 . S
C288 C287 1.388 . S
C288 C289 1.390 . S
C289 C288 1.390 . S
C289 C290 1.394 . S
C289 C295 1.465 . S
C290 C285 1.399 . S
C290 C289 1.394 . S
C290 C291 1.516 . S
C291 C290 1.516 . S
C291 C292 1.502 . S
C291 C293 1.561 . S
C291 C294 1.526 . S
C292 H276 0.959 . S
C292 H277 0.959 . S
C292 H278 0.961 . S
C292 C291 1.502 . S
C293 H279 0.960 . S
C293 H280 0.961 . S
C293 H281 0.959 . S
C293 C291 1.561 . S
C294 C291 1.526 . S
C294 C295 1.396 . S
C294 C299 1.390 . S
C295 C289 1.465 . S
C295 C294 1.396 . S
C295 C296 1.399 . S
C296 H282 0.929 . S
C296 C295 1.399 . S
C296 C297 1.385 . S
C297 H283 0.931 . S
C297 C296 1.385 . S
C297 C298 1.389 . S
C298 C297 1.389 . S
C298 C299 1.387 . S
C299 H284 0.930 . S
C299 C294 1.390 . S
C299 C298 1.387 . S
H300 C312 0.930 . S
H301 C314 0.930 . S
H302 C315 0.930 . S
H303 C319 0.959 . S
H304 C319 0.959 . S
H305 C319 0.961 . S
H306 C320 0.960 . S
H307 C320 0.961 . S
H308 C320 0.959 . S
H309 C323 0.929 . S
H310 C324 0.931 1_554 S
H311 C326 0.930 . S
C312 H300 0.930 . S
C312 C313 1.399 . S
C312 C317 1.399 . S
C313 C312 1.399 . S
C313 C314 1.376 . S
C314 H301 0.930 . S
C314 C313 1.376 . S
C314 C315 1.388 . S
C315 H302 0.930 . S
C315 C314 1.388 . S
C315 C316 1.390 . S
C316 C315 1.390 . S
C316 C317 1.394 . S
C316 C322 1.465 . S
C317 C312 1.399 . S
C317 C316 1.394 . S
C317 C318 1.516 . S
C318 C317 1.516 . S
C318 C319 1.502 . S
C318 C320 1.561 . S
C318 C321 1.526 . S
C319 H303 0.959 . S
C319 H304 0.959 . S
C319 H305 0.961 . S
C319 C318 1.502 . S
C320 H306 0.960 . S
C320 H307 0.961 . S
C320 H308 0.959 . S
C320 C318 1.561 . S
C321 C318 1.526 . S
C321 C322 1.396 . S
C321 C326 1.390 . S
C322 C316 1.465 . S
C322 C321 1.396 . S
C322 C323 1.399 . S
C323 H309 0.929 . S
C323 C322 1.399 . S
C323 C324 1.385 . S
C324 H310 0.931 1_556 S
C324 C323 1.385 . S
C324 C325 1.389 . S
C325 C324 1.389 . S
C325 C326 1.387 . S
C326 H311 0.930 . S
C326 C321 1.390 . S
C326 C325 1.387 . S
H327 C339 0.930 . S
H328 C341 0.930 . S
H329 C342 0.929 1_556 S
H330 C346 0.959 . S
H331 C346 0.959 . S
H332 C346 0.961 . S
H333 C347 0.960 . S
H334 C347 0.961 . S
H335 C347 0.959 . S
H336 C350 0.929 . S
H337 C351 0.931 . S
H338 C353 0.930 . S
C339 H327 0.930 . S
C339 C340 1.399 . S
C339 C344 1.399 1_554 S
C340 C339 1.399 . S
C340 C341 1.376 . S
C341 H328 0.930 . S
C341 C340 1.376 . S
C341 C342 1.388 . S
C342 H329 0.929 1_554 S
C342 C341 1.388 . S
C342 C343 1.390 1_554 S
C343 C342 1.390 1_556 S
C343 C344 1.394 . S
C343 C349 1.465 . S
C344 C339 1.399 1_556 S
C344 C343 1.394 . S
C344 C345 1.516 . S
C345 C344 1.516 . S
C345 C346 1.502 . S
C345 C347 1.561 . S
C345 C348 1.526 . S
C346 H330 0.959 . S
C346 H331 0.959 . S
C346 H332 0.961 . S
C346 C345 1.502 . S
C347 H333 0.960 . S
C347 H334 0.961 . S
C347 H335 0.959 . S
C347 C345 1.561 . S
C348 C345 1.526 . S
C348 C349 1.396 . S
C348 C353 1.390 . S
C349 C343 1.465 . S
C349 C348 1.396 . S
C349 C350 1.399 . S
C350 H336 0.929 . S
C350 C349 1.399 . S
C350 C351 1.385 . S
C351 H337 0.931 . S
C351 C350 1.385 . S
C351 C352 1.389 . S
C352 C351 1.389 . S
C352 C353 1.387 . S
C353 H338 0.930 . S
C353 C348 1.390 . S
C353 C352 1.387 . S
H354 C366 0.930 . S
H355 C368 0.930 . S
H356 C369 0.930 . S
H357 C373 0.959 . S
H358 C373 0.959 . S
H359 C373 0.961 . S
H360 C374 0.960 . S
H361 C374 0.961 . S
H362 C374 0.959 . S
H363 C377 0.929 . S
H364 C378 0.931 . S
H365 C380 0.930 . S
C366 H354 0.930 . S
C366 C367 1.399 . S
C366 C371 1.399 . S
C367 C366 1.399 . S
C367 C368 1.376 . S
C368 H355 0.930 . S
C368 C367 1.376 . S
C368 C369 1.388 . S
C369 H356 0.930 . S
C369 C368 1.388 . S
C369 C370 1.390 . S
C370 C369 1.390 . S
C370 C371 1.394 . S
C370 C376 1.465 . S
C371 C366 1.399 . S
C371 C370 1.394 . S
C371 C372 1.516 . S
C372 C371 1.516 . S
C372 C373 1.502 . S
C372 C374 1.561 . S
C372 C375 1.526 . S
C373 H357 0.959 . S
C373 H358 0.959 . S
C373 H359 0.961 . S
C373 C372 1.502 . S
C374 H360 0.960 . S
C374 H361 0.961 . S
C374 H362 0.959 . S
C374 C372 1.561 . S
C375 C372 1.526 . S
C375 C376 1.396 . S
C375 C380 1.390 1_545 S
C376 C370 1.465 . S
C376 C375 1.396 . S
C376 C377 1.399 1_545 S
C377 H363 0.929 . S
C377 C376 1.399 1_565 S
C377 C378 1.385 . S
C378 H364 0.931 . S
C378 C377 1.385 . S
C378 C379 1.389 . S
C379 C378 1.389 . S
C379 C380 1.387 . S
C380 H365 0.930 . S
C380 C375 1.390 1_565 S
C380 C379 1.387 . S
H381 C393 0.930 . S
H382 C395 0.930 . S
H383 C396 0.930 . S
H384 C400 0.959 . S
H385 C400 0.959 . S
H386 C400 0.961 . S
H387 C401 0.960 . S
H388 C401 0.961 . S
H389 C401 0.959 . S
H390 C404 0.929 . S
H391 C405 0.931 . S
H392 C407 0.930 . S
C393 H381 0.930 . S
C393 C394 1.399 . S
C393 C398 1.399 . S
C394 C393 1.399 . S
C394 C395 1.376 . S
C395 H382 0.930 . S
C395 C394 1.376 . S
C395 C396 1.388 . S
C396 H383 0.930 . S
C396 C395 1.388 . S
C396 C397 1.390 . S
C397 C396 1.390 . S
C397 C398 1.394 . S
C397 C403 1.465 . S
C398 C393 1.399 . S
C398 C397 1.394 . S
C398 C399 1.516 . S
C399 C398 1.516 . S
C399 C400 1.502 . S
C399 C401 1.561 . S
C399 C402 1.526 . S
C400 H384 0.959 . S
C400 H385 0.959 . S
C400 H386 0.961 . S
C400 C399 1.502 . S
C401 H387 0.960 . S
C401 H388 0.961 . S
C401 H389 0.959 . S
C401 C399 1.561 . S
C402 C399 1.526 . S
C402 C403 1.396 . S
C402 C407 1.390 . S
C403 C397 1.465 . S
C403 C402 1.396 . S
C403 C404 1.399 . S
C404 H390 0.929 . S
C404 C403 1.399 . S
C404 C405 1.385 . S
C405 H391 0.931 . S
C405 C404 1.385 . S
C405 C406 1.389 . S
C406 C405 1.389 . S
C406 C407 1.387 . S
C407 H392 0.930 . S
C407 C402 1.390 . S
C407 C406 1.387 . S
H408 C420 0.930 . S
H409 C422 0.930 . S
H410 C423 0.921 1_554 S
H411 C427 0.959 . S
H412 C427 0.959 . S
H413 C427 0.961 . S
H414 C428 0.960 . S
H415 C428 0.961 . S
H416 C428 0.959 . S
H417 C431 0.929 1_554 S
H418 C432 0.931 . S
H419 C434 0.930 . S
C420 H408 0.930 . S
C420 C421 1.399 . S
C420 C425 1.399 . S
C421 C420 1.399 . S
C421 C422 1.376 1_556 S
C422 H409 0.930 . S
C422 C421 1.376 1_554 S
C422 C423 1.388 1_554 S
C423 H410 0.921 1_556 S
C423 C422 1.388 1_556 S
C423 C424 1.399 . S
C424 C423 1.399 . S
C424 C425 1.394 . S
C424 C430 1.465 . S
C425 C420 1.399 . S
C425 C424 1.394 . S
C425 C426 1.516 . S
C426 C425 1.516 . S
C426 C427 1.502 . S
C426 C428 1.561 . S
C426 C429 1.526 . S
C427 H411 0.959 . S
C427 H412 0.959 . S
C427 H413 0.961 . S
C427 C426 1.502 . S
C428 H414 0.960 . S
C428 H415 0.961 . S
C428 H416 0.959 . S
C428 C426 1.561 . S
C429 C426 1.526 . S
C429 C430 1.396 . S
C429 C434 1.390 1_655 S
C430 C424 1.465 . S
C430 C429 1.396 . S
C430 C431 1.399 1_655 S
C431 H417 0.929 1_556 S
C431 C430 1.399 1_455 S
C431 C432 1.385 . S
C432 H418 0.931 . S
C432 C431 1.385 . S
C432 C433 1.389 . S
C433 C432 1.389 . S
C433 C434 1.387 . S
C434 H419 0.930 . S
C434 C429 1.390 1_455 S
C434 C433 1.387 . S
H435 C447 0.930 1_556 S
H436 C449 0.930 . S
H437 C450 0.930 . S
H438 C454 0.959 1_554 S
H439 C454 0.959 . S
H440 C454 0.961 . S
H441 C455 0.960 . S
H442 C455 0.961 . S
H443 C455 0.959 . S
H444 C458 0.929 . S
H445 C459 0.931 . S
H446 C461 0.930 . S
C447 H435 0.930 1_554 S
C447 C448 1.399 . S
C447 C452 1.399 . S
C448 C447 1.399 . S
C448 C449 1.376 . S
C449 H436 0.930 . S
C449 C448 1.376 . S
C449 C450 1.388 . S
C450 H437 0.930 . S
C450 C449 1.388 . S
C450 C451 1.390 . S
C451 C450 1.390 . S
C451 C452 1.394 . S
C451 C457 1.465 . S
C452 C447 1.399 . S
C452 C451 1.394 . S
C452 C453 1.516 1_554 S
C453 C452 1.516 1_556 S
C453 C454 1.502 . S
C453 C455 1.561 . S
C453 C456 1.526 . S
C454 H438 0.959 1_556 S
C454 H439 0.959 . S
C454 H440 0.961 . S
C454 C453 1.502 . S
C455 H441 0.960 . S
C455 H442 0.961 . S
C455 H443 0.959 . S
C455 C453 1.561 . S
C456 C453 1.526 . S
C456 C457 1.396 1_556 S
C456 C461 1.390 1_565 S
C457 C451 1.465 . S
C457 C456 1.396 1_554 S
C457 C458 1.399 1_565 S
C458 H444 0.929 . S
C458 C457 1.399 1_545 S
C458 C459 1.385 . S
C459 H445 0.931 . S
C459 C458 1.385 . S
C459 C460 1.389 1_554 S
C460 C459 1.389 1_556 S
C460 C461 1.387 . S
C461 H446 0.930 . S
C461 C456 1.390 1_545 S
C461 C460 1.387 . S
H462 C474 0.930 . S
H463 C476 0.930 . S
H464 C477 0.930 . S
H465 C481 0.959 . S
H466 C481 0.959 1_556 S
H467 C481 0.961 . S
H468 C482 0.960 1_556 S
H469 C482 0.961 1_556 S
H470 C482 0.959 . S
H471 C485 0.929 . S
H472 C486 0.931 . S
H473 C488 0.930 . S
C474 H462 0.930 . S
C474 C475 1.399 . S
C474 C479 1.399 . S
C475 C474 1.399 . S
C475 C476 1.376 . S
C476 H463 0.930 . S
C476 C475 1.376 . S
C476 C477 1.388 . S
C477 H464 0.930 . S
C477 C476 1.388 . S
C477 C478 1.390 . S
C478 C477 1.390 . S
C478 C479 1.394 . S
C478 C484 1.465 . S
C479 C474 1.399 . S
C479 C478 1.394 . S
C479 C480 1.516 . S
C480 C479 1.516 . S
C480 C481 1.502 . S
C480 C482 1.561 . S
C480 C483 1.526 . S
C481 H465 0.959 . S
C481 H466 0.959 1_554 S
C481 H467 0.961 . S
C481 C480 1.502 . S
C482 H468 0.960 1_554 S
C482 H469 0.961 1_554 S
C482 H470 0.959 . S
C482 C480 1.561 . S
C483 C480 1.526 . S
C483 C484 1.396 . S
C483 C488 1.390 . S
C484 C478 1.465 . S
C484 C483 1.396 . S
C484 C485 1.399 . S
C485 H471 0.929 . S
C485 C484 1.399 . S
C485 C486 1.385 . S
C486 H472 0.931 . S
C486 C485 1.385 . S
C486 C487 1.389 . S
C487 C486 1.389 . S
C487 C488 1.387 . S
C488 H473 0.930 . S
C488 C483 1.390 . S
C488 C487 1.387 . S
H489 C501 0.930 . S
H490 C503 0.930 . S
H491 C504 0.928 1_455 S
H492 C508 0.959 . S
H493 C508 0.959 . S
H494 C508 0.961 . S
H495 C509 0.960 . S
H496 C509 0.961 . S
H497 C509 0.959 . S
H498 C512 0.929 . S
H499 C513 0.931 . S
H500 C515 0.930 . S
C501 H489 0.930 . S
C501 C502 1.399 . S
C501 C506 1.399 1_655 S
C502 C501 1.399 . S
C502 C503 1.376 . S
C503 H490 0.930 . S
C503 C502 1.376 . S
C503 C504 1.388 . S
C504 H491 0.928 1_655 S
C504 C503 1.388 . S
C504 C505 1.390 1_655 S
C505 C504 1.390 1_455 S
C505 C506 1.394 . S
C505 C511 1.465 . S
C506 C501 1.399 1_455 S
C506 C505 1.394 . S
C506 C507 1.516 . S
C507 C506 1.516 . S
C507 C508 1.502 . S
C507 C509 1.561 . S
C507 C510 1.526 . S
C508 H492 0.959 . S
C508 H493 0.959 . S
C508 H494 0.961 . S
C508 C507 1.502 . S
C509 H495 0.960 . S
C509 H496 0.961 . S
C509 H497 0.959 . S
C509 C507 1.561 . S
C510 C507 1.526 . S
C510 C511 1.396 . S
C510 C515 1.390 . S
C511 C505 1.465 . S
C511 C510 1.396 . S
C511 C512 1.399 . S
C512 H498 0.929 . S
C512 C511 1.399 . S
C512 C513 1.385 . S
C513 H499 0.931 . S
C513 C512 1.385 . S
C513 C514 1.389 . S
C514 C513 1.389 . S
C514 C515 1.387 . S
C515 H500 0.930 . S
C515 C510 1.390 . S
C515 C514 1.387 . S
H516 C528 0.930 . S
H517 C530 0.930 . S
H518 C531 0.930 . S
H519 C535 0.959 . S
H520 C535 0.959 . S
H521 C535 0.961 . S
H522 C536 0.960 . S
H523 C536 0.961 . S
H524 C536 0.959 . S
H525 C539 0.929 . S
H526 C540 0.931 . S
H527 C542 0.930 . S
C528 H516 0.930 . S
C528 C529 1.399 . S
C528 C533 1.399 . S
C529 C528 1.399 . S
C529 C530 1.376 . S
C530 H517 0.930 . S
C530 C529 1.376 . S
C530 C531 1.388 . S
C531 H518 0.930 . S
C531 C530 1.388 . S
C531 C532 1.390 . S
C532 C531 1.390 . S
C532 C533 1.394 . S
C532 C538 1.465 . S
C533 C528 1.399 . S
C533 C532 1.394 . S
C533 C534 1.516 . S
C534 C533 1.516 . S
C534 C535 1.502 . S
C534 C536 1.561 . S
C534 C537 1.526 . S
C535 H519 0.959 . S
C535 H520 0.959 . S
C535 H521 0.961 . S
C535 C534 1.502 . S
C536 H522 0.960 . S
C536 H523 0.961 . S
C536 H524 0.959 . S
C536 C534 1.561 . S
C537 C534 1.526 . S
C537 C538 1.396 . S
C537 C542 1.390 . S
C538 C532 1.465 . S
C538 C537 1.396 . S
C538 C539 1.399 . S
C539 H525 0.929 . S
C539 C538 1.399 . S
C539 C540 1.385 . S
C540 H526 0.931 . S
C540 C539 1.385 . S
C540 C541 1.389 . S
C541 C540 1.389 . S
C541 C542 1.387 . S
C542 H527 0.930 . S
C542 C537 1.390 . S
C542 C541 1.387 . S
H543 C555 0.930 . S
H544 C557 0.930 . S
H545 C558 0.930 . S
H546 C562 0.959 . S
H547 C562 0.959 . S
H548 C562 0.961 . S
H549 C563 0.960 . S
H550 C563 0.961 . S
H551 C563 0.959 . S
H552 C566 0.929 . S
H553 C567 0.931 . S
H554 C569 0.930 . S
C555 H543 0.930 . S
C555 C556 1.399 . S
C555 C560 1.399 . S
C556 C555 1.399 . S
C556 C557 1.376 . S
C557 H544 0.930 . S
C557 C556 1.376 . S
C557 C558 1.388 . S
C558 H545 0.930 . S
C558 C557 1.388 . S
C558 C559 1.390 . S
C559 C558 1.390 . S
C559 C560 1.394 . S
C559 C565 1.465 . S
C560 C555 1.399 . S
C560 C559 1.394 . S
C560 C561 1.516 . S
C561 C560 1.516 . S
C561 C562 1.502 . S
C561 C563 1.561 . S
C561 C564 1.526 . S
C562 H546 0.959 . S
C562 H547 0.959 . S
C562 H548 0.961 . S
C562 C561 1.502 . S
C563 H549 0.960 . S
C563 H550 0.961 . S
C563 H551 0.959 . S
C563 C561 1.561 . S
C564 C561 1.526 . S
C564 C565 1.396 . S
C564 C569 1.390 . S
C565 C559 1.465 . S
C565 C564 1.396 . S
C565 C566 1.399 . S
C566 H552 0.929 . S
C566 C565 1.399 . S
C566 C567 1.385 . S
C567 H553 0.931 . S
C567 C566 1.385 . S
C567 C568 1.389 . S
C568 C567 1.389 . S
C568 C569 1.387 . S
C569 H554 0.930 . S
C569 C564 1.390 . S
C569 C568 1.387 . S
H570 C582 0.930 . S
H571 C584 0.930 . S
H572 C585 0.930 . S
H573 C589 0.959 . S
H574 C589 0.959 . S
H575 C589 0.961 . S
H576 C590 0.960 . S
H577 C590 0.961 . S
H578 C590 0.959 . S
H579 C593 0.929 . S
H580 C594 0.931 . S
H581 C596 0.930 . S
C582 H570 0.930 . S
C582 C583 1.399 . S
C582 C587 1.399 . S
C583 C582 1.399 . S
C583 C584 1.376 . S
C584 H571 0.930 . S
C584 C583 1.376 . S
C584 C585 1.388 . S
C585 H572 0.930 . S
C585 C584 1.388 . S
C585 C586 1.390 . S
C586 C585 1.390 . S
C586 C587 1.394 . S
C586 C592 1.465 . S
C587 C582 1.399 . S
C587 C586 1.394 . S
C587 C588 1.516 . S
C588 C587 1.516 . S
C588 C589 1.502 . S
C588 C590 1.561 . S
C588 C591 1.526 . S
C589 H573 0.959 . S
C589 H574 0.959 . S
C589 H575 0.961 . S
C589 C588 1.502 . S
C590 H576 0.960 . S
C590 H577 0.961 . S
C590 H578 0.959 . S
C590 C588 1.561 . S
C591 C588 1.526 . S
C591 C592 1.396 . S
C591 C596 1.390 . S
C592 C586 1.465 . S
C592 C591 1.396 . S
C592 C593 1.399 . S
C593 H579 0.929 . S
C593 C592 1.399 . S
C593 C594 1.385 . S
C594 H580 0.931 . S
C594 C593 1.385 . S
C594 C595 1.389 . S
C595 C594 1.389 . S
C595 C596 1.387 . S
C596 H581 0.930 . S
C596 C591 1.390 . S
C596 C595 1.387 . S
H597 C609 0.930 . S
H598 C611 0.930 . S
H599 C612 0.930 . S
H600 C616 0.959 . S
H601 C616 0.959 . S
H602 C616 0.961 . S
H603 C617 0.960 . S
H604 C617 0.961 . S
H605 C617 0.959 . S
H606 C620 0.929 1_554 S
H607 C621 0.931 . S
H608 C623 0.930 . S
C609 H597 0.930 . S
C609 C610 1.399 1_556 S
C609 C614 1.399 . S
C610 C609 1.399 1_554 S
C610 C611 1.376 . S
C611 H598 0.930 . S
C611 C610 1.376 . S
C611 C612 1.388 . S
C612 H599 0.930 . S
C612 C611 1.388 . S
C612 C613 1.390 1_554 S
C613 C612 1.390 1_556 S
C613 C614 1.394 . S
C613 C619 1.465 . S
C614 C609 1.399 . S
C614 C613 1.394 . S
C614 C615 1.516 . S
C615 C614 1.516 . S
C615 C616 1.502 . S
C615 C617 1.561 . S
C615 C618 1.526 . S
C616 H600 0.959 . S
C616 H601 0.959 . S
C616 H602 0.961 . S
C616 C615 1.502 . S
C617 H603 0.960 . S
C617 H604 0.961 . S
C617 H605 0.959 . S
C617 C615 1.561 . S
C618 C615 1.526 . S
C618 C619 1.396 . S
C618 C623 1.390 . S
C619 C613 1.465 . S
C619 C618 1.396 . S
C619 C620 1.399 . S
C620 H606 0.929 1_556 S
C620 C619 1.399 . S
C620 C621 1.385 . S
C621 H607 0.931 . S
C621 C620 1.385 . S
C621 C622 1.389 . S
C622 C621 1.389 . S
C622 C623 1.387 . S
C623 H608 0.930 . S
C623 C618 1.390 . S
C623 C622 1.387 . S
H624 C636 0.930 . S
H625 C638 0.930 . S
H626 C639 0.930 1_556 S
H627 C643 0.959 . S
H628 C643 0.959 . S
H629 C643 0.961 . S
H630 C644 0.960 . S
H631 C644 0.961 . S
H632 C644 0.959 . S
H633 C647 0.929 . S
H634 C648 0.931 . S
H635 C650 0.930 . S
C636 H624 0.930 . S
C636 C637 1.399 . S
C636 C641 1.399 . S
C637 C636 1.399 . S
C637 C638 1.376 . S
C638 H625 0.930 . S
C638 C637 1.376 . S
C638 C639 1.388 . S
C639 H626 0.930 1_554 S
C639 C638 1.388 . S
C639 C640 1.390 . S
C640 C639 1.390 . S
C640 C641 1.394 . S
C640 C646 1.465 . S
C641 C636 1.399 . S
C641 C640 1.394 . S
C641 C642 1.516 . S
C642 C641 1.516 . S
C642 C643 1.502 . S
C642 C644 1.561 . S
C642 C645 1.526 . S
C643 H627 0.959 . S
C643 H628 0.959 . S
C643 H629 0.961 . S
C643 C642 1.502 . S
C644 H630 0.960 . S
C644 H631 0.961 . S
C644 H632 0.959 . S
C644 C642 1.561 . S
C645 C642 1.526 . S
C645 C646 1.396 . S
C645 C650 1.390 . S
C646 C640 1.465 . S
C646 C645 1.396 . S
C646 C647 1.399 1_554 S
C647 H633 0.929 . S
C647 C646 1.399 1_556 S
C647 C648 1.385 . S
C648 H634 0.931 . S
C648 C647 1.385 . S
C648 C649 1.389 . S
C649 C648 1.389 . S
C649 C650 1.387 1_556 S
C650 H635 0.930 . S
C650 C645 1.390 . S
C650 C649 1.387 1_554 S
H651 C663 0.930 . S
H652 C665 0.930 . S
H653 C666 0.930 . S
H654 C670 0.959 . S
H655 C670 0.959 . S
H656 C670 0.961 . S
H657 C671 0.960 . S
H658 C671 0.961 . S
H659 C671 0.959 . S
H660 C674 0.929 . S
H661 C675 0.931 . S
H662 C677 0.930 . S
C663 H651 0.930 . S
C663 C664 1.399 . S
C663 C668 1.399 . S
C664 C663 1.399 . S
C664 C665 1.376 . S
C665 H652 0.930 . S
C665 C664 1.376 . S
C665 C666 1.388 . S
C666 H653 0.930 . S
C666 C665 1.388 . S
C666 C667 1.390 . S
C667 C666 1.390 . S
C667 C668 1.394 . S
C667 C673 1.465 . S
C668 C663 1.399 . S
C668 C667 1.394 . S
C668 C669 1.516 . S
C669 C668 1.516 . S
C669 C670 1.502 . S
C669 C671 1.561 . S
C669 C672 1.526 . S
C670 H654 0.959 . S
C670 H655 0.959 . S
C670 H656 0.961 . S
C670 C669 1.502 . S
C671 H657 0.960 . S
C671 H658 0.961 . S
C671 H659 0.959 . S
C671 C669 1.561 . S
C672 C669 1.526 . S
C672 C673 1.396 . S
C672 C677 1.390 . S
C673 C667 1.465 . S
C673 C672 1.396 . S
C673 C674 1.399 . S
C674 H660 0.929 . S
C674 C673 1.399 . S
C674 C675 1.385 . S
C675 H661 0.931 . S
C675 C674 1.385 . S
C675 C676 1.389 . S
C676 C675 1.389 . S
C676 C677 1.387 . S
C677 H662 0.930 . S
C677 C672 1.390 . S
C677 C676 1.387 . S
C205 C29 1.013 . S
C217 C2 1.022 . S
C232 C61 1.039 . S
C244 C34 1.005 . S
C259 C66 1.019 . S
C271 C93 1.018 . S
C286 C98 1.001 . S
C298 C125 1.045 . S
C313 C134 1.037 . S
C325 C132 0.992 1_556 S
C340 C189 1.023 . S
C352 C162 1.016 . S
C367 C4 1.513 . S
C379 N178 1.478 . S
C394 N18 1.502 . S
C406 C36 1.532 . S
C421 C68 1.518 . S
C433 N50 1.483 . S
C448 C100 1.499 . S
C460 N82 1.463 . S
C475 C157 1.518 . S
C487 N114 1.483 . S
C502 N141 1.446 . S
C514 C164 1.479 . S
C529 C6 1.869 . S
C541 N146 1.795 . S
C556 C38 1.896 . S
C568 N173 1.737 . S
C583 C70 1.874 . S
C595 N13 1.785 . S
C610 C102 1.894 . S
C622 N45 1.741 . S
C637 C130 1.863 . S
C649 N77 1.808 . S
C664 N109 1.755 . S
C676 C166 1.886 . S
