# Generated by pormake.
# Topology pcl, (4)-cn, num edge types: 1
# Building blocks:
#     Node 0, Type 0, BuildingBlock: QUQFOY_clean_sbu_1, # of connection points: 4
#     Node 1, Type 0, BuildingBlock: QUQFOY_clean_sbu_1, # of connection points: 4
#     Node 2, Type 0, BuildingBlock: QUQFOY_clean_sbu_1, # of connection points: 4
#     Node 3, Type 0, BuildingBlock: QUQFOY_clean_sbu_1, # of connection points: 4
#     Node 4, Type 0, BuildingBlock: QUQFOY_clean_sbu_1, # of connection points: 4
#     Node 5, Type 0, BuildingBlock: QUQFOY_clean_sbu_1, # of connection points: 4
#     Node 6, Type 0, BuildingBlock: QUQFOY_clean_sbu_1, # of connection points: 4
#     Node 7, Type 0, BuildingBlock: QUQFOY_clean_sbu_1, # of connection points: 4
#     Node 8, Type 0, BuildingBlock: QUQFOY_clean_sbu_1, # of connection points: 4
#     Node 9, Type 0, BuildingBlock: QUQFOY_clean_sbu_1, # of connection points: 4
#     Node 10, Type 0, BuildingBlock: QUQFOY_clean_sbu_1, # of connection points: 4
#     Node 11, Type 0, BuildingBlock: QUQFOY_clean_sbu_1, # of connection points: 4
#     Node 12, Type 0, BuildingBlock: QUQFOY_clean_sbu_1, # of connection points: 4
#     Node 13, Type 0, BuildingBlock: QUQFOY_clean_sbu_1, # of connection points: 4
#     Node 14, Type 0, BuildingBlock: QUQFOY_clean_sbu_1, # of connection points: 4
#     Node 15, Type 0, BuildingBlock: QUQFOY_clean_sbu_1, # of connection points: 4
#     Edge 16, Type (0, 0), BuildingBlock: KIFKEQ_clean_linker_1, # of connection points: 2
#     Edge 17, Type (0, 0), BuildingBlock: KIFKEQ_clean_linker_1, # of connection points: 2
#     Edge 18, Type (0, 0), BuildingBlock: KIFKEQ_clean_linker_1, # of connection points: 2
#     Edge 19, Type (0, 0), BuildingBlock: KIFKEQ_clean_linker_1, # of connection points: 2
#     Edge 20, Type (0, 0), BuildingBlock: KIFKEQ_clean_linker_1, # of connection points: 2
#     Edge 21, Type (0, 0), BuildingBlock: KIFKEQ_clean_linker_1, # of connection points: 2
#     Edge 22, Type (0, 0), BuildingBlock: KIFKEQ_clean_linker_1, # of connection points: 2
#     Edge 23, Type (0, 0), BuildingBlock: KIFKEQ_clean_linker_1, # of connection points: 2
#     Edge 24, Type (0, 0), BuildingBlock: KIFKEQ_clean_linker_1, # of connection points: 2
#     Edge 25, Type (0, 0), BuildingBlock: KIFKEQ_clean_linker_1, # of connection points: 2
#     Edge 26, Type (0, 0), BuildingBlock: KIFKEQ_clean_linker_1, # of connection points: 2
#     Edge 27, Type (0, 0), BuildingBlock: KIFKEQ_clean_linker_1, # of connection points: 2
#     Edge 28, Type (0, 0), BuildingBlock: KIFKEQ_clean_linker_1, # of connection points: 2
#     Edge 29, Type (0, 0), BuildingBlock: KIFKEQ_clean_linker_1, # of connection points: 2
#     Edge 30, Type (0, 0), BuildingBlock: KIFKEQ_clean_linker_1, # of connection points: 2
#     Edge 31, Type (0, 0), BuildingBlock: KIFKEQ_clean_linker_1, # of connection points: 2
#     Edge 32, Type (0, 0), BuildingBlock: KIFKEQ_clean_linker_1, # of connection points: 2
#     Edge 33, Type (0, 0), BuildingBlock: KIFKEQ_clean_linker_1, # of connection points: 2
#     Edge 34, Type (0, 0), BuildingBlock: KIFKEQ_clean_linker_1, # of connection points: 2
#     Edge 35, Type (0, 0), BuildingBlock: KIFKEQ_clean_linker_1, # of connection points: 2
#     Edge 36, Type (0, 0), BuildingBlock: KIFKEQ_clean_linker_1, # of connection points: 2
#     Edge 37, Type (0, 0), BuildingBlock: KIFKEQ_clean_linker_1, # of connection points: 2
#     Edge 38, Type (0, 0), BuildingBlock: KIFKEQ_clean_linker_1, # of connection points: 2
#     Edge 39, Type (0, 0), BuildingBlock: KIFKEQ_clean_linker_1, # of connection points: 2
#     Edge 40, Type (0, 0), BuildingBlock: KIFKEQ_clean_linker_1, # of connection points: 2
#     Edge 41, Type (0, 0), BuildingBlock: KIFKEQ_clean_linker_1, # of connection points: 2
#     Edge 42, Type (0, 0), BuildingBlock: KIFKEQ_clean_linker_1, # of connection points: 2
#     Edge 43, Type (0, 0), BuildingBlock: KIFKEQ_clean_linker_1, # of connection points: 2
#     Edge 44, Type (0, 0), BuildingBlock: KIFKEQ_clean_linker_1, # of connection points: 2
#     Edge 45, Type (0, 0), BuildingBlock: KIFKEQ_clean_linker_1, # of connection points: 2
#     Edge 46, Type (0, 0), BuildingBlock: KIFKEQ_clean_linker_1, # of connection points: 2
#     Edge 47, Type (0, 0), BuildingBlock: KIFKEQ_clean_linker_1, # of connection points: 2
# Relax obj value: 0.092
# Max RMSD: 0.136
# Mean RMSD: 0.119
data_MOF--net-pcl--node1-QUQFOY_clean_sbu_1--edge1-KIFKEQ_clean_linker_1
_symmetry_space_group_name_H-M    P1
_symmetry_Int_Tables_number       1
_symmetry_cell_setting            triclinic
loop_
_symmetry_equiv_pos_as_xyz
'x, y, z'
_cell_length_a     53.703066
_cell_length_b     45.270346
_cell_length_c     46.814453
_cell_angle_alpha  89.98337
_cell_angle_beta   89.966066
_cell_angle_gamma 89.986004
loop_
_atom_site_label
_atom_site_type_symbol
_atom_site_fract_x
_atom_site_fract_y
_atom_site_fract_z
_atom_type_partial_charge
O0 O 0.16493 0.31727 0.1349 0.0
Cd1 Cd 0.15675 0.31055 0.09237 0.0
Cd2 Cd 0.14879 0.3698 0.09037 0.0
O3 O 0.1612 0.36572 0.13213 0.0
O4 O 0.17513 0.27547 0.07762 0.0
O5 O 0.18283 0.32134 0.06351 0.0
C6 C 0.18803 0.29348 0.06214 0.0
C7 C 0.1619 0.41158 0.06484 0.0
C8 C 0.16608 0.34259 0.14655 0.0
C9 C 0.10508 0.3291 0.07799 0.0
O10 O 0.11323 0.35536 0.08037 0.0
O11 O 0.11954 0.30721 0.08171 0.0
O12 O 0.14618 0.41346 0.08552 0.0
O13 O 0.17068 0.38578 0.05875 0.0
O14 O 0.8567 0.69077 0.63719 0.0
Cd15 Cd 0.86508 0.69464 0.59415 0.0
Cd16 Cd 0.86966 0.63553 0.5961 0.0
O17 O 0.85465 0.64212 0.63624 0.0
O18 O 0.8477 0.72955 0.5774 0.0
O19 O 0.8384 0.68324 0.56632 0.0
C20 C 0.834 0.71115 0.56333 0.0
C21 C 0.85631 0.59442 0.56978 0.0
C22 C 0.85221 0.66637 0.64966 0.0
C23 C 0.91612 0.67188 0.58414 0.0
O24 O 0.90658 0.64688 0.58995 0.0
O25 O 0.90242 0.69476 0.58294 0.0
O26 O 0.87003 0.59163 0.59215 0.0
O27 O 0.84955 0.62074 0.56254 0.0
O28 O 0.16555 0.68857 0.87511 0.0
Cd29 Cd 0.1572 0.69198 0.9182 0.0
Cd30 Cd 0.15228 0.63295 0.91555 0.0
O31 O 0.16755 0.63992 0.87559 0.0
O32 O 0.17464 0.72667 0.93525 0.0
O33 O 0.18385 0.68021 0.94593 0.0
C34 C 0.18828 0.70808 0.94918 0.0
C35 C 0.16514 0.59135 0.94148 0.0
C36 C 0.17005 0.6643 0.86241 0.0
C37 C 0.10603 0.66954 0.92788 0.0
O38 O 0.11541 0.64456 0.92162 0.0
O39 O 0.11989 0.69224 0.92949 0.0
O40 O 0.15161 0.589 0.91891 0.0
O41 O 0.17201 0.61749 0.94915 0.0
O42 O 0.85844 0.32314 0.37372 0.0
Cd43 Cd 0.8658 0.31744 0.4168 0.0
Cd44 Cd 0.87061 0.37663 0.41633 0.0
O45 O 0.85709 0.37175 0.37533 0.0
O46 O 0.84827 0.28087 0.42927 0.0
O47 O 0.83861 0.32546 0.44532 0.0
C48 C 0.83418 0.29738 0.44493 0.0
C49 C 0.85705 0.41749 0.44286 0.0
C50 C 0.85475 0.3478 0.36142 0.0
C51 C 0.91659 0.33933 0.429 0.0
O52 O 0.90717 0.36452 0.4237 0.0
O53 O 0.9029 0.31641 0.42898 0.0
O54 O 0.87158 0.42036 0.42117 0.0
O55 O 0.84961 0.39121 0.44933 0.0
O56 O 0.86229 0.62712 0.97568 0.0
Cd57 Cd 0.86897 0.6703 0.96374 0.0
Cd58 Cd 0.87219 0.64405 0.90988 0.0
O59 O 0.86082 0.60737 0.93265 0.0
O60 O 0.85613 0.69395 0.99646 0.0
O61 O 0.83955 0.69587 0.95326 0.0
C62 C 0.83893 0.70383 0.97977 0.0
C63 C 0.85875 0.64788 0.86224 0.0
C64 C 0.85897 0.60486 0.95961 0.0
C65 C 0.91859 0.67304 0.93543 0.0
O66 O 0.90839 0.65778 0.91588 0.0
O67 O 0.90584 0.68206 0.95663 0.0
O68 O 0.8741 0.62779 0.87042 0.0
O69 O 0.85032 0.66581 0.88137 0.0
O70 O 0.16134 0.38582 0.47302 0.0
Cd71 Cd 0.15414 0.3425 0.46184 0.0
Cd72 Cd 0.14927 0.36886 0.40762 0.0
O73 O 0.16073 0.40572 0.42997 0.0
O74 O 0.1674 0.31935 0.49468 0.0
O75 O 0.18322 0.31644 0.45115 0.0
C76 C 0.18422 0.30895 0.47778 0.0
C77 C 0.16135 0.3655 0.35948 0.0
C78 C 0.16376 0.40815 0.45679 0.0
C79 C 0.10388 0.33907 0.43492 0.0
O80 O 0.11353 0.35423 0.41492 0.0
O81 O 0.11711 0.33057 0.45593 0.0
O82 O 0.14581 0.38509 0.36829 0.0
O83 O 0.17078 0.34786 0.37825 0.0
O84 O 0.86148 0.38093 0.03467 0.0
Cd85 Cd 0.86822 0.33806 0.04708 0.0
Cd86 Cd 0.87699 0.36388 0.10013 0.0
O87 O 0.86698 0.40116 0.07709 0.0
O88 O 0.85238 0.31218 0.01786 0.0
O89 O 0.83922 0.31491 0.06264 0.0
C90 C 0.83655 0.30435 0.03716 0.0
C91 C 0.86442 0.36199 0.14815 0.0
C92 C 0.86178 0.40358 0.05069 0.0
C93 C 0.91953 0.33113 0.07123 0.0
O94 O 0.91164 0.34569 0.0926 0.0
O95 O 0.90514 0.32524 0.05044 0.0
O96 O 0.88114 0.38019 0.13934 0.0
O97 O 0.85424 0.34485 0.12947 0.0
O98 O 0.16011 0.63041 0.53545 0.0
Cd99 Cd 0.15348 0.67277 0.54996 0.0
Cd100 Cd 0.15031 0.64498 0.60211 0.0
O101 O 0.16211 0.60944 0.57795 0.0
O102 O 0.16784 0.70035 0.52112 0.0
O103 O 0.18315 0.69512 0.56477 0.0
C104 C 0.1847 0.70696 0.53968 0.0
C105 C 0.16413 0.64798 0.64964 0.0
C106 C 0.16378 0.60773 0.55091 0.0
C107 C 0.10372 0.67426 0.57801 0.0
O108 O 0.11386 0.65806 0.59688 0.0
O109 O 0.11661 0.68441 0.55741 0.0
O110 O 0.14916 0.62762 0.64118 0.0
O111 O 0.17203 0.6666 0.63081 0.0
O112 O 0.66661 0.82496 0.14308 0.0
Cd113 Cd 0.65786 0.81829 0.10044 0.0
Cd114 Cd 0.65087 0.87735 0.10026 0.0
O115 O 0.66321 0.87348 0.14177 0.0
O116 O 0.67556 0.78177 0.08813 0.0
O117 O 0.68407 0.8261 0.07065 0.0
C118 C 0.68893 0.79814 0.07153 0.0
C119 C 0.66453 0.91783 0.07327 0.0
C120 C 0.66791 0.8499 0.15549 0.0
C121 C 0.6061 0.83826 0.08837 0.0
O122 O 0.61488 0.86403 0.0922 0.0
O123 O 0.62035 0.81584 0.08971 0.0
O124 O 0.64936 0.92092 0.09435 0.0
O125 O 0.67252 0.89155 0.06767 0.0
O126 O 0.35662 0.18575 0.63921 0.0
Cd127 Cd 0.36492 0.1917 0.5964 0.0
Cd128 Cd 0.36942 0.13253 0.59653 0.0
O129 O 0.3546 0.1372 0.63699 0.0
O130 O 0.34793 0.22858 0.5838 0.0
O131 O 0.33821 0.18424 0.5672 0.0
C132 C 0.33399 0.21236 0.56772 0.0
C133 C 0.35619 0.09218 0.5691 0.0
C134 C 0.35219 0.16103 0.65106 0.0
C135 C 0.4159 0.1695 0.58562 0.0
O136 O 0.40628 0.14434 0.59059 0.0
O137 O 0.40226 0.19247 0.58522 0.0
O138 O 0.37014 0.08885 0.59122 0.0
O139 O 0.34919 0.11865 0.56267 0.0
O140 O 0.66504 0.18887 0.87617 0.0
Cd141 Cd 0.65625 0.19204 0.9191 0.0
Cd142 Cd 0.65303 0.13292 0.91653 0.0
O143 O 0.6685 0.14032 0.87675 0.0
O144 O 0.67282 0.22718 0.93643 0.0
O145 O 0.68295 0.18095 0.94696 0.0
C146 C 0.6868 0.20892 0.95032 0.0
C147 C 0.66683 0.09237 0.94337 0.0
C148 C 0.67037 0.16479 0.86356 0.0
C149 C 0.60566 0.16769 0.92803 0.0
O150 O 0.61579 0.14307 0.92197 0.0
O151 O 0.61887 0.19091 0.92985 0.0
O152 O 0.65369 0.08902 0.92061 0.0
O153 O 0.67285 0.11894 0.95062 0.0
O154 O 0.356 0.81922 0.37444 0.0
Cd155 Cd 0.36482 0.81641 0.41741 0.0
Cd156 Cd 0.3685 0.87555 0.41415 0.0
O157 O 0.3531 0.86783 0.37442 0.0
O158 O 0.34805 0.78153 0.43511 0.0
O159 O 0.33818 0.82791 0.44528 0.0
C160 C 0.33418 0.8 0.44889 0.0
C161 C 0.35483 0.91653 0.44043 0.0
C162 C 0.35095 0.84322 0.36154 0.0
C163 C 0.41563 0.84048 0.4261 0.0
O164 O 0.40567 0.86515 0.41989 0.0
O165 O 0.40227 0.81737 0.42802 0.0
O166 O 0.36814 0.91949 0.41772 0.0
O167 O 0.34859 0.89011 0.44795 0.0
O168 O 0.36319 0.12225 0.97776 0.0
Cd169 Cd 0.3688 0.16471 0.96302 0.0
Cd170 Cd 0.37067 0.13731 0.91117 0.0
O171 O 0.35753 0.10235 0.93527 0.0
O172 O 0.35429 0.19243 0.99158 0.0
O173 O 0.33879 0.18627 0.94811 0.0
C174 C 0.3373 0.19856 0.97299 0.0
C175 C 0.35697 0.14078 0.86365 0.0
C176 C 0.35761 0.1001 0.96234 0.0
C177 C 0.41792 0.16592 0.93448 0.0
O178 O 0.40757 0.14913 0.91625 0.0
O179 O 0.40522 0.17694 0.95477 0.0
O180 O 0.3714 0.11988 0.87214 0.0
O181 O 0.34954 0.1597 0.88245 0.0
O182 O 0.65781 0.87992 0.48229 0.0
Cd183 Cd 0.65207 0.8382 0.46587 0.0
Cd184 Cd 0.65227 0.86658 0.4154 0.0
O185 O 0.66684 0.89985 0.44062 0.0
O186 O 0.66613 0.80909 0.49343 0.0
O187 O 0.68225 0.81736 0.45055 0.0
C188 C 0.68347 0.804 0.47494 0.0
C189 C 0.66761 0.8618 0.36879 0.0
C190 C 0.66534 0.90182 0.46765 0.0
C191 C 0.60355 0.84009 0.43617 0.0
O192 O 0.61461 0.85766 0.41917 0.0
O193 O 0.61571 0.82716 0.45584 0.0
O194 O 0.65495 0.88451 0.37665 0.0
O195 O 0.6722 0.84167 0.3876 0.0
O196 O 0.36482 0.87546 0.03472 0.0
Cd197 Cd 0.37022 0.83302 0.04964 0.0
Cd198 Cd 0.37097 0.86036 0.10146 0.0
O199 O 0.3578 0.89509 0.07706 0.0
O200 O 0.35579 0.8053 0.02106 0.0
O201 O 0.33995 0.81185 0.06434 0.0
C202 C 0.33855 0.79951 0.03947 0.0
C203 C 0.35686 0.85732 0.14888 0.0
C204 C 0.35856 0.89745 0.05001 0.0
C205 C 0.41882 0.83207 0.07907 0.0
O206 O 0.40804 0.84892 0.09695 0.0
O207 O 0.40653 0.82077 0.05862 0.0
O208 O 0.37121 0.87825 0.1403 0.0
O209 O 0.34977 0.83807 0.13024 0.0
O210 O 0.65904 0.12626 0.53777 0.0
Cd211 Cd 0.65279 0.16952 0.54969 0.0
Cd212 Cd 0.65087 0.1439 0.6034 0.0
O213 O 0.6641 0.10786 0.58096 0.0
O214 O 0.66589 0.1933 0.51721 0.0
O215 O 0.68235 0.1946 0.56051 0.0
C216 C 0.68311 0.20282 0.53407 0.0
C217 C 0.66405 0.14821 0.65106 0.0
C218 C 0.66441 0.10468 0.554 0.0
C219 C 0.60357 0.17147 0.5782 0.0
O220 O 0.61409 0.15585 0.59728 0.0
O221 O 0.61613 0.18147 0.55727 0.0
O222 O 0.6494 0.12746 0.64279 0.0
O223 O 0.67185 0.16666 0.63203 0.0
H224 H 0.07298 0.36558 0.04988 0.0
H225 H 0.07649 0.28213 0.09445 0.0
H226 H 0.02782 0.36025 0.04528 0.0
H227 H 0.03112 0.27732 0.09052 0.0
H228 H 0.95077 0.31958 0.11566 0.0
H229 H 0.99605 0.31394 0.11395 0.0
H230 H 0.99425 0.32153 0.02212 0.0
H231 H 0.94876 0.3263 0.02367 0.0
C232 C 0.06413 0.34596 0.05841 0.0
C233 C 0.07824 0.3243 0.07257 0.0
C234 C 0.03834 0.34286 0.05564 0.0
C235 C 0.0261 0.31838 0.06754 0.0
C236 C 0.04021 0.29636 0.08113 0.0
C237 C 0.06611 0.29909 0.08329 0.0
C238 C 0.95998 0.31939 0.09507 0.0
C239 C 0.94626 0.32341 0.0698 0.0
C240 C 0.98584 0.31606 0.0941 0.0
C241 C 0.99854 0.31738 0.06792 0.0
C242 C 0.98481 0.32044 0.04256 0.0
C243 C 0.95884 0.32303 0.04346 0.0
H244 H 0.94403 0.72092 0.57003 0.0
H245 H 0.95047 0.62802 0.59015 0.0
H246 H 0.98959 0.72463 0.56792 0.0
H247 H 0.99552 0.63186 0.58807 0.0
H248 H 0.07186 0.65603 0.61969 0.0
H249 H 0.0267 0.65772 0.61959 0.0
H250 H 0.02771 0.70439 0.5392 0.0
H251 H 0.07341 0.70274 0.53912 0.0
C252 C 0.95508 0.70129 0.57378 0.0
C253 C 0.94354 0.67422 0.58048 0.0
C254 C 0.98114 0.70342 0.57249 0.0
C255 C 0.99608 0.67862 0.5782 0.0
C256 C 0.9845 0.65147 0.58405 0.0
C257 C 0.95861 0.64927 0.58509 0.0
C258 C 0.06262 0.66694 0.60203 0.0
C259 C 0.07636 0.67896 0.57923 0.0
C260 C 0.03667 0.66776 0.60195 0.0
C261 C 0.02368 0.68075 0.57917 0.0
C262 C 0.03728 0.6942 0.55703 0.0
C263 C 0.06342 0.69321 0.55699 0.0
H264 H 0.95009 0.65744 0.89242 0.0
H265 H 0.94922 0.69919 0.97549 0.0
H266 H 0.99524 0.65892 0.8922 0.0
H267 H 0.99493 0.70068 0.97505 0.0
H268 H 0.0786 0.71826 0.94409 0.0
H269 H 0.03307 0.7224 0.94667 0.0
H270 H 0.02629 0.63076 0.92254 0.0
H271 H 0.0713 0.62646 0.92004 0.0
C272 C 0.95948 0.66724 0.91057 0.0
C273 C 0.94593 0.67787 0.93415 0.0
C274 C 0.98542 0.66795 0.91044 0.0
C275 C 0.9986 0.67947 0.9338 0.0
C276 C 0.9852 0.69164 0.95678 0.0
C277 C 0.95906 0.69074 0.95701 0.0
C278 C 0.06737 0.69896 0.93955 0.0
C279 C 0.07865 0.67208 0.93165 0.0
C280 C 0.04134 0.70134 0.94112 0.0
C281 C 0.02617 0.677 0.93445 0.0
C282 C 0.0375 0.65003 0.92734 0.0
C283 C 0.06335 0.64756 0.92605 0.0
H284 H 0.07431 0.31168 0.47541 0.0
H285 H 0.07142 0.35455 0.39291 0.0
H286 H 0.02858 0.30902 0.47587 0.0
H287 H 0.02631 0.35203 0.39368 0.0
H288 H 0.95084 0.38342 0.42474 0.0
H289 H 0.99587 0.37964 0.42724 0.0
H290 H 0.99005 0.2865 0.44554 0.0
H291 H 0.94443 0.29004 0.44281 0.0
C292 C 0.06404 0.32015 0.45727 0.0
C293 C 0.07659 0.33366 0.43429 0.0
C294 C 0.03791 0.31857 0.45754 0.0
C295 C 0.02398 0.33073 0.435 0.0
C296 C 0.03659 0.34292 0.41155 0.0
C297 C 0.0625 0.34427 0.41113 0.0
C298 C 0.95898 0.36208 0.42951 0.0
C299 C 0.94393 0.33696 0.4333 0.0
C300 C 0.98484 0.35995 0.43084 0.0
C301 C 0.99642 0.33273 0.43625 0.0
C302 C 0.98153 0.30775 0.44132 0.0
C303 C 0.95547 0.3098 0.43968 0.0
H304 H 0.44989 0.80059 0.04328 0.0
H305 H 0.44993 0.85438 0.1196 0.0
H306 H 0.49559 0.79936 0.04434 0.0
H307 H 0.49512 0.85313 0.12042 0.0
H308 H 0.57104 0.88168 0.08859 0.0
H309 H 0.52614 0.87662 0.08612 0.0
H310 H 0.53368 0.78227 0.07631 0.0
H311 H 0.57919 0.78717 0.07893 0.0
C312 C 0.45955 0.81179 0.06045 0.0
C313 C 0.4462 0.82787 0.08116 0.0
C314 C 0.48568 0.81101 0.06106 0.0
C315 C 0.49885 0.82652 0.08222 0.0
C316 C 0.48546 0.8414 0.10357 0.0
C317 C 0.45951 0.842 0.10312 0.0
C318 C 0.56331 0.85978 0.08573 0.0
C319 C 0.57882 0.83479 0.08421 0.0
C320 C 0.53751 0.85691 0.08446 0.0
C321 C 0.52641 0.82902 0.08143 0.0
C322 C 0.54178 0.80403 0.0787 0.0
C323 C 0.56779 0.80686 0.08026 0.0
H324 H 0.57297 0.20074 0.54021 0.0
H325 H 0.57193 0.15171 0.61948 0.0
H326 H 0.52729 0.20247 0.54076 0.0
H327 H 0.52676 0.15348 0.61985 0.0
H328 H 0.45006 0.12528 0.59035 0.0
H329 H 0.49511 0.12885 0.58805 0.0
H330 H 0.48958 0.2222 0.57044 0.0
H331 H 0.444 0.21878 0.57278 0.0
C332 C 0.56309 0.19067 0.55788 0.0
C333 C 0.57617 0.17582 0.57964 0.0
C334 C 0.53696 0.19173 0.5582 0.0
C335 C 0.52349 0.17773 0.58013 0.0
C336 C 0.53662 0.164 0.6024 0.0
C337 C 0.56258 0.16313 0.60221 0.0
C338 C 0.45829 0.14662 0.58581 0.0
C339 C 0.44332 0.1718 0.58196 0.0
C340 C 0.48417 0.14865 0.58465 0.0
C341 C 0.49587 0.17586 0.57942 0.0
C342 C 0.48103 0.20094 0.57451 0.0
C343 C 0.45497 0.19897 0.57593 0.0
H344 H 0.57237 0.12264 0.92235 0.0
H345 H 0.57658 0.21603 0.94104 0.0
H346 H 0.52724 0.12505 0.92423 0.0
H347 H 0.53099 0.21834 0.94281 0.0
H348 H 0.44813 0.19649 0.97175 0.0
H349 H 0.49374 0.19882 0.97131 0.0
H350 H 0.49495 0.148 0.89331 0.0
H351 H 0.44979 0.1455 0.8937 0.0
C352 C 0.56371 0.14371 0.927 0.0
C353 C 0.57818 0.16919 0.93134 0.0
C354 C 0.53778 0.1451 0.9279 0.0
C355 C 0.52556 0.17196 0.93328 0.0
C356 C 0.53992 0.19733 0.93863 0.0
C357 C 0.56601 0.19599 0.93754 0.0
C358 C 0.45814 0.18612 0.95435 0.0
C359 C 0.44527 0.17054 0.93293 0.0
C360 C 0.48424 0.18752 0.95408 0.0
C361 C 0.49791 0.1732 0.93252 0.0
C362 C 0.48496 0.15874 0.91054 0.0
C363 C 0.45902 0.15746 0.91071 0.0
H364 H 0.44456 0.79168 0.43784 0.0
H365 H 0.44905 0.88564 0.42221 0.0
H366 H 0.49009 0.78923 0.44019 0.0
H367 H 0.49414 0.88315 0.42481 0.0
H368 H 0.57257 0.8643 0.39638 0.0
H369 H 0.52739 0.86251 0.39481 0.0
H370 H 0.5267 0.8064 0.46941 0.0
H371 H 0.57227 0.80791 0.47092 0.0
C372 C 0.45519 0.81181 0.43513 0.0
C373 C 0.44309 0.83882 0.42963 0.0
C374 C 0.48126 0.8104 0.43656 0.0
C375 C 0.49573 0.83593 0.43233 0.0
C376 C 0.48357 0.86297 0.42758 0.0
C377 C 0.45765 0.86441 0.42628 0.0
C378 C 0.5629 0.85136 0.41238 0.0
C379 C 0.57612 0.83645 0.43393 0.0
C380 C 0.53694 0.85049 0.41156 0.0
C381 C 0.52343 0.83467 0.43223 0.0
C382 C 0.53659 0.81874 0.45315 0.0
C383 C 0.56269 0.81968 0.45404 0.0
H384 H 0.17695 0.39278 0.17634 0.0
H385 H 0.16705 0.29869 0.18695 0.0
H386 H 0.18071 0.39845 0.22782 0.0
H387 H 0.17009 0.30451 0.23866 0.0
H388 H 0.18917 0.32304 0.33197 0.0
H389 H 0.19514 0.31741 0.28034 0.0
H390 H 0.15119 0.39599 0.26596 0.0
H391 H 0.14578 0.40191 0.31699 0.0
C392 C 0.17574 0.37325 0.18965 0.0
C393 C 0.17138 0.34533 0.17752 0.0
C394 C 0.17779 0.37652 0.21921 0.0
C395 C 0.17531 0.35201 0.23746 0.0
C396 C 0.17225 0.32385 0.22526 0.0
C397 C 0.17038 0.32053 0.1956 0.0
C398 C 0.1811 0.33928 0.31772 0.0
C399 C 0.16696 0.36288 0.32859 0.0
C400 C 0.18439 0.33596 0.28816 0.0
C401 C 0.17368 0.35627 0.26896 0.0
C402 C 0.16009 0.3802 0.28003 0.0
C403 C 0.15681 0.38348 0.3094 0.0
H404 H 0.85625 0.71127 0.68882 0.0
H405 H 0.83496 0.61962 0.68066 0.0
H406 H 0.85305 0.70726 0.74073 0.0
H407 H 0.8312 0.61586 0.73231 0.0
H408 H 0.83406 0.69323 0.83514 0.0
H409 H 0.82711 0.69886 0.78363 0.0
H410 H 0.86266 0.61456 0.76905 0.0
H411 H 0.86918 0.60882 0.81994 0.0
C412 C 0.85034 0.69047 0.69803 0.0
C413 C 0.84627 0.66563 0.6806 0.0
C414 C 0.8484 0.68821 0.72781 0.0
C415 C 0.84225 0.6611 0.74071 0.0
C416 C 0.83653 0.63688 0.72311 0.0
C417 C 0.8386 0.63908 0.69345 0.0
C418 C 0.84003 0.67577 0.82089 0.0
C419 C 0.85223 0.65062 0.83162 0.0
C420 C 0.83619 0.67907 0.7914 0.0
C421 C 0.84428 0.65714 0.7722 0.0
C422 C 0.8558 0.63168 0.78317 0.0
C423 C 0.85973 0.62848 0.81243 0.0
H424 H 0.18769 0.61798 0.83111 0.0
H425 H 0.16581 0.70951 0.82359 0.0
H426 H 0.19167 0.61473 0.77944 0.0
H427 H 0.16919 0.706 0.77167 0.0
H428 H 0.15431 0.6081 0.69145 0.0
H429 H 0.16067 0.61333 0.74242 0.0
H430 H 0.19511 0.69844 0.72886 0.0
H431 H 0.18828 0.69335 0.67729 0.0
C432 C 0.18396 0.63753 0.81845 0.0
C433 C 0.17608 0.66389 0.83148 0.0
C434 C 0.18615 0.63562 0.78879 0.0
C435 C 0.18032 0.65994 0.77135 0.0
C436 C 0.17393 0.68687 0.78445 0.0
C437 C 0.17189 0.68885 0.81423 0.0
C438 C 0.1635 0.62783 0.6992 0.0
C439 C 0.1707 0.65036 0.68028 0.0
C440 C 0.16733 0.63074 0.72851 0.0
C441 C 0.17847 0.65628 0.7398 0.0
C442 C 0.18631 0.67858 0.72085 0.0
C443 C 0.18255 0.67559 0.69133 0.0
H444 H 0.83593 0.32057 0.17617 0.0
H445 H 0.87903 0.39988 0.18986 0.0
H446 H 0.82866 0.31681 0.22777 0.0
H447 H 0.87212 0.39594 0.2409 0.0
H448 H 0.85575 0.30221 0.32278 0.0
H449 H 0.85378 0.3058 0.2708 0.0
H450 H 0.84039 0.39961 0.27755 0.0
H451 H 0.84284 0.3962 0.32934 0.0
C452 C 0.84363 0.33732 0.19012 0.0
C453 C 0.8581 0.36047 0.17892 0.0
C454 C 0.83959 0.33508 0.21965 0.0
C455 C 0.84976 0.35611 0.23847 0.0
C456 C 0.86366 0.37962 0.22706 0.0
C457 C 0.86779 0.38175 0.19772 0.0
C458 C 0.852 0.32352 0.3132 0.0
C459 C 0.84982 0.34899 0.33025 0.0
C460 C 0.85075 0.32555 0.28338 0.0
C461 C 0.84727 0.35306 0.27 0.0
C462 C 0.8436 0.37818 0.28716 0.0
C463 C 0.84491 0.37619 0.31689 0.0
H464 H 0.66863 0.81142 0.3368 0.0
H465 H 0.68244 0.90514 0.33273 0.0
H466 H 0.67251 0.80815 0.28494 0.0
H467 H 0.68821 0.90184 0.28131 0.0
H468 H 0.65833 0.89593 0.19109 0.0
H469 H 0.66263 0.89773 0.24243 0.0
H470 H 0.69436 0.80986 0.24197 0.0
H471 H 0.68858 0.80755 0.19026 0.0
C472 C 0.67331 0.83113 0.32482 0.0
C473 C 0.67496 0.85857 0.3386 0.0
C474 C 0.67563 0.82932 0.29505 0.0
C475 C 0.68018 0.85486 0.27859 0.0
C476 C 0.6838 0.88185 0.29295 0.0
C477 C 0.6808 0.88376 0.32251 0.0
C478 C 0.66646 0.87706 0.20185 0.0
C479 C 0.67305 0.85157 0.18655 0.0
C480 C 0.66916 0.87816 0.23146 0.0
C481 C 0.67902 0.85399 0.24668 0.0
C482 C 0.68634 0.82875 0.23119 0.0
C483 C 0.6832 0.82747 0.20148 0.0
H484 H 0.33271 0.18627 0.8363 0.0
H485 H 0.36717 0.1014 0.82151 0.0
H486 H 0.32615 0.19192 0.78478 0.0
H487 H 0.36117 0.10723 0.77055 0.0
H488 H 0.33546 0.1134 0.68129 0.0
H489 H 0.33113 0.10892 0.73285 0.0
H490 H 0.352 0.20052 0.74264 0.0
H491 H 0.35564 0.20525 0.6909 0.0
C492 C 0.33863 0.16872 0.82213 0.0
C493 C 0.35054 0.14345 0.83299 0.0
C494 C 0.33502 0.17202 0.79262 0.0
C495 C 0.34313 0.15004 0.77348 0.0
C496 C 0.3543 0.12441 0.78459 0.0
C497 C 0.35793 0.12116 0.8139 0.0
C498 C 0.33877 0.13273 0.69438 0.0
C499 C 0.34623 0.15958 0.68197 0.0
C500 C 0.33639 0.13012 0.72399 0.0
C501 C 0.34162 0.15422 0.74197 0.0
C502 C 0.34768 0.18155 0.72946 0.0
C503 C 0.3499 0.18422 0.69977 0.0
H504 H 0.68916 0.11911 0.83224 0.0
H505 H 0.66525 0.20994 0.82486 0.0
H506 H 0.69312 0.11605 0.78056 0.0
H507 H 0.66863 0.2066 0.77294 0.0
H508 H 0.65495 0.10837 0.69308 0.0
H509 H 0.6616 0.11385 0.74396 0.0
H510 H 0.69462 0.19966 0.7299 0.0
H511 H 0.68752 0.1943 0.67839 0.0
C512 C 0.68501 0.13855 0.81962 0.0
C513 C 0.67652 0.16463 0.83268 0.0
C514 C 0.68719 0.13675 0.78995 0.0
C515 C 0.68076 0.1609 0.77256 0.0
C516 C 0.67384 0.18762 0.78569 0.0
C517 C 0.67179 0.18949 0.81547 0.0
C518 C 0.66386 0.12833 0.7007 0.0
C519 C 0.6706 0.15096 0.68167 0.0
C520 C 0.66788 0.13137 0.72995 0.0
C521 C 0.67874 0.15716 0.74107 0.0
C522 C 0.68607 0.1796 0.72201 0.0
C523 C 0.68214 0.17647 0.69253 0.0
H524 H 0.36508 0.89817 0.19021 0.0
H525 H 0.33378 0.81137 0.17688 0.0
H526 H 0.35853 0.89333 0.24118 0.0
H527 H 0.32671 0.80667 0.22844 0.0
H528 H 0.35615 0.79778 0.32322 0.0
H529 H 0.35256 0.8006 0.27131 0.0
H530 H 0.32768 0.89107 0.27823 0.0
H531 H 0.33192 0.88853 0.32991 0.0
C532 C 0.35642 0.87817 0.19814 0.0
C533 C 0.35007 0.85509 0.17947 0.0
C534 C 0.35247 0.87548 0.22745 0.0
C535 C 0.34202 0.84963 0.23898 0.0
C536 C 0.33497 0.82679 0.22025 0.0
C537 C 0.33887 0.82954 0.19073 0.0
C538 C 0.3495 0.8181 0.31369 0.0
C539 C 0.34473 0.84309 0.33068 0.0
C540 C 0.34733 0.81967 0.2839 0.0
C541 C 0.34021 0.84622 0.27056 0.0
C542 C 0.33377 0.8705 0.28777 0.0
C543 C 0.3361 0.869 0.31743 0.0
H544 H 0.29098 0.19948 0.94885 0.0
H545 H 0.33493 0.23931 0.01578 0.0
H546 H 0.25392 0.22513 0.96675 0.0
H547 H 0.29804 0.26536 0.03319 0.0
H548 H 0.22821 0.32433 0.04212 0.0
H549 H 0.26445 0.30462 0.01655 0.0
H550 H 0.23079 0.21808 0.01618 0.0
H551 H 0.19489 0.23751 0.04222 0.0
C552 C 0.29284 0.21421 0.96696 0.0
C553 C 0.31582 0.2173 0.981 0.0
C554 C 0.27163 0.22874 0.97725 0.0
C555 C 0.27315 0.24715 1.00136 0.0
C556 C 0.29639 0.25146 0.01445 0.0
C557 C 0.31746 0.23646 1.00455 0.0
C558 C 0.22844 0.30118 0.03627 0.0
C559 C 0.20878 0.28241 0.04429 0.0
C560 C 0.24918 0.28993 0.02174 0.0
C561 C 0.25035 0.25987 0.01437 0.0
C562 C 0.23025 0.24139 0.02137 0.0
C563 C 0.20979 0.25248 0.03642 0.0
H564 H 0.82704 0.76666 0.54207 0.0
H565 H 0.7936 0.67993 0.54453 0.0
H566 H 0.79086 0.78553 0.51624 0.0
H567 H 0.75716 0.69905 0.51905 0.0
H568 H 0.68635 0.76283 0.51739 0.0
H569 H 0.72356 0.73737 0.53459 0.0
H570 H 0.7671 0.77868 0.46817 0.0
H571 H 0.72975 0.80385 0.45057 0.0
C572 C 0.81207 0.75157 0.53685 0.0
C573 C 0.81313 0.72184 0.54543 0.0
C574 C 0.79143 0.76234 0.52192 0.0
C575 C 0.77121 0.74375 0.51568 0.0
C576 C 0.77247 0.71386 0.52368 0.0
C577 C 0.79335 0.70293 0.53816 0.0
C578 C 0.70376 0.76605 0.50611 0.0
C579 C 0.70514 0.78541 0.48268 0.0
C580 C 0.72503 0.75138 0.5159 0.0
C581 C 0.74822 0.75618 0.50279 0.0
C582 C 0.74947 0.77473 0.47875 0.0
C583 C 0.72807 0.78897 0.4686 0.0
H584 H 0.29224 0.79878 0.06377 0.0
H585 H 0.3357 0.75957 0.99601 0.0
H586 H 0.25493 0.77395 0.04561 0.0
H587 H 0.29854 0.73442 0.97826 0.0
H588 H 0.22873 0.67668 0.96757 0.0
H589 H 0.2651 0.69549 0.99338 0.0
H590 H 0.23118 0.78181 0.99744 0.0
H591 H 0.19507 0.76326 0.97126 0.0
C592 C 0.29394 0.78437 0.0454 0.0
C593 C 0.31687 0.7812 0.03124 0.0
C594 C 0.27257 0.77032 0.03494 0.0
C595 C 0.27386 0.75235 0.0105 0.0
C596 C 0.29705 0.74798 0.99725 0.0
C597 C 0.31828 0.76246 0.00735 0.0
C598 C 0.22892 0.69958 0.97428 0.0
C599 C 0.20911 0.71855 0.96726 0.0
C600 C 0.24975 0.71033 0.98895 0.0
C601 C 0.25092 0.74008 0.9974 0.0
C602 C 0.23067 0.75872 0.99141 0.0
C603 C 0.21008 0.74813 0.97627 0.0
H604 H 0.72027 0.23124 0.56377 0.0
H605 H 0.69376 0.21389 0.47826 0.0
H606 H 0.75715 0.25583 0.5438 0.0
H607 H 0.73055 0.2379 0.45861 0.0
H608 H 0.8143 0.24253 0.43833 0.0
H609 H 0.77736 0.22212 0.46124 0.0
H610 H 0.76849 0.30224 0.51009 0.0
H611 H 0.80549 0.32313 0.48673 0.0
C612 C 0.72215 0.23294 0.54079 0.0
C613 C 0.70411 0.22051 0.52262 0.0
C614 C 0.74321 0.24703 0.52941 0.0
C615 C 0.74676 0.24846 0.49969 0.0
C616 C 0.72839 0.23681 0.4816 0.0
C617 C 0.70725 0.22319 0.49291 0.0
C618 C 0.80464 0.25581 0.45408 0.0
C619 C 0.81279 0.28451 0.46062 0.0
C620 C 0.7834 0.24414 0.46708 0.0
C621 C 0.77 0.2607 0.48726 0.0
C622 C 0.77854 0.28903 0.49461 0.0
C623 C 0.79963 0.30097 0.4812 0.0
H624 H 0.71658 0.82368 0.02867 0.0
H625 H 0.70929 0.74352 0.07811 0.0
H626 H 0.75329 0.80291 1.00462 0.0
H627 H 0.74592 0.72322 0.05448 0.0
H628 H 0.82906 0.71521 0.03571 0.0
H629 H 0.79249 0.73917 0.05591 0.0
H630 H 0.76463 0.75661 0.97114 0.0
H631 H 0.80131 0.73209 0.95061 0.0
C632 C 0.7227 0.80163 0.03428 0.0
C633 C 0.71006 0.78528 0.05536 0.0
C634 C 0.74363 0.78976 0.02047 0.0
C635 C 0.75253 0.7616 0.02791 0.0
C636 C 0.73961 0.74512 0.04857 0.0
C637 C 0.71855 0.75672 0.06198 0.0
C638 C 0.81534 0.72439 0.02126 0.0
C639 C 0.81807 0.72158 0.99151 0.0
C640 C 0.79432 0.73798 0.03288 0.0
C641 C 0.77565 0.74946 0.01509 0.0
C642 C 0.7788 0.74794 0.98532 0.0
C643 C 0.79975 0.73389 0.97361 0.0
H644 H 0.31495 0.26773 0.57373 0.0
H645 H 0.30516 0.18695 0.52588 0.0
H646 H 0.27839 0.28871 0.55057 0.0
H647 H 0.26853 0.20839 0.50229 0.0
H648 H 0.22087 0.27934 0.44822 0.0
H649 H 0.25751 0.25434 0.46829 0.0
H650 H 0.23156 0.27416 0.55338 0.0
H651 H 0.19504 0.2986 0.53366 0.0
C652 C 0.30516 0.25453 0.55805 0.0
C653 C 0.31292 0.2256 0.55175 0.0
C654 C 0.28414 0.26652 0.5449 0.0
C655 C 0.27054 0.25007 0.52483 0.0
C656 C 0.27872 0.22153 0.51768 0.0
C657 C 0.29961 0.20928 0.53123 0.0
C658 C 0.22285 0.27798 0.4712 0.0
C659 C 0.20507 0.29107 0.48932 0.0
C660 C 0.24377 0.26366 0.48265 0.0
C661 C 0.24745 0.26264 0.51236 0.0
C662 C 0.22932 0.27494 0.53039 0.0
C663 C 0.20832 0.28881 0.51904 0.0
H664 H 0.83321 0.26568 0.99281 0.0
H665 H 0.7912 0.30121 0.06359 0.0
H666 H 0.7962 0.23942 0.97621 0.0
H667 H 0.75393 0.27535 0.04651 0.0
H668 H 0.69247 0.26404 0.97302 0.0
H669 H 0.72857 0.28354 0.99863 0.0
H670 H 0.76444 0.19845 0.99296 0.0
H671 H 0.7281 0.17866 0.96782 0.0
C672 C 0.81614 0.26754 1.00503 0.0
C673 C 0.81507 0.28553 0.02946 0.0
C674 C 0.79501 0.25242 0.99559 0.0
C675 C 0.77223 0.25545 0.01005 0.0
C676 C 0.77128 0.27273 0.03496 0.0
C677 C 0.7926 0.28737 0.04479 0.0
C678 C 0.70789 0.24937 0.97761 0.0
C679 C 0.7075 0.21986 0.96831 0.0
C680 C 0.72847 0.26049 0.99241 0.0
C681 C 0.74927 0.24249 0.99771 0.0
C682 C 0.74865 0.21278 0.98907 0.0
C683 C 0.72784 0.20147 0.97478 0.0
H684 H 0.23085 0.70883 0.56427 0.0
H685 H 0.18731 0.74643 0.49578 0.0
H686 H 0.26798 0.73403 0.546 0.0
H687 H 0.22426 0.77198 0.47793 0.0
H688 H 0.29335 0.83088 0.46701 0.0
H689 H 0.25715 0.81171 0.49292 0.0
H690 H 0.29208 0.72601 0.49789 0.0
H691 H 0.32803 0.74491 0.47157 0.0
C692 C 0.22909 0.72298 0.54572 0.0
C693 C 0.20619 0.72558 0.53139 0.0
C694 C 0.25035 0.73724 0.53519 0.0
C695 C 0.24898 0.75487 0.51052 0.0
C696 C 0.22581 0.75869 0.4971 0.0
C697 C 0.2047 0.74398 0.50726 0.0
C698 C 0.29343 0.80805 0.47394 0.0
C699 C 0.31348 0.78935 0.46712 0.0
C700 C 0.27269 0.79709 0.48867 0.0
C701 C 0.27184 0.7674 0.4974 0.0
C702 C 0.29234 0.74905 0.49163 0.0
C703 C 0.31284 0.75984 0.47643 0.0
H704 H 0.18477 0.58917 0.99548 0.0
H705 H 0.15856 0.53367 0.92672 0.0
H706 H 0.18939 0.54555 0.0259 0.0
H707 H 0.16302 0.49032 0.95706 0.0
H708 H 0.18626 0.41425 0.01339 0.0
H709 H 0.19255 0.45795 0.98341 0.0
H710 H 0.15814 0.51231 0.04814 0.0
H711 H 0.15199 0.46894 0.07802 0.0
C712 C 0.18037 0.56765 0.98672 0.0
C713 C 0.17108 0.5649 0.95879 0.0
C714 C 0.18291 0.54271 1.00417 0.0
C715 C 0.17645 0.51451 0.99393 0.0
C716 C 0.16839 0.51166 0.96552 0.0
C717 C 0.16566 0.53657 0.94819 0.0
C718 C 0.18041 0.43562 0.02137 0.0
C719 C 0.16844 0.43812 0.04796 0.0
C720 C 0.18392 0.4606 1.00416 0.0
C721 C 0.17577 0.48857 0.01337 0.0
C722 C 0.16487 0.49117 0.04054 0.0
C723 C 0.16118 0.46624 0.05758 0.0
H724 H 0.86393 0.53651 0.58302 0.0
H725 H 0.83473 0.59318 0.51674 0.0
H726 H 0.8587 0.4938 0.55207 0.0
H727 H 0.82925 0.55018 0.48574 0.0
H728 H 0.83482 0.4185 0.49563 0.0
H729 H 0.829 0.46142 0.52673 0.0
H730 H 0.85938 0.51796 0.46105 0.0
H731 H 0.86495 0.47539 0.43005 0.0
C732 C 0.85601 0.53979 0.56198 0.0
C733 C 0.84999 0.56828 0.55222 0.0
C734 C 0.85283 0.51524 0.54431 0.0
C735 C 0.84367 0.5186 0.51639 0.0
C736 C 0.8366 0.54693 0.50706 0.0
C737 C 0.83963 0.57153 0.52484 0.0
C738 C 0.83984 0.44018 0.4877 0.0
C739 C 0.85054 0.44352 0.46049 0.0
C740 C 0.83663 0.46472 0.50554 0.0
C741 C 0.84383 0.49308 0.4964 0.0
C742 C 0.85338 0.49651 0.46865 0.0
C743 C 0.85675 0.47203 0.45095 0.0
H744 H 0.87214 0.45731 0.07439 0.0
H745 H 0.84139 0.41683 0.99867 0.0
H746 H 0.86831 0.50568 0.05234 0.0
H747 H 0.83648 0.46541 0.97699 0.0
H748 H 0.84515 0.59217 0.01451 0.0
H749 H 0.84179 0.54369 0.03677 0.0
H750 H 0.86121 0.50257 0.95642 0.0
H751 H 0.86344 0.55091 0.934 0.0
C752 C 0.86414 0.45878 0.0532 0.0
C753 C 0.85726 0.43318 0.03821 0.0
C754 C 0.86177 0.48662 0.04057 0.0
C755 C 0.85215 0.4896 0.01275 0.0
C756 C 0.84443 0.46399 0.99819 0.0
C757 C 0.8471 0.43611 0.01069 0.0
C758 C 0.8484 0.57273 1.00155 0.0
C759 C 0.85469 0.57542 0.97252 0.0
C760 C 0.84665 0.5449 0.01435 0.0
C761 C 0.85148 0.51908 0.99854 0.0
C762 C 0.85701 0.52183 0.96926 0.0
C763 C 0.85844 0.54963 0.95638 0.0
H764 H 0.18276 0.42067 0.50958 0.0
H765 H 0.15522 0.46214 0.43275 0.0
H766 H 0.18729 0.46898 0.53185 0.0
H767 H 0.15843 0.51027 0.45538 0.0
H768 H 0.17866 0.59654 0.49599 0.0
H769 H 0.18317 0.54857 0.47289 0.0
H770 H 0.16221 0.50548 0.55181 0.0
H771 H 0.15901 0.55321 0.57506 0.0
C772 C 0.17769 0.44014 0.49744 0.0
C773 C 0.16851 0.43757 0.46946 0.0
C774 C 0.1801 0.46788 0.51028 0.0
C775 C 0.17297 0.4937 0.49563 0.0
C776 C 0.16449 0.49107 0.46729 0.0
C777 C 0.16248 0.46338 0.4543 0.0
C778 C 0.17532 0.57676 0.50844 0.0
C779 C 0.16839 0.5787 0.53732 0.0
C780 C 0.17773 0.54922 0.49516 0.0
C781 C 0.17287 0.52297 0.51033 0.0
C782 C 0.16654 0.52503 0.53944 0.0
C783 C 0.16453 0.55251 0.55281 0.0
H784 H 0.66041 0.03411 0.93067 0.0
H785 H 0.6872 0.09229 0.99702 0.0
H786 H 0.66528 0.99199 0.96248 0.0
H787 H 0.69232 0.0499 0.02888 0.0
H788 H 0.68819 0.91805 0.02131 0.0
H789 H 0.69448 0.96041 0.98959 0.0
H790 H 0.6617 0.01786 0.05295 0.0
H791 H 0.65563 0.97585 0.08456 0.0
C792 C 0.66776 0.03786 0.9519 0.0
C793 C 0.67317 0.0666 0.96142 0.0
C794 C 0.67072 0.01364 0.97008 0.0
C795 C 0.67905 0.01761 0.99827 0.0
C796 C 0.6856 0.04619 0.00737 0.0
C797 C 0.68278 0.07044 0.98909 0.0
C798 C 0.68272 0.93982 0.02861 0.0
C799 C 0.67122 0.94357 0.05533 0.0
C800 C 0.68622 0.96403 0.0104 0.0
C801 C 0.6785 0.99247 0.01871 0.0
C802 C 0.66811 0.99634 0.046 0.0
C803 C 0.66445 0.97217 0.06405 0.0
H804 H 0.33332 0.91751 0.49353 0.0
H805 H 0.36246 0.97454 0.42747 0.0
H806 H 0.32805 0.96028 0.52484 0.0
H807 H 0.3575 0.01702 0.45877 0.0
H808 H 0.36384 0.03408 0.5812 0.0
H809 H 0.35816 0.99194 0.54972 0.0
H810 H 0.32838 0.04952 0.48455 0.0
H811 H 0.33436 0.09201 0.51612 0.0
C812 C 0.33826 0.93919 0.48554 0.0
C813 C 0.34853 0.94259 0.45812 0.0
C814 C 0.33535 0.96366 0.50351 0.0
C815 C 0.34252 0.99203 0.49436 0.0
C816 C 0.35156 0.99556 0.4664 0.0
C817 C 0.35458 0.97113 0.44852 0.0
C818 C 0.35577 0.03777 0.5603 0.0
C819 C 0.34977 0.06644 0.55106 0.0
C820 C 0.35233 0.01353 0.54232 0.0
C821 C 0.34289 0.01736 0.51458 0.0
C822 C 0.33592 0.0459 0.50571 0.0
C823 C 0.33924 0.0702 0.52383 0.0
H824 H 0.36676 0.91357 0.99448 0.0
H825 H 0.33962 0.94724 0.07506 0.0
H826 H 0.36309 0.9626 0.97368 0.0
H827 H 0.33512 0.99615 0.05396 0.0
H828 H 0.36481 0.08428 0.01812 0.0
H829 H 0.36166 0.03519 0.03888 0.0
H830 H 0.33604 1.00085 0.95792 0.0
H831 H 0.34004 0.04985 0.93689 0.0
C832 C 0.35958 0.93132 0.00763 0.0
C833 C 0.3537 0.92651 0.03651 0.0
C834 C 0.35733 0.95948 0.99564 0.0
C835 C 0.34894 0.98347 0.01216 0.0
C836 C 0.3421 0.97835 0.04074 0.0
C837 C 0.34454 0.95024 0.0528 0.0
C838 C 0.35825 0.06634 1.00481 0.0
C839 C 0.3529 0.07098 0.97577 0.0
C840 C 0.35629 0.03814 0.01677 0.0
C841 C 0.34874 0.01392 1.00005 0.0
C842 C 0.34239 0.01884 0.9713 0.0
C843 C 0.34453 0.047 0.95927 0.0
H844 H 0.66013 0.08803 0.49812 0.0
H845 H 0.67989 0.05449 0.58152 0.0
H846 H 0.66415 0.0387 0.47828 0.0
H847 H 0.68474 0.00514 0.56143 0.0
H848 H 0.65493 0.9179 0.52271 0.0
H849 H 0.65841 0.96683 0.5438 0.0
H850 H 0.69149 0.99952 0.46575 0.0
H851 H 0.68719 0.95077 0.44433 0.0
C852 C 0.66576 0.07022 0.51216 0.0
C853 C 0.66948 0.07521 0.54147 0.0
C854 C 0.66824 0.04188 0.50072 0.0
C855 C 0.67469 0.01782 0.51825 0.0
C856 C 0.67933 0.02303 0.54739 0.0
C857 C 0.67669 0.05138 0.55888 0.0
C858 C 0.66323 0.93542 0.51016 0.0
C859 C 0.67052 0.93048 0.48172 0.0
C860 C 0.66537 0.96351 0.52232 0.0
C861 C 0.67503 0.98728 0.50641 0.0
C862 C 0.68347 0.98191 0.47843 0.0
C863 C 0.68114 0.9539 0.4662 0.0
loop_
_geom_bond_atom_site_label_1
_geom_bond_atom_site_label_2
_geom_bond_distance
_geom_bond_site_symmetry_2
_ccdc_geom_bond_type
O0 Cd1 2.223 . S
O0 C8 1.315 . S
Cd1 O0 2.223 . S
Cd1 O4 2.297 . S
Cd1 O5 2.439 . S
Cd1 O11 2.240 . S
Cd2 O3 2.240 . S
Cd2 O10 2.223 . S
Cd2 O12 2.297 . S
Cd2 O13 2.439 . S
O3 Cd2 2.240 . S
O3 C8 1.279 . S
O4 Cd1 2.297 . S
O4 C6 1.247 . S
O5 Cd1 2.439 . S
O5 C6 1.208 . S
C6 O4 1.247 . S
C6 O5 1.208 . S
C7 O12 1.247 . S
C7 O13 1.208 . S
C8 O0 1.315 . S
C8 O3 1.279 . S
C9 O10 1.315 . S
C9 O11 1.279 . S
O10 Cd2 2.223 . S
O10 C9 1.315 . S
O11 Cd1 2.240 . S
O11 C9 1.279 . S
O12 Cd2 2.297 . S
O12 C7 1.247 . S
O13 Cd2 2.439 . S
O13 C7 1.208 . S
O14 Cd15 2.223 . S
O14 C22 1.315 . S
Cd15 O14 2.223 . S
Cd15 O18 2.297 . S
Cd15 O19 2.439 . S
Cd15 O25 2.240 . S
Cd16 O17 2.240 . S
Cd16 O24 2.223 . S
Cd16 O26 2.297 . S
Cd16 O27 2.439 . S
O17 Cd16 2.240 . S
O17 C22 1.279 . S
O18 Cd15 2.297 . S
O18 C20 1.247 . S
O19 Cd15 2.439 . S
O19 C20 1.208 . S
C20 O18 1.247 . S
C20 O19 1.208 . S
C21 O26 1.247 . S
C21 O27 1.208 . S
C22 O14 1.315 . S
C22 O17 1.279 . S
C23 O24 1.315 . S
C23 O25 1.279 . S
O24 Cd16 2.223 . S
O24 C23 1.315 . S
O25 Cd15 2.240 . S
O25 C23 1.279 . S
O26 Cd16 2.297 . S
O26 C21 1.247 . S
O27 Cd16 2.439 . S
O27 C21 1.208 . S
O28 Cd29 2.223 . S
O28 C36 1.315 . S
Cd29 O28 2.223 . S
Cd29 O32 2.297 . S
Cd29 O33 2.439 . S
Cd29 O39 2.240 . S
Cd30 O31 2.240 . S
Cd30 O38 2.223 . S
Cd30 O40 2.297 . S
Cd30 O41 2.439 . S
O31 Cd30 2.240 . S
O31 C36 1.279 . S
O32 Cd29 2.297 . S
O32 C34 1.247 . S
O33 Cd29 2.439 . S
O33 C34 1.208 . S
C34 O32 1.247 . S
C34 O33 1.208 . S
C35 O40 1.247 . S
C35 O41 1.208 . S
C36 O28 1.315 . S
C36 O31 1.279 . S
C37 O38 1.315 . S
C37 O39 1.279 . S
O38 Cd30 2.223 . S
O38 C37 1.315 . S
O39 Cd29 2.240 . S
O39 C37 1.279 . S
O40 Cd30 2.297 . S
O40 C35 1.247 . S
O41 Cd30 2.439 . S
O41 C35 1.208 . S
O42 Cd43 2.223 . S
O42 C50 1.315 . S
Cd43 O42 2.223 . S
Cd43 O46 2.297 . S
Cd43 O47 2.439 . S
Cd43 O53 2.240 . S
Cd44 O45 2.240 . S
Cd44 O52 2.223 . S
Cd44 O54 2.297 . S
Cd44 O55 2.439 . S
O45 Cd44 2.240 . S
O45 C50 1.279 . S
O46 Cd43 2.297 . S
O46 C48 1.247 . S
O47 Cd43 2.439 . S
O47 C48 1.208 . S
C48 O46 1.247 . S
C48 O47 1.208 . S
C49 O54 1.247 . S
C49 O55 1.208 . S
C50 O42 1.315 . S
C50 O45 1.279 . S
C51 O52 1.315 . S
C51 O53 1.279 . S
O52 Cd44 2.223 . S
O52 C51 1.315 . S
O53 Cd43 2.240 . S
O53 C51 1.279 . S
O54 Cd44 2.297 . S
O54 C49 1.247 . S
O55 Cd44 2.439 . S
O55 C49 1.208 . S
O56 Cd57 2.223 . S
O56 C64 1.315 . S
Cd57 O56 2.223 . S
Cd57 O60 2.297 . S
Cd57 O61 2.439 . S
Cd57 O67 2.240 . S
Cd58 O59 2.240 . S
Cd58 O66 2.223 . S
Cd58 O68 2.297 . S
Cd58 O69 2.439 . S
O59 Cd58 2.240 . S
O59 C64 1.279 . S
O60 Cd57 2.297 . S
O60 C62 1.247 . S
O61 Cd57 2.439 . S
O61 C62 1.208 . S
C62 O60 1.247 . S
C62 O61 1.208 . S
C63 O68 1.247 . S
C63 O69 1.208 . S
C64 O56 1.315 . S
C64 O59 1.279 . S
C65 O66 1.315 . S
C65 O67 1.279 . S
O66 Cd58 2.223 . S
O66 C65 1.315 . S
O67 Cd57 2.240 . S
O67 C65 1.279 . S
O68 Cd58 2.297 . S
O68 C63 1.247 . S
O69 Cd58 2.439 . S
O69 C63 1.208 . S
O70 Cd71 2.223 . S
O70 C78 1.315 . S
Cd71 O70 2.223 . S
Cd71 O74 2.297 . S
Cd71 O75 2.439 . S
Cd71 O81 2.240 . S
Cd72 O73 2.240 . S
Cd72 O80 2.223 . S
Cd72 O82 2.297 . S
Cd72 O83 2.439 . S
O73 Cd72 2.240 . S
O73 C78 1.279 . S
O74 Cd71 2.297 . S
O74 C76 1.247 . S
O75 Cd71 2.439 . S
O75 C76 1.208 . S
C76 O74 1.247 . S
C76 O75 1.208 . S
C77 O82 1.247 . S
C77 O83 1.208 . S
C78 O70 1.315 . S
C78 O73 1.279 . S
C79 O80 1.315 . S
C79 O81 1.279 . S
O80 Cd72 2.223 . S
O80 C79 1.315 . S
O81 Cd71 2.240 . S
O81 C79 1.279 . S
O82 Cd72 2.297 . S
O82 C77 1.247 . S
O83 Cd72 2.439 . S
O83 C77 1.208 . S
O84 Cd85 2.223 . S
O84 C92 1.315 . S
Cd85 O84 2.223 . S
Cd85 O88 2.297 . S
Cd85 O89 2.439 . S
Cd85 O95 2.240 . S
Cd86 O87 2.240 . S
Cd86 O94 2.223 . S
Cd86 O96 2.297 . S
Cd86 O97 2.439 . S
O87 Cd86 2.240 . S
O87 C92 1.279 . S
O88 Cd85 2.297 . S
O88 C90 1.247 . S
O89 Cd85 2.439 . S
O89 C90 1.208 . S
C90 O88 1.247 . S
C90 O89 1.208 . S
C91 O96 1.247 . S
C91 O97 1.208 . S
C92 O84 1.315 . S
C92 O87 1.279 . S
C93 O94 1.315 . S
C93 O95 1.279 . S
O94 Cd86 2.223 . S
O94 C93 1.315 . S
O95 Cd85 2.240 . S
O95 C93 1.279 . S
O96 Cd86 2.297 . S
O96 C91 1.247 . S
O97 Cd86 2.439 . S
O97 C91 1.208 . S
O98 Cd99 2.223 . S
O98 C106 1.315 . S
Cd99 O98 2.223 . S
Cd99 O102 2.297 . S
Cd99 O103 2.439 . S
Cd99 O109 2.240 . S
Cd100 O101 2.240 . S
Cd100 O108 2.223 . S
Cd100 O110 2.297 . S
Cd100 O111 2.439 . S
O101 Cd100 2.240 . S
O101 C106 1.279 . S
O102 Cd99 2.297 . S
O102 C104 1.247 . S
O103 Cd99 2.439 . S
O103 C104 1.208 . S
C104 O102 1.247 . S
C104 O103 1.208 . S
C105 O110 1.247 . S
C105 O111 1.208 . S
C106 O98 1.315 . S
C106 O101 1.279 . S
C107 O108 1.315 . S
C107 O109 1.279 . S
O108 Cd100 2.223 . S
O108 C107 1.315 . S
O109 Cd99 2.240 . S
O109 C107 1.279 . S
O110 Cd100 2.297 . S
O110 C105 1.247 . S
O111 Cd100 2.439 . S
O111 C105 1.208 . S
O112 Cd113 2.223 . S
O112 C120 1.315 . S
Cd113 O112 2.223 . S
Cd113 O116 2.297 . S
Cd113 O117 2.439 . S
Cd113 O123 2.240 . S
Cd114 O115 2.240 . S
Cd114 O122 2.223 . S
Cd114 O124 2.297 . S
Cd114 O125 2.439 . S
O115 Cd114 2.240 . S
O115 C120 1.279 . S
O116 Cd113 2.297 . S
O116 C118 1.247 . S
O117 Cd113 2.439 . S
O117 C118 1.208 . S
C118 O116 1.247 . S
C118 O117 1.208 . S
C119 O124 1.247 . S
C119 O125 1.208 . S
C120 O112 1.315 . S
C120 O115 1.279 . S
C121 O122 1.315 . S
C121 O123 1.279 . S
O122 Cd114 2.223 . S
O122 C121 1.315 . S
O123 Cd113 2.240 . S
O123 C121 1.279 . S
O124 Cd114 2.297 . S
O124 C119 1.247 . S
O125 Cd114 2.439 . S
O125 C119 1.208 . S
O126 Cd127 2.223 . S
O126 C134 1.315 . S
Cd127 O126 2.223 . S
Cd127 O130 2.297 . S
Cd127 O131 2.439 . S
Cd127 O137 2.240 . S
Cd128 O129 2.240 . S
Cd128 O136 2.223 . S
Cd128 O138 2.297 . S
Cd128 O139 2.439 . S
O129 Cd128 2.240 . S
O129 C134 1.279 . S
O130 Cd127 2.297 . S
O130 C132 1.247 . S
O131 Cd127 2.439 . S
O131 C132 1.208 . S
C132 O130 1.247 . S
C132 O131 1.208 . S
C133 O138 1.247 . S
C133 O139 1.208 . S
C134 O126 1.315 . S
C134 O129 1.279 . S
C135 O136 1.315 . S
C135 O137 1.279 . S
O136 Cd128 2.223 . S
O136 C135 1.315 . S
O137 Cd127 2.240 . S
O137 C135 1.279 . S
O138 Cd128 2.297 . S
O138 C133 1.247 . S
O139 Cd128 2.439 . S
O139 C133 1.208 . S
O140 Cd141 2.223 . S
O140 C148 1.315 . S
Cd141 O140 2.223 . S
Cd141 O144 2.297 . S
Cd141 O145 2.439 . S
Cd141 O151 2.240 . S
Cd142 O143 2.240 . S
Cd142 O150 2.223 . S
Cd142 O152 2.297 . S
Cd142 O153 2.439 . S
O143 Cd142 2.240 . S
O143 C148 1.279 . S
O144 Cd141 2.297 . S
O144 C146 1.247 . S
O145 Cd141 2.439 . S
O145 C146 1.208 . S
C146 O144 1.247 . S
C146 O145 1.208 . S
C147 O152 1.247 . S
C147 O153 1.208 . S
C148 O140 1.315 . S
C148 O143 1.279 . S
C149 O150 1.315 . S
C149 O151 1.279 . S
O150 Cd142 2.223 . S
O150 C149 1.315 . S
O151 Cd141 2.240 . S
O151 C149 1.279 . S
O152 Cd142 2.297 . S
O152 C147 1.247 . S
O153 Cd142 2.439 . S
O153 C147 1.208 . S
O154 Cd155 2.223 . S
O154 C162 1.315 . S
Cd155 O154 2.223 . S
Cd155 O158 2.297 . S
Cd155 O159 2.439 . S
Cd155 O165 2.240 . S
Cd156 O157 2.240 . S
Cd156 O164 2.223 . S
Cd156 O166 2.297 . S
Cd156 O167 2.439 . S
O157 Cd156 2.240 . S
O157 C162 1.279 . S
O158 Cd155 2.297 . S
O158 C160 1.247 . S
O159 Cd155 2.439 . S
O159 C160 1.208 . S
C160 O158 1.247 . S
C160 O159 1.208 . S
C161 O166 1.247 . S
C161 O167 1.208 . S
C162 O154 1.315 . S
C162 O157 1.279 . S
C163 O164 1.315 . S
C163 O165 1.279 . S
O164 Cd156 2.223 . S
O164 C163 1.315 . S
O165 Cd155 2.240 . S
O165 C163 1.279 . S
O166 Cd156 2.297 . S
O166 C161 1.247 . S
O167 Cd156 2.439 . S
O167 C161 1.208 . S
O168 Cd169 2.223 . S
O168 C176 1.315 . S
Cd169 O168 2.223 . S
Cd169 O172 2.297 . S
Cd169 O173 2.439 . S
Cd169 O179 2.240 . S
Cd170 O171 2.240 . S
Cd170 O178 2.223 . S
Cd170 O180 2.297 . S
Cd170 O181 2.439 . S
O171 Cd170 2.240 . S
O171 C176 1.279 . S
O172 Cd169 2.297 . S
O172 C174 1.247 . S
O173 Cd169 2.439 . S
O173 C174 1.208 . S
C174 O172 1.247 . S
C174 O173 1.208 . S
C175 O180 1.247 . S
C175 O181 1.208 . S
C176 O168 1.315 . S
C176 O171 1.279 . S
C177 O178 1.315 . S
C177 O179 1.279 . S
O178 Cd170 2.223 . S
O178 C177 1.315 . S
O179 Cd169 2.240 . S
O179 C177 1.279 . S
O180 Cd170 2.297 . S
O180 C175 1.247 . S
O181 Cd170 2.439 . S
O181 C175 1.208 . S
O182 Cd183 2.223 . S
O182 C190 1.315 . S
Cd183 O182 2.223 . S
Cd183 O186 2.297 . S
Cd183 O187 2.439 . S
Cd183 O193 2.240 . S
Cd184 O185 2.240 . S
Cd184 O192 2.223 . S
Cd184 O194 2.297 . S
Cd184 O195 2.439 . S
O185 Cd184 2.240 . S
O185 C190 1.279 . S
O186 Cd183 2.297 . S
O186 C188 1.247 . S
O187 Cd183 2.439 . S
O187 C188 1.208 . S
C188 O186 1.247 . S
C188 O187 1.208 . S
C189 O194 1.247 . S
C189 O195 1.208 . S
C190 O182 1.315 . S
C190 O185 1.279 . S
C191 O192 1.315 . S
C191 O193 1.279 . S
O192 Cd184 2.223 . S
O192 C191 1.315 . S
O193 Cd183 2.240 . S
O193 C191 1.279 . S
O194 Cd184 2.297 . S
O194 C189 1.247 . S
O195 Cd184 2.439 . S
O195 C189 1.208 . S
O196 Cd197 2.223 . S
O196 C204 1.315 . S
Cd197 O196 2.223 . S
Cd197 O200 2.297 . S
Cd197 O201 2.439 . S
Cd197 O207 2.240 . S
Cd198 O199 2.240 . S
Cd198 O206 2.223 . S
Cd198 O208 2.297 . S
Cd198 O209 2.439 . S
O199 Cd198 2.240 . S
O199 C204 1.279 . S
O200 Cd197 2.297 . S
O200 C202 1.247 . S
O201 Cd197 2.439 . S
O201 C202 1.208 . S
C202 O200 1.247 . S
C202 O201 1.208 . S
C203 O208 1.247 . S
C203 O209 1.208 . S
C204 O196 1.315 . S
C204 O199 1.279 . S
C205 O206 1.315 . S
C205 O207 1.279 . S
O206 Cd198 2.223 . S
O206 C205 1.315 . S
O207 Cd197 2.240 . S
O207 C205 1.279 . S
O208 Cd198 2.297 . S
O208 C203 1.247 . S
O209 Cd198 2.439 . S
O209 C203 1.208 . S
O210 Cd211 2.223 . S
O210 C218 1.315 . S
Cd211 O210 2.223 . S
Cd211 O214 2.297 . S
Cd211 O215 2.439 . S
Cd211 O221 2.240 . S
Cd212 O213 2.240 . S
Cd212 O220 2.223 . S
Cd212 O222 2.297 . S
Cd212 O223 2.439 . S
O213 Cd212 2.240 . S
O213 C218 1.279 . S
O214 Cd211 2.297 . S
O214 C216 1.247 . S
O215 Cd211 2.439 . S
O215 C216 1.208 . S
C216 O214 1.247 . S
C216 O215 1.208 . S
C217 O222 1.247 . S
C217 O223 1.208 . S
C218 O210 1.315 . S
C218 O213 1.279 . S
C219 O220 1.315 . S
C219 O221 1.279 . S
O220 Cd212 2.223 . S
O220 C219 1.315 . S
O221 Cd211 2.240 . S
O221 C219 1.279 . S
O222 Cd212 2.297 . S
O222 C217 1.247 . S
O223 Cd212 2.439 . S
O223 C217 1.208 . S
H224 C232 0.950 . S
H225 C237 0.950 . S
H226 C234 0.950 . S
H227 C236 0.950 . S
H228 C238 0.950 . S
H229 C240 0.950 . S
H230 C242 0.950 . S
H231 C243 0.950 . S
C232 H224 0.950 . S
C232 C233 1.386 . S
C232 C234 1.391 . S
C233 C232 1.386 . S
C233 C237 1.393 . S
C234 H226 0.950 . S
C234 C232 1.391 . S
C234 C235 1.400 . S
C235 C234 1.400 . S
C235 C236 1.398 . S
C235 C241 1.491 1_455 S
C236 H227 0.950 . S
C236 C235 1.398 . S
C236 C237 1.391 . S
C237 H225 0.950 . S
C237 C233 1.393 . S
C237 C236 1.391 . S
C238 H228 0.950 . S
C238 C239 1.386 . S
C238 C240 1.391 . S
C239 C238 1.386 . S
C239 C243 1.393 . S
C240 H229 0.950 . S
C240 C238 1.391 . S
C240 C241 1.400 . S
C241 C235 1.491 1_655 S
C241 C240 1.400 . S
C241 C242 1.398 . S
C242 H230 0.950 . S
C242 C241 1.398 . S
C242 C243 1.391 . S
C243 H231 0.950 . S
C243 C239 1.393 . S
C243 C242 1.391 . S
H244 C252 0.950 . S
H245 C257 0.950 . S
H246 C254 0.950 . S
H247 C256 0.950 . S
H248 C258 0.950 . S
H249 C260 0.950 . S
H250 C262 0.950 . S
H251 C263 0.950 . S
C252 H244 0.950 . S
C252 C253 1.386 . S
C252 C254 1.391 . S
C253 C252 1.386 . S
C253 C257 1.393 . S
C254 H246 0.950 . S
C254 C252 1.391 . S
C254 C255 1.400 . S
C255 C254 1.400 . S
C255 C256 1.398 . S
C255 C261 1.491 1_655 S
C256 H247 0.950 . S
C256 C255 1.398 . S
C256 C257 1.391 . S
C257 H245 0.950 . S
C257 C253 1.393 . S
C257 C256 1.391 . S
C258 H248 0.950 . S
C258 C259 1.386 . S
C258 C260 1.391 . S
C259 C258 1.386 . S
C259 C263 1.393 . S
C260 H249 0.950 . S
C260 C258 1.391 . S
C260 C261 1.400 . S
C261 C255 1.491 1_455 S
C261 C260 1.400 . S
C261 C262 1.398 . S
C262 H250 0.950 . S
C262 C261 1.398 . S
C262 C263 1.391 . S
C263 H251 0.950 . S
C263 C259 1.393 . S
C263 C262 1.391 . S
H264 C272 0.950 . S
H265 C277 0.950 . S
H266 C274 0.950 . S
H267 C276 0.950 . S
H268 C278 0.950 . S
H269 C280 0.950 . S
H270 C282 0.950 . S
H271 C283 0.950 . S
C272 H264 0.950 . S
C272 C273 1.386 . S
C272 C274 1.391 . S
C273 C272 1.386 . S
C273 C277 1.393 . S
C274 H266 0.950 . S
C274 C272 1.391 . S
C274 C275 1.400 . S
C275 C274 1.400 . S
C275 C276 1.398 . S
C275 C281 1.491 1_655 S
C276 H267 0.950 . S
C276 C275 1.398 . S
C276 C277 1.391 . S
C277 H265 0.950 . S
C277 C273 1.393 . S
C277 C276 1.391 . S
C278 H268 0.950 . S
C278 C279 1.386 . S
C278 C280 1.391 . S
C279 C278 1.386 . S
C279 C283 1.393 . S
C280 H269 0.950 . S
C280 C278 1.391 . S
C280 C281 1.400 . S
C281 C275 1.491 1_455 S
C281 C280 1.400 . S
C281 C282 1.398 . S
C282 H270 0.950 . S
C282 C281 1.398 . S
C282 C283 1.391 . S
C283 H271 0.950 . S
C283 C279 1.393 . S
C283 C282 1.391 . S
H284 C292 0.950 . S
H285 C297 0.950 . S
H286 C294 0.950 . S
H287 C296 0.950 . S
H288 C298 0.950 . S
H289 C300 0.950 . S
H290 C302 0.950 . S
H291 C303 0.950 . S
C292 H284 0.950 . S
C292 C293 1.386 . S
C292 C294 1.391 . S
C293 C292 1.386 . S
C293 C297 1.393 . S
C294 H286 0.950 . S
C294 C292 1.391 . S
C294 C295 1.400 . S
C295 C294 1.400 . S
C295 C296 1.398 . S
C295 C301 1.491 1_455 S
C296 H287 0.950 . S
C296 C295 1.398 . S
C296 C297 1.391 . S
C297 H285 0.950 . S
C297 C293 1.393 . S
C297 C296 1.391 . S
C298 H288 0.950 . S
C298 C299 1.386 . S
C298 C300 1.391 . S
C299 C298 1.386 . S
C299 C303 1.393 . S
C300 H289 0.950 . S
C300 C298 1.391 . S
C300 C301 1.400 . S
C301 C295 1.491 1_655 S
C301 C300 1.400 . S
C301 C302 1.398 . S
C302 H290 0.950 . S
C302 C301 1.398 . S
C302 C303 1.391 . S
C303 H291 0.950 . S
C303 C299 1.393 . S
C303 C302 1.391 . S
H304 C312 0.950 . S
H305 C317 0.950 . S
H306 C314 0.950 . S
H307 C316 0.950 . S
H308 C318 0.950 . S
H309 C320 0.950 . S
H310 C322 0.950 . S
H311 C323 0.950 . S
C312 H304 0.950 . S
C312 C313 1.386 . S
C312 C314 1.391 . S
C313 C312 1.386 . S
C313 C317 1.393 . S
C314 H306 0.950 . S
C314 C312 1.391 . S
C314 C315 1.400 . S
C315 C314 1.400 . S
C315 C316 1.398 . S
C315 C321 1.491 . S
C316 H307 0.950 . S
C316 C315 1.398 . S
C316 C317 1.391 . S
C317 H305 0.950 . S
C317 C313 1.393 . S
C317 C316 1.391 . S
C318 H308 0.950 . S
C318 C319 1.386 . S
C318 C320 1.391 . S
C319 C318 1.386 . S
C319 C323 1.393 . S
C320 H309 0.950 . S
C320 C318 1.391 . S
C320 C321 1.400 . S
C321 C315 1.491 . S
C321 C320 1.400 . S
C321 C322 1.398 . S
C322 H310 0.950 . S
C322 C321 1.398 . S
C322 C323 1.391 . S
C323 H311 0.950 . S
C323 C319 1.393 . S
C323 C322 1.391 . S
H324 C332 0.950 . S
H325 C337 0.950 . S
H326 C334 0.950 . S
H327 C336 0.950 . S
H328 C338 0.950 . S
H329 C340 0.950 . S
H330 C342 0.950 . S
H331 C343 0.950 . S
C332 H324 0.950 . S
C332 C333 1.386 . S
C332 C334 1.391 . S
C333 C332 1.386 . S
C333 C337 1.393 . S
C334 H326 0.950 . S
C334 C332 1.391 . S
C334 C335 1.400 . S
C335 C334 1.400 . S
C335 C336 1.398 . S
C335 C341 1.491 . S
C336 H327 0.950 . S
C336 C335 1.398 . S
C336 C337 1.391 . S
C337 H325 0.950 . S
C337 C333 1.393 . S
C337 C336 1.391 . S
C338 H328 0.950 . S
C338 C339 1.386 . S
C338 C340 1.391 . S
C339 C338 1.386 . S
C339 C343 1.393 . S
C340 H329 0.950 . S
C340 C338 1.391 . S
C340 C341 1.400 . S
C341 C335 1.491 . S
C341 C340 1.400 . S
C341 C342 1.398 . S
C342 H330 0.950 . S
C342 C341 1.398 . S
C342 C343 1.391 . S
C343 H331 0.950 . S
C343 C339 1.393 . S
C343 C342 1.391 . S
H344 C352 0.950 . S
H345 C357 0.950 . S
H346 C354 0.950 . S
H347 C356 0.950 . S
H348 C358 0.950 . S
H349 C360 0.950 . S
H350 C362 0.950 . S
H351 C363 0.950 . S
C352 H344 0.950 . S
C352 C353 1.386 . S
C352 C354 1.391 . S
C353 C352 1.386 . S
C353 C357 1.393 . S
C354 H346 0.950 . S
C354 C352 1.391 . S
C354 C355 1.400 . S
C355 C354 1.400 . S
C355 C356 1.398 . S
C355 C361 1.491 . S
C356 H347 0.950 . S
C356 C355 1.398 . S
C356 C357 1.391 . S
C357 H345 0.950 . S
C357 C353 1.393 . S
C357 C356 1.391 . S
C358 H348 0.950 . S
C358 C359 1.386 . S
C358 C360 1.391 . S
C359 C358 1.386 . S
C359 C363 1.393 . S
C360 H349 0.950 . S
C360 C358 1.391 . S
C360 C361 1.400 . S
C361 C355 1.491 . S
C361 C360 1.400 . S
C361 C362 1.398 . S
C362 H350 0.950 . S
C362 C361 1.398 . S
C362 C363 1.391 . S
C363 H351 0.950 . S
C363 C359 1.393 . S
C363 C362 1.391 . S
H364 C372 0.950 . S
H365 C377 0.950 . S
H366 C374 0.950 . S
H367 C376 0.950 . S
H368 C378 0.950 . S
H369 C380 0.950 . S
H370 C382 0.950 . S
H371 C383 0.950 . S
C372 H364 0.950 . S
C372 C373 1.386 . S
C372 C374 1.391 . S
C373 C372 1.386 . S
C373 C377 1.393 . S
C374 H366 0.950 . S
C374 C372 1.391 . S
C374 C375 1.400 . S
C375 C374 1.400 . S
C375 C376 1.398 . S
C375 C381 1.491 . S
C376 H367 0.950 . S
C376 C375 1.398 . S
C376 C377 1.391 . S
C377 H365 0.950 . S
C377 C373 1.393 . S
C377 C376 1.391 . S
C378 H368 0.950 . S
C378 C379 1.386 . S
C378 C380 1.391 . S
C379 C378 1.386 . S
C379 C383 1.393 . S
C380 H369 0.950 . S
C380 C378 1.391 . S
C380 C381 1.400 . S
C381 C375 1.491 . S
C381 C380 1.400 . S
C381 C382 1.398 . S
C382 H370 0.950 . S
C382 C381 1.398 . S
C382 C383 1.391 . S
C383 H371 0.950 . S
C383 C379 1.393 . S
C383 C382 1.391 . S
H384 C392 0.950 . S
H385 C397 0.950 . S
H386 C394 0.950 . S
H387 C396 0.950 . S
H388 C398 0.950 . S
H389 C400 0.950 . S
H390 C402 0.950 . S
H391 C403 0.950 . S
C392 H384 0.950 . S
C392 C393 1.386 . S
C392 C394 1.391 . S
C393 C392 1.386 . S
C393 C397 1.393 . S
C394 H386 0.950 . S
C394 C392 1.391 . S
C394 C395 1.400 . S
C395 C394 1.400 . S
C395 C396 1.398 . S
C395 C401 1.491 . S
C396 H387 0.950 . S
C396 C395 1.398 . S
C396 C397 1.391 . S
C397 H385 0.950 . S
C397 C393 1.393 . S
C397 C396 1.391 . S
C398 H388 0.950 . S
C398 C399 1.386 . S
C398 C400 1.391 . S
C399 C398 1.386 . S
C399 C403 1.393 . S
C400 H389 0.950 . S
C400 C398 1.391 . S
C400 C401 1.400 . S
C401 C395 1.491 . S
C401 C400 1.400 . S
C401 C402 1.398 . S
C402 H390 0.950 . S
C402 C401 1.398 . S
C402 C403 1.391 . S
C403 H391 0.950 . S
C403 C399 1.393 . S
C403 C402 1.391 . S
H404 C412 0.950 . S
H405 C417 0.950 . S
H406 C414 0.950 . S
H407 C416 0.950 . S
H408 C418 0.950 . S
H409 C420 0.950 . S
H410 C422 0.950 . S
H411 C423 0.950 . S
C412 H404 0.950 . S
C412 C413 1.386 . S
C412 C414 1.391 . S
C413 C412 1.386 . S
C413 C417 1.393 . S
C414 H406 0.950 . S
C414 C412 1.391 . S
C414 C415 1.400 . S
C415 C414 1.400 . S
C415 C416 1.398 . S
C415 C421 1.491 . S
C416 H407 0.950 . S
C416 C415 1.398 . S
C416 C417 1.391 . S
C417 H405 0.950 . S
C417 C413 1.393 . S
C417 C416 1.391 . S
C418 H408 0.950 . S
C418 C419 1.386 . S
C418 C420 1.391 . S
C419 C418 1.386 . S
C419 C423 1.393 . S
C420 H409 0.950 . S
C420 C418 1.391 . S
C420 C421 1.400 . S
C421 C415 1.491 . S
C421 C420 1.400 . S
C421 C422 1.398 . S
C422 H410 0.950 . S
C422 C421 1.398 . S
C422 C423 1.391 . S
C423 H411 0.950 . S
C423 C419 1.393 . S
C423 C422 1.391 . S
H424 C432 0.950 . S
H425 C437 0.950 . S
H426 C434 0.950 . S
H427 C436 0.950 . S
H428 C438 0.950 . S
H429 C440 0.950 . S
H430 C442 0.950 . S
H431 C443 0.950 . S
C432 H424 0.950 . S
C432 C433 1.386 . S
C432 C434 1.391 . S
C433 C432 1.386 . S
C433 C437 1.393 . S
C434 H426 0.950 . S
C434 C432 1.391 . S
C434 C435 1.400 . S
C435 C434 1.400 . S
C435 C436 1.398 . S
C435 C441 1.491 . S
C436 H427 0.950 . S
C436 C435 1.398 . S
C436 C437 1.391 . S
C437 H425 0.950 . S
C437 C433 1.393 . S
C437 C436 1.391 . S
C438 H428 0.950 . S
C438 C439 1.386 . S
C438 C440 1.391 . S
C439 C438 1.386 . S
C439 C443 1.393 . S
C440 H429 0.950 . S
C440 C438 1.391 . S
C440 C441 1.400 . S
C441 C435 1.491 . S
C441 C440 1.400 . S
C441 C442 1.398 . S
C442 H430 0.950 . S
C442 C441 1.398 . S
C442 C443 1.391 . S
C443 H431 0.950 . S
C443 C439 1.393 . S
C443 C442 1.391 . S
H444 C452 0.950 . S
H445 C457 0.950 . S
H446 C454 0.950 . S
H447 C456 0.950 . S
H448 C458 0.950 . S
H449 C460 0.950 . S
H450 C462 0.950 . S
H451 C463 0.950 . S
C452 H444 0.950 . S
C452 C453 1.386 . S
C452 C454 1.391 . S
C453 C452 1.386 . S
C453 C457 1.393 . S
C454 H446 0.950 . S
C454 C452 1.391 . S
C454 C455 1.400 . S
C455 C454 1.400 . S
C455 C456 1.398 . S
C455 C461 1.491 . S
C456 H447 0.950 . S
C456 C455 1.398 . S
C456 C457 1.391 . S
C457 H445 0.950 . S
C457 C453 1.393 . S
C457 C456 1.391 . S
C458 H448 0.950 . S
C458 C459 1.386 . S
C458 C460 1.391 . S
C459 C458 1.386 . S
C459 C463 1.393 . S
C460 H449 0.950 . S
C460 C458 1.391 . S
C460 C461 1.400 . S
C461 C455 1.491 . S
C461 C460 1.400 . S
C461 C462 1.398 . S
C462 H450 0.950 . S
C462 C461 1.398 . S
C462 C463 1.391 . S
C463 H451 0.950 . S
C463 C459 1.393 . S
C463 C462 1.391 . S
H464 C472 0.950 . S
H465 C477 0.950 . S
H466 C474 0.950 . S
H467 C476 0.950 . S
H468 C478 0.950 . S
H469 C480 0.950 . S
H470 C482 0.950 . S
H471 C483 0.950 . S
C472 H464 0.950 . S
C472 C473 1.386 . S
C472 C474 1.391 . S
C473 C472 1.386 . S
C473 C477 1.393 . S
C474 H466 0.950 . S
C474 C472 1.391 . S
C474 C475 1.400 . S
C475 C474 1.400 . S
C475 C476 1.398 . S
C475 C481 1.491 . S
C476 H467 0.950 . S
C476 C475 1.398 . S
C476 C477 1.391 . S
C477 H465 0.950 . S
C477 C473 1.393 . S
C477 C476 1.391 . S
C478 H468 0.950 . S
C478 C479 1.386 . S
C478 C480 1.391 . S
C479 C478 1.386 . S
C479 C483 1.393 . S
C480 H469 0.950 . S
C480 C478 1.391 . S
C480 C481 1.400 . S
C481 C475 1.491 . S
C481 C480 1.400 . S
C481 C482 1.398 . S
C482 H470 0.950 . S
C482 C481 1.398 . S
C482 C483 1.391 . S
C483 H471 0.950 . S
C483 C479 1.393 . S
C483 C482 1.391 . S
H484 C492 0.950 . S
H485 C497 0.950 . S
H486 C494 0.950 . S
H487 C496 0.950 . S
H488 C498 0.950 . S
H489 C500 0.950 . S
H490 C502 0.950 . S
H491 C503 0.950 . S
C492 H484 0.950 . S
C492 C493 1.386 . S
C492 C494 1.391 . S
C493 C492 1.386 . S
C493 C497 1.393 . S
C494 H486 0.950 . S
C494 C492 1.391 . S
C494 C495 1.400 . S
C495 C494 1.400 . S
C495 C496 1.398 . S
C495 C501 1.491 . S
C496 H487 0.950 . S
C496 C495 1.398 . S
C496 C497 1.391 . S
C497 H485 0.950 . S
C497 C493 1.393 . S
C497 C496 1.391 . S
C498 H488 0.950 . S
C498 C499 1.386 . S
C498 C500 1.391 . S
C499 C498 1.386 . S
C499 C503 1.393 . S
C500 H489 0.950 . S
C500 C498 1.391 . S
C500 C501 1.400 . S
C501 C495 1.491 . S
C501 C500 1.400 . S
C501 C502 1.398 . S
C502 H490 0.950 . S
C502 C501 1.398 . S
C502 C503 1.391 . S
C503 H491 0.950 . S
C503 C499 1.393 . S
C503 C502 1.391 . S
H504 C512 0.950 . S
H505 C517 0.950 . S
H506 C514 0.950 . S
H507 C516 0.950 . S
H508 C518 0.950 . S
H509 C520 0.950 . S
H510 C522 0.950 . S
H511 C523 0.950 . S
C512 H504 0.950 . S
C512 C513 1.386 . S
C512 C514 1.391 . S
C513 C512 1.386 . S
C513 C517 1.393 . S
C514 H506 0.950 . S
C514 C512 1.391 . S
C514 C515 1.400 . S
C515 C514 1.400 . S
C515 C516 1.398 . S
C515 C521 1.491 . S
C516 H507 0.950 . S
C516 C515 1.398 . S
C516 C517 1.391 . S
C517 H505 0.950 . S
C517 C513 1.393 . S
C517 C516 1.391 . S
C518 H508 0.950 . S
C518 C519 1.386 . S
C518 C520 1.391 . S
C519 C518 1.386 . S
C519 C523 1.393 . S
C520 H509 0.950 . S
C520 C518 1.391 . S
C520 C521 1.400 . S
C521 C515 1.491 . S
C521 C520 1.400 . S
C521 C522 1.398 . S
C522 H510 0.950 . S
C522 C521 1.398 . S
C522 C523 1.391 . S
C523 H511 0.950 . S
C523 C519 1.393 . S
C523 C522 1.391 . S
H524 C532 0.950 . S
H525 C537 0.950 . S
H526 C534 0.950 . S
H527 C536 0.950 . S
H528 C538 0.950 . S
H529 C540 0.950 . S
H530 C542 0.950 . S
H531 C543 0.950 . S
C532 H524 0.950 . S
C532 C533 1.386 . S
C532 C534 1.391 . S
C533 C532 1.386 . S
C533 C537 1.393 . S
C534 H526 0.950 . S
C534 C532 1.391 . S
C534 C535 1.400 . S
C535 C534 1.400 . S
C535 C536 1.398 . S
C535 C541 1.491 . S
C536 H527 0.950 . S
C536 C535 1.398 . S
C536 C537 1.391 . S
C537 H525 0.950 . S
C537 C533 1.393 . S
C537 C536 1.391 . S
C538 H528 0.950 . S
C538 C539 1.386 . S
C538 C540 1.391 . S
C539 C538 1.386 . S
C539 C543 1.393 . S
C540 H529 0.950 . S
C540 C538 1.391 . S
C540 C541 1.400 . S
C541 C535 1.491 . S
C541 C540 1.400 . S
C541 C542 1.398 . S
C542 H530 0.950 . S
C542 C541 1.398 . S
C542 C543 1.391 . S
C543 H531 0.950 . S
C543 C539 1.393 . S
C543 C542 1.391 . S
H544 C552 0.950 . S
H545 C557 0.950 . S
H546 C554 0.950 . S
H547 C556 0.950 . S
H548 C558 0.950 . S
H549 C560 0.950 . S
H550 C562 0.950 . S
H551 C563 0.950 . S
C552 H544 0.950 . S
C552 C553 1.386 . S
C552 C554 1.391 . S
C553 C552 1.386 . S
C553 C557 1.393 . S
C554 H546 0.950 . S
C554 C552 1.391 . S
C554 C555 1.400 . S
C555 C554 1.400 . S
C555 C556 1.398 . S
C555 C561 1.491 1_556 S
C556 H547 0.950 . S
C556 C555 1.398 . S
C556 C557 1.391 . S
C557 H545 0.950 . S
C557 C553 1.393 . S
C557 C556 1.391 . S
C558 H548 0.950 . S
C558 C559 1.386 . S
C558 C560 1.391 . S
C559 C558 1.386 . S
C559 C563 1.393 . S
C560 H549 0.950 . S
C560 C558 1.391 . S
C560 C561 1.400 . S
C561 C555 1.491 1_554 S
C561 C560 1.400 . S
C561 C562 1.398 . S
C562 H550 0.950 . S
C562 C561 1.398 . S
C562 C563 1.391 . S
C563 H551 0.950 . S
C563 C559 1.393 . S
C563 C562 1.391 . S
H564 C572 0.950 . S
H565 C577 0.950 . S
H566 C574 0.950 . S
H567 C576 0.950 . S
H568 C578 0.950 . S
H569 C580 0.950 . S
H570 C582 0.950 . S
H571 C583 0.950 . S
C572 H564 0.950 . S
C572 C573 1.386 . S
C572 C574 1.391 . S
C573 C572 1.386 . S
C573 C577 1.393 . S
C574 H566 0.950 . S
C574 C572 1.391 . S
C574 C575 1.400 . S
C575 C574 1.400 . S
C575 C576 1.398 . S
C575 C581 1.491 . S
C576 H567 0.950 . S
C576 C575 1.398 . S
C576 C577 1.391 . S
C577 H565 0.950 . S
C577 C573 1.393 . S
C577 C576 1.391 . S
C578 H568 0.950 . S
C578 C579 1.386 . S
C578 C580 1.391 . S
C579 C578 1.386 . S
C579 C583 1.393 . S
C580 H569 0.950 . S
C580 C578 1.391 . S
C580 C581 1.400 . S
C581 C575 1.491 . S
C581 C580 1.400 . S
C581 C582 1.398 . S
C582 H570 0.950 . S
C582 C581 1.398 . S
C582 C583 1.391 . S
C583 H571 0.950 . S
C583 C579 1.393 . S
C583 C582 1.391 . S
H584 C592 0.950 . S
H585 C597 0.950 . S
H586 C594 0.950 . S
H587 C596 0.950 . S
H588 C598 0.950 . S
H589 C600 0.950 . S
H590 C602 0.950 1_554 S
H591 C603 0.950 . S
C592 H584 0.950 . S
C592 C593 1.386 . S
C592 C594 1.391 . S
C593 C592 1.386 . S
C593 C597 1.393 . S
C594 H586 0.950 . S
C594 C592 1.391 . S
C594 C595 1.400 . S
C595 C594 1.400 . S
C595 C596 1.398 1_554 S
C595 C601 1.491 1_554 S
C596 H587 0.950 . S
C596 C595 1.398 1_556 S
C596 C597 1.391 1_556 S
C597 H585 0.950 . S
C597 C593 1.393 . S
C597 C596 1.391 1_554 S
C598 H588 0.950 . S
C598 C599 1.386 . S
C598 C600 1.391 . S
C599 C598 1.386 . S
C599 C603 1.393 . S
C600 H589 0.950 . S
C600 C598 1.391 . S
C600 C601 1.400 . S
C601 C595 1.491 1_556 S
C601 C600 1.400 . S
C601 C602 1.398 . S
C602 H590 0.950 1_556 S
C602 C601 1.398 . S
C602 C603 1.391 . S
C603 H591 0.950 . S
C603 C599 1.393 . S
C603 C602 1.391 . S
H604 C612 0.950 . S
H605 C617 0.950 . S
H606 C614 0.950 . S
H607 C616 0.950 . S
H608 C618 0.950 . S
H609 C620 0.950 . S
H610 C622 0.950 . S
H611 C623 0.950 . S
C612 H604 0.950 . S
C612 C613 1.386 . S
C612 C614 1.391 . S
C613 C612 1.386 . S
C613 C617 1.393 . S
C614 H606 0.950 . S
C614 C612 1.391 . S
C614 C615 1.400 . S
C615 C614 1.400 . S
C615 C616 1.398 . S
C615 C621 1.491 . S
C616 H607 0.950 . S
C616 C615 1.398 . S
C616 C617 1.391 . S
C617 H605 0.950 . S
C617 C613 1.393 . S
C617 C616 1.391 . S
C618 H608 0.950 . S
C618 C619 1.386 . S
C618 C620 1.391 . S
C619 C618 1.386 . S
C619 C623 1.393 . S
C620 H609 0.950 . S
C620 C618 1.391 . S
C620 C621 1.400 . S
C621 C615 1.491 . S
C621 C620 1.400 . S
C621 C622 1.398 . S
C622 H610 0.950 . S
C622 C621 1.398 . S
C622 C623 1.391 . S
C623 H611 0.950 . S
C623 C619 1.393 . S
C623 C622 1.391 . S
H624 C632 0.950 . S
H625 C637 0.950 . S
H626 C634 0.950 1_556 S
H627 C636 0.950 . S
H628 C638 0.950 . S
H629 C640 0.950 1_554 S
H630 C642 0.950 . S
H631 C643 0.950 . S
C632 H624 0.950 . S
C632 C633 1.386 . S
C632 C634 1.391 . S
C633 C632 1.386 . S
C633 C637 1.393 . S
C634 H626 0.950 1_554 S
C634 C632 1.391 . S
C634 C635 1.400 . S
C635 C634 1.400 . S
C635 C636 1.398 . S
C635 C641 1.491 1_554 S
C636 H627 0.950 . S
C636 C635 1.398 . S
C636 C637 1.391 . S
C637 H625 0.950 . S
C637 C633 1.393 . S
C637 C636 1.391 . S
C638 H628 0.950 . S
C638 C639 1.386 . S
C638 C640 1.391 . S
C639 C638 1.386 . S
C639 C643 1.393 . S
C640 H629 0.950 1_556 S
C640 C638 1.391 . S
C640 C641 1.400 . S
C641 C635 1.491 1_556 S
C641 C640 1.400 . S
C641 C642 1.398 . S
C642 H630 0.950 . S
C642 C641 1.398 . S
C642 C643 1.391 . S
C643 H631 0.950 . S
C643 C639 1.393 . S
C643 C642 1.391 . S
H644 C652 0.950 . S
H645 C657 0.950 . S
H646 C654 0.950 . S
H647 C656 0.950 . S
H648 C658 0.950 . S
H649 C660 0.950 . S
H650 C662 0.950 . S
H651 C663 0.950 . S
C652 H644 0.950 . S
C652 C653 1.386 . S
C652 C654 1.391 . S
C653 C652 1.386 . S
C653 C657 1.393 . S
C654 H646 0.950 . S
C654 C652 1.391 . S
C654 C655 1.400 . S
C655 C654 1.400 . S
C655 C656 1.398 . S
C655 C661 1.491 . S
C656 H647 0.950 . S
C656 C655 1.398 . S
C656 C657 1.391 . S
C657 H645 0.950 . S
C657 C653 1.393 . S
C657 C656 1.391 . S
C658 H648 0.950 . S
C658 C659 1.386 . S
C658 C660 1.391 . S
C659 C658 1.386 . S
C659 C663 1.393 . S
C660 H649 0.950 . S
C660 C658 1.391 . S
C660 C661 1.400 . S
C661 C655 1.491 . S
C661 C660 1.400 . S
C661 C662 1.398 . S
C662 H650 0.950 . S
C662 C661 1.398 . S
C662 C663 1.391 . S
C663 H651 0.950 . S
C663 C659 1.393 . S
C663 C662 1.391 . S
H664 C672 0.950 . S
H665 C677 0.950 . S
H666 C674 0.950 . S
H667 C676 0.950 . S
H668 C678 0.950 . S
H669 C680 0.950 . S
H670 C682 0.950 . S
H671 C683 0.950 . S
C672 H664 0.950 . S
C672 C673 1.386 . S
C672 C674 1.391 . S
C673 C672 1.386 . S
C673 C677 1.393 . S
C674 H666 0.950 . S
C674 C672 1.391 . S
C674 C675 1.400 . S
C675 C674 1.400 . S
C675 C676 1.398 . S
C675 C681 1.491 1_554 S
C676 H667 0.950 . S
C676 C675 1.398 . S
C676 C677 1.391 . S
C677 H665 0.950 . S
C677 C673 1.393 . S
C677 C676 1.391 . S
C678 H668 0.950 . S
C678 C679 1.386 . S
C678 C680 1.391 . S
C679 C678 1.386 . S
C679 C683 1.393 . S
C680 H669 0.950 . S
C680 C678 1.391 . S
C680 C681 1.400 . S
C681 C675 1.491 1_556 S
C681 C680 1.400 . S
C681 C682 1.398 . S
C682 H670 0.950 . S
C682 C681 1.398 . S
C682 C683 1.391 . S
C683 H671 0.950 . S
C683 C679 1.393 . S
C683 C682 1.391 . S
H684 C692 0.950 . S
H685 C697 0.950 . S
H686 C694 0.950 . S
H687 C696 0.950 . S
H688 C698 0.950 . S
H689 C700 0.950 . S
H690 C702 0.950 . S
H691 C703 0.950 . S
C692 H684 0.950 . S
C692 C693 1.386 . S
C692 C694 1.391 . S
C693 C692 1.386 . S
C693 C697 1.393 . S
C694 H686 0.950 . S
C694 C692 1.391 . S
C694 C695 1.400 . S
C695 C694 1.400 . S
C695 C696 1.398 . S
C695 C701 1.491 . S
C696 H687 0.950 . S
C696 C695 1.398 . S
C696 C697 1.391 . S
C697 H685 0.950 . S
C697 C693 1.393 . S
C697 C696 1.391 . S
C698 H688 0.950 . S
C698 C699 1.386 . S
C698 C700 1.391 . S
C699 C698 1.386 . S
C699 C703 1.393 . S
C700 H689 0.950 . S
C700 C698 1.391 . S
C700 C701 1.400 . S
C701 C695 1.491 . S
C701 C700 1.400 . S
C701 C702 1.398 . S
C702 H690 0.950 . S
C702 C701 1.398 . S
C702 C703 1.391 . S
C703 H691 0.950 . S
C703 C699 1.393 . S
C703 C702 1.391 . S
H704 C712 0.958 . S
H705 C717 0.950 . S
H706 C714 0.950 . S
H707 C716 0.950 . S
H708 C718 0.958 . S
H709 C720 0.950 . S
H710 C722 0.950 . S
H711 C723 0.950 . S
C712 H704 0.958 . S
C712 C713 1.372 1_554 S
C712 C714 1.397 . S
C713 C712 1.372 1_556 S
C713 C717 1.393 . S
C714 H706 0.950 . S
C714 C712 1.397 . S
C714 C715 1.400 1_554 S
C715 C714 1.400 1_556 S
C715 C716 1.398 . S
C715 C721 1.491 1_556 S
C716 H707 0.950 . S
C716 C715 1.398 . S
C716 C717 1.391 . S
C717 H705 0.950 . S
C717 C713 1.393 . S
C717 C716 1.391 . S
C718 H708 0.958 . S
C718 C719 1.372 1_556 S
C718 C720 1.397 . S
C719 C718 1.372 1_554 S
C719 C723 1.393 . S
C720 H709 0.950 . S
C720 C718 1.397 . S
C720 C721 1.400 1_556 S
C721 C715 1.491 1_554 S
C721 C720 1.400 1_554 S
C721 C722 1.398 . S
C722 H710 0.950 . S
C722 C721 1.398 . S
C722 C723 1.391 . S
C723 H711 0.950 . S
C723 C719 1.393 . S
C723 C722 1.391 . S
H724 C732 0.950 . S
H725 C737 0.950 . S
H726 C734 0.950 . S
H727 C736 0.950 . S
H728 C738 0.950 . S
H729 C740 0.950 . S
H730 C742 0.950 . S
H731 C743 0.950 . S
C732 H724 0.950 . S
C732 C733 1.386 . S
C732 C734 1.391 . S
C733 C732 1.386 . S
C733 C737 1.393 . S
C734 H726 0.950 . S
C734 C732 1.391 . S
C734 C735 1.400 . S
C735 C734 1.400 . S
C735 C736 1.398 . S
C735 C741 1.491 . S
C736 H727 0.950 . S
C736 C735 1.398 . S
C736 C737 1.391 . S
C737 H725 0.950 . S
C737 C733 1.393 . S
C737 C736 1.391 . S
C738 H728 0.950 . S
C738 C739 1.386 . S
C738 C740 1.391 . S
C739 C738 1.386 . S
C739 C743 1.393 . S
C740 H729 0.950 . S
C740 C738 1.391 . S
C740 C741 1.400 . S
C741 C735 1.491 . S
C741 C740 1.400 . S
C741 C742 1.398 . S
C742 H730 0.950 . S
C742 C741 1.398 . S
C742 C743 1.391 . S
C743 H731 0.950 . S
C743 C739 1.393 . S
C743 C742 1.391 . S
H744 C752 0.950 . S
H745 C757 0.950 . S
H746 C754 0.950 . S
H747 C756 0.950 . S
H748 C758 0.950 . S
H749 C760 0.950 . S
H750 C762 0.950 . S
H751 C763 0.950 . S
C752 H744 0.950 . S
C752 C753 1.386 . S
C752 C754 1.391 . S
C753 C752 1.386 . S
C753 C757 1.393 . S
C754 H746 0.950 . S
C754 C752 1.391 . S
C754 C755 1.400 . S
C755 C754 1.400 . S
C755 C756 1.398 . S
C755 C761 1.491 1_554 S
C756 H747 0.950 . S
C756 C755 1.398 . S
C756 C757 1.391 . S
C757 H745 0.950 . S
C757 C753 1.393 . S
C757 C756 1.391 . S
C758 H748 0.950 . S
C758 C759 1.386 . S
C758 C760 1.391 . S
C759 C758 1.386 . S
C759 C763 1.393 . S
C760 H749 0.950 . S
C760 C758 1.391 . S
C760 C761 1.400 . S
C761 C755 1.491 1_556 S
C761 C760 1.400 . S
C761 C762 1.398 . S
C762 H750 0.950 . S
C762 C761 1.398 . S
C762 C763 1.391 . S
C763 H751 0.950 . S
C763 C759 1.393 . S
C763 C762 1.391 . S
H764 C772 0.950 . S
H765 C777 0.950 . S
H766 C774 0.950 . S
H767 C776 0.950 . S
H768 C778 0.950 . S
H769 C780 0.950 . S
H770 C782 0.950 . S
H771 C783 0.950 . S
C772 H764 0.950 . S
C772 C773 1.386 . S
C772 C774 1.391 . S
C773 C772 1.386 . S
C773 C777 1.393 . S
C774 H766 0.950 . S
C774 C772 1.391 . S
C774 C775 1.400 . S
C775 C774 1.400 . S
C775 C776 1.398 . S
C775 C781 1.491 . S
C776 H767 0.950 . S
C776 C775 1.398 . S
C776 C777 1.391 . S
C777 H765 0.950 . S
C777 C773 1.393 . S
C777 C776 1.391 . S
C778 H768 0.950 . S
C778 C779 1.386 . S
C778 C780 1.391 . S
C779 C778 1.386 . S
C779 C783 1.393 . S
C780 H769 0.950 . S
C780 C778 1.391 . S
C780 C781 1.400 . S
C781 C775 1.491 . S
C781 C780 1.400 . S
C781 C782 1.398 . S
C782 H770 0.950 . S
C782 C781 1.398 . S
C782 C783 1.391 . S
C783 H771 0.950 . S
C783 C779 1.393 . S
C783 C782 1.391 . S
H784 C792 0.950 . S
H785 C797 0.950 . S
H786 C794 0.950 . S
H787 C796 0.971 . S
H788 C798 0.950 . S
H789 C800 0.950 . S
H790 C802 0.971 . S
H791 C803 0.950 . S
C792 H784 0.950 . S
C792 C793 1.386 . S
C792 C794 1.391 . S
C793 C792 1.386 . S
C793 C797 1.393 . S
C794 H786 0.950 . S
C794 C792 1.391 . S
C794 C795 1.400 . S
C795 C794 1.400 . S
C795 C796 1.391 1_556 S
C795 C801 1.491 1_546 S
C796 H787 0.971 . S
C796 C795 1.391 1_554 S
C796 C797 1.379 1_554 S
C797 H785 0.950 . S
C797 C793 1.393 . S
C797 C796 1.379 1_556 S
C798 H788 0.950 . S
C798 C799 1.386 . S
C798 C800 1.391 . S
C799 C798 1.386 . S
C799 C803 1.393 . S
C800 H789 0.950 . S
C800 C798 1.391 . S
C800 C801 1.400 . S
C801 C795 1.491 1_564 S
C801 C800 1.400 . S
C801 C802 1.391 1_554 S
C802 H790 0.971 . S
C802 C801 1.391 1_556 S
C802 C803 1.379 1_556 S
C803 H791 0.950 . S
C803 C799 1.393 . S
C803 C802 1.379 1_554 S
H804 C812 0.950 . S
H805 C817 0.950 . S
H806 C814 0.950 . S
H807 C816 0.950 . S
H808 C818 0.950 . S
H809 C820 0.950 . S
H810 C822 0.950 . S
H811 C823 0.950 . S
C812 H804 0.950 . S
C812 C813 1.386 . S
C812 C814 1.391 . S
C813 C812 1.386 . S
C813 C817 1.393 . S
C814 H806 0.950 . S
C814 C812 1.391 . S
C814 C815 1.400 . S
C815 C814 1.400 . S
C815 C816 1.398 . S
C815 C821 1.491 1_565 S
C816 H807 0.950 . S
C816 C815 1.398 . S
C816 C817 1.391 . S
C817 H805 0.950 . S
C817 C813 1.393 . S
C817 C816 1.391 . S
C818 H808 0.950 . S
C818 C819 1.386 . S
C818 C820 1.391 . S
C819 C818 1.386 . S
C819 C823 1.393 . S
C820 H809 0.950 . S
C820 C818 1.391 . S
C820 C821 1.400 . S
C821 C815 1.491 1_545 S
C821 C820 1.400 . S
C821 C822 1.398 . S
C822 H810 0.950 . S
C822 C821 1.398 . S
C822 C823 1.391 . S
C823 H811 0.950 . S
C823 C819 1.393 . S
C823 C822 1.391 . S
H824 C832 0.950 . S
H825 C837 0.950 . S
H826 C834 0.950 . S
H827 C836 0.950 . S
H828 C838 0.950 . S
H829 C840 0.950 . S
H830 C842 0.950 . S
H831 C843 0.950 . S
C832 H824 0.950 . S
C832 C833 1.386 . S
C832 C834 1.391 1_554 S
C833 C832 1.386 . S
C833 C837 1.393 . S
C834 H826 0.950 . S
C834 C832 1.391 1_556 S
C834 C835 1.400 1_556 S
C835 C834 1.400 1_554 S
C835 C836 1.398 . S
C835 C841 1.491 1_564 S
C836 H827 0.950 . S
C836 C835 1.398 . S
C836 C837 1.391 . S
C837 H825 0.950 . S
C837 C833 1.393 . S
C837 C836 1.391 . S
C838 H828 0.950 . S
C838 C839 1.386 . S
C838 C840 1.391 1_556 S
C839 C838 1.386 . S
C839 C843 1.393 . S
C840 H829 0.950 . S
C840 C838 1.391 1_554 S
C840 C841 1.400 1_554 S
C841 C835 1.491 1_546 S
C841 C840 1.400 1_556 S
C841 C842 1.398 . S
C842 H830 0.950 . S
C842 C841 1.398 . S
C842 C843 1.391 . S
C843 H831 0.950 . S
C843 C839 1.393 . S
C843 C842 1.391 . S
H844 C852 0.950 . S
H845 C857 0.950 . S
H846 C854 0.950 . S
H847 C856 0.950 . S
H848 C858 0.950 . S
H849 C860 0.950 . S
H850 C862 0.950 . S
H851 C863 0.950 . S
C852 H844 0.950 . S
C852 C853 1.386 . S
C852 C854 1.391 . S
C853 C852 1.386 . S
C853 C857 1.393 . S
C854 H846 0.950 . S
C854 C852 1.391 . S
C854 C855 1.400 . S
C855 C854 1.400 . S
C855 C856 1.398 . S
C855 C861 1.491 1_545 S
C856 H847 0.950 . S
C856 C855 1.398 . S
C856 C857 1.391 . S
C857 H845 0.950 . S
C857 C853 1.393 . S
C857 C856 1.391 . S
C858 H848 0.950 . S
C858 C859 1.386 . S
C858 C860 1.391 . S
C859 C858 1.386 . S
C859 C863 1.393 . S
C860 H849 0.950 . S
C860 C858 1.391 . S
C860 C861 1.400 . S
C861 C855 1.491 1_565 S
C861 C860 1.400 . S
C861 C862 1.398 . S
C862 H850 0.950 . S
C862 C861 1.398 . S
C862 C863 1.391 . S
C863 H851 0.950 . S
C863 C859 1.393 . S
C863 C862 1.391 . S
C233 C9 1.476 . S
C239 C93 1.473 . S
C253 C23 1.477 . S
C259 C107 1.476 . S
C273 C65 1.483 . S
C279 C37 1.453 . S
C293 C79 1.482 . S
C299 C51 1.475 . S
C313 C205 1.489 . S
C319 C121 1.464 . S
C333 C219 1.486 . S
C339 C135 1.472 . S
C353 C149 1.456 . S
C359 C177 1.474 . S
C373 C163 1.477 . S
C379 C191 1.477 . S
C393 C8 1.593 . S
C399 C77 1.542 . S
C413 C22 1.592 . S
C419 C63 1.538 . S
C433 C36 1.596 . S
C439 C105 1.559 . S
C453 C91 1.560 . S
C459 C50 1.596 . S
C473 C189 1.538 . S
C479 C120 1.592 . S
C493 C175 1.544 . S
C499 C134 1.593 . S
C513 C148 1.595 . S
C519 C217 1.559 . S
C533 C203 1.546 . S
C539 C162 1.594 . S
C553 C174 1.523 . S
C559 C6 1.549 . S
C573 C20 1.558 . S
C579 C188 1.532 . S
C593 C202 1.530 . S
C599 C34 1.556 . S
C613 C216 1.545 . S
C619 C48 1.564 . S
C633 C118 1.563 . S
C639 C62 1.545 . S
C653 C132 1.548 . S
C659 C76 1.523 . S
C673 C90 1.545 . S
C679 C146 1.561 . S
C693 C104 1.525 . S
C699 C160 1.552 . S
C713 C35 1.123 . S
C719 C7 1.126 . S
C733 C21 1.116 . S
C739 C49 1.116 . S
C753 C92 1.966 . S
C759 C64 1.967 . S
C773 C78 1.966 . S
C779 C106 1.966 . S
C793 C147 1.122 . S
C799 C119 1.119 . S
C813 C161 1.150 . S
C819 C133 1.152 . S
C833 C204 1.971 . S
C839 C176 1.971 . S
C853 C218 1.970 . S
C859 C190 1.971 . S
