# Generated by pormake.
# Topology wli, (5)-cn, num edge types: 1
# Building blocks:
#     Node 0, Type 0, BuildingBlock: XOMCOT_clean_sbu_0, # of connection points: 5
#     Node 1, Type 0, BuildingBlock: XOMCOT_clean_sbu_0, # of connection points: 5
#     Node 2, Type 0, BuildingBlock: XOMCOT_clean_sbu_0, # of connection points: 5
#     Node 3, Type 0, BuildingBlock: XOMCOT_clean_sbu_0, # of connection points: 5
#     Node 4, Type 0, BuildingBlock: XOMCOT_clean_sbu_0, # of connection points: 5
#     Node 5, Type 0, BuildingBlock: XOMCOT_clean_sbu_0, # of connection points: 5
#     Edge 6, Type (0, 0), BuildingBlock: CIFDUS_clean_linker_0, # of connection points: 2
#     Edge 7, Type (0, 0), BuildingBlock: CIFDUS_clean_linker_0, # of connection points: 2
#     Edge 8, Type (0, 0), BuildingBlock: CIFDUS_clean_linker_0, # of connection points: 2
#     Edge 9, Type (0, 0), BuildingBlock: CIFDUS_clean_linker_0, # of connection points: 2
#     Edge 10, Type (0, 0), BuildingBlock: CIFDUS_clean_linker_0, # of connection points: 2
#     Edge 11, Type (0, 0), BuildingBlock: CIFDUS_clean_linker_0, # of connection points: 2
#     Edge 12, Type (0, 0), BuildingBlock: CIFDUS_clean_linker_0, # of connection points: 2
#     Edge 13, Type (0, 0), BuildingBlock: CIFDUS_clean_linker_0, # of connection points: 2
#     Edge 14, Type (0, 0), BuildingBlock: CIFDUS_clean_linker_0, # of connection points: 2
#     Edge 15, Type (0, 0), BuildingBlock: CIFDUS_clean_linker_0, # of connection points: 2
#     Edge 16, Type (0, 0), BuildingBlock: CIFDUS_clean_linker_0, # of connection points: 2
#     Edge 17, Type (0, 0), BuildingBlock: CIFDUS_clean_linker_0, # of connection points: 2
#     Edge 18, Type (0, 0), BuildingBlock: CIFDUS_clean_linker_0, # of connection points: 2
#     Edge 19, Type (0, 0), BuildingBlock: CIFDUS_clean_linker_0, # of connection points: 2
#     Edge 20, Type (0, 0), BuildingBlock: CIFDUS_clean_linker_0, # of connection points: 2
# Relax obj value: 0.133
# Max RMSD: 0.157
# Mean RMSD: 0.157
data_MOF--net-wli--node1-XOMCOT_clean_sbu_0--edge1-CIFDUS_clean_linker_0
_symmetry_space_group_name_H-M    P1
_symmetry_Int_Tables_number       1
_symmetry_cell_setting            triclinic
loop_
_symmetry_equiv_pos_as_xyz
'x, y, z'
_cell_length_a     32.31279
_cell_length_b     32.291622
_cell_length_c     23.661671
_cell_angle_alpha  89.276198
_cell_angle_beta   90.750459
_cell_angle_gamma 119.49904
loop_
_atom_site_label
_atom_site_type_symbol
_atom_site_fract_x
_atom_site_fract_y
_atom_site_fract_z
_atom_type_partial_charge
Co0 Co 0.23011 0.4413 0.1357 0.0
C1 C 0.15931 0.37698 0.22 0.0
C2 C 0.21602 0.36135 0.20888 0.0
C3 C 0.18618 0.33162 0.24995 0.0
N4 N 0.19918 0.3897 0.18985 0.0
N5 N 0.15066 0.34161 0.25757 0.0
H6 H 0.13822 0.39449 0.21596 0.0
H7 H 0.24851 0.36288 0.19524 0.0
C8 C 0.27796 0.40692 0.05515 0.0
O9 O 0.26561 0.42577 0.01325 0.0
N10 N 0.26253 0.49448 0.08291 0.0
C11 C 0.24736 0.52407 0.06269 0.0
C12 C 0.28339 0.56048 0.03291 0.0
C13 C 0.30868 0.5151 0.06725 0.0
N14 N 0.32183 0.55464 0.03552 0.0
C15 C 0.14996 0.42401 0.06584 0.0
C16 C 0.13861 0.34224 0.01581 0.0
C17 C 0.11417 0.36448 0.99307 0.0
C18 C 0.11847 0.40466 0.02047 0.0
C19 C 0.16965 0.36289 0.06157 0.0
N20 N 0.17846 0.40586 0.08218 0.0
H21 H 0.15184 0.45411 0.08717 0.0
H22 H 0.18763 0.34494 0.07911 0.0
H23 H 0.2136 0.52165 0.07113 0.0
H24 H 0.3326 0.50219 0.07998 0.0
O25 O 0.20428 0.47607 0.17324 0.0
O26 O 0.27382 0.48134 0.19389 0.0
O27 O 0.26731 0.41052 0.10617 0.0
C28 C 0.24322 0.49573 0.20311 0.0
H29 H 0.19092 0.30503 0.27284 0.0
H30 H 0.28149 0.58923 0.01126 0.0
H31 H 0.13426 0.30958 0.99802 0.0
H32 H 0.09905 0.42219 1.00586 0.0
Co33 Co 0.59476 0.78439 0.78807 0.0
C34 C 0.66163 0.77629 0.8704 0.0
C35 C 0.66279 0.84299 0.87589 0.0
C36 C 0.68886 0.83952 0.92041 0.0
N37 N 0.64608 0.80364 0.84375 0.0
N38 N 0.68812 0.79757 0.91686 0.0
H39 H 0.65021 0.73982 0.86001 0.0
H40 H 0.6538 0.87087 0.86978 0.0
C41 C 0.66492 0.88382 0.7489 0.0
O42 O 0.69975 0.87494 0.76005 0.0
N43 N 0.54271 0.76481 0.73483 0.0
C44 C 0.51855 0.72208 0.70973 0.0
C45 C 0.48213 0.72119 0.67781 0.0
C46 C 0.52083 0.78933 0.7181 0.0
N47 N 0.48367 0.76349 0.6831 0.0
C48 C 0.63677 0.73203 0.73979 0.0
C49 C 0.66104 0.78064 0.63778 0.0
C50 C 0.67147 0.74399 0.64702 0.0
C51 C 0.65856 0.71897 0.69827 0.0
C52 C 0.63872 0.79209 0.68001 0.0
N53 N 0.62896 0.76959 0.73151 0.0
H54 H 0.62421 0.7104 0.77735 0.0
H55 H 0.62773 0.81793 0.67006 0.0
H56 H 0.52664 0.69348 0.71469 0.0
H57 H 0.53119 0.82488 0.73227 0.0
O58 O 0.56032 0.72309 0.82573 0.0
O59 O 0.55506 0.78714 0.84623 0.0
O60 O 0.62191 0.85207 0.75873 0.0
C61 C 0.54118 0.74249 0.85616 0.0
H62 H 0.70519 0.86485 0.95433 0.0
H63 H 0.45686 0.6919 0.65212 0.0
H64 H 0.6687 0.79925 0.59754 0.0
H65 H 0.66437 0.68904 0.70565 0.0
Co66 Co 0.25105 0.82051 0.44736 0.0
C67 C 0.2717 0.89341 0.53457 0.0
C68 C 0.19661 0.84934 0.52191 0.0
C69 C 0.20415 0.8828 0.56225 0.0
N70 N 0.23904 0.85618 0.50419 0.0
N71 N 0.25142 0.91053 0.57016 0.0
H72 H 0.30964 0.90809 0.53042 0.0
H73 H 0.16231 0.82198 0.50708 0.0
C74 C 0.14669 0.75167 0.42866 0.0
O75 O 0.14931 0.72039 0.46231 0.0
N76 N 0.26409 0.78565 0.39101 0.0
C77 C 0.30353 0.80376 0.35906 0.0
C78 C 0.30436 0.76724 0.33076 0.0
C79 C 0.24155 0.73828 0.38198 0.0
N80 N 0.26546 0.72617 0.34532 0.0
C81 C 0.31229 0.9135 0.40118 0.0
C82 C 0.25803 0.90415 0.30598 0.0
C83 C 0.30218 0.94564 0.31207 0.0
C84 C 0.32925 0.95011 0.36087 0.0
C85 C 0.24305 0.86795 0.34634 0.0
N86 N 0.26977 0.8729 0.39369 0.0
H87 H 0.33446 0.91716 0.43733 0.0
H88 H 0.21057 0.83547 0.33769 0.0
H89 H 0.33086 0.84075 0.3581 0.0
H90 H 0.20986 0.71285 0.40381 0.0
O91 O 0.31219 0.83872 0.4813 0.0
O92 O 0.24522 0.77403 0.50442 0.0
O93 O 0.18327 0.79215 0.42003 0.0
C94 C 0.291 0.80033 0.51186 0.0
H95 H 0.17683 0.88598 0.58455 0.0
H96 H 0.33174 0.77054 0.3022 0.0
H97 H 0.23523 0.89899 0.26976 0.0
H98 H 0.36405 0.98081 0.36721 0.0
Co99 Co 0.45138 0.22208 0.88371 0.0
C100 C 0.38218 0.14607 0.80674 0.0
C101 C 0.37484 0.20842 0.8042 0.0
C102 C 0.3438 0.17651 0.76538 0.0
N103 N 0.39803 0.18889 0.83156 0.0
N104 N 0.3485 0.1373 0.76693 0.0
H105 H 0.39626 0.12256 0.81536 0.0
H106 H 0.38149 0.24434 0.80999 0.0
C107 C 0.38153 0.24993 0.92622 0.0
O108 O 0.3491 0.20466 0.927 0.0
N109 N 0.5051 0.2556 0.9339 0.0
C110 C 0.53149 0.2379 0.95709 0.0
C111 C 0.56758 0.27298 0.98845 0.0
C112 C 0.52522 0.30107 0.95146 0.0
N113 N 0.56357 0.31259 0.98488 0.0
C114 C 0.4122 0.12995 0.93654 0.0
C115 C 0.39417 0.15609 0.04009 0.0
C116 C 0.3832 0.10872 0.0324 0.0
C117 C 0.39336 0.0962 0.97988 0.0
C118 C 0.41403 0.18894 0.99589 0.0
N119 N 0.42022 0.17515 0.94371 0.0
H120 H 0.42261 0.1201 0.89829 0.0
H121 H 0.42516 0.22577 1.0042 0.0
H122 H 0.52489 0.20195 0.95152 0.0
H123 H 0.51258 0.32538 0.93941 0.0
O124 O 0.48452 0.19364 0.84763 0.0
O125 O 0.48894 0.26195 0.8219 0.0
O126 O 0.4239 0.26293 0.91023 0.0
C127 C 0.50267 0.23066 0.81436 0.0
H128 H 0.32127 0.18273 0.7363 0.0
H129 H 0.59424 0.26939 0.01281 0.0
H130 H 0.38787 0.16807 0.07992 0.0
H131 H 0.38837 0.06099 0.97261 0.0
Co132 Co 0.83083 0.24061 0.57312 0.0
C133 C 0.8995 0.25466 0.48185 0.0
C134 C 0.88598 0.19548 0.5357 0.0
C135 C 0.92036 0.20184 0.49736 0.0
N136 N 0.87272 0.22855 0.52605 0.0
N137 N 0.92895 0.23916 0.46361 0.0
H138 H 0.89948 0.28592 0.465 0.0
H139 H 0.87313 0.16962 0.56968 0.0
C140 C 0.76244 0.13543 0.58944 0.0
O141 O 0.73382 0.13624 0.55006 0.0
N142 N 0.79037 0.25419 0.61997 0.0
C143 C 0.80513 0.29632 0.64547 0.0
C144 C 0.76698 0.29596 0.67066 0.0
C145 C 0.74321 0.22856 0.62994 0.0
N146 N 0.72813 0.2535 0.66081 0.0
C147 C 0.92209 0.29339 0.62891 0.0
C148 C 0.88882 0.25328 0.73439 0.0
C149 C 0.93603 0.28936 0.7292 0.0
C150 C 0.95316 0.30899 0.67558 0.0
C151 C 0.8594 0.23845 0.68705 0.0
N152 N 0.87585 0.25876 0.6353 0.0
H153 H 0.93469 0.30976 0.58798 0.0
H154 H 0.82256 0.21188 0.6927 0.0
H155 H 0.84124 0.32564 0.64497 0.0
H156 H 0.72016 0.19328 0.61382 0.0
O157 O 0.85246 0.30176 0.53717 0.0
O158 O 0.79066 0.23422 0.50848 0.0
O159 O 0.8007 0.17323 0.60211 0.0
C160 C 0.81672 0.28021 0.50241 0.0
H161 H 0.9383 0.18109 0.49526 0.0
H162 H 0.76775 0.32463 0.69472 0.0
H163 H 0.87446 0.23719 0.77509 0.0
H164 H 0.98953 0.33718 0.67026 0.0
Co165 Co 0.79486 0.58387 0.23243 0.0
C166 C 0.78536 0.65138 0.15225 0.0
C167 C 0.85354 0.65571 0.14817 0.0
C168 C 0.84993 0.6824 0.10449 0.0
N169 N 0.81332 0.63658 0.17892 0.0
N170 N 0.80707 0.67968 0.10716 0.0
H171 H 0.74837 0.63825 0.16146 0.0
H172 H 0.88223 0.64794 0.15442 0.0
C173 C 0.89298 0.65485 0.27477 0.0
O174 O 0.88256 0.68904 0.26683 0.0
N175 N 0.77632 0.53054 0.28348 0.0
C176 C 0.73326 0.50401 0.30703 0.0
C177 C 0.73352 0.4675 0.33753 0.0
C178 C 0.80219 0.50998 0.29978 0.0
N179 N 0.77688 0.47138 0.33295 0.0
C180 C 0.73886 0.62052 0.2824 0.0
C181 C 0.78258 0.63936 0.38741 0.0
C182 C 0.74309 0.64575 0.37927 0.0
C183 C 0.72128 0.63629 0.32584 0.0
C184 C 0.79867 0.62303 0.34299 0.0
N185 N 0.77784 0.61512 0.29056 0.0
H186 H 0.71906 0.60984 0.24339 0.0
H187 H 0.82618 0.61416 0.35213 0.0
H188 H 0.70366 0.51057 0.30196 0.0
H189 H 0.83836 0.52228 0.28658 0.0
O190 O 0.73407 0.5493 0.19422 0.0
O191 O 0.79898 0.54622 0.1723 0.0
O192 O 0.86242 0.61195 0.26233 0.0
C193 C 0.7541 0.53151 0.16275 0.0
H194 H 0.87586 0.70048 0.07161 0.0
H195 H 0.70428 0.44053 0.36179 0.0
H196 H 0.79933 0.64445 0.42862 0.0
H197 H 0.69004 0.6398 0.31804 0.0
H198 H 0.3255 0.69284 0.32576 0.0
H199 H 0.1774 0.65399 0.32282 0.0
H200 H 0.15661 0.57648 0.28282 0.0
H201 H 0.18153 0.52271 0.24173 0.0
H202 H 0.32972 0.56117 0.24567 0.0
H203 H 0.34959 0.63574 0.29286 0.0
C204 C 0.28871 0.66727 0.31642 0.0
C205 C 0.25304 0.67922 0.3264 0.0
C206 C 0.27713 0.62283 0.29373 0.0
C207 C 0.20537 0.64548 0.31545 0.0
C208 C 0.19356 0.60132 0.29241 0.0
C209 C 0.2181 0.54712 0.25364 0.0
C210 C 0.25417 0.53662 0.23987 0.0
C211 C 0.22925 0.58998 0.28043 0.0
C212 C 0.3013 0.56836 0.25594 0.0
C213 C 0.31272 0.61116 0.28255 0.0
H214 H 0.50657 0.64982 0.88855 0.0
H215 H 0.48986 0.77272 0.91583 0.0
H216 H 0.422 0.72583 0.97675 0.0
H217 H 0.36432 0.64897 0.01763 0.0
H218 H 0.37996 0.52564 0.99112 0.0
H219 H 0.45171 0.57368 0.93545 0.0
C220 C 0.48831 0.6664 0.90825 0.0
C221 C 0.50305 0.71462 0.89723 0.0
C222 C 0.44908 0.63913 0.94334 0.0
C223 C 0.47922 0.73566 0.92338 0.0
C224 C 0.44029 0.70885 0.95819 0.0
C225 C 0.38354 0.63268 0.99975 0.0
C226 C 0.36666 0.58379 1.00797 0.0
C227 C 0.42442 0.66042 0.96764 0.0
C228 C 0.39243 0.56329 0.98559 0.0
C229 C 0.43323 0.59067 0.95345 0.0
H230 H 0.38096 0.8566 0.54966 0.0
H231 H 0.26361 0.71306 0.55972 0.0
H232 H 0.31288 0.68903 0.6153 0.0
H233 H 0.39077 0.70823 0.65701 0.0
H234 H 0.50735 0.85212 0.64739 0.0
H235 H 0.45686 0.87676 0.59606 0.0
C236 C 0.36603 0.82009 0.56433 0.0
C237 C 0.31878 0.78656 0.55028 0.0
C238 C 0.39452 0.80662 0.59618 0.0
C239 C 0.29983 0.73955 0.57007 0.0
C240 C 0.32807 0.72577 0.6016 0.0
C241 C 0.40505 0.74494 0.64358 0.0
C242 C 0.45288 0.77824 0.65564 0.0
C243 C 0.3757 0.75885 0.61418 0.0
C244 C 0.47065 0.8259 0.63896 0.0
C245 C 0.44185 0.83994 0.60935 0.0
H246 H 0.5334 0.16912 0.78537 0.0
H247 H 0.55796 0.31143 0.75401 0.0
H248 H 0.62839 0.32971 0.69902 0.0
H249 H 0.68708 0.30779 0.66773 0.0
H250 H 0.66357 0.16615 0.69884 0.0
H251 H 0.58811 0.14462 0.74531 0.0
C252 C 0.55382 0.20392 0.76585 0.0
C253 C 0.54079 0.23906 0.77431 0.0
C254 C 0.59452 0.21431 0.73455 0.0
C255 C 0.5673 0.28382 0.74833 0.0
C256 C 0.6077 0.29438 0.71706 0.0
C257 C 0.66518 0.27213 0.68439 0.0
C258 C 0.68099 0.23876 0.68075 0.0
C259 C 0.62229 0.26032 0.7112 0.0
C260 C 0.65197 0.19234 0.70122 0.0
C261 C 0.60908 0.1802 0.72807 0.0
H262 H 0.72521 0.37695 0.35151 0.0
H263 H 0.86479 0.49834 0.37411 0.0
H264 H 0.89076 0.4488 0.42547 0.0
H265 H 0.87208 0.3721 0.46931 0.0
H266 H 0.73281 0.25019 0.44549 0.0
H267 H 0.70846 0.29859 0.38891 0.0
C268 C 0.7613 0.39243 0.36766 0.0
C269 C 0.79292 0.44132 0.35955 0.0
C270 C 0.77599 0.36363 0.39689 0.0
C271 C 0.83989 0.4608 0.37966 0.0
C272 C 0.85465 0.43252 0.40923 0.0
C273 C 0.83656 0.35599 0.4512 0.0
C274 C 0.80419 0.30768 0.46189 0.0
C275 C 0.82281 0.38406 0.4188 0.0
C276 C 0.75844 0.28725 0.43778 0.0
C277 C 0.7444 0.31498 0.4057 0.0
H278 H 0.65735 0.35219 1.00485 0.0
H279 H 0.53677 0.37298 0.02765 0.0
H280 H 0.58616 0.4451 0.0822 0.0
H281 H 0.66249 0.49902 0.12877 0.0
H282 H 0.78306 0.47796 0.10504 0.0
H283 H 0.7349 0.40924 0.04541 0.0
C284 C 0.64198 0.37259 0.02176 0.0
C285 C 0.59344 0.35708 0.01281 0.0
C286 C 0.67056 0.41385 0.053 0.0
C287 C 0.5741 0.38435 0.03384 0.0
C288 C 0.60227 0.42539 0.06527 0.0
C289 C 0.67833 0.47966 0.11009 0.0
C290 C 0.7262 0.49338 0.12168 0.0
C291 C 0.65038 0.44005 0.07587 0.0
C292 C 0.7463 0.46814 0.09686 0.0
C293 C 0.71874 0.42871 0.06291 0.0
H294 H 1.02249 0.29684 0.75011 0.0
H295 H 0.91498 0.32103 0.82382 0.0
H296 H 0.95969 0.34486 0.91262 0.0
H297 H 0.02815 0.35709 0.96991 0.0
H298 H 0.13649 0.33342 0.8973 0.0
H299 H 0.09215 0.30992 0.80807 0.0
C300 C 1.00935 0.30788 0.78555 0.0
C301 C 0.96574 0.30735 0.78069 0.0
C302 C 0.0349 0.32082 0.83687 0.0
C303 C 0.9485 0.32108 0.8269 0.0
C304 C 0.97393 0.33458 0.87763 0.0
C305 C 0.04225 0.34708 0.93448 0.0
C306 C 0.08558 0.34708 0.9403 0.0
C307 C 1.01696 0.33423 0.88323 0.0
C308 C 0.10287 0.33312 0.89423 0.0
C309 C 0.07779 0.32013 0.84299 0.0
H310 H 0.79011 0.71534 0.45714 0.0
H311 H 0.64999 0.60427 0.40956 0.0
H312 H 0.6157 0.62373 0.48943 0.0
H313 H 0.62536 0.67279 0.5728 0.0
H314 H 0.76464 0.78534 0.61908 0.0
H315 H 0.79973 0.76477 0.54029 0.0
C316 C 0.75211 0.69537 0.46447 0.0
C317 C 0.72261 0.6586 0.42734 0.0
C318 C 0.73259 0.7069 0.51041 0.0
C319 C 0.67336 0.63321 0.43702 0.0
C320 C 0.65376 0.64409 0.4829 0.0
C321 C 0.66341 0.69239 0.5656 0.0
C322 C 0.69269 0.73004 0.60149 0.0
C323 C 0.68298 0.68086 0.51981 0.0
C324 C 0.74178 0.75592 0.59188 0.0
C325 C 0.76169 0.74426 0.54689 0.0
H326 H 0.4 0.12297 0.14653 0.0
H327 H 0.32023 1.01326 0.02382 0.0
H328 H 0.29023 0.95373 0.09879 0.0
H329 H 0.28762 0.93239 0.1982 0.0
H330 H 0.35899 0.04272 0.32268 0.0
H331 H 0.39133 0.10234 0.2475 0.0
C332 C 0.37534 0.08627 0.13598 0.0
C333 C 0.36299 0.07292 0.07907 0.0
C334 C 0.35688 0.05215 0.17958 0.0
C335 C 0.33156 0.02475 0.0668 0.0
C336 C 0.31395 0.99057 0.10978 0.0
C337 C 0.30928 0.96951 0.20944 0.0
C338 C 0.32064 0.98265 0.26651 0.0
C339 C 0.32653 1.00385 0.16623 0.0
C340 C 0.35015 0.03109 0.27933 0.0
C341 C 0.36841 0.0654 0.2363 0.0
H342 H 0.32511 0.24204 0.01389 0.0
H343 H 0.41125 0.33834 0.88232 0.0
H344 H 0.38769 0.39637 0.91128 0.0
H345 H 0.33972 0.41813 0.97193 0.0
H346 H 0.25892 0.3243 0.10827 0.0
H347 H 0.28355 0.26712 0.08017 0.0
C348 C 0.33869 0.2758 0.99171 0.0
C349 C 0.36924 0.28579 0.94559 0.0
C350 C 0.32608 0.30942 1.00964 0.0
C351 C 0.38752 0.32995 0.91783 0.0
C352 C 0.37401 0.36303 0.93432 0.0
C353 C 0.32796 0.38533 0.99571 0.0
C354 C 0.29748 0.37532 0.04197 0.0
C355 C 0.34294 0.35297 0.97985 0.0
C356 C 0.28275 0.33297 0.07284 0.0
C357 C 0.29653 0.3001 0.05652 0.0
H358 H 0.67571 0.0545 0.60147 0.0
H359 H 0.82368 0.11643 0.64919 0.0
H360 H 0.80678 0.0449 0.70237 0.0
H361 H 0.75037 0.96449 0.73583 0.0
H362 H 0.60167 0.90312 0.69251 0.0
H363 H 0.61837 0.97436 0.63799 0.0
C364 C 0.70424 0.05219 0.62326 0.0
C365 C 0.75098 0.09081 0.62071 0.0
C366 C 0.69414 1.01101 0.65508 0.0
C367 C 0.78739 0.08736 0.65003 0.0
C368 C 0.77778 0.04638 0.68066 0.0
C369 C 0.72156 0.9667 0.7146 0.0
C370 C 0.67486 0.92834 0.71838 0.0
C371 C 0.73134 1.00799 0.68359 0.0
C372 C 0.63797 0.9321 0.69075 0.0
C373 C 0.64751 0.97284 0.65924 0.0
H374 H 0.06904 0.66435 0.40839 0.0
H375 H 0.12245 0.81479 0.38338 0.0
H376 H 0.04943 0.79837 0.33367 0.0
H377 H 0.97024 0.74151 0.2967 0.0
H378 H 0.91747 0.5909 0.31861 0.0
H379 H 0.99005 0.60716 0.36949 0.0
C380 C 0.06455 0.69351 0.39234 0.0
C381 C 0.10123 0.74074 0.39994 0.0
C382 C 1.02253 0.68382 0.3628 0.0
C383 C 0.09496 0.77807 0.37817 0.0
C384 C 0.05312 0.76874 0.34966 0.0
C385 C 0.97459 0.7122 0.31248 0.0
C386 C 0.93823 0.66505 0.30366 0.0
C387 C 1.01669 0.72178 0.34155 0.0
C388 C 0.94479 0.62758 0.32436 0.0
C389 C 0.98633 0.63684 0.35376 0.0
H390 H 1.01301 0.24084 0.46128 0.0
H391 H 0.9264 0.28638 0.36908 0.0
H392 H 0.98767 0.32278 0.29642 0.0
H393 H 0.06585 0.34059 0.25848 0.0
H394 H 0.15229 0.29631 0.35431 0.0
H395 H 0.09084 0.25984 0.42503 0.0
C396 C 1.00724 0.25825 0.42503 0.0
C397 C 0.96495 0.26051 0.42054 0.0
C398 C 0.04264 0.27922 0.38367 0.0
C399 C 0.95869 0.28431 0.3738 0.0
C400 C 0.99368 0.30498 0.33211 0.0
C401 C 0.07147 0.32329 0.29494 0.0
C402 C 0.11385 0.32095 0.30006 0.0
C403 C 0.0359 0.30266 0.33656 0.0
C404 C 0.11997 0.29798 0.34788 0.0
C405 C 0.08483 0.27728 0.38894 0.0
H406 H 0.73367 0.74828 0.89741 0.0
H407 H 0.68249 0.80083 0.03026 0.0
H408 H 0.71289 0.76683 0.10167 0.0
H409 H 0.75568 0.72305 0.12663 0.0
H410 H 0.8122 0.67595 0.99383 0.0
H411 H 0.77836 0.70647 0.92237 0.0
C412 C 0.72911 0.752 0.94203 0.0
C413 C 0.70587 0.77697 0.95856 0.0
C414 C 0.74781 0.73334 0.98291 0.0
C415 C 0.7006 0.7821 0.01653 0.0
C416 C 0.71784 0.76251 0.05736 0.0
C417 C 0.76028 0.71939 0.082 0.0
C418 C 0.78632 0.69726 0.06548 0.0
C419 C 0.74173 0.73822 0.04113 0.0
C420 C 0.79259 0.69316 1.00753 0.0
C421 C 0.77312 0.71049 0.96668 0.0
H422 H 0.38148 0.07939 0.73195 0.0
H423 H 0.2607 0.10203 0.72091 0.0
H424 H 0.21972 0.03345 0.65892 0.0
H425 H 0.21842 0.96758 0.6069 0.0
H426 H 0.33854 0.94395 0.61876 0.0
H427 H 0.37945 1.01228 0.68128 0.0
C428 C 0.346 0.06905 0.71656 0.0
C429 C 0.32429 0.09602 0.73119 0.0
C430 C 0.32255 0.02944 0.68081 0.0
C431 C 0.27855 0.0824 0.70985 0.0
C432 C 0.25496 0.04299 0.67458 0.0
C433 C 0.25331 0.97698 0.6236 0.0
C434 C 0.27525 0.9505 0.60795 0.0
C435 C 0.27664 0.01632 0.65965 0.0
C436 C 0.32094 0.96392 0.62937 0.0
C437 C 0.34431 1.0029 0.66545 0.0
loop_
_geom_bond_atom_site_label_1
_geom_bond_atom_site_label_2
_geom_bond_distance
_geom_bond_site_symmetry_2
_ccdc_geom_bond_type
Co0 N4 2.148 . S
Co0 N10 2.128 . S
Co0 N20 2.194 . S
Co0 O25 2.351 . S
Co0 O26 2.155 . S
Co0 O27 2.096 . S
C1 N4 1.301 . S
C1 N5 1.328 . S
C1 H6 0.930 . S
C2 C3 1.333 . S
C2 N4 1.317 . S
C2 H7 0.930 . S
C3 C2 1.333 . S
C3 N5 1.350 . S
C3 H29 0.931 . S
N4 Co0 2.148 . S
N4 C1 1.301 . S
N4 C2 1.317 . S
N5 C1 1.328 . S
N5 C3 1.350 . S
H6 C1 0.930 . S
H7 C2 0.930 . S
C8 O9 1.224 . S
C8 O27 1.247 . S
O9 C8 1.224 . S
N10 Co0 2.128 . S
N10 C11 1.355 1_554 S
N10 C13 1.311 1_554 S
C11 N10 1.355 1_556 S
C11 C12 1.363 . S
C11 H23 0.929 . S
C12 C11 1.363 . S
C12 N14 1.375 . S
C12 H30 0.931 . S
C13 N10 1.311 1_556 S
C13 N14 1.347 . S
C13 H24 0.929 1_556 S
N14 C12 1.375 . S
N14 C13 1.347 . S
C15 C18 1.365 1_554 S
C15 N20 1.328 . S
C15 H21 0.929 . S
C16 C17 1.362 . S
C16 C19 1.378 . S
C16 H31 0.929 . S
C17 C16 1.362 . S
C17 C18 1.366 . S
C18 C15 1.365 1_556 S
C18 C17 1.366 . S
C18 H32 0.930 . S
C19 C16 1.378 . S
C19 N20 1.315 1_556 S
C19 H22 0.930 . S
N20 Co0 2.194 . S
N20 C15 1.328 . S
N20 C19 1.315 1_554 S
H21 C15 0.929 . S
H22 C19 0.930 . S
H23 C11 0.929 . S
H24 C13 0.929 1_554 S
O25 Co0 2.351 . S
O25 C28 1.244 . S
O26 Co0 2.155 . S
O26 C28 1.240 . S
O27 Co0 2.096 . S
O27 C8 1.247 . S
C28 O25 1.244 . S
C28 O26 1.240 . S
H29 C3 0.931 . S
H30 C12 0.931 . S
H31 C16 0.929 . S
H32 C18 0.930 . S
Co33 N37 2.148 . S
Co33 N43 2.128 . S
Co33 N53 2.194 . S
Co33 O58 2.351 . S
Co33 O59 2.155 . S
Co33 O60 2.096 . S
C34 N37 1.301 . S
C34 N38 1.328 . S
C34 H39 0.930 . S
C35 C36 1.333 . S
C35 N37 1.317 . S
C35 H40 0.930 . S
C36 C35 1.333 . S
C36 N38 1.350 . S
C36 H62 0.931 . S
N37 Co33 2.148 . S
N37 C34 1.301 . S
N37 C35 1.317 . S
N38 C34 1.328 . S
N38 C36 1.350 . S
H39 C34 0.930 . S
H40 C35 0.930 . S
C41 O42 1.224 . S
C41 O60 1.247 . S
O42 C41 1.224 . S
N43 Co33 2.128 . S
N43 C44 1.355 . S
N43 C46 1.311 . S
C44 N43 1.355 . S
C44 C45 1.363 . S
C44 H56 0.929 . S
C45 C44 1.363 . S
C45 N47 1.375 . S
C45 H63 0.931 . S
C46 N43 1.311 . S
C46 N47 1.347 . S
C46 H57 0.929 . S
N47 C45 1.375 . S
N47 C46 1.347 . S
C48 C51 1.365 . S
C48 N53 1.328 . S
C48 H54 0.929 . S
C49 C50 1.362 . S
C49 C52 1.378 . S
C49 H64 0.929 . S
C50 C49 1.362 . S
C50 C51 1.366 . S
C51 C48 1.365 . S
C51 C50 1.366 . S
C51 H65 0.930 . S
C52 C49 1.378 . S
C52 N53 1.315 . S
C52 H55 0.930 . S
N53 Co33 2.194 . S
N53 C48 1.328 . S
N53 C52 1.315 . S
H54 C48 0.929 . S
H55 C52 0.930 . S
H56 C44 0.929 . S
H57 C46 0.929 . S
O58 Co33 2.351 . S
O58 C61 1.244 . S
O59 Co33 2.155 . S
O59 C61 1.240 . S
O60 Co33 2.096 . S
O60 C41 1.247 . S
C61 O58 1.244 . S
C61 O59 1.240 . S
H62 C36 0.931 . S
H63 C45 0.931 . S
H64 C49 0.929 . S
H65 C51 0.930 . S
Co66 N70 2.148 . S
Co66 N76 2.128 . S
Co66 N86 2.194 . S
Co66 O91 2.351 . S
Co66 O92 2.155 . S
Co66 O93 2.096 . S
C67 N70 1.301 . S
C67 N71 1.328 . S
C67 H72 0.930 . S
C68 C69 1.333 . S
C68 N70 1.317 . S
C68 H73 0.930 . S
C69 C68 1.333 . S
C69 N71 1.350 . S
C69 H95 0.931 . S
N70 Co66 2.148 . S
N70 C67 1.301 . S
N70 C68 1.317 . S
N71 C67 1.328 . S
N71 C69 1.350 . S
H72 C67 0.930 . S
H73 C68 0.930 . S
C74 O75 1.224 . S
C74 O93 1.247 . S
O75 C74 1.224 . S
N76 Co66 2.128 . S
N76 C77 1.355 . S
N76 C79 1.311 . S
C77 N76 1.355 . S
C77 C78 1.363 . S
C77 H89 0.929 . S
C78 C77 1.363 . S
C78 N80 1.375 . S
C78 H96 0.931 . S
C79 N76 1.311 . S
C79 N80 1.347 . S
C79 H90 0.929 . S
N80 C78 1.375 . S
N80 C79 1.347 . S
C81 C84 1.365 . S
C81 N86 1.328 . S
C81 H87 0.929 . S
C82 C83 1.362 . S
C82 C85 1.378 . S
C82 H97 0.929 . S
C83 C82 1.362 . S
C83 C84 1.366 . S
C84 C81 1.365 . S
C84 C83 1.366 . S
C84 H98 0.930 . S
C85 C82 1.378 . S
C85 N86 1.315 . S
C85 H88 0.930 . S
N86 Co66 2.194 . S
N86 C81 1.328 . S
N86 C85 1.315 . S
H87 C81 0.929 . S
H88 C85 0.930 . S
H89 C77 0.929 . S
H90 C79 0.929 . S
O91 Co66 2.351 . S
O91 C94 1.244 . S
O92 Co66 2.155 . S
O92 C94 1.240 . S
O93 Co66 2.096 . S
O93 C74 1.247 . S
C94 O91 1.244 . S
C94 O92 1.240 . S
H95 C69 0.931 . S
H96 C78 0.931 . S
H97 C82 0.929 . S
H98 C84 0.930 . S
Co99 N103 2.148 . S
Co99 N109 2.128 . S
Co99 N119 2.194 . S
Co99 O124 2.351 . S
Co99 O125 2.155 . S
Co99 O126 2.096 . S
C100 N103 1.301 . S
C100 N104 1.328 . S
C100 H105 0.930 . S
C101 C102 1.333 . S
C101 N103 1.317 . S
C101 H106 0.930 . S
C102 C101 1.333 . S
C102 N104 1.350 . S
C102 H128 0.931 . S
N103 Co99 2.148 . S
N103 C100 1.301 . S
N103 C101 1.317 . S
N104 C100 1.328 . S
N104 C102 1.350 . S
H105 C100 0.930 . S
H106 C101 0.930 . S
C107 O108 1.224 . S
C107 O126 1.247 . S
O108 C107 1.224 . S
N109 Co99 2.128 . S
N109 C110 1.355 1_556 S
N109 C112 1.311 1_556 S
C110 N109 1.355 1_554 S
C110 C111 1.363 . S
C110 H122 0.929 . S
C111 C110 1.363 . S
C111 N113 1.375 . S
C111 H129 0.931 . S
C112 N109 1.311 1_554 S
C112 N113 1.347 . S
C112 H123 0.929 1_554 S
N113 C111 1.375 . S
N113 C112 1.347 . S
C114 C117 1.365 1_556 S
C114 N119 1.328 . S
C114 H120 0.929 . S
C115 C116 1.362 . S
C115 C118 1.378 . S
C115 H130 0.929 . S
C116 C115 1.362 . S
C116 C117 1.366 . S
C117 C114 1.365 1_554 S
C117 C116 1.366 . S
C117 H131 0.930 . S
C118 C115 1.378 . S
C118 N119 1.315 1_554 S
C118 H121 0.930 . S
N119 Co99 2.194 . S
N119 C114 1.328 . S
N119 C118 1.315 1_556 S
H120 C114 0.929 . S
H121 C118 0.930 . S
H122 C110 0.929 . S
H123 C112 0.929 1_556 S
O124 Co99 2.351 . S
O124 C127 1.244 . S
O125 Co99 2.155 . S
O125 C127 1.240 . S
O126 Co99 2.096 . S
O126 C107 1.247 . S
C127 O124 1.244 . S
C127 O125 1.240 . S
H128 C102 0.931 . S
H129 C111 0.931 . S
H130 C115 0.929 . S
H131 C117 0.930 . S
Co132 N136 2.148 . S
Co132 N142 2.128 . S
Co132 N152 2.194 . S
Co132 O157 2.351 . S
Co132 O158 2.155 . S
Co132 O159 2.096 . S
C133 N136 1.301 . S
C133 N137 1.328 . S
C133 H138 0.930 . S
C134 C135 1.333 . S
C134 N136 1.317 . S
C134 H139 0.930 . S
C135 C134 1.333 . S
C135 N137 1.350 . S
C135 H161 0.931 . S
N136 Co132 2.148 . S
N136 C133 1.301 . S
N136 C134 1.317 . S
N137 C133 1.328 . S
N137 C135 1.350 . S
H138 C133 0.930 . S
H139 C134 0.930 . S
C140 O141 1.224 . S
C140 O159 1.247 . S
O141 C140 1.224 . S
N142 Co132 2.128 . S
N142 C143 1.355 . S
N142 C145 1.311 . S
C143 N142 1.355 . S
C143 C144 1.363 . S
C143 H155 0.929 . S
C144 C143 1.363 . S
C144 N146 1.375 . S
C144 H162 0.931 . S
C145 N142 1.311 . S
C145 N146 1.347 . S
C145 H156 0.929 . S
N146 C144 1.375 . S
N146 C145 1.347 . S
C147 C150 1.365 . S
C147 N152 1.328 . S
C147 H153 0.929 . S
C148 C149 1.362 . S
C148 C151 1.378 . S
C148 H163 0.929 . S
C149 C148 1.362 . S
C149 C150 1.366 . S
C150 C147 1.365 . S
C150 C149 1.366 . S
C150 H164 0.930 . S
C151 C148 1.378 . S
C151 N152 1.315 . S
C151 H154 0.930 . S
N152 Co132 2.194 . S
N152 C147 1.328 . S
N152 C151 1.315 . S
H153 C147 0.929 . S
H154 C151 0.930 . S
H155 C143 0.929 . S
H156 C145 0.929 . S
O157 Co132 2.351 . S
O157 C160 1.244 . S
O158 Co132 2.155 . S
O158 C160 1.240 . S
O159 Co132 2.096 . S
O159 C140 1.247 . S
C160 O157 1.244 . S
C160 O158 1.240 . S
H161 C135 0.931 . S
H162 C144 0.931 . S
H163 C148 0.929 . S
H164 C150 0.930 . S
Co165 N169 2.148 . S
Co165 N175 2.128 . S
Co165 N185 2.194 . S
Co165 O190 2.351 . S
Co165 O191 2.155 . S
Co165 O192 2.096 . S
C166 N169 1.301 . S
C166 N170 1.328 . S
C166 H171 0.930 . S
C167 C168 1.333 . S
C167 N169 1.317 . S
C167 H172 0.930 . S
C168 C167 1.333 . S
C168 N170 1.350 . S
C168 H194 0.931 . S
N169 Co165 2.148 . S
N169 C166 1.301 . S
N169 C167 1.317 . S
N170 C166 1.328 . S
N170 C168 1.350 . S
H171 C166 0.930 . S
H172 C167 0.930 . S
C173 O174 1.224 . S
C173 O192 1.247 . S
O174 C173 1.224 . S
N175 Co165 2.128 . S
N175 C176 1.355 . S
N175 C178 1.311 . S
C176 N175 1.355 . S
C176 C177 1.363 . S
C176 H188 0.929 . S
C177 C176 1.363 . S
C177 N179 1.375 . S
C177 H195 0.931 . S
C178 N175 1.311 . S
C178 N179 1.347 . S
C178 H189 0.929 . S
N179 C177 1.375 . S
N179 C178 1.347 . S
C180 C183 1.365 . S
C180 N185 1.328 . S
C180 H186 0.929 . S
C181 C182 1.362 . S
C181 C184 1.378 . S
C181 H196 0.929 . S
C182 C181 1.362 . S
C182 C183 1.366 . S
C183 C180 1.365 . S
C183 C182 1.366 . S
C183 H197 0.930 . S
C184 C181 1.378 . S
C184 N185 1.315 . S
C184 H187 0.930 . S
N185 Co165 2.194 . S
N185 C180 1.328 . S
N185 C184 1.315 . S
H186 C180 0.929 . S
H187 C184 0.930 . S
H188 C176 0.929 . S
H189 C178 0.929 . S
O190 Co165 2.351 . S
O190 C193 1.244 . S
O191 Co165 2.155 . S
O191 C193 1.240 . S
O192 Co165 2.096 . S
O192 C173 1.247 . S
C193 O190 1.244 . S
C193 O191 1.240 . S
H194 C168 0.931 . S
H195 C177 0.931 . S
H196 C181 0.929 . S
H197 C183 0.930 . S
H198 C204 0.930 . S
H199 C207 0.930 . S
H200 C208 0.930 . S
H201 C209 0.930 . S
H202 C212 0.930 . S
H203 C213 0.930 . S
C204 H198 0.930 . S
C204 C205 1.355 . S
C204 C206 1.415 . S
C205 C204 1.355 . S
C205 C207 1.419 . S
C206 C204 1.415 . S
C206 C211 1.425 . S
C206 C213 1.409 . S
C207 H199 0.930 . S
C207 C205 1.419 . S
C207 C208 1.362 . S
C208 H200 0.930 . S
C208 C207 1.362 . S
C208 C211 1.409 . S
C209 H201 0.930 . S
C209 C210 1.355 . S
C209 C211 1.415 . S
C210 C209 1.355 . S
C210 C212 1.419 . S
C211 C206 1.425 . S
C211 C208 1.409 . S
C211 C209 1.415 . S
C212 H202 0.930 . S
C212 C210 1.419 . S
C212 C213 1.362 . S
C213 H203 0.930 . S
C213 C206 1.409 . S
C213 C212 1.362 . S
H214 C220 0.930 . S
H215 C223 0.930 . S
H216 C224 0.930 . S
H217 C225 0.930 . S
H218 C228 0.930 . S
H219 C229 0.930 . S
C220 H214 0.930 . S
C220 C221 1.355 . S
C220 C222 1.415 . S
C221 C220 1.355 . S
C221 C223 1.419 . S
C222 C220 1.415 . S
C222 C227 1.425 . S
C222 C229 1.409 . S
C223 H215 0.930 . S
C223 C221 1.419 . S
C223 C224 1.362 . S
C224 H216 0.930 . S
C224 C223 1.362 . S
C224 C227 1.409 . S
C225 H217 0.930 . S
C225 C226 1.355 . S
C225 C227 1.415 . S
C226 C225 1.355 . S
C226 C228 1.419 . S
C227 C222 1.425 . S
C227 C224 1.409 . S
C227 C225 1.415 . S
C228 H218 0.930 . S
C228 C226 1.419 . S
C228 C229 1.362 . S
C229 H219 0.930 . S
C229 C222 1.409 . S
C229 C228 1.362 . S
H230 C236 0.930 . S
H231 C239 0.930 . S
H232 C240 0.930 . S
H233 C241 0.930 . S
H234 C244 0.930 . S
H235 C245 0.930 . S
C236 H230 0.930 . S
C236 C237 1.355 . S
C236 C238 1.415 . S
C237 C236 1.355 . S
C237 C239 1.419 . S
C238 C236 1.415 . S
C238 C243 1.425 . S
C238 C245 1.409 . S
C239 H231 0.930 . S
C239 C237 1.419 . S
C239 C240 1.362 . S
C240 H232 0.930 . S
C240 C239 1.362 . S
C240 C243 1.409 . S
C241 H233 0.930 . S
C241 C242 1.355 . S
C241 C243 1.415 . S
C242 C241 1.355 . S
C242 C244 1.419 . S
C243 C238 1.425 . S
C243 C240 1.409 . S
C243 C241 1.415 . S
C244 H234 0.930 . S
C244 C242 1.419 . S
C244 C245 1.362 . S
C245 H235 0.930 . S
C245 C238 1.409 . S
C245 C244 1.362 . S
H246 C252 0.930 . S
H247 C255 0.930 . S
H248 C256 0.930 . S
H249 C257 0.930 . S
H250 C260 0.930 . S
H251 C261 0.930 . S
C252 H246 0.930 . S
C252 C253 1.355 . S
C252 C254 1.415 . S
C253 C252 1.355 . S
C253 C255 1.419 . S
C254 C252 1.415 . S
C254 C259 1.425 . S
C254 C261 1.409 . S
C255 H247 0.930 . S
C255 C253 1.419 . S
C255 C256 1.362 . S
C256 H248 0.930 . S
C256 C255 1.362 . S
C256 C259 1.409 . S
C257 H249 0.930 . S
C257 C258 1.355 . S
C257 C259 1.415 . S
C258 C257 1.355 . S
C258 C260 1.419 . S
C259 C254 1.425 . S
C259 C256 1.409 . S
C259 C257 1.415 . S
C260 H250 0.930 . S
C260 C258 1.419 . S
C260 C261 1.362 . S
C261 H251 0.930 . S
C261 C254 1.409 . S
C261 C260 1.362 . S
H262 C268 0.930 . S
H263 C271 0.930 . S
H264 C272 0.930 . S
H265 C273 0.930 . S
H266 C276 0.930 . S
H267 C277 0.930 . S
C268 H262 0.930 . S
C268 C269 1.355 . S
C268 C270 1.415 . S
C269 C268 1.355 . S
C269 C271 1.419 . S
C270 C268 1.415 . S
C270 C275 1.425 . S
C270 C277 1.409 . S
C271 H263 0.930 . S
C271 C269 1.419 . S
C271 C272 1.362 . S
C272 H264 0.930 . S
C272 C271 1.362 . S
C272 C275 1.409 . S
C273 H265 0.930 . S
C273 C274 1.355 . S
C273 C275 1.415 . S
C274 C273 1.355 . S
C274 C276 1.419 . S
C275 C270 1.425 . S
C275 C272 1.409 . S
C275 C273 1.415 . S
C276 H266 0.930 . S
C276 C274 1.419 . S
C276 C277 1.362 . S
C277 H267 0.930 . S
C277 C270 1.409 . S
C277 C276 1.362 . S
H278 C284 0.930 . S
H279 C287 0.930 . S
H280 C288 0.930 . S
H281 C289 0.930 . S
H282 C292 0.930 . S
H283 C293 0.930 . S
C284 H278 0.930 . S
C284 C285 1.355 . S
C284 C286 1.415 . S
C285 C284 1.355 . S
C285 C287 1.419 . S
C286 C284 1.415 . S
C286 C291 1.425 . S
C286 C293 1.409 . S
C287 H279 0.930 . S
C287 C285 1.419 . S
C287 C288 1.362 . S
C288 H280 0.930 . S
C288 C287 1.362 . S
C288 C291 1.409 . S
C289 H281 0.930 . S
C289 C290 1.355 . S
C289 C291 1.415 . S
C290 C289 1.355 . S
C290 C292 1.419 . S
C291 C286 1.425 . S
C291 C288 1.409 . S
C291 C289 1.415 . S
C292 H282 0.930 . S
C292 C290 1.419 . S
C292 C293 1.362 . S
C293 H283 0.930 . S
C293 C286 1.409 . S
C293 C292 1.362 . S
H294 C300 0.930 . S
H295 C303 0.930 . S
H296 C304 0.930 . S
H297 C305 0.930 . S
H298 C308 0.930 . S
H299 C309 0.930 . S
C300 H294 0.930 . S
C300 C301 1.355 . S
C300 C302 1.415 1_655 S
C301 C300 1.355 . S
C301 C303 1.419 . S
C302 C300 1.415 1_455 S
C302 C307 1.425 1_455 S
C302 C309 1.409 . S
C303 H295 0.930 . S
C303 C301 1.419 . S
C303 C304 1.362 . S
C304 H296 0.930 . S
C304 C303 1.362 . S
C304 C307 1.409 . S
C305 H297 0.930 . S
C305 C306 1.355 . S
C305 C307 1.415 1_455 S
C306 C305 1.355 . S
C306 C308 1.419 . S
C307 C302 1.425 1_655 S
C307 C304 1.409 . S
C307 C305 1.415 1_655 S
C308 H298 0.930 . S
C308 C306 1.419 . S
C308 C309 1.362 . S
C309 H299 0.930 . S
C309 C302 1.409 . S
C309 C308 1.362 . S
H310 C316 0.930 . S
H311 C319 0.930 . S
H312 C320 0.930 . S
H313 C321 0.930 . S
H314 C324 0.930 . S
H315 C325 0.930 . S
C316 H310 0.930 . S
C316 C317 1.355 . S
C316 C318 1.415 . S
C317 C316 1.355 . S
C317 C319 1.419 . S
C318 C316 1.415 . S
C318 C323 1.425 . S
C318 C325 1.409 . S
C319 H311 0.930 . S
C319 C317 1.419 . S
C319 C320 1.362 . S
C320 H312 0.930 . S
C320 C319 1.362 . S
C320 C323 1.409 . S
C321 H313 0.930 . S
C321 C322 1.355 . S
C321 C323 1.415 . S
C322 C321 1.355 . S
C322 C324 1.419 . S
C323 C318 1.425 . S
C323 C320 1.409 . S
C323 C321 1.415 . S
C324 H314 0.930 . S
C324 C322 1.419 . S
C324 C325 1.362 . S
C325 H315 0.930 . S
C325 C318 1.409 . S
C325 C324 1.362 . S
H326 C332 0.930 . S
H327 C335 0.930 . S
H328 C336 0.930 . S
H329 C337 0.930 . S
H330 C340 0.930 . S
H331 C341 0.930 . S
C332 H326 0.930 . S
C332 C333 1.355 . S
C332 C334 1.415 . S
C333 C332 1.355 . S
C333 C335 1.419 . S
C334 C332 1.415 . S
C334 C339 1.425 1_545 S
C334 C341 1.409 . S
C335 H327 0.930 . S
C335 C333 1.419 . S
C335 C336 1.362 1_545 S
C336 H328 0.930 . S
C336 C335 1.362 1_565 S
C336 C339 1.409 . S
C337 H329 0.930 . S
C337 C338 1.355 . S
C337 C339 1.415 . S
C338 C337 1.355 . S
C338 C340 1.419 . S
C339 C334 1.425 1_565 S
C339 C336 1.409 . S
C339 C337 1.415 . S
C340 H330 0.930 . S
C340 C338 1.419 . S
C340 C341 1.362 1_565 S
C341 H331 0.930 . S
C341 C334 1.409 . S
C341 C340 1.362 1_545 S
H342 C348 0.930 1_554 S
H343 C351 0.930 . S
H344 C352 0.930 . S
H345 C353 0.930 1_556 S
H346 C356 0.930 . S
H347 C357 0.930 . S
C348 H342 0.930 1_556 S
C348 C349 1.355 . S
C348 C350 1.415 1_556 S
C349 C348 1.355 . S
C349 C351 1.419 . S
C350 C348 1.415 1_554 S
C350 C355 1.425 1_554 S
C350 C357 1.409 . S
C351 H343 0.930 . S
C351 C349 1.419 . S
C351 C352 1.362 . S
C352 H344 0.930 . S
C352 C351 1.362 . S
C352 C355 1.409 . S
C353 H345 0.930 1_554 S
C353 C354 1.355 . S
C353 C355 1.415 1_554 S
C354 C353 1.355 . S
C354 C356 1.419 . S
C355 C350 1.425 1_556 S
C355 C352 1.409 . S
C355 C353 1.415 1_556 S
C356 H346 0.930 . S
C356 C354 1.419 . S
C356 C357 1.362 . S
C357 H347 0.930 . S
C357 C350 1.409 . S
C357 C356 1.362 . S
H358 C364 0.930 . S
H359 C367 0.930 . S
H360 C368 0.930 . S
H361 C369 0.930 . S
H362 C372 0.930 . S
H363 C373 0.930 . S
C364 H358 0.930 . S
C364 C365 1.355 . S
C364 C366 1.415 . S
C365 C364 1.355 . S
C365 C367 1.419 . S
C366 C364 1.415 . S
C366 C371 1.425 1_545 S
C366 C373 1.409 1_545 S
C367 H359 0.930 . S
C367 C365 1.419 . S
C367 C368 1.362 . S
C368 H360 0.930 . S
C368 C367 1.362 . S
C368 C371 1.409 1_545 S
C369 H361 0.930 . S
C369 C370 1.355 . S
C369 C371 1.415 . S
C370 C369 1.355 . S
C370 C372 1.419 . S
C371 C366 1.425 1_565 S
C371 C368 1.409 1_565 S
C371 C369 1.415 . S
C372 H362 0.930 . S
C372 C370 1.419 . S
C372 C373 1.362 . S
C373 H363 0.930 . S
C373 C366 1.409 1_565 S
C373 C372 1.362 . S
H374 C380 0.930 . S
H375 C383 0.930 . S
H376 C384 0.930 . S
H377 C385 0.930 . S
H378 C388 0.930 . S
H379 C389 0.930 . S
C380 H374 0.930 . S
C380 C381 1.355 . S
C380 C382 1.415 . S
C381 C380 1.355 . S
C381 C383 1.419 . S
C382 C380 1.415 . S
C382 C387 1.425 1_455 S
C382 C389 1.409 1_455 S
C383 H375 0.930 . S
C383 C381 1.419 . S
C383 C384 1.362 . S
C384 H376 0.930 . S
C384 C383 1.362 . S
C384 C387 1.409 1_455 S
C385 H377 0.930 . S
C385 C386 1.355 . S
C385 C387 1.415 . S
C386 C385 1.355 . S
C386 C388 1.419 . S
C387 C382 1.425 1_655 S
C387 C384 1.409 1_655 S
C387 C385 1.415 . S
C388 H378 0.930 . S
C388 C386 1.419 . S
C388 C389 1.362 . S
C389 H379 0.930 . S
C389 C382 1.409 1_655 S
C389 C388 1.362 . S
H390 C396 0.930 1_455 S
H391 C399 0.930 . S
H392 C400 0.930 . S
H393 C401 0.930 1_655 S
H394 C404 0.930 . S
H395 C405 0.930 . S
C396 H390 0.930 1_655 S
C396 C397 1.355 . S
C396 C398 1.415 1_655 S
C397 C396 1.355 . S
C397 C399 1.419 . S
C398 C396 1.415 1_455 S
C398 C403 1.425 1_455 S
C398 C405 1.409 . S
C399 H391 0.930 . S
C399 C397 1.419 . S
C399 C400 1.362 . S
C400 H392 0.930 . S
C400 C399 1.362 . S
C400 C403 1.409 . S
C401 H393 0.930 1_455 S
C401 C402 1.355 . S
C401 C403 1.415 1_455 S
C402 C401 1.355 . S
C402 C404 1.419 . S
C403 C398 1.425 1_655 S
C403 C400 1.409 . S
C403 C401 1.415 1_655 S
C404 H394 0.930 . S
C404 C402 1.419 . S
C404 C405 1.362 . S
C405 H395 0.930 . S
C405 C398 1.409 . S
C405 C404 1.362 . S
H406 C412 0.930 . S
H407 C415 0.930 . S
H408 C416 0.930 . S
H409 C417 0.930 . S
H410 C420 0.930 . S
H411 C421 0.930 . S
C412 H406 0.930 . S
C412 C413 1.355 . S
C412 C414 1.415 . S
C413 C412 1.355 . S
C413 C415 1.419 . S
C414 C412 1.415 . S
C414 C419 1.425 1_556 S
C414 C421 1.409 . S
C415 H407 0.930 . S
C415 C413 1.419 . S
C415 C416 1.362 1_556 S
C416 H408 0.930 . S
C416 C415 1.362 1_554 S
C416 C419 1.409 . S
C417 H409 0.930 . S
C417 C418 1.355 . S
C417 C419 1.415 . S
C418 C417 1.355 . S
C418 C420 1.419 . S
C419 C414 1.425 1_554 S
C419 C416 1.409 . S
C419 C417 1.415 . S
C420 H410 0.930 . S
C420 C418 1.419 . S
C420 C421 1.362 1_554 S
C421 H411 0.930 . S
C421 C414 1.409 . S
C421 C420 1.362 1_556 S
H422 C428 0.930 1_565 S
H423 C431 0.930 . S
H424 C432 0.930 . S
H425 C433 0.930 1_545 S
H426 C436 0.930 . S
H427 C437 0.930 . S
C428 H422 0.930 1_545 S
C428 C429 1.355 . S
C428 C430 1.415 1_545 S
C429 C428 1.355 . S
C429 C431 1.419 . S
C430 C428 1.415 1_565 S
C430 C435 1.425 1_565 S
C430 C437 1.409 . S
C431 H423 0.930 . S
C431 C429 1.419 . S
C431 C432 1.362 . S
C432 H424 0.930 . S
C432 C431 1.362 . S
C432 C435 1.409 . S
C433 H425 0.930 1_565 S
C433 C434 1.355 . S
C433 C435 1.415 1_565 S
C434 C433 1.355 . S
C434 C436 1.419 . S
C435 C430 1.425 1_545 S
C435 C432 1.409 . S
C435 C433 1.415 1_545 S
C436 H426 0.930 . S
C436 C434 1.419 . S
C436 C437 1.362 . S
C437 H427 0.930 . S
C437 C430 1.409 . S
C437 C436 1.362 . S
C205 N80 1.166 . S
C210 C28 1.245 . S
C221 C61 1.271 . S
C226 N14 1.242 . S
C237 C94 1.250 . S
C242 N47 1.190 . S
C253 C127 1.273 . S
C258 N146 1.182 . S
C269 N179 1.146 . S
C274 C160 1.254 . S
C285 N113 1.167 . S
C290 C193 1.245 . S
C301 C149 0.784 . S
C306 C17 0.778 . S
C317 C182 0.788 . S
C322 C50 0.771 . S
C333 C116 0.784 . S
C338 C83 0.772 . S
C349 C107 1.831 . S
C354 C8 1.828 . S
C365 C140 1.782 . S
C370 C41 1.790 . S
C381 C74 1.790 . S
C386 C173 1.800 . S
C397 N137 1.947 . S
C402 N5 1.937 . S
C413 N38 1.944 . S
C418 N170 1.938 . S
C429 N104 1.940 . S
C434 N71 1.941 . S
