# Generated by pormake.
# Topology soi, (5)-cn, num edge types: 1
# Building blocks:
#     Node 0, Type 0, BuildingBlock: XOMCOT_clean_sbu_0, # of connection points: 5
#     Node 1, Type 0, BuildingBlock: XOMCOT_clean_sbu_0, # of connection points: 5
#     Node 2, Type 0, BuildingBlock: XOMCOT_clean_sbu_0, # of connection points: 5
#     Node 3, Type 0, BuildingBlock: XOMCOT_clean_sbu_0, # of connection points: 5
#     Node 4, Type 0, BuildingBlock: XOMCOT_clean_sbu_0, # of connection points: 5
#     Node 5, Type 0, BuildingBlock: XOMCOT_clean_sbu_0, # of connection points: 5
#     Node 6, Type 0, BuildingBlock: XOMCOT_clean_sbu_0, # of connection points: 5
#     Node 7, Type 0, BuildingBlock: XOMCOT_clean_sbu_0, # of connection points: 5
#     Node 8, Type 0, BuildingBlock: XOMCOT_clean_sbu_0, # of connection points: 5
#     Node 9, Type 0, BuildingBlock: XOMCOT_clean_sbu_0, # of connection points: 5
#     Node 10, Type 0, BuildingBlock: XOMCOT_clean_sbu_0, # of connection points: 5
#     Node 11, Type 0, BuildingBlock: XOMCOT_clean_sbu_0, # of connection points: 5
#     Node 12, Type 0, BuildingBlock: XOMCOT_clean_sbu_0, # of connection points: 5
#     Node 13, Type 0, BuildingBlock: XOMCOT_clean_sbu_0, # of connection points: 5
#     Node 14, Type 0, BuildingBlock: XOMCOT_clean_sbu_0, # of connection points: 5
#     Node 15, Type 0, BuildingBlock: XOMCOT_clean_sbu_0, # of connection points: 5
#     Edge 16, Type (0, 0), BuildingBlock: CIFDUS_clean_linker_0, # of connection points: 2
#     Edge 17, Type (0, 0), BuildingBlock: CIFDUS_clean_linker_0, # of connection points: 2
#     Edge 18, Type (0, 0), BuildingBlock: CIFDUS_clean_linker_0, # of connection points: 2
#     Edge 19, Type (0, 0), BuildingBlock: CIFDUS_clean_linker_0, # of connection points: 2
#     Edge 20, Type (0, 0), BuildingBlock: CIFDUS_clean_linker_0, # of connection points: 2
#     Edge 21, Type (0, 0), BuildingBlock: CIFDUS_clean_linker_0, # of connection points: 2
#     Edge 22, Type (0, 0), BuildingBlock: CIFDUS_clean_linker_0, # of connection points: 2
#     Edge 23, Type (0, 0), BuildingBlock: CIFDUS_clean_linker_0, # of connection points: 2
#     Edge 24, Type (0, 0), BuildingBlock: CIFDUS_clean_linker_0, # of connection points: 2
#     Edge 25, Type (0, 0), BuildingBlock: CIFDUS_clean_linker_0, # of connection points: 2
#     Edge 26, Type (0, 0), BuildingBlock: CIFDUS_clean_linker_0, # of connection points: 2
#     Edge 27, Type (0, 0), BuildingBlock: CIFDUS_clean_linker_0, # of connection points: 2
#     Edge 28, Type (0, 0), BuildingBlock: CIFDUS_clean_linker_0, # of connection points: 2
#     Edge 29, Type (0, 0), BuildingBlock: CIFDUS_clean_linker_0, # of connection points: 2
#     Edge 30, Type (0, 0), BuildingBlock: CIFDUS_clean_linker_0, # of connection points: 2
#     Edge 31, Type (0, 0), BuildingBlock: CIFDUS_clean_linker_0, # of connection points: 2
#     Edge 32, Type (0, 0), BuildingBlock: CIFDUS_clean_linker_0, # of connection points: 2
#     Edge 33, Type (0, 0), BuildingBlock: CIFDUS_clean_linker_0, # of connection points: 2
#     Edge 34, Type (0, 0), BuildingBlock: CIFDUS_clean_linker_0, # of connection points: 2
#     Edge 35, Type (0, 0), BuildingBlock: CIFDUS_clean_linker_0, # of connection points: 2
#     Edge 36, Type (0, 0), BuildingBlock: CIFDUS_clean_linker_0, # of connection points: 2
#     Edge 37, Type (0, 0), BuildingBlock: CIFDUS_clean_linker_0, # of connection points: 2
#     Edge 38, Type (0, 0), BuildingBlock: CIFDUS_clean_linker_0, # of connection points: 2
#     Edge 39, Type (0, 0), BuildingBlock: CIFDUS_clean_linker_0, # of connection points: 2
#     Edge 40, Type (0, 0), BuildingBlock: CIFDUS_clean_linker_0, # of connection points: 2
#     Edge 41, Type (0, 0), BuildingBlock: CIFDUS_clean_linker_0, # of connection points: 2
#     Edge 42, Type (0, 0), BuildingBlock: CIFDUS_clean_linker_0, # of connection points: 2
#     Edge 43, Type (0, 0), BuildingBlock: CIFDUS_clean_linker_0, # of connection points: 2
#     Edge 44, Type (0, 0), BuildingBlock: CIFDUS_clean_linker_0, # of connection points: 2
#     Edge 45, Type (0, 0), BuildingBlock: CIFDUS_clean_linker_0, # of connection points: 2
#     Edge 46, Type (0, 0), BuildingBlock: CIFDUS_clean_linker_0, # of connection points: 2
#     Edge 47, Type (0, 0), BuildingBlock: CIFDUS_clean_linker_0, # of connection points: 2
#     Edge 48, Type (0, 0), BuildingBlock: CIFDUS_clean_linker_0, # of connection points: 2
#     Edge 49, Type (0, 0), BuildingBlock: CIFDUS_clean_linker_0, # of connection points: 2
#     Edge 50, Type (0, 0), BuildingBlock: CIFDUS_clean_linker_0, # of connection points: 2
#     Edge 51, Type (0, 0), BuildingBlock: CIFDUS_clean_linker_0, # of connection points: 2
#     Edge 52, Type (0, 0), BuildingBlock: CIFDUS_clean_linker_0, # of connection points: 2
#     Edge 53, Type (0, 0), BuildingBlock: CIFDUS_clean_linker_0, # of connection points: 2
#     Edge 54, Type (0, 0), BuildingBlock: CIFDUS_clean_linker_0, # of connection points: 2
#     Edge 55, Type (0, 0), BuildingBlock: CIFDUS_clean_linker_0, # of connection points: 2
# Relax obj value: 0.112
# Max RMSD: 0.167
# Mean RMSD: 0.167
data_MOF--net-soi--node1-XOMCOT_clean_sbu_0--edge1-CIFDUS_clean_linker_0
_symmetry_space_group_name_H-M    P1
_symmetry_Int_Tables_number       1
_symmetry_cell_setting            triclinic
loop_
_symmetry_equiv_pos_as_xyz
'x, y, z'
_cell_length_a     44.193952
_cell_length_b     22.335726
_cell_length_c     59.294261
_cell_angle_alpha  90.015229
_cell_angle_beta   89.950091
_cell_angle_gamma 90.041643
loop_
_atom_site_label
_atom_site_type_symbol
_atom_site_fract_x
_atom_site_fract_y
_atom_site_fract_z
_atom_type_partial_charge
Co0 Co 0.31649 0.08512 0.14056 0.0
C1 C 0.32562 0.05256 0.1887 0.0
C2 C 0.29321 0.12332 0.18484 0.0
C3 C 0.29495 0.10856 0.20733 0.0
N4 N 0.31255 0.08847 0.17316 0.0
N5 N 0.31519 0.06383 0.20977 0.0
H6 H 0.3418 0.01791 0.18459 0.0
H7 H 0.27795 0.1557 0.17751 0.0
C8 C 0.30828 0.21131 0.12614 0.0
O9 O 0.33194 0.20551 0.11287 0.0
N10 N 0.31843 0.08061 0.10764 0.0
C11 C 0.33494 0.04305 0.09468 0.0
C12 C 0.3233 0.04244 0.07315 0.0
C13 C 0.29614 0.10003 0.09376 0.0
N14 N 0.2987 0.07796 0.07258 0.0
C15 C 0.38197 0.0891 0.13443 0.0
C16 C 0.38972 0.19592 0.15722 0.0
C17 C 0.41469 0.17096 0.14607 0.0
C18 C 0.41065 0.11579 0.13504 0.0
C19 C 0.36151 0.16837 0.1558 0.0
N20 N 0.35742 0.11742 0.14339 0.0
H21 H 0.37977 0.04553 0.12699 0.0
H22 H 0.34271 0.18894 0.16448 0.0
H23 H 0.35189 0.01232 0.10066 0.0
H24 H 0.27718 0.1265 0.09953 0.0
O25 O 0.32449 0.00011 0.14247 0.0
O26 O 0.27916 0.04249 0.13901 0.0
O27 O 0.29931 0.16766 0.13828 0.0
C28 C 0.29521 -0.00599 0.14071 0.0
H29 H 0.2811 0.12713 0.22067 0.0
H30 H 0.3307 0.01347 0.05959 0.0
H31 H 0.3918 0.2366 0.16703 0.0
H32 H 0.42927 0.09356 0.12665 0.0
Co33 Co 0.68438 0.37775 0.14676 0.0
C34 C 0.67631 0.4054 0.19598 0.0
C35 C 0.70502 0.32939 0.19036 0.0
C36 C 0.70347 0.33994 0.21315 0.0
N37 N 0.68774 0.36986 0.17948 0.0
N38 N 0.68555 0.38781 0.21677 0.0
H39 H 0.662 0.4438 0.19285 0.0
H40 H 0.71865 0.29529 0.18238 0.0
C41 C 0.69186 0.25257 0.13043 0.0
O42 O 0.66824 0.25973 0.11724 0.0
N43 N 0.68308 0.38677 0.11383 0.0
C44 C 0.66757 0.42776 0.10172 0.0
C45 C 0.67861 0.42921 0.08 0.0
C46 C 0.70441 0.36622 0.09926 0.0
N47 N 0.70195 0.39067 0.0784 0.0
C48 C 0.6191 0.37559 0.13927 0.0
C49 C 0.61001 0.26711 0.16062 0.0
C50 C 0.58563 0.29326 0.14918 0.0
C51 C 0.59032 0.34925 0.13891 0.0
C52 C 0.63836 0.29434 0.16017 0.0
N53 N 0.64315 0.34628 0.1485 0.0
H54 H 0.62176 0.41952 0.13225 0.0
H55 H 0.65673 0.27246 0.16884 0.0
H56 H 0.65171 0.45972 0.10846 0.0
H57 H 0.72258 0.33669 0.10424 0.0
O58 O 0.6769 0.46255 0.1501 0.0
O59 O 0.72203 0.41923 0.14653 0.0
O60 O 0.70102 0.29514 0.14302 0.0
C61 C 0.70628 0.46788 0.14899 0.0
H62 H 0.71578 0.3158 0.22604 0.0
H63 H 0.67168 0.46031 0.067 0.0
H64 H 0.60741 0.22559 0.16984 0.0
H65 H 0.57215 0.37231 0.13032 0.0
Co66 Co 0.32512 0.8882 0.40019 0.0
C67 C 0.32526 0.93404 0.35291 0.0
C68 C 0.30975 0.84317 0.35469 0.0
C69 C 0.3097 0.86081 0.33247 0.0
N70 N 0.31947 0.88905 0.36761 0.0
N71 N 0.3194 0.91795 0.33133 0.0
H72 H 0.33389 0.97747 0.35778 0.0
H73 H 0.30315 0.79948 0.36075 0.0
C74 C 0.3094 0.76457 0.41553 0.0
O75 O 0.33157 0.76483 0.43028 0.0
N76 N 0.33028 0.88773 0.43289 0.0
C77 C 0.35537 0.89865 0.44516 0.0
C78 C 0.34795 0.8973 0.46772 0.0
C79 C 0.30789 0.88091 0.44828 0.0
N80 N 0.31806 0.88611 0.46973 0.0
C81 C 0.3899 0.89484 0.39617 0.0
C82 C 0.39894 0.77597 0.38502 0.0
C83 C 0.42401 0.81345 0.38744 0.0
C84 C 0.41934 0.87396 0.39253 0.0
C85 C 0.36998 0.7989 0.3883 0.0
N86 N 0.36572 0.85678 0.39514 0.0
H87 H 0.3866 0.94151 0.40023 0.0
H88 H 0.3512 0.76976 0.38477 0.0
H89 H 0.37751 0.90849 0.43855 0.0
H90 H 0.28461 0.87203 0.44376 0.0
O91 O 0.33291 0.9738 0.40024 0.0
O92 O 0.28806 0.9299 0.40413 0.0
O93 O 0.30606 0.80751 0.40169 0.0
C94 C 0.3038 0.97878 0.40352 0.0
H95 H 0.30243 0.83392 0.31828 0.0
H96 H 0.36332 0.90595 0.48154 0.0
H97 H 0.4017 0.72952 0.38016 0.0
H98 H 0.43828 0.90451 0.39407 0.0
Co99 Co 0.69008 0.60782 0.39576 0.0
C100 C 0.68195 0.57339 0.34727 0.0
C101 C 0.71024 0.65082 0.35149 0.0
C102 C 0.7079 0.63861 0.32886 0.0
N103 N 0.69381 0.61041 0.3631 0.0
N104 N 0.69015 0.59 0.32611 0.0
H105 H 0.66768 0.53536 0.35114 0.0
H106 H 0.72355 0.68633 0.3589 0.0
C107 C 0.6928 0.7339 0.41144 0.0
O108 O 0.67073 0.72408 0.42584 0.0
N109 N 0.68791 0.60547 0.42878 0.0
C110 C 0.66651 0.58325 0.44273 0.0
C111 C 0.67722 0.58475 0.4646 0.0
C112 C 0.71135 0.61949 0.44251 0.0
N113 N 0.70556 0.60722 0.46445 0.0
C114 C 0.62587 0.58257 0.39684 0.0
C115 C 0.6081 0.69522 0.38289 0.0
C116 C 0.58568 0.65411 0.38931 0.0
C117 C 0.59497 0.59622 0.39561 0.0
C118 C 0.63844 0.67919 0.38386 0.0
N119 N 0.64716 0.62531 0.39254 0.0
H120 H 0.6327 0.53789 0.40159 0.0
H121 H 0.65487 0.71089 0.37769 0.0
H122 H 0.64507 0.5647 0.43773 0.0
H123 H 0.73257 0.63736 0.43637 0.0
O124 O 0.68973 0.52135 0.39523 0.0
O125 O 0.73047 0.57959 0.39781 0.0
O126 O 0.70107 0.69382 0.39751 0.0
C127 C 0.71902 0.52621 0.3977 0.0
H128 H 0.71922 0.6627 0.31544 0.0
H129 H 0.66554 0.56768 0.47931 0.0
H130 H 0.60261 0.74027 0.37761 0.0
H131 H 0.57863 0.56171 0.39964 0.0
Co132 Co 0.67999 0.87978 0.90348 0.0
C133 C 0.67063 0.92063 0.8559 0.0
C134 C 0.69577 0.83906 0.85753 0.0
C135 C 0.69466 0.85723 0.83543 0.0
N136 N 0.6797 0.8774 0.87047 0.0
N137 N 0.67891 0.90867 0.83438 0.0
H138 H 0.65997 0.96197 0.86103 0.0
H139 H 0.70971 0.80299 0.86372 0.0
C140 C 0.67768 0.74863 0.89469 0.0
O141 O 0.65346 0.75604 0.88215 0.0
N142 N 0.68201 0.88338 0.93606 0.0
C143 C 0.66342 0.91395 0.94989 0.0
C144 C 0.67566 0.91394 0.97125 0.0
C145 C 0.70547 0.86595 0.94904 0.0
N146 N 0.70223 0.88413 0.97067 0.0
C147 C 0.61602 0.89484 0.89333 0.0
C148 C 0.59713 0.80161 0.92061 0.0
C149 C 0.57591 0.82974 0.90668 0.0
C150 C 0.58545 0.87828 0.89343 0.0
C151 C 0.62729 0.81923 0.91987 0.0
N152 N 0.63677 0.86319 0.90547 0.0
H153 H 0.62285 0.93274 0.8834 0.0
H154 H 0.64332 0.79604 0.93048 0.0
H155 H 0.64317 0.93716 0.94458 0.0
H156 H 0.72507 0.84266 0.94251 0.0
O157 O 0.67994 0.96613 0.90286 0.0
O158 O 0.72067 0.90732 0.90221 0.0
O159 O 0.68988 0.79285 0.90476 0.0
C160 C 0.7094 0.96091 0.90286 0.0
H161 H 0.70666 0.83677 0.8215 0.0
H162 H 0.66658 0.93726 0.98575 0.0
H163 H 0.59061 0.76557 0.93184 0.0
H164 H 0.56968 0.90224 0.88278 0.0
Co165 Co 0.31681 0.58592 0.90307 0.0
C166 C 0.32797 0.54583 0.8556 0.0
C167 C 0.2973 0.6197 0.85732 0.0
C168 C 0.29919 0.60137 0.83529 0.0
N169 N 0.3163 0.58668 0.87011 0.0
N170 N 0.31842 0.55482 0.83423 0.0
H171 H 0.34156 0.50796 0.8606 0.0
H172 H 0.28126 0.65209 0.86363 0.0
C173 C 0.31289 0.71561 0.89286 0.0
O174 O 0.33694 0.70886 0.88005 0.0
N175 N 0.31548 0.58378 0.93561 0.0
C176 C 0.33542 0.55726 0.94954 0.0
C177 C 0.32356 0.55739 0.97104 0.0
C178 C 0.29172 0.5991 0.94866 0.0
N179 N 0.29597 0.58339 0.97046 0.0
C180 C 0.38083 0.58261 0.89297 0.0
C181 C 0.39602 0.68079 0.91904 0.0
C182 C 0.41849 0.65345 0.90593 0.0
C183 C 0.41072 0.6029 0.89315 0.0
C184 C 0.36647 0.65904 0.91835 0.0
N185 N 0.3588 0.61244 0.90451 0.0
H186 H 0.37562 0.54257 0.88374 0.0
H187 H 0.34949 0.68054 0.92868 0.0
H188 H 0.35644 0.53682 0.94424 0.0
H189 H 0.27133 0.61932 0.94207 0.0
O190 O 0.32317 0.50067 0.90272 0.0
O191 O 0.27833 0.54615 0.90238 0.0
O192 O 0.30179 0.67104 0.90359 0.0
C193 C 0.29377 0.49653 0.90244 0.0
H194 H 0.28579 0.61819 0.8214 0.0
H195 H 0.3338 0.53682 0.98568 0.0
H196 H 0.40123 0.71851 0.92984 0.0
H197 H 0.42746 0.57955 0.88313 0.0
Co198 Co 0.68826 0.10069 0.64674 0.0
C199 C 0.67878 0.05673 0.69376 0.0
C200 C 0.70683 0.13505 0.69287 0.0
C201 C 0.7041 0.11668 0.7149 0.0
N202 N 0.69089 0.09763 0.67952 0.0
N203 N 0.68659 0.06729 0.71547 0.0
H204 H 0.66481 0.01957 0.68843 0.0
H205 H 0.72013 0.17272 0.68718 0.0
C206 C 0.71366 0.21842 0.63369 0.0
O207 O 0.69098 0.22306 0.61948 0.0
N208 N 0.68719 0.10278 0.61382 0.0
C209 C 0.66409 0.09786 0.59907 0.0
C210 C 0.67565 0.09767 0.57743 0.0
C211 C 0.71236 0.1042 0.60085 0.0
N212 N 0.70609 0.10172 0.57856 0.0
C213 C 0.6249 0.12864 0.64414 0.0
C214 C 0.62887 0.24299 0.66179 0.0
C215 C 0.60087 0.22214 0.6542 0.0
C216 C 0.59885 0.16361 0.64583 0.0
C217 C 0.65423 0.20609 0.66015 0.0
N218 N 0.65253 0.15128 0.64987 0.0
H219 H 0.62278 0.08318 0.63819 0.0
H220 H 0.67516 0.22208 0.66724 0.0
H221 H 0.6405 0.09358 0.60325 0.0
H222 H 0.73495 0.10585 0.60782 0.0
O223 O 0.66871 0.02319 0.64614 0.0
O224 O 0.71839 0.03909 0.64443 0.0
O225 O 0.71623 0.17211 0.64618 0.0
C226 C 0.69587 0.00155 0.64423 0.0
H227 H 0.71524 0.13675 0.7293 0.0
H228 H 0.66248 0.09487 0.56209 0.0
H229 H 0.63105 0.28704 0.66928 0.0
H230 H 0.57738 0.14525 0.64035 0.0
Co231 Co 0.33308 0.38974 0.6445 0.0
C232 C 0.32859 0.4243 0.6927 0.0
C233 C 0.34755 0.33672 0.68857 0.0
C234 C 0.34831 0.35149 0.71116 0.0
N235 N 0.3352 0.3825 0.67703 0.0
N236 N 0.33652 0.40684 0.71369 0.0
H237 H 0.31876 0.46726 0.68886 0.0
H238 H 0.35663 0.29652 0.68098 0.0
C239 C 0.29755 0.29658 0.64474 0.0
O240 O 0.32619 0.28333 0.6416 0.0
N241 N 0.33126 0.39809 0.612 0.0
C242 C 0.34933 0.43428 0.59977 0.0
C243 C 0.34008 0.43299 0.57768 0.0
C244 C 0.31088 0.37591 0.5972 0.0
N245 N 0.31588 0.39645 0.57606 0.0
C246 C 0.39366 0.42574 0.6571 0.0
C247 C 0.41942 0.32989 0.63444 0.0
C248 C 0.43678 0.36184 0.65002 0.0
C249 C 0.42421 0.41186 0.66081 0.0
C250 C 0.38926 0.34488 0.63138 0.0
N251 N 0.37655 0.39052 0.64327 0.0
H252 H 0.38317 0.46141 0.66663 0.0
H253 H 0.37534 0.31706 0.62066 0.0
H254 H 0.36746 0.4613 0.60659 0.0
H255 H 0.29249 0.34639 0.60176 0.0
O256 O 0.3275 0.47752 0.64675 0.0
O257 O 0.2895 0.41926 0.64627 0.0
O258 O 0.291 0.35307 0.64572 0.0
C259 C 0.29895 0.47404 0.64676 0.0
H260 H 0.35802 0.32455 0.72448 0.0
H261 H 0.34964 0.45909 0.56404 0.0
H262 H 0.42856 0.29103 0.62587 0.0
H263 H 0.43715 0.43709 0.67306 0.0
Co264 Co 0.82117 0.62545 0.64743 0.0
C265 C 0.82376 0.5906 0.69615 0.0
C266 C 0.83123 0.68448 0.69085 0.0
C267 C 0.83328 0.67274 0.71361 0.0
N268 N 0.82521 0.6331 0.67989 0.0
N269 N 0.82859 0.61365 0.71699 0.0
H270 H 0.81994 0.54362 0.69284 0.0
H271 H 0.83419 0.72752 0.6828 0.0
C272 C 0.77391 0.70192 0.64906 0.0
O273 O 0.79848 0.73369 0.64549 0.0
N274 N 0.81716 0.61722 0.61478 0.0
C275 C 0.83663 0.58764 0.6013 0.0
C276 C 0.82496 0.58543 0.57979 0.0
C277 C 0.79363 0.63193 0.60122 0.0
N278 N 0.79782 0.61312 0.57969 0.0
C279 C 0.88531 0.60455 0.65532 0.0
C280 C 0.90067 0.71007 0.63345 0.0
C281 C 0.92329 0.67879 0.64507 0.0
C282 C 0.91544 0.62474 0.65589 0.0
C283 C 0.87127 0.68847 0.63328 0.0
N284 N 0.86391 0.63711 0.64425 0.0
H285 H 0.87888 0.56467 0.6645 0.0
H286 H 0.8537 0.71455 0.62527 0.0
H287 H 0.85746 0.56707 0.60689 0.0
H288 H 0.7735 0.65461 0.60697 0.0
O289 O 0.82025 0.53603 0.64957 0.0
O290 O 0.78004 0.58891 0.65094 0.0
O291 O 0.77653 0.64462 0.65048 0.0
C292 C 0.7915 0.5359 0.65074 0.0
H293 H 0.83764 0.7055 0.72665 0.0
H294 H 0.83514 0.56267 0.56557 0.0
H295 H 0.90517 0.75269 0.62542 0.0
H296 H 0.93219 0.59913 0.66506 0.0
Co297 Co 0.18355 0.88961 0.64064 0.0
C298 C 0.18082 0.91157 0.6903 0.0
C299 C 0.16947 0.82103 0.68171 0.0
C300 C 0.16672 0.82796 0.70474 0.0
N301 N 0.17834 0.87344 0.67264 0.0
N302 N 0.17383 0.88499 0.71016 0.0
H303 H 0.18655 0.95839 0.68866 0.0
H304 H 0.16478 0.78077 0.67221 0.0
C305 C 0.21979 0.79782 0.63882 0.0
O306 O 0.19226 0.7855 0.6319 0.0
N307 N 0.18863 0.90768 0.60874 0.0
C308 C 0.17263 0.95019 0.59793 0.0
C309 C 0.18201 0.953 0.5759 0.0
C310 C 0.20805 0.88568 0.5931 0.0
N311 N 0.20423 0.91249 0.57277 0.0
C312 C 0.12034 0.9127 0.6513 0.0
C313 C 0.10003 0.83289 0.61884 0.0
C314 C 0.07939 0.85578 0.63447 0.0
C315 C 0.08958 0.89683 0.65074 0.0
C316 C 0.13034 0.84833 0.62042 0.0
N317 N 0.14025 0.88699 0.63659 0.0
H318 H 0.12842 0.94287 0.66422 0.0
H319 H 0.1463 0.82694 0.60921 0.0
H320 H 0.15539 0.97774 0.60567 0.0
H321 H 0.22452 0.851 0.59639 0.0
O322 O 0.18778 0.97662 0.6466 0.0
O323 O 0.22634 0.91975 0.64592 0.0
O324 O 0.22558 0.85361 0.64297 0.0
C325 C 0.21634 0.97387 0.64782 0.0
H326 H 0.15996 0.79349 0.71654 0.0
H327 H 0.17357 0.98371 0.56327 0.0
H328 H 0.09306 0.80055 0.60624 0.0
H329 H 0.07412 0.91529 0.66309 0.0
Co330 Co 0.81527 0.38783 0.89515 0.0
C331 C 0.81746 0.42607 0.8465 0.0
C332 C 0.81153 0.3313 0.85021 0.0
C333 C 0.81107 0.34496 0.82763 0.0
N334 N 0.8154 0.38203 0.86222 0.0
N335 N 0.8146 0.40457 0.82521 0.0
H336 H 0.82006 0.47305 0.85045 0.0
H337 H 0.80878 0.28699 0.85719 0.0
C338 C 0.79878 0.26687 0.91231 0.0
O339 O 0.81923 0.27021 0.92833 0.0
N340 N 0.81417 0.39362 0.92809 0.0
C341 C 0.83676 0.40512 0.94276 0.0
C342 C 0.82513 0.40588 0.96437 0.0
C343 C 0.78906 0.38848 0.9411 0.0
N344 N 0.79509 0.3954 0.96335 0.0
C345 C 0.88015 0.39788 0.89739 0.0
C346 C 0.89276 0.27857 0.88932 0.0
C347 C 0.91679 0.31836 0.89239 0.0
C348 C 0.91032 0.37894 0.89617 0.0
C349 C 0.86309 0.29948 0.89021 0.0
N350 N 0.85686 0.35803 0.89516 0.0
H351 H 0.87554 0.44474 0.90023 0.0
H352 H 0.84547 0.26816 0.88615 0.0
H353 H 0.86008 0.41313 0.9384 0.0
H354 H 0.76684 0.37893 0.93435 0.0
O355 O 0.82223 0.47347 0.89361 0.0
O356 O 0.77748 0.42794 0.89396 0.0
O357 O 0.79681 0.30681 0.89712 0.0
C358 C 0.79275 0.47741 0.89342 0.0
H359 H 0.80827 0.31316 0.81401 0.0
H360 H 0.8378 0.41495 0.9796 0.0
H361 H 0.89688 0.23185 0.88547 0.0
H362 H 0.92838 0.41127 0.89826 0.0
Co363 Co 0.18013 0.08652 0.89272 0.0
C364 C 0.17902 0.05458 0.84349 0.0
C365 C 0.18735 0.14805 0.84896 0.0
C366 C 0.18901 0.13677 0.82623 0.0
N367 N 0.18112 0.09663 0.85997 0.0
N368 N 0.18404 0.07795 0.82272 0.0
H369 H 0.17516 0.00749 0.8466 0.0
H370 H 0.19121 0.19108 0.85674 0.0
C371 C 0.19005 0.20746 0.91235 0.0
O372 O 0.16839 0.19626 0.92695 0.0
N373 N 0.18074 0.07637 0.92543 0.0
C374 C 0.15928 0.05711 0.93995 0.0
C375 C 0.17149 0.05483 0.96137 0.0
C376 C 0.2057 0.08444 0.93828 0.0
N377 N 0.20074 0.07192 0.96027 0.0
C378 C 0.11524 0.07463 0.89627 0.0
C379 C 0.10169 0.19312 0.88764 0.0
C380 C 0.0779 0.15411 0.89309 0.0
C381 C 0.08503 0.09354 0.8968 0.0
C382 C 0.13131 0.172 0.88675 0.0
N383 N 0.13818 0.11443 0.89263 0.0
H384 H 0.12018 0.02787 0.89905 0.0
H385 H 0.14859 0.20285 0.88141 0.0
H386 H 0.13655 0.04417 0.93563 0.0
H387 H 0.22713 0.09959 0.93153 0.0
O388 O 0.17363 0.00128 0.8895 0.0
O389 O 0.21837 0.04638 0.89139 0.0
O390 O 0.19668 0.16952 0.89701 0.0
C391 C 0.20304 -0.00313 0.88999 0.0
H392 H 0.19388 0.16954 0.81328 0.0
H393 H 0.15994 0.03988 0.97645 0.0
H394 H 0.09781 0.24014 0.88438 0.0
H395 H 0.06752 0.06073 0.9 0.0
Co396 Co 0.18792 0.37932 0.40925 0.0
C397 C 0.18348 0.42082 0.3621 0.0
C398 C 0.21283 0.34464 0.36503 0.0
C399 C 0.2121 0.36227 0.34278 0.0
N400 N 0.19479 0.38125 0.37707 0.0
N401 N 0.19373 0.41025 0.34097 0.0
H402 H 0.16822 0.45676 0.36661 0.0
H403 H 0.22615 0.30845 0.37192 0.0
C404 C 0.19238 0.25123 0.42309 0.0
O405 O 0.16952 0.25751 0.43707 0.0
N406 N 0.18183 0.37786 0.44176 0.0
C407 C 0.15839 0.39773 0.4543 0.0
C408 C 0.16627 0.39508 0.47676 0.0
C409 C 0.20361 0.36403 0.45684 0.0
N410 N 0.19482 0.37422 0.47831 0.0
C411 C 0.12421 0.40395 0.40592 0.0
C412 C 0.10733 0.2902 0.39266 0.0
C413 C 0.08461 0.33208 0.39757 0.0
C414 C 0.09351 0.39051 0.40336 0.0
C415 C 0.13763 0.30607 0.3949 0.0
N416 N 0.14568 0.36067 0.40332 0.0
H417 H 0.13066 0.44884 0.41071 0.0
H418 H 0.15444 0.27373 0.38996 0.0
H419 H 0.13749 0.41576 0.44798 0.0
H420 H 0.2258 0.34808 0.45201 0.0
O421 O 0.18652 0.46593 0.40996 0.0
O422 O 0.22766 0.4097 0.41423 0.0
O423 O 0.20024 0.2936 0.40999 0.0
C424 C 0.21554 0.46247 0.41379 0.0
H425 H 0.22498 0.34259 0.32913 0.0
H426 H 0.15261 0.4106 0.49073 0.0
H427 H 0.10206 0.24476 0.38772 0.0
H428 H 0.07701 0.42549 0.40619 0.0
Co429 Co 0.82214 0.10322 0.39818 0.0
C430 C 0.83124 0.07425 0.34961 0.0
C431 C 0.80924 0.15901 0.35411 0.0
C432 C 0.81266 0.14885 0.3314 0.0
N433 N 0.82087 0.11228 0.3656 0.0
N434 N 0.82641 0.09554 0.32855 0.0
H435 H 0.84203 0.0319 0.35326 0.0
H436 H 0.79861 0.19789 0.36148 0.0
C437 C 0.80551 0.22188 0.41729 0.0
O438 O 0.82697 0.21886 0.43256 0.0
N439 N 0.82242 0.09442 0.43092 0.0
C440 C 0.84555 0.08588 0.44543 0.0
C441 C 0.83407 0.082 0.46705 0.0
C442 C 0.79732 0.09498 0.44398 0.0
N443 N 0.80372 0.08753 0.46606 0.0
C444 C 0.88687 0.09624 0.39952 0.0
C445 C 0.89755 0.21541 0.38966 0.0
C446 C 0.92211 0.17689 0.39258 0.0
C447 C 0.91665 0.11643 0.39725 0.0
C448 C 0.86823 0.19319 0.3916 0.0
N449 N 0.86309 0.13487 0.39749 0.0
H450 H 0.88292 0.04942 0.40298 0.0
H451 H 0.84987 0.22292 0.38755 0.0
H452 H 0.86913 0.08256 0.44101 0.0
H453 H 0.77474 0.10192 0.43744 0.0
O454 O 0.83017 0.01833 0.39521 0.0
O455 O 0.78485 0.06133 0.39737 0.0
O456 O 0.8031 0.18286 0.40183 0.0
C457 C 0.8008 0.01283 0.39614 0.0
H458 H 0.80463 0.17764 0.318 0.0
H459 H 0.84705 0.07468 0.48228 0.0
H460 H 0.901 0.26198 0.38522 0.0
H461 H 0.93521 0.08523 0.39927 0.0
Co462 Co 0.18196 0.58389 0.15134 0.0
C463 C 0.17729 0.5449 0.19909 0.0
C464 C 0.19822 0.63126 0.19628 0.0
C465 C 0.198 0.61479 0.21864 0.0
N466 N 0.18518 0.58748 0.18398 0.0
N467 N 0.18503 0.56033 0.22038 0.0
H468 H 0.16665 0.50294 0.19461 0.0
H469 H 0.20811 0.67175 0.18956 0.0
C470 C 0.18832 0.70862 0.13518 0.0
O471 O 0.16497 0.69913 0.12193 0.0
N472 N 0.18036 0.58003 0.11848 0.0
C473 C 0.15977 0.55592 0.10432 0.0
C474 C 0.1714 0.55629 0.08272 0.0
C475 C 0.20428 0.59364 0.10522 0.0
N476 N 0.1995 0.57974 0.08335 0.0
C477 C 0.1172 0.57183 0.14855 0.0
C478 C 0.10375 0.68421 0.16518 0.0
C479 C 0.08008 0.64828 0.15713 0.0
C480 C 0.08708 0.59057 0.14933 0.0
C481 C 0.1335 0.66388 0.16381 0.0
N482 N 0.14012 0.61005 0.15403 0.0
H483 H 0.12207 0.52646 0.14349 0.0
H484 H 0.15118 0.69179 0.17065 0.0
H485 H 0.13845 0.53632 0.10898 0.0
H486 H 0.22516 0.6121 0.11173 0.0
O487 O 0.1761 0.49842 0.15267 0.0
O488 O 0.2205 0.54484 0.14986 0.0
O489 O 0.19728 0.6681 0.14878 0.0
C490 C 0.20541 0.49492 0.15078 0.0
H491 H 0.20799 0.63973 0.23241 0.0
H492 H 0.16057 0.5376 0.06795 0.0
H493 H 0.09939 0.72767 0.17259 0.0
H494 H 0.06958 0.56033 0.14353 0.0
Co495 Co 0.8192 0.87937 0.15024 0.0
C496 C 0.83059 0.90688 0.19948 0.0
C497 C 0.7962 0.84093 0.19409 0.0
C498 C 0.7983 0.85133 0.21678 0.0
N499 N 0.81724 0.87373 0.18309 0.0
N500 N 0.8199 0.89275 0.22023 0.0
H501 H 0.84643 0.94273 0.19645 0.0
H502 H 0.77915 0.81346 0.1861 0.0
C503 C 0.81527 0.74882 0.15859 0.0
O504 O 0.83825 0.7544 0.1725 0.0
N505 N 0.81894 0.88492 0.11773 0.0
C506 C 0.83905 0.91205 0.10406 0.0
C507 C 0.82746 0.91237 0.08242 0.0
C508 C 0.79546 0.86964 0.10444 0.0
N509 N 0.79992 0.88608 0.08277 0.0
C510 C 0.88298 0.88872 0.15997 0.0
C511 C 0.90003 0.78856 0.13569 0.0
C512 C 0.92185 0.8192 0.14829 0.0
C513 C 0.91329 0.87097 0.15999 0.0
C514 C 0.87015 0.80839 0.13588 0.0
N515 N 0.86154 0.85542 0.14919 0.0
H516 H 0.87695 0.92974 0.16832 0.0
H517 H 0.85377 0.78521 0.12555 0.0
H518 H 0.86001 0.93232 0.10957 0.0
H519 H 0.77507 0.8487 0.11077 0.0
O520 O 0.82444 0.96469 0.15219 0.0
O521 O 0.78021 0.91704 0.15072 0.0
O522 O 0.80512 0.79414 0.14788 0.0
C523 C 0.79502 0.96737 0.15153 0.0
H524 H 0.78367 0.83273 0.22965 0.0
H525 H 0.83779 0.93324 0.06785 0.0
H526 H 0.90606 0.74978 0.12567 0.0
H527 H 0.92974 0.89698 0.16934 0.0
H528 H 0.23952 0.96966 0.12516 0.0
H529 H 0.31762 0.88717 0.15572 0.0
H530 H 0.291 0.79088 0.15693 0.0
H531 H 0.24512 0.73142 0.14991 0.0
H532 H 0.16785 0.81427 0.11819 0.0
H533 H 0.19466 0.90983 0.11687 0.0
C534 C 0.25072 0.93058 0.1321 0.0
C535 C 0.28032 0.93525 0.1405 0.0
C536 C 0.23543 0.87583 0.13259 0.0
C537 C 0.29481 0.88433 0.14914 0.0
C538 C 0.27958 0.82952 0.1499 0.0
C539 C 0.23413 0.77049 0.14279 0.0
C540 C 0.20449 0.76611 0.13433 0.0
C541 C 0.24981 0.82494 0.14181 0.0
C542 C 0.19065 0.81667 0.12482 0.0
C543 C 0.20593 0.87124 0.12408 0.0
H544 H 0.76487 0.48633 0.15851 0.0
H545 H 0.68203 0.57918 0.14256 0.0
H546 H 0.70907 0.67506 0.14323 0.0
H547 H 0.75639 0.73159 0.1482 0.0
H548 H 0.8384 0.63804 0.16595 0.0
H549 H 0.81147 0.54251 0.16453 0.0
C550 C 0.75272 0.52755 0.15516 0.0
C551 C 0.72163 0.52601 0.15036 0.0
C552 C 0.76826 0.58197 0.15578 0.0
C553 C 0.70601 0.57959 0.14634 0.0
C554 C 0.72146 0.63419 0.14663 0.0
C555 C 0.76836 0.69017 0.15157 0.0
C556 C 0.79931 0.69141 0.15698 0.0
C557 C 0.75261 0.63578 0.15123 0.0
C558 C 0.81455 0.63785 0.16174 0.0
C559 C 0.7992 0.5834 0.16094 0.0
H560 H 0.2505 -0.00493 0.42404 0.0
H561 H 0.32303 0.09052 0.39105 0.0
H562 H 0.29457 0.18433 0.39471 0.0
H563 H 0.24835 0.23704 0.40583 0.0
H564 H 0.17615 0.14114 0.43918 0.0
H565 H 0.20551 0.0485 0.43682 0.0
C566 C 0.26011 0.03644 0.41764 0.0
C567 C 0.28856 0.03623 0.40703 0.0
C568 C 0.24371 0.08948 0.41979 0.0
C569 C 0.3011 0.08999 0.39923 0.0
C570 C 0.28481 0.14331 0.40125 0.0
C571 C 0.23894 0.19582 0.41252 0.0
C572 C 0.20995 0.19549 0.42238 0.0
C573 C 0.25595 0.14324 0.41121 0.0
C574 C 0.19834 0.14223 0.43141 0.0
C575 C 0.21508 0.08943 0.43005 0.0
H576 H 0.81846 0.33836 0.42427 0.0
H577 H 0.74618 0.21661 0.40755 0.0
H578 H 0.71215 0.30053 0.40033 0.0
H579 H 0.70408 0.40852 0.39644 0.0
H580 H 0.77755 0.52998 0.4111 0.0
H581 H 0.81002 0.44645 0.42123 0.0
C582 C 0.79509 0.33059 0.41949 0.0
C583 C 0.78459 0.27219 0.41649 0.0
C584 C 0.77606 0.37886 0.41457 0.0
C585 C 0.75451 0.26184 0.40991 0.0
C586 C 0.73515 0.30958 0.40568 0.0
C587 C 0.7272 0.41651 0.4018 0.0
C588 C 0.73849 0.47495 0.40278 0.0
C589 C 0.74589 0.36829 0.40747 0.0
C590 C 0.76844 0.48506 0.40989 0.0
C591 C 0.78702 0.43744 0.41585 0.0
H592 H 0.69624 0.07774 0.8958 0.0
H593 H 0.76764 0.95846 0.91682 0.0
H594 H 0.80126 0.04318 0.9232 0.0
H595 H 0.81074 0.15134 0.92223 0.0
H596 H 0.74053 0.27014 0.89899 0.0
H597 H 0.70594 0.18576 0.89431 0.0
C598 C 0.71916 0.07053 0.90175 0.0
C599 C 0.72954 0.01237 0.90573 0.0
C600 C 0.73851 0.11932 0.90513 0.0
C601 C 0.75928 0.00313 0.91338 0.0
C602 C 0.77848 0.05145 0.91718 0.0
C603 C 0.78777 0.15847 0.91637 0.0
C604 C 0.77799 0.2162 0.91102 0.0
C605 C 0.76836 0.10973 0.91308 0.0
C606 C 0.7484 0.22552 0.90312 0.0
C607 C 0.72867 0.17748 0.90042 0.0
H608 H 0.23842 0.47192 0.91905 0.0
H609 H 0.31538 0.39107 0.88628 0.0
H610 H 0.28967 0.29395 0.88618 0.0
H611 H 0.24527 0.23264 0.89535 0.0
H612 H 0.16952 0.31233 0.93013 0.0
H613 H 0.19487 0.40966 0.92963 0.0
C614 C 0.24944 0.43297 0.91182 0.0
C615 C 0.27852 0.43825 0.90254 0.0
C616 C 0.23482 0.37736 0.91226 0.0
C617 C 0.29294 0.38765 0.89355 0.0
C618 C 0.27826 0.33233 0.89345 0.0
C619 C 0.23432 0.2714 0.90277 0.0
C620 C 0.20557 0.26567 0.91263 0.0
C621 C 0.2492 0.32675 0.90275 0.0
C622 C 0.19173 0.31582 0.92249 0.0
C623 C 0.20614 0.37141 0.92215 0.0
H624 H 0.69064 0.90903 0.67348 0.0
H625 H 0.71335 0.9543 0.6049 0.0
H626 H 0.73153 0.85251 0.59822 0.0
H627 H 0.75089 0.76006 0.61428 0.0
H628 H 0.73499 0.71841 0.6841 0.0
H629 H 0.70301 0.80765 0.68794 0.0
C630 C 0.69883 0.89562 0.65699 0.0
C631 C 0.70107 0.93822 0.63969 0.0
C632 C 0.71036 0.83768 0.6536 0.0
C633 C 0.71179 0.92161 0.61837 0.0
C634 C 0.72211 0.86364 0.61458 0.0
C635 C 0.7391 0.76913 0.62999 0.0
C636 C 0.74495 0.73328 0.64885 0.0
C637 C 0.72284 0.82236 0.63236 0.0
C638 C 0.73023 0.74527 0.6693 0.0
C639 C 0.71253 0.79691 0.67158 0.0
H640 H 0.20254 0.68259 0.64226 0.0
H641 H 0.28273 0.79292 0.64432 0.0
H642 H 0.31395 0.70178 0.64774 0.0
H643 H 0.31809 0.5904 0.64836 0.0
H644 H 0.237 0.48276 0.64552 0.0
H645 H 0.20631 0.57399 0.64404 0.0
C646 C 0.22691 0.68741 0.64341 0.0
C647 C 0.24023 0.74523 0.64276 0.0
C648 C 0.24445 0.63512 0.64514 0.0
C649 C 0.2718 0.74954 0.64474 0.0
C650 C 0.28959 0.69725 0.6466 0.0
C651 C 0.29365 0.58678 0.64752 0.0
C652 C 0.27985 0.5293 0.64699 0.0
C653 C 0.27614 0.63975 0.64654 0.0
C654 C 0.24822 0.52588 0.64594 0.0
C655 C 0.23071 0.57817 0.64507 0.0
H656 H 0.80966 0.41993 0.65493 0.0
H657 H 0.73143 0.53065 0.64248 0.0
H658 H 0.70072 0.44191 0.63559 0.0
H659 H 0.69636 0.33345 0.63179 0.0
H660 H 0.77305 0.22081 0.6463 0.0
H661 H 0.80426 0.30966 0.65366 0.0
C662 C 0.78583 0.42438 0.65091 0.0
C663 C 0.77282 0.48156 0.64911 0.0
C664 C 0.76818 0.37301 0.64712 0.0
C665 C 0.74192 0.48701 0.64402 0.0
C666 C 0.72437 0.43635 0.63995 0.0
C667 C 0.71998 0.32844 0.63642 0.0
C668 C 0.73268 0.27112 0.63812 0.0
C669 C 0.73735 0.37929 0.64116 0.0
C670 C 0.76299 0.26483 0.64474 0.0
C671 C 0.78075 0.31549 0.64896 0.0
H672 H 0.31329 0.18155 0.65134 0.0
H673 H 0.23409 0.29265 0.64364 0.0
H674 H 0.20205 0.20209 0.64496 0.0
H675 H 0.19728 0.09058 0.64653 0.0
H676 H 0.2778 0.98252 0.65274 0.0
H677 H 0.30878 0.07338 0.65364 0.0
C678 C 0.28897 0.18673 0.64991 0.0
C679 C 0.27623 0.24457 0.64718 0.0
C680 C 0.27103 0.13476 0.65033 0.0
C681 C 0.24461 0.24925 0.64575 0.0
C682 C 0.22636 0.19727 0.64641 0.0
C683 C 0.22163 0.08686 0.64824 0.0
C684 C 0.23521 0.0293 0.6496 0.0
C685 C 0.2394 0.13968 0.64844 0.0
C686 C 0.26674 0.0257 0.65169 0.0
C687 C 0.28444 0.07778 0.65217 0.0
H688 H 0.73404 0.49282 0.88378 0.0
H689 H 0.81498 0.58926 0.90237 0.0
H690 H 0.7857 0.68218 0.90501 0.0
H691 H 0.73714 0.73411 0.903 0.0
H692 H 0.6565 0.63778 0.88351 0.0
H693 H 0.6859 0.54527 0.88053 0.0
C694 C 0.74535 0.53421 0.88837 0.0
C695 C 0.77651 0.53451 0.89305 0.0
C696 C 0.72846 0.58675 0.88991 0.0
C697 C 0.79099 0.58831 0.89866 0.0
C698 C 0.77425 0.64111 0.9003 0.0
C699 C 0.72589 0.69278 0.89829 0.0
C700 C 0.69464 0.69229 0.89375 0.0
C701 C 0.74295 0.64052 0.89621 0.0
C702 C 0.6805 0.63888 0.8872 0.0
C703 C 0.69728 0.58625 0.88544 0.0
H704 H 0.26276 0.97762 0.88441 0.0
H705 H 0.17823 0.88602 0.8963 0.0
H706 H 0.20514 0.79059 0.89938 0.0
H707 H 0.25285 0.73377 0.89899 0.0
H708 H 0.33685 0.82566 0.88548 0.0
H709 H 0.30995 0.92097 0.88299 0.0
C710 C 0.25019 0.93675 0.8876 0.0
C711 C 0.21862 0.9387 0.89018 0.0
C712 C 0.26573 0.8824 0.88926 0.0
C713 C 0.20257 0.88546 0.89416 0.0
C714 C 0.21794 0.83104 0.89604 0.0
C715 C 0.26524 0.77482 0.89572 0.0
C716 C 0.29675 0.77309 0.89261 0.0
C717 C 0.24954 0.8291 0.89377 0.0
C718 C 0.31256 0.82617 0.88796 0.0
C719 C 0.29721 0.88052 0.8865 0.0
H720 H 0.20669 0.5749 0.39835 0.0
H721 H 0.26663 0.46667 0.43866 0.0
H722 H 0.30065 0.55166 0.44377 0.0
H723 H 0.31462 0.65529 0.43516 0.0
H724 H 0.25579 0.76201 0.39321 0.0
H725 H 0.22021 0.67924 0.39032 0.0
C726 C 0.22705 0.5704 0.40842 0.0
C727 C 0.23435 0.51513 0.41803 0.0
C728 C 0.24685 0.61892 0.41083 0.0
C729 C 0.26083 0.50909 0.43093 0.0
C730 C 0.28026 0.55753 0.43388 0.0
C731 C 0.29396 0.66041 0.42549 0.0
C732 C 0.28797 0.71436 0.41433 0.0
C733 C 0.27373 0.61241 0.42361 0.0
C734 C 0.2611 0.72054 0.4018 0.0
C735 C 0.24064 0.67336 0.40018 0.0
H736 H 0.74681 -0.00699 0.41491 0.0
H737 H 0.82112 0.90378 0.38168 0.0
H738 H 0.79371 0.80837 0.38393 0.0
H739 H 0.74838 0.75247 0.39451 0.0
H740 H 0.67461 0.84166 0.42854 0.0
H741 H 0.70247 0.93638 0.42691 0.0
C742 C 0.75696 0.9527 0.40804 0.0
C743 C 0.78562 0.95496 0.39782 0.0
C744 C 0.7413 0.89874 0.40958 0.0
C745 C 0.79896 0.90259 0.3895 0.0
C746 C 0.78332 0.84841 0.39076 0.0
C747 C 0.73829 0.7927 0.40149 0.0
C748 C 0.70935 0.79068 0.41135 0.0
C749 C 0.75441 0.84629 0.4006 0.0
C750 C 0.69682 0.84254 0.42079 0.0
C751 C 0.71267 0.89646 0.41982 0.0
H752 H 0.25362 0.23116 0.14503 0.0
H753 H 0.32791 0.32102 0.1119 0.0
H754 H 0.30269 0.41741 0.11725 0.0
H755 H 0.25988 0.4757 0.13175 0.0
H756 H 0.18495 0.38528 0.16373 0.0
H757 H 0.21034 0.2889 0.15858 0.0
C758 C 0.26433 0.27182 0.13897 0.0
C759 C 0.29264 0.26916 0.12819 0.0
C760 C 0.24972 0.3267 0.14203 0.0
C761 C 0.30608 0.32202 0.1202 0.0
C762 C 0.29175 0.37707 0.12334 0.0
C763 C 0.24925 0.43487 0.13774 0.0
C764 C 0.22082 0.43722 0.14829 0.0
C765 C 0.26368 0.37987 0.13436 0.0
C766 C 0.20691 0.38422 0.1556 0.0
C767 C 0.22137 0.3293 0.15265 0.0
H768 H 0.74674 0.23123 0.14851 0.0
H769 H 0.67163 0.14362 0.11566 0.0
H770 H 0.69668 0.04667 0.12017 0.0
H771 H 0.73977 0.98728 0.13376 0.0
H772 H 0.81548 0.07608 0.16529 0.0
H773 H 0.79005 0.17267 0.16122 0.0
C774 C 0.7358 0.19095 0.14233 0.0
C775 C 0.70734 0.1944 0.13186 0.0
C776 C 0.7503 0.13581 0.14491 0.0
C777 C 0.69361 0.14201 0.12371 0.0
C778 C 0.70783 0.08664 0.12639 0.0
C779 C 0.75052 0.02779 0.13992 0.0
C780 C 0.77923 0.02491 0.15001 0.0
C781 C 0.73609 0.08306 0.13708 0.0
C782 C 0.7933 0.07753 0.15753 0.0
C783 C 0.77883 0.1326 0.15518 0.0
H784 H 0.31021 0.06669 0.02807 0.0
H785 H 0.23817 0.09898 0.07567 0.0
H786 H 0.2015 0.10123 0.04498 0.0
H787 H 0.18945 0.09104 1.00456 0.0
H788 H 0.26144 0.0567 0.95712 0.0
H789 H 0.29833 0.05809 0.98768 0.0
C790 C 0.28649 0.07405 0.03176 0.0
C791 C 0.27715 0.08258 0.05426 0.0
C792 C 0.26537 0.07477 1.01399 0.0
C793 C 0.24627 0.09303 0.0586 0.0
C794 C 0.22515 0.09385 0.04102 0.0
C795 C 0.21317 0.08355 1.00091 0.0
C796 C 0.22252 0.07374 0.97848 0.0
C797 C 0.23438 0.08426 1.01865 0.0
C798 C 0.25352 0.06508 0.9741 0.0
C799 C 0.27468 0.06552 0.99163 0.0
H800 H 0.80707 0.36713 1.00693 0.0
H801 H 0.735 0.42041 0.96221 0.0
H802 H 0.69951 0.42108 0.99378 0.0
H803 H 0.68906 0.40945 0.03435 0.0
H804 H 0.76136 0.35827 0.07921 0.0
H805 H 0.79635 0.35352 0.04743 0.0
C806 C 0.78365 0.37922 1.00406 0.0
C807 C 0.77391 0.39393 0.98207 0.0
C808 C 0.76327 0.37977 1.02239 0.0
C809 C 0.74323 0.40833 0.97877 0.0
C810 C 0.72289 0.40906 0.9969 0.0
C811 C 0.71248 0.39746 0.03724 0.0
C812 C 0.72237 0.38449 0.05934 0.0
C813 C 0.73268 0.39529 1.01882 0.0
C814 C 0.7528 0.36793 0.06253 0.0
C815 C 0.77299 0.36562 0.0443 0.0
H816 H 0.25805 0.90633 0.47488 0.0
H817 H 0.33882 0.85947 0.51167 0.0
H818 H 0.31043 0.86049 0.54696 0.0
H819 H 0.26283 0.87914 0.5678 0.0
H820 H 0.18226 0.92436 0.53058 0.0
H821 H 0.21021 0.91864 0.49522 0.0
C822 C 0.26944 0.89542 0.49051 0.0
C823 C 0.3007 0.88331 0.49045 0.0
C824 C 0.25294 0.89591 0.51083 0.0
C825 C 0.31496 0.87007 0.5111 0.0
C826 C 0.29867 0.87026 0.53136 0.0
C827 C 0.25134 0.88681 0.55193 0.0
C828 C 0.22053 0.90279 0.55194 0.0
C829 C 0.26768 0.88377 0.5315 0.0
C830 C 0.20605 0.91306 0.53115 0.0
C831 C 0.22201 0.90961 0.51087 0.0
H832 H 0.81167 0.61095 0.53524 0.0
H833 H 0.73648 0.62372 0.58145 0.0
H834 H 0.70122 0.62506 0.54977 0.0
H835 H 0.69147 0.61922 0.50879 0.0
H836 H 0.76693 0.60349 0.46292 0.0
H837 H 0.80207 0.60665 0.4945 0.0
C838 C 0.78758 0.6137 0.53846 0.0
C839 C 0.77694 0.61692 0.56087 0.0
C840 C 0.76733 0.61389 0.52012 0.0
C841 C 0.74555 0.62174 0.56451 0.0
C842 C 0.72526 0.62209 0.54634 0.0
C843 C 0.71558 0.61628 0.50568 0.0
C844 C 0.72634 0.61121 0.48333 0.0
C845 C 0.73586 0.61764 0.52406 0.0
C846 C 0.7578 0.60831 0.47975 0.0
C847 C 0.77802 0.60967 0.49789 0.0
H848 H 0.69048 0.88227 1.01524 0.0
H849 H 0.76338 0.87664 0.96689 0.0
H850 H 0.80031 0.87493 0.99749 0.0
H851 H 0.81202 0.87856 0.03816 0.0
H852 H 0.7388 0.88683 0.08623 0.0
H853 H 0.70205 0.88408 0.05568 0.0
C854 C 0.71444 0.88085 1.01138 0.0
C855 C 0.72402 0.87969 0.98875 0.0
C856 C 0.73559 0.88044 0.02907 0.0
C857 C 0.75523 0.87682 0.9841 0.0
C858 C 0.77642 0.87632 1.00162 0.0
C859 C 0.78804 0.87992 0.04193 0.0
C860 C 0.77831 0.88272 0.06453 0.0
C861 C 0.76688 0.87867 0.02418 0.0
C862 C 0.74705 0.88371 0.06909 0.0
C863 C 0.72595 0.88257 0.05158 0.0
H864 H 0.18706 0.5879 0.03882 0.0
H865 H 0.26081 0.57933 0.08639 0.0
H866 H 0.29718 0.58283 0.05558 0.0
H867 H 0.30828 0.58537 1.01506 0.0
H868 H 0.23464 0.58925 0.96732 0.0
H869 H 0.19823 0.59089 0.99818 0.0
C870 C 0.21107 0.58649 0.04246 0.0
C871 C 0.22101 0.58345 0.065 0.0
C872 C 0.23201 0.58778 0.02458 0.0
C873 C 0.25232 0.5826 0.06933 0.0
C874 C 0.27324 0.58415 0.05166 0.0
C875 C 0.28429 0.58625 1.01135 0.0
C876 C 0.27441 0.58709 0.98878 0.0
C877 C 0.26335 0.58632 0.02922 0.0
C878 C 0.24311 0.58935 0.98442 0.0
C879 C 0.22217 0.58982 1.00211 0.0
H880 H 0.69714 0.06269 0.5357 0.0
H881 H 0.76382 0.14384 0.57928 0.0
H882 H 0.80022 0.14475 0.54847 0.0
H883 H 0.81319 0.12425 0.50884 0.0
H884 H 0.74617 0.04628 0.46494 0.0
H885 H 0.70979 0.04362 0.49599 0.0
C886 C 0.71948 0.08112 0.5385 0.0
C887 C 0.72752 0.10281 0.56003 0.0
C888 C 0.74034 0.0824 0.52054 0.0
C889 C 0.75691 0.12577 0.56316 0.0
C890 C 0.77781 0.12674 0.54544 0.0
C891 C 0.7907 0.10628 0.50613 0.0
C892 C 0.78245 0.08557 0.48456 0.0
C893 C 0.76981 0.10515 0.52406 0.0
C894 C 0.75302 0.0632 0.48127 0.0
C895 C 0.73224 0.06138 0.49906 0.0
H896 H 0.2558 0.37403 0.57402 0.0
H897 H 0.33563 0.39685 0.533 0.0
H898 H 0.30512 0.3897 0.49886 0.0
H899 H 0.25565 0.38296 0.48076 0.0
H900 H 0.1755 0.35884 0.52135 0.0
H901 H 0.20626 0.36053 0.55558 0.0
C902 C 0.26657 0.37639 0.55762 0.0
C903 C 0.29795 0.38644 0.5561 0.0
C904 C 0.24881 0.37254 0.53799 0.0
C905 C 0.31147 0.39013 0.53466 0.0
C906 C 0.29406 0.38583 0.51512 0.0
C907 C 0.24486 0.37688 0.497 0.0
C908 C 0.21321 0.37091 0.49839 0.0
C909 C 0.26266 0.37794 0.51659 0.0
C910 C 0.19974 0.36432 0.51976 0.0
C911 C 0.21734 0.36502 0.53935 0.0
H912 H 0.31239 0.10525 0.25249 0.0
H913 H 0.33071 0.94674 0.21323 0.0
H914 H 0.33553 0.88801 0.24776 0.0
H915 H 0.33127 0.88023 0.28902 0.0
H916 H 0.31183 0.03807 0.32832 0.0
H917 H 0.31085 0.09851 0.29395 0.0
C918 C 0.31747 0.05787 0.25149 0.0
C919 C 0.32096 0.0305 0.23022 0.0
C920 C 0.31989 0.02417 0.27145 0.0
C921 C 0.32815 0.96922 0.22929 0.0
C922 C 0.33067 0.93544 0.24906 0.0
C923 C 0.3268 0.92784 0.29007 0.0
C924 C 0.32134 0.9544 0.31125 0.0
C925 C 0.32606 0.96221 0.27021 0.0
C926 C 0.31627 0.01647 0.31231 0.0
C927 C 0.31551 0.051 0.29263 0.0
H928 H 0.67945 0.50631 0.22525 0.0
H929 H 0.68105 0.33317 0.25724 0.0
H930 H 0.67994 0.38037 0.2944 0.0
H931 H 0.68319 0.47141 0.318 0.0
H932 H 0.68258 0.64444 0.28589 0.0
H933 H 0.67834 0.59721 0.2489 0.0
C934 C 0.67892 0.47897 0.24034 0.0
C935 C 0.68058 0.41625 0.2384 0.0
C936 C 0.67875 0.50655 0.26177 0.0
C937 C 0.68022 0.38154 0.25822 0.0
C938 C 0.67954 0.40852 0.27952 0.0
C939 C 0.68153 0.49869 0.30293 0.0
C940 C 0.68352 0.56141 0.30476 0.0
C941 C 0.67952 0.47107 0.28155 0.0
C942 C 0.6816 0.59607 0.28498 0.0
C943 C 0.67911 0.56908 0.26378 0.0
H944 H 0.67414 0.87273 0.79123 0.0
H945 H 0.67764 0.03012 0.83327 0.0
H946 H 0.67806 0.09384 0.79978 0.0
H947 H 0.68115 0.10451 0.75852 0.0
H948 H 0.67882 0.94698 0.71649 0.0
H949 H 0.67399 0.8837 0.74991 0.0
C950 C 0.67491 0.92099 0.79304 0.0
C951 C 0.67608 0.94652 0.81475 0.0
C952 C 0.67545 0.95733 0.77368 0.0
C953 C 0.67648 0.00921 0.81683 0.0
C954 C 0.67697 0.04569 0.79766 0.0
C955 C 0.67952 0.05634 0.75668 0.0
C956 C 0.6806 0.03056 0.73501 0.0
C957 C 0.67703 0.02019 0.77601 0.0
C958 C 0.67783 0.9681 0.7329 0.0
C959 C 0.6753 0.93183 0.75204 0.0
H960 H 0.3361 0.36619 0.75681 0.0
H961 H 0.33324 0.52798 0.71692 0.0
H962 H 0.32787 0.58754 0.75087 0.0
H963 H 0.32306 0.59451 0.79186 0.0
H964 H 0.32728 0.43466 0.83236 0.0
H965 H 0.334 0.37382 0.79832 0.0
C966 C 0.33462 0.41446 0.75551 0.0
C967 C 0.33458 0.44204 0.73412 0.0
C968 C 0.332 0.44901 0.77527 0.0
C969 C 0.3325 0.50489 0.73293 0.0
C970 C 0.32971 0.53932 0.75242 0.0
C971 C 0.32544 0.54633 0.79319 0.0
C972 C 0.32452 0.5191 0.81452 0.0
C973 C 0.32915 0.51187 0.77363 0.0
C974 C 0.32817 0.45673 0.81612 0.0
C975 C 0.33178 0.42194 0.79666 0.0
H976 H 0.84249 0.50976 0.81546 0.0
H977 H 0.78442 0.37375 0.78724 0.0
H978 H 0.78401 0.4258 0.75119 0.0
H979 H 0.7999 0.51008 0.7274 0.0
H980 H 0.85821 0.64626 0.75521 0.0
H981 H 0.8583 0.59485 0.79149 0.0
C982 C 0.82957 0.49181 0.80148 0.0
C983 C 0.81374 0.43747 0.80416 0.0
C984 C 0.82938 0.52217 0.78059 0.0
C985 C 0.7973 0.41475 0.78569 0.0
C986 C 0.79689 0.44473 0.76501 0.0
C987 C 0.81287 0.52833 0.74129 0.0
C988 C 0.82897 0.58225 0.73839 0.0
C989 C 0.81297 0.4983 0.76219 0.0
C990 C 0.84524 0.60541 0.75687 0.0
C991 C 0.84545 0.57579 0.77768 0.0
H992 H 0.15447 0.97693 0.80989 0.0
H993 H 0.21879 0.10907 0.78703 0.0
H994 H 0.22131 0.06101 0.75027 0.0
H995 H 0.20523 0.98203 0.72426 0.0
H996 H 0.14054 0.8498 0.74645 0.0
H997 H 0.13875 0.8963 0.78368 0.0
C998 C 0.1692 -0.00514 0.79692 0.0
C999 C 0.18613 0.04708 0.80129 0.0
C1000 C 0.1706 0.96681 0.77559 0.0
C1001 C 0.20499 0.0698 0.78414 0.0
C1002 C 0.20662 0.04207 0.76306 0.0
C1003 C 0.19052 0.96354 0.73712 0.0
C1004 C 0.17303 0.91235 0.73234 0.0
C1005 C 0.18936 0.99085 0.75851 0.0
C1006 C 0.15456 0.88865 0.74955 0.0
C1007 C 0.15337 0.9155 0.77089 0.0
H1008 H 0.19227 0.37025 0.29813 0.0
H1009 H 0.18319 0.5295 0.33868 0.0
H1010 H 0.17785 0.59018 0.30462 0.0
H1011 H 0.17863 0.59865 0.26321 0.0
H1012 H 0.18833 0.43941 0.22272 0.0
H1013 H 0.19032 0.37806 0.25676 0.0
C1014 C 0.18913 0.41823 0.29949 0.0
C1015 C 0.18835 0.4453 0.32093 0.0
C1016 C 0.1862 0.45286 0.27982 0.0
C1017 C 0.18366 0.50743 0.32243 0.0
C1018 C 0.1808 0.54222 0.30294 0.0
C1019 C 0.18113 0.55052 0.26187 0.0
C1020 C 0.18349 0.52379 0.24043 0.0
C1021 C 0.18247 0.51552 0.28155 0.0
C1022 C 0.18618 0.46118 0.23895 0.0
C1023 C 0.18756 0.42607 0.25844 0.0
H1024 H 0.82625 0.97663 0.32066 0.0
H1025 H 0.83812 0.14792 0.28834 0.0
H1026 H 0.84016 0.09931 0.25147 0.0
H1027 H 0.83355 0.0088 0.22812 0.0
H1028 H 0.82088 0.83806 0.26061 0.0
H1029 H 0.82461 0.88542 0.29763 0.0
C1030 C 0.82994 0.00319 0.30561 0.0
C1031 C 0.83167 0.06589 0.30727 0.0
C1032 C 0.83072 0.97499 0.28442 0.0
C1033 C 0.83615 0.09967 0.28751 0.0
C1034 C 0.83741 0.07189 0.26641 0.0
C1035 C 0.8323 0.98192 0.24331 0.0
C1036 C 0.82667 0.92013 0.24165 0.0
C1037 C 0.83396 0.00968 0.26459 0.0
C1038 C 0.82477 0.88587 0.2615 0.0
C1039 C 0.82693 0.91289 0.28266 0.0
H1040 H 0.52871 0.34244 0.14898 0.0
H1041 H 0.57521 0.17244 0.14637 0.0
H1042 H 0.52699 0.12006 0.14596 0.0
H1043 H 0.47161 0.1219 0.14678 0.0
H1044 H 0.42515 0.29202 0.14516 0.0
H1045 H 0.47336 0.34441 0.14672 0.0
C1046 C 0.52845 0.294 0.14798 0.0
C1047 C 0.55584 0.26181 0.14804 0.0
C1048 C 0.50054 0.26384 0.14709 0.0
C1049 C 0.55468 0.19879 0.14701 0.0
C1050 C 0.52703 0.16857 0.14655 0.0
C1051 C 0.47188 0.1704 0.1464 0.0
C1052 C 0.44449 0.20257 0.14614 0.0
C1053 C 0.4998 0.2006 0.14667 0.0
C1054 C 0.44566 0.26564 0.14598 0.0
C1055 C 0.47331 0.29588 0.14666 0.0
H1056 H 0.44939 0.72188 0.41029 0.0
H1057 H 0.46707 0.85062 0.35779 0.0
H1058 H 0.51769 0.80841 0.35214 0.0
H1059 H 0.55656 0.73573 0.36237 0.0
H1060 H 0.54114 0.615 0.41823 0.0
H1061 H 0.48942 0.6513 0.42157 0.0
C1062 C 0.46443 0.74047 0.39762 0.0
C1063 C 0.45477 0.78908 0.38444 0.0
C1064 C 0.49361 0.71686 0.39486 0.0
C1065 C 0.47429 0.81339 0.36818 0.0
C1066 C 0.50307 0.78909 0.36491 0.0
C1067 C 0.54226 0.71777 0.37558 0.0
C1068 C 0.55322 0.67271 0.3901 0.0
C1069 C 0.51301 0.74104 0.37824 0.0
C1070 C 0.53352 0.64888 0.40649 0.0
C1071 C 0.50393 0.6702 0.40865 0.0
H1072 H 0.5579 0.71386 0.90595 0.0
H1073 H 0.52312 0.89435 0.905 0.0
H1074 H 0.47133 0.85556 0.90423 0.0
H1075 H 0.43607 0.7702 0.90449 0.0
H1076 H 0.47137 0.59013 0.90697 0.0
H1077 H 0.52294 0.62911 0.90658 0.0
C1078 C 0.539 0.74483 0.90583 0.0
C1079 C 0.54438 0.80694 0.90573 0.0
C1080 C 0.50942 0.72229 0.90566 0.0
C1081 C 0.51963 0.84635 0.90495 0.0
C1082 C 0.49002 0.8242 0.90464 0.0
C1083 C 0.45505 0.73951 0.90516 0.0
C1084 C 0.44984 0.67732 0.90578 0.0
C1085 C 0.48467 0.76224 0.90514 0.0
C1086 C 0.4747 0.63813 0.90622 0.0
C1087 C 0.50421 0.66038 0.90612 0.0
H1088 H 0.49331 0.40452 0.6412 0.0
H1089 H 0.4449 0.2607 0.67354 0.0
H1090 H 0.49208 0.20589 0.67925 0.0
H1091 H 0.54614 0.19438 0.67158 0.0
H1092 H 0.59524 0.33663 0.63881 0.0
H1093 H 0.54902 0.39698 0.63687 0.0
C1094 C 0.49341 0.36189 0.64995 0.0
C1095 C 0.46599 0.33634 0.65698 0.0
C1096 C 0.52062 0.33012 0.6528 0.0
C1097 C 0.46599 0.28087 0.66809 0.0
C1098 C 0.49285 0.24947 0.67123 0.0
C1099 C 0.54668 0.23875 0.66415 0.0
C1100 C 0.57378 0.26086 0.65509 0.0
C1101 C 0.52013 0.27285 0.66306 0.0
C1102 C 0.57449 0.3188 0.64587 0.0
C1103 C 0.54809 0.35317 0.64469 0.0
H1104 H 0.95422 0.73774 0.61229 0.0
H1105 H 0.96156 0.68096 0.68164 0.0
H1106 H 0.00965 0.7346 0.68511 0.0
H1107 H 0.04946 0.79911 0.66834 0.0
H1108 H 0.04034 0.85738 0.59938 0.0
H1109 H 0.99223 0.80408 0.59618 0.0
C1110 C 0.96611 0.73745 0.62828 0.0
C1111 C 0.9541 0.70553 0.6467 0.0
C1112 C 0.9931 0.76986 0.63036 0.0
C1113 C 0.97039 0.70443 0.66707 0.0
C1114 C 0.9977 0.73581 0.66917 0.0
C1115 C 0.0365 0.80109 0.65284 0.0
C1116 C 0.04809 0.83256 0.63419 0.0
C1117 C 0.00912 0.76924 0.65099 0.0
C1118 C 0.03159 0.8338 0.61397 0.0
C1119 C 0.00429 0.80295 0.61209 0.0
H1120 H 0.05114 0.24623 0.86973 0.0
H1121 H 0.03262 0.11378 0.92112 0.0
H1122 H 0.98135 0.15209 0.92504 0.0
H1123 H 0.94188 0.22473 0.91459 0.0
H1124 H 0.96203 0.3626 0.86598 0.0
H1125 H 0.0131 0.32219 0.86104 0.0
C1126 C 0.03628 0.22613 0.88214 0.0
C1127 C 0.04615 0.17679 0.89505 0.0
C1128 C 0.00713 0.24993 0.88504 0.0
C1129 C 0.02579 0.15081 0.91052 0.0
C1130 C 0.99645 0.17319 0.91301 0.0
C1131 C 0.95756 0.24591 0.90298 0.0
C1132 C 0.94833 0.29645 0.89064 0.0
C1133 C 0.98693 0.22285 0.90044 0.0
C1134 C 0.9688 0.32395 0.87579 0.0
C1135 C 0.99788 0.30061 0.87286 0.0
H1136 H 0.05666 0.24835 0.37085 0.0
H1137 H 0.03896 0.37418 0.42472 0.0
H1138 H 0.98691 0.33947 0.42691 0.0
H1139 H 0.94705 0.26925 0.41523 0.0
H1140 H 0.96637 0.13607 0.36464 0.0
H1141 H 0.01766 0.17613 0.36015 0.0
C1142 C 0.04171 0.26783 0.38334 0.0
C1143 C 0.05212 0.31392 0.39762 0.0
C1144 C 0.01215 0.24563 0.38535 0.0
C1145 C 0.03175 0.33954 0.41314 0.0
C1146 C 1.00195 0.31916 0.41466 0.0
C1147 C 0.96258 0.24924 0.40322 0.0
C1148 C 0.95322 0.19999 0.39027 0.0
C1149 C 0.99206 0.27171 0.40108 0.0
C1150 C 0.97337 0.17381 0.37488 0.0
C1151 C 0.00254 0.19687 0.37224 0.0
H1152 H 0.94002 0.70632 0.15745 0.0
H1153 H 0.97392 0.88235 0.14147 0.0
H1154 H 0.02592 0.84478 0.14277 0.0
H1155 H 0.06138 0.76159 0.14768 0.0
H1156 H 0.02754 0.58651 0.16572 0.0
H1157 H 0.97575 0.62381 0.16387 0.0
C1158 C 0.95886 0.73627 0.15415 0.0
C1159 C 0.9533 0.79683 0.14926 0.0
C1160 C 0.98858 0.71452 0.15517 0.0
C1161 C 0.97777 0.83558 0.14537 0.0
C1162 C 0.00742 0.81409 0.14604 0.0
C1163 C 0.04276 0.73167 0.15157 0.0
C1164 C 0.04849 0.6712 0.15677 0.0
C1165 C 0.01307 0.75364 0.15091 0.0
C1166 C 0.0239 0.63297 0.16129 0.0
C1167 C 0.99424 0.65435 0.16039 0.0
loop_
_geom_bond_atom_site_label_1
_geom_bond_atom_site_label_2
_geom_bond_distance
_geom_bond_site_symmetry_2
_ccdc_geom_bond_type
Co0 N4 2.148 . S
Co0 N10 2.128 . S
Co0 N20 2.194 . S
Co0 O25 2.351 . S
Co0 O26 2.155 . S
Co0 O27 2.096 . S
C1 N4 1.301 . S
C1 N5 1.328 . S
C1 H6 0.930 . S
C2 C3 1.333 . S
C2 N4 1.317 . S
C2 H7 0.930 . S
C3 C2 1.333 . S
C3 N5 1.350 . S
C3 H29 0.931 . S
N4 Co0 2.148 . S
N4 C1 1.301 . S
N4 C2 1.317 . S
N5 C1 1.328 . S
N5 C3 1.350 . S
H6 C1 0.930 . S
H7 C2 0.930 . S
C8 O9 1.224 . S
C8 O27 1.247 . S
O9 C8 1.224 . S
N10 Co0 2.128 . S
N10 C11 1.355 . S
N10 C13 1.311 . S
C11 N10 1.355 . S
C11 C12 1.363 . S
C11 H23 0.929 . S
C12 C11 1.363 . S
C12 N14 1.375 . S
C12 H30 0.931 . S
C13 N10 1.311 . S
C13 N14 1.347 . S
C13 H24 0.929 . S
N14 C12 1.375 . S
N14 C13 1.347 . S
C15 C18 1.365 . S
C15 N20 1.328 . S
C15 H21 0.929 . S
C16 C17 1.362 . S
C16 C19 1.378 . S
C16 H31 0.929 . S
C17 C16 1.362 . S
C17 C18 1.366 . S
C18 C15 1.365 . S
C18 C17 1.366 . S
C18 H32 0.930 . S
C19 C16 1.378 . S
C19 N20 1.315 . S
C19 H22 0.930 . S
N20 Co0 2.194 . S
N20 C15 1.328 . S
N20 C19 1.315 . S
H21 C15 0.929 . S
H22 C19 0.930 . S
H23 C11 0.929 . S
H24 C13 0.929 . S
O25 Co0 2.351 . S
O25 C28 1.244 . S
O26 Co0 2.155 . S
O26 C28 1.240 . S
O27 Co0 2.096 . S
O27 C8 1.247 . S
C28 O25 1.244 . S
C28 O26 1.240 . S
H29 C3 0.931 . S
H30 C12 0.931 . S
H31 C16 0.929 . S
H32 C18 0.930 . S
Co33 N37 2.148 . S
Co33 N43 2.128 . S
Co33 N53 2.194 . S
Co33 O58 2.351 . S
Co33 O59 2.155 . S
Co33 O60 2.096 . S
C34 N37 1.301 . S
C34 N38 1.328 . S
C34 H39 0.930 . S
C35 C36 1.333 . S
C35 N37 1.317 . S
C35 H40 0.930 . S
C36 C35 1.333 . S
C36 N38 1.350 . S
C36 H62 0.931 . S
N37 Co33 2.148 . S
N37 C34 1.301 . S
N37 C35 1.317 . S
N38 C34 1.328 . S
N38 C36 1.350 . S
H39 C34 0.930 . S
H40 C35 0.930 . S
C41 O42 1.224 . S
C41 O60 1.247 . S
O42 C41 1.224 . S
N43 Co33 2.128 . S
N43 C44 1.355 . S
N43 C46 1.311 . S
C44 N43 1.355 . S
C44 C45 1.363 . S
C44 H56 0.929 . S
C45 C44 1.363 . S
C45 N47 1.375 . S
C45 H63 0.931 . S
C46 N43 1.311 . S
C46 N47 1.347 . S
C46 H57 0.929 . S
N47 C45 1.375 . S
N47 C46 1.347 . S
C48 C51 1.365 . S
C48 N53 1.328 . S
C48 H54 0.929 . S
C49 C50 1.362 . S
C49 C52 1.378 . S
C49 H64 0.929 . S
C50 C49 1.362 . S
C50 C51 1.366 . S
C51 C48 1.365 . S
C51 C50 1.366 . S
C51 H65 0.930 . S
C52 C49 1.378 . S
C52 N53 1.315 . S
C52 H55 0.930 . S
N53 Co33 2.194 . S
N53 C48 1.328 . S
N53 C52 1.315 . S
H54 C48 0.929 . S
H55 C52 0.930 . S
H56 C44 0.929 . S
H57 C46 0.929 . S
O58 Co33 2.351 . S
O58 C61 1.244 . S
O59 Co33 2.155 . S
O59 C61 1.240 . S
O60 Co33 2.096 . S
O60 C41 1.247 . S
C61 O58 1.244 . S
C61 O59 1.240 . S
H62 C36 0.931 . S
H63 C45 0.931 . S
H64 C49 0.929 . S
H65 C51 0.930 . S
Co66 N70 2.148 . S
Co66 N76 2.128 . S
Co66 N86 2.194 . S
Co66 O91 2.351 . S
Co66 O92 2.155 . S
Co66 O93 2.096 . S
C67 N70 1.301 . S
C67 N71 1.328 . S
C67 H72 0.930 . S
C68 C69 1.333 . S
C68 N70 1.317 . S
C68 H73 0.930 . S
C69 C68 1.333 . S
C69 N71 1.350 . S
C69 H95 0.931 . S
N70 Co66 2.148 . S
N70 C67 1.301 . S
N70 C68 1.317 . S
N71 C67 1.328 . S
N71 C69 1.350 . S
H72 C67 0.930 . S
H73 C68 0.930 . S
C74 O75 1.224 . S
C74 O93 1.247 . S
O75 C74 1.224 . S
N76 Co66 2.128 . S
N76 C77 1.355 . S
N76 C79 1.311 . S
C77 N76 1.355 . S
C77 C78 1.363 . S
C77 H89 0.929 . S
C78 C77 1.363 . S
C78 N80 1.375 . S
C78 H96 0.931 . S
C79 N76 1.311 . S
C79 N80 1.347 . S
C79 H90 0.929 . S
N80 C78 1.375 . S
N80 C79 1.347 . S
C81 C84 1.365 . S
C81 N86 1.328 . S
C81 H87 0.929 . S
C82 C83 1.362 . S
C82 C85 1.378 . S
C82 H97 0.929 . S
C83 C82 1.362 . S
C83 C84 1.366 . S
C84 C81 1.365 . S
C84 C83 1.366 . S
C84 H98 0.930 . S
C85 C82 1.378 . S
C85 N86 1.315 . S
C85 H88 0.930 . S
N86 Co66 2.194 . S
N86 C81 1.328 . S
N86 C85 1.315 . S
H87 C81 0.929 . S
H88 C85 0.930 . S
H89 C77 0.929 . S
H90 C79 0.929 . S
O91 Co66 2.351 . S
O91 C94 1.244 . S
O92 Co66 2.155 . S
O92 C94 1.240 . S
O93 Co66 2.096 . S
O93 C74 1.247 . S
C94 O91 1.244 . S
C94 O92 1.240 . S
H95 C69 0.931 . S
H96 C78 0.931 . S
H97 C82 0.929 . S
H98 C84 0.930 . S
Co99 N103 2.148 . S
Co99 N109 2.128 . S
Co99 N119 2.194 . S
Co99 O124 2.351 . S
Co99 O125 2.155 . S
Co99 O126 2.096 . S
C100 N103 1.301 . S
C100 N104 1.328 . S
C100 H105 0.930 . S
C101 C102 1.333 . S
C101 N103 1.317 . S
C101 H106 0.930 . S
C102 C101 1.333 . S
C102 N104 1.350 . S
C102 H128 0.931 . S
N103 Co99 2.148 . S
N103 C100 1.301 . S
N103 C101 1.317 . S
N104 C100 1.328 . S
N104 C102 1.350 . S
H105 C100 0.930 . S
H106 C101 0.930 . S
C107 O108 1.224 . S
C107 O126 1.247 . S
O108 C107 1.224 . S
N109 Co99 2.128 . S
N109 C110 1.355 . S
N109 C112 1.311 . S
C110 N109 1.355 . S
C110 C111 1.363 . S
C110 H122 0.929 . S
C111 C110 1.363 . S
C111 N113 1.375 . S
C111 H129 0.931 . S
C112 N109 1.311 . S
C112 N113 1.347 . S
C112 H123 0.929 . S
N113 C111 1.375 . S
N113 C112 1.347 . S
C114 C117 1.365 . S
C114 N119 1.328 . S
C114 H120 0.929 . S
C115 C116 1.362 . S
C115 C118 1.378 . S
C115 H130 0.929 . S
C116 C115 1.362 . S
C116 C117 1.366 . S
C117 C114 1.365 . S
C117 C116 1.366 . S
C117 H131 0.930 . S
C118 C115 1.378 . S
C118 N119 1.315 . S
C118 H121 0.930 . S
N119 Co99 2.194 . S
N119 C114 1.328 . S
N119 C118 1.315 . S
H120 C114 0.929 . S
H121 C118 0.930 . S
H122 C110 0.929 . S
H123 C112 0.929 . S
O124 Co99 2.351 . S
O124 C127 1.244 . S
O125 Co99 2.155 . S
O125 C127 1.240 . S
O126 Co99 2.096 . S
O126 C107 1.247 . S
C127 O124 1.244 . S
C127 O125 1.240 . S
H128 C102 0.931 . S
H129 C111 0.931 . S
H130 C115 0.929 . S
H131 C117 0.930 . S
Co132 N136 2.148 . S
Co132 N142 2.128 . S
Co132 N152 2.194 . S
Co132 O157 2.351 . S
Co132 O158 2.155 . S
Co132 O159 2.096 . S
C133 N136 1.301 . S
C133 N137 1.328 . S
C133 H138 0.930 . S
C134 C135 1.333 . S
C134 N136 1.317 . S
C134 H139 0.930 . S
C135 C134 1.333 . S
C135 N137 1.350 . S
C135 H161 0.931 . S
N136 Co132 2.148 . S
N136 C133 1.301 . S
N136 C134 1.317 . S
N137 C133 1.328 . S
N137 C135 1.350 . S
H138 C133 0.930 . S
H139 C134 0.930 . S
C140 O141 1.224 . S
C140 O159 1.247 . S
O141 C140 1.224 . S
N142 Co132 2.128 . S
N142 C143 1.355 . S
N142 C145 1.311 . S
C143 N142 1.355 . S
C143 C144 1.363 . S
C143 H155 0.929 . S
C144 C143 1.363 . S
C144 N146 1.375 . S
C144 H162 0.931 . S
C145 N142 1.311 . S
C145 N146 1.347 . S
C145 H156 0.929 . S
N146 C144 1.375 . S
N146 C145 1.347 . S
C147 C150 1.365 . S
C147 N152 1.328 . S
C147 H153 0.929 . S
C148 C149 1.362 . S
C148 C151 1.378 . S
C148 H163 0.929 . S
C149 C148 1.362 . S
C149 C150 1.366 . S
C150 C147 1.365 . S
C150 C149 1.366 . S
C150 H164 0.930 . S
C151 C148 1.378 . S
C151 N152 1.315 . S
C151 H154 0.930 . S
N152 Co132 2.194 . S
N152 C147 1.328 . S
N152 C151 1.315 . S
H153 C147 0.929 . S
H154 C151 0.930 . S
H155 C143 0.929 . S
H156 C145 0.929 . S
O157 Co132 2.351 . S
O157 C160 1.244 . S
O158 Co132 2.155 . S
O158 C160 1.240 . S
O159 Co132 2.096 . S
O159 C140 1.247 . S
C160 O157 1.244 . S
C160 O158 1.240 . S
H161 C135 0.931 . S
H162 C144 0.931 . S
H163 C148 0.929 . S
H164 C150 0.930 . S
Co165 N169 2.148 . S
Co165 N175 2.128 . S
Co165 N185 2.194 . S
Co165 O190 2.351 . S
Co165 O191 2.155 . S
Co165 O192 2.096 . S
C166 N169 1.301 . S
C166 N170 1.328 . S
C166 H171 0.930 . S
C167 C168 1.333 . S
C167 N169 1.317 . S
C167 H172 0.930 . S
C168 C167 1.333 . S
C168 N170 1.350 . S
C168 H194 0.931 . S
N169 Co165 2.148 . S
N169 C166 1.301 . S
N169 C167 1.317 . S
N170 C166 1.328 . S
N170 C168 1.350 . S
H171 C166 0.930 . S
H172 C167 0.930 . S
C173 O174 1.224 . S
C173 O192 1.247 . S
O174 C173 1.224 . S
N175 Co165 2.128 . S
N175 C176 1.355 . S
N175 C178 1.311 . S
C176 N175 1.355 . S
C176 C177 1.363 . S
C176 H188 0.929 . S
C177 C176 1.363 . S
C177 N179 1.375 . S
C177 H195 0.931 . S
C178 N175 1.311 . S
C178 N179 1.347 . S
C178 H189 0.929 . S
N179 C177 1.375 . S
N179 C178 1.347 . S
C180 C183 1.365 . S
C180 N185 1.328 . S
C180 H186 0.929 . S
C181 C182 1.362 . S
C181 C184 1.378 . S
C181 H196 0.929 . S
C182 C181 1.362 . S
C182 C183 1.366 . S
C183 C180 1.365 . S
C183 C182 1.366 . S
C183 H197 0.930 . S
C184 C181 1.378 . S
C184 N185 1.315 . S
C184 H187 0.930 . S
N185 Co165 2.194 . S
N185 C180 1.328 . S
N185 C184 1.315 . S
H186 C180 0.929 . S
H187 C184 0.930 . S
H188 C176 0.929 . S
H189 C178 0.929 . S
O190 Co165 2.351 . S
O190 C193 1.244 . S
O191 Co165 2.155 . S
O191 C193 1.240 . S
O192 Co165 2.096 . S
O192 C173 1.247 . S
C193 O190 1.244 . S
C193 O191 1.240 . S
H194 C168 0.931 . S
H195 C177 0.931 . S
H196 C181 0.929 . S
H197 C183 0.930 . S
Co198 N202 2.148 . S
Co198 N208 2.128 . S
Co198 N218 2.194 . S
Co198 O223 2.351 . S
Co198 O224 2.155 . S
Co198 O225 2.096 . S
C199 N202 1.301 . S
C199 N203 1.328 . S
C199 H204 0.930 . S
C200 C201 1.333 . S
C200 N202 1.317 . S
C200 H205 0.930 . S
C201 C200 1.333 . S
C201 N203 1.350 . S
C201 H227 0.931 . S
N202 Co198 2.148 . S
N202 C199 1.301 . S
N202 C200 1.317 . S
N203 C199 1.328 . S
N203 C201 1.350 . S
H204 C199 0.930 . S
H205 C200 0.930 . S
C206 O207 1.224 . S
C206 O225 1.247 . S
O207 C206 1.224 . S
N208 Co198 2.128 . S
N208 C209 1.355 . S
N208 C211 1.311 . S
C209 N208 1.355 . S
C209 C210 1.363 . S
C209 H221 0.929 . S
C210 C209 1.363 . S
C210 N212 1.375 . S
C210 H228 0.931 . S
C211 N208 1.311 . S
C211 N212 1.347 . S
C211 H222 0.929 . S
N212 C210 1.375 . S
N212 C211 1.347 . S
C213 C216 1.365 . S
C213 N218 1.328 . S
C213 H219 0.929 . S
C214 C215 1.362 . S
C214 C217 1.378 . S
C214 H229 0.929 . S
C215 C214 1.362 . S
C215 C216 1.366 . S
C216 C213 1.365 . S
C216 C215 1.366 . S
C216 H230 0.930 . S
C217 C214 1.378 . S
C217 N218 1.315 . S
C217 H220 0.930 . S
N218 Co198 2.194 . S
N218 C213 1.328 . S
N218 C217 1.315 . S
H219 C213 0.929 . S
H220 C217 0.930 . S
H221 C209 0.929 . S
H222 C211 0.929 . S
O223 Co198 2.351 . S
O223 C226 1.244 . S
O224 Co198 2.155 . S
O224 C226 1.240 . S
O225 Co198 2.096 . S
O225 C206 1.247 . S
C226 O223 1.244 . S
C226 O224 1.240 . S
H227 C201 0.931 . S
H228 C210 0.931 . S
H229 C214 0.929 . S
H230 C216 0.930 . S
Co231 N235 2.148 . S
Co231 N241 2.128 . S
Co231 N251 2.194 . S
Co231 O256 2.351 . S
Co231 O257 2.155 . S
Co231 O258 2.096 . S
C232 N235 1.301 . S
C232 N236 1.328 . S
C232 H237 0.930 . S
C233 C234 1.333 . S
C233 N235 1.317 . S
C233 H238 0.930 . S
C234 C233 1.333 . S
C234 N236 1.350 . S
C234 H260 0.931 . S
N235 Co231 2.148 . S
N235 C232 1.301 . S
N235 C233 1.317 . S
N236 C232 1.328 . S
N236 C234 1.350 . S
H237 C232 0.930 . S
H238 C233 0.930 . S
C239 O240 1.224 . S
C239 O258 1.247 . S
O240 C239 1.224 . S
N241 Co231 2.128 . S
N241 C242 1.355 . S
N241 C244 1.311 . S
C242 N241 1.355 . S
C242 C243 1.363 . S
C242 H254 0.929 . S
C243 C242 1.363 . S
C243 N245 1.375 . S
C243 H261 0.931 . S
C244 N241 1.311 . S
C244 N245 1.347 . S
C244 H255 0.929 . S
N245 C243 1.375 . S
N245 C244 1.347 . S
C246 C249 1.365 . S
C246 N251 1.328 . S
C246 H252 0.929 . S
C247 C248 1.362 . S
C247 C250 1.378 . S
C247 H262 0.929 . S
C248 C247 1.362 . S
C248 C249 1.366 . S
C249 C246 1.365 . S
C249 C248 1.366 . S
C249 H263 0.930 . S
C250 C247 1.378 . S
C250 N251 1.315 . S
C250 H253 0.930 . S
N251 Co231 2.194 . S
N251 C246 1.328 . S
N251 C250 1.315 . S
H252 C246 0.929 . S
H253 C250 0.930 . S
H254 C242 0.929 . S
H255 C244 0.929 . S
O256 Co231 2.351 . S
O256 C259 1.244 . S
O257 Co231 2.155 . S
O257 C259 1.240 . S
O258 Co231 2.096 . S
O258 C239 1.247 . S
C259 O256 1.244 . S
C259 O257 1.240 . S
H260 C234 0.931 . S
H261 C243 0.931 . S
H262 C247 0.929 . S
H263 C249 0.930 . S
Co264 N268 2.148 . S
Co264 N274 2.128 . S
Co264 N284 2.194 . S
Co264 O289 2.351 . S
Co264 O290 2.155 . S
Co264 O291 2.096 . S
C265 N268 1.301 . S
C265 N269 1.328 . S
C265 H270 0.930 . S
C266 C267 1.333 . S
C266 N268 1.317 . S
C266 H271 0.930 . S
C267 C266 1.333 . S
C267 N269 1.350 . S
C267 H293 0.931 . S
N268 Co264 2.148 . S
N268 C265 1.301 . S
N268 C266 1.317 . S
N269 C265 1.328 . S
N269 C267 1.350 . S
H270 C265 0.930 . S
H271 C266 0.930 . S
C272 O273 1.224 . S
C272 O291 1.247 . S
O273 C272 1.224 . S
N274 Co264 2.128 . S
N274 C275 1.355 . S
N274 C277 1.311 . S
C275 N274 1.355 . S
C275 C276 1.363 . S
C275 H287 0.929 . S
C276 C275 1.363 . S
C276 N278 1.375 . S
C276 H294 0.931 . S
C277 N274 1.311 . S
C277 N278 1.347 . S
C277 H288 0.929 . S
N278 C276 1.375 . S
N278 C277 1.347 . S
C279 C282 1.365 . S
C279 N284 1.328 . S
C279 H285 0.929 . S
C280 C281 1.362 . S
C280 C283 1.378 . S
C280 H295 0.929 . S
C281 C280 1.362 . S
C281 C282 1.366 . S
C282 C279 1.365 . S
C282 C281 1.366 . S
C282 H296 0.930 . S
C283 C280 1.378 . S
C283 N284 1.315 . S
C283 H286 0.930 . S
N284 Co264 2.194 . S
N284 C279 1.328 . S
N284 C283 1.315 . S
H285 C279 0.929 . S
H286 C283 0.930 . S
H287 C275 0.929 . S
H288 C277 0.929 . S
O289 Co264 2.351 . S
O289 C292 1.244 . S
O290 Co264 2.155 . S
O290 C292 1.240 . S
O291 Co264 2.096 . S
O291 C272 1.247 . S
C292 O289 1.244 . S
C292 O290 1.240 . S
H293 C267 0.931 . S
H294 C276 0.931 . S
H295 C280 0.929 . S
H296 C282 0.930 . S
Co297 N301 2.148 . S
Co297 N307 2.128 . S
Co297 N317 2.194 . S
Co297 O322 2.351 . S
Co297 O323 2.155 . S
Co297 O324 2.096 . S
C298 N301 1.301 . S
C298 N302 1.328 . S
C298 H303 0.930 . S
C299 C300 1.333 . S
C299 N301 1.317 . S
C299 H304 0.930 . S
C300 C299 1.333 . S
C300 N302 1.350 . S
C300 H326 0.931 . S
N301 Co297 2.148 . S
N301 C298 1.301 . S
N301 C299 1.317 . S
N302 C298 1.328 . S
N302 C300 1.350 . S
H303 C298 0.930 . S
H304 C299 0.930 . S
C305 O306 1.224 . S
C305 O324 1.247 . S
O306 C305 1.224 . S
N307 Co297 2.128 . S
N307 C308 1.355 . S
N307 C310 1.311 . S
C308 N307 1.355 . S
C308 C309 1.363 . S
C308 H320 0.929 . S
C309 C308 1.363 . S
C309 N311 1.375 . S
C309 H327 0.931 . S
C310 N307 1.311 . S
C310 N311 1.347 . S
C310 H321 0.929 . S
N311 C309 1.375 . S
N311 C310 1.347 . S
C312 C315 1.365 . S
C312 N317 1.328 . S
C312 H318 0.929 . S
C313 C314 1.362 . S
C313 C316 1.378 . S
C313 H328 0.929 . S
C314 C313 1.362 . S
C314 C315 1.366 . S
C315 C312 1.365 . S
C315 C314 1.366 . S
C315 H329 0.930 . S
C316 C313 1.378 . S
C316 N317 1.315 . S
C316 H319 0.930 . S
N317 Co297 2.194 . S
N317 C312 1.328 . S
N317 C316 1.315 . S
H318 C312 0.929 . S
H319 C316 0.930 . S
H320 C308 0.929 . S
H321 C310 0.929 . S
O322 Co297 2.351 . S
O322 C325 1.244 . S
O323 Co297 2.155 . S
O323 C325 1.240 . S
O324 Co297 2.096 . S
O324 C305 1.247 . S
C325 O322 1.244 . S
C325 O323 1.240 . S
H326 C300 0.931 . S
H327 C309 0.931 . S
H328 C313 0.929 . S
H329 C315 0.930 . S
Co330 N334 2.148 . S
Co330 N340 2.128 . S
Co330 N350 2.194 . S
Co330 O355 2.351 . S
Co330 O356 2.155 . S
Co330 O357 2.096 . S
C331 N334 1.301 . S
C331 N335 1.328 . S
C331 H336 0.930 . S
C332 C333 1.333 . S
C332 N334 1.317 . S
C332 H337 0.930 . S
C333 C332 1.333 . S
C333 N335 1.350 . S
C333 H359 0.931 . S
N334 Co330 2.148 . S
N334 C331 1.301 . S
N334 C332 1.317 . S
N335 C331 1.328 . S
N335 C333 1.350 . S
H336 C331 0.930 . S
H337 C332 0.930 . S
C338 O339 1.224 . S
C338 O357 1.247 . S
O339 C338 1.224 . S
N340 Co330 2.128 . S
N340 C341 1.355 . S
N340 C343 1.311 . S
C341 N340 1.355 . S
C341 C342 1.363 . S
C341 H353 0.929 . S
C342 C341 1.363 . S
C342 N344 1.375 . S
C342 H360 0.931 . S
C343 N340 1.311 . S
C343 N344 1.347 . S
C343 H354 0.929 . S
N344 C342 1.375 . S
N344 C343 1.347 . S
C345 C348 1.365 . S
C345 N350 1.328 . S
C345 H351 0.929 . S
C346 C347 1.362 . S
C346 C349 1.378 . S
C346 H361 0.929 . S
C347 C346 1.362 . S
C347 C348 1.366 . S
C348 C345 1.365 . S
C348 C347 1.366 . S
C348 H362 0.930 . S
C349 C346 1.378 . S
C349 N350 1.315 . S
C349 H352 0.930 . S
N350 Co330 2.194 . S
N350 C345 1.328 . S
N350 C349 1.315 . S
H351 C345 0.929 . S
H352 C349 0.930 . S
H353 C341 0.929 . S
H354 C343 0.929 . S
O355 Co330 2.351 . S
O355 C358 1.244 . S
O356 Co330 2.155 . S
O356 C358 1.240 . S
O357 Co330 2.096 . S
O357 C338 1.247 . S
C358 O355 1.244 . S
C358 O356 1.240 . S
H359 C333 0.931 . S
H360 C342 0.931 . S
H361 C346 0.929 . S
H362 C348 0.930 . S
Co363 N367 2.148 . S
Co363 N373 2.128 . S
Co363 N383 2.194 . S
Co363 O388 2.351 . S
Co363 O389 2.155 . S
Co363 O390 2.096 . S
C364 N367 1.301 . S
C364 N368 1.328 . S
C364 H369 0.930 . S
C365 C366 1.333 . S
C365 N367 1.317 . S
C365 H370 0.930 . S
C366 C365 1.333 . S
C366 N368 1.350 . S
C366 H392 0.931 . S
N367 Co363 2.148 . S
N367 C364 1.301 . S
N367 C365 1.317 . S
N368 C364 1.328 . S
N368 C366 1.350 . S
H369 C364 0.930 . S
H370 C365 0.930 . S
C371 O372 1.224 . S
C371 O390 1.247 . S
O372 C371 1.224 . S
N373 Co363 2.128 . S
N373 C374 1.355 . S
N373 C376 1.311 . S
C374 N373 1.355 . S
C374 C375 1.363 . S
C374 H386 0.929 . S
C375 C374 1.363 . S
C375 N377 1.375 . S
C375 H393 0.931 . S
C376 N373 1.311 . S
C376 N377 1.347 . S
C376 H387 0.929 . S
N377 C375 1.375 . S
N377 C376 1.347 . S
C378 C381 1.365 . S
C378 N383 1.328 . S
C378 H384 0.929 . S
C379 C380 1.362 . S
C379 C382 1.378 . S
C379 H394 0.929 . S
C380 C379 1.362 . S
C380 C381 1.366 . S
C381 C378 1.365 . S
C381 C380 1.366 . S
C381 H395 0.930 . S
C382 C379 1.378 . S
C382 N383 1.315 . S
C382 H385 0.930 . S
N383 Co363 2.194 . S
N383 C378 1.328 . S
N383 C382 1.315 . S
H384 C378 0.929 . S
H385 C382 0.930 . S
H386 C374 0.929 . S
H387 C376 0.929 . S
O388 Co363 2.351 . S
O388 C391 1.244 . S
O389 Co363 2.155 . S
O389 C391 1.240 . S
O390 Co363 2.096 . S
O390 C371 1.247 . S
C391 O388 1.244 . S
C391 O389 1.240 . S
H392 C366 0.931 . S
H393 C375 0.931 . S
H394 C379 0.929 . S
H395 C381 0.930 . S
Co396 N400 2.148 . S
Co396 N406 2.128 . S
Co396 N416 2.194 . S
Co396 O421 2.351 . S
Co396 O422 2.155 . S
Co396 O423 2.096 . S
C397 N400 1.301 . S
C397 N401 1.328 . S
C397 H402 0.930 . S
C398 C399 1.333 . S
C398 N400 1.317 . S
C398 H403 0.930 . S
C399 C398 1.333 . S
C399 N401 1.350 . S
C399 H425 0.931 . S
N400 Co396 2.148 . S
N400 C397 1.301 . S
N400 C398 1.317 . S
N401 C397 1.328 . S
N401 C399 1.350 . S
H402 C397 0.930 . S
H403 C398 0.930 . S
C404 O405 1.224 . S
C404 O423 1.247 . S
O405 C404 1.224 . S
N406 Co396 2.128 . S
N406 C407 1.355 . S
N406 C409 1.311 . S
C407 N406 1.355 . S
C407 C408 1.363 . S
C407 H419 0.929 . S
C408 C407 1.363 . S
C408 N410 1.375 . S
C408 H426 0.931 . S
C409 N406 1.311 . S
C409 N410 1.347 . S
C409 H420 0.929 . S
N410 C408 1.375 . S
N410 C409 1.347 . S
C411 C414 1.365 . S
C411 N416 1.328 . S
C411 H417 0.929 . S
C412 C413 1.362 . S
C412 C415 1.378 . S
C412 H427 0.929 . S
C413 C412 1.362 . S
C413 C414 1.366 . S
C414 C411 1.365 . S
C414 C413 1.366 . S
C414 H428 0.930 . S
C415 C412 1.378 . S
C415 N416 1.315 . S
C415 H418 0.930 . S
N416 Co396 2.194 . S
N416 C411 1.328 . S
N416 C415 1.315 . S
H417 C411 0.929 . S
H418 C415 0.930 . S
H419 C407 0.929 . S
H420 C409 0.929 . S
O421 Co396 2.351 . S
O421 C424 1.244 . S
O422 Co396 2.155 . S
O422 C424 1.240 . S
O423 Co396 2.096 . S
O423 C404 1.247 . S
C424 O421 1.244 . S
C424 O422 1.240 . S
H425 C399 0.931 . S
H426 C408 0.931 . S
H427 C412 0.929 . S
H428 C414 0.930 . S
Co429 N433 2.148 . S
Co429 N439 2.128 . S
Co429 N449 2.194 . S
Co429 O454 2.351 . S
Co429 O455 2.155 . S
Co429 O456 2.096 . S
C430 N433 1.301 . S
C430 N434 1.328 . S
C430 H435 0.930 . S
C431 C432 1.333 . S
C431 N433 1.317 . S
C431 H436 0.930 . S
C432 C431 1.333 . S
C432 N434 1.350 . S
C432 H458 0.931 . S
N433 Co429 2.148 . S
N433 C430 1.301 . S
N433 C431 1.317 . S
N434 C430 1.328 . S
N434 C432 1.350 . S
H435 C430 0.930 . S
H436 C431 0.930 . S
C437 O438 1.224 . S
C437 O456 1.247 . S
O438 C437 1.224 . S
N439 Co429 2.128 . S
N439 C440 1.355 . S
N439 C442 1.311 . S
C440 N439 1.355 . S
C440 C441 1.363 . S
C440 H452 0.929 . S
C441 C440 1.363 . S
C441 N443 1.375 . S
C441 H459 0.931 . S
C442 N439 1.311 . S
C442 N443 1.347 . S
C442 H453 0.929 . S
N443 C441 1.375 . S
N443 C442 1.347 . S
C444 C447 1.365 . S
C444 N449 1.328 . S
C444 H450 0.929 . S
C445 C446 1.362 . S
C445 C448 1.378 . S
C445 H460 0.929 . S
C446 C445 1.362 . S
C446 C447 1.366 . S
C447 C444 1.365 . S
C447 C446 1.366 . S
C447 H461 0.930 . S
C448 C445 1.378 . S
C448 N449 1.315 . S
C448 H451 0.930 . S
N449 Co429 2.194 . S
N449 C444 1.328 . S
N449 C448 1.315 . S
H450 C444 0.929 . S
H451 C448 0.930 . S
H452 C440 0.929 . S
H453 C442 0.929 . S
O454 Co429 2.351 . S
O454 C457 1.244 . S
O455 Co429 2.155 . S
O455 C457 1.240 . S
O456 Co429 2.096 . S
O456 C437 1.247 . S
C457 O454 1.244 . S
C457 O455 1.240 . S
H458 C432 0.931 . S
H459 C441 0.931 . S
H460 C445 0.929 . S
H461 C447 0.930 . S
Co462 N466 2.148 . S
Co462 N472 2.128 . S
Co462 N482 2.194 . S
Co462 O487 2.351 . S
Co462 O488 2.155 . S
Co462 O489 2.096 . S
C463 N466 1.301 . S
C463 N467 1.328 . S
C463 H468 0.930 . S
C464 C465 1.333 . S
C464 N466 1.317 . S
C464 H469 0.930 . S
C465 C464 1.333 . S
C465 N467 1.350 . S
C465 H491 0.931 . S
N466 Co462 2.148 . S
N466 C463 1.301 . S
N466 C464 1.317 . S
N467 C463 1.328 . S
N467 C465 1.350 . S
H468 C463 0.930 . S
H469 C464 0.930 . S
C470 O471 1.224 . S
C470 O489 1.247 . S
O471 C470 1.224 . S
N472 Co462 2.128 . S
N472 C473 1.355 . S
N472 C475 1.311 . S
C473 N472 1.355 . S
C473 C474 1.363 . S
C473 H485 0.929 . S
C474 C473 1.363 . S
C474 N476 1.375 . S
C474 H492 0.931 . S
C475 N472 1.311 . S
C475 N476 1.347 . S
C475 H486 0.929 . S
N476 C474 1.375 . S
N476 C475 1.347 . S
C477 C480 1.365 . S
C477 N482 1.328 . S
C477 H483 0.929 . S
C478 C479 1.362 . S
C478 C481 1.378 . S
C478 H493 0.929 . S
C479 C478 1.362 . S
C479 C480 1.366 . S
C480 C477 1.365 . S
C480 C479 1.366 . S
C480 H494 0.930 . S
C481 C478 1.378 . S
C481 N482 1.315 . S
C481 H484 0.930 . S
N482 Co462 2.194 . S
N482 C477 1.328 . S
N482 C481 1.315 . S
H483 C477 0.929 . S
H484 C481 0.930 . S
H485 C473 0.929 . S
H486 C475 0.929 . S
O487 Co462 2.351 . S
O487 C490 1.244 . S
O488 Co462 2.155 . S
O488 C490 1.240 . S
O489 Co462 2.096 . S
O489 C470 1.247 . S
C490 O487 1.244 . S
C490 O488 1.240 . S
H491 C465 0.931 . S
H492 C474 0.931 . S
H493 C478 0.929 . S
H494 C480 0.930 . S
Co495 N499 2.148 . S
Co495 N505 2.128 . S
Co495 N515 2.194 . S
Co495 O520 2.351 . S
Co495 O521 2.155 . S
Co495 O522 2.096 . S
C496 N499 1.301 . S
C496 N500 1.328 . S
C496 H501 0.930 . S
C497 C498 1.333 . S
C497 N499 1.317 . S
C497 H502 0.930 . S
C498 C497 1.333 . S
C498 N500 1.350 . S
C498 H524 0.931 . S
N499 Co495 2.148 . S
N499 C496 1.301 . S
N499 C497 1.317 . S
N500 C496 1.328 . S
N500 C498 1.350 . S
H501 C496 0.930 . S
H502 C497 0.930 . S
C503 O504 1.224 . S
C503 O522 1.247 . S
O504 C503 1.224 . S
N505 Co495 2.128 . S
N505 C506 1.355 . S
N505 C508 1.311 . S
C506 N505 1.355 . S
C506 C507 1.363 . S
C506 H518 0.929 . S
C507 C506 1.363 . S
C507 N509 1.375 . S
C507 H525 0.931 . S
C508 N505 1.311 . S
C508 N509 1.347 . S
C508 H519 0.929 . S
N509 C507 1.375 . S
N509 C508 1.347 . S
C510 C513 1.365 . S
C510 N515 1.328 . S
C510 H516 0.929 . S
C511 C512 1.362 . S
C511 C514 1.378 . S
C511 H526 0.929 . S
C512 C511 1.362 . S
C512 C513 1.366 . S
C513 C510 1.365 . S
C513 C512 1.366 . S
C513 H527 0.930 . S
C514 C511 1.378 . S
C514 N515 1.315 . S
C514 H517 0.930 . S
N515 Co495 2.194 . S
N515 C510 1.328 . S
N515 C514 1.315 . S
H516 C510 0.929 . S
H517 C514 0.930 . S
H518 C506 0.929 . S
H519 C508 0.929 . S
O520 Co495 2.351 . S
O520 C523 1.244 . S
O521 Co495 2.155 . S
O521 C523 1.240 . S
O522 Co495 2.096 . S
O522 C503 1.247 . S
C523 O520 1.244 . S
C523 O521 1.240 . S
H524 C498 0.931 . S
H525 C507 0.931 . S
H526 C511 0.929 . S
H527 C513 0.930 . S
H528 C534 0.930 1_545 S
H529 C537 0.930 . S
H530 C538 0.930 . S
H531 C539 0.930 . S
H532 C542 0.930 . S
H533 C543 0.930 . S
C534 H528 0.930 1_565 S
C534 C535 1.354 1_565 S
C534 C536 1.415 . S
C535 C534 1.354 1_545 S
C535 C537 1.418 1_545 S
C536 C534 1.415 . S
C536 C541 1.425 . S
C536 C543 1.409 . S
C537 H529 0.930 . S
C537 C535 1.418 1_565 S
C537 C538 1.362 . S
C538 H530 0.930 . S
C538 C537 1.362 . S
C538 C541 1.409 . S
C539 H531 0.930 . S
C539 C540 1.355 . S
C539 C541 1.415 . S
C540 C539 1.355 . S
C540 C542 1.419 . S
C541 C536 1.425 . S
C541 C538 1.409 . S
C541 C539 1.415 . S
C542 H532 0.930 . S
C542 C540 1.419 . S
C542 C543 1.362 . S
C543 H533 0.930 . S
C543 C536 1.409 . S
C543 C542 1.362 . S
H544 C550 0.930 . S
H545 C553 0.930 . S
H546 C554 0.930 . S
H547 C555 0.930 . S
H548 C558 0.930 . S
H549 C559 0.930 . S
C550 H544 0.930 . S
C550 C551 1.355 . S
C550 C552 1.415 . S
C551 C550 1.355 . S
C551 C553 1.419 . S
C552 C550 1.415 . S
C552 C557 1.425 . S
C552 C559 1.409 . S
C553 H545 0.930 . S
C553 C551 1.419 . S
C553 C554 1.362 . S
C554 H546 0.930 . S
C554 C553 1.362 . S
C554 C557 1.409 . S
C555 H547 0.930 . S
C555 C556 1.355 . S
C555 C557 1.415 . S
C556 C555 1.355 . S
C556 C558 1.419 . S
C557 C552 1.425 . S
C557 C554 1.409 . S
C557 C555 1.415 . S
C558 H548 0.930 . S
C558 C556 1.419 . S
C558 C559 1.362 . S
C559 H549 0.930 . S
C559 C552 1.409 . S
C559 C558 1.362 . S
H560 C566 0.930 . S
H561 C569 0.930 . S
H562 C570 0.930 . S
H563 C571 0.930 . S
H564 C574 0.930 . S
H565 C575 0.930 . S
C566 H560 0.930 . S
C566 C567 1.355 1_545 S
C566 C568 1.415 . S
C567 C566 1.355 1_565 S
C567 C569 1.419 . S
C568 C566 1.415 . S
C568 C573 1.425 . S
C568 C575 1.409 . S
C569 H561 0.930 . S
C569 C567 1.419 . S
C569 C570 1.362 1_565 S
C570 H562 0.930 . S
C570 C569 1.362 1_545 S
C570 C573 1.409 . S
C571 H563 0.930 . S
C571 C572 1.355 . S
C571 C573 1.415 . S
C572 C571 1.355 . S
C572 C574 1.419 . S
C573 C568 1.425 . S
C573 C570 1.409 . S
C573 C571 1.415 . S
C574 H564 0.930 . S
C574 C572 1.419 . S
C574 C575 1.362 . S
C575 H565 0.930 . S
C575 C568 1.409 . S
C575 C574 1.362 . S
H576 C582 0.930 . S
H577 C585 0.930 . S
H578 C586 0.930 . S
H579 C587 0.930 . S
H580 C590 0.930 . S
H581 C591 0.930 . S
C582 H576 0.930 . S
C582 C583 1.355 . S
C582 C584 1.415 . S
C583 C582 1.355 . S
C583 C585 1.419 . S
C584 C582 1.415 . S
C584 C589 1.425 . S
C584 C591 1.409 . S
C585 H577 0.930 . S
C585 C583 1.419 . S
C585 C586 1.362 . S
C586 H578 0.930 . S
C586 C585 1.362 . S
C586 C589 1.409 . S
C587 H579 0.930 . S
C587 C588 1.355 . S
C587 C589 1.415 . S
C588 C587 1.355 . S
C588 C590 1.419 . S
C589 C584 1.425 . S
C589 C586 1.409 . S
C589 C587 1.415 . S
C590 H580 0.930 . S
C590 C588 1.419 . S
C590 C591 1.362 . S
C591 H581 0.930 . S
C591 C584 1.409 . S
C591 C590 1.362 . S
H592 C598 0.930 . S
H593 C601 0.930 . S
H594 C602 0.930 . S
H595 C603 0.930 . S
H596 C606 0.930 . S
H597 C607 0.930 . S
C598 H592 0.930 . S
C598 C599 1.355 1_545 S
C598 C600 1.415 . S
C599 C598 1.355 1_565 S
C599 C601 1.419 . S
C600 C598 1.415 . S
C600 C605 1.425 . S
C600 C607 1.409 . S
C601 H593 0.930 . S
C601 C599 1.419 . S
C601 C602 1.362 1_565 S
C602 H594 0.930 . S
C602 C601 1.362 1_545 S
C602 C605 1.409 . S
C603 H595 0.930 . S
C603 C604 1.355 . S
C603 C605 1.415 . S
C604 C603 1.355 . S
C604 C606 1.419 . S
C605 C600 1.425 . S
C605 C602 1.409 . S
C605 C603 1.415 . S
C606 H596 0.930 . S
C606 C604 1.419 . S
C606 C607 1.362 . S
C607 H597 0.930 . S
C607 C600 1.409 . S
C607 C606 1.362 . S
H608 C614 0.930 . S
H609 C617 0.930 . S
H610 C618 0.930 . S
H611 C619 0.930 . S
H612 C622 0.930 . S
H613 C623 0.930 . S
C614 H608 0.930 . S
C614 C615 1.355 . S
C614 C616 1.415 . S
C615 C614 1.355 . S
C615 C617 1.419 . S
C616 C614 1.415 . S
C616 C621 1.425 . S
C616 C623 1.409 . S
C617 H609 0.930 . S
C617 C615 1.419 . S
C617 C618 1.362 . S
C618 H610 0.930 . S
C618 C617 1.362 . S
C618 C621 1.409 . S
C619 H611 0.930 . S
C619 C620 1.355 . S
C619 C621 1.415 . S
C620 C619 1.355 . S
C620 C622 1.419 . S
C621 C616 1.425 . S
C621 C618 1.409 . S
C621 C619 1.415 . S
C622 H612 0.930 . S
C622 C620 1.419 . S
C622 C623 1.362 . S
C623 H613 0.930 . S
C623 C616 1.409 . S
C623 C622 1.362 . S
H624 C630 0.930 . S
H625 C633 0.930 1_545 S
H626 C634 0.930 . S
H627 C635 0.930 . S
H628 C638 0.930 . S
H629 C639 0.930 . S
C630 H624 0.930 . S
C630 C631 1.355 1_565 S
C630 C632 1.415 . S
C631 C630 1.355 1_545 S
C631 C633 1.419 1_545 S
C632 C630 1.415 . S
C632 C637 1.425 . S
C632 C639 1.409 . S
C633 H625 0.930 1_565 S
C633 C631 1.419 1_565 S
C633 C634 1.362 . S
C634 H626 0.930 . S
C634 C633 1.362 . S
C634 C637 1.409 . S
C635 H627 0.930 . S
C635 C636 1.355 . S
C635 C637 1.415 . S
C636 C635 1.355 . S
C636 C638 1.419 . S
C637 C632 1.425 . S
C637 C634 1.409 . S
C637 C635 1.415 . S
C638 H628 0.930 . S
C638 C636 1.419 . S
C638 C639 1.362 . S
C639 H629 0.930 . S
C639 C632 1.409 . S
C639 C638 1.362 . S
H640 C646 0.930 . S
H641 C649 0.930 . S
H642 C650 0.930 . S
H643 C651 0.930 . S
H644 C654 0.930 . S
H645 C655 0.930 . S
C646 H640 0.930 . S
C646 C647 1.355 . S
C646 C648 1.415 . S
C647 C646 1.355 . S
C647 C649 1.419 . S
C648 C646 1.415 . S
C648 C653 1.425 . S
C648 C655 1.409 . S
C649 H641 0.930 . S
C649 C647 1.419 . S
C649 C650 1.362 . S
C650 H642 0.930 . S
C650 C649 1.362 . S
C650 C653 1.409 . S
C651 H643 0.930 . S
C651 C652 1.355 . S
C651 C653 1.415 . S
C652 C651 1.355 . S
C652 C654 1.419 . S
C653 C648 1.425 . S
C653 C650 1.409 . S
C653 C651 1.415 . S
C654 H644 0.930 . S
C654 C652 1.419 . S
C654 C655 1.362 . S
C655 H645 0.930 . S
C655 C648 1.409 . S
C655 C654 1.362 . S
H656 C662 0.930 . S
H657 C665 0.930 . S
H658 C666 0.930 . S
H659 C667 0.930 . S
H660 C670 0.930 . S
H661 C671 0.930 . S
C662 H656 0.930 . S
C662 C663 1.355 . S
C662 C664 1.415 . S
C663 C662 1.355 . S
C663 C665 1.419 . S
C664 C662 1.415 . S
C664 C669 1.425 . S
C664 C671 1.409 . S
C665 H657 0.930 . S
C665 C663 1.419 . S
C665 C666 1.362 . S
C666 H658 0.930 . S
C666 C665 1.362 . S
C666 C669 1.409 . S
C667 H659 0.930 . S
C667 C668 1.355 . S
C667 C669 1.415 . S
C668 C667 1.355 . S
C668 C670 1.419 . S
C669 C664 1.425 . S
C669 C666 1.409 . S
C669 C667 1.415 . S
C670 H660 0.930 . S
C670 C668 1.419 . S
C670 C671 1.362 . S
C671 H661 0.930 . S
C671 C664 1.409 . S
C671 C670 1.362 . S
H672 C678 0.930 . S
H673 C681 0.930 . S
H674 C682 0.930 . S
H675 C683 0.930 . S
H676 C686 0.930 . S
H677 C687 0.930 . S
C678 H672 0.930 . S
C678 C679 1.355 . S
C678 C680 1.415 . S
C679 C678 1.355 . S
C679 C681 1.419 . S
C680 C678 1.415 . S
C680 C685 1.425 . S
C680 C687 1.409 . S
C681 H673 0.930 . S
C681 C679 1.419 . S
C681 C682 1.362 . S
C682 H674 0.930 . S
C682 C681 1.362 . S
C682 C685 1.409 . S
C683 H675 0.930 . S
C683 C684 1.355 1_545 S
C683 C685 1.415 . S
C684 C683 1.355 1_565 S
C684 C686 1.419 . S
C685 C680 1.425 . S
C685 C682 1.409 . S
C685 C683 1.415 . S
C686 H676 0.930 . S
C686 C684 1.419 . S
C686 C687 1.362 1_565 S
C687 H677 0.930 . S
C687 C680 1.409 . S
C687 C686 1.362 1_545 S
H688 C694 0.930 . S
H689 C697 0.930 . S
H690 C698 0.930 . S
H691 C699 0.930 . S
H692 C702 0.930 . S
H693 C703 0.930 . S
C694 H688 0.930 . S
C694 C695 1.355 . S
C694 C696 1.415 . S
C695 C694 1.355 . S
C695 C697 1.419 . S
C696 C694 1.415 . S
C696 C701 1.425 . S
C696 C703 1.409 . S
C697 H689 0.930 . S
C697 C695 1.419 . S
C697 C698 1.362 . S
C698 H690 0.930 . S
C698 C697 1.362 . S
C698 C701 1.409 . S
C699 H691 0.930 . S
C699 C700 1.355 . S
C699 C701 1.415 . S
C700 C699 1.355 . S
C700 C702 1.419 . S
C701 C696 1.425 . S
C701 C698 1.409 . S
C701 C699 1.415 . S
C702 H692 0.930 . S
C702 C700 1.419 . S
C702 C703 1.362 . S
C703 H693 0.930 . S
C703 C696 1.409 . S
C703 C702 1.362 . S
H704 C710 0.930 1_545 S
H705 C713 0.930 . S
H706 C714 0.930 . S
H707 C715 0.930 . S
H708 C718 0.930 . S
H709 C719 0.930 . S
C710 H704 0.930 1_565 S
C710 C711 1.355 1_565 S
C710 C712 1.415 . S
C711 C710 1.355 1_545 S
C711 C713 1.419 1_545 S
C712 C710 1.415 . S
C712 C717 1.425 . S
C712 C719 1.409 . S
C713 H705 0.930 . S
C713 C711 1.419 1_565 S
C713 C714 1.362 . S
C714 H706 0.930 . S
C714 C713 1.362 . S
C714 C717 1.409 . S
C715 H707 0.930 . S
C715 C716 1.355 . S
C715 C717 1.415 . S
C716 C715 1.355 . S
C716 C718 1.419 . S
C717 C712 1.425 . S
C717 C714 1.409 . S
C717 C715 1.415 . S
C718 H708 0.930 . S
C718 C716 1.419 . S
C718 C719 1.362 . S
C719 H709 0.930 . S
C719 C712 1.409 . S
C719 C718 1.362 . S
H720 C726 0.930 . S
H721 C729 0.930 . S
H722 C730 0.930 . S
H723 C731 0.930 . S
H724 C734 0.930 . S
H725 C735 0.930 . S
C726 H720 0.930 . S
C726 C727 1.355 . S
C726 C728 1.415 . S
C727 C726 1.355 . S
C727 C729 1.419 . S
C728 C726 1.415 . S
C728 C733 1.425 . S
C728 C735 1.409 . S
C729 H721 0.930 . S
C729 C727 1.419 . S
C729 C730 1.362 . S
C730 H722 0.930 . S
C730 C729 1.362 . S
C730 C733 1.409 . S
C731 H723 0.930 . S
C731 C732 1.355 . S
C731 C733 1.415 . S
C732 C731 1.355 . S
C732 C734 1.419 . S
C733 C728 1.425 . S
C733 C730 1.409 . S
C733 C731 1.415 . S
C734 H724 0.930 . S
C734 C732 1.419 . S
C734 C735 1.362 . S
C735 H725 0.930 . S
C735 C728 1.409 . S
C735 C734 1.362 . S
H736 C742 0.930 . S
H737 C745 0.930 . S
H738 C746 0.930 . S
H739 C747 0.930 . S
H740 C750 0.930 . S
H741 C751 0.930 . S
C742 H736 0.930 . S
C742 C743 1.355 1_565 S
C742 C744 1.415 . S
C743 C742 1.355 1_545 S
C743 C745 1.419 1_545 S
C744 C742 1.415 . S
C744 C749 1.425 . S
C744 C751 1.409 . S
C745 H737 0.930 . S
C745 C743 1.419 1_565 S
C745 C746 1.362 . S
C746 H738 0.930 . S
C746 C745 1.362 . S
C746 C749 1.409 . S
C747 H739 0.930 . S
C747 C748 1.355 . S
C747 C749 1.415 . S
C748 C747 1.355 . S
C748 C750 1.419 . S
C749 C744 1.425 . S
C749 C746 1.409 . S
C749 C747 1.415 . S
C750 H740 0.930 . S
C750 C748 1.419 . S
C750 C751 1.362 . S
C751 H741 0.930 . S
C751 C744 1.409 . S
C751 C750 1.362 . S
H752 C758 0.930 . S
H753 C761 0.930 . S
H754 C762 0.930 . S
H755 C763 0.930 . S
H756 C766 0.930 . S
H757 C767 0.930 . S
C758 H752 0.930 . S
C758 C759 1.355 . S
C758 C760 1.415 . S
C759 C758 1.355 . S
C759 C761 1.419 . S
C760 C758 1.415 . S
C760 C765 1.425 . S
C760 C767 1.409 . S
C761 H753 0.930 . S
C761 C759 1.419 . S
C761 C762 1.362 . S
C762 H754 0.930 . S
C762 C761 1.362 . S
C762 C765 1.409 . S
C763 H755 0.930 . S
C763 C764 1.355 . S
C763 C765 1.415 . S
C764 C763 1.355 . S
C764 C766 1.419 . S
C765 C760 1.425 . S
C765 C762 1.409 . S
C765 C763 1.415 . S
C766 H756 0.930 . S
C766 C764 1.419 . S
C766 C767 1.362 . S
C767 H757 0.930 . S
C767 C760 1.409 . S
C767 C766 1.362 . S
H768 C774 0.930 . S
H769 C777 0.930 . S
H770 C778 0.930 . S
H771 C779 0.930 1_565 S
H772 C782 0.930 . S
H773 C783 0.930 . S
C774 H768 0.930 . S
C774 C775 1.355 . S
C774 C776 1.415 . S
C775 C774 1.355 . S
C775 C777 1.419 . S
C776 C774 1.415 . S
C776 C781 1.425 . S
C776 C783 1.409 . S
C777 H769 0.930 . S
C777 C775 1.419 . S
C777 C778 1.362 . S
C778 H770 0.930 . S
C778 C777 1.362 . S
C778 C781 1.409 . S
C779 H771 0.930 1_545 S
C779 C780 1.355 1_545 S
C779 C781 1.415 . S
C780 C779 1.355 1_565 S
C780 C782 1.419 1_565 S
C781 C776 1.425 . S
C781 C778 1.409 . S
C781 C779 1.415 . S
C782 H772 0.930 . S
C782 C780 1.419 1_545 S
C782 C783 1.362 . S
C783 H773 0.930 . S
C783 C776 1.409 . S
C783 C782 1.362 . S
H784 C790 0.930 . S
H785 C793 0.930 . S
H786 C794 0.930 . S
H787 C795 0.930 . S
H788 C798 0.930 . S
H789 C799 0.930 . S
C790 H784 0.930 . S
C790 C791 1.355 . S
C790 C792 1.415 1_554 S
C791 C790 1.355 . S
C791 C793 1.419 . S
C792 C790 1.415 1_556 S
C792 C797 1.425 1_556 S
C792 C799 1.409 . S
C793 H785 0.930 . S
C793 C791 1.419 . S
C793 C794 1.362 . S
C794 H786 0.930 . S
C794 C793 1.362 . S
C794 C797 1.409 . S
C795 H787 0.930 . S
C795 C796 1.355 . S
C795 C797 1.415 1_556 S
C796 C795 1.355 . S
C796 C798 1.419 . S
C797 C792 1.425 1_554 S
C797 C794 1.409 . S
C797 C795 1.415 1_554 S
C798 H788 0.930 . S
C798 C796 1.419 . S
C798 C799 1.362 . S
C799 H789 0.930 . S
C799 C792 1.409 . S
C799 C798 1.362 . S
H800 C806 0.930 . S
H801 C809 0.930 . S
H802 C810 0.930 . S
H803 C811 0.930 . S
H804 C814 0.930 . S
H805 C815 0.930 . S
C806 H800 0.930 . S
C806 C807 1.355 . S
C806 C808 1.422 . S
C807 C806 1.355 . S
C807 C809 1.419 . S
C808 C806 1.422 . S
C808 C813 1.425 1_556 S
C808 C815 1.402 1_556 S
C809 H801 0.930 . S
C809 C807 1.419 . S
C809 C810 1.362 . S
C810 H802 0.930 . S
C810 C809 1.362 . S
C810 C813 1.402 1_556 S
C811 H803 0.930 . S
C811 C812 1.355 . S
C811 C813 1.422 . S
C812 C811 1.355 . S
C812 C814 1.419 . S
C813 C808 1.425 1_554 S
C813 C810 1.402 1_554 S
C813 C811 1.422 . S
C814 H804 0.930 . S
C814 C812 1.419 . S
C814 C815 1.362 . S
C815 H805 0.930 . S
C815 C808 1.402 1_554 S
C815 C814 1.362 . S
H816 C822 0.930 . S
H817 C825 0.930 . S
H818 C826 0.930 . S
H819 C827 0.930 . S
H820 C830 0.930 . S
H821 C831 0.930 . S
C822 H816 0.930 . S
C822 C823 1.355 . S
C822 C824 1.415 . S
C823 C822 1.355 . S
C823 C825 1.419 . S
C824 C822 1.415 . S
C824 C829 1.425 . S
C824 C831 1.409 . S
C825 H817 0.930 . S
C825 C823 1.419 . S
C825 C826 1.362 . S
C826 H818 0.930 . S
C826 C825 1.362 . S
C826 C829 1.409 . S
C827 H819 0.930 . S
C827 C828 1.355 . S
C827 C829 1.415 . S
C828 C827 1.355 . S
C828 C830 1.419 . S
C829 C824 1.425 . S
C829 C826 1.409 . S
C829 C827 1.415 . S
C830 H820 0.930 . S
C830 C828 1.419 . S
C830 C831 1.362 . S
C831 H821 0.930 . S
C831 C824 1.409 . S
C831 C830 1.362 . S
H832 C838 0.930 . S
H833 C841 0.930 . S
H834 C842 0.930 . S
H835 C843 0.930 . S
H836 C846 0.930 . S
H837 C847 0.930 . S
C838 H832 0.930 . S
C838 C839 1.355 . S
C838 C840 1.415 . S
C839 C838 1.355 . S
C839 C841 1.419 . S
C840 C838 1.415 . S
C840 C845 1.425 . S
C840 C847 1.409 . S
C841 H833 0.930 . S
C841 C839 1.419 . S
C841 C842 1.362 . S
C842 H834 0.930 . S
C842 C841 1.362 . S
C842 C845 1.409 . S
C843 H835 0.930 . S
C843 C844 1.355 . S
C843 C845 1.415 . S
C844 C843 1.355 . S
C844 C846 1.419 . S
C845 C840 1.425 . S
C845 C842 1.409 . S
C845 C843 1.415 . S
C846 H836 0.930 . S
C846 C844 1.419 . S
C846 C847 1.362 . S
C847 H837 0.930 . S
C847 C840 1.409 . S
C847 C846 1.362 . S
H848 C854 0.930 . S
H849 C857 0.930 . S
H850 C858 0.921 1_554 S
H851 C859 0.930 . S
H852 C862 0.930 . S
H853 C863 0.921 1_556 S
C854 H848 0.930 . S
C854 C855 1.355 . S
C854 C856 1.415 . S
C855 C854 1.355 . S
C855 C857 1.419 . S
C856 C854 1.415 . S
C856 C861 1.425 1_556 S
C856 C863 1.409 1_556 S
C857 H849 0.930 . S
C857 C855 1.419 . S
C857 C858 1.362 . S
C858 H850 0.921 1_556 S
C858 C857 1.362 . S
C858 C861 1.409 1_556 S
C859 H851 0.930 . S
C859 C860 1.355 . S
C859 C861 1.415 . S
C860 C859 1.355 . S
C860 C862 1.419 . S
C861 C856 1.425 1_554 S
C861 C858 1.409 1_554 S
C861 C859 1.415 . S
C862 H852 0.930 . S
C862 C860 1.419 . S
C862 C863 1.362 . S
C863 H853 0.921 1_554 S
C863 C856 1.409 1_554 S
C863 C862 1.362 . S
H864 C870 0.930 . S
H865 C873 0.930 . S
H866 C874 0.930 . S
H867 C875 0.930 . S
H868 C878 0.930 . S
H869 C879 0.930 . S
C870 H864 0.930 . S
C870 C871 1.355 . S
C870 C872 1.415 1_554 S
C871 C870 1.355 . S
C871 C873 1.419 . S
C872 C870 1.415 1_556 S
C872 C877 1.425 1_556 S
C872 C879 1.409 . S
C873 H865 0.930 . S
C873 C871 1.419 . S
C873 C874 1.362 . S
C874 H866 0.930 . S
C874 C873 1.362 . S
C874 C877 1.409 . S
C875 H867 0.930 . S
C875 C876 1.355 . S
C875 C877 1.415 1_556 S
C876 C875 1.355 . S
C876 C878 1.419 . S
C877 C872 1.425 1_554 S
C877 C874 1.409 . S
C877 C875 1.415 1_554 S
C878 H868 0.930 . S
C878 C876 1.419 . S
C878 C879 1.362 . S
C879 H869 0.930 . S
C879 C872 1.409 . S
C879 C878 1.362 . S
H880 C886 0.930 . S
H881 C889 0.930 . S
H882 C890 0.930 . S
H883 C891 0.930 . S
H884 C894 0.930 . S
H885 C895 0.930 . S
C886 H880 0.930 . S
C886 C887 1.355 . S
C886 C888 1.415 . S
C887 C886 1.355 . S
C887 C889 1.419 . S
C888 C886 1.415 . S
C888 C893 1.425 . S
C888 C895 1.409 . S
C889 H881 0.930 . S
C889 C887 1.419 . S
C889 C890 1.362 . S
C890 H882 0.930 . S
C890 C889 1.362 . S
C890 C893 1.409 . S
C891 H883 0.930 . S
C891 C892 1.355 . S
C891 C893 1.415 . S
C892 C891 1.355 . S
C892 C894 1.419 . S
C893 C888 1.425 . S
C893 C890 1.409 . S
C893 C891 1.415 . S
C894 H884 0.930 . S
C894 C892 1.419 . S
C894 C895 1.362 . S
C895 H885 0.930 . S
C895 C888 1.409 . S
C895 C894 1.362 . S
H896 C902 0.930 . S
H897 C905 0.930 . S
H898 C906 0.930 . S
H899 C907 0.930 . S
H900 C910 0.930 . S
H901 C911 0.930 . S
C902 H896 0.930 . S
C902 C903 1.355 . S
C902 C904 1.415 . S
C903 C902 1.355 . S
C903 C905 1.419 . S
C904 C902 1.415 . S
C904 C909 1.425 . S
C904 C911 1.409 . S
C905 H897 0.930 . S
C905 C903 1.419 . S
C905 C906 1.362 . S
C906 H898 0.930 . S
C906 C905 1.362 . S
C906 C909 1.409 . S
C907 H899 0.930 . S
C907 C908 1.355 . S
C907 C909 1.415 . S
C908 C907 1.355 . S
C908 C910 1.419 . S
C909 C904 1.425 . S
C909 C906 1.409 . S
C909 C907 1.415 . S
C910 H900 0.930 . S
C910 C908 1.419 . S
C910 C911 1.362 . S
C911 H901 0.930 . S
C911 C904 1.409 . S
C911 C910 1.362 . S
H912 C918 0.930 . S
H913 C921 0.930 . S
H914 C922 0.930 . S
H915 C923 0.930 . S
H916 C926 0.930 . S
H917 C927 0.930 . S
C918 H912 0.930 . S
C918 C919 1.355 . S
C918 C920 1.415 . S
C919 C918 1.355 . S
C919 C921 1.419 . S
C920 C918 1.415 . S
C920 C925 1.425 1_545 S
C920 C927 1.409 . S
C921 H913 0.930 . S
C921 C919 1.419 . S
C921 C922 1.362 1_545 S
C922 H914 0.930 . S
C922 C921 1.362 1_565 S
C922 C925 1.409 . S
C923 H915 0.930 . S
C923 C924 1.355 . S
C923 C925 1.415 . S
C924 C923 1.355 . S
C924 C926 1.419 . S
C925 C920 1.425 1_565 S
C925 C922 1.409 . S
C925 C923 1.415 . S
C926 H916 0.930 . S
C926 C924 1.419 . S
C926 C927 1.362 1_565 S
C927 H917 0.930 . S
C927 C920 1.409 . S
C927 C926 1.362 1_545 S
H928 C934 0.930 . S
H929 C937 0.930 . S
H930 C938 0.930 . S
H931 C939 0.930 . S
H932 C942 0.930 . S
H933 C943 0.930 . S
C934 H928 0.930 . S
C934 C935 1.355 . S
C934 C936 1.415 . S
C935 C934 1.355 . S
C935 C937 1.419 . S
C936 C934 1.415 . S
C936 C941 1.425 . S
C936 C943 1.409 . S
C937 H929 0.930 . S
C937 C935 1.419 . S
C937 C938 1.362 . S
C938 H930 0.930 . S
C938 C937 1.362 . S
C938 C941 1.409 . S
C939 H931 0.930 . S
C939 C940 1.355 . S
C939 C941 1.415 . S
C940 C939 1.355 . S
C940 C942 1.419 . S
C941 C936 1.425 . S
C941 C938 1.409 . S
C941 C939 1.415 . S
C942 H932 0.930 . S
C942 C940 1.419 . S
C942 C943 1.362 . S
C943 H933 0.930 . S
C943 C936 1.409 . S
C943 C942 1.362 . S
H944 C950 0.930 . S
H945 C953 0.930 . S
H946 C954 0.930 . S
H947 C955 0.930 . S
H948 C958 0.930 . S
H949 C959 0.930 . S
C950 H944 0.930 . S
C950 C951 1.355 . S
C950 C952 1.415 1_565 S
C951 C950 1.355 . S
C951 C953 1.419 . S
C952 C950 1.415 1_545 S
C952 C957 1.425 1_545 S
C952 C959 1.409 . S
C953 H945 0.930 . S
C953 C951 1.419 . S
C953 C954 1.362 . S
C954 H946 0.930 . S
C954 C953 1.362 . S
C954 C957 1.409 . S
C955 H947 0.930 . S
C955 C956 1.355 . S
C955 C957 1.415 1_545 S
C956 C955 1.355 . S
C956 C958 1.419 . S
C957 C952 1.425 1_565 S
C957 C954 1.409 . S
C957 C955 1.415 1_565 S
C958 H948 0.930 . S
C958 C956 1.419 . S
C958 C959 1.362 . S
C959 H949 0.930 . S
C959 C952 1.409 . S
C959 C958 1.362 . S
H960 C966 0.930 . S
H961 C969 0.930 . S
H962 C970 0.930 . S
H963 C971 0.930 . S
H964 C974 0.930 . S
H965 C975 0.930 . S
C966 H960 0.930 . S
C966 C967 1.355 . S
C966 C968 1.415 . S
C967 C966 1.355 . S
C967 C969 1.419 . S
C968 C966 1.415 . S
C968 C973 1.425 . S
C968 C975 1.409 . S
C969 H961 0.930 . S
C969 C967 1.419 . S
C969 C970 1.362 . S
C970 H962 0.930 . S
C970 C969 1.362 . S
C970 C973 1.409 . S
C971 H963 0.930 . S
C971 C972 1.355 . S
C971 C973 1.415 . S
C972 C971 1.355 . S
C972 C974 1.419 . S
C973 C968 1.425 . S
C973 C970 1.409 . S
C973 C971 1.415 . S
C974 H964 0.930 . S
C974 C972 1.419 . S
C974 C975 1.362 . S
C975 H965 0.930 . S
C975 C968 1.409 . S
C975 C974 1.362 . S
H976 C982 0.930 . S
H977 C985 0.930 . S
H978 C986 0.930 . S
H979 C987 0.930 . S
H980 C990 0.930 . S
H981 C991 0.930 . S
C982 H976 0.930 . S
C982 C983 1.355 . S
C982 C984 1.415 . S
C983 C982 1.355 . S
C983 C985 1.419 . S
C984 C982 1.415 . S
C984 C989 1.425 . S
C984 C991 1.409 . S
C985 H977 0.930 . S
C985 C983 1.419 . S
C985 C986 1.362 . S
C986 H978 0.930 . S
C986 C985 1.362 . S
C986 C989 1.409 . S
C987 H979 0.930 . S
C987 C988 1.355 . S
C987 C989 1.415 . S
C988 C987 1.355 . S
C988 C990 1.419 . S
C989 C984 1.425 . S
C989 C986 1.409 . S
C989 C987 1.415 . S
C990 H980 0.930 . S
C990 C988 1.419 . S
C990 C991 1.362 . S
C991 H981 0.930 . S
C991 C984 1.409 . S
C991 C990 1.362 . S
H992 C998 0.930 1_565 S
H993 C1001 0.930 . S
H994 C1002 0.930 . S
H995 C1003 0.930 1_545 S
H996 C1006 0.930 . S
H997 C1007 0.930 . S
C998 H992 0.930 1_545 S
C998 C999 1.355 . S
C998 C1000 1.415 1_545 S
C999 C998 1.355 . S
C999 C1001 1.419 . S
C1000 C998 1.415 1_565 S
C1000 C1005 1.425 1_565 S
C1000 C1007 1.409 . S
C1001 H993 0.930 . S
C1001 C999 1.419 . S
C1001 C1002 1.362 . S
C1002 H994 0.930 . S
C1002 C1001 1.362 . S
C1002 C1005 1.409 . S
C1003 H995 0.930 1_565 S
C1003 C1004 1.355 . S
C1003 C1005 1.415 1_565 S
C1004 C1003 1.355 . S
C1004 C1006 1.419 . S
C1005 C1000 1.425 1_545 S
C1005 C1002 1.409 . S
C1005 C1003 1.415 1_545 S
C1006 H996 0.930 . S
C1006 C1004 1.419 . S
C1006 C1007 1.362 . S
C1007 H997 0.930 . S
C1007 C1000 1.409 . S
C1007 C1006 1.362 . S
H1008 C1014 0.930 . S
H1009 C1017 0.930 . S
H1010 C1018 0.930 . S
H1011 C1019 0.930 . S
H1012 C1022 0.930 . S
H1013 C1023 0.930 . S
C1014 H1008 0.930 . S
C1014 C1015 1.355 . S
C1014 C1016 1.415 . S
C1015 C1014 1.355 . S
C1015 C1017 1.419 . S
C1016 C1014 1.415 . S
C1016 C1021 1.425 . S
C1016 C1023 1.409 . S
C1017 H1009 0.930 . S
C1017 C1015 1.419 . S
C1017 C1018 1.362 . S
C1018 H1010 0.930 . S
C1018 C1017 1.362 . S
C1018 C1021 1.409 . S
C1019 H1011 0.930 . S
C1019 C1020 1.355 . S
C1019 C1021 1.415 . S
C1020 C1019 1.355 . S
C1020 C1022 1.419 . S
C1021 C1016 1.425 . S
C1021 C1018 1.409 . S
C1021 C1019 1.415 . S
C1022 H1012 0.930 . S
C1022 C1020 1.419 . S
C1022 C1023 1.362 . S
C1023 H1013 0.930 . S
C1023 C1016 1.409 . S
C1023 C1022 1.362 . S
H1024 C1030 0.930 1_565 S
H1025 C1033 0.930 . S
H1026 C1034 0.930 . S
H1027 C1035 0.930 1_545 S
H1028 C1038 0.930 . S
H1029 C1039 0.930 . S
C1030 H1024 0.930 1_545 S
C1030 C1031 1.355 . S
C1030 C1032 1.415 1_545 S
C1031 C1030 1.355 . S
C1031 C1033 1.419 . S
C1032 C1030 1.415 1_565 S
C1032 C1037 1.425 1_565 S
C1032 C1039 1.409 . S
C1033 H1025 0.930 . S
C1033 C1031 1.419 . S
C1033 C1034 1.362 . S
C1034 H1026 0.930 . S
C1034 C1033 1.362 . S
C1034 C1037 1.409 . S
C1035 H1027 0.930 1_565 S
C1035 C1036 1.355 . S
C1035 C1037 1.415 1_565 S
C1036 C1035 1.355 . S
C1036 C1038 1.419 . S
C1037 C1032 1.425 1_545 S
C1037 C1034 1.409 . S
C1037 C1035 1.415 1_545 S
C1038 H1028 0.930 . S
C1038 C1036 1.419 . S
C1038 C1039 1.362 . S
C1039 H1029 0.930 . S
C1039 C1032 1.409 . S
C1039 C1038 1.362 . S
H1040 C1046 0.930 . S
H1041 C1049 0.930 . S
H1042 C1050 0.930 . S
H1043 C1051 0.930 . S
H1044 C1054 0.930 . S
H1045 C1055 0.930 . S
C1046 H1040 0.930 . S
C1046 C1047 1.355 . S
C1046 C1048 1.415 . S
C1047 C1046 1.355 . S
C1047 C1049 1.419 . S
C1048 C1046 1.415 . S
C1048 C1053 1.425 . S
C1048 C1055 1.409 . S
C1049 H1041 0.930 . S
C1049 C1047 1.419 . S
C1049 C1050 1.362 . S
C1050 H1042 0.930 . S
C1050 C1049 1.362 . S
C1050 C1053 1.409 . S
C1051 H1043 0.930 . S
C1051 C1052 1.355 . S
C1051 C1053 1.415 . S
C1052 C1051 1.355 . S
C1052 C1054 1.419 . S
C1053 C1048 1.425 . S
C1053 C1050 1.409 . S
C1053 C1051 1.415 . S
C1054 H1044 0.930 . S
C1054 C1052 1.419 . S
C1054 C1055 1.362 . S
C1055 H1045 0.930 . S
C1055 C1048 1.409 . S
C1055 C1054 1.362 . S
H1056 C1062 0.930 . S
H1057 C1065 0.930 . S
H1058 C1066 0.930 . S
H1059 C1067 0.930 . S
H1060 C1070 0.930 . S
H1061 C1071 0.930 . S
C1062 H1056 0.930 . S
C1062 C1063 1.355 . S
C1062 C1064 1.415 . S
C1063 C1062 1.355 . S
C1063 C1065 1.419 . S
C1064 C1062 1.415 . S
C1064 C1069 1.425 . S
C1064 C1071 1.409 . S
C1065 H1057 0.930 . S
C1065 C1063 1.419 . S
C1065 C1066 1.362 . S
C1066 H1058 0.930 . S
C1066 C1065 1.362 . S
C1066 C1069 1.409 . S
C1067 H1059 0.930 . S
C1067 C1068 1.355 . S
C1067 C1069 1.415 . S
C1068 C1067 1.355 . S
C1068 C1070 1.419 . S
C1069 C1064 1.425 . S
C1069 C1066 1.409 . S
C1069 C1067 1.415 . S
C1070 H1060 0.930 . S
C1070 C1068 1.419 . S
C1070 C1071 1.362 . S
C1071 H1061 0.930 . S
C1071 C1064 1.409 . S
C1071 C1070 1.362 . S
H1072 C1078 0.930 . S
H1073 C1081 0.930 . S
H1074 C1082 0.930 . S
H1075 C1083 0.930 . S
H1076 C1086 0.930 . S
H1077 C1087 0.930 . S
C1078 H1072 0.930 . S
C1078 C1079 1.355 . S
C1078 C1080 1.415 . S
C1079 C1078 1.355 . S
C1079 C1081 1.419 . S
C1080 C1078 1.415 . S
C1080 C1085 1.425 . S
C1080 C1087 1.409 . S
C1081 H1073 0.930 . S
C1081 C1079 1.419 . S
C1081 C1082 1.362 . S
C1082 H1074 0.930 . S
C1082 C1081 1.362 . S
C1082 C1085 1.409 . S
C1083 H1075 0.930 . S
C1083 C1084 1.355 . S
C1083 C1085 1.415 . S
C1084 C1083 1.355 . S
C1084 C1086 1.419 . S
C1085 C1080 1.425 . S
C1085 C1082 1.409 . S
C1085 C1083 1.415 . S
C1086 H1076 0.930 . S
C1086 C1084 1.419 . S
C1086 C1087 1.362 . S
C1087 H1077 0.930 . S
C1087 C1080 1.409 . S
C1087 C1086 1.362 . S
H1088 C1094 0.930 . S
H1089 C1097 0.930 . S
H1090 C1098 0.930 . S
H1091 C1099 0.930 . S
H1092 C1102 0.930 . S
H1093 C1103 0.930 . S
C1094 H1088 0.930 . S
C1094 C1095 1.355 . S
C1094 C1096 1.415 . S
C1095 C1094 1.355 . S
C1095 C1097 1.419 . S
C1096 C1094 1.415 . S
C1096 C1101 1.425 . S
C1096 C1103 1.409 . S
C1097 H1089 0.930 . S
C1097 C1095 1.419 . S
C1097 C1098 1.362 . S
C1098 H1090 0.930 . S
C1098 C1097 1.362 . S
C1098 C1101 1.409 . S
C1099 H1091 0.930 . S
C1099 C1100 1.355 . S
C1099 C1101 1.415 . S
C1100 C1099 1.355 . S
C1100 C1102 1.419 . S
C1101 C1096 1.425 . S
C1101 C1098 1.409 . S
C1101 C1099 1.415 . S
C1102 H1092 0.930 . S
C1102 C1100 1.419 . S
C1102 C1103 1.362 . S
C1103 H1093 0.930 . S
C1103 C1096 1.409 . S
C1103 C1102 1.362 . S
H1104 C1110 0.930 . S
H1105 C1113 0.930 . S
H1106 C1114 0.930 . S
H1107 C1115 0.930 . S
H1108 C1118 0.930 . S
H1109 C1119 0.930 . S
C1110 H1104 0.930 . S
C1110 C1111 1.355 . S
C1110 C1112 1.418 . S
C1111 C1110 1.355 . S
C1111 C1113 1.419 . S
C1112 C1110 1.418 . S
C1112 C1117 1.425 1_655 S
C1112 C1119 1.406 1_655 S
C1113 H1105 0.930 . S
C1113 C1111 1.419 . S
C1113 C1114 1.362 . S
C1114 H1106 0.930 . S
C1114 C1113 1.362 . S
C1114 C1117 1.406 1_655 S
C1115 H1107 0.930 . S
C1115 C1116 1.355 . S
C1115 C1117 1.418 . S
C1116 C1115 1.355 . S
C1116 C1118 1.419 . S
C1117 C1112 1.425 1_455 S
C1117 C1114 1.406 1_455 S
C1117 C1115 1.418 . S
C1118 H1108 0.930 . S
C1118 C1116 1.419 . S
C1118 C1119 1.362 . S
C1119 H1109 0.930 . S
C1119 C1112 1.406 1_455 S
C1119 C1118 1.362 . S
H1120 C1126 0.930 . S
H1121 C1129 0.930 . S
H1122 C1130 0.930 . S
H1123 C1131 0.930 . S
H1124 C1134 0.930 . S
H1125 C1135 0.930 . S
C1126 H1120 0.930 . S
C1126 C1127 1.355 . S
C1126 C1128 1.415 1_455 S
C1127 C1126 1.355 . S
C1127 C1129 1.419 . S
C1128 C1126 1.415 1_655 S
C1128 C1133 1.425 1_655 S
C1128 C1135 1.409 . S
C1129 H1121 0.930 . S
C1129 C1127 1.419 . S
C1129 C1130 1.362 . S
C1130 H1122 0.930 . S
C1130 C1129 1.362 . S
C1130 C1133 1.409 . S
C1131 H1123 0.930 . S
C1131 C1132 1.355 . S
C1131 C1133 1.415 1_655 S
C1132 C1131 1.355 . S
C1132 C1134 1.419 . S
C1133 C1128 1.425 1_455 S
C1133 C1130 1.409 . S
C1133 C1131 1.415 1_455 S
C1134 H1124 0.930 . S
C1134 C1132 1.419 . S
C1134 C1135 1.362 . S
C1135 H1125 0.930 . S
C1135 C1128 1.409 . S
C1135 C1134 1.362 . S
H1136 C1142 0.930 . S
H1137 C1145 0.930 . S
H1138 C1146 0.931 . S
H1139 C1147 0.930 . S
H1140 C1150 0.930 . S
H1141 C1151 0.931 . S
C1142 H1136 0.930 . S
C1142 C1143 1.355 . S
C1142 C1144 1.415 . S
C1143 C1142 1.355 . S
C1143 C1145 1.419 . S
C1144 C1142 1.415 . S
C1144 C1149 1.425 1_455 S
C1144 C1151 1.409 . S
C1145 H1137 0.930 . S
C1145 C1143 1.419 . S
C1145 C1146 1.361 1_455 S
C1146 H1138 0.931 . S
C1146 C1145 1.361 1_655 S
C1146 C1149 1.409 . S
C1147 H1139 0.930 . S
C1147 C1148 1.355 . S
C1147 C1149 1.415 . S
C1148 C1147 1.355 . S
C1148 C1150 1.419 . S
C1149 C1144 1.425 1_655 S
C1149 C1146 1.409 . S
C1149 C1147 1.415 . S
C1150 H1140 0.930 . S
C1150 C1148 1.419 . S
C1150 C1151 1.361 1_655 S
C1151 H1141 0.931 . S
C1151 C1144 1.409 . S
C1151 C1150 1.361 1_455 S
H1152 C1158 0.930 . S
H1153 C1161 0.930 . S
H1154 C1162 0.930 . S
H1155 C1163 0.930 . S
H1156 C1166 0.930 . S
H1157 C1167 0.930 . S
C1158 H1152 0.930 . S
C1158 C1159 1.355 . S
C1158 C1160 1.415 . S
C1159 C1158 1.355 . S
C1159 C1161 1.419 . S
C1160 C1158 1.415 . S
C1160 C1165 1.425 1_655 S
C1160 C1167 1.409 . S
C1161 H1153 0.930 . S
C1161 C1159 1.419 . S
C1161 C1162 1.362 1_655 S
C1162 H1154 0.930 . S
C1162 C1161 1.362 1_455 S
C1162 C1165 1.409 . S
C1163 H1155 0.930 . S
C1163 C1164 1.355 . S
C1163 C1165 1.415 . S
C1164 C1163 1.355 . S
C1164 C1166 1.419 . S
C1165 C1160 1.425 1_455 S
C1165 C1162 1.409 . S
C1165 C1163 1.415 . S
C1166 H1156 0.930 . S
C1166 C1164 1.419 . S
C1166 C1167 1.362 1_455 S
C1167 H1157 0.930 . S
C1167 C1160 1.409 . S
C1167 C1166 1.362 1_655 S
C535 C28 0.847 . S
C540 C470 0.820 . S
C551 C61 0.828 . S
C556 C503 0.855 . S
C567 C94 0.829 . S
C572 C404 0.859 . S
C583 C437 0.858 . S
C588 C127 0.827 . S
C599 C160 0.832 . S
C604 C338 0.853 . S
C615 C193 0.847 . S
C620 C371 0.817 . S
C631 C226 0.825 . S
C636 C272 0.863 . S
C647 C305 0.856 . S
C652 C259 0.830 . S
C663 C292 0.836 . S
C668 C206 0.845 . S
C679 C239 0.857 . S
C684 C325 0.830 . S
C695 C358 0.840 . S
C700 C140 0.837 . S
C711 C391 0.850 . S
C716 C173 0.817 . S
C727 C424 0.827 . S
C732 C74 0.857 . S
C743 C457 0.831 . S
C748 C107 0.850 . S
C759 C8 0.819 . S
C764 C490 0.846 . S
C775 C41 0.810 . S
C780 C523 0.852 . S
C791 N14 1.814 . S
C796 N377 1.794 . S
C807 N344 1.836 . S
C812 N47 1.779 . S
C823 N80 1.806 . S
C828 N311 1.822 . S
C839 N278 1.786 . S
C844 N113 1.824 . S
C855 N146 1.838 . S
C860 N509 1.779 . S
C871 N476 1.785 . S
C876 N179 1.825 . S
C887 N212 1.834 . S
C892 N443 1.780 . S
C903 N245 1.815 . S
C908 N410 1.814 . S
C919 N5 1.880 . S
C924 N71 1.858 . S
C935 N38 1.877 . S
C940 N104 1.882 . S
C951 N137 1.891 . S
C956 N203 1.863 . S
C967 N236 1.891 . S
C972 N170 1.858 . S
C983 N335 1.861 . S
C988 N269 1.891 . S
C999 N368 1.866 . S
C1004 N302 1.889 . S
C1015 N401 1.890 . S
C1020 N467 1.865 . S
C1031 N434 1.884 . S
C1036 N500 1.875 . S
C1047 C50 1.538 . S
C1052 C17 1.548 . S
C1063 C83 1.538 . S
C1068 C116 1.554 . S
C1079 C149 1.579 . S
C1084 C182 1.582 . S
C1095 C248 1.540 . S
C1100 C215 1.544 . S
C1111 C281 1.542 . S
C1116 C314 1.564 . S
C1127 C380 1.539 . S
C1132 C347 1.545 . S
C1143 C413 1.583 . S
C1148 C446 1.578 . S
C1159 C512 1.576 . S
C1164 C479 1.584 . S
