# Generated by pormake.
# Topology noo, (5)-cn, num edge types: 1
# Building blocks:
#     Node 0, Type 0, BuildingBlock: BEQFEK_clean_sbu_0, # of connection points: 5
#     Node 1, Type 0, BuildingBlock: BEQFEK_clean_sbu_0, # of connection points: 5
#     Node 2, Type 0, BuildingBlock: BEQFEK_clean_sbu_0, # of connection points: 5
#     Node 3, Type 0, BuildingBlock: BEQFEK_clean_sbu_0, # of connection points: 5
#     Node 4, Type 0, BuildingBlock: BEQFEK_clean_sbu_0, # of connection points: 5
#     Node 5, Type 0, BuildingBlock: BEQFEK_clean_sbu_0, # of connection points: 5
#     Node 6, Type 0, BuildingBlock: BEQFEK_clean_sbu_0, # of connection points: 5
#     Node 7, Type 0, BuildingBlock: BEQFEK_clean_sbu_0, # of connection points: 5
#     Edge 8, Type (0, 0), BuildingBlock: EZIPEK_clean_linker_0, # of connection points: 2
#     Edge 9, Type (0, 0), BuildingBlock: EZIPEK_clean_linker_0, # of connection points: 2
#     Edge 10, Type (0, 0), BuildingBlock: EZIPEK_clean_linker_0, # of connection points: 2
#     Edge 11, Type (0, 0), BuildingBlock: EZIPEK_clean_linker_0, # of connection points: 2
#     Edge 12, Type (0, 0), BuildingBlock: EZIPEK_clean_linker_0, # of connection points: 2
#     Edge 13, Type (0, 0), BuildingBlock: EZIPEK_clean_linker_0, # of connection points: 2
#     Edge 14, Type (0, 0), BuildingBlock: EZIPEK_clean_linker_0, # of connection points: 2
#     Edge 15, Type (0, 0), BuildingBlock: EZIPEK_clean_linker_0, # of connection points: 2
#     Edge 16, Type (0, 0), BuildingBlock: EZIPEK_clean_linker_0, # of connection points: 2
#     Edge 17, Type (0, 0), BuildingBlock: EZIPEK_clean_linker_0, # of connection points: 2
#     Edge 18, Type (0, 0), BuildingBlock: EZIPEK_clean_linker_0, # of connection points: 2
#     Edge 19, Type (0, 0), BuildingBlock: EZIPEK_clean_linker_0, # of connection points: 2
#     Edge 20, Type (0, 0), BuildingBlock: EZIPEK_clean_linker_0, # of connection points: 2
#     Edge 21, Type (0, 0), BuildingBlock: EZIPEK_clean_linker_0, # of connection points: 2
#     Edge 22, Type (0, 0), BuildingBlock: EZIPEK_clean_linker_0, # of connection points: 2
#     Edge 23, Type (0, 0), BuildingBlock: EZIPEK_clean_linker_0, # of connection points: 2
#     Edge 24, Type (0, 0), BuildingBlock: EZIPEK_clean_linker_0, # of connection points: 2
#     Edge 25, Type (0, 0), BuildingBlock: EZIPEK_clean_linker_0, # of connection points: 2
#     Edge 26, Type (0, 0), BuildingBlock: EZIPEK_clean_linker_0, # of connection points: 2
#     Edge 27, Type (0, 0), BuildingBlock: EZIPEK_clean_linker_0, # of connection points: 2
# Relax obj value: 0.176
# Max RMSD: 0.163
# Mean RMSD: 0.163
data_MOF--net-noo--node1-BEQFEK_clean_sbu_0--edge1-EZIPEK_clean_linker_0
_symmetry_space_group_name_H-M    P1
_symmetry_Int_Tables_number       1
_symmetry_cell_setting            triclinic
loop_
_symmetry_equiv_pos_as_xyz
'x, y, z'
_cell_length_a     31.258295
_cell_length_b     31.407283
_cell_length_c     21.359362
_cell_angle_alpha  89.928003
_cell_angle_beta   90.137178
_cell_angle_gamma 90.103408
loop_
_atom_site_label
_atom_site_type_symbol
_atom_site_fract_x
_atom_site_fract_y
_atom_site_fract_z
_atom_type_partial_charge
Co0 Co 0.36776 0.28621 0.07689 0.0
Co1 Co 0.41038 0.19715 0.08988 0.0
C2 C 0.35384 0.2152 0.98128 0.0
O3 O 0.34807 0.2534 1.00038 0.0
O4 O 0.37674 0.18866 1.01183 0.0
C5 C 0.33164 0.36521 0.03444 0.0
O6 O 0.33559 0.34831 0.97852 0.0
C7 C 0.43938 0.10759 0.10251 0.0
C8 C 0.49798 0.11903 0.15868 0.0
C9 C 0.47464 0.08759 0.12895 0.0
N10 N 0.44214 0.14926 0.11575 0.0
N11 N 0.47704 0.15573 0.14954 0.0
C12 C 0.40414 0.08793 0.0649 0.0
H13 H 0.41066 0.09304 1.0144 0.0
H14 H 0.37331 0.10372 0.07588 0.0
H15 H 0.40184 0.0532 0.07404 0.0
C16 C 0.33343 0.26074 0.2035 0.0
N17 N 0.3572 0.25396 0.15167 0.0
N18 N 0.37513 0.2162 0.15611 0.0
C19 C 0.36326 0.19772 0.21036 0.0
C20 C 0.33656 0.22528 0.24248 0.0
C21 C 0.30737 0.29984 0.21454 0.0
H22 H 0.28127 0.30115 0.17933 0.0
H23 H 0.29333 0.29995 0.26223 0.0
H24 H 0.32769 0.3285 0.20801 0.0
O25 O 0.42945 0.30117 0.06924 0.0
O26 O 0.4573 0.23676 0.07389 0.0
H27 H 0.41209 0.15474 0.24027 0.0
H28 H 0.36041 0.14394 0.2741 0.0
C29 C 0.37718 0.15433 0.23097 0.0
H30 H 0.37093 0.1311 0.19296 0.0
H31 H 0.48696 0.18552 0.16565 0.0
O32 O 0.34041 0.34293 0.08249 0.0
C33 C 0.4616 0.27657 0.06816 0.0
Co34 Co 0.71496 0.37897 0.06334 0.0
Co35 Co 0.80941 0.40673 0.07516 0.0
C36 C 0.78696 0.35778 0.9669 0.0
O37 O 0.74769 0.35858 0.98473 0.0
O38 O 0.81655 0.37432 1.00003 0.0
C39 C 0.64092 0.32041 0.06971 0.0
O40 O 0.66766 0.28894 0.07997 0.0
C41 C 0.89987 0.43485 0.08952 0.0
C42 C 0.89075 0.47848 0.16979 0.0
C43 C 0.92074 0.46462 0.12698 0.0
N44 N 0.85918 0.43195 0.10915 0.0
N45 N 0.85424 0.45764 0.15751 0.0
C46 C 0.91758 0.41024 0.03561 0.0
H47 H 0.90578 0.37691 0.03751 0.0
H48 H 0.95309 0.41069 0.03591 0.0
H49 H 0.90583 0.42441 0.99119 0.0
C50 C 0.73701 0.34559 0.19549 0.0
N51 N 0.74512 0.36387 0.13917 0.0
N52 N 0.78649 0.37003 0.13514 0.0
C53 C 0.80646 0.35141 0.18332 0.0
C54 C 0.77603 0.33668 0.22552 0.0
C55 C 0.69323 0.34222 0.22306 0.0
H56 H 0.67574 0.37232 0.21432 0.0
H57 H 0.67544 0.31598 0.20004 0.0
H58 H 0.69457 0.33622 0.27422 0.0
O59 O 0.70705 0.44076 0.0582 0.0
O60 O 0.77523 0.4587 0.05732 0.0
H61 H 0.86927 0.37482 0.20634 0.0
H62 H 0.86285 0.31807 0.21574 0.0
C63 C 0.85411 0.34593 0.18639 0.0
H64 H 0.86704 0.34162 0.13846 0.0
H65 H 0.82543 0.46169 0.18127 0.0
O66 O 0.65507 0.35787 0.06156 0.0
C67 C 0.73605 0.46877 0.0536 0.0
Co68 Co 0.6437 0.71915 0.06847 0.0
Co69 Co 0.60015 0.80658 0.08753 0.0
C70 C 0.65415 0.79308 0.9757 0.0
O71 O 0.65872 0.75394 0.99123 0.0
O72 O 0.63392 0.81882 1.01111 0.0
C73 C 0.68615 0.64492 1.02034 0.0
O74 O 0.6811 0.6632 0.96547 0.0
C75 C 0.56841 0.89489 0.10137 0.0
C76 C 0.51342 0.88239 0.16405 0.0
C77 C 0.53388 0.9141 0.13067 0.0
N78 N 0.56799 0.85341 0.11648 0.0
N79 N 0.53527 0.84633 0.1542 0.0
C80 C 0.60078 0.91511 0.05929 0.0
H81 H 0.6329 0.90157 0.06899 0.0
H82 H 0.60139 0.9502 0.06543 0.0
H83 H 0.59256 0.90769 1.00993 0.0
C84 C 0.68086 0.74243 0.1946 0.0
N85 N 0.65551 0.74982 0.14436 0.0
N86 N 0.63649 0.78676 0.15186 0.0
C87 C 0.64928 0.80422 0.20639 0.0
C88 C 0.67767 0.77672 0.23565 0.0
C89 C 0.70847 0.70398 0.20216 0.0
H90 H 0.73347 0.70434 0.16541 0.0
H91 H 0.724 0.70322 0.24895 0.0
H92 H 0.68889 0.67484 0.19546 0.0
O93 O 0.58246 0.70171 0.0639 0.0
O94 O 0.55391 0.76584 0.0682 0.0
H95 H 0.65342 0.85714 0.27137 0.0
H96 H 0.63859 0.87083 0.19182 0.0
C97 C 0.63499 0.84683 0.22959 0.0
H98 H 0.60065 0.84507 0.24224 0.0
H99 H 0.52754 0.81662 0.17272 0.0
O100 O 0.67494 0.66447 0.06965 0.0
C101 C 0.54996 0.7259 0.06184 0.0
Co102 Co 0.29409 0.63523 0.07017 0.0
Co103 Co 0.20412 0.59425 0.08704 0.0
C104 C 0.22122 0.64767 0.97531 0.0
O105 O 0.26058 0.65132 0.9916 0.0
O106 O 0.19447 0.62823 1.01031 0.0
C107 C 0.37393 0.67145 0.02614 0.0
O108 O 0.35788 0.66562 0.96989 0.0
C109 C 0.11356 0.56566 0.10022 0.0
C110 C 0.12529 0.50645 0.15399 0.0
C111 C 0.09348 0.52988 0.12515 0.0
N112 N 0.15553 0.56292 0.1134 0.0
N113 N 0.16205 0.52771 0.14595 0.0
C114 C 0.09376 0.60145 0.06422 0.0
H115 H 0.10058 0.59717 1.01366 0.0
H116 H 0.10841 0.63211 0.07876 0.0
H117 H 0.0586 0.60239 0.07127 0.0
C118 C 0.26983 0.67251 0.19578 0.0
N119 N 0.2623 0.64765 0.14524 0.0
N120 N 0.22456 0.62958 0.15185 0.0
C121 C 0.20685 0.64239 0.20606 0.0
C122 C 0.23487 0.66997 0.23599 0.0
C123 C 0.30912 0.699 0.20454 0.0
H124 H 0.30938 0.72461 0.16875 0.0
H125 H 0.31016 0.71354 0.25187 0.0
H126 H 0.33794 0.67906 0.19729 0.0
O127 O 0.30922 0.57384 0.06621 0.0
O128 O 0.24387 0.5473 0.06954 0.0
H129 H 0.16393 0.59381 0.23712 0.0
H130 H 0.15439 0.64515 0.27228 0.0
C131 C 0.16365 0.62864 0.22848 0.0
H132 H 0.1395 0.63519 0.1916 0.0
H133 H 0.19191 0.51774 0.16187 0.0
O134 O 0.35104 0.6634 0.07387 0.0
C135 C 0.28387 0.54226 0.06418 0.0
Co136 Co 0.8698 0.21871 0.63488 0.0
Co137 Co 0.90324 0.31089 0.6242 0.0
C138 C 0.85272 0.28997 0.73269 0.0
O139 O 0.85103 0.25109 0.71417 0.0
O140 O 0.8713 0.31853 0.70018 0.0
C141 C 0.82943 0.14159 0.67777 0.0
O142 O 0.82941 0.1602 0.73282 0.0
C143 C 0.93383 0.40004 0.61088 0.0
C144 C 0.98233 0.38877 0.53721 0.0
C145 C 0.96608 0.41963 0.57655 0.0
N146 N 0.93165 0.3592 0.59273 0.0
N147 N 0.96035 0.35289 0.54839 0.0
C148 C 0.90655 0.41899 0.66104 0.0
H149 H 0.87327 0.40703 0.65652 0.0
H150 H 0.90698 0.4543 0.65873 0.0
H151 H 0.91874 0.40864 0.70745 0.0
C152 C 0.83642 0.24283 0.50521 0.0
N153 N 0.85635 0.25037 0.56045 0.0
N154 N 0.86563 0.29098 0.56334 0.0
C155 C 0.84825 0.31148 0.51464 0.0
C156 C 0.83044 0.28175 0.47385 0.0
C157 C 0.8268 0.19905 0.48146 0.0
H158 H 0.85256 0.17683 0.496 0.0
H159 H 0.79656 0.18758 0.50273 0.0
H160 H 0.82347 0.19888 0.42972 0.0
O161 O 0.93165 0.2067 0.6397 0.0
O162 O 0.95317 0.27363 0.63863 0.0
H163 H 0.8776 0.37116 0.49048 0.0
H164 H 0.82032 0.36976 0.47903 0.0
C165 C 0.84696 0.35912 0.50968 0.0
H166 H 0.84297 0.37315 0.55695 0.0
H167 H 0.96583 0.32352 0.52709 0.0
O168 O 0.84297 0.16177 0.6302 0.0
C169 C 0.96132 0.23423 0.64225 0.0
Co170 Co 0.79304 0.87263 0.64416 0.0
Co171 Co 0.7022 0.90997 0.62295 0.0
C172 C 0.71898 0.85862 0.73648 0.0
O173 O 0.75857 0.8561 0.72136 0.0
O174 O 0.69202 0.87685 0.70035 0.0
C175 C 0.86855 0.81364 0.64862 0.0
O176 O 0.84326 0.7803 0.64482 0.0
C177 C 0.61269 0.94003 0.61083 0.0
C178 C 0.62342 0.99237 0.54301 0.0
C179 C 0.59267 0.97373 0.5805 0.0
N180 N 0.65369 0.93924 0.59233 0.0
N181 N 0.65966 0.97031 0.55147 0.0
C182 C 0.59392 0.91008 0.65783 0.0
H183 H 0.60672 0.87755 0.65027 0.0
H184 H 0.55846 0.90973 0.65483 0.0
H185 H 0.60359 0.92031 0.70551 0.0
C186 C 0.77144 0.83313 0.51621 0.0
N187 N 0.76333 0.85772 0.56702 0.0
N188 N 0.72489 0.8743 0.56003 0.0
C189 C 0.70736 0.86046 0.50607 0.0
C190 C 0.73624 0.83421 0.47616 0.0
C191 C 0.81129 0.808 0.50615 0.0
H192 H 0.83915 0.82545 0.52493 0.0
H193 H 0.80838 0.77715 0.5311 0.0
H194 H 0.81619 0.80133 0.45564 0.0
O195 O 0.80489 0.93456 0.64721 0.0
O196 O 0.73904 0.95907 0.64125 0.0
H197 H 0.66318 0.90498 0.46698 0.0
H198 H 0.65266 0.85069 0.44506 0.0
C199 C 0.66329 0.8716 0.48394 0.0
H200 H 0.64038 0.86892 0.52331 0.0
H201 H 0.68896 0.97721 0.53057 0.0
O202 O 0.85265 0.85074 0.64973 0.0
C203 C 0.77876 0.96533 0.64791 0.0
Co204 Co 0.14239 0.78631 0.6431 0.0
Co205 Co 0.10164 0.69723 0.6244 0.0
C206 C 0.15552 0.71268 0.736 0.0
O207 O 0.15894 0.75198 0.72046 0.0
O208 O 0.13597 0.68623 0.70063 0.0
C209 C 0.18001 0.86432 0.6898 0.0
O210 O 0.17675 0.84647 0.74525 0.0
C211 C 0.07051 0.60853 0.6077 0.0
C212 C 0.01259 0.62282 0.5515 0.0
C213 C 0.03448 0.59013 0.58064 0.0
N214 N 0.06947 0.65044 0.59538 0.0
N215 N 0.03503 0.65857 0.56142 0.0
C216 C 0.10474 0.5873 0.64543 0.0
H217 H 0.1364 0.60097 0.63315 0.0
H218 H 0.10471 0.55236 0.63764 0.0
H219 H 0.0992 0.59376 0.69583 0.0
C220 C 0.17933 0.76387 0.51614 0.0
N221 N 0.15475 0.75588 0.56692 0.0
N222 N 0.13681 0.71827 0.55992 0.0
C223 C 0.14951 0.70101 0.50537 0.0
C224 C 0.17678 0.72925 0.47549 0.0
C225 C 0.20561 0.8032 0.50757 0.0
H226 H 0.23248 0.80268 0.54155 0.0
H227 H 0.21869 0.80525 0.45938 0.0
H228 H 0.18585 0.83169 0.51758 0.0
O229 O 0.08072 0.80113 0.64791 0.0
O230 O 0.05446 0.73598 0.64365 0.0
H231 H 0.15379 0.64838 0.43995 0.0
H232 H 0.14159 0.63405 0.52012 0.0
C233 C 0.13611 0.65792 0.48266 0.0
H234 H 0.1014 0.65834 0.47184 0.0
H235 H 0.02626 0.68892 0.54621 0.0
O236 O 0.17018 0.84305 0.64125 0.0
C237 C 0.0492 0.77566 0.64946 0.0
Co238 Co 0.21647 0.1348 0.65023 0.0
Co239 Co 0.30716 0.09427 0.63758 0.0
C240 C 0.28806 0.14977 0.74593 0.0
O241 O 0.24945 0.15455 0.72691 0.0
O242 O 0.31523 0.12788 0.71525 0.0
C243 C 0.1426 0.19591 0.64705 0.0
O244 O 0.16909 0.22834 0.64385 0.0
C245 C 0.39833 0.06791 0.62387 0.0
C246 C 0.38766 0.00899 0.56901 0.0
C247 C 0.41906 0.03331 0.59717 0.0
N248 N 0.35627 0.06377 0.61219 0.0
N249 N 0.35034 0.02863 0.57927 0.0
C250 C 0.41776 0.10409 0.65944 0.0
H251 H 0.40041 0.13404 0.64869 0.0
H252 H 0.45225 0.10758 0.64827 0.0
H253 H 0.41434 0.09791 0.71034 0.0
C254 C 0.24252 0.17047 0.52224 0.0
N255 N 0.24871 0.14675 0.5746 0.0
N256 N 0.28689 0.1291 0.57098 0.0
C257 C 0.3059 0.14104 0.51712 0.0
C258 C 0.2785 0.1675 0.48431 0.0
C259 C 0.20391 0.19687 0.50899 0.0
H260 H 0.17502 0.18064 0.52655 0.0
H261 H 0.20731 0.2279 0.53321 0.0
H262 H 0.20046 0.20307 0.45806 0.0
O263 O 0.20344 0.07278 0.65734 0.0
O264 O 0.26869 0.04651 0.65452 0.0
H265 H 0.34993 0.09274 0.48926 0.0
H266 H 0.3601 0.14389 0.45396 0.0
C267 C 0.34977 0.12758 0.49749 0.0
H268 H 0.37289 0.13474 0.53547 0.0
H269 H 0.3206 0.01789 0.56384 0.0
O270 O 0.15721 0.15831 0.65026 0.0
C271 C 0.22877 0.04132 0.65993 0.0
C272 C 0.50768 0.97806 0.07102 0.0
C273 C 0.51986 0.95893 0.12857 0.0
C274 C 0.49337 0.02083 0.18537 0.0
C275 C 0.48692 0.04226 0.12772 0.0
N276 N 0.49713 0.0443 1.01554 0.0
N277 N 0.53304 0.96613 0.2396 0.0
C278 C 0.49657 0.02179 0.07031 0.0
C279 C 0.51522 0.98147 0.1856 0.0
N280 N 0.50494 0.95431 1.01761 0.0
N281 N 0.47757 0.03744 0.23973 0.0
H282 H 0.55111 0.93825 0.24122 0.0
H283 H 0.53385 0.98344 0.28119 0.0
H284 H 0.45978 0.0655 0.24109 0.0
H285 H 0.47809 0.02102 0.28216 0.0
H286 H 0.49225 0.96613 0.97591 0.0
H287 H 0.51118 0.92173 1.01651 0.0
H288 H 0.50812 0.03152 0.97355 0.0
H289 H 0.49075 0.07681 1.01317 0.0
C290 C 0.98199 0.4988 0.06841 0.0
C291 C 0.96529 0.48063 0.12417 0.0
C292 C 0.0282 0.50551 0.18132 0.0
C293 C 0.04793 0.51697 0.12403 0.0
N294 N 0.04648 0.51434 1.01076 0.0
N295 N 0.97796 0.45799 0.23092 0.0
C296 C 0.02571 0.51086 0.0667 0.0
C297 C 0.98998 0.48144 0.17994 0.0
N298 N 0.95604 0.50644 1.01815 0.0
N299 N 0.04529 0.51849 0.23708 0.0
H300 H 0.95153 0.43767 0.23064 0.0
H301 H 0.99706 0.45496 0.27075 0.0
H302 H 0.07213 0.53821 0.2399 0.0
H303 H 0.02991 0.5138 0.27981 0.0
H304 H 0.96642 0.52294 0.9786 0.0
H305 H 0.9232 0.50067 1.01882 0.0
H306 H 0.0321 0.50641 0.96824 0.0
H307 H 0.07913 0.52061 1.00736 0.0
C308 C 0.98547 0.48769 0.52356 0.0
C309 C 0.98238 0.46377 0.5797 0.0
C310 C 0.01134 0.524 0.63839 0.0
C311 C 0.01986 0.5454 0.5812 0.0
N312 N 0.02473 0.54222 0.46839 0.0
N313 N 1.00367 0.45536 0.68805 0.0
C314 C 0.00988 0.52559 0.52339 0.0
C315 C 0.99856 0.48072 0.6366 0.0
N316 N 0.96392 0.47513 0.47095 0.0
N317 N 0.01334 0.54519 0.69411 0.0
H318 H 0.99711 0.42282 0.68772 0.0
H319 H 0.01887 0.4658 0.72874 0.0
H320 H 0.02024 0.57758 0.69738 0.0
H321 H 1.00359 0.53154 0.73626 0.0
H322 H 0.96236 0.49369 0.43051 0.0
H323 H 0.94369 0.44869 0.47001 0.0
H324 H 0.02132 0.5267 0.42554 0.0
H325 H 0.04461 0.56891 0.46655 0.0
C326 C 0.53214 1.00257 0.64533 0.0
C327 C 0.54829 0.98931 0.58644 0.0
C328 C 0.484 0.01649 0.53535 0.0
C329 C 0.46506 0.02295 0.59476 0.0
N330 N 0.46858 0.01397 0.70713 0.0
N331 N 0.53551 0.97589 0.4765 0.0
C332 C 0.48839 0.01388 0.65021 0.0
C333 C 0.52311 0.99414 0.53161 0.0
N334 N 0.5587 0.00612 0.69594 0.0
N335 N 0.46508 0.03248 0.48258 0.0
H336 H 0.56295 0.95727 0.47239 0.0
H337 H 0.51614 0.97534 0.43672 0.0
H338 H 0.43717 0.05064 0.48389 0.0
H339 H 0.47962 0.03178 0.43873 0.0
H340 H 0.54897 0.01934 0.73831 0.0
H341 H 0.59146 1.00021 0.69363 0.0
H342 H 0.48349 0.0034 0.74798 0.0
H343 H 0.43616 0.02062 0.71267 0.0
C344 C 0.28632 0.46725 0.10287 0.0
C345 C 0.30035 0.49811 0.05896 0.0
C346 C 0.3409 0.44271 1.0047 0.0
C347 C 0.32044 0.41098 0.04186 0.0
N348 N 0.26611 0.39385 0.11835 0.0
N349 N 0.33624 0.51388 0.96157 0.0
C350 C 0.29105 0.42345 0.08889 0.0
C351 C 0.32643 0.48557 1.00799 0.0
N352 N 0.26986 0.47976 0.15906 0.0
N353 N 0.37558 0.43267 0.96882 0.0
H354 H 0.32598 0.54543 0.96171 0.0
H355 H 0.35136 0.5049 0.9202 0.0
H356 H 0.38926 0.40246 0.96808 0.0
H357 H 0.3938 0.45555 0.94558 0.0
H358 H 0.26246 0.45838 0.19483 0.0
H359 H 0.2684 0.51168 0.17244 0.0
H360 H 0.24169 0.40207 0.14919 0.0
H361 H 0.26634 0.36167 0.10651 0.0
C362 C 0.53206 0.28044 1.01358 0.0
C363 C 0.50564 0.29369 0.06379 0.0
C364 C 0.56649 0.33063 0.1119 0.0
C365 C 0.59411 0.3125 0.06632 0.0
N366 N 0.60388 0.26939 0.974 0.0
N367 N 0.49831 0.32669 0.16518 0.0
C368 C 0.57706 0.28713 1.01719 0.0
C369 C 0.52284 0.31799 0.1138 0.0
N370 N 0.51374 0.26259 0.96162 0.0
N371 N 0.58181 0.35993 0.15359 0.0
H372 H 0.46616 0.31819 0.16878 0.0
H373 H 0.51061 0.33934 0.20652 0.0
H374 H 0.61376 0.369 0.15581 0.0
H375 H 0.5622 0.37791 0.18267 0.0
H376 H 0.5304 0.25582 0.92071 0.0
H377 H 0.48078 0.25806 0.95724 0.0
H378 H 0.59428 0.24637 0.94187 0.0
H379 H 0.63654 0.27609 0.97206 0.0
C380 C 0.68024 0.56753 0.99036 0.0
C381 C 0.70094 0.60017 0.02519 0.0
C382 C 0.74112 0.54613 0.08329 0.0
C383 C 0.72417 0.51401 0.04356 0.0
N384 N 0.68543 0.49608 0.94911 0.0
N385 N 0.75846 0.62083 0.09439 0.0
C386 C 0.69604 0.52525 0.994 0.0
C387 C 0.73367 0.58956 0.06853 0.0
N388 N 0.64405 0.5761 0.95659 0.0
N389 N 0.76237 0.5353 0.13694 0.0
H390 H 0.75507 0.6529 0.08264 0.0
H391 H 0.78525 0.61449 0.12197 0.0
H392 H 0.76606 0.50386 0.15155 0.0
H393 H 0.77191 0.55754 0.17035 0.0
H394 H 0.62552 0.55238 0.9358 0.0
H395 H 0.62985 0.60607 0.95485 0.0
H396 H 0.66839 0.50403 0.90876 0.0
H397 H 0.69744 0.46513 0.94868 0.0
C398 C 0.45268 0.66454 1.00007 0.0
C399 C 0.41942 0.68462 0.03462 0.0
C400 C 0.47363 0.72207 0.09639 0.0
C401 C 0.50604 0.70811 0.05487 0.0
N402 N 0.5247 0.67097 0.95971 0.0
N403 N 0.39906 0.74031 0.10664 0.0
C404 C 0.4952 0.68061 1.00457 0.0
C405 C 0.43011 0.7156 0.08035 0.0
N406 N 0.44442 0.62885 0.96555 0.0
N407 N 0.48439 0.74002 0.15245 0.0
H408 H 0.36708 0.7388 0.09289 0.0
H409 H 0.40596 0.76569 0.13644 0.0
H410 H 0.51603 0.74222 0.16781 0.0
H411 H 0.46184 0.74766 0.18651 0.0
H412 H 0.46845 0.61098 0.94444 0.0
H413 H 0.4145 0.61421 0.96396 0.0
H414 H 0.51688 0.65461 0.91881 0.0
H415 H 0.55593 0.68264 0.9603 0.0
C416 C 0.8189 0.02216 0.70726 0.0
C417 C 0.79427 0.00973 0.65449 0.0
C418 C 0.78803 0.08432 0.62241 0.0
C419 C 0.81646 0.09632 0.67119 0.0
N420 N 0.86755 0.07444 0.75025 0.0
N421 N 0.76549 0.02785 0.55298 0.0
C422 C 0.83435 0.06466 0.71104 0.0
C423 C 0.78176 0.04051 0.6094 0.0
N424 N 0.8263 0.99404 0.75494 0.0
N425 N 0.76568 0.11457 0.59002 0.0
H426 H 0.76293 0.99588 0.54031 0.0
H427 H 0.75935 0.04892 0.51633 0.0
H428 H 0.76774 0.14699 0.60009 0.0
H429 H 0.74165 0.1071 0.55793 0.0
H430 H 0.84019 1.00299 0.79734 0.0
H431 H 0.81501 0.96279 0.75464 0.0
H432 H 0.88433 0.05149 0.77554 0.0
H433 H 0.88147 0.10458 0.75245 0.0
C434 C 0.98668 0.81485 0.60371 0.0
C435 C 1.00477 0.7916 0.65409 0.0
C436 C 0.93392 0.78432 0.7025 0.0
C437 C 0.91582 0.80829 0.65252 0.0
N438 N 0.92699 0.85541 0.56387 0.0
N439 N 0.99825 0.76161 0.7573 0.0
C440 C 0.94283 0.82665 0.60603 0.0
C441 C 0.97908 0.77849 0.70526 0.0
N442 N 0.01059 0.82331 0.55155 0.0
N443 N 0.90797 0.76726 0.74752 0.0
H444 H 0.03131 0.75762 0.76094 0.0
H445 H 0.98222 0.755 0.79883 0.0
H446 H 0.87546 0.77421 0.75094 0.0
H447 H 0.91818 0.7449 0.78027 0.0
H448 H 0.99764 0.83492 0.50993 0.0
H449 H 0.04287 0.81552 0.54765 0.0
H450 H 0.94637 0.87351 0.53446 0.0
H451 H 0.89505 0.86432 0.56143 0.0
C452 C 0.18696 0.98452 0.71748 0.0
C453 C 0.21237 0.99712 0.66575 0.0
C454 C 0.2211 0.92249 0.63581 0.0
C455 C 0.19201 0.91 0.68332 0.0
N456 N 0.13822 0.93158 0.75835 0.0
N457 N 0.24222 0.97883 0.5653 0.0
C458 C 0.17233 0.94166 0.72125 0.0
C459 C 0.22598 0.96629 0.6217 0.0
N460 N 0.17793 0.01281 0.76414 0.0
N461 N 0.24559 0.89285 0.60595 0.0
H462 H 0.2439 0.01075 0.55188 0.0
H463 H 0.24926 0.95748 0.52944 0.0
H464 H 0.24524 0.86067 0.61797 0.0
H465 H 0.26981 0.90098 0.57464 0.0
H466 H 0.16339 0.00381 0.806 0.0
H467 H 0.18832 0.04436 0.76355 0.0
H468 H 0.12046 0.95444 0.78218 0.0
H469 H 0.12453 0.90134 0.75981 0.0
C470 C 0.02525 0.19747 0.59679 0.0
C471 C 0.00668 0.22085 0.64644 0.0
C472 C 0.07711 0.22798 0.69673 0.0
C473 C 0.09546 0.20291 0.64831 0.0
N474 N 0.08464 0.15542 0.56012 0.0
N475 N 0.01251 0.25164 0.74928 0.0
C476 C 0.0688 0.18486 0.60103 0.0
C477 C 0.03198 0.23432 0.69799 0.0
N478 N 1.00208 0.18946 0.54364 0.0
N479 N 0.10272 0.24541 0.74198 0.0
H480 H 0.97949 0.25605 0.75213 0.0
H481 H 0.02827 0.25823 0.79114 0.0
H482 H 0.13506 0.23807 0.74688 0.0
H483 H 0.0924 0.26856 0.77331 0.0
H484 H 0.0155 0.17745 0.50273 0.0
H485 H 0.97019 0.19838 0.53802 0.0
H486 H 0.06531 0.13761 0.53018 0.0
H487 H 0.11635 0.14566 0.5594 0.0
C488 C 0.28165 0.18723 0.30764 0.0
C489 C 0.3157 0.21706 0.30418 0.0
C490 C 0.31608 0.22265 0.41893 0.0
C491 C 0.28696 0.18803 0.42241 0.0
N492 N 0.2432 0.13547 0.37062 0.0
N493 N 0.3671 0.26224 0.35598 0.0
C494 C 0.2696 0.17013 0.36688 0.0
C495 C 0.33305 0.23499 0.3597 0.0
N496 N 0.26072 0.17551 0.25409 0.0
N497 N 0.32724 0.24384 0.4724 0.0
H498 H 0.3797 0.27276 0.31351 0.0
H499 H 0.38457 0.27243 0.39473 0.0
H500 H 0.31535 0.23544 0.51634 0.0
H501 H 0.34511 0.27184 0.47273 0.0
H502 H 0.23304 0.15703 0.2537 0.0
H503 H 0.26886 0.18756 0.21014 0.0
H504 H 0.23361 0.11773 0.33192 0.0
H505 H 0.2329 0.12268 0.41308 0.0
C506 C 0.76639 0.28555 0.31893 0.0
C507 C 0.7854 0.32222 0.29117 0.0
C508 C 0.83921 0.32131 0.37301 0.0
C509 C 0.81577 0.29114 0.40829 0.0
N510 N 0.74911 0.25227 0.41812 0.0
N511 N 0.82881 0.38458 0.31231 0.0
C512 C 0.77691 0.27518 0.38236 0.0
C513 C 0.81827 0.34329 0.32468 0.0
N514 N 0.74004 0.25972 0.28505 0.0
N515 N 0.88159 0.32848 0.38402 0.0
H516 H 0.81139 0.40324 0.28085 0.0
H517 H 0.85178 0.40091 0.33856 0.0
H518 H 0.89923 0.31016 0.41565 0.0
H519 H 0.89951 0.34944 0.35655 0.0
H520 H 0.72809 0.23115 0.30284 0.0
H521 H 0.73404 0.26464 0.23758 0.0
H522 H 0.71918 0.24267 0.40162 0.0
H523 H 0.754 0.24726 0.46582 0.0
C524 C 0.74559 0.83182 0.35897 0.0
C525 C 0.72967 0.81275 0.41452 0.0
C526 C 0.68478 0.76446 0.35208 0.0
C527 C 0.70005 0.78412 0.29656 0.0
N528 N 0.75247 0.8283 0.24577 0.0
N529 N 0.69299 0.7546 0.46441 0.0
C530 C 0.73308 0.81507 0.29969 0.0
C531 C 0.70226 0.77679 0.41106 0.0
N532 N 0.77092 0.86723 0.36287 0.0
N533 N 0.65203 0.73565 0.34869 0.0
H534 H 0.70537 0.76308 0.50808 0.0
H535 H 0.67637 0.72585 0.46475 0.0
H536 H 0.63918 0.72512 0.30633 0.0
H537 H 0.6359 0.72397 0.38768 0.0
H538 H 0.7793 0.88581 0.32439 0.0
H539 H 0.78177 0.87957 0.40536 0.0
H540 H 0.77937 0.84788 0.24488 0.0
H541 H 0.74393 0.81648 0.20183 0.0
C542 C 0.18093 0.73907 0.35841 0.0
C543 C 0.19866 0.72211 0.41432 0.0
C544 C 0.24578 0.67572 0.35282 0.0
C545 C 0.22746 0.69206 0.2969 0.0
N546 N 0.18587 0.74613 0.24528 0.0
N547 N 0.25467 0.68275 0.46546 0.0
C548 C 0.19777 0.72614 0.29945 0.0
C549 C 0.23347 0.69326 0.4116 0.0
N550 N 0.14663 0.7659 0.36163 0.0
N551 N 0.27327 0.64199 0.34992 0.0
H552 H 0.24624 0.69518 0.509 0.0
H553 H 0.28273 0.66496 0.46645 0.0
H554 H 0.28384 0.62907 0.30775 0.0
H555 H 0.28375 0.62518 0.38906 0.0
H556 H 0.12882 0.77533 0.3228 0.0
H557 H 0.1344 0.77707 0.40392 0.0
H558 H 0.1674 0.77366 0.244 0.0
H559 H 0.19775 0.73728 0.20158 0.0
C560 C 0.6493 0.84159 0.88088 0.0
C561 C 0.67134 0.80902 0.91419 0.0
C562 C 0.72143 0.80415 0.82572 0.0
C563 C 0.70375 0.84165 0.79847 0.0
N564 N 0.65914 0.90363 0.81633 0.0
N565 N 0.73689 0.76814 0.92316 0.0
C566 C 0.67016 0.86272 0.83082 0.0
C567 C 0.70994 0.79276 0.88814 0.0
N568 N 0.60775 0.85131 0.8943 0.0
N569 N 0.74758 0.77814 0.79189 0.0
H570 H 0.73211 0.762 0.97056 0.0
H571 H 0.76681 0.75855 0.90701 0.0
H572 H 0.75414 0.78292 0.74461 0.0
H573 H 0.75824 0.74886 0.80886 0.0
H574 H 0.59016 0.87306 0.86779 0.0
H575 H 0.58919 0.8337 0.9255 0.0
H576 H 0.6366 0.92063 0.8421 0.0
H577 H 0.67636 0.92236 0.78488 0.0
C578 C 0.15144 0.6641 0.83059 0.0
C579 C 0.17291 0.69724 0.79773 0.0
C580 C 0.22294 0.7027 0.88658 0.0
C581 C 0.20597 0.66464 0.91323 0.0
N582 N 0.1625 0.6018 0.89405 0.0
N583 N 0.23755 0.73978 0.78975 0.0
C584 C 0.17275 0.64306 0.88035 0.0
C585 C 0.21118 0.71425 0.82423 0.0
N586 N 0.11 0.6537 0.81696 0.0
N587 N 0.24857 0.7291 0.92093 0.0
H588 H 0.23249 0.74629 0.74248 0.0
H589 H 0.26731 0.74995 0.80615 0.0
H590 H 0.25522 0.72422 0.96819 0.0
H591 H 0.25865 0.75871 0.9044 0.0
H592 H 0.09282 0.63145 0.84313 0.0
H593 H 0.09111 0.6712 0.78601 0.0
H594 H 0.14019 0.58456 0.86792 0.0
H595 H 0.18022 0.58312 0.92501 0.0
C596 C 0.33181 0.20325 0.80594 0.0
C597 C 0.30181 0.16926 0.80625 0.0
C598 C 0.30097 0.17047 0.92141 0.0
C599 C 0.33427 0.20126 0.92104 0.0
N600 N 0.38496 0.24397 0.86354 0.0
N601 N 0.26092 0.11707 0.86359 0.0
C602 C 0.35047 0.21711 0.86343 0.0
C603 C 0.28695 0.15212 0.86384 0.0
N604 N 0.34169 0.22293 0.75068 0.0
N605 N 0.28204 0.15955 0.97682 0.0
H606 H 0.24958 0.103 0.82255 0.0
H607 H 0.253 0.09997 0.90371 0.0
H608 H 0.29159 0.17226 1.01976 0.0
H609 H 0.25464 0.14078 0.97989 0.0
H610 H 0.35977 0.25072 0.74774 0.0
H611 H 0.32871 0.21352 0.7078 0.0
H612 H 0.40149 0.25273 0.82327 0.0
H613 H 0.39924 0.25518 0.90452 0.0
C614 C 0.79578 0.28764 0.81926 0.0
C615 C 0.83518 0.30333 0.79473 0.0
C616 C 0.83436 0.35962 0.87302 0.0
C617 C 0.79974 0.33994 0.90481 0.0
N618 N 0.75345 0.27812 0.9131 0.0
N619 N 0.89892 0.34494 0.81666 0.0
C620 C 0.78194 0.30184 0.87948 0.0
C621 C 0.85668 0.33639 0.82733 0.0
N622 N 0.77052 0.26095 0.78484 0.0
N623 N 0.84526 0.40104 0.88444 0.0
H624 H 0.91805 0.32586 0.78825 0.0
H625 H 0.91592 0.36742 0.84271 0.0
H626 H 0.82702 0.42096 0.91286 0.0
H627 H 0.86894 0.41681 0.85898 0.0
H628 H 0.7399 0.25201 0.79905 0.0
H629 H 0.77788 0.25148 0.73946 0.0
H630 H 0.74283 0.24827 0.89835 0.0
H631 H 0.74398 0.28582 0.95837 0.0
loop_
_geom_bond_atom_site_label_1
_geom_bond_atom_site_label_2
_geom_bond_distance
_geom_bond_site_symmetry_2
_ccdc_geom_bond_type
Co0 O3 1.970 1_554 S
Co0 N17 1.989 . S
Co0 O25 1.967 . S
Co0 O32 1.920 . S
Co1 O4 1.966 1_554 S
Co1 N10 2.022 . S
Co1 N18 1.993 . S
Co1 O26 1.941 . S
C2 O3 1.258 . S
C2 O4 1.263 . S
O3 Co0 1.970 1_556 S
O3 C2 1.258 . S
O4 Co1 1.966 1_556 S
O4 C2 1.263 . S
C5 O6 1.235 . S
C5 O32 1.289 . S
O6 C5 1.235 . S
C7 C9 1.400 . S
C7 N10 1.351 . S
C7 C12 1.501 1_554 S
C8 C9 1.387 . S
C8 N11 1.341 . S
C9 C7 1.400 . S
C9 C8 1.387 . S
N10 Co1 2.022 . S
N10 C7 1.351 . S
N10 N11 1.365 . S
N11 C8 1.341 . S
N11 N10 1.365 . S
N11 H31 0.862 . S
C12 C7 1.501 1_556 S
C12 H13 0.961 . S
C12 H14 0.961 . S
C12 H15 0.960 . S
H13 C12 0.961 . S
H14 C12 0.961 . S
H15 C12 0.960 . S
C16 N17 1.342 . S
C16 C20 1.401 . S
C16 C21 1.499 . S
N17 Co0 1.989 . S
N17 C16 1.342 . S
N17 N18 1.388 . S
N18 Co1 1.993 . S
N18 N17 1.388 . S
N18 C19 1.346 . S
C19 N18 1.346 . S
C19 C20 1.396 . S
C19 C29 1.510 . S
C20 C16 1.401 . S
C20 C19 1.396 . S
C21 C16 1.499 . S
C21 H22 0.959 . S
C21 H23 0.960 . S
C21 H24 0.961 . S
H22 C21 0.959 . S
H23 C21 0.960 . S
H24 C21 0.961 . S
O25 Co0 1.967 . S
O25 C33 1.258 . S
O26 Co1 1.941 . S
O26 C33 1.266 . S
H27 C29 0.959 . S
H28 C29 0.961 . S
C29 C19 1.510 . S
C29 H27 0.959 . S
C29 H28 0.961 . S
C29 H30 0.960 . S
H30 C29 0.960 . S
H31 N11 0.862 . S
O32 Co0 1.920 . S
O32 C5 1.289 . S
C33 O25 1.258 . S
C33 O26 1.266 . S
Co34 O37 1.970 1_554 S
Co34 N51 1.989 . S
Co34 O59 1.967 . S
Co34 O66 1.920 . S
Co35 O38 1.966 1_554 S
Co35 N44 2.022 . S
Co35 N52 1.993 . S
Co35 O60 1.941 . S
C36 O37 1.258 . S
C36 O38 1.263 . S
O37 Co34 1.970 1_556 S
O37 C36 1.258 . S
O38 Co35 1.966 1_556 S
O38 C36 1.263 . S
C39 O40 1.235 . S
C39 O66 1.289 . S
O40 C39 1.235 . S
C41 C43 1.400 . S
C41 N44 1.351 . S
C41 C46 1.501 1_554 S
C42 C43 1.387 . S
C42 N45 1.341 . S
C43 C41 1.400 . S
C43 C42 1.387 . S
N44 Co35 2.022 . S
N44 C41 1.351 . S
N44 N45 1.365 . S
N45 C42 1.341 . S
N45 N44 1.365 . S
N45 H65 0.862 . S
C46 C41 1.501 1_556 S
C46 H47 0.961 . S
C46 H48 0.961 . S
C46 H49 0.960 . S
H47 C46 0.961 . S
H48 C46 0.961 . S
H49 C46 0.960 . S
C50 N51 1.342 . S
C50 C54 1.401 . S
C50 C55 1.499 . S
N51 Co34 1.989 . S
N51 C50 1.342 . S
N51 N52 1.388 . S
N52 Co35 1.993 . S
N52 N51 1.388 . S
N52 C53 1.346 . S
C53 N52 1.346 . S
C53 C54 1.396 . S
C53 C63 1.510 . S
C54 C50 1.401 . S
C54 C53 1.396 . S
C55 C50 1.499 . S
C55 H56 0.959 . S
C55 H57 0.960 . S
C55 H58 0.961 . S
H56 C55 0.959 . S
H57 C55 0.960 . S
H58 C55 0.961 . S
O59 Co34 1.967 . S
O59 C67 1.258 . S
O60 Co35 1.941 . S
O60 C67 1.266 . S
H61 C63 0.959 . S
H62 C63 0.961 . S
C63 C53 1.510 . S
C63 H61 0.959 . S
C63 H62 0.961 . S
C63 H64 0.960 . S
H64 C63 0.960 . S
H65 N45 0.862 . S
O66 Co34 1.920 . S
O66 C39 1.289 . S
C67 O59 1.258 . S
C67 O60 1.266 . S
Co68 O71 1.970 1_554 S
Co68 N85 1.989 . S
Co68 O93 1.967 . S
Co68 O100 1.920 . S
Co69 O72 1.966 1_554 S
Co69 N78 2.022 . S
Co69 N86 1.993 . S
Co69 O94 1.941 . S
C70 O71 1.258 . S
C70 O72 1.263 . S
O71 Co68 1.970 1_556 S
O71 C70 1.258 . S
O72 Co69 1.966 1_556 S
O72 C70 1.263 . S
C73 O74 1.235 . S
C73 O100 1.289 . S
O74 C73 1.235 . S
C75 C77 1.400 . S
C75 N78 1.351 . S
C75 C80 1.501 1_554 S
C76 C77 1.387 . S
C76 N79 1.341 . S
C77 C75 1.400 . S
C77 C76 1.387 . S
N78 Co69 2.022 . S
N78 C75 1.351 . S
N78 N79 1.365 . S
N79 C76 1.341 . S
N79 N78 1.365 . S
N79 H99 0.862 . S
C80 C75 1.501 1_556 S
C80 H81 0.961 . S
C80 H82 0.961 . S
C80 H83 0.960 . S
H81 C80 0.961 . S
H82 C80 0.961 . S
H83 C80 0.960 . S
C84 N85 1.342 . S
C84 C88 1.401 . S
C84 C89 1.499 . S
N85 Co68 1.989 . S
N85 C84 1.342 . S
N85 N86 1.388 . S
N86 Co69 1.993 . S
N86 N85 1.388 . S
N86 C87 1.346 . S
C87 N86 1.346 . S
C87 C88 1.396 . S
C87 C97 1.510 . S
C88 C84 1.401 . S
C88 C87 1.396 . S
C89 C84 1.499 . S
C89 H90 0.959 . S
C89 H91 0.960 . S
C89 H92 0.961 . S
H90 C89 0.959 . S
H91 C89 0.960 . S
H92 C89 0.961 . S
O93 Co68 1.967 . S
O93 C101 1.258 . S
O94 Co69 1.941 . S
O94 C101 1.266 . S
H95 C97 0.959 . S
H96 C97 0.961 . S
C97 C87 1.510 . S
C97 H95 0.959 . S
C97 H96 0.961 . S
C97 H98 0.960 . S
H98 C97 0.960 . S
H99 N79 0.862 . S
O100 Co68 1.920 . S
O100 C73 1.289 . S
C101 O93 1.258 . S
C101 O94 1.266 . S
Co102 O105 1.970 1_554 S
Co102 N119 1.989 . S
Co102 O127 1.967 . S
Co102 O134 1.920 . S
Co103 O106 1.966 1_554 S
Co103 N112 2.022 . S
Co103 N120 1.993 . S
Co103 O128 1.941 . S
C104 O105 1.258 . S
C104 O106 1.263 . S
O105 Co102 1.970 1_556 S
O105 C104 1.258 . S
O106 Co103 1.966 1_556 S
O106 C104 1.263 . S
C107 O108 1.235 . S
C107 O134 1.289 . S
O108 C107 1.235 . S
C109 C111 1.400 . S
C109 N112 1.351 . S
C109 C114 1.501 1_554 S
C110 C111 1.387 . S
C110 N113 1.341 . S
C111 C109 1.400 . S
C111 C110 1.387 . S
N112 Co103 2.022 . S
N112 C109 1.351 . S
N112 N113 1.365 . S
N113 C110 1.341 . S
N113 N112 1.365 . S
N113 H133 0.862 . S
C114 C109 1.501 1_556 S
C114 H115 0.961 . S
C114 H116 0.961 . S
C114 H117 0.960 . S
H115 C114 0.961 . S
H116 C114 0.961 . S
H117 C114 0.960 . S
C118 N119 1.342 . S
C118 C122 1.401 . S
C118 C123 1.499 . S
N119 Co102 1.989 . S
N119 C118 1.342 . S
N119 N120 1.388 . S
N120 Co103 1.993 . S
N120 N119 1.388 . S
N120 C121 1.346 . S
C121 N120 1.346 . S
C121 C122 1.396 . S
C121 C131 1.510 . S
C122 C118 1.401 . S
C122 C121 1.396 . S
C123 C118 1.499 . S
C123 H124 0.959 . S
C123 H125 0.960 . S
C123 H126 0.961 . S
H124 C123 0.959 . S
H125 C123 0.960 . S
H126 C123 0.961 . S
O127 Co102 1.967 . S
O127 C135 1.258 . S
O128 Co103 1.941 . S
O128 C135 1.266 . S
H129 C131 0.959 . S
H130 C131 0.961 . S
C131 C121 1.510 . S
C131 H129 0.959 . S
C131 H130 0.961 . S
C131 H132 0.960 . S
H132 C131 0.960 . S
H133 N113 0.862 . S
O134 Co102 1.920 . S
O134 C107 1.289 . S
C135 O127 1.258 . S
C135 O128 1.266 . S
Co136 O139 1.970 . S
Co136 N153 1.989 . S
Co136 O161 1.967 . S
Co136 O168 1.920 . S
Co137 O140 1.966 . S
Co137 N146 2.022 . S
Co137 N154 1.993 . S
Co137 O162 1.941 . S
C138 O139 1.258 . S
C138 O140 1.263 . S
O139 Co136 1.970 . S
O139 C138 1.258 . S
O140 Co137 1.966 . S
O140 C138 1.263 . S
C141 O142 1.235 . S
C141 O168 1.289 . S
O142 C141 1.235 . S
C143 C145 1.400 . S
C143 N146 1.351 . S
C143 C148 1.501 . S
C144 C145 1.387 . S
C144 N147 1.341 . S
C145 C143 1.400 . S
C145 C144 1.387 . S
N146 Co137 2.022 . S
N146 C143 1.351 . S
N146 N147 1.365 . S
N147 C144 1.341 . S
N147 N146 1.365 . S
N147 H167 0.862 . S
C148 C143 1.501 . S
C148 H149 0.961 . S
C148 H150 0.961 . S
C148 H151 0.960 . S
H149 C148 0.961 . S
H150 C148 0.961 . S
H151 C148 0.960 . S
C152 N153 1.342 . S
C152 C156 1.401 . S
C152 C157 1.499 . S
N153 Co136 1.989 . S
N153 C152 1.342 . S
N153 N154 1.388 . S
N154 Co137 1.993 . S
N154 N153 1.388 . S
N154 C155 1.346 . S
C155 N154 1.346 . S
C155 C156 1.396 . S
C155 C165 1.510 . S
C156 C152 1.401 . S
C156 C155 1.396 . S
C157 C152 1.499 . S
C157 H158 0.959 . S
C157 H159 0.960 . S
C157 H160 0.961 . S
H158 C157 0.959 . S
H159 C157 0.960 . S
H160 C157 0.961 . S
O161 Co136 1.967 . S
O161 C169 1.258 . S
O162 Co137 1.941 . S
O162 C169 1.266 . S
H163 C165 0.959 . S
H164 C165 0.961 . S
C165 C155 1.510 . S
C165 H163 0.959 . S
C165 H164 0.961 . S
C165 H166 0.960 . S
H166 C165 0.960 . S
H167 N147 0.862 . S
O168 Co136 1.920 . S
O168 C141 1.289 . S
C169 O161 1.258 . S
C169 O162 1.266 . S
Co170 O173 1.970 . S
Co170 N187 1.989 . S
Co170 O195 1.967 . S
Co170 O202 1.920 . S
Co171 O174 1.966 . S
Co171 N180 2.022 . S
Co171 N188 1.993 . S
Co171 O196 1.941 . S
C172 O173 1.258 . S
C172 O174 1.263 . S
O173 Co170 1.970 . S
O173 C172 1.258 . S
O174 Co171 1.966 . S
O174 C172 1.263 . S
C175 O176 1.235 . S
C175 O202 1.289 . S
O176 C175 1.235 . S
C177 C179 1.400 . S
C177 N180 1.351 . S
C177 C182 1.501 . S
C178 C179 1.387 . S
C178 N181 1.341 . S
C179 C177 1.400 . S
C179 C178 1.387 . S
N180 Co171 2.022 . S
N180 C177 1.351 . S
N180 N181 1.365 . S
N181 C178 1.341 . S
N181 N180 1.365 . S
N181 H201 0.862 . S
C182 C177 1.501 . S
C182 H183 0.961 . S
C182 H184 0.961 . S
C182 H185 0.960 . S
H183 C182 0.961 . S
H184 C182 0.961 . S
H185 C182 0.960 . S
C186 N187 1.342 . S
C186 C190 1.401 . S
C186 C191 1.499 . S
N187 Co170 1.989 . S
N187 C186 1.342 . S
N187 N188 1.388 . S
N188 Co171 1.993 . S
N188 N187 1.388 . S
N188 C189 1.346 . S
C189 N188 1.346 . S
C189 C190 1.396 . S
C189 C199 1.510 . S
C190 C186 1.401 . S
C190 C189 1.396 . S
C191 C186 1.499 . S
C191 H192 0.959 . S
C191 H193 0.960 . S
C191 H194 0.961 . S
H192 C191 0.959 . S
H193 C191 0.960 . S
H194 C191 0.961 . S
O195 Co170 1.967 . S
O195 C203 1.258 . S
O196 Co171 1.941 . S
O196 C203 1.266 . S
H197 C199 0.959 . S
H198 C199 0.961 . S
C199 C189 1.510 . S
C199 H197 0.959 . S
C199 H198 0.961 . S
C199 H200 0.960 . S
H200 C199 0.960 . S
H201 N181 0.862 . S
O202 Co170 1.920 . S
O202 C175 1.289 . S
C203 O195 1.258 . S
C203 O196 1.266 . S
Co204 O207 1.970 . S
Co204 N221 1.989 . S
Co204 O229 1.967 . S
Co204 O236 1.920 . S
Co205 O208 1.966 . S
Co205 N214 2.022 . S
Co205 N222 1.993 . S
Co205 O230 1.941 . S
C206 O207 1.258 . S
C206 O208 1.263 . S
O207 Co204 1.970 . S
O207 C206 1.258 . S
O208 Co205 1.966 . S
O208 C206 1.263 . S
C209 O210 1.235 . S
C209 O236 1.289 . S
O210 C209 1.235 . S
C211 C213 1.400 . S
C211 N214 1.351 . S
C211 C216 1.501 . S
C212 C213 1.387 . S
C212 N215 1.341 . S
C213 C211 1.400 . S
C213 C212 1.387 . S
N214 Co205 2.022 . S
N214 C211 1.351 . S
N214 N215 1.365 . S
N215 C212 1.341 . S
N215 N214 1.365 . S
N215 H235 0.862 . S
C216 C211 1.501 . S
C216 H217 0.961 . S
C216 H218 0.961 . S
C216 H219 0.960 . S
H217 C216 0.961 . S
H218 C216 0.961 . S
H219 C216 0.960 . S
C220 N221 1.342 . S
C220 C224 1.401 . S
C220 C225 1.499 . S
N221 Co204 1.989 . S
N221 C220 1.342 . S
N221 N222 1.388 . S
N222 Co205 1.993 . S
N222 N221 1.388 . S
N222 C223 1.346 . S
C223 N222 1.346 . S
C223 C224 1.396 . S
C223 C233 1.510 . S
C224 C220 1.401 . S
C224 C223 1.396 . S
C225 C220 1.499 . S
C225 H226 0.959 . S
C225 H227 0.960 . S
C225 H228 0.961 . S
H226 C225 0.959 . S
H227 C225 0.960 . S
H228 C225 0.961 . S
O229 Co204 1.967 . S
O229 C237 1.258 . S
O230 Co205 1.941 . S
O230 C237 1.266 . S
H231 C233 0.959 . S
H232 C233 0.961 . S
C233 C223 1.510 . S
C233 H231 0.959 . S
C233 H232 0.961 . S
C233 H234 0.960 . S
H234 C233 0.960 . S
H235 N215 0.862 . S
O236 Co204 1.920 . S
O236 C209 1.289 . S
C237 O229 1.258 . S
C237 O230 1.266 . S
Co238 O241 1.970 . S
Co238 N255 1.989 . S
Co238 O263 1.967 . S
Co238 O270 1.920 . S
Co239 O242 1.966 . S
Co239 N248 2.022 . S
Co239 N256 1.993 . S
Co239 O264 1.941 . S
C240 O241 1.258 . S
C240 O242 1.263 . S
O241 Co238 1.970 . S
O241 C240 1.258 . S
O242 Co239 1.966 . S
O242 C240 1.263 . S
C243 O244 1.235 . S
C243 O270 1.289 . S
O244 C243 1.235 . S
C245 C247 1.400 . S
C245 N248 1.351 . S
C245 C250 1.501 . S
C246 C247 1.387 . S
C246 N249 1.341 . S
C247 C245 1.400 . S
C247 C246 1.387 . S
N248 Co239 2.022 . S
N248 C245 1.351 . S
N248 N249 1.365 . S
N249 C246 1.341 . S
N249 N248 1.365 . S
N249 H269 0.862 . S
C250 C245 1.501 . S
C250 H251 0.961 . S
C250 H252 0.961 . S
C250 H253 0.960 . S
H251 C250 0.961 . S
H252 C250 0.961 . S
H253 C250 0.960 . S
C254 N255 1.342 . S
C254 C258 1.401 . S
C254 C259 1.499 . S
N255 Co238 1.989 . S
N255 C254 1.342 . S
N255 N256 1.388 . S
N256 Co239 1.993 . S
N256 N255 1.388 . S
N256 C257 1.346 . S
C257 N256 1.346 . S
C257 C258 1.396 . S
C257 C267 1.510 . S
C258 C254 1.401 . S
C258 C257 1.396 . S
C259 C254 1.499 . S
C259 H260 0.959 . S
C259 H261 0.960 . S
C259 H262 0.961 . S
H260 C259 0.959 . S
H261 C259 0.960 . S
H262 C259 0.961 . S
O263 Co238 1.967 . S
O263 C271 1.258 . S
O264 Co239 1.941 . S
O264 C271 1.266 . S
H265 C267 0.959 . S
H266 C267 0.961 . S
C267 C257 1.510 . S
C267 H265 0.959 . S
C267 H266 0.961 . S
C267 H268 0.960 . S
H268 C267 0.960 . S
H269 N249 0.862 . S
O270 Co238 1.920 . S
O270 C243 1.289 . S
C271 O263 1.258 . S
C271 O264 1.266 . S
C272 C273 1.363 1_545 S
C272 C278 1.379 . S
C272 N280 1.356 1_544 S
C273 C272 1.363 1_565 S
C273 C279 1.363 . S
C274 C275 1.363 1_565 S
C274 C279 1.379 . S
C274 N281 1.356 1_565 S
C275 C274 1.363 1_545 S
C275 C278 1.363 . S
N276 C278 1.356 1_556 S
N276 H288 0.984 . S
N276 H289 0.985 . S
N277 C279 1.356 . S
N277 H282 0.984 . S
N277 H283 0.985 . S
C278 C272 1.379 . S
C278 C275 1.363 . S
C278 N276 1.356 1_554 S
C279 C273 1.363 . S
C279 C274 1.379 . S
C279 N277 1.356 . S
N280 C272 1.356 1_566 S
N280 H286 0.984 1_565 S
N280 H287 0.984 . S
N281 C274 1.356 1_545 S
N281 H284 0.984 . S
N281 H285 0.985 1_545 S
H282 N277 0.984 . S
H283 N277 0.985 . S
H284 N281 0.984 . S
H285 N281 0.985 1_565 S
H286 N280 0.984 1_545 S
H287 N280 0.984 . S
H288 N276 0.984 . S
H289 N276 0.985 . S
C290 C291 1.363 1_455 S
C290 C296 1.379 . S
C290 N298 1.356 1_454 S
C291 C290 1.363 1_655 S
C291 C297 1.363 . S
C292 C293 1.363 1_655 S
C292 C297 1.379 . S
C292 N299 1.356 1_655 S
C293 C292 1.363 1_455 S
C293 C296 1.363 . S
N294 C296 1.356 1_556 S
N294 H306 0.984 . S
N294 H307 0.985 . S
N295 C297 1.356 . S
N295 H300 0.984 . S
N295 H301 0.985 . S
C296 C290 1.379 . S
C296 C293 1.363 . S
C296 N294 1.356 1_554 S
C297 C291 1.363 . S
C297 C292 1.379 . S
C297 N295 1.356 . S
N298 C290 1.356 1_656 S
N298 H304 0.984 1_655 S
N298 H305 0.984 . S
N299 C292 1.356 1_455 S
N299 H302 0.984 . S
N299 H303 0.985 1_455 S
H300 N295 0.984 . S
H301 N295 0.985 . S
H302 N299 0.984 . S
H303 N299 0.985 1_655 S
H304 N298 0.984 1_455 S
H305 N298 0.984 . S
H306 N294 0.984 . S
H307 N294 0.985 . S
C308 C309 1.363 . S
C308 C314 1.379 1_655 S
C308 N316 1.356 . S
C309 C308 1.363 . S
C309 C315 1.363 . S
C310 C311 1.363 . S
C310 C315 1.379 1_455 S
C310 N317 1.356 . S
C311 C310 1.363 . S
C311 C314 1.363 . S
N312 C314 1.356 . S
N312 H324 0.984 . S
N312 H325 0.985 . S
N313 C315 1.356 . S
N313 H318 0.984 . S
N313 H319 0.985 . S
C314 C308 1.379 1_455 S
C314 C311 1.363 . S
C314 N312 1.356 . S
C315 C309 1.363 . S
C315 C310 1.379 1_655 S
C315 N313 1.356 . S
N316 C308 1.356 . S
N316 H322 0.984 . S
N316 H323 0.984 . S
N317 C310 1.356 . S
N317 H320 0.984 . S
N317 H321 0.985 . S
H318 N313 0.984 . S
H319 N313 0.985 . S
H320 N317 0.984 . S
H321 N317 0.985 . S
H322 N316 0.984 . S
H323 N316 0.984 . S
H324 N312 0.984 . S
H325 N312 0.985 . S
C326 C327 1.363 . S
C326 C332 1.379 1_565 S
C326 N334 1.356 . S
C327 C326 1.363 . S
C327 C333 1.363 . S
C328 C329 1.363 . S
C328 C333 1.379 1_545 S
C328 N335 1.356 . S
C329 C328 1.363 . S
C329 C332 1.363 . S
N330 C332 1.356 . S
N330 H342 0.984 . S
N330 H343 0.985 . S
N331 C333 1.356 . S
N331 H336 0.984 . S
N331 H337 0.985 . S
C332 C326 1.379 1_545 S
C332 C329 1.363 . S
C332 N330 1.356 . S
C333 C327 1.363 . S
C333 C328 1.379 1_565 S
C333 N331 1.356 . S
N334 C326 1.356 . S
N334 H340 0.984 . S
N334 H341 0.984 . S
N335 C328 1.356 . S
N335 H338 0.984 . S
N335 H339 0.985 . S
H336 N331 0.984 . S
H337 N331 0.985 . S
H338 N335 0.984 . S
H339 N335 0.985 . S
H340 N334 0.984 . S
H341 N334 0.984 . S
H342 N330 0.984 . S
H343 N330 0.985 . S
C344 C345 1.363 . S
C344 C350 1.379 . S
C344 N352 1.356 . S
C345 C344 1.363 . S
C345 C351 1.361 1_554 S
C346 C347 1.363 . S
C346 C351 1.378 1_554 S
C346 N353 1.356 1_554 S
C347 C346 1.363 . S
C347 C350 1.363 . S
N348 C350 1.356 . S
N348 H360 0.984 . S
N348 H361 0.985 . S
N349 C351 1.358 . S
N349 H354 0.984 . S
N349 H355 0.985 . S
C350 C344 1.379 . S
C350 C347 1.363 . S
C350 N348 1.356 . S
C351 C345 1.361 1_556 S
C351 C346 1.378 1_556 S
C351 N349 1.358 . S
N352 C344 1.356 . S
N352 H358 0.984 . S
N352 H359 0.984 . S
N353 C346 1.356 1_556 S
N353 H356 0.984 . S
N353 H357 0.985 . S
H354 N349 0.984 . S
H355 N349 0.985 . S
H356 N353 0.984 . S
H357 N353 0.985 . S
H358 N352 0.984 . S
H359 N352 0.984 . S
H360 N348 0.984 . S
H361 N348 0.985 . S
C362 C363 1.363 . S
C362 C368 1.379 . S
C362 N370 1.356 1_554 S
C363 C362 1.363 . S
C363 C369 1.363 . S
C364 C365 1.363 . S
C364 C369 1.379 . S
C364 N371 1.356 . S
C365 C364 1.363 . S
C365 C368 1.363 . S
N366 C368 1.356 1_556 S
N366 H378 0.984 . S
N366 H379 0.985 1_556 S
N367 C369 1.356 . S
N367 H372 0.984 . S
N367 H373 0.985 . S
C368 C362 1.379 . S
C368 C365 1.363 . S
C368 N366 1.356 1_554 S
C369 C363 1.363 . S
C369 C364 1.379 . S
C369 N367 1.356 . S
N370 C362 1.356 1_556 S
N370 H376 0.984 . S
N370 H377 0.984 . S
N371 C364 1.356 . S
N371 H374 0.984 . S
N371 H375 0.985 . S
H372 N367 0.984 . S
H373 N367 0.985 . S
H374 N371 0.984 . S
H375 N371 0.985 . S
H376 N370 0.984 . S
H377 N370 0.984 . S
H378 N366 0.984 . S
H379 N366 0.985 1_554 S
C380 C381 1.363 . S
C380 C386 1.379 1_554 S
C380 N388 1.356 1_554 S
C381 C380 1.363 . S
C381 C387 1.363 . S
C382 C383 1.363 . S
C382 C387 1.379 . S
C382 N389 1.356 . S
C383 C382 1.363 . S
C383 C386 1.363 1_554 S
N384 C386 1.356 . S
N384 H396 0.984 . S
N384 H397 0.985 . S
N385 C387 1.356 . S
N385 H390 0.984 . S
N385 H391 0.985 . S
C386 C380 1.379 1_556 S
C386 C383 1.363 1_556 S
C386 N384 1.356 . S
C387 C381 1.363 . S
C387 C382 1.379 . S
C387 N385 1.356 . S
N388 C380 1.356 1_556 S
N388 H394 0.984 . S
N388 H395 0.984 . S
N389 C382 1.356 . S
N389 H392 0.984 . S
N389 H393 0.985 . S
H390 N385 0.984 . S
H391 N385 0.985 . S
H392 N389 0.984 . S
H393 N389 0.985 . S
H394 N388 0.984 . S
H395 N388 0.984 . S
H396 N384 0.984 . S
H397 N384 0.985 . S
C398 C399 1.363 . S
C398 C404 1.379 . S
C398 N406 1.356 . S
C399 C398 1.363 . S
C399 C405 1.363 . S
C400 C401 1.363 . S
C400 C405 1.379 . S
C400 N407 1.356 . S
C401 C400 1.363 . S
C401 C404 1.363 . S
N402 C404 1.356 . S
N402 H414 0.984 . S
N402 H415 0.985 . S
N403 C405 1.356 . S
N403 H408 0.984 . S
N403 H409 0.985 . S
C404 C398 1.379 . S
C404 C401 1.363 . S
C404 N402 1.356 . S
C405 C399 1.363 . S
C405 C400 1.379 . S
C405 N403 1.356 . S
N406 C398 1.356 . S
N406 H412 0.984 . S
N406 H413 0.984 . S
N407 C400 1.356 . S
N407 H410 0.984 . S
N407 H411 0.985 . S
H408 N403 0.984 . S
H409 N403 0.985 . S
H410 N407 0.984 . S
H411 N407 0.985 . S
H412 N406 0.984 . S
H413 N406 0.984 . S
H414 N402 0.984 . S
H415 N402 0.985 . S
C416 C417 1.363 . S
C416 C422 1.379 . S
C416 N424 1.356 . S
C417 C416 1.363 . S
C417 C423 1.363 . S
C418 C419 1.363 . S
C418 C423 1.379 . S
C418 N425 1.356 . S
C419 C418 1.363 . S
C419 C422 1.363 . S
N420 C422 1.356 . S
N420 H432 0.984 . S
N420 H433 0.985 . S
N421 C423 1.356 . S
N421 H426 0.984 1_545 S
N421 H427 0.985 . S
C422 C416 1.379 . S
C422 C419 1.363 . S
C422 N420 1.356 . S
C423 C417 1.363 . S
C423 C418 1.379 . S
C423 N421 1.356 . S
N424 C416 1.356 . S
N424 H430 0.984 . S
N424 H431 0.984 1_545 S
N425 C418 1.356 . S
N425 H428 0.984 . S
N425 H429 0.985 . S
H426 N421 0.984 1_565 S
H427 N421 0.985 . S
H428 N425 0.984 . S
H429 N425 0.985 . S
H430 N424 0.984 . S
H431 N424 0.984 1_565 S
H432 N420 0.984 . S
H433 N420 0.985 . S
C434 C435 1.363 . S
C434 C440 1.379 . S
C434 N442 1.370 . S
C435 C434 1.363 . S
C435 C441 1.363 . S
C436 C437 1.363 . S
C436 C441 1.379 . S
C436 N443 1.356 . S
C437 C436 1.363 . S
C437 C440 1.363 . S
N438 C440 1.356 . S
N438 H450 0.984 . S
N438 H451 0.985 . S
N439 C441 1.356 . S
N439 H444 0.984 1_655 S
N439 H445 0.985 . S
C440 C434 1.379 . S
C440 C437 1.363 . S
C440 N438 1.356 . S
C441 C435 1.363 . S
C441 C436 1.379 . S
C441 N439 1.356 . S
N442 C434 1.370 . S
N442 H448 0.985 . S
N442 H449 0.970 1_655 S
N443 C436 1.356 . S
N443 H446 0.984 . S
N443 H447 0.985 . S
H444 N439 0.984 1_455 S
H445 N439 0.985 . S
H446 N443 0.984 . S
H447 N443 0.985 . S
H448 N442 0.985 . S
H449 N442 0.970 1_455 S
H450 N438 0.984 . S
H451 N438 0.985 . S
C452 C453 1.363 . S
C452 C458 1.379 . S
C452 N460 1.356 . S
C453 C452 1.363 . S
C453 C459 1.363 . S
C454 C455 1.363 . S
C454 C459 1.379 . S
C454 N461 1.356 . S
C455 C454 1.363 . S
C455 C458 1.363 . S
N456 C458 1.356 . S
N456 H468 0.984 . S
N456 H469 0.985 . S
N457 C459 1.377 . S
N457 H462 0.963 1_565 S
N457 H463 0.986 . S
C458 C452 1.379 . S
C458 C455 1.363 . S
C458 N456 1.356 . S
C459 C453 1.363 . S
C459 C454 1.379 . S
C459 N457 1.377 . S
N460 C452 1.356 . S
N460 H466 0.984 . S
N460 H467 0.984 1_565 S
N461 C454 1.356 . S
N461 H464 0.984 . S
N461 H465 0.985 . S
H462 N457 0.963 1_545 S
H463 N457 0.986 . S
H464 N461 0.984 . S
H465 N461 0.985 . S
H466 N460 0.984 . S
H467 N460 0.984 1_545 S
H468 N456 0.984 . S
H469 N456 0.985 . S
C470 C471 1.363 . S
C470 C476 1.379 . S
C470 N478 1.365 . S
C471 C470 1.363 . S
C471 C477 1.363 . S
C472 C473 1.363 . S
C472 C477 1.379 . S
C472 N479 1.356 . S
C473 C472 1.363 . S
C473 C476 1.363 . S
N474 C476 1.356 . S
N474 H486 0.984 . S
N474 H487 0.985 . S
N475 C477 1.356 . S
N475 H480 0.984 1_455 S
N475 H481 0.985 . S
C476 C470 1.379 . S
C476 C473 1.363 . S
C476 N474 1.356 . S
C477 C471 1.363 . S
C477 C472 1.379 . S
C477 N475 1.356 . S
N478 C470 1.365 . S
N478 H484 0.985 . S
N478 H485 0.976 1_455 S
N479 C472 1.356 . S
N479 H482 0.984 . S
N479 H483 0.985 . S
H480 N475 0.984 1_655 S
H481 N475 0.985 . S
H482 N479 0.984 . S
H483 N479 0.985 . S
H484 N478 0.985 . S
H485 N478 0.976 1_655 S
H486 N474 0.984 . S
H487 N474 0.985 . S
C488 C489 1.363 . S
C488 C494 1.379 . S
C488 N496 1.356 . S
C489 C488 1.363 . S
C489 C495 1.363 . S
C490 C491 1.363 . S
C490 C495 1.379 . S
C490 N497 1.356 . S
C491 C490 1.363 . S
C491 C494 1.363 . S
N492 C494 1.356 . S
N492 H504 0.984 . S
N492 H505 0.985 . S
N493 C495 1.356 . S
N493 H498 0.984 . S
N493 H499 0.985 . S
C494 C488 1.379 . S
C494 C491 1.363 . S
C494 N492 1.356 . S
C495 C489 1.363 . S
C495 C490 1.379 . S
C495 N493 1.356 . S
N496 C488 1.356 . S
N496 H502 0.984 . S
N496 H503 0.984 . S
N497 C490 1.356 . S
N497 H500 0.984 . S
N497 H501 0.985 . S
H498 N493 0.984 . S
H499 N493 0.985 . S
H500 N497 0.984 . S
H501 N497 0.985 . S
H502 N496 0.984 . S
H503 N496 0.984 . S
H504 N492 0.984 . S
H505 N492 0.985 . S
C506 C507 1.363 . S
C506 C512 1.379 . S
C506 N514 1.356 . S
C507 C506 1.363 . S
C507 C513 1.363 . S
C508 C509 1.363 . S
C508 C513 1.379 . S
C508 N515 1.356 . S
C509 C508 1.363 . S
C509 C512 1.363 . S
N510 C512 1.356 . S
N510 H522 0.984 . S
N510 H523 0.985 . S
N511 C513 1.356 . S
N511 H516 0.984 . S
N511 H517 0.985 . S
C512 C506 1.379 . S
C512 C509 1.363 . S
C512 N510 1.356 . S
C513 C507 1.363 . S
C513 C508 1.379 . S
C513 N511 1.356 . S
N514 C506 1.356 . S
N514 H520 0.984 . S
N514 H521 0.984 . S
N515 C508 1.356 . S
N515 H518 0.984 . S
N515 H519 0.985 . S
H516 N511 0.984 . S
H517 N511 0.985 . S
H518 N515 0.984 . S
H519 N515 0.985 . S
H520 N514 0.984 . S
H521 N514 0.984 . S
H522 N510 0.984 . S
H523 N510 0.985 . S
C524 C525 1.363 . S
C524 C530 1.379 . S
C524 N532 1.356 . S
C525 C524 1.363 . S
C525 C531 1.363 . S
C526 C527 1.363 . S
C526 C531 1.379 . S
C526 N533 1.356 . S
C527 C526 1.363 . S
C527 C530 1.363 . S
N528 C530 1.356 . S
N528 H540 0.984 . S
N528 H541 0.985 . S
N529 C531 1.356 . S
N529 H534 0.984 . S
N529 H535 0.985 . S
C530 C524 1.379 . S
C530 C527 1.363 . S
C530 N528 1.356 . S
C531 C525 1.363 . S
C531 C526 1.379 . S
C531 N529 1.356 . S
N532 C524 1.356 . S
N532 H538 0.984 . S
N532 H539 0.984 . S
N533 C526 1.356 . S
N533 H536 0.984 . S
N533 H537 0.985 . S
H534 N529 0.984 . S
H535 N529 0.985 . S
H536 N533 0.984 . S
H537 N533 0.985 . S
H538 N532 0.984 . S
H539 N532 0.984 . S
H540 N528 0.984 . S
H541 N528 0.985 . S
C542 C543 1.363 . S
C542 C548 1.379 . S
C542 N550 1.356 . S
C543 C542 1.363 . S
C543 C549 1.363 . S
C544 C545 1.363 . S
C544 C549 1.379 . S
C544 N551 1.356 . S
C545 C544 1.363 . S
C545 C548 1.363 . S
N546 C548 1.356 . S
N546 H558 0.984 . S
N546 H559 0.985 . S
N547 C549 1.356 . S
N547 H552 0.984 . S
N547 H553 0.985 . S
C548 C542 1.379 . S
C548 C545 1.363 . S
C548 N546 1.356 . S
C549 C543 1.363 . S
C549 C544 1.379 . S
C549 N547 1.356 . S
N550 C542 1.356 . S
N550 H556 0.984 . S
N550 H557 0.984 . S
N551 C544 1.356 . S
N551 H554 0.984 . S
N551 H555 0.985 . S
H552 N547 0.984 . S
H553 N547 0.985 . S
H554 N551 0.984 . S
H555 N551 0.985 . S
H556 N550 0.984 . S
H557 N550 0.984 . S
H558 N546 0.984 . S
H559 N546 0.985 . S
C560 C561 1.363 . S
C560 C566 1.379 . S
C560 N568 1.356 . S
C561 C560 1.363 . S
C561 C567 1.363 . S
C562 C563 1.363 . S
C562 C567 1.379 . S
C562 N569 1.356 . S
C563 C562 1.363 . S
C563 C566 1.363 . S
N564 C566 1.356 . S
N564 H576 0.984 . S
N564 H577 0.985 . S
N565 C567 1.356 . S
N565 H570 0.984 . S
N565 H571 0.985 . S
C566 C560 1.379 . S
C566 C563 1.363 . S
C566 N564 1.356 . S
C567 C561 1.363 . S
C567 C562 1.379 . S
C567 N565 1.356 . S
N568 C560 1.356 . S
N568 H574 0.984 . S
N568 H575 0.984 . S
N569 C562 1.356 . S
N569 H572 0.984 . S
N569 H573 0.985 . S
H570 N565 0.984 . S
H571 N565 0.985 . S
H572 N569 0.984 . S
H573 N569 0.985 . S
H574 N568 0.984 . S
H575 N568 0.984 . S
H576 N564 0.984 . S
H577 N564 0.985 . S
C578 C579 1.363 . S
C578 C584 1.379 . S
C578 N586 1.356 . S
C579 C578 1.363 . S
C579 C585 1.363 . S
C580 C581 1.363 . S
C580 C585 1.379 . S
C580 N587 1.356 . S
C581 C580 1.363 . S
C581 C584 1.363 . S
N582 C584 1.356 . S
N582 H594 0.984 . S
N582 H595 0.985 . S
N583 C585 1.356 . S
N583 H588 0.984 . S
N583 H589 0.985 . S
C584 C578 1.379 . S
C584 C581 1.363 . S
C584 N582 1.356 . S
C585 C579 1.363 . S
C585 C580 1.379 . S
C585 N583 1.356 . S
N586 C578 1.356 . S
N586 H592 0.984 . S
N586 H593 0.984 . S
N587 C580 1.356 . S
N587 H590 0.984 . S
N587 H591 0.985 . S
H588 N583 0.984 . S
H589 N583 0.985 . S
H590 N587 0.984 . S
H591 N587 0.985 . S
H592 N586 0.984 . S
H593 N586 0.984 . S
H594 N582 0.984 . S
H595 N582 0.985 . S
C596 C597 1.363 . S
C596 C602 1.379 . S
C596 N604 1.356 . S
C597 C596 1.363 . S
C597 C603 1.363 . S
C598 C599 1.363 . S
C598 C603 1.379 . S
C598 N605 1.356 . S
C599 C598 1.363 . S
C599 C602 1.363 . S
N600 C602 1.356 . S
N600 H612 0.984 . S
N600 H613 0.985 . S
N601 C603 1.356 . S
N601 H606 0.984 . S
N601 H607 0.985 . S
C602 C596 1.379 . S
C602 C599 1.363 . S
C602 N600 1.356 . S
C603 C597 1.363 . S
C603 C598 1.379 . S
C603 N601 1.356 . S
N604 C596 1.356 . S
N604 H610 0.984 . S
N604 H611 0.984 . S
N605 C598 1.356 . S
N605 H608 0.984 . S
N605 H609 0.985 . S
H606 N601 0.984 . S
H607 N601 0.985 . S
H608 N605 0.984 . S
H609 N605 0.985 . S
H610 N604 0.984 . S
H611 N604 0.984 . S
H612 N600 0.984 . S
H613 N600 0.985 . S
C614 C615 1.363 . S
C614 C620 1.379 . S
C614 N622 1.356 . S
C615 C614 1.363 . S
C615 C621 1.363 . S
C616 C617 1.363 . S
C616 C621 1.379 . S
C616 N623 1.356 . S
C617 C616 1.363 . S
C617 C620 1.363 . S
N618 C620 1.356 . S
N618 H630 0.984 . S
N618 H631 0.985 . S
N619 C621 1.356 . S
N619 H624 0.984 . S
N619 H625 0.985 . S
C620 C614 1.379 . S
C620 C617 1.363 . S
C620 N618 1.356 . S
C621 C615 1.363 . S
C621 C616 1.379 . S
C621 N619 1.356 . S
N622 C614 1.356 . S
N622 H628 0.984 . S
N622 H629 0.984 . S
N623 C616 1.356 . S
N623 H626 0.984 . S
N623 H627 0.985 . S
H624 N619 0.984 . S
H625 N619 0.985 . S
H626 N623 0.984 . S
H627 N623 0.985 . S
H628 N622 0.984 . S
H629 N622 0.984 . S
H630 N618 0.984 . S
H631 N618 0.985 . S
C273 C77 1.082 . S
C275 C9 1.082 . S
C291 C43 1.082 . S
C293 C111 1.082 . S
C309 C145 1.082 . S
C311 C213 1.082 . S
C327 C179 1.082 . S
C329 C247 1.082 . S
C345 C135 1.686 . S
C347 C5 1.729 . S
C363 C33 1.686 . S
C365 C39 1.729 . S
C381 C73 1.729 . S
C383 C67 1.686 . S
C399 C107 1.729 . S
C401 C101 1.686 . S
C417 C203 1.686 1_545 S
C419 C141 1.729 . S
C435 C237 1.686 1_655 S
C437 C175 1.729 . S
C453 C271 1.686 1_565 S
C455 C209 1.729 . S
C471 C169 1.686 1_455 S
C473 C243 1.729 . S
C489 C20 1.730 . S
C491 C258 1.730 . S
C507 C54 1.730 . S
C509 C156 1.730 . S
C525 C190 1.730 . S
C527 C88 1.730 . S
C543 C224 1.730 . S
C545 C122 1.730 . S
C561 C70 1.985 . S
C563 C172 1.985 . S
C579 C206 1.985 . S
C581 C104 1.985 . S
C597 C240 1.985 . S
C599 C2 1.985 . S
C615 C138 1.985 . S
C617 C36 1.985 . S
