# Generated by pormake.
# Topology mmt, (4)-cn, num edge types: 1
# Building blocks:
#     Node 0, Type 0, BuildingBlock: CEKHIL_clean_sbu_0, # of connection points: 4
#     Node 1, Type 0, BuildingBlock: CEKHIL_clean_sbu_0, # of connection points: 4
#     Node 2, Type 0, BuildingBlock: CEKHIL_clean_sbu_0, # of connection points: 4
#     Node 3, Type 0, BuildingBlock: CEKHIL_clean_sbu_0, # of connection points: 4
#     Node 4, Type 0, BuildingBlock: CEKHIL_clean_sbu_0, # of connection points: 4
#     Node 5, Type 0, BuildingBlock: CEKHIL_clean_sbu_0, # of connection points: 4
#     Node 6, Type 0, BuildingBlock: CEKHIL_clean_sbu_0, # of connection points: 4
#     Node 7, Type 0, BuildingBlock: CEKHIL_clean_sbu_0, # of connection points: 4
#     Edge 8, Type (0, 0), BuildingBlock: KIFKEQ_clean_linker_1, # of connection points: 2
#     Edge 9, Type (0, 0), BuildingBlock: KIFKEQ_clean_linker_1, # of connection points: 2
#     Edge 10, Type (0, 0), BuildingBlock: KIFKEQ_clean_linker_1, # of connection points: 2
#     Edge 11, Type (0, 0), BuildingBlock: KIFKEQ_clean_linker_1, # of connection points: 2
#     Edge 12, Type (0, 0), BuildingBlock: KIFKEQ_clean_linker_1, # of connection points: 2
#     Edge 13, Type (0, 0), BuildingBlock: KIFKEQ_clean_linker_1, # of connection points: 2
#     Edge 14, Type (0, 0), BuildingBlock: KIFKEQ_clean_linker_1, # of connection points: 2
#     Edge 15, Type (0, 0), BuildingBlock: KIFKEQ_clean_linker_1, # of connection points: 2
#     Edge 16, Type (0, 0), BuildingBlock: KIFKEQ_clean_linker_1, # of connection points: 2
#     Edge 17, Type (0, 0), BuildingBlock: KIFKEQ_clean_linker_1, # of connection points: 2
#     Edge 18, Type (0, 0), BuildingBlock: KIFKEQ_clean_linker_1, # of connection points: 2
#     Edge 19, Type (0, 0), BuildingBlock: KIFKEQ_clean_linker_1, # of connection points: 2
#     Edge 20, Type (0, 0), BuildingBlock: KIFKEQ_clean_linker_1, # of connection points: 2
#     Edge 21, Type (0, 0), BuildingBlock: KIFKEQ_clean_linker_1, # of connection points: 2
#     Edge 22, Type (0, 0), BuildingBlock: KIFKEQ_clean_linker_1, # of connection points: 2
#     Edge 23, Type (0, 0), BuildingBlock: KIFKEQ_clean_linker_1, # of connection points: 2
# Relax obj value: 0.032
# Max RMSD: 0.050
# Mean RMSD: 0.050
data_MOF--net-mmt--node1-CEKHIL_clean_sbu_0--edge1-KIFKEQ_clean_linker_1
_symmetry_space_group_name_H-M    P1
_symmetry_Int_Tables_number       1
_symmetry_cell_setting            triclinic
loop_
_symmetry_equiv_pos_as_xyz
'x, y, z'
_cell_length_a     22.660374
_cell_length_b     37.182515
_cell_length_c     44.208059
_cell_angle_alpha  89.988274
_cell_angle_beta   90.001786
_cell_angle_gamma 90.004126
loop_
_atom_site_label
_atom_site_type_symbol
_atom_site_fract_x
_atom_site_fract_y
_atom_site_fract_z
_atom_type_partial_charge
Co0 Co 0.10071 0.5799 0.36849 0.0
O1 O 0.04921 0.58515 0.40318 0.0
O2 O 0.10274 0.53691 0.39343 0.0
C3 C 0.145 0.63435 0.37281 0.0
O4 O 0.16045 0.56466 0.33621 0.0
Co5 Co 0.09326 0.63045 0.31283 0.0
O6 O 0.16853 0.60737 0.30047 0.0
C7 C 0.00444 0.57278 0.32052 0.0
C8 C 0.06621 0.5533 0.41146 0.0
C9 C 0.18527 0.5779 0.31242 0.0
O10 O 0.03338 0.56003 0.34327 0.0
O11 O 0.01859 0.60211 0.30714 0.0
O12 O 0.16261 0.60729 0.38906 0.0
O13 O 0.09874 0.62853 0.35647 0.0
Co14 Co 0.40526 0.92688 0.36856 0.0
O15 O 0.45439 0.9205 0.40391 0.0
O16 O 0.4042 0.9699 0.39364 0.0
C17 C 0.35877 0.87301 0.3721 0.0
O18 O 0.34751 0.94287 0.33553 0.0
Co19 Co 0.4158 0.87626 0.3131 0.0
O20 O 0.34384 0.90132 0.29863 0.0
C21 C 0.50512 0.93305 0.32223 0.0
C22 C 0.43879 0.95262 0.41211 0.0
C23 C 0.32554 0.93037 0.31073 0.0
O24 O 0.4747 0.94606 0.34436 0.0
O25 O 0.49157 0.9037 0.30875 0.0
O26 O 0.34125 0.90024 0.38817 0.0
O27 O 0.40621 0.87828 0.35654 0.0
Co28 Co 0.60077 0.42647 0.15856 0.0
O29 O 0.54971 0.42074 0.12383 0.0
O30 O 0.60132 0.4697 0.13373 0.0
C31 C 0.64602 0.37227 0.15393 0.0
O32 O 0.66062 0.44193 0.19082 0.0
Co33 Co 0.5943 0.37512 0.21386 0.0
O34 O 0.66753 0.39964 0.22701 0.0
C35 C 0.50666 0.43387 0.20787 0.0
C36 C 0.56567 0.45278 0.11556 0.0
C37 C 0.68456 0.42901 0.21499 0.0
O38 O 0.53296 0.44581 0.18397 0.0
O39 O 0.52223 0.40497 0.22147 0.0
O40 O 0.66322 0.39956 0.13784 0.0
O41 O 0.59974 0.37774 0.17031 0.0
Co42 Co 0.90518 0.07938 0.15858 0.0
O43 O 0.95432 0.08551 0.12321 0.0
O44 O 0.90386 0.03626 0.13363 0.0
C45 C 0.85904 0.13335 0.15483 0.0
O46 O 0.84734 0.06361 0.19164 0.0
Co47 Co 0.91573 0.13019 0.21391 0.0
O48 O 0.84377 0.10523 0.22849 0.0
C49 C 0.00493 0.07327 0.20496 0.0
C50 C 0.93849 0.0534 0.1151 0.0
C51 C 0.82541 0.07617 0.21643 0.0
O52 O 0.97452 0.0602 0.18286 0.0
O53 O 0.99142 0.10268 0.21836 0.0
O54 O 0.84134 0.10606 0.13888 0.0
O55 O 0.90639 0.12805 0.17045 0.0
Co56 Co 0.90533 0.42643 0.65841 0.0
O57 O 0.95804 0.42045 0.62434 0.0
O58 O 0.907 0.46975 0.63376 0.0
C59 C 0.85936 0.37264 0.6529 0.0
O60 O 0.84428 0.44236 0.68988 0.0
Co61 Co 0.90652 0.37514 0.71372 0.0
O62 O 0.83047 0.39845 0.72409 0.0
C63 C 0.99617 0.43307 0.70928 0.0
C64 C 0.94315 0.45265 0.61599 0.0
C65 C 0.81634 0.42865 0.71257 0.0
O66 O 0.97206 0.44505 0.6848 0.0
O67 O 0.97859 0.40455 0.72281 0.0
O68 O 0.84347 0.40015 0.63673 0.0
O69 O 0.90469 0.37768 0.67007 0.0
Co70 Co 0.6002 0.08031 0.65849 0.0
O71 O 0.5458 0.08501 0.62489 0.0
O72 O 0.60044 0.03703 0.63395 0.0
C73 C 0.64359 0.13482 0.6525 0.0
O74 O 0.66291 0.06549 0.68947 0.0
Co75 Co 0.59886 0.1316 0.71375 0.0
O76 O 0.67558 0.10906 0.72405 0.0
C77 C 0.51109 0.07251 0.70997 0.0
C78 C 0.56253 0.05314 0.6165 0.0
C79 C 0.69058 0.0792 0.71222 0.0
O80 O 0.53518 0.06067 0.68545 0.0
O81 O 0.52791 0.10136 0.72326 0.0
O82 O 0.66005 0.10752 0.63623 0.0
O83 O 0.59901 0.12914 0.67006 0.0
Co84 Co 0.40526 0.58006 0.86875 0.0
O85 O 0.46001 0.58518 0.90222 0.0
O86 O 0.40547 0.53705 0.89355 0.0
C87 C 0.36126 0.63449 0.87423 0.0
O88 O 0.34232 0.56472 0.83804 0.0
Co89 Co 0.406 0.63068 0.81283 0.0
O90 O 0.32944 0.60775 0.80296 0.0
C91 C 0.49447 0.57207 0.81726 0.0
C92 C 0.44336 0.55336 0.91086 0.0
C93 C 0.31461 0.57805 0.81513 0.0
O94 O 0.47016 0.56027 0.84175 0.0
O95 O 0.47756 0.60079 0.80379 0.0
O96 O 0.34581 0.60752 0.89114 0.0
O97 O 0.40556 0.62865 0.85652 0.0
Co98 Co 0.1001 0.92628 0.86859 0.0
O99 O 0.04475 0.92128 0.9018 0.0
O100 O 0.10003 0.96919 0.89349 0.0
C101 C 0.14334 0.87163 0.87414 0.0
O102 O 0.16374 0.94141 0.8382 0.0
Co103 Co 0.09945 0.8759 0.81256 0.0
O104 O 0.17656 0.89838 0.80311 0.0
C105 C 0.0119 0.93504 0.81672 0.0
C106 C 0.06164 0.95299 0.91059 0.0
C107 C 0.19165 0.92797 0.8154 0.0
O108 O 0.03592 0.94653 0.84139 0.0
O109 O 0.02862 0.90631 0.80321 0.0
O110 O 0.15882 0.89847 0.89117 0.0
O111 O 0.09937 0.87773 0.85626 0.0
H112 H 0.21193 0.50655 0.31892 0.0
H113 H 0.26604 0.60227 0.27103 0.0
H114 H 0.2864 0.47195 0.29215 0.0
H115 H 0.34259 0.56802 0.24516 0.0
H116 H 0.44147 0.48955 0.18332 0.0
H117 H 0.36304 0.52414 0.20787 0.0
H118 H 0.38733 0.462 0.28959 0.0
H119 H 0.46283 0.42685 0.26489 0.0
C120 C 0.24032 0.52035 0.30299 0.0
C121 C 0.23302 0.55724 0.29725 0.0
C122 C 0.28336 0.5005 0.28763 0.0
C123 C 0.32108 0.51706 0.26643 0.0
C124 C 0.31394 0.55408 0.26086 0.0
C125 C 0.27029 0.57385 0.27594 0.0
C126 C 0.42962 0.48319 0.20644 0.0
C127 C 0.45821 0.45513 0.22193 0.0
C128 C 0.38491 0.50319 0.22066 0.0
C129 C 0.36825 0.49587 0.2508 0.0
C130 C 0.39748 0.468 0.2662 0.0
C131 C 0.44133 0.44784 0.25196 0.0
H132 H 0.09424 0.09808 0.24081 0.0
H133 H 0.02999 1.00145 0.19773 0.0
H134 H 0.17176 0.0637 0.26538 0.0
H135 H 0.10656 0.96664 0.22323 0.0
H136 H 0.28288 0.91942 0.25351 0.0
H137 H 0.2086 0.95393 0.22653 0.0
H138 H 0.18554 0.0219 0.30494 0.0
H139 H 0.2616 0.98808 0.33159 0.0
C140 C 0.09668 0.06943 0.23652 0.0
C141 C 0.05566 0.05255 0.2173 0.0
C142 C 0.14095 0.0496 0.2509 0.0
C143 C 0.14523 0.01219 0.24675 0.0
C144 C 0.10515 0.99542 0.22684 0.0
C145 C 0.06109 0.01539 0.21218 0.0
C146 C 0.26197 0.94169 0.26509 0.0
C147 C 0.27851 0.95095 0.2948 0.0
C148 C 0.21897 0.96143 0.24959 0.0
C149 C 0.19086 0.99088 0.2634 0.0
C150 C 0.20692 0.99987 0.29327 0.0
C151 C 0.25034 0.98029 0.3087 0.0
H152 H 0.7282 0.41835 0.27197 0.0
H153 H 0.74828 0.48653 0.19348 0.0
H154 H 0.80264 0.45307 0.29853 0.0
H155 H 0.82478 0.52053 0.21969 0.0
H156 H 0.91654 0.59717 0.28356 0.0
H157 H 0.83956 0.56256 0.25876 0.0
H158 H 0.90404 0.46587 0.30187 0.0
H159 H 0.97981 0.50095 0.32766 0.0
C160 C 0.74898 0.44053 0.26019 0.0
C161 C 0.73201 0.44962 0.23051 0.0
C162 C 0.79209 0.4604 0.27545 0.0
C163 C 0.82001 0.48977 0.26141 0.0
C164 C 0.80358 0.49857 0.23155 0.0
C165 C 0.75993 0.47889 0.21636 0.0
C166 C 0.91405 0.56856 0.28798 0.0
C167 C 0.9545 0.55187 0.30763 0.0
C168 C 0.87011 0.54858 0.27347 0.0
C169 C 0.86569 0.51121 0.2779 0.0
C170 C 0.90546 0.49462 0.29808 0.0
C171 C 0.94909 0.51474 0.31289 0.0
H172 H 0.76145 0.01845 0.19562 0.0
H173 H 0.78281 0.08716 0.27366 0.0
H174 H 0.68553 0.98459 0.22232 0.0
H175 H 0.70865 0.0526 0.3007 0.0
H176 H 0.53013 0.00486 0.32956 0.0
H177 H 0.60664 0.03976 0.30409 0.0
H178 H 0.67201 0.94277 0.26189 0.0
H179 H 0.59454 0.90832 0.28643 0.0
C180 C 0.75024 0.02624 0.21851 0.0
C181 C 0.77839 0.0556 0.23239 0.0
C182 C 0.7069 0.00663 0.23398 0.0
C183 C 0.69091 0.01561 0.26386 0.0
C184 C 0.71898 0.04509 0.27764 0.0
C185 C 0.7619 0.06487 0.2621 0.0
C186 C 0.56126 0.99096 0.31511 0.0
C187 C 0.55587 0.9538 0.30995 0.0
C188 C 0.60529 0.01097 0.30047 0.0
C189 C 0.64538 0.99425 0.28054 0.0
C190 C 0.64117 0.95684 0.27637 0.0
C191 C 0.59694 0.93696 0.29073 0.0
H192 H 0.53795 0.58007 0.76012 0.0
H193 H 0.55975 0.5161 0.84097 0.0
H194 H 0.61364 0.54529 0.73496 0.0
H195 H 0.63789 0.48187 0.81597 0.0
H196 H 0.73305 0.40418 0.75245 0.0
H197 H 0.65626 0.43843 0.77795 0.0
H198 H 0.71534 0.53492 0.73256 0.0
H199 H 0.79061 0.50031 0.70618 0.0
C200 C 0.55945 0.55884 0.77276 0.0
C201 C 0.54267 0.55105 0.80272 0.0
C202 C 0.60336 0.53891 0.75827 0.0
C203 C 0.63249 0.51076 0.77335 0.0
C204 C 0.61598 0.50301 0.80342 0.0
C205 C 0.5714 0.5228 0.81788 0.0
C206 C 0.72949 0.43269 0.74778 0.0
C207 C 0.76801 0.44943 0.72714 0.0
C208 C 0.68566 0.45245 0.76266 0.0
C209 C 0.67941 0.4896 0.75753 0.0
C210 C 0.71795 0.50629 0.7368 0.0
C211 C 0.76138 0.48644 0.72167 0.0
H212 H 0.77324 0.10364 0.75253 0.0
H213 H 0.7179 0.00792 0.70499 0.0
H214 H 0.85036 0.06941 0.77787 0.0
H215 H 0.79336 0.97336 0.73118 0.0
H216 H 0.97009 0.92815 0.75917 0.0
H217 H 0.89503 0.96337 0.73393 0.0
H218 H 0.86876 0.02541 0.8155 0.0
H219 H 0.9463 0.99076 0.84059 0.0
C220 C 0.7774 0.07524 0.74753 0.0
C221 C 0.73938 0.0586 0.72658 0.0
C222 C 0.8214 0.05549 0.76231 0.0
C223 C 0.8283 0.01846 0.75679 0.0
C224 C 0.7903 1.0019 0.73573 0.0
C225 C 0.74673 0.02174 0.7207 0.0
C226 C 0.94828 0.94919 0.77191 0.0
C227 C 0.96427 0.95643 0.80207 0.0
C228 C 0.90475 0.96936 0.75737 0.0
C229 C 0.87518 0.99723 0.77259 0.0
C230 C 0.891 0.0045 0.80284 0.0
C231 C 0.93523 0.98447 0.81736 0.0
H232 H 0.23068 0.60213 0.77544 0.0
H233 H 0.28967 0.50636 0.82175 0.0
H234 H 0.15487 0.56732 0.74967 0.0
H235 H 0.21553 0.4712 0.79508 0.0
H236 H 0.04 0.42441 0.7663 0.0
H237 H 0.11451 0.4596 0.79193 0.0
H238 H 0.13826 0.52402 0.71144 0.0
H239 H 0.06117 0.48942 0.68598 0.0
C240 C 0.22757 0.57358 0.78009 0.0
C241 C 0.26623 0.55709 0.8008 0.0
C242 C 0.18435 0.5535 0.76504 0.0
C243 C 0.17894 0.51628 0.77003 0.0
C244 C 0.21749 0.49987 0.79092 0.0
C245 C 0.26026 0.52004 0.80624 0.0
C246 C 0.06118 0.44593 0.75385 0.0
C247 C 0.04447 0.45392 0.72392 0.0
C248 C 0.10441 0.46611 0.76863 0.0
C249 C 0.13296 0.49472 0.75387 0.0
C250 C 0.11673 0.50256 0.72377 0.0
C251 C 0.0728 0.48253 0.70903 0.0
H252 H 0.21793 0.99942 0.82245 0.0
H253 H 0.27555 0.90356 0.77585 0.0
H254 H 0.29291 0.03425 0.79608 0.0
H255 H 0.35215 0.93803 0.75036 0.0
H256 H 0.44608 0.01618 0.68672 0.0
H257 H 0.36914 0.98151 0.71225 0.0
H258 H 0.39426 0.04521 0.79302 0.0
H259 H 0.46871 0.08045 0.76733 0.0
C260 C 0.24722 0.98564 0.80695 0.0
C261 C 0.24059 0.94867 0.80132 0.0
C262 C 0.29047 0.00562 0.7918 0.0
C263 C 0.32884 0.98909 0.7709 0.0
C264 C 0.32282 0.95194 0.76575 0.0
C265 C 0.27914 0.93205 0.78063 0.0
C266 C 0.43486 0.02286 0.70986 0.0
C267 C 0.46345 0.05132 0.7248 0.0
C268 C 0.39099 1.0028 0.72464 0.0
C269 C 0.37511 0.01048 0.75481 0.0
C270 C 0.40409 0.03886 0.76965 0.0
C271 C 0.44726 0.05905 0.75485 0.0
H272 H 0.97422 0.57429 0.44737 0.0
H273 H 0.11575 0.49697 0.44224 0.0
H274 H 0.94493 0.55006 0.4963 0.0
H275 H 0.08886 0.47384 0.49191 0.0
H276 H 0.99503 0.41699 0.56909 0.0
H277 H 0.02277 0.44033 0.51977 0.0
H278 H 0.96725 0.54667 0.54735 0.0
H279 H 0.9365 0.52257 0.59622 0.0
C280 C 0.99928 0.55216 0.45679 0.0
C281 C 0.04717 0.53748 0.4408 0.0
C282 C 0.98287 0.53842 0.48511 0.0
C283 C 0.01451 0.50994 0.49855 0.0
C284 C 0.06247 0.49528 0.48235 0.0
C285 C 0.07823 0.50866 0.4538 0.0
C286 C 0.98895 0.44541 0.56467 0.0
C287 C 0.96352 0.4679 0.58666 0.0
C288 C 0.00524 0.45894 0.5363 0.0
C289 C 0.9975 0.49558 0.52915 0.0
C290 C 0.97295 0.5182 0.5515 0.0
C291 C 0.95576 0.50448 0.57975 0.0
H292 H 0.43118 0.02249 0.43209 0.0
H293 H 0.48796 0.91666 0.45956 0.0
H294 H 0.46109 0.04642 0.48118 0.0
H295 H 0.5149 0.93984 0.50901 0.0
H296 H 0.61037 0.99637 0.58573 0.0
H297 H 0.58217 0.97317 0.53633 0.0
H298 H 0.43899 0.04995 0.53245 0.0
H299 H 0.46954 0.07424 0.5812 0.0
C300 C 0.44977 0.00429 0.44869 0.0
C301 C 0.45746 0.96771 0.44179 0.0
C302 C 0.46651 0.01792 0.47705 0.0
C303 C 0.49058 0.99521 0.49947 0.0
C304 C 0.49784 0.95853 0.4924 0.0
C305 C 0.48197 0.94508 0.46396 0.0
C306 C 0.57267 0.00814 0.57438 0.0
C307 C 0.54223 0.03714 0.58746 0.0
C308 C 0.55617 0.99472 0.54598 0.0
C309 C 0.50806 0.00953 0.52999 0.0
C310 C 0.47697 0.03817 0.54351 0.0
C311 C 0.4941 0.05193 0.57172 0.0
H312 H 0.51536 0.41719 0.06825 0.0
H313 H 0.57405 0.52265 0.09562 0.0
H314 H 0.48886 0.4405 0.01879 0.0
H315 H 0.54449 0.54677 0.04652 0.0
H316 H 0.53621 0.57459 0.94635 0.0
H317 H 0.56626 0.55039 0.99526 0.0
H318 H 0.42251 0.474 0.99133 0.0
H319 H 0.39494 0.49701 0.94182 0.0
C320 C 0.52178 0.44558 0.06384 0.0
C321 C 0.54674 0.46805 0.08598 0.0
C322 C 0.50618 0.45911 0.03538 0.0
C323 C 0.51411 0.49574 0.02827 0.0
C324 C 0.53855 0.51832 0.05068 0.0
C325 C 0.55506 0.50458 0.07905 0.0
C326 C 0.51145 0.55238 0.95587 0.0
C327 C 0.46339 0.53761 0.94006 0.0
C328 C 0.52827 0.53867 0.98416 0.0
C329 C 0.49691 0.51013 0.99771 0.0
C330 C 0.44878 0.49543 0.98168 0.0
C331 C 0.43263 0.50876 0.9532 0.0
H332 H 0.96858 0.93162 0.94587 0.0
H333 H 0.10948 0.00949 0.94158 0.0
H334 H 0.938 0.95579 0.99469 0.0
H335 H 0.08129 0.03251 0.99099 0.0
H336 H 0.98744 0.08921 0.06754 0.0
H337 H 0.01398 0.06593 0.01808 0.0
H338 H 0.95991 0.95944 0.04607 0.0
H339 H 0.93038 0.9835 0.09521 0.0
C340 C 0.99313 0.95389 0.95541 0.0
C341 C 0.04126 0.96875 0.9397 0.0
C342 C 0.97599 0.96759 0.98365 0.0
C343 C 0.00707 0.99621 0.99722 0.0
C344 C 0.05525 0.01101 0.9813 0.0
C345 C 0.07175 0.99767 0.95288 0.0
C346 C 0.98132 0.06078 0.06318 0.0
C347 C 0.95688 0.03822 0.08541 0.0
C348 C 0.99695 0.04727 0.03473 0.0
C349 C 0.98956 0.01058 0.02772 0.0
C350 C 0.96547 0.98794 0.05018 0.0
C351 C 0.94895 1.00163 0.07856 0.0
H352 H 0.25623 0.64902 0.39344 0.0
H353 H 0.10492 0.69856 0.35113 0.0
H354 H 0.30784 0.70691 0.39273 0.0
H355 H 0.1562 0.75649 0.35091 0.0
H356 H 0.2467 0.85902 0.39186 0.0
H357 H 0.19482 0.8012 0.39159 0.0
H358 H 0.34731 0.75059 0.35152 0.0
H359 H 0.39885 0.80841 0.35129 0.0
C360 C 0.23398 0.67227 0.38405 0.0
C361 C 0.17654 0.66926 0.37234 0.0
C362 C 0.2636 0.70533 0.38354 0.0
C363 C 0.23597 0.7362 0.37181 0.0
C364 C 0.17839 0.73321 0.36028 0.0
C365 C 0.1492 0.70003 0.36029 0.0
C366 C 0.26904 0.83556 0.38292 0.0
C367 C 0.32683 0.83825 0.3716 0.0
C368 C 0.23928 0.80253 0.38266 0.0
C369 C 0.26711 0.7714 0.3716 0.0
C370 C 0.32497 0.77408 0.36039 0.0
C371 C 0.35431 0.80721 0.36013 0.0
H372 H 0.74726 0.14758 0.13479 0.0
H373 H 0.89965 0.19801 0.17528 0.0
H374 H 0.69585 0.20553 0.13473 0.0
H375 H 0.84857 0.25599 0.17473 0.0
H376 H 0.7573 0.35779 0.13308 0.0
H377 H 0.80901 0.29989 0.1336 0.0
H378 H 0.6575 0.2501 0.17539 0.0
H379 H 0.6062 0.30796 0.17535 0.0
C380 C 0.76977 0.17103 0.14364 0.0
C381 C 0.82745 0.16824 0.15506 0.0
C382 C 0.74029 0.20414 0.14369 0.0
C383 C 0.76829 0.23527 0.15466 0.0
C384 C 0.8261 0.23251 0.16592 0.0
C385 C 0.85517 0.19929 0.16638 0.0
C386 C 0.73513 0.33449 0.1424 0.0
C387 C 0.67772 0.33742 0.15417 0.0
C388 C 0.76478 0.30141 0.14281 0.0
C389 C 0.7372 0.27049 0.15448 0.0
C390 C 0.67966 0.27342 0.16605 0.0
C391 C 0.65045 0.30658 0.16615 0.0
H392 H 0.60423 0.19947 0.67345 0.0
H393 H 0.75399 0.14899 0.63051 0.0
H394 H 0.65587 0.25729 0.6727 0.0
H395 H 0.80604 0.20676 0.63034 0.0
H396 H 0.89803 0.30768 0.67335 0.0
H397 H 0.84582 0.25013 0.67239 0.0
H398 H 0.69543 0.30166 0.63107 0.0
H399 H 0.74813 0.35927 0.63146 0.0
C400 C 0.64821 0.20072 0.66391 0.0
C401 C 0.67508 0.16971 0.65202 0.0
C402 C 0.67759 0.23383 0.66336 0.0
C403 C 0.7349 0.23648 0.65145 0.0
C404 C 0.76197 0.20542 0.63977 0.0
C405 C 0.73213 0.17243 0.63978 0.0
C406 C 0.85386 0.30674 0.66401 0.0
C407 C 0.82716 0.33798 0.65245 0.0
C408 C 0.82415 0.27376 0.66334 0.0
C409 C 0.76666 0.27144 0.65163 0.0
C410 C 0.73965 0.30274 0.64034 0.0
C411 C 0.76985 0.33564 0.64047 0.0
H412 H 0.28726 0.6606 0.91782 0.0
H413 H 0.36218 0.68663 0.83071 0.0
H414 H 0.23504 0.71837 0.9181 0.0
H415 H 0.30884 0.74384 0.83073 0.0
H416 H 0.14254 0.81962 0.83051 0.0
H417 H 0.19561 0.7623 0.83057 0.0
H418 H 0.26842 0.7873 0.91826 0.0
H419 H 0.21649 0.84515 0.91793 0.0
C420 C 0.29232 0.67855 0.89869 0.0
C421 C 0.32881 0.66909 0.87424 0.0
C422 C 0.26269 0.71163 0.89893 0.0
C423 C 0.26793 0.73551 0.87443 0.0
C424 C 0.30382 0.72584 0.84983 0.0
C425 C 0.33446 0.69315 0.84988 0.0
C426 C 0.16997 0.81296 0.84977 0.0
C427 C 0.17545 0.83692 0.8742 0.0
C428 C 0.20045 0.78021 0.84974 0.0
C429 C 0.23599 0.77039 0.87444 0.0
C430 C 0.24102 0.79415 0.89902 0.0
C431 C 0.21156 0.82728 0.89875 0.0
loop_
_geom_bond_atom_site_label_1
_geom_bond_atom_site_label_2
_geom_bond_distance
_geom_bond_site_symmetry_2
_ccdc_geom_bond_type
Co0 O1 2.216 . S
Co0 O2 2.091 . S
Co0 O4 2.004 . S
Co0 O10 2.021 . S
Co0 O12 2.137 . S
Co0 O13 2.244 . S
O1 Co0 2.216 . S
O1 C8 1.247 . S
O2 Co0 2.091 . S
O2 C8 1.261 . S
C3 O12 1.247 . S
C3 O13 1.272 . S
O4 Co0 2.004 . S
O4 C9 1.259 . S
Co5 O6 2.061 . S
Co5 O11 2.052 . S
Co5 O13 2.135 . S
O6 Co5 2.061 . S
O6 C9 1.235 . S
C7 O10 1.238 . S
C7 O11 1.241 . S
C8 O1 1.247 . S
C8 O2 1.261 . S
C9 O4 1.259 . S
C9 O6 1.235 . S
O10 Co0 2.021 . S
O10 C7 1.238 . S
O11 Co5 2.052 . S
O11 C7 1.241 . S
O12 Co0 2.137 . S
O12 C3 1.247 . S
O13 Co0 2.244 . S
O13 C3 1.272 . S
O13 Co5 2.135 . S
Co14 O15 2.216 . S
Co14 O16 2.091 . S
Co14 O18 2.004 . S
Co14 O24 2.021 . S
Co14 O26 2.137 . S
Co14 O27 2.244 . S
O15 Co14 2.216 . S
O15 C22 1.247 . S
O16 Co14 2.091 . S
O16 C22 1.261 . S
C17 O26 1.247 . S
C17 O27 1.272 . S
O18 Co14 2.004 . S
O18 C23 1.259 . S
Co19 O20 2.061 . S
Co19 O25 2.052 . S
Co19 O27 2.135 . S
O20 Co19 2.061 . S
O20 C23 1.235 . S
C21 O24 1.238 . S
C21 O25 1.241 . S
C22 O15 1.247 . S
C22 O16 1.261 . S
C23 O18 1.259 . S
C23 O20 1.235 . S
O24 Co14 2.021 . S
O24 C21 1.238 . S
O25 Co19 2.052 . S
O25 C21 1.241 . S
O26 Co14 2.137 . S
O26 C17 1.247 . S
O27 Co14 2.244 . S
O27 C17 1.272 . S
O27 Co19 2.135 . S
Co28 O29 2.216 . S
Co28 O30 2.091 . S
Co28 O32 2.004 . S
Co28 O38 2.021 . S
Co28 O40 2.137 . S
Co28 O41 2.244 . S
O29 Co28 2.216 . S
O29 C36 1.247 . S
O30 Co28 2.091 . S
O30 C36 1.261 . S
C31 O40 1.247 . S
C31 O41 1.272 . S
O32 Co28 2.004 . S
O32 C37 1.259 . S
Co33 O34 2.061 . S
Co33 O39 2.052 . S
Co33 O41 2.135 . S
O34 Co33 2.061 . S
O34 C37 1.235 . S
C35 O38 1.238 . S
C35 O39 1.241 . S
C36 O29 1.247 . S
C36 O30 1.261 . S
C37 O32 1.259 . S
C37 O34 1.235 . S
O38 Co28 2.021 . S
O38 C35 1.238 . S
O39 Co33 2.052 . S
O39 C35 1.241 . S
O40 Co28 2.137 . S
O40 C31 1.247 . S
O41 Co28 2.244 . S
O41 C31 1.272 . S
O41 Co33 2.135 . S
Co42 O43 2.216 . S
Co42 O44 2.091 . S
Co42 O46 2.004 . S
Co42 O52 2.021 . S
Co42 O54 2.137 . S
Co42 O55 2.244 . S
O43 Co42 2.216 . S
O43 C50 1.247 . S
O44 Co42 2.091 . S
O44 C50 1.261 . S
C45 O54 1.247 . S
C45 O55 1.272 . S
O46 Co42 2.004 . S
O46 C51 1.259 . S
Co47 O48 2.061 . S
Co47 O53 2.052 . S
Co47 O55 2.135 . S
O48 Co47 2.061 . S
O48 C51 1.235 . S
C49 O52 1.238 . S
C49 O53 1.241 . S
C50 O43 1.247 . S
C50 O44 1.261 . S
C51 O46 1.259 . S
C51 O48 1.235 . S
O52 Co42 2.021 . S
O52 C49 1.238 . S
O53 Co47 2.052 . S
O53 C49 1.241 . S
O54 Co42 2.137 . S
O54 C45 1.247 . S
O55 Co42 2.244 . S
O55 C45 1.272 . S
O55 Co47 2.135 . S
Co56 O57 2.216 . S
Co56 O58 2.091 . S
Co56 O60 2.004 . S
Co56 O66 2.021 . S
Co56 O68 2.137 . S
Co56 O69 2.244 . S
O57 Co56 2.216 . S
O57 C64 1.247 . S
O58 Co56 2.091 . S
O58 C64 1.261 . S
C59 O68 1.247 . S
C59 O69 1.272 . S
O60 Co56 2.004 . S
O60 C65 1.259 . S
Co61 O62 2.061 . S
Co61 O67 2.052 . S
Co61 O69 2.135 . S
O62 Co61 2.061 . S
O62 C65 1.235 . S
C63 O66 1.238 . S
C63 O67 1.241 . S
C64 O57 1.247 . S
C64 O58 1.261 . S
C65 O60 1.259 . S
C65 O62 1.235 . S
O66 Co56 2.021 . S
O66 C63 1.238 . S
O67 Co61 2.052 . S
O67 C63 1.241 . S
O68 Co56 2.137 . S
O68 C59 1.247 . S
O69 Co56 2.244 . S
O69 C59 1.272 . S
O69 Co61 2.135 . S
Co70 O71 2.216 . S
Co70 O72 2.091 . S
Co70 O74 2.004 . S
Co70 O80 2.021 . S
Co70 O82 2.137 . S
Co70 O83 2.244 . S
O71 Co70 2.216 . S
O71 C78 1.247 . S
O72 Co70 2.091 . S
O72 C78 1.261 . S
C73 O82 1.247 . S
C73 O83 1.272 . S
O74 Co70 2.004 . S
O74 C79 1.259 . S
Co75 O76 2.061 . S
Co75 O81 2.052 . S
Co75 O83 2.135 . S
O76 Co75 2.061 . S
O76 C79 1.235 . S
C77 O80 1.238 . S
C77 O81 1.241 . S
C78 O71 1.247 . S
C78 O72 1.261 . S
C79 O74 1.259 . S
C79 O76 1.235 . S
O80 Co70 2.021 . S
O80 C77 1.238 . S
O81 Co75 2.052 . S
O81 C77 1.241 . S
O82 Co70 2.137 . S
O82 C73 1.247 . S
O83 Co70 2.244 . S
O83 C73 1.272 . S
O83 Co75 2.135 . S
Co84 O85 2.216 . S
Co84 O86 2.091 . S
Co84 O88 2.004 . S
Co84 O94 2.021 . S
Co84 O96 2.137 . S
Co84 O97 2.244 . S
O85 Co84 2.216 . S
O85 C92 1.247 . S
O86 Co84 2.091 . S
O86 C92 1.261 . S
C87 O96 1.247 . S
C87 O97 1.272 . S
O88 Co84 2.004 . S
O88 C93 1.259 . S
Co89 O90 2.061 . S
Co89 O95 2.052 . S
Co89 O97 2.135 . S
O90 Co89 2.061 . S
O90 C93 1.235 . S
C91 O94 1.238 . S
C91 O95 1.241 . S
C92 O85 1.247 . S
C92 O86 1.261 . S
C93 O88 1.259 . S
C93 O90 1.235 . S
O94 Co84 2.021 . S
O94 C91 1.238 . S
O95 Co89 2.052 . S
O95 C91 1.241 . S
O96 Co84 2.137 . S
O96 C87 1.247 . S
O97 Co84 2.244 . S
O97 C87 1.272 . S
O97 Co89 2.135 . S
Co98 O99 2.216 . S
Co98 O100 2.091 . S
Co98 O102 2.004 . S
Co98 O108 2.021 . S
Co98 O110 2.137 . S
Co98 O111 2.244 . S
O99 Co98 2.216 . S
O99 C106 1.247 . S
O100 Co98 2.091 . S
O100 C106 1.261 . S
C101 O110 1.247 . S
C101 O111 1.272 . S
O102 Co98 2.004 . S
O102 C107 1.259 . S
Co103 O104 2.061 . S
Co103 O109 2.052 . S
Co103 O111 2.135 . S
O104 Co103 2.061 . S
O104 C107 1.235 . S
C105 O108 1.238 . S
C105 O109 1.241 . S
C106 O99 1.247 . S
C106 O100 1.261 . S
C107 O102 1.259 . S
C107 O104 1.235 . S
O108 Co98 2.021 . S
O108 C105 1.238 . S
O109 Co103 2.052 . S
O109 C105 1.241 . S
O110 Co98 2.137 . S
O110 C101 1.247 . S
O111 Co98 2.244 . S
O111 C101 1.272 . S
O111 Co103 2.135 . S
H112 C120 0.950 . S
H113 C125 0.950 . S
H114 C122 0.950 . S
H115 C124 0.950 . S
H116 C126 0.950 . S
H117 C128 0.950 . S
H118 C130 0.950 . S
H119 C131 0.950 . S
C120 H112 0.950 . S
C120 C121 1.386 . S
C120 C122 1.391 . S
C121 C120 1.386 . S
C121 C125 1.393 . S
C122 H114 0.950 . S
C122 C120 1.391 . S
C122 C123 1.400 . S
C123 C122 1.400 . S
C123 C124 1.398 . S
C123 C129 1.491 . S
C124 H115 0.950 . S
C124 C123 1.398 . S
C124 C125 1.391 . S
C125 H113 0.950 . S
C125 C121 1.393 . S
C125 C124 1.391 . S
C126 H116 0.950 . S
C126 C127 1.386 . S
C126 C128 1.391 . S
C127 C126 1.386 . S
C127 C131 1.393 . S
C128 H117 0.950 . S
C128 C126 1.391 . S
C128 C129 1.400 . S
C129 C123 1.491 . S
C129 C128 1.400 . S
C129 C130 1.398 . S
C130 H118 0.950 . S
C130 C129 1.398 . S
C130 C131 1.391 . S
C131 H119 0.950 . S
C131 C127 1.393 . S
C131 C130 1.391 . S
H132 C140 0.950 . S
H133 C145 0.950 1_565 S
H134 C142 0.950 . S
H135 C144 0.950 . S
H136 C146 0.950 . S
H137 C148 0.950 . S
H138 C150 0.950 . S
H139 C151 0.950 1_545 S
C140 H132 0.950 . S
C140 C141 1.386 . S
C140 C142 1.391 1_655 S
C141 C140 1.386 . S
C141 C145 1.393 1_655 S
C142 H134 0.950 . S
C142 C140 1.391 1_455 S
C142 C143 1.400 . S
C143 C142 1.400 . S
C143 C144 1.398 1_545 S
C143 C149 1.491 1_545 S
C144 H135 0.950 . S
C144 C143 1.398 1_565 S
C144 C145 1.391 1_565 S
C145 H133 0.950 1_545 S
C145 C141 1.393 1_455 S
C145 C144 1.391 1_545 S
C146 H136 0.950 . S
C146 C147 1.386 . S
C146 C148 1.391 . S
C147 C146 1.386 . S
C147 C151 1.393 . S
C148 H137 0.950 . S
C148 C146 1.391 . S
C148 C149 1.400 . S
C149 C143 1.491 1_565 S
C149 C148 1.400 . S
C149 C150 1.398 1_565 S
C150 H138 0.950 . S
C150 C149 1.398 1_545 S
C150 C151 1.391 1_545 S
C151 H139 0.950 1_565 S
C151 C147 1.393 . S
C151 C150 1.391 1_565 S
H152 C160 0.950 . S
H153 C165 0.950 . S
H154 C162 0.950 . S
H155 C164 0.950 . S
H156 C166 0.950 . S
H157 C168 0.950 . S
H158 C170 0.950 . S
H159 C171 0.950 . S
C160 H152 0.950 . S
C160 C161 1.386 . S
C160 C162 1.391 . S
C161 C160 1.386 . S
C161 C165 1.393 . S
C162 H154 0.950 . S
C162 C160 1.391 . S
C162 C163 1.400 . S
C163 C162 1.400 . S
C163 C164 1.398 . S
C163 C169 1.491 . S
C164 H155 0.950 . S
C164 C163 1.398 . S
C164 C165 1.391 . S
C165 H153 0.950 . S
C165 C161 1.393 . S
C165 C164 1.391 . S
C166 H156 0.950 . S
C166 C167 1.386 . S
C166 C168 1.391 1_455 S
C167 C166 1.386 . S
C167 C171 1.393 1_455 S
C168 H157 0.950 . S
C168 C166 1.391 1_655 S
C168 C169 1.400 . S
C169 C163 1.491 . S
C169 C168 1.400 . S
C169 C170 1.398 . S
C170 H158 0.950 . S
C170 C169 1.398 . S
C170 C171 1.391 . S
C171 H159 0.950 . S
C171 C167 1.393 1_655 S
C171 C170 1.391 . S
H172 C180 0.946 1_565 S
H173 C185 0.950 . S
H174 C182 0.950 . S
H175 C184 0.950 . S
H176 C186 0.950 . S
H177 C188 0.950 . S
H178 C190 0.950 . S
H179 C191 0.950 . S
C180 H172 0.946 1_545 S
C180 C181 1.386 . S
C180 C182 1.391 1_545 S
C181 C180 1.386 . S
C181 C185 1.393 . S
C182 H174 0.950 . S
C182 C180 1.391 1_565 S
C182 C183 1.400 1_565 S
C183 C182 1.400 1_545 S
C183 C184 1.398 . S
C183 C189 1.491 1_545 S
C184 H175 0.950 . S
C184 C183 1.398 . S
C184 C185 1.391 . S
C185 H173 0.950 . S
C185 C181 1.393 . S
C185 C184 1.391 . S
C186 H176 0.950 . S
C186 C187 1.386 . S
C186 C188 1.391 1_565 S
C187 C186 1.386 . S
C187 C191 1.393 . S
C188 H177 0.950 . S
C188 C186 1.391 1_545 S
C188 C189 1.400 1_545 S
C189 C183 1.491 1_565 S
C189 C188 1.400 1_565 S
C189 C190 1.398 . S
C190 H178 0.950 . S
C190 C189 1.398 . S
C190 C191 1.391 . S
C191 H179 0.950 . S
C191 C187 1.393 . S
C191 C190 1.391 . S
H192 C200 0.950 . S
H193 C205 0.950 . S
H194 C202 0.950 . S
H195 C204 0.950 . S
H196 C206 0.950 . S
H197 C208 0.950 . S
H198 C210 0.950 . S
H199 C211 0.950 . S
C200 H192 0.950 . S
C200 C201 1.386 . S
C200 C202 1.391 . S
C201 C200 1.386 . S
C201 C205 1.393 . S
C202 H194 0.950 . S
C202 C200 1.391 . S
C202 C203 1.400 . S
C203 C202 1.400 . S
C203 C204 1.398 . S
C203 C209 1.491 . S
C204 H195 0.950 . S
C204 C203 1.398 . S
C204 C205 1.391 . S
C205 H193 0.950 . S
C205 C201 1.393 . S
C205 C204 1.391 . S
C206 H196 0.950 . S
C206 C207 1.386 . S
C206 C208 1.391 . S
C207 C206 1.386 . S
C207 C211 1.393 . S
C208 H197 0.950 . S
C208 C206 1.391 . S
C208 C209 1.400 . S
C209 C203 1.491 . S
C209 C208 1.400 . S
C209 C210 1.398 . S
C210 H198 0.950 . S
C210 C209 1.398 . S
C210 C211 1.391 . S
C211 H199 0.950 . S
C211 C207 1.393 . S
C211 C210 1.391 . S
H212 C220 0.950 . S
H213 C225 0.950 . S
H214 C222 0.950 . S
H215 C224 0.950 . S
H216 C226 0.950 . S
H217 C228 0.950 . S
H218 C230 0.950 . S
H219 C231 0.950 . S
C220 H212 0.950 . S
C220 C221 1.386 . S
C220 C222 1.391 . S
C221 C220 1.386 . S
C221 C225 1.393 1_545 S
C222 H214 0.950 . S
C222 C220 1.391 . S
C222 C223 1.400 . S
C223 C222 1.400 . S
C223 C224 1.398 1_545 S
C223 C229 1.491 1_545 S
C224 H215 0.950 . S
C224 C223 1.398 1_565 S
C224 C225 1.391 . S
C225 H213 0.950 . S
C225 C221 1.393 1_565 S
C225 C224 1.391 . S
C226 H216 0.950 . S
C226 C227 1.386 1_655 S
C226 C228 1.391 . S
C227 C226 1.386 1_455 S
C227 C231 1.393 1_565 S
C228 H217 0.950 . S
C228 C226 1.391 . S
C228 C229 1.400 . S
C229 C223 1.491 1_565 S
C229 C228 1.400 . S
C229 C230 1.398 1_565 S
C230 H218 0.950 . S
C230 C229 1.398 1_545 S
C230 C231 1.391 1_655 S
C231 H219 0.950 . S
C231 C227 1.393 1_545 S
C231 C230 1.391 1_455 S
H232 C240 0.950 . S
H233 C245 0.950 . S
H234 C242 0.950 . S
H235 C244 0.950 . S
H236 C246 0.950 . S
H237 C248 0.950 . S
H238 C250 0.950 . S
H239 C251 0.950 . S
C240 H232 0.950 . S
C240 C241 1.386 . S
C240 C242 1.391 . S
C241 C240 1.386 . S
C241 C245 1.393 . S
C242 H234 0.950 . S
C242 C240 1.391 . S
C242 C243 1.400 . S
C243 C242 1.400 . S
C243 C244 1.398 . S
C243 C249 1.491 . S
C244 H235 0.950 . S
C244 C243 1.398 . S
C244 C245 1.391 . S
C245 H233 0.950 . S
C245 C241 1.393 . S
C245 C244 1.391 . S
C246 H236 0.950 . S
C246 C247 1.386 1_455 S
C246 C248 1.391 . S
C247 C246 1.386 1_655 S
C247 C251 1.393 . S
C248 H237 0.950 . S
C248 C246 1.391 . S
C248 C249 1.400 . S
C249 C243 1.491 . S
C249 C248 1.400 . S
C249 C250 1.398 . S
C250 H238 0.950 . S
C250 C249 1.398 . S
C250 C251 1.391 1_455 S
C251 H239 0.950 . S
C251 C247 1.393 . S
C251 C250 1.391 1_655 S
H252 C260 0.950 . S
H253 C265 0.950 . S
H254 C262 0.950 . S
H255 C264 0.950 . S
H256 C266 0.950 1_565 S
H257 C268 0.950 . S
H258 C270 0.950 . S
H259 C271 0.950 . S
C260 H252 0.950 . S
C260 C261 1.386 1_545 S
C260 C262 1.391 . S
C261 C260 1.386 1_565 S
C261 C265 1.393 . S
C262 H254 0.950 . S
C262 C260 1.391 . S
C262 C263 1.400 1_545 S
C263 C262 1.400 1_565 S
C263 C264 1.398 . S
C263 C269 1.491 1_565 S
C264 H255 0.950 . S
C264 C263 1.398 . S
C264 C265 1.391 . S
C265 H253 0.950 . S
C265 C261 1.393 . S
C265 C264 1.391 . S
C266 H256 0.950 1_545 S
C266 C267 1.386 . S
C266 C268 1.391 1_545 S
C267 C266 1.386 . S
C267 C271 1.393 . S
C268 H257 0.950 . S
C268 C266 1.391 1_565 S
C268 C269 1.400 1_565 S
C269 C263 1.491 1_545 S
C269 C268 1.400 1_545 S
C269 C270 1.398 . S
C270 H258 0.950 . S
C270 C269 1.398 . S
C270 C271 1.391 . S
C271 H259 0.950 . S
C271 C267 1.393 . S
C271 C270 1.391 . S
H272 C280 0.950 . S
H273 C285 0.950 . S
H274 C282 0.950 . S
H275 C284 0.950 . S
H276 C286 0.950 . S
H277 C288 0.950 . S
H278 C290 0.950 . S
H279 C291 0.950 . S
C280 H272 0.950 . S
C280 C281 1.386 . S
C280 C282 1.391 . S
C281 C280 1.386 . S
C281 C285 1.393 . S
C282 H274 0.950 . S
C282 C280 1.391 . S
C282 C283 1.400 . S
C283 C282 1.400 . S
C283 C284 1.398 . S
C283 C289 1.491 1_455 S
C284 H275 0.950 . S
C284 C283 1.398 . S
C284 C285 1.391 . S
C285 H273 0.950 . S
C285 C281 1.393 . S
C285 C284 1.391 . S
C286 H276 0.950 . S
C286 C287 1.386 . S
C286 C288 1.391 . S
C287 C286 1.386 . S
C287 C291 1.393 . S
C288 H277 0.950 . S
C288 C286 1.391 . S
C288 C289 1.400 . S
C289 C283 1.491 1_655 S
C289 C288 1.400 . S
C289 C290 1.398 . S
C290 H278 0.950 . S
C290 C289 1.398 . S
C290 C291 1.391 . S
C291 H279 0.950 . S
C291 C287 1.393 . S
C291 C290 1.391 . S
H292 C300 0.950 . S
H293 C305 0.950 . S
H294 C302 0.950 . S
H295 C304 0.950 . S
H296 C306 0.950 . S
H297 C308 0.950 . S
H298 C310 0.950 . S
H299 C311 0.950 . S
C300 H292 0.950 . S
C300 C301 1.386 1_545 S
C300 C302 1.391 . S
C301 C300 1.386 1_565 S
C301 C305 1.393 . S
C302 H294 0.950 . S
C302 C300 1.391 . S
C302 C303 1.400 1_545 S
C303 C302 1.400 1_565 S
C303 C304 1.398 . S
C303 C309 1.491 1_565 S
C304 H295 0.950 . S
C304 C303 1.398 . S
C304 C305 1.391 . S
C305 H293 0.950 . S
C305 C301 1.393 . S
C305 C304 1.391 . S
C306 H296 0.950 . S
C306 C307 1.386 1_565 S
C306 C308 1.391 . S
C307 C306 1.386 1_545 S
C307 C311 1.393 . S
C308 H297 0.950 . S
C308 C306 1.391 . S
C308 C309 1.400 1_565 S
C309 C303 1.491 1_545 S
C309 C308 1.400 1_545 S
C309 C310 1.398 . S
C310 H298 0.950 . S
C310 C309 1.398 . S
C310 C311 1.391 . S
C311 H299 0.950 . S
C311 C307 1.393 . S
C311 C310 1.391 . S
H312 C320 0.950 . S
H313 C325 0.950 . S
H314 C322 0.950 . S
H315 C324 0.950 . S
H316 C326 0.950 . S
H317 C328 0.950 . S
H318 C330 0.950 . S
H319 C331 0.950 . S
C320 H312 0.950 . S
C320 C321 1.386 . S
C320 C322 1.391 . S
C321 C320 1.386 . S
C321 C325 1.393 . S
C322 H314 0.950 . S
C322 C320 1.391 . S
C322 C323 1.400 . S
C323 C322 1.400 . S
C323 C324 1.398 . S
C323 C329 1.491 1_554 S
C324 H315 0.950 . S
C324 C323 1.398 . S
C324 C325 1.391 . S
C325 H313 0.950 . S
C325 C321 1.393 . S
C325 C324 1.391 . S
C326 H316 0.950 . S
C326 C327 1.386 . S
C326 C328 1.391 . S
C327 C326 1.386 . S
C327 C331 1.393 . S
C328 H317 0.950 . S
C328 C326 1.391 . S
C328 C329 1.400 . S
C329 C323 1.491 1_556 S
C329 C328 1.400 . S
C329 C330 1.398 . S
C330 H318 0.950 . S
C330 C329 1.398 . S
C330 C331 1.391 . S
C331 H319 0.950 . S
C331 C327 1.393 . S
C331 C330 1.391 . S
H332 C340 0.950 . S
H333 C345 0.950 . S
H334 C342 0.950 . S
H335 C344 0.950 . S
H336 C346 0.950 . S
H337 C348 0.950 . S
H338 C350 0.950 . S
H339 C351 0.950 . S
C340 H332 0.950 . S
C340 C341 1.386 . S
C340 C342 1.391 . S
C341 C340 1.386 . S
C341 C345 1.393 1_565 S
C342 H334 0.950 . S
C342 C340 1.391 . S
C342 C343 1.400 . S
C343 C342 1.400 . S
C343 C344 1.398 1_565 S
C343 C349 1.491 1_466 S
C344 H335 0.950 . S
C344 C343 1.398 1_545 S
C344 C345 1.391 . S
C345 H333 0.950 . S
C345 C341 1.393 1_545 S
C345 C344 1.391 . S
C346 H336 0.950 . S
C346 C347 1.386 . S
C346 C348 1.391 . S
C347 C346 1.386 . S
C347 C351 1.393 1_545 S
C348 H337 0.950 . S
C348 C346 1.391 . S
C348 C349 1.400 . S
C349 C343 1.491 1_644 S
C349 C348 1.400 . S
C349 C350 1.398 1_545 S
C350 H338 0.950 . S
C350 C349 1.398 1_565 S
C350 C351 1.391 . S
C351 H339 0.950 . S
C351 C347 1.393 1_565 S
C351 C350 1.391 . S
H352 C360 0.950 . S
H353 C365 0.950 . S
H354 C362 0.950 . S
H355 C364 0.950 . S
H356 C366 0.950 . S
H357 C368 0.950 . S
H358 C370 0.950 . S
H359 C371 0.950 . S
C360 H352 0.950 . S
C360 C361 1.386 . S
C360 C362 1.391 . S
C361 C360 1.386 . S
C361 C365 1.393 . S
C362 H354 0.950 . S
C362 C360 1.391 . S
C362 C363 1.400 . S
C363 C362 1.400 . S
C363 C364 1.398 . S
C363 C369 1.491 . S
C364 H355 0.950 . S
C364 C363 1.398 . S
C364 C365 1.391 . S
C365 H353 0.950 . S
C365 C361 1.393 . S
C365 C364 1.391 . S
C366 H356 0.950 . S
C366 C367 1.386 . S
C366 C368 1.391 . S
C367 C366 1.386 . S
C367 C371 1.393 . S
C368 H357 0.950 . S
C368 C366 1.391 . S
C368 C369 1.400 . S
C369 C363 1.491 . S
C369 C368 1.400 . S
C369 C370 1.398 . S
C370 H358 0.950 . S
C370 C369 1.398 . S
C370 C371 1.391 . S
C371 H359 0.950 . S
C371 C367 1.393 . S
C371 C370 1.391 . S
H372 C380 0.950 . S
H373 C385 0.950 . S
H374 C382 0.950 . S
H375 C384 0.950 . S
H376 C386 0.950 . S
H377 C388 0.950 . S
H378 C390 0.950 . S
H379 C391 0.950 . S
C380 H372 0.950 . S
C380 C381 1.386 . S
C380 C382 1.391 . S
C381 C380 1.386 . S
C381 C385 1.393 . S
C382 H374 0.950 . S
C382 C380 1.391 . S
C382 C383 1.400 . S
C383 C382 1.400 . S
C383 C384 1.398 . S
C383 C389 1.491 . S
C384 H375 0.950 . S
C384 C383 1.398 . S
C384 C385 1.391 . S
C385 H373 0.950 . S
C385 C381 1.393 . S
C385 C384 1.391 . S
C386 H376 0.950 . S
C386 C387 1.386 . S
C386 C388 1.391 . S
C387 C386 1.386 . S
C387 C391 1.393 . S
C388 H377 0.950 . S
C388 C386 1.391 . S
C388 C389 1.400 . S
C389 C383 1.491 . S
C389 C388 1.400 . S
C389 C390 1.398 . S
C390 H378 0.950 . S
C390 C389 1.398 . S
C390 C391 1.391 . S
C391 H379 0.950 . S
C391 C387 1.393 . S
C391 C390 1.391 . S
H392 C400 0.950 . S
H393 C405 0.950 . S
H394 C402 0.950 . S
H395 C404 0.950 . S
H396 C406 0.950 . S
H397 C408 0.950 . S
H398 C410 0.950 . S
H399 C411 0.950 . S
C400 H392 0.950 . S
C400 C401 1.386 . S
C400 C402 1.391 . S
C401 C400 1.386 . S
C401 C405 1.393 . S
C402 H394 0.950 . S
C402 C400 1.391 . S
C402 C403 1.400 . S
C403 C402 1.400 . S
C403 C404 1.398 . S
C403 C409 1.491 . S
C404 H395 0.950 . S
C404 C403 1.398 . S
C404 C405 1.391 . S
C405 H393 0.950 . S
C405 C401 1.393 . S
C405 C404 1.391 . S
C406 H396 0.950 . S
C406 C407 1.386 . S
C406 C408 1.391 . S
C407 C406 1.386 . S
C407 C411 1.393 . S
C408 H397 0.950 . S
C408 C406 1.391 . S
C408 C409 1.400 . S
C409 C403 1.491 . S
C409 C408 1.400 . S
C409 C410 1.398 . S
C410 H398 0.950 . S
C410 C409 1.398 . S
C410 C411 1.391 . S
C411 H399 0.950 . S
C411 C407 1.393 . S
C411 C410 1.391 . S
H412 C420 0.950 . S
H413 C425 0.950 . S
H414 C422 0.950 . S
H415 C424 0.950 . S
H416 C426 0.950 . S
H417 C428 0.950 . S
H418 C430 0.950 . S
H419 C431 0.950 . S
C420 H412 0.950 . S
C420 C421 1.386 . S
C420 C422 1.391 . S
C421 C420 1.386 . S
C421 C425 1.393 . S
C422 H414 0.950 . S
C422 C420 1.391 . S
C422 C423 1.400 . S
C423 C422 1.400 . S
C423 C424 1.398 . S
C423 C429 1.491 . S
C424 H415 0.950 . S
C424 C423 1.398 . S
C424 C425 1.391 . S
C425 H413 0.950 . S
C425 C421 1.393 . S
C425 C424 1.391 . S
C426 H416 0.950 . S
C426 C427 1.386 . S
C426 C428 1.391 . S
C427 C426 1.386 . S
C427 C431 1.393 . S
C428 H417 0.950 . S
C428 C426 1.391 . S
C428 C429 1.400 . S
C429 C423 1.491 . S
C429 C428 1.400 . S
C429 C430 1.398 . S
C430 H418 0.950 . S
C430 C429 1.398 . S
C430 C431 1.391 . S
C431 H419 0.950 . S
C431 C427 1.393 . S
C431 C430 1.391 . S
C121 C9 1.385 . S
C127 C35 1.371 . S
C141 C49 1.384 . S
C147 C23 1.400 . S
C161 C37 1.390 . S
C167 C7 1.379 . S
C181 C51 1.398 . S
C187 C21 1.383 . S
C201 C91 1.385 . S
C207 C65 1.395 . S
C221 C79 1.387 . S
C227 C105 1.371 . S
C241 C93 1.386 . S
C247 C63 1.370 . S
C261 C107 1.405 . S
C267 C77 1.394 . S
C281 C8 1.520 . S
C287 C64 1.520 . S
C301 C22 1.520 . S
C307 C78 1.520 . S
C321 C36 1.519 . S
C327 C92 1.519 . S
C341 C106 1.520 . S
C347 C50 1.520 . S
C361 C3 1.527 . S
C367 C17 1.529 . S
C381 C45 1.526 . S
C387 C31 1.528 . S
C401 C73 1.525 . S
C407 C59 1.526 . S
C421 C87 1.530 . S
C427 C101 1.530 . S
