# Generated by pormake.
# Topology ukc, (4)-cn, num edge types: 1
# Building blocks:
#     Node 0, Type 0, BuildingBlock: CEKHIL_clean_sbu_0, # of connection points: 4
#     Node 1, Type 0, BuildingBlock: CEKHIL_clean_sbu_0, # of connection points: 4
#     Node 2, Type 0, BuildingBlock: CEKHIL_clean_sbu_0, # of connection points: 4
#     Node 3, Type 0, BuildingBlock: CEKHIL_clean_sbu_0, # of connection points: 4
#     Node 4, Type 0, BuildingBlock: CEKHIL_clean_sbu_0, # of connection points: 4
#     Node 5, Type 0, BuildingBlock: CEKHIL_clean_sbu_0, # of connection points: 4
#     Node 6, Type 0, BuildingBlock: CEKHIL_clean_sbu_0, # of connection points: 4
#     Node 7, Type 0, BuildingBlock: CEKHIL_clean_sbu_0, # of connection points: 4
#     Node 8, Type 0, BuildingBlock: CEKHIL_clean_sbu_0, # of connection points: 4
#     Node 9, Type 0, BuildingBlock: CEKHIL_clean_sbu_0, # of connection points: 4
#     Node 10, Type 0, BuildingBlock: CEKHIL_clean_sbu_0, # of connection points: 4
#     Node 11, Type 0, BuildingBlock: CEKHIL_clean_sbu_0, # of connection points: 4
#     Node 12, Type 0, BuildingBlock: CEKHIL_clean_sbu_0, # of connection points: 4
#     Node 13, Type 0, BuildingBlock: CEKHIL_clean_sbu_0, # of connection points: 4
#     Node 14, Type 0, BuildingBlock: CEKHIL_clean_sbu_0, # of connection points: 4
#     Node 15, Type 0, BuildingBlock: CEKHIL_clean_sbu_0, # of connection points: 4
#     Node 16, Type 0, BuildingBlock: CEKHIL_clean_sbu_0, # of connection points: 4
#     Node 17, Type 0, BuildingBlock: CEKHIL_clean_sbu_0, # of connection points: 4
#     Node 18, Type 0, BuildingBlock: CEKHIL_clean_sbu_0, # of connection points: 4
#     Node 19, Type 0, BuildingBlock: CEKHIL_clean_sbu_0, # of connection points: 4
#     Node 20, Type 0, BuildingBlock: CEKHIL_clean_sbu_0, # of connection points: 4
#     Node 21, Type 0, BuildingBlock: CEKHIL_clean_sbu_0, # of connection points: 4
#     Node 22, Type 0, BuildingBlock: CEKHIL_clean_sbu_0, # of connection points: 4
#     Node 23, Type 0, BuildingBlock: CEKHIL_clean_sbu_0, # of connection points: 4
#     Node 24, Type 0, BuildingBlock: CEKHIL_clean_sbu_0, # of connection points: 4
#     Node 25, Type 0, BuildingBlock: CEKHIL_clean_sbu_0, # of connection points: 4
#     Node 26, Type 0, BuildingBlock: CEKHIL_clean_sbu_0, # of connection points: 4
#     Node 27, Type 0, BuildingBlock: CEKHIL_clean_sbu_0, # of connection points: 4
#     Node 28, Type 0, BuildingBlock: CEKHIL_clean_sbu_0, # of connection points: 4
#     Node 29, Type 0, BuildingBlock: CEKHIL_clean_sbu_0, # of connection points: 4
#     Node 30, Type 0, BuildingBlock: CEKHIL_clean_sbu_0, # of connection points: 4
#     Node 31, Type 0, BuildingBlock: CEKHIL_clean_sbu_0, # of connection points: 4
#     Edge 32, Type (0, 0), BuildingBlock: XUDNAN_clean_linker_2, # of connection points: 2
#     Edge 33, Type (0, 0), BuildingBlock: XUDNAN_clean_linker_2, # of connection points: 2
#     Edge 34, Type (0, 0), BuildingBlock: XUDNAN_clean_linker_2, # of connection points: 2
#     Edge 35, Type (0, 0), BuildingBlock: XUDNAN_clean_linker_2, # of connection points: 2
#     Edge 36, Type (0, 0), BuildingBlock: XUDNAN_clean_linker_2, # of connection points: 2
#     Edge 37, Type (0, 0), BuildingBlock: XUDNAN_clean_linker_2, # of connection points: 2
#     Edge 38, Type (0, 0), BuildingBlock: XUDNAN_clean_linker_2, # of connection points: 2
#     Edge 39, Type (0, 0), BuildingBlock: XUDNAN_clean_linker_2, # of connection points: 2
#     Edge 40, Type (0, 0), BuildingBlock: XUDNAN_clean_linker_2, # of connection points: 2
#     Edge 41, Type (0, 0), BuildingBlock: XUDNAN_clean_linker_2, # of connection points: 2
#     Edge 42, Type (0, 0), BuildingBlock: XUDNAN_clean_linker_2, # of connection points: 2
#     Edge 43, Type (0, 0), BuildingBlock: XUDNAN_clean_linker_2, # of connection points: 2
#     Edge 44, Type (0, 0), BuildingBlock: XUDNAN_clean_linker_2, # of connection points: 2
#     Edge 45, Type (0, 0), BuildingBlock: XUDNAN_clean_linker_2, # of connection points: 2
#     Edge 46, Type (0, 0), BuildingBlock: XUDNAN_clean_linker_2, # of connection points: 2
#     Edge 47, Type (0, 0), BuildingBlock: XUDNAN_clean_linker_2, # of connection points: 2
#     Edge 48, Type (0, 0), BuildingBlock: XUDNAN_clean_linker_2, # of connection points: 2
#     Edge 49, Type (0, 0), BuildingBlock: XUDNAN_clean_linker_2, # of connection points: 2
#     Edge 50, Type (0, 0), BuildingBlock: XUDNAN_clean_linker_2, # of connection points: 2
#     Edge 51, Type (0, 0), BuildingBlock: XUDNAN_clean_linker_2, # of connection points: 2
#     Edge 52, Type (0, 0), BuildingBlock: XUDNAN_clean_linker_2, # of connection points: 2
#     Edge 53, Type (0, 0), BuildingBlock: XUDNAN_clean_linker_2, # of connection points: 2
#     Edge 54, Type (0, 0), BuildingBlock: XUDNAN_clean_linker_2, # of connection points: 2
#     Edge 55, Type (0, 0), BuildingBlock: XUDNAN_clean_linker_2, # of connection points: 2
#     Edge 56, Type (0, 0), BuildingBlock: XUDNAN_clean_linker_2, # of connection points: 2
#     Edge 57, Type (0, 0), BuildingBlock: XUDNAN_clean_linker_2, # of connection points: 2
#     Edge 58, Type (0, 0), BuildingBlock: XUDNAN_clean_linker_2, # of connection points: 2
#     Edge 59, Type (0, 0), BuildingBlock: XUDNAN_clean_linker_2, # of connection points: 2
#     Edge 60, Type (0, 0), BuildingBlock: XUDNAN_clean_linker_2, # of connection points: 2
#     Edge 61, Type (0, 0), BuildingBlock: XUDNAN_clean_linker_2, # of connection points: 2
#     Edge 62, Type (0, 0), BuildingBlock: XUDNAN_clean_linker_2, # of connection points: 2
#     Edge 63, Type (0, 0), BuildingBlock: XUDNAN_clean_linker_2, # of connection points: 2
#     Edge 64, Type (0, 0), BuildingBlock: XUDNAN_clean_linker_2, # of connection points: 2
#     Edge 65, Type (0, 0), BuildingBlock: XUDNAN_clean_linker_2, # of connection points: 2
#     Edge 66, Type (0, 0), BuildingBlock: XUDNAN_clean_linker_2, # of connection points: 2
#     Edge 67, Type (0, 0), BuildingBlock: XUDNAN_clean_linker_2, # of connection points: 2
#     Edge 68, Type (0, 0), BuildingBlock: XUDNAN_clean_linker_2, # of connection points: 2
#     Edge 69, Type (0, 0), BuildingBlock: XUDNAN_clean_linker_2, # of connection points: 2
#     Edge 70, Type (0, 0), BuildingBlock: XUDNAN_clean_linker_2, # of connection points: 2
#     Edge 71, Type (0, 0), BuildingBlock: XUDNAN_clean_linker_2, # of connection points: 2
#     Edge 72, Type (0, 0), BuildingBlock: XUDNAN_clean_linker_2, # of connection points: 2
#     Edge 73, Type (0, 0), BuildingBlock: XUDNAN_clean_linker_2, # of connection points: 2
#     Edge 74, Type (0, 0), BuildingBlock: XUDNAN_clean_linker_2, # of connection points: 2
#     Edge 75, Type (0, 0), BuildingBlock: XUDNAN_clean_linker_2, # of connection points: 2
#     Edge 76, Type (0, 0), BuildingBlock: XUDNAN_clean_linker_2, # of connection points: 2
#     Edge 77, Type (0, 0), BuildingBlock: XUDNAN_clean_linker_2, # of connection points: 2
#     Edge 78, Type (0, 0), BuildingBlock: XUDNAN_clean_linker_2, # of connection points: 2
#     Edge 79, Type (0, 0), BuildingBlock: XUDNAN_clean_linker_2, # of connection points: 2
#     Edge 80, Type (0, 0), BuildingBlock: XUDNAN_clean_linker_2, # of connection points: 2
#     Edge 81, Type (0, 0), BuildingBlock: XUDNAN_clean_linker_2, # of connection points: 2
#     Edge 82, Type (0, 0), BuildingBlock: XUDNAN_clean_linker_2, # of connection points: 2
#     Edge 83, Type (0, 0), BuildingBlock: XUDNAN_clean_linker_2, # of connection points: 2
#     Edge 84, Type (0, 0), BuildingBlock: XUDNAN_clean_linker_2, # of connection points: 2
#     Edge 85, Type (0, 0), BuildingBlock: XUDNAN_clean_linker_2, # of connection points: 2
#     Edge 86, Type (0, 0), BuildingBlock: XUDNAN_clean_linker_2, # of connection points: 2
#     Edge 87, Type (0, 0), BuildingBlock: XUDNAN_clean_linker_2, # of connection points: 2
#     Edge 88, Type (0, 0), BuildingBlock: XUDNAN_clean_linker_2, # of connection points: 2
#     Edge 89, Type (0, 0), BuildingBlock: XUDNAN_clean_linker_2, # of connection points: 2
#     Edge 90, Type (0, 0), BuildingBlock: XUDNAN_clean_linker_2, # of connection points: 2
#     Edge 91, Type (0, 0), BuildingBlock: XUDNAN_clean_linker_2, # of connection points: 2
#     Edge 92, Type (0, 0), BuildingBlock: XUDNAN_clean_linker_2, # of connection points: 2
#     Edge 93, Type (0, 0), BuildingBlock: XUDNAN_clean_linker_2, # of connection points: 2
#     Edge 94, Type (0, 0), BuildingBlock: XUDNAN_clean_linker_2, # of connection points: 2
#     Edge 95, Type (0, 0), BuildingBlock: XUDNAN_clean_linker_2, # of connection points: 2
# Relax obj value: 0.050
# Max RMSD: 0.066
# Mean RMSD: 0.066
data_MOF--net-ukc--node1-CEKHIL_clean_sbu_0--edge1-XUDNAN_clean_linker_2
_symmetry_space_group_name_H-M    P1
_symmetry_Int_Tables_number       1
_symmetry_cell_setting            triclinic
loop_
_symmetry_equiv_pos_as_xyz
'x, y, z'
_cell_length_a     44.261014
_cell_length_b     44.358792
_cell_length_c     85.347109
_cell_angle_alpha  89.990234
_cell_angle_beta   90.00454
_cell_angle_gamma 90.03516
loop_
_atom_site_label
_atom_site_type_symbol
_atom_site_fract_x
_atom_site_fract_y
_atom_site_fract_z
_atom_type_partial_charge
Co0 Co 0.12139 0.39562 0.04805 0.0
O1 O 0.15548 0.42291 0.04535 0.0
O2 O 0.14724 0.38269 0.03081 0.0
C3 C 0.125 0.3921 0.07462 0.0
O4 O 0.09034 0.36095 0.04722 0.0
Co5 Co 0.06441 0.40924 0.06849 0.0
O6 O 0.05681 0.36542 0.06689 0.0
C7 C 0.07479 0.44157 0.03854 0.0
C8 C 0.16448 0.4056 0.03398 0.0
C9 C 0.06874 0.35034 0.05581 0.0
O10 O 0.09538 0.42263 0.0341 0.0
O11 O 0.06254 0.44118 0.05211 0.0
O12 O 0.14237 0.37558 0.06579 0.0
O13 O 0.10787 0.41053 0.06721 0.0
Co14 Co 0.86788 0.86813 0.29721 0.0
O15 O 0.84027 0.9011 0.29274 0.0
O16 O 0.87669 0.88625 0.27689 0.0
C17 C 0.87866 0.88323 0.32201 0.0
O18 O 0.90189 0.83647 0.29772 0.0
Co19 Co 0.85877 0.8223 0.32456 0.0
O20 O 0.90186 0.81238 0.32091 0.0
C21 C 0.82171 0.81759 0.29548 0.0
C22 C 0.8552 0.9054 0.27984 0.0
C23 C 0.9142 0.81857 0.30782 0.0
O24 O 0.83806 0.83746 0.28824 0.0
O25 O 0.82525 0.81099 0.30998 0.0
O26 O 0.89259 0.8953 0.31016 0.0
O27 O 0.85795 0.86406 0.31848 0.0
Co28 Co 0.39338 0.61541 0.54252 0.0
O29 O 0.35607 0.59358 0.53771 0.0
O30 O 0.37505 0.63043 0.52344 0.0
C31 C 0.38341 0.62448 0.56816 0.0
O32 O 0.42915 0.64469 0.54351 0.0
Co33 Co 0.44077 0.59366 0.56699 0.0
O34 O 0.45684 0.63549 0.5651 0.0
C35 C 0.43964 0.56608 0.53543 0.0
C36 C 0.35292 0.61174 0.52586 0.0
C37 C 0.45025 0.6517 0.55325 0.0
O38 O 0.4194 0.58514 0.53079 0.0
O39 O 0.44877 0.56413 0.54963 0.0
O40 O 0.37145 0.64099 0.55724 0.0
O41 O 0.39842 0.60136 0.56328 0.0
Co42 Co 0.64614 0.14941 0.7926 0.0
O43 O 0.67418 0.11683 0.78811 0.0
O44 O 0.63725 0.131 0.77238 0.0
C45 C 0.63586 0.13392 0.81746 0.0
O46 O 0.6116 0.18057 0.79324 0.0
Co47 Co 0.65522 0.19511 0.81997 0.0
O48 O 0.6122 0.20495 0.81634 0.0
C49 C 0.69071 0.20151 0.79035 0.0
C50 C 0.659 0.11216 0.77533 0.0
C51 C 0.59953 0.19862 0.80335 0.0
O52 O 0.67526 0.18064 0.78335 0.0
O53 O 0.68718 0.20801 0.80486 0.0
O54 O 0.62204 0.1218 0.80561 0.0
O55 O 0.65628 0.15342 0.81392 0.0
Co56 Co 0.11076 0.61646 0.45965 0.0
O57 O 0.14658 0.59266 0.46502 0.0
O58 O 0.12693 0.62831 0.47978 0.0
C59 C 0.12609 0.62682 0.43479 0.0
O60 O 0.07674 0.64796 0.45864 0.0
Co61 Co 0.0662 0.60493 0.43218 0.0
O62 O 0.05396 0.64755 0.43517 0.0
C63 C 0.06153 0.56891 0.46181 0.0
C64 C 0.149 0.60961 0.47739 0.0
C65 C 0.05888 0.65981 0.4484 0.0
O66 O 0.08192 0.58499 0.46887 0.0
O67 O 0.05459 0.5726 0.44736 0.0
O68 O 0.13642 0.64237 0.44652 0.0
O69 O 0.10802 0.60518 0.43841 0.0
Co70 Co 0.65018 0.8675 0.7113 0.0
O71 O 0.67856 0.90055 0.71383 0.0
O72 O 0.6363 0.89593 0.72723 0.0
C73 C 0.64985 0.86851 0.68465 0.0
O74 O 0.61428 0.83799 0.71168 0.0
Co75 Co 0.66617 0.80824 0.69339 0.0
O76 O 0.62243 0.79933 0.69517 0.0
C77 C 0.69103 0.8191 0.72512 0.0
C78 C 0.66026 0.91186 0.72416 0.0
C79 C 0.6054 0.81383 0.70454 0.0
O80 O 0.67336 0.84206 0.72719 0.0
O81 O 0.69323 0.80509 0.71206 0.0
O82 O 0.63312 0.88725 0.69252 0.0
O83 O 0.66712 0.85165 0.693 0.0
Co84 Co 0.401 0.39544 0.96118 0.0
O85 O 0.36953 0.42472 0.96596 0.0
O86 O 0.37359 0.38019 0.97722 0.0
C87 C 0.3981 0.39887 0.93463 0.0
O88 O 0.42834 0.35818 0.9592 0.0
Co89 Co 0.45998 0.41095 0.94287 0.0
O90 O 0.46871 0.36719 0.94385 0.0
C91 C 0.45135 0.43356 0.97507 0.0
C92 C 0.35865 0.40524 0.97586 0.0
C93 C 0.45256 0.34945 0.95208 0.0
O94 O 0.42894 0.4152 0.97727 0.0
O95 O 0.464 0.43724 0.96173 0.0
O96 O 0.37884 0.38228 0.94228 0.0
O97 O 0.4164 0.41418 0.94322 0.0
Co98 Co 0.87173 0.14392 0.21027 0.0
O99 O 0.84265 0.11115 0.21235 0.0
O100 O 0.88434 0.11537 0.22632 0.0
C101 C 0.87388 0.14365 0.18357 0.0
O102 O 0.90847 0.17246 0.21136 0.0
Co103 Co 0.85904 0.20426 0.19275 0.0
O104 O 0.90211 0.21364 0.19633 0.0
C105 C 0.82797 0.19051 0.22254 0.0
C106 C 0.86024 0.09988 0.22306 0.0
C107 C 0.91827 0.19731 0.20528 0.0
O108 O 0.84695 0.16915 0.22576 0.0
O109 O 0.82752 0.20442 0.20942 0.0
O110 O 0.88959 0.12424 0.1916 0.0
O111 O 0.85652 0.16073 0.19176 0.0
Co112 Co 0.89839 0.61442 0.96334 0.0
O113 O 0.86557 0.58603 0.96675 0.0
O114 O 0.87117 0.62851 0.97982 0.0
C115 C 0.89538 0.61447 0.93674 0.0
O116 O 0.92824 0.65001 0.96306 0.0
Co117 Co 0.95619 0.59818 0.94395 0.0
O118 O 0.96466 0.64209 0.9451 0.0
C119 C 0.94701 0.5727 0.97562 0.0
C120 C 0.85513 0.60444 0.97727 0.0
C121 C 0.9514 0.65891 0.95507 0.0
O122 O 0.92534 0.59147 0.97858 0.0
O123 O 0.95914 0.56975 0.96209 0.0
O124 O 0.87715 0.63126 0.94492 0.0
O125 O 0.91279 0.59733 0.94481 0.0
Co126 Co 0.14527 0.15365 0.71731 0.0
O127 O 0.17453 0.1224 0.7223 0.0
O128 O 0.13069 0.12774 0.73421 0.0
C129 C 0.14772 0.14722 0.69082 0.0
O130 O 0.10853 0.18193 0.71552 0.0
Co131 Co 0.15921 0.20929 0.69592 0.0
O132 O 0.11484 0.2151 0.69585 0.0
C133 C 0.17941 0.20849 0.72928 0.0
C134 C 0.15544 0.1123 0.73259 0.0
C135 C 0.09859 0.20307 0.70646 0.0
O136 O 0.16582 0.18324 0.73228 0.0
O137 O 0.18065 0.22048 0.71565 0.0
O138 O 0.13074 0.12964 0.69926 0.0
O139 O 0.16333 0.16649 0.69861 0.0
Co140 Co 0.61467 0.3877 0.46324 0.0
O141 O 0.65212 0.41 0.46756 0.0
O142 O 0.63638 0.36996 0.48051 0.0
C143 C 0.62056 0.38592 0.43669 0.0
O144 O 0.58038 0.35652 0.46275 0.0
Co145 Co 0.56108 0.40691 0.44197 0.0
O146 O 0.54833 0.36411 0.44281 0.0
C147 C 0.57053 0.43587 0.47308 0.0
C148 C 0.65739 0.38991 0.47834 0.0
C149 C 0.55834 0.34791 0.45395 0.0
O150 O 0.59033 0.41597 0.47733 0.0
O151 O 0.55899 0.43697 0.45934 0.0
O152 O 0.63497 0.36687 0.44556 0.0
O153 O 0.60454 0.40547 0.44406 0.0
Co154 Co 0.37099 0.86419 0.21428 0.0
O155 O 0.34467 0.89889 0.21684 0.0
O156 O 0.3804 0.88591 0.23354 0.0
C157 C 0.38255 0.87359 0.18887 0.0
O158 O 0.40381 0.83136 0.21567 0.0
Co159 Co 0.3598 0.81279 0.1903 0.0
O160 O 0.40337 0.80452 0.19334 0.0
C161 C 0.32531 0.81382 0.22011 0.0
C162 C 0.35951 0.90502 0.22957 0.0
C163 C 0.41598 0.8124 0.20609 0.0
O164 O 0.34005 0.8372 0.22498 0.0
O165 O 0.32925 0.8017 0.20666 0.0
O166 O 0.39676 0.88737 0.20011 0.0
O167 O 0.36086 0.85603 0.19322 0.0
Co168 Co 0.90094 0.38949 0.54524 0.0
O169 O 0.8644 0.41202 0.53944 0.0
O170 O 0.8793 0.36938 0.52868 0.0
C171 C 0.89458 0.39207 0.57165 0.0
O172 O 0.9341 0.35766 0.54763 0.0
Co173 Co 0.95465 0.41169 0.56555 0.0
O174 O 0.96598 0.36845 0.56724 0.0
C175 C 0.94901 0.43218 0.53249 0.0
C176 C 0.85888 0.39024 0.5296 0.0
C177 C 0.95568 0.35031 0.557 0.0
O178 O 0.92676 0.41376 0.52996 0.0
O179 O 0.96112 0.43574 0.54599 0.0
O180 O 0.87957 0.3723 0.5635 0.0
O181 O 0.91109 0.41027 0.5636 0.0
Co182 Co 0.373 0.14391 0.29903 0.0
O183 O 0.34444 0.1114 0.29537 0.0
O184 O 0.38723 0.11714 0.28246 0.0
C185 C 0.37288 0.14044 0.32563 0.0
O186 O 0.40873 0.17354 0.29952 0.0
Co187 Co 0.35681 0.20144 0.31837 0.0
O188 O 0.40094 0.20943 0.31772 0.0
C189 C 0.33229 0.1934 0.28638 0.0
C190 C 0.36295 0.10127 0.2848 0.0
C191 C 0.41776 0.19633 0.3077 0.0
O192 O 0.35034 0.17099 0.28374 0.0
O193 O 0.32953 0.20599 0.2998 0.0
O194 O 0.38961 0.12228 0.3174 0.0
O195 O 0.3558 0.15805 0.3176 0.0
Co196 Co 0.61758 0.61393 0.04741 0.0
O197 O 0.65165 0.58715 0.04391 0.0
O198 O 0.6371 0.62238 0.02734 0.0
C199 C 0.63082 0.62614 0.07233 0.0
O200 O 0.58483 0.64702 0.04702 0.0
Co201 Co 0.57027 0.60375 0.07399 0.0
O202 O 0.55911 0.64621 0.06975 0.0
C203 C 0.56873 0.56587 0.04519 0.0
C204 C 0.65661 0.6016 0.03095 0.0
C205 C 0.56579 0.65871 0.05676 0.0
O206 O 0.58839 0.58286 0.03818 0.0
O207 O 0.56114 0.56942 0.05956 0.0
O208 O 0.64319 0.63991 0.06053 0.0
O209 O 0.61252 0.60469 0.06873 0.0
Co210 Co 0.14897 0.86925 0.79903 0.0
O211 O 0.17692 0.90235 0.79549 0.0
O212 O 0.134 0.89648 0.78278 0.0
C213 C 0.14961 0.87187 0.82568 0.0
O214 O 0.11352 0.83929 0.79961 0.0
Co215 Co 0.16681 0.8114 0.81779 0.0
O216 O 0.12301 0.80193 0.81675 0.0
C217 C 0.19015 0.8207 0.78571 0.0
C218 C 0.15801 0.91275 0.78518 0.0
C219 C 0.10536 0.81554 0.80729 0.0
O220 O 0.17155 0.8428 0.78335 0.0
O221 O 0.19376 0.80804 0.79906 0.0
O222 O 0.13249 0.89004 0.81766 0.0
O223 O 0.16683 0.85481 0.81742 0.0
Co224 Co 0.61564 0.88863 0.54474 0.0
O225 O 0.64641 0.91844 0.53997 0.0
O226 O 0.63548 0.87968 0.52483 0.0
C227 C 0.63099 0.88092 0.56986 0.0
O228 O 0.58678 0.85218 0.5459 0.0
Co229 Co 0.56868 0.89718 0.57171 0.0
O230 O 0.55907 0.85422 0.56798 0.0
C231 C 0.55997 0.92848 0.54108 0.0
C232 C 0.6528 0.90279 0.52757 0.0
C233 C 0.56752 0.84059 0.55559 0.0
O234 O 0.58264 0.91468 0.53467 0.0
O235 O 0.55349 0.92613 0.55566 0.0
O236 O 0.64437 0.86729 0.55833 0.0
O237 O 0.61046 0.89992 0.56584 0.0
Co238 Co 0.37252 0.37588 0.79429 0.0
O239 O 0.34852 0.41212 0.79084 0.0
O240 O 0.38263 0.39462 0.77433 0.0
C241 C 0.38437 0.38652 0.81955 0.0
O242 O 0.40358 0.34126 0.79375 0.0
Co243 Co 0.35798 0.32707 0.81925 0.0
O244 O 0.40069 0.31524 0.81626 0.0
C245 C 0.32453 0.3271 0.7892 0.0
C246 C 0.36312 0.41546 0.77776 0.0
C247 C 0.41423 0.32175 0.80354 0.0
O248 O 0.34025 0.34964 0.7841 0.0
O249 O 0.32762 0.3157 0.80288 0.0
O250 O 0.39944 0.39879 0.80811 0.0
O251 O 0.36183 0.36992 0.8154 0.0
Co252 Co 0.89413 0.12573 0.04234 0.0
O253 O 0.85663 0.10453 0.03709 0.0
O254 O 0.87605 0.14212 0.02354 0.0
C255 C 0.8839 0.13279 0.06816 0.0
O256 O 0.92992 0.15493 0.04372 0.0
Co257 Co 0.94205 0.10329 0.06606 0.0
O258 O 0.95773 0.14533 0.06513 0.0
C259 C 0.94065 0.07716 0.03409 0.0
C260 C 0.85379 0.12342 0.02553 0.0
C261 C 0.95102 0.16194 0.05347 0.0
O262 O 0.91963 0.09588 0.03004 0.0
O263 O 0.95086 0.07526 0.0481 0.0
O264 O 0.87228 0.15025 0.05754 0.0
O265 O 0.89927 0.1102 0.06287 0.0
Co266 Co 0.14227 0.64481 0.29351 0.0
O267 O 0.16642 0.60924 0.2882 0.0
O268 O 0.12253 0.62076 0.27759 0.0
C269 C 0.1461 0.63969 0.31999 0.0
O270 O 0.10939 0.67716 0.29571 0.0
Co271 Co 0.16407 0.69975 0.31335 0.0
O272 O 0.12067 0.7109 0.31442 0.0
C273 C 0.18121 0.69453 0.27969 0.0
C274 C 0.14456 0.6016 0.27883 0.0
C275 C 0.10234 0.69976 0.30449 0.0
O276 O 0.16449 0.67092 0.27754 0.0
O277 O 0.18513 0.70722 0.293 0.0
O278 O 0.12655 0.62378 0.31219 0.0
O279 O 0.16347 0.65644 0.31161 0.0
Co280 Co 0.6107 0.11917 0.95841 0.0
O281 O 0.64773 0.09868 0.96498 0.0
O282 O 0.63142 0.14185 0.97457 0.0
C283 C 0.61804 0.11476 0.93211 0.0
O284 O 0.57557 0.14852 0.95469 0.0
Co285 Co 0.56024 0.08797 0.93858 0.0
O286 O 0.54032 0.12804 0.93893 0.0
C287 C 0.5663 0.07382 0.97218 0.0
C288 C 0.65246 0.12145 0.97425 0.0
C289 C 0.55042 0.14991 0.94708 0.0
O290 O 0.58532 0.09566 0.97426 0.0
O291 O 0.55685 0.06536 0.95873 0.0
O292 O 0.63172 0.13585 0.93996 0.0
O293 O 0.60289 0.09595 0.94049 0.0
Co294 Co 0.14958 0.35813 0.21434 0.0
O295 O 0.17028 0.39577 0.2197 0.0
O296 O 0.13548 0.37382 0.2342 0.0
C297 C 0.13885 0.37094 0.18923 0.0
O298 O 0.12089 0.32173 0.21296 0.0
Co299 Co 0.16953 0.31411 0.18783 0.0
O300 O 0.1313 0.29242 0.19212 0.0
C301 C 0.20356 0.31644 0.21776 0.0
C302 C 0.15286 0.39703 0.23194 0.0
C303 C 0.11507 0.29915 0.20392 0.0
O304 O 0.18287 0.33267 0.22442 0.0
O305 O 0.20334 0.31 0.20314 0.0
O306 O 0.12218 0.38073 0.20067 0.0
O307 O 0.16229 0.35568 0.19332 0.0
Co308 Co 0.89769 0.89803 0.46322 0.0
O309 O 0.86494 0.92632 0.46691 0.0
O310 O 0.86985 0.88282 0.47913 0.0
C311 C 0.89523 0.89995 0.43665 0.0
O312 O 0.92702 0.86207 0.46237 0.0
Co313 Co 0.95626 0.91453 0.44476 0.0
O314 O 0.96262 0.87027 0.44405 0.0
C315 C 0.94753 0.93694 0.47724 0.0
C316 C 0.85396 0.90708 0.47687 0.0
C317 C 0.94926 0.85301 0.45377 0.0
O318 O 0.9242 0.91968 0.47924 0.0
O319 O 0.96119 0.93966 0.46408 0.0
O320 O 0.87677 0.88272 0.44442 0.0
O321 O 0.91278 0.91639 0.44509 0.0
Co322 Co 0.36643 0.65453 0.70834 0.0
O323 O 0.34059 0.61912 0.70909 0.0
O324 O 0.37645 0.62894 0.72624 0.0
C325 C 0.37634 0.65141 0.68217 0.0
O326 O 0.3994 0.68691 0.71118 0.0
Co327 Co 0.3531 0.7109 0.6875 0.0
O328 O 0.39516 0.72256 0.69249 0.0
C329 C 0.31671 0.69931 0.71594 0.0
C330 C 0.35578 0.6104 0.7213 0.0
C331 C 0.40933 0.71031 0.70378 0.0
O332 O 0.33569 0.67922 0.72093 0.0
O333 O 0.31843 0.71152 0.70239 0.0
O334 O 0.39125 0.63461 0.69198 0.0
O335 O 0.35535 0.66754 0.6883 0.0
Co336 Co 0.39362 0.11409 0.46626 0.0
O337 O 0.35704 0.09062 0.47013 0.0
O338 O 0.37342 0.12763 0.48513 0.0
C339 C 0.38434 0.12317 0.44061 0.0
O340 O 0.428 0.14519 0.46619 0.0
Co341 Co 0.444 0.09676 0.44289 0.0
O342 O 0.45475 0.14019 0.44402 0.0
C343 C 0.44204 0.06712 0.47402 0.0
C344 C 0.35239 0.10804 0.48213 0.0
C345 C 0.44739 0.15514 0.45616 0.0
O346 O 0.41943 0.08385 0.47809 0.0
O347 O 0.45403 0.06805 0.46037 0.0
O348 O 0.3715 0.13911 0.45148 0.0
O349 O 0.40065 0.10087 0.44548 0.0
Co350 Co 0.65106 0.64588 0.21348 0.0
O351 O 0.67911 0.61278 0.21665 0.0
O352 O 0.63666 0.61853 0.22981 0.0
C353 C 0.65071 0.64341 0.18685 0.0
O354 O 0.61567 0.67597 0.21337 0.0
Co355 Co 0.66818 0.70383 0.1946 0.0
O356 O 0.62452 0.71326 0.19609 0.0
C357 C 0.6927 0.69441 0.22651 0.0
C358 C 0.66059 0.60234 0.22713 0.0
C359 C 0.60726 0.69974 0.20576 0.0
O360 O 0.67449 0.672 0.22897 0.0
O361 O 0.69535 0.70747 0.21321 0.0
O362 O 0.63379 0.62526 0.195 0.0
O363 O 0.66826 0.66043 0.19495 0.0
Co364 Co 0.11499 0.8962 0.96544 0.0
O365 O 0.14848 0.9235 0.96944 0.0
O366 O 0.13434 0.88719 0.98548 0.0
C367 C 0.129 0.88547 0.94042 0.0
O368 O 0.08297 0.86234 0.9653 0.0
Co369 Co 0.06792 0.90577 0.93873 0.0
O370 O 0.05854 0.86263 0.94219 0.0
C371 C 0.06488 0.94274 0.96794 0.0
C372 C 0.15355 0.90848 0.98221 0.0
C373 C 0.06499 0.8501 0.95518 0.0
O374 O 0.085 0.92628 0.97493 0.0
O375 O 0.05749 0.93906 0.95355 0.0
O376 O 0.14137 0.87142 0.95213 0.0
O377 O 0.11008 0.90625 0.94418 0.0
Co378 Co 0.86678 0.37409 0.71242 0.0
O379 O 0.84051 0.40882 0.71377 0.0
O380 O 0.87619 0.39866 0.73093 0.0
C381 C 0.87791 0.38051 0.6867 0.0
O382 O 0.89965 0.34142 0.71429 0.0
Co383 Co 0.85183 0.32049 0.69044 0.0
O384 O 0.8953 0.31098 0.69332 0.0
C385 C 0.821 0.32472 0.72109 0.0
C386 C 0.85546 0.41726 0.72607 0.0
C387 C 0.90985 0.32039 0.70523 0.0
O388 O 0.83716 0.34806 0.7246 0.0
O389 O 0.82213 0.31175 0.70769 0.0
O390 O 0.89205 0.39563 0.69746 0.0
O391 O 0.85594 0.36383 0.69165 0.0
Co392 Co 0.39757 0.89375 0.04755 0.0
O393 O 0.36396 0.92174 0.04557 0.0
O394 O 0.3693 0.88066 0.03133 0.0
C395 C 0.39662 0.89129 0.07417 0.0
O396 O 0.42791 0.8584 0.04634 0.0
Co397 Co 0.45692 0.90809 0.06586 0.0
O398 O 0.46275 0.86393 0.0653 0.0
C399 C 0.44686 0.93467 0.0344 0.0
C400 C 0.35309 0.90417 0.03478 0.0
C401 C 0.44995 0.84816 0.05476 0.0
O402 O 0.42236 0.91919 0.03229 0.0
O403 O 0.46239 0.93421 0.04703 0.0
O404 O 0.3781 0.87488 0.06595 0.0
O405 O 0.41335 0.90936 0.0662 0.0
Co406 Co 0.86881 0.65222 0.79774 0.0
O407 O 0.84359 0.61713 0.79366 0.0
O408 O 0.87726 0.63548 0.77712 0.0
C409 C 0.88144 0.63764 0.82235 0.0
O410 O 0.90082 0.6859 0.79782 0.0
Co411 Co 0.85862 0.69741 0.82519 0.0
O412 O 0.90166 0.70786 0.82155 0.0
C413 C 0.82085 0.70135 0.7963 0.0
C414 C 0.85774 0.61452 0.78041 0.0
C415 C 0.91337 0.70305 0.80816 0.0
O416 O 0.83693 0.68115 0.78917 0.0
O417 O 0.82497 0.70865 0.81067 0.0
O418 O 0.89573 0.62657 0.81035 0.0
O419 O 0.8596 0.65566 0.81908 0.0
Co420 Co 0.11435 0.11282 0.5516 0.0
O421 O 0.15021 0.08952 0.54571 0.0
O422 O 0.12901 0.12483 0.53127 0.0
C423 C 0.1301 0.12359 0.5763 0.0
O424 O 0.08024 0.14386 0.55301 0.0
Co425 Co 0.07048 0.1002 0.57916 0.0
O426 O 0.05786 0.14292 0.57656 0.0
C427 C 0.06575 0.06454 0.54954 0.0
C428 C 0.15138 0.10631 0.53321 0.0
C429 C 0.06262 0.1555 0.56339 0.0
O430 O 0.08561 0.08129 0.54254 0.0
O431 O 0.05888 0.06761 0.56404 0.0
O432 O 0.14007 0.13902 0.56443 0.0
O433 O 0.11238 0.1015 0.57287 0.0
Co434 Co 0.65142 0.36355 0.29614 0.0
O435 O 0.67879 0.39685 0.29206 0.0
O436 O 0.63998 0.38509 0.27705 0.0
C437 C 0.6433 0.37412 0.32181 0.0
O438 O 0.61753 0.33194 0.29674 0.0
Co439 Co 0.66731 0.31317 0.32013 0.0
O440 O 0.62376 0.30265 0.31804 0.0
C441 C 0.69589 0.31258 0.28885 0.0
C442 C 0.66226 0.40339 0.27997 0.0
C443 C 0.6082 0.31142 0.30633 0.0
O444 O 0.67849 0.33431 0.28431 0.0
O445 O 0.69687 0.30302 0.303 0.0
O446 O 0.62876 0.38837 0.31087 0.0
O447 O 0.66424 0.35615 0.31693 0.0
H448 H 0.96461 0.51388 0.97518 0.0
H449 H 0.96545 0.5944 1.00395 0.0
H450 H 1.00279 0.57043 0.02163 0.0
H451 H 0.97155 0.46005 0.0082 0.0
H452 H 0.99446 0.43447 0.99689 0.0
H453 H 0.96678 0.45774 0.98726 0.0
H454 H 0.00883 0.47834 0.96905 0.0
H455 H 0.03684 0.45599 0.97902 0.0
H456 H 0.04156 0.49625 0.97752 0.0
H457 H 0.04357 0.53994 0.03435 0.0
H458 H 0.07589 0.50032 0.04566 0.0
H459 H 0.04692 0.43793 0.00959 0.0
C460 C 0.97202 0.52607 0.98549 0.0
C461 C 0.96202 0.55589 0.98834 0.0
C462 C 0.97239 0.57136 1.00177 0.0
C463 C 0.99395 0.55809 0.0117 0.0
C464 C 1.00444 0.52921 0.00811 0.0
C465 C 0.99307 0.51294 0.99565 0.0
C466 C 1.00752 0.48194 0.99466 0.0
C467 C 0.98366 0.45708 0.9969 0.0
C468 C 0.0247 0.47791 0.97914 0.0
C469 C 0.02914 0.48337 0.00842 0.0
C470 C 0.02733 0.51113 0.01579 0.0
C471 C 0.04499 0.5181 0.02876 0.0
C472 C 0.06358 0.49557 0.03497 0.0
C473 C 0.06424 0.46627 0.02835 0.0
C474 C 0.04751 0.46035 0.0146 0.0
H475 H 0.74261 0.73054 0.22416 0.0
H476 H 0.6825 0.68965 0.25831 0.0
H477 H 0.7083 0.71814 0.2794 0.0
H478 H 0.80997 0.73097 0.24871 0.0
H479 H 0.82301 0.76654 0.24105 0.0
H480 H 0.80066 0.74187 0.22894 0.0
H481 H 0.76246 0.78518 0.2243 0.0
H482 H 0.7844 0.80985 0.23661 0.0
H483 H 0.74504 0.80338 0.24088 0.0
H484 H 0.73837 0.75343 0.29631 0.0
H485 H 0.77413 0.78832 0.3087 0.0
H486 H 0.81564 0.80619 0.26351 0.0
C487 C 0.73497 0.72725 0.23609 0.0
C488 C 0.71037 0.70784 0.23957 0.0
C489 C 0.70134 0.70416 0.25536 0.0
C490 C 0.71573 0.72045 0.26738 0.0
C491 C 0.73923 0.74008 0.26341 0.0
C492 C 0.74911 0.74317 0.24818 0.0
C493 C 0.77488 0.76572 0.24701 0.0
C494 C 0.80384 0.75035 0.24108 0.0
C495 C 0.76616 0.79262 0.23658 0.0
C496 C 0.77788 0.77514 0.264 0.0
C497 C 0.75694 0.76013 0.2732 0.0
C498 C 0.75501 0.76504 0.28923 0.0
C499 C 0.77551 0.78503 0.29614 0.0
C500 C 0.798 0.79999 0.28712 0.0
C501 C 0.79872 0.79533 0.27074 0.0
H502 H 0.54274 0.43133 0.50219 0.0
H503 H 0.57234 0.49487 0.46676 0.0
H504 H 0.54068 0.53435 0.47856 0.0
H505 H 0.46825 0.45388 0.50424 0.0
H506 H 0.46356 0.45121 0.52517 0.0
H507 H 0.49125 0.42814 0.51542 0.0
H508 H 0.53362 0.44924 0.53323 0.0
H509 H 0.50589 0.47163 0.54341 0.0
H510 H 0.5386 0.48945 0.53488 0.0
H511 H 0.49946 0.5639 0.49082 0.0
H512 H 0.46066 0.58723 0.5077 0.0
H513 H 0.46022 0.50748 0.53713 0.0
C514 C 0.54365 0.45396 0.49745 0.0
C515 C 0.56027 0.46018 0.48366 0.0
C516 C 0.56006 0.48979 0.47743 0.0
C517 C 0.54189 0.5123 0.48394 0.0
C518 C 0.52432 0.50509 0.49691 0.0
C519 C 0.52585 0.4771 0.50403 0.0
C520 C 0.50418 0.47564 0.51785 0.0
C521 C 0.48041 0.45073 0.51552 0.0
C522 C 0.52161 0.47124 0.53326 0.0
C523 C 0.48986 0.50677 0.51702 0.0
C524 C 0.50148 0.52309 0.50463 0.0
C525 C 0.49059 0.55164 0.50077 0.0
C526 C 0.46821 0.56453 0.51027 0.0
C527 C 0.45737 0.54915 0.52366 0.0
C528 C 0.46809 0.5197 0.52693 0.0
H529 H 0.77843 0.2793 0.71778 0.0
H530 H 0.82047 0.33755 0.75247 0.0
H531 H 0.79262 0.31116 0.77334 0.0
H532 H 0.70461 0.27554 0.73689 0.0
H533 H 0.69836 0.23663 0.73172 0.0
H534 H 0.72118 0.26032 0.7193 0.0
H535 H 0.7652 0.22215 0.72148 0.0
H536 H 0.74264 0.1985 0.73405 0.0
H537 H 0.77909 0.21161 0.74057 0.0
H538 H 0.76343 0.27739 0.79045 0.0
H539 H 0.72968 0.24178 0.80334 0.0
H540 H 0.70321 0.20521 0.75805 0.0
C541 C 0.78161 0.28671 0.72976 0.0
C542 C 0.80183 0.31062 0.73343 0.0
C543 C 0.80516 0.31951 0.74927 0.0
C544 C 0.78953 0.30452 0.76124 0.0
C545 C 0.77037 0.28079 0.75724 0.0
C546 C 0.76591 0.27213 0.7419 0.0
C547 C 0.74356 0.24603 0.74095 0.0
C548 C 0.71525 0.25518 0.73166 0.0
C549 C 0.75853 0.21791 0.73384 0.0
C550 C 0.73632 0.24131 0.7582 0.0
C551 C 0.7524 0.26156 0.76727 0.0
C552 C 0.75044 0.26167 0.78348 0.0
C553 C 0.73102 0.24112 0.79068 0.0
C554 C 0.71319 0.22059 0.78179 0.0
C555 C 0.71631 0.2205 0.76524 0.0
H556 H 0.99579 0.4729 0.53413 0.0
H557 H 0.93271 0.43243 0.50123 0.0
H558 H 0.95598 0.46207 0.47982 0.0
H559 H 0.99621 0.54689 0.5175 0.0
H560 H 0.03587 0.55315 0.52104 0.0
H561 H 0.01471 0.52845 0.5337 0.0
H562 H 0.05277 0.48541 0.52821 0.0
H563 H 0.07403 0.50995 0.51549 0.0
H564 H 0.06024 0.47432 0.50826 0.0
H565 H 0.98602 0.49546 0.46219 0.0
H566 H 0.01877 0.53191 0.44917 0.0
H567 H 0.06265 0.55226 0.49355 0.0
C568 C 0.98672 0.47012 0.52244 0.0
C569 C 0.96226 0.45012 0.51941 0.0
C570 C 0.95132 0.44746 0.5039 0.0
C571 C 0.96445 0.46418 0.49166 0.0
C572 C 0.98853 0.48346 0.49512 0.0
C573 C 0.99951 0.4866 0.51013 0.0
C574 C 0.02542 0.50916 0.51073 0.0
C575 C 0.01757 0.536 0.52137 0.0
C576 C 0.05485 0.49379 0.51598 0.0
C577 C 0.02711 0.5186 0.49367 0.0
C578 C 1.00575 0.50319 0.48492 0.0
C579 C 1.00274 0.50768 0.46893 0.0
C580 C 0.02169 0.52864 0.46165 0.0
C581 C 0.04355 0.54541 0.47027 0.0
C582 C 0.04635 0.53999 0.48656 0.0
H583 H 0.73824 0.77941 0.72333 0.0
H584 H 0.68386 0.82923 0.75684 0.0
H585 H 0.7103 0.80308 0.77853 0.0
H586 H 0.73874 0.70956 0.74363 0.0
H587 H 0.77718 0.70037 0.73856 0.0
H588 H 0.75497 0.72373 0.72571 0.0
H589 H 0.79566 0.76566 0.72697 0.0
H590 H 0.81821 0.74228 0.73964 0.0
H591 H 0.80774 0.77972 0.74577 0.0
H592 H 0.74075 0.7696 0.79631 0.0
H593 H 0.77628 0.73546 0.80937 0.0
H594 H 0.8117 0.70752 0.76416 0.0
C595 C 0.73191 0.78509 0.73522 0.0
C596 C 0.70878 0.80641 0.73837 0.0
C597 C 0.70152 0.81317 0.75412 0.0
C598 C 0.71629 0.79826 0.7665 0.0
C599 C 0.73836 0.77682 0.7629 0.0
C600 C 0.74642 0.77055 0.74765 0.0
C601 C 0.77095 0.74664 0.7469 0.0
C602 C 0.75978 0.71841 0.73818 0.0
C603 C 0.79985 0.75934 0.73938 0.0
C604 C 0.77548 0.74026 0.76418 0.0
C605 C 0.75627 0.75782 0.77316 0.0
C606 C 0.75601 0.75597 0.7894 0.0
C607 C 0.77639 0.73636 0.79669 0.0
C608 C 0.79712 0.71876 0.78784 0.0
C609 C 0.79617 0.72044 0.7713 0.0
H610 H 0.48713 0.48367 0.97314 0.0
H611 H 0.44679 0.42236 0.00685 0.0
H612 H 0.47429 0.44859 0.0282 0.0
H613 H 0.55991 0.48822 0.99057 0.0
H614 H 0.5651 0.52768 0.9863 0.0
H615 H 0.54166 0.50484 0.97377 0.0
H616 H 0.49677 0.54143 0.97791 0.0
H617 H 0.52019 0.56464 0.99026 0.0
H618 H 0.48474 0.55036 0.99755 0.0
H619 H 0.50799 0.48002 0.04549 0.0
H620 H 0.54086 0.51728 0.0582 0.0
H621 H 0.55904 0.55899 0.01312 0.0
C622 C 0.48386 0.47573 0.98501 0.0
C623 C 0.46483 0.45074 0.9883 0.0
C624 C 0.46107 0.44144 1.00404 0.0
C625 C 0.47678 0.45609 0.0162 0.0
C626 C 0.49594 0.4801 0.01242 0.0
C627 C 0.49919 0.49011 0.99723 0.0
C628 C 0.52087 0.51662 0.99626 0.0
C629 C 0.54852 0.50886 0.98612 0.0
C630 C 0.50467 0.54494 0.99013 0.0
C631 C 0.52956 0.52001 0.01334 0.0
C632 C 0.51502 0.49855 0.02241 0.0
C633 C 0.51927 0.49701 0.03851 0.0
C634 C 0.5381 0.51838 0.0456 0.0
C635 C 0.55254 0.54135 0.0367 0.0
C636 C 0.54859 0.54171 0.02026 0.0
H637 H 0.83194 0.21445 0.25262 0.0
H638 H 0.76897 0.189 0.21604 0.0
H639 H 0.72867 0.21776 0.22908 0.0
H640 H 0.77368 0.21259 0.2854 0.0
H641 H 0.79076 0.24435 0.29517 0.0
H642 H 0.81385 0.21873 0.28398 0.0
H643 H 0.83399 0.26383 0.2678 0.0
H644 H 0.81034 0.28946 0.27861 0.0
H645 H 0.80766 0.28775 0.25755 0.0
H646 H 0.69811 0.25622 0.24295 0.0
H647 H 0.67442 0.29294 0.26092 0.0
H648 H 0.75424 0.2908 0.29038 0.0
C649 C 0.8093 0.21378 0.24784 0.0
C650 C 0.80342 0.19912 0.23342 0.0
C651 C 0.77377 0.1997 0.22718 0.0
C652 C 0.75079 0.21623 0.23442 0.0
C653 C 0.75756 0.23181 0.2481 0.0
C654 C 0.78569 0.22994 0.25513 0.0
C655 C 0.7867 0.24957 0.26975 0.0
C656 C 0.79152 0.23015 0.28445 0.0
C657 C 0.81113 0.2741 0.26833 0.0
C658 C 0.75517 0.26326 0.26948 0.0
C659 C 0.739 0.25299 0.25672 0.0
C660 C 0.71025 0.26394 0.25321 0.0
C661 C 0.69712 0.28509 0.26334 0.0
C662 C 0.71246 0.29468 0.27699 0.0
C663 C 0.74198 0.28374 0.28003 0.0
H664 H 0.31479 0.26753 0.78271 0.0
H665 H 0.27969 0.35717 0.77395 0.0
H666 H 0.23504 0.33487 0.7608 0.0
H667 H 0.29214 0.23728 0.74487 0.0
H668 H 0.28391 0.20033 0.75257 0.0
H669 H 0.31209 0.22353 0.76185 0.0
H670 H 0.28357 0.21811 0.7882 0.0
H671 H 0.25487 0.19553 0.77889 0.0
H672 H 0.24446 0.22919 0.7894 0.0
H673 H 0.19366 0.30315 0.74982 0.0
H674 H 0.16329 0.26512 0.7359 0.0
H675 H 0.2267 0.19546 0.74953 0.0
C676 C 0.29775 0.28238 0.77787 0.0
C677 C 0.30047 0.31406 0.77932 0.0
C678 C 0.27802 0.3329 0.77282 0.0
C679 C 0.25248 0.3204 0.76553 0.0
C680 C 0.25007 0.28905 0.76463 0.0
C681 C 0.27251 0.27028 0.77018 0.0
C682 C 0.26546 0.23746 0.76654 0.0
C683 C 0.28984 0.22385 0.75581 0.0
C684 C 0.26188 0.21899 0.78166 0.0
C685 C 0.23547 0.24068 0.75806 0.0
C686 C 0.22678 0.27065 0.75749 0.0
C687 C 0.20026 0.27968 0.75015 0.0
C688 C 0.18301 0.25785 0.74242 0.0
C689 C 0.19242 0.22734 0.74185 0.0
C690 C 0.21854 0.21844 0.75017 0.0
H691 H 0.23282 0.68228 0.26281 0.0
H692 H 0.16025 0.74676 0.26849 0.0
H693 H 0.18961 0.7848 0.25389 0.0
H694 H 0.2919 0.73084 0.26834 0.0
H695 H 0.3169 0.71601 0.25356 0.0
H696 H 0.28894 0.69194 0.26241 0.0
H697 H 0.26659 0.67903 0.23519 0.0
H698 H 0.29515 0.70225 0.22618 0.0
H699 H 0.25578 0.70911 0.22214 0.0
H700 H 0.23023 0.81838 0.24321 0.0
H701 H 0.27527 0.84227 0.23117 0.0
H702 H 0.32028 0.75558 0.23019 0.0
C703 C 0.22256 0.70385 0.26019 0.0
C704 C 0.19396 0.71142 0.26638 0.0
C705 C 0.18176 0.74036 0.26342 0.0
C706 C 0.19844 0.76222 0.25533 0.0
C707 C 0.22721 0.75468 0.25006 0.0
C708 C 0.23881 0.7259 0.25183 0.0
C709 C 0.27073 0.72416 0.24536 0.0
C710 C 0.29344 0.71521 0.25819 0.0
C711 C 0.27214 0.70235 0.23138 0.0
C712 C 0.27547 0.75657 0.24018 0.0
C713 C 0.25023 0.77389 0.24321 0.0
C714 C 0.24992 0.80493 0.24046 0.0
C715 C 0.27567 0.8184 0.23384 0.0
C716 C 0.3011 0.80076 0.22986 0.0
C717 C 0.30104 0.76952 0.23318 0.0
H718 H 0.27791 0.22245 0.28807 0.0
H719 H 0.34905 0.19785 0.25552 0.0
H720 H 0.32503 0.22957 0.23514 0.0
H721 H 0.21674 0.22262 0.25906 0.0
H722 H 0.19758 0.25384 0.26823 0.0
H723 H 0.21998 0.22845 0.2799 0.0
H724 H 0.25082 0.27389 0.29029 0.0
H725 H 0.229 0.29934 0.27836 0.0
H726 H 0.26957 0.29853 0.27658 0.0
H727 H 0.29589 0.26696 0.21927 0.0
H728 H 0.25862 0.30013 0.20679 0.0
H729 H 0.20426 0.29907 0.24915 0.0
C730 C 0.2882 0.22338 0.27657 0.0
C731 C 0.31542 0.2077 0.27335 0.0
C732 C 0.32811 0.20939 0.25818 0.0
C733 C 0.31479 0.22761 0.24661 0.0
C734 C 0.28859 0.24361 0.25037 0.0
C735 C 0.27498 0.24108 0.26485 0.0
C736 C 0.24645 0.26008 0.26574 0.0
C737 C 0.21853 0.24005 0.26838 0.0
C738 C 0.24914 0.2844 0.2785 0.0
C739 C 0.24626 0.27403 0.24951 0.0
C740 C 0.27105 0.26444 0.24097 0.0
C741 C 0.27622 0.27428 0.22577 0.0
C742 C 0.25488 0.29327 0.21881 0.0
C743 C 0.22828 0.30212 0.22692 0.0
C744 C 0.22439 0.29299 0.24268 0.0
H745 H 0.24596 0.79441 0.78635 0.0
H746 H 0.17033 0.81314 0.75552 0.0
H747 H 0.19301 0.77999 0.73534 0.0
H748 H 0.30359 0.79299 0.75541 0.0
H749 H 0.3249 0.76356 0.76489 0.0
H750 H 0.30296 0.7895 0.77646 0.0
H751 H 0.27517 0.74426 0.78916 0.0
H752 H 0.29641 0.71822 0.77729 0.0
H753 H 0.2557 0.71755 0.77684 0.0
H754 H 0.22179 0.742 0.71952 0.0
H755 H 0.25964 0.70996 0.70654 0.0
H756 H 0.31818 0.71703 0.74712 0.0
C757 C 0.23444 0.79197 0.77522 0.0
C758 C 0.20635 0.80639 0.77246 0.0
C759 C 0.19198 0.80265 0.75779 0.0
C760 C 0.20453 0.78354 0.74637 0.0
C761 C 0.23161 0.76872 0.74974 0.0
C762 C 0.24684 0.77336 0.76363 0.0
C763 C 0.27609 0.75542 0.76414 0.0
C764 C 0.3035 0.77663 0.76529 0.0
C765 C 0.2758 0.73251 0.77766 0.0
C766 C 0.27487 0.73967 0.74838 0.0
C767 C 0.24873 0.74739 0.74041 0.0
C768 C 0.24238 0.73601 0.72561 0.0
C769 C 0.26395 0.7176 0.71839 0.0
C770 C 0.29177 0.71081 0.72585 0.0
C771 C 0.29689 0.72125 0.74128 0.0
H772 H 0.56755 0.95699 0.51184 0.0
H773 H 0.50243 0.94181 0.54918 0.0
H774 H 0.46618 0.97454 0.53604 0.0
H775 H 0.54953 0.03497 0.50571 0.0
H776 H 0.5529 0.03387 0.48467 0.0
H777 H 0.57441 0.00806 0.49655 0.0
H778 H 0.5516 0.96292 0.48137 0.0
H779 H 0.53014 0.98862 0.4694 0.0
H780 H 0.51112 0.95908 0.48004 0.0
H781 H 0.4373 0.01084 0.52027 0.0
H782 H 0.41616 0.04686 0.5012 0.0
H783 H 0.49763 0.03882 0.47311 0.0
C784 C 0.54557 0.96034 0.51712 0.0
C785 C 0.53828 0.94692 0.53172 0.0
C786 C 0.50911 0.95204 0.53819 0.0
C787 C 0.48808 0.97061 0.53079 0.0
C788 C 0.49609 0.98402 0.51673 0.0
C789 C 0.52392 0.97904 0.50979 0.0
C790 C 0.52633 0.99686 0.49461 0.0
C791 C 0.55234 0.0198 0.49544 0.0
C792 C 0.53001 0.97559 0.48052 0.0
C793 C 0.49573 0.01258 0.49433 0.0
C794 C 0.47878 1.00483 0.50726 0.0
C795 C 0.4502 0.01697 0.50998 0.0
C796 C 0.4384 0.03753 0.49911 0.0
C797 C 0.45503 0.04565 0.48559 0.0
C798 C 0.48414 0.03289 0.48323 0.0
H799 H 0.05322 0.95002 1.00007 0.0
H800 H 0.03819 0.99115 0.95451 0.0
H801 H 1.00422 0.02814 0.96636 0.0
H802 H 0.97812 0.95871 0.01443 0.0
H803 H 0.98864 0.96854 0.03418 0.0
H804 H 0.01326 0.94527 0.02251 0.0
H805 H 0.05731 0.9828 0.02684 0.0
H806 H 0.03294 1.00594 0.03872 0.0
H807 H 0.05208 0.02204 0.02206 0.0
H808 H 0.96874 0.05848 0.98221 0.0
H809 H 0.93901 0.08526 1.00228 0.0
H810 H 0.9775 0.02742 0.03819 0.0
C811 C 0.04321 0.96715 0.99268 0.0
C812 C 0.04828 0.96724 0.97628 0.0
C813 C 0.0345 0.9901 0.96704 0.0
C814 C 0.01505 0.01136 0.97365 0.0
C815 C 0.0096 0.01002 0.98964 0.0
C816 C 0.02363 0.98899 0.99916 0.0
C817 C 0.0136 0.99309 0.01607 0.0
C818 C 0.99745 0.96471 0.02215 0.0
C819 C 0.04059 1.00147 0.02654 0.0
C820 C 0.99169 0.01937 0.01441 0.0
C821 C 0.98958 0.0285 0.99901 0.0
C822 C 0.97036 0.05177 0.99438 0.0
C823 C 0.95335 0.06672 0.00586 0.0
C824 C 0.95584 0.05863 0.02185 0.0
C825 C 0.97509 0.03432 0.02609 0.0
H826 H 0.57559 0.01923 0.98633 0.0
H827 H 0.51698 0.09729 0.98584 0.0
H828 H 0.47786 0.06853 1.00016 0.0
H829 H 0.52158 0.96463 0.98017 0.0
H830 H 0.53641 0.93682 0.9935 0.0
H831 H 0.56137 0.96404 0.9847 0.0
H832 H 0.57953 0.9819 0.01202 0.0
H833 H 0.55559 0.95384 0.0209 0.0
H834 H 0.55203 0.99285 0.02652 0.0
H835 H 0.44246 0.02886 0.01114 0.0
H836 H 0.41817 0.9852 0.02424 0.0
H837 H 0.50096 0.9341 0.01932 0.0
C838 C 0.55514 0.03062 0.98997 0.0
C839 C 0.54957 0.06072 0.98543 0.0
C840 C 0.522 0.07458 0.98973 0.0
C841 C 0.49947 0.05824 0.99761 0.0
C842 C 0.50504 0.02814 1.00129 0.0
C843 C 0.53264 0.01479 0.99817 0.0
C844 C 0.53287 0.98215 1.00348 0.0
C845 C 0.53839 0.96066 0.98963 0.0
C846 C 0.55639 0.97741 0.01651 0.0
C847 C 0.50091 0.97905 0.00969 0.0
C848 C 0.48502 1.00567 0.00808 0.0
C849 C 0.45479 0.008 0.01262 0.0
C850 C 0.44098 0.98297 0.01978 0.0
C851 C 0.45752 0.95622 0.02247 0.0
C852 C 0.48765 0.95413 0.01708 0.0
H853 H 0.05864 0.05727 0.51728 0.0
H854 H 0.0327 0.01866 0.56211 0.0
H855 H 0.99893 0.98317 0.54875 0.0
H856 H 0.98589 0.05268 0.49946 0.0
H857 H 0.99969 0.04225 0.48035 0.0
H858 H 0.02302 0.06439 0.49325 0.0
H859 H 0.06582 0.02476 0.49118 0.0
H860 H 0.04275 1.00271 0.4781 0.0
H861 H 0.05778 0.98585 0.49566 0.0
H862 H 0.9655 0.9531 0.53077 0.0
H863 H 0.93895 0.92758 0.50891 0.0
H864 H 0.98687 0.9846 0.47582 0.0
C865 C 0.04623 0.04107 0.52426 0.0
C866 C 0.04839 0.04109 0.5408 0.0
C867 C 0.03144 0.0195 0.54945 0.0
C868 C 0.01205 0.99912 0.54197 0.0
C869 C 0.00976 1.00024 0.52575 0.0
C870 C 0.02664 0.02034 0.51695 0.0
C871 C 0.0198 0.01664 0.49965 0.0
C872 C 1.0063 0.04572 0.49278 0.0
C873 C 0.04823 0.0069 0.49062 0.0
C874 C 0.99647 0.99151 0.5002 0.0
C875 C 0.99083 0.98248 0.51537 0.0
C876 C 0.96985 0.95985 0.51879 0.0
C877 C 0.95472 0.94558 0.50633 0.0
C878 C 0.96082 0.95387 0.49063 0.0
C879 C 0.98174 0.97747 0.48766 0.0
H880 H 0.97623 0.2 0.07523 0.0
H881 H 0.9669 0.18617 0.02517 0.0
H882 H 0.99895 0.23095 0.02023 0.0
H883 H 0.97047 0.28077 0.07342 0.0
H884 H 0.99687 0.28702 0.08917 0.0
H885 H 0.97485 0.2529 0.08863 0.0
H886 H 0.02402 0.22132 0.08988 0.0
H887 H 0.04622 0.25537 0.09028 0.0
H888 H 0.05311 0.22734 0.07543 0.0
H889 H 0.03369 0.27683 0.02089 0.0
H890 H 0.06178 0.32376 0.027 0.0
H891 H 0.04464 0.3098 0.07649 0.0
C892 C 0.98108 0.20634 0.06323 0.0
C893 C 0.96931 0.18946 0.05057 0.0
C894 C 0.97567 0.19879 0.03504 0.0
C895 C 0.99402 0.22408 0.03213 0.0
C896 C 1.00543 0.24016 0.04487 0.0
C897 C 0.99874 0.23194 0.06012 0.0
C898 C 0.0121 0.25414 0.07172 0.0
C899 C 0.98708 0.26963 0.08129 0.0
C900 C 0.03523 0.23861 0.08246 0.0
C901 C 0.02738 0.27611 0.06064 0.0
C902 C 0.0238 0.26738 0.04521 0.0
C903 C 0.03645 0.28394 0.03293 0.0
C904 C 0.05255 0.31046 0.0365 0.0
C905 C 0.05531 0.32047 0.05219 0.0
C906 C 0.04277 0.30278 0.06437 0.0
H907 H 0.06812 0.73055 0.32611 0.0
H908 H 0.07031 0.70429 0.27718 0.0
H909 H 0.02368 0.73362 0.27238 0.0
H910 H 0.98655 0.7249 0.33011 0.0
H911 H 0.9841 0.75638 0.3434 0.0
H912 H 0.01789 0.73382 0.34279 0.0
H913 H 0.04959 0.78186 0.33745 0.0
H914 H 0.01584 0.80452 0.33787 0.0
H915 H 0.04024 0.80552 0.32097 0.0
H916 H 0.97816 0.76868 0.27267 0.0
H917 H 0.93349 0.80019 0.27881 0.0
H918 H 0.95887 0.80013 0.32789 0.0
C919 C 0.0587 0.73089 0.3144 0.0
C920 C 0.07294 0.71522 0.302 0.0
C921 C 0.05972 0.71596 0.28688 0.0
C922 C 0.03335 0.73275 0.28401 0.0
C923 C 0.0201 0.74829 0.29645 0.0
C924 C 0.032 0.74697 0.31141 0.0
C925 C 0.01267 0.76458 0.32288 0.0
C926 C 0.99952 0.74367 0.33554 0.0
C927 C 0.03067 0.79067 0.33022 0.0
C928 C 0.98819 0.77623 0.31202 0.0
C929 C 0.99312 0.76701 0.29677 0.0
C930 C 0.97395 0.77578 0.2846 0.0
C931 C 0.94875 0.79386 0.28817 0.0
C932 C 0.94262 0.80251 0.30382 0.0
C933 C 0.96284 0.7937 0.31582 0.0
H934 H 0.45408 0.70293 0.57087 0.0
H935 H 0.48869 0.66072 0.52881 0.0
H936 H 0.52296 0.70431 0.52453 0.0
H937 H 0.45516 0.77976 0.55458 0.0
H938 H 0.46471 0.79663 0.57314 0.0
H939 H 0.44298 0.76229 0.57257 0.0
H940 H 0.48247 0.73638 0.59049 0.0
H941 H 0.50441 0.77055 0.59102 0.0
H942 H 0.52162 0.73584 0.58464 0.0
H943 H 0.55524 0.75224 0.52573 0.0
H944 H 0.58006 0.80116 0.53132 0.0
H945 H 0.52231 0.81233 0.57204 0.0
C946 C 0.46878 0.70308 0.56072 0.0
C947 C 0.46893 0.67864 0.55015 0.0
C948 C 0.48825 0.67946 0.53695 0.0
C949 C 0.5078 0.70403 0.53448 0.0
C950 C 0.50731 0.72784 0.54517 0.0
C951 C 0.48791 0.72773 0.55789 0.0
C952 C 0.49113 0.75635 0.56743 0.0
C953 C 0.46175 0.77485 0.56689 0.0
C954 C 0.50048 0.74934 0.5844 0.0
C955 C 0.51625 0.77202 0.55851 0.0
C956 C 0.5252 0.75542 0.54564 0.0
C957 C 0.54823 0.76549 0.53574 0.0
C958 C 0.56226 0.79331 0.53902 0.0
C959 C 0.55332 0.81077 0.55214 0.0
C960 C 0.52994 0.7997 0.56194 0.0
H961 H 0.55871 0.22191 0.82408 0.0
H962 H 0.57557 0.21192 0.7743 0.0
H963 H 0.53039 0.24315 0.7686 0.0
H964 H 0.47693 0.21775 0.82162 0.0
H965 H 0.47152 0.24476 0.83715 0.0
H966 H 0.5047 0.22128 0.83697 0.0
H967 H 0.53847 0.26897 0.83813 0.0
H968 H 0.50543 0.29261 0.83813 0.0
H969 H 0.53417 0.29781 0.82341 0.0
H970 H 0.48442 0.27898 0.76872 0.0
H971 H 0.43949 0.3105 0.77454 0.0
H972 H 0.4526 0.2944 0.82421 0.0
C973 C 0.55283 0.22606 0.81195 0.0
C974 C 0.57079 0.21451 0.79963 0.0
C975 C 0.5621 0.22035 0.78394 0.0
C976 C 0.53657 0.23824 0.7806 0.0
C977 C 0.51973 0.24979 0.79308 0.0
C978 C 0.52733 0.24345 0.80844 0.0
C979 C 0.50552 0.25803 0.8198 0.0
C980 C 0.48867 0.23402 0.82945 0.0
C981 C 0.52188 0.2807 0.83049 0.0
C982 C 0.48451 0.27388 0.8085 0.0
C983 C 0.49312 0.2692 0.79313 0.0
C984 C 0.47739 0.2825 0.78072 0.0
C985 C 0.452 0.30053 0.78414 0.0
C986 C 0.44235 0.3048 0.79982 0.0
C987 C 0.45913 0.29138 0.81208 0.0
H988 H 0.97656 0.81728 0.43172 0.0
H989 H 0.95052 0.81922 0.48069 0.0
H990 H 0.97607 0.77017 0.48481 0.0
H991 H 0.96529 0.73616 0.42659 0.0
H992 H 0.9967 0.73253 0.41328 0.0
H993 H 0.97604 0.76746 0.41431 0.0
H994 H 0.02588 0.79605 0.42004 0.0
H995 H 0.04664 0.7612 0.41919 0.0
H996 H 0.04898 0.78463 0.43639 0.0
H997 H 0.00865 0.72279 0.48391 0.0
H998 H 0.03919 0.67774 0.47738 0.0
H999 H 0.04028 0.70487 0.42856 0.0
C1000 C 0.976 0.80724 0.44329 0.0
C1001 C 0.96163 0.82214 0.45592 0.0
C1002 C 0.96121 0.80815 0.47084 0.0
C1003 C 0.97584 0.78038 0.4733 0.0
C1004 C 0.99029 0.76658 0.46065 0.0
C1005 C 0.98989 0.77926 0.44586 0.0
C1006 C 1.00646 0.75956 0.43415 0.0
C1007 C 0.98483 0.74825 0.42133 0.0
C1008 C 0.0336 0.77637 0.42703 0.0
C1009 C 0.01669 0.73401 0.44468 0.0
C1010 C 1.00749 0.73863 0.45997 0.0
C1011 C 0.01558 0.71876 0.47194 0.0
C1012 C 0.03309 0.69333 0.46813 0.0
C1013 C 0.0419 0.68764 0.45245 0.0
C1014 C 0.03355 0.70839 0.44062 0.0
H1015 H 0.57821 0.76511 0.69048 0.0
H1016 H 0.56255 0.83424 0.72557 0.0
H1017 H 0.512 0.81255 0.73079 0.0
H1018 H 0.50406 0.76412 0.6748 0.0
H1019 H 0.50366 0.72397 0.67153 0.0
H1020 H 0.5389 0.74422 0.67123 0.0
H1021 H 0.56008 0.70849 0.6926 0.0
H1022 H 0.52475 0.6883 0.69308 0.0
H1023 H 0.53995 0.70424 0.71083 0.0
H1024 H 0.46216 0.78353 0.73167 0.0
H1025 H 0.41666 0.75219 0.72672 0.0
H1026 H 0.4651 0.70293 0.69089 0.0
C1027 C 0.56431 0.77574 0.69933 0.0
C1028 C 0.57459 0.80146 0.70764 0.0
C1029 C 0.55535 0.81458 0.71902 0.0
C1030 C 0.5266 0.80231 0.72213 0.0
C1031 C 0.51735 0.77685 0.71378 0.0
C1032 C 0.53564 0.76386 0.70255 0.0
C1033 C 0.52012 0.73733 0.69474 0.0
C1034 C 0.51646 0.74275 0.67703 0.0
C1035 C 0.53725 0.70785 0.69801 0.0
C1036 C 0.48992 0.73773 0.70308 0.0
C1037 C 0.48887 0.7604 0.7142 0.0
C1038 C 0.46291 0.76557 0.7231 0.0
C1039 C 0.43727 0.74758 0.72031 0.0
C1040 C 0.43777 0.72483 0.70871 0.0
C1041 C 0.46449 0.71972 0.7001 0.0
H1042 H 0.56779 0.20976 0.94883 0.0
H1043 H 0.48917 0.15135 0.94869 0.0
H1044 H 0.45592 0.19569 0.95143 0.0
H1045 H 0.53947 0.2659 0.97622 0.0
H1046 H 0.55539 0.29736 0.9657 0.0
H1047 H 0.57334 0.26096 0.96478 0.0
H1048 H 0.57004 0.26196 0.93448 0.0
H1049 H 0.5522 0.29839 0.93531 0.0
H1050 H 0.53391 0.26772 0.9252 0.0
H1051 H 0.43103 0.24632 0.95474 0.0
H1052 H 0.416 0.30004 0.95522 0.0
H1053 H 0.51011 0.32619 0.95093 0.0
C1054 C 0.54359 0.20638 0.9495 0.0
C1055 C 0.53106 0.17708 0.94864 0.0
C1056 C 0.49926 0.17358 0.94928 0.0
C1057 C 0.48018 0.19862 0.95093 0.0
C1058 C 0.49314 0.2272 0.95169 0.0
C1059 C 0.52408 0.2313 0.95076 0.0
C1060 C 0.53196 0.26462 0.95083 0.0
C1061 C 0.55118 0.27268 0.96524 0.0
C1062 C 0.54797 0.2737 0.93555 0.0
C1063 C 0.50066 0.27852 0.9519 0.0
C1064 C 0.47864 0.25651 0.95268 0.0
C1065 C 0.44807 0.26377 0.95405 0.0
C1066 C 0.43974 0.29433 0.95439 0.0
C1067 C 0.46181 0.3173 0.95303 0.0
C1068 C 0.49268 0.30914 0.95186 0.0
H1069 H 0.05531 0.31518 0.20515 0.0
H1070 H 0.1157 0.23885 0.20933 0.0
H1071 H 0.0718 0.20478 0.21271 0.0
H1072 H 0.99569 0.2886 0.23218 0.0
H1073 H 0.96562 0.30247 0.2199 0.0
H1074 H 1.00175 0.32124 0.21998 0.0
H1075 H 1.00545 0.31472 0.18987 0.0
H1076 H 0.96941 0.29593 0.18971 0.0
H1077 H 1.00209 0.27757 0.18149 0.0
H1078 H 0.0209 0.17871 0.21463 0.0
H1079 H 0.96759 0.16227 0.21236 0.0
H1080 H 0.94047 0.25508 0.20473 0.0
C1081 C 0.05917 0.29139 0.20718 0.0
C1082 C 0.0888 0.2796 0.20735 0.0
C1083 C 0.09312 0.24825 0.20941 0.0
C1084 C 0.06834 0.22879 0.21137 0.0
C1085 C 0.0393 0.24097 0.21095 0.0
C1086 C 0.0346 0.27153 0.20876 0.0
C1087 C 1.00117 0.27844 0.20719 0.0
C1088 C 0.99043 0.2989 0.22061 0.0
C1089 C 0.99413 0.29248 0.19111 0.0
C1090 C 0.98786 0.24702 0.20863 0.0
C1091 C 0.01015 0.22578 0.21112 0.0
C1092 C 1.00327 0.19519 0.21271 0.0
C1093 C 0.97291 0.18604 0.21146 0.0
C1094 C 0.94983 0.20731 0.20832 0.0
C1095 C 0.95757 0.23822 0.20707 0.0
H1096 H 0.98136 0.69552 0.93441 0.0
H1097 H 0.95265 0.69002 0.9829 0.0
H1098 H 0.9802 0.73743 0.98866 0.0
H1099 H 0.05503 0.72474 0.94089 0.0
H1100 H 0.05438 0.74976 0.92426 0.0
H1101 H 0.03236 0.71562 0.92399 0.0
H1102 H 0.98382 0.7464 0.91836 0.0
H1103 H 1.00577 0.7806 0.91839 0.0
H1104 H 0.97363 0.77698 0.93122 0.0
H1105 H 0.01454 0.78419 0.9893 0.0
H1106 H 0.04565 0.8296 0.98393 0.0
H1107 H 0.04839 0.80579 0.93469 0.0
C1108 C 0.98067 0.70441 0.94623 0.0
C1109 C 0.96492 0.689 0.95823 0.0
C1110 C 0.96438 0.70152 0.9735 0.0
C1111 C 0.98017 0.72832 0.9769 0.0
C1112 C 0.99598 0.74264 0.96484 0.0
C1113 C 0.99574 0.73139 0.94973 0.0
C1114 C 0.01355 0.75147 0.93872 0.0
C1115 C 0.04042 0.73437 0.93155 0.0
C1116 C 0.99296 0.76465 0.92592 0.0
C1117 C 0.02416 0.77566 0.94999 0.0
C1118 C 0.01422 0.77003 0.96506 0.0
C1119 C 0.02214 0.78892 0.9775 0.0
C1120 C 0.04001 0.81454 0.97438 0.0
C1121 C 0.04933 0.82131 0.9589 0.0
C1122 C 0.04142 0.80135 0.94663 0.0
H1123 H 0.95182 0.29904 0.68463 0.0
H1124 H 0.93241 0.30581 0.73428 0.0
H1125 H 0.9773 0.27418 0.74009 0.0
H1126 H 0.97782 0.22343 0.68401 0.0
H1127 H 1.00759 0.23025 0.67004 0.0
H1128 H 0.97417 0.25339 0.66986 0.0
H1129 H 1.00695 0.30148 0.67281 0.0
H1130 H 0.04049 0.27852 0.67272 0.0
H1131 H 0.03357 0.30408 0.68874 0.0
H1132 H 0.02284 0.23833 0.74004 0.0
H1133 H 0.06928 0.20894 0.73462 0.0
H1134 H 0.06039 0.22911 0.68512 0.0
C1135 C 0.95717 0.29407 0.69674 0.0
C1136 C 0.93859 0.30476 0.70903 0.0
C1137 C 0.94646 0.29801 0.72472 0.0
C1138 C 0.97175 0.27985 0.72809 0.0
C1139 C 0.98924 0.2691 0.71566 0.0
C1140 C 0.98261 0.27659 0.70032 0.0
C1141 C 1.00552 0.26328 0.68908 0.0
C1142 C 0.99036 0.24128 0.67757 0.0
C1143 C 0.02265 0.28833 0.68033 0.0
C1144 C 0.02597 0.24678 0.70043 0.0
C1145 C 0.016 0.24997 0.7157 0.0
C1146 C 0.03093 0.23597 0.72814 0.0
C1147 C 0.05714 0.21907 0.72494 0.0
C1148 C 0.06847 0.21671 0.70946 0.0
C1149 C 0.05235 0.23054 0.69708 0.0
H1150 H 0.52937 0.31002 0.43335 0.0
H1151 H 0.55271 0.32012 0.48243 0.0
H1152 H 0.52551 0.27281 0.48851 0.0
H1153 H 0.45527 0.27823 0.43862 0.0
H1154 H 0.45876 0.25203 0.42258 0.0
H1155 H 0.47917 0.28717 0.42215 0.0
H1156 H 0.52947 0.25822 0.4184 0.0
H1157 H 0.5092 0.22301 0.41873 0.0
H1158 H 0.53986 0.22932 0.43224 0.0
H1159 H 0.49335 0.22544 0.48938 0.0
H1160 H 0.46439 0.17855 0.48449 0.0
H1161 H 0.46589 0.19707 0.4346 0.0
C1162 C 0.52868 0.3023 0.44538 0.0
C1163 C 0.54297 0.3189 0.45744 0.0
C1164 C 0.54197 0.30778 0.473 0.0
C1165 C 0.52644 0.281 0.47658 0.0
C1166 C 0.51243 0.26527 0.46443 0.0
C1167 C 0.51385 0.27525 0.4491 0.0
C1168 C 0.49811 0.25342 0.43812 0.0
C1169 C 0.47123 0.26863 0.42988 0.0
C1170 C 0.5205 0.24021 0.42617 0.0
C1171 C 0.48751 0.22965 0.44966 0.0
C1172 C 0.49554 0.23716 0.46481 0.0
C1173 C 0.48722 0.21921 0.47754 0.0
C1174 C 0.47066 0.19271 0.47467 0.0
C1175 C 0.46313 0.18408 0.45918 0.0
C1176 C 0.47166 0.20293 0.44656 0.0
H1177 H 0.46782 0.80973 0.18902 0.0
H1178 H 0.42719 0.77879 0.23228 0.0
H1179 H 0.47167 0.74597 0.23716 0.0
H1180 H 0.50042 0.74226 0.17678 0.0
H1181 H 0.53496 0.75869 0.16954 0.0
H1182 H 0.50085 0.78073 0.16996 0.0
H1183 H 0.52757 0.82169 0.1866 0.0
H1184 H 0.56195 0.79999 0.18602 0.0
H1185 H 0.54609 0.81111 0.20459 0.0
H1186 H 0.51914 0.71284 0.23573 0.0
H1187 H 0.56782 0.68757 0.23003 0.0
H1188 H 0.57807 0.74297 0.18844 0.0
C1189 C 0.46865 0.79647 0.19967 0.0
C1190 C 0.44432 0.79682 0.21035 0.0
C1191 C 0.44591 0.77909 0.2241 0.0
C1192 C 0.47096 0.76025 0.22689 0.0
C1193 C 0.49443 0.75994 0.21594 0.0
C1194 C 0.49376 0.7782 0.2028 0.0
C1195 C 0.52193 0.77415 0.19295 0.0
C1196 C 0.51405 0.7633 0.17633 0.0
C1197 C 0.54049 0.80347 0.19252 0.0
C1198 C 0.53806 0.74989 0.20223 0.0
C1199 C 0.52192 0.74191 0.21545 0.0
C1200 C 0.53211 0.71924 0.22551 0.0
C1201 C 0.55972 0.70485 0.22212 0.0
C1202 C 0.57699 0.71327 0.20883 0.0
C1203 C 0.56568 0.73603 0.19877 0.0
H1204 H 0.98336 0.31531 0.57955 0.0
H1205 H 0.96069 0.31755 0.5301 0.0
H1206 H 0.98597 0.26845 0.52638 0.0
H1207 H 0.05618 0.28012 0.57602 0.0
H1208 H 0.05176 0.25679 0.59317 0.0
H1209 H 0.03249 0.29247 0.59196 0.0
H1210 H 0.98131 0.26576 0.59686 0.0
H1211 H 1.00043 0.23 0.59812 0.0
H1212 H 0.97002 0.23506 0.58432 0.0
H1213 H 0.01602 0.22045 0.5277 0.0
H1214 H 0.04421 0.17419 0.53447 0.0
H1215 H 0.04399 0.20055 0.58342 0.0
C1216 C 0.9838 0.30545 0.56794 0.0
C1217 C 0.97022 0.32037 0.55508 0.0
C1218 C 0.97087 0.30653 0.54012 0.0
C1219 C 0.98529 0.2787 0.53788 0.0
C1220 C 0.99853 0.26463 0.55076 0.0
C1221 C 0.99753 0.27727 0.56555 0.0
C1222 C 0.01256 0.25681 0.57751 0.0
C1223 C 0.03987 0.27249 0.58511 0.0
C1224 C 0.98971 0.24628 0.58994 0.0
C1225 C 0.02243 0.23088 0.56709 0.0
C1226 C 0.01441 0.23606 0.55167 0.0
C1227 C 0.02212 0.21599 0.53976 0.0
C1228 C 0.03825 0.18983 0.54371 0.0
C1229 C 0.04608 0.18362 0.55947 0.0
C1230 C 0.03795 0.20448 0.5713 0.0
H1231 H 0.45628 0.22332 0.32861 0.0
H1232 H 0.44656 0.20094 0.27942 0.0
H1233 H 0.4934 0.22934 0.27349 0.0
H1234 H 0.48492 0.29744 0.32413 0.0
H1235 H 0.51169 0.29481 0.33998 0.0
H1236 H 0.47766 0.27255 0.3404 0.0
H1237 H 0.50928 0.22376 0.34341 0.0
H1238 H 0.54339 0.24591 0.34323 0.0
H1239 H 0.53861 0.2156 0.32938 0.0
H1240 H 0.53919 0.26429 0.27278 0.0
H1241 H 0.58465 0.29546 0.27785 0.0
H1242 H 0.56683 0.29102 0.32774 0.0
C1243 C 0.46421 0.22414 0.31661 0.0
C1244 C 0.44776 0.20998 0.30446 0.0
C1245 C 0.45893 0.21141 0.28892 0.0
C1246 C 0.48538 0.2277 0.28543 0.0
C1247 C 0.50075 0.24193 0.29766 0.0
C1248 C 0.49095 0.23965 0.31299 0.0
C1249 C 0.51211 0.25611 0.32406 0.0
C1250 C 0.4956 0.28174 0.33264 0.0
C1251 C 0.52672 0.23403 0.3357 0.0
C1252 C 0.53513 0.26839 0.31255 0.0
C1253 C 0.52794 0.2604 0.29734 0.0
C1254 C 0.54522 0.27031 0.28466 0.0
C1255 C 0.57085 0.28821 0.28763 0.0
C1256 C 0.57932 0.29553 0.30317 0.0
C1257 C 0.56103 0.28557 0.31574 0.0
H1258 H 0.47552 0.80989 0.07593 0.0
H1259 H 0.45491 0.8185 0.02648 0.0
H1260 H 0.4833 0.7713 0.02119 0.0
H1261 H 0.54978 0.78231 0.07223 0.0
H1262 H 0.54702 0.75631 0.0884 0.0
H1263 H 0.52432 0.78996 0.08823 0.0
H1264 H 0.47567 0.75796 0.09125 0.0
H1265 H 0.49826 0.72421 0.09168 0.0
H1266 H 0.46823 0.72793 0.07755 0.0
H1267 H 0.51838 0.72466 0.0214 0.0
H1268 H 0.54992 0.67989 0.0275 0.0
H1269 H 0.54433 0.70133 0.07697 0.0
C1270 C 0.47665 0.80167 0.06399 0.0
C1271 C 0.46304 0.81791 0.0516 0.0
C1272 C 0.46493 0.80631 0.03617 0.0
C1273 C 0.48123 0.77965 0.03305 0.0
C1274 C 0.49505 0.7646 0.04554 0.0
C1275 C 0.49229 0.77496 0.06074 0.0
C1276 C 0.50867 0.75464 0.07219 0.0
C1277 C 0.53394 0.77184 0.08076 0.0
C1278 C 0.48637 0.74033 0.08385 0.0
C1279 C 0.52153 0.73134 0.06109 0.0
C1280 C 0.51381 0.73753 0.04572 0.0
C1281 C 0.5242 0.7195 0.03342 0.0
C1282 C 0.54231 0.69424 0.03697 0.0
C1283 C 0.54946 0.68698 0.05271 0.0
C1284 C 0.53904 0.70606 0.06483 0.0
H1285 H 0.96467 0.7077 0.82571 0.0
H1286 H 0.92458 0.73667 0.78193 0.0
H1287 H 0.96899 0.76949 0.77688 0.0
H1288 H 0.99803 0.77607 0.83723 0.0
H1289 H 0.03234 0.75948 0.84465 0.0
H1290 H 0.99787 0.73794 0.84456 0.0
H1291 H 0.02393 0.69581 0.82846 0.0
H1292 H 0.05863 0.71706 0.82867 0.0
H1293 H 0.04245 0.70522 0.81029 0.0
H1294 H 0.0166 0.80232 0.77791 0.0
H1295 H 0.06576 0.82706 0.78308 0.0
H1296 H 0.0758 0.77356 0.82535 0.0
C1297 C 0.96547 0.72073 0.81498 0.0
C1298 C 0.94128 0.71979 0.80419 0.0
C1299 C 0.94306 0.73696 0.79025 0.0
C1300 C 0.96808 0.75577 0.78736 0.0
C1301 C 0.99142 0.75658 0.79837 0.0
C1302 C 0.9906 0.73893 0.81172 0.0
C1303 C 0.01893 0.74308 0.82146 0.0
C1304 C 0.01132 0.75485 0.83795 0.0
C1305 C 0.03706 0.71354 0.82226 0.0
C1306 C 0.03536 0.76666 0.81184 0.0
C1307 C 0.01917 0.77427 0.79858 0.0
C1308 C 0.02959 0.79623 0.78817 0.0
C1309 C 0.05749 0.81032 0.79126 0.0
C1310 C 0.07485 0.80226 0.80458 0.0
C1311 C 0.06332 0.78019 0.81499 0.0
H1312 H 0.31716 0.36404 0.98722 0.0
H1313 H 0.33562 0.4599 0.98458 0.0
H1314 H 0.28856 0.47034 0.99926 0.0
H1315 H 0.23657 0.37104 0.981 0.0
H1316 H 0.22687 0.34052 0.99401 0.0
H1317 H 0.26271 0.34042 0.984 0.0
H1318 H 0.29047 0.33561 0.01059 0.0
H1319 H 0.25471 0.33564 0.02067 0.0
H1320 H 0.28328 0.36289 0.02579 0.0
H1321 H 0.24015 0.47021 0.0153 0.0
H1322 H 0.19224 0.4599 0.02926 0.0
H1323 H 0.20225 0.36453 0.01947 0.0
C1324 C 0.31139 0.38721 0.98984 0.0
C1325 C 0.33034 0.41118 0.98488 0.0
C1326 C 0.3216 0.44119 0.98828 0.0
C1327 C 0.29489 0.44733 0.99665 0.0
C1328 C 0.27666 0.42325 1.00134 0.0
C1329 C 0.28433 0.39379 0.99787 0.0
C1330 C 0.26002 0.37217 1.00362 0.0
C1331 C 0.2457 0.35503 0.98983 0.0
C1332 C 0.2729 0.35028 0.0159 0.0
C1333 C 0.23764 0.394 0.01098 0.0
C1334 C 0.24789 0.42334 0.0097 0.0
C1335 C 0.2318 0.44735 0.01619 0.0
C1336 C 0.20459 0.44127 0.02414 0.0
C1337 C 0.19322 0.4115 0.02532 0.0
C1338 C 0.21004 0.38761 0.01855 0.0
H1339 H 0.90032 0.05802 0.23487 0.0
H1340 H 0.80465 0.07534 0.22887 0.0
H1341 H 0.79281 0.02709 0.24213 0.0
H1342 H 0.89525 0.97752 0.22691 0.0
H1343 H 0.92415 0.96758 0.24086 0.0
H1344 H 0.92509 1.00384 0.23135 0.0
H1345 H 0.92597 0.03029 0.25839 0.0
H1346 H 0.92514 0.99413 0.26798 0.0
H1347 H 0.89678 0.02195 0.27248 0.0
H1348 H 0.79151 0.97823 0.25783 0.0
H1349 H 0.80087 0.93087 0.27246 0.0
H1350 H 0.89722 0.94223 0.26573 0.0
C1351 C 0.87688 0.05168 0.2364 0.0
C1352 C 0.85336 0.07067 0.23097 0.0
C1353 C 0.82301 0.06126 0.23295 0.0
C1354 C 0.81609 0.03387 0.2405 0.0
C1355 C 0.83976 0.01565 0.24571 0.0
C1356 C 0.86958 0.02396 0.24354 0.0
C1357 C 0.89079 0.99975 0.24973 0.0
C1358 C 0.90995 0.98638 0.23642 0.0
C1359 C 0.91085 0.01229 0.26293 0.0
C1360 C 0.8683 0.97677 0.25597 0.0
C1361 C 0.83897 0.98654 0.25369 0.0
C1362 C 0.81437 0.97015 0.2594 0.0
C1363 C 0.81987 0.94325 0.26769 0.0
C1364 C 0.84967 0.93247 0.26991 0.0
C1365 C 0.87414 0.94942 0.26381 0.0
H1366 H 0.19078 0.5664 0.48793 0.0
H1367 H 0.17415 0.66264 0.48517 0.0
H1368 H 0.22463 0.67269 0.49603 0.0
H1369 H 0.23076 0.57136 0.52596 0.0
H1370 H 0.25702 0.54161 0.52135 0.0
H1371 H 0.21974 0.54144 0.51285 0.0
H1372 H 0.24337 0.53877 0.48516 0.0
H1373 H 0.28071 0.53927 0.49356 0.0
H1374 H 0.27019 0.56715 0.4792 0.0
H1375 H 0.27811 0.67306 0.5047 0.0
H1376 H 0.32852 0.66406 0.51595 0.0
H1377 H 0.3104 0.56794 0.51721 0.0
C1378 C 0.19777 0.58951 0.48978 0.0
C1379 C 0.1784 0.61378 0.48566 0.0
C1380 C 0.18834 0.6437 0.48834 0.0
C1381 C 0.21715 0.64968 0.49439 0.0
C1382 C 0.23581 0.6255 0.49818 0.0
C1383 C 0.22635 0.59598 0.49645 0.0
C1384 C 0.25064 0.57446 0.50249 0.0
C1385 C 0.23883 0.55613 0.5165 0.0
C1386 C 0.26189 0.55368 0.48931 0.0
C1387 C 0.27524 0.59657 0.50755 0.0
C1388 C 0.26622 0.62582 0.50458 0.0
C1389 C 0.28526 0.65028 0.50732 0.0
C1390 C 0.31401 0.6449 0.51361 0.0
C1391 C 0.3235 0.61537 0.51753 0.0
C1392 C 0.30375 0.5908 0.51443 0.0
H1393 H 0.6197 0.06558 0.77001 0.0
H1394 H 0.71066 0.09599 0.76002 0.0
H1395 H 0.72077 0.04832 0.74573 0.0
H1396 H 0.64148 0.98852 0.77771 0.0
H1397 H 0.60749 0.97241 0.76962 0.0
H1398 H 0.6067 0.00964 0.77805 0.0
H1399 H 0.58523 0.0312 0.75215 0.0
H1400 H 0.58577 0.99402 0.74368 0.0
H1401 H 0.60518 0.02459 0.73405 0.0
H1402 H 0.72073 0.99711 0.73244 0.0
H1403 H 0.71155 0.94602 0.72201 0.0
H1404 H 0.62156 0.94683 0.74217 0.0
C1405 C 0.64153 0.06234 0.76453 0.0
C1406 C 0.66424 0.08473 0.76574 0.0
C1407 C 0.69288 0.07931 0.75897 0.0
C1408 C 0.69879 0.05228 0.75089 0.0
C1409 C 0.67604 0.03048 0.75 0.0
C1410 C 0.64805 0.03508 0.75677 0.0
C1411 C 0.62819 0.00729 0.75495 0.0
C1412 C 0.62051 0.99366 0.77104 0.0
C1413 C 0.59939 0.01473 0.74565 0.0
C1414 C 0.64902 0.98661 0.74573 0.0
C1415 C 0.67653 1.00046 0.74301 0.0
C1416 C 0.69932 0.98606 0.73458 0.0
C1417 C 0.69388 0.95693 0.7287 0.0
C1418 C 0.6659 0.94214 0.73131 0.0
C1419 C 0.64329 0.95729 0.74006 0.0
H1420 H 0.6946 0.6434 0.0173 0.0
H1421 H 0.68286 0.54744 0.02456 0.0
H1422 H 0.73161 0.53779 0.01125 0.0
H1423 H 0.73315 0.64007 0.97938 0.0
H1424 H 0.759 0.67016 0.98406 0.0
H1425 H 0.72198 0.66932 0.99284 0.0
H1426 H 0.74631 0.67147 0.0204 0.0
H1427 H 0.78339 0.67208 0.01172 0.0
H1428 H 0.77386 0.64346 0.02588 0.0
H1429 H 0.78164 0.53853 0.99684 0.0
H1430 H 0.83061 0.54963 0.98413 0.0
H1431 H 0.81313 0.64541 0.98852 0.0
C1432 C 0.70205 0.62034 0.01576 0.0
C1433 C 0.68456 0.59605 0.02164 0.0
C1434 C 0.69563 0.5663 0.01995 0.0
C1435 C 0.72334 0.56063 0.01242 0.0
C1436 C 0.74025 0.58503 0.00693 0.0
C1437 C 0.73019 0.61434 0.00865 0.0
C1438 C 0.75378 0.63655 1.00266 0.0
C1439 C 0.74123 0.65512 0.98892 0.0
C1440 C 0.76499 0.6571 0.01596 0.0
C1441 C 0.77856 0.61518 0.99724 0.0
C1442 C 0.77005 0.58554 0.99962 0.0
C1443 C 0.78859 0.56167 0.99505 0.0
C1444 C 0.81642 0.56819 0.98784 0.0
C1445 C 0.82598 0.59834 0.9855 0.0
C1446 C 0.80674 0.62212 0.99039 0.0
H1447 H 0.1163 0.95065 0.77095 0.0
H1448 H 0.21172 0.94222 0.78165 0.0
H1449 H 0.2212 0.99192 0.76956 0.0
H1450 H 0.12478 0.98973 0.73361 0.0
H1451 H 0.09281 0.01413 0.73677 0.0
H1452 H 0.09362 0.97722 0.74557 0.0
H1453 H 0.08541 1.00117 0.7729 0.0
H1454 H 0.08474 0.03816 0.76419 0.0
H1455 H 0.1111 0.02989 0.7797 0.0
H1456 H 0.22076 0.04219 0.75562 0.0
H1457 H 0.20993 0.09044 0.74221 0.0
H1458 H 0.11434 0.06907 0.74228 0.0
C1459 C 0.13922 0.95915 0.77059 0.0
C1460 C 0.16334 0.94225 0.77715 0.0
C1461 C 0.19289 0.95454 0.77668 0.0
C1462 C 0.19852 0.98282 0.76982 0.0
C1463 C 0.17431 0.999 0.7636 0.0
C1464 C 0.14519 0.98774 0.76401 0.0
C1465 C 0.12312 0.01032 0.75696 0.0
C1466 C 0.10767 0.99706 0.74236 0.0
C1467 C 0.09971 0.02048 0.76917 0.0
C1468 C 0.14435 0.036 0.75257 0.0
C1469 C 0.17384 0.02876 0.75633 0.0
C1470 C 0.19771 0.04818 0.75278 0.0
C1471 C 0.19135 0.07558 0.74516 0.0
C1472 C 0.1613 0.08382 0.7414 0.0
C1473 C 0.13749 0.06373 0.7453 0.0
H1474 H 0.81675 0.43389 0.51989 0.0
H1475 H 0.83399 0.33753 0.5207 0.0
H1476 H 0.78488 0.32818 0.50829 0.0
H1477 H 0.73616 0.43053 0.52697 0.0
H1478 H 0.72644 0.46005 0.51336 0.0
H1479 H 0.76294 0.46006 0.52272 0.0
H1480 H 0.78905 0.46153 0.49561 0.0
H1481 H 0.75262 0.46164 0.48616 0.0
H1482 H 0.78001 0.43311 0.48125 0.0
H1483 H 0.73342 0.328 0.49758 0.0
H1484 H 0.68374 0.33723 0.48569 0.0
H1485 H 0.69892 0.43378 0.48852 0.0
C1486 C 0.81011 0.41089 0.51739 0.0
C1487 C 0.82937 0.38641 0.52136 0.0
C1488 C 0.81991 0.35668 0.51776 0.0
C1489 C 0.79189 0.35107 0.51075 0.0
C1490 C 0.77345 0.37543 0.50705 0.0
C1491 C 0.78219 0.40482 0.50993 0.0
C1492 C 0.75802 0.42662 0.50401 0.0
C1493 C 0.74513 0.44543 0.51757 0.0
C1494 C 0.77069 0.44693 0.49098 0.0
C1495 C 0.7344 0.40475 0.49759 0.0
C1496 C 0.74386 0.37537 0.49976 0.0
C1497 C 0.72588 0.3509 0.49563 0.0
C1498 C 0.69755 0.35641 0.48894 0.0
C1499 C 0.68737 0.38617 0.48608 0.0
C1500 C 0.70619 0.41077 0.49041 0.0
H1501 H 0.40373 0.05906 0.27384 0.0
H1502 H 0.30791 0.07843 0.27674 0.0
H1503 H 0.2966 0.03052 0.2631 0.0
H1504 H 0.40355 0.02203 0.236 0.0
H1505 H 0.4307 0.99374 0.2416 0.0
H1506 H 0.43134 0.03024 0.25085 0.0
H1507 H 0.42695 1.0048 0.27806 0.0
H1508 H 0.42615 0.96823 0.26889 0.0
H1509 H 0.39603 0.97935 0.28188 0.0
H1510 H 0.29582 0.98134 0.24798 0.0
H1511 H 0.30539 0.93275 0.23459 0.0
H1512 H 0.4012 0.94213 0.24388 0.0
C1513 C 0.3804 0.0533 0.27145 0.0
C1514 C 0.35667 0.07273 0.27617 0.0
C1515 C 0.32643 0.06404 0.27317 0.0
C1516 C 0.31979 0.03685 0.26541 0.0
C1517 C 0.34362 0.0181 0.26099 0.0
C1518 C 0.37332 0.02575 0.26407 0.0
C1519 C 0.39458 1.00083 0.25875 0.0
C1520 C 0.41632 0.01241 0.24605 0.0
C1521 C 0.41195 0.98752 0.27273 0.0
C1522 C 0.37225 0.97814 0.25206 0.0
C1523 C 0.34299 0.98876 0.25329 0.0
C1524 C 0.3186 0.97263 0.24717 0.0
C1525 C 0.32423 0.94504 0.23958 0.0
C1526 C 0.3539 0.93336 0.23845 0.0
C1527 C 0.37817 0.95012 0.24491 0.0
H1528 H 0.81307 0.86472 0.4878 0.0
H1529 H 0.82681 0.96105 0.4829 0.0
H1530 H 0.77651 0.97035 0.49454 0.0
H1531 H 0.73388 0.86594 0.47722 0.0
H1532 H 0.7232 0.83667 0.49078 0.0
H1533 H 0.76082 0.83738 0.48273 0.0
H1534 H 0.78343 0.83776 0.51071 0.0
H1535 H 0.74589 0.83678 0.51884 0.0
H1536 H 0.77167 0.86637 0.52441 0.0
H1537 H 0.72536 0.96932 0.50781 0.0
H1538 H 0.6764 0.95792 0.52052 0.0
H1539 H 0.69308 0.86232 0.51471 0.0
C1540 C 0.80558 0.88777 0.48934 0.0
C1541 C 0.82413 0.91222 0.4846 0.0
C1542 C 0.81317 0.94199 0.4865 0.0
C1543 C 0.78457 0.94749 0.49309 0.0
C1544 C 0.76673 0.92297 0.4975 0.0
C1545 C 0.77668 0.89366 0.49559 0.0
C1546 C 0.75255 0.87137 0.50085 0.0
C1547 C 0.74199 0.85168 0.48707 0.0
C1548 C 0.76408 0.85193 0.51451 0.0
C1549 C 0.72764 0.8927 0.50616 0.0
C1550 C 0.73645 0.92238 0.50424 0.0
C1551 C 0.71809 0.94616 0.50913 0.0
C1552 C 0.69025 0.9395 0.51631 0.0
C1553 C 0.68055 0.90932 0.51827 0.0
C1554 C 0.69945 0.88565 0.51294 0.0
H1555 H 0.37374 0.58888 0.75046 0.0
H1556 H 0.32915 0.56182 0.70743 0.0
H1557 H 0.3258 0.50958 0.71722 0.0
H1558 H 0.41723 0.52213 0.75633 0.0
H1559 H 0.4123 0.52103 0.77729 0.0
H1560 H 0.41099 0.55655 0.76709 0.0
H1561 H 0.35812 0.5673 0.77878 0.0
H1562 H 0.35934 0.53186 0.78909 0.0
H1563 H 0.32823 0.54013 0.77615 0.0
H1564 H 0.3312 0.45903 0.73071 0.0
H1565 H 0.33958 0.4153 0.7483 0.0
H1566 H 0.37621 0.475 0.78369 0.0
C1567 C 0.36303 0.572 0.74317 0.0
C1568 C 0.35174 0.5796 0.72812 0.0
C1569 C 0.33783 0.55676 0.719 0.0
C1570 C 0.33593 0.52689 0.72444 0.0
C1571 C 0.34755 0.52006 0.73921 0.0
C1572 C 0.36033 0.54205 0.74859 0.0
C1573 C 0.37049 0.52866 0.76415 0.0
C1574 C 0.40479 0.53231 0.76634 0.0
C1575 C 0.353 0.54283 0.77785 0.0
C1576 C 0.3619 0.49571 0.76193 0.0
C1577 C 0.349 0.4912 0.74737 0.0
C1578 C 0.3408 0.46242 0.74224 0.0
C1579 C 0.34569 0.43769 0.75227 0.0
C1580 C 0.35808 0.44186 0.76738 0.0
C1581 C 0.36618 0.47129 0.77227 0.0
H1582 H 0.8101 0.08034 0.01767 0.0
H1583 H 0.83177 0.17545 0.01365 0.0
H1584 H 0.78258 0.18475 1.0011 0.0
H1585 H 0.77263 0.07606 0.97919 0.0
H1586 H 0.74449 0.04938 0.9856 0.0
H1587 H 0.78121 0.04988 0.99472 0.0
H1588 H 0.75598 0.05669 0.02184 0.0
H1589 H 0.7192 0.05648 0.01278 0.0
H1590 H 0.73043 0.08777 0.02494 0.0
H1591 H 0.72978 0.18502 0.99104 0.0
H1592 H 0.67951 0.17511 0.97975 0.0
H1593 H 0.69242 0.07911 0.98681 0.0
C1594 C 0.80449 0.10304 0.01403 0.0
C1595 C 0.8249 0.12722 0.01672 0.0
C1596 C 0.81675 0.15654 0.01167 0.0
C1597 C 0.7887 0.16211 0.00461 0.0
C1598 C 0.76901 0.13803 1.00226 0.0
C1599 C 0.7767 0.10893 0.00644 0.0
C1600 C 0.75164 0.08709 1.00173 0.0
C1601 C 0.76319 0.06425 0.98959 0.0
C1602 C 0.73854 0.07106 0.01619 0.0
C1603 C 0.72863 0.10859 0.99452 0.0
C1604 C 0.73906 0.13792 0.99527 0.0
C1605 C 0.72155 0.16211 0.99017 0.0
C1606 C 0.69288 0.15625 0.98386 0.0
C1607 C 0.68198 0.12638 0.98231 0.0
C1608 C 0.7002 0.10218 0.98773 0.0
H1609 H 0.18851 0.56497 0.26487 0.0
H1610 H 0.09388 0.56802 0.27799 0.0
H1611 H 0.08736 0.51564 0.269 0.0
H1612 H 0.17513 0.52223 0.22885 0.0
H1613 H 0.20956 0.50072 0.23027 0.0
H1614 H 0.20767 0.53802 0.23857 0.0
H1615 H 0.2242 0.51664 0.26545 0.0
H1616 H 0.22588 0.47922 0.25726 0.0
H1617 H 0.20277 0.48648 0.27423 0.0
H1618 H 0.09122 0.46234 0.26025 0.0
H1619 H 0.1025 0.41372 0.2477 0.0
H1620 H 0.19298 0.44502 0.23669 0.0
C1621 C 0.16647 0.55451 0.2658 0.0
C1622 C 0.14168 0.5706 0.27224 0.0
C1623 C 0.11313 0.55627 0.27307 0.0
C1624 C 0.10924 0.5264 0.26809 0.0
C1625 C 0.13397 0.51107 0.26191 0.0
C1626 C 0.16188 0.52474 0.26033 0.0
C1627 C 0.18395 0.50346 0.25217 0.0
C1628 C 0.19471 0.51691 0.23654 0.0
C1629 C 0.21079 0.49602 0.26292 0.0
C1630 C 0.16406 0.4758 0.24955 0.0
C1631 C 0.13555 0.48065 0.25563 0.0
C1632 C 0.11336 0.45838 0.25528 0.0
C1633 C 0.1201 0.43067 0.2482 0.0
C1634 C 0.1486 0.42536 0.24116 0.0
C1635 C 0.17097 0.44833 0.24194 0.0
H1636 H 0.19972 0.06596 0.5298 0.0
H1637 H 0.16601 0.15284 0.51415 0.0
H1638 H 0.21339 0.16188 0.49999 0.0
H1639 H 0.27678 0.0867 0.53505 0.0
H1640 H 0.29274 0.05261 0.5271 0.0
H1641 H 0.25584 0.05187 0.53601 0.0
H1642 H 0.23305 0.02948 0.51063 0.0
H1643 H 0.26995 0.02985 0.50169 0.0
H1644 H 0.23881 0.0487 0.49225 0.0
H1645 H 0.26566 0.16468 0.4899 0.0
H1646 H 0.31775 0.15732 0.4804 0.0
H1647 H 0.318 0.06659 0.49931 0.0
C1648 C 0.2022 0.08665 0.52319 0.0
C1649 C 0.17892 0.1087 0.52316 0.0
C1650 C 0.18319 0.13547 0.51435 0.0
C1651 C 0.21021 0.14096 0.5063 0.0
C1652 C 0.23283 0.11922 0.50679 0.0
C1653 C 0.229 0.09222 0.51462 0.0
C1654 C 0.25701 0.07251 0.51269 0.0
C1655 C 0.27144 0.06552 0.52867 0.0
C1656 C 0.24924 0.04341 0.50378 0.0
C1657 C 0.27726 0.09302 0.5029 0.0
C1658 C 0.26278 0.12001 0.49989 0.0
C1659 C 0.27705 0.14346 0.49194 0.0
C1660 C 0.30672 0.13915 0.48668 0.0
C1661 C 0.32181 0.11144 0.48905 0.0
C1662 C 0.30685 0.08794 0.49724 0.0
H1663 H 0.62022 0.44254 0.26732 0.0
H1664 H 0.71656 0.42869 0.27279 0.0
H1665 H 0.72643 0.47736 0.25959 0.0
H1666 H 0.62214 0.48142 0.2295 0.0
H1667 H 0.59286 0.50779 0.23473 0.0
H1668 H 0.59339 0.47075 0.2434 0.0
H1669 H 0.59341 0.49475 0.27105 0.0
H1670 H 0.59312 0.53185 0.26246 0.0
H1671 H 0.6224 0.52159 0.27614 0.0
H1672 H 0.72597 0.52745 0.24553 0.0
H1673 H 0.71528 0.57668 0.23315 0.0
H1674 H 0.61917 0.56121 0.23888 0.0
C1675 C 0.64338 0.44954 0.26544 0.0
C1676 C 0.66771 0.43149 0.27081 0.0
C1677 C 0.69764 0.44193 0.26862 0.0
C1678 C 0.70345 0.46958 0.26114 0.0
C1679 C 0.67905 0.48705 0.25617 0.0
C1680 C 0.64957 0.47761 0.25834 0.0
C1681 C 0.6275 0.50167 0.25277 0.0
C1682 C 0.60781 0.48969 0.2393 0.0
C1683 C 0.60795 0.51314 0.26642 0.0
C1684 C 0.64915 0.526 0.24707 0.0
C1685 C 0.67878 0.51686 0.24897 0.0
C1686 C 0.70285 0.5349 0.24411 0.0
C1687 C 0.69656 0.56287 0.23708 0.0
C1688 C 0.66645 0.57305 0.2352 0.0
C1689 C 0.64245 0.55432 0.24039 0.0
H1690 H 0.19235 0.86627 0.99472 0.0
H1691 H 0.17889 0.96255 0.98988 0.0
H1692 H 0.2276 0.97186 1.00334 0.0
H1693 H 0.23132 0.86669 0.03258 0.0
H1694 H 0.2576 0.83757 0.02702 0.0
H1695 H 0.22044 0.83857 0.01841 0.0
H1696 H 0.24437 0.83952 0.99073 0.0
H1697 H 0.28159 0.83874 0.99926 0.0
H1698 H 0.27136 0.86851 0.9859 0.0
H1699 H 0.27788 0.97064 0.01763 0.0
H1700 H 0.32735 0.95918 0.02974 0.0
H1701 H 0.31131 0.86366 0.02288 0.0
C1702 C 0.19941 0.8893 0.99683 0.0
C1703 C 0.18145 0.91377 0.9916 0.0
C1704 C 0.19202 0.94353 0.99401 0.0
C1705 C 0.2197 0.949 1.00163 0.0
C1706 C 0.23707 0.92444 0.00647 0.0
C1707 C 0.2275 0.89514 1.00403 0.0
C1708 C 0.25154 0.87282 0.00934 0.0
C1709 C 0.2395 0.85272 0.02263 0.0
C1710 C 0.26288 0.85377 0.99548 0.0
C1711 C 0.27603 0.89409 0.01522 0.0
C1712 C 0.26699 0.92376 0.01366 0.0
C1713 C 0.28524 0.94748 0.01877 0.0
C1714 C 0.31334 0.94075 0.02565 0.0
C1715 C 0.32345 0.91059 0.0271 0.0
C1716 C 0.30447 0.88699 0.02171 0.0
H1717 H 0.86917 0.4395 0.75592 0.0
H1718 H 0.83328 0.46581 0.71062 0.0
H1719 H 0.82959 0.51842 0.71957 0.0
H1720 H 0.81989 0.49035 0.7785 0.0
H1721 H 0.84837 0.49872 0.79296 0.0
H1722 H 0.84854 0.46283 0.78307 0.0
H1723 H 0.90367 0.47217 0.77418 0.0
H1724 H 0.90363 0.50811 0.78399 0.0
H1725 H 0.91273 0.50599 0.76344 0.0
H1726 H 0.83394 0.56929 0.73247 0.0
H1727 H 0.83998 0.61377 0.74981 0.0
H1728 H 0.86746 0.5551 0.7878 0.0
C1729 C 0.86034 0.45633 0.74795 0.0
C1730 C 0.85156 0.44835 0.73251 0.0
C1731 C 0.83999 0.47113 0.72251 0.0
C1732 C 0.83792 0.50123 0.72746 0.0
C1733 C 0.84691 0.50845 0.74263 0.0
C1734 C 0.85732 0.48662 0.75288 0.0
C1735 C 0.86456 0.50057 0.76874 0.0
C1736 C 0.84412 0.48733 0.78158 0.0
C1737 C 0.89814 0.49646 0.77282 0.0
C1738 C 0.8571 0.53358 0.76568 0.0
C1739 C 0.84735 0.53764 0.75045 0.0
C1740 C 0.841 0.56631 0.74451 0.0
C1741 C 0.84452 0.59146 0.7544 0.0
C1742 C 0.85357 0.58779 0.77016 0.0
C1743 C 0.85982 0.55842 0.77586 0.0
H1744 H 0.16134 0.36084 0.09593 0.0
H1745 H 0.08149 0.41745 0.09257 0.0
H1746 H 0.07516 0.41548 0.12094 0.0
H1747 H 0.13472 0.31429 0.129 0.0
H1748 H 0.17121 0.31306 0.13835 0.0
H1749 H 0.16863 0.31643 0.11734 0.0
H1750 H 0.20142 0.36478 0.11832 0.0
H1751 H 0.20405 0.36158 0.13931 0.0
H1752 H 0.18985 0.39577 0.1306 0.0
H1753 H 0.07774 0.40999 0.14959 0.0
H1754 H 0.09047 0.40161 0.17741 0.0
H1755 H 0.1693 0.35002 0.16334 0.0
C1756 C 0.14233 0.3724 0.10118 0.0
C1757 C 0.12171 0.3889 0.09186 0.0
C1758 C 0.09745 0.40424 0.09926 0.0
C1759 C 0.09358 0.40336 0.11548 0.0
C1760 C 0.11426 0.38724 0.12434 0.0
C1761 C 0.13825 0.37207 0.11756 0.0
C1762 C 0.15798 0.3579 0.13012 0.0
C1763 C 0.15813 0.32337 0.12861 0.0
C1764 C 0.19023 0.37079 0.12955 0.0
C1765 C 0.14145 0.3679 0.14485 0.0
C1766 C 0.11614 0.38458 0.14117 0.0
C1767 C 0.09744 0.39683 0.15268 0.0
C1768 C 0.10485 0.39199 0.16844 0.0
C1769 C 0.1308 0.3752 0.17255 0.0
C1770 C 0.14923 0.36291 0.16056 0.0
H1771 H 0.86169 0.86782 0.41496 0.0
H1772 H 0.93486 0.93256 0.41915 0.0
H1773 H 0.93959 0.93439 0.39045 0.0
H1774 H 0.89253 0.82735 0.38143 0.0
H1775 H 0.85616 0.82175 0.37239 0.0
H1776 H 0.85907 0.82464 0.39339 0.0
H1777 H 0.82031 0.86841 0.39325 0.0
H1778 H 0.81731 0.86566 0.37226 0.0
H1779 H 0.82733 0.90108 0.38121 0.0
H1780 H 0.93572 0.93047 0.36115 0.0
H1781 H 0.92309 0.92066 0.33333 0.0
H1782 H 0.85256 0.85883 0.3481 0.0
C1783 C 0.87879 0.88222 0.40982 0.0
C1784 C 0.89793 0.89997 0.41934 0.0
C1785 C 0.91995 0.91866 0.41214 0.0
C1786 C 0.92286 0.91989 0.39582 0.0
C1787 C 0.90361 0.90229 0.38676 0.0
C1788 C 0.88202 0.88377 0.39347 0.0
C1789 C 0.86381 0.86763 0.38099 0.0
C1790 C 0.86816 0.83331 0.38212 0.0
C1791 C 0.8302 0.87622 0.38199 0.0
C1792 C 0.87836 0.88023 0.36628 0.0
C1793 C 0.90135 0.90009 0.36985 0.0
C1794 C 0.91781 0.91486 0.35819 0.0
C1795 C 0.91049 0.90919 0.34244 0.0
C1796 C 0.88692 0.88899 0.33854 0.0
C1797 C 0.87079 0.87434 0.35068 0.0
H1798 H 0.39667 0.60709 0.66172 0.0
H1799 H 0.36927 0.70089 0.66402 0.0
H1800 H 0.37135 0.70449 0.63543 0.0
H1801 H 0.44756 0.61588 0.6267 0.0
H1802 H 0.43646 0.58004 0.61857 0.0
H1803 H 0.4367 0.58543 0.63951 0.0
H1804 H 0.38065 0.56887 0.64075 0.0
H1805 H 0.38012 0.56377 0.61983 0.0
H1806 H 0.35303 0.58842 0.62901 0.0
H1807 H 0.37011 0.69723 0.6069 0.0
H1808 H 0.36933 0.68002 0.57947 0.0
H1809 H 0.39836 0.59103 0.59434 0.0
C1810 C 0.39205 0.62856 0.65617 0.0
C1811 C 0.38292 0.65376 0.66518 0.0
C1812 C 0.37625 0.68126 0.65748 0.0
C1813 C 0.37743 0.68359 0.64117 0.0
C1814 C 0.38537 0.65822 0.63258 0.0
C1815 C 0.39295 0.63127 0.63972 0.0
C1816 C 0.39883 0.60708 0.62745 0.0
C1817 C 0.43186 0.59648 0.6281 0.0
C1818 C 0.37684 0.58047 0.62938 0.0
C1819 C 0.39248 0.62455 0.61246 0.0
C1820 C 0.3849 0.65405 0.61578 0.0
C1821 C 0.37644 0.6743 0.6041 0.0
C1822 C 0.37587 0.66425 0.58855 0.0
C1823 C 0.38382 0.63424 0.58475 0.0
C1824 C 0.3924 0.61419 0.59689 0.0
H1825 H 0.65787 0.1616 0.8438 0.0
H1826 H 0.59652 0.09113 0.82851 0.0
H1827 H 0.58513 0.07905 0.85621 0.0
H1828 H 0.68811 0.12295 0.87689 0.0
H1829 H 0.69024 0.15605 0.88908 0.0
H1830 H 0.69306 0.15959 0.86811 0.0
H1831 H 0.64845 0.19737 0.86809 0.0
H1832 H 0.64555 0.19405 0.88907 0.0
H1833 H 0.61305 0.18665 0.87693 0.0
H1834 H 0.58198 0.07348 0.88544 0.0
H1835 H 0.58537 0.07581 0.91419 0.0
H1836 H 0.64789 0.15098 0.91069 0.0
C1837 C 0.64191 0.14371 0.84625 0.0
C1838 C 0.62806 0.12725 0.83398 0.0
C1839 C 0.60733 0.10404 0.83771 0.0
C1840 C 0.60077 0.09702 0.8534 0.0
C1841 C 0.61499 0.11355 0.8652 0.0
C1842 C 0.63497 0.13656 0.86182 0.0
C1843 C 0.64721 0.15085 0.87669 0.0
C1844 C 0.6817 0.14713 0.87775 0.0
C1845 C 0.63801 0.18421 0.87775 0.0
C1846 C 0.63121 0.13208 0.88901 0.0
C1847 C 0.61278 0.11068 0.88209 0.0
C1848 C 0.59616 0.09027 0.89097 0.0
C1849 C 0.59829 0.0918 0.90733 0.0
C1850 C 0.61677 0.1137 0.91475 0.0
C1851 C 0.63346 0.13409 0.9054 0.0
H1852 H 0.11192 0.6081 0.34173 0.0
H1853 H 0.18168 0.67651 0.33758 0.0
H1854 H 0.18313 0.68173 0.36624 0.0
H1855 H 0.0727 0.64169 0.37471 0.0
H1856 H 0.06473 0.6061 0.38402 0.0
H1857 H 0.06839 0.6081 0.36303 0.0
H1858 H 0.10998 0.56704 0.36384 0.0
H1859 H 0.10638 0.56487 0.38483 0.0
H1860 H 0.14268 0.57253 0.37612 0.0
H1861 H 0.17737 0.6798 0.39549 0.0
H1862 H 0.16578 0.669 0.42332 0.0
H1863 H 0.10091 0.60117 0.4087 0.0
C1864 C 0.12742 0.62421 0.34686 0.0
C1865 C 0.14654 0.642 0.33734 0.0
C1866 C 0.16665 0.66269 0.34456 0.0
C1867 C 0.16768 0.66588 0.36088 0.0
C1868 C 0.14856 0.64813 0.36993 0.0
C1869 C 0.12889 0.62758 0.36323 0.0
C1870 C 0.11132 0.61079 0.37574 0.0
C1871 C 0.07727 0.61706 0.37428 0.0
C1872 C 0.118 0.57679 0.37509 0.0
C1873 C 0.12432 0.62503 0.39044 0.0
C1874 C 0.14562 0.64666 0.38684 0.0
C1875 C 0.16072 0.66287 0.39847 0.0
C1876 C 0.15399 0.65664 0.41424 0.0
C1877 C 0.1325 0.63428 0.4182 0.0
C1878 C 0.11748 0.61842 0.40608 0.0
H1879 H 0.61662 0.90112 0.6629 0.0
H1880 H 0.68189 0.82853 0.66724 0.0
H1881 H 0.68317 0.82309 0.6386 0.0
H1882 H 0.57558 0.86902 0.62965 0.0
H1883 H 0.5696 0.90501 0.62035 0.0
H1884 H 0.57279 0.90272 0.64137 0.0
H1885 H 0.61637 0.94174 0.64076 0.0
H1886 H 0.61334 0.94409 0.61976 0.0
H1887 H 0.64901 0.93464 0.62868 0.0
H1888 H 0.67919 0.82634 0.60948 0.0
H1889 H 0.66911 0.83789 0.58162 0.0
H1890 H 0.60636 0.90797 0.59575 0.0
C1891 C 0.63098 0.88396 0.6578 0.0
C1892 C 0.6491 0.86524 0.66736 0.0
C1893 C 0.66772 0.84314 0.66022 0.0
C1894 C 0.66865 0.83983 0.64392 0.0
C1895 C 0.65079 0.85872 0.63482 0.0
C1896 C 0.6322 0.88029 0.64145 0.0
C1897 C 0.61574 0.89798 0.62885 0.0
C1898 C 0.58139 0.8934 0.63014 0.0
C1899 C 0.62413 0.9316 0.62956 0.0
C1900 C 0.62827 0.88315 0.6142 0.0
C1901 C 0.6484 0.86051 0.61792 0.0
C1902 C 0.66334 0.84393 0.6064 0.0
C1903 C 0.65753 0.85066 0.59061 0.0
C1904 C 0.63695 0.87375 0.58651 0.0
C1905 C 0.62214 0.89009 0.59851 0.0
H1906 H 0.35595 0.36225 0.84517 0.0
H1907 H 0.43081 0.42 0.83176 0.0
H1908 H 0.44294 0.42808 0.85973 0.0
H1909 H 0.33211 0.40502 0.87821 0.0
H1910 H 0.32251 0.3727 0.89002 0.0
H1911 H 0.32045 0.37036 0.86898 0.0
H1912 H 0.35646 0.32436 0.8693 0.0
H1913 H 0.35857 0.32648 0.89035 0.0
H1914 H 0.39268 0.32748 0.87882 0.0
H1915 H 0.44572 0.4314 0.88895 0.0
H1916 H 0.43985 0.42951 0.91756 0.0
H1917 H 0.36317 0.36918 0.91242 0.0
C1918 C 0.37504 0.37644 0.84811 0.0
C1919 C 0.39249 0.39052 0.83626 0.0
C1920 C 0.41718 0.40898 0.84061 0.0
C1921 C 0.42423 0.41368 0.85647 0.0
C1922 C 0.40641 0.39968 0.86783 0.0
C1923 C 0.38239 0.38134 0.86387 0.0
C1924 C 0.36651 0.36944 0.8784 0.0
C1925 C 0.33344 0.38002 0.87893 0.0
C1926 C 0.3687 0.33489 0.87926 0.0
C1927 C 0.38514 0.38425 0.89117 0.0
C1928 C 0.40808 0.4015 0.88476 0.0
C1929 C 0.42797 0.41784 0.89409 0.0
C1930 C 0.42438 0.41659 0.91037 0.0
C1931 C 0.40108 0.3991 0.9173 0.0
C1932 C 0.38125 0.38264 0.90751 0.0
H1933 H 0.90049 0.10617 0.16122 0.0
H1934 H 0.8507 0.18988 0.16669 0.0
H1935 H 0.8499 0.19658 0.1382 0.0
H1936 H 0.94577 0.13056 0.12718 0.0
H1937 H 0.94378 0.09439 0.11761 0.0
H1938 H 0.94245 0.09664 0.13869 0.0
H1939 H 0.89196 0.06713 0.1387 0.0
H1940 H 0.89307 0.0649 0.11763 0.0
H1941 H 0.86064 0.081 0.12728 0.0
H1942 H 0.85175 0.19382 0.10937 0.0
H1943 H 0.85689 0.18168 0.08136 0.0
H1944 H 0.90518 0.09967 0.09337 0.0
C1945 C 0.88983 0.12608 0.15639 0.0
C1946 C 0.87581 0.14757 0.16629 0.0
C1947 C 0.86171 0.1731 0.15947 0.0
C1948 C 0.8611 0.17719 0.14324 0.0
C1949 C 0.87465 0.15554 0.1338 0.0
C1950 C 0.88884 0.1305 0.14003 0.0
C1951 C 0.90059 0.11026 0.12699 0.0
C1952 C 0.93521 0.10783 0.12766 0.0
C1953 C 0.88566 0.07897 0.1277 0.0
C1954 C 0.89038 0.12773 0.11258 0.0
C1955 C 0.87559 0.15385 0.11688 0.0
C1956 C 0.86344 0.17352 0.10583 0.0
C1957 C 0.86643 0.16638 0.08992 0.0
C1958 C 0.88144 0.13976 0.08512 0.0
C1959 C 0.89366 0.12024 0.09666 0.0
H1960 H 0.85488 0.66079 0.84858 0.0
H1961 H 0.92668 0.60089 0.83342 0.0
H1962 H 0.93885 0.58993 0.86118 0.0
H1963 H 0.89361 0.69111 0.88271 0.0
H1964 H 0.85965 0.69273 0.89433 0.0
H1965 H 0.85752 0.69669 0.87335 0.0
H1966 H 0.81933 0.65248 0.87211 0.0
H1967 H 0.8214 0.64829 0.89306 0.0
H1968 H 0.82938 0.61658 0.88053 0.0
H1969 H 0.94153 0.58397 0.89034 0.0
H1970 H 0.93564 0.58352 0.91894 0.0
H1971 H 0.86212 0.64795 0.91537 0.0
C1972 C 0.87336 0.64553 0.85106 0.0
C1973 C 0.88993 0.63167 0.83883 0.0
C1974 C 0.91378 0.61176 0.8426 0.0
C1975 C 0.92082 0.60545 0.85832 0.0
C1976 C 0.90384 0.61933 0.87007 0.0
C1977 C 0.88068 0.63905 0.86663 0.0
C1978 C 0.86545 0.65048 0.88142 0.0
C1979 C 0.8693 0.68479 0.88304 0.0
C1980 C 0.83191 0.6414 0.8818 0.0
C1981 C 0.88341 0.63379 0.89378 0.0
C1982 C 0.90549 0.61605 0.88693 0.0
C1983 C 0.9245 0.59794 0.89582 0.0
C1984 C 0.92091 0.59788 0.91211 0.0
C1985 C 0.89848 0.61585 0.91946 0.0
C1986 C 0.87955 0.63413 0.91012 0.0
H1987 H 0.10695 0.09739 0.60284 0.0
H1988 H 0.16656 0.169 0.58708 0.0
H1989 H 0.17674 0.18275 0.61466 0.0
H1990 H 0.07499 0.13798 0.63573 0.0
H1991 H 0.07312 0.10518 0.64816 0.0
H1992 H 0.0703 0.10109 0.62721 0.0
H1993 H 0.1151 0.06355 0.62751 0.0
H1994 H 0.11811 0.06755 0.64846 0.0
H1995 H 0.15048 0.07481 0.63621 0.0
H1996 H 0.1813 0.18796 0.64365 0.0
H1997 H 0.17975 0.18537 0.67235 0.0
H1998 H 0.11635 0.11073 0.66984 0.0
C1999 C 0.12211 0.11602 0.60518 0.0
C2000 C 0.13603 0.13216 0.59279 0.0
C2001 C 0.15567 0.15636 0.59636 0.0
C2002 C 0.16157 0.16431 0.61199 0.0
C2003 C 0.14754 0.1479 0.62389 0.0
C2004 C 0.12814 0.12433 0.6207 0.0
C2005 C 0.11607 0.11036 0.63572 0.0
C2006 C 0.08157 0.11387 0.63676 0.0
C2007 C 0.12551 0.07709 0.63705 0.0
C2008 C 0.13195 0.12961 0.64788 0.0
C2009 C 0.14994 0.15111 0.64074 0.0
C2010 C 0.16719 0.17133 0.64937 0.0
C2011 C 0.16609 0.16963 0.66572 0.0
C2012 C 0.14779 0.14792 0.67343 0.0
C2013 C 0.13045 0.12764 0.66433 0.0
H2014 H 0.65648 0.35337 0.41557 0.0
H2015 H 0.58138 0.41628 0.41823 0.0
H2016 H 0.57818 0.4175 0.38972 0.0
H2017 H 0.69165 0.38847 0.38246 0.0
H2018 H 0.70358 0.35393 0.37323 0.0
H2019 H 0.69915 0.3555 0.39419 0.0
H2020 H 0.66212 0.31034 0.39311 0.0
H2021 H 0.66651 0.30858 0.37213 0.0
H2022 H 0.62938 0.31233 0.38058 0.0
H2023 H 0.58342 0.41467 0.36132 0.0
H2024 H 0.59766 0.40784 0.33372 0.0
H2025 H 0.67012 0.34763 0.3478 0.0
C2026 C 0.63915 0.36701 0.41011 0.0
C2027 C 0.61898 0.38444 0.4193 0.0
C2028 C 0.59697 0.40243 0.41164 0.0
C2029 C 0.59489 0.40337 0.39535 0.0
C2030 C 0.61511 0.38635 0.38665 0.0
C2031 C 0.63688 0.36849 0.39362 0.0
C2032 C 0.65653 0.35367 0.38116 0.0
C2033 C 0.68969 0.36349 0.38287 0.0
C2034 C 0.65344 0.31918 0.38179 0.0
C2035 C 0.64249 0.36641 0.36627 0.0
C2036 C 0.61849 0.38502 0.36984 0.0
C2037 C 0.60208 0.40003 0.35832 0.0
C2038 C 0.6104 0.39604 0.34265 0.0
C2039 C 0.63498 0.37724 0.33856 0.0
C2040 C 0.65116 0.36209 0.35056 0.0
H2041 H 0.36125 0.86026 0.09574 0.0
H2042 H 0.44047 0.91757 0.09168 0.0
H2043 H 0.4468 0.91675 0.12021 0.0
H2044 H 0.33216 0.89513 0.1301 0.0
H2045 H 0.31866 0.86079 0.13897 0.0
H2046 H 0.32126 0.86367 0.11797 0.0
H2047 H 0.35507 0.81604 0.11725 0.0
H2048 H 0.35251 0.81299 0.13826 0.0
H2049 H 0.38899 0.81486 0.12893 0.0
H2050 H 0.44356 0.91256 0.14912 0.0
H2051 H 0.43048 0.90487 0.17695 0.0
H2052 H 0.35339 0.85053 0.16305 0.0
C2053 C 0.38012 0.87226 0.10087 0.0
C2054 C 0.40045 0.88881 0.09139 0.0
C2055 C 0.42463 0.90458 0.0986 0.0
C2056 C 0.4285 0.90428 0.11485 0.0
C2057 C 0.408 0.88813 0.12388 0.0
C2058 C 0.38429 0.87234 0.11723 0.0
C2059 C 0.36482 0.85796 0.12983 0.0
C2060 C 0.3323 0.87012 0.12918 0.0
C2061 C 0.36539 0.82341 0.12848 0.0
C2062 C 0.38109 0.86857 0.14451 0.0
C2063 C 0.40604 0.88579 0.14076 0.0
C2064 C 0.42419 0.89893 0.15224 0.0
C2065 C 0.41657 0.89449 0.16802 0.0
C2066 C 0.391 0.87709 0.17218 0.0
C2067 C 0.37321 0.8638 0.16023 0.0
H2068 H 0.85113 0.35287 0.66111 0.0
H2069 H 0.92284 0.41473 0.67432 0.0
H2070 H 0.93524 0.42246 0.64652 0.0
H2071 H 0.89118 0.31927 0.62754 0.0
H2072 H 0.85757 0.31625 0.61571 0.0
H2073 H 0.85489 0.31415 0.63676 0.0
H2074 H 0.81628 0.35799 0.63662 0.0
H2075 H 0.81894 0.36032 0.6156 0.0
H2076 H 0.82627 0.3932 0.62741 0.0
H2077 H 0.938 0.42656 0.61789 0.0
H2078 H 0.93303 0.42518 0.58936 0.0
H2079 H 0.86065 0.35938 0.59338 0.0
C2080 C 0.86963 0.36778 0.65812 0.0
C2081 C 0.88602 0.38324 0.66991 0.0
C2082 C 0.90997 0.40266 0.66554 0.0
C2083 C 0.91721 0.4072 0.64976 0.0
C2084 C 0.90043 0.39204 0.63843 0.0
C2085 C 0.8773 0.37253 0.64232 0.0
C2086 C 0.86263 0.35965 0.62763 0.0
C2087 C 0.86683 0.32529 0.62687 0.0
C2088 C 0.82904 0.36832 0.62677 0.0
C2089 C 0.88086 0.37544 0.61495 0.0
C2090 C 0.9025 0.39396 0.62157 0.0
C2091 C 0.92143 0.41188 0.61254 0.0
C2092 C 0.91835 0.41089 0.59626 0.0
C2093 C 0.89665 0.39192 0.58902 0.0
C2094 C 0.87765 0.37386 0.59854 0.0
H2095 H 0.40187 0.10337 0.34729 0.0
H2096 H 0.34572 0.18331 0.34328 0.0
H2097 H 0.34487 0.18831 0.37184 0.0
H2098 H 0.36435 0.07337 0.38099 0.0
H2099 H 0.39807 0.05914 0.39023 0.0
H2100 H 0.39635 0.06244 0.36922 0.0
H2101 H 0.4446 0.0955 0.36946 0.0
H2102 H 0.44649 0.09225 0.39049 0.0
H2103 H 0.44566 0.12896 0.38144 0.0
H2104 H 0.34778 0.18436 0.40053 0.0
H2105 H 0.3542 0.17104 0.42832 0.0
H2106 H 0.40786 0.09326 0.41492 0.0
C2107 C 0.38972 0.12206 0.35246 0.0
C2108 C 0.37406 0.14306 0.34295 0.0
C2109 C 0.35808 0.167 0.3502 0.0
C2110 C 0.35742 0.1701 0.36648 0.0
C2111 C 0.37276 0.14904 0.37551 0.0
C2112 C 0.38863 0.12545 0.36886 0.0
C2113 C 0.40208 0.10542 0.38152 0.0
C2114 C 0.38945 0.07318 0.38042 0.0
C2115 C 0.43677 0.10555 0.38068 0.0
C2116 C 0.3909 0.12134 0.39621 0.0
C2117 C 0.37421 0.14655 0.39237 0.0
C2118 C 0.36093 0.16475 0.40373 0.0
C2119 C 0.36467 0.15695 0.4195 0.0
C2120 C 0.3815 0.13113 0.42382 0.0
C2121 C 0.39493 0.11319 0.41198 0.0
H2122 H 0.61798 0.60928 0.16554 0.0
H2123 H 0.68105 0.68402 0.16895 0.0
H2124 H 0.68119 0.68902 0.14029 0.0
H2125 H 0.65082 0.57617 0.13145 0.0
H2126 H 0.61536 0.56507 0.12281 0.0
H2127 H 0.61871 0.56818 0.14377 0.0
H2128 H 0.57368 0.60548 0.14429 0.0
H2129 H 0.57019 0.60245 0.12331 0.0
H2130 H 0.57497 0.63891 0.13229 0.0
H2131 H 0.67634 0.68509 0.11117 0.0
H2132 H 0.66657 0.6719 0.08346 0.0
H2133 H 0.60703 0.59975 0.09859 0.0
C2134 C 0.63158 0.62683 0.16024 0.0
C2135 C 0.64938 0.64632 0.16955 0.0
C2136 C 0.66709 0.66885 0.16214 0.0
C2137 C 0.66735 0.67194 0.14581 0.0
C2138 C 0.6498 0.65232 0.13696 0.0
C2139 C 0.63219 0.63021 0.14386 0.0
C2140 C 0.61618 0.61152 0.13151 0.0
C2141 C 0.62586 0.57827 0.13245 0.0
C2142 C 0.58171 0.6148 0.13294 0.0
C2143 C 0.62786 0.62639 0.11667 0.0
C2144 C 0.6471 0.64998 0.12009 0.0
C2145 C 0.66118 0.66674 0.10833 0.0
C2146 C 0.65553 0.6591 0.09263 0.0
C2147 C 0.63604 0.63488 0.08886 0.0
C2148 C 0.62196 0.61849 0.10109 0.0
H2149 H 0.11644 0.90499 0.84726 0.0
H2150 H 0.1812 0.83187 0.84336 0.0
H2151 H 0.18162 0.8263 0.87199 0.0
H2152 H 0.14855 0.9381 0.88171 0.0
H2153 H 0.11279 0.94806 0.89037 0.0
H2154 H 0.11634 0.94566 0.86939 0.0
H2155 H 0.07222 0.90728 0.86849 0.0
H2156 H 0.06853 0.90958 0.88949 0.0
H2157 H 0.07423 0.87353 0.88022 0.0
H2158 H 0.17652 0.82924 0.90115 0.0
H2159 H 0.16608 0.84115 0.92894 0.0
H2160 H 0.10498 0.9123 0.91431 0.0
C2161 C 0.13052 0.88771 0.85245 0.0
C2162 C 0.14869 0.86882 0.843 0.0
C2163 C 0.16697 0.84659 0.85027 0.0
C2164 C 0.1674 0.84319 0.86658 0.0
C2165 C 0.14943 0.86218 0.87557 0.0
C2166 C 0.1313 0.88401 0.86881 0.0
C2167 C 0.11478 0.90191 0.8813 0.0
C2168 C 0.12366 0.93542 0.88065 0.0
C2169 C 0.0804 0.89782 0.87978 0.0
C2170 C 0.12672 0.8869 0.89604 0.0
C2171 C 0.14658 0.86394 0.89246 0.0
C2172 C 0.1609 0.84711 0.90411 0.0
C2173 C 0.15487 0.85402 0.91987 0.0
C2174 C 0.13473 0.87758 0.92381 0.0
C2175 C 0.12043 0.89407 0.91169 0.0
loop_
_geom_bond_atom_site_label_1
_geom_bond_atom_site_label_2
_geom_bond_distance
_geom_bond_site_symmetry_2
_ccdc_geom_bond_type
Co0 O1 2.216 . S
Co0 O2 2.091 . S
Co0 O4 2.004 . S
Co0 O10 2.021 . S
Co0 O12 2.137 . S
Co0 O13 2.244 . S
O1 Co0 2.216 . S
O1 C8 1.247 . S
O2 Co0 2.091 . S
O2 C8 1.261 . S
C3 O12 1.247 . S
C3 O13 1.272 . S
O4 Co0 2.004 . S
O4 C9 1.259 . S
Co5 O6 2.061 . S
Co5 O11 2.052 . S
Co5 O13 2.135 . S
O6 Co5 2.061 . S
O6 C9 1.235 . S
C7 O10 1.238 . S
C7 O11 1.241 . S
C8 O1 1.247 . S
C8 O2 1.261 . S
C9 O4 1.259 . S
C9 O6 1.235 . S
O10 Co0 2.021 . S
O10 C7 1.238 . S
O11 Co5 2.052 . S
O11 C7 1.241 . S
O12 Co0 2.137 . S
O12 C3 1.247 . S
O13 Co0 2.244 . S
O13 C3 1.272 . S
O13 Co5 2.135 . S
Co14 O15 2.216 . S
Co14 O16 2.091 . S
Co14 O18 2.004 . S
Co14 O24 2.021 . S
Co14 O26 2.137 . S
Co14 O27 2.244 . S
O15 Co14 2.216 . S
O15 C22 1.247 . S
O16 Co14 2.091 . S
O16 C22 1.261 . S
C17 O26 1.247 . S
C17 O27 1.272 . S
O18 Co14 2.004 . S
O18 C23 1.259 . S
Co19 O20 2.061 . S
Co19 O25 2.052 . S
Co19 O27 2.135 . S
O20 Co19 2.061 . S
O20 C23 1.235 . S
C21 O24 1.238 . S
C21 O25 1.241 . S
C22 O15 1.247 . S
C22 O16 1.261 . S
C23 O18 1.259 . S
C23 O20 1.235 . S
O24 Co14 2.021 . S
O24 C21 1.238 . S
O25 Co19 2.052 . S
O25 C21 1.241 . S
O26 Co14 2.137 . S
O26 C17 1.247 . S
O27 Co14 2.244 . S
O27 C17 1.272 . S
O27 Co19 2.135 . S
Co28 O29 2.216 . S
Co28 O30 2.091 . S
Co28 O32 2.004 . S
Co28 O38 2.021 . S
Co28 O40 2.137 . S
Co28 O41 2.244 . S
O29 Co28 2.216 . S
O29 C36 1.247 . S
O30 Co28 2.091 . S
O30 C36 1.261 . S
C31 O40 1.247 . S
C31 O41 1.272 . S
O32 Co28 2.004 . S
O32 C37 1.259 . S
Co33 O34 2.061 . S
Co33 O39 2.052 . S
Co33 O41 2.135 . S
O34 Co33 2.061 . S
O34 C37 1.235 . S
C35 O38 1.238 . S
C35 O39 1.241 . S
C36 O29 1.247 . S
C36 O30 1.261 . S
C37 O32 1.259 . S
C37 O34 1.235 . S
O38 Co28 2.021 . S
O38 C35 1.238 . S
O39 Co33 2.052 . S
O39 C35 1.241 . S
O40 Co28 2.137 . S
O40 C31 1.247 . S
O41 Co28 2.244 . S
O41 C31 1.272 . S
O41 Co33 2.135 . S
Co42 O43 2.216 . S
Co42 O44 2.091 . S
Co42 O46 2.004 . S
Co42 O52 2.021 . S
Co42 O54 2.137 . S
Co42 O55 2.244 . S
O43 Co42 2.216 . S
O43 C50 1.247 . S
O44 Co42 2.091 . S
O44 C50 1.261 . S
C45 O54 1.247 . S
C45 O55 1.272 . S
O46 Co42 2.004 . S
O46 C51 1.259 . S
Co47 O48 2.061 . S
Co47 O53 2.052 . S
Co47 O55 2.135 . S
O48 Co47 2.061 . S
O48 C51 1.235 . S
C49 O52 1.238 . S
C49 O53 1.241 . S
C50 O43 1.247 . S
C50 O44 1.261 . S
C51 O46 1.259 . S
C51 O48 1.235 . S
O52 Co42 2.021 . S
O52 C49 1.238 . S
O53 Co47 2.052 . S
O53 C49 1.241 . S
O54 Co42 2.137 . S
O54 C45 1.247 . S
O55 Co42 2.244 . S
O55 C45 1.272 . S
O55 Co47 2.135 . S
Co56 O57 2.216 . S
Co56 O58 2.091 . S
Co56 O60 2.004 . S
Co56 O66 2.021 . S
Co56 O68 2.137 . S
Co56 O69 2.244 . S
O57 Co56 2.216 . S
O57 C64 1.247 . S
O58 Co56 2.091 . S
O58 C64 1.261 . S
C59 O68 1.247 . S
C59 O69 1.272 . S
O60 Co56 2.004 . S
O60 C65 1.259 . S
Co61 O62 2.061 . S
Co61 O67 2.052 . S
Co61 O69 2.135 . S
O62 Co61 2.061 . S
O62 C65 1.235 . S
C63 O66 1.238 . S
C63 O67 1.241 . S
C64 O57 1.247 . S
C64 O58 1.261 . S
C65 O60 1.259 . S
C65 O62 1.235 . S
O66 Co56 2.021 . S
O66 C63 1.238 . S
O67 Co61 2.052 . S
O67 C63 1.241 . S
O68 Co56 2.137 . S
O68 C59 1.247 . S
O69 Co56 2.244 . S
O69 C59 1.272 . S
O69 Co61 2.135 . S
Co70 O71 2.216 . S
Co70 O72 2.091 . S
Co70 O74 2.004 . S
Co70 O80 2.021 . S
Co70 O82 2.137 . S
Co70 O83 2.244 . S
O71 Co70 2.216 . S
O71 C78 1.247 . S
O72 Co70 2.091 . S
O72 C78 1.261 . S
C73 O82 1.247 . S
C73 O83 1.272 . S
O74 Co70 2.004 . S
O74 C79 1.259 . S
Co75 O76 2.061 . S
Co75 O81 2.052 . S
Co75 O83 2.135 . S
O76 Co75 2.061 . S
O76 C79 1.235 . S
C77 O80 1.238 . S
C77 O81 1.241 . S
C78 O71 1.247 . S
C78 O72 1.261 . S
C79 O74 1.259 . S
C79 O76 1.235 . S
O80 Co70 2.021 . S
O80 C77 1.238 . S
O81 Co75 2.052 . S
O81 C77 1.241 . S
O82 Co70 2.137 . S
O82 C73 1.247 . S
O83 Co70 2.244 . S
O83 C73 1.272 . S
O83 Co75 2.135 . S
Co84 O85 2.216 . S
Co84 O86 2.091 . S
Co84 O88 2.004 . S
Co84 O94 2.021 . S
Co84 O96 2.137 . S
Co84 O97 2.244 . S
O85 Co84 2.216 . S
O85 C92 1.247 . S
O86 Co84 2.091 . S
O86 C92 1.261 . S
C87 O96 1.247 . S
C87 O97 1.272 . S
O88 Co84 2.004 . S
O88 C93 1.259 . S
Co89 O90 2.061 . S
Co89 O95 2.052 . S
Co89 O97 2.135 . S
O90 Co89 2.061 . S
O90 C93 1.235 . S
C91 O94 1.238 . S
C91 O95 1.241 . S
C92 O85 1.247 . S
C92 O86 1.261 . S
C93 O88 1.259 . S
C93 O90 1.235 . S
O94 Co84 2.021 . S
O94 C91 1.238 . S
O95 Co89 2.052 . S
O95 C91 1.241 . S
O96 Co84 2.137 . S
O96 C87 1.247 . S
O97 Co84 2.244 . S
O97 C87 1.272 . S
O97 Co89 2.135 . S
Co98 O99 2.216 . S
Co98 O100 2.091 . S
Co98 O102 2.004 . S
Co98 O108 2.021 . S
Co98 O110 2.137 . S
Co98 O111 2.244 . S
O99 Co98 2.216 . S
O99 C106 1.247 . S
O100 Co98 2.091 . S
O100 C106 1.261 . S
C101 O110 1.247 . S
C101 O111 1.272 . S
O102 Co98 2.004 . S
O102 C107 1.259 . S
Co103 O104 2.061 . S
Co103 O109 2.052 . S
Co103 O111 2.135 . S
O104 Co103 2.061 . S
O104 C107 1.235 . S
C105 O108 1.238 . S
C105 O109 1.241 . S
C106 O99 1.247 . S
C106 O100 1.261 . S
C107 O102 1.259 . S
C107 O104 1.235 . S
O108 Co98 2.021 . S
O108 C105 1.238 . S
O109 Co103 2.052 . S
O109 C105 1.241 . S
O110 Co98 2.137 . S
O110 C101 1.247 . S
O111 Co98 2.244 . S
O111 C101 1.272 . S
O111 Co103 2.135 . S
Co112 O113 2.216 . S
Co112 O114 2.091 . S
Co112 O116 2.004 . S
Co112 O122 2.021 . S
Co112 O124 2.137 . S
Co112 O125 2.244 . S
O113 Co112 2.216 . S
O113 C120 1.247 . S
O114 Co112 2.091 . S
O114 C120 1.261 . S
C115 O124 1.247 . S
C115 O125 1.272 . S
O116 Co112 2.004 . S
O116 C121 1.259 . S
Co117 O118 2.061 . S
Co117 O123 2.052 . S
Co117 O125 2.135 . S
O118 Co117 2.061 . S
O118 C121 1.235 . S
C119 O122 1.238 . S
C119 O123 1.241 . S
C120 O113 1.247 . S
C120 O114 1.261 . S
C121 O116 1.259 . S
C121 O118 1.235 . S
O122 Co112 2.021 . S
O122 C119 1.238 . S
O123 Co117 2.052 . S
O123 C119 1.241 . S
O124 Co112 2.137 . S
O124 C115 1.247 . S
O125 Co112 2.244 . S
O125 C115 1.272 . S
O125 Co117 2.135 . S
Co126 O127 2.216 . S
Co126 O128 2.091 . S
Co126 O130 2.004 . S
Co126 O136 2.021 . S
Co126 O138 2.137 . S
Co126 O139 2.244 . S
O127 Co126 2.216 . S
O127 C134 1.247 . S
O128 Co126 2.091 . S
O128 C134 1.261 . S
C129 O138 1.247 . S
C129 O139 1.272 . S
O130 Co126 2.004 . S
O130 C135 1.259 . S
Co131 O132 2.061 . S
Co131 O137 2.052 . S
Co131 O139 2.135 . S
O132 Co131 2.061 . S
O132 C135 1.235 . S
C133 O136 1.238 . S
C133 O137 1.241 . S
C134 O127 1.247 . S
C134 O128 1.261 . S
C135 O130 1.259 . S
C135 O132 1.235 . S
O136 Co126 2.021 . S
O136 C133 1.238 . S
O137 Co131 2.052 . S
O137 C133 1.241 . S
O138 Co126 2.137 . S
O138 C129 1.247 . S
O139 Co126 2.244 . S
O139 C129 1.272 . S
O139 Co131 2.135 . S
Co140 O141 2.216 . S
Co140 O142 2.091 . S
Co140 O144 2.004 . S
Co140 O150 2.021 . S
Co140 O152 2.137 . S
Co140 O153 2.244 . S
O141 Co140 2.216 . S
O141 C148 1.247 . S
O142 Co140 2.091 . S
O142 C148 1.261 . S
C143 O152 1.247 . S
C143 O153 1.272 . S
O144 Co140 2.004 . S
O144 C149 1.259 . S
Co145 O146 2.061 . S
Co145 O151 2.052 . S
Co145 O153 2.135 . S
O146 Co145 2.061 . S
O146 C149 1.235 . S
C147 O150 1.238 . S
C147 O151 1.241 . S
C148 O141 1.247 . S
C148 O142 1.261 . S
C149 O144 1.259 . S
C149 O146 1.235 . S
O150 Co140 2.021 . S
O150 C147 1.238 . S
O151 Co145 2.052 . S
O151 C147 1.241 . S
O152 Co140 2.137 . S
O152 C143 1.247 . S
O153 Co140 2.244 . S
O153 C143 1.272 . S
O153 Co145 2.135 . S
Co154 O155 2.216 . S
Co154 O156 2.091 . S
Co154 O158 2.004 . S
Co154 O164 2.021 . S
Co154 O166 2.137 . S
Co154 O167 2.244 . S
O155 Co154 2.216 . S
O155 C162 1.247 . S
O156 Co154 2.091 . S
O156 C162 1.261 . S
C157 O166 1.247 . S
C157 O167 1.272 . S
O158 Co154 2.004 . S
O158 C163 1.259 . S
Co159 O160 2.061 . S
Co159 O165 2.052 . S
Co159 O167 2.135 . S
O160 Co159 2.061 . S
O160 C163 1.235 . S
C161 O164 1.238 . S
C161 O165 1.241 . S
C162 O155 1.247 . S
C162 O156 1.261 . S
C163 O158 1.259 . S
C163 O160 1.235 . S
O164 Co154 2.021 . S
O164 C161 1.238 . S
O165 Co159 2.052 . S
O165 C161 1.241 . S
O166 Co154 2.137 . S
O166 C157 1.247 . S
O167 Co154 2.244 . S
O167 C157 1.272 . S
O167 Co159 2.135 . S
Co168 O169 2.216 . S
Co168 O170 2.091 . S
Co168 O172 2.004 . S
Co168 O178 2.021 . S
Co168 O180 2.137 . S
Co168 O181 2.244 . S
O169 Co168 2.216 . S
O169 C176 1.247 . S
O170 Co168 2.091 . S
O170 C176 1.261 . S
C171 O180 1.247 . S
C171 O181 1.272 . S
O172 Co168 2.004 . S
O172 C177 1.259 . S
Co173 O174 2.061 . S
Co173 O179 2.052 . S
Co173 O181 2.135 . S
O174 Co173 2.061 . S
O174 C177 1.235 . S
C175 O178 1.238 . S
C175 O179 1.241 . S
C176 O169 1.247 . S
C176 O170 1.261 . S
C177 O172 1.259 . S
C177 O174 1.235 . S
O178 Co168 2.021 . S
O178 C175 1.238 . S
O179 Co173 2.052 . S
O179 C175 1.241 . S
O180 Co168 2.137 . S
O180 C171 1.247 . S
O181 Co168 2.244 . S
O181 C171 1.272 . S
O181 Co173 2.135 . S
Co182 O183 2.216 . S
Co182 O184 2.091 . S
Co182 O186 2.004 . S
Co182 O192 2.021 . S
Co182 O194 2.137 . S
Co182 O195 2.244 . S
O183 Co182 2.216 . S
O183 C190 1.247 . S
O184 Co182 2.091 . S
O184 C190 1.261 . S
C185 O194 1.247 . S
C185 O195 1.272 . S
O186 Co182 2.004 . S
O186 C191 1.259 . S
Co187 O188 2.061 . S
Co187 O193 2.052 . S
Co187 O195 2.135 . S
O188 Co187 2.061 . S
O188 C191 1.235 . S
C189 O192 1.238 . S
C189 O193 1.241 . S
C190 O183 1.247 . S
C190 O184 1.261 . S
C191 O186 1.259 . S
C191 O188 1.235 . S
O192 Co182 2.021 . S
O192 C189 1.238 . S
O193 Co187 2.052 . S
O193 C189 1.241 . S
O194 Co182 2.137 . S
O194 C185 1.247 . S
O195 Co182 2.244 . S
O195 C185 1.272 . S
O195 Co187 2.135 . S
Co196 O197 2.216 . S
Co196 O198 2.091 . S
Co196 O200 2.004 . S
Co196 O206 2.021 . S
Co196 O208 2.137 . S
Co196 O209 2.244 . S
O197 Co196 2.216 . S
O197 C204 1.247 . S
O198 Co196 2.091 . S
O198 C204 1.261 . S
C199 O208 1.247 . S
C199 O209 1.272 . S
O200 Co196 2.004 . S
O200 C205 1.259 . S
Co201 O202 2.061 . S
Co201 O207 2.052 . S
Co201 O209 2.135 . S
O202 Co201 2.061 . S
O202 C205 1.235 . S
C203 O206 1.238 . S
C203 O207 1.241 . S
C204 O197 1.247 . S
C204 O198 1.261 . S
C205 O200 1.259 . S
C205 O202 1.235 . S
O206 Co196 2.021 . S
O206 C203 1.238 . S
O207 Co201 2.052 . S
O207 C203 1.241 . S
O208 Co196 2.137 . S
O208 C199 1.247 . S
O209 Co196 2.244 . S
O209 C199 1.272 . S
O209 Co201 2.135 . S
Co210 O211 2.216 . S
Co210 O212 2.091 . S
Co210 O214 2.004 . S
Co210 O220 2.021 . S
Co210 O222 2.137 . S
Co210 O223 2.244 . S
O211 Co210 2.216 . S
O211 C218 1.247 . S
O212 Co210 2.091 . S
O212 C218 1.261 . S
C213 O222 1.247 . S
C213 O223 1.272 . S
O214 Co210 2.004 . S
O214 C219 1.259 . S
Co215 O216 2.061 . S
Co215 O221 2.052 . S
Co215 O223 2.135 . S
O216 Co215 2.061 . S
O216 C219 1.235 . S
C217 O220 1.238 . S
C217 O221 1.241 . S
C218 O211 1.247 . S
C218 O212 1.261 . S
C219 O214 1.259 . S
C219 O216 1.235 . S
O220 Co210 2.021 . S
O220 C217 1.238 . S
O221 Co215 2.052 . S
O221 C217 1.241 . S
O222 Co210 2.137 . S
O222 C213 1.247 . S
O223 Co210 2.244 . S
O223 C213 1.272 . S
O223 Co215 2.135 . S
Co224 O225 2.216 . S
Co224 O226 2.091 . S
Co224 O228 2.004 . S
Co224 O234 2.021 . S
Co224 O236 2.137 . S
Co224 O237 2.244 . S
O225 Co224 2.216 . S
O225 C232 1.247 . S
O226 Co224 2.091 . S
O226 C232 1.261 . S
C227 O236 1.247 . S
C227 O237 1.272 . S
O228 Co224 2.004 . S
O228 C233 1.259 . S
Co229 O230 2.061 . S
Co229 O235 2.052 . S
Co229 O237 2.135 . S
O230 Co229 2.061 . S
O230 C233 1.235 . S
C231 O234 1.238 . S
C231 O235 1.241 . S
C232 O225 1.247 . S
C232 O226 1.261 . S
C233 O228 1.259 . S
C233 O230 1.235 . S
O234 Co224 2.021 . S
O234 C231 1.238 . S
O235 Co229 2.052 . S
O235 C231 1.241 . S
O236 Co224 2.137 . S
O236 C227 1.247 . S
O237 Co224 2.244 . S
O237 C227 1.272 . S
O237 Co229 2.135 . S
Co238 O239 2.216 . S
Co238 O240 2.091 . S
Co238 O242 2.004 . S
Co238 O248 2.021 . S
Co238 O250 2.137 . S
Co238 O251 2.244 . S
O239 Co238 2.216 . S
O239 C246 1.247 . S
O240 Co238 2.091 . S
O240 C246 1.261 . S
C241 O250 1.247 . S
C241 O251 1.272 . S
O242 Co238 2.004 . S
O242 C247 1.259 . S
Co243 O244 2.061 . S
Co243 O249 2.052 . S
Co243 O251 2.135 . S
O244 Co243 2.061 . S
O244 C247 1.235 . S
C245 O248 1.238 . S
C245 O249 1.241 . S
C246 O239 1.247 . S
C246 O240 1.261 . S
C247 O242 1.259 . S
C247 O244 1.235 . S
O248 Co238 2.021 . S
O248 C245 1.238 . S
O249 Co243 2.052 . S
O249 C245 1.241 . S
O250 Co238 2.137 . S
O250 C241 1.247 . S
O251 Co238 2.244 . S
O251 C241 1.272 . S
O251 Co243 2.135 . S
Co252 O253 2.216 . S
Co252 O254 2.091 . S
Co252 O256 2.004 . S
Co252 O262 2.021 . S
Co252 O264 2.137 . S
Co252 O265 2.244 . S
O253 Co252 2.216 . S
O253 C260 1.247 . S
O254 Co252 2.091 . S
O254 C260 1.261 . S
C255 O264 1.247 . S
C255 O265 1.272 . S
O256 Co252 2.004 . S
O256 C261 1.259 . S
Co257 O258 2.061 . S
Co257 O263 2.052 . S
Co257 O265 2.135 . S
O258 Co257 2.061 . S
O258 C261 1.235 . S
C259 O262 1.238 . S
C259 O263 1.241 . S
C260 O253 1.247 . S
C260 O254 1.261 . S
C261 O256 1.259 . S
C261 O258 1.235 . S
O262 Co252 2.021 . S
O262 C259 1.238 . S
O263 Co257 2.052 . S
O263 C259 1.241 . S
O264 Co252 2.137 . S
O264 C255 1.247 . S
O265 Co252 2.244 . S
O265 C255 1.272 . S
O265 Co257 2.135 . S
Co266 O267 2.216 . S
Co266 O268 2.091 . S
Co266 O270 2.004 . S
Co266 O276 2.021 . S
Co266 O278 2.137 . S
Co266 O279 2.244 . S
O267 Co266 2.216 . S
O267 C274 1.247 . S
O268 Co266 2.091 . S
O268 C274 1.261 . S
C269 O278 1.247 . S
C269 O279 1.272 . S
O270 Co266 2.004 . S
O270 C275 1.259 . S
Co271 O272 2.061 . S
Co271 O277 2.052 . S
Co271 O279 2.135 . S
O272 Co271 2.061 . S
O272 C275 1.235 . S
C273 O276 1.238 . S
C273 O277 1.241 . S
C274 O267 1.247 . S
C274 O268 1.261 . S
C275 O270 1.259 . S
C275 O272 1.235 . S
O276 Co266 2.021 . S
O276 C273 1.238 . S
O277 Co271 2.052 . S
O277 C273 1.241 . S
O278 Co266 2.137 . S
O278 C269 1.247 . S
O279 Co266 2.244 . S
O279 C269 1.272 . S
O279 Co271 2.135 . S
Co280 O281 2.216 . S
Co280 O282 2.091 . S
Co280 O284 2.004 . S
Co280 O290 2.021 . S
Co280 O292 2.137 . S
Co280 O293 2.244 . S
O281 Co280 2.216 . S
O281 C288 1.247 . S
O282 Co280 2.091 . S
O282 C288 1.261 . S
C283 O292 1.247 . S
C283 O293 1.272 . S
O284 Co280 2.004 . S
O284 C289 1.259 . S
Co285 O286 2.061 . S
Co285 O291 2.052 . S
Co285 O293 2.135 . S
O286 Co285 2.061 . S
O286 C289 1.235 . S
C287 O290 1.238 . S
C287 O291 1.241 . S
C288 O281 1.247 . S
C288 O282 1.261 . S
C289 O284 1.259 . S
C289 O286 1.235 . S
O290 Co280 2.021 . S
O290 C287 1.238 . S
O291 Co285 2.052 . S
O291 C287 1.241 . S
O292 Co280 2.137 . S
O292 C283 1.247 . S
O293 Co280 2.244 . S
O293 C283 1.272 . S
O293 Co285 2.135 . S
Co294 O295 2.216 . S
Co294 O296 2.091 . S
Co294 O298 2.004 . S
Co294 O304 2.021 . S
Co294 O306 2.137 . S
Co294 O307 2.244 . S
O295 Co294 2.216 . S
O295 C302 1.247 . S
O296 Co294 2.091 . S
O296 C302 1.261 . S
C297 O306 1.247 . S
C297 O307 1.272 . S
O298 Co294 2.004 . S
O298 C303 1.259 . S
Co299 O300 2.061 . S
Co299 O305 2.052 . S
Co299 O307 2.135 . S
O300 Co299 2.061 . S
O300 C303 1.235 . S
C301 O304 1.238 . S
C301 O305 1.241 . S
C302 O295 1.247 . S
C302 O296 1.261 . S
C303 O298 1.259 . S
C303 O300 1.235 . S
O304 Co294 2.021 . S
O304 C301 1.238 . S
O305 Co299 2.052 . S
O305 C301 1.241 . S
O306 Co294 2.137 . S
O306 C297 1.247 . S
O307 Co294 2.244 . S
O307 C297 1.272 . S
O307 Co299 2.135 . S
Co308 O309 2.216 . S
Co308 O310 2.091 . S
Co308 O312 2.004 . S
Co308 O318 2.021 . S
Co308 O320 2.137 . S
Co308 O321 2.244 . S
O309 Co308 2.216 . S
O309 C316 1.247 . S
O310 Co308 2.091 . S
O310 C316 1.261 . S
C311 O320 1.247 . S
C311 O321 1.272 . S
O312 Co308 2.004 . S
O312 C317 1.259 . S
Co313 O314 2.061 . S
Co313 O319 2.052 . S
Co313 O321 2.135 . S
O314 Co313 2.061 . S
O314 C317 1.235 . S
C315 O318 1.238 . S
C315 O319 1.241 . S
C316 O309 1.247 . S
C316 O310 1.261 . S
C317 O312 1.259 . S
C317 O314 1.235 . S
O318 Co308 2.021 . S
O318 C315 1.238 . S
O319 Co313 2.052 . S
O319 C315 1.241 . S
O320 Co308 2.137 . S
O320 C311 1.247 . S
O321 Co308 2.244 . S
O321 C311 1.272 . S
O321 Co313 2.135 . S
Co322 O323 2.216 . S
Co322 O324 2.091 . S
Co322 O326 2.004 . S
Co322 O332 2.021 . S
Co322 O334 2.137 . S
Co322 O335 2.244 . S
O323 Co322 2.216 . S
O323 C330 1.247 . S
O324 Co322 2.091 . S
O324 C330 1.261 . S
C325 O334 1.247 . S
C325 O335 1.272 . S
O326 Co322 2.004 . S
O326 C331 1.259 . S
Co327 O328 2.061 . S
Co327 O333 2.052 . S
Co327 O335 2.135 . S
O328 Co327 2.061 . S
O328 C331 1.235 . S
C329 O332 1.238 . S
C329 O333 1.241 . S
C330 O323 1.247 . S
C330 O324 1.261 . S
C331 O326 1.259 . S
C331 O328 1.235 . S
O332 Co322 2.021 . S
O332 C329 1.238 . S
O333 Co327 2.052 . S
O333 C329 1.241 . S
O334 Co322 2.137 . S
O334 C325 1.247 . S
O335 Co322 2.244 . S
O335 C325 1.272 . S
O335 Co327 2.135 . S
Co336 O337 2.216 . S
Co336 O338 2.091 . S
Co336 O340 2.004 . S
Co336 O346 2.021 . S
Co336 O348 2.137 . S
Co336 O349 2.244 . S
O337 Co336 2.216 . S
O337 C344 1.247 . S
O338 Co336 2.091 . S
O338 C344 1.261 . S
C339 O348 1.247 . S
C339 O349 1.272 . S
O340 Co336 2.004 . S
O340 C345 1.259 . S
Co341 O342 2.061 . S
Co341 O347 2.052 . S
Co341 O349 2.135 . S
O342 Co341 2.061 . S
O342 C345 1.235 . S
C343 O346 1.238 . S
C343 O347 1.241 . S
C344 O337 1.247 . S
C344 O338 1.261 . S
C345 O340 1.259 . S
C345 O342 1.235 . S
O346 Co336 2.021 . S
O346 C343 1.238 . S
O347 Co341 2.052 . S
O347 C343 1.241 . S
O348 Co336 2.137 . S
O348 C339 1.247 . S
O349 Co336 2.244 . S
O349 C339 1.272 . S
O349 Co341 2.135 . S
Co350 O351 2.216 . S
Co350 O352 2.091 . S
Co350 O354 2.004 . S
Co350 O360 2.021 . S
Co350 O362 2.137 . S
Co350 O363 2.244 . S
O351 Co350 2.216 . S
O351 C358 1.247 . S
O352 Co350 2.091 . S
O352 C358 1.261 . S
C353 O362 1.247 . S
C353 O363 1.272 . S
O354 Co350 2.004 . S
O354 C359 1.259 . S
Co355 O356 2.061 . S
Co355 O361 2.052 . S
Co355 O363 2.135 . S
O356 Co355 2.061 . S
O356 C359 1.235 . S
C357 O360 1.238 . S
C357 O361 1.241 . S
C358 O351 1.247 . S
C358 O352 1.261 . S
C359 O354 1.259 . S
C359 O356 1.235 . S
O360 Co350 2.021 . S
O360 C357 1.238 . S
O361 Co355 2.052 . S
O361 C357 1.241 . S
O362 Co350 2.137 . S
O362 C353 1.247 . S
O363 Co350 2.244 . S
O363 C353 1.272 . S
O363 Co355 2.135 . S
Co364 O365 2.216 . S
Co364 O366 2.091 . S
Co364 O368 2.004 . S
Co364 O374 2.021 . S
Co364 O376 2.137 . S
Co364 O377 2.244 . S
O365 Co364 2.216 . S
O365 C372 1.247 . S
O366 Co364 2.091 . S
O366 C372 1.261 . S
C367 O376 1.247 . S
C367 O377 1.272 . S
O368 Co364 2.004 . S
O368 C373 1.259 . S
Co369 O370 2.061 . S
Co369 O375 2.052 . S
Co369 O377 2.135 . S
O370 Co369 2.061 . S
O370 C373 1.235 . S
C371 O374 1.238 . S
C371 O375 1.241 . S
C372 O365 1.247 . S
C372 O366 1.261 . S
C373 O368 1.259 . S
C373 O370 1.235 . S
O374 Co364 2.021 . S
O374 C371 1.238 . S
O375 Co369 2.052 . S
O375 C371 1.241 . S
O376 Co364 2.137 . S
O376 C367 1.247 . S
O377 Co364 2.244 . S
O377 C367 1.272 . S
O377 Co369 2.135 . S
Co378 O379 2.216 . S
Co378 O380 2.091 . S
Co378 O382 2.004 . S
Co378 O388 2.021 . S
Co378 O390 2.137 . S
Co378 O391 2.244 . S
O379 Co378 2.216 . S
O379 C386 1.247 . S
O380 Co378 2.091 . S
O380 C386 1.261 . S
C381 O390 1.247 . S
C381 O391 1.272 . S
O382 Co378 2.004 . S
O382 C387 1.259 . S
Co383 O384 2.061 . S
Co383 O389 2.052 . S
Co383 O391 2.135 . S
O384 Co383 2.061 . S
O384 C387 1.235 . S
C385 O388 1.238 . S
C385 O389 1.241 . S
C386 O379 1.247 . S
C386 O380 1.261 . S
C387 O382 1.259 . S
C387 O384 1.235 . S
O388 Co378 2.021 . S
O388 C385 1.238 . S
O389 Co383 2.052 . S
O389 C385 1.241 . S
O390 Co378 2.137 . S
O390 C381 1.247 . S
O391 Co378 2.244 . S
O391 C381 1.272 . S
O391 Co383 2.135 . S
Co392 O393 2.216 . S
Co392 O394 2.091 . S
Co392 O396 2.004 . S
Co392 O402 2.021 . S
Co392 O404 2.137 . S
Co392 O405 2.244 . S
O393 Co392 2.216 . S
O393 C400 1.247 . S
O394 Co392 2.091 . S
O394 C400 1.261 . S
C395 O404 1.247 . S
C395 O405 1.272 . S
O396 Co392 2.004 . S
O396 C401 1.259 . S
Co397 O398 2.061 . S
Co397 O403 2.052 . S
Co397 O405 2.135 . S
O398 Co397 2.061 . S
O398 C401 1.235 . S
C399 O402 1.238 . S
C399 O403 1.241 . S
C400 O393 1.247 . S
C400 O394 1.261 . S
C401 O396 1.259 . S
C401 O398 1.235 . S
O402 Co392 2.021 . S
O402 C399 1.238 . S
O403 Co397 2.052 . S
O403 C399 1.241 . S
O404 Co392 2.137 . S
O404 C395 1.247 . S
O405 Co392 2.244 . S
O405 C395 1.272 . S
O405 Co397 2.135 . S
Co406 O407 2.216 . S
Co406 O408 2.091 . S
Co406 O410 2.004 . S
Co406 O416 2.021 . S
Co406 O418 2.137 . S
Co406 O419 2.244 . S
O407 Co406 2.216 . S
O407 C414 1.247 . S
O408 Co406 2.091 . S
O408 C414 1.261 . S
C409 O418 1.247 . S
C409 O419 1.272 . S
O410 Co406 2.004 . S
O410 C415 1.259 . S
Co411 O412 2.061 . S
Co411 O417 2.052 . S
Co411 O419 2.135 . S
O412 Co411 2.061 . S
O412 C415 1.235 . S
C413 O416 1.238 . S
C413 O417 1.241 . S
C414 O407 1.247 . S
C414 O408 1.261 . S
C415 O410 1.259 . S
C415 O412 1.235 . S
O416 Co406 2.021 . S
O416 C413 1.238 . S
O417 Co411 2.052 . S
O417 C413 1.241 . S
O418 Co406 2.137 . S
O418 C409 1.247 . S
O419 Co406 2.244 . S
O419 C409 1.272 . S
O419 Co411 2.135 . S
Co420 O421 2.216 . S
Co420 O422 2.091 . S
Co420 O424 2.004 . S
Co420 O430 2.021 . S
Co420 O432 2.137 . S
Co420 O433 2.244 . S
O421 Co420 2.216 . S
O421 C428 1.247 . S
O422 Co420 2.091 . S
O422 C428 1.261 . S
C423 O432 1.247 . S
C423 O433 1.272 . S
O424 Co420 2.004 . S
O424 C429 1.259 . S
Co425 O426 2.061 . S
Co425 O431 2.052 . S
Co425 O433 2.135 . S
O426 Co425 2.061 . S
O426 C429 1.235 . S
C427 O430 1.238 . S
C427 O431 1.241 . S
C428 O421 1.247 . S
C428 O422 1.261 . S
C429 O424 1.259 . S
C429 O426 1.235 . S
O430 Co420 2.021 . S
O430 C427 1.238 . S
O431 Co425 2.052 . S
O431 C427 1.241 . S
O432 Co420 2.137 . S
O432 C423 1.247 . S
O433 Co420 2.244 . S
O433 C423 1.272 . S
O433 Co425 2.135 . S
Co434 O435 2.216 . S
Co434 O436 2.091 . S
Co434 O438 2.004 . S
Co434 O444 2.021 . S
Co434 O446 2.137 . S
Co434 O447 2.244 . S
O435 Co434 2.216 . S
O435 C442 1.247 . S
O436 Co434 2.091 . S
O436 C442 1.261 . S
C437 O446 1.247 . S
C437 O447 1.272 . S
O438 Co434 2.004 . S
O438 C443 1.259 . S
Co439 O440 2.061 . S
Co439 O445 2.052 . S
Co439 O447 2.135 . S
O440 Co439 2.061 . S
O440 C443 1.235 . S
C441 O444 1.238 . S
C441 O445 1.241 . S
C442 O435 1.247 . S
C442 O436 1.261 . S
C443 O438 1.259 . S
C443 O440 1.235 . S
O444 Co434 2.021 . S
O444 C441 1.238 . S
O445 Co439 2.052 . S
O445 C441 1.241 . S
O446 Co434 2.137 . S
O446 C437 1.247 . S
O447 Co434 2.244 . S
O447 C437 1.272 . S
O447 Co439 2.135 . S
H448 C460 0.930 . S
H449 C462 0.942 . S
H450 C463 0.930 . S
H451 C467 0.959 . S
H452 C467 0.959 . S
H453 C467 0.961 . S
H454 C468 0.960 . S
H455 C468 0.961 . S
H456 C468 0.959 . S
H457 C471 0.929 . S
H458 C472 0.931 . S
H459 C474 0.930 1_556 S
C460 H448 0.930 . S
C460 C461 1.399 . S
C460 C465 1.399 . S
C461 C460 1.399 . S
C461 C462 1.376 . S
C462 H449 0.942 . S
C462 C461 1.376 . S
C462 C463 1.388 1_556 S
C463 H450 0.930 . S
C463 C462 1.388 1_554 S
C463 C464 1.390 . S
C464 C463 1.390 . S
C464 C465 1.394 1_554 S
C464 C470 1.465 1_655 S
C465 C460 1.399 . S
C465 C464 1.394 1_556 S
C465 C466 1.516 1_655 S
C466 C465 1.516 1_455 S
C466 C467 1.502 1_455 S
C466 C468 1.561 . S
C466 C469 1.528 1_556 S
C467 H451 0.959 . S
C467 H452 0.959 . S
C467 H453 0.961 . S
C467 C466 1.502 1_655 S
C468 H454 0.960 . S
C468 H455 0.961 . S
C468 H456 0.959 . S
C468 C466 1.561 . S
C469 C466 1.528 1_554 S
C469 C470 1.395 . S
C469 C474 1.389 . S
C470 C464 1.465 1_455 S
C470 C469 1.395 . S
C470 C471 1.399 . S
C471 H457 0.929 . S
C471 C470 1.399 . S
C471 C472 1.385 . S
C472 H458 0.931 . S
C472 C471 1.385 . S
C472 C473 1.389 . S
C473 C472 1.389 . S
C473 C474 1.387 . S
C474 H459 0.930 1_554 S
C474 C469 1.389 . S
C474 C473 1.387 . S
H475 C487 0.930 . S
H476 C489 0.930 . S
H477 C490 0.930 . S
H478 C494 0.959 . S
H479 C494 0.959 . S
H480 C494 0.961 . S
H481 C495 0.960 . S
H482 C495 0.961 . S
H483 C495 0.959 . S
H484 C498 0.929 . S
H485 C499 0.931 . S
H486 C501 0.930 . S
C487 H475 0.930 . S
C487 C488 1.399 . S
C487 C492 1.399 . S
C488 C487 1.399 . S
C488 C489 1.376 . S
C489 H476 0.930 . S
C489 C488 1.376 . S
C489 C490 1.388 . S
C490 H477 0.930 . S
C490 C489 1.388 . S
C490 C491 1.390 . S
C491 C490 1.390 . S
C491 C492 1.394 . S
C491 C497 1.465 . S
C492 C487 1.399 . S
C492 C491 1.394 . S
C492 C493 1.516 . S
C493 C492 1.516 . S
C493 C494 1.502 . S
C493 C495 1.561 . S
C493 C496 1.526 . S
C494 H478 0.959 . S
C494 H479 0.959 . S
C494 H480 0.961 . S
C494 C493 1.502 . S
C495 H481 0.960 . S
C495 H482 0.961 . S
C495 H483 0.959 . S
C495 C493 1.561 . S
C496 C493 1.526 . S
C496 C497 1.396 . S
C496 C501 1.390 . S
C497 C491 1.465 . S
C497 C496 1.396 . S
C497 C498 1.399 . S
C498 H484 0.929 . S
C498 C497 1.399 . S
C498 C499 1.385 . S
C499 H485 0.931 . S
C499 C498 1.385 . S
C499 C500 1.389 . S
C500 C499 1.389 . S
C500 C501 1.387 . S
C501 H486 0.930 . S
C501 C496 1.390 . S
C501 C500 1.387 . S
H502 C514 0.930 . S
H503 C516 0.930 . S
H504 C517 0.930 . S
H505 C521 0.959 . S
H506 C521 0.959 . S
H507 C521 0.961 . S
H508 C522 0.960 . S
H509 C522 0.961 . S
H510 C522 0.959 . S
H511 C525 0.929 . S
H512 C526 0.931 . S
H513 C528 0.930 . S
C514 H502 0.930 . S
C514 C515 1.399 . S
C514 C519 1.399 . S
C515 C514 1.399 . S
C515 C516 1.376 . S
C516 H503 0.930 . S
C516 C515 1.376 . S
C516 C517 1.388 . S
C517 H504 0.930 . S
C517 C516 1.388 . S
C517 C518 1.390 . S
C518 C517 1.390 . S
C518 C519 1.394 . S
C518 C524 1.465 . S
C519 C514 1.399 . S
C519 C518 1.394 . S
C519 C520 1.516 . S
C520 C519 1.516 . S
C520 C521 1.502 . S
C520 C522 1.561 . S
C520 C523 1.526 . S
C521 H505 0.959 . S
C521 H506 0.959 . S
C521 H507 0.961 . S
C521 C520 1.502 . S
C522 H508 0.960 . S
C522 H509 0.961 . S
C522 H510 0.959 . S
C522 C520 1.561 . S
C523 C520 1.526 . S
C523 C524 1.396 . S
C523 C528 1.390 . S
C524 C518 1.465 . S
C524 C523 1.396 . S
C524 C525 1.399 . S
C525 H511 0.929 . S
C525 C524 1.399 . S
C525 C526 1.385 . S
C526 H512 0.931 . S
C526 C525 1.385 . S
C526 C527 1.389 . S
C527 C526 1.389 . S
C527 C528 1.387 . S
C528 H513 0.930 . S
C528 C523 1.390 . S
C528 C527 1.387 . S
H529 C541 0.930 . S
H530 C543 0.930 . S
H531 C544 0.930 . S
H532 C548 0.959 . S
H533 C548 0.959 . S
H534 C548 0.961 . S
H535 C549 0.960 . S
H536 C549 0.961 . S
H537 C549 0.959 . S
H538 C552 0.929 . S
H539 C553 0.931 . S
H540 C555 0.930 . S
C541 H529 0.930 . S
C541 C542 1.399 . S
C541 C546 1.399 . S
C542 C541 1.399 . S
C542 C543 1.376 . S
C543 H530 0.930 . S
C543 C542 1.376 . S
C543 C544 1.388 . S
C544 H531 0.930 . S
C544 C543 1.388 . S
C544 C545 1.390 . S
C545 C544 1.390 . S
C545 C546 1.394 . S
C545 C551 1.465 . S
C546 C541 1.399 . S
C546 C545 1.394 . S
C546 C547 1.516 . S
C547 C546 1.516 . S
C547 C548 1.502 . S
C547 C549 1.561 . S
C547 C550 1.526 . S
C548 H532 0.959 . S
C548 H533 0.959 . S
C548 H534 0.961 . S
C548 C547 1.502 . S
C549 H535 0.960 . S
C549 H536 0.961 . S
C549 H537 0.959 . S
C549 C547 1.561 . S
C550 C547 1.526 . S
C550 C551 1.396 . S
C550 C555 1.390 . S
C551 C545 1.465 . S
C551 C550 1.396 . S
C551 C552 1.399 . S
C552 H538 0.929 . S
C552 C551 1.399 . S
C552 C553 1.385 . S
C553 H539 0.931 . S
C553 C552 1.385 . S
C553 C554 1.389 . S
C554 C553 1.389 . S
C554 C555 1.387 . S
C555 H540 0.930 . S
C555 C550 1.390 . S
C555 C554 1.387 . S
H556 C568 0.930 . S
H557 C570 0.930 . S
H558 C571 0.930 . S
H559 C575 0.959 . S
H560 C575 0.959 . S
H561 C575 0.961 . S
H562 C576 0.960 . S
H563 C576 0.961 . S
H564 C576 0.959 . S
H565 C579 0.929 . S
H566 C580 0.931 . S
H567 C582 0.930 . S
C568 H556 0.930 . S
C568 C569 1.399 . S
C568 C573 1.399 . S
C569 C568 1.399 . S
C569 C570 1.376 . S
C570 H557 0.930 . S
C570 C569 1.376 . S
C570 C571 1.388 . S
C571 H558 0.930 . S
C571 C570 1.388 . S
C571 C572 1.390 . S
C572 C571 1.390 . S
C572 C573 1.394 . S
C572 C578 1.465 . S
C573 C568 1.399 . S
C573 C572 1.394 . S
C573 C574 1.516 1_655 S
C574 C573 1.516 1_455 S
C574 C575 1.502 . S
C574 C576 1.561 . S
C574 C577 1.526 . S
C575 H559 0.959 . S
C575 H560 0.959 . S
C575 H561 0.961 . S
C575 C574 1.502 . S
C576 H562 0.960 . S
C576 H563 0.961 . S
C576 H564 0.959 . S
C576 C574 1.561 . S
C577 C574 1.526 . S
C577 C578 1.396 1_455 S
C577 C582 1.390 . S
C578 C572 1.465 . S
C578 C577 1.396 1_655 S
C578 C579 1.399 . S
C579 H565 0.929 . S
C579 C578 1.399 . S
C579 C580 1.385 1_655 S
C580 H566 0.931 . S
C580 C579 1.385 1_455 S
C580 C581 1.389 . S
C581 C580 1.389 . S
C581 C582 1.387 . S
C582 H567 0.930 . S
C582 C577 1.390 . S
C582 C581 1.387 . S
H583 C595 0.930 . S
H584 C597 0.930 . S
H585 C598 0.930 . S
H586 C602 0.959 . S
H587 C602 0.959 . S
H588 C602 0.961 . S
H589 C603 0.960 . S
H590 C603 0.961 . S
H591 C603 0.959 . S
H592 C606 0.929 . S
H593 C607 0.931 . S
H594 C609 0.930 . S
C595 H583 0.930 . S
C595 C596 1.399 . S
C595 C600 1.399 . S
C596 C595 1.399 . S
C596 C597 1.376 . S
C597 H584 0.930 . S
C597 C596 1.376 . S
C597 C598 1.388 . S
C598 H585 0.930 . S
C598 C597 1.388 . S
C598 C599 1.390 . S
C599 C598 1.390 . S
C599 C600 1.394 . S
C599 C605 1.465 . S
C600 C595 1.399 . S
C600 C599 1.394 . S
C600 C601 1.516 . S
C601 C600 1.516 . S
C601 C602 1.502 . S
C601 C603 1.561 . S
C601 C604 1.526 . S
C602 H586 0.959 . S
C602 H587 0.959 . S
C602 H588 0.961 . S
C602 C601 1.502 . S
C603 H589 0.960 . S
C603 H590 0.961 . S
C603 H591 0.959 . S
C603 C601 1.561 . S
C604 C601 1.526 . S
C604 C605 1.396 . S
C604 C609 1.390 . S
C605 C599 1.465 . S
C605 C604 1.396 . S
C605 C606 1.399 . S
C606 H592 0.929 . S
C606 C605 1.399 . S
C606 C607 1.385 . S
C607 H593 0.931 . S
C607 C606 1.385 . S
C607 C608 1.389 . S
C608 C607 1.389 . S
C608 C609 1.387 . S
C609 H594 0.930 . S
C609 C604 1.390 . S
C609 C608 1.387 . S
H610 C622 0.930 . S
H611 C624 0.930 1_554 S
H612 C625 0.930 . S
H613 C629 0.959 . S
H614 C629 0.959 . S
H615 C629 0.961 . S
H616 C630 0.960 . S
H617 C630 0.961 . S
H618 C630 0.959 . S
H619 C633 0.929 . S
H620 C634 0.931 . S
H621 C636 0.930 1_556 S
C622 H610 0.930 . S
C622 C623 1.399 . S
C622 C627 1.399 . S
C623 C622 1.399 . S
C623 C624 1.376 . S
C624 H611 0.930 1_556 S
C624 C623 1.376 . S
C624 C625 1.388 1_556 S
C625 H612 0.930 . S
C625 C624 1.388 1_554 S
C625 C626 1.390 . S
C626 C625 1.390 . S
C626 C627 1.394 1_554 S
C626 C632 1.465 . S
C627 C622 1.399 . S
C627 C626 1.394 1_556 S
C627 C628 1.516 . S
C628 C627 1.516 . S
C628 C629 1.502 . S
C628 C630 1.561 . S
C628 C631 1.527 . S
C629 H613 0.959 . S
C629 H614 0.959 . S
C629 H615 0.961 . S
C629 C628 1.502 . S
C630 H616 0.960 . S
C630 H617 0.961 . S
C630 H618 0.959 . S
C630 C628 1.561 . S
C631 C628 1.527 . S
C631 C632 1.395 1_556 S
C631 C636 1.389 1_556 S
C632 C626 1.465 . S
C632 C631 1.395 1_554 S
C632 C633 1.399 . S
C633 H619 0.929 . S
C633 C632 1.399 . S
C633 C634 1.385 . S
C634 H620 0.931 . S
C634 C633 1.385 . S
C634 C635 1.389 . S
C635 C634 1.389 . S
C635 C636 1.387 . S
C636 H621 0.930 1_554 S
C636 C631 1.389 1_554 S
C636 C635 1.387 . S
H637 C649 0.930 . S
H638 C651 0.930 . S
H639 C652 0.930 . S
H640 C656 0.959 . S
H641 C656 0.959 . S
H642 C656 0.961 . S
H643 C657 0.960 . S
H644 C657 0.961 . S
H645 C657 0.959 . S
H646 C660 0.929 . S
H647 C661 0.931 . S
H648 C663 0.930 . S
C649 H637 0.930 . S
C649 C650 1.399 . S
C649 C654 1.399 . S
C650 C649 1.399 . S
C650 C651 1.376 . S
C651 H638 0.930 . S
C651 C650 1.376 . S
C651 C652 1.388 . S
C652 H639 0.930 . S
C652 C651 1.388 . S
C652 C653 1.390 . S
C653 C652 1.390 . S
C653 C654 1.394 . S
C653 C659 1.465 . S
C654 C649 1.399 . S
C654 C653 1.394 . S
C654 C655 1.516 . S
C655 C654 1.516 . S
C655 C656 1.502 . S
C655 C657 1.561 . S
C655 C658 1.526 . S
C656 H640 0.959 . S
C656 H641 0.959 . S
C656 H642 0.961 . S
C656 C655 1.502 . S
C657 H643 0.960 . S
C657 H644 0.961 . S
C657 H645 0.959 . S
C657 C655 1.561 . S
C658 C655 1.526 . S
C658 C659 1.396 . S
C658 C663 1.390 . S
C659 C653 1.465 . S
C659 C658 1.396 . S
C659 C660 1.399 . S
C660 H646 0.929 . S
C660 C659 1.399 . S
C660 C661 1.385 . S
C661 H647 0.931 . S
C661 C660 1.385 . S
C661 C662 1.389 . S
C662 C661 1.389 . S
C662 C663 1.387 . S
C663 H648 0.930 . S
C663 C658 1.390 . S
C663 C662 1.387 . S
H664 C676 0.930 . S
H665 C678 0.930 . S
H666 C679 0.930 . S
H667 C683 0.959 . S
H668 C683 0.959 . S
H669 C683 0.961 . S
H670 C684 0.960 . S
H671 C684 0.961 . S
H672 C684 0.959 . S
H673 C687 0.929 . S
H674 C688 0.931 . S
H675 C690 0.930 . S
C676 H664 0.930 . S
C676 C677 1.399 . S
C676 C681 1.399 . S
C677 C676 1.399 . S
C677 C678 1.376 . S
C678 H665 0.930 . S
C678 C677 1.376 . S
C678 C679 1.388 . S
C679 H666 0.930 . S
C679 C678 1.388 . S
C679 C680 1.390 . S
C680 C679 1.390 . S
C680 C681 1.394 . S
C680 C686 1.465 . S
C681 C676 1.399 . S
C681 C680 1.394 . S
C681 C682 1.516 . S
C682 C681 1.516 . S
C682 C683 1.502 . S
C682 C684 1.561 . S
C682 C685 1.526 . S
C683 H667 0.959 . S
C683 H668 0.959 . S
C683 H669 0.961 . S
C683 C682 1.502 . S
C684 H670 0.960 . S
C684 H671 0.961 . S
C684 H672 0.959 . S
C684 C682 1.561 . S
C685 C682 1.526 . S
C685 C686 1.396 . S
C685 C690 1.390 . S
C686 C680 1.465 . S
C686 C685 1.396 . S
C686 C687 1.399 . S
C687 H673 0.929 . S
C687 C686 1.399 . S
C687 C688 1.385 . S
C688 H674 0.931 . S
C688 C687 1.385 . S
C688 C689 1.389 . S
C689 C688 1.389 . S
C689 C690 1.387 . S
C690 H675 0.930 . S
C690 C685 1.390 . S
C690 C689 1.387 . S
H691 C703 0.930 . S
H692 C705 0.930 . S
H693 C706 0.930 . S
H694 C710 0.959 . S
H695 C710 0.959 . S
H696 C710 0.961 . S
H697 C711 0.960 . S
H698 C711 0.961 . S
H699 C711 0.959 . S
H700 C714 0.929 . S
H701 C715 0.931 . S
H702 C717 0.930 . S
C703 H691 0.930 . S
C703 C704 1.399 . S
C703 C708 1.399 . S
C704 C703 1.399 . S
C704 C705 1.376 . S
C705 H692 0.930 . S
C705 C704 1.376 . S
C705 C706 1.388 . S
C706 H693 0.930 . S
C706 C705 1.388 . S
C706 C707 1.390 . S
C707 C706 1.390 . S
C707 C708 1.394 . S
C707 C713 1.465 . S
C708 C703 1.399 . S
C708 C707 1.394 . S
C708 C709 1.516 . S
C709 C708 1.516 . S
C709 C710 1.502 . S
C709 C711 1.561 . S
C709 C712 1.526 . S
C710 H694 0.959 . S
C710 H695 0.959 . S
C710 H696 0.961 . S
C710 C709 1.502 . S
C711 H697 0.960 . S
C711 H698 0.961 . S
C711 H699 0.959 . S
C711 C709 1.561 . S
C712 C709 1.526 . S
C712 C713 1.396 . S
C712 C717 1.390 . S
C713 C707 1.465 . S
C713 C712 1.396 . S
C713 C714 1.399 . S
C714 H700 0.929 . S
C714 C713 1.399 . S
C714 C715 1.385 . S
C715 H701 0.931 . S
C715 C714 1.385 . S
C715 C716 1.389 . S
C716 C715 1.389 . S
C716 C717 1.387 . S
C717 H702 0.930 . S
C717 C712 1.390 . S
C717 C716 1.387 . S
H718 C730 0.930 . S
H719 C732 0.930 . S
H720 C733 0.930 . S
H721 C737 0.959 . S
H722 C737 0.959 . S
H723 C737 0.961 . S
H724 C738 0.960 . S
H725 C738 0.961 . S
H726 C738 0.959 . S
H727 C741 0.929 . S
H728 C742 0.931 . S
H729 C744 0.930 . S
C730 H718 0.930 . S
C730 C731 1.399 . S
C730 C735 1.399 . S
C731 C730 1.399 . S
C731 C732 1.376 . S
C732 H719 0.930 . S
C732 C731 1.376 . S
C732 C733 1.388 . S
C733 H720 0.930 . S
C733 C732 1.388 . S
C733 C734 1.390 . S
C734 C733 1.390 . S
C734 C735 1.394 . S
C734 C740 1.465 . S
C735 C730 1.399 . S
C735 C734 1.394 . S
C735 C736 1.516 . S
C736 C735 1.516 . S
C736 C737 1.502 . S
C736 C738 1.561 . S
C736 C739 1.526 . S
C737 H721 0.959 . S
C737 H722 0.959 . S
C737 H723 0.961 . S
C737 C736 1.502 . S
C738 H724 0.960 . S
C738 H725 0.961 . S
C738 H726 0.959 . S
C738 C736 1.561 . S
C739 C736 1.526 . S
C739 C740 1.396 . S
C739 C744 1.390 . S
C740 C734 1.465 . S
C740 C739 1.396 . S
C740 C741 1.399 . S
C741 H727 0.929 . S
C741 C740 1.399 . S
C741 C742 1.385 . S
C742 H728 0.931 . S
C742 C741 1.385 . S
C742 C743 1.389 . S
C743 C742 1.389 . S
C743 C744 1.387 . S
C744 H729 0.930 . S
C744 C739 1.390 . S
C744 C743 1.387 . S
H745 C757 0.930 . S
H746 C759 0.930 . S
H747 C760 0.930 . S
H748 C764 0.959 . S
H749 C764 0.959 . S
H750 C764 0.961 . S
H751 C765 0.960 . S
H752 C765 0.961 . S
H753 C765 0.959 . S
H754 C768 0.929 . S
H755 C769 0.931 . S
H756 C771 0.930 . S
C757 H745 0.930 . S
C757 C758 1.399 . S
C757 C762 1.399 . S
C758 C757 1.399 . S
C758 C759 1.376 . S
C759 H746 0.930 . S
C759 C758 1.376 . S
C759 C760 1.388 . S
C760 H747 0.930 . S
C760 C759 1.388 . S
C760 C761 1.390 . S
C761 C760 1.390 . S
C761 C762 1.394 . S
C761 C767 1.465 . S
C762 C757 1.399 . S
C762 C761 1.394 . S
C762 C763 1.516 . S
C763 C762 1.516 . S
C763 C764 1.502 . S
C763 C765 1.561 . S
C763 C766 1.526 . S
C764 H748 0.959 . S
C764 H749 0.959 . S
C764 H750 0.961 . S
C764 C763 1.502 . S
C765 H751 0.960 . S
C765 H752 0.961 . S
C765 H753 0.959 . S
C765 C763 1.561 . S
C766 C763 1.526 . S
C766 C767 1.396 . S
C766 C771 1.390 . S
C767 C761 1.465 . S
C767 C766 1.396 . S
C767 C768 1.399 . S
C768 H754 0.929 . S
C768 C767 1.399 . S
C768 C769 1.385 . S
C769 H755 0.931 . S
C769 C768 1.385 . S
C769 C770 1.389 . S
C770 C769 1.389 . S
C770 C771 1.387 . S
C771 H756 0.930 . S
C771 C766 1.390 . S
C771 C770 1.387 . S
H772 C784 0.930 . S
H773 C786 0.930 . S
H774 C787 0.930 . S
H775 C791 0.959 . S
H776 C791 0.959 . S
H777 C791 0.961 . S
H778 C792 0.960 1_565 S
H779 C792 0.961 . S
H780 C792 0.959 1_565 S
H781 C795 0.929 1_565 S
H782 C796 0.931 . S
H783 C798 0.930 . S
C784 H772 0.930 . S
C784 C785 1.399 . S
C784 C789 1.399 . S
C785 C784 1.399 . S
C785 C786 1.376 . S
C786 H773 0.930 . S
C786 C785 1.376 . S
C786 C787 1.388 . S
C787 H774 0.930 . S
C787 C786 1.388 . S
C787 C788 1.390 . S
C788 C787 1.390 . S
C788 C789 1.394 . S
C788 C794 1.445 1_565 S
C789 C784 1.399 . S
C789 C788 1.394 . S
C789 C790 1.516 1_565 S
C790 C789 1.516 1_545 S
C790 C791 1.502 . S
C790 C792 1.561 . S
C790 C793 1.526 . S
C791 H775 0.959 . S
C791 H776 0.959 . S
C791 H777 0.961 . S
C791 C790 1.502 . S
C792 H778 0.960 1_545 S
C792 H779 0.961 . S
C792 H780 0.959 1_545 S
C792 C790 1.561 . S
C793 C790 1.526 . S
C793 C794 1.419 . S
C793 C798 1.390 . S
C794 C788 1.445 1_545 S
C794 C793 1.419 . S
C794 C795 1.400 . S
C795 H781 0.929 1_545 S
C795 C794 1.400 . S
C795 C796 1.385 . S
C796 H782 0.931 . S
C796 C795 1.385 . S
C796 C797 1.389 . S
C797 C796 1.389 . S
C797 C798 1.387 . S
C798 H783 0.930 . S
C798 C793 1.390 . S
C798 C797 1.387 . S
H799 C811 0.926 . S
H800 C813 0.930 . S
H801 C814 0.930 . S
H802 C818 0.959 . S
H803 C818 0.959 . S
H804 C818 0.961 . S
H805 C819 0.960 . S
H806 C819 0.961 . S
H807 C819 0.959 . S
H808 C822 0.929 . S
H809 C823 0.931 . S
H810 C825 0.930 . S
C811 H799 0.926 . S
C811 C812 1.399 . S
C811 C816 1.403 . S
C812 C811 1.399 . S
C812 C813 1.376 . S
C813 H800 0.930 . S
C813 C812 1.376 . S
C813 C814 1.388 1_565 S
C814 H801 0.930 . S
C814 C813 1.388 1_545 S
C814 C815 1.390 . S
C815 C814 1.390 . S
C815 C816 1.400 1_545 S
C815 C821 1.465 1_455 S
C816 C811 1.403 . S
C816 C815 1.400 1_565 S
C816 C817 1.488 1_456 S
C817 C816 1.488 1_654 S
C817 C818 1.525 . S
C817 C819 1.539 1_655 S
C817 C820 1.542 1_565 S
C818 H802 0.959 . S
C818 H803 0.959 . S
C818 H804 0.961 . S
C818 C817 1.525 . S
C819 H805 0.960 . S
C819 H806 0.961 . S
C819 H807 0.959 . S
C819 C817 1.539 1_455 S
C820 C817 1.542 1_545 S
C820 C821 1.396 1_554 S
C820 C825 1.390 . S
C821 C815 1.465 1_655 S
C821 C820 1.396 1_556 S
C821 C822 1.399 . S
C822 H808 0.929 . S
C822 C821 1.399 . S
C822 C823 1.385 1_556 S
C823 H809 0.931 . S
C823 C822 1.385 1_554 S
C823 C824 1.389 . S
C824 C823 1.389 . S
C824 C825 1.387 . S
C825 H810 0.930 . S
C825 C820 1.390 . S
C825 C824 1.387 . S
H826 C838 0.930 . S
H827 C840 0.930 . S
H828 C841 0.930 . S
H829 C845 0.959 1_556 S
H830 C845 0.959 . S
H831 C845 0.961 . S
H832 C846 0.958 1_545 S
H833 C846 0.964 . S
H834 C846 0.955 1_545 S
H835 C849 0.897 1_546 S
H836 C850 0.931 . S
H837 C852 0.930 . S
C838 H826 0.930 . S
C838 C839 1.399 . S
C838 C843 1.399 . S
C839 C838 1.399 . S
C839 C840 1.376 . S
C840 H827 0.930 . S
C840 C839 1.376 . S
C840 C841 1.388 . S
C841 H828 0.930 . S
C841 C840 1.388 . S
C841 C842 1.390 . S
C842 C841 1.390 . S
C842 C843 1.394 . S
C842 C848 1.465 1_546 S
C843 C838 1.399 . S
C843 C842 1.394 . S
C843 C844 1.516 1_546 S
C844 C843 1.516 1_564 S
C844 C845 1.502 . S
C844 C846 1.563 . S
C844 C847 1.526 . S
C845 H829 0.959 1_554 S
C845 H830 0.959 . S
C845 H831 0.961 . S
C845 C844 1.502 . S
C846 H832 0.958 1_565 S
C846 H833 0.964 . S
C846 H834 0.955 1_565 S
C846 C844 1.563 . S
C847 C844 1.526 . S
C847 C848 1.396 . S
C847 C852 1.390 . S
C848 C842 1.465 1_564 S
C848 C847 1.396 . S
C848 C849 1.403 . S
C849 H835 0.897 1_564 S
C849 C848 1.403 . S
C849 C850 1.418 . S
C850 H836 0.931 . S
C850 C849 1.418 . S
C850 C851 1.389 . S
C851 C850 1.389 . S
C851 C852 1.387 . S
C852 H837 0.930 . S
C852 C847 1.390 . S
C852 C851 1.387 . S
H853 C865 0.930 . S
H854 C867 0.930 . S
H855 C868 0.930 1_655 S
H856 C872 0.959 . S
H857 C872 0.959 . S
H858 C872 0.961 . S
H859 C873 0.960 . S
H860 C873 0.961 . S
H861 C873 0.959 . S
H862 C876 0.929 . S
H863 C877 0.931 . S
H864 C879 0.930 . S
C865 H853 0.930 . S
C865 C866 1.399 . S
C865 C870 1.399 . S
C866 C865 1.399 . S
C866 C867 1.376 . S
C867 H854 0.930 . S
C867 C866 1.376 . S
C867 C868 1.388 . S
C868 H855 0.930 1_455 S
C868 C867 1.388 . S
C868 C869 1.390 . S
C869 C868 1.390 . S
C869 C870 1.394 . S
C869 C875 1.465 1_445 S
C870 C865 1.399 . S
C870 C869 1.394 . S
C870 C871 1.516 1_545 S
C871 C870 1.516 1_565 S
C871 C872 1.502 1_565 S
C871 C873 1.561 . S
C871 C874 1.526 1_455 S
C872 H856 0.959 . S
C872 H857 0.959 . S
C872 H858 0.961 . S
C872 C871 1.502 1_545 S
C873 H859 0.960 . S
C873 H860 0.961 . S
C873 H861 0.959 . S
C873 C871 1.561 . S
C874 C871 1.526 1_655 S
C874 C875 1.396 . S
C874 C879 1.390 . S
C875 C869 1.465 1_665 S
C875 C874 1.396 . S
C875 C876 1.399 . S
C876 H862 0.929 . S
C876 C875 1.399 . S
C876 C877 1.385 . S
C877 H863 0.931 . S
C877 C876 1.385 . S
C877 C878 1.389 . S
C878 C877 1.389 . S
C878 C879 1.387 . S
C879 H864 0.930 . S
C879 C874 1.390 . S
C879 C878 1.387 . S
H880 C892 0.930 . S
H881 C894 0.930 . S
H882 C895 0.930 . S
H883 C899 0.959 . S
H884 C899 0.959 1_455 S
H885 C899 0.961 . S
H886 C900 0.960 . S
H887 C900 0.961 . S
H888 C900 0.959 . S
H889 C903 0.929 . S
H890 C904 0.931 . S
H891 C906 0.930 . S
C892 H880 0.930 . S
C892 C893 1.399 . S
C892 C897 1.399 . S
C893 C892 1.399 . S
C893 C894 1.376 . S
C894 H881 0.930 . S
C894 C893 1.376 . S
C894 C895 1.388 . S
C895 H882 0.930 . S
C895 C894 1.388 . S
C895 C896 1.390 . S
C896 C895 1.390 . S
C896 C897 1.394 . S
C896 C902 1.465 1_655 S
C897 C892 1.399 . S
C897 C896 1.394 . S
C897 C898 1.516 1_655 S
C898 C897 1.516 1_455 S
C898 C899 1.502 1_455 S
C898 C900 1.561 . S
C898 C901 1.526 . S
C899 H883 0.959 . S
C899 H884 0.959 1_655 S
C899 H885 0.961 . S
C899 C898 1.502 1_655 S
C900 H886 0.960 . S
C900 H887 0.961 . S
C900 H888 0.959 . S
C900 C898 1.561 . S
C901 C898 1.526 . S
C901 C902 1.396 . S
C901 C906 1.390 . S
C902 C896 1.465 1_455 S
C902 C901 1.396 . S
C902 C903 1.399 . S
C903 H889 0.929 . S
C903 C902 1.399 . S
C903 C904 1.385 . S
C904 H890 0.931 . S
C904 C903 1.385 . S
C904 C905 1.389 . S
C905 C904 1.389 . S
C905 C906 1.387 . S
C906 H891 0.930 . S
C906 C901 1.390 . S
C906 C905 1.387 . S
H907 C919 0.930 . S
H908 C921 0.930 . S
H909 C922 0.930 . S
H910 C926 0.959 . S
H911 C926 0.959 . S
H912 C926 0.961 . S
H913 C927 0.960 . S
H914 C927 0.961 1_655 S
H915 C927 0.959 . S
H916 C930 0.929 . S
H917 C931 0.931 . S
H918 C933 0.930 . S
C919 H907 0.930 . S
C919 C920 1.399 . S
C919 C924 1.399 . S
C920 C919 1.399 . S
C920 C921 1.376 . S
C921 H908 0.930 . S
C921 C920 1.376 . S
C921 C922 1.388 . S
C922 H909 0.930 . S
C922 C921 1.388 . S
C922 C923 1.390 . S
C923 C922 1.390 . S
C923 C924 1.394 . S
C923 C929 1.465 1_455 S
C924 C919 1.399 . S
C924 C923 1.394 . S
C924 C925 1.516 1_455 S
C925 C924 1.516 1_655 S
C925 C926 1.502 . S
C925 C927 1.561 1_655 S
C925 C928 1.526 . S
C926 H910 0.959 . S
C926 H911 0.959 . S
C926 H912 0.961 . S
C926 C925 1.502 . S
C927 H913 0.960 . S
C927 H914 0.961 1_455 S
C927 H915 0.959 . S
C927 C925 1.561 1_455 S
C928 C925 1.526 . S
C928 C929 1.396 . S
C928 C933 1.390 . S
C929 C923 1.465 1_655 S
C929 C928 1.396 . S
C929 C930 1.399 . S
C930 H916 0.929 . S
C930 C929 1.399 . S
C930 C931 1.385 . S
C931 H917 0.931 . S
C931 C930 1.385 . S
C931 C932 1.389 . S
C932 C931 1.389 . S
C932 C933 1.387 . S
C933 H918 0.930 . S
C933 C928 1.390 . S
C933 C932 1.387 . S
H934 C946 0.930 . S
H935 C948 0.930 . S
H936 C949 0.930 . S
H937 C953 0.959 . S
H938 C953 0.959 . S
H939 C953 0.961 . S
H940 C954 0.960 . S
H941 C954 0.961 . S
H942 C954 0.959 . S
H943 C957 0.929 . S
H944 C958 0.931 . S
H945 C960 0.930 . S
C946 H934 0.930 . S
C946 C947 1.399 . S
C946 C951 1.399 . S
C947 C946 1.399 . S
C947 C948 1.376 . S
C948 H935 0.930 . S
C948 C947 1.376 . S
C948 C949 1.388 . S
C949 H936 0.930 . S
C949 C948 1.388 . S
C949 C950 1.390 . S
C950 C949 1.390 . S
C950 C951 1.394 . S
C950 C956 1.465 . S
C951 C946 1.399 . S
C951 C950 1.394 . S
C951 C952 1.516 . S
C952 C951 1.516 . S
C952 C953 1.502 . S
C952 C954 1.561 . S
C952 C955 1.526 . S
C953 H937 0.959 . S
C953 H938 0.959 . S
C953 H939 0.961 . S
C953 C952 1.502 . S
C954 H940 0.960 . S
C954 H941 0.961 . S
C954 H942 0.959 . S
C954 C952 1.561 . S
C955 C952 1.526 . S
C955 C956 1.396 . S
C955 C960 1.390 . S
C956 C950 1.465 . S
C956 C955 1.396 . S
C956 C957 1.399 . S
C957 H943 0.929 . S
C957 C956 1.399 . S
C957 C958 1.385 . S
C958 H944 0.931 . S
C958 C957 1.385 . S
C958 C959 1.389 . S
C959 C958 1.389 . S
C959 C960 1.387 . S
C960 H945 0.930 . S
C960 C955 1.390 . S
C960 C959 1.387 . S
H961 C973 0.930 . S
H962 C975 0.930 . S
H963 C976 0.930 . S
H964 C980 0.959 . S
H965 C980 0.959 . S
H966 C980 0.961 . S
H967 C981 0.960 . S
H968 C981 0.961 . S
H969 C981 0.959 . S
H970 C984 0.929 . S
H971 C985 0.931 . S
H972 C987 0.930 . S
C973 H961 0.930 . S
C973 C974 1.399 . S
C973 C978 1.399 . S
C974 C973 1.399 . S
C974 C975 1.376 . S
C975 H962 0.930 . S
C975 C974 1.376 . S
C975 C976 1.388 . S
C976 H963 0.930 . S
C976 C975 1.388 . S
C976 C977 1.390 . S
C977 C976 1.390 . S
C977 C978 1.394 . S
C977 C983 1.465 . S
C978 C973 1.399 . S
C978 C977 1.394 . S
C978 C979 1.516 . S
C979 C978 1.516 . S
C979 C980 1.502 . S
C979 C981 1.561 . S
C979 C982 1.526 . S
C980 H964 0.959 . S
C980 H965 0.959 . S
C980 H966 0.961 . S
C980 C979 1.502 . S
C981 H967 0.960 . S
C981 H968 0.961 . S
C981 H969 0.959 . S
C981 C979 1.561 . S
C982 C979 1.526 . S
C982 C983 1.396 . S
C982 C987 1.390 . S
C983 C977 1.465 . S
C983 C982 1.396 . S
C983 C984 1.399 . S
C984 H970 0.929 . S
C984 C983 1.399 . S
C984 C985 1.385 . S
C985 H971 0.931 . S
C985 C984 1.385 . S
C985 C986 1.389 . S
C986 C985 1.389 . S
C986 C987 1.387 . S
C987 H972 0.930 . S
C987 C982 1.390 . S
C987 C986 1.387 . S
H988 C1000 0.930 . S
H989 C1002 0.930 . S
H990 C1003 0.930 . S
H991 C1007 0.959 . S
H992 C1007 0.959 . S
H993 C1007 0.961 . S
H994 C1008 0.960 . S
H995 C1008 0.961 . S
H996 C1008 0.959 . S
H997 C1011 0.929 . S
H998 C1012 0.931 . S
H999 C1014 0.930 . S
C1000 H988 0.930 . S
C1000 C1001 1.399 . S
C1000 C1005 1.399 . S
C1001 C1000 1.399 . S
C1001 C1002 1.376 . S
C1002 H989 0.930 . S
C1002 C1001 1.376 . S
C1002 C1003 1.388 . S
C1003 H990 0.930 . S
C1003 C1002 1.388 . S
C1003 C1004 1.390 . S
C1004 C1003 1.390 . S
C1004 C1005 1.394 . S
C1004 C1010 1.465 1_655 S
C1005 C1000 1.399 . S
C1005 C1004 1.394 . S
C1005 C1006 1.516 1_655 S
C1006 C1005 1.516 1_455 S
C1006 C1007 1.502 . S
C1006 C1008 1.561 . S
C1006 C1009 1.526 . S
C1007 H991 0.959 . S
C1007 H992 0.959 . S
C1007 H993 0.961 . S
C1007 C1006 1.502 . S
C1008 H994 0.960 . S
C1008 H995 0.961 . S
C1008 H996 0.959 . S
C1008 C1006 1.561 . S
C1009 C1006 1.526 . S
C1009 C1010 1.396 . S
C1009 C1014 1.390 . S
C1010 C1004 1.465 1_455 S
C1010 C1009 1.396 . S
C1010 C1011 1.399 1_455 S
C1011 H997 0.929 . S
C1011 C1010 1.399 1_655 S
C1011 C1012 1.385 1_655 S
C1012 H998 0.931 . S
C1012 C1011 1.385 1_455 S
C1012 C1013 1.389 . S
C1013 C1012 1.389 . S
C1013 C1014 1.387 . S
C1014 H999 0.930 . S
C1014 C1009 1.390 . S
C1014 C1013 1.387 . S
H1015 C1027 0.930 . S
H1016 C1029 0.930 . S
H1017 C1030 0.930 . S
H1018 C1034 0.959 . S
H1019 C1034 0.959 . S
H1020 C1034 0.961 . S
H1021 C1035 0.960 . S
H1022 C1035 0.961 . S
H1023 C1035 0.959 . S
H1024 C1038 0.929 . S
H1025 C1039 0.931 . S
H1026 C1041 0.930 . S
C1027 H1015 0.930 . S
C1027 C1028 1.399 . S
C1027 C1032 1.399 . S
C1028 C1027 1.399 . S
C1028 C1029 1.376 . S
C1029 H1016 0.930 . S
C1029 C1028 1.376 . S
C1029 C1030 1.388 . S
C1030 H1017 0.930 . S
C1030 C1029 1.388 . S
C1030 C1031 1.390 . S
C1031 C1030 1.390 . S
C1031 C1032 1.394 . S
C1031 C1037 1.465 . S
C1032 C1027 1.399 . S
C1032 C1031 1.394 . S
C1032 C1033 1.516 . S
C1033 C1032 1.516 . S
C1033 C1034 1.502 . S
C1033 C1035 1.561 . S
C1033 C1036 1.526 . S
C1034 H1018 0.959 . S
C1034 H1019 0.959 . S
C1034 H1020 0.961 . S
C1034 C1033 1.502 . S
C1035 H1021 0.960 . S
C1035 H1022 0.961 . S
C1035 H1023 0.959 . S
C1035 C1033 1.561 . S
C1036 C1033 1.526 . S
C1036 C1037 1.396 . S
C1036 C1041 1.390 . S
C1037 C1031 1.465 . S
C1037 C1036 1.396 . S
C1037 C1038 1.399 . S
C1038 H1024 0.929 . S
C1038 C1037 1.399 . S
C1038 C1039 1.385 . S
C1039 H1025 0.931 . S
C1039 C1038 1.385 . S
C1039 C1040 1.389 . S
C1040 C1039 1.389 . S
C1040 C1041 1.387 . S
C1041 H1026 0.930 . S
C1041 C1036 1.390 . S
C1041 C1040 1.387 . S
H1042 C1054 0.930 . S
H1043 C1056 0.930 . S
H1044 C1057 0.930 . S
H1045 C1061 0.959 . S
H1046 C1061 0.959 . S
H1047 C1061 0.961 . S
H1048 C1062 0.960 . S
H1049 C1062 0.961 . S
H1050 C1062 0.959 . S
H1051 C1065 0.929 . S
H1052 C1066 0.931 . S
H1053 C1068 0.930 . S
C1054 H1042 0.930 . S
C1054 C1055 1.399 . S
C1054 C1059 1.399 . S
C1055 C1054 1.399 . S
C1055 C1056 1.376 . S
C1056 H1043 0.930 . S
C1056 C1055 1.376 . S
C1056 C1057 1.388 . S
C1057 H1044 0.930 . S
C1057 C1056 1.388 . S
C1057 C1058 1.390 . S
C1058 C1057 1.390 . S
C1058 C1059 1.394 . S
C1058 C1064 1.465 . S
C1059 C1054 1.399 . S
C1059 C1058 1.394 . S
C1059 C1060 1.516 . S
C1060 C1059 1.516 . S
C1060 C1061 1.502 . S
C1060 C1062 1.561 . S
C1060 C1063 1.526 . S
C1061 H1045 0.959 . S
C1061 H1046 0.959 . S
C1061 H1047 0.961 . S
C1061 C1060 1.502 . S
C1062 H1048 0.960 . S
C1062 H1049 0.961 . S
C1062 H1050 0.959 . S
C1062 C1060 1.561 . S
C1063 C1060 1.526 . S
C1063 C1064 1.396 . S
C1063 C1068 1.390 . S
C1064 C1058 1.465 . S
C1064 C1063 1.396 . S
C1064 C1065 1.399 . S
C1065 H1051 0.929 . S
C1065 C1064 1.399 . S
C1065 C1066 1.385 . S
C1066 H1052 0.931 . S
C1066 C1065 1.385 . S
C1066 C1067 1.389 . S
C1067 C1066 1.389 . S
C1067 C1068 1.387 . S
C1068 H1053 0.930 . S
C1068 C1063 1.390 . S
C1068 C1067 1.387 . S
H1069 C1081 0.930 . S
H1070 C1083 0.930 . S
H1071 C1084 0.930 . S
H1072 C1088 0.959 . S
H1073 C1088 0.959 1_655 S
H1074 C1088 0.961 . S
H1075 C1089 0.960 . S
H1076 C1089 0.961 . S
H1077 C1089 0.959 . S
H1078 C1092 0.929 . S
H1079 C1093 0.931 . S
H1080 C1095 0.930 . S
C1081 H1069 0.930 . S
C1081 C1082 1.399 . S
C1081 C1086 1.399 . S
C1082 C1081 1.399 . S
C1082 C1083 1.376 . S
C1083 H1070 0.930 . S
C1083 C1082 1.376 . S
C1083 C1084 1.388 . S
C1084 H1071 0.930 . S
C1084 C1083 1.388 . S
C1084 C1085 1.390 . S
C1085 C1084 1.390 . S
C1085 C1086 1.394 . S
C1085 C1091 1.465 1_455 S
C1086 C1081 1.399 . S
C1086 C1085 1.394 . S
C1086 C1087 1.516 1_455 S
C1087 C1086 1.516 1_655 S
C1087 C1088 1.502 1_655 S
C1087 C1089 1.561 . S
C1087 C1090 1.526 . S
C1088 H1072 0.959 . S
C1088 H1073 0.959 1_455 S
C1088 H1074 0.961 . S
C1088 C1087 1.502 1_455 S
C1089 H1075 0.960 . S
C1089 H1076 0.961 . S
C1089 H1077 0.959 . S
C1089 C1087 1.561 . S
C1090 C1087 1.526 . S
C1090 C1091 1.396 . S
C1090 C1095 1.390 . S
C1091 C1085 1.465 1_655 S
C1091 C1090 1.396 . S
C1091 C1092 1.399 . S
C1092 H1078 0.929 . S
C1092 C1091 1.399 . S
C1092 C1093 1.385 . S
C1093 H1079 0.931 . S
C1093 C1092 1.385 . S
C1093 C1094 1.389 . S
C1094 C1093 1.389 . S
C1094 C1095 1.387 . S
C1095 H1080 0.930 . S
C1095 C1090 1.390 . S
C1095 C1094 1.387 . S
H1096 C1108 0.930 . S
H1097 C1110 0.930 . S
H1098 C1111 0.930 . S
H1099 C1115 0.959 . S
H1100 C1115 0.959 . S
H1101 C1115 0.961 . S
H1102 C1116 0.960 1_655 S
H1103 C1116 0.961 . S
H1104 C1116 0.959 1_655 S
H1105 C1119 0.929 . S
H1106 C1120 0.931 . S
H1107 C1122 0.930 . S
C1108 H1096 0.930 . S
C1108 C1109 1.399 . S
C1108 C1113 1.399 . S
C1109 C1108 1.399 . S
C1109 C1110 1.376 . S
C1110 H1097 0.930 . S
C1110 C1109 1.376 . S
C1110 C1111 1.388 . S
C1111 H1098 0.930 . S
C1111 C1110 1.388 . S
C1111 C1112 1.390 . S
C1112 C1111 1.390 . S
C1112 C1113 1.394 . S
C1112 C1118 1.465 . S
C1113 C1108 1.399 . S
C1113 C1112 1.394 . S
C1113 C1114 1.516 1_655 S
C1114 C1113 1.516 1_455 S
C1114 C1115 1.502 . S
C1114 C1116 1.561 . S
C1114 C1117 1.526 . S
C1115 H1099 0.959 . S
C1115 H1100 0.959 . S
C1115 H1101 0.961 . S
C1115 C1114 1.502 . S
C1116 H1102 0.960 1_455 S
C1116 H1103 0.961 . S
C1116 H1104 0.959 1_455 S
C1116 C1114 1.561 . S
C1117 C1114 1.526 . S
C1117 C1118 1.396 1_455 S
C1117 C1122 1.390 . S
C1118 C1112 1.465 . S
C1118 C1117 1.396 1_655 S
C1118 C1119 1.399 . S
C1119 H1105 0.929 . S
C1119 C1118 1.399 . S
C1119 C1120 1.385 1_655 S
C1120 H1106 0.931 . S
C1120 C1119 1.385 1_455 S
C1120 C1121 1.389 . S
C1121 C1120 1.389 . S
C1121 C1122 1.387 . S
C1122 H1107 0.930 . S
C1122 C1117 1.390 . S
C1122 C1121 1.387 . S
H1123 C1135 0.930 . S
H1124 C1137 0.930 . S
H1125 C1138 0.930 . S
H1126 C1142 0.959 . S
H1127 C1142 0.986 . S
H1128 C1142 0.961 . S
H1129 C1143 0.960 1_655 S
H1130 C1143 0.961 . S
H1131 C1143 0.959 . S
H1132 C1146 0.929 . S
H1133 C1147 0.931 . S
H1134 C1149 0.930 . S
C1135 H1123 0.930 . S
C1135 C1136 1.399 . S
C1135 C1140 1.399 . S
C1136 C1135 1.399 . S
C1136 C1137 1.376 . S
C1137 H1124 0.930 . S
C1137 C1136 1.376 . S
C1137 C1138 1.388 . S
C1138 H1125 0.930 . S
C1138 C1137 1.388 . S
C1138 C1139 1.390 . S
C1139 C1138 1.390 . S
C1139 C1140 1.394 . S
C1139 C1145 1.465 1_655 S
C1140 C1135 1.399 . S
C1140 C1139 1.394 . S
C1140 C1141 1.516 . S
C1141 C1140 1.516 . S
C1141 C1142 1.502 . S
C1141 C1143 1.561 1_655 S
C1141 C1144 1.526 1_655 S
C1142 H1126 0.959 . S
C1142 H1127 0.986 . S
C1142 H1128 0.961 . S
C1142 C1141 1.502 . S
C1143 H1129 0.960 1_455 S
C1143 H1130 0.961 . S
C1143 H1131 0.959 . S
C1143 C1141 1.561 1_455 S
C1144 C1141 1.526 1_455 S
C1144 C1145 1.396 . S
C1144 C1149 1.390 . S
C1145 C1139 1.465 1_455 S
C1145 C1144 1.396 . S
C1145 C1146 1.399 . S
C1146 H1132 0.929 . S
C1146 C1145 1.399 . S
C1146 C1147 1.385 . S
C1147 H1133 0.931 . S
C1147 C1146 1.385 . S
C1147 C1148 1.389 . S
C1148 C1147 1.389 . S
C1148 C1149 1.387 . S
C1149 H1134 0.930 . S
C1149 C1144 1.390 . S
C1149 C1148 1.387 . S
H1150 C1162 0.930 . S
H1151 C1164 0.930 . S
H1152 C1165 0.930 . S
H1153 C1169 0.959 . S
H1154 C1169 0.959 . S
H1155 C1169 0.961 . S
H1156 C1170 0.960 . S
H1157 C1170 0.961 . S
H1158 C1170 0.959 . S
H1159 C1173 0.929 . S
H1160 C1174 0.931 . S
H1161 C1176 0.930 . S
C1162 H1150 0.930 . S
C1162 C1163 1.399 . S
C1162 C1167 1.399 . S
C1163 C1162 1.399 . S
C1163 C1164 1.376 . S
C1164 H1151 0.930 . S
C1164 C1163 1.376 . S
C1164 C1165 1.388 . S
C1165 H1152 0.930 . S
C1165 C1164 1.388 . S
C1165 C1166 1.390 . S
C1166 C1165 1.390 . S
C1166 C1167 1.394 . S
C1166 C1172 1.465 . S
C1167 C1162 1.399 . S
C1167 C1166 1.394 . S
C1167 C1168 1.516 . S
C1168 C1167 1.516 . S
C1168 C1169 1.502 . S
C1168 C1170 1.561 . S
C1168 C1171 1.526 . S
C1169 H1153 0.959 . S
C1169 H1154 0.959 . S
C1169 H1155 0.961 . S
C1169 C1168 1.502 . S
C1170 H1156 0.960 . S
C1170 H1157 0.961 . S
C1170 H1158 0.959 . S
C1170 C1168 1.561 . S
C1171 C1168 1.526 . S
C1171 C1172 1.396 . S
C1171 C1176 1.390 . S
C1172 C1166 1.465 . S
C1172 C1171 1.396 . S
C1172 C1173 1.399 . S
C1173 H1159 0.929 . S
C1173 C1172 1.399 . S
C1173 C1174 1.385 . S
C1174 H1160 0.931 . S
C1174 C1173 1.385 . S
C1174 C1175 1.389 . S
C1175 C1174 1.389 . S
C1175 C1176 1.387 . S
C1176 H1161 0.930 . S
C1176 C1171 1.390 . S
C1176 C1175 1.387 . S
H1177 C1189 0.930 . S
H1178 C1191 0.930 . S
H1179 C1192 0.930 . S
H1180 C1196 0.959 . S
H1181 C1196 0.959 . S
H1182 C1196 0.961 . S
H1183 C1197 0.960 . S
H1184 C1197 0.961 . S
H1185 C1197 0.959 . S
H1186 C1200 0.929 . S
H1187 C1201 0.931 . S
H1188 C1203 0.930 . S
C1189 H1177 0.930 . S
C1189 C1190 1.399 . S
C1189 C1194 1.399 . S
C1190 C1189 1.399 . S
C1190 C1191 1.376 . S
C1191 H1178 0.930 . S
C1191 C1190 1.376 . S
C1191 C1192 1.388 . S
C1192 H1179 0.930 . S
C1192 C1191 1.388 . S
C1192 C1193 1.390 . S
C1193 C1192 1.390 . S
C1193 C1194 1.394 . S
C1193 C1199 1.465 . S
C1194 C1189 1.399 . S
C1194 C1193 1.394 . S
C1194 C1195 1.516 . S
C1195 C1194 1.516 . S
C1195 C1196 1.502 . S
C1195 C1197 1.561 . S
C1195 C1198 1.526 . S
C1196 H1180 0.959 . S
C1196 H1181 0.959 . S
C1196 H1182 0.961 . S
C1196 C1195 1.502 . S
C1197 H1183 0.960 . S
C1197 H1184 0.961 . S
C1197 H1185 0.959 . S
C1197 C1195 1.561 . S
C1198 C1195 1.526 . S
C1198 C1199 1.396 . S
C1198 C1203 1.390 . S
C1199 C1193 1.465 . S
C1199 C1198 1.396 . S
C1199 C1200 1.399 . S
C1200 H1186 0.929 . S
C1200 C1199 1.399 . S
C1200 C1201 1.385 . S
C1201 H1187 0.931 . S
C1201 C1200 1.385 . S
C1201 C1202 1.389 . S
C1202 C1201 1.389 . S
C1202 C1203 1.387 . S
C1203 H1188 0.930 . S
C1203 C1198 1.390 . S
C1203 C1202 1.387 . S
H1204 C1216 0.930 . S
H1205 C1218 0.930 . S
H1206 C1219 0.930 . S
H1207 C1223 0.959 . S
H1208 C1223 0.959 . S
H1209 C1223 0.961 . S
H1210 C1224 0.960 . S
H1211 C1224 0.961 . S
H1212 C1224 0.959 1_655 S
H1213 C1227 0.929 . S
H1214 C1228 0.931 . S
H1215 C1230 0.930 . S
C1216 H1204 0.930 . S
C1216 C1217 1.399 . S
C1216 C1221 1.399 . S
C1217 C1216 1.399 . S
C1217 C1218 1.376 . S
C1218 H1205 0.930 . S
C1218 C1217 1.376 . S
C1218 C1219 1.388 . S
C1219 H1206 0.930 . S
C1219 C1218 1.388 . S
C1219 C1220 1.390 . S
C1220 C1219 1.390 . S
C1220 C1221 1.394 . S
C1220 C1226 1.465 . S
C1221 C1216 1.399 . S
C1221 C1220 1.394 . S
C1221 C1222 1.516 1_655 S
C1222 C1221 1.516 1_455 S
C1222 C1223 1.502 . S
C1222 C1224 1.561 . S
C1222 C1225 1.526 . S
C1223 H1207 0.959 . S
C1223 H1208 0.959 . S
C1223 H1209 0.961 . S
C1223 C1222 1.502 . S
C1224 H1210 0.960 . S
C1224 H1211 0.961 . S
C1224 H1212 0.959 1_455 S
C1224 C1222 1.561 . S
C1225 C1222 1.526 . S
C1225 C1226 1.396 1_455 S
C1225 C1230 1.390 . S
C1226 C1220 1.465 . S
C1226 C1225 1.396 1_655 S
C1226 C1227 1.399 . S
C1227 H1213 0.929 . S
C1227 C1226 1.399 . S
C1227 C1228 1.385 1_655 S
C1228 H1214 0.931 . S
C1228 C1227 1.385 1_455 S
C1228 C1229 1.389 . S
C1229 C1228 1.389 . S
C1229 C1230 1.387 . S
C1230 H1215 0.930 . S
C1230 C1225 1.390 . S
C1230 C1229 1.387 . S
H1231 C1243 0.930 . S
H1232 C1245 0.930 . S
H1233 C1246 0.930 . S
H1234 C1250 0.959 . S
H1235 C1250 0.959 . S
H1236 C1250 0.961 . S
H1237 C1251 0.960 . S
H1238 C1251 0.961 . S
H1239 C1251 0.959 . S
H1240 C1254 0.929 . S
H1241 C1255 0.931 . S
H1242 C1257 0.930 . S
C1243 H1231 0.930 . S
C1243 C1244 1.399 . S
C1243 C1248 1.399 . S
C1244 C1243 1.399 . S
C1244 C1245 1.376 . S
C1245 H1232 0.930 . S
C1245 C1244 1.376 . S
C1245 C1246 1.388 . S
C1246 H1233 0.930 . S
C1246 C1245 1.388 . S
C1246 C1247 1.390 . S
C1247 C1246 1.390 . S
C1247 C1248 1.394 . S
C1247 C1253 1.465 . S
C1248 C1243 1.399 . S
C1248 C1247 1.394 . S
C1248 C1249 1.516 . S
C1249 C1248 1.516 . S
C1249 C1250 1.502 . S
C1249 C1251 1.561 . S
C1249 C1252 1.526 . S
C1250 H1234 0.959 . S
C1250 H1235 0.959 . S
C1250 H1236 0.961 . S
C1250 C1249 1.502 . S
C1251 H1237 0.960 . S
C1251 H1238 0.961 . S
C1251 H1239 0.959 . S
C1251 C1249 1.561 . S
C1252 C1249 1.526 . S
C1252 C1253 1.396 . S
C1252 C1257 1.390 . S
C1253 C1247 1.465 . S
C1253 C1252 1.396 . S
C1253 C1254 1.399 . S
C1254 H1240 0.929 . S
C1254 C1253 1.399 . S
C1254 C1255 1.385 . S
C1255 H1241 0.931 . S
C1255 C1254 1.385 . S
C1255 C1256 1.389 . S
C1256 C1255 1.389 . S
C1256 C1257 1.387 . S
C1257 H1242 0.930 . S
C1257 C1252 1.390 . S
C1257 C1256 1.387 . S
H1258 C1270 0.930 . S
H1259 C1272 0.930 . S
H1260 C1273 0.930 . S
H1261 C1277 0.959 . S
H1262 C1277 0.959 . S
H1263 C1277 0.961 . S
H1264 C1278 0.960 . S
H1265 C1278 0.961 . S
H1266 C1278 0.959 . S
H1267 C1281 0.929 . S
H1268 C1282 0.931 . S
H1269 C1284 0.930 . S
C1270 H1258 0.930 . S
C1270 C1271 1.399 . S
C1270 C1275 1.399 . S
C1271 C1270 1.399 . S
C1271 C1272 1.376 . S
C1272 H1259 0.930 . S
C1272 C1271 1.376 . S
C1272 C1273 1.388 . S
C1273 H1260 0.930 . S
C1273 C1272 1.388 . S
C1273 C1274 1.390 . S
C1274 C1273 1.390 . S
C1274 C1275 1.394 . S
C1274 C1280 1.465 . S
C1275 C1270 1.399 . S
C1275 C1274 1.394 . S
C1275 C1276 1.516 . S
C1276 C1275 1.516 . S
C1276 C1277 1.502 . S
C1276 C1278 1.561 . S
C1276 C1279 1.526 . S
C1277 H1261 0.959 . S
C1277 H1262 0.959 . S
C1277 H1263 0.961 . S
C1277 C1276 1.502 . S
C1278 H1264 0.960 . S
C1278 H1265 0.961 . S
C1278 H1266 0.959 . S
C1278 C1276 1.561 . S
C1279 C1276 1.526 . S
C1279 C1280 1.396 . S
C1279 C1284 1.390 . S
C1280 C1274 1.465 . S
C1280 C1279 1.396 . S
C1280 C1281 1.399 . S
C1281 H1267 0.929 . S
C1281 C1280 1.399 . S
C1281 C1282 1.385 . S
C1282 H1268 0.931 . S
C1282 C1281 1.385 . S
C1282 C1283 1.389 . S
C1283 C1282 1.389 . S
C1283 C1284 1.387 . S
C1284 H1269 0.930 . S
C1284 C1279 1.390 . S
C1284 C1283 1.387 . S
H1285 C1297 0.930 . S
H1286 C1299 0.930 . S
H1287 C1300 0.930 . S
H1288 C1304 0.959 . S
H1289 C1304 0.959 . S
H1290 C1304 0.961 . S
H1291 C1305 0.960 . S
H1292 C1305 0.961 1_455 S
H1293 C1305 0.959 . S
H1294 C1308 0.929 . S
H1295 C1309 0.931 . S
H1296 C1311 0.930 . S
C1297 H1285 0.930 . S
C1297 C1298 1.399 . S
C1297 C1302 1.399 . S
C1298 C1297 1.399 . S
C1298 C1299 1.376 . S
C1299 H1286 0.930 . S
C1299 C1298 1.376 . S
C1299 C1300 1.388 . S
C1300 H1287 0.930 . S
C1300 C1299 1.388 . S
C1300 C1301 1.390 . S
C1301 C1300 1.390 . S
C1301 C1302 1.394 . S
C1301 C1307 1.465 1_655 S
C1302 C1297 1.399 . S
C1302 C1301 1.394 . S
C1302 C1303 1.516 1_655 S
C1303 C1302 1.516 1_455 S
C1303 C1304 1.502 . S
C1303 C1305 1.561 1_455 S
C1303 C1306 1.526 . S
C1304 H1288 0.959 . S
C1304 H1289 0.959 . S
C1304 H1290 0.961 . S
C1304 C1303 1.502 . S
C1305 H1291 0.960 . S
C1305 H1292 0.961 1_655 S
C1305 H1293 0.959 . S
C1305 C1303 1.561 1_655 S
C1306 C1303 1.526 . S
C1306 C1307 1.396 . S
C1306 C1311 1.390 . S
C1307 C1301 1.465 1_455 S
C1307 C1306 1.396 . S
C1307 C1308 1.399 . S
C1308 H1294 0.929 . S
C1308 C1307 1.399 . S
C1308 C1309 1.385 . S
C1309 H1295 0.931 . S
C1309 C1308 1.385 . S
C1309 C1310 1.389 . S
C1310 C1309 1.389 . S
C1310 C1311 1.387 . S
C1311 H1296 0.930 . S
C1311 C1306 1.390 . S
C1311 C1310 1.387 . S
H1312 C1324 0.930 . S
H1313 C1326 0.930 . S
H1314 C1327 0.930 . S
H1315 C1331 0.959 . S
H1316 C1331 0.959 . S
H1317 C1331 0.961 . S
H1318 C1332 0.936 1_556 S
H1319 C1332 0.966 . S
H1320 C1332 0.997 . S
H1321 C1335 0.929 . S
H1322 C1336 0.931 . S
H1323 C1338 0.930 . S
C1324 H1312 0.930 . S
C1324 C1325 1.399 . S
C1324 C1329 1.399 . S
C1325 C1324 1.399 . S
C1325 C1326 1.376 . S
C1326 H1313 0.930 . S
C1326 C1325 1.376 . S
C1326 C1327 1.388 1_556 S
C1327 H1314 0.930 . S
C1327 C1326 1.388 1_554 S
C1327 C1328 1.393 . S
C1328 C1327 1.393 . S
C1328 C1329 1.358 1_554 S
C1328 C1334 1.495 . S
C1329 C1324 1.399 . S
C1329 C1328 1.358 1_556 S
C1329 C1330 1.516 . S
C1330 C1329 1.516 . S
C1330 C1331 1.502 . S
C1330 C1332 1.543 1_556 S
C1330 C1333 1.526 1_556 S
C1331 H1315 0.959 . S
C1331 H1316 0.959 . S
C1331 H1317 0.961 . S
C1331 C1330 1.502 . S
C1332 H1318 0.936 1_554 S
C1332 H1319 0.966 . S
C1332 H1320 0.997 . S
C1332 C1330 1.543 1_554 S
C1333 C1330 1.526 1_554 S
C1333 C1334 1.396 . S
C1333 C1338 1.390 . S
C1334 C1328 1.495 . S
C1334 C1333 1.396 . S
C1334 C1335 1.399 . S
C1335 H1321 0.929 . S
C1335 C1334 1.399 . S
C1335 C1336 1.385 . S
C1336 H1322 0.931 . S
C1336 C1335 1.385 . S
C1336 C1337 1.389 . S
C1337 C1336 1.389 . S
C1337 C1338 1.387 . S
C1338 H1323 0.930 . S
C1338 C1333 1.390 . S
C1338 C1337 1.387 . S
H1339 C1351 0.930 . S
H1340 C1353 0.930 . S
H1341 C1354 0.930 . S
H1342 C1358 0.959 . S
H1343 C1358 0.959 . S
H1344 C1358 0.961 . S
H1345 C1359 0.960 . S
H1346 C1359 0.961 . S
H1347 C1359 0.959 . S
H1348 C1362 0.927 . S
H1349 C1363 0.931 . S
H1350 C1365 0.930 . S
C1351 H1339 0.930 . S
C1351 C1352 1.399 . S
C1351 C1356 1.399 . S
C1352 C1351 1.399 . S
C1352 C1353 1.376 . S
C1353 H1340 0.930 . S
C1353 C1352 1.376 . S
C1353 C1354 1.388 . S
C1354 H1341 0.930 . S
C1354 C1353 1.388 . S
C1354 C1355 1.390 . S
C1355 C1354 1.390 . S
C1355 C1356 1.394 . S
C1355 C1361 1.465 1_545 S
C1356 C1351 1.399 . S
C1356 C1355 1.394 . S
C1356 C1357 1.516 1_545 S
C1357 C1356 1.516 1_565 S
C1357 C1358 1.502 . S
C1357 C1359 1.561 . S
C1357 C1360 1.526 . S
C1358 H1342 0.959 . S
C1358 H1343 0.959 . S
C1358 H1344 0.961 . S
C1358 C1357 1.502 . S
C1359 H1345 0.960 . S
C1359 H1346 0.961 . S
C1359 H1347 0.959 . S
C1359 C1357 1.561 . S
C1360 C1357 1.526 . S
C1360 C1361 1.396 . S
C1360 C1365 1.390 . S
C1361 C1355 1.465 1_565 S
C1361 C1360 1.396 . S
C1361 C1362 1.399 . S
C1362 H1348 0.927 . S
C1362 C1361 1.399 . S
C1362 C1363 1.385 . S
C1363 H1349 0.931 . S
C1363 C1362 1.385 . S
C1363 C1364 1.389 . S
C1364 C1363 1.389 . S
C1364 C1365 1.387 . S
C1365 H1350 0.930 . S
C1365 C1360 1.390 . S
C1365 C1364 1.387 . S
H1366 C1378 0.930 . S
H1367 C1380 0.930 . S
H1368 C1381 0.930 . S
H1369 C1385 0.959 . S
H1370 C1385 0.959 . S
H1371 C1385 0.961 . S
H1372 C1386 0.960 . S
H1373 C1386 0.961 . S
H1374 C1386 0.959 . S
H1375 C1389 0.929 . S
H1376 C1390 0.931 . S
H1377 C1392 0.930 . S
C1378 H1366 0.930 . S
C1378 C1379 1.399 . S
C1378 C1383 1.399 . S
C1379 C1378 1.399 . S
C1379 C1380 1.376 . S
C1380 H1367 0.930 . S
C1380 C1379 1.376 . S
C1380 C1381 1.388 . S
C1381 H1368 0.930 . S
C1381 C1380 1.388 . S
C1381 C1382 1.390 . S
C1382 C1381 1.390 . S
C1382 C1383 1.394 . S
C1382 C1388 1.465 . S
C1383 C1378 1.399 . S
C1383 C1382 1.394 . S
C1383 C1384 1.516 . S
C1384 C1383 1.516 . S
C1384 C1385 1.502 . S
C1384 C1386 1.561 . S
C1384 C1387 1.526 . S
C1385 H1369 0.959 . S
C1385 H1370 0.959 . S
C1385 H1371 0.961 . S
C1385 C1384 1.502 . S
C1386 H1372 0.960 . S
C1386 H1373 0.961 . S
C1386 H1374 0.959 . S
C1386 C1384 1.561 . S
C1387 C1384 1.526 . S
C1387 C1388 1.396 . S
C1387 C1392 1.390 . S
C1388 C1382 1.465 . S
C1388 C1387 1.396 . S
C1388 C1389 1.399 . S
C1389 H1375 0.929 . S
C1389 C1388 1.399 . S
C1389 C1390 1.385 . S
C1390 H1376 0.931 . S
C1390 C1389 1.385 . S
C1390 C1391 1.389 . S
C1391 C1390 1.389 . S
C1391 C1392 1.387 . S
C1392 H1377 0.930 . S
C1392 C1387 1.390 . S
C1392 C1391 1.387 . S
H1393 C1405 0.930 . S
H1394 C1407 0.930 . S
H1395 C1408 0.930 . S
H1396 C1412 0.959 . S
H1397 C1412 0.959 . S
H1398 C1412 0.961 . S
H1399 C1413 0.960 . S
H1400 C1413 0.961 . S
H1401 C1413 0.959 . S
H1402 C1416 0.957 . S
H1403 C1417 0.931 . S
H1404 C1419 0.930 . S
C1405 H1393 0.930 . S
C1405 C1406 1.399 . S
C1405 C1410 1.399 . S
C1406 C1405 1.399 . S
C1406 C1407 1.376 . S
C1407 H1394 0.930 . S
C1407 C1406 1.376 . S
C1407 C1408 1.388 . S
C1408 H1395 0.930 . S
C1408 C1407 1.388 . S
C1408 C1409 1.390 . S
C1409 C1408 1.390 . S
C1409 C1410 1.394 . S
C1409 C1415 1.465 1_545 S
C1410 C1405 1.399 . S
C1410 C1409 1.394 . S
C1410 C1411 1.516 1_545 S
C1411 C1410 1.516 1_565 S
C1411 C1412 1.502 . S
C1411 C1413 1.561 . S
C1411 C1414 1.526 . S
C1412 H1396 0.959 . S
C1412 H1397 0.959 . S
C1412 H1398 0.961 . S
C1412 C1411 1.502 . S
C1413 H1399 0.960 . S
C1413 H1400 0.961 . S
C1413 H1401 0.959 . S
C1413 C1411 1.561 . S
C1414 C1411 1.526 . S
C1414 C1415 1.396 . S
C1414 C1419 1.390 . S
C1415 C1409 1.465 1_565 S
C1415 C1414 1.396 . S
C1415 C1416 1.399 . S
C1416 H1402 0.957 . S
C1416 C1415 1.399 . S
C1416 C1417 1.385 . S
C1417 H1403 0.931 . S
C1417 C1416 1.385 . S
C1417 C1418 1.389 . S
C1418 C1417 1.389 . S
C1418 C1419 1.387 . S
C1419 H1404 0.930 . S
C1419 C1414 1.390 . S
C1419 C1418 1.387 . S
H1420 C1432 0.930 . S
H1421 C1434 0.930 . S
H1422 C1435 0.930 . S
H1423 C1439 0.959 . S
H1424 C1439 0.959 . S
H1425 C1439 0.961 . S
H1426 C1440 0.960 . S
H1427 C1440 0.961 . S
H1428 C1440 0.959 1_554 S
H1429 C1443 0.929 . S
H1430 C1444 0.931 . S
H1431 C1446 0.930 . S
C1432 H1420 0.930 . S
C1432 C1433 1.399 . S
C1432 C1437 1.399 . S
C1433 C1432 1.399 . S
C1433 C1434 1.376 . S
C1434 H1421 0.930 . S
C1434 C1433 1.376 . S
C1434 C1435 1.388 . S
C1435 H1422 0.930 . S
C1435 C1434 1.388 . S
C1435 C1436 1.390 . S
C1436 C1435 1.390 . S
C1436 C1437 1.394 . S
C1436 C1442 1.465 . S
C1437 C1432 1.399 . S
C1437 C1436 1.394 . S
C1437 C1438 1.516 1_554 S
C1438 C1437 1.516 1_556 S
C1438 C1439 1.502 . S
C1438 C1440 1.561 . S
C1438 C1441 1.526 . S
C1439 H1423 0.959 . S
C1439 H1424 0.959 . S
C1439 H1425 0.961 . S
C1439 C1438 1.502 . S
C1440 H1426 0.960 . S
C1440 H1427 0.961 . S
C1440 H1428 0.959 1_556 S
C1440 C1438 1.561 . S
C1441 C1438 1.526 . S
C1441 C1442 1.396 1_556 S
C1441 C1446 1.390 . S
C1442 C1436 1.465 . S
C1442 C1441 1.396 1_554 S
C1442 C1443 1.399 . S
C1443 H1429 0.929 . S
C1443 C1442 1.399 . S
C1443 C1444 1.385 1_554 S
C1444 H1430 0.931 . S
C1444 C1443 1.385 1_556 S
C1444 C1445 1.389 . S
C1445 C1444 1.389 . S
C1445 C1446 1.387 . S
C1446 H1431 0.930 . S
C1446 C1441 1.390 . S
C1446 C1445 1.387 . S
H1447 C1459 0.930 . S
H1448 C1461 0.930 . S
H1449 C1462 0.930 . S
H1450 C1466 0.959 . S
H1451 C1466 0.959 . S
H1452 C1466 0.961 . S
H1453 C1467 0.960 . S
H1454 C1467 0.961 . S
H1455 C1467 0.959 . S
H1456 C1470 0.929 . S
H1457 C1471 0.931 . S
H1458 C1473 0.930 . S
C1459 H1447 0.930 . S
C1459 C1460 1.399 . S
C1459 C1464 1.399 . S
C1460 C1459 1.399 . S
C1460 C1461 1.376 . S
C1461 H1448 0.930 . S
C1461 C1460 1.376 . S
C1461 C1462 1.388 . S
C1462 H1449 0.930 . S
C1462 C1461 1.388 . S
C1462 C1463 1.390 . S
C1463 C1462 1.390 . S
C1463 C1464 1.394 . S
C1463 C1469 1.465 1_565 S
C1464 C1459 1.399 . S
C1464 C1463 1.394 . S
C1464 C1465 1.516 . S
C1465 C1464 1.516 . S
C1465 C1466 1.502 . S
C1465 C1467 1.561 . S
C1465 C1468 1.526 1_565 S
C1466 H1450 0.959 . S
C1466 H1451 0.959 . S
C1466 H1452 0.961 . S
C1466 C1465 1.502 . S
C1467 H1453 0.960 . S
C1467 H1454 0.961 . S
C1467 H1455 0.959 . S
C1467 C1465 1.561 . S
C1468 C1465 1.526 1_545 S
C1468 C1469 1.396 . S
C1468 C1473 1.390 . S
C1469 C1463 1.465 1_545 S
C1469 C1468 1.396 . S
C1469 C1470 1.399 . S
C1470 H1456 0.929 . S
C1470 C1469 1.399 . S
C1470 C1471 1.385 . S
C1471 H1457 0.931 . S
C1471 C1470 1.385 . S
C1471 C1472 1.389 . S
C1472 C1471 1.389 . S
C1472 C1473 1.387 . S
C1473 H1458 0.930 . S
C1473 C1468 1.390 . S
C1473 C1472 1.387 . S
H1474 C1486 0.930 . S
H1475 C1488 0.930 . S
H1476 C1489 0.930 . S
H1477 C1493 0.959 . S
H1478 C1493 0.959 . S
H1479 C1493 0.961 . S
H1480 C1494 0.960 . S
H1481 C1494 0.961 . S
H1482 C1494 0.959 . S
H1483 C1497 0.929 . S
H1484 C1498 0.931 . S
H1485 C1500 0.930 . S
C1486 H1474 0.930 . S
C1486 C1487 1.399 . S
C1486 C1491 1.399 . S
C1487 C1486 1.399 . S
C1487 C1488 1.376 . S
C1488 H1475 0.930 . S
C1488 C1487 1.376 . S
C1488 C1489 1.388 . S
C1489 H1476 0.930 . S
C1489 C1488 1.388 . S
C1489 C1490 1.390 . S
C1490 C1489 1.390 . S
C1490 C1491 1.394 . S
C1490 C1496 1.465 . S
C1491 C1486 1.399 . S
C1491 C1490 1.394 . S
C1491 C1492 1.516 . S
C1492 C1491 1.516 . S
C1492 C1493 1.502 . S
C1492 C1494 1.561 . S
C1492 C1495 1.526 . S
C1493 H1477 0.959 . S
C1493 H1478 0.959 . S
C1493 H1479 0.961 . S
C1493 C1492 1.502 . S
C1494 H1480 0.960 . S
C1494 H1481 0.961 . S
C1494 H1482 0.959 . S
C1494 C1492 1.561 . S
C1495 C1492 1.526 . S
C1495 C1496 1.396 . S
C1495 C1500 1.390 . S
C1496 C1490 1.465 . S
C1496 C1495 1.396 . S
C1496 C1497 1.399 . S
C1497 H1483 0.929 . S
C1497 C1496 1.399 . S
C1497 C1498 1.385 . S
C1498 H1484 0.931 . S
C1498 C1497 1.385 . S
C1498 C1499 1.389 . S
C1499 C1498 1.389 . S
C1499 C1500 1.387 . S
C1500 H1485 0.930 . S
C1500 C1495 1.390 . S
C1500 C1499 1.387 . S
H1501 C1513 0.930 . S
H1502 C1515 0.930 . S
H1503 C1516 0.930 . S
H1504 C1520 0.959 . S
H1505 C1520 0.959 . S
H1506 C1520 0.961 . S
H1507 C1521 0.960 1_545 S
H1508 C1521 0.961 . S
H1509 C1521 0.959 . S
H1510 C1524 0.929 . S
H1511 C1525 0.931 . S
H1512 C1527 0.930 . S
C1513 H1501 0.930 . S
C1513 C1514 1.399 . S
C1513 C1518 1.399 . S
C1514 C1513 1.399 . S
C1514 C1515 1.376 . S
C1515 H1502 0.930 . S
C1515 C1514 1.376 . S
C1515 C1516 1.388 . S
C1516 H1503 0.930 . S
C1516 C1515 1.388 . S
C1516 C1517 1.390 . S
C1517 C1516 1.390 . S
C1517 C1518 1.394 . S
C1517 C1523 1.465 1_545 S
C1518 C1513 1.399 . S
C1518 C1517 1.394 . S
C1518 C1519 1.516 . S
C1519 C1518 1.516 . S
C1519 C1520 1.502 . S
C1519 C1521 1.561 1_545 S
C1519 C1522 1.526 1_545 S
C1520 H1504 0.959 . S
C1520 H1505 0.959 . S
C1520 H1506 0.961 . S
C1520 C1519 1.502 . S
C1521 H1507 0.960 1_565 S
C1521 H1508 0.961 . S
C1521 H1509 0.959 . S
C1521 C1519 1.561 1_565 S
C1522 C1519 1.526 1_565 S
C1522 C1523 1.396 . S
C1522 C1527 1.390 . S
C1523 C1517 1.465 1_565 S
C1523 C1522 1.396 . S
C1523 C1524 1.399 . S
C1524 H1510 0.929 . S
C1524 C1523 1.399 . S
C1524 C1525 1.385 . S
C1525 H1511 0.931 . S
C1525 C1524 1.385 . S
C1525 C1526 1.389 . S
C1526 C1525 1.389 . S
C1526 C1527 1.387 . S
C1527 H1512 0.930 . S
C1527 C1522 1.390 . S
C1527 C1526 1.387 . S
H1528 C1540 0.930 . S
H1529 C1542 0.930 . S
H1530 C1543 0.930 . S
H1531 C1547 0.959 . S
H1532 C1547 0.959 . S
H1533 C1547 0.961 . S
H1534 C1548 0.960 . S
H1535 C1548 0.961 . S
H1536 C1548 0.959 . S
H1537 C1551 0.929 . S
H1538 C1552 0.931 . S
H1539 C1554 0.930 . S
C1540 H1528 0.930 . S
C1540 C1541 1.399 . S
C1540 C1545 1.399 . S
C1541 C1540 1.399 . S
C1541 C1542 1.376 . S
C1542 H1529 0.930 . S
C1542 C1541 1.376 . S
C1542 C1543 1.388 . S
C1543 H1530 0.930 . S
C1543 C1542 1.388 . S
C1543 C1544 1.390 . S
C1544 C1543 1.390 . S
C1544 C1545 1.394 . S
C1544 C1550 1.465 . S
C1545 C1540 1.399 . S
C1545 C1544 1.394 . S
C1545 C1546 1.516 . S
C1546 C1545 1.516 . S
C1546 C1547 1.502 . S
C1546 C1548 1.561 . S
C1546 C1549 1.526 . S
C1547 H1531 0.959 . S
C1547 H1532 0.959 . S
C1547 H1533 0.961 . S
C1547 C1546 1.502 . S
C1548 H1534 0.960 . S
C1548 H1535 0.961 . S
C1548 H1536 0.959 . S
C1548 C1546 1.561 . S
C1549 C1546 1.526 . S
C1549 C1550 1.396 . S
C1549 C1554 1.390 . S
C1550 C1544 1.465 . S
C1550 C1549 1.396 . S
C1550 C1551 1.399 . S
C1551 H1537 0.929 . S
C1551 C1550 1.399 . S
C1551 C1552 1.385 . S
C1552 H1538 0.931 . S
C1552 C1551 1.385 . S
C1552 C1553 1.389 . S
C1553 C1552 1.389 . S
C1553 C1554 1.387 . S
C1554 H1539 0.930 . S
C1554 C1549 1.390 . S
C1554 C1553 1.387 . S
H1555 C1567 0.930 . S
H1556 C1569 0.930 . S
H1557 C1570 0.930 . S
H1558 C1574 0.959 . S
H1559 C1574 0.959 . S
H1560 C1574 0.961 . S
H1561 C1575 0.960 . S
H1562 C1575 0.961 . S
H1563 C1575 0.959 . S
H1564 C1578 0.929 . S
H1565 C1579 0.931 . S
H1566 C1581 0.930 . S
C1567 H1555 0.930 . S
C1567 C1568 1.399 . S
C1567 C1572 1.399 . S
C1568 C1567 1.399 . S
C1568 C1569 1.376 . S
C1569 H1556 0.930 . S
C1569 C1568 1.376 . S
C1569 C1570 1.388 . S
C1570 H1557 0.930 . S
C1570 C1569 1.388 . S
C1570 C1571 1.390 . S
C1571 C1570 1.390 . S
C1571 C1572 1.394 . S
C1571 C1577 1.465 . S
C1572 C1567 1.399 . S
C1572 C1571 1.394 . S
C1572 C1573 1.516 . S
C1573 C1572 1.516 . S
C1573 C1574 1.502 . S
C1573 C1575 1.561 . S
C1573 C1576 1.526 . S
C1574 H1558 0.959 . S
C1574 H1559 0.959 . S
C1574 H1560 0.961 . S
C1574 C1573 1.502 . S
C1575 H1561 0.960 . S
C1575 H1562 0.961 . S
C1575 H1563 0.959 . S
C1575 C1573 1.561 . S
C1576 C1573 1.526 . S
C1576 C1577 1.396 . S
C1576 C1581 1.390 . S
C1577 C1571 1.465 . S
C1577 C1576 1.396 . S
C1577 C1578 1.399 . S
C1578 H1564 0.929 . S
C1578 C1577 1.399 . S
C1578 C1579 1.385 . S
C1579 H1565 0.931 . S
C1579 C1578 1.385 . S
C1579 C1580 1.389 . S
C1580 C1579 1.389 . S
C1580 C1581 1.387 . S
C1581 H1566 0.930 . S
C1581 C1576 1.390 . S
C1581 C1580 1.387 . S
H1582 C1594 0.930 . S
H1583 C1596 0.930 . S
H1584 C1597 0.930 . S
H1585 C1601 0.959 . S
H1586 C1601 0.959 . S
H1587 C1601 0.961 . S
H1588 C1602 0.960 . S
H1589 C1602 0.961 . S
H1590 C1602 0.959 . S
H1591 C1605 0.929 . S
H1592 C1606 0.931 . S
H1593 C1608 0.930 . S
C1594 H1582 0.930 . S
C1594 C1595 1.399 . S
C1594 C1599 1.399 . S
C1595 C1594 1.399 . S
C1595 C1596 1.376 . S
C1596 H1583 0.930 . S
C1596 C1595 1.376 . S
C1596 C1597 1.388 . S
C1597 H1584 0.930 . S
C1597 C1596 1.388 . S
C1597 C1598 1.390 . S
C1598 C1597 1.390 . S
C1598 C1599 1.394 . S
C1598 C1604 1.465 1_554 S
C1599 C1594 1.399 . S
C1599 C1598 1.394 . S
C1599 C1600 1.530 . S
C1600 C1599 1.530 . S
C1600 C1601 1.478 1_554 S
C1600 C1602 1.587 . S
C1600 C1603 1.513 1_554 S
C1601 H1585 0.959 . S
C1601 H1586 0.959 . S
C1601 H1587 0.961 . S
C1601 C1600 1.478 1_556 S
C1602 H1588 0.960 . S
C1602 H1589 0.961 . S
C1602 H1590 0.959 . S
C1602 C1600 1.587 . S
C1603 C1600 1.513 1_556 S
C1603 C1604 1.396 . S
C1603 C1608 1.390 . S
C1604 C1598 1.465 1_556 S
C1604 C1603 1.396 . S
C1604 C1605 1.399 . S
C1605 H1591 0.929 . S
C1605 C1604 1.399 . S
C1605 C1606 1.385 . S
C1606 H1592 0.931 . S
C1606 C1605 1.385 . S
C1606 C1607 1.389 . S
C1607 C1606 1.389 . S
C1607 C1608 1.387 . S
C1608 H1593 0.930 . S
C1608 C1603 1.390 . S
C1608 C1607 1.387 . S
H1609 C1621 0.930 . S
H1610 C1623 0.930 . S
H1611 C1624 0.930 . S
H1612 C1628 0.959 . S
H1613 C1628 0.959 . S
H1614 C1628 0.961 . S
H1615 C1629 0.960 . S
H1616 C1629 0.961 . S
H1617 C1629 0.959 . S
H1618 C1632 0.929 . S
H1619 C1633 0.931 . S
H1620 C1635 0.930 . S
C1621 H1609 0.930 . S
C1621 C1622 1.399 . S
C1621 C1626 1.399 . S
C1622 C1621 1.399 . S
C1622 C1623 1.376 . S
C1623 H1610 0.930 . S
C1623 C1622 1.376 . S
C1623 C1624 1.388 . S
C1624 H1611 0.930 . S
C1624 C1623 1.388 . S
C1624 C1625 1.390 . S
C1625 C1624 1.390 . S
C1625 C1626 1.394 . S
C1625 C1631 1.465 . S
C1626 C1621 1.399 . S
C1626 C1625 1.394 . S
C1626 C1627 1.516 . S
C1627 C1626 1.516 . S
C1627 C1628 1.502 . S
C1627 C1629 1.561 . S
C1627 C1630 1.526 . S
C1628 H1612 0.959 . S
C1628 H1613 0.959 . S
C1628 H1614 0.961 . S
C1628 C1627 1.502 . S
C1629 H1615 0.960 . S
C1629 H1616 0.961 . S
C1629 H1617 0.959 . S
C1629 C1627 1.561 . S
C1630 C1627 1.526 . S
C1630 C1631 1.396 . S
C1630 C1635 1.390 . S
C1631 C1625 1.465 . S
C1631 C1630 1.396 . S
C1631 C1632 1.399 . S
C1632 H1618 0.929 . S
C1632 C1631 1.399 . S
C1632 C1633 1.385 . S
C1633 H1619 0.931 . S
C1633 C1632 1.385 . S
C1633 C1634 1.389 . S
C1634 C1633 1.389 . S
C1634 C1635 1.387 . S
C1635 H1620 0.930 . S
C1635 C1630 1.390 . S
C1635 C1634 1.387 . S
H1636 C1648 0.930 . S
H1637 C1650 0.930 . S
H1638 C1651 0.930 . S
H1639 C1655 0.959 . S
H1640 C1655 0.959 . S
H1641 C1655 0.961 . S
H1642 C1656 0.960 . S
H1643 C1656 0.961 . S
H1644 C1656 0.959 . S
H1645 C1659 0.929 . S
H1646 C1660 0.931 . S
H1647 C1662 0.930 . S
C1648 H1636 0.930 . S
C1648 C1649 1.399 . S
C1648 C1653 1.399 . S
C1649 C1648 1.399 . S
C1649 C1650 1.376 . S
C1650 H1637 0.930 . S
C1650 C1649 1.376 . S
C1650 C1651 1.388 . S
C1651 H1638 0.930 . S
C1651 C1650 1.388 . S
C1651 C1652 1.390 . S
C1652 C1651 1.390 . S
C1652 C1653 1.394 . S
C1652 C1658 1.465 . S
C1653 C1648 1.399 . S
C1653 C1652 1.394 . S
C1653 C1654 1.516 . S
C1654 C1653 1.516 . S
C1654 C1655 1.502 . S
C1654 C1656 1.561 . S
C1654 C1657 1.526 . S
C1655 H1639 0.959 . S
C1655 H1640 0.959 . S
C1655 H1641 0.961 . S
C1655 C1654 1.502 . S
C1656 H1642 0.960 . S
C1656 H1643 0.961 . S
C1656 H1644 0.959 . S
C1656 C1654 1.561 . S
C1657 C1654 1.526 . S
C1657 C1658 1.396 . S
C1657 C1662 1.390 . S
C1658 C1652 1.465 . S
C1658 C1657 1.396 . S
C1658 C1659 1.399 . S
C1659 H1645 0.929 . S
C1659 C1658 1.399 . S
C1659 C1660 1.385 . S
C1660 H1646 0.931 . S
C1660 C1659 1.385 . S
C1660 C1661 1.389 . S
C1661 C1660 1.389 . S
C1661 C1662 1.387 . S
C1662 H1647 0.930 . S
C1662 C1657 1.390 . S
C1662 C1661 1.387 . S
H1663 C1675 0.930 . S
H1664 C1677 0.930 . S
H1665 C1678 0.930 . S
H1666 C1682 0.959 . S
H1667 C1682 0.959 . S
H1668 C1682 0.961 . S
H1669 C1683 0.960 . S
H1670 C1683 0.961 . S
H1671 C1683 0.959 . S
H1672 C1686 0.929 . S
H1673 C1687 0.931 . S
H1674 C1689 0.930 . S
C1675 H1663 0.930 . S
C1675 C1676 1.399 . S
C1675 C1680 1.399 . S
C1676 C1675 1.399 . S
C1676 C1677 1.376 . S
C1677 H1664 0.930 . S
C1677 C1676 1.376 . S
C1677 C1678 1.388 . S
C1678 H1665 0.930 . S
C1678 C1677 1.388 . S
C1678 C1679 1.390 . S
C1679 C1678 1.390 . S
C1679 C1680 1.394 . S
C1679 C1685 1.465 . S
C1680 C1675 1.399 . S
C1680 C1679 1.394 . S
C1680 C1681 1.516 . S
C1681 C1680 1.516 . S
C1681 C1682 1.502 . S
C1681 C1683 1.561 . S
C1681 C1684 1.526 . S
C1682 H1666 0.959 . S
C1682 H1667 0.959 . S
C1682 H1668 0.961 . S
C1682 C1681 1.502 . S
C1683 H1669 0.960 . S
C1683 H1670 0.961 . S
C1683 H1671 0.959 . S
C1683 C1681 1.561 . S
C1684 C1681 1.526 . S
C1684 C1685 1.396 . S
C1684 C1689 1.390 . S
C1685 C1679 1.465 . S
C1685 C1684 1.396 . S
C1685 C1686 1.399 . S
C1686 H1672 0.929 . S
C1686 C1685 1.399 . S
C1686 C1687 1.385 . S
C1687 H1673 0.931 . S
C1687 C1686 1.385 . S
C1687 C1688 1.389 . S
C1688 C1687 1.389 . S
C1688 C1689 1.387 . S
C1689 H1674 0.930 . S
C1689 C1684 1.390 . S
C1689 C1688 1.387 . S
H1690 C1702 0.930 . S
H1691 C1704 0.930 . S
H1692 C1705 0.930 . S
H1693 C1709 0.959 . S
H1694 C1709 0.959 . S
H1695 C1709 0.961 . S
H1696 C1710 0.960 . S
H1697 C1710 0.961 . S
H1698 C1710 0.959 . S
H1699 C1713 0.929 1_556 S
H1700 C1714 0.931 . S
H1701 C1716 0.930 . S
C1702 H1690 0.930 . S
C1702 C1703 1.399 . S
C1702 C1707 1.399 . S
C1703 C1702 1.399 . S
C1703 C1704 1.376 . S
C1704 H1691 0.930 . S
C1704 C1703 1.376 . S
C1704 C1705 1.388 . S
C1705 H1692 0.930 . S
C1705 C1704 1.388 . S
C1705 C1706 1.390 . S
C1706 C1705 1.390 . S
C1706 C1707 1.394 . S
C1706 C1712 1.428 1_556 S
C1707 C1702 1.399 . S
C1707 C1706 1.394 . S
C1707 C1708 1.516 1_556 S
C1708 C1707 1.516 1_554 S
C1708 C1709 1.502 . S
C1708 C1710 1.561 1_554 S
C1708 C1711 1.526 . S
C1709 H1693 0.959 . S
C1709 H1694 0.959 . S
C1709 H1695 0.961 . S
C1709 C1708 1.502 . S
C1710 H1696 0.960 . S
C1710 H1697 0.961 . S
C1710 H1698 0.959 . S
C1710 C1708 1.561 1_556 S
C1711 C1708 1.526 . S
C1711 C1712 1.429 . S
C1711 C1716 1.390 . S
C1712 C1706 1.428 1_554 S
C1712 C1711 1.429 . S
C1712 C1713 1.411 . S
C1713 H1699 0.929 1_554 S
C1713 C1712 1.411 . S
C1713 C1714 1.385 . S
C1714 H1700 0.931 . S
C1714 C1713 1.385 . S
C1714 C1715 1.389 . S
C1715 C1714 1.389 . S
C1715 C1716 1.387 . S
C1716 H1701 0.930 . S
C1716 C1711 1.390 . S
C1716 C1715 1.387 . S
H1717 C1729 0.930 . S
H1718 C1731 0.930 . S
H1719 C1732 0.930 . S
H1720 C1736 0.959 . S
H1721 C1736 0.959 . S
H1722 C1736 0.961 . S
H1723 C1737 0.960 . S
H1724 C1737 0.961 . S
H1725 C1737 0.959 . S
H1726 C1740 0.929 . S
H1727 C1741 0.931 . S
H1728 C1743 0.930 . S
C1729 H1717 0.930 . S
C1729 C1730 1.399 . S
C1729 C1734 1.399 . S
C1730 C1729 1.399 . S
C1730 C1731 1.376 . S
C1731 H1718 0.930 . S
C1731 C1730 1.376 . S
C1731 C1732 1.388 . S
C1732 H1719 0.930 . S
C1732 C1731 1.388 . S
C1732 C1733 1.390 . S
C1733 C1732 1.390 . S
C1733 C1734 1.394 . S
C1733 C1739 1.465 . S
C1734 C1729 1.399 . S
C1734 C1733 1.394 . S
C1734 C1735 1.516 . S
C1735 C1734 1.516 . S
C1735 C1736 1.502 . S
C1735 C1737 1.561 . S
C1735 C1738 1.526 . S
C1736 H1720 0.959 . S
C1736 H1721 0.959 . S
C1736 H1722 0.961 . S
C1736 C1735 1.502 . S
C1737 H1723 0.960 . S
C1737 H1724 0.961 . S
C1737 H1725 0.959 . S
C1737 C1735 1.561 . S
C1738 C1735 1.526 . S
C1738 C1739 1.396 . S
C1738 C1743 1.390 . S
C1739 C1733 1.465 . S
C1739 C1738 1.396 . S
C1739 C1740 1.399 . S
C1740 H1726 0.929 . S
C1740 C1739 1.399 . S
C1740 C1741 1.385 . S
C1741 H1727 0.931 . S
C1741 C1740 1.385 . S
C1741 C1742 1.389 . S
C1742 C1741 1.389 . S
C1742 C1743 1.387 . S
C1743 H1728 0.930 . S
C1743 C1738 1.390 . S
C1743 C1742 1.387 . S
H1744 C1756 0.930 . S
H1745 C1758 0.930 . S
H1746 C1759 0.930 . S
H1747 C1763 0.959 . S
H1748 C1763 0.959 . S
H1749 C1763 0.961 . S
H1750 C1764 0.960 . S
H1751 C1764 0.961 . S
H1752 C1764 0.959 . S
H1753 C1767 0.929 . S
H1754 C1768 0.931 . S
H1755 C1770 0.930 . S
C1756 H1744 0.930 . S
C1756 C1757 1.399 . S
C1756 C1761 1.399 . S
C1757 C1756 1.399 . S
C1757 C1758 1.376 . S
C1758 H1745 0.930 . S
C1758 C1757 1.376 . S
C1758 C1759 1.388 . S
C1759 H1746 0.930 . S
C1759 C1758 1.388 . S
C1759 C1760 1.390 . S
C1760 C1759 1.390 . S
C1760 C1761 1.394 . S
C1760 C1766 1.465 . S
C1761 C1756 1.399 . S
C1761 C1760 1.394 . S
C1761 C1762 1.516 . S
C1762 C1761 1.516 . S
C1762 C1763 1.502 . S
C1762 C1764 1.561 . S
C1762 C1765 1.526 . S
C1763 H1747 0.959 . S
C1763 H1748 0.959 . S
C1763 H1749 0.961 . S
C1763 C1762 1.502 . S
C1764 H1750 0.960 . S
C1764 H1751 0.961 . S
C1764 H1752 0.959 . S
C1764 C1762 1.561 . S
C1765 C1762 1.526 . S
C1765 C1766 1.396 . S
C1765 C1770 1.390 . S
C1766 C1760 1.465 . S
C1766 C1765 1.396 . S
C1766 C1767 1.399 . S
C1767 H1753 0.929 . S
C1767 C1766 1.399 . S
C1767 C1768 1.385 . S
C1768 H1754 0.931 . S
C1768 C1767 1.385 . S
C1768 C1769 1.389 . S
C1769 C1768 1.389 . S
C1769 C1770 1.387 . S
C1770 H1755 0.930 . S
C1770 C1765 1.390 . S
C1770 C1769 1.387 . S
H1771 C1783 0.930 . S
H1772 C1785 0.930 . S
H1773 C1786 0.930 . S
H1774 C1790 0.959 . S
H1775 C1790 0.959 . S
H1776 C1790 0.961 . S
H1777 C1791 0.960 . S
H1778 C1791 0.961 . S
H1779 C1791 0.959 . S
H1780 C1794 0.929 . S
H1781 C1795 0.931 . S
H1782 C1797 0.930 . S
C1783 H1771 0.930 . S
C1783 C1784 1.399 . S
C1783 C1788 1.399 . S
C1784 C1783 1.399 . S
C1784 C1785 1.376 . S
C1785 H1772 0.930 . S
C1785 C1784 1.376 . S
C1785 C1786 1.388 . S
C1786 H1773 0.930 . S
C1786 C1785 1.388 . S
C1786 C1787 1.390 . S
C1787 C1786 1.390 . S
C1787 C1788 1.394 . S
C1787 C1793 1.465 . S
C1788 C1783 1.399 . S
C1788 C1787 1.394 . S
C1788 C1789 1.516 . S
C1789 C1788 1.516 . S
C1789 C1790 1.502 . S
C1789 C1791 1.561 . S
C1789 C1792 1.526 . S
C1790 H1774 0.959 . S
C1790 H1775 0.959 . S
C1790 H1776 0.961 . S
C1790 C1789 1.502 . S
C1791 H1777 0.960 . S
C1791 H1778 0.961 . S
C1791 H1779 0.959 . S
C1791 C1789 1.561 . S
C1792 C1789 1.526 . S
C1792 C1793 1.396 . S
C1792 C1797 1.390 . S
C1793 C1787 1.465 . S
C1793 C1792 1.396 . S
C1793 C1794 1.399 . S
C1794 H1780 0.929 . S
C1794 C1793 1.399 . S
C1794 C1795 1.385 . S
C1795 H1781 0.931 . S
C1795 C1794 1.385 . S
C1795 C1796 1.389 . S
C1796 C1795 1.389 . S
C1796 C1797 1.387 . S
C1797 H1782 0.930 . S
C1797 C1792 1.390 . S
C1797 C1796 1.387 . S
H1798 C1810 0.930 . S
H1799 C1812 0.930 . S
H1800 C1813 0.930 . S
H1801 C1817 0.959 . S
H1802 C1817 0.959 . S
H1803 C1817 0.961 . S
H1804 C1818 0.960 . S
H1805 C1818 0.961 . S
H1806 C1818 0.959 . S
H1807 C1821 0.929 . S
H1808 C1822 0.931 . S
H1809 C1824 0.930 . S
C1810 H1798 0.930 . S
C1810 C1811 1.399 . S
C1810 C1815 1.399 . S
C1811 C1810 1.399 . S
C1811 C1812 1.376 . S
C1812 H1799 0.930 . S
C1812 C1811 1.376 . S
C1812 C1813 1.388 . S
C1813 H1800 0.930 . S
C1813 C1812 1.388 . S
C1813 C1814 1.390 . S
C1814 C1813 1.390 . S
C1814 C1815 1.394 . S
C1814 C1820 1.465 . S
C1815 C1810 1.399 . S
C1815 C1814 1.394 . S
C1815 C1816 1.516 . S
C1816 C1815 1.516 . S
C1816 C1817 1.502 . S
C1816 C1818 1.561 . S
C1816 C1819 1.526 . S
C1817 H1801 0.959 . S
C1817 H1802 0.959 . S
C1817 H1803 0.961 . S
C1817 C1816 1.502 . S
C1818 H1804 0.960 . S
C1818 H1805 0.961 . S
C1818 H1806 0.959 . S
C1818 C1816 1.561 . S
C1819 C1816 1.526 . S
C1819 C1820 1.396 . S
C1819 C1824 1.390 . S
C1820 C1814 1.465 . S
C1820 C1819 1.396 . S
C1820 C1821 1.399 . S
C1821 H1807 0.929 . S
C1821 C1820 1.399 . S
C1821 C1822 1.385 . S
C1822 H1808 0.931 . S
C1822 C1821 1.385 . S
C1822 C1823 1.389 . S
C1823 C1822 1.389 . S
C1823 C1824 1.387 . S
C1824 H1809 0.930 . S
C1824 C1819 1.390 . S
C1824 C1823 1.387 . S
H1825 C1837 0.930 . S
H1826 C1839 0.930 . S
H1827 C1840 0.930 . S
H1828 C1844 0.959 . S
H1829 C1844 0.959 . S
H1830 C1844 0.961 . S
H1831 C1845 0.960 . S
H1832 C1845 0.961 . S
H1833 C1845 0.959 . S
H1834 C1848 0.929 . S
H1835 C1849 0.931 . S
H1836 C1851 0.930 . S
C1837 H1825 0.930 . S
C1837 C1838 1.399 . S
C1837 C1842 1.399 . S
C1838 C1837 1.399 . S
C1838 C1839 1.376 . S
C1839 H1826 0.930 . S
C1839 C1838 1.376 . S
C1839 C1840 1.388 . S
C1840 H1827 0.930 . S
C1840 C1839 1.388 . S
C1840 C1841 1.390 . S
C1841 C1840 1.390 . S
C1841 C1842 1.394 . S
C1841 C1847 1.465 . S
C1842 C1837 1.399 . S
C1842 C1841 1.394 . S
C1842 C1843 1.516 . S
C1843 C1842 1.516 . S
C1843 C1844 1.502 . S
C1843 C1845 1.561 . S
C1843 C1846 1.526 . S
C1844 H1828 0.959 . S
C1844 H1829 0.959 . S
C1844 H1830 0.961 . S
C1844 C1843 1.502 . S
C1845 H1831 0.960 . S
C1845 H1832 0.961 . S
C1845 H1833 0.959 . S
C1845 C1843 1.561 . S
C1846 C1843 1.526 . S
C1846 C1847 1.396 . S
C1846 C1851 1.390 . S
C1847 C1841 1.465 . S
C1847 C1846 1.396 . S
C1847 C1848 1.399 . S
C1848 H1834 0.929 . S
C1848 C1847 1.399 . S
C1848 C1849 1.385 . S
C1849 H1835 0.931 . S
C1849 C1848 1.385 . S
C1849 C1850 1.389 . S
C1850 C1849 1.389 . S
C1850 C1851 1.387 . S
C1851 H1836 0.930 . S
C1851 C1846 1.390 . S
C1851 C1850 1.387 . S
H1852 C1864 0.930 . S
H1853 C1866 0.930 . S
H1854 C1867 0.930 . S
H1855 C1871 0.959 . S
H1856 C1871 0.959 . S
H1857 C1871 0.961 . S
H1858 C1872 0.960 . S
H1859 C1872 0.961 . S
H1860 C1872 0.959 . S
H1861 C1875 0.929 . S
H1862 C1876 0.931 . S
H1863 C1878 0.930 . S
C1864 H1852 0.930 . S
C1864 C1865 1.399 . S
C1864 C1869 1.399 . S
C1865 C1864 1.399 . S
C1865 C1866 1.376 . S
C1866 H1853 0.930 . S
C1866 C1865 1.376 . S
C1866 C1867 1.388 . S
C1867 H1854 0.930 . S
C1867 C1866 1.388 . S
C1867 C1868 1.390 . S
C1868 C1867 1.390 . S
C1868 C1869 1.394 . S
C1868 C1874 1.465 . S
C1869 C1864 1.399 . S
C1869 C1868 1.394 . S
C1869 C1870 1.516 . S
C1870 C1869 1.516 . S
C1870 C1871 1.502 . S
C1870 C1872 1.561 . S
C1870 C1873 1.526 . S
C1871 H1855 0.959 . S
C1871 H1856 0.959 . S
C1871 H1857 0.961 . S
C1871 C1870 1.502 . S
C1872 H1858 0.960 . S
C1872 H1859 0.961 . S
C1872 H1860 0.959 . S
C1872 C1870 1.561 . S
C1873 C1870 1.526 . S
C1873 C1874 1.396 . S
C1873 C1878 1.390 . S
C1874 C1868 1.465 . S
C1874 C1873 1.396 . S
C1874 C1875 1.399 . S
C1875 H1861 0.929 . S
C1875 C1874 1.399 . S
C1875 C1876 1.385 . S
C1876 H1862 0.931 . S
C1876 C1875 1.385 . S
C1876 C1877 1.389 . S
C1877 C1876 1.389 . S
C1877 C1878 1.387 . S
C1878 H1863 0.930 . S
C1878 C1873 1.390 . S
C1878 C1877 1.387 . S
H1879 C1891 0.930 . S
H1880 C1893 0.930 . S
H1881 C1894 0.930 . S
H1882 C1898 0.959 . S
H1883 C1898 0.959 . S
H1884 C1898 0.961 . S
H1885 C1899 0.960 . S
H1886 C1899 0.961 . S
H1887 C1899 0.959 . S
H1888 C1902 0.929 . S
H1889 C1903 0.931 . S
H1890 C1905 0.930 . S
C1891 H1879 0.930 . S
C1891 C1892 1.399 . S
C1891 C1896 1.399 . S
C1892 C1891 1.399 . S
C1892 C1893 1.376 . S
C1893 H1880 0.930 . S
C1893 C1892 1.376 . S
C1893 C1894 1.388 . S
C1894 H1881 0.930 . S
C1894 C1893 1.388 . S
C1894 C1895 1.390 . S
C1895 C1894 1.390 . S
C1895 C1896 1.394 . S
C1895 C1901 1.465 . S
C1896 C1891 1.399 . S
C1896 C1895 1.394 . S
C1896 C1897 1.516 . S
C1897 C1896 1.516 . S
C1897 C1898 1.502 . S
C1897 C1899 1.561 . S
C1897 C1900 1.526 . S
C1898 H1882 0.959 . S
C1898 H1883 0.959 . S
C1898 H1884 0.961 . S
C1898 C1897 1.502 . S
C1899 H1885 0.960 . S
C1899 H1886 0.961 . S
C1899 H1887 0.959 . S
C1899 C1897 1.561 . S
C1900 C1897 1.526 . S
C1900 C1901 1.396 . S
C1900 C1905 1.390 . S
C1901 C1895 1.465 . S
C1901 C1900 1.396 . S
C1901 C1902 1.399 . S
C1902 H1888 0.929 . S
C1902 C1901 1.399 . S
C1902 C1903 1.385 . S
C1903 H1889 0.931 . S
C1903 C1902 1.385 . S
C1903 C1904 1.389 . S
C1904 C1903 1.389 . S
C1904 C1905 1.387 . S
C1905 H1890 0.930 . S
C1905 C1900 1.390 . S
C1905 C1904 1.387 . S
H1906 C1918 0.930 . S
H1907 C1920 0.930 . S
H1908 C1921 0.930 . S
H1909 C1925 0.959 . S
H1910 C1925 0.959 . S
H1911 C1925 0.961 . S
H1912 C1926 0.960 . S
H1913 C1926 0.961 . S
H1914 C1926 0.959 . S
H1915 C1929 0.929 . S
H1916 C1930 0.931 . S
H1917 C1932 0.930 . S
C1918 H1906 0.930 . S
C1918 C1919 1.399 . S
C1918 C1923 1.399 . S
C1919 C1918 1.399 . S
C1919 C1920 1.376 . S
C1920 H1907 0.930 . S
C1920 C1919 1.376 . S
C1920 C1921 1.388 . S
C1921 H1908 0.930 . S
C1921 C1920 1.388 . S
C1921 C1922 1.390 . S
C1922 C1921 1.390 . S
C1922 C1923 1.394 . S
C1922 C1928 1.465 . S
C1923 C1918 1.399 . S
C1923 C1922 1.394 . S
C1923 C1924 1.516 . S
C1924 C1923 1.516 . S
C1924 C1925 1.502 . S
C1924 C1926 1.561 . S
C1924 C1927 1.526 . S
C1925 H1909 0.959 . S
C1925 H1910 0.959 . S
C1925 H1911 0.961 . S
C1925 C1924 1.502 . S
C1926 H1912 0.960 . S
C1926 H1913 0.961 . S
C1926 H1914 0.959 . S
C1926 C1924 1.561 . S
C1927 C1924 1.526 . S
C1927 C1928 1.396 . S
C1927 C1932 1.390 . S
C1928 C1922 1.465 . S
C1928 C1927 1.396 . S
C1928 C1929 1.399 . S
C1929 H1915 0.929 . S
C1929 C1928 1.399 . S
C1929 C1930 1.385 . S
C1930 H1916 0.931 . S
C1930 C1929 1.385 . S
C1930 C1931 1.389 . S
C1931 C1930 1.389 . S
C1931 C1932 1.387 . S
C1932 H1917 0.930 . S
C1932 C1927 1.390 . S
C1932 C1931 1.387 . S
H1933 C1945 0.930 . S
H1934 C1947 0.930 . S
H1935 C1948 0.930 . S
H1936 C1952 0.959 . S
H1937 C1952 0.959 . S
H1938 C1952 0.961 . S
H1939 C1953 0.960 . S
H1940 C1953 0.961 . S
H1941 C1953 0.959 . S
H1942 C1956 0.929 . S
H1943 C1957 0.931 . S
H1944 C1959 0.930 . S
C1945 H1933 0.930 . S
C1945 C1946 1.399 . S
C1945 C1950 1.399 . S
C1946 C1945 1.399 . S
C1946 C1947 1.376 . S
C1947 H1934 0.930 . S
C1947 C1946 1.376 . S
C1947 C1948 1.388 . S
C1948 H1935 0.930 . S
C1948 C1947 1.388 . S
C1948 C1949 1.390 . S
C1949 C1948 1.390 . S
C1949 C1950 1.394 . S
C1949 C1955 1.465 . S
C1950 C1945 1.399 . S
C1950 C1949 1.394 . S
C1950 C1951 1.516 . S
C1951 C1950 1.516 . S
C1951 C1952 1.502 . S
C1951 C1953 1.561 . S
C1951 C1954 1.526 . S
C1952 H1936 0.959 . S
C1952 H1937 0.959 . S
C1952 H1938 0.961 . S
C1952 C1951 1.502 . S
C1953 H1939 0.960 . S
C1953 H1940 0.961 . S
C1953 H1941 0.959 . S
C1953 C1951 1.561 . S
C1954 C1951 1.526 . S
C1954 C1955 1.396 . S
C1954 C1959 1.390 . S
C1955 C1949 1.465 . S
C1955 C1954 1.396 . S
C1955 C1956 1.399 . S
C1956 H1942 0.929 . S
C1956 C1955 1.399 . S
C1956 C1957 1.385 . S
C1957 H1943 0.931 . S
C1957 C1956 1.385 . S
C1957 C1958 1.389 . S
C1958 C1957 1.389 . S
C1958 C1959 1.387 . S
C1959 H1944 0.930 . S
C1959 C1954 1.390 . S
C1959 C1958 1.387 . S
H1960 C1972 0.930 . S
H1961 C1974 0.930 . S
H1962 C1975 0.930 . S
H1963 C1979 0.959 . S
H1964 C1979 0.959 . S
H1965 C1979 0.961 . S
H1966 C1980 0.960 . S
H1967 C1980 0.961 . S
H1968 C1980 0.959 . S
H1969 C1983 0.929 . S
H1970 C1984 0.931 . S
H1971 C1986 0.930 . S
C1972 H1960 0.930 . S
C1972 C1973 1.399 . S
C1972 C1977 1.399 . S
C1973 C1972 1.399 . S
C1973 C1974 1.376 . S
C1974 H1961 0.930 . S
C1974 C1973 1.376 . S
C1974 C1975 1.388 . S
C1975 H1962 0.930 . S
C1975 C1974 1.388 . S
C1975 C1976 1.390 . S
C1976 C1975 1.390 . S
C1976 C1977 1.394 . S
C1976 C1982 1.465 . S
C1977 C1972 1.399 . S
C1977 C1976 1.394 . S
C1977 C1978 1.516 . S
C1978 C1977 1.516 . S
C1978 C1979 1.502 . S
C1978 C1980 1.561 . S
C1978 C1981 1.526 . S
C1979 H1963 0.959 . S
C1979 H1964 0.959 . S
C1979 H1965 0.961 . S
C1979 C1978 1.502 . S
C1980 H1966 0.960 . S
C1980 H1967 0.961 . S
C1980 H1968 0.959 . S
C1980 C1978 1.561 . S
C1981 C1978 1.526 . S
C1981 C1982 1.396 . S
C1981 C1986 1.390 . S
C1982 C1976 1.465 . S
C1982 C1981 1.396 . S
C1982 C1983 1.399 . S
C1983 H1969 0.929 . S
C1983 C1982 1.399 . S
C1983 C1984 1.385 . S
C1984 H1970 0.931 . S
C1984 C1983 1.385 . S
C1984 C1985 1.389 . S
C1985 C1984 1.389 . S
C1985 C1986 1.387 . S
C1986 H1971 0.930 . S
C1986 C1981 1.390 . S
C1986 C1985 1.387 . S
H1987 C1999 0.930 . S
H1988 C2001 0.930 . S
H1989 C2002 0.930 . S
H1990 C2006 0.959 . S
H1991 C2006 0.959 . S
H1992 C2006 0.961 . S
H1993 C2007 0.960 . S
H1994 C2007 0.961 . S
H1995 C2007 0.959 . S
H1996 C2010 0.929 . S
H1997 C2011 0.931 . S
H1998 C2013 0.930 . S
C1999 H1987 0.930 . S
C1999 C2000 1.399 . S
C1999 C2004 1.399 . S
C2000 C1999 1.399 . S
C2000 C2001 1.376 . S
C2001 H1988 0.930 . S
C2001 C2000 1.376 . S
C2001 C2002 1.388 . S
C2002 H1989 0.930 . S
C2002 C2001 1.388 . S
C2002 C2003 1.390 . S
C2003 C2002 1.390 . S
C2003 C2004 1.394 . S
C2003 C2009 1.465 . S
C2004 C1999 1.399 . S
C2004 C2003 1.394 . S
C2004 C2005 1.516 . S
C2005 C2004 1.516 . S
C2005 C2006 1.502 . S
C2005 C2007 1.561 . S
C2005 C2008 1.526 . S
C2006 H1990 0.959 . S
C2006 H1991 0.959 . S
C2006 H1992 0.961 . S
C2006 C2005 1.502 . S
C2007 H1993 0.960 . S
C2007 H1994 0.961 . S
C2007 H1995 0.959 . S
C2007 C2005 1.561 . S
C2008 C2005 1.526 . S
C2008 C2009 1.396 . S
C2008 C2013 1.390 . S
C2009 C2003 1.465 . S
C2009 C2008 1.396 . S
C2009 C2010 1.399 . S
C2010 H1996 0.929 . S
C2010 C2009 1.399 . S
C2010 C2011 1.385 . S
C2011 H1997 0.931 . S
C2011 C2010 1.385 . S
C2011 C2012 1.389 . S
C2012 C2011 1.389 . S
C2012 C2013 1.387 . S
C2013 H1998 0.930 . S
C2013 C2008 1.390 . S
C2013 C2012 1.387 . S
H2014 C2026 0.930 . S
H2015 C2028 0.930 . S
H2016 C2029 0.930 . S
H2017 C2033 0.959 . S
H2018 C2033 0.959 . S
H2019 C2033 0.961 . S
H2020 C2034 0.960 . S
H2021 C2034 0.961 . S
H2022 C2034 0.959 . S
H2023 C2037 0.929 . S
H2024 C2038 0.931 . S
H2025 C2040 0.930 . S
C2026 H2014 0.930 . S
C2026 C2027 1.399 . S
C2026 C2031 1.399 . S
C2027 C2026 1.399 . S
C2027 C2028 1.376 . S
C2028 H2015 0.930 . S
C2028 C2027 1.376 . S
C2028 C2029 1.388 . S
C2029 H2016 0.930 . S
C2029 C2028 1.388 . S
C2029 C2030 1.390 . S
C2030 C2029 1.390 . S
C2030 C2031 1.394 . S
C2030 C2036 1.465 . S
C2031 C2026 1.399 . S
C2031 C2030 1.394 . S
C2031 C2032 1.516 . S
C2032 C2031 1.516 . S
C2032 C2033 1.502 . S
C2032 C2034 1.561 . S
C2032 C2035 1.526 . S
C2033 H2017 0.959 . S
C2033 H2018 0.959 . S
C2033 H2019 0.961 . S
C2033 C2032 1.502 . S
C2034 H2020 0.960 . S
C2034 H2021 0.961 . S
C2034 H2022 0.959 . S
C2034 C2032 1.561 . S
C2035 C2032 1.526 . S
C2035 C2036 1.396 . S
C2035 C2040 1.390 . S
C2036 C2030 1.465 . S
C2036 C2035 1.396 . S
C2036 C2037 1.399 . S
C2037 H2023 0.929 . S
C2037 C2036 1.399 . S
C2037 C2038 1.385 . S
C2038 H2024 0.931 . S
C2038 C2037 1.385 . S
C2038 C2039 1.389 . S
C2039 C2038 1.389 . S
C2039 C2040 1.387 . S
C2040 H2025 0.930 . S
C2040 C2035 1.390 . S
C2040 C2039 1.387 . S
H2041 C2053 0.930 . S
H2042 C2055 0.930 . S
H2043 C2056 0.930 . S
H2044 C2060 0.959 . S
H2045 C2060 0.959 . S
H2046 C2060 0.961 . S
H2047 C2061 0.960 . S
H2048 C2061 0.961 . S
H2049 C2061 0.959 . S
H2050 C2064 0.929 . S
H2051 C2065 0.931 . S
H2052 C2067 0.930 . S
C2053 H2041 0.930 . S
C2053 C2054 1.399 . S
C2053 C2058 1.399 . S
C2054 C2053 1.399 . S
C2054 C2055 1.376 . S
C2055 H2042 0.930 . S
C2055 C2054 1.376 . S
C2055 C2056 1.388 . S
C2056 H2043 0.930 . S
C2056 C2055 1.388 . S
C2056 C2057 1.390 . S
C2057 C2056 1.390 . S
C2057 C2058 1.394 . S
C2057 C2063 1.465 . S
C2058 C2053 1.399 . S
C2058 C2057 1.394 . S
C2058 C2059 1.516 . S
C2059 C2058 1.516 . S
C2059 C2060 1.502 . S
C2059 C2061 1.561 . S
C2059 C2062 1.526 . S
C2060 H2044 0.959 . S
C2060 H2045 0.959 . S
C2060 H2046 0.961 . S
C2060 C2059 1.502 . S
C2061 H2047 0.960 . S
C2061 H2048 0.961 . S
C2061 H2049 0.959 . S
C2061 C2059 1.561 . S
C2062 C2059 1.526 . S
C2062 C2063 1.396 . S
C2062 C2067 1.390 . S
C2063 C2057 1.465 . S
C2063 C2062 1.396 . S
C2063 C2064 1.399 . S
C2064 H2050 0.929 . S
C2064 C2063 1.399 . S
C2064 C2065 1.385 . S
C2065 H2051 0.931 . S
C2065 C2064 1.385 . S
C2065 C2066 1.389 . S
C2066 C2065 1.389 . S
C2066 C2067 1.387 . S
C2067 H2052 0.930 . S
C2067 C2062 1.390 . S
C2067 C2066 1.387 . S
H2068 C2080 0.930 . S
H2069 C2082 0.930 . S
H2070 C2083 0.930 . S
H2071 C2087 0.959 . S
H2072 C2087 0.959 . S
H2073 C2087 0.961 . S
H2074 C2088 0.960 . S
H2075 C2088 0.961 . S
H2076 C2088 0.959 . S
H2077 C2091 0.929 . S
H2078 C2092 0.931 . S
H2079 C2094 0.930 . S
C2080 H2068 0.930 . S
C2080 C2081 1.399 . S
C2080 C2085 1.399 . S
C2081 C2080 1.399 . S
C2081 C2082 1.376 . S
C2082 H2069 0.930 . S
C2082 C2081 1.376 . S
C2082 C2083 1.388 . S
C2083 H2070 0.930 . S
C2083 C2082 1.388 . S
C2083 C2084 1.390 . S
C2084 C2083 1.390 . S
C2084 C2085 1.394 . S
C2084 C2090 1.465 . S
C2085 C2080 1.399 . S
C2085 C2084 1.394 . S
C2085 C2086 1.516 . S
C2086 C2085 1.516 . S
C2086 C2087 1.502 . S
C2086 C2088 1.561 . S
C2086 C2089 1.526 . S
C2087 H2071 0.959 . S
C2087 H2072 0.959 . S
C2087 H2073 0.961 . S
C2087 C2086 1.502 . S
C2088 H2074 0.960 . S
C2088 H2075 0.961 . S
C2088 H2076 0.959 . S
C2088 C2086 1.561 . S
C2089 C2086 1.526 . S
C2089 C2090 1.396 . S
C2089 C2094 1.390 . S
C2090 C2084 1.465 . S
C2090 C2089 1.396 . S
C2090 C2091 1.399 . S
C2091 H2077 0.929 . S
C2091 C2090 1.399 . S
C2091 C2092 1.385 . S
C2092 H2078 0.931 . S
C2092 C2091 1.385 . S
C2092 C2093 1.389 . S
C2093 C2092 1.389 . S
C2093 C2094 1.387 . S
C2094 H2079 0.930 . S
C2094 C2089 1.390 . S
C2094 C2093 1.387 . S
H2095 C2107 0.930 . S
H2096 C2109 0.930 . S
H2097 C2110 0.930 . S
H2098 C2114 0.959 . S
H2099 C2114 0.959 . S
H2100 C2114 0.961 . S
H2101 C2115 0.960 . S
H2102 C2115 0.961 . S
H2103 C2115 0.959 . S
H2104 C2118 0.929 . S
H2105 C2119 0.931 . S
H2106 C2121 0.930 . S
C2107 H2095 0.930 . S
C2107 C2108 1.399 . S
C2107 C2112 1.399 . S
C2108 C2107 1.399 . S
C2108 C2109 1.376 . S
C2109 H2096 0.930 . S
C2109 C2108 1.376 . S
C2109 C2110 1.388 . S
C2110 H2097 0.930 . S
C2110 C2109 1.388 . S
C2110 C2111 1.390 . S
C2111 C2110 1.390 . S
C2111 C2112 1.394 . S
C2111 C2117 1.465 . S
C2112 C2107 1.399 . S
C2112 C2111 1.394 . S
C2112 C2113 1.516 . S
C2113 C2112 1.516 . S
C2113 C2114 1.502 . S
C2113 C2115 1.561 . S
C2113 C2116 1.526 . S
C2114 H2098 0.959 . S
C2114 H2099 0.959 . S
C2114 H2100 0.961 . S
C2114 C2113 1.502 . S
C2115 H2101 0.960 . S
C2115 H2102 0.961 . S
C2115 H2103 0.959 . S
C2115 C2113 1.561 . S
C2116 C2113 1.526 . S
C2116 C2117 1.396 . S
C2116 C2121 1.390 . S
C2117 C2111 1.465 . S
C2117 C2116 1.396 . S
C2117 C2118 1.399 . S
C2118 H2104 0.929 . S
C2118 C2117 1.399 . S
C2118 C2119 1.385 . S
C2119 H2105 0.931 . S
C2119 C2118 1.385 . S
C2119 C2120 1.389 . S
C2120 C2119 1.389 . S
C2120 C2121 1.387 . S
C2121 H2106 0.930 . S
C2121 C2116 1.390 . S
C2121 C2120 1.387 . S
H2122 C2134 0.930 . S
H2123 C2136 0.930 . S
H2124 C2137 0.930 . S
H2125 C2141 0.959 . S
H2126 C2141 0.959 . S
H2127 C2141 0.961 . S
H2128 C2142 0.960 . S
H2129 C2142 0.961 . S
H2130 C2142 0.959 . S
H2131 C2145 0.929 . S
H2132 C2146 0.931 . S
H2133 C2148 0.930 . S
C2134 H2122 0.930 . S
C2134 C2135 1.399 . S
C2134 C2139 1.399 . S
C2135 C2134 1.399 . S
C2135 C2136 1.376 . S
C2136 H2123 0.930 . S
C2136 C2135 1.376 . S
C2136 C2137 1.388 . S
C2137 H2124 0.930 . S
C2137 C2136 1.388 . S
C2137 C2138 1.390 . S
C2138 C2137 1.390 . S
C2138 C2139 1.394 . S
C2138 C2144 1.465 . S
C2139 C2134 1.399 . S
C2139 C2138 1.394 . S
C2139 C2140 1.516 . S
C2140 C2139 1.516 . S
C2140 C2141 1.502 . S
C2140 C2142 1.561 . S
C2140 C2143 1.526 . S
C2141 H2125 0.959 . S
C2141 H2126 0.959 . S
C2141 H2127 0.961 . S
C2141 C2140 1.502 . S
C2142 H2128 0.960 . S
C2142 H2129 0.961 . S
C2142 H2130 0.959 . S
C2142 C2140 1.561 . S
C2143 C2140 1.526 . S
C2143 C2144 1.396 . S
C2143 C2148 1.390 . S
C2144 C2138 1.465 . S
C2144 C2143 1.396 . S
C2144 C2145 1.399 . S
C2145 H2131 0.929 . S
C2145 C2144 1.399 . S
C2145 C2146 1.385 . S
C2146 H2132 0.931 . S
C2146 C2145 1.385 . S
C2146 C2147 1.389 . S
C2147 C2146 1.389 . S
C2147 C2148 1.387 . S
C2148 H2133 0.930 . S
C2148 C2143 1.390 . S
C2148 C2147 1.387 . S
H2149 C2161 0.930 . S
H2150 C2163 0.930 . S
H2151 C2164 0.930 . S
H2152 C2168 0.959 . S
H2153 C2168 0.959 . S
H2154 C2168 0.961 . S
H2155 C2169 0.960 . S
H2156 C2169 0.961 . S
H2157 C2169 0.959 . S
H2158 C2172 0.929 . S
H2159 C2173 0.931 . S
H2160 C2175 0.930 . S
C2161 H2149 0.930 . S
C2161 C2162 1.399 . S
C2161 C2166 1.399 . S
C2162 C2161 1.399 . S
C2162 C2163 1.376 . S
C2163 H2150 0.930 . S
C2163 C2162 1.376 . S
C2163 C2164 1.388 . S
C2164 H2151 0.930 . S
C2164 C2163 1.388 . S
C2164 C2165 1.390 . S
C2165 C2164 1.390 . S
C2165 C2166 1.394 . S
C2165 C2171 1.465 . S
C2166 C2161 1.399 . S
C2166 C2165 1.394 . S
C2166 C2167 1.516 . S
C2167 C2166 1.516 . S
C2167 C2168 1.502 . S
C2167 C2169 1.561 . S
C2167 C2170 1.526 . S
C2168 H2152 0.959 . S
C2168 H2153 0.959 . S
C2168 H2154 0.961 . S
C2168 C2167 1.502 . S
C2169 H2155 0.960 . S
C2169 H2156 0.961 . S
C2169 H2157 0.959 . S
C2169 C2167 1.561 . S
C2170 C2167 1.526 . S
C2170 C2171 1.396 . S
C2170 C2175 1.390 . S
C2171 C2165 1.465 . S
C2171 C2170 1.396 . S
C2171 C2172 1.399 . S
C2172 H2158 0.929 . S
C2172 C2171 1.399 . S
C2172 C2173 1.385 . S
C2173 H2159 0.931 . S
C2173 C2172 1.385 . S
C2173 C2174 1.389 . S
C2174 C2173 1.389 . S
C2174 C2175 1.387 . S
C2175 H2160 0.930 . S
C2175 C2170 1.390 . S
C2175 C2174 1.387 . S
C461 C119 1.498 . S
C473 C7 1.491 . S
C488 C357 1.484 . S
C500 C21 1.505 . S
C515 C147 1.493 . S
C527 C35 1.515 . S
C542 C385 1.531 . S
C554 C49 1.466 . S
C569 C175 1.529 . S
C581 C63 1.476 . S
C596 C77 1.527 . S
C608 C413 1.468 . S
C623 C91 1.533 . S
C635 C203 1.469 . S
C650 C105 1.478 . S
C662 C441 1.511 . S
C677 C245 1.533 . S
C689 C133 1.467 . S
C704 C273 1.480 . S
C716 C161 1.525 . S
C731 C189 1.506 . S
C743 C301 1.483 . S
C758 C217 1.490 . S
C770 C329 1.499 . S
C785 C231 1.475 . S
C797 C343 1.529 . S
C812 C371 1.506 . S
C824 C259 1.503 . S
C839 C287 1.473 . S
C851 C399 1.530 . S
C866 C427 1.476 . S
C878 C315 1.528 . S
C893 C261 1.597 . S
C905 C9 1.597 . S
C920 C275 1.590 . S
C932 C23 1.595 . S
C947 C37 1.568 . S
C959 C233 1.569 . S
C974 C51 1.591 . S
C986 C247 1.596 . S
C1001 C317 1.597 . S
C1013 C65 1.594 . S
C1028 C79 1.573 . S
C1040 C331 1.569 . S
C1055 C289 1.572 . S
C1067 C93 1.569 . S
C1082 C303 1.568 . S
C1094 C107 1.568 . S
C1109 C121 1.591 . S
C1121 C373 1.592 . S
C1136 C387 1.595 . S
C1148 C135 1.596 . S
C1163 C149 1.567 . S
C1175 C345 1.569 . S
C1190 C163 1.570 . S
C1202 C359 1.569 . S
C1217 C177 1.589 . S
C1229 C429 1.591 . S
C1244 C191 1.596 . S
C1256 C443 1.597 . S
C1271 C401 1.595 . S
C1283 C205 1.596 . S
C1298 C415 1.570 . S
C1310 C219 1.569 . S
C1325 C92 1.541 . S
C1337 C8 1.549 . S
C1352 C106 1.521 . S
C1364 C22 1.530 . S
C1379 C64 1.525 . S
C1391 C36 1.520 . S
C1406 C50 1.520 . S
C1418 C78 1.528 . S
C1433 C204 1.542 . S
C1445 C120 1.541 . S
C1460 C218 1.524 . S
C1472 C134 1.524 . S
C1487 C176 1.519 . S
C1499 C148 1.520 . S
C1514 C190 1.547 . S
C1526 C162 1.546 . S
C1541 C316 1.543 . S
C1553 C232 1.550 . S
C1568 C330 1.547 . S
C1580 C246 1.538 . S
C1595 C260 1.522 . S
C1607 C288 1.519 . S
C1622 C274 1.521 . S
C1634 C302 1.530 . S
C1649 C428 1.521 . S
C1661 C344 1.522 . S
C1676 C442 1.548 . S
C1688 C358 1.548 . S
C1703 C372 1.548 . S
C1715 C400 1.548 . S
C1730 C386 1.528 . S
C1742 C414 1.528 . S
C1757 C3 1.406 . S
C1769 C297 1.402 . S
C1784 C311 1.410 . S
C1796 C17 1.391 . S
C1811 C325 1.406 . S
C1823 C31 1.383 . S
C1838 C45 1.382 . S
C1850 C283 1.406 . S
C1865 C269 1.403 . S
C1877 C59 1.405 . S
C1892 C73 1.403 . S
C1904 C227 1.381 . S
C1919 C241 1.383 . S
C1931 C87 1.407 . S
C1946 C101 1.406 . S
C1958 C255 1.383 . S
C1973 C409 1.406 . S
C1985 C115 1.407 . S
C2000 C423 1.385 . S
C2012 C129 1.402 . S
C2027 C143 1.408 . S
C2039 C437 1.393 . S
C2054 C395 1.404 . S
C2066 C157 1.388 . S
C2081 C381 1.407 . S
C2093 C171 1.407 . S
C2108 C185 1.384 . S
C2120 C339 1.382 . S
C2135 C353 1.383 . S
C2147 C199 1.383 . S
C2162 C213 1.385 . S
C2174 C367 1.382 . S
