# Generated by pormake.
# Topology umo, (4)-cn, num edge types: 1
# Building blocks:
#     Node 0, Type 0, BuildingBlock: ICAMEG_clean_sbu_1, # of connection points: 4
#     Node 1, Type 0, BuildingBlock: ICAMEG_clean_sbu_1, # of connection points: 4
#     Node 2, Type 0, BuildingBlock: ICAMEG_clean_sbu_1, # of connection points: 4
#     Node 3, Type 0, BuildingBlock: ICAMEG_clean_sbu_1, # of connection points: 4
#     Node 4, Type 0, BuildingBlock: ICAMEG_clean_sbu_1, # of connection points: 4
#     Node 5, Type 0, BuildingBlock: ICAMEG_clean_sbu_1, # of connection points: 4
#     Node 6, Type 0, BuildingBlock: ICAMEG_clean_sbu_1, # of connection points: 4
#     Node 7, Type 0, BuildingBlock: ICAMEG_clean_sbu_1, # of connection points: 4
#     Node 8, Type 0, BuildingBlock: ICAMEG_clean_sbu_1, # of connection points: 4
#     Node 9, Type 0, BuildingBlock: ICAMEG_clean_sbu_1, # of connection points: 4
#     Node 10, Type 0, BuildingBlock: ICAMEG_clean_sbu_1, # of connection points: 4
#     Node 11, Type 0, BuildingBlock: ICAMEG_clean_sbu_1, # of connection points: 4
#     Edge 12, Type (0, 0), BuildingBlock: CIFDUS_clean_linker_0, # of connection points: 2
#     Edge 13, Type (0, 0), BuildingBlock: CIFDUS_clean_linker_0, # of connection points: 2
#     Edge 14, Type (0, 0), BuildingBlock: CIFDUS_clean_linker_0, # of connection points: 2
#     Edge 15, Type (0, 0), BuildingBlock: CIFDUS_clean_linker_0, # of connection points: 2
#     Edge 16, Type (0, 0), BuildingBlock: CIFDUS_clean_linker_0, # of connection points: 2
#     Edge 17, Type (0, 0), BuildingBlock: CIFDUS_clean_linker_0, # of connection points: 2
#     Edge 18, Type (0, 0), BuildingBlock: CIFDUS_clean_linker_0, # of connection points: 2
#     Edge 19, Type (0, 0), BuildingBlock: CIFDUS_clean_linker_0, # of connection points: 2
#     Edge 20, Type (0, 0), BuildingBlock: CIFDUS_clean_linker_0, # of connection points: 2
#     Edge 21, Type (0, 0), BuildingBlock: CIFDUS_clean_linker_0, # of connection points: 2
#     Edge 22, Type (0, 0), BuildingBlock: CIFDUS_clean_linker_0, # of connection points: 2
#     Edge 23, Type (0, 0), BuildingBlock: CIFDUS_clean_linker_0, # of connection points: 2
#     Edge 24, Type (0, 0), BuildingBlock: CIFDUS_clean_linker_0, # of connection points: 2
#     Edge 25, Type (0, 0), BuildingBlock: CIFDUS_clean_linker_0, # of connection points: 2
#     Edge 26, Type (0, 0), BuildingBlock: CIFDUS_clean_linker_0, # of connection points: 2
#     Edge 27, Type (0, 0), BuildingBlock: CIFDUS_clean_linker_0, # of connection points: 2
#     Edge 28, Type (0, 0), BuildingBlock: CIFDUS_clean_linker_0, # of connection points: 2
#     Edge 29, Type (0, 0), BuildingBlock: CIFDUS_clean_linker_0, # of connection points: 2
#     Edge 30, Type (0, 0), BuildingBlock: CIFDUS_clean_linker_0, # of connection points: 2
#     Edge 31, Type (0, 0), BuildingBlock: CIFDUS_clean_linker_0, # of connection points: 2
#     Edge 32, Type (0, 0), BuildingBlock: CIFDUS_clean_linker_0, # of connection points: 2
#     Edge 33, Type (0, 0), BuildingBlock: CIFDUS_clean_linker_0, # of connection points: 2
#     Edge 34, Type (0, 0), BuildingBlock: CIFDUS_clean_linker_0, # of connection points: 2
#     Edge 35, Type (0, 0), BuildingBlock: CIFDUS_clean_linker_0, # of connection points: 2
# Relax obj value: 0.092
# Max RMSD: 0.154
# Mean RMSD: 0.154
data_MOF--net-umo--node1-ICAMEG_clean_sbu_1--edge1-CIFDUS_clean_linker_0
_symmetry_space_group_name_H-M    P1
_symmetry_Int_Tables_number       1
_symmetry_cell_setting            triclinic
loop_
_symmetry_equiv_pos_as_xyz
'x, y, z'
_cell_length_a     46.119112
_cell_length_b     46.063268
_cell_length_c     35.097647
_cell_angle_alpha  90.115064
_cell_angle_beta   89.929954
_cell_angle_gamma 119.91046
loop_
_atom_site_label
_atom_site_type_symbol
_atom_site_fract_x
_atom_site_fract_y
_atom_site_fract_z
_atom_type_partial_charge
Co0 Co 0.14222 0.57577 0.40507 0.0
Co1 Co 0.18606 0.5338 0.4218 0.0
O2 O 0.15277 0.54026 0.39417 0.0
C3 C 0.07657 0.51196 0.40261 0.0
O4 O 0.09095 0.49504 0.4138 0.0
C5 C 0.20858 0.54442 0.34151 0.0
O6 O 0.19909 0.5669 0.34014 0.0
O7 O 0.2194 0.58236 0.41992 0.0
O8 O 0.19035 0.60894 0.41103 0.0
H9 H 0.27235 0.55899 0.52312 0.0
H10 H 0.11512 0.53434 0.33516 0.0
O11 O 0.09331 0.54364 0.39907 0.0
H12 H 0.18325 0.65052 0.28974 0.0
H13 H 0.08 0.63868 0.3862 0.0
H14 H 0.1676 0.63232 0.4599 0.0
H15 H 0.17741 0.63804 0.35852 0.0
H16 H 0.09403 0.59458 0.37262 0.0
O17 O 0.2049 0.528 0.37213 0.0
H18 H 0.23018 0.56656 0.48823 0.0
H19 H 0.21268 0.48696 0.41324 0.0
H20 H 0.15451 0.67694 0.47428 0.0
H21 H 0.11999 0.54576 0.2662 0.0
H22 H 0.1104 0.68033 0.43729 0.0
H23 H 0.15437 0.6042 0.24305 0.0
O24 O 0.13898 0.56633 0.4608 0.0
H25 H 0.10243 0.42273 0.36563 0.0
H26 H 0.15962 0.48239 0.4833 0.0
H27 H 0.11824 0.42207 0.48608 0.0
H28 H 0.08939 0.39182 0.42691 0.0
H29 H 0.14368 0.48317 0.36427 0.0
H30 H 0.25484 0.47868 0.44714 0.0
H31 H 0.28492 0.51479 0.50258 0.0
O32 O 0.16862 0.54034 0.47183 0.0
C33 C 0.21761 0.60891 0.41624 0.0
C34 C 0.25933 0.54302 0.49909 0.0
C35 C 0.24953 0.49798 0.45641 0.0
N36 N 0.21879 0.52703 0.44897 0.0
C37 C 0.23535 0.54711 0.47931 0.0
C38 C 0.22572 0.50281 0.43729 0.0
C39 C 0.26639 0.51824 0.48753 0.0
C40 C 0.12972 0.55989 0.3254 0.0
N41 N 0.1457 0.5855 0.35092 0.0
C42 C 0.13256 0.56618 0.28627 0.0
C43 C 0.15191 0.59896 0.2733 0.0
C44 C 0.16814 0.62496 0.29948 0.0
C45 C 0.16478 0.61772 0.3384 0.0
C46 C 0.09925 0.63746 0.40254 0.0
C47 C 0.14841 0.63364 0.44365 0.0
C48 C 0.10724 0.61247 0.39506 0.0
N49 N 0.13162 0.61085 0.41548 0.0
C50 C 0.14109 0.65896 0.45194 0.0
C51 C 0.11633 0.66083 0.43119 0.0
C52 C 0.15126 0.5534 0.48317 0.0
C53 C 0.11488 0.43562 0.39159 0.0
C54 C 0.14697 0.46945 0.45751 0.0
C55 C 0.12368 0.43527 0.45922 0.0
C56 C 0.10753 0.4183 0.42599 0.0
N57 N 0.15402 0.48625 0.42366 0.0
C58 C 0.13837 0.46979 0.39095 0.0
Co59 Co 0.66239 0.18307 0.60056 0.0
Co60 Co 0.57872 0.14989 0.5783 0.0
O61 O 0.62297 0.15549 0.56959 0.0
C62 C 0.68023 0.20987 0.52297 0.0
O63 O 0.65075 0.20765 0.52258 0.0
C64 C 0.5701 0.0821 0.57578 0.0
O65 O 0.59569 0.09294 0.59906 0.0
O66 O 0.58055 0.14107 0.63354 0.0
O67 O 0.63529 0.16601 0.64862 0.0
H68 H 0.49317 0.16859 0.64565 0.0
H69 H 0.66486 0.13811 0.54169 0.0
O70 O 0.68984 0.20102 0.55264 0.0
H71 H 0.68776 0.10011 0.66341 0.0
H72 H 0.78445 0.23556 0.63375 0.0
H73 H 0.67628 0.22531 0.66949 0.0
H74 H 0.67839 0.14835 0.6616 0.0
H75 H 0.73368 0.20021 0.59594 0.0
O76 O 0.5586 0.10114 0.56651 0.0
H77 H 0.54934 0.17622 0.63437 0.0
H78 H 0.51275 0.1099 0.53977 0.0
H79 H 0.72635 0.26072 0.70829 0.0
H80 H 0.67434 0.08993 0.54212 0.0
H81 H 0.78092 0.26601 0.69046 0.0
H82 H 0.68577 0.07056 0.60334 0.0
O83 O 0.65362 0.22116 0.59971 0.0
H84 H 0.59229 0.13744 0.43803 0.0
H85 H 0.56102 0.19454 0.53502 0.0
H86 H 0.56036 0.20774 0.46708 0.0
H87 H 0.57609 0.17911 0.41805 0.0
H88 H 0.59292 0.12521 0.50627 0.0
H89 H 0.45611 0.10135 0.55017 0.0
H90 H 0.44606 0.13091 0.60337 0.0
O91 O 0.59839 0.19852 0.58958 0.0
C92 C 0.60426 0.15025 0.65767 0.0
C93 C 0.49723 0.1556 0.62234 0.0
C94 C 0.47643 0.11783 0.56879 0.0
N95 N 0.53433 0.14357 0.58642 0.0
C96 C 0.529 0.15987 0.61578 0.0
C97 C 0.50853 0.12268 0.56312 0.0
C98 C 0.47081 0.13444 0.59863 0.0
C99 C 0.67018 0.13005 0.56837 0.0
N100 N 0.67119 0.14608 0.60157 0.0
C101 C 0.67539 0.10267 0.56846 0.0
C102 C 0.68173 0.09178 0.60283 0.0
C103 C 0.68282 0.10832 0.63656 0.0
C104 C 0.67741 0.13556 0.63538 0.0
C105 C 0.7608 0.2334 0.64185 0.0
C106 C 0.6999 0.22731 0.66174 0.0
C107 C 0.732 0.21347 0.62052 0.0
N108 N 0.70203 0.2105 0.63073 0.0
C109 C 0.72818 0.24748 0.68373 0.0
C110 C 0.7588 0.25047 0.67368 0.0
C111 C 0.62732 0.22347 0.5963 0.0
C112 C 0.58527 0.15 0.45912 0.0
C113 C 0.5679 0.18196 0.51387 0.0
C114 C 0.56743 0.18951 0.47543 0.0
C115 C 0.57623 0.17342 0.44793 0.0
N116 N 0.57681 0.15897 0.52464 0.0
C117 C 0.5854 0.14304 0.49782 0.0
Co118 Co 0.47768 0.66911 0.76643 0.0
Co119 Co 0.42751 0.58486 0.74396 0.0
O120 O 0.46634 0.62942 0.73526 0.0
C121 C 0.46915 0.68755 0.68807 0.0
O122 O 0.44526 0.6564 0.68386 0.0
C123 C 0.48652 0.57463 0.73755 0.0
O124 O 0.50624 0.60493 0.75067 0.0
O125 O 0.4373 0.58728 0.79958 0.0
O126 O 0.46903 0.64198 0.81429 0.0
H127 H 0.32242 0.50101 0.81081 0.0
H128 H 0.5251 0.67434 0.70621 0.0
O129 O 0.4856 0.69714 0.7192 0.0
H130 H 0.58763 0.6972 0.82678 0.0
H131 H 0.54514 0.79135 0.80072 0.0
H132 H 0.44933 0.68176 0.83618 0.0
H133 H 0.52924 0.6854 0.82653 0.0
H134 H 0.53058 0.74102 0.76221 0.0
O135 O 0.45517 0.56315 0.7345 0.0
H136 H 0.37137 0.55676 0.79922 0.0
H137 H 0.40114 0.51807 0.70655 0.0
H138 H 0.46316 0.73138 0.87567 0.0
H139 H 0.58359 0.68645 0.70505 0.0
H140 H 0.51137 0.78667 0.85798 0.0
H141 H 0.6152 0.69785 0.76569 0.0
O142 O 0.43067 0.65957 0.76637 0.0
H143 H 0.45559 0.5955 0.60432 0.0
H144 H 0.36607 0.56686 0.69873 0.0
H145 H 0.35326 0.56467 0.63026 0.0
H146 H 0.39818 0.579 0.58251 0.0
H147 H 0.46742 0.59776 0.67305 0.0
H148 H 0.35263 0.46184 0.71733 0.0
H149 H 0.31279 0.45305 0.7697 0.0
O150 O 0.39874 0.60487 0.75315 0.0
C151 C 0.45289 0.61099 0.82352 0.0
C152 C 0.33957 0.50452 0.78787 0.0
C153 C 0.35656 0.48254 0.73544 0.0
N154 N 0.38908 0.54071 0.75222 0.0
C155 C 0.36732 0.53605 0.78114 0.0
C156 C 0.38405 0.51442 0.72956 0.0
C157 C 0.3342 0.47762 0.76481 0.0
C158 C 0.53883 0.67963 0.73264 0.0
N159 N 0.52381 0.67918 0.76639 0.0
C160 C 0.57188 0.68631 0.73184 0.0
C161 C 0.58958 0.69264 0.76588 0.0
C162 C 0.57411 0.69224 0.80018 0.0
C163 C 0.541 0.68539 0.79989 0.0
C164 C 0.52412 0.76739 0.80876 0.0
C165 C 0.4705 0.7057 0.82847 0.0
C166 C 0.51573 0.73882 0.78704 0.0
N167 N 0.48931 0.70846 0.79714 0.0
C168 C 0.47814 0.73372 0.85087 0.0
C169 C 0.50517 0.76474 0.8409 0.0
C170 C 0.40236 0.63345 0.76113 0.0
C171 C 0.43577 0.58906 0.62484 0.0
C172 C 0.38579 0.5732 0.67815 0.0
C173 C 0.37836 0.57185 0.6394 0.0
C174 C 0.40357 0.57986 0.61263 0.0
N175 N 0.41743 0.58219 0.68993 0.0
C176 C 0.44227 0.59008 0.66383 0.0
Co177 Co 0.84874 0.42488 0.91062 0.0
Co178 Co 0.80433 0.46469 0.93604 0.0
O179 O 0.83686 0.46003 0.90426 0.0
C180 C 0.91402 0.48954 0.90211 0.0
O181 O 0.89962 0.50745 0.90854 0.0
C182 C 0.77781 0.456 0.85764 0.0
O183 O 0.78856 0.43479 0.85223 0.0
O184 O 0.77167 0.41598 0.93295 0.0
O185 O 0.80111 0.3908 0.91811 0.0
H186 H 0.72265 0.43444 0.04402 0.0
H187 H 0.87138 0.46841 0.84167 0.0
O188 O 0.89735 0.45769 0.90306 0.0
H189 H 0.8044 0.35305 0.79312 0.0
H190 H 0.91166 0.36443 0.8797 0.0
H191 H 0.8268 0.36712 0.96289 0.0
H192 H 0.813 0.36383 0.86215 0.0
H193 H 0.89612 0.40808 0.87155 0.0
O194 O 0.78266 0.47116 0.88947 0.0
H195 H 0.76375 0.42921 1.00382 0.0
H196 H 0.77585 0.51031 0.9351 0.0
H197 H 0.84143 0.32289 0.97187 0.0
H198 H 0.86377 0.4587 0.7725 0.0
H199 H 0.88416 0.32135 0.93008 0.0
H200 H 0.82994 0.40068 0.74775 0.0
O201 O 0.85425 0.43264 0.96673 0.0
H202 H 0.88221 0.57838 0.88161 0.0
H203 H 0.83303 0.51428 0.99944 0.0
H204 H 0.87308 0.57489 1.0035 0.0
H205 H 0.89788 0.60738 0.94425 0.0
H206 H 0.84249 0.5176 0.87896 0.0
H207 H 0.73469 0.51626 0.97437 0.0
H208 H 0.70788 0.47821 0.02935 0.0
O209 O 0.82445 0.45738 0.98317 0.0
C210 C 0.77384 0.38998 0.92614 0.0
C211 C 0.73426 0.45125 0.02022 0.0
C212 C 0.74098 0.49714 0.9811 0.0
N213 N 0.77239 0.46962 0.96738 0.0
C214 C 0.75762 0.44848 0.99745 0.0
C215 C 0.76423 0.49362 0.95894 0.0
C216 C 0.72595 0.47579 1.01195 0.0
C217 C 0.85716 0.44305 0.83124 0.0
N218 N 0.8431 0.41672 0.85605 0.0
C219 C 0.8527 0.43772 0.79197 0.0
C220 C 0.83365 0.40517 0.77811 0.0
C221 C 0.81929 0.37844 0.80355 0.0
C222 C 0.82424 0.38472 0.84263 0.0
C223 C 0.893 0.36482 0.89808 0.0
C224 C 0.84534 0.36657 0.94453 0.0
C225 C 0.88416 0.38955 0.89368 0.0
N226 N 0.86051 0.39013 0.91669 0.0
C227 C 0.85356 0.34148 0.94977 0.0
C228 C 0.87755 0.34065 0.92634 0.0
C229 C 0.84273 0.44463 0.99147 0.0
C230 C 0.87155 0.5645 0.90762 0.0
C231 C 0.84402 0.52817 0.97359 0.0
C232 C 0.86653 0.56252 0.97604 0.0
C233 C 0.88038 0.58075 0.94278 0.0
N234 N 0.83556 0.51241 0.93901 0.0
C235 C 0.84893 0.53012 0.90628 0.0
Co236 Co 0.33062 0.81098 0.09521 0.0
Co237 Co 0.41522 0.84677 0.07611 0.0
O238 O 0.37073 0.84007 0.06592 0.0
C239 C 0.31627 0.786 0.01634 0.0
O240 O 0.34662 0.79043 0.01627 0.0
C241 C 0.42193 0.91383 0.07481 0.0
O242 O 0.39535 0.90194 0.0967 0.0
O243 O 0.41132 0.85404 0.13136 0.0
O244 O 0.35615 0.82793 0.14454 0.0
H245 H 0.50048 0.8294 0.14582 0.0
H246 H 0.32803 0.85574 0.03644 0.0
O247 O 0.30478 0.79285 0.04606 0.0
H248 H 0.3001 0.89062 0.1575 0.0
H249 H 0.20737 0.75454 0.12363 0.0
H250 H 0.31591 0.76787 0.16334 0.0
H251 H 0.31148 0.84367 0.15583 0.0
H252 H 0.25889 0.79167 0.08789 0.0
O253 O 0.43448 0.89559 0.06595 0.0
H254 H 0.44409 0.82042 0.13261 0.0
H255 H 0.48214 0.88912 0.04047 0.0
H256 H 0.26508 0.73068 0.20008 0.0
H257 H 0.31662 0.90268 0.03673 0.0
H258 H 0.21032 0.72383 0.18025 0.0
H259 H 0.30264 0.92047 0.09761 0.0
O260 O 0.34091 0.77403 0.09449 0.0
H261 H 0.40642 0.86277 0.93575 0.0
H262 H 0.43589 0.8044 0.0326 0.0
H263 H 0.43975 0.79359 0.96446 0.0
H264 H 0.42498 0.82291 0.9155 0.0
H265 H 0.40261 0.87262 1.00415 0.0
H266 H 0.53901 0.89904 0.05285 0.0
H267 H 0.54845 0.86898 0.10578 0.0
O268 O 0.39646 0.79811 0.08592 0.0
C269 C 0.38694 0.84395 0.15472 0.0
C270 C 0.4967 0.84262 0.12264 0.0
C271 C 0.51832 0.88174 0.0705 0.0
N272 N 0.45981 0.85418 0.08577 0.0
C273 C 0.4648 0.8376 0.11498 0.0
C274 C 0.48608 0.87611 0.06371 0.0
C275 C 0.52359 0.86485 0.10018 0.0
C276 C 0.32161 0.86311 0.06296 0.0
N277 N 0.32026 0.84691 0.09605 0.0
C278 C 0.31531 0.8898 0.06298 0.0
C279 C 0.30753 0.8998 0.09717 0.0
C280 C 0.30613 0.88309 0.13079 0.0
C281 C 0.31266 0.85657 0.12969 0.0
C282 C 0.2311 0.75737 0.13261 0.0
C283 C 0.2922 0.76519 0.15472 0.0
C284 C 0.26032 0.77831 0.11245 0.0
N285 N 0.29037 0.78213 0.12375 0.0
C286 C 0.26349 0.74402 0.17555 0.0
C287 C 0.23277 0.74016 0.16438 0.0
C288 C 0.36772 0.77262 0.09177 0.0
C289 C 0.41306 0.84995 0.95681 0.0
C290 C 0.42938 0.81723 1.01148 0.0
C291 C 0.43167 0.81105 0.97293 0.0
C292 C 0.42341 0.82753 0.94547 0.0
N293 N 0.41923 0.83928 0.02239 0.0
C294 C 0.41113 0.85556 0.99561 0.0
Co295 Co 0.52617 0.3312 0.26997 0.0
Co296 Co 0.56698 0.4155 0.24683 0.0
O297 O 0.53218 0.36884 0.23848 0.0
C298 C 0.53416 0.31302 0.19136 0.0
O299 O 0.55652 0.34463 0.18631 0.0
C300 C 0.50314 0.41651 0.24103 0.0
O301 O 0.48842 0.38969 0.26254 0.0
O302 O 0.55551 0.41283 0.30203 0.0
O303 O 0.53372 0.35844 0.31751 0.0
H304 H 0.66477 0.5097 0.3144 0.0
H305 H 0.47474 0.32083 0.21275 0.0
O306 O 0.51898 0.30304 0.22315 0.0
H307 H 0.41597 0.2921 0.3363 0.0
H308 H 0.47166 0.20961 0.30697 0.0
H309 H 0.56061 0.32445 0.33772 0.0
H310 H 0.47592 0.30962 0.33267 0.0
H311 H 0.47904 0.25748 0.26823 0.0
O312 O 0.53434 0.43044 0.23425 0.0
H313 H 0.6214 0.45094 0.30327 0.0
H314 H 0.58602 0.47979 0.20703 0.0
H315 H 0.55396 0.27734 0.37741 0.0
H316 H 0.41468 0.3031 0.21497 0.0
H317 H 0.50923 0.21943 0.36208 0.0
H318 H 0.38494 0.28871 0.27712 0.0
O319 O 0.57467 0.34609 0.26704 0.0
H320 H 0.54229 0.39978 0.10637 0.0
H321 H 0.63089 0.43986 0.20395 0.0
H322 H 0.64595 0.4427 0.1361 0.0
H323 H 0.60149 0.42264 0.08676 0.0
H324 H 0.52825 0.39697 0.17454 0.0
H325 H 0.62888 0.5389 0.21723 0.0
H326 H 0.66871 0.55418 0.2712 0.0
O327 O 0.60052 0.40177 0.25871 0.0
C328 C 0.54435 0.38907 0.32634 0.0
C329 C 0.64756 0.50337 0.29079 0.0
C330 C 0.62739 0.51976 0.23629 0.0
N331 N 0.60111 0.46192 0.25463 0.0
C332 C 0.62295 0.47013 0.28435 0.0
C333 C 0.60307 0.48625 0.23075 0.0
C334 C 0.64974 0.52831 0.26656 0.0
C335 C 0.46187 0.31432 0.23984 0.0
N336 N 0.47878 0.31626 0.27255 0.0
C337 C 0.42791 0.30443 0.24094 0.0
C338 C 0.41125 0.29641 0.27583 0.0
C339 C 0.42866 0.29834 0.30906 0.0
C340 C 0.46263 0.30841 0.30686 0.0
C341 C 0.4912 0.23474 0.31398 0.0
C342 C 0.54093 0.29934 0.33106 0.0
C343 C 0.49553 0.26192 0.29212 0.0
N344 N 0.52005 0.29373 0.30093 0.0
C345 C 0.53736 0.27276 0.35355 0.0
C346 C 0.51228 0.24027 0.34491 0.0
C347 C 0.60096 0.37468 0.26408 0.0
C348 C 0.5619 0.40871 0.1276 0.0
C349 C 0.61136 0.43093 0.18269 0.0
C350 C 0.62006 0.4327 0.14429 0.0
C351 C 0.59511 0.42148 0.11662 0.0
N352 N 0.57871 0.41838 0.19326 0.0
C353 C 0.55412 0.40736 0.16626 0.0
Co354 Co 0.47301 0.81258 0.42533 0.0
Co355 Co 0.42137 0.84483 0.44855 0.0
O356 O 0.4608 0.84003 0.4569 0.0
C357 C 0.46595 0.78578 0.50354 0.0
O358 O 0.44112 0.79167 0.50792 0.0
C359 C 0.47915 0.91415 0.45391 0.0
O360 O 0.49831 0.90408 0.43785 0.0
O361 O 0.43129 0.85317 0.39309 0.0
O362 O 0.46299 0.83027 0.37769 0.0
H363 H 0.31579 0.82247 0.3819 0.0
H364 H 0.52028 0.85592 0.48495 0.0
O365 O 0.48233 0.79326 0.47231 0.0
H366 H 0.58128 0.89659 0.36358 0.0
H367 H 0.54321 0.76102 0.38958 0.0
H368 H 0.4449 0.77121 0.3558 0.0
H369 H 0.52361 0.84874 0.36457 0.0
H370 H 0.52753 0.79571 0.42855 0.0
O371 O 0.44813 0.89397 0.45899 0.0
H372 H 0.3655 0.81677 0.39295 0.0
H373 H 0.39349 0.88345 0.48712 0.0
H374 H 0.45983 0.73646 0.31587 0.0
H375 H 0.57805 0.90363 0.48535 0.0
H376 H 0.5093 0.73119 0.33271 0.0
H377 H 0.60889 0.92433 0.42431 0.0
O378 O 0.42649 0.77425 0.42592 0.0
H379 H 0.44873 0.86078 0.58836 0.0
H380 H 0.36017 0.7995 0.49313 0.0
H381 H 0.34723 0.78761 0.56144 0.0
H382 H 0.39168 0.8184 0.60959 0.0
H383 H 0.46071 0.87163 0.51977 0.0
H384 H 0.3442 0.89006 0.47692 0.0
H385 H 0.30488 0.85935 0.42407 0.0
O386 O 0.39362 0.7962 0.43827 0.0
C387 C 0.44663 0.84501 0.36882 0.0
C388 C 0.33271 0.83595 0.40506 0.0
C389 C 0.34868 0.87392 0.45836 0.0
N390 N 0.38235 0.84968 0.44068 0.0
C391 C 0.36088 0.83279 0.41149 0.0
C392 C 0.37661 0.87015 0.46392 0.0
C393 C 0.32662 0.85667 0.42871 0.0
C394 C 0.53369 0.86458 0.45834 0.0
N395 N 0.51864 0.84957 0.42479 0.0
C396 C 0.56633 0.8917 0.45872 0.0
C397 C 0.58359 0.90334 0.42445 0.0
C398 C 0.5681 0.88781 0.39035 0.0
C399 C 0.5354 0.86082 0.39107 0.0
C400 C 0.52164 0.76318 0.38191 0.0
C401 C 0.4666 0.76922 0.36314 0.0
C402 C 0.51261 0.78273 0.40389 0.0
N403 N 0.48549 0.78569 0.39425 0.0
C404 C 0.47487 0.74943 0.3405 0.0
C405 C 0.50261 0.74646 0.34999 0.0
C406 C 0.3979 0.77159 0.43053 0.0
C407 C 0.42912 0.8473 0.56765 0.0
C408 C 0.37968 0.81296 0.51389 0.0
C409 C 0.37218 0.80617 0.55254 0.0
C410 C 0.39712 0.82347 0.57954 0.0
N411 N 0.41112 0.83641 0.50243 0.0
C412 C 0.4357 0.85349 0.52876 0.0
Co413 Co 0.57341 0.42437 0.62113 0.0
Co414 Co 0.65732 0.46368 0.59636 0.0
O415 O 0.62038 0.45858 0.62848 0.0
C416 C 0.57449 0.48934 0.62426 0.0
O417 O 0.60119 0.50244 0.60249 0.0
C418 C 0.67545 0.45424 0.67429 0.0
O419 O 0.6437 0.43243 0.67944 0.0
O420 O 0.6412 0.41485 0.59854 0.0
O421 O 0.58604 0.38974 0.61027 0.0
H422 H 0.70877 0.4345 0.48726 0.0
H423 H 0.59375 0.46509 0.6921 0.0
O424 O 0.55971 0.45833 0.63258 0.0
H425 H 0.54592 0.348 0.73432 0.0
H426 H 0.45054 0.36591 0.65262 0.0
H427 H 0.53641 0.36853 0.56661 0.0
H428 H 0.54809 0.36138 0.66603 0.0
H429 H 0.51004 0.40807 0.66136 0.0
O430 O 0.68551 0.46983 0.64274 0.0
H431 H 0.6625 0.42886 0.52781 0.0
H432 H 0.73122 0.50937 0.59747 0.0
H433 H 0.47723 0.32581 0.55695 0.0
H434 H 0.59172 0.45278 0.76067 0.0
H435 H 0.4338 0.32433 0.60015 0.0
H436 H 0.5678 0.39388 0.78218 0.0
O437 O 0.57568 0.43441 0.56552 0.0
H438 H 0.68855 0.57578 0.65286 0.0
H439 H 0.67933 0.51433 0.53413 0.0
H440 H 0.69812 0.57468 0.53124 0.0
H441 H 0.70285 0.6058 0.59094 0.0
H442 H 0.66958 0.51534 0.65435 0.0
H443 H 0.77827 0.51572 0.55786 0.0
H444 H 0.76715 0.47818 0.50223 0.0
O445 O 0.62999 0.45704 0.54932 0.0
C446 C 0.61265 0.38881 0.60315 0.0
C447 C 0.71392 0.45109 0.51134 0.0
C448 C 0.75294 0.49665 0.551 0.0
N449 N 0.69414 0.46896 0.56473 0.0
C450 C 0.68782 0.44809 0.53432 0.0
C451 C 0.72621 0.4929 0.57335 0.0
C452 C 0.74668 0.47558 0.51978 0.0
C453 C 0.58291 0.43936 0.70122 0.0
N454 N 0.57088 0.41399 0.67504 0.0
C455 C 0.582 0.43256 0.7401 0.0
C456 C 0.56863 0.39951 0.75214 0.0
C457 C 0.55638 0.37376 0.7253 0.0
C458 C 0.55775 0.38151 0.68665 0.0
C459 C 0.46922 0.36633 0.63357 0.0
C460 C 0.51768 0.36804 0.58552 0.0
C461 C 0.50294 0.39023 0.63829 0.0
N462 N 0.52669 0.39082 0.61444 0.0
C463 C 0.4842 0.34379 0.57992 0.0
C464 C 0.45985 0.34299 0.60415 0.0
C465 C 0.59925 0.44588 0.54093 0.0
C466 C 0.68666 0.56251 0.62667 0.0
C467 C 0.68119 0.52769 0.56018 0.0
C468 C 0.69195 0.56187 0.55839 0.0
C469 C 0.69463 0.57933 0.59191 0.0
N470 N 0.6734 0.51138 0.59437 0.0
C471 C 0.67607 0.52833 0.62736 0.0
Co472 Co 0.18984 0.65901 0.76372 0.0
Co473 Co 0.14582 0.57344 0.77874 0.0
O474 O 0.15673 0.61918 0.7907 0.0
C475 C 0.21089 0.66962 0.84415 0.0
O476 O 0.20412 0.63839 0.84347 0.0
C477 C 0.08163 0.5733 0.7803 0.0
O478 O 0.09525 0.60027 0.75896 0.0
O479 O 0.14074 0.58008 0.72361 0.0
O480 O 0.17354 0.63547 0.71314 0.0
H481 H 0.15432 0.48388 0.70595 0.0
H482 H 0.14476 0.66458 0.81982 0.0
O483 O 0.20699 0.68291 0.81411 0.0
H484 H 0.12214 0.70231 0.69773 0.0
H485 H 0.25796 0.78316 0.74056 0.0
H486 H 0.23536 0.67159 0.69835 0.0
H487 H 0.16479 0.68501 0.70183 0.0
H488 H 0.21551 0.73213 0.77325 0.0
O489 O 0.09772 0.55826 0.78807 0.0
H490 H 0.16881 0.5418 0.7215 0.0
H491 H 0.09779 0.50669 0.81151 0.0
H492 H 0.27785 0.72193 0.66465 0.0
H493 H 0.10208 0.68189 0.81712 0.0
H494 H 0.28938 0.77821 0.68576 0.0
H495 H 0.09047 0.70082 0.7557 0.0
O496 O 0.2234 0.64403 0.76638 0.0
H497 H 0.12803 0.57964 0.91928 0.0
H498 H 0.18238 0.54575 0.82166 0.0
H499 H 0.19029 0.53818 0.88964 0.0
H500 H 0.16295 0.55512 0.93898 0.0
H501 H 0.12117 0.58724 0.85106 0.0
H502 H 0.08239 0.44836 0.79682 0.0
H503 H 0.1108 0.43666 0.74376 0.0
O504 O 0.19373 0.58791 0.76998 0.0
C505 C 0.1546 0.60539 0.70145 0.0
C506 C 0.14176 0.48865 0.72915 0.0
C507 C 0.10136 0.46872 0.78011 0.0
N508 N 0.13414 0.52764 0.76732 0.0
C509 C 0.14988 0.5214 0.73809 0.0
C510 C 0.1101 0.5018 0.7882 0.0
C511 C 0.11733 0.46217 0.75035 0.0
C512 C 0.14007 0.6731 0.79309 0.0
N513 N 0.15729 0.67388 0.76104 0.0
C514 C 0.11578 0.68274 0.79169 0.0
C515 C 0.10923 0.6933 0.7572 0.0
C516 C 0.12698 0.69411 0.72466 0.0
C517 C 0.15102 0.6842 0.72712 0.0
C518 C 0.25311 0.75878 0.73104 0.0
C519 C 0.24008 0.696 0.7075 0.0
C520 C 0.22915 0.72981 0.74947 0.0
N521 N 0.22279 0.69894 0.73747 0.0
C522 C 0.26423 0.72441 0.6884 0.0
C523 C 0.27072 0.75598 0.70029 0.0
C524 C 0.22128 0.61538 0.76712 0.0
C525 C 0.13997 0.57204 0.89804 0.0
C526 C 0.17049 0.5533 0.84294 0.0
C527 C 0.17499 0.54887 0.8814 0.0
C528 C 0.15961 0.55834 0.90908 0.0
N529 N 0.15117 0.56676 0.83232 0.0
C530 C 0.13602 0.57611 0.85932 0.0
Co531 Co 0.51951 0.1839 0.92789 0.0
Co532 Co 0.57161 0.15213 0.95027 0.0
O533 O 0.53226 0.15689 0.95928 0.0
C534 C 0.52924 0.21226 1.00528 0.0
O535 O 0.55443 0.20675 1.00802 0.0
C536 C 0.51392 0.08293 0.95585 0.0
O537 O 0.49479 0.09293 0.93966 0.0
O538 O 0.56093 0.14336 0.89506 0.0
O539 O 0.52838 0.16536 0.88016 0.0
H540 H 0.67626 0.17393 0.88163 0.0
H541 H 0.47354 0.14159 0.98896 0.0
O542 O 0.51146 0.20399 0.97508 0.0
H543 H 0.40985 0.09905 0.86946 0.0
H544 H 0.44883 0.23524 0.89403 0.0
H545 H 0.54604 0.224 0.85737 0.0
H546 H 0.46755 0.14684 0.86869 0.0
H547 H 0.46531 0.20112 0.93268 0.0
O548 O 0.54494 0.10311 0.96097 0.0
H549 H 0.62671 0.17974 0.89367 0.0
H550 H 0.59996 0.11379 0.98816 0.0
H551 H 0.5303 0.25815 0.81773 0.0
H552 H 0.41578 0.09393 0.99112 0.0
H553 H 0.48138 0.26395 0.83602 0.0
H554 H 0.38358 0.07229 0.93103 0.0
O555 O 0.56605 0.22218 0.92706 0.0
H556 H 0.54574 0.13741 0.09045 0.0
H557 H 0.63337 0.19763 0.99396 0.0
H558 H 0.64704 0.2101 0.06208 0.0
H559 H 0.60306 0.17987 0.11086 0.0
H560 H 0.53305 0.12594 0.02203 0.0
H561 H 0.6491 0.10707 0.97697 0.0
H562 H 0.68772 0.13736 0.92346 0.0
O563 O 0.59926 0.20073 0.93976 0.0
C564 C 0.54484 0.15075 0.87109 0.0
C565 C 0.65966 0.16065 0.90509 0.0
C566 C 0.64438 0.12309 0.95856 0.0
N567 N 0.61052 0.14723 0.94165 0.0
C568 C 0.63159 0.16389 0.91209 0.0
C569 C 0.61654 0.12692 0.96469 0.0
C570 C 0.66605 0.1401 0.92854 0.0
C571 C 0.45954 0.13252 0.96276 0.0
N572 N 0.47384 0.14699 0.92876 0.0
C573 C 0.42691 0.10544 0.96413 0.0
C574 C 0.40889 0.09327 0.93039 0.0
C575 C 0.42362 0.10824 0.89583 0.0
C576 C 0.45634 0.13522 0.89555 0.0
C577 C 0.47015 0.23285 0.88572 0.0
C578 C 0.52458 0.22622 0.86534 0.0
C579 C 0.47963 0.21361 0.90753 0.0
N580 N 0.50643 0.21036 0.89709 0.0
C581 C 0.51585 0.24567 0.84286 0.0
C582 C 0.48842 0.24894 0.85317 0.0
C583 C 0.59476 0.22511 0.9317 0.0
C584 C 0.56515 0.15065 0.06947 0.0
C585 C 0.61407 0.18437 0.015 0.0
C586 C 0.62199 0.19151 0.05354 0.0
C587 C 0.5973 0.17452 0.0809 0.0
N588 N 0.58248 0.1609 1.004 0.0
C589 C 0.55816 0.14412 0.03068 0.0
Co590 Co 0.42898 0.57683 0.11773 0.0
Co591 Co 0.34352 0.53562 0.10014 0.0
O592 O 0.38286 0.54174 0.12831 0.0
C593 C 0.43018 0.51255 0.12219 0.0
O594 O 0.39893 0.49561 0.11102 0.0
C595 C 0.33098 0.54608 0.18028 0.0
O596 O 0.3628 0.56874 0.18188 0.0
O597 O 0.35888 0.58419 0.10244 0.0
O598 O 0.41449 0.61043 0.11066 0.0
H599 H 0.28362 0.5619 0.99833 0.0
H600 H 0.41383 0.53615 0.18829 0.0
O601 O 0.44529 0.54432 0.12488 0.0
H602 H 0.4624 0.65301 0.23209 0.0
H603 H 0.55372 0.6388 0.13808 0.0
H604 H 0.46086 0.63263 0.06226 0.0
H605 H 0.4561 0.63969 0.16347 0.0
H606 H 0.49547 0.59532 0.15133 0.0
O607 O 0.31853 0.52968 0.14954 0.0
H608 H 0.3329 0.56895 0.03378 0.0
H609 H 0.27012 0.48908 0.10766 0.0
H610 H 0.51871 0.67663 0.0482 0.0
H611 H 0.42003 0.54841 0.25712 0.0
H612 H 0.56565 0.67991 0.08625 0.0
H613 H 0.44434 0.60719 0.27945 0.0
O614 O 0.42319 0.56673 0.06211 0.0
H615 H 0.31486 0.42395 0.15555 0.0
H616 H 0.31927 0.48457 0.03807 0.0
H617 H 0.30011 0.42416 0.0348 0.0
H618 H 0.29772 0.39343 0.09387 0.0
H619 H 0.33431 0.48448 0.15739 0.0
H620 H 0.22013 0.48132 0.07319 0.0
H621 H 0.22674 0.51782 0.01801 0.0
O622 O 0.36789 0.54234 0.05036 0.0
C623 C 0.38728 0.61063 0.10567 0.0
C624 C 0.28043 0.54575 0.02223 0.0
C625 C 0.24479 0.50055 0.06428 0.0
N626 N 0.30439 0.52925 0.07251 0.0
C627 C 0.30824 0.54955 0.04233 0.0
C628 C 0.27317 0.5051 0.08372 0.0
C629 C 0.24852 0.52104 0.03332 0.0
C630 C 0.42489 0.56184 0.1977 0.0
N631 N 0.43486 0.58718 0.1718 0.0
C632 C 0.42814 0.56861 0.23675 0.0
C633 C 0.44172 0.60158 0.24926 0.0
C634 C 0.45183 0.6273 0.22271 0.0
C635 C 0.44814 0.61959 0.18388 0.0
C636 C 0.53349 0.63762 0.12129 0.0
C637 C 0.48112 0.63393 0.07901 0.0
C638 C 0.50045 0.61299 0.12858 0.0
N639 N 0.47475 0.61143 0.10759 0.0
C640 C 0.51384 0.65889 0.07089 0.0
C641 C 0.54016 0.6607 0.09223 0.0
C642 C 0.39826 0.55458 0.03936 0.0
C643 C 0.31571 0.43705 0.12963 0.0
C644 C 0.31857 0.47143 0.06382 0.0
C645 C 0.30755 0.43719 0.06184 0.0
C646 C 0.30617 0.41995 0.095 0.0
N647 N 0.32792 0.48802 0.09788 0.0
C648 C 0.32654 0.47128 0.13053 0.0
Co649 Co 0.80508 0.32293 0.25869 0.0
Co650 Co 0.83864 0.40638 0.2833 0.0
O651 O 0.83198 0.36156 0.29125 0.0
C652 C 0.77394 0.30415 0.33421 0.0
O653 O 0.77776 0.33429 0.33528 0.0
C654 C 0.90609 0.41403 0.28707 0.0
O655 O 0.89547 0.38829 0.26392 0.0
O656 O 0.84824 0.40523 0.22813 0.0
O657 O 0.82497 0.35083 0.21171 0.0
H658 H 0.82279 0.49411 0.21708 0.0
H659 H 0.84595 0.31758 0.32037 0.0
O660 O 0.78388 0.29459 0.30535 0.0
H661 H 0.88908 0.29611 0.20132 0.0
H662 H 0.75154 0.20125 0.22228 0.0
H663 H 0.76644 0.31153 0.18734 0.0
H664 H 0.84187 0.30703 0.19997 0.0
H665 H 0.78594 0.25097 0.26219 0.0
O666 O 0.88705 0.42566 0.29586 0.0
H667 H 0.81393 0.43732 0.22752 0.0
H668 H 0.87896 0.4718 0.32316 0.0
H669 H 0.73203 0.26256 0.14646 0.0
H670 H 0.89307 0.30657 0.32308 0.0
H671 H 0.7244 0.20693 0.16388 0.0
H672 H 0.915 0.29585 0.26322 0.0
O673 O 0.76785 0.33296 0.25718 0.0
H674 H 0.84902 0.39105 0.42348 0.0
H675 H 0.79439 0.42481 0.32642 0.0
H676 H 0.7809 0.42553 0.3943 0.0
H677 H 0.80835 0.40863 0.44337 0.0
H678 H 0.86156 0.39039 0.35529 0.0
H679 H 0.88873 0.52903 0.3136 0.0
H680 H 0.86046 0.54046 0.26031 0.0
O681 O 0.79038 0.3876 0.27133 0.0
C682 C 0.8405 0.38205 0.20351 0.0
C683 C 0.83523 0.48945 0.24043 0.0
C684 C 0.87228 0.50905 0.29457 0.0
N685 N 0.84588 0.45124 0.27592 0.0
C686 C 0.83027 0.45733 0.24652 0.0
C687 C 0.86674 0.47662 0.29976 0.0
C688 C 0.85639 0.51544 0.26468 0.0
C689 C 0.85515 0.3126 0.29426 0.0
N690 N 0.84113 0.31282 0.26007 0.0
C691 C 0.88192 0.30652 0.29595 0.0
C692 C 0.89425 0.30056 0.26234 0.0
C693 C 0.87973 0.30073 0.22759 0.0
C694 C 0.85306 0.30699 0.22699 0.0
C695 C 0.75474 0.22537 0.21435 0.0
C696 C 0.76342 0.28745 0.19494 0.0
C697 C 0.77413 0.25358 0.23686 0.0
N698 N 0.77841 0.28413 0.22689 0.0
C699 C 0.74382 0.25979 0.17176 0.0
C700 C 0.73953 0.22858 0.18157 0.0
C701 C 0.76564 0.35919 0.26227 0.0
C702 C 0.83698 0.39858 0.40238 0.0
C703 C 0.8064 0.41735 0.34759 0.0
C704 C 0.7987 0.41787 0.38599 0.0
C705 C 0.81412 0.4084 0.41351 0.0
N706 N 0.82891 0.40777 0.33688 0.0
C707 C 0.8441 0.39841 0.36371 0.0
H708 H 0.28194 0.62117 0.41847 0.0
H709 H 0.22303 0.67052 0.41831 0.0
H710 H 0.2736 0.72471 0.42256 0.0
H711 H 0.33387 0.75806 0.42694 0.0
H712 H 0.39406 0.71022 0.42596 0.0
H713 H 0.34337 0.65532 0.42142 0.0
C714 C 0.28016 0.64377 0.41937 0.0
C715 C 0.24866 0.64166 0.41823 0.0
C716 C 0.30944 0.67508 0.42159 0.0
C717 C 0.24686 0.67126 0.41918 0.0
C718 C 0.27578 0.70235 0.42163 0.0
C719 C 0.33609 0.73572 0.42574 0.0
C720 C 0.36772 0.73827 0.42695 0.0
C721 C 0.3071 0.7045 0.42296 0.0
C722 C 0.36998 0.70896 0.42507 0.0
C723 C 0.34104 0.67758 0.42254 0.0
H724 H 0.57713 0.23809 0.59623 0.0
H725 H 0.68477 0.28441 0.60178 0.0
H726 H 0.68976 0.3397 0.60359 0.0
H727 H 0.66354 0.37485 0.60326 0.0
H728 H 0.55578 0.32783 0.5988 0.0
H729 H 0.55105 0.27284 0.59671 0.0
C730 C 0.60175 0.2602 0.59787 0.0
C731 C 0.63051 0.257 0.59877 0.0
C732 C 0.60447 0.29185 0.59894 0.0
C733 C 0.66216 0.28606 0.60108 0.0
C734 C 0.66507 0.31772 0.60203 0.0
C735 C 0.63902 0.3526 0.60165 0.0
C736 C 0.6101 0.35557 0.60104 0.0
C737 C 0.63638 0.32091 0.60083 0.0
C738 C 0.57851 0.32639 0.59931 0.0
C739 C 0.57573 0.29487 0.59813 0.0
H740 H 0.2856 0.66714 0.77044 0.0
H741 H 0.22681 0.55938 0.75987 0.0
H742 H 0.27759 0.55582 0.75747 0.0
H743 H 0.33817 0.58278 0.75828 0.0
H744 H 0.39785 0.69034 0.76954 0.0
H745 H 0.34697 0.69431 0.77194 0.0
C746 C 0.28387 0.64287 0.76752 0.0
C747 C 0.25236 0.61362 0.76526 0.0
C748 C 0.31324 0.64088 0.76639 0.0
C749 C 0.25065 0.58236 0.76169 0.0
C750 C 0.27969 0.58024 0.76032 0.0
C751 C 0.34022 0.60718 0.76126 0.0
C752 C 0.37184 0.63621 0.76363 0.0
C753 C 0.31105 0.6093 0.76266 0.0
C754 C 0.37383 0.66754 0.76769 0.0
C755 C 0.34477 0.66986 0.76899 0.0
H756 H 0.70917 0.37651 0.92689 0.0
H757 H 0.76969 0.32893 0.92688 0.0
H758 H 0.71961 0.27411 0.92782 0.0
H759 H 0.6592 0.2397 0.92917 0.0
H760 H 0.59761 0.28601 0.92816 0.0
H761 H 0.64778 0.34142 0.92676 0.0
C762 C 0.71139 0.35415 0.92723 0.0
C763 C 0.74317 0.3569 0.92703 0.0
C764 C 0.68241 0.32251 0.9274 0.0
C765 C 0.7456 0.32765 0.92706 0.0
C766 C 0.71696 0.29621 0.92759 0.0
C767 C 0.65658 0.26183 0.9286 0.0
C768 C 0.62468 0.25868 0.92893 0.0
C769 C 0.68532 0.29339 0.9278 0.0
C770 C 0.6219 0.28771 0.92786 0.0
C771 C 0.65055 0.3194 0.9272 0.0
H772 H 0.41907 0.75996 0.0957 0.0
H773 H 0.31112 0.71095 0.09499 0.0
H774 H 0.30767 0.65645 0.0992 0.0
H775 H 0.33531 0.62281 0.10259 0.0
H776 H 0.44334 0.67244 0.10418 0.0
H777 H 0.44655 0.72666 0.10011 0.0
C778 C 0.39473 0.73742 0.09645 0.0
C779 C 0.36543 0.7396 0.09492 0.0
C780 C 0.39289 0.70625 0.09901 0.0
C781 C 0.33412 0.71005 0.09615 0.0
C782 C 0.3321 0.67884 0.09851 0.0
C783 C 0.35957 0.64546 0.10204 0.0
C784 C 0.38899 0.64345 0.10359 0.0
C785 C 0.36133 0.67667 0.09987 0.0
C786 C 0.42023 0.67313 0.10302 0.0
C787 C 0.42215 0.70421 0.10067 0.0
H788 H 0.75119 0.40937 0.26762 0.0
H789 H 0.70482 0.30224 0.25256 0.0
H790 H 0.64963 0.29741 0.25286 0.0
H791 H 0.61456 0.32362 0.25803 0.0
H792 H 0.66182 0.4309 0.27265 0.0
H793 H 0.71663 0.4354 0.27225 0.0
C794 C 0.72909 0.3849 0.26431 0.0
C795 C 0.73224 0.35624 0.26011 0.0
C796 C 0.69752 0.38224 0.2647 0.0
C797 C 0.70321 0.32479 0.25571 0.0
C798 C 0.6716 0.32196 0.25605 0.0
C799 C 0.63683 0.34795 0.26139 0.0
C800 C 0.63399 0.37682 0.26549 0.0
C801 C 0.66846 0.35051 0.26074 0.0
C802 C 0.66317 0.40821 0.26942 0.0
C803 C 0.6946 0.41088 0.26915 0.0
H804 H 0.14498 0.54979 0.66324 0.0
H805 H 0.15579 0.64734 0.6455 0.0
H806 H 0.15258 0.63839 0.57651 0.0
H807 H 0.14969 0.60406 0.5212 0.0
H808 H 0.14541 0.50941 0.53897 0.0
H809 H 0.14301 0.51589 0.60799 0.0
C810 C 0.14633 0.56899 0.64436 0.0
C811 C 0.1504 0.59915 0.65967 0.0
C812 C 0.14578 0.56419 0.60467 0.0
C813 C 0.15261 0.62392 0.63459 0.0
C814 C 0.1508 0.6188 0.59511 0.0
C815 C 0.14783 0.58466 0.54012 0.0
C816 C 0.14741 0.55611 0.52486 0.0
C817 C 0.14779 0.58921 0.57981 0.0
C818 C 0.14569 0.53154 0.54992 0.0
C819 C 0.14434 0.53528 0.58939 0.0
H820 H 0.54762 0.14241 0.69155 0.0
H821 H 0.64136 0.14684 0.7165 0.0
H822 H 0.6293 0.14373 0.78468 0.0
H823 H 0.59428 0.14404 0.83715 0.0
H824 H 0.5033 0.14534 0.81234 0.0
H825 H 0.51203 0.14168 0.74415 0.0
C826 C 0.56525 0.14226 0.71182 0.0
C827 C 0.59537 0.14479 0.69877 0.0
C828 C 0.55871 0.14168 0.75106 0.0
C829 C 0.61803 0.14494 0.72563 0.0
C830 C 0.61117 0.14321 0.76467 0.0
C831 C 0.57607 0.14308 0.81694 0.0
C832 C 0.54808 0.14488 0.83002 0.0
C833 C 0.58188 0.1422 0.77772 0.0
C834 C 0.52503 0.14399 0.80319 0.0
C835 C 0.53006 0.14197 0.76415 0.0
H836 H 0.455 0.60044 1.00303 0.0
H837 H 0.35677 0.51616 0.98165 0.0
H838 H 0.36645 0.52435 0.91296 0.0
H839 H 0.40137 0.55762 0.85906 0.0
H840 H 0.49708 0.64535 0.88088 0.0
H841 H 0.48991 0.6336 0.94924 0.0
C842 C 0.43581 0.58357 0.98343 0.0
C843 C 0.40522 0.55756 0.99767 0.0
C844 C 0.44107 0.58921 0.94395 0.0
C845 C 0.38054 0.53632 0.97162 0.0
C846 C 0.38605 0.54104 0.93229 0.0
C847 C 0.42088 0.57396 0.87868 0.0
C848 C 0.44986 0.60226 0.8647 0.0
C849 C 0.41602 0.56771 0.91812 0.0
C850 C 0.47458 0.62342 0.89075 0.0
C851 C 0.47046 0.61671 0.92989 0.0
H852 H 0.84784 0.43878 0.17072 0.0
H853 H 0.84683 0.34676 0.14422 0.0
H854 H 0.85133 0.36012 0.07627 0.0
H855 H 0.85092 0.39567 0.02424 0.0
H856 H 0.84581 0.48447 0.05092 0.0
H857 H 0.84856 0.47478 0.11893 0.0
C858 C 0.84908 0.42182 0.1502 0.0
C859 C 0.84709 0.39182 0.1627 0.0
C860 C 0.85035 0.42904 0.11111 0.0
C861 C 0.84831 0.37001 0.13549 0.0
C862 C 0.85081 0.37761 0.09659 0.0
C863 C 0.85092 0.4132 0.04488 0.0
C864 C 0.84828 0.44086 0.0324 0.0
C865 C 0.85119 0.40674 0.08403 0.0
C866 C 0.8478 0.46301 0.05967 0.0
C867 C 0.84932 0.45744 0.09859 0.0
H868 H 0.44398 0.85376 0.1893 0.0
H869 H 0.34768 0.84378 0.21369 0.0
H870 H 0.35928 0.84666 0.28205 0.0
H871 H 0.39522 0.84832 0.33483 0.0
H872 H 0.48883 0.8524 0.31003 0.0
H873 H 0.47992 0.85569 0.24188 0.0
C874 C 0.4256 0.85257 0.20945 0.0
C875 C 0.39499 0.84869 0.19616 0.0
C876 C 0.43195 0.85303 0.24873 0.0
C877 C 0.37143 0.84681 0.22296 0.0
C878 C 0.37804 0.84839 0.2621 0.0
C879 C 0.4139 0.85035 0.31461 0.0
C880 C 0.44279 0.85028 0.32771 0.0
C881 C 0.40801 0.85099 0.27533 0.0
C882 C 0.46644 0.85244 0.30088 0.0
C883 C 0.46131 0.85427 0.26185 0.0
H884 H 0.59081 0.4462 0.36151 0.0
H885 H 0.50308 0.35068 0.38382 0.0
H886 H 0.51011 0.36191 0.45228 0.0
H887 H 0.54393 0.39667 0.50595 0.0
H888 H 0.63533 0.48895 0.48369 0.0
H889 H 0.62412 0.48141 0.4152 0.0
C890 C 0.57295 0.42804 0.38128 0.0
C891 C 0.54638 0.39765 0.36744 0.0
C892 C 0.57799 0.43406 0.42073 0.0
C893 C 0.52375 0.37423 0.39362 0.0
C894 C 0.5278 0.38063 0.43282 0.0
C895 C 0.56111 0.4154 0.48617 0.0
C896 C 0.59036 0.44343 0.49997 0.0
C897 C 0.55522 0.41014 0.44674 0.0
C898 C 0.61266 0.46718 0.47384 0.0
C899 C 0.60627 0.46283 0.43466 0.0
H900 H 0.93555 0.46825 0.33327 0.0
H901 H 0.94978 0.38992 0.28513 0.0
H902 H 0.00251 0.41132 0.31997 0.0
H903 H 0.04543 0.45353 0.36289 0.0
H904 H 0.03146 0.53287 0.40803 0.0
H905 H 0.97731 0.50934 0.37624 0.0
C906 C 0.95014 0.45581 0.33026 0.0
C907 C 0.93882 0.42765 0.30641 0.0
C908 C 0.98028 0.46819 0.35028 0.0
C909 C 0.95808 0.41186 0.303 0.0
C910 C 0.98813 0.42395 0.32311 0.0
C911 C 0.03013 0.46517 0.36631 0.0
C912 C 0.04207 0.4946 0.38805 0.0
C913 C -0.00051 0.45214 0.34683 0.0
C914 C 0.02253 0.51003 0.39161 0.0
C915 C 0.99173 0.49674 0.37326 0.0
H916 H 0.53815 0.94794 0.49156 0.0
H917 H 0.45157 0.95389 0.45702 0.0
H918 H 0.47198 0.00638 0.49216 0.0
H919 H 0.51334 0.04943 0.53413 0.0
H920 H 0.59854 0.0423 0.5722 0.0
H921 H 0.57948 0.99107 0.53485 0.0
C922 C 0.52416 0.96114 0.49128 0.0
C923 C 0.49374 0.94756 0.47136 0.0
C924 C 0.53543 0.99064 0.51273 0.0
C925 C 0.47524 0.96421 0.47193 0.0
C926 C 0.48677 0.99404 0.49218 0.0
C927 C 0.52771 0.03662 0.53442 0.0
C928 C 0.55726 0.04962 0.55599 0.0
C929 C 0.5166 0.00724 0.51304 0.0
C930 C 0.57552 0.03266 0.55611 0.0
C931 C 0.56479 0.0035 0.53452 0.0
H932 H 0.5464 0.5972 0.70172 0.0
H933 H 0.45696 0.50713 0.73602 0.0
H934 H 0.47626 0.47299 0.70355 0.0
H935 H 0.51726 0.46864 0.66397 0.0
H936 H 0.60612 0.55805 0.62684 0.0
H937 H 0.58807 0.59261 0.66133 0.0
C938 C 0.53149 0.57009 0.70252 0.0
C939 C 0.50049 0.55461 0.72151 0.0
C940 C 0.54231 0.55057 0.68277 0.0
C941 C 0.48098 0.51953 0.72171 0.0
C942 C 0.49191 0.50002 0.70302 0.0
C943 C 0.53275 0.4957 0.66328 0.0
C944 C 0.56296 0.51072 0.64275 0.0
C945 C 0.52229 0.51527 0.6831 0.0
C946 C 0.5826 0.54584 0.64215 0.0
C947 C 0.5724 0.5656 0.66208 0.0
H948 H 0.05181 0.5233 0.83157 0.0
H949 H 0.03979 0.59965 0.77461 0.0
H950 H 0.98814 0.58268 0.81045 0.0
H951 H 0.94545 0.54463 0.85672 0.0
H952 H 0.95829 0.46806 0.91169 0.0
H953 H 0.01118 0.48729 0.87841 0.0
C954 C 0.03793 0.53626 0.82672 0.0
C955 C 0.04949 0.56247 0.80007 0.0
C956 C 0.00867 0.52664 0.84752 0.0
C957 C 0.03125 0.57912 0.79463 0.0
C958 C 0.00185 0.56958 0.81529 0.0
C959 C 0.96027 0.53271 0.86194 0.0
C960 C 0.94823 0.50516 0.88677 0.0
C961 C 0.99028 0.54331 0.84181 0.0
C962 C 0.96721 0.48941 0.89279 0.0
C963 C -0.00271 0.50022 0.87361 0.0
H964 H 0.45407 0.04826 0.99176 0.0
H965 H 0.54228 0.04398 0.9602 0.0
H966 H 0.52176 0.99146 0.99499 0.0
H967 H 0.47982 0.94787 0.03563 0.0
H968 H 0.39256 0.9528 0.07038 0.0
H969 H 0.41195 0.00438 0.03372 0.0
C970 C 0.46841 0.03542 0.99207 0.0
C971 C 0.49934 0.04951 0.97311 0.0
C972 C 0.457 0.00583 1.01325 0.0
C973 C 0.51825 0.0333 0.9744 0.0
C974 C 0.50665 0.00345 0.99443 0.0
C975 C 0.46506 0.96026 0.03537 0.0
C976 C 0.43485 0.94656 0.05577 0.0
C977 C 0.47629 0.98973 0.01431 0.0
C978 C 0.41609 0.96301 0.05519 0.0
C979 C 0.42701 0.99234 0.03399 0.0
H980 H 0.40275 0.45416 0.16217 0.0
H981 H 0.49609 0.5335 0.11789 0.0
H982 H 0.52663 0.51049 0.15087 0.0
H983 H 0.52727 0.47018 0.19453 0.0
H984 H 0.43497 0.39124 0.24156 0.0
H985 H 0.40349 0.41206 0.20564 0.0
C986 C 0.42969 0.46589 0.15922 0.0
C987 C 0.44722 0.49526 0.13743 0.0
C988 C 0.44726 0.45308 0.17929 0.0
C989 C 0.48215 0.51077 0.13439 0.0
C990 C 0.49962 0.49777 0.1534 0.0
C991 C 0.50026 0.45741 0.19712 0.0
C992 C 0.48355 0.42931 0.22098 0.0
C993 C 0.4825 0.46937 0.17644 0.0
C994 C 0.4485 0.41312 0.22369 0.0
C995 C 0.43048 0.4249 0.20298 0.0
H996 H 0.26422 0.53841 0.33999 0.0
H997 H 0.19029 0.54117 0.26756 0.0
H998 H 0.21968 0.53804 0.21089 0.0
H999 H 0.26867 0.53847 0.18177 0.0
H1000 H 0.34636 0.54342 0.25424 0.0
H1001 H 0.31349 0.5394 0.31088 0.0
C1002 C 0.25439 0.53782 0.31176 0.0
C1003 C 0.22501 0.53964 0.30781 0.0
C1004 C 0.2723 0.53761 0.2793 0.0
C1005 C 0.21283 0.53965 0.27116 0.0
C1006 C 0.22965 0.53792 0.2388 0.0
C1007 C 0.27807 0.53818 0.21 0.0
C1008 C 0.30966 0.54089 0.21396 0.0
C1009 C 0.2597 0.53743 0.24246 0.0
C1010 C 0.32202 0.54125 0.25062 0.0
C1011 C 0.30327 0.539 0.28297 0.0
H1012 H 0.79296 0.28682 0.39947 0.0
H1013 H 0.70691 0.26948 0.33385 0.0
H1014 H 0.66978 0.23664 0.38602 0.0
H1015 H 0.66227 0.21705 0.45186 0.0
H1016 H 0.74793 0.23443 0.51872 0.0
H1017 H 0.7848 0.26272 0.46449 0.0
C1018 C 0.76603 0.2751 0.39652 0.0
C1019 C 0.75239 0.27998 0.36303 0.0
C1020 C 0.74491 0.25666 0.42691 0.0
C1021 C 0.71764 0.26546 0.35938 0.0
C1022 C 0.69652 0.24695 0.38922 0.0
C1023 C 0.68899 0.22683 0.45456 0.0
C1024 C 0.7024 0.22403 0.48942 0.0
C1025 C 0.70993 0.24304 0.4234 0.0
C1026 C 0.73701 0.23638 0.49222 0.0
C1027 C 0.7581 0.25263 0.46125 0.0
H1028 H 0.474 0.6811 0.61192 0.0
H1029 H 0.47448 0.74851 0.69751 0.0
H1030 H 0.47434 0.78574 0.64778 0.0
H1031 H 0.46988 0.79682 0.57971 0.0
H1032 H 0.47537 0.73255 0.49412 0.0
H1033 H 0.47774 0.69649 0.54385 0.0
C1034 C 0.47461 0.70423 0.61953 0.0
C1035 C 0.47403 0.71207 0.65815 0.0
C1036 C 0.47545 0.72592 0.59079 0.0
C1037 C 0.47507 0.74215 0.66789 0.0
C1038 C 0.4748 0.7633 0.63949 0.0
C1039 C 0.4721 0.77517 0.5721 0.0
C1040 C 0.47221 0.76709 0.53347 0.0
C1041 C 0.47438 0.75513 0.60084 0.0
C1042 C 0.47538 0.73923 0.52374 0.0
C1043 C 0.47655 0.71855 0.55214 0.0
H1044 H 0.78748 0.45896 0.78129 0.0
H1045 H 0.72207 0.46103 0.86773 0.0
H1046 H 0.68438 0.46089 0.81851 0.0
H1047 H 0.66857 0.45706 0.75067 0.0
H1048 H 0.73678 0.46071 0.66425 0.0
H1049 H 0.77501 0.46196 0.71347 0.0
C1050 C 0.76512 0.45972 0.7892 0.0
C1051 C 0.75731 0.45973 0.82792 0.0
C1052 C 0.74409 0.46054 0.76077 0.0
C1053 C 0.72855 0.46112 0.83802 0.0
C1054 C 0.70695 0.46087 0.80992 0.0
C1055 C 0.69198 0.45844 0.74276 0.0
C1056 C 0.69983 0.45848 0.70405 0.0
C1057 C 0.71423 0.46011 0.77121 0.0
C1058 C 0.73034 0.46071 0.69395 0.0
C1059 C 0.75209 0.46128 0.72205 0.0
H1060 H 0.25939 0.72629 1.00996 0.0
H1061 H 0.32865 0.81303 0.94582 0.0
H1062 H 0.29957 0.78609 0.88647 0.0
H1063 H 0.25748 0.73563 0.85225 0.0
H1064 H 0.19294 0.6465 0.91616 0.0
H1065 H 0.21669 0.67627 0.97592 0.0
C1066 C 0.26748 0.73943 0.983 0.0
C1067 C 0.29556 0.77171 0.98204 0.0
C1068 C 0.25166 0.7231 0.94889 0.0
C1069 C 0.3067 0.78829 0.94702 0.0
C1070 C 0.29022 0.77283 0.91315 0.0
C1071 C 0.24835 0.72299 0.87934 0.0
C1072 C 0.22347 0.689 0.87989 0.0
C1073 C 0.2631 0.73992 0.9136 0.0
C1074 C 0.21217 0.67266 0.91508 0.0
C1075 C 0.22573 0.68966 0.94926 0.0
H1076 H 0.52519 0.31799 0.11589 0.0
H1077 H 0.53208 0.25356 0.19985 0.0
H1078 H 0.53012 0.21571 0.1495 0.0
H1079 H 0.53024 0.2031 0.08114 0.0
H1080 H 0.51753 0.26421 0.9975 0.0
H1081 H 0.51752 0.30107 0.048 0.0
C1082 C 0.52585 0.29542 0.12301 0.0
C1083 C 0.52909 0.28858 0.16128 0.0
C1084 C 0.52369 0.2733 0.09401 0.0
C1085 C 0.52955 0.25917 0.17048 0.0
C1086 C 0.52856 0.23765 0.14173 0.0
C1087 C 0.52695 0.22423 0.07417 0.0
C1088 C 0.5241 0.2312 0.03585 0.0
C1089 C 0.52615 0.24473 0.10337 0.0
C1090 C 0.51959 0.25838 0.02692 0.0
C1091 C 0.5198 0.27953 0.05573 0.0
loop_
_geom_bond_atom_site_label_1
_geom_bond_atom_site_label_2
_geom_bond_distance
_geom_bond_site_symmetry_2
_ccdc_geom_bond_type
Co0 O2 2.143 . S
Co0 O8 2.074 . S
Co0 O11 2.093 . S
Co0 O24 2.097 . S
Co0 N41 2.151 . S
Co0 N49 2.214 . S
Co1 O2 2.160 . S
Co1 O7 2.058 . S
Co1 O17 2.057 . S
Co1 O32 2.037 . S
Co1 N36 2.145 . S
Co1 N57 2.257 . S
O2 Co0 2.143 . S
O2 Co1 2.160 . S
C3 O4 1.278 . S
C3 O11 1.224 . S
O4 C3 1.278 . S
C5 O6 1.245 . S
C5 O17 1.232 . S
O6 C5 1.245 . S
O7 Co1 2.058 . S
O7 C33 1.269 . S
O8 Co0 2.074 . S
O8 C33 1.257 . S
H9 C34 0.930 . S
H10 C40 0.930 . S
O11 Co0 2.093 . S
O11 C3 1.224 . S
H12 C44 0.929 . S
H13 C46 0.930 . S
H14 C47 0.930 . S
H15 C45 0.929 . S
H16 C48 0.928 . S
O17 Co1 2.057 . S
O17 C5 1.232 . S
H18 C37 0.929 . S
H19 C38 0.929 . S
H20 C50 0.931 . S
H21 C42 0.929 . S
H22 C51 0.930 . S
H23 C43 0.931 . S
O24 Co0 2.097 . S
O24 C52 1.214 . S
H25 C53 0.929 . S
H26 C54 0.929 . S
H27 C55 0.930 . S
H28 C56 0.929 . S
H29 C58 0.930 . S
H30 C35 0.930 . S
H31 C39 0.930 . S
O32 Co1 2.037 . S
O32 C52 1.234 . S
C33 O7 1.269 . S
C33 O8 1.257 . S
C34 H9 0.930 . S
C34 C37 1.388 . S
C34 C39 1.418 . S
C35 H30 0.930 . S
C35 C38 1.404 . S
C35 C39 1.353 . S
N36 Co1 2.145 . S
N36 C37 1.397 . S
N36 C38 1.334 . S
C37 H18 0.929 . S
C37 C34 1.388 . S
C37 N36 1.397 . S
C38 H19 0.929 . S
C38 C35 1.404 . S
C38 N36 1.334 . S
C39 H31 0.930 . S
C39 C34 1.418 . S
C39 C35 1.353 . S
C40 H10 0.930 . S
C40 N41 1.330 . S
C40 C42 1.446 . S
N41 Co0 2.151 . S
N41 C40 1.330 . S
N41 C45 1.418 . S
C42 H21 0.929 . S
C42 C40 1.446 . S
C42 C43 1.332 . S
C43 H23 0.931 . S
C43 C42 1.332 . S
C43 C44 1.267 . S
C44 H12 0.929 . S
C44 C43 1.267 . S
C44 C45 1.251 . S
C45 H15 0.929 . S
C45 N41 1.418 . S
C45 C44 1.251 . S
C46 H13 0.930 . S
C46 C48 1.406 . S
C46 C51 1.261 . S
C47 H14 0.930 . S
C47 N49 1.325 . S
C47 C50 1.357 . S
C48 H16 0.928 . S
C48 C46 1.406 . S
C48 N49 1.261 . S
N49 Co0 2.214 . S
N49 C47 1.325 . S
N49 C48 1.261 . S
C50 H20 0.931 . S
C50 C47 1.357 . S
C50 C51 1.312 . S
C51 H22 0.930 . S
C51 C46 1.261 . S
C51 C50 1.312 . S
C52 O24 1.214 . S
C52 O32 1.234 . S
C53 H25 0.929 . S
C53 C56 1.391 . S
C53 C58 1.391 . S
C54 H26 0.929 . S
C54 C55 1.390 . S
C54 N57 1.391 . S
C55 H27 0.930 . S
C55 C54 1.390 . S
C55 C56 1.392 . S
C56 H28 0.929 . S
C56 C53 1.391 . S
C56 C55 1.392 . S
N57 Co1 2.257 . S
N57 C54 1.391 . S
N57 C58 1.388 . S
C58 H29 0.930 . S
C58 C53 1.391 . S
C58 N57 1.388 . S
Co59 O61 2.143 . S
Co59 O67 2.074 . S
Co59 O70 2.093 . S
Co59 O83 2.097 . S
Co59 N100 2.151 . S
Co59 N108 2.214 . S
Co60 O61 2.160 . S
Co60 O66 2.058 . S
Co60 O76 2.057 . S
Co60 O91 2.037 . S
Co60 N95 2.145 . S
Co60 N116 2.257 . S
O61 Co59 2.143 . S
O61 Co60 2.160 . S
C62 O63 1.278 . S
C62 O70 1.224 . S
O63 C62 1.278 . S
C64 O65 1.245 . S
C64 O76 1.232 . S
O65 C64 1.245 . S
O66 Co60 2.058 . S
O66 C92 1.269 . S
O67 Co59 2.074 . S
O67 C92 1.257 . S
H68 C93 0.930 . S
H69 C99 0.930 . S
O70 Co59 2.093 . S
O70 C62 1.224 . S
H71 C103 0.929 . S
H72 C105 0.930 . S
H73 C106 0.930 . S
H74 C104 0.929 . S
H75 C107 0.928 . S
O76 Co60 2.057 . S
O76 C64 1.232 . S
H77 C96 0.929 . S
H78 C97 0.929 . S
H79 C109 0.931 . S
H80 C101 0.929 . S
H81 C110 0.930 . S
H82 C102 0.931 . S
O83 Co59 2.097 . S
O83 C111 1.214 . S
H84 C112 0.929 . S
H85 C113 0.929 . S
H86 C114 0.930 . S
H87 C115 0.929 . S
H88 C117 0.930 . S
H89 C94 0.930 . S
H90 C98 0.930 . S
O91 Co60 2.037 . S
O91 C111 1.234 . S
C92 O66 1.269 . S
C92 O67 1.257 . S
C93 H68 0.930 . S
C93 C96 1.388 . S
C93 C98 1.418 . S
C94 H89 0.930 . S
C94 C97 1.404 . S
C94 C98 1.353 . S
N95 Co60 2.145 . S
N95 C96 1.397 . S
N95 C97 1.334 . S
C96 H77 0.929 . S
C96 C93 1.388 . S
C96 N95 1.397 . S
C97 H78 0.929 . S
C97 C94 1.404 . S
C97 N95 1.334 . S
C98 H90 0.930 . S
C98 C93 1.418 . S
C98 C94 1.353 . S
C99 H69 0.930 . S
C99 N100 1.330 . S
C99 C101 1.446 . S
N100 Co59 2.151 . S
N100 C99 1.330 . S
N100 C104 1.418 . S
C101 H80 0.929 . S
C101 C99 1.446 . S
C101 C102 1.332 . S
C102 H82 0.931 . S
C102 C101 1.332 . S
C102 C103 1.267 . S
C103 H71 0.929 . S
C103 C102 1.267 . S
C103 C104 1.251 . S
C104 H74 0.929 . S
C104 N100 1.418 . S
C104 C103 1.251 . S
C105 H72 0.930 . S
C105 C107 1.406 . S
C105 C110 1.261 . S
C106 H73 0.930 . S
C106 N108 1.325 . S
C106 C109 1.357 . S
C107 H75 0.928 . S
C107 C105 1.406 . S
C107 N108 1.261 . S
N108 Co59 2.214 . S
N108 C106 1.325 . S
N108 C107 1.261 . S
C109 H79 0.931 . S
C109 C106 1.357 . S
C109 C110 1.312 . S
C110 H81 0.930 . S
C110 C105 1.261 . S
C110 C109 1.312 . S
C111 O83 1.214 . S
C111 O91 1.234 . S
C112 H84 0.929 . S
C112 C115 1.391 . S
C112 C117 1.391 . S
C113 H85 0.929 . S
C113 C114 1.390 . S
C113 N116 1.391 . S
C114 H86 0.930 . S
C114 C113 1.390 . S
C114 C115 1.392 . S
C115 H87 0.929 . S
C115 C112 1.391 . S
C115 C114 1.392 . S
N116 Co60 2.257 . S
N116 C113 1.391 . S
N116 C117 1.388 . S
C117 H88 0.930 . S
C117 C112 1.391 . S
C117 N116 1.388 . S
Co118 O120 2.143 . S
Co118 O126 2.074 . S
Co118 O129 2.093 . S
Co118 O142 2.097 . S
Co118 N159 2.151 . S
Co118 N167 2.214 . S
Co119 O120 2.160 . S
Co119 O125 2.058 . S
Co119 O135 2.057 . S
Co119 O150 2.037 . S
Co119 N154 2.145 . S
Co119 N175 2.257 . S
O120 Co118 2.143 . S
O120 Co119 2.160 . S
C121 O122 1.278 . S
C121 O129 1.224 . S
O122 C121 1.278 . S
C123 O124 1.245 . S
C123 O135 1.232 . S
O124 C123 1.245 . S
O125 Co119 2.058 . S
O125 C151 1.269 . S
O126 Co118 2.074 . S
O126 C151 1.257 . S
H127 C152 0.930 . S
H128 C158 0.930 . S
O129 Co118 2.093 . S
O129 C121 1.224 . S
H130 C162 0.929 . S
H131 C164 0.930 . S
H132 C165 0.930 . S
H133 C163 0.929 . S
H134 C166 0.928 . S
O135 Co119 2.057 . S
O135 C123 1.232 . S
H136 C155 0.929 . S
H137 C156 0.929 . S
H138 C168 0.931 . S
H139 C160 0.929 . S
H140 C169 0.930 . S
H141 C161 0.931 . S
O142 Co118 2.097 . S
O142 C170 1.214 . S
H143 C171 0.929 . S
H144 C172 0.929 . S
H145 C173 0.930 . S
H146 C174 0.929 . S
H147 C176 0.930 . S
H148 C153 0.930 . S
H149 C157 0.930 . S
O150 Co119 2.037 . S
O150 C170 1.234 . S
C151 O125 1.269 . S
C151 O126 1.257 . S
C152 H127 0.930 . S
C152 C155 1.388 . S
C152 C157 1.418 . S
C153 H148 0.930 . S
C153 C156 1.404 . S
C153 C157 1.353 . S
N154 Co119 2.145 . S
N154 C155 1.397 . S
N154 C156 1.334 . S
C155 H136 0.929 . S
C155 C152 1.388 . S
C155 N154 1.397 . S
C156 H137 0.929 . S
C156 C153 1.404 . S
C156 N154 1.334 . S
C157 H149 0.930 . S
C157 C152 1.418 . S
C157 C153 1.353 . S
C158 H128 0.930 . S
C158 N159 1.330 . S
C158 C160 1.446 . S
N159 Co118 2.151 . S
N159 C158 1.330 . S
N159 C163 1.418 . S
C160 H139 0.929 . S
C160 C158 1.446 . S
C160 C161 1.332 . S
C161 H141 0.931 . S
C161 C160 1.332 . S
C161 C162 1.267 . S
C162 H130 0.929 . S
C162 C161 1.267 . S
C162 C163 1.251 . S
C163 H133 0.929 . S
C163 N159 1.418 . S
C163 C162 1.251 . S
C164 H131 0.930 . S
C164 C166 1.406 . S
C164 C169 1.261 . S
C165 H132 0.930 . S
C165 N167 1.325 . S
C165 C168 1.357 . S
C166 H134 0.928 . S
C166 C164 1.406 . S
C166 N167 1.261 . S
N167 Co118 2.214 . S
N167 C165 1.325 . S
N167 C166 1.261 . S
C168 H138 0.931 . S
C168 C165 1.357 . S
C168 C169 1.312 . S
C169 H140 0.930 . S
C169 C164 1.261 . S
C169 C168 1.312 . S
C170 O142 1.214 . S
C170 O150 1.234 . S
C171 H143 0.929 . S
C171 C174 1.391 . S
C171 C176 1.391 . S
C172 H144 0.929 . S
C172 C173 1.390 . S
C172 N175 1.391 . S
C173 H145 0.930 . S
C173 C172 1.390 . S
C173 C174 1.392 . S
C174 H146 0.929 . S
C174 C171 1.391 . S
C174 C173 1.392 . S
N175 Co119 2.257 . S
N175 C172 1.391 . S
N175 C176 1.388 . S
C176 H147 0.930 . S
C176 C171 1.391 . S
C176 N175 1.388 . S
Co177 O179 2.143 . S
Co177 O185 2.074 . S
Co177 O188 2.093 . S
Co177 O201 2.097 . S
Co177 N218 2.151 . S
Co177 N226 2.214 . S
Co178 O179 2.160 . S
Co178 O184 2.058 . S
Co178 O194 2.057 . S
Co178 O209 2.037 . S
Co178 N213 2.145 . S
Co178 N234 2.257 . S
O179 Co177 2.143 . S
O179 Co178 2.160 . S
C180 O181 1.278 . S
C180 O188 1.224 . S
O181 C180 1.278 . S
C182 O183 1.245 . S
C182 O194 1.232 . S
O183 C182 1.245 . S
O184 Co178 2.058 . S
O184 C210 1.269 . S
O185 Co177 2.074 . S
O185 C210 1.257 . S
H186 C211 0.930 1_554 S
H187 C217 0.930 . S
O188 Co177 2.093 . S
O188 C180 1.224 . S
H189 C221 0.929 . S
H190 C223 0.930 . S
H191 C224 0.930 . S
H192 C222 0.929 . S
H193 C225 0.928 . S
O194 Co178 2.057 . S
O194 C182 1.232 . S
H195 C214 0.929 . S
H196 C215 0.929 . S
H197 C227 0.931 1_554 S
H198 C219 0.929 . S
H199 C228 0.930 . S
H200 C220 0.931 . S
O201 Co177 2.097 . S
O201 C229 1.214 . S
H202 C230 0.929 . S
H203 C231 0.929 . S
H204 C232 0.930 . S
H205 C233 0.929 . S
H206 C235 0.930 . S
H207 C212 0.930 . S
H208 C216 0.930 . S
O209 Co178 2.037 . S
O209 C229 1.234 . S
C210 O184 1.269 . S
C210 O185 1.257 . S
C211 H186 0.930 1_556 S
C211 C214 1.388 . S
C211 C216 1.418 . S
C212 H207 0.930 . S
C212 C215 1.404 . S
C212 C216 1.353 . S
N213 Co178 2.145 . S
N213 C214 1.397 . S
N213 C215 1.334 . S
C214 H195 0.929 . S
C214 C211 1.388 . S
C214 N213 1.397 . S
C215 H196 0.929 . S
C215 C212 1.404 . S
C215 N213 1.334 . S
C216 H208 0.930 . S
C216 C211 1.418 . S
C216 C212 1.353 . S
C217 H187 0.930 . S
C217 N218 1.330 . S
C217 C219 1.446 . S
N218 Co177 2.151 . S
N218 C217 1.330 . S
N218 C222 1.418 . S
C219 H198 0.929 . S
C219 C217 1.446 . S
C219 C220 1.332 . S
C220 H200 0.931 . S
C220 C219 1.332 . S
C220 C221 1.267 . S
C221 H189 0.929 . S
C221 C220 1.267 . S
C221 C222 1.251 . S
C222 H192 0.929 . S
C222 N218 1.418 . S
C222 C221 1.251 . S
C223 H190 0.930 . S
C223 C225 1.406 . S
C223 C228 1.261 . S
C224 H191 0.930 . S
C224 N226 1.325 . S
C224 C227 1.357 . S
C225 H193 0.928 . S
C225 C223 1.406 . S
C225 N226 1.261 . S
N226 Co177 2.214 . S
N226 C224 1.325 . S
N226 C225 1.261 . S
C227 H197 0.931 1_556 S
C227 C224 1.357 . S
C227 C228 1.312 . S
C228 H199 0.930 . S
C228 C223 1.261 . S
C228 C227 1.312 . S
C229 O201 1.214 . S
C229 O209 1.234 . S
C230 H202 0.929 . S
C230 C233 1.391 . S
C230 C235 1.391 . S
C231 H203 0.929 . S
C231 C232 1.390 . S
C231 N234 1.391 . S
C232 H204 0.930 . S
C232 C231 1.390 . S
C232 C233 1.392 . S
C233 H205 0.929 . S
C233 C230 1.391 . S
C233 C232 1.392 . S
N234 Co178 2.257 . S
N234 C231 1.391 . S
N234 C235 1.388 . S
C235 H206 0.930 . S
C235 C230 1.391 . S
C235 N234 1.388 . S
Co236 O238 2.143 . S
Co236 O244 2.074 . S
Co236 O247 2.093 . S
Co236 O260 2.097 . S
Co236 N277 2.151 . S
Co236 N285 2.214 . S
Co237 O238 2.160 . S
Co237 O243 2.058 . S
Co237 O253 2.057 . S
Co237 O268 2.037 . S
Co237 N272 2.145 . S
Co237 N293 2.257 . S
O238 Co236 2.143 . S
O238 Co237 2.160 . S
C239 O240 1.286 . S
C239 O247 1.198 1_556 S
O240 C239 1.286 . S
C241 O242 1.245 . S
C241 O253 1.232 . S
O242 C241 1.245 . S
O243 Co237 2.058 . S
O243 C269 1.269 . S
O244 Co236 2.074 . S
O244 C269 1.257 . S
H245 C270 0.930 . S
H246 C276 0.930 . S
O247 Co236 2.093 . S
O247 C239 1.198 1_554 S
H248 C280 0.929 . S
H249 C282 0.930 . S
H250 C283 0.930 . S
H251 C281 0.929 . S
H252 C284 0.928 . S
O253 Co237 2.057 . S
O253 C241 1.232 . S
H254 C273 0.929 . S
H255 C274 0.929 . S
H256 C286 0.931 . S
H257 C278 0.929 . S
H258 C287 0.930 . S
H259 C279 0.931 . S
O260 Co236 2.097 . S
O260 C288 1.214 . S
H261 C289 0.929 . S
H262 C290 0.929 . S
H263 C291 0.930 . S
H264 C292 0.929 . S
H265 C294 0.930 . S
H266 C271 0.930 . S
H267 C275 0.930 . S
O268 Co237 2.037 . S
O268 C288 1.234 . S
C269 O243 1.269 . S
C269 O244 1.257 . S
C270 H245 0.930 . S
C270 C273 1.388 . S
C270 C275 1.418 . S
C271 H266 0.930 . S
C271 C274 1.404 . S
C271 C275 1.353 . S
N272 Co237 2.145 . S
N272 C273 1.397 . S
N272 C274 1.334 . S
C273 H254 0.929 . S
C273 C270 1.388 . S
C273 N272 1.397 . S
C274 H255 0.929 . S
C274 C271 1.404 . S
C274 N272 1.334 . S
C275 H267 0.930 . S
C275 C270 1.418 . S
C275 C271 1.353 . S
C276 H246 0.930 . S
C276 N277 1.330 . S
C276 C278 1.446 . S
N277 Co236 2.151 . S
N277 C276 1.330 . S
N277 C281 1.418 . S
C278 H257 0.929 . S
C278 C276 1.446 . S
C278 C279 1.332 . S
C279 H259 0.931 . S
C279 C278 1.332 . S
C279 C280 1.267 . S
C280 H248 0.929 . S
C280 C279 1.267 . S
C280 C281 1.251 . S
C281 H251 0.929 . S
C281 N277 1.418 . S
C281 C280 1.251 . S
C282 H249 0.930 . S
C282 C284 1.406 . S
C282 C287 1.261 . S
C283 H250 0.930 . S
C283 N285 1.325 . S
C283 C286 1.357 . S
C284 H252 0.928 . S
C284 C282 1.406 . S
C284 N285 1.261 . S
N285 Co236 2.214 . S
N285 C283 1.325 . S
N285 C284 1.261 . S
C286 H256 0.931 . S
C286 C283 1.357 . S
C286 C287 1.312 . S
C287 H258 0.930 . S
C287 C282 1.261 . S
C287 C286 1.312 . S
C288 O260 1.214 . S
C288 O268 1.234 . S
C289 H261 0.929 . S
C289 C292 1.391 . S
C289 C294 1.391 . S
C290 H262 0.929 . S
C290 C291 1.390 1_554 S
C290 N293 1.391 . S
C291 H263 0.930 . S
C291 C290 1.390 1_556 S
C291 C292 1.392 . S
C292 H264 0.929 . S
C292 C289 1.391 . S
C292 C291 1.392 . S
N293 Co237 2.257 . S
N293 C290 1.391 . S
N293 C294 1.388 1_554 S
C294 H265 0.930 . S
C294 C289 1.391 . S
C294 N293 1.388 1_556 S
Co295 O297 2.143 . S
Co295 O303 2.074 . S
Co295 O306 2.093 . S
Co295 O319 2.097 . S
Co295 N336 2.151 . S
Co295 N344 2.214 . S
Co296 O297 2.160 . S
Co296 O302 2.058 . S
Co296 O312 2.057 . S
Co296 O327 2.037 . S
Co296 N331 2.145 . S
Co296 N352 2.257 . S
O297 Co295 2.143 . S
O297 Co296 2.160 . S
C298 O299 1.278 . S
C298 O306 1.224 . S
O299 C298 1.278 . S
C300 O301 1.245 . S
C300 O312 1.232 . S
O301 C300 1.245 . S
O302 Co296 2.058 . S
O302 C328 1.269 . S
O303 Co295 2.074 . S
O303 C328 1.257 . S
H304 C329 0.930 . S
H305 C335 0.930 . S
O306 Co295 2.093 . S
O306 C298 1.224 . S
H307 C339 0.929 . S
H308 C341 0.930 . S
H309 C342 0.930 . S
H310 C340 0.929 . S
H311 C343 0.928 . S
O312 Co296 2.057 . S
O312 C300 1.232 . S
H313 C332 0.929 . S
H314 C333 0.929 . S
H315 C345 0.931 . S
H316 C337 0.929 . S
H317 C346 0.930 . S
H318 C338 0.931 . S
O319 Co295 2.097 . S
O319 C347 1.214 . S
H320 C348 0.929 . S
H321 C349 0.929 . S
H322 C350 0.930 . S
H323 C351 0.929 . S
H324 C353 0.930 . S
H325 C330 0.930 . S
H326 C334 0.930 . S
O327 Co296 2.037 . S
O327 C347 1.234 . S
C328 O302 1.269 . S
C328 O303 1.257 . S
C329 H304 0.930 . S
C329 C332 1.388 . S
C329 C334 1.418 . S
C330 H325 0.930 . S
C330 C333 1.404 . S
C330 C334 1.353 . S
N331 Co296 2.145 . S
N331 C332 1.397 . S
N331 C333 1.334 . S
C332 H313 0.929 . S
C332 C329 1.388 . S
C332 N331 1.397 . S
C333 H314 0.929 . S
C333 C330 1.404 . S
C333 N331 1.334 . S
C334 H326 0.930 . S
C334 C329 1.418 . S
C334 C330 1.353 . S
C335 H305 0.930 . S
C335 N336 1.330 . S
C335 C337 1.446 . S
N336 Co295 2.151 . S
N336 C335 1.330 . S
N336 C340 1.418 . S
C337 H316 0.929 . S
C337 C335 1.446 . S
C337 C338 1.332 . S
C338 H318 0.931 . S
C338 C337 1.332 . S
C338 C339 1.267 . S
C339 H307 0.929 . S
C339 C338 1.267 . S
C339 C340 1.251 . S
C340 H310 0.929 . S
C340 N336 1.418 . S
C340 C339 1.251 . S
C341 H308 0.930 . S
C341 C343 1.406 . S
C341 C346 1.261 . S
C342 H309 0.930 . S
C342 N344 1.325 . S
C342 C345 1.357 . S
C343 H311 0.928 . S
C343 C341 1.406 . S
C343 N344 1.261 . S
N344 Co295 2.214 . S
N344 C342 1.325 . S
N344 C343 1.261 . S
C345 H315 0.931 . S
C345 C342 1.357 . S
C345 C346 1.312 . S
C346 H317 0.930 . S
C346 C341 1.261 . S
C346 C345 1.312 . S
C347 O319 1.214 . S
C347 O327 1.234 . S
C348 H320 0.929 . S
C348 C351 1.391 . S
C348 C353 1.391 . S
C349 H321 0.929 . S
C349 C350 1.390 . S
C349 N352 1.391 . S
C350 H322 0.930 . S
C350 C349 1.390 . S
C350 C351 1.392 . S
C351 H323 0.929 . S
C351 C348 1.391 . S
C351 C350 1.392 . S
N352 Co296 2.257 . S
N352 C349 1.391 . S
N352 C353 1.388 . S
C353 H324 0.930 . S
C353 C348 1.391 . S
C353 N352 1.388 . S
Co354 O356 2.143 . S
Co354 O362 2.074 . S
Co354 O365 2.093 . S
Co354 O378 2.097 . S
Co354 N395 2.151 . S
Co354 N403 2.214 . S
Co355 O356 2.160 . S
Co355 O361 2.058 . S
Co355 O371 2.057 . S
Co355 O386 2.037 . S
Co355 N390 2.145 . S
Co355 N411 2.257 . S
O356 Co354 2.143 . S
O356 Co355 2.160 . S
C357 O358 1.278 . S
C357 O365 1.224 . S
O358 C357 1.278 . S
C359 O360 1.245 . S
C359 O371 1.232 . S
O360 C359 1.245 . S
O361 Co355 2.058 . S
O361 C387 1.269 . S
O362 Co354 2.074 . S
O362 C387 1.257 . S
H363 C388 0.930 . S
H364 C394 0.930 . S
O365 Co354 2.093 . S
O365 C357 1.224 . S
H366 C398 0.929 . S
H367 C400 0.930 . S
H368 C401 0.930 . S
H369 C399 0.929 . S
H370 C402 0.928 . S
O371 Co355 2.057 . S
O371 C359 1.232 . S
H372 C391 0.929 . S
H373 C392 0.929 . S
H374 C404 0.931 . S
H375 C396 0.929 . S
H376 C405 0.930 . S
H377 C397 0.931 . S
O378 Co354 2.097 . S
O378 C406 1.214 . S
H379 C407 0.929 . S
H380 C408 0.929 . S
H381 C409 0.930 . S
H382 C410 0.929 . S
H383 C412 0.930 . S
H384 C389 0.930 . S
H385 C393 0.930 . S
O386 Co355 2.037 . S
O386 C406 1.234 . S
C387 O361 1.269 . S
C387 O362 1.257 . S
C388 H363 0.930 . S
C388 C391 1.388 . S
C388 C393 1.418 . S
C389 H384 0.930 . S
C389 C392 1.404 . S
C389 C393 1.353 . S
N390 Co355 2.145 . S
N390 C391 1.397 . S
N390 C392 1.334 . S
C391 H372 0.929 . S
C391 C388 1.388 . S
C391 N390 1.397 . S
C392 H373 0.929 . S
C392 C389 1.404 . S
C392 N390 1.334 . S
C393 H385 0.930 . S
C393 C388 1.418 . S
C393 C389 1.353 . S
C394 H364 0.930 . S
C394 N395 1.330 . S
C394 C396 1.446 . S
N395 Co354 2.151 . S
N395 C394 1.330 . S
N395 C399 1.418 . S
C396 H375 0.929 . S
C396 C394 1.446 . S
C396 C397 1.332 . S
C397 H377 0.931 . S
C397 C396 1.332 . S
C397 C398 1.267 . S
C398 H366 0.929 . S
C398 C397 1.267 . S
C398 C399 1.251 . S
C399 H369 0.929 . S
C399 N395 1.418 . S
C399 C398 1.251 . S
C400 H367 0.930 . S
C400 C402 1.406 . S
C400 C405 1.261 . S
C401 H368 0.930 . S
C401 N403 1.325 . S
C401 C404 1.357 . S
C402 H370 0.928 . S
C402 C400 1.406 . S
C402 N403 1.261 . S
N403 Co354 2.214 . S
N403 C401 1.325 . S
N403 C402 1.261 . S
C404 H374 0.931 . S
C404 C401 1.357 . S
C404 C405 1.312 . S
C405 H376 0.930 . S
C405 C400 1.261 . S
C405 C404 1.312 . S
C406 O378 1.214 . S
C406 O386 1.234 . S
C407 H379 0.929 . S
C407 C410 1.391 . S
C407 C412 1.391 . S
C408 H380 0.929 . S
C408 C409 1.390 . S
C408 N411 1.391 . S
C409 H381 0.930 . S
C409 C408 1.390 . S
C409 C410 1.392 . S
C410 H382 0.929 . S
C410 C407 1.391 . S
C410 C409 1.392 . S
N411 Co355 2.257 . S
N411 C408 1.391 . S
N411 C412 1.388 . S
C412 H383 0.930 . S
C412 C407 1.391 . S
C412 N411 1.388 . S
Co413 O415 2.143 . S
Co413 O421 2.074 . S
Co413 O424 2.093 . S
Co413 O437 2.097 . S
Co413 N454 2.151 . S
Co413 N462 2.214 . S
Co414 O415 2.160 . S
Co414 O420 2.058 . S
Co414 O430 2.057 . S
Co414 O445 2.037 . S
Co414 N449 2.145 . S
Co414 N470 2.257 . S
O415 Co413 2.143 . S
O415 Co414 2.160 . S
C416 O417 1.278 . S
C416 O424 1.224 . S
O417 C416 1.278 . S
C418 O419 1.245 . S
C418 O430 1.232 . S
O419 C418 1.245 . S
O420 Co414 2.058 . S
O420 C446 1.269 . S
O421 Co413 2.074 . S
O421 C446 1.257 . S
H422 C447 0.930 . S
H423 C453 0.930 . S
O424 Co413 2.093 . S
O424 C416 1.224 . S
H425 C457 0.929 . S
H426 C459 0.930 . S
H427 C460 0.930 . S
H428 C458 0.929 . S
H429 C461 0.928 . S
O430 Co414 2.057 . S
O430 C418 1.232 . S
H431 C450 0.929 . S
H432 C451 0.929 . S
H433 C463 0.931 . S
H434 C455 0.929 . S
H435 C464 0.930 . S
H436 C456 0.931 . S
O437 Co413 2.097 . S
O437 C465 1.214 . S
H438 C466 0.929 . S
H439 C467 0.929 . S
H440 C468 0.930 . S
H441 C469 0.929 . S
H442 C471 0.930 . S
H443 C448 0.930 . S
H444 C452 0.930 . S
O445 Co414 2.037 . S
O445 C465 1.234 . S
C446 O420 1.269 . S
C446 O421 1.257 . S
C447 H422 0.930 . S
C447 C450 1.388 . S
C447 C452 1.418 . S
C448 H443 0.930 . S
C448 C451 1.404 . S
C448 C452 1.353 . S
N449 Co414 2.145 . S
N449 C450 1.397 . S
N449 C451 1.334 . S
C450 H431 0.929 . S
C450 C447 1.388 . S
C450 N449 1.397 . S
C451 H432 0.929 . S
C451 C448 1.404 . S
C451 N449 1.334 . S
C452 H444 0.930 . S
C452 C447 1.418 . S
C452 C448 1.353 . S
C453 H423 0.930 . S
C453 N454 1.330 . S
C453 C455 1.446 . S
N454 Co413 2.151 . S
N454 C453 1.330 . S
N454 C458 1.418 . S
C455 H434 0.929 . S
C455 C453 1.446 . S
C455 C456 1.332 . S
C456 H436 0.931 . S
C456 C455 1.332 . S
C456 C457 1.267 . S
C457 H425 0.929 . S
C457 C456 1.267 . S
C457 C458 1.251 . S
C458 H428 0.929 . S
C458 N454 1.418 . S
C458 C457 1.251 . S
C459 H426 0.930 . S
C459 C461 1.406 . S
C459 C464 1.261 . S
C460 H427 0.930 . S
C460 N462 1.325 . S
C460 C463 1.357 . S
C461 H429 0.928 . S
C461 C459 1.406 . S
C461 N462 1.261 . S
N462 Co413 2.214 . S
N462 C460 1.325 . S
N462 C461 1.261 . S
C463 H433 0.931 . S
C463 C460 1.357 . S
C463 C464 1.312 . S
C464 H435 0.930 . S
C464 C459 1.261 . S
C464 C463 1.312 . S
C465 O437 1.214 . S
C465 O445 1.234 . S
C466 H438 0.929 . S
C466 C469 1.391 . S
C466 C471 1.391 . S
C467 H439 0.929 . S
C467 C468 1.390 . S
C467 N470 1.391 . S
C468 H440 0.930 . S
C468 C467 1.390 . S
C468 C469 1.392 . S
C469 H441 0.929 . S
C469 C466 1.391 . S
C469 C468 1.392 . S
N470 Co414 2.257 . S
N470 C467 1.391 . S
N470 C471 1.388 . S
C471 H442 0.930 . S
C471 C466 1.391 . S
C471 N470 1.388 . S
Co472 O474 2.143 . S
Co472 O480 2.074 . S
Co472 O483 2.093 . S
Co472 O496 2.097 . S
Co472 N513 2.151 . S
Co472 N521 2.214 . S
Co473 O474 2.160 . S
Co473 O479 2.058 . S
Co473 O489 2.057 . S
Co473 O504 2.037 . S
Co473 N508 2.145 . S
Co473 N529 2.257 . S
O474 Co472 2.143 . S
O474 Co473 2.160 . S
C475 O476 1.278 . S
C475 O483 1.224 . S
O476 C475 1.278 . S
C477 O478 1.245 . S
C477 O489 1.232 . S
O478 C477 1.245 . S
O479 Co473 2.058 . S
O479 C505 1.269 . S
O480 Co472 2.074 . S
O480 C505 1.257 . S
H481 C506 0.930 . S
H482 C512 0.930 . S
O483 Co472 2.093 . S
O483 C475 1.224 . S
H484 C516 0.929 . S
H485 C518 0.930 . S
H486 C519 0.930 . S
H487 C517 0.929 . S
H488 C520 0.928 . S
O489 Co473 2.057 . S
O489 C477 1.232 . S
H490 C509 0.929 . S
H491 C510 0.929 . S
H492 C522 0.931 . S
H493 C514 0.929 . S
H494 C523 0.930 . S
H495 C515 0.931 . S
O496 Co472 2.097 . S
O496 C524 1.214 . S
H497 C525 0.929 . S
H498 C526 0.929 . S
H499 C527 0.930 . S
H500 C528 0.929 . S
H501 C530 0.930 . S
H502 C507 0.930 . S
H503 C511 0.930 . S
O504 Co473 2.037 . S
O504 C524 1.234 . S
C505 O479 1.269 . S
C505 O480 1.257 . S
C506 H481 0.930 . S
C506 C509 1.388 . S
C506 C511 1.418 . S
C507 H502 0.930 . S
C507 C510 1.404 . S
C507 C511 1.353 . S
N508 Co473 2.145 . S
N508 C509 1.397 . S
N508 C510 1.334 . S
C509 H490 0.929 . S
C509 C506 1.388 . S
C509 N508 1.397 . S
C510 H491 0.929 . S
C510 C507 1.404 . S
C510 N508 1.334 . S
C511 H503 0.930 . S
C511 C506 1.418 . S
C511 C507 1.353 . S
C512 H482 0.930 . S
C512 N513 1.330 . S
C512 C514 1.446 . S
N513 Co472 2.151 . S
N513 C512 1.330 . S
N513 C517 1.418 . S
C514 H493 0.929 . S
C514 C512 1.446 . S
C514 C515 1.332 . S
C515 H495 0.931 . S
C515 C514 1.332 . S
C515 C516 1.267 . S
C516 H484 0.929 . S
C516 C515 1.267 . S
C516 C517 1.251 . S
C517 H487 0.929 . S
C517 N513 1.418 . S
C517 C516 1.251 . S
C518 H485 0.930 . S
C518 C520 1.406 . S
C518 C523 1.261 . S
C519 H486 0.930 . S
C519 N521 1.325 . S
C519 C522 1.357 . S
C520 H488 0.928 . S
C520 C518 1.406 . S
C520 N521 1.261 . S
N521 Co472 2.214 . S
N521 C519 1.325 . S
N521 C520 1.261 . S
C522 H492 0.931 . S
C522 C519 1.357 . S
C522 C523 1.312 . S
C523 H494 0.930 . S
C523 C518 1.261 . S
C523 C522 1.312 . S
C524 O496 1.214 . S
C524 O504 1.234 . S
C525 H497 0.929 . S
C525 C528 1.391 . S
C525 C530 1.391 . S
C526 H498 0.929 . S
C526 C527 1.390 . S
C526 N529 1.391 . S
C527 H499 0.930 . S
C527 C526 1.390 . S
C527 C528 1.392 . S
C528 H500 0.929 . S
C528 C525 1.391 . S
C528 C527 1.392 . S
N529 Co473 2.257 . S
N529 C526 1.391 . S
N529 C530 1.388 . S
C530 H501 0.930 . S
C530 C525 1.391 . S
C530 N529 1.388 . S
Co531 O533 2.143 . S
Co531 O539 2.074 . S
Co531 O542 2.093 . S
Co531 O555 2.097 . S
Co531 N572 2.151 . S
Co531 N580 2.214 . S
Co532 O533 2.160 . S
Co532 O538 2.058 . S
Co532 O548 2.057 . S
Co532 O563 2.037 . S
Co532 N567 2.145 . S
Co532 N588 2.257 . S
O533 Co531 2.143 . S
O533 Co532 2.160 . S
C534 O535 1.285 . S
C534 O542 1.198 1_554 S
O535 C534 1.285 . S
C536 O537 1.245 . S
C536 O548 1.232 . S
O537 C536 1.245 . S
O538 Co532 2.058 . S
O538 C564 1.269 . S
O539 Co531 2.074 . S
O539 C564 1.257 . S
H540 C565 0.930 . S
H541 C571 0.930 . S
O542 Co531 2.093 . S
O542 C534 1.198 1_556 S
H543 C575 0.929 . S
H544 C577 0.930 . S
H545 C578 0.930 . S
H546 C576 0.929 . S
H547 C579 0.928 . S
O548 Co532 2.057 . S
O548 C536 1.232 . S
H549 C568 0.929 . S
H550 C569 0.929 . S
H551 C581 0.931 . S
H552 C573 0.929 . S
H553 C582 0.930 . S
H554 C574 0.931 . S
O555 Co531 2.097 . S
O555 C583 1.214 . S
H556 C584 0.929 . S
H557 C585 0.929 . S
H558 C586 0.930 . S
H559 C587 0.929 . S
H560 C589 0.930 . S
H561 C566 0.930 . S
H562 C570 0.930 . S
O563 Co532 2.037 . S
O563 C583 1.234 . S
C564 O538 1.269 . S
C564 O539 1.257 . S
C565 H540 0.930 . S
C565 C568 1.388 . S
C565 C570 1.418 . S
C566 H561 0.930 . S
C566 C569 1.404 . S
C566 C570 1.353 . S
N567 Co532 2.145 . S
N567 C568 1.397 . S
N567 C569 1.334 . S
C568 H549 0.929 . S
C568 C565 1.388 . S
C568 N567 1.397 . S
C569 H550 0.929 . S
C569 C566 1.404 . S
C569 N567 1.334 . S
C570 H562 0.930 . S
C570 C565 1.418 . S
C570 C566 1.353 . S
C571 H541 0.930 . S
C571 N572 1.330 . S
C571 C573 1.446 . S
N572 Co531 2.151 . S
N572 C571 1.330 . S
N572 C576 1.418 . S
C573 H552 0.929 . S
C573 C571 1.446 . S
C573 C574 1.332 . S
C574 H554 0.931 . S
C574 C573 1.332 . S
C574 C575 1.267 . S
C575 H543 0.929 . S
C575 C574 1.267 . S
C575 C576 1.251 . S
C576 H546 0.929 . S
C576 N572 1.418 . S
C576 C575 1.251 . S
C577 H544 0.930 . S
C577 C579 1.406 . S
C577 C582 1.261 . S
C578 H545 0.930 . S
C578 N580 1.325 . S
C578 C581 1.357 . S
C579 H547 0.928 . S
C579 C577 1.406 . S
C579 N580 1.261 . S
N580 Co531 2.214 . S
N580 C578 1.325 . S
N580 C579 1.261 . S
C581 H551 0.931 . S
C581 C578 1.357 . S
C581 C582 1.312 . S
C582 H553 0.930 . S
C582 C577 1.261 . S
C582 C581 1.312 . S
C583 O555 1.214 . S
C583 O563 1.234 . S
C584 H556 0.929 . S
C584 C587 1.391 . S
C584 C589 1.391 . S
C585 H557 0.929 . S
C585 C586 1.390 1_556 S
C585 N588 1.391 . S
C586 H558 0.930 . S
C586 C585 1.390 1_554 S
C586 C587 1.392 . S
C587 H559 0.929 . S
C587 C584 1.391 . S
C587 C586 1.392 . S
N588 Co532 2.257 . S
N588 C585 1.391 . S
N588 C589 1.388 1_556 S
C589 H560 0.930 . S
C589 C584 1.391 . S
C589 N588 1.388 1_554 S
Co590 O592 2.143 . S
Co590 O598 2.074 . S
Co590 O601 2.093 . S
Co590 O614 2.097 . S
Co590 N631 2.151 . S
Co590 N639 2.214 . S
Co591 O592 2.160 . S
Co591 O597 2.058 . S
Co591 O607 2.057 . S
Co591 O622 2.037 . S
Co591 N626 2.145 . S
Co591 N647 2.257 . S
O592 Co590 2.143 . S
O592 Co591 2.160 . S
C593 O594 1.278 . S
C593 O601 1.224 . S
O594 C593 1.278 . S
C595 O596 1.245 . S
C595 O607 1.232 . S
O596 C595 1.245 . S
O597 Co591 2.058 . S
O597 C623 1.269 . S
O598 Co590 2.074 . S
O598 C623 1.257 . S
H599 C624 0.930 1_556 S
H600 C630 0.930 . S
O601 Co590 2.093 . S
O601 C593 1.224 . S
H602 C634 0.929 . S
H603 C636 0.930 . S
H604 C637 0.930 . S
H605 C635 0.929 . S
H606 C638 0.928 . S
O607 Co591 2.057 . S
O607 C595 1.232 . S
H608 C627 0.929 . S
H609 C628 0.929 . S
H610 C640 0.931 1_556 S
H611 C632 0.929 . S
H612 C641 0.930 . S
H613 C633 0.931 . S
O614 Co590 2.097 . S
O614 C642 1.214 . S
H615 C643 0.929 . S
H616 C644 0.929 . S
H617 C645 0.930 . S
H618 C646 0.929 . S
H619 C648 0.930 . S
H620 C625 0.930 . S
H621 C629 0.930 . S
O622 Co591 2.037 . S
O622 C642 1.234 . S
C623 O597 1.269 . S
C623 O598 1.257 . S
C624 H599 0.930 1_554 S
C624 C627 1.388 . S
C624 C629 1.418 . S
C625 H620 0.930 . S
C625 C628 1.404 . S
C625 C629 1.353 . S
N626 Co591 2.145 . S
N626 C627 1.397 . S
N626 C628 1.334 . S
C627 H608 0.929 . S
C627 C624 1.388 . S
C627 N626 1.397 . S
C628 H609 0.929 . S
C628 C625 1.404 . S
C628 N626 1.334 . S
C629 H621 0.930 . S
C629 C624 1.418 . S
C629 C625 1.353 . S
C630 H600 0.930 . S
C630 N631 1.330 . S
C630 C632 1.446 . S
N631 Co590 2.151 . S
N631 C630 1.330 . S
N631 C635 1.418 . S
C632 H611 0.929 . S
C632 C630 1.446 . S
C632 C633 1.332 . S
C633 H613 0.931 . S
C633 C632 1.332 . S
C633 C634 1.267 . S
C634 H602 0.929 . S
C634 C633 1.267 . S
C634 C635 1.251 . S
C635 H605 0.929 . S
C635 N631 1.418 . S
C635 C634 1.251 . S
C636 H603 0.930 . S
C636 C638 1.406 . S
C636 C641 1.261 . S
C637 H604 0.930 . S
C637 N639 1.325 . S
C637 C640 1.357 . S
C638 H606 0.928 . S
C638 C636 1.406 . S
C638 N639 1.261 . S
N639 Co590 2.214 . S
N639 C637 1.325 . S
N639 C638 1.261 . S
C640 H610 0.931 1_554 S
C640 C637 1.357 . S
C640 C641 1.312 . S
C641 H612 0.930 . S
C641 C636 1.261 . S
C641 C640 1.312 . S
C642 O614 1.214 . S
C642 O622 1.234 . S
C643 H615 0.929 . S
C643 C646 1.391 . S
C643 C648 1.391 . S
C644 H616 0.929 . S
C644 C645 1.390 . S
C644 N647 1.391 . S
C645 H617 0.930 . S
C645 C644 1.390 . S
C645 C646 1.392 . S
C646 H618 0.929 . S
C646 C643 1.391 . S
C646 C645 1.392 . S
N647 Co591 2.257 . S
N647 C644 1.391 . S
N647 C648 1.388 . S
C648 H619 0.930 . S
C648 C643 1.391 . S
C648 N647 1.388 . S
Co649 O651 2.143 . S
Co649 O657 2.074 . S
Co649 O660 2.093 . S
Co649 O673 2.097 . S
Co649 N690 2.151 . S
Co649 N698 2.214 . S
Co650 O651 2.160 . S
Co650 O656 2.058 . S
Co650 O666 2.057 . S
Co650 O681 2.037 . S
Co650 N685 2.145 . S
Co650 N706 2.257 . S
O651 Co649 2.143 . S
O651 Co650 2.160 . S
C652 O653 1.278 . S
C652 O660 1.224 . S
O653 C652 1.278 . S
C654 O655 1.245 . S
C654 O666 1.232 . S
O655 C654 1.245 . S
O656 Co650 2.058 . S
O656 C682 1.269 . S
O657 Co649 2.074 . S
O657 C682 1.257 . S
H658 C683 0.930 . S
H659 C689 0.930 . S
O660 Co649 2.093 . S
O660 C652 1.224 . S
H661 C693 0.929 . S
H662 C695 0.930 . S
H663 C696 0.930 . S
H664 C694 0.929 . S
H665 C697 0.928 . S
O666 Co650 2.057 . S
O666 C654 1.232 . S
H667 C686 0.929 . S
H668 C687 0.929 . S
H669 C699 0.931 . S
H670 C691 0.929 . S
H671 C700 0.930 . S
H672 C692 0.931 . S
O673 Co649 2.097 . S
O673 C701 1.214 . S
H674 C702 0.929 . S
H675 C703 0.929 . S
H676 C704 0.930 . S
H677 C705 0.929 . S
H678 C707 0.930 . S
H679 C684 0.930 . S
H680 C688 0.930 . S
O681 Co650 2.037 . S
O681 C701 1.234 . S
C682 O656 1.269 . S
C682 O657 1.257 . S
C683 H658 0.930 . S
C683 C686 1.388 . S
C683 C688 1.418 . S
C684 H679 0.930 . S
C684 C687 1.404 . S
C684 C688 1.353 . S
N685 Co650 2.145 . S
N685 C686 1.397 . S
N685 C687 1.334 . S
C686 H667 0.929 . S
C686 C683 1.388 . S
C686 N685 1.397 . S
C687 H668 0.929 . S
C687 C684 1.404 . S
C687 N685 1.334 . S
C688 H680 0.930 . S
C688 C683 1.418 . S
C688 C684 1.353 . S
C689 H659 0.930 . S
C689 N690 1.330 . S
C689 C691 1.446 . S
N690 Co649 2.151 . S
N690 C689 1.330 . S
N690 C694 1.418 . S
C691 H670 0.929 . S
C691 C689 1.446 . S
C691 C692 1.332 . S
C692 H672 0.931 . S
C692 C691 1.332 . S
C692 C693 1.267 . S
C693 H661 0.929 . S
C693 C692 1.267 . S
C693 C694 1.251 . S
C694 H664 0.929 . S
C694 N690 1.418 . S
C694 C693 1.251 . S
C695 H662 0.930 . S
C695 C697 1.406 . S
C695 C700 1.261 . S
C696 H663 0.930 . S
C696 N698 1.325 . S
C696 C699 1.357 . S
C697 H665 0.928 . S
C697 C695 1.406 . S
C697 N698 1.261 . S
N698 Co649 2.214 . S
N698 C696 1.325 . S
N698 C697 1.261 . S
C699 H669 0.931 . S
C699 C696 1.357 . S
C699 C700 1.312 . S
C700 H671 0.930 . S
C700 C695 1.261 . S
C700 C699 1.312 . S
C701 O673 1.214 . S
C701 O681 1.234 . S
C702 H674 0.929 . S
C702 C705 1.391 . S
C702 C707 1.391 . S
C703 H675 0.929 . S
C703 C704 1.390 . S
C703 N706 1.391 . S
C704 H676 0.930 . S
C704 C703 1.390 . S
C704 C705 1.392 . S
C705 H677 0.929 . S
C705 C702 1.391 . S
C705 C704 1.392 . S
N706 Co650 2.257 . S
N706 C703 1.391 . S
N706 C707 1.388 . S
C707 H678 0.930 . S
C707 C702 1.391 . S
C707 N706 1.388 . S
H708 C714 0.930 . S
H709 C717 0.930 . S
H710 C718 0.930 . S
H711 C719 0.930 . S
H712 C722 0.930 . S
H713 C723 0.930 . S
C714 H708 0.930 . S
C714 C715 1.355 . S
C714 C716 1.415 . S
C715 C714 1.355 . S
C715 C717 1.419 . S
C716 C714 1.415 . S
C716 C721 1.425 . S
C716 C723 1.409 . S
C717 H709 0.930 . S
C717 C715 1.419 . S
C717 C718 1.362 . S
C718 H710 0.930 . S
C718 C717 1.362 . S
C718 C721 1.409 . S
C719 H711 0.930 . S
C719 C720 1.355 . S
C719 C721 1.415 . S
C720 C719 1.355 . S
C720 C722 1.419 . S
C721 C716 1.425 . S
C721 C718 1.409 . S
C721 C719 1.415 . S
C722 H712 0.930 . S
C722 C720 1.419 . S
C722 C723 1.362 . S
C723 H713 0.930 . S
C723 C716 1.409 . S
C723 C722 1.362 . S
H724 C730 0.930 . S
H725 C733 0.930 . S
H726 C734 0.930 . S
H727 C735 0.930 . S
H728 C738 0.930 . S
H729 C739 0.930 . S
C730 H724 0.930 . S
C730 C731 1.355 . S
C730 C732 1.415 . S
C731 C730 1.355 . S
C731 C733 1.419 . S
C732 C730 1.415 . S
C732 C737 1.425 . S
C732 C739 1.409 . S
C733 H725 0.930 . S
C733 C731 1.419 . S
C733 C734 1.362 . S
C734 H726 0.930 . S
C734 C733 1.362 . S
C734 C737 1.409 . S
C735 H727 0.930 . S
C735 C736 1.355 . S
C735 C737 1.415 . S
C736 C735 1.355 . S
C736 C738 1.419 . S
C737 C732 1.425 . S
C737 C734 1.409 . S
C737 C735 1.415 . S
C738 H728 0.930 . S
C738 C736 1.419 . S
C738 C739 1.362 . S
C739 H729 0.930 . S
C739 C732 1.409 . S
C739 C738 1.362 . S
H740 C746 0.930 . S
H741 C749 0.930 . S
H742 C750 0.930 . S
H743 C751 0.930 . S
H744 C754 0.930 . S
H745 C755 0.930 . S
C746 H740 0.930 . S
C746 C747 1.355 . S
C746 C748 1.415 . S
C747 C746 1.355 . S
C747 C749 1.419 . S
C748 C746 1.415 . S
C748 C753 1.425 . S
C748 C755 1.409 . S
C749 H741 0.930 . S
C749 C747 1.419 . S
C749 C750 1.362 . S
C750 H742 0.930 . S
C750 C749 1.362 . S
C750 C753 1.409 . S
C751 H743 0.930 . S
C751 C752 1.355 . S
C751 C753 1.415 . S
C752 C751 1.355 . S
C752 C754 1.419 . S
C753 C748 1.425 . S
C753 C750 1.409 . S
C753 C751 1.415 . S
C754 H744 0.930 . S
C754 C752 1.419 . S
C754 C755 1.362 . S
C755 H745 0.930 . S
C755 C748 1.409 . S
C755 C754 1.362 . S
H756 C762 0.930 . S
H757 C765 0.930 . S
H758 C766 0.930 . S
H759 C767 0.930 . S
H760 C770 0.930 . S
H761 C771 0.930 . S
C762 H756 0.930 . S
C762 C763 1.355 . S
C762 C764 1.415 . S
C763 C762 1.355 . S
C763 C765 1.419 . S
C764 C762 1.415 . S
C764 C769 1.425 . S
C764 C771 1.409 . S
C765 H757 0.930 . S
C765 C763 1.419 . S
C765 C766 1.362 . S
C766 H758 0.930 . S
C766 C765 1.362 . S
C766 C769 1.409 . S
C767 H759 0.930 . S
C767 C768 1.355 . S
C767 C769 1.415 . S
C768 C767 1.355 . S
C768 C770 1.419 . S
C769 C764 1.425 . S
C769 C766 1.409 . S
C769 C767 1.415 . S
C770 H760 0.930 . S
C770 C768 1.419 . S
C770 C771 1.362 . S
C771 H761 0.930 . S
C771 C764 1.409 . S
C771 C770 1.362 . S
H772 C778 0.930 . S
H773 C781 0.930 . S
H774 C782 0.930 . S
H775 C783 0.930 . S
H776 C786 0.930 . S
H777 C787 0.930 . S
C778 H772 0.930 . S
C778 C779 1.355 . S
C778 C780 1.415 . S
C779 C778 1.355 . S
C779 C781 1.419 . S
C780 C778 1.415 . S
C780 C785 1.425 . S
C780 C787 1.409 . S
C781 H773 0.930 . S
C781 C779 1.419 . S
C781 C782 1.362 . S
C782 H774 0.930 . S
C782 C781 1.362 . S
C782 C785 1.409 . S
C783 H775 0.930 . S
C783 C784 1.355 . S
C783 C785 1.415 . S
C784 C783 1.355 . S
C784 C786 1.419 . S
C785 C780 1.425 . S
C785 C782 1.409 . S
C785 C783 1.415 . S
C786 H776 0.930 . S
C786 C784 1.419 . S
C786 C787 1.362 . S
C787 H777 0.930 . S
C787 C780 1.409 . S
C787 C786 1.362 . S
H788 C794 0.930 . S
H789 C797 0.930 . S
H790 C798 0.930 . S
H791 C799 0.930 . S
H792 C802 0.930 . S
H793 C803 0.930 . S
C794 H788 0.930 . S
C794 C795 1.355 . S
C794 C796 1.415 . S
C795 C794 1.355 . S
C795 C797 1.419 . S
C796 C794 1.415 . S
C796 C801 1.425 . S
C796 C803 1.409 . S
C797 H789 0.930 . S
C797 C795 1.419 . S
C797 C798 1.362 . S
C798 H790 0.930 . S
C798 C797 1.362 . S
C798 C801 1.409 . S
C799 H791 0.930 . S
C799 C800 1.355 . S
C799 C801 1.415 . S
C800 C799 1.355 . S
C800 C802 1.419 . S
C801 C796 1.425 . S
C801 C798 1.409 . S
C801 C799 1.415 . S
C802 H792 0.930 . S
C802 C800 1.419 . S
C802 C803 1.362 . S
C803 H793 0.930 . S
C803 C796 1.409 . S
C803 C802 1.362 . S
H804 C810 0.930 . S
H805 C813 0.930 . S
H806 C814 0.930 . S
H807 C815 0.930 . S
H808 C818 0.930 . S
H809 C819 0.930 . S
C810 H804 0.930 . S
C810 C811 1.355 . S
C810 C812 1.415 . S
C811 C810 1.355 . S
C811 C813 1.419 . S
C812 C810 1.415 . S
C812 C817 1.425 . S
C812 C819 1.409 . S
C813 H805 0.930 . S
C813 C811 1.419 . S
C813 C814 1.362 . S
C814 H806 0.930 . S
C814 C813 1.362 . S
C814 C817 1.409 . S
C815 H807 0.930 . S
C815 C816 1.355 . S
C815 C817 1.415 . S
C816 C815 1.355 . S
C816 C818 1.419 . S
C817 C812 1.425 . S
C817 C814 1.409 . S
C817 C815 1.415 . S
C818 H808 0.930 . S
C818 C816 1.419 . S
C818 C819 1.362 . S
C819 H809 0.930 . S
C819 C812 1.409 . S
C819 C818 1.362 . S
H820 C826 0.930 . S
H821 C829 0.930 . S
H822 C830 0.930 . S
H823 C831 0.930 . S
H824 C834 0.930 . S
H825 C835 0.930 . S
C826 H820 0.930 . S
C826 C827 1.355 . S
C826 C828 1.415 . S
C827 C826 1.355 . S
C827 C829 1.419 . S
C828 C826 1.415 . S
C828 C833 1.425 . S
C828 C835 1.409 . S
C829 H821 0.930 . S
C829 C827 1.419 . S
C829 C830 1.362 . S
C830 H822 0.930 . S
C830 C829 1.362 . S
C830 C833 1.409 . S
C831 H823 0.930 . S
C831 C832 1.355 . S
C831 C833 1.415 . S
C832 C831 1.355 . S
C832 C834 1.419 . S
C833 C828 1.425 . S
C833 C830 1.409 . S
C833 C831 1.415 . S
C834 H824 0.930 . S
C834 C832 1.419 . S
C834 C835 1.362 . S
C835 H825 0.930 . S
C835 C828 1.409 . S
C835 C834 1.362 . S
H836 C842 0.930 . S
H837 C845 0.930 . S
H838 C846 0.930 . S
H839 C847 0.930 . S
H840 C850 0.930 . S
H841 C851 0.930 . S
C842 H836 0.930 . S
C842 C843 1.355 . S
C842 C844 1.415 . S
C843 C842 1.355 . S
C843 C845 1.419 . S
C844 C842 1.415 . S
C844 C849 1.425 . S
C844 C851 1.409 . S
C845 H837 0.930 . S
C845 C843 1.419 . S
C845 C846 1.362 . S
C846 H838 0.930 . S
C846 C845 1.362 . S
C846 C849 1.409 . S
C847 H839 0.930 . S
C847 C848 1.355 . S
C847 C849 1.415 . S
C848 C847 1.355 . S
C848 C850 1.419 . S
C849 C844 1.425 . S
C849 C846 1.409 . S
C849 C847 1.415 . S
C850 H840 0.930 . S
C850 C848 1.419 . S
C850 C851 1.362 . S
C851 H841 0.930 . S
C851 C844 1.409 . S
C851 C850 1.362 . S
H852 C858 0.930 . S
H853 C861 0.930 . S
H854 C862 0.930 . S
H855 C863 0.930 . S
H856 C866 0.930 . S
H857 C867 0.930 . S
C858 H852 0.930 . S
C858 C859 1.355 . S
C858 C860 1.415 . S
C859 C858 1.355 . S
C859 C861 1.419 . S
C860 C858 1.415 . S
C860 C865 1.425 . S
C860 C867 1.409 . S
C861 H853 0.930 . S
C861 C859 1.419 . S
C861 C862 1.362 . S
C862 H854 0.930 . S
C862 C861 1.362 . S
C862 C865 1.409 . S
C863 H855 0.930 . S
C863 C864 1.355 . S
C863 C865 1.415 . S
C864 C863 1.355 . S
C864 C866 1.419 . S
C865 C860 1.425 . S
C865 C862 1.409 . S
C865 C863 1.415 . S
C866 H856 0.930 . S
C866 C864 1.419 . S
C866 C867 1.362 . S
C867 H857 0.930 . S
C867 C860 1.409 . S
C867 C866 1.362 . S
H868 C874 0.930 . S
H869 C877 0.930 . S
H870 C878 0.930 . S
H871 C879 0.930 . S
H872 C882 0.930 . S
H873 C883 0.930 . S
C874 H868 0.930 . S
C874 C875 1.355 . S
C874 C876 1.415 . S
C875 C874 1.355 . S
C875 C877 1.419 . S
C876 C874 1.415 . S
C876 C881 1.425 . S
C876 C883 1.409 . S
C877 H869 0.930 . S
C877 C875 1.419 . S
C877 C878 1.362 . S
C878 H870 0.930 . S
C878 C877 1.362 . S
C878 C881 1.409 . S
C879 H871 0.930 . S
C879 C880 1.355 . S
C879 C881 1.415 . S
C880 C879 1.355 . S
C880 C882 1.419 . S
C881 C876 1.425 . S
C881 C878 1.409 . S
C881 C879 1.415 . S
C882 H872 0.930 . S
C882 C880 1.419 . S
C882 C883 1.362 . S
C883 H873 0.930 . S
C883 C876 1.409 . S
C883 C882 1.362 . S
H884 C890 0.930 . S
H885 C893 0.930 . S
H886 C894 0.930 . S
H887 C895 0.930 . S
H888 C898 0.930 . S
H889 C899 0.930 . S
C890 H884 0.930 . S
C890 C891 1.355 . S
C890 C892 1.415 . S
C891 C890 1.355 . S
C891 C893 1.419 . S
C892 C890 1.415 . S
C892 C897 1.425 . S
C892 C899 1.409 . S
C893 H885 0.930 . S
C893 C891 1.419 . S
C893 C894 1.362 . S
C894 H886 0.930 . S
C894 C893 1.362 . S
C894 C897 1.409 . S
C895 H887 0.930 . S
C895 C896 1.355 . S
C895 C897 1.415 . S
C896 C895 1.355 . S
C896 C898 1.419 . S
C897 C892 1.425 . S
C897 C894 1.409 . S
C897 C895 1.415 . S
C898 H888 0.930 . S
C898 C896 1.419 . S
C898 C899 1.362 . S
C899 H889 0.930 . S
C899 C892 1.409 . S
C899 C898 1.362 . S
H900 C906 0.930 . S
H901 C909 0.930 . S
H902 C910 0.941 . S
H903 C911 0.930 . S
H904 C914 0.930 . S
H905 C915 0.933 . S
C906 H900 0.930 . S
C906 C907 1.355 . S
C906 C908 1.415 . S
C907 C906 1.355 . S
C907 C909 1.419 . S
C908 C906 1.415 . S
C908 C913 1.425 1_655 S
C908 C915 1.410 . S
C909 H901 0.930 . S
C909 C907 1.419 . S
C909 C910 1.349 1_655 S
C910 H902 0.941 . S
C910 C909 1.349 1_455 S
C910 C913 1.412 . S
C911 H903 0.930 . S
C911 C912 1.355 . S
C911 C913 1.415 . S
C912 C911 1.355 . S
C912 C914 1.419 . S
C913 C908 1.425 1_455 S
C913 C910 1.412 . S
C913 C911 1.415 . S
C914 H904 0.930 . S
C914 C912 1.419 . S
C914 C915 1.358 1_455 S
C915 H905 0.933 . S
C915 C908 1.410 . S
C915 C914 1.358 1_655 S
H916 C922 0.930 . S
H917 C925 0.930 . S
H918 C926 0.913 1_545 S
H919 C927 0.930 . S
H920 C930 0.930 . S
H921 C931 0.912 1_565 S
C922 H916 0.930 . S
C922 C923 1.355 . S
C922 C924 1.415 . S
C923 C922 1.355 . S
C923 C925 1.419 . S
C924 C922 1.415 . S
C924 C929 1.425 1_565 S
C924 C931 1.409 1_565 S
C925 H917 0.930 . S
C925 C923 1.419 . S
C925 C926 1.362 . S
C926 H918 0.913 1_565 S
C926 C925 1.362 . S
C926 C929 1.409 1_565 S
C927 H919 0.930 . S
C927 C928 1.355 . S
C927 C929 1.415 . S
C928 C927 1.355 . S
C928 C930 1.419 . S
C929 C924 1.425 1_545 S
C929 C926 1.409 1_545 S
C929 C927 1.415 . S
C930 H920 0.930 . S
C930 C928 1.419 . S
C930 C931 1.362 . S
C931 H921 0.912 1_545 S
C931 C924 1.409 1_545 S
C931 C930 1.362 . S
H932 C938 0.930 . S
H933 C941 0.930 . S
H934 C942 0.930 . S
H935 C943 0.930 . S
H936 C946 0.930 . S
H937 C947 0.930 . S
C938 H932 0.930 . S
C938 C939 1.355 . S
C938 C940 1.415 . S
C939 C938 1.355 . S
C939 C941 1.419 . S
C940 C938 1.415 . S
C940 C945 1.425 . S
C940 C947 1.409 . S
C941 H933 0.930 . S
C941 C939 1.419 . S
C941 C942 1.362 . S
C942 H934 0.930 . S
C942 C941 1.362 . S
C942 C945 1.409 . S
C943 H935 0.930 . S
C943 C944 1.355 . S
C943 C945 1.415 . S
C944 C943 1.355 . S
C944 C946 1.419 . S
C945 C940 1.425 . S
C945 C942 1.409 . S
C945 C943 1.415 . S
C946 H936 0.930 . S
C946 C944 1.419 . S
C946 C947 1.362 . S
C947 H937 0.930 . S
C947 C940 1.409 . S
C947 C946 1.362 . S
H948 C954 0.930 . S
H949 C957 0.930 . S
H950 C958 0.930 1_655 S
H951 C959 0.930 . S
H952 C962 0.930 . S
H953 C963 0.930 1_455 S
C954 H948 0.930 . S
C954 C955 1.355 . S
C954 C956 1.415 . S
C955 C954 1.355 . S
C955 C957 1.419 . S
C956 C954 1.415 . S
C956 C961 1.425 1_455 S
C956 C963 1.409 1_455 S
C957 H949 0.930 . S
C957 C955 1.419 . S
C957 C958 1.362 . S
C958 H950 0.930 1_455 S
C958 C957 1.362 . S
C958 C961 1.409 1_455 S
C959 H951 0.930 . S
C959 C960 1.355 . S
C959 C961 1.415 . S
C960 C959 1.355 . S
C960 C962 1.419 . S
C961 C956 1.425 1_655 S
C961 C958 1.409 1_655 S
C961 C959 1.415 . S
C962 H952 0.930 . S
C962 C960 1.419 . S
C962 C963 1.362 . S
C963 H953 0.930 1_655 S
C963 C956 1.409 1_655 S
C963 C962 1.362 . S
H964 C970 0.930 1_554 S
H965 C973 0.930 . S
H966 C974 0.930 1_565 S
H967 C975 0.930 1_556 S
H968 C978 0.930 . S
H969 C979 0.930 1_545 S
C970 H964 0.930 1_556 S
C970 C971 1.355 . S
C970 C972 1.415 1_556 S
C971 C970 1.355 . S
C971 C973 1.419 . S
C972 C970 1.415 1_554 S
C972 C977 1.425 1_544 S
C972 C979 1.409 1_545 S
C973 H965 0.930 . S
C973 C971 1.419 . S
C973 C974 1.362 . S
C974 H966 0.930 1_545 S
C974 C973 1.362 . S
C974 C977 1.409 1_545 S
C975 H967 0.930 1_554 S
C975 C976 1.355 . S
C975 C977 1.415 1_554 S
C976 C975 1.355 . S
C976 C978 1.419 . S
C977 C972 1.425 1_566 S
C977 C974 1.409 1_565 S
C977 C975 1.415 1_556 S
C978 H968 0.930 . S
C978 C976 1.419 . S
C978 C979 1.362 . S
C979 H969 0.930 1_565 S
C979 C972 1.409 1_565 S
C979 C978 1.362 . S
H980 C986 0.930 . S
H981 C989 0.930 . S
H982 C990 0.930 . S
H983 C991 0.930 . S
H984 C994 0.930 . S
H985 C995 0.930 . S
C986 H980 0.930 . S
C986 C987 1.355 . S
C986 C988 1.415 . S
C987 C986 1.355 . S
C987 C989 1.419 . S
C988 C986 1.415 . S
C988 C993 1.425 . S
C988 C995 1.409 . S
C989 H981 0.930 . S
C989 C987 1.419 . S
C989 C990 1.362 . S
C990 H982 0.930 . S
C990 C989 1.362 . S
C990 C993 1.409 . S
C991 H983 0.930 . S
C991 C992 1.355 . S
C991 C993 1.415 . S
C992 C991 1.355 . S
C992 C994 1.419 . S
C993 C988 1.425 . S
C993 C990 1.409 . S
C993 C991 1.415 . S
C994 H984 0.930 . S
C994 C992 1.419 . S
C994 C995 1.362 . S
C995 H985 0.930 . S
C995 C988 1.409 . S
C995 C994 1.362 . S
H996 C1002 0.930 . S
H997 C1005 0.930 . S
H998 C1006 0.930 . S
H999 C1007 0.930 . S
H1000 C1010 0.930 . S
H1001 C1011 0.930 . S
C1002 H996 0.930 . S
C1002 C1003 1.355 . S
C1002 C1004 1.415 . S
C1003 C1002 1.355 . S
C1003 C1005 1.419 . S
C1004 C1002 1.415 . S
C1004 C1009 1.425 . S
C1004 C1011 1.409 . S
C1005 H997 0.930 . S
C1005 C1003 1.419 . S
C1005 C1006 1.362 . S
C1006 H998 0.930 . S
C1006 C1005 1.362 . S
C1006 C1009 1.409 . S
C1007 H999 0.930 . S
C1007 C1008 1.355 . S
C1007 C1009 1.415 . S
C1008 C1007 1.355 . S
C1008 C1010 1.419 . S
C1009 C1004 1.425 . S
C1009 C1006 1.409 . S
C1009 C1007 1.415 . S
C1010 H1000 0.930 . S
C1010 C1008 1.419 . S
C1010 C1011 1.362 . S
C1011 H1001 0.930 . S
C1011 C1004 1.409 . S
C1011 C1010 1.362 . S
H1012 C1018 0.930 . S
H1013 C1021 0.930 . S
H1014 C1022 0.930 . S
H1015 C1023 0.930 . S
H1016 C1026 0.930 . S
H1017 C1027 0.930 . S
C1018 H1012 0.930 . S
C1018 C1019 1.355 . S
C1018 C1020 1.415 . S
C1019 C1018 1.355 . S
C1019 C1021 1.419 . S
C1020 C1018 1.415 . S
C1020 C1025 1.425 . S
C1020 C1027 1.409 . S
C1021 H1013 0.930 . S
C1021 C1019 1.419 . S
C1021 C1022 1.362 . S
C1022 H1014 0.930 . S
C1022 C1021 1.362 . S
C1022 C1025 1.409 . S
C1023 H1015 0.930 . S
C1023 C1024 1.355 . S
C1023 C1025 1.415 . S
C1024 C1023 1.355 . S
C1024 C1026 1.419 . S
C1025 C1020 1.425 . S
C1025 C1022 1.409 . S
C1025 C1023 1.415 . S
C1026 H1016 0.930 . S
C1026 C1024 1.419 . S
C1026 C1027 1.362 . S
C1027 H1017 0.930 . S
C1027 C1020 1.409 . S
C1027 C1026 1.362 . S
H1028 C1034 0.930 . S
H1029 C1037 0.930 . S
H1030 C1038 0.930 . S
H1031 C1039 0.930 . S
H1032 C1042 0.930 . S
H1033 C1043 0.930 . S
C1034 H1028 0.930 . S
C1034 C1035 1.355 . S
C1034 C1036 1.415 . S
C1035 C1034 1.355 . S
C1035 C1037 1.419 . S
C1036 C1034 1.415 . S
C1036 C1041 1.425 . S
C1036 C1043 1.409 . S
C1037 H1029 0.930 . S
C1037 C1035 1.419 . S
C1037 C1038 1.362 . S
C1038 H1030 0.930 . S
C1038 C1037 1.362 . S
C1038 C1041 1.409 . S
C1039 H1031 0.930 . S
C1039 C1040 1.355 . S
C1039 C1041 1.415 . S
C1040 C1039 1.355 . S
C1040 C1042 1.419 . S
C1041 C1036 1.425 . S
C1041 C1038 1.409 . S
C1041 C1039 1.415 . S
C1042 H1032 0.930 . S
C1042 C1040 1.419 . S
C1042 C1043 1.362 . S
C1043 H1033 0.930 . S
C1043 C1036 1.409 . S
C1043 C1042 1.362 . S
H1044 C1050 0.930 . S
H1045 C1053 0.930 . S
H1046 C1054 0.930 . S
H1047 C1055 0.930 . S
H1048 C1058 0.930 . S
H1049 C1059 0.930 . S
C1050 H1044 0.930 . S
C1050 C1051 1.355 . S
C1050 C1052 1.415 . S
C1051 C1050 1.355 . S
C1051 C1053 1.419 . S
C1052 C1050 1.415 . S
C1052 C1057 1.425 . S
C1052 C1059 1.409 . S
C1053 H1045 0.930 . S
C1053 C1051 1.419 . S
C1053 C1054 1.362 . S
C1054 H1046 0.930 . S
C1054 C1053 1.362 . S
C1054 C1057 1.409 . S
C1055 H1047 0.930 . S
C1055 C1056 1.355 . S
C1055 C1057 1.415 . S
C1056 C1055 1.355 . S
C1056 C1058 1.419 . S
C1057 C1052 1.425 . S
C1057 C1054 1.409 . S
C1057 C1055 1.415 . S
C1058 H1048 0.930 . S
C1058 C1056 1.419 . S
C1058 C1059 1.362 . S
C1059 H1049 0.930 . S
C1059 C1052 1.409 . S
C1059 C1058 1.362 . S
H1060 C1066 0.930 . S
H1061 C1069 0.930 . S
H1062 C1070 0.930 . S
H1063 C1071 0.930 . S
H1064 C1074 0.930 . S
H1065 C1075 0.930 . S
C1066 H1060 0.930 . S
C1066 C1067 1.355 . S
C1066 C1068 1.415 . S
C1067 C1066 1.355 . S
C1067 C1069 1.419 . S
C1068 C1066 1.415 . S
C1068 C1073 1.425 . S
C1068 C1075 1.409 . S
C1069 H1061 0.930 . S
C1069 C1067 1.419 . S
C1069 C1070 1.362 . S
C1070 H1062 0.930 . S
C1070 C1069 1.362 . S
C1070 C1073 1.409 . S
C1071 H1063 0.930 . S
C1071 C1072 1.355 . S
C1071 C1073 1.415 . S
C1072 C1071 1.355 . S
C1072 C1074 1.419 . S
C1073 C1068 1.425 . S
C1073 C1070 1.409 . S
C1073 C1071 1.415 . S
C1074 H1064 0.930 . S
C1074 C1072 1.419 . S
C1074 C1075 1.362 . S
C1075 H1065 0.930 . S
C1075 C1068 1.409 . S
C1075 C1074 1.362 . S
H1076 C1082 0.930 . S
H1077 C1085 0.930 . S
H1078 C1086 0.930 . S
H1079 C1087 0.930 . S
H1080 C1090 0.930 1_556 S
H1081 C1091 0.930 . S
C1082 H1076 0.930 . S
C1082 C1083 1.355 . S
C1082 C1084 1.415 . S
C1083 C1082 1.355 . S
C1083 C1085 1.419 . S
C1084 C1082 1.415 . S
C1084 C1089 1.425 . S
C1084 C1091 1.409 . S
C1085 H1077 0.930 . S
C1085 C1083 1.419 . S
C1085 C1086 1.362 . S
C1086 H1078 0.930 . S
C1086 C1085 1.362 . S
C1086 C1089 1.409 . S
C1087 H1079 0.930 . S
C1087 C1088 1.355 . S
C1087 C1089 1.415 . S
C1088 C1087 1.355 . S
C1088 C1090 1.419 . S
C1089 C1084 1.425 . S
C1089 C1086 1.409 . S
C1089 C1087 1.415 . S
C1090 H1080 0.930 1_554 S
C1090 C1088 1.419 . S
C1090 C1091 1.362 . S
C1091 H1081 0.930 . S
C1091 C1084 1.409 . S
C1091 C1090 1.362 . S
C715 C33 1.094 . S
C720 C406 1.107 . S
C731 C111 1.066 . S
C736 C446 1.102 . S
C747 C524 1.109 . S
C752 C170 1.097 . S
C763 C210 1.105 . S
C768 C583 1.094 . S
C779 C288 1.066 . S
C784 C623 1.103 . S
C795 C701 1.067 . S
C800 C347 1.096 . S
C811 C505 1.719 . S
C816 C52 1.742 . S
C827 C92 1.731 . S
C832 C564 1.733 . S
C843 C642 1.730 1_556 S
C848 C151 1.700 . S
C859 C682 1.704 . S
C864 C229 1.733 1_554 S
C875 C269 1.682 . S
C880 C387 1.675 . S
C891 C328 1.711 . S
C896 C465 1.738 . S
C907 C654 1.461 . S
C912 C3 1.451 . S
C923 C359 1.459 . S
C928 C64 1.453 . S
C939 C123 1.462 . S
C944 C416 1.453 . S
C955 C477 1.460 . S
C960 C180 1.451 . S
C971 C536 1.460 . S
C976 C241 1.455 . S
C987 C593 1.456 . S
C992 C300 1.453 . S
C1003 C5 1.290 . S
C1008 C595 1.295 . S
C1019 C652 1.244 . S
C1024 C62 1.320 . S
C1035 C121 1.245 . S
C1040 C357 1.316 . S
C1051 C182 1.325 . S
C1056 C418 1.270 . S
C1067 C239 1.291 . S
C1072 C475 1.306 . S
C1083 C298 1.273 . S
C1088 C534 1.303 . S
