# Generated by pormake.
# Topology uos, (4)-cn, num edge types: 1
# Building blocks:
#     Node 0, Type 0, BuildingBlock: GALJAG_clean_sbu_0, # of connection points: 4
#     Node 1, Type 0, BuildingBlock: GALJAG_clean_sbu_0, # of connection points: 4
#     Node 2, Type 0, BuildingBlock: GALJAG_clean_sbu_0, # of connection points: 4
#     Node 3, Type 0, BuildingBlock: GALJAG_clean_sbu_0, # of connection points: 4
#     Node 4, Type 0, BuildingBlock: GALJAG_clean_sbu_0, # of connection points: 4
#     Node 5, Type 0, BuildingBlock: GALJAG_clean_sbu_0, # of connection points: 4
#     Node 6, Type 0, BuildingBlock: GALJAG_clean_sbu_0, # of connection points: 4
#     Node 7, Type 0, BuildingBlock: GALJAG_clean_sbu_0, # of connection points: 4
#     Node 8, Type 0, BuildingBlock: GALJAG_clean_sbu_0, # of connection points: 4
#     Node 9, Type 0, BuildingBlock: GALJAG_clean_sbu_0, # of connection points: 4
#     Node 10, Type 0, BuildingBlock: GALJAG_clean_sbu_0, # of connection points: 4
#     Node 11, Type 0, BuildingBlock: GALJAG_clean_sbu_0, # of connection points: 4
#     Node 12, Type 0, BuildingBlock: GALJAG_clean_sbu_0, # of connection points: 4
#     Node 13, Type 0, BuildingBlock: GALJAG_clean_sbu_0, # of connection points: 4
#     Node 14, Type 0, BuildingBlock: GALJAG_clean_sbu_0, # of connection points: 4
#     Node 15, Type 0, BuildingBlock: GALJAG_clean_sbu_0, # of connection points: 4
#     Node 16, Type 0, BuildingBlock: GALJAG_clean_sbu_0, # of connection points: 4
#     Node 17, Type 0, BuildingBlock: GALJAG_clean_sbu_0, # of connection points: 4
#     Node 18, Type 0, BuildingBlock: GALJAG_clean_sbu_0, # of connection points: 4
#     Node 19, Type 0, BuildingBlock: GALJAG_clean_sbu_0, # of connection points: 4
#     Node 20, Type 0, BuildingBlock: GALJAG_clean_sbu_0, # of connection points: 4
#     Node 21, Type 0, BuildingBlock: GALJAG_clean_sbu_0, # of connection points: 4
#     Node 22, Type 0, BuildingBlock: GALJAG_clean_sbu_0, # of connection points: 4
#     Node 23, Type 0, BuildingBlock: GALJAG_clean_sbu_0, # of connection points: 4
#     Node 24, Type 0, BuildingBlock: GALJAG_clean_sbu_0, # of connection points: 4
#     Node 25, Type 0, BuildingBlock: GALJAG_clean_sbu_0, # of connection points: 4
#     Node 26, Type 0, BuildingBlock: GALJAG_clean_sbu_0, # of connection points: 4
#     Node 27, Type 0, BuildingBlock: GALJAG_clean_sbu_0, # of connection points: 4
#     Node 28, Type 0, BuildingBlock: GALJAG_clean_sbu_0, # of connection points: 4
#     Node 29, Type 0, BuildingBlock: GALJAG_clean_sbu_0, # of connection points: 4
#     Node 30, Type 0, BuildingBlock: GALJAG_clean_sbu_0, # of connection points: 4
#     Node 31, Type 0, BuildingBlock: GALJAG_clean_sbu_0, # of connection points: 4
#     Edge 32, Type (0, 0), BuildingBlock: OJICUG_clean_linker_0, # of connection points: 2
#     Edge 33, Type (0, 0), BuildingBlock: OJICUG_clean_linker_0, # of connection points: 2
#     Edge 34, Type (0, 0), BuildingBlock: OJICUG_clean_linker_0, # of connection points: 2
#     Edge 35, Type (0, 0), BuildingBlock: OJICUG_clean_linker_0, # of connection points: 2
#     Edge 36, Type (0, 0), BuildingBlock: OJICUG_clean_linker_0, # of connection points: 2
#     Edge 37, Type (0, 0), BuildingBlock: OJICUG_clean_linker_0, # of connection points: 2
#     Edge 38, Type (0, 0), BuildingBlock: OJICUG_clean_linker_0, # of connection points: 2
#     Edge 39, Type (0, 0), BuildingBlock: OJICUG_clean_linker_0, # of connection points: 2
#     Edge 40, Type (0, 0), BuildingBlock: OJICUG_clean_linker_0, # of connection points: 2
#     Edge 41, Type (0, 0), BuildingBlock: OJICUG_clean_linker_0, # of connection points: 2
#     Edge 42, Type (0, 0), BuildingBlock: OJICUG_clean_linker_0, # of connection points: 2
#     Edge 43, Type (0, 0), BuildingBlock: OJICUG_clean_linker_0, # of connection points: 2
#     Edge 44, Type (0, 0), BuildingBlock: OJICUG_clean_linker_0, # of connection points: 2
#     Edge 45, Type (0, 0), BuildingBlock: OJICUG_clean_linker_0, # of connection points: 2
#     Edge 46, Type (0, 0), BuildingBlock: OJICUG_clean_linker_0, # of connection points: 2
#     Edge 47, Type (0, 0), BuildingBlock: OJICUG_clean_linker_0, # of connection points: 2
#     Edge 48, Type (0, 0), BuildingBlock: OJICUG_clean_linker_0, # of connection points: 2
#     Edge 49, Type (0, 0), BuildingBlock: OJICUG_clean_linker_0, # of connection points: 2
#     Edge 50, Type (0, 0), BuildingBlock: OJICUG_clean_linker_0, # of connection points: 2
#     Edge 51, Type (0, 0), BuildingBlock: OJICUG_clean_linker_0, # of connection points: 2
#     Edge 52, Type (0, 0), BuildingBlock: OJICUG_clean_linker_0, # of connection points: 2
#     Edge 53, Type (0, 0), BuildingBlock: OJICUG_clean_linker_0, # of connection points: 2
#     Edge 54, Type (0, 0), BuildingBlock: OJICUG_clean_linker_0, # of connection points: 2
#     Edge 55, Type (0, 0), BuildingBlock: OJICUG_clean_linker_0, # of connection points: 2
#     Edge 56, Type (0, 0), BuildingBlock: OJICUG_clean_linker_0, # of connection points: 2
#     Edge 57, Type (0, 0), BuildingBlock: OJICUG_clean_linker_0, # of connection points: 2
#     Edge 58, Type (0, 0), BuildingBlock: OJICUG_clean_linker_0, # of connection points: 2
#     Edge 59, Type (0, 0), BuildingBlock: OJICUG_clean_linker_0, # of connection points: 2
#     Edge 60, Type (0, 0), BuildingBlock: OJICUG_clean_linker_0, # of connection points: 2
#     Edge 61, Type (0, 0), BuildingBlock: OJICUG_clean_linker_0, # of connection points: 2
#     Edge 62, Type (0, 0), BuildingBlock: OJICUG_clean_linker_0, # of connection points: 2
#     Edge 63, Type (0, 0), BuildingBlock: OJICUG_clean_linker_0, # of connection points: 2
#     Edge 64, Type (0, 0), BuildingBlock: OJICUG_clean_linker_0, # of connection points: 2
#     Edge 65, Type (0, 0), BuildingBlock: OJICUG_clean_linker_0, # of connection points: 2
#     Edge 66, Type (0, 0), BuildingBlock: OJICUG_clean_linker_0, # of connection points: 2
#     Edge 67, Type (0, 0), BuildingBlock: OJICUG_clean_linker_0, # of connection points: 2
#     Edge 68, Type (0, 0), BuildingBlock: OJICUG_clean_linker_0, # of connection points: 2
#     Edge 69, Type (0, 0), BuildingBlock: OJICUG_clean_linker_0, # of connection points: 2
#     Edge 70, Type (0, 0), BuildingBlock: OJICUG_clean_linker_0, # of connection points: 2
#     Edge 71, Type (0, 0), BuildingBlock: OJICUG_clean_linker_0, # of connection points: 2
#     Edge 72, Type (0, 0), BuildingBlock: OJICUG_clean_linker_0, # of connection points: 2
#     Edge 73, Type (0, 0), BuildingBlock: OJICUG_clean_linker_0, # of connection points: 2
#     Edge 74, Type (0, 0), BuildingBlock: OJICUG_clean_linker_0, # of connection points: 2
#     Edge 75, Type (0, 0), BuildingBlock: OJICUG_clean_linker_0, # of connection points: 2
#     Edge 76, Type (0, 0), BuildingBlock: OJICUG_clean_linker_0, # of connection points: 2
#     Edge 77, Type (0, 0), BuildingBlock: OJICUG_clean_linker_0, # of connection points: 2
#     Edge 78, Type (0, 0), BuildingBlock: OJICUG_clean_linker_0, # of connection points: 2
#     Edge 79, Type (0, 0), BuildingBlock: OJICUG_clean_linker_0, # of connection points: 2
#     Edge 80, Type (0, 0), BuildingBlock: OJICUG_clean_linker_0, # of connection points: 2
#     Edge 81, Type (0, 0), BuildingBlock: OJICUG_clean_linker_0, # of connection points: 2
#     Edge 82, Type (0, 0), BuildingBlock: OJICUG_clean_linker_0, # of connection points: 2
#     Edge 83, Type (0, 0), BuildingBlock: OJICUG_clean_linker_0, # of connection points: 2
#     Edge 84, Type (0, 0), BuildingBlock: OJICUG_clean_linker_0, # of connection points: 2
#     Edge 85, Type (0, 0), BuildingBlock: OJICUG_clean_linker_0, # of connection points: 2
#     Edge 86, Type (0, 0), BuildingBlock: OJICUG_clean_linker_0, # of connection points: 2
#     Edge 87, Type (0, 0), BuildingBlock: OJICUG_clean_linker_0, # of connection points: 2
#     Edge 88, Type (0, 0), BuildingBlock: OJICUG_clean_linker_0, # of connection points: 2
#     Edge 89, Type (0, 0), BuildingBlock: OJICUG_clean_linker_0, # of connection points: 2
#     Edge 90, Type (0, 0), BuildingBlock: OJICUG_clean_linker_0, # of connection points: 2
#     Edge 91, Type (0, 0), BuildingBlock: OJICUG_clean_linker_0, # of connection points: 2
#     Edge 92, Type (0, 0), BuildingBlock: OJICUG_clean_linker_0, # of connection points: 2
#     Edge 93, Type (0, 0), BuildingBlock: OJICUG_clean_linker_0, # of connection points: 2
#     Edge 94, Type (0, 0), BuildingBlock: OJICUG_clean_linker_0, # of connection points: 2
#     Edge 95, Type (0, 0), BuildingBlock: OJICUG_clean_linker_0, # of connection points: 2
# Relax obj value: 0.041
# Max RMSD: 0.074
# Mean RMSD: 0.074
data_MOF--net-uos--node1-GALJAG_clean_sbu_0--edge1-OJICUG_clean_linker_0
_symmetry_space_group_name_H-M    P1
_symmetry_Int_Tables_number       1
_symmetry_cell_setting            triclinic
loop_
_symmetry_equiv_pos_as_xyz
'x, y, z'
_cell_length_a     65.561888
_cell_length_b     65.493594
_cell_length_c     15.529468
_cell_angle_alpha  89.888732
_cell_angle_beta   90.006179
_cell_angle_gamma 89.975582
loop_
_atom_site_label
_atom_site_type_symbol
_atom_site_fract_x
_atom_site_fract_y
_atom_site_fract_z
_atom_type_partial_charge
In0 In 0.17391 0.1692 0.12055 0.0
O1 O 0.17225 0.14258 0.0243 0.0
O2 O 0.15222 0.16761 0.00617 0.0
C3 C 0.21289 0.1681 0.17616 0.0
C4 C 0.1518 0.14936 0.24021 0.0
C5 C 0.17102 0.20993 0.10096 0.0
O6 O 0.20756 0.1597 0.10637 0.0
O7 O 0.19876 0.17702 0.2162 0.0
O8 O 0.16191 0.20018 0.15982 0.0
O9 O 0.18142 0.19901 0.04996 0.0
C10 C 0.15748 0.14999 0.98259 0.0
O11 O 0.14593 0.16595 0.20727 0.0
O12 O 0.16897 0.14327 0.2149 0.0
In13 In 0.0869 0.92618 0.3621 0.0
O14 O 0.11047 0.92604 0.25145 0.0
O15 O 0.0917 0.90002 0.26899 0.0
C16 C 0.08711 0.96493 0.42122 0.0
C17 C 0.10654 0.90621 0.48883 0.0
C18 C 0.04669 0.92235 0.33128 0.0
O19 O 0.09751 0.95966 0.35629 0.0
O20 O 0.0766 0.95088 0.45449 0.0
O21 O 0.05596 0.91299 0.39063 0.0
O22 O 0.05785 0.93371 0.28491 0.0
C23 C 0.10631 0.90801 0.22864 0.0
O24 O 0.0889 0.90131 0.4644 0.0
O25 O 0.11405 0.92145 0.45089 0.0
In26 In 0.33186 0.83733 0.61359 0.0
O27 O 0.33249 0.85077 0.47493 0.0
O28 O 0.35762 0.85607 0.55757 0.0
C29 C 0.2917 0.83964 0.65505 0.0
C30 C 0.3501 0.85384 0.75086 0.0
C31 C 0.33914 0.79704 0.59518 0.0
O32 O 0.30221 0.85529 0.6387 0.0
O33 O 0.30113 0.82303 0.64703 0.0
O34 O 0.3431 0.80677 0.6633 0.0
O35 O 0.33204 0.80781 0.53442 0.0
C36 C 0.34963 0.85926 0.48551 0.0
O37 O 0.35724 0.83836 0.71289 0.0
O38 O 0.3331 0.86003 0.72297 0.0
In39 In 0.41962 0.083 0.86472 0.0
O40 O 0.40621 0.08364 0.72637 0.0
O41 O 0.40226 0.10948 0.80677 0.0
C42 C 0.41767 0.04345 0.91557 0.0
C43 C 0.4012 0.10174 -0.00361 0.0
C44 C 0.45986 0.08917 0.83876 0.0
O45 O 0.40381 0.05152 0.87033 0.0
O46 O 0.43231 0.05511 0.93335 0.0
O47 O 0.45033 0.09591 0.90331 0.0
O48 O 0.4489 0.07989 0.78446 0.0
C49 C 0.39854 0.10123 0.73568 0.0
O50 O 0.4181 0.10772 0.96653 0.0
O51 O 0.39427 0.08561 0.96304 0.0
In52 In 0.17224 0.83941 0.86151 0.0
O53 O 0.14693 0.84203 0.76158 0.0
O54 O 0.16764 0.86678 0.77402 0.0
C55 C 0.16902 0.79899 0.89108 0.0
C56 C 0.15463 0.85893 -0.00405 0.0
C57 C 0.21073 0.83991 0.80023 0.0
O58 O 0.15928 0.80821 0.83264 0.0
O59 O 0.18029 0.8103 0.93697 0.0
O60 O 0.20591 0.84909 0.86896 0.0
O61 O 0.19634 0.83046 0.76418 0.0
C62 C 0.1521 0.85965 0.73716 0.0
O63 O 0.17243 0.86325 0.97074 0.0
O64 O 0.14659 0.84406 0.95751 0.0
In65 In 0.41769 0.92213 0.10638 0.0
O66 O 0.41615 0.89787 0.00255 0.0
O67 O 0.39159 0.91911 0.01202 0.0
C68 C 0.45764 0.91578 0.13881 0.0
C69 C 0.39623 0.90428 0.23486 0.0
C70 C 0.41663 0.96132 0.05068 0.0
O71 O 0.44845 0.90817 0.07512 0.0
O72 O 0.44647 0.92612 0.1888 0.0
O73 O 0.4031 0.95417 0.10023 0.0
O74 O 0.4305 0.9489 0.03078 0.0
C75 C 0.39878 0.90341 0.97604 0.0
O76 O 0.40301 0.92229 0.24215 0.0
O77 O 0.40108 0.89545 0.16624 0.0
In78 In 0.33461 0.1689 0.35731 0.0
O79 O 0.33512 0.15479 0.49449 0.0
O80 O 0.36099 0.15117 0.41408 0.0
C81 C 0.29466 0.16753 0.31242 0.0
C82 C 0.35255 0.15143 0.22139 0.0
C83 C 0.34166 0.20898 0.383 0.0
O84 O 0.30395 0.15206 0.34112 0.0
O85 O 0.30524 0.18352 0.30895 0.0
O86 O 0.34676 0.19972 0.31504 0.0
O87 O 0.33357 0.19781 0.44014 0.0
C88 C 0.3527 0.14715 0.48487 0.0
O89 O 0.35924 0.16769 0.2547 0.0
O90 O 0.33611 0.14485 0.25324 0.0
In91 In 0.08627 0.08529 0.61925 0.0
O92 O 0.10584 0.08484 0.74342 0.0
O93 O 0.0961 0.11332 0.69308 0.0
C94 C 0.08701 0.04564 0.56928 0.0
C95 C 0.1044 0.10306 0.48302 0.0
C96 C 0.04638 0.09109 0.65107 0.0
O97 O 0.10226 0.0542 0.60322 0.0
O98 O 0.07141 0.05675 0.56345 0.0
O99 O 0.05547 0.09831 0.58605 0.0
O100 O 0.05758 0.08094 0.70219 0.0
C101 C 0.10646 0.10409 0.74905 0.0
O102 O 0.08697 0.10838 0.50886 0.0
O103 O 0.11217 0.08834 0.52363 0.0
In104 In 0.83256 0.84058 0.86918 0.0
O105 O 0.83318 0.86597 0.97174 0.0
O106 O 0.85657 0.84364 0.97395 0.0
C107 C 0.79374 0.84242 0.81054 0.0
C108 C 0.85398 0.86131 0.75059 0.0
C109 C 0.83664 0.79983 0.88964 0.0
O110 O 0.79809 0.84491 0.88925 0.0
O111 O 0.80886 0.83883 0.76275 0.0
O112 O 0.84573 0.80984 0.83168 0.0
O113 O 0.82534 0.81041 0.93826 0.0
C114 C 0.8497 0.85999 0.00507 0.0
O115 O 0.85811 0.84306 0.77031 0.0
O116 O 0.83886 0.86883 0.78936 0.0
In117 In 0.91871 0.0865 0.616 0.0
O118 O 0.91761 0.10947 0.50546 0.0
O119 O 0.89191 0.09032 0.52496 0.0
C120 C 0.9586 0.09183 0.6504 0.0
C121 C 0.89861 0.10532 0.74587 0.0
C122 C 0.91824 0.04711 0.56345 0.0
O123 O 0.94961 0.09982 0.58683 0.0
O124 O 0.94728 0.08122 0.69919 0.0
O125 O 0.90431 0.05446 0.61029 0.0
O126 O 0.93237 0.05937 0.54511 0.0
C127 C 0.89978 0.10473 0.48273 0.0
O128 O 0.89882 0.08608 0.73903 0.0
O129 O 0.90937 0.11452 0.69114 0.0
In130 In 0.67127 0.17171 0.36084 0.0
O131 O 0.67212 0.15156 0.48364 0.0
O132 O 0.64352 0.16178 0.43673 0.0
C133 C 0.71092 0.17126 0.31152 0.0
C134 C 0.65356 0.15369 0.2243 0.0
C135 C 0.66561 0.21171 0.39196 0.0
O136 O 0.70251 0.15601 0.34645 0.0
O137 O 0.69965 0.18673 0.30437 0.0
O138 O 0.65883 0.20273 0.32596 0.0
O139 O 0.67521 0.20035 0.44431 0.0
C140 C 0.65292 0.15112 0.49119 0.0
O141 O 0.64718 0.17033 0.25475 0.0
O142 O 0.66919 0.14663 0.26072 0.0
In143 In 0.58619 0.92269 0.11728 0.0
O144 O 0.61176 0.9223 0.21877 0.0
O145 O 0.58923 0.899 0.22359 0.0
C146 C 0.59146 0.96175 0.06163 0.0
C147 C 0.6041 0.89963 -0.00386 0.0
C148 C 0.54554 0.91767 0.14036 0.0
O149 O 0.59135 0.94652 0.01251 0.0
O150 O 0.58944 0.95741 0.1405 0.0
O151 O 0.55586 0.90727 0.08785 0.0
O152 O 0.55575 0.93056 0.18255 0.0
C153 C 0.60569 0.90594 0.25387 0.0
O154 O 0.58669 0.90746 0.98511 0.0
O155 O 0.61244 0.9036 0.06716 0.0
In156 In 0.83143 0.17114 0.11652 0.0
O157 O 0.85946 0.16746 0.20276 0.0
O158 O 0.83537 0.14611 0.21621 0.0
C159 C 0.83572 0.21163 0.09395 0.0
C160 C 0.84757 0.1513 0.97929 0.0
C161 C 0.7922 0.17128 0.16956 0.0
O162 O 0.84459 0.20179 0.15327 0.0
O163 O 0.82473 0.20093 0.04436 0.0
O164 O 0.79777 0.16156 0.10325 0.0
O165 O 0.80618 0.18095 0.20724 0.0
C166 C 0.85291 0.1516 0.23945 0.0
O167 O 0.83338 0.14375 0.02398 0.0
O168 O 0.85234 0.16926 -0.00033 0.0
In169 In 0.58857 0.08286 0.86439 0.0
O170 O 0.61457 0.08432 0.76459 0.0
O171 O 0.59053 0.10584 0.75483 0.0
C172 C 0.59076 0.04404 0.92448 0.0
C173 C 0.60879 0.10566 0.97948 0.0
C174 C 0.54785 0.08659 0.84522 0.0
O175 O 0.59323 0.04829 0.84561 0.0
O176 O 0.5871 0.05924 0.97165 0.0
O177 O 0.5577 0.09496 0.90548 0.0
O178 O 0.55858 0.07615 0.79382 0.0
C179 C 0.6076 0.09996 0.72715 0.0
O180 O 0.59053 0.10937 0.95884 0.0
O181 O 0.61654 0.09025 0.94364 0.0
In182 In 0.67255 0.8379 0.62033 0.0
O183 O 0.65579 0.83774 0.74909 0.0
O184 O 0.65499 0.86488 0.6733 0.0
C185 C 0.66907 0.79706 0.59808 0.0
C186 C 0.65508 0.85697 0.48431 0.0
C187 C 0.71143 0.84336 0.67615 0.0
O188 O 0.65828 0.80702 0.65047 0.0
O189 O 0.68139 0.80777 0.55485 0.0
O190 O 0.70708 0.8419 0.59713 0.0
O191 O 0.69626 0.84264 0.72557 0.0
C192 C 0.64942 0.85584 0.74095 0.0
O193 O 0.67176 0.86294 0.51648 0.0
O194 O 0.64815 0.84073 0.51695 0.0
In195 In 0.91882 0.92633 0.37024 0.0
O196 O 0.91734 0.90203 0.47536 0.0
O197 O 0.89254 0.92268 0.46452 0.0
C198 C 0.95885 0.92228 0.33561 0.0
C199 C 0.89899 0.9076 0.23928 0.0
C200 C 0.91837 0.96553 0.42421 0.0
O201 O 0.95003 0.9136 0.39791 0.0
O202 O 0.94733 0.93305 0.28832 0.0
O203 O 0.90578 0.95895 0.36917 0.0
O204 O 0.93117 0.95256 0.45021 0.0
C205 C 0.90005 0.90743 0.5024 0.0
O206 O 0.89685 0.92647 0.25376 0.0
O207 O 0.9118 0.89886 0.28705 0.0
In208 In 0.67535 0.66846 0.62425 0.0
O209 O 0.67221 0.64004 0.53839 0.0
O210 O 0.65579 0.66657 0.50312 0.0
C211 C 0.71507 0.6682 0.66976 0.0
C212 C 0.65426 0.65015 0.75157 0.0
C213 C 0.67079 0.70893 0.60208 0.0
O214 O 0.70845 0.65725 0.60887 0.0
O215 O 0.70191 0.67931 0.70558 0.0
O216 O 0.66202 0.69908 0.66162 0.0
O217 O 0.68175 0.69825 0.55231 0.0
C218 C 0.6593 0.648 0.48847 0.0
O219 O 0.64674 0.6643 0.70665 0.0
O220 O 0.67251 0.64587 0.73434 0.0
In221 In 0.58975 0.42433 0.86857 0.0
O222 O 0.59124 0.39971 0.97129 0.0
O223 O 0.61472 0.42219 0.96883 0.0
C224 C 0.55003 0.41634 0.83881 0.0
C225 C 0.61188 0.40701 0.74103 0.0
C226 C 0.59029 0.46386 0.9197 0.0
O227 O 0.5595 0.41015 0.90462 0.0
O228 O 0.56081 0.42618 0.7854 0.0
O229 O 0.605 0.45595 0.8792 0.0
O230 O 0.57542 0.45209 0.93224 0.0
C231 C 0.60793 0.40596 0.00211 0.0
O232 O 0.60373 0.42438 0.73137 0.0
O233 O 0.60815 0.39854 0.81177 0.0
In234 In 0.83484 0.34039 0.11374 0.0
O235 O 0.86199 0.34372 0.20486 0.0
O236 O 0.8391 0.36663 0.20695 0.0
C237 C 0.83792 0.29979 0.09064 0.0
C238 C 0.8516 0.35982 0.97667 0.0
C239 C 0.79598 0.34067 0.17073 0.0
O240 O 0.84721 0.30931 0.14948 0.0
O241 O 0.82725 0.31089 0.04115 0.0
O242 O 0.80114 0.34989 0.10241 0.0
O243 O 0.81021 0.33135 0.20863 0.0
C244 C 0.85595 0.36045 0.23574 0.0
O245 O 0.83562 0.36624 0.01289 0.0
O246 O 0.85803 0.34301 0.00529 0.0
In247 In 0.92142 0.58594 0.35668 0.0
O248 O 0.89913 0.58577 0.24248 0.0
O249 O 0.91801 0.61185 0.26119 0.0
C250 C 0.91962 0.54672 0.41271 0.0
C251 C 0.90176 0.60653 0.48155 0.0
C252 C 0.96119 0.59149 0.32069 0.0
O253 O 0.90752 0.5534 0.35591 0.0
O254 O 0.93236 0.55955 0.43943 0.0
O255 O 0.95149 0.60228 0.37424 0.0
O256 O 0.95059 0.57815 0.28229 0.0
C257 C 0.90362 0.60379 0.21938 0.0
O258 O 0.92012 0.60118 0.48941 0.0
O259 O 0.89335 0.60109 0.41278 0.0
In260 In 0.67526 0.3393 0.36361 0.0
O261 O 0.65046 0.34045 0.26173 0.0
O262 O 0.67346 0.36342 0.25942 0.0
C263 C 0.66709 0.29957 0.39379 0.0
C264 C 0.65793 0.36171 0.49046 0.0
C265 C 0.7149 0.34029 0.31409 0.0
O266 O 0.66129 0.30896 0.32708 0.0
O267 O 0.67671 0.31041 0.44754 0.0
O268 O 0.70629 0.35543 0.34867 0.0
O269 O 0.70382 0.3247 0.3071 0.0
C270 C 0.65702 0.35674 0.22802 0.0
O271 O 0.67503 0.35309 0.50116 0.0
O272 O 0.64977 0.35841 0.41886 0.0
In273 In 0.92108 0.42613 0.61156 0.0
O274 O 0.90071 0.4263 0.7333 0.0
O275 O 0.91288 0.39815 0.68982 0.0
C276 C 0.92003 0.46535 0.55602 0.0
C277 C 0.90221 0.40741 0.47967 0.0
C278 C 0.96111 0.42138 0.64549 0.0
O279 O 0.90655 0.45818 0.60568 0.0
O280 O 0.93405 0.45304 0.53671 0.0
O281 O 0.9521 0.41306 0.58287 0.0
O282 O 0.94977 0.43215 0.69345 0.0
C283 C 0.90146 0.40713 0.74267 0.0
O284 O 0.92004 0.40279 0.50282 0.0
O285 O 0.89426 0.42189 0.52096 0.0
In286 In 0.83621 0.6717 0.85669 0.0
O287 O 0.8524 0.67062 0.72598 0.0
O288 O 0.85037 0.64329 0.79914 0.0
C289 C 0.84028 0.71177 0.89149 0.0
C290 C 0.8545 0.65383 -0.00724 0.0
C291 C 0.79722 0.66901 0.80036 0.0
O292 O 0.85118 0.70248 0.83712 0.0
O293 O 0.82775 0.70059 0.9319 0.0
O294 O 0.80397 0.65742 0.85892 0.0
O295 O 0.8099 0.6817 0.77173 0.0
C296 C 0.85676 0.65194 0.7322 0.0
O297 O 0.83616 0.65001 0.97294 0.0
O298 O 0.86279 0.66771 0.94842 0.0
In299 In 0.58846 0.58363 0.12389 0.0
O300 O 0.58962 0.60651 0.01323 0.0
O301 O 0.61617 0.58898 0.03962 0.0
C302 C 0.54851 0.58803 0.15972 0.0
C303 C 0.60817 0.60217 0.2551 0.0
C304 C 0.58952 0.5449 0.0643 0.0
O305 O 0.55752 0.59746 0.09993 0.0
O306 O 0.55984 0.57643 0.20426 0.0
O307 O 0.60171 0.55108 0.12165 0.0
O308 O 0.57682 0.55801 0.03877 0.0
C309 C 0.60799 0.60282 -0.005 0.0
O310 O 0.60858 0.58298 0.24595 0.0
O311 O 0.59695 0.61141 0.20208 0.0
In312 In 0.33559 0.33788 0.37301 0.0
O313 O 0.33625 0.36383 0.47277 0.0
O314 O 0.35795 0.33998 0.48452 0.0
C315 C 0.29674 0.33965 0.31433 0.0
C316 C 0.35848 0.35888 0.26048 0.0
C317 C 0.33989 0.29706 0.38682 0.0
O318 O 0.30095 0.3409 0.39367 0.0
O319 O 0.31199 0.3375 0.2659 0.0
O320 O 0.34757 0.30737 0.32618 0.0
O321 O 0.32996 0.30738 0.44138 0.0
C322 C 0.35174 0.357 0.51154 0.0
O323 O 0.36264 0.34072 0.28163 0.0
O324 O 0.34259 0.36611 0.29447 0.0
In325 In 0.42081 0.58254 0.12121 0.0
O326 O 0.39774 0.58238 0.23384 0.0
O327 O 0.41447 0.60943 0.20873 0.0
C328 C 0.42093 0.54363 0.06373 0.0
C329 C 0.40161 0.60169 0.99096 0.0
C330 C 0.46077 0.58693 0.15651 0.0
O331 O 0.40984 0.54919 0.1261 0.0
O332 O 0.43201 0.55748 0.03225 0.0
O333 O 0.45177 0.5961 0.09591 0.0
O334 O 0.44947 0.57544 0.20163 0.0
C335 C 0.40075 0.60091 0.25251 0.0
O336 O 0.41912 0.60683 0.01627 0.0
O337 O 0.39401 0.58663 0.02994 0.0
In338 In 0.17449 0.67013 0.8732 0.0
O339 O 0.17358 0.64455 0.97441 0.0
O340 O 0.15139 0.66817 0.98181 0.0
C341 C 0.21328 0.66489 0.81624 0.0
C342 C 0.15107 0.65168 0.75483 0.0
C343 C 0.17036 0.71089 0.89546 0.0
O344 O 0.20903 0.66588 0.8955 0.0
O345 O 0.19807 0.66599 0.76715 0.0
O346 O 0.15923 0.70065 0.8453 0.0
O347 O 0.18345 0.70052 0.93606 0.0
C348 C 0.15772 0.65131 0.01095 0.0
O349 O 0.15804 0.66946 0.74361 0.0
O350 O 0.15609 0.64324 0.82454 0.0
In351 In 0.08919 0.42455 0.61593 0.0
O352 O 0.11022 0.42464 0.73567 0.0
O353 O 0.09713 0.39664 0.69574 0.0
C354 C 0.09015 0.46403 0.56419 0.0
C355 C 0.10758 0.40605 0.48193 0.0
C356 C 0.04901 0.42033 0.64829 0.0
O357 O 0.10361 0.45664 0.61351 0.0
O358 O 0.07626 0.45175 0.54297 0.0
O359 O 0.058 0.41211 0.58542 0.0
O360 O 0.06044 0.43067 0.69747 0.0
C361 C 0.10905 0.40555 0.74678 0.0
O362 O 0.09044 0.40049 0.51001 0.0
O363 O 0.11512 0.42128 0.51962 0.0
In364 In 0.33432 0.66815 0.62247 0.0
O365 O 0.33478 0.64316 0.51816 0.0
O366 O 0.35899 0.6646 0.52104 0.0
C367 C 0.29546 0.66608 0.68056 0.0
C368 C 0.35582 0.64744 0.74068 0.0
C369 C 0.33814 0.70895 0.60292 0.0
O370 O 0.29981 0.6639 0.60168 0.0
O371 O 0.31057 0.66946 0.72859 0.0
O372 O 0.34576 0.69919 0.66526 0.0
O373 O 0.32849 0.69809 0.54938 0.0
C374 C 0.35176 0.64868 0.48754 0.0
O375 O 0.36019 0.66555 0.71961 0.0
O376 O 0.34048 0.64002 0.70313 0.0
In377 In 0.08827 0.58552 0.37415 0.0
O378 O 0.10984 0.58483 0.25736 0.0
O379 O 0.0937 0.61226 0.28513 0.0
C380 C 0.09017 0.5462 0.42899 0.0
C381 C 0.10685 0.60596 0.50238 0.0
C382 C 0.04887 0.59117 0.33123 0.0
O383 O 0.10356 0.55368 0.37972 0.0
O384 O 0.07608 0.55832 0.44894 0.0
O385 O 0.05787 0.60154 0.38826 0.0
O386 O 0.05997 0.57815 0.29339 0.0
C387 C 0.10694 0.60349 0.23934 0.0
O388 O 0.08837 0.6008 0.50724 0.0
O389 O 0.11587 0.60029 0.4353 0.0
In390 In 0.17576 0.33903 0.11892 0.0
O391 O 0.14946 0.34179 0.21413 0.0
O392 O 0.16948 0.36714 0.199 0.0
C393 C 0.17233 0.29817 0.10217 0.0
C394 C 0.15879 0.35832 0.98194 0.0
C395 C 0.21456 0.34055 0.17784 0.0
O396 O 0.16364 0.30815 0.16124 0.0
O397 O 0.18267 0.30886 0.05022 0.0
O398 O 0.21035 0.34259 0.09872 0.0
O399 O 0.19932 0.33785 0.22592 0.0
C400 C 0.15386 0.35988 0.2352 0.0
O401 O 0.17501 0.36459 0.01676 0.0
O402 O 0.15218 0.34172 0.01205 0.0
In403 In 0.42235 0.42233 0.87567 0.0
O404 O 0.42207 0.3986 0.98368 0.0
O405 O 0.39801 0.42023 0.97906 0.0
C406 C 0.46229 0.41644 0.84546 0.0
C407 C 0.4017 0.40336 0.74735 0.0
C408 C 0.42123 0.46238 0.92004 0.0
O409 O 0.45342 0.4106 0.91343 0.0
O410 O 0.45089 0.42534 0.79112 0.0
O411 O 0.40549 0.45274 0.89705 0.0
O412 O 0.43747 0.45214 0.91724 0.0
C413 C 0.40554 0.40481 0.01562 0.0
O414 O 0.40225 0.42261 0.75278 0.0
O415 O 0.41221 0.39422 0.803 0.0
C416 C 0.26586 0.1499 0.23696 0.0
C417 C 0.27348 0.16705 0.28067 0.0
H418 H 0.24073 0.13705 0.16643 0.0
C419 C 0.26115 0.18445 0.28881 0.0
H420 H 0.27523 0.1364 0.22905 0.0
C421 C 0.24142 0.18464 0.25506 0.0
C422 C 0.23391 0.1677 0.20978 0.0
H423 H 0.26674 0.19789 0.32182 0.0
H424 H 0.23211 0.19818 0.26314 0.0
C425 C 0.2463 0.15035 0.20047 0.0
C426 C 0.1051 0.99761 0.45705 0.0
C427 C 0.08727 0.98573 0.45753 0.0
H428 H 0.11919 0.0258 0.49533 0.0
C429 C 0.06961 0.99348 0.4968 0.0
H430 H 0.11895 0.99185 0.42783 0.0
C431 C 0.06961 0.01294 0.53341 0.0
C432 C 0.08747 0.02473 0.53417 0.0
H433 H 0.05568 0.98457 0.49812 0.0
H434 H 0.05566 0.01873 0.56178 0.0
C435 C 0.10529 0.01686 0.49636 0.0
C436 C 0.2381 0.82366 0.71291 0.0
C437 C 0.23145 0.84016 0.76327 0.0
H438 H 0.26252 0.81052 0.63998 0.0
C439 C 0.24449 0.85693 0.77523 0.0
H440 H 0.22832 0.81055 0.70268 0.0
C441 C 0.26384 0.8572 0.7369 0.0
C442 C 0.27062 0.84045 0.68817 0.0
H443 H 0.23962 0.8699 0.8132 0.0
H444 H 0.27371 0.87022 0.74738 0.0
C445 C 0.2576 0.82367 0.67683 0.0
C446 C 0.43527 0.01175 0.9632 0.0
C447 C 0.41696 0.02223 0.94758 0.0
H448 H 0.4494 0.98415 0.00693 0.0
C449 C 0.39834 0.01264 0.96689 0.0
H450 H 0.44983 0.01883 0.94904 0.0
C451 C 0.39812 0.99296 0.00275 0.0
C452 C 0.41649 0.98243 0.01725 0.0
H453 H 0.38403 0.02051 0.95609 0.0
H454 H 0.38363 0.98585 0.01768 0.0
C455 C 0.43503 0.99194 -0.00356 0.0
C456 C 0.75597 0.84605 0.83142 0.0
C457 C 0.77271 0.84351 0.77609 0.0
H458 H 0.72349 0.84808 0.84302 0.0
C459 C 0.76918 0.84182 0.68698 0.0
H460 H 0.7582 0.84745 0.90028 0.0
C461 C 0.74932 0.84231 0.65402 0.0
C462 C 0.73256 0.84441 0.70954 0.0
H463 H 0.78178 0.83994 0.64258 0.0
H464 H 0.74708 0.84065 0.58528 0.0
C465 C 0.73611 0.84645 0.79851 0.0
C466 C 0.89963 0.99708 0.46979 0.0
C467 C 0.9181 0.98657 0.45792 0.0
H468 H 0.88515 0.02442 0.51578 0.0
C469 C 0.93645 0.99595 0.48236 0.0
H470 H 0.88528 0.99005 0.45212 0.0
C471 C 0.93641 0.01566 0.51657 0.0
C472 C 0.91797 0.02607 0.52987 0.0
H473 H 0.95088 0.98812 0.47399 0.0
H474 H 0.95082 0.02268 0.53357 0.0
C475 C 0.89954 0.01658 0.50687 0.0
C476 C 0.74016 0.15296 0.24198 0.0
C477 C 0.73189 0.17092 0.27699 0.0
H478 H 0.76567 0.13918 0.17719 0.0
C479 C 0.74339 0.18899 0.27439 0.0
H480 H 0.73147 0.1389 0.24243 0.0
C481 C 0.76299 0.18902 0.23915 0.0
C482 C 0.77116 0.17118 0.20296 0.0
H483 H 0.73729 0.20305 0.30053 0.0
H484 H 0.77171 0.20307 0.23933 0.0
C485 C 0.75955 0.15317 0.20391 0.0
C486 C 0.58954 0.01958 0.04878 0.0
C487 C 0.59184 0.02302 0.95977 0.0
H488 H 0.58779 0.99756 0.15102 0.0
C489 C 0.59488 0.00621 0.90535 0.0
H490 H 0.58723 0.03223 0.09254 0.0
C491 C 0.5952 0.98637 0.93897 0.0
C492 C 0.59255 0.9829 0.02777 0.0
H493 H 0.59676 0.00835 0.83662 0.0
H494 H 0.59726 0.9737 0.89506 0.0
C495 C 0.58993 0.99973 0.08245 0.0
C496 C 0.74656 0.6496 0.71635 0.0
C497 C 0.7364 0.66804 0.69909 0.0
H498 H 0.7738 0.63542 0.7657 0.0
C499 C 0.74623 0.6866 0.71626 0.0
H500 H 0.73909 0.63512 0.70455 0.0
C501 C 0.76608 0.68677 0.74871 0.0
C502 C 0.77613 0.66839 0.76789 0.0
H503 H 0.73858 0.70098 0.70393 0.0
H504 H 0.77347 0.70131 0.76023 0.0
C505 C 0.76621 0.64977 0.75205 0.0
C506 C 0.57208 0.49559 0.96273 0.0
C507 C 0.5905 0.48488 0.9536 0.0
H508 H 0.55748 0.52316 0.00377 0.0
C509 C 0.60872 0.49395 0.98178 0.0
H510 H 0.55782 0.48888 0.94176 0.0
C511 C 0.60843 0.51332 0.02008 0.0
C512 C 0.58999 0.52409 0.02817 0.0
H513 H 0.62308 0.48588 0.97617 0.0
H514 H 0.62261 0.52001 0.04197 0.0
C515 C 0.57188 0.51514 -0.00166 0.0
C516 C 0.74357 0.35854 0.24042 0.0
C517 C 0.73585 0.34082 0.27982 0.0
H518 H 0.7686 0.37216 0.17168 0.0
C519 C 0.74787 0.3231 0.28163 0.0
H520 H 0.73445 0.37232 0.23742 0.0
C521 C 0.76745 0.32317 0.24619 0.0
C522 C 0.77506 0.34073 0.2054 0.0
H523 H 0.74219 0.30923 0.31125 0.0
H524 H 0.77656 0.30938 0.24961 0.0
C525 C 0.76294 0.35839 0.20214 0.0
C526 C 0.93789 0.49666 0.50547 0.0
C527 C 0.91952 0.4863 0.52092 0.0
H528 H 0.95216 0.52406 0.46033 0.0
C529 C 0.90099 0.49573 0.49855 0.0
H530 H 0.95237 0.48968 0.52188 0.0
C531 C 0.90091 0.51517 0.4602 0.0
C532 C 0.91932 0.52564 0.44648 0.0
H533 H 0.88664 0.48792 0.50906 0.0
H534 H 0.88649 0.52219 0.44326 0.0
C535 C 0.93777 0.51627 0.47007 0.0
C536 C 0.27234 0.34096 0.1903 0.0
C537 C 0.27569 0.34043 0.27982 0.0
H538 H 0.25042 0.34157 0.08777 0.0
C539 C 0.2588 0.34037 0.33531 0.0
H540 H 0.28506 0.34106 0.14581 0.0
C541 C 0.23897 0.34054 0.30195 0.0
C542 C 0.23561 0.34093 0.21242 0.0
H543 H 0.26088 0.33996 0.40448 0.0
H544 H 0.22624 0.34029 0.34643 0.0
C545 C 0.25251 0.34128 0.15695 0.0
C546 C 0.43835 0.51511 0.98717 0.0
C547 C 0.42083 0.52275 0.02805 0.0
H548 H 0.45223 0.48989 0.92188 0.0
C549 C 0.40319 0.51061 0.03121 0.0
H550 H 0.45214 0.52419 0.9838 0.0
C551 C 0.40305 0.49121 -0.00672 0.0
C552 C 0.42071 0.48345 0.95377 0.0
H553 H 0.38945 0.51625 0.06169 0.0
H554 H 0.38929 0.48209 -0.00337 0.0
C555 C 0.43838 0.49554 0.95154 0.0
C556 C 0.25765 0.66274 0.65985 0.0
C557 C 0.27444 0.6649 0.71511 0.0
H558 H 0.22514 0.66096 0.64869 0.0
C559 C 0.27101 0.66616 0.80443 0.0
H560 H 0.2598 0.66168 0.59085 0.0
C561 C 0.25119 0.66562 0.83771 0.0
C562 C 0.23437 0.6639 0.78232 0.0
H563 H 0.28366 0.66775 0.84879 0.0
H564 H 0.24903 0.66694 0.90662 0.0
C565 C 0.23781 0.6623 0.6931 0.0
C566 C 0.07212 0.49527 0.51382 0.0
C567 C 0.09055 0.48522 0.53164 0.0
H568 H 0.05767 0.52258 0.46863 0.0
C569 C 0.10906 0.49522 0.51423 0.0
H570 H 0.05764 0.48787 0.52651 0.0
C571 C 0.10908 0.51489 0.47823 0.0
C572 C 0.09059 0.52503 0.4618 0.0
H573 H 0.12347 0.48767 0.5267 0.0
H574 H 0.1235 0.52232 0.4649 0.0
C575 C 0.07214 0.51509 0.48059 0.0
C576 C 0.14776 0.11687 0.91201 0.0
C577 C 0.14546 0.13816 0.91932 0.0
H578 H 0.1369 0.0892 0.85362 0.0
C579 C 0.13013 0.14792 0.87142 0.0
H580 H 0.1593 0.10891 0.94901 0.0
C581 C 0.11734 0.13669 0.81752 0.0
C582 C 0.11943 0.11539 0.81069 0.0
H583 H 0.12786 0.16426 0.87611 0.0
H584 H 0.10575 0.14476 0.78119 0.0
C585 C 0.13478 0.10556 0.85838 0.0
C586 C 0.12383 0.86458 0.0869 0.0
C587 C 0.14299 0.87139 0.05842 0.0
H588 H 0.09723 0.87089 0.16172 0.0
C589 C 0.14989 0.89074 0.08458 0.0
H590 H 0.11799 0.84981 0.06746 0.0
C591 C 0.13777 0.90304 0.13796 0.0
C592 C 0.11862 0.89612 0.16645 0.0
H593 H 0.16451 0.89648 0.06283 0.0
H594 H 0.14349 0.91781 0.15782 0.0
C595 C 0.11184 0.87674 0.14043 0.0
C596 C 0.36925 0.87897 0.27223 0.0
C597 C 0.38313 0.89409 0.29906 0.0
H598 H 0.34724 0.8564 0.31029 0.0
C599 C 0.38485 0.89855 0.38689 0.0
H600 H 0.36755 0.87536 0.20454 0.0
C601 C 0.37359 0.88738 0.44721 0.0
C602 C 0.35999 0.87199 0.42048 0.0
H603 H 0.39543 0.91011 0.40908 0.0
H604 H 0.37566 0.89063 0.51503 0.0
C605 C 0.35755 0.8682 0.33239 0.0
C606 C 0.37095 0.12586 0.69782 0.0
C607 C 0.38575 0.11164 0.67089 0.0
H608 H 0.34843 0.14794 0.65988 0.0
C609 C 0.3887 0.10836 0.5827 0.0
H610 H 0.36832 0.12856 0.76573 0.0
C611 C 0.37767 0.11981 0.52243 0.0
C612 C 0.36312 0.13428 0.54939 0.0
H613 H 0.40001 0.09753 0.56042 0.0
H614 H 0.38064 0.11745 0.45454 0.0
C615 C 0.35952 0.13689 0.63755 0.0
C616 C 0.87908 0.86375 0.1057 0.0
C617 C 0.86149 0.87213 0.0681 0.0
H618 H 0.90474 0.86846 0.18811 0.0
C619 C 0.85643 0.89258 0.08576 0.0
H620 H 0.88349 0.84811 0.0929 0.0
C621 C 0.86887 0.90442 0.13965 0.0
C622 C 0.88646 0.89595 0.17719 0.0
H623 H 0.84307 0.89951 0.05688 0.0
H624 H 0.86459 0.92009 0.15266 0.0
C625 C 0.89136 0.87548 0.1598 0.0
C626 C 0.85756 0.11806 0.91017 0.0
C627 C 0.85956 0.13941 0.91609 0.0
H628 H 0.86865 0.09035 0.85273 0.0
C629 C 0.87458 0.14921 0.8667 0.0
H630 H 0.84626 0.11006 0.94829 0.0
C631 C 0.88739 0.13799 0.81285 0.0
C632 C 0.8856 0.11665 0.80734 0.0
H633 H 0.87661 0.1656 0.87025 0.0
H634 H 0.89875 0.14611 0.77546 0.0
C635 C 0.87053 0.10676 0.85638 0.0
C636 C 0.64039 0.10917 0.65236 0.0
C637 C 0.61928 0.11206 0.66348 0.0
H638 H 0.66781 0.1196 0.59032 0.0
C639 C 0.60961 0.12801 0.61885 0.0
H640 H 0.6483 0.09715 0.68681 0.0
C641 C 0.62071 0.14079 0.56428 0.0
C642 C 0.64182 0.1381 0.55356 0.0
H643 H 0.59341 0.13074 0.62651 0.0
H644 H 0.61269 0.15285 0.53051 0.0
C645 C 0.6516 0.12216 0.59811 0.0
C646 C 0.64998 0.88852 0.39399 0.0
C647 C 0.64303 0.86935 0.42258 0.0
H648 H 0.6435 0.91534 0.31897 0.0
C649 C 0.62355 0.86274 0.39733 0.0
H650 H 0.66484 0.89413 0.4131 0.0
C651 C 0.61127 0.87495 0.34481 0.0
C652 C 0.61817 0.89409 0.31589 0.0
H653 H 0.61764 0.84815 0.41887 0.0
H654 H 0.59641 0.86926 0.3261 0.0
C655 C 0.63767 0.90076 0.34095 0.0
C656 C 0.63256 0.64604 0.37465 0.0
C657 C 0.64723 0.63612 0.4256 0.0
H658 H 0.60862 0.64307 0.28231 0.0
C659 C 0.64883 0.61472 0.42125 0.0
H660 H 0.63082 0.66248 0.37699 0.0
C661 C 0.63588 0.60348 0.36724 0.0
C662 C 0.62115 0.61348 0.31672 0.0
H663 H 0.65986 0.60663 0.46049 0.0
H664 H 0.63749 0.58703 0.36468 0.0
C665 C 0.6197 0.63487 0.32089 0.0
C666 C 0.62247 0.40079 0.58848 0.0
C667 C 0.62497 0.39696 0.67657 0.0
H668 H 0.63092 0.39227 0.46029 0.0
C669 C 0.63949 0.38243 0.70351 0.0
H670 H 0.61139 0.41188 0.5662 0.0
C671 C 0.65099 0.37154 0.64327 0.0
C672 C 0.64776 0.37464 0.5551 0.0
H673 H 0.64179 0.37931 0.77137 0.0
H674 H 0.66178 0.36016 0.66554 0.0
C675 C 0.63359 0.38952 0.52819 0.0
C676 C 0.89246 0.37455 0.81669 0.0
C677 C 0.88882 0.39552 0.80475 0.0
H678 H 0.88345 0.34689 0.87929 0.0
C679 C 0.87226 0.40461 0.84753 0.0
H680 H 0.90501 0.36705 0.78423 0.0
C681 C 0.8596 0.39289 0.90121 0.0
C682 C 0.86343 0.37194 0.91352 0.0
H683 H 0.86895 0.42068 0.83877 0.0
H684 H 0.84708 0.40029 0.93426 0.0
C685 C 0.88 0.36294 0.87068 0.0
C686 C 0.87164 0.60952 0.13333 0.0
C687 C 0.89131 0.61584 0.1576 0.0
H688 H 0.84427 0.61686 0.06385 0.0
C689 C 0.8984 0.63496 0.12942 0.0
H690 H 0.86565 0.59499 0.15511 0.0
C691 C 0.88618 0.64746 0.07785 0.0
C692 C 0.86647 0.64127 0.05396 0.0
H693 H 0.91341 0.64035 0.14764 0.0
H694 H 0.89224 0.662 0.05641 0.0
C695 C 0.85929 0.62217 0.08227 0.0
C696 C 0.36043 0.39007 0.58491 0.0
C697 C 0.36342 0.36891 0.57564 0.0
H698 H 0.37055 0.4178 0.64533 0.0
C699 C 0.37912 0.35942 0.6223 0.0
H700 H 0.34859 0.39784 0.54886 0.0
C701 C 0.39161 0.37077 0.6769 0.0
C702 C 0.38888 0.39195 0.68556 0.0
H703 H 0.3819 0.34318 0.61608 0.0
H704 H 0.40352 0.3629 0.71216 0.0
C705 C 0.37314 0.40153 0.63915 0.0
C706 C 0.38173 0.64439 0.39052 0.0
C707 C 0.36351 0.6365 0.42444 0.0
H708 H 0.40778 0.63926 0.31082 0.0
C709 C 0.35771 0.61648 0.40283 0.0
H710 H 0.38671 0.6597 0.40636 0.0
C711 C 0.37002 0.60457 0.34862 0.0
C712 C 0.38824 0.61256 0.31479 0.0
H713 H 0.34384 0.60992 0.42877 0.0
H714 H 0.36517 0.58924 0.33248 0.0
C715 C 0.3939 0.6326 0.3362 0.0
C716 C 0.12786 0.64758 0.10924 0.0
C717 C 0.14555 0.63915 0.0728 0.0
H718 H 0.10169 0.64284 0.18878 0.0
C719 C 0.15023 0.61855 0.08953 0.0
H720 H 0.12371 0.66334 0.09698 0.0
C721 C 0.13739 0.60664 0.14155 0.0
C722 C 0.11969 0.61516 0.17787 0.0
H723 H 0.16363 0.61156 0.06145 0.0
H724 H 0.14144 0.59088 0.15414 0.0
C725 C 0.11512 0.63576 0.16121 0.0
C726 C 0.11766 0.37313 0.82303 0.0
C727 C 0.1217 0.39394 0.80892 0.0
H728 H 0.12631 0.3456 0.88772 0.0
C729 C 0.13859 0.40288 0.84989 0.0
H730 H 0.10484 0.36574 0.79202 0.0
C731 C 0.15118 0.39117 0.90394 0.0
C732 C 0.14696 0.37038 0.91846 0.0
H733 H 0.14221 0.41883 0.83947 0.0
H734 H 0.16397 0.39847 0.93554 0.0
C735 C 0.13007 0.36153 0.87741 0.0
C736 C 0.15915 0.26483 0.1569 0.0
C737 C 0.17106 0.27564 0.09707 0.0
H738 H 0.14971 0.23569 0.20448 0.0
C739 C 0.18222 0.26468 0.03518 0.0
H740 H 0.15032 0.27282 0.20525 0.0
C741 C 0.18187 0.24327 0.03474 0.0
C742 C 0.17034 0.2325 0.09613 0.0
H743 H 0.19152 0.27261 0.9882 0.0
H744 H 0.19094 0.23518 0.9875 0.0
C745 C 0.15879 0.24352 0.15641 0.0
C746 C 0.99186 0.93411 0.26895 0.0
C747 C 0.98121 0.9209 0.32449 0.0
H748 H 0.02119 0.94498 0.2271 0.0
C749 C 0.99228 0.9071 0.37563 0.0
H750 H 0.98369 0.94491 0.22883 0.0
C751 C 0.01352 0.90713 0.37459 0.0
C752 C 0.02427 0.92096 0.32247 0.0
H753 H 0.98455 0.89661 0.41864 0.0
H754 H 0.02151 0.89665 0.41684 0.0
C755 C 0.01328 0.93416 0.26799 0.0
C756 C 0.35012 0.76381 0.6588 0.0
C757 C 0.34076 0.77454 0.5911 0.0
H758 H 0.35673 0.73475 0.71512 0.0
C759 C 0.33156 0.76348 0.52401 0.0
H760 H 0.35737 0.77189 0.71133 0.0
C761 C 0.33104 0.74209 0.52651 0.0
C762 C 0.33983 0.73142 0.59588 0.0
H763 H 0.32416 0.77135 0.47114 0.0
H764 H 0.32339 0.73394 0.47519 0.0
C765 C 0.34971 0.74251 0.66103 0.0
C766 C 0.49335 0.1011 0.89581 0.0
C767 C 0.48237 0.09024 0.83319 0.0
H768 H 0.52255 0.10849 0.94838 0.0
C769 C 0.49317 0.07908 0.77078 0.0
H770 H 0.48549 0.10987 0.94472 0.0
C771 C 0.51453 0.07821 0.77313 0.0
C772 C 0.52542 0.08851 0.83783 0.0
H773 H 0.48511 0.0705 0.72191 0.0
H774 H 0.52247 0.06909 0.72562 0.0
C775 C 0.51461 0.10026 0.89806 0.0
C776 C 0.1818 0.76598 0.95397 0.0
C777 C 0.16819 0.77651 0.89991 0.0
H778 H 0.1932 0.73681 -0.0049 0.0
C779 C 0.15446 0.76528 0.8492 0.0
H780 H 0.19256 0.77424 -0.00629 0.0
C781 C 0.15479 0.74397 0.85011 0.0
C782 C 0.1689 0.73339 0.90153 0.0
H783 H 0.14372 0.77294 0.80708 0.0
H784 H 0.1443 0.73581 0.80868 0.0
C785 C 0.18218 0.74457 0.95465 0.0
C786 C 0.49059 0.92703 0.20609 0.0
C787 C 0.48006 0.91446 0.14781 0.0
H788 H 0.51968 0.93797 0.24938 0.0
C789 C 0.49129 0.90188 0.09204 0.0
H790 H 0.48233 0.93693 0.24967 0.0
C791 C 0.51258 0.90244 0.09201 0.0
C792 C 0.52313 0.91568 0.1474 0.0
H793 H 0.48362 0.892 0.0465 0.0
H794 H 0.52075 0.89294 0.04657 0.0
C795 C 0.51195 0.92768 0.2057 0.0
C796 C 0.33333 0.24193 0.45758 0.0
C797 C 0.34309 0.23145 0.39025 0.0
H798 H 0.32457 0.27101 0.50928 0.0
C799 C 0.35282 0.24275 0.3252 0.0
H800 H 0.32564 0.23362 0.50846 0.0
C801 C 0.35221 0.26405 0.32566 0.0
C802 C 0.34179 0.27456 0.39101 0.0
H803 H 0.36049 0.23512 0.27251 0.0
H804 H 0.3595 0.27227 0.27349 0.0
C805 C 0.33265 0.26332 0.45786 0.0
C806 C 0.99168 0.0812 0.7199 0.0
C807 C 0.98097 0.09346 0.66073 0.0
H808 H 0.02103 0.07087 0.76383 0.0
C809 C 0.99201 0.10627 0.6051 0.0
H810 H 0.98356 0.07117 0.76354 0.0
C811 C 0.01325 0.10607 0.60517 0.0
C812 C 0.02404 0.09309 0.66097 0.0
H813 H 0.98423 0.11601 0.55917 0.0
H814 H 0.02123 0.11567 0.55933 0.0
C815 C 0.01309 0.08103 0.72007 0.0
C816 C 0.82705 0.74465 0.95364 0.0
C817 C 0.84076 0.73429 0.89949 0.0
H818 H 0.81501 0.77365 -0.0066 0.0
C819 C 0.85391 0.74573 0.84676 0.0
H820 H 0.8167 0.73624 -0.00514 0.0
C821 C 0.85284 0.76701 0.84544 0.0
C822 C 0.83867 0.77739 0.89716 0.0
H823 H 0.86466 0.73823 0.80431 0.0
H824 H 0.86287 0.77531 0.80242 0.0
C825 C 0.82605 0.76605 0.95266 0.0
C826 C 0.65237 0.24533 0.34174 0.0
C827 C 0.6639 0.23412 0.40164 0.0
H828 H 0.64417 0.27475 0.29318 0.0
C829 C 0.67491 0.24468 0.46522 0.0
H830 H 0.64359 0.23766 0.29234 0.0
C831 C 0.67521 0.2661 0.46578 0.0
C832 C 0.66453 0.27723 0.40271 0.0
H833 H 0.68393 0.23642 0.51224 0.0
H834 H 0.68449 0.27389 0.51317 0.0
C835 C 0.65269 0.26662 0.34224 0.0
C836 C 0.85068 0.2661 0.1429 0.0
C837 C 0.83855 0.27724 0.08492 0.0
H838 H 0.85936 0.23675 0.19074 0.0
C839 C 0.82629 0.26658 0.02585 0.0
H840 H 0.86034 0.27384 0.1891 0.0
C841 C 0.82573 0.24518 0.02681 0.0
C842 C 0.83739 0.23411 0.08689 0.0
H843 H 0.81677 0.27477 0.98042 0.0
H844 H 0.8158 0.23733 0.98202 0.0
C845 C 0.85011 0.24481 0.14389 0.0
C846 C 0.65599 0.74218 0.64985 0.0
C847 C 0.66916 0.7314 0.59493 0.0
H848 H 0.6455 0.77133 0.69317 0.0
C849 C 0.68143 0.74239 0.53684 0.0
H850 H 0.64629 0.73415 0.69513 0.0
C851 C 0.68103 0.76377 0.53592 0.0
C852 C 0.66828 0.77453 0.59279 0.0
H853 H 0.69173 0.73449 0.49372 0.0
H854 H 0.69102 0.77187 0.49208 0.0
C855 C 0.65552 0.76349 0.64865 0.0
C856 C 0.51701 0.4027 0.89315 0.0
C857 C 0.52766 0.41411 0.83112 0.0
H858 H 0.48807 0.3944 0.94562 0.0
C859 C 0.51656 0.42478 0.76792 0.0
H860 H 0.52511 0.39421 0.94241 0.0
C861 C 0.49517 0.42488 0.76976 0.0
C862 C 0.48461 0.41434 0.83492 0.0
H863 H 0.52438 0.43372 0.71936 0.0
H864 H 0.48695 0.43386 0.72247 0.0
C865 C 0.49575 0.40283 0.89508 0.0
C866 C 0.99423 0.6082 0.35724 0.0
C867 C 0.98359 0.59309 0.3115 0.0
H868 H 0.02318 0.61952 0.39849 0.0
C869 C 0.99471 0.57855 0.26436 0.0
H870 H 0.98611 0.61968 0.39384 0.0
C871 C 0.01608 0.57847 0.26699 0.0
C872 C 0.02664 0.59291 0.31689 0.0
H873 H 0.98691 0.56672 0.22851 0.0
H874 H 0.02428 0.56658 0.23308 0.0
C875 C 0.0155 0.6081 0.35995 0.0
C876 C 0.99436 0.43215 0.71347 0.0
C877 C 0.98348 0.4196 0.65619 0.0
H878 H 0.02387 0.44223 0.75649 0.0
C879 C 0.99435 0.40611 0.60307 0.0
H880 H 0.98637 0.4427 0.75519 0.0
C881 C 0.01559 0.40584 0.60381 0.0
C882 C 0.02658 0.41905 0.65772 0.0
H883 H 0.98645 0.39611 0.55868 0.0
H884 H 0.02342 0.39565 0.55996 0.0
C885 C 0.01579 0.43188 0.71425 0.0
C886 C 0.49397 0.57521 0.22178 0.0
C887 C 0.48309 0.58867 0.1681 0.0
H888 H 0.52348 0.56445 0.26179 0.0
C889 C 0.49391 0.6031 0.11917 0.0
H890 H 0.486 0.56395 0.26024 0.0
C891 C 0.51514 0.60341 0.12014 0.0
C892 C 0.52613 0.58929 0.17002 0.0
H893 H 0.48598 0.6138 0.07771 0.0
H894 H 0.52295 0.61432 0.07932 0.0
C895 C 0.51538 0.57551 0.2227 0.0
C896 C 0.11971 0.14403 0.32425 0.0
C897 C 0.13934 0.13747 0.30101 0.0
H898 H 0.09302 0.13803 0.39977 0.0
C899 C 0.14693 0.11909 0.33484 0.0
H900 H 0.11346 0.15809 0.29852 0.0
C901 C 0.13526 0.10762 0.3921 0.0
C902 C 0.11576 0.1143 0.41652 0.0
H903 H 0.16197 0.1136 0.31757 0.0
H904 H 0.14166 0.09367 0.41822 0.0
C905 C 0.10798 0.1325 0.38159 0.0
C906 C 0.13687 0.90156 0.58337 0.0
C907 C 0.11794 0.89447 0.55366 0.0
H908 H 0.16255 0.896 0.66497 0.0
C909 C 0.11035 0.87576 0.58417 0.0
H910 H 0.14308 0.91592 0.5607 0.0
C911 C 0.1216 0.86426 0.64315 0.0
C912 C 0.1405 0.87138 0.67298 0.0
H913 H 0.09583 0.86991 0.56188 0.0
H914 H 0.11542 0.84988 0.6658 0.0
C915 C 0.14802 0.89014 0.64282 0.0
C916 C 0.36656 0.89675 0.89614 0.0
C917 C 0.3866 0.89095 0.91653 0.0
H918 H 0.33911 0.88926 0.82912 0.0
C919 C 0.39426 0.87236 0.88525 0.0
H920 H 0.3602 0.9109 0.92017 0.0
C921 C 0.3821 0.85985 0.83383 0.0
C922 C 0.3621 0.86574 0.81297 0.0
H923 H 0.40959 0.86742 0.90085 0.0
H924 H 0.38847 0.84575 0.80936 0.0
C925 C 0.35441 0.88425 0.84488 0.0
C926 C 0.36951 0.1078 0.08083 0.0
C927 C 0.38911 0.11417 0.05635 0.0
H928 H 0.34237 0.11487 0.15094 0.0
C929 C 0.3963 0.13328 0.08371 0.0
H930 H 0.3635 0.09323 0.05989 0.0
C931 C 0.38411 0.14578 0.13505 0.0
C932 C 0.36455 0.13935 0.15983 0.0
H933 H 0.41128 0.13866 0.06493 0.0
H934 H 0.39012 0.16033 0.15629 0.0
C935 C 0.35733 0.12029 0.1321 0.0
C936 C 0.87052 0.90379 0.60202 0.0
C937 C 0.88886 0.89602 0.56891 0.0
H938 H 0.84512 0.89885 0.68578 0.0
C939 C 0.89582 0.87682 0.59663 0.0
H940 H 0.86481 0.91855 0.58161 0.0
C941 C 0.88442 0.86542 0.65553 0.0
C942 C 0.86601 0.87316 0.68814 0.0
H943 H 0.90987 0.87044 0.5717 0.0
H944 H 0.89003 0.85059 0.67549 0.0
C945 C 0.85925 0.8925 0.66144 0.0
C946 C 0.88519 0.14534 0.32094 0.0
C947 C 0.86505 0.13971 0.30146 0.0
H948 H 0.91216 0.13844 0.39324 0.0
C949 C 0.85672 0.12216 0.33969 0.0
H950 H 0.89202 0.15874 0.29185 0.0
C951 C 0.86822 0.11054 0.39711 0.0
C952 C 0.88829 0.11623 0.41727 0.0
H953 H 0.84125 0.11741 0.32547 0.0
H954 H 0.8613 0.09721 0.4264 0.0
C955 C 0.89674 0.13366 0.37841 0.0
C956 C 0.65105 0.12429 0.12381 0.0
C957 C 0.64265 0.14235 0.15698 0.0
H958 H 0.64685 0.09851 0.0416 0.0
C959 C 0.62319 0.14859 0.12981 0.0
H960 H 0.66601 0.11911 0.14381 0.0
C961 C 0.6121 0.13667 0.07184 0.0
C962 C 0.6204 0.11843 0.03987 0.0
H963 H 0.61633 0.16242 0.1548 0.0
H964 H 0.59703 0.14167 0.05253 0.0
C965 C 0.64005 0.11247 0.06557 0.0
C966 C 0.62295 0.88127 0.78097 0.0
C967 C 0.63677 0.86597 0.80589 0.0
H968 H 0.6012 0.90363 0.82253 0.0
C969 C 0.63895 0.86105 0.89327 0.0
H970 H 0.621 0.88521 0.71367 0.0
C971 C 0.62808 0.87193 0.95533 0.0
C972 C 0.61443 0.88737 0.93047 0.0
H973 H 0.64958 0.84933 0.91372 0.0
H974 H 0.63041 0.86835 0.02278 0.0
C975 C 0.6116 0.89169 0.84287 0.0
C976 C 0.64024 0.61045 0.9171 0.0
C977 C 0.61953 0.61469 0.93102 0.0
H978 H 0.66751 0.61853 0.85001 0.0
C979 C 0.6103 0.63094 0.88648 0.0
H980 H 0.64777 0.59808 0.95092 0.0
C981 C 0.62166 0.64275 0.82887 0.0
C982 C 0.64239 0.63847 0.81511 0.0
H983 H 0.59436 0.6346 0.89647 0.0
H984 H 0.61419 0.65513 0.79486 0.0
C985 C 0.65157 0.62223 0.85972 0.0
C986 C 0.65189 0.38792 0.13877 0.0
C987 C 0.64487 0.36876 0.16659 0.0
H988 H 0.64545 0.41493 0.06622 0.0
C989 C 0.62537 0.36215 0.1419 0.0
H990 H 0.66679 0.39348 0.15756 0.0
C991 C 0.61305 0.37453 0.09035 0.0
C992 C 0.62007 0.39371 0.06276 0.0
H993 H 0.61951 0.34753 0.16324 0.0
H994 H 0.59814 0.369 0.07152 0.0
C995 C 0.63958 0.40029 0.08735 0.0
C996 C 0.87118 0.40202 0.39037 0.0
C997 C 0.89087 0.39583 0.41431 0.0
H998 H 0.84465 0.39556 0.31527 0.0
C999 C 0.8991 0.3779 0.37899 0.0
H1000 H 0.86444 0.41575 0.41686 0.0
C1001 C 0.88768 0.36622 0.32133 0.0
C1002 C 0.86793 0.37237 0.2979 0.0
H1003 H 0.91422 0.37274 0.3968 0.0
H1004 H 0.89432 0.35242 0.29507 0.0
C1005 C 0.85982 0.39042 0.33253 0.0
C1006 C 0.88276 0.62595 0.69464 0.0
C1007 C 0.86883 0.64097 0.66799 0.0
H1008 H 0.90474 0.60354 0.65545 0.0
C1009 C 0.86622 0.64502 0.58011 0.0
H1010 H 0.885 0.62271 0.76244 0.0
C1011 C 0.87696 0.63364 0.5193 0.0
C1012 C 0.89094 0.61866 0.54595 0.0
H1013 H 0.85549 0.65652 0.55854 0.0
H1014 H 0.87446 0.63663 0.45145 0.0
C1015 C 0.89405 0.61509 0.6339 0.0
C1016 C 0.36491 0.39054 0.17606 0.0
C1017 C 0.37118 0.37091 0.2011 0.0
H1018 H 0.37106 0.41675 0.09816 0.0
C1019 C 0.38956 0.363 0.16896 0.0
H1020 H 0.35085 0.39707 0.20026 0.0
C1021 C 0.40125 0.37438 0.11099 0.0
C1022 C 0.39464 0.39376 0.08406 0.0
H1023 H 0.3948 0.34795 0.1878 0.0
H1024 H 0.41514 0.36777 0.08552 0.0
C1025 C 0.37651 0.40184 0.1179 0.0
C1026 C 0.3976 0.63201 0.89498 0.0
C1027 C 0.3904 0.61304 0.92436 0.0
H1028 H 0.3921 0.65795 0.81408 0.0
C1029 C 0.37192 0.60539 0.89227 0.0
H1030 H 0.41177 0.63828 0.91907 0.0
C1031 C 0.36074 0.61657 0.8321 0.0
C1032 C 0.36777 0.63568 0.80366 0.0
H1033 H 0.36603 0.59081 0.91392 0.0
H1034 H 0.3465 0.61033 0.80853 0.0
C1035 C 0.38631 0.64329 0.83534 0.0
C1036 C 0.1423 0.64426 0.60256 0.0
C1037 C 0.13869 0.64105 0.69043 0.0
H1038 H 0.13518 0.63507 0.47381 0.0
C1039 C 0.12391 0.6268 0.71649 0.0
H1040 H 0.15372 0.65511 0.58128 0.0
C1041 C 0.11291 0.61578 0.65516 0.0
C1042 C 0.11714 0.61841 0.56743 0.0
H1043 H 0.12092 0.62416 0.78422 0.0
H1044 H 0.10165 0.60475 0.67626 0.0
C1045 C 0.13182 0.63276 0.54146 0.0
C1046 C 0.1485 0.39108 0.3237 0.0
C1047 C 0.14166 0.37182 0.29658 0.0
H1048 H 0.14298 0.41706 0.40356 0.0
C1049 C 0.12306 0.36426 0.32805 0.0
H1050 H 0.16276 0.39732 0.30019 0.0
C1051 C 0.11162 0.37567 0.38659 0.0
C1052 C 0.11871 0.39474 0.415 0.0
H1053 H 0.11738 0.3495 0.3077 0.0
H1054 H 0.09746 0.36939 0.41087 0.0
C1055 C 0.13717 0.4024 0.38265 0.0
loop_
_geom_bond_atom_site_label_1
_geom_bond_atom_site_label_2
_geom_bond_distance
_geom_bond_site_symmetry_2
_ccdc_geom_bond_type
In0 O1 2.294 . S
In0 O2 2.326 . S
In0 O6 2.266 . S
In0 O7 2.326 . S
In0 O8 2.266 . S
In0 O9 2.326 . S
In0 O11 2.294 . S
In0 O12 2.326 . S
O1 In0 2.294 . S
O1 C10 1.241 . S
O2 In0 2.326 . S
O2 C10 1.257 . S
C3 O6 1.252 . S
C3 O7 1.260 . S
C4 O11 1.240 . S
C4 O12 1.252 . S
C5 O8 1.252 . S
C5 O9 1.260 . S
O6 In0 2.266 . S
O6 C3 1.252 . S
O7 In0 2.326 . S
O7 C3 1.260 . S
O8 In0 2.266 . S
O8 C5 1.252 . S
O9 In0 2.326 . S
O9 C5 1.260 . S
C10 O1 1.241 . S
C10 O2 1.257 . S
O11 In0 2.294 . S
O11 C4 1.240 . S
O12 In0 2.326 . S
O12 C4 1.252 . S
In13 O14 2.294 . S
In13 O15 2.326 . S
In13 O19 2.266 . S
In13 O20 2.326 . S
In13 O21 2.266 . S
In13 O22 2.326 . S
In13 O24 2.294 . S
In13 O25 2.326 . S
O14 In13 2.294 . S
O14 C23 1.240 . S
O15 In13 2.326 . S
O15 C23 1.252 . S
C16 O19 1.252 . S
C16 O20 1.260 . S
C17 O24 1.240 . S
C17 O25 1.252 . S
C18 O21 1.252 . S
C18 O22 1.260 . S
O19 In13 2.266 . S
O19 C16 1.252 . S
O20 In13 2.326 . S
O20 C16 1.260 . S
O21 In13 2.266 . S
O21 C18 1.252 . S
O22 In13 2.326 . S
O22 C18 1.260 . S
C23 O14 1.240 . S
C23 O15 1.252 . S
O24 In13 2.294 . S
O24 C17 1.240 . S
O25 In13 2.326 . S
O25 C17 1.252 . S
In26 O27 2.294 . S
In26 O28 2.326 . S
In26 O32 2.266 . S
In26 O33 2.326 . S
In26 O34 2.266 . S
In26 O35 2.326 . S
In26 O37 2.294 . S
In26 O38 2.326 . S
O27 In26 2.294 . S
O27 C36 1.240 . S
O28 In26 2.326 . S
O28 C36 1.252 . S
C29 O32 1.252 . S
C29 O33 1.260 . S
C30 O37 1.240 . S
C30 O38 1.252 . S
C31 O34 1.252 . S
C31 O35 1.260 . S
O32 In26 2.266 . S
O32 C29 1.252 . S
O33 In26 2.326 . S
O33 C29 1.260 . S
O34 In26 2.266 . S
O34 C31 1.252 . S
O35 In26 2.326 . S
O35 C31 1.260 . S
C36 O27 1.240 . S
C36 O28 1.252 . S
O37 In26 2.294 . S
O37 C30 1.240 . S
O38 In26 2.326 . S
O38 C30 1.252 . S
In39 O40 2.294 . S
In39 O41 2.326 . S
In39 O45 2.266 . S
In39 O46 2.326 . S
In39 O47 2.266 . S
In39 O48 2.326 . S
In39 O50 2.294 . S
In39 O51 2.326 . S
O40 In39 2.294 . S
O40 C49 1.240 . S
O41 In39 2.326 . S
O41 C49 1.252 . S
C42 O45 1.252 . S
C42 O46 1.260 . S
C43 O50 1.240 . S
C43 O51 1.252 . S
C44 O47 1.252 . S
C44 O48 1.260 . S
O45 In39 2.266 . S
O45 C42 1.252 . S
O46 In39 2.326 . S
O46 C42 1.260 . S
O47 In39 2.266 . S
O47 C44 1.252 . S
O48 In39 2.326 . S
O48 C44 1.260 . S
C49 O40 1.240 . S
C49 O41 1.252 . S
O50 In39 2.294 . S
O50 C43 1.240 . S
O51 In39 2.326 . S
O51 C43 1.252 . S
In52 O53 2.294 . S
In52 O54 2.326 . S
In52 O58 2.266 . S
In52 O59 2.326 . S
In52 O60 2.266 . S
In52 O61 2.326 . S
In52 O63 2.294 . S
In52 O64 2.326 . S
O53 In52 2.294 . S
O53 C62 1.240 . S
O54 In52 2.326 . S
O54 C62 1.252 . S
C55 O58 1.252 . S
C55 O59 1.260 . S
C56 O63 1.241 . S
C56 O64 1.257 . S
C57 O60 1.252 . S
C57 O61 1.260 . S
O58 In52 2.266 . S
O58 C55 1.252 . S
O59 In52 2.326 . S
O59 C55 1.260 . S
O60 In52 2.266 . S
O60 C57 1.252 . S
O61 In52 2.326 . S
O61 C57 1.260 . S
C62 O53 1.240 . S
C62 O54 1.252 . S
O63 In52 2.294 . S
O63 C56 1.241 . S
O64 In52 2.326 . S
O64 C56 1.257 . S
In65 O66 2.294 . S
In65 O67 2.326 . S
In65 O71 2.266 . S
In65 O72 2.326 . S
In65 O73 2.266 . S
In65 O74 2.326 . S
In65 O76 2.294 . S
In65 O77 2.326 . S
O66 In65 2.294 . S
O66 C75 1.240 . S
O67 In65 2.326 . S
O67 C75 1.252 . S
C68 O71 1.252 . S
C68 O72 1.260 . S
C69 O76 1.240 . S
C69 O77 1.252 . S
C70 O73 1.252 . S
C70 O74 1.260 . S
O71 In65 2.266 . S
O71 C68 1.252 . S
O72 In65 2.326 . S
O72 C68 1.260 . S
O73 In65 2.266 . S
O73 C70 1.252 . S
O74 In65 2.326 . S
O74 C70 1.260 . S
C75 O66 1.240 . S
C75 O67 1.252 . S
O76 In65 2.294 . S
O76 C69 1.240 . S
O77 In65 2.326 . S
O77 C69 1.252 . S
In78 O79 2.294 . S
In78 O80 2.326 . S
In78 O84 2.266 . S
In78 O85 2.326 . S
In78 O86 2.266 . S
In78 O87 2.326 . S
In78 O89 2.294 . S
In78 O90 2.326 . S
O79 In78 2.294 . S
O79 C88 1.240 . S
O80 In78 2.326 . S
O80 C88 1.252 . S
C81 O84 1.252 . S
C81 O85 1.260 . S
C82 O89 1.240 . S
C82 O90 1.252 . S
C83 O86 1.252 . S
C83 O87 1.260 . S
O84 In78 2.266 . S
O84 C81 1.252 . S
O85 In78 2.326 . S
O85 C81 1.260 . S
O86 In78 2.266 . S
O86 C83 1.252 . S
O87 In78 2.326 . S
O87 C83 1.260 . S
C88 O79 1.240 . S
C88 O80 1.252 . S
O89 In78 2.294 . S
O89 C82 1.240 . S
O90 In78 2.326 . S
O90 C82 1.252 . S
In91 O92 2.294 . S
In91 O93 2.326 . S
In91 O97 2.266 . S
In91 O98 2.326 . S
In91 O99 2.266 . S
In91 O100 2.326 . S
In91 O102 2.294 . S
In91 O103 2.326 . S
O92 In91 2.294 . S
O92 C101 1.240 . S
O93 In91 2.326 . S
O93 C101 1.252 . S
C94 O97 1.252 . S
C94 O98 1.260 . S
C95 O102 1.240 . S
C95 O103 1.252 . S
C96 O99 1.252 . S
C96 O100 1.260 . S
O97 In91 2.266 . S
O97 C94 1.252 . S
O98 In91 2.326 . S
O98 C94 1.260 . S
O99 In91 2.266 . S
O99 C96 1.252 . S
O100 In91 2.326 . S
O100 C96 1.260 . S
C101 O92 1.240 . S
C101 O93 1.252 . S
O102 In91 2.294 . S
O102 C95 1.240 . S
O103 In91 2.326 . S
O103 C95 1.252 . S
In104 O105 2.294 . S
In104 O106 2.326 . S
In104 O110 2.266 . S
In104 O111 2.326 . S
In104 O112 2.266 . S
In104 O113 2.326 . S
In104 O115 2.294 . S
In104 O116 2.326 . S
O105 In104 2.294 . S
O105 C114 1.241 . S
O106 In104 2.326 . S
O106 C114 1.257 . S
C107 O110 1.252 . S
C107 O111 1.260 . S
C108 O115 1.240 . S
C108 O116 1.252 . S
C109 O112 1.252 . S
C109 O113 1.260 . S
O110 In104 2.266 . S
O110 C107 1.252 . S
O111 In104 2.326 . S
O111 C107 1.260 . S
O112 In104 2.266 . S
O112 C109 1.252 . S
O113 In104 2.326 . S
O113 C109 1.260 . S
C114 O105 1.241 . S
C114 O106 1.257 . S
O115 In104 2.294 . S
O115 C108 1.240 . S
O116 In104 2.326 . S
O116 C108 1.252 . S
In117 O118 2.294 . S
In117 O119 2.326 . S
In117 O123 2.266 . S
In117 O124 2.326 . S
In117 O125 2.266 . S
In117 O126 2.326 . S
In117 O128 2.294 . S
In117 O129 2.326 . S
O118 In117 2.294 . S
O118 C127 1.240 . S
O119 In117 2.326 . S
O119 C127 1.252 . S
C120 O123 1.252 . S
C120 O124 1.260 . S
C121 O128 1.240 . S
C121 O129 1.252 . S
C122 O125 1.252 . S
C122 O126 1.260 . S
O123 In117 2.266 . S
O123 C120 1.252 . S
O124 In117 2.326 . S
O124 C120 1.260 . S
O125 In117 2.266 . S
O125 C122 1.252 . S
O126 In117 2.326 . S
O126 C122 1.260 . S
C127 O118 1.240 . S
C127 O119 1.252 . S
O128 In117 2.294 . S
O128 C121 1.240 . S
O129 In117 2.326 . S
O129 C121 1.252 . S
In130 O131 2.294 . S
In130 O132 2.326 . S
In130 O136 2.266 . S
In130 O137 2.326 . S
In130 O138 2.266 . S
In130 O139 2.326 . S
In130 O141 2.294 . S
In130 O142 2.326 . S
O131 In130 2.294 . S
O131 C140 1.240 . S
O132 In130 2.326 . S
O132 C140 1.252 . S
C133 O136 1.252 . S
C133 O137 1.260 . S
C134 O141 1.240 . S
C134 O142 1.252 . S
C135 O138 1.252 . S
C135 O139 1.260 . S
O136 In130 2.266 . S
O136 C133 1.252 . S
O137 In130 2.326 . S
O137 C133 1.260 . S
O138 In130 2.266 . S
O138 C135 1.252 . S
O139 In130 2.326 . S
O139 C135 1.260 . S
C140 O131 1.240 . S
C140 O132 1.252 . S
O141 In130 2.294 . S
O141 C134 1.240 . S
O142 In130 2.326 . S
O142 C134 1.252 . S
In143 O144 2.294 . S
In143 O145 2.326 . S
In143 O149 2.266 . S
In143 O150 2.326 . S
In143 O151 2.266 . S
In143 O152 2.326 . S
In143 O154 2.294 . S
In143 O155 2.326 . S
O144 In143 2.294 . S
O144 C153 1.240 . S
O145 In143 2.326 . S
O145 C153 1.252 . S
C146 O149 1.252 . S
C146 O150 1.260 . S
C147 O154 1.240 . S
C147 O155 1.252 . S
C148 O151 1.252 . S
C148 O152 1.260 . S
O149 In143 2.266 . S
O149 C146 1.252 . S
O150 In143 2.326 . S
O150 C146 1.260 . S
O151 In143 2.266 . S
O151 C148 1.252 . S
O152 In143 2.326 . S
O152 C148 1.260 . S
C153 O144 1.240 . S
C153 O145 1.252 . S
O154 In143 2.294 . S
O154 C147 1.240 . S
O155 In143 2.326 . S
O155 C147 1.252 . S
In156 O157 2.294 . S
In156 O158 2.326 . S
In156 O162 2.266 . S
In156 O163 2.326 . S
In156 O164 2.266 . S
In156 O165 2.326 . S
In156 O167 2.294 . S
In156 O168 2.326 . S
O157 In156 2.294 . S
O157 C166 1.240 . S
O158 In156 2.326 . S
O158 C166 1.252 . S
C159 O162 1.252 . S
C159 O163 1.260 . S
C160 O167 1.241 . S
C160 O168 1.257 . S
C161 O164 1.252 . S
C161 O165 1.260 . S
O162 In156 2.266 . S
O162 C159 1.252 . S
O163 In156 2.326 . S
O163 C159 1.260 . S
O164 In156 2.266 . S
O164 C161 1.252 . S
O165 In156 2.326 . S
O165 C161 1.260 . S
C166 O157 1.240 . S
C166 O158 1.252 . S
O167 In156 2.294 . S
O167 C160 1.241 . S
O168 In156 2.326 . S
O168 C160 1.257 . S
In169 O170 2.294 . S
In169 O171 2.326 . S
In169 O175 2.266 . S
In169 O176 2.326 . S
In169 O177 2.266 . S
In169 O178 2.326 . S
In169 O180 2.294 . S
In169 O181 2.326 . S
O170 In169 2.294 . S
O170 C179 1.240 . S
O171 In169 2.326 . S
O171 C179 1.252 . S
C172 O175 1.252 . S
C172 O176 1.260 . S
C173 O180 1.240 . S
C173 O181 1.252 . S
C174 O177 1.252 . S
C174 O178 1.260 . S
O175 In169 2.266 . S
O175 C172 1.252 . S
O176 In169 2.326 . S
O176 C172 1.260 . S
O177 In169 2.266 . S
O177 C174 1.252 . S
O178 In169 2.326 . S
O178 C174 1.260 . S
C179 O170 1.240 . S
C179 O171 1.252 . S
O180 In169 2.294 . S
O180 C173 1.240 . S
O181 In169 2.326 . S
O181 C173 1.252 . S
In182 O183 2.294 . S
In182 O184 2.326 . S
In182 O188 2.266 . S
In182 O189 2.326 . S
In182 O190 2.266 . S
In182 O191 2.326 . S
In182 O193 2.294 . S
In182 O194 2.326 . S
O183 In182 2.294 . S
O183 C192 1.240 . S
O184 In182 2.326 . S
O184 C192 1.252 . S
C185 O188 1.252 . S
C185 O189 1.260 . S
C186 O193 1.240 . S
C186 O194 1.252 . S
C187 O190 1.252 . S
C187 O191 1.260 . S
O188 In182 2.266 . S
O188 C185 1.252 . S
O189 In182 2.326 . S
O189 C185 1.260 . S
O190 In182 2.266 . S
O190 C187 1.252 . S
O191 In182 2.326 . S
O191 C187 1.260 . S
C192 O183 1.240 . S
C192 O184 1.252 . S
O193 In182 2.294 . S
O193 C186 1.240 . S
O194 In182 2.326 . S
O194 C186 1.252 . S
In195 O196 2.294 . S
In195 O197 2.326 . S
In195 O201 2.266 . S
In195 O202 2.326 . S
In195 O203 2.266 . S
In195 O204 2.326 . S
In195 O206 2.294 . S
In195 O207 2.326 . S
O196 In195 2.294 . S
O196 C205 1.240 . S
O197 In195 2.326 . S
O197 C205 1.252 . S
C198 O201 1.252 . S
C198 O202 1.260 . S
C199 O206 1.240 . S
C199 O207 1.252 . S
C200 O203 1.252 . S
C200 O204 1.260 . S
O201 In195 2.266 . S
O201 C198 1.252 . S
O202 In195 2.326 . S
O202 C198 1.260 . S
O203 In195 2.266 . S
O203 C200 1.252 . S
O204 In195 2.326 . S
O204 C200 1.260 . S
C205 O196 1.240 . S
C205 O197 1.252 . S
O206 In195 2.294 . S
O206 C199 1.240 . S
O207 In195 2.326 . S
O207 C199 1.252 . S
In208 O209 2.294 . S
In208 O210 2.326 . S
In208 O214 2.266 . S
In208 O215 2.326 . S
In208 O216 2.266 . S
In208 O217 2.326 . S
In208 O219 2.294 . S
In208 O220 2.326 . S
O209 In208 2.294 . S
O209 C218 1.240 . S
O210 In208 2.326 . S
O210 C218 1.252 . S
C211 O214 1.252 . S
C211 O215 1.260 . S
C212 O219 1.240 . S
C212 O220 1.252 . S
C213 O216 1.252 . S
C213 O217 1.260 . S
O214 In208 2.266 . S
O214 C211 1.252 . S
O215 In208 2.326 . S
O215 C211 1.260 . S
O216 In208 2.266 . S
O216 C213 1.252 . S
O217 In208 2.326 . S
O217 C213 1.260 . S
C218 O209 1.240 . S
C218 O210 1.252 . S
O219 In208 2.294 . S
O219 C212 1.240 . S
O220 In208 2.326 . S
O220 C212 1.252 . S
In221 O222 2.294 . S
In221 O223 2.326 . S
In221 O227 2.266 . S
In221 O228 2.326 . S
In221 O229 2.266 . S
In221 O230 2.326 . S
In221 O232 2.294 . S
In221 O233 2.326 . S
O222 In221 2.294 . S
O222 C231 1.240 . S
O223 In221 2.326 . S
O223 C231 1.252 . S
C224 O227 1.252 . S
C224 O228 1.260 . S
C225 O232 1.240 . S
C225 O233 1.252 . S
C226 O229 1.252 . S
C226 O230 1.260 . S
O227 In221 2.266 . S
O227 C224 1.252 . S
O228 In221 2.326 . S
O228 C224 1.260 . S
O229 In221 2.266 . S
O229 C226 1.252 . S
O230 In221 2.326 . S
O230 C226 1.260 . S
C231 O222 1.240 . S
C231 O223 1.252 . S
O232 In221 2.294 . S
O232 C225 1.240 . S
O233 In221 2.326 . S
O233 C225 1.252 . S
In234 O235 2.294 . S
In234 O236 2.326 . S
In234 O240 2.266 . S
In234 O241 2.326 . S
In234 O242 2.266 . S
In234 O243 2.326 . S
In234 O245 2.294 . S
In234 O246 2.326 . S
O235 In234 2.294 . S
O235 C244 1.240 . S
O236 In234 2.326 . S
O236 C244 1.252 . S
C237 O240 1.252 . S
C237 O241 1.260 . S
C238 O245 1.241 . S
C238 O246 1.257 . S
C239 O242 1.252 . S
C239 O243 1.260 . S
O240 In234 2.266 . S
O240 C237 1.252 . S
O241 In234 2.326 . S
O241 C237 1.260 . S
O242 In234 2.266 . S
O242 C239 1.252 . S
O243 In234 2.326 . S
O243 C239 1.260 . S
C244 O235 1.240 . S
C244 O236 1.252 . S
O245 In234 2.294 . S
O245 C238 1.241 . S
O246 In234 2.326 . S
O246 C238 1.257 . S
In247 O248 2.294 . S
In247 O249 2.326 . S
In247 O253 2.266 . S
In247 O254 2.326 . S
In247 O255 2.266 . S
In247 O256 2.326 . S
In247 O258 2.294 . S
In247 O259 2.326 . S
O248 In247 2.294 . S
O248 C257 1.240 . S
O249 In247 2.326 . S
O249 C257 1.252 . S
C250 O253 1.252 . S
C250 O254 1.260 . S
C251 O258 1.240 . S
C251 O259 1.252 . S
C252 O255 1.252 . S
C252 O256 1.260 . S
O253 In247 2.266 . S
O253 C250 1.252 . S
O254 In247 2.326 . S
O254 C250 1.260 . S
O255 In247 2.266 . S
O255 C252 1.252 . S
O256 In247 2.326 . S
O256 C252 1.260 . S
C257 O248 1.240 . S
C257 O249 1.252 . S
O258 In247 2.294 . S
O258 C251 1.240 . S
O259 In247 2.326 . S
O259 C251 1.252 . S
In260 O261 2.294 . S
In260 O262 2.326 . S
In260 O266 2.266 . S
In260 O267 2.326 . S
In260 O268 2.266 . S
In260 O269 2.326 . S
In260 O271 2.294 . S
In260 O272 2.326 . S
O261 In260 2.294 . S
O261 C270 1.240 . S
O262 In260 2.326 . S
O262 C270 1.252 . S
C263 O266 1.252 . S
C263 O267 1.260 . S
C264 O271 1.240 . S
C264 O272 1.252 . S
C265 O268 1.252 . S
C265 O269 1.260 . S
O266 In260 2.266 . S
O266 C263 1.252 . S
O267 In260 2.326 . S
O267 C263 1.260 . S
O268 In260 2.266 . S
O268 C265 1.252 . S
O269 In260 2.326 . S
O269 C265 1.260 . S
C270 O261 1.240 . S
C270 O262 1.252 . S
O271 In260 2.294 . S
O271 C264 1.240 . S
O272 In260 2.326 . S
O272 C264 1.252 . S
In273 O274 2.294 . S
In273 O275 2.326 . S
In273 O279 2.266 . S
In273 O280 2.326 . S
In273 O281 2.266 . S
In273 O282 2.326 . S
In273 O284 2.294 . S
In273 O285 2.326 . S
O274 In273 2.294 . S
O274 C283 1.240 . S
O275 In273 2.326 . S
O275 C283 1.252 . S
C276 O279 1.252 . S
C276 O280 1.260 . S
C277 O284 1.240 . S
C277 O285 1.252 . S
C278 O281 1.252 . S
C278 O282 1.260 . S
O279 In273 2.266 . S
O279 C276 1.252 . S
O280 In273 2.326 . S
O280 C276 1.260 . S
O281 In273 2.266 . S
O281 C278 1.252 . S
O282 In273 2.326 . S
O282 C278 1.260 . S
C283 O274 1.240 . S
C283 O275 1.252 . S
O284 In273 2.294 . S
O284 C277 1.240 . S
O285 In273 2.326 . S
O285 C277 1.252 . S
In286 O287 2.294 . S
In286 O288 2.326 . S
In286 O292 2.266 . S
In286 O293 2.326 . S
In286 O294 2.266 . S
In286 O295 2.326 . S
In286 O297 2.294 . S
In286 O298 2.326 . S
O287 In286 2.294 . S
O287 C296 1.240 . S
O288 In286 2.326 . S
O288 C296 1.252 . S
C289 O292 1.252 . S
C289 O293 1.260 . S
C290 O297 1.241 . S
C290 O298 1.257 . S
C291 O294 1.252 . S
C291 O295 1.260 . S
O292 In286 2.266 . S
O292 C289 1.252 . S
O293 In286 2.326 . S
O293 C289 1.260 . S
O294 In286 2.266 . S
O294 C291 1.252 . S
O295 In286 2.326 . S
O295 C291 1.260 . S
C296 O287 1.240 . S
C296 O288 1.252 . S
O297 In286 2.294 . S
O297 C290 1.241 . S
O298 In286 2.326 . S
O298 C290 1.257 . S
In299 O300 2.294 . S
In299 O301 2.326 . S
In299 O305 2.266 . S
In299 O306 2.326 . S
In299 O307 2.266 . S
In299 O308 2.326 . S
In299 O310 2.294 . S
In299 O311 2.326 . S
O300 In299 2.294 . S
O300 C309 1.240 . S
O301 In299 2.326 . S
O301 C309 1.252 . S
C302 O305 1.252 . S
C302 O306 1.260 . S
C303 O310 1.240 . S
C303 O311 1.252 . S
C304 O307 1.252 . S
C304 O308 1.260 . S
O305 In299 2.266 . S
O305 C302 1.252 . S
O306 In299 2.326 . S
O306 C302 1.260 . S
O307 In299 2.266 . S
O307 C304 1.252 . S
O308 In299 2.326 . S
O308 C304 1.260 . S
C309 O300 1.240 . S
C309 O301 1.252 . S
O310 In299 2.294 . S
O310 C303 1.240 . S
O311 In299 2.326 . S
O311 C303 1.252 . S
In312 O313 2.294 . S
In312 O314 2.326 . S
In312 O318 2.266 . S
In312 O319 2.326 . S
In312 O320 2.266 . S
In312 O321 2.326 . S
In312 O323 2.294 . S
In312 O324 2.326 . S
O313 In312 2.294 . S
O313 C322 1.240 . S
O314 In312 2.326 . S
O314 C322 1.252 . S
C315 O318 1.252 . S
C315 O319 1.260 . S
C316 O323 1.240 . S
C316 O324 1.252 . S
C317 O320 1.252 . S
C317 O321 1.260 . S
O318 In312 2.266 . S
O318 C315 1.252 . S
O319 In312 2.326 . S
O319 C315 1.260 . S
O320 In312 2.266 . S
O320 C317 1.252 . S
O321 In312 2.326 . S
O321 C317 1.260 . S
C322 O313 1.240 . S
C322 O314 1.252 . S
O323 In312 2.294 . S
O323 C316 1.240 . S
O324 In312 2.326 . S
O324 C316 1.252 . S
In325 O326 2.294 . S
In325 O327 2.326 . S
In325 O331 2.266 . S
In325 O332 2.326 . S
In325 O333 2.266 . S
In325 O334 2.326 . S
In325 O336 2.294 . S
In325 O337 2.326 . S
O326 In325 2.294 . S
O326 C335 1.240 . S
O327 In325 2.326 . S
O327 C335 1.252 . S
C328 O331 1.252 . S
C328 O332 1.260 . S
C329 O336 1.240 . S
C329 O337 1.252 . S
C330 O333 1.252 . S
C330 O334 1.260 . S
O331 In325 2.266 . S
O331 C328 1.252 . S
O332 In325 2.326 . S
O332 C328 1.260 . S
O333 In325 2.266 . S
O333 C330 1.252 . S
O334 In325 2.326 . S
O334 C330 1.260 . S
C335 O326 1.240 . S
C335 O327 1.252 . S
O336 In325 2.294 . S
O336 C329 1.240 . S
O337 In325 2.326 . S
O337 C329 1.252 . S
In338 O339 2.294 . S
In338 O340 2.326 . S
In338 O344 2.266 . S
In338 O345 2.326 . S
In338 O346 2.266 . S
In338 O347 2.326 . S
In338 O349 2.294 . S
In338 O350 2.326 . S
O339 In338 2.294 . S
O339 C348 1.241 . S
O340 In338 2.326 . S
O340 C348 1.257 . S
C341 O344 1.252 . S
C341 O345 1.260 . S
C342 O349 1.240 . S
C342 O350 1.252 . S
C343 O346 1.252 . S
C343 O347 1.260 . S
O344 In338 2.266 . S
O344 C341 1.252 . S
O345 In338 2.326 . S
O345 C341 1.260 . S
O346 In338 2.266 . S
O346 C343 1.252 . S
O347 In338 2.326 . S
O347 C343 1.260 . S
C348 O339 1.241 . S
C348 O340 1.257 . S
O349 In338 2.294 . S
O349 C342 1.240 . S
O350 In338 2.326 . S
O350 C342 1.252 . S
In351 O352 2.294 . S
In351 O353 2.326 . S
In351 O357 2.266 . S
In351 O358 2.326 . S
In351 O359 2.266 . S
In351 O360 2.326 . S
In351 O362 2.294 . S
In351 O363 2.326 . S
O352 In351 2.294 . S
O352 C361 1.240 . S
O353 In351 2.326 . S
O353 C361 1.252 . S
C354 O357 1.252 . S
C354 O358 1.260 . S
C355 O362 1.240 . S
C355 O363 1.252 . S
C356 O359 1.252 . S
C356 O360 1.260 . S
O357 In351 2.266 . S
O357 C354 1.252 . S
O358 In351 2.326 . S
O358 C354 1.260 . S
O359 In351 2.266 . S
O359 C356 1.252 . S
O360 In351 2.326 . S
O360 C356 1.260 . S
C361 O352 1.240 . S
C361 O353 1.252 . S
O362 In351 2.294 . S
O362 C355 1.240 . S
O363 In351 2.326 . S
O363 C355 1.252 . S
In364 O365 2.294 . S
In364 O366 2.326 . S
In364 O370 2.266 . S
In364 O371 2.326 . S
In364 O372 2.266 . S
In364 O373 2.326 . S
In364 O375 2.294 . S
In364 O376 2.326 . S
O365 In364 2.294 . S
O365 C374 1.240 . S
O366 In364 2.326 . S
O366 C374 1.252 . S
C367 O370 1.252 . S
C367 O371 1.260 . S
C368 O375 1.240 . S
C368 O376 1.252 . S
C369 O372 1.252 . S
C369 O373 1.260 . S
O370 In364 2.266 . S
O370 C367 1.252 . S
O371 In364 2.326 . S
O371 C367 1.260 . S
O372 In364 2.266 . S
O372 C369 1.252 . S
O373 In364 2.326 . S
O373 C369 1.260 . S
C374 O365 1.240 . S
C374 O366 1.252 . S
O375 In364 2.294 . S
O375 C368 1.240 . S
O376 In364 2.326 . S
O376 C368 1.252 . S
In377 O378 2.294 . S
In377 O379 2.326 . S
In377 O383 2.266 . S
In377 O384 2.326 . S
In377 O385 2.266 . S
In377 O386 2.326 . S
In377 O388 2.294 . S
In377 O389 2.326 . S
O378 In377 2.294 . S
O378 C387 1.240 . S
O379 In377 2.326 . S
O379 C387 1.252 . S
C380 O383 1.252 . S
C380 O384 1.260 . S
C381 O388 1.240 . S
C381 O389 1.252 . S
C382 O385 1.252 . S
C382 O386 1.260 . S
O383 In377 2.266 . S
O383 C380 1.252 . S
O384 In377 2.326 . S
O384 C380 1.260 . S
O385 In377 2.266 . S
O385 C382 1.252 . S
O386 In377 2.326 . S
O386 C382 1.260 . S
C387 O378 1.240 . S
C387 O379 1.252 . S
O388 In377 2.294 . S
O388 C381 1.240 . S
O389 In377 2.326 . S
O389 C381 1.252 . S
In390 O391 2.294 . S
In390 O392 2.326 . S
In390 O396 2.266 . S
In390 O397 2.326 . S
In390 O398 2.266 . S
In390 O399 2.326 . S
In390 O401 2.294 . S
In390 O402 2.326 . S
O391 In390 2.294 . S
O391 C400 1.240 . S
O392 In390 2.326 . S
O392 C400 1.252 . S
C393 O396 1.252 . S
C393 O397 1.260 . S
C394 O401 1.241 . S
C394 O402 1.257 . S
C395 O398 1.252 . S
C395 O399 1.260 . S
O396 In390 2.266 . S
O396 C393 1.252 . S
O397 In390 2.326 . S
O397 C393 1.260 . S
O398 In390 2.266 . S
O398 C395 1.252 . S
O399 In390 2.326 . S
O399 C395 1.260 . S
C400 O391 1.240 . S
C400 O392 1.252 . S
O401 In390 2.294 . S
O401 C394 1.241 . S
O402 In390 2.326 . S
O402 C394 1.257 . S
In403 O404 2.294 . S
In403 O405 2.326 . S
In403 O409 2.266 . S
In403 O410 2.326 . S
In403 O411 2.266 . S
In403 O412 2.326 . S
In403 O414 2.294 . S
In403 O415 2.326 . S
O404 In403 2.294 . S
O404 C413 1.240 . S
O405 In403 2.326 . S
O405 C413 1.252 . S
C406 O409 1.252 . S
C406 O410 1.260 . S
C407 O414 1.240 . S
C407 O415 1.252 . S
C408 O411 1.252 . S
C408 O412 1.260 . S
O409 In403 2.266 . S
O409 C406 1.252 . S
O410 In403 2.326 . S
O410 C406 1.260 . S
O411 In403 2.266 . S
O411 C408 1.252 . S
O412 In403 2.326 . S
O412 C408 1.260 . S
C413 O404 1.240 . S
C413 O405 1.252 . S
O414 In403 2.294 . S
O414 C407 1.240 . S
O415 In403 2.326 . S
O415 C407 1.252 . S
C416 C417 1.387 . S
C416 H420 0.950 . S
C416 C425 1.390 . S
C417 C416 1.387 . S
C417 C419 1.387 . S
H418 C425 0.950 . S
C419 C417 1.387 . S
C419 C421 1.390 . S
C419 H423 0.950 . S
H420 C416 0.950 . S
C421 C419 1.390 . S
C421 C422 1.387 . S
C421 H424 0.950 . S
C422 C421 1.387 . S
C422 C425 1.387 . S
H423 C419 0.950 . S
H424 C421 0.950 . S
C425 C416 1.390 . S
C425 H418 0.950 . S
C425 C422 1.387 . S
C426 C427 1.387 . S
C426 H430 0.950 . S
C426 C435 1.390 1_565 S
C427 C426 1.387 . S
C427 C429 1.387 . S
H428 C435 0.950 . S
C429 C427 1.387 . S
C429 C431 1.390 1_565 S
C429 H433 0.950 . S
H430 C426 0.950 . S
C431 C429 1.390 1_545 S
C431 C432 1.387 . S
C431 H434 0.950 . S
C432 C431 1.387 . S
C432 C435 1.387 . S
H433 C429 0.950 . S
H434 C431 0.950 . S
C435 C426 1.390 1_545 S
C435 H428 0.950 . S
C435 C432 1.387 . S
C436 C437 1.387 . S
C436 H440 0.950 . S
C436 C445 1.390 . S
C437 C436 1.387 . S
C437 C439 1.387 . S
H438 C445 0.950 . S
C439 C437 1.387 . S
C439 C441 1.390 . S
C439 H443 0.950 . S
H440 C436 0.950 . S
C441 C439 1.390 . S
C441 C442 1.387 . S
C441 H444 0.950 . S
C442 C441 1.387 . S
C442 C445 1.387 . S
H443 C439 0.950 . S
H444 C441 0.950 . S
C445 C436 1.390 . S
C445 H438 0.950 . S
C445 C442 1.387 . S
C446 C447 1.387 . S
C446 H450 0.950 . S
C446 C455 1.390 1_546 S
C447 C446 1.387 . S
C447 C449 1.387 . S
H448 C455 0.950 . S
C449 C447 1.387 . S
C449 C451 1.390 1_546 S
C449 H453 0.950 . S
H450 C446 0.950 . S
C451 C449 1.390 1_564 S
C451 C452 1.387 . S
C451 H454 0.950 . S
C452 C451 1.387 . S
C452 C455 1.387 . S
H453 C449 0.950 . S
H454 C451 0.950 . S
C455 C446 1.390 1_564 S
C455 H448 0.950 . S
C455 C452 1.387 . S
C456 C457 1.387 . S
C456 H460 0.950 . S
C456 C465 1.390 . S
C457 C456 1.387 . S
C457 C459 1.387 . S
H458 C465 0.950 . S
C459 C457 1.387 . S
C459 C461 1.390 . S
C459 H463 0.950 . S
H460 C456 0.950 . S
C461 C459 1.390 . S
C461 C462 1.387 . S
C461 H464 0.950 . S
C462 C461 1.387 . S
C462 C465 1.387 . S
H463 C459 0.950 . S
H464 C461 0.950 . S
C465 C456 1.390 . S
C465 H458 0.950 . S
C465 C462 1.387 . S
C466 C467 1.387 . S
C466 H470 0.950 . S
C466 C475 1.390 1_565 S
C467 C466 1.387 . S
C467 C469 1.387 . S
H468 C475 0.950 . S
C469 C467 1.387 . S
C469 C471 1.390 1_565 S
C469 H473 0.950 . S
H470 C466 0.950 . S
C471 C469 1.390 1_545 S
C471 C472 1.387 . S
C471 H474 0.950 . S
C472 C471 1.387 . S
C472 C475 1.387 . S
H473 C469 0.950 . S
H474 C471 0.950 . S
C475 C466 1.390 1_545 S
C475 H468 0.950 . S
C475 C472 1.387 . S
C476 C477 1.387 . S
C476 H480 0.950 . S
C476 C485 1.390 . S
C477 C476 1.387 . S
C477 C479 1.387 . S
H478 C485 0.950 . S
C479 C477 1.387 . S
C479 C481 1.390 . S
C479 H483 0.950 . S
H480 C476 0.950 . S
C481 C479 1.390 . S
C481 C482 1.387 . S
C481 H484 0.950 . S
C482 C481 1.387 . S
C482 C485 1.387 . S
H483 C479 0.950 . S
H484 C481 0.950 . S
C485 C476 1.390 . S
C485 H478 0.950 . S
C485 C482 1.387 . S
C486 C487 1.387 . S
C486 H490 0.950 . S
C486 C495 1.390 1_546 S
C487 C486 1.387 . S
C487 C489 1.387 . S
H488 C495 0.950 . S
C489 C487 1.387 . S
C489 C491 1.390 1_546 S
C489 H493 0.950 . S
H490 C486 0.950 . S
C491 C489 1.390 1_564 S
C491 C492 1.387 . S
C491 H494 0.950 . S
C492 C491 1.387 . S
C492 C495 1.387 . S
H493 C489 0.950 . S
H494 C491 0.950 . S
C495 C486 1.390 1_564 S
C495 H488 0.950 . S
C495 C492 1.387 . S
C496 C497 1.387 . S
C496 H500 0.950 . S
C496 C505 1.390 . S
C497 C496 1.387 . S
C497 C499 1.387 . S
H498 C505 0.950 . S
C499 C497 1.387 . S
C499 C501 1.390 . S
C499 H503 0.950 . S
H500 C496 0.950 . S
C501 C499 1.390 . S
C501 C502 1.387 . S
C501 H504 0.950 . S
C502 C501 1.387 . S
C502 C505 1.387 . S
H503 C499 0.950 . S
H504 C501 0.950 . S
C505 C496 1.390 . S
C505 H498 0.950 . S
C505 C502 1.387 . S
C506 C507 1.387 . S
C506 H510 0.950 . S
C506 C515 1.390 1_556 S
C507 C506 1.387 . S
C507 C509 1.387 . S
H508 C515 0.950 . S
C509 C507 1.387 . S
C509 C511 1.390 1_556 S
C509 H513 0.950 . S
H510 C506 0.950 . S
C511 C509 1.390 1_554 S
C511 C512 1.387 . S
C511 H514 0.950 . S
C512 C511 1.387 . S
C512 C515 1.387 . S
H513 C509 0.950 . S
H514 C511 0.950 . S
C515 C506 1.390 1_554 S
C515 H508 0.950 . S
C515 C512 1.387 . S
C516 C517 1.387 . S
C516 H520 0.950 . S
C516 C525 1.390 . S
C517 C516 1.387 . S
C517 C519 1.387 . S
H518 C525 0.950 . S
C519 C517 1.387 . S
C519 C521 1.390 . S
C519 H523 0.950 . S
H520 C516 0.950 . S
C521 C519 1.390 . S
C521 C522 1.387 . S
C521 H524 0.950 . S
C522 C521 1.387 . S
C522 C525 1.387 . S
H523 C519 0.950 . S
H524 C521 0.950 . S
C525 C516 1.390 . S
C525 H518 0.950 . S
C525 C522 1.387 . S
C526 C527 1.387 . S
C526 H530 0.950 . S
C526 C535 1.390 . S
C527 C526 1.387 . S
C527 C529 1.387 . S
H528 C535 0.950 . S
C529 C527 1.387 . S
C529 C531 1.390 . S
C529 H533 0.950 . S
H530 C526 0.950 . S
C531 C529 1.390 . S
C531 C532 1.387 . S
C531 H534 0.950 . S
C532 C531 1.387 . S
C532 C535 1.387 . S
H533 C529 0.950 . S
H534 C531 0.950 . S
C535 C526 1.390 . S
C535 H528 0.950 . S
C535 C532 1.387 . S
C536 C537 1.387 . S
C536 H540 0.950 . S
C536 C545 1.390 . S
C537 C536 1.387 . S
C537 C539 1.387 . S
H538 C545 0.950 . S
C539 C537 1.387 . S
C539 C541 1.390 . S
C539 H543 0.950 . S
H540 C536 0.950 . S
C541 C539 1.390 . S
C541 C542 1.387 . S
C541 H544 0.950 . S
C542 C541 1.387 . S
C542 C545 1.387 . S
H543 C539 0.950 . S
H544 C541 0.950 . S
C545 C536 1.390 . S
C545 H538 0.950 . S
C545 C542 1.387 . S
C546 C547 1.387 . S
C546 H550 0.950 . S
C546 C555 1.390 1_554 S
C547 C546 1.387 . S
C547 C549 1.387 . S
H548 C555 0.950 . S
C549 C547 1.387 . S
C549 C551 1.390 1_554 S
C549 H553 0.950 . S
H550 C546 0.950 . S
C551 C549 1.390 1_556 S
C551 C552 1.387 . S
C551 H554 0.950 . S
C552 C551 1.387 . S
C552 C555 1.387 . S
H553 C549 0.950 . S
H554 C551 0.950 . S
C555 C546 1.390 1_556 S
C555 H548 0.950 . S
C555 C552 1.387 . S
C556 C557 1.387 . S
C556 H560 0.950 . S
C556 C565 1.390 . S
C557 C556 1.387 . S
C557 C559 1.387 . S
H558 C565 0.950 . S
C559 C557 1.387 . S
C559 C561 1.390 . S
C559 H563 0.950 . S
H560 C556 0.950 . S
C561 C559 1.390 . S
C561 C562 1.387 . S
C561 H564 0.950 . S
C562 C561 1.387 . S
C562 C565 1.387 . S
H563 C559 0.950 . S
H564 C561 0.950 . S
C565 C556 1.390 . S
C565 H558 0.950 . S
C565 C562 1.387 . S
C566 C567 1.387 . S
C566 H570 0.950 . S
C566 C575 1.390 . S
C567 C566 1.387 . S
C567 C569 1.387 . S
H568 C575 0.950 . S
C569 C567 1.387 . S
C569 C571 1.390 . S
C569 H573 0.950 . S
H570 C566 0.950 . S
C571 C569 1.390 . S
C571 C572 1.387 . S
C571 H574 0.950 . S
C572 C571 1.387 . S
C572 C575 1.387 . S
H573 C569 0.950 . S
H574 C571 0.950 . S
C575 C566 1.390 . S
C575 H568 0.950 . S
C575 C572 1.387 . S
C576 C577 1.387 . S
C576 H580 0.950 1_556 S
C576 C585 1.390 . S
C577 C576 1.387 . S
C577 C579 1.387 . S
H578 C585 0.950 . S
C579 C577 1.387 . S
C579 C581 1.390 . S
C579 H583 0.950 . S
H580 C576 0.950 1_554 S
C581 C579 1.390 . S
C581 C582 1.387 . S
C581 H584 0.950 . S
C582 C581 1.387 . S
C582 C585 1.387 . S
H583 C579 0.950 . S
H584 C581 0.950 . S
C585 C576 1.390 . S
C585 H578 0.950 . S
C585 C582 1.387 . S
C586 C587 1.387 . S
C586 H590 0.950 . S
C586 C595 1.390 . S
C587 C586 1.387 . S
C587 C589 1.387 . S
H588 C595 0.950 . S
C589 C587 1.387 . S
C589 C591 1.390 . S
C589 H593 0.950 . S
H590 C586 0.950 . S
C591 C589 1.390 . S
C591 C592 1.387 . S
C591 H594 0.950 . S
C592 C591 1.387 . S
C592 C595 1.387 . S
H593 C589 0.950 . S
H594 C591 0.950 . S
C595 C586 1.390 . S
C595 H588 0.950 . S
C595 C592 1.387 . S
C596 C597 1.387 . S
C596 H600 0.950 . S
C596 C605 1.390 . S
C597 C596 1.387 . S
C597 C599 1.387 . S
H598 C605 0.950 . S
C599 C597 1.387 . S
C599 C601 1.390 . S
C599 H603 0.950 . S
H600 C596 0.950 . S
C601 C599 1.390 . S
C601 C602 1.387 . S
C601 H604 0.950 . S
C602 C601 1.387 . S
C602 C605 1.387 . S
H603 C599 0.950 . S
H604 C601 0.950 . S
C605 C596 1.390 . S
C605 H598 0.950 . S
C605 C602 1.387 . S
C606 C607 1.387 . S
C606 H610 0.950 . S
C606 C615 1.390 . S
C607 C606 1.387 . S
C607 C609 1.387 . S
H608 C615 0.950 . S
C609 C607 1.387 . S
C609 C611 1.390 . S
C609 H613 0.950 . S
H610 C606 0.950 . S
C611 C609 1.390 . S
C611 C612 1.387 . S
C611 H614 0.950 . S
C612 C611 1.387 . S
C612 C615 1.387 . S
H613 C609 0.950 . S
H614 C611 0.950 . S
C615 C606 1.390 . S
C615 H608 0.950 . S
C615 C612 1.387 . S
C616 C617 1.387 . S
C616 H620 0.950 . S
C616 C625 1.390 . S
C617 C616 1.387 . S
C617 C619 1.387 . S
H618 C625 0.950 . S
C619 C617 1.387 . S
C619 C621 1.390 . S
C619 H623 0.950 . S
H620 C616 0.950 . S
C621 C619 1.390 . S
C621 C622 1.387 . S
C621 H624 0.950 . S
C622 C621 1.387 . S
C622 C625 1.387 . S
H623 C619 0.950 . S
H624 C621 0.950 . S
C625 C616 1.390 . S
C625 H618 0.950 . S
C625 C622 1.387 . S
C626 C627 1.387 . S
C626 H630 0.950 . S
C626 C635 1.390 . S
C627 C626 1.387 . S
C627 C629 1.387 . S
H628 C635 0.950 . S
C629 C627 1.387 . S
C629 C631 1.390 . S
C629 H633 0.950 . S
H630 C626 0.950 . S
C631 C629 1.390 . S
C631 C632 1.387 . S
C631 H634 0.950 . S
C632 C631 1.387 . S
C632 C635 1.387 . S
H633 C629 0.950 . S
H634 C631 0.950 . S
C635 C626 1.390 . S
C635 H628 0.950 . S
C635 C632 1.387 . S
C636 C637 1.387 . S
C636 H640 0.950 . S
C636 C645 1.390 . S
C637 C636 1.387 . S
C637 C639 1.387 . S
H638 C645 0.950 . S
C639 C637 1.387 . S
C639 C641 1.390 . S
C639 H643 0.950 . S
H640 C636 0.950 . S
C641 C639 1.390 . S
C641 C642 1.387 . S
C641 H644 0.950 . S
C642 C641 1.387 . S
C642 C645 1.387 . S
H643 C639 0.950 . S
H644 C641 0.950 . S
C645 C636 1.390 . S
C645 H638 0.950 . S
C645 C642 1.387 . S
C646 C647 1.387 . S
C646 H650 0.950 . S
C646 C655 1.390 . S
C647 C646 1.387 . S
C647 C649 1.387 . S
H648 C655 0.950 . S
C649 C647 1.387 . S
C649 C651 1.390 . S
C649 H653 0.950 . S
H650 C646 0.950 . S
C651 C649 1.390 . S
C651 C652 1.387 . S
C651 H654 0.950 . S
C652 C651 1.387 . S
C652 C655 1.387 . S
H653 C649 0.950 . S
H654 C651 0.950 . S
C655 C646 1.390 . S
C655 H648 0.950 . S
C655 C652 1.387 . S
C656 C657 1.387 . S
C656 H660 0.950 . S
C656 C665 1.390 . S
C657 C656 1.387 . S
C657 C659 1.387 . S
H658 C665 0.950 . S
C659 C657 1.387 . S
C659 C661 1.390 . S
C659 H663 0.950 . S
H660 C656 0.950 . S
C661 C659 1.390 . S
C661 C662 1.387 . S
C661 H664 0.950 . S
C662 C661 1.387 . S
C662 C665 1.387 . S
H663 C659 0.950 . S
H664 C661 0.950 . S
C665 C656 1.390 . S
C665 H658 0.950 . S
C665 C662 1.387 . S
C666 C667 1.387 . S
C666 H670 0.950 . S
C666 C675 1.390 . S
C667 C666 1.387 . S
C667 C669 1.387 . S
H668 C675 0.950 . S
C669 C667 1.387 . S
C669 C671 1.390 . S
C669 H673 0.950 . S
H670 C666 0.950 . S
C671 C669 1.390 . S
C671 C672 1.387 . S
C671 H674 0.950 . S
C672 C671 1.387 . S
C672 C675 1.387 . S
H673 C669 0.950 . S
H674 C671 0.950 . S
C675 C666 1.390 . S
C675 H668 0.950 . S
C675 C672 1.387 . S
C676 C677 1.387 . S
C676 H680 0.950 . S
C676 C685 1.390 . S
C677 C676 1.387 . S
C677 C679 1.387 . S
H678 C685 0.950 . S
C679 C677 1.387 . S
C679 C681 1.390 . S
C679 H683 0.950 . S
H680 C676 0.950 . S
C681 C679 1.390 . S
C681 C682 1.387 . S
C681 H684 0.950 1_556 S
C682 C681 1.387 . S
C682 C685 1.387 . S
H683 C679 0.950 . S
H684 C681 0.950 1_554 S
C685 C676 1.390 . S
C685 H678 0.950 . S
C685 C682 1.387 . S
C686 C687 1.387 . S
C686 H690 0.950 . S
C686 C695 1.390 . S
C687 C686 1.387 . S
C687 C689 1.387 . S
H688 C695 0.950 . S
C689 C687 1.387 . S
C689 C691 1.390 . S
C689 H693 0.950 . S
H690 C686 0.950 . S
C691 C689 1.390 . S
C691 C692 1.387 . S
C691 H694 0.950 1_554 S
C692 C691 1.387 . S
C692 C695 1.387 . S
H693 C689 0.950 . S
H694 C691 0.950 1_556 S
C695 C686 1.390 . S
C695 H688 0.950 . S
C695 C692 1.387 . S
C696 C697 1.387 . S
C696 H700 0.950 . S
C696 C705 1.390 . S
C697 C696 1.387 . S
C697 C699 1.387 . S
H698 C705 0.950 . S
C699 C697 1.387 . S
C699 C701 1.390 . S
C699 H703 0.950 . S
H700 C696 0.950 . S
C701 C699 1.390 . S
C701 C702 1.387 . S
C701 H704 0.950 . S
C702 C701 1.387 . S
C702 C705 1.387 . S
H703 C699 0.950 . S
H704 C701 0.950 . S
C705 C696 1.390 . S
C705 H698 0.950 . S
C705 C702 1.387 . S
C706 C707 1.387 . S
C706 H710 0.950 . S
C706 C715 1.390 . S
C707 C706 1.387 . S
C707 C709 1.387 . S
H708 C715 0.950 . S
C709 C707 1.387 . S
C709 C711 1.390 . S
C709 H713 0.950 . S
H710 C706 0.950 . S
C711 C709 1.390 . S
C711 C712 1.387 . S
C711 H714 0.950 . S
C712 C711 1.387 . S
C712 C715 1.387 . S
H713 C709 0.950 . S
H714 C711 0.950 . S
C715 C706 1.390 . S
C715 H708 0.950 . S
C715 C712 1.387 . S
C716 C717 1.387 . S
C716 H720 0.950 . S
C716 C725 1.390 . S
C717 C716 1.387 . S
C717 C719 1.387 . S
H718 C725 0.950 . S
C719 C717 1.387 . S
C719 C721 1.390 . S
C719 H723 0.950 1_554 S
H720 C716 0.950 . S
C721 C719 1.390 . S
C721 C722 1.387 . S
C721 H724 0.950 . S
C722 C721 1.387 . S
C722 C725 1.387 . S
H723 C719 0.950 1_556 S
H724 C721 0.950 . S
C725 C716 1.390 . S
C725 H718 0.950 . S
C725 C722 1.387 . S
C726 C727 1.387 . S
C726 H730 0.950 . S
C726 C735 1.390 . S
C727 C726 1.387 . S
C727 C729 1.387 . S
H728 C735 0.950 . S
C729 C727 1.387 . S
C729 C731 1.390 . S
C729 H733 0.950 . S
H730 C726 0.950 . S
C731 C729 1.390 . S
C731 C732 1.387 . S
C731 H734 0.950 1_556 S
C732 C731 1.387 . S
C732 C735 1.387 . S
H733 C729 0.950 . S
H734 C731 0.950 1_554 S
C735 C726 1.390 . S
C735 H728 0.950 . S
C735 C732 1.387 . S
C736 C737 1.387 . S
C736 H740 0.950 . S
C736 C745 1.390 . S
C737 C736 1.387 . S
C737 C739 1.387 . S
H738 C745 0.950 . S
C739 C737 1.387 . S
C739 C741 1.390 . S
C739 H743 0.950 1_554 S
H740 C736 0.950 . S
C741 C739 1.390 . S
C741 C742 1.387 . S
C741 H744 0.950 1_554 S
C742 C741 1.387 . S
C742 C745 1.387 . S
H743 C739 0.950 1_556 S
H744 C741 0.950 1_556 S
C745 C736 1.390 . S
C745 H738 0.950 . S
C745 C742 1.387 . S
C746 C747 1.387 . S
C746 H750 0.950 . S
C746 C755 1.390 1_655 S
C747 C746 1.387 . S
C747 C749 1.387 . S
H748 C755 0.950 . S
C749 C747 1.387 . S
C749 C751 1.390 1_655 S
C749 H753 0.950 . S
H750 C746 0.950 . S
C751 C749 1.390 1_455 S
C751 C752 1.387 . S
C751 H754 0.950 . S
C752 C751 1.387 . S
C752 C755 1.387 . S
H753 C749 0.950 . S
H754 C751 0.950 . S
C755 C746 1.390 1_455 S
C755 H748 0.950 . S
C755 C752 1.387 . S
C756 C757 1.387 . S
C756 H760 0.950 . S
C756 C765 1.390 . S
C757 C756 1.387 . S
C757 C759 1.387 . S
H758 C765 0.950 . S
C759 C757 1.387 . S
C759 C761 1.390 . S
C759 H763 0.950 . S
H760 C756 0.950 . S
C761 C759 1.390 . S
C761 C762 1.387 . S
C761 H764 0.950 . S
C762 C761 1.387 . S
C762 C765 1.387 . S
H763 C759 0.950 . S
H764 C761 0.950 . S
C765 C756 1.390 . S
C765 H758 0.950 . S
C765 C762 1.387 . S
C766 C767 1.387 . S
C766 H770 0.950 . S
C766 C775 1.390 . S
C767 C766 1.387 . S
C767 C769 1.387 . S
H768 C775 0.950 . S
C769 C767 1.387 . S
C769 C771 1.390 . S
C769 H773 0.950 . S
H770 C766 0.950 . S
C771 C769 1.390 . S
C771 C772 1.387 . S
C771 H774 0.950 . S
C772 C771 1.387 . S
C772 C775 1.387 . S
H773 C769 0.950 . S
H774 C771 0.950 . S
C775 C766 1.390 . S
C775 H768 0.950 . S
C775 C772 1.387 . S
C776 C777 1.387 . S
C776 H780 0.950 . S
C776 C785 1.390 . S
C777 C776 1.387 . S
C777 C779 1.387 . S
H778 C785 0.950 . S
C779 C777 1.387 . S
C779 C781 1.390 . S
C779 H783 0.950 . S
H780 C776 0.950 . S
C781 C779 1.390 . S
C781 C782 1.387 . S
C781 H784 0.950 . S
C782 C781 1.387 . S
C782 C785 1.387 . S
H783 C779 0.950 . S
H784 C781 0.950 . S
C785 C776 1.390 . S
C785 H778 0.950 . S
C785 C782 1.387 . S
C786 C787 1.387 . S
C786 H790 0.950 . S
C786 C795 1.390 . S
C787 C786 1.387 . S
C787 C789 1.387 . S
H788 C795 0.950 . S
C789 C787 1.387 . S
C789 C791 1.390 . S
C789 H793 0.950 . S
H790 C786 0.950 . S
C791 C789 1.390 . S
C791 C792 1.387 . S
C791 H794 0.950 . S
C792 C791 1.387 . S
C792 C795 1.387 . S
H793 C789 0.950 . S
H794 C791 0.950 . S
C795 C786 1.390 . S
C795 H788 0.950 . S
C795 C792 1.387 . S
C796 C797 1.387 . S
C796 H800 0.950 . S
C796 C805 1.390 . S
C797 C796 1.387 . S
C797 C799 1.387 . S
H798 C805 0.950 . S
C799 C797 1.387 . S
C799 C801 1.390 . S
C799 H803 0.950 . S
H800 C796 0.950 . S
C801 C799 1.390 . S
C801 C802 1.387 . S
C801 H804 0.950 . S
C802 C801 1.387 . S
C802 C805 1.387 . S
H803 C799 0.950 . S
H804 C801 0.950 . S
C805 C796 1.390 . S
C805 H798 0.950 . S
C805 C802 1.387 . S
C806 C807 1.387 . S
C806 H810 0.950 . S
C806 C815 1.390 1_655 S
C807 C806 1.387 . S
C807 C809 1.387 . S
H808 C815 0.950 . S
C809 C807 1.387 . S
C809 C811 1.390 1_655 S
C809 H813 0.950 . S
H810 C806 0.950 . S
C811 C809 1.390 1_455 S
C811 C812 1.387 . S
C811 H814 0.950 . S
C812 C811 1.387 . S
C812 C815 1.387 . S
H813 C809 0.950 . S
H814 C811 0.950 . S
C815 C806 1.390 1_455 S
C815 H808 0.950 . S
C815 C812 1.387 . S
C816 C817 1.387 . S
C816 H820 0.950 1_556 S
C816 C825 1.390 . S
C817 C816 1.387 . S
C817 C819 1.387 . S
H818 C825 0.950 1_554 S
C819 C817 1.387 . S
C819 C821 1.390 . S
C819 H823 0.950 . S
H820 C816 0.950 1_554 S
C821 C819 1.390 . S
C821 C822 1.387 . S
C821 H824 0.950 . S
C822 C821 1.387 . S
C822 C825 1.387 . S
H823 C819 0.950 . S
H824 C821 0.950 . S
C825 C816 1.390 . S
C825 H818 0.950 1_556 S
C825 C822 1.387 . S
C826 C827 1.387 . S
C826 H830 0.950 . S
C826 C835 1.390 . S
C827 C826 1.387 . S
C827 C829 1.387 . S
H828 C835 0.950 . S
C829 C827 1.387 . S
C829 C831 1.390 . S
C829 H833 0.950 . S
H830 C826 0.950 . S
C831 C829 1.390 . S
C831 C832 1.387 . S
C831 H834 0.950 . S
C832 C831 1.387 . S
C832 C835 1.387 . S
H833 C829 0.950 . S
H834 C831 0.950 . S
C835 C826 1.390 . S
C835 H828 0.950 . S
C835 C832 1.387 . S
C836 C837 1.387 . S
C836 H840 0.950 . S
C836 C845 1.390 . S
C837 C836 1.387 . S
C837 C839 1.387 . S
H838 C845 0.950 . S
C839 C837 1.387 . S
C839 C841 1.390 . S
C839 H843 0.950 . S
H840 C836 0.950 . S
C841 C839 1.390 . S
C841 C842 1.387 . S
C841 H844 0.950 . S
C842 C841 1.387 . S
C842 C845 1.387 . S
H843 C839 0.950 . S
H844 C841 0.950 . S
C845 C836 1.390 . S
C845 H838 0.950 . S
C845 C842 1.387 . S
C846 C847 1.387 . S
C846 H850 0.950 . S
C846 C855 1.390 . S
C847 C846 1.387 . S
C847 C849 1.387 . S
H848 C855 0.950 . S
C849 C847 1.387 . S
C849 C851 1.390 . S
C849 H853 0.950 . S
H850 C846 0.950 . S
C851 C849 1.390 . S
C851 C852 1.387 . S
C851 H854 0.950 . S
C852 C851 1.387 . S
C852 C855 1.387 . S
H853 C849 0.950 . S
H854 C851 0.950 . S
C855 C846 1.390 . S
C855 H848 0.950 . S
C855 C852 1.387 . S
C856 C857 1.387 . S
C856 H860 0.950 . S
C856 C865 1.390 . S
C857 C856 1.387 . S
C857 C859 1.387 . S
H858 C865 0.950 . S
C859 C857 1.387 . S
C859 C861 1.390 . S
C859 H863 0.950 . S
H860 C856 0.950 . S
C861 C859 1.390 . S
C861 C862 1.387 . S
C861 H864 0.950 . S
C862 C861 1.387 . S
C862 C865 1.387 . S
H863 C859 0.950 . S
H864 C861 0.950 . S
C865 C856 1.390 . S
C865 H858 0.950 . S
C865 C862 1.387 . S
C866 C867 1.387 . S
C866 H870 0.950 . S
C866 C875 1.390 1_655 S
C867 C866 1.387 . S
C867 C869 1.387 . S
H868 C875 0.950 . S
C869 C867 1.387 . S
C869 C871 1.390 1_655 S
C869 H873 0.950 . S
H870 C866 0.950 . S
C871 C869 1.390 1_455 S
C871 C872 1.387 . S
C871 H874 0.950 . S
C872 C871 1.387 . S
C872 C875 1.387 . S
H873 C869 0.950 . S
H874 C871 0.950 . S
C875 C866 1.390 1_455 S
C875 H868 0.950 . S
C875 C872 1.387 . S
C876 C877 1.387 . S
C876 H880 0.950 . S
C876 C885 1.390 1_655 S
C877 C876 1.387 . S
C877 C879 1.387 . S
H878 C885 0.950 . S
C879 C877 1.387 . S
C879 C881 1.390 1_655 S
C879 H883 0.950 . S
H880 C876 0.950 . S
C881 C879 1.390 1_455 S
C881 C882 1.387 . S
C881 H884 0.950 . S
C882 C881 1.387 . S
C882 C885 1.387 . S
H883 C879 0.950 . S
H884 C881 0.950 . S
C885 C876 1.390 1_455 S
C885 H878 0.950 . S
C885 C882 1.387 . S
C886 C887 1.387 . S
C886 H890 0.950 . S
C886 C895 1.390 . S
C887 C886 1.387 . S
C887 C889 1.387 . S
H888 C895 0.950 . S
C889 C887 1.387 . S
C889 C891 1.390 . S
C889 H893 0.950 . S
H890 C886 0.950 . S
C891 C889 1.390 . S
C891 C892 1.387 . S
C891 H894 0.950 . S
C892 C891 1.387 . S
C892 C895 1.387 . S
H893 C889 0.950 . S
H894 C891 0.950 . S
C895 C886 1.390 . S
C895 H888 0.950 . S
C895 C892 1.387 . S
C896 C897 1.387 . S
C896 H900 0.950 . S
C896 C905 1.390 . S
C897 C896 1.387 . S
C897 C899 1.387 . S
H898 C905 0.950 . S
C899 C897 1.387 . S
C899 C901 1.390 . S
C899 H903 0.950 . S
H900 C896 0.950 . S
C901 C899 1.390 . S
C901 C902 1.387 . S
C901 H904 0.950 . S
C902 C901 1.387 . S
C902 C905 1.387 . S
H903 C899 0.950 . S
H904 C901 0.950 . S
C905 C896 1.390 . S
C905 H898 0.950 . S
C905 C902 1.387 . S
C906 C907 1.387 . S
C906 H910 0.950 . S
C906 C915 1.390 . S
C907 C906 1.387 . S
C907 C909 1.387 . S
H908 C915 0.950 . S
C909 C907 1.387 . S
C909 C911 1.390 . S
C909 H913 0.950 . S
H910 C906 0.950 . S
C911 C909 1.390 . S
C911 C912 1.387 . S
C911 H914 0.950 . S
C912 C911 1.387 . S
C912 C915 1.387 . S
H913 C909 0.950 . S
H914 C911 0.950 . S
C915 C906 1.390 . S
C915 H908 0.950 . S
C915 C912 1.387 . S
C916 C917 1.387 . S
C916 H920 0.950 . S
C916 C925 1.390 . S
C917 C916 1.387 . S
C917 C919 1.387 . S
H918 C925 0.950 . S
C919 C917 1.387 . S
C919 C921 1.390 . S
C919 H923 0.950 . S
H920 C916 0.950 . S
C921 C919 1.390 . S
C921 C922 1.387 . S
C921 H924 0.950 . S
C922 C921 1.387 . S
C922 C925 1.387 . S
H923 C919 0.950 . S
H924 C921 0.950 . S
C925 C916 1.390 . S
C925 H918 0.950 . S
C925 C922 1.387 . S
C926 C927 1.387 . S
C926 H930 0.950 . S
C926 C935 1.390 . S
C927 C926 1.387 . S
C927 C929 1.387 . S
H928 C935 0.950 . S
C929 C927 1.387 . S
C929 C931 1.390 . S
C929 H933 0.950 1_554 S
H930 C926 0.950 . S
C931 C929 1.390 . S
C931 C932 1.387 . S
C931 H934 0.950 . S
C932 C931 1.387 . S
C932 C935 1.387 . S
H933 C929 0.950 1_556 S
H934 C931 0.950 . S
C935 C926 1.390 . S
C935 H928 0.950 . S
C935 C932 1.387 . S
C936 C937 1.387 . S
C936 H940 0.950 . S
C936 C945 1.390 . S
C937 C936 1.387 . S
C937 C939 1.387 . S
H938 C945 0.950 . S
C939 C937 1.387 . S
C939 C941 1.390 . S
C939 H943 0.950 . S
H940 C936 0.950 . S
C941 C939 1.390 . S
C941 C942 1.387 . S
C941 H944 0.950 . S
C942 C941 1.387 . S
C942 C945 1.387 . S
H943 C939 0.950 . S
H944 C941 0.950 . S
C945 C936 1.390 . S
C945 H938 0.950 . S
C945 C942 1.387 . S
C946 C947 1.387 . S
C946 H950 0.950 . S
C946 C955 1.390 . S
C947 C946 1.387 . S
C947 C949 1.387 . S
H948 C955 0.950 . S
C949 C947 1.387 . S
C949 C951 1.390 . S
C949 H953 0.950 . S
H950 C946 0.950 . S
C951 C949 1.390 . S
C951 C952 1.387 . S
C951 H954 0.950 . S
C952 C951 1.387 . S
C952 C955 1.387 . S
H953 C949 0.950 . S
H954 C951 0.950 . S
C955 C946 1.390 . S
C955 H948 0.950 . S
C955 C952 1.387 . S
C956 C957 1.387 . S
C956 H960 0.950 . S
C956 C965 1.390 . S
C957 C956 1.387 . S
C957 C959 1.387 . S
H958 C965 0.950 . S
C959 C957 1.387 . S
C959 C961 1.390 . S
C959 H963 0.950 . S
H960 C956 0.950 . S
C961 C959 1.390 . S
C961 C962 1.387 . S
C961 H964 0.950 . S
C962 C961 1.387 . S
C962 C965 1.387 . S
H963 C959 0.950 . S
H964 C961 0.950 . S
C965 C956 1.390 . S
C965 H958 0.950 . S
C965 C962 1.387 . S
C966 C967 1.387 . S
C966 H970 0.950 . S
C966 C975 1.390 . S
C967 C966 1.387 . S
C967 C969 1.387 . S
H968 C975 0.950 . S
C969 C967 1.387 . S
C969 C971 1.390 . S
C969 H973 0.950 . S
H970 C966 0.950 . S
C971 C969 1.390 . S
C971 C972 1.387 . S
C971 H974 0.950 1_556 S
C972 C971 1.387 . S
C972 C975 1.387 . S
H973 C969 0.950 . S
H974 C971 0.950 1_554 S
C975 C966 1.390 . S
C975 H968 0.950 . S
C975 C972 1.387 . S
C976 C977 1.387 . S
C976 H980 0.950 1_556 S
C976 C985 1.390 . S
C977 C976 1.387 . S
C977 C979 1.387 . S
H978 C985 0.950 . S
C979 C977 1.387 . S
C979 C981 1.390 . S
C979 H983 0.950 . S
H980 C976 0.950 1_554 S
C981 C979 1.390 . S
C981 C982 1.387 . S
C981 H984 0.950 . S
C982 C981 1.387 . S
C982 C985 1.387 . S
H983 C979 0.950 . S
H984 C981 0.950 . S
C985 C976 1.390 . S
C985 H978 0.950 . S
C985 C982 1.387 . S
C986 C987 1.387 . S
C986 H990 0.950 . S
C986 C995 1.390 . S
C987 C986 1.387 . S
C987 C989 1.387 . S
H988 C995 0.950 . S
C989 C987 1.387 . S
C989 C991 1.390 . S
C989 H993 0.950 . S
H990 C986 0.950 . S
C991 C989 1.390 . S
C991 C992 1.387 . S
C991 H994 0.950 . S
C992 C991 1.387 . S
C992 C995 1.387 . S
H993 C989 0.950 . S
H994 C991 0.950 . S
C995 C986 1.390 . S
C995 H988 0.950 . S
C995 C992 1.387 . S
C996 C997 1.387 . S
C996 H1000 0.950 . S
C996 C1005 1.390 . S
C997 C996 1.387 . S
C997 C999 1.387 . S
H998 C1005 0.950 . S
C999 C997 1.387 . S
C999 C1001 1.390 . S
C999 H1003 0.950 . S
H1000 C996 0.950 . S
C1001 C999 1.390 . S
C1001 C1002 1.387 . S
C1001 H1004 0.950 . S
C1002 C1001 1.387 . S
C1002 C1005 1.387 . S
H1003 C999 0.950 . S
H1004 C1001 0.950 . S
C1005 C996 1.390 . S
C1005 H998 0.950 . S
C1005 C1002 1.387 . S
C1006 C1007 1.387 . S
C1006 H1010 0.950 . S
C1006 C1015 1.390 . S
C1007 C1006 1.387 . S
C1007 C1009 1.387 . S
H1008 C1015 0.950 . S
C1009 C1007 1.387 . S
C1009 C1011 1.390 . S
C1009 H1013 0.950 . S
H1010 C1006 0.950 . S
C1011 C1009 1.390 . S
C1011 C1012 1.387 . S
C1011 H1014 0.950 . S
C1012 C1011 1.387 . S
C1012 C1015 1.387 . S
H1013 C1009 0.950 . S
H1014 C1011 0.950 . S
C1015 C1006 1.390 . S
C1015 H1008 0.950 . S
C1015 C1012 1.387 . S
C1016 C1017 1.387 . S
C1016 H1020 0.950 . S
C1016 C1025 1.390 . S
C1017 C1016 1.387 . S
C1017 C1019 1.387 . S
H1018 C1025 0.950 . S
C1019 C1017 1.387 . S
C1019 C1021 1.390 . S
C1019 H1023 0.950 . S
H1020 C1016 0.950 . S
C1021 C1019 1.390 . S
C1021 C1022 1.387 . S
C1021 H1024 0.950 . S
C1022 C1021 1.387 . S
C1022 C1025 1.387 . S
H1023 C1019 0.950 . S
H1024 C1021 0.950 . S
C1025 C1016 1.390 . S
C1025 H1018 0.950 . S
C1025 C1022 1.387 . S
C1026 C1027 1.387 . S
C1026 H1030 0.950 1_556 S
C1026 C1035 1.390 . S
C1027 C1026 1.387 . S
C1027 C1029 1.387 . S
H1028 C1035 0.950 . S
C1029 C1027 1.387 . S
C1029 C1031 1.390 . S
C1029 H1033 0.950 . S
H1030 C1026 0.950 1_554 S
C1031 C1029 1.390 . S
C1031 C1032 1.387 . S
C1031 H1034 0.950 . S
C1032 C1031 1.387 . S
C1032 C1035 1.387 . S
H1033 C1029 0.950 . S
H1034 C1031 0.950 . S
C1035 C1026 1.390 . S
C1035 H1028 0.950 . S
C1035 C1032 1.387 . S
C1036 C1037 1.387 . S
C1036 H1040 0.950 . S
C1036 C1045 1.390 . S
C1037 C1036 1.387 . S
C1037 C1039 1.387 . S
H1038 C1045 0.950 . S
C1039 C1037 1.387 . S
C1039 C1041 1.390 . S
C1039 H1043 0.950 . S
H1040 C1036 0.950 . S
C1041 C1039 1.390 . S
C1041 C1042 1.387 . S
C1041 H1044 0.950 . S
C1042 C1041 1.387 . S
C1042 C1045 1.387 . S
H1043 C1039 0.950 . S
H1044 C1041 0.950 . S
C1045 C1036 1.390 . S
C1045 H1038 0.950 . S
C1045 C1042 1.387 . S
C1046 C1047 1.387 . S
C1046 H1050 0.950 . S
C1046 C1055 1.390 . S
C1047 C1046 1.387 . S
C1047 C1049 1.387 . S
H1048 C1055 0.950 . S
C1049 C1047 1.387 . S
C1049 C1051 1.390 . S
C1049 H1053 0.950 . S
H1050 C1046 0.950 . S
C1051 C1049 1.390 . S
C1051 C1052 1.387 . S
C1051 H1054 0.950 . S
C1052 C1051 1.387 . S
C1052 C1055 1.387 . S
H1053 C1049 0.950 . S
H1054 C1051 0.950 . S
C1055 C1046 1.390 . S
C1055 H1048 0.950 . S
C1055 C1052 1.387 . S
C417 C81 1.543 . S
C422 C3 1.543 . S
C427 C16 1.543 . S
C432 C94 1.543 . S
C437 C57 1.544 . S
C442 C29 1.544 . S
C447 C42 1.544 . S
C452 C70 1.544 . S
C457 C107 1.544 . S
C462 C187 1.544 . S
C467 C200 1.544 . S
C472 C122 1.544 . S
C477 C133 1.544 . S
C482 C161 1.544 . S
C487 C172 1.543 . S
C492 C146 1.543 . S
C497 C211 1.543 . S
C502 C291 1.543 . S
C507 C226 1.544 . S
C512 C304 1.544 . S
C517 C265 1.543 . S
C522 C239 1.543 . S
C527 C276 1.544 . S
C532 C250 1.544 . S
C537 C315 1.544 . S
C542 C395 1.544 . S
C547 C328 1.543 . S
C552 C408 1.543 . S
C557 C367 1.544 . S
C562 C341 1.544 . S
C567 C354 1.543 . S
C572 C380 1.543 . S
C577 C10 1.574 1_556 S
C582 C101 1.579 . S
C587 C56 1.573 1_554 S
C592 C23 1.578 . S
C597 C69 1.578 . S
C602 C36 1.579 . S
C607 C49 1.578 . S
C612 C88 1.579 . S
C617 C114 1.574 1_554 S
C622 C199 1.580 . S
C627 C160 1.573 1_556 S
C632 C121 1.578 . S
C637 C179 1.578 . S
C642 C140 1.578 . S
C647 C186 1.578 . S
C652 C153 1.578 . S
C657 C218 1.578 . S
C662 C303 1.578 . S
C667 C225 1.579 . S
C672 C264 1.579 . S
C677 C283 1.578 . S
C682 C238 1.573 1_556 S
C687 C257 1.579 . S
C692 C290 1.574 1_554 S
C697 C322 1.578 . S
C702 C407 1.578 . S
C707 C374 1.580 . S
C712 C335 1.580 . S
C717 C348 1.574 1_554 S
C722 C387 1.579 . S
C727 C361 1.579 . S
C732 C394 1.574 1_556 S
C737 C393 1.552 . S
C742 C5 1.552 . S
C747 C198 1.552 . S
C752 C18 1.552 . S
C757 C31 1.552 . S
C762 C369 1.552 . S
C767 C44 1.552 . S
C772 C174 1.551 . S
C777 C55 1.551 . S
C782 C343 1.552 . S
C787 C68 1.551 . S
C792 C148 1.552 . S
C797 C83 1.552 . S
C802 C317 1.552 . S
C807 C120 1.552 . S
C812 C96 1.552 . S
C817 C289 1.552 . S
C822 C109 1.552 . S
C827 C135 1.551 . S
C832 C263 1.552 . S
C837 C237 1.552 . S
C842 C159 1.551 . S
C847 C213 1.552 . S
C852 C185 1.552 . S
C857 C224 1.552 . S
C862 C406 1.551 . S
C867 C252 1.552 . S
C872 C382 1.551 . S
C877 C278 1.551 . S
C882 C356 1.552 . S
C887 C330 1.552 . S
C892 C302 1.552 . S
C897 C4 1.468 . S
C902 C95 1.467 . S
C907 C17 1.468 . S
C912 C62 1.468 . S
C917 C75 1.468 1_556 S
C922 C30 1.468 . S
C927 C43 1.468 1_554 S
C932 C82 1.467 . S
C937 C205 1.467 . S
C942 C108 1.467 . S
C947 C166 1.468 . S
C952 C127 1.467 . S
C957 C134 1.467 . S
C962 C173 1.467 1_554 S
C967 C192 1.468 . S
C972 C147 1.467 1_556 S
C977 C309 1.468 1_556 S
C982 C212 1.468 . S
C987 C270 1.468 . S
C992 C231 1.468 1_554 S
C997 C277 1.468 . S
C1002 C244 1.468 . S
C1007 C296 1.467 . S
C1012 C251 1.468 . S
C1017 C316 1.468 . S
C1022 C413 1.467 1_554 S
C1027 C329 1.468 1_556 S
C1032 C368 1.468 . S
C1037 C342 1.467 . S
C1042 C381 1.468 . S
C1047 C400 1.468 . S
C1052 C355 1.467 . S
