# Generated by pormake.
# Topology ukx, (4)-cn, num edge types: 1
# Building blocks:
#     Node 0, Type 0, BuildingBlock: GALJAG_clean_sbu_0, # of connection points: 4
#     Node 1, Type 0, BuildingBlock: GALJAG_clean_sbu_0, # of connection points: 4
#     Node 2, Type 0, BuildingBlock: GALJAG_clean_sbu_0, # of connection points: 4
#     Node 3, Type 0, BuildingBlock: GALJAG_clean_sbu_0, # of connection points: 4
#     Node 4, Type 0, BuildingBlock: GALJAG_clean_sbu_0, # of connection points: 4
#     Node 5, Type 0, BuildingBlock: GALJAG_clean_sbu_0, # of connection points: 4
#     Node 6, Type 0, BuildingBlock: GALJAG_clean_sbu_0, # of connection points: 4
#     Node 7, Type 0, BuildingBlock: GALJAG_clean_sbu_0, # of connection points: 4
#     Node 8, Type 0, BuildingBlock: GALJAG_clean_sbu_0, # of connection points: 4
#     Node 9, Type 0, BuildingBlock: GALJAG_clean_sbu_0, # of connection points: 4
#     Node 10, Type 0, BuildingBlock: GALJAG_clean_sbu_0, # of connection points: 4
#     Node 11, Type 0, BuildingBlock: GALJAG_clean_sbu_0, # of connection points: 4
#     Node 12, Type 0, BuildingBlock: GALJAG_clean_sbu_0, # of connection points: 4
#     Node 13, Type 0, BuildingBlock: GALJAG_clean_sbu_0, # of connection points: 4
#     Node 14, Type 0, BuildingBlock: GALJAG_clean_sbu_0, # of connection points: 4
#     Node 15, Type 0, BuildingBlock: GALJAG_clean_sbu_0, # of connection points: 4
#     Node 16, Type 0, BuildingBlock: GALJAG_clean_sbu_0, # of connection points: 4
#     Node 17, Type 0, BuildingBlock: GALJAG_clean_sbu_0, # of connection points: 4
#     Node 18, Type 0, BuildingBlock: GALJAG_clean_sbu_0, # of connection points: 4
#     Node 19, Type 0, BuildingBlock: GALJAG_clean_sbu_0, # of connection points: 4
#     Node 20, Type 0, BuildingBlock: GALJAG_clean_sbu_0, # of connection points: 4
#     Node 21, Type 0, BuildingBlock: GALJAG_clean_sbu_0, # of connection points: 4
#     Node 22, Type 0, BuildingBlock: GALJAG_clean_sbu_0, # of connection points: 4
#     Node 23, Type 0, BuildingBlock: GALJAG_clean_sbu_0, # of connection points: 4
#     Node 24, Type 0, BuildingBlock: GALJAG_clean_sbu_0, # of connection points: 4
#     Node 25, Type 0, BuildingBlock: GALJAG_clean_sbu_0, # of connection points: 4
#     Node 26, Type 0, BuildingBlock: GALJAG_clean_sbu_0, # of connection points: 4
#     Node 27, Type 0, BuildingBlock: GALJAG_clean_sbu_0, # of connection points: 4
#     Node 28, Type 0, BuildingBlock: GALJAG_clean_sbu_0, # of connection points: 4
#     Node 29, Type 0, BuildingBlock: GALJAG_clean_sbu_0, # of connection points: 4
#     Node 30, Type 0, BuildingBlock: GALJAG_clean_sbu_0, # of connection points: 4
#     Node 31, Type 0, BuildingBlock: GALJAG_clean_sbu_0, # of connection points: 4
#     Node 32, Type 0, BuildingBlock: GALJAG_clean_sbu_0, # of connection points: 4
#     Node 33, Type 0, BuildingBlock: GALJAG_clean_sbu_0, # of connection points: 4
#     Node 34, Type 0, BuildingBlock: GALJAG_clean_sbu_0, # of connection points: 4
#     Node 35, Type 0, BuildingBlock: GALJAG_clean_sbu_0, # of connection points: 4
#     Node 36, Type 0, BuildingBlock: GALJAG_clean_sbu_0, # of connection points: 4
#     Node 37, Type 0, BuildingBlock: GALJAG_clean_sbu_0, # of connection points: 4
#     Node 38, Type 0, BuildingBlock: GALJAG_clean_sbu_0, # of connection points: 4
#     Node 39, Type 0, BuildingBlock: GALJAG_clean_sbu_0, # of connection points: 4
#     Node 40, Type 0, BuildingBlock: GALJAG_clean_sbu_0, # of connection points: 4
#     Node 41, Type 0, BuildingBlock: GALJAG_clean_sbu_0, # of connection points: 4
#     Node 42, Type 0, BuildingBlock: GALJAG_clean_sbu_0, # of connection points: 4
#     Node 43, Type 0, BuildingBlock: GALJAG_clean_sbu_0, # of connection points: 4
#     Node 44, Type 0, BuildingBlock: GALJAG_clean_sbu_0, # of connection points: 4
#     Node 45, Type 0, BuildingBlock: GALJAG_clean_sbu_0, # of connection points: 4
#     Node 46, Type 0, BuildingBlock: GALJAG_clean_sbu_0, # of connection points: 4
#     Node 47, Type 0, BuildingBlock: GALJAG_clean_sbu_0, # of connection points: 4
#     Node 48, Type 0, BuildingBlock: GALJAG_clean_sbu_0, # of connection points: 4
#     Node 49, Type 0, BuildingBlock: GALJAG_clean_sbu_0, # of connection points: 4
#     Node 50, Type 0, BuildingBlock: GALJAG_clean_sbu_0, # of connection points: 4
#     Node 51, Type 0, BuildingBlock: GALJAG_clean_sbu_0, # of connection points: 4
#     Node 52, Type 0, BuildingBlock: GALJAG_clean_sbu_0, # of connection points: 4
#     Node 53, Type 0, BuildingBlock: GALJAG_clean_sbu_0, # of connection points: 4
#     Node 54, Type 0, BuildingBlock: GALJAG_clean_sbu_0, # of connection points: 4
#     Node 55, Type 0, BuildingBlock: GALJAG_clean_sbu_0, # of connection points: 4
#     Node 56, Type 0, BuildingBlock: GALJAG_clean_sbu_0, # of connection points: 4
#     Node 57, Type 0, BuildingBlock: GALJAG_clean_sbu_0, # of connection points: 4
#     Node 58, Type 0, BuildingBlock: GALJAG_clean_sbu_0, # of connection points: 4
#     Node 59, Type 0, BuildingBlock: GALJAG_clean_sbu_0, # of connection points: 4
#     Node 60, Type 0, BuildingBlock: GALJAG_clean_sbu_0, # of connection points: 4
#     Node 61, Type 0, BuildingBlock: GALJAG_clean_sbu_0, # of connection points: 4
#     Node 62, Type 0, BuildingBlock: GALJAG_clean_sbu_0, # of connection points: 4
#     Node 63, Type 0, BuildingBlock: GALJAG_clean_sbu_0, # of connection points: 4
#     Node 64, Type 0, BuildingBlock: GALJAG_clean_sbu_0, # of connection points: 4
#     Node 65, Type 0, BuildingBlock: GALJAG_clean_sbu_0, # of connection points: 4
#     Node 66, Type 0, BuildingBlock: GALJAG_clean_sbu_0, # of connection points: 4
#     Node 67, Type 0, BuildingBlock: GALJAG_clean_sbu_0, # of connection points: 4
#     Node 68, Type 0, BuildingBlock: GALJAG_clean_sbu_0, # of connection points: 4
#     Node 69, Type 0, BuildingBlock: GALJAG_clean_sbu_0, # of connection points: 4
#     Node 70, Type 0, BuildingBlock: GALJAG_clean_sbu_0, # of connection points: 4
#     Node 71, Type 0, BuildingBlock: GALJAG_clean_sbu_0, # of connection points: 4
#     Node 72, Type 0, BuildingBlock: GALJAG_clean_sbu_0, # of connection points: 4
#     Node 73, Type 0, BuildingBlock: GALJAG_clean_sbu_0, # of connection points: 4
#     Node 74, Type 0, BuildingBlock: GALJAG_clean_sbu_0, # of connection points: 4
#     Node 75, Type 0, BuildingBlock: GALJAG_clean_sbu_0, # of connection points: 4
#     Node 76, Type 0, BuildingBlock: GALJAG_clean_sbu_0, # of connection points: 4
#     Node 77, Type 0, BuildingBlock: GALJAG_clean_sbu_0, # of connection points: 4
#     Node 78, Type 0, BuildingBlock: GALJAG_clean_sbu_0, # of connection points: 4
#     Node 79, Type 0, BuildingBlock: GALJAG_clean_sbu_0, # of connection points: 4
#     Node 80, Type 0, BuildingBlock: GALJAG_clean_sbu_0, # of connection points: 4
#     Node 81, Type 0, BuildingBlock: GALJAG_clean_sbu_0, # of connection points: 4
#     Node 82, Type 0, BuildingBlock: GALJAG_clean_sbu_0, # of connection points: 4
#     Node 83, Type 0, BuildingBlock: GALJAG_clean_sbu_0, # of connection points: 4
#     Node 84, Type 0, BuildingBlock: GALJAG_clean_sbu_0, # of connection points: 4
#     Node 85, Type 0, BuildingBlock: GALJAG_clean_sbu_0, # of connection points: 4
#     Node 86, Type 0, BuildingBlock: GALJAG_clean_sbu_0, # of connection points: 4
#     Node 87, Type 0, BuildingBlock: GALJAG_clean_sbu_0, # of connection points: 4
#     Node 88, Type 0, BuildingBlock: GALJAG_clean_sbu_0, # of connection points: 4
#     Node 89, Type 0, BuildingBlock: GALJAG_clean_sbu_0, # of connection points: 4
#     Node 90, Type 0, BuildingBlock: GALJAG_clean_sbu_0, # of connection points: 4
#     Node 91, Type 0, BuildingBlock: GALJAG_clean_sbu_0, # of connection points: 4
#     Node 92, Type 0, BuildingBlock: GALJAG_clean_sbu_0, # of connection points: 4
#     Node 93, Type 0, BuildingBlock: GALJAG_clean_sbu_0, # of connection points: 4
#     Node 94, Type 0, BuildingBlock: GALJAG_clean_sbu_0, # of connection points: 4
#     Node 95, Type 0, BuildingBlock: GALJAG_clean_sbu_0, # of connection points: 4
#     Edge 96, Type (0, 0), BuildingBlock: KIFKEQ_clean_linker_1, # of connection points: 2
#     Edge 97, Type (0, 0), BuildingBlock: KIFKEQ_clean_linker_1, # of connection points: 2
#     Edge 98, Type (0, 0), BuildingBlock: KIFKEQ_clean_linker_1, # of connection points: 2
#     Edge 99, Type (0, 0), BuildingBlock: KIFKEQ_clean_linker_1, # of connection points: 2
#     Edge 100, Type (0, 0), BuildingBlock: KIFKEQ_clean_linker_1, # of connection points: 2
#     Edge 101, Type (0, 0), BuildingBlock: KIFKEQ_clean_linker_1, # of connection points: 2
#     Edge 102, Type (0, 0), BuildingBlock: KIFKEQ_clean_linker_1, # of connection points: 2
#     Edge 103, Type (0, 0), BuildingBlock: KIFKEQ_clean_linker_1, # of connection points: 2
#     Edge 104, Type (0, 0), BuildingBlock: KIFKEQ_clean_linker_1, # of connection points: 2
#     Edge 105, Type (0, 0), BuildingBlock: KIFKEQ_clean_linker_1, # of connection points: 2
#     Edge 106, Type (0, 0), BuildingBlock: KIFKEQ_clean_linker_1, # of connection points: 2
#     Edge 107, Type (0, 0), BuildingBlock: KIFKEQ_clean_linker_1, # of connection points: 2
#     Edge 108, Type (0, 0), BuildingBlock: KIFKEQ_clean_linker_1, # of connection points: 2
#     Edge 109, Type (0, 0), BuildingBlock: KIFKEQ_clean_linker_1, # of connection points: 2
#     Edge 110, Type (0, 0), BuildingBlock: KIFKEQ_clean_linker_1, # of connection points: 2
#     Edge 111, Type (0, 0), BuildingBlock: KIFKEQ_clean_linker_1, # of connection points: 2
#     Edge 112, Type (0, 0), BuildingBlock: KIFKEQ_clean_linker_1, # of connection points: 2
#     Edge 113, Type (0, 0), BuildingBlock: KIFKEQ_clean_linker_1, # of connection points: 2
#     Edge 114, Type (0, 0), BuildingBlock: KIFKEQ_clean_linker_1, # of connection points: 2
#     Edge 115, Type (0, 0), BuildingBlock: KIFKEQ_clean_linker_1, # of connection points: 2
#     Edge 116, Type (0, 0), BuildingBlock: KIFKEQ_clean_linker_1, # of connection points: 2
#     Edge 117, Type (0, 0), BuildingBlock: KIFKEQ_clean_linker_1, # of connection points: 2
#     Edge 118, Type (0, 0), BuildingBlock: KIFKEQ_clean_linker_1, # of connection points: 2
#     Edge 119, Type (0, 0), BuildingBlock: KIFKEQ_clean_linker_1, # of connection points: 2
#     Edge 120, Type (0, 0), BuildingBlock: KIFKEQ_clean_linker_1, # of connection points: 2
#     Edge 121, Type (0, 0), BuildingBlock: KIFKEQ_clean_linker_1, # of connection points: 2
#     Edge 122, Type (0, 0), BuildingBlock: KIFKEQ_clean_linker_1, # of connection points: 2
#     Edge 123, Type (0, 0), BuildingBlock: KIFKEQ_clean_linker_1, # of connection points: 2
#     Edge 124, Type (0, 0), BuildingBlock: KIFKEQ_clean_linker_1, # of connection points: 2
#     Edge 125, Type (0, 0), BuildingBlock: KIFKEQ_clean_linker_1, # of connection points: 2
#     Edge 126, Type (0, 0), BuildingBlock: KIFKEQ_clean_linker_1, # of connection points: 2
#     Edge 127, Type (0, 0), BuildingBlock: KIFKEQ_clean_linker_1, # of connection points: 2
#     Edge 128, Type (0, 0), BuildingBlock: KIFKEQ_clean_linker_1, # of connection points: 2
#     Edge 129, Type (0, 0), BuildingBlock: KIFKEQ_clean_linker_1, # of connection points: 2
#     Edge 130, Type (0, 0), BuildingBlock: KIFKEQ_clean_linker_1, # of connection points: 2
#     Edge 131, Type (0, 0), BuildingBlock: KIFKEQ_clean_linker_1, # of connection points: 2
#     Edge 132, Type (0, 0), BuildingBlock: KIFKEQ_clean_linker_1, # of connection points: 2
#     Edge 133, Type (0, 0), BuildingBlock: KIFKEQ_clean_linker_1, # of connection points: 2
#     Edge 134, Type (0, 0), BuildingBlock: KIFKEQ_clean_linker_1, # of connection points: 2
#     Edge 135, Type (0, 0), BuildingBlock: KIFKEQ_clean_linker_1, # of connection points: 2
#     Edge 136, Type (0, 0), BuildingBlock: KIFKEQ_clean_linker_1, # of connection points: 2
#     Edge 137, Type (0, 0), BuildingBlock: KIFKEQ_clean_linker_1, # of connection points: 2
#     Edge 138, Type (0, 0), BuildingBlock: KIFKEQ_clean_linker_1, # of connection points: 2
#     Edge 139, Type (0, 0), BuildingBlock: KIFKEQ_clean_linker_1, # of connection points: 2
#     Edge 140, Type (0, 0), BuildingBlock: KIFKEQ_clean_linker_1, # of connection points: 2
#     Edge 141, Type (0, 0), BuildingBlock: KIFKEQ_clean_linker_1, # of connection points: 2
#     Edge 142, Type (0, 0), BuildingBlock: KIFKEQ_clean_linker_1, # of connection points: 2
#     Edge 143, Type (0, 0), BuildingBlock: KIFKEQ_clean_linker_1, # of connection points: 2
#     Edge 144, Type (0, 0), BuildingBlock: KIFKEQ_clean_linker_1, # of connection points: 2
#     Edge 145, Type (0, 0), BuildingBlock: KIFKEQ_clean_linker_1, # of connection points: 2
#     Edge 146, Type (0, 0), BuildingBlock: KIFKEQ_clean_linker_1, # of connection points: 2
#     Edge 147, Type (0, 0), BuildingBlock: KIFKEQ_clean_linker_1, # of connection points: 2
#     Edge 148, Type (0, 0), BuildingBlock: KIFKEQ_clean_linker_1, # of connection points: 2
#     Edge 149, Type (0, 0), BuildingBlock: KIFKEQ_clean_linker_1, # of connection points: 2
#     Edge 150, Type (0, 0), BuildingBlock: KIFKEQ_clean_linker_1, # of connection points: 2
#     Edge 151, Type (0, 0), BuildingBlock: KIFKEQ_clean_linker_1, # of connection points: 2
#     Edge 152, Type (0, 0), BuildingBlock: KIFKEQ_clean_linker_1, # of connection points: 2
#     Edge 153, Type (0, 0), BuildingBlock: KIFKEQ_clean_linker_1, # of connection points: 2
#     Edge 154, Type (0, 0), BuildingBlock: KIFKEQ_clean_linker_1, # of connection points: 2
#     Edge 155, Type (0, 0), BuildingBlock: KIFKEQ_clean_linker_1, # of connection points: 2
#     Edge 156, Type (0, 0), BuildingBlock: KIFKEQ_clean_linker_1, # of connection points: 2
#     Edge 157, Type (0, 0), BuildingBlock: KIFKEQ_clean_linker_1, # of connection points: 2
#     Edge 158, Type (0, 0), BuildingBlock: KIFKEQ_clean_linker_1, # of connection points: 2
#     Edge 159, Type (0, 0), BuildingBlock: KIFKEQ_clean_linker_1, # of connection points: 2
#     Edge 160, Type (0, 0), BuildingBlock: KIFKEQ_clean_linker_1, # of connection points: 2
#     Edge 161, Type (0, 0), BuildingBlock: KIFKEQ_clean_linker_1, # of connection points: 2
#     Edge 162, Type (0, 0), BuildingBlock: KIFKEQ_clean_linker_1, # of connection points: 2
#     Edge 163, Type (0, 0), BuildingBlock: KIFKEQ_clean_linker_1, # of connection points: 2
#     Edge 164, Type (0, 0), BuildingBlock: KIFKEQ_clean_linker_1, # of connection points: 2
#     Edge 165, Type (0, 0), BuildingBlock: KIFKEQ_clean_linker_1, # of connection points: 2
#     Edge 166, Type (0, 0), BuildingBlock: KIFKEQ_clean_linker_1, # of connection points: 2
#     Edge 167, Type (0, 0), BuildingBlock: KIFKEQ_clean_linker_1, # of connection points: 2
#     Edge 168, Type (0, 0), BuildingBlock: KIFKEQ_clean_linker_1, # of connection points: 2
#     Edge 169, Type (0, 0), BuildingBlock: KIFKEQ_clean_linker_1, # of connection points: 2
#     Edge 170, Type (0, 0), BuildingBlock: KIFKEQ_clean_linker_1, # of connection points: 2
#     Edge 171, Type (0, 0), BuildingBlock: KIFKEQ_clean_linker_1, # of connection points: 2
#     Edge 172, Type (0, 0), BuildingBlock: KIFKEQ_clean_linker_1, # of connection points: 2
#     Edge 173, Type (0, 0), BuildingBlock: KIFKEQ_clean_linker_1, # of connection points: 2
#     Edge 174, Type (0, 0), BuildingBlock: KIFKEQ_clean_linker_1, # of connection points: 2
#     Edge 175, Type (0, 0), BuildingBlock: KIFKEQ_clean_linker_1, # of connection points: 2
#     Edge 176, Type (0, 0), BuildingBlock: KIFKEQ_clean_linker_1, # of connection points: 2
#     Edge 177, Type (0, 0), BuildingBlock: KIFKEQ_clean_linker_1, # of connection points: 2
#     Edge 178, Type (0, 0), BuildingBlock: KIFKEQ_clean_linker_1, # of connection points: 2
#     Edge 179, Type (0, 0), BuildingBlock: KIFKEQ_clean_linker_1, # of connection points: 2
#     Edge 180, Type (0, 0), BuildingBlock: KIFKEQ_clean_linker_1, # of connection points: 2
#     Edge 181, Type (0, 0), BuildingBlock: KIFKEQ_clean_linker_1, # of connection points: 2
#     Edge 182, Type (0, 0), BuildingBlock: KIFKEQ_clean_linker_1, # of connection points: 2
#     Edge 183, Type (0, 0), BuildingBlock: KIFKEQ_clean_linker_1, # of connection points: 2
#     Edge 184, Type (0, 0), BuildingBlock: KIFKEQ_clean_linker_1, # of connection points: 2
#     Edge 185, Type (0, 0), BuildingBlock: KIFKEQ_clean_linker_1, # of connection points: 2
#     Edge 186, Type (0, 0), BuildingBlock: KIFKEQ_clean_linker_1, # of connection points: 2
#     Edge 187, Type (0, 0), BuildingBlock: KIFKEQ_clean_linker_1, # of connection points: 2
#     Edge 188, Type (0, 0), BuildingBlock: KIFKEQ_clean_linker_1, # of connection points: 2
#     Edge 189, Type (0, 0), BuildingBlock: KIFKEQ_clean_linker_1, # of connection points: 2
#     Edge 190, Type (0, 0), BuildingBlock: KIFKEQ_clean_linker_1, # of connection points: 2
#     Edge 191, Type (0, 0), BuildingBlock: KIFKEQ_clean_linker_1, # of connection points: 2
#     Edge 192, Type (0, 0), BuildingBlock: KIFKEQ_clean_linker_1, # of connection points: 2
#     Edge 193, Type (0, 0), BuildingBlock: KIFKEQ_clean_linker_1, # of connection points: 2
#     Edge 194, Type (0, 0), BuildingBlock: KIFKEQ_clean_linker_1, # of connection points: 2
#     Edge 195, Type (0, 0), BuildingBlock: KIFKEQ_clean_linker_1, # of connection points: 2
#     Edge 196, Type (0, 0), BuildingBlock: KIFKEQ_clean_linker_1, # of connection points: 2
#     Edge 197, Type (0, 0), BuildingBlock: KIFKEQ_clean_linker_1, # of connection points: 2
#     Edge 198, Type (0, 0), BuildingBlock: KIFKEQ_clean_linker_1, # of connection points: 2
#     Edge 199, Type (0, 0), BuildingBlock: KIFKEQ_clean_linker_1, # of connection points: 2
#     Edge 200, Type (0, 0), BuildingBlock: KIFKEQ_clean_linker_1, # of connection points: 2
#     Edge 201, Type (0, 0), BuildingBlock: KIFKEQ_clean_linker_1, # of connection points: 2
#     Edge 202, Type (0, 0), BuildingBlock: KIFKEQ_clean_linker_1, # of connection points: 2
#     Edge 203, Type (0, 0), BuildingBlock: KIFKEQ_clean_linker_1, # of connection points: 2
#     Edge 204, Type (0, 0), BuildingBlock: KIFKEQ_clean_linker_1, # of connection points: 2
#     Edge 205, Type (0, 0), BuildingBlock: KIFKEQ_clean_linker_1, # of connection points: 2
#     Edge 206, Type (0, 0), BuildingBlock: KIFKEQ_clean_linker_1, # of connection points: 2
#     Edge 207, Type (0, 0), BuildingBlock: KIFKEQ_clean_linker_1, # of connection points: 2
#     Edge 208, Type (0, 0), BuildingBlock: KIFKEQ_clean_linker_1, # of connection points: 2
#     Edge 209, Type (0, 0), BuildingBlock: KIFKEQ_clean_linker_1, # of connection points: 2
#     Edge 210, Type (0, 0), BuildingBlock: KIFKEQ_clean_linker_1, # of connection points: 2
#     Edge 211, Type (0, 0), BuildingBlock: KIFKEQ_clean_linker_1, # of connection points: 2
#     Edge 212, Type (0, 0), BuildingBlock: KIFKEQ_clean_linker_1, # of connection points: 2
#     Edge 213, Type (0, 0), BuildingBlock: KIFKEQ_clean_linker_1, # of connection points: 2
#     Edge 214, Type (0, 0), BuildingBlock: KIFKEQ_clean_linker_1, # of connection points: 2
#     Edge 215, Type (0, 0), BuildingBlock: KIFKEQ_clean_linker_1, # of connection points: 2
#     Edge 216, Type (0, 0), BuildingBlock: KIFKEQ_clean_linker_1, # of connection points: 2
#     Edge 217, Type (0, 0), BuildingBlock: KIFKEQ_clean_linker_1, # of connection points: 2
#     Edge 218, Type (0, 0), BuildingBlock: KIFKEQ_clean_linker_1, # of connection points: 2
#     Edge 219, Type (0, 0), BuildingBlock: KIFKEQ_clean_linker_1, # of connection points: 2
#     Edge 220, Type (0, 0), BuildingBlock: KIFKEQ_clean_linker_1, # of connection points: 2
#     Edge 221, Type (0, 0), BuildingBlock: KIFKEQ_clean_linker_1, # of connection points: 2
#     Edge 222, Type (0, 0), BuildingBlock: KIFKEQ_clean_linker_1, # of connection points: 2
#     Edge 223, Type (0, 0), BuildingBlock: KIFKEQ_clean_linker_1, # of connection points: 2
#     Edge 224, Type (0, 0), BuildingBlock: KIFKEQ_clean_linker_1, # of connection points: 2
#     Edge 225, Type (0, 0), BuildingBlock: KIFKEQ_clean_linker_1, # of connection points: 2
#     Edge 226, Type (0, 0), BuildingBlock: KIFKEQ_clean_linker_1, # of connection points: 2
#     Edge 227, Type (0, 0), BuildingBlock: KIFKEQ_clean_linker_1, # of connection points: 2
#     Edge 228, Type (0, 0), BuildingBlock: KIFKEQ_clean_linker_1, # of connection points: 2
#     Edge 229, Type (0, 0), BuildingBlock: KIFKEQ_clean_linker_1, # of connection points: 2
#     Edge 230, Type (0, 0), BuildingBlock: KIFKEQ_clean_linker_1, # of connection points: 2
#     Edge 231, Type (0, 0), BuildingBlock: KIFKEQ_clean_linker_1, # of connection points: 2
#     Edge 232, Type (0, 0), BuildingBlock: KIFKEQ_clean_linker_1, # of connection points: 2
#     Edge 233, Type (0, 0), BuildingBlock: KIFKEQ_clean_linker_1, # of connection points: 2
#     Edge 234, Type (0, 0), BuildingBlock: KIFKEQ_clean_linker_1, # of connection points: 2
#     Edge 235, Type (0, 0), BuildingBlock: KIFKEQ_clean_linker_1, # of connection points: 2
#     Edge 236, Type (0, 0), BuildingBlock: KIFKEQ_clean_linker_1, # of connection points: 2
#     Edge 237, Type (0, 0), BuildingBlock: KIFKEQ_clean_linker_1, # of connection points: 2
#     Edge 238, Type (0, 0), BuildingBlock: KIFKEQ_clean_linker_1, # of connection points: 2
#     Edge 239, Type (0, 0), BuildingBlock: KIFKEQ_clean_linker_1, # of connection points: 2
#     Edge 240, Type (0, 0), BuildingBlock: KIFKEQ_clean_linker_1, # of connection points: 2
#     Edge 241, Type (0, 0), BuildingBlock: KIFKEQ_clean_linker_1, # of connection points: 2
#     Edge 242, Type (0, 0), BuildingBlock: KIFKEQ_clean_linker_1, # of connection points: 2
#     Edge 243, Type (0, 0), BuildingBlock: KIFKEQ_clean_linker_1, # of connection points: 2
#     Edge 244, Type (0, 0), BuildingBlock: KIFKEQ_clean_linker_1, # of connection points: 2
#     Edge 245, Type (0, 0), BuildingBlock: KIFKEQ_clean_linker_1, # of connection points: 2
#     Edge 246, Type (0, 0), BuildingBlock: KIFKEQ_clean_linker_1, # of connection points: 2
#     Edge 247, Type (0, 0), BuildingBlock: KIFKEQ_clean_linker_1, # of connection points: 2
#     Edge 248, Type (0, 0), BuildingBlock: KIFKEQ_clean_linker_1, # of connection points: 2
#     Edge 249, Type (0, 0), BuildingBlock: KIFKEQ_clean_linker_1, # of connection points: 2
#     Edge 250, Type (0, 0), BuildingBlock: KIFKEQ_clean_linker_1, # of connection points: 2
#     Edge 251, Type (0, 0), BuildingBlock: KIFKEQ_clean_linker_1, # of connection points: 2
#     Edge 252, Type (0, 0), BuildingBlock: KIFKEQ_clean_linker_1, # of connection points: 2
#     Edge 253, Type (0, 0), BuildingBlock: KIFKEQ_clean_linker_1, # of connection points: 2
#     Edge 254, Type (0, 0), BuildingBlock: KIFKEQ_clean_linker_1, # of connection points: 2
#     Edge 255, Type (0, 0), BuildingBlock: KIFKEQ_clean_linker_1, # of connection points: 2
#     Edge 256, Type (0, 0), BuildingBlock: KIFKEQ_clean_linker_1, # of connection points: 2
#     Edge 257, Type (0, 0), BuildingBlock: KIFKEQ_clean_linker_1, # of connection points: 2
#     Edge 258, Type (0, 0), BuildingBlock: KIFKEQ_clean_linker_1, # of connection points: 2
#     Edge 259, Type (0, 0), BuildingBlock: KIFKEQ_clean_linker_1, # of connection points: 2
#     Edge 260, Type (0, 0), BuildingBlock: KIFKEQ_clean_linker_1, # of connection points: 2
#     Edge 261, Type (0, 0), BuildingBlock: KIFKEQ_clean_linker_1, # of connection points: 2
#     Edge 262, Type (0, 0), BuildingBlock: KIFKEQ_clean_linker_1, # of connection points: 2
#     Edge 263, Type (0, 0), BuildingBlock: KIFKEQ_clean_linker_1, # of connection points: 2
#     Edge 264, Type (0, 0), BuildingBlock: KIFKEQ_clean_linker_1, # of connection points: 2
#     Edge 265, Type (0, 0), BuildingBlock: KIFKEQ_clean_linker_1, # of connection points: 2
#     Edge 266, Type (0, 0), BuildingBlock: KIFKEQ_clean_linker_1, # of connection points: 2
#     Edge 267, Type (0, 0), BuildingBlock: KIFKEQ_clean_linker_1, # of connection points: 2
#     Edge 268, Type (0, 0), BuildingBlock: KIFKEQ_clean_linker_1, # of connection points: 2
#     Edge 269, Type (0, 0), BuildingBlock: KIFKEQ_clean_linker_1, # of connection points: 2
#     Edge 270, Type (0, 0), BuildingBlock: KIFKEQ_clean_linker_1, # of connection points: 2
#     Edge 271, Type (0, 0), BuildingBlock: KIFKEQ_clean_linker_1, # of connection points: 2
#     Edge 272, Type (0, 0), BuildingBlock: KIFKEQ_clean_linker_1, # of connection points: 2
#     Edge 273, Type (0, 0), BuildingBlock: KIFKEQ_clean_linker_1, # of connection points: 2
#     Edge 274, Type (0, 0), BuildingBlock: KIFKEQ_clean_linker_1, # of connection points: 2
#     Edge 275, Type (0, 0), BuildingBlock: KIFKEQ_clean_linker_1, # of connection points: 2
#     Edge 276, Type (0, 0), BuildingBlock: KIFKEQ_clean_linker_1, # of connection points: 2
#     Edge 277, Type (0, 0), BuildingBlock: KIFKEQ_clean_linker_1, # of connection points: 2
#     Edge 278, Type (0, 0), BuildingBlock: KIFKEQ_clean_linker_1, # of connection points: 2
#     Edge 279, Type (0, 0), BuildingBlock: KIFKEQ_clean_linker_1, # of connection points: 2
#     Edge 280, Type (0, 0), BuildingBlock: KIFKEQ_clean_linker_1, # of connection points: 2
#     Edge 281, Type (0, 0), BuildingBlock: KIFKEQ_clean_linker_1, # of connection points: 2
#     Edge 282, Type (0, 0), BuildingBlock: KIFKEQ_clean_linker_1, # of connection points: 2
#     Edge 283, Type (0, 0), BuildingBlock: KIFKEQ_clean_linker_1, # of connection points: 2
#     Edge 284, Type (0, 0), BuildingBlock: KIFKEQ_clean_linker_1, # of connection points: 2
#     Edge 285, Type (0, 0), BuildingBlock: KIFKEQ_clean_linker_1, # of connection points: 2
#     Edge 286, Type (0, 0), BuildingBlock: KIFKEQ_clean_linker_1, # of connection points: 2
#     Edge 287, Type (0, 0), BuildingBlock: KIFKEQ_clean_linker_1, # of connection points: 2
# Relax obj value: 0.225
# Max RMSD: 0.135
# Mean RMSD: 0.135
data_MOF--net-ukx--node1-GALJAG_clean_sbu_0--edge1-KIFKEQ_clean_linker_1
_symmetry_space_group_name_H-M    P1
_symmetry_Int_Tables_number       1
_symmetry_cell_setting            triclinic
loop_
_symmetry_equiv_pos_as_xyz
'x, y, z'
_cell_length_a     80.87415
_cell_length_b     80.892682
_cell_length_c     80.880445
_cell_angle_alpha  90.007268
_cell_angle_beta   89.98863
_cell_angle_gamma 89.984183
loop_
_atom_site_label
_atom_site_type_symbol
_atom_site_fract_x
_atom_site_fract_y
_atom_site_fract_z
_atom_type_partial_charge
In0 In 0.04702 0.14538 0.32912 0.0
O1 O 0.05961 0.12312 0.34066 0.0
O2 O 0.06985 0.13301 0.3185 0.0
C3 C 0.02165 0.14988 0.35022 0.0
C4 C 0.06561 0.1716 0.33766 0.0
C5 C 0.03101 0.13776 0.301 0.0
O6 O 0.02965 0.13649 0.34962 0.0
O7 O 0.02629 0.16076 0.34007 0.0
O8 O 0.03897 0.15112 0.30256 0.0
O9 O 0.03116 0.12854 0.31355 0.0
C10 C 0.0708 0.12228 0.3298 0.0
O11 O 0.05832 0.17085 0.32384 0.0
O12 O 0.06365 0.15913 0.3468 0.0
In13 In 0.10516 0.80093 0.57861 0.0
O14 O 0.07954 0.81261 0.57503 0.0
O15 O 0.09366 0.81908 0.59632 0.0
C16 C 0.11147 0.78389 0.55078 0.0
C17 C 0.12881 0.82406 0.57735 0.0
C18 C 0.0998 0.77655 0.60063 0.0
O19 O 0.09846 0.79243 0.5524 0.0
O20 O 0.12097 0.78398 0.56313 0.0
O21 O 0.11354 0.78392 0.5997 0.0
O22 O 0.08911 0.78123 0.5903 0.0
C23 C 0.08034 0.82076 0.58839 0.0
O24 O 0.12855 0.81293 0.58833 0.0
O25 O 0.11728 0.82327 0.56685 0.0
In26 In 0.45004 0.84946 0.82743 0.0
O27 O 0.4429 0.82299 0.81987 0.0
O28 O 0.43036 0.83418 0.84007 0.0
C29 C 0.46655 0.8621 0.80153 0.0
C30 C 0.42696 0.87307 0.82988 0.0
C31 C 0.4748 0.84242 0.84864 0.0
O32 O 0.45733 0.84954 0.80002 0.0
O33 O 0.46717 0.86812 0.8159 0.0
O34 O 0.46302 0.8519 0.85258 0.0
O35 O 0.47399 0.83664 0.8342 0.0
C36 C 0.4322 0.82154 0.83118 0.0
O37 O 0.43821 0.8712 0.84059 0.0
O38 O 0.42753 0.86311 0.81784 0.0
In39 In 0.39112 0.19965 0.07606 0.0
O40 O 0.41774 0.19018 0.07194 0.0
O41 O 0.40554 0.18463 0.09453 0.0
C42 C 0.38231 0.21274 0.04691 0.0
C43 C 0.36832 0.1757 0.07778 0.0
C44 C 0.39487 0.22702 0.0947 0.0
O45 O 0.39618 0.20576 0.04898 0.0
O46 O 0.37299 0.21281 0.05944 0.0
O47 O 0.38624 0.21494 0.0995 0.0
O48 O 0.40122 0.22534 0.08057 0.0
C49 C 0.41849 0.18336 0.08599 0.0
O50 O 0.36762 0.18854 0.08667 0.0
O51 O 0.38035 0.17517 0.06782 0.0
In52 In 0.04883 0.84884 0.17209 0.0
O53 O 0.056 0.82199 0.17786 0.0
O54 O 0.06705 0.83373 0.15712 0.0
C55 C 0.03492 0.85973 0.20024 0.0
C56 C 0.07244 0.87184 0.16915 0.0
C57 C 0.02245 0.8436 0.15236 0.0
O58 O 0.04363 0.84675 0.1998 0.0
O59 O 0.03342 0.86711 0.18659 0.0
O60 O 0.03366 0.85379 0.14858 0.0
O61 O 0.02459 0.83631 0.16596 0.0
C62 C 0.06571 0.82079 0.16567 0.0
O63 O 0.06045 0.87085 0.15917 0.0
O64 O 0.07234 0.86135 0.18072 0.0
In65 In 0.39288 0.79759 0.41956 0.0
O66 O 0.37186 0.81078 0.40654 0.0
O67 O 0.3799 0.82029 0.42976 0.0
C68 C 0.39844 0.77394 0.39674 0.0
C69 C 0.42086 0.81491 0.41446 0.0
C70 C 0.38288 0.78098 0.44665 0.0
O71 O 0.38496 0.78181 0.39735 0.0
O72 O 0.40879 0.77783 0.40771 0.0
O73 O 0.39497 0.79085 0.44702 0.0
O74 O 0.37612 0.77947 0.4327 0.0
C75 C 0.3702 0.82168 0.41761 0.0
O76 O 0.41975 0.80405 0.42566 0.0
O77 O 0.40776 0.81732 0.40635 0.0
In78 In 0.4514 0.14785 0.6697 0.0
O79 O 0.44344 0.1741 0.67675 0.0
O80 O 0.4318 0.16257 0.65618 0.0
C81 C 0.46786 0.13739 0.69671 0.0
C82 C 0.42752 0.12498 0.66757 0.0
C83 C 0.4752 0.15465 0.64728 0.0
O84 O 0.45897 0.15023 0.69684 0.0
O85 O 0.46844 0.12998 0.68301 0.0
O86 O 0.46627 0.14189 0.64624 0.0
O87 O 0.47233 0.1636 0.65971 0.0
C88 C 0.43308 0.17527 0.66511 0.0
O89 O 0.43892 0.12622 0.65694 0.0
O90 O 0.42841 0.13509 0.67944 0.0
In91 In 0.10102 0.2 0.91861 0.0
O92 O 0.12361 0.18851 0.90646 0.0
O93 O 0.11241 0.1757 0.92659 0.0
C94 C 0.09674 0.2281 0.90125 0.0
C95 C 0.07421 0.18312 0.9083 0.0
C96 C 0.10979 0.21292 0.94792 0.0
O97 O 0.10778 0.21769 0.89752 0.0
O98 O 0.08814 0.22435 0.91371 0.0
O99 O 0.09578 0.20634 0.94565 0.0
O100 O 0.11925 0.21276 0.9355 0.0
C101 C 0.12363 0.17593 0.91573 0.0
O102 O 0.07575 0.18773 0.92317 0.0
O103 O 0.08608 0.18702 0.899 0.0
In104 In 0.32681 0.04988 0.14973 0.0
O105 O 0.32035 0.0579 0.17611 0.0
O106 O 0.34032 0.06989 0.16393 0.0
C107 C 0.30003 0.03256 0.14021 0.0
C108 C 0.32797 0.07288 0.1259 0.0
C109 C 0.34968 0.02652 0.15639 0.0
O110 O 0.29972 0.04218 0.15251 0.0
O111 O 0.31374 0.03176 0.13286 0.0
O112 O 0.35072 0.03576 0.14385 0.0
O113 O 0.33706 0.0289 0.1652 0.0
C114 C 0.33185 0.06844 0.17693 0.0
O115 O 0.33884 0.06175 0.1274 0.0
O116 O 0.31637 0.07225 0.13634 0.0
In117 In 0.20018 0.07904 0.3924 0.0
O118 O 0.19321 0.07367 0.41923 0.0
O119 O 0.18078 0.09328 0.40681 0.0
C120 C 0.21649 0.05113 0.38439 0.0
C121 C 0.17591 0.08031 0.36988 0.0
C122 C 0.22428 0.10172 0.39667 0.0
O123 O 0.20766 0.05216 0.39722 0.0
O124 O 0.21706 0.0641 0.37579 0.0
O125 O 0.21723 0.09972 0.3829 0.0
O126 O 0.21936 0.09222 0.40796 0.0
C127 C 0.18276 0.08527 0.42005 0.0
O128 O 0.18674 0.09148 0.37122 0.0
O129 O 0.17744 0.06839 0.37984 0.0
In130 In 0.166 0.95005 0.64423 0.0
O131 O 0.16992 0.93773 0.66952 0.0
O132 O 0.1489 0.93098 0.65519 0.0
C133 C 0.19383 0.96694 0.63771 0.0
C134 C 0.16708 0.92831 0.61928 0.0
C135 C 0.14424 0.97431 0.65112 0.0
O136 O 0.19271 0.95741 0.65006 0.0
O137 O 0.18094 0.96797 0.629 0.0
O138 O 0.14377 0.96636 0.63768 0.0
O139 O 0.15582 0.97023 0.66073 0.0
C140 C 0.15687 0.92915 0.66845 0.0
O141 O 0.156 0.93931 0.62029 0.0
O142 O 0.17769 0.92851 0.63072 0.0
In143 In 0.29886 0.92194 0.89214 0.0
O144 O 0.31074 0.9117 0.86888 0.0
O145 O 0.32345 0.93073 0.88199 0.0
C146 C 0.27175 0.90272 0.8948 0.0
C147 C 0.31499 0.91142 0.91935 0.0
C148 C 0.2857 0.95131 0.88393 0.0
O149 O 0.28332 0.89933 0.88488 0.0
O150 O 0.27383 0.91576 0.90306 0.0
O151 O 0.29294 0.94904 0.89762 0.0
O152 O 0.28536 0.93887 0.87452 0.0
C153 C 0.3234 0.9208 0.86993 0.0
O154 O 0.30732 0.92505 0.91916 0.0
O155 O 0.3146 0.90353 0.90594 0.0
In156 In 0.32996 0.95007 0.35127 0.0
O157 O 0.34163 0.93726 0.37328 0.0
O158 O 0.31874 0.92784 0.3642 0.0
C159 C 0.35262 0.97421 0.34691 0.0
C160 C 0.33694 0.93117 0.32478 0.0
C161 C 0.3019 0.96652 0.35835 0.0
O162 O 0.35073 0.96704 0.36063 0.0
O163 O 0.34305 0.96933 0.33565 0.0
O164 O 0.30337 0.9579 0.34542 0.0
O165 O 0.31451 0.96684 0.36747 0.0
C166 C 0.33034 0.92654 0.37458 0.0
O167 O 0.32533 0.94165 0.32466 0.0
O168 O 0.34466 0.93007 0.33829 0.0
In169 In 0.29761 0.07667 0.60379 0.0
O170 O 0.31113 0.09118 0.62372 0.0
O171 O 0.32142 0.0682 0.61606 0.0
C172 C 0.27496 0.10137 0.60442 0.0
C173 C 0.3101 0.07837 0.57289 0.0
C174 C 0.28298 0.04764 0.61123 0.0
O175 O 0.28866 0.10267 0.59714 0.0
O176 O 0.27289 0.08784 0.61184 0.0
O177 O 0.28738 0.05124 0.59669 0.0
O178 O 0.28623 0.05851 0.62189 0.0
C179 C 0.32265 0.08075 0.62525 0.0
O180 O 0.29504 0.07536 0.5757 0.0
O181 O 0.31894 0.07968 0.58567 0.0
In182 In 0.17072 0.04734 0.84995 0.0
O183 O 0.16008 0.0589 0.8733 0.0
O184 O 0.17838 0.07235 0.85994 0.0
C185 C 0.15293 0.01926 0.84756 0.0
C186 C 0.16009 0.06281 0.82238 0.0
C187 C 0.20044 0.03511 0.85817 0.0
O188 O 0.14794 0.03149 0.85588 0.0
O189 O 0.16682 0.02115 0.84076 0.0
O190 O 0.1976 0.04118 0.84403 0.0
O191 O 0.18835 0.03545 0.86807 0.0
C192 C 0.16862 0.07193 0.87211 0.0
O193 O 0.17487 0.05789 0.82379 0.0
O194 O 0.15106 0.05988 0.83471 0.0
In195 In 0.2008 0.91829 0.1031 0.0
O196 O 0.18808 0.90603 0.12491 0.0
O197 O 0.17694 0.92757 0.11471 0.0
C198 C 0.22126 0.8918 0.10321 0.0
C199 C 0.18839 0.91632 0.0722 0.0
C200 C 0.21643 0.94674 0.11067 0.0
O201 O 0.20613 0.89076 0.09971 0.0
O202 O 0.22601 0.90611 0.10714 0.0
O203 O 0.21105 0.94377 0.09632 0.0
O204 O 0.21381 0.93545 0.12108 0.0
C205 C 0.17623 0.91618 0.12535 0.0
O206 O 0.17943 0.91582 0.08494 0.0
O207 O 0.20356 0.91868 0.07501 0.0
In208 In 0.14689 0.32558 0.04668 0.0
O209 O 0.17236 0.32088 0.05847 0.0
O210 O 0.1611 0.34446 0.06145 0.0
C211 C 0.13835 0.29677 0.03255 0.0
C212 C 0.12365 0.32719 0.07025 0.0
C213 C 0.15161 0.34435 0.01957 0.0
O214 O 0.15208 0.29864 0.03982 0.0
O215 O 0.12911 0.30935 0.03256 0.0
O216 O 0.14041 0.34753 0.02998 0.0
O217 O 0.16014 0.3317 0.02279 0.0
C218 C 0.17337 0.33532 0.0644 0.0
O219 O 0.1239 0.33698 0.05808 0.0
O220 O 0.13502 0.31648 0.07036 0.0
In221 In 0.63765 0.16502 0.95169 0.0
O222 O 0.66294 0.16903 0.93933 0.0
O223 O 0.64987 0.14669 0.93461 0.0
C224 C 0.63033 0.1938 0.96664 0.0
C225 C 0.61351 0.16362 0.92904 0.0
C226 C 0.64499 0.14523 0.97746 0.0
O227 O 0.64303 0.19211 0.95766 0.0
O228 O 0.6215 0.18101 0.96802 0.0
O229 O 0.63172 0.14361 0.96935 0.0
O230 O 0.65407 0.15703 0.97285 0.0
C231 C 0.66273 0.15513 0.93214 0.0
O232 O 0.61431 0.15357 0.94099 0.0
O233 O 0.62463 0.17457 0.92885 0.0
In234 In 0.077 0.39025 0.19859 0.0
O235 O 0.07356 0.41653 0.18802 0.0
O236 O 0.09669 0.40442 0.185 0.0
C237 C 0.0477 0.38269 0.21213 0.0
C238 C 0.07781 0.36781 0.17425 0.0
C239 C 0.09568 0.39295 0.22603 0.0
O240 O 0.05055 0.3968 0.20596 0.0
O241 O 0.05949 0.3725 0.21112 0.0
O242 O 0.1001 0.38412 0.21394 0.0
O243 O 0.08189 0.40001 0.22433 0.0
C244 C 0.08818 0.4172 0.18249 0.0
O245 O 0.08663 0.36652 0.18709 0.0
O246 O 0.06834 0.38023 0.17393 0.0
In247 In 0.84761 0.82117 0.44763 0.0
O248 O 0.87018 0.83277 0.43576 0.0
O249 O 0.8584 0.81279 0.42317 0.0
C250 C 0.84461 0.8413 0.47408 0.0
C251 C 0.81911 0.82882 0.43208 0.0
C252 C 0.85766 0.79223 0.46053 0.0
O253 O 0.8536 0.845 0.46187 0.0
O254 O 0.83744 0.82753 0.47293 0.0
O255 O 0.84409 0.79362 0.45289 0.0
O256 O 0.86603 0.80535 0.46148 0.0
C257 C 0.86982 0.82344 0.42321 0.0
O258 O 0.82013 0.8168 0.44198 0.0
O259 O 0.83242 0.83659 0.42987 0.0
In260 In 0.9161 0.10384 0.20346 0.0
O261 O 0.91757 0.07568 0.20489 0.0
O262 O 0.91232 0.08657 0.18158 0.0
C263 C 0.94566 0.11102 0.21702 0.0
C264 C 0.91153 0.12643 0.17957 0.0
C265 C 0.89239 0.10389 0.22714 0.0
O266 O 0.9421 0.09663 0.21212 0.0
O267 O 0.9344 0.12159 0.21498 0.0
O268 O 0.89037 0.09723 0.21322 0.0
O269 O 0.90616 0.11092 0.22897 0.0
C270 C 0.91401 0.07347 0.18985 0.0
O271 O 0.90098 0.12389 0.1908 0.0
O272 O 0.92433 0.11757 0.18043 0.0
In273 In 0.34467 0.66983 0.54758 0.0
O274 O 0.31644 0.67175 0.54883 0.0
O275 O 0.3295 0.66641 0.57097 0.0
C276 C 0.35085 0.6991 0.53277 0.0
C277 C 0.36773 0.66527 0.571 0.0
C278 C 0.3444 0.64566 0.5243 0.0
O279 O 0.33632 0.69433 0.53586 0.0
O280 O 0.362 0.68927 0.53732 0.0
O281 O 0.33538 0.6453 0.53696 0.0
O282 O 0.35391 0.65796 0.52357 0.0
C283 C 0.31567 0.66827 0.56405 0.0
O284 O 0.36453 0.65442 0.56022 0.0
O285 O 0.35931 0.67836 0.56988 0.0
In286 In 0.07968 0.60634 0.29693 0.0
O287 O 0.07726 0.58049 0.30858 0.0
O288 O 0.09972 0.59388 0.31165 0.0
C289 C 0.0504 0.6139 0.28334 0.0
C290 C 0.08013 0.62917 0.32084 0.0
C291 C 0.09752 0.60185 0.26921 0.0
O292 O 0.0528 0.60028 0.29069 0.0
O293 O 0.06267 0.62354 0.28308 0.0
O294 O 0.10076 0.61338 0.27926 0.0
O295 O 0.08535 0.59293 0.27314 0.0
C296 C 0.09174 0.58082 0.31453 0.0
O297 O 0.08991 0.62973 0.30863 0.0
O298 O 0.07 0.61729 0.32072 0.0
In299 In 0.41712 0.39176 0.7971 0.0
O300 O 0.42052 0.41764 0.80844 0.0
O301 O 0.39755 0.40521 0.81164 0.0
C302 C 0.44623 0.38355 0.78351 0.0
C303 C 0.41613 0.36894 0.82105 0.0
C304 C 0.39908 0.39608 0.76946 0.0
O305 O 0.4441 0.39725 0.79076 0.0
O306 O 0.43377 0.37415 0.78332 0.0
O307 O 0.39567 0.3849 0.77984 0.0
O308 O 0.41153 0.40476 0.77303 0.0
C309 C 0.40603 0.41799 0.81434 0.0
O310 O 0.4064 0.3686 0.80881 0.0
O311 O 0.42644 0.38066 0.82101 0.0
In312 In 0.95159 0.85391 0.6683 0.0
O313 O 0.93864 0.82862 0.67111 0.0
O314 O 0.94529 0.83698 0.64711 0.0
C315 C 0.96327 0.86111 0.69855 0.0
C316 C 0.92587 0.87469 0.66516 0.0
C317 C 0.98039 0.85416 0.65172 0.0
O318 O 0.95838 0.84674 0.69477 0.0
O319 O 0.962 0.8717 0.68716 0.0
O320 O 0.9684 0.86332 0.64763 0.0
O321 O 0.97791 0.84524 0.66429 0.0
C322 C 0.93884 0.82577 0.65574 0.0
O323 O 0.939 0.87634 0.65687 0.0
O324 O 0.92583 0.86267 0.67509 0.0
In325 In 0.89319 0.19713 0.42018 0.0
O326 O 0.87209 0.18359 0.40765 0.0
O327 O 0.88093 0.17405 0.43055 0.0
C328 C 0.89724 0.22128 0.39745 0.0
C329 C 0.92099 0.17994 0.41392 0.0
C330 C 0.88535 0.21322 0.44831 0.0
O331 O 0.8835 0.2142 0.39958 0.0
O332 O 0.9086 0.21638 0.40688 0.0
O333 O 0.89822 0.20449 0.44706 0.0
O334 O 0.87656 0.21376 0.43547 0.0
C335 C 0.87096 0.17253 0.41862 0.0
O336 O 0.92009 0.1904 0.42551 0.0
O337 O 0.90776 0.17787 0.40591 0.0
In338 In 0.54716 0.14897 0.16868 0.0
O339 O 0.55535 0.17559 0.174 0.0
O340 O 0.56444 0.16374 0.15236 0.0
C341 C 0.53301 0.13943 0.19718 0.0
C342 C 0.57146 0.12652 0.16717 0.0
C343 C 0.52068 0.15325 0.14882 0.0
O344 O 0.54055 0.15305 0.19581 0.0
O345 O 0.53283 0.13067 0.18426 0.0
O346 O 0.53196 0.14301 0.14537 0.0
O347 O 0.52281 0.16105 0.16212 0.0
C348 C 0.56417 0.17659 0.16114 0.0
O349 O 0.55934 0.12638 0.15728 0.0
O350 O 0.57108 0.13779 0.17797 0.0
In351 In 0.60442 0.79543 0.91927 0.0
O352 O 0.57605 0.79701 0.92129 0.0
O353 O 0.58889 0.81619 0.90882 0.0
C354 C 0.61072 0.78433 0.94993 0.0
C355 C 0.62792 0.81866 0.91627 0.0
C356 C 0.60475 0.7696 0.89785 0.0
O357 O 0.59641 0.78902 0.94568 0.0
O358 O 0.62158 0.78538 0.93879 0.0
O359 O 0.60177 0.78418 0.89335 0.0
O360 O 0.60794 0.7681 0.91299 0.0
C361 C 0.57514 0.81029 0.91311 0.0
O362 O 0.62712 0.80636 0.90667 0.0
O363 O 0.61698 0.81908 0.92738 0.0
In364 In 0.9493 0.14459 0.82686 0.0
O365 O 0.92782 0.16249 0.82992 0.0
O366 O 0.95184 0.17274 0.82738 0.0
C367 C 0.96218 0.13718 0.79701 0.0
C368 C 0.92475 0.12291 0.83236 0.0
C369 C 0.97343 0.14352 0.85004 0.0
O370 O 0.95762 0.15166 0.80069 0.0
O371 O 0.96002 0.12663 0.80826 0.0
O372 O 0.95936 0.14958 0.85283 0.0
O373 O 0.97517 0.13754 0.83576 0.0
C374 C 0.93665 0.17532 0.8299 0.0
O375 O 0.93658 0.12485 0.84235 0.0
O376 O 0.92549 0.1317 0.81951 0.0
In377 In 0.60296 0.20104 0.57749 0.0
O378 O 0.62277 0.1882 0.59281 0.0
O379 O 0.616 0.1774 0.56981 0.0
C380 C 0.60348 0.22485 0.60105 0.0
C381 C 0.5721 0.18858 0.57974 0.0
C382 C 0.61086 0.21414 0.54789 0.0
O383 O 0.597 0.21089 0.60335 0.0
O384 O 0.61008 0.22667 0.58706 0.0
O385 O 0.59643 0.20911 0.55111 0.0
O386 O 0.6211 0.21241 0.5595 0.0
C387 C 0.62489 0.1766 0.58259 0.0
O388 O 0.57484 0.20359 0.57643 0.0
O389 O 0.5849 0.17978 0.58105 0.0
In390 In 0.54528 0.84887 0.32754 0.0
O391 O 0.55785 0.87043 0.34029 0.0
O392 O 0.56797 0.86204 0.31746 0.0
C393 C 0.52071 0.84459 0.34979 0.0
C394 C 0.56318 0.8216 0.33435 0.0
C395 C 0.52991 0.85685 0.29904 0.0
O396 O 0.52833 0.85813 0.34836 0.0
O397 O 0.52528 0.83348 0.33989 0.0
O398 O 0.53918 0.84434 0.3002 0.0
O399 O 0.52833 0.86503 0.3122 0.0
C400 C 0.56893 0.87206 0.3294 0.0
O401 O 0.5526 0.82195 0.32284 0.0
O402 O 0.56495 0.83506 0.34202 0.0
In403 In 0.89419 0.79612 0.07671 0.0
O404 O 0.92089 0.80562 0.07387 0.0
O405 O 0.90815 0.80986 0.09648 0.0
C406 C 0.88621 0.78309 0.04725 0.0
C407 C 0.87264 0.82127 0.07756 0.0
C408 C 0.89634 0.76842 0.09508 0.0
O409 O 0.90016 0.78969 0.04986 0.0
O410 O 0.8764 0.78334 0.0594 0.0
O411 O 0.88618 0.77979 0.09849 0.0
O412 O 0.90508 0.77101 0.08243 0.0
C413 C 0.9213 0.81161 0.08832 0.0
O414 O 0.87115 0.80869 0.08672 0.0
O415 O 0.88481 0.82095 0.06778 0.0
In416 In 0.67499 0.94712 0.85146 0.0
O417 O 0.66332 0.93449 0.87356 0.0
O418 O 0.68383 0.92266 0.86192 0.0
C419 C 0.65382 0.97286 0.84942 0.0
C420 C 0.66899 0.93276 0.82193 0.0
C421 C 0.70332 0.96046 0.86252 0.0
O422 O 0.64998 0.95957 0.85662 0.0
O423 O 0.66821 0.97311 0.84346 0.0
O424 O 0.70253 0.95291 0.84886 0.0
O425 O 0.68993 0.96108 0.87049 0.0
C426 C 0.673 0.92222 0.87317 0.0
O427 O 0.68018 0.94349 0.82376 0.0
O428 O 0.66125 0.92916 0.83493 0.0
In429 In 0.79678 0.92049 0.59912 0.0
O430 O 0.80714 0.92314 0.57272 0.0
O431 O 0.8114 0.90082 0.58596 0.0
C432 C 0.78479 0.95029 0.6075 0.0
C433 C 0.82093 0.91812 0.62161 0.0
C434 C 0.76863 0.90305 0.5955 0.0
O435 O 0.79172 0.94779 0.59368 0.0
O436 O 0.78409 0.93785 0.61688 0.0
O437 O 0.77898 0.89978 0.60672 0.0
O438 O 0.77243 0.91513 0.58641 0.0
C439 C 0.81345 0.90882 0.57276 0.0
O440 O 0.80826 0.90897 0.62197 0.0
O441 O 0.8212 0.92867 0.61009 0.0
In442 In 0.8266 0.04404 0.35358 0.0
O443 O 0.82096 0.05629 0.32856 0.0
O444 O 0.84439 0.06045 0.33978 0.0
C445 C 0.79849 0.02834 0.36192 0.0
C446 C 0.82821 0.06745 0.37701 0.0
C447 C 0.84712 0.01861 0.34703 0.0
O448 O 0.79982 0.03643 0.34861 0.0
O449 O 0.81128 0.02823 0.37084 0.0
O450 O 0.84842 0.02715 0.36005 0.0
O451 O 0.83528 0.02266 0.33771 0.0
C452 C 0.835 0.06312 0.32763 0.0
O453 O 0.83839 0.05562 0.3763 0.0
O454 O 0.81703 0.0672 0.36611 0.0
In455 In 0.70023 0.07627 0.10314 0.0
O456 O 0.68761 0.09108 0.12346 0.0
O457 O 0.67683 0.06817 0.11635 0.0
C458 C 0.72326 0.10058 0.10377 0.0
C459 C 0.68636 0.07876 0.07286 0.0
C460 C 0.7147 0.04693 0.10979 0.0
O461 O 0.70916 0.10251 0.09744 0.0
O462 O 0.72556 0.0866 0.11023 0.0
O463 O 0.71058 0.05104 0.0953 0.0
O464 O 0.71125 0.05744 0.12075 0.0
C465 C 0.67602 0.08082 0.12544 0.0
O466 O 0.678 0.07857 0.086 0.0
O467 O 0.70171 0.07673 0.07491 0.0
In468 In 0.67412 0.0482 0.64741 0.0
O469 O 0.66257 0.06038 0.62496 0.0
O470 O 0.68242 0.07286 0.63707 0.0
C471 C 0.65268 0.02255 0.64789 0.0
C472 C 0.66771 0.06205 0.67719 0.0
C473 C 0.7034 0.03601 0.63743 0.0
O474 O 0.64849 0.03674 0.64299 0.0
O475 O 0.66755 0.02136 0.65231 0.0
O476 O 0.70158 0.0427 0.65145 0.0
O477 O 0.69056 0.03571 0.62857 0.0
C478 C 0.67181 0.07297 0.62561 0.0
O479 O 0.67734 0.04986 0.67563 0.0
O480 O 0.6618 0.06734 0.66383 0.0
In481 In 0.69552 0.91665 0.39553 0.0
O482 O 0.68386 0.90575 0.37252 0.0
O483 O 0.67275 0.92724 0.38298 0.0
C484 C 0.72025 0.89489 0.40072 0.0
C485 C 0.67582 0.90758 0.42077 0.0
C486 C 0.71203 0.94474 0.3887 0.0
O487 O 0.71276 0.89582 0.38706 0.0
O488 O 0.71548 0.90509 0.41149 0.0
O489 O 0.70402 0.94295 0.402 0.0
O490 O 0.71161 0.93248 0.3791 0.0
C491 C 0.67234 0.91628 0.37185 0.0
O492 O 0.68388 0.921 0.42109 0.0
O493 O 0.67757 0.8992 0.40774 0.0
In494 In 0.83041 0.94904 0.14576 0.0
O495 O 0.84266 0.93777 0.12312 0.0
O496 O 0.82074 0.92643 0.13234 0.0
C497 C 0.85072 0.97442 0.153 0.0
C498 C 0.8386 0.92951 0.17143 0.0
C499 C 0.80245 0.96496 0.13732 0.0
O500 O 0.85208 0.96626 0.13974 0.0
O501 O 0.83897 0.96999 0.16225 0.0
O502 O 0.80334 0.95609 0.15017 0.0
O503 O 0.81559 0.96575 0.12897 0.0
C504 C 0.83223 0.92621 0.12178 0.0
O505 O 0.82465 0.93656 0.17063 0.0
O506 O 0.848 0.93218 0.15928 0.0
In507 In 0.79373 0.07854 0.89863 0.0
O508 O 0.80679 0.07658 0.92387 0.0
O509 O 0.80077 0.10036 0.91436 0.0
C510 C 0.78291 0.04795 0.89181 0.0
C511 C 0.81945 0.0813 0.87789 0.0
C512 C 0.7645 0.09437 0.89885 0.0
O513 O 0.78722 0.05215 0.90625 0.0
O514 O 0.78423 0.05913 0.881 0.0
O515 O 0.77601 0.09842 0.88906 0.0
O516 O 0.76769 0.08223 0.90812 0.0
C517 C 0.80713 0.09208 0.9259 0.0
O518 O 0.80624 0.08941 0.87584 0.0
O519 O 0.81951 0.07179 0.89025 0.0
In520 In 0.85524 0.66795 0.94872 0.0
O521 O 0.87797 0.65593 0.9375 0.0
O522 O 0.86818 0.67735 0.92567 0.0
C523 C 0.84962 0.64768 0.9746 0.0
C524 C 0.83002 0.65821 0.92937 0.0
C525 C 0.86198 0.69697 0.96355 0.0
O526 O 0.86351 0.64838 0.9675 0.0
O527 O 0.83886 0.65738 0.96888 0.0
O528 O 0.84888 0.69479 0.95531 0.0
O529 O 0.87143 0.68461 0.96423 0.0
C530 C 0.87895 0.66604 0.92563 0.0
O531 O 0.82978 0.67198 0.93682 0.0
O532 O 0.84296 0.64979 0.93155 0.0
In533 In 0.34245 0.8247 0.04627 0.0
O534 O 0.32498 0.81976 0.06806 0.0
O535 O 0.31447 0.82813 0.04562 0.0
C536 C 0.3545 0.796 0.03448 0.0
C537 C 0.36196 0.83628 0.07052 0.0
C538 C 0.34195 0.84467 0.01948 0.0
O539 O 0.34019 0.79711 0.04067 0.0
O540 O 0.36277 0.80922 0.03472 0.0
O541 O 0.34815 0.84919 0.03306 0.0
O542 O 0.33629 0.83017 0.01945 0.0
C543 C 0.31214 0.8243 0.06052 0.0
O544 O 0.3513 0.84509 0.06332 0.0
O545 O 0.36315 0.82166 0.06518 0.0
In546 In 0.92303 0.59707 0.79824 0.0
O547 O 0.91124 0.61953 0.81023 0.0
O548 O 0.93203 0.60849 0.82217 0.0
C549 C 0.90342 0.59326 0.77149 0.0
C550 C 0.9153 0.56907 0.81463 0.0
C551 C 0.9517 0.60717 0.78483 0.0
O552 O 0.89968 0.60299 0.78312 0.0
O553 O 0.91692 0.58573 0.7734 0.0
O554 O 0.95046 0.59352 0.79236 0.0
O555 O 0.93858 0.61558 0.78423 0.0
C556 C 0.92112 0.61967 0.82235 0.0
O557 O 0.92786 0.57003 0.80539 0.0
O558 O 0.90701 0.5822 0.81575 0.0
In559 In 0.14894 0.16994 0.54648 0.0
O560 O 0.17459 0.17487 0.55764 0.0
O561 O 0.16282 0.1518 0.56241 0.0
C562 C 0.14075 0.19837 0.53122 0.0
C563 C 0.12655 0.16842 0.57088 0.0
C564 C 0.15316 0.1493 0.52068 0.0
O565 O 0.15439 0.19668 0.53867 0.0
O566 O 0.13153 0.18582 0.53154 0.0
O567 O 0.13989 0.1497 0.5289 0.0
O568 O 0.16405 0.15945 0.5253 0.0
C569 C 0.17532 0.16085 0.56458 0.0
O570 O 0.12679 0.15822 0.55905 0.0
O571 O 0.13743 0.17958 0.57019 0.0
In572 In 0.07765 0.89133 0.79571 0.0
O573 O 0.0886 0.86866 0.80832 0.0
O574 O 0.07046 0.8826 0.82133 0.0
C575 C 0.09427 0.89138 0.76694 0.0
C576 C 0.09056 0.91924 0.80858 0.0
C577 C 0.04751 0.88423 0.78376 0.0
O578 O 0.09842 0.88215 0.77886 0.0
O579 O 0.08162 0.90018 0.76949 0.0
O580 O 0.0512 0.89855 0.78888 0.0
O581 O 0.05892 0.87366 0.78494 0.0
C582 C 0.08017 0.8704 0.82135 0.0
O583 O 0.07512 0.91676 0.80845 0.0
O584 O 0.09908 0.90776 0.80245 0.0
In585 In 0.64609 0.32902 0.45262 0.0
O586 O 0.62385 0.34055 0.43979 0.0
O587 O 0.63704 0.32153 0.42722 0.0
C588 C 0.64638 0.34552 0.48144 0.0
C589 C 0.67396 0.34148 0.43926 0.0
C590 C 0.63819 0.29909 0.46452 0.0
O591 O 0.63683 0.34953 0.46972 0.0
O592 O 0.65544 0.33312 0.47865 0.0
O593 O 0.65267 0.30244 0.45961 0.0
O594 O 0.6279 0.31074 0.4632 0.0
C595 C 0.62522 0.3317 0.42699 0.0
O596 O 0.67139 0.32607 0.43973 0.0
O597 O 0.66262 0.3502 0.44539 0.0
In598 In 0.91854 0.39242 0.6983 0.0
O599 O 0.9077 0.3694 0.68655 0.0
O600 O 0.92883 0.38028 0.67518 0.0
C601 C 0.89754 0.39703 0.72378 0.0
C602 C 0.90834 0.4178 0.6794 0.0
C603 C 0.94736 0.38629 0.71378 0.0
O604 O 0.89853 0.38338 0.71625 0.0
O605 O 0.90734 0.40802 0.7187 0.0
O606 O 0.94503 0.3994 0.7056 0.0
O607 O 0.93523 0.37651 0.71407 0.0
C608 C 0.91802 0.36902 0.67483 0.0
O609 O 0.92207 0.41817 0.68691 0.0
O610 O 0.90021 0.40463 0.68124 0.0
In611 In 0.57794 0.60161 0.19826 0.0
O612 O 0.58944 0.62432 0.18659 0.0
O613 O 0.56875 0.61327 0.17451 0.0
C614 C 0.59777 0.59762 0.2248 0.0
C615 C 0.58559 0.5739 0.18136 0.0
C616 C 0.54932 0.61117 0.21212 0.0
O617 O 0.60139 0.60743 0.21322 0.0
O618 O 0.58429 0.59006 0.22293 0.0
O619 O 0.5507 0.59758 0.20452 0.0
O620 O 0.56228 0.61984 0.21251 0.0
C621 C 0.57956 0.62454 0.17447 0.0
O622 O 0.57296 0.57478 0.19051 0.0
O623 O 0.59403 0.58695 0.18062 0.0
In624 In 0.54697 0.64365 0.82684 0.0
O625 O 0.56004 0.66862 0.82322 0.0
O626 O 0.56102 0.65698 0.84683 0.0
C627 C 0.53266 0.63709 0.79755 0.0
C628 C 0.57082 0.62068 0.8285 0.0
C629 C 0.52026 0.64808 0.84619 0.0
O630 O 0.53987 0.65068 0.80033 0.0
O631 O 0.53273 0.62707 0.80948 0.0
O632 O 0.52823 0.63464 0.84607 0.0
O633 O 0.52549 0.65891 0.83627 0.0
C634 C 0.56497 0.66925 0.83807 0.0
O635 O 0.55877 0.62096 0.83844 0.0
O636 O 0.57063 0.63182 0.81757 0.0
In637 In 0.60455 0.30037 0.07656 0.0
O638 O 0.5792 0.31282 0.07364 0.0
O639 O 0.59367 0.31823 0.09497 0.0
C640 C 0.60952 0.28348 0.04832 0.0
C641 C 0.62865 0.32304 0.07548 0.0
C642 C 0.59948 0.2757 0.09833 0.0
O643 O 0.5965 0.29181 0.05071 0.0
O644 O 0.61977 0.28382 0.06005 0.0
O645 O 0.61343 0.28257 0.09678 0.0
O646 O 0.58843 0.28104 0.08874 0.0
C647 C 0.58031 0.32047 0.08726 0.0
O648 O 0.62827 0.31168 0.08621 0.0
O649 O 0.617 0.32272 0.06508 0.0
In650 In 0.94919 0.34667 0.32702 0.0
O651 O 0.93771 0.36904 0.33942 0.0
O652 O 0.92666 0.36025 0.31717 0.0
C653 C 0.97338 0.34036 0.34917 0.0
C654 C 0.93046 0.31976 0.333 0.0
C655 C 0.96524 0.35544 0.29915 0.0
O656 O 0.96455 0.35321 0.34997 0.0
O657 O 0.97021 0.33105 0.3371 0.0
O658 O 0.95562 0.34316 0.29968 0.0
O659 O 0.96676 0.36313 0.31262 0.0
C660 C 0.92634 0.37064 0.32882 0.0
O661 O 0.94071 0.3203 0.32122 0.0
O662 O 0.92942 0.33287 0.34135 0.0
In663 In 0.8951 0.6985 0.57573 0.0
O664 O 0.92215 0.68995 0.57258 0.0
O665 O 0.90904 0.68307 0.59425 0.0
C666 C 0.88685 0.71017 0.54583 0.0
C667 C 0.87216 0.6747 0.57743 0.0
C668 C 0.89774 0.72642 0.59381 0.0
O669 O 0.9008 0.70357 0.54854 0.0
O670 O 0.87725 0.71068 0.55813 0.0
O671 O 0.88977 0.71404 0.59893 0.0
O672 O 0.90403 0.72477 0.57966 0.0
C673 C 0.92242 0.68253 0.58633 0.0
O674 O 0.87149 0.68757 0.58629 0.0
O675 O 0.88427 0.67403 0.56758 0.0
In676 In 0.5474 0.35131 0.67053 0.0
O677 O 0.55992 0.37395 0.65968 0.0
O678 O 0.5704 0.36321 0.68133 0.0
C679 C 0.522 0.34722 0.64938 0.0
C680 C 0.56599 0.3254 0.66102 0.0
C681 C 0.53145 0.35798 0.69895 0.0
O682 O 0.52986 0.36067 0.65033 0.0
O683 O 0.52674 0.33614 0.65926 0.0
O684 O 0.53909 0.34452 0.69676 0.0
O685 O 0.53189 0.3678 0.68687 0.0
C686 C 0.57125 0.37434 0.67042 0.0
O687 O 0.55904 0.32583 0.67505 0.0
O688 O 0.56373 0.33805 0.6522 0.0
In689 In 0.89196 0.29694 0.91788 0.0
O690 O 0.86855 0.30736 0.90636 0.0
O691 O 0.87869 0.31968 0.92734 0.0
C692 C 0.89899 0.27135 0.89772 0.0
C693 C 0.91713 0.31654 0.90842 0.0
C694 C 0.8843 0.28224 0.94668 0.0
O695 O 0.88588 0.27973 0.89622 0.0
O696 O 0.90813 0.2756 0.90962 0.0
O697 O 0.8969 0.29138 0.94518 0.0
O698 O 0.87587 0.28046 0.93368 0.0
C699 C 0.86755 0.3193 0.91641 0.0
O700 O 0.91745 0.30882 0.92203 0.0
O701 O 0.90413 0.31455 0.90008 0.0
In702 In 0.95 0.64368 0.16915 0.0
O703 O 0.93824 0.6206 0.15846 0.0
O704 O 0.92707 0.63147 0.17972 0.0
C705 C 0.97531 0.64839 0.14797 0.0
C706 C 0.93078 0.66888 0.15899 0.0
C707 C 0.96562 0.63739 0.19785 0.0
O708 O 0.96778 0.63474 0.14895 0.0
O709 O 0.9703 0.65934 0.15786 0.0
O710 O 0.95734 0.65048 0.19568 0.0
O711 O 0.96597 0.62776 0.18561 0.0
C712 C 0.92664 0.62019 0.16893 0.0
O713 O 0.93861 0.66949 0.17254 0.0
O714 O 0.93249 0.65558 0.15103 0.0
In715 In 0.60199 0.69855 0.42156 0.0
O716 O 0.62339 0.68616 0.40837 0.0
O717 O 0.61515 0.67556 0.43102 0.0
C718 C 0.59707 0.72326 0.39962 0.0
C719 C 0.57454 0.68093 0.41491 0.0
C720 C 0.60992 0.71399 0.45005 0.0
O721 O 0.61086 0.71609 0.40102 0.0
O722 O 0.58608 0.71818 0.40939 0.0
O723 O 0.5976 0.70447 0.44893 0.0
O724 O 0.61808 0.71565 0.43689 0.0
C725 C 0.62502 0.67479 0.41895 0.0
O726 O 0.57522 0.69112 0.42674 0.0
O727 O 0.5878 0.67934 0.40686 0.0
In728 In 0.82746 0.54649 0.64357 0.0
O729 O 0.82454 0.5564 0.67013 0.0
O730 O 0.84705 0.56081 0.65727 0.0
C731 C 0.79791 0.5336 0.63571 0.0
C732 C 0.82872 0.57084 0.62117 0.0
C733 C 0.84562 0.51869 0.64627 0.0
O734 O 0.80048 0.54057 0.64949 0.0
O735 O 0.81015 0.53341 0.62603 0.0
O736 O 0.84909 0.52982 0.63588 0.0
O737 O 0.83305 0.52158 0.65502 0.0
C738 C 0.83889 0.56262 0.67041 0.0
O739 O 0.83797 0.55826 0.62039 0.0
O740 O 0.81867 0.57096 0.63313 0.0
In741 In 0.70094 0.57908 0.89293 0.0
O742 O 0.69032 0.57668 0.91925 0.0
O743 O 0.68788 0.59957 0.90653 0.0
C744 C 0.7138 0.54946 0.88539 0.0
C745 C 0.67613 0.57976 0.87103 0.0
C746 C 0.72902 0.59679 0.89506 0.0
O747 O 0.70763 0.55243 0.89947 0.0
O748 O 0.71322 0.56133 0.87528 0.0
O749 O 0.71789 0.60027 0.88467 0.0
O750 O 0.72599 0.58443 0.90406 0.0
C751 C 0.68517 0.59145 0.91954 0.0
O752 O 0.68865 0.58904 0.86975 0.0
O753 O 0.6763 0.57003 0.88325 0.0
In754 In 0.67008 0.44904 0.14202 0.0
O755 O 0.67358 0.43673 0.16733 0.0
O756 O 0.65169 0.43159 0.15363 0.0
C757 C 0.69885 0.46479 0.13658 0.0
C758 C 0.67014 0.42637 0.11785 0.0
C759 C 0.64904 0.47437 0.14716 0.0
O760 O 0.69633 0.45657 0.14963 0.0
O761 O 0.68692 0.46502 0.12656 0.0
O762 O 0.65024 0.46732 0.13327 0.0
O763 O 0.65863 0.46888 0.15813 0.0
C764 C 0.65982 0.4293 0.16673 0.0
O765 O 0.65945 0.43774 0.11867 0.0
O766 O 0.68093 0.42661 0.12914 0.0
In767 In 0.79991 0.4217 0.39273 0.0
O768 O 0.80887 0.42517 0.41962 0.0
O769 O 0.81464 0.40287 0.407 0.0
C770 C 0.78784 0.45148 0.38459 0.0
C771 C 0.82398 0.41982 0.37004 0.0
C772 C 0.77211 0.40347 0.39555 0.0
O773 O 0.79455 0.4488 0.39848 0.0
O774 O 0.7875 0.43922 0.37492 0.0
O775 O 0.78449 0.3984 0.38754 0.0
O776 O 0.77369 0.41765 0.40178 0.0
C777 C 0.8157 0.41111 0.42015 0.0
O778 O 0.81089 0.41134 0.36904 0.0
O779 O 0.8247 0.42947 0.3823 0.0
In780 In 0.82532 0.44735 0.84981 0.0
O781 O 0.83705 0.4341 0.87153 0.0
O782 O 0.81442 0.42452 0.86201 0.0
C783 C 0.84843 0.47105 0.84546 0.0
C784 C 0.83189 0.42964 0.82241 0.0
C785 C 0.79763 0.464 0.85801 0.0
O786 O 0.84685 0.46345 0.859 0.0
O787 O 0.83826 0.46691 0.83443 0.0
O788 O 0.79835 0.4549 0.84535 0.0
O789 O 0.8108 0.46471 0.86629 0.0
C790 C 0.82597 0.42312 0.87243 0.0
O791 O 0.8204 0.44024 0.82289 0.0
O792 O 0.83962 0.42773 0.83582 0.0
In793 In 0.79861 0.57751 0.10294 0.0
O794 O 0.81046 0.58885 0.1257 0.0
O795 O 0.82218 0.56796 0.11463 0.0
C796 C 0.77217 0.59749 0.09911 0.0
C797 C 0.8152 0.5852 0.07502 0.0
C798 C 0.7847 0.54887 0.11233 0.0
O799 O 0.7839 0.60115 0.10873 0.0
O800 O 0.77382 0.5839 0.0917 0.0
O801 O 0.79281 0.55017 0.09903 0.0
O802 O 0.78379 0.56193 0.12082 0.0
C803 C 0.8224 0.57875 0.12592 0.0
O804 O 0.80576 0.5728 0.07588 0.0
O805 O 0.81645 0.59336 0.08822 0.0
In806 In 0.67341 0.54854 0.35142 0.0
O807 O 0.66213 0.55938 0.37475 0.0
O808 O 0.68166 0.57265 0.36299 0.0
C809 C 0.65538 0.52093 0.34662 0.0
C810 C 0.66248 0.56584 0.32515 0.0
C811 C 0.70291 0.53561 0.3595 0.0
O812 O 0.65196 0.53114 0.35794 0.0
O813 O 0.6679 0.52458 0.33808 0.0
O814 O 0.70067 0.54327 0.34605 0.0
O815 O 0.69036 0.53467 0.36873 0.0
C816 C 0.67127 0.57206 0.37464 0.0
O817 O 0.67676 0.55944 0.32534 0.0
O818 O 0.65416 0.56365 0.33813 0.0
In819 In 0.69856 0.4186 0.60695 0.0
O820 O 0.68723 0.40756 0.63011 0.0
O821 O 0.67586 0.42895 0.61973 0.0
C822 C 0.72409 0.39792 0.60146 0.0
C823 C 0.67901 0.40826 0.58212 0.0
C824 C 0.71388 0.4475 0.61292 0.0
O825 O 0.71709 0.39885 0.61539 0.0
O826 O 0.71846 0.40761 0.59063 0.0
O827 O 0.70538 0.44522 0.6 0.0
O828 O 0.71461 0.43527 0.62254 0.0
C829 C 0.67563 0.41801 0.63087 0.0
O830 O 0.68653 0.42198 0.58148 0.0
O831 O 0.68115 0.40022 0.5953 0.0
In832 In 0.63932 0.82796 0.54929 0.0
O833 O 0.61586 0.83726 0.56171 0.0
O834 O 0.63013 0.8189 0.57414 0.0
C835 C 0.64088 0.84586 0.52125 0.0
C836 C 0.66605 0.84061 0.56463 0.0
C837 C 0.63277 0.79815 0.53628 0.0
O838 O 0.63076 0.84932 0.53265 0.0
O839 O 0.64986 0.83343 0.524 0.0
O840 O 0.64673 0.8016 0.54246 0.0
O841 O 0.62221 0.80963 0.53699 0.0
C842 C 0.6176 0.82822 0.57435 0.0
O843 O 0.6657 0.82576 0.55972 0.0
O844 O 0.65301 0.84868 0.56193 0.0
In845 In 0.14356 0.6691 0.4512 0.0
O846 O 0.16848 0.67282 0.43792 0.0
O847 O 0.15727 0.64898 0.43789 0.0
C848 C 0.13625 0.69765 0.46645 0.0
C849 C 0.12096 0.66868 0.42698 0.0
C850 C 0.14858 0.64946 0.47752 0.0
O851 O 0.14993 0.69546 0.45916 0.0
O852 O 0.12648 0.68551 0.46596 0.0
O853 O 0.13588 0.64805 0.4685 0.0
O854 O 0.15823 0.66106 0.47353 0.0
C855 C 0.16938 0.65779 0.43361 0.0
O856 O 0.12047 0.6587 0.43901 0.0
O857 O 0.13268 0.67897 0.4274 0.0
In858 In 0.57996 0.89913 0.70002 0.0
O859 O 0.59156 0.87614 0.68884 0.0
O860 O 0.56804 0.88365 0.67977 0.0
C861 C 0.6047 0.90437 0.72168 0.0
C862 C 0.58583 0.92528 0.68019 0.0
C863 C 0.55342 0.89376 0.71949 0.0
O864 O 0.60198 0.89032 0.71541 0.0
O865 O 0.59493 0.91562 0.71706 0.0
O866 O 0.55226 0.90165 0.70607 0.0
O867 O 0.56775 0.88877 0.72289 0.0
C868 C 0.5799 0.87354 0.6788 0.0
O869 O 0.57538 0.92591 0.69181 0.0
O870 O 0.59273 0.91143 0.67838 0.0
In871 In 0.34971 0.32786 0.94831 0.0
O872 O 0.3241 0.3245 0.93643 0.0
O873 O 0.33823 0.34589 0.93048 0.0
C874 C 0.35639 0.29936 0.96401 0.0
C875 C 0.37372 0.32766 0.92551 0.0
C876 C 0.3438 0.34892 0.97346 0.0
O877 O 0.34344 0.30119 0.95544 0.0
O878 O 0.36568 0.31186 0.96466 0.0
O879 O 0.35701 0.34949 0.96513 0.0
O880 O 0.33397 0.33754 0.96934 0.0
C881 C 0.32494 0.33799 0.92854 0.0
O882 O 0.37337 0.33804 0.9372 0.0
O883 O 0.36213 0.31719 0.9256 0.0
In884 In 0.41985 0.60357 0.69893 0.0
O885 O 0.42276 0.57747 0.68793 0.0
O886 O 0.39968 0.58991 0.68559 0.0
C887 C 0.44933 0.61206 0.71156 0.0
C888 C 0.41775 0.62535 0.67413 0.0
C889 C 0.4023 0.59985 0.72696 0.0
O890 O 0.44696 0.59814 0.70482 0.0
O891 O 0.43694 0.62155 0.71165 0.0
O892 O 0.39886 0.61095 0.71651 0.0
O893 O 0.4146 0.59098 0.72331 0.0
C894 C 0.40802 0.57709 0.68266 0.0
O895 O 0.40898 0.62654 0.68703 0.0
O896 O 0.42784 0.61344 0.67403 0.0
In897 In 0.84959 0.17501 0.05054 0.0
O898 O 0.87306 0.16568 0.06278 0.0
O899 O 0.85825 0.18311 0.07588 0.0
C900 C 0.84877 0.15658 0.02286 0.0
C901 C 0.82203 0.16347 0.06534 0.0
C902 C 0.85719 0.20447 0.0374 0.0
O903 O 0.8567 0.15204 0.03551 0.0
O904 O 0.84159 0.17035 0.02414 0.0
O905 O 0.84274 0.20115 0.04243 0.0
O906 O 0.86769 0.19308 0.03939 0.0
C907 C 0.87094 0.17403 0.07582 0.0
O908 O 0.82333 0.1785 0.06119 0.0
O909 O 0.83444 0.15469 0.06196 0.0
In910 In 0.5777 0.09655 0.79963 0.0
O911 O 0.57334 0.07032 0.80959 0.0
O912 O 0.59415 0.08398 0.81823 0.0
C913 C 0.55044 0.10437 0.78228 0.0
C914 C 0.57649 0.11927 0.82371 0.0
C915 C 0.60038 0.0917 0.77567 0.0
O916 O 0.55162 0.09085 0.79005 0.0
O917 O 0.5629 0.11366 0.78332 0.0
O918 O 0.5998 0.10496 0.78392 0.0
O919 O 0.5894 0.08127 0.77931 0.0
C920 C 0.58613 0.07062 0.81862 0.0
O921 O 0.58758 0.1193 0.81268 0.0
O922 O 0.56584 0.10791 0.82238 0.0
In923 In 0.91934 0.8925 0.29655 0.0
O924 O 0.91491 0.90953 0.31853 0.0
O925 O 0.91883 0.92068 0.29508 0.0
C926 C 0.94959 0.887 0.28361 0.0
C927 C 0.91471 0.86993 0.32046 0.0
C928 C 0.896 0.89107 0.27255 0.0
O929 O 0.9447 0.90132 0.28744 0.0
O930 O 0.93933 0.87565 0.28646 0.0
O931 O 0.89359 0.89799 0.28628 0.0
O932 O 0.91002 0.88444 0.27105 0.0
C933 C 0.91546 0.92269 0.31019 0.0
O934 O 0.90468 0.87178 0.30864 0.0
O935 O 0.92709 0.8794 0.32013 0.0
In936 In 0.45332 0.35136 0.17064 0.0
O937 O 0.4402 0.32618 0.17361 0.0
O938 O 0.44766 0.33396 0.14965 0.0
C939 C 0.46504 0.35868 0.20085 0.0
C940 C 0.42706 0.37144 0.16744 0.0
C941 C 0.48184 0.35236 0.15359 0.0
O942 O 0.46096 0.34412 0.19686 0.0
O943 O 0.46294 0.36939 0.18971 0.0
O944 O 0.46956 0.36124 0.14974 0.0
O945 O 0.47978 0.34334 0.16618 0.0
C946 C 0.4408 0.32301 0.15831 0.0
O947 O 0.44027 0.37365 0.15941 0.0
O948 O 0.42725 0.35926 0.17717 0.0
In949 In 0.39514 0.69999 0.91916 0.0
O950 O 0.42202 0.6925 0.92367 0.0
O951 O 0.40858 0.68003 0.9048 0.0
C952 C 0.3874 0.71623 0.94725 0.0
C953 C 0.37219 0.67609 0.91842 0.0
C954 C 0.39961 0.72367 0.89604 0.0
O955 O 0.40018 0.70733 0.9461 0.0
O956 O 0.37882 0.71702 0.93428 0.0
O957 O 0.38603 0.71616 0.89764 0.0
O958 O 0.41058 0.71953 0.90628 0.0
C959 C 0.42214 0.6818 0.91227 0.0
O960 O 0.37316 0.68718 0.90746 0.0
O961 O 0.3827 0.67722 0.92992 0.0
In962 In 0.04887 0.65035 0.67308 0.0
O963 O 0.05543 0.67756 0.67785 0.0
O964 O 0.06704 0.66519 0.65781 0.0
C965 C 0.0353 0.64038 0.70174 0.0
C966 C 0.07286 0.62762 0.67134 0.0
C967 C 0.02265 0.6538 0.65268 0.0
O968 O 0.04273 0.65408 0.70044 0.0
O969 O 0.03487 0.63186 0.68868 0.0
O970 O 0.03484 0.64477 0.649 0.0
O971 O 0.02372 0.66084 0.66652 0.0
C972 C 0.06535 0.67842 0.66582 0.0
O973 O 0.06056 0.62758 0.66168 0.0
O974 O 0.07288 0.63902 0.68202 0.0
In975 In 0.10225 0.29695 0.41881 0.0
O976 O 0.07421 0.29367 0.41981 0.0
O977 O 0.08363 0.31785 0.41586 0.0
C978 C 0.11065 0.28379 0.44828 0.0
C979 C 0.1232 0.3221 0.41313 0.0
C980 C 0.10324 0.27325 0.39515 0.0
O981 O 0.09597 0.28796 0.44495 0.0
O982 O 0.12092 0.28649 0.4369 0.0
O983 O 0.096 0.28688 0.39313 0.0
O984 O 0.1104 0.27174 0.4089 0.0
C985 C 0.07107 0.30868 0.41687 0.0
O986 O 0.12134 0.31031 0.40307 0.0
O987 O 0.1146 0.3211 0.4261 0.0
In988 In 0.45099 0.64836 0.32624 0.0
O989 O 0.43764 0.6276 0.33944 0.0
O990 O 0.42828 0.63528 0.31603 0.0
C991 C 0.47529 0.65209 0.3489 0.0
C992 C 0.43335 0.67598 0.33209 0.0
C993 C 0.46662 0.6403 0.29791 0.0
O994 O 0.46815 0.63843 0.34659 0.0
O995 O 0.47035 0.66363 0.3397 0.0
O996 O 0.45796 0.65321 0.2992 0.0
O997 O 0.4674 0.63167 0.31083 0.0
C998 C 0.4268 0.62578 0.32834 0.0
O999 O 0.44441 0.67535 0.32105 0.0
O1000 O 0.43102 0.66264 0.33981 0.0
In1001 In 0.10171 0.69886 0.07691 0.0
O1002 O 0.12319 0.68532 0.08873 0.0
O1003 O 0.11382 0.67599 0.06592 0.0
C1004 C 0.09722 0.72236 0.1002 0.0
C1005 C 0.07423 0.68111 0.08301 0.0
C1006 C 0.11032 0.71582 0.04952 0.0
O1007 O 0.11076 0.71474 0.09866 0.0
O1008 O 0.08627 0.71833 0.0899 0.0
O1009 O 0.09735 0.70715 0.05014 0.0
O1010 O 0.11873 0.71591 0.06262 0.0
C1011 C 0.12409 0.67441 0.07758 0.0
O1012 O 0.07487 0.69172 0.07153 0.0
O1013 O 0.08752 0.67923 0.09095 0.0
In1014 In 0.04536 0.35669 0.82905 0.0
O1015 O 0.0567 0.38004 0.83973 0.0
O1016 O 0.06924 0.36803 0.81986 0.0
C1017 C 0.01761 0.35301 0.84706 0.0
C1018 C 0.06236 0.33039 0.84047 0.0
C1019 C 0.03208 0.36417 0.79959 0.0
O1020 O 0.02828 0.36386 0.85052 0.0
O1021 O 0.02092 0.3443 0.83455 0.0
O1022 O 0.0394 0.35058 0.80213 0.0
O1023 O 0.03167 0.37385 0.81183 0.0
C1024 C 0.06903 0.3798 0.83011 0.0
O1025 O 0.05656 0.3307 0.82595 0.0
O1026 O 0.05972 0.34326 0.84882 0.0
In1027 In 0.39542 0.29758 0.57889 0.0
O1028 O 0.3737 0.31098 0.59036 0.0
O1029 O 0.38292 0.31999 0.56738 0.0
C1030 C 0.39983 0.27435 0.60247 0.0
C1031 C 0.42256 0.31585 0.58487 0.0
C1032 C 0.38794 0.27994 0.55163 0.0
O1033 O 0.38607 0.28139 0.60031 0.0
O1034 O 0.41105 0.27884 0.59268 0.0
O1035 O 0.40099 0.28843 0.55265 0.0
O1036 O 0.37882 0.28044 0.56423 0.0
C1037 C 0.37258 0.32161 0.57898 0.0
O1038 O 0.42196 0.30541 0.57324 0.0
O1039 O 0.40936 0.31735 0.59305 0.0
In1040 In 0.17288 0.45239 0.3488 0.0
O1041 O 0.16118 0.44009 0.37127 0.0
O1042 O 0.17912 0.42656 0.35755 0.0
C1043 C 0.15639 0.48122 0.34821 0.0
C1044 C 0.16035 0.43903 0.321 0.0
C1045 C 0.20307 0.4641 0.3562 0.0
O1046 O 0.15244 0.46964 0.35796 0.0
O1047 O 0.16879 0.47832 0.33918 0.0
O1048 O 0.19932 0.45947 0.34174 0.0
O1049 O 0.19172 0.46248 0.36679 0.0
C1050 C 0.16914 0.42677 0.36954 0.0
O1051 O 0.1757 0.43859 0.32397 0.0
O1052 O 0.15176 0.4461 0.33187 0.0
In1053 In 0.2971 0.41923 0.10125 0.0
O1054 O 0.31004 0.40404 0.12106 0.0
O1055 O 0.32073 0.42708 0.11425 0.0
C1056 C 0.27364 0.39532 0.10209 0.0
C1057 C 0.31005 0.41665 0.07061 0.0
C1058 C 0.28341 0.44888 0.10808 0.0
O1059 O 0.27192 0.40905 0.10923 0.0
O1060 O 0.28734 0.39346 0.09493 0.0
O1061 O 0.28797 0.44496 0.09367 0.0
O1062 O 0.28598 0.43797 0.1189 0.0
C1063 C 0.32165 0.41427 0.12309 0.0
O1064 O 0.29494 0.41975 0.0731 0.0
O1065 O 0.31871 0.41576 0.08354 0.0
In1066 In 0.32789 0.54791 0.85394 0.0
O1067 O 0.32515 0.55936 0.82803 0.0
O1068 O 0.34793 0.56217 0.84088 0.0
C1069 C 0.29826 0.53511 0.86158 0.0
C1070 C 0.32923 0.57158 0.87704 0.0
C1071 C 0.34539 0.51991 0.84972 0.0
O1072 O 0.30079 0.54253 0.84802 0.0
O1073 O 0.3106 0.53434 0.87109 0.0
O1074 O 0.34886 0.53016 0.861 0.0
O1075 O 0.33313 0.52376 0.8409 0.0
C1076 C 0.33974 0.56503 0.82795 0.0
O1077 O 0.33868 0.55912 0.87734 0.0
O1078 O 0.31902 0.57189 0.86523 0.0
In1079 In 0.19837 0.57715 0.60339 0.0
O1080 O 0.18713 0.59061 0.62536 0.0
O1081 O 0.175 0.56896 0.61663 0.0
C1082 C 0.22114 0.60165 0.60301 0.0
C1083 C 0.18458 0.58055 0.57317 0.0
C1084 C 0.21231 0.54771 0.61038 0.0
O1085 O 0.20595 0.60427 0.60073 0.0
O1086 O 0.22477 0.58679 0.60593 0.0
O1087 O 0.2062 0.55086 0.59636 0.0
O1088 O 0.21123 0.5593 0.62073 0.0
C1089 C 0.17512 0.58076 0.62684 0.0
O1090 O 0.17629 0.5811 0.58635 0.0
O1091 O 0.19972 0.57739 0.57517 0.0
In1092 In 0.16807 0.54617 0.14204 0.0
O1093 O 0.15676 0.55728 0.11884 0.0
O1094 O 0.17731 0.56959 0.12988 0.0
C1095 C 0.14967 0.519 0.14759 0.0
C1096 C 0.15769 0.56438 0.16793 0.0
C1097 C 0.19697 0.53212 0.1337 0.0
O1098 O 0.14645 0.52888 0.13592 0.0
O1099 O 0.16213 0.52281 0.15616 0.0
O1100 O 0.19526 0.54017 0.14702 0.0
O1101 O 0.18419 0.53134 0.12478 0.0
C1102 C 0.16661 0.56942 0.11851 0.0
O1103 O 0.17198 0.55799 0.16765 0.0
O1104 O 0.14907 0.56166 0.15524 0.0
In1105 In 0.19924 0.42201 0.89233 0.0
O1106 O 0.18687 0.41272 0.86893 0.0
O1107 O 0.17452 0.4313 0.88301 0.0
C1108 C 0.22688 0.40354 0.89385 0.0
C1109 C 0.18375 0.40945 0.91902 0.0
C1110 C 0.21227 0.45167 0.88524 0.0
O1111 O 0.21541 0.40039 0.88373 0.0
O1112 O 0.22445 0.41603 0.90286 0.0
O1113 O 0.20573 0.44865 0.89914 0.0
O1114 O 0.21202 0.43982 0.8751 0.0
C1115 C 0.17432 0.42191 0.87053 0.0
O1116 O 0.18944 0.42403 0.919 0.0
O1117 O 0.18575 0.40166 0.90569 0.0
In1118 In 0.32683 0.44921 0.64205 0.0
O1119 O 0.32333 0.43756 0.66779 0.0
O1120 O 0.34618 0.43411 0.65523 0.0
C1121 C 0.29769 0.46302 0.63424 0.0
C1122 C 0.32818 0.42592 0.61855 0.0
C1123 C 0.34516 0.47653 0.64702 0.0
O1124 O 0.29977 0.45519 0.64763 0.0
O1125 O 0.31021 0.46367 0.62495 0.0
O1126 O 0.34838 0.46645 0.63553 0.0
O1127 O 0.33272 0.47287 0.65568 0.0
C1128 C 0.33773 0.43142 0.66803 0.0
O1129 O 0.33783 0.43822 0.61865 0.0
O1130 O 0.31773 0.42559 0.63016 0.0
In1131 In 0.29728 0.57982 0.39139 0.0
O1132 O 0.30913 0.59028 0.3681 0.0
O1133 O 0.32227 0.57185 0.38157 0.0
C1134 C 0.2699 0.59893 0.3924 0.0
C1135 C 0.31163 0.58845 0.42029 0.0
C1136 C 0.28544 0.55015 0.38256 0.0
O1137 O 0.28362 0.60442 0.38746 0.0
O1138 O 0.26998 0.58395 0.39661 0.0
O1139 O 0.29155 0.55273 0.39674 0.0
O1140 O 0.28549 0.56248 0.37297 0.0
C1141 C 0.32202 0.58154 0.36935 0.0
O1142 O 0.30412 0.57485 0.41863 0.0
O1143 O 0.31188 0.5973 0.40751 0.0
In1144 In 0.3512 0.16632 0.45098 0.0
O1145 O 0.37328 0.15378 0.43901 0.0
O1146 O 0.36509 0.1767 0.42892 0.0
C1147 C 0.34408 0.14391 0.4747 0.0
C1148 C 0.3245 0.16161 0.43163 0.0
C1149 C 0.36012 0.1935 0.468 0.0
O1150 O 0.35724 0.14319 0.46633 0.0
O1151 O 0.33485 0.15598 0.47127 0.0
O1152 O 0.34754 0.19321 0.45877 0.0
O1153 O 0.36811 0.18013 0.46861 0.0
C1154 C 0.37517 0.1648 0.4281 0.0
O1155 O 0.32546 0.17349 0.44174 0.0
O1156 O 0.3371 0.15245 0.43109 0.0
In1157 In 0.85027 0.32669 0.54768 0.0
O1158 O 0.82357 0.3219 0.556 0.0
O1159 O 0.83613 0.34281 0.56574 0.0
C1160 C 0.859 0.29807 0.53328 0.0
C1161 C 0.87373 0.32767 0.57103 0.0
C1162 C 0.84591 0.34681 0.52141 0.0
O1163 O 0.84566 0.29959 0.54128 0.0
O1164 O 0.86787 0.31089 0.53274 0.0
O1165 O 0.85607 0.3502 0.53277 0.0
O1166 O 0.83822 0.33341 0.52336 0.0
C1167 C 0.82299 0.33448 0.56523 0.0
O1168 O 0.87334 0.33781 0.55914 0.0
O1169 O 0.86239 0.31693 0.57097 0.0
In1170 In 0.42097 0.10276 0.29877 0.0
O1171 O 0.40871 0.12391 0.31242 0.0
O1172 O 0.4315 0.11477 0.32193 0.0
C1173 C 0.3977 0.09901 0.27507 0.0
C1174 C 0.41518 0.07489 0.31601 0.0
C1175 C 0.44878 0.11084 0.28221 0.0
O1176 O 0.39991 0.11259 0.2824 0.0
O1177 O 0.40733 0.08761 0.27947 0.0
O1178 O 0.44769 0.09781 0.29069 0.0
O1179 O 0.43595 0.11966 0.28213 0.0
C1180 C 0.41968 0.12486 0.32349 0.0
O1181 O 0.42666 0.0759 0.30545 0.0
O1182 O 0.40699 0.08801 0.31809 0.0
In1183 In 0.64616 0.67267 0.04832 0.0
O1184 O 0.67232 0.67631 0.05898 0.0
O1185 O 0.65943 0.65397 0.06407 0.0
C1186 C 0.63713 0.70182 0.0353 0.0
C1187 C 0.62287 0.67047 0.07172 0.0
C1188 C 0.65118 0.65452 0.02083 0.0
O1189 O 0.65059 0.70013 0.04311 0.0
O1190 O 0.62847 0.68889 0.0342 0.0
O1191 O 0.6399 0.65107 0.03106 0.0
O1192 O 0.65964 0.66711 0.02443 0.0
C1193 C 0.67245 0.66229 0.06592 0.0
O1194 O 0.62312 0.66102 0.05926 0.0
O1195 O 0.63425 0.68116 0.07217 0.0
In1196 In 0.58025 0.39326 0.2959 0.0
O1197 O 0.57772 0.41974 0.30611 0.0
O1198 O 0.60054 0.40699 0.30904 0.0
C1199 C 0.55052 0.38493 0.28376 0.0
C1200 C 0.58204 0.37155 0.32079 0.0
C1201 C 0.59762 0.3956 0.26761 0.0
O1202 O 0.55307 0.39887 0.29042 0.0
O1203 O 0.56288 0.3754 0.28344 0.0
O1204 O 0.60111 0.38505 0.2786 0.0
O1205 O 0.58538 0.40469 0.27088 0.0
C1206 C 0.59241 0.42004 0.31151 0.0
O1207 O 0.59116 0.3705 0.30814 0.0
O1208 O 0.57182 0.38336 0.32067 0.0
In1209 In 0.14779 0.82902 0.94939 0.0
O1210 O 0.12465 0.84001 0.93807 0.0
O1211 O 0.13521 0.81873 0.92657 0.0
C1212 C 0.15411 0.85009 0.9744 0.0
C1213 C 0.17304 0.83815 0.92973 0.0
C1214 C 0.13989 0.80103 0.96546 0.0
O1215 O 0.14102 0.85101 0.96594 0.0
O1216 O 0.16363 0.83838 0.97047 0.0
O1217 O 0.15315 0.80234 0.95725 0.0
O1218 O 0.13087 0.81374 0.96547 0.0
C1219 C 0.12403 0.82965 0.92637 0.0
O1220 O 0.17339 0.82469 0.93772 0.0
O1221 O 0.16 0.84649 0.93152 0.0
In1222 In 0.42172 0.89899 0.19969 0.0
O1223 O 0.42042 0.91848 0.17922 0.0
O1224 O 0.4202 0.92689 0.20398 0.0
C1225 C 0.45145 0.88861 0.21055 0.0
C1226 C 0.41257 0.87883 0.17493 0.0
C1227 C 0.40047 0.89745 0.22543 0.0
O1228 O 0.44878 0.90343 0.20645 0.0
O1229 O 0.4393 0.87903 0.20864 0.0
O1230 O 0.39566 0.89943 0.21074 0.0
O1231 O 0.41589 0.89589 0.22705 0.0
C1232 C 0.41924 0.93061 0.1889 0.0
O1233 O 0.40361 0.88145 0.18743 0.0
O1234 O 0.42644 0.88599 0.17515 0.0
In1235 In 0.07617 0.10266 0.69882 0.0
O1236 O 0.09139 0.12275 0.6863 0.0
O1237 O 0.06845 0.11599 0.67536 0.0
C1238 C 0.1 0.10232 0.72236 0.0
C1239 C 0.07809 0.07202 0.68579 0.0
C1240 C 0.04678 0.11063 0.7124 0.0
O1241 O 0.10213 0.09628 0.70817 0.0
O1242 O 0.08606 0.10892 0.72453 0.0
O1243 O 0.04973 0.09631 0.70689 0.0
O1244 O 0.05853 0.12073 0.71088 0.0
C1245 C 0.0812 0.12494 0.67468 0.0
O1246 O 0.07967 0.08496 0.67726 0.0
O1247 O 0.07466 0.07452 0.70082 0.0
H1248 H 0.08084 0.17559 0.36725 0.0
H1249 H 0.07078 0.2009 0.32133 0.0
H1250 H 0.0929 0.20055 0.37853 0.0
H1251 H 0.08348 0.22601 0.33247 0.0
H1252 H 0.08238 0.271 0.3688 0.0
H1253 H 0.07623 0.24643 0.35255 0.0
H1254 H 0.11481 0.21982 0.37827 0.0
H1255 H 0.12043 0.24425 0.39501 0.0
C1256 C 0.08151 0.18644 0.35943 0.0
C1257 C 0.07473 0.18633 0.34345 0.0
C1258 C 0.08859 0.20076 0.36586 0.0
C1259 C 0.08918 0.21536 0.35644 0.0
C1260 C 0.08303 0.21505 0.34015 0.0
C1261 C 0.07584 0.20066 0.33372 0.0
C1262 C 0.08974 0.25998 0.37076 0.0
C1263 C 0.10171 0.25944 0.38332 0.0
C1264 C 0.08628 0.2459 0.36137 0.0
C1265 C 0.09485 0.23103 0.36425 0.0
C1266 C 0.10769 0.23093 0.376 0.0
C1267 C 0.111 0.24495 0.38552 0.0
H1268 H 0.98587 0.86476 0.62004 0.0
H1269 H 0.00942 0.8404 0.66132 0.0
H1270 H 0.01061 0.85992 0.60314 0.0
H1271 H 0.03398 0.83568 0.64458 0.0
H1272 H 0.08047 0.83991 0.61593 0.0
H1273 H 0.05668 0.8513 0.63043 0.0
H1274 H 0.02451 0.83381 0.5916 0.0
H1275 H 0.04845 0.8224 0.57692 0.0
C1276 C 0.99641 0.85862 0.62556 0.0
C1277 C 0.99575 0.85293 0.64197 0.0
C1278 C 0.01049 0.85578 0.61588 0.0
C1279 C 0.02421 0.84747 0.62257 0.0
C1280 C 0.02368 0.8423 0.63915 0.0
C1281 C 0.00959 0.84493 0.64871 0.0
C1282 C 0.06837 0.83874 0.61031 0.0
C1283 C 0.06627 0.83006 0.5954 0.0
C1284 C 0.05476 0.84523 0.61865 0.0
C1285 C 0.03875 0.84323 0.61226 0.0
C1286 C 0.03674 0.83557 0.59677 0.0
C1287 C 0.05041 0.82901 0.58841 0.0
H1288 H 0.42937 0.73493 0.88557 0.0
H1289 H 0.37689 0.74066 0.87752 0.0
H1290 H 0.4349 0.75681 0.86566 0.0
H1291 H 0.38246 0.76285 0.85757 0.0
H1292 H 0.40454 0.81739 0.84969 0.0
H1293 H 0.39469 0.79172 0.86204 0.0
H1294 H 0.43198 0.7645 0.83521 0.0
H1295 H 0.44181 0.79027 0.82273 0.0
C1296 C 0.41901 0.7408 0.87943 0.0
C1297 C 0.4027 0.73623 0.88319 0.0
C1298 C 0.42219 0.7532 0.86789 0.0
C1299 C 0.40911 0.76146 0.86001 0.0
C1300 C 0.39276 0.75665 0.86347 0.0
C1301 C 0.38958 0.744 0.87487 0.0
C1302 C 0.41033 0.80586 0.84607 0.0
C1303 C 0.42405 0.8058 0.83541 0.0
C1304 C 0.40463 0.79116 0.85308 0.0
C1305 C 0.41269 0.77617 0.84971 0.0
C1306 C 0.42565 0.77594 0.83811 0.0
C1307 C 0.43121 0.79065 0.8309 0.0
H1308 H 0.49312 0.17035 0.157 0.0
H1309 H 0.51515 0.14262 0.117 0.0
H1310 H 0.46876 0.17544 0.14016 0.0
H1311 H 0.49051 0.14789 0.09994 0.0
H1312 H 0.45001 0.18332 0.07312 0.0
H1313 H 0.47532 0.1741 0.08721 0.0
H1314 H 0.44603 0.15704 0.12843 0.0
H1315 H 0.42099 0.16615 0.11456 0.0
C1316 C 0.49274 0.16532 0.14459 0.0
C1317 C 0.506 0.15603 0.13833 0.0
C1318 C 0.47876 0.16818 0.13498 0.0
C1319 C 0.47772 0.16194 0.11881 0.0
C1320 C 0.49105 0.15282 0.11238 0.0
C1321 C 0.50505 0.14976 0.12214 0.0
C1322 C 0.44902 0.17731 0.08504 0.0
C1323 C 0.43357 0.17567 0.09285 0.0
C1324 C 0.46346 0.17201 0.09306 0.0
C1325 C 0.46259 0.1651 0.10899 0.0
C1326 C 0.44706 0.16257 0.11627 0.0
C1327 C 0.43272 0.16778 0.1083 0.0
H1328 H 0.05666 0.78942 0.17423 0.0
H1329 H 0.09192 0.81692 0.14505 0.0
H1330 H 0.06612 0.76372 0.16128 0.0
H1331 H 0.10145 0.79129 0.1323 0.0
H1332 H 0.12008 0.73987 0.118 0.0
H1333 H 0.11462 0.76248 0.13753 0.0
H1334 H 0.06212 0.75569 0.13062 0.0
H1335 H 0.06752 0.73343 0.11106 0.0
C1336 C 0.06673 0.78991 0.1654 0.0
C1337 C 0.07346 0.80513 0.1605 0.0
C1338 C 0.07208 0.77525 0.15796 0.0
C1339 C 0.08443 0.77558 0.14573 0.0
C1340 C 0.09199 0.79068 0.14176 0.0
C1341 C 0.08647 0.80534 0.14899 0.0
C1342 C 0.1074 0.74313 0.12084 0.0
C1343 C 0.09422 0.73505 0.11294 0.0
C1344 C 0.10429 0.75602 0.13197 0.0
C1345 C 0.08796 0.76074 0.13562 0.0
C1346 C 0.07482 0.75216 0.12821 0.0
C1347 C 0.07792 0.73953 0.11689 0.0
H1348 H 0.42533 0.84167 0.39459 0.0
H1349 H 0.45203 0.80482 0.42253 0.0
H1350 H 0.45112 0.85061 0.38169 0.0
H1351 H 0.47785 0.81372 0.4095 0.0
H1352 H 0.50844 0.81508 0.35989 0.0
H1353 H 0.48573 0.81008 0.37905 0.0
H1354 H 0.48024 0.86266 0.38648 0.0
H1355 H 0.50324 0.8677 0.36733 0.0
C1356 C 0.43678 0.83576 0.39826 0.0
C1357 C 0.43668 0.82246 0.40944 0.0
C1358 C 0.45154 0.84092 0.39093 0.0
C1359 C 0.46643 0.83274 0.39449 0.0
C1360 C 0.46649 0.82013 0.40645 0.0
C1361 C 0.45175 0.81511 0.41396 0.0
C1362 C 0.50249 0.82558 0.36572 0.0
C1363 C 0.50751 0.84178 0.36206 0.0
C1364 C 0.4896 0.8227 0.37681 0.0
C1365 C 0.4813 0.83598 0.38431 0.0
C1366 C 0.48646 0.85221 0.38086 0.0
C1367 C 0.49959 0.85509 0.36994 0.0
H1368 H 0.3769 0.2558 0.61913 0.0
H1369 H 0.42942 0.26431 0.61448 0.0
H1370 H 0.3824 0.23297 0.63836 0.0
H1371 H 0.43486 0.2418 0.6337 0.0
H1372 H 0.44076 0.20651 0.67534 0.0
H1373 H 0.43048 0.23239 0.6635 0.0
H1374 H 0.39637 0.20492 0.633 0.0
H1375 H 0.40667 0.17911 0.64471 0.0
C1376 C 0.38957 0.25296 0.62243 0.0
C1377 C 0.40275 0.26167 0.61523 0.0
C1378 C 0.3927 0.23993 0.63339 0.0
C1379 C 0.40904 0.23569 0.63755 0.0
C1380 C 0.42214 0.24494 0.6309 0.0
C1381 C 0.41903 0.25772 0.61977 0.0
C1382 C 0.43077 0.20605 0.66644 0.0
C1383 C 0.42464 0.19083 0.66077 0.0
C1384 C 0.42494 0.22083 0.65963 0.0
C1385 C 0.41274 0.22062 0.64725 0.0
C1386 C 0.4057 0.20546 0.64259 0.0
C1387 C 0.41167 0.19069 0.64922 0.0
H1388 H 0.06943 0.17234 0.87698 0.0
H1389 H 0.04592 0.1742 0.9249 0.0
H1390 H 0.04491 0.15981 0.86528 0.0
H1391 H 0.02121 0.16112 0.91318 0.0
H1392 H 0.97462 0.16194 0.87827 0.0
H1393 H -0.00087 0.16885 0.8944 0.0
H1394 H 0.0282 0.13553 0.86438 0.0
H1395 H 0.0038 0.12911 0.84791 0.0
C1396 C 0.05907 0.16984 0.88509 0.0
C1397 C 0.05956 0.17435 0.90185 0.0
C1398 C 0.04502 0.16248 0.8784 0.0
C1399 C 0.03108 0.15935 0.88829 0.0
C1400 C 0.0317 0.16348 0.9052 0.0
C1401 C 0.04584 0.17091 0.91192 0.0
C1402 C 0.98619 0.15586 0.87534 0.0
C1403 C 0.98738 0.14519 0.86168 0.0
C1404 C 0.00023 0.15976 0.88464 0.0
C1405 C 0.0157 0.15295 0.88051 0.0
C1406 C 0.01656 0.14129 0.86763 0.0
C1407 C 0.00257 0.13753 0.85825 0.0
H1408 H 0.35253 0.09471 0.18048 0.0
H1409 H 0.32272 0.0603 0.20838 0.0
H1410 H 0.36541 0.1043 0.20602 0.0
H1411 H 0.33572 0.06985 0.23396 0.0
H1412 H 0.3857 0.06971 0.26416 0.0
H1413 H 0.36596 0.06496 0.24193 0.0
H1414 H 0.36121 0.11764 0.2347 0.0
H1415 H 0.38096 0.12245 0.25726 0.0
C1416 C 0.34843 0.0895 0.19212 0.0
C1417 C 0.33677 0.07664 0.19246 0.0
C1418 C 0.35575 0.09505 0.20674 0.0
C1419 C 0.35167 0.08769 0.22191 0.0
C1420 C 0.33917 0.07563 0.22237 0.0
C1421 C 0.33168 0.07023 0.20776 0.0
C1422 C 0.38032 0.08029 0.25796 0.0
C1423 C 0.38494 0.09644 0.26232 0.0
C1424 C 0.36889 0.07757 0.24535 0.0
C1425 C 0.362 0.09094 0.23667 0.0
C1426 C 0.36634 0.10713 0.24124 0.0
C1427 C 0.37761 0.10987 0.2541 0.0
H1428 H 0.18265 0.14034 0.50749 0.0
H1429 H 0.13009 0.13207 0.50291 0.0
H1430 H 0.18765 0.12172 0.48431 0.0
H1431 H 0.13514 0.11356 0.47937 0.0
H1432 H 0.15658 0.10606 0.42411 0.0
H1433 H 0.14765 0.11924 0.44981 0.0
H1434 H 0.18353 0.09057 0.47699 0.0
H1435 H 0.19234 0.0772 0.45133 0.0
C1436 C 0.17217 0.13449 0.50154 0.0
C1437 C 0.15598 0.13769 0.50692 0.0
C1438 C 0.17505 0.12373 0.48838 0.0
C1439 C 0.16178 0.11615 0.48016 0.0
C1440 C 0.14556 0.11925 0.48556 0.0
C1441 C 0.14269 0.12981 0.49898 0.0
C1442 C 0.16226 0.10228 0.43564 0.0
C1443 C 0.17523 0.09071 0.43574 0.0
C1444 C 0.15711 0.10977 0.45032 0.0
C1445 C 0.16502 0.106 0.4653 0.0
C1446 C 0.17733 0.09375 0.46555 0.0
C1447 C 0.1823 0.08605 0.4509 0.0
H1448 H 0.16816 0.92713 0.70038 0.0
H1449 H 0.13036 0.90864 0.66748 0.0
H1450 H 0.15383 0.91439 0.72383 0.0
H1451 H 0.11621 0.89591 0.69079 0.0
H1452 H 0.08436 0.90482 0.73791 0.0
H1453 H 0.10112 0.91044 0.71357 0.0
H1454 H 0.14326 0.88756 0.7371 0.0
H1455 H 0.12631 0.88183 0.76163 0.0
C1456 C 0.15703 0.92003 0.69811 0.0
C1457 C 0.15023 0.91909 0.68216 0.0
C1458 C 0.14887 0.91269 0.71151 0.0
C1459 C 0.13379 0.90437 0.70913 0.0
C1460 C 0.12767 0.90248 0.693 0.0
C1461 C 0.1358 0.90975 0.67967 0.0
C1462 C 0.09712 0.90076 0.73781 0.0
C1463 C 0.10405 0.89292 0.75164 0.0
C1464 C 0.10671 0.90389 0.72384 0.0
C1465 C 0.12349 0.89941 0.72344 0.0
C1466 C 0.13036 0.89119 0.73712 0.0
C1467 C 0.12066 0.88783 0.75107 0.0
H1468 H 0.33575 0.8852 0.92071 0.0
H1469 H 0.31139 0.92132 0.95161 0.0
H1470 H 0.34499 0.87036 0.94517 0.0
H1471 H 0.32047 0.9062 0.97627 0.0
H1472 H 0.34832 0.87792 0.01754 0.0
H1473 H 0.34452 0.89593 0.99341 0.0
H1474 H 0.32866 0.85378 0.9647 0.0
H1475 H 0.33253 0.83595 0.98855 0.0
C1476 C 0.33255 0.89008 0.93276 0.0
C1477 C 0.32266 0.90428 0.93427 0.0
C1478 C 0.3378 0.88155 0.94677 0.0
C1479 C 0.3332 0.88695 0.96261 0.0
C1480 C 0.32423 0.90177 0.9642 0.0
C1481 C 0.319 0.91039 0.95011 0.0
C1482 C 0.34419 0.87254 0.006 0.0
C1483 C 0.34072 0.85555 0.00489 0.0
C1484 C 0.34194 0.88284 0.99225 0.0
C1485 C 0.33639 0.87625 0.97716 0.0
C1486 C 0.33322 0.8592 0.97607 0.0
C1487 C 0.33533 0.84899 0.98977 0.0
H1488 H 0.33004 0.93846 0.29258 0.0
H1489 H 0.35667 0.90402 0.32344 0.0
H1490 H 0.34366 0.92714 0.26818 0.0
H1491 H 0.36976 0.89216 0.29904 0.0
H1492 H 0.40882 0.89666 0.25795 0.0
H1493 H 0.39106 0.90177 0.28156 0.0
H1494 H 0.34872 0.9052 0.24909 0.0
H1495 H 0.36678 0.90063 0.22528 0.0
C1496 C 0.33845 0.92814 0.29407 0.0
C1497 C 0.3425 0.92227 0.30988 0.0
C1498 C 0.34621 0.92158 0.28008 0.0
C1499 C 0.35804 0.9089 0.28165 0.0
C1500 C 0.36106 0.9022 0.29741 0.0
C1501 C 0.35348 0.90891 0.31139 0.0
C1502 C 0.39569 0.89828 0.25586 0.0
C1503 C 0.38921 0.89838 0.23977 0.0
C1504 C 0.38544 0.90109 0.26943 0.0
C1505 C 0.36841 0.90394 0.26727 0.0
C1506 C 0.36181 0.90329 0.25119 0.0
C1507 C 0.37212 0.90058 0.23756 0.0
H1508 H 0.29262 0.0801 0.54409 0.0
H1509 H 0.3415 0.08727 0.56439 0.0
H1510 H 0.30143 0.09315 0.51835 0.0
H1511 H 0.35022 0.10054 0.53877 0.0
H1512 H 0.36285 0.11837 0.48676 0.0
H1513 H 0.35525 0.09874 0.50857 0.0
H1514 H 0.30756 0.1224 0.51307 0.0
H1515 H 0.31504 0.14176 0.49137 0.0
C1516 C 0.30534 0.08413 0.54292 0.0
C1517 C 0.31631 0.08286 0.55632 0.0
C1518 C 0.31036 0.0917 0.52823 0.0
C1519 C 0.32644 0.09813 0.52665 0.0
C1520 C 0.33777 0.09568 0.53958 0.0
C1521 C 0.33275 0.08812 0.55429 0.0
C1522 C 0.35072 0.11926 0.49237 0.0
C1523 C 0.33957 0.13164 0.48745 0.0
C1524 C 0.34638 0.10805 0.50484 0.0
C1525 C 0.33077 0.10895 0.51247 0.0
C1526 C 0.31956 0.12116 0.50725 0.0
C1527 C 0.32392 0.13238 0.49492 0.0
H1528 H 0.17595 0.06963 0.79305 0.0
H1529 H 0.12904 0.0745 0.81815 0.0
H1530 H 0.16385 0.08224 0.76825 0.0
H1531 H 0.11698 0.08657 0.79359 0.0
H1532 H 0.09979 0.11735 0.75246 0.0
H1533 H 0.11681 0.11054 0.77637 0.0
H1534 H 0.14374 0.07488 0.74704 0.0
H1535 H 0.12708 0.08218 0.72297 0.0
C1536 C 0.16312 0.07346 0.79329 0.0
C1537 C 0.15343 0.07105 0.80751 0.0
C1538 C 0.15618 0.08062 0.77911 0.0
C1539 C 0.13946 0.08552 0.77895 0.0
C1540 C 0.12996 0.0833 0.79333 0.0
C1541 C 0.13686 0.0762 0.8074 0.0
C1542 C 0.10957 0.10831 0.75106 0.0
C1543 C 0.11198 0.10015 0.73594 0.0
C1544 C 0.11926 0.10432 0.76477 0.0
C1545 C 0.13143 0.09192 0.76371 0.0
C1546 C 0.13455 0.08454 0.74828 0.0
C1547 C 0.12494 0.08866 0.7345 0.0
H1548 H 0.20583 0.91364 0.04346 0.0
H1549 H 0.15682 0.90782 0.0639 0.0
H1550 H 0.19682 0.90013 0.01805 0.0
H1551 H 0.1479 0.89405 0.03861 0.0
H1552 H 0.13535 0.87562 0.98651 0.0
H1553 H 0.14297 0.89524 0.00833 0.0
H1554 H 0.19023 0.87085 0.01353 0.0
H1555 H 0.18273 0.85152 0.99182 0.0
C1556 C 0.19305 0.9098 0.04239 0.0
C1557 C 0.18209 0.91159 0.05573 0.0
C1558 C 0.18792 0.90196 0.02789 0.0
C1559 C 0.17174 0.89575 0.02646 0.0
C1560 C 0.16043 0.89872 0.03931 0.0
C1561 C 0.16556 0.90657 0.05382 0.0
C1562 C 0.14737 0.87454 0.99232 0.0
C1563 C 0.15842 0.86201 0.98753 0.0
C1564 C 0.15173 0.88574 0.00478 0.0
C1565 C 0.16726 0.88469 0.01253 0.0
C1566 C 0.17831 0.87222 0.00758 0.0
C1567 C 0.17393 0.86102 0.99525 0.0
H1568 H 0.24428 0.39517 0.11866 0.0
H1569 H 0.27221 0.36844 0.08182 0.0
H1570 H 0.22022 0.37794 0.11294 0.0
H1571 H 0.24801 0.35164 0.0756 0.0
H1572 H 0.20278 0.31947 0.07062 0.0
H1573 H 0.22759 0.33137 0.08329 0.0
H1574 H 0.20161 0.37757 0.09024 0.0
H1575 H 0.17699 0.36562 0.07816 0.0
C1576 C 0.24532 0.38547 0.10948 0.0
C1577 C 0.26003 0.38327 0.10054 0.0
C1578 C 0.23152 0.37566 0.10612 0.0
C1579 C 0.23207 0.36359 0.09359 0.0
C1580 C 0.24714 0.36072 0.0854 0.0
C1581 C 0.26101 0.37042 0.0889 0.0
C1582 C 0.20237 0.33207 0.07512 0.0
C1583 C 0.18799 0.34165 0.07331 0.0
C1584 C 0.21658 0.33892 0.08229 0.0
C1585 C 0.21663 0.35544 0.08779 0.0
C1586 C 0.202 0.36474 0.08646 0.0
C1587 C 0.18788 0.35792 0.07935 0.0
H1588 H 0.66353 0.12654 0.91465 0.0
H1589 H 0.69402 0.16794 0.92912 0.0
H1590 H 0.68771 0.11257 0.90344 0.0
H1591 H 0.71837 0.15379 0.91791 0.0
H1592 H 0.75741 0.12533 0.88706 0.0
H1593 H 0.73216 0.14146 0.89202 0.0
H1594 H 0.71143 0.10039 0.9191 0.0
H1595 H 0.73646 0.08443 0.91424 0.0
C1596 C 0.67537 0.13278 0.9152 0.0
C1597 C 0.67694 0.14824 0.92297 0.0
C1598 C 0.68921 0.12475 0.90881 0.0
C1599 C 0.70493 0.13199 0.91002 0.0
C1600 C 0.70638 0.14795 0.91677 0.0
C1601 C 0.69247 0.15602 0.92323 0.0
C1602 C 0.74733 0.11973 0.89387 0.0
C1603 C 0.74886 0.10364 0.90028 0.0
C1604 C 0.73297 0.12897 0.89678 0.0
C1605 C 0.71984 0.12215 0.90589 0.0
C1606 C 0.72125 0.1059 0.91185 0.0
C1607 C 0.73562 0.09678 0.90914 0.0
H1608 H 0.11866 0.41965 0.16891 0.0
H1609 H 0.0744 0.44806 0.17837 0.0
H1610 H 0.13249 0.44433 0.15888 0.0
H1611 H 0.08845 0.47303 0.16822 0.0
H1612 H 0.11925 0.5105 0.13513 0.0
H1613 H 0.10292 0.48578 0.1419 0.0
H1614 H 0.14146 0.46961 0.1751 0.0
H1615 H 0.15761 0.49408 0.16848 0.0
C1616 C 0.11181 0.43116 0.16869 0.0
C1617 C 0.0955 0.43197 0.17462 0.0
C1618 C 0.11976 0.44529 0.16297 0.0
C1619 C 0.11161 0.4606 0.16299 0.0
C1620 C 0.09499 0.46134 0.16806 0.0
C1621 C 0.08699 0.4471 0.1739 0.0
C1622 C 0.12419 0.5016 0.14383 0.0
C1623 C 0.13972 0.50415 0.15123 0.0
C1624 C 0.11483 0.48756 0.14776 0.0
C1625 C 0.121 0.47577 0.15892 0.0
C1626 C 0.1365 0.47839 0.16628 0.0
C1627 C 0.14572 0.49244 0.16254 0.0
H1628 H 0.73788 0.87662 0.37837 0.0
H1629 H 0.73226 0.88578 0.43069 0.0
H1630 H 0.76068 0.85748 0.38424 0.0
H1631 H 0.75478 0.86659 0.43651 0.0
H1632 H 0.78775 0.82201 0.44258 0.0
H1633 H 0.76225 0.83569 0.4336 0.0
H1634 H 0.78974 0.86262 0.3966 0.0
H1635 H 0.81517 0.84914 0.40566 0.0
C1636 C 0.74141 0.87441 0.3911 0.0
C1637 C 0.73343 0.88275 0.40407 0.0
C1638 C 0.75441 0.86349 0.39444 0.0
C1639 C 0.75938 0.86051 0.41082 0.0
C1640 C 0.75104 0.86849 0.42379 0.0
C1641 C 0.73827 0.87958 0.42044 0.0
C1642 C 0.78825 0.83057 0.43229 0.0
C1643 C 0.80341 0.83464 0.42489 0.0
C1644 C 0.77371 0.83844 0.42722 0.0
C1645 C 0.77409 0.85026 0.41448 0.0
C1646 C 0.78909 0.85348 0.40637 0.0
C1647 C 0.80364 0.84583 0.41161 0.0
H1648 H 0.91254 0.04407 0.20631 0.0
H1649 H 0.9047 0.06608 0.15828 0.0
H1650 H 0.89964 0.01855 0.19667 0.0
H1651 H 0.89163 0.04065 0.14873 0.0
H1652 H 0.87559 0.98817 0.13451 0.0
H1653 H 0.89433 0.01054 0.14269 0.0
H1654 H 0.87029 0.01307 0.19033 0.0
H1655 H 0.85178 0.99083 0.18225 0.0
C1656 C 0.90839 0.04334 0.1936 0.0
C1657 C 0.90945 0.05712 0.18311 0.0
C1658 C 0.9009 0.02877 0.18812 0.0
C1659 C 0.89438 0.0277 0.17203 0.0
C1660 C 0.89657 0.04107 0.16117 0.0
C1661 C 0.90402 0.05566 0.16666 0.0
C1662 C 0.87439 0.9935 0.14673 0.0
C1663 C 0.86218 0.98782 0.15772 0.0
C1664 C 0.88509 0.00628 0.15141 0.0
C1665 C 0.88387 0.01346 0.1672 0.0
C1666 C 0.87177 0.0076 0.1782 0.0
C1667 C 0.86103 0.99496 0.1735 0.0
H1668 H 0.21692 0.63306 0.59129 0.0
H1669 H 0.25405 0.59929 0.60952 0.0
H1670 H 0.23854 0.65305 0.58435 0.0
H1671 H 0.27557 0.61911 0.60252 0.0
H1672 H 0.31154 0.65961 0.59631 0.0
H1673 H 0.28733 0.64652 0.6086 0.0
H1674 H 0.26053 0.65319 0.56289 0.0
H1675 H 0.2847 0.66648 0.55065 0.0
C1676 C 0.22967 0.63003 0.59407 0.0
C1677 C 0.23383 0.61459 0.60086 0.0
C1678 C 0.24203 0.64144 0.59002 0.0
C1679 C 0.25875 0.63765 0.59285 0.0
C1680 C 0.2628 0.62251 0.60038 0.0
C1681 C 0.25048 0.61109 0.6043 0.0
C1682 C 0.30034 0.65866 0.58902 0.0
C1683 C 0.30007 0.66387 0.57245 0.0
C1684 C 0.28651 0.65108 0.59603 0.0
C1685 C 0.27212 0.64858 0.58663 0.0
C1686 C 0.27141 0.655 0.57048 0.0
C1687 C 0.28527 0.66257 0.56345 0.0
H1688 H 0.08005 0.54911 0.31797 0.0
H1689 H 0.12114 0.58082 0.33058 0.0
H1690 H 0.09523 0.52527 0.32896 0.0
H1691 H 0.1361 0.5572 0.34163 0.0
H1692 H 0.16542 0.50918 0.33212 0.0
H1693 H 0.14867 0.53356 0.32672 0.0
H1694 H 0.10836 0.51226 0.35453 0.0
H1695 H 0.12526 0.48764 0.35996 0.0
C1696 C 0.09215 0.55103 0.32336 0.0
C1697 C 0.09951 0.56675 0.3232 0.0
C1698 C 0.10081 0.53742 0.32971 0.0
C1699 C 0.11693 0.53938 0.33594 0.0
C1700 C 0.12382 0.55528 0.33663 0.0
C1701 C 0.11522 0.56881 0.33033 0.0
C1702 C 0.15306 0.50976 0.33726 0.0
C1703 C 0.14664 0.49654 0.34646 0.0
C1704 C 0.14348 0.52376 0.33423 0.0
C1705 C 0.12721 0.52482 0.34024 0.0
C1706 C 0.12084 0.51171 0.3497 0.0
C1707 C 0.13053 0.49772 0.35289 0.0
H1708 H 0.33651 0.4941 0.83036 0.0
H1709 H 0.37592 0.51149 0.86193 0.0
H1710 H 0.35234 0.46933 0.82411 0.0
H1711 H 0.39195 0.48646 0.85555 0.0
H1712 H 0.41962 0.44886 0.81856 0.0
H1713 H 0.40563 0.47355 0.82934 0.0
H1714 H 0.36221 0.44432 0.83979 0.0
H1715 H 0.376 0.41986 0.82906 0.0
C1716 C 0.34854 0.49258 0.83604 0.0
C1717 C 0.35497 0.50469 0.84666 0.0
C1718 C 0.35758 0.47835 0.83252 0.0
C1719 C 0.37333 0.47595 0.83943 0.0
C1720 C 0.37984 0.48806 0.85005 0.0
C1721 C 0.37066 0.50228 0.85375 0.0
C1722 C 0.4072 0.44771 0.82342 0.0
C1723 C 0.39882 0.4325 0.82276 0.0
C1724 C 0.39923 0.46179 0.82963 0.0
C1725 C 0.38278 0.46084 0.83518 0.0
C1726 C 0.3748 0.44544 0.83533 0.0
C1727 C 0.38273 0.43144 0.82921 0.0
H1728 H 0.89878 0.72904 0.6275 0.0
H1729 H 0.90339 0.75735 0.58253 0.0
H1730 H 0.90798 0.753 0.64355 0.0
H1731 H 0.91158 0.78148 0.59843 0.0
H1732 H 0.94707 0.81338 0.62593 0.0
H1733 H 0.93567 0.78951 0.61198 0.0
H1734 H 0.90346 0.78041 0.65371 0.0
H1735 H 0.9157 0.80415 0.66811 0.0
C1736 C 0.90137 0.74053 0.62113 0.0
C1737 C 0.90061 0.74136 0.6038 0.0
C1738 C 0.9066 0.75426 0.6303 0.0
C1739 C 0.9109 0.7691 0.62228 0.0
C1740 C 0.90896 0.77012 0.60501 0.0
C1741 C 0.90411 0.75635 0.59588 0.0
C1742 C 0.93759 0.80626 0.63217 0.0
C1743 C 0.93218 0.81066 0.64804 0.0
C1744 C 0.9309 0.79263 0.6241 0.0
C1745 C 0.91833 0.78319 0.63152 0.0
C1746 C 0.91314 0.78737 0.64763 0.0
C1747 C 0.9201 0.80096 0.65587 0.0
H1748 H 0.00376 0.12695 0.36749 0.0
H1749 H 0.00884 0.17948 0.35937 0.0
H1750 H 0.98025 0.13216 0.38599 0.0
H1751 H 0.98567 0.18465 0.37796 0.0
H1752 H 0.95223 0.18959 0.42209 0.0
H1753 H 0.97797 0.18068 0.40891 0.0
H1754 H 0.95091 0.14474 0.38021 0.0
H1755 H 0.92515 0.15375 0.3932 0.0
C1756 C -4e-05 0.13958 0.3698 0.0
C1757 C 0.00801 0.15281 0.36195 0.0
C1758 C 0.98655 0.14254 0.38034 0.0
C1759 C 0.98127 0.1588 0.38346 0.0
C1760 C 0.98964 0.17201 0.37594 0.0
C1761 C 0.00279 0.16904 0.36519 0.0
C1762 C 0.95184 0.17952 0.41326 0.0
C1763 C 0.93671 0.17244 0.40854 0.0
C1764 C 0.96653 0.1745 0.40569 0.0
C1765 C 0.96635 0.16213 0.39349 0.0
C1766 C 0.95138 0.15424 0.38965 0.0
C1767 C 0.93666 0.15944 0.39703 0.0
H1768 H 0.55759 0.20817 0.17111 0.0
H1769 H 0.58912 0.17952 0.13888 0.0
H1770 H 0.56815 0.23367 0.15863 0.0
H1771 H 0.59977 0.20494 0.12661 0.0
H1772 H 0.62171 0.25562 0.1141 0.0
H1773 H 0.6154 0.23245 0.13269 0.0
H1774 H 0.56331 0.24334 0.12847 0.0
H1775 H 0.56952 0.26616 0.10982 0.0
C1776 C 0.56706 0.20735 0.16167 0.0
C1777 C 0.57243 0.19192 0.15582 0.0
C1778 C 0.57304 0.22191 0.15451 0.0
C1779 C 0.5847 0.22122 0.14163 0.0
C1780 C 0.59088 0.20581 0.1366 0.0
C1781 C 0.58471 0.19128 0.14355 0.0
C1782 C 0.60895 0.25312 0.11732 0.0
C1783 C 0.59609 0.26253 0.11044 0.0
C1784 C 0.60536 0.23992 0.12792 0.0
C1785 C 0.58889 0.23621 0.13205 0.0
C1786 C 0.57612 0.24607 0.12566 0.0
C1787 C 0.57967 0.25902 0.11486 0.0
H1788 H 0.57151 0.83557 0.89142 0.0
H1789 H 0.54338 0.80062 0.92045 0.0
H1790 H 0.54632 0.84424 0.8774 0.0
H1791 H 0.51796 0.80971 0.90647 0.0
H1792 H 0.47663 0.84661 0.88228 0.0
H1793 H 0.50022 0.83993 0.90033 0.0
H1794 H 0.52785 0.82317 0.85789 0.0
H1795 H 0.50441 0.8294 0.84 0.0
C1796 C 0.5599 0.83 0.89509 0.0
C1797 C 0.55944 0.8173 0.90695 0.0
C1798 C 0.54551 0.83497 0.88703 0.0
C1799 C 0.53032 0.82756 0.89083 0.0
C1800 C 0.52958 0.81561 0.90341 0.0
C1801 C 0.54409 0.81042 0.91135 0.0
C1802 C 0.48775 0.84147 0.87687 0.0
C1803 C 0.48873 0.83855 0.85976 0.0
C1804 C 0.50115 0.83761 0.88718 0.0
C1805 C 0.51577 0.83114 0.88041 0.0
C1806 C 0.51671 0.82825 0.86334 0.0
C1807 C 0.50329 0.83178 0.85314 0.0
H1808 H 0.90474 0.18323 0.83741 0.0
H1809 H 0.954 0.20376 0.83524 0.0
H1810 H 0.89512 0.20776 0.85206 0.0
H1811 H 0.94431 0.22843 0.84967 0.0
H1812 H 0.92743 0.2535 0.89791 0.0
H1813 H 0.93595 0.23206 0.87865 0.0
H1814 H 0.89024 0.23799 0.85166 0.0
H1815 H 0.88157 0.25948 0.87118 0.0
C1816 C 0.91342 0.19318 0.83968 0.0
C1817 C 0.93017 0.1915 0.83534 0.0
C1818 C 0.90789 0.20725 0.84804 0.0
C1819 C 0.91902 0.2199 0.85225 0.0
C1820 C 0.93551 0.21872 0.84687 0.0
C1821 C 0.94103 0.20467 0.83848 0.0
C1822 C 0.91917 0.25025 0.88788 0.0
C1823 C 0.9038 0.25812 0.88609 0.0
C1824 C 0.92414 0.23808 0.87672 0.0
C1825 C 0.91385 0.23345 0.86352 0.0
C1826 C 0.89842 0.24127 0.86174 0.0
C1827 C 0.89346 0.25355 0.8729 0.0
H1828 H 0.4925 0.18332 0.64545 0.0
H1829 H 0.48634 0.13618 0.62111 0.0
H1830 H 0.51381 0.19084 0.62565 0.0
H1831 H 0.5078 0.1438 0.60108 0.0
H1832 H 0.56363 0.15714 0.58848 0.0
H1833 H 0.53831 0.14843 0.60234 0.0
H1834 H 0.51803 0.19744 0.59612 0.0
H1835 H 0.54346 0.20622 0.58243 0.0
C1836 C 0.49565 0.17459 0.63579 0.0
C1837 C 0.48783 0.15912 0.63488 0.0
C1838 C 0.50775 0.17898 0.62432 0.0
C1839 C 0.5124 0.16797 0.61172 0.0
C1840 C 0.50448 0.15252 0.61069 0.0
C1841 C 0.49222 0.14817 0.62212 0.0
C1842 C 0.55361 0.16594 0.58971 0.0
C1843 C 0.5556 0.18242 0.58457 0.0
C1844 C 0.53907 0.16093 0.5976 0.0
C1845 C 0.5263 0.17233 0.60055 0.0
C1846 C 0.52781 0.18847 0.59427 0.0
C1847 C 0.54231 0.19346 0.58633 0.0
H1848 H 0.58937 0.81876 0.35529 0.0
H1849 H 0.55503 0.78986 0.32636 0.0
H1850 H 0.59949 0.79356 0.3685 0.0
H1851 H 0.56509 0.76465 0.3397 0.0
H1852 H 0.56713 0.73402 0.38915 0.0
H1853 H 0.56119 0.7566 0.37014 0.0
H1854 H 0.61351 0.76511 0.36372 0.0
H1855 H 0.61952 0.7422 0.38272 0.0
C1856 C 0.58424 0.80698 0.3515 0.0
C1857 C 0.57131 0.80626 0.33993 0.0
C1858 C 0.59009 0.79257 0.359 0.0
C1859 C 0.58296 0.77721 0.35521 0.0
C1860 C 0.5707 0.77638 0.34292 0.0
C1861 C 0.565 0.79078 0.33525 0.0
C1862 C 0.57738 0.74061 0.38359 0.0
C1863 C 0.59378 0.73645 0.38747 0.0
C1864 C 0.57398 0.75343 0.37258 0.0
C1865 C 0.58689 0.76253 0.36541 0.0
C1866 C 0.60334 0.75826 0.3691 0.0
C1867 C 0.60676 0.74518 0.37993 0.0
H1868 H 0.92321 0.82699 0.11798 0.0
H1869 H 0.95287 0.81312 0.07576 0.0
H1870 H 0.94787 0.83637 0.13233 0.0
H1871 H 0.9778 0.82251 0.09035 0.0
H1872 H 0.01651 0.85409 0.12061 0.0
H1873 H 0.99204 0.84813 0.1036 0.0
H1874 H 0.97134 0.81962 0.14371 0.0
H1875 H 0.99551 0.82549 0.16054 0.0
C1876 C 0.935 0.82609 0.11168 0.0
C1877 C 0.93615 0.81911 0.09582 0.0
C1878 C 0.94912 0.83143 0.11994 0.0
C1879 C 0.96475 0.82993 0.11255 0.0
C1880 C 0.96587 0.82382 0.09631 0.0
C1881 C 0.95165 0.81841 0.088 0.0
C1882 C 0.00668 0.84659 0.12574 0.0
C1883 C 0.00786 0.84031 0.1419 0.0
C1884 C 0.99276 0.84313 0.116 0.0
C1885 C 0.97976 0.83354 0.1224 0.0
C1886 C 0.98105 0.82726 0.13854 0.0
C1887 C 0.99494 0.83056 0.14815 0.0
H1888 H 0.6495 0.9061 0.81606 0.0
H1889 H 0.67685 0.94467 0.79128 0.0
H1890 H 0.63721 0.89786 0.78984 0.0
H1891 H 0.66448 0.9364 0.7649 0.0
H1892 H 0.61565 0.93407 0.73292 0.0
H1893 H 0.63491 0.93922 0.75549 0.0
H1894 H 0.6423 0.88666 0.76128 0.0
H1895 H 0.62295 0.88147 0.73858 0.0
C1896 C 0.65314 0.91259 0.80493 0.0
C1897 C 0.66399 0.92612 0.8057 0.0
C1898 C 0.64618 0.90781 0.78989 0.0
C1899 C 0.64981 0.91656 0.77535 0.0
C1900 C 0.66137 0.92953 0.77597 0.0
C1901 C 0.6685 0.9342 0.79102 0.0
C1902 C 0.62156 0.92362 0.73885 0.0
C1903 C 0.61769 0.90737 0.73412 0.0
C1904 C 0.63271 0.92657 0.75168 0.0
C1905 C 0.6401 0.91334 0.76015 0.0
C1906 C 0.63671 0.89708 0.75501 0.0
C1907 C 0.62568 0.89413 0.74202 0.0
H1908 H 0.82954 0.83351 0.50294 0.0
H1909 H 0.85409 0.87369 0.47773 0.0
H1910 H 0.82446 0.85133 0.52657 0.0
H1911 H 0.84896 0.8917 0.50166 0.0
H1912 H 0.81386 0.91976 0.54059 0.0
H1913 H 0.82367 0.90432 0.51635 0.0
H1914 H 0.84107 0.8653 0.54836 0.0
H1915 H 0.8312 0.88047 0.57235 0.0
C1916 C 0.83395 0.84615 0.5025 0.0
C1917 C 0.84225 0.8522 0.48852 0.0
C1918 C 0.83111 0.85634 0.51608 0.0
C1919 C 0.83643 0.87287 0.516 0.0
C1920 C 0.84472 0.87901 0.50201 0.0
C1921 C 0.84771 0.8687 0.4884 0.0
C1922 C 0.82006 0.90803 0.5424 0.0
C1923 C 0.82154 0.90118 0.5583 0.0
C1924 C 0.8257 0.89923 0.52857 0.0
C1925 C 0.83288 0.8835 0.53049 0.0
C1926 C 0.83529 0.87724 0.54649 0.0
C1927 C 0.82967 0.88597 0.56023 0.0
H1928 H 0.86463 0.07827 0.32389 0.0
H1929 H 0.81851 0.06918 0.29855 0.0
H1930 H 0.87581 0.09104 0.29927 0.0
H1931 H 0.8296 0.08259 0.27376 0.0
H1932 H 0.86604 0.08294 0.22864 0.0
H1933 H 0.84973 0.07597 0.25298 0.0
H1934 H 0.87534 0.11372 0.28085 0.0
H1935 H 0.89211 0.12015 0.25665 0.0
C1936 C 0.85675 0.07929 0.31311 0.0
C1937 C 0.84073 0.0726 0.31311 0.0
C1938 C 0.86312 0.08679 0.29898 0.0
C1939 C 0.85362 0.0879 0.28447 0.0
C1940 C 0.83732 0.08178 0.28466 0.0
C1941 C 0.83093 0.07418 0.29887 0.0
C1942 C 0.86796 0.08994 0.23989 0.0
C1943 C 0.88051 0.1019 0.24085 0.0
C1944 C 0.85854 0.08602 0.25384 0.0
C1945 C 0.86138 0.0941 0.26898 0.0
C1946 C 0.8731 0.10696 0.26951 0.0
C1947 C 0.88265 0.11073 0.25563 0.0
H1948 H 0.67378 0.14583 0.99464 0.0
H1949 H 0.62797 0.11874 0.99015 0.0
H1950 H 0.68302 0.12685 0.01599 0.0
H1951 H 0.63737 0.09949 0.01162 0.0
H1952 H 0.65406 0.08585 0.06614 0.0
H1953 H 0.64335 0.10012 0.04182 0.0
H1954 H 0.69171 0.09791 0.01926 0.0
H1955 H 0.70249 0.08386 0.04368 0.0
C1956 C 0.66568 0.13578 0.99821 0.0
C1957 C 0.65013 0.1338 0.99075 0.0
C1958 C 0.67106 0.12479 0.01033 0.0
C1959 C 0.66102 0.11154 0.01535 0.0
C1960 C 0.64537 0.10959 0.008 0.0
C1961 C 0.64 0.1206 0.99574 0.0
C1962 C 0.66232 0.08807 0.05582 0.0
C1963 C 0.67917 0.08392 0.05688 0.0
C1964 C 0.65616 0.09621 0.04187 0.0
C1965 C 0.66675 0.10039 0.02876 0.0
C1966 C 0.68333 0.09514 0.02933 0.0
C1967 C 0.68947 0.08697 0.04325 0.0
H1968 H 0.67156 0.04793 0.70765 0.0
H1969 H 0.65092 0.09056 0.683 0.0
H1970 H 0.65791 0.05628 0.73335 0.0
H1971 H 0.63734 0.09888 0.7086 0.0
H1972 H 0.62138 0.11368 0.76071 0.0
H1973 H 0.64114 0.10787 0.73842 0.0
H1974 H 0.62736 0.05631 0.73976 0.0
H1975 H 0.6077 0.06208 0.7618 0.0
C1976 C 0.66443 0.05927 0.70783 0.0
C1977 C 0.66215 0.06851 0.69332 0.0
C1978 C 0.65656 0.064 0.72248 0.0
C1979 C 0.64645 0.07814 0.72291 0.0
C1980 C 0.64513 0.08798 0.70867 0.0
C1981 C 0.65284 0.08316 0.694 0.0
C1982 C 0.62271 0.10111 0.75629 0.0
C1983 C 0.61293 0.08836 0.76286 0.0
C1984 C 0.63399 0.09779 0.74357 0.0
C1985 C 0.63584 0.08162 0.73744 0.0
C1986 C 0.62639 0.06884 0.7444 0.0
C1987 C 0.615 0.07218 0.7569 0.0
H1988 H 0.67436 0.91981 0.45242 0.0
H1989 H 0.65625 0.88039 0.42127 0.0
H1990 H 0.66274 0.90583 0.47669 0.0
H1991 H 0.64468 0.86659 0.44536 0.0
H1992 H 0.6557 0.8364 0.49281 0.0
H1993 H 0.66092 0.85297 0.46828 0.0
H1994 H 0.63598 0.89448 0.49078 0.0
H1995 H 0.63057 0.87769 0.51554 0.0
C1996 C 0.66758 0.90839 0.45071 0.0
C1997 C 0.66643 0.90106 0.43501 0.0
C1998 C 0.66089 0.90043 0.46458 0.0
C1999 C 0.65302 0.88502 0.46289 0.0
C2000 C 0.6509 0.87833 0.44703 0.0
C2001 C 0.65752 0.88626 0.43324 0.0
C2002 C 0.65116 0.849 0.49249 0.0
C2003 C 0.64273 0.85577 0.50606 0.0
C2004 C 0.65407 0.85846 0.4784 0.0
C2005 C 0.64878 0.87498 0.47761 0.0
C2006 C 0.64019 0.88177 0.49111 0.0
C2007 C 0.63703 0.87216 0.50519 0.0
H2008 H 0.82194 0.92306 0.20032 0.0
H2009 H 0.86833 0.91455 0.17526 0.0
H2010 H 0.83305 0.90983 0.22518 0.0
H2011 H 0.87956 0.90203 0.19998 0.0
H2012 H 0.89664 0.87439 0.24325 0.0
H2013 H 0.87985 0.87986 0.21882 0.0
H2014 H 0.85264 0.91704 0.24597 0.0
H2015 H 0.86893 0.91098 0.27051 0.0
C2016 C 0.83442 0.91821 0.20008 0.0
C2017 C 0.8443 0.91995 0.18591 0.0
C2018 C 0.84083 0.91073 0.21433 0.0
C2019 C 0.85725 0.90491 0.21466 0.0
C2020 C 0.8668 0.90607 0.20018 0.0
C2021 C 0.86039 0.91342 0.18599 0.0
C2022 C 0.88682 0.88346 0.24405 0.0
C2023 C 0.88422 0.89241 0.25869 0.0
C2024 C 0.87726 0.88669 0.23004 0.0
C2025 C 0.86507 0.89912 0.23029 0.0
C2026 C 0.8618 0.90729 0.2453 0.0
C2027 C 0.87122 0.9039 0.25937 0.0
H2028 H 0.84501 0.16693 0.99134 0.0
H2029 H 0.84751 0.12291 0.02133 0.0
H2030 H 0.83726 0.15038 0.96747 0.0
H2031 H 0.83866 0.10626 0.99768 0.0
H2032 H 0.82992 0.07983 0.94794 0.0
H2033 H 0.84298 0.09484 0.97083 0.0
H2034 H 0.81276 0.13754 0.95965 0.0
H2035 H 0.80056 0.12293 0.9366 0.0
C2036 C 0.84397 0.15365 0.99274 0.0
C2037 C 0.84668 0.14617 0.00811 0.0
C2038 C 0.83936 0.14415 0.97914 0.0
C2039 C 0.83683 0.12701 0.98073 0.0
C2040 C 0.8405 0.1194 0.99596 0.0
C2041 C 0.84553 0.12892 0.00952 0.0
C2042 C 0.82615 0.09243 0.95048 0.0
C2043 C 0.81436 0.10029 0.94046 0.0
C2044 C 0.83359 0.10102 0.96357 0.0
C2045 C 0.82917 0.11754 0.96694 0.0
C2046 C 0.81695 0.12507 0.95713 0.0
C2047 C 0.80978 0.11663 0.94399 0.0
H2048 H 0.73553 0.62812 0.88383 0.0
H2049 H 0.75683 0.58747 0.91114 0.0
H2050 H 0.76048 0.64465 0.88916 0.0
H2051 H 0.78154 0.60378 0.9163 0.0
H2052 H 0.82926 0.63004 0.91123 0.0
H2053 H 0.80507 0.61617 0.89996 0.0
H2054 H 0.77426 0.65686 0.91561 0.0
H2055 H 0.79863 0.67092 0.92692 0.0
C2056 C 0.7456 0.62268 0.89079 0.0
C2057 C 0.74429 0.60654 0.89709 0.0
C2058 C 0.75978 0.63214 0.89389 0.0
C2059 C 0.77294 0.62544 0.90305 0.0
C2060 C 0.77169 0.60918 0.909 0.0
C2061 C 0.7575 0.59987 0.90613 0.0
C2062 C 0.81739 0.63619 0.91204 0.0
C2063 C 0.81578 0.65145 0.92017 0.0
C2064 C 0.80354 0.62822 0.9056 0.0
C2065 C 0.78779 0.63534 0.90713 0.0
C2066 C 0.78629 0.65114 0.91423 0.0
C2067 C 0.80021 0.65914 0.92074 0.0
H2068 H 0.25364 0.89027 0.11241 0.0
H2069 H 0.21507 0.86204 0.0886 0.0
H2070 H 0.27383 0.86928 0.10457 0.0
H2071 H 0.23533 0.84103 0.08071 0.0
H2072 H 0.3068 0.82674 0.09374 0.0
H2073 H 0.28293 0.83949 0.10723 0.0
H2074 H 0.25846 0.84352 0.05995 0.0
H2075 H 0.28227 0.83087 0.0465 0.0
C2076 C 0.24943 0.8794 0.10582 0.0
C2077 C 0.23283 0.87786 0.10097 0.0
C2078 C 0.26096 0.86732 0.10142 0.0
C2079 C 0.25615 0.85356 0.09196 0.0
C2080 C 0.23938 0.85157 0.08791 0.0
C2081 C 0.2278 0.86357 0.09247 0.0
C2082 C 0.29611 0.82988 0.08632 0.0
C2083 C 0.29644 0.82798 0.06905 0.0
C2084 C 0.28251 0.83727 0.09403 0.0
C2085 C 0.26893 0.84265 0.08462 0.0
C2086 C 0.2687 0.83941 0.06755 0.0
C2087 C 0.28236 0.83222 0.05982 0.0
H2088 H 0.86581 0.48884 0.86843 0.0
H2089 H 0.85956 0.48203 0.81583 0.0
H2090 H 0.88536 0.51144 0.86308 0.0
H2091 H 0.87918 0.50428 0.81055 0.0
H2092 H 0.92351 0.53752 0.80586 0.0
H2093 H 0.90994 0.51206 0.81509 0.0
H2094 H 0.88041 0.54024 0.84949 0.0
H2095 H 0.89375 0.56564 0.84015 0.0
C2096 C 0.86879 0.49203 0.85577 0.0
C2097 C 0.8611 0.48382 0.84254 0.0
C2098 C 0.87994 0.50492 0.85272 0.0
C2099 C 0.88382 0.50951 0.83641 0.0
C2100 C 0.87658 0.50085 0.82323 0.0
C2101 C 0.86524 0.48822 0.82626 0.0
C2102 C 0.9144 0.5382 0.81566 0.0
C2103 C 0.90955 0.55353 0.82219 0.0
C2104 C 0.90661 0.52367 0.82088 0.0
C2105 C 0.89409 0.52424 0.83293 0.0
C2106 C 0.8901 0.53945 0.84027 0.0
C2107 C 0.89767 0.55398 0.83486 0.0
H2108 H 0.17865 0.13132 0.58001 0.0
H2109 H 0.20499 0.17661 0.5697 0.0
H2110 H 0.20321 0.11973 0.59256 0.0
H2111 H 0.22973 0.16511 0.58285 0.0
H2112 H 0.27386 0.12742 0.58308 0.0
H2113 H 0.24987 0.14428 0.57625 0.0
H2114 H 0.222 0.12024 0.61501 0.0
H2115 H 0.24585 0.1029 0.62134 0.0
C2116 C 0.18965 0.13893 0.58069 0.0
C2117 C 0.18993 0.15483 0.57374 0.0
C2118 C 0.20374 0.13233 0.58807 0.0
C2119 C 0.2185 0.14147 0.58878 0.0
C2120 C 0.21862 0.15766 0.58236 0.0
C2121 C 0.20445 0.16428 0.5749 0.0
C2122 C 0.2627 0.12597 0.59034 0.0
C2123 C 0.26162 0.11368 0.60256 0.0
C2124 C 0.24895 0.13571 0.58649 0.0
C2125 C 0.23389 0.13345 0.5949 0.0
C2126 C 0.23328 0.12202 0.60801 0.0
C2127 C 0.24696 0.11216 0.61172 0.0
H2128 H 0.12047 0.93117 0.80012 0.0
H2129 H 0.0785 0.9413 0.83149 0.0
H2130 H 0.13461 0.95517 0.81097 0.0
H2131 H 0.09312 0.96513 0.84325 0.0
H2132 H 0.11926 0.0164 0.84711 0.0
H2133 H 0.10322 0.99226 0.83847 0.0
H2134 H 0.14848 0.96402 0.83436 0.0
H2135 H 0.16435 0.98837 0.8419 0.0
C2136 C 0.11433 0.9385 0.80951 0.0
C2137 C 0.09844 0.93434 0.81505 0.0
C2138 C 0.12252 0.95221 0.8159 0.0
C2139 C 0.11522 0.96196 0.82831 0.0
C2140 C 0.09912 0.95796 0.83368 0.0
C2141 C 0.09075 0.94431 0.827 0.0
C2142 C 0.12567 0.00493 0.84451 0.0
C2143 C 0.14301 0.00423 0.84494 0.0
C2144 C 0.1165 0.99108 0.8396 0.0
C2145 C 0.12454 0.97622 0.83534 0.0
C2146 C 0.14186 0.97537 0.83694 0.0
C2147 C 0.15099 0.98927 0.84143 0.0
H2148 H 0.68589 0.37178 0.44623 0.0
H2149 H 0.69566 0.32859 0.41644 0.0
H2150 H 0.70942 0.38569 0.43411 0.0
H2151 H 0.71905 0.34292 0.40345 0.0
H2152 H 0.76998 0.3698 0.39753 0.0
H2153 H 0.7463 0.3537 0.40733 0.0
H2154 H 0.71711 0.39847 0.40952 0.0
H2155 H 0.74099 0.41446 0.40077 0.0
C2156 C 0.69305 0.3653 0.43694 0.0
C2157 C 0.6889 0.34916 0.43219 0.0
C2158 C 0.70648 0.37335 0.42983 0.0
C2159 C 0.71597 0.36562 0.41747 0.0
C2160 C 0.71204 0.34925 0.41295 0.0
C2161 C 0.69866 0.34105 0.42034 0.0
C2162 C 0.75839 0.37608 0.39993 0.0
C2163 C 0.7573 0.39335 0.39863 0.0
C2164 C 0.74481 0.36687 0.4055 0.0
C2165 C 0.72986 0.37481 0.4096 0.0
C2166 C 0.72857 0.39198 0.40708 0.0
C2167 C 0.74219 0.40116 0.4019 0.0
H2168 H 0.87698 0.51239 0.63498 0.0
H2169 H 0.8367 0.49096 0.66275 0.0
H2170 H 0.89371 0.48758 0.64023 0.0
H2171 H 0.85324 0.46636 0.66784 0.0
H2172 H 0.87976 0.41866 0.66189 0.0
H2173 H 0.86551 0.44291 0.65122 0.0
H2174 H 0.90631 0.47375 0.66647 0.0
H2175 H 0.92073 0.44932 0.6772 0.0
C2176 C 0.87167 0.50233 0.64205 0.0
C2177 C 0.85556 0.50356 0.64846 0.0
C2178 C 0.88125 0.48822 0.6451 0.0
C2179 C 0.87471 0.47504 0.65435 0.0
C2180 C 0.85851 0.47623 0.66048 0.0
C2181 C 0.84908 0.49035 0.65764 0.0
C2182 C 0.88585 0.43056 0.66274 0.0
C2183 C 0.90126 0.43214 0.67059 0.0
C2184 C 0.87766 0.44443 0.65666 0.0
C2185 C 0.88471 0.4602 0.65824 0.0
C2186 C 0.90063 0.4617 0.66507 0.0
C2187 C 0.90884 0.44776 0.67124 0.0
H2188 H 0.57654 0.54227 0.18892 0.0
H2189 H 0.60752 0.57083 0.15611 0.0
H2190 H 0.58951 0.51681 0.17887 0.0
H2191 H 0.62028 0.54542 0.14595 0.0
H2192 H 0.6329 0.49412 0.12489 0.0
H2193 H 0.61442 0.5174 0.1311 0.0
H2194 H 0.61997 0.50781 0.18332 0.0
H2195 H 0.63852 0.48486 0.17719 0.0
C2196 C 0.58582 0.54307 0.17929 0.0
C2197 C 0.59116 0.55849 0.17339 0.0
C2198 C 0.59326 0.52853 0.17359 0.0
C2199 C 0.60593 0.52921 0.16171 0.0
C2200 C 0.61047 0.54456 0.15503 0.0
C2201 C 0.60323 0.55908 0.16091 0.0
C2202 C 0.63004 0.49695 0.13767 0.0
C2203 C 0.63722 0.48782 0.15057 0.0
C2204 C 0.6195 0.51022 0.1412 0.0
C2205 C 0.61572 0.51429 0.15767 0.0
C2206 C 0.6225 0.50479 0.17051 0.0
C2207 C 0.63324 0.49177 0.167 0.0
H2208 H 0.58974 0.76855 0.86767 0.0
H2209 H 0.61541 0.73815 0.90324 0.0
H2210 H 0.5826 0.74398 0.85174 0.0
H2211 H 0.60902 0.71364 0.88697 0.0
H2212 H 0.57258 0.67408 0.8703 0.0
H2213 H 0.58483 0.69821 0.88299 0.0
H2214 H 0.59005 0.72097 0.83488 0.0
H2215 H 0.57699 0.69677 0.82217 0.0
C2216 C 0.59421 0.75664 0.87184 0.0
C2217 C 0.60291 0.75521 0.8868 0.0
C2218 C 0.59021 0.74254 0.86267 0.0
C2219 C 0.59499 0.72675 0.86819 0.0
C2220 C 0.60473 0.72554 0.88257 0.0
C2221 C 0.60851 0.73959 0.89185 0.0
C2222 C 0.57646 0.68415 0.86237 0.0
C2223 C 0.57377 0.68356 0.84524 0.0
C2224 C 0.58366 0.69798 0.86965 0.0
C2225 C 0.58856 0.71157 0.85999 0.0
C2226 C 0.58626 0.71081 0.84273 0.0
C2227 C 0.57887 0.69694 0.83543 0.0
H2228 H 0.51118 0.33863 0.1623 0.0
H2229 H 0.48661 0.36368 0.12205 0.0
H2230 H 0.53539 0.33437 0.14495 0.0
H2231 H 0.51101 0.35935 0.10454 0.0
H2232 H 0.54822 0.32277 0.07649 0.0
H2233 H 0.52469 0.33385 0.092 0.0
H2234 H 0.55778 0.34996 0.13066 0.0
H2235 H 0.58118 0.33885 0.11532 0.0
C2236 C 0.51105 0.34342 0.14979 0.0
C2237 C 0.49703 0.35146 0.14351 0.0
C2238 C 0.52495 0.34106 0.13987 0.0
C2239 C 0.52509 0.34656 0.12339 0.0
C2240 C 0.51119 0.35494 0.11718 0.0
C2241 C 0.49731 0.35749 0.12721 0.0
C2242 C 0.55048 0.32901 0.08811 0.0
C2243 C 0.56649 0.32974 0.0948 0.0
C2244 C 0.53702 0.33539 0.09697 0.0
C2245 C 0.5394 0.34255 0.11264 0.0
C2246 C 0.55556 0.34426 0.11874 0.0
C2247 C 0.56895 0.33794 0.10992 0.0
H2248 H 0.93723 0.28816 0.32332 0.0
H2249 H 0.90482 0.31688 0.3546 0.0
H2250 H 0.92693 0.26275 0.33608 0.0
H2251 H 0.89448 0.2915 0.36724 0.0
H2252 H 0.87425 0.24056 0.38168 0.0
H2253 H 0.8797 0.2635 0.36253 0.0
H2254 H 0.93209 0.25384 0.36602 0.0
H2255 H 0.92672 0.23125 0.38518 0.0
C2256 C 0.9276 0.28901 0.33259 0.0
C2257 C 0.92195 0.30447 0.33812 0.0
C2258 C 0.92176 0.2745 0.33993 0.0
C2259 C 0.91002 0.27521 0.35273 0.0
C2260 C 0.90345 0.2906 0.35733 0.0
C2261 C 0.90944 0.30511 0.35016 0.0
C2262 C 0.88689 0.24328 0.37818 0.0
C2263 C 0.90008 0.23426 0.38498 0.0
C2264 C 0.88999 0.25636 0.36726 0.0
C2265 C 0.9063 0.26035 0.36274 0.0
C2266 C 0.91939 0.25089 0.3691 0.0
C2267 C 0.91632 0.23807 0.38019 0.0
H2268 H 0.99349 0.66815 0.6607 0.0
H2269 H 0.01931 0.645 0.62006 0.0
H2270 H 0.96966 0.67282 0.643 0.0
H2271 H 0.99522 0.6498 0.60215 0.0
H2272 H 0.95454 0.68441 0.57531 0.0
H2273 H 0.97937 0.67542 0.5903 0.0
H2274 H 0.9486 0.65477 0.62871 0.0
H2275 H 0.924 0.66372 0.61395 0.0
C2276 C 0.99405 0.66401 0.64797 0.0
C2277 C 0.00823 0.65617 0.64177 0.0
C2278 C 0.98036 0.66661 0.63786 0.0
C2279 C 0.98056 0.66155 0.62125 0.0
C2280 C 0.99478 0.65382 0.61492 0.0
C2281 C 0.00848 0.65102 0.62516 0.0
C2282 C 0.95313 0.67767 0.58679 0.0
C2283 C 0.93737 0.67498 0.59359 0.0
C2284 C 0.96731 0.6725 0.59533 0.0
C2285 C 0.96586 0.66464 0.61077 0.0
C2286 C 0.95006 0.66106 0.61698 0.0
C2287 C 0.93598 0.66616 0.60849 0.0
H2288 H 0.58022 0.32201 0.63087 0.0
H2289 H 0.57188 0.29585 0.67666 0.0
H2290 H 0.59209 0.29735 0.61877 0.0
H2291 H 0.58442 0.27105 0.66468 0.0
H2292 H 0.58318 0.22648 0.6279 0.0
H2293 H 0.57695 0.25077 0.64456 0.0
H2294 H 0.61423 0.27841 0.61802 0.0
H2295 H 0.61988 0.25427 0.60089 0.0
C2296 C 0.58123 0.31104 0.63848 0.0
C2297 C 0.57499 0.31083 0.65468 0.0
C2298 C 0.5882 0.29688 0.63157 0.0
C2299 C 0.58925 0.28214 0.64072 0.0
C2300 C 0.58362 0.28212 0.65721 0.0
C2301 C 0.57653 0.29634 0.66411 0.0
C2302 C 0.59023 0.23768 0.62584 0.0
C2303 C 0.60184 0.23858 0.61296 0.0
C2304 C 0.58673 0.25161 0.63546 0.0
C2305 C 0.59491 0.26667 0.6325 0.0
C2306 C 0.60739 0.26715 0.62037 0.0
C2307 C 0.61072 0.25329 0.61062 0.0
H2308 H 0.01075 0.364 0.8784 0.0
H2309 H 0.99055 0.33557 0.83795 0.0
H2310 H 0.986 0.35786 0.89496 0.0
H2311 H 0.96601 0.32963 0.8543 0.0
H2312 H 0.91787 0.33462 0.88023 0.0
H2313 H 0.94202 0.34603 0.86641 0.0
H2314 H 0.9728 0.33075 0.90724 0.0
H2315 H 0.94847 0.31922 0.92123 0.0
C2316 C 0.00097 0.3566 0.87302 0.0
C2317 C 0.00252 0.35026 0.85691 0.0
C2318 C 0.9869 0.35304 0.8825 0.0
C2319 C 0.97409 0.34338 0.87584 0.0
C2320 C 0.9756 0.3373 0.85965 0.0
C2321 C 0.98969 0.34063 0.85033 0.0
C2322 C 0.92972 0.33392 0.88643 0.0
C2323 C 0.93134 0.32582 0.90171 0.0
C2324 C 0.94354 0.34043 0.87848 0.0
C2325 C 0.95927 0.33906 0.88567 0.0
C2326 C 0.96078 0.33199 0.90147 0.0
C2327 C 0.94689 0.32537 0.90944 0.0
H2328 H 0.92903 0.7007 0.17068 0.0
H2329 H 0.91218 0.66903 0.13111 0.0
H2330 H 0.91778 0.72477 0.15605 0.0
H2331 H 0.90099 0.69292 0.11666 0.0
H2332 H 0.91189 0.74015 0.08622 0.0
H2333 H 0.9172 0.71589 0.10316 0.0
H2334 H 0.89126 0.73848 0.14401 0.0
H2335 H 0.88578 0.76297 0.12685 0.0
C2336 C 0.92262 0.69884 0.15907 0.0
C2337 C 0.92169 0.68304 0.15192 0.0
C2338 C 0.91615 0.71259 0.15074 0.0
C2339 C 0.90873 0.71069 0.13513 0.0
C2340 C 0.90688 0.69475 0.12855 0.0
C2341 C 0.91326 0.68108 0.13686 0.0
C2342 C 0.90717 0.73991 0.09876 0.0
C2343 C 0.89842 0.75342 0.10523 0.0
C2344 C 0.91013 0.72597 0.10843 0.0
C2345 C 0.90457 0.72528 0.12487 0.0
C2346 C 0.89569 0.73874 0.13137 0.0
C2347 C 0.8925 0.75266 0.12156 0.0
H2348 H 0.49374 0.62852 0.36471 0.0
H2349 H 0.4865 0.6813 0.36094 0.0
H2350 H 0.51676 0.63313 0.38395 0.0
H2351 H 0.50922 0.68584 0.38019 0.0
H2352 H 0.54307 0.68929 0.42375 0.0
H2353 H 0.51751 0.68036 0.41028 0.0
H2354 H 0.54538 0.64666 0.37967 0.0
H2355 H 0.57093 0.65563 0.39302 0.0
C2356 C 0.49694 0.64106 0.36815 0.0
C2357 C 0.48845 0.65456 0.36127 0.0
C2358 C 0.51008 0.64368 0.37911 0.0
C2359 C 0.51468 0.65983 0.38361 0.0
C2360 C 0.50579 0.67326 0.37713 0.0
C2361 C 0.49289 0.67066 0.36599 0.0
C2362 C 0.54368 0.67968 0.41444 0.0
C2363 C 0.55897 0.67326 0.4093 0.0
C2364 C 0.52908 0.67465 0.40669 0.0
C2365 C 0.52952 0.66294 0.39385 0.0
C2366 C 0.54468 0.65563 0.38959 0.0
C2367 C 0.5593 0.66082 0.39718 0.0
H2368 H 0.87155 0.60376 0.76614 0.0
H2369 H 0.9117 0.57659 0.74367 0.0
H2370 H 0.85439 0.59848 0.74162 0.0
H2371 H 0.89473 0.57139 0.71945 0.0
H2372 H 0.86812 0.57886 0.67202 0.0
H2373 H 0.88262 0.58829 0.69658 0.0
H2374 H 0.8414 0.57314 0.72694 0.0
H2375 H 0.82666 0.56372 0.70212 0.0
C2376 C 0.87671 0.59675 0.75596 0.0
C2377 C 0.89296 0.59062 0.75677 0.0
C2378 C 0.86689 0.59367 0.74201 0.0
C2379 C 0.87329 0.58465 0.7286 0.0
C2380 C 0.88955 0.57861 0.72948 0.0
C2381 C 0.89924 0.58151 0.7434 0.0
C2382 C 0.86201 0.57771 0.68389 0.0
C2383 C 0.84635 0.57034 0.68518 0.0
C2384 C 0.87035 0.58309 0.69795 0.0
C2385 C 0.86324 0.58121 0.71367 0.0
C2386 C 0.84714 0.57475 0.71495 0.0
C2387 C 0.83875 0.56932 0.70078 0.0
H2388 H 0.68052 0.57833 0.95057 0.0
H2389 H 0.67255 0.62241 0.92146 0.0
H2390 H 0.67058 0.59298 0.97524 0.0
H2391 H 0.66264 0.63685 0.94588 0.0
H2392 H 0.67164 0.66248 0.99551 0.0
H2393 H 0.67804 0.6462 0.97106 0.0
H2394 H 0.64508 0.6077 0.98784 0.0
H2395 H 0.63859 0.62414 0.01254 0.0
C2396 C 0.67643 0.59102 0.9494 0.0
C2397 C 0.6775 0.59928 0.93415 0.0
C2398 C 0.6707 0.59938 0.96347 0.0
C2399 C 0.66605 0.6161 0.96247 0.0
C2400 C 0.66641 0.62405 0.94706 0.0
C2401 C 0.67205 0.61574 0.93307 0.0
C2402 C 0.66569 0.65058 0.99399 0.0
C2403 C 0.65457 0.6446 0.0059 0.0
C2404 C 0.6693 0.64129 0.97995 0.0
C2405 C 0.66197 0.62573 0.97751 0.0
C2406 C 0.65092 0.61964 0.98946 0.0
C2407 C 0.64716 0.62906 0.00351 0.0
H2408 H 0.62852 0.38355 0.26061 0.0
H2409 H 0.58856 0.4125 0.24016 0.0
H2410 H 0.64498 0.38874 0.23561 0.0
H2411 H 0.60483 0.41754 0.21536 0.0
H2412 H 0.63088 0.41234 0.16731 0.0
H2413 H 0.61658 0.40135 0.1914 0.0
H2414 H 0.65797 0.41485 0.22228 0.0
H2415 H 0.67243 0.4259 0.19804 0.0
C2416 C 0.62321 0.39085 0.25071 0.0
C2417 C 0.60729 0.39764 0.25229 0.0
C2418 C 0.63264 0.39387 0.23649 0.0
C2419 C 0.62613 0.40345 0.22355 0.0
C2420 C 0.61008 0.40991 0.22505 0.0
C2421 C 0.6008 0.40711 0.23929 0.0
C2422 C 0.63709 0.41272 0.17918 0.0
C2423 C 0.65268 0.42018 0.18085 0.0
C2424 C 0.62887 0.40646 0.19296 0.0
C2425 C 0.63608 0.40746 0.20871 0.0
C2426 C 0.65216 0.41388 0.21025 0.0
C2427 C 0.6604 0.42024 0.19641 0.0
H2428 H 0.81545 0.42337 0.4519 0.0
H2429 H 0.83292 0.38251 0.42224 0.0
H2430 H 0.82464 0.40889 0.47699 0.0
H2431 H 0.84201 0.36826 0.44706 0.0
H2432 H 0.82899 0.33884 0.49368 0.0
H2433 H 0.82379 0.35599 0.46957 0.0
H2434 H 0.85084 0.39616 0.49201 0.0
H2435 H 0.85621 0.37879 0.51639 0.0
C2436 C 0.82151 0.41149 0.45073 0.0
C2437 C 0.82325 0.40396 0.43516 0.0
C2438 C 0.82679 0.40325 0.46504 0.0
C2439 C 0.8338 0.38737 0.46393 0.0
C2440 C 0.8364 0.38036 0.44828 0.0
C2441 C 0.83121 0.38856 0.43407 0.0
C2442 C 0.83389 0.35131 0.49351 0.0
C2443 C 0.84307 0.35746 0.50688 0.0
C2444 C 0.83097 0.3611 0.47966 0.0
C2445 C 0.83703 0.37735 0.47889 0.0
C2446 C 0.84604 0.38367 0.49234 0.0
C2447 C 0.84916 0.37373 0.5062 0.0
H2448 H 0.88024 0.37445 0.74217 0.0
H2449 H 0.88793 0.42688 0.73559 0.0
H2450 H 0.8612 0.38022 0.76512 0.0
H2451 H 0.86887 0.43258 0.7582 0.0
H2452 H 0.82444 0.4386 0.79076 0.0
H2453 H 0.83807 0.42895 0.76553 0.0
H2454 H 0.86588 0.39344 0.79406 0.0
H2455 H 0.8524 0.40315 0.81929 0.0
C2456 C 0.87775 0.38717 0.74553 0.0
C2457 C 0.88562 0.40022 0.73721 0.0
C2458 C 0.86689 0.39045 0.75862 0.0
C2459 C 0.86349 0.40684 0.76331 0.0
C2460 C 0.87107 0.41985 0.75468 0.0
C2461 C 0.88211 0.41657 0.74185 0.0
C2462 C 0.83316 0.42846 0.79158 0.0
C2463 C 0.83749 0.42172 0.80697 0.0
C2464 C 0.841 0.42301 0.77717 0.0
C2465 C 0.85311 0.41056 0.77791 0.0
C2466 C 0.85654 0.403 0.79315 0.0
C2467 C 0.84887 0.4086 0.80757 0.0
H2468 H 0.80682 0.57674 0.04344 0.0
H2469 H 0.84075 0.60676 0.0717 0.0
H2470 H 0.81669 0.58973 0.01792 0.0
H2471 H 0.85072 0.61954 0.04622 0.0
H2472 H 0.87158 0.63128 0.99445 0.0
H2473 H 0.86509 0.61329 0.01803 0.0
H2474 H 0.81296 0.62029 0.00894 0.0
H2475 H 0.81938 0.63836 0.98568 0.0
C2476 C 0.81665 0.58582 0.04415 0.0
C2477 C 0.82294 0.59086 0.05952 0.0
C2478 C 0.82222 0.59328 0.02959 0.0
C2479 C 0.83439 0.60568 0.03016 0.0
C2480 C 0.84141 0.60994 0.04544 0.0
C2481 C 0.83565 0.60269 0.06 0.0
C2482 C 0.85876 0.62886 0.99747 0.0
C2483 C 0.84598 0.63628 0.98835 0.0
C2484 C 0.85506 0.6186 0.01091 0.0
C2485 C 0.83854 0.61535 0.01519 0.0
C2486 C 0.8258 0.62242 0.00576 0.0
C2487 C 0.82948 0.63288 0.99256 0.0
H2488 H 0.62971 0.60798 0.22989 0.0
H2489 H 0.58963 0.58103 0.25269 0.0
H2490 H 0.64703 0.60267 0.25429 0.0
H2491 H 0.60675 0.57581 0.2768 0.0
H2492 H 0.6337 0.58289 0.32396 0.0
H2493 H 0.6192 0.59278 0.29956 0.0
H2494 H 0.65993 0.57707 0.26881 0.0
H2495 H 0.67465 0.56718 0.29344 0.0
C2496 C 0.6246 0.60102 0.24012 0.0
C2497 C 0.60833 0.59495 0.23943 0.0
C2498 C 0.63451 0.59793 0.254 0.0
C2499 C 0.62817 0.58896 0.26746 0.0
C2500 C 0.61188 0.58299 0.26672 0.0
C2501 C 0.6021 0.5859 0.25286 0.0
C2502 C 0.63971 0.58175 0.31204 0.0
C2503 C 0.65521 0.57405 0.31056 0.0
C2504 C 0.63137 0.58738 0.29807 0.0
C2505 C 0.63833 0.58544 0.28229 0.0
C2506 C 0.65431 0.57873 0.28085 0.0
C2507 C 0.6627 0.57304 0.29492 0.0
H2508 H 0.63487 0.37675 0.4877 0.0
H2509 H 0.66125 0.33598 0.50992 0.0
H2510 H 0.63959 0.39333 0.51267 0.0
H2511 H 0.66587 0.3524 0.53469 0.0
H2512 H 0.66123 0.37983 0.5819 0.0
H2513 H 0.65014 0.36535 0.55796 0.0
H2514 H 0.66535 0.40564 0.52643 0.0
H2515 H 0.67643 0.42029 0.55052 0.0
C2516 C 0.64146 0.37128 0.49799 0.0
C2517 C 0.64772 0.3551 0.4969 0.0
C2518 C 0.64422 0.38078 0.5122 0.0
C2519 C 0.65304 0.37413 0.52562 0.0
C2520 C 0.65884 0.35778 0.52464 0.0
C2521 C 0.65627 0.3484 0.51042 0.0
C2522 C 0.66196 0.38576 0.56991 0.0
C2523 C 0.6699 0.40109 0.56803 0.0
C2524 C 0.65565 0.37743 0.55621 0.0
C2525 C 0.6571 0.38427 0.54033 0.0
C2526 C 0.66402 0.40012 0.53855 0.0
C2527 C 0.6704 0.40847 0.55231 0.0
H2528 H 0.7599 0.87332 0.60929 0.0
H2529 H 0.74303 0.91098 0.57538 0.0
H2530 H 0.7348 0.85719 0.60371 0.0
H2531 H 0.71818 0.895 0.56988 0.0
H2532 H 0.66835 0.87192 0.57631 0.0
H2533 H 0.69299 0.88637 0.58565 0.0
H2534 H 0.72182 0.84196 0.57883 0.0
H2535 H 0.69695 0.8273 0.56948 0.0
C2536 C 0.7508 0.87818 0.60074 0.0
C2537 C 0.75337 0.89342 0.59279 0.0
C2538 C 0.73653 0.86892 0.5975 0.0
C2539 C 0.72452 0.8749 0.58644 0.0
C2540 C 0.7271 0.89019 0.57863 0.0
C2541 C 0.74138 0.89931 0.58172 0.0
C2542 C 0.67989 0.86514 0.57695 0.0
C2543 C 0.68077 0.84852 0.57199 0.0
C2544 C 0.694 0.87345 0.58226 0.0
C2545 C 0.70934 0.86534 0.58276 0.0
C2546 C 0.71012 0.84848 0.5786 0.0
C2547 C 0.69593 0.84013 0.5732 0.0
H2548 H 0.26842 0.63138 0.40134 0.0
H2549 H 0.23812 0.58963 0.38795 0.0
H2550 H 0.2437 0.64684 0.40932 0.0
H2551 H 0.21334 0.60531 0.39461 0.0
H2552 H 0.17663 0.62535 0.43121 0.0
H2553 H 0.20057 0.61255 0.4189 0.0
H2554 H 0.21865 0.6606 0.40383 0.0
H2555 H 0.19473 0.67357 0.41724 0.0
C2556 C 0.25639 0.62573 0.39965 0.0
C2557 C 0.25509 0.60929 0.3943 0.0
C2558 C 0.2422 0.63459 0.40414 0.0
C2559 C 0.22646 0.62723 0.40299 0.0
C2560 C 0.22524 0.6112 0.39629 0.0
C2561 C 0.23941 0.60223 0.39229 0.0
C2562 C 0.18564 0.63322 0.42519 0.0
C2563 C 0.1838 0.65046 0.42516 0.0
C2564 C 0.19937 0.62584 0.41793 0.0
C2565 C 0.21155 0.63546 0.41008 0.0
C2566 C 0.20961 0.65278 0.40986 0.0
C2567 C 0.1959 0.66023 0.41745 0.0
H2568 H 0.57832 0.95775 0.68615 0.0
H2569 H 0.60668 0.92601 0.65388 0.0
H2570 H 0.59278 0.98187 0.67503 0.0
H2571 H 0.62094 0.95005 0.64269 0.0
H2572 H 0.66047 0.99036 0.65291 0.0
H2573 H 0.6417 0.96731 0.65727 0.0
H2574 H 0.59988 -0.00021 0.65024 0.0
H2575 H 0.61885 0.02307 0.64583 0.0
C2576 C 0.58728 0.95598 0.67636 0.0
C2577 C 0.59157 0.94 0.67107 0.0
C2578 C 0.59553 0.96978 0.66996 0.0
C2579 C 0.60818 0.96779 0.6582 0.0
C2580 C 0.61146 0.95192 0.65196 0.0
C2581 C 0.60324 0.93817 0.65833 0.0
C2582 C 0.64728 0.99258 0.65209 0.0
C2583 C 0.64111 0.0085 0.64909 0.0
C2584 C 0.63652 0.97934 0.65447 0.0
C2585 C 0.61931 0.98174 0.65402 0.0
C2586 C 0.61309 0.99762 0.65069 0.0
C2587 C 0.62392 0.01089 0.64811 0.0
H2588 H 0.2929 0.32691 0.92673 0.0
H2589 H 0.32557 0.36543 0.90933 0.0
H2590 H 0.26922 0.34192 0.91517 0.0
H2591 H 0.30206 0.38026 0.89784 0.0
H2592 H 0.2555 0.41191 0.90903 0.0
H2593 H 0.27946 0.39446 0.91416 0.0
H2594 H 0.25583 0.35409 0.88845 0.0
H2595 H 0.23167 0.37175 0.88313 0.0
C2596 C 0.29506 0.33835 0.92011 0.0
C2597 C 0.31102 0.34513 0.91915 0.0
C2598 C 0.28154 0.3469 0.91347 0.0
C2599 C 0.28383 0.36235 0.90583 0.0
C2600 C 0.29993 0.3685 0.90389 0.0
C2601 C 0.31338 0.35998 0.91045 0.0
C2602 C 0.25547 0.39937 0.90431 0.0
C2603 C 0.24176 0.39317 0.89569 0.0
C2604 C 0.26922 0.38941 0.90717 0.0
C2605 C 0.26951 0.37295 0.90164 0.0
C2606 C 0.25587 0.36674 0.89285 0.0
C2607 C 0.24214 0.37684 0.88975 0.0
H2608 H 0.37573 0.48458 0.63464 0.0
H2609 H 0.33721 0.50187 0.6674 0.0
H2610 H 0.39233 0.50913 0.64138 0.0
H2611 H 0.35364 0.52614 0.674 0.0
H2612 H 0.37761 0.57549 0.66883 0.0
H2613 H 0.36336 0.55124 0.65832 0.0
H2614 H 0.40674 0.52153 0.66758 0.0
H2615 H 0.42122 0.54605 0.67815 0.0
C2616 C 0.3708 0.49365 0.64318 0.0
C2617 C 0.35517 0.49138 0.65046 0.0
C2618 C 0.38032 0.50759 0.64709 0.0
C2619 C 0.3742 0.51955 0.65812 0.0
C2620 C 0.35856 0.51724 0.66529 0.0
C2621 C 0.34919 0.5033 0.66156 0.0
C2622 C 0.38422 0.56385 0.66849 0.0
C2623 C 0.40046 0.56261 0.67453 0.0
C2624 C 0.37603 0.54996 0.66249 0.0
C2625 C 0.38388 0.53449 0.66236 0.0
C2626 C 0.40044 0.53335 0.66753 0.0
C2627 C 0.40868 0.54733 0.67362 0.0
H2628 H 0.72317 0.1286 0.08495 0.0
H2629 H 0.75368 0.10006 0.1182 0.0
H2630 H 0.74692 0.14584 0.07793 0.0
H2631 H 0.77728 0.11758 0.11162 0.0
H2632 H 0.81805 0.13176 0.07513 0.0
H2633 H 0.79381 0.11893 0.08705 0.0
H2634 H 0.76821 0.16583 0.08594 0.0
H2635 H 0.79271 0.17875 0.07351 0.0
C2636 C 0.73486 0.12629 0.09108 0.0
C2637 C 0.73666 0.11284 0.10193 0.0
C2638 C 0.74845 0.13622 0.08712 0.0
C2639 C 0.76407 0.13292 0.094 0.0
C2640 C 0.7655 0.12021 0.1058 0.0
C2641 C 0.75197 0.11023 0.10965 0.0
C2642 C 0.80732 0.13942 0.07751 0.0
C2643 C 0.80727 0.15627 0.07333 0.0
C2644 C 0.79343 0.13207 0.08452 0.0
C2645 C 0.77909 0.14137 0.08762 0.0
C2646 C 0.77906 0.15832 0.08364 0.0
C2647 C 0.79306 0.16572 0.07658 0.0
H2648 H 0.66163 0.00386 0.83952 0.0
H2649 H 0.6204 0.97378 0.85526 0.0
H2650 H 0.64311 0.02711 0.83523 0.0
H2651 H 0.60167 0.9973 0.85088 0.0
H2652 H 0.57673 0.0382 0.81533 0.0
H2653 H 0.59176 0.01398 0.82565 0.0
H2654 H 0.62535 0.0461 0.8519 0.0
H2655 H 0.61055 0.07015 0.84154 0.0
C2656 C 0.6486 0.00226 0.84218 0.0
C2657 C 0.64245 0.98702 0.84772 0.0
C2658 C 0.638 0.01562 0.83983 0.0
C2659 C 0.62096 0.01404 0.84285 0.0
C2660 C 0.61475 -0.00118 0.84847 0.0
C2661 C 0.62546 0.98543 0.85102 0.0
C2662 C 0.58706 0.04002 0.82365 0.0
C2663 C 0.59265 0.05603 0.82742 0.0
C2664 C 0.59564 0.02618 0.82957 0.0
C2665 C 0.60989 0.02821 0.83933 0.0
C2666 C 0.6146 0.0442 0.84414 0.0
C2667 C 0.60609 0.05796 0.83824 0.0
H2668 H 0.84812 0.00138 0.31825 0.0
H2669 H 0.87271 0.00612 0.36543 0.0
H2670 H 0.86752 0.97988 0.31022 0.0
H2671 H 0.89233 0.98448 0.35729 0.0
H2672 H 0.90605 0.92953 0.34187 0.0
H2673 H 0.89135 0.95406 0.35152 0.0
H2674 H 0.89716 0.97642 0.30337 0.0
H2675 H 0.91169 0.95183 0.29366 0.0
C2676 C 0.85771 0.99784 0.32691 0.0
C2677 C 0.85887 0.00539 0.34249 0.0
C2678 C 0.86894 0.98563 0.32223 0.0
C2679 C 0.88157 0.98061 0.33305 0.0
C2680 C 0.88271 0.9881 0.3487 0.0
C2681 C 0.8715 0.00046 0.35335 0.0
C2682 C 0.90452 0.93984 0.33346 0.0
C2683 C 0.90985 0.9387 0.31696 0.0
C2684 C 0.89614 0.95391 0.33901 0.0
C2685 C 0.89288 0.96704 0.32812 0.0
C2686 C 0.89924 0.96635 0.31195 0.0
C2687 C 0.90767 0.95232 0.30643 0.0
H2688 H 0.44952 0.30971 0.12905 0.0
H2689 H 0.41631 0.30268 0.17023 0.0
H2690 H 0.437 0.28657 0.11477 0.0
H2691 H 0.40304 0.2797 0.15551 0.0
H2692 H 0.39546 0.22894 0.12847 0.0
H2693 H 0.40605 0.25191 0.14512 0.0
H2694 H 0.41236 0.28088 0.10062 0.0
H2695 H 0.40269 0.25772 0.08414 0.0
C2696 C 0.43945 0.30319 0.13502 0.0
C2697 C 0.4338 0.30804 0.15067 0.0
C2698 C 0.43213 0.29001 0.12676 0.0
C2699 C 0.4187 0.28149 0.13378 0.0
C2700 C 0.41335 0.28599 0.14974 0.0
C2701 C 0.42092 0.29913 0.15817 0.0
C2702 C 0.39893 0.24034 0.12236 0.0
C2703 C 0.39849 0.24155 0.10504 0.0
C2704 C 0.40497 0.2535 0.13187 0.0
C2705 C 0.41044 0.26813 0.12419 0.0
C2706 C 0.40883 0.26961 0.10693 0.0
C2707 C 0.40313 0.25641 0.09747 0.0
H2708 H 0.42458 0.65506 0.89199 0.0
H2709 H 0.454 0.69055 0.91894 0.0
H2710 H 0.44945 0.64503 0.87802 0.0
H2711 H 0.47883 0.68062 0.9048 0.0
H2712 H 0.50757 0.67797 0.85437 0.0
H2713 H 0.48493 0.68392 0.87333 0.0
H2714 H 0.4789 0.63174 0.88275 0.0
H2715 H 0.50193 0.62572 0.86386 0.0
C2716 C 0.43642 0.66045 0.89519 0.0
C2717 C 0.43738 0.67367 0.90643 0.0
C2718 C 0.45063 0.65467 0.88725 0.0
C2719 C 0.46597 0.66218 0.89025 0.0
C2720 C 0.46708 0.67473 0.90221 0.0
C2721 C 0.45291 0.68034 0.91034 0.0
C2722 C 0.50147 0.66775 0.86051 0.0
C2723 C 0.50644 0.65138 0.85761 0.0
C2724 C 0.48863 0.67118 0.87148 0.0
C2725 C 0.48031 0.65829 0.87959 0.0
C2726 C 0.48519 0.64188 0.87667 0.0
C2727 C 0.49831 0.63845 0.86588 0.0
H2728 H 0.09186 0.68169 0.64549 0.0
H2729 H 0.0562 0.71004 0.67336 0.0
H2730 H 0.10191 0.70699 0.63249 0.0
H2731 H 0.06618 0.73542 0.66016 0.0
H2732 H 0.06961 0.76564 0.61021 0.0
H2733 H 0.06325 0.7433 0.62939 0.0
H2734 H 0.11539 0.73559 0.63788 0.0
H2735 H 0.12181 0.75826 0.61873 0.0
C2736 C 0.0864 0.69339 0.64907 0.0
C2737 C 0.07317 0.69393 0.66031 0.0
C2738 C 0.09223 0.70786 0.6417 0.0
C2739 C 0.08475 0.72311 0.64526 0.0
C2740 C 0.07208 0.72377 0.65716 0.0
C2741 C 0.06643 0.7093 0.66474 0.0
C2742 C 0.07972 0.75929 0.61628 0.0
C2743 C 0.09621 0.76357 0.61291 0.0
C2744 C 0.07607 0.74662 0.62738 0.0
C2745 C 0.08883 0.7378 0.63516 0.0
C2746 C 0.10534 0.74224 0.63202 0.0
C2747 C 0.109 0.75516 0.6211 0.0
H2748 H 0.06191 0.33994 0.40814 0.0
H2749 H 0.04285 0.29041 0.41404 0.0
H2750 H 0.0365 0.34807 0.3941 0.0
H2751 H 0.01732 0.29862 0.40021 0.0
H2752 H 0.99123 0.31201 0.3511 0.0
H2753 H 0.01279 0.30501 0.37084 0.0
H2754 H 0.0061 0.35216 0.39504 0.0
H2755 H 0.98445 0.35926 0.37505 0.0
C2756 C 0.0521 0.33091 0.40685 0.0
C2757 C 0.05445 0.31448 0.41199 0.0
C2758 C 0.03752 0.33559 0.39884 0.0
C2759 C 0.02503 0.32391 0.3958 0.0
C2760 C 0.02687 0.30781 0.4021 0.0
C2761 C 0.04144 0.30314 0.41013 0.0
C2762 C 0.99429 0.32088 0.36067 0.0
C2763 C 0.98623 0.33622 0.36148 0.0
C2764 C 0.00653 0.31679 0.3721 0.0
C2765 C 0.01106 0.32798 0.38459 0.0
C2766 C 0.0029 0.34331 0.38552 0.0
C2767 C 0.99052 0.34737 0.3741 0.0
H2768 H 0.4286 0.76259 0.38768 0.0
H2769 H 0.37648 0.75653 0.37774 0.0
H2770 H 0.43495 0.74033 0.36841 0.0
H2771 H 0.38288 0.7339 0.35851 0.0
H2772 H 0.40602 0.67942 0.3514 0.0
H2773 H 0.39576 0.70485 0.36407 0.0
H2774 H 0.43251 0.73294 0.33744 0.0
H2775 H 0.4427 0.7075 0.32461 0.0
C2776 C 0.41851 0.75655 0.38127 0.0
C2777 C 0.40205 0.76117 0.38426 0.0
C2778 C 0.42216 0.74392 0.37013 0.0
C2779 C 0.4094 0.73548 0.36193 0.0
C2780 C 0.39292 0.74027 0.36468 0.0
C2781 C 0.38928 0.75317 0.37564 0.0
C2782 C 0.41164 0.69108 0.34795 0.0
C2783 C 0.42525 0.6915 0.33716 0.0
C2784 C 0.40571 0.70562 0.35512 0.0
C2785 C 0.41344 0.72079 0.35181 0.0
C2786 C 0.42642 0.72135 0.34026 0.0
C2787 C 0.43219 0.70683 0.33288 0.0
H2788 H 0.98707 0.67825 0.13837 0.0
H2789 H 0.99364 0.62584 0.13057 0.0
H2790 H 0.00971 0.68398 0.11934 0.0
H2791 H 0.01662 0.63162 0.11158 0.0
H2792 H 0.07088 0.65449 0.10328 0.0
H2793 H 0.04552 0.64475 0.11647 0.0
H2794 H 0.01728 0.68046 0.08861 0.0
H2795 H 0.04266 0.69014 0.07527 0.0
C2796 C 0.99333 0.66796 0.13252 0.0
C2797 C 0.98869 0.6516 0.13601 0.0
C2798 C 0.00618 0.67124 0.12151 0.0
C2799 C 0.01482 0.65824 0.11393 0.0
C2800 C 0.01011 0.64185 0.11727 0.0
C2801 C 0.99701 0.63856 0.1281 0.0
C2802 C 0.0592 0.65998 0.09967 0.0
C2803 C 0.05872 0.67316 0.08837 0.0
C2804 C 0.0447 0.65435 0.10717 0.0
C2805 C 0.02951 0.66197 0.10366 0.0
C2806 C 0.02889 0.67448 0.09161 0.0
C2807 C 0.04338 0.67995 0.08393 0.0
H2808 H 0.10898 0.23657 0.87077 0.0
H2809 H 0.07745 0.25398 0.91023 0.0
H2810 H 0.10279 0.26169 0.85486 0.0
H2811 H 0.07136 0.27885 0.89447 0.0
H2812 H 0.07644 0.32838 0.87081 0.0
H2813 H 0.08682 0.30386 0.88473 0.0
H2814 H 0.07706 0.27476 0.84106 0.0
H2815 H 0.06665 0.29951 0.82694 0.0
C2816 C 0.10084 0.24579 0.87606 0.0
C2817 C 0.09371 0.24336 0.89173 0.0
C2818 C 0.09724 0.26008 0.86694 0.0
C2819 C 0.08668 0.27223 0.87348 0.0
C2820 C 0.07973 0.2698 0.88921 0.0
C2821 C 0.08315 0.25552 0.8982 0.0
C2822 C 0.07667 0.31682 0.86406 0.0
C2823 C 0.07054 0.31582 0.84784 0.0
C2824 C 0.08258 0.30277 0.87207 0.0
C2825 C 0.08254 0.28738 0.86405 0.0
C2826 C 0.07727 0.28649 0.8475 0.0
C2827 C 0.07127 0.30062 0.83946 0.0
H2828 H 0.50369 0.37027 0.63263 0.0
H2829 H 0.50996 0.31765 0.63928 0.0
H2830 H 0.48047 0.36503 0.61376 0.0
H2831 H 0.48711 0.31249 0.62033 0.0
H2832 H 0.45408 0.30756 0.57624 0.0
H2833 H 0.47954 0.31708 0.58949 0.0
H2834 H 0.45139 0.35156 0.61894 0.0
H2835 H 0.42591 0.34195 0.60586 0.0
C2836 C 0.50021 0.35762 0.62992 0.0
C2837 C 0.50851 0.34436 0.63747 0.0
C2838 C 0.48698 0.35465 0.61916 0.0
C2839 C 0.48213 0.33837 0.61552 0.0
C2840 C 0.49075 0.32515 0.62275 0.0
C2841 C 0.50372 0.32811 0.6337 0.0
C2842 C 0.45338 0.31746 0.58523 0.0
C2843 C 0.43803 0.3239 0.59017 0.0
C2844 C 0.46792 0.32284 0.59285 0.0
C2845 C 0.46736 0.33493 0.60531 0.0
C2846 C 0.45216 0.34228 0.60931 0.0
C2847 C 0.43759 0.33673 0.60188 0.0
H2848 H 0.13097 0.44751 0.30787 0.0
H2849 H 0.17205 0.41412 0.30099 0.0
H2850 H 0.11645 0.43461 0.28511 0.0
H2851 H 0.15707 0.40048 0.27836 0.0
H2852 H 0.12945 0.39294 0.22769 0.0
H2853 H 0.1464 0.40331 0.25056 0.0
H2854 H 0.10222 0.40985 0.27998 0.0
H2855 H 0.08544 0.40042 0.25692 0.0
C2856 C 0.13686 0.43731 0.30148 0.0
C2857 C 0.15256 0.43172 0.30625 0.0
C2858 C 0.12846 0.42977 0.28852 0.0
C2859 C 0.13537 0.41619 0.28015 0.0
C2860 C 0.15137 0.41089 0.28456 0.0
C2861 C 0.15995 0.41867 0.29748 0.0
C2862 C 0.12348 0.39637 0.23918 0.0
C2863 C 0.10617 0.39612 0.24054 0.0
C2864 C 0.13316 0.40229 0.25228 0.0
C2865 C 0.12565 0.40781 0.26698 0.0
C2866 C 0.1084 0.40627 0.26865 0.0
C2867 C 0.09877 0.40072 0.25551 0.0
H2868 H 0.315 0.3512 0.99051 0.0
H2869 H 0.36318 0.37379 0.98595 0.0
H2870 H 0.30777 0.37076 0.01213 0.0
H2871 H 0.35583 0.39363 0.00767 0.0
H2872 H 0.34144 0.40697 0.06292 0.0
H2873 H 0.35034 0.39271 0.03788 0.0
H2874 H 0.30201 0.40027 0.01644 0.0
H2875 H 0.29302 0.4143 0.04159 0.0
C2876 C 0.32404 0.3604 0.9941 0.0
C2877 C 0.33969 0.36091 0.9866 0.0
C2878 C 0.31982 0.37175 0.00637 0.0
C2879 C 0.33117 0.38386 0.01149 0.0
C2880 C 0.34685 0.38441 0.00399 0.0
C2881 C 0.35105 0.37308 0.99158 0.0
C2882 C 0.33284 0.40594 0.0527 0.0
C2883 C 0.31646 0.41155 0.05429 0.0
C2884 C 0.33796 0.3978 0.03834 0.0
C2885 C 0.32678 0.39512 0.02531 0.0
C2886 C 0.31079 0.40187 0.02642 0.0
C2887 C 0.30568 0.41002 0.04077 0.0
H2888 H 0.32674 0.56955 0.79687 0.0
H2889 H 0.37006 0.57919 0.82661 0.0
H2890 H 0.3413 0.58019 0.77245 0.0
H2891 H 0.3844 0.58981 0.80243 0.0
H2892 H 0.41081 0.58058 0.75298 0.0
H2893 H 0.39459 0.57444 0.77753 0.0
H2894 H 0.35537 0.60604 0.75981 0.0
H2895 H 0.37176 0.61229 0.735 0.0
C2896 C 0.33923 0.57419 0.79824 0.0
C2897 C 0.34734 0.57334 0.81358 0.0
C2898 C 0.34752 0.58032 0.78431 0.0
C2899 C 0.36404 0.58561 0.78555 0.0
C2900 C 0.37177 0.58555 0.80107 0.0
C2901 C 0.36352 0.57951 0.81492 0.0
C2902 C 0.39878 0.58632 0.75433 0.0
C2903 C 0.39256 0.59695 0.74211 0.0
C2904 C 0.38952 0.58286 0.76844 0.0
C2905 C 0.37376 0.58984 0.77061 0.0
C2906 C 0.36748 0.60048 0.75839 0.0
C2907 C 0.37687 0.60412 0.74429 0.0
H2908 H 0.15283 0.58983 0.56642 0.0
H2909 H 0.201 0.5843 0.54397 0.0
H2910 H 0.14315 0.60472 0.542 0.0
H2911 H 0.19126 0.59904 0.51952 0.0
H2912 H 0.17681 0.64855 0.49557 0.0
H2913 H 0.18448 0.62893 0.51697 0.0
H2914 H 0.13753 0.60413 0.51128 0.0
H2915 H 0.12975 0.62397 0.48968 0.0
C2916 C 0.16122 0.59141 0.55609 0.0
C2917 C 0.17774 0.58609 0.55718 0.0
C2918 C 0.15565 0.5999 0.5421 0.0
C2919 C 0.16654 0.60328 0.529 0.0
C2920 C 0.18269 0.59687 0.52959 0.0
C2921 C 0.18823 0.58833 0.54353 0.0
C2922 C 0.16808 0.63895 0.49887 0.0
C2923 C 0.15266 0.63782 0.49098 0.0
C2924 C 0.17256 0.62759 0.51101 0.0
C2925 C 0.1617 0.61486 0.51564 0.0
C2926 C 0.14615 0.61382 0.50793 0.0
C2927 C 0.1417 0.62516 0.49561 0.0
H2928 H 0.12824 0.61372 0.26088 0.0
H2929 H 0.08861 0.58243 0.24349 0.0
H2930 H 0.14436 0.60696 0.23598 0.0
H2931 H 0.10451 0.57586 0.21885 0.0
H2932 H 0.12826 0.58027 0.16949 0.0
H2933 H 0.11473 0.59165 0.1938 0.0
H2934 H 0.15764 0.58003 0.22332 0.0
H2935 H 0.17138 0.56855 0.19878 0.0
C2936 C 0.12295 0.60554 0.2517 0.0
C2937 C 0.10718 0.59862 0.25407 0.0
C2938 C 0.13218 0.60162 0.23755 0.0
C2939 C 0.12561 0.59099 0.22548 0.0
C2940 C 0.10978 0.58426 0.22785 0.0
C2941 C 0.10072 0.58797 0.242 0.0
C2942 C 0.13495 0.58032 0.18109 0.0
C2943 C 0.15079 0.5733 0.18229 0.0
C2944 C 0.12717 0.58682 0.19501 0.0
C2945 C 0.13506 0.58651 0.21045 0.0
C2946 C 0.15132 0.58044 0.21153 0.0
C2947 C 0.15914 0.57384 0.19753 0.0
H2948 H 0.17152 0.33688 0.99366 0.0
H2949 H 0.1391 0.37503 0.01232 0.0
H2950 H 0.17752 0.35372 0.96948 0.0
H2951 H 0.14521 0.39203 0.98791 0.0
H2952 H 0.18028 0.42188 0.95049 0.0
H2953 H 0.17084 0.40677 0.97509 0.0
H2954 H 0.16125 0.36381 0.9449 0.0
H2955 H 0.1706 0.37871 0.92055 0.0
C2956 C 0.16564 0.34886 0.99257 0.0
C2957 C 0.1548 0.35462 0.00483 0.0
C2958 C 0.16902 0.35848 0.97868 0.0
C2959 C 0.16175 0.37413 0.97679 0.0
C2960 C 0.151 0.38002 0.98911 0.0
C2961 C 0.14745 0.37027 0.00299 0.0
C2962 C 0.17593 0.40929 0.94913 0.0
C2963 C 0.17635 0.40141 0.93365 0.0
C2964 C 0.17049 0.40069 0.96316 0.0
C2965 C 0.16553 0.38407 0.96188 0.0
C2966 C 0.16526 0.37652 0.94627 0.0
C2967 C 0.17058 0.38509 0.93232 0.0
H2968 H 0.32432 0.42744 0.69902 0.0
H2969 H 0.36753 0.41622 0.66964 0.0
H2970 H 0.33843 0.41665 0.72364 0.0
H2971 H 0.38142 0.40549 0.69404 0.0
H2972 H 0.40775 0.41523 0.74343 0.0
H2973 H 0.39167 0.42139 0.71881 0.0
H2974 H 0.35204 0.3904 0.73666 0.0
H2975 H 0.36832 0.38409 0.76155 0.0
C2976 C 0.33667 0.42241 0.69777 0.0
C2977 C 0.34491 0.42287 0.68248 0.0
C2978 C 0.3447 0.4162 0.71182 0.0
C2979 C 0.36108 0.41046 0.71074 0.0
C2980 C 0.3689 0.41009 0.69526 0.0
C2981 C 0.36091 0.4162 0.68129 0.0
C2982 C 0.39565 0.40964 0.7421 0.0
C2983 C 0.3893 0.39915 0.75438 0.0
C2984 C 0.38647 0.41311 0.72796 0.0
C2985 C 0.37065 0.40629 0.72579 0.0
C2986 C 0.3642 0.39583 0.73807 0.0
C2987 C 0.37352 0.39216 0.75222 0.0
H2988 H 0.36398 0.64257 0.49702 0.0
H2989 H 0.32067 0.62201 0.52053 0.0
H2990 H 0.35864 0.62585 0.47252 0.0
H2991 H 0.31495 0.60573 0.49584 0.0
H2992 H 0.31159 0.57298 0.45056 0.0
H2993 H 0.32228 0.58397 0.47671 0.0
H2994 H 0.33838 0.62815 0.45132 0.0
H2995 H 0.32822 0.61707 0.42544 0.0
C2996 C 0.35343 0.63433 0.49702 0.0
C2997 C 0.34263 0.63374 0.51059 0.0
C2998 C 0.3503 0.62481 0.48295 0.0
C2999 C 0.3362 0.61465 0.48208 0.0
C3000 C 0.32598 0.61332 0.49609 0.0
C3001 C 0.3292 0.62273 0.51022 0.0
C3002 C 0.31762 0.58493 0.45061 0.0
C3003 C 0.319 0.59419 0.43599 0.0
C3004 C 0.32367 0.59126 0.46557 0.0
C3005 C 0.33122 0.60694 0.46614 0.0
C3006 C 0.33295 0.61591 0.45136 0.0
C3007 C 0.32696 0.60961 0.4365 0.0
H3008 H 0.2934 0.17337 0.43731 0.0
H3009 H 0.32105 0.13999 0.4061 0.0
H3010 H 0.26755 0.16212 0.42636 0.0
H3011 H 0.29524 0.12887 0.3951 0.0
H3012 H 0.24433 0.11672 0.37385 0.0
H3013 H 0.26785 0.13508 0.37953 0.0
H3014 H 0.25697 0.13268 0.43175 0.0
H3015 H 0.23382 0.11429 0.42615 0.0
C3016 C 0.29395 0.16396 0.42779 0.0
C3017 C 0.30919 0.15739 0.4227 0.0
C3018 C 0.27918 0.15751 0.42157 0.0
C3019 C 0.27944 0.14455 0.41 0.0
C3020 C 0.2947 0.13892 0.40394 0.0
C3021 C 0.30945 0.14521 0.41031 0.0
C3022 C 0.24688 0.12034 0.38649 0.0
C3023 C 0.2374 0.114 0.39959 0.0
C3024 C 0.2603 0.13079 0.38972 0.0
C3025 C 0.26414 0.13534 0.40606 0.0
C3026 C 0.25415 0.12957 0.41903 0.0
C3027 C 0.241 0.11892 0.41583 0.0
H3028 H 0.79118 0.32557 0.55834 0.0
H3029 H 0.82053 0.35644 0.59053 0.0
H3030 H 0.76597 0.33863 0.56893 0.0
H3031 H 0.79537 0.36928 0.60123 0.0
H3032 H 0.74425 0.38174 0.62333 0.0
H3033 H 0.76749 0.36335 0.61666 0.0
H3034 H 0.75712 0.36923 0.56463 0.0
H3035 H 0.73424 0.38771 0.57122 0.0
C3036 C 0.79221 0.33484 0.56795 0.0
C3037 C 0.80777 0.34013 0.57352 0.0
C3038 C 0.77782 0.34233 0.57395 0.0
C3039 C 0.77879 0.355 0.58581 0.0
C3040 C 0.79429 0.35948 0.59217 0.0
C3041 C 0.80867 0.35219 0.58598 0.0
C3042 C 0.74691 0.37898 0.6105 0.0
C3043 C 0.73757 0.38622 0.59778 0.0
C3044 C 0.76016 0.36849 0.6067 0.0
C3045 C 0.76398 0.36482 0.59015 0.0
C3046 C 0.7543 0.37169 0.5775 0.0
C3047 C 0.74131 0.38238 0.58127 0.0
H3048 H 0.36882 0.99292 0.37001 0.0
H3049 H 0.36387 0.98532 0.31738 0.0
H3050 H 0.38742 0.01633 0.36479 0.0
H3051 H 0.38247 0.00843 0.31222 0.0
H3052 H 0.42465 0.0437 0.30731 0.0
H3053 H 0.41232 0.01774 0.31671 0.0
H3054 H 0.38191 0.04469 0.35135 0.0
H3055 H 0.39413 0.07062 0.34192 0.0
C3056 C 0.37189 0.99611 0.35737 0.0
C3057 C 0.36484 0.98743 0.34409 0.0
C3058 C 0.38249 0.00947 0.3544 0.0
C3059 C 0.38642 0.01411 0.33811 0.0
C3060 C 0.37983 0.00499 0.3249 0.0
C3061 C 0.36907 0.99186 0.32785 0.0
C3062 C 0.41562 0.04403 0.3172 0.0
C3063 C 0.4102 0.05916 0.32377 0.0
C3064 C 0.40853 0.0292 0.32252 0.0
C3065 C 0.39608 0.02926 0.33465 0.0
C3066 C 0.39155 0.04429 0.34206 0.0
C3067 C 0.39848 0.05913 0.33659 0.0
H3068 H 0.67336 0.63442 0.08439 0.0
H3069 H 0.70434 0.67407 0.06648 0.0
H3070 H 0.69763 0.62003 0.09475 0.0
H3071 H 0.72885 0.65944 0.07685 0.0
H3072 H 0.76768 0.62982 0.10854 0.0
H3073 H 0.74347 0.64735 0.10295 0.0
H3074 H 0.71994 0.60651 0.07788 0.0
H3075 H 0.74386 0.58919 0.08336 0.0
C3076 C 0.68536 0.64018 0.08287 0.0
C3077 C 0.687 0.65525 0.07441 0.0
C3078 C 0.69925 0.63191 0.08878 0.0
C3079 C 0.71511 0.6385 0.08636 0.0
C3080 C 0.71673 0.65412 0.07889 0.0
C3081 C 0.70274 0.66245 0.07293 0.0
C3082 C 0.75726 0.62463 0.10193 0.0
C3083 C 0.75761 0.60815 0.09641 0.0
C3084 C 0.74349 0.63466 0.09867 0.0
C3085 C 0.72981 0.62823 0.09011 0.0
C3086 C 0.7302 0.61173 0.08473 0.0
C3087 C 0.74395 0.60183 0.08779 0.0
H3088 H 0.66355 0.4955 0.32642 0.0
H3089 H 0.62476 0.51282 0.35883 0.0
H3090 H 0.6472 0.47119 0.31974 0.0
H3091 H 0.60824 0.48824 0.35203 0.0
H3092 H 0.57937 0.45119 0.31573 0.0
H3093 H 0.59394 0.47577 0.32603 0.0
H3094 H 0.63738 0.4461 0.33512 0.0
H3095 H 0.62304 0.42179 0.32488 0.0
C3096 C 0.65154 0.49407 0.33218 0.0
C3097 C 0.64545 0.50602 0.3432 0.0
C3098 C 0.6422 0.48011 0.3284 0.0
C3099 C 0.6265 0.4778 0.33544 0.0
C3100 C 0.6203 0.48978 0.3464 0.0
C3101 C 0.62977 0.50374 0.35035 0.0
C3102 C 0.59195 0.44994 0.32014 0.0
C3103 C 0.60014 0.43463 0.3193 0.0
C3104 C 0.60025 0.46396 0.32608 0.0
C3105 C 0.61684 0.46284 0.33116 0.0
C3106 C 0.62469 0.44737 0.33102 0.0
C3107 C 0.61644 0.43344 0.32518 0.0
H3108 H 0.17309 0.8649 0.90961 0.0
H3109 H 0.20504 0.82673 0.929 0.0
H3110 H 0.19697 0.87927 0.89834 0.0
H3111 H 0.22912 0.8413 0.91765 0.0
H3112 H 0.2674 0.87047 0.88524 0.0
H3113 H 0.24328 0.85282 0.8908 0.0
H3114 H 0.21914 0.89377 0.91512 0.0
H3115 H 0.24304 0.91119 0.90976 0.0
C3116 C 0.1852 0.85942 0.91121 0.0
C3117 C 0.18724 0.84483 0.92041 0.0
C3118 C 0.19887 0.86767 0.90478 0.0
C3119 C 0.21488 0.86152 0.90736 0.0
C3120 C 0.21688 0.84628 0.91547 0.0
C3121 C 0.20313 0.83798 0.92199 0.0
C3122 C 0.25685 0.87567 0.89164 0.0
C3123 C 0.25705 0.89218 0.89707 0.0
C3124 C 0.24313 0.86557 0.89487 0.0
C3125 C 0.22934 0.87198 0.90328 0.0
C3126 C 0.22951 0.88857 0.90841 0.0
C3127 C 0.24323 0.89852 0.90542 0.0
H3128 H 0.41428 0.95811 0.20773 0.0
H3129 H 0.41219 0.9404 0.15738 0.0
H3130 H 0.40006 0.98336 0.19943 0.0
H3131 H 0.3977 0.96553 0.14914 0.0
H3132 H 0.37698 0.01717 0.13855 0.0
H3133 H 0.39745 0.99609 0.14604 0.0
H3134 H 0.371 0.98681 0.19152 0.0
H3135 H 0.35082 0.00779 0.18417 0.0
C3136 C 0.4111 0.95977 0.19482 0.0
C3137 C 0.41414 0.9472 0.18324 0.0
C3138 C 0.40286 0.97418 0.19009 0.0
C3139 C 0.39747 0.97628 0.1737 0.0
C3140 C 0.40171 0.9643 0.16185 0.0
C3141 C 0.40998 0.94987 0.16659 0.0
C3142 C 0.37565 0.01065 0.15017 0.0
C3143 C 0.36228 0.01406 0.16075 0.0
C3144 C 0.38733 -0.0014 0.15444 0.0
C3145 C 0.38592 0.98989 0.16943 0.0
C3146 C 0.37265 0.99352 0.18004 0.0
C3147 C 0.36097 0.00543 0.17575 0.0
H3148 H 0.08759 0.06418 0.65441 0.0
H3149 H 0.07967 0.04288 0.70274 0.0
H3150 H 0.10118 0.03883 0.64542 0.0
H3151 H 0.09303 0.01739 0.69365 0.0
H3152 H 0.14176 0.99057 0.68037 0.0
H3153 H 0.12236 0.01223 0.68792 0.0
H3154 H 0.0996 0.00882 0.63971 0.0
H3155 H 0.11929 0.98708 0.63204 0.0
C3156 C 0.08834 0.05391 0.66297 0.0
C3157 C 0.08277 0.05558 0.67935 0.0
C3158 C 0.09609 0.03936 0.6578 0.0
C3159 C 0.09842 0.02622 0.66891 0.0
C3160 C 0.09169 0.02744 0.68491 0.0
C3161 C 0.08393 0.04199 0.69008 0.0
C3162 C 0.13258 0.99437 0.67138 0.0
C3163 C 0.1321 0.98721 0.65558 0.0
C3164 C 0.12134 0.00667 0.67578 0.0
C3165 C 0.10935 0.01216 0.66446 0.0
C3166 C 0.10874 0.00488 0.64867 0.0
C3167 C 0.11998 0.99245 0.64429 0.0
H3168 H 0.07677 0.10007 0.35433 0.0
H3169 H 0.09691 0.11913 0.30868 0.0
H3170 H 0.10261 0.08574 0.35977 0.0
H3171 H 0.12274 0.10444 0.31394 0.0
H3172 H 0.16971 0.10522 0.3482 0.0
H3173 H 0.14371 0.11107 0.33437 0.0
H3174 H 0.12346 0.06519 0.35281 0.0
H3175 H 0.14951 0.05949 0.36699 0.0
C3176 C 0.08657 0.10081 0.34523 0.0
C3177 C 0.08498 0.11097 0.33127 0.0
C3178 C 0.10135 0.09248 0.34828 0.0
C3179 C 0.1148 0.09413 0.33737 0.0
C3180 C 0.11268 0.10317 0.32269 0.0
C3181 C 0.09789 0.11154 0.31967 0.0
C3182 C 0.15984 0.0962 0.349 0.0
C3183 C 0.16149 0.08207 0.35891 0.0
C3184 C 0.14496 0.09948 0.34095 0.0
C3185 C 0.13146 0.08866 0.34265 0.0
C3186 C 0.13358 0.07386 0.35149 0.0
C3187 C 0.14849 0.07058 0.35956 0.0
H3188 H 0.15233 0.8301 0.60061 0.0
H3189 H 0.13072 0.85019 0.55609 0.0
H3190 H 0.16612 0.85622 0.60576 0.0
H3191 H 0.14493 0.87634 0.561 0.0
H3192 H 0.18951 0.90357 0.61462 0.0
H3193 H 0.1852 0.87806 0.59912 0.0
H3194 H 0.13831 0.89683 0.58161 0.0
H3195 H 0.14286 0.92239 0.59667 0.0
C3196 C 0.15096 0.83995 0.59164 0.0
C3197 C 0.14017 0.83826 0.57817 0.0
C3198 C 0.15898 0.85492 0.59451 0.0
C3199 C 0.15642 0.86847 0.58391 0.0
C3200 C 0.14689 0.86623 0.56955 0.0
C3201 C 0.1388 0.85124 0.56672 0.0
C3202 C 0.17851 0.9024 0.60707 0.0
C3203 C 0.16634 0.91478 0.60711 0.0
C3204 C 0.17603 0.88778 0.59824 0.0
C3205 C 0.16128 0.88528 0.58939 0.0
C3206 C 0.14986 0.89835 0.58821 0.0
C3207 C 0.15239 0.91299 0.59696 0.0
H3208 H 0.32792 0.89732 0.84625 0.0
H3209 H 0.35194 0.93877 0.86985 0.0
H3210 H 0.35387 0.88968 0.83317 0.0
H3211 H 0.3779 0.93141 0.85635 0.0
H3212 H 0.40138 0.87912 0.80873 0.0
H3213 H 0.37642 0.89509 0.81449 0.0
H3214 H 0.39638 0.90882 0.86213 0.0
H3215 H 0.4214 0.8933 0.85617 0.0
C3216 C 0.33865 0.90508 0.84825 0.0
C3217 C 0.33801 0.91844 0.8593 0.0
C3218 C 0.35353 0.90077 0.84066 0.0
C3219 C 0.36803 0.90981 0.84391 0.0
C3220 C 0.36702 0.92402 0.85387 0.0
C3221 C 0.35214 0.92827 0.86153 0.0
C3222 C 0.40055 0.88586 0.82027 0.0
C3223 C 0.4132 0.88479 0.83212 0.0
C3224 C 0.38624 0.89495 0.82359 0.0
C3225 C 0.38432 0.90307 0.83884 0.0
C3226 C 0.3975 0.90288 0.85019 0.0
C3227 C 0.41181 0.89386 0.84684 0.0
H3228 H 0.36656 0.14755 0.05933 0.0
H3229 H 0.34539 0.17158 0.10207 0.0
H3230 H 0.35249 0.12194 0.06674 0.0
H3231 H 0.33178 0.14594 0.1098 0.0
H3232 H 0.30696 0.09889 0.12115 0.0
H3233 H 0.3124 0.12389 0.10512 0.0
H3234 H 0.35879 0.10301 0.08864 0.0
H3235 H 0.35312 0.078 0.1042 0.0
C3236 C 0.35865 0.14743 0.07014 0.0
C3237 C 0.35728 0.16144 0.0803 0.0
C3238 C 0.35065 0.13276 0.07442 0.0
C3239 C 0.34126 0.1318 0.08902 0.0
C3240 C 0.33882 0.14624 0.09841 0.0
C3241 C 0.34672 0.16094 0.09405 0.0
C3242 C 0.31812 0.09954 0.11377 0.0
C3243 C 0.32975 0.08664 0.1141 0.0
C3244 C 0.32127 0.11386 0.10465 0.0
C3245 C 0.33611 0.11554 0.09576 0.0
C3246 C 0.34714 0.10211 0.09519 0.0
C3247 C 0.34397 0.08779 0.10424 0.0
H3248 H 0.17124 0.89153 0.14765 0.0
H3249 H 0.14852 0.93535 0.12724 0.0
H3250 H 0.14555 0.88469 0.16163 0.0
H3251 H 0.12281 0.92871 0.1416 0.0
H3252 H 0.09938 0.8762 0.18893 0.0
H3253 H 0.12471 0.89108 0.18208 0.0
H3254 H 0.10265 0.90722 0.13616 0.0
H3255 H 0.07728 0.89273 0.14321 0.0
C3256 C 0.16086 0.89993 0.1465 0.0
C3257 C 0.16177 0.91382 0.13616 0.0
C3258 C 0.14615 0.89608 0.15462 0.0
C3259 C 0.13208 0.90609 0.1526 0.0
C3260 C 0.13337 0.92063 0.14319 0.0
C3261 C 0.1481 0.92447 0.13503 0.0
C3262 C 0.09985 0.88324 0.17755 0.0
C3263 C 0.08649 0.88311 0.16646 0.0
C3264 C 0.11435 0.89171 0.17361 0.0
C3265 C 0.11577 0.90014 0.15848 0.0
C3266 C 0.10194 0.90098 0.14798 0.0
C3267 C 0.08742 0.89256 0.15195 0.0
H3268 H 0.36668 0.84814 0.43825 0.0
H3269 H 0.34906 0.82769 0.39216 0.0
H3270 H 0.35251 0.87409 0.43214 0.0
H3271 H 0.33521 0.85361 0.38592 0.0
H3272 H 0.35463 0.92062 0.39707 0.0
H3273 H 0.35996 0.89482 0.4115 0.0
H3274 H 0.31441 0.87456 0.39226 0.0
H3275 H 0.30923 0.90039 0.37751 0.0
C3276 C 0.3595 0.84908 0.42699 0.0
C3277 C 0.35919 0.83603 0.41553 0.0
C3278 C 0.35144 0.86394 0.42348 0.0
C3279 C 0.34292 0.86596 0.40847 0.0
C3280 C 0.34154 0.85242 0.39766 0.0
C3281 C 0.3496 0.8376 0.40116 0.0
C3282 C 0.34557 0.9108 0.39622 0.0
C3283 C 0.33169 0.91237 0.38593 0.0
C3284 C 0.34854 0.89604 0.40461 0.0
C3285 C 0.33769 0.88258 0.40285 0.0
C3286 C 0.32311 0.88465 0.39363 0.0
C3287 C 0.32013 0.89944 0.38524 0.0
H3288 H 0.40026 0.12224 0.68723 0.0
H3289 H 0.42228 0.10325 0.64241 0.0
H3290 H 0.37449 0.10798 0.68062 0.0
H3291 H 0.39652 0.08926 0.63567 0.0
H3292 H 0.34995 0.06124 0.62858 0.0
H3293 H 0.37577 0.06828 0.64255 0.0
H3294 H 0.35416 0.11428 0.65904 0.0
H3295 H 0.32836 0.10713 0.64534 0.0
C3296 C 0.39969 0.11476 0.67614 0.0
C3297 C 0.41317 0.11403 0.6652 0.0
C3298 C 0.38493 0.10667 0.67233 0.0
C3299 C 0.38342 0.09767 0.65754 0.0
C3300 C 0.39732 0.09598 0.64723 0.0
C3301 C 0.41206 0.10409 0.65103 0.0
C3302 C 0.35064 0.07269 0.63547 0.0
C3303 C 0.33725 0.08376 0.63571 0.0
C3304 C 0.36542 0.07674 0.64342 0.0
C3305 C 0.36704 0.09188 0.65177 0.0
C3306 C 0.35327 0.10244 0.65286 0.0
C3307 C 0.33851 0.09841 0.6449 0.0
H3308 H 0.1871 0.10006 0.87351 0.0
H3309 H 0.14419 0.07647 0.89483 0.0
H3310 H 0.18011 0.12569 0.88777 0.0
H3311 H 0.13685 0.10216 0.90857 0.0
H3312 H 0.14467 0.17106 0.88992 0.0
H3313 H 0.15898 0.14563 0.88278 0.0
H3314 H 0.1422 0.12333 0.92839 0.0
H3315 H 0.12736 0.14869 0.93522 0.0
C3316 C 0.1763 0.1003 0.88144 0.0
C3317 C 0.16605 0.08637 0.8829 0.0
C3318 C 0.17226 0.115 0.88954 0.0
C3319 C 0.15779 0.11608 0.89911 0.0
C3320 C 0.14817 0.10177 0.90144 0.0
C3321 C 0.15231 0.08704 0.89346 0.0
C3322 C 0.1443 0.16083 0.89857 0.0
C3323 C 0.1347 0.16173 0.91298 0.0
C3324 C 0.15261 0.14626 0.89454 0.0
C3325 C 0.15159 0.13235 0.90494 0.0
C3326 C 0.14295 0.13371 0.91996 0.0
C3327 C 0.13453 0.14825 0.92391 0.0
H3328 H 0.1016 0.3445 0.16952 0.0
H3329 H 0.05906 0.36687 0.14626 0.0
H3330 H 0.10879 0.33112 0.14363 0.0
H3331 H 0.06586 0.35295 0.12039 0.0
H3332 H 0.10217 0.35252 0.07556 0.0
H3333 H 0.08718 0.35851 0.10087 0.0
H3334 H 0.10375 0.31215 0.12172 0.0
H3335 H 0.1193 0.30648 0.09649 0.0
C3336 C 0.0935 0.34614 0.15899 0.0
C3337 C 0.07997 0.35696 0.15979 0.0
C3338 C 0.09754 0.33837 0.14413 0.0
C3339 C 0.08803 0.34115 0.12983 0.0
C3340 C 0.07365 0.35085 0.13107 0.0
C3341 C 0.0697 0.35875 0.1459 0.0
C3342 C 0.10234 0.34346 0.08542 0.0
C3343 C 0.11213 0.3292 0.0842 0.0
C3344 C 0.09363 0.34682 0.09992 0.0
C3345 C 0.09441 0.33589 0.11344 0.0
C3346 C 0.10317 0.32097 0.11167 0.0
C3347 C 0.11201 0.3177 0.09721 0.0
H3348 H 0.59273 0.13769 0.92355 0.0
H3349 H 0.60894 0.18408 0.90266 0.0
H3350 H 0.57937 0.13064 0.89757 0.0
H3351 H 0.59514 0.17726 0.87674 0.0
H3352 H 0.59934 0.14305 0.83024 0.0
H3353 H 0.60359 0.1574 0.85625 0.0
H3354 H 0.55923 0.13504 0.87597 0.0
H3355 H 0.55522 0.1203 0.84992 0.0
C3356 C 0.59297 0.14662 0.91357 0.0
C3357 C 0.60215 0.16126 0.91499 0.0
C3358 C 0.58522 0.14263 0.89867 0.0
C3359 C 0.58643 0.15328 0.88497 0.0
C3360 C 0.59429 0.16865 0.88696 0.0
C3361 C 0.60212 0.17258 0.90182 0.0
C3362 C 0.5903 0.14147 0.83999 0.0
C3363 C 0.57712 0.13035 0.83817 0.0
C3364 C 0.59265 0.14981 0.8549 0.0
C3365 C 0.58182 0.14724 0.86827 0.0
C3366 C 0.56792 0.13707 0.86598 0.0
C3367 C 0.56559 0.12868 0.85106 0.0
H3368 H 0.93429 0.86422 0.3473 0.0
H3369 H 0.88765 0.85051 0.32518 0.0
H3370 H 0.92697 0.84891 0.37225 0.0
H3371 H 0.88015 0.83559 0.35017 0.0
H3372 H 0.87081 0.80557 0.39464 0.0
H3373 H 0.88513 0.81294 0.36912 0.0
H3374 H 0.90702 0.85503 0.39372 0.0
H3375 H 0.89307 0.84744 0.41923 0.0
C3376 C 0.92258 0.85774 0.34769 0.0
C3377 C 0.91142 0.85873 0.33442 0.0
C3378 C 0.91838 0.84902 0.36198 0.0
C3379 C 0.90292 0.84118 0.36326 0.0
C3380 C 0.89223 0.84133 0.34954 0.0
C3381 C 0.89646 0.85 0.33525 0.0
C3382 C 0.87898 0.81618 0.39466 0.0
C3383 C 0.88065 0.82609 0.40882 0.0
C3384 C 0.88712 0.82043 0.38004 0.0
C3385 C 0.89703 0.83468 0.37934 0.0
C3386 C 0.8996 0.84389 0.39386 0.0
C3387 C 0.8915 0.83961 0.40847 0.0
H3388 H 0.88371 0.14432 0.17342 0.0
H3389 H 0.93261 0.13417 0.15444 0.0
H3390 H 0.87723 0.15982 0.14851 0.0
H3391 H 0.92629 0.15011 0.1296 0.0
H3392 H 0.89582 0.1518 0.08027 0.0
H3393 H 0.90856 0.14406 0.10637 0.0
H3394 H 0.88216 0.18347 0.13102 0.0
H3395 H 0.86903 0.19091 0.10491 0.0
C3396 C 0.8932 0.14573 0.16407 0.0
C3397 C 0.90855 0.13785 0.16572 0.0
C3398 C 0.88955 0.15474 0.14984 0.0
C3399 C 0.90122 0.1561 0.13702 0.0
C3400 C 0.91696 0.14907 0.13916 0.0
C3401 C 0.92059 0.13999 0.15338 0.0
C3402 C 0.89303 0.15904 0.09119 0.0
C3403 C 0.88122 0.17174 0.09066 0.0
C3404 C 0.90041 0.15468 0.10615 0.0
C3405 C 0.89618 0.16301 0.12082 0.0
C3406 C 0.88541 0.17662 0.11998 0.0
C3407 C 0.87795 0.18092 0.10503 0.0
H3408 H 0.39444 0.64932 0.67003 0.0
H3409 H 0.43433 0.62425 0.64482 0.0
H3410 H 0.38591 0.66188 0.64406 0.0
H3411 H 0.42599 0.6371 0.61883 0.0
H3412 H 0.37556 0.68639 0.59607 0.0
H3413 H 0.39174 0.68018 0.62077 0.0
H3414 H 0.40179 0.63126 0.60176 0.0
H3415 H 0.38591 0.63757 0.577 0.0
C3416 C 0.40166 0.64687 0.65902 0.0
C3417 C 0.41486 0.63561 0.65937 0.0
C3418 C 0.39684 0.65413 0.64414 0.0
C3419 C 0.40516 0.65029 0.62936 0.0
C3420 C 0.41917 0.64005 0.62998 0.0
C3421 C 0.42398 0.63277 0.64486 0.0
C3422 C 0.38149 0.67442 0.59705 0.0
C3423 C 0.37932 0.66237 0.58474 0.0
C3424 C 0.39071 0.67087 0.61121 0.0
C3425 C 0.39793 0.65521 0.61327 0.0
C3426 C 0.39654 0.64352 0.60047 0.0
C3427 C 0.38733 0.64707 0.58633 0.0
H3428 H 0.05945 0.63154 0.34733 0.0
H3429 H 0.10468 0.65136 0.32699 0.0
H3430 H 0.06507 0.64545 0.37348 0.0
H3431 H 0.11059 0.6648 0.3532 0.0
H3432 H 0.11875 0.68959 0.40066 0.0
H3433 H 0.10457 0.68444 0.37455 0.0
H3434 H 0.08495 0.63886 0.39441 0.0
H3435 H 0.09866 0.64431 0.42058 0.0
C3436 C 0.07045 0.63912 0.34837 0.0
C3437 C 0.08179 0.64017 0.33525 0.0
C3438 C 0.07369 0.64702 0.36336 0.0
C3439 C 0.08841 0.656 0.36554 0.0
C3440 C 0.09907 0.6581 0.35194 0.0
C3441 C 0.09575 0.6503 0.33692 0.0
C3442 C 0.11107 0.67868 0.39954 0.0
C3443 C 0.11 0.6672 0.41252 0.0
C3444 C 0.10301 0.6757 0.38457 0.0
C3445 C 0.09384 0.66112 0.38229 0.0
C3446 C 0.09178 0.65029 0.39575 0.0
C3447 C 0.09974 0.65334 0.41075 0.0
H3448 H 0.43653 0.3663 0.84774 0.0
H3449 H 0.39165 0.34653 0.82661 0.0
H3450 H 0.43083 0.35175 0.87353 0.0
H3451 H 0.38565 0.33245 0.85245 0.0
H3452 H 0.39637 0.35193 0.92012 0.0
H3453 H 0.41067 0.35775 0.89438 0.0
H3454 H 0.39167 0.31239 0.87345 0.0
H3455 H 0.3769 0.30684 0.89917 0.0
C3456 C 0.42559 0.35861 0.84853 0.0
C3457 C 0.41436 0.35775 0.83531 0.0
C3458 C 0.4223 0.35033 0.8633 0.0
C3459 C 0.40767 0.34115 0.86516 0.0
C3460 C 0.39712 0.33928 0.85144 0.0
C3461 C 0.40048 0.34746 0.83664 0.0
C3462 C 0.39557 0.343 0.91017 0.0
C3463 C 0.38528 0.32911 0.91151 0.0
C3464 C 0.40387 0.34626 0.89541 0.0
C3465 C 0.40211 0.33564 0.88175 0.0
C3466 C 0.39299 0.32097 0.88364 0.0
C3467 C 0.3846 0.31776 0.89839 0.0
H3468 H 0.92069 0.89687 0.64041 0.0
H3469 H 0.89781 0.87571 0.68376 0.0
H3470 H 0.89484 0.91048 0.63336 0.0
H3471 H 0.87202 0.88986 0.67711 0.0
H3472 H 0.84837 0.93744 0.62474 0.0
H3473 H 0.87397 0.93043 0.63907 0.0
H3474 H 0.85157 0.88515 0.65656 0.0
H3475 H 0.82591 0.8925 0.6428 0.0
C3476 C 0.91023 0.89548 0.64865 0.0
C3477 C 0.91115 0.88505 0.66247 0.0
C3478 C 0.89541 0.90339 0.6447 0.0
C3479 C 0.88127 0.90113 0.65459 0.0
C3480 C 0.88258 0.89158 0.66905 0.0
C3481 C 0.89736 0.88354 0.6729 0.0
C3482 C 0.84885 0.92618 0.63197 0.0
C3483 C 0.83526 0.91539 0.6325 0.0
C3484 C 0.86352 0.92212 0.6401 0.0
C3485 C 0.86493 0.90711 0.64875 0.0
C3486 C 0.85092 0.89688 0.65016 0.0
C3487 C 0.83621 0.90103 0.64217 0.0
H3488 H 0.85351 0.07277 0.39859 0.0
H3489 H 0.80811 0.0943 0.38044 0.0
H3490 H 0.86021 0.09858 0.41249 0.0
H3491 H 0.81462 0.12006 0.3947 0.0
H3492 H 0.84926 0.16643 0.3937 0.0
H3493 H 0.83536 0.1405 0.38769 0.0
H3494 H 0.85436 0.1197 0.43311 0.0
H3495 H 0.86861 0.14568 0.43895 0.0
C3496 C 0.84473 0.08287 0.39797 0.0
C3497 C 0.83045 0.08165 0.3882 0.0
C3498 C 0.84851 0.09765 0.40603 0.0
C3499 C 0.83804 0.11145 0.40451 0.0
C3500 C 0.82307 0.10974 0.39585 0.0
C3501 C 0.81932 0.09497 0.38775 0.0
C3502 C 0.8502 0.15644 0.40257 0.0
C3503 C 0.86021 0.15797 0.41665 0.0
C3504 C 0.84212 0.1416 0.3992 0.0
C3505 C 0.84387 0.12798 0.40987 0.0
C3506 C 0.85297 0.1299 0.42455 0.0
C3507 C 0.86107 0.14478 0.42792 0.0
H3508 H 0.6489 0.06136 0.13023 0.0
H3509 H 0.67063 0.10802 0.14452 0.0
H3510 H 0.62327 0.06902 0.14422 0.0
H3511 H 0.64498 0.11579 0.15818 0.0
H3512 H 0.59917 0.12528 0.18632 0.0
H3513 H 0.62493 0.11085 0.18009 0.0
H3514 H 0.60228 0.08932 0.13675 0.0
H3515 H 0.5765 0.10344 0.14317 0.0
C3516 C 0.64829 0.07313 0.1366 0.0
C3517 C 0.66166 0.0842 0.13612 0.0
C3518 C 0.6336 0.07753 0.14455 0.0
C3519 C 0.63204 0.09306 0.15215 0.0
C3520 C 0.64582 0.10366 0.15258 0.0
C3521 C 0.66049 0.09926 0.14465 0.0
C3522 C 0.59961 0.11717 0.17567 0.0
C3523 C 0.58592 0.11564 0.16508 0.0
C3524 C 0.61437 0.10897 0.17208 0.0
C3525 C 0.6157 0.09912 0.15783 0.0
C3526 C 0.60163 0.0967 0.1479 0.0
C3527 C 0.58688 0.10488 0.15151 0.0
H3528 H 0.63287 0.84526 0.93628 0.0
H3529 H 0.64885 0.8233 0.89029 0.0
H3530 H 0.64812 0.87039 0.92961 0.0
H3531 H 0.66366 0.84853 0.88336 0.0
H3532 H 0.69187 0.89428 0.87432 0.0
H3533 H 0.68523 0.86848 0.88852 0.0
H3534 H 0.64183 0.89148 0.90965 0.0
H3535 H 0.64872 0.91725 0.89589 0.0
C3536 C 0.63987 0.84572 0.92487 0.0
C3537 C 0.63947 0.83247 0.91365 0.0
C3538 C 0.64855 0.86012 0.92103 0.0
C3539 C 0.65688 0.86156 0.90585 0.0
C3540 C 0.65749 0.8478 0.89522 0.0
C3541 C 0.64889 0.83336 0.89912 0.0
C3542 C 0.68112 0.89388 0.88231 0.0
C3543 C 0.67066 0.90766 0.88383 0.0
C3544 C 0.67729 0.87911 0.89038 0.0
C3545 C 0.66291 0.87786 0.90005 0.0
C3546 C 0.65311 0.89203 0.90244 0.0
C3547 C 0.65697 0.90679 0.89444 0.0
H3548 H 0.84793 0.06343 0.87856 0.0
H3549 H 0.82444 0.10475 0.8542 0.0
H3550 H 0.87385 0.06986 0.86459 0.0
H3551 H 0.85045 0.11148 0.84058 0.0
H3552 H 0.91907 0.10526 0.86044 0.0
H3553 H 0.89336 0.09205 0.86866 0.0
H3554 H 0.87197 0.10387 0.82113 0.0
H3555 H 0.89766 0.11749 0.81305 0.0
C3556 C 0.84827 0.07377 0.87006 0.0
C3557 C 0.83427 0.08374 0.86761 0.0
C3558 C 0.86312 0.07748 0.86211 0.0
C3559 C 0.86426 0.09129 0.85165 0.0
C3560 C 0.84995 0.10066 0.84844 0.0
C3561 C 0.83507 0.09688 0.85632 0.0
C3562 C 0.90898 0.10478 0.85164 0.0
C3563 C 0.91027 0.11257 0.8362 0.0
C3564 C 0.89427 0.0971 0.8563 0.0
C3565 C 0.88057 0.09703 0.84558 0.0
C3566 C 0.88222 0.10396 0.82974 0.0
C3567 C 0.89695 0.11168 0.8251 0.0
H3568 H 0.63104 0.15019 0.56257 0.0
H3569 H 0.64342 0.17111 0.61013 0.0
H3570 H 0.64631 0.12513 0.5696 0.0
H3571 H 0.65834 0.146 0.61731 0.0
H3572 H 0.68923 0.10183 0.6256 0.0
H3573 H 0.68154 0.12763 0.61199 0.0
H3574 H 0.6401 0.103 0.58893 0.0
H3575 H 0.648 0.07721 0.60221 0.0
C3576 C 0.63721 0.14951 0.57443 0.0
C3577 C 0.63589 0.16248 0.58591 0.0
C3578 C 0.64591 0.13516 0.57847 0.0
C3579 C 0.65341 0.13353 0.59405 0.0
C3580 C 0.65286 0.14692 0.60512 0.0
C3581 C 0.6442 0.16127 0.60108 0.0
C3582 C 0.6787 0.10187 0.61732 0.0
C3583 C 0.66905 0.0876 0.61513 0.0
C3584 C 0.67426 0.11664 0.60959 0.0
C3585 C 0.66009 0.1174 0.59957 0.0
C3586 C 0.65116 0.10281 0.59647 0.0
C3587 C 0.65562 0.08804 0.60416 0.0
H3588 H 0.66765 0.8923 0.34876 0.0
H3589 H 0.64512 0.9361 0.36942 0.0
H3590 H 0.64202 0.88577 0.33455 0.0
H3591 H 0.61947 0.9298 0.35481 0.0
H3592 H 0.57431 0.89337 0.35483 0.0
H3593 H 0.59965 0.90827 0.3609 0.0
H3594 H 0.62058 0.89175 0.31457 0.0
H3595 H 0.59523 0.87644 0.30868 0.0
C3596 C 0.65735 0.9008 0.34987 0.0
C3597 C 0.65825 0.91452 0.36045 0.0
C3598 C 0.64267 0.89713 0.34161 0.0
C3599 C 0.62862 0.90715 0.34374 0.0
C3600 C 0.63001 0.92169 0.35318 0.0
C3601 C 0.6447 0.92533 0.36148 0.0
C3602 C 0.58418 0.89319 0.34578 0.0
C3603 C 0.58294 0.88351 0.33144 0.0
C3604 C 0.59868 0.90187 0.34918 0.0
C3605 C 0.61221 0.90106 0.33829 0.0
C3606 C 0.61046 0.89239 0.32332 0.0
C3607 C 0.59594 0.88368 0.31993 0.0
H3608 H 0.849 0.82677 0.10088 0.0
H3609 H 0.87295 0.84927 0.05878 0.0
H3610 H 0.83589 0.85298 0.10748 0.0
H3611 H 0.8594 0.87548 0.06507 0.0
H3612 H 0.8584 0.92049 0.1014 0.0
H3613 H 0.86464 0.89503 0.08673 0.0
H3614 H 0.81716 0.87509 0.1011 0.0
H3615 H 0.81117 0.90048 0.11624 0.0
C3616 C 0.85108 0.83722 0.09276 0.0
C3617 C 0.86221 0.83608 0.0795 0.0
C3618 C 0.84347 0.85225 0.09647 0.0
C3619 C 0.84676 0.8664 0.0869 0.0
C3620 C 0.85688 0.86488 0.07285 0.0
C3621 C 0.86457 0.84986 0.06921 0.0
C3622 C 0.84915 0.91082 0.10112 0.0
C3623 C 0.83444 0.91233 0.11019 0.0
C3624 C 0.85266 0.89623 0.09261 0.0
C3625 C 0.84147 0.88292 0.09291 0.0
C3626 C 0.82617 0.88499 0.1009 0.0
C3627 C 0.82271 0.89955 0.1095 0.0
H3628 H 0.94102 0.62261 0.84942 0.0
H3629 H 0.89646 0.64204 0.82729 0.0
H3630 H 0.93513 0.63793 0.87473 0.0
H3631 H 0.89032 0.65695 0.85265 0.0
H3632 H 0.88249 0.68533 0.89818 0.0
H3633 H 0.89688 0.67801 0.87268 0.0
H3634 H 0.91459 0.63315 0.89572 0.0
H3635 H 0.90063 0.64069 0.92122 0.0
C3636 C 0.9301 0.63036 0.84988 0.0
C3637 C 0.91905 0.63095 0.83651 0.0
C3638 C 0.92671 0.63909 0.86439 0.0
C3639 C 0.91216 0.6485 0.86579 0.0
C3640 C 0.90172 0.64996 0.85196 0.0
C3641 C 0.90516 0.6413 0.83744 0.0
C3642 C 0.88982 0.67413 0.89789 0.0
C3643 C 0.89024 0.66344 0.91157 0.0
C3644 C 0.89799 0.6699 0.88328 0.0
C3645 C 0.90666 0.65488 0.88208 0.0
C3646 C 0.90813 0.64487 0.89622 0.0
C3647 C 0.90003 0.64913 0.91084 0.0
H3648 H 0.35591 0.86399 0.08841 0.0
H3649 H 0.38848 0.82171 0.08565 0.0
H3650 H 0.36913 0.87251 0.11412 0.0
H3651 H 0.40195 0.83051 0.1114 0.0
H3652 H 0.43009 0.86915 0.14767 0.0
H3653 H 0.41885 0.85772 0.12192 0.0
H3654 H 0.37001 0.85742 0.14342 0.0
H3655 H 0.38115 0.86853 0.16915 0.0
C3656 C 0.36603 0.85664 0.09319 0.0
C3657 C 0.37115 0.84217 0.08509 0.0
C3658 C 0.37351 0.86145 0.10794 0.0
C3659 C 0.38639 0.85204 0.11473 0.0
C3660 C 0.39199 0.83792 0.10635 0.0
C3661 C 0.38431 0.83292 0.09168 0.0
C3662 C 0.41701 0.86634 0.14697 0.0
C3663 C 0.40646 0.86981 0.16034 0.0
C3664 C 0.41063 0.85981 0.13229 0.0
C3665 C 0.39359 0.85692 0.13074 0.0
C3666 C 0.38318 0.85973 0.14433 0.0
C3667 C 0.38957 0.866 0.15905 0.0
H3668 H 0.10323 0.14465 0.57561 0.0
H3669 H 0.12569 0.18714 0.59892 0.0
H3670 H 0.08922 0.13792 0.60134 0.0
H3671 H 0.11138 0.18057 0.62468 0.0
H3672 H 0.10866 0.1437 0.6695 0.0
H3673 H 0.11633 0.15801 0.64417 0.0
H3674 H 0.06913 0.14529 0.6226 0.0
H3675 H 0.06157 0.13067 0.64789 0.0
C3676 C 0.10484 0.15279 0.58613 0.0
C3677 C 0.11573 0.16626 0.58536 0.0
C3678 C 0.09672 0.149 0.60086 0.0
C3679 C 0.09934 0.15863 0.61509 0.0
C3680 C 0.10933 0.17279 0.61397 0.0
C3681 C 0.11745 0.17659 0.59922 0.0
C3682 C 0.0998 0.14423 0.65947 0.0
C3683 C 0.08464 0.13587 0.66054 0.0
C3684 C 0.10413 0.15254 0.64499 0.0
C3685 C 0.09337 0.15265 0.63134 0.0
C3686 C 0.07775 0.14521 0.63284 0.0
C3687 C 0.07342 0.13688 0.64733 0.0
H3688 H 0.12021 0.809 0.89996 0.0
H3689 H 0.10234 0.85475 0.92094 0.0
H3690 H 0.10542 0.81497 0.87435 0.0
H3691 H 0.08809 0.86101 0.8953 0.0
H3692 H 0.06113 0.86956 0.84911 0.0
H3693 H 0.06743 0.8556 0.87508 0.0
H3694 H 0.11123 0.83442 0.85288 0.0
H3695 H 0.10455 0.84785 0.82684 0.0
C3696 C 0.11288 0.82018 0.89919 0.0
C3697 C 0.11261 0.83155 0.91232 0.0
C3698 C 0.10449 0.82365 0.8845 0.0
C3699 C 0.09579 0.83859 0.88266 0.0
C3700 C 0.09453 0.84932 0.89629 0.0
C3701 C 0.10281 0.84579 0.911 0.0
C3702 C 0.07191 0.86163 0.84972 0.0
C3703 C 0.08251 0.85997 0.83608 0.0
C3704 C 0.07555 0.85368 0.8646 0.0
C3705 C 0.08996 0.84409 0.86615 0.0
C3706 C 0.09994 0.84157 0.85212 0.0
C3707 C 0.0962 0.84938 0.8372 0.0
H3708 H 0.56269 0.36997 0.34834 0.0
H3709 H 0.60704 0.34979 0.32647 0.0
H3710 H 0.56944 0.35653 0.37448 0.0
H3711 H 0.61414 0.3369 0.35263 0.0
H3712 H 0.60356 0.35672 0.42088 0.0
H3713 H 0.58977 0.36278 0.39487 0.0
H3714 H 0.609 0.31743 0.37405 0.0
H3715 H 0.62334 0.31174 0.39995 0.0
C3716 C 0.57375 0.36245 0.34907 0.0
C3717 C 0.58448 0.36109 0.33548 0.0
C3718 C 0.57766 0.35483 0.36405 0.0
C3719 C 0.59245 0.34586 0.36574 0.0
C3720 C 0.60256 0.34358 0.35177 0.0
C3721 C 0.59856 0.35106 0.33676 0.0
C3722 C 0.6046 0.34792 0.41083 0.0
C3723 C 0.61472 0.33393 0.4123 0.0
C3724 C 0.59658 0.35131 0.39594 0.0
C3725 C 0.59841 0.34067 0.3823 0.0
C3726 C 0.60762 0.32605 0.38421 0.0
C3727 C 0.61577 0.32276 0.39905 0.0
H3728 H 0.89592 0.35242 0.57625 0.0
H3729 H 0.8775 0.30696 0.59737 0.0
H3730 H 0.91077 0.35825 0.60168 0.0
H3731 H 0.89283 0.31253 0.62275 0.0
H3732 H 0.93795 0.36659 0.64768 0.0
H3733 H 0.93167 0.35219 0.62192 0.0
H3734 H 0.88721 0.33238 0.64404 0.0
H3735 H 0.89375 0.34631 0.66979 0.0
C3736 C 0.89544 0.34344 0.58618 0.0
C3737 C 0.88531 0.32941 0.58498 0.0
C3738 C 0.90407 0.34671 0.60074 0.0
C3739 C 0.90282 0.33595 0.61435 0.0
C3740 C 0.89378 0.32121 0.6126 0.0
C3741 C 0.88505 0.318 0.59806 0.0
C3742 C 0.92707 0.35879 0.64713 0.0
C3743 C 0.91617 0.35778 0.66062 0.0
C3744 C 0.92344 0.35061 0.63237 0.0
C3745 C 0.90881 0.34135 0.63082 0.0
C3746 C 0.89866 0.33929 0.64479 0.0
C3747 C 0.90233 0.34739 0.65956 0.0
H3748 H 0.6193 0.68977 0.09911 0.0
H3749 H 0.60095 0.64531 0.07592 0.0
H3750 H 0.60444 0.68274 0.1244 0.0
H3751 H 0.58657 0.638 0.10125 0.0
H3752 H 0.60413 0.64703 0.16985 0.0
H3753 H 0.61052 0.66187 0.14456 0.0
H3754 H 0.56592 0.64286 0.12203 0.0
H3755 H 0.5598 0.62756 0.14731 0.0
C3756 C 0.61185 0.67865 0.09934 0.0
C3757 C 0.61148 0.66793 0.08568 0.0
C3758 C 0.6034 0.67459 0.11383 0.0
C3759 C 0.59454 0.65968 0.11494 0.0
C3760 C 0.59315 0.64964 0.10081 0.0
C3761 C 0.6015 0.65376 0.08629 0.0
C3762 C 0.59551 0.64629 0.15962 0.0
C3763 C 0.58164 0.63592 0.16042 0.0
C3764 C 0.5991 0.65491 0.14514 0.0
C3765 C 0.58881 0.65341 0.13119 0.0
C3766 C 0.57424 0.64403 0.13246 0.0
C3767 C 0.5707 0.63532 0.14694 0.0
H3768 H 0.67042 0.60344 0.84784 0.0
H3769 H 0.64894 0.55988 0.87001 0.0
H3770 H 0.64441 0.60927 0.834 0.0
H3771 H 0.62298 0.56535 0.85567 0.0
H3772 H 0.59746 0.617 0.80815 0.0
H3773 H 0.62325 0.60269 0.81448 0.0
H3774 H 0.6023 0.58579 0.86068 0.0
H3775 H 0.57647 0.59957 0.85406 0.0
C3776 C 0.66026 0.59485 0.84937 0.0
C3777 C 0.66158 0.5814 0.86022 0.0
C3778 C 0.64535 0.59811 0.84133 0.0
C3779 C 0.63152 0.58787 0.84389 0.0
C3780 C 0.6333 0.57365 0.85372 0.0
C3781 C 0.64818 0.57048 0.86187 0.0
C3782 C 0.59828 0.60988 0.81946 0.0
C3783 C 0.58509 0.6096 0.83075 0.0
C3784 C 0.61306 0.60175 0.82312 0.0
C3785 C 0.61495 0.59332 0.8382 0.0
C3786 C 0.60127 0.59203 0.84888 0.0
C3787 C 0.58647 0.60005 0.84516 0.0
H3788 H 0.64574 0.42106 0.09534 0.0
H3789 H 0.6915 0.40057 0.11374 0.0
H3790 H 0.64031 0.39562 0.0804 0.0
H3791 H 0.68634 0.37516 0.09831 0.0
H3792 H 0.65225 0.32818 0.09886 0.0
H3793 H 0.66671 0.35385 0.10439 0.0
H3794 H 0.64621 0.3751 0.05983 0.0
H3795 H 0.63126 0.34942 0.05458 0.0
C3796 C 0.65489 0.41128 0.09577 0.0
C3797 C 0.66884 0.41262 0.10598 0.0
C3798 C 0.65186 0.39671 0.08708 0.0
C3799 C 0.66278 0.38324 0.08835 0.0
C3800 C 0.67753 0.3852 0.09734 0.0
C3801 C 0.68051 0.39976 0.10614 0.0
C3802 C 0.65115 0.33818 0.09002 0.0
C3803 C 0.64035 0.33695 0.07651 0.0
C3804 C 0.65956 0.3529 0.09311 0.0
C3805 C 0.65741 0.36664 0.08268 0.0
C3806 C 0.64785 0.36484 0.06827 0.0
C3807 C 0.63935 0.35012 0.06523 0.0
H3808 H 0.85256 0.43762 0.36874 0.0
H3809 H 0.82774 0.39574 0.34681 0.0
H3810 H 0.87809 0.42987 0.35468 0.0
H3811 H 0.8533 0.38766 0.33323 0.0
H3812 H 0.92152 0.39189 0.35442 0.0
H3813 H 0.89669 0.40762 0.36051 0.0
H3814 H 0.87542 0.39219 0.31395 0.0
H3815 H 0.90022 0.37599 0.30811 0.0
C3816 C 0.8525 0.42693 0.36068 0.0
C3817 C 0.83827 0.41711 0.35907 0.0
C3818 C 0.86713 0.42245 0.35269 0.0
C3819 C 0.86783 0.40799 0.34307 0.0
C3820 C 0.85321 0.39894 0.34044 0.0
C3821 C 0.83855 0.4035 0.34832 0.0
C3822 C 0.91168 0.39212 0.34534 0.0
C3823 C 0.91267 0.38251 0.33093 0.0
C3824 C 0.89747 0.40125 0.34875 0.0
C3825 C 0.88397 0.40104 0.33778 0.0
C3826 C 0.88548 0.39238 0.32278 0.0
C3827 C 0.8997 0.38316 0.31941 0.0
H3828 H 0.86897 0.6475 0.55782 0.0
H3829 H 0.85009 0.67006 0.60239 0.0
H3830 H 0.85409 0.62211 0.56434 0.0
H3831 H 0.8358 0.64458 0.60929 0.0
H3832 H 0.80926 0.59832 0.6192 0.0
H3833 H 0.81547 0.62392 0.60449 0.0
H3834 H 0.8596 0.6014 0.58434 0.0
H3835 H 0.85302 0.57577 0.59847 0.0
C3836 C 0.86143 0.6471 0.56888 0.0
C3837 C 0.86087 0.66062 0.57975 0.0
C3838 C 0.85298 0.63254 0.57266 0.0
C3839 C 0.84398 0.63118 0.58748 0.0
C3840 C 0.84247 0.64518 0.5977 0.0
C3841 C 0.85076 0.65979 0.59381 0.0
C3842 C 0.82007 0.59878 0.6113 0.0
C3843 C 0.83081 0.58518 0.61015 0.0
C3844 C 0.82367 0.61345 0.60295 0.0
C3845 C 0.83816 0.61482 0.59343 0.0
C3846 C 0.84824 0.60078 0.5914 0.0
C3847 C 0.84455 0.58609 0.59962 0.0
H3848 H 0.57719 0.39716 0.64645 0.0
H3849 H 0.59738 0.377 0.6916 0.0
H3850 H 0.6029 0.41182 0.64145 0.0
H3851 H 0.62309 0.39207 0.68683 0.0
H3852 H 0.67035 0.39318 0.65293 0.0
H3853 H 0.64452 0.38672 0.6668 0.0
H3854 H 0.62328 0.4323 0.64869 0.0
H3855 H 0.64909 0.43853 0.63438 0.0
C3856 C 0.58698 0.39623 0.65554 0.0
C3857 C 0.58543 0.3857 0.66923 0.0
C3858 C 0.6017 0.40476 0.65276 0.0
C3859 C 0.61513 0.40297 0.66366 0.0
C3860 C 0.61306 0.39348 0.67807 0.0
C3861 C 0.59834 0.38489 0.68082 0.0
C3862 C 0.66031 0.40202 0.65225 0.0
C3863 C 0.66159 0.41617 0.64231 0.0
C3864 C 0.6455 0.39839 0.66031 0.0
C3865 C 0.63174 0.40888 0.65864 0.0
C3866 C 0.63356 0.42382 0.64994 0.0
C3867 C 0.64836 0.42741 0.64181 0.0
H3868 H 0.86275 0.34572 0.93674 0.0
H3869 H 0.8461 0.32401 0.89087 0.0
H3870 H 0.84796 0.37115 0.93009 0.0
H3871 H 0.83171 0.3495 0.88401 0.0
H3872 H 0.84994 0.41735 0.89524 0.0
H3873 H 0.85544 0.39159 0.90962 0.0
H3874 H 0.81083 0.3705 0.88909 0.0
H3875 H 0.80551 0.39633 0.87437 0.0
C3876 C 0.85564 0.34627 0.9254 0.0
C3877 C 0.85581 0.33303 0.91416 0.0
C3878 C 0.84723 0.36084 0.92157 0.0
C3879 C 0.83892 0.36245 0.9064 0.0
C3880 C 0.8379 0.34866 0.89585 0.0
C3881 C 0.84625 0.33406 0.89972 0.0
C3882 C 0.84112 0.40735 0.89407 0.0
C3883 C 0.82746 0.40873 0.88348 0.0
C3884 C 0.84419 0.3926 0.90243 0.0
C3885 C 0.83363 0.37894 0.90039 0.0
C3886 C 0.8193 0.38074 0.89073 0.0
C3887 C 0.81623 0.39553 0.88235 0.0
H3888 H 0.92138 0.59744 0.14473 0.0
H3889 H 0.89978 0.61768 0.18921 0.0
H3890 H 0.89557 0.58347 0.13851 0.0
H3891 H 0.87396 0.60325 0.18324 0.0
H3892 H 0.82792 0.60357 0.14796 0.0
H3893 H 0.85352 0.60939 0.16253 0.0
H3894 H 0.87434 0.5636 0.14441 0.0
H3895 H 0.84878 0.55804 0.12938 0.0
C3896 C 0.91125 0.5985 0.15344 0.0
C3897 C 0.91246 0.6089 0.16727 0.0
C3898 C 0.89646 0.59037 0.14995 0.0
C3899 C 0.88261 0.59243 0.16027 0.0
C3900 C 0.88432 0.60168 0.17489 0.0
C3901 C 0.89911 0.60988 0.17834 0.0
C3902 C 0.83783 0.59458 0.14738 0.0
C3903 C 0.83651 0.58053 0.13729 0.0
C3904 C 0.85249 0.59783 0.15585 0.0
C3905 C 0.86607 0.58704 0.15447 0.0
C3906 C 0.86421 0.5723 0.14547 0.0
C3907 C 0.84957 0.5691 0.13691 0.0
H3908 H 0.64616 0.66998 0.39326 0.0
H3909 H 0.62909 0.64769 0.43869 0.0
H3910 H 0.66093 0.64478 0.38637 0.0
H3911 H 0.64428 0.62245 0.43199 0.0
H3912 H 0.68993 0.59998 0.37738 0.0
H3913 H 0.68266 0.62526 0.39212 0.0
H3914 H 0.63901 0.60128 0.41153 0.0
H3915 H 0.64655 0.57594 0.3972 0.0
C3916 C 0.64591 0.65982 0.40197 0.0
C3917 C 0.63628 0.66069 0.41638 0.0
C3918 C 0.6545 0.64539 0.3981 0.0
C3919 C 0.65368 0.63154 0.40858 0.0
C3920 C 0.64495 0.63283 0.42355 0.0
C3921 C 0.63631 0.64729 0.42742 0.0
C3922 C 0.67899 0.60002 0.38512 0.0
C3923 C 0.66864 0.58611 0.38594 0.0
C3924 C 0.6748 0.61451 0.39351 0.0
C3925 C 0.66012 0.61537 0.40278 0.0
C3926 C 0.65047 0.60102 0.4046 0.0
C3927 C 0.65472 0.58651 0.39629 0.0
H3928 H 0.60538 0.85244 0.67285 0.0
H3929 H 0.55754 0.86723 0.65429 0.0
H3930 H 0.61049 0.83706 0.64761 0.0
H3931 H 0.56245 0.85139 0.62906 0.0
H3932 H 0.59357 0.85113 0.57997 0.0
H3933 H 0.58059 0.85753 0.6063 0.0
H3934 H 0.60463 0.81524 0.62847 0.0
H3935 H 0.61805 0.80917 0.60215 0.0
C3936 C 0.59574 0.85198 0.66357 0.0
C3937 C 0.58121 0.86128 0.66538 0.0
C3938 C 0.59861 0.84305 0.64911 0.0
C3939 C 0.58696 0.84318 0.63619 0.0
C3940 C 0.57179 0.8513 0.63866 0.0
C3941 C 0.56894 0.8603 0.65313 0.0
C3942 C 0.59578 0.84298 0.59037 0.0
C3943 C 0.60707 0.82987 0.58912 0.0
C3944 C 0.58823 0.84656 0.60547 0.0
C3945 C 0.59176 0.83702 0.61958 0.0
C3946 C 0.60192 0.82302 0.61791 0.0
C3947 C 0.60956 0.81952 0.60283 0.0
H3948 H 0.34821 0.43418 0.129 0.0
H3949 H 0.32762 0.38636 0.14087 0.0
H3950 H 0.37373 0.42675 0.14331 0.0
H3951 H 0.35317 0.37877 0.15475 0.0
H3952 H 0.3981 0.36996 0.18454 0.0
H3953 H 0.372 0.38326 0.1774 0.0
H3954 H 0.39591 0.40791 0.13644 0.0
H3955 H 0.42205 0.39499 0.14389 0.0
C3956 C 0.34907 0.42217 0.13486 0.0
C3957 C 0.33603 0.41076 0.13368 0.0
C3958 C 0.36369 0.4179 0.14298 0.0
C3959 C 0.36554 0.40213 0.15003 0.0
C3960 C 0.35211 0.39109 0.14963 0.0
C3961 C 0.33749 0.39538 0.14156 0.0
C3962 C 0.39782 0.37847 0.1742 0.0
C3963 C 0.41202 0.3813 0.16462 0.0
C3964 C 0.38287 0.38602 0.17008 0.0
C3965 C 0.38183 0.39647 0.15623 0.0
C3966 C 0.3963 0.40005 0.14727 0.0
C3967 C 0.41127 0.39257 0.15146 0.0
H3968 H 0.35004 0.67025 0.89385 0.0
H3969 H 0.36943 0.64955 0.93911 0.0
H3970 H 0.33584 0.64448 0.88808 0.0
H3971 H 0.35479 0.62373 0.93355 0.0
H3972 H 0.35399 0.57671 0.89927 0.0
H3973 H 0.36045 0.60247 0.91337 0.0
H3974 H 0.31528 0.62409 0.89465 0.0
H3975 H 0.30911 0.59842 0.88011 0.0
C3976 C 0.35089 0.66032 0.90279 0.0
C3977 C 0.36106 0.66178 0.91677 0.0
C3978 C 0.34263 0.64555 0.89956 0.0
C3979 C 0.34432 0.63196 0.91028 0.0
C3980 C 0.35347 0.63389 0.92493 0.0
C3981 C 0.36179 0.64868 0.92814 0.0
C3982 C 0.34526 0.58684 0.89849 0.0
C3983 C 0.33124 0.58571 0.88834 0.0
C3984 C 0.34889 0.60159 0.90667 0.0
C3985 C 0.33849 0.61543 0.90492 0.0
C3986 C 0.32371 0.61376 0.89595 0.0
C3987 C 0.32015 0.59905 0.88767 0.0
H3988 H 0.17101 0.60715 0.64729 0.0
H3989 H 0.14791 0.5615 0.63195 0.0
H3990 H 0.14596 0.61495 0.66192 0.0
H3991 H 0.12289 0.5691 0.64703 0.0
H3992 H 0.10075 0.62565 0.69019 0.0
H3993 H 0.12603 0.6105 0.68368 0.0
H3994 H 0.10226 0.58965 0.64058 0.0
H3995 H 0.07698 0.60439 0.64735 0.0
C3996 C 0.16072 0.59858 0.64742 0.0
C3997 C 0.16128 0.58387 0.63825 0.0
C3998 C 0.14638 0.60299 0.65593 0.0
C3999 C 0.13235 0.59272 0.65548 0.0
C4000 C 0.1334 0.5774 0.64735 0.0
C4001 C 0.14773 0.57302 0.63878 0.0
C4002 C 0.10085 0.61753 0.67955 0.0
C4003 C 0.08701 0.61638 0.66912 0.0
C4004 C 0.11533 0.60891 0.67579 0.0
C4005 C 0.11623 0.59904 0.66151 0.0
C4006 C 0.10197 0.59701 0.65177 0.0
C4007 C 0.08749 0.60557 0.65557 0.0
H4008 H 0.18589 0.39758 0.36896 0.0
H4009 H 0.14496 0.42248 0.39262 0.0
H4010 H 0.17797 0.37178 0.38236 0.0
H4011 H 0.13676 0.39661 0.40567 0.0
H4012 H 0.12856 0.34911 0.43259 0.0
H4013 H 0.14298 0.37452 0.42499 0.0
H4014 H 0.15502 0.35331 0.37743 0.0
H4015 H 0.141 0.32788 0.38517 0.0
C4016 C 0.17533 0.39758 0.37721 0.0
C4017 C 0.1659 0.41196 0.37961 0.0
C4018 C 0.17076 0.38279 0.38481 0.0
C4019 C 0.15662 0.3821 0.39489 0.0
C4020 C 0.1478 0.39674 0.39808 0.0
C4021 C 0.15243 0.41156 0.39054 0.0
C4022 C 0.13454 0.34982 0.42062 0.0
C4023 C 0.13355 0.33661 0.40939 0.0
C4024 C 0.14273 0.36437 0.41626 0.0
C4025 C 0.15004 0.36597 0.40058 0.0
C4026 C 0.1497 0.35242 0.38968 0.0
C4027 C 0.14156 0.33788 0.39406 0.0
H4028 H 0.32695 0.60563 0.34634 0.0
H4029 H 0.34984 0.56262 0.36821 0.0
H4030 H 0.3529 0.61256 0.3328 0.0
H4031 H 0.37572 0.56924 0.35424 0.0
H4032 H 0.42069 0.6053 0.35424 0.0
H4033 H 0.3951 0.59091 0.36033 0.0
H4034 H 0.37492 0.60669 0.31342 0.0
H4035 H 0.40056 0.62152 0.3075 0.0
C4036 C 0.33741 0.5974 0.34786 0.0
C4037 C 0.33651 0.58378 0.35857 0.0
C4038 C 0.35227 0.6013 0.34001 0.0
C4039 C 0.36646 0.59157 0.34264 0.0
C4040 C 0.3651 0.57716 0.35224 0.0
C4041 C 0.35028 0.57334 0.3602 0.0
C4042 C 0.41092 0.60544 0.34508 0.0
C4043 C 0.4125 0.61473 0.33052 0.0
C4044 C 0.39627 0.59706 0.3485 0.0
C4045 C 0.3829 0.59775 0.3374 0.0
C4046 C 0.38491 0.60613 0.32231 0.0
C4047 C 0.3996 0.61456 0.3189 0.0
H4048 H 0.1413 0.57473 0.09691 0.0
H4049 H 0.18701 0.59592 0.11463 0.0
H4050 H 0.13478 0.6005 0.08287 0.0
H4051 H 0.18072 0.62161 0.10017 0.0
H4052 H 0.12601 0.64772 0.05696 0.0
H4053 H 0.14032 0.62166 0.06234 0.0
H4054 H 0.16038 0.64219 0.10743 0.0
H4055 H 0.14645 0.66818 0.10187 0.0
C4056 C 0.15019 0.58474 0.09738 0.0
C4057 C 0.16449 0.58347 0.10712 0.0
C4058 C 0.14651 0.59949 0.08923 0.0
C4059 C 0.15712 0.6132 0.09062 0.0
C4060 C 0.17215 0.61138 0.09916 0.0
C4061 C 0.17577 0.59665 0.10738 0.0
C4062 C 0.13381 0.64675 0.06781 0.0
C4063 C 0.13494 0.65986 0.07914 0.0
C4064 C 0.14194 0.63182 0.07091 0.0
C4065 C 0.15134 0.62979 0.08538 0.0
C4066 C 0.15339 0.64336 0.09607 0.0
C4067 C 0.14529 0.65824 0.09296 0.0
H4068 H 0.14698 0.44163 0.87012 0.0
H4069 H 0.16856 0.3986 0.84701 0.0
H4070 H 0.12083 0.43606 0.85616 0.0
H4071 H 0.1424 0.39262 0.83361 0.0
H4072 H 0.09512 0.3838 0.80917 0.0
H4073 H 0.12073 0.39869 0.81479 0.0
H4074 H 0.10047 0.41556 0.86133 0.0
H4075 H 0.07476 0.40127 0.85535 0.0
C4076 C 0.14619 0.43113 0.86185 0.0
C4077 C 0.15968 0.42038 0.85984 0.0
C4078 C 0.13121 0.4279 0.85391 0.0
C4079 C 0.12941 0.41375 0.84398 0.0
C4080 C 0.14333 0.40372 0.84103 0.0
C4081 C 0.15833 0.40706 0.84883 0.0
C4082 C 0.09605 0.39104 0.8204 0.0
C4083 C 0.08311 0.39118 0.83197 0.0
C4084 C 0.11073 0.39951 0.82366 0.0
C4085 C 0.11279 0.40808 0.83864 0.0
C4086 C 0.09931 0.40922 0.8496 0.0
C4087 C 0.08458 0.40091 0.84624 0.0
H4088 H 0.35325 0.42095 0.59662 0.0
H4089 H 0.30808 0.39914 0.61495 0.0
H4090 H 0.36008 0.3952 0.5827 0.0
H4091 H 0.31464 0.37346 0.60058 0.0
H4092 H 0.3499 0.3277 0.60299 0.0
H4093 H 0.33529 0.3534 0.608 0.0
H4094 H 0.35505 0.3736 0.56262 0.0
H4095 H 0.37007 0.34782 0.55781 0.0
C4096 C 0.34453 0.4108 0.59724 0.0
C4097 C 0.33033 0.41189 0.60715 0.0
C4098 C 0.34837 0.39606 0.58915 0.0
C4099 C 0.33802 0.38218 0.59076 0.0
C4100 C 0.32303 0.38383 0.5994 0.0
C4101 C 0.31925 0.39854 0.60758 0.0
C4102 C 0.35086 0.33749 0.5939 0.0
C4103 C 0.36134 0.33589 0.58017 0.0
C4104 C 0.34235 0.35221 0.59669 0.0
C4105 C 0.34412 0.36562 0.58577 0.0
C4106 C 0.35364 0.36356 0.57137 0.0
C4107 C 0.36218 0.3488 0.56859 0.0
H4108 H 0.39538 0.14735 0.32925 0.0
H4109 H 0.43932 0.12608 0.35093 0.0
H4110 H 0.38888 0.16068 0.35536 0.0
H4111 H 0.43297 0.13973 0.37713 0.0
H4112 H 0.38031 0.18605 0.40242 0.0
H4113 H 0.39561 0.1804 0.37702 0.0
H4114 H 0.41116 0.13334 0.39697 0.0
H4115 H 0.39621 0.13914 0.42241 0.0
C4116 C 0.40388 0.14588 0.33949 0.0
C4117 C 0.41769 0.13546 0.33816 0.0
C4118 C 0.40024 0.15363 0.35445 0.0
C4119 C 0.41034 0.15112 0.36837 0.0
C4120 C 0.42484 0.1417 0.36666 0.0
C4121 C 0.42851 0.13394 0.35167 0.0
C4122 C 0.38734 0.17469 0.40151 0.0
C4123 C 0.38686 0.1629 0.41425 0.0
C4124 C 0.39605 0.17144 0.38696 0.0
C4125 C 0.4044 0.15634 0.3849 0.0
C4126 C 0.40497 0.14515 0.3982 0.0
C4127 C 0.39629 0.14841 0.41274 0.0
H4128 H 0.01454 0.10915 0.29519 0.0
H4129 H 0.02626 0.15633 0.27307 0.0
H4130 H 0.9967 0.10259 0.27198 0.0
H4131 H 0.00854 0.14958 0.24948 0.0
H4132 H 0.97099 0.09015 0.22519 0.0
H4133 H 0.99481 0.09644 0.24269 0.0
H4134 H 0.97871 0.14727 0.24623 0.0
H4135 H 0.95525 0.14109 0.22852 0.0
C4136 C 0.01349 0.11803 0.28521 0.0
C4137 C 0.02162 0.13334 0.28602 0.0
C4138 C 0.00338 0.11418 0.27181 0.0
C4139 C 0.00117 0.12557 0.25889 0.0
C4140 C 0.00987 0.14063 0.25935 0.0
C4141 C 0.02004 0.14448 0.2728 0.0
C4142 C 0.97274 0.10272 0.22949 0.0
C4143 C 0.96117 0.11508 0.22569 0.0
C4144 C 0.98633 0.10631 0.23954 0.0
C4145 C 0.98856 0.12231 0.24598 0.0
C4146 C 0.97747 0.13486 0.24136 0.0
C4147 C 0.96393 0.13127 0.23132 0.0
H4148 H 0.10693 0.7054 0.48092 0.0
H4149 H 0.15632 0.72409 0.47293 0.0
H4150 H 0.1009 0.72876 0.49889 0.0
H4151 H 0.1502 0.74769 0.49083 0.0
H4152 H 0.09142 0.77749 0.52423 0.0
H4153 H 0.09733 0.75903 0.50094 0.0
H4154 H 0.14596 0.74952 0.5209 0.0
H4155 H 0.14016 0.76796 0.5439 0.0
C4156 C 0.11642 0.71465 0.48281 0.0
C4157 C 0.13217 0.71283 0.4757 0.0
C4158 C 0.11291 0.72812 0.49299 0.0
C4159 C 0.1251 0.74002 0.49633 0.0
C4160 C 0.14062 0.7386 0.48861 0.0
C4161 C 0.14411 0.72514 0.47834 0.0
C4162 C 0.10343 0.7716 0.52347 0.0
C4163 C 0.11527 0.77402 0.53593 0.0
C4164 C 0.10679 0.76102 0.5102 0.0
C4165 C 0.1221 0.75282 0.50911 0.0
C4166 C 0.13414 0.75582 0.52125 0.0
C4167 C 0.13075 0.76627 0.53452 0.0
H4168 H 0.55494 0.8849 0.75165 0.0
H4169 H 0.52025 0.89508 0.71233 0.0
H4170 H 0.53213 0.87874 0.77028 0.0
H4171 H 0.49721 0.88858 0.73114 0.0
H4172 H 0.46816 0.85167 0.76924 0.0
H4173 H 0.48787 0.86095 0.74807 0.0
H4174 H 0.50791 0.89652 0.78241 0.0
H4175 H 0.48834 0.88747 0.80339 0.0
C4176 C 0.54241 0.88583 0.747 0.0
C4177 C 0.53933 0.89051 0.73057 0.0
C4178 C 0.52937 0.88237 0.75768 0.0
C4179 C 0.51297 0.88327 0.75212 0.0
C4180 C 0.50979 0.8878 0.73565 0.0
C4181 C 0.52292 0.89159 0.72497 0.0
C4182 C 0.47661 0.86164 0.77213 0.0
C4183 C 0.47686 0.86871 0.78801 0.0
C4184 C 0.48779 0.86699 0.76002 0.0
C4185 C 0.49943 0.87933 0.76373 0.0
C4186 C 0.49913 0.88688 0.77933 0.0
C4187 C 0.48792 0.88169 0.79132 0.0
H4188 H 0.33664 0.27227 0.96884 0.0
H4189 H 0.38509 0.29195 0.97971 0.0
H4190 H 0.34272 0.24808 0.98603 0.0
H4191 H 0.39107 0.26802 0.99687 0.0
H4192 H 0.40198 0.21946 0.02024 0.0
H4193 H 0.39556 0.23783 0.9971 0.0
H4194 H 0.34617 0.24467 0.01629 0.0
H4195 H 0.35251 0.22625 0.03922 0.0
C4196 C 0.34863 0.27133 0.97474 0.0
C4197 C 0.36033 0.28404 0.97309 0.0
C4198 C 0.35209 0.25753 0.98459 0.0
C4199 C 0.36737 0.25616 0.9928 0.0
C4200 C 0.37928 0.26858 0.99053 0.0
C4201 C 0.37579 0.28238 0.98083 0.0
C4202 C 0.38966 0.22463 0.0193 0.0
C4203 C 0.37781 0.2216 0.03162 0.0
C4204 C 0.38601 0.23518 0.00611 0.0
C4205 C 0.37041 0.2428 0.00497 0.0
C4206 C 0.35825 0.2389 0.01674 0.0
C4207 C 0.36193 0.22844 0.02995 0.0
H4208 H 0.9724 0.90952 0.27279 0.0
H4209 H 0.96238 0.85712 0.27515 0.0
H4210 H 0.99654 0.90406 0.25542 0.0
H4211 H 0.98616 0.8517 0.25761 0.0
H4212 H 0.03349 0.84459 0.23047 0.0
H4213 H 0.016 0.85231 0.25391 0.0
H4214 H -0.00127 0.89501 0.22682 0.0
H4215 H 0.01636 0.8875 0.20369 0.0
C4216 C 0.9755 0.89684 0.2698 0.0
C4217 C 0.96541 0.88376 0.27513 0.0
C4218 C 0.98927 0.89371 0.25981 0.0
C4219 C 0.99319 0.87746 0.25502 0.0
C4220 C 0.98362 0.86434 0.2612 0.0
C4221 C 0.96988 0.86747 0.27114 0.0
C4222 C 0.02616 0.85577 0.22968 0.0
C4223 C 0.02612 0.86533 0.2152 0.0
C4224 C 0.01612 0.86017 0.24306 0.0
C4225 C 0.00589 0.87421 0.24218 0.0
C4226 C 0.00659 0.88423 0.22801 0.0
C4227 C 0.01659 0.87984 0.21467 0.0
H4228 H 0.39613 0.78055 0.4778 0.0
H4229 H 0.35653 0.76027 0.44825 0.0
H4230 H 0.38725 0.76357 0.50122 0.0
H4231 H 0.34787 0.74321 0.4714 0.0
H4232 H 0.38125 0.71166 0.52604 0.0
H4233 H 0.38806 0.73398 0.50711 0.0
H4234 H 0.33601 0.74311 0.49913 0.0
H4235 H 0.32919 0.72044 0.51794 0.0
C4236 C 0.38548 0.77256 0.47636 0.0
C4237 C 0.37711 0.77161 0.46118 0.0
C4238 C 0.38041 0.76283 0.48973 0.0
C4239 C 0.36686 0.75204 0.48816 0.0
C4240 C 0.3582 0.75156 0.47312 0.0
C4241 C 0.36327 0.76123 0.45978 0.0
C4242 C 0.37125 0.71859 0.52045 0.0
C4243 C 0.35469 0.71419 0.52329 0.0
C4244 C 0.37515 0.73148 0.50969 0.0
C4245 C 0.36258 0.74023 0.50152 0.0
C4246 C 0.34597 0.73642 0.50508 0.0
C4247 C 0.34206 0.72351 0.51589 0.0
H4248 H 0.4847 0.10847 0.70001 0.0
H4249 H 0.4725 0.1535 0.72604 0.0
H4250 H 0.50242 0.1 0.72288 0.0
H4251 H 0.49025 0.14496 0.749 0.0
H4252 H 0.54333 0.13463 0.76975 0.0
H4253 H 0.52102 0.14204 0.75097 0.0
H4254 H 0.50256 0.09198 0.75301 0.0
H4255 H 0.52503 0.08451 0.77194 0.0
C4256 C 0.48566 0.11647 0.71071 0.0
C4257 C 0.47737 0.13172 0.71119 0.0
C4258 C 0.4957 0.11154 0.72386 0.0
C4259 C 0.49773 0.12184 0.73769 0.0
C4260 C 0.48899 0.13685 0.73841 0.0
C4261 C 0.47882 0.14171 0.72531 0.0
C4262 C 0.5344 0.12523 0.76635 0.0
C4263 C 0.53596 0.10896 0.77219 0.0
C4264 C 0.52156 0.12952 0.7557 0.0
C4265 C 0.51007 0.11758 0.75053 0.0
C4266 C 0.51133 0.10139 0.75674 0.0
C4267 C 0.52412 0.09714 0.76759 0.0
H4268 H 0.09033 0.21919 0.97487 0.0
H4269 H 0.13974 0.22599 0.95573 0.0
H4270 H 0.09721 0.23657 -0.00136 0.0
H4271 H 0.14651 0.24348 0.97922 0.0
H4272 H 0.1088 0.28978 0.01826 0.0
H4273 H 0.10201 0.26641 0.00063 0.0
H4274 H 0.15054 0.24577 0.0092 0.0
H4275 H 0.15745 0.26942 0.02676 0.0
C4276 C 0.10272 0.22418 0.97588 0.0
C4277 C 0.11444 0.22141 0.96337 0.0
C4278 C 0.10664 0.23417 0.98944 0.0
C4279 C 0.12236 0.2415 0.99074 0.0
C4280 C 0.13434 0.2379 0.97869 0.0
C4281 C 0.13042 0.22798 0.96514 0.0
C4282 C 0.11795 0.28014 0.01658 0.0
C4283 C 0.13372 0.28151 0.02371 0.0
C4284 C 0.114 0.26666 0.00659 0.0
C4285 C 0.12577 0.25427 0.00346 0.0
C4286 C 0.14129 0.25523 0.01125 0.0
C4287 C 0.14522 0.26872 0.02133 0.0
H4288 H 0.29739 0.01367 0.11257 0.0
H4289 H 0.27052 0.02858 0.15627 0.0
H4290 H 0.27496 0.99508 0.10505 0.0
H4291 H 0.2479 0.00997 0.14864 0.0
H4292 H 0.22737 0.9708 0.08964 0.0
H4293 H 0.2456 0.99398 0.0963 0.0
H4294 H 0.24538 0.97936 0.14767 0.0
H4295 H 0.2271 0.95636 0.14107 0.0
C4296 C 0.28659 0.01311 0.12047 0.0
C4297 C 0.28574 0.02246 0.13508 0.0
C4298 C 0.27368 0.00256 0.11608 0.0
C4299 C 0.25969 0.00106 0.12626 0.0
C4300 C 0.25861 0.01079 0.14063 0.0
C4301 C 0.27151 0.02146 0.14497 0.0
C4302 C 0.23104 0.9727 0.10238 0.0
C4303 C 0.22596 0.96171 0.11481 0.0
C4304 C 0.24151 0.98591 0.10618 0.0
C4305 C 0.24698 0.98842 0.12249 0.0
C4306 C 0.24125 0.97785 0.13502 0.0
C4307 C 0.23088 0.96461 0.13121 0.0
H4308 H 0.22217 0.02379 0.40341 0.0
H4309 H 0.23249 0.04505 0.35551 0.0
H4310 H 0.24051 0.00057 0.39697 0.0
H4311 H 0.25075 0.02197 0.34912 0.0
H4312 H 0.29466 0.98157 0.38745 0.0
H4313 H 0.27136 -0.00036 0.39352 0.0
H4314 H 0.25198 0.99124 0.34447 0.0
H4315 H 0.27543 0.97307 0.33835 0.0
C4316 C 0.22817 0.02338 0.39144 0.0
C4317 C 0.22607 0.03627 0.38002 0.0
C4318 C 0.23866 0.01014 0.38778 0.0
C4319 C 0.24706 0.00952 0.37257 0.0
C4320 C 0.2443 0.02203 0.36086 0.0
C4321 C 0.23396 0.03531 0.36458 0.0
C4322 C 0.28533 0.98341 0.37802 0.0
C4323 C 0.28691 0.97607 0.36237 0.0
C4324 C 0.27191 0.99364 0.38156 0.0
C4325 C 0.25989 0.99685 0.36946 0.0
C4326 C 0.26115 0.98904 0.35398 0.0
C4327 C 0.27452 0.97864 0.35049 0.0
H4328 H 0.19909 0.9858 0.6105 0.0
H4329 H 0.22258 0.96924 0.65552 0.0
H4330 H 0.2231 0.00262 0.60404 0.0
H4331 H 0.24691 0.98604 0.64891 0.0
H4332 H 0.27173 0.02386 0.59005 0.0
H4333 H 0.25232 0.0016 0.59635 0.0
H4334 H 0.25259 0.01594 0.64781 0.0
H4335 H 0.27217 0.03793 0.64158 0.0
C4336 C 0.20948 0.98563 0.61895 0.0
C4337 C 0.20892 0.97632 0.63359 0.0
C4338 C 0.22333 0.99515 0.61516 0.0
C4339 C 0.23694 0.99561 0.62593 0.0
C4340 C 0.23655 0.986 0.64042 0.0
C4341 C 0.22267 0.97638 0.64419 0.0
C4342 C 0.26788 0.02203 0.60275 0.0
C4343 C 0.27329 0.03274 0.61529 0.0
C4344 C 0.25671 0.00935 0.60634 0.0
C4345 C 0.25078 0.00715 0.62255 0.0
C4346 C 0.25701 0.01723 0.63524 0.0
C4347 C 0.26815 0.02991 0.63164 0.0
H4348 H 0.20909 0.02192 0.88786 0.0
H4349 H 0.2271 0.02945 0.83814 0.0
H4350 H 0.2329 0.00461 0.89393 0.0
H4351 H 0.25121 0.0123 0.84433 0.0
H4352 H 0.28043 0.97838 0.90356 0.0
H4353 H 0.26284 0.0022 0.89737 0.0
H4354 H 0.25362 0.98256 0.84854 0.0
H4355 H 0.27131 0.95905 0.85462 0.0
C4356 C 0.21833 0.02015 0.87833 0.0
C4357 C 0.21613 0.02684 0.86245 0.0
C4358 C 0.23207 0.01033 0.88185 0.0
C4359 C 0.24389 0.00698 0.86957 0.0
C4360 C 0.24218 0.01449 0.85397 0.0
C4361 C 0.22843 0.02435 0.85045 0.0
C4362 C 0.27488 0.97935 0.89141 0.0
C4363 C 0.27707 0.96679 0.87964 0.0
C4364 C 0.26477 0.99294 0.88789 0.0
C4365 C 0.25675 0.99421 0.87251 0.0
C4366 C 0.25974 0.98208 0.86044 0.0
C4367 C 0.26978 0.96851 0.86398 0.0
H4368 H 0.63833 0.26908 0.03901 0.0
H4369 H 0.58731 0.27478 0.02427 0.0
H4370 H 0.64276 0.24961 0.01654 0.0
H4371 H 0.5918 0.25522 0.00155 0.0
H4372 H 0.60252 0.20067 0.98426 0.0
H4373 H 0.59707 0.22487 0.00133 0.0
H4374 H 0.64367 0.24609 0.98616 0.0
H4375 H 0.64922 0.22172 0.96912 0.0
C4376 C 0.62811 0.26635 0.03079 0.0
C4377 C 0.61243 0.27331 0.03347 0.0
C4378 C 0.63069 0.25529 0.01783 0.0
C4379 C 0.61762 0.25085 0.00731 0.0
C4380 C 0.60207 0.25832 0.00957 0.0
C4381 C 0.59951 0.26955 0.0225 0.0
C4382 C 0.61152 0.21059 0.98441 0.0
C4383 C 0.62639 0.20924 0.97552 0.0
C4384 C 0.60832 0.22452 0.99407 0.0
C4385 C 0.61997 0.23735 0.99513 0.0
C4386 C 0.63454 0.23631 0.98569 0.0
C4387 C 0.6377 0.22239 0.97592 0.0
H4388 H 0.03776 0.35254 0.22309 0.0
H4389 H 0.02347 0.40399 0.22226 0.0
H4390 H 0.01513 0.3465 0.24199 0.0
H4391 H 0.00065 0.3979 0.24118 0.0
H4392 H 0.96747 0.33867 0.26987 0.0
H4393 H 0.98464 0.34574 0.24597 0.0
H4394 H 0.00103 0.39001 0.27093 0.0
H4395 H 0.98387 0.38304 0.29466 0.0
C4396 C 0.02957 0.3625 0.22671 0.0
C4397 C 0.03246 0.37876 0.22135 0.0
C4398 C 0.01654 0.35902 0.23745 0.0
C4399 C 0.00619 0.37175 0.24315 0.0
C4400 C 0.00855 0.38788 0.23711 0.0
C4401 C 0.02154 0.39134 0.22623 0.0
C4402 C 0.9746 0.35 0.27013 0.0
C4403 C 0.97447 0.36023 0.28416 0.0
C4404 C 0.98443 0.35402 0.25649 0.0
C4405 C 0.99418 0.36842 0.25659 0.0
C4406 C 0.9935 0.37895 0.27038 0.0
C4407 C 0.98379 0.37488 0.28404 0.0
H4408 H 0.83981 0.76385 0.46493 0.0
H4409 H 0.88722 0.78616 0.47525 0.0
H4410 H 0.84721 0.74024 0.48235 0.0
H4411 H 0.8945 0.76281 0.49272 0.0
H4412 H 0.90697 0.71631 0.51932 0.0
H4413 H 0.90032 0.73298 0.49496 0.0
H4414 H 0.85019 0.73857 0.51259 0.0
H4415 H 0.85676 0.72186 0.53667 0.0
C4416 C 0.85191 0.76357 0.47068 0.0
C4417 C 0.86286 0.77691 0.46893 0.0
C4418 C 0.85612 0.7501 0.48067 0.0
C4419 C 0.87139 0.74973 0.48899 0.0
C4420 C 0.88272 0.76262 0.48636 0.0
C4421 C 0.87848 0.77609 0.47646 0.0
C4422 C 0.89446 0.72083 0.51777 0.0
C4423 C 0.88243 0.71799 0.52997 0.0
C4424 C 0.89067 0.73041 0.50388 0.0
C4425 C 0.87476 0.73718 0.50192 0.0
C4426 C 0.8625 0.73341 0.51363 0.0
C4427 C 0.86631 0.72395 0.52752 0.0
H4428 H 0.98114 0.60873 0.20573 0.0
H4429 H 0.97092 0.6577 0.22444 0.0
H4430 H -0.00119 0.60327 0.2294 0.0
H4431 H 0.98858 0.65213 0.24841 0.0
H4432 H 0.02392 0.59368 0.27745 0.0
H4433 H 0.00025 0.59947 0.25951 0.0
H4434 H 0.01874 0.64888 0.25115 0.0
H4435 H 0.04213 0.64319 0.26916 0.0
C4436 C 0.98249 0.61825 0.21505 0.0
C4437 C 0.97482 0.63372 0.21316 0.0
C4438 C 0.9925 0.61506 0.22871 0.0
C4439 C 0.99511 0.62727 0.24077 0.0
C4440 C 0.98689 0.64253 0.23923 0.0
C4441 C 0.97677 0.6457 0.22556 0.0
C4442 C 0.02272 0.60586 0.27202 0.0
C4443 C 0.03495 0.61792 0.27452 0.0
C4444 C 0.00923 0.60916 0.26171 0.0
C4445 C 0.00771 0.62459 0.25382 0.0
C4446 C 0.01945 0.63693 0.25716 0.0
C4447 C 0.03294 0.63362 0.26738 0.0
H4448 H 0.47329 0.40306 0.77791 0.0
H4449 H 0.45377 0.35412 0.7692 0.0
H4450 H 0.49698 0.39668 0.7602 0.0
H4451 H 0.47718 0.34786 0.7514 0.0
H4452 H 0.51669 0.38708 0.70673 0.0
H4453 H 0.49881 0.39297 0.73015 0.0
H4454 H 0.50719 0.3437 0.74902 0.0
H4455 H 0.52503 0.33771 0.7253 0.0
C4456 C 0.4742 0.39088 0.77242 0.0
C4457 C 0.46162 0.37916 0.77476 0.0
C4458 C 0.4877 0.38724 0.76225 0.0
C4459 C 0.48887 0.37181 0.75431 0.0
C4460 C 0.47674 0.3598 0.75745 0.0
C4461 C 0.46325 0.36344 0.76755 0.0
C4462 C 0.51489 0.37756 0.71597 0.0
C4463 C 0.52209 0.36187 0.71411 0.0
C4464 C 0.50476 0.38099 0.72949 0.0
C4465 C 0.50156 0.3688 0.74142 0.0
C4466 C 0.50932 0.3533 0.73992 0.0
C4467 C 0.51955 0.34987 0.72639 0.0
H4468 H 0.9685 0.84053 0.72489 0.0
H4469 H 0.97654 0.89051 0.70791 0.0
H4470 H 0.98541 0.84614 0.74928 0.0
H4471 H 0.9938 0.89596 0.73182 0.0
H4472 H 0.02128 0.90492 0.77819 0.0
H4473 H 0.99709 0.89936 0.76097 0.0
H4474 H 0.01451 0.84947 0.75287 0.0
H4475 H 0.03821 0.85487 0.77041 0.0
C4476 C 0.9737 0.85276 0.72648 0.0
C4477 C 0.97139 0.86501 0.71441 0.0
C4478 C 0.98345 0.85597 0.7404 0.0
C4479 C 0.99114 0.87145 0.74243 0.0
C4480 C 0.98795 0.88396 0.7308 0.0
C4481 C 0.97815 0.88079 0.71698 0.0
C4482 C 0.01971 0.89268 0.77299 0.0
C4483 C 0.03172 0.88039 0.77546 0.0
C4484 C 0.00591 0.88951 0.76306 0.0
C4485 C 0.00393 0.87402 0.75537 0.0
C4486 C 0.01549 0.86147 0.75871 0.0
C4487 C 0.02919 0.86462 0.76868 0.0
H4488 H 0.88843 0.29098 0.51866 0.0
H4489 H 0.83956 0.27114 0.52712 0.0
H4490 H 0.89477 0.26779 0.50051 0.0
H4491 H 0.84596 0.24782 0.50893 0.0
H4492 H 0.85647 0.22905 0.45491 0.0
H4493 H 0.85028 0.24705 0.47824 0.0
H4494 H 0.89851 0.23702 0.49886 0.0
H4495 H 0.90475 0.21893 0.47539 0.0
C4496 C 0.87914 0.2815 0.51685 0.0
C4497 C 0.86345 0.28293 0.52415 0.0
C4498 C 0.88282 0.26816 0.50655 0.0
C4499 C 0.87082 0.25605 0.50326 0.0
C4500 C 0.85537 0.25708 0.51116 0.0
C4501 C 0.85174 0.27037 0.5216 0.0
C4502 C 0.86568 0.23051 0.46453 0.0
C4503 C 0.88114 0.22272 0.46329 0.0
C4504 C 0.86208 0.24071 0.47796 0.0
C4505 C 0.87393 0.24344 0.49035 0.0
C4506 C 0.8892 0.2352 0.48941 0.0
C4507 C 0.89275 0.22483 0.47603 0.0
H4508 H 0.455 0.13999 0.26677 0.0
H4509 H 0.47583 0.09162 0.27567 0.0
H4510 H 0.47807 0.14663 0.2486 0.0
H4511 H 0.49905 0.09832 0.25742 0.0
H4512 H 0.52668 0.15824 0.2245 0.0
H4513 H 0.50862 0.1512 0.24772 0.0
H4514 H 0.50067 0.10273 0.22678 0.0
H4515 H 0.51872 0.1097 0.20369 0.0
C4516 C 0.46464 0.13085 0.26499 0.0
C4517 C 0.46357 0.11524 0.27251 0.0
C4518 C 0.47792 0.13471 0.25469 0.0
C4519 C 0.49035 0.12299 0.25159 0.0
C4520 C 0.48957 0.10754 0.25953 0.0
C4521 C 0.47633 0.10373 0.26998 0.0
C4522 C 0.52129 0.146 0.22503 0.0
C4523 C 0.52395 0.13457 0.21223 0.0
C4524 C 0.51092 0.142 0.23826 0.0
C4525 C 0.50317 0.12646 0.23899 0.0
C4526 C 0.50658 0.11474 0.22664 0.0
C4527 C 0.51682 0.11878 0.21335 0.0
H4528 H 0.65497 0.73044 0.03218 0.0
H4529 H 0.60815 0.70803 0.01962 0.0
H4530 H 0.64796 0.75443 0.01513 0.0
H4531 H 0.60134 0.73162 0.00241 0.0
H4532 H 0.64068 0.77426 0.9612 0.0
H4533 H 0.6464 0.75758 0.98545 0.0
H4534 H 0.59499 0.76068 -0.00024 0.0
H4535 H 0.58917 0.77714 0.97506 0.0
C4536 C 0.6431 0.73076 0.02598 0.0
C4537 C 0.63221 0.71729 0.02701 0.0
C4538 C 0.6391 0.74445 0.01619 0.0
C4539 C 0.62414 0.74489 0.00731 0.0
C4540 C 0.61287 0.73182 0.00922 0.0
C4541 C 0.61686 0.71819 0.01896 0.0
C4542 C 0.63063 0.77163 0.96966 0.0
C4543 C 0.61442 0.77674 0.9661 0.0
C4544 C 0.63395 0.76219 0.98368 0.0
C4545 C 0.62112 0.75766 0.99448 0.0
C4546 C 0.60509 0.76376 0.99152 0.0
C4547 C 0.60176 0.77323 0.97743 0.0
H4548 H 0.96938 0.15767 0.77106 0.0
H4549 H 0.97452 0.10729 0.78798 0.0
H4550 H 0.98676 0.15136 0.74716 0.0
H4551 H 0.99223 0.10112 0.76456 0.0
H4552 H 0.01972 0.0911 0.71811 0.0
H4553 H 0.99582 0.09769 0.73542 0.0
H4554 H 0.01576 0.1465 0.74415 0.0
H4555 H 0.03918 0.14011 0.72653 0.0
C4556 C 0.97406 0.14522 0.76956 0.0
C4557 C 0.97077 0.13303 0.78146 0.0
C4558 C 0.98408 0.14161 0.75593 0.0
C4559 C 0.99105 0.12577 0.75402 0.0
C4560 C 0.98695 0.11339 0.76549 0.0
C4561 C 0.97689 0.11697 0.77903 0.0
C4562 C 0.0188 0.10332 0.72351 0.0
C4563 C 0.03138 0.11503 0.72114 0.0
C4564 C 0.00516 0.10708 0.73348 0.0
C4565 C 0.00393 0.12258 0.7413 0.0
C4566 C 0.01615 0.13453 0.73818 0.0
C4567 C 0.02969 0.1308 0.72818 0.0
H4568 H 0.59107 0.22036 0.52115 0.0
H4569 H 0.64067 0.22721 0.53972 0.0
H4570 H 0.59773 0.23755 0.4972 0.0
H4571 H 0.64716 0.24471 0.51626 0.0
H4572 H 0.65813 0.27237 0.47043 0.0
H4573 H 0.65151 0.24813 0.48723 0.0
H4574 H 0.60182 0.26664 0.49411 0.0
H4575 H 0.60827 0.29039 0.47699 0.0
C4576 C 0.60344 0.22538 0.52 0.0
C4577 C 0.61528 0.22264 0.53238 0.0
C4578 C 0.60724 0.23527 0.50634 0.0
C4579 C 0.62294 0.24266 0.50488 0.0
C4580 C 0.63502 0.23909 0.51684 0.0
C4581 C 0.63125 0.22916 0.53041 0.0
C4582 C 0.64571 0.27104 0.47528 0.0
C4583 C 0.63378 0.28335 0.4726 0.0
C4584 C 0.64193 0.25721 0.48495 0.0
C4585 C 0.62618 0.25552 0.49218 0.0
C4586 C 0.61401 0.2674 0.48862 0.0
C4587 C 0.61776 0.28113 0.47891 0.0
H4588 H 0.51303 0.88524 0.29327 0.0
H4589 H 0.52745 0.83929 0.27017 0.0
H4590 H 0.49728 0.89269 0.26881 0.0
H4591 H 0.51163 0.84685 0.24544 0.0
H4592 H 0.45954 0.85751 0.22063 0.0
H4593 H 0.48152 0.84979 0.23972 0.0
H4594 H 0.49959 0.90003 0.23926 0.0
H4595 H 0.47743 0.90783 0.22029 0.0
C4596 C 0.51297 0.8768 0.28287 0.0
C4597 C 0.52135 0.86162 0.28366 0.0
C4598 C 0.50408 0.88115 0.26877 0.0
C4599 C 0.50328 0.87039 0.25516 0.0
C4600 C 0.51199 0.85535 0.25578 0.0
C4601 C 0.52104 0.85104 0.26989 0.0
C4602 C 0.46843 0.86682 0.2243 0.0
C4603 C 0.46664 0.88332 0.21917 0.0
C4604 C 0.48108 0.86237 0.23518 0.0
C4605 C 0.49213 0.87436 0.24116 0.0
C4606 C 0.49107 0.8906 0.23505 0.0
C4607 C 0.47845 0.89504 0.22412 0.0
H4608 H 0.85663 0.76956 0.03884 0.0
H4609 H 0.90643 0.77672 0.0209 0.0
H4610 H 0.85079 0.75142 0.01557 0.0
H4611 H 0.90048 0.7587 0.99736 0.0
H4612 H 0.89067 0.70481 0.97903 0.0
H4613 H 0.8963 0.72871 0.99633 0.0
H4614 H 0.84771 0.74812 0.98549 0.0
H4615 H 0.84197 0.72392 0.96821 0.0
C4616 C 0.86623 0.76752 0.02972 0.0
C4617 C 0.88205 0.77436 0.03179 0.0
C4618 C 0.86283 0.75723 0.0163 0.0
C4619 C 0.87521 0.75352 0.0047 0.0
C4620 C 0.89076 0.76117 0.00624 0.0
C4621 C 0.89415 0.77153 0.01966 0.0
C4622 C 0.88125 0.71427 0.98016 0.0
C4623 C 0.86581 0.71243 0.97244 0.0
C4624 C 0.88454 0.72806 0.98995 0.0
C4625 C 0.87245 0.7403 0.9923 0.0
C4626 C 0.85722 0.73881 0.98401 0.0
C4627 C 0.85395 0.725 0.9741 0.0
H4628 H 0.70749 0.9767 0.89161 0.0
H4629 H 0.73278 0.96409 0.84628 0.0
H4630 H 0.73021 0.99474 0.89936 0.0
H4631 H 0.75582 0.98197 0.85422 0.0
H4632 H 0.77501 0.02301 0.91326 0.0
H4633 H 0.75906 0.99809 0.90706 0.0
H4634 H 0.75775 0.01191 0.85545 0.0
H4635 H 0.77389 0.03646 0.86159 0.0
C4636 C 0.71809 0.97752 0.88346 0.0
C4637 C 0.71827 0.9692 0.86822 0.0
C4638 C 0.7312 0.98775 0.88798 0.0
C4639 C 0.74478 0.98989 0.87735 0.0
C4640 C 0.74541 0.98074 0.86256 0.0
C4641 C 0.73227 0.97047 0.85804 0.0
C4642 C 0.77159 0.02051 0.90056 0.0
C4643 C 0.77549 0.03176 0.88794 0.0
C4644 C 0.76241 0.00629 0.89702 0.0
C4645 C 0.75702 0.0031 0.88079 0.0
C4646 C 0.76185 0.01388 0.86805 0.0
C4647 C 0.77098 0.02805 0.87159 0.0
H4648 H 0.77943 0.97738 0.5879 0.0
H4649 H 0.77241 0.95882 0.63748 0.0
H4650 H 0.76307 0.00189 0.59485 0.0
H4651 H 0.75599 0.98301 0.64432 0.0
H4652 H 0.73129 0.03051 0.65576 0.0
H4653 H 0.75478 0.01299 0.64828 0.0
H4654 H 0.73334 0.00498 0.60001 0.0
H4655 H 0.71013 0.02261 0.60737 0.0
C4656 C 0.77463 0.97868 0.60034 0.0
C4657 C 0.777 0.96613 0.61209 0.0
C4658 C 0.76524 0.99266 0.6043 0.0
C4659 C 0.75816 0.99434 0.62011 0.0
C4660 C 0.7614 0.98221 0.6321 0.0
C4661 C 0.7707 0.96825 0.62813 0.0
C4662 C 0.73181 0.02528 0.64345 0.0
C4663 C 0.7188 0.02772 0.63223 0.0
C4664 C 0.74521 0.01521 0.63918 0.0
C4665 C 0.74584 0.00748 0.62361 0.0
C4666 C 0.73333 0.01086 0.61204 0.0
C4667 C 0.71995 0.02086 0.61632 0.0
H4668 H 0.72007 0.97053 0.40914 0.0
H4669 H 0.72629 0.95233 0.35931 0.0
H4670 H 0.73879 0.99354 0.40296 0.0
H4671 H 0.74495 0.97508 0.35322 0.0
H4672 H 0.77079 0.02311 0.34324 0.0
H4673 H 0.74724 0.00539 0.35003 0.0
H4674 H 0.76902 0.99473 0.39763 0.0
H4675 H 0.79238 0.01249 0.39093 0.0
C4676 C 0.72526 0.97158 0.39684 0.0
C4677 C 0.72186 0.95959 0.38475 0.0
C4678 C 0.73599 0.98468 0.39332 0.0
C4679 C 0.74336 0.98608 0.37762 0.0
C4680 C 0.73933 0.97447 0.36536 0.0
C4681 C 0.72874 0.96135 0.36891 0.0
C4682 C 0.7704 0.01715 0.35523 0.0
C4683 C 0.78348 0.01903 0.36649 0.0
C4684 C 0.75696 0.00698 0.3591 0.0
C4685 C 0.75632 -0.00138 0.37433 0.0
C4686 C 0.76906 0.00114 0.38587 0.0
C4687 C 0.78251 0.01121 0.38197 0.0
H4688 H 0.72461 0.03616 0.14005 0.0
H4689 H 0.72657 0.02382 0.08812 0.0
H4690 H 0.7438 0.01383 0.14616 0.0
H4691 H 0.74558 0.00115 0.09428 0.0
H4692 H 0.77306 0.96716 0.15402 0.0
H4693 H 0.74911 0.98419 0.14678 0.0
H4694 H 0.77441 0.00083 0.10275 0.0
H4695 H 0.79805 0.98368 0.1098 0.0
C4696 C 0.7289 0.02845 0.12997 0.0
C4697 C 0.72426 0.03186 0.11358 0.0
C4698 C 0.73981 0.01556 0.13349 0.0
C4699 C 0.74633 0.00579 0.12069 0.0
C4700 C 0.74096 0.00863 0.10438 0.0
C4701 C 0.73002 0.02154 0.10086 0.0
C4702 C 0.77337 0.97433 0.14271 0.0
C4703 C 0.78745 0.97421 0.13255 0.0
C4704 C 0.7597 0.9841 0.13859 0.0
C4705 C 0.75986 0.99388 0.1242 0.0
C4706 C 0.77376 0.99327 0.11379 0.0
C4707 C 0.78739 0.98355 0.11792 0.0
H4708 H 0.4061 0.72132 0.97503 0.0
H4709 H 0.35821 0.73144 0.95365 0.0
H4710 H 0.39865 0.73787 -0.00068 0.0
H4711 H 0.35083 0.74785 0.97774 0.0
H4712 H 0.33696 0.7682 0.02685 0.0
H4713 H 0.34535 0.74604 0.0081 0.0
H4714 H 0.39364 0.76833 0.00332 0.0
H4715 H 0.3853 0.79039 0.0221 0.0
C4716 C 0.39395 0.72693 0.9756 0.0
C4717 C 0.38277 0.72522 0.96242 0.0
C4718 C 0.38971 0.73639 0.98946 0.0
C4719 C 0.37414 0.74408 0.99044 0.0
C4720 C 0.36281 0.74187 0.97747 0.0
C4721 C 0.36711 0.73261 0.96359 0.0
C4722 C 0.34948 0.76815 0.02209 0.0
C4723 C 0.36041 0.78111 0.02576 0.0
C4724 C 0.35425 0.75552 0.01131 0.0
C4725 C 0.37008 0.75558 0.00412 0.0
C4726 C 0.38139 0.76791 0.00874 0.0
C4727 C 0.37658 0.78059 0.01942 0.0
H4728 H 0.9797 0.58913 0.77889 0.0
H4729 H 0.95791 0.63732 0.77145 0.0
H4730 H 0.00323 0.59716 0.76163 0.0
H4731 H 0.98124 0.64527 0.7542 0.0
H4732 H 0.02217 0.61016 0.70812 0.0
H4733 H 0.00477 0.60227 0.73135 0.0
H4734 H 0.01149 0.65066 0.75292 0.0
H4735 H 0.02891 0.65864 0.72949 0.0
C4736 C 0.98008 0.60151 0.7738 0.0
C4737 C 0.96692 0.61254 0.77634 0.0
C4738 C 0.9935 0.60608 0.7639 0.0
C4739 C 0.99403 0.62182 0.75651 0.0
C4740 C 0.98129 0.63313 0.75986 0.0
C4741 C 0.96785 0.62852 0.76962 0.0
C4742 C 0.02016 0.61904 0.71794 0.0
C4743 C 0.02672 0.63507 0.71692 0.0
C4744 C 0.0103 0.61446 0.73133 0.0
C4745 C 0.00671 0.62587 0.74392 0.0
C4746 C 0.01395 0.64167 0.74331 0.0
C4747 C 0.02394 0.64621 0.72994 0.0
H4748 H 0.09063 0.27469 0.47398 0.0
H4749 H 0.14122 0.27284 0.45695 0.0
H4750 H 0.09784 0.25675 0.49719 0.0
H4751 H 0.14833 0.25464 0.47978 0.0
H4752 H 0.15901 0.22652 0.52637 0.0
H4753 H 0.15157 0.25037 0.50928 0.0
H4754 H 0.10443 0.22769 0.49837 0.0
H4755 H 0.11167 0.20425 0.5156 0.0
C4756 C 0.10332 0.27063 0.47532 0.0
C4757 C 0.11531 0.27498 0.46356 0.0
C4758 C 0.10744 0.26031 0.48856 0.0
C4759 C 0.12362 0.25411 0.49023 0.0
C4760 C 0.1358 0.25929 0.47898 0.0
C4761 C 0.13169 0.26963 0.4658 0.0
C4762 C 0.14698 0.2268 0.52048 0.0
C4763 C 0.13599 0.21348 0.52218 0.0
C4764 C 0.14274 0.2404 0.51067 0.0
C4765 C 0.12742 0.24092 0.50242 0.0
C4766 C 0.11622 0.22785 0.50472 0.0
C4767 C 0.12045 0.21431 0.51448 0.0
H4768 H 0.97355 0.40702 0.71936 0.0
H4769 H 0.95562 0.35769 0.72923 0.0
H4770 H 0.99738 0.40185 0.73731 0.0
H4771 H 0.97916 0.35262 0.74719 0.0
H4772 H 0.01746 0.39323 0.79118 0.0
H4773 H -0.00028 0.39861 0.76751 0.0
H4774 H 0.00932 0.34941 0.74906 0.0
H4775 H 0.02697 0.34391 0.77299 0.0
C4776 C 0.97482 0.39502 0.72518 0.0
C4777 C 0.96267 0.38281 0.72306 0.0
C4778 C 0.98841 0.39208 0.73547 0.0
C4779 C 0.99012 0.37685 0.74369 0.0
C4780 C 0.97834 0.36441 0.74088 0.0
C4781 C 0.96476 0.36737 0.7307 0.0
C4782 C 0.01601 0.38364 0.78194 0.0
C4783 C 0.02341 0.36807 0.78403 0.0
C4784 C 0.00594 0.38678 0.7683 0.0
C4785 C 0.00303 0.3744 0.75648 0.0
C4786 C 0.01119 0.35912 0.75809 0.0
C4787 C 0.02133 0.35599 0.77174 0.0
H4788 H 0.4819 0.61116 0.29135 0.0
H4789 H 0.4718 0.65923 0.27036 0.0
H4790 H 0.49911 0.60434 0.26762 0.0
H4791 H 0.4891 0.65234 0.24647 0.0
H4792 H 0.52211 0.5923 0.21881 0.0
H4793 H 0.49907 0.59945 0.23708 0.0
H4794 H 0.51973 0.64819 0.24404 0.0
H4795 H 0.54263 0.64111 0.2258 0.0
C4796 C 0.4832 0.62019 0.28154 0.0
C4797 C 0.47566 0.63578 0.28275 0.0
C4798 C 0.49293 0.61622 0.26788 0.0
C4799 C 0.49544 0.62781 0.2552 0.0
C4800 C 0.48743 0.64322 0.25612 0.0
C4801 C 0.47753 0.64714 0.26975 0.0
C4802 C 0.52153 0.60463 0.224 0.0
C4803 C 0.53423 0.61609 0.22107 0.0
C4804 C 0.5084 0.6087 0.23448 0.0
C4805 C 0.50768 0.62433 0.24205 0.0
C4806 C 0.51987 0.6361 0.23828 0.0
C4807 C 0.53305 0.632 0.22793 0.0
H4808 H 0.5187 0.60791 0.78871 0.0
H4809 H 0.52702 0.65769 0.77125 0.0
H4810 H 0.5016 0.60224 0.7647 0.0
H4811 H 0.51001 0.6519 0.74689 0.0
H4812 H 0.47647 0.59259 0.71699 0.0
H4813 H 0.50008 0.5989 0.73479 0.0
H4814 H 0.4803 0.64776 0.74356 0.0
H4815 H 0.45701 0.64158 0.72561 0.0
C4816 C 0.51709 0.61757 0.77957 0.0
C4817 C 0.52401 0.63331 0.78195 0.0
C4818 C 0.50742 0.61426 0.7657 0.0
C4819 C 0.50441 0.62664 0.75389 0.0
C4820 C 0.51198 0.64217 0.75587 0.0
C4821 C 0.52174 0.64547 0.76977 0.0
C4822 C 0.47738 0.60478 0.72246 0.0
C4823 C 0.46481 0.61651 0.72011 0.0
C4824 C 0.49085 0.60837 0.7327 0.0
C4825 C 0.49197 0.62377 0.74071 0.0
C4826 C 0.47991 0.63584 0.73747 0.0
C4827 C 0.46647 0.63224 0.72728 0.0
H4828 H 0.90167 0.2815 0.97574 0.0
H4829 H 0.85663 0.26427 0.95278 0.0
H4830 H 0.89471 0.26602 0.00082 0.0
H4831 H 0.84983 0.24874 0.97757 0.0
H4832 H 0.83597 0.2284 0.02648 0.0
H4833 H 0.84219 0.25054 0.00687 0.0
H4834 H 0.89369 0.23632 0.00723 0.0
H4835 H 0.88753 0.21446 0.02694 0.0
C4836 C 0.89024 0.27453 0.97611 0.0
C4837 C 0.87977 0.27394 0.96227 0.0
C4838 C 0.88627 0.26567 0.99043 0.0
C4839 C 0.87172 0.25617 0.99118 0.0
C4840 C 0.86099 0.25613 0.97751 0.0
C4841 C 0.86499 0.26489 0.96322 0.0
C4842 C 0.84866 0.23028 0.02265 0.0
C4843 C 0.86123 0.21959 0.02805 0.0
C4844 C 0.85221 0.24288 0.01137 0.0
C4845 C 0.86839 0.24503 0.00535 0.0
C4846 C 0.88113 0.23507 0.01169 0.0
C4847 C 0.87757 0.22246 0.02291 0.0
H4848 H 0.63738 0.73247 0.45569 0.0
H4849 H 0.59196 0.71624 0.47863 0.0
H4850 H 0.64322 0.74993 0.47947 0.0
H4851 H 0.5979 0.7337 0.50263 0.0
H4852 H 0.65477 0.77394 0.52775 0.0
H4853 H 0.64973 0.75046 0.50937 0.0
H4854 H 0.5982 0.76414 0.50612 0.0
H4855 H 0.60318 0.78741 0.52454 0.0
C4856 C 0.62876 0.73246 0.46594 0.0
C4857 C 0.61413 0.72314 0.46525 0.0
C4858 C 0.63218 0.74235 0.47964 0.0
C4859 C 0.62101 0.7432 0.49291 0.0
C4860 C 0.60667 0.73338 0.49251 0.0
C4861 C 0.60329 0.72337 0.47881 0.0
C4862 C 0.64231 0.77171 0.52337 0.0
C4863 C 0.6294 0.78259 0.52741 0.0
C4864 C 0.63945 0.75833 0.5128 0.0
C4865 C 0.6236 0.75555 0.5062 0.0
C4866 C 0.61051 0.76586 0.5111 0.0
C4867 C 0.61339 0.77926 0.52156 0.0
H4868 H 0.7186 0.47407 0.59244 0.0
H4869 H 0.72956 0.45572 0.64138 0.0
H4870 H 0.73595 0.49832 0.59774 0.0
H4871 H 0.7469 0.47968 0.64659 0.0
H4872 H 0.78948 0.51964 0.60634 0.0
H4873 H 0.76613 0.50154 0.60076 0.0
H4874 H 0.74783 0.50981 0.65026 0.0
H4875 H 0.77144 0.52782 0.65595 0.0
C4876 C 0.72454 0.47533 0.60437 0.0
C4877 C 0.72289 0.46295 0.61643 0.0
C4878 C 0.73448 0.48916 0.6074 0.0
C4879 C 0.7428 0.49089 0.62257 0.0
C4880 C 0.74049 0.47885 0.63486 0.0
C4881 C 0.73068 0.46502 0.63181 0.0
C4882 C 0.78032 0.51783 0.61595 0.0
C4883 C 0.78239 0.52494 0.63166 0.0
C4884 C 0.76686 0.50756 0.6127 0.0
C4885 C 0.75522 0.50414 0.62511 0.0
C4886 C 0.75674 0.51207 0.64052 0.0
C4887 C 0.7702 0.52241 0.64376 0.0
H4888 H 0.725 0.53973 0.85527 0.0
H4889 H 0.72219 0.52424 0.90631 0.0
H4890 H 0.74282 0.5163 0.84906 0.0
H4891 H 0.73997 0.50057 0.90002 0.0
H4892 H 0.76902 0.46802 0.84038 0.0
H4893 H 0.7456 0.48591 0.84736 0.0
H4894 H 0.7697 0.4995 0.89305 0.0
H4895 H 0.79288 0.48162 0.88619 0.0
C4896 C 0.72794 0.53112 0.8651 0.0
C4897 C 0.72239 0.5339 0.88132 0.0
C4898 C 0.73805 0.51762 0.8615 0.0
C4899 C 0.74288 0.50666 0.87408 0.0
C4900 C 0.73658 0.50894 0.89013 0.0
C4901 C 0.72636 0.52242 0.89371 0.0
C4902 C 0.76917 0.47468 0.852 0.0
C4903 C 0.78282 0.47358 0.86267 0.0
C4904 C 0.7558 0.48492 0.85598 0.0
C4905 C 0.75583 0.49411 0.87075 0.0
C4906 C 0.76919 0.49242 0.8817 0.0
C4907 C 0.78256 0.48229 0.87768 0.0
H4908 H 0.76853 0.54291 0.14121 0.0
H4909 H 0.78061 0.52069 0.09415 0.0
H4910 H 0.75046 0.5197 0.1476 0.0
H4911 H 0.76258 0.49731 0.10064 0.0
H4912 H 0.70823 0.47871 0.10758 0.0
H4913 H 0.73202 0.49633 0.10247 0.0
H4914 H 0.74811 0.48942 0.15293 0.0
H4915 H 0.72406 0.47171 0.15811 0.0
C4916 C 0.76756 0.5329 0.13236 0.0
C4917 C 0.77579 0.5337 0.11709 0.0
C4918 C 0.75731 0.51954 0.13609 0.0
C4919 C 0.75502 0.50676 0.12457 0.0
C4920 C 0.76399 0.5071 0.10967 0.0
C4921 C 0.77433 0.52044 0.10598 0.0
C4922 C 0.71694 0.48077 0.11754 0.0
C4923 C 0.71423 0.47399 0.13329 0.0
C4924 C 0.73066 0.49074 0.11456 0.0
C4925 C 0.74192 0.49425 0.1273 0.0
C4926 C 0.73955 0.48698 0.14292 0.0
C4927 C 0.72585 0.47684 0.14587 0.0
H4928 H 0.78215 0.47803 0.40477 0.0
H4929 H 0.7746 0.46024 0.35498 0.0
H4930 H 0.76469 0.50199 0.3988 0.0
H4931 H 0.75704 0.48392 0.34911 0.0
H4932 H 0.71082 0.52095 0.38864 0.0
H4933 H 0.73471 0.50372 0.3946 0.0
H4934 H 0.75435 0.514 0.34598 0.0
H4935 H 0.73017 0.53117 0.33992 0.0
C4936 C 0.77701 0.4794 0.39248 0.0
C4937 C 0.77955 0.46719 0.38041 0.0
C4938 C 0.76697 0.49306 0.38908 0.0
C4939 C 0.75938 0.49477 0.37353 0.0
C4940 C 0.76282 0.48307 0.36116 0.0
C4941 C 0.77278 0.46942 0.36457 0.0
C4942 C 0.72036 0.51976 0.37931 0.0
C4943 C 0.71855 0.52722 0.36374 0.0
C4944 C 0.73414 0.50999 0.38278 0.0
C4945 C 0.74639 0.50743 0.37073 0.0
C4946 C 0.74501 0.51562 0.35545 0.0
C4947 C 0.73122 0.52548 0.352 0.0
H4948 H 0.52264 0.40386 0.28016 0.0
H4949 H 0.54296 0.35572 0.26913 0.0
H4950 H 0.49818 0.39725 0.26365 0.0
H4951 H 0.51895 0.3493 0.25238 0.0
H4952 H 0.47253 0.3378 0.22638 0.0
H4953 H 0.48988 0.3439 0.25034 0.0
H4954 H 0.49391 0.39473 0.23434 0.0
H4955 H 0.47624 0.38874 0.21083 0.0
C4956 C 0.52178 0.39181 0.2744 0.0
C4957 C 0.53478 0.38039 0.27575 0.0
C4958 C 0.50782 0.38804 0.2649 0.0
C4959 C 0.50665 0.3728 0.25658 0.0
C4960 C 0.51929 0.36107 0.25876 0.0
C4961 C 0.53317 0.36482 0.26825 0.0
C4962 C 0.47685 0.35034 0.22822 0.0
C4963 C 0.47324 0.36274 0.21663 0.0
C4964 C 0.48684 0.35382 0.24189 0.0
C4965 C 0.49347 0.36975 0.24415 0.0
C4966 C 0.48892 0.38237 0.2331 0.0
C4967 C 0.47888 0.3789 0.21952 0.0
H4968 H 0.13945 0.73173 0.04444 0.0
H4969 H 0.09206 0.72212 0.02175 0.0
H4970 H 0.14671 0.75004 0.02166 0.0
H4971 H 0.09939 0.74049 -0.00117 0.0
H4972 H 0.15943 0.77444 0.97303 0.0
H4973 H 0.15244 0.75126 0.99124 0.0
H4974 H 0.10327 0.77113 0.99758 0.0
H4975 H 0.1102 0.79414 0.97947 0.0
C4976 C 0.13066 0.73338 0.03446 0.0
C4977 C 0.11513 0.72563 0.03492 0.0
C4978 C 0.13488 0.74376 0.02135 0.0
C4979 C 0.12361 0.74671 0.00849 0.0
C4980 C 0.10827 0.73852 0.00866 0.0
C4981 C 0.10409 0.72799 0.02173 0.0
C4982 C 0.14708 0.77369 0.97815 0.0
C4983 C 0.1354 0.78614 0.97498 0.0
C4984 C 0.1431 0.76048 0.98859 0.0
C4985 C 0.12732 0.75943 0.99585 0.0
C4986 C 0.11546 0.77151 0.99204 0.0
C4987 C 0.11948 0.78476 0.98177 0.0
H4988 H 0.4081 0.27119 0.52593 0.0
H4989 H 0.35849 0.26534 0.54487 0.0
H4990 H 0.40171 0.25197 0.50341 0.0
H4991 H 0.35213 0.24627 0.52243 0.0
H4992 H 0.34223 0.22167 0.47311 0.0
H4993 H 0.34924 0.24475 0.49136 0.0
H4994 H 0.39564 0.22119 0.50332 0.0
H4995 H 0.38866 0.19815 0.48515 0.0
C4996 C 0.3958 0.26597 0.52515 0.0
C4997 C 0.38383 0.26964 0.53718 0.0
C4998 C 0.39216 0.25496 0.51232 0.0
C4999 C 0.37644 0.24765 0.51121 0.0
C5000 C 0.3643 0.25186 0.52289 0.0
C5001 C 0.36798 0.26268 0.53579 0.0
C5002 C 0.354 0.22153 0.4795 0.0
C5003 C 0.36485 0.20808 0.47784 0.0
C5004 C 0.35798 0.2347 0.48995 0.0
C5005 C 0.37296 0.23472 0.49875 0.0
C5006 C 0.38409 0.22157 0.49656 0.0
C5007 C 0.38003 0.20834 0.48626 0.0
H5008 H 0.28195 0.5222 0.40131 0.0
H5009 H 0.27086 0.54265 0.35324 0.0
H5010 H 0.26557 0.49771 0.39461 0.0
H5011 H 0.25422 0.51855 0.34673 0.0
H5012 H 0.21292 0.47554 0.3862 0.0
H5013 H 0.23625 0.49345 0.39212 0.0
H5014 H 0.25233 0.48937 0.3413 0.0
H5015 H 0.22856 0.47171 0.33528 0.0
C5016 C 0.2762 0.52136 0.38925 0.0
C5017 C 0.2775 0.53441 0.37788 0.0
C5018 C 0.26677 0.50738 0.38543 0.0
C5019 C 0.25846 0.50622 0.37019 0.0
C5020 C 0.26059 0.5189 0.3585 0.0
C5021 C 0.27002 0.53282 0.36229 0.0
C5022 C 0.22159 0.47822 0.37635 0.0
C5023 C 0.21879 0.47244 0.36022 0.0
C5024 C 0.23507 0.4884 0.37977 0.0
C5025 C 0.24609 0.49299 0.36714 0.0
C5026 C 0.2439 0.48628 0.35124 0.0
C5027 C 0.23035 0.47611 0.3478 0.0
H5028 H 0.22534 0.52892 0.15193 0.0
H5029 H 0.20316 0.51542 0.10527 0.0
H5030 H 0.24942 0.51181 0.14536 0.0
H5031 H 0.22688 0.49816 0.09887 0.0
H5032 H 0.27426 0.47338 0.08666 0.0
H5033 H 0.25609 0.49681 0.09248 0.0
H5034 H 0.25366 0.4821 0.14379 0.0
H5035 H 0.27205 0.45903 0.13805 0.0
C5036 C 0.2257 0.52246 0.14021 0.0
C5037 C 0.21232 0.52336 0.12919 0.0
C5038 C 0.23944 0.51262 0.13647 0.0
C5039 C 0.24004 0.50356 0.12162 0.0
C5040 C 0.22695 0.50513 0.1103 0.0
C5041 C 0.21326 0.51492 0.11404 0.0
C5042 C 0.27008 0.47537 0.09922 0.0
C5043 C 0.27439 0.46428 0.11186 0.0
C5044 C 0.25963 0.48873 0.10255 0.0
C5045 C 0.25329 0.49123 0.11856 0.0
C5046 C 0.25842 0.48066 0.13136 0.0
C5047 C 0.26887 0.46733 0.12804 0.0
H5048 H 0.27103 0.53114 0.84185 0.0
H5049 H 0.29007 0.52031 0.89056 0.0
H5050 H 0.24664 0.51424 0.8477 0.0
H5051 H 0.26601 0.50328 0.89628 0.0
H5052 H 0.22559 0.46086 0.85582 0.0
H5053 H 0.24343 0.48439 0.85038 0.0
H5054 H 0.23622 0.50151 0.90048 0.0
H5055 H 0.21851 0.47763 0.90604 0.0
C5056 C 0.26988 0.52536 0.85387 0.0
C5057 C 0.28252 0.52685 0.86567 0.0
C5058 C 0.25596 0.51565 0.85721 0.0
C5059 C 0.25444 0.50733 0.87241 0.0
C5060 C 0.26668 0.50965 0.88452 0.0
C5061 C 0.28056 0.5193 0.88118 0.0
C5062 C 0.22758 0.46978 0.86561 0.0
C5063 C 0.22086 0.4673 0.88143 0.0
C5064 C 0.2377 0.48337 0.86244 0.0
C5065 C 0.24134 0.49476 0.87503 0.0
C5066 C 0.23381 0.49281 0.8906 0.0
C5067 C 0.22363 0.47919 0.89376 0.0
H5068 H 0.22559 0.53851 0.63984 0.0
H5069 H 0.21925 0.52209 0.58942 0.0
H5070 H 0.24352 0.51501 0.64532 0.0
H5071 H 0.23704 0.49828 0.59499 0.0
H5072 H 0.29035 0.47862 0.60545 0.0
H5073 H 0.26676 0.49629 0.59966 0.0
H5074 H 0.24641 0.48502 0.64776 0.0
H5075 H 0.27032 0.46745 0.65369 0.0
C5076 C 0.22779 0.52969 0.63001 0.0
C5077 C 0.22121 0.53224 0.61414 0.0
C5078 C 0.23796 0.51613 0.63319 0.0
C5079 C 0.24178 0.50483 0.62056 0.0
C5080 C 0.23447 0.5069 0.60491 0.0
C5081 C 0.22426 0.52048 0.60173 0.0
C5082 C 0.28073 0.47971 0.61471 0.0
C5083 C 0.28226 0.47182 0.6301 0.0
C5084 C 0.26712 0.48974 0.61133 0.0
C5085 C 0.25474 0.49212 0.62328 0.0
C5086 C 0.25586 0.48356 0.63838 0.0
C5087 C 0.26949 0.47346 0.64175 0.0
loop_
_geom_bond_atom_site_label_1
_geom_bond_atom_site_label_2
_geom_bond_distance
_geom_bond_site_symmetry_2
_ccdc_geom_bond_type
In0 O1 2.294 . S
In0 O2 2.326 . S
In0 O6 2.266 . S
In0 O7 2.326 . S
In0 O8 2.266 . S
In0 O9 2.326 . S
In0 O11 2.294 . S
In0 O12 2.326 . S
O1 In0 2.294 . S
O1 C10 1.240 . S
O2 In0 2.326 . S
O2 C10 1.252 . S
C3 O6 1.252 . S
C3 O7 1.260 . S
C4 O11 1.240 . S
C4 O12 1.252 . S
C5 O8 1.252 . S
C5 O9 1.260 . S
O6 In0 2.266 . S
O6 C3 1.252 . S
O7 In0 2.326 . S
O7 C3 1.260 . S
O8 In0 2.266 . S
O8 C5 1.252 . S
O9 In0 2.326 . S
O9 C5 1.260 . S
C10 O1 1.240 . S
C10 O2 1.252 . S
O11 In0 2.294 . S
O11 C4 1.240 . S
O12 In0 2.326 . S
O12 C4 1.252 . S
In13 O14 2.294 . S
In13 O15 2.326 . S
In13 O19 2.266 . S
In13 O20 2.326 . S
In13 O21 2.266 . S
In13 O22 2.326 . S
In13 O24 2.294 . S
In13 O25 2.326 . S
O14 In13 2.294 . S
O14 C23 1.240 . S
O15 In13 2.326 . S
O15 C23 1.252 . S
C16 O19 1.252 . S
C16 O20 1.260 . S
C17 O24 1.240 . S
C17 O25 1.252 . S
C18 O21 1.252 . S
C18 O22 1.260 . S
O19 In13 2.266 . S
O19 C16 1.252 . S
O20 In13 2.326 . S
O20 C16 1.260 . S
O21 In13 2.266 . S
O21 C18 1.252 . S
O22 In13 2.326 . S
O22 C18 1.260 . S
C23 O14 1.240 . S
C23 O15 1.252 . S
O24 In13 2.294 . S
O24 C17 1.240 . S
O25 In13 2.326 . S
O25 C17 1.252 . S
In26 O27 2.294 . S
In26 O28 2.326 . S
In26 O32 2.266 . S
In26 O33 2.326 . S
In26 O34 2.266 . S
In26 O35 2.326 . S
In26 O37 2.294 . S
In26 O38 2.326 . S
O27 In26 2.294 . S
O27 C36 1.240 . S
O28 In26 2.326 . S
O28 C36 1.252 . S
C29 O32 1.252 . S
C29 O33 1.260 . S
C30 O37 1.240 . S
C30 O38 1.252 . S
C31 O34 1.252 . S
C31 O35 1.260 . S
O32 In26 2.266 . S
O32 C29 1.252 . S
O33 In26 2.326 . S
O33 C29 1.260 . S
O34 In26 2.266 . S
O34 C31 1.252 . S
O35 In26 2.326 . S
O35 C31 1.260 . S
C36 O27 1.240 . S
C36 O28 1.252 . S
O37 In26 2.294 . S
O37 C30 1.240 . S
O38 In26 2.326 . S
O38 C30 1.252 . S
In39 O40 2.294 . S
In39 O41 2.326 . S
In39 O45 2.266 . S
In39 O46 2.326 . S
In39 O47 2.266 . S
In39 O48 2.326 . S
In39 O50 2.294 . S
In39 O51 2.326 . S
O40 In39 2.294 . S
O40 C49 1.240 . S
O41 In39 2.326 . S
O41 C49 1.252 . S
C42 O45 1.252 . S
C42 O46 1.260 . S
C43 O50 1.240 . S
C43 O51 1.252 . S
C44 O47 1.252 . S
C44 O48 1.260 . S
O45 In39 2.266 . S
O45 C42 1.252 . S
O46 In39 2.326 . S
O46 C42 1.260 . S
O47 In39 2.266 . S
O47 C44 1.252 . S
O48 In39 2.326 . S
O48 C44 1.260 . S
C49 O40 1.240 . S
C49 O41 1.252 . S
O50 In39 2.294 . S
O50 C43 1.240 . S
O51 In39 2.326 . S
O51 C43 1.252 . S
In52 O53 2.294 . S
In52 O54 2.326 . S
In52 O58 2.266 . S
In52 O59 2.326 . S
In52 O60 2.266 . S
In52 O61 2.326 . S
In52 O63 2.294 . S
In52 O64 2.326 . S
O53 In52 2.294 . S
O53 C62 1.240 . S
O54 In52 2.326 . S
O54 C62 1.252 . S
C55 O58 1.252 . S
C55 O59 1.260 . S
C56 O63 1.240 . S
C56 O64 1.252 . S
C57 O60 1.252 . S
C57 O61 1.260 . S
O58 In52 2.266 . S
O58 C55 1.252 . S
O59 In52 2.326 . S
O59 C55 1.260 . S
O60 In52 2.266 . S
O60 C57 1.252 . S
O61 In52 2.326 . S
O61 C57 1.260 . S
C62 O53 1.240 . S
C62 O54 1.252 . S
O63 In52 2.294 . S
O63 C56 1.240 . S
O64 In52 2.326 . S
O64 C56 1.252 . S
In65 O66 2.294 . S
In65 O67 2.326 . S
In65 O71 2.266 . S
In65 O72 2.326 . S
In65 O73 2.266 . S
In65 O74 2.326 . S
In65 O76 2.294 . S
In65 O77 2.326 . S
O66 In65 2.294 . S
O66 C75 1.240 . S
O67 In65 2.326 . S
O67 C75 1.252 . S
C68 O71 1.252 . S
C68 O72 1.260 . S
C69 O76 1.240 . S
C69 O77 1.252 . S
C70 O73 1.252 . S
C70 O74 1.260 . S
O71 In65 2.266 . S
O71 C68 1.252 . S
O72 In65 2.326 . S
O72 C68 1.260 . S
O73 In65 2.266 . S
O73 C70 1.252 . S
O74 In65 2.326 . S
O74 C70 1.260 . S
C75 O66 1.240 . S
C75 O67 1.252 . S
O76 In65 2.294 . S
O76 C69 1.240 . S
O77 In65 2.326 . S
O77 C69 1.252 . S
In78 O79 2.294 . S
In78 O80 2.326 . S
In78 O84 2.266 . S
In78 O85 2.326 . S
In78 O86 2.266 . S
In78 O87 2.326 . S
In78 O89 2.294 . S
In78 O90 2.326 . S
O79 In78 2.294 . S
O79 C88 1.240 . S
O80 In78 2.326 . S
O80 C88 1.252 . S
C81 O84 1.252 . S
C81 O85 1.260 . S
C82 O89 1.240 . S
C82 O90 1.252 . S
C83 O86 1.252 . S
C83 O87 1.260 . S
O84 In78 2.266 . S
O84 C81 1.252 . S
O85 In78 2.326 . S
O85 C81 1.260 . S
O86 In78 2.266 . S
O86 C83 1.252 . S
O87 In78 2.326 . S
O87 C83 1.260 . S
C88 O79 1.240 . S
C88 O80 1.252 . S
O89 In78 2.294 . S
O89 C82 1.240 . S
O90 In78 2.326 . S
O90 C82 1.252 . S
In91 O92 2.294 . S
In91 O93 2.326 . S
In91 O97 2.266 . S
In91 O98 2.326 . S
In91 O99 2.266 . S
In91 O100 2.326 . S
In91 O102 2.294 . S
In91 O103 2.326 . S
O92 In91 2.294 . S
O92 C101 1.240 . S
O93 In91 2.326 . S
O93 C101 1.252 . S
C94 O97 1.252 . S
C94 O98 1.260 . S
C95 O102 1.240 . S
C95 O103 1.252 . S
C96 O99 1.252 . S
C96 O100 1.260 . S
O97 In91 2.266 . S
O97 C94 1.252 . S
O98 In91 2.326 . S
O98 C94 1.260 . S
O99 In91 2.266 . S
O99 C96 1.252 . S
O100 In91 2.326 . S
O100 C96 1.260 . S
C101 O92 1.240 . S
C101 O93 1.252 . S
O102 In91 2.294 . S
O102 C95 1.240 . S
O103 In91 2.326 . S
O103 C95 1.252 . S
In104 O105 2.294 . S
In104 O106 2.326 . S
In104 O110 2.266 . S
In104 O111 2.326 . S
In104 O112 2.266 . S
In104 O113 2.326 . S
In104 O115 2.294 . S
In104 O116 2.326 . S
O105 In104 2.294 . S
O105 C114 1.240 . S
O106 In104 2.326 . S
O106 C114 1.252 . S
C107 O110 1.252 . S
C107 O111 1.260 . S
C108 O115 1.240 . S
C108 O116 1.252 . S
C109 O112 1.252 . S
C109 O113 1.260 . S
O110 In104 2.266 . S
O110 C107 1.252 . S
O111 In104 2.326 . S
O111 C107 1.260 . S
O112 In104 2.266 . S
O112 C109 1.252 . S
O113 In104 2.326 . S
O113 C109 1.260 . S
C114 O105 1.240 . S
C114 O106 1.252 . S
O115 In104 2.294 . S
O115 C108 1.240 . S
O116 In104 2.326 . S
O116 C108 1.252 . S
In117 O118 2.294 . S
In117 O119 2.326 . S
In117 O123 2.266 . S
In117 O124 2.326 . S
In117 O125 2.266 . S
In117 O126 2.326 . S
In117 O128 2.294 . S
In117 O129 2.326 . S
O118 In117 2.294 . S
O118 C127 1.240 . S
O119 In117 2.326 . S
O119 C127 1.252 . S
C120 O123 1.252 . S
C120 O124 1.260 . S
C121 O128 1.240 . S
C121 O129 1.252 . S
C122 O125 1.252 . S
C122 O126 1.260 . S
O123 In117 2.266 . S
O123 C120 1.252 . S
O124 In117 2.326 . S
O124 C120 1.260 . S
O125 In117 2.266 . S
O125 C122 1.252 . S
O126 In117 2.326 . S
O126 C122 1.260 . S
C127 O118 1.240 . S
C127 O119 1.252 . S
O128 In117 2.294 . S
O128 C121 1.240 . S
O129 In117 2.326 . S
O129 C121 1.252 . S
In130 O131 2.294 . S
In130 O132 2.326 . S
In130 O136 2.266 . S
In130 O137 2.326 . S
In130 O138 2.266 . S
In130 O139 2.326 . S
In130 O141 2.294 . S
In130 O142 2.326 . S
O131 In130 2.294 . S
O131 C140 1.240 . S
O132 In130 2.326 . S
O132 C140 1.252 . S
C133 O136 1.252 . S
C133 O137 1.260 . S
C134 O141 1.240 . S
C134 O142 1.252 . S
C135 O138 1.252 . S
C135 O139 1.260 . S
O136 In130 2.266 . S
O136 C133 1.252 . S
O137 In130 2.326 . S
O137 C133 1.260 . S
O138 In130 2.266 . S
O138 C135 1.252 . S
O139 In130 2.326 . S
O139 C135 1.260 . S
C140 O131 1.240 . S
C140 O132 1.252 . S
O141 In130 2.294 . S
O141 C134 1.240 . S
O142 In130 2.326 . S
O142 C134 1.252 . S
In143 O144 2.294 . S
In143 O145 2.326 . S
In143 O149 2.266 . S
In143 O150 2.326 . S
In143 O151 2.266 . S
In143 O152 2.326 . S
In143 O154 2.294 . S
In143 O155 2.326 . S
O144 In143 2.294 . S
O144 C153 1.240 . S
O145 In143 2.326 . S
O145 C153 1.252 . S
C146 O149 1.252 . S
C146 O150 1.260 . S
C147 O154 1.240 . S
C147 O155 1.252 . S
C148 O151 1.252 . S
C148 O152 1.260 . S
O149 In143 2.266 . S
O149 C146 1.252 . S
O150 In143 2.326 . S
O150 C146 1.260 . S
O151 In143 2.266 . S
O151 C148 1.252 . S
O152 In143 2.326 . S
O152 C148 1.260 . S
C153 O144 1.240 . S
C153 O145 1.252 . S
O154 In143 2.294 . S
O154 C147 1.240 . S
O155 In143 2.326 . S
O155 C147 1.252 . S
In156 O157 2.294 . S
In156 O158 2.326 . S
In156 O162 2.266 . S
In156 O163 2.326 . S
In156 O164 2.266 . S
In156 O165 2.326 . S
In156 O167 2.294 . S
In156 O168 2.326 . S
O157 In156 2.294 . S
O157 C166 1.240 . S
O158 In156 2.326 . S
O158 C166 1.252 . S
C159 O162 1.252 . S
C159 O163 1.260 . S
C160 O167 1.240 . S
C160 O168 1.252 . S
C161 O164 1.252 . S
C161 O165 1.260 . S
O162 In156 2.266 . S
O162 C159 1.252 . S
O163 In156 2.326 . S
O163 C159 1.260 . S
O164 In156 2.266 . S
O164 C161 1.252 . S
O165 In156 2.326 . S
O165 C161 1.260 . S
C166 O157 1.240 . S
C166 O158 1.252 . S
O167 In156 2.294 . S
O167 C160 1.240 . S
O168 In156 2.326 . S
O168 C160 1.252 . S
In169 O170 2.294 . S
In169 O171 2.326 . S
In169 O175 2.266 . S
In169 O176 2.326 . S
In169 O177 2.266 . S
In169 O178 2.326 . S
In169 O180 2.294 . S
In169 O181 2.326 . S
O170 In169 2.294 . S
O170 C179 1.240 . S
O171 In169 2.326 . S
O171 C179 1.252 . S
C172 O175 1.252 . S
C172 O176 1.260 . S
C173 O180 1.240 . S
C173 O181 1.252 . S
C174 O177 1.252 . S
C174 O178 1.260 . S
O175 In169 2.266 . S
O175 C172 1.252 . S
O176 In169 2.326 . S
O176 C172 1.260 . S
O177 In169 2.266 . S
O177 C174 1.252 . S
O178 In169 2.326 . S
O178 C174 1.260 . S
C179 O170 1.240 . S
C179 O171 1.252 . S
O180 In169 2.294 . S
O180 C173 1.240 . S
O181 In169 2.326 . S
O181 C173 1.252 . S
In182 O183 2.294 . S
In182 O184 2.326 . S
In182 O188 2.266 . S
In182 O189 2.326 . S
In182 O190 2.266 . S
In182 O191 2.326 . S
In182 O193 2.294 . S
In182 O194 2.326 . S
O183 In182 2.294 . S
O183 C192 1.240 . S
O184 In182 2.326 . S
O184 C192 1.252 . S
C185 O188 1.252 . S
C185 O189 1.260 . S
C186 O193 1.240 . S
C186 O194 1.252 . S
C187 O190 1.252 . S
C187 O191 1.260 . S
O188 In182 2.266 . S
O188 C185 1.252 . S
O189 In182 2.326 . S
O189 C185 1.260 . S
O190 In182 2.266 . S
O190 C187 1.252 . S
O191 In182 2.326 . S
O191 C187 1.260 . S
C192 O183 1.240 . S
C192 O184 1.252 . S
O193 In182 2.294 . S
O193 C186 1.240 . S
O194 In182 2.326 . S
O194 C186 1.252 . S
In195 O196 2.294 . S
In195 O197 2.326 . S
In195 O201 2.266 . S
In195 O202 2.326 . S
In195 O203 2.266 . S
In195 O204 2.326 . S
In195 O206 2.294 . S
In195 O207 2.326 . S
O196 In195 2.294 . S
O196 C205 1.240 . S
O197 In195 2.326 . S
O197 C205 1.252 . S
C198 O201 1.252 . S
C198 O202 1.260 . S
C199 O206 1.240 . S
C199 O207 1.252 . S
C200 O203 1.252 . S
C200 O204 1.260 . S
O201 In195 2.266 . S
O201 C198 1.252 . S
O202 In195 2.326 . S
O202 C198 1.260 . S
O203 In195 2.266 . S
O203 C200 1.252 . S
O204 In195 2.326 . S
O204 C200 1.260 . S
C205 O196 1.240 . S
C205 O197 1.252 . S
O206 In195 2.294 . S
O206 C199 1.240 . S
O207 In195 2.326 . S
O207 C199 1.252 . S
In208 O209 2.294 . S
In208 O210 2.326 . S
In208 O214 2.266 . S
In208 O215 2.326 . S
In208 O216 2.266 . S
In208 O217 2.326 . S
In208 O219 2.294 . S
In208 O220 2.326 . S
O209 In208 2.294 . S
O209 C218 1.240 . S
O210 In208 2.326 . S
O210 C218 1.252 . S
C211 O214 1.252 . S
C211 O215 1.260 . S
C212 O219 1.240 . S
C212 O220 1.252 . S
C213 O216 1.252 . S
C213 O217 1.260 . S
O214 In208 2.266 . S
O214 C211 1.252 . S
O215 In208 2.326 . S
O215 C211 1.260 . S
O216 In208 2.266 . S
O216 C213 1.252 . S
O217 In208 2.326 . S
O217 C213 1.260 . S
C218 O209 1.240 . S
C218 O210 1.252 . S
O219 In208 2.294 . S
O219 C212 1.240 . S
O220 In208 2.326 . S
O220 C212 1.252 . S
In221 O222 2.294 . S
In221 O223 2.326 . S
In221 O227 2.266 . S
In221 O228 2.326 . S
In221 O229 2.266 . S
In221 O230 2.326 . S
In221 O232 2.294 . S
In221 O233 2.326 . S
O222 In221 2.294 . S
O222 C231 1.240 . S
O223 In221 2.326 . S
O223 C231 1.252 . S
C224 O227 1.252 . S
C224 O228 1.260 . S
C225 O232 1.240 . S
C225 O233 1.252 . S
C226 O229 1.252 . S
C226 O230 1.260 . S
O227 In221 2.266 . S
O227 C224 1.252 . S
O228 In221 2.326 . S
O228 C224 1.260 . S
O229 In221 2.266 . S
O229 C226 1.252 . S
O230 In221 2.326 . S
O230 C226 1.260 . S
C231 O222 1.240 . S
C231 O223 1.252 . S
O232 In221 2.294 . S
O232 C225 1.240 . S
O233 In221 2.326 . S
O233 C225 1.252 . S
In234 O235 2.294 . S
In234 O236 2.326 . S
In234 O240 2.266 . S
In234 O241 2.326 . S
In234 O242 2.266 . S
In234 O243 2.326 . S
In234 O245 2.294 . S
In234 O246 2.326 . S
O235 In234 2.294 . S
O235 C244 1.240 . S
O236 In234 2.326 . S
O236 C244 1.252 . S
C237 O240 1.252 . S
C237 O241 1.260 . S
C238 O245 1.240 . S
C238 O246 1.252 . S
C239 O242 1.252 . S
C239 O243 1.260 . S
O240 In234 2.266 . S
O240 C237 1.252 . S
O241 In234 2.326 . S
O241 C237 1.260 . S
O242 In234 2.266 . S
O242 C239 1.252 . S
O243 In234 2.326 . S
O243 C239 1.260 . S
C244 O235 1.240 . S
C244 O236 1.252 . S
O245 In234 2.294 . S
O245 C238 1.240 . S
O246 In234 2.326 . S
O246 C238 1.252 . S
In247 O248 2.294 . S
In247 O249 2.326 . S
In247 O253 2.266 . S
In247 O254 2.326 . S
In247 O255 2.266 . S
In247 O256 2.326 . S
In247 O258 2.294 . S
In247 O259 2.326 . S
O248 In247 2.294 . S
O248 C257 1.240 . S
O249 In247 2.326 . S
O249 C257 1.252 . S
C250 O253 1.252 . S
C250 O254 1.260 . S
C251 O258 1.240 . S
C251 O259 1.252 . S
C252 O255 1.252 . S
C252 O256 1.260 . S
O253 In247 2.266 . S
O253 C250 1.252 . S
O254 In247 2.326 . S
O254 C250 1.260 . S
O255 In247 2.266 . S
O255 C252 1.252 . S
O256 In247 2.326 . S
O256 C252 1.260 . S
C257 O248 1.240 . S
C257 O249 1.252 . S
O258 In247 2.294 . S
O258 C251 1.240 . S
O259 In247 2.326 . S
O259 C251 1.252 . S
In260 O261 2.294 . S
In260 O262 2.326 . S
In260 O266 2.266 . S
In260 O267 2.326 . S
In260 O268 2.266 . S
In260 O269 2.326 . S
In260 O271 2.294 . S
In260 O272 2.326 . S
O261 In260 2.294 . S
O261 C270 1.240 . S
O262 In260 2.326 . S
O262 C270 1.252 . S
C263 O266 1.252 . S
C263 O267 1.260 . S
C264 O271 1.240 . S
C264 O272 1.252 . S
C265 O268 1.252 . S
C265 O269 1.260 . S
O266 In260 2.266 . S
O266 C263 1.252 . S
O267 In260 2.326 . S
O267 C263 1.260 . S
O268 In260 2.266 . S
O268 C265 1.252 . S
O269 In260 2.326 . S
O269 C265 1.260 . S
C270 O261 1.240 . S
C270 O262 1.252 . S
O271 In260 2.294 . S
O271 C264 1.240 . S
O272 In260 2.326 . S
O272 C264 1.252 . S
In273 O274 2.294 . S
In273 O275 2.326 . S
In273 O279 2.266 . S
In273 O280 2.326 . S
In273 O281 2.266 . S
In273 O282 2.326 . S
In273 O284 2.294 . S
In273 O285 2.326 . S
O274 In273 2.294 . S
O274 C283 1.240 . S
O275 In273 2.326 . S
O275 C283 1.252 . S
C276 O279 1.252 . S
C276 O280 1.260 . S
C277 O284 1.240 . S
C277 O285 1.252 . S
C278 O281 1.252 . S
C278 O282 1.260 . S
O279 In273 2.266 . S
O279 C276 1.252 . S
O280 In273 2.326 . S
O280 C276 1.260 . S
O281 In273 2.266 . S
O281 C278 1.252 . S
O282 In273 2.326 . S
O282 C278 1.260 . S
C283 O274 1.240 . S
C283 O275 1.252 . S
O284 In273 2.294 . S
O284 C277 1.240 . S
O285 In273 2.326 . S
O285 C277 1.252 . S
In286 O287 2.294 . S
In286 O288 2.326 . S
In286 O292 2.266 . S
In286 O293 2.326 . S
In286 O294 2.266 . S
In286 O295 2.326 . S
In286 O297 2.294 . S
In286 O298 2.326 . S
O287 In286 2.294 . S
O287 C296 1.240 . S
O288 In286 2.326 . S
O288 C296 1.252 . S
C289 O292 1.252 . S
C289 O293 1.260 . S
C290 O297 1.240 . S
C290 O298 1.252 . S
C291 O294 1.252 . S
C291 O295 1.260 . S
O292 In286 2.266 . S
O292 C289 1.252 . S
O293 In286 2.326 . S
O293 C289 1.260 . S
O294 In286 2.266 . S
O294 C291 1.252 . S
O295 In286 2.326 . S
O295 C291 1.260 . S
C296 O287 1.240 . S
C296 O288 1.252 . S
O297 In286 2.294 . S
O297 C290 1.240 . S
O298 In286 2.326 . S
O298 C290 1.252 . S
In299 O300 2.294 . S
In299 O301 2.326 . S
In299 O305 2.266 . S
In299 O306 2.326 . S
In299 O307 2.266 . S
In299 O308 2.326 . S
In299 O310 2.294 . S
In299 O311 2.326 . S
O300 In299 2.294 . S
O300 C309 1.240 . S
O301 In299 2.326 . S
O301 C309 1.252 . S
C302 O305 1.252 . S
C302 O306 1.260 . S
C303 O310 1.240 . S
C303 O311 1.252 . S
C304 O307 1.252 . S
C304 O308 1.260 . S
O305 In299 2.266 . S
O305 C302 1.252 . S
O306 In299 2.326 . S
O306 C302 1.260 . S
O307 In299 2.266 . S
O307 C304 1.252 . S
O308 In299 2.326 . S
O308 C304 1.260 . S
C309 O300 1.240 . S
C309 O301 1.252 . S
O310 In299 2.294 . S
O310 C303 1.240 . S
O311 In299 2.326 . S
O311 C303 1.252 . S
In312 O313 2.294 . S
In312 O314 2.326 . S
In312 O318 2.266 . S
In312 O319 2.326 . S
In312 O320 2.266 . S
In312 O321 2.326 . S
In312 O323 2.294 . S
In312 O324 2.326 . S
O313 In312 2.294 . S
O313 C322 1.240 . S
O314 In312 2.326 . S
O314 C322 1.252 . S
C315 O318 1.252 . S
C315 O319 1.260 . S
C316 O323 1.240 . S
C316 O324 1.252 . S
C317 O320 1.252 . S
C317 O321 1.260 . S
O318 In312 2.266 . S
O318 C315 1.252 . S
O319 In312 2.326 . S
O319 C315 1.260 . S
O320 In312 2.266 . S
O320 C317 1.252 . S
O321 In312 2.326 . S
O321 C317 1.260 . S
C322 O313 1.240 . S
C322 O314 1.252 . S
O323 In312 2.294 . S
O323 C316 1.240 . S
O324 In312 2.326 . S
O324 C316 1.252 . S
In325 O326 2.294 . S
In325 O327 2.326 . S
In325 O331 2.266 . S
In325 O332 2.326 . S
In325 O333 2.266 . S
In325 O334 2.326 . S
In325 O336 2.294 . S
In325 O337 2.326 . S
O326 In325 2.294 . S
O326 C335 1.240 . S
O327 In325 2.326 . S
O327 C335 1.252 . S
C328 O331 1.252 . S
C328 O332 1.260 . S
C329 O336 1.240 . S
C329 O337 1.252 . S
C330 O333 1.252 . S
C330 O334 1.260 . S
O331 In325 2.266 . S
O331 C328 1.252 . S
O332 In325 2.326 . S
O332 C328 1.260 . S
O333 In325 2.266 . S
O333 C330 1.252 . S
O334 In325 2.326 . S
O334 C330 1.260 . S
C335 O326 1.240 . S
C335 O327 1.252 . S
O336 In325 2.294 . S
O336 C329 1.240 . S
O337 In325 2.326 . S
O337 C329 1.252 . S
In338 O339 2.294 . S
In338 O340 2.326 . S
In338 O344 2.266 . S
In338 O345 2.326 . S
In338 O346 2.266 . S
In338 O347 2.326 . S
In338 O349 2.294 . S
In338 O350 2.326 . S
O339 In338 2.294 . S
O339 C348 1.240 . S
O340 In338 2.326 . S
O340 C348 1.252 . S
C341 O344 1.252 . S
C341 O345 1.260 . S
C342 O349 1.240 . S
C342 O350 1.252 . S
C343 O346 1.252 . S
C343 O347 1.260 . S
O344 In338 2.266 . S
O344 C341 1.252 . S
O345 In338 2.326 . S
O345 C341 1.260 . S
O346 In338 2.266 . S
O346 C343 1.252 . S
O347 In338 2.326 . S
O347 C343 1.260 . S
C348 O339 1.240 . S
C348 O340 1.252 . S
O349 In338 2.294 . S
O349 C342 1.240 . S
O350 In338 2.326 . S
O350 C342 1.252 . S
In351 O352 2.294 . S
In351 O353 2.326 . S
In351 O357 2.266 . S
In351 O358 2.326 . S
In351 O359 2.266 . S
In351 O360 2.326 . S
In351 O362 2.294 . S
In351 O363 2.326 . S
O352 In351 2.294 . S
O352 C361 1.240 . S
O353 In351 2.326 . S
O353 C361 1.252 . S
C354 O357 1.252 . S
C354 O358 1.260 . S
C355 O362 1.240 . S
C355 O363 1.252 . S
C356 O359 1.252 . S
C356 O360 1.260 . S
O357 In351 2.266 . S
O357 C354 1.252 . S
O358 In351 2.326 . S
O358 C354 1.260 . S
O359 In351 2.266 . S
O359 C356 1.252 . S
O360 In351 2.326 . S
O360 C356 1.260 . S
C361 O352 1.240 . S
C361 O353 1.252 . S
O362 In351 2.294 . S
O362 C355 1.240 . S
O363 In351 2.326 . S
O363 C355 1.252 . S
In364 O365 2.294 . S
In364 O366 2.326 . S
In364 O370 2.266 . S
In364 O371 2.326 . S
In364 O372 2.266 . S
In364 O373 2.326 . S
In364 O375 2.294 . S
In364 O376 2.326 . S
O365 In364 2.294 . S
O365 C374 1.240 . S
O366 In364 2.326 . S
O366 C374 1.252 . S
C367 O370 1.252 . S
C367 O371 1.260 . S
C368 O375 1.240 . S
C368 O376 1.252 . S
C369 O372 1.252 . S
C369 O373 1.260 . S
O370 In364 2.266 . S
O370 C367 1.252 . S
O371 In364 2.326 . S
O371 C367 1.260 . S
O372 In364 2.266 . S
O372 C369 1.252 . S
O373 In364 2.326 . S
O373 C369 1.260 . S
C374 O365 1.240 . S
C374 O366 1.252 . S
O375 In364 2.294 . S
O375 C368 1.240 . S
O376 In364 2.326 . S
O376 C368 1.252 . S
In377 O378 2.294 . S
In377 O379 2.326 . S
In377 O383 2.266 . S
In377 O384 2.326 . S
In377 O385 2.266 . S
In377 O386 2.326 . S
In377 O388 2.294 . S
In377 O389 2.326 . S
O378 In377 2.294 . S
O378 C387 1.240 . S
O379 In377 2.326 . S
O379 C387 1.252 . S
C380 O383 1.252 . S
C380 O384 1.260 . S
C381 O388 1.240 . S
C381 O389 1.252 . S
C382 O385 1.252 . S
C382 O386 1.260 . S
O383 In377 2.266 . S
O383 C380 1.252 . S
O384 In377 2.326 . S
O384 C380 1.260 . S
O385 In377 2.266 . S
O385 C382 1.252 . S
O386 In377 2.326 . S
O386 C382 1.260 . S
C387 O378 1.240 . S
C387 O379 1.252 . S
O388 In377 2.294 . S
O388 C381 1.240 . S
O389 In377 2.326 . S
O389 C381 1.252 . S
In390 O391 2.294 . S
In390 O392 2.326 . S
In390 O396 2.266 . S
In390 O397 2.326 . S
In390 O398 2.266 . S
In390 O399 2.326 . S
In390 O401 2.294 . S
In390 O402 2.326 . S
O391 In390 2.294 . S
O391 C400 1.240 . S
O392 In390 2.326 . S
O392 C400 1.252 . S
C393 O396 1.252 . S
C393 O397 1.260 . S
C394 O401 1.240 . S
C394 O402 1.252 . S
C395 O398 1.252 . S
C395 O399 1.260 . S
O396 In390 2.266 . S
O396 C393 1.252 . S
O397 In390 2.326 . S
O397 C393 1.260 . S
O398 In390 2.266 . S
O398 C395 1.252 . S
O399 In390 2.326 . S
O399 C395 1.260 . S
C400 O391 1.240 . S
C400 O392 1.252 . S
O401 In390 2.294 . S
O401 C394 1.240 . S
O402 In390 2.326 . S
O402 C394 1.252 . S
In403 O404 2.294 . S
In403 O405 2.326 . S
In403 O409 2.266 . S
In403 O410 2.326 . S
In403 O411 2.266 . S
In403 O412 2.326 . S
In403 O414 2.294 . S
In403 O415 2.326 . S
O404 In403 2.294 . S
O404 C413 1.240 . S
O405 In403 2.326 . S
O405 C413 1.252 . S
C406 O409 1.252 . S
C406 O410 1.260 . S
C407 O414 1.240 . S
C407 O415 1.252 . S
C408 O411 1.252 . S
C408 O412 1.260 . S
O409 In403 2.266 . S
O409 C406 1.252 . S
O410 In403 2.326 . S
O410 C406 1.260 . S
O411 In403 2.266 . S
O411 C408 1.252 . S
O412 In403 2.326 . S
O412 C408 1.260 . S
C413 O404 1.240 . S
C413 O405 1.252 . S
O414 In403 2.294 . S
O414 C407 1.240 . S
O415 In403 2.326 . S
O415 C407 1.252 . S
In416 O417 2.294 . S
In416 O418 2.326 . S
In416 O422 2.266 . S
In416 O423 2.326 . S
In416 O424 2.266 . S
In416 O425 2.326 . S
In416 O427 2.294 . S
In416 O428 2.326 . S
O417 In416 2.294 . S
O417 C426 1.240 . S
O418 In416 2.326 . S
O418 C426 1.252 . S
C419 O422 1.252 . S
C419 O423 1.260 . S
C420 O427 1.240 . S
C420 O428 1.252 . S
C421 O424 1.252 . S
C421 O425 1.260 . S
O422 In416 2.266 . S
O422 C419 1.252 . S
O423 In416 2.326 . S
O423 C419 1.260 . S
O424 In416 2.266 . S
O424 C421 1.252 . S
O425 In416 2.326 . S
O425 C421 1.260 . S
C426 O417 1.240 . S
C426 O418 1.252 . S
O427 In416 2.294 . S
O427 C420 1.240 . S
O428 In416 2.326 . S
O428 C420 1.252 . S
In429 O430 2.294 . S
In429 O431 2.326 . S
In429 O435 2.266 . S
In429 O436 2.326 . S
In429 O437 2.266 . S
In429 O438 2.326 . S
In429 O440 2.294 . S
In429 O441 2.326 . S
O430 In429 2.294 . S
O430 C439 1.240 . S
O431 In429 2.326 . S
O431 C439 1.252 . S
C432 O435 1.252 . S
C432 O436 1.260 . S
C433 O440 1.240 . S
C433 O441 1.252 . S
C434 O437 1.252 . S
C434 O438 1.260 . S
O435 In429 2.266 . S
O435 C432 1.252 . S
O436 In429 2.326 . S
O436 C432 1.260 . S
O437 In429 2.266 . S
O437 C434 1.252 . S
O438 In429 2.326 . S
O438 C434 1.260 . S
C439 O430 1.240 . S
C439 O431 1.252 . S
O440 In429 2.294 . S
O440 C433 1.240 . S
O441 In429 2.326 . S
O441 C433 1.252 . S
In442 O443 2.294 . S
In442 O444 2.326 . S
In442 O448 2.266 . S
In442 O449 2.326 . S
In442 O450 2.266 . S
In442 O451 2.326 . S
In442 O453 2.294 . S
In442 O454 2.326 . S
O443 In442 2.294 . S
O443 C452 1.240 . S
O444 In442 2.326 . S
O444 C452 1.252 . S
C445 O448 1.252 . S
C445 O449 1.260 . S
C446 O453 1.240 . S
C446 O454 1.252 . S
C447 O450 1.252 . S
C447 O451 1.260 . S
O448 In442 2.266 . S
O448 C445 1.252 . S
O449 In442 2.326 . S
O449 C445 1.260 . S
O450 In442 2.266 . S
O450 C447 1.252 . S
O451 In442 2.326 . S
O451 C447 1.260 . S
C452 O443 1.240 . S
C452 O444 1.252 . S
O453 In442 2.294 . S
O453 C446 1.240 . S
O454 In442 2.326 . S
O454 C446 1.252 . S
In455 O456 2.294 . S
In455 O457 2.326 . S
In455 O461 2.266 . S
In455 O462 2.326 . S
In455 O463 2.266 . S
In455 O464 2.326 . S
In455 O466 2.294 . S
In455 O467 2.326 . S
O456 In455 2.294 . S
O456 C465 1.240 . S
O457 In455 2.326 . S
O457 C465 1.252 . S
C458 O461 1.252 . S
C458 O462 1.260 . S
C459 O466 1.240 . S
C459 O467 1.252 . S
C460 O463 1.252 . S
C460 O464 1.260 . S
O461 In455 2.266 . S
O461 C458 1.252 . S
O462 In455 2.326 . S
O462 C458 1.260 . S
O463 In455 2.266 . S
O463 C460 1.252 . S
O464 In455 2.326 . S
O464 C460 1.260 . S
C465 O456 1.240 . S
C465 O457 1.252 . S
O466 In455 2.294 . S
O466 C459 1.240 . S
O467 In455 2.326 . S
O467 C459 1.252 . S
In468 O469 2.294 . S
In468 O470 2.326 . S
In468 O474 2.266 . S
In468 O475 2.326 . S
In468 O476 2.266 . S
In468 O477 2.326 . S
In468 O479 2.294 . S
In468 O480 2.326 . S
O469 In468 2.294 . S
O469 C478 1.240 . S
O470 In468 2.326 . S
O470 C478 1.252 . S
C471 O474 1.252 . S
C471 O475 1.260 . S
C472 O479 1.240 . S
C472 O480 1.252 . S
C473 O476 1.252 . S
C473 O477 1.260 . S
O474 In468 2.266 . S
O474 C471 1.252 . S
O475 In468 2.326 . S
O475 C471 1.260 . S
O476 In468 2.266 . S
O476 C473 1.252 . S
O477 In468 2.326 . S
O477 C473 1.260 . S
C478 O469 1.240 . S
C478 O470 1.252 . S
O479 In468 2.294 . S
O479 C472 1.240 . S
O480 In468 2.326 . S
O480 C472 1.252 . S
In481 O482 2.294 . S
In481 O483 2.326 . S
In481 O487 2.266 . S
In481 O488 2.326 . S
In481 O489 2.266 . S
In481 O490 2.326 . S
In481 O492 2.294 . S
In481 O493 2.326 . S
O482 In481 2.294 . S
O482 C491 1.240 . S
O483 In481 2.326 . S
O483 C491 1.252 . S
C484 O487 1.252 . S
C484 O488 1.260 . S
C485 O492 1.240 . S
C485 O493 1.252 . S
C486 O489 1.252 . S
C486 O490 1.260 . S
O487 In481 2.266 . S
O487 C484 1.252 . S
O488 In481 2.326 . S
O488 C484 1.260 . S
O489 In481 2.266 . S
O489 C486 1.252 . S
O490 In481 2.326 . S
O490 C486 1.260 . S
C491 O482 1.240 . S
C491 O483 1.252 . S
O492 In481 2.294 . S
O492 C485 1.240 . S
O493 In481 2.326 . S
O493 C485 1.252 . S
In494 O495 2.294 . S
In494 O496 2.326 . S
In494 O500 2.266 . S
In494 O501 2.326 . S
In494 O502 2.266 . S
In494 O503 2.326 . S
In494 O505 2.294 . S
In494 O506 2.326 . S
O495 In494 2.294 . S
O495 C504 1.240 . S
O496 In494 2.326 . S
O496 C504 1.252 . S
C497 O500 1.252 . S
C497 O501 1.260 . S
C498 O505 1.240 . S
C498 O506 1.252 . S
C499 O502 1.252 . S
C499 O503 1.260 . S
O500 In494 2.266 . S
O500 C497 1.252 . S
O501 In494 2.326 . S
O501 C497 1.260 . S
O502 In494 2.266 . S
O502 C499 1.252 . S
O503 In494 2.326 . S
O503 C499 1.260 . S
C504 O495 1.240 . S
C504 O496 1.252 . S
O505 In494 2.294 . S
O505 C498 1.240 . S
O506 In494 2.326 . S
O506 C498 1.252 . S
In507 O508 2.294 . S
In507 O509 2.326 . S
In507 O513 2.266 . S
In507 O514 2.326 . S
In507 O515 2.266 . S
In507 O516 2.326 . S
In507 O518 2.294 . S
In507 O519 2.326 . S
O508 In507 2.294 . S
O508 C517 1.240 . S
O509 In507 2.326 . S
O509 C517 1.252 . S
C510 O513 1.252 . S
C510 O514 1.260 . S
C511 O518 1.240 . S
C511 O519 1.252 . S
C512 O515 1.252 . S
C512 O516 1.260 . S
O513 In507 2.266 . S
O513 C510 1.252 . S
O514 In507 2.326 . S
O514 C510 1.260 . S
O515 In507 2.266 . S
O515 C512 1.252 . S
O516 In507 2.326 . S
O516 C512 1.260 . S
C517 O508 1.240 . S
C517 O509 1.252 . S
O518 In507 2.294 . S
O518 C511 1.240 . S
O519 In507 2.326 . S
O519 C511 1.252 . S
In520 O521 2.294 . S
In520 O522 2.326 . S
In520 O526 2.266 . S
In520 O527 2.326 . S
In520 O528 2.266 . S
In520 O529 2.326 . S
In520 O531 2.294 . S
In520 O532 2.326 . S
O521 In520 2.294 . S
O521 C530 1.240 . S
O522 In520 2.326 . S
O522 C530 1.252 . S
C523 O526 1.252 . S
C523 O527 1.260 . S
C524 O531 1.240 . S
C524 O532 1.252 . S
C525 O528 1.252 . S
C525 O529 1.260 . S
O526 In520 2.266 . S
O526 C523 1.252 . S
O527 In520 2.326 . S
O527 C523 1.260 . S
O528 In520 2.266 . S
O528 C525 1.252 . S
O529 In520 2.326 . S
O529 C525 1.260 . S
C530 O521 1.240 . S
C530 O522 1.252 . S
O531 In520 2.294 . S
O531 C524 1.240 . S
O532 In520 2.326 . S
O532 C524 1.252 . S
In533 O534 2.294 . S
In533 O535 2.326 . S
In533 O539 2.266 . S
In533 O540 2.326 . S
In533 O541 2.266 . S
In533 O542 2.326 . S
In533 O544 2.294 . S
In533 O545 2.326 . S
O534 In533 2.294 . S
O534 C543 1.240 . S
O535 In533 2.326 . S
O535 C543 1.252 . S
C536 O539 1.252 . S
C536 O540 1.260 . S
C537 O544 1.240 . S
C537 O545 1.252 . S
C538 O541 1.252 . S
C538 O542 1.260 . S
O539 In533 2.266 . S
O539 C536 1.252 . S
O540 In533 2.326 . S
O540 C536 1.260 . S
O541 In533 2.266 . S
O541 C538 1.252 . S
O542 In533 2.326 . S
O542 C538 1.260 . S
C543 O534 1.240 . S
C543 O535 1.252 . S
O544 In533 2.294 . S
O544 C537 1.240 . S
O545 In533 2.326 . S
O545 C537 1.252 . S
In546 O547 2.294 . S
In546 O548 2.326 . S
In546 O552 2.266 . S
In546 O553 2.326 . S
In546 O554 2.266 . S
In546 O555 2.326 . S
In546 O557 2.294 . S
In546 O558 2.326 . S
O547 In546 2.294 . S
O547 C556 1.240 . S
O548 In546 2.326 . S
O548 C556 1.252 . S
C549 O552 1.252 . S
C549 O553 1.260 . S
C550 O557 1.240 . S
C550 O558 1.252 . S
C551 O554 1.252 . S
C551 O555 1.260 . S
O552 In546 2.266 . S
O552 C549 1.252 . S
O553 In546 2.326 . S
O553 C549 1.260 . S
O554 In546 2.266 . S
O554 C551 1.252 . S
O555 In546 2.326 . S
O555 C551 1.260 . S
C556 O547 1.240 . S
C556 O548 1.252 . S
O557 In546 2.294 . S
O557 C550 1.240 . S
O558 In546 2.326 . S
O558 C550 1.252 . S
In559 O560 2.294 . S
In559 O561 2.326 . S
In559 O565 2.266 . S
In559 O566 2.326 . S
In559 O567 2.266 . S
In559 O568 2.326 . S
In559 O570 2.294 . S
In559 O571 2.326 . S
O560 In559 2.294 . S
O560 C569 1.240 . S
O561 In559 2.326 . S
O561 C569 1.252 . S
C562 O565 1.252 . S
C562 O566 1.260 . S
C563 O570 1.240 . S
C563 O571 1.252 . S
C564 O567 1.252 . S
C564 O568 1.260 . S
O565 In559 2.266 . S
O565 C562 1.252 . S
O566 In559 2.326 . S
O566 C562 1.260 . S
O567 In559 2.266 . S
O567 C564 1.252 . S
O568 In559 2.326 . S
O568 C564 1.260 . S
C569 O560 1.240 . S
C569 O561 1.252 . S
O570 In559 2.294 . S
O570 C563 1.240 . S
O571 In559 2.326 . S
O571 C563 1.252 . S
In572 O573 2.294 . S
In572 O574 2.326 . S
In572 O578 2.266 . S
In572 O579 2.326 . S
In572 O580 2.266 . S
In572 O581 2.326 . S
In572 O583 2.294 . S
In572 O584 2.326 . S
O573 In572 2.294 . S
O573 C582 1.240 . S
O574 In572 2.326 . S
O574 C582 1.252 . S
C575 O578 1.252 . S
C575 O579 1.260 . S
C576 O583 1.240 . S
C576 O584 1.252 . S
C577 O580 1.252 . S
C577 O581 1.260 . S
O578 In572 2.266 . S
O578 C575 1.252 . S
O579 In572 2.326 . S
O579 C575 1.260 . S
O580 In572 2.266 . S
O580 C577 1.252 . S
O581 In572 2.326 . S
O581 C577 1.260 . S
C582 O573 1.240 . S
C582 O574 1.252 . S
O583 In572 2.294 . S
O583 C576 1.240 . S
O584 In572 2.326 . S
O584 C576 1.252 . S
In585 O586 2.294 . S
In585 O587 2.326 . S
In585 O591 2.266 . S
In585 O592 2.326 . S
In585 O593 2.266 . S
In585 O594 2.326 . S
In585 O596 2.294 . S
In585 O597 2.326 . S
O586 In585 2.294 . S
O586 C595 1.240 . S
O587 In585 2.326 . S
O587 C595 1.252 . S
C588 O591 1.252 . S
C588 O592 1.260 . S
C589 O596 1.240 . S
C589 O597 1.252 . S
C590 O593 1.252 . S
C590 O594 1.260 . S
O591 In585 2.266 . S
O591 C588 1.252 . S
O592 In585 2.326 . S
O592 C588 1.260 . S
O593 In585 2.266 . S
O593 C590 1.252 . S
O594 In585 2.326 . S
O594 C590 1.260 . S
C595 O586 1.240 . S
C595 O587 1.252 . S
O596 In585 2.294 . S
O596 C589 1.240 . S
O597 In585 2.326 . S
O597 C589 1.252 . S
In598 O599 2.294 . S
In598 O600 2.326 . S
In598 O604 2.266 . S
In598 O605 2.326 . S
In598 O606 2.266 . S
In598 O607 2.326 . S
In598 O609 2.294 . S
In598 O610 2.326 . S
O599 In598 2.294 . S
O599 C608 1.240 . S
O600 In598 2.326 . S
O600 C608 1.252 . S
C601 O604 1.252 . S
C601 O605 1.260 . S
C602 O609 1.240 . S
C602 O610 1.252 . S
C603 O606 1.252 . S
C603 O607 1.260 . S
O604 In598 2.266 . S
O604 C601 1.252 . S
O605 In598 2.326 . S
O605 C601 1.260 . S
O606 In598 2.266 . S
O606 C603 1.252 . S
O607 In598 2.326 . S
O607 C603 1.260 . S
C608 O599 1.240 . S
C608 O600 1.252 . S
O609 In598 2.294 . S
O609 C602 1.240 . S
O610 In598 2.326 . S
O610 C602 1.252 . S
In611 O612 2.294 . S
In611 O613 2.326 . S
In611 O617 2.266 . S
In611 O618 2.326 . S
In611 O619 2.266 . S
In611 O620 2.326 . S
In611 O622 2.294 . S
In611 O623 2.326 . S
O612 In611 2.294 . S
O612 C621 1.240 . S
O613 In611 2.326 . S
O613 C621 1.252 . S
C614 O617 1.252 . S
C614 O618 1.260 . S
C615 O622 1.240 . S
C615 O623 1.252 . S
C616 O619 1.252 . S
C616 O620 1.260 . S
O617 In611 2.266 . S
O617 C614 1.252 . S
O618 In611 2.326 . S
O618 C614 1.260 . S
O619 In611 2.266 . S
O619 C616 1.252 . S
O620 In611 2.326 . S
O620 C616 1.260 . S
C621 O612 1.240 . S
C621 O613 1.252 . S
O622 In611 2.294 . S
O622 C615 1.240 . S
O623 In611 2.326 . S
O623 C615 1.252 . S
In624 O625 2.294 . S
In624 O626 2.326 . S
In624 O630 2.266 . S
In624 O631 2.326 . S
In624 O632 2.266 . S
In624 O633 2.326 . S
In624 O635 2.294 . S
In624 O636 2.326 . S
O625 In624 2.294 . S
O625 C634 1.240 . S
O626 In624 2.326 . S
O626 C634 1.252 . S
C627 O630 1.252 . S
C627 O631 1.260 . S
C628 O635 1.240 . S
C628 O636 1.252 . S
C629 O632 1.252 . S
C629 O633 1.260 . S
O630 In624 2.266 . S
O630 C627 1.252 . S
O631 In624 2.326 . S
O631 C627 1.260 . S
O632 In624 2.266 . S
O632 C629 1.252 . S
O633 In624 2.326 . S
O633 C629 1.260 . S
C634 O625 1.240 . S
C634 O626 1.252 . S
O635 In624 2.294 . S
O635 C628 1.240 . S
O636 In624 2.326 . S
O636 C628 1.252 . S
In637 O638 2.294 . S
In637 O639 2.326 . S
In637 O643 2.266 . S
In637 O644 2.326 . S
In637 O645 2.266 . S
In637 O646 2.326 . S
In637 O648 2.294 . S
In637 O649 2.326 . S
O638 In637 2.294 . S
O638 C647 1.240 . S
O639 In637 2.326 . S
O639 C647 1.252 . S
C640 O643 1.252 . S
C640 O644 1.260 . S
C641 O648 1.240 . S
C641 O649 1.252 . S
C642 O645 1.252 . S
C642 O646 1.260 . S
O643 In637 2.266 . S
O643 C640 1.252 . S
O644 In637 2.326 . S
O644 C640 1.260 . S
O645 In637 2.266 . S
O645 C642 1.252 . S
O646 In637 2.326 . S
O646 C642 1.260 . S
C647 O638 1.240 . S
C647 O639 1.252 . S
O648 In637 2.294 . S
O648 C641 1.240 . S
O649 In637 2.326 . S
O649 C641 1.252 . S
In650 O651 2.294 . S
In650 O652 2.326 . S
In650 O656 2.266 . S
In650 O657 2.326 . S
In650 O658 2.266 . S
In650 O659 2.326 . S
In650 O661 2.294 . S
In650 O662 2.326 . S
O651 In650 2.294 . S
O651 C660 1.240 . S
O652 In650 2.326 . S
O652 C660 1.252 . S
C653 O656 1.252 . S
C653 O657 1.260 . S
C654 O661 1.240 . S
C654 O662 1.252 . S
C655 O658 1.252 . S
C655 O659 1.260 . S
O656 In650 2.266 . S
O656 C653 1.252 . S
O657 In650 2.326 . S
O657 C653 1.260 . S
O658 In650 2.266 . S
O658 C655 1.252 . S
O659 In650 2.326 . S
O659 C655 1.260 . S
C660 O651 1.240 . S
C660 O652 1.252 . S
O661 In650 2.294 . S
O661 C654 1.240 . S
O662 In650 2.326 . S
O662 C654 1.252 . S
In663 O664 2.294 . S
In663 O665 2.326 . S
In663 O669 2.266 . S
In663 O670 2.326 . S
In663 O671 2.266 . S
In663 O672 2.326 . S
In663 O674 2.294 . S
In663 O675 2.326 . S
O664 In663 2.294 . S
O664 C673 1.240 . S
O665 In663 2.326 . S
O665 C673 1.252 . S
C666 O669 1.252 . S
C666 O670 1.260 . S
C667 O674 1.240 . S
C667 O675 1.252 . S
C668 O671 1.252 . S
C668 O672 1.260 . S
O669 In663 2.266 . S
O669 C666 1.252 . S
O670 In663 2.326 . S
O670 C666 1.260 . S
O671 In663 2.266 . S
O671 C668 1.252 . S
O672 In663 2.326 . S
O672 C668 1.260 . S
C673 O664 1.240 . S
C673 O665 1.252 . S
O674 In663 2.294 . S
O674 C667 1.240 . S
O675 In663 2.326 . S
O675 C667 1.252 . S
In676 O677 2.294 . S
In676 O678 2.326 . S
In676 O682 2.266 . S
In676 O683 2.326 . S
In676 O684 2.266 . S
In676 O685 2.326 . S
In676 O687 2.294 . S
In676 O688 2.326 . S
O677 In676 2.294 . S
O677 C686 1.240 . S
O678 In676 2.326 . S
O678 C686 1.252 . S
C679 O682 1.252 . S
C679 O683 1.260 . S
C680 O687 1.240 . S
C680 O688 1.252 . S
C681 O684 1.252 . S
C681 O685 1.260 . S
O682 In676 2.266 . S
O682 C679 1.252 . S
O683 In676 2.326 . S
O683 C679 1.260 . S
O684 In676 2.266 . S
O684 C681 1.252 . S
O685 In676 2.326 . S
O685 C681 1.260 . S
C686 O677 1.240 . S
C686 O678 1.252 . S
O687 In676 2.294 . S
O687 C680 1.240 . S
O688 In676 2.326 . S
O688 C680 1.252 . S
In689 O690 2.294 . S
In689 O691 2.326 . S
In689 O695 2.266 . S
In689 O696 2.326 . S
In689 O697 2.266 . S
In689 O698 2.326 . S
In689 O700 2.294 . S
In689 O701 2.326 . S
O690 In689 2.294 . S
O690 C699 1.240 . S
O691 In689 2.326 . S
O691 C699 1.252 . S
C692 O695 1.252 . S
C692 O696 1.260 . S
C693 O700 1.240 . S
C693 O701 1.252 . S
C694 O697 1.252 . S
C694 O698 1.260 . S
O695 In689 2.266 . S
O695 C692 1.252 . S
O696 In689 2.326 . S
O696 C692 1.260 . S
O697 In689 2.266 . S
O697 C694 1.252 . S
O698 In689 2.326 . S
O698 C694 1.260 . S
C699 O690 1.240 . S
C699 O691 1.252 . S
O700 In689 2.294 . S
O700 C693 1.240 . S
O701 In689 2.326 . S
O701 C693 1.252 . S
In702 O703 2.294 . S
In702 O704 2.326 . S
In702 O708 2.266 . S
In702 O709 2.326 . S
In702 O710 2.266 . S
In702 O711 2.326 . S
In702 O713 2.294 . S
In702 O714 2.326 . S
O703 In702 2.294 . S
O703 C712 1.240 . S
O704 In702 2.326 . S
O704 C712 1.252 . S
C705 O708 1.252 . S
C705 O709 1.260 . S
C706 O713 1.240 . S
C706 O714 1.252 . S
C707 O710 1.252 . S
C707 O711 1.260 . S
O708 In702 2.266 . S
O708 C705 1.252 . S
O709 In702 2.326 . S
O709 C705 1.260 . S
O710 In702 2.266 . S
O710 C707 1.252 . S
O711 In702 2.326 . S
O711 C707 1.260 . S
C712 O703 1.240 . S
C712 O704 1.252 . S
O713 In702 2.294 . S
O713 C706 1.240 . S
O714 In702 2.326 . S
O714 C706 1.252 . S
In715 O716 2.294 . S
In715 O717 2.326 . S
In715 O721 2.266 . S
In715 O722 2.326 . S
In715 O723 2.266 . S
In715 O724 2.326 . S
In715 O726 2.294 . S
In715 O727 2.326 . S
O716 In715 2.294 . S
O716 C725 1.240 . S
O717 In715 2.326 . S
O717 C725 1.252 . S
C718 O721 1.252 . S
C718 O722 1.260 . S
C719 O726 1.240 . S
C719 O727 1.252 . S
C720 O723 1.252 . S
C720 O724 1.260 . S
O721 In715 2.266 . S
O721 C718 1.252 . S
O722 In715 2.326 . S
O722 C718 1.260 . S
O723 In715 2.266 . S
O723 C720 1.252 . S
O724 In715 2.326 . S
O724 C720 1.260 . S
C725 O716 1.240 . S
C725 O717 1.252 . S
O726 In715 2.294 . S
O726 C719 1.240 . S
O727 In715 2.326 . S
O727 C719 1.252 . S
In728 O729 2.294 . S
In728 O730 2.326 . S
In728 O734 2.266 . S
In728 O735 2.326 . S
In728 O736 2.266 . S
In728 O737 2.326 . S
In728 O739 2.294 . S
In728 O740 2.326 . S
O729 In728 2.294 . S
O729 C738 1.240 . S
O730 In728 2.326 . S
O730 C738 1.252 . S
C731 O734 1.252 . S
C731 O735 1.260 . S
C732 O739 1.240 . S
C732 O740 1.252 . S
C733 O736 1.252 . S
C733 O737 1.260 . S
O734 In728 2.266 . S
O734 C731 1.252 . S
O735 In728 2.326 . S
O735 C731 1.260 . S
O736 In728 2.266 . S
O736 C733 1.252 . S
O737 In728 2.326 . S
O737 C733 1.260 . S
C738 O729 1.240 . S
C738 O730 1.252 . S
O739 In728 2.294 . S
O739 C732 1.240 . S
O740 In728 2.326 . S
O740 C732 1.252 . S
In741 O742 2.294 . S
In741 O743 2.326 . S
In741 O747 2.266 . S
In741 O748 2.326 . S
In741 O749 2.266 . S
In741 O750 2.326 . S
In741 O752 2.294 . S
In741 O753 2.326 . S
O742 In741 2.294 . S
O742 C751 1.240 . S
O743 In741 2.326 . S
O743 C751 1.252 . S
C744 O747 1.252 . S
C744 O748 1.260 . S
C745 O752 1.240 . S
C745 O753 1.252 . S
C746 O749 1.252 . S
C746 O750 1.260 . S
O747 In741 2.266 . S
O747 C744 1.252 . S
O748 In741 2.326 . S
O748 C744 1.260 . S
O749 In741 2.266 . S
O749 C746 1.252 . S
O750 In741 2.326 . S
O750 C746 1.260 . S
C751 O742 1.240 . S
C751 O743 1.252 . S
O752 In741 2.294 . S
O752 C745 1.240 . S
O753 In741 2.326 . S
O753 C745 1.252 . S
In754 O755 2.294 . S
In754 O756 2.326 . S
In754 O760 2.266 . S
In754 O761 2.326 . S
In754 O762 2.266 . S
In754 O763 2.326 . S
In754 O765 2.294 . S
In754 O766 2.326 . S
O755 In754 2.294 . S
O755 C764 1.240 . S
O756 In754 2.326 . S
O756 C764 1.252 . S
C757 O760 1.252 . S
C757 O761 1.260 . S
C758 O765 1.240 . S
C758 O766 1.252 . S
C759 O762 1.252 . S
C759 O763 1.260 . S
O760 In754 2.266 . S
O760 C757 1.252 . S
O761 In754 2.326 . S
O761 C757 1.260 . S
O762 In754 2.266 . S
O762 C759 1.252 . S
O763 In754 2.326 . S
O763 C759 1.260 . S
C764 O755 1.240 . S
C764 O756 1.252 . S
O765 In754 2.294 . S
O765 C758 1.240 . S
O766 In754 2.326 . S
O766 C758 1.252 . S
In767 O768 2.294 . S
In767 O769 2.326 . S
In767 O773 2.266 . S
In767 O774 2.326 . S
In767 O775 2.266 . S
In767 O776 2.326 . S
In767 O778 2.294 . S
In767 O779 2.326 . S
O768 In767 2.294 . S
O768 C777 1.240 . S
O769 In767 2.326 . S
O769 C777 1.252 . S
C770 O773 1.252 . S
C770 O774 1.260 . S
C771 O778 1.240 . S
C771 O779 1.252 . S
C772 O775 1.252 . S
C772 O776 1.260 . S
O773 In767 2.266 . S
O773 C770 1.252 . S
O774 In767 2.326 . S
O774 C770 1.260 . S
O775 In767 2.266 . S
O775 C772 1.252 . S
O776 In767 2.326 . S
O776 C772 1.260 . S
C777 O768 1.240 . S
C777 O769 1.252 . S
O778 In767 2.294 . S
O778 C771 1.240 . S
O779 In767 2.326 . S
O779 C771 1.252 . S
In780 O781 2.294 . S
In780 O782 2.326 . S
In780 O786 2.266 . S
In780 O787 2.326 . S
In780 O788 2.266 . S
In780 O789 2.326 . S
In780 O791 2.294 . S
In780 O792 2.326 . S
O781 In780 2.294 . S
O781 C790 1.240 . S
O782 In780 2.326 . S
O782 C790 1.252 . S
C783 O786 1.252 . S
C783 O787 1.260 . S
C784 O791 1.240 . S
C784 O792 1.252 . S
C785 O788 1.252 . S
C785 O789 1.260 . S
O786 In780 2.266 . S
O786 C783 1.252 . S
O787 In780 2.326 . S
O787 C783 1.260 . S
O788 In780 2.266 . S
O788 C785 1.252 . S
O789 In780 2.326 . S
O789 C785 1.260 . S
C790 O781 1.240 . S
C790 O782 1.252 . S
O791 In780 2.294 . S
O791 C784 1.240 . S
O792 In780 2.326 . S
O792 C784 1.252 . S
In793 O794 2.294 . S
In793 O795 2.326 . S
In793 O799 2.266 . S
In793 O800 2.326 . S
In793 O801 2.266 . S
In793 O802 2.326 . S
In793 O804 2.294 . S
In793 O805 2.326 . S
O794 In793 2.294 . S
O794 C803 1.240 . S
O795 In793 2.326 . S
O795 C803 1.252 . S
C796 O799 1.252 . S
C796 O800 1.260 . S
C797 O804 1.240 . S
C797 O805 1.252 . S
C798 O801 1.252 . S
C798 O802 1.260 . S
O799 In793 2.266 . S
O799 C796 1.252 . S
O800 In793 2.326 . S
O800 C796 1.260 . S
O801 In793 2.266 . S
O801 C798 1.252 . S
O802 In793 2.326 . S
O802 C798 1.260 . S
C803 O794 1.240 . S
C803 O795 1.252 . S
O804 In793 2.294 . S
O804 C797 1.240 . S
O805 In793 2.326 . S
O805 C797 1.252 . S
In806 O807 2.294 . S
In806 O808 2.326 . S
In806 O812 2.266 . S
In806 O813 2.326 . S
In806 O814 2.266 . S
In806 O815 2.326 . S
In806 O817 2.294 . S
In806 O818 2.326 . S
O807 In806 2.294 . S
O807 C816 1.240 . S
O808 In806 2.326 . S
O808 C816 1.252 . S
C809 O812 1.252 . S
C809 O813 1.260 . S
C810 O817 1.240 . S
C810 O818 1.252 . S
C811 O814 1.252 . S
C811 O815 1.260 . S
O812 In806 2.266 . S
O812 C809 1.252 . S
O813 In806 2.326 . S
O813 C809 1.260 . S
O814 In806 2.266 . S
O814 C811 1.252 . S
O815 In806 2.326 . S
O815 C811 1.260 . S
C816 O807 1.240 . S
C816 O808 1.252 . S
O817 In806 2.294 . S
O817 C810 1.240 . S
O818 In806 2.326 . S
O818 C810 1.252 . S
In819 O820 2.294 . S
In819 O821 2.326 . S
In819 O825 2.266 . S
In819 O826 2.326 . S
In819 O827 2.266 . S
In819 O828 2.326 . S
In819 O830 2.294 . S
In819 O831 2.326 . S
O820 In819 2.294 . S
O820 C829 1.240 . S
O821 In819 2.326 . S
O821 C829 1.252 . S
C822 O825 1.252 . S
C822 O826 1.260 . S
C823 O830 1.240 . S
C823 O831 1.252 . S
C824 O827 1.252 . S
C824 O828 1.260 . S
O825 In819 2.266 . S
O825 C822 1.252 . S
O826 In819 2.326 . S
O826 C822 1.260 . S
O827 In819 2.266 . S
O827 C824 1.252 . S
O828 In819 2.326 . S
O828 C824 1.260 . S
C829 O820 1.240 . S
C829 O821 1.252 . S
O830 In819 2.294 . S
O830 C823 1.240 . S
O831 In819 2.326 . S
O831 C823 1.252 . S
In832 O833 2.294 . S
In832 O834 2.326 . S
In832 O838 2.266 . S
In832 O839 2.326 . S
In832 O840 2.266 . S
In832 O841 2.326 . S
In832 O843 2.294 . S
In832 O844 2.326 . S
O833 In832 2.294 . S
O833 C842 1.240 . S
O834 In832 2.326 . S
O834 C842 1.252 . S
C835 O838 1.252 . S
C835 O839 1.260 . S
C836 O843 1.240 . S
C836 O844 1.252 . S
C837 O840 1.252 . S
C837 O841 1.260 . S
O838 In832 2.266 . S
O838 C835 1.252 . S
O839 In832 2.326 . S
O839 C835 1.260 . S
O840 In832 2.266 . S
O840 C837 1.252 . S
O841 In832 2.326 . S
O841 C837 1.260 . S
C842 O833 1.240 . S
C842 O834 1.252 . S
O843 In832 2.294 . S
O843 C836 1.240 . S
O844 In832 2.326 . S
O844 C836 1.252 . S
In845 O846 2.294 . S
In845 O847 2.326 . S
In845 O851 2.266 . S
In845 O852 2.326 . S
In845 O853 2.266 . S
In845 O854 2.326 . S
In845 O856 2.294 . S
In845 O857 2.326 . S
O846 In845 2.294 . S
O846 C855 1.240 . S
O847 In845 2.326 . S
O847 C855 1.252 . S
C848 O851 1.252 . S
C848 O852 1.260 . S
C849 O856 1.240 . S
C849 O857 1.252 . S
C850 O853 1.252 . S
C850 O854 1.260 . S
O851 In845 2.266 . S
O851 C848 1.252 . S
O852 In845 2.326 . S
O852 C848 1.260 . S
O853 In845 2.266 . S
O853 C850 1.252 . S
O854 In845 2.326 . S
O854 C850 1.260 . S
C855 O846 1.240 . S
C855 O847 1.252 . S
O856 In845 2.294 . S
O856 C849 1.240 . S
O857 In845 2.326 . S
O857 C849 1.252 . S
In858 O859 2.294 . S
In858 O860 2.326 . S
In858 O864 2.266 . S
In858 O865 2.326 . S
In858 O866 2.266 . S
In858 O867 2.326 . S
In858 O869 2.294 . S
In858 O870 2.326 . S
O859 In858 2.294 . S
O859 C868 1.240 . S
O860 In858 2.326 . S
O860 C868 1.252 . S
C861 O864 1.252 . S
C861 O865 1.260 . S
C862 O869 1.240 . S
C862 O870 1.252 . S
C863 O866 1.252 . S
C863 O867 1.260 . S
O864 In858 2.266 . S
O864 C861 1.252 . S
O865 In858 2.326 . S
O865 C861 1.260 . S
O866 In858 2.266 . S
O866 C863 1.252 . S
O867 In858 2.326 . S
O867 C863 1.260 . S
C868 O859 1.240 . S
C868 O860 1.252 . S
O869 In858 2.294 . S
O869 C862 1.240 . S
O870 In858 2.326 . S
O870 C862 1.252 . S
In871 O872 2.294 . S
In871 O873 2.326 . S
In871 O877 2.266 . S
In871 O878 2.326 . S
In871 O879 2.266 . S
In871 O880 2.326 . S
In871 O882 2.294 . S
In871 O883 2.326 . S
O872 In871 2.294 . S
O872 C881 1.240 . S
O873 In871 2.326 . S
O873 C881 1.252 . S
C874 O877 1.252 . S
C874 O878 1.260 . S
C875 O882 1.240 . S
C875 O883 1.252 . S
C876 O879 1.252 . S
C876 O880 1.260 . S
O877 In871 2.266 . S
O877 C874 1.252 . S
O878 In871 2.326 . S
O878 C874 1.260 . S
O879 In871 2.266 . S
O879 C876 1.252 . S
O880 In871 2.326 . S
O880 C876 1.260 . S
C881 O872 1.240 . S
C881 O873 1.252 . S
O882 In871 2.294 . S
O882 C875 1.240 . S
O883 In871 2.326 . S
O883 C875 1.252 . S
In884 O885 2.294 . S
In884 O886 2.326 . S
In884 O890 2.266 . S
In884 O891 2.326 . S
In884 O892 2.266 . S
In884 O893 2.326 . S
In884 O895 2.294 . S
In884 O896 2.326 . S
O885 In884 2.294 . S
O885 C894 1.240 . S
O886 In884 2.326 . S
O886 C894 1.252 . S
C887 O890 1.252 . S
C887 O891 1.260 . S
C888 O895 1.240 . S
C888 O896 1.252 . S
C889 O892 1.252 . S
C889 O893 1.260 . S
O890 In884 2.266 . S
O890 C887 1.252 . S
O891 In884 2.326 . S
O891 C887 1.260 . S
O892 In884 2.266 . S
O892 C889 1.252 . S
O893 In884 2.326 . S
O893 C889 1.260 . S
C894 O885 1.240 . S
C894 O886 1.252 . S
O895 In884 2.294 . S
O895 C888 1.240 . S
O896 In884 2.326 . S
O896 C888 1.252 . S
In897 O898 2.294 . S
In897 O899 2.326 . S
In897 O903 2.266 . S
In897 O904 2.326 . S
In897 O905 2.266 . S
In897 O906 2.326 . S
In897 O908 2.294 . S
In897 O909 2.326 . S
O898 In897 2.294 . S
O898 C907 1.240 . S
O899 In897 2.326 . S
O899 C907 1.252 . S
C900 O903 1.252 . S
C900 O904 1.260 . S
C901 O908 1.240 . S
C901 O909 1.252 . S
C902 O905 1.252 . S
C902 O906 1.260 . S
O903 In897 2.266 . S
O903 C900 1.252 . S
O904 In897 2.326 . S
O904 C900 1.260 . S
O905 In897 2.266 . S
O905 C902 1.252 . S
O906 In897 2.326 . S
O906 C902 1.260 . S
C907 O898 1.240 . S
C907 O899 1.252 . S
O908 In897 2.294 . S
O908 C901 1.240 . S
O909 In897 2.326 . S
O909 C901 1.252 . S
In910 O911 2.294 . S
In910 O912 2.326 . S
In910 O916 2.266 . S
In910 O917 2.326 . S
In910 O918 2.266 . S
In910 O919 2.326 . S
In910 O921 2.294 . S
In910 O922 2.326 . S
O911 In910 2.294 . S
O911 C920 1.240 . S
O912 In910 2.326 . S
O912 C920 1.252 . S
C913 O916 1.252 . S
C913 O917 1.260 . S
C914 O921 1.240 . S
C914 O922 1.252 . S
C915 O918 1.252 . S
C915 O919 1.260 . S
O916 In910 2.266 . S
O916 C913 1.252 . S
O917 In910 2.326 . S
O917 C913 1.260 . S
O918 In910 2.266 . S
O918 C915 1.252 . S
O919 In910 2.326 . S
O919 C915 1.260 . S
C920 O911 1.240 . S
C920 O912 1.252 . S
O921 In910 2.294 . S
O921 C914 1.240 . S
O922 In910 2.326 . S
O922 C914 1.252 . S
In923 O924 2.294 . S
In923 O925 2.326 . S
In923 O929 2.266 . S
In923 O930 2.326 . S
In923 O931 2.266 . S
In923 O932 2.326 . S
In923 O934 2.294 . S
In923 O935 2.326 . S
O924 In923 2.294 . S
O924 C933 1.240 . S
O925 In923 2.326 . S
O925 C933 1.252 . S
C926 O929 1.252 . S
C926 O930 1.260 . S
C927 O934 1.240 . S
C927 O935 1.252 . S
C928 O931 1.252 . S
C928 O932 1.260 . S
O929 In923 2.266 . S
O929 C926 1.252 . S
O930 In923 2.326 . S
O930 C926 1.260 . S
O931 In923 2.266 . S
O931 C928 1.252 . S
O932 In923 2.326 . S
O932 C928 1.260 . S
C933 O924 1.240 . S
C933 O925 1.252 . S
O934 In923 2.294 . S
O934 C927 1.240 . S
O935 In923 2.326 . S
O935 C927 1.252 . S
In936 O937 2.294 . S
In936 O938 2.326 . S
In936 O942 2.266 . S
In936 O943 2.326 . S
In936 O944 2.266 . S
In936 O945 2.326 . S
In936 O947 2.294 . S
In936 O948 2.326 . S
O937 In936 2.294 . S
O937 C946 1.240 . S
O938 In936 2.326 . S
O938 C946 1.252 . S
C939 O942 1.252 . S
C939 O943 1.260 . S
C940 O947 1.240 . S
C940 O948 1.252 . S
C941 O944 1.252 . S
C941 O945 1.260 . S
O942 In936 2.266 . S
O942 C939 1.252 . S
O943 In936 2.326 . S
O943 C939 1.260 . S
O944 In936 2.266 . S
O944 C941 1.252 . S
O945 In936 2.326 . S
O945 C941 1.260 . S
C946 O937 1.240 . S
C946 O938 1.252 . S
O947 In936 2.294 . S
O947 C940 1.240 . S
O948 In936 2.326 . S
O948 C940 1.252 . S
In949 O950 2.294 . S
In949 O951 2.326 . S
In949 O955 2.266 . S
In949 O956 2.326 . S
In949 O957 2.266 . S
In949 O958 2.326 . S
In949 O960 2.294 . S
In949 O961 2.326 . S
O950 In949 2.294 . S
O950 C959 1.240 . S
O951 In949 2.326 . S
O951 C959 1.252 . S
C952 O955 1.252 . S
C952 O956 1.260 . S
C953 O960 1.240 . S
C953 O961 1.252 . S
C954 O957 1.252 . S
C954 O958 1.260 . S
O955 In949 2.266 . S
O955 C952 1.252 . S
O956 In949 2.326 . S
O956 C952 1.260 . S
O957 In949 2.266 . S
O957 C954 1.252 . S
O958 In949 2.326 . S
O958 C954 1.260 . S
C959 O950 1.240 . S
C959 O951 1.252 . S
O960 In949 2.294 . S
O960 C953 1.240 . S
O961 In949 2.326 . S
O961 C953 1.252 . S
In962 O963 2.294 . S
In962 O964 2.326 . S
In962 O968 2.266 . S
In962 O969 2.326 . S
In962 O970 2.266 . S
In962 O971 2.326 . S
In962 O973 2.294 . S
In962 O974 2.326 . S
O963 In962 2.294 . S
O963 C972 1.240 . S
O964 In962 2.326 . S
O964 C972 1.252 . S
C965 O968 1.252 . S
C965 O969 1.260 . S
C966 O973 1.240 . S
C966 O974 1.252 . S
C967 O970 1.252 . S
C967 O971 1.260 . S
O968 In962 2.266 . S
O968 C965 1.252 . S
O969 In962 2.326 . S
O969 C965 1.260 . S
O970 In962 2.266 . S
O970 C967 1.252 . S
O971 In962 2.326 . S
O971 C967 1.260 . S
C972 O963 1.240 . S
C972 O964 1.252 . S
O973 In962 2.294 . S
O973 C966 1.240 . S
O974 In962 2.326 . S
O974 C966 1.252 . S
In975 O976 2.294 . S
In975 O977 2.326 . S
In975 O981 2.266 . S
In975 O982 2.326 . S
In975 O983 2.266 . S
In975 O984 2.326 . S
In975 O986 2.294 . S
In975 O987 2.326 . S
O976 In975 2.294 . S
O976 C985 1.240 . S
O977 In975 2.326 . S
O977 C985 1.252 . S
C978 O981 1.252 . S
C978 O982 1.260 . S
C979 O986 1.240 . S
C979 O987 1.252 . S
C980 O983 1.252 . S
C980 O984 1.260 . S
O981 In975 2.266 . S
O981 C978 1.252 . S
O982 In975 2.326 . S
O982 C978 1.260 . S
O983 In975 2.266 . S
O983 C980 1.252 . S
O984 In975 2.326 . S
O984 C980 1.260 . S
C985 O976 1.240 . S
C985 O977 1.252 . S
O986 In975 2.294 . S
O986 C979 1.240 . S
O987 In975 2.326 . S
O987 C979 1.252 . S
In988 O989 2.294 . S
In988 O990 2.326 . S
In988 O994 2.266 . S
In988 O995 2.326 . S
In988 O996 2.266 . S
In988 O997 2.326 . S
In988 O999 2.294 . S
In988 O1000 2.326 . S
O989 In988 2.294 . S
O989 C998 1.240 . S
O990 In988 2.326 . S
O990 C998 1.252 . S
C991 O994 1.252 . S
C991 O995 1.260 . S
C992 O999 1.240 . S
C992 O1000 1.252 . S
C993 O996 1.252 . S
C993 O997 1.260 . S
O994 In988 2.266 . S
O994 C991 1.252 . S
O995 In988 2.326 . S
O995 C991 1.260 . S
O996 In988 2.266 . S
O996 C993 1.252 . S
O997 In988 2.326 . S
O997 C993 1.260 . S
C998 O989 1.240 . S
C998 O990 1.252 . S
O999 In988 2.294 . S
O999 C992 1.240 . S
O1000 In988 2.326 . S
O1000 C992 1.252 . S
In1001 O1002 2.294 . S
In1001 O1003 2.326 . S
In1001 O1007 2.266 . S
In1001 O1008 2.326 . S
In1001 O1009 2.266 . S
In1001 O1010 2.326 . S
In1001 O1012 2.294 . S
In1001 O1013 2.326 . S
O1002 In1001 2.294 . S
O1002 C1011 1.240 . S
O1003 In1001 2.326 . S
O1003 C1011 1.252 . S
C1004 O1007 1.252 . S
C1004 O1008 1.260 . S
C1005 O1012 1.240 . S
C1005 O1013 1.252 . S
C1006 O1009 1.252 . S
C1006 O1010 1.260 . S
O1007 In1001 2.266 . S
O1007 C1004 1.252 . S
O1008 In1001 2.326 . S
O1008 C1004 1.260 . S
O1009 In1001 2.266 . S
O1009 C1006 1.252 . S
O1010 In1001 2.326 . S
O1010 C1006 1.260 . S
C1011 O1002 1.240 . S
C1011 O1003 1.252 . S
O1012 In1001 2.294 . S
O1012 C1005 1.240 . S
O1013 In1001 2.326 . S
O1013 C1005 1.252 . S
In1014 O1015 2.294 . S
In1014 O1016 2.326 . S
In1014 O1020 2.266 . S
In1014 O1021 2.326 . S
In1014 O1022 2.266 . S
In1014 O1023 2.326 . S
In1014 O1025 2.294 . S
In1014 O1026 2.326 . S
O1015 In1014 2.294 . S
O1015 C1024 1.240 . S
O1016 In1014 2.326 . S
O1016 C1024 1.252 . S
C1017 O1020 1.252 . S
C1017 O1021 1.260 . S
C1018 O1025 1.240 . S
C1018 O1026 1.252 . S
C1019 O1022 1.252 . S
C1019 O1023 1.260 . S
O1020 In1014 2.266 . S
O1020 C1017 1.252 . S
O1021 In1014 2.326 . S
O1021 C1017 1.260 . S
O1022 In1014 2.266 . S
O1022 C1019 1.252 . S
O1023 In1014 2.326 . S
O1023 C1019 1.260 . S
C1024 O1015 1.240 . S
C1024 O1016 1.252 . S
O1025 In1014 2.294 . S
O1025 C1018 1.240 . S
O1026 In1014 2.326 . S
O1026 C1018 1.252 . S
In1027 O1028 2.294 . S
In1027 O1029 2.326 . S
In1027 O1033 2.266 . S
In1027 O1034 2.326 . S
In1027 O1035 2.266 . S
In1027 O1036 2.326 . S
In1027 O1038 2.294 . S
In1027 O1039 2.326 . S
O1028 In1027 2.294 . S
O1028 C1037 1.240 . S
O1029 In1027 2.326 . S
O1029 C1037 1.252 . S
C1030 O1033 1.252 . S
C1030 O1034 1.260 . S
C1031 O1038 1.240 . S
C1031 O1039 1.252 . S
C1032 O1035 1.252 . S
C1032 O1036 1.260 . S
O1033 In1027 2.266 . S
O1033 C1030 1.252 . S
O1034 In1027 2.326 . S
O1034 C1030 1.260 . S
O1035 In1027 2.266 . S
O1035 C1032 1.252 . S
O1036 In1027 2.326 . S
O1036 C1032 1.260 . S
C1037 O1028 1.240 . S
C1037 O1029 1.252 . S
O1038 In1027 2.294 . S
O1038 C1031 1.240 . S
O1039 In1027 2.326 . S
O1039 C1031 1.252 . S
In1040 O1041 2.294 . S
In1040 O1042 2.326 . S
In1040 O1046 2.266 . S
In1040 O1047 2.326 . S
In1040 O1048 2.266 . S
In1040 O1049 2.326 . S
In1040 O1051 2.294 . S
In1040 O1052 2.326 . S
O1041 In1040 2.294 . S
O1041 C1050 1.240 . S
O1042 In1040 2.326 . S
O1042 C1050 1.252 . S
C1043 O1046 1.252 . S
C1043 O1047 1.260 . S
C1044 O1051 1.240 . S
C1044 O1052 1.252 . S
C1045 O1048 1.252 . S
C1045 O1049 1.260 . S
O1046 In1040 2.266 . S
O1046 C1043 1.252 . S
O1047 In1040 2.326 . S
O1047 C1043 1.260 . S
O1048 In1040 2.266 . S
O1048 C1045 1.252 . S
O1049 In1040 2.326 . S
O1049 C1045 1.260 . S
C1050 O1041 1.240 . S
C1050 O1042 1.252 . S
O1051 In1040 2.294 . S
O1051 C1044 1.240 . S
O1052 In1040 2.326 . S
O1052 C1044 1.252 . S
In1053 O1054 2.294 . S
In1053 O1055 2.326 . S
In1053 O1059 2.266 . S
In1053 O1060 2.326 . S
In1053 O1061 2.266 . S
In1053 O1062 2.326 . S
In1053 O1064 2.294 . S
In1053 O1065 2.326 . S
O1054 In1053 2.294 . S
O1054 C1063 1.240 . S
O1055 In1053 2.326 . S
O1055 C1063 1.252 . S
C1056 O1059 1.252 . S
C1056 O1060 1.260 . S
C1057 O1064 1.240 . S
C1057 O1065 1.252 . S
C1058 O1061 1.252 . S
C1058 O1062 1.260 . S
O1059 In1053 2.266 . S
O1059 C1056 1.252 . S
O1060 In1053 2.326 . S
O1060 C1056 1.260 . S
O1061 In1053 2.266 . S
O1061 C1058 1.252 . S
O1062 In1053 2.326 . S
O1062 C1058 1.260 . S
C1063 O1054 1.240 . S
C1063 O1055 1.252 . S
O1064 In1053 2.294 . S
O1064 C1057 1.240 . S
O1065 In1053 2.326 . S
O1065 C1057 1.252 . S
In1066 O1067 2.294 . S
In1066 O1068 2.326 . S
In1066 O1072 2.266 . S
In1066 O1073 2.326 . S
In1066 O1074 2.266 . S
In1066 O1075 2.326 . S
In1066 O1077 2.294 . S
In1066 O1078 2.326 . S
O1067 In1066 2.294 . S
O1067 C1076 1.240 . S
O1068 In1066 2.326 . S
O1068 C1076 1.252 . S
C1069 O1072 1.252 . S
C1069 O1073 1.260 . S
C1070 O1077 1.240 . S
C1070 O1078 1.252 . S
C1071 O1074 1.252 . S
C1071 O1075 1.260 . S
O1072 In1066 2.266 . S
O1072 C1069 1.252 . S
O1073 In1066 2.326 . S
O1073 C1069 1.260 . S
O1074 In1066 2.266 . S
O1074 C1071 1.252 . S
O1075 In1066 2.326 . S
O1075 C1071 1.260 . S
C1076 O1067 1.240 . S
C1076 O1068 1.252 . S
O1077 In1066 2.294 . S
O1077 C1070 1.240 . S
O1078 In1066 2.326 . S
O1078 C1070 1.252 . S
In1079 O1080 2.294 . S
In1079 O1081 2.326 . S
In1079 O1085 2.266 . S
In1079 O1086 2.326 . S
In1079 O1087 2.266 . S
In1079 O1088 2.326 . S
In1079 O1090 2.294 . S
In1079 O1091 2.326 . S
O1080 In1079 2.294 . S
O1080 C1089 1.240 . S
O1081 In1079 2.326 . S
O1081 C1089 1.252 . S
C1082 O1085 1.252 . S
C1082 O1086 1.260 . S
C1083 O1090 1.240 . S
C1083 O1091 1.252 . S
C1084 O1087 1.252 . S
C1084 O1088 1.260 . S
O1085 In1079 2.266 . S
O1085 C1082 1.252 . S
O1086 In1079 2.326 . S
O1086 C1082 1.260 . S
O1087 In1079 2.266 . S
O1087 C1084 1.252 . S
O1088 In1079 2.326 . S
O1088 C1084 1.260 . S
C1089 O1080 1.240 . S
C1089 O1081 1.252 . S
O1090 In1079 2.294 . S
O1090 C1083 1.240 . S
O1091 In1079 2.326 . S
O1091 C1083 1.252 . S
In1092 O1093 2.294 . S
In1092 O1094 2.326 . S
In1092 O1098 2.266 . S
In1092 O1099 2.326 . S
In1092 O1100 2.266 . S
In1092 O1101 2.326 . S
In1092 O1103 2.294 . S
In1092 O1104 2.326 . S
O1093 In1092 2.294 . S
O1093 C1102 1.240 . S
O1094 In1092 2.326 . S
O1094 C1102 1.252 . S
C1095 O1098 1.252 . S
C1095 O1099 1.260 . S
C1096 O1103 1.240 . S
C1096 O1104 1.252 . S
C1097 O1100 1.252 . S
C1097 O1101 1.260 . S
O1098 In1092 2.266 . S
O1098 C1095 1.252 . S
O1099 In1092 2.326 . S
O1099 C1095 1.260 . S
O1100 In1092 2.266 . S
O1100 C1097 1.252 . S
O1101 In1092 2.326 . S
O1101 C1097 1.260 . S
C1102 O1093 1.240 . S
C1102 O1094 1.252 . S
O1103 In1092 2.294 . S
O1103 C1096 1.240 . S
O1104 In1092 2.326 . S
O1104 C1096 1.252 . S
In1105 O1106 2.294 . S
In1105 O1107 2.326 . S
In1105 O1111 2.266 . S
In1105 O1112 2.326 . S
In1105 O1113 2.266 . S
In1105 O1114 2.326 . S
In1105 O1116 2.294 . S
In1105 O1117 2.326 . S
O1106 In1105 2.294 . S
O1106 C1115 1.240 . S
O1107 In1105 2.326 . S
O1107 C1115 1.252 . S
C1108 O1111 1.252 . S
C1108 O1112 1.260 . S
C1109 O1116 1.240 . S
C1109 O1117 1.252 . S
C1110 O1113 1.252 . S
C1110 O1114 1.260 . S
O1111 In1105 2.266 . S
O1111 C1108 1.252 . S
O1112 In1105 2.326 . S
O1112 C1108 1.260 . S
O1113 In1105 2.266 . S
O1113 C1110 1.252 . S
O1114 In1105 2.326 . S
O1114 C1110 1.260 . S
C1115 O1106 1.240 . S
C1115 O1107 1.252 . S
O1116 In1105 2.294 . S
O1116 C1109 1.240 . S
O1117 In1105 2.326 . S
O1117 C1109 1.252 . S
In1118 O1119 2.294 . S
In1118 O1120 2.326 . S
In1118 O1124 2.266 . S
In1118 O1125 2.326 . S
In1118 O1126 2.266 . S
In1118 O1127 2.326 . S
In1118 O1129 2.294 . S
In1118 O1130 2.326 . S
O1119 In1118 2.294 . S
O1119 C1128 1.240 . S
O1120 In1118 2.326 . S
O1120 C1128 1.252 . S
C1121 O1124 1.252 . S
C1121 O1125 1.260 . S
C1122 O1129 1.240 . S
C1122 O1130 1.252 . S
C1123 O1126 1.252 . S
C1123 O1127 1.260 . S
O1124 In1118 2.266 . S
O1124 C1121 1.252 . S
O1125 In1118 2.326 . S
O1125 C1121 1.260 . S
O1126 In1118 2.266 . S
O1126 C1123 1.252 . S
O1127 In1118 2.326 . S
O1127 C1123 1.260 . S
C1128 O1119 1.240 . S
C1128 O1120 1.252 . S
O1129 In1118 2.294 . S
O1129 C1122 1.240 . S
O1130 In1118 2.326 . S
O1130 C1122 1.252 . S
In1131 O1132 2.294 . S
In1131 O1133 2.326 . S
In1131 O1137 2.266 . S
In1131 O1138 2.326 . S
In1131 O1139 2.266 . S
In1131 O1140 2.326 . S
In1131 O1142 2.294 . S
In1131 O1143 2.326 . S
O1132 In1131 2.294 . S
O1132 C1141 1.240 . S
O1133 In1131 2.326 . S
O1133 C1141 1.252 . S
C1134 O1137 1.252 . S
C1134 O1138 1.260 . S
C1135 O1142 1.240 . S
C1135 O1143 1.252 . S
C1136 O1139 1.252 . S
C1136 O1140 1.260 . S
O1137 In1131 2.266 . S
O1137 C1134 1.252 . S
O1138 In1131 2.326 . S
O1138 C1134 1.260 . S
O1139 In1131 2.266 . S
O1139 C1136 1.252 . S
O1140 In1131 2.326 . S
O1140 C1136 1.260 . S
C1141 O1132 1.240 . S
C1141 O1133 1.252 . S
O1142 In1131 2.294 . S
O1142 C1135 1.240 . S
O1143 In1131 2.326 . S
O1143 C1135 1.252 . S
In1144 O1145 2.294 . S
In1144 O1146 2.326 . S
In1144 O1150 2.266 . S
In1144 O1151 2.326 . S
In1144 O1152 2.266 . S
In1144 O1153 2.326 . S
In1144 O1155 2.294 . S
In1144 O1156 2.326 . S
O1145 In1144 2.294 . S
O1145 C1154 1.240 . S
O1146 In1144 2.326 . S
O1146 C1154 1.252 . S
C1147 O1150 1.252 . S
C1147 O1151 1.260 . S
C1148 O1155 1.240 . S
C1148 O1156 1.252 . S
C1149 O1152 1.252 . S
C1149 O1153 1.260 . S
O1150 In1144 2.266 . S
O1150 C1147 1.252 . S
O1151 In1144 2.326 . S
O1151 C1147 1.260 . S
O1152 In1144 2.266 . S
O1152 C1149 1.252 . S
O1153 In1144 2.326 . S
O1153 C1149 1.260 . S
C1154 O1145 1.240 . S
C1154 O1146 1.252 . S
O1155 In1144 2.294 . S
O1155 C1148 1.240 . S
O1156 In1144 2.326 . S
O1156 C1148 1.252 . S
In1157 O1158 2.294 . S
In1157 O1159 2.326 . S
In1157 O1163 2.266 . S
In1157 O1164 2.326 . S
In1157 O1165 2.266 . S
In1157 O1166 2.326 . S
In1157 O1168 2.294 . S
In1157 O1169 2.326 . S
O1158 In1157 2.294 . S
O1158 C1167 1.240 . S
O1159 In1157 2.326 . S
O1159 C1167 1.252 . S
C1160 O1163 1.252 . S
C1160 O1164 1.260 . S
C1161 O1168 1.240 . S
C1161 O1169 1.252 . S
C1162 O1165 1.252 . S
C1162 O1166 1.260 . S
O1163 In1157 2.266 . S
O1163 C1160 1.252 . S
O1164 In1157 2.326 . S
O1164 C1160 1.260 . S
O1165 In1157 2.266 . S
O1165 C1162 1.252 . S
O1166 In1157 2.326 . S
O1166 C1162 1.260 . S
C1167 O1158 1.240 . S
C1167 O1159 1.252 . S
O1168 In1157 2.294 . S
O1168 C1161 1.240 . S
O1169 In1157 2.326 . S
O1169 C1161 1.252 . S
In1170 O1171 2.294 . S
In1170 O1172 2.326 . S
In1170 O1176 2.266 . S
In1170 O1177 2.326 . S
In1170 O1178 2.266 . S
In1170 O1179 2.326 . S
In1170 O1181 2.294 . S
In1170 O1182 2.326 . S
O1171 In1170 2.294 . S
O1171 C1180 1.240 . S
O1172 In1170 2.326 . S
O1172 C1180 1.252 . S
C1173 O1176 1.252 . S
C1173 O1177 1.260 . S
C1174 O1181 1.240 . S
C1174 O1182 1.252 . S
C1175 O1178 1.252 . S
C1175 O1179 1.260 . S
O1176 In1170 2.266 . S
O1176 C1173 1.252 . S
O1177 In1170 2.326 . S
O1177 C1173 1.260 . S
O1178 In1170 2.266 . S
O1178 C1175 1.252 . S
O1179 In1170 2.326 . S
O1179 C1175 1.260 . S
C1180 O1171 1.240 . S
C1180 O1172 1.252 . S
O1181 In1170 2.294 . S
O1181 C1174 1.240 . S
O1182 In1170 2.326 . S
O1182 C1174 1.252 . S
In1183 O1184 2.294 . S
In1183 O1185 2.326 . S
In1183 O1189 2.266 . S
In1183 O1190 2.326 . S
In1183 O1191 2.266 . S
In1183 O1192 2.326 . S
In1183 O1194 2.294 . S
In1183 O1195 2.326 . S
O1184 In1183 2.294 . S
O1184 C1193 1.240 . S
O1185 In1183 2.326 . S
O1185 C1193 1.252 . S
C1186 O1189 1.252 . S
C1186 O1190 1.260 . S
C1187 O1194 1.240 . S
C1187 O1195 1.252 . S
C1188 O1191 1.252 . S
C1188 O1192 1.260 . S
O1189 In1183 2.266 . S
O1189 C1186 1.252 . S
O1190 In1183 2.326 . S
O1190 C1186 1.260 . S
O1191 In1183 2.266 . S
O1191 C1188 1.252 . S
O1192 In1183 2.326 . S
O1192 C1188 1.260 . S
C1193 O1184 1.240 . S
C1193 O1185 1.252 . S
O1194 In1183 2.294 . S
O1194 C1187 1.240 . S
O1195 In1183 2.326 . S
O1195 C1187 1.252 . S
In1196 O1197 2.294 . S
In1196 O1198 2.326 . S
In1196 O1202 2.266 . S
In1196 O1203 2.326 . S
In1196 O1204 2.266 . S
In1196 O1205 2.326 . S
In1196 O1207 2.294 . S
In1196 O1208 2.326 . S
O1197 In1196 2.294 . S
O1197 C1206 1.240 . S
O1198 In1196 2.326 . S
O1198 C1206 1.252 . S
C1199 O1202 1.252 . S
C1199 O1203 1.260 . S
C1200 O1207 1.240 . S
C1200 O1208 1.252 . S
C1201 O1204 1.252 . S
C1201 O1205 1.260 . S
O1202 In1196 2.266 . S
O1202 C1199 1.252 . S
O1203 In1196 2.326 . S
O1203 C1199 1.260 . S
O1204 In1196 2.266 . S
O1204 C1201 1.252 . S
O1205 In1196 2.326 . S
O1205 C1201 1.260 . S
C1206 O1197 1.240 . S
C1206 O1198 1.252 . S
O1207 In1196 2.294 . S
O1207 C1200 1.240 . S
O1208 In1196 2.326 . S
O1208 C1200 1.252 . S
In1209 O1210 2.294 . S
In1209 O1211 2.326 . S
In1209 O1215 2.266 . S
In1209 O1216 2.326 . S
In1209 O1217 2.266 . S
In1209 O1218 2.326 . S
In1209 O1220 2.294 . S
In1209 O1221 2.326 . S
O1210 In1209 2.294 . S
O1210 C1219 1.240 . S
O1211 In1209 2.326 . S
O1211 C1219 1.252 . S
C1212 O1215 1.252 . S
C1212 O1216 1.260 . S
C1213 O1220 1.240 . S
C1213 O1221 1.252 . S
C1214 O1217 1.252 . S
C1214 O1218 1.260 . S
O1215 In1209 2.266 . S
O1215 C1212 1.252 . S
O1216 In1209 2.326 . S
O1216 C1212 1.260 . S
O1217 In1209 2.266 . S
O1217 C1214 1.252 . S
O1218 In1209 2.326 . S
O1218 C1214 1.260 . S
C1219 O1210 1.240 . S
C1219 O1211 1.252 . S
O1220 In1209 2.294 . S
O1220 C1213 1.240 . S
O1221 In1209 2.326 . S
O1221 C1213 1.252 . S
In1222 O1223 2.294 . S
In1222 O1224 2.326 . S
In1222 O1228 2.266 . S
In1222 O1229 2.326 . S
In1222 O1230 2.266 . S
In1222 O1231 2.326 . S
In1222 O1233 2.294 . S
In1222 O1234 2.326 . S
O1223 In1222 2.294 . S
O1223 C1232 1.240 . S
O1224 In1222 2.326 . S
O1224 C1232 1.252 . S
C1225 O1228 1.252 . S
C1225 O1229 1.260 . S
C1226 O1233 1.240 . S
C1226 O1234 1.252 . S
C1227 O1230 1.252 . S
C1227 O1231 1.260 . S
O1228 In1222 2.266 . S
O1228 C1225 1.252 . S
O1229 In1222 2.326 . S
O1229 C1225 1.260 . S
O1230 In1222 2.266 . S
O1230 C1227 1.252 . S
O1231 In1222 2.326 . S
O1231 C1227 1.260 . S
C1232 O1223 1.240 . S
C1232 O1224 1.252 . S
O1233 In1222 2.294 . S
O1233 C1226 1.240 . S
O1234 In1222 2.326 . S
O1234 C1226 1.252 . S
In1235 O1236 2.294 . S
In1235 O1237 2.326 . S
In1235 O1241 2.266 . S
In1235 O1242 2.326 . S
In1235 O1243 2.266 . S
In1235 O1244 2.326 . S
In1235 O1246 2.294 . S
In1235 O1247 2.326 . S
O1236 In1235 2.294 . S
O1236 C1245 1.240 . S
O1237 In1235 2.326 . S
O1237 C1245 1.252 . S
C1238 O1241 1.252 . S
C1238 O1242 1.260 . S
C1239 O1246 1.240 . S
C1239 O1247 1.252 . S
C1240 O1243 1.252 . S
C1240 O1244 1.260 . S
O1241 In1235 2.266 . S
O1241 C1238 1.252 . S
O1242 In1235 2.326 . S
O1242 C1238 1.260 . S
O1243 In1235 2.266 . S
O1243 C1240 1.252 . S
O1244 In1235 2.326 . S
O1244 C1240 1.260 . S
C1245 O1236 1.240 . S
C1245 O1237 1.252 . S
O1246 In1235 2.294 . S
O1246 C1239 1.240 . S
O1247 In1235 2.326 . S
O1247 C1239 1.252 . S
H1248 C1256 0.950 . S
H1249 C1261 0.950 . S
H1250 C1258 0.950 . S
H1251 C1260 0.950 . S
H1252 C1262 0.950 . S
H1253 C1264 0.950 . S
H1254 C1266 0.950 . S
H1255 C1267 0.950 . S
C1256 H1248 0.950 . S
C1256 C1257 1.386 . S
C1256 C1258 1.391 . S
C1257 C1256 1.386 . S
C1257 C1261 1.393 . S
C1258 H1250 0.950 . S
C1258 C1256 1.391 . S
C1258 C1259 1.400 . S
C1259 C1258 1.400 . S
C1259 C1260 1.398 . S
C1259 C1265 1.491 . S
C1260 H1251 0.950 . S
C1260 C1259 1.398 . S
C1260 C1261 1.391 . S
C1261 H1249 0.950 . S
C1261 C1257 1.393 . S
C1261 C1260 1.391 . S
C1262 H1252 0.950 . S
C1262 C1263 1.386 . S
C1262 C1264 1.391 . S
C1263 C1262 1.386 . S
C1263 C1267 1.393 . S
C1264 H1253 0.950 . S
C1264 C1262 1.391 . S
C1264 C1265 1.400 . S
C1265 C1259 1.491 . S
C1265 C1264 1.400 . S
C1265 C1266 1.398 . S
C1266 H1254 0.950 . S
C1266 C1265 1.398 . S
C1266 C1267 1.391 . S
C1267 H1255 0.950 . S
C1267 C1263 1.393 . S
C1267 C1266 1.391 . S
H1268 C1276 0.950 . S
H1269 C1281 0.950 . S
H1270 C1278 0.950 . S
H1271 C1280 0.950 . S
H1272 C1282 0.950 . S
H1273 C1284 0.950 . S
H1274 C1286 0.950 . S
H1275 C1287 0.950 . S
C1276 H1268 0.950 . S
C1276 C1277 1.386 . S
C1276 C1278 1.391 1_655 S
C1277 C1276 1.386 . S
C1277 C1281 1.393 1_655 S
C1278 H1270 0.950 . S
C1278 C1276 1.391 1_455 S
C1278 C1279 1.400 . S
C1279 C1278 1.400 . S
C1279 C1280 1.398 . S
C1279 C1285 1.491 . S
C1280 H1271 0.950 . S
C1280 C1279 1.398 . S
C1280 C1281 1.391 . S
C1281 H1269 0.950 . S
C1281 C1277 1.393 1_455 S
C1281 C1280 1.391 . S
C1282 H1272 0.950 . S
C1282 C1283 1.386 . S
C1282 C1284 1.391 . S
C1283 C1282 1.386 . S
C1283 C1287 1.393 . S
C1284 H1273 0.950 . S
C1284 C1282 1.391 . S
C1284 C1285 1.400 . S
C1285 C1279 1.491 . S
C1285 C1284 1.400 . S
C1285 C1286 1.398 . S
C1286 H1274 0.950 . S
C1286 C1285 1.398 . S
C1286 C1287 1.391 . S
C1287 H1275 0.950 . S
C1287 C1283 1.393 . S
C1287 C1286 1.391 . S
H1288 C1296 0.950 . S
H1289 C1301 0.950 . S
H1290 C1298 0.950 . S
H1291 C1300 0.950 . S
H1292 C1302 0.950 . S
H1293 C1304 0.950 . S
H1294 C1306 0.950 . S
H1295 C1307 0.950 . S
C1296 H1288 0.950 . S
C1296 C1297 1.386 . S
C1296 C1298 1.391 . S
C1297 C1296 1.386 . S
C1297 C1301 1.393 . S
C1298 H1290 0.950 . S
C1298 C1296 1.391 . S
C1298 C1299 1.400 . S
C1299 C1298 1.400 . S
C1299 C1300 1.398 . S
C1299 C1305 1.491 . S
C1300 H1291 0.950 . S
C1300 C1299 1.398 . S
C1300 C1301 1.391 . S
C1301 H1289 0.950 . S
C1301 C1297 1.393 . S
C1301 C1300 1.391 . S
C1302 H1292 0.950 . S
C1302 C1303 1.386 . S
C1302 C1304 1.391 . S
C1303 C1302 1.386 . S
C1303 C1307 1.393 . S
C1304 H1293 0.950 . S
C1304 C1302 1.391 . S
C1304 C1305 1.400 . S
C1305 C1299 1.491 . S
C1305 C1304 1.400 . S
C1305 C1306 1.398 . S
C1306 H1294 0.950 . S
C1306 C1305 1.398 . S
C1306 C1307 1.391 . S
C1307 H1295 0.950 . S
C1307 C1303 1.393 . S
C1307 C1306 1.391 . S
H1308 C1316 0.950 . S
H1309 C1321 0.950 . S
H1310 C1318 0.950 . S
H1311 C1320 0.950 . S
H1312 C1322 0.950 . S
H1313 C1324 0.950 . S
H1314 C1326 0.950 . S
H1315 C1327 0.950 . S
C1316 H1308 0.950 . S
C1316 C1317 1.386 . S
C1316 C1318 1.391 . S
C1317 C1316 1.386 . S
C1317 C1321 1.393 . S
C1318 H1310 0.950 . S
C1318 C1316 1.391 . S
C1318 C1319 1.400 . S
C1319 C1318 1.400 . S
C1319 C1320 1.398 . S
C1319 C1325 1.491 . S
C1320 H1311 0.950 . S
C1320 C1319 1.398 . S
C1320 C1321 1.391 . S
C1321 H1309 0.950 . S
C1321 C1317 1.393 . S
C1321 C1320 1.391 . S
C1322 H1312 0.950 . S
C1322 C1323 1.386 . S
C1322 C1324 1.391 . S
C1323 C1322 1.386 . S
C1323 C1327 1.393 . S
C1324 H1313 0.950 . S
C1324 C1322 1.391 . S
C1324 C1325 1.400 . S
C1325 C1319 1.491 . S
C1325 C1324 1.400 . S
C1325 C1326 1.398 . S
C1326 H1314 0.950 . S
C1326 C1325 1.398 . S
C1326 C1327 1.391 . S
C1327 H1315 0.950 . S
C1327 C1323 1.393 . S
C1327 C1326 1.391 . S
H1328 C1336 0.950 . S
H1329 C1341 0.950 . S
H1330 C1338 0.950 . S
H1331 C1340 0.950 . S
H1332 C1342 0.950 . S
H1333 C1344 0.950 . S
H1334 C1346 0.950 . S
H1335 C1347 0.950 . S
C1336 H1328 0.950 . S
C1336 C1337 1.386 . S
C1336 C1338 1.391 . S
C1337 C1336 1.386 . S
C1337 C1341 1.393 . S
C1338 H1330 0.950 . S
C1338 C1336 1.391 . S
C1338 C1339 1.400 . S
C1339 C1338 1.400 . S
C1339 C1340 1.398 . S
C1339 C1345 1.491 . S
C1340 H1331 0.950 . S
C1340 C1339 1.398 . S
C1340 C1341 1.391 . S
C1341 H1329 0.950 . S
C1341 C1337 1.393 . S
C1341 C1340 1.391 . S
C1342 H1332 0.950 . S
C1342 C1343 1.386 . S
C1342 C1344 1.391 . S
C1343 C1342 1.386 . S
C1343 C1347 1.393 . S
C1344 H1333 0.950 . S
C1344 C1342 1.391 . S
C1344 C1345 1.400 . S
C1345 C1339 1.491 . S
C1345 C1344 1.400 . S
C1345 C1346 1.398 . S
C1346 H1334 0.950 . S
C1346 C1345 1.398 . S
C1346 C1347 1.391 . S
C1347 H1335 0.950 . S
C1347 C1343 1.393 . S
C1347 C1346 1.391 . S
H1348 C1356 0.950 . S
H1349 C1361 0.950 . S
H1350 C1358 0.950 . S
H1351 C1360 0.950 . S
H1352 C1362 0.950 . S
H1353 C1364 0.950 . S
H1354 C1366 0.950 . S
H1355 C1367 0.950 . S
C1356 H1348 0.950 . S
C1356 C1357 1.386 . S
C1356 C1358 1.391 . S
C1357 C1356 1.386 . S
C1357 C1361 1.393 . S
C1358 H1350 0.950 . S
C1358 C1356 1.391 . S
C1358 C1359 1.400 . S
C1359 C1358 1.400 . S
C1359 C1360 1.398 . S
C1359 C1365 1.491 . S
C1360 H1351 0.950 . S
C1360 C1359 1.398 . S
C1360 C1361 1.391 . S
C1361 H1349 0.950 . S
C1361 C1357 1.393 . S
C1361 C1360 1.391 . S
C1362 H1352 0.950 . S
C1362 C1363 1.386 . S
C1362 C1364 1.391 . S
C1363 C1362 1.386 . S
C1363 C1367 1.393 . S
C1364 H1353 0.950 . S
C1364 C1362 1.391 . S
C1364 C1365 1.400 . S
C1365 C1359 1.491 . S
C1365 C1364 1.400 . S
C1365 C1366 1.398 . S
C1366 H1354 0.950 . S
C1366 C1365 1.398 . S
C1366 C1367 1.391 . S
C1367 H1355 0.950 . S
C1367 C1363 1.393 . S
C1367 C1366 1.391 . S
H1368 C1376 0.950 . S
H1369 C1381 0.950 . S
H1370 C1378 0.950 . S
H1371 C1380 0.950 . S
H1372 C1382 0.950 . S
H1373 C1384 0.950 . S
H1374 C1386 0.950 . S
H1375 C1387 0.950 . S
C1376 H1368 0.950 . S
C1376 C1377 1.386 . S
C1376 C1378 1.391 . S
C1377 C1376 1.386 . S
C1377 C1381 1.393 . S
C1378 H1370 0.950 . S
C1378 C1376 1.391 . S
C1378 C1379 1.400 . S
C1379 C1378 1.400 . S
C1379 C1380 1.398 . S
C1379 C1385 1.491 . S
C1380 H1371 0.950 . S
C1380 C1379 1.398 . S
C1380 C1381 1.391 . S
C1381 H1369 0.950 . S
C1381 C1377 1.393 . S
C1381 C1380 1.391 . S
C1382 H1372 0.950 . S
C1382 C1383 1.386 . S
C1382 C1384 1.391 . S
C1383 C1382 1.386 . S
C1383 C1387 1.393 . S
C1384 H1373 0.950 . S
C1384 C1382 1.391 . S
C1384 C1385 1.400 . S
C1385 C1379 1.491 . S
C1385 C1384 1.400 . S
C1385 C1386 1.398 . S
C1386 H1374 0.950 . S
C1386 C1385 1.398 . S
C1386 C1387 1.391 . S
C1387 H1375 0.950 . S
C1387 C1383 1.393 . S
C1387 C1386 1.391 . S
H1388 C1396 0.950 . S
H1389 C1401 0.950 . S
H1390 C1398 0.950 . S
H1391 C1400 0.950 . S
H1392 C1402 0.950 . S
H1393 C1404 0.950 . S
H1394 C1406 0.950 . S
H1395 C1407 0.932 1_655 S
C1396 H1388 0.950 . S
C1396 C1397 1.386 . S
C1396 C1398 1.391 . S
C1397 C1396 1.386 . S
C1397 C1401 1.393 . S
C1398 H1390 0.950 . S
C1398 C1396 1.391 . S
C1398 C1399 1.400 . S
C1399 C1398 1.400 . S
C1399 C1400 1.398 . S
C1399 C1405 1.491 . S
C1400 H1391 0.950 . S
C1400 C1399 1.398 . S
C1400 C1401 1.391 . S
C1401 H1389 0.950 . S
C1401 C1397 1.393 . S
C1401 C1400 1.391 . S
C1402 H1392 0.950 . S
C1402 C1403 1.386 1_455 S
C1402 C1404 1.391 . S
C1403 C1402 1.386 1_655 S
C1403 C1407 1.393 1_655 S
C1404 H1393 0.950 . S
C1404 C1402 1.391 . S
C1404 C1405 1.400 . S
C1405 C1399 1.491 . S
C1405 C1404 1.400 . S
C1405 C1406 1.398 . S
C1406 H1394 0.950 . S
C1406 C1405 1.398 . S
C1406 C1407 1.391 . S
C1407 H1395 0.932 1_455 S
C1407 C1403 1.393 1_455 S
C1407 C1406 1.391 . S
H1408 C1416 0.950 . S
H1409 C1421 0.950 . S
H1410 C1418 0.950 . S
H1411 C1420 0.950 . S
H1412 C1422 0.950 . S
H1413 C1424 0.950 . S
H1414 C1426 0.950 . S
H1415 C1427 0.950 . S
C1416 H1408 0.950 . S
C1416 C1417 1.386 . S
C1416 C1418 1.391 . S
C1417 C1416 1.386 . S
C1417 C1421 1.393 . S
C1418 H1410 0.950 . S
C1418 C1416 1.391 . S
C1418 C1419 1.400 . S
C1419 C1418 1.400 . S
C1419 C1420 1.398 . S
C1419 C1425 1.491 . S
C1420 H1411 0.950 . S
C1420 C1419 1.398 . S
C1420 C1421 1.391 . S
C1421 H1409 0.950 . S
C1421 C1417 1.393 . S
C1421 C1420 1.391 . S
C1422 H1412 0.950 . S
C1422 C1423 1.386 . S
C1422 C1424 1.391 . S
C1423 C1422 1.386 . S
C1423 C1427 1.393 . S
C1424 H1413 0.950 . S
C1424 C1422 1.391 . S
C1424 C1425 1.400 . S
C1425 C1419 1.491 . S
C1425 C1424 1.400 . S
C1425 C1426 1.398 . S
C1426 H1414 0.950 . S
C1426 C1425 1.398 . S
C1426 C1427 1.391 . S
C1427 H1415 0.950 . S
C1427 C1423 1.393 . S
C1427 C1426 1.391 . S
H1428 C1436 0.950 . S
H1429 C1441 0.950 . S
H1430 C1438 0.950 . S
H1431 C1440 0.950 . S
H1432 C1442 0.950 . S
H1433 C1444 0.950 . S
H1434 C1446 0.950 . S
H1435 C1447 0.950 . S
C1436 H1428 0.950 . S
C1436 C1437 1.386 . S
C1436 C1438 1.391 . S
C1437 C1436 1.386 . S
C1437 C1441 1.393 . S
C1438 H1430 0.950 . S
C1438 C1436 1.391 . S
C1438 C1439 1.400 . S
C1439 C1438 1.400 . S
C1439 C1440 1.398 . S
C1439 C1445 1.491 . S
C1440 H1431 0.950 . S
C1440 C1439 1.398 . S
C1440 C1441 1.391 . S
C1441 H1429 0.950 . S
C1441 C1437 1.393 . S
C1441 C1440 1.391 . S
C1442 H1432 0.950 . S
C1442 C1443 1.386 . S
C1442 C1444 1.391 . S
C1443 C1442 1.386 . S
C1443 C1447 1.393 . S
C1444 H1433 0.950 . S
C1444 C1442 1.391 . S
C1444 C1445 1.400 . S
C1445 C1439 1.491 . S
C1445 C1444 1.400 . S
C1445 C1446 1.398 . S
C1446 H1434 0.950 . S
C1446 C1445 1.398 . S
C1446 C1447 1.391 . S
C1447 H1435 0.950 . S
C1447 C1443 1.393 . S
C1447 C1446 1.391 . S
H1448 C1456 0.950 . S
H1449 C1461 0.950 . S
H1450 C1458 0.950 . S
H1451 C1460 0.950 . S
H1452 C1462 0.950 . S
H1453 C1464 0.950 . S
H1454 C1466 0.950 . S
H1455 C1467 0.950 . S
C1456 H1448 0.950 . S
C1456 C1457 1.386 . S
C1456 C1458 1.391 . S
C1457 C1456 1.386 . S
C1457 C1461 1.393 . S
C1458 H1450 0.950 . S
C1458 C1456 1.391 . S
C1458 C1459 1.400 . S
C1459 C1458 1.400 . S
C1459 C1460 1.398 . S
C1459 C1465 1.491 . S
C1460 H1451 0.950 . S
C1460 C1459 1.398 . S
C1460 C1461 1.391 . S
C1461 H1449 0.950 . S
C1461 C1457 1.393 . S
C1461 C1460 1.391 . S
C1462 H1452 0.950 . S
C1462 C1463 1.386 . S
C1462 C1464 1.391 . S
C1463 C1462 1.386 . S
C1463 C1467 1.393 . S
C1464 H1453 0.950 . S
C1464 C1462 1.391 . S
C1464 C1465 1.400 . S
C1465 C1459 1.491 . S
C1465 C1464 1.400 . S
C1465 C1466 1.398 . S
C1466 H1454 0.950 . S
C1466 C1465 1.398 . S
C1466 C1467 1.391 . S
C1467 H1455 0.950 . S
C1467 C1463 1.393 . S
C1467 C1466 1.391 . S
H1468 C1476 0.950 . S
H1469 C1481 0.950 . S
H1470 C1478 0.950 . S
H1471 C1480 0.950 . S
H1472 C1482 0.950 . S
H1473 C1484 0.950 . S
H1474 C1486 0.950 . S
H1475 C1487 0.950 . S
C1476 H1468 0.950 . S
C1476 C1477 1.386 . S
C1476 C1478 1.391 . S
C1477 C1476 1.386 . S
C1477 C1481 1.393 . S
C1478 H1470 0.950 . S
C1478 C1476 1.391 . S
C1478 C1479 1.400 . S
C1479 C1478 1.400 . S
C1479 C1480 1.398 . S
C1479 C1485 1.491 . S
C1480 H1471 0.950 . S
C1480 C1479 1.398 . S
C1480 C1481 1.391 . S
C1481 H1469 0.950 . S
C1481 C1477 1.393 . S
C1481 C1480 1.391 . S
C1482 H1472 0.950 . S
C1482 C1483 1.386 . S
C1482 C1484 1.391 1_554 S
C1483 C1482 1.386 . S
C1483 C1487 1.393 1_554 S
C1484 H1473 0.950 . S
C1484 C1482 1.391 1_556 S
C1484 C1485 1.400 . S
C1485 C1479 1.491 . S
C1485 C1484 1.400 . S
C1485 C1486 1.398 . S
C1486 H1474 0.950 . S
C1486 C1485 1.398 . S
C1486 C1487 1.391 . S
C1487 H1475 0.950 . S
C1487 C1483 1.393 1_556 S
C1487 C1486 1.391 . S
H1488 C1496 0.950 . S
H1489 C1501 0.950 . S
H1490 C1498 0.950 . S
H1491 C1500 0.950 . S
H1492 C1502 0.950 . S
H1493 C1504 0.950 . S
H1494 C1506 0.950 . S
H1495 C1507 0.950 . S
C1496 H1488 0.950 . S
C1496 C1497 1.386 . S
C1496 C1498 1.391 . S
C1497 C1496 1.386 . S
C1497 C1501 1.393 . S
C1498 H1490 0.950 . S
C1498 C1496 1.391 . S
C1498 C1499 1.400 . S
C1499 C1498 1.400 . S
C1499 C1500 1.398 . S
C1499 C1505 1.491 . S
C1500 H1491 0.950 . S
C1500 C1499 1.398 . S
C1500 C1501 1.391 . S
C1501 H1489 0.950 . S
C1501 C1497 1.393 . S
C1501 C1500 1.391 . S
C1502 H1492 0.950 . S
C1502 C1503 1.386 . S
C1502 C1504 1.391 . S
C1503 C1502 1.386 . S
C1503 C1507 1.393 . S
C1504 H1493 0.950 . S
C1504 C1502 1.391 . S
C1504 C1505 1.400 . S
C1505 C1499 1.491 . S
C1505 C1504 1.400 . S
C1505 C1506 1.398 . S
C1506 H1494 0.950 . S
C1506 C1505 1.398 . S
C1506 C1507 1.391 . S
C1507 H1495 0.950 . S
C1507 C1503 1.393 . S
C1507 C1506 1.391 . S
H1508 C1516 0.950 . S
H1509 C1521 0.950 . S
H1510 C1518 0.950 . S
H1511 C1520 0.950 . S
H1512 C1522 0.950 . S
H1513 C1524 0.950 . S
H1514 C1526 0.950 . S
H1515 C1527 0.950 . S
C1516 H1508 0.950 . S
C1516 C1517 1.386 . S
C1516 C1518 1.391 . S
C1517 C1516 1.386 . S
C1517 C1521 1.393 . S
C1518 H1510 0.950 . S
C1518 C1516 1.391 . S
C1518 C1519 1.400 . S
C1519 C1518 1.400 . S
C1519 C1520 1.398 . S
C1519 C1525 1.491 . S
C1520 H1511 0.950 . S
C1520 C1519 1.398 . S
C1520 C1521 1.391 . S
C1521 H1509 0.950 . S
C1521 C1517 1.393 . S
C1521 C1520 1.391 . S
C1522 H1512 0.950 . S
C1522 C1523 1.386 . S
C1522 C1524 1.391 . S
C1523 C1522 1.386 . S
C1523 C1527 1.393 . S
C1524 H1513 0.950 . S
C1524 C1522 1.391 . S
C1524 C1525 1.400 . S
C1525 C1519 1.491 . S
C1525 C1524 1.400 . S
C1525 C1526 1.398 . S
C1526 H1514 0.950 . S
C1526 C1525 1.398 . S
C1526 C1527 1.391 . S
C1527 H1515 0.950 . S
C1527 C1523 1.393 . S
C1527 C1526 1.391 . S
H1528 C1536 0.950 . S
H1529 C1541 0.950 . S
H1530 C1538 0.950 . S
H1531 C1540 0.950 . S
H1532 C1542 0.950 . S
H1533 C1544 0.950 . S
H1534 C1546 0.950 . S
H1535 C1547 0.950 . S
C1536 H1528 0.950 . S
C1536 C1537 1.386 . S
C1536 C1538 1.391 . S
C1537 C1536 1.386 . S
C1537 C1541 1.393 . S
C1538 H1530 0.950 . S
C1538 C1536 1.391 . S
C1538 C1539 1.400 . S
C1539 C1538 1.400 . S
C1539 C1540 1.398 . S
C1539 C1545 1.491 . S
C1540 H1531 0.950 . S
C1540 C1539 1.398 . S
C1540 C1541 1.391 . S
C1541 H1529 0.950 . S
C1541 C1537 1.393 . S
C1541 C1540 1.391 . S
C1542 H1532 0.950 . S
C1542 C1543 1.386 . S
C1542 C1544 1.391 . S
C1543 C1542 1.386 . S
C1543 C1547 1.393 . S
C1544 H1533 0.950 . S
C1544 C1542 1.391 . S
C1544 C1545 1.400 . S
C1545 C1539 1.491 . S
C1545 C1544 1.400 . S
C1545 C1546 1.398 . S
C1546 H1534 0.950 . S
C1546 C1545 1.398 . S
C1546 C1547 1.391 . S
C1547 H1535 0.950 . S
C1547 C1543 1.393 . S
C1547 C1546 1.391 . S
H1548 C1556 0.950 . S
H1549 C1561 0.950 . S
H1550 C1558 0.950 . S
H1551 C1560 0.950 . S
H1552 C1562 0.950 . S
H1553 C1564 0.950 . S
H1554 C1566 0.950 . S
H1555 C1567 0.950 1_556 S
C1556 H1548 0.950 . S
C1556 C1557 1.386 . S
C1556 C1558 1.391 . S
C1557 C1556 1.386 . S
C1557 C1561 1.393 . S
C1558 H1550 0.950 . S
C1558 C1556 1.391 . S
C1558 C1559 1.400 . S
C1559 C1558 1.400 . S
C1559 C1560 1.398 . S
C1559 C1565 1.491 . S
C1560 H1551 0.950 . S
C1560 C1559 1.398 . S
C1560 C1561 1.391 . S
C1561 H1549 0.950 . S
C1561 C1557 1.393 . S
C1561 C1560 1.391 . S
C1562 H1552 0.950 . S
C1562 C1563 1.386 1_554 S
C1562 C1564 1.391 . S
C1563 C1562 1.386 1_556 S
C1563 C1567 1.393 1_556 S
C1564 H1553 0.950 . S
C1564 C1562 1.391 . S
C1564 C1565 1.400 . S
C1565 C1559 1.491 . S
C1565 C1564 1.400 . S
C1565 C1566 1.398 . S
C1566 H1554 0.950 . S
C1566 C1565 1.398 . S
C1566 C1567 1.391 . S
C1567 H1555 0.950 1_554 S
C1567 C1563 1.393 1_554 S
C1567 C1566 1.391 . S
H1568 C1576 0.950 . S
H1569 C1581 0.950 . S
H1570 C1578 0.950 . S
H1571 C1580 0.950 . S
H1572 C1582 0.950 . S
H1573 C1584 0.950 . S
H1574 C1586 0.950 . S
H1575 C1587 0.950 . S
C1576 H1568 0.950 . S
C1576 C1577 1.386 . S
C1576 C1578 1.391 . S
C1577 C1576 1.386 . S
C1577 C1581 1.393 . S
C1578 H1570 0.950 . S
C1578 C1576 1.391 . S
C1578 C1579 1.400 . S
C1579 C1578 1.400 . S
C1579 C1580 1.398 . S
C1579 C1585 1.491 . S
C1580 H1571 0.950 . S
C1580 C1579 1.398 . S
C1580 C1581 1.391 . S
C1581 H1569 0.950 . S
C1581 C1577 1.393 . S
C1581 C1580 1.391 . S
C1582 H1572 0.950 . S
C1582 C1583 1.386 . S
C1582 C1584 1.391 . S
C1583 C1582 1.386 . S
C1583 C1587 1.393 . S
C1584 H1573 0.950 . S
C1584 C1582 1.391 . S
C1584 C1585 1.400 . S
C1585 C1579 1.491 . S
C1585 C1584 1.400 . S
C1585 C1586 1.398 . S
C1586 H1574 0.950 . S
C1586 C1585 1.398 . S
C1586 C1587 1.391 . S
C1587 H1575 0.950 . S
C1587 C1583 1.393 . S
C1587 C1586 1.391 . S
H1588 C1596 0.950 . S
H1589 C1601 0.950 . S
H1590 C1598 0.950 . S
H1591 C1600 0.950 . S
H1592 C1602 0.950 . S
H1593 C1604 0.950 . S
H1594 C1606 0.950 . S
H1595 C1607 0.950 . S
C1596 H1588 0.950 . S
C1596 C1597 1.386 . S
C1596 C1598 1.391 . S
C1597 C1596 1.386 . S
C1597 C1601 1.393 . S
C1598 H1590 0.950 . S
C1598 C1596 1.391 . S
C1598 C1599 1.400 . S
C1599 C1598 1.400 . S
C1599 C1600 1.398 . S
C1599 C1605 1.491 . S
C1600 H1591 0.950 . S
C1600 C1599 1.398 . S
C1600 C1601 1.391 . S
C1601 H1589 0.950 . S
C1601 C1597 1.393 . S
C1601 C1600 1.391 . S
C1602 H1592 0.950 . S
C1602 C1603 1.386 . S
C1602 C1604 1.391 . S
C1603 C1602 1.386 . S
C1603 C1607 1.393 . S
C1604 H1593 0.950 . S
C1604 C1602 1.391 . S
C1604 C1605 1.400 . S
C1605 C1599 1.491 . S
C1605 C1604 1.400 . S
C1605 C1606 1.398 . S
C1606 H1594 0.950 . S
C1606 C1605 1.398 . S
C1606 C1607 1.391 . S
C1607 H1595 0.950 . S
C1607 C1603 1.393 . S
C1607 C1606 1.391 . S
H1608 C1616 0.950 . S
H1609 C1621 0.950 . S
H1610 C1618 0.950 . S
H1611 C1620 0.950 . S
H1612 C1622 0.950 . S
H1613 C1624 0.950 . S
H1614 C1626 0.950 . S
H1615 C1627 0.950 . S
C1616 H1608 0.950 . S
C1616 C1617 1.386 . S
C1616 C1618 1.391 . S
C1617 C1616 1.386 . S
C1617 C1621 1.393 . S
C1618 H1610 0.950 . S
C1618 C1616 1.391 . S
C1618 C1619 1.400 . S
C1619 C1618 1.400 . S
C1619 C1620 1.398 . S
C1619 C1625 1.491 . S
C1620 H1611 0.950 . S
C1620 C1619 1.398 . S
C1620 C1621 1.391 . S
C1621 H1609 0.950 . S
C1621 C1617 1.393 . S
C1621 C1620 1.391 . S
C1622 H1612 0.950 . S
C1622 C1623 1.386 . S
C1622 C1624 1.391 . S
C1623 C1622 1.386 . S
C1623 C1627 1.393 . S
C1624 H1613 0.950 . S
C1624 C1622 1.391 . S
C1624 C1625 1.400 . S
C1625 C1619 1.491 . S
C1625 C1624 1.400 . S
C1625 C1626 1.398 . S
C1626 H1614 0.950 . S
C1626 C1625 1.398 . S
C1626 C1627 1.391 . S
C1627 H1615 0.950 . S
C1627 C1623 1.393 . S
C1627 C1626 1.391 . S
H1628 C1636 0.950 . S
H1629 C1641 0.950 . S
H1630 C1638 0.950 . S
H1631 C1640 0.950 . S
H1632 C1642 0.950 . S
H1633 C1644 0.950 . S
H1634 C1646 0.950 . S
H1635 C1647 0.950 . S
C1636 H1628 0.950 . S
C1636 C1637 1.386 . S
C1636 C1638 1.391 . S
C1637 C1636 1.386 . S
C1637 C1641 1.393 . S
C1638 H1630 0.950 . S
C1638 C1636 1.391 . S
C1638 C1639 1.400 . S
C1639 C1638 1.400 . S
C1639 C1640 1.398 . S
C1639 C1645 1.491 . S
C1640 H1631 0.950 . S
C1640 C1639 1.398 . S
C1640 C1641 1.391 . S
C1641 H1629 0.950 . S
C1641 C1637 1.393 . S
C1641 C1640 1.391 . S
C1642 H1632 0.950 . S
C1642 C1643 1.386 . S
C1642 C1644 1.391 . S
C1643 C1642 1.386 . S
C1643 C1647 1.393 . S
C1644 H1633 0.950 . S
C1644 C1642 1.391 . S
C1644 C1645 1.400 . S
C1645 C1639 1.491 . S
C1645 C1644 1.400 . S
C1645 C1646 1.398 . S
C1646 H1634 0.950 . S
C1646 C1645 1.398 . S
C1646 C1647 1.391 . S
C1647 H1635 0.950 . S
C1647 C1643 1.393 . S
C1647 C1646 1.391 . S
H1648 C1656 0.950 . S
H1649 C1661 0.950 . S
H1650 C1658 0.950 . S
H1651 C1660 0.950 . S
H1652 C1662 0.950 . S
H1653 C1664 0.950 . S
H1654 C1666 0.950 . S
H1655 C1667 0.950 . S
C1656 H1648 0.950 . S
C1656 C1657 1.386 . S
C1656 C1658 1.391 . S
C1657 C1656 1.386 . S
C1657 C1661 1.393 . S
C1658 H1650 0.950 . S
C1658 C1656 1.391 . S
C1658 C1659 1.400 . S
C1659 C1658 1.400 . S
C1659 C1660 1.398 . S
C1659 C1665 1.491 . S
C1660 H1651 0.950 . S
C1660 C1659 1.398 . S
C1660 C1661 1.391 . S
C1661 H1649 0.950 . S
C1661 C1657 1.393 . S
C1661 C1660 1.391 . S
C1662 H1652 0.950 . S
C1662 C1663 1.386 1_545 S
C1662 C1664 1.391 . S
C1663 C1662 1.386 1_565 S
C1663 C1667 1.393 . S
C1664 H1653 0.950 . S
C1664 C1662 1.391 . S
C1664 C1665 1.400 . S
C1665 C1659 1.491 . S
C1665 C1664 1.400 . S
C1665 C1666 1.398 . S
C1666 H1654 0.950 . S
C1666 C1665 1.398 . S
C1666 C1667 1.391 1_545 S
C1667 H1655 0.950 . S
C1667 C1663 1.393 . S
C1667 C1666 1.391 1_565 S
H1668 C1676 0.950 . S
H1669 C1681 0.950 . S
H1670 C1678 0.950 . S
H1671 C1680 0.950 . S
H1672 C1682 0.950 . S
H1673 C1684 0.950 . S
H1674 C1686 0.950 . S
H1675 C1687 0.950 . S
C1676 H1668 0.950 . S
C1676 C1677 1.386 . S
C1676 C1678 1.391 . S
C1677 C1676 1.386 . S
C1677 C1681 1.393 . S
C1678 H1670 0.950 . S
C1678 C1676 1.391 . S
C1678 C1679 1.400 . S
C1679 C1678 1.400 . S
C1679 C1680 1.398 . S
C1679 C1685 1.491 . S
C1680 H1671 0.950 . S
C1680 C1679 1.398 . S
C1680 C1681 1.391 . S
C1681 H1669 0.950 . S
C1681 C1677 1.393 . S
C1681 C1680 1.391 . S
C1682 H1672 0.950 . S
C1682 C1683 1.386 . S
C1682 C1684 1.391 . S
C1683 C1682 1.386 . S
C1683 C1687 1.393 . S
C1684 H1673 0.950 . S
C1684 C1682 1.391 . S
C1684 C1685 1.400 . S
C1685 C1679 1.491 . S
C1685 C1684 1.400 . S
C1685 C1686 1.398 . S
C1686 H1674 0.950 . S
C1686 C1685 1.398 . S
C1686 C1687 1.391 . S
C1687 H1675 0.950 . S
C1687 C1683 1.393 . S
C1687 C1686 1.391 . S
H1688 C1696 0.950 . S
H1689 C1701 0.950 . S
H1690 C1698 0.950 . S
H1691 C1700 0.950 . S
H1692 C1702 0.950 . S
H1693 C1704 0.950 . S
H1694 C1706 0.950 . S
H1695 C1707 0.950 . S
C1696 H1688 0.950 . S
C1696 C1697 1.386 . S
C1696 C1698 1.391 . S
C1697 C1696 1.386 . S
C1697 C1701 1.393 . S
C1698 H1690 0.950 . S
C1698 C1696 1.391 . S
C1698 C1699 1.400 . S
C1699 C1698 1.400 . S
C1699 C1700 1.398 . S
C1699 C1705 1.491 . S
C1700 H1691 0.950 . S
C1700 C1699 1.398 . S
C1700 C1701 1.391 . S
C1701 H1689 0.950 . S
C1701 C1697 1.393 . S
C1701 C1700 1.391 . S
C1702 H1692 0.950 . S
C1702 C1703 1.386 . S
C1702 C1704 1.391 . S
C1703 C1702 1.386 . S
C1703 C1707 1.393 . S
C1704 H1693 0.950 . S
C1704 C1702 1.391 . S
C1704 C1705 1.400 . S
C1705 C1699 1.491 . S
C1705 C1704 1.400 . S
C1705 C1706 1.398 . S
C1706 H1694 0.950 . S
C1706 C1705 1.398 . S
C1706 C1707 1.391 . S
C1707 H1695 0.950 . S
C1707 C1703 1.393 . S
C1707 C1706 1.391 . S
H1708 C1716 0.950 . S
H1709 C1721 0.950 . S
H1710 C1718 0.950 . S
H1711 C1720 0.950 . S
H1712 C1722 0.950 . S
H1713 C1724 0.950 . S
H1714 C1726 0.950 . S
H1715 C1727 0.950 . S
C1716 H1708 0.950 . S
C1716 C1717 1.386 . S
C1716 C1718 1.391 . S
C1717 C1716 1.386 . S
C1717 C1721 1.393 . S
C1718 H1710 0.950 . S
C1718 C1716 1.391 . S
C1718 C1719 1.400 . S
C1719 C1718 1.400 . S
C1719 C1720 1.398 . S
C1719 C1725 1.491 . S
C1720 H1711 0.950 . S
C1720 C1719 1.398 . S
C1720 C1721 1.391 . S
C1721 H1709 0.950 . S
C1721 C1717 1.393 . S
C1721 C1720 1.391 . S
C1722 H1712 0.950 . S
C1722 C1723 1.386 . S
C1722 C1724 1.391 . S
C1723 C1722 1.386 . S
C1723 C1727 1.393 . S
C1724 H1713 0.950 . S
C1724 C1722 1.391 . S
C1724 C1725 1.400 . S
C1725 C1719 1.491 . S
C1725 C1724 1.400 . S
C1725 C1726 1.398 . S
C1726 H1714 0.950 . S
C1726 C1725 1.398 . S
C1726 C1727 1.391 . S
C1727 H1715 0.950 . S
C1727 C1723 1.393 . S
C1727 C1726 1.391 . S
H1728 C1736 0.950 . S
H1729 C1741 0.950 . S
H1730 C1738 0.950 . S
H1731 C1740 0.950 . S
H1732 C1742 0.950 . S
H1733 C1744 0.950 . S
H1734 C1746 0.950 . S
H1735 C1747 0.950 . S
C1736 H1728 0.950 . S
C1736 C1737 1.386 . S
C1736 C1738 1.391 . S
C1737 C1736 1.386 . S
C1737 C1741 1.393 . S
C1738 H1730 0.950 . S
C1738 C1736 1.391 . S
C1738 C1739 1.400 . S
C1739 C1738 1.400 . S
C1739 C1740 1.398 . S
C1739 C1745 1.491 . S
C1740 H1731 0.950 . S
C1740 C1739 1.398 . S
C1740 C1741 1.391 . S
C1741 H1729 0.950 . S
C1741 C1737 1.393 . S
C1741 C1740 1.391 . S
C1742 H1732 0.950 . S
C1742 C1743 1.386 . S
C1742 C1744 1.391 . S
C1743 C1742 1.386 . S
C1743 C1747 1.393 . S
C1744 H1733 0.950 . S
C1744 C1742 1.391 . S
C1744 C1745 1.400 . S
C1745 C1739 1.491 . S
C1745 C1744 1.400 . S
C1745 C1746 1.398 . S
C1746 H1734 0.950 . S
C1746 C1745 1.398 . S
C1746 C1747 1.391 . S
C1747 H1735 0.950 . S
C1747 C1743 1.393 . S
C1747 C1746 1.391 . S
H1748 C1756 0.950 . S
H1749 C1761 0.950 . S
H1750 C1758 0.950 . S
H1751 C1760 0.950 . S
H1752 C1762 0.950 . S
H1753 C1764 0.950 . S
H1754 C1766 0.950 . S
H1755 C1767 0.950 . S
C1756 H1748 0.950 . S
C1756 C1757 1.386 1_655 S
C1756 C1758 1.391 . S
C1757 C1756 1.386 1_455 S
C1757 C1761 1.393 . S
C1758 H1750 0.950 . S
C1758 C1756 1.391 . S
C1758 C1759 1.400 . S
C1759 C1758 1.400 . S
C1759 C1760 1.398 . S
C1759 C1765 1.491 . S
C1760 H1751 0.950 . S
C1760 C1759 1.398 . S
C1760 C1761 1.391 1_655 S
C1761 H1749 0.950 . S
C1761 C1757 1.393 . S
C1761 C1760 1.391 1_455 S
C1762 H1752 0.950 . S
C1762 C1763 1.386 . S
C1762 C1764 1.391 . S
C1763 C1762 1.386 . S
C1763 C1767 1.393 . S
C1764 H1753 0.950 . S
C1764 C1762 1.391 . S
C1764 C1765 1.400 . S
C1765 C1759 1.491 . S
C1765 C1764 1.400 . S
C1765 C1766 1.398 . S
C1766 H1754 0.950 . S
C1766 C1765 1.398 . S
C1766 C1767 1.391 . S
C1767 H1755 0.950 . S
C1767 C1763 1.393 . S
C1767 C1766 1.391 . S
H1768 C1776 0.950 . S
H1769 C1781 0.950 . S
H1770 C1778 0.950 . S
H1771 C1780 0.950 . S
H1772 C1782 0.950 . S
H1773 C1784 0.950 . S
H1774 C1786 0.950 . S
H1775 C1787 0.950 . S
C1776 H1768 0.950 . S
C1776 C1777 1.386 . S
C1776 C1778 1.391 . S
C1777 C1776 1.386 . S
C1777 C1781 1.393 . S
C1778 H1770 0.950 . S
C1778 C1776 1.391 . S
C1778 C1779 1.400 . S
C1779 C1778 1.400 . S
C1779 C1780 1.398 . S
C1779 C1785 1.491 . S
C1780 H1771 0.950 . S
C1780 C1779 1.398 . S
C1780 C1781 1.391 . S
C1781 H1769 0.950 . S
C1781 C1777 1.393 . S
C1781 C1780 1.391 . S
C1782 H1772 0.950 . S
C1782 C1783 1.386 . S
C1782 C1784 1.391 . S
C1783 C1782 1.386 . S
C1783 C1787 1.393 . S
C1784 H1773 0.950 . S
C1784 C1782 1.391 . S
C1784 C1785 1.400 . S
C1785 C1779 1.491 . S
C1785 C1784 1.400 . S
C1785 C1786 1.398 . S
C1786 H1774 0.950 . S
C1786 C1785 1.398 . S
C1786 C1787 1.391 . S
C1787 H1775 0.950 . S
C1787 C1783 1.393 . S
C1787 C1786 1.391 . S
H1788 C1796 0.950 . S
H1789 C1801 0.950 . S
H1790 C1798 0.950 . S
H1791 C1800 0.950 . S
H1792 C1802 0.950 . S
H1793 C1804 0.950 . S
H1794 C1806 0.950 . S
H1795 C1807 0.950 . S
C1796 H1788 0.950 . S
C1796 C1797 1.386 . S
C1796 C1798 1.391 . S
C1797 C1796 1.386 . S
C1797 C1801 1.393 . S
C1798 H1790 0.950 . S
C1798 C1796 1.391 . S
C1798 C1799 1.400 . S
C1799 C1798 1.400 . S
C1799 C1800 1.398 . S
C1799 C1805 1.491 . S
C1800 H1791 0.950 . S
C1800 C1799 1.398 . S
C1800 C1801 1.391 . S
C1801 H1789 0.950 . S
C1801 C1797 1.393 . S
C1801 C1800 1.391 . S
C1802 H1792 0.950 . S
C1802 C1803 1.386 . S
C1802 C1804 1.391 . S
C1803 C1802 1.386 . S
C1803 C1807 1.393 . S
C1804 H1793 0.950 . S
C1804 C1802 1.391 . S
C1804 C1805 1.400 . S
C1805 C1799 1.491 . S
C1805 C1804 1.400 . S
C1805 C1806 1.398 . S
C1806 H1794 0.950 . S
C1806 C1805 1.398 . S
C1806 C1807 1.391 . S
C1807 H1795 0.950 . S
C1807 C1803 1.393 . S
C1807 C1806 1.391 . S
H1808 C1816 0.950 . S
H1809 C1821 0.950 . S
H1810 C1818 0.950 . S
H1811 C1820 0.950 . S
H1812 C1822 0.950 . S
H1813 C1824 0.950 . S
H1814 C1826 0.950 . S
H1815 C1827 0.950 . S
C1816 H1808 0.950 . S
C1816 C1817 1.386 . S
C1816 C1818 1.391 . S
C1817 C1816 1.386 . S
C1817 C1821 1.393 . S
C1818 H1810 0.950 . S
C1818 C1816 1.391 . S
C1818 C1819 1.400 . S
C1819 C1818 1.400 . S
C1819 C1820 1.398 . S
C1819 C1825 1.491 . S
C1820 H1811 0.950 . S
C1820 C1819 1.398 . S
C1820 C1821 1.391 . S
C1821 H1809 0.950 . S
C1821 C1817 1.393 . S
C1821 C1820 1.391 . S
C1822 H1812 0.950 . S
C1822 C1823 1.386 . S
C1822 C1824 1.391 . S
C1823 C1822 1.386 . S
C1823 C1827 1.393 . S
C1824 H1813 0.950 . S
C1824 C1822 1.391 . S
C1824 C1825 1.400 . S
C1825 C1819 1.491 . S
C1825 C1824 1.400 . S
C1825 C1826 1.398 . S
C1826 H1814 0.950 . S
C1826 C1825 1.398 . S
C1826 C1827 1.391 . S
C1827 H1815 0.950 . S
C1827 C1823 1.393 . S
C1827 C1826 1.391 . S
H1828 C1836 0.950 . S
H1829 C1841 0.950 . S
H1830 C1838 0.950 . S
H1831 C1840 0.950 . S
H1832 C1842 0.950 . S
H1833 C1844 0.950 . S
H1834 C1846 0.950 . S
H1835 C1847 0.950 . S
C1836 H1828 0.950 . S
C1836 C1837 1.386 . S
C1836 C1838 1.391 . S
C1837 C1836 1.386 . S
C1837 C1841 1.393 . S
C1838 H1830 0.950 . S
C1838 C1836 1.391 . S
C1838 C1839 1.400 . S
C1839 C1838 1.400 . S
C1839 C1840 1.398 . S
C1839 C1845 1.491 . S
C1840 H1831 0.950 . S
C1840 C1839 1.398 . S
C1840 C1841 1.391 . S
C1841 H1829 0.950 . S
C1841 C1837 1.393 . S
C1841 C1840 1.391 . S
C1842 H1832 0.950 . S
C1842 C1843 1.386 . S
C1842 C1844 1.391 . S
C1843 C1842 1.386 . S
C1843 C1847 1.393 . S
C1844 H1833 0.950 . S
C1844 C1842 1.391 . S
C1844 C1845 1.400 . S
C1845 C1839 1.491 . S
C1845 C1844 1.400 . S
C1845 C1846 1.398 . S
C1846 H1834 0.950 . S
C1846 C1845 1.398 . S
C1846 C1847 1.391 . S
C1847 H1835 0.950 . S
C1847 C1843 1.393 . S
C1847 C1846 1.391 . S
H1848 C1856 0.950 . S
H1849 C1861 0.950 . S
H1850 C1858 0.950 . S
H1851 C1860 0.950 . S
H1852 C1862 0.950 . S
H1853 C1864 0.950 . S
H1854 C1866 0.950 . S
H1855 C1867 0.950 . S
C1856 H1848 0.950 . S
C1856 C1857 1.386 . S
C1856 C1858 1.391 . S
C1857 C1856 1.386 . S
C1857 C1861 1.393 . S
C1858 H1850 0.950 . S
C1858 C1856 1.391 . S
C1858 C1859 1.400 . S
C1859 C1858 1.400 . S
C1859 C1860 1.398 . S
C1859 C1865 1.491 . S
C1860 H1851 0.950 . S
C1860 C1859 1.398 . S
C1860 C1861 1.391 . S
C1861 H1849 0.950 . S
C1861 C1857 1.393 . S
C1861 C1860 1.391 . S
C1862 H1852 0.950 . S
C1862 C1863 1.386 . S
C1862 C1864 1.391 . S
C1863 C1862 1.386 . S
C1863 C1867 1.393 . S
C1864 H1853 0.950 . S
C1864 C1862 1.391 . S
C1864 C1865 1.400 . S
C1865 C1859 1.491 . S
C1865 C1864 1.400 . S
C1865 C1866 1.398 . S
C1866 H1854 0.950 . S
C1866 C1865 1.398 . S
C1866 C1867 1.391 . S
C1867 H1855 0.950 . S
C1867 C1863 1.393 . S
C1867 C1866 1.391 . S
H1868 C1876 0.950 . S
H1869 C1881 0.950 . S
H1870 C1878 0.950 . S
H1871 C1880 0.950 . S
H1872 C1882 0.950 . S
H1873 C1884 0.950 . S
H1874 C1886 0.950 . S
H1875 C1887 0.950 . S
C1876 H1868 0.950 . S
C1876 C1877 1.386 . S
C1876 C1878 1.391 . S
C1877 C1876 1.386 . S
C1877 C1881 1.393 . S
C1878 H1870 0.950 . S
C1878 C1876 1.391 . S
C1878 C1879 1.400 . S
C1879 C1878 1.400 . S
C1879 C1880 1.398 . S
C1879 C1885 1.491 . S
C1880 H1871 0.950 . S
C1880 C1879 1.398 . S
C1880 C1881 1.391 . S
C1881 H1869 0.950 . S
C1881 C1877 1.393 . S
C1881 C1880 1.391 . S
C1882 H1872 0.950 . S
C1882 C1883 1.386 . S
C1882 C1884 1.391 1_455 S
C1883 C1882 1.386 . S
C1883 C1887 1.393 1_455 S
C1884 H1873 0.950 . S
C1884 C1882 1.391 1_655 S
C1884 C1885 1.400 . S
C1885 C1879 1.491 . S
C1885 C1884 1.400 . S
C1885 C1886 1.398 . S
C1886 H1874 0.950 . S
C1886 C1885 1.398 . S
C1886 C1887 1.391 . S
C1887 H1875 0.950 . S
C1887 C1883 1.393 1_655 S
C1887 C1886 1.391 . S
H1888 C1896 0.950 . S
H1889 C1901 0.950 . S
H1890 C1898 0.950 . S
H1891 C1900 0.950 . S
H1892 C1902 0.950 . S
H1893 C1904 0.950 . S
H1894 C1906 0.950 . S
H1895 C1907 0.950 . S
C1896 H1888 0.950 . S
C1896 C1897 1.386 . S
C1896 C1898 1.391 . S
C1897 C1896 1.386 . S
C1897 C1901 1.393 . S
C1898 H1890 0.950 . S
C1898 C1896 1.391 . S
C1898 C1899 1.400 . S
C1899 C1898 1.400 . S
C1899 C1900 1.398 . S
C1899 C1905 1.491 . S
C1900 H1891 0.950 . S
C1900 C1899 1.398 . S
C1900 C1901 1.391 . S
C1901 H1889 0.950 . S
C1901 C1897 1.393 . S
C1901 C1900 1.391 . S
C1902 H1892 0.950 . S
C1902 C1903 1.386 . S
C1902 C1904 1.391 . S
C1903 C1902 1.386 . S
C1903 C1907 1.393 . S
C1904 H1893 0.950 . S
C1904 C1902 1.391 . S
C1904 C1905 1.400 . S
C1905 C1899 1.491 . S
C1905 C1904 1.400 . S
C1905 C1906 1.398 . S
C1906 H1894 0.950 . S
C1906 C1905 1.398 . S
C1906 C1907 1.391 . S
C1907 H1895 0.950 . S
C1907 C1903 1.393 . S
C1907 C1906 1.391 . S
H1908 C1916 0.950 . S
H1909 C1921 0.950 . S
H1910 C1918 0.950 . S
H1911 C1920 0.950 . S
H1912 C1922 0.950 . S
H1913 C1924 0.950 . S
H1914 C1926 0.950 . S
H1915 C1927 0.950 . S
C1916 H1908 0.950 . S
C1916 C1917 1.386 . S
C1916 C1918 1.391 . S
C1917 C1916 1.386 . S
C1917 C1921 1.393 . S
C1918 H1910 0.950 . S
C1918 C1916 1.391 . S
C1918 C1919 1.400 . S
C1919 C1918 1.400 . S
C1919 C1920 1.398 . S
C1919 C1925 1.491 . S
C1920 H1911 0.950 . S
C1920 C1919 1.398 . S
C1920 C1921 1.391 . S
C1921 H1909 0.950 . S
C1921 C1917 1.393 . S
C1921 C1920 1.391 . S
C1922 H1912 0.950 . S
C1922 C1923 1.386 . S
C1922 C1924 1.391 . S
C1923 C1922 1.386 . S
C1923 C1927 1.393 . S
C1924 H1913 0.950 . S
C1924 C1922 1.391 . S
C1924 C1925 1.400 . S
C1925 C1919 1.491 . S
C1925 C1924 1.400 . S
C1925 C1926 1.398 . S
C1926 H1914 0.950 . S
C1926 C1925 1.398 . S
C1926 C1927 1.391 . S
C1927 H1915 0.950 . S
C1927 C1923 1.393 . S
C1927 C1926 1.391 . S
H1928 C1936 0.950 . S
H1929 C1941 0.950 . S
H1930 C1938 0.950 . S
H1931 C1940 0.950 . S
H1932 C1942 0.950 . S
H1933 C1944 0.950 . S
H1934 C1946 0.950 . S
H1935 C1947 0.950 . S
C1936 H1928 0.950 . S
C1936 C1937 1.386 . S
C1936 C1938 1.391 . S
C1937 C1936 1.386 . S
C1937 C1941 1.393 . S
C1938 H1930 0.950 . S
C1938 C1936 1.391 . S
C1938 C1939 1.400 . S
C1939 C1938 1.400 . S
C1939 C1940 1.398 . S
C1939 C1945 1.491 . S
C1940 H1931 0.950 . S
C1940 C1939 1.398 . S
C1940 C1941 1.391 . S
C1941 H1929 0.950 . S
C1941 C1937 1.393 . S
C1941 C1940 1.391 . S
C1942 H1932 0.950 . S
C1942 C1943 1.386 . S
C1942 C1944 1.391 . S
C1943 C1942 1.386 . S
C1943 C1947 1.393 . S
C1944 H1933 0.950 . S
C1944 C1942 1.391 . S
C1944 C1945 1.400 . S
C1945 C1939 1.491 . S
C1945 C1944 1.400 . S
C1945 C1946 1.398 . S
C1946 H1934 0.950 . S
C1946 C1945 1.398 . S
C1946 C1947 1.391 . S
C1947 H1935 0.950 . S
C1947 C1943 1.393 . S
C1947 C1946 1.391 . S
H1948 C1956 0.950 . S
H1949 C1961 0.938 1_556 S
H1950 C1958 0.950 . S
H1951 C1960 0.950 . S
H1952 C1962 0.950 . S
H1953 C1964 0.950 . S
H1954 C1966 0.950 . S
H1955 C1967 0.950 . S
C1956 H1948 0.950 . S
C1956 C1957 1.386 1_554 S
C1956 C1958 1.391 . S
C1957 C1956 1.386 1_556 S
C1957 C1961 1.393 1_556 S
C1958 H1950 0.950 . S
C1958 C1956 1.391 . S
C1958 C1959 1.400 . S
C1959 C1958 1.400 . S
C1959 C1960 1.398 . S
C1959 C1965 1.491 . S
C1960 H1951 0.950 . S
C1960 C1959 1.398 . S
C1960 C1961 1.391 . S
C1961 H1949 0.938 1_554 S
C1961 C1957 1.393 1_554 S
C1961 C1960 1.391 . S
C1962 H1952 0.950 . S
C1962 C1963 1.386 . S
C1962 C1964 1.391 . S
C1963 C1962 1.386 . S
C1963 C1967 1.393 . S
C1964 H1953 0.950 . S
C1964 C1962 1.391 . S
C1964 C1965 1.400 . S
C1965 C1959 1.491 . S
C1965 C1964 1.400 . S
C1965 C1966 1.398 . S
C1966 H1954 0.950 . S
C1966 C1965 1.398 . S
C1966 C1967 1.391 . S
C1967 H1955 0.950 . S
C1967 C1963 1.393 . S
C1967 C1966 1.391 . S
H1968 C1976 0.950 . S
H1969 C1981 0.950 . S
H1970 C1978 0.950 . S
H1971 C1980 0.950 . S
H1972 C1982 0.950 . S
H1973 C1984 0.950 . S
H1974 C1986 0.950 . S
H1975 C1987 0.950 . S
C1976 H1968 0.950 . S
C1976 C1977 1.386 . S
C1976 C1978 1.391 . S
C1977 C1976 1.386 . S
C1977 C1981 1.393 . S
C1978 H1970 0.950 . S
C1978 C1976 1.391 . S
C1978 C1979 1.400 . S
C1979 C1978 1.400 . S
C1979 C1980 1.398 . S
C1979 C1985 1.491 . S
C1980 H1971 0.950 . S
C1980 C1979 1.398 . S
C1980 C1981 1.391 . S
C1981 H1969 0.950 . S
C1981 C1977 1.393 . S
C1981 C1980 1.391 . S
C1982 H1972 0.950 . S
C1982 C1983 1.386 . S
C1982 C1984 1.391 . S
C1983 C1982 1.386 . S
C1983 C1987 1.393 . S
C1984 H1973 0.950 . S
C1984 C1982 1.391 . S
C1984 C1985 1.400 . S
C1985 C1979 1.491 . S
C1985 C1984 1.400 . S
C1985 C1986 1.398 . S
C1986 H1974 0.950 . S
C1986 C1985 1.398 . S
C1986 C1987 1.391 . S
C1987 H1975 0.950 . S
C1987 C1983 1.393 . S
C1987 C1986 1.391 . S
H1988 C1996 0.950 . S
H1989 C2001 0.950 . S
H1990 C1998 0.950 . S
H1991 C2000 0.950 . S
H1992 C2002 0.950 . S
H1993 C2004 0.950 . S
H1994 C2006 0.950 . S
H1995 C2007 0.950 . S
C1996 H1988 0.950 . S
C1996 C1997 1.386 . S
C1996 C1998 1.391 . S
C1997 C1996 1.386 . S
C1997 C2001 1.393 . S
C1998 H1990 0.950 . S
C1998 C1996 1.391 . S
C1998 C1999 1.400 . S
C1999 C1998 1.400 . S
C1999 C2000 1.398 . S
C1999 C2005 1.491 . S
C2000 H1991 0.950 . S
C2000 C1999 1.398 . S
C2000 C2001 1.391 . S
C2001 H1989 0.950 . S
C2001 C1997 1.393 . S
C2001 C2000 1.391 . S
C2002 H1992 0.950 . S
C2002 C2003 1.386 . S
C2002 C2004 1.391 . S
C2003 C2002 1.386 . S
C2003 C2007 1.393 . S
C2004 H1993 0.950 . S
C2004 C2002 1.391 . S
C2004 C2005 1.400 . S
C2005 C1999 1.491 . S
C2005 C2004 1.400 . S
C2005 C2006 1.398 . S
C2006 H1994 0.950 . S
C2006 C2005 1.398 . S
C2006 C2007 1.391 . S
C2007 H1995 0.950 . S
C2007 C2003 1.393 . S
C2007 C2006 1.391 . S
H2008 C2016 0.950 . S
H2009 C2021 0.950 . S
H2010 C2018 0.950 . S
H2011 C2020 0.950 . S
H2012 C2022 0.950 . S
H2013 C2024 0.950 . S
H2014 C2026 0.950 . S
H2015 C2027 0.950 . S
C2016 H2008 0.950 . S
C2016 C2017 1.386 . S
C2016 C2018 1.391 . S
C2017 C2016 1.386 . S
C2017 C2021 1.393 . S
C2018 H2010 0.950 . S
C2018 C2016 1.391 . S
C2018 C2019 1.400 . S
C2019 C2018 1.400 . S
C2019 C2020 1.398 . S
C2019 C2025 1.491 . S
C2020 H2011 0.950 . S
C2020 C2019 1.398 . S
C2020 C2021 1.391 . S
C2021 H2009 0.950 . S
C2021 C2017 1.393 . S
C2021 C2020 1.391 . S
C2022 H2012 0.950 . S
C2022 C2023 1.386 . S
C2022 C2024 1.391 . S
C2023 C2022 1.386 . S
C2023 C2027 1.393 . S
C2024 H2013 0.950 . S
C2024 C2022 1.391 . S
C2024 C2025 1.400 . S
C2025 C2019 1.491 . S
C2025 C2024 1.400 . S
C2025 C2026 1.398 . S
C2026 H2014 0.950 . S
C2026 C2025 1.398 . S
C2026 C2027 1.391 . S
C2027 H2015 0.950 . S
C2027 C2023 1.393 . S
C2027 C2026 1.391 . S
H2028 C2036 0.950 . S
H2029 C2041 0.950 1_554 S
H2030 C2038 0.950 . S
H2031 C2040 0.950 . S
H2032 C2042 0.950 . S
H2033 C2044 0.950 . S
H2034 C2046 0.950 . S
H2035 C2047 0.950 . S
C2036 H2028 0.950 . S
C2036 C2037 1.386 1_556 S
C2036 C2038 1.391 . S
C2037 C2036 1.386 1_554 S
C2037 C2041 1.393 1_554 S
C2038 H2030 0.950 . S
C2038 C2036 1.391 . S
C2038 C2039 1.400 . S
C2039 C2038 1.400 . S
C2039 C2040 1.398 . S
C2039 C2045 1.491 . S
C2040 H2031 0.950 . S
C2040 C2039 1.398 . S
C2040 C2041 1.391 . S
C2041 H2029 0.950 1_556 S
C2041 C2037 1.393 1_556 S
C2041 C2040 1.391 . S
C2042 H2032 0.950 . S
C2042 C2043 1.386 . S
C2042 C2044 1.391 . S
C2043 C2042 1.386 . S
C2043 C2047 1.393 . S
C2044 H2033 0.950 . S
C2044 C2042 1.391 . S
C2044 C2045 1.400 . S
C2045 C2039 1.491 . S
C2045 C2044 1.400 . S
C2045 C2046 1.398 . S
C2046 H2034 0.950 . S
C2046 C2045 1.398 . S
C2046 C2047 1.391 . S
C2047 H2035 0.950 . S
C2047 C2043 1.393 . S
C2047 C2046 1.391 . S
H2048 C2056 0.950 . S
H2049 C2061 0.950 . S
H2050 C2058 0.950 . S
H2051 C2060 0.950 . S
H2052 C2062 0.950 . S
H2053 C2064 0.950 . S
H2054 C2066 0.950 . S
H2055 C2067 0.950 . S
C2056 H2048 0.950 . S
C2056 C2057 1.386 . S
C2056 C2058 1.391 . S
C2057 C2056 1.386 . S
C2057 C2061 1.393 . S
C2058 H2050 0.950 . S
C2058 C2056 1.391 . S
C2058 C2059 1.400 . S
C2059 C2058 1.400 . S
C2059 C2060 1.398 . S
C2059 C2065 1.491 . S
C2060 H2051 0.950 . S
C2060 C2059 1.398 . S
C2060 C2061 1.391 . S
C2061 H2049 0.950 . S
C2061 C2057 1.393 . S
C2061 C2060 1.391 . S
C2062 H2052 0.950 . S
C2062 C2063 1.386 . S
C2062 C2064 1.391 . S
C2063 C2062 1.386 . S
C2063 C2067 1.393 . S
C2064 H2053 0.950 . S
C2064 C2062 1.391 . S
C2064 C2065 1.400 . S
C2065 C2059 1.491 . S
C2065 C2064 1.400 . S
C2065 C2066 1.398 . S
C2066 H2054 0.950 . S
C2066 C2065 1.398 . S
C2066 C2067 1.391 . S
C2067 H2055 0.950 . S
C2067 C2063 1.393 . S
C2067 C2066 1.391 . S
H2068 C2076 0.950 . S
H2069 C2081 0.950 . S
H2070 C2078 0.950 . S
H2071 C2080 0.950 . S
H2072 C2082 0.950 . S
H2073 C2084 0.950 . S
H2074 C2086 0.950 . S
H2075 C2087 0.950 . S
C2076 H2068 0.950 . S
C2076 C2077 1.386 . S
C2076 C2078 1.391 . S
C2077 C2076 1.386 . S
C2077 C2081 1.393 . S
C2078 H2070 0.950 . S
C2078 C2076 1.391 . S
C2078 C2079 1.400 . S
C2079 C2078 1.400 . S
C2079 C2080 1.398 . S
C2079 C2085 1.491 . S
C2080 H2071 0.950 . S
C2080 C2079 1.398 . S
C2080 C2081 1.391 . S
C2081 H2069 0.950 . S
C2081 C2077 1.393 . S
C2081 C2080 1.391 . S
C2082 H2072 0.950 . S
C2082 C2083 1.386 . S
C2082 C2084 1.391 . S
C2083 C2082 1.386 . S
C2083 C2087 1.393 . S
C2084 H2073 0.950 . S
C2084 C2082 1.391 . S
C2084 C2085 1.400 . S
C2085 C2079 1.491 . S
C2085 C2084 1.400 . S
C2085 C2086 1.398 . S
C2086 H2074 0.950 . S
C2086 C2085 1.398 . S
C2086 C2087 1.391 . S
C2087 H2075 0.950 . S
C2087 C2083 1.393 . S
C2087 C2086 1.391 . S
H2088 C2096 0.950 . S
H2089 C2101 0.950 . S
H2090 C2098 0.950 . S
H2091 C2100 0.950 . S
H2092 C2102 0.950 . S
H2093 C2104 0.950 . S
H2094 C2106 0.950 . S
H2095 C2107 0.950 . S
C2096 H2088 0.950 . S
C2096 C2097 1.386 . S
C2096 C2098 1.391 . S
C2097 C2096 1.386 . S
C2097 C2101 1.393 . S
C2098 H2090 0.950 . S
C2098 C2096 1.391 . S
C2098 C2099 1.400 . S
C2099 C2098 1.400 . S
C2099 C2100 1.398 . S
C2099 C2105 1.491 . S
C2100 H2091 0.950 . S
C2100 C2099 1.398 . S
C2100 C2101 1.391 . S
C2101 H2089 0.950 . S
C2101 C2097 1.393 . S
C2101 C2100 1.391 . S
C2102 H2092 0.950 . S
C2102 C2103 1.386 . S
C2102 C2104 1.391 . S
C2103 C2102 1.386 . S
C2103 C2107 1.393 . S
C2104 H2093 0.950 . S
C2104 C2102 1.391 . S
C2104 C2105 1.400 . S
C2105 C2099 1.491 . S
C2105 C2104 1.400 . S
C2105 C2106 1.398 . S
C2106 H2094 0.950 . S
C2106 C2105 1.398 . S
C2106 C2107 1.391 . S
C2107 H2095 0.950 . S
C2107 C2103 1.393 . S
C2107 C2106 1.391 . S
H2108 C2116 0.950 . S
H2109 C2121 0.950 . S
H2110 C2118 0.950 . S
H2111 C2120 0.950 . S
H2112 C2122 0.950 . S
H2113 C2124 0.950 . S
H2114 C2126 0.950 . S
H2115 C2127 0.950 . S
C2116 H2108 0.950 . S
C2116 C2117 1.386 . S
C2116 C2118 1.391 . S
C2117 C2116 1.386 . S
C2117 C2121 1.393 . S
C2118 H2110 0.950 . S
C2118 C2116 1.391 . S
C2118 C2119 1.400 . S
C2119 C2118 1.400 . S
C2119 C2120 1.398 . S
C2119 C2125 1.491 . S
C2120 H2111 0.950 . S
C2120 C2119 1.398 . S
C2120 C2121 1.391 . S
C2121 H2109 0.950 . S
C2121 C2117 1.393 . S
C2121 C2120 1.391 . S
C2122 H2112 0.950 . S
C2122 C2123 1.386 . S
C2122 C2124 1.391 . S
C2123 C2122 1.386 . S
C2123 C2127 1.393 . S
C2124 H2113 0.950 . S
C2124 C2122 1.391 . S
C2124 C2125 1.400 . S
C2125 C2119 1.491 . S
C2125 C2124 1.400 . S
C2125 C2126 1.398 . S
C2126 H2114 0.950 . S
C2126 C2125 1.398 . S
C2126 C2127 1.391 . S
C2127 H2115 0.950 . S
C2127 C2123 1.393 . S
C2127 C2126 1.391 . S
H2128 C2136 0.950 . S
H2129 C2141 0.950 . S
H2130 C2138 0.950 . S
H2131 C2140 0.950 . S
H2132 C2142 0.960 . S
H2133 C2144 0.950 . S
H2134 C2146 0.950 . S
H2135 C2147 0.950 . S
C2136 H2128 0.950 . S
C2136 C2137 1.386 . S
C2136 C2138 1.391 . S
C2137 C2136 1.386 . S
C2137 C2141 1.393 . S
C2138 H2130 0.950 . S
C2138 C2136 1.391 . S
C2138 C2139 1.400 . S
C2139 C2138 1.400 . S
C2139 C2140 1.398 . S
C2139 C2145 1.491 . S
C2140 H2131 0.950 . S
C2140 C2139 1.398 . S
C2140 C2141 1.391 . S
C2141 H2129 0.950 . S
C2141 C2137 1.393 . S
C2141 C2140 1.391 . S
C2142 H2132 0.960 . S
C2142 C2143 1.386 1_565 S
C2142 C2144 1.391 . S
C2143 C2142 1.386 1_545 S
C2143 C2147 1.393 1_545 S
C2144 H2133 0.950 . S
C2144 C2142 1.391 . S
C2144 C2145 1.400 . S
C2145 C2139 1.491 . S
C2145 C2144 1.400 . S
C2145 C2146 1.398 . S
C2146 H2134 0.950 . S
C2146 C2145 1.398 . S
C2146 C2147 1.391 . S
C2147 H2135 0.950 . S
C2147 C2143 1.393 1_565 S
C2147 C2146 1.391 . S
H2148 C2156 0.950 . S
H2149 C2161 0.950 . S
H2150 C2158 0.950 . S
H2151 C2160 0.950 . S
H2152 C2162 0.950 . S
H2153 C2164 0.950 . S
H2154 C2166 0.950 . S
H2155 C2167 0.950 . S
C2156 H2148 0.950 . S
C2156 C2157 1.386 . S
C2156 C2158 1.391 . S
C2157 C2156 1.386 . S
C2157 C2161 1.393 . S
C2158 H2150 0.950 . S
C2158 C2156 1.391 . S
C2158 C2159 1.400 . S
C2159 C2158 1.400 . S
C2159 C2160 1.398 . S
C2159 C2165 1.491 . S
C2160 H2151 0.950 . S
C2160 C2159 1.398 . S
C2160 C2161 1.391 . S
C2161 H2149 0.950 . S
C2161 C2157 1.393 . S
C2161 C2160 1.391 . S
C2162 H2152 0.950 . S
C2162 C2163 1.386 . S
C2162 C2164 1.391 . S
C2163 C2162 1.386 . S
C2163 C2167 1.393 . S
C2164 H2153 0.950 . S
C2164 C2162 1.391 . S
C2164 C2165 1.400 . S
C2165 C2159 1.491 . S
C2165 C2164 1.400 . S
C2165 C2166 1.398 . S
C2166 H2154 0.950 . S
C2166 C2165 1.398 . S
C2166 C2167 1.391 . S
C2167 H2155 0.950 . S
C2167 C2163 1.393 . S
C2167 C2166 1.391 . S
H2168 C2176 0.950 . S
H2169 C2181 0.950 . S
H2170 C2178 0.950 . S
H2171 C2180 0.950 . S
H2172 C2182 0.950 . S
H2173 C2184 0.950 . S
H2174 C2186 0.950 . S
H2175 C2187 0.950 . S
C2176 H2168 0.950 . S
C2176 C2177 1.386 . S
C2176 C2178 1.391 . S
C2177 C2176 1.386 . S
C2177 C2181 1.393 . S
C2178 H2170 0.950 . S
C2178 C2176 1.391 . S
C2178 C2179 1.400 . S
C2179 C2178 1.400 . S
C2179 C2180 1.398 . S
C2179 C2185 1.491 . S
C2180 H2171 0.950 . S
C2180 C2179 1.398 . S
C2180 C2181 1.391 . S
C2181 H2169 0.950 . S
C2181 C2177 1.393 . S
C2181 C2180 1.391 . S
C2182 H2172 0.950 . S
C2182 C2183 1.386 . S
C2182 C2184 1.391 . S
C2183 C2182 1.386 . S
C2183 C2187 1.393 . S
C2184 H2173 0.950 . S
C2184 C2182 1.391 . S
C2184 C2185 1.400 . S
C2185 C2179 1.491 . S
C2185 C2184 1.400 . S
C2185 C2186 1.398 . S
C2186 H2174 0.950 . S
C2186 C2185 1.398 . S
C2186 C2187 1.391 . S
C2187 H2175 0.950 . S
C2187 C2183 1.393 . S
C2187 C2186 1.391 . S
H2188 C2196 0.950 . S
H2189 C2201 0.950 . S
H2190 C2198 0.950 . S
H2191 C2200 0.950 . S
H2192 C2202 0.950 . S
H2193 C2204 0.950 . S
H2194 C2206 0.950 . S
H2195 C2207 0.950 . S
C2196 H2188 0.950 . S
C2196 C2197 1.386 . S
C2196 C2198 1.391 . S
C2197 C2196 1.386 . S
C2197 C2201 1.393 . S
C2198 H2190 0.950 . S
C2198 C2196 1.391 . S
C2198 C2199 1.400 . S
C2199 C2198 1.400 . S
C2199 C2200 1.398 . S
C2199 C2205 1.491 . S
C2200 H2191 0.950 . S
C2200 C2199 1.398 . S
C2200 C2201 1.391 . S
C2201 H2189 0.950 . S
C2201 C2197 1.393 . S
C2201 C2200 1.391 . S
C2202 H2192 0.950 . S
C2202 C2203 1.386 . S
C2202 C2204 1.391 . S
C2203 C2202 1.386 . S
C2203 C2207 1.393 . S
C2204 H2193 0.950 . S
C2204 C2202 1.391 . S
C2204 C2205 1.400 . S
C2205 C2199 1.491 . S
C2205 C2204 1.400 . S
C2205 C2206 1.398 . S
C2206 H2194 0.950 . S
C2206 C2205 1.398 . S
C2206 C2207 1.391 . S
C2207 H2195 0.950 . S
C2207 C2203 1.393 . S
C2207 C2206 1.391 . S
H2208 C2216 0.950 . S
H2209 C2221 0.950 . S
H2210 C2218 0.950 . S
H2211 C2220 0.950 . S
H2212 C2222 0.950 . S
H2213 C2224 0.950 . S
H2214 C2226 0.950 . S
H2215 C2227 0.950 . S
C2216 H2208 0.950 . S
C2216 C2217 1.386 . S
C2216 C2218 1.391 . S
C2217 C2216 1.386 . S
C2217 C2221 1.393 . S
C2218 H2210 0.950 . S
C2218 C2216 1.391 . S
C2218 C2219 1.400 . S
C2219 C2218 1.400 . S
C2219 C2220 1.398 . S
C2219 C2225 1.491 . S
C2220 H2211 0.950 . S
C2220 C2219 1.398 . S
C2220 C2221 1.391 . S
C2221 H2209 0.950 . S
C2221 C2217 1.393 . S
C2221 C2220 1.391 . S
C2222 H2212 0.950 . S
C2222 C2223 1.386 . S
C2222 C2224 1.391 . S
C2223 C2222 1.386 . S
C2223 C2227 1.393 . S
C2224 H2213 0.950 . S
C2224 C2222 1.391 . S
C2224 C2225 1.400 . S
C2225 C2219 1.491 . S
C2225 C2224 1.400 . S
C2225 C2226 1.398 . S
C2226 H2214 0.950 . S
C2226 C2225 1.398 . S
C2226 C2227 1.391 . S
C2227 H2215 0.950 . S
C2227 C2223 1.393 . S
C2227 C2226 1.391 . S
H2228 C2236 0.950 . S
H2229 C2241 0.950 . S
H2230 C2238 0.950 . S
H2231 C2240 0.950 . S
H2232 C2242 0.950 . S
H2233 C2244 0.950 . S
H2234 C2246 0.950 . S
H2235 C2247 0.950 . S
C2236 H2228 0.950 . S
C2236 C2237 1.386 . S
C2236 C2238 1.391 . S
C2237 C2236 1.386 . S
C2237 C2241 1.393 . S
C2238 H2230 0.950 . S
C2238 C2236 1.391 . S
C2238 C2239 1.400 . S
C2239 C2238 1.400 . S
C2239 C2240 1.398 . S
C2239 C2245 1.491 . S
C2240 H2231 0.950 . S
C2240 C2239 1.398 . S
C2240 C2241 1.391 . S
C2241 H2229 0.950 . S
C2241 C2237 1.393 . S
C2241 C2240 1.391 . S
C2242 H2232 0.950 . S
C2242 C2243 1.386 . S
C2242 C2244 1.391 . S
C2243 C2242 1.386 . S
C2243 C2247 1.393 . S
C2244 H2233 0.950 . S
C2244 C2242 1.391 . S
C2244 C2245 1.400 . S
C2245 C2239 1.491 . S
C2245 C2244 1.400 . S
C2245 C2246 1.398 . S
C2246 H2234 0.950 . S
C2246 C2245 1.398 . S
C2246 C2247 1.391 . S
C2247 H2235 0.950 . S
C2247 C2243 1.393 . S
C2247 C2246 1.391 . S
H2248 C2256 0.950 . S
H2249 C2261 0.950 . S
H2250 C2258 0.950 . S
H2251 C2260 0.950 . S
H2252 C2262 0.950 . S
H2253 C2264 0.950 . S
H2254 C2266 0.950 . S
H2255 C2267 0.950 . S
C2256 H2248 0.950 . S
C2256 C2257 1.386 . S
C2256 C2258 1.391 . S
C2257 C2256 1.386 . S
C2257 C2261 1.393 . S
C2258 H2250 0.950 . S
C2258 C2256 1.391 . S
C2258 C2259 1.400 . S
C2259 C2258 1.400 . S
C2259 C2260 1.398 . S
C2259 C2265 1.491 . S
C2260 H2251 0.950 . S
C2260 C2259 1.398 . S
C2260 C2261 1.391 . S
C2261 H2249 0.950 . S
C2261 C2257 1.393 . S
C2261 C2260 1.391 . S
C2262 H2252 0.950 . S
C2262 C2263 1.386 . S
C2262 C2264 1.391 . S
C2263 C2262 1.386 . S
C2263 C2267 1.393 . S
C2264 H2253 0.950 . S
C2264 C2262 1.391 . S
C2264 C2265 1.400 . S
C2265 C2259 1.491 . S
C2265 C2264 1.400 . S
C2265 C2266 1.398 . S
C2266 H2254 0.950 . S
C2266 C2265 1.398 . S
C2266 C2267 1.391 . S
C2267 H2255 0.950 . S
C2267 C2263 1.393 . S
C2267 C2266 1.391 . S
H2268 C2276 0.950 . S
H2269 C2281 0.950 . S
H2270 C2278 0.950 . S
H2271 C2280 0.950 . S
H2272 C2282 0.950 . S
H2273 C2284 0.950 . S
H2274 C2286 0.950 . S
H2275 C2287 0.950 . S
C2276 H2268 0.950 . S
C2276 C2277 1.386 1_655 S
C2276 C2278 1.391 . S
C2277 C2276 1.386 1_455 S
C2277 C2281 1.393 . S
C2278 H2270 0.950 . S
C2278 C2276 1.391 . S
C2278 C2279 1.400 . S
C2279 C2278 1.400 . S
C2279 C2280 1.398 . S
C2279 C2285 1.491 . S
C2280 H2271 0.950 . S
C2280 C2279 1.398 . S
C2280 C2281 1.391 1_655 S
C2281 H2269 0.950 . S
C2281 C2277 1.393 . S
C2281 C2280 1.391 1_455 S
C2282 H2272 0.950 . S
C2282 C2283 1.386 . S
C2282 C2284 1.391 . S
C2283 C2282 1.386 . S
C2283 C2287 1.393 . S
C2284 H2273 0.950 . S
C2284 C2282 1.391 . S
C2284 C2285 1.400 . S
C2285 C2279 1.491 . S
C2285 C2284 1.400 . S
C2285 C2286 1.398 . S
C2286 H2274 0.950 . S
C2286 C2285 1.398 . S
C2286 C2287 1.391 . S
C2287 H2275 0.950 . S
C2287 C2283 1.393 . S
C2287 C2286 1.391 . S
H2288 C2296 0.950 . S
H2289 C2301 0.950 . S
H2290 C2298 0.950 . S
H2291 C2300 0.950 . S
H2292 C2302 0.950 . S
H2293 C2304 0.950 . S
H2294 C2306 0.950 . S
H2295 C2307 0.950 . S
C2296 H2288 0.950 . S
C2296 C2297 1.386 . S
C2296 C2298 1.391 . S
C2297 C2296 1.386 . S
C2297 C2301 1.393 . S
C2298 H2290 0.950 . S
C2298 C2296 1.391 . S
C2298 C2299 1.400 . S
C2299 C2298 1.400 . S
C2299 C2300 1.398 . S
C2299 C2305 1.491 . S
C2300 H2291 0.950 . S
C2300 C2299 1.398 . S
C2300 C2301 1.391 . S
C2301 H2289 0.950 . S
C2301 C2297 1.393 . S
C2301 C2300 1.391 . S
C2302 H2292 0.950 . S
C2302 C2303 1.386 . S
C2302 C2304 1.391 . S
C2303 C2302 1.386 . S
C2303 C2307 1.393 . S
C2304 H2293 0.950 . S
C2304 C2302 1.391 . S
C2304 C2305 1.400 . S
C2305 C2299 1.491 . S
C2305 C2304 1.400 . S
C2305 C2306 1.398 . S
C2306 H2294 0.950 . S
C2306 C2305 1.398 . S
C2306 C2307 1.391 . S
C2307 H2295 0.950 . S
C2307 C2303 1.393 . S
C2307 C2306 1.391 . S
H2308 C2316 0.950 . S
H2309 C2321 0.950 . S
H2310 C2318 0.950 . S
H2311 C2320 0.950 . S
H2312 C2322 0.950 . S
H2313 C2324 0.950 . S
H2314 C2326 0.950 . S
H2315 C2327 0.950 . S
C2316 H2308 0.950 . S
C2316 C2317 1.386 . S
C2316 C2318 1.391 1_455 S
C2317 C2316 1.386 . S
C2317 C2321 1.393 1_455 S
C2318 H2310 0.950 . S
C2318 C2316 1.391 1_655 S
C2318 C2319 1.400 . S
C2319 C2318 1.400 . S
C2319 C2320 1.398 . S
C2319 C2325 1.491 . S
C2320 H2311 0.950 . S
C2320 C2319 1.398 . S
C2320 C2321 1.391 . S
C2321 H2309 0.950 . S
C2321 C2317 1.393 1_655 S
C2321 C2320 1.391 . S
C2322 H2312 0.950 . S
C2322 C2323 1.386 . S
C2322 C2324 1.391 . S
C2323 C2322 1.386 . S
C2323 C2327 1.393 . S
C2324 H2313 0.950 . S
C2324 C2322 1.391 . S
C2324 C2325 1.400 . S
C2325 C2319 1.491 . S
C2325 C2324 1.400 . S
C2325 C2326 1.398 . S
C2326 H2314 0.950 . S
C2326 C2325 1.398 . S
C2326 C2327 1.391 . S
C2327 H2315 0.950 . S
C2327 C2323 1.393 . S
C2327 C2326 1.391 . S
H2328 C2336 0.950 . S
H2329 C2341 0.950 . S
H2330 C2338 0.950 . S
H2331 C2340 0.950 . S
H2332 C2342 0.950 . S
H2333 C2344 0.950 . S
H2334 C2346 0.950 . S
H2335 C2347 0.950 . S
C2336 H2328 0.950 . S
C2336 C2337 1.386 . S
C2336 C2338 1.391 . S
C2337 C2336 1.386 . S
C2337 C2341 1.393 . S
C2338 H2330 0.950 . S
C2338 C2336 1.391 . S
C2338 C2339 1.400 . S
C2339 C2338 1.400 . S
C2339 C2340 1.398 . S
C2339 C2345 1.491 . S
C2340 H2331 0.950 . S
C2340 C2339 1.398 . S
C2340 C2341 1.391 . S
C2341 H2329 0.950 . S
C2341 C2337 1.393 . S
C2341 C2340 1.391 . S
C2342 H2332 0.950 . S
C2342 C2343 1.386 . S
C2342 C2344 1.391 . S
C2343 C2342 1.386 . S
C2343 C2347 1.393 . S
C2344 H2333 0.950 . S
C2344 C2342 1.391 . S
C2344 C2345 1.400 . S
C2345 C2339 1.491 . S
C2345 C2344 1.400 . S
C2345 C2346 1.398 . S
C2346 H2334 0.950 . S
C2346 C2345 1.398 . S
C2346 C2347 1.391 . S
C2347 H2335 0.950 . S
C2347 C2343 1.393 . S
C2347 C2346 1.391 . S
H2348 C2356 0.950 . S
H2349 C2361 0.950 . S
H2350 C2358 0.950 . S
H2351 C2360 0.950 . S
H2352 C2362 0.950 . S
H2353 C2364 0.950 . S
H2354 C2366 0.950 . S
H2355 C2367 0.950 . S
C2356 H2348 0.950 . S
C2356 C2357 1.386 . S
C2356 C2358 1.391 . S
C2357 C2356 1.386 . S
C2357 C2361 1.393 . S
C2358 H2350 0.950 . S
C2358 C2356 1.391 . S
C2358 C2359 1.400 . S
C2359 C2358 1.400 . S
C2359 C2360 1.398 . S
C2359 C2365 1.491 . S
C2360 H2351 0.950 . S
C2360 C2359 1.398 . S
C2360 C2361 1.391 . S
C2361 H2349 0.950 . S
C2361 C2357 1.393 . S
C2361 C2360 1.391 . S
C2362 H2352 0.950 . S
C2362 C2363 1.386 . S
C2362 C2364 1.391 . S
C2363 C2362 1.386 . S
C2363 C2367 1.393 . S
C2364 H2353 0.950 . S
C2364 C2362 1.391 . S
C2364 C2365 1.400 . S
C2365 C2359 1.491 . S
C2365 C2364 1.400 . S
C2365 C2366 1.398 . S
C2366 H2354 0.950 . S
C2366 C2365 1.398 . S
C2366 C2367 1.391 . S
C2367 H2355 0.950 . S
C2367 C2363 1.393 . S
C2367 C2366 1.391 . S
H2368 C2376 0.950 . S
H2369 C2381 0.950 . S
H2370 C2378 0.950 . S
H2371 C2380 0.950 . S
H2372 C2382 0.950 . S
H2373 C2384 0.950 . S
H2374 C2386 0.950 . S
H2375 C2387 0.950 . S
C2376 H2368 0.950 . S
C2376 C2377 1.386 . S
C2376 C2378 1.391 . S
C2377 C2376 1.386 . S
C2377 C2381 1.393 . S
C2378 H2370 0.950 . S
C2378 C2376 1.391 . S
C2378 C2379 1.400 . S
C2379 C2378 1.400 . S
C2379 C2380 1.398 . S
C2379 C2385 1.491 . S
C2380 H2371 0.950 . S
C2380 C2379 1.398 . S
C2380 C2381 1.391 . S
C2381 H2369 0.950 . S
C2381 C2377 1.393 . S
C2381 C2380 1.391 . S
C2382 H2372 0.950 . S
C2382 C2383 1.386 . S
C2382 C2384 1.391 . S
C2383 C2382 1.386 . S
C2383 C2387 1.393 . S
C2384 H2373 0.950 . S
C2384 C2382 1.391 . S
C2384 C2385 1.400 . S
C2385 C2379 1.491 . S
C2385 C2384 1.400 . S
C2385 C2386 1.398 . S
C2386 H2374 0.950 . S
C2386 C2385 1.398 . S
C2386 C2387 1.391 . S
C2387 H2375 0.950 . S
C2387 C2383 1.393 . S
C2387 C2386 1.391 . S
H2388 C2396 0.950 . S
H2389 C2401 0.950 . S
H2390 C2398 0.950 . S
H2391 C2400 0.950 . S
H2392 C2402 0.950 . S
H2393 C2404 0.950 . S
H2394 C2406 0.950 . S
H2395 C2407 0.950 . S
C2396 H2388 0.950 . S
C2396 C2397 1.386 . S
C2396 C2398 1.391 . S
C2397 C2396 1.386 . S
C2397 C2401 1.393 . S
C2398 H2390 0.950 . S
C2398 C2396 1.391 . S
C2398 C2399 1.400 . S
C2399 C2398 1.400 . S
C2399 C2400 1.398 . S
C2399 C2405 1.491 . S
C2400 H2391 0.950 . S
C2400 C2399 1.398 . S
C2400 C2401 1.391 . S
C2401 H2389 0.950 . S
C2401 C2397 1.393 . S
C2401 C2400 1.391 . S
C2402 H2392 0.950 . S
C2402 C2403 1.386 1_556 S
C2402 C2404 1.391 . S
C2403 C2402 1.386 1_554 S
C2403 C2407 1.393 . S
C2404 H2393 0.950 . S
C2404 C2402 1.391 . S
C2404 C2405 1.400 . S
C2405 C2399 1.491 . S
C2405 C2404 1.400 . S
C2405 C2406 1.398 . S
C2406 H2394 0.950 . S
C2406 C2405 1.398 . S
C2406 C2407 1.391 1_556 S
C2407 H2395 0.950 . S
C2407 C2403 1.393 . S
C2407 C2406 1.391 1_554 S
H2408 C2416 0.950 . S
H2409 C2421 0.950 . S
H2410 C2418 0.950 . S
H2411 C2420 0.950 . S
H2412 C2422 0.950 . S
H2413 C2424 0.950 . S
H2414 C2426 0.950 . S
H2415 C2427 0.950 . S
C2416 H2408 0.950 . S
C2416 C2417 1.386 . S
C2416 C2418 1.391 . S
C2417 C2416 1.386 . S
C2417 C2421 1.393 . S
C2418 H2410 0.950 . S
C2418 C2416 1.391 . S
C2418 C2419 1.400 . S
C2419 C2418 1.400 . S
C2419 C2420 1.398 . S
C2419 C2425 1.491 . S
C2420 H2411 0.950 . S
C2420 C2419 1.398 . S
C2420 C2421 1.391 . S
C2421 H2409 0.950 . S
C2421 C2417 1.393 . S
C2421 C2420 1.391 . S
C2422 H2412 0.950 . S
C2422 C2423 1.386 . S
C2422 C2424 1.391 . S
C2423 C2422 1.386 . S
C2423 C2427 1.393 . S
C2424 H2413 0.950 . S
C2424 C2422 1.391 . S
C2424 C2425 1.400 . S
C2425 C2419 1.491 . S
C2425 C2424 1.400 . S
C2425 C2426 1.398 . S
C2426 H2414 0.950 . S
C2426 C2425 1.398 . S
C2426 C2427 1.391 . S
C2427 H2415 0.950 . S
C2427 C2423 1.393 . S
C2427 C2426 1.391 . S
H2428 C2436 0.950 . S
H2429 C2441 0.950 . S
H2430 C2438 0.950 . S
H2431 C2440 0.950 . S
H2432 C2442 0.950 . S
H2433 C2444 0.950 . S
H2434 C2446 0.950 . S
H2435 C2447 0.950 . S
C2436 H2428 0.950 . S
C2436 C2437 1.386 . S
C2436 C2438 1.391 . S
C2437 C2436 1.386 . S
C2437 C2441 1.393 . S
C2438 H2430 0.950 . S
C2438 C2436 1.391 . S
C2438 C2439 1.400 . S
C2439 C2438 1.400 . S
C2439 C2440 1.398 . S
C2439 C2445 1.491 . S
C2440 H2431 0.950 . S
C2440 C2439 1.398 . S
C2440 C2441 1.391 . S
C2441 H2429 0.950 . S
C2441 C2437 1.393 . S
C2441 C2440 1.391 . S
C2442 H2432 0.950 . S
C2442 C2443 1.386 . S
C2442 C2444 1.391 . S
C2443 C2442 1.386 . S
C2443 C2447 1.393 . S
C2444 H2433 0.950 . S
C2444 C2442 1.391 . S
C2444 C2445 1.400 . S
C2445 C2439 1.491 . S
C2445 C2444 1.400 . S
C2445 C2446 1.398 . S
C2446 H2434 0.950 . S
C2446 C2445 1.398 . S
C2446 C2447 1.391 . S
C2447 H2435 0.950 . S
C2447 C2443 1.393 . S
C2447 C2446 1.391 . S
H2448 C2456 0.950 . S
H2449 C2461 0.950 . S
H2450 C2458 0.950 . S
H2451 C2460 0.950 . S
H2452 C2462 0.950 . S
H2453 C2464 0.950 . S
H2454 C2466 0.950 . S
H2455 C2467 0.950 . S
C2456 H2448 0.950 . S
C2456 C2457 1.386 . S
C2456 C2458 1.391 . S
C2457 C2456 1.386 . S
C2457 C2461 1.393 . S
C2458 H2450 0.950 . S
C2458 C2456 1.391 . S
C2458 C2459 1.400 . S
C2459 C2458 1.400 . S
C2459 C2460 1.398 . S
C2459 C2465 1.491 . S
C2460 H2451 0.950 . S
C2460 C2459 1.398 . S
C2460 C2461 1.391 . S
C2461 H2449 0.950 . S
C2461 C2457 1.393 . S
C2461 C2460 1.391 . S
C2462 H2452 0.950 . S
C2462 C2463 1.386 . S
C2462 C2464 1.391 . S
C2463 C2462 1.386 . S
C2463 C2467 1.393 . S
C2464 H2453 0.950 . S
C2464 C2462 1.391 . S
C2464 C2465 1.400 . S
C2465 C2459 1.491 . S
C2465 C2464 1.400 . S
C2465 C2466 1.398 . S
C2466 H2454 0.950 . S
C2466 C2465 1.398 . S
C2466 C2467 1.391 . S
C2467 H2455 0.950 . S
C2467 C2463 1.393 . S
C2467 C2466 1.391 . S
H2468 C2476 0.950 . S
H2469 C2481 0.950 . S
H2470 C2478 0.950 . S
H2471 C2480 0.950 . S
H2472 C2482 0.950 . S
H2473 C2484 0.950 . S
H2474 C2486 0.950 . S
H2475 C2487 0.950 . S
C2476 H2468 0.950 . S
C2476 C2477 1.386 . S
C2476 C2478 1.391 . S
C2477 C2476 1.386 . S
C2477 C2481 1.393 . S
C2478 H2470 0.950 . S
C2478 C2476 1.391 . S
C2478 C2479 1.400 . S
C2479 C2478 1.400 . S
C2479 C2480 1.398 . S
C2479 C2485 1.491 . S
C2480 H2471 0.950 . S
C2480 C2479 1.398 . S
C2480 C2481 1.391 . S
C2481 H2469 0.950 . S
C2481 C2477 1.393 . S
C2481 C2480 1.391 . S
C2482 H2472 0.950 . S
C2482 C2483 1.386 1_554 S
C2482 C2484 1.391 . S
C2483 C2482 1.386 1_556 S
C2483 C2487 1.393 . S
C2484 H2473 0.950 . S
C2484 C2482 1.391 . S
C2484 C2485 1.400 . S
C2485 C2479 1.491 . S
C2485 C2484 1.400 . S
C2485 C2486 1.398 . S
C2486 H2474 0.950 . S
C2486 C2485 1.398 . S
C2486 C2487 1.391 1_554 S
C2487 H2475 0.950 . S
C2487 C2483 1.393 . S
C2487 C2486 1.391 1_556 S
H2488 C2496 0.950 . S
H2489 C2501 0.950 . S
H2490 C2498 0.950 . S
H2491 C2500 0.950 . S
H2492 C2502 0.950 . S
H2493 C2504 0.950 . S
H2494 C2506 0.950 . S
H2495 C2507 0.950 . S
C2496 H2488 0.950 . S
C2496 C2497 1.386 . S
C2496 C2498 1.391 . S
C2497 C2496 1.386 . S
C2497 C2501 1.393 . S
C2498 H2490 0.950 . S
C2498 C2496 1.391 . S
C2498 C2499 1.400 . S
C2499 C2498 1.400 . S
C2499 C2500 1.398 . S
C2499 C2505 1.491 . S
C2500 H2491 0.950 . S
C2500 C2499 1.398 . S
C2500 C2501 1.391 . S
C2501 H2489 0.950 . S
C2501 C2497 1.393 . S
C2501 C2500 1.391 . S
C2502 H2492 0.950 . S
C2502 C2503 1.386 . S
C2502 C2504 1.391 . S
C2503 C2502 1.386 . S
C2503 C2507 1.393 . S
C2504 H2493 0.950 . S
C2504 C2502 1.391 . S
C2504 C2505 1.400 . S
C2505 C2499 1.491 . S
C2505 C2504 1.400 . S
C2505 C2506 1.398 . S
C2506 H2494 0.950 . S
C2506 C2505 1.398 . S
C2506 C2507 1.391 . S
C2507 H2495 0.950 . S
C2507 C2503 1.393 . S
C2507 C2506 1.391 . S
H2508 C2516 0.950 . S
H2509 C2521 0.950 . S
H2510 C2518 0.950 . S
H2511 C2520 0.950 . S
H2512 C2522 0.950 . S
H2513 C2524 0.950 . S
H2514 C2526 0.950 . S
H2515 C2527 0.950 . S
C2516 H2508 0.950 . S
C2516 C2517 1.386 . S
C2516 C2518 1.391 . S
C2517 C2516 1.386 . S
C2517 C2521 1.393 . S
C2518 H2510 0.950 . S
C2518 C2516 1.391 . S
C2518 C2519 1.400 . S
C2519 C2518 1.400 . S
C2519 C2520 1.398 . S
C2519 C2525 1.491 . S
C2520 H2511 0.950 . S
C2520 C2519 1.398 . S
C2520 C2521 1.391 . S
C2521 H2509 0.950 . S
C2521 C2517 1.393 . S
C2521 C2520 1.391 . S
C2522 H2512 0.950 . S
C2522 C2523 1.386 . S
C2522 C2524 1.391 . S
C2523 C2522 1.386 . S
C2523 C2527 1.393 . S
C2524 H2513 0.950 . S
C2524 C2522 1.391 . S
C2524 C2525 1.400 . S
C2525 C2519 1.491 . S
C2525 C2524 1.400 . S
C2525 C2526 1.398 . S
C2526 H2514 0.950 . S
C2526 C2525 1.398 . S
C2526 C2527 1.391 . S
C2527 H2515 0.950 . S
C2527 C2523 1.393 . S
C2527 C2526 1.391 . S
H2528 C2536 0.950 . S
H2529 C2541 0.950 . S
H2530 C2538 0.950 . S
H2531 C2540 0.950 . S
H2532 C2542 0.950 . S
H2533 C2544 0.950 . S
H2534 C2546 0.950 . S
H2535 C2547 0.950 . S
C2536 H2528 0.950 . S
C2536 C2537 1.386 . S
C2536 C2538 1.391 . S
C2537 C2536 1.386 . S
C2537 C2541 1.393 . S
C2538 H2530 0.950 . S
C2538 C2536 1.391 . S
C2538 C2539 1.400 . S
C2539 C2538 1.400 . S
C2539 C2540 1.398 . S
C2539 C2545 1.491 . S
C2540 H2531 0.950 . S
C2540 C2539 1.398 . S
C2540 C2541 1.391 . S
C2541 H2529 0.950 . S
C2541 C2537 1.393 . S
C2541 C2540 1.391 . S
C2542 H2532 0.950 . S
C2542 C2543 1.386 . S
C2542 C2544 1.391 . S
C2543 C2542 1.386 . S
C2543 C2547 1.393 . S
C2544 H2533 0.950 . S
C2544 C2542 1.391 . S
C2544 C2545 1.400 . S
C2545 C2539 1.491 . S
C2545 C2544 1.400 . S
C2545 C2546 1.398 . S
C2546 H2534 0.950 . S
C2546 C2545 1.398 . S
C2546 C2547 1.391 . S
C2547 H2535 0.950 . S
C2547 C2543 1.393 . S
C2547 C2546 1.391 . S
H2548 C2556 0.950 . S
H2549 C2561 0.950 . S
H2550 C2558 0.950 . S
H2551 C2560 0.950 . S
H2552 C2562 0.950 . S
H2553 C2564 0.950 . S
H2554 C2566 0.950 . S
H2555 C2567 0.950 . S
C2556 H2548 0.950 . S
C2556 C2557 1.386 . S
C2556 C2558 1.391 . S
C2557 C2556 1.386 . S
C2557 C2561 1.393 . S
C2558 H2550 0.950 . S
C2558 C2556 1.391 . S
C2558 C2559 1.400 . S
C2559 C2558 1.400 . S
C2559 C2560 1.398 . S
C2559 C2565 1.491 . S
C2560 H2551 0.950 . S
C2560 C2559 1.398 . S
C2560 C2561 1.391 . S
C2561 H2549 0.950 . S
C2561 C2557 1.393 . S
C2561 C2560 1.391 . S
C2562 H2552 0.950 . S
C2562 C2563 1.386 . S
C2562 C2564 1.391 . S
C2563 C2562 1.386 . S
C2563 C2567 1.393 . S
C2564 H2553 0.950 . S
C2564 C2562 1.391 . S
C2564 C2565 1.400 . S
C2565 C2559 1.491 . S
C2565 C2564 1.400 . S
C2565 C2566 1.398 . S
C2566 H2554 0.950 . S
C2566 C2565 1.398 . S
C2566 C2567 1.391 . S
C2567 H2555 0.950 . S
C2567 C2563 1.393 . S
C2567 C2566 1.391 . S
H2568 C2576 0.950 . S
H2569 C2581 0.950 . S
H2570 C2578 0.950 . S
H2571 C2580 0.950 . S
H2572 C2582 0.950 . S
H2573 C2584 0.950 . S
H2574 C2586 0.950 . S
H2575 C2587 0.950 . S
C2576 H2568 0.950 . S
C2576 C2577 1.386 . S
C2576 C2578 1.391 . S
C2577 C2576 1.386 . S
C2577 C2581 1.393 . S
C2578 H2570 0.950 . S
C2578 C2576 1.391 . S
C2578 C2579 1.400 . S
C2579 C2578 1.400 . S
C2579 C2580 1.398 . S
C2579 C2585 1.491 . S
C2580 H2571 0.950 . S
C2580 C2579 1.398 . S
C2580 C2581 1.391 . S
C2581 H2569 0.950 . S
C2581 C2577 1.393 . S
C2581 C2580 1.391 . S
C2582 H2572 0.950 . S
C2582 C2583 1.386 1_565 S
C2582 C2584 1.391 . S
C2583 C2582 1.386 1_545 S
C2583 C2587 1.393 . S
C2584 H2573 0.950 . S
C2584 C2582 1.391 . S
C2584 C2585 1.400 . S
C2585 C2579 1.491 . S
C2585 C2584 1.400 . S
C2585 C2586 1.398 . S
C2586 H2574 0.950 . S
C2586 C2585 1.398 . S
C2586 C2587 1.391 1_565 S
C2587 H2575 0.950 . S
C2587 C2583 1.393 . S
C2587 C2586 1.391 1_545 S
H2588 C2596 0.950 . S
H2589 C2601 0.950 . S
H2590 C2598 0.950 . S
H2591 C2600 0.950 . S
H2592 C2602 0.950 . S
H2593 C2604 0.950 . S
H2594 C2606 0.950 . S
H2595 C2607 0.950 . S
C2596 H2588 0.950 . S
C2596 C2597 1.386 . S
C2596 C2598 1.391 . S
C2597 C2596 1.386 . S
C2597 C2601 1.393 . S
C2598 H2590 0.950 . S
C2598 C2596 1.391 . S
C2598 C2599 1.400 . S
C2599 C2598 1.400 . S
C2599 C2600 1.398 . S
C2599 C2605 1.491 . S
C2600 H2591 0.950 . S
C2600 C2599 1.398 . S
C2600 C2601 1.391 . S
C2601 H2589 0.950 . S
C2601 C2597 1.393 . S
C2601 C2600 1.391 . S
C2602 H2592 0.950 . S
C2602 C2603 1.386 . S
C2602 C2604 1.391 . S
C2603 C2602 1.386 . S
C2603 C2607 1.393 . S
C2604 H2593 0.950 . S
C2604 C2602 1.391 . S
C2604 C2605 1.400 . S
C2605 C2599 1.491 . S
C2605 C2604 1.400 . S
C2605 C2606 1.398 . S
C2606 H2594 0.950 . S
C2606 C2605 1.398 . S
C2606 C2607 1.391 . S
C2607 H2595 0.950 . S
C2607 C2603 1.393 . S
C2607 C2606 1.391 . S
H2608 C2616 0.950 . S
H2609 C2621 0.950 . S
H2610 C2618 0.950 . S
H2611 C2620 0.950 . S
H2612 C2622 0.950 . S
H2613 C2624 0.950 . S
H2614 C2626 0.950 . S
H2615 C2627 0.950 . S
C2616 H2608 0.950 . S
C2616 C2617 1.386 . S
C2616 C2618 1.391 . S
C2617 C2616 1.386 . S
C2617 C2621 1.393 . S
C2618 H2610 0.950 . S
C2618 C2616 1.391 . S
C2618 C2619 1.400 . S
C2619 C2618 1.400 . S
C2619 C2620 1.398 . S
C2619 C2625 1.491 . S
C2620 H2611 0.950 . S
C2620 C2619 1.398 . S
C2620 C2621 1.391 . S
C2621 H2609 0.950 . S
C2621 C2617 1.393 . S
C2621 C2620 1.391 . S
C2622 H2612 0.950 . S
C2622 C2623 1.386 . S
C2622 C2624 1.391 . S
C2623 C2622 1.386 . S
C2623 C2627 1.393 . S
C2624 H2613 0.950 . S
C2624 C2622 1.391 . S
C2624 C2625 1.400 . S
C2625 C2619 1.491 . S
C2625 C2624 1.400 . S
C2625 C2626 1.398 . S
C2626 H2614 0.950 . S
C2626 C2625 1.398 . S
C2626 C2627 1.391 . S
C2627 H2615 0.950 . S
C2627 C2623 1.393 . S
C2627 C2626 1.391 . S
H2628 C2636 0.950 . S
H2629 C2641 0.950 . S
H2630 C2638 0.950 . S
H2631 C2640 0.950 . S
H2632 C2642 0.950 . S
H2633 C2644 0.950 . S
H2634 C2646 0.950 . S
H2635 C2647 0.950 . S
C2636 H2628 0.950 . S
C2636 C2637 1.386 . S
C2636 C2638 1.391 . S
C2637 C2636 1.386 . S
C2637 C2641 1.393 . S
C2638 H2630 0.950 . S
C2638 C2636 1.391 . S
C2638 C2639 1.400 . S
C2639 C2638 1.400 . S
C2639 C2640 1.398 . S
C2639 C2645 1.491 . S
C2640 H2631 0.950 . S
C2640 C2639 1.398 . S
C2640 C2641 1.391 . S
C2641 H2629 0.950 . S
C2641 C2637 1.393 . S
C2641 C2640 1.391 . S
C2642 H2632 0.950 . S
C2642 C2643 1.386 . S
C2642 C2644 1.391 . S
C2643 C2642 1.386 . S
C2643 C2647 1.393 . S
C2644 H2633 0.950 . S
C2644 C2642 1.391 . S
C2644 C2645 1.400 . S
C2645 C2639 1.491 . S
C2645 C2644 1.400 . S
C2645 C2646 1.398 . S
C2646 H2634 0.950 . S
C2646 C2645 1.398 . S
C2646 C2647 1.391 . S
C2647 H2635 0.950 . S
C2647 C2643 1.393 . S
C2647 C2646 1.391 . S
H2648 C2656 0.950 . S
H2649 C2661 0.950 . S
H2650 C2658 0.950 . S
H2651 C2660 0.950 . S
H2652 C2662 0.950 . S
H2653 C2664 0.950 . S
H2654 C2666 0.950 . S
H2655 C2667 0.950 . S
C2656 H2648 0.950 . S
C2656 C2657 1.386 1_545 S
C2656 C2658 1.391 . S
C2657 C2656 1.386 1_565 S
C2657 C2661 1.393 . S
C2658 H2650 0.950 . S
C2658 C2656 1.391 . S
C2658 C2659 1.400 . S
C2659 C2658 1.400 . S
C2659 C2660 1.398 . S
C2659 C2665 1.491 . S
C2660 H2651 0.950 . S
C2660 C2659 1.398 . S
C2660 C2661 1.391 1_545 S
C2661 H2649 0.950 . S
C2661 C2657 1.393 . S
C2661 C2660 1.391 1_565 S
C2662 H2652 0.950 . S
C2662 C2663 1.386 . S
C2662 C2664 1.391 . S
C2663 C2662 1.386 . S
C2663 C2667 1.393 . S
C2664 H2653 0.950 . S
C2664 C2662 1.391 . S
C2664 C2665 1.400 . S
C2665 C2659 1.491 . S
C2665 C2664 1.400 . S
C2665 C2666 1.398 . S
C2666 H2654 0.950 . S
C2666 C2665 1.398 . S
C2666 C2667 1.391 . S
C2667 H2655 0.950 . S
C2667 C2663 1.393 . S
C2667 C2666 1.391 . S
H2668 C2676 0.934 1_545 S
H2669 C2681 0.950 . S
H2670 C2678 0.950 . S
H2671 C2680 0.950 . S
H2672 C2682 0.950 . S
H2673 C2684 0.950 . S
H2674 C2686 0.950 . S
H2675 C2687 0.950 . S
C2676 H2668 0.934 1_565 S
C2676 C2677 1.386 1_565 S
C2676 C2678 1.391 . S
C2677 C2676 1.386 1_545 S
C2677 C2681 1.393 1_545 S
C2678 H2670 0.950 . S
C2678 C2676 1.391 . S
C2678 C2679 1.400 . S
C2679 C2678 1.400 . S
C2679 C2680 1.398 . S
C2679 C2685 1.491 . S
C2680 H2671 0.950 . S
C2680 C2679 1.398 . S
C2680 C2681 1.391 . S
C2681 H2669 0.950 . S
C2681 C2677 1.393 1_565 S
C2681 C2680 1.391 . S
C2682 H2672 0.950 . S
C2682 C2683 1.386 . S
C2682 C2684 1.391 . S
C2683 C2682 1.386 . S
C2683 C2687 1.393 . S
C2684 H2673 0.950 . S
C2684 C2682 1.391 . S
C2684 C2685 1.400 . S
C2685 C2679 1.491 . S
C2685 C2684 1.400 . S
C2685 C2686 1.398 . S
C2686 H2674 0.950 . S
C2686 C2685 1.398 . S
C2686 C2687 1.391 . S
C2687 H2675 0.950 . S
C2687 C2683 1.393 . S
C2687 C2686 1.391 . S
H2688 C2696 0.950 . S
H2689 C2701 0.950 . S
H2690 C2698 0.950 . S
H2691 C2700 0.950 . S
H2692 C2702 0.950 . S
H2693 C2704 0.950 . S
H2694 C2706 0.950 . S
H2695 C2707 0.950 . S
C2696 H2688 0.950 . S
C2696 C2697 1.386 . S
C2696 C2698 1.391 . S
C2697 C2696 1.386 . S
C2697 C2701 1.393 . S
C2698 H2690 0.950 . S
C2698 C2696 1.391 . S
C2698 C2699 1.400 . S
C2699 C2698 1.400 . S
C2699 C2700 1.398 . S
C2699 C2705 1.491 . S
C2700 H2691 0.950 . S
C2700 C2699 1.398 . S
C2700 C2701 1.391 . S
C2701 H2689 0.950 . S
C2701 C2697 1.393 . S
C2701 C2700 1.391 . S
C2702 H2692 0.950 . S
C2702 C2703 1.386 . S
C2702 C2704 1.391 . S
C2703 C2702 1.386 . S
C2703 C2707 1.393 . S
C2704 H2693 0.950 . S
C2704 C2702 1.391 . S
C2704 C2705 1.400 . S
C2705 C2699 1.491 . S
C2705 C2704 1.400 . S
C2705 C2706 1.398 . S
C2706 H2694 0.950 . S
C2706 C2705 1.398 . S
C2706 C2707 1.391 . S
C2707 H2695 0.950 . S
C2707 C2703 1.393 . S
C2707 C2706 1.391 . S
H2708 C2716 0.950 . S
H2709 C2721 0.950 . S
H2710 C2718 0.950 . S
H2711 C2720 0.950 . S
H2712 C2722 0.950 . S
H2713 C2724 0.950 . S
H2714 C2726 0.950 . S
H2715 C2727 0.950 . S
C2716 H2708 0.950 . S
C2716 C2717 1.386 . S
C2716 C2718 1.391 . S
C2717 C2716 1.386 . S
C2717 C2721 1.393 . S
C2718 H2710 0.950 . S
C2718 C2716 1.391 . S
C2718 C2719 1.400 . S
C2719 C2718 1.400 . S
C2719 C2720 1.398 . S
C2719 C2725 1.491 . S
C2720 H2711 0.950 . S
C2720 C2719 1.398 . S
C2720 C2721 1.391 . S
C2721 H2709 0.950 . S
C2721 C2717 1.393 . S
C2721 C2720 1.391 . S
C2722 H2712 0.950 . S
C2722 C2723 1.386 . S
C2722 C2724 1.391 . S
C2723 C2722 1.386 . S
C2723 C2727 1.393 . S
C2724 H2713 0.950 . S
C2724 C2722 1.391 . S
C2724 C2725 1.400 . S
C2725 C2719 1.491 . S
C2725 C2724 1.400 . S
C2725 C2726 1.398 . S
C2726 H2714 0.950 . S
C2726 C2725 1.398 . S
C2726 C2727 1.391 . S
C2727 H2715 0.950 . S
C2727 C2723 1.393 . S
C2727 C2726 1.391 . S
H2728 C2736 0.950 . S
H2729 C2741 0.950 . S
H2730 C2738 0.950 . S
H2731 C2740 0.950 . S
H2732 C2742 0.950 . S
H2733 C2744 0.950 . S
H2734 C2746 0.950 . S
H2735 C2747 0.950 . S
C2736 H2728 0.950 . S
C2736 C2737 1.386 . S
C2736 C2738 1.391 . S
C2737 C2736 1.386 . S
C2737 C2741 1.393 . S
C2738 H2730 0.950 . S
C2738 C2736 1.391 . S
C2738 C2739 1.400 . S
C2739 C2738 1.400 . S
C2739 C2740 1.398 . S
C2739 C2745 1.491 . S
C2740 H2731 0.950 . S
C2740 C2739 1.398 . S
C2740 C2741 1.391 . S
C2741 H2729 0.950 . S
C2741 C2737 1.393 . S
C2741 C2740 1.391 . S
C2742 H2732 0.950 . S
C2742 C2743 1.386 . S
C2742 C2744 1.391 . S
C2743 C2742 1.386 . S
C2743 C2747 1.393 . S
C2744 H2733 0.950 . S
C2744 C2742 1.391 . S
C2744 C2745 1.400 . S
C2745 C2739 1.491 . S
C2745 C2744 1.400 . S
C2745 C2746 1.398 . S
C2746 H2734 0.950 . S
C2746 C2745 1.398 . S
C2746 C2747 1.391 . S
C2747 H2735 0.950 . S
C2747 C2743 1.393 . S
C2747 C2746 1.391 . S
H2748 C2756 0.950 . S
H2749 C2761 0.950 . S
H2750 C2758 0.950 . S
H2751 C2760 0.950 . S
H2752 C2762 0.963 . S
H2753 C2764 0.950 . S
H2754 C2766 0.950 . S
H2755 C2767 0.950 . S
C2756 H2748 0.950 . S
C2756 C2757 1.386 . S
C2756 C2758 1.391 . S
C2757 C2756 1.386 . S
C2757 C2761 1.393 . S
C2758 H2750 0.950 . S
C2758 C2756 1.391 . S
C2758 C2759 1.400 . S
C2759 C2758 1.400 . S
C2759 C2760 1.398 . S
C2759 C2765 1.491 . S
C2760 H2751 0.950 . S
C2760 C2759 1.398 . S
C2760 C2761 1.391 . S
C2761 H2749 0.950 . S
C2761 C2757 1.393 . S
C2761 C2760 1.391 . S
C2762 H2752 0.963 . S
C2762 C2763 1.387 . S
C2762 C2764 1.376 1_655 S
C2763 C2762 1.387 . S
C2763 C2767 1.393 1_655 S
C2764 H2753 0.950 . S
C2764 C2762 1.376 1_455 S
C2764 C2765 1.400 . S
C2765 C2759 1.491 . S
C2765 C2764 1.400 . S
C2765 C2766 1.398 . S
C2766 H2754 0.950 . S
C2766 C2765 1.398 . S
C2766 C2767 1.391 . S
C2767 H2755 0.950 . S
C2767 C2763 1.393 1_455 S
C2767 C2766 1.391 . S
H2768 C2776 0.950 . S
H2769 C2781 0.950 . S
H2770 C2778 0.950 . S
H2771 C2780 0.950 . S
H2772 C2782 0.950 . S
H2773 C2784 0.950 . S
H2774 C2786 0.950 . S
H2775 C2787 0.950 . S
C2776 H2768 0.950 . S
C2776 C2777 1.386 . S
C2776 C2778 1.391 . S
C2777 C2776 1.386 . S
C2777 C2781 1.393 . S
C2778 H2770 0.950 . S
C2778 C2776 1.391 . S
C2778 C2779 1.400 . S
C2779 C2778 1.400 . S
C2779 C2780 1.398 . S
C2779 C2785 1.491 . S
C2780 H2771 0.950 . S
C2780 C2779 1.398 . S
C2780 C2781 1.391 . S
C2781 H2769 0.950 . S
C2781 C2777 1.393 . S
C2781 C2780 1.391 . S
C2782 H2772 0.950 . S
C2782 C2783 1.386 . S
C2782 C2784 1.391 . S
C2783 C2782 1.386 . S
C2783 C2787 1.393 . S
C2784 H2773 0.950 . S
C2784 C2782 1.391 . S
C2784 C2785 1.400 . S
C2785 C2779 1.491 . S
C2785 C2784 1.400 . S
C2785 C2786 1.398 . S
C2786 H2774 0.950 . S
C2786 C2785 1.398 . S
C2786 C2787 1.391 . S
C2787 H2775 0.950 . S
C2787 C2783 1.393 . S
C2787 C2786 1.391 . S
H2788 C2796 0.950 . S
H2789 C2801 0.950 . S
H2790 C2798 0.950 . S
H2791 C2800 0.950 . S
H2792 C2802 0.950 . S
H2793 C2804 0.950 . S
H2794 C2806 0.950 . S
H2795 C2807 0.950 . S
C2796 H2788 0.950 . S
C2796 C2797 1.386 . S
C2796 C2798 1.391 1_655 S
C2797 C2796 1.386 . S
C2797 C2801 1.393 1_655 S
C2798 H2790 0.950 . S
C2798 C2796 1.391 1_455 S
C2798 C2799 1.400 . S
C2799 C2798 1.400 . S
C2799 C2800 1.398 . S
C2799 C2805 1.491 . S
C2800 H2791 0.950 . S
C2800 C2799 1.398 . S
C2800 C2801 1.391 . S
C2801 H2789 0.950 . S
C2801 C2797 1.393 1_455 S
C2801 C2800 1.391 . S
C2802 H2792 0.950 . S
C2802 C2803 1.386 . S
C2802 C2804 1.391 . S
C2803 C2802 1.386 . S
C2803 C2807 1.393 . S
C2804 H2793 0.950 . S
C2804 C2802 1.391 . S
C2804 C2805 1.400 . S
C2805 C2799 1.491 . S
C2805 C2804 1.400 . S
C2805 C2806 1.398 . S
C2806 H2794 0.950 . S
C2806 C2805 1.398 . S
C2806 C2807 1.391 . S
C2807 H2795 0.950 . S
C2807 C2803 1.393 . S
C2807 C2806 1.391 . S
H2808 C2816 0.950 . S
H2809 C2821 0.950 . S
H2810 C2818 0.950 . S
H2811 C2820 0.950 . S
H2812 C2822 0.950 . S
H2813 C2824 0.950 . S
H2814 C2826 0.950 . S
H2815 C2827 0.950 . S
C2816 H2808 0.950 . S
C2816 C2817 1.386 . S
C2816 C2818 1.391 . S
C2817 C2816 1.386 . S
C2817 C2821 1.393 . S
C2818 H2810 0.950 . S
C2818 C2816 1.391 . S
C2818 C2819 1.400 . S
C2819 C2818 1.400 . S
C2819 C2820 1.398 . S
C2819 C2825 1.491 . S
C2820 H2811 0.950 . S
C2820 C2819 1.398 . S
C2820 C2821 1.391 . S
C2821 H2809 0.950 . S
C2821 C2817 1.393 . S
C2821 C2820 1.391 . S
C2822 H2812 0.950 . S
C2822 C2823 1.386 . S
C2822 C2824 1.391 . S
C2823 C2822 1.386 . S
C2823 C2827 1.393 . S
C2824 H2813 0.950 . S
C2824 C2822 1.391 . S
C2824 C2825 1.400 . S
C2825 C2819 1.491 . S
C2825 C2824 1.400 . S
C2825 C2826 1.398 . S
C2826 H2814 0.950 . S
C2826 C2825 1.398 . S
C2826 C2827 1.391 . S
C2827 H2815 0.950 . S
C2827 C2823 1.393 . S
C2827 C2826 1.391 . S
H2828 C2836 0.950 . S
H2829 C2841 0.950 . S
H2830 C2838 0.950 . S
H2831 C2840 0.950 . S
H2832 C2842 0.950 . S
H2833 C2844 0.950 . S
H2834 C2846 0.950 . S
H2835 C2847 0.950 . S
C2836 H2828 0.950 . S
C2836 C2837 1.386 . S
C2836 C2838 1.391 . S
C2837 C2836 1.386 . S
C2837 C2841 1.393 . S
C2838 H2830 0.950 . S
C2838 C2836 1.391 . S
C2838 C2839 1.400 . S
C2839 C2838 1.400 . S
C2839 C2840 1.398 . S
C2839 C2845 1.491 . S
C2840 H2831 0.950 . S
C2840 C2839 1.398 . S
C2840 C2841 1.391 . S
C2841 H2829 0.950 . S
C2841 C2837 1.393 . S
C2841 C2840 1.391 . S
C2842 H2832 0.950 . S
C2842 C2843 1.386 . S
C2842 C2844 1.391 . S
C2843 C2842 1.386 . S
C2843 C2847 1.393 . S
C2844 H2833 0.950 . S
C2844 C2842 1.391 . S
C2844 C2845 1.400 . S
C2845 C2839 1.491 . S
C2845 C2844 1.400 . S
C2845 C2846 1.398 . S
C2846 H2834 0.950 . S
C2846 C2845 1.398 . S
C2846 C2847 1.391 . S
C2847 H2835 0.950 . S
C2847 C2843 1.393 . S
C2847 C2846 1.391 . S
H2848 C2856 0.950 . S
H2849 C2861 0.950 . S
H2850 C2858 0.950 . S
H2851 C2860 0.950 . S
H2852 C2862 0.950 . S
H2853 C2864 0.950 . S
H2854 C2866 0.950 . S
H2855 C2867 0.950 . S
C2856 H2848 0.950 . S
C2856 C2857 1.386 . S
C2856 C2858 1.391 . S
C2857 C2856 1.386 . S
C2857 C2861 1.393 . S
C2858 H2850 0.950 . S
C2858 C2856 1.391 . S
C2858 C2859 1.400 . S
C2859 C2858 1.400 . S
C2859 C2860 1.398 . S
C2859 C2865 1.491 . S
C2860 H2851 0.950 . S
C2860 C2859 1.398 . S
C2860 C2861 1.391 . S
C2861 H2849 0.950 . S
C2861 C2857 1.393 . S
C2861 C2860 1.391 . S
C2862 H2852 0.950 . S
C2862 C2863 1.386 . S
C2862 C2864 1.391 . S
C2863 C2862 1.386 . S
C2863 C2867 1.393 . S
C2864 H2853 0.950 . S
C2864 C2862 1.391 . S
C2864 C2865 1.400 . S
C2865 C2859 1.491 . S
C2865 C2864 1.400 . S
C2865 C2866 1.398 . S
C2866 H2854 0.950 . S
C2866 C2865 1.398 . S
C2866 C2867 1.391 . S
C2867 H2855 0.950 . S
C2867 C2863 1.393 . S
C2867 C2866 1.391 . S
H2868 C2876 0.954 1_556 S
H2869 C2881 0.950 . S
H2870 C2878 0.950 . S
H2871 C2880 0.950 . S
H2872 C2882 0.950 . S
H2873 C2884 0.950 . S
H2874 C2886 0.950 . S
H2875 C2887 0.950 . S
C2876 H2868 0.954 1_554 S
C2876 C2877 1.386 1_554 S
C2876 C2878 1.387 . S
C2877 C2876 1.386 1_556 S
C2877 C2881 1.393 1_556 S
C2878 H2870 0.950 . S
C2878 C2876 1.387 . S
C2878 C2879 1.400 . S
C2879 C2878 1.400 . S
C2879 C2880 1.398 . S
C2879 C2885 1.491 . S
C2880 H2871 0.950 . S
C2880 C2879 1.398 . S
C2880 C2881 1.391 . S
C2881 H2869 0.950 . S
C2881 C2877 1.393 1_554 S
C2881 C2880 1.391 . S
C2882 H2872 0.950 . S
C2882 C2883 1.386 . S
C2882 C2884 1.391 . S
C2883 C2882 1.386 . S
C2883 C2887 1.393 . S
C2884 H2873 0.950 . S
C2884 C2882 1.391 . S
C2884 C2885 1.400 . S
C2885 C2879 1.491 . S
C2885 C2884 1.400 . S
C2885 C2886 1.398 . S
C2886 H2874 0.950 . S
C2886 C2885 1.398 . S
C2886 C2887 1.391 . S
C2887 H2875 0.950 . S
C2887 C2883 1.393 . S
C2887 C2886 1.391 . S
H2888 C2896 0.950 . S
H2889 C2901 0.950 . S
H2890 C2898 0.950 . S
H2891 C2900 0.950 . S
H2892 C2902 0.950 . S
H2893 C2904 0.950 . S
H2894 C2906 0.950 . S
H2895 C2907 0.950 . S
C2896 H2888 0.950 . S
C2896 C2897 1.386 . S
C2896 C2898 1.391 . S
C2897 C2896 1.386 . S
C2897 C2901 1.393 . S
C2898 H2890 0.950 . S
C2898 C2896 1.391 . S
C2898 C2899 1.400 . S
C2899 C2898 1.400 . S
C2899 C2900 1.398 . S
C2899 C2905 1.491 . S
C2900 H2891 0.950 . S
C2900 C2899 1.398 . S
C2900 C2901 1.391 . S
C2901 H2889 0.950 . S
C2901 C2897 1.393 . S
C2901 C2900 1.391 . S
C2902 H2892 0.950 . S
C2902 C2903 1.386 . S
C2902 C2904 1.391 . S
C2903 C2902 1.386 . S
C2903 C2907 1.393 . S
C2904 H2893 0.950 . S
C2904 C2902 1.391 . S
C2904 C2905 1.400 . S
C2905 C2899 1.491 . S
C2905 C2904 1.400 . S
C2905 C2906 1.398 . S
C2906 H2894 0.950 . S
C2906 C2905 1.398 . S
C2906 C2907 1.391 . S
C2907 H2895 0.950 . S
C2907 C2903 1.393 . S
C2907 C2906 1.391 . S
H2908 C2916 0.950 . S
H2909 C2921 0.950 . S
H2910 C2918 0.950 . S
H2911 C2920 0.950 . S
H2912 C2922 0.950 . S
H2913 C2924 0.950 . S
H2914 C2926 0.950 . S
H2915 C2927 0.950 . S
C2916 H2908 0.950 . S
C2916 C2917 1.386 . S
C2916 C2918 1.391 . S
C2917 C2916 1.386 . S
C2917 C2921 1.393 . S
C2918 H2910 0.950 . S
C2918 C2916 1.391 . S
C2918 C2919 1.400 . S
C2919 C2918 1.400 . S
C2919 C2920 1.398 . S
C2919 C2925 1.491 . S
C2920 H2911 0.950 . S
C2920 C2919 1.398 . S
C2920 C2921 1.391 . S
C2921 H2909 0.950 . S
C2921 C2917 1.393 . S
C2921 C2920 1.391 . S
C2922 H2912 0.950 . S
C2922 C2923 1.386 . S
C2922 C2924 1.391 . S
C2923 C2922 1.386 . S
C2923 C2927 1.393 . S
C2924 H2913 0.950 . S
C2924 C2922 1.391 . S
C2924 C2925 1.400 . S
C2925 C2919 1.491 . S
C2925 C2924 1.400 . S
C2925 C2926 1.398 . S
C2926 H2914 0.950 . S
C2926 C2925 1.398 . S
C2926 C2927 1.391 . S
C2927 H2915 0.950 . S
C2927 C2923 1.393 . S
C2927 C2926 1.391 . S
H2928 C2936 0.950 . S
H2929 C2941 0.950 . S
H2930 C2938 0.950 . S
H2931 C2940 0.950 . S
H2932 C2942 0.950 . S
H2933 C2944 0.950 . S
H2934 C2946 0.950 . S
H2935 C2947 0.950 . S
C2936 H2928 0.950 . S
C2936 C2937 1.386 . S
C2936 C2938 1.391 . S
C2937 C2936 1.386 . S
C2937 C2941 1.393 . S
C2938 H2930 0.950 . S
C2938 C2936 1.391 . S
C2938 C2939 1.400 . S
C2939 C2938 1.400 . S
C2939 C2940 1.398 . S
C2939 C2945 1.491 . S
C2940 H2931 0.950 . S
C2940 C2939 1.398 . S
C2940 C2941 1.391 . S
C2941 H2929 0.950 . S
C2941 C2937 1.393 . S
C2941 C2940 1.391 . S
C2942 H2932 0.950 . S
C2942 C2943 1.386 . S
C2942 C2944 1.391 . S
C2943 C2942 1.386 . S
C2943 C2947 1.393 . S
C2944 H2933 0.950 . S
C2944 C2942 1.391 . S
C2944 C2945 1.400 . S
C2945 C2939 1.491 . S
C2945 C2944 1.400 . S
C2945 C2946 1.398 . S
C2946 H2934 0.950 . S
C2946 C2945 1.398 . S
C2946 C2947 1.391 . S
C2947 H2935 0.950 . S
C2947 C2943 1.393 . S
C2947 C2946 1.391 . S
H2948 C2956 0.950 . S
H2949 C2961 0.950 . S
H2950 C2958 0.950 . S
H2951 C2960 0.950 . S
H2952 C2962 0.950 . S
H2953 C2964 0.950 . S
H2954 C2966 0.950 . S
H2955 C2967 0.950 . S
C2956 H2948 0.950 . S
C2956 C2957 1.386 1_556 S
C2956 C2958 1.391 . S
C2957 C2956 1.386 1_554 S
C2957 C2961 1.393 . S
C2958 H2950 0.950 . S
C2958 C2956 1.391 . S
C2958 C2959 1.400 . S
C2959 C2958 1.400 . S
C2959 C2960 1.398 . S
C2959 C2965 1.491 . S
C2960 H2951 0.950 . S
C2960 C2959 1.398 . S
C2960 C2961 1.391 1_556 S
C2961 H2949 0.950 . S
C2961 C2957 1.393 . S
C2961 C2960 1.391 1_554 S
C2962 H2952 0.950 . S
C2962 C2963 1.386 . S
C2962 C2964 1.391 . S
C2963 C2962 1.386 . S
C2963 C2967 1.393 . S
C2964 H2953 0.950 . S
C2964 C2962 1.391 . S
C2964 C2965 1.400 . S
C2965 C2959 1.491 . S
C2965 C2964 1.400 . S
C2965 C2966 1.398 . S
C2966 H2954 0.950 . S
C2966 C2965 1.398 . S
C2966 C2967 1.391 . S
C2967 H2955 0.950 . S
C2967 C2963 1.393 . S
C2967 C2966 1.391 . S
H2968 C2976 0.950 . S
H2969 C2981 0.950 . S
H2970 C2978 0.950 . S
H2971 C2980 0.950 . S
H2972 C2982 0.950 . S
H2973 C2984 0.950 . S
H2974 C2986 0.950 . S
H2975 C2987 0.950 . S
C2976 H2968 0.950 . S
C2976 C2977 1.386 . S
C2976 C2978 1.391 . S
C2977 C2976 1.386 . S
C2977 C2981 1.393 . S
C2978 H2970 0.950 . S
C2978 C2976 1.391 . S
C2978 C2979 1.400 . S
C2979 C2978 1.400 . S
C2979 C2980 1.398 . S
C2979 C2985 1.491 . S
C2980 H2971 0.950 . S
C2980 C2979 1.398 . S
C2980 C2981 1.391 . S
C2981 H2969 0.950 . S
C2981 C2977 1.393 . S
C2981 C2980 1.391 . S
C2982 H2972 0.950 . S
C2982 C2983 1.386 . S
C2982 C2984 1.391 . S
C2983 C2982 1.386 . S
C2983 C2987 1.393 . S
C2984 H2973 0.950 . S
C2984 C2982 1.391 . S
C2984 C2985 1.400 . S
C2985 C2979 1.491 . S
C2985 C2984 1.400 . S
C2985 C2986 1.398 . S
C2986 H2974 0.950 . S
C2986 C2985 1.398 . S
C2986 C2987 1.391 . S
C2987 H2975 0.950 . S
C2987 C2983 1.393 . S
C2987 C2986 1.391 . S
H2988 C2996 0.950 . S
H2989 C3001 0.950 . S
H2990 C2998 0.950 . S
H2991 C3000 0.950 . S
H2992 C3002 0.950 . S
H2993 C3004 0.950 . S
H2994 C3006 0.950 . S
H2995 C3007 0.950 . S
C2996 H2988 0.950 . S
C2996 C2997 1.386 . S
C2996 C2998 1.391 . S
C2997 C2996 1.386 . S
C2997 C3001 1.393 . S
C2998 H2990 0.950 . S
C2998 C2996 1.391 . S
C2998 C2999 1.400 . S
C2999 C2998 1.400 . S
C2999 C3000 1.398 . S
C2999 C3005 1.491 . S
C3000 H2991 0.950 . S
C3000 C2999 1.398 . S
C3000 C3001 1.391 . S
C3001 H2989 0.950 . S
C3001 C2997 1.393 . S
C3001 C3000 1.391 . S
C3002 H2992 0.950 . S
C3002 C3003 1.386 . S
C3002 C3004 1.391 . S
C3003 C3002 1.386 . S
C3003 C3007 1.393 . S
C3004 H2993 0.950 . S
C3004 C3002 1.391 . S
C3004 C3005 1.400 . S
C3005 C2999 1.491 . S
C3005 C3004 1.400 . S
C3005 C3006 1.398 . S
C3006 H2994 0.950 . S
C3006 C3005 1.398 . S
C3006 C3007 1.391 . S
C3007 H2995 0.950 . S
C3007 C3003 1.393 . S
C3007 C3006 1.391 . S
H3008 C3016 0.950 . S
H3009 C3021 0.950 . S
H3010 C3018 0.950 . S
H3011 C3020 0.950 . S
H3012 C3022 0.950 . S
H3013 C3024 0.950 . S
H3014 C3026 0.950 . S
H3015 C3027 0.950 . S
C3016 H3008 0.950 . S
C3016 C3017 1.386 . S
C3016 C3018 1.391 . S
C3017 C3016 1.386 . S
C3017 C3021 1.393 . S
C3018 H3010 0.950 . S
C3018 C3016 1.391 . S
C3018 C3019 1.400 . S
C3019 C3018 1.400 . S
C3019 C3020 1.398 . S
C3019 C3025 1.491 . S
C3020 H3011 0.950 . S
C3020 C3019 1.398 . S
C3020 C3021 1.391 . S
C3021 H3009 0.950 . S
C3021 C3017 1.393 . S
C3021 C3020 1.391 . S
C3022 H3012 0.950 . S
C3022 C3023 1.386 . S
C3022 C3024 1.391 . S
C3023 C3022 1.386 . S
C3023 C3027 1.393 . S
C3024 H3013 0.950 . S
C3024 C3022 1.391 . S
C3024 C3025 1.400 . S
C3025 C3019 1.491 . S
C3025 C3024 1.400 . S
C3025 C3026 1.398 . S
C3026 H3014 0.950 . S
C3026 C3025 1.398 . S
C3026 C3027 1.391 . S
C3027 H3015 0.950 . S
C3027 C3023 1.393 . S
C3027 C3026 1.391 . S
H3028 C3036 0.950 . S
H3029 C3041 0.950 . S
H3030 C3038 0.950 . S
H3031 C3040 0.950 . S
H3032 C3042 0.950 . S
H3033 C3044 0.950 . S
H3034 C3046 0.950 . S
H3035 C3047 0.950 . S
C3036 H3028 0.950 . S
C3036 C3037 1.386 . S
C3036 C3038 1.391 . S
C3037 C3036 1.386 . S
C3037 C3041 1.393 . S
C3038 H3030 0.950 . S
C3038 C3036 1.391 . S
C3038 C3039 1.400 . S
C3039 C3038 1.400 . S
C3039 C3040 1.398 . S
C3039 C3045 1.491 . S
C3040 H3031 0.950 . S
C3040 C3039 1.398 . S
C3040 C3041 1.391 . S
C3041 H3029 0.950 . S
C3041 C3037 1.393 . S
C3041 C3040 1.391 . S
C3042 H3032 0.950 . S
C3042 C3043 1.386 . S
C3042 C3044 1.391 . S
C3043 C3042 1.386 . S
C3043 C3047 1.393 . S
C3044 H3033 0.950 . S
C3044 C3042 1.391 . S
C3044 C3045 1.400 . S
C3045 C3039 1.491 . S
C3045 C3044 1.400 . S
C3045 C3046 1.398 . S
C3046 H3034 0.950 . S
C3046 C3045 1.398 . S
C3046 C3047 1.391 . S
C3047 H3035 0.950 . S
C3047 C3043 1.393 . S
C3047 C3046 1.391 . S
H3048 C3056 0.950 . S
H3049 C3061 0.950 . S
H3050 C3058 0.950 . S
H3051 C3060 0.950 . S
H3052 C3062 0.950 . S
H3053 C3064 0.950 . S
H3054 C3066 0.950 . S
H3055 C3067 0.950 . S
C3056 H3048 0.950 . S
C3056 C3057 1.386 1_545 S
C3056 C3058 1.391 . S
C3057 C3056 1.386 1_565 S
C3057 C3061 1.393 . S
C3058 H3050 0.950 . S
C3058 C3056 1.391 . S
C3058 C3059 1.400 . S
C3059 C3058 1.400 . S
C3059 C3060 1.398 . S
C3059 C3065 1.491 . S
C3060 H3051 0.950 . S
C3060 C3059 1.398 . S
C3060 C3061 1.391 1_545 S
C3061 H3049 0.950 . S
C3061 C3057 1.393 . S
C3061 C3060 1.391 1_565 S
C3062 H3052 0.950 . S
C3062 C3063 1.386 . S
C3062 C3064 1.391 . S
C3063 C3062 1.386 . S
C3063 C3067 1.393 . S
C3064 H3053 0.950 . S
C3064 C3062 1.391 . S
C3064 C3065 1.400 . S
C3065 C3059 1.491 . S
C3065 C3064 1.400 . S
C3065 C3066 1.398 . S
C3066 H3054 0.950 . S
C3066 C3065 1.398 . S
C3066 C3067 1.391 . S
C3067 H3055 0.950 . S
C3067 C3063 1.393 . S
C3067 C3066 1.391 . S
H3068 C3076 0.950 . S
H3069 C3081 0.950 . S
H3070 C3078 0.950 . S
H3071 C3080 0.950 . S
H3072 C3082 0.950 . S
H3073 C3084 0.950 . S
H3074 C3086 0.950 . S
H3075 C3087 0.950 . S
C3076 H3068 0.950 . S
C3076 C3077 1.386 . S
C3076 C3078 1.391 . S
C3077 C3076 1.386 . S
C3077 C3081 1.393 . S
C3078 H3070 0.950 . S
C3078 C3076 1.391 . S
C3078 C3079 1.400 . S
C3079 C3078 1.400 . S
C3079 C3080 1.398 . S
C3079 C3085 1.491 . S
C3080 H3071 0.950 . S
C3080 C3079 1.398 . S
C3080 C3081 1.391 . S
C3081 H3069 0.950 . S
C3081 C3077 1.393 . S
C3081 C3080 1.391 . S
C3082 H3072 0.950 . S
C3082 C3083 1.386 . S
C3082 C3084 1.391 . S
C3083 C3082 1.386 . S
C3083 C3087 1.393 . S
C3084 H3073 0.950 . S
C3084 C3082 1.391 . S
C3084 C3085 1.400 . S
C3085 C3079 1.491 . S
C3085 C3084 1.400 . S
C3085 C3086 1.398 . S
C3086 H3074 0.950 . S
C3086 C3085 1.398 . S
C3086 C3087 1.391 . S
C3087 H3075 0.950 . S
C3087 C3083 1.393 . S
C3087 C3086 1.391 . S
H3088 C3096 0.950 . S
H3089 C3101 0.950 . S
H3090 C3098 0.950 . S
H3091 C3100 0.950 . S
H3092 C3102 0.950 . S
H3093 C3104 0.950 . S
H3094 C3106 0.950 . S
H3095 C3107 0.950 . S
C3096 H3088 0.950 . S
C3096 C3097 1.386 . S
C3096 C3098 1.391 . S
C3097 C3096 1.386 . S
C3097 C3101 1.393 . S
C3098 H3090 0.950 . S
C3098 C3096 1.391 . S
C3098 C3099 1.400 . S
C3099 C3098 1.400 . S
C3099 C3100 1.398 . S
C3099 C3105 1.491 . S
C3100 H3091 0.950 . S
C3100 C3099 1.398 . S
C3100 C3101 1.391 . S
C3101 H3089 0.950 . S
C3101 C3097 1.393 . S
C3101 C3100 1.391 . S
C3102 H3092 0.950 . S
C3102 C3103 1.386 . S
C3102 C3104 1.391 . S
C3103 C3102 1.386 . S
C3103 C3107 1.393 . S
C3104 H3093 0.950 . S
C3104 C3102 1.391 . S
C3104 C3105 1.400 . S
C3105 C3099 1.491 . S
C3105 C3104 1.400 . S
C3105 C3106 1.398 . S
C3106 H3094 0.950 . S
C3106 C3105 1.398 . S
C3106 C3107 1.391 . S
C3107 H3095 0.950 . S
C3107 C3103 1.393 . S
C3107 C3106 1.391 . S
H3108 C3116 0.950 . S
H3109 C3121 0.950 . S
H3110 C3118 0.950 . S
H3111 C3120 0.950 . S
H3112 C3122 0.950 . S
H3113 C3124 0.950 . S
H3114 C3126 0.950 . S
H3115 C3127 0.950 . S
C3116 H3108 0.950 . S
C3116 C3117 1.386 . S
C3116 C3118 1.391 . S
C3117 C3116 1.386 . S
C3117 C3121 1.393 . S
C3118 H3110 0.950 . S
C3118 C3116 1.391 . S
C3118 C3119 1.400 . S
C3119 C3118 1.400 . S
C3119 C3120 1.398 . S
C3119 C3125 1.491 . S
C3120 H3111 0.950 . S
C3120 C3119 1.398 . S
C3120 C3121 1.391 . S
C3121 H3109 0.950 . S
C3121 C3117 1.393 . S
C3121 C3120 1.391 . S
C3122 H3112 0.950 . S
C3122 C3123 1.386 . S
C3122 C3124 1.391 . S
C3123 C3122 1.386 . S
C3123 C3127 1.393 . S
C3124 H3113 0.950 . S
C3124 C3122 1.391 . S
C3124 C3125 1.400 . S
C3125 C3119 1.491 . S
C3125 C3124 1.400 . S
C3125 C3126 1.398 . S
C3126 H3114 0.950 . S
C3126 C3125 1.398 . S
C3126 C3127 1.391 . S
C3127 H3115 0.950 . S
C3127 C3123 1.393 . S
C3127 C3126 1.391 . S
H3128 C3136 0.950 . S
H3129 C3141 0.950 . S
H3130 C3138 0.950 . S
H3131 C3140 0.950 . S
H3132 C3142 0.950 . S
H3133 C3144 0.950 . S
H3134 C3146 0.950 . S
H3135 C3147 0.934 1_545 S
C3136 H3128 0.950 . S
C3136 C3137 1.386 . S
C3136 C3138 1.391 . S
C3137 C3136 1.386 . S
C3137 C3141 1.393 . S
C3138 H3130 0.950 . S
C3138 C3136 1.391 . S
C3138 C3139 1.400 . S
C3139 C3138 1.400 . S
C3139 C3140 1.398 . S
C3139 C3145 1.491 . S
C3140 H3131 0.950 . S
C3140 C3139 1.398 . S
C3140 C3141 1.391 . S
C3141 H3129 0.950 . S
C3141 C3137 1.393 . S
C3141 C3140 1.391 . S
C3142 H3132 0.950 . S
C3142 C3143 1.386 1_565 S
C3142 C3144 1.391 . S
C3143 C3142 1.386 1_545 S
C3143 C3147 1.393 1_545 S
C3144 H3133 0.950 . S
C3144 C3142 1.391 . S
C3144 C3145 1.400 . S
C3145 C3139 1.491 . S
C3145 C3144 1.400 . S
C3145 C3146 1.398 . S
C3146 H3134 0.950 . S
C3146 C3145 1.398 . S
C3146 C3147 1.391 . S
C3147 H3135 0.934 1_565 S
C3147 C3143 1.393 1_565 S
C3147 C3146 1.391 . S
H3148 C3156 0.950 . S
H3149 C3161 0.950 . S
H3150 C3158 0.950 . S
H3151 C3160 0.950 . S
H3152 C3162 0.950 1_565 S
H3153 C3164 0.950 . S
H3154 C3166 0.950 . S
H3155 C3167 0.950 . S
C3156 H3148 0.950 . S
C3156 C3157 1.386 . S
C3156 C3158 1.391 . S
C3157 C3156 1.386 . S
C3157 C3161 1.393 . S
C3158 H3150 0.950 . S
C3158 C3156 1.391 . S
C3158 C3159 1.400 . S
C3159 C3158 1.400 . S
C3159 C3160 1.398 . S
C3159 C3165 1.491 . S
C3160 H3151 0.950 . S
C3160 C3159 1.398 . S
C3160 C3161 1.391 . S
C3161 H3149 0.950 . S
C3161 C3157 1.393 . S
C3161 C3160 1.391 . S
C3162 H3152 0.950 1_545 S
C3162 C3163 1.386 1_545 S
C3162 C3164 1.391 . S
C3163 C3162 1.386 1_565 S
C3163 C3167 1.393 1_565 S
C3164 H3153 0.950 . S
C3164 C3162 1.391 . S
C3164 C3165 1.400 . S
C3165 C3159 1.491 . S
C3165 C3164 1.400 . S
C3165 C3166 1.398 . S
C3166 H3154 0.950 . S
C3166 C3165 1.398 . S
C3166 C3167 1.391 . S
C3167 H3155 0.950 . S
C3167 C3163 1.393 1_545 S
C3167 C3166 1.391 . S
H3168 C3176 0.950 . S
H3169 C3181 0.950 . S
H3170 C3178 0.950 . S
H3171 C3180 0.950 . S
H3172 C3182 0.950 . S
H3173 C3184 0.950 . S
H3174 C3186 0.950 . S
H3175 C3187 0.950 . S
C3176 H3168 0.950 . S
C3176 C3177 1.386 . S
C3176 C3178 1.391 . S
C3177 C3176 1.386 . S
C3177 C3181 1.393 . S
C3178 H3170 0.950 . S
C3178 C3176 1.391 . S
C3178 C3179 1.400 . S
C3179 C3178 1.400 . S
C3179 C3180 1.398 . S
C3179 C3185 1.491 . S
C3180 H3171 0.950 . S
C3180 C3179 1.398 . S
C3180 C3181 1.391 . S
C3181 H3169 0.950 . S
C3181 C3177 1.393 . S
C3181 C3180 1.391 . S
C3182 H3172 0.950 . S
C3182 C3183 1.386 . S
C3182 C3184 1.391 . S
C3183 C3182 1.386 . S
C3183 C3187 1.393 . S
C3184 H3173 0.950 . S
C3184 C3182 1.391 . S
C3184 C3185 1.400 . S
C3185 C3179 1.491 . S
C3185 C3184 1.400 . S
C3185 C3186 1.398 . S
C3186 H3174 0.950 . S
C3186 C3185 1.398 . S
C3186 C3187 1.391 . S
C3187 H3175 0.950 . S
C3187 C3183 1.393 . S
C3187 C3186 1.391 . S
H3188 C3196 0.950 . S
H3189 C3201 0.950 . S
H3190 C3198 0.950 . S
H3191 C3200 0.950 . S
H3192 C3202 0.950 . S
H3193 C3204 0.950 . S
H3194 C3206 0.950 . S
H3195 C3207 0.950 . S
C3196 H3188 0.950 . S
C3196 C3197 1.386 . S
C3196 C3198 1.391 . S
C3197 C3196 1.386 . S
C3197 C3201 1.393 . S
C3198 H3190 0.950 . S
C3198 C3196 1.391 . S
C3198 C3199 1.400 . S
C3199 C3198 1.400 . S
C3199 C3200 1.398 . S
C3199 C3205 1.491 . S
C3200 H3191 0.950 . S
C3200 C3199 1.398 . S
C3200 C3201 1.391 . S
C3201 H3189 0.950 . S
C3201 C3197 1.393 . S
C3201 C3200 1.391 . S
C3202 H3192 0.950 . S
C3202 C3203 1.386 . S
C3202 C3204 1.391 . S
C3203 C3202 1.386 . S
C3203 C3207 1.393 . S
C3204 H3193 0.950 . S
C3204 C3202 1.391 . S
C3204 C3205 1.400 . S
C3205 C3199 1.491 . S
C3205 C3204 1.400 . S
C3205 C3206 1.398 . S
C3206 H3194 0.950 . S
C3206 C3205 1.398 . S
C3206 C3207 1.391 . S
C3207 H3195 0.950 . S
C3207 C3203 1.393 . S
C3207 C3206 1.391 . S
H3208 C3216 0.950 . S
H3209 C3221 0.950 . S
H3210 C3218 0.950 . S
H3211 C3220 0.950 . S
H3212 C3222 0.950 . S
H3213 C3224 0.950 . S
H3214 C3226 0.950 . S
H3215 C3227 0.950 . S
C3216 H3208 0.950 . S
C3216 C3217 1.386 . S
C3216 C3218 1.391 . S
C3217 C3216 1.386 . S
C3217 C3221 1.393 . S
C3218 H3210 0.950 . S
C3218 C3216 1.391 . S
C3218 C3219 1.400 . S
C3219 C3218 1.400 . S
C3219 C3220 1.398 . S
C3219 C3225 1.491 . S
C3220 H3211 0.950 . S
C3220 C3219 1.398 . S
C3220 C3221 1.391 . S
C3221 H3209 0.950 . S
C3221 C3217 1.393 . S
C3221 C3220 1.391 . S
C3222 H3212 0.950 . S
C3222 C3223 1.386 . S
C3222 C3224 1.391 . S
C3223 C3222 1.386 . S
C3223 C3227 1.393 . S
C3224 H3213 0.950 . S
C3224 C3222 1.391 . S
C3224 C3225 1.400 . S
C3225 C3219 1.491 . S
C3225 C3224 1.400 . S
C3225 C3226 1.398 . S
C3226 H3214 0.950 . S
C3226 C3225 1.398 . S
C3226 C3227 1.391 . S
C3227 H3215 0.950 . S
C3227 C3223 1.393 . S
C3227 C3226 1.391 . S
H3228 C3236 0.950 . S
H3229 C3241 0.950 . S
H3230 C3238 0.950 . S
H3231 C3240 0.950 . S
H3232 C3242 0.950 . S
H3233 C3244 0.950 . S
H3234 C3246 0.950 . S
H3235 C3247 0.950 . S
C3236 H3228 0.950 . S
C3236 C3237 1.386 . S
C3236 C3238 1.391 . S
C3237 C3236 1.386 . S
C3237 C3241 1.393 . S
C3238 H3230 0.950 . S
C3238 C3236 1.391 . S
C3238 C3239 1.400 . S
C3239 C3238 1.400 . S
C3239 C3240 1.398 . S
C3239 C3245 1.491 . S
C3240 H3231 0.950 . S
C3240 C3239 1.398 . S
C3240 C3241 1.391 . S
C3241 H3229 0.950 . S
C3241 C3237 1.393 . S
C3241 C3240 1.391 . S
C3242 H3232 0.950 . S
C3242 C3243 1.386 . S
C3242 C3244 1.391 . S
C3243 C3242 1.386 . S
C3243 C3247 1.393 . S
C3244 H3233 0.950 . S
C3244 C3242 1.391 . S
C3244 C3245 1.400 . S
C3245 C3239 1.491 . S
C3245 C3244 1.400 . S
C3245 C3246 1.398 . S
C3246 H3234 0.950 . S
C3246 C3245 1.398 . S
C3246 C3247 1.391 . S
C3247 H3235 0.950 . S
C3247 C3243 1.393 . S
C3247 C3246 1.391 . S
H3248 C3256 0.950 . S
H3249 C3261 0.950 . S
H3250 C3258 0.950 . S
H3251 C3260 0.950 . S
H3252 C3262 0.950 . S
H3253 C3264 0.950 . S
H3254 C3266 0.950 . S
H3255 C3267 0.950 . S
C3256 H3248 0.950 . S
C3256 C3257 1.386 . S
C3256 C3258 1.391 . S
C3257 C3256 1.386 . S
C3257 C3261 1.393 . S
C3258 H3250 0.950 . S
C3258 C3256 1.391 . S
C3258 C3259 1.400 . S
C3259 C3258 1.400 . S
C3259 C3260 1.398 . S
C3259 C3265 1.491 . S
C3260 H3251 0.950 . S
C3260 C3259 1.398 . S
C3260 C3261 1.391 . S
C3261 H3249 0.950 . S
C3261 C3257 1.393 . S
C3261 C3260 1.391 . S
C3262 H3252 0.950 . S
C3262 C3263 1.386 . S
C3262 C3264 1.391 . S
C3263 C3262 1.386 . S
C3263 C3267 1.393 . S
C3264 H3253 0.950 . S
C3264 C3262 1.391 . S
C3264 C3265 1.400 . S
C3265 C3259 1.491 . S
C3265 C3264 1.400 . S
C3265 C3266 1.398 . S
C3266 H3254 0.950 . S
C3266 C3265 1.398 . S
C3266 C3267 1.391 . S
C3267 H3255 0.950 . S
C3267 C3263 1.393 . S
C3267 C3266 1.391 . S
H3268 C3276 0.950 . S
H3269 C3281 0.950 . S
H3270 C3278 0.950 . S
H3271 C3280 0.950 . S
H3272 C3282 0.950 . S
H3273 C3284 0.950 . S
H3274 C3286 0.950 . S
H3275 C3287 0.950 . S
C3276 H3268 0.950 . S
C3276 C3277 1.386 . S
C3276 C3278 1.391 . S
C3277 C3276 1.386 . S
C3277 C3281 1.393 . S
C3278 H3270 0.950 . S
C3278 C3276 1.391 . S
C3278 C3279 1.400 . S
C3279 C3278 1.400 . S
C3279 C3280 1.398 . S
C3279 C3285 1.491 . S
C3280 H3271 0.950 . S
C3280 C3279 1.398 . S
C3280 C3281 1.391 . S
C3281 H3269 0.950 . S
C3281 C3277 1.393 . S
C3281 C3280 1.391 . S
C3282 H3272 0.950 . S
C3282 C3283 1.386 . S
C3282 C3284 1.391 . S
C3283 C3282 1.386 . S
C3283 C3287 1.393 . S
C3284 H3273 0.950 . S
C3284 C3282 1.391 . S
C3284 C3285 1.400 . S
C3285 C3279 1.491 . S
C3285 C3284 1.400 . S
C3285 C3286 1.398 . S
C3286 H3274 0.950 . S
C3286 C3285 1.398 . S
C3286 C3287 1.391 . S
C3287 H3275 0.950 . S
C3287 C3283 1.393 . S
C3287 C3286 1.391 . S
H3288 C3296 0.950 . S
H3289 C3301 0.950 . S
H3290 C3298 0.950 . S
H3291 C3300 0.950 . S
H3292 C3302 0.950 . S
H3293 C3304 0.950 . S
H3294 C3306 0.950 . S
H3295 C3307 0.950 . S
C3296 H3288 0.950 . S
C3296 C3297 1.386 . S
C3296 C3298 1.391 . S
C3297 C3296 1.386 . S
C3297 C3301 1.393 . S
C3298 H3290 0.950 . S
C3298 C3296 1.391 . S
C3298 C3299 1.400 . S
C3299 C3298 1.400 . S
C3299 C3300 1.398 . S
C3299 C3305 1.491 . S
C3300 H3291 0.950 . S
C3300 C3299 1.398 . S
C3300 C3301 1.391 . S
C3301 H3289 0.950 . S
C3301 C3297 1.393 . S
C3301 C3300 1.391 . S
C3302 H3292 0.950 . S
C3302 C3303 1.386 . S
C3302 C3304 1.391 . S
C3303 C3302 1.386 . S
C3303 C3307 1.393 . S
C3304 H3293 0.950 . S
C3304 C3302 1.391 . S
C3304 C3305 1.400 . S
C3305 C3299 1.491 . S
C3305 C3304 1.400 . S
C3305 C3306 1.398 . S
C3306 H3294 0.950 . S
C3306 C3305 1.398 . S
C3306 C3307 1.391 . S
C3307 H3295 0.950 . S
C3307 C3303 1.393 . S
C3307 C3306 1.391 . S
H3308 C3316 0.950 . S
H3309 C3321 0.950 . S
H3310 C3318 0.950 . S
H3311 C3320 0.950 . S
H3312 C3322 0.950 . S
H3313 C3324 0.950 . S
H3314 C3326 0.950 . S
H3315 C3327 0.950 . S
C3316 H3308 0.950 . S
C3316 C3317 1.386 . S
C3316 C3318 1.391 . S
C3317 C3316 1.386 . S
C3317 C3321 1.393 . S
C3318 H3310 0.950 . S
C3318 C3316 1.391 . S
C3318 C3319 1.400 . S
C3319 C3318 1.400 . S
C3319 C3320 1.398 . S
C3319 C3325 1.491 . S
C3320 H3311 0.950 . S
C3320 C3319 1.398 . S
C3320 C3321 1.391 . S
C3321 H3309 0.950 . S
C3321 C3317 1.393 . S
C3321 C3320 1.391 . S
C3322 H3312 0.950 . S
C3322 C3323 1.386 . S
C3322 C3324 1.391 . S
C3323 C3322 1.386 . S
C3323 C3327 1.393 . S
C3324 H3313 0.950 . S
C3324 C3322 1.391 . S
C3324 C3325 1.400 . S
C3325 C3319 1.491 . S
C3325 C3324 1.400 . S
C3325 C3326 1.398 . S
C3326 H3314 0.950 . S
C3326 C3325 1.398 . S
C3326 C3327 1.391 . S
C3327 H3315 0.950 . S
C3327 C3323 1.393 . S
C3327 C3326 1.391 . S
H3328 C3336 0.950 . S
H3329 C3341 0.950 . S
H3330 C3338 0.950 . S
H3331 C3340 0.950 . S
H3332 C3342 0.950 . S
H3333 C3344 0.950 . S
H3334 C3346 0.950 . S
H3335 C3347 0.950 . S
C3336 H3328 0.950 . S
C3336 C3337 1.386 . S
C3336 C3338 1.391 . S
C3337 C3336 1.386 . S
C3337 C3341 1.393 . S
C3338 H3330 0.950 . S
C3338 C3336 1.391 . S
C3338 C3339 1.400 . S
C3339 C3338 1.400 . S
C3339 C3340 1.398 . S
C3339 C3345 1.491 . S
C3340 H3331 0.950 . S
C3340 C3339 1.398 . S
C3340 C3341 1.391 . S
C3341 H3329 0.950 . S
C3341 C3337 1.393 . S
C3341 C3340 1.391 . S
C3342 H3332 0.950 . S
C3342 C3343 1.386 . S
C3342 C3344 1.391 . S
C3343 C3342 1.386 . S
C3343 C3347 1.393 . S
C3344 H3333 0.950 . S
C3344 C3342 1.391 . S
C3344 C3345 1.400 . S
C3345 C3339 1.491 . S
C3345 C3344 1.400 . S
C3345 C3346 1.398 . S
C3346 H3334 0.950 . S
C3346 C3345 1.398 . S
C3346 C3347 1.391 . S
C3347 H3335 0.950 . S
C3347 C3343 1.393 . S
C3347 C3346 1.391 . S
H3348 C3356 0.950 . S
H3349 C3361 0.950 . S
H3350 C3358 0.950 . S
H3351 C3360 0.950 . S
H3352 C3362 0.950 . S
H3353 C3364 0.950 . S
H3354 C3366 0.950 . S
H3355 C3367 0.950 . S
C3356 H3348 0.950 . S
C3356 C3357 1.386 . S
C3356 C3358 1.391 . S
C3357 C3356 1.386 . S
C3357 C3361 1.393 . S
C3358 H3350 0.950 . S
C3358 C3356 1.391 . S
C3358 C3359 1.400 . S
C3359 C3358 1.400 . S
C3359 C3360 1.398 . S
C3359 C3365 1.491 . S
C3360 H3351 0.950 . S
C3360 C3359 1.398 . S
C3360 C3361 1.391 . S
C3361 H3349 0.950 . S
C3361 C3357 1.393 . S
C3361 C3360 1.391 . S
C3362 H3352 0.950 . S
C3362 C3363 1.386 . S
C3362 C3364 1.391 . S
C3363 C3362 1.386 . S
C3363 C3367 1.393 . S
C3364 H3353 0.950 . S
C3364 C3362 1.391 . S
C3364 C3365 1.400 . S
C3365 C3359 1.491 . S
C3365 C3364 1.400 . S
C3365 C3366 1.398 . S
C3366 H3354 0.950 . S
C3366 C3365 1.398 . S
C3366 C3367 1.391 . S
C3367 H3355 0.950 . S
C3367 C3363 1.393 . S
C3367 C3366 1.391 . S
H3368 C3376 0.950 . S
H3369 C3381 0.950 . S
H3370 C3378 0.950 . S
H3371 C3380 0.950 . S
H3372 C3382 0.950 . S
H3373 C3384 0.950 . S
H3374 C3386 0.950 . S
H3375 C3387 0.950 . S
C3376 H3368 0.950 . S
C3376 C3377 1.386 . S
C3376 C3378 1.391 . S
C3377 C3376 1.386 . S
C3377 C3381 1.393 . S
C3378 H3370 0.950 . S
C3378 C3376 1.391 . S
C3378 C3379 1.400 . S
C3379 C3378 1.400 . S
C3379 C3380 1.398 . S
C3379 C3385 1.491 . S
C3380 H3371 0.950 . S
C3380 C3379 1.398 . S
C3380 C3381 1.391 . S
C3381 H3369 0.950 . S
C3381 C3377 1.393 . S
C3381 C3380 1.391 . S
C3382 H3372 0.950 . S
C3382 C3383 1.386 . S
C3382 C3384 1.391 . S
C3383 C3382 1.386 . S
C3383 C3387 1.393 . S
C3384 H3373 0.950 . S
C3384 C3382 1.391 . S
C3384 C3385 1.400 . S
C3385 C3379 1.491 . S
C3385 C3384 1.400 . S
C3385 C3386 1.398 . S
C3386 H3374 0.950 . S
C3386 C3385 1.398 . S
C3386 C3387 1.391 . S
C3387 H3375 0.950 . S
C3387 C3383 1.393 . S
C3387 C3386 1.391 . S
H3388 C3396 0.950 . S
H3389 C3401 0.950 . S
H3390 C3398 0.950 . S
H3391 C3400 0.950 . S
H3392 C3402 0.950 . S
H3393 C3404 0.950 . S
H3394 C3406 0.950 . S
H3395 C3407 0.950 . S
C3396 H3388 0.950 . S
C3396 C3397 1.386 . S
C3396 C3398 1.391 . S
C3397 C3396 1.386 . S
C3397 C3401 1.393 . S
C3398 H3390 0.950 . S
C3398 C3396 1.391 . S
C3398 C3399 1.400 . S
C3399 C3398 1.400 . S
C3399 C3400 1.398 . S
C3399 C3405 1.491 . S
C3400 H3391 0.950 . S
C3400 C3399 1.398 . S
C3400 C3401 1.391 . S
C3401 H3389 0.950 . S
C3401 C3397 1.393 . S
C3401 C3400 1.391 . S
C3402 H3392 0.950 . S
C3402 C3403 1.386 . S
C3402 C3404 1.391 . S
C3403 C3402 1.386 . S
C3403 C3407 1.393 . S
C3404 H3393 0.950 . S
C3404 C3402 1.391 . S
C3404 C3405 1.400 . S
C3405 C3399 1.491 . S
C3405 C3404 1.400 . S
C3405 C3406 1.398 . S
C3406 H3394 0.950 . S
C3406 C3405 1.398 . S
C3406 C3407 1.391 . S
C3407 H3395 0.950 . S
C3407 C3403 1.393 . S
C3407 C3406 1.391 . S
H3408 C3416 0.950 . S
H3409 C3421 0.950 . S
H3410 C3418 0.950 . S
H3411 C3420 0.950 . S
H3412 C3422 0.950 . S
H3413 C3424 0.950 . S
H3414 C3426 0.950 . S
H3415 C3427 0.950 . S
C3416 H3408 0.950 . S
C3416 C3417 1.386 . S
C3416 C3418 1.391 . S
C3417 C3416 1.386 . S
C3417 C3421 1.393 . S
C3418 H3410 0.950 . S
C3418 C3416 1.391 . S
C3418 C3419 1.400 . S
C3419 C3418 1.400 . S
C3419 C3420 1.398 . S
C3419 C3425 1.491 . S
C3420 H3411 0.950 . S
C3420 C3419 1.398 . S
C3420 C3421 1.391 . S
C3421 H3409 0.950 . S
C3421 C3417 1.393 . S
C3421 C3420 1.391 . S
C3422 H3412 0.950 . S
C3422 C3423 1.386 . S
C3422 C3424 1.391 . S
C3423 C3422 1.386 . S
C3423 C3427 1.393 . S
C3424 H3413 0.950 . S
C3424 C3422 1.391 . S
C3424 C3425 1.400 . S
C3425 C3419 1.491 . S
C3425 C3424 1.400 . S
C3425 C3426 1.398 . S
C3426 H3414 0.950 . S
C3426 C3425 1.398 . S
C3426 C3427 1.391 . S
C3427 H3415 0.950 . S
C3427 C3423 1.393 . S
C3427 C3426 1.391 . S
H3428 C3436 0.950 . S
H3429 C3441 0.950 . S
H3430 C3438 0.950 . S
H3431 C3440 0.950 . S
H3432 C3442 0.950 . S
H3433 C3444 0.950 . S
H3434 C3446 0.950 . S
H3435 C3447 0.950 . S
C3436 H3428 0.950 . S
C3436 C3437 1.386 . S
C3436 C3438 1.391 . S
C3437 C3436 1.386 . S
C3437 C3441 1.393 . S
C3438 H3430 0.950 . S
C3438 C3436 1.391 . S
C3438 C3439 1.400 . S
C3439 C3438 1.400 . S
C3439 C3440 1.398 . S
C3439 C3445 1.491 . S
C3440 H3431 0.950 . S
C3440 C3439 1.398 . S
C3440 C3441 1.391 . S
C3441 H3429 0.950 . S
C3441 C3437 1.393 . S
C3441 C3440 1.391 . S
C3442 H3432 0.950 . S
C3442 C3443 1.386 . S
C3442 C3444 1.391 . S
C3443 C3442 1.386 . S
C3443 C3447 1.393 . S
C3444 H3433 0.950 . S
C3444 C3442 1.391 . S
C3444 C3445 1.400 . S
C3445 C3439 1.491 . S
C3445 C3444 1.400 . S
C3445 C3446 1.398 . S
C3446 H3434 0.950 . S
C3446 C3445 1.398 . S
C3446 C3447 1.391 . S
C3447 H3435 0.950 . S
C3447 C3443 1.393 . S
C3447 C3446 1.391 . S
H3448 C3456 0.950 . S
H3449 C3461 0.950 . S
H3450 C3458 0.950 . S
H3451 C3460 0.950 . S
H3452 C3462 0.950 . S
H3453 C3464 0.950 . S
H3454 C3466 0.950 . S
H3455 C3467 0.950 . S
C3456 H3448 0.950 . S
C3456 C3457 1.386 . S
C3456 C3458 1.391 . S
C3457 C3456 1.386 . S
C3457 C3461 1.393 . S
C3458 H3450 0.950 . S
C3458 C3456 1.391 . S
C3458 C3459 1.400 . S
C3459 C3458 1.400 . S
C3459 C3460 1.398 . S
C3459 C3465 1.491 . S
C3460 H3451 0.950 . S
C3460 C3459 1.398 . S
C3460 C3461 1.391 . S
C3461 H3449 0.950 . S
C3461 C3457 1.393 . S
C3461 C3460 1.391 . S
C3462 H3452 0.950 . S
C3462 C3463 1.386 . S
C3462 C3464 1.391 . S
C3463 C3462 1.386 . S
C3463 C3467 1.393 . S
C3464 H3453 0.950 . S
C3464 C3462 1.391 . S
C3464 C3465 1.400 . S
C3465 C3459 1.491 . S
C3465 C3464 1.400 . S
C3465 C3466 1.398 . S
C3466 H3454 0.950 . S
C3466 C3465 1.398 . S
C3466 C3467 1.391 . S
C3467 H3455 0.950 . S
C3467 C3463 1.393 . S
C3467 C3466 1.391 . S
H3468 C3476 0.950 . S
H3469 C3481 0.950 . S
H3470 C3478 0.950 . S
H3471 C3480 0.950 . S
H3472 C3482 0.950 . S
H3473 C3484 0.950 . S
H3474 C3486 0.950 . S
H3475 C3487 0.950 . S
C3476 H3468 0.950 . S
C3476 C3477 1.386 . S
C3476 C3478 1.391 . S
C3477 C3476 1.386 . S
C3477 C3481 1.393 . S
C3478 H3470 0.950 . S
C3478 C3476 1.391 . S
C3478 C3479 1.400 . S
C3479 C3478 1.400 . S
C3479 C3480 1.398 . S
C3479 C3485 1.491 . S
C3480 H3471 0.950 . S
C3480 C3479 1.398 . S
C3480 C3481 1.391 . S
C3481 H3469 0.950 . S
C3481 C3477 1.393 . S
C3481 C3480 1.391 . S
C3482 H3472 0.950 . S
C3482 C3483 1.386 . S
C3482 C3484 1.391 . S
C3483 C3482 1.386 . S
C3483 C3487 1.393 . S
C3484 H3473 0.950 . S
C3484 C3482 1.391 . S
C3484 C3485 1.400 . S
C3485 C3479 1.491 . S
C3485 C3484 1.400 . S
C3485 C3486 1.398 . S
C3486 H3474 0.950 . S
C3486 C3485 1.398 . S
C3486 C3487 1.391 . S
C3487 H3475 0.950 . S
C3487 C3483 1.393 . S
C3487 C3486 1.391 . S
H3488 C3496 0.950 . S
H3489 C3501 0.950 . S
H3490 C3498 0.950 . S
H3491 C3500 0.950 . S
H3492 C3502 0.950 . S
H3493 C3504 0.950 . S
H3494 C3506 0.950 . S
H3495 C3507 0.950 . S
C3496 H3488 0.950 . S
C3496 C3497 1.386 . S
C3496 C3498 1.391 . S
C3497 C3496 1.386 . S
C3497 C3501 1.393 . S
C3498 H3490 0.950 . S
C3498 C3496 1.391 . S
C3498 C3499 1.400 . S
C3499 C3498 1.400 . S
C3499 C3500 1.398 . S
C3499 C3505 1.491 . S
C3500 H3491 0.950 . S
C3500 C3499 1.398 . S
C3500 C3501 1.391 . S
C3501 H3489 0.950 . S
C3501 C3497 1.393 . S
C3501 C3500 1.391 . S
C3502 H3492 0.950 . S
C3502 C3503 1.386 . S
C3502 C3504 1.391 . S
C3503 C3502 1.386 . S
C3503 C3507 1.393 . S
C3504 H3493 0.950 . S
C3504 C3502 1.391 . S
C3504 C3505 1.400 . S
C3505 C3499 1.491 . S
C3505 C3504 1.400 . S
C3505 C3506 1.398 . S
C3506 H3494 0.950 . S
C3506 C3505 1.398 . S
C3506 C3507 1.391 . S
C3507 H3495 0.950 . S
C3507 C3503 1.393 . S
C3507 C3506 1.391 . S
H3508 C3516 0.950 . S
H3509 C3521 0.950 . S
H3510 C3518 0.950 . S
H3511 C3520 0.950 . S
H3512 C3522 0.950 . S
H3513 C3524 0.950 . S
H3514 C3526 0.950 . S
H3515 C3527 0.950 . S
C3516 H3508 0.950 . S
C3516 C3517 1.386 . S
C3516 C3518 1.391 . S
C3517 C3516 1.386 . S
C3517 C3521 1.393 . S
C3518 H3510 0.950 . S
C3518 C3516 1.391 . S
C3518 C3519 1.400 . S
C3519 C3518 1.400 . S
C3519 C3520 1.398 . S
C3519 C3525 1.491 . S
C3520 H3511 0.950 . S
C3520 C3519 1.398 . S
C3520 C3521 1.391 . S
C3521 H3509 0.950 . S
C3521 C3517 1.393 . S
C3521 C3520 1.391 . S
C3522 H3512 0.950 . S
C3522 C3523 1.386 . S
C3522 C3524 1.391 . S
C3523 C3522 1.386 . S
C3523 C3527 1.393 . S
C3524 H3513 0.950 . S
C3524 C3522 1.391 . S
C3524 C3525 1.400 . S
C3525 C3519 1.491 . S
C3525 C3524 1.400 . S
C3525 C3526 1.398 . S
C3526 H3514 0.950 . S
C3526 C3525 1.398 . S
C3526 C3527 1.391 . S
C3527 H3515 0.950 . S
C3527 C3523 1.393 . S
C3527 C3526 1.391 . S
H3528 C3536 0.950 . S
H3529 C3541 0.950 . S
H3530 C3538 0.950 . S
H3531 C3540 0.950 . S
H3532 C3542 0.950 . S
H3533 C3544 0.950 . S
H3534 C3546 0.950 . S
H3535 C3547 0.950 . S
C3536 H3528 0.950 . S
C3536 C3537 1.386 . S
C3536 C3538 1.391 . S
C3537 C3536 1.386 . S
C3537 C3541 1.393 . S
C3538 H3530 0.950 . S
C3538 C3536 1.391 . S
C3538 C3539 1.400 . S
C3539 C3538 1.400 . S
C3539 C3540 1.398 . S
C3539 C3545 1.491 . S
C3540 H3531 0.950 . S
C3540 C3539 1.398 . S
C3540 C3541 1.391 . S
C3541 H3529 0.950 . S
C3541 C3537 1.393 . S
C3541 C3540 1.391 . S
C3542 H3532 0.950 . S
C3542 C3543 1.386 . S
C3542 C3544 1.391 . S
C3543 C3542 1.386 . S
C3543 C3547 1.393 . S
C3544 H3533 0.950 . S
C3544 C3542 1.391 . S
C3544 C3545 1.400 . S
C3545 C3539 1.491 . S
C3545 C3544 1.400 . S
C3545 C3546 1.398 . S
C3546 H3534 0.950 . S
C3546 C3545 1.398 . S
C3546 C3547 1.391 . S
C3547 H3535 0.950 . S
C3547 C3543 1.393 . S
C3547 C3546 1.391 . S
H3548 C3556 0.950 . S
H3549 C3561 0.950 . S
H3550 C3558 0.950 . S
H3551 C3560 0.950 . S
H3552 C3562 0.950 . S
H3553 C3564 0.950 . S
H3554 C3566 0.950 . S
H3555 C3567 0.950 . S
C3556 H3548 0.950 . S
C3556 C3557 1.386 . S
C3556 C3558 1.391 . S
C3557 C3556 1.386 . S
C3557 C3561 1.393 . S
C3558 H3550 0.950 . S
C3558 C3556 1.391 . S
C3558 C3559 1.400 . S
C3559 C3558 1.400 . S
C3559 C3560 1.398 . S
C3559 C3565 1.491 . S
C3560 H3551 0.950 . S
C3560 C3559 1.398 . S
C3560 C3561 1.391 . S
C3561 H3549 0.950 . S
C3561 C3557 1.393 . S
C3561 C3560 1.391 . S
C3562 H3552 0.950 . S
C3562 C3563 1.386 . S
C3562 C3564 1.391 . S
C3563 C3562 1.386 . S
C3563 C3567 1.393 . S
C3564 H3553 0.950 . S
C3564 C3562 1.391 . S
C3564 C3565 1.400 . S
C3565 C3559 1.491 . S
C3565 C3564 1.400 . S
C3565 C3566 1.398 . S
C3566 H3554 0.950 . S
C3566 C3565 1.398 . S
C3566 C3567 1.391 . S
C3567 H3555 0.950 . S
C3567 C3563 1.393 . S
C3567 C3566 1.391 . S
H3568 C3576 0.950 . S
H3569 C3581 0.950 . S
H3570 C3578 0.950 . S
H3571 C3580 0.950 . S
H3572 C3582 0.950 . S
H3573 C3584 0.950 . S
H3574 C3586 0.950 . S
H3575 C3587 0.950 . S
C3576 H3568 0.950 . S
C3576 C3577 1.386 . S
C3576 C3578 1.391 . S
C3577 C3576 1.386 . S
C3577 C3581 1.393 . S
C3578 H3570 0.950 . S
C3578 C3576 1.391 . S
C3578 C3579 1.400 . S
C3579 C3578 1.400 . S
C3579 C3580 1.398 . S
C3579 C3585 1.491 . S
C3580 H3571 0.950 . S
C3580 C3579 1.398 . S
C3580 C3581 1.391 . S
C3581 H3569 0.950 . S
C3581 C3577 1.393 . S
C3581 C3580 1.391 . S
C3582 H3572 0.950 . S
C3582 C3583 1.386 . S
C3582 C3584 1.391 . S
C3583 C3582 1.386 . S
C3583 C3587 1.393 . S
C3584 H3573 0.950 . S
C3584 C3582 1.391 . S
C3584 C3585 1.400 . S
C3585 C3579 1.491 . S
C3585 C3584 1.400 . S
C3585 C3586 1.398 . S
C3586 H3574 0.950 . S
C3586 C3585 1.398 . S
C3586 C3587 1.391 . S
C3587 H3575 0.950 . S
C3587 C3583 1.393 . S
C3587 C3586 1.391 . S
H3588 C3596 0.950 . S
H3589 C3601 0.950 . S
H3590 C3598 0.950 . S
H3591 C3600 0.950 . S
H3592 C3602 0.950 . S
H3593 C3604 0.950 . S
H3594 C3606 0.950 . S
H3595 C3607 0.950 . S
C3596 H3588 0.950 . S
C3596 C3597 1.386 . S
C3596 C3598 1.391 . S
C3597 C3596 1.386 . S
C3597 C3601 1.393 . S
C3598 H3590 0.950 . S
C3598 C3596 1.391 . S
C3598 C3599 1.400 . S
C3599 C3598 1.400 . S
C3599 C3600 1.398 . S
C3599 C3605 1.491 . S
C3600 H3591 0.950 . S
C3600 C3599 1.398 . S
C3600 C3601 1.391 . S
C3601 H3589 0.950 . S
C3601 C3597 1.393 . S
C3601 C3600 1.391 . S
C3602 H3592 0.950 . S
C3602 C3603 1.386 . S
C3602 C3604 1.391 . S
C3603 C3602 1.386 . S
C3603 C3607 1.393 . S
C3604 H3593 0.950 . S
C3604 C3602 1.391 . S
C3604 C3605 1.400 . S
C3605 C3599 1.491 . S
C3605 C3604 1.400 . S
C3605 C3606 1.398 . S
C3606 H3594 0.950 . S
C3606 C3605 1.398 . S
C3606 C3607 1.391 . S
C3607 H3595 0.950 . S
C3607 C3603 1.393 . S
C3607 C3606 1.391 . S
H3608 C3616 0.950 . S
H3609 C3621 0.950 . S
H3610 C3618 0.950 . S
H3611 C3620 0.950 . S
H3612 C3622 0.950 . S
H3613 C3624 0.950 . S
H3614 C3626 0.950 . S
H3615 C3627 0.950 . S
C3616 H3608 0.950 . S
C3616 C3617 1.386 . S
C3616 C3618 1.391 . S
C3617 C3616 1.386 . S
C3617 C3621 1.393 . S
C3618 H3610 0.950 . S
C3618 C3616 1.391 . S
C3618 C3619 1.400 . S
C3619 C3618 1.400 . S
C3619 C3620 1.398 . S
C3619 C3625 1.491 . S
C3620 H3611 0.950 . S
C3620 C3619 1.398 . S
C3620 C3621 1.391 . S
C3621 H3609 0.950 . S
C3621 C3617 1.393 . S
C3621 C3620 1.391 . S
C3622 H3612 0.950 . S
C3622 C3623 1.386 . S
C3622 C3624 1.391 . S
C3623 C3622 1.386 . S
C3623 C3627 1.393 . S
C3624 H3613 0.950 . S
C3624 C3622 1.391 . S
C3624 C3625 1.400 . S
C3625 C3619 1.491 . S
C3625 C3624 1.400 . S
C3625 C3626 1.398 . S
C3626 H3614 0.950 . S
C3626 C3625 1.398 . S
C3626 C3627 1.391 . S
C3627 H3615 0.950 . S
C3627 C3623 1.393 . S
C3627 C3626 1.391 . S
H3628 C3636 0.950 . S
H3629 C3641 0.950 . S
H3630 C3638 0.950 . S
H3631 C3640 0.950 . S
H3632 C3642 0.950 . S
H3633 C3644 0.950 . S
H3634 C3646 0.950 . S
H3635 C3647 0.950 . S
C3636 H3628 0.950 . S
C3636 C3637 1.386 . S
C3636 C3638 1.391 . S
C3637 C3636 1.386 . S
C3637 C3641 1.393 . S
C3638 H3630 0.950 . S
C3638 C3636 1.391 . S
C3638 C3639 1.400 . S
C3639 C3638 1.400 . S
C3639 C3640 1.398 . S
C3639 C3645 1.491 . S
C3640 H3631 0.950 . S
C3640 C3639 1.398 . S
C3640 C3641 1.391 . S
C3641 H3629 0.950 . S
C3641 C3637 1.393 . S
C3641 C3640 1.391 . S
C3642 H3632 0.950 . S
C3642 C3643 1.386 . S
C3642 C3644 1.391 . S
C3643 C3642 1.386 . S
C3643 C3647 1.393 . S
C3644 H3633 0.950 . S
C3644 C3642 1.391 . S
C3644 C3645 1.400 . S
C3645 C3639 1.491 . S
C3645 C3644 1.400 . S
C3645 C3646 1.398 . S
C3646 H3634 0.950 . S
C3646 C3645 1.398 . S
C3646 C3647 1.391 . S
C3647 H3635 0.950 . S
C3647 C3643 1.393 . S
C3647 C3646 1.391 . S
H3648 C3656 0.950 . S
H3649 C3661 0.950 . S
H3650 C3658 0.950 . S
H3651 C3660 0.950 . S
H3652 C3662 0.950 . S
H3653 C3664 0.950 . S
H3654 C3666 0.950 . S
H3655 C3667 0.950 . S
C3656 H3648 0.950 . S
C3656 C3657 1.386 . S
C3656 C3658 1.391 . S
C3657 C3656 1.386 . S
C3657 C3661 1.393 . S
C3658 H3650 0.950 . S
C3658 C3656 1.391 . S
C3658 C3659 1.400 . S
C3659 C3658 1.400 . S
C3659 C3660 1.398 . S
C3659 C3665 1.491 . S
C3660 H3651 0.950 . S
C3660 C3659 1.398 . S
C3660 C3661 1.391 . S
C3661 H3649 0.950 . S
C3661 C3657 1.393 . S
C3661 C3660 1.391 . S
C3662 H3652 0.950 . S
C3662 C3663 1.386 . S
C3662 C3664 1.391 . S
C3663 C3662 1.386 . S
C3663 C3667 1.393 . S
C3664 H3653 0.950 . S
C3664 C3662 1.391 . S
C3664 C3665 1.400 . S
C3665 C3659 1.491 . S
C3665 C3664 1.400 . S
C3665 C3666 1.398 . S
C3666 H3654 0.950 . S
C3666 C3665 1.398 . S
C3666 C3667 1.391 . S
C3667 H3655 0.950 . S
C3667 C3663 1.393 . S
C3667 C3666 1.391 . S
H3668 C3676 0.950 . S
H3669 C3681 0.950 . S
H3670 C3678 0.950 . S
H3671 C3680 0.950 . S
H3672 C3682 0.950 . S
H3673 C3684 0.950 . S
H3674 C3686 0.950 . S
H3675 C3687 0.950 . S
C3676 H3668 0.950 . S
C3676 C3677 1.386 . S
C3676 C3678 1.391 . S
C3677 C3676 1.386 . S
C3677 C3681 1.393 . S
C3678 H3670 0.950 . S
C3678 C3676 1.391 . S
C3678 C3679 1.400 . S
C3679 C3678 1.400 . S
C3679 C3680 1.398 . S
C3679 C3685 1.491 . S
C3680 H3671 0.950 . S
C3680 C3679 1.398 . S
C3680 C3681 1.391 . S
C3681 H3669 0.950 . S
C3681 C3677 1.393 . S
C3681 C3680 1.391 . S
C3682 H3672 0.950 . S
C3682 C3683 1.386 . S
C3682 C3684 1.391 . S
C3683 C3682 1.386 . S
C3683 C3687 1.393 . S
C3684 H3673 0.950 . S
C3684 C3682 1.391 . S
C3684 C3685 1.400 . S
C3685 C3679 1.491 . S
C3685 C3684 1.400 . S
C3685 C3686 1.398 . S
C3686 H3674 0.950 . S
C3686 C3685 1.398 . S
C3686 C3687 1.391 . S
C3687 H3675 0.950 . S
C3687 C3683 1.393 . S
C3687 C3686 1.391 . S
H3688 C3696 0.950 . S
H3689 C3701 0.950 . S
H3690 C3698 0.950 . S
H3691 C3700 0.950 . S
H3692 C3702 0.950 . S
H3693 C3704 0.950 . S
H3694 C3706 0.950 . S
H3695 C3707 0.950 . S
C3696 H3688 0.950 . S
C3696 C3697 1.386 . S
C3696 C3698 1.391 . S
C3697 C3696 1.386 . S
C3697 C3701 1.393 . S
C3698 H3690 0.950 . S
C3698 C3696 1.391 . S
C3698 C3699 1.400 . S
C3699 C3698 1.400 . S
C3699 C3700 1.398 . S
C3699 C3705 1.491 . S
C3700 H3691 0.950 . S
C3700 C3699 1.398 . S
C3700 C3701 1.391 . S
C3701 H3689 0.950 . S
C3701 C3697 1.393 . S
C3701 C3700 1.391 . S
C3702 H3692 0.950 . S
C3702 C3703 1.386 . S
C3702 C3704 1.391 . S
C3703 C3702 1.386 . S
C3703 C3707 1.393 . S
C3704 H3693 0.950 . S
C3704 C3702 1.391 . S
C3704 C3705 1.400 . S
C3705 C3699 1.491 . S
C3705 C3704 1.400 . S
C3705 C3706 1.398 . S
C3706 H3694 0.950 . S
C3706 C3705 1.398 . S
C3706 C3707 1.391 . S
C3707 H3695 0.950 . S
C3707 C3703 1.393 . S
C3707 C3706 1.391 . S
H3708 C3716 0.950 . S
H3709 C3721 0.950 . S
H3710 C3718 0.950 . S
H3711 C3720 0.950 . S
H3712 C3722 0.950 . S
H3713 C3724 0.950 . S
H3714 C3726 0.950 . S
H3715 C3727 0.950 . S
C3716 H3708 0.950 . S
C3716 C3717 1.386 . S
C3716 C3718 1.391 . S
C3717 C3716 1.386 . S
C3717 C3721 1.393 . S
C3718 H3710 0.950 . S
C3718 C3716 1.391 . S
C3718 C3719 1.400 . S
C3719 C3718 1.400 . S
C3719 C3720 1.398 . S
C3719 C3725 1.491 . S
C3720 H3711 0.950 . S
C3720 C3719 1.398 . S
C3720 C3721 1.391 . S
C3721 H3709 0.950 . S
C3721 C3717 1.393 . S
C3721 C3720 1.391 . S
C3722 H3712 0.950 . S
C3722 C3723 1.386 . S
C3722 C3724 1.391 . S
C3723 C3722 1.386 . S
C3723 C3727 1.393 . S
C3724 H3713 0.950 . S
C3724 C3722 1.391 . S
C3724 C3725 1.400 . S
C3725 C3719 1.491 . S
C3725 C3724 1.400 . S
C3725 C3726 1.398 . S
C3726 H3714 0.950 . S
C3726 C3725 1.398 . S
C3726 C3727 1.391 . S
C3727 H3715 0.950 . S
C3727 C3723 1.393 . S
C3727 C3726 1.391 . S
H3728 C3736 0.950 . S
H3729 C3741 0.950 . S
H3730 C3738 0.950 . S
H3731 C3740 0.950 . S
H3732 C3742 0.950 . S
H3733 C3744 0.950 . S
H3734 C3746 0.950 . S
H3735 C3747 0.950 . S
C3736 H3728 0.950 . S
C3736 C3737 1.386 . S
C3736 C3738 1.391 . S
C3737 C3736 1.386 . S
C3737 C3741 1.393 . S
C3738 H3730 0.950 . S
C3738 C3736 1.391 . S
C3738 C3739 1.400 . S
C3739 C3738 1.400 . S
C3739 C3740 1.398 . S
C3739 C3745 1.491 . S
C3740 H3731 0.950 . S
C3740 C3739 1.398 . S
C3740 C3741 1.391 . S
C3741 H3729 0.950 . S
C3741 C3737 1.393 . S
C3741 C3740 1.391 . S
C3742 H3732 0.950 . S
C3742 C3743 1.386 . S
C3742 C3744 1.391 . S
C3743 C3742 1.386 . S
C3743 C3747 1.393 . S
C3744 H3733 0.950 . S
C3744 C3742 1.391 . S
C3744 C3745 1.400 . S
C3745 C3739 1.491 . S
C3745 C3744 1.400 . S
C3745 C3746 1.398 . S
C3746 H3734 0.950 . S
C3746 C3745 1.398 . S
C3746 C3747 1.391 . S
C3747 H3735 0.950 . S
C3747 C3743 1.393 . S
C3747 C3746 1.391 . S
H3748 C3756 0.950 . S
H3749 C3761 0.950 . S
H3750 C3758 0.950 . S
H3751 C3760 0.950 . S
H3752 C3762 0.950 . S
H3753 C3764 0.950 . S
H3754 C3766 0.950 . S
H3755 C3767 0.950 . S
C3756 H3748 0.950 . S
C3756 C3757 1.386 . S
C3756 C3758 1.391 . S
C3757 C3756 1.386 . S
C3757 C3761 1.393 . S
C3758 H3750 0.950 . S
C3758 C3756 1.391 . S
C3758 C3759 1.400 . S
C3759 C3758 1.400 . S
C3759 C3760 1.398 . S
C3759 C3765 1.491 . S
C3760 H3751 0.950 . S
C3760 C3759 1.398 . S
C3760 C3761 1.391 . S
C3761 H3749 0.950 . S
C3761 C3757 1.393 . S
C3761 C3760 1.391 . S
C3762 H3752 0.950 . S
C3762 C3763 1.386 . S
C3762 C3764 1.391 . S
C3763 C3762 1.386 . S
C3763 C3767 1.393 . S
C3764 H3753 0.950 . S
C3764 C3762 1.391 . S
C3764 C3765 1.400 . S
C3765 C3759 1.491 . S
C3765 C3764 1.400 . S
C3765 C3766 1.398 . S
C3766 H3754 0.950 . S
C3766 C3765 1.398 . S
C3766 C3767 1.391 . S
C3767 H3755 0.950 . S
C3767 C3763 1.393 . S
C3767 C3766 1.391 . S
H3768 C3776 0.950 . S
H3769 C3781 0.950 . S
H3770 C3778 0.950 . S
H3771 C3780 0.950 . S
H3772 C3782 0.950 . S
H3773 C3784 0.950 . S
H3774 C3786 0.950 . S
H3775 C3787 0.950 . S
C3776 H3768 0.950 . S
C3776 C3777 1.386 . S
C3776 C3778 1.391 . S
C3777 C3776 1.386 . S
C3777 C3781 1.393 . S
C3778 H3770 0.950 . S
C3778 C3776 1.391 . S
C3778 C3779 1.400 . S
C3779 C3778 1.400 . S
C3779 C3780 1.398 . S
C3779 C3785 1.491 . S
C3780 H3771 0.950 . S
C3780 C3779 1.398 . S
C3780 C3781 1.391 . S
C3781 H3769 0.950 . S
C3781 C3777 1.393 . S
C3781 C3780 1.391 . S
C3782 H3772 0.950 . S
C3782 C3783 1.386 . S
C3782 C3784 1.391 . S
C3783 C3782 1.386 . S
C3783 C3787 1.393 . S
C3784 H3773 0.950 . S
C3784 C3782 1.391 . S
C3784 C3785 1.400 . S
C3785 C3779 1.491 . S
C3785 C3784 1.400 . S
C3785 C3786 1.398 . S
C3786 H3774 0.950 . S
C3786 C3785 1.398 . S
C3786 C3787 1.391 . S
C3787 H3775 0.950 . S
C3787 C3783 1.393 . S
C3787 C3786 1.391 . S
H3788 C3796 0.950 . S
H3789 C3801 0.950 . S
H3790 C3798 0.950 . S
H3791 C3800 0.950 . S
H3792 C3802 0.950 . S
H3793 C3804 0.950 . S
H3794 C3806 0.950 . S
H3795 C3807 0.950 . S
C3796 H3788 0.950 . S
C3796 C3797 1.386 . S
C3796 C3798 1.391 . S
C3797 C3796 1.386 . S
C3797 C3801 1.393 . S
C3798 H3790 0.950 . S
C3798 C3796 1.391 . S
C3798 C3799 1.400 . S
C3799 C3798 1.400 . S
C3799 C3800 1.398 . S
C3799 C3805 1.491 . S
C3800 H3791 0.950 . S
C3800 C3799 1.398 . S
C3800 C3801 1.391 . S
C3801 H3789 0.950 . S
C3801 C3797 1.393 . S
C3801 C3800 1.391 . S
C3802 H3792 0.950 . S
C3802 C3803 1.386 . S
C3802 C3804 1.391 . S
C3803 C3802 1.386 . S
C3803 C3807 1.393 . S
C3804 H3793 0.950 . S
C3804 C3802 1.391 . S
C3804 C3805 1.400 . S
C3805 C3799 1.491 . S
C3805 C3804 1.400 . S
C3805 C3806 1.398 . S
C3806 H3794 0.950 . S
C3806 C3805 1.398 . S
C3806 C3807 1.391 . S
C3807 H3795 0.950 . S
C3807 C3803 1.393 . S
C3807 C3806 1.391 . S
H3808 C3816 0.950 . S
H3809 C3821 0.950 . S
H3810 C3818 0.950 . S
H3811 C3820 0.950 . S
H3812 C3822 0.950 . S
H3813 C3824 0.950 . S
H3814 C3826 0.950 . S
H3815 C3827 0.950 . S
C3816 H3808 0.950 . S
C3816 C3817 1.386 . S
C3816 C3818 1.391 . S
C3817 C3816 1.386 . S
C3817 C3821 1.393 . S
C3818 H3810 0.950 . S
C3818 C3816 1.391 . S
C3818 C3819 1.400 . S
C3819 C3818 1.400 . S
C3819 C3820 1.398 . S
C3819 C3825 1.491 . S
C3820 H3811 0.950 . S
C3820 C3819 1.398 . S
C3820 C3821 1.391 . S
C3821 H3809 0.950 . S
C3821 C3817 1.393 . S
C3821 C3820 1.391 . S
C3822 H3812 0.950 . S
C3822 C3823 1.386 . S
C3822 C3824 1.391 . S
C3823 C3822 1.386 . S
C3823 C3827 1.393 . S
C3824 H3813 0.950 . S
C3824 C3822 1.391 . S
C3824 C3825 1.400 . S
C3825 C3819 1.491 . S
C3825 C3824 1.400 . S
C3825 C3826 1.398 . S
C3826 H3814 0.950 . S
C3826 C3825 1.398 . S
C3826 C3827 1.391 . S
C3827 H3815 0.950 . S
C3827 C3823 1.393 . S
C3827 C3826 1.391 . S
H3828 C3836 0.950 . S
H3829 C3841 0.950 . S
H3830 C3838 0.950 . S
H3831 C3840 0.950 . S
H3832 C3842 0.950 . S
H3833 C3844 0.950 . S
H3834 C3846 0.950 . S
H3835 C3847 0.950 . S
C3836 H3828 0.950 . S
C3836 C3837 1.386 . S
C3836 C3838 1.391 . S
C3837 C3836 1.386 . S
C3837 C3841 1.393 . S
C3838 H3830 0.950 . S
C3838 C3836 1.391 . S
C3838 C3839 1.400 . S
C3839 C3838 1.400 . S
C3839 C3840 1.398 . S
C3839 C3845 1.491 . S
C3840 H3831 0.950 . S
C3840 C3839 1.398 . S
C3840 C3841 1.391 . S
C3841 H3829 0.950 . S
C3841 C3837 1.393 . S
C3841 C3840 1.391 . S
C3842 H3832 0.950 . S
C3842 C3843 1.386 . S
C3842 C3844 1.391 . S
C3843 C3842 1.386 . S
C3843 C3847 1.393 . S
C3844 H3833 0.950 . S
C3844 C3842 1.391 . S
C3844 C3845 1.400 . S
C3845 C3839 1.491 . S
C3845 C3844 1.400 . S
C3845 C3846 1.398 . S
C3846 H3834 0.950 . S
C3846 C3845 1.398 . S
C3846 C3847 1.391 . S
C3847 H3835 0.950 . S
C3847 C3843 1.393 . S
C3847 C3846 1.391 . S
H3848 C3856 0.950 . S
H3849 C3861 0.950 . S
H3850 C3858 0.950 . S
H3851 C3860 0.950 . S
H3852 C3862 0.950 . S
H3853 C3864 0.950 . S
H3854 C3866 0.950 . S
H3855 C3867 0.950 . S
C3856 H3848 0.950 . S
C3856 C3857 1.386 . S
C3856 C3858 1.391 . S
C3857 C3856 1.386 . S
C3857 C3861 1.393 . S
C3858 H3850 0.950 . S
C3858 C3856 1.391 . S
C3858 C3859 1.400 . S
C3859 C3858 1.400 . S
C3859 C3860 1.398 . S
C3859 C3865 1.491 . S
C3860 H3851 0.950 . S
C3860 C3859 1.398 . S
C3860 C3861 1.391 . S
C3861 H3849 0.950 . S
C3861 C3857 1.393 . S
C3861 C3860 1.391 . S
C3862 H3852 0.950 . S
C3862 C3863 1.386 . S
C3862 C3864 1.391 . S
C3863 C3862 1.386 . S
C3863 C3867 1.393 . S
C3864 H3853 0.950 . S
C3864 C3862 1.391 . S
C3864 C3865 1.400 . S
C3865 C3859 1.491 . S
C3865 C3864 1.400 . S
C3865 C3866 1.398 . S
C3866 H3854 0.950 . S
C3866 C3865 1.398 . S
C3866 C3867 1.391 . S
C3867 H3855 0.950 . S
C3867 C3863 1.393 . S
C3867 C3866 1.391 . S
H3868 C3876 0.950 . S
H3869 C3881 0.950 . S
H3870 C3878 0.950 . S
H3871 C3880 0.950 . S
H3872 C3882 0.950 . S
H3873 C3884 0.950 . S
H3874 C3886 0.950 . S
H3875 C3887 0.950 . S
C3876 H3868 0.950 . S
C3876 C3877 1.386 . S
C3876 C3878 1.391 . S
C3877 C3876 1.386 . S
C3877 C3881 1.393 . S
C3878 H3870 0.950 . S
C3878 C3876 1.391 . S
C3878 C3879 1.400 . S
C3879 C3878 1.400 . S
C3879 C3880 1.398 . S
C3879 C3885 1.491 . S
C3880 H3871 0.950 . S
C3880 C3879 1.398 . S
C3880 C3881 1.391 . S
C3881 H3869 0.950 . S
C3881 C3877 1.393 . S
C3881 C3880 1.391 . S
C3882 H3872 0.950 . S
C3882 C3883 1.386 . S
C3882 C3884 1.391 . S
C3883 C3882 1.386 . S
C3883 C3887 1.393 . S
C3884 H3873 0.950 . S
C3884 C3882 1.391 . S
C3884 C3885 1.400 . S
C3885 C3879 1.491 . S
C3885 C3884 1.400 . S
C3885 C3886 1.398 . S
C3886 H3874 0.950 . S
C3886 C3885 1.398 . S
C3886 C3887 1.391 . S
C3887 H3875 0.950 . S
C3887 C3883 1.393 . S
C3887 C3886 1.391 . S
H3888 C3896 0.950 . S
H3889 C3901 0.950 . S
H3890 C3898 0.950 . S
H3891 C3900 0.950 . S
H3892 C3902 0.950 . S
H3893 C3904 0.950 . S
H3894 C3906 0.950 . S
H3895 C3907 0.950 . S
C3896 H3888 0.950 . S
C3896 C3897 1.386 . S
C3896 C3898 1.391 . S
C3897 C3896 1.386 . S
C3897 C3901 1.393 . S
C3898 H3890 0.950 . S
C3898 C3896 1.391 . S
C3898 C3899 1.400 . S
C3899 C3898 1.400 . S
C3899 C3900 1.398 . S
C3899 C3905 1.491 . S
C3900 H3891 0.950 . S
C3900 C3899 1.398 . S
C3900 C3901 1.391 . S
C3901 H3889 0.950 . S
C3901 C3897 1.393 . S
C3901 C3900 1.391 . S
C3902 H3892 0.950 . S
C3902 C3903 1.386 . S
C3902 C3904 1.391 . S
C3903 C3902 1.386 . S
C3903 C3907 1.393 . S
C3904 H3893 0.950 . S
C3904 C3902 1.391 . S
C3904 C3905 1.400 . S
C3905 C3899 1.491 . S
C3905 C3904 1.400 . S
C3905 C3906 1.398 . S
C3906 H3894 0.950 . S
C3906 C3905 1.398 . S
C3906 C3907 1.391 . S
C3907 H3895 0.950 . S
C3907 C3903 1.393 . S
C3907 C3906 1.391 . S
H3908 C3916 0.950 . S
H3909 C3921 0.950 . S
H3910 C3918 0.950 . S
H3911 C3920 0.950 . S
H3912 C3922 0.950 . S
H3913 C3924 0.950 . S
H3914 C3926 0.950 . S
H3915 C3927 0.950 . S
C3916 H3908 0.950 . S
C3916 C3917 1.386 . S
C3916 C3918 1.391 . S
C3917 C3916 1.386 . S
C3917 C3921 1.393 . S
C3918 H3910 0.950 . S
C3918 C3916 1.391 . S
C3918 C3919 1.400 . S
C3919 C3918 1.400 . S
C3919 C3920 1.398 . S
C3919 C3925 1.491 . S
C3920 H3911 0.950 . S
C3920 C3919 1.398 . S
C3920 C3921 1.391 . S
C3921 H3909 0.950 . S
C3921 C3917 1.393 . S
C3921 C3920 1.391 . S
C3922 H3912 0.950 . S
C3922 C3923 1.386 . S
C3922 C3924 1.391 . S
C3923 C3922 1.386 . S
C3923 C3927 1.393 . S
C3924 H3913 0.950 . S
C3924 C3922 1.391 . S
C3924 C3925 1.400 . S
C3925 C3919 1.491 . S
C3925 C3924 1.400 . S
C3925 C3926 1.398 . S
C3926 H3914 0.950 . S
C3926 C3925 1.398 . S
C3926 C3927 1.391 . S
C3927 H3915 0.950 . S
C3927 C3923 1.393 . S
C3927 C3926 1.391 . S
H3928 C3936 0.950 . S
H3929 C3941 0.950 . S
H3930 C3938 0.950 . S
H3931 C3940 0.950 . S
H3932 C3942 0.950 . S
H3933 C3944 0.950 . S
H3934 C3946 0.950 . S
H3935 C3947 0.950 . S
C3936 H3928 0.950 . S
C3936 C3937 1.386 . S
C3936 C3938 1.391 . S
C3937 C3936 1.386 . S
C3937 C3941 1.393 . S
C3938 H3930 0.950 . S
C3938 C3936 1.391 . S
C3938 C3939 1.400 . S
C3939 C3938 1.400 . S
C3939 C3940 1.398 . S
C3939 C3945 1.491 . S
C3940 H3931 0.950 . S
C3940 C3939 1.398 . S
C3940 C3941 1.391 . S
C3941 H3929 0.950 . S
C3941 C3937 1.393 . S
C3941 C3940 1.391 . S
C3942 H3932 0.950 . S
C3942 C3943 1.386 . S
C3942 C3944 1.391 . S
C3943 C3942 1.386 . S
C3943 C3947 1.393 . S
C3944 H3933 0.950 . S
C3944 C3942 1.391 . S
C3944 C3945 1.400 . S
C3945 C3939 1.491 . S
C3945 C3944 1.400 . S
C3945 C3946 1.398 . S
C3946 H3934 0.950 . S
C3946 C3945 1.398 . S
C3946 C3947 1.391 . S
C3947 H3935 0.950 . S
C3947 C3943 1.393 . S
C3947 C3946 1.391 . S
H3948 C3956 0.950 . S
H3949 C3961 0.950 . S
H3950 C3958 0.950 . S
H3951 C3960 0.950 . S
H3952 C3962 0.950 . S
H3953 C3964 0.950 . S
H3954 C3966 0.950 . S
H3955 C3967 0.950 . S
C3956 H3948 0.950 . S
C3956 C3957 1.386 . S
C3956 C3958 1.391 . S
C3957 C3956 1.386 . S
C3957 C3961 1.393 . S
C3958 H3950 0.950 . S
C3958 C3956 1.391 . S
C3958 C3959 1.400 . S
C3959 C3958 1.400 . S
C3959 C3960 1.398 . S
C3959 C3965 1.491 . S
C3960 H3951 0.950 . S
C3960 C3959 1.398 . S
C3960 C3961 1.391 . S
C3961 H3949 0.950 . S
C3961 C3957 1.393 . S
C3961 C3960 1.391 . S
C3962 H3952 0.950 . S
C3962 C3963 1.386 . S
C3962 C3964 1.391 . S
C3963 C3962 1.386 . S
C3963 C3967 1.393 . S
C3964 H3953 0.950 . S
C3964 C3962 1.391 . S
C3964 C3965 1.400 . S
C3965 C3959 1.491 . S
C3965 C3964 1.400 . S
C3965 C3966 1.398 . S
C3966 H3954 0.950 . S
C3966 C3965 1.398 . S
C3966 C3967 1.391 . S
C3967 H3955 0.950 . S
C3967 C3963 1.393 . S
C3967 C3966 1.391 . S
H3968 C3976 0.950 . S
H3969 C3981 0.950 . S
H3970 C3978 0.950 . S
H3971 C3980 0.950 . S
H3972 C3982 0.950 . S
H3973 C3984 0.950 . S
H3974 C3986 0.950 . S
H3975 C3987 0.950 . S
C3976 H3968 0.950 . S
C3976 C3977 1.386 . S
C3976 C3978 1.391 . S
C3977 C3976 1.386 . S
C3977 C3981 1.393 . S
C3978 H3970 0.950 . S
C3978 C3976 1.391 . S
C3978 C3979 1.400 . S
C3979 C3978 1.400 . S
C3979 C3980 1.398 . S
C3979 C3985 1.491 . S
C3980 H3971 0.950 . S
C3980 C3979 1.398 . S
C3980 C3981 1.391 . S
C3981 H3969 0.950 . S
C3981 C3977 1.393 . S
C3981 C3980 1.391 . S
C3982 H3972 0.950 . S
C3982 C3983 1.386 . S
C3982 C3984 1.391 . S
C3983 C3982 1.386 . S
C3983 C3987 1.393 . S
C3984 H3973 0.950 . S
C3984 C3982 1.391 . S
C3984 C3985 1.400 . S
C3985 C3979 1.491 . S
C3985 C3984 1.400 . S
C3985 C3986 1.398 . S
C3986 H3974 0.950 . S
C3986 C3985 1.398 . S
C3986 C3987 1.391 . S
C3987 H3975 0.950 . S
C3987 C3983 1.393 . S
C3987 C3986 1.391 . S
H3988 C3996 0.950 . S
H3989 C4001 0.950 . S
H3990 C3998 0.950 . S
H3991 C4000 0.950 . S
H3992 C4002 0.950 . S
H3993 C4004 0.950 . S
H3994 C4006 0.950 . S
H3995 C4007 0.950 . S
C3996 H3988 0.950 . S
C3996 C3997 1.386 . S
C3996 C3998 1.391 . S
C3997 C3996 1.386 . S
C3997 C4001 1.393 . S
C3998 H3990 0.950 . S
C3998 C3996 1.391 . S
C3998 C3999 1.400 . S
C3999 C3998 1.400 . S
C3999 C4000 1.398 . S
C3999 C4005 1.491 . S
C4000 H3991 0.950 . S
C4000 C3999 1.398 . S
C4000 C4001 1.391 . S
C4001 H3989 0.950 . S
C4001 C3997 1.393 . S
C4001 C4000 1.391 . S
C4002 H3992 0.950 . S
C4002 C4003 1.386 . S
C4002 C4004 1.391 . S
C4003 C4002 1.386 . S
C4003 C4007 1.393 . S
C4004 H3993 0.950 . S
C4004 C4002 1.391 . S
C4004 C4005 1.400 . S
C4005 C3999 1.491 . S
C4005 C4004 1.400 . S
C4005 C4006 1.398 . S
C4006 H3994 0.950 . S
C4006 C4005 1.398 . S
C4006 C4007 1.391 . S
C4007 H3995 0.950 . S
C4007 C4003 1.393 . S
C4007 C4006 1.391 . S
H4008 C4016 0.950 . S
H4009 C4021 0.950 . S
H4010 C4018 0.950 . S
H4011 C4020 0.950 . S
H4012 C4022 0.950 . S
H4013 C4024 0.950 . S
H4014 C4026 0.950 . S
H4015 C4027 0.950 . S
C4016 H4008 0.950 . S
C4016 C4017 1.386 . S
C4016 C4018 1.391 . S
C4017 C4016 1.386 . S
C4017 C4021 1.393 . S
C4018 H4010 0.950 . S
C4018 C4016 1.391 . S
C4018 C4019 1.400 . S
C4019 C4018 1.400 . S
C4019 C4020 1.398 . S
C4019 C4025 1.491 . S
C4020 H4011 0.950 . S
C4020 C4019 1.398 . S
C4020 C4021 1.391 . S
C4021 H4009 0.950 . S
C4021 C4017 1.393 . S
C4021 C4020 1.391 . S
C4022 H4012 0.950 . S
C4022 C4023 1.386 . S
C4022 C4024 1.391 . S
C4023 C4022 1.386 . S
C4023 C4027 1.393 . S
C4024 H4013 0.950 . S
C4024 C4022 1.391 . S
C4024 C4025 1.400 . S
C4025 C4019 1.491 . S
C4025 C4024 1.400 . S
C4025 C4026 1.398 . S
C4026 H4014 0.950 . S
C4026 C4025 1.398 . S
C4026 C4027 1.391 . S
C4027 H4015 0.950 . S
C4027 C4023 1.393 . S
C4027 C4026 1.391 . S
H4028 C4036 0.950 . S
H4029 C4041 0.950 . S
H4030 C4038 0.950 . S
H4031 C4040 0.950 . S
H4032 C4042 0.950 . S
H4033 C4044 0.950 . S
H4034 C4046 0.950 . S
H4035 C4047 0.950 . S
C4036 H4028 0.950 . S
C4036 C4037 1.386 . S
C4036 C4038 1.391 . S
C4037 C4036 1.386 . S
C4037 C4041 1.393 . S
C4038 H4030 0.950 . S
C4038 C4036 1.391 . S
C4038 C4039 1.400 . S
C4039 C4038 1.400 . S
C4039 C4040 1.398 . S
C4039 C4045 1.491 . S
C4040 H4031 0.950 . S
C4040 C4039 1.398 . S
C4040 C4041 1.391 . S
C4041 H4029 0.950 . S
C4041 C4037 1.393 . S
C4041 C4040 1.391 . S
C4042 H4032 0.950 . S
C4042 C4043 1.386 . S
C4042 C4044 1.391 . S
C4043 C4042 1.386 . S
C4043 C4047 1.393 . S
C4044 H4033 0.950 . S
C4044 C4042 1.391 . S
C4044 C4045 1.400 . S
C4045 C4039 1.491 . S
C4045 C4044 1.400 . S
C4045 C4046 1.398 . S
C4046 H4034 0.950 . S
C4046 C4045 1.398 . S
C4046 C4047 1.391 . S
C4047 H4035 0.950 . S
C4047 C4043 1.393 . S
C4047 C4046 1.391 . S
H4048 C4056 0.950 . S
H4049 C4061 0.950 . S
H4050 C4058 0.950 . S
H4051 C4060 0.950 . S
H4052 C4062 0.950 . S
H4053 C4064 0.950 . S
H4054 C4066 0.950 . S
H4055 C4067 0.950 . S
C4056 H4048 0.950 . S
C4056 C4057 1.386 . S
C4056 C4058 1.391 . S
C4057 C4056 1.386 . S
C4057 C4061 1.393 . S
C4058 H4050 0.950 . S
C4058 C4056 1.391 . S
C4058 C4059 1.400 . S
C4059 C4058 1.400 . S
C4059 C4060 1.398 . S
C4059 C4065 1.491 . S
C4060 H4051 0.950 . S
C4060 C4059 1.398 . S
C4060 C4061 1.391 . S
C4061 H4049 0.950 . S
C4061 C4057 1.393 . S
C4061 C4060 1.391 . S
C4062 H4052 0.950 . S
C4062 C4063 1.386 . S
C4062 C4064 1.391 . S
C4063 C4062 1.386 . S
C4063 C4067 1.393 . S
C4064 H4053 0.950 . S
C4064 C4062 1.391 . S
C4064 C4065 1.400 . S
C4065 C4059 1.491 . S
C4065 C4064 1.400 . S
C4065 C4066 1.398 . S
C4066 H4054 0.950 . S
C4066 C4065 1.398 . S
C4066 C4067 1.391 . S
C4067 H4055 0.950 . S
C4067 C4063 1.393 . S
C4067 C4066 1.391 . S
H4068 C4076 0.950 . S
H4069 C4081 0.950 . S
H4070 C4078 0.950 . S
H4071 C4080 0.950 . S
H4072 C4082 0.950 . S
H4073 C4084 0.950 . S
H4074 C4086 0.950 . S
H4075 C4087 0.950 . S
C4076 H4068 0.950 . S
C4076 C4077 1.386 . S
C4076 C4078 1.391 . S
C4077 C4076 1.386 . S
C4077 C4081 1.393 . S
C4078 H4070 0.950 . S
C4078 C4076 1.391 . S
C4078 C4079 1.400 . S
C4079 C4078 1.400 . S
C4079 C4080 1.398 . S
C4079 C4085 1.491 . S
C4080 H4071 0.950 . S
C4080 C4079 1.398 . S
C4080 C4081 1.391 . S
C4081 H4069 0.950 . S
C4081 C4077 1.393 . S
C4081 C4080 1.391 . S
C4082 H4072 0.950 . S
C4082 C4083 1.386 . S
C4082 C4084 1.391 . S
C4083 C4082 1.386 . S
C4083 C4087 1.393 . S
C4084 H4073 0.950 . S
C4084 C4082 1.391 . S
C4084 C4085 1.400 . S
C4085 C4079 1.491 . S
C4085 C4084 1.400 . S
C4085 C4086 1.398 . S
C4086 H4074 0.950 . S
C4086 C4085 1.398 . S
C4086 C4087 1.391 . S
C4087 H4075 0.950 . S
C4087 C4083 1.393 . S
C4087 C4086 1.391 . S
H4088 C4096 0.950 . S
H4089 C4101 0.950 . S
H4090 C4098 0.950 . S
H4091 C4100 0.950 . S
H4092 C4102 0.950 . S
H4093 C4104 0.950 . S
H4094 C4106 0.950 . S
H4095 C4107 0.950 . S
C4096 H4088 0.950 . S
C4096 C4097 1.386 . S
C4096 C4098 1.391 . S
C4097 C4096 1.386 . S
C4097 C4101 1.393 . S
C4098 H4090 0.950 . S
C4098 C4096 1.391 . S
C4098 C4099 1.400 . S
C4099 C4098 1.400 . S
C4099 C4100 1.398 . S
C4099 C4105 1.491 . S
C4100 H4091 0.950 . S
C4100 C4099 1.398 . S
C4100 C4101 1.391 . S
C4101 H4089 0.950 . S
C4101 C4097 1.393 . S
C4101 C4100 1.391 . S
C4102 H4092 0.950 . S
C4102 C4103 1.386 . S
C4102 C4104 1.391 . S
C4103 C4102 1.386 . S
C4103 C4107 1.393 . S
C4104 H4093 0.950 . S
C4104 C4102 1.391 . S
C4104 C4105 1.400 . S
C4105 C4099 1.491 . S
C4105 C4104 1.400 . S
C4105 C4106 1.398 . S
C4106 H4094 0.950 . S
C4106 C4105 1.398 . S
C4106 C4107 1.391 . S
C4107 H4095 0.950 . S
C4107 C4103 1.393 . S
C4107 C4106 1.391 . S
H4108 C4116 0.950 . S
H4109 C4121 0.950 . S
H4110 C4118 0.950 . S
H4111 C4120 0.950 . S
H4112 C4122 0.950 . S
H4113 C4124 0.950 . S
H4114 C4126 0.950 . S
H4115 C4127 0.950 . S
C4116 H4108 0.950 . S
C4116 C4117 1.386 . S
C4116 C4118 1.391 . S
C4117 C4116 1.386 . S
C4117 C4121 1.393 . S
C4118 H4110 0.950 . S
C4118 C4116 1.391 . S
C4118 C4119 1.400 . S
C4119 C4118 1.400 . S
C4119 C4120 1.398 . S
C4119 C4125 1.491 . S
C4120 H4111 0.950 . S
C4120 C4119 1.398 . S
C4120 C4121 1.391 . S
C4121 H4109 0.950 . S
C4121 C4117 1.393 . S
C4121 C4120 1.391 . S
C4122 H4112 0.950 . S
C4122 C4123 1.386 . S
C4122 C4124 1.391 . S
C4123 C4122 1.386 . S
C4123 C4127 1.393 . S
C4124 H4113 0.950 . S
C4124 C4122 1.391 . S
C4124 C4125 1.400 . S
C4125 C4119 1.491 . S
C4125 C4124 1.400 . S
C4125 C4126 1.398 . S
C4126 H4114 0.950 . S
C4126 C4125 1.398 . S
C4126 C4127 1.391 . S
C4127 H4115 0.950 . S
C4127 C4123 1.393 . S
C4127 C4126 1.391 . S
H4128 C4136 0.953 . S
H4129 C4141 0.950 . S
H4130 C4138 0.950 . S
H4131 C4140 0.950 . S
H4132 C4142 0.950 . S
H4133 C4144 0.950 . S
H4134 C4146 0.950 . S
H4135 C4147 0.950 . S
C4136 H4128 0.953 . S
C4136 C4137 1.386 . S
C4136 C4138 1.391 1_455 S
C4137 C4136 1.386 . S
C4137 C4141 1.393 . S
C4138 H4130 0.950 . S
C4138 C4136 1.391 1_655 S
C4138 C4139 1.400 . S
C4139 C4138 1.400 . S
C4139 C4140 1.398 1_655 S
C4139 C4145 1.491 . S
C4140 H4131 0.950 . S
C4140 C4139 1.398 1_455 S
C4140 C4141 1.391 . S
C4141 H4129 0.950 . S
C4141 C4137 1.393 . S
C4141 C4140 1.391 . S
C4142 H4132 0.950 . S
C4142 C4143 1.386 . S
C4142 C4144 1.391 . S
C4143 C4142 1.386 . S
C4143 C4147 1.393 . S
C4144 H4133 0.950 . S
C4144 C4142 1.391 . S
C4144 C4145 1.400 . S
C4145 C4139 1.491 . S
C4145 C4144 1.400 . S
C4145 C4146 1.398 . S
C4146 H4134 0.950 . S
C4146 C4145 1.398 . S
C4146 C4147 1.391 . S
C4147 H4135 0.950 . S
C4147 C4143 1.393 . S
C4147 C4146 1.391 . S
H4148 C4156 0.950 . S
H4149 C4161 0.950 . S
H4150 C4158 0.950 . S
H4151 C4160 0.950 . S
H4152 C4162 0.950 . S
H4153 C4164 0.950 . S
H4154 C4166 0.950 . S
H4155 C4167 0.950 . S
C4156 H4148 0.950 . S
C4156 C4157 1.386 . S
C4156 C4158 1.391 . S
C4157 C4156 1.386 . S
C4157 C4161 1.393 . S
C4158 H4150 0.950 . S
C4158 C4156 1.391 . S
C4158 C4159 1.400 . S
C4159 C4158 1.400 . S
C4159 C4160 1.398 . S
C4159 C4165 1.491 . S
C4160 H4151 0.950 . S
C4160 C4159 1.398 . S
C4160 C4161 1.391 . S
C4161 H4149 0.950 . S
C4161 C4157 1.393 . S
C4161 C4160 1.391 . S
C4162 H4152 0.950 . S
C4162 C4163 1.386 . S
C4162 C4164 1.391 . S
C4163 C4162 1.386 . S
C4163 C4167 1.393 . S
C4164 H4153 0.950 . S
C4164 C4162 1.391 . S
C4164 C4165 1.400 . S
C4165 C4159 1.491 . S
C4165 C4164 1.400 . S
C4165 C4166 1.398 . S
C4166 H4154 0.950 . S
C4166 C4165 1.398 . S
C4166 C4167 1.391 . S
C4167 H4155 0.950 . S
C4167 C4163 1.393 . S
C4167 C4166 1.391 . S
H4168 C4176 0.950 . S
H4169 C4181 0.950 . S
H4170 C4178 0.950 . S
H4171 C4180 0.950 . S
H4172 C4182 0.950 . S
H4173 C4184 0.950 . S
H4174 C4186 0.950 . S
H4175 C4187 0.950 . S
C4176 H4168 0.950 . S
C4176 C4177 1.386 . S
C4176 C4178 1.391 . S
C4177 C4176 1.386 . S
C4177 C4181 1.393 . S
C4178 H4170 0.950 . S
C4178 C4176 1.391 . S
C4178 C4179 1.400 . S
C4179 C4178 1.400 . S
C4179 C4180 1.398 . S
C4179 C4185 1.491 . S
C4180 H4171 0.950 . S
C4180 C4179 1.398 . S
C4180 C4181 1.391 . S
C4181 H4169 0.950 . S
C4181 C4177 1.393 . S
C4181 C4180 1.391 . S
C4182 H4172 0.950 . S
C4182 C4183 1.386 . S
C4182 C4184 1.391 . S
C4183 C4182 1.386 . S
C4183 C4187 1.393 . S
C4184 H4173 0.950 . S
C4184 C4182 1.391 . S
C4184 C4185 1.400 . S
C4185 C4179 1.491 . S
C4185 C4184 1.400 . S
C4185 C4186 1.398 . S
C4186 H4174 0.950 . S
C4186 C4185 1.398 . S
C4186 C4187 1.391 . S
C4187 H4175 0.950 . S
C4187 C4183 1.393 . S
C4187 C4186 1.391 . S
H4188 C4196 0.950 . S
H4189 C4201 0.950 . S
H4190 C4198 0.950 . S
H4191 C4200 0.950 . S
H4192 C4202 0.950 . S
H4193 C4204 0.950 . S
H4194 C4206 0.950 . S
H4195 C4207 0.950 . S
C4196 H4188 0.950 . S
C4196 C4197 1.386 . S
C4196 C4198 1.391 . S
C4197 C4196 1.386 . S
C4197 C4201 1.393 . S
C4198 H4190 0.950 . S
C4198 C4196 1.391 . S
C4198 C4199 1.400 1_556 S
C4199 C4198 1.400 1_554 S
C4199 C4200 1.398 . S
C4199 C4205 1.491 . S
C4200 H4191 0.950 . S
C4200 C4199 1.398 . S
C4200 C4201 1.391 1_554 S
C4201 H4189 0.950 . S
C4201 C4197 1.393 . S
C4201 C4200 1.391 1_556 S
C4202 H4192 0.950 . S
C4202 C4203 1.386 . S
C4202 C4204 1.391 . S
C4203 C4202 1.386 . S
C4203 C4207 1.393 . S
C4204 H4193 0.950 . S
C4204 C4202 1.391 . S
C4204 C4205 1.400 . S
C4205 C4199 1.491 . S
C4205 C4204 1.400 . S
C4205 C4206 1.398 . S
C4206 H4194 0.950 . S
C4206 C4205 1.398 . S
C4206 C4207 1.391 . S
C4207 H4195 0.950 . S
C4207 C4203 1.393 . S
C4207 C4206 1.391 . S
H4208 C4216 0.950 . S
H4209 C4221 0.950 . S
H4210 C4218 0.950 . S
H4211 C4220 0.950 . S
H4212 C4222 0.950 . S
H4213 C4224 0.950 . S
H4214 C4226 0.946 1_655 S
H4215 C4227 0.950 . S
C4216 H4208 0.950 . S
C4216 C4217 1.386 . S
C4216 C4218 1.391 . S
C4217 C4216 1.386 . S
C4217 C4221 1.393 . S
C4218 H4210 0.950 . S
C4218 C4216 1.391 . S
C4218 C4219 1.400 . S
C4219 C4218 1.400 . S
C4219 C4220 1.398 . S
C4219 C4225 1.491 . S
C4220 H4211 0.950 . S
C4220 C4219 1.398 . S
C4220 C4221 1.391 . S
C4221 H4209 0.950 . S
C4221 C4217 1.393 . S
C4221 C4220 1.391 . S
C4222 H4212 0.950 . S
C4222 C4223 1.386 . S
C4222 C4224 1.391 1_455 S
C4223 C4222 1.386 . S
C4223 C4227 1.393 . S
C4224 H4213 0.950 . S
C4224 C4222 1.391 1_655 S
C4224 C4225 1.400 . S
C4225 C4219 1.491 . S
C4225 C4224 1.400 . S
C4225 C4226 1.398 1_655 S
C4226 H4214 0.946 1_455 S
C4226 C4225 1.398 1_455 S
C4226 C4227 1.391 . S
C4227 H4215 0.950 . S
C4227 C4223 1.393 . S
C4227 C4226 1.391 . S
H4228 C4236 0.950 . S
H4229 C4241 0.950 . S
H4230 C4238 0.950 . S
H4231 C4240 0.950 . S
H4232 C4242 0.950 . S
H4233 C4244 0.950 . S
H4234 C4246 0.950 . S
H4235 C4247 0.950 . S
C4236 H4228 0.950 . S
C4236 C4237 1.386 . S
C4236 C4238 1.391 . S
C4237 C4236 1.386 . S
C4237 C4241 1.393 . S
C4238 H4230 0.950 . S
C4238 C4236 1.391 . S
C4238 C4239 1.400 . S
C4239 C4238 1.400 . S
C4239 C4240 1.398 . S
C4239 C4245 1.491 . S
C4240 H4231 0.950 . S
C4240 C4239 1.398 . S
C4240 C4241 1.391 . S
C4241 H4229 0.950 . S
C4241 C4237 1.393 . S
C4241 C4240 1.391 . S
C4242 H4232 0.950 . S
C4242 C4243 1.386 . S
C4242 C4244 1.391 . S
C4243 C4242 1.386 . S
C4243 C4247 1.393 . S
C4244 H4233 0.950 . S
C4244 C4242 1.391 . S
C4244 C4245 1.400 . S
C4245 C4239 1.491 . S
C4245 C4244 1.400 . S
C4245 C4246 1.398 . S
C4246 H4234 0.950 . S
C4246 C4245 1.398 . S
C4246 C4247 1.391 . S
C4247 H4235 0.950 . S
C4247 C4243 1.393 . S
C4247 C4246 1.391 . S
H4248 C4256 0.950 . S
H4249 C4261 0.950 . S
H4250 C4258 0.950 . S
H4251 C4260 0.950 . S
H4252 C4262 0.950 . S
H4253 C4264 0.950 . S
H4254 C4266 0.950 . S
H4255 C4267 0.950 . S
C4256 H4248 0.950 . S
C4256 C4257 1.386 . S
C4256 C4258 1.391 . S
C4257 C4256 1.386 . S
C4257 C4261 1.393 . S
C4258 H4250 0.950 . S
C4258 C4256 1.391 . S
C4258 C4259 1.400 . S
C4259 C4258 1.400 . S
C4259 C4260 1.398 . S
C4259 C4265 1.491 . S
C4260 H4251 0.950 . S
C4260 C4259 1.398 . S
C4260 C4261 1.391 . S
C4261 H4249 0.950 . S
C4261 C4257 1.393 . S
C4261 C4260 1.391 . S
C4262 H4252 0.950 . S
C4262 C4263 1.386 . S
C4262 C4264 1.391 . S
C4263 C4262 1.386 . S
C4263 C4267 1.393 . S
C4264 H4253 0.950 . S
C4264 C4262 1.391 . S
C4264 C4265 1.400 . S
C4265 C4259 1.491 . S
C4265 C4264 1.400 . S
C4265 C4266 1.398 . S
C4266 H4254 0.950 . S
C4266 C4265 1.398 . S
C4266 C4267 1.391 . S
C4267 H4255 0.950 . S
C4267 C4263 1.393 . S
C4267 C4266 1.391 . S
H4268 C4276 0.950 . S
H4269 C4281 0.950 . S
H4270 C4278 0.950 . S
H4271 C4280 0.950 . S
H4272 C4282 0.961 . S
H4273 C4284 0.950 . S
H4274 C4286 0.950 . S
H4275 C4287 0.950 . S
C4276 H4268 0.950 . S
C4276 C4277 1.386 . S
C4276 C4278 1.391 . S
C4277 C4276 1.386 . S
C4277 C4281 1.393 . S
C4278 H4270 0.950 . S
C4278 C4276 1.391 . S
C4278 C4279 1.400 . S
C4279 C4278 1.400 . S
C4279 C4280 1.398 . S
C4279 C4285 1.491 . S
C4280 H4271 0.950 . S
C4280 C4279 1.398 . S
C4280 C4281 1.391 . S
C4281 H4269 0.950 . S
C4281 C4277 1.393 . S
C4281 C4280 1.391 . S
C4282 H4272 0.961 . S
C4282 C4283 1.386 . S
C4282 C4284 1.391 1_554 S
C4283 C4282 1.386 . S
C4283 C4287 1.393 . S
C4284 H4273 0.950 . S
C4284 C4282 1.391 1_556 S
C4284 C4285 1.400 . S
C4285 C4279 1.491 . S
C4285 C4284 1.400 . S
C4285 C4286 1.398 1_556 S
C4286 H4274 0.950 . S
C4286 C4285 1.398 1_554 S
C4286 C4287 1.391 . S
C4287 H4275 0.950 . S
C4287 C4283 1.393 . S
C4287 C4286 1.391 . S
H4288 C4296 0.938 1_565 S
H4289 C4301 0.950 . S
H4290 C4298 0.950 . S
H4291 C4300 0.950 . S
H4292 C4302 0.950 . S
H4293 C4304 0.950 . S
H4294 C4306 0.950 . S
H4295 C4307 0.950 . S
C4296 H4288 0.938 1_545 S
C4296 C4297 1.386 . S
C4296 C4298 1.391 1_545 S
C4297 C4296 1.386 . S
C4297 C4301 1.393 . S
C4298 H4290 0.950 . S
C4298 C4296 1.391 1_565 S
C4298 C4299 1.400 . S
C4299 C4298 1.400 . S
C4299 C4300 1.398 1_565 S
C4299 C4305 1.491 . S
C4300 H4291 0.950 . S
C4300 C4299 1.398 1_545 S
C4300 C4301 1.391 . S
C4301 H4289 0.950 . S
C4301 C4297 1.393 . S
C4301 C4300 1.391 . S
C4302 H4292 0.950 . S
C4302 C4303 1.386 . S
C4302 C4304 1.391 . S
C4303 C4302 1.386 . S
C4303 C4307 1.393 . S
C4304 H4293 0.950 . S
C4304 C4302 1.391 . S
C4304 C4305 1.400 . S
C4305 C4299 1.491 . S
C4305 C4304 1.400 . S
C4305 C4306 1.398 . S
C4306 H4294 0.950 . S
C4306 C4305 1.398 . S
C4306 C4307 1.391 . S
C4307 H4295 0.950 . S
C4307 C4303 1.393 . S
C4307 C4306 1.391 . S
H4308 C4316 0.950 . S
H4309 C4321 0.950 . S
H4310 C4318 0.950 . S
H4311 C4320 0.950 . S
H4312 C4322 0.952 . S
H4313 C4324 0.950 . S
H4314 C4326 0.950 . S
H4315 C4327 0.950 . S
C4316 H4308 0.950 . S
C4316 C4317 1.386 . S
C4316 C4318 1.391 . S
C4317 C4316 1.386 . S
C4317 C4321 1.393 . S
C4318 H4310 0.950 . S
C4318 C4316 1.391 . S
C4318 C4319 1.400 . S
C4319 C4318 1.400 . S
C4319 C4320 1.398 . S
C4319 C4325 1.491 . S
C4320 H4311 0.950 . S
C4320 C4319 1.398 . S
C4320 C4321 1.391 . S
C4321 H4309 0.950 . S
C4321 C4317 1.393 . S
C4321 C4320 1.391 . S
C4322 H4312 0.952 . S
C4322 C4323 1.386 . S
C4322 C4324 1.391 1_565 S
C4323 C4322 1.386 . S
C4323 C4327 1.393 . S
C4324 H4313 0.950 . S
C4324 C4322 1.391 1_545 S
C4324 C4325 1.400 . S
C4325 C4319 1.491 . S
C4325 C4324 1.400 . S
C4325 C4326 1.398 1_545 S
C4326 H4314 0.950 . S
C4326 C4325 1.398 1_565 S
C4326 C4327 1.391 . S
C4327 H4315 0.950 . S
C4327 C4323 1.393 . S
C4327 C4326 1.391 . S
H4328 C4336 0.964 . S
H4329 C4341 0.950 . S
H4330 C4338 0.950 . S
H4331 C4340 0.950 . S
H4332 C4342 0.950 . S
H4333 C4344 0.950 . S
H4334 C4346 0.950 . S
H4335 C4347 0.950 . S
C4336 H4328 0.964 . S
C4336 C4337 1.386 . S
C4336 C4338 1.391 1_565 S
C4337 C4336 1.386 . S
C4337 C4341 1.393 . S
C4338 H4330 0.950 . S
C4338 C4336 1.391 1_545 S
C4338 C4339 1.400 . S
C4339 C4338 1.400 . S
C4339 C4340 1.398 1_545 S
C4339 C4345 1.491 . S
C4340 H4331 0.950 . S
C4340 C4339 1.398 1_565 S
C4340 C4341 1.391 . S
C4341 H4329 0.950 . S
C4341 C4337 1.393 . S
C4341 C4340 1.391 . S
C4342 H4332 0.950 . S
C4342 C4343 1.386 . S
C4342 C4344 1.391 . S
C4343 C4342 1.386 . S
C4343 C4347 1.393 . S
C4344 H4333 0.950 . S
C4344 C4342 1.391 . S
C4344 C4345 1.400 . S
C4345 C4339 1.491 . S
C4345 C4344 1.400 . S
C4345 C4346 1.398 . S
C4346 H4334 0.950 . S
C4346 C4345 1.398 . S
C4346 C4347 1.391 . S
C4347 H4335 0.950 . S
C4347 C4343 1.393 . S
C4347 C4346 1.391 . S
H4348 C4356 0.938 1_565 S
H4349 C4361 0.950 . S
H4350 C4358 0.950 . S
H4351 C4360 0.950 . S
H4352 C4362 0.950 . S
H4353 C4364 0.950 . S
H4354 C4366 0.950 . S
H4355 C4367 0.950 . S
C4356 H4348 0.938 1_545 S
C4356 C4357 1.386 . S
C4356 C4358 1.391 1_545 S
C4357 C4356 1.386 . S
C4357 C4361 1.393 . S
C4358 H4350 0.950 . S
C4358 C4356 1.391 1_565 S
C4358 C4359 1.400 . S
C4359 C4358 1.400 . S
C4359 C4360 1.398 1_565 S
C4359 C4365 1.491 . S
C4360 H4351 0.950 . S
C4360 C4359 1.398 1_545 S
C4360 C4361 1.391 . S
C4361 H4349 0.950 . S
C4361 C4357 1.393 . S
C4361 C4360 1.391 . S
C4362 H4352 0.950 . S
C4362 C4363 1.386 . S
C4362 C4364 1.391 . S
C4363 C4362 1.386 . S
C4363 C4367 1.393 . S
C4364 H4353 0.950 . S
C4364 C4362 1.391 . S
C4364 C4365 1.400 . S
C4365 C4359 1.491 . S
C4365 C4364 1.400 . S
C4365 C4366 1.398 . S
C4366 H4354 0.950 . S
C4366 C4365 1.398 . S
C4366 C4367 1.391 . S
C4367 H4355 0.950 . S
C4367 C4363 1.393 . S
C4367 C4366 1.391 . S
H4368 C4376 0.950 . S
H4369 C4381 0.950 . S
H4370 C4378 0.950 . S
H4371 C4380 0.950 . S
H4372 C4382 0.950 . S
H4373 C4384 0.950 . S
H4374 C4386 0.950 . S
H4375 C4387 0.950 . S
C4376 H4368 0.950 . S
C4376 C4377 1.386 . S
C4376 C4378 1.391 . S
C4377 C4376 1.386 . S
C4377 C4381 1.393 . S
C4378 H4370 0.950 . S
C4378 C4376 1.391 . S
C4378 C4379 1.400 . S
C4379 C4378 1.400 . S
C4379 C4380 1.398 . S
C4379 C4385 1.491 . S
C4380 H4371 0.950 . S
C4380 C4379 1.398 . S
C4380 C4381 1.391 . S
C4381 H4369 0.950 . S
C4381 C4377 1.393 . S
C4381 C4380 1.391 . S
C4382 H4372 0.950 . S
C4382 C4383 1.386 . S
C4382 C4384 1.391 1_556 S
C4383 C4382 1.386 . S
C4383 C4387 1.393 . S
C4384 H4373 0.950 . S
C4384 C4382 1.391 1_554 S
C4384 C4385 1.400 . S
C4385 C4379 1.491 . S
C4385 C4384 1.400 . S
C4385 C4386 1.398 1_554 S
C4386 H4374 0.950 . S
C4386 C4385 1.398 1_556 S
C4386 C4387 1.391 . S
C4387 H4375 0.950 . S
C4387 C4383 1.393 . S
C4387 C4386 1.391 . S
H4388 C4396 0.950 . S
H4389 C4401 0.950 . S
H4390 C4398 0.950 . S
H4391 C4400 0.950 . S
H4392 C4402 0.950 . S
H4393 C4404 0.950 . S
H4394 C4406 0.950 . S
H4395 C4407 0.935 1_455 S
C4396 H4388 0.950 . S
C4396 C4397 1.386 . S
C4396 C4398 1.391 . S
C4397 C4396 1.386 . S
C4397 C4401 1.393 . S
C4398 H4390 0.950 . S
C4398 C4396 1.391 . S
C4398 C4399 1.400 . S
C4399 C4398 1.400 . S
C4399 C4400 1.398 . S
C4399 C4405 1.491 . S
C4400 H4391 0.950 . S
C4400 C4399 1.398 . S
C4400 C4401 1.391 . S
C4401 H4389 0.950 . S
C4401 C4397 1.393 . S
C4401 C4400 1.391 . S
C4402 H4392 0.950 . S
C4402 C4403 1.386 . S
C4402 C4404 1.391 . S
C4403 C4402 1.386 . S
C4403 C4407 1.393 . S
C4404 H4393 0.950 . S
C4404 C4402 1.391 . S
C4404 C4405 1.400 1_655 S
C4405 C4399 1.491 . S
C4405 C4404 1.400 1_455 S
C4405 C4406 1.398 . S
C4406 H4394 0.950 . S
C4406 C4405 1.398 . S
C4406 C4407 1.391 1_455 S
C4407 H4395 0.935 1_655 S
C4407 C4403 1.393 . S
C4407 C4406 1.391 1_655 S
H4408 C4416 0.950 . S
H4409 C4421 0.950 . S
H4410 C4418 0.950 . S
H4411 C4420 0.950 . S
H4412 C4422 0.950 . S
H4413 C4424 0.950 . S
H4414 C4426 0.950 . S
H4415 C4427 0.950 . S
C4416 H4408 0.950 . S
C4416 C4417 1.386 . S
C4416 C4418 1.391 . S
C4417 C4416 1.386 . S
C4417 C4421 1.393 . S
C4418 H4410 0.950 . S
C4418 C4416 1.391 . S
C4418 C4419 1.400 . S
C4419 C4418 1.400 . S
C4419 C4420 1.398 . S
C4419 C4425 1.491 . S
C4420 H4411 0.950 . S
C4420 C4419 1.398 . S
C4420 C4421 1.391 . S
C4421 H4409 0.950 . S
C4421 C4417 1.393 . S
C4421 C4420 1.391 . S
C4422 H4412 0.950 . S
C4422 C4423 1.386 . S
C4422 C4424 1.391 . S
C4423 C4422 1.386 . S
C4423 C4427 1.393 . S
C4424 H4413 0.950 . S
C4424 C4422 1.391 . S
C4424 C4425 1.400 . S
C4425 C4419 1.491 . S
C4425 C4424 1.400 . S
C4425 C4426 1.398 . S
C4426 H4414 0.950 . S
C4426 C4425 1.398 . S
C4426 C4427 1.391 . S
C4427 H4415 0.950 . S
C4427 C4423 1.393 . S
C4427 C4426 1.391 . S
H4428 C4436 0.950 . S
H4429 C4441 0.950 . S
H4430 C4438 0.950 . S
H4431 C4440 0.950 . S
H4432 C4442 0.950 . S
H4433 C4444 0.950 . S
H4434 C4446 0.950 . S
H4435 C4447 0.950 . S
C4436 H4428 0.950 . S
C4436 C4437 1.386 . S
C4436 C4438 1.391 1_655 S
C4437 C4436 1.386 . S
C4437 C4441 1.393 . S
C4438 H4430 0.950 . S
C4438 C4436 1.391 1_455 S
C4438 C4439 1.400 . S
C4439 C4438 1.400 . S
C4439 C4440 1.398 1_455 S
C4439 C4445 1.491 . S
C4440 H4431 0.950 . S
C4440 C4439 1.398 1_655 S
C4440 C4441 1.391 . S
C4441 H4429 0.950 . S
C4441 C4437 1.393 . S
C4441 C4440 1.391 . S
C4442 H4432 0.950 . S
C4442 C4443 1.386 . S
C4442 C4444 1.391 . S
C4443 C4442 1.386 . S
C4443 C4447 1.393 . S
C4444 H4433 0.950 . S
C4444 C4442 1.391 . S
C4444 C4445 1.400 . S
C4445 C4439 1.491 . S
C4445 C4444 1.400 . S
C4445 C4446 1.398 . S
C4446 H4434 0.950 . S
C4446 C4445 1.398 . S
C4446 C4447 1.391 . S
C4447 H4435 0.950 . S
C4447 C4443 1.393 . S
C4447 C4446 1.391 . S
H4448 C4456 0.950 . S
H4449 C4461 0.950 . S
H4450 C4458 0.950 . S
H4451 C4460 0.950 . S
H4452 C4462 0.950 . S
H4453 C4464 0.950 . S
H4454 C4466 0.950 . S
H4455 C4467 0.950 . S
C4456 H4448 0.950 . S
C4456 C4457 1.386 . S
C4456 C4458 1.391 . S
C4457 C4456 1.386 . S
C4457 C4461 1.393 . S
C4458 H4450 0.950 . S
C4458 C4456 1.391 . S
C4458 C4459 1.400 . S
C4459 C4458 1.400 . S
C4459 C4460 1.398 . S
C4459 C4465 1.491 . S
C4460 H4451 0.950 . S
C4460 C4459 1.398 . S
C4460 C4461 1.391 . S
C4461 H4449 0.950 . S
C4461 C4457 1.393 . S
C4461 C4460 1.391 . S
C4462 H4452 0.950 . S
C4462 C4463 1.386 . S
C4462 C4464 1.391 . S
C4463 C4462 1.386 . S
C4463 C4467 1.393 . S
C4464 H4453 0.950 . S
C4464 C4462 1.391 . S
C4464 C4465 1.400 . S
C4465 C4459 1.491 . S
C4465 C4464 1.400 . S
C4465 C4466 1.398 . S
C4466 H4454 0.950 . S
C4466 C4465 1.398 . S
C4466 C4467 1.391 . S
C4467 H4455 0.950 . S
C4467 C4463 1.393 . S
C4467 C4466 1.391 . S
H4468 C4476 0.950 . S
H4469 C4481 0.950 . S
H4470 C4478 0.935 1_455 S
H4471 C4480 0.950 . S
H4472 C4482 0.950 . S
H4473 C4484 0.950 . S
H4474 C4486 0.950 . S
H4475 C4487 0.950 . S
C4476 H4468 0.950 . S
C4476 C4477 1.386 . S
C4476 C4478 1.432 . S
C4477 C4476 1.386 . S
C4477 C4481 1.393 . S
C4478 H4470 0.935 1_655 S
C4478 C4476 1.432 . S
C4478 C4479 1.377 1_655 S
C4479 C4478 1.377 1_455 S
C4479 C4480 1.398 . S
C4479 C4485 1.491 . S
C4480 H4471 0.950 . S
C4480 C4479 1.398 . S
C4480 C4481 1.391 1_455 S
C4481 H4469 0.950 . S
C4481 C4477 1.393 . S
C4481 C4480 1.391 1_655 S
C4482 H4472 0.950 . S
C4482 C4483 1.386 . S
C4482 C4484 1.391 . S
C4483 C4482 1.386 . S
C4483 C4487 1.393 . S
C4484 H4473 0.950 . S
C4484 C4482 1.391 . S
C4484 C4485 1.400 . S
C4485 C4479 1.491 . S
C4485 C4484 1.400 . S
C4485 C4486 1.398 . S
C4486 H4474 0.950 . S
C4486 C4485 1.398 . S
C4486 C4487 1.391 . S
C4487 H4475 0.950 . S
C4487 C4483 1.393 . S
C4487 C4486 1.391 . S
H4488 C4496 0.950 . S
H4489 C4501 0.950 . S
H4490 C4498 0.950 . S
H4491 C4500 0.950 . S
H4492 C4502 0.950 . S
H4493 C4504 0.950 . S
H4494 C4506 0.950 . S
H4495 C4507 0.950 . S
C4496 H4488 0.950 . S
C4496 C4497 1.386 . S
C4496 C4498 1.391 . S
C4497 C4496 1.386 . S
C4497 C4501 1.393 . S
C4498 H4490 0.950 . S
C4498 C4496 1.391 . S
C4498 C4499 1.400 . S
C4499 C4498 1.400 . S
C4499 C4500 1.398 . S
C4499 C4505 1.491 . S
C4500 H4491 0.950 . S
C4500 C4499 1.398 . S
C4500 C4501 1.391 . S
C4501 H4489 0.950 . S
C4501 C4497 1.393 . S
C4501 C4500 1.391 . S
C4502 H4492 0.950 . S
C4502 C4503 1.386 . S
C4502 C4504 1.391 . S
C4503 C4502 1.386 . S
C4503 C4507 1.393 . S
C4504 H4493 0.950 . S
C4504 C4502 1.391 . S
C4504 C4505 1.400 . S
C4505 C4499 1.491 . S
C4505 C4504 1.400 . S
C4505 C4506 1.398 . S
C4506 H4494 0.950 . S
C4506 C4505 1.398 . S
C4506 C4507 1.391 . S
C4507 H4495 0.950 . S
C4507 C4503 1.393 . S
C4507 C4506 1.391 . S
H4508 C4516 0.950 . S
H4509 C4521 0.950 . S
H4510 C4518 0.950 . S
H4511 C4520 0.950 . S
H4512 C4522 0.950 . S
H4513 C4524 0.950 . S
H4514 C4526 0.950 . S
H4515 C4527 0.950 . S
C4516 H4508 0.950 . S
C4516 C4517 1.386 . S
C4516 C4518 1.391 . S
C4517 C4516 1.386 . S
C4517 C4521 1.393 . S
C4518 H4510 0.950 . S
C4518 C4516 1.391 . S
C4518 C4519 1.400 . S
C4519 C4518 1.400 . S
C4519 C4520 1.398 . S
C4519 C4525 1.491 . S
C4520 H4511 0.950 . S
C4520 C4519 1.398 . S
C4520 C4521 1.391 . S
C4521 H4509 0.950 . S
C4521 C4517 1.393 . S
C4521 C4520 1.391 . S
C4522 H4512 0.950 . S
C4522 C4523 1.386 . S
C4522 C4524 1.391 . S
C4523 C4522 1.386 . S
C4523 C4527 1.393 . S
C4524 H4513 0.950 . S
C4524 C4522 1.391 . S
C4524 C4525 1.400 . S
C4525 C4519 1.491 . S
C4525 C4524 1.400 . S
C4525 C4526 1.398 . S
C4526 H4514 0.950 . S
C4526 C4525 1.398 . S
C4526 C4527 1.391 . S
C4527 H4515 0.950 . S
C4527 C4523 1.393 . S
C4527 C4526 1.391 . S
H4528 C4536 0.950 . S
H4529 C4541 0.950 1_556 S
H4530 C4538 0.950 . S
H4531 C4540 0.950 . S
H4532 C4542 0.950 . S
H4533 C4544 0.950 . S
H4534 C4546 0.950 . S
H4535 C4547 0.950 . S
C4536 H4528 0.950 . S
C4536 C4537 1.386 . S
C4536 C4538 1.391 . S
C4537 C4536 1.386 . S
C4537 C4541 1.393 . S
C4538 H4530 0.950 . S
C4538 C4536 1.391 . S
C4538 C4539 1.400 1_554 S
C4539 C4538 1.400 1_556 S
C4539 C4540 1.398 . S
C4539 C4545 1.491 . S
C4540 H4531 0.950 . S
C4540 C4539 1.398 . S
C4540 C4541 1.391 1_556 S
C4541 H4529 0.950 1_554 S
C4541 C4537 1.393 . S
C4541 C4540 1.391 1_554 S
C4542 H4532 0.950 . S
C4542 C4543 1.386 . S
C4542 C4544 1.391 . S
C4543 C4542 1.386 . S
C4543 C4547 1.393 . S
C4544 H4533 0.950 . S
C4544 C4542 1.391 . S
C4544 C4545 1.400 . S
C4545 C4539 1.491 . S
C4545 C4544 1.400 . S
C4545 C4546 1.398 . S
C4546 H4534 0.950 . S
C4546 C4545 1.398 . S
C4546 C4547 1.391 . S
C4547 H4535 0.950 . S
C4547 C4543 1.393 . S
C4547 C4546 1.391 . S
H4548 C4556 0.950 . S
H4549 C4561 0.950 . S
H4550 C4558 0.950 . S
H4551 C4560 0.950 . S
H4552 C4562 0.950 . S
H4553 C4564 0.950 . S
H4554 C4566 0.950 . S
H4555 C4567 0.950 . S
C4556 H4548 0.950 . S
C4556 C4557 1.386 . S
C4556 C4558 1.391 . S
C4557 C4556 1.386 . S
C4557 C4561 1.393 . S
C4558 H4550 0.950 . S
C4558 C4556 1.391 . S
C4558 C4559 1.400 1_655 S
C4559 C4558 1.400 1_455 S
C4559 C4560 1.398 . S
C4559 C4565 1.491 . S
C4560 H4551 0.950 . S
C4560 C4559 1.398 . S
C4560 C4561 1.391 1_455 S
C4561 H4549 0.950 . S
C4561 C4557 1.393 . S
C4561 C4560 1.391 1_655 S
C4562 H4552 0.950 . S
C4562 C4563 1.386 . S
C4562 C4564 1.391 . S
C4563 C4562 1.386 . S
C4563 C4567 1.393 . S
C4564 H4553 0.950 . S
C4564 C4562 1.391 . S
C4564 C4565 1.400 . S
C4565 C4559 1.491 . S
C4565 C4564 1.400 . S
C4565 C4566 1.398 . S
C4566 H4554 0.950 . S
C4566 C4565 1.398 . S
C4566 C4567 1.391 . S
C4567 H4555 0.950 . S
C4567 C4563 1.393 . S
C4567 C4566 1.391 . S
H4568 C4576 0.950 . S
H4569 C4581 0.950 . S
H4570 C4578 0.950 . S
H4571 C4580 0.950 . S
H4572 C4582 0.950 . S
H4573 C4584 0.950 . S
H4574 C4586 0.950 . S
H4575 C4587 0.950 . S
C4576 H4568 0.950 . S
C4576 C4577 1.386 . S
C4576 C4578 1.391 . S
C4577 C4576 1.386 . S
C4577 C4581 1.393 . S
C4578 H4570 0.950 . S
C4578 C4576 1.391 . S
C4578 C4579 1.400 . S
C4579 C4578 1.400 . S
C4579 C4580 1.398 . S
C4579 C4585 1.491 . S
C4580 H4571 0.950 . S
C4580 C4579 1.398 . S
C4580 C4581 1.391 . S
C4581 H4569 0.950 . S
C4581 C4577 1.393 . S
C4581 C4580 1.391 . S
C4582 H4572 0.950 . S
C4582 C4583 1.386 . S
C4582 C4584 1.391 . S
C4583 C4582 1.386 . S
C4583 C4587 1.393 . S
C4584 H4573 0.950 . S
C4584 C4582 1.391 . S
C4584 C4585 1.400 . S
C4585 C4579 1.491 . S
C4585 C4584 1.400 . S
C4585 C4586 1.398 . S
C4586 H4574 0.950 . S
C4586 C4585 1.398 . S
C4586 C4587 1.391 . S
C4587 H4575 0.950 . S
C4587 C4583 1.393 . S
C4587 C4586 1.391 . S
H4588 C4596 0.950 . S
H4589 C4601 0.950 . S
H4590 C4598 0.950 . S
H4591 C4600 0.950 . S
H4592 C4602 0.950 . S
H4593 C4604 0.950 . S
H4594 C4606 0.950 . S
H4595 C4607 0.950 . S
C4596 H4588 0.950 . S
C4596 C4597 1.386 . S
C4596 C4598 1.391 . S
C4597 C4596 1.386 . S
C4597 C4601 1.393 . S
C4598 H4590 0.950 . S
C4598 C4596 1.391 . S
C4598 C4599 1.400 . S
C4599 C4598 1.400 . S
C4599 C4600 1.398 . S
C4599 C4605 1.491 . S
C4600 H4591 0.950 . S
C4600 C4599 1.398 . S
C4600 C4601 1.391 . S
C4601 H4589 0.950 . S
C4601 C4597 1.393 . S
C4601 C4600 1.391 . S
C4602 H4592 0.950 . S
C4602 C4603 1.386 . S
C4602 C4604 1.391 . S
C4603 C4602 1.386 . S
C4603 C4607 1.393 . S
C4604 H4593 0.950 . S
C4604 C4602 1.391 . S
C4604 C4605 1.400 . S
C4605 C4599 1.491 . S
C4605 C4604 1.400 . S
C4605 C4606 1.398 . S
C4606 H4594 0.950 . S
C4606 C4605 1.398 . S
C4606 C4607 1.391 . S
C4607 H4595 0.950 . S
C4607 C4603 1.393 . S
C4607 C4606 1.391 . S
H4608 C4616 0.950 . S
H4609 C4621 0.950 . S
H4610 C4618 0.950 . S
H4611 C4620 0.950 . S
H4612 C4622 0.950 . S
H4613 C4624 0.950 . S
H4614 C4626 0.945 1_554 S
H4615 C4627 0.950 . S
C4616 H4608 0.950 . S
C4616 C4617 1.386 . S
C4616 C4618 1.391 . S
C4617 C4616 1.386 . S
C4617 C4621 1.393 . S
C4618 H4610 0.950 . S
C4618 C4616 1.391 . S
C4618 C4619 1.400 . S
C4619 C4618 1.400 . S
C4619 C4620 1.398 . S
C4619 C4625 1.491 . S
C4620 H4611 0.950 . S
C4620 C4619 1.398 . S
C4620 C4621 1.391 . S
C4621 H4609 0.950 . S
C4621 C4617 1.393 . S
C4621 C4620 1.391 . S
C4622 H4612 0.950 . S
C4622 C4623 1.386 . S
C4622 C4624 1.391 1_556 S
C4623 C4622 1.386 . S
C4623 C4627 1.393 . S
C4624 H4613 0.950 . S
C4624 C4622 1.391 1_554 S
C4624 C4625 1.400 . S
C4625 C4619 1.491 . S
C4625 C4624 1.400 . S
C4625 C4626 1.398 1_554 S
C4626 H4614 0.945 1_556 S
C4626 C4625 1.398 1_556 S
C4626 C4627 1.391 . S
C4627 H4615 0.950 . S
C4627 C4623 1.393 . S
C4627 C4626 1.391 . S
H4628 C4636 0.954 . S
H4629 C4641 0.950 . S
H4630 C4638 0.950 . S
H4631 C4640 0.950 . S
H4632 C4642 0.950 . S
H4633 C4644 0.950 . S
H4634 C4646 0.950 . S
H4635 C4647 0.950 . S
C4636 H4628 0.954 . S
C4636 C4637 1.386 . S
C4636 C4638 1.391 1_565 S
C4637 C4636 1.386 . S
C4637 C4641 1.393 . S
C4638 H4630 0.950 . S
C4638 C4636 1.391 1_545 S
C4638 C4639 1.400 . S
C4639 C4638 1.400 . S
C4639 C4640 1.398 1_545 S
C4639 C4645 1.491 . S
C4640 H4631 0.950 . S
C4640 C4639 1.398 1_565 S
C4640 C4641 1.391 . S
C4641 H4629 0.950 . S
C4641 C4637 1.393 . S
C4641 C4640 1.391 . S
C4642 H4632 0.950 . S
C4642 C4643 1.386 . S
C4642 C4644 1.391 . S
C4643 C4642 1.386 . S
C4643 C4647 1.393 . S
C4644 H4633 0.950 . S
C4644 C4642 1.391 . S
C4644 C4645 1.400 . S
C4645 C4639 1.491 . S
C4645 C4644 1.400 . S
C4645 C4646 1.398 . S
C4646 H4634 0.950 . S
C4646 C4645 1.398 . S
C4646 C4647 1.391 . S
C4647 H4635 0.950 . S
C4647 C4643 1.393 . S
C4647 C4646 1.391 . S
H4648 C4656 0.950 . S
H4649 C4661 0.950 . S
H4650 C4658 0.950 . S
H4651 C4660 0.950 . S
H4652 C4662 0.950 . S
H4653 C4664 0.950 . S
H4654 C4666 0.950 . S
H4655 C4667 0.950 . S
C4656 H4648 0.950 . S
C4656 C4657 1.386 . S
C4656 C4658 1.391 . S
C4657 C4656 1.386 . S
C4657 C4661 1.393 . S
C4658 H4650 0.950 . S
C4658 C4656 1.391 . S
C4658 C4659 1.400 . S
C4659 C4658 1.400 . S
C4659 C4660 1.398 . S
C4659 C4665 1.491 . S
C4660 H4651 0.950 . S
C4660 C4659 1.398 . S
C4660 C4661 1.391 . S
C4661 H4649 0.950 . S
C4661 C4657 1.393 . S
C4661 C4660 1.391 . S
C4662 H4652 0.950 . S
C4662 C4663 1.386 . S
C4662 C4664 1.391 . S
C4663 C4662 1.386 . S
C4663 C4667 1.393 . S
C4664 H4653 0.950 . S
C4664 C4662 1.391 . S
C4664 C4665 1.400 1_545 S
C4665 C4659 1.491 . S
C4665 C4664 1.400 1_565 S
C4665 C4666 1.398 . S
C4666 H4654 0.950 . S
C4666 C4665 1.398 . S
C4666 C4667 1.391 1_565 S
C4667 H4655 0.950 . S
C4667 C4663 1.393 . S
C4667 C4666 1.391 1_545 S
H4668 C4676 0.950 . S
H4669 C4681 0.950 . S
H4670 C4678 0.950 . S
H4671 C4680 0.950 . S
H4672 C4682 0.950 . S
H4673 C4684 0.979 . S
H4674 C4686 0.940 1_565 S
H4675 C4687 0.950 . S
C4676 H4668 0.950 . S
C4676 C4677 1.386 . S
C4676 C4678 1.391 . S
C4677 C4676 1.386 . S
C4677 C4681 1.393 . S
C4678 H4670 0.950 . S
C4678 C4676 1.391 . S
C4678 C4679 1.400 . S
C4679 C4678 1.400 . S
C4679 C4680 1.398 . S
C4679 C4685 1.491 . S
C4680 H4671 0.950 . S
C4680 C4679 1.398 . S
C4680 C4681 1.391 . S
C4681 H4669 0.950 . S
C4681 C4677 1.393 . S
C4681 C4680 1.391 . S
C4682 H4672 0.950 . S
C4682 C4683 1.386 . S
C4682 C4684 1.346 1_545 S
C4683 C4682 1.386 . S
C4683 C4687 1.393 . S
C4684 H4673 0.979 . S
C4684 C4682 1.346 1_565 S
C4684 C4685 1.421 . S
C4685 C4679 1.491 . S
C4685 C4684 1.421 . S
C4685 C4686 1.398 1_565 S
C4686 H4674 0.940 1_545 S
C4686 C4685 1.398 1_545 S
C4686 C4687 1.391 . S
C4687 H4675 0.950 . S
C4687 C4683 1.393 . S
C4687 C4686 1.391 . S
H4688 C4696 0.950 . S
H4689 C4701 0.950 . S
H4690 C4698 0.950 . S
H4691 C4700 0.950 . S
H4692 C4702 0.950 . S
H4693 C4704 0.950 . S
H4694 C4706 0.950 . S
H4695 C4707 0.943 1_545 S
C4696 H4688 0.950 . S
C4696 C4697 1.386 . S
C4696 C4698 1.391 . S
C4697 C4696 1.386 . S
C4697 C4701 1.393 . S
C4698 H4690 0.950 . S
C4698 C4696 1.391 . S
C4698 C4699 1.400 . S
C4699 C4698 1.400 . S
C4699 C4700 1.398 . S
C4699 C4705 1.491 . S
C4700 H4691 0.950 . S
C4700 C4699 1.398 . S
C4700 C4701 1.391 . S
C4701 H4689 0.950 . S
C4701 C4697 1.393 . S
C4701 C4700 1.391 . S
C4702 H4692 0.950 . S
C4702 C4703 1.386 . S
C4702 C4704 1.391 . S
C4703 C4702 1.386 . S
C4703 C4707 1.393 . S
C4704 H4693 0.950 . S
C4704 C4702 1.391 . S
C4704 C4705 1.400 1_565 S
C4705 C4699 1.491 . S
C4705 C4704 1.400 1_545 S
C4705 C4706 1.398 . S
C4706 H4694 0.950 . S
C4706 C4705 1.398 . S
C4706 C4707 1.391 1_545 S
C4707 H4695 0.943 1_565 S
C4707 C4703 1.393 . S
C4707 C4706 1.391 1_565 S
H4708 C4716 0.950 . S
H4709 C4721 0.950 . S
H4710 C4718 0.950 . S
H4711 C4720 0.950 . S
H4712 C4722 0.950 . S
H4713 C4724 0.950 . S
H4714 C4726 0.950 . S
H4715 C4727 0.950 . S
C4716 H4708 0.950 . S
C4716 C4717 1.386 . S
C4716 C4718 1.391 . S
C4717 C4716 1.386 . S
C4717 C4721 1.393 . S
C4718 H4710 0.950 . S
C4718 C4716 1.391 . S
C4718 C4719 1.400 . S
C4719 C4718 1.400 . S
C4719 C4720 1.398 . S
C4719 C4725 1.491 . S
C4720 H4711 0.950 . S
C4720 C4719 1.398 . S
C4720 C4721 1.391 . S
C4721 H4709 0.950 . S
C4721 C4717 1.393 . S
C4721 C4720 1.391 . S
C4722 H4712 0.950 . S
C4722 C4723 1.386 . S
C4722 C4724 1.391 1_554 S
C4723 C4722 1.386 . S
C4723 C4727 1.393 . S
C4724 H4713 0.950 . S
C4724 C4722 1.391 1_556 S
C4724 C4725 1.400 . S
C4725 C4719 1.491 . S
C4725 C4724 1.400 . S
C4725 C4726 1.398 1_556 S
C4726 H4714 0.950 . S
C4726 C4725 1.398 1_554 S
C4726 C4727 1.391 . S
C4727 H4715 0.950 . S
C4727 C4723 1.393 . S
C4727 C4726 1.391 . S
H4728 C4736 0.950 . S
H4729 C4741 0.950 . S
H4730 C4738 0.950 . S
H4731 C4740 0.950 . S
H4732 C4742 0.948 1_655 S
H4733 C4744 0.950 . S
H4734 C4746 0.950 . S
H4735 C4747 0.950 . S
C4736 H4728 0.950 . S
C4736 C4737 1.386 . S
C4736 C4738 1.391 . S
C4737 C4736 1.386 . S
C4737 C4741 1.393 . S
C4738 H4730 0.950 . S
C4738 C4736 1.391 . S
C4738 C4739 1.400 . S
C4739 C4738 1.400 . S
C4739 C4740 1.398 . S
C4739 C4745 1.491 . S
C4740 H4731 0.950 . S
C4740 C4739 1.398 . S
C4740 C4741 1.391 . S
C4741 H4729 0.950 . S
C4741 C4737 1.393 . S
C4741 C4740 1.391 . S
C4742 H4732 0.948 1_455 S
C4742 C4743 1.386 . S
C4742 C4744 1.391 1_455 S
C4743 C4742 1.386 . S
C4743 C4747 1.393 . S
C4744 H4733 0.950 . S
C4744 C4742 1.391 1_655 S
C4744 C4745 1.400 . S
C4745 C4739 1.491 . S
C4745 C4744 1.400 . S
C4745 C4746 1.398 1_655 S
C4746 H4734 0.950 . S
C4746 C4745 1.398 1_455 S
C4746 C4747 1.391 . S
C4747 H4735 0.950 . S
C4747 C4743 1.393 . S
C4747 C4746 1.391 . S
H4748 C4756 0.950 . S
H4749 C4761 0.950 . S
H4750 C4758 0.950 . S
H4751 C4760 0.950 . S
H4752 C4762 0.950 . S
H4753 C4764 0.950 . S
H4754 C4766 0.950 . S
H4755 C4767 0.950 . S
C4756 H4748 0.950 . S
C4756 C4757 1.386 . S
C4756 C4758 1.391 . S
C4757 C4756 1.386 . S
C4757 C4761 1.393 . S
C4758 H4750 0.950 . S
C4758 C4756 1.391 . S
C4758 C4759 1.400 . S
C4759 C4758 1.400 . S
C4759 C4760 1.398 . S
C4759 C4765 1.491 . S
C4760 H4751 0.950 . S
C4760 C4759 1.398 . S
C4760 C4761 1.391 . S
C4761 H4749 0.950 . S
C4761 C4757 1.393 . S
C4761 C4760 1.391 . S
C4762 H4752 0.950 . S
C4762 C4763 1.386 . S
C4762 C4764 1.391 . S
C4763 C4762 1.386 . S
C4763 C4767 1.393 . S
C4764 H4753 0.950 . S
C4764 C4762 1.391 . S
C4764 C4765 1.400 . S
C4765 C4759 1.491 . S
C4765 C4764 1.400 . S
C4765 C4766 1.398 . S
C4766 H4754 0.950 . S
C4766 C4765 1.398 . S
C4766 C4767 1.391 . S
C4767 H4755 0.950 . S
C4767 C4763 1.393 . S
C4767 C4766 1.391 . S
H4768 C4776 0.950 . S
H4769 C4781 0.950 . S
H4770 C4778 0.950 . S
H4771 C4780 0.950 . S
H4772 C4782 0.951 . S
H4773 C4784 0.950 . S
H4774 C4786 0.950 . S
H4775 C4787 0.950 . S
C4776 H4768 0.950 . S
C4776 C4777 1.386 . S
C4776 C4778 1.391 . S
C4777 C4776 1.386 . S
C4777 C4781 1.393 . S
C4778 H4770 0.950 . S
C4778 C4776 1.391 . S
C4778 C4779 1.400 . S
C4779 C4778 1.400 . S
C4779 C4780 1.398 . S
C4779 C4785 1.491 . S
C4780 H4771 0.950 . S
C4780 C4779 1.398 . S
C4780 C4781 1.391 . S
C4781 H4769 0.950 . S
C4781 C4777 1.393 . S
C4781 C4780 1.391 . S
C4782 H4772 0.951 . S
C4782 C4783 1.386 . S
C4782 C4784 1.391 1_455 S
C4783 C4782 1.386 . S
C4783 C4787 1.393 . S
C4784 H4773 0.950 . S
C4784 C4782 1.391 1_655 S
C4784 C4785 1.400 . S
C4785 C4779 1.491 . S
C4785 C4784 1.400 . S
C4785 C4786 1.398 1_655 S
C4786 H4774 0.950 . S
C4786 C4785 1.398 1_455 S
C4786 C4787 1.391 . S
C4787 H4775 0.950 . S
C4787 C4783 1.393 . S
C4787 C4786 1.391 . S
H4788 C4796 0.950 . S
H4789 C4801 0.950 . S
H4790 C4798 0.950 . S
H4791 C4800 0.950 . S
H4792 C4802 0.950 . S
H4793 C4804 0.950 . S
H4794 C4806 0.950 . S
H4795 C4807 0.950 . S
C4796 H4788 0.950 . S
C4796 C4797 1.386 . S
C4796 C4798 1.391 . S
C4797 C4796 1.386 . S
C4797 C4801 1.393 . S
C4798 H4790 0.950 . S
C4798 C4796 1.391 . S
C4798 C4799 1.400 . S
C4799 C4798 1.400 . S
C4799 C4800 1.398 . S
C4799 C4805 1.491 . S
C4800 H4791 0.950 . S
C4800 C4799 1.398 . S
C4800 C4801 1.391 . S
C4801 H4789 0.950 . S
C4801 C4797 1.393 . S
C4801 C4800 1.391 . S
C4802 H4792 0.950 . S
C4802 C4803 1.386 . S
C4802 C4804 1.391 . S
C4803 C4802 1.386 . S
C4803 C4807 1.393 . S
C4804 H4793 0.950 . S
C4804 C4802 1.391 . S
C4804 C4805 1.400 . S
C4805 C4799 1.491 . S
C4805 C4804 1.400 . S
C4805 C4806 1.398 . S
C4806 H4794 0.950 . S
C4806 C4805 1.398 . S
C4806 C4807 1.391 . S
C4807 H4795 0.950 . S
C4807 C4803 1.393 . S
C4807 C4806 1.391 . S
H4808 C4816 0.950 . S
H4809 C4821 0.950 . S
H4810 C4818 0.950 . S
H4811 C4820 0.950 . S
H4812 C4822 0.950 . S
H4813 C4824 0.950 . S
H4814 C4826 0.950 . S
H4815 C4827 0.950 . S
C4816 H4808 0.950 . S
C4816 C4817 1.386 . S
C4816 C4818 1.391 . S
C4817 C4816 1.386 . S
C4817 C4821 1.393 . S
C4818 H4810 0.950 . S
C4818 C4816 1.391 . S
C4818 C4819 1.400 . S
C4819 C4818 1.400 . S
C4819 C4820 1.398 . S
C4819 C4825 1.491 . S
C4820 H4811 0.950 . S
C4820 C4819 1.398 . S
C4820 C4821 1.391 . S
C4821 H4809 0.950 . S
C4821 C4817 1.393 . S
C4821 C4820 1.391 . S
C4822 H4812 0.950 . S
C4822 C4823 1.386 . S
C4822 C4824 1.391 . S
C4823 C4822 1.386 . S
C4823 C4827 1.393 . S
C4824 H4813 0.950 . S
C4824 C4822 1.391 . S
C4824 C4825 1.400 . S
C4825 C4819 1.491 . S
C4825 C4824 1.400 . S
C4825 C4826 1.398 . S
C4826 H4814 0.950 . S
C4826 C4825 1.398 . S
C4826 C4827 1.391 . S
C4827 H4815 0.950 . S
C4827 C4823 1.393 . S
C4827 C4826 1.391 . S
H4828 C4836 0.950 . S
H4829 C4841 0.950 . S
H4830 C4838 0.950 . S
H4831 C4840 0.950 . S
H4832 C4842 0.950 . S
H4833 C4844 0.950 . S
H4834 C4846 0.950 . S
H4835 C4847 0.950 . S
C4836 H4828 0.950 . S
C4836 C4837 1.386 . S
C4836 C4838 1.391 . S
C4837 C4836 1.386 . S
C4837 C4841 1.393 . S
C4838 H4830 0.950 . S
C4838 C4836 1.391 . S
C4838 C4839 1.400 . S
C4839 C4838 1.400 . S
C4839 C4840 1.398 . S
C4839 C4845 1.491 . S
C4840 H4831 0.950 . S
C4840 C4839 1.398 . S
C4840 C4841 1.391 . S
C4841 H4829 0.950 . S
C4841 C4837 1.393 . S
C4841 C4840 1.391 . S
C4842 H4832 0.950 . S
C4842 C4843 1.386 . S
C4842 C4844 1.391 1_554 S
C4843 C4842 1.386 . S
C4843 C4847 1.393 . S
C4844 H4833 0.950 . S
C4844 C4842 1.391 1_556 S
C4844 C4845 1.400 . S
C4845 C4839 1.491 . S
C4845 C4844 1.400 . S
C4845 C4846 1.398 1_556 S
C4846 H4834 0.950 . S
C4846 C4845 1.398 1_554 S
C4846 C4847 1.391 . S
C4847 H4835 0.950 . S
C4847 C4843 1.393 . S
C4847 C4846 1.391 . S
H4848 C4856 0.950 . S
H4849 C4861 0.950 . S
H4850 C4858 0.950 . S
H4851 C4860 0.950 . S
H4852 C4862 0.950 . S
H4853 C4864 0.950 . S
H4854 C4866 0.950 . S
H4855 C4867 0.950 . S
C4856 H4848 0.950 . S
C4856 C4857 1.386 . S
C4856 C4858 1.391 . S
C4857 C4856 1.386 . S
C4857 C4861 1.393 . S
C4858 H4850 0.950 . S
C4858 C4856 1.391 . S
C4858 C4859 1.400 . S
C4859 C4858 1.400 . S
C4859 C4860 1.398 . S
C4859 C4865 1.491 . S
C4860 H4851 0.950 . S
C4860 C4859 1.398 . S
C4860 C4861 1.391 . S
C4861 H4849 0.950 . S
C4861 C4857 1.393 . S
C4861 C4860 1.391 . S
C4862 H4852 0.950 . S
C4862 C4863 1.386 . S
C4862 C4864 1.391 . S
C4863 C4862 1.386 . S
C4863 C4867 1.393 . S
C4864 H4853 0.950 . S
C4864 C4862 1.391 . S
C4864 C4865 1.400 . S
C4865 C4859 1.491 . S
C4865 C4864 1.400 . S
C4865 C4866 1.398 . S
C4866 H4854 0.950 . S
C4866 C4865 1.398 . S
C4866 C4867 1.391 . S
C4867 H4855 0.950 . S
C4867 C4863 1.393 . S
C4867 C4866 1.391 . S
H4868 C4876 0.950 . S
H4869 C4881 0.950 . S
H4870 C4878 0.950 . S
H4871 C4880 0.950 . S
H4872 C4882 0.950 . S
H4873 C4884 0.950 . S
H4874 C4886 0.950 . S
H4875 C4887 0.950 . S
C4876 H4868 0.950 . S
C4876 C4877 1.386 . S
C4876 C4878 1.391 . S
C4877 C4876 1.386 . S
C4877 C4881 1.393 . S
C4878 H4870 0.950 . S
C4878 C4876 1.391 . S
C4878 C4879 1.400 . S
C4879 C4878 1.400 . S
C4879 C4880 1.398 . S
C4879 C4885 1.491 . S
C4880 H4871 0.950 . S
C4880 C4879 1.398 . S
C4880 C4881 1.391 . S
C4881 H4869 0.950 . S
C4881 C4877 1.393 . S
C4881 C4880 1.391 . S
C4882 H4872 0.950 . S
C4882 C4883 1.386 . S
C4882 C4884 1.391 . S
C4883 C4882 1.386 . S
C4883 C4887 1.393 . S
C4884 H4873 0.950 . S
C4884 C4882 1.391 . S
C4884 C4885 1.400 . S
C4885 C4879 1.491 . S
C4885 C4884 1.400 . S
C4885 C4886 1.398 . S
C4886 H4874 0.950 . S
C4886 C4885 1.398 . S
C4886 C4887 1.391 . S
C4887 H4875 0.950 . S
C4887 C4883 1.393 . S
C4887 C4886 1.391 . S
H4888 C4896 0.950 . S
H4889 C4901 0.950 . S
H4890 C4898 0.950 . S
H4891 C4900 0.950 . S
H4892 C4902 0.950 . S
H4893 C4904 0.950 . S
H4894 C4906 0.950 . S
H4895 C4907 0.950 . S
C4896 H4888 0.950 . S
C4896 C4897 1.386 . S
C4896 C4898 1.391 . S
C4897 C4896 1.386 . S
C4897 C4901 1.393 . S
C4898 H4890 0.950 . S
C4898 C4896 1.391 . S
C4898 C4899 1.400 . S
C4899 C4898 1.400 . S
C4899 C4900 1.398 . S
C4899 C4905 1.491 . S
C4900 H4891 0.950 . S
C4900 C4899 1.398 . S
C4900 C4901 1.391 . S
C4901 H4889 0.950 . S
C4901 C4897 1.393 . S
C4901 C4900 1.391 . S
C4902 H4892 0.950 . S
C4902 C4903 1.386 . S
C4902 C4904 1.391 . S
C4903 C4902 1.386 . S
C4903 C4907 1.393 . S
C4904 H4893 0.950 . S
C4904 C4902 1.391 . S
C4904 C4905 1.400 . S
C4905 C4899 1.491 . S
C4905 C4904 1.400 . S
C4905 C4906 1.398 . S
C4906 H4894 0.950 . S
C4906 C4905 1.398 . S
C4906 C4907 1.391 . S
C4907 H4895 0.950 . S
C4907 C4903 1.393 . S
C4907 C4906 1.391 . S
H4908 C4916 0.950 . S
H4909 C4921 0.950 . S
H4910 C4918 0.950 . S
H4911 C4920 0.950 . S
H4912 C4922 0.950 . S
H4913 C4924 0.950 . S
H4914 C4926 0.950 . S
H4915 C4927 0.950 . S
C4916 H4908 0.950 . S
C4916 C4917 1.386 . S
C4916 C4918 1.391 . S
C4917 C4916 1.386 . S
C4917 C4921 1.393 . S
C4918 H4910 0.950 . S
C4918 C4916 1.391 . S
C4918 C4919 1.400 . S
C4919 C4918 1.400 . S
C4919 C4920 1.398 . S
C4919 C4925 1.491 . S
C4920 H4911 0.950 . S
C4920 C4919 1.398 . S
C4920 C4921 1.391 . S
C4921 H4909 0.950 . S
C4921 C4917 1.393 . S
C4921 C4920 1.391 . S
C4922 H4912 0.950 . S
C4922 C4923 1.386 . S
C4922 C4924 1.391 . S
C4923 C4922 1.386 . S
C4923 C4927 1.393 . S
C4924 H4913 0.950 . S
C4924 C4922 1.391 . S
C4924 C4925 1.400 . S
C4925 C4919 1.491 . S
C4925 C4924 1.400 . S
C4925 C4926 1.398 . S
C4926 H4914 0.950 . S
C4926 C4925 1.398 . S
C4926 C4927 1.391 . S
C4927 H4915 0.950 . S
C4927 C4923 1.393 . S
C4927 C4926 1.391 . S
H4928 C4936 0.950 . S
H4929 C4941 0.950 . S
H4930 C4938 0.950 . S
H4931 C4940 0.950 . S
H4932 C4942 0.950 . S
H4933 C4944 0.950 . S
H4934 C4946 0.950 . S
H4935 C4947 0.950 . S
C4936 H4928 0.950 . S
C4936 C4937 1.386 . S
C4936 C4938 1.391 . S
C4937 C4936 1.386 . S
C4937 C4941 1.393 . S
C4938 H4930 0.950 . S
C4938 C4936 1.391 . S
C4938 C4939 1.400 . S
C4939 C4938 1.400 . S
C4939 C4940 1.398 . S
C4939 C4945 1.491 . S
C4940 H4931 0.950 . S
C4940 C4939 1.398 . S
C4940 C4941 1.391 . S
C4941 H4929 0.950 . S
C4941 C4937 1.393 . S
C4941 C4940 1.391 . S
C4942 H4932 0.950 . S
C4942 C4943 1.386 . S
C4942 C4944 1.391 . S
C4943 C4942 1.386 . S
C4943 C4947 1.393 . S
C4944 H4933 0.950 . S
C4944 C4942 1.391 . S
C4944 C4945 1.400 . S
C4945 C4939 1.491 . S
C4945 C4944 1.400 . S
C4945 C4946 1.398 . S
C4946 H4934 0.950 . S
C4946 C4945 1.398 . S
C4946 C4947 1.391 . S
C4947 H4935 0.950 . S
C4947 C4943 1.393 . S
C4947 C4946 1.391 . S
H4948 C4956 0.950 . S
H4949 C4961 0.950 . S
H4950 C4958 0.950 . S
H4951 C4960 0.950 . S
H4952 C4962 0.950 . S
H4953 C4964 0.950 . S
H4954 C4966 0.950 . S
H4955 C4967 0.950 . S
C4956 H4948 0.950 . S
C4956 C4957 1.386 . S
C4956 C4958 1.391 . S
C4957 C4956 1.386 . S
C4957 C4961 1.393 . S
C4958 H4950 0.950 . S
C4958 C4956 1.391 . S
C4958 C4959 1.400 . S
C4959 C4958 1.400 . S
C4959 C4960 1.398 . S
C4959 C4965 1.491 . S
C4960 H4951 0.950 . S
C4960 C4959 1.398 . S
C4960 C4961 1.391 . S
C4961 H4949 0.950 . S
C4961 C4957 1.393 . S
C4961 C4960 1.391 . S
C4962 H4952 0.950 . S
C4962 C4963 1.386 . S
C4962 C4964 1.391 . S
C4963 C4962 1.386 . S
C4963 C4967 1.393 . S
C4964 H4953 0.950 . S
C4964 C4962 1.391 . S
C4964 C4965 1.400 . S
C4965 C4959 1.491 . S
C4965 C4964 1.400 . S
C4965 C4966 1.398 . S
C4966 H4954 0.950 . S
C4966 C4965 1.398 . S
C4966 C4967 1.391 . S
C4967 H4955 0.950 . S
C4967 C4963 1.393 . S
C4967 C4966 1.391 . S
H4968 C4976 0.950 . S
H4969 C4981 0.950 . S
H4970 C4978 0.950 . S
H4971 C4980 0.950 . S
H4972 C4982 0.950 . S
H4973 C4984 0.950 . S
H4974 C4986 0.950 . S
H4975 C4987 0.941 1_554 S
C4976 H4968 0.950 . S
C4976 C4977 1.386 . S
C4976 C4978 1.391 . S
C4977 C4976 1.386 . S
C4977 C4981 1.393 . S
C4978 H4970 0.950 . S
C4978 C4976 1.391 . S
C4978 C4979 1.400 . S
C4979 C4978 1.400 . S
C4979 C4980 1.398 . S
C4979 C4985 1.491 . S
C4980 H4971 0.950 . S
C4980 C4979 1.398 . S
C4980 C4981 1.391 . S
C4981 H4969 0.950 . S
C4981 C4977 1.393 . S
C4981 C4980 1.391 . S
C4982 H4972 0.950 . S
C4982 C4983 1.386 . S
C4982 C4984 1.391 . S
C4983 C4982 1.386 . S
C4983 C4987 1.393 . S
C4984 H4973 0.950 . S
C4984 C4982 1.391 . S
C4984 C4985 1.400 1_556 S
C4985 C4979 1.491 . S
C4985 C4984 1.400 1_554 S
C4985 C4986 1.398 . S
C4986 H4974 0.950 . S
C4986 C4985 1.398 . S
C4986 C4987 1.391 1_554 S
C4987 H4975 0.941 1_556 S
C4987 C4983 1.393 . S
C4987 C4986 1.391 1_556 S
H4988 C4996 0.950 . S
H4989 C5001 0.950 . S
H4990 C4998 0.950 . S
H4991 C5000 0.950 . S
H4992 C5002 0.950 . S
H4993 C5004 0.950 . S
H4994 C5006 0.950 . S
H4995 C5007 0.950 . S
C4996 H4988 0.950 . S
C4996 C4997 1.386 . S
C4996 C4998 1.391 . S
C4997 C4996 1.386 . S
C4997 C5001 1.393 . S
C4998 H4990 0.950 . S
C4998 C4996 1.391 . S
C4998 C4999 1.400 . S
C4999 C4998 1.400 . S
C4999 C5000 1.398 . S
C4999 C5005 1.491 . S
C5000 H4991 0.950 . S
C5000 C4999 1.398 . S
C5000 C5001 1.391 . S
C5001 H4989 0.950 . S
C5001 C4997 1.393 . S
C5001 C5000 1.391 . S
C5002 H4992 0.950 . S
C5002 C5003 1.386 . S
C5002 C5004 1.391 . S
C5003 C5002 1.386 . S
C5003 C5007 1.393 . S
C5004 H4993 0.950 . S
C5004 C5002 1.391 . S
C5004 C5005 1.400 . S
C5005 C4999 1.491 . S
C5005 C5004 1.400 . S
C5005 C5006 1.398 . S
C5006 H4994 0.950 . S
C5006 C5005 1.398 . S
C5006 C5007 1.391 . S
C5007 H4995 0.950 . S
C5007 C5003 1.393 . S
C5007 C5006 1.391 . S
H5008 C5016 0.950 . S
H5009 C5021 0.950 . S
H5010 C5018 0.950 . S
H5011 C5020 0.950 . S
H5012 C5022 0.950 . S
H5013 C5024 0.950 . S
H5014 C5026 0.950 . S
H5015 C5027 0.950 . S
C5016 H5008 0.950 . S
C5016 C5017 1.386 . S
C5016 C5018 1.391 . S
C5017 C5016 1.386 . S
C5017 C5021 1.393 . S
C5018 H5010 0.950 . S
C5018 C5016 1.391 . S
C5018 C5019 1.400 . S
C5019 C5018 1.400 . S
C5019 C5020 1.398 . S
C5019 C5025 1.491 . S
C5020 H5011 0.950 . S
C5020 C5019 1.398 . S
C5020 C5021 1.391 . S
C5021 H5009 0.950 . S
C5021 C5017 1.393 . S
C5021 C5020 1.391 . S
C5022 H5012 0.950 . S
C5022 C5023 1.386 . S
C5022 C5024 1.391 . S
C5023 C5022 1.386 . S
C5023 C5027 1.393 . S
C5024 H5013 0.950 . S
C5024 C5022 1.391 . S
C5024 C5025 1.400 . S
C5025 C5019 1.491 . S
C5025 C5024 1.400 . S
C5025 C5026 1.398 . S
C5026 H5014 0.950 . S
C5026 C5025 1.398 . S
C5026 C5027 1.391 . S
C5027 H5015 0.950 . S
C5027 C5023 1.393 . S
C5027 C5026 1.391 . S
H5028 C5036 0.950 . S
H5029 C5041 0.950 . S
H5030 C5038 0.950 . S
H5031 C5040 0.950 . S
H5032 C5042 0.950 . S
H5033 C5044 0.950 . S
H5034 C5046 0.950 . S
H5035 C5047 0.950 . S
C5036 H5028 0.950 . S
C5036 C5037 1.386 . S
C5036 C5038 1.391 . S
C5037 C5036 1.386 . S
C5037 C5041 1.393 . S
C5038 H5030 0.950 . S
C5038 C5036 1.391 . S
C5038 C5039 1.400 . S
C5039 C5038 1.400 . S
C5039 C5040 1.398 . S
C5039 C5045 1.491 . S
C5040 H5031 0.950 . S
C5040 C5039 1.398 . S
C5040 C5041 1.391 . S
C5041 H5029 0.950 . S
C5041 C5037 1.393 . S
C5041 C5040 1.391 . S
C5042 H5032 0.950 . S
C5042 C5043 1.386 . S
C5042 C5044 1.391 . S
C5043 C5042 1.386 . S
C5043 C5047 1.393 . S
C5044 H5033 0.950 . S
C5044 C5042 1.391 . S
C5044 C5045 1.400 . S
C5045 C5039 1.491 . S
C5045 C5044 1.400 . S
C5045 C5046 1.398 . S
C5046 H5034 0.950 . S
C5046 C5045 1.398 . S
C5046 C5047 1.391 . S
C5047 H5035 0.950 . S
C5047 C5043 1.393 . S
C5047 C5046 1.391 . S
H5048 C5056 0.950 . S
H5049 C5061 0.950 . S
H5050 C5058 0.950 . S
H5051 C5060 0.950 . S
H5052 C5062 0.950 . S
H5053 C5064 0.950 . S
H5054 C5066 0.950 . S
H5055 C5067 0.950 . S
C5056 H5048 0.950 . S
C5056 C5057 1.386 . S
C5056 C5058 1.391 . S
C5057 C5056 1.386 . S
C5057 C5061 1.393 . S
C5058 H5050 0.950 . S
C5058 C5056 1.391 . S
C5058 C5059 1.400 . S
C5059 C5058 1.400 . S
C5059 C5060 1.398 . S
C5059 C5065 1.491 . S
C5060 H5051 0.950 . S
C5060 C5059 1.398 . S
C5060 C5061 1.391 . S
C5061 H5049 0.950 . S
C5061 C5057 1.393 . S
C5061 C5060 1.391 . S
C5062 H5052 0.950 . S
C5062 C5063 1.386 . S
C5062 C5064 1.391 . S
C5063 C5062 1.386 . S
C5063 C5067 1.393 . S
C5064 H5053 0.950 . S
C5064 C5062 1.391 . S
C5064 C5065 1.400 . S
C5065 C5059 1.491 . S
C5065 C5064 1.400 . S
C5065 C5066 1.398 . S
C5066 H5054 0.950 . S
C5066 C5065 1.398 . S
C5066 C5067 1.391 . S
C5067 H5055 0.950 . S
C5067 C5063 1.393 . S
C5067 C5066 1.391 . S
H5068 C5076 0.950 . S
H5069 C5081 0.950 . S
H5070 C5078 0.950 . S
H5071 C5080 0.950 . S
H5072 C5082 0.950 . S
H5073 C5084 0.950 . S
H5074 C5086 0.950 . S
H5075 C5087 0.950 . S
C5076 H5068 0.950 . S
C5076 C5077 1.386 . S
C5076 C5078 1.391 . S
C5077 C5076 1.386 . S
C5077 C5081 1.393 . S
C5078 H5070 0.950 . S
C5078 C5076 1.391 . S
C5078 C5079 1.400 . S
C5079 C5078 1.400 . S
C5079 C5080 1.398 . S
C5079 C5085 1.491 . S
C5080 H5071 0.950 . S
C5080 C5079 1.398 . S
C5080 C5081 1.391 . S
C5081 H5069 0.950 . S
C5081 C5077 1.393 . S
C5081 C5080 1.391 . S
C5082 H5072 0.950 . S
C5082 C5083 1.386 . S
C5082 C5084 1.391 . S
C5083 C5082 1.386 . S
C5083 C5087 1.393 . S
C5084 H5073 0.950 . S
C5084 C5082 1.391 . S
C5084 C5085 1.400 . S
C5085 C5079 1.491 . S
C5085 C5084 1.400 . S
C5085 C5086 1.398 . S
C5086 H5074 0.950 . S
C5086 C5085 1.398 . S
C5086 C5087 1.391 . S
C5087 H5075 0.950 . S
C5087 C5083 1.393 . S
C5087 C5086 1.391 . S
C1257 C4 1.230 . S
C1263 C980 1.223 . S
C1277 C317 1.240 . S
C1283 C23 1.228 . S
C1297 C954 1.233 . S
C1303 C36 1.222 . S
C1317 C343 1.223 . S
C1323 C49 1.230 . S
C1337 C62 1.222 . S
C1343 C1004 1.231 . S
C1357 C69 1.239 . S
C1363 C393 1.234 . S
C1377 C1030 1.227 . S
C1383 C88 1.240 . S
C1397 C95 1.227 . S
C1403 C369 1.224 . S
C1417 C114 1.240 . S
C1423 C1173 1.228 . S
C1437 C564 1.226 . S
C1443 C127 1.225 . S
C1457 C140 1.227 . S
C1463 C575 1.240 . S
C1477 C147 1.235 . S
C1483 C538 1.222 . S
C1497 C160 1.224 . S
C1503 C1227 1.238 . S
C1517 C173 1.224 . S
C1523 C1147 1.228 . S
C1537 C186 1.231 . S
C1543 C1238 1.240 . S
C1557 C199 1.227 . S
C1563 C1212 1.225 . S
C1577 C1056 1.225 . S
C1583 C218 1.239 . S
C1597 C231 1.239 . S
C1603 C512 1.224 . S
C1617 C244 1.235 . S
C1623 C1095 1.222 . S
C1637 C484 1.231 . S
C1643 C251 1.240 . S
C1657 C270 1.222 . S
C1663 C497 1.232 . S
C1677 C1082 1.238 . S
C1683 C283 1.224 . S
C1697 C296 1.224 . S
C1703 C1043 1.238 . S
C1717 C1071 1.224 . S
C1723 C309 1.239 . S
C1737 C668 1.224 . S
C1743 C322 1.228 . S
C1757 C3 1.231 . S
C1763 C329 1.222 . S
C1777 C348 1.240 . S
C1783 C642 1.229 . S
C1797 C361 1.224 . S
C1803 C31 1.238 . S
C1817 C374 1.227 . S
C1823 C692 1.224 . S
C1837 C83 1.227 . S
C1843 C381 1.240 . S
C1857 C394 1.222 . S
C1863 C718 1.233 . S
C1877 C413 1.226 . S
C1883 C57 1.240 . S
C1897 C420 1.222 . S
C1903 C861 1.234 . S
C1917 C250 1.238 . S
C1923 C439 1.224 . S
C1937 C452 1.238 . S
C1943 C265 1.236 . S
C1957 C226 1.239 . S
C1963 C459 1.234 . S
C1977 C472 1.240 . S
C1983 C915 1.233 . S
C1997 C485 1.230 . S
C2003 C835 1.223 . S
C2017 C498 1.227 . S
C2023 C928 1.224 . S
C2037 C900 1.240 . S
C2043 C517 1.231 . S
C2057 C746 1.223 . S
C2063 C524 1.236 . S
C2077 C198 1.239 . S
C2083 C543 1.235 . S
C2097 C783 1.229 . S
C2103 C550 1.223 . S
C2117 C569 1.234 . S
C2123 C172 1.239 . S
C2137 C576 1.236 . S
C2143 C185 1.238 . S
C2157 C589 1.232 . S
C2163 C772 1.240 . S
C2177 C733 1.225 . S
C2183 C602 1.239 . S
C2197 C615 1.240 . S
C2203 C759 1.233 . S
C2217 C356 1.237 . S
C2223 C634 1.237 . S
C2237 C941 1.222 . S
C2243 C647 1.233 . S
C2257 C654 1.222 . S
C2263 C328 1.232 . S
C2277 C967 1.223 . S
C2283 C673 1.237 . S
C2297 C680 1.231 . S
C2303 C380 1.222 . S
C2317 C1017 1.240 . S
C2323 C693 1.226 . S
C2337 C706 1.224 . S
C2343 C408 1.238 . S
C2357 C991 1.225 . S
C2363 C719 1.239 . S
C2377 C549 1.240 . S
C2383 C738 1.228 . S
C2397 C751 1.226 . S
C2403 C1188 1.239 . S
C2417 C1201 1.240 . S
C2423 C764 1.230 . S
C2437 C777 1.224 . S
C2443 C1162 1.238 . S
C2457 C601 1.233 . S
C2463 C784 1.240 . S
C2477 C797 1.222 . S
C2483 C523 1.232 . S
C2497 C614 1.240 . S
C2503 C810 1.226 . S
C2517 C588 1.240 . S
C2523 C823 1.228 . S
C2537 C434 1.240 . S
C2543 C836 1.229 . S
C2557 C1134 1.237 . S
C2563 C855 1.237 . S
C2577 C862 1.226 . S
C2583 C471 1.240 . S
C2597 C881 1.227 . S
C2603 C1108 1.240 . S
C2617 C1123 1.239 . S
C2623 C894 1.225 . S
C2637 C458 1.238 . S
C2643 C901 1.235 . S
C2657 C419 1.222 . S
C2663 C920 1.232 . S
C2677 C447 1.226 . S
C2683 C933 1.226 . S
C2697 C946 1.236 . S
C2703 C44 1.238 . S
C2717 C959 1.224 . S
C2723 C629 1.227 . S
C2737 C972 1.223 . S
C2743 C18 1.229 . S
C2757 C985 1.223 . S
C2763 C653 1.230 . S
C2777 C68 1.235 . S
C2783 C992 1.239 . S
C2797 C705 1.231 . S
C2803 C1005 1.240 . S
C2817 C94 1.222 . S
C2823 C1018 1.233 . S
C2837 C679 1.234 . S
C2843 C1031 1.222 . S
C2857 C1044 1.236 . S
C2863 C239 1.238 . S
C2877 C876 1.234 . S
C2883 C1057 1.239 . S
C2897 C1076 1.231 . S
C2903 C889 1.222 . S
C2917 C1083 1.225 . S
C2923 C850 1.226 . S
C2937 C291 1.223 . S
C2943 C1096 1.237 . S
C2957 C213 1.237 . S
C2963 C1109 1.223 . S
C2977 C1128 1.230 . S
C2983 C304 1.223 . S
C2997 C278 1.240 . S
C3003 C1135 1.229 . S
C3017 C1148 1.240 . S
C3023 C122 1.228 . S
C3037 C1167 1.239 . S
C3043 C822 1.234 . S
C3057 C159 1.230 . S
C3063 C1174 1.223 . S
C3077 C1193 1.228 . S
C3083 C796 1.240 . S
C3097 C809 1.239 . S
C3103 C1206 1.225 . S
C3117 C1213 1.227 . S
C3123 C146 1.240 . S
C3137 C1232 1.237 . S
C3143 C109 1.236 . S
C3157 C1239 1.225 . S
C3163 C135 1.226 . S
C3177 C10 1.213 . S
C3183 C121 1.198 . S
C3197 C17 1.210 . S
C3203 C134 1.204 . S
C3217 C153 1.212 . S
C3223 C30 1.202 . S
C3237 C43 1.199 . S
C3243 C108 1.213 . S
C3257 C205 1.207 . S
C3263 C56 1.208 . S
C3277 C75 1.193 . S
C3283 C166 1.202 . S
C3297 C82 1.197 . S
C3303 C179 1.213 . S
C3317 C192 1.193 . S
C3323 C101 1.202 . S
C3337 C238 1.213 . S
C3343 C212 1.193 . S
C3357 C225 1.213 . S
C3363 C914 1.197 . S
C3377 C927 1.196 . S
C3383 C257 1.213 . S
C3397 C264 1.213 . S
C3403 C907 1.196 . S
C3417 C888 1.205 . S
C3423 C277 1.210 . S
C3437 C290 1.191 . S
C3443 C849 1.210 . S
C3457 C303 1.192 . S
C3463 C875 1.204 . S
C3477 C316 1.195 . S
C3483 C433 1.199 . S
C3497 C446 1.197 . S
C3503 C335 1.213 . S
C3517 C465 1.210 . S
C3523 C342 1.191 . S
C3537 C355 1.209 . S
C3543 C426 1.191 . S
C3557 C511 1.209 . S
C3563 C368 1.206 . S
C3577 C387 1.205 . S
C3583 C478 1.191 . S
C3597 C491 1.198 . S
C3603 C400 1.213 . S
C3617 C407 1.193 . S
C3623 C504 1.213 . S
C3637 C556 1.213 . S
C3643 C530 1.197 . S
C3657 C537 1.201 . S
C3663 C1226 1.193 . S
C3677 C563 1.192 . S
C3683 C1245 1.212 . S
C3697 C1219 1.211 . S
C3703 C582 1.191 . S
C3717 C1200 1.200 . S
C3723 C595 1.213 . S
C3737 C1161 1.195 . S
C3743 C608 1.199 . S
C3757 C1187 1.210 . S
C3763 C621 1.204 . S
C3777 C745 1.203 . S
C3783 C628 1.211 . S
C3797 C758 1.213 . S
C3803 C641 1.196 . S
C3817 C771 1.202 . S
C3823 C660 1.193 . S
C3837 C667 1.191 . S
C3843 C732 1.208 . S
C3857 C686 1.213 . S
C3863 C829 1.198 . S
C3877 C699 1.193 . S
C3883 C790 1.201 . S
C3897 C712 1.207 . S
C3903 C803 1.191 . S
C3917 C725 1.208 . S
C3923 C816 1.207 . S
C3937 C868 1.213 . S
C3943 C842 1.195 . S
C3957 C1063 1.213 . S
C3963 C940 1.198 . S
C3977 C953 1.192 . S
C3983 C1070 1.204 . S
C3997 C1089 1.199 . S
C4003 C966 1.195 . S
C4017 C1050 1.213 . S
C4023 C979 1.194 . S
C4037 C1141 1.191 . S
C4043 C998 1.210 . S
C4057 C1102 1.205 . S
C4063 C1011 1.192 . S
C4077 C1115 1.213 . S
C4083 C1024 1.198 . S
C4097 C1122 1.191 . S
C4103 C1037 1.206 . S
C4117 C1180 1.205 . S
C4123 C1154 1.191 . S
C4137 C5 1.476 . S
C4143 C263 1.468 . S
C4157 C848 1.477 . S
C4163 C16 1.468 . S
C4177 C863 1.477 . S
C4183 C29 1.468 . S
C4197 C874 1.487 . S
C4203 C42 1.474 . S
C4217 C926 1.486 . S
C4223 C55 1.472 . S
C4237 C70 1.477 . S
C4243 C276 1.487 . S
C4257 C81 1.468 . S
C4263 C913 1.479 . S
C4277 C96 1.486 . S
C4283 C211 1.479 . S
C4297 C107 1.471 . S
C4303 C200 1.472 . S
C4317 C120 1.480 . S
C4323 C161 1.486 . S
C4337 C133 1.477 . S
C4343 C174 1.468 . S
C4357 C187 1.475 . S
C4363 C148 1.469 . S
C4377 C640 1.472 . S
C4383 C224 1.486 . S
C4397 C237 1.474 . S
C4403 C655 1.469 . S
C4417 C252 1.486 . S
C4423 C666 1.473 . S
C4437 C707 1.470 . S
C4443 C289 1.473 . S
C4457 C302 1.480 . S
C4463 C681 1.486 . S
C4477 C315 1.470 . S
C4483 C577 1.484 . S
C4497 C1160 1.483 . S
C4503 C330 1.469 . S
C4517 C1175 1.484 . S
C4523 C341 1.483 . S
C4537 C1186 1.471 . S
C4543 C354 1.472 . S
C4557 C367 1.468 . S
C4563 C1240 1.479 . S
C4577 C382 1.475 . S
C4583 C590 1.487 . S
C4597 C395 1.476 . S
C4603 C1225 1.468 . S
C4617 C406 1.481 . S
C4623 C525 1.468 . S
C4637 C421 1.480 . S
C4643 C510 1.486 . S
C4657 C432 1.475 . S
C4663 C473 1.487 . S
C4677 C486 1.470 . S
C4683 C445 1.485 . S
C4697 C460 1.486 . S
C4703 C499 1.478 . S
C4717 C952 1.470 . S
C4723 C536 1.485 . S
C4737 C551 1.468 . S
C4743 C965 1.476 . S
C4757 C978 1.468 . S
C4763 C562 1.481 . S
C4777 C603 1.473 . S
C4783 C1019 1.470 . S
C4797 C993 1.482 . S
C4803 C616 1.484 . S
C4817 C627 1.476 . S
C4823 C887 1.468 . S
C4837 C694 1.487 . S
C4843 C902 1.476 . S
C4857 C720 1.476 . S
C4863 C837 1.469 . S
C4877 C824 1.479 . S
C4883 C731 1.486 . S
C4897 C744 1.473 . S
C4903 C785 1.470 . S
C4917 C798 1.472 . S
C4923 C757 1.486 . S
C4937 C770 1.481 . S
C4943 C811 1.485 . S
C4957 C1199 1.468 . S
C4963 C939 1.480 . S
C4977 C1006 1.483 . S
C4983 C1214 1.484 . S
C4997 C1032 1.473 . S
C5003 C1149 1.486 . S
C5017 C1136 1.475 . S
C5023 C1045 1.469 . S
C5037 C1097 1.468 . S
C5043 C1058 1.480 . S
C5057 C1069 1.473 . S
C5063 C1110 1.470 . S
C5077 C1084 1.482 . S
C5083 C1121 1.468 . S
