# Generated by pormake.
# Topology nfb, (4)-cn, num edge types: 1
# Building blocks:
#     Node 0, Type 0, BuildingBlock: NAHDIM_clean_sbu_0, # of connection points: 4
#     Node 1, Type 0, BuildingBlock: NAHDIM_clean_sbu_0, # of connection points: 4
#     Node 2, Type 0, BuildingBlock: NAHDIM_clean_sbu_0, # of connection points: 4
#     Node 3, Type 0, BuildingBlock: NAHDIM_clean_sbu_0, # of connection points: 4
#     Node 4, Type 0, BuildingBlock: NAHDIM_clean_sbu_0, # of connection points: 4
#     Node 5, Type 0, BuildingBlock: NAHDIM_clean_sbu_0, # of connection points: 4
#     Node 6, Type 0, BuildingBlock: NAHDIM_clean_sbu_0, # of connection points: 4
#     Node 7, Type 0, BuildingBlock: NAHDIM_clean_sbu_0, # of connection points: 4
#     Node 8, Type 0, BuildingBlock: NAHDIM_clean_sbu_0, # of connection points: 4
#     Node 9, Type 0, BuildingBlock: NAHDIM_clean_sbu_0, # of connection points: 4
#     Node 10, Type 0, BuildingBlock: NAHDIM_clean_sbu_0, # of connection points: 4
#     Node 11, Type 0, BuildingBlock: NAHDIM_clean_sbu_0, # of connection points: 4
#     Node 12, Type 0, BuildingBlock: NAHDIM_clean_sbu_0, # of connection points: 4
#     Node 13, Type 0, BuildingBlock: NAHDIM_clean_sbu_0, # of connection points: 4
#     Node 14, Type 0, BuildingBlock: NAHDIM_clean_sbu_0, # of connection points: 4
#     Node 15, Type 0, BuildingBlock: NAHDIM_clean_sbu_0, # of connection points: 4
#     Node 16, Type 0, BuildingBlock: NAHDIM_clean_sbu_0, # of connection points: 4
#     Node 17, Type 0, BuildingBlock: NAHDIM_clean_sbu_0, # of connection points: 4
#     Node 18, Type 0, BuildingBlock: NAHDIM_clean_sbu_0, # of connection points: 4
#     Node 19, Type 0, BuildingBlock: NAHDIM_clean_sbu_0, # of connection points: 4
#     Node 20, Type 0, BuildingBlock: NAHDIM_clean_sbu_0, # of connection points: 4
#     Node 21, Type 0, BuildingBlock: NAHDIM_clean_sbu_0, # of connection points: 4
#     Node 22, Type 0, BuildingBlock: NAHDIM_clean_sbu_0, # of connection points: 4
#     Node 23, Type 0, BuildingBlock: NAHDIM_clean_sbu_0, # of connection points: 4
#     Node 24, Type 0, BuildingBlock: NAHDIM_clean_sbu_0, # of connection points: 4
#     Node 25, Type 0, BuildingBlock: NAHDIM_clean_sbu_0, # of connection points: 4
#     Node 26, Type 0, BuildingBlock: NAHDIM_clean_sbu_0, # of connection points: 4
#     Node 27, Type 0, BuildingBlock: NAHDIM_clean_sbu_0, # of connection points: 4
#     Node 28, Type 0, BuildingBlock: NAHDIM_clean_sbu_0, # of connection points: 4
#     Node 29, Type 0, BuildingBlock: NAHDIM_clean_sbu_0, # of connection points: 4
#     Node 30, Type 0, BuildingBlock: NAHDIM_clean_sbu_0, # of connection points: 4
#     Node 31, Type 0, BuildingBlock: NAHDIM_clean_sbu_0, # of connection points: 4
#     Node 32, Type 0, BuildingBlock: NAHDIM_clean_sbu_0, # of connection points: 4
#     Node 33, Type 0, BuildingBlock: NAHDIM_clean_sbu_0, # of connection points: 4
#     Node 34, Type 0, BuildingBlock: NAHDIM_clean_sbu_0, # of connection points: 4
#     Node 35, Type 0, BuildingBlock: NAHDIM_clean_sbu_0, # of connection points: 4
#     Node 36, Type 0, BuildingBlock: NAHDIM_clean_sbu_0, # of connection points: 4
#     Node 37, Type 0, BuildingBlock: NAHDIM_clean_sbu_0, # of connection points: 4
#     Node 38, Type 0, BuildingBlock: NAHDIM_clean_sbu_0, # of connection points: 4
#     Node 39, Type 0, BuildingBlock: NAHDIM_clean_sbu_0, # of connection points: 4
#     Node 40, Type 0, BuildingBlock: NAHDIM_clean_sbu_0, # of connection points: 4
#     Node 41, Type 0, BuildingBlock: NAHDIM_clean_sbu_0, # of connection points: 4
#     Node 42, Type 0, BuildingBlock: NAHDIM_clean_sbu_0, # of connection points: 4
#     Node 43, Type 0, BuildingBlock: NAHDIM_clean_sbu_0, # of connection points: 4
#     Node 44, Type 0, BuildingBlock: NAHDIM_clean_sbu_0, # of connection points: 4
#     Node 45, Type 0, BuildingBlock: NAHDIM_clean_sbu_0, # of connection points: 4
#     Node 46, Type 0, BuildingBlock: NAHDIM_clean_sbu_0, # of connection points: 4
#     Node 47, Type 0, BuildingBlock: NAHDIM_clean_sbu_0, # of connection points: 4
#     Edge 48, Type (0, 0), BuildingBlock: KIFKEQ_clean_linker_1, # of connection points: 2
#     Edge 49, Type (0, 0), BuildingBlock: KIFKEQ_clean_linker_1, # of connection points: 2
#     Edge 50, Type (0, 0), BuildingBlock: KIFKEQ_clean_linker_1, # of connection points: 2
#     Edge 51, Type (0, 0), BuildingBlock: KIFKEQ_clean_linker_1, # of connection points: 2
#     Edge 52, Type (0, 0), BuildingBlock: KIFKEQ_clean_linker_1, # of connection points: 2
#     Edge 53, Type (0, 0), BuildingBlock: KIFKEQ_clean_linker_1, # of connection points: 2
#     Edge 54, Type (0, 0), BuildingBlock: KIFKEQ_clean_linker_1, # of connection points: 2
#     Edge 55, Type (0, 0), BuildingBlock: KIFKEQ_clean_linker_1, # of connection points: 2
#     Edge 56, Type (0, 0), BuildingBlock: KIFKEQ_clean_linker_1, # of connection points: 2
#     Edge 57, Type (0, 0), BuildingBlock: KIFKEQ_clean_linker_1, # of connection points: 2
#     Edge 58, Type (0, 0), BuildingBlock: KIFKEQ_clean_linker_1, # of connection points: 2
#     Edge 59, Type (0, 0), BuildingBlock: KIFKEQ_clean_linker_1, # of connection points: 2
#     Edge 60, Type (0, 0), BuildingBlock: KIFKEQ_clean_linker_1, # of connection points: 2
#     Edge 61, Type (0, 0), BuildingBlock: KIFKEQ_clean_linker_1, # of connection points: 2
#     Edge 62, Type (0, 0), BuildingBlock: KIFKEQ_clean_linker_1, # of connection points: 2
#     Edge 63, Type (0, 0), BuildingBlock: KIFKEQ_clean_linker_1, # of connection points: 2
#     Edge 64, Type (0, 0), BuildingBlock: KIFKEQ_clean_linker_1, # of connection points: 2
#     Edge 65, Type (0, 0), BuildingBlock: KIFKEQ_clean_linker_1, # of connection points: 2
#     Edge 66, Type (0, 0), BuildingBlock: KIFKEQ_clean_linker_1, # of connection points: 2
#     Edge 67, Type (0, 0), BuildingBlock: KIFKEQ_clean_linker_1, # of connection points: 2
#     Edge 68, Type (0, 0), BuildingBlock: KIFKEQ_clean_linker_1, # of connection points: 2
#     Edge 69, Type (0, 0), BuildingBlock: KIFKEQ_clean_linker_1, # of connection points: 2
#     Edge 70, Type (0, 0), BuildingBlock: KIFKEQ_clean_linker_1, # of connection points: 2
#     Edge 71, Type (0, 0), BuildingBlock: KIFKEQ_clean_linker_1, # of connection points: 2
#     Edge 72, Type (0, 0), BuildingBlock: KIFKEQ_clean_linker_1, # of connection points: 2
#     Edge 73, Type (0, 0), BuildingBlock: KIFKEQ_clean_linker_1, # of connection points: 2
#     Edge 74, Type (0, 0), BuildingBlock: KIFKEQ_clean_linker_1, # of connection points: 2
#     Edge 75, Type (0, 0), BuildingBlock: KIFKEQ_clean_linker_1, # of connection points: 2
#     Edge 76, Type (0, 0), BuildingBlock: KIFKEQ_clean_linker_1, # of connection points: 2
#     Edge 77, Type (0, 0), BuildingBlock: KIFKEQ_clean_linker_1, # of connection points: 2
#     Edge 78, Type (0, 0), BuildingBlock: KIFKEQ_clean_linker_1, # of connection points: 2
#     Edge 79, Type (0, 0), BuildingBlock: KIFKEQ_clean_linker_1, # of connection points: 2
#     Edge 80, Type (0, 0), BuildingBlock: KIFKEQ_clean_linker_1, # of connection points: 2
#     Edge 81, Type (0, 0), BuildingBlock: KIFKEQ_clean_linker_1, # of connection points: 2
#     Edge 82, Type (0, 0), BuildingBlock: KIFKEQ_clean_linker_1, # of connection points: 2
#     Edge 83, Type (0, 0), BuildingBlock: KIFKEQ_clean_linker_1, # of connection points: 2
#     Edge 84, Type (0, 0), BuildingBlock: KIFKEQ_clean_linker_1, # of connection points: 2
#     Edge 85, Type (0, 0), BuildingBlock: KIFKEQ_clean_linker_1, # of connection points: 2
#     Edge 86, Type (0, 0), BuildingBlock: KIFKEQ_clean_linker_1, # of connection points: 2
#     Edge 87, Type (0, 0), BuildingBlock: KIFKEQ_clean_linker_1, # of connection points: 2
#     Edge 88, Type (0, 0), BuildingBlock: KIFKEQ_clean_linker_1, # of connection points: 2
#     Edge 89, Type (0, 0), BuildingBlock: KIFKEQ_clean_linker_1, # of connection points: 2
#     Edge 90, Type (0, 0), BuildingBlock: KIFKEQ_clean_linker_1, # of connection points: 2
#     Edge 91, Type (0, 0), BuildingBlock: KIFKEQ_clean_linker_1, # of connection points: 2
#     Edge 92, Type (0, 0), BuildingBlock: KIFKEQ_clean_linker_1, # of connection points: 2
#     Edge 93, Type (0, 0), BuildingBlock: KIFKEQ_clean_linker_1, # of connection points: 2
#     Edge 94, Type (0, 0), BuildingBlock: KIFKEQ_clean_linker_1, # of connection points: 2
#     Edge 95, Type (0, 0), BuildingBlock: KIFKEQ_clean_linker_1, # of connection points: 2
#     Edge 96, Type (0, 0), BuildingBlock: KIFKEQ_clean_linker_1, # of connection points: 2
#     Edge 97, Type (0, 0), BuildingBlock: KIFKEQ_clean_linker_1, # of connection points: 2
#     Edge 98, Type (0, 0), BuildingBlock: KIFKEQ_clean_linker_1, # of connection points: 2
#     Edge 99, Type (0, 0), BuildingBlock: KIFKEQ_clean_linker_1, # of connection points: 2
#     Edge 100, Type (0, 0), BuildingBlock: KIFKEQ_clean_linker_1, # of connection points: 2
#     Edge 101, Type (0, 0), BuildingBlock: KIFKEQ_clean_linker_1, # of connection points: 2
#     Edge 102, Type (0, 0), BuildingBlock: KIFKEQ_clean_linker_1, # of connection points: 2
#     Edge 103, Type (0, 0), BuildingBlock: KIFKEQ_clean_linker_1, # of connection points: 2
#     Edge 104, Type (0, 0), BuildingBlock: KIFKEQ_clean_linker_1, # of connection points: 2
#     Edge 105, Type (0, 0), BuildingBlock: KIFKEQ_clean_linker_1, # of connection points: 2
#     Edge 106, Type (0, 0), BuildingBlock: KIFKEQ_clean_linker_1, # of connection points: 2
#     Edge 107, Type (0, 0), BuildingBlock: KIFKEQ_clean_linker_1, # of connection points: 2
#     Edge 108, Type (0, 0), BuildingBlock: KIFKEQ_clean_linker_1, # of connection points: 2
#     Edge 109, Type (0, 0), BuildingBlock: KIFKEQ_clean_linker_1, # of connection points: 2
#     Edge 110, Type (0, 0), BuildingBlock: KIFKEQ_clean_linker_1, # of connection points: 2
#     Edge 111, Type (0, 0), BuildingBlock: KIFKEQ_clean_linker_1, # of connection points: 2
#     Edge 112, Type (0, 0), BuildingBlock: KIFKEQ_clean_linker_1, # of connection points: 2
#     Edge 113, Type (0, 0), BuildingBlock: KIFKEQ_clean_linker_1, # of connection points: 2
#     Edge 114, Type (0, 0), BuildingBlock: KIFKEQ_clean_linker_1, # of connection points: 2
#     Edge 115, Type (0, 0), BuildingBlock: KIFKEQ_clean_linker_1, # of connection points: 2
#     Edge 116, Type (0, 0), BuildingBlock: KIFKEQ_clean_linker_1, # of connection points: 2
#     Edge 117, Type (0, 0), BuildingBlock: KIFKEQ_clean_linker_1, # of connection points: 2
#     Edge 118, Type (0, 0), BuildingBlock: KIFKEQ_clean_linker_1, # of connection points: 2
#     Edge 119, Type (0, 0), BuildingBlock: KIFKEQ_clean_linker_1, # of connection points: 2
#     Edge 120, Type (0, 0), BuildingBlock: KIFKEQ_clean_linker_1, # of connection points: 2
#     Edge 121, Type (0, 0), BuildingBlock: KIFKEQ_clean_linker_1, # of connection points: 2
#     Edge 122, Type (0, 0), BuildingBlock: KIFKEQ_clean_linker_1, # of connection points: 2
#     Edge 123, Type (0, 0), BuildingBlock: KIFKEQ_clean_linker_1, # of connection points: 2
#     Edge 124, Type (0, 0), BuildingBlock: KIFKEQ_clean_linker_1, # of connection points: 2
#     Edge 125, Type (0, 0), BuildingBlock: KIFKEQ_clean_linker_1, # of connection points: 2
#     Edge 126, Type (0, 0), BuildingBlock: KIFKEQ_clean_linker_1, # of connection points: 2
#     Edge 127, Type (0, 0), BuildingBlock: KIFKEQ_clean_linker_1, # of connection points: 2
#     Edge 128, Type (0, 0), BuildingBlock: KIFKEQ_clean_linker_1, # of connection points: 2
#     Edge 129, Type (0, 0), BuildingBlock: KIFKEQ_clean_linker_1, # of connection points: 2
#     Edge 130, Type (0, 0), BuildingBlock: KIFKEQ_clean_linker_1, # of connection points: 2
#     Edge 131, Type (0, 0), BuildingBlock: KIFKEQ_clean_linker_1, # of connection points: 2
#     Edge 132, Type (0, 0), BuildingBlock: KIFKEQ_clean_linker_1, # of connection points: 2
#     Edge 133, Type (0, 0), BuildingBlock: KIFKEQ_clean_linker_1, # of connection points: 2
#     Edge 134, Type (0, 0), BuildingBlock: KIFKEQ_clean_linker_1, # of connection points: 2
#     Edge 135, Type (0, 0), BuildingBlock: KIFKEQ_clean_linker_1, # of connection points: 2
#     Edge 136, Type (0, 0), BuildingBlock: KIFKEQ_clean_linker_1, # of connection points: 2
#     Edge 137, Type (0, 0), BuildingBlock: KIFKEQ_clean_linker_1, # of connection points: 2
#     Edge 138, Type (0, 0), BuildingBlock: KIFKEQ_clean_linker_1, # of connection points: 2
#     Edge 139, Type (0, 0), BuildingBlock: KIFKEQ_clean_linker_1, # of connection points: 2
#     Edge 140, Type (0, 0), BuildingBlock: KIFKEQ_clean_linker_1, # of connection points: 2
#     Edge 141, Type (0, 0), BuildingBlock: KIFKEQ_clean_linker_1, # of connection points: 2
#     Edge 142, Type (0, 0), BuildingBlock: KIFKEQ_clean_linker_1, # of connection points: 2
#     Edge 143, Type (0, 0), BuildingBlock: KIFKEQ_clean_linker_1, # of connection points: 2
# Relax obj value: 0.312
# Max RMSD: 0.203
# Mean RMSD: 0.171
data_MOF--net-nfb--node1-NAHDIM_clean_sbu_0--edge1-KIFKEQ_clean_linker_1
_symmetry_space_group_name_H-M    P1
_symmetry_Int_Tables_number       1
_symmetry_cell_setting            triclinic
loop_
_symmetry_equiv_pos_as_xyz
'x, y, z'
_cell_length_a     60.031443
_cell_length_b     60.013136
_cell_length_c     60.05044
_cell_angle_alpha  90.254164
_cell_angle_beta   90.111047
_cell_angle_gamma 90.384854
loop_
_atom_site_label
_atom_site_type_symbol
_atom_site_fract_x
_atom_site_fract_y
_atom_site_fract_z
_atom_type_partial_charge
C0 C 0.15546 0.10985 0.39272 0.0
O1 O 0.14443 0.10169 0.40974 0.0
O2 O 0.10755 0.12835 0.41691 0.0
Zn3 Zn 0.11257 0.13001 0.38385 0.0
O4 O 0.1118 0.16251 0.37641 0.0
C5 C 0.07445 0.10071 0.37938 0.0
O6 O 0.08226 0.09355 0.39848 0.0
O7 O 0.14467 0.12011 0.37764 0.0
C8 C 0.09673 0.17486 0.38454 0.0
O9 O 0.08083 0.16575 0.39652 0.0
C10 C 0.11829 0.1413 0.42989 0.0
O11 O 0.13249 0.15567 0.4214 0.0
O12 O 0.08599 0.1148 0.36844 0.0
C13 C 0.39616 0.58786 0.87481 0.0
O14 O 0.39189 0.59109 0.89602 0.0
O15 O 0.35086 0.62701 0.88264 0.0
Zn16 Zn 0.38356 0.63253 0.87764 0.0
O17 O 0.39791 0.63483 0.90802 0.0
C18 C 0.36971 0.67297 0.85495 0.0
O19 O 0.35161 0.66113 0.8512 0.0
O20 O 0.39481 0.60445 0.86165 0.0
C21 C 0.40039 0.65347 0.91788 0.0
O22 O 0.39467 0.67185 0.90761 0.0
C23 C 0.33942 0.63866 0.89607 0.0
O24 O 0.34926 0.65456 0.90761 0.0
O25 O 0.38673 0.6633 0.86306 0.0
C26 C 0.83771 0.86533 0.38014 0.0
O27 O 0.84756 0.84991 0.39201 0.0
O28 O 0.88923 0.88005 0.40744 0.0
Zn29 Zn 0.88309 0.87337 0.37522 0.0
O30 O 0.88713 0.84032 0.37159 0.0
C31 C 0.9192 0.90427 0.36379 0.0
O32 O 0.91244 0.91506 0.38159 0.0
O33 O 0.84988 0.87944 0.3698 0.0
C34 C 0.90518 0.83076 0.3663 0.0
O35 O 0.92299 0.84283 0.36205 0.0
C36 C 0.9082 0.87656 0.41613 0.0
O37 O 0.92442 0.86895 0.40363 0.0
O38 O 0.90723 0.88828 0.3563 0.0
C39 C 0.61358 0.39615 0.84954 0.0
O40 O 0.63366 0.38938 0.84428 0.0
O41 O 0.64833 0.3596 0.87544 0.0
Zn42 Zn 0.61489 0.35631 0.8766 0.0
O43 O 0.60671 0.35937 0.90891 0.0
C44 C 0.61792 0.31272 0.85424 0.0
O45 O 0.63306 0.32259 0.8419 0.0
O46 O 0.60113 0.38327 0.86098 0.0
C47 C 0.60898 0.34294 0.92197 0.0
O48 O 0.6159 0.32381 0.914 0.0
C49 C 0.66196 0.34465 0.88141 0.0
O50 O 0.65437 0.3254 0.88852 0.0
O51 O 0.60636 0.3245 0.86753 0.0
C52 C 0.09945 0.90979 0.63497 0.0
O53 O 0.10432 0.91528 0.61439 0.0
O54 O 0.13724 0.85204 0.63383 0.0
Zn55 Zn 0.14049 0.8851 0.63026 0.0
O56 O 0.13816 0.89 0.59728 0.0
C57 C 0.18464 0.88076 0.64994 0.0
O58 O 0.17524 0.8641 0.66057 0.0
O59 O 0.11376 0.89896 0.64623 0.0
C60 C 0.15349 0.88182 0.58527 0.0
O61 O 0.17026 0.87175 0.59496 0.0
C62 C 0.12287 0.84196 0.62185 0.0
O63 O 0.11017 0.85356 0.60842 0.0
O64 O 0.17244 0.89373 0.63851 0.0
C65 C 0.63433 0.68424 0.12537 0.0
O66 O 0.64796 0.67498 0.111 0.0
O67 O 0.62172 0.63408 0.09799 0.0
Zn68 Zn 0.62872 0.63873 0.13043 0.0
O69 O 0.66174 0.63482 0.13399 0.0
C70 C 0.59617 0.60397 0.14061 0.0
O71 O 0.58484 0.61352 0.12457 0.0
O72 O 0.62241 0.67149 0.13756 0.0
C73 C 0.67086 0.61634 0.13857 0.0
O74 O 0.65838 0.59854 0.14148 0.0
C75 C 0.62441 0.6153 0.08856 0.0
O76 O 0.63167 0.59843 0.10033 0.0
O77 O 0.61366 0.61367 0.14792 0.0
C78 C 0.9316 0.12696 0.65753 0.0
O79 O 0.92912 0.14628 0.6477 0.0
O80 O 0.88698 0.15815 0.64284 0.0
Zn81 Zn 0.88797 0.1248 0.64022 0.0
O82 O 0.89386 0.1178 0.60796 0.0
C83 C 0.84366 0.12631 0.65974 0.0
O84 O 0.85273 0.14224 0.67187 0.0
O85 O 0.91514 0.11335 0.65775 0.0
C86 C 0.88015 0.10688 0.59594 0.0
O87 O 0.86166 0.09924 0.60481 0.0
C88 C 0.87704 0.16977 0.62832 0.0
O89 O 0.86723 0.15976 0.61141 0.0
O90 O 0.85619 0.11445 0.64742 0.0
C91 C 0.37216 0.33732 0.11943 0.0
O92 O 0.35955 0.34658 0.1042 0.0
O93 O 0.38817 0.38769 0.09339 0.0
Zn94 Zn 0.37731 0.38266 0.12445 0.0
O95 O 0.34393 0.38432 0.12302 0.0
C96 C 0.40638 0.41901 0.13888 0.0
O97 O 0.42016 0.40983 0.12461 0.0
O98 O 0.38383 0.35 0.13212 0.0
C99 C 0.33127 0.39972 0.12989 0.0
O100 O 0.33994 0.41753 0.1394 0.0
C101 C 0.382 0.40496 0.08299 0.0
O102 O 0.36922 0.41948 0.09315 0.0
O103 O 0.38833 0.40879 0.14358 0.0
C104 C 0.37519 0.1692 0.10739 0.0
O105 O 0.39284 0.16031 0.09812 0.0
O106 O 0.4055 0.125 0.12462 0.0
Zn107 Zn 0.3721 0.12556 0.12773 0.0
O108 O 0.3664 0.1243 0.16059 0.0
C109 C 0.37024 0.08332 0.10399 0.0
O110 O 0.39096 0.08887 0.09956 0.0
O111 O 0.36187 0.15662 0.11819 0.0
C112 C 0.377 0.11058 0.1726 0.0
O113 O 0.3904 0.09625 0.16298 0.0
C114 C 0.41654 0.13817 0.13714 0.0
O115 O 0.40578 0.15096 0.15125 0.0
O116 O 0.35798 0.0974 0.11407 0.0
C117 C 0.43803 0.87967 0.60427 0.0
O118 O 0.43644 0.90043 0.61104 0.0
O119 O 0.39754 0.8848 0.64957 0.0
Zn120 Zn 0.39356 0.88456 0.61649 0.0
O121 O 0.39531 0.9165 0.60624 0.0
C122 C 0.3506 0.86289 0.62505 0.0
O123 O 0.36132 0.8536 0.64164 0.0
O124 O 0.42044 0.86758 0.60399 0.0
C125 C 0.38029 0.92615 0.59497 0.0
O126 O 0.36236 0.91499 0.58895 0.0
C127 C 0.38719 0.89869 0.66167 0.0
O128 O 0.37418 0.91341 0.65219 0.0
O129 O 0.36157 0.87407 0.61075 0.0
C130 C 0.62128 0.85284 0.12595 0.0
O131 O 0.6019 0.8607 0.13219 0.0
O132 O 0.59682 0.90301 0.11529 0.0
Zn133 Zn 0.62704 0.89876 0.12894 0.0
O134 O 0.62353 0.89943 0.16235 0.0
C135 C 0.64408 0.93601 0.10241 0.0
O136 O 0.63224 0.9266 0.08649 0.0
O137 O 0.637 0.86673 0.12194 0.0
C138 C 0.60491 0.89752 0.17227 0.0
O139 O 0.5865 0.89598 0.16051 0.0
C140 C 0.5862 0.92123 0.1162 0.0
O141 O 0.59577 0.93885 0.1252 0.0
O142 O 0.64633 0.92574 0.1208 0.0
C143 C 0.5956 0.15879 0.62299 0.0
O144 O 0.60173 0.16448 0.64326 0.0
O145 O 0.62932 0.13076 0.65978 0.0
Zn146 Zn 0.63345 0.12915 0.62673 0.0
O147 O 0.62752 0.09721 0.61877 0.0
C148 C 0.67813 0.14699 0.63387 0.0
O149 O 0.668 0.15854 0.64944 0.0
O150 O 0.60848 0.14644 0.61153 0.0
C151 C 0.6381 0.08656 0.6039 0.0
O152 O 0.65376 0.09678 0.59251 0.0
C153 C 0.63795 0.11556 0.67156 0.0
O154 O 0.64949 0.0998 0.66176 0.0
O155 O 0.66642 0.13531 0.62042 0.0
C156 C 0.35996 0.92927 0.87556 0.0
O157 O 0.3753 0.92849 0.86003 0.0
O158 O 0.37362 0.88822 0.83988 0.0
Zn159 Zn 0.37285 0.88507 0.87325 0.0
O160 O 0.40429 0.88953 0.88387 0.0
C161 C 0.35431 0.84122 0.86411 0.0
O162 O 0.34672 0.85169 0.84652 0.0
O163 O 0.35459 0.91126 0.88552 0.0
C164 C 0.41339 0.87762 0.89871 0.0
O165 O 0.40167 0.86191 0.90849 0.0
C166 C 0.39049 0.88244 0.82857 0.0
O167 O 0.40781 0.87393 0.8388 0.0
O168 O 0.36383 0.85258 0.87945 0.0
C169 C 0.67007 0.87139 0.39783 0.0
O170 O 0.66185 0.88885 0.40809 0.0
O171 O 0.62269 0.90146 0.38666 0.0
Zn172 Zn 0.6249 0.86853 0.38044 0.0
O173 O 0.62133 0.86594 0.34737 0.0
C174 C 0.58489 0.86086 0.40722 0.0
O175 O 0.59081 0.87973 0.41678 0.0
O176 O 0.65682 0.85844 0.38721 0.0
C177 C 0.60452 0.87498 0.33835 0.0
O178 O 0.58952 0.88447 0.35108 0.0
C179 C 0.63399 0.91388 0.37375 0.0
O180 O 0.64628 0.90457 0.35825 0.0
O181 O 0.59806 0.85189 0.39324 0.0
C182 C 0.63119 0.06315 0.90847 0.0
O183 O 0.61158 0.06805 0.91673 0.0
O184 O 0.62653 0.10162 0.8499 0.0
Zn185 Zn 0.6228 0.10323 0.88293 0.0
O186 O 0.59024 0.09818 0.8888 0.0
C187 C 0.64217 0.14767 0.87929 0.0
O188 O 0.65478 0.13797 0.86431 0.0
O189 O 0.64071 0.07722 0.89572 0.0
C190 C 0.58044 0.10749 0.90506 0.0
O191 O 0.59199 0.12022 0.91876 0.0
C192 C 0.61325 0.11225 0.83744 0.0
O193 O 0.59694 0.1236 0.84651 0.0
O194 O 0.62953 0.13562 0.89137 0.0
C195 C 0.32399 0.12262 0.40519 0.0
O196 O 0.33451 0.10573 0.41411 0.0
O197 O 0.36997 0.09522 0.3889 0.0
Zn198 Zn 0.36668 0.12804 0.38377 0.0
O199 O 0.36631 0.13081 0.35048 0.0
C200 C 0.40721 0.13598 0.41008 0.0
O201 O 0.40013 0.11849 0.42116 0.0
O202 O 0.33517 0.13667 0.39382 0.0
C203 C 0.38384 0.13266 0.33882 0.0
O204 O 0.40329 0.1343 0.34878 0.0
C205 C 0.38672 0.08375 0.38317 0.0
O206 O 0.40411 0.09372 0.37434 0.0
O207 O 0.39446 0.14447 0.39543 0.0
C208 C 0.10051 0.39385 0.17245 0.0
O209 O 0.09524 0.41281 0.16303 0.0
O210 O 0.11279 0.41724 0.12068 0.0
Zn211 Zn 0.11934 0.38542 0.12872 0.0
O212 O 0.15267 0.38437 0.13008 0.0
C213 C 0.09082 0.37135 0.09233 0.0
O214 O 0.0775 0.38605 0.1015 0.0
O215 O 0.10908 0.37852 0.16052 0.0
C216 C 0.16524 0.37884 0.11402 0.0
O217 O 0.15632 0.37212 0.09513 0.0
C218 C 0.11797 0.42395 0.1013 0.0
O219 O 0.12648 0.40975 0.08701 0.0
O220 O 0.10852 0.36606 0.1027 0.0
C221 C 0.13715 0.63061 0.81174 0.0
O222 O 0.14441 0.61269 0.82186 0.0
O223 O 0.11756 0.60779 0.85998 0.0
Zn224 Zn 0.13147 0.63821 0.85689 0.0
O225 O 0.16422 0.63478 0.86324 0.0
C226 C 0.10396 0.65297 0.89422 0.0
O227 O 0.09126 0.63612 0.8881 0.0
O228 O 0.12948 0.64646 0.82372 0.0
C229 C 0.17266 0.63781 0.88247 0.0
O230 O 0.15969 0.64331 0.89918 0.0
C231 C 0.12046 0.59575 0.87706 0.0
O232 O 0.13185 0.60379 0.89401 0.0
O233 O 0.11972 0.65906 0.88134 0.0
C234 C 0.88698 0.60838 0.42544 0.0
O235 O 0.90805 0.614 0.42329 0.0
O236 O 0.89492 0.65275 0.38333 0.0
Zn237 Zn 0.89143 0.61953 0.38045 0.0
O238 O 0.92263 0.60758 0.38164 0.0
C239 C 0.86893 0.62903 0.33892 0.0
O240 O 0.86234 0.64647 0.35038 0.0
O241 O 0.87452 0.60877 0.4082 0.0
C242 C 0.93402 0.60162 0.36488 0.0
O243 O 0.92481 0.60165 0.34502 0.0
C244 C 0.90772 0.663 0.36993 0.0
O245 O 0.91862 0.65155 0.35483 0.0
O246 O 0.87904 0.61349 0.34912 0.0
C247 C 0.8795 0.34306 0.92877 0.0
O248 O 0.86204 0.33287 0.92019 0.0
O249 O 0.83982 0.36679 0.89359 0.0
Zn250 Zn 0.87245 0.37357 0.89173 0.0
O251 O 0.87562 0.40633 0.89692 0.0
C252 C 0.87179 0.35402 0.84709 0.0
O253 O 0.85855 0.33932 0.85648 0.0
O254 O 0.88841 0.35904 0.918 0.0
C255 C 0.89414 0.41608 0.89356 0.0
O256 O 0.9112 0.40438 0.88659 0.0
C257 C 0.82697 0.37653 0.87997 0.0
O258 O 0.83553 0.39062 0.86558 0.0
O259 O 0.88184 0.36826 0.85939 0.0
C260 C 0.09878 0.38957 0.34112 0.0
O261 O 0.08048 0.38151 0.35005 0.0
O262 O 0.07652 0.3993 0.39278 0.0
Zn263 Zn 0.10712 0.38753 0.38644 0.0
O264 O 0.10349 0.35439 0.38726 0.0
C265 C 0.12349 0.41244 0.4251 0.0
O266 O 0.10778 0.42637 0.41918 0.0
O267 O 0.11498 0.39476 0.354 0.0
C268 C 0.11999 0.34131 0.38651 0.0
O269 O 0.14026 0.34968 0.38579 0.0
C270 C 0.06691 0.39529 0.41118 0.0
O271 O 0.07778 0.38466 0.42684 0.0
O272 O 0.12806 0.39622 0.41214 0.0
C273 C 0.88107 0.63661 0.08347 0.0
O274 O 0.86496 0.62183 0.08536 0.0
O275 O 0.84924 0.62198 0.12725 0.0
Zn276 Zn 0.88269 0.62258 0.12736 0.0
O277 O 0.89196 0.59114 0.12136 0.0
C278 C 0.878 0.64286 0.17059 0.0
O279 O 0.86145 0.65257 0.16017 0.0
O280 O 0.89291 0.6412 0.10059 0.0
C281 C 0.90695 0.58081 0.13202 0.0
O282 O 0.91786 0.59109 0.14808 0.0
C283 C 0.83845 0.60874 0.13973 0.0
O284 O 0.8494 0.59528 0.15296 0.0
O285 O 0.89162 0.63124 0.15923 0.0
C286 C 0.85604 0.39141 0.59273 0.0
O287 O 0.87562 0.38185 0.59386 0.0
O288 O 0.86292 0.34877 0.63377 0.0
Zn289 Zn 0.86307 0.38204 0.63719 0.0
O290 O 0.89479 0.39221 0.63272 0.0
C291 C 0.84492 0.37461 0.68161 0.0
O292 O 0.83549 0.35738 0.67177 0.0
O293 O 0.84507 0.39422 0.61073 0.0
C294 C 0.90848 0.39743 0.64803 0.0
O295 O 0.902 0.39696 0.6689 0.0
C296 C 0.87797 0.33717 0.64291 0.0
O297 O 0.8936 0.34719 0.65465 0.0
O298 O 0.85504 0.38899 0.66968 0.0
C299 C 0.15798 0.63381 0.55574 0.0
O300 O 0.15113 0.65439 0.55831 0.0
O301 O 0.13766 0.66543 0.5997 0.0
Zn302 Zn 0.13867 0.63196 0.59934 0.0
O303 O 0.10698 0.62265 0.59427 0.0
C304 C 0.15768 0.63587 0.64394 0.0
O305 O 0.167 0.65371 0.63529 0.0
O306 O 0.15613 0.62043 0.57213 0.0
C307 C 0.09789 0.60568 0.60306 0.0
O308 O 0.10975 0.59278 0.61606 0.0
C309 C 0.12535 0.67475 0.61414 0.0
O310 O 0.11409 0.66232 0.6282 0.0
O311 O 0.1472 0.62243 0.63107 0.0
C312 C 0.85115 0.88783 0.6159 0.0
O313 O 0.85937 0.88834 0.59567 0.0
O314 O 0.90098 0.84714 0.62607 0.0
Zn315 Zn 0.89753 0.88047 0.62471 0.0
O316 O 0.90335 0.8888 0.59293 0.0
C317 C 0.9369 0.88363 0.6526 0.0
O318 O 0.93259 0.86233 0.65524 0.0
O319 O 0.86464 0.88666 0.63234 0.0
C320 C 0.91951 0.88022 0.58241 0.0
O321 O 0.933 0.86664 0.59288 0.0
C322 C 0.89071 0.83484 0.6121 0.0
O323 O 0.87782 0.84413 0.59715 0.0
O324 O 0.92267 0.89558 0.64243 0.0
C325 C 0.60191 0.43899 0.12602 0.0
O326 O 0.6053 0.43462 0.10485 0.0
O327 O 0.60863 0.38995 0.0955 0.0
Zn328 Zn 0.6195 0.39543 0.12678 0.0
O329 O 0.65214 0.40146 0.12365 0.0
C330 C 0.6033 0.35062 0.13769 0.0
O331 O 0.58642 0.3561 0.12493 0.0
O332 O 0.60579 0.42372 0.14021 0.0
C333 C 0.66497 0.39882 0.14023 0.0
O334 O 0.65637 0.39309 0.15949 0.0
C335 C 0.61629 0.37284 0.0857 0.0
O336 O 0.63031 0.3599 0.09629 0.0
O337 O 0.61731 0.3657 0.1433 0.0
C338 C 0.17537 0.14033 0.63423 0.0
O339 O 0.16459 0.15467 0.62182 0.0
O340 O 0.12544 0.16527 0.64728 0.0
Zn341 Zn 0.13079 0.13293 0.64053 0.0
O342 O 0.12755 0.12993 0.60743 0.0
C343 C 0.0955 0.12124 0.67167 0.0
O344 O 0.10411 0.13789 0.68315 0.0
O345 O 0.16398 0.12713 0.64647 0.0
C346 C 0.10973 0.12622 0.59658 0.0
O347 O 0.09092 0.12314 0.60732 0.0
C348 C 0.1068 0.17458 0.6439 0.0
O349 O 0.08981 0.16251 0.63696 0.0
O350 O 0.1059 0.11428 0.65455 0.0
C351 C 0.41187 0.58555 0.13149 0.0
O352 O 0.4214 0.59261 0.11313 0.0
O353 O 0.39941 0.62827 0.09441 0.0
Zn354 Zn 0.38812 0.62709 0.12595 0.0
O355 O 0.35499 0.62511 0.1228 0.0
C356 C 0.40984 0.67029 0.13443 0.0
O357 O 0.4265 0.6616 0.12329 0.0
O358 O 0.39831 0.59844 0.14148 0.0
C359 C 0.3423 0.63167 0.13836 0.0
O360 O 0.35115 0.63866 0.15719 0.0
C361 C 0.39539 0.64564 0.0831 0.0
O362 O 0.38422 0.66204 0.09225 0.0
O363 O 0.39375 0.65765 0.14021 0.0
C364 C 0.90817 0.09371 0.37421 0.0
O365 O 0.89998 0.08031 0.38942 0.0
O366 O 0.87561 0.11081 0.41885 0.0
Zn367 Zn 0.87102 0.12163 0.38767 0.0
O368 O 0.87428 0.15478 0.3891 0.0
C369 C 0.82602 0.10354 0.39036 0.0
O370 O 0.83529 0.09052 0.40521 0.0
O371 O 0.89704 0.11083 0.36868 0.0
C372 C 0.86185 0.16599 0.40198 0.0
O373 O 0.84687 0.15555 0.41407 0.0
C374 C 0.89143 0.11899 0.43041 0.0
O375 O 0.90485 0.13378 0.4214 0.0
O376 O 0.83846 0.11624 0.37873 0.0
C377 C 0.38764 0.33951 0.88188 0.0
O378 O 0.39395 0.34753 0.90128 0.0
O379 O 0.34008 0.38786 0.86887 0.0
Zn380 Zn 0.37281 0.38532 0.87495 0.0
O381 O 0.3759 0.39006 0.90784 0.0
C382 C 0.37944 0.42515 0.84794 0.0
O383 O 0.3594 0.41999 0.84068 0.0
O384 O 0.38045 0.35292 0.86712 0.0
C385 C 0.39378 0.39647 0.91729 0.0
O386 O 0.41191 0.3993 0.90539 0.0
C387 C 0.32795 0.40129 0.87979 0.0
O388 O 0.33727 0.41474 0.89446 0.0
O389 O 0.38953 0.41138 0.86048 0.0
C390 C 0.08219 0.88024 0.36514 0.0
O391 O 0.08452 0.86169 0.37641 0.0
O392 O 0.12582 0.87974 0.40747 0.0
Zn393 Zn 0.12727 0.87685 0.37426 0.0
O394 O 0.12483 0.84408 0.36709 0.0
C395 C 0.17105 0.89822 0.37832 0.0
O396 O 0.16152 0.9093 0.39459 0.0
O397 O 0.09956 0.89196 0.36113 0.0
C398 C 0.13793 0.83402 0.35392 0.0
O399 O 0.1539 0.84523 0.34399 0.0
C400 C 0.13802 0.86685 0.41886 0.0
O401 O 0.15023 0.85198 0.40851 0.0
O402 O 0.15896 0.88615 0.36556 0.0
C403 C 0.63465 0.64646 0.88244 0.0
O404 O 0.64912 0.63852 0.89675 0.0
O405 O 0.66516 0.59892 0.87252 0.0
Zn406 Zn 0.63219 0.60061 0.87828 0.0
O407 O 0.62791 0.59739 0.91139 0.0
C408 C 0.60499 0.56058 0.87264 0.0
O409 O 0.59868 0.56599 0.89286 0.0
O410 O 0.62351 0.63264 0.87051 0.0
C411 C 0.61202 0.60653 0.92188 0.0
O412 O 0.59702 0.61785 0.91077 0.0
C413 C 0.67837 0.58966 0.88615 0.0
O414 O 0.67024 0.57992 0.90394 0.0
O415 O 0.6176 0.57402 0.86204 0.0
C416 C 0.61662 0.8145 0.87636 0.0
O417 O 0.59925 0.82233 0.86567 0.0
O418 O 0.62049 0.8637 0.84579 0.0
Zn419 Zn 0.6205 0.86041 0.8791 0.0
O420 O 0.58863 0.86251 0.88914 0.0
C421 C 0.6487 0.90019 0.88165 0.0
O422 O 0.6529 0.89492 0.86083 0.0
O423 O 0.6303 0.8284 0.88512 0.0
C424 C 0.57972 0.88026 0.89639 0.0
O425 O 0.59171 0.8986 0.8979 0.0
C426 C 0.61031 0.87911 0.83559 0.0
O427 O 0.59957 0.89428 0.8471 0.0
O428 O 0.6375 0.88656 0.89348 0.0
C429 C 0.57172 0.13518 0.38614 0.0
O430 O 0.57522 0.12488 0.36714 0.0
O431 O 0.61625 0.09223 0.3904 0.0
Zn432 Zn 0.61742 0.12541 0.38673 0.0
O433 O 0.61815 0.12993 0.35351 0.0
C434 C 0.65988 0.12435 0.41116 0.0
O435 O 0.65027 0.10828 0.42248 0.0
O436 O 0.58829 0.13851 0.39915 0.0
C437 C 0.63255 0.14195 0.34366 0.0
O438 O 0.6471 0.15339 0.35547 0.0
C439 C 0.63191 0.08143 0.38124 0.0
O440 O 0.64753 0.09243 0.37051 0.0
O441 O 0.64804 0.13594 0.39797 0.0
C442 C 0.36111 0.17236 0.87529 0.0
O443 O 0.35935 0.16263 0.85575 0.0
O444 O 0.37548 0.12068 0.85525 0.0
Zn445 Zn 0.37353 0.12749 0.88806 0.0
O446 O 0.40447 0.12473 0.90018 0.0
C447 C 0.34117 0.09178 0.88984 0.0
O448 O 0.33491 0.10076 0.87094 0.0
O449 O 0.36464 0.1603 0.89239 0.0
C450 C 0.41393 0.10586 0.90048 0.0
O451 O 0.4028 0.08817 0.89366 0.0
C452 C 0.39297 0.12421 0.84389 0.0
O453 O 0.41073 0.1326 0.85371 0.0
O454 O 0.35532 0.10224 0.90186 0.0
C455 C 0.41991 0.84359 0.38938 0.0
O456 O 0.41419 0.83336 0.37082 0.0
O457 O 0.38421 0.90412 0.38311 0.0
Zn458 Zn 0.38107 0.87108 0.37957 0.0
O459 O 0.3862 0.86511 0.3469 0.0
C460 C 0.33688 0.87479 0.40007 0.0
O461 O 0.34685 0.88972 0.41275 0.0
O462 O 0.4069 0.85821 0.39748 0.0
C463 C 0.36991 0.86307 0.33348 0.0
O464 O 0.34951 0.86376 0.34126 0.0
C465 C 0.37068 0.91726 0.3737 0.0
O466 O 0.35422 0.90896 0.36176 0.0
O467 O 0.34866 0.86296 0.38699 0.0
C468 C 0.63551 0.10246 0.10453 0.0
O469 O 0.61709 0.10952 0.09515 0.0
O470 O 0.59577 0.1386 0.12448 0.0
Zn471 Zn 0.62826 0.14183 0.13171 0.0
O472 O 0.62881 0.13967 0.16495 0.0
C473 C 0.64508 0.18713 0.13777 0.0
O474 O 0.6525 0.17873 0.15649 0.0
O475 O 0.64494 0.1148 0.11916 0.0
C476 C 0.6451 0.1331 0.17665 0.0
O477 O 0.66362 0.12696 0.16682 0.0
C478 C 0.5832 0.15462 0.13005 0.0
O479 O 0.5921 0.17249 0.13923 0.0
O480 O 0.63694 0.17392 0.1231 0.0
C481 C 0.343 0.13637 0.61533 0.0
O482 O 0.35024 0.12289 0.59968 0.0
O483 O 0.39316 0.12812 0.66541 0.0
Zn484 Zn 0.38772 0.13022 0.63258 0.0
O485 O 0.38529 0.09882 0.62086 0.0
C486 C 0.43267 0.1337 0.62241 0.0
O487 O 0.43029 0.1142 0.63203 0.0
O488 O 0.3568 0.14397 0.62965 0.0
C489 C 0.39281 0.09147 0.6025 0.0
O490 O 0.40378 0.10487 0.58912 0.0
C491 C 0.38332 0.11342 0.677 0.0
O492 O 0.36963 0.0993 0.66717 0.0
O493 O 0.41541 0.1457 0.61969 0.0
C494 C 0.35298 0.91918 0.12182 0.0
O495 O 0.35067 0.91417 0.14296 0.0
O496 O 0.41252 0.8869 0.11454 0.0
Zn497 Zn 0.38096 0.87997 0.12278 0.0
O498 O 0.37935 0.88162 0.15606 0.0
C499 C 0.38861 0.83504 0.10624 0.0
O500 O 0.40592 0.84471 0.09695 0.0
O501 O 0.36282 0.90533 0.10907 0.0
C502 C 0.39194 0.8691 0.16745 0.0
O503 O 0.40608 0.85605 0.15709 0.0
C504 C 0.42132 0.90476 0.12194 0.0
O505 O 0.4096 0.91786 0.13493 0.0
O506 O 0.37404 0.84718 0.11571 0.0
C507 C 0.68457 0.86282 0.63219 0.0
O508 O 0.67707 0.85908 0.65236 0.0
O509 O 0.63485 0.87596 0.65807 0.0
Zn510 Zn 0.63914 0.87784 0.62491 0.0
O511 O 0.63852 0.91032 0.61726 0.0
C512 C 0.59913 0.8503 0.61888 0.0
O513 O 0.60442 0.84298 0.63877 0.0
O514 O 0.67086 0.86848 0.61701 0.0
C515 C 0.62158 0.92064 0.61006 0.0
O516 O 0.60263 0.90987 0.60738 0.0
C517 C 0.61837 0.88479 0.6679 0.0
O518 O 0.6031 0.89495 0.65606 0.0
O519 O 0.61277 0.86313 0.60883 0.0
C520 C 0.90759 0.62562 0.83861 0.0
O521 O 0.92005 0.61013 0.84756 0.0
O522 O 0.85458 0.62338 0.88535 0.0
Zn523 Zn 0.88781 0.62521 0.88245 0.0
O524 O 0.89783 0.59358 0.88472 0.0
C525 C 0.88835 0.65535 0.92032 0.0
O526 O 0.86939 0.66169 0.91149 0.0
O527 O 0.89417 0.63634 0.85101 0.0
C528 C 0.89319 0.58285 0.90231 0.0
O529 O 0.88295 0.59317 0.91866 0.0
C530 C 0.84387 0.61304 0.87019 0.0
O531 O 0.85483 0.60474 0.85318 0.0
O532 O 0.90042 0.64174 0.90948 0.0
C533 C 0.86697 0.37709 0.17896 0.0
O534 O 0.85563 0.39356 0.17025 0.0
O535 O 0.84142 0.37784 0.12959 0.0
Zn536 Zn 0.87459 0.37553 0.13375 0.0
O537 O 0.88752 0.40643 0.13324 0.0
C538 C 0.87405 0.34641 0.09512 0.0
O539 O 0.8538 0.3425 0.10245 0.0
O540 O 0.87851 0.36481 0.16596 0.0
C541 C 0.89546 0.41593 0.11612 0.0
O542 O 0.8956 0.40523 0.09699 0.0
C543 C 0.83127 0.39386 0.12036 0.0
O544 O 0.84278 0.41023 0.11148 0.0
O545 O 0.88723 0.35807 0.10717 0.0
C546 C 0.13909 0.38407 0.58845 0.0
O547 O 0.13907 0.36276 0.59329 0.0
O548 O 0.08497 0.39675 0.62989 0.0
Zn549 Zn 0.11629 0.38572 0.63092 0.0
O550 O 0.11434 0.35238 0.62927 0.0
C551 C 0.11744 0.40495 0.67526 0.0
O552 O 0.10285 0.41859 0.66651 0.0
O553 O 0.13228 0.39786 0.60314 0.0
C554 C 0.10094 0.34202 0.64196 0.0
O555 O 0.08813 0.35344 0.65551 0.0
C556 C 0.0712 0.38975 0.61537 0.0
O557 O 0.07794 0.37565 0.60004 0.0
O558 O 0.12794 0.39172 0.66242 0.0
C559 C 0.13597 0.65425 0.05667 0.0
O560 O 0.15665 0.64782 0.05938 0.0
O561 O 0.12425 0.60085 0.09171 0.0
Zn562 Zn 0.13343 0.63226 0.09885 0.0
O563 O 0.16684 0.63224 0.10018 0.0
C564 C 0.11522 0.62329 0.14251 0.0
O565 O 0.10747 0.6058 0.13175 0.0
O566 O 0.12224 0.65124 0.07261 0.0
C567 C 0.17736 0.64702 0.11124 0.0
O568 O 0.16619 0.66316 0.12087 0.0
C569 C 0.13553 0.58789 0.07944 0.0
O570 O 0.15376 0.5954 0.0699 0.0
O571 O 0.12427 0.63896 0.13133 0.0
C572 C 0.89995 0.62667 0.6701 0.0
O573 O 0.91653 0.63662 0.65984 0.0
O574 O 0.89089 0.65591 0.62021 0.0
Zn575 Zn 0.89166 0.62268 0.6252 0.0
O576 O 0.92303 0.61203 0.62091 0.0
C577 C 0.86152 0.61892 0.58746 0.0
O578 O 0.85715 0.63967 0.59285 0.0
O579 O 0.88453 0.61782 0.65826 0.0
C580 C 0.93179 0.60882 0.60194 0.0
O581 O 0.91992 0.61229 0.58389 0.0
C582 C 0.90805 0.66809 0.61738 0.0
O583 O 0.92786 0.65896 0.61728 0.0
O584 O 0.87332 0.60736 0.60073 0.0
C585 C 0.10251 0.38515 0.92796 0.0
O586 O 0.10873 0.40591 0.9248 0.0
O587 O 0.10579 0.41805 0.8819 0.0
Zn588 Zn 0.11541 0.38592 0.88285 0.0
O589 O 0.14895 0.38696 0.8855 0.0
C590 C 0.09312 0.38001 0.83996 0.0
O591 O 0.07829 0.39335 0.84884 0.0
O592 O 0.10323 0.3716 0.91152 0.0
C593 C 0.16105 0.38673 0.86814 0.0
O594 O 0.15156 0.385 0.8485 0.0
C595 C 0.11134 0.43063 0.86586 0.0
O596 O 0.12259 0.42224 0.84911 0.0
O597 O 0.10818 0.37195 0.85247 0.0
C598 C 0.15459 0.59822 0.39365 0.0
O599 O 0.13698 0.5863 0.38814 0.0
O600 O 0.11115 0.61263 0.35913 0.0
Zn601 Zn 0.14268 0.62239 0.35346 0.0
O602 O 0.1431 0.65568 0.35462 0.0
C603 C 0.13582 0.60419 0.30947 0.0
O604 O 0.11968 0.59394 0.32011 0.0
O605 O 0.16203 0.61246 0.37976 0.0
C606 C 0.12825 0.66691 0.34471 0.0
O607 O 0.11219 0.65642 0.33397 0.0
C608 C 0.09891 0.62042 0.37447 0.0
O609 O 0.10705 0.63557 0.38814 0.0
O610 O 0.1503 0.61502 0.32081 0.0
C611 C 0.86532 0.37029 0.34779 0.0
O612 O 0.87995 0.35713 0.35715 0.0
O613 O 0.86034 0.34504 0.39931 0.0
Zn614 Zn 0.86101 0.37826 0.39345 0.0
O615 O 0.89216 0.38977 0.39774 0.0
C616 C 0.83087 0.38223 0.43115 0.0
O617 O 0.82623 0.36142 0.42596 0.0
O618 O 0.85344 0.38268 0.36034 0.0
C619 C 0.90129 0.38948 0.41684 0.0
O620 O 0.89022 0.38133 0.43385 0.0
C621 C 0.87753 0.33305 0.40195 0.0
O622 O 0.89738 0.3423 0.40099 0.0
O623 O 0.84282 0.39365 0.41782 0.0
H624 H 0.08022 0.3192 0.38339 0.0
H625 H 0.1512 0.30834 0.3878 0.0
H626 H 0.0739 0.27915 0.38138 0.0
H627 H 0.14481 0.2682 0.38637 0.0
H628 H 0.12758 0.19885 0.36117 0.0
H629 H 0.13273 0.23914 0.36089 0.0
H630 H 0.07609 0.2465 0.40456 0.0
H631 H 0.0706 0.20626 0.40441 0.0
C632 C 0.09448 0.30826 0.38407 0.0
C633 C 0.11623 0.31695 0.38576 0.0
C634 C 0.09083 0.28529 0.38301 0.0
C635 C 0.10884 0.27047 0.38369 0.0
C636 C 0.13059 0.27917 0.38544 0.0
C637 C 0.13425 0.30217 0.38642 0.0
C638 C 0.11609 0.20908 0.37054 0.0
C639 C 0.0987 0.19935 0.38285 0.0
C640 C 0.11916 0.23216 0.37052 0.0
C641 C 0.10494 0.24603 0.38285 0.0
C642 C 0.08721 0.23632 0.39471 0.0
C643 C 0.0841 0.21323 0.39468 0.0
H644 H 0.31403 0.60712 0.87486 0.0
H645 H 0.30946 0.66428 0.91863 0.0
H646 H 0.27354 0.60479 0.87325 0.0
H647 H 0.26898 0.66224 0.91659 0.0
H648 H 0.20419 0.62839 0.85119 0.0
H649 H 0.24434 0.62673 0.85632 0.0
H650 H 0.23626 0.64038 0.92655 0.0
H651 H 0.19603 0.64255 0.92134 0.0
C652 C 0.30439 0.61912 0.88424 0.0
C653 C 0.31495 0.63599 0.89674 0.0
C654 C 0.28119 0.61785 0.88321 0.0
C655 C 0.26805 0.63345 0.89462 0.0
C656 C 0.27862 0.64984 0.90777 0.0
C657 C 0.30184 0.65108 0.90885 0.0
C658 C 0.21095 0.63093 0.86776 0.0
C659 C 0.19693 0.63572 0.88584 0.0
C660 C 0.23397 0.62982 0.87073 0.0
C661 C 0.24349 0.6334 0.89185 0.0
C662 C 0.22944 0.6378 0.91002 0.0
C663 C 0.20639 0.63895 0.90705 0.0
H664 H 0.9416 0.80444 0.35906 0.0
H665 H 0.87107 0.80144 0.37329 0.0
H666 H 0.94331 0.76383 0.36059 0.0
H667 H 0.87273 0.76101 0.37437 0.0
H668 H 0.88751 0.69156 0.39895 0.0
H669 H 0.88788 0.73212 0.39811 0.0
H670 H 0.93054 0.73064 0.34025 0.0
H671 H 0.93056 0.69004 0.34134 0.0
C672 C 0.92645 0.79513 0.36235 0.0
C673 C 0.90622 0.80616 0.36613 0.0
C674 C 0.92742 0.77188 0.36316 0.0
C675 C 0.90819 0.75923 0.36777 0.0
C676 C 0.88793 0.77029 0.37121 0.0
C677 C 0.88696 0.79348 0.37042 0.0
C678 C 0.89708 0.69987 0.38613 0.0
C679 C 0.90893 0.68758 0.37016 0.0
C680 C 0.89718 0.72311 0.38556 0.0
C681 C 0.90909 0.73458 0.36899 0.0
C682 C 0.92135 0.7223 0.35333 0.0
C683 C 0.92128 0.69903 0.35391 0.0
H684 H 0.79581 0.39108 0.85037 0.0
H685 H 0.80359 0.35105 0.90951 0.0
H686 H 0.75603 0.38285 0.8501 0.0
H687 H 0.76371 0.34332 0.90958 0.0
H688 H 0.69568 0.31551 0.8898 0.0
H689 H 0.73561 0.32295 0.88889 0.0
H690 H 0.72284 0.39136 0.87093 0.0
H691 H 0.68297 0.38378 0.87124 0.0
C692 C 0.78901 0.38063 0.86339 0.0
C693 C 0.80283 0.37173 0.87997 0.0
C694 C 0.76619 0.37601 0.86329 0.0
C695 C 0.7567 0.36246 0.87983 0.0
C696 C 0.77055 0.35356 0.89642 0.0
C697 C 0.79338 0.3581 0.89646 0.0
C698 C 0.7014 0.33212 0.88561 0.0
C699 C 0.68617 0.34906 0.88061 0.0
C700 C 0.72428 0.33642 0.88521 0.0
C701 C 0.73241 0.35776 0.87989 0.0
C702 C 0.71714 0.37466 0.87479 0.0
C703 C 0.69428 0.37034 0.87509 0.0
H704 H 0.13712 0.70486 0.58234 0.0
H705 H 0.11112 0.69986 0.64922 0.0
H706 H 0.13533 0.74548 0.5848 0.0
H707 H 0.10962 0.74052 0.6517 0.0
H708 H 0.13985 0.81332 0.65265 0.0
H709 H 0.13954 0.77257 0.65115 0.0
H710 H 0.1034 0.77455 0.58898 0.0
H711 H 0.10341 0.81522 0.59053 0.0
C712 C 0.13106 0.71244 0.59755 0.0
C713 C 0.12423 0.69924 0.61557 0.0
C714 C 0.12993 0.73563 0.5989 0.0
C715 C 0.1223 0.74601 0.61842 0.0
C716 C 0.11564 0.73285 0.63651 0.0
C717 C 0.11641 0.70963 0.63503 0.0
C718 C 0.1317 0.80504 0.63876 0.0
C719 C 0.12167 0.81742 0.6217 0.0
C720 C 0.13147 0.78177 0.63796 0.0
C721 C 0.12153 0.77055 0.61991 0.0
C722 C 0.11131 0.78289 0.60298 0.0
C723 C 0.11122 0.80612 0.60396 0.0
H724 H 0.69617 0.57907 0.14454 0.0
H725 H 0.701 0.65037 0.13551 0.0
H726 H 0.73674 0.57671 0.14502 0.0
H727 H 0.74141 0.64805 0.13651 0.0
H728 H 0.81129 0.63277 0.11266 0.0
H729 H 0.77083 0.63401 0.11291 0.0
H730 H 0.76939 0.58713 0.16731 0.0
H731 H 0.81002 0.5855 0.16677 0.0
C732 C 0.70587 0.59425 0.14283 0.0
C733 C 0.69538 0.61489 0.13986 0.0
C734 C 0.7291 0.5929 0.14322 0.0
C735 C 0.74227 0.61217 0.14066 0.0
C736 C 0.73173 0.63284 0.13811 0.0
C737 C 0.70856 0.63418 0.13767 0.0
C738 C 0.80238 0.6227 0.12467 0.0
C739 C 0.81386 0.60908 0.13975 0.0
C740 C 0.77918 0.62351 0.1249 0.0
C741 C 0.76692 0.6108 0.14024 0.0
C742 C 0.77838 0.59698 0.15516 0.0
C743 C 0.80164 0.59612 0.15492 0.0
H744 H 0.86194 0.19996 0.59798 0.0
H745 H 0.89154 0.19498 0.66343 0.0
H746 H 0.86237 0.24047 0.60121 0.0
H747 H 0.89134 0.23537 0.66693 0.0
H748 H 0.91003 0.30802 0.65611 0.0
H749 H 0.90975 0.26763 0.65215 0.0
H750 H 0.84485 0.27051 0.62104 0.0
H751 H 0.84543 0.31097 0.62439 0.0
C752 C 0.86838 0.20751 0.61311 0.0
C753 C 0.87676 0.19429 0.63041 0.0
C754 C 0.86852 0.23071 0.61501 0.0
C755 C 0.87693 0.24117 0.63431 0.0
C756 C 0.8851 0.22788 0.65169 0.0
C757 C 0.88509 0.20471 0.64973 0.0
C758 C 0.89571 0.30003 0.64841 0.0
C759 C 0.87775 0.31268 0.64056 0.0
C760 C 0.89549 0.27686 0.64625 0.0
C761 C 0.87724 0.26582 0.63634 0.0
C762 C 0.85929 0.27851 0.62848 0.0
C763 C 0.85957 0.30169 0.63051 0.0
H764 H 0.3089 0.3652 0.11023 0.0
H765 H 0.29852 0.42834 0.14347 0.0
H766 H 0.26889 0.36024 0.10633 0.0
H767 H 0.25829 0.42346 0.13919 0.0
H768 H 0.18848 0.39371 0.15033 0.0
H769 H 0.22855 0.3992 0.15379 0.0
H770 H 0.23728 0.37604 0.08616 0.0
H771 H 0.19716 0.37019 0.08276 0.0
C772 C 0.29809 0.3781 0.11662 0.0
C773 C 0.30691 0.39717 0.12722 0.0
C774 C 0.27514 0.3753 0.11424 0.0
C775 C 0.26044 0.39146 0.12242 0.0
C776 C 0.26922 0.4106 0.13293 0.0
C777 C 0.29225 0.41345 0.13528 0.0
C778 C 0.19893 0.3897 0.1362 0.0
C779 C 0.18963 0.38145 0.11626 0.0
C780 C 0.22188 0.39303 0.13814 0.0
C781 C 0.23605 0.38815 0.12023 0.0
C782 C 0.22678 0.37976 0.10034 0.0
C783 C 0.2038 0.37646 0.09837 0.0
H784 H 0.35084 0.13808 0.1976 0.0
H785 H 0.4022 0.08823 0.20301 0.0
H786 H 0.35234 0.14404 0.23775 0.0
H787 H 0.40349 0.09407 0.24322 0.0
H788 H 0.41818 0.13006 0.30911 0.0
H789 H 0.41572 0.1243 0.26894 0.0
H790 H 0.3439 0.12459 0.27301 0.0
H791 H 0.34629 0.13058 0.31311 0.0
C792 C 0.36228 0.12823 0.20737 0.0
C793 C 0.37644 0.11271 0.19711 0.0
C794 C 0.36309 0.13162 0.23038 0.0
C795 C 0.37815 0.11964 0.24358 0.0
C796 C 0.39196 0.10379 0.2334 0.0
C797 C 0.39108 0.10031 0.2104 0.0
C798 C 0.40187 0.12907 0.30143 0.0
C799 C 0.38244 0.13075 0.31431 0.0
C800 C 0.40047 0.12558 0.27845 0.0
C801 C 0.37962 0.12383 0.26788 0.0
C802 C 0.3602 0.12601 0.28068 0.0
C803 C 0.36158 0.12938 0.30366 0.0
H804 H 0.40872 0.8673 0.68623 0.0
H805 H 0.3693 0.927 0.6925 0.0
H806 H 0.40988 0.86393 0.72656 0.0
H807 H 0.371 0.92397 0.73294 0.0
H808 H 0.35615 0.89598 0.80216 0.0
H809 H 0.35612 0.90056 0.76192 0.0
H810 H 0.42522 0.88093 0.75962 0.0
H811 H 0.42508 0.87573 0.79985 0.0
C812 C 0.4005 0.87985 0.69623 0.0
C813 C 0.38885 0.89738 0.68617 0.0
C814 C 0.40127 0.87798 0.71937 0.0
C815 C 0.39051 0.89366 0.73298 0.0
C816 C 0.37917 0.91142 0.72291 0.0
C817 C 0.37831 0.91323 0.69974 0.0
C818 C 0.37135 0.89265 0.79308 0.0
C819 C 0.3906 0.88543 0.80418 0.0
C820 C 0.37137 0.89543 0.77002 0.0
C821 C 0.39068 0.89116 0.75756 0.0
C822 C 0.40999 0.88408 0.7687 0.0
C823 C 0.40993 0.88119 0.79176 0.0
H824 H 0.56841 0.88986 0.19832 0.0
H825 H 0.63976 0.8997 0.20153 0.0
H826 H 0.56756 0.88354 0.23838 0.0
H827 H 0.6388 0.89385 0.24161 0.0
H828 H 0.63301 0.8577 0.30748 0.0
H829 H 0.63241 0.86327 0.26735 0.0
H830 H 0.57293 0.90292 0.27377 0.0
H831 H 0.57322 0.89696 0.3139 0.0
C832 C 0.58389 0.89088 0.20759 0.0
C833 C 0.60417 0.89519 0.19673 0.0
C834 C 0.58337 0.88733 0.23056 0.0
C835 C 0.60313 0.88804 0.24313 0.0
C836 C 0.62335 0.89279 0.23232 0.0
C837 C 0.62387 0.89631 0.20937 0.0
C838 C 0.61969 0.86746 0.30032 0.0
C839 C 0.6032 0.87694 0.31388 0.0
C840 C 0.61946 0.8708 0.27735 0.0
C841 C 0.60276 0.88373 0.26742 0.0
C842 C 0.58594 0.89275 0.2809 0.0
C843 C 0.58615 0.88938 0.3039 0.0
H844 H 0.58541 0.12878 0.8056 0.0
H845 H 0.64896 0.09651 0.81436 0.0
H846 H 0.5913 0.12943 0.76546 0.0
H847 H 0.65519 0.09783 0.77438 0.0
H848 H 0.64862 0.08239 0.70047 0.0
H849 H 0.64218 0.08138 0.74044 0.0
H850 H 0.61379 0.14733 0.73772 0.0
H851 H 0.61957 0.14802 0.69758 0.0
C852 C 0.60068 0.12192 0.79896 0.0
C853 C 0.61668 0.11253 0.81312 0.0
C854 C 0.60412 0.12243 0.77598 0.0
C855 C 0.62373 0.1137 0.7667 0.0
C856 C 0.63974 0.10436 0.78092 0.0
C857 C 0.63622 0.10371 0.80386 0.0
C858 C 0.64103 0.09669 0.70841 0.0
C859 C 0.63459 0.11527 0.69589 0.0
C860 C 0.63744 0.09615 0.73135 0.0
C861 C 0.62748 0.11428 0.7423 0.0
C862 C 0.62118 0.13295 0.72976 0.0
C863 C 0.62462 0.1334 0.70678 0.0
H864 H 0.91879 0.81055 0.63826 0.0
H865 H 0.86891 0.80389 0.58658 0.0
H866 H 0.92316 0.77016 0.63875 0.0
H867 H 0.87349 0.76356 0.58695 0.0
H868 H 0.86957 0.69191 0.61421 0.0
H869 H 0.86565 0.73226 0.61257 0.0
H870 H 0.93724 0.73985 0.61432 0.0
H871 H 0.94123 0.69947 0.6162 0.0
C872 C 0.90879 0.80048 0.62699 0.0
C873 C 0.89346 0.8104 0.61242 0.0
C874 C 0.91141 0.77738 0.62717 0.0
C875 C 0.89867 0.76373 0.61288 0.0
C876 C 0.88336 0.77365 0.59831 0.0
C877 C 0.88083 0.79676 0.59804 0.0
C878 C 0.88449 0.70217 0.61417 0.0
C879 C 0.90572 0.69249 0.6154 0.0
C880 C 0.88223 0.72527 0.61312 0.0
C881 C 0.90114 0.73919 0.61337 0.0
C882 C 0.92237 0.72953 0.61437 0.0
C883 C 0.92464 0.7064 0.6153 0.0
H884 H 0.8037 0.42627 0.10419 0.0
H885 H 0.80331 0.3638 0.13981 0.0
H886 H 0.76337 0.42893 0.10905 0.0
H887 H 0.76321 0.36641 0.14441 0.0
H888 H 0.69713 0.39047 0.17121 0.0
H889 H 0.73733 0.39016 0.16571 0.0
H890 H 0.72824 0.40979 0.09719 0.0
H891 H 0.68799 0.41036 0.1027 0.0
C892 C 0.79502 0.41304 0.11288 0.0
C893 C 0.80672 0.39488 0.1217 0.0
C894 C 0.77194 0.41455 0.11562 0.0
C895 C 0.76021 0.398 0.12732 0.0
C896 C 0.77187 0.37963 0.13569 0.0
C897 C 0.79484 0.37807 0.13289 0.0
C898 C 0.70369 0.3949 0.15502 0.0
C899 C 0.68937 0.40031 0.13736 0.0
C900 C 0.7267 0.39458 0.15184 0.0
C901 C 0.73589 0.39974 0.13096 0.0
C902 C 0.72163 0.40585 0.11349 0.0
C903 C 0.69858 0.40608 0.11664 0.0
H904 H 0.06929 0.19997 0.63997 0.0
H905 H 0.14025 0.20454 0.65185 0.0
H906 H 0.06708 0.24064 0.63995 0.0
H907 H 0.13793 0.24503 0.65188 0.0
H908 H 0.12927 0.31383 0.62055 0.0
H909 H 0.12986 0.2733 0.62225 0.0
H910 H 0.07269 0.2739 0.66578 0.0
H911 H 0.072 0.3146 0.6641 0.0
C912 C 0.08436 0.20962 0.64277 0.0
C913 C 0.10496 0.19905 0.64578 0.0
C914 C 0.08306 0.23288 0.64283 0.0
C915 C 0.10237 0.24593 0.6457 0.0
C916 C 0.12284 0.23535 0.6493 0.0
C917 C 0.12412 0.21216 0.64942 0.0
C918 C 0.11676 0.30536 0.63043 0.0
C919 C 0.10063 0.31742 0.64227 0.0
C920 C 0.1172 0.28216 0.63151 0.0
C921 C 0.10143 0.27051 0.64428 0.0
C922 C 0.08499 0.2825 0.65574 0.0
C923 C 0.08466 0.30576 0.65484 0.0
H924 H 0.20461 0.61405 0.09613 0.0
H925 H 0.20505 0.67557 0.13385 0.0
H926 H 0.24428 0.60978 0.10312 0.0
H927 H 0.24492 0.67156 0.14037 0.0
H928 H 0.3103 0.64456 0.16799 0.0
H929 H 0.27043 0.64822 0.16121 0.0
H930 H 0.27971 0.62619 0.09327 0.0
H931 H 0.31941 0.62202 0.10017 0.0
C932 C 0.21321 0.62678 0.10574 0.0
C933 C 0.20167 0.64515 0.11446 0.0
C934 C 0.23598 0.62436 0.10967 0.0
C935 C 0.24775 0.6403 0.12235 0.0
C936 C 0.23626 0.65881 0.13084 0.0
C937 C 0.21345 0.6612 0.12695 0.0
C938 C 0.30381 0.64037 0.15165 0.0
C939 C 0.31801 0.63298 0.13463 0.0
C940 C 0.28099 0.64264 0.14772 0.0
C941 C 0.27192 0.63759 0.12667 0.0
C942 C 0.28612 0.62997 0.10974 0.0
C943 C 0.3089 0.62765 0.11368 0.0
H944 H 0.83731 0.19516 0.42684 0.0
H945 H 0.892 0.19216 0.3802 0.0
H946 H 0.84136 0.23563 0.42876 0.0
H947 H 0.89576 0.23252 0.38187 0.0
H948 H 0.91078 0.30253 0.40608 0.0
H949 H 0.90712 0.26212 0.40775 0.0
H950 H 0.83549 0.26793 0.40442 0.0
H951 H 0.83909 0.30838 0.40313 0.0
C952 C 0.85017 0.20312 0.41699 0.0
C953 C 0.86431 0.19046 0.40334 0.0
C954 C 0.85242 0.22629 0.41803 0.0
C955 C 0.8689 0.23724 0.4055 0.0
C956 C 0.88311 0.22455 0.39197 0.0
C957 C 0.88084 0.20142 0.3909 0.0
C958 C 0.89424 0.29522 0.40586 0.0
C959 C 0.87523 0.30866 0.40433 0.0
C960 C 0.89216 0.27206 0.4067 0.0
C961 C 0.87103 0.26185 0.40606 0.0
C962 C 0.85199 0.27532 0.40514 0.0
C963 C 0.85407 0.29849 0.40427 0.0
H964 H 0.19097 0.38789 0.83409 0.0
H965 H 0.18641 0.39142 0.90587 0.0
H966 H 0.23116 0.3927 0.83648 0.0
H967 H 0.2268 0.39581 0.90824 0.0
H968 H 0.29687 0.42573 0.90226 0.0
H969 H 0.2564 0.42282 0.89926 0.0
H970 H 0.26337 0.37172 0.84889 0.0
H971 H 0.3037 0.37488 0.85154 0.0
C972 C 0.19854 0.38958 0.8504 0.0
C973 C 0.1855 0.38921 0.8698 0.0
C974 C 0.2216 0.39225 0.85175 0.0
C975 C 0.23215 0.39461 0.87254 0.0
C976 C 0.21911 0.39431 0.89196 0.0
C977 C 0.196 0.39163 0.89061 0.0
C978 C 0.28976 0.414 0.89043 0.0
C979 C 0.30349 0.40053 0.87715 0.0
C980 C 0.26659 0.41222 0.88884 0.0
C981 C 0.25671 0.39698 0.87391 0.0
C982 C 0.27047 0.38379 0.86038 0.0
C983 C 0.2936 0.38555 0.86198 0.0
H984 H 0.16783 0.8059 0.33455 0.0
H985 H 0.10319 0.8072 0.36614 0.0
H986 H 0.16507 0.76541 0.33112 0.0
H987 H 0.10051 0.76674 0.36265 0.0
H988 H 0.09604 0.69612 0.3317 0.0
H989 H 0.09796 0.73684 0.33245 0.0
H990 H 0.16472 0.7338 0.35911 0.0
H991 H 0.16287 0.69321 0.35845 0.0
C992 C 0.15298 0.79758 0.3406 0.0
C993 C 0.13577 0.80971 0.3507 0.0
C994 C 0.15147 0.77442 0.33874 0.0
C995 C 0.13261 0.763 0.34669 0.0
C996 C 0.11515 0.77517 0.35625 0.0
C997 C 0.11676 0.7983 0.35835 0.0
C998 C 0.11113 0.70415 0.33768 0.0
C999 C 0.12929 0.69148 0.34505 0.0
C1000 C 0.11218 0.72742 0.33817 0.0
C1001 C 0.13151 0.73839 0.34576 0.0
C1002 C 0.14972 0.72573 0.35294 0.0
C1003 C 0.14858 0.70251 0.3527 0.0
H1004 H 0.81722 0.62242 0.90581 0.0
H1005 H 0.81558 0.59572 0.83884 0.0
H1006 H 0.77722 0.61582 0.90916 0.0
H1007 H 0.77559 0.58905 0.8423 0.0
H1008 H 0.70061 0.60611 0.85003 0.0
H1009 H 0.74072 0.61149 0.8459 0.0
H1010 H 0.75128 0.58298 0.91094 0.0
H1011 H 0.7112 0.57766 0.91518 0.0
C1012 C 0.80833 0.61519 0.8918 0.0
C1013 C 0.81956 0.6096 0.87206 0.0
C1014 C 0.78547 0.61127 0.89378 0.0
C1015 C 0.77334 0.60184 0.87602 0.0
C1016 C 0.78451 0.59647 0.8562 0.0
C1017 C 0.80741 0.60022 0.85427 0.0
C1018 C 0.71149 0.60085 0.86339 0.0
C1019 C 0.70272 0.59151 0.88296 0.0
C1020 C 0.73445 0.60387 0.86098 0.0
C1021 C 0.74908 0.59776 0.87816 0.0
C1022 C 0.74035 0.58809 0.89756 0.0
C1023 C 0.71741 0.58491 0.89991 0.0
H1024 H 0.59497 0.9122 0.80845 0.0
H1025 H 0.62676 0.8478 0.80713 0.0
H1026 H 0.59665 0.91366 0.76788 0.0
H1027 H 0.62785 0.84897 0.76669 0.0
H1028 H 0.64928 0.86921 0.69719 0.0
H1029 H 0.64698 0.86826 0.73758 0.0
H1030 H 0.58114 0.89681 0.7346 0.0
H1031 H 0.58371 0.89836 0.69408 0.0
C1032 C 0.60218 0.8983 0.7995 0.0
C1033 C 0.61084 0.87994 0.811 0.0
C1034 C 0.60302 0.89908 0.77624 0.0
C1035 C 0.61245 0.88146 0.76403 0.0
C1036 C 0.62084 0.863 0.77558 0.0
C1037 C 0.62012 0.86229 0.79879 0.0
C1038 C 0.63428 0.87526 0.70512 0.0
C1039 C 0.61666 0.88384 0.69242 0.0
C1040 C 0.63292 0.8746 0.7283 0.0
C1041 C 0.61384 0.88238 0.73935 0.0
C1042 C 0.59618 0.89094 0.72663 0.0
C1043 C 0.5976 0.89171 0.70341 0.0
H1044 H 0.6082 0.14202 0.20133 0.0
H1045 H 0.67806 0.12599 0.20741 0.0
H1046 H 0.60529 0.14462 0.24163 0.0
H1047 H 0.675 0.12842 0.24796 0.0
H1048 H 0.66495 0.16029 0.31743 0.0
H1049 H 0.66822 0.15777 0.27697 0.0
H1050 H 0.60707 0.11951 0.27411 0.0
H1051 H 0.60363 0.12217 0.31444 0.0
C1052 C 0.62294 0.13895 0.21127 0.0
C1053 C 0.64339 0.1338 0.20118 0.0
C1054 C 0.62121 0.14035 0.23437 0.0
C1055 C 0.63991 0.13673 0.24791 0.0
C1056 C 0.66037 0.13151 0.23788 0.0
C1057 C 0.66208 0.12997 0.2147 0.0
C1058 C 0.65213 0.15147 0.30815 0.0
C1059 C 0.634 0.14147 0.31912 0.0
C1060 C 0.65412 0.14987 0.28502 0.0
C1061 C 0.63794 0.13839 0.27243 0.0
C1062 C 0.61969 0.12863 0.28338 0.0
C1063 C 0.61777 0.13011 0.30649 0.0
H1064 H 0.36586 0.0836 0.70663 0.0
H1065 H 0.40784 0.14224 0.70256 0.0
H1066 H 0.3697 0.08398 0.74707 0.0
H1067 H 0.41118 0.14295 0.74292 0.0
H1068 H 0.42767 0.12852 0.81478 0.0
H1069 H 0.42679 0.12367 0.77445 0.0
H1070 H 0.35683 0.10656 0.77779 0.0
H1071 H 0.35783 0.11083 0.81808 0.0
C1072 C 0.37593 0.09655 0.71435 0.0
C1073 C 0.38645 0.11295 0.7014 0.0
C1074 C 0.37804 0.09683 0.73753 0.0
C1075 C 0.39068 0.11355 0.74823 0.0
C1076 C 0.40157 0.12966 0.73521 0.0
C1077 C 0.39952 0.12935 0.71206 0.0
C1078 C 0.41215 0.12357 0.80691 0.0
C1079 C 0.3928 0.12018 0.8196 0.0
C1080 C 0.41162 0.12089 0.7838 0.0
C1081 C 0.39172 0.11483 0.77289 0.0
C1082 C 0.3725 0.11096 0.78568 0.0
C1083 C 0.37305 0.11356 0.80878 0.0
H1084 H 0.3631 0.89249 0.19354 0.0
H1085 H 0.41586 0.8439 0.19671 0.0
H1086 H 0.35841 0.89007 0.23372 0.0
H1087 H 0.41092 0.84132 0.23697 0.0
H1088 H 0.40983 0.86273 0.31147 0.0
H1089 H 0.41582 0.86405 0.27129 0.0
H1090 H 0.34466 0.86228 0.26053 0.0
H1091 H 0.33862 0.86125 0.30057 0.0
C1092 C 0.37372 0.88131 0.20281 0.0
C1093 C 0.38981 0.86833 0.19193 0.0
C1094 C 0.37092 0.87982 0.22581 0.0
C1095 C 0.38418 0.86537 0.23845 0.0
C1096 C 0.40056 0.8527 0.22766 0.0
C1097 C 0.40332 0.85413 0.20461 0.0
C1098 C 0.39548 0.86247 0.30052 0.0
C1099 C 0.37375 0.86202 0.30921 0.0
C1100 C 0.39892 0.86315 0.27752 0.0
C1101 C 0.3807 0.86347 0.26279 0.0
C1102 C 0.35901 0.86244 0.27149 0.0
C1103 C 0.35557 0.86169 0.29443 0.0
H1104 H 0.07456 0.12313 0.56746 0.0
H1105 H 0.14615 0.13119 0.57009 0.0
H1106 H 0.07568 0.12699 0.52696 0.0
H1107 H 0.14724 0.13464 0.52985 0.0
H1108 H 0.13895 0.16613 0.46207 0.0
H1109 H 0.13589 0.16206 0.50226 0.0
H1110 H 0.08905 0.10781 0.49309 0.0
H1111 H 0.09178 0.11212 0.45279 0.0
C1112 C 0.09052 0.12552 0.55941 0.0
C1113 C 0.11023 0.12698 0.572 0.0
C1114 C 0.09116 0.12767 0.53623 0.0
C1115 C 0.11153 0.13135 0.52527 0.0
C1116 C 0.13125 0.13227 0.53785 0.0
C1117 C 0.13061 0.13013 0.56093 0.0
C1118 C 0.12793 0.15339 0.4686 0.0
C1119 C 0.1157 0.13938 0.45425 0.0
C1120 C 0.12627 0.15098 0.49162 0.0
C1121 C 0.11237 0.13448 0.50082 0.0
C1122 C 0.09977 0.12076 0.48649 0.0
C1123 C 0.10144 0.12318 0.46342 0.0
H1124 H 0.39003 0.68593 0.94765 0.0
H1125 H 0.42233 0.62209 0.94218 0.0
H1126 H 0.39306 0.68437 0.98779 0.0
H1127 H 0.42683 0.62105 0.98253 0.0
H1128 H 0.39932 0.61152 0.05341 0.0
H1129 H 0.40498 0.61437 0.01344 0.0
H1130 H 0.41341 0.6858 0.02015 0.0
H1131 H 0.40608 0.68288 0.05989 0.0
C1132 C 0.39841 0.67184 0.95505 0.0
C1133 C 0.40575 0.65403 0.94183 0.0
C1134 C 0.40031 0.67097 0.97817 0.0
C1135 C 0.41007 0.65247 0.98863 0.0
C1136 C 0.4187 0.6353 0.97519 0.0
C1137 C 0.41632 0.63595 0.95205 0.0
C1138 C 0.40262 0.62777 0.04629 0.0
C1139 C 0.40193 0.64702 0.05957 0.0
C1140 C 0.40606 0.62944 0.02336 0.0
C1141 C 0.40942 0.65038 0.01334 0.0
C1142 C 0.4102 0.66946 0.02706 0.0
C1143 C 0.40616 0.66782 0.04987 0.0
H1144 H 0.94732 0.87464 0.43943 0.0
H1145 H 0.87686 0.88667 0.44728 0.0
H1146 H 0.95254 0.87885 0.47954 0.0
H1147 H 0.88192 0.89017 0.48726 0.0
H1148 H 0.89779 0.91057 0.55678 0.0
H1149 H 0.89728 0.91278 0.51631 0.0
H1150 H 0.94388 0.85828 0.51264 0.0
H1151 H 0.94497 0.85662 0.55312 0.0
C1152 C 0.93297 0.87821 0.4497 0.0
C1153 C 0.91167 0.88023 0.44021 0.0
C1154 C 0.93594 0.88054 0.47269 0.0
C1155 C 0.91766 0.88482 0.48663 0.0
C1156 C 0.89645 0.88727 0.47701 0.0
C1157 C 0.8935 0.88509 0.45406 0.0
C1158 C 0.90817 0.89928 0.54733 0.0
C1159 C 0.92127 0.88329 0.55811 0.0
C1160 C 0.90778 0.90045 0.52413 0.0
C1161 C 0.9203 0.88551 0.51121 0.0
C1162 C 0.93418 0.87018 0.52206 0.0
C1163 C 0.93473 0.86915 0.54528 0.0
H1164 H 0.62749 0.31831 0.95482 0.0
H1165 H 0.58429 0.37439 0.94357 0.0
H1166 H 0.62611 0.32509 0.99457 0.0
H1167 H 0.58159 0.38046 0.98367 0.0
H1168 H 0.60705 0.40241 0.05279 0.0
H1169 H 0.60235 0.39431 0.01328 0.0
H1170 H 0.60623 0.3237 0.02718 0.0
H1171 H 0.61255 0.33212 0.06637 0.0
C1172 C 0.61725 0.3318 0.96095 0.0
C1173 C 0.6061 0.3459 0.94615 0.0
C1174 C 0.61629 0.33563 0.98383 0.0
C1175 C 0.60371 0.35336 0.99252 0.0
C1176 C 0.59182 0.36694 0.97764 0.0
C1177 C 0.59321 0.36339 0.95467 0.0
C1178 C 0.60668 0.38518 0.04731 0.0
C1179 C 0.61045 0.36789 0.06243 0.0
C1180 C 0.60383 0.38047 0.02467 0.0
C1181 C 0.60418 0.35831 0.01684 0.0
C1182 C 0.60657 0.34099 0.03239 0.0
C1183 C 0.61001 0.34576 0.05489 0.0
H1184 H 0.11728 0.89297 0.56012 0.0
H1185 H 0.18527 0.8703 0.55511 0.0
H1186 H 0.11318 0.88965 0.51984 0.0
H1187 H 0.18142 0.86764 0.51484 0.0
H1188 H 0.1591 0.83956 0.44815 0.0
H1189 H 0.16271 0.84425 0.48825 0.0
H1190 H 0.12481 0.90513 0.48481 0.0
H1191 H 0.1206 0.90005 0.44471 0.0
C1192 C 0.13144 0.88759 0.55038 0.0
C1193 C 0.15155 0.88176 0.56078 0.0
C1194 C 0.12912 0.88576 0.52729 0.0
C1195 C 0.14692 0.8782 0.51413 0.0
C1196 C 0.16723 0.87305 0.52453 0.0
C1197 C 0.1695 0.87473 0.5476 0.0
C1198 C 0.15146 0.8539 0.45595 0.0
C1199 C 0.13957 0.86943 0.44327 0.0
C1200 C 0.15368 0.85669 0.47893 0.0
C1201 C 0.1442 0.87517 0.48973 0.0
C1202 C 0.13212 0.8906 0.47705 0.0
C1203 C 0.12978 0.88773 0.45406 0.0
H1204 H 0.58181 0.62591 0.94987 0.0
H1205 H 0.641 0.58526 0.94949 0.0
H1206 H 0.58251 0.62648 0.9905 0.0
H1207 H 0.64192 0.58623 0.98996 0.0
H1208 H 0.62799 0.57748 0.06333 0.0
H1209 H 0.62253 0.57368 0.02324 0.0
H1210 H 0.606 0.64351 0.0192 0.0
H1211 H 0.61101 0.64724 0.05927 0.0
C1212 C 0.59489 0.617 0.95844 0.0
C1213 C 0.61141 0.60563 0.94646 0.0
C1214 C 0.59535 0.61743 0.9817 0.0
C1215 C 0.61232 0.60648 0.99344 0.0
C1216 C 0.62847 0.59461 0.98144 0.0
C1217 C 0.62801 0.59418 0.95821 0.0
C1218 C 0.62305 0.59199 0.05391 0.0
C1219 C 0.62007 0.61269 0.06446 0.0
C1220 C 0.62 0.58982 0.03093 0.0
C1221 C 0.61391 0.60831 0.01804 0.0
C1222 C 0.61042 0.62888 0.02869 0.0
C1223 C 0.61345 0.63105 0.05165 0.0
H1224 H 0.91485 0.14163 0.46226 0.0
H1225 H 0.87176 0.08446 0.45249 0.0
H1226 H 0.91399 0.1357 0.50225 0.0
H1227 H 0.87165 0.07786 0.4925 0.0
H1228 H 0.85012 0.09448 0.56408 0.0
H1229 H 0.85522 0.09466 0.52398 0.0
H1230 H 0.9243 0.11361 0.53301 0.0
H1231 H 0.91885 0.11436 0.57322 0.0
C1232 C 0.90558 0.12749 0.46864 0.0
C1233 C 0.89317 0.11366 0.45429 0.0
C1234 C 0.90519 0.12399 0.4916 0.0
C1235 C 0.8926 0.10639 0.50067 0.0
C1236 C 0.88112 0.09187 0.48614 0.0
C1237 C 0.88128 0.09556 0.4632 0.0
C1238 C 0.86646 0.09846 0.55752 0.0
C1239 C 0.88402 0.10462 0.57178 0.0
C1240 C 0.86945 0.09841 0.53449 0.0
C1241 C 0.89017 0.10425 0.5252 0.0
C1242 C 0.90801 0.10945 0.53957 0.0
C1243 C 0.90493 0.10977 0.56261 0.0
H1244 H 0.3579 0.40173 0.94428 0.0
H1245 H 0.42989 0.4004 0.94503 0.0
H1246 H 0.35764 0.407 0.98446 0.0
H1247 H 0.42954 0.40563 0.98553 0.0
H1248 H 0.41112 0.38046 0.05821 0.0
H1249 H 0.41606 0.38135 0.01789 0.0
H1250 H 0.36942 0.43562 0.01344 0.0
H1251 H 0.36442 0.4348 0.05376 0.0
C1252 C 0.37369 0.40266 0.95302 0.0
C1253 C 0.39393 0.40052 0.94154 0.0
C1254 C 0.37352 0.40588 0.97601 0.0
C1255 C 0.39357 0.40682 0.98804 0.0
C1256 C 0.41386 0.40492 0.97659 0.0
C1257 C 0.41405 0.40198 0.95347 0.0
C1258 C 0.40216 0.3928 0.04867 0.0
C1259 C 0.38717 0.40738 0.05911 0.0
C1260 C 0.40511 0.39339 0.02562 0.0
C1261 C 0.39298 0.40844 0.0126 0.0
C1262 C 0.37879 0.4237 0.02313 0.0
C1263 C 0.376 0.42327 0.04619 0.0
H1264 H 0.55238 0.18708 0.13642 0.0
H1265 H 0.55881 0.11732 0.11962 0.0
H1266 H 0.51203 0.18306 0.13656 0.0
H1267 H 0.51838 0.11314 0.1204 0.0
H1268 H 0.44351 0.11871 0.10602 0.0
H1269 H 0.48378 0.12312 0.1022 0.0
H1270 H 0.48491 0.16579 0.16038 0.0
H1271 H 0.44476 0.16189 0.16382 0.0
C1272 C 0.54517 0.17089 0.1327 0.0
C1273 C 0.55876 0.15248 0.12819 0.0
C1274 C 0.52205 0.16855 0.13292 0.0
C1275 C 0.512 0.14771 0.12879 0.0
C1276 C 0.52559 0.12945 0.12351 0.0
C1277 C 0.54875 0.13183 0.12315 0.0
C1278 C 0.4524 0.129 0.11799 0.0
C1279 C 0.44097 0.14002 0.13517 0.0
C1280 C 0.47546 0.13147 0.11584 0.0
C1281 C 0.48752 0.14494 0.13088 0.0
C1282 C 0.47607 0.15568 0.14822 0.0
C1283 C 0.45305 0.15331 0.1503 0.0
H1284 H 0.34711 0.9546 0.58295 0.0
H1285 H 0.4176 0.95219 0.5975 0.0
H1286 H 0.34941 0.9952 0.58043 0.0
H1287 H 0.41983 0.99272 0.5948 0.0
H1288 H 0.41754 0.06604 0.57397 0.0
H1289 H 0.41411 0.02576 0.56758 0.0
H1290 H 0.35763 0.02339 0.61194 0.0
H1291 H 0.36115 0.06335 0.61852 0.0
C1292 C 0.36315 0.96269 0.5852 0.0
C1293 C 0.38214 0.95027 0.59065 0.0
C1294 C 0.36443 0.98589 0.58381 0.0
C1295 C 0.38477 0.99701 0.58749 0.0
C1296 C 0.40399 0.98451 0.59172 0.0
C1297 C 0.40266 0.96135 0.59342 0.0
C1298 C 0.40424 0.05692 0.5821 0.0
C1299 C 0.38971 0.06773 0.59686 0.0
C1300 C 0.40233 0.03393 0.5785 0.0
C1301 C 0.38559 0.02157 0.58925 0.0
C1302 C 0.37053 0.03259 0.60327 0.0
C1303 C 0.37267 0.05541 0.60716 0.0
H1304 H 0.44813 0.9353 0.14268 0.0
H1305 H 0.44744 0.88631 0.08975 0.0
H1306 H 0.48776 0.94148 0.13684 0.0
H1307 H 0.48692 0.89317 0.08319 0.0
H1308 H 0.56033 0.88569 0.10422 0.0
H1309 H 0.5201 0.8841 0.10206 0.0
H1310 H 0.51703 0.95516 0.11382 0.0
H1311 H 0.55757 0.95658 0.11688 0.0
C1312 C 0.45638 0.92616 0.12951 0.0
C1313 C 0.44478 0.91009 0.1169 0.0
C1314 C 0.47908 0.92984 0.12601 0.0
C1315 C 0.49061 0.91772 0.10962 0.0
C1316 C 0.47868 0.90246 0.09625 0.0
C1317 C 0.45604 0.89858 0.09996 0.0
C1318 C 0.55115 0.90108 0.106 0.0
C1319 C 0.56214 0.92123 0.11103 0.0
C1320 C 0.528 0.90019 0.1046 0.0
C1321 C 0.51525 0.91947 0.10796 0.0
C1322 C 0.52633 0.93991 0.1116 0.0
C1323 C 0.54956 0.94076 0.1132 0.0
H1324 H 0.60482 0.06165 0.62232 0.0
H1325 H 0.66185 0.05696 0.57873 0.0
H1326 H 0.5999 0.0214 0.62043 0.0
H1327 H 0.65673 0.01658 0.57671 0.0
H1328 H 0.65913 0.94639 0.60949 0.0
H1329 H 0.6618 0.98652 0.6045 0.0
H1330 H 0.59052 0.98973 0.5952 0.0
H1331 H 0.58775 0.94943 0.6004 0.0
C1332 C 0.61615 0.05206 0.6121 0.0
C1333 C 0.63387 0.06246 0.60084 0.0
C1334 C 0.61321 0.02901 0.6109 0.0
C1335 C 0.62799 0.01586 0.5985 0.0
C1336 C 0.64523 0.02632 0.58658 0.0
C1337 C 0.6481 0.04943 0.58767 0.0
C1338 C 0.64402 0.9556 0.60623 0.0
C1339 C 0.6232 0.94476 0.60553 0.0
C1340 C 0.64559 0.97857 0.60317 0.0
C1341 C 0.62637 0.99124 0.59947 0.0
C1342 C 0.60559 0.98037 0.59821 0.0
C1343 C 0.60402 0.95731 0.60112 0.0
H1344 H 0.43978 0.85109 0.92453 0.0
H1345 H 0.44164 0.90947 0.88264 0.0
H1346 H 0.48028 0.85278 0.92821 0.0
H1347 H 0.482 0.91093 0.88611 0.0
H1348 H 0.55394 0.91623 0.90695 0.0
H1349 H 0.51357 0.91688 0.91187 0.0
H1350 H 0.51075 0.84561 0.90166 0.0
H1351 H 0.55098 0.84487 0.89702 0.0
C1352 C 0.44877 0.86443 0.91634 0.0
C1353 C 0.43752 0.88001 0.90312 0.0
C1354 C 0.47196 0.86532 0.91837 0.0
C1355 C 0.48431 0.8819 0.90734 0.0
C1356 C 0.47294 0.89809 0.89499 0.0
C1357 C 0.44981 0.89714 0.89288 0.0
C1358 C 0.54473 0.90067 0.90604 0.0
C1359 C 0.55563 0.88053 0.9014 0.0
C1360 C 0.52162 0.90106 0.90878 0.0
C1361 C 0.50899 0.88131 0.90707 0.0
C1362 C 0.52003 0.86107 0.90332 0.0
C1363 C 0.54308 0.86069 0.90049 0.0
H1364 H 0.65181 0.94427 0.3454 0.0
H1365 H 0.61513 0.9388 0.40702 0.0
H1366 H 0.65121 0.98458 0.34852 0.0
H1367 H 0.61512 0.97939 0.41053 0.0
H1368 H 0.5988 0.05293 0.39454 0.0
H1369 H 0.5993 0.01226 0.39374 0.0
H1370 H 0.66727 0.01405 0.37011 0.0
H1371 H 0.66649 0.05454 0.37022 0.0
C1372 C 0.64377 0.95169 0.35974 0.0
C1373 C 0.63356 0.93836 0.376 0.0
C1374 C 0.64355 0.97483 0.36161 0.0
C1375 C 0.63329 0.98523 0.37988 0.0
C1376 C 0.623 0.9719 0.39615 0.0
C1377 C 0.62309 0.94866 0.3942 0.0
C1378 C 0.61386 0.04459 0.38928 0.0
C1379 C 0.63253 0.05689 0.38222 0.0
C1380 C 0.61419 0.0213 0.38893 0.0
C1381 C 0.63326 0.0099 0.38166 0.0
C1382 C 0.65214 0.02229 0.37532 0.0
C1383 C 0.65174 0.04551 0.37549 0.0
H1384 H 0.44206 0.13965 0.91289 0.0
H1385 H 0.44011 0.06875 0.89989 0.0
H1386 H 0.48232 0.1381 0.91705 0.0
H1387 H 0.48045 0.06716 0.9045 0.0
H1388 H 0.55204 0.08243 0.87959 0.0
H1389 H 0.51166 0.08042 0.88207 0.0
H1390 H 0.51329 0.12422 0.93936 0.0
H1391 H 0.55381 0.12659 0.93665 0.0
C1392 C 0.45017 0.12366 0.91129 0.0
C1393 C 0.43791 0.10436 0.9058 0.0
C1394 C 0.47326 0.12275 0.91383 0.0
C1395 C 0.48458 0.10253 0.91095 0.0
C1396 C 0.47221 0.08305 0.90648 0.0
C1397 C 0.44909 0.08395 0.90395 0.0
C1398 C 0.54384 0.09149 0.89285 0.0
C1399 C 0.55611 0.10483 0.90781 0.0
C1400 C 0.52068 0.09018 0.89438 0.0
C1401 C 0.50928 0.10219 0.9109 0.0
C1402 C 0.52161 0.11498 0.9263 0.0
C1403 C 0.54481 0.11627 0.92479 0.0
H1404 H 0.34188 0.94967 0.36067 0.0
H1405 H 0.40569 0.93978 0.39253 0.0
H1406 H 0.34655 0.98988 0.36465 0.0
H1407 H 0.41024 0.98006 0.39657 0.0
H1408 H 0.4191 0.05369 0.37237 0.0
H1409 H 0.41556 0.01311 0.37124 0.0
H1410 H 0.34813 0.01792 0.39565 0.0
H1411 H 0.35152 0.05833 0.39671 0.0
C1412 C 0.35687 0.95607 0.36855 0.0
C1413 C 0.37341 0.94158 0.37628 0.0
C1414 C 0.35948 0.97907 0.37095 0.0
C1415 C 0.37873 0.98803 0.38098 0.0
C1416 C 0.39531 0.97357 0.38865 0.0
C1417 C 0.39263 0.95054 0.38642 0.0
C1418 C 0.4036 0.04607 0.3777 0.0
C1419 C 0.38555 0.05922 0.38447 0.0
C1420 C 0.40162 0.02286 0.37712 0.0
C1421 C 0.3815 0.01244 0.38316 0.0
C1422 C 0.36371 0.02556 0.39058 0.0
C1423 C 0.36573 0.0487 0.3913 0.0
H1424 H 0.12733 0.4434 0.06135 0.0
H1425 H 0.10528 0.45839 0.12822 0.0
H1426 H 0.12838 0.48309 0.05289 0.0
H1427 H 0.10681 0.49801 0.11991 0.0
H1428 H 0.09821 0.56767 0.09586 0.0
H1429 H 0.09061 0.52786 0.09838 0.0
H1430 H 0.15216 0.51418 0.06387 0.0
H1431 H 0.15953 0.55401 0.06089 0.0
C1432 C 0.12255 0.45515 0.0742 0.0
C1433 C 0.11641 0.44778 0.09552 0.0
C1434 C 0.12325 0.47788 0.06936 0.0
C1435 C 0.11783 0.4937 0.08576 0.0
C1436 C 0.11084 0.48626 0.10681 0.0
C1437 C 0.1101 0.46354 0.11163 0.0
C1438 C 0.10998 0.55618 0.08852 0.0
C1439 C 0.12961 0.56398 0.07838 0.0
C1440 C 0.10566 0.53337 0.09007 0.0
C1441 C 0.12089 0.51786 0.08156 0.0
C1442 C 0.13998 0.5257 0.07044 0.0
C1443 C 0.14427 0.54854 0.06882 0.0
H1444 H 0.0988 0.57343 0.84361 0.0
H1445 H 0.12599 0.5647 0.9097 0.0
H1446 H 0.09148 0.53351 0.84107 0.0
H1447 H 0.119 0.52476 0.90696 0.0
H1448 H 0.09375 0.45434 0.90057 0.0
H1449 H 0.09084 0.49479 0.90384 0.0
H1450 H 0.11689 0.50187 0.83721 0.0
H1451 H 0.1195 0.46158 0.83379 0.0
C1452 C 0.10296 0.56305 0.85771 0.0
C1453 C 0.11325 0.57218 0.87675 0.0
C1454 C 0.09884 0.54018 0.8562 0.0
C1455 C 0.10488 0.52599 0.87371 0.0
C1456 C 0.11399 0.53529 0.89325 0.0
C1457 C 0.11814 0.55817 0.89476 0.0
C1458 C 0.09853 0.46453 0.8865 0.0
C1459 C 0.10707 0.4548 0.86699 0.0
C1460 C 0.09694 0.48767 0.88843 0.0
C1461 C 0.10374 0.50148 0.87084 0.0
C1462 C 0.11128 0.49167 0.85097 0.0
C1463 C 0.11295 0.46857 0.84907 0.0
H1464 H 0.07801 0.58798 0.35009 0.0
H1465 H 0.06632 0.63743 0.40124 0.0
H1466 H 0.03842 0.57894 0.34934 0.0
H1467 H 0.02664 0.62871 0.40012 0.0
H1468 H 0.95789 0.59996 0.40358 0.0
H1469 H 0.99826 0.60066 0.40769 0.0
H1470 H 0.00538 0.59787 0.33614 0.0
H1471 H 0.96505 0.59669 0.33201 0.0
C1472 C 0.06701 0.59684 0.36128 0.0
C1473 C 0.07526 0.61358 0.3756 0.0
C1474 C 0.04432 0.5917 0.36078 0.0
C1475 C 0.02937 0.6032 0.37454 0.0
C1476 C 0.03775 0.61935 0.38948 0.0
C1477 C 0.06048 0.62446 0.39003 0.0
C1478 C 0.96807 0.59912 0.38873 0.0
C1479 C 0.95827 0.59852 0.36744 0.0
C1480 C 0.9912 0.59966 0.3911 0.0
C1481 C 0.00501 0.59961 0.37226 0.0
C1482 C 0.99522 0.59775 0.35102 0.0
C1483 C 0.97208 0.59716 0.34864 0.0
H1484 H 0.91287 0.55644 0.87092 0.0
H1485 H 0.88204 0.55438 0.9359 0.0
H1486 H 0.91523 0.51592 0.87074 0.0
H1487 H 0.88471 0.51386 0.93579 0.0
H1488 H 0.86282 0.44424 0.91025 0.0
H1489 H 0.86534 0.48452 0.91429 0.0
H1490 H 0.93259 0.48336 0.88886 0.0
H1491 H 0.93001 0.44292 0.88453 0.0
C1492 C 0.9069 0.54737 0.88531 0.0
C1493 C 0.89704 0.5586 0.90333 0.0
C1494 C 0.90837 0.52417 0.88525 0.0
C1495 C 0.89999 0.51173 0.90317 0.0
C1496 C 0.891 0.52302 0.9216 0.0
C1497 C 0.88958 0.54622 0.9217 0.0
C1498 C 0.8782 0.45252 0.90562 0.0
C1499 C 0.89618 0.4404 0.89696 0.0
C1500 C 0.8797 0.4756 0.90811 0.0
C1501 C 0.89918 0.48708 0.90194 0.0
C1502 C 0.91731 0.47495 0.89359 0.0
C1503 C 0.91585 0.4518 0.89119 0.0
H1504 H 0.04297 0.39745 0.44977 0.0
H1505 H 0.03679 0.40336 0.37838 0.0
H1506 H 1.0027 0.40113 0.45351 0.0
H1507 H 0.9967 0.40572 0.38185 0.0
H1508 H 0.92516 0.41833 0.39132 0.0
H1509 H 0.9652 0.42506 0.39233 0.0
H1510 H 0.97107 0.37925 0.44747 0.0
H1511 H 0.93092 0.37378 0.44723 0.0
C1512 C 0.03298 0.39964 0.4349 0.0
C1513 C 0.04297 0.39999 0.41379 0.0
C1514 C 0.00989 0.40159 0.437 0.0
C1515 C 0.99628 0.4035 0.41799 0.0
C1516 C 0.00651 0.40468 0.39695 0.0
C1517 C 0.02958 0.40315 0.3949 0.0
C1518 C 0.93505 0.41004 0.40387 0.0
C1519 C 0.92503 0.39541 0.41908 0.0
C1520 C 0.95802 0.41374 0.40438 0.0
C1521 C 0.97156 0.40243 0.41974 0.0
C1522 C 0.96128 0.38852 0.43557 0.0
C1523 C 0.93823 0.38523 0.43537 0.0
H1524 H 0.89957 0.4415 0.15353 0.0
H1525 H 0.9072 0.44376 0.082 0.0
H1526 H 0.90698 0.4813 0.15579 0.0
H1527 H 0.91496 0.48373 0.08436 0.0
H1528 H 0.88921 0.55588 0.09826 0.0
H1529 H 0.89112 0.51573 0.09333 0.0
H1530 H 0.93467 0.51121 0.15047 0.0
H1531 H 0.93251 0.55155 0.15566 0.0
C1532 C 0.90316 0.45043 0.1383 0.0
C1533 C 0.90253 0.43953 0.11754 0.0
C1534 C 0.90761 0.47323 0.13964 0.0
C1535 C 0.91147 0.48566 0.12025 0.0
C1536 C 0.91181 0.4746 0.09956 0.0
C1537 C 0.90744 0.45172 0.09822 0.0
C1538 C 0.89943 0.5464 0.10963 0.0
C1539 C 0.91048 0.55686 0.12754 0.0
C1540 C 0.90068 0.52338 0.10667 0.0
C1541 C 0.91296 0.5103 0.12157 0.0
C1542 C 0.92487 0.52087 0.13887 0.0
C1543 C 0.92369 0.54395 0.14179 0.0
H1544 H 0.94379 0.40166 0.67656 0.0
H1545 H 0.92661 0.40177 0.60662 0.0
H1546 H 0.98314 0.40331 0.66694 0.0
H1547 H 0.96595 0.40398 0.59702 0.0
H1548 H 0.03618 0.37258 0.59162 0.0
H1549 H 0.99669 0.37819 0.59858 0.0
H1550 H 0.01283 0.42538 0.65084 0.0
H1551 H 0.05236 0.41935 0.64426 0.0
C1552 C 0.94839 0.40246 0.65915 0.0
C1553 C 0.93211 0.40133 0.64236 0.0
C1554 C 0.97095 0.40353 0.65362 0.0
C1555 C 0.97767 0.40361 0.63119 0.0
C1556 C 0.96132 0.40355 0.61443 0.0
C1557 C 0.93877 0.40239 0.61996 0.0
C1558 C 0.03131 0.38437 0.60439 0.0
C1559 C 0.04738 0.39533 0.61754 0.0
C1560 C 0.00866 0.3877 0.60831 0.0
C1561 C 1.00162 0.40212 0.62539 0.0
C1562 C 0.01773 0.41387 0.63782 0.0
C1563 C 0.04037 0.41049 0.63396 0.0
H1564 H 0.0696 0.62799 0.57564 0.0
H1565 H 0.07151 0.57471 0.62382 0.0
H1566 H 0.02929 0.62462 0.57365 0.0
H1567 H 0.031 0.57113 0.62152 0.0
H1568 H 0.9603 0.59978 0.63607 0.0
H1569 H 1.00044 0.5951 0.63416 0.0
H1570 H 0.99774 0.60079 0.56251 0.0
H1571 H 0.95745 0.60583 0.56441 0.0
C1572 C 0.06144 0.61532 0.58557 0.0
C1573 C 0.07373 0.60178 0.60009 0.0
C1574 C 0.03832 0.61327 0.58428 0.0
C1575 C 0.02695 0.59767 0.59749 0.0
C1576 C 0.03931 0.58348 0.61133 0.0
C1577 C 0.0625 0.58547 0.61257 0.0
C1578 C 0.96819 0.59977 0.61987 0.0
C1579 C 0.95572 0.60343 0.6004 0.0
C1580 C 0.9912 0.5969 0.61877 0.0
C1581 C 1.00227 0.59767 0.5982 0.0
C1582 C 0.98968 0.60038 0.57863 0.0
C1583 C 0.96661 0.60318 0.57972 0.0
H1584 H 0.93502 0.05731 0.37802 0.0
H1585 H 0.93561 0.1259 0.3567 0.0
H1586 H 0.9754 0.056 0.37433 0.0
H1587 H 0.97605 0.12498 0.35394 0.0
H1588 H 0.04992 0.11717 0.34427 0.0
H1589 H 0.00987 0.11283 0.33788 0.0
H1590 H 0.00551 0.06959 0.3951 0.0
H1591 H 0.04528 0.07326 0.40086 0.0
C1592 C 0.94375 0.07205 0.37225 0.0
C1593 C 0.93204 0.09174 0.36782 0.0
C1594 C 0.96699 0.07139 0.37034 0.0
C1595 C 0.97925 0.09052 0.36427 0.0
C1596 C 0.96735 0.10983 0.3585 0.0
C1597 C 0.94405 0.11039 0.36014 0.0
C1598 C 0.04045 0.10636 0.35517 0.0
C1599 C 0.0509 0.09566 0.37315 0.0
C1600 C 0.0174 0.10403 0.35164 0.0
C1601 C 0.0042 0.09098 0.36604 0.0
C1602 C 0.01494 0.07952 0.38339 0.0
C1603 C 0.0379 0.08176 0.38682 0.0
H1604 H 0.41706 0.44413 0.86637 0.0
H1605 H 0.36013 0.45943 0.82522 0.0
H1606 H 0.42615 0.48376 0.8689 0.0
H1607 H 0.36884 0.49896 0.82825 0.0
H1608 H 0.3917 0.57058 0.83226 0.0
H1609 H 0.39248 0.5311 0.82143 0.0
H1610 H 0.40918 0.5135 0.8891 0.0
H1611 H 0.40881 0.55249 0.89962 0.0
C1612 C 0.40671 0.45587 0.85751 0.0
C1613 C 0.38768 0.44852 0.84583 0.0
C1614 C 0.41182 0.47866 0.8591 0.0
C1615 C 0.39802 0.4947 0.84911 0.0
C1616 C 0.37995 0.48719 0.83609 0.0
C1617 C 0.37487 0.46442 0.83445 0.0
C1618 C 0.39604 0.55827 0.84463 0.0
C1619 C 0.40002 0.5647 0.86684 0.0
C1620 C 0.39631 0.53561 0.8385 0.0
C1621 C 0.40078 0.51898 0.8544 0.0
C1622 C 0.40595 0.52569 0.87627 0.0
C1623 C 0.40555 0.54816 0.88238 0.0
H1624 H 0.06518 0.92245 0.35836 0.0
H1625 H 0.04748 0.85264 0.35679 0.0
H1626 H 0.02581 0.93207 0.35244 0.0
H1627 H 0.00872 0.86204 0.35105 0.0
H1628 H 0.95144 0.93229 0.38055 0.0
H1629 H 0.99158 0.92933 0.3755 0.0
H1630 H 0.98117 0.87773 0.32618 0.0
H1631 H 0.94102 0.88038 0.33149 0.0
C1632 C 0.053 0.9092 0.35629 0.0
C1633 C 0.05941 0.8868 0.35817 0.0
C1634 C 0.03045 0.91468 0.35306 0.0
C1635 C 0.01402 0.89783 0.35125 0.0
C1636 C 0.02081 0.87549 0.35202 0.0
C1637 C 0.0431 0.87008 0.35552 0.0
C1638 C 0.95764 0.92068 0.36821 0.0
C1639 C 0.94291 0.90631 0.35671 0.0
C1640 C 0.98074 0.91906 0.36525 0.0
C1641 C 0.98969 0.90302 0.35072 0.0
C1642 C 0.97488 0.88997 0.33785 0.0
C1643 C 0.9518 0.89159 0.34079 0.0
H1644 H 0.57497 0.41777 0.86135 0.0
H1645 H 0.63949 0.42904 0.83161 0.0
H1646 H 0.56873 0.45792 0.86237 0.0
H1647 H 0.63377 0.46892 0.83352 0.0
H1648 H 0.61844 0.54138 0.83312 0.0
H1649 H 0.61639 0.502 0.82277 0.0
H1650 H 0.58141 0.48791 0.88401 0.0
H1651 H 0.58262 0.52708 0.89374 0.0
C1652 C 0.5877 0.42876 0.85475 0.0
C1653 C 0.60782 0.42009 0.84661 0.0
C1654 C 0.58423 0.45186 0.85553 0.0
C1655 C 0.60088 0.46691 0.84838 0.0
C1656 C 0.62041 0.45808 0.83901 0.0
C1657 C 0.62377 0.43504 0.83804 0.0
C1658 C 0.6099 0.52991 0.84412 0.0
C1659 C 0.60089 0.53746 0.86437 0.0
C1660 C 0.60888 0.50724 0.83829 0.0
C1661 C 0.59898 0.49149 0.85264 0.0
C1662 C 0.58895 0.49934 0.87231 0.0
C1663 C 0.5898 0.52196 0.87802 0.0
H1664 H 0.97168 0.86114 0.67105 0.0
H1665 H 0.95461 0.92499 0.64311 0.0
H1666 H 0.01076 0.87154 0.67085 0.0
H1667 H 0.99389 0.93584 0.64369 0.0
H1668 H 0.06466 0.92926 0.61334 0.0
H1669 H 0.02538 0.92653 0.62219 0.0
H1670 H 0.04144 0.89287 0.68358 0.0
H1671 H 0.08098 0.8949 0.6742 0.0
C1672 C 0.97619 0.87767 0.66539 0.0
C1673 C 0.95993 0.89209 0.6568 0.0
C1674 C 0.99873 0.88374 0.66542 0.0
C1675 C 0.00572 0.90448 0.65699 0.0
C1676 C 0.98926 0.91953 0.64986 0.0
C1677 C 0.96666 0.9134 0.64973 0.0
C1678 C 0.05992 0.9216 0.62894 0.0
C1679 C 0.07607 0.91203 0.64289 0.0
C1680 C 0.03725 0.92016 0.63413 0.0
C1681 C 0.03001 0.90923 0.65352 0.0
C1682 C 0.04629 0.90099 0.66826 0.0
C1683 C 0.06903 0.90233 0.66299 0.0
H1684 H 0.58361 0.47072 0.09988 0.0
H1685 H 0.60724 0.45978 0.16687 0.0
H1686 H 0.57877 0.50996 0.10803 0.0
H1687 H 0.60208 0.49952 0.17526 0.0
H1688 H 0.62273 0.57523 0.1642 0.0
H1689 H 0.62036 0.53464 0.16445 0.0
H1690 H 0.55817 0.53752 0.12834 0.0
H1691 H 0.56083 0.57802 0.12757 0.0
C1692 C 0.5874 0.47664 0.11654 0.0
C1693 C 0.59591 0.46208 0.13268 0.0
C1694 C 0.58446 0.49922 0.12129 0.0
C1695 C 0.59002 0.50804 0.14233 0.0
C1696 C 0.59778 0.49334 0.15882 0.0
C1697 C 0.60056 0.47054 0.15409 0.0
C1698 C 0.60828 0.56726 0.15674 0.0
C1699 C 0.59216 0.57996 0.14552 0.0
C1700 C 0.60688 0.54391 0.15696 0.0
C1701 C 0.58929 0.5327 0.14604 0.0
C1702 C 0.57224 0.54553 0.13646 0.0
C1703 C 0.57369 0.56882 0.13615 0.0
H1704 H 0.9529 0.08632 0.65747 0.0
H1705 H 0.96125 0.15535 0.67622 0.0
H1706 H 0.99266 0.07991 0.6651 0.0
H1707 H 1.00043 0.14911 0.68381 0.0
H1708 H 0.06821 0.13372 0.70585 0.0
H1709 H 0.02776 0.13062 0.70734 0.0
H1710 H 0.02796 0.0923 0.64634 0.0
H1711 H 0.06854 0.09511 0.64498 0.0
C1712 C 0.96305 0.09992 0.66383 0.0
C1713 C 0.95398 0.12133 0.66628 0.0
C1714 C 0.98584 0.09634 0.66798 0.0
C1715 C 0.9998 0.114 0.67505 0.0
C1716 C 0.99024 0.13502 0.67869 0.0
C1717 C 0.96773 0.13865 0.67424 0.0
C1718 C 0.05973 0.12416 0.69301 0.0
C1719 C 0.0717 0.11495 0.67512 0.0
C1720 C 0.03648 0.12247 0.69382 0.0
C1721 C 0.02452 0.11154 0.67675 0.0
C1722 C 0.03659 0.10077 0.65981 0.0
C1723 C 0.05991 0.10245 0.659 0.0
H1724 H 0.39059 0.56267 0.16522 0.0
H1725 H 0.43819 0.55419 0.11208 0.0
H1726 H 0.39134 0.52253 0.17219 0.0
H1727 H 0.43833 0.51441 0.11836 0.0
H1728 H 0.44462 0.44389 0.13725 0.0
H1729 H 0.44831 0.48421 0.14045 0.0
H1730 H 0.37818 0.48891 0.15583 0.0
H1731 H 0.37483 0.44849 0.15363 0.0
C1732 C 0.4014 0.55232 0.15519 0.0
C1733 C 0.41426 0.56174 0.13802 0.0
C1734 C 0.40169 0.52923 0.15905 0.0
C1735 C 0.41481 0.51498 0.1458 0.0
C1736 C 0.42827 0.52466 0.12923 0.0
C1737 C 0.42807 0.54763 0.12548 0.0
C1738 C 0.4301 0.4535 0.14181 0.0
C1739 C 0.4094 0.44291 0.145 0.0
C1740 C 0.43214 0.47671 0.14343 0.0
C1741 C 0.41345 0.49009 0.14793 0.0
C1742 C 0.39303 0.47933 0.15248 0.0
C1743 C 0.39107 0.45605 0.15115 0.0
H1744 H 0.39334 0.04942 0.08453 0.0
H1745 H 0.33084 0.06349 0.11699 0.0
H1746 H 0.38484 0.00987 0.08529 0.0
H1747 H 0.32191 0.0237 0.11712 0.0
H1748 H 0.33376 0.95275 0.14566 0.0
H1749 H 0.33426 0.9923 0.13748 0.0
H1750 H 0.36359 0.97858 0.07325 0.0
H1751 H 0.36377 0.93883 0.08184 0.0
C1752 C 0.37751 0.04413 0.09139 0.0
C1753 C 0.36291 0.05973 0.10094 0.0
C1754 C 0.37253 0.02132 0.09168 0.0
C1755 C 0.35274 0.01337 0.10145 0.0
C1756 C 0.33751 0.0291 0.10982 0.0
C1757 C 0.34253 0.05198 0.10958 0.0
C1758 C 0.33996 0.95806 0.12959 0.0
C1759 C 0.34898 0.94253 0.11454 0.0
C1760 C 0.34012 0.98087 0.12482 0.0
C1761 C 0.34923 0.98885 0.10478 0.0
C1762 C 0.35686 0.97315 0.08906 0.0
C1763 C 0.35676 0.95028 0.09388 0.0
H1764 H 0.45338 0.83654 0.60801 0.0
H1765 H 0.4738 0.90319 0.59019 0.0
H1766 H 0.49243 0.8246 0.60658 0.0
H1767 H 0.51235 0.89157 0.58904 0.0
H1768 H 0.5644 0.82847 0.63894 0.0
H1769 H 0.52494 0.83159 0.63023 0.0
H1770 H 0.5411 0.87006 0.57177 0.0
H1771 H 0.58062 0.86743 0.5808 0.0
C1772 C 0.4661 0.84847 0.60326 0.0
C1773 C 0.46053 0.87083 0.59935 0.0
C1774 C 0.48849 0.84172 0.60264 0.0
C1775 C 0.50565 0.85713 0.59781 0.0
C1776 C 0.49972 0.87911 0.59255 0.0
C1777 C 0.47753 0.88585 0.59337 0.0
C1778 C 0.55961 0.8372 0.62395 0.0
C1779 C 0.57575 0.84802 0.61079 0.0
C1780 C 0.5369 0.83888 0.61887 0.0
C1781 C 0.52972 0.85138 0.60047 0.0
C1782 C 0.54598 0.86068 0.58633 0.0
C1783 C 0.56869 0.85905 0.59144 0.0
H1784 H 0.6685 0.0791 0.12615 0.0
H1785 H 0.6179 0.07216 0.07533 0.0
H1786 H 0.67576 0.03909 0.1238 0.0
H1787 H 0.62453 0.03243 0.0735 0.0
H1788 H 0.64468 0.96216 0.0652 0.0
H1789 H 0.64765 1.00263 0.06349 0.0
H1790 H 0.65823 0.00518 0.13466 0.0
H1791 H 0.6561 0.96468 0.13617 0.0
C1792 C 0.65914 0.06914 0.11426 0.0
C1793 C 0.64253 0.07892 0.10101 0.0
C1794 C 0.66315 0.04611 0.11305 0.0
C1795 C 0.65066 0.0323 0.09857 0.0
C1796 C 0.63478 0.04237 0.08465 0.0
C1797 C 0.63083 0.0653 0.08581 0.0
C1798 C 0.64812 0.97132 0.08042 0.0
C1799 C 0.64998 0.96011 0.10084 0.0
C1800 C 0.64963 0.99462 0.07949 0.0
C1801 C 0.65277 0.0074 0.099 0.0
C1802 C 0.65596 0.99605 0.11923 0.0
C1803 C 0.65468 0.97272 0.12012 0.0
H1804 H 0.56359 0.18371 0.64364 0.0
H1805 H 0.57354 0.13957 0.58758 0.0
H1806 H 0.5234 0.18109 0.63829 0.0
H1807 H 0.53329 0.13716 0.58212 0.0
H1808 H 0.46702 0.10736 0.61052 0.0
H1809 H 0.50584 0.11771 0.60547 0.0
H1810 H 0.4892 0.18698 0.61512 0.0
H1811 H 0.44985 0.17643 0.62016 0.0
C1812 C 0.55726 0.17393 0.62978 0.0
C1813 C 0.57187 0.16158 0.61627 0.0
C1814 C 0.53415 0.17252 0.62665 0.0
C1815 C 0.52506 0.15864 0.60999 0.0
C1816 C 0.53973 0.14773 0.59535 0.0
C1817 C 0.56285 0.14923 0.5984 0.0
C1818 C 0.47152 0.12486 0.61117 0.0
C1819 C 0.45538 0.14106 0.61586 0.0
C1820 C 0.49382 0.13083 0.60809 0.0
C1821 C 0.50073 0.15319 0.60989 0.0
C1822 C 0.48444 0.16959 0.61372 0.0
C1823 C 0.46191 0.1636 0.61646 0.0
H1824 H 0.36104 0.06376 0.92004 0.0
H1825 H 0.31133 0.06497 0.86797 0.0
H1826 H 0.35989 0.02303 0.91965 0.0
H1827 H 0.31005 0.02439 0.8678 0.0
H1828 H 0.34921 0.96106 0.8461 0.0
H1829 H 0.33919 0.99949 0.8535 0.0
H1830 H 0.33899 0.98629 0.92414 0.0
H1831 H 0.34897 0.9472 0.91651 0.0
C1832 C 0.34935 0.0554 0.90901 0.0
C1833 C 0.33653 0.0677 0.89377 0.0
C1834 C 0.34866 0.03201 0.90883 0.0
C1835 C 0.33516 0.02042 0.89342 0.0
C1836 C 0.32094 0.03278 0.87959 0.0
C1837 C 0.32162 0.05609 0.87976 0.0
C1838 C 0.34651 0.96618 0.86321 0.0
C1839 C 0.34981 0.95113 0.88071 0.0
C1840 C 0.34065 0.98824 0.86747 0.0
C1841 C 0.33824 0.99605 0.88943 0.0
C1842 C 0.34076 0.98079 0.90704 0.0
C1843 C 0.34627 0.95841 0.9027 0.0
H1844 H 0.55472 0.87026 0.44001 0.0
H1845 H 0.56167 0.83433 0.37804 0.0
H1846 H 0.51486 0.86227 0.43997 0.0
H1847 H 0.5218 0.82738 0.37721 0.0
H1848 H 0.44983 0.81029 0.38131 0.0
H1849 H 0.4896 0.81039 0.38955 0.0
H1850 H 0.48284 0.87417 0.4226 0.0
H1851 H 0.44305 0.8733 0.41545 0.0
C1852 C 0.54775 0.86046 0.42647 0.0
C1853 C 0.56141 0.85298 0.40902 0.0
C1854 C 0.52478 0.85606 0.42629 0.0
C1855 C 0.51473 0.84442 0.40841 0.0
C1856 C 0.52869 0.83611 0.39148 0.0
C1857 C 0.5517 0.84017 0.39188 0.0
C1858 C 0.45681 0.82408 0.39079 0.0
C1859 C 0.44322 0.84181 0.39764 0.0
C1860 C 0.47973 0.82429 0.39531 0.0
C1861 C 0.48982 0.84248 0.40646 0.0
C1862 C 0.47592 0.85968 0.41424 0.0
C1863 C 0.45295 0.85925 0.41006 0.0
H1864 H 0.66899 0.04491 0.89005 0.0
H1865 H 0.61145 0.02818 0.92981 0.0
H1866 H 0.67828 0.00544 0.88729 0.0
H1867 H 0.62002 0.98898 0.92625 0.0
H1868 H 0.6651 0.93521 0.85767 0.0
H1869 H 0.66494 0.97437 0.86764 0.0
H1870 H 0.64149 0.9576 0.93353 0.0
H1871 H 0.64067 0.91826 0.92307 0.0
C1872 C 0.65849 0.03287 0.89846 0.0
C1873 C 0.63934 0.0398 0.90996 0.0
C1874 C 0.66368 0.01015 0.8967 0.0
C1875 C 0.64975 0.99375 0.90623 0.0
C1876 C 0.63136 1.0009 0.91883 0.0
C1877 C 0.62632 0.02355 0.92076 0.0
C1878 C 0.66024 0.93977 0.87443 0.0
C1879 C 0.65264 0.92349 0.88946 0.0
C1880 C 0.66028 0.96238 0.88025 0.0
C1881 C 0.65295 0.96943 0.90137 0.0
C1882 C 0.64675 0.95297 0.91692 0.0
C1883 C 0.64648 0.93032 0.91101 0.0
H1884 H 0.42971 0.16619 0.38408 0.0
H1885 H 0.43953 0.11948 0.43766 0.0
H1886 H 0.46996 0.17096 0.38082 0.0
H1887 H 0.47976 0.12398 0.43413 0.0
H1888 H 0.55336 0.14236 0.4278 0.0
H1889 H 0.51371 0.14744 0.43656 0.0
H1890 H 0.49817 0.14619 0.36631 0.0
H1891 H 0.53727 0.14134 0.35771 0.0
C1892 C 0.44039 0.15726 0.39547 0.0
C1893 C 0.43128 0.14225 0.41097 0.0
C1894 C 0.46353 0.15988 0.3935 0.0
C1895 C 0.4782 0.1476 0.40699 0.0
C1896 C 0.46905 0.13379 0.42353 0.0
C1897 C 0.4459 0.13113 0.42547 0.0
C1898 C 0.54147 0.14362 0.41429 0.0
C1899 C 0.54849 0.14132 0.39207 0.0
C1900 C 0.51874 0.14637 0.41928 0.0
C1901 C 0.50265 0.14722 0.40215 0.0
C1902 C 0.50997 0.14593 0.37997 0.0
C1903 C 0.53248 0.14295 0.37503 0.0
H1904 H 0.10733 0.34419 0.94823 0.0
H1905 H 0.08356 0.41099 0.95948 0.0
H1906 H 0.10137 0.3357 0.98789 0.0
H1907 H 0.07757 0.40264 0.99852 0.0
H1908 H 0.05586 0.38135 0.06503 0.0
H1909 H 0.05508 0.38019 0.02448 0.0
H1910 H 0.11956 0.34882 0.02398 0.0
H1911 H 0.12032 0.34979 0.06469 0.0
C1912 C 0.10038 0.35685 0.95903 0.0
C1913 C 0.09593 0.37826 0.95075 0.0
C1914 C 0.09714 0.35208 0.98173 0.0
C1915 C 0.08895 0.36848 0.99641 0.0
C1916 C 0.08359 0.3895 0.98774 0.0
C1917 C 0.08716 0.39434 0.96531 0.0
C1918 C 0.06968 0.37372 0.05636 0.0
C1919 C 0.08829 0.36595 0.0682 0.0
C1920 C 0.06926 0.37315 0.03306 0.0
C1921 C 0.08742 0.36475 0.02094 0.0
C1922 C 0.10526 0.35534 0.03278 0.0
C1923 C 0.1057 0.35594 0.05616 0.0
H1924 H 0.1304 0.68477 0.9145 0.0
H1925 H 0.07785 0.63729 0.9281 0.0
H1926 H 0.13533 0.69098 0.95438 0.0
H1927 H 0.08331 0.6428 0.96781 0.0
H1928 H 0.16231 0.66546 0.02163 0.0
H1929 H 0.15165 0.67016 0.98308 0.0
H1930 H 0.08226 0.66403 1.00129 0.0
H1931 H 0.09317 0.65851 0.0402 0.0
C1932 C 0.11962 0.67593 0.92595 0.0
C1933 C 0.1039 0.66033 0.91798 0.0
C1934 C 0.12259 0.67932 0.9489 0.0
C1935 C 0.11004 0.66708 0.96453 0.0
C1936 C 0.09324 0.65268 0.95646 0.0
C1937 C 0.09017 0.64942 0.93354 0.0
C1938 C 0.14472 0.66544 0.01757 0.0
C1939 C 0.12863 0.66135 0.03408 0.0
C1940 C 0.13855 0.66835 0.99532 0.0
C1941 C 0.11604 0.66736 0.9888 0.0
C1942 C 0.09979 0.66454 0.00554 0.0
C1943 C 0.10601 0.66159 0.02793 0.0
H1944 H 0.84429 0.61298 0.44193 0.0
H1945 H 0.91075 0.59313 0.46041 0.0
H1946 H 0.83288 0.61057 0.48115 0.0
H1947 H 0.89963 0.59095 0.4991 0.0
H1948 H 0.87629 0.58055 0.56733 0.0
H1949 H 0.87778 0.57278 0.52745 0.0
H1950 H 0.84118 0.63305 0.51443 0.0
H1951 H 0.83924 0.64056 0.55424 0.0
C1952 C 0.85629 0.60763 0.45425 0.0
C1953 C 0.87845 0.60341 0.44809 0.0
C1954 C 0.84983 0.60641 0.47673 0.0
C1955 C 0.86534 0.60063 0.49338 0.0
C1956 C 0.88711 0.59516 0.48685 0.0
C1957 C 0.89356 0.59661 0.46459 0.0
C1958 C 0.868 0.59183 0.55603 0.0
C1959 C 0.85794 0.61137 0.56405 0.0
C1960 C 0.869 0.58746 0.53311 0.0
C1961 C 0.85997 0.6025 0.51763 0.0
C1962 C 0.84826 0.62103 0.52578 0.0
C1963 C 0.84726 0.62541 0.5487 0.0
H1964 H 0.86886 0.30721 0.95468 0.0
H1965 H 0.90238 0.37102 0.95712 0.0
H1966 H 0.87192 0.30423 0.99501 0.0
H1967 H 0.90456 0.36861 0.99754 0.0
H1968 H 0.91178 0.35755 0.07129 0.0
H1969 H 0.9177 0.35327 0.03122 0.0
H1970 H 0.85379 0.32014 0.02532 0.0
H1971 H 0.8484 0.32361 0.06509 0.0
C1972 C 0.87714 0.3205 0.96381 0.0
C1973 C 0.8852 0.33942 0.95263 0.0
C1974 C 0.87871 0.31892 0.98703 0.0
C1975 C 0.88806 0.33639 0.99982 0.0
C1976 C 0.89737 0.35471 0.98844 0.0
C1977 C 0.89607 0.35614 0.96515 0.0
C1978 C 0.89925 0.3489 0.06147 0.0
C1979 C 0.87957 0.34101 0.0715 0.0
C1980 C 0.90253 0.34665 0.0384 0.0
C1981 C 0.88618 0.33649 0.02475 0.0
C1982 C 0.86699 0.32775 0.03508 0.0
C1983 C 0.86379 0.3299 0.05805 0.0
H1984 H 0.13727 0.42624 0.57033 0.0
H1985 H 0.14935 0.35745 0.55309 0.0
H1986 H 0.13861 0.43608 0.53089 0.0
H1987 H 0.14961 0.36692 0.51401 0.0
H1988 H 0.1568 0.38724 0.44363 0.0
H1989 H 0.16572 0.38332 0.48305 0.0
H1990 H 0.11621 0.43277 0.49924 0.0
H1991 H 0.10823 0.43743 0.45996 0.0
C1992 C 0.14045 0.41326 0.55818 0.0
C1993 C 0.14305 0.39103 0.56498 0.0
C1994 C 0.141 0.41884 0.53548 0.0
C1995 C 0.14398 0.40231 0.51897 0.0
C1996 C 0.1476 0.38028 0.52599 0.0
C1997 C 0.14727 0.37477 0.54859 0.0
C1998 C 0.14819 0.39762 0.45559 0.0
C1999 C 0.13168 0.41253 0.44854 0.0
C2000 C 0.15313 0.39522 0.4783 0.0
C2001 C 0.14145 0.40742 0.49463 0.0
C2002 C 0.1258 0.4232 0.48738 0.0
C2003 C 0.1211 0.42581 0.46469 0.0
H2004 H 0.91975 0.63615 0.94746 0.0
H2005 H 0.86649 0.68419 0.94783 0.0
H2006 H 0.92091 0.63729 0.98812 0.0
H2007 H 0.86789 0.68552 0.98836 0.0
H2008 H 0.84994 0.64662 0.05285 0.0
H2009 H 0.85537 0.65654 0.01412 0.0
H2010 H 0.92661 0.65818 0.02435 0.0
H2011 H 0.92099 0.64819 0.06371 0.0
C2012 C 0.90874 0.64745 0.95614 0.0
C2013 C 0.89276 0.6598 0.94434 0.0
C2014 C 0.90946 0.64815 0.9795 0.0
C2015 C 0.89424 0.66122 0.99154 0.0
C2016 C 0.87957 0.67496 0.97962 0.0
C2017 C 0.87882 0.67424 0.95634 0.0
C2018 C 0.86677 0.64958 0.04701 0.0
C2019 C 0.88503 0.64663 0.06131 0.0
C2020 C 0.86989 0.6554 0.02477 0.0
C2021 C 0.89143 0.65819 0.01605 0.0
C2022 C 0.9098 0.65608 0.03055 0.0
C2023 C 0.90661 0.65057 0.05309 0.0
H2024 H 0.80758 0.36129 0.46426 0.0
H2025 H 0.84668 0.42047 0.45119 0.0
H2026 H 0.80936 0.36911 0.50404 0.0
H2027 H 0.84808 0.42851 0.49104 0.0
H2028 H 0.81295 0.38927 0.57651 0.0
H2029 H 0.80161 0.39231 0.53723 0.0
H2030 H 0.86926 0.40958 0.51955 0.0
H2031 H 0.88031 0.40661 0.55828 0.0
C2032 C 0.81603 0.37634 0.46979 0.0
C2033 C 0.82731 0.39003 0.45446 0.0
C2034 C 0.81693 0.3809 0.49269 0.0
C2035 C 0.82917 0.39926 0.50085 0.0
C2036 C 0.83884 0.41399 0.48537 0.0
C2037 C 0.83791 0.40945 0.46246 0.0
C2038 C 0.82515 0.39435 0.56424 0.0
C2039 C 0.84752 0.39763 0.57043 0.0
C2040 C 0.81874 0.3959 0.54173 0.0
C2041 C 0.83453 0.40112 0.52513 0.0
C2042 C 0.85654 0.40581 0.53176 0.0
C2043 C 0.86294 0.40397 0.55402 0.0
H2044 H 0.16221 0.59074 0.53985 0.0
H2045 H 0.16784 0.65958 0.51992 0.0
H2046 H 0.16694 0.57911 0.50098 0.0
H2047 H 0.17192 0.64816 0.48142 0.0
H2048 H 0.18657 0.62511 0.41308 0.0
H2049 H 0.19301 0.63105 0.45282 0.0
H2050 H 0.14464 0.5797 0.46787 0.0
H2051 H 0.13876 0.57331 0.42831 0.0
C2052 C 0.16484 0.60337 0.52728 0.0
C2053 C 0.16447 0.62611 0.53305 0.0
C2054 C 0.16736 0.59673 0.50494 0.0
C2055 C 0.16966 0.61266 0.48787 0.0
C2056 C 0.17049 0.63532 0.49395 0.0
C2057 C 0.16795 0.64191 0.51615 0.0
C2058 C 0.17771 0.61471 0.42485 0.0
C2059 C 0.16194 0.5989 0.41739 0.0
C2060 C 0.18125 0.61825 0.44771 0.0
C2061 C 0.16907 0.60616 0.46373 0.0
C2062 C 0.15446 0.58929 0.45619 0.0
C2063 C 0.15099 0.58569 0.43337 0.0
H2064 H 0.29535 0.15281 0.38584 0.0
H2065 H 0.29624 0.09146 0.42313 0.0
H2066 H 0.25479 0.14978 0.38246 0.0
H2067 H 0.2563 0.08788 0.41895 0.0
H2068 H 0.18236 0.09664 0.42671 0.0
H2069 H 0.22224 0.10145 0.43052 0.0
H2070 H 0.22533 0.12972 0.36452 0.0
H2071 H 0.18485 0.12578 0.36113 0.0
C2072 C 0.28692 0.13878 0.39345 0.0
C2073 C 0.29915 0.12248 0.40489 0.0
C2074 C 0.26365 0.13686 0.39127 0.0
C2075 C 0.25205 0.11852 0.40036 0.0
C2076 C 0.26438 0.10247 0.41203 0.0
C2077 C 0.28747 0.10449 0.41438 0.0
C2078 C 0.19147 0.1037 0.41286 0.0
C2079 C 0.18028 0.11068 0.39354 0.0
C2080 C 0.21452 0.10642 0.41503 0.0
C2081 C 0.22728 0.11594 0.39783 0.0
C2082 C 0.21613 0.12264 0.3783 0.0
C2083 C 0.19291 0.12012 0.37621 0.0
H2084 H 0.40156 0.70384 0.86765 0.0
H2085 H 0.3347 0.69838 0.84141 0.0
H2086 H 0.39743 0.74427 0.87039 0.0
H2087 H 0.33035 0.73843 0.84473 0.0
H2088 H 0.33685 0.81295 0.83286 0.0
H2089 H 0.34159 0.77295 0.82963 0.0
H2090 H 0.37841 0.77273 0.89152 0.0
H2091 H 0.3742 0.81317 0.8944 0.0
C2092 C 0.38607 0.71124 0.86225 0.0
C2093 C 0.36852 0.69777 0.85419 0.0
C2094 C 0.38358 0.73444 0.8641 0.0
C2095 C 0.36348 0.74476 0.85793 0.0
C2096 C 0.34617 0.73126 0.84941 0.0
C2097 C 0.34867 0.70816 0.84753 0.0
C2098 C 0.34579 0.80442 0.84594 0.0
C2099 C 0.35508 0.8164 0.86394 0.0
C2100 C 0.34848 0.78135 0.84411 0.0
C2101 C 0.36046 0.76944 0.86026 0.0
C2102 C 0.36938 0.78133 0.87855 0.0
C2103 C 0.36673 0.80452 0.88037 0.0
H2104 H 0.70209 0.90096 0.41159 0.0
H2105 H 0.69386 0.8376 0.37802 0.0
H2106 H 0.74207 0.89961 0.40503 0.0
H2107 H 0.73408 0.83629 0.37151 0.0
H2108 H 0.80925 0.83156 0.39019 0.0
H2109 H 0.76891 0.83261 0.39361 0.0
H2110 H 0.76935 0.90155 0.3734 0.0
H2111 H 0.81011 0.9005 0.36993 0.0
C2112 C 0.70879 0.88662 0.40295 0.0
C2113 C 0.69466 0.86931 0.39544 0.0
C2114 C 0.73174 0.88601 0.39896 0.0
C2115 C 0.74129 0.86797 0.38757 0.0
C2116 C 0.72727 0.85042 0.3804 0.0
C2117 C 0.70421 0.85114 0.38418 0.0
C2118 C 0.80079 0.84694 0.38627 0.0
C2119 C 0.81295 0.866 0.37988 0.0
C2120 C 0.7776 0.84747 0.38812 0.0
C2121 C 0.76587 0.86716 0.38389 0.0
C2122 C 0.77793 0.88616 0.37699 0.0
C2123 C 0.80124 0.88554 0.37484 0.0
H2124 H 0.67037 0.17882 0.8617 0.0
H2125 H 0.60662 0.17202 0.89413 0.0
H2126 H 0.6634 0.21825 0.85576 0.0
H2127 H 0.59902 0.2112 0.88724 0.0
H2128 H 0.60001 0.28757 0.88789 0.0
H2129 H 0.60635 0.24837 0.89548 0.0
H2130 H 0.64294 0.24246 0.83381 0.0
H2131 H 0.63758 0.28201 0.82692 0.0
C2132 C 0.65489 0.1858 0.86768 0.0
C2133 C 0.63913 0.17224 0.87847 0.0
C2134 C 0.6507 0.20842 0.86399 0.0
C2135 C 0.63042 0.2181 0.87063 0.0
C2136 C 0.61492 0.2046 0.88203 0.0
C2137 C 0.61929 0.18203 0.88603 0.0
C2138 C 0.6092 0.27786 0.8758 0.0
C2139 C 0.61838 0.28805 0.85682 0.0
C2140 C 0.61283 0.25524 0.88015 0.0
C2141 C 0.62549 0.24204 0.86548 0.0
C2142 C 0.6337 0.25207 0.84592 0.0
C2143 C 0.63035 0.27476 0.84176 0.0
H2144 H 0.32132 0.83472 0.64566 0.0
H2145 H 0.32414 0.89541 0.60754 0.0
H2146 H 0.28155 0.83986 0.65134 0.0
H2147 H 0.28475 0.90147 0.61432 0.0
H2148 H 0.20877 0.89762 0.61517 0.0
H2149 H 0.24818 0.89246 0.60761 0.0
H2150 H 0.2558 0.85977 0.67122 0.0
H2151 H 0.21605 0.86373 0.67794 0.0
C2152 C 0.31339 0.84914 0.63841 0.0
C2153 C 0.32592 0.86454 0.62602 0.0
C2154 C 0.29056 0.85233 0.64194 0.0
C2155 C 0.27966 0.87133 0.63366 0.0
C2156 C 0.29221 0.88647 0.62079 0.0
C2157 C 0.31495 0.88301 0.61687 0.0
C2158 C 0.21895 0.88961 0.62767 0.0
C2159 C 0.20924 0.8811 0.64718 0.0
C2160 C 0.24168 0.88662 0.62335 0.0
C2161 C 0.25548 0.8754 0.63862 0.0
C2162 C 0.24582 0.86786 0.65864 0.0
C2163 C 0.223 0.87043 0.66272 0.0
H2164 H 0.65798 0.71423 0.10084 0.0
H2165 H 0.60819 0.71047 0.15254 0.0
H2166 H 0.65573 0.75459 0.10121 0.0
H2167 H 0.6063 0.7512 0.1533 0.0
H2168 H 0.58905 0.82112 0.12977 0.0
H2169 H 0.59292 0.78099 0.13061 0.0
H2170 H 0.66403 0.78805 0.12196 0.0
H2171 H 0.66005 0.82867 0.12067 0.0
C2172 C 0.64663 0.72201 0.11246 0.0
C2173 C 0.63314 0.709 0.1266 0.0
C2174 C 0.64549 0.74528 0.11277 0.0
C2175 C 0.63084 0.7563 0.12724 0.0
C2176 C 0.61757 0.74331 0.14167 0.0
C2177 C 0.6187 0.71994 0.14135 0.0
C2178 C 0.60558 0.81423 0.12798 0.0
C2179 C 0.62427 0.82824 0.12514 0.0
C2180 C 0.6078 0.79109 0.12869 0.0
C2181 C 0.6288 0.78114 0.12663 0.0
C2182 C 0.64755 0.7951 0.12348 0.0
C2183 C 0.64531 0.8184 0.12273 0.0
H2184 H 0.81959 0.10963 0.62441 0.0
H2185 H 0.81203 0.14277 0.68783 0.0
H2186 H 0.78011 0.11489 0.61667 0.0
H2187 H 0.77238 0.14707 0.68073 0.0
H2188 H 0.70843 0.17461 0.65396 0.0
H2189 H 0.74797 0.1683 0.65987 0.0
H2190 H 0.74287 0.106 0.62372 0.0
H2191 H 0.70347 0.113 0.61692 0.0
C2192 C 0.80938 0.11752 0.63698 0.0
C2193 C 0.81903 0.12582 0.65674 0.0
C2194 C 0.78663 0.12058 0.63254 0.0
C2195 C 0.77285 0.13178 0.64786 0.0
C2196 C 0.78241 0.13901 0.66813 0.0
C2197 C 0.80517 0.13626 0.6724 0.0
C2198 C 0.71583 0.15972 0.64699 0.0
C2199 C 0.70275 0.14437 0.63492 0.0
C2200 C 0.73853 0.1559 0.65064 0.0
C2201 C 0.74881 0.13637 0.64269 0.0
C2202 C 0.73579 0.12131 0.63001 0.0
C2203 C 0.7131 0.12533 0.62607 0.0
H2204 H 0.40649 0.20011 0.09545 0.0
H2205 H 0.34068 0.1943 0.12393 0.0
H2206 H 0.40573 0.2403 0.10118 0.0
H2207 H 0.33993 0.23475 0.12952 0.0
H2208 H 0.33882 0.30928 0.10724 0.0
H2209 H 0.33907 0.2688 0.10549 0.0
H2210 H 0.4056 0.26855 0.13289 0.0
H2211 H 0.4053 0.30952 0.13479 0.0
C2212 C 0.39174 0.20739 0.10275 0.0
C2213 C 0.37355 0.1939 0.10908 0.0
C2214 C 0.39146 0.23045 0.1063 0.0
C2215 C 0.37289 0.24073 0.11601 0.0
C2216 C 0.35451 0.22733 0.12198 0.0
C2217 C 0.35489 0.20417 0.1187 0.0
C2218 C 0.35347 0.30064 0.11314 0.0
C2219 C 0.37211 0.31264 0.12106 0.0
C2220 C 0.35353 0.27738 0.11223 0.0
C2221 C 0.37236 0.26542 0.11893 0.0
C2222 C 0.39089 0.27734 0.12742 0.0
C2223 C 0.39068 0.30074 0.12868 0.0
H2224 H 0.12299 0.3649 0.19975 0.0
H2225 H 0.0761 0.41914 0.20108 0.0
H2226 H 0.12372 0.36478 0.24061 0.0
H2227 H 0.07675 0.41889 0.24167 0.0
H2228 H 0.06403 0.39256 0.3125 0.0
H2229 H 0.06458 0.39295 0.27202 0.0
H2230 H 0.13642 0.39091 0.27293 0.0
H2231 H 0.13591 0.39066 0.31393 0.0
C2232 C 0.11263 0.37659 0.20872 0.0
C2233 C 0.09937 0.39194 0.19712 0.0
C2234 C 0.11328 0.3767 0.23211 0.0
C2235 C 0.10039 0.3919 0.24438 0.0
C2236 C 0.0868 0.4069 0.23274 0.0
C2237 C 0.08642 0.40702 0.20945 0.0
C2238 C 0.08001 0.39235 0.30415 0.0
C2239 C 0.09994 0.39163 0.31648 0.0
C2240 C 0.0803 0.39263 0.2809 0.0
C2241 C 0.10052 0.3919 0.26923 0.0
C2242 C 0.12056 0.39131 0.28148 0.0
C2243 C 0.12029 0.39138 0.30491 0.0
H2244 H 0.13692 0.60304 0.6683 0.0
H2245 H 0.17324 0.66503 0.6756 0.0
H2246 H 0.1306 0.60233 0.70848 0.0
H2247 H 0.16704 0.66421 0.71568 0.0
H2248 H 0.13209 0.66703 0.78406 0.0
H2249 H 0.13693 0.66805 0.74347 0.0
H2250 H 0.15093 0.59757 0.7432 0.0
H2251 H 0.14594 0.59651 0.78326 0.0
C2252 C 0.14381 0.61637 0.67846 0.0
C2253 C 0.15571 0.63401 0.66862 0.0
C2254 C 0.14014 0.616 0.70153 0.0
C2255 C 0.14817 0.63331 0.71538 0.0
C2256 C 0.1603 0.65079 0.70555 0.0
C2257 C 0.16408 0.6511 0.68253 0.0
C2258 C 0.13602 0.65177 0.77527 0.0
C2259 C 0.13866 0.63173 0.787 0.0
C2260 C 0.13896 0.65235 0.75203 0.0
C2261 C 0.14437 0.63287 0.74 0.0
C2262 C 0.14655 0.61284 0.75178 0.0
C2263 C 0.14381 0.61229 0.77487 0.0
H2264 H 0.84705 0.66031 0.19872 0.0
H2265 H 0.90823 0.62286 0.1987 0.0
H2266 H 0.84399 0.65569 0.23862 0.0
H2267 H 0.90569 0.619 0.23917 0.0
H2268 H 0.88321 0.59731 0.30887 0.0
H2269 H 0.88591 0.60082 0.26839 0.0
H2270 H 0.8584 0.66706 0.27276 0.0
H2271 H 0.85486 0.66316 0.31272 0.0
C2272 C 0.86014 0.65142 0.20729 0.0
C2273 C 0.87797 0.64206 0.19539 0.0
C2274 C 0.85841 0.64881 0.23034 0.0
C2275 C 0.87458 0.63697 0.24237 0.0
C2276 C 0.8927 0.62793 0.23053 0.0
C2277 C 0.89433 0.63038 0.20732 0.0
C2278 C 0.87741 0.61246 0.3011 0.0
C2279 C 0.86864 0.62986 0.31412 0.0
C2280 C 0.87923 0.61462 0.27788 0.0
C2281 C 0.87245 0.63428 0.2671 0.0
C2282 C 0.86346 0.6515 0.28022 0.0
C2283 C 0.86146 0.64927 0.30329 0.0
H2284 H 0.88193 0.39147 0.82296 0.0
H2285 H 0.85881 0.3236 0.8156 0.0
H2286 H 0.87466 0.39807 0.78361 0.0
H2287 H 0.85258 0.32971 0.77606 0.0
H2288 H 0.82078 0.35102 0.71206 0.0
H2289 H 0.82818 0.34671 0.75162 0.0
H2290 H 0.88398 0.3923 0.7464 0.0
H2291 H 0.87571 0.39746 0.70703 0.0
C2292 C 0.87582 0.37777 0.81281 0.0
C2293 C 0.87094 0.35699 0.82249 0.0
C2294 C 0.87161 0.38155 0.79014 0.0
C2295 C 0.86266 0.36456 0.77643 0.0
C2296 C 0.8588 0.34349 0.78602 0.0
C2297 C 0.86268 0.33983 0.80873 0.0
C2298 C 0.83442 0.36041 0.71943 0.0
C2299 C 0.84764 0.37456 0.70628 0.0
C2300 C 0.83891 0.35769 0.74215 0.0
C2301 C 0.85704 0.36876 0.7524 0.0
C2302 C 0.8698 0.38355 0.73934 0.0
C2303 C 0.86506 0.38652 0.71664 0.0
H2304 H 0.70652 0.88344 0.59796 0.0
H2305 H 0.71798 0.84689 0.65862 0.0
H2306 H 0.74628 0.89072 0.59477 0.0
H2307 H 0.75794 0.85327 0.65497 0.0
H2308 H 0.82649 0.88681 0.65474 0.0
H2309 H 0.78632 0.8805 0.65832 0.0
H2310 H 0.78069 0.87546 0.58669 0.0
H2311 H 0.82015 0.88276 0.58317 0.0
C2312 C 0.71758 0.87651 0.61036 0.0
C2313 C 0.70901 0.86452 0.6285 0.0
C2314 C 0.7405 0.88068 0.60855 0.0
C2315 C 0.75555 0.87271 0.62467 0.0
C2316 C 0.74696 0.86014 0.64248 0.0
C2317 C 0.72401 0.85621 0.64442 0.0
C2318 C 0.81656 0.88462 0.6398 0.0
C2319 C 0.82661 0.88544 0.6187 0.0
C2320 C 0.79353 0.88075 0.64182 0.0
C2321 C 0.78005 0.87738 0.62278 0.0
C2322 C 0.79023 0.87838 0.60175 0.0
C2323 C 0.81306 0.88248 0.59974 0.0
H2324 H 0.65891 0.21914 0.16726 0.0
H2325 H 0.62303 0.21076 0.10534 0.0
H2326 H 0.64866 0.25821 0.16836 0.0
H2327 H 0.61333 0.25022 0.10605 0.0
H2328 H 0.57808 0.31406 0.12643 0.0
H2329 H 0.58942 0.27517 0.12573 0.0
H2330 H 0.65368 0.29399 0.15262 0.0
H2331 H 0.64209 0.3328 0.15389 0.0
C2332 C 0.64917 0.22571 0.1536 0.0
C2333 C 0.64178 0.21167 0.13622 0.0
C2334 C 0.64332 0.24825 0.15422 0.0
C2335 C 0.62993 0.2575 0.13743 0.0
C2336 C 0.62325 0.24365 0.11955 0.0
C2337 C 0.62908 0.22103 0.11896 0.0
C2338 C 0.59452 0.30989 0.13252 0.0
C2339 C 0.6091 0.32666 0.1403 0.0
C2340 C 0.60116 0.28755 0.13183 0.0
C2341 C 0.62262 0.28131 0.13882 0.0
C2342 C 0.63697 0.29802 0.14724 0.0
C2343 C 0.63029 0.32036 0.14801 0.0
H2344 H 0.20589 0.12007 0.66228 0.0
H2345 H 0.20096 0.1592 0.60227 0.0
H2346 H 0.24677 0.12018 0.6585 0.0
H2347 H 0.24116 0.15916 0.59857 0.0
H2348 H 0.31025 0.12967 0.58449 0.0
H2349 H 0.27004 0.13017 0.59016 0.0
H2350 H 0.27999 0.14874 0.65898 0.0
H2351 H 0.32046 0.14842 0.65329 0.0
C2352 C 0.21346 0.12862 0.64833 0.0
C2353 C 0.2001 0.13959 0.6326 0.0
C2354 C 0.23682 0.12881 0.64624 0.0
C2355 C 0.24718 0.13964 0.62818 0.0
C2356 C 0.23375 0.1505 0.61254 0.0
C2357 C 0.21062 0.15057 0.61477 0.0
C2358 C 0.30392 0.13413 0.60078 0.0
C2359 C 0.3186 0.13921 0.61836 0.0
C2360 C 0.28085 0.13437 0.60404 0.0
C2361 C 0.27182 0.13938 0.62506 0.0
C2362 C 0.28645 0.14461 0.64267 0.0
C2363 C 0.30961 0.14471 0.63931 0.0
H2364 H 0.41287 0.80424 0.08343 0.0
H2365 H 0.36549 0.81029 0.13706 0.0
H2366 H 0.41752 0.76496 0.0919 0.0
H2367 H 0.3707 0.77103 0.14613 0.0
H2368 H 0.37164 0.69388 0.14273 0.0
H2369 H 0.36506 0.73324 0.13563 0.0
H2370 H 0.43447 0.74199 0.11862 0.0
H2371 H 0.44081 0.7025 0.12493 0.0
C2372 C 0.40331 0.79713 0.09697 0.0
C2373 C 0.38879 0.81047 0.10952 0.0
C2374 C 0.4062 0.7746 0.10205 0.0
C2375 C 0.39485 0.76472 0.12003 0.0
C2376 C 0.37968 0.7779 0.1321 0.0
C2377 C 0.37663 0.80046 0.12686 0.0
C2378 C 0.3856 0.70427 0.13784 0.0
C2379 C 0.40677 0.69492 0.13433 0.0
C2380 C 0.38181 0.72693 0.13372 0.0
C2381 C 0.39911 0.7409 0.12613 0.0
C2382 C 0.42054 0.73173 0.1238 0.0
C2383 C 0.42428 0.70906 0.12773 0.0
H2384 H 0.69034 0.10574 0.43928 0.0
H2385 H 0.68552 0.14327 0.37834 0.0
H2386 H 0.73019 0.10144 0.43341 0.0
H2387 H 0.72516 0.13813 0.37184 0.0
H2388 H 0.80176 0.13919 0.37552 0.0
H2389 H 0.76222 0.14622 0.38137 0.0
H2390 H 0.75499 0.08128 0.4115 0.0
H2391 H 0.79463 0.07481 0.40651 0.0
C2392 C 0.69782 0.11324 0.42469 0.0
C2393 C 0.68464 0.12486 0.40932 0.0
C2394 C 0.7207 0.11051 0.42112 0.0
C2395 C 0.73107 0.11902 0.40187 0.0
C2396 C 0.71799 0.13142 0.38694 0.0
C2397 C 0.69513 0.1344 0.39068 0.0
C2398 C 0.79164 0.1263 0.3831 0.0
C2399 C 0.80141 0.10643 0.39056 0.0
C2400 C 0.76888 0.13033 0.38651 0.0
C2401 C 0.75522 0.1145 0.39726 0.0
C2402 C 0.76493 0.09423 0.40379 0.0
C2403 C 0.78769 0.09034 0.40065 0.0
H2404 H 0.40643 0.3068 0.90705 0.0
H2405 H 0.36263 0.31663 0.8509 0.0
H2406 H 0.39916 0.26688 0.90548 0.0
H2407 H 0.35458 0.27679 0.84983 0.0
H2408 H 0.36088 0.2016 0.84065 0.0
H2409 H 0.36807 0.24137 0.84144 0.0
H2410 H 0.37197 0.23958 0.91329 0.0
H2411 H 0.3657 0.19932 0.91236 0.0
C2412 C 0.39531 0.30042 0.89427 0.0
C2413 C 0.3852 0.31497 0.87904 0.0
C2414 C 0.39088 0.27748 0.89355 0.0
C2415 C 0.37602 0.2684 0.87771 0.0
C2416 C 0.36631 0.28296 0.86214 0.0
C2417 C 0.37094 0.3059 0.86272 0.0
C2418 C 0.36306 0.20965 0.85669 0.0
C2419 C 0.36274 0.19713 0.87646 0.0
C2420 C 0.36713 0.23263 0.85714 0.0
C2421 C 0.37078 0.24392 0.87741 0.0
C2422 C 0.36974 0.2315 0.89729 0.0
C2423 C 0.36587 0.20839 0.89681 0.0
H2424 H 0.20215 0.92619 0.39676 0.0
H2425 H 0.19566 0.86399 0.36096 0.0
H2426 H 0.24184 0.91967 0.40156 0.0
H2427 H 0.23509 0.85675 0.36674 0.0
H2428 H 0.31136 0.85811 0.36575 0.0
H2429 H 0.27202 0.86456 0.35871 0.0
H2430 H 0.26685 0.89887 0.42195 0.0
H2431 H 0.30648 0.89349 0.42824 0.0
C2432 C 0.20925 0.91116 0.38978 0.0
C2433 C 0.1957 0.8957 0.37839 0.0
C2434 C 0.23203 0.90721 0.39282 0.0
C2435 C 0.2419 0.88743 0.38493 0.0
C2436 C 0.22838 0.87228 0.37291 0.0
C2437 C 0.20564 0.87644 0.36955 0.0
C2438 C 0.30179 0.86685 0.37825 0.0
C2439 C 0.3122 0.87537 0.39753 0.0
C2440 C 0.27908 0.87054 0.37424 0.0
C2441 C 0.26601 0.88257 0.38956 0.0
C2442 C 0.27631 0.89015 0.40934 0.0
C2443 C 0.29907 0.88678 0.41316 0.0
H2444 H 0.6116 0.6707 0.85103 0.0
H2445 H 0.6512 0.67793 0.91077 0.0
H2446 H 0.60817 0.71125 0.84897 0.0
H2447 H 0.64717 0.71804 0.90923 0.0
H2448 H 0.65356 0.7911 0.89008 0.0
H2449 H 0.65829 0.75065 0.8904 0.0
H2450 H 0.59091 0.7421 0.86615 0.0
H2451 H 0.58657 0.78223 0.86512 0.0
C2452 C 0.61942 0.6809 0.86379 0.0
C2453 C 0.6317 0.67101 0.881 0.0
C2454 C 0.61741 0.70418 0.8627 0.0
C2455 C 0.62746 0.71811 0.87892 0.0
C2456 C 0.63958 0.70806 0.89617 0.0
C2457 C 0.64173 0.68492 0.89714 0.0
C2458 C 0.6398 0.78055 0.88486 0.0
C2459 C 0.61972 0.78996 0.87757 0.0
C2460 C 0.64243 0.75731 0.88509 0.0
C2461 C 0.62499 0.74293 0.87823 0.0
C2462 C 0.6049 0.75248 0.87112 0.0
C2463 C 0.60235 0.77561 0.87072 0.0
H2464 H 0.87501 0.64488 0.81296 0.0
H2465 H 0.93766 0.6102 0.80845 0.0
H2466 H 0.87206 0.64461 0.77221 0.0
H2467 H 0.93467 0.60991 0.768 0.0
H2468 H 0.93469 0.63674 0.69725 0.0
H2469 H 0.93593 0.6375 0.73757 0.0
H2470 H 0.86707 0.61649 0.74009 0.0
H2471 H 0.86573 0.61577 0.6991 0.0
C2472 C 0.88828 0.63747 0.8033 0.0
C2473 C 0.90668 0.62772 0.81397 0.0
C2474 C 0.88643 0.63706 0.77998 0.0
C2475 C 0.90308 0.62718 0.76687 0.0
C2476 C 0.92162 0.6178 0.77759 0.0
C2477 C 0.92335 0.61798 0.8008 0.0
C2478 C 0.91972 0.63222 0.70626 0.0
C2479 C 0.90008 0.62614 0.69486 0.0
C2480 C 0.92051 0.63258 0.72947 0.0
C2481 C 0.90165 0.62701 0.74208 0.0
C2482 C 0.88186 0.62102 0.7308 0.0
C2483 C 0.88112 0.62043 0.70737 0.0
H2484 H 0.84756 0.40252 0.32051 0.0
H2485 H 0.8797 0.33842 0.31907 0.0
H2486 H 0.84807 0.40338 0.27981 0.0
H2487 H 0.87938 0.33871 0.27867 0.0
H2488 H 0.89701 0.35604 0.20654 0.0
H2489 H 0.89608 0.3544 0.24725 0.0
H2490 H 0.83293 0.38862 0.24712 0.0
H2491 H 0.83446 0.39106 0.20686 0.0
C2492 C 0.8544 0.38847 0.31151 0.0
C2493 C 0.86364 0.37048 0.32307 0.0
C2494 C 0.85467 0.38887 0.28811 0.0
C2495 C 0.8639 0.37113 0.27571 0.0
C2496 C 0.87261 0.35293 0.28744 0.0
C2497 C 0.8726 0.35268 0.31072 0.0
C2498 C 0.88291 0.36304 0.21528 0.0
C2499 C 0.86592 0.37378 0.20345 0.0
C2500 C 0.88228 0.36209 0.23866 0.0
C2501 C 0.86448 0.37157 0.25073 0.0
C2502 C 0.8472 0.38165 0.23867 0.0
C2503 C 0.848 0.38286 0.21545 0.0
H2504 H 0.06502 0.39679 0.80843 0.0
H2505 H 0.12792 0.363 0.81549 0.0
H2506 H 0.07235 0.40216 0.769 0.0
H2507 H 0.13566 0.36912 0.77612 0.0
H2508 H 0.13295 0.369 0.6988 0.0
H2509 H 0.12673 0.3608 0.73812 0.0
H2510 H 0.09549 0.42494 0.74655 0.0
H2511 H 0.1011 0.43275 0.70725 0.0
C2512 C 0.08035 0.39031 0.80155 0.0
C2513 C 0.09594 0.37963 0.8153 0.0
C2514 C 0.08472 0.39366 0.77892 0.0
C2515 C 0.10488 0.38658 0.76933 0.0
C2516 C 0.11997 0.37484 0.78282 0.0
C2517 C 0.11552 0.37134 0.80548 0.0
C2518 C 0.12511 0.3815 0.70915 0.0
C2519 C 0.11747 0.40153 0.6998 0.0
C2520 C 0.12147 0.37677 0.73174 0.0
C2521 C 0.1102 0.39199 0.74557 0.0
C2522 C 0.10363 0.41248 0.73638 0.0
C2523 C 0.10711 0.41712 0.71383 0.0
H2524 H 0.10247 0.5891 0.2826 0.0
H2525 H 0.16492 0.62517 0.28041 0.0
H2526 H 0.09687 0.59568 0.2434 0.0
H2527 H 0.15985 0.63085 0.2403 0.0
H2528 H 0.13361 0.65422 0.17178 0.0
H2529 H 0.13931 0.64994 0.212 0.0
H2530 H 0.10851 0.58469 0.20866 0.0
H2531 H 0.10188 0.58944 0.16936 0.0
C2532 C 0.11532 0.59809 0.27366 0.0
C2533 C 0.13427 0.60643 0.28479 0.0
C2534 C 0.11212 0.60182 0.25095 0.0
C2535 C 0.12795 0.61368 0.23835 0.0
C2536 C 0.14712 0.62187 0.24939 0.0
C2537 C 0.1502 0.61836 0.27237 0.0
C2538 C 0.12771 0.63917 0.1798 0.0
C2539 C 0.11706 0.62231 0.16726 0.0
C2540 C 0.13125 0.63656 0.20283 0.0
C2541 C 0.12436 0.61696 0.21383 0.0
C2542 C 0.11365 0.60026 0.20114 0.0
C2543 C 0.1099 0.60297 0.17837 0.0
loop_
_geom_bond_atom_site_label_1
_geom_bond_atom_site_label_2
_geom_bond_distance
_geom_bond_site_symmetry_2
_ccdc_geom_bond_type
C0 O1 1.160 . S
C0 O7 1.185 . S
O1 C0 1.160 . S
O2 Zn3 1.899 . S
O2 C10 1.284 . S
Zn3 O2 1.899 . S
Zn3 O4 2.032 . S
Zn3 O7 2.086 . S
Zn3 O12 1.977 . S
O4 Zn3 2.032 . S
O4 C8 1.278 . S
C5 O6 1.203 . S
C5 O12 1.267 . S
O6 C5 1.203 . S
O7 C0 1.185 . S
O7 Zn3 2.086 . S
C8 O4 1.278 . S
C8 O9 1.211 . S
O9 C8 1.211 . S
C10 O2 1.284 . S
C10 O11 1.273 . S
O11 C10 1.273 . S
O12 Zn3 1.977 . S
O12 C5 1.267 . S
C13 O14 1.160 . S
C13 O20 1.185 . S
O14 C13 1.160 . S
O15 Zn16 1.899 . S
O15 C23 1.284 . S
Zn16 O15 1.899 . S
Zn16 O17 2.032 . S
Zn16 O20 2.086 . S
Zn16 O25 1.977 . S
O17 Zn16 2.032 . S
O17 C21 1.278 . S
C18 O19 1.203 . S
C18 O25 1.267 . S
O19 C18 1.203 . S
O20 C13 1.185 . S
O20 Zn16 2.086 . S
C21 O17 1.278 . S
C21 O22 1.211 . S
O22 C21 1.211 . S
C23 O15 1.284 . S
C23 O24 1.273 . S
O24 C23 1.273 . S
O25 Zn16 1.977 . S
O25 C18 1.267 . S
C26 O27 1.160 . S
C26 O33 1.185 . S
O27 C26 1.160 . S
O28 Zn29 1.899 . S
O28 C36 1.284 . S
Zn29 O28 1.899 . S
Zn29 O30 2.032 . S
Zn29 O33 2.086 . S
Zn29 O38 1.977 . S
O30 Zn29 2.032 . S
O30 C34 1.278 . S
C31 O32 1.203 . S
C31 O38 1.267 . S
O32 C31 1.203 . S
O33 C26 1.185 . S
O33 Zn29 2.086 . S
C34 O30 1.278 . S
C34 O35 1.211 . S
O35 C34 1.211 . S
C36 O28 1.284 . S
C36 O37 1.273 . S
O37 C36 1.273 . S
O38 Zn29 1.977 . S
O38 C31 1.267 . S
C39 O40 1.160 . S
C39 O46 1.185 . S
O40 C39 1.160 . S
O41 Zn42 1.899 . S
O41 C49 1.284 . S
Zn42 O41 1.899 . S
Zn42 O43 2.032 . S
Zn42 O46 2.086 . S
Zn42 O51 1.977 . S
O43 Zn42 2.032 . S
O43 C47 1.278 . S
C44 O45 1.203 . S
C44 O51 1.267 . S
O45 C44 1.203 . S
O46 C39 1.185 . S
O46 Zn42 2.086 . S
C47 O43 1.278 . S
C47 O48 1.211 . S
O48 C47 1.211 . S
C49 O41 1.284 . S
C49 O50 1.273 . S
O50 C49 1.273 . S
O51 Zn42 1.977 . S
O51 C44 1.267 . S
C52 O53 1.160 . S
C52 O59 1.185 . S
O53 C52 1.160 . S
O54 Zn55 1.899 . S
O54 C62 1.284 . S
Zn55 O54 1.899 . S
Zn55 O56 2.032 . S
Zn55 O59 2.086 . S
Zn55 O64 1.977 . S
O56 Zn55 2.032 . S
O56 C60 1.278 . S
C57 O58 1.203 . S
C57 O64 1.267 . S
O58 C57 1.203 . S
O59 C52 1.185 . S
O59 Zn55 2.086 . S
C60 O56 1.278 . S
C60 O61 1.211 . S
O61 C60 1.211 . S
C62 O54 1.284 . S
C62 O63 1.273 . S
O63 C62 1.273 . S
O64 Zn55 1.977 . S
O64 C57 1.267 . S
C65 O66 1.160 . S
C65 O72 1.185 . S
O66 C65 1.160 . S
O67 Zn68 1.899 . S
O67 C75 1.284 . S
Zn68 O67 1.899 . S
Zn68 O69 2.032 . S
Zn68 O72 2.086 . S
Zn68 O77 1.977 . S
O69 Zn68 2.032 . S
O69 C73 1.278 . S
C70 O71 1.203 . S
C70 O77 1.267 . S
O71 C70 1.203 . S
O72 C65 1.185 . S
O72 Zn68 2.086 . S
C73 O69 1.278 . S
C73 O74 1.211 . S
O74 C73 1.211 . S
C75 O67 1.284 . S
C75 O76 1.273 . S
O76 C75 1.273 . S
O77 Zn68 1.977 . S
O77 C70 1.267 . S
C78 O79 1.160 . S
C78 O85 1.185 . S
O79 C78 1.160 . S
O80 Zn81 1.899 . S
O80 C88 1.284 . S
Zn81 O80 1.899 . S
Zn81 O82 2.032 . S
Zn81 O85 2.086 . S
Zn81 O90 1.977 . S
O82 Zn81 2.032 . S
O82 C86 1.278 . S
C83 O84 1.203 . S
C83 O90 1.267 . S
O84 C83 1.203 . S
O85 C78 1.185 . S
O85 Zn81 2.086 . S
C86 O82 1.278 . S
C86 O87 1.211 . S
O87 C86 1.211 . S
C88 O80 1.284 . S
C88 O89 1.273 . S
O89 C88 1.273 . S
O90 Zn81 1.977 . S
O90 C83 1.267 . S
C91 O92 1.160 . S
C91 O98 1.185 . S
O92 C91 1.160 . S
O93 Zn94 1.899 . S
O93 C101 1.284 . S
Zn94 O93 1.899 . S
Zn94 O95 2.032 . S
Zn94 O98 2.086 . S
Zn94 O103 1.977 . S
O95 Zn94 2.032 . S
O95 C99 1.278 . S
C96 O97 1.203 . S
C96 O103 1.267 . S
O97 C96 1.203 . S
O98 C91 1.185 . S
O98 Zn94 2.086 . S
C99 O95 1.278 . S
C99 O100 1.211 . S
O100 C99 1.211 . S
C101 O93 1.284 . S
C101 O102 1.273 . S
O102 C101 1.273 . S
O103 Zn94 1.977 . S
O103 C96 1.267 . S
C104 O105 1.160 . S
C104 O111 1.185 . S
O105 C104 1.160 . S
O106 Zn107 1.899 . S
O106 C114 1.284 . S
Zn107 O106 1.899 . S
Zn107 O108 2.032 . S
Zn107 O111 2.086 . S
Zn107 O116 1.977 . S
O108 Zn107 2.032 . S
O108 C112 1.278 . S
C109 O110 1.203 . S
C109 O116 1.267 . S
O110 C109 1.203 . S
O111 C104 1.185 . S
O111 Zn107 2.086 . S
C112 O108 1.278 . S
C112 O113 1.211 . S
O113 C112 1.211 . S
C114 O106 1.284 . S
C114 O115 1.273 . S
O115 C114 1.273 . S
O116 Zn107 1.977 . S
O116 C109 1.267 . S
C117 O118 1.160 . S
C117 O124 1.185 . S
O118 C117 1.160 . S
O119 Zn120 1.899 . S
O119 C127 1.284 . S
Zn120 O119 1.899 . S
Zn120 O121 2.032 . S
Zn120 O124 2.086 . S
Zn120 O129 1.977 . S
O121 Zn120 2.032 . S
O121 C125 1.278 . S
C122 O123 1.203 . S
C122 O129 1.267 . S
O123 C122 1.203 . S
O124 C117 1.185 . S
O124 Zn120 2.086 . S
C125 O121 1.278 . S
C125 O126 1.211 . S
O126 C125 1.211 . S
C127 O119 1.284 . S
C127 O128 1.273 . S
O128 C127 1.273 . S
O129 Zn120 1.977 . S
O129 C122 1.267 . S
C130 O131 1.160 . S
C130 O137 1.185 . S
O131 C130 1.160 . S
O132 Zn133 1.899 . S
O132 C140 1.284 . S
Zn133 O132 1.899 . S
Zn133 O134 2.032 . S
Zn133 O137 2.086 . S
Zn133 O142 1.977 . S
O134 Zn133 2.032 . S
O134 C138 1.278 . S
C135 O136 1.203 . S
C135 O142 1.267 . S
O136 C135 1.203 . S
O137 C130 1.185 . S
O137 Zn133 2.086 . S
C138 O134 1.278 . S
C138 O139 1.211 . S
O139 C138 1.211 . S
C140 O132 1.284 . S
C140 O141 1.273 . S
O141 C140 1.273 . S
O142 Zn133 1.977 . S
O142 C135 1.267 . S
C143 O144 1.160 . S
C143 O150 1.185 . S
O144 C143 1.160 . S
O145 Zn146 1.899 . S
O145 C153 1.284 . S
Zn146 O145 1.899 . S
Zn146 O147 2.032 . S
Zn146 O150 2.086 . S
Zn146 O155 1.977 . S
O147 Zn146 2.032 . S
O147 C151 1.278 . S
C148 O149 1.203 . S
C148 O155 1.267 . S
O149 C148 1.203 . S
O150 C143 1.185 . S
O150 Zn146 2.086 . S
C151 O147 1.278 . S
C151 O152 1.211 . S
O152 C151 1.211 . S
C153 O145 1.284 . S
C153 O154 1.273 . S
O154 C153 1.273 . S
O155 Zn146 1.977 . S
O155 C148 1.267 . S
C156 O157 1.160 . S
C156 O163 1.185 . S
O157 C156 1.160 . S
O158 Zn159 1.899 . S
O158 C166 1.284 . S
Zn159 O158 1.899 . S
Zn159 O160 2.032 . S
Zn159 O163 2.086 . S
Zn159 O168 1.977 . S
O160 Zn159 2.032 . S
O160 C164 1.278 . S
C161 O162 1.203 . S
C161 O168 1.267 . S
O162 C161 1.203 . S
O163 C156 1.185 . S
O163 Zn159 2.086 . S
C164 O160 1.278 . S
C164 O165 1.211 . S
O165 C164 1.211 . S
C166 O158 1.284 . S
C166 O167 1.273 . S
O167 C166 1.273 . S
O168 Zn159 1.977 . S
O168 C161 1.267 . S
C169 O170 1.160 . S
C169 O176 1.185 . S
O170 C169 1.160 . S
O171 Zn172 1.899 . S
O171 C179 1.284 . S
Zn172 O171 1.899 . S
Zn172 O173 2.032 . S
Zn172 O176 2.086 . S
Zn172 O181 1.977 . S
O173 Zn172 2.032 . S
O173 C177 1.278 . S
C174 O175 1.203 . S
C174 O181 1.267 . S
O175 C174 1.203 . S
O176 C169 1.185 . S
O176 Zn172 2.086 . S
C177 O173 1.278 . S
C177 O178 1.211 . S
O178 C177 1.211 . S
C179 O171 1.284 . S
C179 O180 1.273 . S
O180 C179 1.273 . S
O181 Zn172 1.977 . S
O181 C174 1.267 . S
C182 O183 1.160 . S
C182 O189 1.185 . S
O183 C182 1.160 . S
O184 Zn185 1.899 . S
O184 C192 1.284 . S
Zn185 O184 1.899 . S
Zn185 O186 2.032 . S
Zn185 O189 2.086 . S
Zn185 O194 1.977 . S
O186 Zn185 2.032 . S
O186 C190 1.278 . S
C187 O188 1.203 . S
C187 O194 1.267 . S
O188 C187 1.203 . S
O189 C182 1.185 . S
O189 Zn185 2.086 . S
C190 O186 1.278 . S
C190 O191 1.211 . S
O191 C190 1.211 . S
C192 O184 1.284 . S
C192 O193 1.273 . S
O193 C192 1.273 . S
O194 Zn185 1.977 . S
O194 C187 1.267 . S
C195 O196 1.160 . S
C195 O202 1.185 . S
O196 C195 1.160 . S
O197 Zn198 1.899 . S
O197 C205 1.284 . S
Zn198 O197 1.899 . S
Zn198 O199 2.032 . S
Zn198 O202 2.086 . S
Zn198 O207 1.977 . S
O199 Zn198 2.032 . S
O199 C203 1.278 . S
C200 O201 1.203 . S
C200 O207 1.267 . S
O201 C200 1.203 . S
O202 C195 1.185 . S
O202 Zn198 2.086 . S
C203 O199 1.278 . S
C203 O204 1.211 . S
O204 C203 1.211 . S
C205 O197 1.284 . S
C205 O206 1.273 . S
O206 C205 1.273 . S
O207 Zn198 1.977 . S
O207 C200 1.267 . S
C208 O209 1.160 . S
C208 O215 1.185 . S
O209 C208 1.160 . S
O210 Zn211 1.899 . S
O210 C218 1.284 . S
Zn211 O210 1.899 . S
Zn211 O212 2.032 . S
Zn211 O215 2.086 . S
Zn211 O220 1.977 . S
O212 Zn211 2.032 . S
O212 C216 1.278 . S
C213 O214 1.203 . S
C213 O220 1.267 . S
O214 C213 1.203 . S
O215 C208 1.185 . S
O215 Zn211 2.086 . S
C216 O212 1.278 . S
C216 O217 1.211 . S
O217 C216 1.211 . S
C218 O210 1.284 . S
C218 O219 1.273 . S
O219 C218 1.273 . S
O220 Zn211 1.977 . S
O220 C213 1.267 . S
C221 O222 1.160 . S
C221 O228 1.185 . S
O222 C221 1.160 . S
O223 Zn224 1.899 . S
O223 C231 1.284 . S
Zn224 O223 1.899 . S
Zn224 O225 2.032 . S
Zn224 O228 2.086 . S
Zn224 O233 1.977 . S
O225 Zn224 2.032 . S
O225 C229 1.278 . S
C226 O227 1.203 . S
C226 O233 1.267 . S
O227 C226 1.203 . S
O228 C221 1.185 . S
O228 Zn224 2.086 . S
C229 O225 1.278 . S
C229 O230 1.211 . S
O230 C229 1.211 . S
C231 O223 1.284 . S
C231 O232 1.273 . S
O232 C231 1.273 . S
O233 Zn224 1.977 . S
O233 C226 1.267 . S
C234 O235 1.160 . S
C234 O241 1.185 . S
O235 C234 1.160 . S
O236 Zn237 1.899 . S
O236 C244 1.284 . S
Zn237 O236 1.899 . S
Zn237 O238 2.032 . S
Zn237 O241 2.086 . S
Zn237 O246 1.977 . S
O238 Zn237 2.032 . S
O238 C242 1.278 . S
C239 O240 1.203 . S
C239 O246 1.267 . S
O240 C239 1.203 . S
O241 C234 1.185 . S
O241 Zn237 2.086 . S
C242 O238 1.278 . S
C242 O243 1.211 . S
O243 C242 1.211 . S
C244 O236 1.284 . S
C244 O245 1.273 . S
O245 C244 1.273 . S
O246 Zn237 1.977 . S
O246 C239 1.267 . S
C247 O248 1.160 . S
C247 O254 1.185 . S
O248 C247 1.160 . S
O249 Zn250 1.899 . S
O249 C257 1.284 . S
Zn250 O249 1.899 . S
Zn250 O251 2.032 . S
Zn250 O254 2.086 . S
Zn250 O259 1.977 . S
O251 Zn250 2.032 . S
O251 C255 1.278 . S
C252 O253 1.203 . S
C252 O259 1.267 . S
O253 C252 1.203 . S
O254 C247 1.185 . S
O254 Zn250 2.086 . S
C255 O251 1.278 . S
C255 O256 1.211 . S
O256 C255 1.211 . S
C257 O249 1.284 . S
C257 O258 1.273 . S
O258 C257 1.273 . S
O259 Zn250 1.977 . S
O259 C252 1.267 . S
C260 O261 1.160 . S
C260 O267 1.185 . S
O261 C260 1.160 . S
O262 Zn263 1.899 . S
O262 C270 1.284 . S
Zn263 O262 1.899 . S
Zn263 O264 2.032 . S
Zn263 O267 2.086 . S
Zn263 O272 1.977 . S
O264 Zn263 2.032 . S
O264 C268 1.278 . S
C265 O266 1.203 . S
C265 O272 1.267 . S
O266 C265 1.203 . S
O267 C260 1.185 . S
O267 Zn263 2.086 . S
C268 O264 1.278 . S
C268 O269 1.211 . S
O269 C268 1.211 . S
C270 O262 1.284 . S
C270 O271 1.273 . S
O271 C270 1.273 . S
O272 Zn263 1.977 . S
O272 C265 1.267 . S
C273 O274 1.160 . S
C273 O280 1.185 . S
O274 C273 1.160 . S
O275 Zn276 1.899 . S
O275 C283 1.284 . S
Zn276 O275 1.899 . S
Zn276 O277 2.032 . S
Zn276 O280 2.086 . S
Zn276 O285 1.977 . S
O277 Zn276 2.032 . S
O277 C281 1.278 . S
C278 O279 1.203 . S
C278 O285 1.267 . S
O279 C278 1.203 . S
O280 C273 1.185 . S
O280 Zn276 2.086 . S
C281 O277 1.278 . S
C281 O282 1.211 . S
O282 C281 1.211 . S
C283 O275 1.284 . S
C283 O284 1.273 . S
O284 C283 1.273 . S
O285 Zn276 1.977 . S
O285 C278 1.267 . S
C286 O287 1.160 . S
C286 O293 1.185 . S
O287 C286 1.160 . S
O288 Zn289 1.899 . S
O288 C296 1.284 . S
Zn289 O288 1.899 . S
Zn289 O290 2.032 . S
Zn289 O293 2.086 . S
Zn289 O298 1.977 . S
O290 Zn289 2.032 . S
O290 C294 1.278 . S
C291 O292 1.203 . S
C291 O298 1.267 . S
O292 C291 1.203 . S
O293 C286 1.185 . S
O293 Zn289 2.086 . S
C294 O290 1.278 . S
C294 O295 1.211 . S
O295 C294 1.211 . S
C296 O288 1.284 . S
C296 O297 1.273 . S
O297 C296 1.273 . S
O298 Zn289 1.977 . S
O298 C291 1.267 . S
C299 O300 1.160 . S
C299 O306 1.185 . S
O300 C299 1.160 . S
O301 Zn302 1.899 . S
O301 C309 1.284 . S
Zn302 O301 1.899 . S
Zn302 O303 2.032 . S
Zn302 O306 2.086 . S
Zn302 O311 1.977 . S
O303 Zn302 2.032 . S
O303 C307 1.278 . S
C304 O305 1.203 . S
C304 O311 1.267 . S
O305 C304 1.203 . S
O306 C299 1.185 . S
O306 Zn302 2.086 . S
C307 O303 1.278 . S
C307 O308 1.211 . S
O308 C307 1.211 . S
C309 O301 1.284 . S
C309 O310 1.273 . S
O310 C309 1.273 . S
O311 Zn302 1.977 . S
O311 C304 1.267 . S
C312 O313 1.160 . S
C312 O319 1.185 . S
O313 C312 1.160 . S
O314 Zn315 1.899 . S
O314 C322 1.284 . S
Zn315 O314 1.899 . S
Zn315 O316 2.032 . S
Zn315 O319 2.086 . S
Zn315 O324 1.977 . S
O316 Zn315 2.032 . S
O316 C320 1.278 . S
C317 O318 1.203 . S
C317 O324 1.267 . S
O318 C317 1.203 . S
O319 C312 1.185 . S
O319 Zn315 2.086 . S
C320 O316 1.278 . S
C320 O321 1.211 . S
O321 C320 1.211 . S
C322 O314 1.284 . S
C322 O323 1.273 . S
O323 C322 1.273 . S
O324 Zn315 1.977 . S
O324 C317 1.267 . S
C325 O326 1.160 . S
C325 O332 1.185 . S
O326 C325 1.160 . S
O327 Zn328 1.899 . S
O327 C335 1.284 . S
Zn328 O327 1.899 . S
Zn328 O329 2.032 . S
Zn328 O332 2.086 . S
Zn328 O337 1.977 . S
O329 Zn328 2.032 . S
O329 C333 1.278 . S
C330 O331 1.203 . S
C330 O337 1.267 . S
O331 C330 1.203 . S
O332 C325 1.185 . S
O332 Zn328 2.086 . S
C333 O329 1.278 . S
C333 O334 1.211 . S
O334 C333 1.211 . S
C335 O327 1.284 . S
C335 O336 1.273 . S
O336 C335 1.273 . S
O337 Zn328 1.977 . S
O337 C330 1.267 . S
C338 O339 1.160 . S
C338 O345 1.185 . S
O339 C338 1.160 . S
O340 Zn341 1.899 . S
O340 C348 1.284 . S
Zn341 O340 1.899 . S
Zn341 O342 2.032 . S
Zn341 O345 2.086 . S
Zn341 O350 1.977 . S
O342 Zn341 2.032 . S
O342 C346 1.278 . S
C343 O344 1.203 . S
C343 O350 1.267 . S
O344 C343 1.203 . S
O345 C338 1.185 . S
O345 Zn341 2.086 . S
C346 O342 1.278 . S
C346 O347 1.211 . S
O347 C346 1.211 . S
C348 O340 1.284 . S
C348 O349 1.273 . S
O349 C348 1.273 . S
O350 Zn341 1.977 . S
O350 C343 1.267 . S
C351 O352 1.160 . S
C351 O358 1.185 . S
O352 C351 1.160 . S
O353 Zn354 1.899 . S
O353 C361 1.284 . S
Zn354 O353 1.899 . S
Zn354 O355 2.032 . S
Zn354 O358 2.086 . S
Zn354 O363 1.977 . S
O355 Zn354 2.032 . S
O355 C359 1.278 . S
C356 O357 1.203 . S
C356 O363 1.267 . S
O357 C356 1.203 . S
O358 C351 1.185 . S
O358 Zn354 2.086 . S
C359 O355 1.278 . S
C359 O360 1.211 . S
O360 C359 1.211 . S
C361 O353 1.284 . S
C361 O362 1.273 . S
O362 C361 1.273 . S
O363 Zn354 1.977 . S
O363 C356 1.267 . S
C364 O365 1.160 . S
C364 O371 1.185 . S
O365 C364 1.160 . S
O366 Zn367 1.899 . S
O366 C374 1.284 . S
Zn367 O366 1.899 . S
Zn367 O368 2.032 . S
Zn367 O371 2.086 . S
Zn367 O376 1.977 . S
O368 Zn367 2.032 . S
O368 C372 1.278 . S
C369 O370 1.203 . S
C369 O376 1.267 . S
O370 C369 1.203 . S
O371 C364 1.185 . S
O371 Zn367 2.086 . S
C372 O368 1.278 . S
C372 O373 1.211 . S
O373 C372 1.211 . S
C374 O366 1.284 . S
C374 O375 1.273 . S
O375 C374 1.273 . S
O376 Zn367 1.977 . S
O376 C369 1.267 . S
C377 O378 1.160 . S
C377 O384 1.185 . S
O378 C377 1.160 . S
O379 Zn380 1.899 . S
O379 C387 1.284 . S
Zn380 O379 1.899 . S
Zn380 O381 2.032 . S
Zn380 O384 2.086 . S
Zn380 O389 1.977 . S
O381 Zn380 2.032 . S
O381 C385 1.278 . S
C382 O383 1.203 . S
C382 O389 1.267 . S
O383 C382 1.203 . S
O384 C377 1.185 . S
O384 Zn380 2.086 . S
C385 O381 1.278 . S
C385 O386 1.211 . S
O386 C385 1.211 . S
C387 O379 1.284 . S
C387 O388 1.273 . S
O388 C387 1.273 . S
O389 Zn380 1.977 . S
O389 C382 1.267 . S
C390 O391 1.160 . S
C390 O397 1.185 . S
O391 C390 1.160 . S
O392 Zn393 1.899 . S
O392 C400 1.284 . S
Zn393 O392 1.899 . S
Zn393 O394 2.032 . S
Zn393 O397 2.086 . S
Zn393 O402 1.977 . S
O394 Zn393 2.032 . S
O394 C398 1.278 . S
C395 O396 1.203 . S
C395 O402 1.267 . S
O396 C395 1.203 . S
O397 C390 1.185 . S
O397 Zn393 2.086 . S
C398 O394 1.278 . S
C398 O399 1.211 . S
O399 C398 1.211 . S
C400 O392 1.284 . S
C400 O401 1.273 . S
O401 C400 1.273 . S
O402 Zn393 1.977 . S
O402 C395 1.267 . S
C403 O404 1.160 . S
C403 O410 1.185 . S
O404 C403 1.160 . S
O405 Zn406 1.899 . S
O405 C413 1.284 . S
Zn406 O405 1.899 . S
Zn406 O407 2.032 . S
Zn406 O410 2.086 . S
Zn406 O415 1.977 . S
O407 Zn406 2.032 . S
O407 C411 1.278 . S
C408 O409 1.203 . S
C408 O415 1.267 . S
O409 C408 1.203 . S
O410 C403 1.185 . S
O410 Zn406 2.086 . S
C411 O407 1.278 . S
C411 O412 1.211 . S
O412 C411 1.211 . S
C413 O405 1.284 . S
C413 O414 1.273 . S
O414 C413 1.273 . S
O415 Zn406 1.977 . S
O415 C408 1.267 . S
C416 O417 1.160 . S
C416 O423 1.185 . S
O417 C416 1.160 . S
O418 Zn419 1.899 . S
O418 C426 1.284 . S
Zn419 O418 1.899 . S
Zn419 O420 2.032 . S
Zn419 O423 2.086 . S
Zn419 O428 1.977 . S
O420 Zn419 2.032 . S
O420 C424 1.278 . S
C421 O422 1.203 . S
C421 O428 1.267 . S
O422 C421 1.203 . S
O423 C416 1.185 . S
O423 Zn419 2.086 . S
C424 O420 1.278 . S
C424 O425 1.211 . S
O425 C424 1.211 . S
C426 O418 1.284 . S
C426 O427 1.273 . S
O427 C426 1.273 . S
O428 Zn419 1.977 . S
O428 C421 1.267 . S
C429 O430 1.160 . S
C429 O436 1.185 . S
O430 C429 1.160 . S
O431 Zn432 1.899 . S
O431 C439 1.284 . S
Zn432 O431 1.899 . S
Zn432 O433 2.032 . S
Zn432 O436 2.086 . S
Zn432 O441 1.977 . S
O433 Zn432 2.032 . S
O433 C437 1.278 . S
C434 O435 1.203 . S
C434 O441 1.267 . S
O435 C434 1.203 . S
O436 C429 1.185 . S
O436 Zn432 2.086 . S
C437 O433 1.278 . S
C437 O438 1.211 . S
O438 C437 1.211 . S
C439 O431 1.284 . S
C439 O440 1.273 . S
O440 C439 1.273 . S
O441 Zn432 1.977 . S
O441 C434 1.267 . S
C442 O443 1.160 . S
C442 O449 1.185 . S
O443 C442 1.160 . S
O444 Zn445 1.899 . S
O444 C452 1.284 . S
Zn445 O444 1.899 . S
Zn445 O446 2.032 . S
Zn445 O449 2.086 . S
Zn445 O454 1.977 . S
O446 Zn445 2.032 . S
O446 C450 1.278 . S
C447 O448 1.203 . S
C447 O454 1.267 . S
O448 C447 1.203 . S
O449 C442 1.185 . S
O449 Zn445 2.086 . S
C450 O446 1.278 . S
C450 O451 1.211 . S
O451 C450 1.211 . S
C452 O444 1.284 . S
C452 O453 1.273 . S
O453 C452 1.273 . S
O454 Zn445 1.977 . S
O454 C447 1.267 . S
C455 O456 1.160 . S
C455 O462 1.185 . S
O456 C455 1.160 . S
O457 Zn458 1.899 . S
O457 C465 1.284 . S
Zn458 O457 1.899 . S
Zn458 O459 2.032 . S
Zn458 O462 2.086 . S
Zn458 O467 1.977 . S
O459 Zn458 2.032 . S
O459 C463 1.278 . S
C460 O461 1.203 . S
C460 O467 1.267 . S
O461 C460 1.203 . S
O462 C455 1.185 . S
O462 Zn458 2.086 . S
C463 O459 1.278 . S
C463 O464 1.211 . S
O464 C463 1.211 . S
C465 O457 1.284 . S
C465 O466 1.273 . S
O466 C465 1.273 . S
O467 Zn458 1.977 . S
O467 C460 1.267 . S
C468 O469 1.160 . S
C468 O475 1.185 . S
O469 C468 1.160 . S
O470 Zn471 1.899 . S
O470 C478 1.284 . S
Zn471 O470 1.899 . S
Zn471 O472 2.032 . S
Zn471 O475 2.086 . S
Zn471 O480 1.977 . S
O472 Zn471 2.032 . S
O472 C476 1.278 . S
C473 O474 1.203 . S
C473 O480 1.267 . S
O474 C473 1.203 . S
O475 C468 1.185 . S
O475 Zn471 2.086 . S
C476 O472 1.278 . S
C476 O477 1.211 . S
O477 C476 1.211 . S
C478 O470 1.284 . S
C478 O479 1.273 . S
O479 C478 1.273 . S
O480 Zn471 1.977 . S
O480 C473 1.267 . S
C481 O482 1.160 . S
C481 O488 1.185 . S
O482 C481 1.160 . S
O483 Zn484 1.899 . S
O483 C491 1.284 . S
Zn484 O483 1.899 . S
Zn484 O485 2.032 . S
Zn484 O488 2.086 . S
Zn484 O493 1.977 . S
O485 Zn484 2.032 . S
O485 C489 1.278 . S
C486 O487 1.203 . S
C486 O493 1.267 . S
O487 C486 1.203 . S
O488 C481 1.185 . S
O488 Zn484 2.086 . S
C489 O485 1.278 . S
C489 O490 1.211 . S
O490 C489 1.211 . S
C491 O483 1.284 . S
C491 O492 1.273 . S
O492 C491 1.273 . S
O493 Zn484 1.977 . S
O493 C486 1.267 . S
C494 O495 1.160 . S
C494 O501 1.185 . S
O495 C494 1.160 . S
O496 Zn497 1.899 . S
O496 C504 1.284 . S
Zn497 O496 1.899 . S
Zn497 O498 2.032 . S
Zn497 O501 2.086 . S
Zn497 O506 1.977 . S
O498 Zn497 2.032 . S
O498 C502 1.278 . S
C499 O500 1.203 . S
C499 O506 1.267 . S
O500 C499 1.203 . S
O501 C494 1.185 . S
O501 Zn497 2.086 . S
C502 O498 1.278 . S
C502 O503 1.211 . S
O503 C502 1.211 . S
C504 O496 1.284 . S
C504 O505 1.273 . S
O505 C504 1.273 . S
O506 Zn497 1.977 . S
O506 C499 1.267 . S
C507 O508 1.160 . S
C507 O514 1.185 . S
O508 C507 1.160 . S
O509 Zn510 1.899 . S
O509 C517 1.284 . S
Zn510 O509 1.899 . S
Zn510 O511 2.032 . S
Zn510 O514 2.086 . S
Zn510 O519 1.977 . S
O511 Zn510 2.032 . S
O511 C515 1.278 . S
C512 O513 1.203 . S
C512 O519 1.267 . S
O513 C512 1.203 . S
O514 C507 1.185 . S
O514 Zn510 2.086 . S
C515 O511 1.278 . S
C515 O516 1.211 . S
O516 C515 1.211 . S
C517 O509 1.284 . S
C517 O518 1.273 . S
O518 C517 1.273 . S
O519 Zn510 1.977 . S
O519 C512 1.267 . S
C520 O521 1.160 . S
C520 O527 1.185 . S
O521 C520 1.160 . S
O522 Zn523 1.899 . S
O522 C530 1.284 . S
Zn523 O522 1.899 . S
Zn523 O524 2.032 . S
Zn523 O527 2.086 . S
Zn523 O532 1.977 . S
O524 Zn523 2.032 . S
O524 C528 1.278 . S
C525 O526 1.203 . S
C525 O532 1.267 . S
O526 C525 1.203 . S
O527 C520 1.185 . S
O527 Zn523 2.086 . S
C528 O524 1.278 . S
C528 O529 1.211 . S
O529 C528 1.211 . S
C530 O522 1.284 . S
C530 O531 1.273 . S
O531 C530 1.273 . S
O532 Zn523 1.977 . S
O532 C525 1.267 . S
C533 O534 1.160 . S
C533 O540 1.185 . S
O534 C533 1.160 . S
O535 Zn536 1.899 . S
O535 C543 1.284 . S
Zn536 O535 1.899 . S
Zn536 O537 2.032 . S
Zn536 O540 2.086 . S
Zn536 O545 1.977 . S
O537 Zn536 2.032 . S
O537 C541 1.278 . S
C538 O539 1.203 . S
C538 O545 1.267 . S
O539 C538 1.203 . S
O540 C533 1.185 . S
O540 Zn536 2.086 . S
C541 O537 1.278 . S
C541 O542 1.211 . S
O542 C541 1.211 . S
C543 O535 1.284 . S
C543 O544 1.273 . S
O544 C543 1.273 . S
O545 Zn536 1.977 . S
O545 C538 1.267 . S
C546 O547 1.160 . S
C546 O553 1.185 . S
O547 C546 1.160 . S
O548 Zn549 1.899 . S
O548 C556 1.284 . S
Zn549 O548 1.899 . S
Zn549 O550 2.032 . S
Zn549 O553 2.086 . S
Zn549 O558 1.977 . S
O550 Zn549 2.032 . S
O550 C554 1.278 . S
C551 O552 1.203 . S
C551 O558 1.267 . S
O552 C551 1.203 . S
O553 C546 1.185 . S
O553 Zn549 2.086 . S
C554 O550 1.278 . S
C554 O555 1.211 . S
O555 C554 1.211 . S
C556 O548 1.284 . S
C556 O557 1.273 . S
O557 C556 1.273 . S
O558 Zn549 1.977 . S
O558 C551 1.267 . S
C559 O560 1.160 . S
C559 O566 1.185 . S
O560 C559 1.160 . S
O561 Zn562 1.899 . S
O561 C569 1.284 . S
Zn562 O561 1.899 . S
Zn562 O563 2.032 . S
Zn562 O566 2.086 . S
Zn562 O571 1.977 . S
O563 Zn562 2.032 . S
O563 C567 1.278 . S
C564 O565 1.203 . S
C564 O571 1.267 . S
O565 C564 1.203 . S
O566 C559 1.185 . S
O566 Zn562 2.086 . S
C567 O563 1.278 . S
C567 O568 1.211 . S
O568 C567 1.211 . S
C569 O561 1.284 . S
C569 O570 1.273 . S
O570 C569 1.273 . S
O571 Zn562 1.977 . S
O571 C564 1.267 . S
C572 O573 1.160 . S
C572 O579 1.185 . S
O573 C572 1.160 . S
O574 Zn575 1.899 . S
O574 C582 1.284 . S
Zn575 O574 1.899 . S
Zn575 O576 2.032 . S
Zn575 O579 2.086 . S
Zn575 O584 1.977 . S
O576 Zn575 2.032 . S
O576 C580 1.278 . S
C577 O578 1.203 . S
C577 O584 1.267 . S
O578 C577 1.203 . S
O579 C572 1.185 . S
O579 Zn575 2.086 . S
C580 O576 1.278 . S
C580 O581 1.211 . S
O581 C580 1.211 . S
C582 O574 1.284 . S
C582 O583 1.273 . S
O583 C582 1.273 . S
O584 Zn575 1.977 . S
O584 C577 1.267 . S
C585 O586 1.160 . S
C585 O592 1.185 . S
O586 C585 1.160 . S
O587 Zn588 1.899 . S
O587 C595 1.284 . S
Zn588 O587 1.899 . S
Zn588 O589 2.032 . S
Zn588 O592 2.086 . S
Zn588 O597 1.977 . S
O589 Zn588 2.032 . S
O589 C593 1.278 . S
C590 O591 1.203 . S
C590 O597 1.267 . S
O591 C590 1.203 . S
O592 C585 1.185 . S
O592 Zn588 2.086 . S
C593 O589 1.278 . S
C593 O594 1.211 . S
O594 C593 1.211 . S
C595 O587 1.284 . S
C595 O596 1.273 . S
O596 C595 1.273 . S
O597 Zn588 1.977 . S
O597 C590 1.267 . S
C598 O599 1.160 . S
C598 O605 1.185 . S
O599 C598 1.160 . S
O600 Zn601 1.899 . S
O600 C608 1.284 . S
Zn601 O600 1.899 . S
Zn601 O602 2.032 . S
Zn601 O605 2.086 . S
Zn601 O610 1.977 . S
O602 Zn601 2.032 . S
O602 C606 1.278 . S
C603 O604 1.203 . S
C603 O610 1.267 . S
O604 C603 1.203 . S
O605 C598 1.185 . S
O605 Zn601 2.086 . S
C606 O602 1.278 . S
C606 O607 1.211 . S
O607 C606 1.211 . S
C608 O600 1.284 . S
C608 O609 1.273 . S
O609 C608 1.273 . S
O610 Zn601 1.977 . S
O610 C603 1.267 . S
C611 O612 1.160 . S
C611 O618 1.185 . S
O612 C611 1.160 . S
O613 Zn614 1.899 . S
O613 C621 1.284 . S
Zn614 O613 1.899 . S
Zn614 O615 2.032 . S
Zn614 O618 2.086 . S
Zn614 O623 1.977 . S
O615 Zn614 2.032 . S
O615 C619 1.278 . S
C616 O617 1.203 . S
C616 O623 1.267 . S
O617 C616 1.203 . S
O618 C611 1.185 . S
O618 Zn614 2.086 . S
C619 O615 1.278 . S
C619 O620 1.211 . S
O620 C619 1.211 . S
C621 O613 1.284 . S
C621 O622 1.273 . S
O622 C621 1.273 . S
O623 Zn614 1.977 . S
O623 C616 1.267 . S
H624 C632 0.950 . S
H625 C637 0.950 . S
H626 C634 0.950 . S
H627 C636 0.950 . S
H628 C638 0.950 . S
H629 C640 0.950 . S
H630 C642 0.950 . S
H631 C643 0.950 . S
C632 H624 0.950 . S
C632 C633 1.386 . S
C632 C634 1.391 . S
C633 C632 1.386 . S
C633 C637 1.393 . S
C634 H626 0.950 . S
C634 C632 1.391 . S
C634 C635 1.400 . S
C635 C634 1.400 . S
C635 C636 1.398 . S
C635 C641 1.491 . S
C636 H627 0.950 . S
C636 C635 1.398 . S
C636 C637 1.391 . S
C637 H625 0.950 . S
C637 C633 1.393 . S
C637 C636 1.391 . S
C638 H628 0.950 . S
C638 C639 1.386 . S
C638 C640 1.391 . S
C639 C638 1.386 . S
C639 C643 1.393 . S
C640 H629 0.950 . S
C640 C638 1.391 . S
C640 C641 1.400 . S
C641 C635 1.491 . S
C641 C640 1.400 . S
C641 C642 1.398 . S
C642 H630 0.950 . S
C642 C641 1.398 . S
C642 C643 1.391 . S
C643 H631 0.950 . S
C643 C639 1.393 . S
C643 C642 1.391 . S
H644 C652 0.950 . S
H645 C657 0.950 . S
H646 C654 0.950 . S
H647 C656 0.950 . S
H648 C658 0.950 . S
H649 C660 0.950 . S
H650 C662 0.950 . S
H651 C663 0.950 . S
C652 H644 0.950 . S
C652 C653 1.386 . S
C652 C654 1.391 . S
C653 C652 1.386 . S
C653 C657 1.393 . S
C654 H646 0.950 . S
C654 C652 1.391 . S
C654 C655 1.400 . S
C655 C654 1.400 . S
C655 C656 1.398 . S
C655 C661 1.491 . S
C656 H647 0.950 . S
C656 C655 1.398 . S
C656 C657 1.391 . S
C657 H645 0.950 . S
C657 C653 1.393 . S
C657 C656 1.391 . S
C658 H648 0.950 . S
C658 C659 1.386 . S
C658 C660 1.391 . S
C659 C658 1.386 . S
C659 C663 1.393 . S
C660 H649 0.950 . S
C660 C658 1.391 . S
C660 C661 1.400 . S
C661 C655 1.491 . S
C661 C660 1.400 . S
C661 C662 1.398 . S
C662 H650 0.950 . S
C662 C661 1.398 . S
C662 C663 1.391 . S
C663 H651 0.950 . S
C663 C659 1.393 . S
C663 C662 1.391 . S
H664 C672 0.950 . S
H665 C677 0.950 . S
H666 C674 0.950 . S
H667 C676 0.950 . S
H668 C678 0.950 . S
H669 C680 0.950 . S
H670 C682 0.950 . S
H671 C683 0.950 . S
C672 H664 0.950 . S
C672 C673 1.386 . S
C672 C674 1.391 . S
C673 C672 1.386 . S
C673 C677 1.393 . S
C674 H666 0.950 . S
C674 C672 1.391 . S
C674 C675 1.400 . S
C675 C674 1.400 . S
C675 C676 1.398 . S
C675 C681 1.491 . S
C676 H667 0.950 . S
C676 C675 1.398 . S
C676 C677 1.391 . S
C677 H665 0.950 . S
C677 C673 1.393 . S
C677 C676 1.391 . S
C678 H668 0.950 . S
C678 C679 1.386 . S
C678 C680 1.391 . S
C679 C678 1.386 . S
C679 C683 1.393 . S
C680 H669 0.950 . S
C680 C678 1.391 . S
C680 C681 1.400 . S
C681 C675 1.491 . S
C681 C680 1.400 . S
C681 C682 1.398 . S
C682 H670 0.950 . S
C682 C681 1.398 . S
C682 C683 1.391 . S
C683 H671 0.950 . S
C683 C679 1.393 . S
C683 C682 1.391 . S
H684 C692 0.950 . S
H685 C697 0.950 . S
H686 C694 0.950 . S
H687 C696 0.950 . S
H688 C698 0.950 . S
H689 C700 0.950 . S
H690 C702 0.950 . S
H691 C703 0.950 . S
C692 H684 0.950 . S
C692 C693 1.386 . S
C692 C694 1.391 . S
C693 C692 1.386 . S
C693 C697 1.393 . S
C694 H686 0.950 . S
C694 C692 1.391 . S
C694 C695 1.400 . S
C695 C694 1.400 . S
C695 C696 1.398 . S
C695 C701 1.491 . S
C696 H687 0.950 . S
C696 C695 1.398 . S
C696 C697 1.391 . S
C697 H685 0.950 . S
C697 C693 1.393 . S
C697 C696 1.391 . S
C698 H688 0.950 . S
C698 C699 1.386 . S
C698 C700 1.391 . S
C699 C698 1.386 . S
C699 C703 1.393 . S
C700 H689 0.950 . S
C700 C698 1.391 . S
C700 C701 1.400 . S
C701 C695 1.491 . S
C701 C700 1.400 . S
C701 C702 1.398 . S
C702 H690 0.950 . S
C702 C701 1.398 . S
C702 C703 1.391 . S
C703 H691 0.950 . S
C703 C699 1.393 . S
C703 C702 1.391 . S
H704 C712 0.950 . S
H705 C717 0.950 . S
H706 C714 0.950 . S
H707 C716 0.950 . S
H708 C718 0.950 . S
H709 C720 0.950 . S
H710 C722 0.950 . S
H711 C723 0.950 . S
C712 H704 0.950 . S
C712 C713 1.386 . S
C712 C714 1.391 . S
C713 C712 1.386 . S
C713 C717 1.393 . S
C714 H706 0.950 . S
C714 C712 1.391 . S
C714 C715 1.400 . S
C715 C714 1.400 . S
C715 C716 1.398 . S
C715 C721 1.491 . S
C716 H707 0.950 . S
C716 C715 1.398 . S
C716 C717 1.391 . S
C717 H705 0.950 . S
C717 C713 1.393 . S
C717 C716 1.391 . S
C718 H708 0.950 . S
C718 C719 1.386 . S
C718 C720 1.391 . S
C719 C718 1.386 . S
C719 C723 1.393 . S
C720 H709 0.950 . S
C720 C718 1.391 . S
C720 C721 1.400 . S
C721 C715 1.491 . S
C721 C720 1.400 . S
C721 C722 1.398 . S
C722 H710 0.950 . S
C722 C721 1.398 . S
C722 C723 1.391 . S
C723 H711 0.950 . S
C723 C719 1.393 . S
C723 C722 1.391 . S
H724 C732 0.950 . S
H725 C737 0.950 . S
H726 C734 0.950 . S
H727 C736 0.950 . S
H728 C738 0.950 . S
H729 C740 0.950 . S
H730 C742 0.950 . S
H731 C743 0.950 . S
C732 H724 0.950 . S
C732 C733 1.386 . S
C732 C734 1.391 . S
C733 C732 1.386 . S
C733 C737 1.393 . S
C734 H726 0.950 . S
C734 C732 1.391 . S
C734 C735 1.400 . S
C735 C734 1.400 . S
C735 C736 1.398 . S
C735 C741 1.491 . S
C736 H727 0.950 . S
C736 C735 1.398 . S
C736 C737 1.391 . S
C737 H725 0.950 . S
C737 C733 1.393 . S
C737 C736 1.391 . S
C738 H728 0.950 . S
C738 C739 1.386 . S
C738 C740 1.391 . S
C739 C738 1.386 . S
C739 C743 1.393 . S
C740 H729 0.950 . S
C740 C738 1.391 . S
C740 C741 1.400 . S
C741 C735 1.491 . S
C741 C740 1.400 . S
C741 C742 1.398 . S
C742 H730 0.950 . S
C742 C741 1.398 . S
C742 C743 1.391 . S
C743 H731 0.950 . S
C743 C739 1.393 . S
C743 C742 1.391 . S
H744 C752 0.950 . S
H745 C757 0.950 . S
H746 C754 0.950 . S
H747 C756 0.950 . S
H748 C758 0.950 . S
H749 C760 0.950 . S
H750 C762 0.950 . S
H751 C763 0.950 . S
C752 H744 0.950 . S
C752 C753 1.386 . S
C752 C754 1.391 . S
C753 C752 1.386 . S
C753 C757 1.393 . S
C754 H746 0.950 . S
C754 C752 1.391 . S
C754 C755 1.400 . S
C755 C754 1.400 . S
C755 C756 1.398 . S
C755 C761 1.491 . S
C756 H747 0.950 . S
C756 C755 1.398 . S
C756 C757 1.391 . S
C757 H745 0.950 . S
C757 C753 1.393 . S
C757 C756 1.391 . S
C758 H748 0.950 . S
C758 C759 1.386 . S
C758 C760 1.391 . S
C759 C758 1.386 . S
C759 C763 1.393 . S
C760 H749 0.950 . S
C760 C758 1.391 . S
C760 C761 1.400 . S
C761 C755 1.491 . S
C761 C760 1.400 . S
C761 C762 1.398 . S
C762 H750 0.950 . S
C762 C761 1.398 . S
C762 C763 1.391 . S
C763 H751 0.950 . S
C763 C759 1.393 . S
C763 C762 1.391 . S
H764 C772 0.950 . S
H765 C777 0.950 . S
H766 C774 0.950 . S
H767 C776 0.950 . S
H768 C778 0.950 . S
H769 C780 0.950 . S
H770 C782 0.950 . S
H771 C783 0.950 . S
C772 H764 0.950 . S
C772 C773 1.386 . S
C772 C774 1.391 . S
C773 C772 1.386 . S
C773 C777 1.393 . S
C774 H766 0.950 . S
C774 C772 1.391 . S
C774 C775 1.400 . S
C775 C774 1.400 . S
C775 C776 1.398 . S
C775 C781 1.491 . S
C776 H767 0.950 . S
C776 C775 1.398 . S
C776 C777 1.391 . S
C777 H765 0.950 . S
C777 C773 1.393 . S
C777 C776 1.391 . S
C778 H768 0.950 . S
C778 C779 1.386 . S
C778 C780 1.391 . S
C779 C778 1.386 . S
C779 C783 1.393 . S
C780 H769 0.950 . S
C780 C778 1.391 . S
C780 C781 1.400 . S
C781 C775 1.491 . S
C781 C780 1.400 . S
C781 C782 1.398 . S
C782 H770 0.950 . S
C782 C781 1.398 . S
C782 C783 1.391 . S
C783 H771 0.950 . S
C783 C779 1.393 . S
C783 C782 1.391 . S
H784 C792 0.950 . S
H785 C797 0.950 . S
H786 C794 0.950 . S
H787 C796 0.950 . S
H788 C798 0.950 . S
H789 C800 0.950 . S
H790 C802 0.950 . S
H791 C803 0.950 . S
C792 H784 0.950 . S
C792 C793 1.386 . S
C792 C794 1.391 . S
C793 C792 1.386 . S
C793 C797 1.393 . S
C794 H786 0.950 . S
C794 C792 1.391 . S
C794 C795 1.400 . S
C795 C794 1.400 . S
C795 C796 1.398 . S
C795 C801 1.491 . S
C796 H787 0.950 . S
C796 C795 1.398 . S
C796 C797 1.391 . S
C797 H785 0.950 . S
C797 C793 1.393 . S
C797 C796 1.391 . S
C798 H788 0.950 . S
C798 C799 1.386 . S
C798 C800 1.391 . S
C799 C798 1.386 . S
C799 C803 1.393 . S
C800 H789 0.950 . S
C800 C798 1.391 . S
C800 C801 1.400 . S
C801 C795 1.491 . S
C801 C800 1.400 . S
C801 C802 1.398 . S
C802 H790 0.950 . S
C802 C801 1.398 . S
C802 C803 1.391 . S
C803 H791 0.950 . S
C803 C799 1.393 . S
C803 C802 1.391 . S
H804 C812 0.950 . S
H805 C817 0.950 . S
H806 C814 0.950 . S
H807 C816 0.950 . S
H808 C818 0.950 . S
H809 C820 0.950 . S
H810 C822 0.950 . S
H811 C823 0.950 . S
C812 H804 0.950 . S
C812 C813 1.386 . S
C812 C814 1.391 . S
C813 C812 1.386 . S
C813 C817 1.393 . S
C814 H806 0.950 . S
C814 C812 1.391 . S
C814 C815 1.400 . S
C815 C814 1.400 . S
C815 C816 1.398 . S
C815 C821 1.491 . S
C816 H807 0.950 . S
C816 C815 1.398 . S
C816 C817 1.391 . S
C817 H805 0.950 . S
C817 C813 1.393 . S
C817 C816 1.391 . S
C818 H808 0.950 . S
C818 C819 1.386 . S
C818 C820 1.391 . S
C819 C818 1.386 . S
C819 C823 1.393 . S
C820 H809 0.950 . S
C820 C818 1.391 . S
C820 C821 1.400 . S
C821 C815 1.491 . S
C821 C820 1.400 . S
C821 C822 1.398 . S
C822 H810 0.950 . S
C822 C821 1.398 . S
C822 C823 1.391 . S
C823 H811 0.950 . S
C823 C819 1.393 . S
C823 C822 1.391 . S
H824 C832 0.950 . S
H825 C837 0.950 . S
H826 C834 0.950 . S
H827 C836 0.950 . S
H828 C838 0.950 . S
H829 C840 0.950 . S
H830 C842 0.950 . S
H831 C843 0.950 . S
C832 H824 0.950 . S
C832 C833 1.386 . S
C832 C834 1.391 . S
C833 C832 1.386 . S
C833 C837 1.393 . S
C834 H826 0.950 . S
C834 C832 1.391 . S
C834 C835 1.400 . S
C835 C834 1.400 . S
C835 C836 1.398 . S
C835 C841 1.491 . S
C836 H827 0.950 . S
C836 C835 1.398 . S
C836 C837 1.391 . S
C837 H825 0.950 . S
C837 C833 1.393 . S
C837 C836 1.391 . S
C838 H828 0.950 . S
C838 C839 1.386 . S
C838 C840 1.391 . S
C839 C838 1.386 . S
C839 C843 1.393 . S
C840 H829 0.950 . S
C840 C838 1.391 . S
C840 C841 1.400 . S
C841 C835 1.491 . S
C841 C840 1.400 . S
C841 C842 1.398 . S
C842 H830 0.950 . S
C842 C841 1.398 . S
C842 C843 1.391 . S
C843 H831 0.950 . S
C843 C839 1.393 . S
C843 C842 1.391 . S
H844 C852 0.950 . S
H845 C857 0.950 . S
H846 C854 0.950 . S
H847 C856 0.950 . S
H848 C858 0.950 . S
H849 C860 0.950 . S
H850 C862 0.950 . S
H851 C863 0.950 . S
C852 H844 0.950 . S
C852 C853 1.386 . S
C852 C854 1.391 . S
C853 C852 1.386 . S
C853 C857 1.393 . S
C854 H846 0.950 . S
C854 C852 1.391 . S
C854 C855 1.400 . S
C855 C854 1.400 . S
C855 C856 1.398 . S
C855 C861 1.491 . S
C856 H847 0.950 . S
C856 C855 1.398 . S
C856 C857 1.391 . S
C857 H845 0.950 . S
C857 C853 1.393 . S
C857 C856 1.391 . S
C858 H848 0.950 . S
C858 C859 1.386 . S
C858 C860 1.391 . S
C859 C858 1.386 . S
C859 C863 1.393 . S
C860 H849 0.950 . S
C860 C858 1.391 . S
C860 C861 1.400 . S
C861 C855 1.491 . S
C861 C860 1.400 . S
C861 C862 1.398 . S
C862 H850 0.950 . S
C862 C861 1.398 . S
C862 C863 1.391 . S
C863 H851 0.950 . S
C863 C859 1.393 . S
C863 C862 1.391 . S
H864 C872 0.950 . S
H865 C877 0.950 . S
H866 C874 0.950 . S
H867 C876 0.950 . S
H868 C878 0.950 . S
H869 C880 0.950 . S
H870 C882 0.950 . S
H871 C883 0.950 . S
C872 H864 0.950 . S
C872 C873 1.386 . S
C872 C874 1.391 . S
C873 C872 1.386 . S
C873 C877 1.393 . S
C874 H866 0.950 . S
C874 C872 1.391 . S
C874 C875 1.400 . S
C875 C874 1.400 . S
C875 C876 1.398 . S
C875 C881 1.491 . S
C876 H867 0.950 . S
C876 C875 1.398 . S
C876 C877 1.391 . S
C877 H865 0.950 . S
C877 C873 1.393 . S
C877 C876 1.391 . S
C878 H868 0.950 . S
C878 C879 1.386 . S
C878 C880 1.391 . S
C879 C878 1.386 . S
C879 C883 1.393 . S
C880 H869 0.950 . S
C880 C878 1.391 . S
C880 C881 1.400 . S
C881 C875 1.491 . S
C881 C880 1.400 . S
C881 C882 1.398 . S
C882 H870 0.950 . S
C882 C881 1.398 . S
C882 C883 1.391 . S
C883 H871 0.950 . S
C883 C879 1.393 . S
C883 C882 1.391 . S
H884 C892 0.950 . S
H885 C897 0.950 . S
H886 C894 0.950 . S
H887 C896 0.950 . S
H888 C898 0.950 . S
H889 C900 0.950 . S
H890 C902 0.950 . S
H891 C903 0.950 . S
C892 H884 0.950 . S
C892 C893 1.386 . S
C892 C894 1.391 . S
C893 C892 1.386 . S
C893 C897 1.393 . S
C894 H886 0.950 . S
C894 C892 1.391 . S
C894 C895 1.400 . S
C895 C894 1.400 . S
C895 C896 1.398 . S
C895 C901 1.491 . S
C896 H887 0.950 . S
C896 C895 1.398 . S
C896 C897 1.391 . S
C897 H885 0.950 . S
C897 C893 1.393 . S
C897 C896 1.391 . S
C898 H888 0.950 . S
C898 C899 1.386 . S
C898 C900 1.391 . S
C899 C898 1.386 . S
C899 C903 1.393 . S
C900 H889 0.950 . S
C900 C898 1.391 . S
C900 C901 1.400 . S
C901 C895 1.491 . S
C901 C900 1.400 . S
C901 C902 1.398 . S
C902 H890 0.950 . S
C902 C901 1.398 . S
C902 C903 1.391 . S
C903 H891 0.950 . S
C903 C899 1.393 . S
C903 C902 1.391 . S
H904 C912 0.950 . S
H905 C917 0.950 . S
H906 C914 0.950 . S
H907 C916 0.950 . S
H908 C918 0.950 . S
H909 C920 0.950 . S
H910 C922 0.950 . S
H911 C923 0.950 . S
C912 H904 0.950 . S
C912 C913 1.386 . S
C912 C914 1.391 . S
C913 C912 1.386 . S
C913 C917 1.393 . S
C914 H906 0.950 . S
C914 C912 1.391 . S
C914 C915 1.400 . S
C915 C914 1.400 . S
C915 C916 1.398 . S
C915 C921 1.491 . S
C916 H907 0.950 . S
C916 C915 1.398 . S
C916 C917 1.391 . S
C917 H905 0.950 . S
C917 C913 1.393 . S
C917 C916 1.391 . S
C918 H908 0.950 . S
C918 C919 1.386 . S
C918 C920 1.391 . S
C919 C918 1.386 . S
C919 C923 1.393 . S
C920 H909 0.950 . S
C920 C918 1.391 . S
C920 C921 1.400 . S
C921 C915 1.491 . S
C921 C920 1.400 . S
C921 C922 1.398 . S
C922 H910 0.950 . S
C922 C921 1.398 . S
C922 C923 1.391 . S
C923 H911 0.950 . S
C923 C919 1.393 . S
C923 C922 1.391 . S
H924 C932 0.950 . S
H925 C937 0.950 . S
H926 C934 0.950 . S
H927 C936 0.950 . S
H928 C938 0.950 . S
H929 C940 0.950 . S
H930 C942 0.950 . S
H931 C943 0.950 . S
C932 H924 0.950 . S
C932 C933 1.386 . S
C932 C934 1.391 . S
C933 C932 1.386 . S
C933 C937 1.393 . S
C934 H926 0.950 . S
C934 C932 1.391 . S
C934 C935 1.400 . S
C935 C934 1.400 . S
C935 C936 1.398 . S
C935 C941 1.491 . S
C936 H927 0.950 . S
C936 C935 1.398 . S
C936 C937 1.391 . S
C937 H925 0.950 . S
C937 C933 1.393 . S
C937 C936 1.391 . S
C938 H928 0.950 . S
C938 C939 1.386 . S
C938 C940 1.391 . S
C939 C938 1.386 . S
C939 C943 1.393 . S
C940 H929 0.950 . S
C940 C938 1.391 . S
C940 C941 1.400 . S
C941 C935 1.491 . S
C941 C940 1.400 . S
C941 C942 1.398 . S
C942 H930 0.950 . S
C942 C941 1.398 . S
C942 C943 1.391 . S
C943 H931 0.950 . S
C943 C939 1.393 . S
C943 C942 1.391 . S
H944 C952 0.950 . S
H945 C957 0.950 . S
H946 C954 0.950 . S
H947 C956 0.950 . S
H948 C958 0.950 . S
H949 C960 0.950 . S
H950 C962 0.950 . S
H951 C963 0.950 . S
C952 H944 0.950 . S
C952 C953 1.386 . S
C952 C954 1.391 . S
C953 C952 1.386 . S
C953 C957 1.393 . S
C954 H946 0.950 . S
C954 C952 1.391 . S
C954 C955 1.400 . S
C955 C954 1.400 . S
C955 C956 1.398 . S
C955 C961 1.491 . S
C956 H947 0.950 . S
C956 C955 1.398 . S
C956 C957 1.391 . S
C957 H945 0.950 . S
C957 C953 1.393 . S
C957 C956 1.391 . S
C958 H948 0.950 . S
C958 C959 1.386 . S
C958 C960 1.391 . S
C959 C958 1.386 . S
C959 C963 1.393 . S
C960 H949 0.950 . S
C960 C958 1.391 . S
C960 C961 1.400 . S
C961 C955 1.491 . S
C961 C960 1.400 . S
C961 C962 1.398 . S
C962 H950 0.950 . S
C962 C961 1.398 . S
C962 C963 1.391 . S
C963 H951 0.950 . S
C963 C959 1.393 . S
C963 C962 1.391 . S
H964 C972 0.950 . S
H965 C977 0.950 . S
H966 C974 0.950 . S
H967 C976 0.950 . S
H968 C978 0.950 . S
H969 C980 0.950 . S
H970 C982 0.950 . S
H971 C983 0.950 . S
C972 H964 0.950 . S
C972 C973 1.386 . S
C972 C974 1.391 . S
C973 C972 1.386 . S
C973 C977 1.393 . S
C974 H966 0.950 . S
C974 C972 1.391 . S
C974 C975 1.400 . S
C975 C974 1.400 . S
C975 C976 1.398 . S
C975 C981 1.491 . S
C976 H967 0.950 . S
C976 C975 1.398 . S
C976 C977 1.391 . S
C977 H965 0.950 . S
C977 C973 1.393 . S
C977 C976 1.391 . S
C978 H968 0.950 . S
C978 C979 1.386 . S
C978 C980 1.391 . S
C979 C978 1.386 . S
C979 C983 1.393 . S
C980 H969 0.950 . S
C980 C978 1.391 . S
C980 C981 1.400 . S
C981 C975 1.491 . S
C981 C980 1.400 . S
C981 C982 1.398 . S
C982 H970 0.950 . S
C982 C981 1.398 . S
C982 C983 1.391 . S
C983 H971 0.950 . S
C983 C979 1.393 . S
C983 C982 1.391 . S
H984 C992 0.950 . S
H985 C997 0.950 . S
H986 C994 0.950 . S
H987 C996 0.950 . S
H988 C998 0.950 . S
H989 C1000 0.950 . S
H990 C1002 0.950 . S
H991 C1003 0.950 . S
C992 H984 0.950 . S
C992 C993 1.386 . S
C992 C994 1.391 . S
C993 C992 1.386 . S
C993 C997 1.393 . S
C994 H986 0.950 . S
C994 C992 1.391 . S
C994 C995 1.400 . S
C995 C994 1.400 . S
C995 C996 1.398 . S
C995 C1001 1.491 . S
C996 H987 0.950 . S
C996 C995 1.398 . S
C996 C997 1.391 . S
C997 H985 0.950 . S
C997 C993 1.393 . S
C997 C996 1.391 . S
C998 H988 0.950 . S
C998 C999 1.386 . S
C998 C1000 1.391 . S
C999 C998 1.386 . S
C999 C1003 1.393 . S
C1000 H989 0.950 . S
C1000 C998 1.391 . S
C1000 C1001 1.400 . S
C1001 C995 1.491 . S
C1001 C1000 1.400 . S
C1001 C1002 1.398 . S
C1002 H990 0.950 . S
C1002 C1001 1.398 . S
C1002 C1003 1.391 . S
C1003 H991 0.950 . S
C1003 C999 1.393 . S
C1003 C1002 1.391 . S
H1004 C1012 0.950 . S
H1005 C1017 0.950 . S
H1006 C1014 0.950 . S
H1007 C1016 0.950 . S
H1008 C1018 0.950 . S
H1009 C1020 0.950 . S
H1010 C1022 0.950 . S
H1011 C1023 0.950 . S
C1012 H1004 0.950 . S
C1012 C1013 1.386 . S
C1012 C1014 1.391 . S
C1013 C1012 1.386 . S
C1013 C1017 1.393 . S
C1014 H1006 0.950 . S
C1014 C1012 1.391 . S
C1014 C1015 1.400 . S
C1015 C1014 1.400 . S
C1015 C1016 1.398 . S
C1015 C1021 1.491 . S
C1016 H1007 0.950 . S
C1016 C1015 1.398 . S
C1016 C1017 1.391 . S
C1017 H1005 0.950 . S
C1017 C1013 1.393 . S
C1017 C1016 1.391 . S
C1018 H1008 0.950 . S
C1018 C1019 1.386 . S
C1018 C1020 1.391 . S
C1019 C1018 1.386 . S
C1019 C1023 1.393 . S
C1020 H1009 0.950 . S
C1020 C1018 1.391 . S
C1020 C1021 1.400 . S
C1021 C1015 1.491 . S
C1021 C1020 1.400 . S
C1021 C1022 1.398 . S
C1022 H1010 0.950 . S
C1022 C1021 1.398 . S
C1022 C1023 1.391 . S
C1023 H1011 0.950 . S
C1023 C1019 1.393 . S
C1023 C1022 1.391 . S
H1024 C1032 0.950 . S
H1025 C1037 0.950 . S
H1026 C1034 0.950 . S
H1027 C1036 0.950 . S
H1028 C1038 0.950 . S
H1029 C1040 0.950 . S
H1030 C1042 0.950 . S
H1031 C1043 0.950 . S
C1032 H1024 0.950 . S
C1032 C1033 1.386 . S
C1032 C1034 1.391 . S
C1033 C1032 1.386 . S
C1033 C1037 1.393 . S
C1034 H1026 0.950 . S
C1034 C1032 1.391 . S
C1034 C1035 1.400 . S
C1035 C1034 1.400 . S
C1035 C1036 1.398 . S
C1035 C1041 1.491 . S
C1036 H1027 0.950 . S
C1036 C1035 1.398 . S
C1036 C1037 1.391 . S
C1037 H1025 0.950 . S
C1037 C1033 1.393 . S
C1037 C1036 1.391 . S
C1038 H1028 0.950 . S
C1038 C1039 1.386 . S
C1038 C1040 1.391 . S
C1039 C1038 1.386 . S
C1039 C1043 1.393 . S
C1040 H1029 0.950 . S
C1040 C1038 1.391 . S
C1040 C1041 1.400 . S
C1041 C1035 1.491 . S
C1041 C1040 1.400 . S
C1041 C1042 1.398 . S
C1042 H1030 0.950 . S
C1042 C1041 1.398 . S
C1042 C1043 1.391 . S
C1043 H1031 0.950 . S
C1043 C1039 1.393 . S
C1043 C1042 1.391 . S
H1044 C1052 0.950 . S
H1045 C1057 0.950 . S
H1046 C1054 0.950 . S
H1047 C1056 0.950 . S
H1048 C1058 0.950 . S
H1049 C1060 0.950 . S
H1050 C1062 0.950 . S
H1051 C1063 0.950 . S
C1052 H1044 0.950 . S
C1052 C1053 1.386 . S
C1052 C1054 1.391 . S
C1053 C1052 1.386 . S
C1053 C1057 1.393 . S
C1054 H1046 0.950 . S
C1054 C1052 1.391 . S
C1054 C1055 1.400 . S
C1055 C1054 1.400 . S
C1055 C1056 1.398 . S
C1055 C1061 1.491 . S
C1056 H1047 0.950 . S
C1056 C1055 1.398 . S
C1056 C1057 1.391 . S
C1057 H1045 0.950 . S
C1057 C1053 1.393 . S
C1057 C1056 1.391 . S
C1058 H1048 0.950 . S
C1058 C1059 1.386 . S
C1058 C1060 1.391 . S
C1059 C1058 1.386 . S
C1059 C1063 1.393 . S
C1060 H1049 0.950 . S
C1060 C1058 1.391 . S
C1060 C1061 1.400 . S
C1061 C1055 1.491 . S
C1061 C1060 1.400 . S
C1061 C1062 1.398 . S
C1062 H1050 0.950 . S
C1062 C1061 1.398 . S
C1062 C1063 1.391 . S
C1063 H1051 0.950 . S
C1063 C1059 1.393 . S
C1063 C1062 1.391 . S
H1064 C1072 0.950 . S
H1065 C1077 0.950 . S
H1066 C1074 0.950 . S
H1067 C1076 0.950 . S
H1068 C1078 0.950 . S
H1069 C1080 0.950 . S
H1070 C1082 0.950 . S
H1071 C1083 0.950 . S
C1072 H1064 0.950 . S
C1072 C1073 1.386 . S
C1072 C1074 1.391 . S
C1073 C1072 1.386 . S
C1073 C1077 1.393 . S
C1074 H1066 0.950 . S
C1074 C1072 1.391 . S
C1074 C1075 1.400 . S
C1075 C1074 1.400 . S
C1075 C1076 1.398 . S
C1075 C1081 1.491 . S
C1076 H1067 0.950 . S
C1076 C1075 1.398 . S
C1076 C1077 1.391 . S
C1077 H1065 0.950 . S
C1077 C1073 1.393 . S
C1077 C1076 1.391 . S
C1078 H1068 0.950 . S
C1078 C1079 1.386 . S
C1078 C1080 1.391 . S
C1079 C1078 1.386 . S
C1079 C1083 1.393 . S
C1080 H1069 0.950 . S
C1080 C1078 1.391 . S
C1080 C1081 1.400 . S
C1081 C1075 1.491 . S
C1081 C1080 1.400 . S
C1081 C1082 1.398 . S
C1082 H1070 0.950 . S
C1082 C1081 1.398 . S
C1082 C1083 1.391 . S
C1083 H1071 0.950 . S
C1083 C1079 1.393 . S
C1083 C1082 1.391 . S
H1084 C1092 0.950 . S
H1085 C1097 0.950 . S
H1086 C1094 0.950 . S
H1087 C1096 0.950 . S
H1088 C1098 0.950 . S
H1089 C1100 0.950 . S
H1090 C1102 0.950 . S
H1091 C1103 0.950 . S
C1092 H1084 0.950 . S
C1092 C1093 1.386 . S
C1092 C1094 1.391 . S
C1093 C1092 1.386 . S
C1093 C1097 1.393 . S
C1094 H1086 0.950 . S
C1094 C1092 1.391 . S
C1094 C1095 1.400 . S
C1095 C1094 1.400 . S
C1095 C1096 1.398 . S
C1095 C1101 1.491 . S
C1096 H1087 0.950 . S
C1096 C1095 1.398 . S
C1096 C1097 1.391 . S
C1097 H1085 0.950 . S
C1097 C1093 1.393 . S
C1097 C1096 1.391 . S
C1098 H1088 0.950 . S
C1098 C1099 1.386 . S
C1098 C1100 1.391 . S
C1099 C1098 1.386 . S
C1099 C1103 1.393 . S
C1100 H1089 0.950 . S
C1100 C1098 1.391 . S
C1100 C1101 1.400 . S
C1101 C1095 1.491 . S
C1101 C1100 1.400 . S
C1101 C1102 1.398 . S
C1102 H1090 0.950 . S
C1102 C1101 1.398 . S
C1102 C1103 1.391 . S
C1103 H1091 0.950 . S
C1103 C1099 1.393 . S
C1103 C1102 1.391 . S
H1104 C1112 0.950 . S
H1105 C1117 0.950 . S
H1106 C1114 0.950 . S
H1107 C1116 0.950 . S
H1108 C1118 0.950 . S
H1109 C1120 0.950 . S
H1110 C1122 0.950 . S
H1111 C1123 0.950 . S
C1112 H1104 0.950 . S
C1112 C1113 1.386 . S
C1112 C1114 1.391 . S
C1113 C1112 1.386 . S
C1113 C1117 1.393 . S
C1114 H1106 0.950 . S
C1114 C1112 1.391 . S
C1114 C1115 1.400 . S
C1115 C1114 1.400 . S
C1115 C1116 1.398 . S
C1115 C1121 1.491 . S
C1116 H1107 0.950 . S
C1116 C1115 1.398 . S
C1116 C1117 1.391 . S
C1117 H1105 0.950 . S
C1117 C1113 1.393 . S
C1117 C1116 1.391 . S
C1118 H1108 0.950 . S
C1118 C1119 1.386 . S
C1118 C1120 1.391 . S
C1119 C1118 1.386 . S
C1119 C1123 1.393 . S
C1120 H1109 0.950 . S
C1120 C1118 1.391 . S
C1120 C1121 1.400 . S
C1121 C1115 1.491 . S
C1121 C1120 1.400 . S
C1121 C1122 1.398 . S
C1122 H1110 0.950 . S
C1122 C1121 1.398 . S
C1122 C1123 1.391 . S
C1123 H1111 0.950 . S
C1123 C1119 1.393 . S
C1123 C1122 1.391 . S
H1124 C1132 0.950 . S
H1125 C1137 0.950 . S
H1126 C1134 0.950 . S
H1127 C1136 0.950 . S
H1128 C1138 0.950 . S
H1129 C1140 0.950 . S
H1130 C1142 0.950 . S
H1131 C1143 0.950 . S
C1132 H1124 0.950 . S
C1132 C1133 1.386 . S
C1132 C1134 1.391 . S
C1133 C1132 1.386 . S
C1133 C1137 1.393 . S
C1134 H1126 0.950 . S
C1134 C1132 1.391 . S
C1134 C1135 1.400 . S
C1135 C1134 1.400 . S
C1135 C1136 1.398 . S
C1135 C1141 1.491 1_556 S
C1136 H1127 0.950 . S
C1136 C1135 1.398 . S
C1136 C1137 1.391 . S
C1137 H1125 0.950 . S
C1137 C1133 1.393 . S
C1137 C1136 1.391 . S
C1138 H1128 0.950 . S
C1138 C1139 1.386 . S
C1138 C1140 1.391 . S
C1139 C1138 1.386 . S
C1139 C1143 1.393 . S
C1140 H1129 0.950 . S
C1140 C1138 1.391 . S
C1140 C1141 1.400 . S
C1141 C1135 1.491 1_554 S
C1141 C1140 1.400 . S
C1141 C1142 1.398 . S
C1142 H1130 0.950 . S
C1142 C1141 1.398 . S
C1142 C1143 1.391 . S
C1143 H1131 0.950 . S
C1143 C1139 1.393 . S
C1143 C1142 1.391 . S
H1144 C1152 0.950 . S
H1145 C1157 0.950 . S
H1146 C1154 0.950 . S
H1147 C1156 0.950 . S
H1148 C1158 0.950 . S
H1149 C1160 0.950 . S
H1150 C1162 0.950 . S
H1151 C1163 0.950 . S
C1152 H1144 0.950 . S
C1152 C1153 1.386 . S
C1152 C1154 1.391 . S
C1153 C1152 1.386 . S
C1153 C1157 1.393 . S
C1154 H1146 0.950 . S
C1154 C1152 1.391 . S
C1154 C1155 1.400 . S
C1155 C1154 1.400 . S
C1155 C1156 1.398 . S
C1155 C1161 1.491 . S
C1156 H1147 0.950 . S
C1156 C1155 1.398 . S
C1156 C1157 1.391 . S
C1157 H1145 0.950 . S
C1157 C1153 1.393 . S
C1157 C1156 1.391 . S
C1158 H1148 0.950 . S
C1158 C1159 1.386 . S
C1158 C1160 1.391 . S
C1159 C1158 1.386 . S
C1159 C1163 1.393 . S
C1160 H1149 0.950 . S
C1160 C1158 1.391 . S
C1160 C1161 1.400 . S
C1161 C1155 1.491 . S
C1161 C1160 1.400 . S
C1161 C1162 1.398 . S
C1162 H1150 0.950 . S
C1162 C1161 1.398 . S
C1162 C1163 1.391 . S
C1163 H1151 0.950 . S
C1163 C1159 1.393 . S
C1163 C1162 1.391 . S
H1164 C1172 0.950 . S
H1165 C1177 0.950 . S
H1166 C1174 0.950 . S
H1167 C1176 0.950 . S
H1168 C1178 0.950 . S
H1169 C1180 0.950 . S
H1170 C1182 0.950 . S
H1171 C1183 0.950 . S
C1172 H1164 0.950 . S
C1172 C1173 1.386 . S
C1172 C1174 1.391 . S
C1173 C1172 1.386 . S
C1173 C1177 1.393 . S
C1174 H1166 0.950 . S
C1174 C1172 1.391 . S
C1174 C1175 1.400 . S
C1175 C1174 1.400 . S
C1175 C1176 1.398 . S
C1175 C1181 1.491 1_556 S
C1176 H1167 0.950 . S
C1176 C1175 1.398 . S
C1176 C1177 1.391 . S
C1177 H1165 0.950 . S
C1177 C1173 1.393 . S
C1177 C1176 1.391 . S
C1178 H1168 0.950 . S
C1178 C1179 1.386 . S
C1178 C1180 1.391 . S
C1179 C1178 1.386 . S
C1179 C1183 1.393 . S
C1180 H1169 0.950 . S
C1180 C1178 1.391 . S
C1180 C1181 1.400 . S
C1181 C1175 1.491 1_554 S
C1181 C1180 1.400 . S
C1181 C1182 1.398 . S
C1182 H1170 0.950 . S
C1182 C1181 1.398 . S
C1182 C1183 1.391 . S
C1183 H1171 0.950 . S
C1183 C1179 1.393 . S
C1183 C1182 1.391 . S
H1184 C1192 0.950 . S
H1185 C1197 0.950 . S
H1186 C1194 0.950 . S
H1187 C1196 0.950 . S
H1188 C1198 0.950 . S
H1189 C1200 0.950 . S
H1190 C1202 0.950 . S
H1191 C1203 0.950 . S
C1192 H1184 0.950 . S
C1192 C1193 1.386 . S
C1192 C1194 1.391 . S
C1193 C1192 1.386 . S
C1193 C1197 1.393 . S
C1194 H1186 0.950 . S
C1194 C1192 1.391 . S
C1194 C1195 1.400 . S
C1195 C1194 1.400 . S
C1195 C1196 1.398 . S
C1195 C1201 1.491 . S
C1196 H1187 0.950 . S
C1196 C1195 1.398 . S
C1196 C1197 1.391 . S
C1197 H1185 0.950 . S
C1197 C1193 1.393 . S
C1197 C1196 1.391 . S
C1198 H1188 0.950 . S
C1198 C1199 1.386 . S
C1198 C1200 1.391 . S
C1199 C1198 1.386 . S
C1199 C1203 1.393 . S
C1200 H1189 0.950 . S
C1200 C1198 1.391 . S
C1200 C1201 1.400 . S
C1201 C1195 1.491 . S
C1201 C1200 1.400 . S
C1201 C1202 1.398 . S
C1202 H1190 0.950 . S
C1202 C1201 1.398 . S
C1202 C1203 1.391 . S
C1203 H1191 0.950 . S
C1203 C1199 1.393 . S
C1203 C1202 1.391 . S
H1204 C1212 0.950 . S
H1205 C1217 0.950 . S
H1206 C1214 0.950 . S
H1207 C1216 0.950 . S
H1208 C1218 0.950 . S
H1209 C1220 0.950 . S
H1210 C1222 0.950 . S
H1211 C1223 0.950 . S
C1212 H1204 0.950 . S
C1212 C1213 1.386 . S
C1212 C1214 1.391 . S
C1213 C1212 1.386 . S
C1213 C1217 1.393 . S
C1214 H1206 0.950 . S
C1214 C1212 1.391 . S
C1214 C1215 1.400 . S
C1215 C1214 1.400 . S
C1215 C1216 1.398 . S
C1215 C1221 1.491 1_556 S
C1216 H1207 0.950 . S
C1216 C1215 1.398 . S
C1216 C1217 1.391 . S
C1217 H1205 0.950 . S
C1217 C1213 1.393 . S
C1217 C1216 1.391 . S
C1218 H1208 0.950 . S
C1218 C1219 1.386 . S
C1218 C1220 1.391 . S
C1219 C1218 1.386 . S
C1219 C1223 1.393 . S
C1220 H1209 0.950 . S
C1220 C1218 1.391 . S
C1220 C1221 1.400 . S
C1221 C1215 1.491 1_554 S
C1221 C1220 1.400 . S
C1221 C1222 1.398 . S
C1222 H1210 0.950 . S
C1222 C1221 1.398 . S
C1222 C1223 1.391 . S
C1223 H1211 0.950 . S
C1223 C1219 1.393 . S
C1223 C1222 1.391 . S
H1224 C1232 0.950 . S
H1225 C1237 0.950 . S
H1226 C1234 0.950 . S
H1227 C1236 0.950 . S
H1228 C1238 0.950 . S
H1229 C1240 0.950 . S
H1230 C1242 0.950 . S
H1231 C1243 0.950 . S
C1232 H1224 0.950 . S
C1232 C1233 1.386 . S
C1232 C1234 1.391 . S
C1233 C1232 1.386 . S
C1233 C1237 1.393 . S
C1234 H1226 0.950 . S
C1234 C1232 1.391 . S
C1234 C1235 1.400 . S
C1235 C1234 1.400 . S
C1235 C1236 1.398 . S
C1235 C1241 1.491 . S
C1236 H1227 0.950 . S
C1236 C1235 1.398 . S
C1236 C1237 1.391 . S
C1237 H1225 0.950 . S
C1237 C1233 1.393 . S
C1237 C1236 1.391 . S
C1238 H1228 0.950 . S
C1238 C1239 1.386 . S
C1238 C1240 1.391 . S
C1239 C1238 1.386 . S
C1239 C1243 1.393 . S
C1240 H1229 0.950 . S
C1240 C1238 1.391 . S
C1240 C1241 1.400 . S
C1241 C1235 1.491 . S
C1241 C1240 1.400 . S
C1241 C1242 1.398 . S
C1242 H1230 0.950 . S
C1242 C1241 1.398 . S
C1242 C1243 1.391 . S
C1243 H1231 0.950 . S
C1243 C1239 1.393 . S
C1243 C1242 1.391 . S
H1244 C1252 0.950 . S
H1245 C1257 0.950 . S
H1246 C1254 0.950 . S
H1247 C1256 0.950 . S
H1248 C1258 0.950 . S
H1249 C1260 0.950 . S
H1250 C1262 0.950 . S
H1251 C1263 0.950 . S
C1252 H1244 0.950 . S
C1252 C1253 1.386 . S
C1252 C1254 1.391 . S
C1253 C1252 1.386 . S
C1253 C1257 1.393 . S
C1254 H1246 0.950 . S
C1254 C1252 1.391 . S
C1254 C1255 1.400 . S
C1255 C1254 1.400 . S
C1255 C1256 1.398 . S
C1255 C1261 1.491 1_556 S
C1256 H1247 0.950 . S
C1256 C1255 1.398 . S
C1256 C1257 1.391 . S
C1257 H1245 0.950 . S
C1257 C1253 1.393 . S
C1257 C1256 1.391 . S
C1258 H1248 0.950 . S
C1258 C1259 1.386 . S
C1258 C1260 1.391 . S
C1259 C1258 1.386 . S
C1259 C1263 1.393 . S
C1260 H1249 0.950 . S
C1260 C1258 1.391 . S
C1260 C1261 1.400 . S
C1261 C1255 1.491 1_554 S
C1261 C1260 1.400 . S
C1261 C1262 1.398 . S
C1262 H1250 0.950 . S
C1262 C1261 1.398 . S
C1262 C1263 1.391 . S
C1263 H1251 0.950 . S
C1263 C1259 1.393 . S
C1263 C1262 1.391 . S
H1264 C1272 0.950 . S
H1265 C1277 0.950 . S
H1266 C1274 0.950 . S
H1267 C1276 0.950 . S
H1268 C1278 0.950 . S
H1269 C1280 0.950 . S
H1270 C1282 0.950 . S
H1271 C1283 0.950 . S
C1272 H1264 0.950 . S
C1272 C1273 1.386 . S
C1272 C1274 1.391 . S
C1273 C1272 1.386 . S
C1273 C1277 1.393 . S
C1274 H1266 0.950 . S
C1274 C1272 1.391 . S
C1274 C1275 1.400 . S
C1275 C1274 1.400 . S
C1275 C1276 1.398 . S
C1275 C1281 1.491 . S
C1276 H1267 0.950 . S
C1276 C1275 1.398 . S
C1276 C1277 1.391 . S
C1277 H1265 0.950 . S
C1277 C1273 1.393 . S
C1277 C1276 1.391 . S
C1278 H1268 0.950 . S
C1278 C1279 1.386 . S
C1278 C1280 1.391 . S
C1279 C1278 1.386 . S
C1279 C1283 1.393 . S
C1280 H1269 0.950 . S
C1280 C1278 1.391 . S
C1280 C1281 1.400 . S
C1281 C1275 1.491 . S
C1281 C1280 1.400 . S
C1281 C1282 1.398 . S
C1282 H1270 0.950 . S
C1282 C1281 1.398 . S
C1282 C1283 1.391 . S
C1283 H1271 0.950 . S
C1283 C1279 1.393 . S
C1283 C1282 1.391 . S
H1284 C1292 0.950 . S
H1285 C1297 0.950 . S
H1286 C1294 0.950 . S
H1287 C1296 0.950 . S
H1288 C1298 0.950 . S
H1289 C1300 0.950 . S
H1290 C1302 0.950 . S
H1291 C1303 0.950 . S
C1292 H1284 0.950 . S
C1292 C1293 1.386 . S
C1292 C1294 1.391 . S
C1293 C1292 1.386 . S
C1293 C1297 1.393 . S
C1294 H1286 0.950 . S
C1294 C1292 1.391 . S
C1294 C1295 1.400 . S
C1295 C1294 1.400 . S
C1295 C1296 1.398 . S
C1295 C1301 1.491 1_565 S
C1296 H1287 0.950 . S
C1296 C1295 1.398 . S
C1296 C1297 1.391 . S
C1297 H1285 0.950 . S
C1297 C1293 1.393 . S
C1297 C1296 1.391 . S
C1298 H1288 0.950 . S
C1298 C1299 1.386 . S
C1298 C1300 1.391 . S
C1299 C1298 1.386 . S
C1299 C1303 1.393 . S
C1300 H1289 0.950 . S
C1300 C1298 1.391 . S
C1300 C1301 1.400 . S
C1301 C1295 1.491 1_545 S
C1301 C1300 1.400 . S
C1301 C1302 1.398 . S
C1302 H1290 0.950 . S
C1302 C1301 1.398 . S
C1302 C1303 1.391 . S
C1303 H1291 0.950 . S
C1303 C1299 1.393 . S
C1303 C1302 1.391 . S
H1304 C1312 0.950 . S
H1305 C1317 0.950 . S
H1306 C1314 0.950 . S
H1307 C1316 0.950 . S
H1308 C1318 0.950 . S
H1309 C1320 0.950 . S
H1310 C1322 0.950 . S
H1311 C1323 0.950 . S
C1312 H1304 0.950 . S
C1312 C1313 1.386 . S
C1312 C1314 1.391 . S
C1313 C1312 1.386 . S
C1313 C1317 1.393 . S
C1314 H1306 0.950 . S
C1314 C1312 1.391 . S
C1314 C1315 1.400 . S
C1315 C1314 1.400 . S
C1315 C1316 1.398 . S
C1315 C1321 1.491 . S
C1316 H1307 0.950 . S
C1316 C1315 1.398 . S
C1316 C1317 1.391 . S
C1317 H1305 0.950 . S
C1317 C1313 1.393 . S
C1317 C1316 1.391 . S
C1318 H1308 0.950 . S
C1318 C1319 1.386 . S
C1318 C1320 1.391 . S
C1319 C1318 1.386 . S
C1319 C1323 1.393 . S
C1320 H1309 0.950 . S
C1320 C1318 1.391 . S
C1320 C1321 1.400 . S
C1321 C1315 1.491 . S
C1321 C1320 1.400 . S
C1321 C1322 1.398 . S
C1322 H1310 0.950 . S
C1322 C1321 1.398 . S
C1322 C1323 1.391 . S
C1323 H1311 0.950 . S
C1323 C1319 1.393 . S
C1323 C1322 1.391 . S
H1324 C1332 0.950 . S
H1325 C1337 0.950 . S
H1326 C1334 0.950 . S
H1327 C1336 0.950 . S
H1328 C1338 0.950 . S
H1329 C1340 0.950 . S
H1330 C1342 0.950 . S
H1331 C1343 0.950 . S
C1332 H1324 0.950 . S
C1332 C1333 1.386 . S
C1332 C1334 1.391 . S
C1333 C1332 1.386 . S
C1333 C1337 1.393 . S
C1334 H1326 0.950 . S
C1334 C1332 1.391 . S
C1334 C1335 1.400 . S
C1335 C1334 1.400 . S
C1335 C1336 1.398 . S
C1335 C1341 1.491 1_545 S
C1336 H1327 0.950 . S
C1336 C1335 1.398 . S
C1336 C1337 1.391 . S
C1337 H1325 0.950 . S
C1337 C1333 1.393 . S
C1337 C1336 1.391 . S
C1338 H1328 0.950 . S
C1338 C1339 1.386 . S
C1338 C1340 1.391 . S
C1339 C1338 1.386 . S
C1339 C1343 1.393 . S
C1340 H1329 0.950 . S
C1340 C1338 1.391 . S
C1340 C1341 1.400 . S
C1341 C1335 1.491 1_565 S
C1341 C1340 1.400 . S
C1341 C1342 1.398 . S
C1342 H1330 0.950 . S
C1342 C1341 1.398 . S
C1342 C1343 1.391 . S
C1343 H1331 0.950 . S
C1343 C1339 1.393 . S
C1343 C1342 1.391 . S
H1344 C1352 0.950 . S
H1345 C1357 0.950 . S
H1346 C1354 0.950 . S
H1347 C1356 0.950 . S
H1348 C1358 0.950 . S
H1349 C1360 0.950 . S
H1350 C1362 0.950 . S
H1351 C1363 0.950 . S
C1352 H1344 0.950 . S
C1352 C1353 1.386 . S
C1352 C1354 1.391 . S
C1353 C1352 1.386 . S
C1353 C1357 1.393 . S
C1354 H1346 0.950 . S
C1354 C1352 1.391 . S
C1354 C1355 1.400 . S
C1355 C1354 1.400 . S
C1355 C1356 1.398 . S
C1355 C1361 1.491 . S
C1356 H1347 0.950 . S
C1356 C1355 1.398 . S
C1356 C1357 1.391 . S
C1357 H1345 0.950 . S
C1357 C1353 1.393 . S
C1357 C1356 1.391 . S
C1358 H1348 0.950 . S
C1358 C1359 1.386 . S
C1358 C1360 1.391 . S
C1359 C1358 1.386 . S
C1359 C1363 1.393 . S
C1360 H1349 0.950 . S
C1360 C1358 1.391 . S
C1360 C1361 1.400 . S
C1361 C1355 1.491 . S
C1361 C1360 1.400 . S
C1361 C1362 1.398 . S
C1362 H1350 0.950 . S
C1362 C1361 1.398 . S
C1362 C1363 1.391 . S
C1363 H1351 0.950 . S
C1363 C1359 1.393 . S
C1363 C1362 1.391 . S
H1364 C1372 0.950 . S
H1365 C1377 0.950 . S
H1366 C1374 0.950 . S
H1367 C1376 0.950 . S
H1368 C1378 0.950 . S
H1369 C1380 0.950 . S
H1370 C1382 0.950 . S
H1371 C1383 0.950 . S
C1372 H1364 0.950 . S
C1372 C1373 1.386 . S
C1372 C1374 1.391 . S
C1373 C1372 1.386 . S
C1373 C1377 1.393 . S
C1374 H1366 0.950 . S
C1374 C1372 1.391 . S
C1374 C1375 1.400 . S
C1375 C1374 1.400 . S
C1375 C1376 1.398 . S
C1375 C1381 1.491 1_565 S
C1376 H1367 0.950 . S
C1376 C1375 1.398 . S
C1376 C1377 1.391 . S
C1377 H1365 0.950 . S
C1377 C1373 1.393 . S
C1377 C1376 1.391 . S
C1378 H1368 0.950 . S
C1378 C1379 1.386 . S
C1378 C1380 1.391 . S
C1379 C1378 1.386 . S
C1379 C1383 1.393 . S
C1380 H1369 0.950 . S
C1380 C1378 1.391 . S
C1380 C1381 1.400 . S
C1381 C1375 1.491 1_545 S
C1381 C1380 1.400 . S
C1381 C1382 1.398 . S
C1382 H1370 0.950 . S
C1382 C1381 1.398 . S
C1382 C1383 1.391 . S
C1383 H1371 0.950 . S
C1383 C1379 1.393 . S
C1383 C1382 1.391 . S
H1384 C1392 0.950 . S
H1385 C1397 0.950 . S
H1386 C1394 0.950 . S
H1387 C1396 0.950 . S
H1388 C1398 0.950 . S
H1389 C1400 0.950 . S
H1390 C1402 0.950 . S
H1391 C1403 0.950 . S
C1392 H1384 0.950 . S
C1392 C1393 1.386 . S
C1392 C1394 1.391 . S
C1393 C1392 1.386 . S
C1393 C1397 1.393 . S
C1394 H1386 0.950 . S
C1394 C1392 1.391 . S
C1394 C1395 1.400 . S
C1395 C1394 1.400 . S
C1395 C1396 1.398 . S
C1395 C1401 1.491 . S
C1396 H1387 0.950 . S
C1396 C1395 1.398 . S
C1396 C1397 1.391 . S
C1397 H1385 0.950 . S
C1397 C1393 1.393 . S
C1397 C1396 1.391 . S
C1398 H1388 0.950 . S
C1398 C1399 1.386 . S
C1398 C1400 1.391 . S
C1399 C1398 1.386 . S
C1399 C1403 1.393 . S
C1400 H1389 0.950 . S
C1400 C1398 1.391 . S
C1400 C1401 1.400 . S
C1401 C1395 1.491 . S
C1401 C1400 1.400 . S
C1401 C1402 1.398 . S
C1402 H1390 0.950 . S
C1402 C1401 1.398 . S
C1402 C1403 1.391 . S
C1403 H1391 0.950 . S
C1403 C1399 1.393 . S
C1403 C1402 1.391 . S
H1404 C1412 0.950 . S
H1405 C1417 0.950 . S
H1406 C1414 0.950 . S
H1407 C1416 0.950 . S
H1408 C1418 0.950 . S
H1409 C1420 0.950 . S
H1410 C1422 0.950 . S
H1411 C1423 0.950 . S
C1412 H1404 0.950 . S
C1412 C1413 1.386 . S
C1412 C1414 1.391 . S
C1413 C1412 1.386 . S
C1413 C1417 1.393 . S
C1414 H1406 0.950 . S
C1414 C1412 1.391 . S
C1414 C1415 1.400 . S
C1415 C1414 1.400 . S
C1415 C1416 1.398 . S
C1415 C1421 1.491 1_565 S
C1416 H1407 0.950 . S
C1416 C1415 1.398 . S
C1416 C1417 1.391 . S
C1417 H1405 0.950 . S
C1417 C1413 1.393 . S
C1417 C1416 1.391 . S
C1418 H1408 0.950 . S
C1418 C1419 1.386 . S
C1418 C1420 1.391 . S
C1419 C1418 1.386 . S
C1419 C1423 1.393 . S
C1420 H1409 0.950 . S
C1420 C1418 1.391 . S
C1420 C1421 1.400 . S
C1421 C1415 1.491 1_545 S
C1421 C1420 1.400 . S
C1421 C1422 1.398 . S
C1422 H1410 0.950 . S
C1422 C1421 1.398 . S
C1422 C1423 1.391 . S
C1423 H1411 0.950 . S
C1423 C1419 1.393 . S
C1423 C1422 1.391 . S
H1424 C1432 0.950 . S
H1425 C1437 0.950 . S
H1426 C1434 0.950 . S
H1427 C1436 0.950 . S
H1428 C1438 0.950 . S
H1429 C1440 0.950 . S
H1430 C1442 0.950 . S
H1431 C1443 0.950 . S
C1432 H1424 0.950 . S
C1432 C1433 1.386 . S
C1432 C1434 1.391 . S
C1433 C1432 1.386 . S
C1433 C1437 1.393 . S
C1434 H1426 0.950 . S
C1434 C1432 1.391 . S
C1434 C1435 1.400 . S
C1435 C1434 1.400 . S
C1435 C1436 1.398 . S
C1435 C1441 1.491 . S
C1436 H1427 0.950 . S
C1436 C1435 1.398 . S
C1436 C1437 1.391 . S
C1437 H1425 0.950 . S
C1437 C1433 1.393 . S
C1437 C1436 1.391 . S
C1438 H1428 0.950 . S
C1438 C1439 1.386 . S
C1438 C1440 1.391 . S
C1439 C1438 1.386 . S
C1439 C1443 1.393 . S
C1440 H1429 0.950 . S
C1440 C1438 1.391 . S
C1440 C1441 1.400 . S
C1441 C1435 1.491 . S
C1441 C1440 1.400 . S
C1441 C1442 1.398 . S
C1442 H1430 0.950 . S
C1442 C1441 1.398 . S
C1442 C1443 1.391 . S
C1443 H1431 0.950 . S
C1443 C1439 1.393 . S
C1443 C1442 1.391 . S
H1444 C1452 0.950 . S
H1445 C1457 0.950 . S
H1446 C1454 0.950 . S
H1447 C1456 0.950 . S
H1448 C1458 0.950 . S
H1449 C1460 0.950 . S
H1450 C1462 0.950 . S
H1451 C1463 0.950 . S
C1452 H1444 0.950 . S
C1452 C1453 1.386 . S
C1452 C1454 1.391 . S
C1453 C1452 1.386 . S
C1453 C1457 1.393 . S
C1454 H1446 0.950 . S
C1454 C1452 1.391 . S
C1454 C1455 1.400 . S
C1455 C1454 1.400 . S
C1455 C1456 1.398 . S
C1455 C1461 1.491 . S
C1456 H1447 0.950 . S
C1456 C1455 1.398 . S
C1456 C1457 1.391 . S
C1457 H1445 0.950 . S
C1457 C1453 1.393 . S
C1457 C1456 1.391 . S
C1458 H1448 0.950 . S
C1458 C1459 1.386 . S
C1458 C1460 1.391 . S
C1459 C1458 1.386 . S
C1459 C1463 1.393 . S
C1460 H1449 0.950 . S
C1460 C1458 1.391 . S
C1460 C1461 1.400 . S
C1461 C1455 1.491 . S
C1461 C1460 1.400 . S
C1461 C1462 1.398 . S
C1462 H1450 0.950 . S
C1462 C1461 1.398 . S
C1462 C1463 1.391 . S
C1463 H1451 0.950 . S
C1463 C1459 1.393 . S
C1463 C1462 1.391 . S
H1464 C1472 0.950 . S
H1465 C1477 0.950 . S
H1466 C1474 0.950 . S
H1467 C1476 0.950 . S
H1468 C1478 0.950 . S
H1469 C1480 0.950 . S
H1470 C1482 0.950 . S
H1471 C1483 0.950 . S
C1472 H1464 0.950 . S
C1472 C1473 1.386 . S
C1472 C1474 1.391 . S
C1473 C1472 1.386 . S
C1473 C1477 1.393 . S
C1474 H1466 0.950 . S
C1474 C1472 1.391 . S
C1474 C1475 1.400 . S
C1475 C1474 1.400 . S
C1475 C1476 1.398 . S
C1475 C1481 1.491 1_455 S
C1476 H1467 0.950 . S
C1476 C1475 1.398 . S
C1476 C1477 1.391 . S
C1477 H1465 0.950 . S
C1477 C1473 1.393 . S
C1477 C1476 1.391 . S
C1478 H1468 0.950 . S
C1478 C1479 1.386 . S
C1478 C1480 1.391 . S
C1479 C1478 1.386 . S
C1479 C1483 1.393 . S
C1480 H1469 0.950 . S
C1480 C1478 1.391 . S
C1480 C1481 1.400 . S
C1481 C1475 1.491 1_655 S
C1481 C1480 1.400 . S
C1481 C1482 1.398 . S
C1482 H1470 0.950 . S
C1482 C1481 1.398 . S
C1482 C1483 1.391 . S
C1483 H1471 0.950 . S
C1483 C1479 1.393 . S
C1483 C1482 1.391 . S
H1484 C1492 0.950 . S
H1485 C1497 0.950 . S
H1486 C1494 0.950 . S
H1487 C1496 0.950 . S
H1488 C1498 0.950 . S
H1489 C1500 0.950 . S
H1490 C1502 0.950 . S
H1491 C1503 0.950 . S
C1492 H1484 0.950 . S
C1492 C1493 1.386 . S
C1492 C1494 1.391 . S
C1493 C1492 1.386 . S
C1493 C1497 1.393 . S
C1494 H1486 0.950 . S
C1494 C1492 1.391 . S
C1494 C1495 1.400 . S
C1495 C1494 1.400 . S
C1495 C1496 1.398 . S
C1495 C1501 1.491 . S
C1496 H1487 0.950 . S
C1496 C1495 1.398 . S
C1496 C1497 1.391 . S
C1497 H1485 0.950 . S
C1497 C1493 1.393 . S
C1497 C1496 1.391 . S
C1498 H1488 0.950 . S
C1498 C1499 1.386 . S
C1498 C1500 1.391 . S
C1499 C1498 1.386 . S
C1499 C1503 1.393 . S
C1500 H1489 0.950 . S
C1500 C1498 1.391 . S
C1500 C1501 1.400 . S
C1501 C1495 1.491 . S
C1501 C1500 1.400 . S
C1501 C1502 1.398 . S
C1502 H1490 0.950 . S
C1502 C1501 1.398 . S
C1502 C1503 1.391 . S
C1503 H1491 0.950 . S
C1503 C1499 1.393 . S
C1503 C1502 1.391 . S
H1504 C1512 0.950 . S
H1505 C1517 0.950 . S
H1506 C1514 0.950 . S
H1507 C1516 0.950 . S
H1508 C1518 0.950 . S
H1509 C1520 0.950 . S
H1510 C1522 0.950 . S
H1511 C1523 0.950 . S
C1512 H1504 0.950 . S
C1512 C1513 1.386 . S
C1512 C1514 1.391 . S
C1513 C1512 1.386 . S
C1513 C1517 1.393 . S
C1514 H1506 0.950 . S
C1514 C1512 1.391 . S
C1514 C1515 1.400 . S
C1515 C1514 1.400 . S
C1515 C1516 1.398 . S
C1515 C1521 1.491 1_455 S
C1516 H1507 0.950 . S
C1516 C1515 1.398 . S
C1516 C1517 1.391 . S
C1517 H1505 0.950 . S
C1517 C1513 1.393 . S
C1517 C1516 1.391 . S
C1518 H1508 0.950 . S
C1518 C1519 1.386 . S
C1518 C1520 1.391 . S
C1519 C1518 1.386 . S
C1519 C1523 1.393 . S
C1520 H1509 0.950 . S
C1520 C1518 1.391 . S
C1520 C1521 1.400 . S
C1521 C1515 1.491 1_655 S
C1521 C1520 1.400 . S
C1521 C1522 1.398 . S
C1522 H1510 0.950 . S
C1522 C1521 1.398 . S
C1522 C1523 1.391 . S
C1523 H1511 0.950 . S
C1523 C1519 1.393 . S
C1523 C1522 1.391 . S
H1524 C1532 0.950 . S
H1525 C1537 0.950 . S
H1526 C1534 0.950 . S
H1527 C1536 0.950 . S
H1528 C1538 0.950 . S
H1529 C1540 0.950 . S
H1530 C1542 0.950 . S
H1531 C1543 0.950 . S
C1532 H1524 0.950 . S
C1532 C1533 1.386 . S
C1532 C1534 1.391 . S
C1533 C1532 1.386 . S
C1533 C1537 1.393 . S
C1534 H1526 0.950 . S
C1534 C1532 1.391 . S
C1534 C1535 1.400 . S
C1535 C1534 1.400 . S
C1535 C1536 1.398 . S
C1535 C1541 1.491 . S
C1536 H1527 0.950 . S
C1536 C1535 1.398 . S
C1536 C1537 1.391 . S
C1537 H1525 0.950 . S
C1537 C1533 1.393 . S
C1537 C1536 1.391 . S
C1538 H1528 0.950 . S
C1538 C1539 1.386 . S
C1538 C1540 1.391 . S
C1539 C1538 1.386 . S
C1539 C1543 1.393 . S
C1540 H1529 0.950 . S
C1540 C1538 1.391 . S
C1540 C1541 1.400 . S
C1541 C1535 1.491 . S
C1541 C1540 1.400 . S
C1541 C1542 1.398 . S
C1542 H1530 0.950 . S
C1542 C1541 1.398 . S
C1542 C1543 1.391 . S
C1543 H1531 0.950 . S
C1543 C1539 1.393 . S
C1543 C1542 1.391 . S
H1544 C1552 0.950 . S
H1545 C1557 0.950 . S
H1546 C1554 0.950 . S
H1547 C1556 0.950 . S
H1548 C1558 0.950 . S
H1549 C1560 0.930 1_655 S
H1550 C1562 0.950 1_655 S
H1551 C1563 0.950 . S
C1552 H1544 0.950 . S
C1552 C1553 1.386 . S
C1552 C1554 1.391 . S
C1553 C1552 1.386 . S
C1553 C1557 1.393 . S
C1554 H1546 0.950 . S
C1554 C1552 1.391 . S
C1554 C1555 1.400 . S
C1555 C1554 1.400 . S
C1555 C1556 1.398 . S
C1555 C1561 1.491 . S
C1556 H1547 0.950 . S
C1556 C1555 1.398 . S
C1556 C1557 1.391 . S
C1557 H1545 0.950 . S
C1557 C1553 1.393 . S
C1557 C1556 1.391 . S
C1558 H1548 0.950 . S
C1558 C1559 1.386 . S
C1558 C1560 1.391 . S
C1559 C1558 1.386 . S
C1559 C1563 1.393 . S
C1560 H1549 0.930 1_455 S
C1560 C1558 1.391 . S
C1560 C1561 1.400 1_455 S
C1561 C1555 1.491 . S
C1561 C1560 1.400 1_655 S
C1561 C1562 1.398 1_655 S
C1562 H1550 0.950 1_455 S
C1562 C1561 1.398 1_455 S
C1562 C1563 1.391 . S
C1563 H1551 0.950 . S
C1563 C1559 1.393 . S
C1563 C1562 1.391 . S
H1564 C1572 0.950 . S
H1565 C1577 0.950 . S
H1566 C1574 0.950 . S
H1567 C1576 0.950 . S
H1568 C1578 0.950 . S
H1569 C1580 0.950 1_455 S
H1570 C1582 0.950 1_455 S
H1571 C1583 0.950 . S
C1572 H1564 0.950 . S
C1572 C1573 1.386 . S
C1572 C1574 1.391 . S
C1573 C1572 1.386 . S
C1573 C1577 1.393 . S
C1574 H1566 0.950 . S
C1574 C1572 1.391 . S
C1574 C1575 1.400 . S
C1575 C1574 1.400 . S
C1575 C1576 1.398 . S
C1575 C1581 1.491 . S
C1576 H1567 0.950 . S
C1576 C1575 1.398 . S
C1576 C1577 1.391 . S
C1577 H1565 0.950 . S
C1577 C1573 1.393 . S
C1577 C1576 1.391 . S
C1578 H1568 0.950 . S
C1578 C1579 1.386 . S
C1578 C1580 1.391 . S
C1579 C1578 1.386 . S
C1579 C1583 1.393 . S
C1580 H1569 0.950 1_655 S
C1580 C1578 1.391 . S
C1580 C1581 1.400 1_655 S
C1581 C1575 1.491 . S
C1581 C1580 1.400 1_455 S
C1581 C1582 1.398 1_455 S
C1582 H1570 0.950 1_655 S
C1582 C1581 1.398 1_655 S
C1582 C1583 1.391 . S
C1583 H1571 0.950 . S
C1583 C1579 1.393 . S
C1583 C1582 1.391 . S
H1584 C1592 0.950 . S
H1585 C1597 0.950 . S
H1586 C1594 0.950 . S
H1587 C1596 0.950 . S
H1588 C1598 0.950 . S
H1589 C1600 0.950 . S
H1590 C1602 0.950 . S
H1591 C1603 0.950 . S
C1592 H1584 0.950 . S
C1592 C1593 1.386 . S
C1592 C1594 1.391 . S
C1593 C1592 1.386 . S
C1593 C1597 1.393 . S
C1594 H1586 0.950 . S
C1594 C1592 1.391 . S
C1594 C1595 1.400 . S
C1595 C1594 1.400 . S
C1595 C1596 1.398 . S
C1595 C1601 1.491 1_655 S
C1596 H1587 0.950 . S
C1596 C1595 1.398 . S
C1596 C1597 1.391 . S
C1597 H1585 0.950 . S
C1597 C1593 1.393 . S
C1597 C1596 1.391 . S
C1598 H1588 0.950 . S
C1598 C1599 1.386 . S
C1598 C1600 1.391 . S
C1599 C1598 1.386 . S
C1599 C1603 1.393 . S
C1600 H1589 0.950 . S
C1600 C1598 1.391 . S
C1600 C1601 1.400 . S
C1601 C1595 1.491 1_455 S
C1601 C1600 1.400 . S
C1601 C1602 1.398 . S
C1602 H1590 0.950 . S
C1602 C1601 1.398 . S
C1602 C1603 1.391 . S
C1603 H1591 0.950 . S
C1603 C1599 1.393 . S
C1603 C1602 1.391 . S
H1604 C1612 0.950 . S
H1605 C1617 0.950 . S
H1606 C1614 0.950 . S
H1607 C1616 0.950 . S
H1608 C1618 0.950 . S
H1609 C1620 0.950 . S
H1610 C1622 0.950 . S
H1611 C1623 0.950 . S
C1612 H1604 0.950 . S
C1612 C1613 1.386 . S
C1612 C1614 1.391 . S
C1613 C1612 1.386 . S
C1613 C1617 1.393 . S
C1614 H1606 0.950 . S
C1614 C1612 1.391 . S
C1614 C1615 1.400 . S
C1615 C1614 1.400 . S
C1615 C1616 1.398 . S
C1615 C1621 1.491 . S
C1616 H1607 0.950 . S
C1616 C1615 1.398 . S
C1616 C1617 1.391 . S
C1617 H1605 0.950 . S
C1617 C1613 1.393 . S
C1617 C1616 1.391 . S
C1618 H1608 0.950 . S
C1618 C1619 1.386 . S
C1618 C1620 1.391 . S
C1619 C1618 1.386 . S
C1619 C1623 1.393 . S
C1620 H1609 0.950 . S
C1620 C1618 1.391 . S
C1620 C1621 1.400 . S
C1621 C1615 1.491 . S
C1621 C1620 1.400 . S
C1621 C1622 1.398 . S
C1622 H1610 0.950 . S
C1622 C1621 1.398 . S
C1622 C1623 1.391 . S
C1623 H1611 0.950 . S
C1623 C1619 1.393 . S
C1623 C1622 1.391 . S
H1624 C1632 0.950 . S
H1625 C1637 0.950 . S
H1626 C1634 0.950 . S
H1627 C1636 0.950 . S
H1628 C1638 0.950 . S
H1629 C1640 0.950 . S
H1630 C1642 0.950 . S
H1631 C1643 0.950 . S
C1632 H1624 0.950 . S
C1632 C1633 1.386 . S
C1632 C1634 1.391 . S
C1633 C1632 1.386 . S
C1633 C1637 1.393 . S
C1634 H1626 0.950 . S
C1634 C1632 1.391 . S
C1634 C1635 1.400 . S
C1635 C1634 1.400 . S
C1635 C1636 1.398 . S
C1635 C1641 1.491 1_455 S
C1636 H1627 0.950 . S
C1636 C1635 1.398 . S
C1636 C1637 1.391 . S
C1637 H1625 0.950 . S
C1637 C1633 1.393 . S
C1637 C1636 1.391 . S
C1638 H1628 0.950 . S
C1638 C1639 1.386 . S
C1638 C1640 1.391 . S
C1639 C1638 1.386 . S
C1639 C1643 1.393 . S
C1640 H1629 0.950 . S
C1640 C1638 1.391 . S
C1640 C1641 1.400 . S
C1641 C1635 1.491 1_655 S
C1641 C1640 1.400 . S
C1641 C1642 1.398 . S
C1642 H1630 0.950 . S
C1642 C1641 1.398 . S
C1642 C1643 1.391 . S
C1643 H1631 0.950 . S
C1643 C1639 1.393 . S
C1643 C1642 1.391 . S
H1644 C1652 0.950 . S
H1645 C1657 0.950 . S
H1646 C1654 0.950 . S
H1647 C1656 0.950 . S
H1648 C1658 0.950 . S
H1649 C1660 0.950 . S
H1650 C1662 0.950 . S
H1651 C1663 0.950 . S
C1652 H1644 0.950 . S
C1652 C1653 1.386 . S
C1652 C1654 1.391 . S
C1653 C1652 1.386 . S
C1653 C1657 1.393 . S
C1654 H1646 0.950 . S
C1654 C1652 1.391 . S
C1654 C1655 1.400 . S
C1655 C1654 1.400 . S
C1655 C1656 1.398 . S
C1655 C1661 1.491 . S
C1656 H1647 0.950 . S
C1656 C1655 1.398 . S
C1656 C1657 1.391 . S
C1657 H1645 0.950 . S
C1657 C1653 1.393 . S
C1657 C1656 1.391 . S
C1658 H1648 0.950 . S
C1658 C1659 1.386 . S
C1658 C1660 1.391 . S
C1659 C1658 1.386 . S
C1659 C1663 1.393 . S
C1660 H1649 0.950 . S
C1660 C1658 1.391 . S
C1660 C1661 1.400 . S
C1661 C1655 1.491 . S
C1661 C1660 1.400 . S
C1661 C1662 1.398 . S
C1662 H1650 0.950 . S
C1662 C1661 1.398 . S
C1662 C1663 1.391 . S
C1663 H1651 0.950 . S
C1663 C1659 1.393 . S
C1663 C1662 1.391 . S
H1664 C1672 0.950 . S
H1665 C1677 0.950 . S
H1666 C1674 0.950 . S
H1667 C1676 0.950 . S
H1668 C1678 0.950 . S
H1669 C1680 0.950 . S
H1670 C1682 0.950 . S
H1671 C1683 0.950 . S
C1672 H1664 0.950 . S
C1672 C1673 1.386 . S
C1672 C1674 1.391 . S
C1673 C1672 1.386 . S
C1673 C1677 1.393 . S
C1674 H1666 0.950 . S
C1674 C1672 1.391 . S
C1674 C1675 1.400 . S
C1675 C1674 1.400 . S
C1675 C1676 1.398 . S
C1675 C1681 1.491 1_655 S
C1676 H1667 0.950 . S
C1676 C1675 1.398 . S
C1676 C1677 1.391 . S
C1677 H1665 0.950 . S
C1677 C1673 1.393 . S
C1677 C1676 1.391 . S
C1678 H1668 0.950 . S
C1678 C1679 1.386 . S
C1678 C1680 1.391 . S
C1679 C1678 1.386 . S
C1679 C1683 1.393 . S
C1680 H1669 0.950 . S
C1680 C1678 1.391 . S
C1680 C1681 1.400 . S
C1681 C1675 1.491 1_455 S
C1681 C1680 1.400 . S
C1681 C1682 1.398 . S
C1682 H1670 0.950 . S
C1682 C1681 1.398 . S
C1682 C1683 1.391 . S
C1683 H1671 0.950 . S
C1683 C1679 1.393 . S
C1683 C1682 1.391 . S
H1684 C1692 0.950 . S
H1685 C1697 0.950 . S
H1686 C1694 0.950 . S
H1687 C1696 0.950 . S
H1688 C1698 0.950 . S
H1689 C1700 0.950 . S
H1690 C1702 0.950 . S
H1691 C1703 0.950 . S
C1692 H1684 0.950 . S
C1692 C1693 1.386 . S
C1692 C1694 1.391 . S
C1693 C1692 1.386 . S
C1693 C1697 1.393 . S
C1694 H1686 0.950 . S
C1694 C1692 1.391 . S
C1694 C1695 1.400 . S
C1695 C1694 1.400 . S
C1695 C1696 1.398 . S
C1695 C1701 1.491 . S
C1696 H1687 0.950 . S
C1696 C1695 1.398 . S
C1696 C1697 1.391 . S
C1697 H1685 0.950 . S
C1697 C1693 1.393 . S
C1697 C1696 1.391 . S
C1698 H1688 0.950 . S
C1698 C1699 1.386 . S
C1698 C1700 1.391 . S
C1699 C1698 1.386 . S
C1699 C1703 1.393 . S
C1700 H1689 0.950 . S
C1700 C1698 1.391 . S
C1700 C1701 1.400 . S
C1701 C1695 1.491 . S
C1701 C1700 1.400 . S
C1701 C1702 1.398 . S
C1702 H1690 0.950 . S
C1702 C1701 1.398 . S
C1702 C1703 1.391 . S
C1703 H1691 0.950 . S
C1703 C1699 1.393 . S
C1703 C1702 1.391 . S
H1704 C1712 0.950 . S
H1705 C1717 0.950 . S
H1706 C1714 0.950 . S
H1707 C1716 0.950 . S
H1708 C1718 0.950 . S
H1709 C1720 0.950 . S
H1710 C1722 0.950 . S
H1711 C1723 0.950 . S
C1712 H1704 0.950 . S
C1712 C1713 1.386 . S
C1712 C1714 1.391 . S
C1713 C1712 1.386 . S
C1713 C1717 1.393 . S
C1714 H1706 0.950 . S
C1714 C1712 1.391 . S
C1714 C1715 1.400 . S
C1715 C1714 1.400 . S
C1715 C1716 1.398 . S
C1715 C1721 1.491 1_655 S
C1716 H1707 0.950 . S
C1716 C1715 1.398 . S
C1716 C1717 1.391 . S
C1717 H1705 0.950 . S
C1717 C1713 1.393 . S
C1717 C1716 1.391 . S
C1718 H1708 0.950 . S
C1718 C1719 1.386 . S
C1718 C1720 1.391 . S
C1719 C1718 1.386 . S
C1719 C1723 1.393 . S
C1720 H1709 0.950 . S
C1720 C1718 1.391 . S
C1720 C1721 1.400 . S
C1721 C1715 1.491 1_455 S
C1721 C1720 1.400 . S
C1721 C1722 1.398 . S
C1722 H1710 0.950 . S
C1722 C1721 1.398 . S
C1722 C1723 1.391 . S
C1723 H1711 0.950 . S
C1723 C1719 1.393 . S
C1723 C1722 1.391 . S
H1724 C1732 0.950 . S
H1725 C1737 0.950 . S
H1726 C1734 0.950 . S
H1727 C1736 0.950 . S
H1728 C1738 0.950 . S
H1729 C1740 0.950 . S
H1730 C1742 0.950 . S
H1731 C1743 0.950 . S
C1732 H1724 0.950 . S
C1732 C1733 1.386 . S
C1732 C1734 1.391 . S
C1733 C1732 1.386 . S
C1733 C1737 1.393 . S
C1734 H1726 0.950 . S
C1734 C1732 1.391 . S
C1734 C1735 1.400 . S
C1735 C1734 1.400 . S
C1735 C1736 1.398 . S
C1735 C1741 1.491 . S
C1736 H1727 0.950 . S
C1736 C1735 1.398 . S
C1736 C1737 1.391 . S
C1737 H1725 0.950 . S
C1737 C1733 1.393 . S
C1737 C1736 1.391 . S
C1738 H1728 0.950 . S
C1738 C1739 1.386 . S
C1738 C1740 1.391 . S
C1739 C1738 1.386 . S
C1739 C1743 1.393 . S
C1740 H1729 0.950 . S
C1740 C1738 1.391 . S
C1740 C1741 1.400 . S
C1741 C1735 1.491 . S
C1741 C1740 1.400 . S
C1741 C1742 1.398 . S
C1742 H1730 0.950 . S
C1742 C1741 1.398 . S
C1742 C1743 1.391 . S
C1743 H1731 0.950 . S
C1743 C1739 1.393 . S
C1743 C1742 1.391 . S
H1744 C1752 0.950 . S
H1745 C1757 0.950 . S
H1746 C1754 0.950 . S
H1747 C1756 0.950 . S
H1748 C1758 0.950 . S
H1749 C1760 0.950 . S
H1750 C1762 0.950 . S
H1751 C1763 0.950 . S
C1752 H1744 0.950 . S
C1752 C1753 1.386 . S
C1752 C1754 1.391 . S
C1753 C1752 1.386 . S
C1753 C1757 1.393 . S
C1754 H1746 0.950 . S
C1754 C1752 1.391 . S
C1754 C1755 1.400 . S
C1755 C1754 1.400 . S
C1755 C1756 1.398 . S
C1755 C1761 1.491 1_545 S
C1756 H1747 0.950 . S
C1756 C1755 1.398 . S
C1756 C1757 1.391 . S
C1757 H1745 0.950 . S
C1757 C1753 1.393 . S
C1757 C1756 1.391 . S
C1758 H1748 0.950 . S
C1758 C1759 1.386 . S
C1758 C1760 1.391 . S
C1759 C1758 1.386 . S
C1759 C1763 1.393 . S
C1760 H1749 0.950 . S
C1760 C1758 1.391 . S
C1760 C1761 1.400 . S
C1761 C1755 1.491 1_565 S
C1761 C1760 1.400 . S
C1761 C1762 1.398 . S
C1762 H1750 0.950 . S
C1762 C1761 1.398 . S
C1762 C1763 1.391 . S
C1763 H1751 0.950 . S
C1763 C1759 1.393 . S
C1763 C1762 1.391 . S
H1764 C1772 0.950 . S
H1765 C1777 0.950 . S
H1766 C1774 0.950 . S
H1767 C1776 0.950 . S
H1768 C1778 0.950 . S
H1769 C1780 0.950 . S
H1770 C1782 0.950 . S
H1771 C1783 0.950 . S
C1772 H1764 0.950 . S
C1772 C1773 1.386 . S
C1772 C1774 1.391 . S
C1773 C1772 1.386 . S
C1773 C1777 1.393 . S
C1774 H1766 0.950 . S
C1774 C1772 1.391 . S
C1774 C1775 1.400 . S
C1775 C1774 1.400 . S
C1775 C1776 1.398 . S
C1775 C1781 1.491 . S
C1776 H1767 0.950 . S
C1776 C1775 1.398 . S
C1776 C1777 1.391 . S
C1777 H1765 0.950 . S
C1777 C1773 1.393 . S
C1777 C1776 1.391 . S
C1778 H1768 0.950 . S
C1778 C1779 1.386 . S
C1778 C1780 1.391 . S
C1779 C1778 1.386 . S
C1779 C1783 1.393 . S
C1780 H1769 0.950 . S
C1780 C1778 1.391 . S
C1780 C1781 1.400 . S
C1781 C1775 1.491 . S
C1781 C1780 1.400 . S
C1781 C1782 1.398 . S
C1782 H1770 0.950 . S
C1782 C1781 1.398 . S
C1782 C1783 1.391 . S
C1783 H1771 0.950 . S
C1783 C1779 1.393 . S
C1783 C1782 1.391 . S
H1784 C1792 0.950 . S
H1785 C1797 0.950 . S
H1786 C1794 0.950 . S
H1787 C1796 0.950 . S
H1788 C1798 0.950 . S
H1789 C1800 0.950 . S
H1790 C1802 0.950 . S
H1791 C1803 0.950 . S
C1792 H1784 0.950 . S
C1792 C1793 1.386 . S
C1792 C1794 1.391 . S
C1793 C1792 1.386 . S
C1793 C1797 1.393 . S
C1794 H1786 0.950 . S
C1794 C1792 1.391 . S
C1794 C1795 1.400 . S
C1795 C1794 1.400 . S
C1795 C1796 1.398 . S
C1795 C1801 1.491 1_545 S
C1796 H1787 0.950 . S
C1796 C1795 1.398 . S
C1796 C1797 1.391 . S
C1797 H1785 0.950 . S
C1797 C1793 1.393 . S
C1797 C1796 1.391 . S
C1798 H1788 0.950 . S
C1798 C1799 1.386 . S
C1798 C1800 1.391 . S
C1799 C1798 1.386 . S
C1799 C1803 1.393 . S
C1800 H1789 0.950 . S
C1800 C1798 1.391 . S
C1800 C1801 1.400 . S
C1801 C1795 1.491 1_565 S
C1801 C1800 1.400 . S
C1801 C1802 1.398 . S
C1802 H1790 0.950 . S
C1802 C1801 1.398 . S
C1802 C1803 1.391 . S
C1803 H1791 0.950 . S
C1803 C1799 1.393 . S
C1803 C1802 1.391 . S
H1804 C1812 0.950 . S
H1805 C1817 0.950 . S
H1806 C1814 0.950 . S
H1807 C1816 0.950 . S
H1808 C1818 0.950 . S
H1809 C1820 0.950 . S
H1810 C1822 0.950 . S
H1811 C1823 0.950 . S
C1812 H1804 0.950 . S
C1812 C1813 1.386 . S
C1812 C1814 1.391 . S
C1813 C1812 1.386 . S
C1813 C1817 1.393 . S
C1814 H1806 0.950 . S
C1814 C1812 1.391 . S
C1814 C1815 1.400 . S
C1815 C1814 1.400 . S
C1815 C1816 1.398 . S
C1815 C1821 1.491 . S
C1816 H1807 0.950 . S
C1816 C1815 1.398 . S
C1816 C1817 1.391 . S
C1817 H1805 0.950 . S
C1817 C1813 1.393 . S
C1817 C1816 1.391 . S
C1818 H1808 0.950 . S
C1818 C1819 1.386 . S
C1818 C1820 1.391 . S
C1819 C1818 1.386 . S
C1819 C1823 1.393 . S
C1820 H1809 0.950 . S
C1820 C1818 1.391 . S
C1820 C1821 1.400 . S
C1821 C1815 1.491 . S
C1821 C1820 1.400 . S
C1821 C1822 1.398 . S
C1822 H1810 0.950 . S
C1822 C1821 1.398 . S
C1822 C1823 1.391 . S
C1823 H1811 0.950 . S
C1823 C1819 1.393 . S
C1823 C1822 1.391 . S
H1824 C1832 0.950 . S
H1825 C1837 0.950 . S
H1826 C1834 0.950 . S
H1827 C1836 0.950 . S
H1828 C1838 0.950 . S
H1829 C1840 0.950 . S
H1830 C1842 0.950 . S
H1831 C1843 0.950 . S
C1832 H1824 0.950 . S
C1832 C1833 1.386 . S
C1832 C1834 1.391 . S
C1833 C1832 1.386 . S
C1833 C1837 1.393 . S
C1834 H1826 0.950 . S
C1834 C1832 1.391 . S
C1834 C1835 1.400 . S
C1835 C1834 1.400 . S
C1835 C1836 1.398 . S
C1835 C1841 1.491 1_545 S
C1836 H1827 0.950 . S
C1836 C1835 1.398 . S
C1836 C1837 1.391 . S
C1837 H1825 0.950 . S
C1837 C1833 1.393 . S
C1837 C1836 1.391 . S
C1838 H1828 0.950 . S
C1838 C1839 1.386 . S
C1838 C1840 1.391 . S
C1839 C1838 1.386 . S
C1839 C1843 1.393 . S
C1840 H1829 0.950 . S
C1840 C1838 1.391 . S
C1840 C1841 1.400 . S
C1841 C1835 1.491 1_565 S
C1841 C1840 1.400 . S
C1841 C1842 1.398 . S
C1842 H1830 0.950 . S
C1842 C1841 1.398 . S
C1842 C1843 1.391 . S
C1843 H1831 0.950 . S
C1843 C1839 1.393 . S
C1843 C1842 1.391 . S
H1844 C1852 0.950 . S
H1845 C1857 0.950 . S
H1846 C1854 0.950 . S
H1847 C1856 0.950 . S
H1848 C1858 0.950 . S
H1849 C1860 0.950 . S
H1850 C1862 0.950 . S
H1851 C1863 0.950 . S
C1852 H1844 0.950 . S
C1852 C1853 1.386 . S
C1852 C1854 1.391 . S
C1853 C1852 1.386 . S
C1853 C1857 1.393 . S
C1854 H1846 0.950 . S
C1854 C1852 1.391 . S
C1854 C1855 1.400 . S
C1855 C1854 1.400 . S
C1855 C1856 1.398 . S
C1855 C1861 1.491 . S
C1856 H1847 0.950 . S
C1856 C1855 1.398 . S
C1856 C1857 1.391 . S
C1857 H1845 0.950 . S
C1857 C1853 1.393 . S
C1857 C1856 1.391 . S
C1858 H1848 0.950 . S
C1858 C1859 1.386 . S
C1858 C1860 1.391 . S
C1859 C1858 1.386 . S
C1859 C1863 1.393 . S
C1860 H1849 0.950 . S
C1860 C1858 1.391 . S
C1860 C1861 1.400 . S
C1861 C1855 1.491 . S
C1861 C1860 1.400 . S
C1861 C1862 1.398 . S
C1862 H1850 0.950 . S
C1862 C1861 1.398 . S
C1862 C1863 1.391 . S
C1863 H1851 0.950 . S
C1863 C1859 1.393 . S
C1863 C1862 1.391 . S
H1864 C1872 0.950 . S
H1865 C1877 0.950 . S
H1866 C1874 0.950 . S
H1867 C1876 0.950 . S
H1868 C1878 0.950 . S
H1869 C1880 0.950 . S
H1870 C1882 0.950 . S
H1871 C1883 0.950 . S
C1872 H1864 0.950 . S
C1872 C1873 1.386 . S
C1872 C1874 1.391 . S
C1873 C1872 1.386 . S
C1873 C1877 1.393 . S
C1874 H1866 0.950 . S
C1874 C1872 1.391 . S
C1874 C1875 1.400 . S
C1875 C1874 1.400 . S
C1875 C1876 1.398 . S
C1875 C1881 1.491 1_545 S
C1876 H1867 0.950 . S
C1876 C1875 1.398 . S
C1876 C1877 1.391 . S
C1877 H1865 0.950 . S
C1877 C1873 1.393 . S
C1877 C1876 1.391 . S
C1878 H1868 0.950 . S
C1878 C1879 1.386 . S
C1878 C1880 1.391 . S
C1879 C1878 1.386 . S
C1879 C1883 1.393 . S
C1880 H1869 0.950 . S
C1880 C1878 1.391 . S
C1880 C1881 1.400 . S
C1881 C1875 1.491 1_565 S
C1881 C1880 1.400 . S
C1881 C1882 1.398 . S
C1882 H1870 0.950 . S
C1882 C1881 1.398 . S
C1882 C1883 1.391 . S
C1883 H1871 0.950 . S
C1883 C1879 1.393 . S
C1883 C1882 1.391 . S
H1884 C1892 0.950 . S
H1885 C1897 0.950 . S
H1886 C1894 0.950 . S
H1887 C1896 0.950 . S
H1888 C1898 0.950 . S
H1889 C1900 0.950 . S
H1890 C1902 0.950 . S
H1891 C1903 0.950 . S
C1892 H1884 0.950 . S
C1892 C1893 1.386 . S
C1892 C1894 1.391 . S
C1893 C1892 1.386 . S
C1893 C1897 1.393 . S
C1894 H1886 0.950 . S
C1894 C1892 1.391 . S
C1894 C1895 1.400 . S
C1895 C1894 1.400 . S
C1895 C1896 1.398 . S
C1895 C1901 1.491 . S
C1896 H1887 0.950 . S
C1896 C1895 1.398 . S
C1896 C1897 1.391 . S
C1897 H1885 0.950 . S
C1897 C1893 1.393 . S
C1897 C1896 1.391 . S
C1898 H1888 0.950 . S
C1898 C1899 1.386 . S
C1898 C1900 1.391 . S
C1899 C1898 1.386 . S
C1899 C1903 1.393 . S
C1900 H1889 0.950 . S
C1900 C1898 1.391 . S
C1900 C1901 1.400 . S
C1901 C1895 1.491 . S
C1901 C1900 1.400 . S
C1901 C1902 1.398 . S
C1902 H1890 0.950 . S
C1902 C1901 1.398 . S
C1902 C1903 1.391 . S
C1903 H1891 0.950 . S
C1903 C1899 1.393 . S
C1903 C1902 1.391 . S
H1904 C1912 0.950 . S
H1905 C1917 0.950 . S
H1906 C1914 0.950 . S
H1907 C1916 0.950 . S
H1908 C1918 0.950 . S
H1909 C1920 0.950 . S
H1910 C1922 0.950 . S
H1911 C1923 0.950 . S
C1912 H1904 0.950 . S
C1912 C1913 1.386 . S
C1912 C1914 1.391 . S
C1913 C1912 1.386 . S
C1913 C1917 1.393 . S
C1914 H1906 0.950 . S
C1914 C1912 1.391 . S
C1914 C1915 1.400 . S
C1915 C1914 1.400 . S
C1915 C1916 1.398 . S
C1915 C1921 1.491 1_556 S
C1916 H1907 0.950 . S
C1916 C1915 1.398 . S
C1916 C1917 1.391 . S
C1917 H1905 0.950 . S
C1917 C1913 1.393 . S
C1917 C1916 1.391 . S
C1918 H1908 0.950 . S
C1918 C1919 1.386 . S
C1918 C1920 1.391 . S
C1919 C1918 1.386 . S
C1919 C1923 1.393 . S
C1920 H1909 0.950 . S
C1920 C1918 1.391 . S
C1920 C1921 1.400 . S
C1921 C1915 1.491 1_554 S
C1921 C1920 1.400 . S
C1921 C1922 1.398 . S
C1922 H1910 0.950 . S
C1922 C1921 1.398 . S
C1922 C1923 1.391 . S
C1923 H1911 0.950 . S
C1923 C1919 1.393 . S
C1923 C1922 1.391 . S
H1924 C1932 0.950 . S
H1925 C1937 0.950 . S
H1926 C1934 0.950 . S
H1927 C1936 0.950 . S
H1928 C1938 0.950 . S
H1929 C1940 0.950 . S
H1930 C1942 0.950 . S
H1931 C1943 0.950 . S
C1932 H1924 0.950 . S
C1932 C1933 1.386 . S
C1932 C1934 1.391 . S
C1933 C1932 1.386 . S
C1933 C1937 1.393 . S
C1934 H1926 0.950 . S
C1934 C1932 1.391 . S
C1934 C1935 1.400 . S
C1935 C1934 1.400 . S
C1935 C1936 1.398 . S
C1935 C1941 1.491 1_556 S
C1936 H1927 0.950 . S
C1936 C1935 1.398 . S
C1936 C1937 1.391 . S
C1937 H1925 0.950 . S
C1937 C1933 1.393 . S
C1937 C1936 1.391 . S
C1938 H1928 0.950 . S
C1938 C1939 1.386 . S
C1938 C1940 1.391 . S
C1939 C1938 1.386 . S
C1939 C1943 1.393 . S
C1940 H1929 0.950 . S
C1940 C1938 1.391 . S
C1940 C1941 1.400 . S
C1941 C1935 1.491 1_554 S
C1941 C1940 1.400 . S
C1941 C1942 1.398 . S
C1942 H1930 0.950 . S
C1942 C1941 1.398 . S
C1942 C1943 1.391 . S
C1943 H1931 0.950 . S
C1943 C1939 1.393 . S
C1943 C1942 1.391 . S
H1944 C1952 0.950 . S
H1945 C1957 0.950 . S
H1946 C1954 0.950 . S
H1947 C1956 0.950 . S
H1948 C1958 0.950 . S
H1949 C1960 0.950 . S
H1950 C1962 0.950 . S
H1951 C1963 0.950 . S
C1952 H1944 0.950 . S
C1952 C1953 1.386 . S
C1952 C1954 1.391 . S
C1953 C1952 1.386 . S
C1953 C1957 1.393 . S
C1954 H1946 0.950 . S
C1954 C1952 1.391 . S
C1954 C1955 1.400 . S
C1955 C1954 1.400 . S
C1955 C1956 1.398 . S
C1955 C1961 1.491 . S
C1956 H1947 0.950 . S
C1956 C1955 1.398 . S
C1956 C1957 1.391 . S
C1957 H1945 0.950 . S
C1957 C1953 1.393 . S
C1957 C1956 1.391 . S
C1958 H1948 0.950 . S
C1958 C1959 1.386 . S
C1958 C1960 1.391 . S
C1959 C1958 1.386 . S
C1959 C1963 1.393 . S
C1960 H1949 0.950 . S
C1960 C1958 1.391 . S
C1960 C1961 1.400 . S
C1961 C1955 1.491 . S
C1961 C1960 1.400 . S
C1961 C1962 1.398 . S
C1962 H1950 0.950 . S
C1962 C1961 1.398 . S
C1962 C1963 1.391 . S
C1963 H1951 0.950 . S
C1963 C1959 1.393 . S
C1963 C1962 1.391 . S
H1964 C1972 0.950 . S
H1965 C1977 0.950 . S
H1966 C1974 0.950 . S
H1967 C1976 0.950 . S
H1968 C1978 0.950 . S
H1969 C1980 0.950 . S
H1970 C1982 0.950 . S
H1971 C1983 0.950 . S
C1972 H1964 0.950 . S
C1972 C1973 1.386 . S
C1972 C1974 1.391 . S
C1973 C1972 1.386 . S
C1973 C1977 1.393 . S
C1974 H1966 0.950 . S
C1974 C1972 1.391 . S
C1974 C1975 1.400 . S
C1975 C1974 1.400 . S
C1975 C1976 1.398 . S
C1975 C1981 1.491 1_556 S
C1976 H1967 0.950 . S
C1976 C1975 1.398 . S
C1976 C1977 1.391 . S
C1977 H1965 0.950 . S
C1977 C1973 1.393 . S
C1977 C1976 1.391 . S
C1978 H1968 0.950 . S
C1978 C1979 1.386 . S
C1978 C1980 1.391 . S
C1979 C1978 1.386 . S
C1979 C1983 1.393 . S
C1980 H1969 0.950 . S
C1980 C1978 1.391 . S
C1980 C1981 1.400 . S
C1981 C1975 1.491 1_554 S
C1981 C1980 1.400 . S
C1981 C1982 1.398 . S
C1982 H1970 0.950 . S
C1982 C1981 1.398 . S
C1982 C1983 1.391 . S
C1983 H1971 0.950 . S
C1983 C1979 1.393 . S
C1983 C1982 1.391 . S
H1984 C1992 0.950 . S
H1985 C1997 0.950 . S
H1986 C1994 0.950 . S
H1987 C1996 0.950 . S
H1988 C1998 0.950 . S
H1989 C2000 0.950 . S
H1990 C2002 0.950 . S
H1991 C2003 0.950 . S
C1992 H1984 0.950 . S
C1992 C1993 1.386 . S
C1992 C1994 1.391 . S
C1993 C1992 1.386 . S
C1993 C1997 1.393 . S
C1994 H1986 0.950 . S
C1994 C1992 1.391 . S
C1994 C1995 1.400 . S
C1995 C1994 1.400 . S
C1995 C1996 1.398 . S
C1995 C2001 1.491 . S
C1996 H1987 0.950 . S
C1996 C1995 1.398 . S
C1996 C1997 1.391 . S
C1997 H1985 0.950 . S
C1997 C1993 1.393 . S
C1997 C1996 1.391 . S
C1998 H1988 0.950 . S
C1998 C1999 1.386 . S
C1998 C2000 1.391 . S
C1999 C1998 1.386 . S
C1999 C2003 1.393 . S
C2000 H1989 0.950 . S
C2000 C1998 1.391 . S
C2000 C2001 1.400 . S
C2001 C1995 1.491 . S
C2001 C2000 1.400 . S
C2001 C2002 1.398 . S
C2002 H1990 0.950 . S
C2002 C2001 1.398 . S
C2002 C2003 1.391 . S
C2003 H1991 0.950 . S
C2003 C1999 1.393 . S
C2003 C2002 1.391 . S
H2004 C2012 0.950 . S
H2005 C2017 0.950 . S
H2006 C2014 0.950 . S
H2007 C2016 0.950 . S
H2008 C2018 0.950 . S
H2009 C2020 0.950 . S
H2010 C2022 0.950 . S
H2011 C2023 0.950 . S
C2012 H2004 0.950 . S
C2012 C2013 1.386 . S
C2012 C2014 1.391 . S
C2013 C2012 1.386 . S
C2013 C2017 1.393 . S
C2014 H2006 0.950 . S
C2014 C2012 1.391 . S
C2014 C2015 1.400 . S
C2015 C2014 1.400 . S
C2015 C2016 1.398 . S
C2015 C2021 1.491 1_556 S
C2016 H2007 0.950 . S
C2016 C2015 1.398 . S
C2016 C2017 1.391 . S
C2017 H2005 0.950 . S
C2017 C2013 1.393 . S
C2017 C2016 1.391 . S
C2018 H2008 0.950 . S
C2018 C2019 1.386 . S
C2018 C2020 1.391 . S
C2019 C2018 1.386 . S
C2019 C2023 1.393 . S
C2020 H2009 0.950 . S
C2020 C2018 1.391 . S
C2020 C2021 1.400 . S
C2021 C2015 1.491 1_554 S
C2021 C2020 1.400 . S
C2021 C2022 1.398 . S
C2022 H2010 0.950 . S
C2022 C2021 1.398 . S
C2022 C2023 1.391 . S
C2023 H2011 0.950 . S
C2023 C2019 1.393 . S
C2023 C2022 1.391 . S
H2024 C2032 0.950 . S
H2025 C2037 0.950 . S
H2026 C2034 0.950 . S
H2027 C2036 0.950 . S
H2028 C2038 0.950 . S
H2029 C2040 0.950 . S
H2030 C2042 0.950 . S
H2031 C2043 0.950 . S
C2032 H2024 0.950 . S
C2032 C2033 1.386 . S
C2032 C2034 1.391 . S
C2033 C2032 1.386 . S
C2033 C2037 1.393 . S
C2034 H2026 0.950 . S
C2034 C2032 1.391 . S
C2034 C2035 1.400 . S
C2035 C2034 1.400 . S
C2035 C2036 1.398 . S
C2035 C2041 1.491 . S
C2036 H2027 0.950 . S
C2036 C2035 1.398 . S
C2036 C2037 1.391 . S
C2037 H2025 0.950 . S
C2037 C2033 1.393 . S
C2037 C2036 1.391 . S
C2038 H2028 0.950 . S
C2038 C2039 1.386 . S
C2038 C2040 1.391 . S
C2039 C2038 1.386 . S
C2039 C2043 1.393 . S
C2040 H2029 0.950 . S
C2040 C2038 1.391 . S
C2040 C2041 1.400 . S
C2041 C2035 1.491 . S
C2041 C2040 1.400 . S
C2041 C2042 1.398 . S
C2042 H2030 0.950 . S
C2042 C2041 1.398 . S
C2042 C2043 1.391 . S
C2043 H2031 0.950 . S
C2043 C2039 1.393 . S
C2043 C2042 1.391 . S
H2044 C2052 0.950 . S
H2045 C2057 0.950 . S
H2046 C2054 0.950 . S
H2047 C2056 0.950 . S
H2048 C2058 0.950 . S
H2049 C2060 0.950 . S
H2050 C2062 0.950 . S
H2051 C2063 0.950 . S
C2052 H2044 0.950 . S
C2052 C2053 1.386 . S
C2052 C2054 1.391 . S
C2053 C2052 1.386 . S
C2053 C2057 1.393 . S
C2054 H2046 0.950 . S
C2054 C2052 1.391 . S
C2054 C2055 1.400 . S
C2055 C2054 1.400 . S
C2055 C2056 1.398 . S
C2055 C2061 1.491 . S
C2056 H2047 0.950 . S
C2056 C2055 1.398 . S
C2056 C2057 1.391 . S
C2057 H2045 0.950 . S
C2057 C2053 1.393 . S
C2057 C2056 1.391 . S
C2058 H2048 0.950 . S
C2058 C2059 1.386 . S
C2058 C2060 1.391 . S
C2059 C2058 1.386 . S
C2059 C2063 1.393 . S
C2060 H2049 0.950 . S
C2060 C2058 1.391 . S
C2060 C2061 1.400 . S
C2061 C2055 1.491 . S
C2061 C2060 1.400 . S
C2061 C2062 1.398 . S
C2062 H2050 0.950 . S
C2062 C2061 1.398 . S
C2062 C2063 1.391 . S
C2063 H2051 0.950 . S
C2063 C2059 1.393 . S
C2063 C2062 1.391 . S
H2064 C2072 0.950 . S
H2065 C2077 0.950 . S
H2066 C2074 0.950 . S
H2067 C2076 0.950 . S
H2068 C2078 0.950 . S
H2069 C2080 0.950 . S
H2070 C2082 0.950 . S
H2071 C2083 0.950 . S
C2072 H2064 0.950 . S
C2072 C2073 1.386 . S
C2072 C2074 1.391 . S
C2073 C2072 1.386 . S
C2073 C2077 1.393 . S
C2074 H2066 0.950 . S
C2074 C2072 1.391 . S
C2074 C2075 1.400 . S
C2075 C2074 1.400 . S
C2075 C2076 1.398 . S
C2075 C2081 1.491 . S
C2076 H2067 0.950 . S
C2076 C2075 1.398 . S
C2076 C2077 1.391 . S
C2077 H2065 0.950 . S
C2077 C2073 1.393 . S
C2077 C2076 1.391 . S
C2078 H2068 0.950 . S
C2078 C2079 1.386 . S
C2078 C2080 1.391 . S
C2079 C2078 1.386 . S
C2079 C2083 1.393 . S
C2080 H2069 0.950 . S
C2080 C2078 1.391 . S
C2080 C2081 1.400 . S
C2081 C2075 1.491 . S
C2081 C2080 1.400 . S
C2081 C2082 1.398 . S
C2082 H2070 0.950 . S
C2082 C2081 1.398 . S
C2082 C2083 1.391 . S
C2083 H2071 0.950 . S
C2083 C2079 1.393 . S
C2083 C2082 1.391 . S
H2084 C2092 0.950 . S
H2085 C2097 0.950 . S
H2086 C2094 0.950 . S
H2087 C2096 0.950 . S
H2088 C2098 0.950 . S
H2089 C2100 0.950 . S
H2090 C2102 0.950 . S
H2091 C2103 0.950 . S
C2092 H2084 0.950 . S
C2092 C2093 1.386 . S
C2092 C2094 1.391 . S
C2093 C2092 1.386 . S
C2093 C2097 1.393 . S
C2094 H2086 0.950 . S
C2094 C2092 1.391 . S
C2094 C2095 1.400 . S
C2095 C2094 1.400 . S
C2095 C2096 1.398 . S
C2095 C2101 1.491 . S
C2096 H2087 0.950 . S
C2096 C2095 1.398 . S
C2096 C2097 1.391 . S
C2097 H2085 0.950 . S
C2097 C2093 1.393 . S
C2097 C2096 1.391 . S
C2098 H2088 0.950 . S
C2098 C2099 1.386 . S
C2098 C2100 1.391 . S
C2099 C2098 1.386 . S
C2099 C2103 1.393 . S
C2100 H2089 0.950 . S
C2100 C2098 1.391 . S
C2100 C2101 1.400 . S
C2101 C2095 1.491 . S
C2101 C2100 1.400 . S
C2101 C2102 1.398 . S
C2102 H2090 0.950 . S
C2102 C2101 1.398 . S
C2102 C2103 1.391 . S
C2103 H2091 0.950 . S
C2103 C2099 1.393 . S
C2103 C2102 1.391 . S
H2104 C2112 0.950 . S
H2105 C2117 0.950 . S
H2106 C2114 0.950 . S
H2107 C2116 0.950 . S
H2108 C2118 0.950 . S
H2109 C2120 0.950 . S
H2110 C2122 0.950 . S
H2111 C2123 0.950 . S
C2112 H2104 0.950 . S
C2112 C2113 1.386 . S
C2112 C2114 1.391 . S
C2113 C2112 1.386 . S
C2113 C2117 1.393 . S
C2114 H2106 0.950 . S
C2114 C2112 1.391 . S
C2114 C2115 1.400 . S
C2115 C2114 1.400 . S
C2115 C2116 1.398 . S
C2115 C2121 1.491 . S
C2116 H2107 0.950 . S
C2116 C2115 1.398 . S
C2116 C2117 1.391 . S
C2117 H2105 0.950 . S
C2117 C2113 1.393 . S
C2117 C2116 1.391 . S
C2118 H2108 0.950 . S
C2118 C2119 1.386 . S
C2118 C2120 1.391 . S
C2119 C2118 1.386 . S
C2119 C2123 1.393 . S
C2120 H2109 0.950 . S
C2120 C2118 1.391 . S
C2120 C2121 1.400 . S
C2121 C2115 1.491 . S
C2121 C2120 1.400 . S
C2121 C2122 1.398 . S
C2122 H2110 0.950 . S
C2122 C2121 1.398 . S
C2122 C2123 1.391 . S
C2123 H2111 0.950 . S
C2123 C2119 1.393 . S
C2123 C2122 1.391 . S
H2124 C2132 0.950 . S
H2125 C2137 0.950 . S
H2126 C2134 0.950 . S
H2127 C2136 0.950 . S
H2128 C2138 0.950 . S
H2129 C2140 0.950 . S
H2130 C2142 0.950 . S
H2131 C2143 0.950 . S
C2132 H2124 0.950 . S
C2132 C2133 1.386 . S
C2132 C2134 1.391 . S
C2133 C2132 1.386 . S
C2133 C2137 1.393 . S
C2134 H2126 0.950 . S
C2134 C2132 1.391 . S
C2134 C2135 1.400 . S
C2135 C2134 1.400 . S
C2135 C2136 1.398 . S
C2135 C2141 1.491 . S
C2136 H2127 0.950 . S
C2136 C2135 1.398 . S
C2136 C2137 1.391 . S
C2137 H2125 0.950 . S
C2137 C2133 1.393 . S
C2137 C2136 1.391 . S
C2138 H2128 0.950 . S
C2138 C2139 1.386 . S
C2138 C2140 1.391 . S
C2139 C2138 1.386 . S
C2139 C2143 1.393 . S
C2140 H2129 0.950 . S
C2140 C2138 1.391 . S
C2140 C2141 1.400 . S
C2141 C2135 1.491 . S
C2141 C2140 1.400 . S
C2141 C2142 1.398 . S
C2142 H2130 0.950 . S
C2142 C2141 1.398 . S
C2142 C2143 1.391 . S
C2143 H2131 0.950 . S
C2143 C2139 1.393 . S
C2143 C2142 1.391 . S
H2144 C2152 0.950 . S
H2145 C2157 0.950 . S
H2146 C2154 0.950 . S
H2147 C2156 0.950 . S
H2148 C2158 0.950 . S
H2149 C2160 0.950 . S
H2150 C2162 0.950 . S
H2151 C2163 0.950 . S
C2152 H2144 0.950 . S
C2152 C2153 1.386 . S
C2152 C2154 1.391 . S
C2153 C2152 1.386 . S
C2153 C2157 1.393 . S
C2154 H2146 0.950 . S
C2154 C2152 1.391 . S
C2154 C2155 1.400 . S
C2155 C2154 1.400 . S
C2155 C2156 1.398 . S
C2155 C2161 1.491 . S
C2156 H2147 0.950 . S
C2156 C2155 1.398 . S
C2156 C2157 1.391 . S
C2157 H2145 0.950 . S
C2157 C2153 1.393 . S
C2157 C2156 1.391 . S
C2158 H2148 0.950 . S
C2158 C2159 1.386 . S
C2158 C2160 1.391 . S
C2159 C2158 1.386 . S
C2159 C2163 1.393 . S
C2160 H2149 0.950 . S
C2160 C2158 1.391 . S
C2160 C2161 1.400 . S
C2161 C2155 1.491 . S
C2161 C2160 1.400 . S
C2161 C2162 1.398 . S
C2162 H2150 0.950 . S
C2162 C2161 1.398 . S
C2162 C2163 1.391 . S
C2163 H2151 0.950 . S
C2163 C2159 1.393 . S
C2163 C2162 1.391 . S
H2164 C2172 0.950 . S
H2165 C2177 0.950 . S
H2166 C2174 0.950 . S
H2167 C2176 0.950 . S
H2168 C2178 0.950 . S
H2169 C2180 0.950 . S
H2170 C2182 0.950 . S
H2171 C2183 0.950 . S
C2172 H2164 0.950 . S
C2172 C2173 1.386 . S
C2172 C2174 1.391 . S
C2173 C2172 1.386 . S
C2173 C2177 1.393 . S
C2174 H2166 0.950 . S
C2174 C2172 1.391 . S
C2174 C2175 1.400 . S
C2175 C2174 1.400 . S
C2175 C2176 1.398 . S
C2175 C2181 1.491 . S
C2176 H2167 0.950 . S
C2176 C2175 1.398 . S
C2176 C2177 1.391 . S
C2177 H2165 0.950 . S
C2177 C2173 1.393 . S
C2177 C2176 1.391 . S
C2178 H2168 0.950 . S
C2178 C2179 1.386 . S
C2178 C2180 1.391 . S
C2179 C2178 1.386 . S
C2179 C2183 1.393 . S
C2180 H2169 0.950 . S
C2180 C2178 1.391 . S
C2180 C2181 1.400 . S
C2181 C2175 1.491 . S
C2181 C2180 1.400 . S
C2181 C2182 1.398 . S
C2182 H2170 0.950 . S
C2182 C2181 1.398 . S
C2182 C2183 1.391 . S
C2183 H2171 0.950 . S
C2183 C2179 1.393 . S
C2183 C2182 1.391 . S
H2184 C2192 0.950 . S
H2185 C2197 0.950 . S
H2186 C2194 0.950 . S
H2187 C2196 0.950 . S
H2188 C2198 0.950 . S
H2189 C2200 0.950 . S
H2190 C2202 0.950 . S
H2191 C2203 0.950 . S
C2192 H2184 0.950 . S
C2192 C2193 1.386 . S
C2192 C2194 1.391 . S
C2193 C2192 1.386 . S
C2193 C2197 1.393 . S
C2194 H2186 0.950 . S
C2194 C2192 1.391 . S
C2194 C2195 1.400 . S
C2195 C2194 1.400 . S
C2195 C2196 1.398 . S
C2195 C2201 1.491 . S
C2196 H2187 0.950 . S
C2196 C2195 1.398 . S
C2196 C2197 1.391 . S
C2197 H2185 0.950 . S
C2197 C2193 1.393 . S
C2197 C2196 1.391 . S
C2198 H2188 0.950 . S
C2198 C2199 1.386 . S
C2198 C2200 1.391 . S
C2199 C2198 1.386 . S
C2199 C2203 1.393 . S
C2200 H2189 0.950 . S
C2200 C2198 1.391 . S
C2200 C2201 1.400 . S
C2201 C2195 1.491 . S
C2201 C2200 1.400 . S
C2201 C2202 1.398 . S
C2202 H2190 0.950 . S
C2202 C2201 1.398 . S
C2202 C2203 1.391 . S
C2203 H2191 0.950 . S
C2203 C2199 1.393 . S
C2203 C2202 1.391 . S
H2204 C2212 0.950 . S
H2205 C2217 0.950 . S
H2206 C2214 0.950 . S
H2207 C2216 0.950 . S
H2208 C2218 0.950 . S
H2209 C2220 0.950 . S
H2210 C2222 0.950 . S
H2211 C2223 0.950 . S
C2212 H2204 0.950 . S
C2212 C2213 1.386 . S
C2212 C2214 1.391 . S
C2213 C2212 1.386 . S
C2213 C2217 1.393 . S
C2214 H2206 0.950 . S
C2214 C2212 1.391 . S
C2214 C2215 1.400 . S
C2215 C2214 1.400 . S
C2215 C2216 1.398 . S
C2215 C2221 1.491 . S
C2216 H2207 0.950 . S
C2216 C2215 1.398 . S
C2216 C2217 1.391 . S
C2217 H2205 0.950 . S
C2217 C2213 1.393 . S
C2217 C2216 1.391 . S
C2218 H2208 0.950 . S
C2218 C2219 1.386 . S
C2218 C2220 1.391 . S
C2219 C2218 1.386 . S
C2219 C2223 1.393 . S
C2220 H2209 0.950 . S
C2220 C2218 1.391 . S
C2220 C2221 1.400 . S
C2221 C2215 1.491 . S
C2221 C2220 1.400 . S
C2221 C2222 1.398 . S
C2222 H2210 0.950 . S
C2222 C2221 1.398 . S
C2222 C2223 1.391 . S
C2223 H2211 0.950 . S
C2223 C2219 1.393 . S
C2223 C2222 1.391 . S
H2224 C2232 0.950 . S
H2225 C2237 0.950 . S
H2226 C2234 0.950 . S
H2227 C2236 0.950 . S
H2228 C2238 0.950 . S
H2229 C2240 0.950 . S
H2230 C2242 0.950 . S
H2231 C2243 0.950 . S
C2232 H2224 0.950 . S
C2232 C2233 1.386 . S
C2232 C2234 1.391 . S
C2233 C2232 1.386 . S
C2233 C2237 1.393 . S
C2234 H2226 0.950 . S
C2234 C2232 1.391 . S
C2234 C2235 1.400 . S
C2235 C2234 1.400 . S
C2235 C2236 1.398 . S
C2235 C2241 1.491 . S
C2236 H2227 0.950 . S
C2236 C2235 1.398 . S
C2236 C2237 1.391 . S
C2237 H2225 0.950 . S
C2237 C2233 1.393 . S
C2237 C2236 1.391 . S
C2238 H2228 0.950 . S
C2238 C2239 1.386 . S
C2238 C2240 1.391 . S
C2239 C2238 1.386 . S
C2239 C2243 1.393 . S
C2240 H2229 0.950 . S
C2240 C2238 1.391 . S
C2240 C2241 1.400 . S
C2241 C2235 1.491 . S
C2241 C2240 1.400 . S
C2241 C2242 1.398 . S
C2242 H2230 0.950 . S
C2242 C2241 1.398 . S
C2242 C2243 1.391 . S
C2243 H2231 0.950 . S
C2243 C2239 1.393 . S
C2243 C2242 1.391 . S
H2244 C2252 0.950 . S
H2245 C2257 0.950 . S
H2246 C2254 0.950 . S
H2247 C2256 0.950 . S
H2248 C2258 0.950 . S
H2249 C2260 0.950 . S
H2250 C2262 0.950 . S
H2251 C2263 0.950 . S
C2252 H2244 0.950 . S
C2252 C2253 1.386 . S
C2252 C2254 1.391 . S
C2253 C2252 1.386 . S
C2253 C2257 1.393 . S
C2254 H2246 0.950 . S
C2254 C2252 1.391 . S
C2254 C2255 1.400 . S
C2255 C2254 1.400 . S
C2255 C2256 1.398 . S
C2255 C2261 1.491 . S
C2256 H2247 0.950 . S
C2256 C2255 1.398 . S
C2256 C2257 1.391 . S
C2257 H2245 0.950 . S
C2257 C2253 1.393 . S
C2257 C2256 1.391 . S
C2258 H2248 0.950 . S
C2258 C2259 1.386 . S
C2258 C2260 1.391 . S
C2259 C2258 1.386 . S
C2259 C2263 1.393 . S
C2260 H2249 0.950 . S
C2260 C2258 1.391 . S
C2260 C2261 1.400 . S
C2261 C2255 1.491 . S
C2261 C2260 1.400 . S
C2261 C2262 1.398 . S
C2262 H2250 0.950 . S
C2262 C2261 1.398 . S
C2262 C2263 1.391 . S
C2263 H2251 0.950 . S
C2263 C2259 1.393 . S
C2263 C2262 1.391 . S
H2264 C2272 0.950 . S
H2265 C2277 0.950 . S
H2266 C2274 0.950 . S
H2267 C2276 0.950 . S
H2268 C2278 0.950 . S
H2269 C2280 0.950 . S
H2270 C2282 0.950 . S
H2271 C2283 0.950 . S
C2272 H2264 0.950 . S
C2272 C2273 1.386 . S
C2272 C2274 1.391 . S
C2273 C2272 1.386 . S
C2273 C2277 1.393 . S
C2274 H2266 0.950 . S
C2274 C2272 1.391 . S
C2274 C2275 1.400 . S
C2275 C2274 1.400 . S
C2275 C2276 1.398 . S
C2275 C2281 1.491 . S
C2276 H2267 0.950 . S
C2276 C2275 1.398 . S
C2276 C2277 1.391 . S
C2277 H2265 0.950 . S
C2277 C2273 1.393 . S
C2277 C2276 1.391 . S
C2278 H2268 0.950 . S
C2278 C2279 1.386 . S
C2278 C2280 1.391 . S
C2279 C2278 1.386 . S
C2279 C2283 1.393 . S
C2280 H2269 0.950 . S
C2280 C2278 1.391 . S
C2280 C2281 1.400 . S
C2281 C2275 1.491 . S
C2281 C2280 1.400 . S
C2281 C2282 1.398 . S
C2282 H2270 0.950 . S
C2282 C2281 1.398 . S
C2282 C2283 1.391 . S
C2283 H2271 0.950 . S
C2283 C2279 1.393 . S
C2283 C2282 1.391 . S
H2284 C2292 0.950 . S
H2285 C2297 0.950 . S
H2286 C2294 0.950 . S
H2287 C2296 0.950 . S
H2288 C2298 0.950 . S
H2289 C2300 0.950 . S
H2290 C2302 0.950 . S
H2291 C2303 0.950 . S
C2292 H2284 0.950 . S
C2292 C2293 1.386 . S
C2292 C2294 1.391 . S
C2293 C2292 1.386 . S
C2293 C2297 1.393 . S
C2294 H2286 0.950 . S
C2294 C2292 1.391 . S
C2294 C2295 1.400 . S
C2295 C2294 1.400 . S
C2295 C2296 1.398 . S
C2295 C2301 1.491 . S
C2296 H2287 0.950 . S
C2296 C2295 1.398 . S
C2296 C2297 1.391 . S
C2297 H2285 0.950 . S
C2297 C2293 1.393 . S
C2297 C2296 1.391 . S
C2298 H2288 0.950 . S
C2298 C2299 1.386 . S
C2298 C2300 1.391 . S
C2299 C2298 1.386 . S
C2299 C2303 1.393 . S
C2300 H2289 0.950 . S
C2300 C2298 1.391 . S
C2300 C2301 1.400 . S
C2301 C2295 1.491 . S
C2301 C2300 1.400 . S
C2301 C2302 1.398 . S
C2302 H2290 0.950 . S
C2302 C2301 1.398 . S
C2302 C2303 1.391 . S
C2303 H2291 0.950 . S
C2303 C2299 1.393 . S
C2303 C2302 1.391 . S
H2304 C2312 0.950 . S
H2305 C2317 0.950 . S
H2306 C2314 0.950 . S
H2307 C2316 0.950 . S
H2308 C2318 0.950 . S
H2309 C2320 0.950 . S
H2310 C2322 0.950 . S
H2311 C2323 0.950 . S
C2312 H2304 0.950 . S
C2312 C2313 1.386 . S
C2312 C2314 1.391 . S
C2313 C2312 1.386 . S
C2313 C2317 1.393 . S
C2314 H2306 0.950 . S
C2314 C2312 1.391 . S
C2314 C2315 1.400 . S
C2315 C2314 1.400 . S
C2315 C2316 1.398 . S
C2315 C2321 1.491 . S
C2316 H2307 0.950 . S
C2316 C2315 1.398 . S
C2316 C2317 1.391 . S
C2317 H2305 0.950 . S
C2317 C2313 1.393 . S
C2317 C2316 1.391 . S
C2318 H2308 0.950 . S
C2318 C2319 1.386 . S
C2318 C2320 1.391 . S
C2319 C2318 1.386 . S
C2319 C2323 1.393 . S
C2320 H2309 0.950 . S
C2320 C2318 1.391 . S
C2320 C2321 1.400 . S
C2321 C2315 1.491 . S
C2321 C2320 1.400 . S
C2321 C2322 1.398 . S
C2322 H2310 0.950 . S
C2322 C2321 1.398 . S
C2322 C2323 1.391 . S
C2323 H2311 0.950 . S
C2323 C2319 1.393 . S
C2323 C2322 1.391 . S
H2324 C2332 0.950 . S
H2325 C2337 0.950 . S
H2326 C2334 0.950 . S
H2327 C2336 0.950 . S
H2328 C2338 0.950 . S
H2329 C2340 0.950 . S
H2330 C2342 0.950 . S
H2331 C2343 0.950 . S
C2332 H2324 0.950 . S
C2332 C2333 1.386 . S
C2332 C2334 1.391 . S
C2333 C2332 1.386 . S
C2333 C2337 1.393 . S
C2334 H2326 0.950 . S
C2334 C2332 1.391 . S
C2334 C2335 1.400 . S
C2335 C2334 1.400 . S
C2335 C2336 1.398 . S
C2335 C2341 1.491 . S
C2336 H2327 0.950 . S
C2336 C2335 1.398 . S
C2336 C2337 1.391 . S
C2337 H2325 0.950 . S
C2337 C2333 1.393 . S
C2337 C2336 1.391 . S
C2338 H2328 0.950 . S
C2338 C2339 1.386 . S
C2338 C2340 1.391 . S
C2339 C2338 1.386 . S
C2339 C2343 1.393 . S
C2340 H2329 0.950 . S
C2340 C2338 1.391 . S
C2340 C2341 1.400 . S
C2341 C2335 1.491 . S
C2341 C2340 1.400 . S
C2341 C2342 1.398 . S
C2342 H2330 0.950 . S
C2342 C2341 1.398 . S
C2342 C2343 1.391 . S
C2343 H2331 0.950 . S
C2343 C2339 1.393 . S
C2343 C2342 1.391 . S
H2344 C2352 0.950 . S
H2345 C2357 0.950 . S
H2346 C2354 0.950 . S
H2347 C2356 0.950 . S
H2348 C2358 0.950 . S
H2349 C2360 0.950 . S
H2350 C2362 0.950 . S
H2351 C2363 0.950 . S
C2352 H2344 0.950 . S
C2352 C2353 1.386 . S
C2352 C2354 1.391 . S
C2353 C2352 1.386 . S
C2353 C2357 1.393 . S
C2354 H2346 0.950 . S
C2354 C2352 1.391 . S
C2354 C2355 1.400 . S
C2355 C2354 1.400 . S
C2355 C2356 1.398 . S
C2355 C2361 1.491 . S
C2356 H2347 0.950 . S
C2356 C2355 1.398 . S
C2356 C2357 1.391 . S
C2357 H2345 0.950 . S
C2357 C2353 1.393 . S
C2357 C2356 1.391 . S
C2358 H2348 0.950 . S
C2358 C2359 1.386 . S
C2358 C2360 1.391 . S
C2359 C2358 1.386 . S
C2359 C2363 1.393 . S
C2360 H2349 0.950 . S
C2360 C2358 1.391 . S
C2360 C2361 1.400 . S
C2361 C2355 1.491 . S
C2361 C2360 1.400 . S
C2361 C2362 1.398 . S
C2362 H2350 0.950 . S
C2362 C2361 1.398 . S
C2362 C2363 1.391 . S
C2363 H2351 0.950 . S
C2363 C2359 1.393 . S
C2363 C2362 1.391 . S
H2364 C2372 0.950 . S
H2365 C2377 0.950 . S
H2366 C2374 0.950 . S
H2367 C2376 0.950 . S
H2368 C2378 0.950 . S
H2369 C2380 0.950 . S
H2370 C2382 0.950 . S
H2371 C2383 0.950 . S
C2372 H2364 0.950 . S
C2372 C2373 1.386 . S
C2372 C2374 1.391 . S
C2373 C2372 1.386 . S
C2373 C2377 1.393 . S
C2374 H2366 0.950 . S
C2374 C2372 1.391 . S
C2374 C2375 1.400 . S
C2375 C2374 1.400 . S
C2375 C2376 1.398 . S
C2375 C2381 1.491 . S
C2376 H2367 0.950 . S
C2376 C2375 1.398 . S
C2376 C2377 1.391 . S
C2377 H2365 0.950 . S
C2377 C2373 1.393 . S
C2377 C2376 1.391 . S
C2378 H2368 0.950 . S
C2378 C2379 1.386 . S
C2378 C2380 1.391 . S
C2379 C2378 1.386 . S
C2379 C2383 1.393 . S
C2380 H2369 0.950 . S
C2380 C2378 1.391 . S
C2380 C2381 1.400 . S
C2381 C2375 1.491 . S
C2381 C2380 1.400 . S
C2381 C2382 1.398 . S
C2382 H2370 0.950 . S
C2382 C2381 1.398 . S
C2382 C2383 1.391 . S
C2383 H2371 0.950 . S
C2383 C2379 1.393 . S
C2383 C2382 1.391 . S
H2384 C2392 0.950 . S
H2385 C2397 0.950 . S
H2386 C2394 0.950 . S
H2387 C2396 0.950 . S
H2388 C2398 0.950 . S
H2389 C2400 0.950 . S
H2390 C2402 0.950 . S
H2391 C2403 0.950 . S
C2392 H2384 0.950 . S
C2392 C2393 1.386 . S
C2392 C2394 1.391 . S
C2393 C2392 1.386 . S
C2393 C2397 1.393 . S
C2394 H2386 0.950 . S
C2394 C2392 1.391 . S
C2394 C2395 1.400 . S
C2395 C2394 1.400 . S
C2395 C2396 1.398 . S
C2395 C2401 1.491 . S
C2396 H2387 0.950 . S
C2396 C2395 1.398 . S
C2396 C2397 1.391 . S
C2397 H2385 0.950 . S
C2397 C2393 1.393 . S
C2397 C2396 1.391 . S
C2398 H2388 0.950 . S
C2398 C2399 1.386 . S
C2398 C2400 1.391 . S
C2399 C2398 1.386 . S
C2399 C2403 1.393 . S
C2400 H2389 0.950 . S
C2400 C2398 1.391 . S
C2400 C2401 1.400 . S
C2401 C2395 1.491 . S
C2401 C2400 1.400 . S
C2401 C2402 1.398 . S
C2402 H2390 0.950 . S
C2402 C2401 1.398 . S
C2402 C2403 1.391 . S
C2403 H2391 0.950 . S
C2403 C2399 1.393 . S
C2403 C2402 1.391 . S
H2404 C2412 0.950 . S
H2405 C2417 0.950 . S
H2406 C2414 0.950 . S
H2407 C2416 0.950 . S
H2408 C2418 0.950 . S
H2409 C2420 0.950 . S
H2410 C2422 0.950 . S
H2411 C2423 0.950 . S
C2412 H2404 0.950 . S
C2412 C2413 1.386 . S
C2412 C2414 1.391 . S
C2413 C2412 1.386 . S
C2413 C2417 1.393 . S
C2414 H2406 0.950 . S
C2414 C2412 1.391 . S
C2414 C2415 1.400 . S
C2415 C2414 1.400 . S
C2415 C2416 1.398 . S
C2415 C2421 1.491 . S
C2416 H2407 0.950 . S
C2416 C2415 1.398 . S
C2416 C2417 1.391 . S
C2417 H2405 0.950 . S
C2417 C2413 1.393 . S
C2417 C2416 1.391 . S
C2418 H2408 0.950 . S
C2418 C2419 1.386 . S
C2418 C2420 1.391 . S
C2419 C2418 1.386 . S
C2419 C2423 1.393 . S
C2420 H2409 0.950 . S
C2420 C2418 1.391 . S
C2420 C2421 1.400 . S
C2421 C2415 1.491 . S
C2421 C2420 1.400 . S
C2421 C2422 1.398 . S
C2422 H2410 0.950 . S
C2422 C2421 1.398 . S
C2422 C2423 1.391 . S
C2423 H2411 0.950 . S
C2423 C2419 1.393 . S
C2423 C2422 1.391 . S
H2424 C2432 0.950 . S
H2425 C2437 0.950 . S
H2426 C2434 0.950 . S
H2427 C2436 0.950 . S
H2428 C2438 0.950 . S
H2429 C2440 0.950 . S
H2430 C2442 0.950 . S
H2431 C2443 0.950 . S
C2432 H2424 0.950 . S
C2432 C2433 1.386 . S
C2432 C2434 1.391 . S
C2433 C2432 1.386 . S
C2433 C2437 1.393 . S
C2434 H2426 0.950 . S
C2434 C2432 1.391 . S
C2434 C2435 1.400 . S
C2435 C2434 1.400 . S
C2435 C2436 1.398 . S
C2435 C2441 1.491 . S
C2436 H2427 0.950 . S
C2436 C2435 1.398 . S
C2436 C2437 1.391 . S
C2437 H2425 0.950 . S
C2437 C2433 1.393 . S
C2437 C2436 1.391 . S
C2438 H2428 0.950 . S
C2438 C2439 1.386 . S
C2438 C2440 1.391 . S
C2439 C2438 1.386 . S
C2439 C2443 1.393 . S
C2440 H2429 0.950 . S
C2440 C2438 1.391 . S
C2440 C2441 1.400 . S
C2441 C2435 1.491 . S
C2441 C2440 1.400 . S
C2441 C2442 1.398 . S
C2442 H2430 0.950 . S
C2442 C2441 1.398 . S
C2442 C2443 1.391 . S
C2443 H2431 0.950 . S
C2443 C2439 1.393 . S
C2443 C2442 1.391 . S
H2444 C2452 0.950 . S
H2445 C2457 0.950 . S
H2446 C2454 0.950 . S
H2447 C2456 0.950 . S
H2448 C2458 0.950 . S
H2449 C2460 0.950 . S
H2450 C2462 0.950 . S
H2451 C2463 0.950 . S
C2452 H2444 0.950 . S
C2452 C2453 1.386 . S
C2452 C2454 1.391 . S
C2453 C2452 1.386 . S
C2453 C2457 1.393 . S
C2454 H2446 0.950 . S
C2454 C2452 1.391 . S
C2454 C2455 1.400 . S
C2455 C2454 1.400 . S
C2455 C2456 1.398 . S
C2455 C2461 1.491 . S
C2456 H2447 0.950 . S
C2456 C2455 1.398 . S
C2456 C2457 1.391 . S
C2457 H2445 0.950 . S
C2457 C2453 1.393 . S
C2457 C2456 1.391 . S
C2458 H2448 0.950 . S
C2458 C2459 1.386 . S
C2458 C2460 1.391 . S
C2459 C2458 1.386 . S
C2459 C2463 1.393 . S
C2460 H2449 0.950 . S
C2460 C2458 1.391 . S
C2460 C2461 1.400 . S
C2461 C2455 1.491 . S
C2461 C2460 1.400 . S
C2461 C2462 1.398 . S
C2462 H2450 0.950 . S
C2462 C2461 1.398 . S
C2462 C2463 1.391 . S
C2463 H2451 0.950 . S
C2463 C2459 1.393 . S
C2463 C2462 1.391 . S
H2464 C2472 0.950 . S
H2465 C2477 0.950 . S
H2466 C2474 0.950 . S
H2467 C2476 0.950 . S
H2468 C2478 0.950 . S
H2469 C2480 0.950 . S
H2470 C2482 0.950 . S
H2471 C2483 0.950 . S
C2472 H2464 0.950 . S
C2472 C2473 1.386 . S
C2472 C2474 1.391 . S
C2473 C2472 1.386 . S
C2473 C2477 1.393 . S
C2474 H2466 0.950 . S
C2474 C2472 1.391 . S
C2474 C2475 1.400 . S
C2475 C2474 1.400 . S
C2475 C2476 1.398 . S
C2475 C2481 1.491 . S
C2476 H2467 0.950 . S
C2476 C2475 1.398 . S
C2476 C2477 1.391 . S
C2477 H2465 0.950 . S
C2477 C2473 1.393 . S
C2477 C2476 1.391 . S
C2478 H2468 0.950 . S
C2478 C2479 1.386 . S
C2478 C2480 1.391 . S
C2479 C2478 1.386 . S
C2479 C2483 1.393 . S
C2480 H2469 0.950 . S
C2480 C2478 1.391 . S
C2480 C2481 1.400 . S
C2481 C2475 1.491 . S
C2481 C2480 1.400 . S
C2481 C2482 1.398 . S
C2482 H2470 0.950 . S
C2482 C2481 1.398 . S
C2482 C2483 1.391 . S
C2483 H2471 0.950 . S
C2483 C2479 1.393 . S
C2483 C2482 1.391 . S
H2484 C2492 0.950 . S
H2485 C2497 0.950 . S
H2486 C2494 0.950 . S
H2487 C2496 0.950 . S
H2488 C2498 0.950 . S
H2489 C2500 0.950 . S
H2490 C2502 0.950 . S
H2491 C2503 0.950 . S
C2492 H2484 0.950 . S
C2492 C2493 1.386 . S
C2492 C2494 1.391 . S
C2493 C2492 1.386 . S
C2493 C2497 1.393 . S
C2494 H2486 0.950 . S
C2494 C2492 1.391 . S
C2494 C2495 1.400 . S
C2495 C2494 1.400 . S
C2495 C2496 1.398 . S
C2495 C2501 1.491 . S
C2496 H2487 0.950 . S
C2496 C2495 1.398 . S
C2496 C2497 1.391 . S
C2497 H2485 0.950 . S
C2497 C2493 1.393 . S
C2497 C2496 1.391 . S
C2498 H2488 0.950 . S
C2498 C2499 1.386 . S
C2498 C2500 1.391 . S
C2499 C2498 1.386 . S
C2499 C2503 1.393 . S
C2500 H2489 0.950 . S
C2500 C2498 1.391 . S
C2500 C2501 1.400 . S
C2501 C2495 1.491 . S
C2501 C2500 1.400 . S
C2501 C2502 1.398 . S
C2502 H2490 0.950 . S
C2502 C2501 1.398 . S
C2502 C2503 1.391 . S
C2503 H2491 0.950 . S
C2503 C2499 1.393 . S
C2503 C2502 1.391 . S
H2504 C2512 0.950 . S
H2505 C2517 0.950 . S
H2506 C2514 0.950 . S
H2507 C2516 0.950 . S
H2508 C2518 0.950 . S
H2509 C2520 0.950 . S
H2510 C2522 0.950 . S
H2511 C2523 0.950 . S
C2512 H2504 0.950 . S
C2512 C2513 1.386 . S
C2512 C2514 1.391 . S
C2513 C2512 1.386 . S
C2513 C2517 1.393 . S
C2514 H2506 0.950 . S
C2514 C2512 1.391 . S
C2514 C2515 1.400 . S
C2515 C2514 1.400 . S
C2515 C2516 1.398 . S
C2515 C2521 1.491 . S
C2516 H2507 0.950 . S
C2516 C2515 1.398 . S
C2516 C2517 1.391 . S
C2517 H2505 0.950 . S
C2517 C2513 1.393 . S
C2517 C2516 1.391 . S
C2518 H2508 0.950 . S
C2518 C2519 1.386 . S
C2518 C2520 1.391 . S
C2519 C2518 1.386 . S
C2519 C2523 1.393 . S
C2520 H2509 0.950 . S
C2520 C2518 1.391 . S
C2520 C2521 1.400 . S
C2521 C2515 1.491 . S
C2521 C2520 1.400 . S
C2521 C2522 1.398 . S
C2522 H2510 0.950 . S
C2522 C2521 1.398 . S
C2522 C2523 1.391 . S
C2523 H2511 0.950 . S
C2523 C2519 1.393 . S
C2523 C2522 1.391 . S
H2524 C2532 0.950 . S
H2525 C2537 0.950 . S
H2526 C2534 0.950 . S
H2527 C2536 0.950 . S
H2528 C2538 0.950 . S
H2529 C2540 0.950 . S
H2530 C2542 0.950 . S
H2531 C2543 0.950 . S
C2532 H2524 0.950 . S
C2532 C2533 1.386 . S
C2532 C2534 1.391 . S
C2533 C2532 1.386 . S
C2533 C2537 1.393 . S
C2534 H2526 0.950 . S
C2534 C2532 1.391 . S
C2534 C2535 1.400 . S
C2535 C2534 1.400 . S
C2535 C2536 1.398 . S
C2535 C2541 1.491 . S
C2536 H2527 0.950 . S
C2536 C2535 1.398 . S
C2536 C2537 1.391 . S
C2537 H2525 0.950 . S
C2537 C2533 1.393 . S
C2537 C2536 1.391 . S
C2538 H2528 0.950 . S
C2538 C2539 1.386 . S
C2538 C2540 1.391 . S
C2539 C2538 1.386 . S
C2539 C2543 1.393 . S
C2540 H2529 0.950 . S
C2540 C2538 1.391 . S
C2540 C2541 1.400 . S
C2541 C2535 1.491 . S
C2541 C2540 1.400 . S
C2541 C2542 1.398 . S
C2542 H2530 0.950 . S
C2542 C2541 1.398 . S
C2542 C2543 1.391 . S
C2543 H2531 0.950 . S
C2543 C2539 1.393 . S
C2543 C2542 1.391 . S
C633 C268 1.131 . S
C639 C8 1.110 . S
C653 C23 1.006 . S
C659 C229 1.037 . S
C673 C34 1.095 . S
C679 C244 1.066 . S
C693 C257 1.023 . S
C699 C49 1.001 . S
C713 C309 0.992 . S
C719 C62 1.006 . S
C733 C73 1.098 . S
C739 C283 1.096 . S
C753 C88 1.006 . S
C759 C296 0.998 . S
C773 C99 1.101 . S
C779 C216 1.086 . S
C793 C112 1.061 . S
C799 C203 1.065 . S
C813 C127 1.081 . S
C819 C166 1.082 . S
C833 C138 1.038 . S
C839 C177 1.041 . S
C853 C192 1.031 . S
C859 C153 1.020 . S
C873 C322 1.214 . S
C879 C582 1.198 . S
C893 C543 1.106 . S
C899 C333 1.112 . S
C913 C348 1.187 . S
C919 C554 1.195 . S
C933 C567 1.126 . S
C939 C359 1.128 . S
C953 C372 1.126 . S
C959 C621 1.120 . S
C973 C593 1.197 . S
C979 C387 1.186 . S
C993 C398 1.128 . S
C999 C606 1.116 . S
C1013 C530 1.207 . S
C1019 C413 1.194 . S
C1033 C426 1.167 . S
C1039 C517 1.171 . S
C1053 C476 1.196 . S
C1059 C437 1.194 . S
C1073 C491 1.121 . S
C1079 C452 1.138 . S
C1093 C502 1.132 . S
C1099 C463 1.141 . S
C1113 C346 0.935 . S
C1119 C10 0.957 . S
C1133 C21 0.948 . S
C1139 C361 0.962 . S
C1153 C36 0.975 . S
C1159 C320 0.975 . S
C1173 C47 0.968 . S
C1179 C335 0.965 . S
C1193 C60 0.997 . S
C1199 C400 0.979 . S
C1213 C411 0.935 . S
C1219 C75 0.956 . S
C1233 C374 0.950 . S
C1239 C86 0.972 . S
C1253 C385 0.966 . S
C1259 C101 0.950 . S
C1273 C478 0.963 . S
C1279 C114 0.951 . S
C1293 C125 0.949 . S
C1299 C489 0.947 . S
C1313 C504 0.948 . S
C1319 C140 0.966 . S
C1333 C151 0.963 . S
C1339 C515 0.953 . S
C1353 C164 0.981 . S
C1359 C424 0.979 . S
C1373 C179 0.954 . S
C1379 C439 0.964 . S
C1393 C450 0.948 . S
C1399 C190 0.951 . S
C1413 C465 0.972 . S
C1419 C205 0.940 . S
C1433 C218 0.954 . S
C1439 C569 0.950 . S
C1453 C231 0.961 . S
C1459 C595 0.988 . S
C1473 C608 0.969 . S
C1479 C242 0.952 . S
C1493 C528 0.960 . S
C1499 C255 0.961 . S
C1513 C270 0.960 . S
C1519 C619 0.955 . S
C1533 C541 0.938 . S
C1539 C281 0.942 . S
C1553 C294 0.956 . S
C1559 C556 0.970 . S
C1573 C307 0.987 . S
C1579 C580 0.980 . S
C1593 C364 1.528 . S
C1599 C5 1.481 . S
C1613 C382 1.560 . S
C1619 C13 1.502 . S
C1633 C390 1.553 . S
C1639 C31 1.502 . S
C1653 C39 1.487 . S
C1659 C408 1.553 . S
C1673 C317 1.513 . S
C1679 C52 1.509 . S
C1693 C325 1.547 . S
C1699 C70 1.482 . S
C1713 C78 1.510 . S
C1719 C343 1.570 . S
C1733 C351 1.515 . S
C1739 C96 1.519 . S
C1753 C109 1.482 . S
C1759 C494 1.544 . S
C1773 C117 1.509 . S
C1779 C512 1.520 . S
C1793 C468 1.523 . S
C1799 C135 1.508 . S
C1813 C143 1.540 . S
C1819 C486 1.521 . S
C1833 C447 1.528 . S
C1839 C156 1.509 . S
C1853 C174 1.483 . S
C1859 C455 1.548 . S
C1873 C182 1.521 . S
C1879 C421 1.539 . S
C1893 C200 1.505 . S
C1899 C429 1.508 . S
C1913 C585 1.491 . S
C1919 C213 1.486 . S
C1933 C226 1.537 . S
C1939 C559 1.598 . S
C1953 C234 1.534 . S
C1959 C577 1.509 . S
C1973 C247 1.548 . S
C1979 C538 1.559 . S
C1993 C546 1.521 . S
C1999 C265 1.449 . S
C2013 C525 1.501 . S
C2019 C273 1.494 . S
C2033 C616 1.562 . S
C2039 C286 1.530 . S
C2053 C299 1.525 . S
C2059 C598 1.570 . S
C2073 C195 1.461 . S
C2079 C0 1.468 . S
C2093 C18 1.436 . S
C2099 C161 1.469 . S
C2113 C169 1.499 . S
C2119 C26 1.493 . S
C2133 C187 1.460 . S
C2139 C44 1.455 . S
C2153 C122 1.454 . S
C2159 C57 1.431 . S
C2173 C65 1.470 . S
C2179 C130 1.485 . S
C2193 C83 1.484 . S
C2199 C148 1.500 . S
C2213 C104 1.483 . S
C2219 C91 1.476 . S
C2233 C208 1.492 . S
C2239 C260 1.495 . S
C2253 C304 1.475 . S
C2259 C221 1.526 . S
C2273 C278 1.424 . S
C2279 C239 1.429 . S
C2293 C252 1.476 . S
C2299 C291 1.486 . S
C2313 C507 1.519 . S
C2319 C312 1.525 . S
C2333 C473 1.517 . S
C2339 C330 1.517 . S
C2353 C338 1.564 . S
C2359 C481 1.531 . S
C2373 C499 1.505 . S
C2379 C356 1.507 . S
C2393 C434 1.488 . S
C2399 C369 1.490 . S
C2413 C377 1.554 . S
C2419 C442 1.537 . S
C2433 C395 1.489 . S
C2439 C460 1.496 . S
C2453 C403 1.527 . S
C2459 C416 1.499 . S
C2473 C520 1.549 . S
C2479 C572 1.555 . S
C2493 C611 1.560 . S
C2499 C533 1.549 . S
C2513 C590 1.456 . S
C2519 C551 1.463 . S
C2533 C603 1.492 . S
C2539 C564 1.486 . S
