# Generated by pormake.
# Topology snk, (6)-cn, num edge types: 1
# Building blocks:
#     Node 0, Type 0, BuildingBlock: BETDAH_clean_sbu_0, # of connection points: 6
#     Node 1, Type 0, BuildingBlock: BETDAH_clean_sbu_0, # of connection points: 6
#     Node 2, Type 0, BuildingBlock: BETDAH_clean_sbu_0, # of connection points: 6
#     Node 3, Type 0, BuildingBlock: BETDAH_clean_sbu_0, # of connection points: 6
#     Node 4, Type 0, BuildingBlock: BETDAH_clean_sbu_0, # of connection points: 6
#     Node 5, Type 0, BuildingBlock: BETDAH_clean_sbu_0, # of connection points: 6
#     Node 6, Type 0, BuildingBlock: BETDAH_clean_sbu_0, # of connection points: 6
#     Node 7, Type 0, BuildingBlock: BETDAH_clean_sbu_0, # of connection points: 6
#     Edge 8, Type (0, 0), BuildingBlock: EYOCIG_clean_linker_4, # of connection points: 2
#     Edge 9, Type (0, 0), BuildingBlock: EYOCIG_clean_linker_4, # of connection points: 2
#     Edge 10, Type (0, 0), BuildingBlock: EYOCIG_clean_linker_4, # of connection points: 2
#     Edge 11, Type (0, 0), BuildingBlock: EYOCIG_clean_linker_4, # of connection points: 2
#     Edge 12, Type (0, 0), BuildingBlock: EYOCIG_clean_linker_4, # of connection points: 2
#     Edge 13, Type (0, 0), BuildingBlock: EYOCIG_clean_linker_4, # of connection points: 2
#     Edge 14, Type (0, 0), BuildingBlock: EYOCIG_clean_linker_4, # of connection points: 2
#     Edge 15, Type (0, 0), BuildingBlock: EYOCIG_clean_linker_4, # of connection points: 2
#     Edge 16, Type (0, 0), BuildingBlock: EYOCIG_clean_linker_4, # of connection points: 2
#     Edge 17, Type (0, 0), BuildingBlock: EYOCIG_clean_linker_4, # of connection points: 2
#     Edge 18, Type (0, 0), BuildingBlock: EYOCIG_clean_linker_4, # of connection points: 2
#     Edge 19, Type (0, 0), BuildingBlock: EYOCIG_clean_linker_4, # of connection points: 2
#     Edge 20, Type (0, 0), BuildingBlock: EYOCIG_clean_linker_4, # of connection points: 2
#     Edge 21, Type (0, 0), BuildingBlock: EYOCIG_clean_linker_4, # of connection points: 2
#     Edge 22, Type (0, 0), BuildingBlock: EYOCIG_clean_linker_4, # of connection points: 2
#     Edge 23, Type (0, 0), BuildingBlock: EYOCIG_clean_linker_4, # of connection points: 2
#     Edge 24, Type (0, 0), BuildingBlock: EYOCIG_clean_linker_4, # of connection points: 2
#     Edge 25, Type (0, 0), BuildingBlock: EYOCIG_clean_linker_4, # of connection points: 2
#     Edge 26, Type (0, 0), BuildingBlock: EYOCIG_clean_linker_4, # of connection points: 2
#     Edge 27, Type (0, 0), BuildingBlock: EYOCIG_clean_linker_4, # of connection points: 2
#     Edge 28, Type (0, 0), BuildingBlock: EYOCIG_clean_linker_4, # of connection points: 2
#     Edge 29, Type (0, 0), BuildingBlock: EYOCIG_clean_linker_4, # of connection points: 2
#     Edge 30, Type (0, 0), BuildingBlock: EYOCIG_clean_linker_4, # of connection points: 2
#     Edge 31, Type (0, 0), BuildingBlock: EYOCIG_clean_linker_4, # of connection points: 2
# Relax obj value: 0.106
# Max RMSD: 0.177
# Mean RMSD: 0.140
data_MOF--net-snk--node1-BETDAH_clean_sbu_0--edge1-EYOCIG_clean_linker_4
_symmetry_space_group_name_H-M    P1
_symmetry_Int_Tables_number       1
_symmetry_cell_setting            triclinic
loop_
_symmetry_equiv_pos_as_xyz
'x, y, z'
_cell_length_a     0.844455
_cell_length_b     28.844427
_cell_length_c     22.339206
_cell_angle_alpha  83.730727
_cell_angle_beta   96.294842
_cell_angle_gamma 89.804244
loop_
_atom_site_label
_atom_site_type_symbol
_atom_site_fract_x
_atom_site_fract_y
_atom_site_fract_z
_atom_type_partial_charge
Ho0 Ho 34.0532 0.98406 0.45307 0.0
Ho1 Ho 0.5302 0.02479 0.57394 0.0
C2 C 2.35686 0.07069 0.46685 0.0
C3 C 33.36795 0.97305 0.34088 0.0
C4 C 34.05427 0.98417 0.28348 0.0
C5 C 33.69987 0.02714 0.24828 0.0
C6 C 34.01556 0.03323 0.18813 0.0
C7 C 0.52447 0.99651 0.16299 0.0
C8 C 1.03353 0.95549 0.19924 0.0
C9 C 0.72074 0.94931 0.2595 0.0
C10 C 2.28081 0.94373 0.52968 0.0
C11 C 32.22157 0.93821 0.56002 0.0
C12 C 1.21537 0.03529 0.68627 0.0
C13 C 0.51297 0.02417 0.74334 0.0
C14 C 0.86499 0.98125 0.77871 0.0
C15 C 0.52709 0.97511 0.8386 0.0
C16 C 33.99877 0.01173 0.86331 0.0
C17 C 33.49232 0.05266 0.82681 0.0
C18 C 33.82704 0.05889 0.76682 0.0
C19 C 32.30724 0.06527 0.49715 0.0
O20 O 1.38538 0.04765 0.43036 0.0
O21 O 2.40564 0.06357 0.5264 0.0
O22 O 34.1152 0.94123 0.38028 0.0
O23 O 32.81799 0.00806 0.36566 0.0
O24 O 1.34942 0.92058 0.49418 0.0
O25 O 1.96619 0.98644 0.52049 0.0
O26 O 33.18892 0.96134 0.59653 0.0
O27 O 32.17858 0.94519 0.50049 0.0
O28 O 0.48787 0.06752 0.64693 0.0
O29 O 1.75352 1.00018 0.66135 0.0
O30 O 33.23563 0.08836 0.53285 0.0
O31 O 32.61967 0.02254 0.50654 0.0
H32 H 33.07958 0.05485 0.26565 0.0
H33 H 33.62711 0.06519 0.16014 0.0
H34 H 1.55759 0.92697 0.17995 0.0
H35 H 1.02046 0.91604 0.28584 0.0
H36 H 1.49959 0.95364 0.76172 0.0
H37 H 0.91392 0.94322 0.86678 0.0
H38 H 32.95374 0.0811 0.84578 0.0
H39 H 33.52764 0.0921 0.74034 0.0
Ho40 Ho 8.04695 0.74496 0.82262 0.0
Ho41 Ho 9.45721 0.76292 0.70196 0.0
C42 C 11.0205 0.81652 0.80913 0.0
C43 C 7.65282 0.7251 0.93466 0.0
C44 C 8.03233 0.74514 0.99211 0.0
C45 C 9.51055 0.73543 0.02689 0.0
C46 C 9.72517 0.74481 0.08699 0.0
C47 C 8.46763 0.76379 0.1125 0.0
C48 C 7.05244 0.77797 0.07666 0.0
C49 C 6.83441 0.76866 0.01646 0.0
C50 C 6.69101 0.81476 0.74543 0.0
C51 C 6.4838 0.69129 0.71555 0.0
C52 C 9.831 0.78287 0.58978 0.0
C53 C 9.45169 0.76255 0.53252 0.0
C54 C 7.98609 0.77297 0.49715 0.0
C55 C 7.77902 0.76344 0.43711 0.0
C56 C 9.0319 0.74361 0.41225 0.0
C57 C 10.42972 0.72866 0.4487 0.0
C58 C 10.6399 0.7381 0.50886 0.0
C59 C 10.815 0.69313 0.77917 0.0
O60 O 10.22328 0.78837 0.84558 0.0
O61 O 10.78705 0.8177 0.74959 0.0
O62 O 6.576 0.74725 0.89509 0.0
O63 O 8.84743 0.70866 0.91012 0.0
O64 O 5.89015 0.78781 0.78091 0.0
O65 O 8.14779 0.80529 0.75499 0.0
O66 O 7.28408 0.71934 0.6791 0.0
O67 O 6.71463 0.6902 0.77508 0.0
O68 O 10.92264 0.76124 0.62924 0.0
O69 O 8.63285 0.79888 0.61451 0.0
O70 O 11.61504 0.71998 0.74351 0.0
O71 O 9.35825 0.70262 0.76951 0.0
H72 H 10.46246 0.71774 1.00923 0.0
H73 H 10.82718 0.73398 0.11467 0.0
H74 H 6.07533 0.79287 0.09625 0.0
H75 H 5.68961 0.77688 0.99045 0.0
H76 H 7.04139 0.79137 0.51429 0.0
H77 H 6.68974 0.77485 0.40896 0.0
H78 H 11.40254 0.71307 0.42962 0.0
H79 H 11.77418 0.72927 0.53534 0.0
Ho80 Ho 17.53829 0.97306 0.07519 0.0
Ho81 Ho 17.01803 0.03513 0.94953 0.0
C82 C 15.18937 0.06641 0.05636 0.0
C83 C 18.01302 0.94568 0.19033 0.0
C84 C 17.62876 0.96093 0.24872 0.0
C85 C 18.06016 0.0051 0.26601 0.0
C86 C 17.87429 0.01616 0.32452 0.0
C87 C 17.25162 0.98339 0.36652 0.0
C88 C 16.73316 0.94044 0.34839 0.0
C89 C 16.92073 0.92931 0.28998 0.0
C90 C 15.44796 0.94143 0.99076 0.0
C91 C 19.36805 0.94179 0.96841 0.0
C92 C 16.53869 0.06249 0.83437 0.0
C93 C 16.91687 0.04722 0.77592 0.0
C94 C 16.49652 1.00288 0.75894 0.0
C95 C 16.67573 0.99176 0.7004 0.0
C96 C 17.2807 0.02463 0.65805 0.0
C97 C 17.78783 0.06778 0.67586 0.0
C98 C 17.6069 0.07898 0.73429 0.0
C99 C 19.10941 0.06663 0.03415 0.0
O100 O 16.06631 0.03478 0.09303 0.0
O101 O 15.20187 0.07103 0.99655 0.0
O102 O 16.8262 0.93148 0.15449 0.0
O103 O 19.03863 0.97028 0.16063 0.0
O104 O 16.31214 0.91423 0.03186 0.0
O105 O 15.62518 0.98363 0.99955 0.0
O106 O 18.49038 0.9734 0.93171 0.0
O107 O 19.35599 0.9372 0.02822 0.0
O108 O 17.7286 0.07664 0.87012 0.0
O109 O 15.51407 0.03793 0.86418 0.0
O110 O 18.24679 0.09392 0.99309 0.0
O111 O 18.9291 0.02452 0.02506 0.0
H112 H 18.58917 0.03053 0.23513 0.0
H113 H 18.26808 0.0497 0.33758 0.0
H114 H 16.2361 0.91484 0.38004 0.0
H115 H 16.56428 0.89523 0.27778 0.0
H116 H 15.9813 0.97736 0.79011 0.0
H117 H 16.29093 0.95807 0.68759 0.0
H118 H 18.27119 0.09348 0.64394 0.0
H119 H 17.95433 0.11319 0.74625 0.0
Ho120 Ho 7.67598 0.26151 0.19974 0.0
Ho121 Ho 9.79633 0.24629 0.3254 0.0
C122 C 10.86445 0.19274 0.21856 0.0
C123 C 6.74068 0.27553 0.08459 0.0
C124 C 7.25833 0.26438 0.02611 0.0
C125 C 8.76889 0.27679 1.00882 0.0
C126 C 9.14171 0.27143 0.95022 0.0
C127 C 8.01621 0.25349 0.90815 0.0
C128 C 6.54693 0.23854 0.92627 0.0
C129 C 6.17138 0.24397 0.98474 0.0
C130 C 6.59499 0.20032 0.28415 0.0
C131 C 6.60789 0.31506 0.30653 0.0
C132 C 10.73125 0.2324 0.44057 0.0
C133 C 10.20538 0.2435 0.49894 0.0
C134 C 8.69319 0.23092 0.5159 0.0
C135 C 8.30908 0.23622 0.57437 0.0
C136 C 9.42594 0.25428 0.61666 0.0
C137 C 10.89638 0.2694 0.59886 0.0
C138 C 11.28305 0.26404 0.54051 0.0
C139 C 10.87523 0.30742 0.24081 0.0
O140 O 9.78298 0.21838 0.18189 0.0
O141 O 11.02265 0.19311 0.27838 0.0
O142 O 6.2557 0.24074 0.12034 0.0
O143 O 7.5819 0.3055 0.11437 0.0
O144 O 5.66577 0.22562 0.24305 0.0
O145 O 8.03623 0.20552 0.27536 0.0
O146 O 7.68732 0.28935 0.34321 0.0
O147 O 6.45127 0.31473 0.24671 0.0
O148 O 11.21123 0.26726 0.4048 0.0
O149 O 9.89706 0.20229 0.41077 0.0
O150 O 11.80591 0.28215 0.28191 0.0
O151 O 9.43595 0.30222 0.24985 0.0
H152 H 9.64269 0.29203 0.03979 0.0
H153 H 10.28912 0.28276 0.93715 0.0
H154 H 5.66689 0.22422 0.89458 0.0
H155 H 5.00561 0.23373 0.99694 0.0
H156 H 7.82661 0.21557 0.48477 0.0
H157 H 7.16055 0.22474 0.58716 0.0
H158 H 11.76893 0.28381 0.63074 0.0
H159 H 12.44971 0.27444 0.52857 0.0
Ho160 Ho 25.11039 0.24493 0.323 0.0
Ho161 Ho 26.53052 0.26265 0.20244 0.0
C162 C 28.09073 0.31635 0.30955 0.0
C163 C 24.73183 0.22516 0.43517 0.0
C164 C 25.12037 0.24542 0.49241 0.0
C165 C 26.58921 0.23494 0.52754 0.0
C166 C 26.80541 0.24451 0.58755 0.0
C167 C 25.55848 0.26445 0.61264 0.0
C168 C 24.15737 0.27943 0.57641 0.0
C169 C 23.93798 0.26994 0.51629 0.0
C170 C 23.76148 0.31474 0.2457 0.0
C171 C 23.55295 0.19114 0.2159 0.0
C172 C 26.9153 0.28247 0.09032 0.0
C173 C 26.52859 0.26246 0.03288 0.0
C174 C 25.05929 0.27295 0.99778 0.0
C175 C 24.84625 0.26372 0.93762 0.0
C176 C 26.09673 0.24412 0.91236 0.0
C177 C 27.49877 0.22912 0.94852 0.0
C178 C 27.71497 0.23826 1.00878 0.0
C179 C 27.88229 0.19309 0.28027 0.0
O180 O 27.28513 0.28842 0.34595 0.0
O181 O 27.86505 0.31737 0.25001 0.0
O182 O 23.64688 0.24709 0.39571 0.0
O183 O 25.92341 0.20876 0.41043 0.0
O184 O 22.95827 0.28798 0.28132 0.0
O185 O 25.21798 0.30517 0.25526 0.0
O186 O 24.3579 0.21908 0.17949 0.0
O187 O 23.77669 0.19019 0.27543 0.0
O188 O 27.99499 0.26031 0.12978 0.0
O189 O 25.7242 0.29895 0.11501 0.0
O190 O 28.68654 0.21984 0.24466 0.0
O191 O 26.42612 0.20256 0.27021 0.0
H192 H 27.52964 0.21647 0.51023 0.0
H193 H 27.89693 0.23307 0.61553 0.0
H194 H 23.18889 0.2951 0.59566 0.0
H195 H 22.80133 0.27881 0.49 0.0
H196 H 24.1159 0.29117 0.01525 0.0
H197 H 23.75386 0.27517 0.9097 0.0
H198 H 28.4699 0.21371 0.92913 0.0
H199 H 28.85222 0.22941 0.03503 0.0
Ho200 Ho 24.7612 0.7616 0.6998 0.0
Ho201 Ho 26.87765 0.74631 0.82544 0.0
C202 C 27.94536 0.69265 0.71874 0.0
C203 C 23.82367 0.77555 0.58464 0.0
C204 C 24.34223 0.76441 0.52617 0.0
C205 C 25.85512 0.77677 0.50912 0.0
C206 C 26.23334 0.7715 0.45057 0.0
C207 C 25.11009 0.75371 0.40829 0.0
C208 C 23.63794 0.7388 0.42616 0.0
C209 C 23.25707 0.74412 0.48461 0.0
C210 C 23.67047 0.7006 0.78419 0.0
C211 C 23.69376 0.81525 0.8065 0.0
C212 C 27.8115 0.73248 0.94063 0.0
C213 C 27.28561 0.74363 0.99897 0.0
C214 C 25.77461 0.73099 0.016 0.0
C215 C 25.39131 0.73635 0.07446 0.0
C216 C 26.50724 0.7545 0.11668 0.0
C217 C 27.97671 0.76968 0.09881 0.0
C218 C 28.3626 0.76428 0.04046 0.0
C219 C 27.9625 0.80737 0.74087 0.0
O220 O 26.86678 0.71837 0.68202 0.0
O221 O 28.10175 0.69303 0.77855 0.0
O222 O 23.34165 0.74074 0.62043 0.0
O223 O 24.66471 0.80554 0.6144 0.0
O224 O 22.7459 0.72598 0.74303 0.0
O225 O 25.11331 0.70559 0.77548 0.0
O226 O 24.77084 0.78949 0.84322 0.0
O227 O 23.53898 0.81492 0.74669 0.0
O228 O 28.29259 0.7673 0.90484 0.0
O229 O 26.977 0.70236 0.91085 0.0
O230 O 28.89083 0.78201 0.78196 0.0
O231 O 26.52277 0.80227 0.74989 0.0
H232 H 26.7271 0.79193 0.54023 0.0
H233 H 27.38291 0.78282 0.43772 0.0
H234 H 22.76013 0.72458 0.39428 0.0
H235 H 22.08944 0.7339 0.49662 0.0
H236 H 24.90835 0.71556 0.98495 0.0
H237 H 24.24387 0.72482 0.08732 0.0
H238 H 28.84903 0.78417 0.13063 0.0
H239 H 29.52825 0.77472 0.02845 0.0
Ho240 Ho 16.98402 0.48294 0.95254 0.0
Ho241 Ho 17.57539 0.52487 0.07302 0.0
C242 C 19.40393 0.57069 0.96579 0.0
C243 C 16.31267 0.47161 0.84041 0.0
C244 C 17.00339 0.48302 0.78316 0.0
C245 C 16.64391 0.52602 0.74806 0.0
C246 C 16.96981 0.53237 0.68804 0.0
C247 C 17.65153 0.49588 0.66293 0.0
C248 C 18.16472 0.45487 0.69913 0.0
C249 C 17.84161 0.44843 0.75925 0.0
C250 C 19.37368 0.44404 0.03011 0.0
C251 C 15.14921 0.43725 0.05967 0.0
C252 C 18.25145 0.53623 0.18513 0.0
C253 C 17.57125 0.52476 0.24259 0.0
C254 C 17.93193 0.48169 0.27752 0.0
C255 C 17.62014 0.47532 0.33771 0.0
C256 C 16.95137 0.51185 0.36316 0.0
C257 C 16.43686 0.55294 0.32718 0.0
C258 C 16.74583 0.5594 0.26689 0.0
C259 C 15.18977 0.56375 0.9951 0.0
O260 O 18.45846 0.5468 0.92945 0.0
O261 O 19.43482 0.5643 0.02532 0.0
O262 O 17.06735 0.44 0.87994 0.0
O263 O 15.74555 0.50645 0.86505 0.0
O264 O 18.46778 0.42028 0.99449 0.0
O265 O 19.03636 0.4866 0.02037 0.0
O266 O 16.09612 0.46108 0.09605 0.0
O267 O 15.12038 0.44364 1.00014 0.0
O268 O 17.48779 0.56773 0.14569 0.0
O269 O 18.82071 0.50146 0.16041 0.0
O270 O 16.09375 0.58758 0.03072 0.0
O271 O 15.52702 0.52122 1.00523 0.0
H272 H 16.01293 0.55354 0.76539 0.0
H273 H 16.57772 0.56431 0.66009 0.0
H274 H 18.70018 0.42654 0.67985 0.0
H275 H 18.14557 0.41516 0.78552 0.0
H276 H 18.55351 0.45413 0.2599 0.0
H277 H 18.0129 0.4433 0.36549 0.0
H278 H 15.91109 0.58131 0.34671 0.0
H279 H 16.4418 0.59273 0.24077 0.0
Ho280 Ho 0.46482 0.4729 0.57553 0.0
Ho281 Ho 34.09734 0.53487 0.44989 0.0
C282 C 32.2685 0.56614 0.55668 0.0
C283 C 0.94394 0.44555 0.69069 0.0
C284 C 0.56594 0.46087 0.74911 0.0
C285 C 0.99115 0.50518 0.76607 0.0
C286 C 0.81102 0.51639 0.82457 0.0
C287 C 0.20022 0.48361 0.86689 0.0
C288 C 33.84572 0.44051 0.84909 0.0
C289 C 34.02743 0.42923 0.79071 0.0
C290 C 32.53331 0.44108 0.4912 0.0
C291 C 2.2922 0.4416 0.46873 0.0
C292 C 33.62133 0.56221 0.33473 0.0
C293 C 34.00522 0.54701 0.27632 0.0
C294 C 33.57679 0.50284 0.25892 0.0
C295 C 33.76291 0.49191 0.20035 0.0
C296 C 0.22507 0.52479 0.15841 0.0
C297 C 0.74028 0.56773 0.17665 0.0
C298 C 0.55238 0.57874 0.2351 0.0
C299 C 2.02921 0.56655 0.53442 0.0
O300 O 33.14904 0.5346 0.59337 0.0
O301 O 32.27845 0.57068 0.49686 0.0
O302 O 33.91054 0.43145 0.65496 0.0
O303 O 1.96973 0.47005 0.66088 0.0
O304 O 33.40013 0.41396 0.53231 0.0
O305 O 32.70722 0.4833 0.49993 0.0
O306 O 1.41325 0.47318 0.43205 0.0
O307 O 2.28191 0.43704 0.52854 0.0
O308 O 0.65046 0.57645 0.37055 0.0
O309 O 32.59657 0.53759 0.36445 0.0
O310 O 1.16316 0.59376 0.49338 0.0
O311 O 1.85287 0.52441 0.52537 0.0
H312 H 1.51083 0.53062 0.73492 0.0
H313 H 1.19968 0.55005 0.83735 0.0
H314 H 33.35776 0.41491 0.881 0.0
H315 H 33.67569 0.39505 0.77877 0.0
H316 H 33.05007 0.47733 0.28977 0.0
H317 H 33.37184 0.45837 0.18719 0.0
H318 H 1.2347 0.59344 0.14506 0.0
H319 H 0.90565 0.61283 0.24738 0.0
C320 C 4.41137 0.12405 0.41208 0.0
C321 C 3.51157 0.10039 0.44025 0.0
C322 C 5.36267 0.14987 0.37259 0.0
C323 C 6.02794 0.17189 0.33394 0.0
C324 C 4.40043 0.90396 0.61423 0.0
C325 C 3.44305 0.92331 0.57604 0.0
C326 C 5.34862 0.87628 0.65988 0.0
C327 C 6.00483 0.84851 0.6985 0.0
C328 C 12.84008 0.87696 0.86351 0.0
C329 C 12.03288 0.85042 0.83564 0.0
C330 C 13.72113 0.90512 0.90262 0.0
C331 C 14.47359 0.92479 0.94108 0.0
C332 C 13.47907 0.11879 0.11723 0.0
C333 C 14.20836 0.0969 0.08523 0.0
C334 C 12.65706 0.14278 0.15767 0.0
C335 C 11.90772 0.16408 0.18968 0.0
C336 C 30.16236 0.88463 0.6143 0.0
C337 C 31.06655 0.90842 0.5865 0.0
C338 C 29.20307 0.85854 0.65324 0.0
C339 C 28.53139 0.83624 0.69147 0.0
C340 C 30.18066 0.10512 0.41286 0.0
C341 C 31.14118 0.08574 0.45093 0.0
C342 C 29.22679 0.13255 0.36707 0.0
C343 C 28.56591 0.15984 0.32793 0.0
C344 C 21.72993 0.13079 0.16145 0.0
C345 C 22.53796 0.15729 0.18937 0.0
C346 C 20.84549 0.1027 0.1223 0.0
C347 C 20.08894 0.08312 0.08384 0.0
C348 C 21.90206 0.86534 0.86725 0.0
C349 C 22.65151 0.84398 0.83531 0.0
C350 C 21.07946 0.88938 0.90762 0.0
C351 C 20.34947 0.9113 0.93957 0.0
C352 C 21.4588 0.62421 0.91121 0.0
C353 C 20.55612 0.60051 0.93919 0.0
C354 C 22.42013 0.65003 0.87209 0.0
C355 C 23.09551 0.67206 0.83374 0.0
C356 C 22.4279 0.37726 0.16121 0.0
C357 C 23.07986 0.34903 0.19934 0.0
C358 C 21.48486 0.40518 0.11564 0.0
C359 C 20.53261 0.42432 0.07708 0.0
C360 C 30.80186 0.40464 0.40323 0.0
C361 C 31.55664 0.42433 0.44163 0.0
C362 C 29.91763 0.37657 0.36408 0.0
C363 C 29.10786 0.35013 0.33611 0.0
C364 C 29.73682 0.64258 0.65794 0.0
C365 C 28.98784 0.66393 0.68992 0.0
C366 C 30.55836 0.61855 0.61753 0.0
C367 C 31.28737 0.59663 0.58554 0.0
C368 C 12.11686 0.35817 0.15289 0.0
C369 C 11.44172 0.33608 0.1912 0.0
C370 C 13.08311 0.38397 0.11396 0.0
C371 C 13.9916 0.40758 0.08616 0.0
C372 C 13.09583 0.60246 0.90882 0.0
C373 C 14.03991 0.58336 0.94772 0.0
C374 C 12.15467 0.6304 0.86322 0.0
C375 C 11.49937 0.65872 0.82529 0.0
C376 C 4.65703 0.63094 0.66126 0.0
C377 C 5.46766 0.65746 0.68906 0.0
C378 C 3.7698 0.6028 0.62229 0.0
C379 C 3.01151 0.58314 0.58396 0.0
C380 C 4.81863 0.3651 0.3674 0.0
C381 C 5.56642 0.34377 0.33539 0.0
C382 C 3.99916 0.38915 0.40785 0.0
C383 C 3.27162 0.41108 0.43986 0.0
C384 C 34.19862 0.00635 0.98156 0.0
C385 C 34.08364 0.01022 0.92745 0.0
C386 C 0.29562 1.00194 0.04468 0.0
C387 C 0.42219 0.99811 0.0988 0.0
C388 C 8.84419 0.74998 0.29397 0.0
C389 C 8.9798 0.74636 0.34809 0.0
C390 C 8.68165 0.75746 0.23084 0.0
C391 C 8.538 0.76097 0.17672 0.0
C392 C 17.27987 0.00803 0.54316 0.0
C393 C 17.27833 0.01545 0.5955 0.0
C394 C 17.24455 0.99987 0.48143 0.0
C395 C 17.24893 0.99245 0.4291 0.0
C396 C 8.58716 0.2535 0.79331 0.0
C397 C 8.32463 0.25346 0.84555 0.0
C398 C 8.86778 0.25453 0.7316 0.0
C399 C 9.11346 0.25431 0.67921 0.0
C400 C 25.90551 0.25078 0.79405 0.0
C401 C 26.03808 0.2471 0.84817 0.0
C402 C 25.75279 0.25826 0.73093 0.0
C403 C 25.61777 0.26175 0.67681 0.0
C404 C 25.66592 0.75364 0.2933 0.0
C405 C 25.42045 0.75377 0.34571 0.0
C406 C 25.93783 0.75458 0.23152 0.0
C407 C 26.19216 0.75448 0.1792 0.0
C408 C 17.43907 0.50157 0.54463 0.0
C409 C 17.55877 0.49762 0.59874 0.0
C410 C 17.18286 0.50606 0.4815 0.0
C411 C 17.05579 0.51 0.42738 0.0
C412 C 34.35107 0.49992 0.98185 0.0
C413 C 0.20039 0.49276 0.92944 0.0
C414 C 0.22773 0.5081 0.04357 0.0
C415 C 0.22768 0.51578 0.09581 0.0
loop_
_geom_bond_atom_site_label_1
_geom_bond_atom_site_label_2
_geom_bond_distance
_geom_bond_site_symmetry_2
_ccdc_geom_bond_type
Ho0 C3 2.811 1_655 S
Ho0 O20 2.322 1_665 S
Ho0 O22 2.378 1_655 S
Ho0 O23 2.524 1_565 S
Ho0 O24 2.381 1_655 S
Ho0 O25 2.669 1_655 S
Ho0 O27 2.346 . S
Ho0 O31 2.305 1_565 S
Ho1 C12 2.811 1_455 S
Ho1 O21 2.346 . S
Ho1 O25 2.305 1_545 S
Ho1 O26 2.322 1_445 S
Ho1 O28 2.378 1_455 S
Ho1 O29 2.524 1_545 S
Ho1 O30 2.381 1_455 S
Ho1 O31 2.669 1_455 S
C2 O20 1.259 . S
C2 O21 1.268 . S
C3 Ho0 2.811 1_455 S
C3 C4 1.488 . S
C3 O22 1.215 . S
C3 O23 1.289 1_465 S
C4 C3 1.488 . S
C4 C5 1.348 1_565 S
C4 C9 1.413 . S
C5 C4 1.348 1_545 S
C5 C6 1.442 . S
C5 H32 0.930 1_455 S
C6 C5 1.442 . S
C6 C7 1.381 1_545 S
C6 H33 0.931 . S
C7 C6 1.381 1_565 S
C7 C8 1.321 . S
C8 C7 1.321 . S
C8 C9 1.403 . S
C8 H34 0.934 . S
C9 C4 1.413 . S
C9 C8 1.403 . S
C9 H35 0.930 . S
C10 O24 1.275 . S
C10 O25 1.256 . S
C11 O26 1.259 . S
C11 O27 1.268 . S
C12 Ho1 2.811 1_655 S
C12 C13 1.488 . S
C12 O28 1.215 . S
C12 O29 1.289 1_645 S
C13 C12 1.488 . S
C13 C14 1.348 1_545 S
C13 C18 1.413 . S
C14 C13 1.348 1_565 S
C14 C15 1.442 . S
C14 H36 0.930 1_655 S
C15 C14 1.442 . S
C15 C16 1.381 1_565 S
C15 H37 0.931 . S
C16 C15 1.381 1_545 S
C16 C17 1.321 . S
C17 C16 1.321 . S
C17 C18 1.403 . S
C17 H38 0.934 . S
C18 C13 1.413 . S
C18 C17 1.403 . S
C18 H39 0.930 . S
C19 O30 1.275 . S
C19 O31 1.256 . S
O20 Ho0 2.322 1_445 S
O20 C2 1.259 . S
O21 Ho1 2.346 . S
O21 C2 1.268 . S
O22 Ho0 2.378 1_455 S
O22 C3 1.215 . S
O23 Ho0 2.524 1_545 S
O23 C3 1.289 1_645 S
O24 Ho0 2.381 1_455 S
O24 C10 1.275 . S
O25 Ho0 2.669 1_455 S
O25 Ho1 2.305 1_565 S
O25 C10 1.256 . S
O26 Ho1 2.322 1_665 S
O26 C11 1.259 . S
O27 Ho0 2.346 . S
O27 C11 1.268 . S
O28 Ho1 2.378 1_655 S
O28 C12 1.215 . S
O29 Ho1 2.524 1_565 S
O29 C12 1.289 1_465 S
O30 Ho1 2.381 1_655 S
O30 C19 1.275 . S
O31 Ho0 2.305 1_545 S
O31 Ho1 2.669 1_655 S
O31 C19 1.256 . S
H32 C5 0.930 1_655 S
H33 C6 0.931 . S
H34 C8 0.934 . S
H35 C9 0.930 . S
H36 C14 0.930 1_455 S
H37 C15 0.931 . S
H38 C17 0.934 . S
H39 C18 0.930 . S
Ho40 C43 2.811 . S
Ho40 O60 2.322 . S
Ho40 O62 2.378 . S
Ho40 O63 2.524 . S
Ho40 O64 2.381 . S
Ho40 O65 2.669 . S
Ho40 O67 2.346 . S
Ho40 O71 2.305 . S
Ho41 C52 2.811 . S
Ho41 O61 2.346 . S
Ho41 O65 2.305 . S
Ho41 O66 2.322 . S
Ho41 O68 2.378 . S
Ho41 O69 2.524 . S
Ho41 O70 2.381 . S
Ho41 O71 2.669 . S
C42 O60 1.259 . S
C42 O61 1.268 . S
C43 Ho40 2.811 . S
C43 C44 1.488 . S
C43 O62 1.215 . S
C43 O63 1.289 . S
C44 C43 1.488 . S
C44 C45 1.348 1_556 S
C44 C49 1.413 1_556 S
C45 C44 1.348 1_554 S
C45 C46 1.442 . S
C45 H72 0.930 . S
C46 C45 1.442 . S
C46 C47 1.381 . S
C46 H73 0.931 . S
C47 C46 1.381 . S
C47 C48 1.321 . S
C48 C47 1.321 . S
C48 C49 1.403 . S
C48 H74 0.934 . S
C49 C44 1.413 1_554 S
C49 C48 1.403 . S
C49 H75 0.930 1_554 S
C50 O64 1.275 . S
C50 O65 1.256 . S
C51 O66 1.259 . S
C51 O67 1.268 . S
C52 Ho41 2.811 . S
C52 C53 1.488 . S
C52 O68 1.215 . S
C52 O69 1.289 . S
C53 C52 1.488 . S
C53 C54 1.348 . S
C53 C58 1.413 . S
C54 C53 1.348 . S
C54 C55 1.442 . S
C54 H76 0.930 . S
C55 C54 1.442 . S
C55 C56 1.381 . S
C55 H77 0.931 . S
C56 C55 1.381 . S
C56 C57 1.321 . S
C57 C56 1.321 . S
C57 C58 1.403 . S
C57 H78 0.934 . S
C58 C53 1.413 . S
C58 C57 1.403 . S
C58 H79 0.930 . S
C59 O70 1.275 . S
C59 O71 1.256 . S
O60 Ho40 2.322 . S
O60 C42 1.259 . S
O61 Ho41 2.346 . S
O61 C42 1.268 . S
O62 Ho40 2.378 . S
O62 C43 1.215 . S
O63 Ho40 2.524 . S
O63 C43 1.289 . S
O64 Ho40 2.381 . S
O64 C50 1.275 . S
O65 Ho40 2.669 . S
O65 Ho41 2.305 . S
O65 C50 1.256 . S
O66 Ho41 2.322 . S
O66 C51 1.259 . S
O67 Ho40 2.346 . S
O67 C51 1.268 . S
O68 Ho41 2.378 . S
O68 C52 1.215 . S
O69 Ho41 2.524 . S
O69 C52 1.289 . S
O70 Ho41 2.381 . S
O70 C59 1.275 . S
O71 Ho40 2.305 . S
O71 Ho41 2.669 . S
O71 C59 1.256 . S
H72 C45 0.930 . S
H73 C46 0.931 . S
H74 C48 0.934 . S
H75 C49 0.930 1_556 S
H76 C54 0.930 . S
H77 C55 0.931 . S
H78 C57 0.934 . S
H79 C58 0.930 . S
Ho80 C83 2.811 . S
Ho80 O100 2.322 1_565 S
Ho80 O102 2.378 . S
Ho80 O103 2.524 . S
Ho80 O104 2.381 . S
Ho80 O105 2.669 1_554 S
Ho80 O107 2.346 . S
Ho80 O111 2.305 1_565 S
Ho81 C92 2.811 . S
Ho81 O101 2.346 . S
Ho81 O105 2.305 1_545 S
Ho81 O106 2.322 1_545 S
Ho81 O108 2.378 . S
Ho81 O109 2.524 . S
Ho81 O110 2.381 . S
Ho81 O111 2.669 1_556 S
C82 O100 1.259 . S
C82 O101 1.268 1_554 S
C83 Ho80 2.811 . S
C83 C84 1.488 . S
C83 O102 1.215 . S
C83 O103 1.289 . S
C84 C83 1.488 . S
C84 C85 1.348 . S
C84 C89 1.413 . S
C85 C84 1.348 . S
C85 C86 1.442 . S
C85 H112 0.930 1_565 S
C86 C85 1.442 . S
C86 C87 1.381 . S
C86 H113 0.931 1_565 S
C87 C86 1.381 . S
C87 C88 1.321 . S
C88 C87 1.321 . S
C88 C89 1.403 . S
C88 H114 0.934 . S
C89 C84 1.413 . S
C89 C88 1.403 . S
C89 H115 0.930 . S
C90 O104 1.275 1_556 S
C90 O105 1.256 . S
C91 O106 1.259 . S
C91 O107 1.268 1_556 S
C92 Ho81 2.811 . S
C92 C93 1.488 . S
C92 O108 1.215 . S
C92 O109 1.289 . S
C93 C92 1.488 . S
C93 C94 1.348 . S
C93 C98 1.413 . S
C94 C93 1.348 . S
C94 C95 1.442 . S
C94 H116 0.930 1_545 S
C95 C94 1.442 . S
C95 C96 1.381 . S
C95 H117 0.931 1_545 S
C96 C95 1.381 . S
C96 C97 1.321 . S
C97 C96 1.321 . S
C97 C98 1.403 . S
C97 H118 0.934 . S
C98 C93 1.413 . S
C98 C97 1.403 . S
C98 H119 0.930 . S
C99 O110 1.275 1_554 S
C99 O111 1.256 . S
O100 Ho80 2.322 1_545 S
O100 C82 1.259 . S
O101 Ho81 2.346 . S
O101 C82 1.268 1_556 S
O102 Ho80 2.378 . S
O102 C83 1.215 . S
O103 Ho80 2.524 . S
O103 C83 1.289 . S
O104 Ho80 2.381 . S
O104 C90 1.275 1_554 S
O105 Ho80 2.669 1_556 S
O105 Ho81 2.305 1_565 S
O105 C90 1.256 . S
O106 Ho81 2.322 1_565 S
O106 C91 1.259 . S
O107 Ho80 2.346 . S
O107 C91 1.268 1_554 S
O108 Ho81 2.378 . S
O108 C92 1.215 . S
O109 Ho81 2.524 . S
O109 C92 1.289 . S
O110 Ho81 2.381 . S
O110 C99 1.275 1_556 S
O111 Ho80 2.305 1_545 S
O111 Ho81 2.669 1_554 S
O111 C99 1.256 . S
H112 C85 0.930 1_545 S
H113 C86 0.931 1_545 S
H114 C88 0.934 . S
H115 C89 0.930 . S
H116 C94 0.930 1_565 S
H117 C95 0.931 1_565 S
H118 C97 0.934 . S
H119 C98 0.930 . S
Ho120 C123 2.811 . S
Ho120 O140 2.322 . S
Ho120 O142 2.378 . S
Ho120 O143 2.524 . S
Ho120 O144 2.381 . S
Ho120 O145 2.669 . S
Ho120 O147 2.346 . S
Ho120 O151 2.305 . S
Ho121 C132 2.811 . S
Ho121 O141 2.346 . S
Ho121 O145 2.305 . S
Ho121 O146 2.322 . S
Ho121 O148 2.378 . S
Ho121 O149 2.524 . S
Ho121 O150 2.381 . S
Ho121 O151 2.669 . S
C122 O140 1.259 . S
C122 O141 1.268 . S
C123 Ho120 2.811 . S
C123 C124 1.472 1_554 S
C123 O142 1.215 . S
C123 O143 1.289 . S
C124 C123 1.472 1_556 S
C124 C125 1.358 . S
C124 C129 1.419 . S
C125 C124 1.358 . S
C125 C126 1.442 . S
C125 H152 0.930 . S
C126 C125 1.442 . S
C126 C127 1.381 . S
C126 H153 0.931 . S
C127 C126 1.381 . S
C127 C128 1.321 . S
C128 C127 1.321 . S
C128 C129 1.403 . S
C128 H154 0.934 . S
C129 C124 1.419 . S
C129 C128 1.403 . S
C129 H155 0.930 . S
C130 O144 1.275 . S
C130 O145 1.256 . S
C131 O146 1.259 . S
C131 O147 1.268 . S
C132 Ho121 2.811 . S
C132 C133 1.488 . S
C132 O148 1.215 . S
C132 O149 1.289 . S
C133 C132 1.488 . S
C133 C134 1.348 . S
C133 C138 1.413 . S
C134 C133 1.348 . S
C134 C135 1.442 . S
C134 H156 0.930 . S
C135 C134 1.442 . S
C135 C136 1.381 . S
C135 H157 0.931 . S
C136 C135 1.381 . S
C136 C137 1.321 . S
C137 C136 1.321 . S
C137 C138 1.403 . S
C137 H158 0.934 . S
C138 C133 1.413 . S
C138 C137 1.403 . S
C138 H159 0.930 . S
C139 O150 1.275 . S
C139 O151 1.256 . S
O140 Ho120 2.322 . S
O140 C122 1.259 . S
O141 Ho121 2.346 . S
O141 C122 1.268 . S
O142 Ho120 2.378 . S
O142 C123 1.215 . S
O143 Ho120 2.524 . S
O143 C123 1.289 . S
O144 Ho120 2.381 . S
O144 C130 1.275 . S
O145 Ho120 2.669 . S
O145 Ho121 2.305 . S
O145 C130 1.256 . S
O146 Ho121 2.322 . S
O146 C131 1.259 . S
O147 Ho120 2.346 . S
O147 C131 1.268 . S
O148 Ho121 2.378 . S
O148 C132 1.215 . S
O149 Ho121 2.524 . S
O149 C132 1.289 . S
O150 Ho121 2.381 . S
O150 C139 1.275 . S
O151 Ho120 2.305 . S
O151 Ho121 2.669 . S
O151 C139 1.256 . S
H152 C125 0.930 . S
H153 C126 0.931 . S
H154 C128 0.934 . S
H155 C129 0.930 . S
H156 C134 0.930 . S
H157 C135 0.931 . S
H158 C137 0.934 . S
H159 C138 0.930 . S
Ho160 C163 2.811 . S
Ho160 O180 2.322 . S
Ho160 O182 2.378 . S
Ho160 O183 2.524 . S
Ho160 O184 2.381 . S
Ho160 O185 2.669 . S
Ho160 O187 2.346 . S
Ho160 O191 2.305 . S
Ho161 C172 2.811 . S
Ho161 O181 2.346 . S
Ho161 O185 2.305 . S
Ho161 O186 2.322 . S
Ho161 O188 2.378 . S
Ho161 O189 2.524 . S
Ho161 O190 2.381 . S
Ho161 O191 2.669 . S
C162 O180 1.259 . S
C162 O181 1.268 . S
C163 Ho160 2.811 . S
C163 C164 1.488 . S
C163 O182 1.215 . S
C163 O183 1.289 . S
C164 C163 1.488 . S
C164 C165 1.348 . S
C164 C169 1.413 . S
C165 C164 1.348 . S
C165 C166 1.442 . S
C165 H192 0.930 . S
C166 C165 1.442 . S
C166 C167 1.381 . S
C166 H193 0.931 . S
C167 C166 1.381 . S
C167 C168 1.321 . S
C168 C167 1.321 . S
C168 C169 1.403 . S
C168 H194 0.934 . S
C169 C164 1.413 . S
C169 C168 1.403 . S
C169 H195 0.930 . S
C170 O184 1.275 . S
C170 O185 1.256 . S
C171 O186 1.259 . S
C171 O187 1.268 . S
C172 Ho161 2.811 . S
C172 C173 1.488 . S
C172 O188 1.215 . S
C172 O189 1.289 . S
C173 C172 1.488 . S
C173 C174 1.348 1_554 S
C173 C178 1.413 1_554 S
C174 C173 1.348 1_556 S
C174 C175 1.442 . S
C174 H196 0.930 . S
C175 C174 1.442 . S
C175 C176 1.381 . S
C175 H197 0.931 . S
C176 C175 1.381 . S
C176 C177 1.321 . S
C177 C176 1.321 . S
C177 C178 1.403 . S
C177 H198 0.934 . S
C178 C173 1.413 1_556 S
C178 C177 1.403 . S
C178 H199 0.930 1_556 S
C179 O190 1.275 . S
C179 O191 1.256 . S
O180 Ho160 2.322 . S
O180 C162 1.259 . S
O181 Ho161 2.346 . S
O181 C162 1.268 . S
O182 Ho160 2.378 . S
O182 C163 1.215 . S
O183 Ho160 2.524 . S
O183 C163 1.289 . S
O184 Ho160 2.381 . S
O184 C170 1.275 . S
O185 Ho160 2.669 . S
O185 Ho161 2.305 . S
O185 C170 1.256 . S
O186 Ho161 2.322 . S
O186 C171 1.259 . S
O187 Ho160 2.346 . S
O187 C171 1.268 . S
O188 Ho161 2.378 . S
O188 C172 1.215 . S
O189 Ho161 2.524 . S
O189 C172 1.289 . S
O190 Ho161 2.381 . S
O190 C179 1.275 . S
O191 Ho160 2.305 . S
O191 Ho161 2.669 . S
O191 C179 1.256 . S
H192 C165 0.930 . S
H193 C166 0.931 . S
H194 C168 0.934 . S
H195 C169 0.930 . S
H196 C174 0.930 . S
H197 C175 0.931 . S
H198 C177 0.934 . S
H199 C178 0.930 1_554 S
Ho200 C203 2.811 . S
Ho200 O220 2.322 . S
Ho200 O222 2.378 . S
Ho200 O223 2.524 . S
Ho200 O224 2.381 . S
Ho200 O225 2.669 . S
Ho200 O227 2.346 . S
Ho200 O231 2.305 . S
Ho201 C212 2.811 . S
Ho201 O221 2.346 . S
Ho201 O225 2.305 . S
Ho201 O226 2.322 . S
Ho201 O228 2.378 . S
Ho201 O229 2.524 . S
Ho201 O230 2.381 . S
Ho201 O231 2.669 . S
C202 O220 1.259 . S
C202 O221 1.268 . S
C203 Ho200 2.811 . S
C203 C204 1.488 . S
C203 O222 1.215 . S
C203 O223 1.289 . S
C204 C203 1.488 . S
C204 C205 1.348 . S
C204 C209 1.413 . S
C205 C204 1.348 . S
C205 C206 1.442 . S
C205 H232 0.930 . S
C206 C205 1.442 . S
C206 C207 1.381 . S
C206 H233 0.931 . S
C207 C206 1.381 . S
C207 C208 1.321 . S
C208 C207 1.321 . S
C208 C209 1.403 . S
C208 H234 0.934 . S
C209 C204 1.413 . S
C209 C208 1.403 . S
C209 H235 0.930 . S
C210 O224 1.275 . S
C210 O225 1.256 . S
C211 O226 1.259 . S
C211 O227 1.268 . S
C212 Ho201 2.811 . S
C212 C213 1.470 1_556 S
C212 O228 1.215 . S
C212 O229 1.289 . S
C213 C212 1.470 1_554 S
C213 C214 1.359 . S
C213 C218 1.420 . S
C214 C213 1.359 . S
C214 C215 1.442 . S
C214 H236 0.930 . S
C215 C214 1.442 . S
C215 C216 1.381 . S
C215 H237 0.931 . S
C216 C215 1.381 . S
C216 C217 1.321 . S
C217 C216 1.321 . S
C217 C218 1.403 . S
C217 H238 0.934 . S
C218 C213 1.420 . S
C218 C217 1.403 . S
C218 H239 0.930 . S
C219 O230 1.275 . S
C219 O231 1.256 . S
O220 Ho200 2.322 . S
O220 C202 1.259 . S
O221 Ho201 2.346 . S
O221 C202 1.268 . S
O222 Ho200 2.378 . S
O222 C203 1.215 . S
O223 Ho200 2.524 . S
O223 C203 1.289 . S
O224 Ho200 2.381 . S
O224 C210 1.275 . S
O225 Ho200 2.669 . S
O225 Ho201 2.305 . S
O225 C210 1.256 . S
O226 Ho201 2.322 . S
O226 C211 1.259 . S
O227 Ho200 2.346 . S
O227 C211 1.268 . S
O228 Ho201 2.378 . S
O228 C212 1.215 . S
O229 Ho201 2.524 . S
O229 C212 1.289 . S
O230 Ho201 2.381 . S
O230 C219 1.275 . S
O231 Ho200 2.305 . S
O231 Ho201 2.669 . S
O231 C219 1.256 . S
H232 C205 0.930 . S
H233 C206 0.931 . S
H234 C208 0.934 . S
H235 C209 0.930 . S
H236 C214 0.930 . S
H237 C215 0.931 . S
H238 C217 0.934 . S
H239 C218 0.930 . S
Ho240 C243 2.811 . S
Ho240 O260 2.322 . S
Ho240 O262 2.378 . S
Ho240 O263 2.524 . S
Ho240 O264 2.381 . S
Ho240 O265 2.669 1_556 S
Ho240 O267 2.346 1_556 S
Ho240 O271 2.305 . S
Ho241 C252 2.811 . S
Ho241 O261 2.346 1_554 S
Ho241 O265 2.305 . S
Ho241 O266 2.322 . S
Ho241 O268 2.378 . S
Ho241 O269 2.524 . S
Ho241 O270 2.381 . S
Ho241 O271 2.669 1_554 S
C242 O260 1.259 . S
C242 O261 1.268 . S
C243 Ho240 2.811 . S
C243 C244 1.488 . S
C243 O262 1.215 . S
C243 O263 1.289 . S
C244 C243 1.488 . S
C244 C245 1.348 . S
C244 C249 1.413 . S
C245 C244 1.348 . S
C245 C246 1.442 . S
C245 H272 0.930 . S
C246 C245 1.442 . S
C246 C247 1.381 . S
C246 H273 0.931 . S
C247 C246 1.381 . S
C247 C248 1.321 . S
C248 C247 1.321 . S
C248 C249 1.403 . S
C248 H274 0.934 . S
C249 C244 1.413 . S
C249 C248 1.403 . S
C249 H275 0.930 . S
C250 O264 1.275 1_554 S
C250 O265 1.256 . S
C251 O266 1.259 . S
C251 O267 1.268 . S
C252 Ho241 2.811 . S
C252 C253 1.488 . S
C252 O268 1.215 . S
C252 O269 1.289 . S
C253 C252 1.488 . S
C253 C254 1.348 . S
C253 C258 1.413 . S
C254 C253 1.348 . S
C254 C255 1.442 . S
C254 H276 0.930 . S
C255 C254 1.442 . S
C255 C256 1.381 . S
C255 H277 0.931 . S
C256 C255 1.381 . S
C256 C257 1.321 . S
C257 C256 1.321 . S
C257 C258 1.403 . S
C257 H278 0.934 . S
C258 C253 1.413 . S
C258 C257 1.403 . S
C258 H279 0.930 . S
C259 O270 1.275 1_556 S
C259 O271 1.256 . S
O260 Ho240 2.322 . S
O260 C242 1.259 . S
O261 Ho241 2.346 1_556 S
O261 C242 1.268 . S
O262 Ho240 2.378 . S
O262 C243 1.215 . S
O263 Ho240 2.524 . S
O263 C243 1.289 . S
O264 Ho240 2.381 . S
O264 C250 1.275 1_556 S
O265 Ho240 2.669 1_554 S
O265 Ho241 2.305 . S
O265 C250 1.256 . S
O266 Ho241 2.322 . S
O266 C251 1.259 . S
O267 Ho240 2.346 1_554 S
O267 C251 1.268 . S
O268 Ho241 2.378 . S
O268 C252 1.215 . S
O269 Ho241 2.524 . S
O269 C252 1.289 . S
O270 Ho241 2.381 . S
O270 C259 1.275 1_554 S
O271 Ho240 2.305 . S
O271 Ho241 2.669 1_556 S
O271 C259 1.256 . S
H272 C245 0.930 . S
H273 C246 0.931 . S
H274 C248 0.934 . S
H275 C249 0.930 . S
H276 C254 0.930 . S
H277 C255 0.931 . S
H278 C257 0.934 . S
H279 C258 0.930 . S
Ho280 C283 2.811 1_455 S
Ho280 O300 2.322 1_455 S
Ho280 O302 2.378 1_455 S
Ho280 O303 2.524 . S
Ho280 O304 2.381 1_455 S
Ho280 O305 2.669 1_455 S
Ho280 O307 2.346 . S
Ho280 O311 2.305 . S
Ho281 C292 2.811 1_655 S
Ho281 O301 2.346 . S
Ho281 O305 2.305 . S
Ho281 O306 2.322 1_655 S
Ho281 O308 2.378 1_655 S
Ho281 O309 2.524 . S
Ho281 O310 2.381 1_655 S
Ho281 O311 2.669 1_655 S
C282 O300 1.259 . S
C282 O301 1.268 . S
C283 Ho280 2.811 1_655 S
C283 C284 1.488 . S
C283 O302 1.215 . S
C283 O303 1.289 1_655 S
C284 C283 1.488 . S
C284 C285 1.348 . S
C284 C289 1.413 . S
C285 C284 1.348 . S
C285 C286 1.442 . S
C285 H312 0.930 1_655 S
C286 C285 1.442 . S
C286 C287 1.381 . S
C286 H313 0.931 . S
C287 C286 1.381 . S
C287 C288 1.321 . S
C288 C287 1.321 . S
C288 C289 1.403 . S
C288 H314 0.934 . S
C289 C284 1.413 . S
C289 C288 1.403 . S
C289 H315 0.930 . S
C290 O304 1.275 . S
C290 O305 1.256 . S
C291 O306 1.259 . S
C291 O307 1.268 . S
C292 Ho281 2.811 1_455 S
C292 C293 1.488 . S
C292 O308 1.215 . S
C292 O309 1.289 1_455 S
C293 C292 1.488 . S
C293 C294 1.348 . S
C293 C298 1.413 . S
C294 C293 1.348 . S
C294 C295 1.442 . S
C294 H316 0.930 1_455 S
C295 C294 1.442 . S
C295 C296 1.381 . S
C295 H317 0.931 . S
C296 C295 1.381 . S
C296 C297 1.321 . S
C297 C296 1.321 . S
C297 C298 1.403 . S
C297 H318 0.934 . S
C298 C293 1.413 . S
C298 C297 1.403 . S
C298 H319 0.930 . S
C299 O310 1.275 . S
C299 O311 1.256 . S
O300 Ho280 2.322 1_655 S
O300 C282 1.259 . S
O301 Ho281 2.346 . S
O301 C282 1.268 . S
O302 Ho280 2.378 1_655 S
O302 C283 1.215 . S
O303 Ho280 2.524 . S
O303 C283 1.289 1_455 S
O304 Ho280 2.381 1_655 S
O304 C290 1.275 . S
O305 Ho280 2.669 1_655 S
O305 Ho281 2.305 . S
O305 C290 1.256 . S
O306 Ho281 2.322 1_455 S
O306 C291 1.259 . S
O307 Ho280 2.346 . S
O307 C291 1.268 . S
O308 Ho281 2.378 1_455 S
O308 C292 1.215 . S
O309 Ho281 2.524 . S
O309 C292 1.289 1_655 S
O310 Ho281 2.381 1_455 S
O310 C299 1.275 . S
O311 Ho280 2.305 . S
O311 Ho281 2.669 1_455 S
O311 C299 1.256 . S
H312 C285 0.930 1_455 S
H313 C286 0.931 . S
H314 C288 0.934 . S
H315 C289 0.930 . S
H316 C294 0.930 1_655 S
H317 C295 0.931 . S
H318 C297 0.934 . S
H319 C298 0.930 . S
C320 C321 1.170 . S
C320 C322 1.380 . S
C321 C320 1.170 . S
C322 C320 1.380 . S
C322 C323 1.170 . S
C323 C322 1.170 . S
C324 C325 1.170 . S
C324 C326 1.380 . S
C325 C324 1.170 . S
C326 C324 1.380 . S
C326 C327 1.170 . S
C327 C326 1.170 . S
C328 C329 1.170 . S
C328 C330 1.380 . S
C329 C328 1.170 . S
C330 C328 1.380 . S
C330 C331 1.170 . S
C331 C330 1.170 . S
C332 C333 1.170 . S
C332 C334 1.380 . S
C333 C332 1.170 . S
C334 C332 1.380 . S
C334 C335 1.170 . S
C335 C334 1.170 . S
C336 C337 1.170 . S
C336 C338 1.380 . S
C337 C336 1.170 . S
C338 C336 1.380 . S
C338 C339 1.170 . S
C339 C338 1.170 . S
C340 C341 1.170 . S
C340 C342 1.380 . S
C341 C340 1.170 . S
C342 C340 1.380 . S
C342 C343 1.170 . S
C343 C342 1.170 . S
C344 C345 1.170 . S
C344 C346 1.380 . S
C345 C344 1.170 . S
C346 C344 1.380 . S
C346 C347 1.170 . S
C347 C346 1.170 . S
C348 C349 1.170 . S
C348 C350 1.380 . S
C349 C348 1.170 . S
C350 C348 1.380 . S
C350 C351 1.170 . S
C351 C350 1.170 . S
C352 C353 1.170 . S
C352 C354 1.380 . S
C353 C352 1.170 . S
C354 C352 1.380 . S
C354 C355 1.170 . S
C355 C354 1.170 . S
C356 C357 1.170 . S
C356 C358 1.380 . S
C357 C356 1.170 . S
C358 C356 1.380 . S
C358 C359 1.170 . S
C359 C358 1.170 . S
C360 C361 1.170 . S
C360 C362 1.380 . S
C361 C360 1.170 . S
C362 C360 1.380 . S
C362 C363 1.170 . S
C363 C362 1.170 . S
C364 C365 1.170 . S
C364 C366 1.380 . S
C365 C364 1.170 . S
C366 C364 1.380 . S
C366 C367 1.170 . S
C367 C366 1.170 . S
C368 C369 1.170 . S
C368 C370 1.380 . S
C369 C368 1.170 . S
C370 C368 1.380 . S
C370 C371 1.170 . S
C371 C370 1.170 . S
C372 C373 1.170 . S
C372 C374 1.380 . S
C373 C372 1.170 . S
C374 C372 1.380 . S
C374 C375 1.170 . S
C375 C374 1.170 . S
C376 C377 1.170 . S
C376 C378 1.380 . S
C377 C376 1.170 . S
C378 C376 1.380 . S
C378 C379 1.170 . S
C379 C378 1.170 . S
C380 C381 1.170 . S
C380 C382 1.380 . S
C381 C380 1.170 . S
C382 C380 1.380 . S
C382 C383 1.170 . S
C383 C382 1.170 . S
C384 C385 1.170 . S
C384 C386 1.382 1_646 S
C385 C384 1.170 . S
C386 C384 1.382 1_464 S
C386 C387 1.169 . S
C387 C386 1.169 . S
C388 C389 1.170 . S
C388 C390 1.380 . S
C389 C388 1.170 . S
C390 C388 1.380 . S
C390 C391 1.170 . S
C391 C390 1.170 . S
C392 C393 1.170 . S
C392 C394 1.380 1_545 S
C393 C392 1.170 . S
C394 C392 1.380 1_565 S
C394 C395 1.170 . S
C395 C394 1.170 . S
C396 C397 1.170 . S
C396 C398 1.380 . S
C397 C396 1.170 . S
C398 C396 1.380 . S
C398 C399 1.170 . S
C399 C398 1.170 . S
C400 C401 1.170 . S
C400 C402 1.380 . S
C401 C400 1.170 . S
C402 C400 1.380 . S
C402 C403 1.170 . S
C403 C402 1.170 . S
C404 C405 1.170 . S
C404 C406 1.380 . S
C405 C404 1.170 . S
C406 C404 1.380 . S
C406 C407 1.170 . S
C407 C406 1.170 . S
C408 C409 1.170 . S
C408 C410 1.380 . S
C409 C408 1.170 . S
C410 C408 1.380 . S
C410 C411 1.170 . S
C411 C410 1.170 . S
C412 C413 1.170 . S
C412 C414 1.380 1_656 S
C413 C412 1.170 . S
C414 C412 1.380 1_454 S
C414 C415 1.170 . S
C415 C414 1.170 . S
C321 C2 1.551 . S
C323 C130 1.526 . S
C325 C10 1.009 . S
C327 C50 1.012 . S
C329 C42 1.545 . S
C331 C90 1.540 . S
C333 C82 1.989 . S
C335 C122 1.991 . S
C337 C11 1.553 . S
C339 C219 1.530 . S
C341 C19 0.984 . S
C343 C179 1.003 . S
C345 C171 1.547 . S
C347 C99 1.535 . S
C349 C211 1.991 . S
C351 C91 1.994 . S
C353 C242 1.556 . S
C355 C210 1.527 . S
C357 C170 1.010 . S
C359 C250 1.011 . S
C361 C290 1.530 . S
C363 C162 1.557 . S
C365 C202 1.993 . S
C367 C282 1.995 . S
C369 C139 1.536 . S
C371 C251 1.547 . S
C373 C259 1.011 . S
C375 C59 0.993 . S
C377 C51 1.554 . S
C379 C299 1.527 . S
C381 C131 1.995 . S
C383 C291 1.994 . S
C385 C16 1.499 . S
C387 C7 1.461 . S
C389 C56 1.485 . S
C391 C47 1.483 . S
C393 C96 1.795 . S
C395 C87 1.819 . S
C397 C127 1.808 . S
C399 C136 1.785 . S
C401 C176 1.464 . S
C403 C167 1.498 . S
C405 C207 1.797 . S
C407 C216 1.794 . S
C409 C247 1.499 . S
C411 C256 1.461 . S
C413 C287 1.782 . S
C415 C296 1.823 . S
