# Generated by pormake.
# Topology bcs, (6)-cn, num edge types: 1
# Building blocks:
#     Node 0, Type 0, BuildingBlock: BETDEL_clean_sbu_0, # of connection points: 6
#     Node 1, Type 0, BuildingBlock: BETDEL_clean_sbu_0, # of connection points: 6
#     Node 2, Type 0, BuildingBlock: BETDEL_clean_sbu_0, # of connection points: 6
#     Node 3, Type 0, BuildingBlock: BETDEL_clean_sbu_0, # of connection points: 6
#     Node 4, Type 0, BuildingBlock: BETDEL_clean_sbu_0, # of connection points: 6
#     Node 5, Type 0, BuildingBlock: BETDEL_clean_sbu_0, # of connection points: 6
#     Node 6, Type 0, BuildingBlock: BETDEL_clean_sbu_0, # of connection points: 6
#     Node 7, Type 0, BuildingBlock: BETDEL_clean_sbu_0, # of connection points: 6
#     Node 8, Type 0, BuildingBlock: BETDEL_clean_sbu_0, # of connection points: 6
#     Node 9, Type 0, BuildingBlock: BETDEL_clean_sbu_0, # of connection points: 6
#     Node 10, Type 0, BuildingBlock: BETDEL_clean_sbu_0, # of connection points: 6
#     Node 11, Type 0, BuildingBlock: BETDEL_clean_sbu_0, # of connection points: 6
#     Node 12, Type 0, BuildingBlock: BETDEL_clean_sbu_0, # of connection points: 6
#     Node 13, Type 0, BuildingBlock: BETDEL_clean_sbu_0, # of connection points: 6
#     Node 14, Type 0, BuildingBlock: BETDEL_clean_sbu_0, # of connection points: 6
#     Node 15, Type 0, BuildingBlock: BETDEL_clean_sbu_0, # of connection points: 6
#     Edge 16, Type (0, 0), BuildingBlock: OJICUG_clean_linker_0, # of connection points: 2
#     Edge 17, Type (0, 0), BuildingBlock: OJICUG_clean_linker_0, # of connection points: 2
#     Edge 18, Type (0, 0), BuildingBlock: OJICUG_clean_linker_0, # of connection points: 2
#     Edge 19, Type (0, 0), BuildingBlock: OJICUG_clean_linker_0, # of connection points: 2
#     Edge 20, Type (0, 0), BuildingBlock: OJICUG_clean_linker_0, # of connection points: 2
#     Edge 21, Type (0, 0), BuildingBlock: OJICUG_clean_linker_0, # of connection points: 2
#     Edge 22, Type (0, 0), BuildingBlock: OJICUG_clean_linker_0, # of connection points: 2
#     Edge 23, Type (0, 0), BuildingBlock: OJICUG_clean_linker_0, # of connection points: 2
#     Edge 24, Type (0, 0), BuildingBlock: OJICUG_clean_linker_0, # of connection points: 2
#     Edge 25, Type (0, 0), BuildingBlock: OJICUG_clean_linker_0, # of connection points: 2
#     Edge 26, Type (0, 0), BuildingBlock: OJICUG_clean_linker_0, # of connection points: 2
#     Edge 27, Type (0, 0), BuildingBlock: OJICUG_clean_linker_0, # of connection points: 2
#     Edge 28, Type (0, 0), BuildingBlock: OJICUG_clean_linker_0, # of connection points: 2
#     Edge 29, Type (0, 0), BuildingBlock: OJICUG_clean_linker_0, # of connection points: 2
#     Edge 30, Type (0, 0), BuildingBlock: OJICUG_clean_linker_0, # of connection points: 2
#     Edge 31, Type (0, 0), BuildingBlock: OJICUG_clean_linker_0, # of connection points: 2
#     Edge 32, Type (0, 0), BuildingBlock: OJICUG_clean_linker_0, # of connection points: 2
#     Edge 33, Type (0, 0), BuildingBlock: OJICUG_clean_linker_0, # of connection points: 2
#     Edge 34, Type (0, 0), BuildingBlock: OJICUG_clean_linker_0, # of connection points: 2
#     Edge 35, Type (0, 0), BuildingBlock: OJICUG_clean_linker_0, # of connection points: 2
#     Edge 36, Type (0, 0), BuildingBlock: OJICUG_clean_linker_0, # of connection points: 2
#     Edge 37, Type (0, 0), BuildingBlock: OJICUG_clean_linker_0, # of connection points: 2
#     Edge 38, Type (0, 0), BuildingBlock: OJICUG_clean_linker_0, # of connection points: 2
#     Edge 39, Type (0, 0), BuildingBlock: OJICUG_clean_linker_0, # of connection points: 2
#     Edge 40, Type (0, 0), BuildingBlock: OJICUG_clean_linker_0, # of connection points: 2
#     Edge 41, Type (0, 0), BuildingBlock: OJICUG_clean_linker_0, # of connection points: 2
#     Edge 42, Type (0, 0), BuildingBlock: OJICUG_clean_linker_0, # of connection points: 2
#     Edge 43, Type (0, 0), BuildingBlock: OJICUG_clean_linker_0, # of connection points: 2
#     Edge 44, Type (0, 0), BuildingBlock: OJICUG_clean_linker_0, # of connection points: 2
#     Edge 45, Type (0, 0), BuildingBlock: OJICUG_clean_linker_0, # of connection points: 2
#     Edge 46, Type (0, 0), BuildingBlock: OJICUG_clean_linker_0, # of connection points: 2
#     Edge 47, Type (0, 0), BuildingBlock: OJICUG_clean_linker_0, # of connection points: 2
#     Edge 48, Type (0, 0), BuildingBlock: OJICUG_clean_linker_0, # of connection points: 2
#     Edge 49, Type (0, 0), BuildingBlock: OJICUG_clean_linker_0, # of connection points: 2
#     Edge 50, Type (0, 0), BuildingBlock: OJICUG_clean_linker_0, # of connection points: 2
#     Edge 51, Type (0, 0), BuildingBlock: OJICUG_clean_linker_0, # of connection points: 2
#     Edge 52, Type (0, 0), BuildingBlock: OJICUG_clean_linker_0, # of connection points: 2
#     Edge 53, Type (0, 0), BuildingBlock: OJICUG_clean_linker_0, # of connection points: 2
#     Edge 54, Type (0, 0), BuildingBlock: OJICUG_clean_linker_0, # of connection points: 2
#     Edge 55, Type (0, 0), BuildingBlock: OJICUG_clean_linker_0, # of connection points: 2
#     Edge 56, Type (0, 0), BuildingBlock: OJICUG_clean_linker_0, # of connection points: 2
#     Edge 57, Type (0, 0), BuildingBlock: OJICUG_clean_linker_0, # of connection points: 2
#     Edge 58, Type (0, 0), BuildingBlock: OJICUG_clean_linker_0, # of connection points: 2
#     Edge 59, Type (0, 0), BuildingBlock: OJICUG_clean_linker_0, # of connection points: 2
#     Edge 60, Type (0, 0), BuildingBlock: OJICUG_clean_linker_0, # of connection points: 2
#     Edge 61, Type (0, 0), BuildingBlock: OJICUG_clean_linker_0, # of connection points: 2
#     Edge 62, Type (0, 0), BuildingBlock: OJICUG_clean_linker_0, # of connection points: 2
#     Edge 63, Type (0, 0), BuildingBlock: OJICUG_clean_linker_0, # of connection points: 2
# Relax obj value: 0.145
# Max RMSD: 0.242
# Mean RMSD: 0.191
data_MOF--net-bcs--node1-BETDEL_clean_sbu_0--edge1-OJICUG_clean_linker_0
_symmetry_space_group_name_H-M    P1
_symmetry_Int_Tables_number       1
_symmetry_cell_setting            triclinic
loop_
_symmetry_equiv_pos_as_xyz
'x, y, z'
_cell_length_a     26.886371
_cell_length_b     27.995682
_cell_length_c     25.82239
_cell_angle_alpha  90.461392
_cell_angle_beta   94.486867
_cell_angle_gamma 106.99242
loop_
_atom_site_label
_atom_site_type_symbol
_atom_site_fract_x
_atom_site_fract_y
_atom_site_fract_z
_atom_type_partial_charge
Dy0 Dy 0.03236 0.96477 0.9562 0.0
C1 C 0.94954 0.08365 0.07627 0.0
C2 C 0.08822 0.91637 0.90556 0.0
Dy3 Dy 1.00521 0.03499 0.02573 0.0
O4 O 0.03858 0.89893 0.9104 0.0
O5 O 0.1067 0.96095 0.92626 0.0
O6 O 0.95813 0.90479 0.96809 0.0
O7 O 0.99515 0.95545 0.02922 0.0
C8 C 0.95507 0.92017 0.0149 0.0
C9 C 0.08255 0.07932 0.96681 0.0
O10 O 0.05372 0.00694 0.08509 0.0
O11 O 0.09543 0.97927 0.02185 0.0
O12 O 0.99918 0.10101 0.07137 0.0
O13 O 0.93098 0.03903 0.05571 0.0
O14 O 0.0797 0.09474 0.01366 0.0
O15 O 0.04225 0.04426 0.95269 0.0
O16 O 0.98373 0.99275 0.89689 0.0
O17 O 0.94204 0.02039 0.96017 0.0
C18 C 0.09226 0.99061 0.07109 0.0
C19 C 0.94516 0.00903 0.91093 0.0
Dy20 Dy 0.27596 0.71693 0.24531 0.0
C21 C 0.19339 0.87535 0.19469 0.0
C22 C 0.32232 0.64561 0.27166 0.0
Dy23 Dy 0.22835 0.80088 0.236 0.0
O24 O 0.27602 0.63646 0.24787 0.0
O25 O 0.34193 0.69293 0.28286 0.0
O26 O 0.26472 0.70524 0.15913 0.0
O27 O 0.2092 0.72731 0.19731 0.0
C28 C 0.22155 0.71714 0.15337 0.0
C29 C 0.28622 0.80371 0.3265 0.0
O30 O 0.1598 0.74107 0.25765 0.0
O31 O 0.21102 0.69571 0.29711 0.0
O32 O 0.18646 0.85973 0.2416 0.0
O33 O 0.21776 0.84946 0.17051 0.0
O34 O 0.24486 0.8189 0.32168 0.0
O35 O 0.29546 0.79103 0.28233 0.0
O36 O 0.34302 0.7691 0.21319 0.0
O37 O 0.30142 0.82972 0.19541 0.0
C38 C 0.16591 0.70552 0.28838 0.0
C39 C 0.34161 0.81169 0.19348 0.0
Dy40 Dy 0.49178 0.99861 0.538 0.0
C41 C 0.59205 0.98556 0.35616 0.0
C42 C 0.44688 0.01573 0.62428 0.0
Dy43 Dy 0.5459 0.0031 0.44131 0.0
O44 O 0.42362 0.9851 0.58612 0.0
O45 O 0.4952 0.03664 0.61557 0.0
O46 O 0.44908 0.91822 0.52179 0.0
O47 O 0.46622 0.96669 0.45942 0.0
C48 C 0.44718 0.92174 0.47166 0.0
C49 C 0.59079 0.0798 0.50798 0.0
O50 O 0.49402 0.0487 0.41388 0.0
O51 O 0.46778 0.05955 0.49554 0.0
O52 O 0.61582 0.0124 0.39676 0.0
O53 O 0.54242 0.96853 0.36179 0.0
O54 O 0.58985 0.08326 0.4579 0.0
O55 O 0.57141 0.03483 0.51976 0.0
O56 O 0.54914 0.95927 0.56632 0.0
O57 O 0.5671 0.94026 0.48381 0.0
C58 C 0.4699 0.07009 0.44563 0.0
C59 C 0.56999 0.93446 0.53478 0.0
Dy60 Dy 0.29708 0.20873 0.7356 0.0
C61 C 0.20141 0.3625 0.76656 0.0
C62 C 0.34077 0.13539 0.71557 0.0
Dy63 Dy 0.2452 0.28935 0.74517 0.0
O64 O 0.36524 0.17835 0.7377 0.0
O65 O 0.29242 0.13286 0.70237 0.0
O66 O 0.33321 0.22609 0.81675 0.0
O67 O 0.32207 0.28405 0.77084 0.0
C68 C 0.33708 0.27327 0.81543 0.0
C69 C 0.20557 0.22433 0.66529 0.0
O70 O 0.30889 0.32832 0.69697 0.0
O71 O 0.32556 0.25655 0.66758 0.0
O72 O 0.17694 0.31988 0.74368 0.0
O73 O 0.24977 0.36485 0.7793 0.0
O74 O 0.2094 0.27153 0.66377 0.0
O75 O 0.22023 0.21398 0.71013 0.0
O76 O 0.23393 0.17007 0.78475 0.0
O77 O 0.2178 0.24223 0.81368 0.0
C78 C 0.33106 0.30516 0.66506 0.0
C79 C 0.21241 0.19372 0.8168 0.0
Dy80 Dy 0.06301 0.97714 0.50778 0.0
C81 C 0.89306 0.05392 0.42858 0.0
C82 C 0.14291 0.94481 0.55327 0.0
Dy83 Dy 0.9727 0.02126 0.47422 0.0
O84 O 0.12343 0.93582 0.50542 0.0
O85 O 0.11909 0.97222 0.57642 0.0
O86 O 0.03928 0.92272 0.44 0.0
O87 O 0.98243 0.94703 0.47366 0.0
C88 C 0.9909 0.92252 0.43618 0.0
C89 C 0.04497 0.07574 0.54589 0.0
O90 O 0.93409 0.96441 0.5313 0.0
O91 O 1.01042 0.95596 0.57379 0.0
O92 O 0.91258 0.06297 0.47642 0.0
O93 O 0.91665 0.02623 0.40556 0.0
O94 O 0.99661 0.07563 0.54216 0.0
O95 O 0.05315 0.05128 0.50825 0.0
O96 O 0.1017 0.03432 0.45114 0.0
O97 O 0.02543 0.04242 0.40819 0.0
C98 C 0.95919 0.9494 0.57153 0.0
C99 C 0.0767 0.04913 0.41074 0.0
Dy100 Dy 0.26261 0.76463 0.76296 0.0
C101 C 0.36981 0.70268 0.61132 0.0
C102 C 0.21437 0.80261 0.83351 0.0
Dy103 Dy 0.32892 0.75323 0.67896 0.0
O104 O 0.19398 0.76067 0.80766 0.0
O105 O 0.26196 0.82302 0.82215 0.0
O106 O 0.20852 0.68863 0.74297 0.0
O107 O 0.24485 0.73379 0.68337 0.0
C108 C 0.21568 0.69137 0.69387 0.0
C109 C 0.37644 0.82381 0.75221 0.0
O110 O 0.28573 0.80048 0.63561 0.0
O111 O 0.25906 0.82767 0.71051 0.0
O112 O 0.38881 0.75028 0.62284 0.0
O113 O 0.32808 0.68412 0.63501 0.0
O114 O 0.38616 0.82857 0.70364 0.0
O115 O 0.34578 0.78144 0.75881 0.0
O116 O 0.30065 0.71566 0.80712 0.0
O117 O 0.33308 0.69125 0.73428 0.0
C118 C 0.26503 0.83107 0.66008 0.0
C119 C 0.32218 0.68557 0.78363 0.0
Dy120 Dy 0.55509 0.96569 0.97855 0.0
C121 C 0.4275 0.08759 0.0538 0.0
C122 C 0.60886 0.91013 0.92922 0.0
Dy123 Dy 0.48191 0.0331 0.0037 0.0
O124 O 0.62728 0.9406 0.96909 0.0
O125 O 0.56077 0.90953 0.91694 0.0
O126 O 0.6005 0.99081 0.05576 0.0
O127 O 0.56483 0.03895 0.01558 0.0
C128 C 0.58935 0.03295 0.05756 0.0
C129 C 0.44766 0.96576 0.92472 0.0
O130 O 0.53197 0.08285 0.95028 0.0
O131 O 0.56235 0.02038 0.9153 0.0
O132 O 0.41054 0.05992 0.01171 0.0
O133 O 0.47465 0.08624 0.06777 0.0
O134 O 0.43633 0.0078 0.92656 0.0
O135 O 0.4722 0.95993 0.96675 0.0
O136 O 0.50578 0.91609 0.03248 0.0
O137 O 0.47412 0.97804 0.06662 0.0
C138 C 0.55464 0.06507 0.914 0.0
C139 C 0.48254 0.93368 0.06835 0.0
Dy140 Dy 0.30792 0.24682 0.28483 0.0
C141 C 0.18432 0.30663 0.12965 0.0
C142 C 0.36357 0.20533 0.35552 0.0
Dy143 Dy 0.22944 0.25094 0.19295 0.0
O144 O 0.38339 0.24407 0.32828 0.0
O145 O 0.31328 0.19081 0.34574 0.0
O146 O 0.35521 0.32608 0.27132 0.0
O147 O 0.31343 0.27972 0.20862 0.0
C148 C 0.34075 0.32369 0.22167 0.0
C149 C 0.19357 0.17459 0.25622 0.0
O150 O 0.27758 0.21223 0.14987 0.0
O151 O 0.31923 0.19165 0.22488 0.0
O152 O 0.17178 0.25785 0.1264 0.0
O153 O 0.22205 0.32383 0.16545 0.0
O154 O 0.177 0.17373 0.20717 0.0
O155 O 0.22356 0.21771 0.26868 0.0
O156 O 0.26352 0.2904 0.32783 0.0
O157 O 0.21098 0.29934 0.25487 0.0
C158 C 0.30875 0.18834 0.17346 0.0
C159 C 0.22679 0.30849 0.30499 0.0
Dy160 Dy 0.56251 0.47886 0.0114 0.0
C161 C 0.40223 0.55091 0.90809 0.0
C162 C 0.63438 0.44818 0.07239 0.0
Dy163 Dy 0.4742 0.52017 0.96873 0.0
O164 O 0.62578 0.44131 0.02231 0.0
O165 O 0.60505 0.47362 0.0889 0.0
O166 O 0.54298 0.42055 0.94682 0.0
O167 O 0.4841 0.44646 0.97394 0.0
C168 C 0.49471 0.42039 0.93926 0.0
C169 C 0.54216 0.57845 0.04103 0.0
O170 O 0.43096 0.46527 0.02523 0.0
O171 O 0.50561 0.4609 0.07397 0.0
O172 O 0.411 0.55779 0.95815 0.0
O173 O 0.43149 0.5255 0.89139 0.0
O174 O 0.49387 0.57826 0.03363 0.0
O175 O 0.55259 0.55253 0.00611 0.0
O176 O 0.60548 0.5336 0.95442 0.0
O177 O 0.53068 0.53794 0.90593 0.0
C178 C 0.4542 0.45274 0.06824 0.0
C179 C 0.58208 0.5461 0.91146 0.0
Dy180 Dy 0.70835 0.24645 0.30229 0.0
C181 C 0.82345 0.19751 0.14823 0.0
C182 C 0.66733 0.29692 0.36984 0.0
Dy183 Dy 0.77477 0.23521 0.21859 0.0
O184 O 0.64833 0.24934 0.35825 0.0
O185 O 0.70915 0.3155 0.34629 0.0
O186 O 0.65121 0.17108 0.27799 0.0
O187 O 0.69151 0.21798 0.22245 0.0
C188 C 0.66085 0.17565 0.2294 0.0
C189 C 0.82136 0.30856 0.28783 0.0
O190 O 0.73665 0.28401 0.17418 0.0
O191 O 0.70377 0.30823 0.2468 0.0
O192 O 0.84377 0.23928 0.17441 0.0
O193 O 0.77573 0.17715 0.15918 0.0
O194 O 0.82838 0.31146 0.23871 0.0
O195 O 0.79248 0.26598 0.29817 0.0
O196 O 0.75139 0.19918 0.34578 0.0
O197 O 0.77824 0.17207 0.27097 0.0
C198 C 0.71478 0.31392 0.19747 0.0
C199 C 0.77214 0.1686 0.32137 0.0
Dy200 Dy 0.05467 0.46895 0.4706 0.0
C201 C 0.92973 0.58458 0.56284 0.0
C202 C 0.10928 0.41554 0.41887 0.0
Dy203 Dy 0.98357 0.53034 0.5113 0.0
O204 O 0.12545 0.44158 0.46193 0.0
O205 O 0.06284 0.41851 0.40396 0.0
O206 O 0.11073 0.49717 0.54027 0.0
O207 O 0.06753 0.54302 0.50801 0.0
C208 C 0.09921 0.53872 0.54501 0.0
C209 C 0.93898 0.46053 0.43687 0.0
O210 O 0.02441 0.5819 0.45343 0.0
O211 O 0.05002 0.52237 0.40747 0.0
O212 O 0.91463 0.56081 0.51837 0.0
O213 O 0.97467 0.57885 0.57928 0.0
O214 O 0.92713 0.50188 0.44189 0.0
O215 O 0.9707 0.45637 0.47388 0.0
O216 O 1.01438 0.41739 0.52887 0.0
O217 O 0.98749 0.47653 0.5742 0.0
C218 C 0.04104 0.56644 0.41129 0.0
C219 C 0.99692 0.43264 0.57064 0.0
Dy220 Dy 0.79127 0.70963 0.23552 0.0
C221 C 0.69594 0.86381 0.2649 0.0
C222 C 0.83501 0.63642 0.2142 0.0
Dy223 Dy 0.73936 0.79023 0.24501 0.0
O224 O 0.85952 0.67911 0.23693 0.0
O225 O 0.78661 0.63404 0.20154 0.0
O226 O 0.8272 0.72719 0.3168 0.0
O227 O 0.81619 0.78503 0.27075 0.0
C228 C 0.83101 0.77438 0.31546 0.0
C229 C 0.69972 0.72554 0.16506 0.0
O230 O 0.80269 0.82894 0.19607 0.0
O231 O 0.81893 0.75684 0.16714 0.0
O232 O 0.74432 0.86629 0.27779 0.0
O233 O 0.67122 0.82073 0.24313 0.0
O234 O 0.70355 0.77271 0.16366 0.0
O235 O 0.71444 0.71497 0.20982 0.0
O236 O 0.72764 0.67078 0.28385 0.0
O237 O 0.71099 0.74258 0.31316 0.0
C238 C 0.82434 0.80536 0.16408 0.0
C239 C 0.70553 0.69399 0.31578 0.0
Dy240 Dy 0.80853 0.19824 0.74564 0.0
C241 C 0.71411 0.35332 0.71014 0.0
C242 C 0.84376 0.12404 0.78722 0.0
Dy243 Dy 0.76062 0.28206 0.73638 0.0
O244 O 0.85058 0.13951 0.74025 0.0
O245 O 0.81933 0.14993 0.81132 0.0
O246 O 0.7925 0.18012 0.66009 0.0
O247 O 0.7415 0.20813 0.69901 0.0
C248 C 0.75121 0.19539 0.65501 0.0
C249 C 0.81486 0.28132 0.8284 0.0
O250 O 0.69357 0.22962 0.76835 0.0
O251 O 0.73524 0.16899 0.78583 0.0
O252 O 0.7604 0.36249 0.73397 0.0
O253 O 0.69459 0.30601 0.69887 0.0
O254 O 0.77168 0.29322 0.82271 0.0
O255 O 0.82729 0.27171 0.78434 0.0
O256 O 0.87698 0.25814 0.72391 0.0
O257 O 0.82573 0.30365 0.68475 0.0
C258 C 0.695 0.18695 0.78786 0.0
C259 C 0.87084 0.29377 0.6933 0.0
Dy260 Dy 0.80711 0.74635 0.78893 0.0
C261 C 0.68525 0.80832 0.63053 0.0
C262 C 0.85118 0.68999 0.85245 0.0
Dy263 Dy 0.73044 0.7534 0.69567 0.0
O264 O 0.86393 0.73875 0.85591 0.0
O265 O 0.81374 0.6731 0.81629 0.0
O266 O 0.86123 0.82319 0.77579 0.0
O267 O 0.81437 0.78064 0.71362 0.0
C268 C 0.84471 0.82332 0.72686 0.0
C269 C 0.69396 0.67591 0.7575 0.0
O270 O 0.77901 0.71387 0.65284 0.0
O271 O 0.82497 0.69741 0.72718 0.0
O272 O 0.67341 0.75958 0.62794 0.0
O273 O 0.72231 0.82597 0.66695 0.0
O274 O 0.67745 0.67577 0.70852 0.0
O275 O 0.72337 0.71895 0.77069 0.0
O276 O 0.75945 0.7856 0.83255 0.0
O277 O 0.71178 0.80113 0.75883 0.0
C278 C 0.81247 0.69208 0.67622 0.0
C279 C 0.72519 0.80666 0.8098 0.0
Dy280 Dy 0.55219 0.5041 0.54154 0.0
C281 C 0.43677 0.51873 0.35098 0.0
C282 C 0.59989 0.48025 0.63019 0.0
Dy283 Dy 0.48471 0.49521 0.43963 0.0
O284 O 0.62208 0.51456 0.59888 0.0
O285 O 0.55118 0.46069 0.61386 0.0
O286 O 0.59991 0.58081 0.52061 0.0
O287 O 0.56748 0.52495 0.46235 0.0
C288 C 0.59236 0.57035 0.47089 0.0
C289 C 0.44479 0.4289 0.51038 0.0
O290 O 0.5337 0.44868 0.41592 0.0
O291 O 0.56347 0.43675 0.50035 0.0
O292 O 0.41468 0.48455 0.38246 0.0
O293 O 0.48552 0.53835 0.36716 0.0
O294 O 0.43726 0.41838 0.46067 0.0
O295 O 0.46943 0.47437 0.51874 0.0
O296 O 0.50326 0.55071 0.56523 0.0
O297 O 0.47347 0.5626 0.4808 0.0
C298 C 0.5575 0.42563 0.44975 0.0
C299 C 0.47944 0.57374 0.5314 0.0
Dy300 Dy 0.99036 0.49682 0.04018 0.0
C301 C 0.096 0.48288 0.86016 0.0
C302 C 0.94019 0.51489 0.1222 0.0
Dy303 Dy 0.04579 0.50055 0.9423 0.0
O304 O 0.91786 0.49038 0.07976 0.0
O305 O 0.99055 0.52891 0.12035 0.0
O306 O 0.95165 0.41484 0.02814 0.0
O307 O 0.96835 0.46015 0.96337 0.0
C308 C 0.95241 0.4157 0.97799 0.0
C309 C 0.08351 0.58173 0.00465 0.0
O310 O 0.98558 0.53618 0.91271 0.0
O311 O 0.96803 0.55708 -0.00501 0.0
O312 O 0.11832 0.50716 0.90272 0.0
O313 O 0.04564 0.46881 0.86199 0.0
O314 O 0.08414 0.58265 0.95449 0.0
O315 O 0.06781 0.5372 0.01907 0.0
O316 O 0.05031 0.46085 0.06967 0.0
O317 O 0.0679 0.44009 0.98736 0.0
C318 C 0.96447 0.56122 0.94386 0.0
C319 C 0.07133 0.43578 0.03847 0.0
C320 C 0.17562 0.18704 0.9036 0.0
C321 C 0.18045 0.16458 0.85616 0.0
H322 H 0.1418 0.17709 0.97679 0.0
C323 C 0.15424 0.11364 0.84628 0.0
H324 H 0.1957 0.22619 0.91227 0.0
C325 C 0.12273 0.08595 0.88257 0.0
C326 C 0.11793 0.10831 0.92999 0.0
H327 H 0.15708 0.09542 0.80992 0.0
H328 H 0.10193 0.04705 0.87341 0.0
C329 C 0.14511 0.15893 0.94056 0.0
C330 C 0.17099 0.96416 0.0944 0.0
C331 C 0.12608 0.97408 0.1101 0.0
H332 H 0.22731 0.92473 0.10931 0.0
C333 C 0.10888 0.95849 0.15896 0.0
H334 H 0.18559 0.97634 0.05729 0.0
C335 C 0.1331 0.92882 0.18901 0.0
C336 C 0.1744 0.91454 0.17018 0.0
H337 H 0.0743 0.96564 0.17197 0.0
H338 H 0.11722 0.91421 0.22488 0.0
C339 C 0.19472 0.9344 0.12403 0.0
C340 C 0.41946 0.87439 0.38749 0.0
C341 C 0.40794 0.8854 0.43729 0.0
H342 H 0.38993 0.83777 0.31372 0.0
C343 C 0.35724 0.86473 0.45256 0.0
H344 H 0.45838 0.88984 0.37522 0.0
C345 C 0.31767 0.83596 0.41711 0.0
C346 C 0.32876 0.82635 0.36659 0.0
H347 H 0.34757 0.87311 0.49089 0.0
H348 H 0.27816 0.82265 0.42856 0.0
C349 C 0.38035 0.84437 0.35261 0.0
C350 C 0.42012 0.10775 0.71445 0.0
C351 C 0.36606 0.09757 0.70304 0.0
H352 H 0.48871 0.08813 0.69887 0.0
C353 C 0.33776 0.05344 0.67549 0.0
H354 H 0.44257 0.14115 0.73663 0.0
C355 C 0.3641 0.0227 0.65458 0.0
C356 C 0.41889 0.03634 0.66066 0.0
H357 H 0.29585 0.04443 0.66721 0.0
H358 H 0.34197 0.99087 0.62994 0.0
C359 C 0.44647 0.07726 0.69328 0.0
C360 C 0.19966 0.88777 0.551 0.0
C361 C 0.18097 0.92147 0.57889 0.0
H362 H 0.24158 0.83309 0.55448 0.0
C363 C 0.19564 0.92943 0.63231 0.0
H364 H 0.18922 0.88107 0.50965 0.0
C365 C 0.22558 0.90202 0.65794 0.0
C366 C 0.24166 0.86597 0.63077 0.0
H367 H 0.18227 0.95542 0.65475 0.0
H368 H 0.23447 0.90785 0.69957 0.0
C369 C 0.22983 0.86037 0.57665 0.0
C370 C 0.4097 0.91227 0.78704 0.0
C371 C 0.39917 0.86088 0.79502 0.0
H372 H 0.43231 0.98596 0.82259 0.0
C373 C 0.40703 0.84447 0.84548 0.0
H374 H 0.40355 0.92575 0.74855 0.0
C375 C 0.42474 0.87877 0.88739 0.0
C376 C 0.43313 0.92997 0.87988 0.0
H377 H 0.39912 0.80495 0.85258 0.0
H378 H 0.43012 0.86511 0.92595 0.0
C379 C 0.42578 0.94654 0.82934 0.0
C380 C 0.34975 0.1206 0.06159 0.0
C381 C 0.39674 0.11361 0.08351 0.0
H382 H 0.28536 0.15002 0.07206 0.0
C383 C 0.41371 0.13075 0.13502 0.0
H384 H 0.33544 0.10774 0.02202 0.0
C385 C 0.3845 0.1538 0.16401 0.0
C386 C 0.33776 0.16145 0.14217 0.0
H387 H 0.4495 0.12589 0.15328 0.0
H388 H 0.39922 0.16644 0.20354 0.0
C389 C 0.32096 0.14477 0.09032 0.0
C390 C 0.15554 0.11485 0.38491 0.0
C391 C 0.10761 0.07891 0.37042 0.0
H392 H 0.21864 0.17451 0.36085 0.0
C393 C 0.08893 0.0733 0.31762 0.0
H394 H 0.1706 0.12057 0.42536 0.0
C395 C 0.11781 0.10285 0.28012 0.0
C396 C 0.16516 0.1398 0.29486 0.0
H397 H 0.05206 0.04592 0.30531 0.0
H398 H 0.10231 0.09769 0.2398 0.0
C399 C 0.18337 0.14554 0.34779 0.0
C400 C 0.90841 0.19239 0.12264 0.0
C401 C 0.85439 0.17063 0.12317 0.0
H402 H 0.98145 0.18104 0.10829 0.0
C403 C 0.83169 0.12052 0.10714 0.0
H404 H 0.92669 0.231 0.13523 0.0
C405 C 0.863 0.0919 0.0925 0.0
C406 C 0.91721 0.11321 0.09368 0.0
H407 H 0.79009 0.10295 0.10769 0.0
H408 H 0.84484 0.05307 0.0807 0.0
C409 C 0.93972 0.16376 0.10803 0.0
C410 C 0.06623 0.65342 0.3803 0.0
C411 C 0.05887 0.60216 0.37084 0.0
H412 H 0.10712 0.72783 0.35979 0.0
C413 C 0.07689 0.58624 0.32618 0.0
H414 H 0.05197 0.66663 0.41405 0.0
C415 C 0.10839 0.62112 0.29582 0.0
C416 C 0.12102 0.67194 0.30931 0.0
H417 H 0.07055 0.54694 0.31718 0.0
H418 H 0.12613 0.60832 0.26426 0.0
C419 C 0.09748 0.68841 0.3494 0.0
C420 C 0.59944 0.85668 0.53234 0.0
C421 C 0.59942 0.90142 0.5577 0.0
H422 H 0.62567 0.79083 0.5361 0.0
C423 C 0.62803 0.9149 0.60606 0.0
H424 H 0.57752 0.84538 0.49502 0.0
C425 C 0.65648 0.8848 0.62848 0.0
C426 C 0.65591 0.83964 0.60393 0.0
H427 H 0.62902 0.94923 0.62638 0.0
H428 H 0.67825 0.89658 0.66582 0.0
C429 C 0.6268 0.8255 0.55576 0.0
C430 C 0.46344 0.33824 0.89208 0.0
C431 C 0.45462 0.3831 0.90701 0.0
H432 H 0.43165 0.26715 0.85246 0.0
C433 C 0.40624 0.3911 0.89306 0.0
H434 H 0.50035 0.33119 0.90291 0.0
C435 C 0.36745 0.35501 0.86334 0.0
C436 C 0.37612 0.30996 0.84907 0.0
H437 H 0.39863 0.42535 0.90476 0.0
H438 H 0.33068 0.36205 0.85188 0.0
C439 C 0.42409 0.30154 0.86387 0.0
C440 C 0.91858 0.80315 0.3625 0.0
C441 C 0.87019 0.81114 0.34899 0.0
H442 H 0.99557 0.83332 0.39951 0.0
C443 C 0.86141 0.85595 0.36417 0.0
H444 H 0.92624 0.76898 0.35046 0.0
C445 C 0.90066 0.89228 0.3933 0.0
C446 C 0.94955 0.8848 0.40557 0.0
H447 H 0.82428 0.86267 0.3537 0.0
H448 H 0.89311 0.92639 0.40555 0.0
C449 C 0.95828 0.84007 0.38996 0.0
C450 C 0.42381 0.59475 0.59425 0.0
C451 C 0.45308 0.60835 0.55136 0.0
H452 H 0.3734 0.61364 0.64543 0.0
C453 C 0.45506 0.65374 0.52736 0.0
H454 H 0.42137 0.55975 0.61305 0.0
C455 C 0.42867 0.68557 0.54696 0.0
C456 C 0.39841 0.67107 0.58919 0.0
H457 H 0.47748 0.66476 0.49408 0.0
H458 H 0.43109 0.72079 0.52871 0.0
C459 C 0.39607 0.62539 0.61243 0.0
C460 C 0.59118 0.1494 0.87932 0.0
C461 C 0.57847 0.0973 0.87322 0.0
H462 H 0.63949 0.21967 0.85553 0.0
C463 C 0.59655 0.07594 0.83188 0.0
H464 H 0.57711 0.16662 0.91055 0.0
C465 C 0.63281 0.1059 0.80179 0.0
C466 C 0.64985 0.15741 0.81177 0.0
H467 H 0.58591 0.0358 0.8253 0.0
H468 H 0.64946 0.0887 0.77256 0.0
C469 C 0.62681 0.17958 0.84822 0.0
C470 C 0.09936 0.35781 0.03429 0.0
C471 C 0.0995 0.40186 0.06116 0.0
H472 H 0.12526 0.29184 0.03548 0.0
C473 C 0.12734 0.41371 0.11 0.0
H474 H 0.0779 0.34778 -0.00344 0.0
C475 C 0.15531 0.38275 0.13125 0.0
C476 C 0.15489 0.33848 0.10485 0.0
H477 H 0.12828 0.44746 0.13142 0.0
H478 H 0.17676 0.39319 0.16894 0.0
C479 C 0.12622 0.32582 0.05642 0.0
C480 C 0.66261 0.60987 0.88466 0.0
C481 C 0.61365 0.57514 0.87097 0.0
H482 H 0.7255 0.66979 0.85997 0.0
C483 C 0.593 0.57162 0.81878 0.0
H484 H 0.67933 0.61397 0.92458 0.0
C485 C 0.62019 0.60263 0.78137 0.0
C486 C 0.66801 0.63895 0.79555 0.0
H487 H 0.55534 0.54527 0.80696 0.0
H488 H 0.60276 0.59943 0.74175 0.0
C489 C 0.68907 0.64189 0.84757 0.0
C490 C 0.67587 0.38527 0.18989 0.0
C491 C 0.69958 0.35275 0.16685 0.0
H492 H 0.63745 0.44199 0.17797 0.0
C493 C 0.70715 0.35655 0.11357 0.0
H494 H 0.66997 0.38376 0.23093 0.0
C495 C 0.68871 0.38999 0.08342 0.0
C496 C 0.66254 0.42048 0.10591 0.0
H497 H 0.72578 0.33253 0.09461 0.0
H498 H 0.69307 0.39046 0.04205 0.0
C499 C 0.65759 0.41891 0.15967 0.0
C500 C 0.89465 0.434 0.34937 0.0
C501 C 0.91122 0.4209 0.39862 0.0
H502 H 0.85368 0.40801 0.27525 0.0
C503 C 0.89804 0.37043 0.4117 0.0
H504 H 0.90436 0.4728 0.33869 0.0
C505 C 0.86742 0.33353 0.3761 0.0
C506 C 0.85133 0.34676 0.32662 0.0
H507 H 0.91011 0.35973 0.44979 0.0
H508 H 0.85704 0.29475 0.38688 0.0
C509 C 0.86566 0.39711 0.3133 0.0
C510 C 0.64167 0.65477 0.44088 0.0
C511 C 0.6186 0.60331 0.4307 0.0
H512 H 0.68678 0.72446 0.41182 0.0
C513 C 0.62212 0.58276 0.38187 0.0
H514 H 0.63925 0.67149 0.47823 0.0
C515 C 0.64978 0.61263 0.34454 0.0
C516 C 0.6737 0.66393 0.35478 0.0
H517 H 0.60462 0.54323 0.37289 0.0
H518 H 0.65264 0.59539 0.3076 0.0
C519 C 0.6686 0.68502 0.40293 0.0
C520 C 0.90477 0.33259 0.85844 0.0
C521 C 0.85421 0.30596 0.87035 0.0
H522 H 0.97557 0.38912 0.88381 0.0
C523 C 0.83899 0.31091 0.92035 0.0
H524 H 0.91733 0.32967 0.81998 0.0
C525 C 0.87273 0.34438 0.95697 0.0
C526 C 0.92136 0.37422 0.94335 0.0
H527 H 0.80005 0.2909 0.93013 0.0
H528 H 0.85936 0.34938 -0.00541 0.0
C529 C 0.93785 0.36703 0.89457 0.0
C530 C 0.8826 0.88556 0.13493 0.0
C531 C 0.85653 0.83461 0.12492 0.0
H532 H 0.93499 0.95226 0.1081 0.0
C533 C 0.86174 0.81222 0.07757 0.0
H534 H 0.87947 0.90372 0.17123 0.0
C535 C 0.89247 0.84044 0.04082 0.0
C536 C 0.91951 0.89108 0.05152 0.0
H537 H 0.84178 0.77307 0.0688 0.0
H538 H 0.89607 0.82233 0.00465 0.0
C539 C 0.91433 0.91335 0.09886 0.0
C540 C 0.90412 0.07066 0.79298 0.0
C541 C 0.86285 0.08496 0.81184 0.0
H542 H 0.96296 0.0339 0.80999 0.0
C543 C 0.84263 0.0652 0.85806 0.0
H544 H 0.91993 0.0852 0.75705 0.0
C545 C 0.86642 0.0355 0.88771 0.0
C546 C 0.9113 0.02554 0.87195 0.0
H547 H 0.81006 0.07489 0.87281 0.0
H548 H 0.85189 0.02339 0.92487 0.0
C549 C 0.92841 0.04105 0.82304 0.0
C550 C 0.65703 0.15751 0.62698 0.0
C551 C 0.70916 0.17349 0.61424 0.0
H552 H 0.57851 0.11423 0.60298 0.0
C553 C 0.721 0.16251 0.56442 0.0
H554 H 0.64685 0.16526 0.66528 0.0
C555 C 0.68157 0.13427 0.52854 0.0
C556 C 0.6302 0.11558 0.54266 0.0
H557 H 0.76092 0.17428 0.55391 0.0
H558 H 0.69175 0.12475 0.49082 0.0
C559 C 0.61797 0.12806 0.59165 0.0
C560 C 0.59117 0.92331 0.28728 0.0
C561 C 0.61932 0.96422 0.31966 0.0
H562 H 0.59415 0.85883 0.24427 0.0
C563 C 0.67408 0.97728 0.32548 0.0
H564 H 0.54894 0.91284 0.28193 0.0
C565 C 0.69986 0.94608 0.30457 0.0
C566 C 0.67104 0.90195 0.27734 0.0
H567 H 0.69663 0.00915 0.34986 0.0
H568 H 0.74177 0.95476 0.31263 0.0
C569 C 0.61699 0.89224 0.26619 0.0
C570 C 0.80683 0.13898 0.40489 0.0
C571 C 0.79526 0.13354 0.35073 0.0
H572 H 0.84692 0.11792 0.47203 0.0
C573 C 0.81127 0.09741 0.32361 0.0
H574 H 0.79511 0.16631 0.42703 0.0
C575 C 0.84086 0.06975 0.34935 0.0
C576 C 0.85528 0.07753 0.40283 0.0
H577 H 0.80257 0.0917 0.28195 0.0
H578 H 0.85418 0.04369 0.32695 0.0
C579 C 0.83667 0.11133 0.43064 0.0
C580 C 0.63001 0.1545 0.1363 0.0
C581 C 0.6381 0.13834 0.18681 0.0
H582 H 0.6067 0.1335 0.05597 0.0
C583 C 0.62784 0.087 0.19503 0.0
H584 H 0.63773 0.19396 0.12902 0.0
C585 C 0.61173 0.05254 0.15288 0.0
C586 C 0.60412 0.06887 0.10229 0.0
H587 H 0.63419 0.07373 0.23357 0.0
H588 H 0.60537 0.01317 0.1598 0.0
C589 C 0.61229 0.12001 0.09456 0.0
C590 C 0.71549 0.85337 0.89191 0.0
C591 C 0.69619 0.83308 0.84166 0.0
H592 H 0.70367 0.89429 0.95867 0.0
C593 C 0.64766 0.83788 0.82139 0.0
H594 H 0.7526 0.8505 0.90886 0.0
C595 C 0.61927 0.86191 0.85024 0.0
C596 C 0.6388 0.8829 0.89998 0.0
H597 H 0.63108 0.82255 0.7831 0.0
H598 H 0.58214 0.86465 0.83314 0.0
C599 C 0.68742 0.87849 0.92045 0.0
C600 C 0.95073 0.92145 0.66392 0.0
C601 C 0.92863 0.9201 0.61248 0.0
H602 H 0.94098 0.8933 0.74086 0.0
C603 C 0.87767 0.88867 0.59991 0.0
H604 H 0.98986 0.94535 0.67487 0.0
C605 C 0.85028 0.85792 0.6373 0.0
C606 C 0.8724 0.85899 0.68865 0.0
H607 H 0.85966 0.88639 0.56059 0.0
H608 H 0.81202 0.83264 0.62569 0.0
C609 C 0.92263 0.89179 0.70177 0.0
C610 C 0.20613 0.87974 0.87436 0.0
C611 C 0.18349 0.82954 0.8586 0.0
H612 H 0.19289 0.9472 0.90062 0.0
C613 C 0.12952 0.80768 0.8594 0.0
H614 H 0.2477 0.89737 0.87357 0.0
C615 C 0.09817 0.83628 0.87401 0.0
C616 C 0.12061 0.88689 0.8881 0.0
H617 H 0.11128 0.76901 0.84703 0.0
H618 H 0.05649 0.8189 0.87396 0.0
C619 C 0.17479 0.90831 0.88903 0.0
C620 C 0.96052 0.41285 0.6555 0.0
C621 C 0.97864 0.39685 0.61094 0.0
H622 H 0.91093 0.39101 0.71721 0.0
C623 C 0.97084 0.34554 0.60138 0.0
H624 H 0.96715 0.45219 0.66458 0.0
C625 C 0.93923 0.31065 0.63212 0.0
C626 C 0.91572 0.32726 0.67217 0.0
H627 H 0.98509 0.33225 0.56766 0.0
H628 H 0.92937 0.27122 0.6217 0.0
C629 C 0.92863 0.37809 0.68569 0.0
C630 C 0.46731 0.14098 0.3878 0.0
C631 C 0.44431 0.107 0.42501 0.0
H632 H 0.4606 0.20036 0.33822 0.0
C633 C 0.39639 0.10838 0.44217 0.0
H634 H 0.50448 0.14102 0.3743 0.0
C635 C 0.37075 0.1415 0.42069 0.0
C636 C 0.39347 0.17508 0.38307 0.0
H637 H 0.37784 0.0826 0.47084 0.0
H638 H 0.33279 0.14034 0.43292 0.0
C639 C 0.4425 0.17525 0.36761 0.0
C640 C 0.63083 0.6079 0.08691 0.0
C641 C 0.5823 0.61572 0.07329 0.0
H642 H 0.70649 0.6371 0.12791 0.0
C643 C 0.57327 0.66035 0.08868 0.0
H644 H 0.6386 0.57382 0.07487 0.0
C645 C 0.61256 0.69702 0.11699 0.0
C646 C 0.66069 0.68881 0.13144 0.0
H647 H 0.53623 0.66725 0.07815 0.0
H648 H 0.60483 0.73125 0.12873 0.0
C649 C 0.66958 0.64397 0.11673 0.0
C650 C 0.17501 0.14276 0.61661 0.0
C651 C 0.16618 0.18747 0.63206 0.0
H652 H 0.14314 0.07226 0.57536 0.0
C653 C 0.11758 0.19523 0.61921 0.0
H654 H 0.21231 0.13622 0.62659 0.0
C655 C 0.07772 0.15819 0.59211 0.0
C656 C 0.08649 0.11355 0.57621 0.0
H657 H 0.10989 0.22932 0.63149 0.0
H658 H 0.04028 0.16477 0.58305 0.0
C659 C 0.13557 0.10629 0.58784 0.0
C660 C 0.64162 0.3745 0.36925 0.0
C661 C 0.63873 0.3285 0.392 0.0
H662 H 0.61669 0.44035 0.36897 0.0
C663 C 0.60782 0.31361 0.43371 0.0
H664 H 0.66477 0.38654 0.33662 0.0
C665 C 0.58137 0.34539 0.45331 0.0
C666 C 0.58393 0.39109 0.42979 0.0
H667 H 0.60494 0.27812 0.45155 0.0
H668 H 0.55845 0.33406 0.4862 0.0
C669 C 0.61382 0.40509 0.38739 0.0
C670 C 0.44609 0.84934 0.10284 0.0
C671 C 0.45879 0.90143 0.10909 0.0
H672 H 0.39747 0.77904 0.12618 0.0
C673 C 0.44055 0.92272 0.15035 0.0
H674 H 0.4603 0.8322 0.07167 0.0
C675 C 0.40403 0.8927 0.18012 0.0
C676 C 0.38692 0.84124 0.16988 0.0
H677 H 0.45121 0.96285 0.15702 0.0
H678 H 0.38722 0.90984 0.20928 0.0
C679 C 0.41019 0.81911 0.13363 0.0
C680 C 0.93618 0.63901 0.94789 0.0
C681 C 0.93604 0.5949 0.92113 0.0
H682 H 0.91023 0.70493 0.94653 0.0
C683 C 0.90796 0.58278 0.87244 0.0
H684 H 0.95782 0.64923 0.9855 0.0
C685 C 0.87981 0.61361 0.85117 0.0
C686 C 0.88032 0.65798 0.8774 0.0
H687 H 0.907 0.54897 0.85114 0.0
H688 H 0.85824 0.60302 0.81355 0.0
C689 C 0.90917 0.67084 0.92572 0.0
C690 C 0.44216 0.42788 0.16094 0.0
C691 C 0.4223 0.42375 0.10848 0.0
H692 H 0.43126 0.40079 0.23809 0.0
C693 C 0.37364 0.38867 0.09435 0.0
H694 H 0.47955 0.45452 0.17306 0.0
C695 C 0.34671 0.35689 0.13134 0.0
C696 C 0.36696 0.36047 0.18365 0.0
H697 H 0.35753 0.38417 0.05421 0.0
H698 H 0.31051 0.32875 0.11871 0.0
C699 C 0.41444 0.39714 0.19823 0.0
C700 C 0.34801 0.60916 0.89738 0.0
C701 C 0.374 0.57861 0.87473 0.0
H702 H 0.3112 0.66682 0.88645 0.0
C703 C 0.3788 0.58018 0.82096 0.0
H704 H 0.34376 0.60867 0.93877 0.0
C705 C 0.36061 0.61393 0.79087 0.0
C706 C 0.33715 0.64656 0.81408 0.0
H707 H 0.39881 0.55704 0.80254 0.0
H708 H 0.36642 0.61548 0.74981 0.0
C709 C 0.32966 0.64272 0.86737 0.0
C710 C 0.13988 0.62885 0.56997 0.0
C711 C 0.12695 0.57842 0.58319 0.0
H712 H 0.18029 0.70468 0.59466 0.0
C713 C 0.14346 0.56553 0.63256 0.0
H714 H 0.12782 0.63939 0.53181 0.0
C715 C 0.17208 0.60262 0.66863 0.0
C716 C 0.18609 0.65293 0.65517 0.0
H717 H 0.13392 0.52677 0.64335 0.0
H718 H 0.184 0.59191 0.70678 0.0
C719 C 0.17014 0.66593 0.60555 0.0
C720 C 0.36836 0.31422 0.57813 0.0
C721 C 0.36305 0.33528 0.62622 0.0
H722 H 0.39803 0.32781 0.50299 0.0
C723 C 0.38694 0.38658 0.63654 0.0
H724 H 0.35022 0.27479 0.56917 0.0
C725 C 0.41478 0.41648 0.59932 0.0
C726 C 0.4185 0.39596 0.55054 0.0
H727 H 0.38393 0.40378 0.67344 0.0
H728 H 0.43224 0.45601 0.60834 0.0
C729 C 0.39547 0.3445 0.5403 0.0
C730 C 0.1317 0.66517 0.124 0.0
C731 C 0.18206 0.69202 0.11171 0.0
H732 H 0.06098 0.60829 0.09916 0.0
C733 C 0.19703 0.68688 0.06164 0.0
H734 H 0.11935 0.6682 0.16253 0.0
C735 C 0.16321 0.65314 0.02529 0.0
C736 C 0.11476 0.62319 0.03925 0.0
H737 H 0.23582 0.70702 0.05158 0.0
H738 H 0.17638 0.6481 0.98759 0.0
C739 C 0.09855 0.63046 0.08814 0.0
C740 C 0.631 0.37369 0.69612 0.0
C741 C 0.68566 0.38991 0.69977 0.0
H742 H 0.56053 0.39128 0.67379 0.0
C743 C 0.71186 0.43985 0.69045 0.0
H744 H 0.61009 0.3355 0.70429 0.0
C745 C 0.68344 0.47182 0.67222 0.0
C746 C 0.62873 0.45413 0.66434 0.0
H747 H 0.75412 0.45308 0.69374 0.0
H748 H 0.7043 0.50903 0.66094 0.0
C749 C 0.60268 0.4058 0.67927 0.0
C750 C 0.91393 0.60766 0.21267 0.0
C751 C 0.86009 0.59869 0.20046 0.0
H752 H 0.98203 0.5866 0.19796 0.0
C753 C 0.83163 0.55572 0.17114 0.0
H754 H 0.9365 0.64022 0.23603 0.0
C755 C 0.85758 0.52484 0.14982 0.0
C756 C 0.91219 0.53683 0.1575 0.0
H757 H 0.78992 0.54767 0.16201 0.0
H758 H 0.83535 0.49385 0.12417 0.0
C759 C 0.9399 0.5768 0.19131 0.0
C760 C 0.85463 0.6221 0.56672 0.0
C761 C 0.89958 0.61253 0.59086 0.0
H762 H 0.79206 0.65496 0.57387 0.0
C763 C 0.91516 0.62943 0.64256 0.0
H764 H 0.84147 0.60958 0.52685 0.0
C765 C 0.88656 0.65464 0.6696 0.0
C766 C 0.84164 0.66458 0.64574 0.0
H767 H 0.94938 0.62275 0.66246 0.0
H768 H 0.90021 0.66673 0.7095 0.0
C769 C 0.82626 0.64816 0.59365 0.0
C770 C 0.3531 0.5271 0.30927 0.0
C771 C 0.40783 0.54478 0.31689 0.0
H772 H 0.28236 0.54587 0.28814 0.0
C773 C 0.43381 0.59309 0.30186 0.0
H774 H 0.33229 0.4899 0.32063 0.0
C775 C 0.40544 0.62521 0.2852 0.0
C776 C 0.35079 0.60901 0.28185 0.0
H777 H 0.47597 0.60759 0.30713 0.0
H778 H 0.42631 0.66339 0.27697 0.0
C779 C 0.32462 0.55908 0.29122 0.0
C780 C 0.20466 0.44285 0.81029 0.0
C781 C 0.17625 0.40008 0.78064 0.0
H782 H 0.20085 0.50423 0.85796 0.0
C783 C 0.12239 0.39106 0.76856 0.0
H784 H 0.24639 0.45095 0.81932 0.0
C785 C 0.09635 0.42161 0.79039 0.0
C786 C 0.12402 0.46132 0.82453 0.0
H787 H 0.09985 0.35864 0.74497 0.0
H788 H 0.05422 0.41175 0.78382 0.0
C789 C 0.17865 0.47342 0.83207 0.0
C790 C 0.21532 0.35574 0.38637 0.0
C791 C 0.19789 0.33629 0.3355 0.0
H792 H 0.20153 0.39642 0.45232 0.0
C793 C 0.15089 0.34314 0.31302 0.0
H794 H 0.25112 0.35137 0.4051 0.0
C795 C 0.12222 0.36818 0.34021 0.0
C796 C 0.13974 0.38798 0.39069 0.0
H797 H 0.13559 0.32869 0.27413 0.0
H798 H 0.08636 0.37237 0.32139 0.0
C799 C 0.18681 0.3816 0.41342 0.0
loop_
_geom_bond_atom_site_label_1
_geom_bond_atom_site_label_2
_geom_bond_distance
_geom_bond_site_symmetry_2
_ccdc_geom_bond_type
Dy0 O4 2.410 . S
Dy0 O5 2.491 1_655 S
Dy0 O6 2.403 . S
Dy0 O7 2.664 1_556 S
Dy0 O11 2.326 1_656 S
Dy0 O15 2.310 1_665 S
Dy0 O16 2.351 . S
C1 O12 1.185 1_655 S
C1 O13 1.355 . S
C2 O4 1.163 1_455 S
C2 O5 1.355 . S
Dy3 O7 2.310 1_445 S
Dy3 O10 2.351 . S
Dy3 O12 2.398 . S
Dy3 O13 2.491 1_455 S
Dy3 O14 2.403 . S
Dy3 O15 2.664 1_554 S
Dy3 O17 2.326 1_454 S
O4 Dy0 2.410 . S
O4 C2 1.163 1_655 S
O5 Dy0 2.491 1_455 S
O5 C2 1.355 . S
O6 Dy0 2.403 . S
O6 C8 1.254 1_556 S
O7 Dy0 2.664 1_554 S
O7 Dy3 2.310 1_665 S
O7 C8 1.268 . S
C8 O6 1.254 1_554 S
C8 O7 1.268 . S
C9 O14 1.254 1_556 S
C9 O15 1.268 . S
O10 Dy3 2.351 . S
O10 C18 1.249 1_545 S
O11 Dy0 2.326 1_454 S
O11 C18 1.267 . S
O12 C1 1.185 1_455 S
O12 Dy3 2.398 . S
O13 C1 1.355 . S
O13 Dy3 2.491 1_655 S
O14 Dy3 2.403 . S
O14 C9 1.254 1_554 S
O15 Dy0 2.310 1_445 S
O15 Dy3 2.664 1_556 S
O15 C9 1.268 . S
O16 Dy0 2.351 . S
O16 C19 1.249 1_565 S
O17 Dy3 2.326 1_656 S
O17 C19 1.267 . S
C18 O10 1.249 1_565 S
C18 O11 1.267 . S
C19 O16 1.249 1_545 S
C19 O17 1.267 . S
Dy20 O24 2.398 . S
Dy20 O25 2.491 . S
Dy20 O26 2.403 . S
Dy20 O27 2.664 . S
Dy20 O31 2.326 . S
Dy20 O35 2.310 . S
Dy20 O36 2.351 . S
C21 O32 1.185 . S
C21 O33 1.355 . S
C22 O24 1.185 . S
C22 O25 1.355 . S
Dy23 O27 2.310 . S
Dy23 O30 2.351 . S
Dy23 O32 2.398 . S
Dy23 O33 2.491 . S
Dy23 O34 2.403 . S
Dy23 O35 2.664 . S
Dy23 O37 2.326 . S
O24 Dy20 2.398 . S
O24 C22 1.185 . S
O25 Dy20 2.491 . S
O25 C22 1.355 . S
O26 Dy20 2.403 . S
O26 C28 1.254 . S
O27 Dy20 2.664 . S
O27 Dy23 2.310 . S
O27 C28 1.268 . S
C28 O26 1.254 . S
C28 O27 1.268 . S
C29 O34 1.254 . S
C29 O35 1.268 . S
O30 Dy23 2.351 . S
O30 C38 1.249 . S
O31 Dy20 2.326 . S
O31 C38 1.267 . S
O32 C21 1.185 . S
O32 Dy23 2.398 . S
O33 C21 1.355 . S
O33 Dy23 2.491 . S
O34 Dy23 2.403 . S
O34 C29 1.254 . S
O35 Dy20 2.310 . S
O35 Dy23 2.664 . S
O35 C29 1.268 . S
O36 Dy20 2.351 . S
O36 C39 1.249 . S
O37 Dy23 2.326 . S
O37 C39 1.267 . S
C38 O30 1.249 . S
C38 O31 1.267 . S
C39 O36 1.249 . S
C39 O37 1.267 . S
Dy40 O44 2.398 1_565 S
Dy40 O45 2.491 1_565 S
Dy40 O46 2.403 . S
Dy40 O47 2.664 . S
Dy40 O51 2.326 1_565 S
Dy40 O55 2.310 1_565 S
Dy40 O56 2.351 . S
C41 O52 1.185 . S
C41 O53 1.355 . S
C42 O44 1.185 . S
C42 O45 1.355 . S
Dy43 O47 2.310 1_545 S
Dy43 O50 2.351 . S
Dy43 O52 2.398 1_545 S
Dy43 O53 2.491 1_545 S
Dy43 O54 2.403 . S
Dy43 O55 2.664 . S
Dy43 O57 2.326 1_545 S
O44 Dy40 2.398 1_545 S
O44 C42 1.185 . S
O45 Dy40 2.491 1_545 S
O45 C42 1.355 . S
O46 Dy40 2.403 . S
O46 C48 1.254 . S
O47 Dy40 2.664 . S
O47 Dy43 2.310 1_565 S
O47 C48 1.268 . S
C48 O46 1.254 . S
C48 O47 1.268 . S
C49 O54 1.254 . S
C49 O55 1.268 . S
O50 Dy43 2.351 . S
O50 C58 1.249 . S
O51 Dy40 2.326 1_545 S
O51 C58 1.267 . S
O52 C41 1.185 . S
O52 Dy43 2.398 1_565 S
O53 C41 1.355 . S
O53 Dy43 2.491 1_565 S
O54 Dy43 2.403 . S
O54 C49 1.254 . S
O55 Dy40 2.310 1_545 S
O55 Dy43 2.664 . S
O55 C49 1.268 . S
O56 Dy40 2.351 . S
O56 C59 1.249 . S
O57 Dy43 2.326 1_565 S
O57 C59 1.267 . S
C58 O50 1.249 . S
C58 O51 1.267 . S
C59 O56 1.249 . S
C59 O57 1.267 . S
Dy60 O64 2.398 . S
Dy60 O65 2.491 . S
Dy60 O66 2.403 . S
Dy60 O67 2.664 . S
Dy60 O71 2.326 . S
Dy60 O75 2.310 . S
Dy60 O76 2.351 . S
C61 O72 1.185 . S
C61 O73 1.355 . S
C62 O64 1.185 . S
C62 O65 1.355 . S
Dy63 O67 2.310 . S
Dy63 O70 2.351 . S
Dy63 O72 2.398 . S
Dy63 O73 2.491 . S
Dy63 O74 2.403 . S
Dy63 O75 2.664 . S
Dy63 O77 2.326 . S
O64 Dy60 2.398 . S
O64 C62 1.185 . S
O65 Dy60 2.491 . S
O65 C62 1.355 . S
O66 Dy60 2.403 . S
O66 C68 1.254 . S
O67 Dy60 2.664 . S
O67 Dy63 2.310 . S
O67 C68 1.268 . S
C68 O66 1.254 . S
C68 O67 1.268 . S
C69 O74 1.254 . S
C69 O75 1.268 . S
O70 Dy63 2.351 . S
O70 C78 1.249 . S
O71 Dy60 2.326 . S
O71 C78 1.267 . S
O72 C61 1.185 . S
O72 Dy63 2.398 . S
O73 C61 1.355 . S
O73 Dy63 2.491 . S
O74 Dy63 2.403 . S
O74 C69 1.254 . S
O75 Dy60 2.310 . S
O75 Dy63 2.664 . S
O75 C69 1.268 . S
O76 Dy60 2.351 . S
O76 C79 1.249 . S
O77 Dy63 2.326 . S
O77 C79 1.267 . S
C78 O70 1.249 . S
C78 O71 1.267 . S
C79 O76 1.249 . S
C79 O77 1.267 . S
Dy80 O84 2.398 . S
Dy80 O85 2.491 . S
Dy80 O86 2.403 1_455 S
Dy80 O87 2.664 1_455 S
Dy80 O91 2.326 1_455 S
Dy80 O95 2.310 1_565 S
Dy80 O96 2.351 1_565 S
C81 O92 1.185 . S
C81 O93 1.355 . S
C82 O84 1.185 . S
C82 O85 1.355 . S
Dy83 O87 2.310 1_545 S
Dy83 O90 2.351 1_545 S
Dy83 O92 2.398 . S
Dy83 O93 2.491 . S
Dy83 O94 2.403 1_655 S
Dy83 O95 2.664 1_655 S
Dy83 O97 2.326 1_655 S
O84 Dy80 2.398 . S
O84 C82 1.185 . S
O85 Dy80 2.491 . S
O85 C82 1.355 . S
O86 Dy80 2.403 1_655 S
O86 C88 1.254 . S
O87 Dy80 2.664 1_655 S
O87 Dy83 2.310 1_565 S
O87 C88 1.268 . S
C88 O86 1.254 . S
C88 O87 1.268 . S
C89 O94 1.254 . S
C89 O95 1.268 . S
O90 Dy83 2.351 1_565 S
O90 C98 1.249 . S
O91 Dy80 2.326 1_655 S
O91 C98 1.267 . S
O92 C81 1.185 . S
O92 Dy83 2.398 . S
O93 C81 1.355 . S
O93 Dy83 2.491 . S
O94 Dy83 2.403 1_455 S
O94 C89 1.254 . S
O95 Dy80 2.310 1_545 S
O95 Dy83 2.664 1_455 S
O95 C89 1.268 . S
O96 Dy80 2.351 1_545 S
O96 C99 1.249 . S
O97 Dy83 2.326 1_455 S
O97 C99 1.267 . S
C98 O90 1.249 . S
C98 O91 1.267 . S
C99 O96 1.249 . S
C99 O97 1.267 . S
Dy100 O104 2.398 . S
Dy100 O105 2.491 . S
Dy100 O106 2.403 . S
Dy100 O107 2.664 . S
Dy100 O111 2.326 . S
Dy100 O115 2.310 . S
Dy100 O116 2.351 . S
C101 O112 1.185 . S
C101 O113 1.355 . S
C102 O104 1.185 . S
C102 O105 1.355 . S
Dy103 O107 2.310 . S
Dy103 O110 2.351 . S
Dy103 O112 2.398 . S
Dy103 O113 2.491 . S
Dy103 O114 2.403 . S
Dy103 O115 2.664 . S
Dy103 O117 2.326 . S
O104 Dy100 2.398 . S
O104 C102 1.185 . S
O105 Dy100 2.491 . S
O105 C102 1.355 . S
O106 Dy100 2.403 . S
O106 C108 1.254 . S
O107 Dy100 2.664 . S
O107 Dy103 2.310 . S
O107 C108 1.268 . S
C108 O106 1.254 . S
C108 O107 1.268 . S
C109 O114 1.254 . S
C109 O115 1.268 . S
O110 Dy103 2.351 . S
O110 C118 1.249 . S
O111 Dy100 2.326 . S
O111 C118 1.267 . S
O112 C101 1.185 . S
O112 Dy103 2.398 . S
O113 C101 1.355 . S
O113 Dy103 2.491 . S
O114 Dy103 2.403 . S
O114 C109 1.254 . S
O115 Dy100 2.310 . S
O115 Dy103 2.664 . S
O115 C109 1.268 . S
O116 Dy100 2.351 . S
O116 C119 1.249 . S
O117 Dy103 2.326 . S
O117 C119 1.267 . S
C118 O110 1.249 . S
C118 O111 1.267 . S
C119 O116 1.249 . S
C119 O117 1.267 . S
Dy120 O124 2.398 1_554 S
Dy120 O125 2.491 1_554 S
Dy120 O126 2.403 1_565 S
Dy120 O127 2.664 1_565 S
Dy120 O131 2.326 1_564 S
Dy120 O135 2.310 1_554 S
Dy120 O136 2.351 . S
C121 O132 1.185 . S
C121 O133 1.355 . S
C122 O124 1.185 . S
C122 O125 1.355 . S
Dy123 O127 2.310 1_556 S
Dy123 O130 2.351 . S
Dy123 O132 2.398 1_556 S
Dy123 O133 2.491 1_556 S
Dy123 O134 2.403 1_545 S
Dy123 O135 2.664 1_545 S
Dy123 O137 2.326 1_546 S
O124 Dy120 2.398 1_556 S
O124 C122 1.185 . S
O125 Dy120 2.491 1_556 S
O125 C122 1.355 . S
O126 Dy120 2.403 1_545 S
O126 C128 1.254 . S
O127 Dy120 2.664 1_545 S
O127 Dy123 2.310 1_554 S
O127 C128 1.268 . S
C128 O126 1.254 . S
C128 O127 1.268 . S
C129 O134 1.254 . S
C129 O135 1.268 . S
O130 Dy123 2.351 . S
O130 C138 1.249 . S
O131 Dy120 2.326 1_546 S
O131 C138 1.267 . S
O132 C121 1.185 . S
O132 Dy123 2.398 1_554 S
O133 C121 1.355 . S
O133 Dy123 2.491 1_554 S
O134 Dy123 2.403 1_565 S
O134 C129 1.254 . S
O135 Dy120 2.310 1_556 S
O135 Dy123 2.664 1_565 S
O135 C129 1.268 . S
O136 Dy120 2.351 . S
O136 C139 1.249 . S
O137 Dy123 2.326 1_564 S
O137 C139 1.267 . S
C138 O130 1.249 . S
C138 O131 1.267 . S
C139 O136 1.249 . S
C139 O137 1.267 . S
Dy140 O144 2.398 . S
Dy140 O145 2.491 . S
Dy140 O146 2.403 . S
Dy140 O147 2.664 . S
Dy140 O151 2.326 . S
Dy140 O155 2.310 . S
Dy140 O156 2.351 . S
C141 O152 1.185 . S
C141 O153 1.355 . S
C142 O144 1.185 . S
C142 O145 1.355 . S
Dy143 O147 2.310 . S
Dy143 O150 2.351 . S
Dy143 O152 2.398 . S
Dy143 O153 2.491 . S
Dy143 O154 2.403 . S
Dy143 O155 2.664 . S
Dy143 O157 2.326 . S
O144 Dy140 2.398 . S
O144 C142 1.185 . S
O145 Dy140 2.491 . S
O145 C142 1.355 . S
O146 Dy140 2.403 . S
O146 C148 1.254 . S
O147 Dy140 2.664 . S
O147 Dy143 2.310 . S
O147 C148 1.268 . S
C148 O146 1.254 . S
C148 O147 1.268 . S
C149 O154 1.254 . S
C149 O155 1.268 . S
O150 Dy143 2.351 . S
O150 C158 1.249 . S
O151 Dy140 2.326 . S
O151 C158 1.267 . S
O152 C141 1.185 . S
O152 Dy143 2.398 . S
O153 C141 1.355 . S
O153 Dy143 2.491 . S
O154 Dy143 2.403 . S
O154 C149 1.254 . S
O155 Dy140 2.310 . S
O155 Dy143 2.664 . S
O155 C149 1.268 . S
O156 Dy140 2.351 . S
O156 C159 1.249 . S
O157 Dy143 2.326 . S
O157 C159 1.267 . S
C158 O150 1.249 . S
C158 O151 1.267 . S
C159 O156 1.249 . S
C159 O157 1.267 . S
Dy160 O164 2.398 . S
Dy160 O165 2.491 . S
Dy160 O166 2.403 1_554 S
Dy160 O167 2.664 1_554 S
Dy160 O171 2.326 . S
Dy160 O175 2.310 . S
Dy160 O176 2.351 1_554 S
C161 O172 1.185 . S
C161 O173 1.355 . S
C162 O164 1.185 . S
C162 O165 1.355 . S
Dy163 O167 2.310 . S
Dy163 O170 2.351 1_556 S
Dy163 O172 2.398 . S
Dy163 O173 2.491 . S
Dy163 O174 2.403 1_556 S
Dy163 O175 2.664 1_556 S
Dy163 O177 2.326 . S
O164 Dy160 2.398 . S
O164 C162 1.185 . S
O165 Dy160 2.491 . S
O165 C162 1.355 . S
O166 Dy160 2.403 1_556 S
O166 C168 1.254 . S
O167 Dy160 2.664 1_556 S
O167 Dy163 2.310 . S
O167 C168 1.268 . S
C168 O166 1.254 . S
C168 O167 1.268 . S
C169 O174 1.254 . S
C169 O175 1.268 . S
O170 Dy163 2.351 1_554 S
O170 C178 1.249 . S
O171 Dy160 2.326 . S
O171 C178 1.267 . S
O172 C161 1.185 . S
O172 Dy163 2.398 . S
O173 C161 1.355 . S
O173 Dy163 2.491 . S
O174 Dy163 2.403 1_554 S
O174 C169 1.254 . S
O175 Dy160 2.310 . S
O175 Dy163 2.664 1_554 S
O175 C169 1.268 . S
O176 Dy160 2.351 1_556 S
O176 C179 1.249 . S
O177 Dy163 2.326 . S
O177 C179 1.267 . S
C178 O170 1.249 . S
C178 O171 1.267 . S
C179 O176 1.249 . S
C179 O177 1.267 . S
Dy180 O184 2.398 . S
Dy180 O185 2.491 . S
Dy180 O186 2.403 . S
Dy180 O187 2.664 . S
Dy180 O191 2.326 . S
Dy180 O195 2.310 . S
Dy180 O196 2.351 . S
C181 O192 1.185 . S
C181 O193 1.355 . S
C182 O184 1.185 . S
C182 O185 1.355 . S
Dy183 O187 2.310 . S
Dy183 O190 2.351 . S
Dy183 O192 2.398 . S
Dy183 O193 2.491 . S
Dy183 O194 2.403 . S
Dy183 O195 2.664 . S
Dy183 O197 2.326 . S
O184 Dy180 2.398 . S
O184 C182 1.185 . S
O185 Dy180 2.491 . S
O185 C182 1.355 . S
O186 Dy180 2.403 . S
O186 C188 1.254 . S
O187 Dy180 2.664 . S
O187 Dy183 2.310 . S
O187 C188 1.268 . S
C188 O186 1.254 . S
C188 O187 1.268 . S
C189 O194 1.254 . S
C189 O195 1.268 . S
O190 Dy183 2.351 . S
O190 C198 1.249 . S
O191 Dy180 2.326 . S
O191 C198 1.267 . S
O192 C181 1.185 . S
O192 Dy183 2.398 . S
O193 C181 1.355 . S
O193 Dy183 2.491 . S
O194 Dy183 2.403 . S
O194 C189 1.254 . S
O195 Dy180 2.310 . S
O195 Dy183 2.664 . S
O195 C189 1.268 . S
O196 Dy180 2.351 . S
O196 C199 1.249 . S
O197 Dy183 2.326 . S
O197 C199 1.267 . S
C198 O190 1.249 . S
C198 O191 1.267 . S
C199 O196 1.249 . S
C199 O197 1.267 . S
Dy200 O204 2.398 . S
Dy200 O205 2.491 . S
Dy200 O206 2.403 . S
Dy200 O207 2.664 . S
Dy200 O211 2.326 . S
Dy200 O215 2.310 1_455 S
Dy200 O216 2.351 1_455 S
C201 O212 1.185 . S
C201 O213 1.355 . S
C202 O204 1.185 . S
C202 O205 1.355 . S
Dy203 O207 2.310 1_655 S
Dy203 O210 2.351 1_655 S
Dy203 O212 2.398 . S
Dy203 O213 2.491 . S
Dy203 O214 2.403 . S
Dy203 O215 2.664 . S
Dy203 O217 2.326 . S
O204 Dy200 2.398 . S
O204 C202 1.185 . S
O205 Dy200 2.491 . S
O205 C202 1.355 . S
O206 Dy200 2.403 . S
O206 C208 1.254 . S
O207 Dy200 2.664 . S
O207 Dy203 2.310 1_455 S
O207 C208 1.268 . S
C208 O206 1.254 . S
C208 O207 1.268 . S
C209 O214 1.254 . S
C209 O215 1.268 . S
O210 Dy203 2.351 1_455 S
O210 C218 1.249 . S
O211 Dy200 2.326 . S
O211 C218 1.267 . S
O212 C201 1.185 . S
O212 Dy203 2.398 . S
O213 C201 1.355 . S
O213 Dy203 2.491 . S
O214 Dy203 2.403 . S
O214 C209 1.254 . S
O215 Dy200 2.310 1_655 S
O215 Dy203 2.664 . S
O215 C209 1.268 . S
O216 Dy200 2.351 1_655 S
O216 C219 1.249 . S
O217 Dy203 2.326 . S
O217 C219 1.267 . S
C218 O210 1.249 . S
C218 O211 1.267 . S
C219 O216 1.249 . S
C219 O217 1.267 . S
Dy220 O224 2.398 . S
Dy220 O225 2.491 . S
Dy220 O226 2.403 . S
Dy220 O227 2.664 . S
Dy220 O231 2.326 . S
Dy220 O235 2.310 . S
Dy220 O236 2.351 . S
C221 O232 1.185 . S
C221 O233 1.355 . S
C222 O224 1.185 . S
C222 O225 1.355 . S
Dy223 O227 2.310 . S
Dy223 O230 2.351 . S
Dy223 O232 2.398 . S
Dy223 O233 2.491 . S
Dy223 O234 2.403 . S
Dy223 O235 2.664 . S
Dy223 O237 2.326 . S
O224 Dy220 2.398 . S
O224 C222 1.185 . S
O225 Dy220 2.491 . S
O225 C222 1.355 . S
O226 Dy220 2.403 . S
O226 C228 1.254 . S
O227 Dy220 2.664 . S
O227 Dy223 2.310 . S
O227 C228 1.268 . S
C228 O226 1.254 . S
C228 O227 1.268 . S
C229 O234 1.254 . S
C229 O235 1.268 . S
O230 Dy223 2.351 . S
O230 C238 1.249 . S
O231 Dy220 2.326 . S
O231 C238 1.267 . S
O232 C221 1.185 . S
O232 Dy223 2.398 . S
O233 C221 1.355 . S
O233 Dy223 2.491 . S
O234 Dy223 2.403 . S
O234 C229 1.254 . S
O235 Dy220 2.310 . S
O235 Dy223 2.664 . S
O235 C229 1.268 . S
O236 Dy220 2.351 . S
O236 C239 1.249 . S
O237 Dy223 2.326 . S
O237 C239 1.267 . S
C238 O230 1.249 . S
C238 O231 1.267 . S
C239 O236 1.249 . S
C239 O237 1.267 . S
Dy240 O244 2.398 . S
Dy240 O245 2.491 . S
Dy240 O246 2.403 . S
Dy240 O247 2.664 . S
Dy240 O251 2.326 . S
Dy240 O255 2.310 . S
Dy240 O256 2.351 . S
C241 O252 1.185 . S
C241 O253 1.355 . S
C242 O244 1.185 . S
C242 O245 1.355 . S
Dy243 O247 2.310 . S
Dy243 O250 2.351 . S
Dy243 O252 2.398 . S
Dy243 O253 2.491 . S
Dy243 O254 2.403 . S
Dy243 O255 2.664 . S
Dy243 O257 2.326 . S
O244 Dy240 2.398 . S
O244 C242 1.185 . S
O245 Dy240 2.491 . S
O245 C242 1.355 . S
O246 Dy240 2.403 . S
O246 C248 1.254 . S
O247 Dy240 2.664 . S
O247 Dy243 2.310 . S
O247 C248 1.268 . S
C248 O246 1.254 . S
C248 O247 1.268 . S
C249 O254 1.254 . S
C249 O255 1.268 . S
O250 Dy243 2.351 . S
O250 C258 1.249 . S
O251 Dy240 2.326 . S
O251 C258 1.267 . S
O252 C241 1.185 . S
O252 Dy243 2.398 . S
O253 C241 1.355 . S
O253 Dy243 2.491 . S
O254 Dy243 2.403 . S
O254 C249 1.254 . S
O255 Dy240 2.310 . S
O255 Dy243 2.664 . S
O255 C249 1.268 . S
O256 Dy240 2.351 . S
O256 C259 1.249 . S
O257 Dy243 2.326 . S
O257 C259 1.267 . S
C258 O250 1.249 . S
C258 O251 1.267 . S
C259 O256 1.249 . S
C259 O257 1.267 . S
Dy260 O264 2.398 . S
Dy260 O265 2.491 . S
Dy260 O266 2.403 . S
Dy260 O267 2.664 . S
Dy260 O271 2.326 . S
Dy260 O275 2.310 . S
Dy260 O276 2.351 . S
C261 O272 1.185 . S
C261 O273 1.355 . S
C262 O264 1.185 . S
C262 O265 1.355 . S
Dy263 O267 2.310 . S
Dy263 O270 2.351 . S
Dy263 O272 2.398 . S
Dy263 O273 2.491 . S
Dy263 O274 2.403 . S
Dy263 O275 2.664 . S
Dy263 O277 2.326 . S
O264 Dy260 2.398 . S
O264 C262 1.185 . S
O265 Dy260 2.491 . S
O265 C262 1.355 . S
O266 Dy260 2.403 . S
O266 C268 1.254 . S
O267 Dy260 2.664 . S
O267 Dy263 2.310 . S
O267 C268 1.268 . S
C268 O266 1.254 . S
C268 O267 1.268 . S
C269 O274 1.254 . S
C269 O275 1.268 . S
O270 Dy263 2.351 . S
O270 C278 1.249 . S
O271 Dy260 2.326 . S
O271 C278 1.267 . S
O272 C261 1.185 . S
O272 Dy263 2.398 . S
O273 C261 1.355 . S
O273 Dy263 2.491 . S
O274 Dy263 2.403 . S
O274 C269 1.254 . S
O275 Dy260 2.310 . S
O275 Dy263 2.664 . S
O275 C269 1.268 . S
O276 Dy260 2.351 . S
O276 C279 1.249 . S
O277 Dy263 2.326 . S
O277 C279 1.267 . S
C278 O270 1.249 . S
C278 O271 1.267 . S
C279 O276 1.249 . S
C279 O277 1.267 . S
Dy280 O284 2.398 . S
Dy280 O285 2.491 . S
Dy280 O286 2.403 . S
Dy280 O287 2.664 . S
Dy280 O291 2.326 . S
Dy280 O295 2.310 . S
Dy280 O296 2.351 . S
C281 O292 1.185 . S
C281 O293 1.355 . S
C282 O284 1.185 . S
C282 O285 1.355 . S
Dy283 O287 2.310 . S
Dy283 O290 2.351 . S
Dy283 O292 2.398 . S
Dy283 O293 2.491 . S
Dy283 O294 2.403 . S
Dy283 O295 2.664 . S
Dy283 O297 2.326 . S
O284 Dy280 2.398 . S
O284 C282 1.185 . S
O285 Dy280 2.491 . S
O285 C282 1.355 . S
O286 Dy280 2.403 . S
O286 C288 1.254 . S
O287 Dy280 2.664 . S
O287 Dy283 2.310 . S
O287 C288 1.268 . S
C288 O286 1.254 . S
C288 O287 1.268 . S
C289 O294 1.254 . S
C289 O295 1.268 . S
O290 Dy283 2.351 . S
O290 C298 1.249 . S
O291 Dy280 2.326 . S
O291 C298 1.267 . S
O292 C281 1.185 . S
O292 Dy283 2.398 . S
O293 C281 1.355 . S
O293 Dy283 2.491 . S
O294 Dy283 2.403 . S
O294 C289 1.254 . S
O295 Dy280 2.310 . S
O295 Dy283 2.664 . S
O295 C289 1.268 . S
O296 Dy280 2.351 . S
O296 C299 1.249 . S
O297 Dy283 2.326 . S
O297 C299 1.267 . S
C298 O290 1.249 . S
C298 O291 1.267 . S
C299 O296 1.249 . S
C299 O297 1.267 . S
Dy300 O304 2.398 . S
Dy300 O305 2.491 . S
Dy300 O306 2.403 1_554 S
Dy300 O307 2.664 1_554 S
Dy300 O311 2.326 1_554 S
Dy300 O315 2.310 1_655 S
Dy300 O316 2.351 1_655 S
C301 O312 1.185 . S
C301 O313 1.355 . S
C302 O304 1.185 . S
C302 O305 1.355 . S
Dy303 O307 2.310 1_455 S
Dy303 O310 2.351 1_455 S
Dy303 O312 2.398 . S
Dy303 O313 2.491 . S
Dy303 O314 2.403 1_556 S
Dy303 O315 2.664 1_556 S
Dy303 O317 2.326 1_556 S
O304 Dy300 2.398 . S
O304 C302 1.185 . S
O305 Dy300 2.491 . S
O305 C302 1.355 . S
O306 Dy300 2.403 1_556 S
O306 C308 1.254 . S
O307 Dy300 2.664 1_556 S
O307 Dy303 2.310 1_655 S
O307 C308 1.268 . S
C308 O306 1.254 . S
C308 O307 1.268 . S
C309 O314 1.254 . S
C309 O315 1.268 . S
O310 Dy303 2.351 1_655 S
O310 C318 1.249 . S
O311 Dy300 2.326 1_556 S
O311 C318 1.267 . S
O312 C301 1.185 . S
O312 Dy303 2.398 . S
O313 C301 1.355 . S
O313 Dy303 2.491 . S
O314 Dy303 2.403 1_554 S
O314 C309 1.254 . S
O315 Dy300 2.310 1_455 S
O315 Dy303 2.664 1_554 S
O315 C309 1.268 . S
O316 Dy300 2.351 1_455 S
O316 C319 1.249 . S
O317 Dy303 2.326 1_554 S
O317 C319 1.267 . S
C318 O310 1.249 . S
C318 O311 1.267 . S
C319 O316 1.249 . S
C319 O317 1.267 . S
C320 C321 1.387 . S
C320 H324 0.950 . S
C320 C329 1.390 . S
C321 C320 1.387 . S
C321 C323 1.387 . S
H322 C329 0.950 . S
C323 C321 1.387 . S
C323 C325 1.390 . S
C323 H327 0.950 . S
H324 C320 0.950 . S
C325 C323 1.390 . S
C325 C326 1.387 . S
C325 H328 0.950 . S
C326 C325 1.387 . S
C326 C329 1.387 . S
H327 C323 0.950 . S
H328 C325 0.950 . S
C329 C320 1.390 . S
C329 H322 0.950 . S
C329 C326 1.387 . S
C330 C331 1.387 . S
C330 H334 0.950 . S
C330 C339 1.390 . S
C331 C330 1.387 . S
C331 C333 1.387 . S
H332 C339 0.950 . S
C333 C331 1.387 . S
C333 C335 1.390 . S
C333 H337 0.950 1_565 S
H334 C330 0.950 . S
C335 C333 1.390 . S
C335 C336 1.387 . S
C335 H338 0.950 . S
C336 C335 1.387 . S
C336 C339 1.387 . S
H337 C333 0.950 1_545 S
H338 C335 0.950 . S
C339 C330 1.390 . S
C339 H332 0.950 . S
C339 C336 1.387 . S
C340 C341 1.387 . S
C340 H344 0.950 . S
C340 C349 1.390 . S
C341 C340 1.387 . S
C341 C343 1.387 . S
H342 C349 0.950 . S
C343 C341 1.387 . S
C343 C345 1.390 . S
C343 H347 0.950 . S
H344 C340 0.950 . S
C345 C343 1.390 . S
C345 C346 1.387 . S
C345 H348 0.950 . S
C346 C345 1.387 . S
C346 C349 1.387 . S
H347 C343 0.950 . S
H348 C345 0.950 . S
C349 C340 1.390 . S
C349 H342 0.950 . S
C349 C346 1.387 . S
C350 C351 1.387 . S
C350 H354 0.950 . S
C350 C359 1.390 . S
C351 C350 1.387 . S
C351 C353 1.387 . S
H352 C359 0.950 . S
C353 C351 1.387 . S
C353 C355 1.390 . S
C353 H357 0.950 . S
H354 C350 0.950 . S
C355 C353 1.390 . S
C355 C356 1.387 . S
C355 H358 0.950 . S
C356 C355 1.387 . S
C356 C359 1.387 . S
H357 C353 0.950 . S
H358 C355 0.950 . S
C359 C350 1.390 . S
C359 H352 0.950 . S
C359 C356 1.387 . S
C360 C361 1.387 . S
C360 H364 0.950 . S
C360 C369 1.390 . S
C361 C360 1.387 . S
C361 C363 1.387 . S
H362 C369 0.950 . S
C363 C361 1.387 . S
C363 C365 1.390 . S
C363 H367 0.950 . S
H364 C360 0.950 . S
C365 C363 1.390 . S
C365 C366 1.387 . S
C365 H368 0.950 . S
C366 C365 1.387 . S
C366 C369 1.387 . S
H367 C363 0.950 . S
H368 C365 0.950 . S
C369 C360 1.390 . S
C369 H362 0.950 . S
C369 C366 1.387 . S
C370 C371 1.387 . S
C370 H374 0.950 . S
C370 C379 1.390 . S
C371 C370 1.387 . S
C371 C373 1.387 . S
H372 C379 0.950 . S
C373 C371 1.387 . S
C373 C375 1.390 . S
C373 H377 0.950 . S
H374 C370 0.950 . S
C375 C373 1.390 . S
C375 C376 1.387 . S
C375 H378 0.950 . S
C376 C375 1.387 . S
C376 C379 1.387 . S
H377 C373 0.950 . S
H378 C375 0.950 . S
C379 C370 1.390 . S
C379 H372 0.950 . S
C379 C376 1.387 . S
C380 C381 1.387 . S
C380 H384 0.950 . S
C380 C389 1.390 . S
C381 C380 1.387 . S
C381 C383 1.387 . S
H382 C389 0.950 . S
C383 C381 1.387 . S
C383 C385 1.390 . S
C383 H387 0.950 . S
H384 C380 0.950 . S
C385 C383 1.390 . S
C385 C386 1.387 . S
C385 H388 0.950 . S
C386 C385 1.387 . S
C386 C389 1.387 . S
H387 C383 0.950 . S
H388 C385 0.950 . S
C389 C380 1.390 . S
C389 H382 0.950 . S
C389 C386 1.387 . S
C390 C391 1.387 . S
C390 H394 0.950 . S
C390 C399 1.390 . S
C391 C390 1.387 . S
C391 C393 1.387 . S
H392 C399 0.950 . S
C393 C391 1.387 . S
C393 C395 1.390 . S
C393 H397 0.950 . S
H394 C390 0.950 . S
C395 C393 1.390 . S
C395 C396 1.387 . S
C395 H398 0.950 . S
C396 C395 1.387 . S
C396 C399 1.387 . S
H397 C393 0.950 . S
H398 C395 0.950 . S
C399 C390 1.390 . S
C399 H392 0.950 . S
C399 C396 1.387 . S
C400 C401 1.387 . S
C400 H404 0.950 . S
C400 C409 1.390 . S
C401 C400 1.387 . S
C401 C403 1.387 . S
H402 C409 0.950 . S
C403 C401 1.387 . S
C403 C405 1.390 . S
C403 H407 0.950 . S
H404 C400 0.950 . S
C405 C403 1.390 . S
C405 C406 1.387 . S
C405 H408 0.950 . S
C406 C405 1.387 . S
C406 C409 1.387 . S
H407 C403 0.950 . S
H408 C405 0.950 . S
C409 C400 1.390 . S
C409 H402 0.950 . S
C409 C406 1.387 . S
C410 C411 1.387 . S
C410 H414 0.950 . S
C410 C419 1.390 . S
C411 C410 1.387 . S
C411 C413 1.387 . S
H412 C419 0.950 . S
C413 C411 1.387 . S
C413 C415 1.390 . S
C413 H417 0.950 . S
H414 C410 0.950 . S
C415 C413 1.390 . S
C415 C416 1.387 . S
C415 H418 0.950 . S
C416 C415 1.387 . S
C416 C419 1.387 . S
H417 C413 0.950 . S
H418 C415 0.950 . S
C419 C410 1.390 . S
C419 H412 0.950 . S
C419 C416 1.387 . S
C420 C421 1.387 . S
C420 H424 0.950 . S
C420 C429 1.390 . S
C421 C420 1.387 . S
C421 C423 1.387 . S
H422 C429 0.950 . S
C423 C421 1.387 . S
C423 C425 1.390 . S
C423 H427 0.950 . S
H424 C420 0.950 . S
C425 C423 1.390 . S
C425 C426 1.387 . S
C425 H428 0.950 . S
C426 C425 1.387 . S
C426 C429 1.387 . S
H427 C423 0.950 . S
H428 C425 0.950 . S
C429 C420 1.390 . S
C429 H422 0.950 . S
C429 C426 1.387 . S
C430 C431 1.387 . S
C430 H434 0.950 . S
C430 C439 1.390 . S
C431 C430 1.387 . S
C431 C433 1.387 . S
H432 C439 0.950 . S
C433 C431 1.387 . S
C433 C435 1.390 . S
C433 H437 0.950 . S
H434 C430 0.950 . S
C435 C433 1.390 . S
C435 C436 1.387 . S
C435 H438 0.950 . S
C436 C435 1.387 . S
C436 C439 1.387 . S
H437 C433 0.950 . S
H438 C435 0.950 . S
C439 C430 1.390 . S
C439 H432 0.950 . S
C439 C436 1.387 . S
C440 C441 1.387 . S
C440 H444 0.950 . S
C440 C449 1.390 . S
C441 C440 1.387 . S
C441 C443 1.387 . S
H442 C449 0.950 . S
C443 C441 1.387 . S
C443 C445 1.390 . S
C443 H447 0.950 . S
H444 C440 0.950 . S
C445 C443 1.390 . S
C445 C446 1.387 . S
C445 H448 0.950 . S
C446 C445 1.387 . S
C446 C449 1.387 . S
H447 C443 0.950 . S
H448 C445 0.950 . S
C449 C440 1.390 . S
C449 H442 0.950 . S
C449 C446 1.387 . S
C450 C451 1.387 . S
C450 H454 0.950 . S
C450 C459 1.390 . S
C451 C450 1.387 . S
C451 C453 1.387 . S
H452 C459 0.950 . S
C453 C451 1.387 . S
C453 C455 1.390 . S
C453 H457 0.950 . S
H454 C450 0.950 . S
C455 C453 1.390 . S
C455 C456 1.387 . S
C455 H458 0.950 . S
C456 C455 1.387 . S
C456 C459 1.387 . S
H457 C453 0.950 . S
H458 C455 0.950 . S
C459 C450 1.390 . S
C459 H452 0.950 . S
C459 C456 1.387 . S
C460 C461 1.387 . S
C460 H464 0.950 . S
C460 C469 1.390 . S
C461 C460 1.387 . S
C461 C463 1.387 . S
H462 C469 0.950 . S
C463 C461 1.387 . S
C463 C465 1.390 . S
C463 H467 0.950 . S
H464 C460 0.950 . S
C465 C463 1.390 . S
C465 C466 1.387 . S
C465 H468 0.950 . S
C466 C465 1.387 . S
C466 C469 1.387 . S
H467 C463 0.950 . S
H468 C465 0.950 . S
C469 C460 1.390 . S
C469 H462 0.950 . S
C469 C466 1.387 . S
C470 C471 1.387 . S
C470 H474 0.950 . S
C470 C479 1.390 . S
C471 C470 1.387 . S
C471 C473 1.387 . S
H472 C479 0.950 . S
C473 C471 1.387 . S
C473 C475 1.390 . S
C473 H477 0.950 . S
H474 C470 0.950 . S
C475 C473 1.390 . S
C475 C476 1.387 . S
C475 H478 0.950 . S
C476 C475 1.387 . S
C476 C479 1.387 . S
H477 C473 0.950 . S
H478 C475 0.950 . S
C479 C470 1.390 . S
C479 H472 0.950 . S
C479 C476 1.387 . S
C480 C481 1.387 . S
C480 H484 0.950 . S
C480 C489 1.390 . S
C481 C480 1.387 . S
C481 C483 1.387 . S
H482 C489 0.950 . S
C483 C481 1.387 . S
C483 C485 1.390 . S
C483 H487 0.950 . S
H484 C480 0.950 . S
C485 C483 1.390 . S
C485 C486 1.387 . S
C485 H488 0.950 . S
C486 C485 1.387 . S
C486 C489 1.387 . S
H487 C483 0.950 . S
H488 C485 0.950 . S
C489 C480 1.390 . S
C489 H482 0.950 . S
C489 C486 1.387 . S
C490 C491 1.387 . S
C490 H494 0.950 . S
C490 C499 1.390 . S
C491 C490 1.387 . S
C491 C493 1.387 . S
H492 C499 0.950 . S
C493 C491 1.387 . S
C493 C495 1.390 . S
C493 H497 0.950 . S
H494 C490 0.950 . S
C495 C493 1.390 . S
C495 C496 1.387 . S
C495 H498 0.950 . S
C496 C495 1.387 . S
C496 C499 1.387 . S
H497 C493 0.950 . S
H498 C495 0.950 . S
C499 C490 1.390 . S
C499 H492 0.950 . S
C499 C496 1.387 . S
C500 C501 1.387 . S
C500 H504 0.950 . S
C500 C509 1.390 . S
C501 C500 1.387 . S
C501 C503 1.387 . S
H502 C509 0.950 . S
C503 C501 1.387 . S
C503 C505 1.390 . S
C503 H507 0.950 . S
H504 C500 0.950 . S
C505 C503 1.390 . S
C505 C506 1.387 . S
C505 H508 0.950 . S
C506 C505 1.387 . S
C506 C509 1.387 . S
H507 C503 0.950 . S
H508 C505 0.950 . S
C509 C500 1.390 . S
C509 H502 0.950 . S
C509 C506 1.387 . S
C510 C511 1.387 . S
C510 H514 0.950 . S
C510 C519 1.390 . S
C511 C510 1.387 . S
C511 C513 1.387 . S
H512 C519 0.950 . S
C513 C511 1.387 . S
C513 C515 1.390 . S
C513 H517 0.950 . S
H514 C510 0.950 . S
C515 C513 1.390 . S
C515 C516 1.387 . S
C515 H518 0.950 . S
C516 C515 1.387 . S
C516 C519 1.387 . S
H517 C513 0.950 . S
H518 C515 0.950 . S
C519 C510 1.390 . S
C519 H512 0.950 . S
C519 C516 1.387 . S
C520 C521 1.387 . S
C520 H524 0.950 . S
C520 C529 1.390 . S
C521 C520 1.387 . S
C521 C523 1.387 . S
H522 C529 0.950 . S
C523 C521 1.387 . S
C523 C525 1.390 . S
C523 H527 0.950 . S
H524 C520 0.950 . S
C525 C523 1.390 . S
C525 C526 1.387 . S
C525 H528 0.950 . S
C526 C525 1.387 . S
C526 C529 1.387 . S
H527 C523 0.950 . S
H528 C525 0.950 . S
C529 C520 1.390 . S
C529 H522 0.950 . S
C529 C526 1.387 . S
C530 C531 1.387 . S
C530 H534 0.950 . S
C530 C539 1.390 . S
C531 C530 1.387 . S
C531 C533 1.387 . S
H532 C539 0.950 . S
C533 C531 1.387 . S
C533 C535 1.390 . S
C533 H537 0.950 . S
H534 C530 0.950 . S
C535 C533 1.390 . S
C535 C536 1.387 . S
C535 H538 0.950 . S
C536 C535 1.387 . S
C536 C539 1.387 . S
H537 C533 0.950 . S
H538 C535 0.950 . S
C539 C530 1.390 . S
C539 H532 0.950 . S
C539 C536 1.387 . S
C540 C541 1.387 . S
C540 H544 0.950 . S
C540 C549 1.390 . S
C541 C540 1.387 . S
C541 C543 1.387 . S
H542 C549 0.950 . S
C543 C541 1.387 . S
C543 C545 1.390 . S
C543 H547 0.950 . S
H544 C540 0.950 . S
C545 C543 1.390 . S
C545 C546 1.387 . S
C545 H548 0.950 . S
C546 C545 1.387 . S
C546 C549 1.387 . S
H547 C543 0.950 . S
H548 C545 0.950 . S
C549 C540 1.390 . S
C549 H542 0.950 . S
C549 C546 1.387 . S
C550 C551 1.387 . S
C550 H554 0.950 . S
C550 C559 1.390 . S
C551 C550 1.387 . S
C551 C553 1.387 . S
H552 C559 0.950 . S
C553 C551 1.387 . S
C553 C555 1.390 . S
C553 H557 0.950 . S
H554 C550 0.950 . S
C555 C553 1.390 . S
C555 C556 1.387 . S
C555 H558 0.950 . S
C556 C555 1.387 . S
C556 C559 1.387 . S
H557 C553 0.950 . S
H558 C555 0.950 . S
C559 C550 1.390 . S
C559 H552 0.950 . S
C559 C556 1.387 . S
C560 C561 1.387 . S
C560 H564 0.950 . S
C560 C569 1.390 . S
C561 C560 1.387 . S
C561 C563 1.387 . S
H562 C569 0.950 . S
C563 C561 1.387 . S
C563 C565 1.390 . S
C563 H567 0.950 . S
H564 C560 0.950 . S
C565 C563 1.390 . S
C565 C566 1.387 . S
C565 H568 0.950 . S
C566 C565 1.387 . S
C566 C569 1.387 . S
H567 C563 0.950 . S
H568 C565 0.950 . S
C569 C560 1.390 . S
C569 H562 0.950 . S
C569 C566 1.387 . S
C570 C571 1.387 . S
C570 H574 0.950 . S
C570 C579 1.390 . S
C571 C570 1.387 . S
C571 C573 1.387 . S
H572 C579 0.950 . S
C573 C571 1.387 . S
C573 C575 1.390 . S
C573 H577 0.950 . S
H574 C570 0.950 . S
C575 C573 1.390 . S
C575 C576 1.387 . S
C575 H578 0.950 . S
C576 C575 1.387 . S
C576 C579 1.387 . S
H577 C573 0.950 . S
H578 C575 0.950 . S
C579 C570 1.390 . S
C579 H572 0.950 . S
C579 C576 1.387 . S
C580 C581 1.387 . S
C580 H584 0.950 . S
C580 C589 1.390 . S
C581 C580 1.387 . S
C581 C583 1.387 . S
H582 C589 0.950 . S
C583 C581 1.387 . S
C583 C585 1.390 . S
C583 H587 0.950 . S
H584 C580 0.950 . S
C585 C583 1.390 . S
C585 C586 1.387 . S
C585 H588 0.950 . S
C586 C585 1.387 . S
C586 C589 1.387 . S
H587 C583 0.950 . S
H588 C585 0.950 . S
C589 C580 1.390 . S
C589 H582 0.950 . S
C589 C586 1.387 . S
C590 C591 1.387 . S
C590 H594 0.950 . S
C590 C599 1.390 . S
C591 C590 1.387 . S
C591 C593 1.387 . S
H592 C599 0.950 . S
C593 C591 1.387 . S
C593 C595 1.390 . S
C593 H597 0.950 . S
H594 C590 0.950 . S
C595 C593 1.390 . S
C595 C596 1.387 . S
C595 H598 0.950 . S
C596 C595 1.387 . S
C596 C599 1.387 . S
H597 C593 0.950 . S
H598 C595 0.950 . S
C599 C590 1.390 . S
C599 H592 0.950 . S
C599 C596 1.387 . S
C600 C601 1.387 . S
C600 H604 0.950 . S
C600 C609 1.390 . S
C601 C600 1.387 . S
C601 C603 1.387 . S
H602 C609 0.950 . S
C603 C601 1.387 . S
C603 C605 1.390 . S
C603 H607 0.950 . S
H604 C600 0.950 . S
C605 C603 1.390 . S
C605 C606 1.387 . S
C605 H608 0.950 . S
C606 C605 1.387 . S
C606 C609 1.387 . S
H607 C603 0.950 . S
H608 C605 0.950 . S
C609 C600 1.390 . S
C609 H602 0.950 . S
C609 C606 1.387 . S
C610 C611 1.387 . S
C610 H614 0.950 . S
C610 C619 1.390 . S
C611 C610 1.387 . S
C611 C613 1.387 . S
H612 C619 0.950 . S
C613 C611 1.387 . S
C613 C615 1.390 . S
C613 H617 0.950 . S
H614 C610 0.950 . S
C615 C613 1.390 . S
C615 C616 1.387 . S
C615 H618 0.950 . S
C616 C615 1.387 . S
C616 C619 1.387 . S
H617 C613 0.950 . S
H618 C615 0.950 . S
C619 C610 1.390 . S
C619 H612 0.950 . S
C619 C616 1.387 . S
C620 C621 1.387 . S
C620 H624 0.950 . S
C620 C629 1.390 . S
C621 C620 1.387 . S
C621 C623 1.387 . S
H622 C629 0.950 . S
C623 C621 1.387 . S
C623 C625 1.390 . S
C623 H627 0.950 . S
H624 C620 0.950 . S
C625 C623 1.390 . S
C625 C626 1.387 . S
C625 H628 0.950 . S
C626 C625 1.387 . S
C626 C629 1.387 . S
H627 C623 0.950 . S
H628 C625 0.950 . S
C629 C620 1.390 . S
C629 H622 0.950 . S
C629 C626 1.387 . S
C630 C631 1.387 . S
C630 H634 0.950 . S
C630 C639 1.390 . S
C631 C630 1.387 . S
C631 C633 1.387 . S
H632 C639 0.950 . S
C633 C631 1.387 . S
C633 C635 1.390 . S
C633 H637 0.950 . S
H634 C630 0.950 . S
C635 C633 1.390 . S
C635 C636 1.387 . S
C635 H638 0.950 . S
C636 C635 1.387 . S
C636 C639 1.387 . S
H637 C633 0.950 . S
H638 C635 0.950 . S
C639 C630 1.390 . S
C639 H632 0.950 . S
C639 C636 1.387 . S
C640 C641 1.387 . S
C640 H644 0.950 . S
C640 C649 1.390 . S
C641 C640 1.387 . S
C641 C643 1.387 . S
H642 C649 0.950 . S
C643 C641 1.387 . S
C643 C645 1.390 . S
C643 H647 0.950 . S
H644 C640 0.950 . S
C645 C643 1.390 . S
C645 C646 1.387 . S
C645 H648 0.950 . S
C646 C645 1.387 . S
C646 C649 1.387 . S
H647 C643 0.950 . S
H648 C645 0.950 . S
C649 C640 1.390 . S
C649 H642 0.950 . S
C649 C646 1.387 . S
C650 C651 1.387 . S
C650 H654 0.950 . S
C650 C659 1.390 . S
C651 C650 1.387 . S
C651 C653 1.387 . S
H652 C659 0.950 . S
C653 C651 1.387 . S
C653 C655 1.390 . S
C653 H657 0.950 . S
H654 C650 0.950 . S
C655 C653 1.390 . S
C655 C656 1.387 . S
C655 H658 0.950 . S
C656 C655 1.387 . S
C656 C659 1.387 . S
H657 C653 0.950 . S
H658 C655 0.950 . S
C659 C650 1.390 . S
C659 H652 0.950 . S
C659 C656 1.387 . S
C660 C661 1.387 . S
C660 H664 0.950 . S
C660 C669 1.390 . S
C661 C660 1.387 . S
C661 C663 1.387 . S
H662 C669 0.950 . S
C663 C661 1.387 . S
C663 C665 1.390 . S
C663 H667 0.950 . S
H664 C660 0.950 . S
C665 C663 1.390 . S
C665 C666 1.387 . S
C665 H668 0.950 . S
C666 C665 1.387 . S
C666 C669 1.387 . S
H667 C663 0.950 . S
H668 C665 0.950 . S
C669 C660 1.390 . S
C669 H662 0.950 . S
C669 C666 1.387 . S
C670 C671 1.387 . S
C670 H674 0.950 . S
C670 C679 1.390 . S
C671 C670 1.387 . S
C671 C673 1.387 . S
H672 C679 0.950 . S
C673 C671 1.387 . S
C673 C675 1.390 . S
C673 H677 0.950 . S
H674 C670 0.950 . S
C675 C673 1.390 . S
C675 C676 1.387 . S
C675 H678 0.950 . S
C676 C675 1.387 . S
C676 C679 1.387 . S
H677 C673 0.950 . S
H678 C675 0.950 . S
C679 C670 1.390 . S
C679 H672 0.950 . S
C679 C676 1.387 . S
C680 C681 1.387 . S
C680 H684 0.950 . S
C680 C689 1.390 . S
C681 C680 1.387 . S
C681 C683 1.387 . S
H682 C689 0.950 . S
C683 C681 1.387 . S
C683 C685 1.390 . S
C683 H687 0.950 . S
H684 C680 0.950 . S
C685 C683 1.390 . S
C685 C686 1.387 . S
C685 H688 0.950 . S
C686 C685 1.387 . S
C686 C689 1.387 . S
H687 C683 0.950 . S
H688 C685 0.950 . S
C689 C680 1.390 . S
C689 H682 0.950 . S
C689 C686 1.387 . S
C690 C691 1.387 . S
C690 H694 0.950 . S
C690 C699 1.390 . S
C691 C690 1.387 . S
C691 C693 1.387 . S
H692 C699 0.950 . S
C693 C691 1.387 . S
C693 C695 1.390 . S
C693 H697 0.950 . S
H694 C690 0.950 . S
C695 C693 1.390 . S
C695 C696 1.387 . S
C695 H698 0.950 . S
C696 C695 1.387 . S
C696 C699 1.387 . S
H697 C693 0.950 . S
H698 C695 0.950 . S
C699 C690 1.390 . S
C699 H692 0.950 . S
C699 C696 1.387 . S
C700 C701 1.387 . S
C700 H704 0.950 . S
C700 C709 1.390 . S
C701 C700 1.387 . S
C701 C703 1.387 . S
H702 C709 0.950 . S
C703 C701 1.387 . S
C703 C705 1.390 . S
C703 H707 0.950 . S
H704 C700 0.950 . S
C705 C703 1.390 . S
C705 C706 1.387 . S
C705 H708 0.950 . S
C706 C705 1.387 . S
C706 C709 1.387 . S
H707 C703 0.950 . S
H708 C705 0.950 . S
C709 C700 1.390 . S
C709 H702 0.950 . S
C709 C706 1.387 . S
C710 C711 1.387 . S
C710 H714 0.950 . S
C710 C719 1.390 . S
C711 C710 1.387 . S
C711 C713 1.387 . S
H712 C719 0.950 . S
C713 C711 1.387 . S
C713 C715 1.390 . S
C713 H717 0.950 . S
H714 C710 0.950 . S
C715 C713 1.390 . S
C715 C716 1.387 . S
C715 H718 0.950 . S
C716 C715 1.387 . S
C716 C719 1.387 . S
H717 C713 0.950 . S
H718 C715 0.950 . S
C719 C710 1.390 . S
C719 H712 0.950 . S
C719 C716 1.387 . S
C720 C721 1.387 . S
C720 H724 0.950 . S
C720 C729 1.390 . S
C721 C720 1.387 . S
C721 C723 1.387 . S
H722 C729 0.950 . S
C723 C721 1.387 . S
C723 C725 1.390 . S
C723 H727 0.950 . S
H724 C720 0.950 . S
C725 C723 1.390 . S
C725 C726 1.387 . S
C725 H728 0.950 . S
C726 C725 1.387 . S
C726 C729 1.387 . S
H727 C723 0.950 . S
H728 C725 0.950 . S
C729 C720 1.390 . S
C729 H722 0.950 . S
C729 C726 1.387 . S
C730 C731 1.387 . S
C730 H734 0.950 . S
C730 C739 1.390 . S
C731 C730 1.387 . S
C731 C733 1.387 . S
H732 C739 0.950 . S
C733 C731 1.387 . S
C733 C735 1.390 . S
C733 H737 0.950 . S
H734 C730 0.950 . S
C735 C733 1.390 . S
C735 C736 1.387 . S
C735 H738 0.950 . S
C736 C735 1.387 . S
C736 C739 1.387 . S
H737 C733 0.950 . S
H738 C735 0.950 . S
C739 C730 1.390 . S
C739 H732 0.950 . S
C739 C736 1.387 . S
C740 C741 1.387 . S
C740 H744 0.950 . S
C740 C749 1.390 . S
C741 C740 1.387 . S
C741 C743 1.387 . S
H742 C749 0.950 . S
C743 C741 1.387 . S
C743 C745 1.390 . S
C743 H747 0.950 . S
H744 C740 0.950 . S
C745 C743 1.390 . S
C745 C746 1.387 . S
C745 H748 0.950 . S
C746 C745 1.387 . S
C746 C749 1.387 . S
H747 C743 0.950 . S
H748 C745 0.950 . S
C749 C740 1.390 . S
C749 H742 0.950 . S
C749 C746 1.387 . S
C750 C751 1.387 . S
C750 H754 0.950 . S
C750 C759 1.390 . S
C751 C750 1.387 . S
C751 C753 1.387 . S
H752 C759 0.950 . S
C753 C751 1.387 . S
C753 C755 1.390 . S
C753 H757 0.950 . S
H754 C750 0.950 . S
C755 C753 1.390 . S
C755 C756 1.387 . S
C755 H758 0.950 . S
C756 C755 1.387 . S
C756 C759 1.387 . S
H757 C753 0.950 . S
H758 C755 0.950 . S
C759 C750 1.390 . S
C759 H752 0.950 . S
C759 C756 1.387 . S
C760 C761 1.387 . S
C760 H764 0.950 . S
C760 C769 1.390 . S
C761 C760 1.387 . S
C761 C763 1.387 . S
H762 C769 0.950 . S
C763 C761 1.387 . S
C763 C765 1.390 . S
C763 H767 0.950 . S
H764 C760 0.950 . S
C765 C763 1.390 . S
C765 C766 1.387 . S
C765 H768 0.950 . S
C766 C765 1.387 . S
C766 C769 1.387 . S
H767 C763 0.950 . S
H768 C765 0.950 . S
C769 C760 1.390 . S
C769 H762 0.950 . S
C769 C766 1.387 . S
C770 C771 1.387 . S
C770 H774 0.950 . S
C770 C779 1.390 . S
C771 C770 1.387 . S
C771 C773 1.387 . S
H772 C779 0.950 . S
C773 C771 1.387 . S
C773 C775 1.390 . S
C773 H777 0.950 . S
H774 C770 0.950 . S
C775 C773 1.390 . S
C775 C776 1.387 . S
C775 H778 0.950 . S
C776 C775 1.387 . S
C776 C779 1.387 . S
H777 C773 0.950 . S
H778 C775 0.950 . S
C779 C770 1.390 . S
C779 H772 0.950 . S
C779 C776 1.387 . S
C780 C781 1.387 . S
C780 H784 0.950 . S
C780 C789 1.390 . S
C781 C780 1.387 . S
C781 C783 1.387 . S
H782 C789 0.950 . S
C783 C781 1.387 . S
C783 C785 1.390 . S
C783 H787 0.950 . S
H784 C780 0.950 . S
C785 C783 1.390 . S
C785 C786 1.387 . S
C785 H788 0.950 . S
C786 C785 1.387 . S
C786 C789 1.387 . S
H787 C783 0.950 . S
H788 C785 0.950 . S
C789 C780 1.390 . S
C789 H782 0.950 . S
C789 C786 1.387 . S
C790 C791 1.387 . S
C790 H794 0.950 . S
C790 C799 1.390 . S
C791 C790 1.387 . S
C791 C793 1.387 . S
H792 C799 0.950 . S
C793 C791 1.387 . S
C793 C795 1.390 . S
C793 H797 0.950 . S
H794 C790 0.950 . S
C795 C793 1.390 . S
C795 C796 1.387 . S
C795 H798 0.950 . S
C796 C795 1.387 . S
C796 C799 1.387 . S
H797 C793 0.950 . S
H798 C795 0.950 . S
C799 C790 1.390 . S
C799 H792 0.950 . S
C799 C796 1.387 . S
C321 C79 1.470 . S
C326 C9 1.478 . S
C331 C18 1.380 . S
C336 C21 1.409 . S
C341 C48 1.110 . S
C346 C29 1.127 . S
C351 C62 1.188 . S
C356 C42 1.230 . S
C361 C82 1.778 . S
C366 C118 1.767 . S
C371 C109 1.116 . S
C376 C129 1.113 . S
C381 C121 1.967 . S
C386 C158 1.938 . S
C391 C99 1.511 . S
C396 C149 1.515 . S
C401 C181 1.347 . S
C406 C1 1.347 . S
C411 C218 1.493 . S
C416 C38 1.509 . S
C421 C59 1.732 . S
C426 C261 1.742 . S
C431 C168 0.982 . S
C436 C68 0.998 . S
C441 C228 1.044 . S
C446 C88 1.037 . S
C451 C299 1.675 . S
C456 C101 1.696 . S
C461 C138 1.317 . S
C466 C258 1.306 . S
C471 C319 1.686 . S
C476 C141 1.682 . S
C481 C179 1.464 . S
C486 C269 1.471 . S
C491 C198 1.610 . S
C496 C162 1.642 . S
C501 C209 0.965 . S
C506 C189 0.963 . S
C511 C288 1.517 . S
C516 C239 1.501 . S
C521 C249 0.919 . S
C526 C308 0.923 . S
C531 C238 1.470 . S
C536 C8 1.479 . S
C541 C242 1.410 . S
C546 C19 1.380 . S
C551 C248 1.126 . S
C556 C49 1.109 . S
C561 C41 1.235 . S
C566 C221 1.190 . S
C571 C199 1.765 . S
C576 C81 1.775 . S
C581 C188 1.115 . S
C586 C128 1.109 . S
C591 C279 1.939 . S
C596 C122 1.972 . S
C601 C98 1.511 . S
C606 C268 1.519 . S
C611 C102 1.348 . S
C616 C2 1.350 . S
C621 C219 1.495 . S
C626 C259 1.512 . S
C631 C58 1.732 . S
C636 C142 1.738 . S
C641 C169 0.983 . S
C646 C229 0.995 . S
C651 C69 1.042 . S
C656 C89 1.035 . S
C661 C182 1.695 . S
C666 C298 1.677 . S
C671 C139 1.316 . S
C676 C39 1.302 . S
C681 C318 1.686 . S
C686 C262 1.687 . S
C691 C178 1.465 . S
C696 C148 1.468 . S
C701 C161 1.643 . S
C706 C119 1.612 . S
C711 C208 0.965 . S
C716 C108 0.964 . S
C721 C78 1.501 . S
C726 C289 1.516 . S
C731 C28 0.916 . S
C736 C309 0.922 . S
C741 C241 1.104 . S
C746 C282 1.097 . S
C751 C222 1.222 . S
C756 C302 1.270 . S
C761 C201 1.925 . S
C766 C278 1.905 . S
C771 C281 1.097 . S
C776 C22 1.104 . S
C781 C61 1.223 . S
C786 C301 1.270 . S
C791 C159 1.902 . S
C796 C202 1.924 . S
