# Generated by pormake.
# Topology wga, (5)-cn, num edge types: 1
# Building blocks:
#     Node 0, Type 0, BuildingBlock: XOMCOT_clean_sbu_1, # of connection points: 5
#     Node 1, Type 0, BuildingBlock: XOMCOT_clean_sbu_1, # of connection points: 5
#     Node 2, Type 0, BuildingBlock: XOMCOT_clean_sbu_1, # of connection points: 5
#     Node 3, Type 0, BuildingBlock: XOMCOT_clean_sbu_1, # of connection points: 5
#     Node 4, Type 0, BuildingBlock: XOMCOT_clean_sbu_1, # of connection points: 5
#     Node 5, Type 0, BuildingBlock: XOMCOT_clean_sbu_1, # of connection points: 5
#     Node 6, Type 0, BuildingBlock: XOMCOT_clean_sbu_1, # of connection points: 5
#     Node 7, Type 0, BuildingBlock: XOMCOT_clean_sbu_1, # of connection points: 5
#     Node 8, Type 0, BuildingBlock: XOMCOT_clean_sbu_1, # of connection points: 5
#     Node 9, Type 0, BuildingBlock: XOMCOT_clean_sbu_1, # of connection points: 5
#     Node 10, Type 0, BuildingBlock: XOMCOT_clean_sbu_1, # of connection points: 5
#     Node 11, Type 0, BuildingBlock: XOMCOT_clean_sbu_1, # of connection points: 5
#     Node 12, Type 0, BuildingBlock: XOMCOT_clean_sbu_1, # of connection points: 5
#     Node 13, Type 0, BuildingBlock: XOMCOT_clean_sbu_1, # of connection points: 5
#     Node 14, Type 0, BuildingBlock: XOMCOT_clean_sbu_1, # of connection points: 5
#     Node 15, Type 0, BuildingBlock: XOMCOT_clean_sbu_1, # of connection points: 5
#     Node 16, Type 0, BuildingBlock: XOMCOT_clean_sbu_1, # of connection points: 5
#     Node 17, Type 0, BuildingBlock: XOMCOT_clean_sbu_1, # of connection points: 5
#     Node 18, Type 0, BuildingBlock: XOMCOT_clean_sbu_1, # of connection points: 5
#     Node 19, Type 0, BuildingBlock: XOMCOT_clean_sbu_1, # of connection points: 5
#     Node 20, Type 0, BuildingBlock: XOMCOT_clean_sbu_1, # of connection points: 5
#     Node 21, Type 0, BuildingBlock: XOMCOT_clean_sbu_1, # of connection points: 5
#     Node 22, Type 0, BuildingBlock: XOMCOT_clean_sbu_1, # of connection points: 5
#     Node 23, Type 0, BuildingBlock: XOMCOT_clean_sbu_1, # of connection points: 5
#     Node 24, Type 0, BuildingBlock: XOMCOT_clean_sbu_1, # of connection points: 5
#     Node 25, Type 0, BuildingBlock: XOMCOT_clean_sbu_1, # of connection points: 5
#     Node 26, Type 0, BuildingBlock: XOMCOT_clean_sbu_1, # of connection points: 5
#     Node 27, Type 0, BuildingBlock: XOMCOT_clean_sbu_1, # of connection points: 5
#     Node 28, Type 0, BuildingBlock: XOMCOT_clean_sbu_1, # of connection points: 5
#     Node 29, Type 0, BuildingBlock: XOMCOT_clean_sbu_1, # of connection points: 5
#     Node 30, Type 0, BuildingBlock: XOMCOT_clean_sbu_1, # of connection points: 5
#     Node 31, Type 0, BuildingBlock: XOMCOT_clean_sbu_1, # of connection points: 5
#     Edge 32, Type (0, 0), BuildingBlock: AJUNOK_clean_linker_0, # of connection points: 2
#     Edge 33, Type (0, 0), BuildingBlock: AJUNOK_clean_linker_0, # of connection points: 2
#     Edge 34, Type (0, 0), BuildingBlock: AJUNOK_clean_linker_0, # of connection points: 2
#     Edge 35, Type (0, 0), BuildingBlock: AJUNOK_clean_linker_0, # of connection points: 2
#     Edge 36, Type (0, 0), BuildingBlock: AJUNOK_clean_linker_0, # of connection points: 2
#     Edge 37, Type (0, 0), BuildingBlock: AJUNOK_clean_linker_0, # of connection points: 2
#     Edge 38, Type (0, 0), BuildingBlock: AJUNOK_clean_linker_0, # of connection points: 2
#     Edge 39, Type (0, 0), BuildingBlock: AJUNOK_clean_linker_0, # of connection points: 2
#     Edge 40, Type (0, 0), BuildingBlock: AJUNOK_clean_linker_0, # of connection points: 2
#     Edge 41, Type (0, 0), BuildingBlock: AJUNOK_clean_linker_0, # of connection points: 2
#     Edge 42, Type (0, 0), BuildingBlock: AJUNOK_clean_linker_0, # of connection points: 2
#     Edge 43, Type (0, 0), BuildingBlock: AJUNOK_clean_linker_0, # of connection points: 2
#     Edge 44, Type (0, 0), BuildingBlock: AJUNOK_clean_linker_0, # of connection points: 2
#     Edge 45, Type (0, 0), BuildingBlock: AJUNOK_clean_linker_0, # of connection points: 2
#     Edge 46, Type (0, 0), BuildingBlock: AJUNOK_clean_linker_0, # of connection points: 2
#     Edge 47, Type (0, 0), BuildingBlock: AJUNOK_clean_linker_0, # of connection points: 2
#     Edge 48, Type (0, 0), BuildingBlock: AJUNOK_clean_linker_0, # of connection points: 2
#     Edge 49, Type (0, 0), BuildingBlock: AJUNOK_clean_linker_0, # of connection points: 2
#     Edge 50, Type (0, 0), BuildingBlock: AJUNOK_clean_linker_0, # of connection points: 2
#     Edge 51, Type (0, 0), BuildingBlock: AJUNOK_clean_linker_0, # of connection points: 2
#     Edge 52, Type (0, 0), BuildingBlock: AJUNOK_clean_linker_0, # of connection points: 2
#     Edge 53, Type (0, 0), BuildingBlock: AJUNOK_clean_linker_0, # of connection points: 2
#     Edge 54, Type (0, 0), BuildingBlock: AJUNOK_clean_linker_0, # of connection points: 2
#     Edge 55, Type (0, 0), BuildingBlock: AJUNOK_clean_linker_0, # of connection points: 2
#     Edge 56, Type (0, 0), BuildingBlock: AJUNOK_clean_linker_0, # of connection points: 2
#     Edge 57, Type (0, 0), BuildingBlock: AJUNOK_clean_linker_0, # of connection points: 2
#     Edge 58, Type (0, 0), BuildingBlock: AJUNOK_clean_linker_0, # of connection points: 2
#     Edge 59, Type (0, 0), BuildingBlock: AJUNOK_clean_linker_0, # of connection points: 2
#     Edge 60, Type (0, 0), BuildingBlock: AJUNOK_clean_linker_0, # of connection points: 2
#     Edge 61, Type (0, 0), BuildingBlock: AJUNOK_clean_linker_0, # of connection points: 2
#     Edge 62, Type (0, 0), BuildingBlock: AJUNOK_clean_linker_0, # of connection points: 2
#     Edge 63, Type (0, 0), BuildingBlock: AJUNOK_clean_linker_0, # of connection points: 2
#     Edge 64, Type (0, 0), BuildingBlock: AJUNOK_clean_linker_0, # of connection points: 2
#     Edge 65, Type (0, 0), BuildingBlock: AJUNOK_clean_linker_0, # of connection points: 2
#     Edge 66, Type (0, 0), BuildingBlock: AJUNOK_clean_linker_0, # of connection points: 2
#     Edge 67, Type (0, 0), BuildingBlock: AJUNOK_clean_linker_0, # of connection points: 2
#     Edge 68, Type (0, 0), BuildingBlock: AJUNOK_clean_linker_0, # of connection points: 2
#     Edge 69, Type (0, 0), BuildingBlock: AJUNOK_clean_linker_0, # of connection points: 2
#     Edge 70, Type (0, 0), BuildingBlock: AJUNOK_clean_linker_0, # of connection points: 2
#     Edge 71, Type (0, 0), BuildingBlock: AJUNOK_clean_linker_0, # of connection points: 2
#     Edge 72, Type (0, 0), BuildingBlock: AJUNOK_clean_linker_0, # of connection points: 2
#     Edge 73, Type (0, 0), BuildingBlock: AJUNOK_clean_linker_0, # of connection points: 2
#     Edge 74, Type (0, 0), BuildingBlock: AJUNOK_clean_linker_0, # of connection points: 2
#     Edge 75, Type (0, 0), BuildingBlock: AJUNOK_clean_linker_0, # of connection points: 2
#     Edge 76, Type (0, 0), BuildingBlock: AJUNOK_clean_linker_0, # of connection points: 2
#     Edge 77, Type (0, 0), BuildingBlock: AJUNOK_clean_linker_0, # of connection points: 2
#     Edge 78, Type (0, 0), BuildingBlock: AJUNOK_clean_linker_0, # of connection points: 2
#     Edge 79, Type (0, 0), BuildingBlock: AJUNOK_clean_linker_0, # of connection points: 2
#     Edge 80, Type (0, 0), BuildingBlock: AJUNOK_clean_linker_0, # of connection points: 2
#     Edge 81, Type (0, 0), BuildingBlock: AJUNOK_clean_linker_0, # of connection points: 2
#     Edge 82, Type (0, 0), BuildingBlock: AJUNOK_clean_linker_0, # of connection points: 2
#     Edge 83, Type (0, 0), BuildingBlock: AJUNOK_clean_linker_0, # of connection points: 2
#     Edge 84, Type (0, 0), BuildingBlock: AJUNOK_clean_linker_0, # of connection points: 2
#     Edge 85, Type (0, 0), BuildingBlock: AJUNOK_clean_linker_0, # of connection points: 2
#     Edge 86, Type (0, 0), BuildingBlock: AJUNOK_clean_linker_0, # of connection points: 2
#     Edge 87, Type (0, 0), BuildingBlock: AJUNOK_clean_linker_0, # of connection points: 2
#     Edge 88, Type (0, 0), BuildingBlock: AJUNOK_clean_linker_0, # of connection points: 2
#     Edge 89, Type (0, 0), BuildingBlock: AJUNOK_clean_linker_0, # of connection points: 2
#     Edge 90, Type (0, 0), BuildingBlock: AJUNOK_clean_linker_0, # of connection points: 2
#     Edge 91, Type (0, 0), BuildingBlock: AJUNOK_clean_linker_0, # of connection points: 2
#     Edge 92, Type (0, 0), BuildingBlock: AJUNOK_clean_linker_0, # of connection points: 2
#     Edge 93, Type (0, 0), BuildingBlock: AJUNOK_clean_linker_0, # of connection points: 2
#     Edge 94, Type (0, 0), BuildingBlock: AJUNOK_clean_linker_0, # of connection points: 2
#     Edge 95, Type (0, 0), BuildingBlock: AJUNOK_clean_linker_0, # of connection points: 2
#     Edge 96, Type (0, 0), BuildingBlock: AJUNOK_clean_linker_0, # of connection points: 2
#     Edge 97, Type (0, 0), BuildingBlock: AJUNOK_clean_linker_0, # of connection points: 2
#     Edge 98, Type (0, 0), BuildingBlock: AJUNOK_clean_linker_0, # of connection points: 2
#     Edge 99, Type (0, 0), BuildingBlock: AJUNOK_clean_linker_0, # of connection points: 2
#     Edge 100, Type (0, 0), BuildingBlock: AJUNOK_clean_linker_0, # of connection points: 2
#     Edge 101, Type (0, 0), BuildingBlock: AJUNOK_clean_linker_0, # of connection points: 2
#     Edge 102, Type (0, 0), BuildingBlock: AJUNOK_clean_linker_0, # of connection points: 2
#     Edge 103, Type (0, 0), BuildingBlock: AJUNOK_clean_linker_0, # of connection points: 2
#     Edge 104, Type (0, 0), BuildingBlock: AJUNOK_clean_linker_0, # of connection points: 2
#     Edge 105, Type (0, 0), BuildingBlock: AJUNOK_clean_linker_0, # of connection points: 2
#     Edge 106, Type (0, 0), BuildingBlock: AJUNOK_clean_linker_0, # of connection points: 2
#     Edge 107, Type (0, 0), BuildingBlock: AJUNOK_clean_linker_0, # of connection points: 2
#     Edge 108, Type (0, 0), BuildingBlock: AJUNOK_clean_linker_0, # of connection points: 2
#     Edge 109, Type (0, 0), BuildingBlock: AJUNOK_clean_linker_0, # of connection points: 2
#     Edge 110, Type (0, 0), BuildingBlock: AJUNOK_clean_linker_0, # of connection points: 2
#     Edge 111, Type (0, 0), BuildingBlock: AJUNOK_clean_linker_0, # of connection points: 2
# Relax obj value: 0.096
# Max RMSD: 0.106
# Mean RMSD: 0.106
data_MOF--net-wga--node1-XOMCOT_clean_sbu_1--edge1-AJUNOK_clean_linker_0
_symmetry_space_group_name_H-M    P1
_symmetry_Int_Tables_number       1
_symmetry_cell_setting            triclinic
loop_
_symmetry_equiv_pos_as_xyz
'x, y, z'
_cell_length_a     82.77913
_cell_length_b     82.667479
_cell_length_c     13.748638
_cell_angle_alpha  89.999097
_cell_angle_beta   90.040917
_cell_angle_gamma 89.981205
loop_
_atom_site_label
_atom_site_type_symbol
_atom_site_fract_x
_atom_site_fract_y
_atom_site_fract_z
_atom_type_partial_charge
C0 C 0.07825 0.58058 0.96938 0.0
C1 C 0.07787 0.58104 0.86917 0.0
N2 N 0.08898 0.5706 0.83479 0.0
N3 N 0.08938 0.56971 0.99877 0.0
C4 C 0.09583 0.56392 0.91496 0.0
H5 H 0.07077 0.58765 1.01786 0.0
Co6 Co 0.09394 0.56433 0.12918 0.0
C7 C 0.09609 0.52857 0.12832 0.0
O8 O 0.08782 0.52854 0.20993 0.0
N9 N 0.09906 0.55912 0.26259 0.0
C10 C 0.11366 0.54997 0.3879 0.0
C11 C 0.11226 0.55047 0.28831 0.0
C12 C 0.09292 0.56412 0.34951 0.0
N13 N 0.10159 0.55874 0.42694 0.0
O14 O 0.11601 0.57145 0.10961 0.0
H15 H 0.12059 0.54501 0.23743 0.0
H16 H 0.08277 0.57219 0.35695 0.0
O17 O 0.09958 0.54209 0.08801 0.0
C18 C 0.12063 0.5838 0.15799 0.0
O19 O 0.11072 0.59026 0.22164 0.0
N20 N 0.0718 0.55889 0.14646 0.0
C21 C 0.03816 0.55573 0.16301 0.0
C22 C 0.0471 0.54518 0.10389 0.0
C23 C 0.06383 0.54718 0.09487 0.0
C24 C 0.06314 0.56983 0.19914 0.0
C25 C 0.04641 0.56832 0.20997 0.0
H26 H 0.07016 0.53972 0.04303 0.0
H27 H 0.0691 0.58036 0.22868 0.0
H28 H 0.10517 0.55478 0.91272 0.0
H29 H 0.07012 0.58859 0.82488 0.0
H30 H 0.12288 0.54353 0.42802 0.0
H31 H 0.04117 0.53566 0.06318 0.0
H32 H 0.03991 0.57738 0.25125 0.0
C33 C 0.66452 0.84664 0.2349 0.0
C34 C 0.66375 0.84684 0.1346 0.0
N35 N 0.67862 0.84388 0.09903 0.0
N36 N 0.67985 0.84376 0.2634 0.0
C37 C 0.68814 0.8421 0.17864 0.0
H38 H 0.65449 0.84851 0.28388 0.0
Co39 Co 0.68719 0.84288 0.39413 0.0
C40 C 0.71894 0.85892 0.37558 0.0
O41 O 0.71526 0.86875 0.44728 0.0
N42 N 0.69459 0.84172 0.52647 0.0
C43 C 0.71031 0.83592 0.65379 0.0
C44 C 0.70938 0.83652 0.55402 0.0
C45 C 0.68663 0.8438 0.61229 0.0
N46 N 0.69591 0.84029 0.6911 0.0
O47 O 0.68201 0.86555 0.40802 0.0
H48 H 0.7189 0.83298 0.50467 0.0
H49 H 0.67407 0.84717 0.61758 0.0
O50 O 0.70891 0.84809 0.34869 0.0
C51 C 0.66819 0.86835 0.44546 0.0
O52 O 0.65926 0.85605 0.47294 0.0
N53 N 0.69074 0.82064 0.38166 0.0
C54 C 0.69102 0.78688 0.37188 0.0
C55 C 0.70285 0.79606 0.32357 0.0
C56 C 0.70252 0.81301 0.32937 0.0
C57 C 0.67932 0.81194 0.4298 0.0
C58 C 0.67936 0.79509 0.42703 0.0
H59 H 0.71156 0.8199 0.29076 0.0
H60 H 0.67008 0.8182 0.47079 0.0
H61 H 0.70099 0.83987 0.17505 0.0
H62 H 0.65302 0.84878 0.09113 0.0
H63 H 0.72089 0.83254 0.69523 0.0
H64 H 0.7121 0.79022 0.28031 0.0
H65 H 0.67031 0.78856 0.46812 0.0
C66 C 0.41924 0.41683 0.46226 0.0
C67 C 0.41978 0.41634 0.36216 0.0
N68 N 0.41076 0.42857 0.32653 0.0
N69 N 0.40996 0.42935 0.49065 0.0
C70 C 0.4048 0.43616 0.40641 0.0
H71 H 0.42543 0.40871 0.51144 0.0
Co72 Co 0.40633 0.43531 0.62085 0.0
C73 C 0.4052 0.47115 0.61644 0.0
O74 O 0.41412 0.47116 0.69562 0.0
N75 N 0.40221 0.44113 0.75426 0.0
C76 C 0.38892 0.45135 0.88178 0.0
C77 C 0.38948 0.45029 0.782 0.0
C78 C 0.40885 0.43629 0.84016 0.0
N79 N 0.40112 0.44254 0.91851 0.0
O80 O 0.38396 0.42871 0.60706 0.0
H81 H 0.38079 0.45558 0.73251 0.0
H82 H 0.41884 0.42798 0.84649 0.0
O83 O 0.40107 0.45762 0.57842 0.0
C84 C 0.3797 0.41638 0.65696 0.0
O85 O 0.39013 0.40995 0.71772 0.0
N86 N 0.42871 0.43999 0.6325 0.0
C87 C 0.46259 0.44054 0.63407 0.0
C88 C 0.45381 0.45205 0.58098 0.0
C89 C 0.43689 0.4513 0.57888 0.0
C90 C 0.43715 0.42846 0.68198 0.0
C91 C 0.45402 0.42868 0.68543 0.0
H92 H 0.43056 0.45925 0.52974 0.0
H93 H 0.43079 0.41841 0.71438 0.0
H94 H 0.39663 0.44634 0.40397 0.0
H95 H 0.4266 0.40778 0.31901 0.0
H96 H 0.37979 0.45753 0.92419 0.0
H97 H 0.45999 0.46103 0.53729 0.0
H98 H 0.46033 0.41935 0.72568 0.0
C99 C 0.83573 0.15505 0.75208 0.0
C100 C 0.83673 0.15456 0.65204 0.0
N101 N 0.82208 0.15801 0.61467 0.0
N102 N 0.8205 0.15871 0.77893 0.0
C103 C 0.81256 0.16079 0.69317 0.0
H104 H 0.84555 0.15275 0.80199 0.0
Co105 Co 0.81296 0.15935 0.90949 0.0
C106 C 0.78045 0.14403 0.89008 0.0
O107 O 0.78282 0.13482 0.96658 0.0
N108 N 0.80554 0.16027 0.04167 0.0
C109 C 0.79048 0.16655 0.17102 0.0
C110 C 0.79115 0.16626 0.07094 0.0
C111 C 0.8135 0.15733 0.12655 0.0
N112 N 0.80455 0.1609 0.20658 0.0
O113 O 0.81815 0.13664 0.92196 0.0
H114 H 0.78182 0.17063 0.02252 0.0
H115 H 0.82592 0.15347 0.13019 0.0
O116 O 0.79133 0.15401 0.86307 0.0
C117 C 0.832 0.13341 0.95789 0.0
O118 O 0.84118 0.1454 0.9873 0.0
N119 N 0.80915 0.18158 0.89773 0.0
C120 C 0.80742 0.21526 0.89039 0.0
C121 C 0.79599 0.20573 0.84137 0.0
C122 C 0.79701 0.18884 0.84628 0.0
C123 C 0.82036 0.19067 0.94534 0.0
C124 C 0.81965 0.20753 0.94344 0.0
H125 H 0.7881 0.18172 0.80816 0.0
H126 H 0.82996 0.18471 0.98509 0.0
H127 H 0.80001 0.16415 0.68801 0.0
H128 H 0.8475 0.152 0.61014 0.0
H129 H 0.78041 0.1708 0.21425 0.0
H130 H 0.78631 0.2113 0.80025 0.0
H131 H 0.82874 0.21448 0.98175 0.0
C132 C 0.08651 0.41091 0.05232 0.0
C133 C 0.08684 0.40949 0.15238 0.0
N134 N 0.08822 0.4244 0.19117 0.0
N135 N 0.08769 0.42663 0.02723 0.0
C136 C 0.08863 0.43454 0.11374 0.0
H137 H 0.08546 0.40107 1.0009 0.0
Co138 Co 0.0883 0.43419 0.89703 0.0
C139 C 0.10434 0.46623 0.93304 0.0
O140 O 0.11649 0.46283 0.87514 0.0
N141 N 0.08874 0.44156 0.7648 0.0
C142 C 0.08597 0.45716 0.63343 0.0
C143 C 0.08595 0.45679 0.73346 0.0
C144 C 0.08996 0.43283 0.68112 0.0
N145 N 0.08848 0.44206 0.59965 0.0
O146 O 0.11102 0.42884 0.89235 0.0
H147 H 0.08339 0.46702 0.77986 0.0
H148 H 0.09098 0.41983 0.67994 0.0
O149 O 0.09303 0.45591 0.9447 0.0
C150 C 0.11433 0.41497 0.85684 0.0
O151 O 0.10247 0.40591 0.82438 0.0
N152 N 0.06598 0.43817 0.90105 0.0
C153 C 0.03232 0.44103 0.89589 0.0
C154 C 0.04167 0.45144 0.95378 0.0
C155 C 0.05851 0.44979 0.9556 0.0
C156 C 0.05708 0.42773 0.84619 0.0
C157 C 0.04025 0.42897 0.84233 0.0
H158 H 0.06543 0.45775 1.00168 0.0
H159 H 0.06312 0.41832 0.80544 0.0
H160 H 0.08983 0.44747 0.12053 0.0
H161 H 0.08582 0.39836 0.19334 0.0
H162 H 0.08402 0.46779 0.58908 0.0
H163 H 0.03602 0.46081 0.99704 0.0
H164 H 0.03351 0.42035 0.79908 0.0
C165 C 0.83711 0.84425 0.3357 0.0
C166 C 0.8381 0.84491 0.43573 0.0
N167 N 0.82311 0.84342 0.4727 0.0
N168 N 0.82156 0.84246 0.3086 0.0
C169 C 0.81335 0.84172 0.39412 0.0
H170 H 0.84717 0.84512 0.28593 0.0
Co171 Co 0.81412 0.84216 0.17804 0.0
C172 C 0.78256 0.85884 0.19664 0.0
O173 O 0.78581 0.8681 0.12159 0.0
N174 N 0.80672 0.84162 0.04572 0.0
C175 C 0.79132 0.83641 0.91615 0.0
C176 C 0.79205 0.83643 1.01616 0.0
C177 C 0.81481 0.84429 0.96105 0.0
N178 N 0.80566 0.84136 0.88079 0.0
O179 O 0.82014 0.86468 0.16603 0.0
H180 H 0.78251 0.83247 0.0643 0.0
H181 H 0.82741 0.84749 0.95786 0.0
O182 O 0.79265 0.8481 0.2241 0.0
C183 C 0.83426 0.86689 0.13121 0.0
O184 O 0.84274 0.85423 0.1044 0.0
N185 N 0.80966 0.82005 0.18871 0.0
C186 C 0.80734 0.78632 0.19194 0.0
C187 C 0.79614 0.79594 0.24267 0.0
C188 C 0.79749 0.81287 0.24003 0.0
C189 C 0.82065 0.81093 0.13973 0.0
C190 C 0.81966 0.7941 0.13978 0.0
H191 H 0.7889 0.82008 0.28021 0.0
H192 H 0.83027 0.81683 0.10012 0.0
H193 H 0.80042 0.84012 0.39907 0.0
H194 H 0.84907 0.84615 0.47795 0.0
H195 H 0.781 0.83281 0.87287 0.0
H196 H 0.78665 0.79047 0.28564 0.0
H197 H 0.82851 0.78722 0.09904 0.0
C198 C 0.4113 0.58925 0.5456 0.0
C199 C 0.41078 0.59054 0.64565 0.0
N200 N 0.41075 0.57554 0.68395 0.0
N201 N 0.41154 0.57352 0.51993 0.0
C202 C 0.41134 0.56547 0.60619 0.0
H203 H 0.41143 0.59921 0.49465 0.0
Co204 Co 0.41135 0.56599 0.38952 0.0
C205 C 0.39576 0.53363 0.42368 0.0
O206 O 0.3837 0.53679 0.36448 0.0
N207 N 0.41133 0.5586 0.25736 0.0
C208 C 0.41489 0.54303 0.12656 0.0
C209 C 0.41487 0.5435 0.22662 0.0
C210 C 0.40966 0.56717 0.17334 0.0
N211 N 0.4116 0.55794 0.09232 0.0
O212 O 0.38857 0.57111 0.38254 0.0
H213 H 0.41787 0.53345 0.27358 0.0
H214 H 0.40793 0.58009 0.17138 0.0
O215 O 0.4068 0.54419 0.43669 0.0
C216 C 0.38544 0.58505 0.34729 0.0
O217 O 0.39744 0.59405 0.31637 0.0
N218 N 0.43371 0.56239 0.39542 0.0
C219 C 0.46743 0.5604 0.39098 0.0
C220 C 0.45826 0.549 0.44272 0.0
C221 C 0.44138 0.55021 0.44429 0.0
C222 C 0.44241 0.57375 0.34656 0.0
C223 C 0.45926 0.57301 0.34338 0.0
H224 H 0.43462 0.5414 0.48523 0.0
H225 H 0.43617 0.58351 0.3099 0.0
H226 H 0.41136 0.55247 0.61249 0.0
H227 H 0.41072 0.60168 0.68695 0.0
H228 H 0.41738 0.53247 0.08246 0.0
H229 H 0.46408 0.53915 0.48113 0.0
H230 H 0.46583 0.58237 0.3051 0.0
C231 C 0.66066 0.16143 0.86155 0.0
C232 C 0.65956 0.1623 0.9612 0.0
N233 N 0.67461 0.16239 0.99898 0.0
N234 N 0.6763 0.16074 0.8355 0.0
C235 C 0.68455 0.16131 0.92074 0.0
H236 H 0.65066 0.16068 0.81108 0.0
Co237 Co 0.68254 0.15775 0.70591 0.0
C238 C 0.71812 0.15455 0.70633 0.0
O239 O 0.71837 0.16345 0.62716 0.0
N240 N 0.68831 0.15422 0.57224 0.0
C241 C 0.69589 0.14031 0.44091 0.0
C242 C 0.69536 0.14044 0.54073 0.0
C243 C 0.68464 0.16225 0.48874 0.0
N244 N 0.68902 0.15399 0.40742 0.0
O245 O 0.67533 0.13549 0.71511 0.0
H246 H 0.69935 0.13072 0.58764 0.0
H247 H 0.67862 0.17378 0.48721 0.0
O248 O 0.70458 0.15154 0.74782 0.0
C249 C 0.66288 0.13186 0.66466 0.0
O250 O 0.65669 0.14281 0.60628 0.0
N251 N 0.68777 0.17998 0.69893 0.0
C252 C 0.68967 0.2138 0.69391 0.0
C253 C 0.70123 0.20467 0.74461 0.0
C254 C 0.69993 0.18776 0.74756 0.0
C255 C 0.67591 0.18878 0.65501 0.0
C256 C 0.67677 0.20562 0.6499 0.0
H257 H 0.70839 0.18112 0.79193 0.0
H258 H 0.66547 0.18264 0.62537 0.0
H259 H 0.69757 0.1607 0.92557 0.0
H260 H 0.64843 0.162 1.00232 0.0
H261 H 0.7003 0.13045 0.39641 0.0
H262 H 0.71108 0.21056 0.78251 0.0
H263 H 0.66713 0.21221 0.6142 0.0
C264 C 0.9222 0.41935 0.08361 0.0
C265 C 0.92247 0.41884 0.18379 0.0
N266 N 0.91031 0.42805 0.218 0.0
N267 N 0.91011 0.42909 0.0537 0.0
C268 C 0.90286 0.43394 0.1374 0.0
H269 H 0.93059 0.41327 0.03569 0.0
Co270 Co 0.90579 0.43513 0.92324 0.0
C271 C 0.90358 0.47116 0.93129 0.0
O272 O 0.91083 0.47201 0.84642 0.0
N273 N 0.90095 0.44092 0.79011 0.0
C274 C 0.88629 0.44993 0.66456 0.0
C275 C 0.88776 0.44957 0.76422 0.0
C276 C 0.90706 0.43585 0.70321 0.0
N277 N 0.89834 0.44112 0.62571 0.0
O278 O 0.88356 0.4283 0.93992 0.0
H279 H 0.87939 0.45498 0.81507 0.0
H280 H 0.91714 0.42769 0.69584 0.0
O281 O 0.90058 0.45726 0.9685 0.0
C282 C 0.87937 0.41603 0.8895 0.0
O283 O 0.88999 0.40939 0.83081 0.0
N284 N 0.92799 0.44035 0.90768 0.0
C285 C 0.96174 0.44262 0.8966 0.0
C286 C 0.95285 0.45337 0.95453 0.0
C287 C 0.93602 0.45188 0.96039 0.0
C288 C 0.93658 0.42933 0.85505 0.0
C289 C 0.95337 0.43042 0.8469 0.0
H290 H 0.9297 0.45944 1.01168 0.0
H291 H 0.93048 0.419 0.82403 0.0
H292 H 0.89254 0.44194 0.13909 0.0
H293 H 0.93104 0.41224 0.22817 0.0
H294 H 0.87697 0.45617 0.62416 0.0
H295 H 0.95888 0.46262 0.99694 0.0
H296 H 0.95982 0.42129 0.80585 0.0
C297 C 0.3307 0.17138 0.79094 0.0
C298 C 0.33172 0.17192 0.89085 0.0
N299 N 0.32035 0.16207 0.92873 0.0
N300 N 0.31856 0.16148 0.76448 0.0
C301 C 0.31249 0.15594 0.85011 0.0
H302 H 0.3382 0.17806 0.74065 0.0
Co303 Co 0.31229 0.15754 0.63431 0.0
C304 C 0.27621 0.15364 0.64542 0.0
O305 O 0.27417 0.15991 0.55854 0.0
N306 N 0.30631 0.15321 0.50121 0.0
C307 C 0.2974 0.13949 0.3715 0.0
C308 C 0.29794 0.14004 0.47161 0.0
C309 C 0.31122 0.16013 0.41628 0.0
N310 N 0.3059 0.15206 0.33653 0.0
O311 O 0.31909 0.13528 0.64868 0.0
H312 H 0.29292 0.13104 0.52004 0.0
H313 H 0.31904 0.17053 0.41193 0.0
O314 O 0.29043 0.15225 0.68111 0.0
C315 C 0.33137 0.13108 0.59848 0.0
O316 O 0.33774 0.14157 0.53784 0.0
N317 N 0.30729 0.17978 0.62121 0.0
C318 C 0.30693 0.21369 0.62251 0.0
C319 C 0.29464 0.20484 0.66825 0.0
C320 C 0.29518 0.18789 0.66831 0.0
C321 C 0.31929 0.18826 0.57648 0.0
C322 C 0.3192 0.20515 0.57457 0.0
H323 H 0.28644 0.18153 0.71164 0.0
H324 H 0.32957 0.18188 0.54686 0.0
H325 H 0.30252 0.14751 0.8548 0.0
H326 H 0.33993 0.17946 0.93196 0.0
H327 H 0.29189 0.13011 0.32773 0.0
H328 H 0.28517 0.21097 0.70819 0.0
H329 H 0.32896 0.21146 0.53844 0.0
C330 C 0.58782 0.588 0.56564 0.0
C331 C 0.58701 0.58922 0.66536 0.0
N332 N 0.58899 0.57437 0.70438 0.0
N333 N 0.59048 0.57249 0.54068 0.0
C334 C 0.59123 0.56448 0.62668 0.0
H335 H 0.58713 0.59789 0.51433 0.0
Co336 Co 0.59402 0.56618 0.41137 0.0
C337 C 0.59768 0.53015 0.41322 0.0
O338 O 0.59149 0.52932 0.3254 0.0
N339 N 0.59806 0.56046 0.27817 0.0
C340 C 0.61248 0.55385 0.14706 0.0
C341 C 0.61216 0.55407 0.24694 0.0
C342 C 0.59003 0.564 0.19447 0.0
N343 N 0.59859 0.56021 0.1132 0.0
O344 O 0.61636 0.57292 0.42497 0.0
H345 H 0.62193 0.55032 0.29411 0.0
H346 H 0.57825 0.56947 0.19294 0.0
O347 O 0.59931 0.54394 0.45493 0.0
C348 C 0.62021 0.58552 0.37647 0.0
O349 O 0.60934 0.5922 0.31958 0.0
N350 N 0.57179 0.56133 0.40007 0.0
C351 C 0.53802 0.55965 0.39196 0.0
C352 C 0.54698 0.54767 0.44008 0.0
C353 C 0.56385 0.54883 0.44445 0.0
C354 C 0.56317 0.57348 0.35763 0.0
C355 C 0.54634 0.57275 0.351 0.0
H356 H 0.57027 0.54003 0.4873 0.0
H357 H 0.56943 0.58402 0.33015 0.0
H358 H 0.59372 0.55172 0.63256 0.0
H359 H 0.5859 0.60042 0.70545 0.0
H360 H 0.62259 0.54997 0.10293 0.0
H361 H 0.54098 0.53762 0.47534 0.0
H362 H 0.53986 0.58262 0.3169 0.0
C363 C 0.16312 0.84031 0.30392 0.0
C364 C 0.16195 0.83947 0.40361 0.0
N365 N 0.17694 0.83812 0.44138 0.0
N366 N 0.17877 0.83973 0.27778 0.0
C367 C 0.18693 0.83839 0.36309 0.0
H368 H 0.15321 0.84192 0.25353 0.0
Co369 Co 0.18534 0.84234 0.14805 0.0
C370 C 0.22114 0.84481 0.152 0.0
O371 O 0.22151 0.83652 0.0705 0.0
N372 N 0.19138 0.8455 1.01456 0.0
C373 C 0.19943 0.859 0.88272 0.0
C374 C 0.19893 0.85898 0.98257 0.0
C375 C 0.18729 0.83759 0.93131 0.0
N376 N 0.19198 0.8456 0.8497 0.0
O377 O 0.17873 0.86482 0.15564 0.0
H378 H 0.20329 0.86858 0.02915 0.0
H379 H 0.18068 0.82638 0.9302 0.0
O380 O 0.20748 0.84792 0.19177 0.0
C381 C 0.16647 0.86892 0.10478 0.0
O382 O 0.16007 0.85827 0.04519 0.0
N383 N 0.19004 0.81998 0.14269 0.0
C384 C 0.19069 0.78611 0.14796 0.0
C385 C 0.20288 0.79519 0.19301 0.0
C386 C 0.20213 0.81212 0.19161 0.0
C387 C 0.17793 0.81128 0.1006 0.0
C388 C 0.17815 0.79438 0.10076 0.0
H389 H 0.21084 0.81868 0.23438 0.0
H390 H 0.1677 0.81754 0.06928 0.0
H391 H 0.19993 0.83784 0.368 0.0
H392 H 0.15089 0.84066 0.44481 0.0
H393 H 0.2042 0.86863 0.83782 0.0
H394 H 0.21249 0.78926 0.23293 0.0
H395 H 0.16841 0.78784 0.06579 0.0
C396 C 0.9287 0.58216 0.99234 0.0
C397 C 0.92962 0.58242 0.89239 0.0
N398 N 0.9186 0.57203 0.85659 0.0
N399 N 0.91722 0.57157 1.02027 0.0
C400 C 0.91107 0.56576 0.93562 0.0
H401 H 0.93602 0.58922 0.04176 0.0
Co402 Co 0.91235 0.56664 0.15102 0.0
C403 C 0.90685 0.53111 0.1519 0.0
O404 O 0.91427 0.53022 0.23624 0.0
N405 N 0.90704 0.5621 0.28396 0.0
C406 C 0.89207 0.55464 0.41135 0.0
C407 C 0.89295 0.55525 0.31154 0.0
C408 C 0.91426 0.56603 0.36972 0.0
N409 N 0.90552 0.5614 0.4485 0.0
O410 O 0.8909 0.57531 0.1338 0.0
H411 H 0.88373 0.55105 0.26183 0.0
H412 H 0.92528 0.57286 0.37517 0.0
O413 O 0.9052 0.5449 0.11055 0.0
C414 C 0.89142 0.59055 0.14732 0.0
O415 O 0.90548 0.59718 0.16694 0.0
N416 N 0.93403 0.55974 0.16769 0.0
C417 C 0.96763 0.55569 0.17633 0.0
C418 C 0.95795 0.54484 0.12372 0.0
C419 C 0.9412 0.54721 0.11902 0.0
C420 C 0.94339 0.57075 0.21534 0.0
C421 C 0.96011 0.5688 0.22234 0.0
H422 H 0.93428 0.53949 0.0715 0.0
H423 H 0.93797 0.5817 0.24324 0.0
H424 H 0.90142 0.55697 0.93182 0.0
H425 H 0.93765 0.58985 0.84926 0.0
H426 H 0.88219 0.54966 0.45325 0.0
H427 H 0.96334 0.53487 0.08416 0.0
H428 H 0.96718 0.57797 0.25913 0.0
C429 C 0.1623 0.17247 0.7199 0.0
C430 C 0.16153 0.17328 0.61984 0.0
N431 N 0.17444 0.16551 0.58258 0.0
N432 N 0.17561 0.16422 0.74657 0.0
C433 C 0.1827 0.16001 0.66125 0.0
H434 H 0.15372 0.17766 0.77033 0.0
Co435 Co 0.18152 0.16037 0.87696 0.0
C436 C 0.21743 0.15723 0.87312 0.0
O437 O 0.21811 0.1658 0.95355 0.0
N438 N 0.18705 0.15618 1.01076 0.0
C439 C 0.19677 0.1431 0.14071 0.0
C440 C 0.19587 0.14331 0.04074 0.0
C441 C 0.18212 0.16316 0.09548 0.0
N442 N 0.1881 0.15558 0.1751 0.0
O443 O 0.17421 0.13819 0.86326 0.0
H444 H 0.20108 0.13436 0.99273 0.0
H445 H 0.17395 0.17328 0.10006 0.0
O446 O 0.20361 0.1542 0.83493 0.0
C447 C 0.16202 0.13378 0.91369 0.0
O448 O 0.15581 0.14396 0.97672 0.0
N449 N 0.18713 0.18255 0.88811 0.0
C450 C 0.19026 0.21632 0.89481 0.0
C451 C 0.20102 0.20688 0.8401 0.0
C452 C 0.19906 0.19006 0.83604 0.0
C453 C 0.17602 0.19166 0.9366 0.0
C454 C 0.1775 0.20847 0.9425 0.0
H455 H 0.20672 0.1833 0.78738 0.0
H456 H 0.16545 0.18592 0.96702 0.0
H457 H 0.1935 0.15278 0.65677 0.0
H458 H 0.15226 0.1793 0.57778 0.0
H459 H 0.20278 0.13408 0.18496 0.0
H460 H 0.21068 0.21248 0.79907 0.0
H461 H 0.16833 0.21532 0.98068 0.0
C462 C 0.5858 0.41117 0.46481 0.0
C463 C 0.58494 0.40996 0.36518 0.0
N464 N 0.58459 0.42499 0.32695 0.0
N465 N 0.58623 0.42687 0.4905 0.0
C466 C 0.58548 0.43504 0.40499 0.0
H467 H 0.58679 0.40121 0.5155 0.0
Co468 Co 0.58941 0.43315 0.62014 0.0
C469 C 0.59255 0.46898 0.61877 0.0
O470 O 0.58438 0.46939 0.70066 0.0
N471 N 0.5931 0.43887 0.75369 0.0
C472 C 0.607 0.44633 0.88531 0.0
C473 C 0.60684 0.44594 0.7854 0.0
C474 C 0.58514 0.43502 0.8371 0.0
N475 N 0.59339 0.43934 0.91857 0.0
O476 O 0.61173 0.42632 0.60856 0.0
H477 H 0.61649 0.45006 0.73857 0.0
H478 H 0.57367 0.42893 0.83849 0.0
O479 O 0.59525 0.4553 0.57792 0.0
C480 C 0.61614 0.41396 0.65756 0.0
O481 O 0.60594 0.40748 0.71945 0.0
N482 N 0.56713 0.43814 0.62885 0.0
C483 C 0.53326 0.43932 0.63027 0.0
C484 C 0.54231 0.45142 0.58382 0.0
C485 C 0.55923 0.45043 0.58211 0.0
C486 C 0.55847 0.42606 0.67154 0.0
C487 C 0.54161 0.42659 0.67528 0.0
H488 H 0.56574 0.45915 0.53902 0.0
H489 H 0.56472 0.41566 0.70106 0.0
H490 H 0.58584 0.44808 0.39978 0.0
H491 H 0.58547 0.39879 0.32434 0.0
H492 H 0.61682 0.45076 0.93 0.0
H493 H 0.53634 0.46119 0.54549 0.0
H494 H 0.53518 0.41695 0.71187 0.0
C495 C 0.3316 0.82193 0.21895 0.0
C496 C 0.33207 0.82164 0.11878 0.0
N497 N 0.32357 0.83432 0.08454 0.0
N498 N 0.32258 0.83458 0.24884 0.0
C499 C 0.31814 0.8421 0.16515 0.0
H500 H 0.33724 0.81323 0.26688 0.0
Co501 Co 0.31696 0.83939 0.37923 0.0
C502 C 0.28113 0.84413 0.37173 0.0
O503 O 0.27967 0.8372 0.45728 0.0
N504 N 0.31161 0.84471 0.51215 0.0
C505 C 0.30352 0.85989 0.63759 0.0
C506 C 0.30384 0.85844 0.53793 0.0
C507 C 0.31624 0.83824 0.59909 0.0
N508 N 0.3115 0.84727 0.67658 0.0
O509 O 0.32505 0.86121 0.36073 0.0
H510 H 0.29898 0.86715 0.48703 0.0
H511 H 0.32367 0.82761 0.60641 0.0
O512 O 0.2952 0.84592 0.33435 0.0
C513 C 0.33744 0.86534 0.41022 0.0
O514 O 0.34345 0.85508 0.47361 0.0
N515 N 0.31043 0.8175 0.39598 0.0
C516 C 0.30646 0.7838 0.40522 0.0
C517 C 0.29594 0.7934 0.34974 0.0
C518 C 0.29828 0.81017 0.3447 0.0
C519 C 0.3211 0.80825 0.44716 0.0
C520 C 0.31921 0.79147 0.45411 0.0
H521 H 0.29088 0.81695 0.29474 0.0
H522 H 0.3318 0.81376 0.47758 0.0
H523 H 0.31075 0.85287 0.1635 0.0
H524 H 0.33819 0.81272 0.07442 0.0
H525 H 0.29782 0.86957 0.67784 0.0
H526 H 0.28625 0.78795 0.30814 0.0
H527 H 0.32817 0.78449 0.49328 0.0
C528 C 0.59229 0.08851 0.48817 0.0
C529 C 0.59225 0.08926 0.38792 0.0
N530 N 0.58742 0.07486 0.35244 0.0
N531 N 0.58773 0.07361 0.51715 0.0
C532 C 0.58463 0.06566 0.43256 0.0
H533 H 0.59568 0.09822 0.53661 0.0
Co534 Co 0.58721 0.06592 0.64774 0.0
C535 C 0.60394 0.03404 0.623 0.0
O536 O 0.61334 0.03637 0.69868 0.0
N537 N 0.58637 0.05826 0.77964 0.0
C538 C 0.58095 0.04244 0.90719 0.0
C539 C 0.58173 0.04329 0.8073 0.0
C540 C 0.588 0.06637 0.86541 0.0
N541 N 0.58473 0.05703 0.94429 0.0
O542 O 0.6097 0.07189 0.66232 0.0
H543 H 0.57864 0.03359 0.75794 0.0
H544 H 0.59083 0.07908 0.87064 0.0
O545 O 0.59342 0.04464 0.59961 0.0
C546 C 0.61236 0.08565 0.7013 0.0
O547 O 0.6 0.09444 0.72939 0.0
N548 N 0.56515 0.06128 0.63487 0.0
C549 C 0.53159 0.05803 0.63068 0.0
C550 C 0.54154 0.04634 0.58717 0.0
C551 C 0.55836 0.04814 0.59038 0.0
C552 C 0.55566 0.07277 0.67685 0.0
C553 C 0.53886 0.07134 0.67624 0.0
H554 H 0.56578 0.03894 0.55711 0.0
H555 H 0.56124 0.08309 0.71164 0.0
H556 H 0.58071 0.05324 0.42982 0.0
H557 H 0.59552 0.09968 0.34446 0.0
H558 H 0.57782 0.0318 0.94899 0.0
H559 H 0.53638 0.03581 0.55214 0.0
H560 H 0.53159 0.08066 0.71019 0.0
C561 C 0.16232 0.33969 0.72044 0.0
C562 C 0.16118 0.33904 0.62071 0.0
N563 N 0.17622 0.339 0.58279 0.0
N564 N 0.17797 0.34028 0.74645 0.0
C565 C 0.18619 0.3399 0.66108 0.0
H566 H 0.15233 0.3404 0.77099 0.0
Co567 Co 0.18436 0.34321 0.87595 0.0
C568 C 0.22003 0.34554 0.87115 0.0
O569 O 0.22038 0.33684 0.95117 0.0
N570 N 0.19038 0.34673 1.00933 0.0
C571 C 0.19827 0.3606 0.14022 0.0
C572 C 0.19781 0.36033 0.04032 0.0
C573 C 0.18643 0.33894 0.09317 0.0
N574 N 0.19098 0.34718 0.17426 0.0
O575 O 0.17743 0.36557 0.86639 0.0
H576 H 0.20206 0.36988 0.99301 0.0
H577 H 0.18008 0.3276 0.0951 0.0
O578 O 0.20638 0.34906 0.83271 0.0
C579 C 0.16509 0.36954 0.91684 0.0
O580 O 0.15893 0.35891 0.97739 0.0
N581 N 0.18932 0.32087 0.88322 0.0
C582 C 0.19123 0.28703 0.89064 0.0
C583 C 0.20258 0.29605 0.83773 0.0
C584 C 0.20125 0.31295 0.83343 0.0
C585 C 0.17759 0.31217 0.92904 0.0
C586 C 0.17848 0.29532 0.93549 0.0
H587 H 0.2095 0.31945 0.78707 0.0
H588 H 0.16722 0.31836 0.95908 0.0
H589 H 0.19921 0.34055 0.65619 0.0
H590 H 0.15003 0.33947 0.57972 0.0
H591 H 0.20292 0.37039 0.18433 0.0
H592 H 0.21228 0.29009 0.79888 0.0
H593 H 0.16895 0.28881 0.97261 0.0
C594 C 0.91036 0.91008 0.96691 0.0
C595 C 0.90987 0.90872 0.8669 0.0
N596 N 0.90891 0.92368 0.82846 0.0
N597 N 0.90967 0.92582 0.99235 0.0
C598 C 0.9089 0.93381 0.90602 0.0
H599 H 0.91119 0.90018 1.01802 0.0
Co600 Co 0.90936 0.9333 0.12273 0.0
C601 C 0.89353 0.96548 0.09173 0.0
O602 O 0.88171 0.96208 0.15203 0.0
N603 N 0.90921 0.94059 0.2549 0.0
C604 C 0.91276 0.95607 0.38595 0.0
C605 C 0.91284 0.95565 0.28598 0.0
C606 C 0.90739 0.93199 0.33863 0.0
N607 N 0.90936 0.94117 0.41995 0.0
O608 O 0.88663 0.92809 0.12898 0.0
H609 H 0.91599 0.96568 0.23932 0.0
H610 H 0.90556 0.91907 0.33991 0.0
O611 O 0.90463 0.95506 0.07645 0.0
C612 C 0.88345 0.91405 0.16217 0.0
O613 O 0.89542 0.9048 0.1911 0.0
N614 N 0.93171 0.9372 0.11707 0.0
C615 C 0.96538 0.94009 0.1187 0.0
C616 C 0.95585 0.95042 0.06133 0.0
C617 C 0.93901 0.94871 0.06102 0.0
C618 C 0.94077 0.92698 0.17256 0.0
C619 C 0.9576 0.92829 0.17502 0.0
H620 H 0.93198 0.95659 1.015 0.0
H621 H 0.93485 0.91772 0.21516 0.0
H622 H 0.90815 0.94679 0.89952 0.0
H623 H 0.91051 0.89759 0.82567 0.0
H624 H 0.91528 0.96661 0.43011 0.0
H625 H 0.96133 0.95981 1.01748 0.0
H626 H 0.96448 0.91995 0.21952 0.0
C627 C 0.33221 0.67219 0.20481 0.0
C628 C 0.33265 0.67274 0.10471 0.0
N629 N 0.32139 0.66254 0.0692 0.0
N630 N 0.32068 0.66173 0.23338 0.0
C631 C 0.31441 0.65589 0.14918 0.0
H632 H 0.33972 0.67913 0.25385 0.0
Co633 Co 0.31525 0.65736 0.36367 0.0
C634 C 0.27953 0.65377 0.36276 0.0
O635 O 0.27901 0.6621 0.44409 0.0
N636 N 0.31 0.65251 0.49702 0.0
C637 C 0.30105 0.63824 0.62422 0.0
C638 C 0.30196 0.63901 0.52443 0.0
C639 C 0.31434 0.65943 0.58306 0.0
N640 N 0.30883 0.65112 0.66119 0.0
O641 O 0.32295 0.63534 0.34708 0.0
H642 H 0.29731 0.63001 0.47466 0.0
H643 H 0.32172 0.67012 0.58969 0.0
O644 O 0.2932 0.65109 0.3221 0.0
C645 C 0.33552 0.63168 0.39642 0.0
O646 O 0.34176 0.64256 0.45503 0.0
N647 N 0.30938 0.67942 0.37882 0.0
C648 C 0.30613 0.71311 0.39352 0.0
C649 C 0.29529 0.70398 0.33728 0.0
C650 C 0.29728 0.68718 0.32945 0.0
C651 C 0.32055 0.68827 0.42858 0.0
C652 C 0.319 0.70501 0.43859 0.0
H653 H 0.2895 0.68065 0.28027 0.0
H654 H 0.33119 0.68237 0.45712 0.0
H655 H 0.30513 0.64671 0.1469 0.0
H656 H 0.34052 0.68032 0.06144 0.0
H657 H 0.29564 0.62861 0.66642 0.0
H658 H 0.28554 0.70982 0.29814 0.0
H659 H 0.3282 0.71165 0.47789 0.0
C660 C 0.57945 0.9197 0.58491 0.0
C661 C 0.57904 0.91926 0.68509 0.0
N662 N 0.58982 0.93003 0.71958 0.0
N663 N 0.59025 0.9309 0.55564 0.0
C664 C 0.5965 0.93689 0.63954 0.0
H665 H 0.5722 0.9124 0.5364 0.0
Co666 Co 0.59457 0.93648 0.42521 0.0
C667 C 0.59622 0.97229 0.42574 0.0
O668 O 0.58784 0.97231 0.34453 0.0
N669 N 0.59945 0.94189 0.29176 0.0
C670 C 0.6139 0.9512 0.1665 0.0
C671 C 0.61254 0.95068 0.26605 0.0
C672 C 0.59332 0.93686 0.20482 0.0
N673 N 0.60193 0.94232 0.12743 0.0
O674 O 0.61679 0.92995 0.44387 0.0
H675 H 0.62084 0.95619 0.31694 0.0
H676 H 0.58323 0.92871 0.19734 0.0
O677 O 0.59965 0.9588 0.46666 0.0
C678 C 0.62108 0.91742 0.39611 0.0
O679 O 0.61067 0.91067 0.33645 0.0
N680 N 0.57234 0.94121 0.40842 0.0
C681 C 0.53849 0.94138 0.4024 0.0
C682 C 0.54695 0.95317 0.45519 0.0
C683 C 0.56387 0.95266 0.45917 0.0
C684 C 0.56422 0.92952 0.3584 0.0
C685 C 0.54739 0.92959 0.35248 0.0
H686 H 0.56996 0.96086 0.50795 0.0
H687 H 0.57079 0.91943 0.32805 0.0
H688 H 0.60557 0.9463 0.64197 0.0
H689 H 0.5715 0.91149 0.72931 0.0
H690 H 0.62307 0.95771 0.12639 0.0
H691 H 0.54052 0.96217 0.49739 0.0
H692 H 0.54137 0.92013 0.31179 0.0
C693 C 0.33763 0.33872 0.79391 0.0
C694 C 0.33905 0.33901 0.89397 0.0
N695 N 0.32418 0.34038 0.9328 0.0
N696 N 0.32192 0.3399 0.76883 0.0
C697 C 0.31404 0.34082 0.85537 0.0
H698 H 0.34745 0.33766 0.74248 0.0
Co699 Co 0.31434 0.34047 0.63864 0.0
C700 C 0.28195 0.35593 0.67529 0.0
O701 O 0.28492 0.3682 0.61732 0.0
N702 N 0.30697 0.34082 0.50641 0.0
C703 C 0.29144 0.338 0.37486 0.0
C704 C 0.29178 0.338 0.47489 0.0
C705 C 0.31571 0.34201 0.42283 0.0
N706 N 0.30651 0.34052 0.34124 0.0
O707 O 0.31944 0.3633 0.6339 0.0
H708 H 0.28155 0.33543 0.52114 0.0
H709 H 0.3287 0.34304 0.42182 0.0
O710 O 0.29259 0.3449 0.68656 0.0
C711 C 0.33331 0.36656 0.59843 0.0
O712 O 0.34233 0.35464 0.56654 0.0
N713 N 0.31071 0.31807 0.64253 0.0
C714 C 0.30916 0.2843 0.63927 0.0
C715 C 0.29749 0.29338 0.68927 0.0
C716 C 0.29855 0.3103 0.6908 0.0
C717 C 0.32209 0.30945 0.59332 0.0
C718 C 0.32152 0.29257 0.59038 0.0
H719 H 0.28969 0.31699 0.73186 0.0
H720 H 0.33173 0.31578 0.55624 0.0
H721 H 0.30113 0.34203 0.8622 0.0
H722 H 0.35018 0.33796 0.9349 0.0
H723 H 0.28082 0.33604 0.33041 0.0
H724 H 0.28783 0.28743 0.72855 0.0
H725 H 0.33065 0.28605 0.54984 0.0
C726 C 0.91836 0.08255 0.07263 0.0
C727 C 0.91924 0.08303 0.17263 0.0
N728 N 0.90994 0.07109 0.20872 0.0
N729 N 0.90865 0.07028 0.04514 0.0
C730 C 0.90349 0.06365 0.12992 0.0
H731 H 0.92451 0.09058 0.02284 0.0
Co732 Co 0.90455 0.0647 0.91489 0.0
C733 C 0.90324 0.02897 0.91345 0.0
O734 O 0.91196 0.02936 0.8336 0.0
N735 N 0.89997 0.05936 0.78126 0.0
C736 C 0.88624 0.04989 0.65342 0.0
C737 C 0.88699 0.0506 0.75324 0.0
C738 C 0.90662 0.06424 0.69561 0.0
N739 N 0.89863 0.05847 0.61659 0.0
O740 O 0.88233 0.07125 0.93239 0.0
H741 H 0.87835 0.04524 0.80263 0.0
H742 H 0.91653 0.07262 0.69044 0.0
O743 O 0.89931 0.0423 0.95477 0.0
C744 C 0.87757 0.08356 0.88409 0.0
O745 O 0.88743 0.09016 0.82069 0.0
N746 N 0.92684 0.05989 0.90035 0.0
C747 C 0.96065 0.05824 0.89252 0.0
C748 C 0.9518 0.0472 0.94861 0.0
C749 C 0.93494 0.04842 0.95319 0.0
C750 C 0.93537 0.07128 0.85037 0.0
C751 C 0.9522 0.0705 0.84367 0.0
H752 H 0.92859 0.04062 1.00309 0.0
H753 H 0.92918 0.08162 0.82015 0.0
H754 H 0.89536 0.05343 0.13403 0.0
H755 H 0.92604 0.09164 0.21558 0.0
H756 H 0.87714 0.04363 0.61128 0.0
H757 H 0.95787 0.03792 0.99055 0.0
H758 H 0.95858 0.07988 0.80441 0.0
C759 C 0.16296 0.65469 0.29695 0.0
C760 C 0.16205 0.65425 0.39701 0.0
N761 N 0.17657 0.65832 0.43404 0.0
N762 N 0.17802 0.65891 0.26964 0.0
C763 C 0.1859 0.66146 0.35515 0.0
H764 H 0.15323 0.65188 0.2474 0.0
Co765 Co 0.18565 0.65946 0.13923 0.0
C766 C 0.2183 0.64434 0.16272 0.0
O767 O 0.21638 0.63507 0.086 0.0
N768 N 0.1932 0.66033 1.00714 0.0
C769 C 0.20833 0.66658 0.87794 0.0
C770 C 0.20764 0.66621 0.97807 0.0
C771 C 0.18525 0.65748 0.92206 0.0
N772 N 0.19424 0.66104 0.84218 0.0
O773 O 0.18053 0.63668 0.127 0.0
H774 H 0.217 0.67048 0.02661 0.0
H775 H 0.17282 0.65368 0.91807 0.0
O776 O 0.20722 0.65426 0.18749 0.0
C777 C 0.16673 0.63347 0.0902 0.0
O778 O 0.1576 0.64549 0.06054 0.0
N779 N 0.18926 0.68173 0.15038 0.0
C780 C 0.19019 0.71549 0.15626 0.0
C781 C 0.20278 0.70628 0.19659 0.0
C782 C 0.20208 0.68933 0.19332 0.0
C783 C 0.17704 0.69048 0.11013 0.0
C784 C 0.17729 0.70735 0.11177 0.0
H785 H 0.21177 0.68246 0.22581 0.0
H786 H 0.16702 0.68424 0.07625 0.0
H787 H 0.19831 0.66538 0.35967 0.0
H788 H 0.15143 0.65125 0.43916 0.0
H789 H 0.21842 0.67079 0.8348 0.0
H790 H 0.21295 0.71211 0.23163 0.0
H791 H 0.1675 0.71396 0.07779 0.0
C792 C 0.41362 0.90912 0.54542 0.0
C793 C 0.4133 0.90774 0.64548 0.0
N794 N 0.41206 0.92266 0.6841 0.0
N795 N 0.41257 0.92484 0.52014 0.0
C796 C 0.41174 0.93279 0.60656 0.0
H797 H 0.41459 0.89924 0.49416 0.0
Co798 Co 0.41201 0.93238 0.38989 0.0
C799 C 0.39545 0.96423 0.42492 0.0
O800 O 0.38342 0.96071 0.3663 0.0
N801 N 0.41164 0.93974 0.25768 0.0
C802 C 0.41436 0.95538 0.12652 0.0
C803 C 0.41438 0.95498 0.22656 0.0
C804 C 0.41045 0.93104 0.17389 0.0
N805 N 0.41189 0.9403 0.09257 0.0
O806 O 0.38939 0.92662 0.38386 0.0
H807 H 0.41686 0.96521 0.27318 0.0
H808 H 0.40944 0.91803 0.17244 0.0
O809 O 0.40686 0.95403 0.43723 0.0
C810 C 0.38654 0.91262 0.34868 0.0
O811 O 0.3987 0.90388 0.31723 0.0
N812 N 0.43425 0.93664 0.39532 0.0
C813 C 0.46795 0.93873 0.39866 0.0
C814 C 0.45845 0.94999 0.44927 0.0
C815 C 0.44157 0.94867 0.44739 0.0
C816 C 0.44328 0.92572 0.34492 0.0
C817 C 0.46013 0.92658 0.34513 0.0
H818 H 0.43454 0.95712 0.48942 0.0
H819 H 0.43732 0.91616 0.30494 0.0
H820 H 0.41069 0.94574 0.61318 0.0
H821 H 0.41423 0.8966 0.68655 0.0
H822 H 0.41627 0.96604 0.08227 0.0
H823 H 0.46403 0.95947 0.49205 0.0
H824 H 0.46699 0.91778 0.30391 0.0
C825 C 0.83617 0.67322 0.33578 0.0
C826 C 0.83676 0.67419 0.43571 0.0
N827 N 0.82486 0.66493 0.4725 0.0
N828 N 0.82391 0.66345 0.30905 0.0
C829 C 0.81735 0.65839 0.3942 0.0
H830 H 0.84402 0.67948 0.28541 0.0
Co831 Co 0.81792 0.65996 0.17872 0.0
C832 C 0.78247 0.65698 0.18443 0.0
O833 O 0.78212 0.6665 0.10787 0.0
N834 N 0.81229 0.65595 0.04512 0.0
C835 C 0.80301 0.64215 0.91704 0.0
C836 C 0.80363 0.64291 1.01675 0.0
C837 C 0.81736 0.66252 0.95965 0.0
N838 N 0.81166 0.65451 0.88046 0.0
O839 O 0.82659 0.63827 0.18532 0.0
H840 H 0.79843 0.6341 0.06574 0.0
H841 H 0.82594 0.67227 0.95479 0.0
O842 O 0.7961 0.65283 0.22124 0.0
C843 C 0.8409 0.63939 0.1513 0.0
O844 O 0.84583 0.65378 0.12345 0.0
N845 N 0.81139 0.68196 0.17244 0.0
C846 C 0.80798 0.71568 0.17921 0.0
C847 C 0.79814 0.70568 0.23628 0.0
C848 C 0.80035 0.68888 0.23385 0.0
C849 C 0.82148 0.69163 0.11999 0.0
C850 C 0.81979 0.70843 0.12068 0.0
H851 H 0.79382 0.68159 0.28568 0.0
H852 H 0.83169 0.68641 0.0829 0.0
H853 H 0.807 0.65043 0.39895 0.0
H854 H 0.84534 0.68111 0.4781 0.0
H855 H 0.79687 0.63297 0.87482 0.0
H856 H 0.78946 0.71082 0.28642 0.0
H857 H 0.82806 0.71574 0.07832 0.0
C858 C 0.08823 0.09061 0.05509 0.0
C859 C 0.08823 0.09166 0.15538 0.0
N860 N 0.08661 0.07666 0.19239 0.0
N861 N 0.0868 0.075 0.02799 0.0
C862 C 0.08582 0.06682 0.11356 0.0
H863 H 0.08935 0.10063 1.00504 0.0
Co864 Co 0.0871 0.06738 0.89749 0.0
C865 C 0.10333 0.03531 0.93446 0.0
O866 O 0.11554 0.03863 0.87691 0.0
N867 N 0.08719 0.05986 0.76524 0.0
C868 C 0.08391 0.04381 0.63614 0.0
C869 C 0.08445 0.0445 0.736 0.0
C870 C 0.08787 0.06833 0.68027 0.0
N871 N 0.08585 0.05885 0.60043 0.0
O872 O 0.1098 0.07288 0.89049 0.0
H873 H 0.08231 0.03436 0.78378 0.0
H874 H 0.08903 0.08133 0.67656 0.0
O875 O 0.09204 0.04568 0.94554 0.0
C876 C 0.11279 0.08666 0.85259 0.0
O877 O 0.1007 0.0953 0.81915 0.0
N878 N 0.06481 0.06337 0.90326 0.0
C879 C 0.03118 0.06048 0.89676 0.0
C880 C 0.04053 0.04957 0.95112 0.0
C881 C 0.05737 0.05121 0.95345 0.0
C882 C 0.05589 0.0743 0.85205 0.0
C883 C 0.03908 0.07306 0.84755 0.0
H884 H 0.06428 0.04272 0.99594 0.0
H885 H 0.06193 0.08404 0.81422 0.0
H886 H 0.0849 0.05386 0.11845 0.0
H887 H 0.08921 0.10265 0.19781 0.0
H888 H 0.08215 0.03296 0.59345 0.0
H889 H 0.03489 0.03977 0.9908 0.0
H890 H 0.03231 0.08202 0.80695 0.0
C891 C 0.66091 0.34189 0.80126 0.0
C892 C 0.65993 0.34351 0.90064 0.0
N893 N 0.67492 0.34585 0.93651 0.0
N894 N 0.67645 0.34304 0.77347 0.0
C895 C 0.68474 0.34539 0.85747 0.0
H896 H 0.65097 0.33946 0.75234 0.0
Co897 Co 0.68284 0.34016 0.64379 0.0
C898 C 0.71921 0.34168 0.65223 0.0
O899 O 0.72055 0.33028 0.58663 0.0
N900 N 0.68876 0.33691 0.50756 0.0
C901 C 0.69585 0.32416 0.3702 0.0
C902 C 0.69503 0.32313 0.46925 0.0
C903 C 0.68576 0.34608 0.42691 0.0
N904 N 0.68989 0.33852 0.3426 0.0
O905 O 0.67758 0.36259 0.62068 0.0
H906 H 0.69878 0.31259 0.50964 0.0
H907 H 0.68044 0.358 0.42917 0.0
O908 O 0.70521 0.34643 0.67949 0.0
C909 C 0.66344 0.36517 0.58701 0.0
O910 O 0.65477 0.35277 0.55786 0.0
N911 N 0.68615 0.31804 0.6707 0.0
C912 C 0.68792 0.28441 0.6872 0.0
C913 C 0.69932 0.29433 0.73378 0.0
C914 C 0.6981 0.31121 0.72575 0.0
C915 C 0.67414 0.30863 0.63317 0.0
C916 C 0.6749 0.2918 0.63937 0.0
H917 H 0.7068 0.31866 0.76326 0.0
H918 H 0.66426 0.31428 0.59437 0.0
H919 H 0.69776 0.34639 0.86105 0.0
H920 H 0.64903 0.34214 0.9432 0.0
H921 H 0.69985 0.31465 0.32167 0.0
H922 H 0.70927 0.2891 0.77418 0.0
H923 H 0.66546 0.28463 0.60603 0.0
C924 C 0.41817 0.08093 0.46412 0.0
C925 C 0.41915 0.08143 0.36414 0.0
N926 N 0.41013 0.0693 0.32764 0.0
N927 N 0.40867 0.06848 0.49118 0.0
C928 C 0.40375 0.06173 0.40616 0.0
H929 H 0.42419 0.08901 0.51423 0.0
Co930 Co 0.40498 0.06256 0.62135 0.0
C931 C 0.40331 0.02681 0.61835 0.0
O932 O 0.41216 0.02691 0.6978 0.0
N933 N 0.40083 0.05689 0.75488 0.0
C934 C 0.38721 0.04738 0.88285 0.0
C935 C 0.3879 0.04808 0.78309 0.0
C936 C 0.40748 0.06184 0.84042 0.0
N937 N 0.39954 0.05606 0.91958 0.0
O938 O 0.38278 0.06962 0.60866 0.0
H939 H 0.37919 0.04276 0.73388 0.0
H940 H 0.41729 0.07036 0.84525 0.0
O941 O 0.39928 0.04032 0.57932 0.0
C942 C 0.37919 0.08216 0.65848 0.0
O943 O 0.39027 0.08859 0.71492 0.0
N944 N 0.42724 0.05737 0.6321 0.0
C945 C 0.46109 0.05565 0.63198 0.0
C946 C 0.45183 0.04459 0.57829 0.0
C947 C 0.43497 0.04595 0.57698 0.0
C948 C 0.43611 0.06853 0.68184 0.0
C949 C 0.45297 0.06771 0.68447 0.0
H950 H 0.42833 0.03829 0.52766 0.0
H951 H 0.43015 0.07878 0.7147 0.0
H952 H 0.39592 0.05129 0.40163 0.0
H953 H 0.42585 0.09014 0.3215 0.0
H954 H 0.37812 0.04111 0.92499 0.0
H955 H 0.45754 0.0352 0.53558 0.0
H956 H 0.45962 0.07693 0.72362 0.0
C957 C 0.66487 0.66633 0.23509 0.0
C958 C 0.66352 0.66575 0.1354 0.0
N959 N 0.67691 0.65876 0.09838 0.0
N960 N 0.67914 0.65996 0.26212 0.0
C961 C 0.68622 0.65539 0.17731 0.0
H962 H 0.65628 0.67168 0.28482 0.0
Co963 Co 0.68636 0.65998 0.39219 0.0
C964 C 0.7195 0.64616 0.36219 0.0
O965 O 0.71617 0.63294 0.41122 0.0
N966 N 0.69351 0.66014 0.52431 0.0
C967 C 0.70734 0.66722 0.65654 0.0
C968 C 0.70698 0.66758 0.55658 0.0
C969 C 0.68596 0.65523 0.60697 0.0
N970 N 0.69405 0.6595 0.68934 0.0
O971 O 0.68217 0.63709 0.39822 0.0
H972 H 0.71566 0.67364 0.51047 0.0
H973 H 0.67466 0.64879 0.60626 0.0
O974 O 0.70858 0.65686 0.34932 0.0
C975 C 0.66771 0.63432 0.4258 0.0
O976 O 0.65851 0.64664 0.44975 0.0
N977 N 0.68899 0.6826 0.38557 0.0
C978 C 0.69013 0.71632 0.37637 0.0
C979 C 0.69887 0.7069 0.31012 0.0
C980 C 0.69786 0.69002 0.3147 0.0
C981 C 0.68022 0.6916 0.44973 0.0
C982 C 0.68067 0.7085 0.44665 0.0
H983 H 0.70387 0.68293 0.25957 0.0
H984 H 0.67268 0.68563 0.50299 0.0
H985 H 0.69813 0.65005 0.17329 0.0
H986 H 0.65374 0.67097 0.09366 0.0
H987 H 0.71642 0.67296 0.70145 0.0
H988 H 0.70599 0.71254 0.25343 0.0
H989 H 0.67363 0.71541 0.49846 0.0
C990 C 0.07936 0.91823 0.96825 0.0
C991 C 0.07872 0.91776 0.86818 0.0
N992 N 0.08772 0.93 0.83244 0.0
N993 N 0.08867 0.93073 0.9965 0.0
C994 C 0.09375 0.93757 0.91222 0.0
H995 H 0.07316 0.91015 1.01755 0.0
Co996 Co 0.09212 0.93674 0.12673 0.0
C997 C 0.09349 0.97251 0.12236 0.0
O998 O 0.0843 0.97244 0.20035 0.0
N999 N 0.09607 0.94259 0.26032 0.0
C1000 C 0.1094 0.95273 0.38807 0.0
C1001 C 0.10887 0.95166 0.28833 0.0
C1002 C 0.08939 0.93779 0.3461 0.0
N1003 N 0.09713 0.94401 0.42455 0.0
O1004 O 0.1144 0.92983 0.11534 0.0
H1005 H 0.11763 0.95684 0.23906 0.0
H1006 H 0.07939 0.92951 0.35232 0.0
O1007 O 0.09776 0.959 0.08447 0.0
C1008 C 0.11816 0.91739 0.16564 0.0
O1009 O 0.1072 0.91094 0.22275 0.0
N1010 N 0.06979 0.94179 0.13597 0.0
C1011 C 0.03593 0.94306 0.13177 0.0
C1012 C 0.0452 0.95397 0.07718 0.0
C1013 C 0.06208 0.95288 0.07837 0.0
C1014 C 0.06091 0.93075 0.18661 0.0
C1015 C 0.04403 0.93139 0.18747 0.0
H1016 H 0.06879 0.96043 0.02874 0.0
H1017 H 0.06688 0.92069 0.22148 0.0
H1018 H 0.10187 0.94778 0.90969 0.0
H1019 H 0.07184 0.90923 0.82513 0.0
H1020 H 0.11856 0.95883 0.43065 0.0
H1021 H 0.03946 0.963 0.03172 0.0
H1022 H 0.03735 0.9223 0.22743 0.0
C1023 C 0.83575 0.34161 0.73593 0.0
C1024 C 0.83701 0.34227 0.63592 0.0
N1025 N 0.82204 0.34329 0.59793 0.0
N1026 N 0.82006 0.34223 0.7618 0.0
C1027 C 0.81199 0.34319 0.67576 0.0
H1028 H 0.84568 0.34069 0.78674 0.0
Co1029 Co 0.81267 0.3422 0.89238 0.0
C1030 C 0.78031 0.35724 0.84264 0.0
O1031 O 0.78408 0.3716 0.87647 0.0
N1032 N 0.80532 0.34221 0.02471 0.0
C1033 C 0.78955 0.3398 0.15549 0.0
C1034 C 0.79004 0.33963 0.05546 0.0
C1035 C 0.81392 0.34361 0.10874 0.0
N1036 N 0.80459 0.34233 0.18968 0.0
O1037 O 0.81716 0.36506 0.89907 0.0
H1038 H 0.77981 0.3373 1.00872 0.0
H1039 H 0.8269 0.34475 0.11078 0.0
O1040 O 0.79063 0.34576 0.84675 0.0
C1041 C 0.83112 0.36799 0.93433 0.0
O1042 O 0.84003 0.3558 0.96383 0.0
N1043 N 0.80974 0.31968 0.8865 0.0
C1044 C 0.80812 0.28586 0.88343 0.0
C1045 C 0.79868 0.2952 0.81973 0.0
C1046 C 0.79989 0.31207 0.82124 0.0
C1047 C 0.81915 0.31084 0.9481 0.0
C1048 C 0.81847 0.29394 0.94818 0.0
H1049 H 0.79318 0.31893 0.76837 0.0
H1050 H 0.8274 0.31694 0.99682 0.0
H1051 H 0.79898 0.34389 0.6697 0.0
H1052 H 0.84809 0.34165 0.59437 0.0
H1053 H 0.77887 0.33807 0.19964 0.0
H1054 H 0.79041 0.28956 0.76903 0.0
H1055 H 0.8262 0.28726 0.99745 0.0
C1056 C 0.07979 0.56648 0.6646 0.0
C1057 C 0.09242 0.56733 0.73324 0.0
C1058 C 0.08285 0.56375 0.56513 0.0
C1059 C 0.09871 0.56188 0.52965 0.0
H1060 H 0.06738 0.56775 0.68829 0.0
H1061 H 0.07269 0.56289 0.51581 0.0
S1062 S 0.13617 0.56498 0.67822 0.0
N1063 N 0.12142 0.56711 0.75787 0.0
N1064 N 0.12731 0.56241 0.57171 0.0
C1065 C 0.11149 0.56309 0.59757 0.0
C1066 C 0.10832 0.5657 0.69894 0.0
C1067 C 0.68029 0.85233 0.82811 0.0
C1068 C 0.69142 0.84078 0.79351 0.0
C1069 C 0.6762 0.8533 0.9276 0.0
C1070 C 0.68314 0.84283 0.99712 0.0
H1071 H 0.67487 0.86089 0.77815 0.0
H1072 H 0.66771 0.86249 0.95059 0.0
S1073 S 0.71143 0.80918 0.94418 0.0
N1074 N 0.70819 0.81767 0.83724 0.0
N1075 N 0.70076 0.81978 0.023 0.0
C1076 C 0.69402 0.83104 0.96345 0.0
C1077 C 0.69808 0.82993 0.86222 0.0
C1078 C 0.40695 0.42351 0.0535 0.0
C1079 C 0.4041 0.43935 1.02054 0.0
C1080 C 0.40893 0.42011 0.15317 0.0
C1081 C 0.40832 0.43244 0.22432 0.0
H1082 H 0.40726 0.41361 1.00196 0.0
H1083 H 0.41073 0.40765 0.17468 0.0
S1084 S 0.40287 0.47626 0.17371 0.0
N1085 N 0.40167 0.46761 0.06566 0.0
N1086 N 0.40584 0.46141 0.25206 0.0
C1087 C 0.40586 0.44842 0.19161 0.0
C1088 C 0.40366 0.45182 0.09016 0.0
C1089 C 0.80284 0.17104 0.37716 0.0
C1090 C 0.80914 0.15994 0.30877 0.0
C1091 C 0.80693 0.17025 0.47668 0.0
C1092 C 0.8176 0.1584 0.51243 0.0
H1093 H 0.79482 0.18061 0.3535 0.0
H1094 H 0.80193 0.17918 0.52578 0.0
S1095 S 0.83603 0.12532 0.36722 0.0
N1096 N 0.82563 0.1359 0.28682 0.0
N1097 N 0.8334 0.13454 0.47255 0.0
C1098 C 0.82373 0.14703 0.44547 0.0
C1099 C 0.81951 0.14778 0.34424 0.0
C1100 C 0.07983 0.44624 0.42762 0.0
C1101 C 0.08847 0.43715 0.49767 0.0
C1102 C 0.07997 0.44214 0.32816 0.0
C1103 C 0.08856 0.42863 0.29375 0.0
H1104 H 0.07271 0.45658 0.44968 0.0
H1105 H 0.07304 0.44946 0.27786 0.0
S1106 S 0.11411 0.40137 0.44345 0.0
N1107 N 0.10666 0.41441 0.52261 0.0
N1108 N 0.10655 0.40655 0.33674 0.0
C1109 C 0.09731 0.41945 0.36228 0.0
C1110 C 0.09734 0.42372 0.46366 0.0
C1111 C 0.80284 0.83194 0.70934 0.0
C1112 C 0.81023 0.84221 0.77852 0.0
C1113 C 0.80687 0.83258 0.60985 0.0
C1114 C 0.81862 0.84339 0.5748 0.0
H1115 H 0.79399 0.8231 0.73225 0.0
H1116 H 0.801 0.82428 0.56019 0.0
S1117 S 0.84046 0.87407 0.72197 0.0
N1118 N 0.82908 0.86445 0.80181 0.0
N1119 N 0.83682 0.8654 0.61599 0.0
C1120 C 0.82592 0.85393 0.6424 0.0
C1121 C 0.82172 0.85339 0.7437 0.0
C1122 C 0.42031 0.5585 0.82127 0.0
C1123 C 0.41062 0.57123 0.78644 0.0
C1124 C 0.42069 0.55443 0.92077 0.0
C1125 C 0.41126 0.56276 0.99031 0.0
H1126 H 0.42791 0.55182 0.77132 0.0
H1127 H 0.42863 0.54473 0.94338 0.0
S1128 S 0.38255 0.59607 0.93494 0.0
N1129 N 0.39065 0.59159 0.82855 0.0
N1130 N 0.3911 0.58378 1.01449 0.0
C1131 C 0.40127 0.57535 0.95591 0.0
C1132 C 0.401 0.57959 0.85452 0.0
C1133 C 0.69265 0.15332 0.13295 0.0
C1134 C 0.67891 0.16189 0.10149 0.0
C1135 C 0.69611 0.15133 0.23245 0.0
C1136 C 0.68598 0.15776 0.30556 0.0
H1137 H 0.70054 0.14762 0.08045 0.0
H1138 H 0.70674 0.14445 0.25215 0.0
S1139 S 0.64924 0.18259 0.26171 0.0
N1140 N 0.65595 0.17823 0.15182 0.0
N1141 N 0.6619 0.17378 0.33781 0.0
C1142 C 0.67251 0.16688 0.27497 0.0
C1143 C 0.6691 0.16908 0.17346 0.0
C1144 C 0.91974 0.43327 0.38687 0.0
C1145 C 0.90696 0.43152 0.31965 0.0
C1146 C 0.91685 0.43629 0.48625 0.0
C1147 C 0.90105 0.43768 0.52318 0.0
H1148 H 0.93213 0.43249 0.36217 0.0
H1149 H 0.9271 0.43779 0.53438 0.0
S1150 S 0.86331 0.43239 0.3797 0.0
N1151 N 0.87789 0.43042 0.29863 0.0
N1152 N 0.8724 0.43586 0.48462 0.0
C1153 C 0.88814 0.43565 0.45694 0.0
C1154 C 0.89111 0.43266 0.35562 0.0
C1155 C 0.30112 0.15605 0.06362 0.0
C1156 C 0.31697 0.15933 0.03145 0.0
C1157 C 0.29758 0.15383 0.16314 0.0
C1158 C 0.30967 0.155 0.23503 0.0
H1159 H 0.29131 0.15539 1.01167 0.0
H1160 H 0.28524 0.15134 0.18432 0.0
S1161 S 0.35333 0.16146 0.19021 0.0
N1162 N 0.34509 0.16215 0.08088 0.0
N1163 N 0.33826 0.15849 0.26669 0.0
C1164 C 0.32556 0.15801 0.20415 0.0
C1165 C 0.32924 0.16005 0.1029 0.0
C1166 C 0.59985 0.55728 0.8383 0.0
C1167 C 0.59012 0.57026 0.80716 0.0
C1168 C 0.60208 0.55385 0.93763 0.0
C1169 C 0.5948 0.56327 1.01126 0.0
H1170 H 0.60621 0.54992 0.78572 0.0
H1171 H 0.60977 0.54375 0.9567 0.0
S1172 S 0.56698 0.5979 0.96875 0.0
N1173 N 0.5719 0.59171 0.85862 0.0
N1174 N 0.57684 0.58594 0.04429 0.0
C1175 C 0.58462 0.57602 0.98108 0.0
C1176 C 0.58215 0.57936 0.87962 0.0
C1177 C 0.19923 0.84762 0.67469 0.0
C1178 C 0.1887 0.84197 0.74796 0.0
C1179 C 0.19562 0.84585 0.57521 0.0
C1180 C 0.18128 0.83831 0.54391 0.0
H1181 H 0.21032 0.85374 0.69435 0.0
H1182 H 0.2039 0.85095 0.52258 0.0
S1183 S 0.15022 0.81994 0.70475 0.0
N1184 N 0.16354 0.82777 0.78068 0.0
N1185 N 0.15718 0.82377 0.59469 0.0
C1186 C 0.17099 0.8319 0.61609 0.0
C1187 C 0.1746 0.83384 0.71758 0.0
C1188 C 0.89962 0.56799 0.71906 0.0
C1189 C 0.91551 0.56869 0.75485 0.0
C1190 C 0.89649 0.5657 0.61931 0.0
C1191 C 0.90911 0.56382 0.55106 0.0
H1192 H 0.88955 0.56965 0.76828 0.0
H1193 H 0.88403 0.56568 0.59541 0.0
S1194 S 0.95289 0.56279 0.61031 0.0
N1195 N 0.944 0.56623 0.71579 0.0
N1196 N 0.93819 0.56151 0.52948 0.0
C1197 C 0.92507 0.56402 0.58682 0.0
C1198 C 0.92824 0.56653 0.68823 0.0
C1199 C 0.16563 0.16201 0.41075 0.0
C1200 C 0.17818 0.16338 0.48004 0.0
C1201 C 0.16891 0.15993 0.31096 0.0
C1202 C 0.18485 0.15897 0.27642 0.0
H1203 H 0.15315 0.16227 0.43401 0.0
H1204 H 0.15892 0.15862 0.26068 0.0
S1205 S 0.22204 0.16388 0.42346 0.0
N1206 N 0.20725 0.1652 0.50369 0.0
N1207 N 0.21328 0.16071 0.3172 0.0
C1208 C 0.19749 0.16065 0.34396 0.0
C1209 C 0.19419 0.16299 0.44536 0.0
C1210 C 0.59584 0.44642 0.09369 0.0
C1211 C 0.58961 0.43622 1.02031 0.0
C1212 C 0.59372 0.44297 0.19306 0.0
C1213 C 0.58522 0.42919 0.2243 0.0
H1214 H 0.60265 0.45712 0.07433 0.0
H1215 H 0.59928 0.45088 0.24582 0.0
S1216 S 0.56523 0.39914 0.06317 0.0
N1217 N 0.57396 0.4119 0.98741 0.0
N1218 N 0.56931 0.40596 0.17327 0.0
C1219 C 0.5783 0.41924 0.15201 0.0
C1220 C 0.58061 0.42264 0.05055 0.0
C1221 C 0.31807 0.82529 0.91519 0.0
C1222 C 0.32035 0.83792 0.98287 0.0
C1223 C 0.31529 0.82841 0.81578 0.0
C1224 C 0.31469 0.84431 0.77924 0.0
H1225 H 0.31824 0.81283 0.93953 0.0
H1226 H 0.31336 0.81826 0.76733 0.0
S1227 S 0.3215 0.88168 0.92429 0.0
N1228 N 0.32271 0.86693 1.00488 0.0
N1229 N 0.31777 0.87285 0.8189 0.0
C1230 C 0.31723 0.85706 0.84601 0.0
C1231 C 0.31997 0.85386 0.94736 0.0
C1232 C 0.59647 0.07272 0.08196 0.0
C1233 C 0.58495 0.06164 0.04659 0.0
C1234 C 0.5972 0.07691 0.18137 0.0
C1235 C 0.58642 0.07027 0.25028 0.0
H1236 H 0.60521 0.07797 0.03264 0.0
H1237 H 0.60649 0.08527 0.20466 0.0
S1238 S 0.55283 0.04203 0.19433 0.0
N1239 N 0.56172 0.045 0.08837 0.0
N1240 N 0.56314 0.05285 0.27386 0.0
C1241 C 0.57464 0.05943 0.21557 0.0
C1242 C 0.57388 0.05515 0.11437 0.0
C1243 C 0.19788 0.34995 0.34967 0.0
C1244 C 0.18774 0.34362 0.27622 0.0
C1245 C 0.19434 0.34801 0.44911 0.0
C1246 C 0.18049 0.33959 0.48026 0.0
H1247 H 0.20862 0.35667 0.3303 0.0
H1248 H 0.20228 0.35361 0.50182 0.0
S1249 S 0.15061 0.31933 0.3192 0.0
N1250 N 0.16342 0.32798 0.24347 0.0
N1251 N 0.15735 0.32358 0.42923 0.0
C1252 C 0.17063 0.33256 0.40797 0.0
C1253 C 0.17411 0.33471 0.30654 0.0
C1254 C 0.91821 0.945 0.5918 0.0
C1255 C 0.90911 0.93633 0.52201 0.0
C1256 C 0.9179 0.94098 0.69131 0.0
C1257 C 0.90866 0.92793 0.72598 0.0
H1258 H 0.92585 0.95495 0.56952 0.0
H1259 H 0.92521 0.94795 0.74141 0.0
S1260 S 0.88176 0.90189 0.57719 0.0
N1261 N 0.88981 0.9145 0.49768 0.0
N1262 N 0.88961 0.90675 0.68371 0.0
C1263 C 0.89945 0.91916 0.65778 0.0
C1264 C 0.89959 0.92337 0.55633 0.0
C1265 C 0.3271 0.65877 0.79662 0.0
C1266 C 0.31165 0.65441 0.76324 0.0
C1267 C 0.33018 0.66122 0.8963 0.0
C1268 C 0.3179 0.65959 0.96697 0.0
H1269 H 0.33697 0.65993 0.74543 0.0
H1270 H 0.34238 0.66421 0.91819 0.0
S1271 S 0.27489 0.65004 0.91495 0.0
N1272 N 0.28372 0.64946 0.80735 0.0
N1273 N 0.2893 0.6545 0.99364 0.0
C1274 C 0.30228 0.65561 0.93375 0.0
C1275 C 0.29922 0.65293 0.83235 0.0
C1276 C 0.58334 0.93708 0.98863 0.0
C1277 C 0.59916 0.93907 0.02475 0.0
C1278 C 0.5804 0.93425 0.88911 0.0
C1279 C 0.59311 0.93341 0.82113 0.0
H1280 H 0.57313 0.93794 0.03749 0.0
H1281 H 0.56803 0.93289 0.86481 0.0
S1282 S 0.63679 0.93591 0.8781 0.0
N1283 N 0.6278 0.93856 0.9841 0.0
N1284 N 0.62212 0.93367 0.7978 0.0
C1285 C 0.60896 0.93512 0.85609 0.0
C1286 C 0.61201 0.93783 0.9575 0.0
C1287 C 0.30235 0.33193 0.16909 0.0
C1288 C 0.31144 0.34052 0.23929 0.0
C1289 C 0.30644 0.3321 0.06965 0.0
C1290 C 0.31996 0.34068 0.03539 0.0
H1291 H 0.292 0.32483 0.19098 0.0
H1292 H 0.29912 0.32521 1.01924 0.0
S1293 S 0.34725 0.3661 0.18555 0.0
N1294 N 0.3342 0.35865 0.26455 0.0
N1295 N 0.34205 0.3586 0.07873 0.0
C1296 C 0.32915 0.34938 0.10408 0.0
C1297 C 0.32488 0.34937 0.20545 0.0
C1298 C 0.88903 0.06158 0.44585 0.0
C1299 C 0.90181 0.06149 0.51412 0.0
C1300 C 0.89178 0.06437 0.34617 0.0
C1301 C 0.90739 0.06738 0.31047 0.0
H1302 H 0.87672 0.05974 0.46965 0.0
H1303 H 0.88157 0.06457 0.29691 0.0
S1304 S 0.94526 0.06691 0.45498 0.0
N1305 N 0.93092 0.06344 0.53574 0.0
N1306 N 0.93594 0.0691 0.34956 0.0
C1307 C 0.92031 0.06707 0.37709 0.0
C1308 C 0.91757 0.06405 0.47842 0.0
C1309 C 0.19154 0.67073 0.57247 0.0
C1310 C 0.18114 0.65867 0.53624 0.0
C1311 C 0.19568 0.67146 0.67201 0.0
C1312 C 0.18966 0.66013 0.73995 0.0
H1313 H 0.1963 0.67984 0.52375 0.0
H1314 H 0.20349 0.68115 0.69614 0.0
S1315 S 0.16371 0.62489 0.68019 0.0
N1316 N 0.16605 0.63431 0.57527 0.0
N1317 N 0.17382 0.63566 0.76099 0.0
C1318 C 0.1796 0.64776 0.70402 0.0
C1319 C 0.17537 0.64703 0.60278 0.0
C1320 C 0.42055 0.94446 0.92066 0.0
C1321 C 0.41187 0.93541 0.99056 0.0
C1322 C 0.4204 0.94036 0.82117 0.0
C1323 C 0.41172 0.92691 0.78665 0.0
H1324 H 0.42773 0.95475 0.94287 0.0
H1325 H 0.42738 0.94763 0.77097 0.0
S1326 S 0.38595 0.89986 0.93597 0.0
N1327 N 0.39351 0.91282 1.01525 0.0
N1328 N 0.39356 0.90499 0.82936 0.0
C1329 C 0.4029 0.9178 0.85504 0.0
C1330 C 0.4029 0.92205 0.95643 0.0
C1331 C 0.81504 0.64455 0.71078 0.0
C1332 C 0.81496 0.65748 0.7781 0.0
C1333 C 0.81794 0.64709 0.61109 0.0
C1334 C 0.8211 0.66262 0.57438 0.0
H1335 H 0.81308 0.63227 0.7353 0.0
H1336 H 0.81809 0.63677 0.5626 0.0
S1337 S 0.82086 0.70081 0.71618 0.0
N1338 N 0.81718 0.68663 0.79784 0.0
N1339 N 0.82305 0.69126 0.61149 0.0
C1340 C 0.82086 0.67569 0.64005 0.0
C1341 C 0.81772 0.67315 0.74146 0.0
C1342 C 0.09534 0.07622 0.46358 0.0
C1343 C 0.08543 0.06362 0.49843 0.0
C1344 C 0.09563 0.08044 0.36402 0.0
C1345 C 0.08608 0.07221 0.29473 0.0
H1346 H 0.10318 0.08265 0.51333 0.0
H1347 H 0.10364 0.09003 0.34077 0.0
S1348 S 0.0565 0.03975 0.3491 0.0
N1349 N 0.06467 0.04402 0.45563 0.0
N1350 N 0.06546 0.05177 0.26992 0.0
C1351 C 0.07583 0.0599 0.32894 0.0
C1352 C 0.07543 0.05567 0.43016 0.0
C1353 C 0.69419 0.33954 0.06971 0.0
C1354 C 0.67951 0.34639 0.03854 0.0
C1355 C 0.69787 0.33796 0.16908 0.0
C1356 C 0.68708 0.34315 0.24214 0.0
H1357 H 0.7026 0.33463 1.01721 0.0
H1358 H 0.70908 0.33207 0.18907 0.0
S1359 S 0.64785 0.36365 0.19963 0.0
N1360 N 0.65488 0.36007 0.0894 0.0
N1361 N 0.66153 0.35646 0.27561 0.0
C1362 C 0.67278 0.35085 0.21214 0.0
C1363 C 0.66905 0.35257 0.1107 0.0
C1364 C 0.3923 0.06208 0.18946 0.0
C1365 C 0.40779 0.06548 0.22581 0.0
C1366 C 0.38972 0.05916 0.08977 0.0
C1367 C 0.40257 0.05928 0.02206 0.0
H1368 H 0.38203 0.06207 0.23822 0.0
H1369 H 0.37747 0.05704 0.06557 0.0
S1370 S 0.44581 0.06577 0.08311 0.0
N1371 N 0.43633 0.06783 0.18802 0.0
N1372 N 0.43165 0.06189 1.00176 0.0
C1373 C 0.41822 0.06224 0.05841 0.0
C1374 C 0.42079 0.06542 0.15981 0.0
C1375 C 0.69721 0.65846 0.96487 0.0
C1376 C 0.68106 0.65719 0.99586 0.0
C1377 C 0.70129 0.65862 0.86544 0.0
C1378 C 0.68944 0.65767 0.79141 0.0
H1379 H 0.7068 0.65987 1.01773 0.0
H1380 H 0.71393 0.65973 0.84683 0.0
S1381 S 0.64537 0.65232 0.83424 0.0
N1382 N 0.65325 0.65314 0.94434 0.0
N1383 N 0.66069 0.65443 0.75866 0.0
C1384 C 0.67325 0.65574 0.82171 0.0
C1385 C 0.66914 0.65531 0.92326 0.0
C1386 C 0.09128 0.92498 0.55936 0.0
C1387 C 0.09414 0.94082 0.52651 0.0
C1388 C 0.08936 0.92157 0.65901 0.0
C1389 C 0.09004 0.93389 0.73022 0.0
H1390 H 0.09094 0.91509 0.50776 0.0
H1391 H 0.08755 0.90911 0.68046 0.0
S1392 S 0.09553 0.97771 0.67984 0.0
N1393 N 0.09665 0.96907 0.57173 0.0
N1394 N 0.09258 0.96285 0.75814 0.0
C1395 C 0.0925 0.94987 0.6976 0.0
C1396 C 0.09464 0.95328 0.59616 0.0
C1397 C 0.80462 0.33425 0.46131 0.0
C1398 C 0.81772 0.34347 0.49555 0.0
C1399 C 0.80059 0.33381 0.36178 0.0
C1400 C 0.80937 0.34271 0.2917 0.0
H1401 H 0.79762 0.32705 0.51174 0.0
H1402 H 0.79059 0.32625 0.33957 0.0
S1403 S 0.84381 0.3701 0.34536 0.0
N1404 N 0.83893 0.36244 0.45235 0.0
N1405 N 0.83122 0.3619 0.26623 0.0
C1406 C 0.82234 0.35223 0.32549 0.0
C1407 C 0.82652 0.35256 0.42692 0.0
C1408 C 0.15682 0.61094 0.19435 0.0
C1409 C 0.15907 0.61741 0.10081 0.0
C1410 C 0.14516 0.5989 0.21127 0.0
C1411 C 0.13571 0.59261 0.13487 0.0
H1412 H 0.16299 0.61624 0.25614 0.0
H1413 H 0.14281 0.59521 0.28556 0.0
S1414 S 0.13838 0.60417 0.87518 0.0
N1415 N 0.15181 0.61583 0.92996 0.0
N1416 N 0.13048 0.59268 0.96117 0.0
C1417 C 0.1389 0.59794 0.0399 0.0
C1418 C 0.15044 0.61051 0.02307 0.0
C1419 C 0.64541 0.90302 0.3347 0.0
C1420 C 0.6365 0.90894 0.41434 0.0
C1421 C 0.65733 0.89108 0.347 0.0
C1422 C 0.66038 0.88436 0.43905 0.0
H1423 H 0.64242 0.90689 0.26157 0.0
H1424 H 0.66305 0.88602 0.28298 0.0
S1425 S 0.6414 0.89667 0.67173 0.0
N1426 N 0.63265 0.9083 0.58931 0.0
N1427 N 0.65453 0.88535 0.61196 0.0
C1428 C 0.65232 0.89093 0.51994 0.0
C1429 C 0.64051 0.90339 0.50775 0.0
C1430 C 0.34434 0.38852 0.70293 0.0
C1431 C 0.34094 0.38263 0.60928 0.0
C1432 C 0.35604 0.40062 0.71729 0.0
C1433 C 0.36444 0.40752 0.63839 0.0
H1434 H 0.33903 0.38274 0.76603 0.0
H1435 H 0.35927 0.40388 0.79113 0.0
S1436 S 0.35857 0.39751 0.3782 0.0
N1437 N 0.34598 0.38536 0.43617 0.0
N1438 N 0.36746 0.40855 0.46291 0.0
C1439 C 0.3601 0.40272 0.54398 0.0
C1440 C 0.3485 0.39012 0.52954 0.0
C1441 C 0.85291 0.09872 0.83398 0.0
C1442 C 0.86261 0.09239 0.90909 0.0
C1443 C 0.84141 0.11084 0.85248 0.0
C1444 C 0.83959 0.11736 0.94626 0.0
H1445 H 0.85495 0.09499 0.75943 0.0
H1446 H 0.83501 0.11616 0.79156 0.0
S1447 S 0.86112 0.10408 0.16894 0.0
N1448 N 0.86858 0.0925 0.08196 0.0
N1449 N 0.84753 0.1158 0.11602 0.0
C1450 C 0.84849 0.11043 0.02282 0.0
C1451 C 0.85986 0.09778 1.00444 0.0
C1452 C 0.14881 0.39293 0.97635 0.0
C1453 C 0.15581 0.38453 0.89777 0.0
C1454 C 0.13647 0.40436 0.96156 0.0
C1455 C 0.13042 0.40743 0.86786 0.0
H1456 H 0.15224 0.38992 0.05026 0.0
H1457 H 0.13068 0.40972 0.02445 0.0
S1458 S 0.14536 0.38958 0.63753 0.0
N1459 N 0.1567 0.38114 0.72246 0.0
N1460 N 0.13302 0.40205 0.69505 0.0
C1461 C 0.13794 0.39984 0.7884 0.0
C1462 C 0.1508 0.38854 0.80322 0.0
C1463 C 0.8631 0.9 0.06035 0.0
C1464 C 0.86739 0.90654 0.15111 0.0
C1465 C 0.85102 0.88813 0.0528 0.0
C1466 C 0.84258 0.88268 0.13539 0.0
H1467 H 0.87012 0.90298 0.99626 0.0
H1468 H 0.84904 0.88237 0.983 0.0
S1469 S 0.84832 0.89708 0.38809 0.0
N1470 N 0.86167 0.90745 0.32409 0.0
N1471 N 0.83851 0.88562 0.30928 0.0
C1472 C 0.84584 0.89011 0.22511 0.0
C1473 C 0.8584 0.90191 0.23315 0.0
C1474 C 0.35012 0.61223 0.28863 0.0
C1475 C 0.3445 0.61638 0.3818 0.0
C1476 C 0.36258 0.6008 0.27679 0.0
C1477 C 0.36942 0.59278 0.35732 0.0
H1478 H 0.34593 0.61888 0.22554 0.0
H1479 H 0.36759 0.59897 0.20483 0.0
S1480 S 0.35766 0.59809 0.61516 0.0
N1481 N 0.34587 0.61077 0.55504 0.0
N1482 N 0.36874 0.58885 0.53212 0.0
C1483 C 0.36292 0.59582 0.44973 0.0
C1484 C 0.35058 0.60775 0.46211 0.0
C1485 C 0.63572 0.09645 0.60759 0.0
C1486 C 0.6284 0.09345 0.69801 0.0
C1487 C 0.64803 0.10807 0.59848 0.0
C1488 C 0.65374 0.1167 0.67983 0.0
H1489 H 0.63094 0.09087 0.54231 0.0
H1490 H 0.65242 0.11103 0.52642 0.0
S1491 S 0.63971 0.11197 0.93397 0.0
N1492 N 0.62845 0.09918 0.87117 0.0
N1493 N 0.65207 0.12045 0.85462 0.0
C1494 C 0.64747 0.11279 0.77168 0.0
C1495 C 0.63464 0.10131 0.78057 0.0
C1496 C 0.84703 0.39053 1.00643 0.0
C1497 C 0.83904 0.38392 0.92513 0.0
C1498 C 0.85897 0.4025 0.99556 0.0
C1499 C 0.86365 0.40782 0.90268 0.0
H1500 H 0.84482 0.38562 0.07827 0.0
H1501 H 0.86558 0.40647 0.0593 0.0
S1502 S 0.84555 0.39528 0.66762 0.0
N1503 N 0.83564 0.38462 0.7499 0.0
N1504 N 0.85848 0.40661 0.72887 0.0
C1505 C 0.85501 0.40208 0.82156 0.0
C1506 C 0.84258 0.39024 0.83291 0.0
C1507 C 0.35887 0.09541 0.55041 0.0
C1508 C 0.36388 0.09111 0.64456 0.0
C1509 C 0.34731 0.10765 0.53608 0.0
C1510 C 0.34005 0.11565 0.61532 0.0
H1511 H 0.36488 0.0903 0.48752 0.0
H1512 H 0.34467 0.11148 0.46239 0.0
S1513 S 0.34757 0.10731 0.87618 0.0
N1514 N 0.35977 0.09477 0.81811 0.0
N1515 N 0.33763 0.11731 0.79102 0.0
C1516 C 0.34394 0.11045 0.70964 0.0
C1517 C 0.35599 0.09829 0.72426 0.0
C1518 C 0.64026 0.59931 0.48395 0.0
C1519 C 0.63576 0.59404 0.39058 0.0
C1520 C 0.65199 0.61147 0.49603 0.0
C1521 C 0.65994 0.61834 0.41548 0.0
H1522 H 0.63367 0.59512 0.54718 0.0
H1523 H 0.65407 0.6163 0.56824 0.0
S1524 S 0.6537 0.60745 0.15703 0.0
N1525 N 0.64095 0.59575 0.21704 0.0
N1526 N 0.66338 0.6181 0.24035 0.0
C1527 C 0.65651 0.61218 0.32273 0.0
C1528 C 0.64431 0.60013 0.31015 0.0
C1529 C 0.15022 0.89219 0.04254 0.0
C1530 C 0.15765 0.88427 0.12161 0.0
C1531 C 0.13853 0.90429 0.05713 0.0
C1532 C 0.13354 0.90854 0.15139 0.0
H1533 H 0.15285 0.88838 0.9688 0.0
H1534 H 0.13242 0.90935 0.99435 0.0
S1535 S 0.15017 0.89247 0.38265 0.0
N1536 N 0.16018 0.88262 0.29728 0.0
N1537 N 0.13779 0.90487 0.32483 0.0
C1538 C 0.14156 0.90142 0.2309 0.0
C1539 C 0.15374 0.88942 0.21602 0.0
C1540 C 0.87941 0.61649 0.09487 0.0
C1541 C 0.87714 0.60126 0.13766 0.0
C1542 C 0.86732 0.62826 0.09685 0.0
C1543 C 0.85237 0.62552 0.14312 0.0
H1544 H 0.89086 0.61953 0.06132 0.0
H1545 H 0.87001 0.63984 0.06378 0.0
S1546 S 0.84002 0.58716 0.26216 0.0
N1547 N 0.85859 0.58356 0.22358 0.0
N1548 N 0.83571 0.60589 0.22876 0.0
C1549 C 0.84963 0.61005 0.18302 0.0
C1550 C 0.86204 0.59788 0.17993 0.0
C1551 C 0.14669 0.10964 0.97172 0.0
C1552 C 0.15313 0.11858 0.89359 0.0
C1553 C 0.1348 0.09775 0.95666 0.0
C1554 C 0.12864 0.09472 0.86315 0.0
H1555 H 0.1502 0.11252 0.04567 0.0
H1556 H 0.12939 0.09196 1.01942 0.0
S1557 S 0.14223 0.11394 0.63371 0.0
N1558 N 0.1534 0.12259 0.71866 0.0
N1559 N 0.13058 0.10078 0.69079 0.0
C1560 C 0.13564 0.10289 0.78397 0.0
C1561 C 0.14804 0.11468 0.79902 0.0
C1562 C 0.64013 0.39813 0.71279 0.0
C1563 C 0.6313 0.40513 0.63598 0.0
C1564 C 0.65204 0.38637 0.69519 0.0
C1565 C 0.65519 0.38087 0.60033 0.0
H1566 H 0.63718 0.40113 0.78743 0.0
H1567 H 0.6578 0.38056 0.7568 0.0
S1568 S 0.63627 0.39612 0.37379 0.0
N1569 N 0.62753 0.40669 0.4611 0.0
N1570 N 0.64933 0.38402 0.42843 0.0
C1571 C 0.64709 0.38839 0.52267 0.0
C1572 C 0.6353 0.4007 0.54036 0.0
C1573 C 0.36517 0.90095 0.45456 0.0
C1574 C 0.37075 0.90452 0.36052 0.0
C1575 C 0.35335 0.889 0.46962 0.0
C1576 C 0.34644 0.88051 0.39108 0.0
H1577 H 0.37095 0.90639 0.51731 0.0
H1578 H 0.35025 0.88574 0.54364 0.0
S1579 S 0.35575 0.88667 0.13024 0.0
N1580 N 0.36778 0.89947 0.18755 0.0
N1581 N 0.34507 0.87753 0.21558 0.0
C1582 C 0.35096 0.88495 0.29636 0.0
C1583 C 0.36329 0.89681 0.2812 0.0
C1584 C 0.09247 0.48419 0.061 0.0
C1585 C 0.10312 0.48228 0.98208 0.0
C1586 C 0.09065 0.49906 0.10831 0.0
C1587 C 0.09916 0.51291 0.07808 0.0
H1588 H 0.08535 0.47414 0.08697 0.0
H1589 H 0.08218 0.4997 0.1682 0.0
S1590 S 0.12839 0.51476 0.87371 0.0
N1591 N 0.12235 0.49571 0.87524 0.0
N1592 N 0.11868 0.52381 0.96343 0.0
C1593 C 0.10985 0.51129 0.99902 0.0
C1594 C 0.11189 0.49598 0.95136 0.0
C1595 C 0.73706 0.85766 0.22995 0.0
C1596 C 0.73522 0.85946 0.33114 0.0
C1597 C 0.75243 0.85796 0.18649 0.0
C1598 C 0.76649 0.85959 0.24311 0.0
H1599 H 0.72654 0.85616 0.18393 0.0
H1600 H 0.75334 0.8565 0.10836 0.0
S1601 S 0.7683 0.8644 0.51087 0.0
N1602 N 0.7488 0.86299 0.48653 0.0
N1603 N 0.77764 0.86308 0.40502 0.0
C1604 C 0.76483 0.8613 0.34419 0.0
C1605 C 0.7492 0.86139 0.38819 0.0
C1606 C 0.4083 0.5156 0.54927 0.0
C1607 C 0.39725 0.51753 0.47229 0.0
C1608 C 0.41047 0.50069 0.59562 0.0
C1609 C 0.40185 0.48683 0.56675 0.0
H1610 H 0.41547 0.52567 0.57451 0.0
H1611 H 0.41926 0.50005 0.6539 0.0
S1612 S 0.37124 0.48511 0.36956 0.0
N1613 N 0.37734 0.50414 0.3697 0.0
N1614 N 0.38156 0.47601 0.45662 0.0
C1615 C 0.39067 0.48848 0.49012 0.0
C1616 C 0.38832 0.50382 0.44316 0.0
C1617 C 0.75013 0.14451 0.89672 0.0
C1618 C 0.76445 0.14441 0.84156 0.0
C1619 C 0.735 0.14708 0.85234 0.0
C1620 C 0.73372 0.14968 0.75132 0.0
H1621 H 0.75068 0.14331 0.97512 0.0
H1622 H 0.72438 0.14771 0.89802 0.0
S1623 S 0.76738 0.14748 0.57318 0.0
N1624 N 0.77612 0.14478 0.67988 0.0
N1625 N 0.74797 0.14992 0.59649 0.0
C1626 C 0.74789 0.14858 0.69508 0.0
C1627 C 0.76319 0.14589 0.74019 0.0
C1628 C 0.90232 0.50141 0.94242 0.0
C1629 C 0.90173 0.48628 0.98947 0.0
C1630 C 0.90301 0.51593 0.99533 0.0
C1631 C 0.90334 0.51593 0.09768 0.0
H1632 H 0.90276 0.50207 0.86377 0.0
H1633 H 0.90412 0.52717 0.95542 0.0
S1634 S 0.90055 0.47973 0.25675 0.0
N1635 N 0.90036 0.47238 0.14515 0.0
N1636 N 0.90169 0.49955 0.24429 0.0
C1637 C 0.90194 0.50096 0.14575 0.0
C1638 C 0.9011 0.48618 0.09183 0.0
C1639 C 0.2475 0.15975 0.85611 0.0
C1640 C 0.23275 0.15361 0.82012 0.0
C1641 C 0.26182 0.15868 0.80196 0.0
C1642 C 0.26191 0.1517 0.70884 0.0
H1643 H 0.24795 0.16601 0.92526 0.0
H1644 H 0.27267 0.16417 0.83113 0.0
S1645 S 0.22776 0.13046 0.59054 0.0
N1646 N 0.22007 0.13753 0.69289 0.0
N1647 N 0.2468 0.13642 0.58883 0.0
C1648 C 0.24763 0.14451 0.67472 0.0
C1649 C 0.23311 0.14521 0.73096 0.0
C1650 C 0.59217 0.49928 0.61429 0.0
C1651 C 0.59639 0.48456 0.56899 0.0
C1652 C 0.59362 0.51413 0.56575 0.0
C1653 C 0.59926 0.51493 0.4696 0.0
H1654 H 0.58711 0.49937 0.68692 0.0
H1655 H 0.58935 0.5249 0.60213 0.0
S1656 S 0.6144 0.48052 0.32283 0.0
N1657 N 0.60843 0.47213 0.42576 0.0
N1658 N 0.61074 0.50006 0.3341 0.0
C1659 C 0.60442 0.5005 0.42523 0.0
C1660 C 0.60313 0.48534 0.47501 0.0
C1661 C 0.25123 0.84872 0.36008 0.0
C1662 C 0.26627 0.84708 0.3131 0.0
C1663 C 0.23669 0.84911 0.30726 0.0
C1664 C 0.23657 0.84756 0.20531 0.0
H1665 H 0.25062 0.84923 0.43874 0.0
H1666 H 0.22547 0.84986 0.34725 0.0
S1667 S 0.27272 0.84473 0.04613 0.0
N1668 N 0.2801 0.84526 0.15757 0.0
N1669 N 0.25292 0.84593 0.05865 0.0
C1670 C 0.25156 0.84686 0.15706 0.0
C1671 C 0.26636 0.84663 0.21078 0.0
C1672 C 0.60302 0.98873 0.57465 0.0
C1673 C 0.6001 0.98795 0.4737 0.0
C1674 C 0.60498 0.00368 0.62231 0.0
C1675 C 0.60409 0.01835 0.57071 0.0
H1676 H 0.60317 0.97777 0.61784 0.0
H1677 H 0.60652 0.00377 0.70057 0.0
S1678 S 0.59949 0.02291 0.30383 0.0
N1679 N 0.59827 0.00322 0.32267 0.0
N1680 N 0.60223 0.03107 0.41213 0.0
C1681 C 0.60216 0.01768 0.46935 0.0
C1682 C 0.6001 0.00255 0.42088 0.0
C1683 C 0.24971 0.34122 0.85126 0.0
C1684 C 0.23554 0.34912 0.82042 0.0
C1685 C 0.26448 0.34356 0.80392 0.0
C1686 C 0.26597 0.35417 0.72439 0.0
H1687 H 0.24943 0.33284 0.9118 0.0
H1688 H 0.27478 0.33686 0.83035 0.0
S1689 S 0.23251 0.37779 0.61333 0.0
N1690 N 0.22385 0.3679 0.70374 0.0
N1691 N 0.25178 0.37259 0.61578 0.0
C1692 C 0.25193 0.3623 0.69285 0.0
C1693 C 0.23672 0.35971 0.74046 0.0
C1694 C 0.90534 0.98395 0.96643 0.0
C1695 C 0.89491 0.98179 0.04615 0.0
C1696 C 0.9076 0.99914 0.92369 0.0
C1697 C 0.89972 0.01302 0.95919 0.0
H1698 H 0.91196 0.97386 0.93642 0.0
H1699 H 0.9159 0.99996 0.86302 0.0
S1700 S 0.871 0.01414 0.16637 0.0
N1701 N 0.87641 0.99495 0.15868 0.0
N1702 N 0.8808 0.0236 0.07857 0.0
C1703 C 0.88913 0.01111 0.03848 0.0
C1704 C 0.88668 0.9955 0.08173 0.0
C1705 C 0.26347 0.64699 0.21232 0.0
C1706 C 0.26411 0.64931 0.3138 0.0
C1707 C 0.24865 0.64469 0.16392 0.0
C1708 C 0.23395 0.64462 0.21535 0.0
H1709 H 0.27441 0.64758 0.16951 0.0
H1710 H 0.24863 0.64364 0.08539 0.0
S1711 S 0.22922 0.6471 0.48308 0.0
N1712 N 0.2488 0.64939 0.46488 0.0
N1713 N 0.22119 0.64474 0.37407 0.0
C1714 C 0.23454 0.64587 0.31712 0.0
C1715 C 0.24954 0.64829 0.36631 0.0
C1716 C 0.40898 0.99734 0.59878 0.0
C1717 C 0.40025 0.01108 0.56874 0.0
C1718 C 0.40723 0.98242 0.55207 0.0
C1719 C 0.39648 0.98032 0.47378 0.0
H1720 H 0.41756 0.9981 0.6581 0.0
H1721 H 0.41452 0.97247 0.578 0.0
S1722 S 0.37051 0.0124 0.36671 0.0
N1723 N 0.3803 0.02164 0.45543 0.0
N1724 N 0.37682 0.99344 0.36814 0.0
C1725 C 0.38745 0.9939 0.44342 0.0
C1726 C 0.38939 0.00927 0.4906 0.0
C1727 C 0.74678 0.636 0.30602 0.0
C1728 C 0.73611 0.64901 0.32366 0.0
C1729 C 0.76213 0.63856 0.26412 0.0
C1730 C 0.76718 0.65418 0.23745 0.0
H1731 H 0.74311 0.62373 0.32251 0.0
H1732 H 0.76982 0.62825 0.24941 0.0
S1733 S 0.74515 0.69251 0.28224 0.0
N1734 N 0.73298 0.67827 0.3233 0.0
N1735 N 0.76109 0.68289 0.23958 0.0
C1736 C 0.75695 0.66727 0.25815 0.0
C1737 C 0.74161 0.66474 0.30254 0.0
C1738 C 0.08851 0.00213 0.10406 0.0
C1739 C 0.09701 0.98826 0.07399 0.0
C1740 C 0.09078 0.01712 0.05894 0.0
C1741 C 0.10182 0.01914 0.98213 0.0
H1742 H 0.07973 0.00145 0.16231 0.0
H1743 H 0.08368 0.02717 0.08499 0.0
S1744 S 0.12747 0.98673 0.8762 0.0
N1745 N 0.11714 0.97751 0.96265 0.0
N1746 N 0.12155 0.00581 0.87816 0.0
C1747 C 0.11063 0.00543 0.95181 0.0
C1748 C 0.10818 0.98999 0.99746 0.0
C1749 C 0.74537 0.33426 0.72799 0.0
C1750 C 0.73392 0.34629 0.70703 0.0
C1751 C 0.75994 0.33795 0.77435 0.0
C1752 C 0.76403 0.35393 0.79985 0.0
H1753 H 0.74304 0.32176 0.70865 0.0
H1754 H 0.76803 0.32806 0.78989 0.0
S1755 S 0.73767 0.38989 0.76486 0.0
N1756 N 0.72703 0.37474 0.71965 0.0
N1757 N 0.75479 0.38193 0.80415 0.0
C1758 C 0.75243 0.36611 0.78163 0.0
C1759 C 0.73732 0.36223 0.73584 0.0
C1760 C 0.01091 0.55252 0.08424 0.0
C1761 C 0.0202 0.55448 0.16931 0.0
C1762 C 0.99394 0.55242 0.08749 0.0
C1763 C 0.98559 0.55431 0.17591 0.0
H1764 H 0.01676 0.55156 1.01404 0.0
H1765 H 0.98733 0.55141 1.01975 0.0
S1766 S 0.00417 0.55798 0.42051 0.0
N1767 N 0.01972 0.557 0.34549 0.0
N1768 N 0.98788 0.55693 0.35138 0.0
C1769 C 0.99472 0.55573 0.26182 0.0
C1770 C 0.01198 0.55579 0.25858 0.0
C1771 C 0.70489 0.74284 0.37975 0.0
C1772 C 0.69033 0.73423 0.36997 0.0
C1773 C 0.70511 0.75985 0.37828 0.0
C1774 C 0.69078 0.76885 0.36607 0.0
H1775 H 0.71613 0.73638 0.39105 0.0
H1776 H 0.71652 0.766 0.38936 0.0
S1777 S 0.64987 0.75178 0.3234 0.0
N1778 N 0.6615 0.73577 0.33958 0.0
N1779 N 0.66188 0.76763 0.3337 0.0
C1780 C 0.67626 0.76026 0.35178 0.0
C1781 C 0.67604 0.743 0.35451 0.0
C1782 C 0.48967 0.4541 0.65254 0.0
C1783 C 0.48058 0.44018 0.63051 0.0
C1784 C 0.50667 0.4538 0.65163 0.0
C1785 C 0.51522 0.43957 0.62829 0.0
H1786 H 0.48359 0.46523 0.67229 0.0
H1787 H 0.51317 0.46471 0.67097 0.0
S1788 S 0.49703 0.40049 0.5527 0.0
N1789 N 0.48138 0.4122 0.57682 0.0
N1790 N 0.51319 0.41165 0.57403 0.0
C1791 C 0.50623 0.42574 0.60302 0.0
C1792 C 0.48897 0.42604 0.60438 0.0
C1793 C 0.80692 0.25922 0.97104 0.0
C1794 C 0.80734 0.26782 0.8826 0.0
C1795 C 0.80674 0.24225 0.97283 0.0
C1796 C 0.8068 0.2332 0.88628 0.0
H1797 H 0.80671 0.26565 0.03968 0.0
H1798 H 0.80653 0.23615 0.04258 0.0
S1799 S 0.80867 0.24961 0.63568 0.0
N1800 N 0.80848 0.2658 0.70604 0.0
N1801 N 0.80771 0.23393 0.70989 0.0
C1802 C 0.8071 0.24156 0.79737 0.0
C1803 C 0.80747 0.25885 0.7954 0.0
C1804 C 0.98861 0.4441 0.98141 0.0
C1805 C 0.97973 0.44324 0.89416 0.0
C1806 C 0.00558 0.44367 0.98125 0.0
C1807 C 0.01435 0.44238 0.89384 0.0
H1808 H 0.9824 0.44464 0.05065 0.0
H1809 H 0.01187 0.44391 0.05037 0.0
S1810 S 0.99688 0.44163 0.64515 0.0
N1811 N 0.981 0.44228 0.71773 0.0
N1812 N 0.01284 0.44157 0.71727 0.0
C1813 C 0.00561 0.44204 0.80595 0.0
C1814 C 0.98835 0.44245 0.80616 0.0
C1815 C 0.82113 0.75945 0.208 0.0
C1816 C 0.80674 0.76828 0.19461 0.0
C1817 C 0.82132 0.74252 0.20407 0.0
C1818 C 0.80712 0.73363 0.18716 0.0
H1819 H 0.83242 0.7657 0.22125 0.0
H1820 H 0.83273 0.73633 0.2144 0.0
S1821 S 0.7662 0.7507 0.14777 0.0
N1822 N 0.77783 0.76672 0.16376 0.0
N1823 N 0.7782 0.73482 0.15798 0.0
C1824 C 0.79255 0.7422 0.17596 0.0
C1825 C 0.79236 0.75952 0.17935 0.0
C1826 C 0.49421 0.55682 0.47507 0.0
C1827 C 0.48543 0.55944 0.38867 0.0
C1828 C 0.51118 0.55659 0.47529 0.0
C1829 C 0.52005 0.55902 0.38918 0.0
H1830 H 0.48792 0.55532 0.54356 0.0
H1831 H 0.51741 0.55492 0.54387 0.0
S1832 S 0.50293 0.56456 0.14203 0.0
N1833 N 0.48696 0.56318 0.21344 0.0
N1834 N 0.5188 0.56293 0.21425 0.0
C1835 C 0.51144 0.5612 0.30196 0.0
C1836 C 0.49417 0.56136 0.30161 0.0
C1837 C 0.69251 0.2409 0.77616 0.0
C1838 C 0.69049 0.2318 0.69032 0.0
C1839 C 0.69203 0.25791 0.77468 0.0
C1840 C 0.6895 0.26644 0.68733 0.0
H1841 H 0.69397 0.23481 0.84539 0.0
H1842 H 0.69318 0.26441 0.84274 0.0
S1843 S 0.68577 0.24838 0.44118 0.0
N1844 N 0.6874 0.23267 0.51467 0.0
N1845 N 0.68654 0.26452 0.51178 0.0
C1846 C 0.68815 0.25749 0.60064 0.0
C1847 C 0.68863 0.24022 0.60217 0.0
C1848 C 0.29432 0.25809 0.61299 0.0
C1849 C 0.3086 0.26629 0.63868 0.0
C1850 C 0.29379 0.24109 0.60857 0.0
C1851 C 0.30754 0.23168 0.62974 0.0
H1852 H 0.28355 0.26486 0.59428 0.0
H1853 H 0.28264 0.23529 0.58673 0.0
S1854 S 0.34728 0.24725 0.71296 0.0
N1855 N 0.33639 0.26367 0.69345 0.0
N1856 N 0.3354 0.23185 0.68589 0.0
C1857 C 0.32173 0.23975 0.65861 0.0
C1858 C 0.32226 0.25701 0.66287 0.0
C1859 C 0.20428 0.74213 0.13042 0.0
C1860 C 0.19043 0.73351 0.15966 0.0
C1861 C 0.20437 0.75914 0.12793 0.0
C1862 C 0.19061 0.76814 0.1543 0.0
H1863 H 0.21499 0.73569 0.10707 0.0
H1864 H 0.21517 0.76529 0.10316 0.0
S1865 S 0.15206 0.75145 0.24823 0.0
N1866 N 0.16315 0.73534 0.22399 0.0
N1867 N 0.1633 0.76719 0.21878 0.0
C1868 C 0.1769 0.75967 0.18678 0.0
C1869 C 0.17682 0.74241 0.18958 0.0
C1870 C 0.19401 0.26001 0.80815 0.0
C1871 C 0.19203 0.26902 0.89424 0.0
C1872 C 0.19376 0.24301 0.80918 0.0
C1873 C 0.19155 0.23433 0.89637 0.0
H1874 H 0.1953 0.26614 0.73897 0.0
H1875 H 0.19485 0.23663 0.74068 0.0
S1876 S 0.18768 0.25217 0.14299 0.0
N1877 N 0.18904 0.26797 0.06993 0.0
N1878 N 0.18863 0.23608 0.07198 0.0
C1879 C 0.19009 0.2432 0.98331 0.0
C1880 C 0.19031 0.2605 0.98222 0.0
C1881 C 0.303 0.74035 0.314 0.0
C1882 C 0.30488 0.73109 0.39926 0.0
C1883 C 0.30311 0.75734 0.31686 0.0
C1884 C 0.30508 0.76579 0.40513 0.0
H1885 H 0.30198 0.73442 0.24401 0.0
H1886 H 0.30218 0.76391 0.2489 0.0
S1887 S 0.30849 0.74726 0.65014 0.0
N1888 N 0.30742 0.73167 0.57534 0.0
N1889 N 0.30757 0.76354 0.58075 0.0
C1890 C 0.30637 0.75668 0.49125 0.0
C1891 C 0.30628 0.73938 0.48831 0.0
C1892 C 0.50487 0.05788 0.71636 0.0
C1893 C 0.51369 0.05647 0.62934 0.0
C1894 C 0.48793 0.05726 0.71664 0.0
C1895 C 0.47911 0.05529 0.62983 0.0
H1896 H 0.51113 0.05951 0.78489 0.0
H1897 H 0.48168 0.05839 0.78552 0.0
S1898 S 0.49652 0.05195 0.38169 0.0
N1899 N 0.51241 0.05342 0.45385 0.0
N1900 N 0.48058 0.05254 0.45377 0.0
C1901 C 0.48781 0.05385 0.54219 0.0
C1902 C 0.50509 0.05437 0.5421 0.0
C1903 C 0.0087 0.94218 0.21221 0.0
C1904 C 0.01794 0.94306 0.12645 0.0
C1905 C 0.99176 0.94142 0.20903 0.0
C1906 C 0.98335 0.94149 0.11994 0.0
H1907 H 0.01463 0.94208 0.28248 0.0
H1908 H 0.98518 0.94081 0.27703 0.0
S1909 S 0.00188 0.9425 0.8743 0.0
N1910 N 0.01741 0.94326 0.94963 0.0
N1911 N 0.98562 0.94183 0.94369 0.0
C1912 C 0.99244 0.94233 0.03361 0.0
C1913 C 0.00969 0.94311 0.03684 0.0
C1914 C 0.5112 0.95454 0.38467 0.0
C1915 C 0.5205 0.94067 0.40462 0.0
C1916 C 0.49421 0.95391 0.38392 0.0
C1917 C 0.48592 0.93938 0.40308 0.0
H1918 H 0.51709 0.9659 0.36776 0.0
H1919 H 0.48752 0.96479 0.36636 0.0
S1920 S 0.5046 0.90021 0.4719 0.0
N1921 N 0.52009 0.91237 0.45264 0.0
N1922 N 0.4883 0.91118 0.4508 0.0
C1923 C 0.49509 0.92558 0.42614 0.0
C1924 C 0.51233 0.92622 0.42704 0.0
C1925 C 0.00435 0.05715 0.97982 0.0
C1926 C 0.01324 0.05904 0.89332 0.0
C1927 C 0.98739 0.05658 0.97878 0.0
C1928 C 0.97865 0.05785 0.89117 0.0
H1929 H 0.01053 0.05652 0.04921 0.0
H1930 H 0.98106 0.05556 0.04747 0.0
S1931 S 0.99623 0.06112 0.64379 0.0
N1932 N 0.01205 0.06092 0.71699 0.0
N1933 N 0.98023 0.05986 0.71509 0.0
C1934 C 0.98741 0.05925 0.80395 0.0
C1935 C 0.00467 0.05984 0.805 0.0
loop_
_geom_bond_atom_site_label_1
_geom_bond_atom_site_label_2
_geom_bond_distance
_geom_bond_site_symmetry_2
_ccdc_geom_bond_type
C0 C1 1.351 . S
C0 N3 1.368 . S
C0 H5 0.931 . S
C1 C0 1.351 . S
C1 N2 1.373 . S
C1 H29 0.930 . S
N2 C1 1.373 . S
N2 C4 1.340 . S
N3 C0 1.368 . S
N3 C4 1.321 . S
N3 Co6 2.135 1_556 S
C4 N2 1.340 . S
C4 N3 1.321 . S
C4 H28 0.930 . S
H5 C0 0.931 . S
Co6 N3 2.135 1_554 S
Co6 N9 2.121 . S
Co6 O14 2.055 . S
Co6 O17 2.039 . S
Co6 N20 2.140 . S
C7 O8 1.227 1_554 S
C7 O17 1.265 . S
O8 C7 1.227 1_556 S
N9 Co6 2.121 . S
N9 C11 1.375 . S
N9 C12 1.313 . S
C10 C11 1.338 . S
C10 N13 1.377 . S
C10 H30 0.930 . S
C11 N9 1.375 . S
C11 C10 1.338 . S
C11 H15 0.931 . S
C12 N9 1.313 . S
C12 N13 1.344 . S
C12 H16 0.930 . S
N13 C10 1.377 . S
N13 C12 1.344 . S
O14 Co6 2.055 . S
O14 C18 1.253 . S
H15 C11 0.931 . S
H16 C12 0.930 . S
O17 Co6 2.039 . S
O17 C7 1.265 . S
C18 O14 1.253 . S
C18 O19 1.227 . S
O19 C18 1.227 . S
N20 Co6 2.140 . S
N20 C23 1.346 1_554 S
N20 C24 1.345 . S
C21 C22 1.387 1_554 S
C21 C25 1.391 . S
C22 C21 1.387 1_556 S
C22 C23 1.369 . S
C22 H31 0.929 . S
C23 N20 1.346 1_556 S
C23 C22 1.369 . S
C23 H26 0.928 . S
C24 N20 1.345 . S
C24 C25 1.371 . S
C24 H27 0.931 . S
C25 C21 1.391 . S
C25 C24 1.371 . S
C25 H32 0.930 . S
H26 C23 0.928 . S
H27 C24 0.931 . S
H28 C4 0.930 . S
H29 C1 0.930 . S
H30 C10 0.930 . S
H31 C22 0.929 . S
H32 C25 0.930 . S
C33 C34 1.351 . S
C33 N36 1.368 . S
C33 H38 0.931 . S
C34 C33 1.351 . S
C34 N35 1.373 . S
C34 H62 0.930 1_554 S
N35 C34 1.373 . S
N35 C37 1.340 . S
N36 C33 1.368 . S
N36 C37 1.321 . S
N36 Co39 2.135 . S
C37 N35 1.340 . S
C37 N36 1.321 . S
C37 H61 0.930 . S
H38 C33 0.931 . S
Co39 N36 2.135 . S
Co39 N42 2.121 . S
Co39 O47 2.055 . S
Co39 O50 2.039 . S
Co39 N53 2.140 . S
C40 O41 1.227 . S
C40 O50 1.265 . S
O41 C40 1.227 . S
N42 Co39 2.121 . S
N42 C44 1.375 . S
N42 C45 1.313 . S
C43 C44 1.338 . S
C43 N46 1.377 . S
C43 H63 0.930 . S
C44 N42 1.375 . S
C44 C43 1.338 . S
C44 H48 0.931 . S
C45 N42 1.313 . S
C45 N46 1.344 . S
C45 H49 0.930 . S
N46 C43 1.377 . S
N46 C45 1.344 . S
O47 Co39 2.055 . S
O47 C51 1.253 . S
H48 C44 0.931 . S
H49 C45 0.930 . S
O50 Co39 2.039 . S
O50 C40 1.265 . S
C51 O47 1.253 . S
C51 O52 1.227 . S
O52 C51 1.227 . S
N53 Co39 2.140 . S
N53 C56 1.346 . S
N53 C57 1.345 . S
C54 C55 1.387 . S
C54 C58 1.391 . S
C55 C54 1.387 . S
C55 C56 1.369 . S
C55 H64 0.929 . S
C56 N53 1.346 . S
C56 C55 1.369 . S
C56 H59 0.928 . S
C57 N53 1.345 . S
C57 C58 1.371 . S
C57 H60 0.931 . S
C58 C54 1.391 . S
C58 C57 1.371 . S
C58 H65 0.930 . S
H59 C56 0.928 . S
H60 C57 0.931 . S
H61 C37 0.930 . S
H62 C34 0.930 1_556 S
H63 C43 0.930 . S
H64 C55 0.929 . S
H65 C58 0.930 . S
C66 C67 1.351 . S
C66 N69 1.368 . S
C66 H71 0.931 . S
C67 C66 1.351 . S
C67 N68 1.373 . S
C67 H95 0.930 . S
N68 C67 1.373 . S
N68 C70 1.340 . S
N69 C66 1.368 . S
N69 C70 1.321 . S
N69 Co72 2.135 . S
C70 N68 1.340 . S
C70 N69 1.321 . S
C70 H94 0.930 . S
H71 C66 0.931 . S
Co72 N69 2.135 . S
Co72 N75 2.121 . S
Co72 O80 2.055 . S
Co72 O83 2.039 . S
Co72 N86 2.140 . S
C73 O74 1.227 . S
C73 O83 1.265 . S
O74 C73 1.227 . S
N75 Co72 2.121 . S
N75 C77 1.375 . S
N75 C78 1.313 . S
C76 C77 1.338 . S
C76 N79 1.377 . S
C76 H96 0.930 . S
C77 N75 1.375 . S
C77 C76 1.338 . S
C77 H81 0.931 . S
C78 N75 1.313 . S
C78 N79 1.344 . S
C78 H82 0.930 . S
N79 C76 1.377 . S
N79 C78 1.344 . S
O80 Co72 2.055 . S
O80 C84 1.253 . S
H81 C77 0.931 . S
H82 C78 0.930 . S
O83 Co72 2.039 . S
O83 C73 1.265 . S
C84 O80 1.253 . S
C84 O85 1.227 . S
O85 C84 1.227 . S
N86 Co72 2.140 . S
N86 C89 1.346 . S
N86 C90 1.345 . S
C87 C88 1.387 . S
C87 C91 1.391 . S
C88 C87 1.387 . S
C88 C89 1.369 . S
C88 H97 0.929 . S
C89 N86 1.346 . S
C89 C88 1.369 . S
C89 H92 0.928 . S
C90 N86 1.345 . S
C90 C91 1.371 . S
C90 H93 0.931 . S
C91 C87 1.391 . S
C91 C90 1.371 . S
C91 H98 0.930 . S
H92 C89 0.928 . S
H93 C90 0.931 . S
H94 C70 0.930 . S
H95 C67 0.930 . S
H96 C76 0.930 . S
H97 C88 0.929 . S
H98 C91 0.930 . S
C99 C100 1.351 . S
C99 N102 1.368 . S
C99 H104 0.931 . S
C100 C99 1.351 . S
C100 N101 1.373 . S
C100 H128 0.930 . S
N101 C100 1.373 . S
N101 C103 1.340 . S
N102 C99 1.368 . S
N102 C103 1.321 . S
N102 Co105 2.135 . S
C103 N101 1.340 . S
C103 N102 1.321 . S
C103 H127 0.930 . S
H104 C99 0.931 . S
Co105 N102 2.135 . S
Co105 N108 2.121 . S
Co105 O113 2.055 . S
Co105 O116 2.039 . S
Co105 N119 2.140 . S
C106 O107 1.227 . S
C106 O116 1.265 . S
O107 C106 1.227 . S
N108 Co105 2.121 . S
N108 C110 1.375 . S
N108 C111 1.313 1_556 S
C109 C110 1.338 1_554 S
C109 N112 1.377 . S
C109 H129 0.930 . S
C110 N108 1.375 . S
C110 C109 1.338 1_556 S
C110 H114 0.931 . S
C111 N108 1.313 1_554 S
C111 N112 1.344 . S
C111 H115 0.930 . S
N112 C109 1.377 . S
N112 C111 1.344 . S
O113 Co105 2.055 . S
O113 C117 1.253 . S
H114 C110 0.931 . S
H115 C111 0.930 . S
O116 Co105 2.039 . S
O116 C106 1.265 . S
C117 O113 1.253 . S
C117 O118 1.227 . S
O118 C117 1.227 . S
N119 Co105 2.140 . S
N119 C122 1.346 . S
N119 C123 1.345 . S
C120 C121 1.387 . S
C120 C124 1.391 . S
C121 C120 1.387 . S
C121 C122 1.369 . S
C121 H130 0.929 . S
C122 N119 1.346 . S
C122 C121 1.369 . S
C122 H125 0.928 . S
C123 N119 1.345 . S
C123 C124 1.371 . S
C123 H126 0.931 . S
C124 C120 1.391 . S
C124 C123 1.371 . S
C124 H131 0.930 . S
H125 C122 0.928 . S
H126 C123 0.931 . S
H127 C103 0.930 . S
H128 C100 0.930 . S
H129 C109 0.930 . S
H130 C121 0.929 . S
H131 C124 0.930 . S
C132 C133 1.351 . S
C132 N135 1.368 . S
C132 H137 0.931 . S
C133 C132 1.351 . S
C133 N134 1.373 . S
C133 H161 0.930 . S
N134 C133 1.373 . S
N134 C136 1.340 . S
N135 C132 1.368 . S
N135 C136 1.321 . S
N135 Co138 2.135 1_554 S
C136 N134 1.340 . S
C136 N135 1.321 . S
C136 H160 0.930 . S
H137 C132 0.931 . S
Co138 N135 2.135 1_556 S
Co138 N141 2.121 . S
Co138 O146 2.055 . S
Co138 O149 2.039 . S
Co138 N152 2.140 . S
C139 O140 1.227 1_556 S
C139 O149 1.265 . S
O140 C139 1.227 1_554 S
N141 Co138 2.121 . S
N141 C143 1.375 . S
N141 C144 1.313 . S
C142 C143 1.338 . S
C142 N145 1.377 . S
C142 H162 0.930 . S
C143 N141 1.375 . S
C143 C142 1.338 . S
C143 H147 0.931 . S
C144 N141 1.313 . S
C144 N145 1.344 . S
C144 H148 0.930 . S
N145 C142 1.377 . S
N145 C144 1.344 . S
O146 Co138 2.055 . S
O146 C150 1.253 . S
H147 C143 0.931 . S
H148 C144 0.930 . S
O149 Co138 2.039 . S
O149 C139 1.265 . S
C150 O146 1.253 . S
C150 O151 1.227 . S
O151 C150 1.227 . S
N152 Co138 2.140 . S
N152 C155 1.346 1_556 S
N152 C156 1.345 . S
C153 C154 1.387 1_556 S
C153 C157 1.391 . S
C154 C153 1.387 1_554 S
C154 C155 1.369 . S
C154 H163 0.929 . S
C155 N152 1.346 1_554 S
C155 C154 1.369 . S
C155 H158 0.928 . S
C156 N152 1.345 . S
C156 C157 1.371 . S
C156 H159 0.931 . S
C157 C153 1.391 . S
C157 C156 1.371 . S
C157 H164 0.930 . S
H158 C155 0.928 . S
H159 C156 0.931 . S
H160 C136 0.930 . S
H161 C133 0.930 . S
H162 C142 0.930 . S
H163 C154 0.929 . S
H164 C157 0.930 . S
C165 C166 1.351 . S
C165 N168 1.368 . S
C165 H170 0.931 . S
C166 C165 1.351 . S
C166 N167 1.373 . S
C166 H194 0.930 . S
N167 C166 1.373 . S
N167 C169 1.340 . S
N168 C165 1.368 . S
N168 C169 1.321 . S
N168 Co171 2.135 . S
C169 N167 1.340 . S
C169 N168 1.321 . S
C169 H193 0.930 . S
H170 C165 0.931 . S
Co171 N168 2.135 . S
Co171 N174 2.121 . S
Co171 O179 2.055 . S
Co171 O182 2.039 . S
Co171 N185 2.140 . S
C172 O173 1.227 . S
C172 O182 1.265 . S
O173 C172 1.227 . S
N174 Co171 2.121 . S
N174 C176 1.375 . S
N174 C177 1.313 1_554 S
C175 C176 1.338 1_556 S
C175 N178 1.377 . S
C175 H195 0.930 . S
C176 N174 1.375 . S
C176 C175 1.338 1_554 S
C176 H180 0.931 . S
C177 N174 1.313 1_556 S
C177 N178 1.344 . S
C177 H181 0.930 . S
N178 C175 1.377 . S
N178 C177 1.344 . S
O179 Co171 2.055 . S
O179 C183 1.253 . S
H180 C176 0.931 . S
H181 C177 0.930 . S
O182 Co171 2.039 . S
O182 C172 1.265 . S
C183 O179 1.253 . S
C183 O184 1.227 . S
O184 C183 1.227 . S
N185 Co171 2.140 . S
N185 C188 1.346 . S
N185 C189 1.345 . S
C186 C187 1.387 . S
C186 C190 1.391 . S
C187 C186 1.387 . S
C187 C188 1.369 . S
C187 H196 0.929 . S
C188 N185 1.346 . S
C188 C187 1.369 . S
C188 H191 0.928 . S
C189 N185 1.345 . S
C189 C190 1.371 . S
C189 H192 0.931 . S
C190 C186 1.391 . S
C190 C189 1.371 . S
C190 H197 0.930 . S
H191 C188 0.928 . S
H192 C189 0.931 . S
H193 C169 0.930 . S
H194 C166 0.930 . S
H195 C175 0.930 . S
H196 C187 0.929 . S
H197 C190 0.930 . S
C198 C199 1.351 . S
C198 N201 1.368 . S
C198 H203 0.931 . S
C199 C198 1.351 . S
C199 N200 1.373 . S
C199 H227 0.930 . S
N200 C199 1.373 . S
N200 C202 1.340 . S
N201 C198 1.368 . S
N201 C202 1.321 . S
N201 Co204 2.135 . S
C202 N200 1.340 . S
C202 N201 1.321 . S
C202 H226 0.930 . S
H203 C198 0.931 . S
Co204 N201 2.135 . S
Co204 N207 2.121 . S
Co204 O212 2.055 . S
Co204 O215 2.039 . S
Co204 N218 2.140 . S
C205 O206 1.227 . S
C205 O215 1.265 . S
O206 C205 1.227 . S
N207 Co204 2.121 . S
N207 C209 1.375 . S
N207 C210 1.313 . S
C208 C209 1.338 . S
C208 N211 1.377 . S
C208 H228 0.930 . S
C209 N207 1.375 . S
C209 C208 1.338 . S
C209 H213 0.931 . S
C210 N207 1.313 . S
C210 N211 1.344 . S
C210 H214 0.930 . S
N211 C208 1.377 . S
N211 C210 1.344 . S
O212 Co204 2.055 . S
O212 C216 1.253 . S
H213 C209 0.931 . S
H214 C210 0.930 . S
O215 Co204 2.039 . S
O215 C205 1.265 . S
C216 O212 1.253 . S
C216 O217 1.227 . S
O217 C216 1.227 . S
N218 Co204 2.140 . S
N218 C221 1.346 . S
N218 C222 1.345 . S
C219 C220 1.387 . S
C219 C223 1.391 . S
C220 C219 1.387 . S
C220 C221 1.369 . S
C220 H229 0.929 . S
C221 N218 1.346 . S
C221 C220 1.369 . S
C221 H224 0.928 . S
C222 N218 1.345 . S
C222 C223 1.371 . S
C222 H225 0.931 . S
C223 C219 1.391 . S
C223 C222 1.371 . S
C223 H230 0.930 . S
H224 C221 0.928 . S
H225 C222 0.931 . S
H226 C202 0.930 . S
H227 C199 0.930 . S
H228 C208 0.930 . S
H229 C220 0.929 . S
H230 C223 0.930 . S
C231 C232 1.351 . S
C231 N234 1.368 . S
C231 H236 0.931 . S
C232 C231 1.351 . S
C232 N233 1.373 . S
C232 H260 0.930 1_556 S
N233 C232 1.373 . S
N233 C235 1.340 . S
N234 C231 1.368 . S
N234 C235 1.321 . S
N234 Co237 2.135 . S
C235 N233 1.340 . S
C235 N234 1.321 . S
C235 H259 0.930 . S
H236 C231 0.931 . S
Co237 N234 2.135 . S
Co237 N240 2.121 . S
Co237 O245 2.055 . S
Co237 O248 2.039 . S
Co237 N251 2.140 . S
C238 O239 1.227 . S
C238 O248 1.265 . S
O239 C238 1.227 . S
N240 Co237 2.121 . S
N240 C242 1.375 . S
N240 C243 1.313 . S
C241 C242 1.338 . S
C241 N244 1.377 . S
C241 H261 0.930 . S
C242 N240 1.375 . S
C242 C241 1.338 . S
C242 H246 0.931 . S
C243 N240 1.313 . S
C243 N244 1.344 . S
C243 H247 0.930 . S
N244 C241 1.377 . S
N244 C243 1.344 . S
O245 Co237 2.055 . S
O245 C249 1.253 . S
H246 C242 0.931 . S
H247 C243 0.930 . S
O248 Co237 2.039 . S
O248 C238 1.265 . S
C249 O245 1.253 . S
C249 O250 1.227 . S
O250 C249 1.227 . S
N251 Co237 2.140 . S
N251 C254 1.346 . S
N251 C255 1.345 . S
C252 C253 1.387 . S
C252 C256 1.391 . S
C253 C252 1.387 . S
C253 C254 1.369 . S
C253 H262 0.929 . S
C254 N251 1.346 . S
C254 C253 1.369 . S
C254 H257 0.928 . S
C255 N251 1.345 . S
C255 C256 1.371 . S
C255 H258 0.931 . S
C256 C252 1.391 . S
C256 C255 1.371 . S
C256 H263 0.930 . S
H257 C254 0.928 . S
H258 C255 0.931 . S
H259 C235 0.930 . S
H260 C232 0.930 1_554 S
H261 C241 0.930 . S
H262 C253 0.929 . S
H263 C256 0.930 . S
C264 C265 1.351 . S
C264 N267 1.368 . S
C264 H269 0.931 . S
C265 C264 1.351 . S
C265 N266 1.373 . S
C265 H293 0.930 . S
N266 C265 1.373 . S
N266 C268 1.340 . S
N267 C264 1.368 . S
N267 C268 1.321 . S
N267 Co270 2.135 1_554 S
C268 N266 1.340 . S
C268 N267 1.321 . S
C268 H292 0.930 . S
H269 C264 0.931 . S
Co270 N267 2.135 1_556 S
Co270 N273 2.121 . S
Co270 O278 2.055 . S
Co270 O281 2.039 . S
Co270 N284 2.140 . S
C271 O272 1.227 1_556 S
C271 O281 1.265 . S
O272 C271 1.227 1_554 S
N273 Co270 2.121 . S
N273 C275 1.375 . S
N273 C276 1.313 . S
C274 C275 1.338 . S
C274 N277 1.377 . S
C274 H294 0.930 . S
C275 N273 1.375 . S
C275 C274 1.338 . S
C275 H279 0.931 . S
C276 N273 1.313 . S
C276 N277 1.344 . S
C276 H280 0.930 . S
N277 C274 1.377 . S
N277 C276 1.344 . S
O278 Co270 2.055 . S
O278 C282 1.253 . S
H279 C275 0.931 . S
H280 C276 0.930 . S
O281 Co270 2.039 . S
O281 C271 1.265 . S
C282 O278 1.253 . S
C282 O283 1.227 . S
O283 C282 1.227 . S
N284 Co270 2.140 . S
N284 C287 1.346 1_556 S
N284 C288 1.345 . S
C285 C286 1.387 1_556 S
C285 C289 1.391 . S
C286 C285 1.387 1_554 S
C286 C287 1.369 . S
C286 H295 0.929 . S
C287 N284 1.346 1_554 S
C287 C286 1.369 . S
C287 H290 0.928 . S
C288 N284 1.345 . S
C288 C289 1.371 . S
C288 H291 0.931 . S
C289 C285 1.391 . S
C289 C288 1.371 . S
C289 H296 0.930 . S
H290 C287 0.928 . S
H291 C288 0.931 . S
H292 C268 0.930 . S
H293 C265 0.930 . S
H294 C274 0.930 . S
H295 C286 0.929 . S
H296 C289 0.930 . S
C297 C298 1.351 . S
C297 N300 1.368 . S
C297 H302 0.931 . S
C298 C297 1.351 . S
C298 N299 1.373 . S
C298 H326 0.930 1_556 S
N299 C298 1.373 . S
N299 C301 1.340 . S
N300 C297 1.368 . S
N300 C301 1.321 . S
N300 Co303 2.135 . S
C301 N299 1.340 . S
C301 N300 1.321 . S
C301 H325 0.930 . S
H302 C297 0.931 . S
Co303 N300 2.135 . S
Co303 N306 2.121 . S
Co303 O311 2.055 . S
Co303 O314 2.039 . S
Co303 N317 2.140 . S
C304 O305 1.227 . S
C304 O314 1.265 . S
O305 C304 1.227 . S
N306 Co303 2.121 . S
N306 C308 1.375 . S
N306 C309 1.313 . S
C307 C308 1.338 . S
C307 N310 1.377 . S
C307 H327 0.930 . S
C308 N306 1.375 . S
C308 C307 1.338 . S
C308 H312 0.931 . S
C309 N306 1.313 . S
C309 N310 1.344 . S
C309 H313 0.930 . S
N310 C307 1.377 . S
N310 C309 1.344 . S
O311 Co303 2.055 . S
O311 C315 1.253 . S
H312 C308 0.931 . S
H313 C309 0.930 . S
O314 Co303 2.039 . S
O314 C304 1.265 . S
C315 O311 1.253 . S
C315 O316 1.227 . S
O316 C315 1.227 . S
N317 Co303 2.140 . S
N317 C320 1.346 . S
N317 C321 1.345 . S
C318 C319 1.387 . S
C318 C322 1.391 . S
C319 C318 1.387 . S
C319 C320 1.369 . S
C319 H328 0.929 . S
C320 N317 1.346 . S
C320 C319 1.369 . S
C320 H323 0.928 . S
C321 N317 1.345 . S
C321 C322 1.371 . S
C321 H324 0.931 . S
C322 C318 1.391 . S
C322 C321 1.371 . S
C322 H329 0.930 . S
H323 C320 0.928 . S
H324 C321 0.931 . S
H325 C301 0.930 . S
H326 C298 0.930 1_554 S
H327 C307 0.930 . S
H328 C319 0.929 . S
H329 C322 0.930 . S
C330 C331 1.351 . S
C330 N333 1.368 . S
C330 H335 0.931 . S
C331 C330 1.351 . S
C331 N332 1.373 . S
C331 H359 0.930 . S
N332 C331 1.373 . S
N332 C334 1.340 . S
N333 C330 1.368 . S
N333 C334 1.321 . S
N333 Co336 2.135 . S
C334 N332 1.340 . S
C334 N333 1.321 . S
C334 H358 0.930 . S
H335 C330 0.931 . S
Co336 N333 2.135 . S
Co336 N339 2.121 . S
Co336 O344 2.055 . S
Co336 O347 2.039 . S
Co336 N350 2.140 . S
C337 O338 1.227 . S
C337 O347 1.265 . S
O338 C337 1.227 . S
N339 Co336 2.121 . S
N339 C341 1.375 . S
N339 C342 1.313 . S
C340 C341 1.338 . S
C340 N343 1.377 . S
C340 H360 0.930 . S
C341 N339 1.375 . S
C341 C340 1.338 . S
C341 H345 0.931 . S
C342 N339 1.313 . S
C342 N343 1.344 . S
C342 H346 0.930 . S
N343 C340 1.377 . S
N343 C342 1.344 . S
O344 Co336 2.055 . S
O344 C348 1.253 . S
H345 C341 0.931 . S
H346 C342 0.930 . S
O347 Co336 2.039 . S
O347 C337 1.265 . S
C348 O344 1.253 . S
C348 O349 1.227 . S
O349 C348 1.227 . S
N350 Co336 2.140 . S
N350 C353 1.346 . S
N350 C354 1.345 . S
C351 C352 1.387 . S
C351 C355 1.391 . S
C352 C351 1.387 . S
C352 C353 1.369 . S
C352 H361 0.929 . S
C353 N350 1.346 . S
C353 C352 1.369 . S
C353 H356 0.928 . S
C354 N350 1.345 . S
C354 C355 1.371 . S
C354 H357 0.931 . S
C355 C351 1.391 . S
C355 C354 1.371 . S
C355 H362 0.930 . S
H356 C353 0.928 . S
H357 C354 0.931 . S
H358 C334 0.930 . S
H359 C331 0.930 . S
H360 C340 0.930 . S
H361 C352 0.929 . S
H362 C355 0.930 . S
C363 C364 1.351 . S
C363 N366 1.368 . S
C363 H368 0.931 . S
C364 C363 1.351 . S
C364 N365 1.373 . S
C364 H392 0.930 . S
N365 C364 1.373 . S
N365 C367 1.340 . S
N366 C363 1.368 . S
N366 C367 1.321 . S
N366 Co369 2.135 . S
C367 N365 1.340 . S
C367 N366 1.321 . S
C367 H391 0.930 . S
H368 C363 0.931 . S
Co369 N366 2.135 . S
Co369 N372 2.121 . S
Co369 O377 2.055 . S
Co369 O380 2.039 . S
Co369 N383 2.140 . S
C370 O371 1.227 . S
C370 O380 1.265 . S
O371 C370 1.227 . S
N372 Co369 2.121 . S
N372 C374 1.375 . S
N372 C375 1.313 1_554 S
C373 C374 1.338 1_556 S
C373 N376 1.377 . S
C373 H393 0.930 . S
C374 N372 1.375 . S
C374 C373 1.338 1_554 S
C374 H378 0.931 . S
C375 N372 1.313 1_556 S
C375 N376 1.344 . S
C375 H379 0.930 . S
N376 C373 1.377 . S
N376 C375 1.344 . S
O377 Co369 2.055 . S
O377 C381 1.253 . S
H378 C374 0.931 . S
H379 C375 0.930 . S
O380 Co369 2.039 . S
O380 C370 1.265 . S
C381 O377 1.253 . S
C381 O382 1.227 . S
O382 C381 1.227 . S
N383 Co369 2.140 . S
N383 C386 1.346 . S
N383 C387 1.345 . S
C384 C385 1.387 . S
C384 C388 1.391 . S
C385 C384 1.387 . S
C385 C386 1.369 . S
C385 H394 0.929 . S
C386 N383 1.346 . S
C386 C385 1.369 . S
C386 H389 0.928 . S
C387 N383 1.345 . S
C387 C388 1.371 . S
C387 H390 0.931 . S
C388 C384 1.391 . S
C388 C387 1.371 . S
C388 H395 0.930 . S
H389 C386 0.928 . S
H390 C387 0.931 . S
H391 C367 0.930 . S
H392 C364 0.930 . S
H393 C373 0.930 . S
H394 C385 0.929 . S
H395 C388 0.930 . S
C396 C397 1.351 . S
C396 N399 1.368 . S
C396 H401 0.931 . S
C397 C396 1.351 . S
C397 N398 1.373 . S
C397 H425 0.930 . S
N398 C397 1.373 . S
N398 C400 1.340 . S
N399 C396 1.368 . S
N399 C400 1.321 . S
N399 Co402 2.135 1_556 S
C400 N398 1.340 . S
C400 N399 1.321 . S
C400 H424 0.930 . S
H401 C396 0.931 . S
Co402 N399 2.135 1_554 S
Co402 N405 2.121 . S
Co402 O410 2.055 . S
Co402 O413 2.039 . S
Co402 N416 2.140 . S
C403 O404 1.227 1_554 S
C403 O413 1.265 . S
O404 C403 1.227 1_556 S
N405 Co402 2.121 . S
N405 C407 1.375 . S
N405 C408 1.313 . S
C406 C407 1.338 . S
C406 N409 1.377 . S
C406 H426 0.930 . S
C407 N405 1.375 . S
C407 C406 1.338 . S
C407 H411 0.931 . S
C408 N405 1.313 . S
C408 N409 1.344 . S
C408 H412 0.930 . S
N409 C406 1.377 . S
N409 C408 1.344 . S
O410 Co402 2.055 . S
O410 C414 1.253 . S
H411 C407 0.931 . S
H412 C408 0.930 . S
O413 Co402 2.039 . S
O413 C403 1.265 . S
C414 O410 1.253 . S
C414 O415 1.227 . S
O415 C414 1.227 . S
N416 Co402 2.140 . S
N416 C419 1.346 1_554 S
N416 C420 1.345 . S
C417 C418 1.387 1_554 S
C417 C421 1.391 . S
C418 C417 1.387 1_556 S
C418 C419 1.369 . S
C418 H427 0.929 . S
C419 N416 1.346 1_556 S
C419 C418 1.369 . S
C419 H422 0.928 . S
C420 N416 1.345 . S
C420 C421 1.371 . S
C420 H423 0.931 . S
C421 C417 1.391 . S
C421 C420 1.371 . S
C421 H428 0.930 . S
H422 C419 0.928 . S
H423 C420 0.931 . S
H424 C400 0.930 . S
H425 C397 0.930 . S
H426 C406 0.930 . S
H427 C418 0.929 . S
H428 C421 0.930 . S
C429 C430 1.351 . S
C429 N432 1.368 . S
C429 H434 0.931 . S
C430 C429 1.351 . S
C430 N431 1.373 . S
C430 H458 0.930 . S
N431 C430 1.373 . S
N431 C433 1.340 . S
N432 C429 1.368 . S
N432 C433 1.321 . S
N432 Co435 2.135 . S
C433 N431 1.340 . S
C433 N432 1.321 . S
C433 H457 0.930 . S
H434 C429 0.931 . S
Co435 N432 2.135 . S
Co435 N438 2.121 . S
Co435 O443 2.055 . S
Co435 O446 2.039 . S
Co435 N449 2.140 . S
C436 O437 1.227 . S
C436 O446 1.265 . S
O437 C436 1.227 . S
N438 Co435 2.121 . S
N438 C440 1.375 . S
N438 C441 1.313 1_556 S
C439 C440 1.338 1_554 S
C439 N442 1.377 . S
C439 H459 0.930 . S
C440 N438 1.375 . S
C440 C439 1.338 1_556 S
C440 H444 0.931 . S
C441 N438 1.313 1_554 S
C441 N442 1.344 . S
C441 H445 0.930 . S
N442 C439 1.377 . S
N442 C441 1.344 . S
O443 Co435 2.055 . S
O443 C447 1.253 . S
H444 C440 0.931 . S
H445 C441 0.930 . S
O446 Co435 2.039 . S
O446 C436 1.265 . S
C447 O443 1.253 . S
C447 O448 1.227 . S
O448 C447 1.227 . S
N449 Co435 2.140 . S
N449 C452 1.346 . S
N449 C453 1.345 . S
C450 C451 1.387 . S
C450 C454 1.391 . S
C451 C450 1.387 . S
C451 C452 1.369 . S
C451 H460 0.929 . S
C452 N449 1.346 . S
C452 C451 1.369 . S
C452 H455 0.928 . S
C453 N449 1.345 . S
C453 C454 1.371 . S
C453 H456 0.931 . S
C454 C450 1.391 . S
C454 C453 1.371 . S
C454 H461 0.930 . S
H455 C452 0.928 . S
H456 C453 0.931 . S
H457 C433 0.930 . S
H458 C430 0.930 . S
H459 C439 0.930 . S
H460 C451 0.929 . S
H461 C454 0.930 . S
C462 C463 1.351 . S
C462 N465 1.368 . S
C462 H467 0.931 . S
C463 C462 1.351 . S
C463 N464 1.373 . S
C463 H491 0.930 . S
N464 C463 1.373 . S
N464 C466 1.340 . S
N465 C462 1.368 . S
N465 C466 1.321 . S
N465 Co468 2.135 . S
C466 N464 1.340 . S
C466 N465 1.321 . S
C466 H490 0.930 . S
H467 C462 0.931 . S
Co468 N465 2.135 . S
Co468 N471 2.121 . S
Co468 O476 2.055 . S
Co468 O479 2.039 . S
Co468 N482 2.140 . S
C469 O470 1.227 . S
C469 O479 1.265 . S
O470 C469 1.227 . S
N471 Co468 2.121 . S
N471 C473 1.375 . S
N471 C474 1.313 . S
C472 C473 1.338 . S
C472 N475 1.377 . S
C472 H492 0.930 . S
C473 N471 1.375 . S
C473 C472 1.338 . S
C473 H477 0.931 . S
C474 N471 1.313 . S
C474 N475 1.344 . S
C474 H478 0.930 . S
N475 C472 1.377 . S
N475 C474 1.344 . S
O476 Co468 2.055 . S
O476 C480 1.253 . S
H477 C473 0.931 . S
H478 C474 0.930 . S
O479 Co468 2.039 . S
O479 C469 1.265 . S
C480 O476 1.253 . S
C480 O481 1.227 . S
O481 C480 1.227 . S
N482 Co468 2.140 . S
N482 C485 1.346 . S
N482 C486 1.345 . S
C483 C484 1.387 . S
C483 C487 1.391 . S
C484 C483 1.387 . S
C484 C485 1.369 . S
C484 H493 0.929 . S
C485 N482 1.346 . S
C485 C484 1.369 . S
C485 H488 0.928 . S
C486 N482 1.345 . S
C486 C487 1.371 . S
C486 H489 0.931 . S
C487 C483 1.391 . S
C487 C486 1.371 . S
C487 H494 0.930 . S
H488 C485 0.928 . S
H489 C486 0.931 . S
H490 C466 0.930 . S
H491 C463 0.930 . S
H492 C472 0.930 . S
H493 C484 0.929 . S
H494 C487 0.930 . S
C495 C496 1.351 . S
C495 N498 1.368 . S
C495 H500 0.931 . S
C496 C495 1.351 . S
C496 N497 1.373 . S
C496 H524 0.930 1_554 S
N497 C496 1.373 . S
N497 C499 1.340 . S
N498 C495 1.368 . S
N498 C499 1.321 . S
N498 Co501 2.135 . S
C499 N497 1.340 . S
C499 N498 1.321 . S
C499 H523 0.930 . S
H500 C495 0.931 . S
Co501 N498 2.135 . S
Co501 N504 2.121 . S
Co501 O509 2.055 . S
Co501 O512 2.039 . S
Co501 N515 2.140 . S
C502 O503 1.227 . S
C502 O512 1.265 . S
O503 C502 1.227 . S
N504 Co501 2.121 . S
N504 C506 1.375 . S
N504 C507 1.313 . S
C505 C506 1.338 . S
C505 N508 1.377 . S
C505 H525 0.930 . S
C506 N504 1.375 . S
C506 C505 1.338 . S
C506 H510 0.931 . S
C507 N504 1.313 . S
C507 N508 1.344 . S
C507 H511 0.930 . S
N508 C505 1.377 . S
N508 C507 1.344 . S
O509 Co501 2.055 . S
O509 C513 1.253 . S
H510 C506 0.931 . S
H511 C507 0.930 . S
O512 Co501 2.039 . S
O512 C502 1.265 . S
C513 O509 1.253 . S
C513 O514 1.227 . S
O514 C513 1.227 . S
N515 Co501 2.140 . S
N515 C518 1.346 . S
N515 C519 1.345 . S
C516 C517 1.387 . S
C516 C520 1.391 . S
C517 C516 1.387 . S
C517 C518 1.369 . S
C517 H526 0.929 . S
C518 N515 1.346 . S
C518 C517 1.369 . S
C518 H521 0.928 . S
C519 N515 1.345 . S
C519 C520 1.371 . S
C519 H522 0.931 . S
C520 C516 1.391 . S
C520 C519 1.371 . S
C520 H527 0.930 . S
H521 C518 0.928 . S
H522 C519 0.931 . S
H523 C499 0.930 . S
H524 C496 0.930 1_556 S
H525 C505 0.930 . S
H526 C517 0.929 . S
H527 C520 0.930 . S
C528 C529 1.351 . S
C528 N531 1.368 . S
C528 H533 0.931 . S
C529 C528 1.351 . S
C529 N530 1.373 . S
C529 H557 0.930 . S
N530 C529 1.373 . S
N530 C532 1.340 . S
N531 C528 1.368 . S
N531 C532 1.321 . S
N531 Co534 2.135 . S
C532 N530 1.340 . S
C532 N531 1.321 . S
C532 H556 0.930 . S
H533 C528 0.931 . S
Co534 N531 2.135 . S
Co534 N537 2.121 . S
Co534 O542 2.055 . S
Co534 O545 2.039 . S
Co534 N548 2.140 . S
C535 O536 1.227 . S
C535 O545 1.265 . S
O536 C535 1.227 . S
N537 Co534 2.121 . S
N537 C539 1.375 . S
N537 C540 1.313 . S
C538 C539 1.338 . S
C538 N541 1.377 . S
C538 H558 0.930 . S
C539 N537 1.375 . S
C539 C538 1.338 . S
C539 H543 0.931 . S
C540 N537 1.313 . S
C540 N541 1.344 . S
C540 H544 0.930 . S
N541 C538 1.377 . S
N541 C540 1.344 . S
O542 Co534 2.055 . S
O542 C546 1.253 . S
H543 C539 0.931 . S
H544 C540 0.930 . S
O545 Co534 2.039 . S
O545 C535 1.265 . S
C546 O542 1.253 . S
C546 O547 1.227 . S
O547 C546 1.227 . S
N548 Co534 2.140 . S
N548 C551 1.346 . S
N548 C552 1.345 . S
C549 C550 1.387 . S
C549 C553 1.391 . S
C550 C549 1.387 . S
C550 C551 1.369 . S
C550 H559 0.929 . S
C551 N548 1.346 . S
C551 C550 1.369 . S
C551 H554 0.928 . S
C552 N548 1.345 . S
C552 C553 1.371 . S
C552 H555 0.931 . S
C553 C549 1.391 . S
C553 C552 1.371 . S
C553 H560 0.930 . S
H554 C551 0.928 . S
H555 C552 0.931 . S
H556 C532 0.930 . S
H557 C529 0.930 . S
H558 C538 0.930 . S
H559 C550 0.929 . S
H560 C553 0.930 . S
C561 C562 1.351 . S
C561 N564 1.368 . S
C561 H566 0.931 . S
C562 C561 1.351 . S
C562 N563 1.373 . S
C562 H590 0.930 . S
N563 C562 1.373 . S
N563 C565 1.340 . S
N564 C561 1.368 . S
N564 C565 1.321 . S
N564 Co567 2.135 . S
C565 N563 1.340 . S
C565 N564 1.321 . S
C565 H589 0.930 . S
H566 C561 0.931 . S
Co567 N564 2.135 . S
Co567 N570 2.121 . S
Co567 O575 2.055 . S
Co567 O578 2.039 . S
Co567 N581 2.140 . S
C568 O569 1.227 . S
C568 O578 1.265 . S
O569 C568 1.227 . S
N570 Co567 2.121 . S
N570 C572 1.375 . S
N570 C573 1.313 1_556 S
C571 C572 1.338 1_554 S
C571 N574 1.377 . S
C571 H591 0.930 . S
C572 N570 1.375 . S
C572 C571 1.338 1_556 S
C572 H576 0.931 . S
C573 N570 1.313 1_554 S
C573 N574 1.344 . S
C573 H577 0.930 . S
N574 C571 1.377 . S
N574 C573 1.344 . S
O575 Co567 2.055 . S
O575 C579 1.253 . S
H576 C572 0.931 . S
H577 C573 0.930 . S
O578 Co567 2.039 . S
O578 C568 1.265 . S
C579 O575 1.253 . S
C579 O580 1.227 . S
O580 C579 1.227 . S
N581 Co567 2.140 . S
N581 C584 1.346 . S
N581 C585 1.345 . S
C582 C583 1.387 . S
C582 C586 1.391 . S
C583 C582 1.387 . S
C583 C584 1.369 . S
C583 H592 0.929 . S
C584 N581 1.346 . S
C584 C583 1.369 . S
C584 H587 0.928 . S
C585 N581 1.345 . S
C585 C586 1.371 . S
C585 H588 0.931 . S
C586 C582 1.391 . S
C586 C585 1.371 . S
C586 H593 0.930 . S
H587 C584 0.928 . S
H588 C585 0.931 . S
H589 C565 0.930 . S
H590 C562 0.930 . S
H591 C571 0.930 . S
H592 C583 0.929 . S
H593 C586 0.930 . S
C594 C595 1.351 . S
C594 N597 1.368 . S
C594 H599 0.931 . S
C595 C594 1.351 . S
C595 N596 1.373 . S
C595 H623 0.930 . S
N596 C595 1.373 . S
N596 C598 1.340 . S
N597 C594 1.368 . S
N597 C598 1.321 . S
N597 Co600 2.135 1_556 S
C598 N596 1.340 . S
C598 N597 1.321 . S
C598 H622 0.930 . S
H599 C594 0.931 . S
Co600 N597 2.135 1_554 S
Co600 N603 2.121 . S
Co600 O608 2.055 . S
Co600 O611 2.039 . S
Co600 N614 2.140 . S
C601 O602 1.227 1_554 S
C601 O611 1.265 . S
O602 C601 1.227 1_556 S
N603 Co600 2.121 . S
N603 C605 1.375 . S
N603 C606 1.313 . S
C604 C605 1.338 . S
C604 N607 1.377 . S
C604 H624 0.930 . S
C605 N603 1.375 . S
C605 C604 1.338 . S
C605 H609 0.931 . S
C606 N603 1.313 . S
C606 N607 1.344 . S
C606 H610 0.930 . S
N607 C604 1.377 . S
N607 C606 1.344 . S
O608 Co600 2.055 . S
O608 C612 1.253 . S
H609 C605 0.931 . S
H610 C606 0.930 . S
O611 Co600 2.039 . S
O611 C601 1.265 . S
C612 O608 1.253 . S
C612 O613 1.227 . S
O613 C612 1.227 . S
N614 Co600 2.140 . S
N614 C617 1.346 1_554 S
N614 C618 1.345 . S
C615 C616 1.387 1_554 S
C615 C619 1.391 . S
C616 C615 1.387 1_556 S
C616 C617 1.369 . S
C616 H625 0.929 . S
C617 N614 1.346 1_556 S
C617 C616 1.369 . S
C617 H620 0.928 . S
C618 N614 1.345 . S
C618 C619 1.371 . S
C618 H621 0.931 . S
C619 C615 1.391 . S
C619 C618 1.371 . S
C619 H626 0.930 . S
H620 C617 0.928 . S
H621 C618 0.931 . S
H622 C598 0.930 . S
H623 C595 0.930 . S
H624 C604 0.930 . S
H625 C616 0.929 . S
H626 C619 0.930 . S
C627 C628 1.351 . S
C627 N630 1.368 . S
C627 H632 0.931 . S
C628 C627 1.351 . S
C628 N629 1.373 . S
C628 H656 0.930 1_554 S
N629 C628 1.373 . S
N629 C631 1.340 . S
N630 C627 1.368 . S
N630 C631 1.321 . S
N630 Co633 2.135 . S
C631 N629 1.340 . S
C631 N630 1.321 . S
C631 H655 0.930 . S
H632 C627 0.931 . S
Co633 N630 2.135 . S
Co633 N636 2.121 . S
Co633 O641 2.055 . S
Co633 O644 2.039 . S
Co633 N647 2.140 . S
C634 O635 1.227 . S
C634 O644 1.265 . S
O635 C634 1.227 . S
N636 Co633 2.121 . S
N636 C638 1.375 . S
N636 C639 1.313 . S
C637 C638 1.338 . S
C637 N640 1.377 . S
C637 H657 0.930 . S
C638 N636 1.375 . S
C638 C637 1.338 . S
C638 H642 0.931 . S
C639 N636 1.313 . S
C639 N640 1.344 . S
C639 H643 0.930 . S
N640 C637 1.377 . S
N640 C639 1.344 . S
O641 Co633 2.055 . S
O641 C645 1.253 . S
H642 C638 0.931 . S
H643 C639 0.930 . S
O644 Co633 2.039 . S
O644 C634 1.265 . S
C645 O641 1.253 . S
C645 O646 1.227 . S
O646 C645 1.227 . S
N647 Co633 2.140 . S
N647 C650 1.346 . S
N647 C651 1.345 . S
C648 C649 1.387 . S
C648 C652 1.391 . S
C649 C648 1.387 . S
C649 C650 1.369 . S
C649 H658 0.929 . S
C650 N647 1.346 . S
C650 C649 1.369 . S
C650 H653 0.928 . S
C651 N647 1.345 . S
C651 C652 1.371 . S
C651 H654 0.931 . S
C652 C648 1.391 . S
C652 C651 1.371 . S
C652 H659 0.930 . S
H653 C650 0.928 . S
H654 C651 0.931 . S
H655 C631 0.930 . S
H656 C628 0.930 1_556 S
H657 C637 0.930 . S
H658 C649 0.929 . S
H659 C652 0.930 . S
C660 C661 1.351 . S
C660 N663 1.368 . S
C660 H665 0.931 . S
C661 C660 1.351 . S
C661 N662 1.373 . S
C661 H689 0.930 . S
N662 C661 1.373 . S
N662 C664 1.340 . S
N663 C660 1.368 . S
N663 C664 1.321 . S
N663 Co666 2.135 . S
C664 N662 1.340 . S
C664 N663 1.321 . S
C664 H688 0.930 . S
H665 C660 0.931 . S
Co666 N663 2.135 . S
Co666 N669 2.121 . S
Co666 O674 2.055 . S
Co666 O677 2.039 . S
Co666 N680 2.140 . S
C667 O668 1.227 . S
C667 O677 1.265 . S
O668 C667 1.227 . S
N669 Co666 2.121 . S
N669 C671 1.375 . S
N669 C672 1.313 . S
C670 C671 1.338 . S
C670 N673 1.377 . S
C670 H690 0.930 . S
C671 N669 1.375 . S
C671 C670 1.338 . S
C671 H675 0.931 . S
C672 N669 1.313 . S
C672 N673 1.344 . S
C672 H676 0.930 . S
N673 C670 1.377 . S
N673 C672 1.344 . S
O674 Co666 2.055 . S
O674 C678 1.253 . S
H675 C671 0.931 . S
H676 C672 0.930 . S
O677 Co666 2.039 . S
O677 C667 1.265 . S
C678 O674 1.253 . S
C678 O679 1.227 . S
O679 C678 1.227 . S
N680 Co666 2.140 . S
N680 C683 1.346 . S
N680 C684 1.345 . S
C681 C682 1.387 . S
C681 C685 1.391 . S
C682 C681 1.387 . S
C682 C683 1.369 . S
C682 H691 0.929 . S
C683 N680 1.346 . S
C683 C682 1.369 . S
C683 H686 0.928 . S
C684 N680 1.345 . S
C684 C685 1.371 . S
C684 H687 0.931 . S
C685 C681 1.391 . S
C685 C684 1.371 . S
C685 H692 0.930 . S
H686 C683 0.928 . S
H687 C684 0.931 . S
H688 C664 0.930 . S
H689 C661 0.930 . S
H690 C670 0.930 . S
H691 C682 0.929 . S
H692 C685 0.930 . S
C693 C694 1.351 . S
C693 N696 1.368 . S
C693 H698 0.931 . S
C694 C693 1.351 . S
C694 N695 1.373 . S
C694 H722 0.930 1_556 S
N695 C694 1.373 . S
N695 C697 1.340 . S
N696 C693 1.368 . S
N696 C697 1.321 . S
N696 Co699 2.135 . S
C697 N695 1.340 . S
C697 N696 1.321 . S
C697 H721 0.930 . S
H698 C693 0.931 . S
Co699 N696 2.135 . S
Co699 N702 2.121 . S
Co699 O707 2.055 . S
Co699 O710 2.039 . S
Co699 N713 2.140 . S
C700 O701 1.227 . S
C700 O710 1.265 . S
O701 C700 1.227 . S
N702 Co699 2.121 . S
N702 C704 1.375 . S
N702 C705 1.313 . S
C703 C704 1.338 . S
C703 N706 1.377 . S
C703 H723 0.930 . S
C704 N702 1.375 . S
C704 C703 1.338 . S
C704 H708 0.931 . S
C705 N702 1.313 . S
C705 N706 1.344 . S
C705 H709 0.930 . S
N706 C703 1.377 . S
N706 C705 1.344 . S
O707 Co699 2.055 . S
O707 C711 1.253 . S
H708 C704 0.931 . S
H709 C705 0.930 . S
O710 Co699 2.039 . S
O710 C700 1.265 . S
C711 O707 1.253 . S
C711 O712 1.227 . S
O712 C711 1.227 . S
N713 Co699 2.140 . S
N713 C716 1.346 . S
N713 C717 1.345 . S
C714 C715 1.387 . S
C714 C718 1.391 . S
C715 C714 1.387 . S
C715 C716 1.369 . S
C715 H724 0.929 . S
C716 N713 1.346 . S
C716 C715 1.369 . S
C716 H719 0.928 . S
C717 N713 1.345 . S
C717 C718 1.371 . S
C717 H720 0.931 . S
C718 C714 1.391 . S
C718 C717 1.371 . S
C718 H725 0.930 . S
H719 C716 0.928 . S
H720 C717 0.931 . S
H721 C697 0.930 . S
H722 C694 0.930 1_554 S
H723 C703 0.930 . S
H724 C715 0.929 . S
H725 C718 0.930 . S
C726 C727 1.351 . S
C726 N729 1.368 . S
C726 H731 0.931 . S
C727 C726 1.351 . S
C727 N728 1.373 . S
C727 H755 0.930 . S
N728 C727 1.373 . S
N728 C730 1.340 . S
N729 C726 1.368 . S
N729 C730 1.321 . S
N729 Co732 2.135 1_554 S
C730 N728 1.340 . S
C730 N729 1.321 . S
C730 H754 0.930 . S
H731 C726 0.931 . S
Co732 N729 2.135 1_556 S
Co732 N735 2.121 . S
Co732 O740 2.055 . S
Co732 O743 2.039 . S
Co732 N746 2.140 . S
C733 O734 1.227 1_556 S
C733 O743 1.265 . S
O734 C733 1.227 1_554 S
N735 Co732 2.121 . S
N735 C737 1.375 . S
N735 C738 1.313 . S
C736 C737 1.338 . S
C736 N739 1.377 . S
C736 H756 0.930 . S
C737 N735 1.375 . S
C737 C736 1.338 . S
C737 H741 0.931 . S
C738 N735 1.313 . S
C738 N739 1.344 . S
C738 H742 0.930 . S
N739 C736 1.377 . S
N739 C738 1.344 . S
O740 Co732 2.055 . S
O740 C744 1.253 . S
H741 C737 0.931 . S
H742 C738 0.930 . S
O743 Co732 2.039 . S
O743 C733 1.265 . S
C744 O740 1.253 . S
C744 O745 1.227 . S
O745 C744 1.227 . S
N746 Co732 2.140 . S
N746 C749 1.346 1_556 S
N746 C750 1.345 . S
C747 C748 1.387 1_556 S
C747 C751 1.391 . S
C748 C747 1.387 1_554 S
C748 C749 1.369 . S
C748 H757 0.929 . S
C749 N746 1.346 1_554 S
C749 C748 1.369 . S
C749 H752 0.928 . S
C750 N746 1.345 . S
C750 C751 1.371 . S
C750 H753 0.931 . S
C751 C747 1.391 . S
C751 C750 1.371 . S
C751 H758 0.930 . S
H752 C749 0.928 . S
H753 C750 0.931 . S
H754 C730 0.930 . S
H755 C727 0.930 . S
H756 C736 0.930 . S
H757 C748 0.929 . S
H758 C751 0.930 . S
C759 C760 1.351 . S
C759 N762 1.368 . S
C759 H764 0.931 . S
C760 C759 1.351 . S
C760 N761 1.373 . S
C760 H788 0.930 . S
N761 C760 1.373 . S
N761 C763 1.340 . S
N762 C759 1.368 . S
N762 C763 1.321 . S
N762 Co765 2.135 . S
C763 N761 1.340 . S
C763 N762 1.321 . S
C763 H787 0.930 . S
H764 C759 0.931 . S
Co765 N762 2.135 . S
Co765 N768 2.121 . S
Co765 O773 2.055 . S
Co765 O776 2.039 . S
Co765 N779 2.140 . S
C766 O767 1.227 . S
C766 O776 1.265 . S
O767 C766 1.227 . S
N768 Co765 2.121 . S
N768 C770 1.375 . S
N768 C771 1.313 1_554 S
C769 C770 1.338 1_556 S
C769 N772 1.377 . S
C769 H789 0.930 . S
C770 N768 1.375 . S
C770 C769 1.338 1_554 S
C770 H774 0.931 . S
C771 N768 1.313 1_556 S
C771 N772 1.344 . S
C771 H775 0.930 . S
N772 C769 1.377 . S
N772 C771 1.344 . S
O773 Co765 2.055 . S
O773 C777 1.253 . S
H774 C770 0.931 . S
H775 C771 0.930 . S
O776 Co765 2.039 . S
O776 C766 1.265 . S
C777 O773 1.253 . S
C777 O778 1.227 . S
O778 C777 1.227 . S
N779 Co765 2.140 . S
N779 C782 1.346 . S
N779 C783 1.345 . S
C780 C781 1.387 . S
C780 C784 1.391 . S
C781 C780 1.387 . S
C781 C782 1.369 . S
C781 H790 0.929 . S
C782 N779 1.346 . S
C782 C781 1.369 . S
C782 H785 0.928 . S
C783 N779 1.345 . S
C783 C784 1.371 . S
C783 H786 0.931 . S
C784 C780 1.391 . S
C784 C783 1.371 . S
C784 H791 0.930 . S
H785 C782 0.928 . S
H786 C783 0.931 . S
H787 C763 0.930 . S
H788 C760 0.930 . S
H789 C769 0.930 . S
H790 C781 0.929 . S
H791 C784 0.930 . S
C792 C793 1.351 . S
C792 N795 1.368 . S
C792 H797 0.931 . S
C793 C792 1.351 . S
C793 N794 1.373 . S
C793 H821 0.930 . S
N794 C793 1.373 . S
N794 C796 1.340 . S
N795 C792 1.368 . S
N795 C796 1.321 . S
N795 Co798 2.135 . S
C796 N794 1.340 . S
C796 N795 1.321 . S
C796 H820 0.930 . S
H797 C792 0.931 . S
Co798 N795 2.135 . S
Co798 N801 2.121 . S
Co798 O806 2.055 . S
Co798 O809 2.039 . S
Co798 N812 2.140 . S
C799 O800 1.227 . S
C799 O809 1.265 . S
O800 C799 1.227 . S
N801 Co798 2.121 . S
N801 C803 1.375 . S
N801 C804 1.313 . S
C802 C803 1.338 . S
C802 N805 1.377 . S
C802 H822 0.930 . S
C803 N801 1.375 . S
C803 C802 1.338 . S
C803 H807 0.931 . S
C804 N801 1.313 . S
C804 N805 1.344 . S
C804 H808 0.930 . S
N805 C802 1.377 . S
N805 C804 1.344 . S
O806 Co798 2.055 . S
O806 C810 1.253 . S
H807 C803 0.931 . S
H808 C804 0.930 . S
O809 Co798 2.039 . S
O809 C799 1.265 . S
C810 O806 1.253 . S
C810 O811 1.227 . S
O811 C810 1.227 . S
N812 Co798 2.140 . S
N812 C815 1.346 . S
N812 C816 1.345 . S
C813 C814 1.387 . S
C813 C817 1.391 . S
C814 C813 1.387 . S
C814 C815 1.369 . S
C814 H823 0.929 . S
C815 N812 1.346 . S
C815 C814 1.369 . S
C815 H818 0.928 . S
C816 N812 1.345 . S
C816 C817 1.371 . S
C816 H819 0.931 . S
C817 C813 1.391 . S
C817 C816 1.371 . S
C817 H824 0.930 . S
H818 C815 0.928 . S
H819 C816 0.931 . S
H820 C796 0.930 . S
H821 C793 0.930 . S
H822 C802 0.930 . S
H823 C814 0.929 . S
H824 C817 0.930 . S
C825 C826 1.351 . S
C825 N828 1.368 . S
C825 H830 0.931 . S
C826 C825 1.351 . S
C826 N827 1.373 . S
C826 H854 0.930 . S
N827 C826 1.373 . S
N827 C829 1.340 . S
N828 C825 1.368 . S
N828 C829 1.321 . S
N828 Co831 2.135 . S
C829 N827 1.340 . S
C829 N828 1.321 . S
C829 H853 0.930 . S
H830 C825 0.931 . S
Co831 N828 2.135 . S
Co831 N834 2.121 . S
Co831 O839 2.055 . S
Co831 O842 2.039 . S
Co831 N845 2.140 . S
C832 O833 1.227 . S
C832 O842 1.265 . S
O833 C832 1.227 . S
N834 Co831 2.121 . S
N834 C836 1.375 . S
N834 C837 1.313 1_554 S
C835 C836 1.338 1_556 S
C835 N838 1.377 . S
C835 H855 0.930 . S
C836 N834 1.375 . S
C836 C835 1.338 1_554 S
C836 H840 0.931 . S
C837 N834 1.313 1_556 S
C837 N838 1.344 . S
C837 H841 0.930 . S
N838 C835 1.377 . S
N838 C837 1.344 . S
O839 Co831 2.055 . S
O839 C843 1.253 . S
H840 C836 0.931 . S
H841 C837 0.930 . S
O842 Co831 2.039 . S
O842 C832 1.265 . S
C843 O839 1.253 . S
C843 O844 1.227 . S
O844 C843 1.227 . S
N845 Co831 2.140 . S
N845 C848 1.346 . S
N845 C849 1.345 . S
C846 C847 1.387 . S
C846 C850 1.391 . S
C847 C846 1.387 . S
C847 C848 1.369 . S
C847 H856 0.929 . S
C848 N845 1.346 . S
C848 C847 1.369 . S
C848 H851 0.928 . S
C849 N845 1.345 . S
C849 C850 1.371 . S
C849 H852 0.931 . S
C850 C846 1.391 . S
C850 C849 1.371 . S
C850 H857 0.930 . S
H851 C848 0.928 . S
H852 C849 0.931 . S
H853 C829 0.930 . S
H854 C826 0.930 . S
H855 C835 0.930 . S
H856 C847 0.929 . S
H857 C850 0.930 . S
C858 C859 1.351 . S
C858 N861 1.368 . S
C858 H863 0.931 . S
C859 C858 1.351 . S
C859 N860 1.373 . S
C859 H887 0.930 . S
N860 C859 1.373 . S
N860 C862 1.340 . S
N861 C858 1.368 . S
N861 C862 1.321 . S
N861 Co864 2.135 1_554 S
C862 N860 1.340 . S
C862 N861 1.321 . S
C862 H886 0.930 . S
H863 C858 0.931 . S
Co864 N861 2.135 1_556 S
Co864 N867 2.121 . S
Co864 O872 2.055 . S
Co864 O875 2.039 . S
Co864 N878 2.140 . S
C865 O866 1.227 1_556 S
C865 O875 1.265 . S
O866 C865 1.227 1_554 S
N867 Co864 2.121 . S
N867 C869 1.375 . S
N867 C870 1.313 . S
C868 C869 1.338 . S
C868 N871 1.377 . S
C868 H888 0.930 . S
C869 N867 1.375 . S
C869 C868 1.338 . S
C869 H873 0.931 . S
C870 N867 1.313 . S
C870 N871 1.344 . S
C870 H874 0.930 . S
N871 C868 1.377 . S
N871 C870 1.344 . S
O872 Co864 2.055 . S
O872 C876 1.253 . S
H873 C869 0.931 . S
H874 C870 0.930 . S
O875 Co864 2.039 . S
O875 C865 1.265 . S
C876 O872 1.253 . S
C876 O877 1.227 . S
O877 C876 1.227 . S
N878 Co864 2.140 . S
N878 C881 1.346 1_556 S
N878 C882 1.345 . S
C879 C880 1.387 1_556 S
C879 C883 1.391 . S
C880 C879 1.387 1_554 S
C880 C881 1.369 . S
C880 H889 0.929 . S
C881 N878 1.346 1_554 S
C881 C880 1.369 . S
C881 H884 0.928 . S
C882 N878 1.345 . S
C882 C883 1.371 . S
C882 H885 0.931 . S
C883 C879 1.391 . S
C883 C882 1.371 . S
C883 H890 0.930 . S
H884 C881 0.928 . S
H885 C882 0.931 . S
H886 C862 0.930 . S
H887 C859 0.930 . S
H888 C868 0.930 . S
H889 C880 0.929 . S
H890 C883 0.930 . S
C891 C892 1.351 . S
C891 N894 1.368 . S
C891 H896 0.931 . S
C892 C891 1.351 . S
C892 N893 1.373 . S
C892 H920 0.930 1_556 S
N893 C892 1.373 . S
N893 C895 1.340 . S
N894 C891 1.368 . S
N894 C895 1.321 . S
N894 Co897 2.135 . S
C895 N893 1.340 . S
C895 N894 1.321 . S
C895 H919 0.930 . S
H896 C891 0.931 . S
Co897 N894 2.135 . S
Co897 N900 2.121 . S
Co897 O905 2.055 . S
Co897 O908 2.039 . S
Co897 N911 2.140 . S
C898 O899 1.227 . S
C898 O908 1.265 . S
O899 C898 1.227 . S
N900 Co897 2.121 . S
N900 C902 1.375 . S
N900 C903 1.313 . S
C901 C902 1.338 . S
C901 N904 1.377 . S
C901 H921 0.930 . S
C902 N900 1.375 . S
C902 C901 1.338 . S
C902 H906 0.931 . S
C903 N900 1.313 . S
C903 N904 1.344 . S
C903 H907 0.930 . S
N904 C901 1.377 . S
N904 C903 1.344 . S
O905 Co897 2.055 . S
O905 C909 1.253 . S
H906 C902 0.931 . S
H907 C903 0.930 . S
O908 Co897 2.039 . S
O908 C898 1.265 . S
C909 O905 1.253 . S
C909 O910 1.227 . S
O910 C909 1.227 . S
N911 Co897 2.140 . S
N911 C914 1.346 . S
N911 C915 1.345 . S
C912 C913 1.387 . S
C912 C916 1.391 . S
C913 C912 1.387 . S
C913 C914 1.369 . S
C913 H922 0.929 . S
C914 N911 1.346 . S
C914 C913 1.369 . S
C914 H917 0.928 . S
C915 N911 1.345 . S
C915 C916 1.371 . S
C915 H918 0.931 . S
C916 C912 1.391 . S
C916 C915 1.371 . S
C916 H923 0.930 . S
H917 C914 0.928 . S
H918 C915 0.931 . S
H919 C895 0.930 . S
H920 C892 0.930 1_554 S
H921 C901 0.930 . S
H922 C913 0.929 . S
H923 C916 0.930 . S
C924 C925 1.351 . S
C924 N927 1.368 . S
C924 H929 0.931 . S
C925 C924 1.351 . S
C925 N926 1.373 . S
C925 H953 0.930 . S
N926 C925 1.373 . S
N926 C928 1.340 . S
N927 C924 1.368 . S
N927 C928 1.321 . S
N927 Co930 2.135 . S
C928 N926 1.340 . S
C928 N927 1.321 . S
C928 H952 0.930 . S
H929 C924 0.931 . S
Co930 N927 2.135 . S
Co930 N933 2.121 . S
Co930 O938 2.055 . S
Co930 O941 2.039 . S
Co930 N944 2.140 . S
C931 O932 1.227 . S
C931 O941 1.265 . S
O932 C931 1.227 . S
N933 Co930 2.121 . S
N933 C935 1.375 . S
N933 C936 1.313 . S
C934 C935 1.338 . S
C934 N937 1.377 . S
C934 H954 0.930 . S
C935 N933 1.375 . S
C935 C934 1.338 . S
C935 H939 0.931 . S
C936 N933 1.313 . S
C936 N937 1.344 . S
C936 H940 0.930 . S
N937 C934 1.377 . S
N937 C936 1.344 . S
O938 Co930 2.055 . S
O938 C942 1.253 . S
H939 C935 0.931 . S
H940 C936 0.930 . S
O941 Co930 2.039 . S
O941 C931 1.265 . S
C942 O938 1.253 . S
C942 O943 1.227 . S
O943 C942 1.227 . S
N944 Co930 2.140 . S
N944 C947 1.346 . S
N944 C948 1.345 . S
C945 C946 1.387 . S
C945 C949 1.391 . S
C946 C945 1.387 . S
C946 C947 1.369 . S
C946 H955 0.929 . S
C947 N944 1.346 . S
C947 C946 1.369 . S
C947 H950 0.928 . S
C948 N944 1.345 . S
C948 C949 1.371 . S
C948 H951 0.931 . S
C949 C945 1.391 . S
C949 C948 1.371 . S
C949 H956 0.930 . S
H950 C947 0.928 . S
H951 C948 0.931 . S
H952 C928 0.930 . S
H953 C925 0.930 . S
H954 C934 0.930 . S
H955 C946 0.929 . S
H956 C949 0.930 . S
C957 C958 1.351 . S
C957 N960 1.368 . S
C957 H962 0.931 . S
C958 C957 1.351 . S
C958 N959 1.373 . S
C958 H986 0.930 1_554 S
N959 C958 1.373 . S
N959 C961 1.340 . S
N960 C957 1.368 . S
N960 C961 1.321 . S
N960 Co963 2.135 . S
C961 N959 1.340 . S
C961 N960 1.321 . S
C961 H985 0.930 . S
H962 C957 0.931 . S
Co963 N960 2.135 . S
Co963 N966 2.121 . S
Co963 O971 2.055 . S
Co963 O974 2.039 . S
Co963 N977 2.140 . S
C964 O965 1.227 . S
C964 O974 1.265 . S
O965 C964 1.227 . S
N966 Co963 2.121 . S
N966 C968 1.375 . S
N966 C969 1.313 . S
C967 C968 1.338 . S
C967 N970 1.377 . S
C967 H987 0.930 . S
C968 N966 1.375 . S
C968 C967 1.338 . S
C968 H972 0.931 . S
C969 N966 1.313 . S
C969 N970 1.344 . S
C969 H973 0.930 . S
N970 C967 1.377 . S
N970 C969 1.344 . S
O971 Co963 2.055 . S
O971 C975 1.253 . S
H972 C968 0.931 . S
H973 C969 0.930 . S
O974 Co963 2.039 . S
O974 C964 1.265 . S
C975 O971 1.253 . S
C975 O976 1.227 . S
O976 C975 1.227 . S
N977 Co963 2.140 . S
N977 C980 1.346 . S
N977 C981 1.345 . S
C978 C979 1.387 . S
C978 C982 1.391 . S
C979 C978 1.387 . S
C979 C980 1.369 . S
C979 H988 0.929 . S
C980 N977 1.346 . S
C980 C979 1.369 . S
C980 H983 0.928 . S
C981 N977 1.345 . S
C981 C982 1.371 . S
C981 H984 0.931 . S
C982 C978 1.391 . S
C982 C981 1.371 . S
C982 H989 0.930 . S
H983 C980 0.928 . S
H984 C981 0.931 . S
H985 C961 0.930 . S
H986 C958 0.930 1_556 S
H987 C967 0.930 . S
H988 C979 0.929 . S
H989 C982 0.930 . S
C990 C991 1.351 . S
C990 N993 1.368 . S
C990 H995 0.931 . S
C991 C990 1.351 . S
C991 N992 1.373 . S
C991 H1019 0.930 . S
N992 C991 1.373 . S
N992 C994 1.340 . S
N993 C990 1.368 . S
N993 C994 1.321 . S
N993 Co996 2.135 1_556 S
C994 N992 1.340 . S
C994 N993 1.321 . S
C994 H1018 0.930 . S
H995 C990 0.931 . S
Co996 N993 2.135 1_554 S
Co996 N999 2.121 . S
Co996 O1004 2.055 . S
Co996 O1007 2.039 . S
Co996 N1010 2.140 . S
C997 O998 1.227 1_554 S
C997 O1007 1.265 . S
O998 C997 1.227 1_556 S
N999 Co996 2.121 . S
N999 C1001 1.375 . S
N999 C1002 1.313 . S
C1000 C1001 1.338 . S
C1000 N1003 1.377 . S
C1000 H1020 0.930 . S
C1001 N999 1.375 . S
C1001 C1000 1.338 . S
C1001 H1005 0.931 . S
C1002 N999 1.313 . S
C1002 N1003 1.344 . S
C1002 H1006 0.930 . S
N1003 C1000 1.377 . S
N1003 C1002 1.344 . S
O1004 Co996 2.055 . S
O1004 C1008 1.253 . S
H1005 C1001 0.931 . S
H1006 C1002 0.930 . S
O1007 Co996 2.039 . S
O1007 C997 1.265 . S
C1008 O1004 1.253 . S
C1008 O1009 1.227 . S
O1009 C1008 1.227 . S
N1010 Co996 2.140 . S
N1010 C1013 1.346 1_554 S
N1010 C1014 1.345 . S
C1011 C1012 1.387 1_554 S
C1011 C1015 1.391 . S
C1012 C1011 1.387 1_556 S
C1012 C1013 1.369 . S
C1012 H1021 0.929 . S
C1013 N1010 1.346 1_556 S
C1013 C1012 1.369 . S
C1013 H1016 0.928 . S
C1014 N1010 1.345 . S
C1014 C1015 1.371 . S
C1014 H1017 0.931 . S
C1015 C1011 1.391 . S
C1015 C1014 1.371 . S
C1015 H1022 0.930 . S
H1016 C1013 0.928 . S
H1017 C1014 0.931 . S
H1018 C994 0.930 . S
H1019 C991 0.930 . S
H1020 C1000 0.930 . S
H1021 C1012 0.929 . S
H1022 C1015 0.930 . S
C1023 C1024 1.351 . S
C1023 N1026 1.368 . S
C1023 H1028 0.931 . S
C1024 C1023 1.351 . S
C1024 N1025 1.373 . S
C1024 H1052 0.930 . S
N1025 C1024 1.373 . S
N1025 C1027 1.340 . S
N1026 C1023 1.368 . S
N1026 C1027 1.321 . S
N1026 Co1029 2.135 . S
C1027 N1025 1.340 . S
C1027 N1026 1.321 . S
C1027 H1051 0.930 . S
H1028 C1023 0.931 . S
Co1029 N1026 2.135 . S
Co1029 N1032 2.121 . S
Co1029 O1037 2.055 . S
Co1029 O1040 2.039 . S
Co1029 N1043 2.140 . S
C1030 O1031 1.227 . S
C1030 O1040 1.265 . S
O1031 C1030 1.227 . S
N1032 Co1029 2.121 . S
N1032 C1034 1.375 . S
N1032 C1035 1.313 1_556 S
C1033 C1034 1.338 1_554 S
C1033 N1036 1.377 . S
C1033 H1053 0.930 . S
C1034 N1032 1.375 . S
C1034 C1033 1.338 1_556 S
C1034 H1038 0.931 . S
C1035 N1032 1.313 1_554 S
C1035 N1036 1.344 . S
C1035 H1039 0.930 . S
N1036 C1033 1.377 . S
N1036 C1035 1.344 . S
O1037 Co1029 2.055 . S
O1037 C1041 1.253 . S
H1038 C1034 0.931 . S
H1039 C1035 0.930 . S
O1040 Co1029 2.039 . S
O1040 C1030 1.265 . S
C1041 O1037 1.253 . S
C1041 O1042 1.227 . S
O1042 C1041 1.227 . S
N1043 Co1029 2.140 . S
N1043 C1046 1.346 . S
N1043 C1047 1.345 . S
C1044 C1045 1.387 . S
C1044 C1048 1.391 . S
C1045 C1044 1.387 . S
C1045 C1046 1.369 . S
C1045 H1054 0.929 . S
C1046 N1043 1.346 . S
C1046 C1045 1.369 . S
C1046 H1049 0.928 . S
C1047 N1043 1.345 . S
C1047 C1048 1.371 . S
C1047 H1050 0.931 . S
C1048 C1044 1.391 . S
C1048 C1047 1.371 . S
C1048 H1055 0.930 . S
H1049 C1046 0.928 . S
H1050 C1047 0.931 . S
H1051 C1027 0.930 . S
H1052 C1024 0.930 . S
H1053 C1033 0.930 . S
H1054 C1045 0.929 . S
H1055 C1048 0.930 . S
C1056 C1057 1.369 . S
C1056 C1058 1.419 . S
C1056 H1060 0.930 . S
C1057 C1056 1.369 . S
C1057 C1066 1.429 . S
C1058 C1056 1.419 . S
C1058 C1059 1.363 . S
C1058 H1061 0.929 . S
C1059 C1058 1.363 . S
C1059 C1065 1.428 . S
H1060 C1056 0.930 . S
H1061 C1058 0.929 . S
S1062 N1063 1.613 . S
S1062 N1064 1.610 . S
N1063 S1062 1.613 . S
N1063 C1066 1.350 . S
N1064 S1062 1.610 . S
N1064 C1065 1.351 . S
C1065 C1059 1.428 . S
C1065 N1064 1.351 . S
C1065 C1066 1.434 . S
C1066 C1057 1.429 . S
C1066 N1063 1.350 . S
C1066 C1065 1.434 . S
C1067 C1068 1.369 . S
C1067 C1069 1.419 . S
C1067 H1071 0.930 . S
C1068 C1067 1.369 . S
C1068 C1077 1.429 . S
C1069 C1067 1.419 . S
C1069 C1070 1.363 . S
C1069 H1072 0.929 . S
C1070 C1069 1.363 . S
C1070 C1076 1.428 . S
H1071 C1067 0.930 . S
H1072 C1069 0.929 . S
S1073 N1074 1.613 . S
S1073 N1075 1.610 . S
N1074 S1073 1.613 . S
N1074 C1077 1.350 . S
N1075 S1073 1.610 . S
N1075 C1076 1.351 . S
C1076 C1070 1.428 . S
C1076 N1075 1.351 . S
C1076 C1077 1.434 . S
C1077 C1068 1.429 . S
C1077 N1074 1.350 . S
C1077 C1076 1.434 . S
C1078 C1079 1.369 1_554 S
C1078 C1080 1.419 . S
C1078 H1082 0.930 1_554 S
C1079 C1078 1.369 1_556 S
C1079 C1088 1.429 . S
C1080 C1078 1.419 . S
C1080 C1081 1.363 . S
C1080 H1083 0.929 . S
C1081 C1080 1.363 . S
C1081 C1087 1.428 . S
H1082 C1078 0.930 1_556 S
H1083 C1080 0.929 . S
S1084 N1085 1.613 1_554 S
S1084 N1086 1.610 . S
N1085 S1084 1.613 1_556 S
N1085 C1088 1.350 . S
N1086 S1084 1.610 . S
N1086 C1087 1.351 . S
C1087 C1081 1.428 . S
C1087 N1086 1.351 . S
C1087 C1088 1.434 1_554 S
C1088 C1079 1.429 . S
C1088 N1085 1.350 . S
C1088 C1087 1.434 1_556 S
C1089 C1090 1.369 . S
C1089 C1091 1.419 . S
C1089 H1093 0.930 . S
C1090 C1089 1.369 . S
C1090 C1099 1.429 . S
C1091 C1089 1.419 . S
C1091 C1092 1.363 . S
C1091 H1094 0.929 . S
C1092 C1091 1.363 . S
C1092 C1098 1.428 . S
H1093 C1089 0.930 . S
H1094 C1091 0.929 . S
S1095 N1096 1.613 . S
S1095 N1097 1.610 . S
N1096 S1095 1.613 . S
N1096 C1099 1.350 . S
N1097 S1095 1.610 . S
N1097 C1098 1.351 . S
C1098 C1092 1.428 . S
C1098 N1097 1.351 . S
C1098 C1099 1.434 . S
C1099 C1090 1.429 . S
C1099 N1096 1.350 . S
C1099 C1098 1.434 . S
C1100 C1101 1.369 . S
C1100 C1102 1.419 . S
C1100 H1104 0.930 . S
C1101 C1100 1.369 . S
C1101 C1110 1.429 . S
C1102 C1100 1.419 . S
C1102 C1103 1.363 . S
C1102 H1105 0.929 . S
C1103 C1102 1.363 . S
C1103 C1109 1.428 . S
H1104 C1100 0.930 . S
H1105 C1102 0.929 . S
S1106 N1107 1.613 . S
S1106 N1108 1.610 . S
N1107 S1106 1.613 . S
N1107 C1110 1.350 . S
N1108 S1106 1.610 . S
N1108 C1109 1.351 . S
C1109 C1103 1.428 . S
C1109 N1108 1.351 . S
C1109 C1110 1.434 . S
C1110 C1101 1.429 . S
C1110 N1107 1.350 . S
C1110 C1109 1.434 . S
C1111 C1112 1.369 . S
C1111 C1113 1.419 . S
C1111 H1115 0.930 . S
C1112 C1111 1.369 . S
C1112 C1121 1.429 . S
C1113 C1111 1.419 . S
C1113 C1114 1.363 . S
C1113 H1116 0.929 . S
C1114 C1113 1.363 . S
C1114 C1120 1.428 . S
H1115 C1111 0.930 . S
H1116 C1113 0.929 . S
S1117 N1118 1.613 . S
S1117 N1119 1.610 . S
N1118 S1117 1.613 . S
N1118 C1121 1.350 . S
N1119 S1117 1.610 . S
N1119 C1120 1.351 . S
C1120 C1114 1.428 . S
C1120 N1119 1.351 . S
C1120 C1121 1.434 . S
C1121 C1112 1.429 . S
C1121 N1118 1.350 . S
C1121 C1120 1.434 . S
C1122 C1123 1.369 . S
C1122 C1124 1.419 . S
C1122 H1126 0.930 . S
C1123 C1122 1.369 . S
C1123 C1132 1.429 . S
C1124 C1122 1.419 . S
C1124 C1125 1.363 1_556 S
C1124 H1127 0.929 1_556 S
C1125 C1124 1.363 1_554 S
C1125 C1131 1.428 1_554 S
H1126 C1122 0.930 . S
H1127 C1124 0.929 1_554 S
S1128 N1129 1.613 . S
S1128 N1130 1.610 1_556 S
N1129 S1128 1.613 . S
N1129 C1132 1.350 . S
N1130 S1128 1.610 1_554 S
N1130 C1131 1.351 1_554 S
C1131 C1125 1.428 1_556 S
C1131 N1130 1.351 1_556 S
C1131 C1132 1.434 . S
C1132 C1123 1.429 . S
C1132 N1129 1.350 . S
C1132 C1131 1.434 . S
C1133 C1134 1.369 . S
C1133 C1135 1.419 . S
C1133 H1137 0.930 . S
C1134 C1133 1.369 . S
C1134 C1143 1.429 . S
C1135 C1133 1.419 . S
C1135 C1136 1.363 . S
C1135 H1138 0.929 . S
C1136 C1135 1.363 . S
C1136 C1142 1.428 . S
H1137 C1133 0.930 . S
H1138 C1135 0.929 . S
S1139 N1140 1.613 . S
S1139 N1141 1.610 . S
N1140 S1139 1.613 . S
N1140 C1143 1.350 . S
N1141 S1139 1.610 . S
N1141 C1142 1.351 . S
C1142 C1136 1.428 . S
C1142 N1141 1.351 . S
C1142 C1143 1.434 . S
C1143 C1134 1.429 . S
C1143 N1140 1.350 . S
C1143 C1142 1.434 . S
C1144 C1145 1.369 . S
C1144 C1146 1.419 . S
C1144 H1148 0.930 . S
C1145 C1144 1.369 . S
C1145 C1154 1.429 . S
C1146 C1144 1.419 . S
C1146 C1147 1.363 . S
C1146 H1149 0.929 . S
C1147 C1146 1.363 . S
C1147 C1153 1.428 . S
H1148 C1144 0.930 . S
H1149 C1146 0.929 . S
S1150 N1151 1.613 . S
S1150 N1152 1.610 . S
N1151 S1150 1.613 . S
N1151 C1154 1.350 . S
N1152 S1150 1.610 . S
N1152 C1153 1.351 . S
C1153 C1147 1.428 . S
C1153 N1152 1.351 . S
C1153 C1154 1.434 . S
C1154 C1145 1.429 . S
C1154 N1151 1.350 . S
C1154 C1153 1.434 . S
C1155 C1156 1.369 . S
C1155 C1157 1.419 . S
C1155 H1159 0.930 . S
C1156 C1155 1.369 . S
C1156 C1165 1.429 . S
C1157 C1155 1.419 . S
C1157 C1158 1.363 . S
C1157 H1160 0.929 . S
C1158 C1157 1.363 . S
C1158 C1164 1.428 . S
H1159 C1155 0.930 . S
H1160 C1157 0.929 . S
S1161 N1162 1.613 . S
S1161 N1163 1.610 . S
N1162 S1161 1.613 . S
N1162 C1165 1.350 . S
N1163 S1161 1.610 . S
N1163 C1164 1.351 . S
C1164 C1158 1.428 . S
C1164 N1163 1.351 . S
C1164 C1165 1.434 . S
C1165 C1156 1.429 . S
C1165 N1162 1.350 . S
C1165 C1164 1.434 . S
C1166 C1167 1.369 . S
C1166 C1168 1.419 . S
C1166 H1170 0.930 . S
C1167 C1166 1.369 . S
C1167 C1176 1.429 . S
C1168 C1166 1.419 . S
C1168 C1169 1.363 1_556 S
C1168 H1171 0.929 1_556 S
C1169 C1168 1.363 1_554 S
C1169 C1175 1.426 1_554 S
H1170 C1166 0.930 . S
H1171 C1168 0.929 1_554 S
S1172 N1173 1.613 . S
S1172 N1174 1.610 1_556 S
N1173 S1172 1.613 . S
N1173 C1176 1.350 . S
N1174 S1172 1.610 1_554 S
N1174 C1175 1.349 1_554 S
C1175 C1169 1.426 1_556 S
C1175 N1174 1.349 1_556 S
C1175 C1176 1.439 . S
C1176 C1167 1.429 . S
C1176 N1173 1.350 . S
C1176 C1175 1.439 . S
C1177 C1178 1.369 . S
C1177 C1179 1.419 . S
C1177 H1181 0.930 . S
C1178 C1177 1.369 . S
C1178 C1187 1.429 . S
C1179 C1177 1.419 . S
C1179 C1180 1.363 . S
C1179 H1182 0.929 . S
C1180 C1179 1.363 . S
C1180 C1186 1.428 . S
H1181 C1177 0.930 . S
H1182 C1179 0.929 . S
S1183 N1184 1.613 . S
S1183 N1185 1.610 . S
N1184 S1183 1.613 . S
N1184 C1187 1.350 . S
N1185 S1183 1.610 . S
N1185 C1186 1.351 . S
C1186 C1180 1.428 . S
C1186 N1185 1.351 . S
C1186 C1187 1.434 . S
C1187 C1178 1.429 . S
C1187 N1184 1.350 . S
C1187 C1186 1.434 . S
C1188 C1189 1.369 . S
C1188 C1190 1.419 . S
C1188 H1192 0.930 . S
C1189 C1188 1.369 . S
C1189 C1198 1.429 . S
C1190 C1188 1.419 . S
C1190 C1191 1.363 . S
C1190 H1193 0.929 . S
C1191 C1190 1.363 . S
C1191 C1197 1.428 . S
H1192 C1188 0.930 . S
H1193 C1190 0.929 . S
S1194 N1195 1.613 . S
S1194 N1196 1.610 . S
N1195 S1194 1.613 . S
N1195 C1198 1.350 . S
N1196 S1194 1.610 . S
N1196 C1197 1.351 . S
C1197 C1191 1.428 . S
C1197 N1196 1.351 . S
C1197 C1198 1.434 . S
C1198 C1189 1.429 . S
C1198 N1195 1.350 . S
C1198 C1197 1.434 . S
C1199 C1200 1.369 . S
C1199 C1201 1.419 . S
C1199 H1203 0.930 . S
C1200 C1199 1.369 . S
C1200 C1209 1.429 . S
C1201 C1199 1.419 . S
C1201 C1202 1.363 . S
C1201 H1204 0.929 . S
C1202 C1201 1.363 . S
C1202 C1208 1.428 . S
H1203 C1199 0.930 . S
H1204 C1201 0.929 . S
S1205 N1206 1.613 . S
S1205 N1207 1.610 . S
N1206 S1205 1.613 . S
N1206 C1209 1.350 . S
N1207 S1205 1.610 . S
N1207 C1208 1.351 . S
C1208 C1202 1.428 . S
C1208 N1207 1.351 . S
C1208 C1209 1.434 . S
C1209 C1200 1.429 . S
C1209 N1206 1.350 . S
C1209 C1208 1.434 . S
C1210 C1211 1.369 1_554 S
C1210 C1212 1.419 . S
C1210 H1214 0.930 1_554 S
C1211 C1210 1.369 1_556 S
C1211 C1220 1.429 1_556 S
C1212 C1210 1.419 . S
C1212 C1213 1.363 . S
C1212 H1215 0.929 . S
C1213 C1212 1.363 . S
C1213 C1219 1.428 . S
H1214 C1210 0.930 1_556 S
H1215 C1212 0.929 . S
S1216 N1217 1.613 1_554 S
S1216 N1218 1.610 . S
N1217 S1216 1.613 1_556 S
N1217 C1220 1.350 1_556 S
N1218 S1216 1.610 . S
N1218 C1219 1.351 . S
C1219 C1213 1.428 . S
C1219 N1218 1.351 . S
C1219 C1220 1.434 . S
C1220 C1211 1.429 1_554 S
C1220 N1217 1.350 1_554 S
C1220 C1219 1.434 . S
C1221 C1222 1.369 . S
C1221 C1223 1.419 . S
C1221 H1225 0.930 . S
C1222 C1221 1.369 . S
C1222 C1231 1.429 . S
C1223 C1221 1.419 . S
C1223 C1224 1.363 . S
C1223 H1226 0.929 . S
C1224 C1223 1.363 . S
C1224 C1230 1.428 . S
H1225 C1221 0.930 . S
H1226 C1223 0.929 . S
S1227 N1228 1.613 . S
S1227 N1229 1.610 . S
N1228 S1227 1.613 . S
N1228 C1231 1.350 . S
N1229 S1227 1.610 . S
N1229 C1230 1.351 . S
C1230 C1224 1.428 . S
C1230 N1229 1.351 . S
C1230 C1231 1.434 . S
C1231 C1222 1.429 . S
C1231 N1228 1.350 . S
C1231 C1230 1.434 . S
C1232 C1233 1.369 1_554 S
C1232 C1234 1.419 . S
C1232 H1236 0.930 1_554 S
C1233 C1232 1.369 1_556 S
C1233 C1242 1.429 . S
C1234 C1232 1.419 . S
C1234 C1235 1.363 . S
C1234 H1237 0.929 . S
C1235 C1234 1.363 . S
C1235 C1241 1.428 . S
H1236 C1232 0.930 1_556 S
H1237 C1234 0.929 . S
S1238 N1239 1.613 1_554 S
S1238 N1240 1.610 . S
N1239 S1238 1.613 1_556 S
N1239 C1242 1.350 . S
N1240 S1238 1.610 . S
N1240 C1241 1.351 . S
C1241 C1235 1.428 . S
C1241 N1240 1.351 . S
C1241 C1242 1.434 1_554 S
C1242 C1233 1.429 . S
C1242 N1239 1.350 . S
C1242 C1241 1.434 1_556 S
C1243 C1244 1.369 . S
C1243 C1245 1.419 . S
C1243 H1247 0.930 . S
C1244 C1243 1.369 . S
C1244 C1253 1.429 . S
C1245 C1243 1.419 . S
C1245 C1246 1.363 . S
C1245 H1248 0.929 . S
C1246 C1245 1.363 . S
C1246 C1252 1.428 . S
H1247 C1243 0.930 . S
H1248 C1245 0.929 . S
S1249 N1250 1.613 . S
S1249 N1251 1.610 . S
N1250 S1249 1.613 . S
N1250 C1253 1.350 . S
N1251 S1249 1.610 . S
N1251 C1252 1.351 . S
C1252 C1246 1.428 . S
C1252 N1251 1.351 . S
C1252 C1253 1.434 . S
C1253 C1244 1.429 . S
C1253 N1250 1.350 . S
C1253 C1252 1.434 . S
C1254 C1255 1.369 . S
C1254 C1256 1.419 . S
C1254 H1258 0.930 . S
C1255 C1254 1.369 . S
C1255 C1264 1.429 . S
C1256 C1254 1.419 . S
C1256 C1257 1.363 . S
C1256 H1259 0.929 . S
C1257 C1256 1.363 . S
C1257 C1263 1.428 . S
H1258 C1254 0.930 . S
H1259 C1256 0.929 . S
S1260 N1261 1.613 . S
S1260 N1262 1.610 . S
N1261 S1260 1.613 . S
N1261 C1264 1.350 . S
N1262 S1260 1.610 . S
N1262 C1263 1.351 . S
C1263 C1257 1.428 . S
C1263 N1262 1.351 . S
C1263 C1264 1.434 . S
C1264 C1255 1.429 . S
C1264 N1261 1.350 . S
C1264 C1263 1.434 . S
C1265 C1266 1.369 . S
C1265 C1267 1.419 . S
C1265 H1269 0.930 . S
C1266 C1265 1.369 . S
C1266 C1275 1.429 . S
C1267 C1265 1.419 . S
C1267 C1268 1.363 . S
C1267 H1270 0.929 . S
C1268 C1267 1.363 . S
C1268 C1274 1.428 . S
H1269 C1265 0.930 . S
H1270 C1267 0.929 . S
S1271 N1272 1.613 . S
S1271 N1273 1.610 . S
N1272 S1271 1.613 . S
N1272 C1275 1.350 . S
N1273 S1271 1.610 . S
N1273 C1274 1.351 . S
C1274 C1268 1.428 . S
C1274 N1273 1.351 . S
C1274 C1275 1.434 . S
C1275 C1266 1.429 . S
C1275 N1272 1.350 . S
C1275 C1274 1.434 . S
C1276 C1277 1.369 1_556 S
C1276 C1278 1.419 . S
C1276 H1280 0.930 1_556 S
C1277 C1276 1.369 1_554 S
C1277 C1286 1.429 1_554 S
C1278 C1276 1.419 . S
C1278 C1279 1.363 . S
C1278 H1281 0.929 . S
C1279 C1278 1.363 . S
C1279 C1285 1.428 . S
H1280 C1276 0.930 1_554 S
H1281 C1278 0.929 . S
S1282 N1283 1.613 1_556 S
S1282 N1284 1.610 . S
N1283 S1282 1.613 1_554 S
N1283 C1286 1.350 1_554 S
N1284 S1282 1.610 . S
N1284 C1285 1.351 . S
C1285 C1279 1.428 . S
C1285 N1284 1.351 . S
C1285 C1286 1.434 . S
C1286 C1277 1.429 1_556 S
C1286 N1283 1.350 1_556 S
C1286 C1285 1.434 . S
C1287 C1288 1.369 . S
C1287 C1289 1.419 . S
C1287 H1291 0.930 . S
C1288 C1287 1.369 . S
C1288 C1297 1.429 . S
C1289 C1287 1.419 . S
C1289 C1290 1.363 . S
C1289 H1292 0.929 . S
C1290 C1289 1.363 . S
C1290 C1296 1.428 . S
H1291 C1287 0.930 . S
H1292 C1289 0.929 . S
S1293 N1294 1.613 . S
S1293 N1295 1.610 . S
N1294 S1293 1.613 . S
N1294 C1297 1.350 . S
N1295 S1293 1.610 . S
N1295 C1296 1.351 . S
C1296 C1290 1.428 . S
C1296 N1295 1.351 . S
C1296 C1297 1.434 . S
C1297 C1288 1.429 . S
C1297 N1294 1.350 . S
C1297 C1296 1.434 . S
C1298 C1299 1.369 . S
C1298 C1300 1.419 . S
C1298 H1302 0.930 . S
C1299 C1298 1.369 . S
C1299 C1308 1.429 . S
C1300 C1298 1.419 . S
C1300 C1301 1.363 . S
C1300 H1303 0.929 . S
C1301 C1300 1.363 . S
C1301 C1307 1.428 . S
H1302 C1298 0.930 . S
H1303 C1300 0.929 . S
S1304 N1305 1.613 . S
S1304 N1306 1.610 . S
N1305 S1304 1.613 . S
N1305 C1308 1.350 . S
N1306 S1304 1.610 . S
N1306 C1307 1.351 . S
C1307 C1301 1.428 . S
C1307 N1306 1.351 . S
C1307 C1308 1.434 . S
C1308 C1299 1.429 . S
C1308 N1305 1.350 . S
C1308 C1307 1.434 . S
C1309 C1310 1.369 . S
C1309 C1311 1.419 . S
C1309 H1313 0.930 . S
C1310 C1309 1.369 . S
C1310 C1319 1.429 . S
C1311 C1309 1.419 . S
C1311 C1312 1.363 . S
C1311 H1314 0.929 . S
C1312 C1311 1.363 . S
C1312 C1318 1.428 . S
H1313 C1309 0.930 . S
H1314 C1311 0.929 . S
S1315 N1316 1.613 . S
S1315 N1317 1.610 . S
N1316 S1315 1.613 . S
N1316 C1319 1.350 . S
N1317 S1315 1.610 . S
N1317 C1318 1.351 . S
C1318 C1312 1.428 . S
C1318 N1317 1.351 . S
C1318 C1319 1.434 . S
C1319 C1310 1.429 . S
C1319 N1316 1.350 . S
C1319 C1318 1.434 . S
C1320 C1321 1.369 1_556 S
C1320 C1322 1.419 . S
C1320 H1324 0.930 1_556 S
C1321 C1320 1.369 1_554 S
C1321 C1330 1.429 1_554 S
C1322 C1320 1.419 . S
C1322 C1323 1.363 . S
C1322 H1325 0.929 . S
C1323 C1322 1.363 . S
C1323 C1329 1.428 . S
H1324 C1320 0.930 1_554 S
H1325 C1322 0.929 . S
S1326 N1327 1.613 1_556 S
S1326 N1328 1.610 . S
N1327 S1326 1.613 1_554 S
N1327 C1330 1.350 1_554 S
N1328 S1326 1.610 . S
N1328 C1329 1.351 . S
C1329 C1323 1.428 . S
C1329 N1328 1.351 . S
C1329 C1330 1.434 . S
C1330 C1321 1.429 1_556 S
C1330 N1327 1.350 1_556 S
C1330 C1329 1.434 . S
C1331 C1332 1.369 . S
C1331 C1333 1.419 . S
C1331 H1335 0.930 . S
C1332 C1331 1.369 . S
C1332 C1341 1.429 . S
C1333 C1331 1.419 . S
C1333 C1334 1.363 . S
C1333 H1336 0.929 . S
C1334 C1333 1.363 . S
C1334 C1340 1.428 . S
H1335 C1331 0.930 . S
H1336 C1333 0.929 . S
S1337 N1338 1.613 . S
S1337 N1339 1.610 . S
N1338 S1337 1.613 . S
N1338 C1341 1.350 . S
N1339 S1337 1.610 . S
N1339 C1340 1.351 . S
C1340 C1334 1.428 . S
C1340 N1339 1.351 . S
C1340 C1341 1.434 . S
C1341 C1332 1.429 . S
C1341 N1338 1.350 . S
C1341 C1340 1.434 . S
C1342 C1343 1.369 . S
C1342 C1344 1.419 . S
C1342 H1346 0.930 . S
C1343 C1342 1.369 . S
C1343 C1352 1.429 . S
C1344 C1342 1.419 . S
C1344 C1345 1.363 . S
C1344 H1347 0.929 . S
C1345 C1344 1.363 . S
C1345 C1351 1.428 . S
H1346 C1342 0.930 . S
H1347 C1344 0.929 . S
S1348 N1349 1.613 . S
S1348 N1350 1.610 . S
N1349 S1348 1.613 . S
N1349 C1352 1.350 . S
N1350 S1348 1.610 . S
N1350 C1351 1.351 . S
C1351 C1345 1.428 . S
C1351 N1350 1.351 . S
C1351 C1352 1.434 . S
C1352 C1343 1.429 . S
C1352 N1349 1.350 . S
C1352 C1351 1.434 . S
C1353 C1354 1.369 . S
C1353 C1355 1.419 . S
C1353 H1357 0.930 . S
C1354 C1353 1.369 . S
C1354 C1363 1.429 . S
C1355 C1353 1.419 . S
C1355 C1356 1.363 . S
C1355 H1358 0.929 . S
C1356 C1355 1.363 . S
C1356 C1362 1.428 . S
H1357 C1353 0.930 . S
H1358 C1355 0.929 . S
S1359 N1360 1.613 . S
S1359 N1361 1.610 . S
N1360 S1359 1.613 . S
N1360 C1363 1.350 . S
N1361 S1359 1.610 . S
N1361 C1362 1.351 . S
C1362 C1356 1.428 . S
C1362 N1361 1.351 . S
C1362 C1363 1.434 . S
C1363 C1354 1.429 . S
C1363 N1360 1.350 . S
C1363 C1362 1.434 . S
C1364 C1365 1.369 . S
C1364 C1366 1.419 . S
C1364 H1368 0.930 . S
C1365 C1364 1.369 . S
C1365 C1374 1.429 . S
C1366 C1364 1.419 . S
C1366 C1367 1.363 1_554 S
C1366 H1369 0.929 1_554 S
C1367 C1366 1.363 1_556 S
C1367 C1373 1.434 . S
H1368 C1364 0.930 . S
H1369 C1366 0.929 1_556 S
S1370 N1371 1.613 . S
S1370 N1372 1.610 1_554 S
N1371 S1370 1.613 . S
N1371 C1374 1.350 . S
N1372 S1370 1.610 1_556 S
N1372 C1373 1.356 . S
C1373 C1367 1.434 . S
C1373 N1372 1.356 . S
C1373 C1374 1.423 1_556 S
C1374 C1365 1.429 . S
C1374 N1371 1.350 . S
C1374 C1373 1.423 1_554 S
C1375 C1376 1.369 . S
C1375 C1377 1.419 . S
C1375 H1379 0.930 . S
C1376 C1375 1.369 . S
C1376 C1385 1.429 . S
C1377 C1375 1.419 . S
C1377 C1378 1.363 . S
C1377 H1380 0.929 . S
C1378 C1377 1.363 . S
C1378 C1384 1.428 . S
H1379 C1375 0.930 . S
H1380 C1377 0.929 . S
S1381 N1382 1.613 . S
S1381 N1383 1.610 . S
N1382 S1381 1.613 . S
N1382 C1385 1.350 . S
N1383 S1381 1.610 . S
N1383 C1384 1.351 . S
C1384 C1378 1.428 . S
C1384 N1383 1.351 . S
C1384 C1385 1.434 . S
C1385 C1376 1.429 . S
C1385 N1382 1.350 . S
C1385 C1384 1.434 . S
C1386 C1387 1.369 . S
C1386 C1388 1.419 . S
C1386 H1390 0.930 . S
C1387 C1386 1.369 . S
C1387 C1396 1.429 . S
C1388 C1386 1.419 . S
C1388 C1389 1.363 . S
C1388 H1391 0.929 . S
C1389 C1388 1.363 . S
C1389 C1395 1.428 . S
H1390 C1386 0.930 . S
H1391 C1388 0.929 . S
S1392 N1393 1.613 . S
S1392 N1394 1.610 . S
N1393 S1392 1.613 . S
N1393 C1396 1.350 . S
N1394 S1392 1.610 . S
N1394 C1395 1.351 . S
C1395 C1389 1.428 . S
C1395 N1394 1.351 . S
C1395 C1396 1.434 . S
C1396 C1387 1.429 . S
C1396 N1393 1.350 . S
C1396 C1395 1.434 . S
C1397 C1398 1.369 . S
C1397 C1399 1.419 . S
C1397 H1401 0.930 . S
C1398 C1397 1.369 . S
C1398 C1407 1.429 . S
C1399 C1397 1.419 . S
C1399 C1400 1.363 . S
C1399 H1402 0.929 . S
C1400 C1399 1.363 . S
C1400 C1406 1.428 . S
H1401 C1397 0.930 . S
H1402 C1399 0.929 . S
S1403 N1404 1.613 . S
S1403 N1405 1.610 . S
N1404 S1403 1.613 . S
N1404 C1407 1.350 . S
N1405 S1403 1.610 . S
N1405 C1406 1.351 . S
C1406 C1400 1.428 . S
C1406 N1405 1.351 . S
C1406 C1407 1.434 . S
C1407 C1398 1.429 . S
C1407 N1404 1.350 . S
C1407 C1406 1.434 . S
C1408 C1409 1.369 . S
C1408 C1410 1.419 . S
C1408 H1412 0.930 . S
C1409 C1408 1.369 . S
C1409 C1418 1.429 . S
C1410 C1408 1.419 . S
C1410 C1411 1.363 . S
C1410 H1413 0.929 . S
C1411 C1410 1.363 . S
C1411 C1417 1.428 . S
H1412 C1408 0.930 . S
H1413 C1410 0.929 . S
S1414 N1415 1.613 . S
S1414 N1416 1.610 . S
N1415 S1414 1.613 . S
N1415 C1418 1.350 1_556 S
N1416 S1414 1.610 . S
N1416 C1417 1.351 1_556 S
C1417 C1411 1.428 . S
C1417 N1416 1.351 1_554 S
C1417 C1418 1.434 . S
C1418 C1409 1.429 . S
C1418 N1415 1.350 1_554 S
C1418 C1417 1.434 . S
C1419 C1420 1.369 . S
C1419 C1421 1.419 . S
C1419 H1423 0.930 . S
C1420 C1419 1.369 . S
C1420 C1429 1.429 . S
C1421 C1419 1.419 . S
C1421 C1422 1.363 . S
C1421 H1424 0.929 . S
C1422 C1421 1.363 . S
C1422 C1428 1.428 . S
H1423 C1419 0.930 . S
H1424 C1421 0.929 . S
S1425 N1426 1.613 . S
S1425 N1427 1.610 . S
N1426 S1425 1.613 . S
N1426 C1429 1.350 . S
N1427 S1425 1.610 . S
N1427 C1428 1.351 . S
C1428 C1422 1.428 . S
C1428 N1427 1.351 . S
C1428 C1429 1.434 . S
C1429 C1420 1.429 . S
C1429 N1426 1.350 . S
C1429 C1428 1.434 . S
C1430 C1431 1.369 . S
C1430 C1432 1.419 . S
C1430 H1434 0.930 . S
C1431 C1430 1.369 . S
C1431 C1440 1.429 . S
C1432 C1430 1.419 . S
C1432 C1433 1.363 . S
C1432 H1435 0.929 . S
C1433 C1432 1.363 . S
C1433 C1439 1.428 . S
H1434 C1430 0.930 . S
H1435 C1432 0.929 . S
S1436 N1437 1.613 . S
S1436 N1438 1.610 . S
N1437 S1436 1.613 . S
N1437 C1440 1.350 . S
N1438 S1436 1.610 . S
N1438 C1439 1.351 . S
C1439 C1433 1.428 . S
C1439 N1438 1.351 . S
C1439 C1440 1.434 . S
C1440 C1431 1.429 . S
C1440 N1437 1.350 . S
C1440 C1439 1.434 . S
C1441 C1442 1.369 . S
C1441 C1443 1.419 . S
C1441 H1445 0.930 . S
C1442 C1441 1.369 . S
C1442 C1451 1.429 . S
C1443 C1441 1.419 . S
C1443 C1444 1.363 . S
C1443 H1446 0.929 . S
C1444 C1443 1.363 . S
C1444 C1450 1.428 . S
H1445 C1441 0.930 . S
H1446 C1443 0.929 . S
S1447 N1448 1.613 . S
S1447 N1449 1.618 . S
N1448 S1447 1.613 . S
N1448 C1451 1.350 1_554 S
N1449 S1447 1.618 . S
N1449 C1450 1.343 1_554 S
C1450 C1444 1.428 . S
C1450 N1449 1.343 1_556 S
C1450 C1451 1.434 . S
C1451 C1442 1.429 . S
C1451 N1448 1.350 1_556 S
C1451 C1450 1.434 . S
C1452 C1453 1.369 . S
C1452 C1454 1.419 . S
C1452 H1456 0.930 . S
C1453 C1452 1.369 . S
C1453 C1462 1.429 . S
C1454 C1452 1.419 . S
C1454 C1455 1.363 . S
C1454 H1457 0.929 1_556 S
C1455 C1454 1.363 . S
C1455 C1461 1.428 . S
H1456 C1452 0.930 . S
H1457 C1454 0.929 1_554 S
S1458 N1459 1.613 . S
S1458 N1460 1.610 . S
N1459 S1458 1.613 . S
N1459 C1462 1.350 . S
N1460 S1458 1.610 . S
N1460 C1461 1.351 . S
C1461 C1455 1.428 . S
C1461 N1460 1.351 . S
C1461 C1462 1.434 . S
C1462 C1453 1.429 . S
C1462 N1459 1.350 . S
C1462 C1461 1.434 . S
C1463 C1464 1.369 . S
C1463 C1465 1.419 . S
C1463 H1467 0.930 . S
C1464 C1463 1.369 . S
C1464 C1473 1.429 . S
C1465 C1463 1.419 . S
C1465 C1466 1.363 . S
C1465 H1468 0.929 . S
C1466 C1465 1.363 . S
C1466 C1472 1.428 . S
H1467 C1463 0.930 . S
H1468 C1465 0.929 . S
S1469 N1470 1.613 . S
S1469 N1471 1.610 . S
N1470 S1469 1.613 . S
N1470 C1473 1.350 . S
N1471 S1469 1.610 . S
N1471 C1472 1.351 . S
C1472 C1466 1.428 . S
C1472 N1471 1.351 . S
C1472 C1473 1.434 . S
C1473 C1464 1.429 . S
C1473 N1470 1.350 . S
C1473 C1472 1.434 . S
C1474 C1475 1.369 . S
C1474 C1476 1.419 . S
C1474 H1478 0.930 . S
C1475 C1474 1.369 . S
C1475 C1484 1.429 . S
C1476 C1474 1.419 . S
C1476 C1477 1.363 . S
C1476 H1479 0.929 . S
C1477 C1476 1.363 . S
C1477 C1483 1.428 . S
H1478 C1474 0.930 . S
H1479 C1476 0.929 . S
S1480 N1481 1.613 . S
S1480 N1482 1.610 . S
N1481 S1480 1.613 . S
N1481 C1484 1.350 . S
N1482 S1480 1.610 . S
N1482 C1483 1.351 . S
C1483 C1477 1.428 . S
C1483 N1482 1.351 . S
C1483 C1484 1.434 . S
C1484 C1475 1.429 . S
C1484 N1481 1.350 . S
C1484 C1483 1.434 . S
C1485 C1486 1.369 . S
C1485 C1487 1.419 . S
C1485 H1489 0.930 . S
C1486 C1485 1.369 . S
C1486 C1495 1.429 . S
C1487 C1485 1.419 . S
C1487 C1488 1.363 . S
C1487 H1490 0.929 . S
C1488 C1487 1.363 . S
C1488 C1494 1.428 . S
H1489 C1485 0.930 . S
H1490 C1487 0.929 . S
S1491 N1492 1.613 . S
S1491 N1493 1.610 . S
N1492 S1491 1.613 . S
N1492 C1495 1.350 . S
N1493 S1491 1.610 . S
N1493 C1494 1.351 . S
C1494 C1488 1.428 . S
C1494 N1493 1.351 . S
C1494 C1495 1.434 . S
C1495 C1486 1.429 . S
C1495 N1492 1.350 . S
C1495 C1494 1.434 . S
C1496 C1497 1.369 . S
C1496 C1498 1.419 . S
C1496 H1500 0.930 . S
C1497 C1496 1.369 . S
C1497 C1506 1.429 . S
C1498 C1496 1.419 . S
C1498 C1499 1.363 . S
C1498 H1501 0.929 . S
C1499 C1498 1.363 . S
C1499 C1505 1.428 . S
H1500 C1496 0.930 . S
H1501 C1498 0.929 . S
S1502 N1503 1.613 . S
S1502 N1504 1.610 . S
N1503 S1502 1.613 . S
N1503 C1506 1.350 . S
N1504 S1502 1.610 . S
N1504 C1505 1.351 . S
C1505 C1499 1.428 . S
C1505 N1504 1.351 . S
C1505 C1506 1.434 . S
C1506 C1497 1.429 . S
C1506 N1503 1.350 . S
C1506 C1505 1.434 . S
C1507 C1508 1.369 . S
C1507 C1509 1.419 . S
C1507 H1511 0.930 . S
C1508 C1507 1.369 . S
C1508 C1517 1.429 . S
C1509 C1507 1.419 . S
C1509 C1510 1.363 . S
C1509 H1512 0.929 . S
C1510 C1509 1.363 . S
C1510 C1516 1.428 . S
H1511 C1507 0.930 . S
H1512 C1509 0.929 . S
S1513 N1514 1.613 . S
S1513 N1515 1.610 . S
N1514 S1513 1.613 . S
N1514 C1517 1.350 . S
N1515 S1513 1.610 . S
N1515 C1516 1.351 . S
C1516 C1510 1.428 . S
C1516 N1515 1.351 . S
C1516 C1517 1.434 . S
C1517 C1508 1.429 . S
C1517 N1514 1.350 . S
C1517 C1516 1.434 . S
C1518 C1519 1.369 . S
C1518 C1520 1.419 . S
C1518 H1522 0.930 . S
C1519 C1518 1.369 . S
C1519 C1528 1.429 . S
C1520 C1518 1.419 . S
C1520 C1521 1.363 . S
C1520 H1523 0.929 . S
C1521 C1520 1.363 . S
C1521 C1527 1.428 . S
H1522 C1518 0.930 . S
H1523 C1520 0.929 . S
S1524 N1525 1.613 . S
S1524 N1526 1.610 . S
N1525 S1524 1.613 . S
N1525 C1528 1.350 . S
N1526 S1524 1.610 . S
N1526 C1527 1.351 . S
C1527 C1521 1.428 . S
C1527 N1526 1.351 . S
C1527 C1528 1.434 . S
C1528 C1519 1.429 . S
C1528 N1525 1.350 . S
C1528 C1527 1.434 . S
C1529 C1530 1.369 . S
C1529 C1531 1.419 . S
C1529 H1533 0.930 . S
C1530 C1529 1.369 . S
C1530 C1539 1.429 . S
C1531 C1529 1.419 . S
C1531 C1532 1.363 . S
C1531 H1534 0.929 1_554 S
C1532 C1531 1.363 . S
C1532 C1538 1.428 . S
H1533 C1529 0.930 . S
H1534 C1531 0.929 1_556 S
S1535 N1536 1.613 . S
S1535 N1537 1.610 . S
N1536 S1535 1.613 . S
N1536 C1539 1.350 . S
N1537 S1535 1.610 . S
N1537 C1538 1.351 . S
C1538 C1532 1.428 . S
C1538 N1537 1.351 . S
C1538 C1539 1.434 . S
C1539 C1530 1.429 . S
C1539 N1536 1.350 . S
C1539 C1538 1.434 . S
C1540 C1541 1.369 . S
C1540 C1542 1.419 . S
C1540 H1544 0.930 . S
C1541 C1540 1.369 . S
C1541 C1550 1.429 . S
C1542 C1540 1.419 . S
C1542 C1543 1.363 . S
C1542 H1545 0.929 . S
C1543 C1542 1.363 . S
C1543 C1549 1.428 . S
H1544 C1540 0.930 . S
H1545 C1542 0.929 . S
S1546 N1547 1.613 . S
S1546 N1548 1.610 . S
N1547 S1546 1.613 . S
N1547 C1550 1.350 . S
N1548 S1546 1.610 . S
N1548 C1549 1.351 . S
C1549 C1543 1.428 . S
C1549 N1548 1.351 . S
C1549 C1550 1.434 . S
C1550 C1541 1.429 . S
C1550 N1547 1.350 . S
C1550 C1549 1.434 . S
C1551 C1552 1.369 . S
C1551 C1553 1.419 . S
C1551 H1555 0.930 . S
C1552 C1551 1.369 . S
C1552 C1561 1.429 . S
C1553 C1551 1.419 . S
C1553 C1554 1.363 . S
C1553 H1556 0.929 . S
C1554 C1553 1.363 . S
C1554 C1560 1.428 . S
H1555 C1551 0.930 . S
H1556 C1553 0.929 . S
S1557 N1558 1.613 . S
S1557 N1559 1.610 . S
N1558 S1557 1.613 . S
N1558 C1561 1.350 . S
N1559 S1557 1.610 . S
N1559 C1560 1.351 . S
C1560 C1554 1.428 . S
C1560 N1559 1.351 . S
C1560 C1561 1.434 . S
C1561 C1552 1.429 . S
C1561 N1558 1.350 . S
C1561 C1560 1.434 . S
C1562 C1563 1.369 . S
C1562 C1564 1.419 . S
C1562 H1566 0.930 . S
C1563 C1562 1.369 . S
C1563 C1572 1.429 . S
C1564 C1562 1.419 . S
C1564 C1565 1.363 . S
C1564 H1567 0.929 . S
C1565 C1564 1.363 . S
C1565 C1571 1.428 . S
H1566 C1562 0.930 . S
H1567 C1564 0.929 . S
S1568 N1569 1.613 . S
S1568 N1570 1.610 . S
N1569 S1568 1.613 . S
N1569 C1572 1.350 . S
N1570 S1568 1.610 . S
N1570 C1571 1.351 . S
C1571 C1565 1.428 . S
C1571 N1570 1.351 . S
C1571 C1572 1.434 . S
C1572 C1563 1.429 . S
C1572 N1569 1.350 . S
C1572 C1571 1.434 . S
C1573 C1574 1.369 . S
C1573 C1575 1.419 . S
C1573 H1577 0.930 . S
C1574 C1573 1.369 . S
C1574 C1583 1.429 . S
C1575 C1573 1.419 . S
C1575 C1576 1.363 . S
C1575 H1578 0.929 . S
C1576 C1575 1.363 . S
C1576 C1582 1.428 . S
H1577 C1573 0.930 . S
H1578 C1575 0.929 . S
S1579 N1580 1.613 . S
S1579 N1581 1.610 . S
N1580 S1579 1.613 . S
N1580 C1583 1.350 . S
N1581 S1579 1.610 . S
N1581 C1582 1.351 . S
C1582 C1576 1.428 . S
C1582 N1581 1.351 . S
C1582 C1583 1.434 . S
C1583 C1574 1.429 . S
C1583 N1580 1.350 . S
C1583 C1582 1.434 . S
C1584 C1585 1.369 1_554 S
C1584 C1586 1.419 . S
C1584 H1588 0.930 . S
C1585 C1584 1.369 1_556 S
C1585 C1594 1.429 . S
C1586 C1584 1.419 . S
C1586 C1587 1.363 . S
C1586 H1589 0.929 . S
C1587 C1586 1.363 . S
C1587 C1593 1.428 1_554 S
H1588 C1584 0.930 . S
H1589 C1586 0.929 . S
S1590 N1591 1.613 . S
S1590 N1592 1.610 . S
N1591 S1590 1.613 . S
N1591 C1594 1.350 . S
N1592 S1590 1.610 . S
N1592 C1593 1.351 . S
C1593 C1587 1.428 1_556 S
C1593 N1592 1.351 . S
C1593 C1594 1.434 . S
C1594 C1585 1.429 . S
C1594 N1591 1.350 . S
C1594 C1593 1.434 . S
C1595 C1596 1.369 . S
C1595 C1597 1.419 . S
C1595 H1599 0.930 . S
C1596 C1595 1.369 . S
C1596 C1605 1.429 . S
C1597 C1595 1.419 . S
C1597 C1598 1.363 . S
C1597 H1600 0.929 . S
C1598 C1597 1.363 . S
C1598 C1604 1.428 . S
H1599 C1595 0.930 . S
H1600 C1597 0.929 . S
S1601 N1602 1.613 . S
S1601 N1603 1.610 . S
N1602 S1601 1.613 . S
N1602 C1605 1.350 . S
N1603 S1601 1.610 . S
N1603 C1604 1.351 . S
C1604 C1598 1.428 . S
C1604 N1603 1.351 . S
C1604 C1605 1.434 . S
C1605 C1596 1.429 . S
C1605 N1602 1.350 . S
C1605 C1604 1.434 . S
C1606 C1607 1.369 . S
C1606 C1608 1.419 . S
C1606 H1610 0.930 . S
C1607 C1606 1.369 . S
C1607 C1616 1.429 . S
C1608 C1606 1.419 . S
C1608 C1609 1.363 . S
C1608 H1611 0.929 . S
C1609 C1608 1.363 . S
C1609 C1615 1.428 . S
H1610 C1606 0.930 . S
H1611 C1608 0.929 . S
S1612 N1613 1.613 . S
S1612 N1614 1.610 . S
N1613 S1612 1.613 . S
N1613 C1616 1.350 . S
N1614 S1612 1.610 . S
N1614 C1615 1.351 . S
C1615 C1609 1.428 . S
C1615 N1614 1.351 . S
C1615 C1616 1.434 . S
C1616 C1607 1.429 . S
C1616 N1613 1.350 . S
C1616 C1615 1.434 . S
C1617 C1618 1.369 . S
C1617 C1619 1.419 . S
C1617 H1621 0.930 . S
C1618 C1617 1.369 . S
C1618 C1627 1.429 . S
C1619 C1617 1.419 . S
C1619 C1620 1.363 . S
C1619 H1622 0.929 . S
C1620 C1619 1.363 . S
C1620 C1626 1.428 . S
H1621 C1617 0.930 . S
H1622 C1619 0.929 . S
S1623 N1624 1.613 . S
S1623 N1625 1.610 . S
N1624 S1623 1.613 . S
N1624 C1627 1.350 . S
N1625 S1623 1.610 . S
N1625 C1626 1.351 . S
C1626 C1620 1.428 . S
C1626 N1625 1.351 . S
C1626 C1627 1.434 . S
C1627 C1618 1.429 . S
C1627 N1624 1.350 . S
C1627 C1626 1.434 . S
C1628 C1629 1.369 . S
C1628 C1630 1.419 . S
C1628 H1632 0.930 . S
C1629 C1628 1.369 . S
C1629 C1638 1.429 1_556 S
C1630 C1628 1.419 . S
C1630 C1631 1.363 1_556 S
C1630 H1633 0.929 . S
C1631 C1630 1.363 1_554 S
C1631 C1637 1.428 . S
H1632 C1628 0.930 . S
H1633 C1630 0.929 . S
S1634 N1635 1.613 . S
S1634 N1636 1.610 . S
N1635 S1634 1.613 . S
N1635 C1638 1.350 . S
N1636 S1634 1.610 . S
N1636 C1637 1.351 . S
C1637 C1631 1.428 . S
C1637 N1636 1.351 . S
C1637 C1638 1.434 . S
C1638 C1629 1.429 1_554 S
C1638 N1635 1.350 . S
C1638 C1637 1.434 . S
C1639 C1640 1.369 . S
C1639 C1641 1.419 . S
C1639 H1643 0.930 . S
C1640 C1639 1.369 . S
C1640 C1649 1.429 . S
C1641 C1639 1.419 . S
C1641 C1642 1.363 . S
C1641 H1644 0.929 . S
C1642 C1641 1.363 . S
C1642 C1648 1.428 . S
H1643 C1639 0.930 . S
H1644 C1641 0.929 . S
S1645 N1646 1.613 . S
S1645 N1647 1.610 . S
N1646 S1645 1.613 . S
N1646 C1649 1.350 . S
N1647 S1645 1.610 . S
N1647 C1648 1.351 . S
C1648 C1642 1.428 . S
C1648 N1647 1.351 . S
C1648 C1649 1.434 . S
C1649 C1640 1.429 . S
C1649 N1646 1.350 . S
C1649 C1648 1.434 . S
C1650 C1651 1.369 . S
C1650 C1652 1.419 . S
C1650 H1654 0.930 . S
C1651 C1650 1.369 . S
C1651 C1660 1.429 . S
C1652 C1650 1.419 . S
C1652 C1653 1.363 . S
C1652 H1655 0.929 . S
C1653 C1652 1.363 . S
C1653 C1659 1.428 . S
H1654 C1650 0.930 . S
H1655 C1652 0.929 . S
S1656 N1657 1.613 . S
S1656 N1658 1.610 . S
N1657 S1656 1.613 . S
N1657 C1660 1.350 . S
N1658 S1656 1.610 . S
N1658 C1659 1.351 . S
C1659 C1653 1.428 . S
C1659 N1658 1.351 . S
C1659 C1660 1.434 . S
C1660 C1651 1.429 . S
C1660 N1657 1.350 . S
C1660 C1659 1.434 . S
C1661 C1662 1.369 . S
C1661 C1663 1.419 . S
C1661 H1665 0.930 . S
C1662 C1661 1.369 . S
C1662 C1671 1.429 . S
C1663 C1661 1.419 . S
C1663 C1664 1.363 . S
C1663 H1666 0.929 . S
C1664 C1663 1.363 . S
C1664 C1670 1.428 . S
H1665 C1661 0.930 . S
H1666 C1663 0.929 . S
S1667 N1668 1.613 . S
S1667 N1669 1.610 . S
N1668 S1667 1.613 . S
N1668 C1671 1.350 . S
N1669 S1667 1.610 . S
N1669 C1670 1.351 . S
C1670 C1664 1.428 . S
C1670 N1669 1.351 . S
C1670 C1671 1.434 . S
C1671 C1662 1.429 . S
C1671 N1668 1.350 . S
C1671 C1670 1.434 . S
C1672 C1673 1.369 . S
C1672 C1674 1.419 1_565 S
C1672 H1676 0.930 . S
C1673 C1672 1.369 . S
C1673 C1682 1.429 . S
C1674 C1672 1.419 1_545 S
C1674 C1675 1.363 . S
C1674 H1677 0.929 . S
C1675 C1674 1.363 . S
C1675 C1681 1.428 . S
H1676 C1672 0.930 . S
H1677 C1674 0.929 . S
S1678 N1679 1.613 1_545 S
S1678 N1680 1.610 . S
N1679 S1678 1.613 1_565 S
N1679 C1682 1.350 . S
N1680 S1678 1.610 . S
N1680 C1681 1.351 . S
C1681 C1675 1.428 . S
C1681 N1680 1.351 . S
C1681 C1682 1.434 1_545 S
C1682 C1673 1.429 . S
C1682 N1679 1.350 . S
C1682 C1681 1.434 1_565 S
C1683 C1684 1.369 . S
C1683 C1685 1.419 . S
C1683 H1687 0.930 . S
C1684 C1683 1.369 . S
C1684 C1693 1.429 . S
C1685 C1683 1.419 . S
C1685 C1686 1.363 . S
C1685 H1688 0.929 . S
C1686 C1685 1.363 . S
C1686 C1692 1.428 . S
H1687 C1683 0.930 . S
H1688 C1685 0.929 . S
S1689 N1690 1.613 . S
S1689 N1691 1.610 . S
N1690 S1689 1.613 . S
N1690 C1693 1.350 . S
N1691 S1689 1.610 . S
N1691 C1692 1.351 . S
C1692 C1686 1.428 . S
C1692 N1691 1.351 . S
C1692 C1693 1.434 . S
C1693 C1684 1.429 . S
C1693 N1690 1.350 . S
C1693 C1692 1.434 . S
C1694 C1695 1.369 1_556 S
C1694 C1696 1.419 1_565 S
C1694 H1698 0.930 . S
C1695 C1694 1.369 1_554 S
C1695 C1704 1.429 . S
C1696 C1694 1.419 1_545 S
C1696 C1697 1.363 . S
C1696 H1699 0.929 . S
C1697 C1696 1.363 . S
C1697 C1703 1.428 1_556 S
H1698 C1694 0.930 . S
H1699 C1696 0.929 . S
S1700 N1701 1.613 1_545 S
S1700 N1702 1.610 . S
N1701 S1700 1.613 1_565 S
N1701 C1704 1.350 . S
N1702 S1700 1.610 . S
N1702 C1703 1.351 . S
C1703 C1697 1.428 1_554 S
C1703 N1702 1.351 . S
C1703 C1704 1.434 1_545 S
C1704 C1695 1.429 . S
C1704 N1701 1.350 . S
C1704 C1703 1.434 1_565 S
C1705 C1706 1.369 . S
C1705 C1707 1.419 . S
C1705 H1709 0.930 . S
C1706 C1705 1.369 . S
C1706 C1715 1.429 . S
C1707 C1705 1.419 . S
C1707 C1708 1.363 . S
C1707 H1710 0.929 . S
C1708 C1707 1.363 . S
C1708 C1714 1.428 . S
H1709 C1705 0.930 . S
H1710 C1707 0.929 . S
S1711 N1712 1.613 . S
S1711 N1713 1.610 . S
N1712 S1711 1.613 . S
N1712 C1715 1.350 . S
N1713 S1711 1.610 . S
N1713 C1714 1.351 . S
C1714 C1708 1.428 . S
C1714 N1713 1.351 . S
C1714 C1715 1.434 . S
C1715 C1706 1.429 . S
C1715 N1712 1.350 . S
C1715 C1714 1.434 . S
C1716 C1717 1.369 . S
C1716 C1718 1.419 1_545 S
C1716 H1720 0.930 . S
C1717 C1716 1.369 . S
C1717 C1726 1.429 . S
C1718 C1716 1.419 1_565 S
C1718 C1719 1.363 . S
C1718 H1721 0.929 . S
C1719 C1718 1.363 . S
C1719 C1725 1.428 . S
H1720 C1716 0.930 . S
H1721 C1718 0.929 . S
S1722 N1723 1.613 1_565 S
S1722 N1724 1.610 . S
N1723 S1722 1.613 1_545 S
N1723 C1726 1.350 . S
N1724 S1722 1.610 . S
N1724 C1725 1.351 . S
C1725 C1719 1.428 . S
C1725 N1724 1.351 . S
C1725 C1726 1.434 1_565 S
C1726 C1717 1.429 . S
C1726 N1723 1.350 . S
C1726 C1725 1.434 1_545 S
C1727 C1728 1.369 . S
C1727 C1729 1.419 . S
C1727 H1731 0.930 . S
C1728 C1727 1.369 . S
C1728 C1737 1.429 . S
C1729 C1727 1.419 . S
C1729 C1730 1.363 . S
C1729 H1732 0.929 . S
C1730 C1729 1.363 . S
C1730 C1736 1.428 . S
H1731 C1727 0.930 . S
H1732 C1729 0.929 . S
S1733 N1734 1.613 . S
S1733 N1735 1.610 . S
N1734 S1733 1.613 . S
N1734 C1737 1.350 . S
N1735 S1733 1.610 . S
N1735 C1736 1.351 . S
C1736 C1730 1.428 . S
C1736 N1735 1.351 . S
C1736 C1737 1.434 . S
C1737 C1728 1.429 . S
C1737 N1734 1.350 . S
C1737 C1736 1.434 . S
C1738 C1739 1.369 1_556 S
C1738 C1740 1.419 1_565 S
C1738 H1742 0.930 . S
C1739 C1738 1.369 1_554 S
C1739 C1748 1.429 . S
C1740 C1738 1.419 1_545 S
C1740 C1741 1.363 . S
C1740 H1743 0.929 . S
C1741 C1740 1.363 . S
C1741 C1747 1.428 1_556 S
H1742 C1738 0.930 . S
H1743 C1740 0.929 . S
S1744 N1745 1.613 1_545 S
S1744 N1746 1.610 . S
N1745 S1744 1.613 1_565 S
N1745 C1748 1.350 . S
N1746 S1744 1.610 . S
N1746 C1747 1.351 . S
C1747 C1741 1.428 1_554 S
C1747 N1746 1.351 . S
C1747 C1748 1.434 1_545 S
C1748 C1739 1.429 . S
C1748 N1745 1.350 . S
C1748 C1747 1.434 1_565 S
C1749 C1750 1.369 . S
C1749 C1751 1.419 . S
C1749 H1753 0.930 . S
C1750 C1749 1.369 . S
C1750 C1759 1.429 . S
C1751 C1749 1.419 . S
C1751 C1752 1.363 . S
C1751 H1754 0.929 . S
C1752 C1751 1.363 . S
C1752 C1758 1.428 . S
H1753 C1749 0.930 . S
H1754 C1751 0.929 . S
S1755 N1756 1.613 . S
S1755 N1757 1.610 . S
N1756 S1755 1.613 . S
N1756 C1759 1.350 . S
N1757 S1755 1.610 . S
N1757 C1758 1.351 . S
C1758 C1752 1.428 . S
C1758 N1757 1.351 . S
C1758 C1759 1.434 . S
C1759 C1750 1.429 . S
C1759 N1756 1.350 . S
C1759 C1758 1.434 . S
C1760 C1761 1.369 1_556 S
C1760 C1762 1.419 1_455 S
C1760 H1764 0.930 . S
C1761 C1760 1.369 1_554 S
C1761 C1770 1.429 . S
C1762 C1760 1.419 1_655 S
C1762 C1763 1.363 1_556 S
C1762 H1765 0.929 . S
C1763 C1762 1.363 1_554 S
C1763 C1769 1.428 . S
H1764 C1760 0.930 . S
H1765 C1762 0.929 . S
S1766 N1767 1.619 1_655 S
S1766 N1768 1.605 . S
N1767 S1766 1.619 1_455 S
N1767 C1770 1.350 . S
N1768 S1766 1.605 . S
N1768 C1769 1.351 . S
C1769 C1763 1.428 . S
C1769 N1768 1.351 . S
C1769 C1770 1.434 1_655 S
C1770 C1761 1.429 . S
C1770 N1767 1.350 . S
C1770 C1769 1.434 1_455 S
C1771 C1772 1.369 . S
C1771 C1773 1.419 . S
C1771 H1775 0.930 . S
C1772 C1771 1.369 . S
C1772 C1781 1.429 . S
C1773 C1771 1.419 . S
C1773 C1774 1.363 . S
C1773 H1776 0.929 . S
C1774 C1773 1.363 . S
C1774 C1780 1.428 . S
H1775 C1771 0.930 . S
H1776 C1773 0.929 . S
S1777 N1778 1.613 . S
S1777 N1779 1.610 . S
N1778 S1777 1.613 . S
N1778 C1781 1.350 . S
N1779 S1777 1.610 . S
N1779 C1780 1.351 . S
C1780 C1774 1.428 . S
C1780 N1779 1.351 . S
C1780 C1781 1.434 . S
C1781 C1772 1.429 . S
C1781 N1778 1.350 . S
C1781 C1780 1.434 . S
C1782 C1783 1.369 . S
C1782 C1784 1.419 . S
C1782 H1786 0.930 . S
C1783 C1782 1.369 . S
C1783 C1792 1.429 . S
C1784 C1782 1.419 . S
C1784 C1785 1.363 . S
C1784 H1787 0.929 . S
C1785 C1784 1.363 . S
C1785 C1791 1.428 . S
H1786 C1782 0.930 . S
H1787 C1784 0.929 . S
S1788 N1789 1.613 . S
S1788 N1790 1.610 . S
N1789 S1788 1.613 . S
N1789 C1792 1.350 . S
N1790 S1788 1.610 . S
N1790 C1791 1.351 . S
C1791 C1785 1.428 . S
C1791 N1790 1.351 . S
C1791 C1792 1.434 . S
C1792 C1783 1.429 . S
C1792 N1789 1.350 . S
C1792 C1791 1.434 . S
C1793 C1794 1.369 . S
C1793 C1795 1.419 . S
C1793 H1797 0.930 . S
C1794 C1793 1.369 . S
C1794 C1803 1.429 . S
C1795 C1793 1.419 . S
C1795 C1796 1.363 . S
C1795 H1798 0.929 . S
C1796 C1795 1.363 . S
C1796 C1802 1.428 . S
H1797 C1793 0.930 . S
H1798 C1795 0.929 . S
S1799 N1800 1.613 . S
S1799 N1801 1.610 . S
N1800 S1799 1.613 . S
N1800 C1803 1.350 . S
N1801 S1799 1.610 . S
N1801 C1802 1.351 . S
C1802 C1796 1.428 . S
C1802 N1801 1.351 . S
C1802 C1803 1.434 . S
C1803 C1794 1.429 . S
C1803 N1800 1.350 . S
C1803 C1802 1.434 . S
C1804 C1805 1.369 1_554 S
C1804 C1806 1.419 1_655 S
C1804 H1808 0.930 . S
C1805 C1804 1.369 1_556 S
C1805 C1814 1.429 . S
C1806 C1804 1.419 1_455 S
C1806 C1807 1.363 1_554 S
C1806 H1809 0.929 . S
C1807 C1806 1.363 1_556 S
C1807 C1813 1.428 . S
H1808 C1804 0.930 . S
H1809 C1806 0.929 . S
S1810 N1811 1.619 1_455 S
S1810 N1812 1.605 . S
N1811 S1810 1.619 1_655 S
N1811 C1814 1.350 . S
N1812 S1810 1.605 . S
N1812 C1813 1.351 . S
C1813 C1807 1.428 . S
C1813 N1812 1.351 . S
C1813 C1814 1.434 1_455 S
C1814 C1805 1.429 . S
C1814 N1811 1.350 . S
C1814 C1813 1.434 1_655 S
C1815 C1816 1.369 . S
C1815 C1817 1.419 . S
C1815 H1819 0.930 . S
C1816 C1815 1.369 . S
C1816 C1825 1.429 . S
C1817 C1815 1.419 . S
C1817 C1818 1.363 . S
C1817 H1820 0.929 . S
C1818 C1817 1.363 . S
C1818 C1824 1.428 . S
H1819 C1815 0.930 . S
H1820 C1817 0.929 . S
S1821 N1822 1.613 . S
S1821 N1823 1.610 . S
N1822 S1821 1.613 . S
N1822 C1825 1.350 . S
N1823 S1821 1.610 . S
N1823 C1824 1.351 . S
C1824 C1818 1.428 . S
C1824 N1823 1.351 . S
C1824 C1825 1.434 . S
C1825 C1816 1.429 . S
C1825 N1822 1.350 . S
C1825 C1824 1.434 . S
C1826 C1827 1.369 . S
C1826 C1828 1.419 . S
C1826 H1830 0.930 . S
C1827 C1826 1.369 . S
C1827 C1836 1.429 . S
C1828 C1826 1.419 . S
C1828 C1829 1.363 . S
C1828 H1831 0.929 . S
C1829 C1828 1.363 . S
C1829 C1835 1.428 . S
H1830 C1826 0.930 . S
H1831 C1828 0.929 . S
S1832 N1833 1.613 . S
S1832 N1834 1.610 . S
N1833 S1832 1.613 . S
N1833 C1836 1.350 . S
N1834 S1832 1.610 . S
N1834 C1835 1.351 . S
C1835 C1829 1.428 . S
C1835 N1834 1.351 . S
C1835 C1836 1.434 . S
C1836 C1827 1.429 . S
C1836 N1833 1.350 . S
C1836 C1835 1.434 . S
C1837 C1838 1.369 . S
C1837 C1839 1.419 . S
C1837 H1841 0.930 . S
C1838 C1837 1.369 . S
C1838 C1847 1.429 . S
C1839 C1837 1.419 . S
C1839 C1840 1.363 . S
C1839 H1842 0.929 . S
C1840 C1839 1.363 . S
C1840 C1846 1.428 . S
H1841 C1837 0.930 . S
H1842 C1839 0.929 . S
S1843 N1844 1.613 . S
S1843 N1845 1.610 . S
N1844 S1843 1.613 . S
N1844 C1847 1.350 . S
N1845 S1843 1.610 . S
N1845 C1846 1.351 . S
C1846 C1840 1.428 . S
C1846 N1845 1.351 . S
C1846 C1847 1.434 . S
C1847 C1838 1.429 . S
C1847 N1844 1.350 . S
C1847 C1846 1.434 . S
C1848 C1849 1.369 . S
C1848 C1850 1.419 . S
C1848 H1852 0.930 . S
C1849 C1848 1.369 . S
C1849 C1858 1.429 . S
C1850 C1848 1.419 . S
C1850 C1851 1.363 . S
C1850 H1853 0.929 . S
C1851 C1850 1.363 . S
C1851 C1857 1.428 . S
H1852 C1848 0.930 . S
H1853 C1850 0.929 . S
S1854 N1855 1.613 . S
S1854 N1856 1.610 . S
N1855 S1854 1.613 . S
N1855 C1858 1.350 . S
N1856 S1854 1.610 . S
N1856 C1857 1.351 . S
C1857 C1851 1.428 . S
C1857 N1856 1.351 . S
C1857 C1858 1.434 . S
C1858 C1849 1.429 . S
C1858 N1855 1.350 . S
C1858 C1857 1.434 . S
C1859 C1860 1.369 . S
C1859 C1861 1.419 . S
C1859 H1863 0.930 . S
C1860 C1859 1.369 . S
C1860 C1869 1.429 . S
C1861 C1859 1.419 . S
C1861 C1862 1.363 . S
C1861 H1864 0.929 . S
C1862 C1861 1.363 . S
C1862 C1868 1.428 . S
H1863 C1859 0.930 . S
H1864 C1861 0.929 . S
S1865 N1866 1.613 . S
S1865 N1867 1.610 . S
N1866 S1865 1.613 . S
N1866 C1869 1.350 . S
N1867 S1865 1.610 . S
N1867 C1868 1.351 . S
C1868 C1862 1.428 . S
C1868 N1867 1.351 . S
C1868 C1869 1.434 . S
C1869 C1860 1.429 . S
C1869 N1866 1.350 . S
C1869 C1868 1.434 . S
C1870 C1871 1.369 . S
C1870 C1872 1.419 . S
C1870 H1874 0.930 . S
C1871 C1870 1.369 . S
C1871 C1880 1.429 . S
C1872 C1870 1.419 . S
C1872 C1873 1.363 . S
C1872 H1875 0.929 . S
C1873 C1872 1.363 . S
C1873 C1879 1.428 . S
H1874 C1870 0.930 . S
H1875 C1872 0.929 . S
S1876 N1877 1.613 1_554 S
S1876 N1878 1.610 1_554 S
N1877 S1876 1.613 1_556 S
N1877 C1880 1.350 . S
N1878 S1876 1.610 1_556 S
N1878 C1879 1.351 . S
C1879 C1873 1.428 . S
C1879 N1878 1.351 . S
C1879 C1880 1.434 . S
C1880 C1871 1.429 . S
C1880 N1877 1.350 . S
C1880 C1879 1.434 . S
C1881 C1882 1.369 . S
C1881 C1883 1.419 . S
C1881 H1885 0.930 . S
C1882 C1881 1.369 . S
C1882 C1891 1.429 . S
C1883 C1881 1.419 . S
C1883 C1884 1.363 . S
C1883 H1886 0.929 . S
C1884 C1883 1.363 . S
C1884 C1890 1.428 . S
H1885 C1881 0.930 . S
H1886 C1883 0.929 . S
S1887 N1888 1.613 . S
S1887 N1889 1.610 . S
N1888 S1887 1.613 . S
N1888 C1891 1.350 . S
N1889 S1887 1.610 . S
N1889 C1890 1.351 . S
C1890 C1884 1.428 . S
C1890 N1889 1.351 . S
C1890 C1891 1.434 . S
C1891 C1882 1.429 . S
C1891 N1888 1.350 . S
C1891 C1890 1.434 . S
C1892 C1893 1.369 . S
C1892 C1894 1.419 . S
C1892 H1896 0.930 . S
C1893 C1892 1.369 . S
C1893 C1902 1.429 . S
C1894 C1892 1.419 . S
C1894 C1895 1.363 . S
C1894 H1897 0.929 . S
C1895 C1894 1.363 . S
C1895 C1901 1.428 . S
H1896 C1892 0.930 . S
H1897 C1894 0.929 . S
S1898 N1899 1.613 . S
S1898 N1900 1.610 . S
N1899 S1898 1.613 . S
N1899 C1902 1.350 . S
N1900 S1898 1.610 . S
N1900 C1901 1.351 . S
C1901 C1895 1.428 . S
C1901 N1900 1.351 . S
C1901 C1902 1.434 . S
C1902 C1893 1.429 . S
C1902 N1899 1.350 . S
C1902 C1901 1.434 . S
C1903 C1904 1.369 . S
C1903 C1905 1.419 1_455 S
C1903 H1907 0.930 . S
C1904 C1903 1.369 . S
C1904 C1913 1.429 1_554 S
C1905 C1903 1.419 1_655 S
C1905 C1906 1.363 . S
C1905 H1908 0.929 . S
C1906 C1905 1.363 . S
C1906 C1912 1.428 1_554 S
H1907 C1903 0.930 . S
H1908 C1905 0.929 . S
S1909 N1910 1.619 1_655 S
S1909 N1911 1.605 . S
N1910 S1909 1.619 1_455 S
N1910 C1913 1.350 . S
N1911 S1909 1.605 . S
N1911 C1912 1.351 . S
C1912 C1906 1.428 1_556 S
C1912 N1911 1.351 . S
C1912 C1913 1.434 1_655 S
C1913 C1904 1.429 1_556 S
C1913 N1910 1.350 . S
C1913 C1912 1.434 1_455 S
C1914 C1915 1.369 . S
C1914 C1916 1.419 . S
C1914 H1918 0.930 . S
C1915 C1914 1.369 . S
C1915 C1924 1.429 . S
C1916 C1914 1.419 . S
C1916 C1917 1.363 . S
C1916 H1919 0.929 . S
C1917 C1916 1.363 . S
C1917 C1923 1.428 . S
H1918 C1914 0.930 . S
H1919 C1916 0.929 . S
S1920 N1921 1.613 . S
S1920 N1922 1.610 . S
N1921 S1920 1.613 . S
N1921 C1924 1.350 . S
N1922 S1920 1.610 . S
N1922 C1923 1.351 . S
C1923 C1917 1.428 . S
C1923 N1922 1.351 . S
C1923 C1924 1.434 . S
C1924 C1915 1.429 . S
C1924 N1921 1.350 . S
C1924 C1923 1.434 . S
C1925 C1926 1.369 1_554 S
C1925 C1927 1.419 1_455 S
C1925 H1929 0.930 . S
C1926 C1925 1.369 1_556 S
C1926 C1935 1.429 . S
C1927 C1925 1.419 1_655 S
C1927 C1928 1.363 1_554 S
C1927 H1930 0.929 . S
C1928 C1927 1.363 1_556 S
C1928 C1934 1.428 . S
H1929 C1925 0.930 . S
H1930 C1927 0.929 . S
S1931 N1932 1.619 1_655 S
S1931 N1933 1.605 . S
N1932 S1931 1.619 1_455 S
N1932 C1935 1.350 . S
N1933 S1931 1.605 . S
N1933 C1934 1.351 . S
C1934 C1928 1.428 . S
C1934 N1933 1.351 . S
C1934 C1935 1.434 1_655 S
C1935 C1926 1.429 . S
C1935 N1932 1.350 . S
C1935 C1934 1.434 1_455 S
C1057 N2 1.469 . S
C1059 N13 1.468 . S
C1068 N46 1.468 . S
C1070 N35 1.469 1_556 S
C1079 N79 1.468 . S
C1081 N68 1.469 . S
C1090 N112 1.472 . S
C1092 N101 1.466 . S
C1101 N145 1.473 . S
C1103 N134 1.465 . S
C1112 N178 1.474 . S
C1114 N167 1.464 . S
C1123 N200 1.465 . S
C1125 N211 1.472 . S
C1134 N233 1.467 1_554 S
C1136 N244 1.471 . S
C1145 N266 1.470 . S
C1147 N277 1.468 . S
C1156 N299 1.464 1_554 S
C1158 N310 1.473 . S
C1167 N332 1.464 . S
C1169 N343 1.472 . S
C1178 N376 1.472 . S
C1180 N365 1.466 . S
C1189 N398 1.466 . S
C1191 N409 1.471 . S
C1200 N431 1.468 . S
C1202 N442 1.469 . S
C1211 N475 1.472 . S
C1213 N464 1.466 . S
C1222 N497 1.469 1_556 S
C1224 N508 1.469 . S
C1233 N541 1.470 . S
C1235 N530 1.468 . S
C1244 N574 1.473 . S
C1246 N563 1.465 . S
C1255 N607 1.471 . S
C1257 N596 1.466 . S
C1266 N640 1.468 . S
C1268 N629 1.469 1_556 S
C1277 N673 1.466 . S
C1279 N662 1.470 . S
C1288 N706 1.472 . S
C1290 N695 1.466 1_554 S
C1299 N739 1.473 . S
C1301 N728 1.465 . S
C1310 N761 1.463 . S
C1312 N772 1.473 . S
C1321 N805 1.473 . S
C1323 N794 1.464 . S
C1332 N838 1.472 . S
C1334 N827 1.465 . S
C1343 N871 1.466 . S
C1345 N860 1.470 . S
C1354 N893 1.463 1_554 S
C1356 N904 1.473 . S
C1365 N926 1.465 . S
C1367 N937 1.471 . S
C1376 N959 1.463 1_556 S
C1378 N970 1.473 . S
C1387 N1003 1.467 . S
C1389 N992 1.470 . S
C1398 N1025 1.464 . S
C1400 N1036 1.472 . S
C1409 C777 1.169 . S
C1411 C18 1.171 . S
C1420 C678 1.171 . S
C1422 C51 1.170 . S
C1431 C711 1.170 . S
C1433 C84 1.171 . S
C1442 C744 1.171 . S
C1444 C117 1.170 . S
C1453 C579 1.172 . S
C1455 C150 1.169 . S
C1464 C612 1.169 . S
C1466 C183 1.171 . S
C1475 C645 1.169 . S
C1477 C216 1.171 . S
C1486 C546 1.170 . S
C1488 C249 1.171 . S
C1497 C1041 1.171 . S
C1499 C282 1.170 . S
C1508 C942 1.170 . S
C1510 C315 1.171 . S
C1519 C348 1.170 . S
C1521 C975 1.171 . S
C1530 C381 1.172 . S
C1532 C1008 1.169 . S
C1541 C414 1.171 . S
C1543 C843 1.170 . S
C1552 C447 1.171 . S
C1554 C876 1.170 . S
C1563 C480 1.172 . S
C1565 C909 1.170 . S
C1574 C810 1.169 . S
C1576 C513 1.171 . S
C1585 C139 1.462 . S
C1587 C7 1.460 . S
C1596 C40 1.463 . S
C1598 C172 1.464 . S
C1607 C205 1.462 . S
C1609 C73 1.460 . S
C1618 C106 1.461 . S
C1620 C238 1.463 . S
C1629 C271 1.460 . S
C1631 C403 1.462 . S
C1640 C436 1.462 . S
C1642 C304 1.463 . S
C1651 C469 1.462 . S
C1653 C337 1.463 . S
C1662 C502 1.460 . S
C1664 C370 1.462 . S
C1673 C667 1.464 . S
C1675 C535 1.463 . S
C1684 C568 1.459 . S
C1686 C700 1.461 . S
C1695 C601 1.461 . S
C1697 C733 1.460 . S
C1706 C634 1.464 . S
C1708 C766 1.462 . S
C1717 C931 1.464 . S
C1719 C799 1.462 . S
C1728 C964 1.459 . S
C1730 C832 1.459 . S
C1739 C997 1.464 . S
C1741 C865 1.463 . S
C1750 C898 1.464 . S
C1752 C1030 1.463 . S
C1761 C21 1.497 . S
C1763 C417 1.498 . S
C1772 C978 1.500 . S
C1774 C54 1.500 . S
C1783 C87 1.499 . S
C1785 C483 1.499 . S
C1794 C1044 1.498 . S
C1796 C120 1.499 . S
C1805 C285 1.498 . S
C1807 C153 1.498 . S
C1816 C186 1.497 . S
C1818 C846 1.498 . S
C1827 C219 1.498 . S
C1829 C351 1.498 . S
C1838 C252 1.498 . S
C1840 C912 1.498 . S
C1849 C714 1.500 . S
C1851 C318 1.500 . S
C1860 C780 1.500 . S
C1862 C384 1.500 . S
C1871 C582 1.499 . S
C1873 C450 1.499 . S
C1882 C648 1.497 . S
C1884 C516 1.498 . S
C1893 C549 1.500 . S
C1895 C945 1.500 . S
C1904 C1011 1.498 . S
C1906 C615 1.499 . S
C1915 C681 1.500 . S
C1917 C813 1.500 . S
C1926 C879 1.500 . S
C1928 C747 1.500 . S
