# Generated by pormake.
# Topology lcs, (4)-cn, num edge types: 1
# Building blocks:
#     Node 0, Type 0, BuildingBlock: GALJAG_clean_sbu_0, # of connection points: 4
#     Node 1, Type 0, BuildingBlock: GALJAG_clean_sbu_0, # of connection points: 4
#     Node 2, Type 0, BuildingBlock: GALJAG_clean_sbu_0, # of connection points: 4
#     Node 3, Type 0, BuildingBlock: GALJAG_clean_sbu_0, # of connection points: 4
#     Node 4, Type 0, BuildingBlock: GALJAG_clean_sbu_0, # of connection points: 4
#     Node 5, Type 0, BuildingBlock: GALJAG_clean_sbu_0, # of connection points: 4
#     Node 6, Type 0, BuildingBlock: GALJAG_clean_sbu_0, # of connection points: 4
#     Node 7, Type 0, BuildingBlock: GALJAG_clean_sbu_0, # of connection points: 4
#     Node 8, Type 0, BuildingBlock: GALJAG_clean_sbu_0, # of connection points: 4
#     Node 9, Type 0, BuildingBlock: GALJAG_clean_sbu_0, # of connection points: 4
#     Node 10, Type 0, BuildingBlock: GALJAG_clean_sbu_0, # of connection points: 4
#     Node 11, Type 0, BuildingBlock: GALJAG_clean_sbu_0, # of connection points: 4
#     Node 12, Type 0, BuildingBlock: GALJAG_clean_sbu_0, # of connection points: 4
#     Node 13, Type 0, BuildingBlock: GALJAG_clean_sbu_0, # of connection points: 4
#     Node 14, Type 0, BuildingBlock: GALJAG_clean_sbu_0, # of connection points: 4
#     Node 15, Type 0, BuildingBlock: GALJAG_clean_sbu_0, # of connection points: 4
#     Node 16, Type 0, BuildingBlock: GALJAG_clean_sbu_0, # of connection points: 4
#     Node 17, Type 0, BuildingBlock: GALJAG_clean_sbu_0, # of connection points: 4
#     Node 18, Type 0, BuildingBlock: GALJAG_clean_sbu_0, # of connection points: 4
#     Node 19, Type 0, BuildingBlock: GALJAG_clean_sbu_0, # of connection points: 4
#     Node 20, Type 0, BuildingBlock: GALJAG_clean_sbu_0, # of connection points: 4
#     Node 21, Type 0, BuildingBlock: GALJAG_clean_sbu_0, # of connection points: 4
#     Node 22, Type 0, BuildingBlock: GALJAG_clean_sbu_0, # of connection points: 4
#     Node 23, Type 0, BuildingBlock: GALJAG_clean_sbu_0, # of connection points: 4
#     Edge 24, Type (0, 0), BuildingBlock: OJICUG_clean_linker_0, # of connection points: 2
#     Edge 25, Type (0, 0), BuildingBlock: OJICUG_clean_linker_0, # of connection points: 2
#     Edge 26, Type (0, 0), BuildingBlock: OJICUG_clean_linker_0, # of connection points: 2
#     Edge 27, Type (0, 0), BuildingBlock: OJICUG_clean_linker_0, # of connection points: 2
#     Edge 28, Type (0, 0), BuildingBlock: OJICUG_clean_linker_0, # of connection points: 2
#     Edge 29, Type (0, 0), BuildingBlock: OJICUG_clean_linker_0, # of connection points: 2
#     Edge 30, Type (0, 0), BuildingBlock: OJICUG_clean_linker_0, # of connection points: 2
#     Edge 31, Type (0, 0), BuildingBlock: OJICUG_clean_linker_0, # of connection points: 2
#     Edge 32, Type (0, 0), BuildingBlock: OJICUG_clean_linker_0, # of connection points: 2
#     Edge 33, Type (0, 0), BuildingBlock: OJICUG_clean_linker_0, # of connection points: 2
#     Edge 34, Type (0, 0), BuildingBlock: OJICUG_clean_linker_0, # of connection points: 2
#     Edge 35, Type (0, 0), BuildingBlock: OJICUG_clean_linker_0, # of connection points: 2
#     Edge 36, Type (0, 0), BuildingBlock: OJICUG_clean_linker_0, # of connection points: 2
#     Edge 37, Type (0, 0), BuildingBlock: OJICUG_clean_linker_0, # of connection points: 2
#     Edge 38, Type (0, 0), BuildingBlock: OJICUG_clean_linker_0, # of connection points: 2
#     Edge 39, Type (0, 0), BuildingBlock: OJICUG_clean_linker_0, # of connection points: 2
#     Edge 40, Type (0, 0), BuildingBlock: OJICUG_clean_linker_0, # of connection points: 2
#     Edge 41, Type (0, 0), BuildingBlock: OJICUG_clean_linker_0, # of connection points: 2
#     Edge 42, Type (0, 0), BuildingBlock: OJICUG_clean_linker_0, # of connection points: 2
#     Edge 43, Type (0, 0), BuildingBlock: OJICUG_clean_linker_0, # of connection points: 2
#     Edge 44, Type (0, 0), BuildingBlock: OJICUG_clean_linker_0, # of connection points: 2
#     Edge 45, Type (0, 0), BuildingBlock: OJICUG_clean_linker_0, # of connection points: 2
#     Edge 46, Type (0, 0), BuildingBlock: OJICUG_clean_linker_0, # of connection points: 2
#     Edge 47, Type (0, 0), BuildingBlock: OJICUG_clean_linker_0, # of connection points: 2
#     Edge 48, Type (0, 0), BuildingBlock: OJICUG_clean_linker_0, # of connection points: 2
#     Edge 49, Type (0, 0), BuildingBlock: OJICUG_clean_linker_0, # of connection points: 2
#     Edge 50, Type (0, 0), BuildingBlock: OJICUG_clean_linker_0, # of connection points: 2
#     Edge 51, Type (0, 0), BuildingBlock: OJICUG_clean_linker_0, # of connection points: 2
#     Edge 52, Type (0, 0), BuildingBlock: OJICUG_clean_linker_0, # of connection points: 2
#     Edge 53, Type (0, 0), BuildingBlock: OJICUG_clean_linker_0, # of connection points: 2
#     Edge 54, Type (0, 0), BuildingBlock: OJICUG_clean_linker_0, # of connection points: 2
#     Edge 55, Type (0, 0), BuildingBlock: OJICUG_clean_linker_0, # of connection points: 2
#     Edge 56, Type (0, 0), BuildingBlock: OJICUG_clean_linker_0, # of connection points: 2
#     Edge 57, Type (0, 0), BuildingBlock: OJICUG_clean_linker_0, # of connection points: 2
#     Edge 58, Type (0, 0), BuildingBlock: OJICUG_clean_linker_0, # of connection points: 2
#     Edge 59, Type (0, 0), BuildingBlock: OJICUG_clean_linker_0, # of connection points: 2
#     Edge 60, Type (0, 0), BuildingBlock: OJICUG_clean_linker_0, # of connection points: 2
#     Edge 61, Type (0, 0), BuildingBlock: OJICUG_clean_linker_0, # of connection points: 2
#     Edge 62, Type (0, 0), BuildingBlock: OJICUG_clean_linker_0, # of connection points: 2
#     Edge 63, Type (0, 0), BuildingBlock: OJICUG_clean_linker_0, # of connection points: 2
#     Edge 64, Type (0, 0), BuildingBlock: OJICUG_clean_linker_0, # of connection points: 2
#     Edge 65, Type (0, 0), BuildingBlock: OJICUG_clean_linker_0, # of connection points: 2
#     Edge 66, Type (0, 0), BuildingBlock: OJICUG_clean_linker_0, # of connection points: 2
#     Edge 67, Type (0, 0), BuildingBlock: OJICUG_clean_linker_0, # of connection points: 2
#     Edge 68, Type (0, 0), BuildingBlock: OJICUG_clean_linker_0, # of connection points: 2
#     Edge 69, Type (0, 0), BuildingBlock: OJICUG_clean_linker_0, # of connection points: 2
#     Edge 70, Type (0, 0), BuildingBlock: OJICUG_clean_linker_0, # of connection points: 2
#     Edge 71, Type (0, 0), BuildingBlock: OJICUG_clean_linker_0, # of connection points: 2
# Relax obj value: 0.033
# Max RMSD: 0.061
# Mean RMSD: 0.060
data_MOF--net-lcs--node1-GALJAG_clean_sbu_0--edge1-OJICUG_clean_linker_0
_symmetry_space_group_name_H-M    P1
_symmetry_Int_Tables_number       1
_symmetry_cell_setting            triclinic
loop_
_symmetry_equiv_pos_as_xyz
'x, y, z'
_cell_length_a     36.376963
_cell_length_b     36.264783
_cell_length_c     36.2591
_cell_angle_alpha  90.126888
_cell_angle_beta   90.094282
_cell_angle_gamma 90.114788
loop_
_atom_site_label
_atom_site_type_symbol
_atom_site_fract_x
_atom_site_fract_y
_atom_site_fract_z
_atom_type_partial_charge
In0 In 0.99495 0.25832 0.37387 0.0
O1 O 0.03314 0.24999 0.42407 0.0
O2 O 0.04566 0.22188 0.37432 0.0
C3 C 0.93458 0.28657 0.40633 0.0
C4 C 0.02217 0.31962 0.34131 0.0
C5 C 0.96358 0.19952 0.34023 0.0
O6 O 0.95579 0.26457 0.42303 0.0
O7 O 0.94399 0.2942 0.37373 0.0
O8 O 0.98729 0.21935 0.32422 0.0
O9 O 0.95561 0.20968 0.37249 0.0
C10 C 0.05447 0.22824 0.40731 0.0
O11 O 0.00785 0.29364 0.32287 0.0
O12 O 0.02331 0.31417 0.37563 0.0
In13 In 0.00253 0.73782 0.63001 0.0
O14 O 0.0427 0.73698 0.58078 0.0
O15 O 0.05506 0.70442 0.62773 0.0
C16 C 0.93844 0.756 0.5973 0.0
C17 C 0.97787 0.67587 0.6625 0.0
C18 C 0.02481 0.80012 0.66501 0.0
O19 O 0.96669 0.74753 0.57884 0.0
O20 O 0.9427 0.75501 0.63184 0.0
O21 O 0.02775 0.76866 0.67949 0.0
O22 O 0.01092 0.80002 0.6332 0.0
C23 C 0.06437 0.7144 0.59588 0.0
O24 O 0.98568 0.70457 0.68087 0.0
O25 O 0.98216 0.67883 0.62808 0.0
In26 In 0.501 0.76331 0.8791 0.0
O27 O 0.53529 0.74952 0.93054 0.0
O28 O 0.56176 0.74899 0.87832 0.0
C29 C 0.43914 0.78807 0.91234 0.0
C30 C 0.52602 0.82464 0.84528 0.0
C31 C 0.47756 0.70099 0.84442 0.0
O32 O 0.46295 0.76957 0.92964 0.0
O33 O 0.44641 0.79338 0.87882 0.0
O34 O 0.47621 0.73232 0.82948 0.0
O35 O 0.4905 0.70114 0.87662 0.0
C36 C 0.56462 0.74421 0.91264 0.0
O37 O 0.52249 0.7941 0.82872 0.0
O38 O 0.51718 0.82415 0.87895 0.0
In39 In 0.503 0.24531 0.1254 0.0
O40 O 0.53327 0.21874 0.07702 0.0
O41 O 0.56477 0.23495 0.12384 0.0
C42 C 0.44058 0.26618 0.09025 0.0
C43 C 0.48528 0.18398 0.16376 0.0
C44 C 0.52509 0.31022 0.15493 0.0
O45 O 0.47148 0.26571 0.07459 0.0
O46 O 0.44105 0.25555 0.12328 0.0
O47 O 0.51454 0.28366 0.17481 0.0
O48 O 0.52429 0.30388 0.12074 0.0
C49 C 0.56457 0.22066 0.09206 0.0
O50 O 0.48782 0.2153 0.17892 0.0
O51 O 0.49179 0.18376 0.12962 0.0
In52 In 0.99783 0.75739 0.1262 0.0
O53 O 0.9908 0.70472 0.16118 0.0
O54 O 0.04441 0.7261 0.15428 0.0
C55 C 0.97162 0.813 0.16832 0.0
C56 C 0.05527 0.78652 0.08884 0.0
C57 C 0.94286 0.73602 0.07999 0.0
O58 O 0.96978 0.77974 0.17862 0.0
O59 O 0.98611 0.81777 0.13715 0.0
O60 O 0.94047 0.76364 0.10094 0.0
O61 O 0.97349 0.71988 0.08124 0.0
C62 C 0.02463 0.70092 0.16751 0.0
O63 O 0.03559 0.76119 0.07509 0.0
O64 O 0.04587 0.79665 0.12069 0.0
In65 In 0.50526 0.74714 0.37287 0.0
O66 O 0.4457 0.75008 0.39259 0.0
O67 O 0.48074 0.71122 0.4185 0.0
C68 C 0.56471 0.76478 0.41456 0.0
C69 C 0.52309 0.6909 0.32706 0.0
C70 C 0.48424 0.80742 0.33412 0.0
O71 O 0.56677 0.74468 0.38626 0.0
O72 O 0.5326 0.77523 0.42238 0.0
O73 O 0.50609 0.80898 0.36106 0.0
O74 O 0.47348 0.77529 0.32607 0.0
C75 C 0.44891 0.72477 0.41614 0.0
O76 O 0.50048 0.68746 0.35313 0.0
O77 O 0.53605 0.72299 0.32342 0.0
In78 In 0.49199 0.25556 0.6301 0.0
O79 O 0.50835 0.22056 0.68036 0.0
O80 O 0.52169 0.20045 0.62703 0.0
C81 C 0.46908 0.31627 0.66699 0.0
C82 C 0.55216 0.28156 0.59504 0.0
C83 C 0.42871 0.2314 0.59812 0.0
O84 O 0.47427 0.28574 0.68286 0.0
O85 O 0.47488 0.31594 0.63272 0.0
O86 O 0.45159 0.25121 0.5811 0.0
O87 O 0.43768 0.22418 0.63085 0.0
C88 C 0.52269 0.19516 0.66137 0.0
O89 O 0.5285 0.2617 0.57885 0.0
O90 O 0.54557 0.28785 0.62863 0.0
In91 In 0.00634 0.24822 0.88353 0.0
O92 O 0.98127 0.21545 0.93135 0.0
O93 O 0.94628 0.25102 0.90098 0.0
C94 C 0.0662 0.26893 0.92308 0.0
C95 C 0.02513 0.18928 0.84155 0.0
C96 C 0.98259 0.30607 0.84289 0.0
O97 O 0.03385 0.27607 0.93333 0.0
O98 O 0.06822 0.25093 0.89341 0.0
O99 O 0.97313 0.27322 0.83624 0.0
O100 O 0.00489 0.30967 0.86931 0.0
C101 C 0.9492 0.22788 0.92668 0.0
O102 O 0.03555 0.22166 0.83423 0.0
O103 O 0.00465 0.18679 0.86942 0.0
In104 In 0.37926 0.99895 0.25365 0.0
O105 O 0.33388 0.03446 0.27919 0.0
O106 O 0.36299 0.99841 0.31469 0.0
C107 C 0.33708 0.9806 0.19454 0.0
C108 C 0.42378 0.05501 0.23276 0.0
C109 C 0.41871 0.93862 0.27303 0.0
O110 O 0.33099 0.96831 0.22648 0.0
O111 O 0.36343 0.00308 0.1927 0.0
O112 O 0.42886 0.97094 0.28116 0.0
O113 O 0.38925 0.93693 0.25484 0.0
C114 C 0.33861 0.02286 0.31163 0.0
O115 O 0.42613 0.02303 0.21913 0.0
O116 O 0.39999 0.05829 0.25779 0.0
In117 In 0.24407 0.12727 0.49853 0.0
O118 O 0.24175 0.07738 0.5374 0.0
O119 O 0.19896 0.1171 0.54074 0.0
C120 C 0.27369 0.09165 0.43974 0.0
C121 C 0.18397 0.16115 0.47085 0.0
C122 C 0.29977 0.16597 0.53098 0.0
O123 O 0.26328 0.07475 0.46828 0.0
O124 O 0.26976 0.1261 0.44123 0.0
O125 O 0.28513 0.17615 0.50117 0.0
O126 O 0.28603 0.13714 0.5443 0.0
C127 C 0.21246 0.08758 0.55306 0.0
O128 O 0.20417 0.17624 0.49501 0.0
O129 O 0.19408 0.12932 0.46106 0.0
In130 In 0.11809 0.9979 0.74657 0.0
O131 O 0.06919 0.02801 0.7723 0.0
O132 O 0.11673 0.05948 0.75863 0.0
C133 C 0.08268 0.93483 0.72697 0.0
C134 C 0.14942 0.02096 0.68291 0.0
C135 C 0.15628 0.97951 0.80777 0.0
O136 O 0.06864 0.96627 0.72252 0.0
O137 O 0.11397 0.93523 0.74174 0.0
O138 O 0.16946 0.9759 0.77572 0.0
O139 O 0.12434 0.99292 0.80888 0.0
C140 C 0.08462 0.0593 0.77182 0.0
O141 O 0.1684 0.01057 0.71017 0.0
O142 O 0.11519 0.01928 0.68778 0.0
In143 In 0.24691 0.88535 1.00077 0.0
O144 O 0.20862 0.83486 0.00618 0.0
O145 O 0.19117 0.88624 0.02828 0.0
C146 C 0.30928 0.85283 0.97692 0.0
C147 C 0.22068 0.91884 0.93968 0.0
C148 C 0.27327 0.91863 0.06228 0.0
O149 O 0.28564 0.83539 0.99559 0.0
O150 O 0.30157 0.88618 0.97103 0.0
O151 O 0.27 0.93554 0.03202 0.0
O152 O 0.26378 0.8852 0.06123 0.0
C153 C 0.18402 0.85259 0.02324 0.0
O154 O 0.2228 0.93524 0.9704 0.0
O155 O 0.23143 0.88581 0.93998 0.0
In156 In 0.25384 0.37695 0.00796 0.0
O157 O 0.25496 0.39174 0.06932 0.0
O158 O 0.22337 0.42565 0.03383 0.0
C159 C 0.27438 0.41867 0.94954 0.0
C160 C 0.3116 0.33466 0.02847 0.0
C161 C 0.19499 0.33557 0.98788 0.0
O162 O 0.25318 0.39128 0.94663 0.0
O163 O 0.28487 0.42548 0.98206 0.0
O164 O 0.19248 0.36376 0.00806 0.0
O165 O 0.22736 0.32768 0.97827 0.0
C166 C 0.23367 0.41894 0.06637 0.0
O167 O 0.31444 0.36073 0.00572 0.0
O168 O 0.27947 0.32937 0.04044 0.0
In169 In 0.75771 0.12415 0.0059 0.0
O170 O 0.75749 0.11345 0.06778 0.0
O171 O 0.78328 0.07351 0.0337 0.0
C172 C 0.73897 0.09182 0.94112 0.0
C173 C 0.69622 0.15925 0.02823 0.0
C174 C 0.81958 0.16271 0.99015 0.0
O175 O 0.73932 0.07434 0.97122 0.0
O176 O 0.74813 0.12524 0.94382 0.0
O177 O 0.82005 0.13003 0.0018 0.0
O178 O 0.78787 0.17638 0.98706 0.0
C179 C 0.77492 0.08352 0.06599 0.0
O180 O 0.72808 0.1717 0.03455 0.0
O181 O 0.69538 0.12946 0.01018 0.0
In182 In 0.12573 0.50853 0.25235 0.0
O183 O 0.17764 0.48331 0.22628 0.0
O184 O 0.13354 0.49826 0.19105 0.0
C185 C 0.16725 0.53405 0.30902 0.0
C186 C 0.09032 0.56929 0.22809 0.0
C187 C 0.08293 0.45261 0.27801 0.0
O188 O 0.14419 0.55336 0.29188 0.0
O189 O 0.17019 0.50135 0.29732 0.0
O190 O 0.09181 0.48012 0.29736 0.0
O191 O 0.0941 0.45406 0.2452 0.0
C192 C 0.16533 0.48489 0.19373 0.0
O193 O 0.07296 0.54209 0.24135 0.0
O194 O 0.12473 0.56532 0.22701 0.0
In195 In 0.75316 0.86365 0.50928 0.0
O196 O 0.7537 0.91526 0.54681 0.0
O197 O 0.71637 0.8718 0.55874 0.0
C198 C 0.77709 0.90722 0.45349 0.0
C199 C 0.80688 0.8182 0.53438 0.0
C200 C 0.69399 0.82695 0.48288 0.0
O201 O 0.79373 0.9051 0.48396 0.0
O202 O 0.74799 0.88847 0.45172 0.0
O203 O 0.72557 0.81241 0.48363 0.0
O204 O 0.6927 0.8595 0.49506 0.0
C205 C 0.72846 0.90318 0.56747 0.0
O206 O 0.80361 0.82642 0.50079 0.0
O207 O 0.78237 0.83164 0.5548 0.0
In208 In 0.87031 0.99998 0.26098 0.0
O209 O 0.81967 0.02193 0.22996 0.0
O210 O 0.8664 0.00707 0.19861 0.0
C211 C 0.83924 0.97424 0.32335 0.0
C212 C 0.90729 0.9387 0.24076 0.0
C213 C 0.90089 0.06469 0.2828 0.0
O214 O 0.8216 0.97736 0.29344 0.0
O215 O 0.87258 0.98394 0.32169 0.0
O216 O 0.91966 0.0393 0.26824 0.0
O217 O 0.86722 0.05737 0.2862 0.0
C218 C 0.83418 0.01955 0.19849 0.0
O219 O 0.9225 0.97002 0.24289 0.0
O220 O 0.87375 0.93821 0.24956 0.0
In221 In 0.25846 0.62494 0.50419 0.0
O222 O 0.27759 0.57454 0.53667 0.0
O223 O 0.27299 0.62571 0.56524 0.0
C224 C 0.23451 0.59376 0.44053 0.0
C225 C 0.19542 0.65451 0.52962 0.0
C226 C 0.32088 0.66008 0.48369 0.0
O227 O 0.24526 0.5746 0.46747 0.0
O228 O 0.23607 0.62804 0.44584 0.0
O229 O 0.29119 0.67702 0.48959 0.0
O230 O 0.31914 0.62574 0.4886 0.0
C231 C 0.28068 0.59181 0.56686 0.0
O232 O 0.22093 0.67417 0.51646 0.0
O233 O 0.20169 0.6203 0.52962 0.0
In234 In 0.37682 0.50783 0.7609 0.0
O235 O 0.3294 0.53861 0.7328 0.0
O236 O 0.36495 0.5066 0.69921 0.0
C237 C 0.33786 0.48732 0.82112 0.0
C238 C 0.41457 0.4475 0.73849 0.0
C239 C 0.41613 0.56837 0.78082 0.0
O240 O 0.32565 0.48326 0.78872 0.0
O241 O 0.36909 0.5023 0.82298 0.0
O242 O 0.42632 0.53608 0.78875 0.0
O243 O 0.38696 0.56992 0.76216 0.0
C244 C 0.33781 0.52806 0.70068 0.0
O245 O 0.4243 0.47988 0.73017 0.0
O246 O 0.38672 0.44568 0.75905 0.0
In247 In 0.63242 0.00943 0.75148 0.0
O248 O 0.68395 0.99683 0.71672 0.0
O249 O 0.63176 0.97741 0.69818 0.0
C250 C 0.67797 0.03201 0.80671 0.0
C251 C 0.59273 0.06637 0.72352 0.0
C252 C 0.59137 0.95299 0.77794 0.0
O253 O 0.66501 0.99989 0.80477 0.0
O254 O 0.66941 0.05235 0.77993 0.0
O255 O 0.58411 0.98622 0.78561 0.0
O256 O 0.61848 0.94868 0.75689 0.0
C257 C 0.66592 0.9792 0.69249 0.0
O258 O 0.58577 0.05261 0.7547 0.0
O259 O 0.61886 0.05115 0.70676 0.0
In260 In 0.75314 0.6339 0.99103 0.0
O261 O 0.71604 0.59045 0.01738 0.0
O262 O 0.7552 0.61726 0.05183 0.0
C263 C 0.76873 0.59122 0.93135 0.0
C264 C 0.69612 0.67821 0.97195 0.0
C265 C 0.81471 0.67094 0.01191 0.0
O266 O 0.77081 0.57926 0.96393 0.0
O267 O 0.75847 0.62426 0.929 0.0
O268 O 0.78292 0.6844 0.01512 0.0
O269 O 0.81541 0.63916 0.99784 0.0
C270 C 0.72943 0.59404 0.04938 0.0
O271 O 0.69478 0.65641 0.99893 0.0
O272 O 0.72651 0.6785 0.95527 0.0
In273 In 0.87162 0.48893 0.75052 0.0
O274 O 0.90657 0.54117 0.75903 0.0
O275 O 0.90386 0.51834 0.70538 0.0
C276 C 0.90994 0.43158 0.77807 0.0
C277 C 0.82731 0.51423 0.8052 0.0
C278 C 0.83455 0.46257 0.69118 0.0
O279 O 0.92406 0.46329 0.77461 0.0
O280 O 0.87673 0.42921 0.76818 0.0
O281 O 0.82185 0.48833 0.71088 0.0
O282 O 0.865 0.4501 0.70189 0.0
C283 C 0.91562 0.54399 0.72564 0.0
O284 O 0.82773 0.52813 0.77336 0.0
O285 O 0.84794 0.48664 0.80897 0.0
In286 In 0.7396 0.37796 0.49484 0.0
O287 O 0.70016 0.32857 0.50195 0.0
O288 O 0.68757 0.3788 0.52928 0.0
C289 C 0.80133 0.34709 0.46782 0.0
C290 C 0.71509 0.41172 0.43309 0.0
C291 C 0.76945 0.40752 0.55638 0.0
O292 O 0.77784 0.32852 0.48563 0.0
O293 O 0.79354 0.38073 0.46381 0.0
O294 O 0.75076 0.42668 0.53408 0.0
O295 O 0.77325 0.37417 0.54723 0.0
C296 C 0.67864 0.34578 0.52318 0.0
O297 O 0.72598 0.42968 0.461 0.0
O298 O 0.71559 0.37716 0.43692 0.0
In299 In 0.62656 0.50352 0.23797 0.0
O300 O 0.57333 0.53135 0.25792 0.0
O301 O 0.61979 0.56507 0.24683 0.0
C302 C 0.58796 0.44486 0.21246 0.0
C303 C 0.66327 0.52871 0.17839 0.0
C304 C 0.6651 0.47813 0.29716 0.0
O305 O 0.57985 0.46048 0.24256 0.0
O306 O 0.61469 0.45909 0.19567 0.0
O307 O 0.66318 0.46084 0.26705 0.0
O308 O 0.64927 0.50892 0.29683 0.0
C309 C 0.5869 0.56347 0.25749 0.0
O310 O 0.67971 0.52128 0.20829 0.0
O311 O 0.62899 0.52352 0.17899 0.0
C312 C 0.05961 0.41662 0.33185 0.0
C313 C 0.06449 0.41971 0.29357 0.0
H314 H 0.04281 0.38248 0.37684 0.0
C315 C 0.05414 0.38998 0.2708 0.0
H316 H 0.06745 0.43895 0.35015 0.0
C317 C 0.0398 0.35756 0.28613 0.0
C318 C 0.03598 0.35415 0.32453 0.0
H319 H 0.05767 0.39154 0.24119 0.0
H320 H 0.03241 0.33495 0.268 0.0
C321 C 0.0457 0.38415 0.34716 0.0
C322 C 0.90059 0.77324 0.54197 0.0
C323 C 0.90355 0.76814 0.58027 0.0
H324 H 0.86737 0.79291 0.49721 0.0
C325 C 0.87327 0.77663 0.60273 0.0
H326 H 0.92345 0.76684 0.52397 0.0
C327 C 0.84128 0.79139 0.58748 0.0
C328 C 0.83883 0.79801 0.54941 0.0
H329 H 0.8746 0.7728 0.63233 0.0
H330 H 0.81889 0.79867 0.60574 0.0
C331 C 0.86848 0.78808 0.52666 0.0
C332 C 0.42627 0.63663 0.77987 0.0
C333 C 0.43471 0.60192 0.79483 0.0
H334 H 0.43366 0.69521 0.78352 0.0
C335 C 0.45886 0.59994 0.825 0.0
H336 H 0.40773 0.63897 0.75659 0.0
C337 C 0.47317 0.63217 0.84081 0.0
C338 C 0.46412 0.66693 0.82633 0.0
H339 H 0.4657 0.57359 0.83722 0.0
H340 H 0.49101 0.62988 0.86464 0.0
C341 C 0.4411 0.66881 0.79526 0.0
C342 C 0.63304 0.21683 0.08773 0.0
C343 C 0.59825 0.20646 0.07438 0.0
H344 H 0.69141 0.21053 0.08306 0.0
C345 C 0.59595 0.18167 0.04463 0.0
H346 H 0.63562 0.23602 0.11054 0.0
C347 C 0.62786 0.16668 0.02926 0.0
C348 C 0.66264 0.17675 0.04289 0.0
H349 H 0.56947 0.17317 0.03382 0.0
H350 H 0.62528 0.147 0.00688 0.0
C351 C 0.66496 0.20238 0.07191 0.0
C352 C 0.09463 0.63329 0.2037 0.0
C353 C 0.07257 0.60346 0.21476 0.0
H354 H 0.09677 0.6874 0.18067 0.0
C355 C 0.03415 0.60668 0.2122 0.0
H356 H 0.12432 0.63183 0.20553 0.0
C357 C 0.01824 0.63882 0.19781 0.0
C358 C 0.04052 0.66824 0.18594 0.0
H359 H 0.01648 0.58417 0.22064 0.0
H360 H 0.98861 0.64032 0.19528 0.0
C361 C 0.07882 0.66527 0.18955 0.0
C362 C 0.59457 0.80739 0.4597 0.0
C363 C 0.59755 0.77787 0.4348 0.0
H364 H 0.62284 0.8461 0.49418 0.0
C365 C 0.63245 0.76286 0.42762 0.0
H366 H 0.56808 0.81957 0.46576 0.0
C367 C 0.66391 0.77783 0.4443 0.0
C368 C 0.66097 0.80841 0.46792 0.0
H369 H 0.63553 0.74004 0.40856 0.0
H370 H 0.69056 0.76632 0.43772 0.0
C371 C 0.62596 0.82267 0.47586 0.0
C372 C 0.43897 0.34751 0.72073 0.0
C373 C 0.45725 0.34991 0.68673 0.0
H374 H 0.41078 0.37671 0.7637 0.0
C375 C 0.4635 0.38482 0.67119 0.0
H376 H 0.43382 0.32094 0.73331 0.0
C377 C 0.45117 0.41673 0.68898 0.0
C378 C 0.4316 0.41426 0.72224 0.0
H379 H 0.47777 0.38748 0.64512 0.0
H380 H 0.45577 0.44321 0.676 0.0
C381 C 0.42585 0.37939 0.7381 0.0
C382 C 0.88232 0.23057 0.94221 0.0
C383 C 0.91687 0.21394 0.947 0.0
H384 H 0.82444 0.22764 0.95258 0.0
C385 C 0.91955 0.18216 0.96889 0.0
H386 H 0.87944 0.25517 0.92557 0.0
C387 C 0.888 0.16622 0.98409 0.0
C388 C 0.85325 0.18199 0.97798 0.0
H389 H 0.94581 0.16874 0.97305 0.0
H390 H 0.89071 0.14096 0.99974 0.0
C391 C 0.85083 0.21485 0.95771 0.0
C392 C 0.30369 0.03733 0.40915 0.0
C393 C 0.28875 0.07294 0.4068 0.0
H394 H 0.33163 0.9936 0.38077 0.0
C395 C 0.28869 0.09104 0.37257 0.0
H396 H 0.30406 0.02276 0.43519 0.0
C397 C 0.30362 0.07409 0.34137 0.0
C398 C 0.31966 0.039 0.3439 0.0
H399 H 0.27712 0.11841 0.3699 0.0
H400 H 0.3036 0.08896 0.31549 0.0
C401 C 0.31942 0.02068 0.37804 0.0
C402 C 0.1438 0.05755 0.62506 0.0
C403 C 0.16553 0.03593 0.64864 0.0
H404 H 0.14179 0.09105 0.57656 0.0
C405 C 0.20256 0.0298 0.63955 0.0
H406 H 0.11519 0.06282 0.63138 0.0
C407 C 0.21763 0.04539 0.60759 0.0
C408 C 0.1961 0.06802 0.58475 0.0
H409 H 0.21988 0.01314 0.6572 0.0
H410 H 0.24637 0.04072 0.60141 0.0
C411 C 0.15902 0.07376 0.5937 0.0
C412 C 0.16551 0.98031 0.87615 0.0
C413 C 0.17525 0.96641 0.84129 0.0
H414 H 0.17297 0.97663 0.93476 0.0
C415 C 0.20139 0.93809 0.839 0.0
H416 H 0.14541 0.00217 0.87865 0.0
C417 C 0.2164 0.92289 0.87107 0.0
C418 C 0.20625 0.9364 0.90595 0.0
H419 H 0.20922 0.92674 0.81249 0.0
H420 H 0.23578 0.90038 0.86858 0.0
C421 C 0.18127 0.96577 0.9082 0.0
C422 C 0.2824 0.91875 0.13062 0.0
C423 C 0.28737 0.93615 0.09637 0.0
H424 H 0.29352 0.91965 0.18865 0.0
C425 C 0.30667 0.96969 0.09506 0.0
H426 H 0.2674 0.89299 0.13251 0.0
C427 C 0.32199 0.98477 0.1272 0.0
C428 C 0.3177 0.9669 0.16132 0.0
H429 H 0.31086 0.98373 0.06906 0.0
H430 H 0.33773 0.01008 0.12524 0.0
C431 C 0.29715 0.93413 0.1628 0.0
C432 C 0.34118 0.2923 0.07404 0.0
C433 C 0.34384 0.31401 0.04212 0.0
H434 H 0.36986 0.26025 0.11443 0.0
C435 C 0.37814 0.31773 0.02472 0.0
H436 H 0.31511 0.28899 0.08806 0.0
C437 C 0.40939 0.30092 0.03956 0.0
C438 C 0.40701 0.28053 0.07237 0.0
H439 H 0.38097 0.33422 1.00001 0.0
H440 H 0.43562 0.30496 0.02604 0.0
C441 C 0.37252 0.27593 0.08917 0.0
C442 C 0.97194 0.87974 0.18469 0.0
C443 C 0.95733 0.84427 0.19008 0.0
H444 H 0.96813 0.93731 0.19736 0.0
C445 C 0.92783 0.83963 0.21454 0.0
H446 H 0.99484 0.88402 0.1661 0.0
C447 C 0.91202 0.8703 0.23187 0.0
C448 C 0.92612 0.9059 0.22573 0.0
H449 H 0.91603 0.81256 0.21907 0.0
H450 H 0.88838 0.86625 0.24955 0.0
C451 C 0.95679 0.9102 0.2027 0.0
C452 C 0.14847 0.70495 0.53485 0.0
C453 C 0.16152 0.67009 0.54552 0.0
H454 H 0.1066 0.74616 0.5419 0.0
C455 C 0.1421 0.64999 0.57218 0.0
H456 H 0.16296 0.72093 0.51425 0.0
C457 C 0.11066 0.66469 0.58847 0.0
C458 C 0.09741 0.69939 0.57778 0.0
H459 H 0.15162 0.62312 0.58102 0.0
H460 H 0.09653 0.64869 0.60932 0.0
C461 C 0.11628 0.71929 0.55051 0.0
C462 C 0.95801 0.63919 0.71766 0.0
C463 C 0.96434 0.64144 0.67951 0.0
H464 H 0.93787 0.60625 0.76239 0.0
C465 C 0.95692 0.61054 0.65727 0.0
H466 H 0.96365 0.66253 0.73549 0.0
C467 C 0.9424 0.57842 0.67261 0.0
C468 C 0.93495 0.57647 0.71054 0.0
H469 H 0.96173 0.61133 0.6278 0.0
H470 H 0.93617 0.5554 0.65453 0.0
C471 C 0.94342 0.60695 0.73306 0.0
C472 C 0.13522 0.16464 0.4226 0.0
C473 C 0.15087 0.17882 0.45511 0.0
H474 H 0.0928 0.16937 0.38203 0.0
C475 C 0.13437 0.20941 0.47224 0.0
H476 H 0.14732 0.14113 0.40874 0.0
C477 C 0.1026 0.22532 0.45717 0.0
C478 C 0.08728 0.21127 0.4244 0.0
H479 H 0.1458 0.22081 0.49741 0.0
H480 H 0.09032 0.24883 0.47087 0.0
C481 C 0.104 0.18086 0.40727 0.0
C482 C 0.54901 0.38813 0.22115 0.0
C483 C 0.56911 0.41173 0.19799 0.0
H484 H 0.51959 0.33687 0.22579 0.0
C485 C 0.57321 0.40235 0.16064 0.0
H486 H 0.54561 0.39467 0.2501 0.0
C487 C 0.55809 0.36981 0.14674 0.0
C488 C 0.539 0.34552 0.16998 0.0
H489 H 0.58849 0.42004 0.1421 0.0
H490 H 0.56217 0.36328 0.11787 0.0
C491 C 0.53432 0.35505 0.2073 0.0
C492 C 0.35834 0.80392 0.97679 0.0
C493 C 0.34258 0.83566 0.96122 0.0
H494 H 0.40215 0.7642 0.97394 0.0
C495 C 0.35889 0.85138 0.9299 0.0
H496 H 0.3463 0.79134 1.001 0.0
C497 C 0.38998 0.83551 0.91407 0.0
C498 C 0.4061 0.80407 0.92972 0.0
H499 H 0.34726 0.87575 0.91721 0.0
H500 H 0.4017 0.84819 0.88974 0.0
C501 C 0.39025 0.78851 0.96143 0.0
C502 C 0.96285 0.40418 0.81295 0.0
C503 C 0.9302 0.39951 0.79273 0.0
H504 H 0.00505 0.37811 0.84498 0.0
C505 C 0.91628 0.36374 0.78731 0.0
H506 H 0.97419 0.43146 0.81752 0.0
C507 C 0.9342 0.33326 0.8024 0.0
C508 C 0.96611 0.33797 0.82375 0.0
H509 H 0.89129 0.35928 0.77161 0.0
H510 H 0.9224 0.30611 0.79827 0.0
C511 C 0.98048 0.37368 0.82862 0.0
C512 C 0.35198 0.21161 0.52945 0.0
C513 C 0.33143 0.18487 0.54847 0.0
H514 H 0.39926 0.24724 0.53013 0.0
C515 C 0.34241 0.17474 0.58419 0.0
H516 H 0.3442 0.21986 0.50183 0.0
C517 C 0.37354 0.1905 0.60039 0.0
C518 C 0.39472 0.21651 0.58113 0.0
H519 H 0.32711 0.15428 0.59961 0.0
H520 H 0.38139 0.18172 0.62783 0.0
C521 C 0.38351 0.22717 0.54558 0.0
C522 C 0.56706 0.66268 0.28235 0.0
C523 C 0.53618 0.65906 0.30524 0.0
H524 H 0.60724 0.63517 0.24928 0.0
C525 C 0.51995 0.62408 0.30947 0.0
H526 H 0.58015 0.68925 0.27853 0.0
C527 C 0.53532 0.59306 0.29243 0.0
C528 C 0.5674 0.59646 0.27122 0.0
H529 H 0.49604 0.62049 0.32688 0.0
H530 H 0.52301 0.56627 0.29716 0.0
C531 C 0.58261 0.63167 0.26568 0.0
C532 C 0.09926 0.83839 0.08133 0.0
C533 C 0.08702 0.80344 0.06994 0.0
H534 H 0.13901 0.88129 0.07512 0.0
C535 C 0.10629 0.78484 0.04197 0.0
H536 H 0.08489 0.85344 0.10274 0.0
C537 C 0.13797 0.80063 0.02647 0.0
C538 C 0.15025 0.83554 0.03821 0.0
H539 H 0.09746 0.75778 0.03282 0.0
H540 H 0.15285 0.78557 0.00544 0.0
C541 C 0.13025 0.85438 0.06543 0.0
C542 C 0.67822 0.91416 0.61232 0.0
C543 C 0.71315 0.92378 0.59905 0.0
H544 H 0.63603 0.9244 0.65182 0.0
C545 C 0.73286 0.95221 0.61666 0.0
H546 H 0.66232 0.89245 0.59925 0.0
C547 C 0.71794 0.97024 0.64751 0.0
C548 C 0.68282 0.96058 0.66049 0.0
H549 H 0.75993 0.96003 0.607 0.0
H550 H 0.73363 0.99186 0.66093 0.0
C551 C 0.66311 0.93255 0.64241 0.0
C552 C 0.78649 0.94534 0.35688 0.0
C553 C 0.8225 0.95939 0.35738 0.0
H554 H 0.74386 0.918 0.38697 0.0
C555 C 0.84268 0.9582 0.39047 0.0
H556 H 0.77022 0.94596 0.33184 0.0
C557 C 0.82746 0.94242 0.42216 0.0
C558 C 0.79187 0.92733 0.42131 0.0
H559 H 0.87045 0.96897 0.39174 0.0
H560 H 0.84395 0.94116 0.44704 0.0
C561 C 0.77138 0.92938 0.38848 0.0
C562 C 0.8161 0.03829 0.0975 0.0
C563 C 0.78715 0.06376 0.09938 0.0
H564 H 0.85387 0.00449 0.1276 0.0
C565 C 0.77187 0.07234 0.13393 0.0
H566 H 0.82845 0.03124 0.07125 0.0
C567 C 0.78606 0.05664 0.16614 0.0
C568 C 0.81621 0.03261 0.16439 0.0
H569 H 0.74944 0.09182 0.13616 0.0
H570 H 0.77437 0.06447 0.19247 0.0
C571 C 0.8307 0.0231 0.12974 0.0
C572 C 0.71001 0.08261 0.84117 0.0
C573 C 0.69772 0.0459 0.83964 0.0
H574 H 0.73285 0.12581 0.87441 0.0
C575 C 0.70152 0.02359 0.8711 0.0
H576 H 0.70744 0.10047 0.8174 0.0
C577 C 0.71588 0.03817 0.90388 0.0
C578 C 0.72683 0.07529 0.90578 0.0
H579 H 0.69224 0.99519 0.87079 0.0
H580 H 0.71751 0.02062 0.92796 0.0
C581 C 0.72447 0.09713 0.87387 0.0
C582 C 0.59939 0.71652 0.9656 0.0
C583 C 0.59914 0.73103 0.92971 0.0
H584 H 0.6304 0.68824 0.00717 0.0
C585 C 0.63184 0.73066 0.90911 0.0
H586 H 0.57459 0.71643 0.9821 0.0
C587 C 0.66381 0.71497 0.92357 0.0
C588 C 0.66364 0.69888 0.95876 0.0
H589 H 0.63254 0.74177 0.88141 0.0
H590 H 0.68827 0.71421 0.90658 0.0
C591 C 0.6313 0.70035 0.97991 0.0
C592 C 0.03644 0.09027 0.81016 0.0
C593 C 0.06742 0.09285 0.78723 0.0
H594 H 0.99884 0.11886 0.84551 0.0
C595 C 0.08291 0.12772 0.78047 0.0
H596 H 0.02395 0.06375 0.81588 0.0
C597 C 0.06825 0.1593 0.797 0.0
C598 C 0.03815 0.15654 0.82105 0.0
H599 H 0.10672 0.13056 0.76278 0.0
H600 H 0.08123 0.18569 0.79186 0.0
C601 C 0.02211 0.12179 0.82714 0.0
C602 C 0.8857 0.33449 0.40863 0.0
C603 C 0.90092 0.30199 0.42298 0.0
H604 H 0.84257 0.37435 0.41196 0.0
C605 C 0.88316 0.28418 0.45239 0.0
H606 H 0.89885 0.34881 0.38599 0.0
C607 C 0.85035 0.29841 0.46677 0.0
C608 C 0.83538 0.33112 0.45252 0.0
H609 H 0.89426 0.25896 0.4638 0.0
H610 H 0.83696 0.28412 0.48926 0.0
C611 C 0.85352 0.34912 0.42352 0.0
C612 C 0.55192 0.92433 0.82687 0.0
C613 C 0.57158 0.92111 0.79373 0.0
H614 H 0.52247 0.89603 0.86956 0.0
C615 C 0.57458 0.88631 0.77687 0.0
H616 H 0.54938 0.95079 0.84052 0.0
C617 C 0.55886 0.85518 0.79314 0.0
C618 C 0.54041 0.85807 0.82698 0.0
H619 H 0.58953 0.88304 0.75126 0.0
H620 H 0.56207 0.82867 0.77971 0.0
C621 C 0.53675 0.89298 0.84355 0.0
C622 C 0.96567 0.14589 0.29634 0.0
C623 C 0.94705 0.16619 0.32355 0.0
H624 H 0.96598 0.09712 0.26253 0.0
C625 C 0.913 0.15332 0.33641 0.0
H626 H 0.9921 0.15514 0.28614 0.0
C627 C 0.89785 0.12074 0.32252 0.0
C628 C 0.91683 0.09982 0.29609 0.0
H629 H 0.89805 0.16845 0.35736 0.0
H630 H 0.87158 0.1115 0.33312 0.0
C631 C 0.95087 0.11267 0.28303 0.0
C632 C 0.5512 0.12141 0.73004 0.0
C633 C 0.57313 0.09847 0.70789 0.0
H634 H 0.51833 0.17051 0.7328 0.0
C635 C 0.57771 0.10729 0.67047 0.0
H636 H 0.54734 0.11535 0.75902 0.0
C637 C 0.56095 0.13845 0.65548 0.0
C638 C 0.53961 0.16185 0.67765 0.0
H639 H 0.59441 0.09013 0.65268 0.0
H640 H 0.56518 0.14446 0.62654 0.0
C641 C 0.53478 0.15303 0.71509 0.0
C642 C 0.16576 0.2887 0.94637 0.0
C643 C 0.16231 0.31547 0.97419 0.0
H644 H 0.13793 0.25294 0.90838 0.0
C645 C 0.12707 0.32469 0.98704 0.0
H646 H 0.19256 0.28102 0.93593 0.0
C647 C 0.09579 0.30846 0.97143 0.0
C648 C 0.09917 0.28292 0.94248 0.0
H649 H 0.12357 0.34516 0.00856 0.0
H650 H 0.06895 0.31685 0.98121 0.0
C651 C 0.13447 0.27268 0.93057 0.0
C652 C 0.41937 0.67551 0.45409 0.0
C653 C 0.41718 0.71008 0.43688 0.0
H654 H 0.39044 0.63246 0.48222 0.0
C655 C 0.38365 0.72927 0.43748 0.0
H656 H 0.44483 0.66006 0.45399 0.0
C657 C 0.35261 0.71368 0.45409 0.0
C658 C 0.35443 0.67837 0.46982 0.0
H659 H 0.3812 0.75602 0.42448 0.0
H660 H 0.32691 0.7287 0.45342 0.0
C661 C 0.38822 0.65967 0.47014 0.0
C662 C 0.79054 0.56578 0.83245 0.0
C663 C 0.80791 0.53148 0.83667 0.0
H664 H 0.76452 0.61151 0.85911 0.0
C665 C 0.80959 0.51558 0.87197 0.0
H666 H 0.78886 0.57877 0.80563 0.0
C667 C 0.79559 0.53434 0.90266 0.0
C668 C 0.7798 0.56942 0.89865 0.0
H669 H 0.82279 0.48915 0.87609 0.0
H670 H 0.79825 0.52189 0.92966 0.0
C671 C 0.7767 0.58458 0.86312 0.0
C672 C 0.66363 0.54206 0.11096 0.0
C673 C 0.68192 0.54301 0.14514 0.0
H674 H 0.66461 0.55685 0.05386 0.0
C675 C 0.71704 0.55905 0.1472 0.0
H676 H 0.6366 0.52971 0.10847 0.0
C677 C 0.73292 0.57509 0.11588 0.0
C678 C 0.71422 0.57475 0.08188 0.0
H679 H 0.73172 0.56018 0.17319 0.0
H680 H 0.75961 0.58816 0.11838 0.0
C681 C 0.67973 0.55748 0.07963 0.0
C682 C 0.70015 0.40804 0.36585 0.0
C683 C 0.70375 0.42936 0.3981 0.0
H684 H 0.68594 0.40691 0.30851 0.0
C685 C 0.69659 0.46736 0.39637 0.0
H686 H 0.70579 0.37872 0.36623 0.0
C687 C 0.68495 0.48349 0.36328 0.0
C688 C 0.68082 0.46201 0.33117 0.0
H689 H 0.69927 0.4845 0.42074 0.0
H690 H 0.67869 0.51268 0.36296 0.0
C691 C 0.68905 0.42423 0.3327 0.0
C692 C 0.82793 0.41486 0.6422 0.0
C693 C 0.81645 0.44854 0.65742 0.0
H694 H 0.82194 0.37559 0.59859 0.0
C695 C 0.78912 0.46895 0.63919 0.0
H696 H 0.84895 0.39851 0.65561 0.0
C697 C 0.77399 0.45603 0.60594 0.0
C698 C 0.78556 0.42225 0.59086 0.0
H699 H 0.77995 0.49513 0.65023 0.0
H700 H 0.75311 0.47228 0.59224 0.0
C701 C 0.81247 0.40174 0.60949 0.0
C702 C 0.44222 0.12155 0.23534 0.0
C703 C 0.44387 0.08706 0.21764 0.0
H704 H 0.45452 0.17934 0.23235 0.0
C705 C 0.46193 0.08428 0.18355 0.0
H706 H 0.42849 0.1245 0.26167 0.0
C707 C 0.47636 0.1157 0.16659 0.0
C708 C 0.47344 0.15044 0.1836 0.0
H709 H 0.46357 0.0581 0.16921 0.0
H710 H 0.48903 0.11291 0.13972 0.0
C711 C 0.4571 0.15293 0.21858 0.0
C712 C 0.06352 0.8333 0.71164 0.0
C713 C 0.03749 0.83442 0.68305 0.0
H714 H 0.09854 0.86444 0.74777 0.0
C715 C 0.02471 0.86879 0.67066 0.0
H716 H 0.07385 0.80718 0.72168 0.0
C717 C 0.03826 0.9015 0.68606 0.0
C718 C 0.0654 0.90042 0.71359 0.0
H719 H 0.00449 0.87042 0.64875 0.0
H720 H 0.02843 0.92761 0.6755 0.0
C721 C 0.07765 0.86604 0.7265 0.0
C722 C 0.48325 0.87597 0.32576 0.0
C723 C 0.47014 0.84086 0.31561 0.0
H724 H 0.47746 0.9345 0.31999 0.0
C725 C 0.44179 0.83822 0.28941 0.0
H726 H 0.50514 0.87888 0.34584 0.0
C727 C 0.42585 0.87005 0.27476 0.0
C728 C 0.43808 0.90517 0.28586 0.0
H729 H 0.43113 0.81157 0.28103 0.0
H730 H 0.40335 0.86712 0.25536 0.0
C731 C 0.46743 0.90782 0.31094 0.0
C732 C 0.88266 0.67235 0.02304 0.0
C733 C 0.84819 0.68959 0.02587 0.0
H734 H 0.93974 0.67369 0.03766 0.0
C735 C 0.84579 0.72376 0.04403 0.0
H736 H 0.88541 0.64604 0.00912 0.0
C737 C 0.87693 0.73961 0.06034 0.0
C738 C 0.9111 0.72163 0.05879 0.0
H739 H 0.81964 0.73777 0.04656 0.0
H740 H 0.87398 0.76542 0.07513 0.0
C741 C 0.9138 0.68821 0.03932 0.0
C742 C 0.60187 0.3287 0.59106 0.0
C743 C 0.58454 0.29739 0.57621 0.0
H744 H 0.64472 0.36874 0.58552 0.0
C745 C 0.59838 0.28181 0.54352 0.0
H746 H 0.59173 0.34139 0.61613 0.0
C747 C 0.62936 0.2971 0.5263 0.0
C748 C 0.6463 0.32875 0.54101 0.0
H749 H 0.58554 0.2576 0.53156 0.0
H750 H 0.63974 0.28452 0.50128 0.0
C751 C 0.63212 0.34444 0.57344 0.0
C752 C 0.18935 0.46322 0.09465 0.0
C753 C 0.21905 0.43891 0.09876 0.0
H754 H 0.14905 0.49665 0.12153 0.0
C755 C 0.23269 0.43179 0.13436 0.0
H756 H 0.1782 0.46921 0.0676 0.0
C757 C 0.21614 0.44779 0.16533 0.0
C758 C 0.1854 0.4708 0.16123 0.0
H759 H 0.2556 0.41318 0.13834 0.0
H760 H 0.22662 0.44116 0.1925 0.0
C761 C 0.17257 0.47882 0.12556 0.0
C762 C 0.28876 0.44886 0.85061 0.0
C763 C 0.31886 0.47294 0.85415 0.0
H764 H 0.25111 0.4127 0.87811 0.0
C765 C 0.33241 0.4811 0.88958 0.0
H766 H 0.27776 0.44202 0.82367 0.0
C767 C 0.317 0.46456 0.92075 0.0
C768 C 0.28796 0.43923 0.91709 0.0
H769 H 0.35553 0.49965 0.89319 0.0
H770 H 0.32865 0.47069 0.94759 0.0
C771 C 0.27357 0.43202 0.88178 0.0
C772 C 0.31156 0.54021 0.60044 0.0
C773 C 0.29292 0.57405 0.60137 0.0
H774 H 0.34059 0.49916 0.63131 0.0
C775 C 0.28691 0.59135 0.63556 0.0
H776 H 0.31654 0.52626 0.57448 0.0
C777 C 0.3 0.57549 0.66815 0.0
C778 C 0.31995 0.5424 0.66704 0.0
H779 H 0.27238 0.61736 0.63709 0.0
H780 H 0.29567 0.58982 0.69402 0.0
C781 C 0.32529 0.52471 0.63294 0.0
C782 C 0.18773 0.5869 0.34778 0.0
C783 C 0.18743 0.54872 0.34128 0.0
H784 H 0.2031 0.63088 0.38389 0.0
C785 C 0.20439 0.52522 0.36692 0.0
H786 H 0.17499 0.60573 0.32845 0.0
C787 C 0.22027 0.5397 0.39916 0.0
C788 C 0.21975 0.5779 0.40592 0.0
H789 H 0.20442 0.49565 0.36262 0.0
H790 H 0.23246 0.52102 0.41895 0.0
C791 C 0.20385 0.60132 0.37958 0.0
loop_
_geom_bond_atom_site_label_1
_geom_bond_atom_site_label_2
_geom_bond_distance
_geom_bond_site_symmetry_2
_ccdc_geom_bond_type
In0 O1 2.307 . S
In0 O2 2.345 . S
In0 O6 2.253 1_455 S
In0 O7 2.307 1_455 S
In0 O8 2.258 1_455 S
In0 O9 2.315 1_455 S
In0 O11 2.302 . S
In0 O12 2.337 . S
O1 In0 2.307 . S
O1 C10 1.240 . S
O2 In0 2.345 . S
O2 C10 1.252 . S
C3 O6 1.252 . S
C3 O7 1.260 . S
C4 O11 1.240 . S
C4 O12 1.252 . S
C5 O8 1.252 . S
C5 O9 1.260 . S
O6 In0 2.253 1_655 S
O6 C3 1.252 . S
O7 In0 2.307 1_655 S
O7 C3 1.260 . S
O8 In0 2.258 1_655 S
O8 C5 1.252 . S
O9 In0 2.315 1_655 S
O9 C5 1.260 . S
C10 O1 1.240 . S
C10 O2 1.252 . S
O11 In0 2.302 . S
O11 C4 1.240 . S
O12 In0 2.337 . S
O12 C4 1.252 . S
In13 O14 2.308 . S
In13 O15 2.348 . S
In13 O19 2.253 1_455 S
In13 O20 2.303 1_455 S
In13 O21 2.271 . S
In13 O22 2.336 . S
In13 O24 2.289 1_455 S
In13 O25 2.317 1_455 S
O14 In13 2.308 . S
O14 C23 1.240 . S
O15 In13 2.348 . S
O15 C23 1.252 . S
C16 O19 1.252 . S
C16 O20 1.260 . S
C17 O24 1.240 . S
C17 O25 1.252 . S
C18 O21 1.252 . S
C18 O22 1.260 . S
O19 In13 2.253 1_655 S
O19 C16 1.252 . S
O20 In13 2.303 1_655 S
O20 C16 1.260 . S
O21 In13 2.271 . S
O21 C18 1.252 . S
O22 In13 2.336 . S
O22 C18 1.260 . S
C23 O14 1.240 . S
C23 O15 1.252 . S
O24 In13 2.289 1_655 S
O24 C17 1.240 . S
O25 In13 2.317 1_655 S
O25 C17 1.252 . S
In26 O27 2.294 . S
In26 O28 2.326 . S
In26 O32 2.266 . S
In26 O33 2.326 . S
In26 O34 2.266 . S
In26 O35 2.326 . S
In26 O37 2.294 . S
In26 O38 2.326 . S
O27 In26 2.294 . S
O27 C36 1.240 . S
O28 In26 2.326 . S
O28 C36 1.252 . S
C29 O32 1.252 . S
C29 O33 1.260 . S
C30 O37 1.240 . S
C30 O38 1.252 . S
C31 O34 1.252 . S
C31 O35 1.260 . S
O32 In26 2.266 . S
O32 C29 1.252 . S
O33 In26 2.326 . S
O33 C29 1.260 . S
O34 In26 2.266 . S
O34 C31 1.252 . S
O35 In26 2.326 . S
O35 C31 1.260 . S
C36 O27 1.240 . S
C36 O28 1.252 . S
O37 In26 2.294 . S
O37 C30 1.240 . S
O38 In26 2.326 . S
O38 C30 1.252 . S
In39 O40 2.294 . S
In39 O41 2.326 . S
In39 O45 2.266 . S
In39 O46 2.326 . S
In39 O47 2.266 . S
In39 O48 2.326 . S
In39 O50 2.294 . S
In39 O51 2.326 . S
O40 In39 2.294 . S
O40 C49 1.240 . S
O41 In39 2.326 . S
O41 C49 1.252 . S
C42 O45 1.252 . S
C42 O46 1.260 . S
C43 O50 1.240 . S
C43 O51 1.252 . S
C44 O47 1.252 . S
C44 O48 1.260 . S
O45 In39 2.266 . S
O45 C42 1.252 . S
O46 In39 2.326 . S
O46 C42 1.260 . S
O47 In39 2.266 . S
O47 C44 1.252 . S
O48 In39 2.326 . S
O48 C44 1.260 . S
C49 O40 1.240 . S
C49 O41 1.252 . S
O50 In39 2.294 . S
O50 C43 1.240 . S
O51 In39 2.326 . S
O51 C43 1.252 . S
In52 O53 2.302 . S
In52 O54 2.337 . S
In52 O58 2.258 1_455 S
In52 O59 2.315 1_455 S
In52 O60 2.253 1_455 S
In52 O61 2.306 1_455 S
In52 O63 2.307 . S
In52 O64 2.346 . S
O53 In52 2.302 . S
O53 C62 1.240 . S
O54 In52 2.337 . S
O54 C62 1.252 . S
C55 O58 1.252 . S
C55 O59 1.260 . S
C56 O63 1.240 . S
C56 O64 1.252 . S
C57 O60 1.252 . S
C57 O61 1.260 . S
O58 In52 2.258 1_655 S
O58 C55 1.252 . S
O59 In52 2.315 1_655 S
O59 C55 1.260 . S
O60 In52 2.253 1_655 S
O60 C57 1.252 . S
O61 In52 2.306 1_655 S
O61 C57 1.260 . S
C62 O53 1.240 . S
C62 O54 1.252 . S
O63 In52 2.307 . S
O63 C56 1.240 . S
O64 In52 2.346 . S
O64 C56 1.252 . S
In65 O66 2.294 . S
In65 O67 2.326 . S
In65 O71 2.266 . S
In65 O72 2.326 . S
In65 O73 2.266 . S
In65 O74 2.326 . S
In65 O76 2.294 . S
In65 O77 2.326 . S
O66 In65 2.294 . S
O66 C75 1.240 . S
O67 In65 2.326 . S
O67 C75 1.252 . S
C68 O71 1.252 . S
C68 O72 1.260 . S
C69 O76 1.240 . S
C69 O77 1.252 . S
C70 O73 1.252 . S
C70 O74 1.260 . S
O71 In65 2.266 . S
O71 C68 1.252 . S
O72 In65 2.326 . S
O72 C68 1.260 . S
O73 In65 2.266 . S
O73 C70 1.252 . S
O74 In65 2.326 . S
O74 C70 1.260 . S
C75 O66 1.240 . S
C75 O67 1.252 . S
O76 In65 2.294 . S
O76 C69 1.240 . S
O77 In65 2.326 . S
O77 C69 1.252 . S
In78 O79 2.294 . S
In78 O80 2.326 . S
In78 O84 2.266 . S
In78 O85 2.326 . S
In78 O86 2.266 . S
In78 O87 2.326 . S
In78 O89 2.294 . S
In78 O90 2.326 . S
O79 In78 2.294 . S
O79 C88 1.240 . S
O80 In78 2.326 . S
O80 C88 1.252 . S
C81 O84 1.252 . S
C81 O85 1.260 . S
C82 O89 1.240 . S
C82 O90 1.252 . S
C83 O86 1.252 . S
C83 O87 1.260 . S
O84 In78 2.266 . S
O84 C81 1.252 . S
O85 In78 2.326 . S
O85 C81 1.260 . S
O86 In78 2.266 . S
O86 C83 1.252 . S
O87 In78 2.326 . S
O87 C83 1.260 . S
C88 O79 1.240 . S
C88 O80 1.252 . S
O89 In78 2.294 . S
O89 C82 1.240 . S
O90 In78 2.326 . S
O90 C82 1.252 . S
In91 O92 2.289 1_455 S
In91 O93 2.318 1_455 S
In91 O97 2.271 . S
In91 O98 2.334 . S
In91 O99 2.265 1_455 S
In91 O100 2.322 1_455 S
In91 O102 2.296 . S
In91 O103 2.330 . S
O92 In91 2.289 1_655 S
O92 C101 1.240 . S
O93 In91 2.318 1_655 S
O93 C101 1.252 . S
C94 O97 1.252 . S
C94 O98 1.260 . S
C95 O102 1.240 . S
C95 O103 1.252 . S
C96 O99 1.252 . S
C96 O100 1.260 . S
O97 In91 2.271 . S
O97 C94 1.252 . S
O98 In91 2.334 . S
O98 C94 1.260 . S
O99 In91 2.265 1_655 S
O99 C96 1.252 . S
O100 In91 2.322 1_655 S
O100 C96 1.260 . S
C101 O92 1.240 . S
C101 O93 1.252 . S
O102 In91 2.296 . S
O102 C95 1.240 . S
O103 In91 2.330 . S
O103 C95 1.252 . S
In104 O105 2.302 . S
In104 O106 2.337 . S
In104 O110 2.258 1_545 S
In104 O111 2.315 1_545 S
In104 O112 2.253 1_545 S
In104 O113 2.307 1_545 S
In104 O115 2.307 . S
In104 O116 2.345 . S
O105 In104 2.302 . S
O105 C114 1.240 . S
O106 In104 2.337 . S
O106 C114 1.252 . S
C107 O110 1.252 . S
C107 O111 1.260 . S
C108 O115 1.240 . S
C108 O116 1.252 . S
C109 O112 1.252 . S
C109 O113 1.260 . S
O110 In104 2.258 1_565 S
O110 C107 1.252 . S
O111 In104 2.315 1_565 S
O111 C107 1.260 . S
O112 In104 2.253 1_565 S
O112 C109 1.252 . S
O113 In104 2.307 1_565 S
O113 C109 1.260 . S
C114 O105 1.240 . S
C114 O106 1.252 . S
O115 In104 2.307 . S
O115 C108 1.240 . S
O116 In104 2.345 . S
O116 C108 1.252 . S
In117 O118 2.294 . S
In117 O119 2.326 . S
In117 O123 2.266 . S
In117 O124 2.326 . S
In117 O125 2.266 . S
In117 O126 2.326 . S
In117 O128 2.294 . S
In117 O129 2.326 . S
O118 In117 2.294 . S
O118 C127 1.240 . S
O119 In117 2.326 . S
O119 C127 1.252 . S
C120 O123 1.252 . S
C120 O124 1.260 . S
C121 O128 1.240 . S
C121 O129 1.252 . S
C122 O125 1.252 . S
C122 O126 1.260 . S
O123 In117 2.266 . S
O123 C120 1.252 . S
O124 In117 2.326 . S
O124 C120 1.260 . S
O125 In117 2.266 . S
O125 C122 1.252 . S
O126 In117 2.326 . S
O126 C122 1.260 . S
C127 O118 1.240 . S
C127 O119 1.252 . S
O128 In117 2.294 . S
O128 C121 1.240 . S
O129 In117 2.326 . S
O129 C121 1.252 . S
In130 O131 2.307 . S
In130 O132 2.346 . S
In130 O136 2.253 1_545 S
In130 O137 2.306 1_545 S
In130 O138 2.258 1_545 S
In130 O139 2.315 1_545 S
In130 O141 2.302 . S
In130 O142 2.337 . S
O131 In130 2.307 . S
O131 C140 1.240 . S
O132 In130 2.346 . S
O132 C140 1.252 . S
C133 O136 1.252 . S
C133 O137 1.260 . S
C134 O141 1.240 . S
C134 O142 1.252 . S
C135 O138 1.252 . S
C135 O139 1.260 . S
O136 In130 2.253 1_565 S
O136 C133 1.252 . S
O137 In130 2.306 1_565 S
O137 C133 1.260 . S
O138 In130 2.258 1_565 S
O138 C135 1.252 . S
O139 In130 2.315 1_565 S
O139 C135 1.260 . S
C140 O131 1.240 . S
C140 O132 1.252 . S
O141 In130 2.302 . S
O141 C134 1.240 . S
O142 In130 2.337 . S
O142 C134 1.252 . S
In143 O144 2.296 . S
In143 O145 2.330 . S
In143 O149 2.265 1_554 S
In143 O150 2.322 1_554 S
In143 O151 2.271 . S
In143 O152 2.334 . S
In143 O154 2.289 1_554 S
In143 O155 2.318 1_554 S
O144 In143 2.296 . S
O144 C153 1.240 . S
O145 In143 2.330 . S
O145 C153 1.252 . S
C146 O149 1.252 . S
C146 O150 1.260 . S
C147 O154 1.240 . S
C147 O155 1.252 . S
C148 O151 1.252 . S
C148 O152 1.260 . S
O149 In143 2.265 1_556 S
O149 C146 1.252 . S
O150 In143 2.322 1_556 S
O150 C146 1.260 . S
O151 In143 2.271 . S
O151 C148 1.252 . S
O152 In143 2.334 . S
O152 C148 1.260 . S
C153 O144 1.240 . S
C153 O145 1.252 . S
O154 In143 2.289 1_556 S
O154 C147 1.240 . S
O155 In143 2.318 1_556 S
O155 C147 1.252 . S
In156 O157 2.307 . S
In156 O158 2.345 . S
In156 O162 2.253 1_554 S
In156 O163 2.307 1_554 S
In156 O164 2.258 1_554 S
In156 O165 2.315 1_554 S
In156 O167 2.302 . S
In156 O168 2.337 . S
O157 In156 2.307 . S
O157 C166 1.240 . S
O158 In156 2.345 . S
O158 C166 1.252 . S
C159 O162 1.252 . S
C159 O163 1.260 . S
C160 O167 1.240 . S
C160 O168 1.252 . S
C161 O164 1.252 . S
C161 O165 1.260 . S
O162 In156 2.253 1_556 S
O162 C159 1.252 . S
O163 In156 2.307 1_556 S
O163 C159 1.260 . S
O164 In156 2.258 1_556 S
O164 C161 1.252 . S
O165 In156 2.315 1_556 S
O165 C161 1.260 . S
C166 O157 1.240 . S
C166 O158 1.252 . S
O167 In156 2.302 . S
O167 C160 1.240 . S
O168 In156 2.337 . S
O168 C160 1.252 . S
In169 O170 2.307 . S
In169 O171 2.346 . S
In169 O175 2.253 1_554 S
In169 O176 2.306 1_554 S
In169 O177 2.258 1_554 S
In169 O178 2.315 1_554 S
In169 O180 2.302 . S
In169 O181 2.337 . S
O170 In169 2.307 . S
O170 C179 1.240 . S
O171 In169 2.346 . S
O171 C179 1.252 . S
C172 O175 1.252 . S
C172 O176 1.260 . S
C173 O180 1.240 . S
C173 O181 1.252 . S
C174 O177 1.252 . S
C174 O178 1.260 . S
O175 In169 2.253 1_556 S
O175 C172 1.252 . S
O176 In169 2.306 1_556 S
O176 C172 1.260 . S
O177 In169 2.258 1_556 S
O177 C174 1.252 . S
O178 In169 2.315 1_556 S
O178 C174 1.260 . S
C179 O170 1.240 . S
C179 O171 1.252 . S
O180 In169 2.302 . S
O180 C173 1.240 . S
O181 In169 2.337 . S
O181 C173 1.252 . S
In182 O183 2.294 . S
In182 O184 2.326 . S
In182 O188 2.266 . S
In182 O189 2.326 . S
In182 O190 2.266 . S
In182 O191 2.326 . S
In182 O193 2.294 . S
In182 O194 2.326 . S
O183 In182 2.294 . S
O183 C192 1.240 . S
O184 In182 2.326 . S
O184 C192 1.252 . S
C185 O188 1.252 . S
C185 O189 1.260 . S
C186 O193 1.240 . S
C186 O194 1.252 . S
C187 O190 1.252 . S
C187 O191 1.260 . S
O188 In182 2.266 . S
O188 C185 1.252 . S
O189 In182 2.326 . S
O189 C185 1.260 . S
O190 In182 2.266 . S
O190 C187 1.252 . S
O191 In182 2.326 . S
O191 C187 1.260 . S
C192 O183 1.240 . S
C192 O184 1.252 . S
O193 In182 2.294 . S
O193 C186 1.240 . S
O194 In182 2.326 . S
O194 C186 1.252 . S
In195 O196 2.294 . S
In195 O197 2.326 . S
In195 O201 2.266 . S
In195 O202 2.326 . S
In195 O203 2.266 . S
In195 O204 2.326 . S
In195 O206 2.294 . S
In195 O207 2.326 . S
O196 In195 2.294 . S
O196 C205 1.240 . S
O197 In195 2.326 . S
O197 C205 1.252 . S
C198 O201 1.252 . S
C198 O202 1.260 . S
C199 O206 1.240 . S
C199 O207 1.252 . S
C200 O203 1.252 . S
C200 O204 1.260 . S
O201 In195 2.266 . S
O201 C198 1.252 . S
O202 In195 2.326 . S
O202 C198 1.260 . S
O203 In195 2.266 . S
O203 C200 1.252 . S
O204 In195 2.326 . S
O204 C200 1.260 . S
C205 O196 1.240 . S
C205 O197 1.252 . S
O206 In195 2.294 . S
O206 C199 1.240 . S
O207 In195 2.326 . S
O207 C199 1.252 . S
In208 O209 2.296 . S
In208 O210 2.330 . S
In208 O214 2.265 1_545 S
In208 O215 2.322 1_545 S
In208 O216 2.271 . S
In208 O217 2.334 . S
In208 O219 2.289 1_545 S
In208 O220 2.318 1_545 S
O209 In208 2.296 . S
O209 C218 1.240 . S
O210 In208 2.330 . S
O210 C218 1.252 . S
C211 O214 1.252 . S
C211 O215 1.260 . S
C212 O219 1.240 . S
C212 O220 1.252 . S
C213 O216 1.252 . S
C213 O217 1.260 . S
O214 In208 2.265 1_565 S
O214 C211 1.252 . S
O215 In208 2.322 1_565 S
O215 C211 1.260 . S
O216 In208 2.271 . S
O216 C213 1.252 . S
O217 In208 2.334 . S
O217 C213 1.260 . S
C218 O209 1.240 . S
C218 O210 1.252 . S
O219 In208 2.289 1_565 S
O219 C212 1.240 . S
O220 In208 2.318 1_565 S
O220 C212 1.252 . S
In221 O222 2.294 . S
In221 O223 2.326 . S
In221 O227 2.266 . S
In221 O228 2.326 . S
In221 O229 2.266 . S
In221 O230 2.326 . S
In221 O232 2.294 . S
In221 O233 2.326 . S
O222 In221 2.294 . S
O222 C231 1.240 . S
O223 In221 2.326 . S
O223 C231 1.252 . S
C224 O227 1.252 . S
C224 O228 1.260 . S
C225 O232 1.240 . S
C225 O233 1.252 . S
C226 O229 1.252 . S
C226 O230 1.260 . S
O227 In221 2.266 . S
O227 C224 1.252 . S
O228 In221 2.326 . S
O228 C224 1.260 . S
O229 In221 2.266 . S
O229 C226 1.252 . S
O230 In221 2.326 . S
O230 C226 1.260 . S
C231 O222 1.240 . S
C231 O223 1.252 . S
O232 In221 2.294 . S
O232 C225 1.240 . S
O233 In221 2.326 . S
O233 C225 1.252 . S
In234 O235 2.294 . S
In234 O236 2.326 . S
In234 O240 2.266 . S
In234 O241 2.326 . S
In234 O242 2.266 . S
In234 O243 2.326 . S
In234 O245 2.294 . S
In234 O246 2.326 . S
O235 In234 2.294 . S
O235 C244 1.240 . S
O236 In234 2.326 . S
O236 C244 1.252 . S
C237 O240 1.252 . S
C237 O241 1.260 . S
C238 O245 1.240 . S
C238 O246 1.252 . S
C239 O242 1.252 . S
C239 O243 1.260 . S
O240 In234 2.266 . S
O240 C237 1.252 . S
O241 In234 2.326 . S
O241 C237 1.260 . S
O242 In234 2.266 . S
O242 C239 1.252 . S
O243 In234 2.326 . S
O243 C239 1.260 . S
C244 O235 1.240 . S
C244 O236 1.252 . S
O245 In234 2.294 . S
O245 C238 1.240 . S
O246 In234 2.326 . S
O246 C238 1.252 . S
In247 O248 2.289 1_545 S
In247 O249 2.317 1_545 S
In247 O253 2.271 . S
In247 O254 2.336 . S
In247 O255 2.253 1_545 S
In247 O256 2.303 1_545 S
In247 O258 2.308 . S
In247 O259 2.348 . S
O248 In247 2.289 1_565 S
O248 C257 1.240 . S
O249 In247 2.317 1_565 S
O249 C257 1.252 . S
C250 O253 1.252 . S
C250 O254 1.260 . S
C251 O258 1.240 . S
C251 O259 1.252 . S
C252 O255 1.252 . S
C252 O256 1.260 . S
O253 In247 2.271 . S
O253 C250 1.252 . S
O254 In247 2.336 . S
O254 C250 1.260 . S
O255 In247 2.253 1_565 S
O255 C252 1.252 . S
O256 In247 2.303 1_565 S
O256 C252 1.260 . S
C257 O248 1.240 . S
C257 O249 1.252 . S
O258 In247 2.308 . S
O258 C251 1.240 . S
O259 In247 2.348 . S
O259 C251 1.252 . S
In260 O261 2.308 . S
In260 O262 2.348 . S
In260 O266 2.253 1_554 S
In260 O267 2.303 1_554 S
In260 O268 2.271 . S
In260 O269 2.336 . S
In260 O271 2.289 1_554 S
In260 O272 2.317 1_554 S
O261 In260 2.308 . S
O261 C270 1.240 . S
O262 In260 2.348 . S
O262 C270 1.252 . S
C263 O266 1.252 . S
C263 O267 1.260 . S
C264 O271 1.240 . S
C264 O272 1.252 . S
C265 O268 1.252 . S
C265 O269 1.260 . S
O266 In260 2.253 1_556 S
O266 C263 1.252 . S
O267 In260 2.303 1_556 S
O267 C263 1.260 . S
O268 In260 2.271 . S
O268 C265 1.252 . S
O269 In260 2.336 . S
O269 C265 1.260 . S
C270 O261 1.240 . S
C270 O262 1.252 . S
O271 In260 2.289 1_556 S
O271 C264 1.240 . S
O272 In260 2.317 1_556 S
O272 C264 1.252 . S
In273 O274 2.294 . S
In273 O275 2.326 . S
In273 O279 2.266 . S
In273 O280 2.326 . S
In273 O281 2.266 . S
In273 O282 2.326 . S
In273 O284 2.294 . S
In273 O285 2.326 . S
O274 In273 2.294 . S
O274 C283 1.240 . S
O275 In273 2.326 . S
O275 C283 1.252 . S
C276 O279 1.252 . S
C276 O280 1.260 . S
C277 O284 1.240 . S
C277 O285 1.252 . S
C278 O281 1.252 . S
C278 O282 1.260 . S
O279 In273 2.266 . S
O279 C276 1.252 . S
O280 In273 2.326 . S
O280 C276 1.260 . S
O281 In273 2.266 . S
O281 C278 1.252 . S
O282 In273 2.326 . S
O282 C278 1.260 . S
C283 O274 1.240 . S
C283 O275 1.252 . S
O284 In273 2.294 . S
O284 C277 1.240 . S
O285 In273 2.326 . S
O285 C277 1.252 . S
In286 O287 2.294 . S
In286 O288 2.326 . S
In286 O292 2.266 . S
In286 O293 2.326 . S
In286 O294 2.266 . S
In286 O295 2.326 . S
In286 O297 2.294 . S
In286 O298 2.326 . S
O287 In286 2.294 . S
O287 C296 1.240 . S
O288 In286 2.326 . S
O288 C296 1.252 . S
C289 O292 1.252 . S
C289 O293 1.260 . S
C290 O297 1.240 . S
C290 O298 1.252 . S
C291 O294 1.252 . S
C291 O295 1.260 . S
O292 In286 2.266 . S
O292 C289 1.252 . S
O293 In286 2.326 . S
O293 C289 1.260 . S
O294 In286 2.266 . S
O294 C291 1.252 . S
O295 In286 2.326 . S
O295 C291 1.260 . S
C296 O287 1.240 . S
C296 O288 1.252 . S
O297 In286 2.294 . S
O297 C290 1.240 . S
O298 In286 2.326 . S
O298 C290 1.252 . S
In299 O300 2.294 . S
In299 O301 2.326 . S
In299 O305 2.266 . S
In299 O306 2.326 . S
In299 O307 2.266 . S
In299 O308 2.326 . S
In299 O310 2.294 . S
In299 O311 2.326 . S
O300 In299 2.294 . S
O300 C309 1.240 . S
O301 In299 2.326 . S
O301 C309 1.252 . S
C302 O305 1.252 . S
C302 O306 1.260 . S
C303 O310 1.240 . S
C303 O311 1.252 . S
C304 O307 1.252 . S
C304 O308 1.260 . S
O305 In299 2.266 . S
O305 C302 1.252 . S
O306 In299 2.326 . S
O306 C302 1.260 . S
O307 In299 2.266 . S
O307 C304 1.252 . S
O308 In299 2.326 . S
O308 C304 1.260 . S
C309 O300 1.240 . S
C309 O301 1.252 . S
O310 In299 2.294 . S
O310 C303 1.240 . S
O311 In299 2.326 . S
O311 C303 1.252 . S
C312 C313 1.387 . S
C312 H316 0.950 . S
C312 C321 1.390 . S
C313 C312 1.387 . S
C313 C315 1.387 . S
H314 C321 0.950 . S
C315 C313 1.387 . S
C315 C317 1.390 . S
C315 H319 0.950 . S
H316 C312 0.950 . S
C317 C315 1.390 . S
C317 C318 1.387 . S
C317 H320 0.950 . S
C318 C317 1.387 . S
C318 C321 1.387 . S
H319 C315 0.950 . S
H320 C317 0.950 . S
C321 C312 1.390 . S
C321 H314 0.950 . S
C321 C318 1.387 . S
C322 C323 1.387 . S
C322 H326 0.950 . S
C322 C331 1.390 . S
C323 C322 1.387 . S
C323 C325 1.387 . S
H324 C331 0.950 . S
C325 C323 1.387 . S
C325 C327 1.390 . S
C325 H329 0.950 . S
H326 C322 0.950 . S
C327 C325 1.390 . S
C327 C328 1.387 . S
C327 H330 0.950 . S
C328 C327 1.387 . S
C328 C331 1.387 . S
H329 C325 0.950 . S
H330 C327 0.950 . S
C331 C322 1.390 . S
C331 H324 0.950 . S
C331 C328 1.387 . S
C332 C333 1.387 . S
C332 H336 0.950 . S
C332 C341 1.390 . S
C333 C332 1.387 . S
C333 C335 1.387 . S
H334 C341 0.950 . S
C335 C333 1.387 . S
C335 C337 1.390 . S
C335 H339 0.950 . S
H336 C332 0.950 . S
C337 C335 1.390 . S
C337 C338 1.387 . S
C337 H340 0.950 . S
C338 C337 1.387 . S
C338 C341 1.387 . S
H339 C335 0.950 . S
H340 C337 0.950 . S
C341 C332 1.390 . S
C341 H334 0.950 . S
C341 C338 1.387 . S
C342 C343 1.387 . S
C342 H346 0.950 . S
C342 C351 1.390 . S
C343 C342 1.387 . S
C343 C345 1.387 . S
H344 C351 0.950 . S
C345 C343 1.387 . S
C345 C347 1.390 . S
C345 H349 0.950 . S
H346 C342 0.950 . S
C347 C345 1.390 . S
C347 C348 1.387 . S
C347 H350 0.950 . S
C348 C347 1.387 . S
C348 C351 1.387 . S
H349 C345 0.950 . S
H350 C347 0.950 . S
C351 C342 1.390 . S
C351 H344 0.950 . S
C351 C348 1.387 . S
C352 C353 1.387 . S
C352 H356 0.950 . S
C352 C361 1.390 . S
C353 C352 1.387 . S
C353 C355 1.387 . S
H354 C361 0.950 . S
C355 C353 1.387 . S
C355 C357 1.390 . S
C355 H359 0.950 . S
H356 C352 0.950 . S
C357 C355 1.390 . S
C357 C358 1.387 . S
C357 H360 0.950 . S
C358 C357 1.387 . S
C358 C361 1.387 . S
H359 C355 0.950 . S
H360 C357 0.950 . S
C361 C352 1.390 . S
C361 H354 0.950 . S
C361 C358 1.387 . S
C362 C363 1.387 . S
C362 H366 0.950 . S
C362 C371 1.390 . S
C363 C362 1.387 . S
C363 C365 1.387 . S
H364 C371 0.950 . S
C365 C363 1.387 . S
C365 C367 1.390 . S
C365 H369 0.950 . S
H366 C362 0.950 . S
C367 C365 1.390 . S
C367 C368 1.387 . S
C367 H370 0.950 . S
C368 C367 1.387 . S
C368 C371 1.387 . S
H369 C365 0.950 . S
H370 C367 0.950 . S
C371 C362 1.390 . S
C371 H364 0.950 . S
C371 C368 1.387 . S
C372 C373 1.387 . S
C372 H376 0.950 . S
C372 C381 1.390 . S
C373 C372 1.387 . S
C373 C375 1.387 . S
H374 C381 0.950 . S
C375 C373 1.387 . S
C375 C377 1.390 . S
C375 H379 0.950 . S
H376 C372 0.950 . S
C377 C375 1.390 . S
C377 C378 1.387 . S
C377 H380 0.950 . S
C378 C377 1.387 . S
C378 C381 1.387 . S
H379 C375 0.950 . S
H380 C377 0.950 . S
C381 C372 1.390 . S
C381 H374 0.950 . S
C381 C378 1.387 . S
C382 C383 1.387 . S
C382 H386 0.950 . S
C382 C391 1.390 . S
C383 C382 1.387 . S
C383 C385 1.387 . S
H384 C391 0.950 . S
C385 C383 1.387 . S
C385 C387 1.390 . S
C385 H389 0.950 . S
H386 C382 0.950 . S
C387 C385 1.390 . S
C387 C388 1.387 . S
C387 H390 0.950 . S
C388 C387 1.387 . S
C388 C391 1.387 . S
H389 C385 0.950 . S
H390 C387 0.950 . S
C391 C382 1.390 . S
C391 H384 0.950 . S
C391 C388 1.387 . S
C392 C393 1.387 . S
C392 H396 0.950 . S
C392 C401 1.390 . S
C393 C392 1.387 . S
C393 C395 1.387 . S
H394 C401 0.950 . S
C395 C393 1.387 . S
C395 C397 1.390 . S
C395 H399 0.950 . S
H396 C392 0.950 . S
C397 C395 1.390 . S
C397 C398 1.387 . S
C397 H400 0.950 . S
C398 C397 1.387 . S
C398 C401 1.387 . S
H399 C395 0.950 . S
H400 C397 0.950 . S
C401 C392 1.390 . S
C401 H394 0.950 . S
C401 C398 1.387 . S
C402 C403 1.387 . S
C402 H406 0.950 . S
C402 C411 1.390 . S
C403 C402 1.387 . S
C403 C405 1.387 . S
H404 C411 0.950 . S
C405 C403 1.387 . S
C405 C407 1.390 . S
C405 H409 0.950 . S
H406 C402 0.950 . S
C407 C405 1.390 . S
C407 C408 1.387 . S
C407 H410 0.950 . S
C408 C407 1.387 . S
C408 C411 1.387 . S
H409 C405 0.950 . S
H410 C407 0.950 . S
C411 C402 1.390 . S
C411 H404 0.950 . S
C411 C408 1.387 . S
C412 C413 1.387 . S
C412 H416 0.950 . S
C412 C421 1.390 . S
C413 C412 1.387 . S
C413 C415 1.387 . S
H414 C421 0.950 . S
C415 C413 1.387 . S
C415 C417 1.390 . S
C415 H419 0.950 . S
H416 C412 0.950 . S
C417 C415 1.390 . S
C417 C418 1.387 . S
C417 H420 0.950 . S
C418 C417 1.387 . S
C418 C421 1.387 . S
H419 C415 0.950 . S
H420 C417 0.950 . S
C421 C412 1.390 . S
C421 H414 0.950 . S
C421 C418 1.387 . S
C422 C423 1.387 . S
C422 H426 0.950 . S
C422 C431 1.390 . S
C423 C422 1.387 . S
C423 C425 1.387 . S
H424 C431 0.950 . S
C425 C423 1.387 . S
C425 C427 1.390 . S
C425 H429 0.950 . S
H426 C422 0.950 . S
C427 C425 1.390 . S
C427 C428 1.387 . S
C427 H430 0.950 . S
C428 C427 1.387 . S
C428 C431 1.387 . S
H429 C425 0.950 . S
H430 C427 0.950 . S
C431 C422 1.390 . S
C431 H424 0.950 . S
C431 C428 1.387 . S
C432 C433 1.387 . S
C432 H436 0.950 . S
C432 C441 1.390 . S
C433 C432 1.387 . S
C433 C435 1.387 . S
H434 C441 0.950 . S
C435 C433 1.387 . S
C435 C437 1.390 . S
C435 H439 0.950 . S
H436 C432 0.950 . S
C437 C435 1.390 . S
C437 C438 1.387 . S
C437 H440 0.950 . S
C438 C437 1.387 . S
C438 C441 1.387 . S
H439 C435 0.950 . S
H440 C437 0.950 . S
C441 C432 1.390 . S
C441 H434 0.950 . S
C441 C438 1.387 . S
C442 C443 1.387 . S
C442 H446 0.950 . S
C442 C451 1.390 . S
C443 C442 1.387 . S
C443 C445 1.387 . S
H444 C451 0.950 . S
C445 C443 1.387 . S
C445 C447 1.390 . S
C445 H449 0.950 . S
H446 C442 0.950 . S
C447 C445 1.390 . S
C447 C448 1.387 . S
C447 H450 0.950 . S
C448 C447 1.387 . S
C448 C451 1.387 . S
H449 C445 0.950 . S
H450 C447 0.950 . S
C451 C442 1.390 . S
C451 H444 0.950 . S
C451 C448 1.387 . S
C452 C453 1.387 . S
C452 H456 0.950 . S
C452 C461 1.390 . S
C453 C452 1.387 . S
C453 C455 1.387 . S
H454 C461 0.950 . S
C455 C453 1.387 . S
C455 C457 1.390 . S
C455 H459 0.950 . S
H456 C452 0.950 . S
C457 C455 1.390 . S
C457 C458 1.387 . S
C457 H460 0.950 . S
C458 C457 1.387 . S
C458 C461 1.387 . S
H459 C455 0.950 . S
H460 C457 0.950 . S
C461 C452 1.390 . S
C461 H454 0.950 . S
C461 C458 1.387 . S
C462 C463 1.387 . S
C462 H466 0.950 . S
C462 C471 1.390 . S
C463 C462 1.387 . S
C463 C465 1.387 . S
H464 C471 0.950 . S
C465 C463 1.387 . S
C465 C467 1.390 . S
C465 H469 0.950 . S
H466 C462 0.950 . S
C467 C465 1.390 . S
C467 C468 1.387 . S
C467 H470 0.950 . S
C468 C467 1.387 . S
C468 C471 1.387 . S
H469 C465 0.950 . S
H470 C467 0.950 . S
C471 C462 1.390 . S
C471 H464 0.950 . S
C471 C468 1.387 . S
C472 C473 1.387 . S
C472 H476 0.950 . S
C472 C481 1.390 . S
C473 C472 1.387 . S
C473 C475 1.387 . S
H474 C481 0.950 . S
C475 C473 1.387 . S
C475 C477 1.390 . S
C475 H479 0.950 . S
H476 C472 0.950 . S
C477 C475 1.390 . S
C477 C478 1.387 . S
C477 H480 0.950 . S
C478 C477 1.387 . S
C478 C481 1.387 . S
H479 C475 0.950 . S
H480 C477 0.950 . S
C481 C472 1.390 . S
C481 H474 0.950 . S
C481 C478 1.387 . S
C482 C483 1.387 . S
C482 H486 0.950 . S
C482 C491 1.390 . S
C483 C482 1.387 . S
C483 C485 1.387 . S
H484 C491 0.950 . S
C485 C483 1.387 . S
C485 C487 1.390 . S
C485 H489 0.950 . S
H486 C482 0.950 . S
C487 C485 1.390 . S
C487 C488 1.387 . S
C487 H490 0.950 . S
C488 C487 1.387 . S
C488 C491 1.387 . S
H489 C485 0.950 . S
H490 C487 0.950 . S
C491 C482 1.390 . S
C491 H484 0.950 . S
C491 C488 1.387 . S
C492 C493 1.387 . S
C492 H496 0.950 1_556 S
C492 C501 1.390 . S
C493 C492 1.387 . S
C493 C495 1.387 . S
H494 C501 0.950 . S
C495 C493 1.387 . S
C495 C497 1.390 . S
C495 H499 0.950 . S
H496 C492 0.950 1_554 S
C497 C495 1.390 . S
C497 C498 1.387 . S
C497 H500 0.950 . S
C498 C497 1.387 . S
C498 C501 1.387 . S
H499 C495 0.950 . S
H500 C497 0.950 . S
C501 C492 1.390 . S
C501 H494 0.950 . S
C501 C498 1.387 . S
C502 C503 1.387 . S
C502 H506 0.950 . S
C502 C511 1.390 . S
C503 C502 1.387 . S
C503 C505 1.387 . S
H504 C511 0.950 . S
C505 C503 1.387 . S
C505 C507 1.390 . S
C505 H509 0.950 . S
H506 C502 0.950 . S
C507 C505 1.390 . S
C507 C508 1.387 . S
C507 H510 0.950 . S
C508 C507 1.387 . S
C508 C511 1.387 . S
H509 C505 0.950 . S
H510 C507 0.950 . S
C511 C502 1.390 . S
C511 H504 0.950 . S
C511 C508 1.387 . S
C512 C513 1.387 . S
C512 H516 0.950 . S
C512 C521 1.390 . S
C513 C512 1.387 . S
C513 C515 1.387 . S
H514 C521 0.950 . S
C515 C513 1.387 . S
C515 C517 1.390 . S
C515 H519 0.950 . S
H516 C512 0.950 . S
C517 C515 1.390 . S
C517 C518 1.387 . S
C517 H520 0.950 . S
C518 C517 1.387 . S
C518 C521 1.387 . S
H519 C515 0.950 . S
H520 C517 0.950 . S
C521 C512 1.390 . S
C521 H514 0.950 . S
C521 C518 1.387 . S
C522 C523 1.387 . S
C522 H526 0.950 . S
C522 C531 1.390 . S
C523 C522 1.387 . S
C523 C525 1.387 . S
H524 C531 0.950 . S
C525 C523 1.387 . S
C525 C527 1.390 . S
C525 H529 0.950 . S
H526 C522 0.950 . S
C527 C525 1.390 . S
C527 C528 1.387 . S
C527 H530 0.950 . S
C528 C527 1.387 . S
C528 C531 1.387 . S
H529 C525 0.950 . S
H530 C527 0.950 . S
C531 C522 1.390 . S
C531 H524 0.950 . S
C531 C528 1.387 . S
C532 C533 1.387 . S
C532 H536 0.950 . S
C532 C541 1.390 . S
C533 C532 1.387 . S
C533 C535 1.387 . S
H534 C541 0.950 . S
C535 C533 1.387 . S
C535 C537 1.390 . S
C535 H539 0.950 . S
H536 C532 0.950 . S
C537 C535 1.390 . S
C537 C538 1.387 . S
C537 H540 0.950 . S
C538 C537 1.387 . S
C538 C541 1.387 . S
H539 C535 0.950 . S
H540 C537 0.950 . S
C541 C532 1.390 . S
C541 H534 0.950 . S
C541 C538 1.387 . S
C542 C543 1.387 . S
C542 H546 0.950 . S
C542 C551 1.390 . S
C543 C542 1.387 . S
C543 C545 1.387 . S
H544 C551 0.950 . S
C545 C543 1.387 . S
C545 C547 1.390 . S
C545 H549 0.950 . S
H546 C542 0.950 . S
C547 C545 1.390 . S
C547 C548 1.387 . S
C547 H550 0.950 . S
C548 C547 1.387 . S
C548 C551 1.387 . S
H549 C545 0.950 . S
H550 C547 0.950 . S
C551 C542 1.390 . S
C551 H544 0.950 . S
C551 C548 1.387 . S
C552 C553 1.387 . S
C552 H556 0.950 . S
C552 C561 1.390 . S
C553 C552 1.387 . S
C553 C555 1.387 . S
H554 C561 0.950 . S
C555 C553 1.387 . S
C555 C557 1.390 . S
C555 H559 0.950 . S
H556 C552 0.950 . S
C557 C555 1.390 . S
C557 C558 1.387 . S
C557 H560 0.950 . S
C558 C557 1.387 . S
C558 C561 1.387 . S
H559 C555 0.950 . S
H560 C557 0.950 . S
C561 C552 1.390 . S
C561 H554 0.950 . S
C561 C558 1.387 . S
C562 C563 1.387 . S
C562 H566 0.950 . S
C562 C571 1.390 . S
C563 C562 1.387 . S
C563 C565 1.387 . S
H564 C571 0.950 . S
C565 C563 1.387 . S
C565 C567 1.390 . S
C565 H569 0.950 . S
H566 C562 0.950 . S
C567 C565 1.390 . S
C567 C568 1.387 . S
C567 H570 0.950 . S
C568 C567 1.387 . S
C568 C571 1.387 . S
H569 C565 0.950 . S
H570 C567 0.950 . S
C571 C562 1.390 . S
C571 H564 0.950 . S
C571 C568 1.387 . S
C572 C573 1.387 . S
C572 H576 0.950 . S
C572 C581 1.390 . S
C573 C572 1.387 . S
C573 C575 1.387 . S
H574 C581 0.950 . S
C575 C573 1.387 . S
C575 C577 1.390 . S
C575 H579 0.950 1_545 S
H576 C572 0.950 . S
C577 C575 1.390 . S
C577 C578 1.387 . S
C577 H580 0.950 . S
C578 C577 1.387 . S
C578 C581 1.387 . S
H579 C575 0.950 1_565 S
H580 C577 0.950 . S
C581 C572 1.390 . S
C581 H574 0.950 . S
C581 C578 1.387 . S
C582 C583 1.387 . S
C582 H586 0.950 . S
C582 C591 1.390 . S
C583 C582 1.387 . S
C583 C585 1.387 . S
H584 C591 0.950 1_554 S
C585 C583 1.387 . S
C585 C587 1.390 . S
C585 H589 0.950 . S
H586 C582 0.950 . S
C587 C585 1.390 . S
C587 C588 1.387 . S
C587 H590 0.950 . S
C588 C587 1.387 . S
C588 C591 1.387 . S
H589 C585 0.950 . S
H590 C587 0.950 . S
C591 C582 1.390 . S
C591 H584 0.950 1_556 S
C591 C588 1.387 . S
C592 C593 1.387 . S
C592 H596 0.950 . S
C592 C601 1.390 . S
C593 C592 1.387 . S
C593 C595 1.387 . S
H594 C601 0.950 . S
C595 C593 1.387 . S
C595 C597 1.390 . S
C595 H599 0.950 . S
H596 C592 0.950 . S
C597 C595 1.390 . S
C597 C598 1.387 . S
C597 H600 0.950 . S
C598 C597 1.387 . S
C598 C601 1.387 . S
H599 C595 0.950 . S
H600 C597 0.950 . S
C601 C592 1.390 . S
C601 H594 0.950 . S
C601 C598 1.387 . S
C602 C603 1.387 . S
C602 H606 0.950 . S
C602 C611 1.390 . S
C603 C602 1.387 . S
C603 C605 1.387 . S
H604 C611 0.950 . S
C605 C603 1.387 . S
C605 C607 1.390 . S
C605 H609 0.950 . S
H606 C602 0.950 . S
C607 C605 1.390 . S
C607 C608 1.387 . S
C607 H610 0.950 . S
C608 C607 1.387 . S
C608 C611 1.387 . S
H609 C605 0.950 . S
H610 C607 0.950 . S
C611 C602 1.390 . S
C611 H604 0.950 . S
C611 C608 1.387 . S
C612 C613 1.387 . S
C612 H616 0.950 . S
C612 C621 1.390 . S
C613 C612 1.387 . S
C613 C615 1.387 . S
H614 C621 0.950 . S
C615 C613 1.387 . S
C615 C617 1.390 . S
C615 H619 0.950 . S
H616 C612 0.950 . S
C617 C615 1.390 . S
C617 C618 1.387 . S
C617 H620 0.950 . S
C618 C617 1.387 . S
C618 C621 1.387 . S
H619 C615 0.950 . S
H620 C617 0.950 . S
C621 C612 1.390 . S
C621 H614 0.950 . S
C621 C618 1.387 . S
C622 C623 1.387 . S
C622 H626 0.950 . S
C622 C631 1.390 . S
C623 C622 1.387 . S
C623 C625 1.387 . S
H624 C631 0.950 . S
C625 C623 1.387 . S
C625 C627 1.390 . S
C625 H629 0.950 . S
H626 C622 0.950 . S
C627 C625 1.390 . S
C627 C628 1.387 . S
C627 H630 0.950 . S
C628 C627 1.387 . S
C628 C631 1.387 . S
H629 C625 0.950 . S
H630 C627 0.950 . S
C631 C622 1.390 . S
C631 H624 0.950 . S
C631 C628 1.387 . S
C632 C633 1.387 . S
C632 H636 0.950 . S
C632 C641 1.390 . S
C633 C632 1.387 . S
C633 C635 1.387 . S
H634 C641 0.950 . S
C635 C633 1.387 . S
C635 C637 1.390 . S
C635 H639 0.950 . S
H636 C632 0.950 . S
C637 C635 1.390 . S
C637 C638 1.387 . S
C637 H640 0.950 . S
C638 C637 1.387 . S
C638 C641 1.387 . S
H639 C635 0.950 . S
H640 C637 0.950 . S
C641 C632 1.390 . S
C641 H634 0.950 . S
C641 C638 1.387 . S
C642 C643 1.387 . S
C642 H646 0.950 . S
C642 C651 1.390 . S
C643 C642 1.387 . S
C643 C645 1.387 . S
H644 C651 0.950 . S
C645 C643 1.387 . S
C645 C647 1.390 . S
C645 H649 0.950 . S
H646 C642 0.950 . S
C647 C645 1.390 . S
C647 C648 1.387 . S
C647 H650 0.950 . S
C648 C647 1.387 . S
C648 C651 1.387 . S
H649 C645 0.950 . S
H650 C647 0.950 . S
C651 C642 1.390 . S
C651 H644 0.950 . S
C651 C648 1.387 . S
C652 C653 1.387 . S
C652 H656 0.950 . S
C652 C661 1.390 . S
C653 C652 1.387 . S
C653 C655 1.387 . S
H654 C661 0.950 . S
C655 C653 1.387 . S
C655 C657 1.390 . S
C655 H659 0.950 . S
H656 C652 0.950 . S
C657 C655 1.390 . S
C657 C658 1.387 . S
C657 H660 0.950 . S
C658 C657 1.387 . S
C658 C661 1.387 . S
H659 C655 0.950 . S
H660 C657 0.950 . S
C661 C652 1.390 . S
C661 H654 0.950 . S
C661 C658 1.387 . S
C662 C663 1.387 . S
C662 H666 0.950 . S
C662 C671 1.390 . S
C663 C662 1.387 . S
C663 C665 1.387 . S
H664 C671 0.950 . S
C665 C663 1.387 . S
C665 C667 1.390 . S
C665 H669 0.950 . S
H666 C662 0.950 . S
C667 C665 1.390 . S
C667 C668 1.387 . S
C667 H670 0.950 . S
C668 C667 1.387 . S
C668 C671 1.387 . S
H669 C665 0.950 . S
H670 C667 0.950 . S
C671 C662 1.390 . S
C671 H664 0.950 . S
C671 C668 1.387 . S
C672 C673 1.387 . S
C672 H676 0.950 . S
C672 C681 1.390 . S
C673 C672 1.387 . S
C673 C675 1.387 . S
H674 C681 0.950 . S
C675 C673 1.387 . S
C675 C677 1.390 . S
C675 H679 0.950 . S
H676 C672 0.950 . S
C677 C675 1.390 . S
C677 C678 1.387 . S
C677 H680 0.950 . S
C678 C677 1.387 . S
C678 C681 1.387 . S
H679 C675 0.950 . S
H680 C677 0.950 . S
C681 C672 1.390 . S
C681 H674 0.950 . S
C681 C678 1.387 . S
C682 C683 1.387 . S
C682 H686 0.950 . S
C682 C691 1.390 . S
C683 C682 1.387 . S
C683 C685 1.387 . S
H684 C691 0.950 . S
C685 C683 1.387 . S
C685 C687 1.390 . S
C685 H689 0.950 . S
H686 C682 0.950 . S
C687 C685 1.390 . S
C687 C688 1.387 . S
C687 H690 0.950 . S
C688 C687 1.387 . S
C688 C691 1.387 . S
H689 C685 0.950 . S
H690 C687 0.950 . S
C691 C682 1.390 . S
C691 H684 0.950 . S
C691 C688 1.387 . S
C692 C693 1.387 . S
C692 H696 0.950 . S
C692 C701 1.390 . S
C693 C692 1.387 . S
C693 C695 1.387 . S
H694 C701 0.950 . S
C695 C693 1.387 . S
C695 C697 1.390 . S
C695 H699 0.950 . S
H696 C692 0.950 . S
C697 C695 1.390 . S
C697 C698 1.387 . S
C697 H700 0.950 . S
C698 C697 1.387 . S
C698 C701 1.387 . S
H699 C695 0.950 . S
H700 C697 0.950 . S
C701 C692 1.390 . S
C701 H694 0.950 . S
C701 C698 1.387 . S
C702 C703 1.387 . S
C702 H706 0.950 . S
C702 C711 1.390 . S
C703 C702 1.387 . S
C703 C705 1.387 . S
H704 C711 0.950 . S
C705 C703 1.387 . S
C705 C707 1.390 . S
C705 H709 0.950 . S
H706 C702 0.950 . S
C707 C705 1.390 . S
C707 C708 1.387 . S
C707 H710 0.950 . S
C708 C707 1.387 . S
C708 C711 1.387 . S
H709 C705 0.950 . S
H710 C707 0.950 . S
C711 C702 1.390 . S
C711 H704 0.950 . S
C711 C708 1.387 . S
C712 C713 1.387 . S
C712 H716 0.950 . S
C712 C721 1.390 . S
C713 C712 1.387 . S
C713 C715 1.387 . S
H714 C721 0.950 . S
C715 C713 1.387 . S
C715 C717 1.390 . S
C715 H719 0.950 1_455 S
H716 C712 0.950 . S
C717 C715 1.390 . S
C717 C718 1.387 . S
C717 H720 0.950 . S
C718 C717 1.387 . S
C718 C721 1.387 . S
H719 C715 0.950 1_655 S
H720 C717 0.950 . S
C721 C712 1.390 . S
C721 H714 0.950 . S
C721 C718 1.387 . S
C722 C723 1.387 . S
C722 H726 0.950 . S
C722 C731 1.390 . S
C723 C722 1.387 . S
C723 C725 1.387 . S
H724 C731 0.950 . S
C725 C723 1.387 . S
C725 C727 1.390 . S
C725 H729 0.950 . S
H726 C722 0.950 . S
C727 C725 1.390 . S
C727 C728 1.387 . S
C727 H730 0.950 . S
C728 C727 1.387 . S
C728 C731 1.387 . S
H729 C725 0.950 . S
H730 C727 0.950 . S
C731 C722 1.390 . S
C731 H724 0.950 . S
C731 C728 1.387 . S
C732 C733 1.387 . S
C732 H736 0.950 . S
C732 C741 1.390 . S
C733 C732 1.387 . S
C733 C735 1.387 . S
H734 C741 0.950 . S
C735 C733 1.387 . S
C735 C737 1.390 . S
C735 H739 0.950 . S
H736 C732 0.950 . S
C737 C735 1.390 . S
C737 C738 1.387 . S
C737 H740 0.950 . S
C738 C737 1.387 . S
C738 C741 1.387 . S
H739 C735 0.950 . S
H740 C737 0.950 . S
C741 C732 1.390 . S
C741 H734 0.950 . S
C741 C738 1.387 . S
C742 C743 1.387 . S
C742 H746 0.950 . S
C742 C751 1.390 . S
C743 C742 1.387 . S
C743 C745 1.387 . S
H744 C751 0.950 . S
C745 C743 1.387 . S
C745 C747 1.390 . S
C745 H749 0.950 . S
H746 C742 0.950 . S
C747 C745 1.390 . S
C747 C748 1.387 . S
C747 H750 0.950 . S
C748 C747 1.387 . S
C748 C751 1.387 . S
H749 C745 0.950 . S
H750 C747 0.950 . S
C751 C742 1.390 . S
C751 H744 0.950 . S
C751 C748 1.387 . S
C752 C753 1.387 . S
C752 H756 0.950 . S
C752 C761 1.390 . S
C753 C752 1.387 . S
C753 C755 1.387 . S
H754 C761 0.950 . S
C755 C753 1.387 . S
C755 C757 1.390 . S
C755 H759 0.950 . S
H756 C752 0.950 . S
C757 C755 1.390 . S
C757 C758 1.387 . S
C757 H760 0.950 . S
C758 C757 1.387 . S
C758 C761 1.387 . S
H759 C755 0.950 . S
H760 C757 0.950 . S
C761 C752 1.390 . S
C761 H754 0.950 . S
C761 C758 1.387 . S
C762 C763 1.387 . S
C762 H766 0.950 . S
C762 C771 1.390 . S
C763 C762 1.387 . S
C763 C765 1.387 . S
H764 C771 0.950 . S
C765 C763 1.387 . S
C765 C767 1.390 . S
C765 H769 0.950 . S
H766 C762 0.950 . S
C767 C765 1.390 . S
C767 C768 1.387 . S
C767 H770 0.950 . S
C768 C767 1.387 . S
C768 C771 1.387 . S
H769 C765 0.950 . S
H770 C767 0.950 . S
C771 C762 1.390 . S
C771 H764 0.950 . S
C771 C768 1.387 . S
C772 C773 1.387 . S
C772 H776 0.950 . S
C772 C781 1.390 . S
C773 C772 1.387 . S
C773 C775 1.387 . S
H774 C781 0.950 . S
C775 C773 1.387 . S
C775 C777 1.390 . S
C775 H779 0.950 . S
H776 C772 0.950 . S
C777 C775 1.390 . S
C777 C778 1.387 . S
C777 H780 0.950 . S
C778 C777 1.387 . S
C778 C781 1.387 . S
H779 C775 0.950 . S
H780 C777 0.950 . S
C781 C772 1.390 . S
C781 H774 0.950 . S
C781 C778 1.387 . S
C782 C783 1.387 . S
C782 H786 0.950 . S
C782 C791 1.390 . S
C783 C782 1.387 . S
C783 C785 1.387 . S
H784 C791 0.950 . S
C785 C783 1.387 . S
C785 C787 1.390 . S
C785 H789 0.950 . S
H786 C782 0.950 . S
C787 C785 1.390 . S
C787 C788 1.387 . S
C787 H790 0.950 . S
C788 C787 1.387 . S
C788 C791 1.387 . S
H789 C785 0.950 . S
H790 C787 0.950 . S
C791 C782 1.390 . S
C791 H784 0.950 . S
C791 C788 1.387 . S
C313 C187 1.787 . S
C318 C4 1.786 . S
C323 C16 1.786 . S
C328 C199 1.786 . S
C333 C239 1.791 . S
C338 C31 1.791 . S
C343 C49 1.773 . S
C348 C173 1.774 . S
C353 C186 1.774 . S
C358 C62 1.774 . S
C363 C68 1.791 . S
C368 C200 1.791 . S
C373 C81 1.787 . S
C378 C238 1.786 . S
C383 C101 1.786 . S
C388 C174 1.787 . S
C393 C120 1.787 . S
C398 C114 1.786 . S
C403 C134 1.774 . S
C408 C127 1.774 . S
C413 C135 1.786 . S
C418 C147 1.786 . S
C423 C148 1.791 . S
C428 C107 1.791 . S
C433 C160 1.786 . S
C438 C42 1.786 . S
C443 C55 1.786 . S
C448 C212 1.786 . S
C453 C225 1.773 . S
C458 C23 1.773 . S
C463 C17 1.289 . S
C468 C283 1.289 . S
C473 C121 1.289 . S
C478 C10 1.289 . S
C483 C302 1.292 . S
C488 C44 1.292 . S
C493 C146 1.301 . S
C498 C29 1.301 . S
C503 C276 1.301 . S
C508 C96 1.301 . S
C513 C122 1.292 . S
C518 C83 1.292 . S
C523 C69 1.289 . S
C528 C309 1.289 . S
C533 C56 1.289 . S
C538 C153 1.289 . S
C543 C205 1.289 . S
C548 C257 1.289 . S
C553 C211 1.301 . S
C558 C198 1.301 . S
C563 C179 1.289 . S
C568 C218 1.289 . S
C573 C250 1.292 . S
C578 C172 1.292 . S
C583 C36 1.289 . S
C588 C264 1.289 . S
C593 C140 1.289 . S
C598 C95 1.289 . S
C603 C3 1.301 . S
C608 C289 1.301 . S
C613 C252 1.787 . S
C618 C30 1.786 . S
C623 C5 1.791 . S
C628 C213 1.791 . S
C633 C251 1.773 . S
C638 C88 1.773 . S
C643 C161 1.791 . S
C648 C94 1.791 . S
C653 C75 1.786 . S
C658 C226 1.787 . S
C663 C277 1.786 . S
C668 C263 1.786 . S
C673 C303 1.773 . S
C678 C270 1.773 . S
C683 C290 1.786 . S
C688 C304 1.787 . S
C693 C278 1.791 . S
C698 C291 1.791 . S
C703 C108 1.289 . S
C708 C43 1.289 . S
C713 C18 1.292 . S
C718 C133 1.292 . S
C723 C70 1.301 . S
C728 C109 1.301 . S
C733 C265 1.292 . S
C738 C57 1.292 . S
C743 C82 1.289 . S
C748 C296 1.289 . S
C753 C166 1.289 . S
C758 C192 1.289 . S
C763 C237 1.301 . S
C768 C159 1.301 . S
C773 C231 1.289 . S
C778 C244 1.289 . S
C783 C185 1.292 . S
C788 C224 1.292 . S
