# Generated by pormake.
# Topology wjd, (6)-cn, num edge types: 1
# Building blocks:
#     Node 0, Type 0, BuildingBlock: KUMBUR_clean_sbu_1, # of connection points: 6
#     Node 1, Type 0, BuildingBlock: KUMBUR_clean_sbu_1, # of connection points: 6
#     Node 2, Type 0, BuildingBlock: KUMBUR_clean_sbu_1, # of connection points: 6
#     Node 3, Type 0, BuildingBlock: KUMBUR_clean_sbu_1, # of connection points: 6
#     Node 4, Type 0, BuildingBlock: KUMBUR_clean_sbu_1, # of connection points: 6
#     Node 5, Type 0, BuildingBlock: KUMBUR_clean_sbu_1, # of connection points: 6
#     Node 6, Type 0, BuildingBlock: KUMBUR_clean_sbu_1, # of connection points: 6
#     Node 7, Type 0, BuildingBlock: KUMBUR_clean_sbu_1, # of connection points: 6
#     Node 8, Type 0, BuildingBlock: KUMBUR_clean_sbu_1, # of connection points: 6
#     Node 9, Type 0, BuildingBlock: KUMBUR_clean_sbu_1, # of connection points: 6
#     Node 10, Type 0, BuildingBlock: KUMBUR_clean_sbu_1, # of connection points: 6
#     Node 11, Type 0, BuildingBlock: KUMBUR_clean_sbu_1, # of connection points: 6
#     Edge 12, Type (0, 0), BuildingBlock: XUDNAN_clean_linker_2, # of connection points: 2
#     Edge 13, Type (0, 0), BuildingBlock: XUDNAN_clean_linker_2, # of connection points: 2
#     Edge 14, Type (0, 0), BuildingBlock: XUDNAN_clean_linker_2, # of connection points: 2
#     Edge 15, Type (0, 0), BuildingBlock: XUDNAN_clean_linker_2, # of connection points: 2
#     Edge 16, Type (0, 0), BuildingBlock: XUDNAN_clean_linker_2, # of connection points: 2
#     Edge 17, Type (0, 0), BuildingBlock: XUDNAN_clean_linker_2, # of connection points: 2
#     Edge 18, Type (0, 0), BuildingBlock: XUDNAN_clean_linker_2, # of connection points: 2
#     Edge 19, Type (0, 0), BuildingBlock: XUDNAN_clean_linker_2, # of connection points: 2
#     Edge 20, Type (0, 0), BuildingBlock: XUDNAN_clean_linker_2, # of connection points: 2
#     Edge 21, Type (0, 0), BuildingBlock: XUDNAN_clean_linker_2, # of connection points: 2
#     Edge 22, Type (0, 0), BuildingBlock: XUDNAN_clean_linker_2, # of connection points: 2
#     Edge 23, Type (0, 0), BuildingBlock: XUDNAN_clean_linker_2, # of connection points: 2
#     Edge 24, Type (0, 0), BuildingBlock: XUDNAN_clean_linker_2, # of connection points: 2
#     Edge 25, Type (0, 0), BuildingBlock: XUDNAN_clean_linker_2, # of connection points: 2
#     Edge 26, Type (0, 0), BuildingBlock: XUDNAN_clean_linker_2, # of connection points: 2
#     Edge 27, Type (0, 0), BuildingBlock: XUDNAN_clean_linker_2, # of connection points: 2
#     Edge 28, Type (0, 0), BuildingBlock: XUDNAN_clean_linker_2, # of connection points: 2
#     Edge 29, Type (0, 0), BuildingBlock: XUDNAN_clean_linker_2, # of connection points: 2
#     Edge 30, Type (0, 0), BuildingBlock: XUDNAN_clean_linker_2, # of connection points: 2
#     Edge 31, Type (0, 0), BuildingBlock: XUDNAN_clean_linker_2, # of connection points: 2
#     Edge 32, Type (0, 0), BuildingBlock: XUDNAN_clean_linker_2, # of connection points: 2
#     Edge 33, Type (0, 0), BuildingBlock: XUDNAN_clean_linker_2, # of connection points: 2
#     Edge 34, Type (0, 0), BuildingBlock: XUDNAN_clean_linker_2, # of connection points: 2
#     Edge 35, Type (0, 0), BuildingBlock: XUDNAN_clean_linker_2, # of connection points: 2
#     Edge 36, Type (0, 0), BuildingBlock: XUDNAN_clean_linker_2, # of connection points: 2
#     Edge 37, Type (0, 0), BuildingBlock: XUDNAN_clean_linker_2, # of connection points: 2
#     Edge 38, Type (0, 0), BuildingBlock: XUDNAN_clean_linker_2, # of connection points: 2
#     Edge 39, Type (0, 0), BuildingBlock: XUDNAN_clean_linker_2, # of connection points: 2
#     Edge 40, Type (0, 0), BuildingBlock: XUDNAN_clean_linker_2, # of connection points: 2
#     Edge 41, Type (0, 0), BuildingBlock: XUDNAN_clean_linker_2, # of connection points: 2
#     Edge 42, Type (0, 0), BuildingBlock: XUDNAN_clean_linker_2, # of connection points: 2
#     Edge 43, Type (0, 0), BuildingBlock: XUDNAN_clean_linker_2, # of connection points: 2
#     Edge 44, Type (0, 0), BuildingBlock: XUDNAN_clean_linker_2, # of connection points: 2
#     Edge 45, Type (0, 0), BuildingBlock: XUDNAN_clean_linker_2, # of connection points: 2
#     Edge 46, Type (0, 0), BuildingBlock: XUDNAN_clean_linker_2, # of connection points: 2
#     Edge 47, Type (0, 0), BuildingBlock: XUDNAN_clean_linker_2, # of connection points: 2
# Relax obj value: 0.072
# Max RMSD: 0.186
# Mean RMSD: 0.186
data_MOF--net-wjd--node1-KUMBUR_clean_sbu_1--edge1-XUDNAN_clean_linker_2
_symmetry_space_group_name_H-M    P1
_symmetry_Int_Tables_number       1
_symmetry_cell_setting            triclinic
loop_
_symmetry_equiv_pos_as_xyz
'x, y, z'
_cell_length_a     38.867955
_cell_length_b     38.84037
_cell_length_c     53.929794
_cell_angle_alpha  89.950821
_cell_angle_beta   89.965983
_cell_angle_gamma 119.90103
loop_
_atom_site_label
_atom_site_type_symbol
_atom_site_fract_x
_atom_site_fract_y
_atom_site_fract_z
_atom_type_partial_charge
Tb0 Tb 0.32498 0.07559 0.13582 0.0
C1 C 0.33783 0.22124 0.08565 0.0
N2 N 0.35307 0.19911 0.07643 0.0
C3 C 0.32574 0.19826 0.03644 0.0
C4 C 0.31524 0.23225 0.07062 0.0
C5 C 0.34789 0.18797 0.05209 0.0
C6 C 0.3092 0.22036 0.04576 0.0
C7 C 0.32926 0.25529 0.12062 0.0
C8 C 0.34404 0.23175 0.11048 0.0
C9 C 0.30636 0.26606 0.10582 0.0
C10 C 0.2992 0.25439 0.08091 0.0
Tb11 Tb 0.38819 0.18345 0.10351 0.0
N12 N 0.36554 0.21992 0.12443 0.0
C13 C 0.33886 0.26826 0.14512 0.0
C14 C 0.37775 0.23558 0.14762 0.0
C15 C 0.36368 0.25883 0.15854 0.0
H16 H 0.3609 0.17122 0.04469 0.0
H17 H 0.37296 0.27043 0.17707 0.0
H18 H 0.31888 0.08559 0.19657 0.0
H19 H 0.37745 0.99328 0.08194 0.0
H20 H 0.39981 0.23216 0.15758 0.0
H21 H 0.3286 0.28686 0.15352 0.0
H22 H 0.3433 0.03128 0.08828 0.0
H23 H 0.32146 0.18917 0.0172 0.0
H24 H 0.29443 0.28378 0.11338 0.0
H25 H 0.28152 0.26293 0.06972 0.0
H26 H 0.34547 0.07144 0.23459 0.0
H27 H 0.29194 0.22815 0.0336 0.0
H28 H 0.40589 0.97619 0.11773 0.0
N29 N 0.34332 0.0601 0.17246 0.0
C30 C 0.36243 0.03893 0.17058 0.0
C31 C 0.35041 0.0622 0.21668 0.0
C32 C 0.37698 0.02914 0.19178 0.0
C33 C 0.33607 0.07078 0.19513 0.0
C34 C 0.3712 0.04155 0.215 0.0
N35 N 0.35399 0.03815 0.12717 0.0
C36 C 0.35624 0.02513 0.10403 0.0
C37 C 0.38695 1.00492 0.14449 0.0
C38 C 0.36742 0.02703 0.14724 0.0
C39 C 0.39106 0.9932 0.12065 0.0
C40 C 0.37521 1.00296 0.10039 0.0
H41 H 0.38232 0.03501 0.23171 0.0
H42 H 0.40829 0.99971 0.20521 0.0
H43 H 0.41693 0.97842 0.16381 0.0
O44 O 0.27086 0.03456 0.1188 0.0
O45 O 0.39066 0.10249 0.13384 0.0
O46 O 0.41286 0.1443 0.09974 0.0
O47 O 0.28019 0.03066 0.15761 0.0
O48 O 0.32022 0.07826 0.0955 0.0
O49 O 0.37456 0.13373 0.07736 0.0
O50 O 0.44159 0.23562 0.11319 0.0
O51 O 0.3233 0.14851 0.1003 0.0
O52 O 0.30348 0.11819 0.13803 0.0
O53 O 0.42697 0.21948 0.07525 0.0
O54 O 0.40012 0.17465 0.14283 0.0
O55 O 0.33845 0.1284 0.15717 0.0
C56 C 0.41796 0.12375 0.11712 0.0
C57 C 0.21523 1.01313 0.14541 0.0
C58 C 0.14249 0.97441 0.14422 0.0
C59 C 0.14108 1.00385 0.15859 0.0
C60 C 0.21286 0.04232 0.15947 0.0
C61 C 0.17601 0.03766 0.16594 0.0
C62 C 0.17987 0.9794 0.13749 0.0
C63 C 0.34274 0.09751 0.0763 0.0
C64 C 0.25445 0.01738 0.13971 0.0
C65 C 0.3968 1.00742 0.18913 0.0
C66 C 0.40171 0.99528 0.16555 0.0
C67 C 0.29742 0.13444 0.11838 0.0
C68 C 0.46229 0.289 0.08432 0.0
C69 C 0.50923 0.36143 0.088 0.0
C70 C 0.48678 0.36758 0.06977 0.0
C71 C 0.4406 0.29695 0.06671 0.0
C72 C 0.49613 0.32141 0.09526 0.0
C73 C 0.45272 0.33584 0.05963 0.0
C74 C 0.37509 0.15642 0.16132 0.0
C75 C 0.45095 0.24708 0.09036 0.0
H76 H 0.11284 1.001 0.16378 0.0
H77 H 0.23951 0.06854 0.1657 0.0
H78 H 0.17452 0.06031 0.17681 0.0
H79 H 0.18143 0.95682 0.12655 0.0
H80 H 0.49568 0.39683 0.06262 0.0
H81 H 0.41457 0.27311 0.05797 0.0
H82 H 0.512 0.31496 0.10927 0.0
H83 H 0.43601 0.3414 0.04571 0.0
Tb84 Tb 0.83319 0.64852 0.40201 0.0
C85 C 0.71027 0.66517 0.33522 0.0
N86 N 0.7501 0.68936 0.33659 0.0
C87 C 0.75439 0.68957 0.29223 0.0
C88 C 0.69102 0.65049 0.31235 0.0
C89 C 0.77186 0.70414 0.31539 0.0
C90 C 0.71397 0.66169 0.29076 0.0
C91 C 0.64672 0.63725 0.35591 0.0
C92 C 0.68853 0.65839 0.3566 0.0
C93 C 0.62728 0.62036 0.33347 0.0
C94 C 0.64946 0.62679 0.3117 0.0
Tb95 Tb 0.77643 0.70589 0.37567 0.0
N96 N 0.70851 0.67509 0.37781 0.0
C97 C 0.62586 0.63485 0.37761 0.0
C98 C 0.6883 0.67436 0.39877 0.0
C99 C 0.64679 0.65385 0.39908 0.0
H100 H 0.80305 0.72615 0.31636 0.0
H101 H 0.63099 0.65262 0.41589 0.0
H102 H 0.85807 0.67629 0.45983 0.0
H103 H 0.92236 0.66501 0.32007 0.0
H104 H 0.70423 0.68826 0.41549 0.0
H105 H 0.59371 0.61916 0.37783 0.0
H106 H 0.8617 0.63484 0.34466 0.0
H107 H 0.77206 0.69972 0.27556 0.0
H108 H 0.59517 0.60335 0.33262 0.0
H109 H 0.63413 0.61478 0.29433 0.0
H110 H 0.91979 0.71495 0.48379 0.0
H111 H 0.70044 0.65037 0.27286 0.0
H112 H 0.98613 0.71282 0.33941 0.0
N113 N 0.88776 0.68707 0.42517 0.0
C114 C 0.92314 0.70261 0.41317 0.0
C115 C 0.92112 0.712 0.46391 0.0
C116 C 0.95916 0.72417 0.42617 0.0
C117 C 0.88618 0.69056 0.45026 0.0
C118 C 0.95777 0.72884 0.45183 0.0
N119 N 0.88784 0.67198 0.37637 0.0
C120 C 0.88789 0.65889 0.3528 0.0
C121 C 0.95955 0.71089 0.37502 0.0
C122 C 0.92318 0.69562 0.38791 0.0
C123 C 0.95889 0.70142 0.34998 0.0
C124 C 0.92294 0.67469 0.33896 0.0
H125 H 0.98479 0.74498 0.46253 0.0
H126 H 0.02332 0.75575 0.42296 0.0
H127 H 0.0236 0.74548 0.37811 0.0
O128 O 0.86059 0.61363 0.40181 0.0
O129 O 0.85593 0.71268 0.40706 0.0
O130 O 0.83976 0.72774 0.36993 0.0
O131 O 0.81355 0.60044 0.42719 0.0
O132 O 0.80714 0.63272 0.36421 0.0
O133 O 0.81408 0.69224 0.3522 0.0
O134 O 0.80312 0.7612 0.39358 0.0
O135 O 0.73899 0.6475 0.39385 0.0
O136 O 0.77296 0.61366 0.3876 0.0
O137 O 0.76746 0.75134 0.36115 0.0
O138 O 0.77812 0.70264 0.41608 0.0
O139 O 0.80151 0.6614 0.43209 0.0
C140 C 0.86506 0.73717 0.38828 0.0
C141 C 0.81927 0.54654 0.41016 0.0
C142 C 0.82724 0.48841 0.40285 0.0
C143 C 0.79038 0.46992 0.3906 0.0
C144 C 0.78341 0.52783 0.39703 0.0
C145 C 0.76876 0.48954 0.38773 0.0
C146 C 0.8412 0.52674 0.41293 0.0
C147 C 0.80675 0.65639 0.34677 0.0
C148 C 0.83678 0.58848 0.41797 0.0
C149 C 0.99528 0.73957 0.41329 0.0
C150 C 0.99545 0.73357 0.38773 0.0
C151 C 0.74129 0.61478 0.39481 0.0
C152 C 0.77531 0.80242 0.38868 0.0
C153 C 0.78681 0.86963 0.39476 0.0
C154 C 0.7541 0.85439 0.41096 0.0
C155 C 0.74271 0.78767 0.40478 0.0
C156 C 0.79705 0.84328 0.38359 0.0
C157 C 0.73206 0.81361 0.41576 0.0
C158 C 0.78543 0.68474 0.43455 0.0
C159 C 0.78916 0.7767 0.37806 0.0
H160 H 0.77815 0.4402 0.38317 0.0
H161 H 0.76719 0.54313 0.39333 0.0
H162 H 0.74082 0.47524 0.37785 0.0
H163 H 0.86982 0.5419 0.42206 0.0
H164 H 0.74528 0.87393 0.41966 0.0
H165 H 0.72586 0.75639 0.40908 0.0
H166 H 0.82262 0.8547 0.37139 0.0
H167 H 0.70686 0.80211 0.42821 0.0
Tb168 Tb 0.96502 0.25114 0.13821 0.0
C169 C 0.79723 0.1334 0.09554 0.0
N170 N 0.82741 0.16927 0.08817 0.0
C171 C 0.81929 0.14627 0.04616 0.0
C172 C 0.77706 0.10227 0.07844 0.0
C173 C 0.83815 0.17639 0.06377 0.0
C174 C 0.78861 0.10903 0.05351 0.0
C175 C 0.75572 0.09111 0.12879 0.0
C176 C 0.78667 0.12808 0.12037 0.0
C177 C 0.73565 0.05987 0.11187 0.0
C178 C 0.74596 0.0656 0.08671 0.0
Tb179 Tb 0.85222 0.21767 0.11762 0.0
N180 N 0.80576 0.15948 0.13604 0.0
C181 C 0.74499 0.08698 0.15381 0.0
C182 C 0.79316 0.15619 0.16009 0.0
C183 C 0.76356 0.11979 0.16946 0.0
H184 H 0.86071 0.20543 0.05767 0.0
H185 H 0.75426 0.1174 0.18861 0.0
H186 H 0.96052 0.23912 0.20022 0.0
H187 H 0.06692 0.37677 0.08335 0.0
H188 H 0.80429 0.18163 0.17208 0.0
H189 H 0.72149 0.05903 0.16102 0.0
H190 H 1.01981 0.30576 0.09183 0.0
H191 H 0.82802 0.15197 0.02687 0.0
H192 H 0.7117 0.03133 0.11799 0.0
H193 H 0.72993 0.04136 0.07383 0.0
H194 H 0.98091 0.28179 0.23692 0.0
H195 H 0.77387 0.08583 0.0398 0.0
H196 H 0.08568 0.42619 0.1171 0.0
N197 N 0.98357 0.28729 0.17438 0.0
C198 C 1.00773 0.32713 0.17169 0.0
C199 C 0.98768 0.29507 0.21868 0.0
C200 C 1.02098 0.35277 0.19234 0.0
C201 C 0.9755 0.2709 0.19762 0.0
C202 C 1.00965 0.33627 0.21604 0.0
N203 N 1.00988 0.31568 0.12917 0.0
C204 C 0.02709 0.32737 0.10634 0.0
C205 C 0.04907 0.38241 0.14458 0.0
C206 C 0.02187 0.34181 0.14828 0.0
C207 C 0.06463 0.39522 0.12075 0.0
C208 C 0.05408 0.36743 0.10163 0.0
H209 H 1.01936 0.35487 0.23242 0.0
H210 H 0.05682 0.41391 0.20433 0.0
H211 H 0.08129 0.43992 0.16241 0.0
O212 O 1.00181 0.23584 0.11756 0.0
O213 O 0.95163 0.29796 0.12567 0.0
O214 O 0.88906 0.26953 0.14011 0.0
O215 O 1.00654 0.24145 0.15708 0.0
O216 O 0.946 0.23422 0.09963 0.0
O217 O 0.89999 0.2533 0.09023 0.0
O218 O 0.79876 0.21722 0.12444 0.0
O219 O 0.87509 0.17674 0.11042 0.0
O220 O 0.91813 0.18878 0.14279 0.0
O221 O 0.83452 0.24819 0.09295 0.0
O222 O 0.86663 0.23034 0.15787 0.0
O223 O 0.91758 0.21689 0.16554 0.0
C224 C 0.9202 0.30065 0.13137 0.0
C225 C 0.06423 0.25371 0.13571 0.0
C226 C 0.12277 0.24645 0.13141 0.0
C227 C 0.14678 0.28621 0.13859 0.0
C228 C 0.08866 0.29354 0.14263 0.0
C229 C 0.12977 0.3097 0.14391 0.0
C230 C 0.08149 0.23045 0.12973 0.0
C231 C 0.93217 0.2512 0.08463 0.0
C232 C 1.02073 0.23466 0.1371 0.0
C233 C 0.04663 0.39369 0.18872 0.0
C234 C 0.06065 0.40849 0.16486 0.0
C235 C 0.89174 0.16437 0.12667 0.0
C236 C 0.76386 0.21668 0.08874 0.0
C237 C 0.69168 0.18915 0.08577 0.0
C238 C 0.69355 0.18007 0.06072 0.0
C239 C 0.76473 0.20741 0.06368 0.0
C240 C 0.72723 0.20737 0.09966 0.0
C241 C 0.72974 0.18905 0.04987 0.0
C242 C 0.88724 0.22056 0.17307 0.0
C243 C 0.80045 0.2355 0.10399 0.0
H244 H 0.17867 0.2991 0.13989 0.0
H245 H 0.07598 0.31183 0.14762 0.0
H246 H 0.14845 0.34035 0.14941 0.0
H247 H 0.06276 0.19955 0.1246 0.0
H248 H 0.66722 0.16685 0.04924 0.0
H249 H 0.79235 0.21435 0.05469 0.0
H250 H 0.72654 0.21412 0.11908 0.0
H251 H 0.73072 0.18209 0.03054 0.0
Tb252 Tb 0.38111 0.17989 0.39632 0.0
C253 C 0.34176 0.02197 0.33077 0.0
N254 N 0.32441 0.04469 0.33257 0.0
C255 C 0.31355 0.04002 0.28866 0.0
C256 C 0.34688 1.00826 0.30766 0.0
C257 C 0.30924 0.05295 0.31206 0.0
C258 C 0.33298 0.01808 0.28638 0.0
C259 C 0.36791 0.98478 0.35175 0.0
C260 C 0.35194 1.0103 0.35241 0.0
C261 C 0.37486 0.97241 0.32872 0.0
C262 C 0.36431 0.98411 0.3067 0.0
Tb263 Tb 0.32025 0.06534 0.3714 0.0
N264 N 0.3443 0.02255 0.37421 0.0
C265 C 0.37532 0.97166 0.37425 0.0
C266 C 0.34943 1.00818 0.39621 0.0
C267 C 0.36556 0.98302 0.39657 0.0
H268 H 0.29357 0.06932 0.31378 0.0
H269 H 0.37036 0.97235 0.41404 0.0
H270 H 0.3445 0.1717 0.45252 0.0
H271 H 0.36933 0.25127 0.31258 0.0
H272 H 0.3419 0.01672 0.41352 0.0
H273 H 0.38761 0.95202 0.37457 0.0
H274 H 0.39724 0.2199 0.33874 0.0
H275 H 0.30137 0.04642 0.27246 0.0
H276 H 0.38741 0.95303 0.32777 0.0
H277 H 0.36883 0.97351 0.28909 0.0
H278 H 0.30195 0.19257 0.47437 0.0
H279 H 0.33588 1.00775 0.26828 0.0
H280 H 0.31997 0.26718 0.32983 0.0
N281 N 0.3392 0.19406 0.41758 0.0
C282 C 0.32438 0.21387 0.40474 0.0
C283 C 0.30785 0.19851 0.45476 0.0
C284 C 0.29995 0.22624 0.41642 0.0
C285 C 0.33172 0.18655 0.44233 0.0
C286 C 0.29204 0.21858 0.44178 0.0
N287 N 0.3588 0.21047 0.36946 0.0
C288 C 0.37318 0.223 0.34604 0.0
C289 C 0.31927 0.24249 0.36595 0.0
C290 C 0.33414 0.22196 0.37985 0.0
C291 C 0.33088 0.25164 0.34118 0.0
C292 C 0.35847 0.24241 0.33131 0.0
H293 H 0.27388 0.22812 0.45154 0.0
H294 H 0.26559 0.2557 0.41111 0.0
H295 H 0.28209 0.26948 0.36687 0.0
O296 O 0.43097 0.23545 0.38805 0.0
O297 O 0.31648 0.13916 0.39942 0.0
O298 O 0.30252 0.10879 0.36223 0.0
O299 O 0.41527 0.21768 0.42568 0.0
O300 O 0.39842 0.16691 0.3597 0.0
O301 O 0.33882 0.11606 0.34673 0.0
O302 O 0.26917 0.04405 0.39358 0.0
O303 O 0.38361 0.08545 0.37948 0.0
O304 O 0.41587 0.15028 0.39569 0.0
O305 O 0.26821 1.01329 0.36016 0.0
O306 O 0.32876 0.07306 0.41155 0.0
O307 O 0.3733 0.13746 0.42613 0.0
C308 C 0.2934 0.12566 0.37997 0.0
C309 C 0.44713 0.28714 0.41656 0.0
C310 C 0.49344 0.35909 0.4166 0.0
C311 C 0.46212 0.3652 0.42369 0.0
C312 C 0.41683 0.29422 0.42448 0.0
C313 C 0.42421 0.33295 0.42777 0.0
C314 C 0.48564 0.31979 0.41294 0.0
C315 C 0.3758 0.1425 0.34213 0.0
C316 C 0.43892 0.24633 0.411 0.0
C317 C 0.28458 0.24608 0.40252 0.0
C318 C 0.29398 0.25393 0.37731 0.0
C319 C 0.41491 0.1172 0.38891 0.0
C320 C 0.22004 0.97609 0.39112 0.0
C321 C 0.15167 0.92229 0.39751 0.0
C322 C 0.16503 0.90743 0.4167 0.0
C323 C 0.23282 0.9602 0.40996 0.0
C324 C 0.17949 0.95668 0.38469 0.0
C325 C 0.20533 0.92603 0.42266 0.0
C326 C 0.34946 0.09856 0.42926 0.0
C327 C 0.24774 1.0141 0.37903 0.0
H328 H 0.46725 0.39494 0.42686 0.0
H329 H 0.3875 0.27001 0.42826 0.0
H330 H 0.40047 0.33798 0.43372 0.0
H331 H 0.50942 0.31466 0.40713 0.0
H332 H 0.14437 0.88081 0.42667 0.0
H333 H 0.26388 0.9744 0.41494 0.0
H334 H 0.16946 0.96872 0.37005 0.0
H335 H 0.21515 0.91374 0.43719 0.0
Tb336 Tb 0.78548 0.71524 0.1362 0.0
C337 C 0.93277 0.71715 0.09955 0.0
N338 N 0.89752 0.69845 0.0875 0.0
C339 C 0.93018 0.72585 0.04881 0.0
C340 C 0.96826 0.74227 0.08675 0.0
C341 C 0.89576 0.70141 0.06237 0.0
C342 C 0.96658 0.74665 0.06108 0.0
C343 C 0.96914 0.72993 0.13799 0.0
C344 C 0.93302 0.71095 0.12478 0.0
C345 C 1.00445 0.75623 0.12556 0.0
C346 C 1.00403 0.76227 0.09997 0.0
Tb347 Tb 0.84308 0.65842 0.1106 0.0
N348 N 0.89827 0.6848 0.13603 0.0
C349 C 0.96895 0.72081 0.16307 0.0
C350 C 0.89917 0.67255 0.15974 0.0
C351 C 0.93395 0.69134 0.17383 0.0
H352 H 0.86774 0.68505 0.05285 0.0
H353 H 0.93395 0.68228 0.19282 0.0
H354 H 0.82356 0.75213 0.19083 0.0
H355 H 0.63343 0.64851 0.10513 0.0
H356 H 0.87377 0.64749 0.16795 0.0
H357 H 0.99598 0.73486 0.17392 0.0
H358 H 0.70639 0.68556 0.10035 0.0
H359 H 0.92863 0.72861 0.02892 0.0
H360 H 0.03239 0.77129 0.13545 0.0
H361 H 0.03156 0.78219 0.09056 0.0
H362 H 0.79971 0.74703 0.23389 0.0
H363 H 0.99316 0.76575 0.05056 0.0
H364 H 0.60363 0.62687 0.14684 0.0
N365 N 0.76675 0.71028 0.17672 0.0
C366 C 0.72744 0.68779 0.18157 0.0
C367 C 0.7793 0.72918 0.2195 0.0
C368 C 0.71256 0.68342 0.20588 0.0
C369 C 0.79265 0.73204 0.19511 0.0
C370 C 0.73919 0.70427 0.22497 0.0
N371 N 0.71766 0.68304 0.13868 0.0
C372 C 0.69364 0.67618 0.11857 0.0
C373 C 0.66045 0.65291 0.16551 0.0
C374 C 0.70185 0.67336 0.16173 0.0
C375 C 0.63562 0.64275 0.14478 0.0
C376 C 0.65233 0.65512 0.12123 0.0
H377 H 0.7287 0.70328 0.24365 0.0
H378 H 0.65944 0.6566 0.22862 0.0
H379 H 0.61367 0.62927 0.19315 0.0
O380 O 0.80766 0.76637 0.11368 0.0
O381 O 0.74685 0.65243 0.12325 0.0
O382 O 0.78467 0.62149 0.12698 0.0
O383 O 0.77823 0.76306 0.14795 0.0
O384 O 0.78083 0.70531 0.0963 0.0
O385 O 0.80738 0.66635 0.08134 0.0
O386 O 0.86772 0.62067 0.11129 0.0
O387 O 0.86117 0.72081 0.10289 0.0
O388 O 0.84963 0.7399 0.14005 0.0
O389 O 0.82599 0.61416 0.08328 0.0
O390 O 0.81868 0.64466 0.14885 0.0
O391 O 0.82519 0.70442 0.1596 0.0
C392 C 0.75042 0.62016 0.12392 0.0
C393 C 0.78064 0.80906 0.1181 0.0
C394 C 0.78605 0.87445 0.11309 0.0
C395 C 0.75227 0.85678 0.09777 0.0
C396 C 0.7469 0.79213 0.10298 0.0
C397 C 0.73286 0.81597 0.09288 0.0
C398 C 0.80005 0.8501 0.12312 0.0
C399 C 0.7882 0.68657 0.07848 0.0
C400 C 0.79657 0.78497 0.12888 0.0
C401 C 0.67144 0.66081 0.21001 0.0
C402 C 0.64538 0.64532 0.18982 0.0
C403 C 0.87225 0.7475 0.12046 0.0
C404 C 0.82661 0.55552 0.09591 0.0
C405 C 0.83067 0.49466 0.10176 0.0
C406 C 0.78897 0.47238 0.09993 0.0
C407 C 0.78513 0.53224 0.09442 0.0
C408 C 0.84927 0.53656 0.09964 0.0
C409 C 0.76656 0.49104 0.09647 0.0
C410 C 0.81794 0.66886 0.16575 0.0
C411 C 0.84656 0.59933 0.09281 0.0
H412 H 0.74027 0.8743 0.09001 0.0
H413 H 0.73152 0.76064 0.09898 0.0
H414 H 0.7067 0.80274 0.08124 0.0
H415 H 0.82629 0.86308 0.13473 0.0
H416 H 0.7734 0.44027 0.1007 0.0
H417 H 0.76697 0.54579 0.0914 0.0
H418 H 0.88126 0.55453 0.10101 0.0
H419 H 0.73457 0.47338 0.09508 0.0
Tb420 Tb 0.85681 0.20475 0.41204 0.0
C421 C 1.00382 0.31774 0.34137 0.0
N422 N 0.98297 0.27743 0.34175 0.0
C423 C 0.98792 0.27575 0.29749 0.0
C424 C 1.01705 0.3388 0.31886 0.0
C425 C 0.97522 0.25619 0.32027 0.0
C426 C 1.00863 0.31724 0.29673 0.0
C427 C 0.03481 0.37974 0.36426 0.0
C428 C 1.01263 0.33796 0.36374 0.0
C429 C 0.04749 0.40095 0.34185 0.0
C430 C 0.03863 0.38053 0.3192 0.0
Tb431 Tb 0.96451 0.2493 0.38004 0.0
N432 N 0.99925 0.31649 0.38503 0.0
C433 C 0.04387 0.39885 0.38731 0.0
C434 C 1.00967 0.33479 0.40758 0.0
C435 C 0.03157 0.37624 0.40906 0.0
H436 H 0.95983 0.22409 0.32068 0.0
H437 H 0.03902 0.39071 0.42697 0.0
H438 H 0.86872 0.22455 0.47313 0.0
H439 H 0.77307 0.06907 0.36095 0.0
H440 H 1.00059 0.31754 0.42436 0.0
H441 H 0.06084 0.43095 0.38853 0.0
H442 H 0.8177 0.14139 0.36608 0.0
H443 H 0.9818 0.25878 0.28055 0.0
H444 H 0.06446 0.43311 0.34184 0.0
H445 H 0.04893 0.39726 0.30209 0.0
H446 H 0.84754 0.1863 0.51189 0.0
H447 H 1.01835 0.33229 0.27904 0.0
H448 H 0.74733 0.02586 0.39801 0.0
N449 N 0.84123 0.17343 0.44974 0.0
C450 C 0.81703 0.13337 0.4488 0.0
C451 C 0.83902 0.17101 0.49426 0.0
C452 C 0.8025 0.11058 0.47063 0.0
C453 C 0.8517 0.19256 0.47211 0.0
C454 C 0.81436 0.12985 0.49354 0.0
N455 N 0.82056 0.13823 0.40518 0.0
C456 C 0.80801 0.12243 0.38215 0.0
C457 C 0.77887 0.07422 0.4239 0.0
C458 C 0.80569 0.11527 0.42578 0.0
C459 C 0.7677 0.05737 0.40026 0.0
C460 C 0.78227 0.08163 0.37928 0.0
H461 H 0.80398 0.11337 0.51074 0.0
H462 H 0.7641 0.05161 0.48548 0.0
H463 H 0.74267 0.01999 0.44458 0.0
O464 O 0.80895 0.20302 0.39262 0.0
O465 O 0.88184 0.16474 0.40869 0.0
O466 O 0.92446 0.18533 0.37472 0.0
O467 O 0.81164 0.20727 0.43239 0.0
O468 O 0.86266 0.21936 0.37139 0.0
O469 O 0.91497 0.21293 0.35603 0.0
O470 O 1.01213 0.25456 0.40124 0.0
O471 O 0.93761 0.28844 0.38172 0.0
O472 O 0.89517 0.26827 0.41564 0.0
O473 O 1.0071 0.23859 0.36282 0.0
O474 O 0.94906 0.22648 0.41773 0.0
O475 O 0.90811 0.2434 0.43672 0.0
C476 C 0.90059 0.15792 0.39063 0.0
C477 C 0.76659 0.22286 0.4119 0.0
C478 C 0.70091 0.21686 0.40714 0.0
C479 C 0.71887 0.25821 0.41072 0.0
C480 C 0.78368 0.26386 0.41534 0.0
C481 C 0.75979 0.28135 0.41483 0.0
C482 C 0.72535 0.19954 0.40773 0.0
C483 C 0.88277 0.21528 0.3528 0.0
C484 C 0.79054 0.20309 0.41275 0.0
C485 C 0.77585 0.06957 0.46891 0.0
C486 C 0.76363 0.05155 0.44561 0.0
C487 C 0.91552 0.29389 0.39819 0.0
C488 C 0.02912 0.2063 0.39019 0.0
C489 C 0.06668 0.17114 0.39006 0.0
C490 C 0.03523 0.1394 0.40279 0.0
C491 C 0.99845 0.17435 0.40316 0.0
C492 C 0.06323 0.20454 0.38356 0.0
C493 C 1.0014 0.14108 0.40926 0.0
C494 C 0.9422 0.24359 0.43631 0.0
C495 C 0.0251 0.24107 0.38361 0.0
H496 H 0.70141 0.27288 0.41006 0.0
H497 H 0.81531 0.28222 0.41848 0.0
H498 H 0.77302 0.31304 0.41761 0.0
H499 H 0.71228 0.16773 0.40538 0.0
H500 H 0.03665 0.11306 0.4076 0.0
H501 H 0.97225 0.17515 0.4088 0.0
H502 H 0.08716 0.2293 0.37379 0.0
H503 H 0.9774 0.11653 0.4191 0.0
Tb504 Tb 0.19683 0.38393 0.62023 0.0
C505 C 0.05715 0.36192 0.68321 0.0
N506 N 0.07015 0.33551 0.68103 0.0
C507 C 0.068 0.32806 0.72529 0.0
C508 C 0.05104 0.37415 0.70657 0.0
C509 C 0.07324 0.31667 0.70162 0.0
C510 C 0.05753 0.35749 0.72778 0.0
C511 C 0.02768 0.3968 0.66319 0.0
C512 C 0.04529 0.37273 0.66198 0.0
C513 C 0.02473 0.41204 0.68622 0.0
C514 C 0.03629 0.40061 0.70793 0.0
Tb515 Tb 0.08012 0.32104 0.64137 0.0
N516 N 0.04735 0.35618 0.64038 0.0
C517 C 1.01167 0.40289 0.64148 0.0
C518 C 0.0284 0.3588 0.61971 0.0
C519 C 1.01128 0.38309 0.61975 0.0
H520 H 0.08036 0.2932 0.69986 0.0
H521 H 0.99759 0.38629 0.6031 0.0
H522 H 0.20631 0.35668 0.5644 0.0
H523 H 0.27904 0.39074 0.70345 0.0
H524 H 0.02771 0.34311 0.60305 0.0
H525 H 0.99794 0.42126 0.64158 0.0
H526 H 0.24628 0.4143 0.67456 0.0
H527 H 0.0718 0.31393 0.74153 0.0
H528 H 1.0118 0.43106 0.68757 0.0
H529 H 0.03201 0.4109 0.72571 0.0
H530 H 0.22913 0.31368 0.54502 0.0
H531 H 0.05271 0.36583 0.74605 0.0
H532 H 0.2896 0.3352 0.69153 0.0
N533 N 0.21847 0.34588 0.60108 0.0
C534 C 0.23539 0.32992 0.61555 0.0
C535 C 0.23072 0.31769 0.56492 0.0
C536 C 0.24894 0.30536 0.60546 0.0
C537 C 0.21765 0.34179 0.5759 0.0
C538 C 0.24582 0.29882 0.57982 0.0
N539 N 0.23239 0.36846 0.64794 0.0
C540 C 0.24854 0.38855 0.66957 0.0
C541 C 0.26236 0.32786 0.65547 0.0
C542 C 0.24182 0.34097 0.6401 0.0
C543 C 0.27387 0.34449 0.67909 0.0
C544 C 0.26799 0.37586 0.68587 0.0
H545 H 0.25594 0.28018 0.5713 0.0
H546 H 0.27629 0.26987 0.61388 0.0
H547 H 0.28848 0.28995 0.65776 0.0
O548 O 0.25833 0.4238 0.61642 0.0
O549 O 0.15696 0.32176 0.60961 0.0
O550 O 0.11894 0.29503 0.64405 0.0
O551 O 0.21646 0.43234 0.59554 0.0
O552 O 0.18085 0.38924 0.65934 0.0
O553 O 0.12798 0.32693 0.66565 0.0
O554 O 0.04736 0.26786 0.62115 0.0
O555 O 0.10523 0.38148 0.62503 0.0
O556 O 0.16941 0.41395 0.63894 0.0
O557 O 0.02357 0.27798 0.65421 0.0
O558 O 0.08706 0.32966 0.60126 0.0
O559 O 0.15408 0.36735 0.58848 0.0
C560 C 0.1387 0.29214 0.62517 0.0
C561 C 0.28028 0.49007 0.60298 0.0
C562 C 0.34776 0.54801 0.60688 0.0
C563 C 0.3319 0.57276 0.60136 0.0
C564 C 0.26572 0.51592 0.5978 0.0
C565 C 0.29146 0.55681 0.59677 0.0
C566 C 0.32151 0.50639 0.60745 0.0
C567 C 0.15714 0.36015 0.67447 0.0
C568 C 0.25383 0.44634 0.60062 0.0
C569 C 0.26642 0.28951 0.62113 0.0
C570 C 0.27317 0.3008 0.64613 0.0
C571 C 0.13829 0.41458 0.63028 0.0
C572 C 1.01028 0.21272 0.64725 0.0
C573 C 0.96787 0.14024 0.64914 0.0
C574 C 0.9939 0.13901 0.66679 0.0
C575 C 0.03571 0.21042 0.6648 0.0
C576 C 0.97644 0.17752 0.63932 0.0
C577 C 0.02748 0.17381 0.67449 0.0
C578 C 0.11493 0.34723 0.58419 0.0
C579 C 1.01924 0.25198 0.63758 0.0
H580 H 0.35094 0.60463 0.5999 0.0
H581 H 0.23456 0.50456 0.59386 0.0
H582 H 0.28006 0.57635 0.59206 0.0
H583 H 0.33311 0.48666 0.6111 0.0
H584 H 0.98872 0.11098 0.67435 0.0
H585 H 0.0619 0.23699 0.67111 0.0
H586 H 0.95673 0.17922 0.6258 0.0
H587 H 0.04727 0.17239 0.68803 0.0
Tb588 Tb 0.25875 0.94546 0.87452 0.0
C589 C 0.12796 0.79518 0.92265 0.0
N590 N 0.16566 0.81771 0.93112 0.0
C591 C 0.14127 0.81621 0.97216 0.0
C592 C 0.09518 0.78324 0.93858 0.0
C593 C 0.17285 0.82782 0.95557 0.0
C594 C 0.10226 0.79396 0.96362 0.0
C595 C 0.08371 0.76443 0.88785 0.0
C596 C 0.12246 0.78601 0.8976 0.0
C597 C 0.05087 0.75274 0.90357 0.0
C598 C 0.05658 0.76195 0.92889 0.0
Tb599 Tb 0.21496 0.83424 0.90288 0.0
N600 N 0.15504 0.79849 0.88284 0.0
C601 C 0.07911 0.75496 0.86262 0.0
C602 C 0.15039 0.78626 0.85868 0.0
C603 C 0.11259 0.76536 0.84809 0.0
H604 H 0.20291 0.84455 0.96235 0.0
H605 H 0.10929 0.75659 0.8288 0.0
H606 H 0.24504 0.93425 0.81322 0.0
H607 H 0.38719 0.05111 0.92555 0.0
H608 H 0.17526 0.79103 0.84749 0.0
H609 H 0.04988 0.73861 0.85438 0.0
H610 H 0.31565 1.00376 0.91896 0.0
H611 H 0.14704 0.82444 0.99151 0.0
H612 H 1.02092 0.7364 0.89635 0.0
H613 H 0.03098 0.75279 0.94078 0.0
H614 H 0.28662 0.945 0.77619 0.0
H615 H 0.07786 0.78537 0.97647 0.0
H616 H 0.4353 0.06418 0.8917 0.0
N617 N 0.29387 0.95872 0.83821 0.0
C618 C 0.33388 0.9814 0.84027 0.0
C619 C 0.30035 0.95515 0.79415 0.0
C620 C 0.35893 0.99042 0.81949 0.0
C621 C 0.27683 0.94817 0.81529 0.0
C622 C 0.34164 0.9756 0.79635 0.0
N623 N 0.32384 0.98959 0.88219 0.0
C624 C 0.33661 1.00919 0.90424 0.0
C625 C 0.39031 0.02473 0.86581 0.0
C626 C 0.3494 0.99818 0.86299 0.0
C627 C 0.40406 0.0434 0.88878 0.0
C628 C 0.37698 0.03604 0.90796 0.0
H629 H 0.35982 0.98124 0.77996 0.0
H630 H 0.41993 0.02215 0.80665 0.0
H631 H 0.44744 0.0524 0.84728 0.0
O632 O 0.24081 0.98265 0.89212 0.0
O633 O 0.30283 0.93019 0.89007 0.0
O634 O 0.27265 0.86263 0.88452 0.0
O635 O 0.25364 0.9879 0.85319 0.0
O636 O 0.2469 0.93679 0.91439 0.0
O637 O 0.25261 0.88315 0.92918 0.0
O638 O 0.20322 0.77594 0.89701 0.0
O639 O 0.1845 0.86874 0.90756 0.0
O640 O 0.1958 0.90047 0.87049 0.0
O641 O 0.23324 0.80728 0.93001 0.0
O642 O 0.23546 0.84379 0.86382 0.0
O643 O 0.22352 0.89335 0.85095 0.0
C644 C 0.30424 0.89688 0.88929 0.0
C645 C 0.26261 0.04569 0.87343 0.0
C646 C 0.25601 0.10446 0.8797 0.0
C647 C 0.29534 0.12847 0.87171 0.0
C648 C 0.3021 0.07025 0.86583 0.0
C649 C 0.31831 0.11143 0.86504 0.0
C650 C 0.23983 0.06302 0.88071 0.0
C651 C 0.25636 0.91902 0.93178 0.0
C652 C 0.24362 1.00207 0.87187 0.0
C653 C 0.40012 0.01514 0.82236 0.0
C654 C 0.41578 0.03243 0.84547 0.0
C655 C 0.17249 0.88277 0.8895 0.0
C656 C 0.19278 0.73605 0.93217 0.0
C657 C 0.16104 0.66326 0.9343 0.0
C658 C 0.1474 0.66453 0.95825 0.0
C659 C 0.17881 0.7363 0.95614 0.0
C660 C 0.18351 0.6993 0.92127 0.0
C661 C 0.15608 0.70071 0.96897 0.0
C662 C 0.23172 0.86511 0.84606 0.0
C663 C 0.21741 0.77345 0.91825 0.0
H664 H 0.30837 0.16045 0.87088 0.0
H665 H 0.32013 0.05759 0.86007 0.0
H666 H 0.34867 0.13018 0.859 0.0
H667 H 0.20929 0.04427 0.88654 0.0
H668 H 0.12977 0.63741 0.96867 0.0
H669 H 0.18556 0.76389 0.96505 0.0
H670 H 0.19456 0.69887 0.90288 0.0
H671 H 0.14533 0.70119 0.98741 0.0
Tb672 Tb 0.65891 0.81953 0.60915 0.0
C673 C 0.71946 0.73251 0.68743 0.0
N674 N 0.73646 0.7705 0.679 0.0
C675 C 0.76678 0.79485 0.71876 0.0
C676 C 0.72494 0.72437 0.71219 0.0
C677 C 0.76067 0.80154 0.69414 0.0
C678 C 0.74902 0.7561 0.72777 0.0
C679 C 0.68533 0.66191 0.67847 0.0
C680 C 0.70042 0.70163 0.67056 0.0
C681 C 0.68809 0.65373 0.70351 0.0
C682 C 0.70832 0.68489 0.72024 0.0
Tb683 Tb 0.72894 0.77781 0.63768 0.0
N684 N 0.70032 0.7106 0.64614 0.0
C685 C 0.6702 0.63164 0.66079 0.0
C686 C 0.68914 0.68109 0.62872 0.0
C687 C 0.67272 0.64137 0.63577 0.0
H688 H 0.77538 0.83164 0.68726 0.0
H689 H 0.66226 0.61828 0.62184 0.0
H690 H 0.66829 0.81479 0.54823 0.0
H691 H 0.69944 0.94422 0.67093 0.0
H692 H 0.69004 0.68753 0.6093 0.0
H693 H 0.65819 0.60085 0.66617 0.0
H694 H 0.66623 0.87382 0.65977 0.0
H695 H 0.78584 0.81955 0.73063 0.0
H696 H 0.6765 0.62345 0.70985 0.0
H697 H 0.71219 0.67813 0.73918 0.0
H698 H 0.69895 0.8616 0.51356 0.0
H699 H 0.75524 0.75088 0.74653 0.0
H700 H 0.73411 0.99566 0.63882 0.0
N701 N 0.68583 0.85998 0.57553 0.0
C702 C 0.70213 0.89956 0.57983 0.0
C703 C 0.70048 0.8727 0.53217 0.0
C704 C 0.71976 0.92746 0.5605 0.0
C705 C 0.68372 0.84619 0.55199 0.0
C706 C 0.71889 0.91353 0.53646 0.0
N707 N 0.68532 0.88416 0.62207 0.0
C708 C 0.68288 0.89539 0.64572 0.0
C709 C 0.72048 0.95298 0.60934 0.0
C710 C 0.70226 0.91209 0.60391 0.0
C711 C 0.72021 0.96454 0.63385 0.0
C712 C 0.70092 0.9356 0.65205 0.0
H713 H 0.73202 0.934 0.52108 0.0
H714 H 0.75186 0.99012 0.55125 0.0
H715 H 0.75274 1.01248 0.59405 0.0
O716 O 0.61352 0.83232 0.61711 0.0
O717 O 0.72415 0.85269 0.60597 0.0
O718 O 0.74874 0.84147 0.64206 0.0
O719 O 0.60857 0.7963 0.58572 0.0
O720 O 0.65483 0.80913 0.65015 0.0
O721 O 0.71431 0.81339 0.66265 0.0
O722 O 0.77816 0.79994 0.6134 0.0
O723 O 0.66762 0.73338 0.62538 0.0
O724 O 0.63504 0.76731 0.63271 0.0
O725 O 0.77713 0.76908 0.6461 0.0
O726 O 0.72731 0.79145 0.59868 0.0
O727 O 0.66656 0.77719 0.58405 0.0
C728 C 0.75033 0.86534 0.62407 0.0
C729 C 0.57693 0.83611 0.5835 0.0
C730 C 0.53465 0.86679 0.58185 0.0
C731 C 0.54563 0.87659 0.55686 0.0
C732 C 0.58718 0.84639 0.55855 0.0
C733 C 0.57171 0.86658 0.54542 0.0
C734 C 0.55079 0.84669 0.59513 0.0
C735 C 0.68103 0.81332 0.66745 0.0
C736 C 0.59278 0.81424 0.5977 0.0
C737 C 0.73794 0.96821 0.56583 0.0
C738 C 0.73844 0.98094 0.5902 0.0
C739 C 0.63424 0.73423 0.62746 0.0
C740 C 0.83882 0.82293 0.63451 0.0
C741 C 0.91107 0.85237 0.63527 0.0
C742 C 0.91375 0.88323 0.6502 0.0
C743 C 0.84261 0.85469 0.64893 0.0
C744 C 0.87334 0.82213 0.62733 0.0
C745 C 0.87973 0.88442 0.65684 0.0
C746 C 0.69859 0.77309 0.58275 0.0
C747 C 0.7988 0.79045 0.62781 0.0
H748 H 0.53432 0.89242 0.54617 0.0
H749 H 0.60703 0.83875 0.54911 0.0
H750 H 0.57991 0.87446 0.52619 0.0
H751 H 0.54249 0.83863 0.61435 0.0
H752 H 0.94235 0.90691 0.65639 0.0
H753 H 0.81685 0.85649 0.65424 0.0
H754 H 0.87085 0.79795 0.61601 0.0
H755 H 0.88214 0.90844 0.66819 0.0
Tb756 Tb 0.08291 0.30488 0.88632 0.0
C757 C 0.23082 0.32422 0.93567 0.0
N758 N 0.20766 0.33986 0.94233 0.0
C759 C 0.20634 0.31937 0.9844 0.0
C760 C 0.24193 0.30466 0.95322 0.0
C761 C 0.19602 0.33852 0.96637 0.0
C762 C 0.2293 0.30229 0.9778 0.0
C763 C 0.26489 0.30943 0.9033 0.0
C764 C 0.2416 0.3261 0.91084 0.0
C765 C 0.27613 0.29 0.92075 0.0
C766 C 0.26462 0.28755 0.94561 0.0
Tb767 Tb 0.19603 0.37292 0.91168 0.0
N768 N 0.22919 0.3441 0.89417 0.0
C769 C 0.27665 0.3132 0.87849 0.0
C770 C 0.24206 0.34916 0.87014 0.0
C771 C 0.26523 0.33317 0.86187 0.0
H772 H 0.17905 0.3524 0.97175 0.0
H773 H 0.27521 0.33723 0.8428 0.0
H774 H 0.09006 0.2741 0.83026 0.0
H775 H 0.99271 0.36394 0.92098 0.0
H776 H 0.23667 0.36728 0.85746 0.0
H777 H 0.29538 0.30168 0.87211 0.0
H778 H 0.03462 0.33255 0.92424 0.0
H779 H 0.19678 0.31799 1.00341 0.0
H780 H 0.29372 0.27674 0.9152 0.0
H781 H 0.27331 0.27222 0.9588 0.0
H782 H 0.07268 0.28184 0.78731 0.0
H783 H 0.23713 0.28739 0.99182 0.0
H784 H 0.97638 0.37975 0.87963 0.0
N785 N 0.06572 0.30741 0.84617 0.0
C786 C 0.04458 0.32604 0.8422 0.0
C787 C 0.06479 0.29462 0.80258 0.0
C788 C 0.03322 0.33043 0.81814 0.0
C789 C 0.07492 0.29063 0.82689 0.0
C790 C 0.044 0.31478 0.79818 0.0
N791 N 0.04325 0.33273 0.88533 0.0
C792 C 0.02769 0.33966 0.90623 0.0
C793 C 1.00854 0.35625 0.85967 0.0
C794 C 0.03249 0.33878 0.86254 0.0
C795 C 0.99486 0.36622 0.88101 0.0
C796 C 1.004 0.35733 0.9044 0.0
H797 H 0.03549 0.31717 0.77945 0.0
H798 H 1.00187 0.35327 0.79656 0.0
H799 H 0.98017 0.37586 0.833 0.0
O800 O 0.04301 0.26449 0.91224 0.0
O801 O 0.10218 0.36879 0.89 0.0
O802 O 0.16869 0.40833 0.90243 0.0
O803 O 0.03801 0.24867 0.87374 0.0
O804 O 0.09753 0.31044 0.92584 0.0
O805 O 0.14986 0.37135 0.93688 0.0
O806 O 0.25529 0.41471 0.90288 0.0
O807 O 0.15939 0.30828 0.91834 0.0
O808 O 0.12425 0.28201 0.88282 0.0
O809 O 0.2307 0.41663 0.93808 0.0
O810 O 0.18596 0.38014 0.87178 0.0
O811 O 0.13467 0.31785 0.86398 0.0
C812 C 0.13393 0.40319 0.89543 0.0
C813 C 0.02459 0.19824 0.90321 0.0
C814 C 0.99152 0.12572 0.90166 0.0
C815 C 1.02096 0.1269 0.91736 0.0
C816 C 0.05321 0.19848 0.91925 0.0
C817 C 0.05155 0.16305 0.92606 0.0
C818 C 0.99381 0.16174 0.89442 0.0
C819 C 0.11278 0.34213 0.93996 0.0
C820 C 0.0263 0.23585 0.89617 0.0
C821 C 1.01064 0.34929 0.81493 0.0
C822 C 0.9983 0.36217 0.83568 0.0
C823 C 0.14564 0.28061 0.90123 0.0
C824 C 0.28545 0.47705 0.92286 0.0
C825 C 0.34982 0.53704 0.91605 0.0
C826 C 0.3335 0.56006 0.92448 0.0
C827 C 0.26969 0.50073 0.93087 0.0
C828 C 0.32546 0.49545 0.91512 0.0
C829 C 0.29372 0.54201 0.93167 0.0
C830 C 0.16127 0.35307 0.856 0.0
C831 C 0.26188 0.43324 0.92383 0.0
H832 H 1.02035 0.09979 0.92292 0.0
H833 H 0.0767 0.22603 0.92676 0.0
H834 H 0.07387 0.1636 0.9383 0.0
H835 H 0.97119 0.1614 0.88249 0.0
H836 H 0.35152 0.59212 0.92534 0.0
H837 H 0.23906 0.48732 0.93682 0.0
H838 H 0.33793 0.47734 0.90908 0.0
H839 H 0.28168 0.56018 0.93815 0.0
Tb840 Tb 0.22205 0.85261 0.61011 0.0
C841 C 0.30436 0.98983 0.69476 0.0
N842 N 0.26842 0.97115 0.68356 0.0
C843 C 0.23697 0.96984 0.7221 0.0
C844 C 0.30802 0.99776 0.72041 0.0
C845 C 0.23481 0.96144 0.69678 0.0
C846 C 0.27361 0.98725 0.73412 0.0
C847 C 0.37571 0.02796 0.69022 0.0
C848 C 0.33753 1.00512 0.67991 0.0
C849 C 0.37983 0.03321 0.71605 0.0
C850 C 0.34597 0.01846 0.73111 0.0
Tb851 Tb 0.26793 0.96329 0.64157 0.0
N852 N 0.33197 1.00142 0.65506 0.0
C853 C 0.40821 0.04692 0.67416 0.0
C854 C 0.36309 0.02311 0.63938 0.0
C855 C 0.40176 0.04509 0.64859 0.0
H856 H 0.20622 0.94715 0.68785 0.0
H857 H 0.42646 0.06106 0.63601 0.0
H858 H 0.20579 0.85715 0.55067 0.0
H859 H 0.12144 0.77978 0.68766 0.0
H860 H 0.35798 0.0226 0.61972 0.0
H861 H 0.43807 0.06466 0.68131 0.0
H862 H 0.18547 0.81028 0.66667 0.0
H863 H 0.21039 0.96329 0.73224 0.0
H864 H 0.4089 0.05045 0.72438 0.0
H865 H 0.34943 0.02483 0.75079 0.0
H866 H 0.1478 0.83816 0.52352 0.0
H867 H 0.27515 0.99399 0.75371 0.0
H868 H 0.06103 0.76547 0.66446 0.0
N869 N 0.17127 0.83729 0.58363 0.0
C870 C 0.13439 0.81823 0.59381 0.0
C871 C 0.14366 0.83261 0.54327 0.0
C872 C 0.10046 0.80642 0.57899 0.0
C873 C 0.17643 0.84365 0.55869 0.0
C874 C 0.10551 0.81415 0.55347 0.0
N875 N 0.16422 0.82185 0.63288 0.0
C876 C 0.16067 0.80847 0.65676 0.0
C877 C 0.09272 0.79072 0.63018 0.0
C878 C 0.13076 0.81086 0.61922 0.0
C879 C 0.08967 0.78103 0.65535 0.0
C880 C 0.12374 0.78934 0.66857 0.0
H881 H 0.08018 0.80568 0.54148 0.0
H882 H 0.03634 0.77864 0.57903 0.0
H883 H 0.02951 0.76447 0.62373 0.0
O884 O 0.19635 0.79047 0.61122 0.0
O885 O 0.20081 0.89467 0.60286 0.0
O886 O 0.20466 0.91943 0.64129 0.0
O887 O 0.24166 0.82429 0.58479 0.0
O888 O 0.24471 0.86045 0.64852 0.0
O889 O 0.22994 0.90749 0.66043 0.0
O890 O 0.24464 0.98884 0.61677 0.0
O891 O 0.31329 0.94595 0.63279 0.0
O892 O 0.28463 0.87938 0.61947 0.0
O893 O 0.27432 0.01918 0.64987 0.0
O894 O 0.28587 0.96245 0.60317 0.0
O895 O 0.25583 0.90041 0.58244 0.0
C896 C 0.18552 0.90638 0.62034 0.0
C897 C 0.23804 0.7652 0.60126 0.0
C898 C 0.23138 0.69982 0.61 0.0
C899 C 0.27109 0.71945 0.6181 0.0
C900 C 0.27735 0.78366 0.60975 0.0
C901 C 0.29367 0.76086 0.61804 0.0
C902 C 0.21515 0.72321 0.6014 0.0
C903 C 0.24303 0.88333 0.66591 0.0
C904 C 0.21943 0.78922 0.59442 0.0
C905 C 0.06274 0.78757 0.59006 0.0
C906 C 0.05889 0.77974 0.61557 0.0
C907 C 0.31512 0.91408 0.62573 0.0
C908 C 0.22 0.02599 0.63761 0.0
C909 C 0.19046 0.06906 0.63955 0.0
C910 C 0.15965 0.04025 0.65423 0.0
C911 C 0.18821 0.99762 0.65176 0.0
C912 C 0.22083 0.06174 0.63119 0.0
C913 C 0.15865 1.00493 0.66024 0.0
C914 C 0.27893 0.93985 0.58328 0.0
C915 C 0.25306 0.01886 0.63121 0.0
H916 H 0.28499 0.7028 0.62436 0.0
H917 H 0.2953 0.8157 0.61031 0.0
H918 H 0.32395 0.77536 0.62467 0.0
H919 H 0.18445 0.70891 0.59548 0.0
H920 H 0.1358 0.04472 0.66076 0.0
H921 H 0.18643 0.96991 0.65655 0.0
H922 H 0.24521 0.08391 0.62023 0.0
H923 H 0.13497 0.98323 0.6717 0.0
Tb924 Tb 0.72175 0.77009 0.86739 0.0
C925 C 0.7262 0.90219 0.93369 0.0
N926 N 0.70521 0.86242 0.93801 0.0
C927 C 0.7233 0.87341 0.98101 0.0
C928 C 0.74675 0.9292 0.95295 0.0
C929 C 0.70283 0.84783 0.96138 0.0
C930 C 0.74547 0.91429 0.97678 0.0
C931 C 0.74798 0.95681 0.90457 0.0
C932 C 0.72691 0.91579 0.90978 0.0
C933 C 0.76828 0.98387 0.92373 0.0
C934 C 0.76754 0.97011 0.94788 0.0
Tb935 Tb 0.67179 0.82412 0.90469 0.0
N936 N 0.70666 0.8887 0.89169 0.0
C937 C 0.74721 0.96943 0.88038 0.0
C938 C 0.70301 0.90119 0.86872 0.0
C939 C 0.72414 0.9415 0.86247 0.0
H940 H 0.68392 0.8167 0.96514 0.0
H941 H 0.72173 0.95107 0.84401 0.0
H942 H 0.73889 0.80363 0.80953 0.0
H943 H 0.64379 0.62141 0.90606 0.0
H944 H 0.68264 0.88055 0.85548 0.0
H945 H 0.76315 1.00069 0.87559 0.0
H946 H 0.68262 0.69436 0.90785 0.0
H947 H 0.72136 0.86165 0.99949 0.0
H948 H 0.78452 0.01553 0.9201 0.0
H949 H 0.78334 0.99137 0.96247 0.0
H950 H 0.71625 0.77571 0.76797 0.0
H951 H 0.76097 0.93408 0.99207 0.0
H952 H 0.62171 0.5877 0.86551 0.0
N953 N 0.70678 0.74771 0.82781 0.0
C954 C 0.68408 0.7077 0.82527 0.0
C955 C 0.70737 0.75611 0.78385 0.0
C956 C 0.67207 0.69023 0.80169 0.0
C957 C 0.71947 0.77197 0.80751 0.0
C958 C 0.6837 0.71504 0.7809 0.0
N959 N 0.68438 0.70226 0.86891 0.0
C960 C 0.67475 0.68013 0.89014 0.0
C961 C 0.65004 0.6425 0.84447 0.0
C962 C 0.67318 0.68415 0.84641 0.0
C963 C 0.63955 0.61978 0.86621 0.0
C964 C 0.65204 0.6387 0.88913 0.0
H965 H 0.67439 0.70276 0.76252 0.0
H966 H 0.63925 0.63481 0.78164 0.0
H967 H 0.62002 0.59298 0.81911 0.0
O968 O 0.77331 0.77756 0.88542 0.0
O969 O 0.6565 0.73505 0.87281 0.0
O970 O 0.63565 0.75969 0.90553 0.0
O971 O 0.76388 0.76298 0.84688 0.0
O972 O 0.73073 0.78056 0.90721 0.0
O973 O 0.67797 0.77922 0.92763 0.0
O974 O 0.6265 0.83601 0.89342 0.0
O975 O 0.73725 0.85062 0.90301 0.0
O976 O 0.74874 0.83446 0.86425 0.0
O977 O 0.63512 0.82853 0.93182 0.0
O978 O 0.65573 0.8095 0.86448 0.0
O979 O 0.71194 0.81328 0.8482 0.0
C980 C 0.62969 0.73227 0.88905 0.0
C981 C 0.82969 0.80688 0.85913 0.0
C982 C 0.90211 0.83672 0.86101 0.0
C983 C 0.90592 0.86812 0.84608 0.0
C984 C 0.83456 0.83884 0.84437 0.0
C985 C 0.8724 0.86924 0.83799 0.0
C986 C 0.86366 0.80615 0.86771 0.0
C987 C 0.70594 0.76901 0.92593 0.0
C988 C 0.78918 0.77419 0.86498 0.0
C989 C 0.64882 0.64875 0.79964 0.0
C990 C 0.63792 0.62494 0.82097 0.0
C991 C 0.76009 0.85856 0.88337 0.0
C992 C 0.57142 0.81884 0.92042 0.0
C993 C 0.51113 0.82477 0.9184 0.0
C994 C 0.49125 0.78988 0.93265 0.0
C995 C 0.5504 0.78396 0.93442 0.0
C996 C 0.55164 0.83933 0.91251 0.0
C997 C 0.51076 0.76998 0.94068 0.0
C998 C 0.67729 0.81054 0.84512 0.0
C999 C 0.61466 0.83618 0.91594 0.0
H1000 H 0.93498 0.89226 0.84096 0.0
H1001 H 0.80905 0.84014 0.83754 0.0
H1002 H 0.87577 0.89374 0.82665 0.0
H1003 H 0.86018 0.78166 0.87914 0.0
H1004 H 0.46067 0.77838 0.93823 0.0
H1005 H 0.56489 0.76807 0.94106 0.0
H1006 H 0.56781 0.86658 0.90196 0.0
H1007 H 0.49506 0.74394 0.95224 0.0
H1008 H 0.16289 0.22384 0.16306 0.0
H1009 H 0.12427 0.21471 0.08682 0.0
H1010 H 0.15987 0.17868 0.07607 0.0
H1011 H 0.2559 0.24253 0.15226 0.0
H1012 H 0.26062 0.21231 0.17599 0.0
H1013 H 0.22729 0.2314 0.1803 0.0
H1014 H 0.16675 0.16244 0.18659 0.0
H1015 H 0.19897 0.14153 0.18459 0.0
H1016 H 0.15626 0.12345 0.16463 0.0
H1017 H 0.20538 0.1509 0.07277 0.0
H1018 H 0.25618 0.1309 0.07717 0.0
H1019 H 0.26328 0.15475 0.15607 0.0
C1020 C 0.16141 0.21349 0.14424 0.0
C1021 C 0.14099 0.22185 0.12568 0.0
C1022 C 0.13966 0.20824 0.10121 0.0
C1023 C 0.15969 0.18776 0.09501 0.0
C1024 C 0.18003 0.18034 0.11365 0.0
C1025 C 0.18042 0.1921 0.13788 0.0
C1026 C 0.20589 0.18178 0.15414 0.0
C1027 C 0.23947 0.2192 0.1664 0.0
C1028 C 0.18044 0.15044 0.17364 0.0
C1029 C 0.22156 0.16446 0.13499 0.0
C1030 C 0.20572 0.16337 0.11183 0.0
C1031 C 0.21731 0.15081 0.09087 0.0
C1032 C 0.24615 0.13952 0.09355 0.0
C1033 C 0.2631 0.14081 0.11699 0.0
C1034 C 0.25004 0.15264 0.13806 0.0
H1035 H 0.08633 0.90036 0.42722 0.0
H1036 H 0.12113 0.89394 0.35177 0.0
H1037 H 0.05065 0.85 0.34059 0.0
H1038 H 1.01801 0.81016 0.43683 0.0
H1039 H 0.9776 0.81351 0.45093 0.0
H1040 H 0.02792 0.85338 0.45409 0.0
H1041 H 1.01669 0.90614 0.43513 0.0
H1042 H 0.96438 0.87023 0.43451 0.0
H1043 H 0.9892 0.89666 0.40666 0.0
H1044 H 0.97731 0.80349 0.33824 0.0
H1045 H 0.90631 0.75562 0.345 0.0
H1046 H 0.91845 0.78908 0.42256 0.0
C1047 C 0.07889 0.89034 0.40823 0.0
C1048 C 0.10908 0.90053 0.39029 0.0
C1049 C 0.0984 0.88682 0.36566 0.0
C1050 C 0.05847 0.86186 0.35918 0.0
C1051 C 0.02945 0.85165 0.37739 0.0
C1052 C 0.039 0.86615 0.4013 0.0
C1053 C 1.00203 0.84967 0.41743 0.0
C1054 C 1.00652 0.83039 0.44119 0.0
C1055 C 0.99252 0.88263 0.4238 0.0
C1056 C 0.97108 0.81988 0.3997 0.0
C1057 C 0.98722 0.82328 0.37634 0.0
C1058 C 0.96432 0.80067 0.35641 0.0
C1059 C 0.92396 0.77365 0.3604 0.0
C1060 C 0.90702 0.7684 0.38433 0.0
C1061 C 0.93087 0.79215 0.40417 0.0
H1062 H 0.85922 0.10605 0.09028 0.0
H1063 H 0.89471 0.12502 0.16761 0.0
H1064 H 0.8725 0.05392 0.17225 0.0
H1065 H 0.77313 1.00985 0.09564 0.0
H1066 H 0.78224 0.98932 0.06814 0.0
H1067 H 0.80061 0.04181 0.06993 0.0
H1068 H 0.87172 0.05709 0.06118 0.0
H1069 H 0.85401 1.00462 0.05861 0.0
H1070 H 0.89328 0.03441 0.08005 0.0
H1071 H 0.84487 0.98044 0.16919 0.0
H1072 H 0.81509 0.90965 0.15817 0.0
H1073 H 0.80089 0.93748 0.0822 0.0
C1074 C 0.86201 0.09512 0.10821 0.0
C1075 C 0.87823 0.1212 0.12871 0.0
C1076 C 0.88215 0.10579 0.15169 0.0
C1077 C 0.86964 0.06534 0.15453 0.0
C1078 C 0.8539 0.04047 0.13407 0.0
C1079 C 0.85041 0.05471 0.11125 0.0
C1080 C 0.83411 0.02157 0.09208 0.0
C1081 C 0.79516 0.0153 0.08082 0.0
C1082 C 0.86514 0.02993 0.07178 0.0
C1083 C 0.82718 0.98637 0.10799 0.0
C1084 C 0.83927 0.99809 0.13209 0.0
C1085 C 0.83556 0.97096 0.15032 0.0
C1086 C 0.81877 0.93075 0.14383 0.0
C1087 C 0.80565 0.91773 0.1193 0.0
C1088 C 0.81025 0.94624 0.10117 0.0
H1089 H 0.23915 0.11983 0.41448 0.0
H1090 H 0.2736 0.14936 0.33753 0.0
H1091 H 0.22093 0.16683 0.33189 0.0
H1092 H 0.13343 0.07227 0.40069 0.0
H1093 H 0.1212 0.08718 0.42948 0.0
H1094 H 0.16303 0.07922 0.42795 0.0
H1095 H 0.21006 0.1512 0.44407 0.0
H1096 H 0.16713 0.15711 0.4466 0.0
H1097 H 0.20913 0.19215 0.42875 0.0
H1098 H 0.16625 0.18402 0.33539 0.0
H1099 H 0.10823 0.19129 0.34616 0.0
H1100 H 0.10651 0.14555 0.41986 0.0
C1101 C 0.23549 0.13004 0.3965 0.0
C1102 C 0.26055 0.13385 0.3765 0.0
C1103 C 0.25453 0.14631 0.35304 0.0
C1104 C 0.22494 0.15653 0.34973 0.0
C1105 C 0.20088 0.1529 0.36988 0.0
C1106 C 0.20524 0.13912 0.39267 0.0
C1107 C 0.17329 0.13464 0.41065 0.0
C1108 C 0.14613 0.09072 0.41759 0.0
C1109 C 0.19106 0.16032 0.43389 0.0
C1110 C 0.15157 0.14991 0.39483 0.0
C1111 C 0.16791 0.16036 0.37139 0.0
C1112 C 0.15307 0.17574 0.35366 0.0
C1113 C 0.12036 0.18008 0.35999 0.0
C1114 C 0.10275 0.16887 0.38379 0.0
C1115 C 0.11895 0.1539 0.4014 0.0
H1116 H 0.07876 0.92313 0.17287 0.0
H1117 H 0.12057 0.94719 0.09686 0.0
H1118 H 0.05514 0.89336 0.08248 0.0
H1119 H 0.02169 0.81587 0.1661 0.0
H1120 H 0.98209 0.80957 0.18637 0.0
H1121 H 0.03175 0.8502 0.19115 0.0
H1122 H 1.00723 0.90074 0.18845 0.0
H1123 H 0.95717 0.86069 0.18406 0.0
H1124 H 0.97922 0.90057 0.16177 0.0
H1125 H 0.9833 0.8406 0.07628 0.0
H1126 H 0.91408 0.78534 0.07892 0.0
H1127 H 0.92019 0.79192 0.15918 0.0
C1128 C 0.07416 0.91679 0.15322 0.0
C1129 C 0.10468 0.93937 0.13592 0.0
C1130 C 0.0977 0.93009 0.11039 0.0
C1131 C 0.06055 0.89978 0.10207 0.0
C1132 C 0.03084 0.87861 0.11956 0.0
C1133 C 0.03749 0.88614 0.14465 0.0
C1134 C 1.00091 0.85823 0.15963 0.0
C1135 C 1.00961 0.83189 0.17682 0.0
C1136 C 0.98522 0.88146 0.17434 0.0
C1137 C 0.97248 0.83411 0.13904 0.0
C1138 C 0.99019 0.84678 0.11605 0.0
C1139 C 0.96942 0.83009 0.0942 0.0
C1140 C 0.93009 0.79873 0.09588 0.0
C1141 C 0.91202 0.78379 0.11921 0.0
C1142 C 0.93328 0.80247 0.14106 0.0
H1143 H 0.81498 0.9312 0.42797 0.0
H1144 H 0.81072 0.90554 0.34943 0.0
H1145 H 0.84597 0.97749 0.34019 0.0
H1146 H 0.79457 1.00558 0.42444 0.0
H1147 H 0.82884 0.03813 0.44778 0.0
H1148 H 0.8099 0.9855 0.44939 0.0
H1149 H 0.8803 0.99536 0.44934 0.0
H1150 H 0.90034 0.04841 0.44885 0.0
H1151 H 0.91499 0.0251 0.42549 0.0
H1152 H 0.87781 0.05198 0.33937 0.0
H1153 H 0.9001 0.12281 0.34673 0.0
H1154 H 0.88014 0.09958 0.42564 0.0
C1155 C 0.8219 0.94081 0.40886 0.0
C1156 C 0.8101 0.91286 0.3894 0.0
C1157 C 0.81982 0.92649 0.36463 0.0
C1158 C 0.83989 0.96727 0.35921 0.0
C1159 C 0.85062 0.99406 0.37881 0.0
C1160 C 0.84236 0.9814 0.40316 0.0
C1161 C 0.855 0.01613 0.42067 0.0
C1162 C 0.81995 1.01108 0.4365 0.0
C1163 C 0.88972 0.02155 0.43705 0.0
C1164 C 0.86857 0.04993 0.40224 0.0
C1165 C 0.86736 0.0368 0.37827 0.0
C1166 C 0.87897 0.06261 0.35806 0.0
C1167 C 0.89158 0.10278 0.36242 0.0
C1168 C 0.8914 0.11651 0.3867 0.0
C1169 C 0.8802 0.08976 0.40685 0.0
H1170 H 0.17701 0.11752 0.67032 0.0
H1171 H 0.19955 0.10243 0.59345 0.0
H1172 H 0.18716 0.15689 0.5814 0.0
H1173 H 0.09776 0.13695 0.65975 0.0
H1174 H 0.11264 0.17356 0.68399 0.0
H1175 H 0.12456 0.13444 0.68632 0.0
H1176 H 0.19823 0.18746 0.69192 0.0
H1177 H 0.1873 0.22719 0.68849 0.0
H1178 H 0.22307 0.22471 0.6684 0.0
H1179 H 0.16562 0.20834 0.5774 0.0
H1180 H 0.14764 0.26068 0.58228 0.0
H1181 H 0.14191 0.2445 0.66201 0.0
C1182 C 0.17979 0.126 0.65097 0.0
C1183 C 0.18923 0.10567 0.63277 0.0
C1184 C 0.1928 0.11782 0.6077 0.0
C1185 C 0.18542 0.14844 0.60068 0.0
C1186 C 0.17489 0.16692 0.61899 0.0
C1187 C 0.17283 0.15667 0.6437 0.0
C1188 C 0.1612 0.18136 0.65977 0.0
C1189 C 0.12168 0.15497 0.67324 0.0
C1190 C 0.19442 0.20671 0.67824 0.0
C1191 C 0.15666 0.20692 0.64024 0.0
C1192 C 0.1642 0.19773 0.61681 0.0
C1193 C 0.16036 0.2162 0.59569 0.0
C1194 C 0.15013 0.24588 0.59864 0.0
C1195 C 0.14423 0.25721 0.62252 0.0
C1196 C 0.14655 0.23668 0.64353 0.0
H1197 H 0.12533 0.87817 0.84997 0.0
H1198 H 0.12629 0.87123 0.9302 0.0
H1199 H 0.05589 0.85368 0.93149 0.0
H1200 H 0.06441 0.92374 0.84668 0.0
H1201 H 0.03828 0.89696 0.81927 0.0
H1202 H 0.08823 0.90731 0.82476 0.0
H1203 H 0.06466 0.83226 0.82125 0.0
H1204 H 1.01447 0.82152 0.816 0.0
H1205 H 0.02514 0.79741 0.84099 0.0
H1206 H 0.98469 0.83621 0.92401 0.0
H1207 H 0.92067 0.82722 0.90859 0.0
H1208 H 0.96665 0.84847 0.83348 0.0
C1209 C 0.11077 0.87325 0.86781 0.0
C1210 C 0.13115 0.87546 0.88999 0.0
C1211 C 0.11105 0.86892 0.91294 0.0
C1212 C 0.07104 0.85897 0.91387 0.0
C1213 C 0.05149 0.85611 0.89167 0.0
C1214 C 0.07081 0.86356 0.86908 0.0
C1215 C 0.04332 0.85982 0.84801 0.0
C1216 C 0.05953 0.89931 0.83385 0.0
C1217 C 0.03649 0.82573 0.83053 0.0
C1218 C 1.00583 0.84996 0.8623 0.0
C1219 C 1.01092 0.84722 0.88743 0.0
C1220 C 0.98039 0.83832 0.90436 0.0
C1221 C 0.94404 0.833 0.89545 0.0
C1222 C 0.93866 0.83716 0.86988 0.0
C1223 C 0.96994 0.84524 0.85315 0.0
H1224 H 0.79294 0.91404 0.66303 0.0
H1225 H 0.7826 0.91091 0.58289 0.0
H1226 H 0.83383 0.9817 0.58072 0.0
H1227 H 0.80769 1.01309 0.67047 0.0
H1228 H 0.84286 0.02616 0.69543 0.0
H1229 H 0.80509 0.97508 0.69087 0.0
H1230 H 0.85896 0.95438 0.68783 0.0
H1231 H 0.89659 1.00525 0.693 0.0
H1232 H 0.89911 0.97946 0.66592 0.0
H1233 H 0.88693 0.05302 0.58712 0.0
H1234 H 0.94052 0.11831 0.60157 0.0
H1235 H 0.91645 0.07577 0.67754 0.0
C1236 C 0.8017 0.92824 0.64505 0.0
C1237 C 0.7834 0.90705 0.62314 0.0
C1238 C 0.79571 0.9267 0.59995 0.0
C1239 C 0.82488 0.96693 0.59851 0.0
C1240 C 0.84175 0.98727 0.62044 0.0
C1241 C 0.83084 0.96857 0.64327 0.0
C1242 C 0.85385 0.99731 0.66398 0.0
C1243 C 0.8257 1.00326 0.68121 0.0
C1244 C 0.87859 0.98323 0.67853 0.0
C1245 C 0.88014 0.03468 0.64918 0.0
C1246 C 0.87233 0.02839 0.62412 0.0
C1247 C 0.89322 0.05834 0.60673 0.0
C1248 C 0.92347 0.09546 0.61512 0.0
C1249 C 0.93285 0.10232 0.64067 0.0
C1250 C 0.9103 0.07149 0.65786 0.0
H1251 H 0.16115 0.24418 0.86268 0.0
H1252 H 0.15234 0.24458 0.94277 0.0
H1253 H 0.17417 0.19485 0.94569 0.0
H1254 H 0.12827 0.13707 0.85697 0.0
H1255 H 0.16207 0.14478 0.8319 0.0
H1256 H 0.14245 0.17786 0.83573 0.0
H1257 H 0.21459 0.23981 0.8386 0.0
H1258 H 0.23178 0.20541 0.83221 0.0
H1259 H 0.24938 0.23638 0.85921 0.0
H1260 H 0.201 0.14835 0.94013 0.0
H1261 H 0.23343 0.11045 0.92646 0.0
H1262 H 0.22713 0.14165 0.85014 0.0
C1263 C 0.16312 0.23314 0.88076 0.0
C1264 C 0.15511 0.24814 0.90254 0.0
C1265 C 0.15855 0.23354 0.9259 0.0
C1266 C 0.17074 0.20518 0.92772 0.0
C1267 C 0.17933 0.19159 0.90597 0.0
C1268 C 0.17569 0.20506 0.8829 0.0
C1269 C 0.18857 0.18698 0.8625 0.0
C1270 C 0.15323 0.16007 0.84579 0.0
C1271 C 0.22309 0.21913 0.84723 0.0
C1272 C 0.20181 0.16283 0.87778 0.0
C1273 C 0.19532 0.16515 0.90277 0.0
C1274 C 0.20596 0.14609 0.9206 0.0
C1275 C 0.22429 0.12465 0.91272 0.0
C1276 C 0.23247 0.12312 0.88734 0.0
C1277 C 0.22081 0.14219 0.86965 0.0
H1278 H 0.13125 0.89293 0.65719 0.0
H1279 H 0.1474 0.90437 0.57744 0.0
H1280 H 0.07719 0.8865 0.57231 0.0
H1281 H 0.02993 0.8096 0.6574 0.0
H1282 H 1.01612 0.82865 0.6836 0.0
H1283 H 0.06689 0.8403 0.67991 0.0
H1284 H 0.08795 0.91528 0.68266 0.0
H1285 H 0.0368 0.90244 0.68541 0.0
H1286 H 0.06692 0.93536 0.661 0.0
H1287 H 1.0042 0.86514 0.57585 0.0
H1288 H 0.93714 0.85177 0.58824 0.0
H1289 H 0.96955 0.85702 0.66557 0.0
C1290 C 0.12009 0.89208 0.63867 0.0
C1291 C 0.14461 0.89956 0.61764 0.0
C1292 C 0.12896 0.8983 0.59375 0.0
C1293 C 0.0891 0.88805 0.59066 0.0
C1294 C 0.0653 0.87948 0.61169 0.0
C1295 C 0.08038 0.88205 0.63527 0.0
C1296 C 0.04887 0.87287 0.65483 0.0
C1297 C 0.03999 0.83566 0.66982 0.0
C1298 C 0.06091 0.90867 0.67197 0.0
C1299 C 1.01398 0.86525 0.63859 0.0
C1300 C 0.02377 0.86842 0.61374 0.0
C1301 C 0.99625 0.86266 0.59527 0.0
C1302 C 0.95818 0.85477 0.60242 0.0
C1303 C 0.94828 0.85329 0.6278 0.0
C1304 C 0.97639 0.8579 0.64602 0.0
H1305 H 0.94852 0.05886 0.92983 0.0
H1306 H 0.9586 0.10485 0.8552 0.0
H1307 H 0.90211 0.04031 0.84207 0.0
H1308 H 0.91994 0.95605 0.91102 0.0
H1309 H 0.88691 0.93493 0.93713 0.0
H1310 H 0.93043 0.98338 0.93965 0.0
H1311 H 0.88599 1.01055 0.95379 0.0
H1312 H 0.84081 0.96411 0.94937 0.0
H1313 H 0.84844 1.0084 0.93345 0.0
H1314 H 0.84578 0.97013 0.83696 0.0
H1315 H 0.78888 0.90216 0.84114 0.0
H1316 H 0.81176 0.90412 0.91995 0.0
C1317 C 0.93932 0.05517 0.9106 0.0
C1318 C 0.95808 0.08685 0.89349 0.0
C1319 C 0.94449 0.08109 0.86866 0.0
C1320 C 0.91269 0.04445 0.86099 0.0
C1321 C 0.89483 1.01392 0.87839 0.0
C1322 C 0.90765 0.0189 0.90268 0.0
C1323 C 0.88209 0.98212 0.91804 0.0
C1324 C 0.90629 0.963 0.92698 0.0
C1325 C 0.8631 0.99179 0.93996 0.0
C1326 C 0.85169 0.95625 0.89885 0.0
C1327 C 0.86049 0.97463 0.8759 0.0
C1328 C 0.83831 0.95566 0.85489 0.0
C1329 C 0.80607 0.91706 0.85744 0.0
C1330 C 0.79557 0.8983 0.88093 0.0
C1331 C 0.8188 0.91814 0.90186 0.0
H1332 H 0.33199 0.1504 0.30552 0.0
H1333 H 0.44488 0.157 0.3193 0.0
H1334 H 0.46055 0.16793 0.27427 0.0
H1335 H 0.30696 0.09967 0.24864 0.0
H1336 H 0.28679 0.12842 0.23567 0.0
H1337 H 0.28701 0.12243 0.26875 0.0
H1338 H 0.32453 0.19952 0.27265 0.0
H1339 H 0.32562 0.2046 0.23937 0.0
H1340 H 0.3712 0.22847 0.2568 0.0
H1341 H 0.46011 0.17124 0.22683 0.0
H1342 H 0.44439 0.16786 0.18215 0.0
H1343 H 0.33351 0.1631 0.19996 0.0
C1344 C 0.36018 0.1545 0.29903 0.0
C1345 C 0.38728 0.15273 0.31576 0.0
C1346 C 0.42395 0.15856 0.30674 0.0
C1347 C 0.43296 0.16467 0.28123 0.0
C1348 C 0.40535 0.16584 0.26513 0.0
C1349 C 0.36991 0.16147 0.27381 0.0
C1350 C 0.34524 0.164 0.25285 0.0
C1351 C 0.3041 0.12639 0.25143 0.0
C1352 C 0.34143 0.20137 0.25558 0.0
C1353 C 0.37093 0.16755 0.23075 0.0
C1354 C 0.40586 0.16938 0.23818 0.0
C1355 C 0.43322 0.17062 0.22089 0.0
C1356 C 0.42426 0.16906 0.19547 0.0
C1357 C 0.38809 0.16586 0.18755 0.0
C1358 C 0.36165 0.16608 0.20549 0.0
H1359 H 0.86067 0.70029 0.3111 0.0
H1360 H 0.75044 0.59036 0.32289 0.0
H1361 H 0.74347 0.579 0.27742 0.0
H1362 H 0.83719 0.73515 0.26196 0.0
H1363 H 0.88118 0.75273 0.24325 0.0
H1364 H 0.88403 0.75001 0.27643 0.0
H1365 H 0.91441 0.70519 0.27447 0.0
H1366 H 0.91574 0.70952 0.24113 0.0
H1367 H 0.8919 0.66118 0.25551 0.0
H1368 H 0.74596 0.583 0.23039 0.0
H1369 H 0.75788 0.60145 0.18588 0.0
H1370 H 0.86564 0.70984 0.20496 0.0
C1371 C 0.83569 0.67329 0.30405 0.0
C1372 C 0.80611 0.64598 0.32033 0.0
C1373 C 0.7736 0.61119 0.31064 0.0
C1374 C 0.76941 0.60466 0.28487 0.0
C1375 C 0.79852 0.63278 0.26919 0.0
C1376 C 0.83154 0.666 0.27847 0.0
C1377 C 0.85791 0.69235 0.25769 0.0
C1378 C 0.86546 0.73504 0.25993 0.0
C1379 C 0.89732 0.69203 0.25717 0.0
C1380 C 0.83271 0.67079 0.23531 0.0
C1381 C 0.79935 0.63571 0.24226 0.0
C1382 C 0.77209 0.61025 0.22476 0.0
C1383 C 0.77907 0.62086 0.19956 0.0
C1384 C 0.81246 0.65703 0.19217 0.0
C1385 C 0.83967 0.68217 0.21026 0.0
H1386 H 0.88438 0.26873 0.2099 0.0
H1387 H 0.86358 0.1502 0.19549 0.0
H1388 H 0.84926 0.13345 0.23984 0.0
H1389 H 0.93582 0.28385 0.26509 0.0
H1390 H 0.91565 0.31036 0.28117 0.0
H1391 H 0.91787 0.31129 0.2478 0.0
H1392 H 0.84228 0.28485 0.2459 0.0
H1393 H 0.83988 0.28362 0.27932 0.0
H1394 H 0.80871 0.23938 0.26173 0.0
H1395 H 0.84452 0.13123 0.28541 0.0
H1396 H 0.85431 0.1448 0.33011 0.0
H1397 H 0.87963 0.26533 0.3174 0.0
C1398 C 0.87564 0.23897 0.21613 0.0
C1399 C 0.87449 0.21041 0.19928 0.0
C1400 C 0.8644 0.17226 0.20809 0.0
C1401 C 0.85598 0.16247 0.23323 0.0
C1402 C 0.85797 0.19126 0.24953 0.0
C1403 C 0.8676 0.22882 0.24146 0.0
C1404 C 0.87123 0.25512 0.26346 0.0
C1405 C 0.9126 0.29239 0.26443 0.0
C1406 C 0.83857 0.26641 0.26254 0.0
C1407 C 0.86453 0.22715 0.28511 0.0
C1408 C 0.85566 0.19012 0.27643 0.0
C1409 C 0.85052 0.15978 0.29245 0.0
C1410 C 0.85576 0.16764 0.31792 0.0
C1411 C 0.86599 0.20551 0.32742 0.0
C1412 C 0.86989 0.23555 0.31078 0.0
H1413 H 0.16758 0.41308 0.71245 0.0
H1414 H 0.16946 0.30479 0.69613 0.0
H1415 H 0.17901 0.29664 0.74047 0.0
H1416 H 0.24059 0.4463 0.76495 0.0
H1417 H 0.21424 0.46464 0.78317 0.0
H1418 H 0.21233 0.46551 0.74977 0.0
H1419 H 0.13458 0.42355 0.75073 0.0
H1420 H 0.13824 0.42621 0.78404 0.0
H1421 H 0.11171 0.37866 0.76915 0.0
H1422 H 0.18129 0.29558 0.78612 0.0
H1423 H 0.17457 0.30067 0.83112 0.0
H1424 H 0.17027 0.40909 0.82039 0.0
C1425 C 0.17129 0.38844 0.71827 0.0
C1426 C 0.16863 0.35992 0.70078 0.0
C1427 C 0.17192 0.32715 0.70914 0.0
C1428 C 0.17738 0.32231 0.73431 0.0
C1429 C 0.17914 0.3503 0.75119 0.0
C1430 C 0.17617 0.38276 0.74368 0.0
C1431 C 0.17616 0.40658 0.76622 0.0
C1432 C 0.21303 0.44824 0.76601 0.0
C1433 C 0.13789 0.40891 0.76754 0.0
C1434 C 0.17802 0.38154 0.78741 0.0
C1435 C 0.18038 0.34961 0.77811 0.0
C1436 C 0.17999 0.32074 0.79361 0.0
C1437 C 0.17615 0.32389 0.8192 0.0
C1438 C 0.17253 0.35557 0.82936 0.0
C1439 C 0.17417 0.38522 0.81324 0.0
H1440 H 0.18063 0.85429 0.80842 0.0
H1441 H 0.29119 0.85755 0.8248 0.0
H1442 H 0.30377 0.85649 0.77978 0.0
H1443 H 0.15784 0.78988 0.74978 0.0
H1444 H 0.13557 0.81593 0.7354 0.0
H1445 H 0.13222 0.80842 0.76852 0.0
H1446 H 0.16141 0.88301 0.77415 0.0
H1447 H 0.1688 0.89294 0.74148 0.0
H1448 H 0.21029 0.91689 0.76274 0.0
H1449 H 0.30758 0.86308 0.7327 0.0
H1450 H 0.30172 0.87536 0.68811 0.0
H1451 H 0.18991 0.87059 0.70303 0.0
C1452 C 0.20672 0.85329 0.80243 0.0
C1453 C 0.23493 0.85585 0.81988 0.0
C1454 C 0.26904 0.85504 0.8116 0.0
C1455 C 0.27642 0.85455 0.78609 0.0
C1456 C 0.24882 0.85382 0.7692 0.0
C1457 C 0.21411 0.85209 0.77709 0.0
C1458 C 0.19063 0.85442 0.75539 0.0
C1459 C 0.15177 0.8148 0.75208 0.0
C1460 C 0.18237 0.88894 0.75857 0.0
C1461 C 0.21912 0.86133 0.73424 0.0
C1462 C 0.25182 0.85935 0.7424 0.0
C1463 C 0.28193 0.86432 0.72611 0.0
C1464 C 0.27842 0.87127 0.70086 0.0
C1465 C 0.24561 0.8742 0.69229 0.0
C1466 C 0.21558 0.86898 0.70922 0.0
H1467 H 0.62261 0.77011 0.70209 0.0
H1468 H 0.73197 0.88103 0.69052 0.0
H1469 H 0.7336 0.89727 0.73476 0.0
H1470 H 0.58384 0.80928 0.7564 0.0
H1471 H 0.56335 0.76191 0.77188 0.0
H1472 H 0.5644 0.76432 0.73845 0.0
H1473 H 0.5976 0.72323 0.73938 0.0
H1474 H 0.60639 0.72492 0.77224 0.0
H1475 H 0.64729 0.74397 0.7505 0.0
H1476 H 0.73017 0.89765 0.7796 0.0
H1477 H 0.72557 0.88041 0.82352 0.0
H1478 H 0.61981 0.76739 0.80937 0.0
C1479 C 0.64571 0.79859 0.70882 0.0
C1480 C 0.67674 0.8249 0.69288 0.0
C1481 C 0.7077 0.86094 0.7024 0.0
C1482 C 0.70869 0.87048 0.72748 0.0
C1483 C 0.67845 0.84364 0.74298 0.0
C1484 C 0.64721 0.80853 0.73413 0.0
C1485 C 0.62202 0.78258 0.75563 0.0
C1486 C 0.58096 0.77934 0.75558 0.0
C1487 C 0.6181 0.74122 0.75451 0.0
C1488 C 0.64631 0.80695 0.77784 0.0
C1489 C 0.67744 0.84289 0.76984 0.0
C1490 C 0.70533 0.87012 0.78618 0.0
C1491 C 0.7022 0.8602 0.81127 0.0
C1492 C 0.67138 0.82337 0.82025 0.0
C1493 C 0.64258 0.79651 0.80328 0.0
H1494 H 0.32561 0.95889 0.95968 0.0
H1495 H 0.20105 0.92447 0.95838 0.0
H1496 H 0.21171 0.96979 0.99323 0.0
H1497 H 0.33607 0.96952 0.02925 0.0
H1498 H 0.38568 1.01139 0.02733 0.0
H1499 H 0.36771 0.97377 1.00359 0.0
H1500 H 0.38517 0.02822 0.97059 0.0
H1501 H 0.40179 0.06601 0.99416 0.0
H1502 H 0.36363 0.05988 0.97266 0.0
H1503 H 0.23592 0.02259 0.02506 0.0
H1504 H 0.26994 0.0718 0.05808 0.0
H1505 H 0.37959 0.07274 0.04161 0.0
C1506 C 0.3004 0.95976 0.96751 0.0
C1507 C 0.26215 0.93733 0.95672 0.0
C1508 C 0.23025 0.9406 0.96673 0.0
C1509 C 0.23615 0.96665 0.98635 0.0
C1510 C 0.27426 0.98941 0.99599 0.0
C1511 C 0.30575 0.9856 0.98749 0.0
C1512 C 0.34362 1.01404 1.00148 0.0
C1513 C 0.35919 0.99079 0.01629 0.0
C1514 C 0.37543 0.04381 0.98365 0.0
C1515 C 0.3285 0.03476 0.01873 0.0
C1516 C 0.28839 0.0201 0.01492 0.0
C1517 C 0.26724 0.03409 0.02832 0.0
C1518 C 0.28695 0.0624 0.0469 0.0
C1519 C 0.32753 0.07671 0.0522 0.0
C1520 C 0.34887 0.06326 0.03753 0.0
H1521 H 0.74618 0.72588 0.44586 0.0
H1522 H 0.79558 0.6592 0.48068 0.0
H1523 H 0.77523 0.67185 0.52162 0.0
H1524 H 0.76999 0.79865 0.49262 0.0
H1525 H 0.72431 0.79954 0.4892 0.0
H1526 H 0.74448 0.78609 0.46332 0.0
H1527 H 0.67738 0.72016 0.45929 0.0
H1528 H 0.65794 0.73329 0.48575 0.0
H1529 H 0.65834 0.68707 0.48555 0.0
H1530 H 0.7586 0.70065 0.55843 0.0
H1531 H 0.73851 0.73375 0.58868 0.0
H1532 H 0.68481 0.7686 0.53084 0.0
C1533 C 0.752 0.71284 0.46186 0.0
C1534 C 0.77248 0.69102 0.45964 0.0
C1535 C 0.78024 0.67599 0.48156 0.0
C1536 C 0.76859 0.68296 0.50495 0.0
C1537 C 0.74819 0.70415 0.50621 0.0
C1538 C 0.73929 0.71824 0.4852 0.0
C1539 C 0.71658 0.73975 0.49165 0.0
C1540 C 0.74023 0.78361 0.48373 0.0
C1541 C 0.67508 0.71881 0.47986 0.0
C1542 C 0.71422 0.73586 0.51979 0.0
C1543 C 0.73363 0.71601 0.52762 0.0
C1544 C 0.74132 0.71404 0.55252 0.0
C1545 C 0.72883 0.73238 0.56979 0.0
C1546 C 0.7064 0.75066 0.56287 0.0
C1547 C 0.69918 0.75251 0.53721 0.0
H1548 H 0.07963 0.27973 0.97235 0.0
H1549 H 0.09426 0.39633 0.95945 0.0
H1550 H 0.04761 0.38538 0.99411 0.0
H1551 H 0.978 0.22906 0.98716 0.0
H1552 H 0.98151 0.1989 0.01134 0.0
H1553 H 1.01693 0.21668 0.98631 0.0
H1554 H 0.07493 0.24962 0.01771 0.0
H1555 H 0.0397 0.23125 0.04286 0.0
H1556 H 0.07498 0.28357 0.04051 0.0
H1557 H 0.99338 0.35763 0.02858 0.0
H1558 H 0.9466 0.32132 0.06297 0.0
H1559 H 0.97204 0.22527 0.05495 0.0
C1560 C 0.0736 0.30329 0.97716 0.0
C1561 C 0.09083 0.33908 0.96331 0.0
C1562 C 0.08199 0.36904 0.97006 0.0
C1563 C 0.05515 0.36281 0.98957 0.0
C1564 C 0.03792 0.32671 1.00251 0.0
C1565 C 0.04771 0.29791 0.99689 0.0
C1566 C 0.02605 0.26205 0.01379 0.0
C1567 C 0.99903 0.22446 0.99875 0.0
C1568 C 0.05568 0.25629 0.02966 0.0
C1569 C 1.00186 0.27461 0.02959 0.0
C1570 C 1.00861 0.31178 0.02267 0.0
C1571 C 0.98833 0.32872 0.0342 0.0
C1572 C 0.96142 0.30769 0.05357 0.0
C1573 C 0.95545 0.27037 0.06164 0.0
C1574 C 0.97587 0.25371 0.04923 0.0
H1575 H 0.29128 0.02573 0.44631 0.0
H1576 H 0.40091 0.12974 0.46898 0.0
H1577 H 0.39738 0.09705 0.50914 0.0
H1578 H 0.24125 1.00299 0.50347 0.0
H1579 H 0.21887 0.94988 0.50046 0.0
H1580 H 0.23128 0.98047 0.47315 0.0
H1581 H 0.27674 0.95281 0.45662 0.0
H1582 H 0.26007 0.92019 0.48322 0.0
H1583 H 0.31236 0.95194 0.47735 0.0
H1584 H 0.3827 0.05172 0.54635 0.0
H1585 H 0.35348 1.00291 0.58013 0.0
H1586 H 0.25086 0.92943 0.53456 0.0
C1587 C 0.3148 0.04168 0.45959 0.0
C1588 C 0.34663 0.08043 0.45424 0.0
C1589 C 0.37622 0.10025 0.4725 0.0
C1590 C 0.3746 0.08169 0.49531 0.0
C1591 C 0.34317 0.04324 0.49969 0.0
C1592 C 0.31361 0.02362 0.4824 0.0
C1593 C 0.28244 0.98291 0.49192 0.0
C1594 C 0.24101 0.97885 0.49228 0.0
C1595 C 0.28284 0.94996 0.47637 0.0
C1596 C 0.29775 0.98345 0.51791 0.0
C1597 C 0.33361 0.01799 0.52159 0.0
C1598 C 0.35438 0.02498 0.54372 0.0
C1599 C 0.33738 0.99703 0.56291 0.0
C1600 C 0.29941 0.96267 0.56039 0.0
C1601 C 0.27992 0.95522 0.53717 0.0
H1602 H 0.74312 0.72096 0.06563 0.0
H1603 H 0.80279 0.66216 0.0335 0.0
H1604 H 0.78504 0.67433 0.99171 0.0
H1605 H 0.66051 0.68205 0.02143 0.0
H1606 H 0.65839 0.72737 0.02104 0.0
H1607 H 0.67497 0.7134 0.0485 0.0
H1608 H 0.74104 0.78084 0.04777 0.0
H1609 H 0.72372 0.79499 0.02078 0.0
H1610 H 0.77058 0.79599 0.01996 0.0
H1611 H 0.76833 0.70015 0.95392 0.0
H1612 H 0.74739 0.72998 0.92199 0.0
H1613 H 0.68941 0.76453 0.9776 0.0
C1614 C 0.75188 0.70975 0.04996 0.0
C1615 C 0.77453 0.69038 0.05316 0.0
C1616 C 0.78564 0.67704 0.03181 0.0
C1617 C 0.77561 0.68383 1.00794 0.0
C1618 C 0.75375 0.70335 1.00561 0.0
C1619 C 0.74141 0.71554 0.02604 0.0
C1620 C 0.71847 0.73623 0.01831 0.0
C1621 C 0.67552 0.71339 0.02789 0.0
C1622 C 0.73971 0.77959 0.02723 0.0
C1623 C 0.72012 0.73413 0.99022 0.0
C1624 C 0.74128 0.71559 0.9835 0.0
C1625 C 0.7508 0.71368 0.95897 0.0
C1626 C 0.7386 0.73104 0.94085 0.0
C1627 C 0.71563 0.74929 0.94673 0.0
C1628 C 0.70601 0.75037 0.97201 0.0
H1629 H 0.05502 0.35611 0.56306 0.0
H1630 H 0.13826 0.31542 0.54744 0.0
H1631 H 0.10276 0.28524 0.50838 0.0
H1632 H 0.96913 0.27222 0.54167 0.0
H1633 H 0.94657 0.29819 0.52752 0.0
H1634 H 0.98038 0.32034 0.5531 0.0
H1635 H 0.02424 0.38289 0.52674 0.0
H1636 H 0.99017 0.36128 0.50119 0.0
H1637 H 0.04206 0.37755 0.49692 0.0
H1638 H 0.05271 0.2506 0.47513 0.0
H1639 H 0.99948 0.22424 0.44454 0.0
H1640 H 0.94941 0.29133 0.47783 0.0
C1641 C 0.06631 0.3417 0.55107 0.0
C1642 C 0.0999 0.3386 0.55821 0.0
C1643 C 0.1135 0.31922 0.54211 0.0
C1644 C 0.09308 0.30148 0.52003 0.0
C1645 C 0.05932 0.30382 0.51401 0.0
C1646 C 0.04658 0.3244 0.52864 0.0
C1647 C 1.00909 0.32196 0.51778 0.0
C1648 C 0.97424 0.30199 0.53612 0.0
C1649 C 1.01686 0.36339 0.51021 0.0
C1650 C 1.00214 0.29587 0.49509 0.0
C1651 C 0.03144 0.28558 0.49364 0.0
C1652 C 0.03049 0.25962 0.47562 0.0
C1653 C 0.9999 0.24491 0.45809 0.0
C1654 C 0.97065 0.25669 0.45783 0.0
C1655 C 0.97146 0.28208 0.47709 0.0
H1656 H 0.61602 0.12604 0.07674 0.0
H1657 H 0.67927 0.23464 0.11969 0.0
H1658 H 0.6158 0.22401 0.13638 0.0
H1659 H 0.53799 0.14156 0.05857 0.0
H1660 H 0.49983 0.09006 0.06013 0.0
H1661 H 0.5504 0.10305 0.05399 0.0
H1662 H 0.54849 0.06034 0.09146 0.0
H1663 H 0.4979 0.04747 0.09783 0.0
H1664 H 0.53509 0.0698 0.12167 0.0
H1665 H 0.54606 0.20654 0.14478 0.0
H1666 H 0.47444 0.18365 0.14375 0.0
H1667 H 0.45466 0.08636 0.09565 0.0
C1668 C 0.61667 0.14753 0.08978 0.0
C1669 C 0.6531 0.18108 0.09701 0.0
C1670 C 0.6522 0.20821 0.11423 0.0
C1671 C 0.61615 0.20254 0.12376 0.0
C1672 C 0.58097 0.16954 0.116 0.0
C1673 C 0.58084 0.14242 0.09941 0.0
C1674 C 0.53864 0.11112 0.09271 0.0
C1675 C 0.5313 0.1115 0.06469 0.0
C1676 C 0.5295 0.06973 0.10144 0.0
C1677 C 0.51514 0.12561 0.10755 0.0
C1678 C 0.54026 0.15907 0.12112 0.0
C1679 C 0.52604 0.17973 0.13484 0.0
C1680 C 0.48523 0.16624 0.13443 0.0
C1681 C 0.45899 0.13221 0.12068 0.0
C1682 C 0.47405 0.11151 0.10713 0.0
H1683 H 0.66277 0.58068 0.37952 0.0
H1684 H 0.74078 0.5628 0.42839 0.0
H1685 H 0.68736 0.49494 0.43742 0.0
H1686 H 0.57402 0.52535 0.41939 0.0
H1687 H 0.54049 0.50512 0.39348 0.0
H1688 H 0.58496 0.55266 0.39072 0.0
H1689 H 0.60596 0.52803 0.35227 0.0
H1690 H 0.56178 0.48011 0.35488 0.0
H1691 H 0.60988 0.48379 0.35456 0.0
H1692 H 0.62725 0.42742 0.43899 0.0
H1693 H 0.56063 0.36754 0.43815 0.0
H1694 H 0.51839 0.42936 0.39114 0.0
C1695 C 0.66824 0.56275 0.39248 0.0
C1696 C 0.70644 0.57672 0.40272 0.0
C1697 C 0.71237 0.55227 0.4196 0.0
C1698 C 0.68202 0.51367 0.42499 0.0
C1699 C 0.64524 0.50006 0.41385 0.0
C1700 C 0.63776 0.52409 0.39846 0.0
C1701 C 0.59499 0.50207 0.38953 0.0
C1702 C 0.57227 0.52251 0.39885 0.0
C1703 C 0.59306 0.49828 0.36112 0.0
C1704 C 0.58004 0.46194 0.402 0.0
C1705 C 0.60974 0.46141 0.41573 0.0
C1706 C 0.6036 0.42754 0.42849 0.0
C1707 C 0.56578 0.39355 0.42775 0.0
C1708 C 0.53437 0.39376 0.41462 0.0
C1709 C 0.54183 0.42841 0.40142 0.0
H1710 H 0.86012 0.3141 0.14435 0.0
H1711 H 0.973 0.36859 0.10562 0.0
H1712 H 0.96449 0.42618 0.09501 0.0
H1713 H 0.80926 0.34216 0.10202 0.0
H1714 H 0.78129 0.35042 0.12561 0.0
H1715 H 0.79767 0.31508 0.13084 0.0
H1716 H 0.83331 0.35195 0.17111 0.0
H1717 H 0.81693 0.38738 0.1661 0.0
H1718 H 0.86904 0.40429 0.16988 0.0
H1719 H 0.94043 0.47677 0.087 0.0
H1720 H 0.90472 0.51432 0.08287 0.0
H1721 H 0.8095 0.42647 0.12878 0.0
C1722 C 0.88335 0.3382 0.13378 0.0
C1723 C 0.91731 0.33672 0.12583 0.0
C1724 C 0.94681 0.36904 0.11201 0.0
C1725 C 0.94215 0.40185 0.10588 0.0
C1726 C 0.90795 0.40202 0.11384 0.0
C1727 C 0.87925 0.37097 0.12764 0.0
C1728 C 0.84481 0.37739 0.13369 0.0
C1729 C 0.80598 0.34431 0.12236 0.0
C1730 C 0.84081 0.38044 0.16187 0.0
C1731 C 0.85823 0.41687 0.12101 0.0
C1732 C 0.89466 0.43077 0.10962 0.0
C1733 C 0.91209 0.46619 0.0961 0.0
C1734 C 0.89162 0.48756 0.09401 0.0
C1735 C 0.854 0.47363 0.10541 0.0
C1736 C 0.83776 0.43799 0.1194 0.0
H1737 H 0.47553 0.16425 0.41995 0.0
H1738 H 0.44312 0.07433 0.36312 0.0
H1739 H 0.51228 0.08648 0.36329 0.0
H1740 H 0.56695 0.23212 0.39547 0.0
H1741 H 0.59134 0.24931 0.42497 0.0
H1742 H 0.53865 0.22963 0.42259 0.0
H1743 H 0.52634 0.17787 0.45683 0.0
H1744 H 0.57911 0.19773 0.4596 0.0
H1745 H 0.54699 0.14561 0.45344 0.0
H1746 H 0.58839 0.11474 0.36725 0.0
H1747 H 0.66067 0.15336 0.37523 0.0
H1748 H 0.6411 0.22453 0.42926 0.0
C1749 C 0.48256 0.14646 0.40776 0.0
C1750 C 0.45368 0.11829 0.39145 0.0
C1751 C 0.46446 0.09577 0.37594 0.0
C1752 C 0.50381 0.10271 0.37584 0.0
C1753 C 0.53188 0.13198 0.39152 0.0
C1754 C 0.52135 0.15308 0.40739 0.0
C1755 C 0.55688 0.18448 0.42149 0.0
C1756 C 0.56385 0.22634 0.41578 0.0
C1757 C 0.55204 0.17589 0.4495 0.0
C1758 C 0.58957 0.17862 0.41077 0.0
C1759 C 0.57475 0.14804 0.39367 0.0
C1760 C 0.6 0.13836 0.38085 0.0
C1761 C 0.64114 0.16044 0.38558 0.0
C1762 C 0.65696 0.19219 0.40291 0.0
C1763 C 0.63038 0.20087 0.41572 0.0
H1764 H 0.53117 0.44248 0.08969 0.0
H1765 H 0.5748 0.36217 0.10934 0.0
H1766 H 0.63633 0.41889 0.12435 0.0
H1767 H 0.62362 0.51644 0.064 0.0
H1768 H 0.6183 0.55783 0.07401 0.0
H1769 H 0.57488 0.51056 0.06779 0.0
H1770 H 0.54865 0.51022 0.11202 0.0
H1771 H 0.59219 0.55744 0.1183 0.0
H1772 H 0.57938 0.5157 0.13844 0.0
H1773 H 0.69419 0.48384 0.13644 0.0
H1774 H 0.74755 0.55265 0.14049 0.0
H1775 H 0.67224 0.5937 0.10773 0.0
C1776 C 0.55339 0.43618 0.09687 0.0
C1777 C 0.54671 0.39653 0.09827 0.0
C1778 C 0.57743 0.39118 0.1085 0.0
C1779 C 0.61309 0.42358 0.11698 0.0
C1780 C 0.61851 0.46176 0.11488 0.0
C1781 C 0.5898 0.46838 0.10477 0.0
C1782 C 0.60478 0.51287 0.1027 0.0
C1783 C 0.60543 0.52514 0.07551 0.0
C1784 C 0.57974 0.52474 0.11883 0.0
C1785 C 0.64664 0.53017 0.11298 0.0
C1786 C 0.65334 0.49989 0.12036 0.0
C1787 C 0.68932 0.50771 0.13054 0.0
C1788 C 0.71964 0.54727 0.13268 0.0
C1789 C 0.71473 0.57924 0.12415 0.0
C1790 C 0.67718 0.57036 0.11458 0.0
H1791 H 0.83653 0.44186 0.36772 0.0
H1792 H 0.87065 0.48684 0.44265 0.0
H1793 H 0.90557 0.44872 0.44702 0.0
H1794 H 0.81421 0.34482 0.38011 0.0
H1795 H 0.83313 0.33737 0.35134 0.0
H1796 H 0.81536 0.37213 0.35281 0.0
H1797 H 0.88293 0.42782 0.33627 0.0
H1798 H 0.901 0.39318 0.33479 0.0
H1799 H 0.92797 0.43857 0.35219 0.0
H1800 H 0.92975 0.3999 0.44523 0.0
H1801 H 0.94026 0.34306 0.43765 0.0
H1802 H 0.89142 0.32951 0.36383 0.0
C1803 C 0.85157 0.44398 0.38502 0.0
C1804 C 0.85077 0.46757 0.40486 0.0
C1805 C 0.87121 0.4696 0.42705 0.0
C1806 C 0.8911 0.44793 0.42972 0.0
C1807 C 0.89071 0.42457 0.40996 0.0
C1808 C 0.87163 0.42259 0.38797 0.0
C1809 C 0.87347 0.39319 0.3702 0.0
C1810 C 0.83156 0.35991 0.36321 0.0
C1811 C 0.8978 0.41447 0.34698 0.0
C1812 C 0.89504 0.37762 0.38604 0.0
C1813 C 0.90527 0.39666 0.40877 0.0
C1814 C 0.92262 0.3854 0.42734 0.0
C1815 C 0.9286 0.35321 0.42286 0.0
C1816 C 0.91756 0.33275 0.39997 0.0
C1817 C 0.90141 0.34567 0.38112 0.0
H1818 H 0.23198 0.64893 0.64565 0.0
H1819 H 0.17736 0.64918 0.57555 0.0
H1820 H 0.14283 0.57576 0.5749 0.0
H1821 H 0.25352 0.57601 0.63237 0.0
H1822 H 0.2414 0.55115 0.66195 0.0
H1823 H 0.25695 0.60317 0.66006 0.0
H1824 H 0.1935 0.59276 0.68138 0.0
H1825 H 0.17761 0.54077 0.68492 0.0
H1826 H 0.14571 0.55566 0.66983 0.0
H1827 H 0.11648 0.50131 0.58108 0.0
H1828 H 0.10461 0.43424 0.59217 0.0
H1829 H 0.18057 0.48366 0.65641 0.0
C1830 C 0.21264 0.63368 0.63016 0.0
C1831 C 0.20762 0.65523 0.61058 0.0
C1832 C 0.18146 0.63367 0.59093 0.0
C1833 C 0.16176 0.59184 0.59037 0.0
C1834 C 0.16813 0.5717 0.60969 0.0
C1835 C 0.19279 0.592 0.62932 0.0
C1836 C 0.19616 0.56364 0.64724 0.0
C1837 C 0.23957 0.57407 0.6506 0.0
C1838 C 0.17711 0.56319 0.67233 0.0
C1839 C 0.17182 0.5245 0.63376 0.0
C1840 C 0.1546 0.52946 0.61263 0.0
C1841 C 0.1299 0.49721 0.59757 0.0
C1842 C 0.12319 0.45919 0.60404 0.0
C1843 C 0.1419 0.45382 0.62501 0.0
C1844 C 0.16619 0.48696 0.64012 0.0
H1845 H 0.31595 0.83327 0.88511 0.0
H1846 H 0.37936 0.95954 0.90085 0.0
H1847 H 0.44128 0.95679 0.90674 0.0
H1848 H 0.36276 0.80605 0.93063 0.0
H1849 H 0.36277 0.76743 0.91213 0.0
H1850 H 0.32509 0.78079 0.90738 0.0
H1851 H 0.34421 0.79412 0.86091 0.0
H1852 H 0.38207 0.78088 0.86551 0.0
H1853 H 0.39488 0.82848 0.85235 0.0
H1854 H 0.49656 0.9379 0.91269 0.0
H1855 H 0.53664 0.90522 0.91997 0.0
H1856 H 0.43506 0.79171 0.90049 0.0
C1857 C 0.3428 0.86067 0.88954 0.0
C1858 C 0.34258 0.89688 0.89218 0.0
C1859 C 0.37865 0.93161 0.89831 0.0
C1860 C 0.41401 0.93022 0.90175 0.0
C1861 C 0.41293 0.89383 0.89907 0.0
C1862 C 0.37801 0.85973 0.89313 0.0
C1863 C 0.38354 0.82379 0.89241 0.0
C1864 C 0.35698 0.7927 0.91179 0.0
C1865 C 0.37572 0.80577 0.86624 0.0
C1866 C 0.42701 0.84263 0.89919 0.0
C1867 C 0.44379 0.8831 0.90277 0.0
C1868 C 0.48356 0.90627 0.90978 0.0
C1869 C 0.50627 0.88748 0.91371 0.0
C1870 C 0.48916 0.84581 0.91088 0.0
C1871 C 0.44914 0.82355 0.90302 0.0
H1872 H 0.563 0.7249 0.64234 0.0
H1873 H 0.6145 0.66159 0.606 0.0
H1874 H 0.54688 0.60423 0.59935 0.0
H1875 H 0.48084 0.63958 0.67275 0.0
H1876 H 0.44736 0.65847 0.66798 0.0
H1877 H 0.49978 0.6924 0.67143 0.0
H1878 H 0.50062 0.72534 0.62945 0.0
H1879 H 0.44831 0.69149 0.62581 0.0
H1880 H 0.48251 0.69504 0.60201 0.0
H1881 H 0.47119 0.55508 0.59424 0.0
H1882 H 0.39789 0.52088 0.59101 0.0
H1883 H 0.39799 0.61746 0.63142 0.0
C1884 C 0.56036 0.69886 0.63323 0.0
C1885 C 0.59441 0.69779 0.62493 0.0
C1886 C 0.58914 0.66301 0.61297 0.0
C1887 C 0.55071 0.63033 0.60899 0.0
C1888 C 0.51778 0.63274 0.61718 0.0
C1889 C 0.52249 0.66623 0.62918 0.0
C1890 C 0.48282 0.66271 0.63534 0.0
C1891 C 0.47739 0.66332 0.66355 0.0
C1892 C 0.47832 0.69558 0.62237 0.0
C1893 C 0.4547 0.62223 0.62457 0.0
C1894 C 0.47518 0.60511 0.61428 0.0
C1895 C 0.45505 0.56821 0.60249 0.0
C1896 C 0.41324 0.5488 0.60089 0.0
C1897 C 0.39174 0.56628 0.6109 0.0
C1898 C 0.41317 0.60323 0.62328 0.0
H1899 H 0.17032 0.60503 0.95652 0.0
H1900 H 0.13278 0.6336 0.88764 0.0
H1901 H 0.11722 0.56804 0.87054 0.0
H1902 H 0.21865 0.55752 0.92921 0.0
H1903 H 0.20446 0.52115 0.95368 0.0
H1904 H 0.20982 0.56897 0.96014 0.0
H1905 H 0.13769 0.53377 0.97725 0.0
H1906 H 0.13223 0.48596 0.97015 0.0
H1907 H 0.09756 0.49947 0.95771 0.0
H1908 H 0.10409 0.49671 0.86166 0.0
H1909 H 0.10381 0.43247 0.86012 0.0
H1910 H 0.15515 0.45486 0.93367 0.0
C1911 C 0.15845 0.59737 0.93791 0.0
C1912 C 0.15246 0.62434 0.92349 0.0
C1913 C 0.13769 0.61346 0.89901 0.0
C1914 C 0.12848 0.57614 0.88924 0.0
C1915 C 0.13453 0.55011 0.90407 0.0
C1916 C 0.14963 0.56062 0.92781 0.0
C1917 C 0.15589 0.52877 0.93957 0.0
C1918 C 0.19983 0.54508 0.94602 0.0
C1919 C 0.12926 0.51095 0.96253 0.0
C1920 C 0.14271 0.49889 0.91866 0.0
C1921 C 0.12945 0.51101 0.8985 0.0
C1922 C 0.11478 0.48726 0.8773 0.0
C1923 C 0.11457 0.45081 0.87657 0.0
C1924 C 0.1299 0.43912 0.89663 0.0
C1925 C 0.14368 0.46337 0.91794 0.0
H1926 H 0.33979 0.88698 0.58732 0.0
H1927 H 0.37843 0.94563 0.65841 0.0
H1928 H 0.4395 0.94013 0.6555 0.0
H1929 H 0.37297 0.8175 0.59397 0.0
H1930 H 0.38778 0.82108 0.56202 0.0
H1931 H 0.3487 0.83092 0.5705 0.0
H1932 H 0.38823 0.90024 0.54923 0.0
H1933 H 0.42744 0.89018 0.54143 0.0
H1934 H 0.43841 0.93396 0.55897 0.0
H1935 H 0.4941 0.92178 0.64554 0.0
H1936 H 0.53967 0.90084 0.62765 0.0
H1937 H 0.46507 0.85709 0.56241 0.0
C1938 C 0.36135 0.89907 0.60219 0.0
C1939 C 0.35438 0.91656 0.62318 0.0
C1940 C 0.38335 0.93233 0.64213 0.0
C1941 C 0.41793 0.92903 0.64065 0.0
C1942 C 0.42333 0.91052 0.6199 0.0
C1943 C 0.39601 0.89657 0.6008 0.0
C1944 C 0.4085 0.87846 0.58027 0.0
C1945 C 0.37761 0.83439 0.57648 0.0
C1946 C 0.4161 0.90213 0.55604 0.0
C1947 C 0.4467 0.88333 0.59093 0.0
C1948 C 0.45486 0.90167 0.61385 0.0
C1949 C 0.48803 0.90782 0.62749 0.0
C1950 C 0.51363 0.89552 0.61728 0.0
C1951 C 0.50622 0.87752 0.59353 0.0
C1952 C 0.47204 0.87128 0.58042 0.0
H1953 H 0.57663 0.70301 0.92755 0.0
H1954 H 0.59316 0.67816 0.85143 0.0
H1955 H 0.52505 0.62029 0.85125 0.0
H1956 H 0.51338 0.59632 0.94644 0.0
H1957 H 0.48388 0.60824 0.96667 0.0
H1958 H 0.53551 0.64397 0.96159 0.0
H1959 H 0.51585 0.69507 0.94825 0.0
H1960 H 0.464 0.66006 0.95223 0.0
H1961 H 0.48193 0.68444 0.92271 0.0
H1962 H 0.45173 0.5687 0.85845 0.0
H1963 H 0.38151 0.52976 0.87218 0.0
H1964 H 0.41389 0.58966 0.94317 0.0
C1965 C 0.56622 0.68508 0.91093 0.0
C1966 C 0.59035 0.69522 0.88949 0.0
C1967 C 0.57547 0.67084 0.86817 0.0
C1968 C 0.53674 0.63788 0.8679 0.0
C1969 C 0.51343 0.62924 0.88922 0.0
C1970 C 0.52795 0.65192 0.91045 0.0
C1971 C 0.49655 0.63785 0.93054 0.0
C1972 C 0.50801 0.62056 0.95261 0.0
C1973 C 0.48909 0.67135 0.93888 0.0
C1974 C 0.46124 0.60562 0.91682 0.0
C1975 C 0.47167 0.60016 0.89324 0.0
C1976 C 0.44347 0.57255 0.87697 0.0
C1977 C 0.40369 0.55053 0.8849 0.0
C1978 C 0.39236 0.55684 0.90868 0.0
C1979 C 0.42175 0.58435 0.92487 0.0
loop_
_geom_bond_atom_site_label_1
_geom_bond_atom_site_label_2
_geom_bond_distance
_geom_bond_site_symmetry_2
_ccdc_geom_bond_type
Tb0 N29 2.617 . S
Tb0 N35 2.572 . S
Tb0 O44 2.465 . S
Tb0 O45 2.387 . S
Tb0 O47 2.428 . S
Tb0 O48 2.308 . S
Tb0 O52 2.349 . S
Tb0 O55 2.393 . S
Tb0 C64 2.802 . S
C1 N2 1.379 . S
C1 C4 1.416 . S
C1 C8 1.424 . S
N2 C1 1.379 . S
N2 C5 1.334 . S
N2 Tb11 2.617 . S
C3 C5 1.390 . S
C3 C6 1.339 . S
C3 H23 0.930 1_554 S
C4 C1 1.416 . S
C4 C6 1.416 . S
C4 C10 1.448 . S
C5 N2 1.334 . S
C5 C3 1.390 . S
C5 H16 0.930 . S
C6 C3 1.339 . S
C6 C4 1.416 . S
C6 H27 0.930 . S
C7 C8 1.413 . S
C7 C9 1.427 . S
C7 C13 1.416 . S
C8 C1 1.424 . S
C8 C7 1.413 . S
C8 N12 1.361 . S
C9 C7 1.427 . S
C9 C10 1.328 . S
C9 H24 0.929 . S
C10 C4 1.448 . S
C10 C9 1.328 . S
C10 H25 0.930 . S
Tb11 N2 2.617 . S
Tb11 N12 2.572 . S
Tb11 O46 2.349 . S
Tb11 O49 2.393 . S
Tb11 O50 2.465 . S
Tb11 O51 2.387 . S
Tb11 O53 2.428 . S
Tb11 O54 2.308 . S
Tb11 C75 2.802 . S
N12 C8 1.361 . S
N12 Tb11 2.572 . S
N12 C14 1.340 . S
C13 C7 1.416 . S
C13 C15 1.332 . S
C13 H21 0.931 . S
C14 N12 1.340 . S
C14 C15 1.407 . S
C14 H20 0.930 . S
C15 C13 1.332 . S
C15 C14 1.407 . S
C15 H17 0.929 . S
H16 C5 0.930 . S
H17 C15 0.929 . S
H18 C33 0.930 . S
H19 C40 0.927 1_565 S
H20 C14 0.930 . S
H21 C13 0.931 . S
H22 C36 0.930 . S
H23 C3 0.930 1_556 S
H24 C9 0.929 . S
H25 C10 0.930 . S
H26 C31 0.930 . S
H27 C6 0.930 . S
H28 C39 0.931 . S
N29 Tb0 2.617 . S
N29 C30 1.379 . S
N29 C33 1.334 . S
C30 N29 1.379 . S
C30 C32 1.416 . S
C30 C38 1.424 . S
C31 H26 0.930 . S
C31 C33 1.390 . S
C31 C34 1.339 . S
C32 C30 1.416 . S
C32 C34 1.416 . S
C32 C65 1.448 . S
C33 H18 0.930 . S
C33 N29 1.334 . S
C33 C31 1.390 . S
C34 C31 1.339 . S
C34 C32 1.416 . S
C34 H41 0.930 . S
N35 Tb0 2.572 . S
N35 C36 1.340 . S
N35 C38 1.361 . S
C36 H22 0.930 . S
C36 N35 1.340 . S
C36 C40 1.407 . S
C37 C38 1.413 . S
C37 C39 1.416 1_545 S
C37 C66 1.427 1_545 S
C38 C30 1.424 . S
C38 N35 1.361 . S
C38 C37 1.413 . S
C39 H28 0.931 . S
C39 C37 1.416 1_565 S
C39 C40 1.332 1_565 S
C40 H19 0.927 1_545 S
C40 C36 1.407 . S
C40 C39 1.332 1_545 S
H41 C34 0.930 . S
H42 C65 0.914 1_565 S
H43 C66 0.929 . S
O44 Tb0 2.465 . S
O44 C64 1.264 . S
O45 Tb0 2.387 . S
O45 C56 1.264 . S
O46 Tb11 2.349 . S
O46 C56 1.243 . S
O47 Tb0 2.428 . S
O47 C64 1.256 . S
O48 Tb0 2.308 . S
O48 C63 1.266 . S
O49 Tb11 2.393 . S
O49 C63 1.248 . S
O50 Tb11 2.465 . S
O50 C75 1.264 . S
O51 Tb11 2.387 . S
O51 C67 1.264 . S
O52 Tb0 2.349 . S
O52 C67 1.243 . S
O53 Tb11 2.428 . S
O53 C75 1.256 . S
O54 Tb11 2.308 . S
O54 C74 1.266 . S
O55 Tb0 2.393 . S
O55 C74 1.248 . S
C56 O45 1.264 . S
C56 O46 1.243 . S
C57 C60 1.399 . S
C57 C62 1.383 . S
C57 C64 1.496 1_565 S
C58 C59 1.399 . S
C58 C62 1.389 . S
C59 C58 1.399 . S
C59 C61 1.380 . S
C59 H76 0.929 . S
C60 C57 1.399 . S
C60 C61 1.392 . S
C60 H77 0.929 . S
C61 C59 1.380 . S
C61 C60 1.392 . S
C61 H78 0.929 . S
C62 C57 1.383 . S
C62 C58 1.389 . S
C62 H79 0.931 . S
C63 O48 1.266 . S
C63 O49 1.248 . S
C64 Tb0 2.802 . S
C64 O44 1.264 . S
C64 O47 1.256 . S
C64 C57 1.496 1_545 S
C65 C32 1.448 . S
C65 H42 0.914 1_545 S
C65 C66 1.328 1_545 S
C66 C37 1.427 1_565 S
C66 H43 0.929 . S
C66 C65 1.328 1_565 S
C67 O51 1.264 . S
C67 O52 1.243 . S
C68 C71 1.399 . S
C68 C72 1.383 . S
C68 C75 1.496 . S
C69 C70 1.399 . S
C69 C72 1.389 . S
C70 C69 1.399 . S
C70 C73 1.380 . S
C70 H80 0.929 . S
C71 C68 1.399 . S
C71 C73 1.392 . S
C71 H81 0.929 . S
C72 C68 1.383 . S
C72 C69 1.389 . S
C72 H82 0.931 . S
C73 C70 1.380 . S
C73 C71 1.392 . S
C73 H83 0.929 . S
C74 O54 1.266 . S
C74 O55 1.248 . S
C75 Tb11 2.802 . S
C75 O50 1.264 . S
C75 O53 1.256 . S
C75 C68 1.496 . S
H76 C59 0.929 . S
H77 C60 0.929 . S
H78 C61 0.929 . S
H79 C62 0.931 . S
H80 C70 0.929 . S
H81 C71 0.929 . S
H82 C72 0.931 . S
H83 C73 0.929 . S
Tb84 N113 2.617 . S
Tb84 N119 2.572 . S
Tb84 O128 2.465 . S
Tb84 O129 2.387 . S
Tb84 O131 2.428 . S
Tb84 O132 2.308 . S
Tb84 O136 2.349 . S
Tb84 O139 2.393 . S
Tb84 C148 2.802 . S
C85 N86 1.379 . S
C85 C88 1.416 . S
C85 C92 1.424 . S
N86 C85 1.379 . S
N86 C89 1.334 . S
N86 Tb95 2.617 . S
C87 C89 1.390 . S
C87 C90 1.339 . S
C87 H107 0.930 . S
C88 C85 1.416 . S
C88 C90 1.416 . S
C88 C94 1.448 . S
C89 N86 1.334 . S
C89 C87 1.390 . S
C89 H100 0.930 . S
C90 C87 1.339 . S
C90 C88 1.416 . S
C90 H111 0.930 . S
C91 C92 1.413 . S
C91 C93 1.427 . S
C91 C97 1.416 . S
C92 C85 1.424 . S
C92 C91 1.413 . S
C92 N96 1.361 . S
C93 C91 1.427 . S
C93 C94 1.328 . S
C93 H108 0.929 . S
C94 C88 1.448 . S
C94 C93 1.328 . S
C94 H109 0.930 . S
Tb95 N86 2.617 . S
Tb95 N96 2.572 . S
Tb95 O130 2.349 . S
Tb95 O133 2.393 . S
Tb95 O134 2.465 . S
Tb95 O135 2.387 . S
Tb95 O137 2.428 . S
Tb95 O138 2.308 . S
Tb95 C159 2.802 . S
N96 C92 1.361 . S
N96 Tb95 2.572 . S
N96 C98 1.340 . S
C97 C91 1.416 . S
C97 C99 1.332 . S
C97 H105 0.931 . S
C98 N96 1.340 . S
C98 C99 1.407 . S
C98 H104 0.930 . S
C99 C97 1.332 . S
C99 C98 1.407 . S
C99 H101 0.929 . S
H100 C89 0.930 . S
H101 C99 0.929 . S
H102 C117 0.930 . S
H103 C124 0.929 . S
H104 C98 0.930 . S
H105 C97 0.931 . S
H106 C120 0.930 . S
H107 C87 0.930 . S
H108 C93 0.929 . S
H109 C94 0.930 . S
H110 C115 0.930 . S
H111 C90 0.930 . S
H112 C123 0.931 1_455 S
N113 Tb84 2.617 . S
N113 C114 1.379 . S
N113 C117 1.334 . S
C114 N113 1.379 . S
C114 C116 1.416 . S
C114 C122 1.424 . S
C115 H110 0.930 . S
C115 C117 1.390 . S
C115 C118 1.339 . S
C116 C114 1.416 . S
C116 C118 1.416 . S
C116 C149 1.427 1_655 S
C117 H102 0.930 . S
C117 N113 1.334 . S
C117 C115 1.390 . S
C118 C115 1.339 . S
C118 C116 1.416 . S
C118 H125 0.930 . S
N119 Tb84 2.572 . S
N119 C120 1.340 . S
N119 C122 1.361 . S
C120 H106 0.930 . S
C120 N119 1.340 . S
C120 C124 1.407 . S
C121 C122 1.413 . S
C121 C123 1.416 . S
C121 C150 1.427 1_655 S
C122 C114 1.424 . S
C122 N119 1.361 . S
C122 C121 1.413 . S
C123 H112 0.931 1_655 S
C123 C121 1.416 . S
C123 C124 1.332 . S
C124 H103 0.929 . S
C124 C120 1.407 . S
C124 C123 1.332 . S
H125 C118 0.930 . S
H126 C149 0.944 . S
H127 C150 0.929 . S
O128 Tb84 2.465 . S
O128 C148 1.264 . S
O129 Tb84 2.387 . S
O129 C140 1.264 . S
O130 Tb95 2.349 . S
O130 C140 1.243 . S
O131 Tb84 2.428 . S
O131 C148 1.256 . S
O132 Tb84 2.308 . S
O132 C147 1.266 . S
O133 Tb95 2.393 . S
O133 C147 1.248 . S
O134 Tb95 2.465 . S
O134 C159 1.264 . S
O135 Tb95 2.387 . S
O135 C151 1.264 . S
O136 Tb84 2.349 . S
O136 C151 1.243 . S
O137 Tb95 2.428 . S
O137 C159 1.256 . S
O138 Tb95 2.308 . S
O138 C158 1.266 . S
O139 Tb84 2.393 . S
O139 C158 1.248 . S
C140 O129 1.264 . S
C140 O130 1.243 . S
C141 C144 1.399 . S
C141 C146 1.383 . S
C141 C148 1.496 . S
C142 C143 1.399 . S
C142 C146 1.389 . S
C143 C142 1.399 . S
C143 C145 1.380 . S
C143 H160 0.929 . S
C144 C141 1.399 . S
C144 C145 1.392 . S
C144 H161 0.929 . S
C145 C143 1.380 . S
C145 C144 1.392 . S
C145 H162 0.929 . S
C146 C141 1.383 . S
C146 C142 1.389 . S
C146 H163 0.931 . S
C147 O132 1.266 . S
C147 O133 1.248 . S
C148 Tb84 2.802 . S
C148 O128 1.264 . S
C148 O131 1.256 . S
C148 C141 1.496 . S
C149 C116 1.427 1_455 S
C149 H126 0.944 . S
C149 C150 1.337 . S
C150 C121 1.427 1_455 S
C150 H127 0.929 . S
C150 C149 1.337 . S
C151 O135 1.264 . S
C151 O136 1.243 . S
C152 C155 1.399 . S
C152 C156 1.383 . S
C152 C159 1.496 . S
C153 C154 1.399 . S
C153 C156 1.389 . S
C154 C153 1.399 . S
C154 C157 1.380 . S
C154 H164 0.929 . S
C155 C152 1.399 . S
C155 C157 1.392 . S
C155 H165 0.929 . S
C156 C152 1.383 . S
C156 C153 1.389 . S
C156 H166 0.931 . S
C157 C154 1.380 . S
C157 C155 1.392 . S
C157 H167 0.929 . S
C158 O138 1.266 . S
C158 O139 1.248 . S
C159 Tb95 2.802 . S
C159 O134 1.264 . S
C159 O137 1.256 . S
C159 C152 1.496 . S
H160 C143 0.929 . S
H161 C144 0.929 . S
H162 C145 0.929 . S
H163 C146 0.931 . S
H164 C154 0.929 . S
H165 C155 0.929 . S
H166 C156 0.931 . S
H167 C157 0.929 . S
Tb168 N197 2.617 . S
Tb168 N203 2.572 . S
Tb168 O212 2.465 . S
Tb168 O213 2.387 . S
Tb168 O215 2.428 . S
Tb168 O216 2.308 . S
Tb168 O220 2.349 . S
Tb168 O223 2.393 . S
Tb168 C232 2.802 . S
C169 N170 1.379 . S
C169 C172 1.416 . S
C169 C176 1.424 . S
N170 C169 1.379 . S
N170 C173 1.334 . S
N170 Tb179 2.617 . S
C171 C173 1.390 . S
C171 C174 1.339 . S
C171 H191 0.930 1_554 S
C172 C169 1.416 . S
C172 C174 1.416 . S
C172 C178 1.431 1_545 S
C173 N170 1.334 . S
C173 C171 1.390 . S
C173 H184 0.930 . S
C174 C171 1.339 . S
C174 C172 1.416 . S
C174 H195 0.930 . S
C175 C176 1.413 . S
C175 C177 1.427 1_545 S
C175 C181 1.416 . S
C176 C169 1.424 . S
C176 C175 1.413 . S
C176 N180 1.361 . S
C177 C175 1.427 1_565 S
C177 C178 1.332 . S
C177 H192 0.929 . S
C178 C172 1.431 1_565 S
C178 C177 1.332 . S
C178 H193 0.945 . S
Tb179 N170 2.617 . S
Tb179 N180 2.572 . S
Tb179 O214 2.349 . S
Tb179 O217 2.393 . S
Tb179 O218 2.465 . S
Tb179 O219 2.387 . S
Tb179 O221 2.428 . S
Tb179 O222 2.308 . S
Tb179 C243 2.802 . S
N180 C176 1.361 . S
N180 Tb179 2.572 . S
N180 C182 1.340 . S
C181 C175 1.416 . S
C181 C183 1.332 . S
C181 H189 0.931 1_545 S
C182 N180 1.340 . S
C182 C183 1.407 . S
C182 H188 0.930 . S
C183 C181 1.332 . S
C183 C182 1.407 . S
C183 H185 0.929 . S
H184 C173 0.930 . S
H185 C183 0.929 . S
H186 C201 0.930 . S
H187 C208 0.928 1_455 S
H188 C182 0.930 . S
H189 C181 0.931 1_565 S
H190 C204 0.930 . S
H191 C171 0.930 1_556 S
H192 C177 0.929 . S
H193 C178 0.945 . S
H194 C199 0.930 . S
H195 C174 0.930 . S
H196 C207 0.931 . S
N197 Tb168 2.617 . S
N197 C198 1.379 . S
N197 C201 1.334 . S
C198 N197 1.379 . S
C198 C200 1.416 . S
C198 C206 1.424 . S
C199 H194 0.930 . S
C199 C201 1.390 . S
C199 C202 1.339 . S
C200 C198 1.416 . S
C200 C202 1.416 . S
C200 C233 1.448 . S
C201 H186 0.930 . S
C201 N197 1.334 . S
C201 C199 1.390 . S
C202 C199 1.339 . S
C202 C200 1.416 . S
C202 H209 0.930 . S
N203 Tb168 2.572 . S
N203 C204 1.340 . S
N203 C206 1.361 . S
C204 H190 0.930 . S
C204 N203 1.340 . S
C204 C208 1.407 . S
C205 C206 1.413 . S
C205 C207 1.416 1_655 S
C205 C234 1.427 1_655 S
C206 C198 1.424 . S
C206 N203 1.361 . S
C206 C205 1.413 . S
C207 H196 0.931 . S
C207 C205 1.416 1_455 S
C207 C208 1.332 1_455 S
C208 H187 0.928 1_655 S
C208 C204 1.407 . S
C208 C207 1.332 1_655 S
H209 C202 0.930 . S
H210 C233 0.932 1_455 S
H211 C234 0.929 . S
O212 Tb168 2.465 . S
O212 C232 1.264 . S
O213 Tb168 2.387 . S
O213 C224 1.264 . S
O214 Tb179 2.349 . S
O214 C224 1.243 . S
O215 Tb168 2.428 . S
O215 C232 1.256 . S
O216 Tb168 2.308 . S
O216 C231 1.266 . S
O217 Tb179 2.393 . S
O217 C231 1.248 . S
O218 Tb179 2.465 . S
O218 C243 1.264 . S
O219 Tb179 2.387 . S
O219 C235 1.264 . S
O220 Tb168 2.349 . S
O220 C235 1.243 . S
O221 Tb179 2.428 . S
O221 C243 1.256 . S
O222 Tb179 2.308 . S
O222 C242 1.266 . S
O223 Tb168 2.393 . S
O223 C242 1.248 . S
C224 O213 1.264 . S
C224 O214 1.243 . S
C225 C228 1.399 . S
C225 C230 1.383 . S
C225 C232 1.496 1_455 S
C226 C227 1.399 . S
C226 C230 1.389 . S
C227 C226 1.399 . S
C227 C229 1.380 . S
C227 H244 0.929 . S
C228 C225 1.399 . S
C228 C229 1.392 . S
C228 H245 0.929 . S
C229 C227 1.380 . S
C229 C228 1.392 . S
C229 H246 0.929 . S
C230 C225 1.383 . S
C230 C226 1.389 . S
C230 H247 0.931 . S
C231 O216 1.266 . S
C231 O217 1.248 . S
C232 Tb168 2.802 . S
C232 O212 1.264 . S
C232 O215 1.256 . S
C232 C225 1.496 1_655 S
C233 C200 1.448 . S
C233 H210 0.932 1_655 S
C233 C234 1.328 1_655 S
C234 C205 1.427 1_455 S
C234 H211 0.929 . S
C234 C233 1.328 1_455 S
C235 O219 1.264 . S
C235 O220 1.243 . S
C236 C239 1.399 . S
C236 C240 1.383 . S
C236 C243 1.496 . S
C237 C238 1.399 . S
C237 C240 1.389 . S
C238 C237 1.399 . S
C238 C241 1.380 . S
C238 H248 0.929 . S
C239 C236 1.399 . S
C239 C241 1.392 . S
C239 H249 0.929 . S
C240 C236 1.383 . S
C240 C237 1.389 . S
C240 H250 0.931 . S
C241 C238 1.380 . S
C241 C239 1.392 . S
C241 H251 0.929 . S
C242 O222 1.266 . S
C242 O223 1.248 . S
C243 Tb179 2.802 . S
C243 O218 1.264 . S
C243 O221 1.256 . S
C243 C236 1.496 . S
H244 C227 0.929 . S
H245 C228 0.929 . S
H246 C229 0.929 . S
H247 C230 0.931 . S
H248 C238 0.929 . S
H249 C239 0.929 . S
H250 C240 0.931 . S
H251 C241 0.929 . S
Tb252 N281 2.617 . S
Tb252 N287 2.572 . S
Tb252 O296 2.465 . S
Tb252 O297 2.387 . S
Tb252 O299 2.428 . S
Tb252 O300 2.308 . S
Tb252 O304 2.349 . S
Tb252 O307 2.393 . S
Tb252 C316 2.802 . S
C253 N254 1.379 . S
C253 C256 1.416 . S
C253 C260 1.424 . S
N254 C253 1.379 . S
N254 C257 1.334 . S
N254 Tb263 2.617 . S
C255 C257 1.390 . S
C255 C258 1.339 . S
C255 H275 0.930 . S
C256 C253 1.416 . S
C256 C258 1.416 . S
C256 C262 1.448 . S
C257 N254 1.334 . S
C257 C255 1.390 . S
C257 H268 0.930 . S
C258 C255 1.339 . S
C258 C256 1.416 . S
C258 H279 0.930 . S
C259 C260 1.413 . S
C259 C261 1.427 1_545 S
C259 C265 1.416 1_545 S
C260 C253 1.424 . S
C260 C259 1.413 . S
C260 N264 1.361 . S
C261 C259 1.427 1_565 S
C261 C262 1.328 1_565 S
C261 H276 0.929 . S
C262 C256 1.448 . S
C262 C261 1.328 1_545 S
C262 H277 0.914 1_545 S
Tb263 N254 2.617 . S
Tb263 N264 2.572 . S
Tb263 O298 2.349 . S
Tb263 O301 2.393 . S
Tb263 O302 2.465 . S
Tb263 O303 2.387 . S
Tb263 O305 2.428 . S
Tb263 O306 2.308 . S
Tb263 C327 2.802 . S
N264 C260 1.361 . S
N264 Tb263 2.572 . S
N264 C266 1.340 . S
C265 C259 1.416 1_565 S
C265 C267 1.332 1_565 S
C265 H273 0.931 . S
C266 N264 1.340 . S
C266 C267 1.407 . S
C266 H272 0.930 . S
C267 C265 1.332 1_545 S
C267 C266 1.407 . S
C267 H269 0.927 1_545 S
H268 C257 0.930 . S
H269 C267 0.927 1_565 S
H270 C285 0.930 . S
H271 C292 0.929 . S
H272 C266 0.930 . S
H273 C265 0.931 . S
H274 C288 0.930 . S
H275 C255 0.930 . S
H276 C261 0.929 . S
H277 C262 0.914 1_565 S
H278 C283 0.930 . S
H279 C258 0.930 . S
H280 C291 0.931 . S
N281 Tb252 2.617 . S
N281 C282 1.379 . S
N281 C285 1.334 . S
C282 N281 1.379 . S
C282 C284 1.416 . S
C282 C290 1.424 . S
C283 H278 0.930 . S
C283 C285 1.390 . S
C283 C286 1.339 . S
C284 C282 1.416 . S
C284 C286 1.416 . S
C284 C317 1.448 . S
C285 H270 0.930 . S
C285 N281 1.334 . S
C285 C283 1.390 . S
C286 C283 1.339 . S
C286 C284 1.416 . S
C286 H293 0.930 . S
N287 Tb252 2.572 . S
N287 C288 1.340 . S
N287 C290 1.361 . S
C288 H274 0.930 . S
C288 N287 1.340 . S
C288 C292 1.407 . S
C289 C290 1.413 . S
C289 C291 1.416 . S
C289 C318 1.427 . S
C290 C282 1.424 . S
C290 N287 1.361 . S
C290 C289 1.413 . S
C291 H280 0.931 . S
C291 C289 1.416 . S
C291 C292 1.332 . S
C292 H271 0.929 . S
C292 C288 1.407 . S
C292 C291 1.332 . S
H293 C286 0.930 . S
H294 C317 0.930 . S
H295 C318 0.929 . S
O296 Tb252 2.465 . S
O296 C316 1.264 . S
O297 Tb252 2.387 . S
O297 C308 1.264 . S
O298 Tb263 2.349 . S
O298 C308 1.243 . S
O299 Tb252 2.428 . S
O299 C316 1.256 . S
O300 Tb252 2.308 . S
O300 C315 1.266 . S
O301 Tb263 2.393 . S
O301 C315 1.248 . S
O302 Tb263 2.465 . S
O302 C327 1.264 . S
O303 Tb263 2.387 . S
O303 C319 1.264 . S
O304 Tb252 2.349 . S
O304 C319 1.243 . S
O305 Tb263 2.428 . S
O305 C327 1.256 . S
O306 Tb263 2.308 . S
O306 C326 1.266 . S
O307 Tb252 2.393 . S
O307 C326 1.248 . S
C308 O297 1.264 . S
C308 O298 1.243 . S
C309 C312 1.399 . S
C309 C314 1.383 . S
C309 C316 1.496 . S
C310 C311 1.399 . S
C310 C314 1.389 . S
C311 C310 1.399 . S
C311 C313 1.380 . S
C311 H328 0.929 . S
C312 C309 1.399 . S
C312 C313 1.392 . S
C312 H329 0.929 . S
C313 C311 1.380 . S
C313 C312 1.392 . S
C313 H330 0.929 . S
C314 C309 1.383 . S
C314 C310 1.389 . S
C314 H331 0.931 . S
C315 O300 1.266 . S
C315 O301 1.248 . S
C316 Tb252 2.802 . S
C316 O296 1.264 . S
C316 O299 1.256 . S
C316 C309 1.496 . S
C317 C284 1.448 . S
C317 H294 0.930 . S
C317 C318 1.328 . S
C318 C289 1.427 . S
C318 H295 0.929 . S
C318 C317 1.328 . S
C319 O303 1.264 . S
C319 O304 1.243 . S
C320 C323 1.399 . S
C320 C324 1.383 . S
C320 C327 1.496 1_565 S
C321 C322 1.399 . S
C321 C324 1.389 . S
C322 C321 1.399 . S
C322 C325 1.380 . S
C322 H332 0.929 . S
C323 C320 1.399 . S
C323 C325 1.392 . S
C323 H333 0.929 . S
C324 C320 1.383 . S
C324 C321 1.389 . S
C324 H334 0.931 . S
C325 C322 1.380 . S
C325 C323 1.392 . S
C325 H335 0.929 . S
C326 O306 1.266 . S
C326 O307 1.248 . S
C327 Tb263 2.802 . S
C327 O302 1.264 . S
C327 O305 1.256 . S
C327 C320 1.496 1_545 S
H328 C311 0.929 . S
H329 C312 0.929 . S
H330 C313 0.929 . S
H331 C314 0.931 . S
H332 C322 0.929 . S
H333 C323 0.929 . S
H334 C324 0.931 . S
H335 C325 0.929 . S
Tb336 N365 2.617 . S
Tb336 N371 2.572 . S
Tb336 O380 2.465 . S
Tb336 O381 2.387 . S
Tb336 O383 2.428 . S
Tb336 O384 2.308 . S
Tb336 O388 2.349 . S
Tb336 O391 2.393 . S
Tb336 C400 2.802 . S
C337 N338 1.379 . S
C337 C340 1.416 . S
C337 C344 1.424 . S
N338 C337 1.379 . S
N338 C341 1.334 . S
N338 Tb347 2.617 . S
C339 C341 1.390 . S
C339 C342 1.339 . S
C339 H359 0.930 1_554 S
C340 C337 1.416 . S
C340 C342 1.416 . S
C340 C346 1.427 1_655 S
C341 N338 1.334 . S
C341 C339 1.390 . S
C341 H352 0.930 . S
C342 C339 1.339 . S
C342 C340 1.416 . S
C342 H363 0.930 . S
C343 C344 1.413 . S
C343 C345 1.427 1_655 S
C343 C349 1.416 . S
C344 C337 1.424 . S
C344 C343 1.413 . S
C344 N348 1.361 . S
C345 C343 1.427 1_455 S
C345 C346 1.337 . S
C345 H360 0.929 . S
C346 C340 1.427 1_455 S
C346 C345 1.337 . S
C346 H361 0.944 . S
Tb347 N338 2.617 . S
Tb347 N348 2.572 . S
Tb347 O382 2.349 . S
Tb347 O385 2.393 . S
Tb347 O386 2.465 . S
Tb347 O387 2.387 . S
Tb347 O389 2.428 . S
Tb347 O390 2.308 . S
Tb347 C411 2.802 . S
N348 C344 1.361 . S
N348 Tb347 2.572 . S
N348 C350 1.340 . S
C349 C343 1.416 . S
C349 C351 1.332 . S
C349 H357 0.931 1_655 S
C350 N348 1.340 . S
C350 C351 1.407 . S
C350 H356 0.930 . S
C351 C349 1.332 . S
C351 C350 1.407 . S
C351 H353 0.929 . S
H352 C341 0.930 . S
H353 C351 0.929 . S
H354 C369 0.930 . S
H355 C376 0.929 . S
H356 C350 0.930 . S
H357 C349 0.931 1_455 S
H358 C372 0.930 . S
H359 C339 0.930 1_556 S
H360 C345 0.929 . S
H361 C346 0.944 . S
H362 C367 0.930 . S
H363 C342 0.930 . S
H364 C375 0.931 . S
N365 Tb336 2.617 . S
N365 C366 1.379 . S
N365 C369 1.334 . S
C366 N365 1.379 . S
C366 C368 1.416 . S
C366 C374 1.424 . S
C367 H362 0.930 . S
C367 C369 1.390 . S
C367 C370 1.339 . S
C368 C366 1.416 . S
C368 C370 1.416 . S
C368 C401 1.448 . S
C369 H354 0.930 . S
C369 N365 1.334 . S
C369 C367 1.390 . S
C370 C367 1.339 . S
C370 C368 1.416 . S
C370 H377 0.930 . S
N371 Tb336 2.572 . S
N371 C372 1.340 . S
N371 C374 1.361 . S
C372 H358 0.930 . S
C372 N371 1.340 . S
C372 C376 1.407 . S
C373 C374 1.413 . S
C373 C375 1.416 . S
C373 C402 1.427 . S
C374 C366 1.424 . S
C374 N371 1.361 . S
C374 C373 1.413 . S
C375 H364 0.931 . S
C375 C373 1.416 . S
C375 C376 1.332 . S
C376 H355 0.929 . S
C376 C372 1.407 . S
C376 C375 1.332 . S
H377 C370 0.930 . S
H378 C401 0.930 . S
H379 C402 0.929 . S
O380 Tb336 2.465 . S
O380 C400 1.264 . S
O381 Tb336 2.387 . S
O381 C392 1.264 . S
O382 Tb347 2.349 . S
O382 C392 1.243 . S
O383 Tb336 2.428 . S
O383 C400 1.256 . S
O384 Tb336 2.308 . S
O384 C399 1.266 . S
O385 Tb347 2.393 . S
O385 C399 1.248 . S
O386 Tb347 2.465 . S
O386 C411 1.264 . S
O387 Tb347 2.387 . S
O387 C403 1.264 . S
O388 Tb336 2.349 . S
O388 C403 1.243 . S
O389 Tb347 2.428 . S
O389 C411 1.256 . S
O390 Tb347 2.308 . S
O390 C410 1.266 . S
O391 Tb336 2.393 . S
O391 C410 1.248 . S
C392 O381 1.264 . S
C392 O382 1.243 . S
C393 C396 1.399 . S
C393 C398 1.383 . S
C393 C400 1.496 . S
C394 C395 1.399 . S
C394 C398 1.389 . S
C395 C394 1.399 . S
C395 C397 1.380 . S
C395 H412 0.929 . S
C396 C393 1.399 . S
C396 C397 1.392 . S
C396 H413 0.929 . S
C397 C395 1.380 . S
C397 C396 1.392 . S
C397 H414 0.929 . S
C398 C393 1.383 . S
C398 C394 1.389 . S
C398 H415 0.931 . S
C399 O384 1.266 . S
C399 O385 1.248 . S
C400 Tb336 2.802 . S
C400 O380 1.264 . S
C400 O383 1.256 . S
C400 C393 1.496 . S
C401 C368 1.448 . S
C401 H378 0.930 . S
C401 C402 1.328 . S
C402 C373 1.427 . S
C402 H379 0.929 . S
C402 C401 1.328 . S
C403 O387 1.264 . S
C403 O388 1.243 . S
C404 C407 1.399 . S
C404 C408 1.383 . S
C404 C411 1.496 . S
C405 C406 1.399 . S
C405 C408 1.389 . S
C406 C405 1.399 . S
C406 C409 1.380 . S
C406 H416 0.929 . S
C407 C404 1.399 . S
C407 C409 1.392 . S
C407 H417 0.929 . S
C408 C404 1.383 . S
C408 C405 1.389 . S
C408 H418 0.931 . S
C409 C406 1.380 . S
C409 C407 1.392 . S
C409 H419 0.929 . S
C410 O390 1.266 . S
C410 O391 1.248 . S
C411 Tb347 2.802 . S
C411 O386 1.264 . S
C411 O389 1.256 . S
C411 C404 1.496 . S
H412 C395 0.929 . S
H413 C396 0.929 . S
H414 C397 0.929 . S
H415 C398 0.931 . S
H416 C406 0.929 . S
H417 C407 0.929 . S
H418 C408 0.931 . S
H419 C409 0.929 . S
Tb420 N449 2.617 . S
Tb420 N455 2.572 . S
Tb420 O464 2.465 . S
Tb420 O465 2.387 . S
Tb420 O467 2.428 . S
Tb420 O468 2.308 . S
Tb420 O472 2.349 . S
Tb420 O475 2.393 . S
Tb420 C484 2.802 . S
C421 N422 1.379 . S
C421 C424 1.416 . S
C421 C428 1.424 . S
N422 C421 1.379 . S
N422 C425 1.334 . S
N422 Tb431 2.617 . S
C423 C425 1.390 . S
C423 C426 1.339 . S
C423 H443 0.930 . S
C424 C421 1.416 . S
C424 C426 1.416 . S
C424 C430 1.448 . S
C425 N422 1.334 . S
C425 C423 1.390 . S
C425 H436 0.930 . S
C426 C423 1.339 . S
C426 C424 1.416 . S
C426 H447 0.930 . S
C427 C428 1.413 . S
C427 C429 1.427 1_655 S
C427 C433 1.416 1_655 S
C428 C421 1.424 . S
C428 C427 1.413 . S
C428 N432 1.361 . S
C429 C427 1.427 1_455 S
C429 C430 1.328 1_455 S
C429 H444 0.929 . S
C430 C424 1.448 . S
C430 C429 1.328 1_655 S
C430 H445 0.932 1_655 S
Tb431 N422 2.617 . S
Tb431 N432 2.572 . S
Tb431 O466 2.349 . S
Tb431 O469 2.393 . S
Tb431 O470 2.465 . S
Tb431 O471 2.387 . S
Tb431 O473 2.428 . S
Tb431 O474 2.308 . S
Tb431 C495 2.802 . S
N432 C428 1.361 . S
N432 Tb431 2.572 . S
N432 C434 1.340 . S
C433 C427 1.416 1_455 S
C433 C435 1.332 1_455 S
C433 H441 0.931 . S
C434 N432 1.340 . S
C434 C435 1.407 . S
C434 H440 0.930 . S
C435 C433 1.332 1_655 S
C435 C434 1.407 . S
C435 H437 0.928 1_655 S
H436 C425 0.930 . S
H437 C435 0.928 1_455 S
H438 C453 0.930 . S
H439 C460 0.929 . S
H440 C434 0.930 . S
H441 C433 0.931 . S
H442 C456 0.930 . S
H443 C423 0.930 . S
H444 C429 0.929 . S
H445 C430 0.932 1_455 S
H446 C451 0.930 . S
H447 C426 0.930 . S
H448 C459 0.931 1_565 S
N449 Tb420 2.617 . S
N449 C450 1.379 . S
N449 C453 1.334 . S
C450 N449 1.379 . S
C450 C452 1.416 . S
C450 C458 1.424 . S
C451 H446 0.930 . S
C451 C453 1.390 . S
C451 C454 1.339 . S
C452 C450 1.416 . S
C452 C454 1.416 . S
C452 C485 1.431 1_545 S
C453 H438 0.930 . S
C453 N449 1.334 . S
C453 C451 1.390 . S
C454 C451 1.339 . S
C454 C452 1.416 . S
C454 H461 0.930 . S
N455 Tb420 2.572 . S
N455 C456 1.340 . S
N455 C458 1.361 . S
C456 H442 0.930 . S
C456 N455 1.340 . S
C456 C460 1.407 . S
C457 C458 1.413 . S
C457 C459 1.416 . S
C457 C486 1.427 1_545 S
C458 C450 1.424 . S
C458 N455 1.361 . S
C458 C457 1.413 . S
C459 H448 0.931 1_545 S
C459 C457 1.416 . S
C459 C460 1.332 . S
C460 H439 0.929 . S
C460 C456 1.407 . S
C460 C459 1.332 . S
H461 C454 0.930 . S
H462 C485 0.945 . S
H463 C486 0.929 . S
O464 Tb420 2.465 . S
O464 C484 1.264 . S
O465 Tb420 2.387 . S
O465 C476 1.264 . S
O466 Tb431 2.349 . S
O466 C476 1.243 . S
O467 Tb420 2.428 . S
O467 C484 1.256 . S
O468 Tb420 2.308 . S
O468 C483 1.266 . S
O469 Tb431 2.393 . S
O469 C483 1.248 . S
O470 Tb431 2.465 . S
O470 C495 1.264 . S
O471 Tb431 2.387 . S
O471 C487 1.264 . S
O472 Tb420 2.349 . S
O472 C487 1.243 . S
O473 Tb431 2.428 . S
O473 C495 1.256 . S
O474 Tb431 2.308 . S
O474 C494 1.266 . S
O475 Tb420 2.393 . S
O475 C494 1.248 . S
C476 O465 1.264 . S
C476 O466 1.243 . S
C477 C480 1.399 . S
C477 C482 1.383 . S
C477 C484 1.496 . S
C478 C479 1.399 . S
C478 C482 1.389 . S
C479 C478 1.399 . S
C479 C481 1.380 . S
C479 H496 0.929 . S
C480 C477 1.399 . S
C480 C481 1.392 . S
C480 H497 0.929 . S
C481 C479 1.380 . S
C481 C480 1.392 . S
C481 H498 0.929 . S
C482 C477 1.383 . S
C482 C478 1.389 . S
C482 H499 0.931 . S
C483 O468 1.266 . S
C483 O469 1.248 . S
C484 Tb420 2.802 . S
C484 O464 1.264 . S
C484 O467 1.256 . S
C484 C477 1.496 . S
C485 C452 1.431 1_565 S
C485 H462 0.945 . S
C485 C486 1.332 . S
C486 C457 1.427 1_565 S
C486 H463 0.929 . S
C486 C485 1.332 . S
C487 O471 1.264 . S
C487 O472 1.243 . S
C488 C491 1.399 . S
C488 C492 1.383 . S
C488 C495 1.496 1_455 S
C489 C490 1.399 . S
C489 C492 1.389 . S
C490 C489 1.399 . S
C490 C493 1.380 . S
C490 H500 0.929 . S
C491 C488 1.399 . S
C491 C493 1.392 . S
C491 H501 0.929 . S
C492 C488 1.383 . S
C492 C489 1.389 . S
C492 H502 0.931 . S
C493 C490 1.380 . S
C493 C491 1.392 . S
C493 H503 0.929 . S
C494 O474 1.266 . S
C494 O475 1.248 . S
C495 Tb431 2.802 . S
C495 O470 1.264 . S
C495 O473 1.256 . S
C495 C488 1.496 1_655 S
H496 C479 0.929 . S
H497 C480 0.929 . S
H498 C481 0.929 . S
H499 C482 0.931 . S
H500 C490 0.929 . S
H501 C491 0.929 . S
H502 C492 0.931 . S
H503 C493 0.929 . S
Tb504 N533 2.617 . S
Tb504 N539 2.572 . S
Tb504 O548 2.465 . S
Tb504 O549 2.387 . S
Tb504 O551 2.428 . S
Tb504 O552 2.308 . S
Tb504 O556 2.349 . S
Tb504 O559 2.393 . S
Tb504 C568 2.802 . S
C505 N506 1.379 . S
C505 C508 1.416 . S
C505 C512 1.424 . S
N506 C505 1.379 . S
N506 C509 1.334 . S
N506 Tb515 2.617 . S
C507 C509 1.390 . S
C507 C510 1.339 . S
C507 H527 0.930 . S
C508 C505 1.416 . S
C508 C510 1.416 . S
C508 C514 1.448 . S
C509 N506 1.334 . S
C509 C507 1.390 . S
C509 H520 0.930 . S
C510 C507 1.339 . S
C510 C508 1.416 . S
C510 H531 0.930 . S
C511 C512 1.413 . S
C511 C513 1.427 1_455 S
C511 C517 1.416 1_455 S
C512 C505 1.424 . S
C512 C511 1.413 . S
C512 N516 1.361 . S
C513 C511 1.427 1_655 S
C513 C514 1.328 1_655 S
C513 H528 0.929 . S
C514 C508 1.448 . S
C514 C513 1.328 1_455 S
C514 H529 0.914 1_455 S
Tb515 N506 2.617 . S
Tb515 N516 2.572 . S
Tb515 O550 2.349 . S
Tb515 O553 2.393 . S
Tb515 O554 2.465 . S
Tb515 O555 2.387 . S
Tb515 O557 2.428 . S
Tb515 O558 2.308 . S
Tb515 C579 2.802 . S
N516 C512 1.361 . S
N516 Tb515 2.572 . S
N516 C518 1.340 . S
C517 C511 1.416 1_655 S
C517 C519 1.332 1_655 S
C517 H525 0.931 . S
C518 N516 1.340 . S
C518 C519 1.407 . S
C518 H524 0.930 . S
C519 C517 1.332 1_455 S
C519 C518 1.407 . S
C519 H521 0.927 1_455 S
H520 C509 0.930 . S
H521 C519 0.927 1_655 S
H522 C537 0.930 . S
H523 C544 0.929 . S
H524 C518 0.930 . S
H525 C517 0.931 . S
H526 C540 0.930 . S
H527 C507 0.930 . S
H528 C513 0.929 . S
H529 C514 0.914 1_655 S
H530 C535 0.930 . S
H531 C510 0.930 . S
H532 C543 0.931 . S
N533 Tb504 2.617 . S
N533 C534 1.379 . S
N533 C537 1.334 . S
C534 N533 1.379 . S
C534 C536 1.416 . S
C534 C542 1.424 . S
C535 H530 0.930 . S
C535 C537 1.390 . S
C535 C538 1.339 . S
C536 C534 1.416 . S
C536 C538 1.416 . S
C536 C569 1.448 . S
C537 H522 0.930 . S
C537 N533 1.334 . S
C537 C535 1.390 . S
C538 C535 1.339 . S
C538 C536 1.416 . S
C538 H545 0.930 . S
N539 Tb504 2.572 . S
N539 C540 1.340 . S
N539 C542 1.361 . S
C540 H526 0.930 . S
C540 N539 1.340 . S
C540 C544 1.407 . S
C541 C542 1.413 . S
C541 C543 1.416 . S
C541 C570 1.427 . S
C542 C534 1.424 . S
C542 N539 1.361 . S
C542 C541 1.413 . S
C543 H532 0.931 . S
C543 C541 1.416 . S
C543 C544 1.332 . S
C544 H523 0.929 . S
C544 C540 1.407 . S
C544 C543 1.332 . S
H545 C538 0.930 . S
H546 C569 0.930 . S
H547 C570 0.929 . S
O548 Tb504 2.465 . S
O548 C568 1.264 . S
O549 Tb504 2.387 . S
O549 C560 1.264 . S
O550 Tb515 2.349 . S
O550 C560 1.243 . S
O551 Tb504 2.428 . S
O551 C568 1.256 . S
O552 Tb504 2.308 . S
O552 C567 1.266 . S
O553 Tb515 2.393 . S
O553 C567 1.248 . S
O554 Tb515 2.465 . S
O554 C579 1.264 . S
O555 Tb515 2.387 . S
O555 C571 1.264 . S
O556 Tb504 2.349 . S
O556 C571 1.243 . S
O557 Tb515 2.428 . S
O557 C579 1.256 . S
O558 Tb515 2.308 . S
O558 C578 1.266 . S
O559 Tb504 2.393 . S
O559 C578 1.248 . S
C560 O549 1.264 . S
C560 O550 1.243 . S
C561 C564 1.399 . S
C561 C566 1.383 . S
C561 C568 1.496 . S
C562 C563 1.399 . S
C562 C566 1.389 . S
C563 C562 1.399 . S
C563 C565 1.380 . S
C563 H580 0.929 . S
C564 C561 1.399 . S
C564 C565 1.392 . S
C564 H581 0.929 . S
C565 C563 1.380 . S
C565 C564 1.392 . S
C565 H582 0.929 . S
C566 C561 1.383 . S
C566 C562 1.389 . S
C566 H583 0.931 . S
C567 O552 1.266 . S
C567 O553 1.248 . S
C568 Tb504 2.802 . S
C568 O548 1.264 . S
C568 O551 1.256 . S
C568 C561 1.496 . S
C569 C536 1.448 . S
C569 H546 0.930 . S
C569 C570 1.328 . S
C570 C541 1.427 . S
C570 H547 0.929 . S
C570 C569 1.328 . S
C571 O555 1.264 . S
C571 O556 1.243 . S
C572 C575 1.399 . S
C572 C576 1.383 . S
C572 C579 1.496 1_655 S
C573 C574 1.399 . S
C573 C576 1.389 . S
C574 C573 1.399 . S
C574 C577 1.380 . S
C574 H584 0.929 . S
C575 C572 1.399 . S
C575 C577 1.392 . S
C575 H585 0.929 . S
C576 C572 1.383 . S
C576 C573 1.389 . S
C576 H586 0.931 . S
C577 C574 1.380 . S
C577 C575 1.392 . S
C577 H587 0.929 . S
C578 O558 1.266 . S
C578 O559 1.248 . S
C579 Tb515 2.802 . S
C579 O554 1.264 . S
C579 O557 1.256 . S
C579 C572 1.496 1_455 S
H580 C563 0.929 . S
H581 C564 0.929 . S
H582 C565 0.929 . S
H583 C566 0.931 . S
H584 C574 0.929 . S
H585 C575 0.929 . S
H586 C576 0.931 . S
H587 C577 0.929 . S
Tb588 N617 2.617 . S
Tb588 N623 2.572 . S
Tb588 O632 2.465 . S
Tb588 O633 2.387 . S
Tb588 O635 2.428 . S
Tb588 O636 2.308 . S
Tb588 O640 2.349 . S
Tb588 O643 2.393 . S
Tb588 C652 2.802 . S
C589 N590 1.379 . S
C589 C592 1.416 . S
C589 C596 1.424 . S
N590 C589 1.379 . S
N590 C593 1.334 . S
N590 Tb599 2.617 . S
C591 C593 1.390 . S
C591 C594 1.339 . S
C591 H611 0.930 1_556 S
C592 C589 1.416 . S
C592 C594 1.416 . S
C592 C598 1.431 1_455 S
C593 N590 1.334 . S
C593 C591 1.390 . S
C593 H604 0.930 . S
C594 C591 1.339 . S
C594 C592 1.416 . S
C594 H615 0.930 . S
C595 C596 1.413 . S
C595 C597 1.427 1_455 S
C595 C601 1.416 . S
C596 C589 1.424 . S
C596 C595 1.413 . S
C596 N600 1.361 . S
C597 C595 1.427 1_655 S
C597 C598 1.332 . S
C597 H612 0.929 . S
C598 C592 1.431 1_655 S
C598 C597 1.332 . S
C598 H613 0.945 . S
Tb599 N590 2.617 . S
Tb599 N600 2.572 . S
Tb599 O634 2.349 . S
Tb599 O637 2.393 . S
Tb599 O638 2.465 . S
Tb599 O639 2.387 . S
Tb599 O641 2.428 . S
Tb599 O642 2.308 . S
Tb599 C663 2.802 . S
N600 C596 1.361 . S
N600 Tb599 2.572 . S
N600 C602 1.340 . S
C601 C595 1.416 . S
C601 C603 1.332 . S
C601 H609 0.931 1_455 S
C602 N600 1.340 . S
C602 C603 1.407 . S
C602 H608 0.930 . S
C603 C601 1.332 . S
C603 C602 1.407 . S
C603 H605 0.929 . S
H604 C593 0.930 . S
H605 C603 0.929 . S
H606 C621 0.930 . S
H607 C628 0.928 1_545 S
H608 C602 0.930 . S
H609 C601 0.931 1_655 S
H610 C624 0.930 . S
H611 C591 0.930 1_554 S
H612 C597 0.929 . S
H613 C598 0.945 . S
H614 C619 0.930 . S
H615 C594 0.930 . S
H616 C627 0.931 . S
N617 Tb588 2.617 . S
N617 C618 1.379 . S
N617 C621 1.334 . S
C618 N617 1.379 . S
C618 C620 1.416 . S
C618 C626 1.424 . S
C619 H614 0.930 . S
C619 C621 1.390 . S
C619 C622 1.339 . S
C620 C618 1.416 . S
C620 C622 1.416 . S
C620 C653 1.448 . S
C621 H606 0.930 . S
C621 N617 1.334 . S
C621 C619 1.390 . S
C622 C619 1.339 . S
C622 C620 1.416 . S
C622 H629 0.930 . S
N623 Tb588 2.572 . S
N623 C624 1.340 . S
N623 C626 1.361 . S
C624 H610 0.930 . S
C624 N623 1.340 . S
C624 C628 1.407 . S
C625 C626 1.413 . S
C625 C627 1.416 1_565 S
C625 C654 1.427 1_565 S
C626 C618 1.424 . S
C626 N623 1.361 . S
C626 C625 1.413 . S
C627 H616 0.931 . S
C627 C625 1.416 1_545 S
C627 C628 1.332 1_545 S
C628 H607 0.928 1_565 S
C628 C624 1.407 . S
C628 C627 1.332 1_565 S
H629 C622 0.930 . S
H630 C653 0.932 1_545 S
H631 C654 0.929 . S
O632 Tb588 2.465 . S
O632 C652 1.264 . S
O633 Tb588 2.387 . S
O633 C644 1.264 . S
O634 Tb599 2.349 . S
O634 C644 1.243 . S
O635 Tb588 2.428 . S
O635 C652 1.256 . S
O636 Tb588 2.308 . S
O636 C651 1.266 . S
O637 Tb599 2.393 . S
O637 C651 1.248 . S
O638 Tb599 2.465 . S
O638 C663 1.264 . S
O639 Tb599 2.387 . S
O639 C655 1.264 . S
O640 Tb588 2.349 . S
O640 C655 1.243 . S
O641 Tb599 2.428 . S
O641 C663 1.256 . S
O642 Tb599 2.308 . S
O642 C662 1.266 . S
O643 Tb588 2.393 . S
O643 C662 1.248 . S
C644 O633 1.264 . S
C644 O634 1.243 . S
C645 C648 1.399 . S
C645 C650 1.383 . S
C645 C652 1.496 1_545 S
C646 C647 1.399 . S
C646 C650 1.389 . S
C647 C646 1.399 . S
C647 C649 1.380 . S
C647 H664 0.929 . S
C648 C645 1.399 . S
C648 C649 1.392 . S
C648 H665 0.929 . S
C649 C647 1.380 . S
C649 C648 1.392 . S
C649 H666 0.929 . S
C650 C645 1.383 . S
C650 C646 1.389 . S
C650 H667 0.931 . S
C651 O636 1.266 . S
C651 O637 1.248 . S
C652 Tb588 2.802 . S
C652 O632 1.264 . S
C652 O635 1.256 . S
C652 C645 1.496 1_565 S
C653 C620 1.448 . S
C653 H630 0.932 1_565 S
C653 C654 1.328 1_565 S
C654 C625 1.427 1_545 S
C654 H631 0.929 . S
C654 C653 1.328 1_545 S
C655 O639 1.264 . S
C655 O640 1.243 . S
C656 C659 1.399 . S
C656 C660 1.383 . S
C656 C663 1.496 . S
C657 C658 1.399 . S
C657 C660 1.389 . S
C658 C657 1.399 . S
C658 C661 1.380 . S
C658 H668 0.929 . S
C659 C656 1.399 . S
C659 C661 1.392 . S
C659 H669 0.929 . S
C660 C656 1.383 . S
C660 C657 1.389 . S
C660 H670 0.931 . S
C661 C658 1.380 . S
C661 C659 1.392 . S
C661 H671 0.929 . S
C662 O642 1.266 . S
C662 O643 1.248 . S
C663 Tb599 2.802 . S
C663 O638 1.264 . S
C663 O641 1.256 . S
C663 C656 1.496 . S
H664 C647 0.929 . S
H665 C648 0.929 . S
H666 C649 0.929 . S
H667 C650 0.931 . S
H668 C658 0.929 . S
H669 C659 0.929 . S
H670 C660 0.931 . S
H671 C661 0.929 . S
Tb672 N701 2.617 . S
Tb672 N707 2.572 . S
Tb672 O716 2.465 . S
Tb672 O717 2.387 . S
Tb672 O719 2.428 . S
Tb672 O720 2.308 . S
Tb672 O724 2.349 . S
Tb672 O727 2.393 . S
Tb672 C736 2.802 . S
C673 N674 1.379 . S
C673 C676 1.416 . S
C673 C680 1.424 . S
N674 C673 1.379 . S
N674 C677 1.334 . S
N674 Tb683 2.617 . S
C675 C677 1.390 . S
C675 C678 1.339 . S
C675 H695 0.930 . S
C676 C673 1.416 . S
C676 C678 1.416 . S
C676 C682 1.448 . S
C677 N674 1.334 . S
C677 C675 1.390 . S
C677 H688 0.930 . S
C678 C675 1.339 . S
C678 C676 1.416 . S
C678 H699 0.930 . S
C679 C680 1.413 . S
C679 C681 1.427 . S
C679 C685 1.416 . S
C680 C673 1.424 . S
C680 C679 1.413 . S
C680 N684 1.361 . S
C681 C679 1.427 . S
C681 C682 1.328 . S
C681 H696 0.929 . S
C682 C676 1.448 . S
C682 C681 1.328 . S
C682 H697 0.930 . S
Tb683 N674 2.617 . S
Tb683 N684 2.572 . S
Tb683 O718 2.349 . S
Tb683 O721 2.393 . S
Tb683 O722 2.465 . S
Tb683 O723 2.387 . S
Tb683 O725 2.428 . S
Tb683 O726 2.308 . S
Tb683 C747 2.802 . S
N684 C680 1.361 . S
N684 Tb683 2.572 . S
N684 C686 1.340 . S
C685 C679 1.416 . S
C685 C687 1.332 . S
C685 H693 0.931 . S
C686 N684 1.340 . S
C686 C687 1.407 . S
C686 H692 0.930 . S
C687 C685 1.332 . S
C687 C686 1.407 . S
C687 H689 0.929 . S
H688 C677 0.930 . S
H689 C687 0.929 . S
H690 C705 0.930 . S
H691 C712 0.929 . S
H692 C686 0.930 . S
H693 C685 0.931 . S
H694 C708 0.930 . S
H695 C675 0.930 . S
H696 C681 0.929 . S
H697 C682 0.930 . S
H698 C703 0.930 . S
H699 C678 0.930 . S
H700 C711 0.931 1_545 S
N701 Tb672 2.617 . S
N701 C702 1.379 . S
N701 C705 1.334 . S
C702 N701 1.379 . S
C702 C704 1.416 . S
C702 C710 1.424 . S
C703 H698 0.930 . S
C703 C705 1.390 . S
C703 C706 1.339 . S
C704 C702 1.416 . S
C704 C706 1.416 . S
C704 C737 1.427 1_565 S
C705 H690 0.930 . S
C705 N701 1.334 . S
C705 C703 1.390 . S
C706 C703 1.339 . S
C706 C704 1.416 . S
C706 H713 0.930 . S
N707 Tb672 2.572 . S
N707 C708 1.340 . S
N707 C710 1.361 . S
C708 H694 0.930 . S
C708 N707 1.340 . S
C708 C712 1.407 . S
C709 C710 1.413 . S
C709 C711 1.416 . S
C709 C738 1.427 1_565 S
C710 C702 1.424 . S
C710 N707 1.361 . S
C710 C709 1.413 . S
C711 H700 0.931 1_565 S
C711 C709 1.416 . S
C711 C712 1.332 . S
C712 H691 0.929 . S
C712 C708 1.407 . S
C712 C711 1.332 . S
H713 C706 0.930 . S
H714 C737 0.944 . S
H715 C738 0.929 . S
O716 Tb672 2.465 . S
O716 C736 1.264 . S
O717 Tb672 2.387 . S
O717 C728 1.264 . S
O718 Tb683 2.349 . S
O718 C728 1.243 . S
O719 Tb672 2.428 . S
O719 C736 1.256 . S
O720 Tb672 2.308 . S
O720 C735 1.266 . S
O721 Tb683 2.393 . S
O721 C735 1.248 . S
O722 Tb683 2.465 . S
O722 C747 1.264 . S
O723 Tb683 2.387 . S
O723 C739 1.264 . S
O724 Tb672 2.349 . S
O724 C739 1.243 . S
O725 Tb683 2.428 . S
O725 C747 1.256 . S
O726 Tb683 2.308 . S
O726 C746 1.266 . S
O727 Tb672 2.393 . S
O727 C746 1.248 . S
C728 O717 1.264 . S
C728 O718 1.243 . S
C729 C732 1.399 . S
C729 C734 1.383 . S
C729 C736 1.496 . S
C730 C731 1.399 . S
C730 C734 1.389 . S
C731 C730 1.399 . S
C731 C733 1.380 . S
C731 H748 0.929 . S
C732 C729 1.399 . S
C732 C733 1.392 . S
C732 H749 0.929 . S
C733 C731 1.380 . S
C733 C732 1.392 . S
C733 H750 0.929 . S
C734 C729 1.383 . S
C734 C730 1.389 . S
C734 H751 0.931 . S
C735 O720 1.266 . S
C735 O721 1.248 . S
C736 Tb672 2.802 . S
C736 O716 1.264 . S
C736 O719 1.256 . S
C736 C729 1.496 . S
C737 C704 1.427 1_545 S
C737 H714 0.944 . S
C737 C738 1.337 . S
C738 C709 1.427 1_545 S
C738 H715 0.929 . S
C738 C737 1.337 . S
C739 O723 1.264 . S
C739 O724 1.243 . S
C740 C743 1.399 . S
C740 C744 1.383 . S
C740 C747 1.496 . S
C741 C742 1.399 . S
C741 C744 1.389 . S
C742 C741 1.399 . S
C742 C745 1.380 . S
C742 H752 0.929 . S
C743 C740 1.399 . S
C743 C745 1.392 . S
C743 H753 0.929 . S
C744 C740 1.383 . S
C744 C741 1.389 . S
C744 H754 0.931 . S
C745 C742 1.380 . S
C745 C743 1.392 . S
C745 H755 0.929 . S
C746 O726 1.266 . S
C746 O727 1.248 . S
C747 Tb683 2.802 . S
C747 O722 1.264 . S
C747 O725 1.256 . S
C747 C740 1.496 . S
H748 C731 0.929 . S
H749 C732 0.929 . S
H750 C733 0.929 . S
H751 C734 0.931 . S
H752 C742 0.929 . S
H753 C743 0.929 . S
H754 C744 0.931 . S
H755 C745 0.929 . S
Tb756 N785 2.617 . S
Tb756 N791 2.572 . S
Tb756 O800 2.465 . S
Tb756 O801 2.387 . S
Tb756 O803 2.428 . S
Tb756 O804 2.308 . S
Tb756 O808 2.349 . S
Tb756 O811 2.393 . S
Tb756 C820 2.802 . S
C757 N758 1.379 . S
C757 C760 1.416 . S
C757 C764 1.424 . S
N758 C757 1.379 . S
N758 C761 1.334 . S
N758 Tb767 2.617 . S
C759 C761 1.390 . S
C759 C762 1.339 . S
C759 H779 0.930 1_556 S
C760 C757 1.416 . S
C760 C762 1.416 . S
C760 C766 1.448 . S
C761 N758 1.334 . S
C761 C759 1.390 . S
C761 H772 0.930 . S
C762 C759 1.339 . S
C762 C760 1.416 . S
C762 H783 0.930 . S
C763 C764 1.413 . S
C763 C765 1.427 . S
C763 C769 1.416 . S
C764 C757 1.424 . S
C764 C763 1.413 . S
C764 N768 1.361 . S
C765 C763 1.427 . S
C765 C766 1.328 . S
C765 H780 0.929 . S
C766 C760 1.448 . S
C766 C765 1.328 . S
C766 H781 0.930 . S
Tb767 N758 2.617 . S
Tb767 N768 2.572 . S
Tb767 O802 2.349 . S
Tb767 O805 2.393 . S
Tb767 O806 2.465 . S
Tb767 O807 2.387 . S
Tb767 O809 2.428 . S
Tb767 O810 2.308 . S
Tb767 C831 2.802 . S
N768 C764 1.361 . S
N768 Tb767 2.572 . S
N768 C770 1.340 . S
C769 C763 1.416 . S
C769 C771 1.332 . S
C769 H777 0.931 . S
C770 N768 1.340 . S
C770 C771 1.407 . S
C770 H776 0.930 . S
C771 C769 1.332 . S
C771 C770 1.407 . S
C771 H773 0.929 . S
H772 C761 0.930 . S
H773 C771 0.929 . S
H774 C789 0.930 . S
H775 C796 0.927 1_655 S
H776 C770 0.930 . S
H777 C769 0.931 . S
H778 C792 0.930 . S
H779 C759 0.930 1_554 S
H780 C765 0.929 . S
H781 C766 0.930 . S
H782 C787 0.930 . S
H783 C762 0.930 . S
H784 C795 0.931 . S
N785 Tb756 2.617 . S
N785 C786 1.379 . S
N785 C789 1.334 . S
C786 N785 1.379 . S
C786 C788 1.416 . S
C786 C794 1.424 . S
C787 H782 0.930 . S
C787 C789 1.390 . S
C787 C790 1.339 . S
C788 C786 1.416 . S
C788 C790 1.416 . S
C788 C821 1.448 . S
C789 H774 0.930 . S
C789 N785 1.334 . S
C789 C787 1.390 . S
C790 C787 1.339 . S
C790 C788 1.416 . S
C790 H797 0.930 . S
N791 Tb756 2.572 . S
N791 C792 1.340 . S
N791 C794 1.361 . S
C792 H778 0.930 . S
C792 N791 1.340 . S
C792 C796 1.407 . S
C793 C794 1.413 . S
C793 C795 1.416 1_455 S
C793 C822 1.427 1_455 S
C794 C786 1.424 . S
C794 N791 1.361 . S
C794 C793 1.413 . S
C795 H784 0.931 . S
C795 C793 1.416 1_655 S
C795 C796 1.332 1_655 S
C796 H775 0.927 1_455 S
C796 C792 1.407 . S
C796 C795 1.332 1_455 S
H797 C790 0.930 . S
H798 C821 0.914 1_655 S
H799 C822 0.929 . S
O800 Tb756 2.465 . S
O800 C820 1.264 . S
O801 Tb756 2.387 . S
O801 C812 1.264 . S
O802 Tb767 2.349 . S
O802 C812 1.243 . S
O803 Tb756 2.428 . S
O803 C820 1.256 . S
O804 Tb756 2.308 . S
O804 C819 1.266 . S
O805 Tb767 2.393 . S
O805 C819 1.248 . S
O806 Tb767 2.465 . S
O806 C831 1.264 . S
O807 Tb767 2.387 . S
O807 C823 1.264 . S
O808 Tb756 2.349 . S
O808 C823 1.243 . S
O809 Tb767 2.428 . S
O809 C831 1.256 . S
O810 Tb767 2.308 . S
O810 C830 1.266 . S
O811 Tb756 2.393 . S
O811 C830 1.248 . S
C812 O801 1.264 . S
C812 O802 1.243 . S
C813 C816 1.399 . S
C813 C818 1.383 . S
C813 C820 1.496 1_655 S
C814 C815 1.399 . S
C814 C818 1.389 . S
C815 C814 1.399 . S
C815 C817 1.380 . S
C815 H832 0.929 . S
C816 C813 1.399 . S
C816 C817 1.392 . S
C816 H833 0.929 . S
C817 C815 1.380 . S
C817 C816 1.392 . S
C817 H834 0.929 . S
C818 C813 1.383 . S
C818 C814 1.389 . S
C818 H835 0.931 . S
C819 O804 1.266 . S
C819 O805 1.248 . S
C820 Tb756 2.802 . S
C820 O800 1.264 . S
C820 O803 1.256 . S
C820 C813 1.496 1_455 S
C821 C788 1.448 . S
C821 H798 0.914 1_455 S
C821 C822 1.328 1_455 S
C822 C793 1.427 1_655 S
C822 H799 0.929 . S
C822 C821 1.328 1_655 S
C823 O807 1.264 . S
C823 O808 1.243 . S
C824 C827 1.399 . S
C824 C828 1.383 . S
C824 C831 1.496 . S
C825 C826 1.399 . S
C825 C828 1.389 . S
C826 C825 1.399 . S
C826 C829 1.380 . S
C826 H836 0.929 . S
C827 C824 1.399 . S
C827 C829 1.392 . S
C827 H837 0.929 . S
C828 C824 1.383 . S
C828 C825 1.389 . S
C828 H838 0.931 . S
C829 C826 1.380 . S
C829 C827 1.392 . S
C829 H839 0.929 . S
C830 O810 1.266 . S
C830 O811 1.248 . S
C831 Tb767 2.802 . S
C831 O806 1.264 . S
C831 O809 1.256 . S
C831 C824 1.496 . S
H832 C815 0.929 . S
H833 C816 0.929 . S
H834 C817 0.929 . S
H835 C818 0.931 . S
H836 C826 0.929 . S
H837 C827 0.929 . S
H838 C828 0.931 . S
H839 C829 0.929 . S
Tb840 N869 2.617 . S
Tb840 N875 2.572 . S
Tb840 O884 2.465 . S
Tb840 O885 2.387 . S
Tb840 O887 2.428 . S
Tb840 O888 2.308 . S
Tb840 O892 2.349 . S
Tb840 O895 2.393 . S
Tb840 C904 2.802 . S
C841 N842 1.379 . S
C841 C844 1.416 . S
C841 C848 1.424 . S
N842 C841 1.379 . S
N842 C845 1.334 . S
N842 Tb851 2.617 . S
C843 C845 1.390 . S
C843 C846 1.339 . S
C843 H863 0.930 . S
C844 C841 1.416 . S
C844 C846 1.416 . S
C844 C850 1.448 . S
C845 N842 1.334 . S
C845 C843 1.390 . S
C845 H856 0.930 . S
C846 C843 1.339 . S
C846 C844 1.416 . S
C846 H867 0.930 . S
C847 C848 1.413 . S
C847 C849 1.427 1_565 S
C847 C853 1.416 1_565 S
C848 C841 1.424 . S
C848 C847 1.413 . S
C848 N852 1.361 . S
C849 C847 1.427 1_545 S
C849 C850 1.328 1_545 S
C849 H864 0.929 . S
C850 C844 1.448 . S
C850 C849 1.328 1_565 S
C850 H865 0.932 1_565 S
Tb851 N842 2.617 . S
Tb851 N852 2.572 . S
Tb851 O886 2.349 . S
Tb851 O889 2.393 . S
Tb851 O890 2.465 . S
Tb851 O891 2.387 . S
Tb851 O893 2.428 . S
Tb851 O894 2.308 . S
Tb851 C915 2.802 . S
N852 C848 1.361 . S
N852 Tb851 2.572 . S
N852 C854 1.340 . S
C853 C847 1.416 1_545 S
C853 C855 1.332 1_545 S
C853 H861 0.931 . S
C854 N852 1.340 . S
C854 C855 1.407 . S
C854 H860 0.930 . S
C855 C853 1.332 1_565 S
C855 C854 1.407 . S
C855 H857 0.928 1_565 S
H856 C845 0.930 . S
H857 C855 0.928 1_545 S
H858 C873 0.930 . S
H859 C880 0.929 . S
H860 C854 0.930 . S
H861 C853 0.931 . S
H862 C876 0.930 . S
H863 C843 0.930 . S
H864 C849 0.929 . S
H865 C850 0.932 1_545 S
H866 C871 0.930 . S
H867 C846 0.930 . S
H868 C879 0.931 1_655 S
N869 Tb840 2.617 . S
N869 C870 1.379 . S
N869 C873 1.334 . S
C870 N869 1.379 . S
C870 C872 1.416 . S
C870 C878 1.424 . S
C871 H866 0.930 . S
C871 C873 1.390 . S
C871 C874 1.339 . S
C872 C870 1.416 . S
C872 C874 1.416 . S
C872 C905 1.431 1_455 S
C873 H858 0.930 . S
C873 N869 1.334 . S
C873 C871 1.390 . S
C874 C871 1.339 . S
C874 C872 1.416 . S
C874 H881 0.930 . S
N875 Tb840 2.572 . S
N875 C876 1.340 . S
N875 C878 1.361 . S
C876 H862 0.930 . S
C876 N875 1.340 . S
C876 C880 1.407 . S
C877 C878 1.413 . S
C877 C879 1.416 . S
C877 C906 1.427 1_455 S
C878 C870 1.424 . S
C878 N875 1.361 . S
C878 C877 1.413 . S
C879 H868 0.931 1_455 S
C879 C877 1.416 . S
C879 C880 1.332 . S
C880 H859 0.929 . S
C880 C876 1.407 . S
C880 C879 1.332 . S
H881 C874 0.930 . S
H882 C905 0.945 . S
H883 C906 0.929 . S
O884 Tb840 2.465 . S
O884 C904 1.264 . S
O885 Tb840 2.387 . S
O885 C896 1.264 . S
O886 Tb851 2.349 . S
O886 C896 1.243 . S
O887 Tb840 2.428 . S
O887 C904 1.256 . S
O888 Tb840 2.308 . S
O888 C903 1.266 . S
O889 Tb851 2.393 . S
O889 C903 1.248 . S
O890 Tb851 2.465 . S
O890 C915 1.264 . S
O891 Tb851 2.387 . S
O891 C907 1.264 . S
O892 Tb840 2.349 . S
O892 C907 1.243 . S
O893 Tb851 2.428 . S
O893 C915 1.256 . S
O894 Tb851 2.308 . S
O894 C914 1.266 . S
O895 Tb840 2.393 . S
O895 C914 1.248 . S
C896 O885 1.264 . S
C896 O886 1.243 . S
C897 C900 1.399 . S
C897 C902 1.383 . S
C897 C904 1.496 . S
C898 C899 1.399 . S
C898 C902 1.389 . S
C899 C898 1.399 . S
C899 C901 1.380 . S
C899 H916 0.929 . S
C900 C897 1.399 . S
C900 C901 1.392 . S
C900 H917 0.929 . S
C901 C899 1.380 . S
C901 C900 1.392 . S
C901 H918 0.929 . S
C902 C897 1.383 . S
C902 C898 1.389 . S
C902 H919 0.931 . S
C903 O888 1.266 . S
C903 O889 1.248 . S
C904 Tb840 2.802 . S
C904 O884 1.264 . S
C904 O887 1.256 . S
C904 C897 1.496 . S
C905 C872 1.431 1_655 S
C905 H882 0.945 . S
C905 C906 1.332 . S
C906 C877 1.427 1_655 S
C906 H883 0.929 . S
C906 C905 1.332 . S
C907 O891 1.264 . S
C907 O892 1.243 . S
C908 C911 1.399 . S
C908 C912 1.383 . S
C908 C915 1.496 1_545 S
C909 C910 1.399 . S
C909 C912 1.389 . S
C910 C909 1.399 . S
C910 C913 1.380 . S
C910 H920 0.929 . S
C911 C908 1.399 . S
C911 C913 1.392 . S
C911 H921 0.929 . S
C912 C908 1.383 . S
C912 C909 1.389 . S
C912 H922 0.931 . S
C913 C910 1.380 . S
C913 C911 1.392 . S
C913 H923 0.929 . S
C914 O894 1.266 . S
C914 O895 1.248 . S
C915 Tb851 2.802 . S
C915 O890 1.264 . S
C915 O893 1.256 . S
C915 C908 1.496 1_565 S
H916 C899 0.929 . S
H917 C900 0.929 . S
H918 C901 0.929 . S
H919 C902 0.931 . S
H920 C910 0.929 . S
H921 C911 0.929 . S
H922 C912 0.931 . S
H923 C913 0.929 . S
Tb924 N953 2.617 . S
Tb924 N959 2.572 . S
Tb924 O968 2.465 . S
Tb924 O969 2.387 . S
Tb924 O971 2.428 . S
Tb924 O972 2.308 . S
Tb924 O976 2.349 . S
Tb924 O979 2.393 . S
Tb924 C988 2.802 . S
C925 N926 1.379 . S
C925 C928 1.416 . S
C925 C932 1.424 . S
N926 C925 1.379 . S
N926 C929 1.334 . S
N926 Tb935 2.617 . S
C927 C929 1.390 . S
C927 C930 1.339 . S
C927 H947 0.930 1_556 S
C928 C925 1.416 . S
C928 C930 1.416 . S
C928 C934 1.427 1_565 S
C929 N926 1.334 . S
C929 C927 1.390 . S
C929 H940 0.930 . S
C930 C927 1.339 . S
C930 C928 1.416 . S
C930 H951 0.930 . S
C931 C932 1.413 . S
C931 C933 1.427 1_565 S
C931 C937 1.416 . S
C932 C925 1.424 . S
C932 C931 1.413 . S
C932 N936 1.361 . S
C933 C931 1.427 1_545 S
C933 C934 1.337 . S
C933 H948 0.929 . S
C934 C928 1.427 1_545 S
C934 C933 1.337 . S
C934 H949 0.944 . S
Tb935 N926 2.617 . S
Tb935 N936 2.572 . S
Tb935 O970 2.349 . S
Tb935 O973 2.393 . S
Tb935 O974 2.465 . S
Tb935 O975 2.387 . S
Tb935 O977 2.428 . S
Tb935 O978 2.308 . S
Tb935 C999 2.802 . S
N936 C932 1.361 . S
N936 Tb935 2.572 . S
N936 C938 1.340 . S
C937 C931 1.416 . S
C937 C939 1.332 . S
C937 H945 0.931 1_565 S
C938 N936 1.340 . S
C938 C939 1.407 . S
C938 H944 0.930 . S
C939 C937 1.332 . S
C939 C938 1.407 . S
C939 H941 0.929 . S
H940 C929 0.930 . S
H941 C939 0.929 . S
H942 C957 0.930 . S
H943 C964 0.929 . S
H944 C938 0.930 . S
H945 C937 0.931 1_545 S
H946 C960 0.930 . S
H947 C927 0.930 1_554 S
H948 C933 0.929 . S
H949 C934 0.944 . S
H950 C955 0.930 . S
H951 C930 0.930 . S
H952 C963 0.931 . S
N953 Tb924 2.617 . S
N953 C954 1.379 . S
N953 C957 1.334 . S
C954 N953 1.379 . S
C954 C956 1.416 . S
C954 C962 1.424 . S
C955 H950 0.930 . S
C955 C957 1.390 . S
C955 C958 1.339 . S
C956 C954 1.416 . S
C956 C958 1.416 . S
C956 C989 1.448 . S
C957 H942 0.930 . S
C957 N953 1.334 . S
C957 C955 1.390 . S
C958 C955 1.339 . S
C958 C956 1.416 . S
C958 H965 0.930 . S
N959 Tb924 2.572 . S
N959 C960 1.340 . S
N959 C962 1.361 . S
C960 H946 0.930 . S
C960 N959 1.340 . S
C960 C964 1.407 . S
C961 C962 1.413 . S
C961 C963 1.416 . S
C961 C990 1.427 . S
C962 C954 1.424 . S
C962 N959 1.361 . S
C962 C961 1.413 . S
C963 H952 0.931 . S
C963 C961 1.416 . S
C963 C964 1.332 . S
C964 H943 0.929 . S
C964 C960 1.407 . S
C964 C963 1.332 . S
H965 C958 0.930 . S
H966 C989 0.930 . S
H967 C990 0.929 . S
O968 Tb924 2.465 . S
O968 C988 1.264 . S
O969 Tb924 2.387 . S
O969 C980 1.264 . S
O970 Tb935 2.349 . S
O970 C980 1.243 . S
O971 Tb924 2.428 . S
O971 C988 1.256 . S
O972 Tb924 2.308 . S
O972 C987 1.266 . S
O973 Tb935 2.393 . S
O973 C987 1.248 . S
O974 Tb935 2.465 . S
O974 C999 1.264 . S
O975 Tb935 2.387 . S
O975 C991 1.264 . S
O976 Tb924 2.349 . S
O976 C991 1.243 . S
O977 Tb935 2.428 . S
O977 C999 1.256 . S
O978 Tb935 2.308 . S
O978 C998 1.266 . S
O979 Tb924 2.393 . S
O979 C998 1.248 . S
C980 O969 1.264 . S
C980 O970 1.243 . S
C981 C984 1.399 . S
C981 C986 1.383 . S
C981 C988 1.496 . S
C982 C983 1.399 . S
C982 C986 1.389 . S
C983 C982 1.399 . S
C983 C985 1.380 . S
C983 H1000 0.929 . S
C984 C981 1.399 . S
C984 C985 1.392 . S
C984 H1001 0.929 . S
C985 C983 1.380 . S
C985 C984 1.392 . S
C985 H1002 0.929 . S
C986 C981 1.383 . S
C986 C982 1.389 . S
C986 H1003 0.931 . S
C987 O972 1.266 . S
C987 O973 1.248 . S
C988 Tb924 2.802 . S
C988 O968 1.264 . S
C988 O971 1.256 . S
C988 C981 1.496 . S
C989 C956 1.448 . S
C989 H966 0.930 . S
C989 C990 1.328 . S
C990 C961 1.427 . S
C990 H967 0.929 . S
C990 C989 1.328 . S
C991 O975 1.264 . S
C991 O976 1.243 . S
C992 C995 1.399 . S
C992 C996 1.383 . S
C992 C999 1.496 . S
C993 C994 1.399 . S
C993 C996 1.389 . S
C994 C993 1.399 . S
C994 C997 1.380 . S
C994 H1004 0.929 . S
C995 C992 1.399 . S
C995 C997 1.392 . S
C995 H1005 0.929 . S
C996 C992 1.383 . S
C996 C993 1.389 . S
C996 H1006 0.931 . S
C997 C994 1.380 . S
C997 C995 1.392 . S
C997 H1007 0.929 . S
C998 O978 1.266 . S
C998 O979 1.248 . S
C999 Tb935 2.802 . S
C999 O974 1.264 . S
C999 O977 1.256 . S
C999 C992 1.496 . S
H1000 C983 0.929 . S
H1001 C984 0.929 . S
H1002 C985 0.929 . S
H1003 C986 0.931 . S
H1004 C994 0.929 . S
H1005 C995 0.929 . S
H1006 C996 0.931 . S
H1007 C997 0.929 . S
H1008 C1020 0.930 . S
H1009 C1022 0.930 . S
H1010 C1023 0.930 . S
H1011 C1027 0.959 . S
H1012 C1027 0.959 . S
H1013 C1027 0.961 . S
H1014 C1028 0.960 . S
H1015 C1028 0.961 . S
H1016 C1028 0.959 . S
H1017 C1031 0.929 . S
H1018 C1032 0.931 . S
H1019 C1034 0.930 . S
C1020 H1008 0.930 . S
C1020 C1021 1.399 . S
C1020 C1025 1.399 . S
C1021 C1020 1.399 . S
C1021 C1022 1.376 . S
C1022 H1009 0.930 . S
C1022 C1021 1.376 . S
C1022 C1023 1.388 . S
C1023 H1010 0.930 . S
C1023 C1022 1.388 . S
C1023 C1024 1.390 . S
C1024 C1023 1.390 . S
C1024 C1025 1.394 . S
C1024 C1030 1.465 . S
C1025 C1020 1.399 . S
C1025 C1024 1.394 . S
C1025 C1026 1.516 . S
C1026 C1025 1.516 . S
C1026 C1027 1.502 . S
C1026 C1028 1.561 . S
C1026 C1029 1.526 . S
C1027 H1011 0.959 . S
C1027 H1012 0.959 . S
C1027 H1013 0.961 . S
C1027 C1026 1.502 . S
C1028 H1014 0.960 . S
C1028 H1015 0.961 . S
C1028 H1016 0.959 . S
C1028 C1026 1.561 . S
C1029 C1026 1.526 . S
C1029 C1030 1.396 . S
C1029 C1034 1.390 . S
C1030 C1024 1.465 . S
C1030 C1029 1.396 . S
C1030 C1031 1.399 . S
C1031 H1017 0.929 . S
C1031 C1030 1.399 . S
C1031 C1032 1.385 . S
C1032 H1018 0.931 . S
C1032 C1031 1.385 . S
C1032 C1033 1.389 . S
C1033 C1032 1.389 . S
C1033 C1034 1.387 . S
C1034 H1019 0.930 . S
C1034 C1029 1.390 . S
C1034 C1033 1.387 . S
H1035 C1047 0.930 . S
H1036 C1049 0.930 . S
H1037 C1050 0.930 . S
H1038 C1054 0.959 . S
H1039 C1054 0.953 1_655 S
H1040 C1054 0.961 . S
H1041 C1055 0.960 1_455 S
H1042 C1055 0.961 . S
H1043 C1055 0.959 . S
H1044 C1058 0.929 . S
H1045 C1059 0.931 . S
H1046 C1061 0.930 . S
C1047 H1035 0.930 . S
C1047 C1048 1.399 . S
C1047 C1052 1.399 . S
C1048 C1047 1.399 . S
C1048 C1049 1.376 . S
C1049 H1036 0.930 . S
C1049 C1048 1.376 . S
C1049 C1050 1.388 . S
C1050 H1037 0.930 . S
C1050 C1049 1.388 . S
C1050 C1051 1.390 . S
C1051 C1050 1.390 . S
C1051 C1052 1.394 . S
C1051 C1057 1.465 1_455 S
C1052 C1047 1.399 . S
C1052 C1051 1.394 . S
C1052 C1053 1.516 . S
C1053 C1052 1.516 . S
C1053 C1054 1.502 . S
C1053 C1055 1.561 1_455 S
C1053 C1056 1.526 1_455 S
C1054 H1038 0.959 . S
C1054 H1039 0.953 1_455 S
C1054 H1040 0.961 . S
C1054 C1053 1.502 . S
C1055 H1041 0.960 1_655 S
C1055 H1042 0.961 . S
C1055 H1043 0.959 . S
C1055 C1053 1.561 1_655 S
C1056 C1053 1.526 1_655 S
C1056 C1057 1.396 . S
C1056 C1061 1.390 . S
C1057 C1051 1.465 1_655 S
C1057 C1056 1.396 . S
C1057 C1058 1.399 . S
C1058 H1044 0.929 . S
C1058 C1057 1.399 . S
C1058 C1059 1.385 . S
C1059 H1045 0.931 . S
C1059 C1058 1.385 . S
C1059 C1060 1.389 . S
C1060 C1059 1.389 . S
C1060 C1061 1.387 . S
C1061 H1046 0.930 . S
C1061 C1056 1.390 . S
C1061 C1060 1.387 . S
H1062 C1074 0.930 . S
H1063 C1076 0.930 . S
H1064 C1077 0.930 . S
H1065 C1081 0.959 . S
H1066 C1081 0.959 . S
H1067 C1081 0.961 . S
H1068 C1082 0.960 . S
H1069 C1082 0.961 1_565 S
H1070 C1082 0.959 . S
H1071 C1085 0.929 . S
H1072 C1086 0.931 . S
H1073 C1088 0.930 . S
C1074 H1062 0.930 . S
C1074 C1075 1.399 . S
C1074 C1079 1.399 . S
C1075 C1074 1.399 . S
C1075 C1076 1.376 . S
C1076 H1063 0.930 . S
C1076 C1075 1.376 . S
C1076 C1077 1.388 . S
C1077 H1064 0.930 . S
C1077 C1076 1.388 . S
C1077 C1078 1.390 . S
C1078 C1077 1.390 . S
C1078 C1079 1.394 . S
C1078 C1084 1.465 1_545 S
C1079 C1074 1.399 . S
C1079 C1078 1.394 . S
C1079 C1080 1.516 1_545 S
C1080 C1079 1.516 1_565 S
C1080 C1081 1.502 . S
C1080 C1082 1.561 1_565 S
C1080 C1083 1.526 . S
C1081 H1065 0.959 . S
C1081 H1066 0.959 . S
C1081 H1067 0.961 . S
C1081 C1080 1.502 . S
C1082 H1068 0.960 . S
C1082 H1069 0.961 1_545 S
C1082 H1070 0.959 . S
C1082 C1080 1.561 1_545 S
C1083 C1080 1.526 . S
C1083 C1084 1.396 . S
C1083 C1088 1.390 . S
C1084 C1078 1.465 1_565 S
C1084 C1083 1.396 . S
C1084 C1085 1.399 . S
C1085 H1071 0.929 . S
C1085 C1084 1.399 . S
C1085 C1086 1.385 . S
C1086 H1072 0.931 . S
C1086 C1085 1.385 . S
C1086 C1087 1.389 . S
C1087 C1086 1.389 . S
C1087 C1088 1.387 . S
C1088 H1073 0.930 . S
C1088 C1083 1.390 . S
C1088 C1087 1.387 . S
H1089 C1101 0.930 . S
H1090 C1103 0.930 . S
H1091 C1104 0.930 . S
H1092 C1108 0.959 . S
H1093 C1108 0.959 . S
H1094 C1108 0.961 . S
H1095 C1109 0.960 . S
H1096 C1109 0.961 . S
H1097 C1109 0.959 . S
H1098 C1112 0.929 . S
H1099 C1113 0.931 . S
H1100 C1115 0.930 . S
C1101 H1089 0.930 . S
C1101 C1102 1.399 . S
C1101 C1106 1.399 . S
C1102 C1101 1.399 . S
C1102 C1103 1.376 . S
C1103 H1090 0.930 . S
C1103 C1102 1.376 . S
C1103 C1104 1.388 . S
C1104 H1091 0.930 . S
C1104 C1103 1.388 . S
C1104 C1105 1.390 . S
C1105 C1104 1.390 . S
C1105 C1106 1.394 . S
C1105 C1111 1.465 . S
C1106 C1101 1.399 . S
C1106 C1105 1.394 . S
C1106 C1107 1.516 . S
C1107 C1106 1.516 . S
C1107 C1108 1.502 . S
C1107 C1109 1.561 . S
C1107 C1110 1.526 . S
C1108 H1092 0.959 . S
C1108 H1093 0.959 . S
C1108 H1094 0.961 . S
C1108 C1107 1.502 . S
C1109 H1095 0.960 . S
C1109 H1096 0.961 . S
C1109 H1097 0.959 . S
C1109 C1107 1.561 . S
C1110 C1107 1.526 . S
C1110 C1111 1.396 . S
C1110 C1115 1.390 . S
C1111 C1105 1.465 . S
C1111 C1110 1.396 . S
C1111 C1112 1.399 . S
C1112 H1098 0.929 . S
C1112 C1111 1.399 . S
C1112 C1113 1.385 . S
C1113 H1099 0.931 . S
C1113 C1112 1.385 . S
C1113 C1114 1.389 . S
C1114 C1113 1.389 . S
C1114 C1115 1.387 . S
C1115 H1100 0.930 . S
C1115 C1110 1.390 . S
C1115 C1114 1.387 . S
H1116 C1128 0.930 . S
H1117 C1130 0.930 . S
H1118 C1131 0.930 . S
H1119 C1135 0.959 . S
H1120 C1135 0.959 . S
H1121 C1135 0.961 . S
H1122 C1136 0.960 . S
H1123 C1136 0.961 1_655 S
H1124 C1136 0.959 1_655 S
H1125 C1139 0.929 . S
H1126 C1140 0.931 . S
H1127 C1142 0.930 . S
C1128 H1116 0.930 . S
C1128 C1129 1.399 . S
C1128 C1133 1.399 . S
C1129 C1128 1.399 . S
C1129 C1130 1.376 . S
C1130 H1117 0.930 . S
C1130 C1129 1.376 . S
C1130 C1131 1.388 . S
C1131 H1118 0.930 . S
C1131 C1130 1.388 . S
C1131 C1132 1.390 . S
C1132 C1131 1.390 . S
C1132 C1133 1.394 . S
C1132 C1138 1.465 1_455 S
C1133 C1128 1.399 . S
C1133 C1132 1.394 . S
C1133 C1134 1.516 . S
C1134 C1133 1.516 . S
C1134 C1135 1.502 . S
C1134 C1136 1.561 . S
C1134 C1137 1.526 1_455 S
C1135 H1119 0.959 . S
C1135 H1120 0.959 . S
C1135 H1121 0.961 . S
C1135 C1134 1.502 . S
C1136 H1122 0.960 . S
C1136 H1123 0.961 1_455 S
C1136 H1124 0.959 1_455 S
C1136 C1134 1.561 . S
C1137 C1134 1.526 1_655 S
C1137 C1138 1.396 . S
C1137 C1142 1.390 . S
C1138 C1132 1.465 1_655 S
C1138 C1137 1.396 . S
C1138 C1139 1.399 . S
C1139 H1125 0.929 . S
C1139 C1138 1.399 . S
C1139 C1140 1.385 . S
C1140 H1126 0.931 . S
C1140 C1139 1.385 . S
C1140 C1141 1.389 . S
C1141 C1140 1.389 . S
C1141 C1142 1.387 . S
C1142 H1127 0.930 . S
C1142 C1137 1.390 . S
C1142 C1141 1.387 . S
H1143 C1155 0.930 . S
H1144 C1157 0.930 . S
H1145 C1158 0.930 . S
H1146 C1162 0.959 . S
H1147 C1162 0.959 . S
H1148 C1162 0.961 . S
H1149 C1163 0.960 . S
H1150 C1163 0.961 1_545 S
H1151 C1163 0.959 1_545 S
H1152 C1166 0.929 . S
H1153 C1167 0.931 . S
H1154 C1169 0.930 . S
C1155 H1143 0.930 . S
C1155 C1156 1.399 . S
C1155 C1160 1.399 . S
C1156 C1155 1.399 . S
C1156 C1157 1.376 . S
C1157 H1144 0.930 . S
C1157 C1156 1.376 . S
C1157 C1158 1.388 . S
C1158 H1145 0.930 . S
C1158 C1157 1.388 . S
C1158 C1159 1.390 . S
C1159 C1158 1.390 . S
C1159 C1160 1.394 . S
C1159 C1165 1.465 1_565 S
C1160 C1155 1.399 . S
C1160 C1159 1.394 . S
C1160 C1161 1.516 . S
C1161 C1160 1.516 . S
C1161 C1162 1.502 . S
C1161 C1163 1.561 . S
C1161 C1164 1.526 1_565 S
C1162 H1146 0.959 . S
C1162 H1147 0.959 . S
C1162 H1148 0.961 . S
C1162 C1161 1.502 . S
C1163 H1149 0.960 . S
C1163 H1150 0.961 1_565 S
C1163 H1151 0.959 1_565 S
C1163 C1161 1.561 . S
C1164 C1161 1.526 1_545 S
C1164 C1165 1.396 . S
C1164 C1169 1.390 . S
C1165 C1159 1.465 1_545 S
C1165 C1164 1.396 . S
C1165 C1166 1.399 . S
C1166 H1152 0.929 . S
C1166 C1165 1.399 . S
C1166 C1167 1.385 . S
C1167 H1153 0.931 . S
C1167 C1166 1.385 . S
C1167 C1168 1.389 . S
C1168 C1167 1.389 . S
C1168 C1169 1.387 . S
C1169 H1154 0.930 . S
C1169 C1164 1.390 . S
C1169 C1168 1.387 . S
H1170 C1182 0.930 . S
H1171 C1184 0.930 . S
H1172 C1185 0.930 . S
H1173 C1189 0.959 . S
H1174 C1189 0.959 . S
H1175 C1189 0.961 . S
H1176 C1190 0.960 . S
H1177 C1190 0.961 . S
H1178 C1190 0.959 . S
H1179 C1193 0.929 . S
H1180 C1194 0.931 . S
H1181 C1196 0.930 . S
C1182 H1170 0.930 . S
C1182 C1183 1.399 . S
C1182 C1187 1.399 . S
C1183 C1182 1.399 . S
C1183 C1184 1.376 . S
C1184 H1171 0.930 . S
C1184 C1183 1.376 . S
C1184 C1185 1.388 . S
C1185 H1172 0.930 . S
C1185 C1184 1.388 . S
C1185 C1186 1.390 . S
C1186 C1185 1.390 . S
C1186 C1187 1.394 . S
C1186 C1192 1.465 . S
C1187 C1182 1.399 . S
C1187 C1186 1.394 . S
C1187 C1188 1.516 . S
C1188 C1187 1.516 . S
C1188 C1189 1.502 . S
C1188 C1190 1.561 . S
C1188 C1191 1.526 . S
C1189 H1173 0.959 . S
C1189 H1174 0.959 . S
C1189 H1175 0.961 . S
C1189 C1188 1.502 . S
C1190 H1176 0.960 . S
C1190 H1177 0.961 . S
C1190 H1178 0.959 . S
C1190 C1188 1.561 . S
C1191 C1188 1.526 . S
C1191 C1192 1.396 . S
C1191 C1196 1.390 . S
C1192 C1186 1.465 . S
C1192 C1191 1.396 . S
C1192 C1193 1.399 . S
C1193 H1179 0.929 . S
C1193 C1192 1.399 . S
C1193 C1194 1.385 . S
C1194 H1180 0.931 . S
C1194 C1193 1.385 . S
C1194 C1195 1.389 . S
C1195 C1194 1.389 . S
C1195 C1196 1.387 . S
C1196 H1181 0.930 . S
C1196 C1191 1.390 . S
C1196 C1195 1.387 . S
H1197 C1209 0.930 . S
H1198 C1211 0.930 . S
H1199 C1212 0.930 . S
H1200 C1216 0.959 . S
H1201 C1216 0.959 . S
H1202 C1216 0.961 . S
H1203 C1217 0.960 . S
H1204 C1217 0.961 . S
H1205 C1217 0.959 . S
H1206 C1220 0.929 . S
H1207 C1221 0.931 . S
H1208 C1223 0.930 . S
C1209 H1197 0.930 . S
C1209 C1210 1.399 . S
C1209 C1214 1.399 . S
C1210 C1209 1.399 . S
C1210 C1211 1.376 . S
C1211 H1198 0.930 . S
C1211 C1210 1.376 . S
C1211 C1212 1.388 . S
C1212 H1199 0.930 . S
C1212 C1211 1.388 . S
C1212 C1213 1.390 . S
C1213 C1212 1.390 . S
C1213 C1214 1.394 . S
C1213 C1219 1.465 1_455 S
C1214 C1209 1.399 . S
C1214 C1213 1.394 . S
C1214 C1215 1.516 1_455 S
C1215 C1214 1.516 1_655 S
C1215 C1216 1.502 . S
C1215 C1217 1.561 . S
C1215 C1218 1.526 . S
C1216 H1200 0.959 . S
C1216 H1201 0.959 . S
C1216 H1202 0.961 . S
C1216 C1215 1.502 . S
C1217 H1203 0.960 . S
C1217 H1204 0.961 . S
C1217 H1205 0.959 . S
C1217 C1215 1.561 . S
C1218 C1215 1.526 . S
C1218 C1219 1.396 . S
C1218 C1223 1.390 . S
C1219 C1213 1.465 1_655 S
C1219 C1218 1.396 . S
C1219 C1220 1.399 . S
C1220 H1206 0.929 . S
C1220 C1219 1.399 . S
C1220 C1221 1.385 . S
C1221 H1207 0.931 . S
C1221 C1220 1.385 . S
C1221 C1222 1.389 . S
C1222 C1221 1.389 . S
C1222 C1223 1.387 . S
C1223 H1208 0.930 . S
C1223 C1218 1.390 . S
C1223 C1222 1.387 . S
H1224 C1236 0.930 . S
H1225 C1238 0.930 . S
H1226 C1239 0.930 . S
H1227 C1243 0.959 . S
H1228 C1243 0.959 . S
H1229 C1243 0.961 . S
H1230 C1244 0.960 1_565 S
H1231 C1244 0.961 . S
H1232 C1244 0.959 . S
H1233 C1247 0.929 . S
H1234 C1248 0.931 . S
H1235 C1250 0.930 . S
C1236 H1224 0.930 . S
C1236 C1237 1.399 . S
C1236 C1241 1.399 . S
C1237 C1236 1.399 . S
C1237 C1238 1.376 . S
C1238 H1225 0.930 . S
C1238 C1237 1.376 . S
C1238 C1239 1.388 . S
C1239 H1226 0.930 . S
C1239 C1238 1.388 . S
C1239 C1240 1.390 . S
C1240 C1239 1.390 . S
C1240 C1241 1.394 . S
C1240 C1246 1.465 1_565 S
C1241 C1236 1.399 . S
C1241 C1240 1.394 . S
C1241 C1242 1.516 1_565 S
C1242 C1241 1.516 1_545 S
C1242 C1243 1.502 . S
C1242 C1244 1.561 . S
C1242 C1245 1.526 . S
C1243 H1227 0.959 . S
C1243 H1228 0.959 . S
C1243 H1229 0.961 . S
C1243 C1242 1.502 . S
C1244 H1230 0.960 1_545 S
C1244 H1231 0.961 . S
C1244 H1232 0.959 . S
C1244 C1242 1.561 . S
C1245 C1242 1.526 . S
C1245 C1246 1.396 . S
C1245 C1250 1.390 . S
C1246 C1240 1.465 1_545 S
C1246 C1245 1.396 . S
C1246 C1247 1.399 . S
C1247 H1233 0.929 . S
C1247 C1246 1.399 . S
C1247 C1248 1.385 . S
C1248 H1234 0.931 . S
C1248 C1247 1.385 . S
C1248 C1249 1.389 . S
C1249 C1248 1.389 . S
C1249 C1250 1.387 . S
C1250 H1235 0.930 . S
C1250 C1245 1.390 . S
C1250 C1249 1.387 . S
H1251 C1263 0.930 . S
H1252 C1265 0.930 . S
H1253 C1266 0.930 . S
H1254 C1270 0.959 . S
H1255 C1270 0.959 . S
H1256 C1270 0.961 . S
H1257 C1271 0.960 . S
H1258 C1271 0.961 . S
H1259 C1271 0.959 . S
H1260 C1274 0.929 . S
H1261 C1275 0.931 . S
H1262 C1277 0.930 . S
C1263 H1251 0.930 . S
C1263 C1264 1.399 . S
C1263 C1268 1.399 . S
C1264 C1263 1.399 . S
C1264 C1265 1.376 . S
C1265 H1252 0.930 . S
C1265 C1264 1.376 . S
C1265 C1266 1.388 . S
C1266 H1253 0.930 . S
C1266 C1265 1.388 . S
C1266 C1267 1.390 . S
C1267 C1266 1.390 . S
C1267 C1268 1.394 . S
C1267 C1273 1.465 . S
C1268 C1263 1.399 . S
C1268 C1267 1.394 . S
C1268 C1269 1.516 . S
C1269 C1268 1.516 . S
C1269 C1270 1.502 . S
C1269 C1271 1.561 . S
C1269 C1272 1.526 . S
C1270 H1254 0.959 . S
C1270 H1255 0.959 . S
C1270 H1256 0.961 . S
C1270 C1269 1.502 . S
C1271 H1257 0.960 . S
C1271 H1258 0.961 . S
C1271 H1259 0.959 . S
C1271 C1269 1.561 . S
C1272 C1269 1.526 . S
C1272 C1273 1.396 . S
C1272 C1277 1.390 . S
C1273 C1267 1.465 . S
C1273 C1272 1.396 . S
C1273 C1274 1.399 . S
C1274 H1260 0.929 . S
C1274 C1273 1.399 . S
C1274 C1275 1.385 . S
C1275 H1261 0.931 . S
C1275 C1274 1.385 . S
C1275 C1276 1.389 . S
C1276 C1275 1.389 . S
C1276 C1277 1.387 . S
C1277 H1262 0.930 . S
C1277 C1272 1.390 . S
C1277 C1276 1.387 . S
H1278 C1290 0.930 . S
H1279 C1292 0.930 . S
H1280 C1293 0.930 . S
H1281 C1297 0.959 . S
H1282 C1297 0.959 . S
H1283 C1297 0.961 . S
H1284 C1298 0.960 1_455 S
H1285 C1298 0.961 . S
H1286 C1298 0.959 . S
H1287 C1301 0.929 . S
H1288 C1302 0.931 . S
H1289 C1304 0.930 . S
C1290 H1278 0.930 . S
C1290 C1291 1.399 . S
C1290 C1295 1.399 . S
C1291 C1290 1.399 . S
C1291 C1292 1.376 . S
C1292 H1279 0.930 . S
C1292 C1291 1.376 . S
C1292 C1293 1.388 . S
C1293 H1280 0.930 . S
C1293 C1292 1.388 . S
C1293 C1294 1.390 . S
C1294 C1293 1.390 . S
C1294 C1295 1.394 . S
C1294 C1300 1.465 1_455 S
C1295 C1290 1.399 . S
C1295 C1294 1.394 . S
C1295 C1296 1.516 1_455 S
C1296 C1295 1.516 1_655 S
C1296 C1297 1.502 . S
C1296 C1298 1.561 . S
C1296 C1299 1.526 . S
C1297 H1281 0.959 . S
C1297 H1282 0.959 . S
C1297 H1283 0.961 . S
C1297 C1296 1.502 . S
C1298 H1284 0.960 1_655 S
C1298 H1285 0.961 . S
C1298 H1286 0.959 . S
C1298 C1296 1.561 . S
C1299 C1296 1.526 . S
C1299 C1300 1.396 . S
C1299 C1304 1.390 . S
C1300 C1294 1.465 1_655 S
C1300 C1299 1.396 . S
C1300 C1301 1.399 . S
C1301 H1287 0.929 . S
C1301 C1300 1.399 . S
C1301 C1302 1.385 . S
C1302 H1288 0.931 . S
C1302 C1301 1.385 . S
C1302 C1303 1.389 . S
C1303 C1302 1.389 . S
C1303 C1304 1.387 . S
C1304 H1289 0.930 . S
C1304 C1299 1.390 . S
C1304 C1303 1.387 . S
H1305 C1317 0.930 . S
H1306 C1319 0.930 . S
H1307 C1320 0.930 . S
H1308 C1324 0.959 . S
H1309 C1324 0.959 . S
H1310 C1324 0.961 1_545 S
H1311 C1325 0.960 . S
H1312 C1325 0.961 1_565 S
H1313 C1325 0.959 . S
H1314 C1328 0.929 . S
H1315 C1329 0.931 . S
H1316 C1331 0.930 . S
C1317 H1305 0.930 . S
C1317 C1318 1.399 . S
C1317 C1322 1.399 . S
C1318 C1317 1.399 . S
C1318 C1319 1.376 . S
C1319 H1306 0.930 . S
C1319 C1318 1.376 . S
C1319 C1320 1.388 . S
C1320 H1307 0.930 . S
C1320 C1319 1.388 . S
C1320 C1321 1.390 . S
C1321 C1320 1.390 . S
C1321 C1322 1.394 . S
C1321 C1327 1.453 1_545 S
C1322 C1317 1.399 . S
C1322 C1321 1.394 . S
C1322 C1323 1.516 . S
C1323 C1322 1.516 . S
C1323 C1324 1.502 1_545 S
C1323 C1325 1.561 . S
C1323 C1326 1.526 1_545 S
C1324 H1308 0.959 . S
C1324 H1309 0.959 . S
C1324 H1310 0.961 1_565 S
C1324 C1323 1.502 1_565 S
C1325 H1311 0.960 . S
C1325 H1312 0.961 1_545 S
C1325 H1313 0.959 . S
C1325 C1323 1.561 . S
C1326 C1323 1.526 1_565 S
C1326 C1327 1.406 . S
C1326 C1331 1.390 . S
C1327 C1321 1.453 1_565 S
C1327 C1326 1.406 . S
C1327 C1328 1.402 . S
C1328 H1314 0.929 . S
C1328 C1327 1.402 . S
C1328 C1329 1.385 . S
C1329 H1315 0.931 . S
C1329 C1328 1.385 . S
C1329 C1330 1.389 . S
C1330 C1329 1.389 . S
C1330 C1331 1.387 . S
C1331 H1316 0.930 . S
C1331 C1326 1.390 . S
C1331 C1330 1.387 . S
H1332 C1344 0.930 . S
H1333 C1346 0.930 . S
H1334 C1347 0.930 . S
H1335 C1351 0.959 . S
H1336 C1351 0.959 . S
H1337 C1351 0.961 . S
H1338 C1352 0.960 . S
H1339 C1352 0.961 . S
H1340 C1352 0.959 . S
H1341 C1355 0.929 . S
H1342 C1356 0.931 . S
H1343 C1358 0.930 . S
C1344 H1332 0.930 . S
C1344 C1345 1.399 . S
C1344 C1349 1.399 . S
C1345 C1344 1.399 . S
C1345 C1346 1.376 . S
C1346 H1333 0.930 . S
C1346 C1345 1.376 . S
C1346 C1347 1.388 . S
C1347 H1334 0.930 . S
C1347 C1346 1.388 . S
C1347 C1348 1.390 . S
C1348 C1347 1.390 . S
C1348 C1349 1.394 . S
C1348 C1354 1.465 . S
C1349 C1344 1.399 . S
C1349 C1348 1.394 . S
C1349 C1350 1.516 . S
C1350 C1349 1.516 . S
C1350 C1351 1.502 . S
C1350 C1352 1.561 . S
C1350 C1353 1.526 . S
C1351 H1335 0.959 . S
C1351 H1336 0.959 . S
C1351 H1337 0.961 . S
C1351 C1350 1.502 . S
C1352 H1338 0.960 . S
C1352 H1339 0.961 . S
C1352 H1340 0.959 . S
C1352 C1350 1.561 . S
C1353 C1350 1.526 . S
C1353 C1354 1.396 . S
C1353 C1358 1.390 . S
C1354 C1348 1.465 . S
C1354 C1353 1.396 . S
C1354 C1355 1.399 . S
C1355 H1341 0.929 . S
C1355 C1354 1.399 . S
C1355 C1356 1.385 . S
C1356 H1342 0.931 . S
C1356 C1355 1.385 . S
C1356 C1357 1.389 . S
C1357 C1356 1.389 . S
C1357 C1358 1.387 . S
C1358 H1343 0.930 . S
C1358 C1353 1.390 . S
C1358 C1357 1.387 . S
H1359 C1371 0.930 . S
H1360 C1373 0.930 . S
H1361 C1374 0.930 . S
H1362 C1378 0.959 . S
H1363 C1378 0.959 . S
H1364 C1378 0.961 . S
H1365 C1379 0.960 . S
H1366 C1379 0.961 . S
H1367 C1379 0.959 . S
H1368 C1382 0.929 . S
H1369 C1383 0.931 . S
H1370 C1385 0.930 . S
C1371 H1359 0.930 . S
C1371 C1372 1.399 . S
C1371 C1376 1.399 . S
C1372 C1371 1.399 . S
C1372 C1373 1.376 . S
C1373 H1360 0.930 . S
C1373 C1372 1.376 . S
C1373 C1374 1.388 . S
C1374 H1361 0.930 . S
C1374 C1373 1.388 . S
C1374 C1375 1.390 . S
C1375 C1374 1.390 . S
C1375 C1376 1.394 . S
C1375 C1381 1.465 . S
C1376 C1371 1.399 . S
C1376 C1375 1.394 . S
C1376 C1377 1.516 . S
C1377 C1376 1.516 . S
C1377 C1378 1.502 . S
C1377 C1379 1.561 . S
C1377 C1380 1.526 . S
C1378 H1362 0.959 . S
C1378 H1363 0.959 . S
C1378 H1364 0.961 . S
C1378 C1377 1.502 . S
C1379 H1365 0.960 . S
C1379 H1366 0.961 . S
C1379 H1367 0.959 . S
C1379 C1377 1.561 . S
C1380 C1377 1.526 . S
C1380 C1381 1.396 . S
C1380 C1385 1.390 . S
C1381 C1375 1.465 . S
C1381 C1380 1.396 . S
C1381 C1382 1.399 . S
C1382 H1368 0.929 . S
C1382 C1381 1.399 . S
C1382 C1383 1.385 . S
C1383 H1369 0.931 . S
C1383 C1382 1.385 . S
C1383 C1384 1.389 . S
C1384 C1383 1.389 . S
C1384 C1385 1.387 . S
C1385 H1370 0.930 . S
C1385 C1380 1.390 . S
C1385 C1384 1.387 . S
H1386 C1398 0.930 . S
H1387 C1400 0.930 . S
H1388 C1401 0.930 . S
H1389 C1405 0.959 . S
H1390 C1405 0.959 . S
H1391 C1405 0.961 . S
H1392 C1406 0.960 . S
H1393 C1406 0.961 . S
H1394 C1406 0.959 . S
H1395 C1409 0.929 . S
H1396 C1410 0.931 . S
H1397 C1412 0.930 . S
C1398 H1386 0.930 . S
C1398 C1399 1.399 . S
C1398 C1403 1.399 . S
C1399 C1398 1.399 . S
C1399 C1400 1.376 . S
C1400 H1387 0.930 . S
C1400 C1399 1.376 . S
C1400 C1401 1.388 . S
C1401 H1388 0.930 . S
C1401 C1400 1.388 . S
C1401 C1402 1.390 . S
C1402 C1401 1.390 . S
C1402 C1403 1.394 . S
C1402 C1408 1.465 . S
C1403 C1398 1.399 . S
C1403 C1402 1.394 . S
C1403 C1404 1.516 . S
C1404 C1403 1.516 . S
C1404 C1405 1.502 . S
C1404 C1406 1.561 . S
C1404 C1407 1.526 . S
C1405 H1389 0.959 . S
C1405 H1390 0.959 . S
C1405 H1391 0.961 . S
C1405 C1404 1.502 . S
C1406 H1392 0.960 . S
C1406 H1393 0.961 . S
C1406 H1394 0.959 . S
C1406 C1404 1.561 . S
C1407 C1404 1.526 . S
C1407 C1408 1.396 . S
C1407 C1412 1.390 . S
C1408 C1402 1.465 . S
C1408 C1407 1.396 . S
C1408 C1409 1.399 . S
C1409 H1395 0.929 . S
C1409 C1408 1.399 . S
C1409 C1410 1.385 . S
C1410 H1396 0.931 . S
C1410 C1409 1.385 . S
C1410 C1411 1.389 . S
C1411 C1410 1.389 . S
C1411 C1412 1.387 . S
C1412 H1397 0.930 . S
C1412 C1407 1.390 . S
C1412 C1411 1.387 . S
H1413 C1425 0.930 . S
H1414 C1427 0.930 . S
H1415 C1428 0.930 . S
H1416 C1432 0.959 . S
H1417 C1432 0.959 . S
H1418 C1432 0.961 . S
H1419 C1433 0.960 . S
H1420 C1433 0.961 . S
H1421 C1433 0.959 . S
H1422 C1436 0.929 . S
H1423 C1437 0.931 . S
H1424 C1439 0.930 . S
C1425 H1413 0.930 . S
C1425 C1426 1.399 . S
C1425 C1430 1.399 . S
C1426 C1425 1.399 . S
C1426 C1427 1.376 . S
C1427 H1414 0.930 . S
C1427 C1426 1.376 . S
C1427 C1428 1.388 . S
C1428 H1415 0.930 . S
C1428 C1427 1.388 . S
C1428 C1429 1.390 . S
C1429 C1428 1.390 . S
C1429 C1430 1.394 . S
C1429 C1435 1.465 . S
C1430 C1425 1.399 . S
C1430 C1429 1.394 . S
C1430 C1431 1.516 . S
C1431 C1430 1.516 . S
C1431 C1432 1.502 . S
C1431 C1433 1.561 . S
C1431 C1434 1.526 . S
C1432 H1416 0.959 . S
C1432 H1417 0.959 . S
C1432 H1418 0.961 . S
C1432 C1431 1.502 . S
C1433 H1419 0.960 . S
C1433 H1420 0.961 . S
C1433 H1421 0.959 . S
C1433 C1431 1.561 . S
C1434 C1431 1.526 . S
C1434 C1435 1.396 . S
C1434 C1439 1.390 . S
C1435 C1429 1.465 . S
C1435 C1434 1.396 . S
C1435 C1436 1.399 . S
C1436 H1422 0.929 . S
C1436 C1435 1.399 . S
C1436 C1437 1.385 . S
C1437 H1423 0.931 . S
C1437 C1436 1.385 . S
C1437 C1438 1.389 . S
C1438 C1437 1.389 . S
C1438 C1439 1.387 . S
C1439 H1424 0.930 . S
C1439 C1434 1.390 . S
C1439 C1438 1.387 . S
H1440 C1452 0.930 . S
H1441 C1454 0.930 . S
H1442 C1455 0.930 . S
H1443 C1459 0.959 . S
H1444 C1459 0.959 . S
H1445 C1459 0.961 . S
H1446 C1460 0.960 . S
H1447 C1460 0.961 . S
H1448 C1460 0.959 . S
H1449 C1463 0.929 . S
H1450 C1464 0.931 . S
H1451 C1466 0.930 . S
C1452 H1440 0.930 . S
C1452 C1453 1.399 . S
C1452 C1457 1.399 . S
C1453 C1452 1.399 . S
C1453 C1454 1.376 . S
C1454 H1441 0.930 . S
C1454 C1453 1.376 . S
C1454 C1455 1.388 . S
C1455 H1442 0.930 . S
C1455 C1454 1.388 . S
C1455 C1456 1.390 . S
C1456 C1455 1.390 . S
C1456 C1457 1.394 . S
C1456 C1462 1.465 . S
C1457 C1452 1.399 . S
C1457 C1456 1.394 . S
C1457 C1458 1.516 . S
C1458 C1457 1.516 . S
C1458 C1459 1.502 . S
C1458 C1460 1.561 . S
C1458 C1461 1.526 . S
C1459 H1443 0.959 . S
C1459 H1444 0.959 . S
C1459 H1445 0.961 . S
C1459 C1458 1.502 . S
C1460 H1446 0.960 . S
C1460 H1447 0.961 . S
C1460 H1448 0.959 . S
C1460 C1458 1.561 . S
C1461 C1458 1.526 . S
C1461 C1462 1.396 . S
C1461 C1466 1.390 . S
C1462 C1456 1.465 . S
C1462 C1461 1.396 . S
C1462 C1463 1.399 . S
C1463 H1449 0.929 . S
C1463 C1462 1.399 . S
C1463 C1464 1.385 . S
C1464 H1450 0.931 . S
C1464 C1463 1.385 . S
C1464 C1465 1.389 . S
C1465 C1464 1.389 . S
C1465 C1466 1.387 . S
C1466 H1451 0.930 . S
C1466 C1461 1.390 . S
C1466 C1465 1.387 . S
H1467 C1479 0.930 . S
H1468 C1481 0.930 . S
H1469 C1482 0.930 . S
H1470 C1486 0.959 . S
H1471 C1486 0.959 . S
H1472 C1486 0.961 . S
H1473 C1487 0.960 . S
H1474 C1487 0.961 . S
H1475 C1487 0.959 . S
H1476 C1490 0.929 . S
H1477 C1491 0.931 . S
H1478 C1493 0.930 . S
C1479 H1467 0.930 . S
C1479 C1480 1.399 . S
C1479 C1484 1.399 . S
C1480 C1479 1.399 . S
C1480 C1481 1.376 . S
C1481 H1468 0.930 . S
C1481 C1480 1.376 . S
C1481 C1482 1.388 . S
C1482 H1469 0.930 . S
C1482 C1481 1.388 . S
C1482 C1483 1.390 . S
C1483 C1482 1.390 . S
C1483 C1484 1.394 . S
C1483 C1489 1.465 . S
C1484 C1479 1.399 . S
C1484 C1483 1.394 . S
C1484 C1485 1.516 . S
C1485 C1484 1.516 . S
C1485 C1486 1.502 . S
C1485 C1487 1.561 . S
C1485 C1488 1.526 . S
C1486 H1470 0.959 . S
C1486 H1471 0.959 . S
C1486 H1472 0.961 . S
C1486 C1485 1.502 . S
C1487 H1473 0.960 . S
C1487 H1474 0.961 . S
C1487 H1475 0.959 . S
C1487 C1485 1.561 . S
C1488 C1485 1.526 . S
C1488 C1489 1.396 . S
C1488 C1493 1.390 . S
C1489 C1483 1.465 . S
C1489 C1488 1.396 . S
C1489 C1490 1.399 . S
C1490 H1476 0.929 . S
C1490 C1489 1.399 . S
C1490 C1491 1.385 . S
C1491 H1477 0.931 . S
C1491 C1490 1.385 . S
C1491 C1492 1.389 . S
C1492 C1491 1.389 . S
C1492 C1493 1.387 . S
C1493 H1478 0.930 . S
C1493 C1488 1.390 . S
C1493 C1492 1.387 . S
H1494 C1506 0.930 . S
H1495 C1508 0.930 . S
H1496 C1509 0.930 . S
H1497 C1513 0.959 . S
H1498 C1513 0.959 . S
H1499 C1513 0.961 . S
H1500 C1514 0.960 . S
H1501 C1514 0.961 . S
H1502 C1514 0.959 . S
H1503 C1517 0.929 1_565 S
H1504 C1518 0.931 . S
H1505 C1520 0.930 . S
C1506 H1494 0.930 . S
C1506 C1507 1.399 . S
C1506 C1511 1.399 . S
C1507 C1506 1.399 . S
C1507 C1508 1.376 . S
C1508 H1495 0.930 . S
C1508 C1507 1.376 . S
C1508 C1509 1.388 1_556 S
C1509 H1496 0.930 . S
C1509 C1508 1.388 1_554 S
C1509 C1510 1.386 1_554 S
C1510 C1509 1.386 1_556 S
C1510 C1511 1.424 . S
C1510 C1516 1.443 1_566 S
C1511 C1506 1.399 . S
C1511 C1510 1.424 . S
C1511 C1512 1.516 1_565 S
C1512 C1511 1.516 1_545 S
C1512 C1513 1.502 . S
C1512 C1514 1.561 . S
C1512 C1515 1.526 1_556 S
C1513 H1497 0.959 . S
C1513 H1498 0.959 . S
C1513 H1499 0.961 . S
C1513 C1512 1.502 . S
C1514 H1500 0.960 . S
C1514 H1501 0.961 . S
C1514 H1502 0.959 . S
C1514 C1512 1.561 . S
C1515 C1512 1.526 1_554 S
C1515 C1516 1.396 . S
C1515 C1520 1.390 . S
C1516 C1510 1.443 1_544 S
C1516 C1515 1.396 . S
C1516 C1517 1.399 . S
C1517 H1503 0.929 1_545 S
C1517 C1516 1.399 . S
C1517 C1518 1.385 . S
C1518 H1504 0.931 . S
C1518 C1517 1.385 . S
C1518 C1519 1.389 . S
C1519 C1518 1.389 . S
C1519 C1520 1.387 . S
C1520 H1505 0.930 . S
C1520 C1515 1.390 . S
C1520 C1519 1.387 . S
H1521 C1533 0.930 . S
H1522 C1535 0.930 . S
H1523 C1536 0.930 . S
H1524 C1540 0.959 . S
H1525 C1540 0.959 . S
H1526 C1540 0.961 . S
H1527 C1541 0.960 . S
H1528 C1541 0.961 . S
H1529 C1541 0.959 . S
H1530 C1544 0.929 . S
H1531 C1545 0.931 . S
H1532 C1547 0.930 . S
C1533 H1521 0.930 . S
C1533 C1534 1.399 . S
C1533 C1538 1.399 . S
C1534 C1533 1.399 . S
C1534 C1535 1.376 . S
C1535 H1522 0.930 . S
C1535 C1534 1.376 . S
C1535 C1536 1.388 . S
C1536 H1523 0.930 . S
C1536 C1535 1.388 . S
C1536 C1537 1.390 . S
C1537 C1536 1.390 . S
C1537 C1538 1.394 . S
C1537 C1543 1.465 . S
C1538 C1533 1.399 . S
C1538 C1537 1.394 . S
C1538 C1539 1.516 . S
C1539 C1538 1.516 . S
C1539 C1540 1.502 . S
C1539 C1541 1.561 . S
C1539 C1542 1.526 . S
C1540 H1524 0.959 . S
C1540 H1525 0.959 . S
C1540 H1526 0.961 . S
C1540 C1539 1.502 . S
C1541 H1527 0.960 . S
C1541 H1528 0.961 . S
C1541 H1529 0.959 . S
C1541 C1539 1.561 . S
C1542 C1539 1.526 . S
C1542 C1543 1.396 . S
C1542 C1547 1.390 . S
C1543 C1537 1.465 . S
C1543 C1542 1.396 . S
C1543 C1544 1.399 . S
C1544 H1530 0.929 . S
C1544 C1543 1.399 . S
C1544 C1545 1.385 . S
C1545 H1531 0.931 . S
C1545 C1544 1.385 . S
C1545 C1546 1.389 . S
C1546 C1545 1.389 . S
C1546 C1547 1.387 . S
C1547 H1532 0.930 . S
C1547 C1542 1.390 . S
C1547 C1546 1.387 . S
H1548 C1560 0.930 . S
H1549 C1562 0.930 . S
H1550 C1563 0.930 . S
H1551 C1567 0.959 . S
H1552 C1567 0.959 . S
H1553 C1567 0.961 . S
H1554 C1568 0.960 . S
H1555 C1568 0.961 . S
H1556 C1568 0.959 . S
H1557 C1571 0.929 . S
H1558 C1572 0.931 . S
H1559 C1574 0.930 . S
C1560 H1548 0.930 . S
C1560 C1561 1.399 . S
C1560 C1565 1.399 . S
C1561 C1560 1.399 . S
C1561 C1562 1.376 . S
C1562 H1549 0.930 . S
C1562 C1561 1.376 . S
C1562 C1563 1.388 . S
C1563 H1550 0.930 . S
C1563 C1562 1.388 . S
C1563 C1564 1.390 . S
C1564 C1563 1.390 . S
C1564 C1565 1.394 . S
C1564 C1570 1.465 1_456 S
C1565 C1560 1.399 . S
C1565 C1564 1.394 . S
C1565 C1566 1.511 1_556 S
C1566 C1565 1.511 1_554 S
C1566 C1567 1.491 1_454 S
C1566 C1568 1.577 . S
C1566 C1569 1.527 1_455 S
C1567 H1551 0.959 . S
C1567 H1552 0.959 . S
C1567 H1553 0.961 . S
C1567 C1566 1.491 1_656 S
C1568 H1554 0.960 . S
C1568 H1555 0.961 . S
C1568 H1556 0.959 . S
C1568 C1566 1.577 . S
C1569 C1566 1.527 1_655 S
C1569 C1570 1.396 . S
C1569 C1574 1.390 . S
C1570 C1564 1.465 1_654 S
C1570 C1569 1.396 . S
C1570 C1571 1.399 . S
C1571 H1557 0.929 . S
C1571 C1570 1.399 . S
C1571 C1572 1.385 . S
C1572 H1558 0.931 . S
C1572 C1571 1.385 . S
C1572 C1573 1.389 . S
C1573 C1572 1.389 . S
C1573 C1574 1.387 . S
C1574 H1559 0.930 . S
C1574 C1569 1.390 . S
C1574 C1573 1.387 . S
H1575 C1587 0.930 . S
H1576 C1589 0.930 . S
H1577 C1590 0.930 . S
H1578 C1594 0.959 . S
H1579 C1594 0.959 . S
H1580 C1594 0.961 . S
H1581 C1595 0.960 . S
H1582 C1595 0.961 . S
H1583 C1595 0.959 . S
H1584 C1598 0.929 1_545 S
H1585 C1599 0.931 . S
H1586 C1601 0.930 . S
C1587 H1575 0.930 . S
C1587 C1588 1.399 . S
C1587 C1592 1.399 . S
C1588 C1587 1.399 . S
C1588 C1589 1.376 . S
C1589 H1576 0.930 . S
C1589 C1588 1.376 . S
C1589 C1590 1.388 . S
C1590 H1577 0.930 . S
C1590 C1589 1.388 . S
C1590 C1591 1.390 . S
C1591 C1590 1.390 . S
C1591 C1592 1.394 . S
C1591 C1597 1.465 1_545 S
C1592 C1587 1.399 . S
C1592 C1591 1.394 . S
C1592 C1593 1.516 1_545 S
C1593 C1592 1.516 1_565 S
C1593 C1594 1.502 . S
C1593 C1595 1.561 . S
C1593 C1596 1.526 . S
C1594 H1578 0.959 . S
C1594 H1579 0.959 . S
C1594 H1580 0.961 . S
C1594 C1593 1.502 . S
C1595 H1581 0.960 . S
C1595 H1582 0.961 . S
C1595 H1583 0.959 . S
C1595 C1593 1.561 . S
C1596 C1593 1.526 . S
C1596 C1597 1.396 . S
C1596 C1601 1.390 . S
C1597 C1591 1.465 1_565 S
C1597 C1596 1.396 . S
C1597 C1598 1.399 . S
C1598 H1584 0.929 1_565 S
C1598 C1597 1.399 . S
C1598 C1599 1.385 . S
C1599 H1585 0.931 . S
C1599 C1598 1.385 . S
C1599 C1600 1.389 . S
C1600 C1599 1.389 . S
C1600 C1601 1.387 . S
C1601 H1586 0.930 . S
C1601 C1596 1.390 . S
C1601 C1600 1.387 . S
H1602 C1614 0.930 . S
H1603 C1616 0.930 . S
H1604 C1617 0.930 . S
H1605 C1621 0.959 . S
H1606 C1621 0.959 . S
H1607 C1621 0.961 . S
H1608 C1622 0.960 . S
H1609 C1622 0.961 . S
H1610 C1622 0.959 . S
H1611 C1625 0.929 . S
H1612 C1626 0.931 . S
H1613 C1628 0.930 . S
C1614 H1602 0.930 . S
C1614 C1615 1.399 . S
C1614 C1619 1.399 . S
C1615 C1614 1.399 . S
C1615 C1616 1.376 . S
C1616 H1603 0.930 . S
C1616 C1615 1.376 . S
C1616 C1617 1.388 1_554 S
C1617 H1604 0.930 . S
C1617 C1616 1.388 1_556 S
C1617 C1618 1.390 . S
C1618 C1617 1.390 . S
C1618 C1619 1.394 1_556 S
C1618 C1624 1.465 . S
C1619 C1614 1.399 . S
C1619 C1618 1.394 1_554 S
C1619 C1620 1.516 . S
C1620 C1619 1.516 . S
C1620 C1621 1.502 . S
C1620 C1622 1.561 . S
C1620 C1623 1.526 1_554 S
C1621 H1605 0.959 . S
C1621 H1606 0.959 . S
C1621 H1607 0.961 . S
C1621 C1620 1.502 . S
C1622 H1608 0.960 . S
C1622 H1609 0.961 . S
C1622 H1610 0.959 . S
C1622 C1620 1.561 . S
C1623 C1620 1.526 1_556 S
C1623 C1624 1.396 . S
C1623 C1628 1.390 . S
C1624 C1618 1.465 . S
C1624 C1623 1.396 . S
C1624 C1625 1.399 . S
C1625 H1611 0.929 . S
C1625 C1624 1.399 . S
C1625 C1626 1.385 . S
C1626 H1612 0.931 . S
C1626 C1625 1.385 . S
C1626 C1627 1.389 . S
C1627 C1626 1.389 . S
C1627 C1628 1.387 . S
C1628 H1613 0.930 . S
C1628 C1623 1.390 . S
C1628 C1627 1.387 . S
H1629 C1641 0.930 . S
H1630 C1643 0.930 . S
H1631 C1644 0.930 . S
H1632 C1648 0.959 . S
H1633 C1648 0.959 . S
H1634 C1648 0.961 1_455 S
H1635 C1649 0.960 . S
H1636 C1649 0.961 . S
H1637 C1649 0.959 . S
H1638 C1652 0.929 . S
H1639 C1653 0.931 . S
H1640 C1655 0.930 . S
C1641 H1629 0.930 . S
C1641 C1642 1.399 . S
C1641 C1646 1.399 . S
C1642 C1641 1.399 . S
C1642 C1643 1.376 . S
C1643 H1630 0.930 . S
C1643 C1642 1.376 . S
C1643 C1644 1.388 . S
C1644 H1631 0.930 . S
C1644 C1643 1.388 . S
C1644 C1645 1.390 . S
C1645 C1644 1.390 . S
C1645 C1646 1.394 . S
C1645 C1651 1.465 1_455 S
C1646 C1641 1.399 . S
C1646 C1645 1.394 . S
C1646 C1647 1.516 . S
C1647 C1646 1.516 . S
C1647 C1648 1.502 1_455 S
C1647 C1649 1.561 . S
C1647 C1650 1.526 1_455 S
C1648 H1632 0.959 . S
C1648 H1633 0.959 . S
C1648 H1634 0.961 1_655 S
C1648 C1647 1.502 1_655 S
C1649 H1635 0.960 . S
C1649 H1636 0.961 . S
C1649 H1637 0.959 . S
C1649 C1647 1.561 . S
C1650 C1647 1.526 1_655 S
C1650 C1651 1.396 . S
C1650 C1655 1.390 . S
C1651 C1645 1.465 1_655 S
C1651 C1650 1.396 . S
C1651 C1652 1.399 . S
C1652 H1638 0.929 . S
C1652 C1651 1.399 . S
C1652 C1653 1.385 . S
C1653 H1639 0.931 . S
C1653 C1652 1.385 . S
C1653 C1654 1.389 . S
C1654 C1653 1.389 . S
C1654 C1655 1.387 . S
C1655 H1640 0.930 . S
C1655 C1650 1.390 . S
C1655 C1654 1.387 . S
H1656 C1668 0.930 . S
H1657 C1670 0.930 . S
H1658 C1671 0.930 . S
H1659 C1675 0.959 . S
H1660 C1675 0.959 . S
H1661 C1675 0.961 . S
H1662 C1676 0.960 . S
H1663 C1676 0.961 . S
H1664 C1676 0.959 . S
H1665 C1679 0.929 . S
H1666 C1680 0.931 . S
H1667 C1682 0.930 . S
C1668 H1656 0.930 . S
C1668 C1669 1.399 . S
C1668 C1673 1.399 . S
C1669 C1668 1.399 . S
C1669 C1670 1.376 . S
C1670 H1657 0.930 . S
C1670 C1669 1.376 . S
C1670 C1671 1.388 . S
C1671 H1658 0.930 . S
C1671 C1670 1.388 . S
C1671 C1672 1.390 . S
C1672 C1671 1.390 . S
C1672 C1673 1.394 . S
C1672 C1678 1.465 . S
C1673 C1668 1.399 . S
C1673 C1672 1.394 . S
C1673 C1674 1.516 . S
C1674 C1673 1.516 . S
C1674 C1675 1.502 . S
C1674 C1676 1.561 . S
C1674 C1677 1.526 . S
C1675 H1659 0.959 . S
C1675 H1660 0.959 . S
C1675 H1661 0.961 . S
C1675 C1674 1.502 . S
C1676 H1662 0.960 . S
C1676 H1663 0.961 . S
C1676 H1664 0.959 . S
C1676 C1674 1.561 . S
C1677 C1674 1.526 . S
C1677 C1678 1.396 . S
C1677 C1682 1.390 . S
C1678 C1672 1.465 . S
C1678 C1677 1.396 . S
C1678 C1679 1.399 . S
C1679 H1665 0.929 . S
C1679 C1678 1.399 . S
C1679 C1680 1.385 . S
C1680 H1666 0.931 . S
C1680 C1679 1.385 . S
C1680 C1681 1.389 . S
C1681 C1680 1.389 . S
C1681 C1682 1.387 . S
C1682 H1667 0.930 . S
C1682 C1677 1.390 . S
C1682 C1681 1.387 . S
H1683 C1695 0.930 . S
H1684 C1697 0.930 . S
H1685 C1698 0.930 . S
H1686 C1702 0.959 . S
H1687 C1702 0.959 . S
H1688 C1702 0.961 . S
H1689 C1703 0.960 . S
H1690 C1703 0.961 . S
H1691 C1703 0.959 . S
H1692 C1706 0.929 . S
H1693 C1707 0.931 . S
H1694 C1709 0.930 . S
C1695 H1683 0.930 . S
C1695 C1696 1.399 . S
C1695 C1700 1.399 . S
C1696 C1695 1.399 . S
C1696 C1697 1.376 . S
C1697 H1684 0.930 . S
C1697 C1696 1.376 . S
C1697 C1698 1.388 . S
C1698 H1685 0.930 . S
C1698 C1697 1.388 . S
C1698 C1699 1.390 . S
C1699 C1698 1.390 . S
C1699 C1700 1.394 . S
C1699 C1705 1.465 . S
C1700 C1695 1.399 . S
C1700 C1699 1.394 . S
C1700 C1701 1.516 . S
C1701 C1700 1.516 . S
C1701 C1702 1.502 . S
C1701 C1703 1.561 . S
C1701 C1704 1.526 . S
C1702 H1686 0.959 . S
C1702 H1687 0.959 . S
C1702 H1688 0.961 . S
C1702 C1701 1.502 . S
C1703 H1689 0.960 . S
C1703 H1690 0.961 . S
C1703 H1691 0.959 . S
C1703 C1701 1.561 . S
C1704 C1701 1.526 . S
C1704 C1705 1.396 . S
C1704 C1709 1.390 . S
C1705 C1699 1.465 . S
C1705 C1704 1.396 . S
C1705 C1706 1.399 . S
C1706 H1692 0.929 . S
C1706 C1705 1.399 . S
C1706 C1707 1.385 . S
C1707 H1693 0.931 . S
C1707 C1706 1.385 . S
C1707 C1708 1.389 . S
C1708 C1707 1.389 . S
C1708 C1709 1.387 . S
C1709 H1694 0.930 . S
C1709 C1704 1.390 . S
C1709 C1708 1.387 . S
H1710 C1722 0.930 . S
H1711 C1724 0.930 . S
H1712 C1725 0.930 . S
H1713 C1729 0.959 . S
H1714 C1729 0.959 . S
H1715 C1729 0.961 . S
H1716 C1730 0.960 . S
H1717 C1730 0.961 . S
H1718 C1730 0.959 . S
H1719 C1733 0.929 . S
H1720 C1734 0.931 . S
H1721 C1736 0.930 . S
C1722 H1710 0.930 . S
C1722 C1723 1.399 . S
C1722 C1727 1.399 . S
C1723 C1722 1.399 . S
C1723 C1724 1.376 . S
C1724 H1711 0.930 . S
C1724 C1723 1.376 . S
C1724 C1725 1.388 . S
C1725 H1712 0.930 . S
C1725 C1724 1.388 . S
C1725 C1726 1.390 . S
C1726 C1725 1.390 . S
C1726 C1727 1.394 . S
C1726 C1732 1.465 . S
C1727 C1722 1.399 . S
C1727 C1726 1.394 . S
C1727 C1728 1.516 . S
C1728 C1727 1.516 . S
C1728 C1729 1.502 . S
C1728 C1730 1.561 . S
C1728 C1731 1.526 . S
C1729 H1713 0.959 . S
C1729 H1714 0.959 . S
C1729 H1715 0.961 . S
C1729 C1728 1.502 . S
C1730 H1716 0.960 . S
C1730 H1717 0.961 . S
C1730 H1718 0.959 . S
C1730 C1728 1.561 . S
C1731 C1728 1.526 . S
C1731 C1732 1.396 . S
C1731 C1736 1.390 . S
C1732 C1726 1.465 . S
C1732 C1731 1.396 . S
C1732 C1733 1.399 . S
C1733 H1719 0.929 . S
C1733 C1732 1.399 . S
C1733 C1734 1.385 . S
C1734 H1720 0.931 . S
C1734 C1733 1.385 . S
C1734 C1735 1.389 . S
C1735 C1734 1.389 . S
C1735 C1736 1.387 . S
C1736 H1721 0.930 . S
C1736 C1731 1.390 . S
C1736 C1735 1.387 . S
H1737 C1749 0.930 . S
H1738 C1751 0.930 . S
H1739 C1752 0.930 . S
H1740 C1756 0.959 . S
H1741 C1756 0.959 . S
H1742 C1756 0.961 . S
H1743 C1757 0.960 . S
H1744 C1757 0.961 . S
H1745 C1757 0.959 . S
H1746 C1760 0.929 . S
H1747 C1761 0.931 . S
H1748 C1763 0.930 . S
C1749 H1737 0.930 . S
C1749 C1750 1.399 . S
C1749 C1754 1.399 . S
C1750 C1749 1.399 . S
C1750 C1751 1.376 . S
C1751 H1738 0.930 . S
C1751 C1750 1.376 . S
C1751 C1752 1.388 . S
C1752 H1739 0.930 . S
C1752 C1751 1.388 . S
C1752 C1753 1.390 . S
C1753 C1752 1.390 . S
C1753 C1754 1.394 . S
C1753 C1759 1.465 . S
C1754 C1749 1.399 . S
C1754 C1753 1.394 . S
C1754 C1755 1.516 . S
C1755 C1754 1.516 . S
C1755 C1756 1.502 . S
C1755 C1757 1.561 . S
C1755 C1758 1.526 . S
C1756 H1740 0.959 . S
C1756 H1741 0.959 . S
C1756 H1742 0.961 . S
C1756 C1755 1.502 . S
C1757 H1743 0.960 . S
C1757 H1744 0.961 . S
C1757 H1745 0.959 . S
C1757 C1755 1.561 . S
C1758 C1755 1.526 . S
C1758 C1759 1.396 . S
C1758 C1763 1.390 . S
C1759 C1753 1.465 . S
C1759 C1758 1.396 . S
C1759 C1760 1.399 . S
C1760 H1746 0.929 . S
C1760 C1759 1.399 . S
C1760 C1761 1.385 . S
C1761 H1747 0.931 . S
C1761 C1760 1.385 . S
C1761 C1762 1.389 . S
C1762 C1761 1.389 . S
C1762 C1763 1.387 . S
C1763 H1748 0.930 . S
C1763 C1758 1.390 . S
C1763 C1762 1.387 . S
H1764 C1776 0.930 . S
H1765 C1778 0.930 . S
H1766 C1779 0.930 . S
H1767 C1783 0.959 . S
H1768 C1783 0.959 . S
H1769 C1783 0.961 . S
H1770 C1784 0.960 . S
H1771 C1784 0.961 . S
H1772 C1784 0.959 . S
H1773 C1787 0.929 . S
H1774 C1788 0.931 . S
H1775 C1790 0.930 . S
C1776 H1764 0.930 . S
C1776 C1777 1.399 . S
C1776 C1781 1.399 . S
C1777 C1776 1.399 . S
C1777 C1778 1.376 . S
C1778 H1765 0.930 . S
C1778 C1777 1.376 . S
C1778 C1779 1.388 . S
C1779 H1766 0.930 . S
C1779 C1778 1.388 . S
C1779 C1780 1.390 . S
C1780 C1779 1.390 . S
C1780 C1781 1.394 . S
C1780 C1786 1.465 . S
C1781 C1776 1.399 . S
C1781 C1780 1.394 . S
C1781 C1782 1.516 . S
C1782 C1781 1.516 . S
C1782 C1783 1.502 . S
C1782 C1784 1.561 . S
C1782 C1785 1.526 . S
C1783 H1767 0.959 . S
C1783 H1768 0.959 . S
C1783 H1769 0.961 . S
C1783 C1782 1.502 . S
C1784 H1770 0.960 . S
C1784 H1771 0.961 . S
C1784 H1772 0.959 . S
C1784 C1782 1.561 . S
C1785 C1782 1.526 . S
C1785 C1786 1.396 . S
C1785 C1790 1.390 . S
C1786 C1780 1.465 . S
C1786 C1785 1.396 . S
C1786 C1787 1.399 . S
C1787 H1773 0.929 . S
C1787 C1786 1.399 . S
C1787 C1788 1.385 . S
C1788 H1774 0.931 . S
C1788 C1787 1.385 . S
C1788 C1789 1.389 . S
C1789 C1788 1.389 . S
C1789 C1790 1.387 . S
C1790 H1775 0.930 . S
C1790 C1785 1.390 . S
C1790 C1789 1.387 . S
H1791 C1803 0.930 . S
H1792 C1805 0.930 . S
H1793 C1806 0.930 . S
H1794 C1810 0.959 . S
H1795 C1810 0.959 . S
H1796 C1810 0.961 . S
H1797 C1811 0.960 . S
H1798 C1811 0.961 . S
H1799 C1811 0.959 . S
H1800 C1814 0.929 . S
H1801 C1815 0.931 . S
H1802 C1817 0.930 . S
C1803 H1791 0.930 . S
C1803 C1804 1.399 . S
C1803 C1808 1.399 . S
C1804 C1803 1.399 . S
C1804 C1805 1.376 . S
C1805 H1792 0.930 . S
C1805 C1804 1.376 . S
C1805 C1806 1.388 . S
C1806 H1793 0.930 . S
C1806 C1805 1.388 . S
C1806 C1807 1.390 . S
C1807 C1806 1.390 . S
C1807 C1808 1.394 . S
C1807 C1813 1.465 . S
C1808 C1803 1.399 . S
C1808 C1807 1.394 . S
C1808 C1809 1.516 . S
C1809 C1808 1.516 . S
C1809 C1810 1.502 . S
C1809 C1811 1.561 . S
C1809 C1812 1.526 . S
C1810 H1794 0.959 . S
C1810 H1795 0.959 . S
C1810 H1796 0.961 . S
C1810 C1809 1.502 . S
C1811 H1797 0.960 . S
C1811 H1798 0.961 . S
C1811 H1799 0.959 . S
C1811 C1809 1.561 . S
C1812 C1809 1.526 . S
C1812 C1813 1.396 . S
C1812 C1817 1.390 . S
C1813 C1807 1.465 . S
C1813 C1812 1.396 . S
C1813 C1814 1.399 . S
C1814 H1800 0.929 . S
C1814 C1813 1.399 . S
C1814 C1815 1.385 . S
C1815 H1801 0.931 . S
C1815 C1814 1.385 . S
C1815 C1816 1.389 . S
C1816 C1815 1.389 . S
C1816 C1817 1.387 . S
C1817 H1802 0.930 . S
C1817 C1812 1.390 . S
C1817 C1816 1.387 . S
H1818 C1830 0.930 . S
H1819 C1832 0.930 . S
H1820 C1833 0.930 . S
H1821 C1837 0.959 . S
H1822 C1837 0.959 . S
H1823 C1837 0.961 . S
H1824 C1838 0.960 . S
H1825 C1838 0.961 . S
H1826 C1838 0.959 . S
H1827 C1841 0.929 . S
H1828 C1842 0.931 . S
H1829 C1844 0.930 . S
C1830 H1818 0.930 . S
C1830 C1831 1.399 . S
C1830 C1835 1.399 . S
C1831 C1830 1.399 . S
C1831 C1832 1.376 . S
C1832 H1819 0.930 . S
C1832 C1831 1.376 . S
C1832 C1833 1.388 . S
C1833 H1820 0.930 . S
C1833 C1832 1.388 . S
C1833 C1834 1.390 . S
C1834 C1833 1.390 . S
C1834 C1835 1.394 . S
C1834 C1840 1.465 . S
C1835 C1830 1.399 . S
C1835 C1834 1.394 . S
C1835 C1836 1.516 . S
C1836 C1835 1.516 . S
C1836 C1837 1.502 . S
C1836 C1838 1.561 . S
C1836 C1839 1.526 . S
C1837 H1821 0.959 . S
C1837 H1822 0.959 . S
C1837 H1823 0.961 . S
C1837 C1836 1.502 . S
C1838 H1824 0.960 . S
C1838 H1825 0.961 . S
C1838 H1826 0.959 . S
C1838 C1836 1.561 . S
C1839 C1836 1.526 . S
C1839 C1840 1.396 . S
C1839 C1844 1.390 . S
C1840 C1834 1.465 . S
C1840 C1839 1.396 . S
C1840 C1841 1.399 . S
C1841 H1827 0.929 . S
C1841 C1840 1.399 . S
C1841 C1842 1.385 . S
C1842 H1828 0.931 . S
C1842 C1841 1.385 . S
C1842 C1843 1.389 . S
C1843 C1842 1.389 . S
C1843 C1844 1.387 . S
C1844 H1829 0.930 . S
C1844 C1839 1.390 . S
C1844 C1843 1.387 . S
H1845 C1857 0.930 . S
H1846 C1859 0.930 . S
H1847 C1860 0.930 . S
H1848 C1864 0.959 . S
H1849 C1864 0.959 . S
H1850 C1864 0.961 . S
H1851 C1865 0.960 . S
H1852 C1865 0.961 . S
H1853 C1865 0.959 . S
H1854 C1868 0.929 . S
H1855 C1869 0.931 . S
H1856 C1871 0.930 . S
C1857 H1845 0.930 . S
C1857 C1858 1.399 . S
C1857 C1862 1.399 . S
C1858 C1857 1.399 . S
C1858 C1859 1.376 . S
C1859 H1846 0.930 . S
C1859 C1858 1.376 . S
C1859 C1860 1.388 . S
C1860 H1847 0.930 . S
C1860 C1859 1.388 . S
C1860 C1861 1.390 . S
C1861 C1860 1.390 . S
C1861 C1862 1.394 . S
C1861 C1867 1.465 . S
C1862 C1857 1.399 . S
C1862 C1861 1.394 . S
C1862 C1863 1.516 . S
C1863 C1862 1.516 . S
C1863 C1864 1.502 . S
C1863 C1865 1.561 . S
C1863 C1866 1.526 . S
C1864 H1848 0.959 . S
C1864 H1849 0.959 . S
C1864 H1850 0.961 . S
C1864 C1863 1.502 . S
C1865 H1851 0.960 . S
C1865 H1852 0.961 . S
C1865 H1853 0.959 . S
C1865 C1863 1.561 . S
C1866 C1863 1.526 . S
C1866 C1867 1.396 . S
C1866 C1871 1.390 . S
C1867 C1861 1.465 . S
C1867 C1866 1.396 . S
C1867 C1868 1.399 . S
C1868 H1854 0.929 . S
C1868 C1867 1.399 . S
C1868 C1869 1.385 . S
C1869 H1855 0.931 . S
C1869 C1868 1.385 . S
C1869 C1870 1.389 . S
C1870 C1869 1.389 . S
C1870 C1871 1.387 . S
C1871 H1856 0.930 . S
C1871 C1866 1.390 . S
C1871 C1870 1.387 . S
H1872 C1884 0.930 . S
H1873 C1886 0.930 . S
H1874 C1887 0.930 . S
H1875 C1891 0.959 . S
H1876 C1891 0.959 . S
H1877 C1891 0.961 . S
H1878 C1892 0.960 . S
H1879 C1892 0.961 . S
H1880 C1892 0.959 . S
H1881 C1895 0.929 . S
H1882 C1896 0.931 . S
H1883 C1898 0.930 . S
C1884 H1872 0.930 . S
C1884 C1885 1.399 . S
C1884 C1889 1.399 . S
C1885 C1884 1.399 . S
C1885 C1886 1.376 . S
C1886 H1873 0.930 . S
C1886 C1885 1.376 . S
C1886 C1887 1.388 . S
C1887 H1874 0.930 . S
C1887 C1886 1.388 . S
C1887 C1888 1.390 . S
C1888 C1887 1.390 . S
C1888 C1889 1.394 . S
C1888 C1894 1.465 . S
C1889 C1884 1.399 . S
C1889 C1888 1.394 . S
C1889 C1890 1.516 . S
C1890 C1889 1.516 . S
C1890 C1891 1.502 . S
C1890 C1892 1.561 . S
C1890 C1893 1.526 . S
C1891 H1875 0.959 . S
C1891 H1876 0.959 . S
C1891 H1877 0.961 . S
C1891 C1890 1.502 . S
C1892 H1878 0.960 . S
C1892 H1879 0.961 . S
C1892 H1880 0.959 . S
C1892 C1890 1.561 . S
C1893 C1890 1.526 . S
C1893 C1894 1.396 . S
C1893 C1898 1.390 . S
C1894 C1888 1.465 . S
C1894 C1893 1.396 . S
C1894 C1895 1.399 . S
C1895 H1881 0.929 . S
C1895 C1894 1.399 . S
C1895 C1896 1.385 . S
C1896 H1882 0.931 . S
C1896 C1895 1.385 . S
C1896 C1897 1.389 . S
C1897 C1896 1.389 . S
C1897 C1898 1.387 . S
C1898 H1883 0.930 . S
C1898 C1893 1.390 . S
C1898 C1897 1.387 . S
H1899 C1911 0.930 . S
H1900 C1913 0.930 . S
H1901 C1914 0.930 . S
H1902 C1918 0.959 . S
H1903 C1918 0.959 . S
H1904 C1918 0.961 . S
H1905 C1919 0.960 . S
H1906 C1919 0.961 . S
H1907 C1919 0.959 . S
H1908 C1922 0.929 . S
H1909 C1923 0.931 . S
H1910 C1925 0.930 . S
C1911 H1899 0.930 . S
C1911 C1912 1.399 . S
C1911 C1916 1.399 . S
C1912 C1911 1.399 . S
C1912 C1913 1.376 . S
C1913 H1900 0.930 . S
C1913 C1912 1.376 . S
C1913 C1914 1.388 . S
C1914 H1901 0.930 . S
C1914 C1913 1.388 . S
C1914 C1915 1.390 . S
C1915 C1914 1.390 . S
C1915 C1916 1.394 . S
C1915 C1921 1.465 . S
C1916 C1911 1.399 . S
C1916 C1915 1.394 . S
C1916 C1917 1.516 . S
C1917 C1916 1.516 . S
C1917 C1918 1.502 . S
C1917 C1919 1.561 . S
C1917 C1920 1.526 . S
C1918 H1902 0.959 . S
C1918 H1903 0.959 . S
C1918 H1904 0.961 . S
C1918 C1917 1.502 . S
C1919 H1905 0.960 . S
C1919 H1906 0.961 . S
C1919 H1907 0.959 . S
C1919 C1917 1.561 . S
C1920 C1917 1.526 . S
C1920 C1921 1.396 . S
C1920 C1925 1.390 . S
C1921 C1915 1.465 . S
C1921 C1920 1.396 . S
C1921 C1922 1.399 . S
C1922 H1908 0.929 . S
C1922 C1921 1.399 . S
C1922 C1923 1.385 . S
C1923 H1909 0.931 . S
C1923 C1922 1.385 . S
C1923 C1924 1.389 . S
C1924 C1923 1.389 . S
C1924 C1925 1.387 . S
C1925 H1910 0.930 . S
C1925 C1920 1.390 . S
C1925 C1924 1.387 . S
H1926 C1938 0.930 . S
H1927 C1940 0.930 . S
H1928 C1941 0.930 . S
H1929 C1945 0.959 . S
H1930 C1945 0.959 . S
H1931 C1945 0.961 . S
H1932 C1946 0.960 . S
H1933 C1946 0.961 . S
H1934 C1946 0.959 . S
H1935 C1949 0.929 . S
H1936 C1950 0.931 . S
H1937 C1952 0.930 . S
C1938 H1926 0.930 . S
C1938 C1939 1.399 . S
C1938 C1943 1.399 . S
C1939 C1938 1.399 . S
C1939 C1940 1.376 . S
C1940 H1927 0.930 . S
C1940 C1939 1.376 . S
C1940 C1941 1.388 . S
C1941 H1928 0.930 . S
C1941 C1940 1.388 . S
C1941 C1942 1.390 . S
C1942 C1941 1.390 . S
C1942 C1943 1.394 . S
C1942 C1948 1.465 . S
C1943 C1938 1.399 . S
C1943 C1942 1.394 . S
C1943 C1944 1.516 . S
C1944 C1943 1.516 . S
C1944 C1945 1.502 . S
C1944 C1946 1.561 . S
C1944 C1947 1.526 . S
C1945 H1929 0.959 . S
C1945 H1930 0.959 . S
C1945 H1931 0.961 . S
C1945 C1944 1.502 . S
C1946 H1932 0.960 . S
C1946 H1933 0.961 . S
C1946 H1934 0.959 . S
C1946 C1944 1.561 . S
C1947 C1944 1.526 . S
C1947 C1948 1.396 . S
C1947 C1952 1.390 . S
C1948 C1942 1.465 . S
C1948 C1947 1.396 . S
C1948 C1949 1.399 . S
C1949 H1935 0.929 . S
C1949 C1948 1.399 . S
C1949 C1950 1.385 . S
C1950 H1936 0.931 . S
C1950 C1949 1.385 . S
C1950 C1951 1.389 . S
C1951 C1950 1.389 . S
C1951 C1952 1.387 . S
C1952 H1937 0.930 . S
C1952 C1947 1.390 . S
C1952 C1951 1.387 . S
H1953 C1965 0.930 . S
H1954 C1967 0.930 . S
H1955 C1968 0.930 . S
H1956 C1972 0.959 . S
H1957 C1972 0.959 . S
H1958 C1972 0.961 . S
H1959 C1973 0.960 . S
H1960 C1973 0.961 . S
H1961 C1973 0.959 . S
H1962 C1976 0.929 . S
H1963 C1977 0.931 . S
H1964 C1979 0.930 . S
C1965 H1953 0.930 . S
C1965 C1966 1.399 . S
C1965 C1970 1.399 . S
C1966 C1965 1.399 . S
C1966 C1967 1.376 . S
C1967 H1954 0.930 . S
C1967 C1966 1.376 . S
C1967 C1968 1.388 . S
C1968 H1955 0.930 . S
C1968 C1967 1.388 . S
C1968 C1969 1.390 . S
C1969 C1968 1.390 . S
C1969 C1970 1.394 . S
C1969 C1975 1.465 . S
C1970 C1965 1.399 . S
C1970 C1969 1.394 . S
C1970 C1971 1.516 . S
C1971 C1970 1.516 . S
C1971 C1972 1.502 . S
C1971 C1973 1.561 . S
C1971 C1974 1.526 . S
C1972 H1956 0.959 . S
C1972 H1957 0.959 . S
C1972 H1958 0.961 . S
C1972 C1971 1.502 . S
C1973 H1959 0.960 . S
C1973 H1960 0.961 . S
C1973 H1961 0.959 . S
C1973 C1971 1.561 . S
C1974 C1971 1.526 . S
C1974 C1975 1.396 . S
C1974 C1979 1.390 . S
C1975 C1969 1.465 . S
C1975 C1974 1.396 . S
C1975 C1976 1.399 . S
C1976 H1962 0.929 . S
C1976 C1975 1.399 . S
C1976 C1977 1.385 . S
C1977 H1963 0.931 . S
C1977 C1976 1.385 . S
C1977 C1978 1.389 . S
C1978 C1977 1.389 . S
C1978 C1979 1.387 . S
C1979 H1964 0.930 . S
C1979 C1974 1.390 . S
C1979 C1978 1.387 . S
C1021 C226 1.187 . S
C1033 C67 1.243 . S
C1048 C321 1.037 . S
C1060 C140 1.278 . S
C1075 C235 1.276 . S
C1087 C394 1.033 . S
C1102 C308 1.267 . S
C1114 C489 1.056 . S
C1129 C58 1.174 . S
C1141 C403 1.245 . S
C1156 C153 1.051 . S
C1168 C476 1.277 . S
C1183 C909 1.195 . S
C1195 C560 1.243 . S
C1210 C655 1.244 . S
C1222 C982 1.178 . S
C1237 C728 1.251 . S
C1249 C573 1.179 . S
C1264 C823 1.245 . S
C1276 C646 1.190 . S
C1291 C896 1.249 . S
C1303 C741 1.184 . S
C1318 C814 1.066 . S
C1330 C991 1.274 . S
C1345 C315 1.910 . S
C1357 C74 1.900 . S
C1372 C147 1.949 . S
C1384 C410 1.949 . S
C1399 C242 1.943 . S
C1411 C483 1.935 . S
C1426 C567 1.878 . S
C1438 C830 1.878 . S
C1453 C662 1.946 . S
C1465 C903 1.949 . S
C1480 C735 1.890 . S
C1492 C998 1.900 . S
C1507 C651 2.174 . S
C1519 C63 2.153 . S
C1534 C158 2.160 . S
C1546 C746 2.139 . S
C1561 C819 2.151 . S
C1573 C231 2.139 . S
C1588 C326 2.165 . S
C1600 C914 2.142 . S
C1615 C399 2.171 . S
C1627 C987 2.140 . S
C1642 C578 2.170 . S
C1654 C494 2.170 . S
C1669 C237 1.244 . S
C1681 C56 1.406 . S
C1696 C151 1.411 . S
C1708 C310 1.190 . S
C1723 C224 1.432 . S
C1735 C405 1.182 . S
C1750 C319 1.422 . S
C1762 C478 1.287 . S
C1777 C69 1.220 . S
C1789 C392 1.412 . S
C1804 C142 1.201 . S
C1816 C487 1.431 . S
C1831 C898 1.205 . S
C1843 C571 1.432 . S
C1858 C644 1.411 . S
C1870 C993 1.283 . S
C1885 C739 1.423 . S
C1897 C562 1.180 . S
C1912 C657 1.301 . S
C1924 C812 1.405 . S
C1939 C907 1.413 . S
C1951 C730 1.311 . S
C1966 C980 1.390 . S
C1978 C825 1.322 . S
