# Generated by pormake.
# Topology utc, (3)-cn, num edge types: 1
# Building blocks:
#     Node 0, Type 0, BuildingBlock: OLANEW_clean_sbu_2, # of connection points: 3
#     Node 1, Type 0, BuildingBlock: OLANEW_clean_sbu_2, # of connection points: 3
#     Node 2, Type 0, BuildingBlock: OLANEW_clean_sbu_2, # of connection points: 3
#     Node 3, Type 0, BuildingBlock: OLANEW_clean_sbu_2, # of connection points: 3
#     Node 4, Type 0, BuildingBlock: OLANEW_clean_sbu_2, # of connection points: 3
#     Node 5, Type 0, BuildingBlock: OLANEW_clean_sbu_2, # of connection points: 3
#     Node 6, Type 0, BuildingBlock: OLANEW_clean_sbu_2, # of connection points: 3
#     Node 7, Type 0, BuildingBlock: OLANEW_clean_sbu_2, # of connection points: 3
#     Node 8, Type 0, BuildingBlock: OLANEW_clean_sbu_2, # of connection points: 3
#     Node 9, Type 0, BuildingBlock: OLANEW_clean_sbu_2, # of connection points: 3
#     Node 10, Type 0, BuildingBlock: OLANEW_clean_sbu_2, # of connection points: 3
#     Node 11, Type 0, BuildingBlock: OLANEW_clean_sbu_2, # of connection points: 3
#     Node 12, Type 0, BuildingBlock: OLANEW_clean_sbu_2, # of connection points: 3
#     Node 13, Type 0, BuildingBlock: OLANEW_clean_sbu_2, # of connection points: 3
#     Node 14, Type 0, BuildingBlock: OLANEW_clean_sbu_2, # of connection points: 3
#     Node 15, Type 0, BuildingBlock: OLANEW_clean_sbu_2, # of connection points: 3
#     Node 16, Type 0, BuildingBlock: OLANEW_clean_sbu_2, # of connection points: 3
#     Node 17, Type 0, BuildingBlock: OLANEW_clean_sbu_2, # of connection points: 3
#     Node 18, Type 0, BuildingBlock: OLANEW_clean_sbu_2, # of connection points: 3
#     Node 19, Type 0, BuildingBlock: OLANEW_clean_sbu_2, # of connection points: 3
#     Node 20, Type 0, BuildingBlock: OLANEW_clean_sbu_2, # of connection points: 3
#     Node 21, Type 0, BuildingBlock: OLANEW_clean_sbu_2, # of connection points: 3
#     Node 22, Type 0, BuildingBlock: OLANEW_clean_sbu_2, # of connection points: 3
#     Node 23, Type 0, BuildingBlock: OLANEW_clean_sbu_2, # of connection points: 3
#     Node 24, Type 0, BuildingBlock: OLANEW_clean_sbu_2, # of connection points: 3
#     Node 25, Type 0, BuildingBlock: OLANEW_clean_sbu_2, # of connection points: 3
#     Node 26, Type 0, BuildingBlock: OLANEW_clean_sbu_2, # of connection points: 3
#     Node 27, Type 0, BuildingBlock: OLANEW_clean_sbu_2, # of connection points: 3
#     Node 28, Type 0, BuildingBlock: OLANEW_clean_sbu_2, # of connection points: 3
#     Node 29, Type 0, BuildingBlock: OLANEW_clean_sbu_2, # of connection points: 3
#     Node 30, Type 0, BuildingBlock: OLANEW_clean_sbu_2, # of connection points: 3
#     Node 31, Type 0, BuildingBlock: OLANEW_clean_sbu_2, # of connection points: 3
#     Node 32, Type 0, BuildingBlock: OLANEW_clean_sbu_2, # of connection points: 3
#     Node 33, Type 0, BuildingBlock: OLANEW_clean_sbu_2, # of connection points: 3
#     Node 34, Type 0, BuildingBlock: OLANEW_clean_sbu_2, # of connection points: 3
#     Node 35, Type 0, BuildingBlock: OLANEW_clean_sbu_2, # of connection points: 3
#     Node 36, Type 0, BuildingBlock: OLANEW_clean_sbu_2, # of connection points: 3
#     Node 37, Type 0, BuildingBlock: OLANEW_clean_sbu_2, # of connection points: 3
#     Node 38, Type 0, BuildingBlock: OLANEW_clean_sbu_2, # of connection points: 3
#     Node 39, Type 0, BuildingBlock: OLANEW_clean_sbu_2, # of connection points: 3
#     Node 40, Type 0, BuildingBlock: OLANEW_clean_sbu_2, # of connection points: 3
#     Node 41, Type 0, BuildingBlock: OLANEW_clean_sbu_2, # of connection points: 3
#     Node 42, Type 0, BuildingBlock: OLANEW_clean_sbu_2, # of connection points: 3
#     Node 43, Type 0, BuildingBlock: OLANEW_clean_sbu_2, # of connection points: 3
#     Node 44, Type 0, BuildingBlock: OLANEW_clean_sbu_2, # of connection points: 3
#     Node 45, Type 0, BuildingBlock: OLANEW_clean_sbu_2, # of connection points: 3
#     Node 46, Type 0, BuildingBlock: OLANEW_clean_sbu_2, # of connection points: 3
#     Node 47, Type 0, BuildingBlock: OLANEW_clean_sbu_2, # of connection points: 3
#     Edge 48, Type (0, 0), None
#     Edge 49, Type (0, 0), None
#     Edge 50, Type (0, 0), None
#     Edge 51, Type (0, 0), None
#     Edge 52, Type (0, 0), None
#     Edge 53, Type (0, 0), None
#     Edge 54, Type (0, 0), None
#     Edge 55, Type (0, 0), None
#     Edge 56, Type (0, 0), None
#     Edge 57, Type (0, 0), None
#     Edge 58, Type (0, 0), None
#     Edge 59, Type (0, 0), None
#     Edge 60, Type (0, 0), None
#     Edge 61, Type (0, 0), None
#     Edge 62, Type (0, 0), None
#     Edge 63, Type (0, 0), None
#     Edge 64, Type (0, 0), None
#     Edge 65, Type (0, 0), None
#     Edge 66, Type (0, 0), None
#     Edge 67, Type (0, 0), None
#     Edge 68, Type (0, 0), None
#     Edge 69, Type (0, 0), None
#     Edge 70, Type (0, 0), None
#     Edge 71, Type (0, 0), None
#     Edge 72, Type (0, 0), None
#     Edge 73, Type (0, 0), None
#     Edge 74, Type (0, 0), None
#     Edge 75, Type (0, 0), None
#     Edge 76, Type (0, 0), None
#     Edge 77, Type (0, 0), None
#     Edge 78, Type (0, 0), None
#     Edge 79, Type (0, 0), None
#     Edge 80, Type (0, 0), None
#     Edge 81, Type (0, 0), None
#     Edge 82, Type (0, 0), None
#     Edge 83, Type (0, 0), None
#     Edge 84, Type (0, 0), None
#     Edge 85, Type (0, 0), None
#     Edge 86, Type (0, 0), None
#     Edge 87, Type (0, 0), None
#     Edge 88, Type (0, 0), None
#     Edge 89, Type (0, 0), None
#     Edge 90, Type (0, 0), None
#     Edge 91, Type (0, 0), None
#     Edge 92, Type (0, 0), None
#     Edge 93, Type (0, 0), None
#     Edge 94, Type (0, 0), None
#     Edge 95, Type (0, 0), None
#     Edge 96, Type (0, 0), None
#     Edge 97, Type (0, 0), None
#     Edge 98, Type (0, 0), None
#     Edge 99, Type (0, 0), None
#     Edge 100, Type (0, 0), None
#     Edge 101, Type (0, 0), None
#     Edge 102, Type (0, 0), None
#     Edge 103, Type (0, 0), None
#     Edge 104, Type (0, 0), None
#     Edge 105, Type (0, 0), None
#     Edge 106, Type (0, 0), None
#     Edge 107, Type (0, 0), None
#     Edge 108, Type (0, 0), None
#     Edge 109, Type (0, 0), None
#     Edge 110, Type (0, 0), None
#     Edge 111, Type (0, 0), None
#     Edge 112, Type (0, 0), None
#     Edge 113, Type (0, 0), None
#     Edge 114, Type (0, 0), None
#     Edge 115, Type (0, 0), None
#     Edge 116, Type (0, 0), None
#     Edge 117, Type (0, 0), None
#     Edge 118, Type (0, 0), None
#     Edge 119, Type (0, 0), None
# Relax obj value: 0.001
# Max RMSD: 0.013
# Mean RMSD: 0.013
data_MOF--net-utc--node1-OLANEW_clean_sbu_2--edge1-none
_symmetry_space_group_name_H-M    P1
_symmetry_Int_Tables_number       1
_symmetry_cell_setting            triclinic
loop_
_symmetry_equiv_pos_as_xyz
'x, y, z'
_cell_length_a     41.660609
_cell_length_b     41.662073
_cell_length_c     41.661247
_cell_angle_alpha  90.013569
_cell_angle_beta   89.972973
_cell_angle_gamma 89.983681
loop_
_atom_site_label
_atom_site_type_symbol
_atom_site_fract_x
_atom_site_fract_y
_atom_site_fract_z
_atom_type_partial_charge
O0 O 0.00564 0.109 0.27487 0.0
Cd1 Cd 0.04549 0.13446 0.31023 0.0
O2 O 0.02024 0.131 0.22907 0.0
Cd3 Cd 0.05402 0.16071 0.25534 0.0
O4 O 0.04955 0.20769 0.27735 0.0
C5 C 0.02297 0.21325 0.29126 0.0
O6 O 0.00184 0.19003 0.29402 0.0
C7 C 0.00178 0.11256 0.24477 0.0
C8 C 0.0943 0.09616 0.33617 0.0
O9 O 0.06554 0.09459 0.34695 0.0
O10 O 0.09996 0.1149 0.31245 0.0
O11 O 0.09612 0.75968 0.50545 0.0
Cd12 Cd 0.06813 0.79165 0.54651 0.0
O13 O 0.06448 0.77138 0.46477 0.0
Cd14 Cd 0.03144 0.7946 0.49769 0.0
O15 O -0.01096 0.7693 0.51427 0.0
C16 C -0.00776 0.73902 0.51634 0.0
O17 O 0.02062 0.72613 0.51154 0.0
C18 C 0.08877 0.75681 0.47592 0.0
C19 C 0.10226 0.84061 0.57747 0.0
O20 O 0.10649 0.81113 0.58512 0.0
O21 O 0.08283 0.84706 0.55453 0.0
O22 O 0.44159 0.85975 0.74194 0.0
Cd23 Cd 0.4153 0.83359 0.78784 0.0
O24 O 0.47286 0.81821 0.73197 0.0
Cd25 Cd 0.45634 0.78737 0.77062 0.0
O26 O 0.47532 0.74117 0.78542 0.0
C27 C 0.50569 0.73856 0.78412 0.0
O28 O 0.52306 0.76395 0.77725 0.0
C29 C 0.46354 0.84641 0.72534 0.0
C30 C 0.36768 0.86894 0.81972 0.0
O31 O 0.39751 0.87436 0.82486 0.0
O32 O 0.36016 0.84753 0.79897 0.0
O33 O 0.35695 0.1881 0.00663 0.0
Cd34 Cd 0.38294 0.15013 0.04371 0.0
O35 O 0.3888 0.18072 0.96506 0.0
Cd36 Cd 0.41953 0.15052 -0.0056 0.0
O37 O 0.4637 0.16688 0.01657 0.0
C38 C 0.46294 0.19538 0.02743 0.0
O39 O 0.43559 0.21107 0.02765 0.0
C40 C 0.365 0.19473 0.97788 0.0
C41 C 0.34492 0.10329 0.07349 0.0
O42 O 0.34388 0.13262 0.08263 0.0
O43 O 0.36297 0.0961 0.04963 0.0
O44 O 0.01489 0.84788 0.21254 0.0
Cd45 Cd 0.03991 0.82648 0.16348 0.0
O46 O 0.96665 0.83335 0.19623 0.0
Cd47 Cd -0.01835 0.80698 0.15381 0.0
O48 O 0.97025 0.75657 0.14787 0.0
C49 C 0.94189 0.74903 0.15617 0.0
O50 O 0.92152 0.77183 0.16393 0.0
C51 C -0.01528 0.84637 0.21706 0.0
C52 C 0.08763 0.86376 0.13424 0.0
O53 O 0.05788 0.8685 0.12805 0.0
O54 O 0.09494 0.84218 0.1549 0.0
O55 O 0.36401 0.76181 0.45747 0.0
Cd56 Cd 0.38669 0.80159 0.42 0.0
O57 O 0.39619 0.77197 0.49819 0.0
Cd58 Cd 0.4238 0.80403 0.46778 0.0
O59 O 0.46596 0.79895 0.43758 0.0
C60 C 0.46802 0.77313 0.42147 0.0
O61 O 0.44387 0.75287 0.42161 0.0
C62 C 0.37315 0.75615 0.48611 0.0
C63 C 0.34523 0.84604 0.39115 0.0
O64 O 0.34762 0.81734 0.38036 0.0
O65 O 0.36141 0.85356 0.4162 0.0
O66 O 0.41994 0.10645 0.72034 0.0
Cd67 Cd 0.38848 0.12778 0.67518 0.0
O68 O 0.46258 0.13315 0.70387 0.0
Cd69 Cd 0.44029 0.15784 0.66366 0.0
O70 O 0.44254 0.20634 0.64495 0.0
C71 C 0.47055 0.21705 0.63953 0.0
O72 O 0.4952 0.1975 0.64172 0.0
C73 C 0.44926 0.11436 0.72383 0.0
C74 C 0.3464 0.0861 0.6435 0.0
O75 O 0.37641 0.08632 0.63677 0.0
O76 O 0.33632 0.10468 0.66586 0.0
O77 O 0.10134 0.19159 0.96924 0.0
Cd78 Cd 0.07917 0.16366 0.92213 0.0
O79 O 0.082 0.23804 0.95267 0.0
Cd80 Cd 0.0539 0.22011 0.91257 0.0
O81 O 0.00295 0.2304 0.90982 0.0
C82 C -0.00457 0.25857 0.9188 0.0
O83 O 0.0183 0.27924 0.92539 0.0
C84 C 0.09772 0.2217 0.97304 0.0
C85 C 0.11817 0.11774 0.89208 0.0
O86 O 0.12068 0.14759 0.88511 0.0
O87 O 0.09805 0.10954 0.91386 0.0
O88 O 0.26446 -0.00815 0.10761 0.0
Cd89 Cd 0.30083 0.03159 0.13184 0.0
O90 O 0.21983 0.00595 0.13225 0.0
Cd91 Cd 0.24717 0.03976 0.16094 0.0
O92 O 0.27125 0.04034 0.20709 0.0
C93 C 0.28682 0.01518 0.21447 0.0
O94 O 0.28976 -0.00798 0.19327 0.0
C95 C 0.23459 -0.01217 0.11272 0.0
C96 C 0.32804 0.0782 0.09168 0.0
O97 O 0.33815 0.04917 0.09132 0.0
O98 O 0.30443 0.08518 0.11013 0.0
O99 O 0.20951 0.01724 0.36463 0.0
Cd100 Cd 0.16927 0.05223 0.39019 0.0
O101 O 0.1953 0.97129 0.38658 0.0
Cd102 Cd 0.15989 -0.00307 0.41491 0.0
O103 O 0.15838 0.02052 0.46127 0.0
C104 C 0.18358 0.03569 0.46932 0.0
O105 O 0.20723 0.03846 0.44865 0.0
C106 C 0.21379 -0.0128 0.36836 0.0
C107 C 0.12053 0.07921 0.35258 0.0
O108 O 0.14933 0.08986 0.35112 0.0
O109 O 0.11482 0.05508 0.37077 0.0
O110 O 0.17648 0.95498 0.61527 0.0
Cd111 Cd 0.14067 0.91381 0.63783 0.0
O112 O 0.22244 0.93639 0.63361 0.0
Cd113 Cd 0.19559 0.9021 0.66224 0.0
O114 O 0.1755 0.90899 0.70984 0.0
C115 C 0.16347 0.93652 0.71514 0.0
O116 O 0.1612 0.95719 0.69145 0.0
C117 C 0.20686 0.95717 0.61772 0.0
C118 C 0.11718 0.86639 0.59638 0.0
O119 O 0.10525 0.89473 0.59636 0.0
O120 O 0.14087 0.86058 0.6151 0.0
O121 O 0.2561 0.94757 0.85675 0.0
Cd122 Cd 0.29727 0.91229 0.8803 0.0
O123 O 0.26555 -0.00957 0.88626 0.0
Cd124 Cd 0.29905 0.96261 0.91484 0.0
O125 O 0.29488 0.93563 0.95918 0.0
C126 C 0.26891 0.92009 0.96298 0.0
O127 O 0.24804 0.91888 0.93939 0.0
C128 C 0.24971 0.97651 0.8643 0.0
C129 C 0.34285 0.88522 0.83885 0.0
O130 O 0.31447 0.87358 0.84088 0.0
O131 O 0.34956 0.9102 0.8555 0.0
O132 O 0.24709 0.94192 0.35711 0.0
Cd133 Cd 0.29627 0.91707 0.33581 0.0
O134 O 0.26066 -0.01108 0.33677 0.0
Cd135 Cd 0.30101 0.97283 0.30787 0.0
O136 O 0.30489 -0.01833 0.25668 0.0
C137 C 0.29532 0.00931 0.24802 0.0
O138 O 0.28733 0.03044 0.27002 0.0
C139 C 0.2415 0.9717 0.35308 0.0
C140 C 0.32649 0.87036 0.37369 0.0
O141 O 0.3306 0.90032 0.37927 0.0
O142 O 0.30739 0.86228 0.35098 0.0
O143 O 0.25373 -0.01255 0.60474 0.0
Cd144 Cd 0.28103 0.03518 0.58339 0.0
O145 O 0.20649 0.00676 0.59055 0.0
Cd146 Cd 0.22411 0.04775 0.56356 0.0
O147 O 0.21647 0.05279 0.51234 0.0
C148 C 0.18887 0.04378 0.50305 0.0
O149 O 0.16722 0.03581 0.52454 0.0
C150 C 0.2233 -0.01515 0.60347 0.0
C151 C 0.32379 0.0669 0.62438 0.0
O152 O 0.29351 0.07201 0.62612 0.0
O153 O 0.33394 0.04617 0.60404 0.0
O154 O 0.21462 0.02123 0.8569 0.0
Cd155 Cd 0.16623 0.04722 0.83521 0.0
O156 O 0.20496 0.97671 0.82985 0.0
Cd157 Cd 0.16339 -0.00769 0.80252 0.0
O158 O 0.15329 0.97691 0.75378 0.0
C159 C 0.1589 0.94744 0.7482 0.0
O160 O 0.16681 0.92847 0.7721 0.0
C161 C 0.22221 -0.00739 0.84929 0.0
C162 C 0.13626 0.09337 0.87399 0.0
O163 O 0.13008 0.06344 0.87742 0.0
O164 O 0.15719 0.10158 0.853 0.0
O165 O 0.188 0.95645 0.10148 0.0
Cd166 Cd 0.1601 0.9099 0.07835 0.0
O167 O 0.23416 0.94171 0.08004 0.0
Cd168 Cd 0.21688 0.90223 0.05065 0.0
O169 O 0.23083 0.90063 0.00046 0.0
C170 C 0.25945 0.90979 -0.00481 0.0
O171 O 0.27838 0.91592 0.01964 0.0
C172 C 0.21791 0.961 0.09716 0.0
C173 C 0.11277 0.88108 0.11648 0.0
O174 O 0.14236 0.87322 0.11941 0.0
O175 O 0.10549 0.9031 0.09628 0.0
O176 O 0.10847 0.26864 0.00321 0.0
Cd177 Cd 0.13207 0.30537 0.04305 0.0
O178 O 0.13083 0.22359 0.01948 0.0
Cd179 Cd 0.1598 0.25114 0.05291 0.0
O180 O 0.20756 0.27041 0.04527 0.0
C181 C 0.21273 0.28167 0.01739 0.0
O182 O 0.18882 0.28381 -0.00304 0.0
C183 C 0.11261 0.23852 0.00018 0.0
C184 C 0.09213 0.33127 0.09066 0.0
O185 O 0.09074 0.34133 0.06165 0.0
O186 O 0.11146 0.30825 0.09715 0.0
O187 O 0.59748 0.2186 0.93742 0.0
Cd188 Cd 0.62344 0.17977 0.9012 0.0
O189 O 0.64088 0.24756 0.94607 0.0
Cd190 Cd 0.67086 0.21519 0.91828 0.0
O191 O 0.71435 0.18681 0.92264 0.0
C192 C 0.71804 0.17107 0.9485 0.0
O193 O 0.69469 0.17041 0.96968 0.0
C194 C 0.61132 0.24226 0.951 0.0
C195 C 0.58475 0.14738 0.85669 0.0
O196 O 0.58483 0.13932 0.88636 0.0
O197 O 0.60202 0.17132 0.84806 0.0
O198 O 0.01082 0.35905 0.20416 0.0
Cd199 Cd 0.04496 0.38545 0.16374 0.0
O200 O 0.96633 0.38636 0.19566 0.0
Cd201 Cd -0.00801 0.4164 0.16172 0.0
O202 O 0.01673 0.46221 0.16177 0.0
C203 C 0.03303 0.46879 0.18668 0.0
O204 O 0.03619 0.44705 0.20929 0.0
C205 C -0.01841 0.36494 0.21099 0.0
C206 C 0.07421 0.34774 0.11624 0.0
O207 O 0.08452 0.34748 0.1452 0.0
O208 O 0.04944 0.36478 0.10978 0.0
O209 O 0.85345 0.73974 0.4372 0.0
Cd210 Cd 0.82884 0.78681 0.41139 0.0
O211 O 0.83133 0.75287 0.48351 0.0
Cd212 Cd 0.80054 0.79137 0.46659 0.0
O213 O 0.74991 0.79694 0.47726 0.0
C214 C 0.74213 0.78988 0.50589 0.0
O215 O 0.76476 0.78321 0.5268 0.0
C216 C 0.84923 0.7345 0.46702 0.0
C217 C 0.86423 0.8183 0.36357 0.0
O218 O 0.87047 0.82272 0.39335 0.0
O219 O 0.84206 0.79832 0.35617 0.0
O220 O 0.96978 0.1 0.19893 0.0
Cd221 Cd 0.92251 0.07635 0.17261 0.0
O222 O 0.95536 0.08035 0.24597 0.0
Cd223 Cd 0.91543 0.05105 0.22972 0.0
O224 O 0.90983 0.00033 0.24015 0.0
C225 C 0.91827 -0.00781 0.2683 0.0
O226 O 0.92634 0.01452 0.28903 0.0
C227 C 0.97466 0.09666 0.22891 0.0
C228 C 0.89134 0.1137 0.12614 0.0
O229 O 0.88484 0.11702 0.15602 0.0
O230 O 0.91315 0.09353 0.11813 0.0
O231 O 0.36731 0.7231 0.53261 0.0
Cd232 Cd 0.34486 0.67638 0.56101 0.0
O233 O 0.33837 0.71173 0.48978 0.0
Cd234 Cd 0.31251 0.67106 0.50973 0.0
O235 O 0.26318 0.65483 0.50706 0.0
C236 C 0.25162 0.65364 0.47889 0.0
O237 O 0.27065 0.65854 0.45423 0.0
C238 C 0.35861 0.7295 0.504 0.0
C239 C 0.38457 0.64214 0.60303 0.0
O240 O 0.38545 0.63692 0.57274 0.0
O241 O 0.36589 0.66423 0.61349 0.0
O242 O -0.00736 0.60653 0.25886 0.0
Cd243 Cd 0.04109 0.58717 0.28628 0.0
O244 O 0.01033 0.5894 0.21195 0.0
Cd245 Cd 0.05048 0.56127 0.22978 0.0
O246 O 0.05279 0.51004 0.2205 0.0
C247 C 0.04241 0.50203 0.19296 0.0
O248 O 0.03459 0.52454 0.17232 0.0
C249 C -0.01076 0.60377 0.22862 0.0
C250 C 0.06937 0.63013 0.32961 0.0
O251 O 0.07475 0.63227 0.29941 0.0
O252 O 0.05011 0.60827 0.33945 0.0
O253 O 0.45606 0.35563 0.75629 0.0
Cd254 Cd 0.41899 0.376 0.7977 0.0
O255 O 0.49844 0.38374 0.77076 0.0
Cd256 Cd 0.469 0.41012 0.80476 0.0
O257 O 0.44442 0.45588 0.80073 0.0
C258 C 0.43098 0.4614 0.77392 0.0
O259 O 0.43006 0.43862 0.75213 0.0
C260 C 0.48536 0.36342 0.75225 0.0
C261 C 0.39083 0.33209 0.84026 0.0
O262 O 0.37995 0.33565 0.81172 0.0
O263 O 0.41565 0.34829 0.84847 0.0
O264 O 0.51142 0.60582 0.77403 0.0
Cd265 Cd 0.5504 0.62896 0.81169 0.0
O266 O 0.53022 0.62667 0.72924 0.0
Cd267 Cd 0.5625 0.65605 0.75775 0.0
O268 O 0.54944 0.70367 0.77438 0.0
C269 C 0.52035 0.70667 0.78305 0.0
O270 O 0.502 0.68109 0.78457 0.0
C271 C 0.50987 0.60925 0.74371 0.0
C272 C 0.59671 0.5874 0.83699 0.0
O273 O 0.56765 0.58668 0.847 0.0
O274 O 0.60389 0.60702 0.81442 0.0
O275 O 0.60856 0.2825 -0.0084 0.0
Cd276 Cd 0.58431 0.30737 0.0393 0.0
O277 O 0.56686 0.25065 -0.01519 0.0
Cd278 Cd 0.53768 0.26679 0.02495 0.0
O279 O 0.49249 0.24317 0.03566 0.0
C280 C 0.493 0.21285 0.03232 0.0
O281 O 0.52045 0.19846 0.02648 0.0
C282 C 0.59439 0.26029 0.9761 0.0
C283 C 0.62013 0.35468 0.0709 0.0
O284 O 0.62635 0.32484 0.07493 0.0
O285 O 0.59772 0.36237 0.0513 0.0
O286 O 0.93778 0.35463 0.24652 0.0
Cd287 Cd 0.91501 0.33229 0.29621 0.0
O288 O -0.01589 0.33069 0.25582 0.0
Cd289 Cd 0.97015 0.3021 0.29716 0.0
O290 O -0.01565 0.2526 0.30495 0.0
C291 C 0.01329 0.24641 0.29756 0.0
O292 O 0.0325 0.27004 0.2894 0.0
C293 C 0.96676 0.3489 0.23863 0.0
C294 C 0.86508 0.3665 0.32566 0.0
O295 O 0.89441 0.37491 0.3295 0.0
O296 O 0.8591 0.34264 0.3072 0.0
O297 O 0.86341 0.70577 0.51387 0.0
Cd298 Cd 0.8927 0.66984 0.55042 0.0
O299 O 0.8878 0.69253 0.46886 0.0
Cd300 Cd 0.9222 0.66516 0.49684 0.0
O301 O 0.96644 0.68869 0.51113 0.0
C302 C 0.96376 0.71852 0.51699 0.0
O303 O 0.93513 0.7317 0.51727 0.0
C304 C 0.86694 0.70904 0.48369 0.0
C305 C 0.85782 0.62151 0.5815 0.0
O306 O 0.85597 0.65077 0.59077 0.0
O307 O 0.87525 0.61506 0.55698 0.0
O308 O 0.53243 0.35786 0.71996 0.0
Cd309 Cd 0.56116 0.33876 0.67197 0.0
O310 O 0.48806 0.33368 0.70419 0.0
Cd311 Cd 0.50775 0.31078 0.66159 0.0
O312 O 0.50427 0.26245 0.64261 0.0
C313 C 0.47592 0.25174 0.63943 0.0
O314 O 0.45153 0.27124 0.64379 0.0
C315 C 0.50305 0.35069 0.72454 0.0
C316 C 0.60584 0.37982 0.64305 0.0
O317 O 0.57582 0.38224 0.6368 0.0
O318 O 0.61476 0.35888 0.66373 0.0
O319 O 0.86045 0.24235 0.95108 0.0
Cd320 Cd 0.88406 0.28341 0.91566 0.0
O321 O 0.88326 0.25782 -0.00378 0.0
Cd322 Cd 0.91105 0.29261 0.9692 0.0
O323 O 0.95629 0.29147 0.94343 0.0
C324 C 0.96242 0.26565 0.92839 0.0
O325 O 0.94056 0.24298 0.92706 0.0
C326 C 0.865 0.2387 -0.0189 0.0
C327 C 0.84335 0.32899 0.88769 0.0
O328 O 0.84577 0.30067 0.87595 0.0
O329 O 0.85915 0.33558 0.91324 0.0
O330 O 0.95915 0.61543 0.18187 0.0
Cd331 Cd 0.91816 0.63923 0.14669 0.0
O332 O 0.94123 0.63457 0.22781 0.0
Cd333 Cd 0.90614 0.66256 0.2014 0.0
O334 O 0.90806 0.70903 0.17798 0.0
C335 C 0.93428 0.71566 0.16388 0.0
O336 O 0.95684 0.69371 0.16203 0.0
C337 C 0.96164 0.61819 0.21221 0.0
C338 C 0.87136 0.59878 0.12074 0.0
O339 O 0.89942 0.60047 0.10826 0.0
O340 O 0.86562 0.61524 0.14609 0.0
O341 O 0.59855 0.68852 0.45616 0.0
Cd342 Cd 0.57686 0.6611 0.40857 0.0
O343 O 0.58142 0.73558 0.43889 0.0
Cd344 Cd 0.55296 0.71882 0.3985 0.0
O345 O 0.50318 0.73427 0.39939 0.0
C346 C 0.49925 0.76295 0.40904 0.0
O347 O 0.52454 0.78113 0.41389 0.0
C348 C 0.59603 0.71878 0.45969 0.0
C349 C 0.61546 0.61383 0.38016 0.0
O350 O 0.61887 0.6435 0.37284 0.0
O351 O 0.59459 0.60643 0.40151 0.0
O352 O 0.7804 0.50911 0.61636 0.0
Cd353 Cd 0.81785 0.54788 0.64034 0.0
O354 O 0.73598 0.52517 0.64013 0.0
Cd355 Cd 0.76463 0.55679 0.67006 0.0
O356 O 0.78557 0.54672 0.71668 0.0
C357 C 0.79733 0.51877 0.71999 0.0
O358 O 0.79895 0.49965 0.69497 0.0
C359 C 0.75031 0.50638 0.62091 0.0
C360 C 0.84243 0.59579 0.60009 0.0
O361 O 0.85303 0.56696 0.59864 0.0
O362 O 0.8196 0.60196 0.61977 0.0
O363 O 0.70618 0.50032 0.86198 0.0
Cd364 Cd 0.66796 0.5361 0.88939 0.0
O365 O 0.69625 0.45606 0.88917 0.0
Cd366 Cd 0.66364 0.48331 0.9193 0.0
O367 O 0.66583 0.51319 0.9619 0.0
C368 C 0.69074 0.5305 0.96507 0.0
O369 O 0.71216 0.53122 0.94194 0.0
C370 C 0.71188 0.47081 0.86759 0.0
C371 C 0.6216 0.56816 0.85292 0.0
O372 O 0.65099 0.57719 0.85253 0.0
O373 O 0.61417 0.54336 0.8695 0.0
O374 O 0.69728 0.46677 0.10776 0.0
Cd375 Cd 0.66428 0.42411 0.13179 0.0
O376 O 0.74445 0.45156 0.12621 0.0
Cd377 Cd 0.71989 0.41643 0.1558 0.0
O378 O 0.69506 0.41629 0.20163 0.0
C379 C 0.67903 0.44136 0.20838 0.0
O380 O 0.67649 0.46434 0.18695 0.0
C381 C 0.7275 0.47085 0.10983 0.0
C382 C 0.63663 0.37926 0.0901 0.0
O383 O 0.62437 0.40724 0.09359 0.0
O384 O 0.66244 0.37263 0.10544 0.0
O385 O 0.74954 0.44094 0.35904 0.0
Cd386 Cd 0.79216 0.40857 0.3841 0.0
O387 O 0.76303 0.48767 0.37981 0.0
Cd388 Cd 0.79865 0.4637 0.40925 0.0
O389 O 0.79866 0.44284 0.45692 0.0
C390 C 0.7729 0.42875 0.46516 0.0
O391 O 0.74972 0.42536 0.44408 0.0
C392 C 0.74466 0.47095 0.36219 0.0
C393 C 0.83927 0.38225 0.34391 0.0
O394 O 0.8117 0.36893 0.34678 0.0
O395 O 0.84439 0.40851 0.3591 0.0
O396 O 0.74618 0.42606 0.85723 0.0
Cd397 Cd 0.79497 0.40195 0.83448 0.0
O398 O 0.75606 0.47182 0.83246 0.0
Cd399 Cd 0.79711 0.45749 0.80359 0.0
O400 O 0.8071 0.47578 0.75581 0.0
C401 C 0.80211 0.50566 0.75221 0.0
O402 O 0.79488 0.52322 0.77739 0.0
C403 C 0.73879 0.45509 0.85117 0.0
C404 C 0.82492 0.35395 0.87084 0.0
O405 O 0.82921 0.38369 0.87734 0.0
O406 O 0.80585 0.34668 0.84784 0.0
O407 O 0.77252 0.50243 0.09381 0.0
Cd408 Cd 0.79643 0.55086 0.07025 0.0
O409 O 0.72395 0.51966 0.08155 0.0
Cd410 Cd 0.73856 0.55991 0.05179 0.0
O411 O 0.72606 0.55623 0.00141 0.0
C412 C 0.69853 0.54408 -0.00353 0.0
O413 O 0.67958 0.53836 0.02102 0.0
C414 C 0.74219 0.49878 0.09424 0.0
C415 C 0.84574 0.58046 0.10488 0.0
O416 O 0.81625 0.58522 0.1122 0.0
O417 O 0.85213 0.56104 0.0819 0.0
O418 O 0.71146 0.51572 0.34907 0.0
Cd419 Cd 0.66353 0.54125 0.32591 0.0
O420 O 0.6978 0.46796 0.33067 0.0
Cd421 Cd 0.65815 0.48363 0.3007 0.0
O422 O 0.65773 0.47445 0.24944 0.0
C423 C 0.6689 0.4472 0.24148 0.0
O424 O 0.67653 0.42649 0.26399 0.0
C425 C 0.71686 0.48575 0.34643 0.0
C426 C 0.63348 0.58876 0.36296 0.0
O427 O 0.62683 0.55901 0.36702 0.0
O428 O 0.65489 0.59617 0.34214 0.0
O429 O 0.70285 0.47639 0.60946 0.0
Cd430 Cd 0.67428 0.43039 0.58602 0.0
O431 O 0.74866 0.46031 0.58823 0.0
Cd432 Cd 0.73003 0.42123 0.55918 0.0
O433 O 0.73862 0.4146 0.50824 0.0
C434 C 0.76664 0.42247 0.49912 0.0
O435 O 0.78812 0.43066 0.52069 0.0
C436 C 0.73289 0.4801 0.60524 0.0
C437 C 0.62959 0.39882 0.62512 0.0
O438 O 0.65956 0.39212 0.62678 0.0
O439 O 0.6207 0.42103 0.6058 0.0
O440 O 0.60762 0.76541 0.49003 0.0
Cd441 Cd 0.63122 0.80156 0.53047 0.0
O442 O 0.62741 0.71955 0.50737 0.0
Cd443 Cd 0.65522 0.74628 0.54237 0.0
O444 O 0.70186 0.76929 0.5402 0.0
C445 C 0.70869 0.78251 0.51358 0.0
O446 O 0.68683 0.78381 0.49091 0.0
C447 C 0.61069 0.73512 0.48725 0.0
C448 C 0.59128 0.82775 0.57786 0.0
O449 O 0.59078 0.83852 0.54906 0.0
O450 O 0.60967 0.80393 0.58417 0.0
O451 O 0.09818 0.7287 0.42686 0.0
Cd452 Cd 0.12444 0.6863 0.39515 0.0
O453 O 0.1279 0.71663 0.46895 0.0
Cd454 Cd 0.15681 0.67964 0.44624 0.0
O455 O 0.20554 0.66147 0.44693 0.0
C456 C 0.21684 0.65477 0.47442 0.0
O457 O 0.19788 0.65589 0.4996 0.0
C458 C 0.10625 0.73366 0.45593 0.0
C459 C 0.08657 0.65079 0.35247 0.0
O460 O 0.08711 0.64401 0.38247 0.0
O461 O 0.10297 0.6749 0.34269 0.0
O462 O 0.50474 0.85188 0.68632 0.0
Cd463 Cd 0.54326 0.88018 0.65173 0.0
O464 O 0.47745 0.8951 0.70005 0.0
Cd465 Cd 0.50949 0.9288 0.6765 0.0
O466 O 0.51965 0.97519 0.69799 0.0
C467 C 0.5206 0.97521 0.72849 0.0
O468 O 0.51859 0.94784 0.74399 0.0
C469 C 0.48178 0.86503 0.70166 0.0
C470 C 0.5732 0.84403 0.60345 0.0
O471 O 0.58196 0.84154 0.63281 0.0
O472 O 0.54978 0.86282 0.59681 0.0
O473 O 0.35814 0.2304 0.9335 0.0
Cd474 Cd 0.33592 0.27933 0.90893 0.0
O475 O 0.32766 0.23704 0.97633 0.0
Cd476 Cd 0.29943 0.27802 0.96067 0.0
O477 O 0.25106 0.28962 0.97623 0.0
C478 C 0.24573 0.28526 0.00595 0.0
O479 O 0.2697 0.2776 0.02492 0.0
C480 C 0.34898 0.22134 0.96124 0.0
C481 C 0.37364 0.31204 0.86372 0.0
O482 O 0.37869 0.31533 0.89387 0.0
O483 O 0.35161 0.29256 0.85472 0.0
O484 O 0.47999 0.59863 0.69603 0.0
Cd485 Cd 0.4326 0.5785 0.66736 0.0
O486 O 0.4621 0.57914 0.74193 0.0
Cd487 Cd 0.42197 0.55138 0.72347 0.0
O488 O 0.41638 0.50108 0.73594 0.0
C489 C 0.42318 0.49444 0.76492 0.0
O490 O 0.42943 0.51791 0.78502 0.0
C491 C 0.48306 0.59467 0.72617 0.0
C492 C 0.40269 0.62169 0.62538 0.0
O493 O 0.3967 0.62225 0.65554 0.0
O494 O 0.42336 0.6014 0.61501 0.0
O495 O 0.85435 0.20702 0.02762 0.0
Cd496 Cd 0.83309 0.15943 0.05529 0.0
O497 O 0.83434 0.19119 -0.01879 0.0
Cd498 Cd 0.80603 0.15106 -0.00116 0.0
O499 O 0.75555 0.15046 -0.01407 0.0
C500 C 0.75009 0.15985 0.95743 0.0
O501 O 0.7744 0.16541 0.93814 0.0
C502 C 0.85035 0.21126 -0.00238 0.0
C503 C 0.87273 0.13096 0.10159 0.0
O504 O 0.87568 0.12392 0.07179 0.0
O505 O 0.85179 0.15204 0.10957 0.0
O506 O 0.49839 0.10822 0.75171 0.0
Cd507 Cd 0.53918 0.08618 0.78832 0.0
O508 O 0.45772 0.07809 0.76698 0.0
Cd509 Cd 0.49064 0.04901 0.79503 0.0
O510 O 0.51086 0.00492 0.77595 0.0
C511 C 0.51698 0.00541 0.74606 0.0
O512 O 0.51384 0.03243 0.73012 0.0
C513 C 0.469 0.10018 0.74932 0.0
C514 C 0.56735 0.12803 0.83284 0.0
O515 O 0.57565 0.12851 0.80324 0.0
O516 O 0.54508 0.10863 0.84141 0.0
O517 O 0.93978 0.8575 0.25007 0.0
Cd518 Cd 0.90667 0.87996 0.29365 0.0
O519 O -0.01333 0.87642 0.26553 0.0
Cd520 Cd 0.96209 0.90419 0.30214 0.0
O521 O 0.93986 0.95129 0.30122 0.0
C522 C 0.92544 0.95856 0.27535 0.0
O523 O 0.92252 0.93686 0.25266 0.0
C524 C 0.96989 0.86036 0.2458 0.0
C525 C 0.88029 0.8376 0.33875 0.0
O526 O 0.86775 0.84081 0.31086 0.0
O527 O 0.90587 0.85344 0.34512 0.0
loop_
_geom_bond_atom_site_label_1
_geom_bond_atom_site_label_2
_geom_bond_distance
_geom_bond_site_symmetry_2
_ccdc_geom_bond_type
O0 Cd1 2.300 . S
O0 C7 1.275 . S
Cd1 O0 2.300 . S
Cd1 O9 2.381 . S
Cd1 O10 2.378 . S
O2 Cd3 2.385 . S
O2 C7 1.255 . S
Cd3 O2 2.385 . S
Cd3 O4 2.317 . S
O4 Cd3 2.317 . S
O4 C5 1.232 . S
C5 O4 1.232 . S
C5 O6 1.218 . S
O6 C5 1.218 . S
C7 O0 1.275 . S
C7 O2 1.255 . S
C8 O9 1.258 . S
C8 O10 1.256 . S
O9 Cd1 2.381 . S
O9 C8 1.258 . S
O10 Cd1 2.378 . S
O10 C8 1.256 . S
O11 Cd12 2.300 . S
O11 C18 1.275 . S
Cd12 O11 2.300 . S
Cd12 O20 2.381 . S
Cd12 O21 2.378 . S
O13 Cd14 2.385 . S
O13 C18 1.255 . S
Cd14 O13 2.385 . S
Cd14 O15 2.317 . S
O15 Cd14 2.317 . S
O15 C16 1.232 . S
C16 O15 1.232 . S
C16 O17 1.218 . S
O17 C16 1.218 . S
C18 O11 1.275 . S
C18 O13 1.255 . S
C19 O20 1.258 . S
C19 O21 1.256 . S
O20 Cd12 2.381 . S
O20 C19 1.258 . S
O21 Cd12 2.378 . S
O21 C19 1.256 . S
O22 Cd23 2.300 . S
O22 C29 1.275 . S
Cd23 O22 2.300 . S
Cd23 O31 2.381 . S
Cd23 O32 2.378 . S
O24 Cd25 2.385 . S
O24 C29 1.255 . S
Cd25 O24 2.385 . S
Cd25 O26 2.317 . S
O26 Cd25 2.317 . S
O26 C27 1.232 . S
C27 O26 1.232 . S
C27 O28 1.218 . S
O28 C27 1.218 . S
C29 O22 1.275 . S
C29 O24 1.255 . S
C30 O31 1.258 . S
C30 O32 1.256 . S
O31 Cd23 2.381 . S
O31 C30 1.258 . S
O32 Cd23 2.378 . S
O32 C30 1.256 . S
O33 Cd34 2.300 . S
O33 C40 1.275 . S
Cd34 O33 2.300 . S
Cd34 O42 2.381 . S
Cd34 O43 2.378 . S
O35 Cd36 2.385 . S
O35 C40 1.255 1_556 S
Cd36 O35 2.385 . S
Cd36 O37 2.317 1_556 S
O37 Cd36 2.317 1_554 S
O37 C38 1.232 . S
C38 O37 1.232 . S
C38 O39 1.218 1_554 S
O39 C38 1.218 1_556 S
C40 O33 1.275 . S
C40 O35 1.255 1_554 S
C41 O42 1.258 . S
C41 O43 1.256 . S
O42 Cd34 2.381 . S
O42 C41 1.258 . S
O43 Cd34 2.378 . S
O43 C41 1.256 . S
O44 Cd45 2.300 . S
O44 C51 1.275 . S
Cd45 O44 2.300 . S
Cd45 O53 2.381 . S
Cd45 O54 2.378 . S
O46 Cd47 2.385 . S
O46 C51 1.255 . S
Cd47 O46 2.385 . S
Cd47 O48 2.317 . S
O48 Cd47 2.317 . S
O48 C49 1.232 . S
C49 O48 1.232 . S
C49 O50 1.218 . S
O50 C49 1.218 . S
C51 O44 1.275 . S
C51 O46 1.255 . S
C52 O53 1.258 . S
C52 O54 1.256 . S
O53 Cd45 2.381 . S
O53 C52 1.258 . S
O54 Cd45 2.378 . S
O54 C52 1.256 . S
O55 Cd56 2.300 . S
O55 C62 1.275 . S
Cd56 O55 2.300 . S
Cd56 O64 2.381 . S
Cd56 O65 2.378 . S
O57 Cd58 2.385 . S
O57 C62 1.255 . S
Cd58 O57 2.385 . S
Cd58 O59 2.317 . S
O59 Cd58 2.317 . S
O59 C60 1.232 . S
C60 O59 1.232 . S
C60 O61 1.218 . S
O61 C60 1.218 . S
C62 O55 1.275 . S
C62 O57 1.255 . S
C63 O64 1.258 . S
C63 O65 1.256 . S
O64 Cd56 2.381 . S
O64 C63 1.258 . S
O65 Cd56 2.378 . S
O65 C63 1.256 . S
O66 Cd67 2.300 . S
O66 C73 1.275 . S
Cd67 O66 2.300 . S
Cd67 O75 2.381 . S
Cd67 O76 2.378 . S
O68 Cd69 2.385 . S
O68 C73 1.255 . S
Cd69 O68 2.385 . S
Cd69 O70 2.317 . S
O70 Cd69 2.317 . S
O70 C71 1.232 . S
C71 O70 1.232 . S
C71 O72 1.218 . S
O72 C71 1.218 . S
C73 O66 1.275 . S
C73 O68 1.255 . S
C74 O75 1.258 . S
C74 O76 1.256 . S
O75 Cd67 2.381 . S
O75 C74 1.258 . S
O76 Cd67 2.378 . S
O76 C74 1.256 . S
O77 Cd78 2.300 . S
O77 C84 1.275 . S
Cd78 O77 2.300 . S
Cd78 O86 2.381 . S
Cd78 O87 2.378 . S
O79 Cd80 2.385 . S
O79 C84 1.255 1_554 S
Cd80 O79 2.385 . S
Cd80 O81 2.317 1_554 S
O81 Cd80 2.317 1_556 S
O81 C82 1.232 . S
C82 O81 1.232 . S
C82 O83 1.218 1_556 S
O83 C82 1.218 1_554 S
C84 O77 1.275 . S
C84 O79 1.255 1_556 S
C85 O86 1.258 . S
C85 O87 1.256 . S
O86 Cd78 2.381 . S
O86 C85 1.258 . S
O87 Cd78 2.378 . S
O87 C85 1.256 . S
O88 Cd89 2.300 . S
O88 C95 1.275 . S
Cd89 O88 2.300 . S
Cd89 O97 2.381 . S
Cd89 O98 2.378 . S
O90 Cd91 2.385 . S
O90 C95 1.255 . S
Cd91 O90 2.385 . S
Cd91 O92 2.317 . S
O92 Cd91 2.317 . S
O92 C93 1.232 . S
C93 O92 1.232 . S
C93 O94 1.218 . S
O94 C93 1.218 . S
C95 O88 1.275 . S
C95 O90 1.255 . S
C96 O97 1.258 . S
C96 O98 1.256 . S
O97 Cd89 2.381 . S
O97 C96 1.258 . S
O98 Cd89 2.378 . S
O98 C96 1.256 . S
O99 Cd100 2.300 . S
O99 C106 1.275 . S
Cd100 O99 2.300 . S
Cd100 O108 2.381 . S
Cd100 O109 2.378 . S
O101 Cd102 2.385 . S
O101 C106 1.255 1_565 S
Cd102 O101 2.385 . S
Cd102 O103 2.317 1_565 S
O103 Cd102 2.317 1_545 S
O103 C104 1.232 . S
C104 O103 1.232 . S
C104 O105 1.218 1_545 S
O105 C104 1.218 1_565 S
C106 O99 1.275 . S
C106 O101 1.255 1_545 S
C107 O108 1.258 . S
C107 O109 1.256 . S
O108 Cd100 2.381 . S
O108 C107 1.258 . S
O109 Cd100 2.378 . S
O109 C107 1.256 . S
O110 Cd111 2.300 . S
O110 C117 1.275 . S
Cd111 O110 2.300 . S
Cd111 O119 2.381 . S
Cd111 O120 2.378 . S
O112 Cd113 2.385 . S
O112 C117 1.255 . S
Cd113 O112 2.385 . S
Cd113 O114 2.317 . S
O114 Cd113 2.317 . S
O114 C115 1.232 . S
C115 O114 1.232 . S
C115 O116 1.218 . S
O116 C115 1.218 . S
C117 O110 1.275 . S
C117 O112 1.255 . S
C118 O119 1.258 . S
C118 O120 1.256 . S
O119 Cd111 2.381 . S
O119 C118 1.258 . S
O120 Cd111 2.378 . S
O120 C118 1.256 . S
O121 Cd122 2.300 . S
O121 C128 1.275 . S
Cd122 O121 2.300 . S
Cd122 O130 2.381 . S
Cd122 O131 2.378 . S
O123 Cd124 2.385 . S
O123 C128 1.255 1_545 S
Cd124 O123 2.385 . S
Cd124 O125 2.317 1_545 S
O125 Cd124 2.317 1_565 S
O125 C126 1.232 . S
C126 O125 1.232 . S
C126 O127 1.218 1_565 S
O127 C126 1.218 1_545 S
C128 O121 1.275 . S
C128 O123 1.255 1_565 S
C129 O130 1.258 . S
C129 O131 1.256 . S
O130 Cd122 2.381 . S
O130 C129 1.258 . S
O131 Cd122 2.378 . S
O131 C129 1.256 . S
O132 Cd133 2.300 . S
O132 C139 1.275 . S
Cd133 O132 2.300 . S
Cd133 O141 2.381 . S
Cd133 O142 2.378 . S
O134 Cd135 2.385 . S
O134 C139 1.255 . S
Cd135 O134 2.385 . S
Cd135 O136 2.317 . S
O136 Cd135 2.317 . S
O136 C137 1.232 . S
C137 O136 1.232 . S
C137 O138 1.218 . S
O138 C137 1.218 . S
C139 O132 1.275 . S
C139 O134 1.255 . S
C140 O141 1.258 . S
C140 O142 1.256 . S
O141 Cd133 2.381 . S
O141 C140 1.258 . S
O142 Cd133 2.378 . S
O142 C140 1.256 . S
O143 Cd144 2.300 . S
O143 C150 1.275 . S
Cd144 O143 2.300 . S
Cd144 O152 2.381 . S
Cd144 O153 2.378 . S
O145 Cd146 2.385 . S
O145 C150 1.255 1_565 S
Cd146 O145 2.385 . S
Cd146 O147 2.317 1_565 S
O147 Cd146 2.317 1_545 S
O147 C148 1.232 . S
C148 O147 1.232 . S
C148 O149 1.218 1_545 S
O149 C148 1.218 1_565 S
C150 O143 1.275 . S
C150 O145 1.255 1_545 S
C151 O152 1.258 . S
C151 O153 1.256 . S
O152 Cd144 2.381 . S
O152 C151 1.258 . S
O153 Cd144 2.378 . S
O153 C151 1.256 . S
O154 Cd155 2.300 . S
O154 C161 1.275 . S
Cd155 O154 2.300 . S
Cd155 O163 2.381 . S
Cd155 O164 2.378 . S
O156 Cd157 2.385 . S
O156 C161 1.255 . S
Cd157 O156 2.385 . S
Cd157 O158 2.317 . S
O158 Cd157 2.317 . S
O158 C159 1.232 . S
C159 O158 1.232 . S
C159 O160 1.218 . S
O160 C159 1.218 . S
C161 O154 1.275 . S
C161 O156 1.255 . S
C162 O163 1.258 . S
C162 O164 1.256 . S
O163 Cd155 2.381 . S
O163 C162 1.258 . S
O164 Cd155 2.378 . S
O164 C162 1.256 . S
O165 Cd166 2.300 . S
O165 C172 1.275 . S
Cd166 O165 2.300 . S
Cd166 O174 2.381 . S
Cd166 O175 2.378 . S
O167 Cd168 2.385 . S
O167 C172 1.255 1_545 S
Cd168 O167 2.385 . S
Cd168 O169 2.317 1_545 S
O169 Cd168 2.317 1_565 S
O169 C170 1.232 . S
C170 O169 1.232 . S
C170 O171 1.218 1_565 S
O171 C170 1.218 1_545 S
C172 O165 1.275 . S
C172 O167 1.255 1_565 S
C173 O174 1.258 . S
C173 O175 1.256 . S
O174 Cd166 2.381 . S
O174 C173 1.258 . S
O175 Cd166 2.378 . S
O175 C173 1.256 . S
O176 Cd177 2.300 . S
O176 C183 1.275 . S
Cd177 O176 2.300 . S
Cd177 O185 2.381 . S
Cd177 O186 2.378 . S
O178 Cd179 2.385 . S
O178 C183 1.255 . S
Cd179 O178 2.385 . S
Cd179 O180 2.317 . S
O180 Cd179 2.317 . S
O180 C181 1.232 . S
C181 O180 1.232 . S
C181 O182 1.218 . S
O182 C181 1.218 . S
C183 O176 1.275 . S
C183 O178 1.255 . S
C184 O185 1.258 . S
C184 O186 1.256 . S
O185 Cd177 2.381 . S
O185 C184 1.258 . S
O186 Cd177 2.378 . S
O186 C184 1.256 . S
O187 Cd188 2.300 . S
O187 C194 1.275 . S
Cd188 O187 2.300 . S
Cd188 O196 2.381 . S
Cd188 O197 2.378 . S
O189 Cd190 2.385 . S
O189 C194 1.255 . S
Cd190 O189 2.385 . S
Cd190 O191 2.317 . S
O191 Cd190 2.317 . S
O191 C192 1.232 . S
C192 O191 1.232 . S
C192 O193 1.218 . S
O193 C192 1.218 . S
C194 O187 1.275 . S
C194 O189 1.255 . S
C195 O196 1.258 . S
C195 O197 1.256 . S
O196 Cd188 2.381 . S
O196 C195 1.258 . S
O197 Cd188 2.378 . S
O197 C195 1.256 . S
O198 Cd199 2.300 . S
O198 C205 1.275 . S
Cd199 O198 2.300 . S
Cd199 O207 2.381 . S
Cd199 O208 2.378 . S
O200 Cd201 2.385 . S
O200 C205 1.255 1_655 S
Cd201 O200 2.385 . S
Cd201 O202 2.317 1_655 S
O202 Cd201 2.317 1_455 S
O202 C203 1.232 . S
C203 O202 1.232 . S
C203 O204 1.218 1_455 S
O204 C203 1.218 1_655 S
C205 O198 1.275 . S
C205 O200 1.255 1_455 S
C206 O207 1.258 . S
C206 O208 1.256 . S
O207 Cd199 2.381 . S
O207 C206 1.258 . S
O208 Cd199 2.378 . S
O208 C206 1.256 . S
O209 Cd210 2.300 . S
O209 C216 1.275 . S
Cd210 O209 2.300 . S
Cd210 O218 2.381 . S
Cd210 O219 2.378 . S
O211 Cd212 2.385 . S
O211 C216 1.255 . S
Cd212 O211 2.385 . S
Cd212 O213 2.317 . S
O213 Cd212 2.317 . S
O213 C214 1.232 . S
C214 O213 1.232 . S
C214 O215 1.218 . S
O215 C214 1.218 . S
C216 O209 1.275 . S
C216 O211 1.255 . S
C217 O218 1.258 . S
C217 O219 1.256 . S
O218 Cd210 2.381 . S
O218 C217 1.258 . S
O219 Cd210 2.378 . S
O219 C217 1.256 . S
O220 Cd221 2.300 . S
O220 C227 1.275 . S
Cd221 O220 2.300 . S
Cd221 O229 2.381 . S
Cd221 O230 2.378 . S
O222 Cd223 2.385 . S
O222 C227 1.255 1_455 S
Cd223 O222 2.385 . S
Cd223 O224 2.317 1_455 S
O224 Cd223 2.317 1_655 S
O224 C225 1.232 . S
C225 O224 1.232 . S
C225 O226 1.218 1_655 S
O226 C225 1.218 1_455 S
C227 O220 1.275 . S
C227 O222 1.255 1_655 S
C228 O229 1.258 . S
C228 O230 1.256 . S
O229 Cd221 2.381 . S
O229 C228 1.258 . S
O230 Cd221 2.378 . S
O230 C228 1.256 . S
O231 Cd232 2.300 . S
O231 C238 1.275 . S
Cd232 O231 2.300 . S
Cd232 O240 2.381 . S
Cd232 O241 2.378 . S
O233 Cd234 2.385 . S
O233 C238 1.255 . S
Cd234 O233 2.385 . S
Cd234 O235 2.317 . S
O235 Cd234 2.317 . S
O235 C236 1.232 . S
C236 O235 1.232 . S
C236 O237 1.218 . S
O237 C236 1.218 . S
C238 O231 1.275 . S
C238 O233 1.255 . S
C239 O240 1.258 . S
C239 O241 1.256 . S
O240 Cd232 2.381 . S
O240 C239 1.258 . S
O241 Cd232 2.378 . S
O241 C239 1.256 . S
O242 Cd243 2.300 . S
O242 C249 1.275 . S
Cd243 O242 2.300 . S
Cd243 O251 2.381 . S
Cd243 O252 2.378 . S
O244 Cd245 2.385 . S
O244 C249 1.255 1_655 S
Cd245 O244 2.385 . S
Cd245 O246 2.317 1_655 S
O246 Cd245 2.317 1_455 S
O246 C247 1.232 . S
C247 O246 1.232 . S
C247 O248 1.218 1_455 S
O248 C247 1.218 1_655 S
C249 O242 1.275 . S
C249 O244 1.255 1_455 S
C250 O251 1.258 . S
C250 O252 1.256 . S
O251 Cd243 2.381 . S
O251 C250 1.258 . S
O252 Cd243 2.378 . S
O252 C250 1.256 . S
O253 Cd254 2.300 . S
O253 C260 1.275 . S
Cd254 O253 2.300 . S
Cd254 O262 2.381 . S
Cd254 O263 2.378 . S
O255 Cd256 2.385 . S
O255 C260 1.255 . S
Cd256 O255 2.385 . S
Cd256 O257 2.317 . S
O257 Cd256 2.317 . S
O257 C258 1.232 . S
C258 O257 1.232 . S
C258 O259 1.218 . S
O259 C258 1.218 . S
C260 O253 1.275 . S
C260 O255 1.255 . S
C261 O262 1.258 . S
C261 O263 1.256 . S
O262 Cd254 2.381 . S
O262 C261 1.258 . S
O263 Cd254 2.378 . S
O263 C261 1.256 . S
O264 Cd265 2.300 . S
O264 C271 1.275 . S
Cd265 O264 2.300 . S
Cd265 O273 2.381 . S
Cd265 O274 2.378 . S
O266 Cd267 2.385 . S
O266 C271 1.255 . S
Cd267 O266 2.385 . S
Cd267 O268 2.317 . S
O268 Cd267 2.317 . S
O268 C269 1.232 . S
C269 O268 1.232 . S
C269 O270 1.218 . S
O270 C269 1.218 . S
C271 O264 1.275 . S
C271 O266 1.255 . S
C272 O273 1.258 . S
C272 O274 1.256 . S
O273 Cd265 2.381 . S
O273 C272 1.258 . S
O274 Cd265 2.378 . S
O274 C272 1.256 . S
O275 Cd276 2.300 . S
O275 C282 1.275 . S
Cd276 O275 2.300 . S
Cd276 O284 2.381 . S
Cd276 O285 2.378 . S
O277 Cd278 2.385 . S
O277 C282 1.255 1_556 S
Cd278 O277 2.385 . S
Cd278 O279 2.317 1_556 S
O279 Cd278 2.317 1_554 S
O279 C280 1.232 . S
C280 O279 1.232 . S
C280 O281 1.218 1_554 S
O281 C280 1.218 1_556 S
C282 O275 1.275 . S
C282 O277 1.255 1_554 S
C283 O284 1.258 . S
C283 O285 1.256 . S
O284 Cd276 2.381 . S
O284 C283 1.258 . S
O285 Cd276 2.378 . S
O285 C283 1.256 . S
O286 Cd287 2.300 . S
O286 C293 1.275 . S
Cd287 O286 2.300 . S
Cd287 O295 2.381 . S
Cd287 O296 2.378 . S
O288 Cd289 2.385 . S
O288 C293 1.255 . S
Cd289 O288 2.385 . S
Cd289 O290 2.317 . S
O290 Cd289 2.317 . S
O290 C291 1.232 . S
C291 O290 1.232 . S
C291 O292 1.218 . S
O292 C291 1.218 . S
C293 O286 1.275 . S
C293 O288 1.255 . S
C294 O295 1.258 . S
C294 O296 1.256 . S
O295 Cd287 2.381 . S
O295 C294 1.258 . S
O296 Cd287 2.378 . S
O296 C294 1.256 . S
O297 Cd298 2.300 . S
O297 C304 1.275 . S
Cd298 O297 2.300 . S
Cd298 O306 2.381 . S
Cd298 O307 2.378 . S
O299 Cd300 2.385 . S
O299 C304 1.255 . S
Cd300 O299 2.385 . S
Cd300 O301 2.317 . S
O301 Cd300 2.317 . S
O301 C302 1.232 . S
C302 O301 1.232 . S
C302 O303 1.218 . S
O303 C302 1.218 . S
C304 O297 1.275 . S
C304 O299 1.255 . S
C305 O306 1.258 . S
C305 O307 1.256 . S
O306 Cd298 2.381 . S
O306 C305 1.258 . S
O307 Cd298 2.378 . S
O307 C305 1.256 . S
O308 Cd309 2.300 . S
O308 C315 1.275 . S
Cd309 O308 2.300 . S
Cd309 O317 2.381 . S
Cd309 O318 2.378 . S
O310 Cd311 2.385 . S
O310 C315 1.255 . S
Cd311 O310 2.385 . S
Cd311 O312 2.317 . S
O312 Cd311 2.317 . S
O312 C313 1.232 . S
C313 O312 1.232 . S
C313 O314 1.218 . S
O314 C313 1.218 . S
C315 O308 1.275 . S
C315 O310 1.255 . S
C316 O317 1.258 . S
C316 O318 1.256 . S
O317 Cd309 2.381 . S
O317 C316 1.258 . S
O318 Cd309 2.378 . S
O318 C316 1.256 . S
O319 Cd320 2.300 . S
O319 C326 1.275 . S
Cd320 O319 2.300 . S
Cd320 O328 2.381 . S
Cd320 O329 2.378 . S
O321 Cd322 2.385 . S
O321 C326 1.255 1_554 S
Cd322 O321 2.385 . S
Cd322 O323 2.317 1_554 S
O323 Cd322 2.317 1_556 S
O323 C324 1.232 . S
C324 O323 1.232 . S
C324 O325 1.218 1_556 S
O325 C324 1.218 1_554 S
C326 O319 1.275 . S
C326 O321 1.255 1_556 S
C327 O328 1.258 . S
C327 O329 1.256 . S
O328 Cd320 2.381 . S
O328 C327 1.258 . S
O329 Cd320 2.378 . S
O329 C327 1.256 . S
O330 Cd331 2.300 . S
O330 C337 1.275 . S
Cd331 O330 2.300 . S
Cd331 O339 2.381 . S
Cd331 O340 2.378 . S
O332 Cd333 2.385 . S
O332 C337 1.255 . S
Cd333 O332 2.385 . S
Cd333 O334 2.317 . S
O334 Cd333 2.317 . S
O334 C335 1.232 . S
C335 O334 1.232 . S
C335 O336 1.218 . S
O336 C335 1.218 . S
C337 O330 1.275 . S
C337 O332 1.255 . S
C338 O339 1.258 . S
C338 O340 1.256 . S
O339 Cd331 2.381 . S
O339 C338 1.258 . S
O340 Cd331 2.378 . S
O340 C338 1.256 . S
O341 Cd342 2.300 . S
O341 C348 1.275 . S
Cd342 O341 2.300 . S
Cd342 O350 2.381 . S
Cd342 O351 2.378 . S
O343 Cd344 2.385 . S
O343 C348 1.255 . S
Cd344 O343 2.385 . S
Cd344 O345 2.317 . S
O345 Cd344 2.317 . S
O345 C346 1.232 . S
C346 O345 1.232 . S
C346 O347 1.218 . S
O347 C346 1.218 . S
C348 O341 1.275 . S
C348 O343 1.255 . S
C349 O350 1.258 . S
C349 O351 1.256 . S
O350 Cd342 2.381 . S
O350 C349 1.258 . S
O351 Cd342 2.378 . S
O351 C349 1.256 . S
O352 Cd353 2.300 . S
O352 C359 1.275 . S
Cd353 O352 2.300 . S
Cd353 O361 2.381 . S
Cd353 O362 2.378 . S
O354 Cd355 2.385 . S
O354 C359 1.255 . S
Cd355 O354 2.385 . S
Cd355 O356 2.317 . S
O356 Cd355 2.317 . S
O356 C357 1.232 . S
C357 O356 1.232 . S
C357 O358 1.218 . S
O358 C357 1.218 . S
C359 O352 1.275 . S
C359 O354 1.255 . S
C360 O361 1.258 . S
C360 O362 1.256 . S
O361 Cd353 2.381 . S
O361 C360 1.258 . S
O362 Cd353 2.378 . S
O362 C360 1.256 . S
O363 Cd364 2.300 . S
O363 C370 1.275 . S
Cd364 O363 2.300 . S
Cd364 O372 2.381 . S
Cd364 O373 2.378 . S
O365 Cd366 2.385 . S
O365 C370 1.255 . S
Cd366 O365 2.385 . S
Cd366 O367 2.317 . S
O367 Cd366 2.317 . S
O367 C368 1.232 . S
C368 O367 1.232 . S
C368 O369 1.218 . S
O369 C368 1.218 . S
C370 O363 1.275 . S
C370 O365 1.255 . S
C371 O372 1.258 . S
C371 O373 1.256 . S
O372 Cd364 2.381 . S
O372 C371 1.258 . S
O373 Cd364 2.378 . S
O373 C371 1.256 . S
O374 Cd375 2.300 . S
O374 C381 1.275 . S
Cd375 O374 2.300 . S
Cd375 O383 2.381 . S
Cd375 O384 2.378 . S
O376 Cd377 2.385 . S
O376 C381 1.255 . S
Cd377 O376 2.385 . S
Cd377 O378 2.317 . S
O378 Cd377 2.317 . S
O378 C379 1.232 . S
C379 O378 1.232 . S
C379 O380 1.218 . S
O380 C379 1.218 . S
C381 O374 1.275 . S
C381 O376 1.255 . S
C382 O383 1.258 . S
C382 O384 1.256 . S
O383 Cd375 2.381 . S
O383 C382 1.258 . S
O384 Cd375 2.378 . S
O384 C382 1.256 . S
O385 Cd386 2.300 . S
O385 C392 1.275 . S
Cd386 O385 2.300 . S
Cd386 O394 2.381 . S
Cd386 O395 2.378 . S
O387 Cd388 2.385 . S
O387 C392 1.255 . S
Cd388 O387 2.385 . S
Cd388 O389 2.317 . S
O389 Cd388 2.317 . S
O389 C390 1.232 . S
C390 O389 1.232 . S
C390 O391 1.218 . S
O391 C390 1.218 . S
C392 O385 1.275 . S
C392 O387 1.255 . S
C393 O394 1.258 . S
C393 O395 1.256 . S
O394 Cd386 2.381 . S
O394 C393 1.258 . S
O395 Cd386 2.378 . S
O395 C393 1.256 . S
O396 Cd397 2.300 . S
O396 C403 1.275 . S
Cd397 O396 2.300 . S
Cd397 O405 2.381 . S
Cd397 O406 2.378 . S
O398 Cd399 2.385 . S
O398 C403 1.255 . S
Cd399 O398 2.385 . S
Cd399 O400 2.317 . S
O400 Cd399 2.317 . S
O400 C401 1.232 . S
C401 O400 1.232 . S
C401 O402 1.218 . S
O402 C401 1.218 . S
C403 O396 1.275 . S
C403 O398 1.255 . S
C404 O405 1.258 . S
C404 O406 1.256 . S
O405 Cd397 2.381 . S
O405 C404 1.258 . S
O406 Cd397 2.378 . S
O406 C404 1.256 . S
O407 Cd408 2.300 . S
O407 C414 1.275 . S
Cd408 O407 2.300 . S
Cd408 O416 2.381 . S
Cd408 O417 2.378 . S
O409 Cd410 2.385 . S
O409 C414 1.255 . S
Cd410 O409 2.385 . S
Cd410 O411 2.317 . S
O411 Cd410 2.317 . S
O411 C412 1.232 . S
C412 O411 1.232 . S
C412 O413 1.218 . S
O413 C412 1.218 . S
C414 O407 1.275 . S
C414 O409 1.255 . S
C415 O416 1.258 . S
C415 O417 1.256 . S
O416 Cd408 2.381 . S
O416 C415 1.258 . S
O417 Cd408 2.378 . S
O417 C415 1.256 . S
O418 Cd419 2.300 . S
O418 C425 1.275 . S
Cd419 O418 2.300 . S
Cd419 O427 2.381 . S
Cd419 O428 2.378 . S
O420 Cd421 2.385 . S
O420 C425 1.255 . S
Cd421 O420 2.385 . S
Cd421 O422 2.317 . S
O422 Cd421 2.317 . S
O422 C423 1.232 . S
C423 O422 1.232 . S
C423 O424 1.218 . S
O424 C423 1.218 . S
C425 O418 1.275 . S
C425 O420 1.255 . S
C426 O427 1.258 . S
C426 O428 1.256 . S
O427 Cd419 2.381 . S
O427 C426 1.258 . S
O428 Cd419 2.378 . S
O428 C426 1.256 . S
O429 Cd430 2.300 . S
O429 C436 1.275 . S
Cd430 O429 2.300 . S
Cd430 O438 2.381 . S
Cd430 O439 2.378 . S
O431 Cd432 2.385 . S
O431 C436 1.255 . S
Cd432 O431 2.385 . S
Cd432 O433 2.317 . S
O433 Cd432 2.317 . S
O433 C434 1.232 . S
C434 O433 1.232 . S
C434 O435 1.218 . S
O435 C434 1.218 . S
C436 O429 1.275 . S
C436 O431 1.255 . S
C437 O438 1.258 . S
C437 O439 1.256 . S
O438 Cd430 2.381 . S
O438 C437 1.258 . S
O439 Cd430 2.378 . S
O439 C437 1.256 . S
O440 Cd441 2.300 . S
O440 C447 1.275 . S
Cd441 O440 2.300 . S
Cd441 O449 2.381 . S
Cd441 O450 2.378 . S
O442 Cd443 2.385 . S
O442 C447 1.255 . S
Cd443 O442 2.385 . S
Cd443 O444 2.317 . S
O444 Cd443 2.317 . S
O444 C445 1.232 . S
C445 O444 1.232 . S
C445 O446 1.218 . S
O446 C445 1.218 . S
C447 O440 1.275 . S
C447 O442 1.255 . S
C448 O449 1.258 . S
C448 O450 1.256 . S
O449 Cd441 2.381 . S
O449 C448 1.258 . S
O450 Cd441 2.378 . S
O450 C448 1.256 . S
O451 Cd452 2.300 . S
O451 C458 1.275 . S
Cd452 O451 2.300 . S
Cd452 O460 2.381 . S
Cd452 O461 2.378 . S
O453 Cd454 2.385 . S
O453 C458 1.255 . S
Cd454 O453 2.385 . S
Cd454 O455 2.317 . S
O455 Cd454 2.317 . S
O455 C456 1.232 . S
C456 O455 1.232 . S
C456 O457 1.218 . S
O457 C456 1.218 . S
C458 O451 1.275 . S
C458 O453 1.255 . S
C459 O460 1.258 . S
C459 O461 1.256 . S
O460 Cd452 2.381 . S
O460 C459 1.258 . S
O461 Cd452 2.378 . S
O461 C459 1.256 . S
O462 Cd463 2.300 . S
O462 C469 1.275 . S
Cd463 O462 2.300 . S
Cd463 O471 2.381 . S
Cd463 O472 2.378 . S
O464 Cd465 2.385 . S
O464 C469 1.255 . S
Cd465 O464 2.385 . S
Cd465 O466 2.317 . S
O466 Cd465 2.317 . S
O466 C467 1.232 . S
C467 O466 1.232 . S
C467 O468 1.218 . S
O468 C467 1.218 . S
C469 O462 1.275 . S
C469 O464 1.255 . S
C470 O471 1.258 . S
C470 O472 1.256 . S
O471 Cd463 2.381 . S
O471 C470 1.258 . S
O472 Cd463 2.378 . S
O472 C470 1.256 . S
O473 Cd474 2.300 . S
O473 C480 1.275 . S
Cd474 O473 2.300 . S
Cd474 O482 2.381 . S
Cd474 O483 2.378 . S
O475 Cd476 2.385 . S
O475 C480 1.255 . S
Cd476 O475 2.385 . S
Cd476 O477 2.317 . S
O477 Cd476 2.317 . S
O477 C478 1.232 . S
C478 O477 1.232 . S
C478 O479 1.218 . S
O479 C478 1.218 . S
C480 O473 1.275 . S
C480 O475 1.255 . S
C481 O482 1.258 . S
C481 O483 1.256 . S
O482 Cd474 2.381 . S
O482 C481 1.258 . S
O483 Cd474 2.378 . S
O483 C481 1.256 . S
O484 Cd485 2.300 . S
O484 C491 1.275 . S
Cd485 O484 2.300 . S
Cd485 O493 2.381 . S
Cd485 O494 2.378 . S
O486 Cd487 2.385 . S
O486 C491 1.255 . S
Cd487 O486 2.385 . S
Cd487 O488 2.317 . S
O488 Cd487 2.317 . S
O488 C489 1.232 . S
C489 O488 1.232 . S
C489 O490 1.218 . S
O490 C489 1.218 . S
C491 O484 1.275 . S
C491 O486 1.255 . S
C492 O493 1.258 . S
C492 O494 1.256 . S
O493 Cd485 2.381 . S
O493 C492 1.258 . S
O494 Cd485 2.378 . S
O494 C492 1.256 . S
O495 Cd496 2.300 . S
O495 C502 1.275 . S
Cd496 O495 2.300 . S
Cd496 O504 2.381 . S
Cd496 O505 2.378 . S
O497 Cd498 2.385 . S
O497 C502 1.255 . S
Cd498 O497 2.385 . S
Cd498 O499 2.317 . S
O499 Cd498 2.317 . S
O499 C500 1.232 . S
C500 O499 1.232 . S
C500 O501 1.218 . S
O501 C500 1.218 . S
C502 O495 1.275 . S
C502 O497 1.255 . S
C503 O504 1.258 . S
C503 O505 1.256 . S
O504 Cd496 2.381 . S
O504 C503 1.258 . S
O505 Cd496 2.378 . S
O505 C503 1.256 . S
O506 Cd507 2.300 . S
O506 C513 1.275 . S
Cd507 O506 2.300 . S
Cd507 O515 2.381 . S
Cd507 O516 2.378 . S
O508 Cd509 2.385 . S
O508 C513 1.255 . S
Cd509 O508 2.385 . S
Cd509 O510 2.317 . S
O510 Cd509 2.317 . S
O510 C511 1.232 . S
C511 O510 1.232 . S
C511 O512 1.218 . S
O512 C511 1.218 . S
C513 O506 1.275 . S
C513 O508 1.255 . S
C514 O515 1.258 . S
C514 O516 1.256 . S
O515 Cd507 2.381 . S
O515 C514 1.258 . S
O516 Cd507 2.378 . S
O516 C514 1.256 . S
O517 Cd518 2.300 . S
O517 C524 1.275 . S
Cd518 O517 2.300 . S
Cd518 O526 2.381 . S
Cd518 O527 2.378 . S
O519 Cd520 2.385 . S
O519 C524 1.255 1_455 S
Cd520 O519 2.385 . S
Cd520 O521 2.317 1_455 S
O521 Cd520 2.317 1_655 S
O521 C522 1.232 . S
C522 O521 1.232 . S
C522 O523 1.218 1_655 S
O523 C522 1.218 1_455 S
C524 O517 1.275 . S
C524 O519 1.255 1_655 S
C525 O526 1.258 . S
C525 O527 1.256 . S
O526 Cd518 2.381 . S
O526 C525 1.258 . S
O527 Cd518 2.378 . S
O527 C525 1.256 . S
C227 C7 1.434 1_655 S
C458 C18 1.434 . S
C469 C29 1.433 . S
C480 C40 1.433 1_556 S
C524 C51 1.433 1_655 S
C238 C62 1.433 . S
C513 C73 1.434 . S
C84 C183 1.434 1_556 S
C95 C172 1.434 1_545 S
C139 C106 1.433 1_565 S
C150 C117 1.434 1_545 S
C161 C128 1.433 1_545 S
C194 C282 1.434 1_556 S
C293 C205 1.433 1_655 S
C216 C304 1.433 . S
C337 C249 1.434 1_655 S
C315 C260 1.433 . S
C271 C491 1.434 . S
C502 C326 1.433 1_554 S
C447 C348 1.434 . S
C359 C436 1.434 . S
C403 C370 1.433 . S
C414 C381 1.434 . S
C425 C392 1.433 . S
C107 C8 1.593 . S
C19 C118 1.593 . S
C30 C129 1.593 . S
C41 C96 1.593 . S
C173 C52 1.593 . S
C63 C140 1.594 . S
C151 C74 1.594 . S
C85 C162 1.593 . S
C206 C184 1.593 . S
C514 C195 1.593 . S
C217 C525 1.593 . S
C503 C228 1.593 . S
C492 C239 1.592 . S
C459 C250 1.594 . S
C261 C481 1.594 . S
C272 C371 1.593 . S
C283 C382 1.594 . S
C393 C294 1.594 . S
C360 C305 1.593 . S
C437 C316 1.592 . S
C327 C404 1.593 . S
C338 C415 1.593 . S
C349 C426 1.592 . S
C470 C448 1.593 . S
C291 C5 1.122 1_655 S
C16 C302 1.123 1_455 S
C27 C269 1.123 . S
C280 C38 1.122 . S
C49 C335 1.122 1_455 S
C60 C346 1.123 . S
C313 C71 1.122 . S
C324 C82 1.122 1_655 S
C137 C93 1.122 1_565 S
C148 C104 1.122 . S
C159 C115 1.122 1_545 S
C170 C126 1.122 1_554 S
C181 C478 1.122 1_554 S
C192 C500 1.122 1_556 S
C203 C247 1.122 . S
C445 C214 1.123 . S
C522 C225 1.122 1_565 S
C236 C456 1.122 . S
C258 C489 1.123 . S
C401 C357 1.123 . S
C368 C412 1.123 1_556 S
C423 C379 1.122 . S
C434 C390 1.123 . S
C467 C511 1.123 1_565 S
