# Generated by pormake.
# Topology wje, (4)-cn, num edge types: 1
# Building blocks:
#     Node 0, Type 0, BuildingBlock: ICAMEG_clean_sbu_1, # of connection points: 4
#     Node 1, Type 0, BuildingBlock: ICAMEG_clean_sbu_1, # of connection points: 4
#     Node 2, Type 0, BuildingBlock: ICAMEG_clean_sbu_1, # of connection points: 4
#     Node 3, Type 0, BuildingBlock: ICAMEG_clean_sbu_1, # of connection points: 4
#     Node 4, Type 0, BuildingBlock: ICAMEG_clean_sbu_1, # of connection points: 4
#     Node 5, Type 0, BuildingBlock: ICAMEG_clean_sbu_1, # of connection points: 4
#     Node 6, Type 0, BuildingBlock: ICAMEG_clean_sbu_1, # of connection points: 4
#     Node 7, Type 0, BuildingBlock: ICAMEG_clean_sbu_1, # of connection points: 4
#     Node 8, Type 0, BuildingBlock: ICAMEG_clean_sbu_1, # of connection points: 4
#     Node 9, Type 0, BuildingBlock: ICAMEG_clean_sbu_1, # of connection points: 4
#     Node 10, Type 0, BuildingBlock: ICAMEG_clean_sbu_1, # of connection points: 4
#     Node 11, Type 0, BuildingBlock: ICAMEG_clean_sbu_1, # of connection points: 4
#     Edge 12, Type (0, 0), BuildingBlock: XIVTED_clean_linker_0, # of connection points: 2
#     Edge 13, Type (0, 0), BuildingBlock: XIVTED_clean_linker_0, # of connection points: 2
#     Edge 14, Type (0, 0), BuildingBlock: XIVTED_clean_linker_0, # of connection points: 2
#     Edge 15, Type (0, 0), BuildingBlock: XIVTED_clean_linker_0, # of connection points: 2
#     Edge 16, Type (0, 0), BuildingBlock: XIVTED_clean_linker_0, # of connection points: 2
#     Edge 17, Type (0, 0), BuildingBlock: XIVTED_clean_linker_0, # of connection points: 2
#     Edge 18, Type (0, 0), BuildingBlock: XIVTED_clean_linker_0, # of connection points: 2
#     Edge 19, Type (0, 0), BuildingBlock: XIVTED_clean_linker_0, # of connection points: 2
#     Edge 20, Type (0, 0), BuildingBlock: XIVTED_clean_linker_0, # of connection points: 2
#     Edge 21, Type (0, 0), BuildingBlock: XIVTED_clean_linker_0, # of connection points: 2
#     Edge 22, Type (0, 0), BuildingBlock: XIVTED_clean_linker_0, # of connection points: 2
#     Edge 23, Type (0, 0), BuildingBlock: XIVTED_clean_linker_0, # of connection points: 2
#     Edge 24, Type (0, 0), BuildingBlock: XIVTED_clean_linker_0, # of connection points: 2
#     Edge 25, Type (0, 0), BuildingBlock: XIVTED_clean_linker_0, # of connection points: 2
#     Edge 26, Type (0, 0), BuildingBlock: XIVTED_clean_linker_0, # of connection points: 2
#     Edge 27, Type (0, 0), BuildingBlock: XIVTED_clean_linker_0, # of connection points: 2
#     Edge 28, Type (0, 0), BuildingBlock: XIVTED_clean_linker_0, # of connection points: 2
#     Edge 29, Type (0, 0), BuildingBlock: XIVTED_clean_linker_0, # of connection points: 2
#     Edge 30, Type (0, 0), BuildingBlock: XIVTED_clean_linker_0, # of connection points: 2
#     Edge 31, Type (0, 0), BuildingBlock: XIVTED_clean_linker_0, # of connection points: 2
#     Edge 32, Type (0, 0), BuildingBlock: XIVTED_clean_linker_0, # of connection points: 2
#     Edge 33, Type (0, 0), BuildingBlock: XIVTED_clean_linker_0, # of connection points: 2
#     Edge 34, Type (0, 0), BuildingBlock: XIVTED_clean_linker_0, # of connection points: 2
#     Edge 35, Type (0, 0), BuildingBlock: XIVTED_clean_linker_0, # of connection points: 2
# Relax obj value: 0.126
# Max RMSD: 0.100
# Mean RMSD: 0.100
data_MOF--net-wje--node1-ICAMEG_clean_sbu_1--edge1-XIVTED_clean_linker_0
_symmetry_space_group_name_H-M    P1
_symmetry_Int_Tables_number       1
_symmetry_cell_setting            triclinic
loop_
_symmetry_equiv_pos_as_xyz
'x, y, z'
_cell_length_a     42.611814
_cell_length_b     42.59363
_cell_length_c     41.141185
_cell_angle_alpha  90.011734
_cell_angle_beta   89.980895
_cell_angle_gamma 120.01641
loop_
_atom_site_label
_atom_site_type_symbol
_atom_site_fract_x
_atom_site_fract_y
_atom_site_fract_z
_atom_type_partial_charge
Co0 Co 0.31268 0.98214 0.31756 0.0
Co1 Co 0.31649 0.06403 0.33419 0.0
O2 O 0.33086 0.03382 0.30925 0.0
C3 C 0.39243 0.01411 0.32483 0.0
O4 O 0.39363 0.04197 0.33971 0.0
C5 C 0.29636 0.07059 0.26629 0.0
O6 O 0.28414 0.03576 0.26249 0.0
O7 O 0.26387 0.02585 0.33286 0.0
O8 O 0.26262 0.97351 0.32175 0.0
H9 H 0.25153 0.08939 0.42329 0.0
H10 H 0.35811 0.01674 0.25956 0.0
O11 O 0.36258 0.98887 0.31356 0.0
H12 H 0.24115 0.92028 0.21686 0.0
H13 H 0.30387 0.86112 0.2986 0.0
H14 H 0.25948 0.92828 0.36362 0.0
H15 H 0.2512 0.92984 0.27593 0.0
H16 H 0.32698 0.92618 0.28866 0.0
O17 O 0.31037 0.08593 0.29321 0.0
H18 H 0.26961 0.05187 0.39155 0.0
H19 H 0.33387 0.14105 0.32947 0.0
H20 H 0.23537 0.86316 0.37414 0.0
H21 H 0.34934 0.00794 0.20026 0.0
H22 H 0.25754 0.82913 0.34147 0.0
H23 H 0.29046 0.95947 0.17858 0.0
O24 O 0.32018 0.99052 0.36551 0.0
H25 H 0.44021 0.14366 0.28658 0.0
H26 H 0.36678 0.11035 0.38664 0.0
H27 H 0.43169 0.15641 0.38916 0.0
H28 H 0.46886 0.17338 0.33883 0.0
H29 H 0.37525 0.09746 0.28527 0.0
H30 H 0.3162 0.17943 0.36035 0.0
H31 H 0.27486 0.15366 0.40771 0.0
O32 O 0.32246 0.04352 0.37558 0.0
C33 C 0.24708 0.99172 0.32775 0.0
C34 C 0.26963 0.10096 0.40275 0.0
C35 C 0.30588 0.15147 0.36739 0.0
N36 N 0.30291 0.09429 0.35879 0.0
C37 C 0.28003 0.07987 0.38473 0.0
C38 C 0.3157 0.12957 0.34994 0.0
C39 C 0.2827 0.137 0.39397 0.0
C40 C 0.33255 0.99539 0.25028 0.0
N41 N 0.30529 0.97372 0.27115 0.0
C42 C 0.32768 0.99062 0.2167 0.0
C43 C 0.29463 0.96345 0.20455 0.0
C44 C 0.26694 0.94147 0.22601 0.0
C45 C 0.27276 0.94706 0.25943 0.0
C46 C 0.29395 0.87564 0.31296 0.0
C47 C 0.26916 0.91362 0.34921 0.0
C48 C 0.30701 0.91251 0.30751 0.0
N49 N 0.29444 0.93096 0.32542 0.0
C50 C 0.25547 0.87677 0.35533 0.0
C51 C 0.26795 0.8577 0.33702 0.0
C52 C 0.32336 0.01544 0.38483 0.0
C53 C 0.42429 0.13652 0.30866 0.0
C54 C 0.38281 0.11742 0.36471 0.0
C55 C 0.41953 0.14362 0.36624 0.0
C56 C 0.44036 0.15316 0.338 0.0
N57 N 0.36725 0.10122 0.33585 0.0
C58 C 0.38748 0.11047 0.30805 0.0
Co59 Co 0.33476 0.30489 0.6461 0.0
Co60 Co 0.25465 0.30405 0.6632 0.0
O61 O 0.30063 0.32252 0.63947 0.0
C62 C 0.3811 0.38421 0.65658 0.0
O63 O 0.35435 0.38341 0.67311 0.0
C64 C 0.23157 0.29471 0.59421 0.0
O65 O 0.25323 0.28169 0.58864 0.0
O66 O 0.24055 0.25261 0.65396 0.0
O67 O 0.29382 0.25396 0.64891 0.0
H68 H 0.15743 0.22345 0.74217 0.0
H69 H 0.34446 0.35229 0.5899 0.0
O70 O 0.37721 0.35545 0.64335 0.0
H71 H 0.32698 0.23825 0.54256 0.0
H72 H 0.44847 0.29969 0.62447 0.0
H73 H 0.33652 0.25036 0.68962 0.0
H74 H 0.32731 0.24582 0.60201 0.0
H75 H 0.40563 0.32205 0.61652 0.0
O76 O 0.22956 0.30556 0.62255 0.0
H77 H 0.21508 0.24659 0.7124 0.0
H78 H 0.19626 0.32327 0.66326 0.0
H79 H 0.3784 0.2269 0.69808 0.0
H80 H 0.34466 0.34602 0.53027 0.0
H81 H 0.43482 0.25158 0.66534 0.0
H82 H 0.33575 0.28861 0.50625 0.0
O83 O 0.33367 0.31046 0.69424 0.0
H84 H 0.30079 0.43472 0.63497 0.0
H85 H 0.25694 0.34436 0.72333 0.0
H86 H 0.27568 0.408 0.73582 0.0
H87 H 0.29774 0.45366 0.69144 0.0
H88 H 0.28208 0.37083 0.62361 0.0
H89 H 0.13823 0.30076 0.69225 0.0
H90 H 0.11854 0.2506 0.73214 0.0
O91 O 0.278 0.30179 0.70438 0.0
C92 C 0.25935 0.23711 0.65056 0.0
C93 C 0.16576 0.24541 0.72494 0.0
C94 C 0.15497 0.28877 0.69689 0.0
N95 N 0.20921 0.28645 0.68636 0.0
C96 C 0.19845 0.25869 0.7081 0.0
C97 C 0.18783 0.30134 0.6805 0.0
C98 C 0.14394 0.26063 0.71927 0.0
C99 C 0.34091 0.32737 0.5796 0.0
N100 N 0.336 0.29952 0.59938 0.0
C101 C 0.3409 0.32392 0.54584 0.0
C102 C 0.33585 0.29168 0.53238 0.0
C103 C 0.33091 0.2634 0.55273 0.0
C104 C 0.33102 0.26781 0.58638 0.0
C105 C 0.42394 0.28868 0.63885 0.0
C106 C 0.36095 0.26112 0.67518 0.0
C107 C 0.39964 0.30132 0.63453 0.0
N108 N 0.3685 0.28736 0.65246 0.0
C109 C 0.3846 0.2478 0.68014 0.0
C110 C 0.41627 0.26168 0.66178 0.0
C111 C 0.30847 0.30618 0.71365 0.0
C112 C 0.29112 0.41505 0.6545 0.0
C113 C 0.26661 0.3641 0.7039 0.0
C114 C 0.27711 0.40007 0.71111 0.0
C115 C 0.28946 0.42567 0.6862 0.0
N116 N 0.26826 0.35388 0.67274 0.0
C117 C 0.28035 0.37882 0.64819 0.0
Co118 Co 0.02444 0.33519 0.98623 0.0
Co119 Co 0.94636 0.25326 0.00064 0.0
O120 O 0.97323 0.29999 0.97783 0.0
C121 C 0.99044 0.38076 0.99596 0.0
O122 O 0.96436 0.35405 0.01244 0.0
C123 C 0.93285 0.22996 0.93136 0.0
O124 O 0.96757 0.25107 0.92548 0.0
O125 O 0.98479 0.2408 0.99087 0.0
O126 O 0.03581 0.29528 0.98976 0.0
H127 H 0.93205 0.15495 0.07715 0.0
H128 H 0.98804 0.34371 0.92845 0.0
O129 O 0.01521 0.37677 0.98272 0.0
H130 H 0.08975 0.33208 0.88529 0.0
H131 H 0.14235 0.45144 0.96876 0.0
H132 H 0.07935 0.33829 0.03228 0.0
H133 H 0.07957 0.3311 0.94439 0.0
H134 H 0.07814 0.40697 0.95805 0.0
O135 O 0.92028 0.22874 0.95968 0.0
H136 H 0.96547 0.21357 0.04864 0.0
H137 H 0.86926 0.19347 1.00004 0.0
H138 H 0.14369 0.38187 0.04358 0.0
H139 H 0.9974 0.34518 0.86913 0.0
H140 H 0.1756 0.43893 0.01169 0.0
H141 H 0.04851 0.33923 0.84722 0.0
O142 O 0.01545 0.33323 0.03404 0.0
H143 H 0.85986 0.29727 0.97382 0.0
H144 H 0.90695 0.25257 0.06092 0.0
H145 H 0.86081 0.26944 0.07397 0.0
H146 H 0.83691 0.29192 0.03023 0.0
H147 H 0.90626 0.2804 0.96189 0.0
H148 H 0.83484 0.13447 0.02778 0.0
H149 H 0.86623 0.11493 0.06677 0.0
O150 O 0.97102 0.27583 0.04228 0.0
C151 C 0.01918 0.26076 0.98962 0.0
C152 C 0.91804 0.16321 0.0603 0.0
C153 C 0.8635 0.15169 0.03256 0.0
N154 N 0.91931 0.20708 0.02289 0.0
C155 C 0.93681 0.19642 0.04415 0.0
C156 C 0.88315 0.1851 0.01686 0.0
C157 C 0.88112 0.14075 0.05444 0.0
C158 C 0.01047 0.34135 0.91906 0.0
N159 N 0.03323 0.33733 0.93982 0.0
C160 C 0.01558 0.3421 0.88547 0.0
C161 C 0.04424 0.33872 0.87319 0.0
C162 C 0.06737 0.33469 0.89453 0.0
C163 C 0.0614 0.33402 0.92797 0.0
C164 C 0.12875 0.42666 0.98279 0.0
C165 C 0.09312 0.36298 0.0182 0.0
C166 C 0.09237 0.40142 0.9769 0.0
N167 N 0.07507 0.36997 0.99442 0.0
C168 C 0.12952 0.38759 0.02475 0.0
C169 C 0.1474 0.41961 0.00688 0.0
C170 C 0.99511 0.30681 0.05262 0.0
C171 C 0.86999 0.28741 0.99307 0.0
C172 C 0.89677 0.26244 0.04177 0.0
C173 C 0.87058 0.27187 0.04929 0.0
C174 C 0.85716 0.28445 0.02473 0.0
N175 N 0.90916 0.26535 0.01063 0.0
C176 C 0.89615 0.27769 0.98644 0.0
Co177 Co 0.69513 0.0242 0.32247 0.0
Co178 Co 0.69992 0.94667 0.33411 0.0
O179 O 0.68057 0.97391 0.31129 0.0
C180 C 0.61494 0.98954 0.32507 0.0
O181 O 0.61414 0.96271 0.34149 0.0
C182 C 0.71163 0.93527 0.26481 0.0
O183 O 0.72457 0.97003 0.25966 0.0
O184 O 0.75081 0.9858 0.32564 0.0
O185 O 0.74582 0.03559 0.33144 0.0
H186 H 0.78221 0.93145 0.41198 0.0
H187 H 0.65773 0.99392 0.26002 0.0
O188 O 0.64487 0.01502 0.31416 0.0
H189 H 0.77675 0.09768 0.23031 0.0
H190 H 0.69833 0.14318 0.30795 0.0
H191 H 0.74008 0.07493 0.37461 0.0
H192 H 0.75996 0.08216 0.28786 0.0
H193 H 0.68051 0.0801 0.29405 0.0
O194 O 0.69991 0.9218 0.29281 0.0
H195 H 0.75739 0.96513 0.38337 0.0
H196 H 0.68349 0.86984 0.33219 0.0
H197 H 0.75882 0.13808 0.38921 0.0
H198 H 0.67327 0.00871 0.20211 0.0
H199 H 0.73792 0.17265 0.35574 0.0
H200 H 0.73321 0.06087 0.18697 0.0
O201 O 0.68225 0.01074 0.36895 0.0
H202 H 0.57053 0.85985 0.30382 0.0
H203 H 0.65964 0.90527 0.39313 0.0
H204 H 0.59646 0.85823 0.40441 0.0
H205 H 0.55142 0.83515 0.35955 0.0
H206 H 0.63395 0.90714 0.29367 0.0
H207 H 0.70775 0.8352 0.35999 0.0
H208 H 0.75737 0.86599 0.40033 0.0
O209 O 0.70051 0.97012 0.37629 0.0
C210 C 0.76451 0.01991 0.32923 0.0
C211 C 0.76051 0.9177 0.39454 0.0
C212 C 0.71875 0.8637 0.36533 0.0
N213 N 0.71881 0.91943 0.35635 0.0
C214 C 0.74627 0.93661 0.37834 0.0
C215 C 0.70518 0.88348 0.34961 0.0
C216 C 0.74658 0.88098 0.38797 0.0
C217 C 0.68371 0.01686 0.25358 0.0
N218 N 0.70781 0.03724 0.27726 0.0
C219 C 0.69243 0.02502 0.22078 0.0
C220 C 0.72609 0.05426 0.2123 0.0
C221 C 0.75054 0.07491 0.2366 0.0
C222 C 0.74091 0.06593 0.26915 0.0
C223 C 0.70765 0.12842 0.32269 0.0
C224 C 0.73099 0.08984 0.35985 0.0
C225 C 0.69757 0.09265 0.31499 0.0
N226 N 0.70939 0.0739 0.3334 0.0
C227 C 0.74163 0.12557 0.36828 0.0
C228 C 0.72987 0.14494 0.34951 0.0
C229 C 0.69011 0.99145 0.38716 0.0
C230 C 0.58992 0.86961 0.32355 0.0
C231 C 0.64018 0.89546 0.3735 0.0
C232 C 0.60446 0.86876 0.38002 0.0
C233 C 0.57921 0.8558 0.35484 0.0
N234 N 0.65049 0.90881 0.34273 0.0
C235 C 0.62589 0.89628 0.31792 0.0
Co236 Co 0.66959 0.69008 0.65291 0.0
Co237 Co 0.75257 0.6966 0.66529 0.0
O238 O 0.70604 0.67637 0.64225 0.0
C239 C 0.626 0.60985 0.65594 0.0
O240 O 0.65276 0.61026 0.67212 0.0
C241 C 0.77569 0.70825 0.59603 0.0
O242 O 0.75331 0.72048 0.59082 0.0
O243 O 0.76347 0.74713 0.65651 0.0
O244 O 0.70824 0.74119 0.66169 0.0
H245 H 0.8491 0.78058 0.74315 0.0
H246 H 0.66333 0.65225 0.59086 0.0
O247 O 0.62922 0.63927 0.64496 0.0
H248 H 0.67626 0.77001 0.55987 0.0
H249 H 0.55229 0.68999 0.63755 0.0
H250 H 0.66261 0.73501 0.70438 0.0
H251 H 0.67527 0.75397 0.6176 0.0
H252 H 0.59863 0.67349 0.62416 0.0
O253 O 0.77782 0.69691 0.6241 0.0
H254 H 0.7906 0.75457 0.71439 0.0
H255 H 0.81394 0.68167 0.66386 0.0
H256 H 0.6171 0.75241 0.71846 0.0
H257 H 0.66385 0.66704 0.53277 0.0
H258 H 0.56147 0.72986 0.68493 0.0
H259 H 0.67045 0.72634 0.51699 0.0
O260 O 0.67027 0.6779 0.69951 0.0
H261 H 0.71262 0.56753 0.63573 0.0
H262 H 0.75415 0.65711 0.72467 0.0
H263 H 0.73918 0.59433 0.73636 0.0
H264 H 0.71832 0.54907 0.69168 0.0
H265 H 0.72755 0.63055 0.62517 0.0
H266 H 0.87286 0.70714 0.69184 0.0
H267 H 0.89071 0.75686 0.73192 0.0
O268 O 0.72927 0.69702 0.70733 0.0
C269 C 0.74263 0.76034 0.6598 0.0
C270 C 0.84158 0.75883 0.72583 0.0
C271 C 0.85493 0.71765 0.697 0.0
N272 N 0.79869 0.7164 0.6877 0.0
C273 C 0.80842 0.74391 0.70955 0.0
C274 C 0.82156 0.70338 0.68119 0.0
C275 C 0.86493 0.74553 0.71949 0.0
C276 C 0.66587 0.67796 0.58413 0.0
N277 N 0.66909 0.70213 0.60755 0.0
C278 C 0.66629 0.68624 0.55123 0.0
C279 C 0.67005 0.71954 0.54239 0.0
C280 C 0.67334 0.74407 0.56644 0.0
C281 C 0.67285 0.73487 0.59909 0.0
C282 C 0.57645 0.70004 0.65232 0.0
C283 C 0.63855 0.72522 0.68956 0.0
C284 C 0.60275 0.69072 0.6449 0.0
N285 N 0.6334 0.70345 0.66335 0.0
C286 C 0.61284 0.7351 0.69771 0.0
C287 C 0.58162 0.72241 0.6789 0.0
C288 C 0.69739 0.68644 0.71795 0.0
C289 C 0.72178 0.58704 0.65537 0.0
C290 C 0.74495 0.63754 0.70511 0.0
C291 C 0.73661 0.60206 0.71187 0.0
C292 C 0.72493 0.57668 0.68679 0.0
N293 N 0.74186 0.6475 0.67422 0.0
C294 C 0.73041 0.62278 0.64952 0.0
Co295 Co 0.98315 0.67429 0.98691 0.0
Co296 Co 0.06173 0.75686 0.99722 0.0
O297 O 0.03378 0.70922 0.97611 0.0
C298 C 0.01781 0.62912 0.99529 0.0
O299 O 0.0448 0.65636 0.01048 0.0
C300 C 0.07012 0.77639 0.9272 0.0
O301 O 0.03525 0.75387 0.92359 0.0
O302 O 0.02261 0.76869 0.98901 0.0
O303 O 0.97179 0.71414 0.99084 0.0
H304 H 0.07994 0.85768 0.07233 0.0
H305 H 0.0159 0.66325 0.92772 0.0
O306 O 0.99228 0.63267 0.98319 0.0
H307 H 0.91289 0.67517 0.8888 0.0
H308 H 0.86447 0.55764 0.97464 0.0
H309 H 0.9308 0.67244 0.03541 0.0
H310 H 0.92619 0.67786 0.94739 0.0
H311 H 0.92804 0.60176 0.9612 0.0
O312 O 0.08501 0.77989 0.95481 0.0
H313 H 0.04513 0.79805 0.0457 0.0
H314 H 0.13843 0.817 0.99249 0.0
H315 H 0.86712 0.62922 0.04945 0.0
H316 H 1.00336 0.66003 0.86887 0.0
H317 H 0.83353 0.57134 0.01895 0.0
H318 H 0.9516 0.66613 0.84909 0.0
O319 O 0.99487 0.67799 0.03423 0.0
H320 H 0.14723 0.71267 0.96682 0.0
H321 H 0.10489 0.76013 0.0556 0.0
H322 H 0.15208 0.74416 0.06666 0.0
H323 H 0.1736 0.72031 0.02207 0.0
H324 H 0.09983 0.72868 0.9569 0.0
H325 H 0.17418 0.87699 0.0183 0.0
H326 H 0.14496 0.89761 0.05866 0.0
O327 O 0.03965 0.73571 0.04016 0.0
C328 C 0.98825 0.7486 0.98962 0.0
C329 C 0.09302 0.84895 0.05488 0.0
C330 C 0.14589 0.8598 0.02452 0.0
N331 N 0.08981 0.80389 0.01782 0.0
C332 C 0.07347 0.81515 0.03981 0.0
C333 C 0.12549 0.82583 0.00994 0.0
C334 C 0.12949 0.87135 0.04717 0.0
C335 C 0.99314 0.66559 0.91927 0.0
N336 N 0.97175 0.67063 0.94094 0.0
C337 C 0.98625 0.66388 0.88594 0.0
C338 C 0.95723 0.66736 0.87485 0.0
C339 C 0.93551 0.67245 0.89711 0.0
C340 C 0.94323 0.67405 0.93026 0.0
C341 C 0.8788 0.58278 0.98808 0.0
C342 C 0.9163 0.64737 0.02194 0.0
C343 C 0.91484 0.60783 0.98065 0.0
N344 N 0.93306 0.63973 0.99741 0.0
C345 C 0.88028 0.62297 0.03005 0.0
C346 C 0.86146 0.59049 0.01294 0.0
C347 C 0.01618 0.70508 0.05175 0.0
C348 C 0.13815 0.72314 0.98643 0.0
C349 C 0.11403 0.74966 0.03609 0.0
C350 C 0.14082 0.74075 0.04248 0.0
C351 C 0.1529 0.72738 0.01744 0.0
N352 N 0.09975 0.74549 0.00558 0.0
C353 C 0.11143 0.73238 0.98092 0.0
Co354 Co 0.03005 0.70057 0.36006 0.0
Co355 Co 0.95093 0.70298 0.34766 0.0
O356 O 0.97898 0.68403 0.36976 0.0
C357 C 0.9961 0.62087 0.35155 0.0
O358 O 0.96946 0.62128 0.33589 0.0
C359 C 0.93904 0.71245 0.41746 0.0
O360 O 0.97379 0.72547 0.42267 0.0
O361 O 0.98913 0.75418 0.35665 0.0
O362 O 0.04064 0.75164 0.35602 0.0
H363 H 0.93286 0.78494 0.2716 0.0
H364 H 0.99637 0.65624 0.41882 0.0
O365 O 0.02149 0.64993 0.36389 0.0
H366 H 0.09732 0.77186 0.4592 0.0
H367 H 0.14938 0.70466 0.375 0.0
H368 H 0.08324 0.75213 0.31266 0.0
H369 H 0.08537 0.76144 0.40041 0.0
H370 H 0.0852 0.68392 0.38697 0.0
O371 O 0.9258 0.70153 0.38925 0.0
H372 H 0.9678 0.76096 0.29928 0.0
H373 H 0.87355 0.68453 0.35018 0.0
H374 H 0.14752 0.77389 0.30012 0.0
H375 H 0.00756 0.66536 0.47786 0.0
H376 H 0.18104 0.75015 0.33143 0.0
H377 H 0.05829 0.72357 0.49837 0.0
O378 O 0.01965 0.69267 0.3125 0.0
H379 H 0.86647 0.57241 0.3762 0.0
H380 H 0.91029 0.6632 0.28821 0.0
H381 H 0.86444 0.59978 0.27609 0.0
H382 H 0.84218 0.5539 0.32029 0.0
H383 H 0.91257 0.63608 0.38719 0.0
H384 H 0.83763 0.70789 0.3233 0.0
H385 H 0.86726 0.75836 0.28358 0.0
O386 O 0.9747 0.70511 0.30541 0.0
C387 C 0.02359 0.7691 0.35685 0.0
C388 C 0.91961 0.76286 0.28878 0.0
C389 C 0.86618 0.71966 0.31783 0.0
N390 N 0.92272 0.72121 0.32613 0.0
C391 C 0.93925 0.74911 0.30446 0.0
C392 C 0.88669 0.7066 0.33303 0.0
C393 C 0.88282 0.74796 0.29554 0.0
C394 C 0.01868 0.6815 0.42759 0.0
N395 N 0.04025 0.7082 0.40622 0.0
C396 C 0.02481 0.68657 0.46103 0.0
C397 C 0.05325 0.71926 0.47253 0.0
C398 C 0.07514 0.74637 0.45056 0.0
C399 C 0.06818 0.74035 0.4173 0.0
C400 C 0.13509 0.71525 0.36122 0.0
C401 C 0.09769 0.74178 0.32648 0.0
C402 C 0.09871 0.70353 0.36783 0.0
N403 N 0.08055 0.71696 0.35065 0.0
C404 C 0.13406 0.75414 0.31922 0.0
C405 C 0.15284 0.74078 0.33678 0.0
C406 C 0.99875 0.69848 0.29446 0.0
C407 C 0.87588 0.59217 0.35676 0.0
C408 C 0.90083 0.64337 0.30756 0.0
C409 C 0.8748 0.60752 0.30056 0.0
C410 C 0.8623 0.5818 0.32537 0.0
N411 N 0.91396 0.65335 0.33843 0.0
C412 C 0.90186 0.62828 0.36287 0.0
Co413 Co 0.33042 0.02306 0.6939 0.0
Co414 Co 0.25241 0.94138 0.67677 0.0
O415 O 0.297 0.97132 0.70174 0.0
C416 C 0.37749 0.99078 0.68473 0.0
O417 O 0.3503 0.96323 0.67006 0.0
C418 C 0.22649 0.93472 0.745 0.0
O419 O 0.2497 0.96936 0.74905 0.0
O420 O 0.23826 0.97977 0.6781 0.0
O421 O 0.28898 0.03174 0.69085 0.0
H422 H 0.16239 0.91656 0.58758 0.0
H423 H 0.34182 0.98746 0.75082 0.0
O424 O 0.37353 0.01614 0.6967 0.0
H425 H 0.3223 0.0835 0.79626 0.0
H426 H 0.44288 0.1438 0.71322 0.0
H427 H 0.33046 0.07767 0.64922 0.0
H428 H 0.32207 0.07488 0.73696 0.0
H429 H 0.40118 0.07853 0.72241 0.0
O430 O 0.22436 0.91958 0.71776 0.0
H431 H 0.21806 0.9538 0.61931 0.0
H432 H 0.19238 0.86455 0.68153 0.0
H433 H 0.3712 0.14302 0.63951 0.0
H434 H 0.34257 0.99532 0.81031 0.0
H435 H 0.42784 0.17653 0.67167 0.0
H436 H 0.33265 0.04356 0.83337 0.0
O437 O 0.32901 0.01541 0.64578 0.0
H438 H 0.29575 0.86109 0.72427 0.0
H439 H 0.25612 0.89498 0.62427 0.0
H440 H 0.27457 0.84861 0.62168 0.0
H441 H 0.29451 0.83135 0.67197 0.0
H442 H 0.27741 0.90759 0.72566 0.0
H443 H 0.13627 0.82645 0.65066 0.0
H444 H 0.12105 0.8524 0.60322 0.0
O445 O 0.27906 0.96185 0.63543 0.0
C446 C 0.25537 0.0137 0.6842 0.0
C447 C 0.16877 0.90492 0.60815 0.0
C448 C 0.15409 0.85436 0.64359 0.0
N449 N 0.20855 0.91134 0.65215 0.0
C450 C 0.20029 0.92585 0.62617 0.0
C451 C 0.18584 0.87611 0.66104 0.0
C452 C 0.14557 0.86893 0.61696 0.0
C453 C 0.33782 0.00872 0.7607 0.0
N454 N 0.33208 0.03078 0.74047 0.0
C455 C 0.33813 0.01295 0.79439 0.0
C456 C 0.33251 0.04 0.80731 0.0
C457 C 0.32669 0.0624 0.7865 0.0
C458 C 0.32651 0.05734 0.75295 0.0
C459 C 0.41825 0.12951 0.69909 0.0
C460 C 0.355 0.0921 0.66341 0.0
C461 C 0.39459 0.09252 0.70411 0.0
N462 N 0.3633 0.07436 0.6865 0.0
C463 C 0.378 0.12908 0.65774 0.0
C464 C 0.40979 0.14786 0.67578 0.0
C465 C 0.30772 0.99037 0.62633 0.0
C466 C 0.28707 0.86835 0.7022 0.0
C467 C 0.26497 0.88777 0.64619 0.0
C468 C 0.27526 0.8614 0.64461 0.0
C469 C 0.28641 0.8517 0.67284 0.0
N470 N 0.26567 0.90396 0.67507 0.0
C471 C 0.27654 0.89457 0.70286 0.0
Co472 Co 0.31617 0.32975 0.01584 0.0
Co473 Co 0.30454 0.24418 0.01362 0.0
O474 O 0.32678 0.29297 0.03306 0.0
C475 C 0.39557 0.37253 0.03623 0.0
O476 O 0.39569 0.34403 0.04814 0.0
C477 C 0.29298 0.22682 0.08457 0.0
O478 O 0.28207 0.2505 0.08814 0.0
O479 O 0.25511 0.23691 0.02148 0.0
O480 O 0.26516 0.29158 0.00569 0.0
H481 H 0.21679 0.14266 0.94169 0.0
H482 H 0.34486 0.33642 0.08349 0.0
O483 O 0.367 0.37023 0.02407 0.0
H484 H 0.23051 0.3377 0.09525 0.0
H485 H 0.321 0.45037 0.01364 0.0
H486 H 0.2767 0.33322 0.95778 0.0
H487 H 0.25212 0.33245 0.0411 0.0
H488 H 0.33376 0.40417 0.03599 0.0
O489 O 0.30344 0.22219 0.05693 0.0
H490 H 0.2456 0.20378 0.96589 0.0
H491 H 0.31573 0.18074 0.02136 0.0
H492 H 0.26307 0.37852 0.93477 0.0
H493 H 0.32458 0.34223 0.13791 0.0
H494 H 0.28526 0.43759 0.96276 0.0
H495 H 0.26693 0.34285 0.14417 0.0
O496 O 0.33207 0.32423 0.97187 0.0
H497 H 0.43208 0.27991 0.04488 0.0
H498 H 0.3421 0.23463 0.95628 0.0
H499 H 0.40357 0.245 0.94599 0.0
H500 H 0.44904 0.26773 0.99051 0.0
H501 H 0.37035 0.26947 0.05403 0.0
H502 H 0.28745 0.11925 0.99799 0.0
H503 H 0.2377 0.0999 0.95773 0.0
O504 O 0.30499 0.26377 0.9692 0.0
C505 C 0.24398 0.2582 0.01222 0.0
C506 C 0.2385 0.1508 0.95915 0.0
C507 C 0.27812 0.13764 0.99077 0.0
N508 N 0.28246 0.19593 0.99489 0.0
C509 C 0.25498 0.18541 0.97289 0.0
C510 C 0.29397 0.17247 0.004 0.0
C511 C 0.25022 0.12681 0.96818 0.0
C512 C 0.32023 0.33742 0.08572 0.0
N513 N 0.30031 0.33499 0.05886 0.0
C514 C 0.30865 0.34038 0.11676 0.0
C515 C 0.27626 0.34063 0.12026 0.0
C516 C 0.25583 0.33774 0.09284 0.0
C517 C 0.26825 0.33478 0.06221 0.0
C518 C 0.31113 0.42471 0.00125 0.0
C519 C 0.2863 0.35878 0.97021 0.0
C520 C 0.31835 0.39848 0.01374 0.0
N521 N 0.30576 0.36591 0.99833 0.0
C522 C 0.27857 0.38437 0.95701 0.0
C523 C 0.29107 0.41752 0.97271 0.0
C524 C 0.32042 0.29495 0.9558 0.0
C525 C 0.4125 0.26999 0.0253 0.0
C526 C 0.36179 0.24478 0.97572 0.0
C527 C 0.39653 0.25046 0.96978 0.0
C528 C 0.42201 0.26318 0.99477 0.0
N529 N 0.35267 0.25154 0.00573 0.0
C530 C 0.3775 0.26396 0.03035 0.0
Co531 Co 0.98292 0.31685 0.36054 0.0
Co532 Co 0.06091 0.3121 0.34874 0.0
O533 O 0.03366 0.3322 0.37043 0.0
C534 C 0.01839 0.39679 0.35164 0.0
O535 O 0.04491 0.39601 0.3361 0.0
C536 C 0.07113 0.30158 0.41858 0.0
O537 O 0.03643 0.28942 0.42324 0.0
O538 O 0.02163 0.26124 0.35739 0.0
O539 O 0.97097 0.26533 0.35702 0.0
H540 H 0.07704 0.22848 0.27317 0.0
H541 H 0.01754 0.36125 0.41904 0.0
O542 O 0.99272 0.36792 0.36395 0.0
H543 H 0.91421 0.24767 0.46002 0.0
H544 H 0.86523 0.31637 0.37467 0.0
H545 H 0.92917 0.26578 0.31323 0.0
H546 H 0.92626 0.25736 0.40118 0.0
H547 H 0.92896 0.33548 0.38698 0.0
O548 O 0.08507 0.31258 0.3906 0.0
H549 H 0.04306 0.25379 0.30047 0.0
H550 H 0.13761 0.32847 0.35199 0.0
H551 H 0.86531 0.24564 0.30034 0.0
H552 H 0.00629 0.35286 0.47811 0.0
H553 H 0.83292 0.27098 0.33119 0.0
H554 H 0.95438 0.29567 0.49894 0.0
O555 O 0.99352 0.32411 0.31292 0.0
H556 H 0.14775 0.44192 0.37789 0.0
H557 H 0.10287 0.35142 0.28965 0.0
H558 H 0.15012 0.4144 0.27787 0.0
H559 H 0.17292 0.46014 0.32219 0.0
H560 H 0.10026 0.37868 0.38853 0.0
H561 H 0.17258 0.30376 0.32551 0.0
H562 H 0.14232 0.2535 0.28566 0.0
O563 O 0.03799 0.31086 0.30633 0.0
C564 C 0.98724 0.24711 0.35768 0.0
C565 C 0.09058 0.25046 0.2904 0.0
C566 C 0.14418 0.29267 0.3198 0.0
N567 N 0.08837 0.29278 0.32756 0.0
C568 C 0.07148 0.26497 0.30585 0.0
C569 C 0.12421 0.30651 0.33477 0.0
C570 C 0.12718 0.26449 0.29744 0.0
C571 C 0.99473 0.33643 0.42794 0.0
N572 N 0.97256 0.30987 0.40672 0.0
C573 C 0.98856 0.33178 0.4614 0.0
C574 C 0.95945 0.29966 0.47307 0.0
C575 C 0.93692 0.27271 0.45125 0.0
C576 C 0.94394 0.2783 0.41797 0.0
C577 C 0.87904 0.30509 0.36109 0.0
C578 C 0.9152 0.27681 0.32685 0.0
C579 C 0.91516 0.3159 0.36788 0.0
N580 N 0.93271 0.30162 0.35094 0.0
C581 C 0.87907 0.26536 0.3194 0.0
C582 C 0.86092 0.27962 0.33669 0.0
C583 C 0.01433 0.31788 0.29512 0.0
C584 C 0.13811 0.42222 0.3584 0.0
C585 C 0.11256 0.37118 0.30905 0.0
C586 C 0.13939 0.40679 0.30224 0.0
C587 C 0.15219 0.43243 0.32713 0.0
N588 N 0.09896 0.36136 0.3398 0.0
C589 C 0.11134 0.38635 0.36431 0.0
Co590 Co 0.66932 0.98094 0.69484 0.0
Co591 Co 0.75208 0.05915 0.68342 0.0
O592 O 0.70464 0.03164 0.7049 0.0
C593 C 0.62496 0.01636 0.68555 0.0
O594 O 0.65232 0.04292 0.67008 0.0
C595 C 0.7721 0.06787 0.75324 0.0
O596 O 0.74986 0.03292 0.75691 0.0
O597 O 0.76359 0.0197 0.69145 0.0
O598 O 0.70882 0.96903 0.69155 0.0
H599 H 0.85208 0.07638 0.6077 0.0
H600 H 0.65922 0.01545 0.75326 0.0
O601 O 0.62814 0.99074 0.698 0.0
H602 H 0.66882 0.91181 0.79435 0.0
H603 H 0.55188 0.86321 0.7082 0.0
H604 H 0.6669 0.92733 0.64749 0.0
H605 H 0.67171 0.92409 0.73551 0.0
H606 H 0.59654 0.92687 0.72087 0.0
O607 O 0.77546 0.08264 0.72561 0.0
H608 H 0.79264 0.04199 0.6347 0.0
H609 H 0.81253 0.13575 0.68768 0.0
H610 H 0.62316 0.86354 0.63424 0.0
H611 H 0.65585 0.00399 0.81232 0.0
H612 H 0.56516 0.83106 0.66471 0.0
H613 H 0.66078 0.95191 0.83319 0.0
O614 O 0.67303 0.99167 0.64726 0.0
H615 H 0.709 0.14557 0.71384 0.0
H616 H 0.75513 0.10204 0.62492 0.0
H617 H 0.73952 0.1495 0.61381 0.0
H618 H 0.71633 0.17161 0.65847 0.0
H619 H 0.72465 0.09791 0.72381 0.0
H620 H 0.87235 0.1711 0.6615 0.0
H621 H 0.89241 0.14144 0.62108 0.0
O622 O 0.73048 0.03683 0.64077 0.0
C623 C 0.7433 0.9853 0.69192 0.0
C624 C 0.8436 0.08965 0.62518 0.0
C625 C 0.85499 0.14279 0.65541 0.0
N626 N 0.79896 0.0869 0.66249 0.0
C627 C 0.80991 0.07033 0.64046 0.0
C628 C 0.82111 0.12261 0.6702 0.0
C629 C 0.86622 0.12614 0.63272 0.0
C630 C 0.6611 0.99258 0.76218 0.0
N631 N 0.6656 0.97044 0.741 0.0
C632 C 0.65929 0.98629 0.79563 0.0
C633 C 0.66211 0.95709 0.80733 0.0
C634 C 0.66664 0.9346 0.78555 0.0
C635 C 0.66837 0.94175 0.75228 0.0
C636 C 0.57707 0.87706 0.69478 0.0
C637 C 0.64179 0.91332 0.66096 0.0
C638 C 0.60242 0.91314 0.70178 0.0
N639 N 0.63438 0.93074 0.68504 0.0
C640 C 0.6171 0.87723 0.6533 0.0
C641 C 0.58455 0.85903 0.67038 0.0
C642 C 0.69991 0.01291 0.6295 0.0
C643 C 0.71919 0.13623 0.6942 0.0
C644 C 0.74496 0.11145 0.64447 0.0
C645 C 0.73624 0.13838 0.63804 0.0
C646 C 0.72325 0.1508 0.66312 0.0
N647 N 0.74097 0.09736 0.67504 0.0
C648 C 0.72822 0.10937 0.69974 0.0
Co649 Co 0.68975 0.66847 0.02162 0.0
Co650 Co 0.69728 0.75231 0.01585 0.0
O651 O 0.67683 0.70438 0.03677 0.0
C652 C 0.60997 0.62361 0.04029 0.0
O653 O 0.6081 0.65188 0.05027 0.0
C654 C 0.70892 0.77288 0.08603 0.0
O655 O 0.7216 0.75075 0.09056 0.0
O656 O 0.74754 0.76224 0.02436 0.0
O657 O 0.74022 0.70781 0.01148 0.0
H658 H 0.78234 0.85295 0.94174 0.0
H659 H 0.65899 0.6623 0.0882 0.0
O660 O 0.63956 0.62678 0.02984 0.0
H661 H 0.77627 0.66816 0.10471 0.0
H662 H 0.69096 0.55083 0.02506 0.0
H663 H 0.73125 0.66499 0.96514 0.0
H664 H 0.75509 0.67028 0.0495 0.0
H665 H 0.67517 0.59591 0.04471 0.0
O666 O 0.69731 0.77538 0.05823 0.0
H667 H 0.75579 0.79288 0.96776 0.0
H668 H 0.6826 0.81375 0.02077 0.0
H669 H 0.7479 0.62081 0.94482 0.0
H670 H 0.67886 0.65962 0.1437 0.0
H671 H 0.72775 0.56325 0.97487 0.0
H672 H 0.73798 0.66261 0.15233 0.0
O673 O 0.67406 0.67152 0.97687 0.0
H674 H 0.56853 0.71274 0.04609 0.0
H675 H 0.65842 0.75737 0.95737 0.0
H676 H 0.59606 0.74396 0.94632 0.0
H677 H 0.55062 0.72155 0.99088 0.0
H678 H 0.63115 0.72617 0.05601 0.0
H679 H 0.70861 0.8742 0.99555 0.0
H680 H 0.75875 0.8941 0.95561 0.0
O681 O 0.69792 0.73156 0.97234 0.0
C682 C 0.76011 0.74171 0.01658 0.0
C683 C 0.76044 0.84456 0.95905 0.0
C684 C 0.71909 0.8565 0.98928 0.0
N685 N 0.71752 0.79969 0.99563 0.0
C686 C 0.74524 0.81053 0.97381 0.0
C687 C 0.70454 0.82227 0.00354 0.0
C688 C 0.74721 0.86765 0.96686 0.0
C689 C 0.68434 0.66293 0.09153 0.0
N690 N 0.70535 0.66563 0.06541 0.0
C691 C 0.69565 0.6617 0.12314 0.0
C692 C 0.72885 0.66348 0.12797 0.0
C693 C 0.75034 0.66659 0.10128 0.0
C694 C 0.73816 0.66777 0.07004 0.0
C695 C 0.69997 0.57585 0.01179 0.0
C696 C 0.72253 0.6401 0.97846 0.0
C697 C 0.69103 0.60143 0.02275 0.0
N698 N 0.70251 0.6332 0.00623 0.0
C699 C 0.73197 0.61514 0.96678 0.0
C700 C 0.72062 0.58283 0.98364 0.0
C701 C 0.68436 0.70001 0.9599 0.0
C702 C 0.58808 0.72251 0.02648 0.0
C703 C 0.63875 0.74735 0.97685 0.0
C704 C 0.60351 0.73995 0.97046 0.0
C705 C 0.57804 0.72742 0.99549 0.0
N706 N 0.64839 0.74245 0.00732 0.0
C707 C 0.62359 0.73023 0.03197 0.0
H708 H 0.28259 0.05272 0.20169 0.0
H709 H 0.28635 0.23606 0.15006 0.0
H710 H 0.30513 0.13872 0.26964 0.0
H711 H 0.29774 0.16532 0.08192 0.0
H712 H 0.28585 0.19749 0.19471 0.0
H713 H 0.28049 0.09043 0.15774 0.0
C714 C 0.28695 0.07944 0.2074 0.0
C715 C 0.29418 0.09259 0.23938 0.0
C716 C 0.28847 0.19051 0.16994 0.0
C717 C 0.29161 0.13583 0.18925 0.0
C718 C 0.28866 0.21244 0.14447 0.0
C719 C 0.29226 0.20406 0.11219 0.0
C720 C 0.29137 0.15971 0.163 0.0
C721 C 0.29518 0.17307 0.10639 0.0
C722 C 0.28587 0.10101 0.18229 0.0
C723 C 0.29969 0.12753 0.24531 0.0
N724 N 0.29454 0.15203 0.13148 0.0
N725 N 0.29819 0.14787 0.22053 0.0
H726 H 0.2368 0.28715 0.52847 0.0
H727 H 0.05648 0.29213 0.48414 0.0
H728 H 0.17333 0.30489 0.60021 0.0
H729 H 0.13864 0.30953 0.41355 0.0
H730 H 0.09559 0.29054 0.52714 0.0
H731 H 0.19758 0.28895 0.48584 0.0
C732 C 0.21463 0.29138 0.53526 0.0
C733 C 0.20842 0.29596 0.56795 0.0
C734 C 0.10502 0.29479 0.50221 0.0
C735 C 0.16328 0.29776 0.51936 0.0
C736 C 0.08268 0.29562 0.47768 0.0
C737 C 0.0943 0.30106 0.4452 0.0
C738 C 0.13895 0.29891 0.49413 0.0
C739 C 0.12858 0.30546 0.43825 0.0
C740 C 0.19232 0.29252 0.51093 0.0
C741 C 0.17928 0.30143 0.57532 0.0
N742 N 0.14956 0.3041 0.46244 0.0
N743 N 0.15771 0.302 0.55126 0.0
H744 H 0.76669 0.04945 0.81782 0.0
H745 H 0.86233 0.17632 0.93844 0.0
H746 H 0.82887 0.13758 0.75135 0.0
H747 H 0.94621 0.22833 0.86599 0.0
H748 H 0.82168 0.13565 0.89694 0.0
H749 H 0.80465 0.08726 0.86249 0.0
C750 C 0.78814 0.07682 0.81265 0.0
C751 C 0.79437 0.09041 0.78081 0.0
C752 C 0.84911 0.15551 0.89012 0.0
C753 C 0.83767 0.13415 0.83191 0.0
C754 C 0.87233 0.17913 0.91379 0.0
C755 C 0.90795 0.20575 0.90579 0.0
C756 C 0.86142 0.15843 0.85803 0.0
C757 C 0.91911 0.2081 0.87333 0.0
C758 C 0.80963 0.09856 0.83823 0.0
C759 C 0.82281 0.12604 0.77554 0.0
N760 N 0.89585 0.18485 0.85059 0.0
N761 N 0.8435 0.14656 0.80077 0.0
H762 H 0.70069 0.83222 0.08062 0.0
H763 H 0.7024 0.86726 0.27096 0.0
H764 H 0.71856 0.76832 0.15177 0.0
H765 H 0.72077 0.94852 0.19906 0.0
H766 H 0.70236 0.8278 0.22787 0.0
H767 H 0.70198 0.87195 0.12386 0.0
C768 C 0.70477 0.82641 0.10538 0.0
C769 C 0.70946 0.79674 0.11255 0.0
C770 C 0.70648 0.85428 0.22152 0.0
C771 C 0.71086 0.84236 0.16233 0.0
C772 C 0.70634 0.87682 0.24608 0.0
C773 C 0.71154 0.91132 0.23862 0.0
C774 C 0.71136 0.86601 0.18912 0.0
C775 C 0.71673 0.92222 0.20595 0.0
C776 C 0.70568 0.8493 0.13005 0.0
C777 C 0.71489 0.79086 0.14512 0.0
N778 N 0.71629 0.89955 0.18238 0.0
N779 N 0.71523 0.81336 0.16885 0.0
H780 H 0.87071 0.70232 0.41157 0.0
H781 H 0.83514 0.70013 0.60206 0.0
H782 H 0.95204 0.72066 0.48334 0.0
H783 H 0.77139 0.71738 0.53031 0.0
H784 H 0.87513 0.70135 0.55894 0.0
H785 H 0.83105 0.70148 0.45476 0.0
C786 C 0.88024 0.70606 0.43644 0.0
C787 C 0.91485 0.71156 0.44381 0.0
C788 C 0.85244 0.70492 0.55263 0.0
C789 C 0.86927 0.71048 0.49349 0.0
C790 C 0.82944 0.70407 0.57721 0.0
C791 C 0.79977 0.70864 0.5698 0.0
C792 C 0.84556 0.7099 0.52026 0.0
C793 C 0.79395 0.71384 0.53715 0.0
C794 C 0.85758 0.70574 0.46108 0.0
C795 C 0.92567 0.71644 0.47652 0.0
N796 N 0.81653 0.71413 0.51357 0.0
N797 N 0.90288 0.7156 0.50017 0.0
H798 H 0.23317 0.95132 0.81007 0.0
H799 H 0.05292 0.76919 0.86219 0.0
H800 H 0.16612 0.86738 0.74172 0.0
H801 H 0.13792 0.83608 0.92973 0.0
H802 H 0.09039 0.80832 0.81765 0.0
H803 H 0.19459 0.91294 0.8544 0.0
C804 C 0.21026 0.92493 0.80436 0.0
C805 C 0.20295 0.91253 0.77214 0.0
C806 C 0.10079 0.81434 0.84224 0.0
C807 C 0.15863 0.86857 0.82269 0.0
C808 C 0.0794 0.79207 0.86766 0.0
C809 C 0.09232 0.79926 0.89973 0.0
C810 C 0.13511 0.8443 0.849 0.0
C811 C 0.1269 0.82932 0.90538 0.0
C812 C 0.18835 0.90298 0.82967 0.0
C813 C 0.17293 0.878 0.7662 0.0
N814 N 0.14698 0.85078 0.88033 0.0
N815 N 0.15184 0.8573 0.79119 0.0
H816 H 0.39547 0.95248 0.31342 0.0
H817 H 0.611 0.04999 0.31006 0.0
H818 H 0.46386 0.06696 0.33189 0.0
H819 H 0.54377 0.93668 0.33397 0.0
H820 H 0.55702 0.05616 0.3088 0.0
H821 H 0.4493 0.94596 0.31193 0.0
C822 C 0.42183 0.97633 0.31694 0.0
C823 C 0.42515 0.01038 0.32281 0.0
C824 C 0.55409 0.02994 0.31422 0.0
C825 C 0.48688 0.00299 0.3209 0.0
C826 C 0.58485 0.02627 0.31474 0.0
C827 C 0.58194 0.9927 0.32215 0.0
C828 C 0.51998 0.99973 0.32062 0.0
C829 C 0.5473 0.96306 0.32824 0.0
C830 C 0.4525 0.97249 0.31626 0.0
C831 C 0.46002 0.04022 0.32742 0.0
N832 N 0.51763 0.96723 0.32721 0.0
N833 N 0.48957 0.03587 0.32619 0.0
H834 H 0.61103 0.53959 0.66344 0.0
H835 H 0.39677 0.4543 0.66677 0.0
H836 H 0.55989 0.60303 0.64333 0.0
H837 H 0.44686 0.39083 0.6426 0.0
H838 H 0.45667 0.50933 0.66483 0.0
H839 H 0.55117 0.48445 0.66218 0.0
C840 C 0.58728 0.54191 0.65862 0.0
C841 C 0.5905 0.57596 0.65338 0.0
C842 C 0.45444 0.48332 0.65983 0.0
C843 C 0.52204 0.51319 0.65252 0.0
C844 C 0.42032 0.45194 0.66104 0.0
C845 C 0.41679 0.41795 0.65476 0.0
C846 C 0.4853 0.48059 0.65296 0.0
C847 C 0.44827 0.41649 0.64741 0.0
C848 C 0.55318 0.51048 0.65786 0.0
C849 C 0.55876 0.57736 0.64728 0.0
N850 N 0.48121 0.44729 0.64699 0.0
N851 N 0.52586 0.5465 0.64734 0.0
H852 H 0.07153 0.61209 0.00422 0.0
H853 H 0.93729 0.39812 0.00712 0.0
H854 H 0.95702 0.56363 0.98482 0.0
H855 H 0.05064 0.4459 0.98285 0.0
H856 H 0.94413 0.45892 0.00645 0.0
H857 H 0.06471 0.55128 0.00386 0.0
C858 C 0.04503 0.58873 0.99985 0.0
C859 C 0.01487 0.59297 0.99437 0.0
C860 C 0.96742 0.45595 0.00117 0.0
C861 C 0.00678 0.52353 0.99446 0.0
C862 C 0.96354 0.42133 0.00162 0.0
C863 C 0.99336 0.41689 0.99486 0.0
C864 C 1.0015 0.48635 0.99458 0.0
C865 C 0.02682 0.44797 0.98792 0.0
C866 C 0.04116 0.5541 0.99958 0.0
C867 C 0.9811 0.56171 0.98887 0.0
N868 N 0.03004 0.48137 0.9882 0.0
N869 N 0.97792 0.52834 0.9893 0.0
H870 H 0.94186 0.55047 0.34226 0.0
H871 H 0.07293 0.46715 0.34203 0.0
H872 H 0.05609 0.61504 0.36347 0.0
H873 H 0.95874 0.40307 0.36366 0.0
H874 H 0.06751 0.52194 0.34291 0.0
H875 H 0.94754 0.49588 0.34311 0.0
C876 C 0.96808 0.55316 0.34713 0.0
C877 C 0.99848 0.58734 0.35293 0.0
C878 C 0.04373 0.49584 0.34758 0.0
C879 C 0.00529 0.5252 0.35343 0.0
C880 C 0.04679 0.4646 0.347 0.0
C881 C 0.0163 0.4305 0.35291 0.0
C882 C 0.00981 0.49282 0.35344 0.0
C883 C 0.98305 0.4288 0.35921 0.0
C884 C 0.97129 0.52204 0.34769 0.0
C885 C 0.03185 0.58923 0.35911 0.0
N886 N 0.98064 0.45944 0.35906 0.0
N887 N 0.03442 0.55867 0.35894 0.0
H888 H 0.60866 0.07043 0.67501 0.0
H889 H 0.39454 0.93716 0.67608 0.0
H890 H 0.55931 0.9565 0.69768 0.0
H891 H 0.44298 0.05176 0.69531 0.0
H892 H 0.45515 0.94382 0.6768 0.0
H893 H 0.54818 0.06438 0.67537 0.0
C894 C 0.58519 0.04423 0.6801 0.0
C895 C 0.58908 0.01399 0.68646 0.0
C896 C 0.45242 0.96745 0.68096 0.0
C897 C 0.52003 0.00678 0.68641 0.0
C898 C 0.41788 0.96368 0.68046 0.0
C899 C 0.41368 0.99389 0.68578 0.0
C900 C 0.48299 1.00179 0.68618 0.0
C901 C 0.44492 0.02766 0.69135 0.0
C902 C 0.55075 0.0408 0.68038 0.0
C903 C 0.55769 0.98063 0.6929 0.0
N904 N 0.47826 0.03075 0.69117 0.0
N905 N 0.52453 0.97787 0.69246 0.0
H906 H 0.42335 0.42065 0.98675 0.0
H907 H 0.55657 0.5929 0.08671 0.0
H908 H 0.44165 0.4064 0.08734 0.0
H909 H 0.59039 0.57119 0.99467 0.0
H910 H 0.50481 0.53017 0.08701 0.0
H911 H 0.47598 0.48223 0.9884 0.0
C912 C 0.43863 0.43053 0.00913 0.0
C913 C 0.42862 0.40848 0.03685 0.0
C914 C 0.52368 0.53939 0.06684 0.0
C915 C 0.48761 0.47898 0.03919 0.0
C916 C 0.55286 0.57506 0.0665 0.0
C917 C 0.57758 0.58706 0.0406 0.0
C918 C 0.51879 0.51628 0.0406 0.0
C919 C 0.57191 0.56288 0.01511 0.0
C920 C 0.46848 0.46552 0.01004 0.0
C921 C 0.44899 0.42253 0.06537 0.0
N922 N 0.54284 0.52877 0.01553 0.0
N923 N 0.47738 0.45722 0.06598 0.0
H924 H 0.03212 0.81228 0.3053 0.0
H925 H 0.20713 0.98228 0.38218 0.0
H926 H 0.06784 0.81484 0.40367 0.0
H927 H 0.19821 0.95084 0.28161 0.0
H928 H 0.14448 0.933 0.39114 0.0
H929 H 0.08135 0.87511 0.29789 0.0
C930 C 0.04948 0.82664 0.3257 0.0
C931 C 0.04589 0.80878 0.35523 0.0
C932 C 0.15592 0.93768 0.36692 0.0
C933 C 0.10221 0.88003 0.34689 0.0
C934 C 0.1914 0.96594 0.36175 0.0
C935 C 0.20746 0.9706 0.33108 0.0
C936 C 0.13649 0.91442 0.3411 0.0
C937 C 0.18648 0.94816 0.30552 0.0
C938 C 0.0777 0.86226 0.32139 0.0
C939 C 0.06968 0.82801 0.38066 0.0
N940 N 0.1521 0.92086 0.31112 0.0
N941 N 0.09704 0.86261 0.37588 0.0
H942 H 0.25938 0.19267 0.60327 0.0
H943 H 0.21737 0.0163 0.63196 0.0
H944 H 0.22148 0.19228 0.7004 0.0
H945 H 0.25436 0.06125 0.72745 0.0
H946 H 0.20414 0.06519 0.62038 0.0
H947 H 0.24333 0.12922 0.61011 0.0
C948 C 0.24643 0.17869 0.6256 0.0
C949 C 0.24125 0.19733 0.65118 0.0
C950 C 0.21437 0.06379 0.6441 0.0
C951 C 0.22366 0.12529 0.65956 0.0
C952 C 0.22141 0.03569 0.65086 0.0
C953 C 0.23705 0.03501 0.68063 0.0
C954 C 0.22282 0.09099 0.66747 0.0
C955 C 0.2424 0.06104 0.70417 0.0
C956 C 0.23715 0.14248 0.62949 0.0
C957 C 0.22524 0.17849 0.67996 0.0
N958 N 0.23555 0.08816 0.69701 0.0
N959 N 0.21788 0.14371 0.68372 0.0
H960 H 0.2154 0.26388 0.95586 0.0
H961 H 0.02857 0.2212 0.0369 0.0
H962 H 0.18548 0.22194 0.05313 0.0
H963 H 0.06362 0.26504 0.94086 0.0
H964 H 0.0791 0.20888 0.04003 0.0
H965 H 0.15395 0.25197 0.94654 0.0
C966 C 0.19548 0.25146 0.97507 0.0
C967 C 0.20531 0.24395 0.0053 0.0
C968 C 0.07519 0.22035 0.01796 0.0
C969 C 0.13502 0.23119 0.99528 0.0
C970 C 0.0462 0.22702 0.01607 0.0
C971 C 0.04212 0.24406 0.98855 0.0
C972 C 0.10012 0.23097 0.99214 0.0
C973 C 0.06601 0.25193 0.96249 0.0
C974 C 0.1604 0.24474 0.96982 0.0
C975 C 0.17869 0.22791 0.02944 0.0
N976 N 0.09415 0.24565 0.96504 0.0
N977 N 0.14478 0.22263 0.02413 0.0
H978 H 0.98025 0.20051 0.30915 0.0
H979 H 0.79749 0.04174 0.38722 0.0
H980 H 0.9398 0.20465 0.40405 0.0
H981 H 0.81875 0.05229 0.28433 0.0
H982 H 0.85896 0.09208 0.39701 0.0
H983 H 0.93062 0.1375 0.3033 0.0
C984 C 0.96163 0.18766 0.32917 0.0
C985 C 0.96403 0.20746 0.3572 0.0
C986 C 0.85058 0.08287 0.37232 0.0
C987 C 0.90724 0.13607 0.35058 0.0
C988 C 0.8157 0.05399 0.36679 0.0
C989 C 0.80354 0.04279 0.33501 0.0
C990 C 0.87328 0.10094 0.34579 0.0
C991 C 0.82758 0.05994 0.3092 0.0
C992 C 0.93316 0.15193 0.32571 0.0
C993 C 0.93879 0.1901 0.38214 0.0
N994 N 0.86132 0.08852 0.31512 0.0
N995 N 0.91132 0.15547 0.37818 0.0
H996 H 0.75011 0.79109 0.71838 0.0
H997 H 0.78295 0.97834 0.64342 0.0
H998 H 0.76793 0.81651 0.61637 0.0
H999 H 0.73769 0.93748 0.73805 0.0
H1000 H 0.79468 0.92768 0.63692 0.0
H1001 H 0.76285 0.85284 0.72942 0.0
C1002 C 0.75778 0.8102 0.69845 0.0
C1003 C 0.75838 0.79916 0.66653 0.0
C1004 C 0.78303 0.93035 0.65942 0.0
C1005 C 0.77193 0.86935 0.67869 0.0
C1006 C 0.77674 0.95942 0.66327 0.0
C1007 C 0.75957 0.96198 0.69138 0.0
C1008 C 0.77213 0.90395 0.68397 0.0
C1009 C 0.75109 0.93636 0.71608 0.0
C1010 C 0.76479 0.84529 0.70467 0.0
C1011 C 0.7677 0.82442 0.64135 0.0
N1012 N 0.75721 0.90828 0.71171 0.0
N1013 N 0.77376 0.85837 0.64791 0.0
H1014 H 0.81841 0.78379 0.05614 0.0
H1015 H 0.94793 0.74917 0.93934 0.0
H1016 H 0.78946 0.73373 0.96162 0.0
H1017 H 0.97408 0.78202 0.03924 0.0
H1018 H 0.89677 0.75984 0.94284 0.0
H1019 H 0.88152 0.79849 0.04653 0.0
C1020 C 0.82563 0.77681 0.03309 0.0
C1021 C 0.79897 0.75737 0.00968 0.0
C1022 C 0.91409 0.76557 0.96387 0.0
C1023 C 0.87033 0.7738 0.99855 0.0
C1024 C 0.94345 0.75979 0.96172 0.0
C1025 C 0.96515 0.76505 0.98895 0.0
C1026 C 0.90589 0.77588 0.99375 0.0
C1027 C 0.95803 0.77816 0.01763 0.0
C1028 C 0.86145 0.78497 0.02766 0.0
C1029 C 0.80933 0.7485 0.98034 0.0
N1030 N 0.92856 0.78259 0.0195 0.0
N1031 N 0.84406 0.75654 0.97571 0.0
H1032 H 0.30685 0.95356 0.41902 0.0
H1033 H 0.35335 0.05246 0.59252 0.0
H1034 H 0.34802 0.0683 0.43142 0.0
H1035 H 0.28062 0.93762 0.5796 0.0
H1036 H 0.36238 0.05868 0.5335 0.0
H1037 H 0.30797 0.94739 0.4782 0.0
C1038 C 0.31656 0.97751 0.43408 0.0
C1039 C 0.3271 0.01146 0.42017 0.0
C1040 C 0.34467 0.03211 0.54372 0.0
C1041 C 0.32853 0.00459 0.48777 0.0
C1042 C 0.3396 0.02852 0.57738 0.0
C1043 C 0.31596 0.99451 0.59108 0.0
C1044 C 0.32633 1.00143 0.52367 0.0
C1045 C 0.29883 0.96443 0.57019 0.0
C1046 C 0.31703 0.97394 0.46784 0.0
C1047 C 0.33934 0.04154 0.44098 0.0
N1048 N 0.3043 0.9686 0.53759 0.0
N1049 N 0.33964 0.03739 0.47367 0.0
H1050 H 0.28048 0.2401 0.91344 0.0
H1051 H 0.37107 0.34449 0.74942 0.0
H1052 H 0.36371 0.35302 0.91617 0.0
H1053 H 0.25759 0.26479 0.75812 0.0
H1054 H 0.37701 0.34251 0.80901 0.0
H1055 H 0.2805 0.24295 0.85434 0.0
C1056 C 0.29903 0.26547 0.90165 0.0
C1057 C 0.322 0.29647 0.91986 0.0
C1058 C 0.35093 0.32552 0.79765 0.0
C1059 C 0.32226 0.29965 0.85201 0.0
C1060 C 0.34757 0.32646 0.76382 0.0
C1061 C 0.31374 0.30488 0.74896 0.0
C1062 C 0.32047 0.3021 0.8163 0.0
C1063 C 0.28406 0.2821 0.76861 0.0
C1064 C 0.29888 0.26705 0.86789 0.0
C1065 C 0.34537 0.32857 0.90306 0.0
N1066 N 0.28817 0.28112 0.80118 0.0
N1067 N 0.345 0.32936 0.86994 0.0
H1068 H 0.02431 0.27499 0.25297 0.0
H1069 H 0.01702 0.3686 0.0893 0.0
H1070 H 0.99645 0.35939 0.25615 0.0
H1071 H 0.98247 0.25478 0.0969 0.0
H1072 H 0.02083 0.37292 0.14921 0.0
H1073 H 0.0207 0.27452 0.194 0.0
C1074 C 0.01748 0.29352 0.24121 0.0
C1075 C 0.0106 0.31723 0.25945 0.0
C1076 C 0.01237 0.34711 0.13752 0.0
C1077 C 0.0068 0.31705 0.19174 0.0
C1078 C 0.01051 0.34469 0.10351 0.0
C1079 C 0.99942 0.31128 0.0882 0.0
C1080 C 0.00396 0.31611 0.15594 0.0
C1081 C 0.99095 0.28101 0.10765 0.0
C1082 C 0.01531 0.29313 0.20754 0.0
C1083 C 1.00164 0.3405 0.24287 0.0
N1084 N 0.99367 0.28423 0.14041 0.0
N1085 N 1.00027 0.34009 0.20973 0.0
H1086 H 0.64657 0.00851 0.424 0.0
H1087 H 0.75392 0.02903 0.58634 0.0
H1088 H 0.73173 0.98201 0.43136 0.0
H1089 H 0.63886 0.98919 0.59131 0.0
H1090 H 0.74976 0.02415 0.52745 0.0
H1091 H 0.6464 0.01288 0.48388 0.0
C1092 C 0.66521 0.00373 0.43816 0.0
C1093 C 0.68916 0.99482 0.42279 0.0
C1094 C 0.7254 0.01646 0.54141 0.0
C1095 C 0.68938 1.00022 0.49045 0.0
C1096 C 0.72774 0.01936 0.57503 0.0
C1097 C 0.69665 0.00939 0.59378 0.0
C1098 C 0.69186 0.00411 0.52615 0.0
C1099 C 0.6634 0.99687 0.57768 0.0
C1100 C 0.6649 0.00597 0.47214 0.0
C1101 C 0.71264 0.98869 0.44216 0.0
N1102 N 0.66186 0.9948 0.54459 0.0
N1103 N 0.71238 0.99183 0.47489 0.0
H1104 H 0.72272 0.75418 0.91656 0.0
H1105 H 0.63623 0.64423 0.75448 0.0
H1106 H 0.64407 0.63984 0.92148 0.0
H1107 H 0.74807 0.72898 0.76223 0.0
H1108 H 0.63056 0.64604 0.81405 0.0
H1109 H 0.72359 0.74966 0.85766 0.0
C1110 C 0.70538 0.72812 0.90528 0.0
C1111 C 0.68339 0.69727 0.92405 0.0
C1112 C 0.65626 0.66405 0.80249 0.0
C1113 C 0.68419 0.69212 0.85642 0.0
C1114 C 0.65947 0.66318 0.76866 0.0
C1115 C 0.69271 0.68639 0.75349 0.0
C1116 C 0.6862 0.68898 0.82085 0.0
C1117 C 0.72205 0.71038 0.77291 0.0
C1118 C 0.70606 0.72558 0.87164 0.0
C1119 C 0.66159 0.66423 0.90791 0.0
N1120 N 0.71801 0.71127 0.8055 0.0
N1121 N 0.66241 0.6625 0.87487 0.0
H1122 H 0.9902 0.74185 0.25173 0.0
H1123 H 0.99315 0.644 0.08968 0.0
H1124 H 0.01582 0.65594 0.25625 0.0
H1125 H 0.03322 0.75912 0.09528 0.0
H1126 H 0.99028 0.64116 0.14961 0.0
H1127 H 0.99435 0.7418 0.19267 0.0
C1128 C 0.99666 0.72291 0.24024 0.0
C1129 C 1.00277 0.69892 0.25884 0.0
C1130 C 0.9998 0.66693 0.13749 0.0
C1131 C 0.00706 0.69842 0.19117 0.0
C1132 C 1.00118 0.66855 0.10345 0.0
C1133 C 0.01343 0.70185 0.08753 0.0
C1134 C 0.00982 0.69866 0.15538 0.0
C1135 C 0.02377 0.73291 0.10648 0.0
C1136 C 0.99914 0.723 0.20656 0.0
C1137 C 0.01124 0.67506 0.24267 0.0
N1138 N 0.0214 0.73048 0.13931 0.0
N1139 N 0.01282 0.67513 0.20955 0.0
loop_
_geom_bond_atom_site_label_1
_geom_bond_atom_site_label_2
_geom_bond_distance
_geom_bond_site_symmetry_2
_ccdc_geom_bond_type
Co0 O2 2.143 1_565 S
Co0 O8 2.074 . S
Co0 O11 2.093 1_565 S
Co0 O24 2.097 1_565 S
Co0 N41 2.151 . S
Co0 N49 2.214 . S
Co1 O2 2.160 . S
Co1 O7 2.058 . S
Co1 O17 2.057 . S
Co1 O32 2.037 . S
Co1 N36 2.145 . S
Co1 N57 2.257 . S
O2 Co0 2.143 1_545 S
O2 Co1 2.160 . S
C3 O4 1.278 . S
C3 O11 1.224 . S
O4 C3 1.278 . S
C5 O6 1.245 . S
C5 O17 1.232 . S
O6 C5 1.245 . S
O7 Co1 2.058 . S
O7 C33 1.269 1_545 S
O8 Co0 2.074 . S
O8 C33 1.257 . S
H9 C34 0.930 . S
H10 C40 0.930 . S
O11 Co0 2.093 1_545 S
O11 C3 1.224 . S
H12 C44 0.929 . S
H13 C46 0.930 . S
H14 C47 0.930 . S
H15 C45 0.929 . S
H16 C48 0.928 . S
O17 Co1 2.057 . S
O17 C5 1.232 . S
H18 C37 0.929 . S
H19 C38 0.929 . S
H20 C50 0.931 . S
H21 C42 0.929 . S
H22 C51 0.930 . S
H23 C43 0.931 . S
O24 Co0 2.097 1_545 S
O24 C52 1.214 . S
H25 C53 0.929 . S
H26 C54 0.929 . S
H27 C55 0.930 . S
H28 C56 0.929 . S
H29 C58 0.930 . S
H30 C35 0.930 . S
H31 C39 0.930 . S
O32 Co1 2.037 . S
O32 C52 1.234 . S
C33 O7 1.269 1_565 S
C33 O8 1.257 . S
C34 H9 0.930 . S
C34 C37 1.388 . S
C34 C39 1.418 . S
C35 H30 0.930 . S
C35 C38 1.404 . S
C35 C39 1.353 . S
N36 Co1 2.145 . S
N36 C37 1.397 . S
N36 C38 1.334 . S
C37 H18 0.929 . S
C37 C34 1.388 . S
C37 N36 1.397 . S
C38 H19 0.929 . S
C38 C35 1.404 . S
C38 N36 1.334 . S
C39 H31 0.930 . S
C39 C34 1.418 . S
C39 C35 1.353 . S
C40 H10 0.930 . S
C40 N41 1.330 . S
C40 C42 1.446 . S
N41 Co0 2.151 . S
N41 C40 1.330 . S
N41 C45 1.418 . S
C42 H21 0.929 . S
C42 C40 1.446 . S
C42 C43 1.332 . S
C43 H23 0.931 . S
C43 C42 1.332 . S
C43 C44 1.267 . S
C44 H12 0.929 . S
C44 C43 1.267 . S
C44 C45 1.251 . S
C45 H15 0.929 . S
C45 N41 1.418 . S
C45 C44 1.251 . S
C46 H13 0.930 . S
C46 C48 1.406 . S
C46 C51 1.261 . S
C47 H14 0.930 . S
C47 N49 1.325 . S
C47 C50 1.357 . S
C48 H16 0.928 . S
C48 C46 1.406 . S
C48 N49 1.261 . S
N49 Co0 2.214 . S
N49 C47 1.325 . S
N49 C48 1.261 . S
C50 H20 0.931 . S
C50 C47 1.357 . S
C50 C51 1.312 . S
C51 H22 0.930 . S
C51 C46 1.261 . S
C51 C50 1.312 . S
C52 O24 1.214 . S
C52 O32 1.234 . S
C53 H25 0.929 . S
C53 C56 1.391 . S
C53 C58 1.391 . S
C54 H26 0.929 . S
C54 C55 1.390 . S
C54 N57 1.391 . S
C55 H27 0.930 . S
C55 C54 1.390 . S
C55 C56 1.392 . S
C56 H28 0.929 . S
C56 C53 1.391 . S
C56 C55 1.392 . S
N57 Co1 2.257 . S
N57 C54 1.391 . S
N57 C58 1.388 . S
C58 H29 0.930 . S
C58 C53 1.391 . S
C58 N57 1.388 . S
Co59 O61 2.143 . S
Co59 O67 2.074 . S
Co59 O70 2.093 . S
Co59 O83 2.097 . S
Co59 N100 2.151 . S
Co59 N108 2.214 . S
Co60 O61 2.160 . S
Co60 O66 2.058 . S
Co60 O76 2.057 . S
Co60 O91 2.037 . S
Co60 N95 2.145 . S
Co60 N116 2.257 . S
O61 Co59 2.143 . S
O61 Co60 2.160 . S
C62 O63 1.278 . S
C62 O70 1.224 . S
O63 C62 1.278 . S
C64 O65 1.245 . S
C64 O76 1.232 . S
O65 C64 1.245 . S
O66 Co60 2.058 . S
O66 C92 1.269 . S
O67 Co59 2.074 . S
O67 C92 1.257 . S
H68 C93 0.930 . S
H69 C99 0.930 . S
O70 Co59 2.093 . S
O70 C62 1.224 . S
H71 C103 0.929 . S
H72 C105 0.930 . S
H73 C106 0.930 . S
H74 C104 0.929 . S
H75 C107 0.928 . S
O76 Co60 2.057 . S
O76 C64 1.232 . S
H77 C96 0.929 . S
H78 C97 0.929 . S
H79 C109 0.931 . S
H80 C101 0.929 . S
H81 C110 0.930 . S
H82 C102 0.931 . S
O83 Co59 2.097 . S
O83 C111 1.214 . S
H84 C112 0.929 . S
H85 C113 0.929 . S
H86 C114 0.930 . S
H87 C115 0.929 . S
H88 C117 0.930 . S
H89 C94 0.930 . S
H90 C98 0.930 . S
O91 Co60 2.037 . S
O91 C111 1.234 . S
C92 O66 1.269 . S
C92 O67 1.257 . S
C93 H68 0.930 . S
C93 C96 1.388 . S
C93 C98 1.418 . S
C94 H89 0.930 . S
C94 C97 1.404 . S
C94 C98 1.353 . S
N95 Co60 2.145 . S
N95 C96 1.397 . S
N95 C97 1.334 . S
C96 H77 0.929 . S
C96 C93 1.388 . S
C96 N95 1.397 . S
C97 H78 0.929 . S
C97 C94 1.404 . S
C97 N95 1.334 . S
C98 H90 0.930 . S
C98 C93 1.418 . S
C98 C94 1.353 . S
C99 H69 0.930 . S
C99 N100 1.330 . S
C99 C101 1.446 . S
N100 Co59 2.151 . S
N100 C99 1.330 . S
N100 C104 1.418 . S
C101 H80 0.929 . S
C101 C99 1.446 . S
C101 C102 1.332 . S
C102 H82 0.931 . S
C102 C101 1.332 . S
C102 C103 1.267 . S
C103 H71 0.929 . S
C103 C102 1.267 . S
C103 C104 1.251 . S
C104 H74 0.929 . S
C104 N100 1.418 . S
C104 C103 1.251 . S
C105 H72 0.930 . S
C105 C107 1.406 . S
C105 C110 1.261 . S
C106 H73 0.930 . S
C106 N108 1.325 . S
C106 C109 1.357 . S
C107 H75 0.928 . S
C107 C105 1.406 . S
C107 N108 1.261 . S
N108 Co59 2.214 . S
N108 C106 1.325 . S
N108 C107 1.261 . S
C109 H79 0.931 . S
C109 C106 1.357 . S
C109 C110 1.312 . S
C110 H81 0.930 . S
C110 C105 1.261 . S
C110 C109 1.312 . S
C111 O83 1.214 . S
C111 O91 1.234 . S
C112 H84 0.929 . S
C112 C115 1.391 . S
C112 C117 1.391 . S
C113 H85 0.929 . S
C113 C114 1.390 . S
C113 N116 1.391 . S
C114 H86 0.930 . S
C114 C113 1.390 . S
C114 C115 1.392 . S
C115 H87 0.929 . S
C115 C112 1.391 . S
C115 C114 1.392 . S
N116 Co60 2.257 . S
N116 C113 1.391 . S
N116 C117 1.388 . S
C117 H88 0.930 . S
C117 C112 1.391 . S
C117 N116 1.388 . S
Co118 O120 2.143 1_454 S
Co118 O126 2.074 . S
Co118 O129 2.094 1_455 S
Co118 O142 2.097 1_455 S
Co118 N159 2.151 1_554 S
Co118 N167 2.214 . S
Co119 O120 2.161 . S
Co119 O125 2.060 . S
Co119 O135 2.062 . S
Co119 O150 2.032 1_556 S
Co119 N154 2.143 1_556 S
Co119 N175 2.256 1_556 S
O120 Co118 2.143 1_656 S
O120 Co119 2.161 . S
C121 O122 1.278 . S
C121 O129 1.219 1_556 S
O122 C121 1.278 . S
C123 O124 1.245 . S
C123 O135 1.232 . S
O124 C123 1.245 . S
O125 Co119 2.060 . S
O125 C151 1.269 1_655 S
O126 Co118 2.074 . S
O126 C151 1.257 1_554 S
H127 C152 0.930 . S
H128 C158 0.930 . S
O129 Co118 2.094 1_655 S
O129 C121 1.219 1_554 S
H130 C162 0.929 . S
H131 C164 0.930 . S
H132 C165 0.930 . S
H133 C163 0.929 . S
H134 C166 0.928 . S
O135 Co119 2.062 . S
O135 C123 1.232 . S
H136 C155 0.929 . S
H137 C156 0.926 . S
H138 C168 0.931 . S
H139 C160 0.929 . S
H140 C169 0.930 . S
H141 C161 0.931 . S
O142 Co118 2.097 1_655 S
O142 C170 1.214 . S
H143 C171 0.929 1_556 S
H144 C172 0.929 . S
H145 C173 0.930 . S
H146 C174 0.929 . S
H147 C176 0.930 . S
H148 C153 0.930 1_556 S
H149 C157 0.930 . S
O150 Co119 2.032 1_554 S
O150 C170 1.234 . S
C151 O125 1.269 1_455 S
C151 O126 1.257 1_556 S
C152 H127 0.930 . S
C152 C155 1.388 . S
C152 C157 1.418 . S
C153 H148 0.930 1_554 S
C153 C156 1.405 1_554 S
C153 C157 1.353 . S
N154 Co119 2.143 1_554 S
N154 C155 1.397 . S
N154 C156 1.336 1_554 S
C155 H136 0.929 . S
C155 C152 1.388 . S
C155 N154 1.397 . S
C156 H137 0.926 . S
C156 C153 1.405 1_556 S
C156 N154 1.336 1_556 S
C157 H149 0.930 . S
C157 C152 1.418 . S
C157 C153 1.353 . S
C158 H128 0.930 . S
C158 N159 1.330 . S
C158 C160 1.446 . S
N159 Co118 2.151 1_556 S
N159 C158 1.330 . S
N159 C163 1.418 . S
C160 H139 0.929 . S
C160 C158 1.446 . S
C160 C161 1.332 . S
C161 H141 0.931 . S
C161 C160 1.332 . S
C161 C162 1.267 . S
C162 H130 0.929 . S
C162 C161 1.267 . S
C162 C163 1.251 . S
C163 H133 0.929 . S
C163 N159 1.418 . S
C163 C162 1.251 . S
C164 H131 0.930 . S
C164 C166 1.406 . S
C164 C169 1.261 . S
C165 H132 0.930 . S
C165 N167 1.325 . S
C165 C168 1.357 . S
C166 H134 0.928 . S
C166 C164 1.406 . S
C166 N167 1.261 . S
N167 Co118 2.214 . S
N167 C165 1.325 . S
N167 C166 1.261 . S
C168 H138 0.931 . S
C168 C165 1.357 . S
C168 C169 1.312 . S
C169 H140 0.930 . S
C169 C164 1.261 . S
C169 C168 1.312 . S
C170 O142 1.214 . S
C170 O150 1.234 . S
C171 H143 0.929 1_554 S
C171 C174 1.391 . S
C171 C176 1.391 1_554 S
C172 H144 0.929 . S
C172 C173 1.390 . S
C172 N175 1.391 . S
C173 H145 0.930 . S
C173 C172 1.390 . S
C173 C174 1.392 . S
C174 H146 0.929 . S
C174 C171 1.391 . S
C174 C173 1.392 . S
N175 Co119 2.256 1_554 S
N175 C172 1.391 . S
N175 C176 1.388 1_554 S
C176 H147 0.930 . S
C176 C171 1.391 1_556 S
C176 N175 1.388 1_556 S
Co177 O179 2.143 1_545 S
Co177 O185 2.074 . S
Co177 O188 2.093 1_545 S
Co177 O201 2.097 1_545 S
Co177 N218 2.151 . S
Co177 N226 2.214 . S
Co178 O179 2.160 . S
Co178 O184 2.058 . S
Co178 O194 2.057 . S
Co178 O209 2.037 . S
Co178 N213 2.145 . S
Co178 N234 2.257 . S
O179 Co177 2.143 1_565 S
O179 Co178 2.160 . S
C180 O181 1.278 . S
C180 O188 1.224 . S
O181 C180 1.278 . S
C182 O183 1.245 . S
C182 O194 1.232 . S
O183 C182 1.245 . S
O184 Co178 2.058 . S
O184 C210 1.269 1_565 S
O185 Co177 2.074 . S
O185 C210 1.257 . S
H186 C211 0.930 . S
H187 C217 0.930 . S
O188 Co177 2.093 1_565 S
O188 C180 1.224 . S
H189 C221 0.929 . S
H190 C223 0.930 . S
H191 C224 0.930 . S
H192 C222 0.929 . S
H193 C225 0.928 . S
O194 Co178 2.057 . S
O194 C182 1.232 . S
H195 C214 0.929 . S
H196 C215 0.929 . S
H197 C227 0.931 . S
H198 C219 0.929 . S
H199 C228 0.930 . S
H200 C220 0.931 . S
O201 Co177 2.097 1_565 S
O201 C229 1.214 . S
H202 C230 0.929 . S
H203 C231 0.929 . S
H204 C232 0.930 . S
H205 C233 0.929 . S
H206 C235 0.930 . S
H207 C212 0.930 . S
H208 C216 0.930 . S
O209 Co178 2.037 . S
O209 C229 1.234 . S
C210 O184 1.269 1_545 S
C210 O185 1.257 . S
C211 H186 0.930 . S
C211 C214 1.388 . S
C211 C216 1.418 . S
C212 H207 0.930 . S
C212 C215 1.404 . S
C212 C216 1.353 . S
N213 Co178 2.145 . S
N213 C214 1.397 . S
N213 C215 1.334 . S
C214 H195 0.929 . S
C214 C211 1.388 . S
C214 N213 1.397 . S
C215 H196 0.929 . S
C215 C212 1.404 . S
C215 N213 1.334 . S
C216 H208 0.930 . S
C216 C211 1.418 . S
C216 C212 1.353 . S
C217 H187 0.930 . S
C217 N218 1.330 . S
C217 C219 1.446 . S
N218 Co177 2.151 . S
N218 C217 1.330 . S
N218 C222 1.418 . S
C219 H198 0.929 . S
C219 C217 1.446 . S
C219 C220 1.332 . S
C220 H200 0.931 . S
C220 C219 1.332 . S
C220 C221 1.267 . S
C221 H189 0.929 . S
C221 C220 1.267 . S
C221 C222 1.251 . S
C222 H192 0.929 . S
C222 N218 1.418 . S
C222 C221 1.251 . S
C223 H190 0.930 . S
C223 C225 1.406 . S
C223 C228 1.261 . S
C224 H191 0.930 . S
C224 N226 1.325 . S
C224 C227 1.357 . S
C225 H193 0.928 . S
C225 C223 1.406 . S
C225 N226 1.261 . S
N226 Co177 2.214 . S
N226 C224 1.325 . S
N226 C225 1.261 . S
C227 H197 0.931 . S
C227 C224 1.357 . S
C227 C228 1.312 . S
C228 H199 0.930 . S
C228 C223 1.261 . S
C228 C227 1.312 . S
C229 O201 1.214 . S
C229 O209 1.234 . S
C230 H202 0.929 . S
C230 C233 1.391 . S
C230 C235 1.391 . S
C231 H203 0.929 . S
C231 C232 1.390 . S
C231 N234 1.391 . S
C232 H204 0.930 . S
C232 C231 1.390 . S
C232 C233 1.392 . S
C233 H205 0.929 . S
C233 C230 1.391 . S
C233 C232 1.392 . S
N234 Co178 2.257 . S
N234 C231 1.391 . S
N234 C235 1.388 . S
C235 H206 0.930 . S
C235 C230 1.391 . S
C235 N234 1.388 . S
Co236 O238 2.143 . S
Co236 O244 2.074 . S
Co236 O247 2.093 . S
Co236 O260 2.097 . S
Co236 N277 2.151 . S
Co236 N285 2.214 . S
Co237 O238 2.160 . S
Co237 O243 2.058 . S
Co237 O253 2.057 . S
Co237 O268 2.037 . S
Co237 N272 2.145 . S
Co237 N293 2.257 . S
O238 Co236 2.143 . S
O238 Co237 2.160 . S
C239 O240 1.278 . S
C239 O247 1.224 . S
O240 C239 1.278 . S
C241 O242 1.245 . S
C241 O253 1.232 . S
O242 C241 1.245 . S
O243 Co237 2.058 . S
O243 C269 1.269 . S
O244 Co236 2.074 . S
O244 C269 1.257 . S
H245 C270 0.930 . S
H246 C276 0.930 . S
O247 Co236 2.093 . S
O247 C239 1.224 . S
H248 C280 0.929 . S
H249 C282 0.930 . S
H250 C283 0.930 . S
H251 C281 0.929 . S
H252 C284 0.928 . S
O253 Co237 2.057 . S
O253 C241 1.232 . S
H254 C273 0.929 . S
H255 C274 0.929 . S
H256 C286 0.931 . S
H257 C278 0.929 . S
H258 C287 0.930 . S
H259 C279 0.931 . S
O260 Co236 2.097 . S
O260 C288 1.214 . S
H261 C289 0.929 . S
H262 C290 0.929 . S
H263 C291 0.930 . S
H264 C292 0.929 . S
H265 C294 0.930 . S
H266 C271 0.930 . S
H267 C275 0.930 . S
O268 Co237 2.037 . S
O268 C288 1.234 . S
C269 O243 1.269 . S
C269 O244 1.257 . S
C270 H245 0.930 . S
C270 C273 1.388 . S
C270 C275 1.418 . S
C271 H266 0.930 . S
C271 C274 1.404 . S
C271 C275 1.353 . S
N272 Co237 2.145 . S
N272 C273 1.397 . S
N272 C274 1.334 . S
C273 H254 0.929 . S
C273 C270 1.388 . S
C273 N272 1.397 . S
C274 H255 0.929 . S
C274 C271 1.404 . S
C274 N272 1.334 . S
C275 H267 0.930 . S
C275 C270 1.418 . S
C275 C271 1.353 . S
C276 H246 0.930 . S
C276 N277 1.330 . S
C276 C278 1.446 . S
N277 Co236 2.151 . S
N277 C276 1.330 . S
N277 C281 1.418 . S
C278 H257 0.929 . S
C278 C276 1.446 . S
C278 C279 1.332 . S
C279 H259 0.931 . S
C279 C278 1.332 . S
C279 C280 1.267 . S
C280 H248 0.929 . S
C280 C279 1.267 . S
C280 C281 1.251 . S
C281 H251 0.929 . S
C281 N277 1.418 . S
C281 C280 1.251 . S
C282 H249 0.930 . S
C282 C284 1.406 . S
C282 C287 1.261 . S
C283 H250 0.930 . S
C283 N285 1.325 . S
C283 C286 1.357 . S
C284 H252 0.928 . S
C284 C282 1.406 . S
C284 N285 1.261 . S
N285 Co236 2.214 . S
N285 C283 1.325 . S
N285 C284 1.261 . S
C286 H256 0.931 . S
C286 C283 1.357 . S
C286 C287 1.312 . S
C287 H258 0.930 . S
C287 C282 1.261 . S
C287 C286 1.312 . S
C288 O260 1.214 . S
C288 O268 1.234 . S
C289 H261 0.929 . S
C289 C292 1.391 . S
C289 C294 1.391 . S
C290 H262 0.929 . S
C290 C291 1.390 . S
C290 N293 1.391 . S
C291 H263 0.930 . S
C291 C290 1.390 . S
C291 C292 1.392 . S
C292 H264 0.929 . S
C292 C289 1.391 . S
C292 C291 1.392 . S
N293 Co237 2.257 . S
N293 C290 1.391 . S
N293 C294 1.388 . S
C294 H265 0.930 . S
C294 C289 1.391 . S
C294 N293 1.388 . S
Co295 O297 2.143 1_654 S
Co295 O303 2.074 . S
Co295 O306 2.094 1_655 S
Co295 O319 2.097 1_655 S
Co295 N336 2.151 1_554 S
Co295 N344 2.214 . S
Co296 O297 2.161 . S
Co296 O302 2.060 . S
Co296 O312 2.062 . S
Co296 O327 2.032 1_556 S
Co296 N331 2.143 1_556 S
Co296 N352 2.256 1_556 S
O297 Co295 2.143 1_456 S
O297 Co296 2.161 . S
C298 O299 1.278 . S
C298 O306 1.219 1_556 S
O299 C298 1.278 . S
C300 O301 1.245 . S
C300 O312 1.232 . S
O301 C300 1.245 . S
O302 Co296 2.060 . S
O302 C328 1.269 1_455 S
O303 Co295 2.074 . S
O303 C328 1.257 1_554 S
H304 C329 0.930 . S
H305 C335 0.930 . S
O306 Co295 2.094 1_455 S
O306 C298 1.219 1_554 S
H307 C339 0.929 . S
H308 C341 0.930 . S
H309 C342 0.930 . S
H310 C340 0.929 . S
H311 C343 0.928 . S
O312 Co296 2.062 . S
O312 C300 1.232 . S
H313 C332 0.929 . S
H314 C333 0.926 . S
H315 C345 0.931 . S
H316 C337 0.929 . S
H317 C346 0.930 . S
H318 C338 0.931 . S
O319 Co295 2.097 1_455 S
O319 C347 1.214 . S
H320 C348 0.929 1_556 S
H321 C349 0.929 . S
H322 C350 0.930 . S
H323 C351 0.929 . S
H324 C353 0.930 . S
H325 C330 0.930 1_556 S
H326 C334 0.930 . S
O327 Co296 2.032 1_554 S
O327 C347 1.234 . S
C328 O302 1.269 1_655 S
C328 O303 1.257 1_556 S
C329 H304 0.930 . S
C329 C332 1.388 . S
C329 C334 1.418 . S
C330 H325 0.930 1_554 S
C330 C333 1.405 1_554 S
C330 C334 1.353 . S
N331 Co296 2.143 1_554 S
N331 C332 1.397 . S
N331 C333 1.336 1_554 S
C332 H313 0.929 . S
C332 C329 1.388 . S
C332 N331 1.397 . S
C333 H314 0.926 . S
C333 C330 1.405 1_556 S
C333 N331 1.336 1_556 S
C334 H326 0.930 . S
C334 C329 1.418 . S
C334 C330 1.353 . S
C335 H305 0.930 . S
C335 N336 1.330 . S
C335 C337 1.446 . S
N336 Co295 2.151 1_556 S
N336 C335 1.330 . S
N336 C340 1.418 . S
C337 H316 0.929 . S
C337 C335 1.446 . S
C337 C338 1.332 . S
C338 H318 0.931 . S
C338 C337 1.332 . S
C338 C339 1.267 . S
C339 H307 0.929 . S
C339 C338 1.267 . S
C339 C340 1.251 . S
C340 H310 0.929 . S
C340 N336 1.418 . S
C340 C339 1.251 . S
C341 H308 0.930 . S
C341 C343 1.406 . S
C341 C346 1.261 . S
C342 H309 0.930 . S
C342 N344 1.325 . S
C342 C345 1.357 . S
C343 H311 0.928 . S
C343 C341 1.406 . S
C343 N344 1.261 . S
N344 Co295 2.214 . S
N344 C342 1.325 . S
N344 C343 1.261 . S
C345 H315 0.931 . S
C345 C342 1.357 . S
C345 C346 1.312 . S
C346 H317 0.930 . S
C346 C341 1.261 . S
C346 C345 1.312 . S
C347 O319 1.214 . S
C347 O327 1.234 . S
C348 H320 0.929 1_554 S
C348 C351 1.391 . S
C348 C353 1.391 1_554 S
C349 H321 0.929 . S
C349 C350 1.390 . S
C349 N352 1.391 . S
C350 H322 0.930 . S
C350 C349 1.390 . S
C350 C351 1.392 . S
C351 H323 0.929 . S
C351 C348 1.391 . S
C351 C350 1.392 . S
N352 Co296 2.256 1_554 S
N352 C349 1.391 . S
N352 C353 1.388 1_554 S
C353 H324 0.930 . S
C353 C348 1.391 1_556 S
C353 N352 1.388 1_556 S
Co354 O356 2.143 1_455 S
Co354 O362 2.074 . S
Co354 O365 2.093 1_455 S
Co354 O378 2.097 1_455 S
Co354 N395 2.151 . S
Co354 N403 2.214 . S
Co355 O356 2.160 . S
Co355 O361 2.058 . S
Co355 O371 2.057 . S
Co355 O386 2.037 . S
Co355 N390 2.145 . S
Co355 N411 2.257 . S
O356 Co354 2.143 1_655 S
O356 Co355 2.160 . S
C357 O358 1.278 . S
C357 O365 1.224 . S
O358 C357 1.278 . S
C359 O360 1.245 . S
C359 O371 1.232 . S
O360 C359 1.245 . S
O361 Co355 2.058 . S
O361 C387 1.269 1_655 S
O362 Co354 2.074 . S
O362 C387 1.257 . S
H363 C388 0.930 . S
H364 C394 0.930 . S
O365 Co354 2.093 1_655 S
O365 C357 1.224 . S
H366 C398 0.929 . S
H367 C400 0.930 . S
H368 C401 0.930 . S
H369 C399 0.929 . S
H370 C402 0.928 . S
O371 Co355 2.057 . S
O371 C359 1.232 . S
H372 C391 0.929 . S
H373 C392 0.929 . S
H374 C404 0.931 . S
H375 C396 0.929 . S
H376 C405 0.930 . S
H377 C397 0.931 . S
O378 Co354 2.097 1_655 S
O378 C406 1.214 . S
H379 C407 0.929 . S
H380 C408 0.929 . S
H381 C409 0.930 . S
H382 C410 0.929 . S
H383 C412 0.930 . S
H384 C389 0.930 . S
H385 C393 0.930 . S
O386 Co355 2.037 . S
O386 C406 1.234 . S
C387 O361 1.269 1_455 S
C387 O362 1.257 . S
C388 H363 0.930 . S
C388 C391 1.388 . S
C388 C393 1.418 . S
C389 H384 0.930 . S
C389 C392 1.404 . S
C389 C393 1.353 . S
N390 Co355 2.145 . S
N390 C391 1.397 . S
N390 C392 1.334 . S
C391 H372 0.929 . S
C391 C388 1.388 . S
C391 N390 1.397 . S
C392 H373 0.929 . S
C392 C389 1.404 . S
C392 N390 1.334 . S
C393 H385 0.930 . S
C393 C388 1.418 . S
C393 C389 1.353 . S
C394 H364 0.930 . S
C394 N395 1.330 . S
C394 C396 1.446 . S
N395 Co354 2.151 . S
N395 C394 1.330 . S
N395 C399 1.418 . S
C396 H375 0.929 . S
C396 C394 1.446 . S
C396 C397 1.332 . S
C397 H377 0.931 . S
C397 C396 1.332 . S
C397 C398 1.267 . S
C398 H366 0.929 . S
C398 C397 1.267 . S
C398 C399 1.251 . S
C399 H369 0.929 . S
C399 N395 1.418 . S
C399 C398 1.251 . S
C400 H367 0.930 . S
C400 C402 1.406 . S
C400 C405 1.261 . S
C401 H368 0.930 . S
C401 N403 1.325 . S
C401 C404 1.357 . S
C402 H370 0.928 . S
C402 C400 1.406 . S
C402 N403 1.261 . S
N403 Co354 2.214 . S
N403 C401 1.325 . S
N403 C402 1.261 . S
C404 H374 0.931 . S
C404 C401 1.357 . S
C404 C405 1.312 . S
C405 H376 0.930 . S
C405 C400 1.261 . S
C405 C404 1.312 . S
C406 O378 1.214 . S
C406 O386 1.234 . S
C407 H379 0.929 . S
C407 C410 1.391 . S
C407 C412 1.391 . S
C408 H380 0.929 . S
C408 C409 1.390 . S
C408 N411 1.391 . S
C409 H381 0.930 . S
C409 C408 1.390 . S
C409 C410 1.392 . S
C410 H382 0.929 . S
C410 C407 1.391 . S
C410 C409 1.392 . S
N411 Co355 2.257 . S
N411 C408 1.391 . S
N411 C412 1.388 . S
C412 H383 0.930 . S
C412 C407 1.391 . S
C412 N411 1.388 . S
Co413 O415 2.143 1_545 S
Co413 O421 2.074 . S
Co413 O424 2.093 1_545 S
Co413 O437 2.097 1_545 S
Co413 N454 2.151 . S
Co413 N462 2.214 . S
Co414 O415 2.160 . S
Co414 O420 2.058 . S
Co414 O430 2.057 . S
Co414 O445 2.037 . S
Co414 N449 2.145 . S
Co414 N470 2.257 . S
O415 Co413 2.143 1_565 S
O415 Co414 2.160 . S
C416 O417 1.278 . S
C416 O424 1.224 . S
O417 C416 1.278 . S
C418 O419 1.245 . S
C418 O430 1.232 . S
O419 C418 1.245 . S
O420 Co414 2.058 . S
O420 C446 1.269 1_565 S
O421 Co413 2.074 . S
O421 C446 1.257 . S
H422 C447 0.930 . S
H423 C453 0.930 . S
O424 Co413 2.093 1_565 S
O424 C416 1.224 . S
H425 C457 0.929 . S
H426 C459 0.930 . S
H427 C460 0.930 . S
H428 C458 0.929 . S
H429 C461 0.928 . S
O430 Co414 2.057 . S
O430 C418 1.232 . S
H431 C450 0.929 . S
H432 C451 0.929 . S
H433 C463 0.931 . S
H434 C455 0.929 . S
H435 C464 0.930 . S
H436 C456 0.931 . S
O437 Co413 2.097 1_565 S
O437 C465 1.214 . S
H438 C466 0.929 . S
H439 C467 0.929 . S
H440 C468 0.930 . S
H441 C469 0.929 . S
H442 C471 0.930 . S
H443 C448 0.930 . S
H444 C452 0.930 . S
O445 Co414 2.037 . S
O445 C465 1.234 . S
C446 O420 1.269 1_545 S
C446 O421 1.257 . S
C447 H422 0.930 . S
C447 C450 1.388 . S
C447 C452 1.418 . S
C448 H443 0.930 . S
C448 C451 1.404 . S
C448 C452 1.353 . S
N449 Co414 2.145 . S
N449 C450 1.397 . S
N449 C451 1.334 . S
C450 H431 0.929 . S
C450 C447 1.388 . S
C450 N449 1.397 . S
C451 H432 0.929 . S
C451 C448 1.404 . S
C451 N449 1.334 . S
C452 H444 0.930 . S
C452 C447 1.418 . S
C452 C448 1.353 . S
C453 H423 0.930 . S
C453 N454 1.330 . S
C453 C455 1.446 . S
N454 Co413 2.151 . S
N454 C453 1.330 . S
N454 C458 1.418 . S
C455 H434 0.929 . S
C455 C453 1.446 . S
C455 C456 1.332 . S
C456 H436 0.931 . S
C456 C455 1.332 . S
C456 C457 1.267 . S
C457 H425 0.929 . S
C457 C456 1.267 . S
C457 C458 1.251 . S
C458 H428 0.929 . S
C458 N454 1.418 . S
C458 C457 1.251 . S
C459 H426 0.930 . S
C459 C461 1.406 . S
C459 C464 1.261 . S
C460 H427 0.930 . S
C460 N462 1.325 . S
C460 C463 1.357 . S
C461 H429 0.928 . S
C461 C459 1.406 . S
C461 N462 1.261 . S
N462 Co413 2.214 . S
N462 C460 1.325 . S
N462 C461 1.261 . S
C463 H433 0.931 . S
C463 C460 1.357 . S
C463 C464 1.312 . S
C464 H435 0.930 . S
C464 C459 1.261 . S
C464 C463 1.312 . S
C465 O437 1.214 . S
C465 O445 1.234 . S
C466 H438 0.929 . S
C466 C469 1.391 . S
C466 C471 1.391 . S
C467 H439 0.929 . S
C467 C468 1.390 . S
C467 N470 1.391 . S
C468 H440 0.930 . S
C468 C467 1.390 . S
C468 C469 1.392 . S
C469 H441 0.929 . S
C469 C466 1.391 . S
C469 C468 1.392 . S
N470 Co414 2.257 . S
N470 C467 1.391 . S
N470 C471 1.388 . S
C471 H442 0.930 . S
C471 C466 1.391 . S
C471 N470 1.388 . S
Co472 O474 2.143 . S
Co472 O480 2.074 . S
Co472 O483 2.093 . S
Co472 O496 2.097 1_554 S
Co472 N513 2.151 . S
Co472 N521 2.214 1_554 S
Co473 O474 2.160 . S
Co473 O479 2.058 . S
Co473 O489 2.057 . S
Co473 O504 2.037 1_554 S
Co473 N508 2.145 1_554 S
Co473 N529 2.257 1_554 S
O474 Co472 2.143 . S
O474 Co473 2.160 . S
C475 O476 1.278 . S
C475 O483 1.224 . S
O476 C475 1.278 . S
C477 O478 1.245 . S
C477 O489 1.232 . S
O478 C477 1.245 . S
O479 Co473 2.058 . S
O479 C505 1.269 . S
O480 Co472 2.074 . S
O480 C505 1.257 . S
H481 C506 0.930 . S
H482 C512 0.930 . S
O483 Co472 2.093 . S
O483 C475 1.224 . S
H484 C516 0.929 . S
H485 C518 0.930 . S
H486 C519 0.930 . S
H487 C517 0.929 . S
H488 C520 0.928 1_554 S
O489 Co473 2.057 . S
O489 C477 1.232 . S
H490 C509 0.929 . S
H491 C510 0.929 . S
H492 C522 0.931 . S
H493 C514 0.929 . S
H494 C523 0.930 . S
H495 C515 0.931 . S
O496 Co472 2.097 1_556 S
O496 C524 1.214 . S
H497 C525 0.929 . S
H498 C526 0.929 . S
H499 C527 0.930 . S
H500 C528 0.929 . S
H501 C530 0.930 . S
H502 C507 0.941 . S
H503 C511 0.930 . S
O504 Co473 2.037 1_556 S
O504 C524 1.234 . S
C505 O479 1.269 . S
C505 O480 1.257 . S
C506 H481 0.930 . S
C506 C509 1.388 . S
C506 C511 1.418 . S
C507 H502 0.941 . S
C507 C510 1.409 . S
C507 C511 1.336 1_554 S
N508 Co473 2.145 1_556 S
N508 C509 1.397 . S
N508 C510 1.334 1_556 S
C509 H490 0.929 . S
C509 C506 1.388 . S
C509 N508 1.397 . S
C510 H491 0.929 . S
C510 C507 1.409 . S
C510 N508 1.334 1_554 S
C511 H503 0.930 . S
C511 C506 1.418 . S
C511 C507 1.336 1_556 S
C512 H482 0.930 . S
C512 N513 1.330 . S
C512 C514 1.446 . S
N513 Co472 2.151 . S
N513 C512 1.330 . S
N513 C517 1.418 . S
C514 H493 0.929 . S
C514 C512 1.446 . S
C514 C515 1.332 . S
C515 H495 0.931 . S
C515 C514 1.332 . S
C515 C516 1.267 . S
C516 H484 0.929 . S
C516 C515 1.267 . S
C516 C517 1.251 . S
C517 H487 0.929 . S
C517 N513 1.418 . S
C517 C516 1.251 . S
C518 H485 0.930 . S
C518 C520 1.406 . S
C518 C523 1.261 . S
C519 H486 0.930 . S
C519 N521 1.325 . S
C519 C522 1.357 . S
C520 H488 0.928 1_556 S
C520 C518 1.406 . S
C520 N521 1.261 . S
N521 Co472 2.214 1_556 S
N521 C519 1.325 . S
N521 C520 1.261 . S
C522 H492 0.931 . S
C522 C519 1.357 . S
C522 C523 1.312 . S
C523 H494 0.930 . S
C523 C518 1.261 . S
C523 C522 1.312 . S
C524 O496 1.214 . S
C524 O504 1.234 . S
C525 H497 0.929 . S
C525 C528 1.391 1_554 S
C525 C530 1.391 . S
C526 H498 0.929 . S
C526 C527 1.390 . S
C526 N529 1.391 . S
C527 H499 0.930 . S
C527 C526 1.390 . S
C527 C528 1.392 . S
C528 H500 0.929 . S
C528 C525 1.391 1_556 S
C528 C527 1.392 . S
N529 Co473 2.257 1_556 S
N529 C526 1.391 . S
N529 C530 1.388 1_556 S
C530 H501 0.930 . S
C530 C525 1.391 . S
C530 N529 1.388 1_554 S
Co531 O533 2.143 1_655 S
Co531 O539 2.074 . S
Co531 O542 2.093 1_655 S
Co531 O555 2.097 1_655 S
Co531 N572 2.151 . S
Co531 N580 2.214 . S
Co532 O533 2.160 . S
Co532 O538 2.058 . S
Co532 O548 2.057 . S
Co532 O563 2.037 . S
Co532 N567 2.145 . S
Co532 N588 2.257 . S
O533 Co531 2.143 1_455 S
O533 Co532 2.160 . S
C534 O535 1.278 . S
C534 O542 1.224 . S
O535 C534 1.278 . S
C536 O537 1.245 . S
C536 O548 1.232 . S
O537 C536 1.245 . S
O538 Co532 2.058 . S
O538 C564 1.269 1_455 S
O539 Co531 2.074 . S
O539 C564 1.257 . S
H540 C565 0.930 . S
H541 C571 0.930 . S
O542 Co531 2.093 1_455 S
O542 C534 1.224 . S
H543 C575 0.929 . S
H544 C577 0.930 . S
H545 C578 0.930 . S
H546 C576 0.929 . S
H547 C579 0.928 . S
O548 Co532 2.057 . S
O548 C536 1.232 . S
H549 C568 0.929 . S
H550 C569 0.929 . S
H551 C581 0.931 . S
H552 C573 0.929 . S
H553 C582 0.930 . S
H554 C574 0.931 . S
O555 Co531 2.097 1_455 S
O555 C583 1.214 . S
H556 C584 0.929 . S
H557 C585 0.929 . S
H558 C586 0.930 . S
H559 C587 0.929 . S
H560 C589 0.930 . S
H561 C566 0.930 . S
H562 C570 0.930 . S
O563 Co532 2.037 . S
O563 C583 1.234 . S
C564 O538 1.269 1_655 S
C564 O539 1.257 . S
C565 H540 0.930 . S
C565 C568 1.388 . S
C565 C570 1.418 . S
C566 H561 0.930 . S
C566 C569 1.404 . S
C566 C570 1.353 . S
N567 Co532 2.145 . S
N567 C568 1.397 . S
N567 C569 1.334 . S
C568 H549 0.929 . S
C568 C565 1.388 . S
C568 N567 1.397 . S
C569 H550 0.929 . S
C569 C566 1.404 . S
C569 N567 1.334 . S
C570 H562 0.930 . S
C570 C565 1.418 . S
C570 C566 1.353 . S
C571 H541 0.930 . S
C571 N572 1.330 . S
C571 C573 1.446 . S
N572 Co531 2.151 . S
N572 C571 1.330 . S
N572 C576 1.418 . S
C573 H552 0.929 . S
C573 C571 1.446 . S
C573 C574 1.332 . S
C574 H554 0.931 . S
C574 C573 1.332 . S
C574 C575 1.267 . S
C575 H543 0.929 . S
C575 C574 1.267 . S
C575 C576 1.251 . S
C576 H546 0.929 . S
C576 N572 1.418 . S
C576 C575 1.251 . S
C577 H544 0.930 . S
C577 C579 1.406 . S
C577 C582 1.261 . S
C578 H545 0.930 . S
C578 N580 1.325 . S
C578 C581 1.357 . S
C579 H547 0.928 . S
C579 C577 1.406 . S
C579 N580 1.261 . S
N580 Co531 2.214 . S
N580 C578 1.325 . S
N580 C579 1.261 . S
C581 H551 0.931 . S
C581 C578 1.357 . S
C581 C582 1.312 . S
C582 H553 0.930 . S
C582 C577 1.261 . S
C582 C581 1.312 . S
C583 O555 1.214 . S
C583 O563 1.234 . S
C584 H556 0.929 . S
C584 C587 1.391 . S
C584 C589 1.391 . S
C585 H557 0.929 . S
C585 C586 1.390 . S
C585 N588 1.391 . S
C586 H558 0.930 . S
C586 C585 1.390 . S
C586 C587 1.392 . S
C587 H559 0.929 . S
C587 C584 1.391 . S
C587 C586 1.392 . S
N588 Co532 2.257 . S
N588 C585 1.391 . S
N588 C589 1.388 . S
C589 H560 0.930 . S
C589 C584 1.391 . S
C589 N588 1.388 . S
Co590 O592 2.143 1_565 S
Co590 O598 2.074 . S
Co590 O601 2.093 1_565 S
Co590 O614 2.097 1_565 S
Co590 N631 2.151 . S
Co590 N639 2.214 . S
Co591 O592 2.160 . S
Co591 O597 2.058 . S
Co591 O607 2.057 . S
Co591 O622 2.037 . S
Co591 N626 2.145 . S
Co591 N647 2.257 . S
O592 Co590 2.143 1_545 S
O592 Co591 2.160 . S
C593 O594 1.278 . S
C593 O601 1.224 . S
O594 C593 1.278 . S
C595 O596 1.245 . S
C595 O607 1.232 . S
O596 C595 1.245 . S
O597 Co591 2.058 . S
O597 C623 1.269 1_545 S
O598 Co590 2.074 . S
O598 C623 1.257 . S
H599 C624 0.930 . S
H600 C630 0.930 . S
O601 Co590 2.093 1_545 S
O601 C593 1.224 . S
H602 C634 0.929 . S
H603 C636 0.930 . S
H604 C637 0.930 . S
H605 C635 0.929 . S
H606 C638 0.928 . S
O607 Co591 2.057 . S
O607 C595 1.232 . S
H608 C627 0.929 . S
H609 C628 0.929 . S
H610 C640 0.931 . S
H611 C632 0.929 . S
H612 C641 0.930 . S
H613 C633 0.931 . S
O614 Co590 2.097 1_545 S
O614 C642 1.214 . S
H615 C643 0.929 . S
H616 C644 0.929 . S
H617 C645 0.930 . S
H618 C646 0.929 . S
H619 C648 0.930 . S
H620 C625 0.930 . S
H621 C629 0.930 . S
O622 Co591 2.037 . S
O622 C642 1.234 . S
C623 O597 1.269 1_565 S
C623 O598 1.257 . S
C624 H599 0.930 . S
C624 C627 1.388 . S
C624 C629 1.418 . S
C625 H620 0.930 . S
C625 C628 1.404 . S
C625 C629 1.353 . S
N626 Co591 2.145 . S
N626 C627 1.397 . S
N626 C628 1.334 . S
C627 H608 0.929 . S
C627 C624 1.388 . S
C627 N626 1.397 . S
C628 H609 0.929 . S
C628 C625 1.404 . S
C628 N626 1.334 . S
C629 H621 0.930 . S
C629 C624 1.418 . S
C629 C625 1.353 . S
C630 H600 0.930 . S
C630 N631 1.330 . S
C630 C632 1.446 . S
N631 Co590 2.151 . S
N631 C630 1.330 . S
N631 C635 1.418 . S
C632 H611 0.929 . S
C632 C630 1.446 . S
C632 C633 1.332 . S
C633 H613 0.931 . S
C633 C632 1.332 . S
C633 C634 1.267 . S
C634 H602 0.929 . S
C634 C633 1.267 . S
C634 C635 1.251 . S
C635 H605 0.929 . S
C635 N631 1.418 . S
C635 C634 1.251 . S
C636 H603 0.930 . S
C636 C638 1.406 . S
C636 C641 1.261 . S
C637 H604 0.930 . S
C637 N639 1.325 . S
C637 C640 1.357 . S
C638 H606 0.928 . S
C638 C636 1.406 . S
C638 N639 1.261 . S
N639 Co590 2.214 . S
N639 C637 1.325 . S
N639 C638 1.261 . S
C640 H610 0.931 . S
C640 C637 1.357 . S
C640 C641 1.312 . S
C641 H612 0.930 . S
C641 C636 1.261 . S
C641 C640 1.312 . S
C642 O614 1.214 . S
C642 O622 1.234 . S
C643 H615 0.929 . S
C643 C646 1.391 . S
C643 C648 1.391 . S
C644 H616 0.929 . S
C644 C645 1.390 . S
C644 N647 1.391 . S
C645 H617 0.930 . S
C645 C644 1.390 . S
C645 C646 1.392 . S
C646 H618 0.929 . S
C646 C643 1.391 . S
C646 C645 1.392 . S
N647 Co591 2.257 . S
N647 C644 1.391 . S
N647 C648 1.388 . S
C648 H619 0.930 . S
C648 C643 1.391 . S
C648 N647 1.388 . S
Co649 O651 2.143 . S
Co649 O657 2.074 . S
Co649 O660 2.093 . S
Co649 O673 2.097 1_554 S
Co649 N690 2.151 . S
Co649 N698 2.214 1_554 S
Co650 O651 2.160 . S
Co650 O656 2.058 . S
Co650 O666 2.057 . S
Co650 O681 2.037 1_554 S
Co650 N685 2.145 1_554 S
Co650 N706 2.257 1_554 S
O651 Co649 2.143 . S
O651 Co650 2.160 . S
C652 O653 1.278 . S
C652 O660 1.224 . S
O653 C652 1.278 . S
C654 O655 1.245 . S
C654 O666 1.232 . S
O655 C654 1.245 . S
O656 Co650 2.058 . S
O656 C682 1.269 . S
O657 Co649 2.074 . S
O657 C682 1.257 . S
H658 C683 0.930 . S
H659 C689 0.930 . S
O660 Co649 2.093 . S
O660 C652 1.224 . S
H661 C693 0.929 . S
H662 C695 0.930 . S
H663 C696 0.930 . S
H664 C694 0.929 . S
H665 C697 0.928 1_554 S
O666 Co650 2.057 . S
O666 C654 1.232 . S
H667 C686 0.929 . S
H668 C687 0.929 . S
H669 C699 0.931 . S
H670 C691 0.929 . S
H671 C700 0.930 . S
H672 C692 0.931 . S
O673 Co649 2.097 1_556 S
O673 C701 1.214 . S
H674 C702 0.929 . S
H675 C703 0.929 . S
H676 C704 0.930 . S
H677 C705 0.929 . S
H678 C707 0.930 . S
H679 C684 0.941 . S
H680 C688 0.930 . S
O681 Co650 2.037 1_556 S
O681 C701 1.234 . S
C682 O656 1.269 . S
C682 O657 1.257 . S
C683 H658 0.930 . S
C683 C686 1.388 . S
C683 C688 1.418 . S
C684 H679 0.941 . S
C684 C687 1.409 . S
C684 C688 1.336 1_554 S
N685 Co650 2.145 1_556 S
N685 C686 1.397 . S
N685 C687 1.334 1_556 S
C686 H667 0.929 . S
C686 C683 1.388 . S
C686 N685 1.397 . S
C687 H668 0.929 . S
C687 C684 1.409 . S
C687 N685 1.334 1_554 S
C688 H680 0.930 . S
C688 C683 1.418 . S
C688 C684 1.336 1_556 S
C689 H659 0.930 . S
C689 N690 1.330 . S
C689 C691 1.446 . S
N690 Co649 2.151 . S
N690 C689 1.330 . S
N690 C694 1.418 . S
C691 H670 0.929 . S
C691 C689 1.446 . S
C691 C692 1.332 . S
C692 H672 0.931 . S
C692 C691 1.332 . S
C692 C693 1.267 . S
C693 H661 0.929 . S
C693 C692 1.267 . S
C693 C694 1.251 . S
C694 H664 0.929 . S
C694 N690 1.418 . S
C694 C693 1.251 . S
C695 H662 0.930 . S
C695 C697 1.406 . S
C695 C700 1.261 . S
C696 H663 0.930 . S
C696 N698 1.325 . S
C696 C699 1.357 . S
C697 H665 0.928 1_556 S
C697 C695 1.406 . S
C697 N698 1.261 . S
N698 Co649 2.214 1_556 S
N698 C696 1.325 . S
N698 C697 1.261 . S
C699 H669 0.931 . S
C699 C696 1.357 . S
C699 C700 1.312 . S
C700 H671 0.930 . S
C700 C695 1.261 . S
C700 C699 1.312 . S
C701 O673 1.214 . S
C701 O681 1.234 . S
C702 H674 0.929 . S
C702 C705 1.391 1_554 S
C702 C707 1.391 . S
C703 H675 0.929 . S
C703 C704 1.390 . S
C703 N706 1.391 . S
C704 H676 0.930 . S
C704 C703 1.390 . S
C704 C705 1.392 . S
C705 H677 0.929 . S
C705 C702 1.391 1_556 S
C705 C704 1.392 . S
N706 Co650 2.257 1_556 S
N706 C703 1.391 . S
N706 C707 1.388 1_556 S
C707 H678 0.930 . S
C707 C702 1.391 . S
C707 N706 1.388 1_554 S
H708 C714 0.930 . S
H709 C718 0.930 . S
H710 C723 0.929 . S
H711 C721 0.929 . S
H712 C716 0.929 . S
H713 C722 0.929 . S
C714 H708 0.930 . S
C714 C715 1.367 . S
C714 C722 1.378 . S
C715 C714 1.367 . S
C715 C723 1.433 . S
C716 H712 0.929 . S
C716 C718 1.378 . S
C716 C720 1.350 . S
C717 C720 1.463 . S
C717 C722 1.350 . S
C717 N725 1.427 . S
C718 H709 0.930 . S
C718 C716 1.378 . S
C718 C719 1.367 . S
C719 C718 1.367 . S
C719 C721 1.433 . S
C720 C716 1.350 . S
C720 C717 1.463 . S
C720 N724 1.427 . S
C721 H711 0.929 . S
C721 C719 1.433 . S
C721 N724 1.384 . S
C722 H713 0.929 . S
C722 C714 1.378 . S
C722 C717 1.350 . S
C723 H710 0.929 . S
C723 C715 1.433 . S
C723 N725 1.384 . S
N724 C720 1.427 . S
N724 C721 1.384 . S
N725 C717 1.427 . S
N725 C723 1.384 . S
H726 C732 0.930 . S
H727 C736 0.930 . S
H728 C741 0.929 . S
H729 C739 0.929 . S
H730 C734 0.929 . S
H731 C740 0.929 . S
C732 H726 0.930 . S
C732 C733 1.367 . S
C732 C740 1.378 . S
C733 C732 1.367 . S
C733 C741 1.433 . S
C734 H730 0.929 . S
C734 C736 1.378 . S
C734 C738 1.350 . S
C735 C738 1.463 . S
C735 C740 1.350 . S
C735 N743 1.427 . S
C736 H727 0.930 . S
C736 C734 1.378 . S
C736 C737 1.367 . S
C737 C736 1.367 . S
C737 C739 1.433 . S
C738 C734 1.350 . S
C738 C735 1.463 . S
C738 N742 1.427 . S
C739 H729 0.929 . S
C739 C737 1.433 . S
C739 N742 1.384 . S
C740 H731 0.929 . S
C740 C732 1.378 . S
C740 C735 1.350 . S
C741 H728 0.929 . S
C741 C733 1.433 . S
C741 N743 1.384 . S
N742 C738 1.427 . S
N742 C739 1.384 . S
N743 C735 1.427 . S
N743 C741 1.384 . S
H744 C750 0.930 . S
H745 C754 0.930 . S
H746 C759 0.929 . S
H747 C757 0.929 . S
H748 C752 0.929 . S
H749 C758 0.929 . S
C750 H744 0.930 . S
C750 C751 1.367 . S
C750 C758 1.378 . S
C751 C750 1.367 . S
C751 C759 1.433 . S
C752 H748 0.929 . S
C752 C754 1.378 . S
C752 C756 1.350 . S
C753 C756 1.463 . S
C753 C758 1.350 . S
C753 N761 1.427 . S
C754 H745 0.930 . S
C754 C752 1.378 . S
C754 C755 1.367 . S
C755 C754 1.367 . S
C755 C757 1.433 . S
C756 C752 1.350 . S
C756 C753 1.463 . S
C756 N760 1.427 . S
C757 H747 0.929 . S
C757 C755 1.433 . S
C757 N760 1.384 . S
C758 H749 0.929 . S
C758 C750 1.378 . S
C758 C753 1.350 . S
C759 H746 0.929 . S
C759 C751 1.433 . S
C759 N761 1.384 . S
N760 C756 1.427 . S
N760 C757 1.384 . S
N761 C753 1.427 . S
N761 C759 1.384 . S
H762 C768 0.930 . S
H763 C772 0.930 . S
H764 C777 0.929 . S
H765 C775 0.929 . S
H766 C770 0.929 . S
H767 C776 0.929 . S
C768 H762 0.930 . S
C768 C769 1.367 . S
C768 C776 1.378 . S
C769 C768 1.367 . S
C769 C777 1.433 . S
C770 H766 0.929 . S
C770 C772 1.378 . S
C770 C774 1.350 . S
C771 C774 1.463 . S
C771 C776 1.350 . S
C771 N779 1.427 . S
C772 H763 0.930 . S
C772 C770 1.378 . S
C772 C773 1.367 . S
C773 C772 1.367 . S
C773 C775 1.433 . S
C774 C770 1.350 . S
C774 C771 1.463 . S
C774 N778 1.427 . S
C775 H765 0.929 . S
C775 C773 1.433 . S
C775 N778 1.384 . S
C776 H767 0.929 . S
C776 C768 1.378 . S
C776 C771 1.350 . S
C777 H764 0.929 . S
C777 C769 1.433 . S
C777 N779 1.384 . S
N778 C774 1.427 . S
N778 C775 1.384 . S
N779 C771 1.427 . S
N779 C777 1.384 . S
H780 C786 0.930 . S
H781 C790 0.930 . S
H782 C795 0.929 . S
H783 C793 0.929 . S
H784 C788 0.929 . S
H785 C794 0.929 . S
C786 H780 0.930 . S
C786 C787 1.367 . S
C786 C794 1.378 . S
C787 C786 1.367 . S
C787 C795 1.433 . S
C788 H784 0.929 . S
C788 C790 1.378 . S
C788 C792 1.350 . S
C789 C792 1.463 . S
C789 C794 1.350 . S
C789 N797 1.427 . S
C790 H781 0.930 . S
C790 C788 1.378 . S
C790 C791 1.367 . S
C791 C790 1.367 . S
C791 C793 1.433 . S
C792 C788 1.350 . S
C792 C789 1.463 . S
C792 N796 1.427 . S
C793 H783 0.929 . S
C793 C791 1.433 . S
C793 N796 1.384 . S
C794 H785 0.929 . S
C794 C786 1.378 . S
C794 C789 1.350 . S
C795 H782 0.929 . S
C795 C787 1.433 . S
C795 N797 1.384 . S
N796 C792 1.427 . S
N796 C793 1.384 . S
N797 C789 1.427 . S
N797 C795 1.384 . S
H798 C804 0.930 . S
H799 C808 0.930 . S
H800 C813 0.929 . S
H801 C811 0.929 . S
H802 C806 0.929 . S
H803 C812 0.929 . S
C804 H798 0.930 . S
C804 C805 1.367 . S
C804 C812 1.378 . S
C805 C804 1.367 . S
C805 C813 1.433 . S
C806 H802 0.929 . S
C806 C808 1.378 . S
C806 C810 1.350 . S
C807 C810 1.463 . S
C807 C812 1.350 . S
C807 N815 1.427 . S
C808 H799 0.930 . S
C808 C806 1.378 . S
C808 C809 1.367 . S
C809 C808 1.367 . S
C809 C811 1.433 . S
C810 C806 1.350 . S
C810 C807 1.463 . S
C810 N814 1.427 . S
C811 H801 0.929 . S
C811 C809 1.433 . S
C811 N814 1.384 . S
C812 H803 0.929 . S
C812 C804 1.378 . S
C812 C807 1.350 . S
C813 H800 0.929 . S
C813 C805 1.433 . S
C813 N815 1.384 . S
N814 C810 1.427 . S
N814 C811 1.384 . S
N815 C807 1.427 . S
N815 C813 1.384 . S
H816 C822 0.930 . S
H817 C826 0.930 . S
H818 C831 0.929 . S
H819 C829 0.929 . S
H820 C824 0.929 1_545 S
H821 C830 0.929 1_565 S
C822 H816 0.930 . S
C822 C823 1.367 . S
C822 C830 1.378 . S
C823 C822 1.367 . S
C823 C831 1.433 . S
C824 H820 0.929 1_565 S
C824 C826 1.378 . S
C824 C828 1.350 . S
C825 C828 1.463 1_545 S
C825 C830 1.350 . S
C825 N833 1.427 . S
C826 H817 0.930 . S
C826 C824 1.378 . S
C826 C827 1.367 . S
C827 C826 1.367 . S
C827 C829 1.433 . S
C828 C824 1.350 . S
C828 C825 1.463 1_565 S
C828 N832 1.427 . S
C829 H819 0.929 . S
C829 C827 1.433 . S
C829 N832 1.384 . S
C830 H821 0.929 1_545 S
C830 C822 1.378 . S
C830 C825 1.350 . S
C831 H818 0.929 . S
C831 C823 1.433 . S
C831 N833 1.384 . S
N832 C828 1.427 . S
N832 C829 1.384 . S
N833 C825 1.427 . S
N833 C831 1.384 . S
H834 C840 0.930 . S
H835 C844 0.930 . S
H836 C849 0.929 . S
H837 C847 0.929 . S
H838 C842 0.929 . S
H839 C848 0.929 . S
C840 H834 0.930 . S
C840 C841 1.367 . S
C840 C848 1.378 . S
C841 C840 1.367 . S
C841 C849 1.433 . S
C842 H838 0.929 . S
C842 C844 1.378 . S
C842 C846 1.350 . S
C843 C846 1.463 . S
C843 C848 1.350 . S
C843 N851 1.427 . S
C844 H835 0.930 . S
C844 C842 1.378 . S
C844 C845 1.367 . S
C845 C844 1.367 . S
C845 C847 1.433 . S
C846 C842 1.350 . S
C846 C843 1.463 . S
C846 N850 1.427 . S
C847 H837 0.929 . S
C847 C845 1.433 . S
C847 N850 1.384 . S
C848 H839 0.929 . S
C848 C840 1.378 . S
C848 C843 1.350 . S
C849 H836 0.929 . S
C849 C841 1.433 . S
C849 N851 1.384 . S
N850 C846 1.427 . S
N850 C847 1.384 . S
N851 C843 1.427 . S
N851 C849 1.384 . S
H852 C858 0.930 . S
H853 C862 0.930 . S
H854 C867 0.929 1_655 S
H855 C865 0.929 1_455 S
H856 C860 0.929 . S
H857 C866 0.929 . S
C858 H852 0.930 . S
C858 C859 1.367 . S
C858 C866 1.378 . S
C859 C858 1.367 . S
C859 C867 1.433 1_556 S
C860 H856 0.929 . S
C860 C862 1.378 . S
C860 C864 1.350 1_554 S
C861 C864 1.463 1_455 S
C861 C866 1.350 . S
C861 N869 1.427 1_456 S
C862 H853 0.930 . S
C862 C860 1.378 . S
C862 C863 1.367 1_554 S
C863 C862 1.367 1_556 S
C863 C865 1.433 . S
C864 C860 1.350 1_556 S
C864 C861 1.463 1_655 S
C864 N868 1.427 1_655 S
C865 H855 0.929 1_655 S
C865 C863 1.433 . S
C865 N868 1.384 1_655 S
C866 H857 0.929 . S
C866 C858 1.378 . S
C866 C861 1.350 . S
C867 H854 0.929 1_455 S
C867 C859 1.433 1_554 S
C867 N869 1.384 1_455 S
N868 C864 1.427 1_455 S
N868 C865 1.384 1_455 S
N869 C861 1.427 1_654 S
N869 C867 1.384 1_655 S
H870 C876 0.930 . S
H871 C880 0.930 . S
H872 C885 0.929 1_455 S
H873 C883 0.929 1_655 S
H874 C878 0.929 . S
H875 C884 0.929 . S
C876 H870 0.930 . S
C876 C877 1.367 . S
C876 C884 1.378 . S
C877 C876 1.367 . S
C877 C885 1.433 . S
C878 H874 0.929 . S
C878 C880 1.378 . S
C878 C882 1.350 . S
C879 C882 1.463 1_655 S
C879 C884 1.350 . S
C879 N887 1.427 1_655 S
C880 H871 0.930 . S
C880 C878 1.378 . S
C880 C881 1.367 . S
C881 C880 1.367 . S
C881 C883 1.433 . S
C882 C878 1.350 . S
C882 C879 1.463 1_455 S
C882 N886 1.427 1_455 S
C883 H873 0.929 1_455 S
C883 C881 1.433 . S
C883 N886 1.384 1_455 S
C884 H875 0.929 . S
C884 C876 1.378 . S
C884 C879 1.350 . S
C885 H872 0.929 1_655 S
C885 C877 1.433 . S
C885 N887 1.384 1_655 S
N886 C882 1.427 1_655 S
N886 C883 1.384 1_655 S
N887 C879 1.427 1_455 S
N887 C885 1.384 1_455 S
H888 C894 0.930 . S
H889 C898 0.930 . S
H890 C903 0.929 . S
H891 C901 0.929 . S
H892 C896 0.929 . S
H893 C902 0.929 . S
C894 H888 0.930 . S
C894 C895 1.367 . S
C894 C902 1.378 . S
C895 C894 1.367 . S
C895 C903 1.433 . S
C896 H892 0.929 . S
C896 C898 1.378 . S
C896 C900 1.350 . S
C897 C900 1.463 1_545 S
C897 C902 1.350 . S
C897 N905 1.427 . S
C898 H889 0.930 . S
C898 C896 1.378 . S
C898 C899 1.367 . S
C899 C898 1.367 . S
C899 C901 1.433 . S
C900 C896 1.350 . S
C900 C897 1.463 1_565 S
C900 N904 1.427 . S
C901 H891 0.929 . S
C901 C899 1.433 . S
C901 N904 1.384 . S
C902 H893 0.929 . S
C902 C894 1.378 . S
C902 C897 1.350 . S
C903 H890 0.929 . S
C903 C895 1.433 . S
C903 N905 1.384 . S
N904 C900 1.427 . S
N904 C901 1.384 . S
N905 C897 1.427 . S
N905 C903 1.384 . S
H906 C912 0.930 . S
H907 C916 0.930 . S
H908 C921 0.929 . S
H909 C919 0.929 . S
H910 C914 0.929 . S
H911 C920 0.929 . S
C912 H906 0.930 . S
C912 C913 1.367 1_556 S
C912 C920 1.378 . S
C913 C912 1.367 1_554 S
C913 C921 1.433 . S
C914 H910 0.929 . S
C914 C916 1.378 . S
C914 C918 1.350 . S
C915 C918 1.463 . S
C915 C920 1.350 1_554 S
C915 N923 1.427 . S
C916 H907 0.930 . S
C916 C914 1.378 . S
C916 C917 1.367 . S
C917 C916 1.367 . S
C917 C919 1.433 1_554 S
C918 C914 1.350 . S
C918 C915 1.463 . S
C918 N922 1.427 1_554 S
C919 H909 0.929 . S
C919 C917 1.433 1_556 S
C919 N922 1.384 . S
C920 H911 0.929 . S
C920 C912 1.378 . S
C920 C915 1.350 1_556 S
C921 H908 0.929 . S
C921 C913 1.433 . S
C921 N923 1.384 . S
N922 C918 1.427 1_556 S
N922 C919 1.384 . S
N923 C915 1.427 . S
N923 C921 1.384 . S
H924 C930 0.930 . S
H925 C934 0.930 . S
H926 C939 0.929 . S
H927 C937 0.929 . S
H928 C932 0.929 . S
H929 C938 0.929 . S
C930 H924 0.930 . S
C930 C931 1.367 . S
C930 C938 1.378 . S
C931 C930 1.367 . S
C931 C939 1.433 . S
C932 H928 0.929 . S
C932 C934 1.378 . S
C932 C936 1.350 . S
C933 C936 1.463 . S
C933 C938 1.350 . S
C933 N941 1.427 . S
C934 H925 0.930 . S
C934 C932 1.378 . S
C934 C935 1.367 . S
C935 C934 1.367 . S
C935 C937 1.433 . S
C936 C932 1.350 . S
C936 C933 1.463 . S
C936 N940 1.427 . S
C937 H927 0.929 . S
C937 C935 1.433 . S
C937 N940 1.384 . S
C938 H929 0.929 . S
C938 C930 1.378 . S
C938 C933 1.350 . S
C939 H926 0.929 . S
C939 C931 1.433 . S
C939 N941 1.384 . S
N940 C936 1.427 . S
N940 C937 1.384 . S
N941 C933 1.427 . S
N941 C939 1.384 . S
H942 C948 0.930 . S
H943 C952 0.930 . S
H944 C957 0.929 . S
H945 C955 0.929 . S
H946 C950 0.929 . S
H947 C956 0.929 . S
C948 H942 0.930 . S
C948 C949 1.367 . S
C948 C956 1.378 . S
C949 C948 1.367 . S
C949 C957 1.433 . S
C950 H946 0.929 . S
C950 C952 1.378 . S
C950 C954 1.350 . S
C951 C954 1.463 . S
C951 C956 1.350 . S
C951 N959 1.427 . S
C952 H943 0.930 . S
C952 C950 1.378 . S
C952 C953 1.367 . S
C953 C952 1.367 . S
C953 C955 1.433 . S
C954 C950 1.350 . S
C954 C951 1.463 . S
C954 N958 1.427 . S
C955 H945 0.929 . S
C955 C953 1.433 . S
C955 N958 1.384 . S
C956 H947 0.929 . S
C956 C948 1.378 . S
C956 C951 1.350 . S
C957 H944 0.929 . S
C957 C949 1.433 . S
C957 N959 1.384 . S
N958 C954 1.427 . S
N958 C955 1.384 . S
N959 C951 1.427 . S
N959 C957 1.384 . S
H960 C966 0.930 . S
H961 C970 0.930 . S
H962 C975 0.929 . S
H963 C973 0.929 . S
H964 C968 0.929 . S
H965 C974 0.929 . S
C966 H960 0.930 . S
C966 C967 1.367 1_556 S
C966 C974 1.378 . S
C967 C966 1.367 1_554 S
C967 C975 1.433 . S
C968 H964 0.929 . S
C968 C970 1.378 . S
C968 C972 1.350 . S
C969 C972 1.463 . S
C969 C974 1.350 1_554 S
C969 N977 1.427 . S
C970 H961 0.930 . S
C970 C968 1.378 . S
C970 C971 1.367 1_554 S
C971 C970 1.367 1_556 S
C971 C973 1.433 . S
C972 C968 1.350 . S
C972 C969 1.463 . S
C972 N976 1.427 1_554 S
C973 H963 0.929 . S
C973 C971 1.433 . S
C973 N976 1.384 . S
C974 H965 0.929 . S
C974 C966 1.378 . S
C974 C969 1.350 1_556 S
C975 H962 0.929 . S
C975 C967 1.433 . S
C975 N977 1.384 . S
N976 C972 1.427 1_556 S
N976 C973 1.384 . S
N977 C969 1.427 . S
N977 C975 1.384 . S
H978 C984 0.930 . S
H979 C988 0.930 . S
H980 C993 0.929 . S
H981 C991 0.929 . S
H982 C986 0.929 . S
H983 C992 0.929 . S
C984 H978 0.930 . S
C984 C985 1.367 . S
C984 C992 1.378 . S
C985 C984 1.367 . S
C985 C993 1.433 . S
C986 H982 0.929 . S
C986 C988 1.378 . S
C986 C990 1.350 . S
C987 C990 1.463 . S
C987 C992 1.350 . S
C987 N995 1.427 . S
C988 H979 0.930 . S
C988 C986 1.378 . S
C988 C989 1.367 . S
C989 C988 1.367 . S
C989 C991 1.433 . S
C990 C986 1.350 . S
C990 C987 1.463 . S
C990 N994 1.427 . S
C991 H981 0.929 . S
C991 C989 1.433 . S
C991 N994 1.384 . S
C992 H983 0.929 . S
C992 C984 1.378 . S
C992 C987 1.350 . S
C993 H980 0.929 . S
C993 C985 1.433 . S
C993 N995 1.384 . S
N994 C990 1.427 . S
N994 C991 1.384 . S
N995 C987 1.427 . S
N995 C993 1.384 . S
H996 C1002 0.930 . S
H997 C1006 0.930 . S
H998 C1011 0.929 . S
H999 C1009 0.929 . S
H1000 C1004 0.929 . S
H1001 C1010 0.929 . S
C1002 H996 0.930 . S
C1002 C1003 1.367 . S
C1002 C1010 1.378 . S
C1003 C1002 1.367 . S
C1003 C1011 1.433 . S
C1004 H1000 0.929 . S
C1004 C1006 1.378 . S
C1004 C1008 1.350 . S
C1005 C1008 1.463 . S
C1005 C1010 1.350 . S
C1005 N1013 1.427 . S
C1006 H997 0.930 . S
C1006 C1004 1.378 . S
C1006 C1007 1.367 . S
C1007 C1006 1.367 . S
C1007 C1009 1.433 . S
C1008 C1004 1.350 . S
C1008 C1005 1.463 . S
C1008 N1012 1.427 . S
C1009 H999 0.929 . S
C1009 C1007 1.433 . S
C1009 N1012 1.384 . S
C1010 H1001 0.929 . S
C1010 C1002 1.378 . S
C1010 C1005 1.350 . S
C1011 H998 0.929 . S
C1011 C1003 1.433 . S
C1011 N1013 1.384 . S
N1012 C1008 1.427 . S
N1012 C1009 1.384 . S
N1013 C1005 1.427 . S
N1013 C1011 1.384 . S
H1014 C1020 0.930 . S
H1015 C1024 0.930 . S
H1016 C1029 0.929 1_556 S
H1017 C1027 0.929 . S
H1018 C1022 0.929 . S
H1019 C1028 0.929 . S
C1020 H1014 0.930 . S
C1020 C1021 1.367 . S
C1020 C1028 1.378 . S
C1021 C1020 1.367 . S
C1021 C1029 1.433 . S
C1022 H1018 0.929 . S
C1022 C1024 1.378 . S
C1022 C1026 1.350 1_556 S
C1023 C1026 1.463 . S
C1023 C1028 1.350 . S
C1023 N1031 1.420 1_554 S
C1024 H1015 0.930 . S
C1024 C1022 1.378 . S
C1024 C1025 1.367 . S
C1025 C1024 1.367 . S
C1025 C1027 1.433 1_556 S
C1026 C1022 1.350 1_554 S
C1026 C1023 1.463 . S
C1026 N1030 1.427 . S
C1027 H1017 0.929 . S
C1027 C1025 1.433 1_554 S
C1027 N1030 1.384 . S
C1028 H1019 0.929 . S
C1028 C1020 1.378 . S
C1028 C1023 1.350 . S
C1029 H1016 0.929 1_554 S
C1029 C1021 1.433 . S
C1029 N1031 1.380 1_554 S
N1030 C1026 1.427 . S
N1030 C1027 1.384 . S
N1031 C1023 1.420 1_556 S
N1031 C1029 1.380 1_556 S
H1032 C1038 0.930 . S
H1033 C1042 0.930 . S
H1034 C1047 0.929 . S
H1035 C1045 0.929 . S
H1036 C1040 0.929 . S
H1037 C1046 0.929 . S
C1038 H1032 0.930 . S
C1038 C1039 1.367 1_565 S
C1038 C1046 1.378 . S
C1039 C1038 1.367 1_545 S
C1039 C1047 1.433 . S
C1040 H1036 0.929 . S
C1040 C1042 1.378 . S
C1040 C1044 1.350 1_545 S
C1041 C1044 1.463 1_545 S
C1041 C1046 1.350 1_545 S
C1041 N1049 1.427 . S
C1042 H1033 0.930 . S
C1042 C1040 1.378 . S
C1042 C1043 1.367 1_545 S
C1043 C1042 1.367 1_565 S
C1043 C1045 1.433 . S
C1044 C1040 1.350 1_565 S
C1044 C1041 1.463 1_565 S
C1044 N1048 1.427 . S
C1045 H1035 0.929 . S
C1045 C1043 1.433 . S
C1045 N1048 1.384 . S
C1046 H1037 0.929 . S
C1046 C1038 1.378 . S
C1046 C1041 1.350 1_565 S
C1047 H1034 0.929 . S
C1047 C1039 1.433 . S
C1047 N1049 1.384 . S
N1048 C1044 1.427 . S
N1048 C1045 1.384 . S
N1049 C1041 1.427 . S
N1049 C1047 1.384 . S
H1050 C1056 0.930 . S
H1051 C1060 0.930 . S
H1052 C1065 0.929 . S
H1053 C1063 0.929 . S
H1054 C1058 0.929 . S
H1055 C1064 0.929 . S
C1056 H1050 0.930 . S
C1056 C1057 1.367 . S
C1056 C1064 1.378 . S
C1057 C1056 1.367 . S
C1057 C1065 1.433 . S
C1058 H1054 0.929 . S
C1058 C1060 1.378 . S
C1058 C1062 1.350 . S
C1059 C1062 1.463 . S
C1059 C1064 1.350 . S
C1059 N1067 1.427 . S
C1060 H1051 0.930 . S
C1060 C1058 1.378 . S
C1060 C1061 1.367 . S
C1061 C1060 1.367 . S
C1061 C1063 1.433 . S
C1062 C1058 1.350 . S
C1062 C1059 1.463 . S
C1062 N1066 1.427 . S
C1063 H1053 0.929 . S
C1063 C1061 1.433 . S
C1063 N1066 1.384 . S
C1064 H1055 0.929 . S
C1064 C1056 1.378 . S
C1064 C1059 1.350 . S
C1065 H1052 0.929 . S
C1065 C1057 1.433 . S
C1065 N1067 1.384 . S
N1066 C1062 1.427 . S
N1066 C1063 1.384 . S
N1067 C1059 1.427 . S
N1067 C1065 1.384 . S
H1068 C1074 0.930 . S
H1069 C1078 0.930 . S
H1070 C1083 0.929 . S
H1071 C1081 0.929 . S
H1072 C1076 0.929 . S
H1073 C1082 0.929 . S
C1074 H1068 0.930 . S
C1074 C1075 1.367 1_655 S
C1074 C1082 1.378 . S
C1075 C1074 1.367 1_455 S
C1075 C1083 1.433 . S
C1076 H1072 0.929 . S
C1076 C1078 1.378 . S
C1076 C1080 1.350 1_455 S
C1077 C1080 1.463 1_455 S
C1077 C1082 1.350 1_455 S
C1077 N1085 1.427 . S
C1078 H1069 0.930 . S
C1078 C1076 1.378 . S
C1078 C1079 1.367 1_455 S
C1079 C1078 1.367 1_655 S
C1079 C1081 1.433 . S
C1080 C1076 1.350 1_655 S
C1080 C1077 1.463 1_655 S
C1080 N1084 1.427 . S
C1081 H1071 0.929 . S
C1081 C1079 1.433 . S
C1081 N1084 1.384 . S
C1082 H1073 0.929 . S
C1082 C1074 1.378 . S
C1082 C1077 1.350 1_655 S
C1083 H1070 0.929 . S
C1083 C1075 1.433 . S
C1083 N1085 1.384 . S
N1084 C1080 1.427 . S
N1084 C1081 1.384 . S
N1085 C1077 1.427 . S
N1085 C1083 1.384 . S
H1086 C1092 0.930 . S
H1087 C1096 0.930 . S
H1088 C1101 0.929 . S
H1089 C1099 0.929 . S
H1090 C1094 0.929 . S
H1091 C1100 0.929 . S
C1092 H1086 0.930 . S
C1092 C1093 1.367 1_545 S
C1092 C1100 1.378 . S
C1093 C1092 1.367 1_565 S
C1093 C1101 1.433 . S
C1094 H1090 0.929 . S
C1094 C1096 1.378 . S
C1094 C1098 1.350 1_565 S
C1095 C1098 1.463 1_565 S
C1095 C1100 1.350 1_565 S
C1095 N1103 1.427 . S
C1096 H1087 0.930 . S
C1096 C1094 1.378 . S
C1096 C1097 1.367 1_565 S
C1097 C1096 1.367 1_545 S
C1097 C1099 1.433 . S
C1098 C1094 1.350 1_545 S
C1098 C1095 1.463 1_545 S
C1098 N1102 1.427 . S
C1099 H1089 0.929 . S
C1099 C1097 1.433 . S
C1099 N1102 1.384 . S
C1100 H1091 0.929 . S
C1100 C1092 1.378 . S
C1100 C1095 1.350 1_545 S
C1101 H1088 0.929 . S
C1101 C1093 1.433 . S
C1101 N1103 1.384 . S
N1102 C1098 1.427 . S
N1102 C1099 1.384 . S
N1103 C1095 1.427 . S
N1103 C1101 1.384 . S
H1104 C1110 0.930 . S
H1105 C1114 0.930 . S
H1106 C1119 0.929 . S
H1107 C1117 0.929 . S
H1108 C1112 0.929 . S
H1109 C1118 0.929 . S
C1110 H1104 0.930 . S
C1110 C1111 1.367 . S
C1110 C1118 1.378 . S
C1111 C1110 1.367 . S
C1111 C1119 1.433 . S
C1112 H1108 0.929 . S
C1112 C1114 1.378 . S
C1112 C1116 1.350 . S
C1113 C1116 1.463 . S
C1113 C1118 1.350 . S
C1113 N1121 1.427 . S
C1114 H1105 0.930 . S
C1114 C1112 1.378 . S
C1114 C1115 1.367 . S
C1115 C1114 1.367 . S
C1115 C1117 1.433 . S
C1116 C1112 1.350 . S
C1116 C1113 1.463 . S
C1116 N1120 1.427 . S
C1117 H1107 0.929 . S
C1117 C1115 1.433 . S
C1117 N1120 1.384 . S
C1118 H1109 0.929 . S
C1118 C1110 1.378 . S
C1118 C1113 1.350 . S
C1119 H1106 0.929 . S
C1119 C1111 1.433 . S
C1119 N1121 1.384 . S
N1120 C1116 1.427 . S
N1120 C1117 1.384 . S
N1121 C1113 1.427 . S
N1121 C1119 1.384 . S
H1122 C1128 0.930 . S
H1123 C1132 0.930 . S
H1124 C1137 0.929 . S
H1125 C1135 0.929 . S
H1126 C1130 0.929 . S
H1127 C1136 0.929 . S
C1128 H1122 0.930 . S
C1128 C1129 1.367 1_455 S
C1128 C1136 1.378 . S
C1129 C1128 1.367 1_655 S
C1129 C1137 1.433 . S
C1130 H1126 0.929 . S
C1130 C1132 1.378 . S
C1130 C1134 1.350 1_655 S
C1131 C1134 1.463 1_655 S
C1131 C1136 1.350 1_655 S
C1131 N1139 1.427 . S
C1132 H1123 0.930 . S
C1132 C1130 1.378 . S
C1132 C1133 1.367 1_655 S
C1133 C1132 1.367 1_455 S
C1133 C1135 1.433 . S
C1134 C1130 1.350 1_455 S
C1134 C1131 1.463 1_455 S
C1134 N1138 1.427 . S
C1135 H1125 0.929 . S
C1135 C1133 1.433 . S
C1135 N1138 1.384 . S
C1136 H1127 0.929 . S
C1136 C1128 1.378 . S
C1136 C1131 1.350 1_455 S
C1137 H1124 0.929 . S
C1137 C1129 1.433 . S
C1137 N1139 1.384 . S
N1138 C1134 1.427 . S
N1138 C1135 1.384 . S
N1139 C1131 1.427 . S
N1139 C1137 1.384 . S
C715 C5 1.680 . S
C719 C477 1.681 . S
C733 C64 1.681 . S
C737 C536 1.680 . S
C751 C595 1.681 . S
C755 C123 1.680 . S
C769 C654 1.681 . S
C773 C182 1.680 . S
C787 C359 1.681 . S
C791 C241 1.680 . S
C805 C418 1.681 . S
C809 C300 1.680 . S
C823 C3 1.787 . S
C827 C180 1.794 . S
C841 C239 1.793 . S
C845 C62 1.798 . S
C859 C298 1.798 . S
C863 C121 1.792 . S
C877 C357 1.791 . S
C881 C534 1.797 . S
C895 C593 1.796 . S
C899 C416 1.789 . S
C913 C475 1.788 . S
C917 C652 1.795 . S
C931 C387 1.122 . S
C935 C33 1.121 . S
C949 C92 1.121 . S
C953 C446 1.129 . S
C967 C505 1.120 . S
C971 C151 1.126 . S
C985 C564 1.124 . S
C989 C210 1.120 . S
C1003 C269 1.120 . S
C1007 C623 1.128 . S
C1021 C682 1.130 . S
C1025 C328 1.122 . S
C1039 C52 1.213 . S
C1043 C465 1.213 . S
C1057 C524 1.217 . S
C1061 C111 1.214 . S
C1075 C583 1.213 . S
C1079 C170 1.213 . S
C1093 C229 1.212 . S
C1097 C642 1.214 . S
C1111 C701 1.216 . S
C1115 C288 1.212 . S
C1129 C406 1.214 . S
C1133 C347 1.212 . S
